# Generated by pormake.
# Topology eea, (3,6)-cn, num edge types: 1
# Building blocks:
#     Node 0, Type 0, BuildingBlock: KAKCAD_clean_linker_0, # of connection points: 3
#     Node 1, Type 0, BuildingBlock: KAKCAD_clean_linker_0, # of connection points: 3
#     Node 2, Type 0, BuildingBlock: KAKCAD_clean_linker_0, # of connection points: 3
#     Node 3, Type 0, BuildingBlock: KAKCAD_clean_linker_0, # of connection points: 3
#     Node 4, Type 0, BuildingBlock: KAKCAD_clean_linker_0, # of connection points: 3
#     Node 5, Type 0, BuildingBlock: KAKCAD_clean_linker_0, # of connection points: 3
#     Node 6, Type 0, BuildingBlock: KAKCAD_clean_linker_0, # of connection points: 3
#     Node 7, Type 0, BuildingBlock: KAKCAD_clean_linker_0, # of connection points: 3
#     Node 8, Type 0, BuildingBlock: KAKCAD_clean_linker_0, # of connection points: 3
#     Node 9, Type 0, BuildingBlock: KAKCAD_clean_linker_0, # of connection points: 3
#     Node 10, Type 0, BuildingBlock: KAKCAD_clean_linker_0, # of connection points: 3
#     Node 11, Type 0, BuildingBlock: KAKCAD_clean_linker_0, # of connection points: 3
#     Node 12, Type 0, BuildingBlock: KAKCAD_clean_linker_0, # of connection points: 3
#     Node 13, Type 0, BuildingBlock: KAKCAD_clean_linker_0, # of connection points: 3
#     Node 14, Type 0, BuildingBlock: KAKCAD_clean_linker_0, # of connection points: 3
#     Node 15, Type 0, BuildingBlock: KAKCAD_clean_linker_0, # of connection points: 3
#     Node 16, Type 0, BuildingBlock: KAKCAD_clean_linker_0, # of connection points: 3
#     Node 17, Type 0, BuildingBlock: KAKCAD_clean_linker_0, # of connection points: 3
#     Node 18, Type 1, BuildingBlock: KUMJIN_clean_sbu_0, # of connection points: 6
#     Node 19, Type 1, BuildingBlock: KUMJIN_clean_sbu_0, # of connection points: 6
#     Node 20, Type 1, BuildingBlock: KUMJIN_clean_sbu_0, # of connection points: 6
#     Node 21, Type 1, BuildingBlock: KUMJIN_clean_sbu_0, # of connection points: 6
#     Node 22, Type 1, BuildingBlock: KUMJIN_clean_sbu_0, # of connection points: 6
#     Node 23, Type 1, BuildingBlock: KUMJIN_clean_sbu_0, # of connection points: 6
#     Node 24, Type 1, BuildingBlock: KUMJIN_clean_sbu_0, # of connection points: 6
#     Node 25, Type 1, BuildingBlock: KUMJIN_clean_sbu_0, # of connection points: 6
#     Node 26, Type 1, BuildingBlock: KUMJIN_clean_sbu_0, # of connection points: 6
#     Edge 27, Type (0, 1), BuildingBlock: TEMPAE_clean_linker_10, # of connection points: 2
#     Edge 28, Type (0, 1), BuildingBlock: TEMPAE_clean_linker_10, # of connection points: 2
#     Edge 29, Type (0, 1), BuildingBlock: TEMPAE_clean_linker_10, # of connection points: 2
#     Edge 30, Type (0, 1), BuildingBlock: TEMPAE_clean_linker_10, # of connection points: 2
#     Edge 31, Type (0, 1), BuildingBlock: TEMPAE_clean_linker_10, # of connection points: 2
#     Edge 32, Type (0, 1), BuildingBlock: TEMPAE_clean_linker_10, # of connection points: 2
#     Edge 33, Type (0, 1), BuildingBlock: TEMPAE_clean_linker_10, # of connection points: 2
#     Edge 34, Type (0, 1), BuildingBlock: TEMPAE_clean_linker_10, # of connection points: 2
#     Edge 35, Type (0, 1), BuildingBlock: TEMPAE_clean_linker_10, # of connection points: 2
#     Edge 36, Type (0, 1), BuildingBlock: TEMPAE_clean_linker_10, # of connection points: 2
#     Edge 37, Type (0, 1), BuildingBlock: TEMPAE_clean_linker_10, # of connection points: 2
#     Edge 38, Type (0, 1), BuildingBlock: TEMPAE_clean_linker_10, # of connection points: 2
#     Edge 39, Type (0, 1), BuildingBlock: TEMPAE_clean_linker_10, # of connection points: 2
#     Edge 40, Type (0, 1), BuildingBlock: TEMPAE_clean_linker_10, # of connection points: 2
#     Edge 41, Type (0, 1), BuildingBlock: TEMPAE_clean_linker_10, # of connection points: 2
#     Edge 42, Type (0, 1), BuildingBlock: TEMPAE_clean_linker_10, # of connection points: 2
#     Edge 43, Type (0, 1), BuildingBlock: TEMPAE_clean_linker_10, # of connection points: 2
#     Edge 44, Type (0, 1), BuildingBlock: TEMPAE_clean_linker_10, # of connection points: 2
#     Edge 45, Type (0, 1), BuildingBlock: TEMPAE_clean_linker_10, # of connection points: 2
#     Edge 46, Type (0, 1), BuildingBlock: TEMPAE_clean_linker_10, # of connection points: 2
#     Edge 47, Type (0, 1), BuildingBlock: TEMPAE_clean_linker_10, # of connection points: 2
#     Edge 48, Type (0, 1), BuildingBlock: TEMPAE_clean_linker_10, # of connection points: 2
#     Edge 49, Type (0, 1), BuildingBlock: TEMPAE_clean_linker_10, # of connection points: 2
#     Edge 50, Type (0, 1), BuildingBlock: TEMPAE_clean_linker_10, # of connection points: 2
#     Edge 51, Type (0, 1), BuildingBlock: TEMPAE_clean_linker_10, # of connection points: 2
#     Edge 52, Type (0, 1), BuildingBlock: TEMPAE_clean_linker_10, # of connection points: 2
#     Edge 53, Type (0, 1), BuildingBlock: TEMPAE_clean_linker_10, # of connection points: 2
#     Edge 54, Type (0, 1), BuildingBlock: TEMPAE_clean_linker_10, # of connection points: 2
#     Edge 55, Type (0, 1), BuildingBlock: TEMPAE_clean_linker_10, # of connection points: 2
#     Edge 56, Type (0, 1), BuildingBlock: TEMPAE_clean_linker_10, # of connection points: 2
#     Edge 57, Type (0, 1), BuildingBlock: TEMPAE_clean_linker_10, # of connection points: 2
#     Edge 58, Type (0, 1), BuildingBlock: TEMPAE_clean_linker_10, # of connection points: 2
#     Edge 59, Type (0, 1), BuildingBlock: TEMPAE_clean_linker_10, # of connection points: 2
#     Edge 60, Type (0, 1), BuildingBlock: TEMPAE_clean_linker_10, # of connection points: 2
#     Edge 61, Type (0, 1), BuildingBlock: TEMPAE_clean_linker_10, # of connection points: 2
#     Edge 62, Type (0, 1), BuildingBlock: TEMPAE_clean_linker_10, # of connection points: 2
#     Edge 63, Type (0, 1), BuildingBlock: TEMPAE_clean_linker_10, # of connection points: 2
#     Edge 64, Type (0, 1), BuildingBlock: TEMPAE_clean_linker_10, # of connection points: 2
#     Edge 65, Type (0, 1), BuildingBlock: TEMPAE_clean_linker_10, # of connection points: 2
#     Edge 66, Type (0, 1), BuildingBlock: TEMPAE_clean_linker_10, # of connection points: 2
#     Edge 67, Type (0, 1), BuildingBlock: TEMPAE_clean_linker_10, # of connection points: 2
#     Edge 68, Type (0, 1), BuildingBlock: TEMPAE_clean_linker_10, # of connection points: 2
#     Edge 69, Type (0, 1), BuildingBlock: TEMPAE_clean_linker_10, # of connection points: 2
#     Edge 70, Type (0, 1), BuildingBlock: TEMPAE_clean_linker_10, # of connection points: 2
#     Edge 71, Type (0, 1), BuildingBlock: TEMPAE_clean_linker_10, # of connection points: 2
#     Edge 72, Type (0, 1), BuildingBlock: TEMPAE_clean_linker_10, # of connection points: 2
#     Edge 73, Type (0, 1), BuildingBlock: TEMPAE_clean_linker_10, # of connection points: 2
#     Edge 74, Type (0, 1), BuildingBlock: TEMPAE_clean_linker_10, # of connection points: 2
#     Edge 75, Type (0, 1), BuildingBlock: TEMPAE_clean_linker_10, # of connection points: 2
#     Edge 76, Type (0, 1), BuildingBlock: TEMPAE_clean_linker_10, # of connection points: 2
#     Edge 77, Type (0, 1), BuildingBlock: TEMPAE_clean_linker_10, # of connection points: 2
#     Edge 78, Type (0, 1), BuildingBlock: TEMPAE_clean_linker_10, # of connection points: 2
#     Edge 79, Type (0, 1), BuildingBlock: TEMPAE_clean_linker_10, # of connection points: 2
#     Edge 80, Type (0, 1), BuildingBlock: TEMPAE_clean_linker_10, # of connection points: 2
# Relax obj value: 0.009
# Max RMSD: 0.095
# Mean RMSD: 0.062
data_MOF--net-eea--node1-KUMJIN_clean_sbu_0--node2-KAKCAD_clean_linker_0--edge1-TEMPAE_clean_linker_10
_symmetry_space_group_name_H-M    P1
_symmetry_Int_Tables_number       1
_symmetry_cell_setting            triclinic
loop_
_symmetry_equiv_pos_as_xyz
'x, y, z'
_cell_length_a     63.386859
_cell_length_b     64.592596
_cell_length_c     89.738018
_cell_angle_alpha  90.373897
_cell_angle_beta   90.181942
_cell_angle_gamma 120.03116
loop_
_atom_site_label
_atom_site_type_symbol
_atom_site_fract_x
_atom_site_fract_y
_atom_site_fract_z
_atom_type_partial_charge
C0 C 0.27221 0.15206 0.48104 0.0
C1 C 0.28661 0.14237 0.4856 0.0
C2 C 0.26092 0.1463 0.46704 0.0
C3 C 0.26422 0.1311 0.45719 0.0
C4 C 0.27892 0.12164 0.46182 0.0
C5 C 0.28979 0.12704 0.47594 0.0
C6 C 0.25246 0.12515 0.44218 0.0
C7 C 0.24976 0.14225 0.43408 0.0
C8 C 0.23844 0.13669 0.41999 0.0
C9 C 0.23072 0.11402 0.41372 0.0
C10 C 0.23353 0.09673 0.42149 0.0
C11 C 0.24393 0.10233 0.43585 0.0
C12 C 0.22603 0.07304 0.41452 0.0
C13 C 0.20554 0.06185 0.40499 0.0
C14 C 0.23982 0.06174 0.41696 0.0
C15 C 0.23337 0.03995 0.41001 0.0
C16 C 0.21335 0.0293 0.40026 0.0
C17 C 0.23396 0.15425 0.41201 0.0
C18 C 0.22667 0.16844 0.41992 0.0
C19 C 0.23592 0.15629 0.39641 0.0
C20 C 0.23005 0.17163 0.38889 0.0
C21 C 0.22239 0.18553 0.39679 0.0
C22 C 0.22111 0.18399 0.41242 0.0
C23 C 0.19945 0.04032 0.39779 0.0
H24 H 0.26939 0.1638 0.48841 0.0
H25 H 0.24938 0.15356 0.46403 0.0
H26 H 0.28235 0.1103 0.45448 0.0
H27 H 0.30104 0.11956 0.47922 0.0
H28 H 0.25683 0.1601 0.43863 0.0
H29 H 0.24503 0.08872 0.44222 0.0
H30 H 0.22242 0.1098 0.40274 0.0
H31 H 0.19414 0.06966 0.40308 0.0
H32 H 0.25597 0.06996 0.42397 0.0
H33 H 0.24439 0.0317 0.41194 0.0
H34 H 0.22469 0.16718 0.43191 0.0
H35 H 0.24187 0.14594 0.38996 0.0
H36 H 0.1838 0.03218 0.39036 0.0
H37 H 0.21575 0.19478 0.41891 0.0
H38 H 0.23109 0.17221 0.37684 0.0
C39 C 0.8897 0.15885 0.47659 0.0
C40 C 0.87758 0.13991 0.48662 0.0
C41 C 0.89506 0.15456 0.46217 0.0
C42 C 0.88862 0.13126 0.4575 0.0
C43 C 0.87742 0.11253 0.46781 0.0
C44 C 0.87181 0.11679 0.48215 0.0
C45 C 0.89225 0.12625 0.44174 0.0
C46 C 0.91294 0.14254 0.43368 0.0
C47 C 0.91568 0.13838 0.41854 0.0
C48 C 0.8973 0.1175 0.41154 0.0
C49 C 0.87701 0.10077 0.41955 0.0
C50 C 0.87453 0.10526 0.43454 0.0
C51 C 0.85845 0.07826 0.41237 0.0
C52 C 0.84543 0.07863 0.39981 0.0
C53 C 0.85354 0.05623 0.41821 0.0
C54 C 0.83598 0.03485 0.41156 0.0
C55 C 0.82248 0.03498 0.39909 0.0
C56 C 0.93773 0.15566 0.41007 0.0
C57 C 0.94884 0.18043 0.4128 0.0
C58 C 0.94791 0.14754 0.39915 0.0
C59 C 0.96844 0.16371 0.39114 0.0
C60 C 0.97956 0.18835 0.39403 0.0
C61 C 0.9696 0.19655 0.40495 0.0
C62 C 0.82744 0.05722 0.39332 0.0
H63 H 0.89421 0.17684 0.47973 0.0
H64 H 0.90343 0.16939 0.45451 0.0
H65 H 0.87272 0.09447 0.46478 0.0
H66 H 0.8628 0.10192 0.48973 0.0
H67 H 0.92717 0.15824 0.43933 0.0
H68 H 0.85831 0.09256 0.44044 0.0
H69 H 0.89875 0.11403 0.39987 0.0
H70 H 0.84885 0.09549 0.3952 0.0
H71 H 0.86357 0.05559 0.42783 0.0
H72 H 0.83323 0.01822 0.41613 0.0
H73 H 0.94134 0.18748 0.42088 0.0
H74 H 0.94026 0.12862 0.3969 0.0
H75 H 0.81722 0.05817 0.38393 0.0
H76 H 0.9777 0.21551 0.40728 0.0
H77 H 0.97593 0.15692 0.38287 0.0
C78 C 0.88947 0.75403 0.48048 0.0
C79 C 0.86657 0.73414 0.48362 0.0
C80 C 0.89481 0.76367 0.46612 0.0
C81 C 0.8772 0.75391 0.45467 0.0
C82 C 0.85427 0.73411 0.45784 0.0
C83 C 0.84909 0.72421 0.47212 0.0
C84 C 0.88258 0.76458 0.43952 0.0
C85 C 0.90398 0.76921 0.43212 0.0
C86 C 0.90961 0.77972 0.41786 0.0
C87 C 0.89279 0.78515 0.41106 0.0
C88 C 0.87084 0.78005 0.41812 0.0
C89 C 0.86618 0.77001 0.43245 0.0
C90 C 0.85258 0.78484 0.41054 0.0
C91 C 0.85998 0.80449 0.40096 0.0
C92 C 0.82738 0.76958 0.41274 0.0
C93 C 0.81022 0.77394 0.40574 0.0
C94 C 0.8177 0.79338 0.39611 0.0
C95 C 0.93276 0.78469 0.41008 0.0
C96 C 0.95344 0.78844 0.41826 0.0
C97 C 0.93451 0.78555 0.39441 0.0
C98 C 0.95606 0.7902 0.38725 0.0
C99 C 0.97648 0.79321 0.39543 0.0
C100 C 0.97461 0.79209 0.41109 0.0
C101 C 0.84275 0.80855 0.39374 0.0
H102 H 0.90332 0.76198 0.48911 0.0
H103 H 0.91258 0.77902 0.46402 0.0
H104 H 0.84039 0.72615 0.44923 0.0
H105 H 0.83124 0.70898 0.47424 0.0
H106 H 0.91584 0.76389 0.43746 0.0
H107 H 0.84995 0.76681 0.43834 0.0
H108 H 0.8966 0.79323 0.40018 0.0
H109 H 0.87911 0.81697 0.39915 0.0
H110 H 0.82076 0.75394 0.41969 0.0
H111 H 0.79102 0.76177 0.40762 0.0
H112 H 0.95355 0.78866 0.43031 0.0
H113 H 0.91919 0.78236 0.38746 0.0
H114 H 0.84902 0.82379 0.38644 0.0
H115 H 0.98935 0.7937 0.41802 0.0
H116 H 0.95649 0.79143 0.37524 0.0
C117 C 0.13082 0.23644 0.52955 0.0
C118 C 0.13209 0.2584 0.52634 0.0
C119 C 0.12606 0.22723 0.54404 0.0
C120 C 0.12187 0.23941 0.55563 0.0
C121 C 0.12275 0.26108 0.55248 0.0
C122 C 0.12806 0.27059 0.53811 0.0
C123 C 0.11709 0.22995 0.57107 0.0
C124 C 0.13362 0.2248 0.5783 0.0
C125 C 0.13023 0.21759 0.59327 0.0
C126 C 0.10964 0.21497 0.60088 0.0
C127 C 0.09229 0.21915 0.59371 0.0
C128 C 0.09645 0.22689 0.57878 0.0
C129 C 0.06991 0.21538 0.60176 0.0
C130 C 0.05859 0.19722 0.61246 0.0
C131 C 0.05946 0.22974 0.59875 0.0
C132 C 0.03827 0.22584 0.60603 0.0
C133 C 0.02718 0.20781 0.61673 0.0
C134 C 0.14849 0.21335 0.60109 0.0
C135 C 0.15717 0.1993 0.59445 0.0
C136 C 0.15751 0.22347 0.61523 0.0
C137 C 0.17495 0.21983 0.62251 0.0
C138 C 0.18364 0.20566 0.61595 0.0
C139 C 0.17436 0.19536 0.60182 0.0
C140 C 0.03766 0.19365 0.61994 0.0
H141 H 0.13329 0.22616 0.52086 0.0
H142 H 0.12534 0.21039 0.54616 0.0
H143 H 0.1199 0.271 0.56126 0.0
H144 H 0.12946 0.28779 0.53635 0.0
H145 H 0.14967 0.22737 0.57244 0.0
H146 H 0.08341 0.23012 0.57295 0.0
H147 H 0.10723 0.20966 0.61246 0.0
H148 H 0.06561 0.1854 0.61494 0.0
H149 H 0.06776 0.24424 0.59087 0.0
H150 H 0.03075 0.23722 0.60345 0.0
H151 H 0.15038 0.19106 0.58363 0.0
H152 H 0.15143 0.23465 0.62055 0.0
H153 H 0.02937 0.17946 0.62804 0.0
H154 H 0.18016 0.18398 0.59647 0.0
H155 H 0.18193 0.22853 0.63319 0.0
C156 C 0.70568 0.84235 0.53797 0.0
C157 C 0.71694 0.8569 0.52553 0.0
C158 C 0.71752 0.8478 0.55182 0.0
C159 C 0.74058 0.86818 0.55359 0.0
C160 C 0.75187 0.88278 0.54129 0.0
C161 C 0.74033 0.87707 0.52737 0.0
C162 C 0.7529 0.87447 0.56826 0.0
C163 C 0.75858 0.85865 0.57547 0.0
C164 C 0.77159 0.86528 0.58899 0.0
C165 C 0.77825 0.88757 0.59545 0.0
C166 C 0.77179 0.90319 0.5887 0.0
C167 C 0.75939 0.89659 0.57494 0.0
C168 C 0.77756 0.92605 0.59623 0.0
C169 C 0.77612 0.92714 0.61183 0.0
C170 C 0.7844 0.94687 0.58797 0.0
C171 C 0.78958 0.96819 0.59513 0.0
C172 C 0.78835 0.96931 0.61075 0.0
C173 C 0.77825 0.84906 0.59653 0.0
C174 C 0.76045 0.82532 0.59947 0.0
C175 C 0.80231 0.85761 0.60142 0.0
C176 C 0.80844 0.84272 0.60923 0.0
C177 C 0.79054 0.81914 0.61247 0.0
C178 C 0.76651 0.81052 0.60748 0.0
C179 C 0.78166 0.94852 0.619 0.0
H180 H 0.68755 0.82693 0.53712 0.0
H181 H 0.70845 0.8364 0.56124 0.0
H182 H 0.7698 0.89848 0.54242 0.0
H183 H 0.74992 0.8884 0.51804 0.0
H184 H 0.75359 0.84155 0.57032 0.0
H185 H 0.75415 0.90832 0.56953 0.0
H186 H 0.78835 0.8926 0.60588 0.0
H187 H 0.77049 0.91141 0.61857 0.0
H188 H 0.78596 0.94679 0.57596 0.0
H189 H 0.79433 0.98375 0.58839 0.0
H190 H 0.74175 0.8184 0.59589 0.0
H191 H 0.81637 0.87584 0.59922 0.0
H192 H 0.78086 0.94872 0.63104 0.0
H193 H 0.75244 0.79232 0.60974 0.0
H194 H 0.82708 0.84976 0.613 0.0
C195 C 0.11454 0.85102 0.53082 0.0
C196 C 0.13754 0.85361 0.52801 0.0
C197 C 0.10879 0.85569 0.54503 0.0
C198 C 0.12607 0.86343 0.55666 0.0
C199 C 0.14893 0.86566 0.5539 0.0
C200 C 0.15454 0.86062 0.53976 0.0
C201 C 0.1208 0.87059 0.57132 0.0
C202 C 0.09893 0.85567 0.5788 0.0
C203 C 0.09319 0.86302 0.59233 0.0
C204 C 0.10987 0.88593 0.59806 0.0
C205 C 0.13219 0.90058 0.59099 0.0
C206 C 0.13752 0.89277 0.57767 0.0
C207 C 0.15018 0.92401 0.5976 0.0
C208 C 0.14329 0.94083 0.60165 0.0
C209 C 0.17443 0.92965 0.5999 0.0
C210 C 0.19143 0.9516 0.60627 0.0
C211 C 0.18461 0.9685 0.61021 0.0
C212 C 0.07022 0.84672 0.60059 0.0
C213 C 0.04931 0.82918 0.59301 0.0
C214 C 0.06906 0.8482 0.61622 0.0
C215 C 0.04778 0.83288 0.62395 0.0
C216 C 0.02712 0.81489 0.61642 0.0
C217 C 0.02834 0.81329 0.6008 0.0
C218 C 0.16042 0.96298 0.60777 0.0
H219 H 0.10105 0.8455 0.52198 0.0
H220 H 0.0911 0.854 0.54682 0.0
H221 H 0.16256 0.87151 0.56268 0.0
H222 H 0.17246 0.86291 0.53789 0.0
H223 H 0.0868 0.83812 0.57414 0.0
H224 H 0.15445 0.90436 0.57199 0.0
H225 H 0.10581 0.89249 0.60815 0.0
H226 H 0.12473 0.93694 0.59992 0.0
H227 H 0.18015 0.91693 0.59693 0.0
H228 H 0.20999 0.95548 0.60798 0.0
H229 H 0.04892 0.82754 0.581 0.0
H230 H 0.08469 0.86094 0.62268 0.0
H231 H 0.1547 0.97568 0.6108 0.0
H232 H 0.01325 0.79952 0.59445 0.0
H233 H 0.04773 0.8353 0.63588 0.0
C234 C 0.94384 0.48988 0.81305 0.0
C235 C 0.95944 0.48139 0.81748 0.0
C236 C 0.93215 0.48356 0.79917 0.0
C237 C 0.9361 0.46896 0.7892 0.0
C238 C 0.9522 0.46099 0.79348 0.0
C239 C 0.9635 0.46691 0.80747 0.0
C240 C 0.92297 0.46156 0.7746 0.0
C241 C 0.91762 0.47715 0.76668 0.0
C242 C 0.9042 0.46985 0.75327 0.0
C243 C 0.8965 0.4468 0.74766 0.0
C244 C 0.90236 0.43136 0.75512 0.0
C245 C 0.91534 0.43869 0.76861 0.0
C246 C 0.89549 0.40779 0.74852 0.0
C247 C 0.87147 0.39229 0.74369 0.0
C248 C 0.91327 0.40118 0.74638 0.0
C249 C 0.90726 0.37967 0.73919 0.0
C250 C 0.8833 0.36428 0.73424 0.0
C251 C 0.89813 0.48618 0.74511 0.0
C252 C 0.89166 0.50111 0.7529 0.0
C253 C 0.89829 0.48663 0.72944 0.0
C254 C 0.89175 0.50132 0.72175 0.0
C255 C 0.88519 0.51618 0.72954 0.0
C256 C 0.88541 0.51602 0.74522 0.0
C257 C 0.86538 0.37059 0.73671 0.0
H258 H 0.94058 0.50144 0.82029 0.0
H259 H 0.91966 0.48983 0.79642 0.0
H260 H 0.95611 0.4501 0.78604 0.0
H261 H 0.9751 0.45973 0.8105 0.0
H262 H 0.9243 0.49518 0.77081 0.0
H263 H 0.91894 0.42622 0.77456 0.0
H264 H 0.88605 0.44082 0.73738 0.0
H265 H 0.85747 0.39702 0.74527 0.0
H266 H 0.93194 0.41294 0.74992 0.0
H267 H 0.92133 0.37506 0.73748 0.0
H268 H 0.89107 0.50105 0.76496 0.0
H269 H 0.90356 0.47567 0.72306 0.0
H270 H 0.8468 0.359 0.73293 0.0
H271 H 0.88087 0.52753 0.7516 0.0
H272 H 0.89157 0.50078 0.70969 0.0
C273 C 0.54701 0.49294 0.80775 0.0
C274 C 0.54439 0.47797 0.81982 0.0
C275 C 0.55265 0.48825 0.79352 0.0
C276 C 0.55529 0.46823 0.79096 0.0
C277 C 0.55296 0.45338 0.80291 0.0
C278 C 0.54787 0.45834 0.81722 0.0
C279 C 0.55924 0.46214 0.77569 0.0
C280 C 0.57973 0.47818 0.76754 0.0
C281 C 0.58336 0.47253 0.75292 0.0
C282 C 0.56593 0.45037 0.74663 0.0
C283 C 0.5452 0.43407 0.75467 0.0
C284 C 0.54212 0.44026 0.76923 0.0
C285 C 0.52657 0.41076 0.74789 0.0
C286 C 0.52097 0.40881 0.73257 0.0
C287 C 0.51391 0.39026 0.75674 0.0
C288 C 0.4959 0.36864 0.75054 0.0
C289 C 0.49038 0.36664 0.73522 0.0
C290 C 0.60524 0.48975 0.74424 0.0
C291 C 0.6151 0.51461 0.746 0.0
C292 C 0.61651 0.48157 0.73413 0.0
C293 C 0.6369 0.49775 0.72599 0.0
C294 C 0.64681 0.52246 0.72801 0.0
C295 C 0.63578 0.53074 0.7381 0.0
C296 C 0.50334 0.38703 0.72631 0.0
H297 H 0.54405 0.50794 0.80915 0.0
H298 H 0.55415 0.4998 0.7844 0.0
H299 H 0.55508 0.43791 0.80117 0.0
H300 H 0.54663 0.44671 0.82621 0.0
H301 H 0.59305 0.49483 0.77279 0.0
H302 H 0.52599 0.4284 0.7755 0.0
H303 H 0.56847 0.44583 0.73542 0.0
H304 H 0.52996 0.42417 0.72537 0.0
H305 H 0.51791 0.39079 0.76852 0.0
H306 H 0.48617 0.35356 0.75787 0.0
H307 H 0.60673 0.52172 0.75337 0.0
H308 H 0.60988 0.46265 0.73264 0.0
H309 H 0.50004 0.38623 0.71442 0.0
H310 H 0.64299 0.54976 0.73973 0.0
H311 H 0.64526 0.49096 0.71836 0.0
C312 C 0.5589 0.08162 0.81263 0.0
C313 C 0.53474 0.06816 0.81756 0.0
C314 C 0.56401 0.0917 0.79838 0.0
C315 C 0.54506 0.08817 0.78855 0.0
C316 C 0.52084 0.07435 0.79352 0.0
C317 C 0.51579 0.0647 0.80787 0.0
C318 C 0.55048 0.09898 0.77328 0.0
C319 C 0.57074 0.10169 0.7652 0.0
C320 C 0.57664 0.11269 0.75108 0.0
C321 C 0.56078 0.11973 0.74476 0.0
C322 C 0.53975 0.11622 0.75227 0.0
C323 C 0.53533 0.10657 0.7667 0.0
C324 C 0.52196 0.1219 0.74492 0.0
C325 C 0.52974 0.14124 0.73505 0.0
C326 C 0.49674 0.10743 0.74741 0.0
C327 C 0.47991 0.11212 0.74031 0.0
C328 C 0.48773 0.13116 0.7303 0.0
C329 C 0.59928 0.11682 0.74303 0.0
C330 C 0.61981 0.11968 0.75097 0.0
C331 C 0.60088 0.11828 0.72736 0.0
C332 C 0.62228 0.12296 0.71999 0.0
C333 C 0.64266 0.12543 0.72793 0.0
C334 C 0.64083 0.1234 0.74357 0.0
C335 C 0.51282 0.14567 0.72774 0.0
H336 H 0.57388 0.0847 0.81991 0.0
H337 H 0.5829 0.10256 0.79519 0.0
H338 H 0.50564 0.07064 0.78628 0.0
H339 H 0.49698 0.05413 0.81131 0.0
H340 H 0.58164 0.0947 0.76985 0.0
H341 H 0.52012 0.10527 0.77292 0.0
H342 H 0.56463 0.12786 0.73389 0.0
H343 H 0.54893 0.15313 0.733 0.0
H344 H 0.48983 0.09204 0.75462 0.0
H345 H 0.46066 0.10044 0.74236 0.0
H346 H 0.61996 0.11928 0.76302 0.0
H347 H 0.58559 0.1157 0.72059 0.0
H348 H 0.51937 0.16061 0.72018 0.0
H349 H 0.65555 0.12448 0.75029 0.0
H350 H 0.62267 0.12478 0.70801 0.0
C351 C 0.80589 0.57559 0.86407 0.0
C352 C 0.79895 0.59208 0.85932 0.0
C353 C 0.80046 0.56608 0.87847 0.0
C354 C 0.78811 0.57291 0.88863 0.0
C355 C 0.7809 0.58916 0.88381 0.0
C356 C 0.78612 0.5985 0.86937 0.0
C357 C 0.78339 0.56373 0.9043 0.0
C358 C 0.80062 0.56002 0.91199 0.0
C359 C 0.79692 0.55243 0.92689 0.0
C360 C 0.77576 0.54875 0.93423 0.0
C361 C 0.75791 0.55184 0.92677 0.0
C362 C 0.76193 0.55916 0.91175 0.0
C363 C 0.73518 0.5475 0.93463 0.0
C364 C 0.72421 0.52955 0.94549 0.0
C365 C 0.72423 0.56134 0.9314 0.0
C366 C 0.70298 0.55725 0.93869 0.0
C367 C 0.69226 0.53949 0.9496 0.0
C368 C 0.8153 0.54842 0.93478 0.0
C369 C 0.82436 0.53475 0.92806 0.0
C370 C 0.82393 0.5582 0.94904 0.0
C371 C 0.84143 0.55464 0.95633 0.0
C372 C 0.85053 0.54087 0.94967 0.0
C373 C 0.84157 0.53087 0.93544 0.0
C374 C 0.70318 0.52575 0.95296 0.0
H375 H 0.81601 0.57034 0.85679 0.0
H376 H 0.80602 0.55335 0.88161 0.0
H377 H 0.77161 0.59514 0.89128 0.0
H378 H 0.78008 0.61082 0.86612 0.0
H379 H 0.8174 0.56376 0.90658 0.0
H380 H 0.74809 0.56089 0.90572 0.0
H381 H 0.77325 0.54342 0.9458 0.0
H382 H 0.73165 0.51814 0.94814 0.0
H383 H 0.73226 0.57566 0.92339 0.0
H384 H 0.69517 0.56834 0.93599 0.0
H385 H 0.81783 0.52674 0.91715 0.0
H386 H 0.81749 0.56903 0.95444 0.0
H387 H 0.6952 0.51176 0.9612 0.0
H388 H 0.84761 0.51975 0.93001 0.0
H389 H 0.84812 0.56307 0.96711 0.0
C390 C 0.3743 0.17481 0.87126 0.0
C391 C 0.38564 0.191 0.8596 0.0
C392 C 0.38485 0.17977 0.88546 0.0
C393 C 0.40668 0.2012 0.8883 0.0
C394 C 0.41808 0.21737 0.87664 0.0
C395 C 0.40776 0.21218 0.86234 0.0
C396 C 0.41695 0.20695 0.90357 0.0
C397 C 0.42076 0.19045 0.91154 0.0
C398 C 0.42933 0.19522 0.92637 0.0
C399 C 0.43344 0.2166 0.93321 0.0
C400 C 0.43027 0.23342 0.92521 0.0
C401 C 0.42227 0.22865 0.91037 0.0
C402 C 0.43552 0.25612 0.9324 0.0
C403 C 0.42329 0.25603 0.9454 0.0
C404 C 0.45312 0.27797 0.9264 0.0
C405 C 0.4587 0.29947 0.93345 0.0
C406 C 0.44639 0.29958 0.94647 0.0
C407 C 0.43467 0.17832 0.93454 0.0
C408 C 0.42055 0.15346 0.93207 0.0
C409 C 0.45444 0.187 0.94463 0.0
C410 C 0.45992 0.17129 0.95201 0.0
C411 C 0.44609 0.14666 0.94922 0.0
C412 C 0.42638 0.13781 0.93923 0.0
C413 C 0.42846 0.27754 0.95228 0.0
H414 H 0.35727 0.15832 0.86935 0.0
H415 H 0.37567 0.16712 0.89432 0.0
H416 H 0.43495 0.23398 0.87859 0.0
H417 H 0.41674 0.22494 0.85351 0.0
H418 H 0.41758 0.1742 0.90597 0.0
H419 H 0.41941 0.2415 0.90427 0.0
H420 H 0.43939 0.22041 0.94474 0.0
H421 H 0.40951 0.2393 0.95013 0.0
H422 H 0.46292 0.27836 0.91644 0.0
H423 H 0.47297 0.31597 0.92879 0.0
H424 H 0.40492 0.14601 0.92464 0.0
H425 H 0.46611 0.20599 0.9466 0.0
H426 H 0.41822 0.27684 0.96208 0.0
H427 H 0.41546 0.11877 0.93702 0.0
H428 H 0.47534 0.1784 0.95961 0.0
C429 C 0.77689 0.18825 0.86303 0.0
C430 C 0.79897 0.18875 0.86028 0.0
C431 C 0.77157 0.19313 0.87732 0.0
C432 C 0.78844 0.19903 0.88905 0.0
C433 C 0.81043 0.19939 0.8863 0.0
C434 C 0.81556 0.19413 0.8721 0.0
C435 C 0.78361 0.20561 0.90401 0.0
C436 C 0.76148 0.19092 0.91131 0.0
C437 C 0.75738 0.1969 0.92569 0.0
C438 C 0.7752 0.21824 0.93249 0.0
C439 C 0.79716 0.2333 0.92519 0.0
C440 C 0.80139 0.22668 0.91108 0.0
C441 C 0.81554 0.25619 0.93216 0.0
C442 C 0.80889 0.27282 0.93705 0.0
C443 C 0.83993 0.26182 0.93361 0.0
C444 C 0.85735 0.28369 0.93989 0.0
C445 C 0.85077 0.30048 0.94453 0.0
C446 C 0.73492 0.18046 0.93389 0.0
C447 C 0.71184 0.17221 0.92746 0.0
C448 C 0.73654 0.17274 0.94821 0.0
C449 C 0.71551 0.15675 0.95587 0.0
C450 C 0.69224 0.14842 0.94953 0.0
C451 C 0.69073 0.15658 0.93524 0.0
C452 C 0.82641 0.29488 0.94304 0.0
H453 H 0.76376 0.18406 0.85412 0.0
H454 H 0.75455 0.19286 0.87913 0.0
H455 H 0.82368 0.20376 0.89517 0.0
H456 H 0.83278 0.19481 0.87028 0.0
H457 H 0.74786 0.17441 0.90604 0.0
H458 H 0.81829 0.23832 0.9054 0.0
H459 H 0.77202 0.2231 0.9435 0.0
H460 H 0.79023 0.26893 0.93595 0.0
H461 H 0.84546 0.24924 0.92994 0.0
H462 H 0.87606 0.28766 0.94091 0.0
H463 H 0.71012 0.1781 0.91647 0.0
H464 H 0.75417 0.17865 0.95334 0.0
H465 H 0.8209 0.30751 0.94663 0.0
H466 H 0.67324 0.15104 0.93006 0.0
H467 H 0.7176 0.15056 0.96666 0.0
C468 C 0.61064 0.8204 0.14793 0.0
C469 C 0.62678 0.81226 0.15177 0.0
C470 C 0.59901 0.81486 0.13402 0.0
C471 C 0.60357 0.80145 0.12343 0.0
C472 C 0.62003 0.79366 0.12719 0.0
C473 C 0.63123 0.79875 0.1412 0.0
C474 C 0.59109 0.7954 0.1086 0.0
C475 C 0.58546 0.8114 0.10143 0.0
C476 C 0.57363 0.80556 0.08754 0.0
C477 C 0.56742 0.78375 0.08063 0.0
C478 C 0.57292 0.76763 0.08755 0.0
C479 C 0.58461 0.77346 0.10152 0.0
C480 C 0.56647 0.74466 0.08019 0.0
C481 C 0.54265 0.72949 0.07491 0.0
C482 C 0.58414 0.73783 0.07836 0.0
C483 C 0.57815 0.71627 0.07123 0.0
C484 C 0.55429 0.70101 0.06607 0.0
C485 C 0.56765 0.82224 0.08015 0.0
C486 C 0.54744 0.82388 0.08475 0.0
C487 C 0.58167 0.83601 0.06819 0.0
C488 C 0.5756 0.85139 0.0609 0.0
C489 C 0.55513 0.85295 0.06531 0.0
C490 C 0.54112 0.83897 0.07734 0.0
C491 C 0.53656 0.70773 0.06802 0.0
H492 H 0.607 0.8312 0.15562 0.0
H493 H 0.58621 0.82091 0.1317 0.0
H494 H 0.62444 0.78368 0.11929 0.0
H495 H 0.64321 0.7918 0.14376 0.0
H496 H 0.59062 0.8286 0.10644 0.0
H497 H 0.58807 0.76053 0.10697 0.0
H498 H 0.55844 0.77941 0.06982 0.0
H499 H 0.52871 0.73437 0.07627 0.0
H500 H 0.60266 0.74932 0.08228 0.0
H501 H 0.59208 0.71136 0.06991 0.0
H502 H 0.53633 0.81316 0.09391 0.0
H503 H 0.59736 0.83491 0.06453 0.0
H504 H 0.51806 0.69625 0.06406 0.0
H505 H 0.52501 0.83935 0.08089 0.0
H506 H 0.58709 0.86218 0.0519 0.0
C507 C 0.21235 0.8244 0.14108 0.0
C508 C 0.2105 0.80985 0.15323 0.0
C509 C 0.21828 0.81992 0.12686 0.0
C510 C 0.22198 0.80053 0.12441 0.0
C511 C 0.22046 0.78612 0.13645 0.0
C512 C 0.2151 0.7909 0.15073 0.0
C513 C 0.22602 0.79444 0.10917 0.0
C514 C 0.24659 0.81043 0.10107 0.0
C515 C 0.25034 0.80469 0.08649 0.0
C516 C 0.23292 0.78253 0.08021 0.0
C517 C 0.21207 0.76631 0.08819 0.0
C518 C 0.20889 0.77258 0.10271 0.0
C519 C 0.19341 0.74301 0.0814 0.0
C520 C 0.18801 0.74102 0.06605 0.0
C521 C 0.18051 0.72257 0.09027 0.0
C522 C 0.16244 0.70099 0.08406 0.0
C523 C 0.15709 0.69896 0.06871 0.0
C524 C 0.2723 0.82182 0.07786 0.0
C525 C 0.28211 0.84669 0.07946 0.0
C526 C 0.28369 0.81354 0.0679 0.0
C527 C 0.30411 0.82963 0.05976 0.0
C528 C 0.31395 0.85437 0.06159 0.0
C529 C 0.3028 0.86274 0.07154 0.0
C530 C 0.17032 0.71927 0.05978 0.0
H531 H 0.20853 0.83887 0.14239 0.0
H532 H 0.21913 0.83111 0.11767 0.0
H533 H 0.22338 0.77112 0.13478 0.0
H534 H 0.21448 0.77962 0.15978 0.0
H535 H 0.25989 0.8271 0.10631 0.0
H536 H 0.1927 0.76078 0.10895 0.0
H537 H 0.23556 0.77792 0.06903 0.0
H538 H 0.19718 0.75633 0.05883 0.0
H539 H 0.18435 0.72311 0.10207 0.0
H540 H 0.1525 0.68597 0.09141 0.0
H541 H 0.27366 0.85387 0.08672 0.0
H542 H 0.2771 0.7946 0.06654 0.0
H543 H 0.16718 0.71845 0.04787 0.0
H544 H 0.30991 0.88177 0.07302 0.0
H545 H 0.31255 0.82275 0.05224 0.0
C546 C 0.22902 0.4236 0.1473 0.0
C547 C 0.20496 0.40917 0.15215 0.0
C548 C 0.23379 0.43311 0.13289 0.0
C549 C 0.21459 0.42797 0.12283 0.0
C550 C 0.19049 0.41334 0.1278 0.0
C551 C 0.18576 0.40431 0.1423 0.0
C552 C 0.21953 0.4373 0.10717 0.0
C553 C 0.24036 0.44064 0.09948 0.0
C554 C 0.24447 0.44837 0.08461 0.0
C555 C 0.22724 0.45237 0.07723 0.0
C556 C 0.20644 0.44958 0.08467 0.0
C557 C 0.20307 0.44242 0.0997 0.0
C558 C 0.18812 0.45391 0.07679 0.0
C559 C 0.19538 0.47204 0.06607 0.0
C560 C 0.16308 0.43984 0.07991 0.0
C561 C 0.14591 0.44391 0.07268 0.0
C562 C 0.15321 0.46194 0.06195 0.0
C563 C 0.26684 0.45227 0.07677 0.0
C564 C 0.28992 0.46644 0.08334 0.0
C565 C 0.26533 0.44204 0.06266 0.0
C566 C 0.28643 0.44567 0.05536 0.0
C567 C 0.30967 0.46002 0.06185 0.0
C568 C 0.31105 0.47046 0.07594 0.0
C569 C 0.17813 0.47588 0.05868 0.0
H570 H 0.24416 0.42773 0.15473 0.0
H571 H 0.25259 0.44462 0.12973 0.0
H572 H 0.17511 0.40835 0.12041 0.0
H573 H 0.16703 0.39298 0.1457 0.0
H574 H 0.25316 0.43656 0.10484 0.0
H575 H 0.1877 0.4412 0.10568 0.0
H576 H 0.23016 0.45774 0.06566 0.0
H577 H 0.21445 0.48355 0.0635 0.0
H578 H 0.15659 0.42536 0.08782 0.0
H579 H 0.1268 0.43263 0.07528 0.0
H580 H 0.29165 0.4748 0.09413 0.0
H581 H 0.24776 0.43085 0.05739 0.0
H582 H 0.18434 0.49006 0.05056 0.0
H583 H 0.32849 0.48203 0.08123 0.0
H584 H 0.28439 0.43687 0.04472 0.0
C585 C 0.47735 0.91812 0.19788 0.0
C586 C 0.46909 0.93351 0.19303 0.0
C587 C 0.47172 0.90818 0.21213 0.0
C588 C 0.45788 0.91355 0.22205 0.0
C589 C 0.44948 0.92884 0.21713 0.0
C590 C 0.45492 0.9386 0.20279 0.0
C591 C 0.45247 0.90334 0.23744 0.0
C592 C 0.47002 0.90056 0.24544 0.0
C593 C 0.46502 0.88976 0.25959 0.0
C594 C 0.4422 0.88309 0.26606 0.0
C595 C 0.42468 0.88677 0.25864 0.0
C596 C 0.42987 0.89632 0.24415 0.0
C597 C 0.4012 0.88117 0.26608 0.0
C598 C 0.38966 0.86216 0.27623 0.0
C599 C 0.39039 0.8953 0.26338 0.0
C600 C 0.36883 0.89059 0.27052 0.0
C601 C 0.3577 0.87193 0.28081 0.0
C602 C 0.48361 0.8855 0.26746 0.0
C603 C 0.50133 0.88315 0.25934 0.0
C604 C 0.48394 0.88359 0.2831 0.0
C605 C 0.50099 0.87916 0.29025 0.0
C606 C 0.51913 0.87749 0.28213 0.0
C607 C 0.51903 0.87983 0.26652 0.0
C608 C 0.36835 0.85778 0.28361 0.0
H609 H 0.488 0.91355 0.19056 0.0
H610 H 0.47809 0.89609 0.21533 0.0
H611 H 0.43909 0.93371 0.22445 0.0
H612 H 0.44851 0.9506 0.19946 0.0
H613 H 0.48786 0.90736 0.24061 0.0
H614 H 0.41609 0.89792 0.23795 0.0
H615 H 0.438 0.87513 0.27697 0.0
H616 H 0.39691 0.85046 0.27844 0.0
H617 H 0.39881 0.91044 0.25597 0.0
H618 H 0.36117 0.90195 0.26828 0.0
H619 H 0.5017 0.8837 0.2473 0.0
H620 H 0.4712 0.88567 0.29003 0.0
H621 H 0.36002 0.84313 0.2914 0.0
H622 H 0.53274 0.87936 0.25964 0.0
H623 H 0.49964 0.87698 0.3022 0.0
C624 C 0.03827 0.50735 0.20494 0.0
C625 C 0.05001 0.52224 0.19279 0.0
C626 C 0.04932 0.51287 0.21902 0.0
C627 C 0.07202 0.53364 0.2212 0.0
C628 C 0.08372 0.54857 0.20905 0.0
C629 C 0.07291 0.54277 0.19491 0.0
C630 C 0.08329 0.53994 0.23619 0.0
C631 C 0.08732 0.52361 0.24419 0.0
C632 C 0.09832 0.52972 0.25836 0.0
C633 C 0.10424 0.55185 0.26476 0.0
C634 C 0.09996 0.56809 0.25695 0.0
C635 C 0.08995 0.56233 0.24255 0.0
C636 C 0.10559 0.59089 0.26406 0.0
C637 C 0.09284 0.59086 0.27679 0.0
C638 C 0.12413 0.6126 0.2585 0.0
C639 C 0.13023 0.63408 0.26579 0.0
C640 C 0.11753 0.63423 0.27862 0.0
C641 C 0.10449 0.51348 0.26634 0.0
C642 C 0.08699 0.48929 0.26825 0.0
C643 C 0.12812 0.52225 0.2721 0.0
C644 C 0.13422 0.50707 0.27955 0.0
C645 C 0.11672 0.48293 0.28156 0.0
C646 C 0.09301 0.47416 0.27593 0.0
C647 C 0.09854 0.61233 0.2839 0.0
H648 H 0.02061 0.4914 0.20351 0.0
H649 H 0.03996 0.50119 0.22827 0.0
H650 H 0.10129 0.56463 0.2105 0.0
H651 H 0.08221 0.55452 0.18567 0.0
H652 H 0.08267 0.50651 0.23917 0.0
H653 H 0.08664 0.57493 0.23651 0.0
H654 H 0.11227 0.55651 0.27583 0.0
H655 H 0.07835 0.5742 0.28117 0.0
H656 H 0.13426 0.61286 0.24873 0.0
H657 H 0.1452 0.65049 0.26152 0.0
H658 H 0.06864 0.48217 0.26395 0.0
H659 H 0.14196 0.54081 0.27066 0.0
H660 H 0.08794 0.6117 0.2935 0.0
H661 H 0.07927 0.45554 0.27728 0.0
H662 H 0.15259 0.51423 0.28385 0.0
C663 C 0.44595 0.51807 0.19751 0.0
C664 C 0.4689 0.52065 0.19454 0.0
C665 C 0.44054 0.52303 0.21175 0.0
C666 C 0.45816 0.53111 0.22319 0.0
C667 C 0.48104 0.53352 0.22024 0.0
C668 C 0.48628 0.52815 0.20609 0.0
C669 C 0.45313 0.53806 0.23798 0.0
C670 C 0.43207 0.52244 0.24589 0.0
C671 C 0.42686 0.52921 0.25979 0.0
C672 C 0.44351 0.55207 0.2656 0.0
C673 C 0.46502 0.56773 0.25799 0.0
C674 C 0.46947 0.56055 0.2441 0.0
C675 C 0.48298 0.59144 0.2646 0.0
C676 C 0.4752 0.60479 0.27308 0.0
C677 C 0.5082 0.60081 0.26264 0.0
C678 C 0.52509 0.62289 0.26891 0.0
C679 C 0.51716 0.63583 0.2775 0.0
C680 C 0.40425 0.51251 0.26823 0.0
C681 C 0.38317 0.49508 0.26074 0.0
C682 C 0.40339 0.51382 0.28389 0.0
C683 C 0.38215 0.4987 0.2917 0.0
C684 C 0.36123 0.48095 0.28424 0.0
C685 C 0.36227 0.47929 0.26861 0.0
C686 C 0.49214 0.62666 0.27958 0.0
H687 H 0.43221 0.51222 0.18881 0.0
H688 H 0.42283 0.52118 0.21373 0.0
H689 H 0.4949 0.53965 0.22888 0.0
H690 H 0.50416 0.53043 0.20407 0.0
H691 H 0.42017 0.50481 0.24126 0.0
H692 H 0.48545 0.57269 0.23781 0.0
H693 H 0.4399 0.55779 0.27615 0.0
H694 H 0.456 0.59852 0.27461 0.0
H695 H 0.515 0.59093 0.25646 0.0
H696 H 0.54438 0.62969 0.26726 0.0
H697 H 0.38252 0.49353 0.24872 0.0
H698 H 0.41917 0.52637 0.29032 0.0
H699 H 0.48573 0.63655 0.28612 0.0
H700 H 0.34706 0.46563 0.26228 0.0
H701 H 0.38232 0.50118 0.30364 0.0
Eu702 Eu 0.49205 0.98269 0.98749 0.0
C703 C 0.54555 0.07508 0.02712 0.0
C704 C 0.58816 0.08647 0.02635 0.0
C705 C 0.57672 0.11706 0.02882 0.0
C706 C 0.56329 0.06879 0.02572 0.0
C707 C 0.55202 0.09925 0.02894 0.0
C708 C 0.59477 0.11068 0.02757 0.0
C709 C 0.50931 0.08621 0.03209 0.0
N710 N 0.52192 0.05742 0.02738 0.0
C711 C 0.50385 0.0625 0.03039 0.0
C712 C 0.53349 0.10471 0.03119 0.0
Eu713 Eu 0.51377 0.01789 0.02295 0.0
N714 N 0.55625 0.04525 0.02452 0.0
C715 C 0.57317 0.03807 0.02492 0.0
C716 C 0.60559 0.07924 0.02617 0.0
C717 C 0.59805 0.05493 0.02558 0.0
H718 H 0.48511 0.04823 0.03094 0.0
H719 H 0.61139 0.04913 0.02563 0.0
H720 H 0.61379 0.12454 0.02788 0.0
H721 H 0.49488 0.09021 0.03407 0.0
H722 H 0.5677 0.01938 0.02444 0.0
H723 H 0.39387 0.94835 0.98513 0.0
H724 H 0.62486 0.09224 0.02686 0.0
H725 H 0.52259 0.95406 0.97947 0.0
H726 H 0.43729 0.97923 0.98623 0.0
H727 H 0.51424 0.91257 0.97624 0.0
H728 H 0.58208 0.13576 0.03006 0.0
H729 H 0.38189 0.9056 0.9838 0.0
H730 H 0.39447 0.8744 0.98263 0.0
H731 H 0.53769 0.12307 0.03258 0.0
H732 H 0.42722 0.86463 0.98031 0.0
N733 N 0.44991 0.95429 0.98596 0.0
C734 C 0.43238 0.96068 0.98568 0.0
C735 C 0.401 0.91908 0.98443 0.0
C736 C 0.41907 0.91268 0.98414 0.0
C737 C 0.4077 0.9432 0.98508 0.0
C738 C 0.4437 0.93097 0.98472 0.0
H739 H 0.47192 0.87876 0.97772 0.0
N740 N 0.48546 0.94369 0.98309 0.0
C741 C 0.4994 0.91595 0.97826 0.0
C742 C 0.46206 0.92548 0.9833 0.0
C743 C 0.50406 0.9394 0.98004 0.0
C744 C 0.47549 0.89691 0.97915 0.0
C745 C 0.45641 0.90155 0.98144 0.0
O746 O 0.5113 0.99042 0.96632 0.0
O747 O 0.5216 0.01448 0.99924 0.0
O748 O 0.50821 0.04017 0.0058 0.0
O749 O 0.47977 0.01036 0.98993 0.0
O750 O 0.53271 0.9967 0.98502 0.0
O751 O 0.47737 0.99061 0.96755 0.0
O752 O 0.49698 0.01437 0.04477 0.0
O753 O 0.48401 0.98655 0.01112 0.0
O754 O 0.49694 0.96006 0.00464 0.0
O755 O 0.52554 0.98983 0.02045 0.0
O756 O 0.47314 0.00402 0.02568 0.0
O757 O 0.52531 0.0053 0.04214 0.0
C758 C 0.54012 0.01492 0.99383 0.0
C759 C 0.48785 0.98067 0.94429 0.0
C760 C 0.48884 0.98308 0.91699 0.0
C761 C 0.49397 0.9943 0.93117 0.0
C762 C 0.4774 0.95792 0.91634 0.0
C763 C 0.47615 0.9557 0.94328 0.0
C764 C 0.47097 0.94443 0.92936 0.0
C765 C 0.49115 0.03254 0.99533 0.0
C766 C 0.49488 0.99273 0.95894 0.0
C767 C 0.43194 0.88315 0.98158 0.0
C768 C 0.41329 0.88871 0.9829 0.0
C769 C 0.46556 0.98604 0.01667 0.0
C770 C 0.52133 0.01884 0.06591 0.0
C771 C 0.5116 0.00609 0.07917 0.0
C772 C 0.52187 0.01647 0.09316 0.0
C773 C 0.54212 0.03984 0.09351 0.0
C774 C 0.54132 0.04212 0.0666 0.0
C775 C 0.55164 0.05252 0.08035 0.0
C776 C 0.51382 0.96756 0.01521 0.0
C777 C 0.51074 0.00751 0.05142 0.0
H778 H 0.5027 0.01359 0.93209 0.0
H779 H 0.47373 0.94853 0.90577 0.0
H780 H 0.47133 0.94495 0.95323 0.0
H781 H 0.4622 0.92513 0.92866 0.0
H782 H 0.49593 0.9882 0.07856 0.0
H783 H 0.55091 0.04828 0.10396 0.0
H784 H 0.54902 0.05217 0.05652 0.0
H785 H 0.56721 0.07045 0.0808 0.0
Eu786 Eu 0.02198 0.51076 0.98907 0.0
C787 C 0.92368 0.46401 0.02362 0.0
C788 C 0.91121 0.49384 0.02387 0.0
C789 C 0.88062 0.45163 0.02448 0.0
C790 C 0.92965 0.48773 0.02318 0.0
C791 C 0.89914 0.44571 0.02466 0.0
C792 C 0.88665 0.47566 0.02412 0.0
C793 C 0.91317 0.41738 0.02768 0.0
N794 N 0.94201 0.45895 0.02412 0.0
C795 C 0.93723 0.43618 0.02672 0.0
C796 C 0.89401 0.42212 0.02644 0.0
Eu797 Eu 0.9822 0.49159 0.02217 0.0
N798 N 0.95355 0.50487 0.02304 0.0
C799 C 0.9603 0.52846 0.02445 0.0
C800 C 0.91803 0.51802 0.02484 0.0
C801 C 0.94268 0.5354 0.02518 0.0
H802 H 0.95201 0.43246 0.02764 0.0
H803 H 0.94813 0.55414 0.02609 0.0
H804 H 0.87223 0.48002 0.02446 0.0
H805 H 0.90941 0.39928 0.02936 0.0
H806 H 0.97929 0.54208 0.02479 0.0
H807 H 0.05588 0.44806 0.9851 0.0
H808 H 0.90443 0.52342 0.02576 0.0
H809 H 0.05238 0.56996 0.98389 0.0
H810 H 0.02478 0.4602 0.98632 0.0
H811 H 0.09505 0.60309 0.98242 0.0
H812 H 0.86164 0.43781 0.02511 0.0
H813 H 0.09959 0.4787 0.98569 0.0
H814 H 0.13186 0.52206 0.98726 0.0
H815 H 0.87539 0.40755 0.02726 0.0
H816 H 0.14257 0.56431 0.98679 0.0
N817 N 0.05056 0.49738 0.98825 0.0
C818 C 0.04377 0.47379 0.98677 0.0
C819 C 0.08602 0.48414 0.98657 0.0
C820 C 0.09289 0.50832 0.98764 0.0
C821 C 0.06136 0.4668 0.98608 0.0
C822 C 0.07448 0.51448 0.98828 0.0
H823 H 0.12896 0.59468 0.98465 0.0
N824 N 0.06223 0.54337 0.98741 0.0
C825 C 0.09122 0.58495 0.98404 0.0
C826 C 0.08052 0.53823 0.98796 0.0
C827 C 0.06712 0.56619 0.98486 0.0
C828 C 0.11031 0.58013 0.98536 0.0
C829 C 0.10509 0.5565 0.98706 0.0
O830 O 0.01897 0.52592 0.96807 0.0
O831 O 0.9878 0.50589 0.99917 0.0
O832 O 0.96127 0.46582 0.00347 0.0
O833 O 0.99306 0.4709 0.98803 0.0
O834 O 0.00761 0.53667 0.98717 0.0
O835 O 0.0167 0.49132 0.96808 0.0
O836 O 0.98561 0.47669 0.04317 0.0
O837 O 0.01624 0.49635 0.01201 0.0
O838 O 0.0429 0.53621 0.00787 0.0
O839 O 0.01113 0.53146 0.02318 0.0
O840 O 0.99662 0.46569 0.0241 0.0
O841 O 0.98778 0.51124 0.0431 0.0
C842 C 0.98783 0.5243 0.99458 0.0
C843 C 0.03318 0.51537 0.94678 0.0
C844 C 0.03704 0.5178 0.91979 0.0
C845 C 0.02244 0.5099 0.93256 0.0
C846 C 0.0625 0.531 0.92134 0.0
C847 C 0.05865 0.52825 0.94817 0.0
C848 C 0.07323 0.536 0.9355 0.0
C849 C 0.96999 0.45876 0.99239 0.0
C850 C 0.01754 0.50841 0.95998 0.0
C851 C 0.12356 0.55052 0.9873 0.0
C852 C 0.11746 0.52646 0.98755 0.0
C853 C 0.01633 0.47802 0.01662 0.0
C854 C 0.97208 0.48758 0.06462 0.0
C855 C 0.98334 0.49312 0.07868 0.0
C856 C 0.96924 0.48549 0.09167 0.0
C857 C 0.94372 0.47244 0.09046 0.0
C858 C 0.94656 0.47485 0.06357 0.0
C859 C 0.93247 0.46734 0.07645 0.0
C860 C 0.03428 0.54334 0.01896 0.0
C861 C 0.98724 0.49431 0.05122 0.0
H862 H 0.00274 0.50003 0.93143 0.0
H863 H 0.07404 0.53723 0.91161 0.0
H864 H 0.06728 0.53252 0.95899 0.0
H865 H 0.09287 0.54605 0.93665 0.0
H866 H 0.00307 0.50286 0.07953 0.0
H867 H 0.93253 0.46642 0.10035 0.0
H868 H 0.93755 0.47051 0.05286 0.0
H869 H 0.91279 0.45742 0.07557 0.0
Eu870 Eu 0.51284 0.49306 0.02332 0.0
C871 C 0.46147 0.53651 0.98507 0.0
C872 C 0.41833 0.50766 0.98606 0.0
C873 C 0.43186 0.54983 0.98293 0.0
C874 C 0.44284 0.51319 0.98675 0.0
C875 C 0.45619 0.55504 0.98281 0.0
C876 C 0.41295 0.52616 0.98452 0.0
C877 C 0.4992 0.58203 0.97903 0.0
N878 N 0.48472 0.54085 0.98475 0.0
C879 C 0.50349 0.56303 0.98125 0.0
C880 C 0.47548 0.57809 0.98001 0.0
Eu881 Eu 0.49063 0.50796 0.98902 0.0
N882 N 0.44864 0.49571 0.9881 0.0
C883 C 0.43081 0.47221 0.9879 0.0
C884 C 0.39997 0.48364 0.9864 0.0
C885 C 0.40624 0.46583 0.98725 0.0
H886 H 0.52187 0.56622 0.98053 0.0
H887 H 0.39217 0.44718 0.98734 0.0
H888 H 0.39423 0.52228 0.98416 0.0
H889 H 0.51418 0.59969 0.9766 0.0
H890 H 0.43539 0.45825 0.98849 0.0
H891 H 0.60998 0.55944 0.02619 0.0
H892 H 0.38095 0.47864 0.98558 0.0
H893 H 0.4855 0.43423 0.02954 0.0
H894 H 0.5661 0.54534 0.02523 0.0
H895 H 0.4964 0.40248 0.0313 0.0
H896 H 0.42745 0.56385 0.98136 0.0
H897 H 0.62446 0.53033 0.02635 0.0
H898 H 0.61451 0.48748 0.02605 0.0
H899 H 0.4722 0.59282 0.97823 0.0
H900 H 0.58362 0.44475 0.02722 0.0
N901 N 0.55551 0.50842 0.02431 0.0
C902 C 0.572 0.53233 0.02518 0.0
C903 C 0.60511 0.52398 0.02569 0.0
C904 C 0.58814 0.49949 0.02531 0.0
C905 C 0.59699 0.54046 0.02572 0.0
C906 C 0.56312 0.49217 0.02483 0.0
H907 H 0.53955 0.4129 0.02936 0.0
N908 N 0.522 0.462 0.02622 0.0
C909 C 0.51048 0.42088 0.0297 0.0
C910 C 0.54581 0.46821 0.02572 0.0
C911 C 0.50437 0.43886 0.02877 0.0
C912 C 0.53485 0.42683 0.02855 0.0
C913 C 0.55292 0.45078 0.02681 0.0
O914 O 0.49755 0.4783 0.04512 0.0
O915 O 0.48271 0.49586 0.01258 0.0
O916 O 0.49619 0.53561 0.00639 0.0
O917 O 0.52374 0.53259 0.02231 0.0
O918 O 0.47229 0.46686 0.02617 0.0
O919 O 0.52425 0.51593 0.0431 0.0
O920 O 0.50938 0.51852 0.96769 0.0
O921 O 0.52056 0.50479 0.99981 0.0
O922 O 0.50729 0.46625 0.00531 0.0
O923 O 0.47783 0.46808 0.99071 0.0
O924 O 0.5313 0.53397 0.9864 0.0
O925 O 0.47458 0.48589 0.96902 0.0
C926 C 0.46442 0.47794 0.018 0.0
C927 C 0.52281 0.4977 0.06601 0.0
C928 C 0.52537 0.5004 0.09316 0.0
C929 C 0.51342 0.49968 0.07977 0.0
C930 C 0.54668 0.49881 0.09261 0.0
C931 C 0.54395 0.4959 0.06568 0.0
C932 C 0.55578 0.49642 0.07894 0.0
C933 C 0.51249 0.54389 0.01733 0.0
C934 C 0.5109 0.49854 0.05215 0.0
C935 C 0.57779 0.45788 0.02652 0.0
C936 C 0.59537 0.4822 0.02584 0.0
C937 C 0.53901 0.52277 0.99459 0.0
C938 C 0.48494 0.50656 0.94612 0.0
C939 C 0.49265 0.50126 0.9327 0.0
C940 C 0.48773 0.50842 0.91892 0.0
C941 C 0.47468 0.52081 0.91892 0.0
C942 C 0.4717 0.51858 0.94581 0.0
C943 C 0.46658 0.52563 0.93226 0.0
C944 C 0.48967 0.45715 0.99521 0.0
C945 C 0.49207 0.50059 0.96033 0.0
H946 H 0.49719 0.50127 0.08002 0.0
H947 H 0.55616 0.49921 0.10277 0.0
H948 H 0.55142 0.49435 0.05519 0.0
H949 H 0.57215 0.49511 0.07862 0.0
H950 H 0.50249 0.49155 0.93309 0.0
H951 H 0.47101 0.52718 0.90865 0.0
H952 H 0.46558 0.52275 0.95603 0.0
H953 H 0.45658 0.53516 0.9321 0.0
Eu954 Eu 0.1592 0.31736 0.32092 0.0
C955 C 0.21092 0.4074 0.36371 0.0
C956 C 0.25371 0.41938 0.36298 0.0
C957 C 0.24167 0.4491 0.36775 0.0
C958 C 0.22894 0.40159 0.36174 0.0
C959 C 0.21704 0.43113 0.36708 0.0
C960 C 0.25998 0.44324 0.3657 0.0
C961 C 0.17412 0.41718 0.37014 0.0
N962 N 0.18734 0.3896 0.3631 0.0
C963 C 0.16898 0.39392 0.3668 0.0
C964 C 0.19824 0.43593 0.37008 0.0
Eu965 Eu 0.17994 0.35084 0.35697 0.0
N966 N 0.22226 0.37837 0.35916 0.0
C967 C 0.23941 0.3715 0.35863 0.0
C968 C 0.27142 0.41259 0.36176 0.0
C969 C 0.26422 0.3885 0.35969 0.0
H970 H 0.1503 0.3795 0.36679 0.0
H971 H 0.27775 0.38302 0.35893 0.0
H972 H 0.27891 0.45719 0.36653 0.0
H973 H 0.15949 0.42063 0.37271 0.0
H974 H 0.23414 0.35296 0.35703 0.0
H975 H 0.06154 0.28584 0.3185 0.0
H976 H 0.29062 0.42569 0.3627 0.0
H977 H 0.18819 0.288 0.31114 0.0
H978 H 0.10528 0.31576 0.31986 0.0
H979 H 0.17859 0.24644 0.30624 0.0
H980 H 0.24675 0.46748 0.37017 0.0
H981 H 0.0483 0.24284 0.31637 0.0
H982 H 0.05963 0.21083 0.31401 0.0
H983 H 0.20219 0.45393 0.3727 0.0
H984 H 0.09151 0.20007 0.31067 0.0
N985 N 0.11681 0.28998 0.31902 0.0
C986 C 0.09981 0.29708 0.31895 0.0
C987 C 0.06755 0.25589 0.3171 0.0
C988 C 0.08509 0.24882 0.31641 0.0
C989 C 0.07496 0.28015 0.3182 0.0
C990 C 0.10992 0.26656 0.31723 0.0
H991 H 0.13591 0.21328 0.30745 0.0
N992 N 0.15139 0.27827 0.31537 0.0
C993 C 0.16414 0.25013 0.30886 0.0
C994 C 0.12778 0.2605 0.31536 0.0
C995 C 0.16951 0.27363 0.31161 0.0
C996 C 0.14002 0.23145 0.3096 0.0
C997 C 0.12143 0.23655 0.31263 0.0
O998 O 0.17916 0.32599 0.29996 0.0
O999 O 0.18881 0.34859 0.33316 0.0
O1000 O 0.17491 0.37457 0.34065 0.0
O1001 O 0.14812 0.34583 0.32357 0.0
O1002 O 0.19946 0.33022 0.31901 0.0
O1003 O 0.14537 0.32642 0.30105 0.0
O1004 O 0.15982 0.34147 0.37788 0.0
O1005 O 0.1505 0.31996 0.34458 0.0
O1006 O 0.16406 0.29376 0.3374 0.0
O1007 O 0.1914 0.3227 0.35412 0.0
O1008 O 0.13944 0.33764 0.35893 0.0
O1009 O 0.19372 0.34129 0.37666 0.0
C1010 C 0.20716 0.34851 0.32779 0.0
C1011 C 0.15646 0.31746 0.27769 0.0
C1012 C 0.15808 0.32117 0.25045 0.0
C1013 C 0.16285 0.33171 0.26484 0.0
C1014 C 0.14676 0.29605 0.24934 0.0
C1015 C 0.14482 0.29254 0.27621 0.0
C1016 C 0.14003 0.28194 0.2621 0.0
C1017 C 0.15908 0.36771 0.32944 0.0
C1018 C 0.16309 0.32881 0.29256 0.0
C1019 C 0.09676 0.21862 0.31258 0.0
C1020 C 0.07861 0.22475 0.31447 0.0
C1021 C 0.132 0.31975 0.34984 0.0
C1022 C 0.18245 0.34958 0.40017 0.0
C1023 C 0.17612 0.33509 0.41293 0.0
C1024 C 0.18088 0.34538 0.4274 0.0
C1025 C 0.19207 0.37048 0.42868 0.0
C1026 C 0.19398 0.37446 0.40185 0.0
C1027 C 0.19872 0.38481 0.41603 0.0
C1028 C 0.18012 0.3007 0.34846 0.0
C1029 C 0.17591 0.33856 0.3852 0.0
H1030 H 0.17148 0.35094 0.26612 0.0
H1031 H 0.1434 0.28716 0.23861 0.0
H1032 H 0.13973 0.28131 0.28594 0.0
H1033 H 0.13132 0.26268 0.26103 0.0
H1034 H 0.16757 0.31588 0.41152 0.0
H1035 H 0.19538 0.37918 0.43947 0.0
H1036 H 0.19901 0.38588 0.39222 0.0
H1037 H 0.20733 0.40404 0.41723 0.0
Eu1038 Eu 0.68989 0.84409 0.3224 0.0
C1039 C 0.58988 0.79836 0.35575 0.0
C1040 C 0.57717 0.82803 0.3561 0.0
C1041 C 0.54675 0.78575 0.35643 0.0
C1042 C 0.59573 0.82206 0.35555 0.0
C1043 C 0.56533 0.77993 0.35639 0.0
C1044 C 0.55266 0.80976 0.35635 0.0
C1045 C 0.57939 0.75148 0.3582 0.0
N1046 N 0.60826 0.79335 0.356 0.0
C1047 C 0.60345 0.77038 0.35781 0.0
C1048 C 0.56023 0.75624 0.35735 0.0
Eu1049 Eu 0.64846 0.82629 0.35471 0.0
N1050 N 0.61959 0.83931 0.35524 0.0
C1051 C 0.62618 0.86291 0.35606 0.0
C1052 C 0.58382 0.8522 0.3566 0.0
C1053 C 0.60843 0.86971 0.3566 0.0
H1054 H 0.6182 0.76661 0.35846 0.0
H1055 H 0.61376 0.88845 0.35706 0.0
H1056 H 0.53816 0.81401 0.35663 0.0
H1057 H 0.57565 0.73326 0.35921 0.0
H1058 H 0.64513 0.87664 0.35611 0.0
H1059 H 0.72294 0.78075 0.31882 0.0
H1060 H 0.57012 0.85749 0.35723 0.0
H1061 H 0.72132 0.9038 0.31883 0.0
H1062 H 0.69214 0.79329 0.31998 0.0
H1063 H 0.7642 0.93667 0.31916 0.0
H1064 H 0.52777 0.77185 0.35682 0.0
H1065 H 0.76674 0.81107 0.31978 0.0
H1066 H 0.79929 0.8542 0.3224 0.0
H1067 H 0.5416 0.74158 0.35777 0.0
H1068 H 0.81051 0.8966 0.32299 0.0
N1069 N 0.71817 0.83035 0.32216 0.0
C1070 C 0.71117 0.80672 0.32063 0.0
C1071 C 0.75329 0.81666 0.32067 0.0
C1072 C 0.76038 0.84087 0.32209 0.0
C1073 C 0.72858 0.79951 0.31997 0.0
C1074 C 0.74214 0.84727 0.32257 0.0
H1075 H 0.79757 0.92753 0.32168 0.0
N1076 N 0.73043 0.87656 0.32181 0.0
C1077 C 0.76003 0.91832 0.32017 0.0
C1078 C 0.74847 0.87111 0.3226 0.0
C1079 C 0.73581 0.89969 0.31994 0.0
C1080 C 0.77881 0.91309 0.32165 0.0
C1081 C 0.77318 0.88923 0.32255 0.0
O1082 O 0.68868 0.85942 0.30108 0.0
O1083 O 0.65554 0.84032 0.33156 0.0
O1084 O 0.62813 0.80142 0.33558 0.0
O1085 O 0.6606 0.80426 0.32179 0.0
O1086 O 0.67641 0.87048 0.31923 0.0
O1087 O 0.68471 0.82408 0.30166 0.0
O1088 O 0.65174 0.81207 0.37598 0.0
O1089 O 0.68264 0.83009 0.34539 0.0
O1090 O 0.70981 0.86879 0.34169 0.0
O1091 O 0.67716 0.86625 0.35504 0.0
O1092 O 0.66229 0.79998 0.35775 0.0
O1093 O 0.65311 0.84627 0.37541 0.0
C1094 C 0.65622 0.85873 0.32635 0.0
C1095 C 0.70262 0.8475 0.2803 0.0
C1096 C 0.70701 0.84883 0.25334 0.0
C1097 C 0.69217 0.84151 0.26601 0.0
C1098 C 0.73244 0.86192 0.25506 0.0
C1099 C 0.72807 0.86031 0.28189 0.0
C1100 C 0.74289 0.86742 0.2693 0.0
C1101 C 0.63717 0.79319 0.32541 0.0
C1102 C 0.68668 0.8414 0.2933 0.0
C1103 C 0.79142 0.88294 0.32291 0.0
C1104 C 0.78503 0.8588 0.32257 0.0
C1105 C 0.68227 0.81177 0.35043 0.0
C1106 C 0.63746 0.82284 0.39709 0.0
C1107 C 0.64855 0.82836 0.41121 0.0
C1108 C 0.63441 0.82024 0.42424 0.0
C1109 C 0.60884 0.80682 0.42277 0.0
C1110 C 0.61201 0.80971 0.39591 0.0
C1111 C 0.59779 0.80182 0.4087 0.0
C1112 C 0.70064 0.87725 0.35161 0.0
C1113 C 0.65283 0.82968 0.38378 0.0
H1114 H 0.67249 0.83177 0.26474 0.0
H1115 H 0.74415 0.86775 0.24539 0.0
H1116 H 0.73645 0.8651 0.2928 0.0
H1117 H 0.76252 0.87743 0.27059 0.0
H1118 H 0.66824 0.83893 0.41197 0.0
H1119 H 0.59732 0.79978 0.43245 0.0
H1120 H 0.60315 0.80527 0.38514 0.0
H1121 H 0.57814 0.79146 0.40771 0.0
Eu1122 Eu 0.18132 0.82727 0.35661 0.0
C1123 C 0.12492 0.86516 0.31804 0.0
C1124 C 0.08215 0.83506 0.31911 0.0
C1125 C 0.09401 0.87676 0.31556 0.0
C1126 C 0.10695 0.84155 0.31977 0.0
C1127 C 0.11866 0.883 0.31572 0.0
C1128 C 0.07579 0.85282 0.3172 0.0
C1129 C 0.16148 0.91155 0.31271 0.0
N1130 N 0.14853 0.87055 0.31803 0.0
C1131 C 0.16675 0.89319 0.31487 0.0
C1132 C 0.13734 0.90649 0.31327 0.0
Eu1133 Eu 0.15602 0.83865 0.32234 0.0
N1134 N 0.11368 0.82482 0.32164 0.0
C1135 C 0.0965 0.80112 0.32231 0.0
C1136 C 0.06448 0.81086 0.32015 0.0
C1137 C 0.07169 0.79382 0.32173 0.0
H1138 H 0.18545 0.89722 0.31445 0.0
H1139 H 0.05816 0.77504 0.32245 0.0
H1140 H 0.05684 0.84819 0.31681 0.0
H1141 H 0.17601 0.92957 0.31058 0.0
H1142 H 0.10179 0.78774 0.32349 0.0
H1143 H 0.27823 0.89448 0.3569 0.0
H1144 H 0.04526 0.80513 0.3195 0.0
H1145 H 0.15495 0.76902 0.36456 0.0
H1146 H 0.23421 0.87983 0.35649 0.0
H1147 H 0.16646 0.73783 0.36718 0.0
H1148 H 0.08884 0.89023 0.31389 0.0
H1149 H 0.29323 0.86581 0.35798 0.0
H1150 H 0.28383 0.82317 0.35892 0.0
H1151 H 0.13329 0.92072 0.3115 0.0
H1152 H 0.25341 0.7805 0.36148 0.0
N1153 N 0.22407 0.84303 0.35677 0.0
C1154 C 0.24035 0.86702 0.35682 0.0
C1155 C 0.27382 0.85921 0.35753 0.0
C1156 C 0.25707 0.83468 0.35792 0.0
C1157 C 0.26541 0.87545 0.35705 0.0
C1158 C 0.23198 0.82707 0.35774 0.0
H1159 H 0.20963 0.74853 0.36474 0.0
N1160 N 0.19112 0.79677 0.36026 0.0
C1161 C 0.18028 0.75612 0.36497 0.0
C1162 C 0.21495 0.80316 0.35944 0.0
C1163 C 0.17384 0.7738 0.36355 0.0
C1164 C 0.20466 0.76223 0.36353 0.0
C1165 C 0.22241 0.78606 0.36101 0.0
O1166 O 0.16732 0.81455 0.37896 0.0
O1167 O 0.14983 0.82816 0.34625 0.0
O1168 O 0.16091 0.86624 0.3395 0.0
O1169 O 0.19149 0.86648 0.35417 0.0
O1170 O 0.14129 0.80064 0.36077 0.0
O1171 O 0.19408 0.85186 0.3756 0.0
O1172 O 0.17368 0.84899 0.30069 0.0
O1173 O 0.18715 0.83718 0.33276 0.0
O1174 O 0.1754 0.79934 0.3393 0.0
O1175 O 0.14461 0.79927 0.325 0.0
O1176 O 0.19635 0.86522 0.3186 0.0
O1177 O 0.1398 0.8155 0.30276 0.0
C1178 C 0.13225 0.81054 0.35247 0.0
C1179 C 0.19381 0.83549 0.39908 0.0
C1180 C 0.19653 0.83823 0.42625 0.0
C1181 C 0.18415 0.83683 0.41289 0.0
C1182 C 0.21857 0.83798 0.42558 0.0
C1183 C 0.21569 0.83506 0.39864 0.0
C1184 C 0.22797 0.83627 0.41185 0.0
C1185 C 0.17856 0.87626 0.34954 0.0
C1186 C 0.18121 0.83533 0.38527 0.0
C1187 C 0.24732 0.79338 0.36041 0.0
C1188 C 0.26463 0.81767 0.35894 0.0
C1189 C 0.20499 0.85493 0.32688 0.0
C1190 C 0.14842 0.83521 0.2795 0.0
C1191 C 0.15656 0.83042 0.26608 0.0
C1192 C 0.15086 0.83687 0.25228 0.0
C1193 C 0.13655 0.84797 0.25228 0.0
C1194 C 0.13395 0.84595 0.27919 0.0
C1195 C 0.12802 0.85224 0.26563 0.0
C1196 C 0.15735 0.78926 0.3295 0.0
C1197 C 0.15658 0.83034 0.29372 0.0
H1198 H 0.16732 0.83734 0.41323 0.0
H1199 H 0.2284 0.8389 0.43569 0.0
H1200 H 0.22337 0.83399 0.38812 0.0
H1201 H 0.24489 0.83599 0.41145 0.0
H1202 H 0.16739 0.82173 0.26647 0.0
H1203 H 0.13224 0.85379 0.24201 0.0
H1204 H 0.12753 0.84977 0.28941 0.0
H1205 H 0.11707 0.8608 0.26547 0.0
Eu1206 Eu 0.82479 0.65097 0.65413 0.0
C1207 C 0.88145 0.74044 0.69708 0.0
C1208 C 0.92371 0.75073 0.69554 0.0
C1209 C 0.9136 0.78164 0.70099 0.0
C1210 C 0.89865 0.73369 0.69459 0.0
C1211 C 0.8887 0.76441 0.70059 0.0
C1212 C 0.93109 0.7748 0.69848 0.0
C1213 C 0.84627 0.75217 0.70418 0.0
N1214 N 0.8576 0.72335 0.69671 0.0
C1215 C 0.84002 0.72863 0.70069 0.0
C1216 C 0.8707 0.77021 0.70395 0.0
Eu1217 Eu 0.84811 0.68407 0.69013 0.0
N1218 N 0.89087 0.71028 0.69177 0.0
C1219 C 0.90727 0.70249 0.6907 0.0
C1220 C 0.94058 0.74297 0.69381 0.0
C1221 C 0.93231 0.71871 0.69149 0.0
H1222 H 0.82109 0.71475 0.70077 0.0
H1223 H 0.94522 0.71249 0.69031 0.0
H1224 H 0.95025 0.78819 0.6991 0.0
H1225 H 0.83224 0.75639 0.70699 0.0
H1226 H 0.90128 0.68384 0.68889 0.0
H1227 H 0.72809 0.62405 0.65298 0.0
H1228 H 0.95998 0.75546 0.69455 0.0
H1229 H 0.85076 0.61916 0.64375 0.0
H1230 H 0.77217 0.65228 0.65398 0.0
H1231 H 0.83891 0.57695 0.63879 0.0
H1232 H 0.91954 0.80019 0.70354 0.0
H1233 H 0.71266 0.58063 0.65067 0.0
H1234 H 0.72169 0.54709 0.64799 0.0
H1235 H 0.87551 0.78843 0.70667 0.0
H1236 H 0.75187 0.53422 0.64417 0.0
N1237 N 0.78196 0.6252 0.65279 0.0
C1238 C 0.76586 0.63343 0.65303 0.0
C1239 C 0.73211 0.59294 0.65128 0.0
C1240 C 0.74868 0.58469 0.65032 0.0
C1241 C 0.74075 0.61744 0.65248 0.0
C1242 C 0.77382 0.60151 0.65093 0.0
H1243 H 0.79561 0.54527 0.64042 0.0
N1244 N 0.81462 0.61122 0.64838 0.0
C1245 C 0.82517 0.58156 0.6416 0.0
C1246 C 0.79071 0.59429 0.64868 0.0
C1247 C 0.83181 0.60541 0.64435 0.0
C1248 C 0.80072 0.56373 0.64259 0.0
C1249 C 0.78307 0.57002 0.64591 0.0
O1250 O 0.84074 0.65464 0.63199 0.0
O1251 O 0.85552 0.6817 0.66604 0.0
O1252 O 0.84311 0.70835 0.67422 0.0
O1253 O 0.81479 0.68003 0.65758 0.0
O1254 O 0.86487 0.66335 0.65109 0.0
O1255 O 0.81383 0.66532 0.63562 0.0
O1256 O 0.83102 0.67835 0.71205 0.0
O1257 O 0.81756 0.65368 0.67804 0.0
O1258 O 0.82969 0.62694 0.67027 0.0
O1259 O 0.8587 0.65552 0.68641 0.0
O1260 O 0.80782 0.67153 0.69307 0.0
O1261 O 0.8596 0.66993 0.70853 0.0
C1262 C 0.87337 0.68147 0.66006 0.0
C1263 C 0.81603 0.65209 0.61143 0.0
C1264 C 0.81373 0.6559 0.58445 0.0
C1265 C 0.82549 0.66521 0.59825 0.0
C1266 C 0.79263 0.63318 0.58402 0.0
C1267 C 0.79509 0.6294 0.61071 0.0
C1268 C 0.78351 0.62001 0.59706 0.0
C1269 C 0.82672 0.70194 0.66337 0.0
C1270 C 0.82754 0.66264 0.6259 0.0
C1271 C 0.75811 0.55299 0.64611 0.0
C1272 C 0.74093 0.56032 0.64829 0.0
C1273 C 0.79956 0.65375 0.68385 0.0
C1274 C 0.85511 0.68097 0.73295 0.0
C1275 C 0.84551 0.66682 0.74576 0.0
C1276 C 0.85588 0.67584 0.75995 0.0
C1277 C 0.87575 0.69931 0.76107 0.0
C1278 C 0.87485 0.70431 0.73439 0.0
C1279 C 0.88506 0.71341 0.74839 0.0
C1280 C 0.84644 0.63348 0.68088 0.0
C1281 C 0.84479 0.67103 0.71814 0.0
H1282 H 0.84159 0.68283 0.59879 0.0
H1283 H 0.78333 0.62552 0.57355 0.0
H1284 H 0.78758 0.61907 0.62072 0.0
H1285 H 0.7673 0.60251 0.59658 0.0
H1286 H 0.83035 0.6487 0.74465 0.0
H1287 H 0.88395 0.70688 0.7718 0.0
H1288 H 0.88245 0.71543 0.72468 0.0
H1289 H 0.90031 0.73145 0.74942 0.0
Eu1290 Eu 0.3558 0.17741 0.65608 0.0
C1291 C 0.25771 0.13087 0.69079 0.0
C1292 C 0.24503 0.16054 0.69079 0.0
C1293 C 0.2146 0.1183 0.6916 0.0
C1294 C 0.26356 0.15454 0.69021 0.0
C1295 C 0.2332 0.1125 0.69186 0.0
C1296 C 0.22051 0.14229 0.6911 0.0
C1297 C 0.24742 0.08433 0.69499 0.0
N1298 N 0.27611 0.12591 0.69133 0.0
C1299 C 0.27144 0.10319 0.694 0.0
C1300 C 0.22819 0.08895 0.6937 0.0
Eu1301 Eu 0.31621 0.15865 0.68926 0.0
N1302 N 0.28742 0.17176 0.68999 0.0
C1303 C 0.29406 0.19535 0.6912 0.0
C1304 C 0.25173 0.18471 0.69157 0.0
C1305 C 0.27635 0.20218 0.69182 0.0
H1306 H 0.28628 0.09957 0.69494 0.0
H1307 H 0.28171 0.22091 0.69258 0.0
H1308 H 0.20602 0.14656 0.69135 0.0
H1309 H 0.24375 0.06626 0.69671 0.0
H1310 H 0.31303 0.20903 0.69146 0.0
H1311 H 0.39008 0.11494 0.65299 0.0
H1312 H 0.23807 0.19004 0.69239 0.0
H1313 H 0.38589 0.23642 0.6502 0.0
H1314 H 0.35884 0.12694 0.6539 0.0
H1315 H 0.42847 0.26963 0.64839 0.0
H1316 H 0.19564 0.10442 0.69225 0.0
H1317 H 0.43375 0.14572 0.6534 0.0
H1318 H 0.46588 0.18917 0.6544 0.0
H1319 H 0.2096 0.07433 0.69454 0.0
H1320 H 0.47638 0.23134 0.65336 0.0
N1321 N 0.38451 0.16418 0.65546 0.0
C1322 C 0.37782 0.14059 0.65424 0.0
C1323 C 0.42012 0.1511 0.65411 0.0
C1324 C 0.42688 0.17528 0.65485 0.0
C1325 C 0.39548 0.13368 0.65374 0.0
C1326 C 0.4084 0.18136 0.65533 0.0
H1327 H 0.46254 0.26148 0.65078 0.0
N1328 N 0.39595 0.21005 0.65404 0.0
C1329 C 0.42475 0.25156 0.65022 0.0
C1330 C 0.41431 0.20505 0.65469 0.0
C1331 C 0.4007 0.23276 0.65123 0.0
C1332 C 0.44393 0.2469 0.65164 0.0
C1333 C 0.43885 0.22336 0.65363 0.0
O1334 O 0.35232 0.19197 0.63497 0.0
O1335 O 0.32168 0.17261 0.66619 0.0
O1336 O 0.29521 0.13267 0.67067 0.0
O1337 O 0.32696 0.1375 0.65529 0.0
O1338 O 0.34127 0.20317 0.65397 0.0
O1339 O 0.35037 0.1575 0.63528 0.0
O1340 O 0.31991 0.14417 0.71034 0.0
O1341 O 0.35027 0.16348 0.67913 0.0
O1342 O 0.37674 0.20342 0.67464 0.0
O1343 O 0.34501 0.19858 0.69004 0.0
O1344 O 0.33087 0.13297 0.69137 0.0
O1345 O 0.32165 0.17854 0.71007 0.0
C1346 C 0.32155 0.19087 0.66145 0.0
C1347 C 0.36606 0.18093 0.61369 0.0
C1348 C 0.36876 0.1824 0.58655 0.0
C1349 C 0.35478 0.17499 0.59964 0.0
C1350 C 0.39435 0.19559 0.58784 0.0
C1351 C 0.39154 0.19382 0.61474 0.0
C1352 C 0.4056 0.20107 0.60186 0.0
C1353 C 0.30387 0.12549 0.65962 0.0
C1354 C 0.35085 0.17429 0.62705 0.0
C1355 C 0.4574 0.2175 0.654 0.0
C1356 C 0.45142 0.19349 0.65458 0.0
C1357 C 0.35056 0.14532 0.68387 0.0
C1358 C 0.30639 0.15517 0.73174 0.0
C1359 C 0.31786 0.16129 0.74574 0.0
C1360 C 0.30398 0.15359 0.75879 0.0
C1361 C 0.27848 0.13995 0.75775 0.0
C1362 C 0.28088 0.14184 0.73083 0.0
C1363 C 0.267 0.13431 0.74381 0.0
C1364 C 0.3681 0.21058 0.68571 0.0
C1365 C 0.3214 0.16183 0.71829 0.0
H1366 H 0.33507 0.16456 0.59899 0.0
H1367 H 0.40573 0.20203 0.57806 0.0
H1368 H 0.40056 0.19846 0.62545 0.0
H1369 H 0.42527 0.21122 0.60274 0.0
H1370 H 0.3376 0.17149 0.74649 0.0
H1371 H 0.2675 0.13383 0.76772 0.0
H1372 H 0.27171 0.13704 0.72016 0.0
H1373 H 0.24733 0.1239 0.74304 0.0
Eu1374 Eu 0.84719 0.16039 0.68984 0.0
C1375 C 0.79192 0.19854 0.64994 0.0
C1376 C 0.74938 0.16786 0.65087 0.0
C1377 C 0.76045 0.20925 0.64684 0.0
C1378 C 0.7743 0.17487 0.6518 0.0
C1379 C 0.78523 0.21597 0.64719 0.0
C1380 C 0.74256 0.18523 0.64865 0.0
C1381 C 0.82791 0.24498 0.64415 0.0
N1382 N 0.81564 0.20437 0.65019 0.0
C1383 C 0.83361 0.22702 0.64685 0.0
C1384 C 0.80362 0.23949 0.64449 0.0
Eu1385 Eu 0.82409 0.17333 0.65521 0.0
N1386 N 0.78152 0.15855 0.6539 0.0
C1387 C 0.76471 0.13471 0.65433 0.0
C1388 C 0.73208 0.14355 0.65189 0.0
C1389 C 0.73979 0.1269 0.65354 0.0
H1390 H 0.85242 0.23136 0.64665 0.0
H1391 H 0.72655 0.10802 0.65416 0.0
H1392 H 0.7235 0.18021 0.64807 0.0
H1393 H 0.84224 0.26302 0.64184 0.0
H1394 H 0.77031 0.12157 0.65556 0.0
H1395 H 0.94432 0.22687 0.69167 0.0
H1396 H 0.71278 0.13742 0.65108 0.0
H1397 H 0.81998 0.10233 0.69824 0.0
H1398 H 0.90039 0.21267 0.69058 0.0
H1399 H 0.83093 0.07091 0.7019 0.0
H1400 H 0.75494 0.22241 0.64486 0.0
H1401 H 0.95882 0.19784 0.69314 0.0
H1402 H 0.94889 0.15506 0.69434 0.0
H1403 H 0.79924 0.25341 0.64236 0.0
H1404 H 0.91801 0.11254 0.69699 0.0
N1405 N 0.88986 0.17576 0.69078 0.0
C1406 C 0.90633 0.1997 0.69107 0.0
C1407 C 0.93946 0.19144 0.69238 0.0
C1408 C 0.9225 0.16696 0.69265 0.0
C1409 C 0.93134 0.20788 0.69169 0.0
C1410 C 0.89748 0.1596 0.69203 0.0
H1411 H 0.874 0.08104 0.7001 0.0
N1412 N 0.8564 0.12966 0.69409 0.0
C1413 C 0.84496 0.08907 0.69955 0.0
C1414 C 0.88019 0.13577 0.69368 0.0
C1415 C 0.83883 0.10687 0.69752 0.0
C1416 C 0.86928 0.09484 0.69848 0.0
C1417 C 0.88731 0.11852 0.69577 0.0
O1418 O 0.83118 0.14737 0.71177 0.0
O1419 O 0.81651 0.1623 0.679 0.0
O1420 O 0.82913 0.20125 0.6723 0.0
O1421 O 0.85771 0.19967 0.68798 0.0
O1422 O 0.80696 0.13365 0.69279 0.0
O1423 O 0.85966 0.18423 0.70919 0.0
O1424 O 0.84088 0.18554 0.63337 0.0
O1425 O 0.8546 0.17151 0.6662 0.0
O1426 O 0.84198 0.13261 0.67255 0.0
O1427 O 0.81287 0.13397 0.65732 0.0
O1428 O 0.86455 0.20004 0.65234 0.0
O1429 O 0.81131 0.14916 0.63601 0.0
C1430 C 0.79855 0.14426 0.68463 0.0
C1431 C 0.85669 0.16655 0.73256 0.0
C1432 C 0.85799 0.16877 0.75974 0.0
C1433 C 0.84689 0.16868 0.74611 0.0
C1434 C 0.87889 0.16645 0.7596 0.0
C1435 C 0.87744 0.16407 0.73264 0.0
C1436 C 0.88844 0.16399 0.74612 0.0
C1437 C 0.84575 0.21027 0.68304 0.0
C1438 C 0.84546 0.16767 0.71848 0.0
C1439 C 0.91217 0.12556 0.69556 0.0
C1440 C 0.92974 0.14976 0.69404 0.0
C1441 C 0.87274 0.18948 0.66073 0.0
C1442 C 0.81577 0.16667 0.61239 0.0
C1443 C 0.82648 0.16498 0.59911 0.0
C1444 C 0.81639 0.16534 0.58516 0.0
C1445 C 0.79545 0.16768 0.58482 0.0
C1446 C 0.79507 0.16917 0.61179 0.0
C1447 C 0.78501 0.1697 0.59805 0.0
C1448 C 0.82509 0.1235 0.66196 0.0
C1449 C 0.8262 0.1653 0.62674 0.0
H1450 H 0.83095 0.17079 0.74604 0.0
H1451 H 0.88771 0.16632 0.76994 0.0
H1452 H 0.88521 0.1624 0.72231 0.0
H1453 H 0.90448 0.16212 0.74613 0.0
H1454 H 0.84273 0.16345 0.59971 0.0
H1455 H 0.78685 0.16755 0.57436 0.0
H1456 H 0.78658 0.17049 0.62191 0.0
H1457 H 0.7689 0.17144 0.59764 0.0
C1458 C 0.35614 0.88951 0.06098 0.0
C1459 C 0.33595 0.87153 0.05328 0.0
C1460 C 0.37689 0.90637 0.05333 0.0
C1461 C 0.37723 0.90559 0.03754 0.0
C1462 C 0.35693 0.8873 0.02971 0.0
C1463 C 0.33662 0.87028 0.0377 0.0
C1464 C 0.39833 0.92525 0.06214 0.0
C1465 C 0.35646 0.88602 0.01292 0.0
C1466 C 0.42125 0.96639 0.02169 0.0
C1467 C 0.44183 0.96428 0.01907 0.0
C1468 C 0.39942 0.94679 0.02661 0.0
C1469 C 0.39843 0.92475 0.0294 0.0
C1470 C 0.41887 0.92223 0.02604 0.0
C1471 C 0.44036 0.94208 0.02093 0.0
C1472 C 0.37786 0.95008 0.02961 0.0
C1473 C 0.41876 0.89918 0.02887 0.0
H1474 H 0.35571 0.8903 0.07304 0.0
H1475 H 0.32094 0.85639 0.03175 0.0
H1476 H 0.41522 0.92525 0.05894 0.0
H1477 H 0.40103 0.94319 0.05957 0.0
H1478 H 0.39579 0.92245 0.07435 0.0
H1479 H 0.33903 0.87111 0.00849 0.0
H1480 H 0.35923 0.90307 0.00826 0.0
H1481 H 0.3716 0.88355 0.00892 0.0
H1482 H 0.42246 0.98362 0.0203 0.0
H1483 H 0.45639 0.9405 0.01921 0.0
H1484 H 0.37509 0.95012 0.04181 0.0
H1485 H 0.36101 0.93504 0.02471 0.0
H1486 H 0.38046 0.96713 0.02502 0.0
H1487 H 0.4203 0.8972 0.04104 0.0
H1488 H 0.43419 0.8988 0.02327 0.0
H1489 H 0.40146 0.88356 0.02496 0.0
C1490 C 0.11659 0.46728 0.06226 0.0
C1491 C 0.13478 0.46597 0.05416 0.0
C1492 C 0.09868 0.47044 0.05505 0.0
C1493 C 0.09863 0.47192 0.03929 0.0
C1494 C 0.11708 0.47077 0.03107 0.0
C1495 C 0.13504 0.46805 0.0386 0.0
C1496 C 0.07962 0.47193 0.0643 0.0
C1497 C 0.11767 0.47208 0.01431 0.0
C1498 C 0.0365 0.45443 0.02266 0.0
C1499 C 0.03848 0.47674 0.02027 0.0
C1500 C 0.05635 0.45263 0.02809 0.0
C1501 C 0.07865 0.47368 0.03153 0.0
C1502 C 0.08098 0.49629 0.02864 0.0
C1503 C 0.06083 0.49754 0.02314 0.0
C1504 C 0.05315 0.42816 0.03067 0.0
C1505 C 0.10434 0.51923 0.03206 0.0
H1506 H 0.11646 0.46598 0.0743 0.0
H1507 H 0.14897 0.46691 0.03227 0.0
H1508 H 0.07942 0.48862 0.06173 0.0
H1509 H 0.0613 0.45672 0.06148 0.0
H1510 H 0.08283 0.47159 0.07645 0.0
H1511 H 0.13228 0.46943 0.00949 0.0
H1512 H 0.09988 0.4583 0.00958 0.0
H1513 H 0.12075 0.48981 0.01083 0.0
H1514 H 0.01919 0.43832 0.02053 0.0
H1515 H 0.06237 0.51484 0.02163 0.0
H1516 H 0.05391 0.42534 0.0428 0.0
H1517 H 0.06819 0.42675 0.02539 0.0
H1518 H 0.03552 0.41364 0.02618 0.0
H1519 H 0.10718 0.52137 0.04431 0.0
H1520 H 0.10408 0.53515 0.02766 0.0
H1521 H 0.12013 0.51868 0.02724 0.0
C1522 C 0.56161 0.67752 0.04667 0.0
C1523 C 0.5479 0.67806 0.05872 0.0
C1524 C 0.55576 0.65585 0.03959 0.0
C1525 C 0.53607 0.63424 0.04494 0.0
C1526 C 0.52225 0.63471 0.05717 0.0
C1527 C 0.5282 0.65669 0.06383 0.0
C1528 C 0.57058 0.65607 0.02639 0.0
C1529 C 0.50141 0.61198 0.06334 0.0
C1530 C 0.50678 0.57941 0.01977 0.0
C1531 C 0.51862 0.56707 0.02435 0.0
C1532 C 0.51256 0.60148 0.02619 0.0
C1533 C 0.53007 0.6111 0.03782 0.0
C1534 C 0.54174 0.59855 0.04273 0.0
C1535 C 0.53605 0.5768 0.03585 0.0
C1536 C 0.49998 0.61452 0.02049 0.0
C1537 C 0.56014 0.60802 0.05534 0.0
H1538 H 0.57672 0.69413 0.04266 0.0
H1539 H 0.51776 0.65717 0.07324 0.0
H1540 H 0.57955 0.6455 0.02889 0.0
H1541 H 0.55846 0.64754 0.0166 0.0
H1542 H 0.58483 0.67448 0.02335 0.0
H1543 H 0.49263 0.61544 0.07299 0.0
H1544 H 0.48741 0.60244 0.05456 0.0
H1545 H 0.5081 0.59985 0.06692 0.0
H1546 H 0.49286 0.57184 0.01118 0.0
H1547 H 0.54519 0.56736 0.03959 0.0
H1548 H 0.51374 0.63258 0.01661 0.0
H1549 H 0.48968 0.61701 0.02962 0.0
H1550 H 0.48717 0.60481 0.01115 0.0
H1551 H 0.57577 0.62569 0.05236 0.0
H1552 H 0.56714 0.59579 0.05806 0.0
H1553 H 0.55176 0.61068 0.06547 0.0
C1554 C 0.88353 0.32488 0.96313 0.0
C1555 C 0.86927 0.32386 0.95089 0.0
C1556 C 0.90047 0.34691 0.96962 0.0
C1557 C 0.90357 0.3684 0.96348 0.0
C1558 C 0.88963 0.36745 0.95086 0.0
C1559 C 0.87242 0.34515 0.94482 0.0
C1560 C 0.91459 0.34716 0.98327 0.0
C1561 C 0.89276 0.38997 0.9438 0.0
C1562 C 0.9282 0.42366 0.98823 0.0
C1563 C 0.95307 0.43591 0.98468 0.0
C1564 C 0.91202 0.40159 0.98156 0.0
C1565 C 0.92067 0.39183 0.97063 0.0
C1566 C 0.94557 0.40444 0.96659 0.0
C1567 C 0.96153 0.42623 0.97376 0.0
C1568 C 0.88568 0.3886 0.98635 0.0
C1569 C 0.95535 0.39491 0.9547 0.0
H1570 H 0.88095 0.30837 0.96786 0.0
H1571 H 0.86151 0.34431 0.93526 0.0
H1572 H 0.93445 0.35802 0.9812 0.0
H1573 H 0.91043 0.35562 0.99275 0.0
H1574 H 0.91024 0.3289 0.98657 0.0
H1575 H 0.88155 0.38618 0.93352 0.0
H1576 H 0.88749 0.39971 0.95181 0.0
H1577 H 0.91217 0.40205 0.94098 0.0
H1578 H 0.92124 0.43126 0.99626 0.0
H1579 H 0.98064 0.43564 0.97079 0.0
H1580 H 0.8809 0.37084 0.99088 0.0
H1581 H 0.87356 0.38543 0.97663 0.0
H1582 H 0.88187 0.39867 0.99498 0.0
H1583 H 0.95299 0.37742 0.95814 0.0
H1584 H 0.97496 0.4073 0.95246 0.0
H1585 H 0.94491 0.39185 0.94418 0.0
C1586 C 0.64981 0.53321 0.94939 0.0
C1587 C 0.66983 0.53544 0.95747 0.0
C1588 C 0.62872 0.5299 0.95667 0.0
C1589 C 0.62774 0.52929 0.97246 0.0
C1590 C 0.64787 0.53138 0.98066 0.0
C1591 C 0.66855 0.53419 0.97307 0.0
C1592 C 0.60756 0.52732 0.94744 0.0
C1593 C 0.6478 0.53117 0.99745 0.0
C1594 C 0.58309 0.54664 0.98843 0.0
C1595 C 0.56268 0.52432 0.99135 0.0
C1596 C 0.60482 0.54855 0.9831 0.0
C1597 C 0.60605 0.52756 0.98026 0.0
C1598 C 0.58573 0.50497 0.98373 0.0
C1599 C 0.56428 0.50363 0.98918 0.0
C1600 C 0.62615 0.57303 0.97991 0.0
C1601 C 0.58609 0.48209 0.98093 0.0
H1602 H 0.65059 0.53389 0.93733 0.0
H1603 H 0.68404 0.53606 0.97937 0.0
H1604 H 0.59065 0.51065 0.95045 0.0
H1605 H 0.60449 0.54248 0.94983 0.0
H1606 H 0.61064 0.52688 0.93529 0.0
H1607 H 0.66484 0.53297 1.00221 0.0
H1608 H 0.64552 0.54607 1.00176 0.0
H1609 H 0.63217 0.51425 1.00144 0.0
H1610 H 0.58184 0.56265 0.99001 0.0
H1611 H 0.54843 0.4863 0.99111 0.0
H1612 H 0.62913 0.57518 0.96771 0.0
H1613 H 0.64303 0.57508 0.98506 0.0
H1614 H 0.6232 0.58758 0.98414 0.0
H1615 H 0.57014 0.46637 0.98592 0.0
H1616 H 0.60298 0.48342 0.98554 0.0
H1617 H 0.58591 0.47899 0.96874 0.0
C1618 C 0.44997 0.12663 0.97182 0.0
C1619 C 0.45269 0.13027 0.95643 0.0
C1620 C 0.45607 0.11091 0.97877 0.0
C1621 C 0.46566 0.09915 0.97012 0.0
C1622 C 0.46883 0.10319 0.95458 0.0
C1623 C 0.46199 0.11852 0.94788 0.0
C1624 C 0.45193 0.1066 0.9953 0.0
C1625 C 0.4795 0.09139 0.94505 0.0
C1626 C 0.50129 0.07419 0.98957 0.0
C1627 C 0.48437 0.04963 0.98939 0.0
C1628 C 0.49544 0.09059 0.98339 0.0
C1629 C 0.47192 0.0822 0.97722 0.0
C1630 C 0.45455 0.05747 0.97741 0.0
C1631 C 0.46109 0.04143 0.98334 0.0
C1632 C 0.51461 0.11676 0.98313 0.0
C1633 C 0.4291 0.04793 0.97126 0.0
H1634 H 0.44271 0.1358 0.97834 0.0
H1635 H 0.46421 0.12162 0.93598 0.0
H1636 H 0.4392 0.08733 0.99731 0.0
H1637 H 0.46932 0.11137 1.00104 0.0
H1638 H 0.44427 0.11712 1.0004 0.0
H1639 H 0.48175 0.09726 0.93327 0.0
H1640 H 0.49753 0.09555 0.94957 0.0
H1641 H 0.46754 0.07168 0.94531 0.0
H1642 H 0.51936 0.08056 0.9942 0.0
H1643 H 0.44789 0.02247 0.98335 0.0
H1644 H 0.50782 0.12757 0.9888 0.0
H1645 H 0.51857 0.12292 0.97142 0.0
H1646 H 0.53187 0.12037 0.98862 0.0
H1647 H 0.42043 0.05733 0.9766 0.0
H1648 H 0.41735 0.02841 0.97306 0.0
H1649 H 0.42988 0.05138 0.95913 0.0
C1650 C 0.66864 0.13145 0.97325 0.0
C1651 C 0.66979 0.13084 0.95762 0.0
C1652 C 0.64824 0.11412 0.98101 0.0
C1653 C 0.62816 0.09601 0.97297 0.0
C1654 C 0.62879 0.09576 0.9572 0.0
C1655 C 0.64964 0.11292 0.94975 0.0
C1656 C 0.6484 0.11488 0.99782 0.0
C1657 C 0.60759 0.07699 0.94816 0.0
C1658 C 0.58438 0.03482 0.9885 0.0
C1659 C 0.56374 0.03676 0.99129 0.0
C1660 C 0.60609 0.05454 0.98356 0.0
C1661 C 0.60691 0.07653 0.9809 0.0
C1662 C 0.58639 0.07886 0.98438 0.0
C1663 C 0.56502 0.0589 0.98951 0.0
C1664 C 0.62775 0.05145 0.98043 0.0
C1665 C 0.58632 0.10187 0.9817 0.0
H1666 H 0.68375 0.14545 0.9795 0.0
H1667 H 0.6503 0.11187 0.93772 0.0
H1668 H 0.63252 0.11603 1.00188 0.0
H1669 H 0.64675 0.09812 1.00222 0.0
H1670 H 0.66529 0.13028 1.00244 0.0
H1671 H 0.61018 0.08029 0.93599 0.0
H1672 H 0.60522 0.05908 0.95042 0.0
H1673 H 0.59049 0.0765 0.95145 0.0
H1674 H 0.58331 0.01764 0.98983 0.0
H1675 H 0.54896 0.06036 0.99137 0.0
H1676 H 0.64452 0.06641 0.98546 0.0
H1677 H 0.63062 0.05177 0.96823 0.0
H1678 H 0.62522 0.03431 0.98482 0.0
H1679 H 0.60343 0.11746 0.98586 0.0
H1680 H 0.57064 0.10194 0.98716 0.0
H1681 H 0.58517 0.10418 0.96953 0.0
C1682 C 0.88763 0.5359 0.94929 0.0
C1683 C 0.86939 0.53717 0.95743 0.0
C1684 C 0.90558 0.53268 0.95642 0.0
C1685 C 0.90577 0.53116 0.97216 0.0
C1686 C 0.88747 0.53242 0.98046 0.0
C1687 C 0.86942 0.53512 0.97302 0.0
C1688 C 0.92458 0.53121 0.94708 0.0
C1689 C 0.88698 0.53101 0.99722 0.0
C1690 C 0.9433 0.50508 0.98816 0.0
C1691 C 0.96576 0.52577 0.99098 0.0
C1692 C 0.92323 0.50651 0.98269 0.0
C1693 C 0.92573 0.5292 0.97983 0.0
C1694 C 0.94813 0.55015 0.98325 0.0
C1695 C 0.96791 0.54816 0.98861 0.0
C1696 C 0.89976 0.48368 0.97928 0.0
C1697 C 0.9515 0.5747 0.98075 0.0
H1698 H 0.88823 0.53785 0.93729 0.0
H1699 H 0.85522 0.53552 0.97948 0.0
H1700 H 0.94289 0.54653 0.94979 0.0
H1701 H 0.92493 0.51461 0.94967 0.0
H1702 H 0.92118 0.5314 0.93494 0.0
H1703 H 0.87274 0.53413 1.00213 0.0
H1704 H 0.88337 0.51306 1.00062 0.0
H1705 H 0.90495 0.54441 1.00193 0.0
H1706 H 0.94162 0.48771 0.98968 0.0
H1707 H 0.9853 0.56419 0.99072 0.0
H1708 H 0.89678 0.48167 0.96704 0.0
H1709 H 0.88408 0.48431 0.98422 0.0
H1710 H 0.89995 0.46767 0.98356 0.0
H1711 H 0.96923 0.58913 0.9852 0.0
H1712 H 0.93659 0.57622 0.98613 0.0
H1713 H 0.95064 0.57758 0.96864 0.0
C1714 C 0.45879 0.34311 0.94555 0.0
C1715 C 0.45235 0.32255 0.95397 0.0
C1716 C 0.46505 0.36499 0.95246 0.0
C1717 C 0.46416 0.36625 0.96817 0.0
C1718 C 0.45726 0.34557 0.97676 0.0
C1719 C 0.45177 0.32407 0.96958 0.0
C1720 C 0.47276 0.3868 0.94295 0.0
C1721 C 0.45564 0.34615 0.99353 0.0
C1722 C 0.50055 0.42679 0.98718 0.0
C1723 C 0.48293 0.43369 0.98867 0.0
C1724 C 0.49472 0.40489 0.98048 0.0
C1725 C 0.47051 0.38927 0.97559 0.0
C1726 C 0.45249 0.39589 0.97748 0.0
C1727 C 0.45902 0.41824 0.9838 0.0
C1728 C 0.51457 0.39873 0.97833 0.0
C1729 C 0.42633 0.37938 0.97283 0.0
H1730 H 0.45882 0.34213 0.93349 0.0
H1731 H 0.44728 0.3085 0.97626 0.0
H1732 H 0.4599 0.39357 0.94442 0.0
H1733 H 0.49105 0.40132 0.94652 0.0
H1734 H 0.47341 0.38302 0.93091 0.0
H1735 H 0.44904 0.32828 0.99854 0.0
H1736 H 0.47379 0.35877 0.99837 0.0
H1737 H 0.44313 0.35273 0.99678 0.0
H1738 H 0.51909 0.43881 0.9909 0.0
H1739 H 0.44534 0.42348 0.98514 0.0
H1740 H 0.51647 0.396 0.9663 0.0
H1741 H 0.5097 0.38174 0.98402 0.0
H1742 H 0.53248 0.41293 0.98271 0.0
H1743 H 0.42521 0.37631 0.96061 0.0
H1744 H 0.41431 0.38669 0.97582 0.0
H1745 H 0.41928 0.36173 0.97821 0.0
C1746 C 0.13388 0.65386 0.06769 0.0
C1747 C 0.13789 0.67579 0.06205 0.0
C1748 C 0.116 0.632 0.06149 0.0
C1749 C 0.10224 0.63195 0.04904 0.0
C1750 C 0.10611 0.65391 0.04326 0.0
C1751 C 0.12359 0.6755 0.04996 0.0
C1752 C 0.11213 0.60893 0.06814 0.0
C1753 C 0.09212 0.65461 0.0298 0.0
C1754 C 0.0764 0.57761 0.02346 0.0
C1755 C 0.0515 0.5658 0.02692 0.0
C1756 C 0.09297 0.59925 0.03042 0.0
C1757 C 0.08468 0.60899 0.04158 0.0
C1758 C 0.05973 0.59681 0.04553 0.0
C1759 C 0.04338 0.57547 0.03805 0.0
C1760 C 0.11934 0.61182 0.02568 0.0
C1761 C 0.05035 0.60628 0.0577 0.0
H1762 H 0.145 0.65368 0.07682 0.0
H1763 H 0.12598 0.69217 0.04567 0.0
H1764 H 0.09254 0.59695 0.07061 0.0
H1765 H 0.11752 0.59944 0.06001 0.0
H1766 H 0.12284 0.61198 0.07856 0.0
H1767 H 0.09724 0.67315 0.02668 0.0
H1768 H 0.09556 0.6459 0.02015 0.0
H1769 H 0.07226 0.64444 0.03199 0.0
H1770 H 0.0831 0.56998 0.01527 0.0
H1771 H 0.02425 0.56637 0.04097 0.0
H1772 H 0.13133 0.61443 0.03538 0.0
H1773 H 0.12457 0.6298 0.02135 0.0
H1774 H 0.12286 0.60173 0.01691 0.0
H1775 H 0.06061 0.60854 0.0682 0.0
H1776 H 0.03063 0.59424 0.05982 0.0
H1777 H 0.05332 0.62414 0.05463 0.0
C1778 C 0.35235 0.46619 0.06224 0.0
C1779 C 0.33229 0.46387 0.05407 0.0
C1780 C 0.37358 0.46963 0.05511 0.0
C1781 C 0.37479 0.47019 0.03935 0.0
C1782 C 0.35468 0.4678 0.031 0.0
C1783 C 0.3339 0.46502 0.03844 0.0
C1784 C 0.39466 0.47233 0.06449 0.0
C1785 C 0.35503 0.46815 0.01421 0.0
C1786 C 0.4386 0.49657 0.02303 0.0
C1787 C 0.44058 0.47605 0.02109 0.0
C1788 C 0.41691 0.49492 0.02829 0.0
C1789 C 0.39674 0.47221 0.03173 0.0
C1790 C 0.39836 0.45139 0.02906 0.0
C1791 C 0.42034 0.4536 0.02397 0.0
C1792 C 0.41609 0.5176 0.03092 0.0
C1793 C 0.37714 0.42679 0.03211 0.0
H1794 H 0.35138 0.46492 0.07427 0.0
H1795 H 0.31891 0.46384 0.03192 0.0
H1796 H 0.3977 0.4571 0.0623 0.0
H1797 H 0.41162 0.48893 0.06145 0.0
H1798 H 0.39149 0.473 0.07661 0.0
H1799 H 0.33695 0.46315 0.00933 0.0
H1800 H 0.3684 0.48637 0.01041 0.0
H1801 H 0.36082 0.45567 0.00982 0.0
H1802 H 0.45432 0.51399 0.02106 0.0
H1803 H 0.42188 0.43773 0.02251 0.0
H1804 H 0.41526 0.52038 0.04308 0.0
H1805 H 0.39948 0.51616 0.02578 0.0
H1806 H 0.4323 0.53353 0.02633 0.0
H1807 H 0.3737 0.42462 0.04427 0.0
H1808 H 0.38048 0.41238 0.02809 0.0
H1809 H 0.36037 0.42452 0.02665 0.0
C1810 C 0.53912 0.88154 0.06534 0.0
C1811 C 0.54843 0.86908 0.05741 0.0
C1812 C 0.53278 0.89682 0.05805 0.0
C1813 C 0.53632 0.90016 0.0425 0.0
C1814 C 0.5457 0.88773 0.0344 0.0
C1815 C 0.55141 0.87216 0.04192 0.0
C1816 C 0.52251 0.90957 0.06703 0.0
C1817 C 0.55003 0.89112 0.01783 0.0
C1818 C 0.50247 0.92579 0.02165 0.0
C1819 C 0.51993 0.95019 0.02153 0.0
C1820 C 0.50755 0.90922 0.02839 0.0
C1821 C 0.53084 0.91725 0.03481 0.0
C1822 C 0.54878 0.94178 0.03428 0.0
C1823 C 0.54299 0.95802 0.0278 0.0
C1824 C 0.4878 0.88329 0.029 0.0
C1825 C 0.57403 0.95093 0.04066 0.0
H1826 H 0.53711 0.87966 0.07732 0.0
H1827 H 0.55812 0.8623 0.03562 0.0
H1828 H 0.53513 0.92916 0.06666 0.0
H1829 H 0.50489 0.90601 0.06214 0.0
H1830 H 0.51957 0.90397 0.07888 0.0
H1831 H 0.55745 0.88011 0.01317 0.0
H1832 H 0.53277 0.88634 0.01192 0.0
H1833 H 0.56304 0.91021 0.01548 0.0
H1834 H 0.48456 0.91971 0.01686 0.0
H1835 H 0.55661 0.97684 0.02756 0.0
H1836 H 0.48341 0.87777 0.04079 0.0
H1837 H 0.49422 0.87179 0.02386 0.0
H1838 H 0.47084 0.87991 0.02319 0.0
H1839 H 0.57295 0.94798 0.05286 0.0
H1840 H 0.58626 0.97029 0.03857 0.0
H1841 H 0.58232 0.94088 0.03574 0.0
C1842 C 0.02223 0.22274 0.39359 0.0
C1843 C 1.00164 0.20553 0.38578 0.0
C1844 C 0.04308 0.23956 0.38602 0.0
C1845 C 0.04319 0.23949 0.37022 0.0
C1846 C 0.02253 0.22195 0.36227 0.0
C1847 C 0.00206 0.205 0.37016 0.0
C1848 C 0.06489 0.25768 0.39494 0.0
C1849 C 0.02187 0.22143 0.34546 0.0
C1850 C 0.08786 0.30058 0.35513 0.0
C1851 C 0.10815 0.29813 0.35215 0.0
C1852 C 0.06592 0.28107 0.35996 0.0
C1853 C 0.06449 0.25871 0.36222 0.0
C1854 C 0.08459 0.25585 0.35846 0.0
C1855 C 0.10625 0.27566 0.35351 0.0
C1856 C 0.04475 0.28476 0.36346 0.0
C1857 C 0.08393 0.2324 0.36067 0.0
H1858 H 0.02203 0.22295 0.40567 0.0
H1859 H 0.9861 0.19173 0.36412 0.0
H1860 H 0.08147 0.25729 0.39145 0.0
H1861 H 0.06811 0.27592 0.39278 0.0
H1862 H 0.06244 0.25438 0.40711 0.0
H1863 H 0.00428 0.20689 0.34094 0.0
H1864 H 0.02487 0.23879 0.34121 0.0
H1865 H 0.0368 0.21889 0.34113 0.0
H1866 H 0.08941 0.31802 0.35411 0.0
H1867 H 0.12205 0.27381 0.35146 0.0
H1868 H 0.04213 0.28423 0.3757 0.0
H1869 H 0.02768 0.27019 0.35843 0.0
H1870 H 0.04769 0.30217 0.35931 0.0
H1871 H 0.09912 0.23193 0.35482 0.0
H1872 H 0.06643 0.2172 0.35663 0.0
H1873 H 0.08546 0.22976 0.37275 0.0
C1874 C 0.7999 0.80013 0.37289 0.0
C1875 C 0.79931 0.79751 0.3884 0.0
C1876 C 0.78194 0.80286 0.36537 0.0
C1877 C 0.76326 0.80364 0.37356 0.0
C1878 C 0.76297 0.80157 0.38929 0.0
C1879 C 0.7808 0.79824 0.39649 0.0
C1880 C 0.78282 0.8046 0.34864 0.0
C1881 C 0.74372 0.80273 0.39853 0.0
C1882 C 0.72649 0.83044 0.35744 0.0
C1883 C 0.70405 0.80992 0.35427 0.0
C1884 C 0.74629 0.82872 0.3631 0.0
C1885 C 0.74355 0.80589 0.36578 0.0
C1886 C 0.72117 0.78512 0.36203 0.0
C1887 C 0.70163 0.7874 0.35651 0.0
C1888 C 0.7697 0.85138 0.3669 0.0
C1889 C 0.71759 0.76044 0.36432 0.0
H1890 H 0.81409 0.79941 0.36659 0.0
H1891 H 0.78041 0.7964 0.4085 0.0
H1892 H 0.76507 0.79102 0.34377 0.0
H1893 H 0.78614 0.82249 0.34535 0.0
H1894 H 0.79742 0.80193 0.34381 0.0
H1895 H 0.74668 0.80195 0.41068 0.0
H1896 H 0.74359 0.81951 0.39619 0.0
H1897 H 0.72546 0.78762 0.39549 0.0
H1898 H 0.72836 0.84789 0.35608 0.0
H1899 H 0.68425 0.7715 0.35416 0.0
H1900 H 0.7855 0.8509 0.36202 0.0
H1901 H 0.77233 0.85292 0.37917 0.0
H1902 H 0.7697 0.8676 0.36281 0.0
H1903 H 0.73267 0.75903 0.3591 0.0
H1904 H 0.70002 0.74622 0.35956 0.0
H1905 H 0.71794 0.75715 0.37641 0.0
C1906 C 0.20016 0.98601 0.40049 0.0
C1907 C 0.20733 0.00691 0.39242 0.0
C1908 C 0.19482 0.96467 0.39318 0.0
C1909 C 0.19741 0.96456 0.37751 0.0
C1910 C 0.20475 0.98575 0.36933 0.0
C1911 C 0.20935 0.00667 0.3769 0.0
C1912 C 0.18647 0.94227 0.40221 0.0
C1913 C 0.20826 0.98642 0.35267 0.0
C1914 C 0.20689 0.91517 0.36194 0.0
C1915 C 0.18375 0.89928 0.35611 0.0
C1916 C 0.21177 0.93684 0.36857 0.0
C1917 C 0.19285 0.94235 0.36973 0.0
C1918 C 0.16945 0.92639 0.3638 0.0
C1919 C 0.16527 0.90515 0.35687 0.0
C1920 C 0.23713 0.95375 0.37442 0.0
C1921 C 0.14868 0.93141 0.36511 0.0
H1922 H 0.19857 0.98637 0.4125 0.0
H1923 H 0.2151 0.02303 0.37077 0.0
H1924 H 0.16882 0.92774 0.39778 0.0
H1925 H 0.19986 0.93605 0.40126 0.0
H1926 H 0.18426 0.94514 0.41419 0.0
H1927 H 0.21402 0.00435 0.34799 0.0
H1928 H 0.22226 0.9815 0.34995 0.0
H1929 H 0.19108 0.97312 0.34708 0.0
H1930 H 0.22125 0.91075 0.36121 0.0
H1931 H 0.1473 0.8928 0.35244 0.0
H1932 H 0.23666 0.95578 0.38667 0.0
H1933 H 0.24411 0.97173 0.36952 0.0
H1934 H 0.25011 0.94742 0.37185 0.0
H1935 H 0.14505 0.93292 0.37704 0.0
H1936 H 0.13165 0.91719 0.3598 0.0
H1937 H 0.15365 0.94873 0.35984 0.0
C1938 C 0.53908 0.66062 0.29975 0.0
C1939 C 0.53502 0.65888 0.28435 0.0
C1940 C 0.55624 0.68239 0.30642 0.0
C1941 C 0.56915 0.70292 0.29745 0.0
C1942 C 0.56488 0.7012 0.28186 0.0
C1943 C 0.54803 0.67906 0.27546 0.0
C1944 C 0.56063 0.6834 0.32302 0.0
C1945 C 0.57786 0.72279 0.27198 0.0
C1946 C 0.59527 0.76321 0.31694 0.0
C1947 C 0.62009 0.77037 0.31793 0.0
C1948 C 0.57858 0.74148 0.3101 0.0
C1949 C 0.58681 0.72628 0.30441 0.0
C1950 C 0.61184 0.73336 0.30548 0.0
C1951 C 0.62826 0.7555 0.31207 0.0
C1952 C 0.55214 0.73483 0.30895 0.0
C1953 C 0.6212 0.71738 0.29987 0.0
H1954 H 0.52899 0.64485 0.30654 0.0
H1955 H 0.54471 0.67755 0.26353 0.0
H1956 H 0.58021 0.69002 0.32532 0.0
H1957 H 0.55604 0.69616 0.32836 0.0
H1958 H 0.54967 0.66566 0.32832 0.0
H1959 H 0.57225 0.71849 0.26011 0.0
H1960 H 0.57401 0.73695 0.27577 0.0
H1961 H 0.59785 0.73029 0.2728 0.0
H1962 H 0.58889 0.77475 0.32137 0.0
H1963 H 0.6474 0.7609 0.31295 0.0
H1964 H 0.54061 0.71812 0.31515 0.0
H1965 H 0.54607 0.73137 0.29713 0.0
H1966 H 0.5489 0.74906 0.31346 0.0
H1967 H 0.61162 0.69988 0.30558 0.0
H1968 H 0.64112 0.72535 0.30174 0.0
H1969 H 0.61733 0.71381 0.28777 0.0
C1970 C 0.31505 0.86502 0.28078 0.0
C1971 C 0.33528 0.8676 0.28877 0.0
C1972 C 0.29406 0.86174 0.28817 0.0
C1973 C 0.29346 0.86166 0.30397 0.0
C1974 C 0.31384 0.86413 0.31207 0.0
C1975 C 0.33437 0.86678 0.30438 0.0
C1976 C 0.27259 0.85864 0.27904 0.0
C1977 C 0.31425 0.86462 0.32885 0.0
C1978 C 0.24874 0.87902 0.31987 0.0
C1979 C 0.22868 0.85673 0.32332 0.0
C1980 C 0.27042 0.88096 0.31439 0.0
C1981 C 0.27188 0.86002 0.31187 0.0
C1982 C 0.2519 0.8375 0.31582 0.0
C1983 C 0.23056 0.83614 0.32149 0.0
C1984 C 0.29144 0.9054 0.31076 0.0
C1985 C 0.25246 0.81466 0.3133 0.0
H1986 H 0.31563 0.86546 0.26871 0.0
H1987 H 0.35006 0.86895 0.31059 0.0
H1988 H 0.25581 0.8421 0.28239 0.0
H1989 H 0.26953 0.87387 0.28116 0.0
H1990 H 0.27532 0.85762 0.26689 0.0
H1991 H 0.3314 0.86656 0.33353 0.0
H1992 H 0.31217 0.87975 0.33293 0.0
H1993 H 0.29871 0.84791 0.33316 0.0
H1994 H 0.24727 0.89495 0.32121 0.0
H1995 H 0.21498 0.81881 0.32383 0.0
H1996 H 0.29402 0.90709 0.29852 0.0
H1997 H 0.30856 0.90785 0.31579 0.0
H1998 H 0.28842 0.91999 0.31483 0.0
H1999 H 0.25203 0.81114 0.30115 0.0
H2000 H 0.23674 0.79903 0.31854 0.0
H2001 H 0.26954 0.81632 0.31783 0.0
C2002 C 0.14389 0.46568 0.28485 0.0
C2003 C 0.12336 0.46687 0.28932 0.0
C2004 C 0.15015 0.45013 0.29183 0.0
C2005 C 0.13574 0.43576 0.30372 0.0
C2006 C 0.11529 0.4373 0.3085 0.0
C2007 C 0.1092 0.4527 0.30112 0.0
C2008 C 0.17181 0.44865 0.28625 0.0
C2009 C 0.09977 0.42254 0.3213 0.0
C2010 C 0.13609 0.37833 0.31132 0.0
C2011 C 0.15286 0.38513 0.32316 0.0
C2012 C 0.13039 0.39466 0.30492 0.0
C2013 C 0.14138 0.41828 0.31064 0.0
C2014 C 0.15809 0.42523 0.3227 0.0
C2015 C 0.1639 0.40867 0.32867 0.0
C2016 C 0.11282 0.38669 0.29188 0.0
C2017 C 0.16994 0.4502 0.32922 0.0
H2018 H 0.15472 0.47655 0.27564 0.0
H2019 H 0.09347 0.45384 0.30466 0.0
H2020 H 0.18494 0.45237 0.29548 0.0
H2021 H 0.16574 0.43027 0.2821 0.0
H2022 H 0.18143 0.46143 0.27711 0.0
H2023 H 0.08536 0.42685 0.32419 0.0
H2024 H 0.09093 0.40325 0.31839 0.0
H2025 H 0.11133 0.42554 0.3313 0.0
H2026 H 0.12753 0.36026 0.30688 0.0
H2027 H 0.17724 0.41428 0.33757 0.0
H2028 H 0.12188 0.39807 0.28209 0.0
H2029 H 0.09699 0.38887 0.29464 0.0
H2030 H 0.10599 0.36773 0.28869 0.0
H2031 H 0.18148 0.46336 0.32072 0.0
H2032 H 0.18146 0.45233 0.33912 0.0
H2033 H 0.15579 0.45463 0.33252 0.0
C2034 C 0.34001 0.45798 0.30754 0.0
C2035 C 0.33866 0.46402 0.29264 0.0
C2036 C 0.3191 0.44145 0.31527 0.0
C2037 C 0.29633 0.42975 0.3078 0.0
C2038 C 0.29465 0.43586 0.2929 0.0
C2039 C 0.3156 0.45332 0.28569 0.0
C2040 C 0.32139 0.43647 0.33143 0.0
C2041 C 0.27086 0.42324 0.28432 0.0
C2042 C 0.24979 0.36674 0.31921 0.0
C2043 C 0.23114 0.3699 0.32506 0.0
C2044 C 0.27133 0.38616 0.31389 0.0
C2045 C 0.27472 0.40952 0.31496 0.0
C2046 C 0.25653 0.41301 0.32169 0.0
C2047 C 0.23458 0.39305 0.32621 0.0
C2048 C 0.28988 0.38148 0.3064 0.0
C2049 C 0.26 0.43772 0.32382 0.0
H2050 H 0.35745 0.46566 0.31319 0.0
H2051 H 0.31377 0.45827 0.27447 0.0
H2052 H 0.31079 0.4423 0.33834 0.0
H2053 H 0.31362 0.41703 0.33325 0.0
H2054 H 0.34059 0.44601 0.33543 0.0
H2055 H 0.27265 0.42987 0.27274 0.0
H2056 H 0.26419 0.40374 0.28385 0.0
H2057 H 0.25677 0.42566 0.29006 0.0
H2058 H 0.24704 0.34881 0.31813 0.0
H2059 H 0.21998 0.39555 0.33032 0.0
H2060 H 0.30784 0.39184 0.31204 0.0
H2061 H 0.29223 0.38749 0.29466 0.0
H2062 H 0.28446 0.36225 0.30649 0.0
H2063 H 0.27765 0.44947 0.32953 0.0
H2064 H 0.24513 0.43749 0.33048 0.0
H2065 H 0.26059 0.44576 0.31284 0.0
C2066 C 0.54471 0.88034 0.30483 0.0
C2067 C 0.53813 0.87362 0.28981 0.0
C2068 C 0.5626 0.8771 0.31203 0.0
C2069 C 0.57513 0.86769 0.30396 0.0
C2070 C 0.56896 0.86114 0.28881 0.0
C2071 C 0.55017 0.86348 0.2821 0.0
C2072 C 0.56737 0.88321 0.32841 0.0
C2073 C 0.58264 0.8522 0.27949 0.0
C2074 C 0.63858 0.88326 0.31732 0.0
C2075 C 0.6348 0.86114 0.32231 0.0
C2076 C 0.61931 0.88567 0.3115 0.0
C2077 C 0.59542 0.86561 0.31103 0.0
C2078 C 0.59133 0.84341 0.31656 0.0
C2079 C 0.61118 0.84126 0.32165 0.0
C2080 C 0.62465 0.90957 0.30548 0.0
C2081 C 0.56601 0.8219 0.31709 0.0
H2082 H 0.53619 0.8885 0.3111 0.0
H2083 H 0.5451 0.85729 0.27073 0.0
H2084 H 0.55541 0.86689 0.33485 0.0
H2085 H 0.5865 0.88938 0.33168 0.0
H2086 H 0.56291 0.89719 0.33168 0.0
H2087 H 0.57674 0.84937 0.26763 0.0
H2088 H 0.60249 0.86524 0.28002 0.0
H2089 H 0.57989 0.83507 0.28395 0.0
H2090 H 0.65686 0.89861 0.31756 0.0
H2091 H 0.60817 0.82394 0.32496 0.0
H2092 H 0.61433 0.91632 0.31187 0.0
H2093 H 0.61857 0.90753 0.29368 0.0
H2094 H 0.64434 0.92316 0.30612 0.0
H2095 H 0.55374 0.8266 0.32318 0.0
H2096 H 0.5657 0.80642 0.32263 0.0
H2097 H 0.55853 0.81638 0.30565 0.0
C2098 C 0.12263 0.65773 0.30211 0.0
C2099 C 0.12406 0.65705 0.28651 0.0
C2100 C 0.12801 0.67891 0.30967 0.0
C2101 C 0.13568 0.70009 0.30148 0.0
C2102 C 0.13775 0.69975 0.2858 0.0
C2103 C 0.13162 0.67818 0.27848 0.0
C2104 C 0.1252 0.67853 0.32639 0.0
C2105 C 0.14629 0.72214 0.27672 0.0
C2106 C 0.12806 0.75043 0.31742 0.0
C2107 C 0.15148 0.76598 0.32301 0.0
C2108 C 0.12251 0.72859 0.31073 0.0
C2109 C 0.14102 0.72255 0.30926 0.0
C2110 C 0.16469 0.73818 0.31497 0.0
C2111 C 0.16956 0.7596 0.32196 0.0
C2112 C 0.09688 0.71206 0.30515 0.0
C2113 C 0.18504 0.7326 0.31333 0.0
H2114 H 0.11736 0.64171 0.30849 0.0
H2115 H 0.13243 0.67787 0.26643 0.0
H2116 H 0.14284 0.69129 0.33175 0.0
H2117 H 0.11199 0.68438 0.32939 0.0
H2118 H 0.11876 0.66049 0.33109 0.0
H2119 H 0.14828 0.71915 0.26473 0.0
H2120 H 0.13312 0.72863 0.27774 0.0
H2121 H 0.1641 0.73654 0.28105 0.0
H2122 H 0.11401 0.75525 0.31836 0.0
H2123 H 0.18773 0.77169 0.32622 0.0
H2124 H 0.08965 0.69409 0.31011 0.0
H2125 H 0.09693 0.70985 0.29289 0.0
H2126 H 0.08432 0.71885 0.30788 0.0
H2127 H 0.17984 0.71516 0.3185 0.0
H2128 H 0.20234 0.74656 0.31853 0.0
H2129 H 0.1883 0.73106 0.30133 0.0
C2130 C 0.78943 0.99188 0.40103 0.0
C2131 C 0.80342 0.01204 0.39217 0.0
C2132 C 0.77224 0.96989 0.39465 0.0
C2133 C 0.76833 0.96808 0.37905 0.0
C2134 C 0.78178 0.98844 0.37006 0.0
C2135 C 0.79936 0.01005 0.37669 0.0
C2136 C 0.75857 0.94846 0.40458 0.0
C2137 C 0.7778 0.9873 0.3534 0.0
C2138 C 0.74237 0.90734 0.36021 0.0
C2139 C 0.7176 0.90023 0.35894 0.0
C2140 C 0.75901 0.92926 0.36686 0.0
C2141 C 0.75076 0.94468 0.3721 0.0
C2142 C 0.72577 0.93767 0.37075 0.0
C2143 C 0.7094 0.91535 0.36433 0.0
C2144 C 0.78538 0.93581 0.36834 0.0
C2145 C 0.71641 0.9539 0.37586 0.0
H2146 H 0.79187 0.99321 0.41302 0.0
H2147 H 0.81022 0.02528 0.36965 0.0
H2148 H 0.73867 0.94132 0.4035 0.0
H2149 H 0.76215 0.934 0.40106 0.0
H2150 H 0.76385 0.95279 0.4165 0.0
H2151 H 0.7886 0.00507 0.34811 0.0
H2152 H 0.78297 0.97482 0.34825 0.0
H2153 H 0.75822 0.98026 0.35085 0.0
H2154 H 0.74877 0.89563 0.35612 0.0
H2155 H 0.6903 0.90999 0.36323 0.0
H2156 H 0.79115 0.9394 0.38021 0.0
H2157 H 0.79713 0.95242 0.3621 0.0
H2158 H 0.78865 0.92147 0.36408 0.0
H2159 H 0.71997 0.95774 0.38796 0.0
H2160 H 0.69656 0.94599 0.37376 0.0
H2161 H 0.72626 0.97126 0.37001 0.0
C2162 C 0.02211 0.80887 0.39508 0.0
C2163 C 0.99933 0.79709 0.38774 0.0
C2164 C 0.04327 0.81122 0.38842 0.0
C2165 C 0.0422 0.80278 0.37368 0.0
C2166 C 0.01964 0.79177 0.36593 0.0
C2167 C 0.99854 0.78869 0.3731 0.0
C2168 C 0.06669 0.82219 0.39738 0.0
C2169 C 0.01768 0.78368 0.34991 0.0
C2170 C 0.10424 0.82753 0.3551 0.0
C2171 C 0.10825 0.80809 0.35604 0.0
C2172 C 0.08225 0.82565 0.35996 0.0
C2173 C 0.06444 0.80431 0.36681 0.0
C2174 C 0.06849 0.78469 0.36785 0.0
C2175 C 0.09014 0.78672 0.36228 0.0
C2176 C 0.07817 0.84655 0.35787 0.0
C2177 C 0.05027 0.76174 0.37528 0.0
H2178 H 0.02364 0.8163 0.40613 0.0
H2179 H 0.98136 0.77928 0.36715 0.0
H2180 H 0.07358 0.80945 0.39799 0.0
H2181 H 0.08087 0.83853 0.39184 0.0
H2182 H 0.06431 0.82703 0.40891 0.0
H2183 H 0.99861 0.77048 0.34671 0.0
H2184 H 0.02393 0.79951 0.34268 0.0
H2185 H 0.02932 0.77572 0.34764 0.0
H2186 H 0.11839 0.84434 0.35078 0.0
H2187 H 0.09329 0.77176 0.36326 0.0
H2188 H 0.07671 0.85368 0.36885 0.0
H2189 H 0.06073 0.84054 0.35182 0.0
H2190 H 0.09314 0.86127 0.35153 0.0
H2191 H 0.04714 0.76555 0.3869 0.0
H2192 H 0.05641 0.74837 0.37554 0.0
H2193 H 0.03253 0.75376 0.3693 0.0
C2194 C 0.19577 0.20373 0.39377 0.0
C2195 C 0.21547 0.20139 0.38881 0.0
C2196 C 0.18952 0.21923 0.38673 0.0
C2197 C 0.203 0.2324 0.37424 0.0
C2198 C 0.22243 0.22965 0.36888 0.0
C2199 C 0.22858 0.21433 0.37631 0.0
C2200 C 0.16882 0.22189 0.39285 0.0
C2201 C 0.23701 0.24322 0.35547 0.0
C2202 C 0.17413 0.25935 0.34981 0.0
C2203 C 0.18627 0.28323 0.35474 0.0
C2204 C 0.17978 0.24269 0.35579 0.0
C2205 C 0.19751 0.24995 0.36726 0.0
C2206 C 0.20965 0.27394 0.3724 0.0
C2207 C 0.20403 0.29032 0.36601 0.0
C2208 C 0.16666 0.21731 0.3499 0.0
C2209 C 0.22837 0.28225 0.38482 0.0
H2210 H 0.18518 0.19341 0.4032 0.0
H2211 H 0.24398 0.21287 0.37248 0.0
H2212 H 0.17573 0.24068 0.39646 0.0
H2213 H 0.1549 0.21774 0.38404 0.0
H2214 H 0.15987 0.21002 0.40248 0.0
H2215 H 0.25041 0.2378 0.35208 0.0
H2216 H 0.22466 0.24029 0.34591 0.0
H2217 H 0.247 0.26268 0.35799 0.0
H2218 H 0.16002 0.25354 0.34136 0.0
H2219 H 0.21345 0.30868 0.36999 0.0
H2220 H 0.15578 0.20489 0.3589 0.0
H2221 H 0.18006 0.21212 0.34616 0.0
H2222 H 0.15428 0.21488 0.34042 0.0
H2223 H 0.21995 0.27176 0.39502 0.0
H2224 H 0.23615 0.30154 0.38753 0.0
H2225 H 0.24346 0.27913 0.38167 0.0
C2226 C 0.6894 0.55684 0.72764 0.0
C2227 C 0.66885 0.53968 0.7198 0.0
C2228 C 0.71024 0.57376 0.72009 0.0
C2229 C 0.7103 0.57391 0.70429 0.0
C2230 C 0.6896 0.55646 0.69632 0.0
C2231 C 0.6692 0.53934 0.70419 0.0
C2232 C 0.73211 0.5917 0.72904 0.0
C2233 C 0.68877 0.55628 0.67952 0.0
C2234 C 0.75553 0.63514 0.68953 0.0
C2235 C 0.77554 0.63236 0.68625 0.0
C2236 C 0.73346 0.6157 0.69431 0.0
C2237 C 0.73168 0.59314 0.69633 0.0
C2238 C 0.75153 0.59002 0.69235 0.0
C2239 C 0.77326 0.60971 0.68737 0.0
C2240 C 0.71253 0.61967 0.69799 0.0
C2241 C 0.75055 0.56637 0.69436 0.0
H2242 H 0.68917 0.55692 0.73972 0.0
H2243 H 0.65321 0.52609 0.69814 0.0
H2244 H 0.74866 0.59136 0.72542 0.0
H2245 H 0.73534 0.60999 0.72706 0.0
H2246 H 0.72972 0.58817 0.7412 0.0
H2247 H 0.67153 0.54125 0.67497 0.0
H2248 H 0.69065 0.57335 0.67554 0.0
H2249 H 0.70426 0.5549 0.67496 0.0
H2250 H 0.75736 0.65271 0.6887 0.0
H2251 H 0.78885 0.6076 0.68512 0.0
H2252 H 0.71008 0.61915 0.71024 0.0
H2253 H 0.69532 0.60525 0.69302 0.0
H2254 H 0.71564 0.63718 0.69391 0.0
H2255 H 0.75177 0.56337 0.70642 0.0
H2256 H 0.76575 0.56586 0.68856 0.0
H2257 H 0.73305 0.5514 0.69012 0.0
C2258 C 0.47029 0.13783 0.70685 0.0
C2259 C 0.46959 0.13545 0.72239 0.0
C2260 C 0.45232 0.14032 0.69915 0.0
C2261 C 0.43345 0.14097 0.7072 0.0
C2262 C 0.43314 0.13932 0.72296 0.0
C2263 C 0.45104 0.13633 0.73033 0.0
C2264 C 0.45322 0.14172 0.6824 0.0
C2265 C 0.41368 0.14038 0.73203 0.0
C2266 C 0.39501 0.1655 0.69058 0.0
C2267 C 0.37288 0.14446 0.68769 0.0
C2268 C 0.41529 0.1647 0.69627 0.0
C2269 C 0.41336 0.14229 0.69925 0.0
C2270 C 0.39133 0.12099 0.69575 0.0
C2271 C 0.3713 0.12235 0.69019 0.0
C2272 C 0.43832 0.18788 0.69981 0.0
C2273 C 0.38859 0.09672 0.6984 0.0
H2274 H 0.48451 0.13699 0.70067 0.0
H2275 H 0.45057 0.13473 0.74236 0.0
H2276 H 0.43595 0.12716 0.67757 0.0
H2277 H 0.45508 0.15895 0.67884 0.0
H2278 H 0.46864 0.14025 0.67774 0.0
H2279 H 0.41679 0.14022 0.74421 0.0
H2280 H 0.41307 0.15682 0.72934 0.0
H2281 H 0.39557 0.12487 0.72918 0.0
H2282 H 0.39624 0.18266 0.68897 0.0
H2283 H 0.35416 0.10607 0.68803 0.0
H2284 H 0.45443 0.18765 0.69525 0.0
H2285 H 0.44078 0.1901 0.71208 0.0
H2286 H 0.43784 0.20361 0.69525 0.0
H2287 H 0.40398 0.09569 0.69331 0.0
H2288 H 0.37123 0.082 0.69374 0.0
H2289 H 0.38908 0.09387 0.71054 0.0
C2290 C 0.89095 0.34232 0.71398 0.0
C2291 C 0.87716 0.34186 0.72627 0.0
C2292 C 0.8855 0.3212 0.70635 0.0
C2293 C 0.86609 0.29913 0.71133 0.0
C2294 C 0.85205 0.29859 0.72372 0.0
C2295 C 0.85763 0.32006 0.73097 0.0
C2296 C 0.90057 0.32249 0.69301 0.0
C2297 C 0.83149 0.27532 0.7295 0.0
C2298 C 0.83883 0.24507 0.68548 0.0
C2299 C 0.85126 0.23328 0.69002 0.0
C2300 C 0.84376 0.26675 0.69214 0.0
C2301 C 0.86102 0.2765 0.7039 0.0
C2302 C 0.8734 0.26457 0.70867 0.0
C2303 C 0.86855 0.24323 0.70158 0.0
C2304 C 0.83046 0.27917 0.6866 0.0
C2305 C 0.89164 0.27423 0.72136 0.0
H2306 H 0.90589 0.35928 0.71027 0.0
H2307 H 0.84709 0.31977 0.74054 0.0
H2308 H 0.91025 0.3125 0.69527 0.0
H2309 H 0.88856 0.3139 0.68319 0.0
H2310 H 0.91427 0.34118 0.69015 0.0
H2311 H 0.82216 0.27805 0.73914 0.0
H2312 H 0.81785 0.26577 0.72054 0.0
H2313 H 0.83865 0.26354 0.73299 0.0
H2314 H 0.8251 0.23733 0.67679 0.0
H2315 H 0.87818 0.23425 0.70525 0.0
H2316 H 0.84375 0.29774 0.68331 0.0
H2317 H 0.81922 0.2803 0.69567 0.0
H2318 H 0.8184 0.26974 0.67691 0.0
H2319 H 0.90683 0.29228 0.7186 0.0
H2320 H 0.89934 0.26251 0.7239 0.0
H2321 H 0.88284 0.2761 0.73155 0.0
C2322 C 0.20609 0.01323 0.61105 0.0
C2323 C 0.20266 0.99175 0.61698 0.0
C2324 C 0.22316 0.03536 0.61736 0.0
C2325 C 0.23672 0.03596 0.63011 0.0
C2326 C 0.23323 0.01428 0.63616 0.0
C2327 C 0.21642 0.99244 0.62942 0.0
C2328 C 0.22666 0.0581 0.61043 0.0
C2329 C 0.24695 0.01414 0.64991 0.0
C2330 C 0.2951 0.09307 0.64084 0.0
C2331 C 0.28678 0.1028 0.65182 0.0
C2332 C 0.27895 0.07152 0.6335 0.0
C2333 C 0.25398 0.05921 0.6374 0.0
C2334 C 0.24547 0.06901 0.64839 0.0
C2335 C 0.26187 0.09082 0.65527 0.0
C2336 C 0.28861 0.06191 0.62159 0.0
C2337 C 0.21907 0.05634 0.65303 0.0
H2338 H 0.19559 0.01269 0.60134 0.0
H2339 H 0.21362 0.97581 0.63408 0.0
H2340 H 0.22166 0.06796 0.61851 0.0
H2341 H 0.24612 0.06996 0.6076 0.0
H2342 H 0.21548 0.05459 0.60016 0.0
H2343 H 0.24219 0.99576 0.6532 0.0
H2344 H 0.26686 0.02471 0.64797 0.0
H2345 H 0.24285 0.02272 0.65936 0.0
H2346 H 0.31424 0.10226 0.63796 0.0
H2347 H 0.25504 0.09845 0.66337 0.0
H2348 H 0.27835 0.05917 0.61102 0.0
H2349 H 0.28589 0.04424 0.62494 0.0
H2350 H 0.3083 0.07408 0.61945 0.0
H2351 H 0.20716 0.05356 0.64325 0.0
H2352 H 0.21537 0.06645 0.6617 0.0
H2353 H 0.21389 0.03843 0.65745 0.0
C2354 C 0.98466 0.20122 0.61629 0.0
C2355 C 0.00471 0.20379 0.62449 0.0
C2356 C 0.96343 0.19773 0.62344 0.0
C2357 C 0.96235 0.19736 0.63923 0.0
C2358 C 0.98256 0.19988 0.64755 0.0
C2359 C 0.00336 0.20278 0.64009 0.0
C2360 C 0.94218 0.19464 0.61408 0.0
C2361 C 0.98241 0.19999 0.66435 0.0
C2362 C 0.91674 0.21392 0.65452 0.0
C2363 C 0.89663 0.19148 0.65761 0.0
C2364 C 0.93872 0.21616 0.64939 0.0
C2365 C 0.94045 0.19537 0.64688 0.0
C2366 C 0.92042 0.17268 0.6505 0.0
C2367 C 0.89875 0.17102 0.65581 0.0
C2368 C 0.95977 0.24075 0.6461 0.0
C2369 C 0.9213 0.15001 0.64798 0.0
H2370 H 0.98554 0.20173 0.60422 0.0
H2371 H 0.01888 0.20488 0.64647 0.0
H2372 H 0.9254 0.17791 0.61717 0.0
H2373 H 0.93883 0.20968 0.61625 0.0
H2374 H 0.94535 0.19398 0.60196 0.0
H2375 H 0.99975 0.20267 0.66921 0.0
H2376 H 0.97929 0.21446 0.66848 0.0
H2377 H 0.96726 0.18281 0.66842 0.0
H2378 H 0.91509 0.22975 0.65584 0.0
H2379 H 0.88313 0.15359 0.6579 0.0
H2380 H 0.96281 0.24274 0.6339 0.0
H2381 H 0.97675 0.2432 0.65136 0.0
H2382 H 0.95646 0.25516 0.65016 0.0
H2383 H 0.92135 0.14674 0.63583 0.0
H2384 H 0.90545 0.13422 0.65299 0.0
H2385 H 0.93827 0.15174 0.65275 0.0
C2386 C 0.78304 0.79106 0.63342 0.0
C2387 C 0.79692 0.80356 0.62106 0.0
C2388 C 0.78855 0.77579 0.64146 0.0
C2389 C 0.8081 0.77266 0.63682 0.0
C2390 C 0.82242 0.78556 0.62448 0.0
C2391 C 0.81676 0.80102 0.61681 0.0
C2392 C 0.77314 0.76263 0.65471 0.0
C2393 C 0.84316 0.78237 0.61905 0.0
C2394 C 0.83385 0.74379 0.66228 0.0
C2395 C 0.8214 0.72002 0.65714 0.0
C2396 C 0.82932 0.76108 0.65604 0.0
C2397 C 0.81241 0.75454 0.64412 0.0
C2398 C 0.79984 0.73062 0.63887 0.0
C2399 C 0.8043 0.71364 0.64552 0.0
C2400 C 0.84281 0.78635 0.66208 0.0
C2401 C 0.78193 0.72301 0.62602 0.0
H2402 H 0.7679 0.7933 0.63682 0.0
H2403 H 0.8274 0.81061 0.6072 0.0
H2404 H 0.76287 0.74314 0.65229 0.0
H2405 H 0.78493 0.76542 0.66456 0.0
H2406 H 0.75992 0.76852 0.65759 0.0
H2407 H 0.85323 0.79457 0.60974 0.0
H2408 H 0.85617 0.78566 0.62829 0.0
H2409 H 0.83596 0.76366 0.61517 0.0
H2410 H 0.84735 0.74902 0.67107 0.0
H2411 H 0.79457 0.69538 0.6414 0.0
H2412 H 0.82971 0.79231 0.66511 0.0
H2413 H 0.85491 0.79861 0.65337 0.0
H2414 H 0.85406 0.78812 0.67204 0.0
H2415 H 0.76702 0.72662 0.62876 0.0
H2416 H 0.77378 0.70371 0.62322 0.0
H2417 H 0.79119 0.73356 0.61598 0.0
C2418 C 0.00625 0.79113 0.63953 0.0
C2419 C 0.00468 0.79757 0.62477 0.0
C2420 C 0.98549 0.7742 0.64721 0.0
C2421 C 0.96262 0.76263 0.63985 0.0
C2422 C 0.96073 0.76915 0.62508 0.0
C2423 C 0.98157 0.78686 0.61789 0.0
C2424 C 0.98805 0.76872 0.66323 0.0
C2425 C 0.93681 0.7568 0.61664 0.0
C2426 C 0.91572 0.69942 0.65085 0.0
C2427 C 0.89745 0.70271 0.65722 0.0
C2428 C 0.93729 0.71886 0.64553 0.0
C2429 C 0.94103 0.74231 0.647 0.0
C2430 C 0.92322 0.74588 0.6542 0.0
C2431 C 0.90131 0.72596 0.65881 0.0
C2432 C 0.95552 0.71413 0.63767 0.0
C2433 C 0.927 0.77064 0.65668 0.0
H2434 H 0.02378 0.79885 0.64509 0.0
H2435 H 0.97964 0.79206 0.60676 0.0
H2436 H 0.97822 0.77506 0.67045 0.0
H2437 H 0.97966 0.74918 0.6649 0.0
H2438 H 0.00738 0.77759 0.66696 0.0
H2439 H 0.9384 0.76382 0.60518 0.0
H2440 H 0.93015 0.73732 0.61586 0.0
H2441 H 0.92281 0.759 0.62267 0.0
H2442 H 0.91266 0.68143 0.64944 0.0
H2443 H 0.88702 0.7286 0.66333 0.0
H2444 H 0.97364 0.72434 0.64315 0.0
H2445 H 0.9576 0.72032 0.62597 0.0
H2446 H 0.94997 0.69487 0.63758 0.0
H2447 H 0.94496 0.78226 0.66209 0.0
H2448 H 0.91256 0.77046 0.66376 0.0
H2449 H 0.92706 0.77879 0.64584 0.0
C2450 C 0.20258 0.20019 0.63933 0.0
C2451 C 0.20245 0.20193 0.62373 0.0
C2452 C 0.22072 0.19771 0.64682 0.0
C2453 C 0.23901 0.19637 0.63856 0.0
C2454 C 0.23866 0.19749 0.6228 0.0
C2455 C 0.2206 0.20047 0.61561 0.0
C2456 C 0.22037 0.19666 0.6636 0.0
C2457 C 0.25764 0.19592 0.61351 0.0
C2458 C 0.30132 0.21428 0.6551 0.0
C2459 C 0.29937 0.19204 0.65773 0.0
C2460 C 0.28143 0.21594 0.64958 0.0
C2461 C 0.25913 0.1948 0.6463 0.0
C2462 C 0.25683 0.17227 0.64941 0.0
C2463 C 0.27701 0.17117 0.65502 0.0
C2464 C 0.28457 0.24034 0.64678 0.0
C2465 C 0.23347 0.14925 0.64616 0.0
H2466 H 0.18843 0.20071 0.64577 0.0
H2467 H 0.22106 0.20214 0.6036 0.0
H2468 H 0.21704 0.17888 0.66716 0.0
H2469 H 0.23831 0.21032 0.66822 0.0
H2470 H 0.20602 0.19967 0.66846 0.0
H2471 H 0.2541 0.19575 0.60136 0.0
H2472 H 0.27593 0.21138 0.61607 0.0
H2473 H 0.25815 0.17946 0.61629 0.0
H2474 H 0.31863 0.23044 0.65711 0.0
H2475 H 0.27549 0.15391 0.65674 0.0
H2476 H 0.26964 0.24187 0.65212 0.0
H2477 H 0.28355 0.24284 0.63463 0.0
H2478 H 0.30229 0.25497 0.65109 0.0
H2479 H 0.21771 0.14984 0.651 0.0
H2480 H 0.23382 0.13342 0.65064 0.0
H2481 H 0.23048 0.14692 0.63393 0.0
C2482 C 0.81268 0.01405 0.61331 0.0
C2483 C 0.79395 0.99199 0.61845 0.0
C2484 C 0.818 0.03555 0.62041 0.0
C2485 C 0.80461 0.03495 0.63315 0.0
C2486 C 0.78592 0.0128 0.63852 0.0
C2487 C 0.78063 0.99162 0.63102 0.0
C2488 C 0.83784 0.05891 0.61424 0.0
C2489 C 0.77143 0.01147 0.65218 0.0
C2490 C 0.83267 0.08922 0.65883 0.0
C2491 C 0.81958 0.10059 0.65484 0.0
C2492 C 0.82773 0.06763 0.65203 0.0
C2493 C 0.80978 0.05755 0.64066 0.0
C2494 C 0.79675 0.0691 0.63642 0.0
C2495 C 0.80164 0.09034 0.64365 0.0
C2496 C 0.84174 0.05563 0.65702 0.0
C2497 C 0.77779 0.05912 0.62413 0.0
H2498 H 0.82337 0.01454 0.60378 0.0
H2499 H 0.76583 0.97477 0.63493 0.0
H2500 H 0.83025 0.07059 0.61137 0.0
H2501 H 0.85225 0.06853 0.62279 0.0
H2502 H 0.84635 0.05631 0.60413 0.0
H2503 H 0.75825 0.99275 0.65532 0.0
H2504 H 0.78391 0.0205 0.66175 0.0
H2505 H 0.76122 0.021 0.65015 0.0
H2506 H 0.84693 0.09722 0.66719 0.0
H2507 H 0.7915 0.09901 0.64039 0.0
H2508 H 0.85237 0.05445 0.64759 0.0
H2509 H 0.8289 0.03708 0.6606 0.0
H2510 H 0.85448 0.06537 0.66639 0.0
H2511 H 0.78609 0.05738 0.61367 0.0
H2512 H 0.76964 0.07056 0.62196 0.0
H2513 H 0.76299 0.04097 0.62709 0.0
C2514 C 0.4567 0.34304 0.7166 0.0
C2515 C 0.47128 0.34344 0.72856 0.0
C2516 C 0.4393 0.32141 0.7099 0.0
C2517 C 0.4358 0.29952 0.71555 0.0
C2518 C 0.44985 0.29966 0.72788 0.0
C2519 C 0.46763 0.32157 0.73408 0.0
C2520 C 0.42499 0.32202 0.69659 0.0
C2521 C 0.44637 0.27665 0.73438 0.0
C2522 C 0.37715 0.24268 0.70481 0.0
C2523 C 0.38526 0.23319 0.69355 0.0
C2524 C 0.39344 0.26408 0.71224 0.0
C2525 C 0.4183 0.27653 0.7081 0.0
C2526 C 0.42658 0.267 0.6968 0.0
C2527 C 0.41008 0.24529 0.68989 0.0
C2528 C 0.38409 0.27333 0.72455 0.0
C2529 C 0.45285 0.27986 0.69188 0.0
H2530 H 0.45883 0.35967 0.71242 0.0
H2531 H 0.47896 0.32148 0.7431 0.0
H2532 H 0.42842 0.31348 0.68684 0.0
H2533 H 0.40519 0.31164 0.6989 0.0
H2534 H 0.42985 0.34052 0.69356 0.0
H2535 H 0.45731 0.27975 0.74471 0.0
H2536 H 0.42687 0.26449 0.73697 0.0
H2537 H 0.45176 0.26733 0.72612 0.0
H2538 H 0.35809 0.23336 0.70788 0.0
H2539 H 0.41678 0.23782 0.6816 0.0
H2540 H 0.38684 0.29115 0.72159 0.0
H2541 H 0.39454 0.27561 0.73498 0.0
H2542 H 0.36443 0.26114 0.72677 0.0
H2543 H 0.45787 0.2979 0.68774 0.0
H2544 H 0.45633 0.27003 0.68291 0.0
H2545 H 0.46504 0.28238 0.70145 0.0
C2546 C 0.66475 0.12215 0.7052 0.0
C2547 C 0.66552 0.12984 0.72003 0.0
C2548 C 0.68591 0.12573 0.69786 0.0
C2549 C 0.70846 0.13649 0.70561 0.0
C2550 C 0.70952 0.14437 0.7205 0.0
C2551 C 0.68831 0.14152 0.72735 0.0
C2552 C 0.6841 0.1183 0.68171 0.0
C2553 C 0.73299 0.1552 0.7294 0.0
C2554 C 0.75623 0.12038 0.69405 0.0
C2555 C 0.77452 0.14187 0.68805 0.0
C2556 C 0.73454 0.11831 0.69954 0.0
C2557 C 0.73061 0.13802 0.69863 0.0
C2558 C 0.74857 0.15946 0.69194 0.0
C2559 C 0.77062 0.16137 0.68717 0.0
C2560 C 0.71621 0.09527 0.70685 0.0
C2561 C 0.74463 0.18046 0.68999 0.0
H2562 H 0.64755 0.11289 0.69926 0.0
H2563 H 0.68978 0.14845 0.73854 0.0
H2564 H 0.6926 0.13462 0.67478 0.0
H2565 H 0.69409 0.10856 0.67963 0.0
H2566 H 0.6649 0.10687 0.67796 0.0
H2567 H 0.7307 0.15991 0.74098 0.0
H2568 H 0.73982 0.14239 0.72988 0.0
H2569 H 0.74718 0.17157 0.7239 0.0
H2570 H 0.75928 0.10534 0.69494 0.0
H2571 H 0.78491 0.17825 0.68298 0.0
H2572 H 0.69839 0.08758 0.70098 0.0
H2573 H 0.71332 0.09889 0.71855 0.0
H2574 H 0.72212 0.08172 0.70683 0.0
H2575 H 0.72709 0.1746 0.6841 0.0
H2576 H 0.75952 0.19512 0.68358 0.0
H2577 H 0.74347 0.18763 0.70103 0.0
C2578 C 0.8595 0.53544 0.72668 0.0
C2579 C 0.87827 0.53188 0.72137 0.0
C2580 C 0.85352 0.55104 0.71949 0.0
C2581 C 0.86631 0.56306 0.70652 0.0
C2582 C 0.8847 0.55897 0.7008 0.0
C2583 C 0.89061 0.5436 0.70837 0.0
C2584 C 0.83395 0.55515 0.72599 0.0
C2585 C 0.89854 0.57131 0.6869 0.0
C2586 C 0.83839 0.59141 0.68247 0.0
C2587 C 0.85192 0.61545 0.68699 0.0
C2588 C 0.8432 0.57418 0.68848 0.0
C2589 C 0.86155 0.58109 0.69953 0.0
C2590 C 0.87517 0.60527 0.7042 0.0
C2591 C 0.87033 0.62218 0.69779 0.0
C2592 C 0.82853 0.54859 0.68309 0.0
C2593 C 0.89464 0.61327 0.71613 0.0
H2594 H 0.8495 0.52609 0.73652 0.0
H2595 H 0.90533 0.54123 0.70427 0.0
H2596 H 0.84196 0.57419 0.72938 0.0
H2597 H 0.8197 0.55136 0.71749 0.0
H2598 H 0.82516 0.54381 0.73586 0.0
H2599 H 0.91084 0.56468 0.68322 0.0
H2600 H 0.88566 0.56858 0.67769 0.0
H2601 H 0.90966 0.59085 0.689 0.0
H2602 H 0.82381 0.58592 0.67438 0.0
H2603 H 0.88086 0.64066 0.70142 0.0
H2604 H 0.81769 0.53695 0.6924 0.0
H2605 H 0.84089 0.54216 0.67923 0.0
H2606 H 0.8159 0.54644 0.67382 0.0
H2607 H 0.88656 0.60345 0.72659 0.0
H2608 H 0.90352 0.63276 0.71853 0.0
H2609 H 0.90885 0.60903 0.71267 0.0
C2610 C 0.49965 0.95456 0.1728 0.0
C2611 C 0.47565 0.94453 0.17796 0.0
C2612 C 0.50632 0.96549 0.15877 0.0
C2613 C 0.48853 0.96622 0.14954 0.0
C2614 C 0.46418 0.9558 0.15459 0.0
C2615 C 0.45808 0.94524 0.16876 0.0
C2616 C 0.53255 0.97665 0.15394 0.0
C2617 C 0.44458 0.95589 0.14503 0.0
C2618 C 0.51123 0.01516 0.12031 0.0
C2619 C 0.51191 0.00311 0.10738 0.0
C2620 C 0.50341 0.00332 0.134 0.0
C2621 C 0.49568 0.97865 0.13485 0.0
C2622 C 0.49558 0.96617 0.12178 0.0
C2623 C 0.50379 0.97854 0.10825 0.0
C2624 C 0.50389 0.01738 0.14764 0.0
C2625 C 0.48726 0.93982 0.12215 0.0
H2626 H 0.5134 0.95433 0.1799 0.0
H2627 H 0.43944 0.93729 0.1726 0.0
H2628 H 0.53365 0.9687 0.14318 0.0
H2629 H 0.54019 0.99608 0.15215 0.0
H2630 H 0.54408 0.9742 0.16229 0.0
H2631 H 0.42636 0.94625 0.15031 0.0
H2632 H 0.44913 0.97457 0.1429 0.0
H2633 H 0.4436 0.94743 0.13405 0.0
H2634 H 0.51692 0.03399 0.11977 0.0
H2635 H 0.50443 0.96903 0.09842 0.0
H2636 H 0.51632 0.01685 0.15618 0.0
H2637 H 0.48548 0.00918 0.15262 0.0
H2638 H 0.51006 0.03636 0.14509 0.0
H2639 H 0.49969 0.9368 0.12938 0.0
H2640 H 0.48684 0.93237 0.11089 0.0
H2641 H 0.46878 0.92974 0.12703 0.0
C2642 C 0.05007 0.51378 0.16563 0.0
C2643 C 0.0382 0.51658 0.17795 0.0
C2644 C 0.03899 0.50835 0.15148 0.0
C2645 C 0.01582 0.50629 0.14962 0.0
C2646 C 0.00391 0.50938 0.16205 0.0
C2647 C 0.01515 0.5142 0.17613 0.0
C2648 C 0.05199 0.50464 0.13856 0.0
C2649 C 0.97944 0.50784 0.16044 0.0
C2650 C 0.99769 0.51446 0.11067 0.0
C2651 C 0.98119 0.49082 0.10647 0.0
C2652 C 0.00897 0.51979 0.12475 0.0
C2653 C 0.004 0.50094 0.13467 0.0
C2654 C 0.9876 0.47698 0.13035 0.0
C2655 C 0.97614 0.47223 0.11634 0.0
C2656 C 0.02595 0.54559 0.12909 0.0
C2657 C 0.98228 0.45637 0.14048 0.0
H2658 H 0.06786 0.51551 0.16713 0.0
H2659 H 0.00614 0.51658 0.18569 0.0
H2660 H 0.04027 0.48668 0.13351 0.0
H2661 H 0.05557 0.518 0.12979 0.0
H2662 H 0.06959 0.5062 0.14198 0.0
H2663 H 0.97291 0.51123 0.17116 0.0
H2664 H 0.98063 0.52107 0.15217 0.0
H2665 H 0.9657 0.48987 0.15622 0.0
H2666 H 1.00143 0.5288 0.10301 0.0
H2667 H 0.96351 0.45393 0.11297 0.0
H2668 H 0.04438 0.54845 0.13158 0.0
H2669 H 0.01933 0.55006 0.13937 0.0
H2670 H 0.02753 0.55815 0.12018 0.0
H2671 H 0.9995 0.45682 0.1435 0.0
H2672 H 0.96967 0.43876 0.13524 0.0
H2673 H 0.97404 0.45801 0.15099 0.0
C2674 C 0.4716 0.52743 0.167 0.0
C2675 C 0.47509 0.51626 0.17935 0.0
C2676 C 0.47885 0.52469 0.15269 0.0
C2677 C 0.48941 0.51006 0.15064 0.0
C2678 C 0.4923 0.49818 0.16302 0.0
C2679 C 0.48533 0.50162 0.17725 0.0
C2680 C 0.47585 0.53799 0.13983 0.0
C2681 C 0.50306 0.48208 0.16127 0.0
C2682 C 0.49147 0.48799 0.1115 0.0
C2683 C 0.51591 0.50317 0.1077 0.0
C2684 C 0.48255 0.48999 0.12544 0.0
C2685 C 0.49836 0.50791 0.13568 0.0
C2686 C 0.52293 0.5236 0.13174 0.0
C2687 C 0.53146 0.52089 0.11786 0.0
C2688 C 0.45636 0.47267 0.12932 0.0
C2689 C 0.54025 0.54325 0.1422 0.0
H2690 H 0.46389 0.53894 0.16864 0.0
H2691 H 0.48785 0.49282 0.18678 0.0
H2692 H 0.49398 0.55073 0.1352 0.0
H2693 H 0.46505 0.52532 0.13075 0.0
H2694 H 0.4667 0.54812 0.1432 0.0
H2695 H 0.50271 0.47303 0.17183 0.0
H2696 H 0.49287 0.46824 0.1526 0.0
H2697 H 0.52222 0.49267 0.15753 0.0
H2698 H 0.47947 0.47418 0.10368 0.0
H2699 H 0.5503 0.5328 0.11486 0.0
H2700 H 0.44673 0.48256 0.13205 0.0
H2701 H 0.45565 0.46241 0.13936 0.0
H2702 H 0.4464 0.45986 0.12009 0.0
H2703 H 0.53266 0.55486 0.14531 0.0
H2704 H 0.55851 0.55453 0.13722 0.0
H2705 H 0.54247 0.53538 0.15263 0.0
C2706 C 0.99465 0.49082 0.83465 0.0
C2707 C 0.97109 0.48727 0.83255 0.0
C2708 C 0.0055 0.49561 0.84885 0.0
C2709 C 0.99278 0.49755 0.86121 0.0
C2710 C 0.96923 0.49445 0.85918 0.0
C2711 C 0.95855 0.48904 0.84493 0.0
C2712 C 0.03051 0.49843 0.85063 0.0
C2713 C 0.95528 0.49681 0.87206 0.0
C2714 C 0.01025 0.48893 0.90023 0.0
C2715 C 0.02569 0.51261 0.90484 0.0
C2716 C 0.99962 0.48374 0.88596 0.0
C2717 C 0.0041 0.50275 0.8763 0.0
C2718 C 0.01942 0.52673 0.88103 0.0
C2719 C 0.0303 0.53136 0.89521 0.0
C2720 C 0.98382 0.45795 0.88118 0.0
C2721 C 0.02413 0.54746 0.87119 0.0
H2722 H 0.00476 0.48999 0.82518 0.0
H2723 H 0.94018 0.48588 0.84356 0.0
H2724 H 0.0435 0.51658 0.85497 0.0
H2725 H 0.0299 0.48542 0.85889 0.0
H2726 H 0.03764 0.49564 0.83997 0.0
H2727 H 0.93761 0.49496 0.86849 0.0
H2728 H 0.95164 0.48294 0.88048 0.0
H2729 H 0.96632 0.51447 0.87763 0.0
H2730 H 0.00687 0.47449 0.90771 0.0
H2731 H 0.04212 0.54967 0.89891 0.0
H2732 H 0.99125 0.45443 0.8709 0.0
H2733 H 0.96516 0.45427 0.87849 0.0
H2734 H 0.98259 0.4453 0.88992 0.0
H2735 H 0.03295 0.54667 0.86071 0.0
H2736 H 0.036 0.56503 0.8767 0.0
H2737 H 0.00661 0.5463 0.86808 0.0
C2738 C 0.54524 0.50578 0.83999 0.0
C2739 C 0.53736 0.48239 0.83491 0.0
C2740 C 0.53765 0.51008 0.85379 0.0
C2741 C 0.52233 0.49057 0.86297 0.0
C2742 C 0.51491 0.46698 0.85817 0.0
C2743 C 0.5222 0.46316 0.84415 0.0
C2744 C 0.54565 0.5355 0.85841 0.0
C2745 C 0.49897 0.44571 0.86777 0.0
C2746 C 0.51885 0.5038 0.904 0.0
C2747 C 0.49648 0.50339 0.90462 0.0
C2748 C 0.52729 0.49925 0.8906 0.0
C2749 C 0.51339 0.4948 0.87737 0.0
C2750 C 0.49091 0.49448 0.87786 0.0
C2751 C 0.48259 0.49843 0.89148 0.0
C2752 C 0.55111 0.49924 0.8906 0.0
C2753 C 0.47571 0.49015 0.86396 0.0
H2754 H 0.55734 0.52085 0.83319 0.0
H2755 H 0.51554 0.44497 0.84033 0.0
H2756 H 0.52943 0.53751 0.86011 0.0
H2757 H 0.55568 0.53984 0.86917 0.0
H2758 H 0.55755 0.54869 0.84999 0.0
H2759 H 0.49631 0.42869 0.86293 0.0
H2760 H 0.50715 0.44817 0.87906 0.0
H2761 H 0.48086 0.44417 0.86913 0.0
H2762 H 0.53003 0.50802 0.91395 0.0
H2763 H 0.46506 0.49751 0.8918 0.0
H2764 H 0.56439 0.51365 0.88332 0.0
H2765 H 0.54829 0.48204 0.886 0.0
H2766 H 0.55918 0.50191 0.90195 0.0
H2767 H 0.48663 0.50354 0.85539 0.0
H2768 H 0.45902 0.49121 0.86614 0.0
H2769 H 0.47019 0.47224 0.85921 0.0
C2770 C 0.53874 0.04313 0.83741 0.0
C2771 C 0.52923 0.05749 0.83269 0.0
C2772 C 0.53269 0.03195 0.85139 0.0
C2773 C 0.5172 0.03564 0.86106 0.0
C2774 C 0.50815 0.05073 0.85651 0.0
C2775 C 0.51402 0.06121 0.84231 0.0
C2776 C 0.54233 0.01562 0.85564 0.0
C2777 C 0.49209 0.05564 0.86658 0.0
C2778 C 0.48108 0.98807 0.88999 0.0
C2779 C 0.49565 0.99731 0.90287 0.0
C2780 C 0.48791 0.00031 0.87638 0.0
C2781 C 0.50955 0.0228 0.8756 0.0
C2782 C 0.52396 0.0327 0.88863 0.0
C2783 C 0.51702 0.01976 0.90203 0.0
C2784 C 0.47212 0.98892 0.86276 0.0
C2785 C 0.54689 0.05685 0.88837 0.0
H2786 H 0.55036 0.04009 0.82996 0.0
H2787 H 0.50683 0.07249 0.83875 0.0
H2788 H 0.55256 0.02164 0.86632 0.0
H2789 H 0.52688 0.99723 0.85734 0.0
H2790 H 0.5545 0.01495 0.84701 0.0
H2791 H 0.48794 0.06905 0.86182 0.0
H2792 H 0.47468 0.03885 0.8685 0.0
H2793 H 0.50105 0.06224 0.8776 0.0
H2794 H 0.46422 0.97112 0.89047 0.0
H2795 H 0.52868 0.02709 0.91175 0.0
H2796 H 0.48298 0.98671 0.85386 0.0
H2797 H 0.46555 0.00069 0.85832 0.0
H2798 H 0.45608 0.97115 0.86515 0.0
H2799 H 0.56046 0.05617 0.88092 0.0
H2800 H 0.5552 0.06279 0.89963 0.0
H2801 H 0.54286 0.07045 0.88383 0.0
C2802 C 0.12837 0.28292 0.50569 0.0
C2803 C 0.13794 0.26879 0.51095 0.0
C2804 C 0.13492 0.29408 0.49172 0.0
C2805 C 0.15087 0.29054 0.48243 0.0
C2806 C 0.1598 0.27553 0.48732 0.0
C2807 C 0.15355 0.26516 0.50154 0.0
C2808 C 0.12526 0.31025 0.48709 0.0
C2809 C 0.17638 0.27077 0.47763 0.0
C2810 C 0.15271 0.30768 0.44156 0.0
C2811 C 0.1739 0.33032 0.44118 0.0
C2812 C 0.14543 0.29415 0.45474 0.0
C2813 C 0.15926 0.30366 0.46801 0.0
C2814 C 0.18083 0.32626 0.46765 0.0
C2815 C 0.18806 0.33904 0.45426 0.0
C2816 C 0.12267 0.26985 0.45452 0.0
C2817 C 0.196 0.33728 0.48155 0.0
H2818 H 0.11578 0.28545 0.51253 0.0
H2819 H 0.16144 0.25465 0.50539 0.0
H2820 H 0.14068 0.32864 0.48535 0.0
H2821 H 0.11525 0.30398 0.47635 0.0
H2822 H 0.11287 0.31102 0.49552 0.0
H2823 H 0.17969 0.25678 0.48233 0.0
H2824 H 0.16839 0.26506 0.4663 0.0
H2825 H 0.19417 0.28744 0.47642 0.0
H2826 H 0.14139 0.30068 0.43168 0.0
H2827 H 0.20485 0.3561 0.45412 0.0
H2828 H 0.10848 0.27026 0.4615 0.0
H2829 H 0.12655 0.25631 0.45933 0.0
H2830 H 0.11521 0.26404 0.44307 0.0
H2831 H 0.18476 0.33937 0.49023 0.0
H2832 H 0.21222 0.35507 0.47945 0.0
H2833 H 0.20227 0.32535 0.48613 0.0
C2834 C 0.70755 0.86967 0.50114 0.0
C2835 C 0.70439 0.85122 0.51072 0.0
C2836 C 0.69636 0.86466 0.48704 0.0
C2837 C 0.68099 0.8406 0.48253 0.0
C2838 C 0.67729 0.82187 0.4922 0.0
C2839 C 0.68927 0.82738 0.50607 0.0
C2840 C 0.70111 0.88513 0.47692 0.0
C2841 C 0.66065 0.79599 0.48789 0.0
C2842 C 0.6353 0.82941 0.45163 0.0
C2843 C 0.6463 0.82535 0.43924 0.0
C2844 C 0.64614 0.83391 0.46583 0.0
C2845 C 0.66889 0.83508 0.46765 0.0
C2846 C 0.68025 0.83126 0.45523 0.0
C2847 C 0.66867 0.82609 0.44125 0.0
C2848 C 0.63324 0.83743 0.47888 0.0
C2849 C 0.70475 0.8328 0.45668 0.0
H2850 H 0.71869 0.88814 0.50466 0.0
H2851 H 0.68696 0.81293 0.5132 0.0
H2852 H 0.70851 0.88318 0.46615 0.0
H2853 H 0.6838 0.88482 0.47445 0.0
H2854 H 0.71418 0.90281 0.4819 0.0
H2855 H 0.65888 0.78357 0.49694 0.0
H2856 H 0.64225 0.79294 0.48506 0.0
H2857 H 0.66771 0.79149 0.47782 0.0
H2858 H 0.61828 0.82932 0.45024 0.0
H2859 H 0.67714 0.82244 0.43191 0.0
H2860 H 0.64447 0.85574 0.48356 0.0
H2861 H 0.6308 0.8247 0.48786 0.0
H2862 H 0.6151 0.83481 0.47573 0.0
H2863 H 0.71838 0.85057 0.46126 0.0
H2864 H 0.71146 0.83004 0.44585 0.0
H2865 H 0.70357 0.81916 0.46461 0.0
C2866 C 0.15513 0.83588 0.51051 0.0
C2867 C 0.14421 0.84989 0.51277 0.0
C2868 C 0.16251 0.8331 0.49624 0.0
C2869 C 0.15929 0.84498 0.48398 0.0
C2870 C 0.14803 0.85896 0.48618 0.0
C2871 C 0.14045 0.86109 0.50053 0.0
C2872 C 0.17404 0.81771 0.49433 0.0
C2873 C 0.14461 0.87221 0.47346 0.0
C2874 C 0.20183 0.85795 0.45116 0.0
C2875 C 0.18672 0.84023 0.44086 0.0
C2876 C 0.193 0.85992 0.46512 0.0
C2877 C 0.16856 0.84351 0.46898 0.0
C2878 C 0.1532 0.8256 0.45859 0.0
C2879 C 0.16241 0.82431 0.4446 0.0
C2880 C 0.20984 0.87956 0.47575 0.0
C2881 C 0.12717 0.80757 0.46236 0.0
H2882 H 0.15786 0.82704 0.51993 0.0
H2883 H 0.13224 0.87214 0.50227 0.0
H2884 H 0.16421 0.80394 0.48556 0.0
H2885 H 0.19316 0.82886 0.49062 0.0
H2886 H 0.17399 0.80862 0.5048 0.0
H2887 H 0.13492 0.88177 0.47693 0.0
H2888 H 0.16263 0.88544 0.46892 0.0
H2889 H 0.13414 0.85959 0.46428 0.0
H2890 H 0.22055 0.87044 0.44822 0.0
H2891 H 0.15076 0.8105 0.43668 0.0
H2892 H 0.21227 0.87166 0.4861 0.0
H2893 H 0.20172 0.89066 0.47896 0.0
H2894 H 0.22806 0.89135 0.47085 0.0
H2895 H 0.12678 0.79727 0.4723 0.0
H2896 H 0.11757 0.79484 0.45303 0.0
H2897 H 0.11698 0.81687 0.46521 0.0
C2898 C 0.6265 0.81881 0.17944 0.0
C2899 C 0.63882 0.81773 0.16673 0.0
C2900 C 0.63769 0.82413 0.19355 0.0
C2901 C 0.66155 0.82779 0.1951 0.0
C2902 C 0.674 0.82641 0.18242 0.0
C2903 C 0.66265 0.82176 0.16838 0.0
C2904 C 0.624 0.82589 0.20679 0.0
C2905 C 0.6993 0.82979 0.18369 0.0
C2906 C 0.69977 0.86205 0.22881 0.0
C2907 C 0.69584 0.84341 0.23834 0.0
C2908 C 0.68852 0.85722 0.21473 0.0
C2909 C 0.67352 0.83318 0.21001 0.0
C2910 C 0.66988 0.81429 0.21955 0.0
C2911 C 0.68085 0.81966 0.23372 0.0
C2912 C 0.69234 0.87781 0.20503 0.0
C2913 C 0.6545 0.78845 0.21476 0.0
H2914 H 0.60795 0.81527 0.17843 0.0
H2915 H 0.67261 0.82149 0.15867 0.0
H2916 H 0.62117 0.8121 0.21509 0.0
H2917 H 0.63486 0.84359 0.21234 0.0
H2918 H 0.60595 0.82349 0.2036 0.0
H2919 H 0.70608 0.82715 0.17285 0.0
H2920 H 0.7122 0.84806 0.1879 0.0
H2921 H 0.6994 0.81699 0.19183 0.0
H2922 H 0.71124 0.8804 0.23252 0.0
H2923 H 0.67795 0.80532 0.24116 0.0
H2924 H 0.67451 0.87629 0.20234 0.0
H2925 H 0.70072 0.87721 0.19433 0.0
H2926 H 0.70421 0.89545 0.21047 0.0
H2927 H 0.63551 0.7842 0.21255 0.0
H2928 H 0.65418 0.77594 0.22331 0.0
H2929 H 0.66161 0.78531 0.20422 0.0
C2930 C 0.20984 0.83712 0.17327 0.0
C2931 C 0.20305 0.81392 0.16828 0.0
C2932 C 0.20185 0.84102 0.18704 0.0
C2933 C 0.18726 0.82134 0.1963 0.0
C2934 C 0.18095 0.79797 0.19159 0.0
C2935 C 0.18859 0.79452 0.17759 0.0
C2936 C 0.20865 0.86618 0.19156 0.0
C2937 C 0.16582 0.77655 0.20127 0.0
C2938 C 0.18311 0.83422 0.23731 0.0
C2939 C 0.16011 0.83248 0.23797 0.0
C2940 C 0.192 0.83025 0.22391 0.0
C2941 C 0.17793 0.82509 0.2107 0.0
C2942 C 0.15484 0.8235 0.21121 0.0
C2943 C 0.14609 0.82684 0.22484 0.0
C2944 C 0.21648 0.83159 0.22389 0.0
C2945 C 0.13942 0.8184 0.19732 0.0
H2946 H 0.22139 0.85234 0.1664 0.0
H2947 H 0.18275 0.77646 0.17385 0.0
H2948 H 0.1919 0.86727 0.19326 0.0
H2949 H 0.21877 0.87106 0.20229 0.0
H2950 H 0.22005 0.87955 0.18308 0.0
H2951 H 0.16399 0.75981 0.19649 0.0
H2952 H 0.17414 0.77948 0.21254 0.0
H2953 H 0.14733 0.7741 0.20265 0.0
H2954 H 0.19441 0.83899 0.24724 0.0
H2955 H 0.12811 0.82491 0.22517 0.0
H2956 H 0.22923 0.84624 0.21654 0.0
H2957 H 0.21456 0.8147 0.21936 0.0
H2958 H 0.2247 0.83476 0.23522 0.0
H2959 H 0.14987 0.8319 0.1887 0.0
H2960 H 0.12228 0.81859 0.1995 0.0
H2961 H 0.13469 0.80065 0.19263 0.0
C2962 C 0.20957 0.3845 0.17195 0.0
C2963 C 0.19975 0.39862 0.1673 0.0
C2964 C 0.20344 0.373 0.18583 0.0
C2965 C 0.18757 0.37617 0.19547 0.0
C2966 C 0.17832 0.39114 0.19102 0.0
C2967 C 0.18424 0.4019 0.17691 0.0
C2968 C 0.21327 0.35678 0.18994 0.0
C2969 C 0.16189 0.39553 0.20108 0.0
C2970 C 0.15094 0.3273 0.22355 0.0
C2971 C 0.16515 0.33605 0.2366 0.0
C2972 C 0.15806 0.34012 0.21016 0.0
C2973 C 0.17959 0.36274 0.20979 0.0
C2974 C 0.1936 0.37218 0.22301 0.0
C2975 C 0.18641 0.35864 0.23617 0.0
C2976 C 0.1427 0.3292 0.19632 0.0
C2977 C 0.21637 0.39647 0.2232 0.0
H2978 H 0.22142 0.3818 0.16448 0.0
H2979 H 0.17678 0.41296 0.17337 0.0
H2980 H 0.22311 0.36247 0.20077 0.0
H2981 H 0.19794 0.33824 0.1913 0.0
H2982 H 0.22585 0.35667 0.18139 0.0
H2983 H 0.15787 0.40914 0.19652 0.0
H2984 H 0.14442 0.37863 0.20262 0.0
H2985 H 0.17044 0.40159 0.21225 0.0
H2986 H 0.13414 0.31025 0.22372 0.0
H2987 H 0.1978 0.36562 0.24603 0.0
H2988 H 0.15391 0.32752 0.18743 0.0
H2989 H 0.13606 0.341 0.19203 0.0
H2990 H 0.12672 0.31124 0.19838 0.0
H2991 H 0.2303 0.39624 0.21585 0.0
H2992 H 0.22426 0.40203 0.23458 0.0
H2993 H 0.21231 0.41011 0.21877 0.0
C2994 C 0.80574 0.58959 0.83174 0.0
C2995 C 0.80559 0.60299 0.84412 0.0
C2996 C 0.81287 0.59996 0.81756 0.0
C2997 C 0.8198 0.62428 0.81557 0.0
C2998 C 0.81921 0.63777 0.82791 0.0
C2999 C 0.81231 0.62705 0.84199 0.0
C3000 C 0.81337 0.58496 0.80474 0.0
C3001 C 0.82632 0.66371 0.82631 0.0
C3002 C 0.86238 0.66037 0.78411 0.0
C3003 C 0.84626 0.66107 0.77364 0.0
C3004 C 0.85393 0.64793 0.79756 0.0
C3005 C 0.8287 0.63601 0.80078 0.0
C3006 C 0.81224 0.6362 0.7901 0.0
C3007 C 0.8212 0.64859 0.77663 0.0
C3008 C 0.87211 0.64791 0.80848 0.0
C3009 C 0.78525 0.62393 0.79312 0.0
H3010 H 0.80021 0.57091 0.83311 0.0
H3011 H 0.81273 0.6378 0.85143 0.0
H3012 H 0.80179 0.58492 0.79544 0.0
H3013 H 0.83222 0.59282 0.80045 0.0
H3014 H 0.80693 0.56618 0.80801 0.0
H3015 H 0.82355 0.67135 0.83675 0.0
H3016 H 0.84578 0.67439 0.82316 0.0
H3017 H 0.81548 0.66566 0.81726 0.0
H3018 H 0.88174 0.6697 0.78179 0.0
H3019 H 0.80865 0.64919 0.76864 0.0
H3020 H 0.86685 0.62929 0.81141 0.0
H3021 H 0.87212 0.65718 0.81893 0.0
H3022 H 0.89092 0.65693 0.80398 0.0
H3023 H 0.77825 0.60493 0.796 0.0
H3024 H 0.77473 0.62467 0.78341 0.0
H3025 H 0.78186 0.63257 0.80282 0.0
C3026 C 0.38693 0.1858 0.83209 0.0
C3027 C 0.37408 0.18598 0.8447 0.0
C3028 C 0.37591 0.18054 0.81792 0.0
C3029 C 0.35169 0.17595 0.81636 0.0
C3030 C 0.33881 0.17655 0.82907 0.0
C3031 C 0.35009 0.18129 0.84313 0.0
C3032 C 0.39002 0.17956 0.80468 0.0
C3033 C 0.31316 0.17226 0.82781 0.0
C3034 C 0.33072 0.1832 0.77805 0.0
C3035 C 0.31618 0.15935 0.77349 0.0
C3036 C 0.34227 0.1889 0.79205 0.0
C3037 C 0.33967 0.17026 0.80147 0.0
C3038 C 0.3253 0.14613 0.79675 0.0
C3039 C 0.31345 0.14095 0.78286 0.0
C3040 C 0.35697 0.2148 0.79684 0.0
C3041 C 0.32257 0.1258 0.80633 0.0
H3042 H 0.40546 0.1893 0.83337 0.0
H3043 H 0.34028 0.18166 0.85291 0.0
H3044 H 0.38004 0.16163 0.79931 0.0
H3045 H 0.39174 0.19278 0.79624 0.0
H3046 H 0.40857 0.18328 0.80782 0.0
H3047 H 0.30601 0.1742 0.8387 0.0
H3048 H 0.31262 0.18507 0.81985 0.0
H3049 H 0.30082 0.15401 0.82337 0.0
H3050 H 0.33268 0.19735 0.77073 0.0
H3051 H 0.30233 0.12252 0.77919 0.0
H3052 H 0.37611 0.21964 0.79911 0.0
H3053 H 0.34954 0.21762 0.80736 0.0
H3054 H 0.35688 0.2271 0.78828 0.0
H3055 H 0.34079 0.1283 0.80908 0.0
H3056 H 0.31152 0.10811 0.80077 0.0
H3057 H 0.31376 0.12571 0.81701 0.0
C3058 C 0.8138 0.16839 0.8429 0.0
C3059 C 0.80513 0.18433 0.84509 0.0
C3060 C 0.82103 0.16503 0.82873 0.0
C3061 C 0.81997 0.17826 0.81651 0.0
C3062 C 0.81086 0.19411 0.81862 0.0
C3063 C 0.80336 0.19681 0.83287 0.0
C3064 C 0.83022 0.14765 0.82691 0.0
C3065 C 0.80977 0.20879 0.80593 0.0
C3066 C 0.86351 0.18833 0.78473 0.0
C3067 C 0.84802 0.17158 0.77408 0.0
C3068 C 0.8545 0.19099 0.79844 0.0
C3069 C 0.82944 0.17628 0.8017 0.0
C3070 C 0.81368 0.15939 0.79096 0.0
C3071 C 0.82313 0.15738 0.77721 0.0
C3072 C 0.87184 0.2095 0.80948 0.0
C3073 C 0.78695 0.14315 0.79409 0.0
H3074 H 0.81496 0.15856 0.85231 0.0
H3075 H 0.79687 0.2093 0.83457 0.0
H3076 H 0.81999 0.13461 0.81785 0.0
H3077 H 0.84968 0.15742 0.82367 0.0
H3078 H 0.82846 0.13766 0.8373 0.0
H3079 H 0.80135 0.2196 0.80927 0.0
H3080 H 0.82846 0.22104 0.80185 0.0
H3081 H 0.79918 0.19697 0.79646 0.0
H3082 H 0.8827 0.19953 0.78225 0.0
H3083 H 0.81116 0.1443 0.76903 0.0
H3084 H 0.87266 0.20062 0.81983 0.0
H3085 H 0.86516 0.22187 0.8126 0.0
H3086 H 0.89058 0.22016 0.80501 0.0
H3087 H 0.78479 0.13192 0.80391 0.0
H3088 H 0.77706 0.13123 0.78448 0.0
H3089 H 0.77826 0.15391 0.79685 0.0
C3090 C 0.31408 0.1722 0.50453 0.0
C3091 C 0.2984 0.14831 0.50043 0.0
C3092 C 0.32586 0.17807 0.51846 0.0
C3093 C 0.32133 0.15959 0.52859 0.0
C3094 C 0.30518 0.13543 0.52455 0.0
C3095 C 0.29412 0.13006 0.51041 0.0
C3096 C 0.34335 0.20398 0.52226 0.0
C3097 C 0.29948 0.11531 0.53518 0.0
C3098 C 0.36704 0.17122 0.5595 0.0
C3099 C 0.35666 0.17664 0.57163 0.0
C3100 C 0.35591 0.16596 0.54538 0.0
C3101 C 0.33354 0.16553 0.54341 0.0
C3102 C 0.3228 0.17073 0.55559 0.0
C3103 C 0.33464 0.17653 0.56949 0.0
C3104 C 0.36809 0.16087 0.53257 0.0
C3105 C 0.29875 0.17008 0.55396 0.0
H3106 H 0.31746 0.18624 0.49671 0.0
H3107 H 0.28182 0.1116 0.5072 0.0
H3108 H 0.33711 0.20932 0.53235 0.0
H3109 H 0.36162 0.20648 0.52484 0.0
H3110 H 0.34515 0.21614 0.51303 0.0
H3111 H 0.28601 0.09756 0.53046 0.0
H3112 H 0.31638 0.11505 0.53804 0.0
H3113 H 0.29214 0.11817 0.54572 0.0
H3114 H 0.3838 0.17084 0.56104 0.0
H3115 H 0.32667 0.18118 0.57866 0.0
H3116 H 0.37104 0.17323 0.52326 0.0
H3117 H 0.35612 0.14241 0.5283 0.0
H3118 H 0.38592 0.16281 0.53583 0.0
H3119 H 0.30042 0.18351 0.5457 0.0
H3120 H 0.29243 0.17378 0.56466 0.0
H3121 H 0.28459 0.15228 0.54972 0.0
C3122 C 0.8458 0.12937 0.50611 0.0
C3123 C 0.86989 0.14401 0.50143 0.0
C3124 C 0.83787 0.13329 0.51987 0.0
C3125 C 0.85453 0.1521 0.52931 0.0
C3126 C 0.87899 0.16676 0.52474 0.0
C3127 C 0.88632 0.16267 0.51078 0.0
C3128 C 0.81155 0.1175 0.52421 0.0
C3129 C 0.89738 0.18672 0.53459 0.0
C3130 C 0.82777 0.17552 0.55826 0.0
C3131 C 0.8273 0.16282 0.57102 0.0
C3132 C 0.83686 0.17244 0.54468 0.0
C3133 C 0.84614 0.15657 0.54385 0.0
C3134 C 0.8464 0.14422 0.55675 0.0
C3135 C 0.8368 0.14732 0.57013 0.0
C3136 C 0.83607 0.1858 0.53114 0.0
C3137 C 0.85638 0.12733 0.55637 0.0
H3138 H 0.83298 0.11511 0.49882 0.0
H3139 H 0.905 0.17391 0.50722 0.0
H3140 H 0.81046 0.10842 0.53486 0.0
H3141 H 0.80288 0.12857 0.52601 0.0
H3142 H 0.80092 0.10368 0.5156 0.0
H3143 H 0.91584 0.19606 0.52959 0.0
H3144 H 0.89148 0.2 0.53669 0.0
H3145 H 0.89854 0.17951 0.54556 0.0
H3146 H 0.82097 0.18791 0.55885 0.0
H3147 H 0.83625 0.13712 0.57981 0.0
H3148 H 0.82456 0.17289 0.52233 0.0
H3149 H 0.85462 0.1967 0.5265 0.0
H3150 H 0.82866 0.19778 0.53369 0.0
H3151 H 0.84495 0.11193 0.5489 0.0
H3152 H 0.85687 0.12041 0.56759 0.0
H3153 H 0.8751 0.1365 0.55177 0.0
C3154 C 0.85049 0.69913 0.50087 0.0
C3155 C 0.86077 0.72383 0.49886 0.0
C3156 C 0.84426 0.68901 0.51513 0.0
C3157 C 0.84794 0.70386 0.52771 0.0
C3158 C 0.85849 0.72886 0.52576 0.0
C3159 C 0.86498 0.73856 0.51138 0.0
C3160 C 0.83349 0.66234 0.51671 0.0
C3161 C 0.86231 0.74528 0.5388 0.0
C3162 C 0.80731 0.67275 0.56092 0.0
C3163 C 0.82311 0.66971 0.57045 0.0
C3164 C 0.81537 0.68448 0.54723 0.0
C3165 C 0.83976 0.69302 0.54277 0.0
C3166 C 0.85593 0.69033 0.55246 0.0
C3167 C 0.84747 0.67891 0.56625 0.0
C3168 C 0.79765 0.6874 0.53742 0.0
C3169 C 0.88195 0.69884 0.54805 0.0
H3170 H 0.84744 0.68771 0.49124 0.0
H3171 H 0.87275 0.75765 0.50987 0.0
H3172 H 0.84416 0.65855 0.52497 0.0
H3173 H 0.81459 0.65424 0.52094 0.0
H3174 H 0.83311 0.65348 0.50598 0.0
H3175 H 0.87136 0.76437 0.5355 0.0
H3176 H 0.84448 0.74035 0.54388 0.0
H3177 H 0.87356 0.74324 0.54752 0.0
H3178 H 0.78853 0.66587 0.56421 0.0
H3179 H 0.85968 0.67644 0.57355 0.0
H3180 H 0.79452 0.6771 0.5269 0.0
H3181 H 0.80536 0.70645 0.53439 0.0
H3182 H 0.7798 0.68113 0.5429 0.0
H3183 H 0.88219 0.68896 0.53795 0.0
H3184 H 0.89244 0.6962 0.55704 0.0
H3185 H 0.8913 0.71809 0.5452 0.0
loop_
_geom_bond_atom_site_label_1
_geom_bond_atom_site_label_2
_geom_bond_distance
_geom_bond_site_symmetry_2
_ccdc_geom_bond_type
C0 C1 1.386 . S
C0 C2 1.397 . S
C0 H24 0.931 . S
C1 C0 1.386 . S
C1 C5 1.397 . S
C2 C0 1.397 . S
C2 C3 1.384 . S
C2 H25 0.930 . S
C3 C2 1.384 . S
C3 C4 1.377 . S
C3 C6 1.481 . S
C4 C3 1.377 . S
C4 C5 1.389 . S
C4 H26 0.929 . S
C5 C1 1.397 . S
C5 C4 1.389 . S
C5 H27 0.931 . S
C6 C3 1.481 . S
C6 C7 1.387 . S
C6 C11 1.390 . S
C7 C6 1.387 . S
C7 C8 1.401 . S
C7 H28 0.930 . S
C8 C7 1.401 . S
C8 C9 1.376 . S
C8 C17 1.511 . S
C9 C8 1.376 . S
C9 C10 1.392 . S
C9 H30 0.931 . S
C10 C9 1.392 . S
C10 C11 1.361 . S
C10 C12 1.500 . S
C11 C6 1.390 . S
C11 C10 1.361 . S
C11 H29 0.931 . S
C12 C10 1.500 . S
C12 C13 1.371 . S
C12 C14 1.365 . S
C13 C12 1.371 . S
C13 C23 1.386 . S
C13 H31 0.931 . S
C14 C12 1.365 . S
C14 C15 1.409 . S
C14 H32 0.929 . S
C15 C14 1.409 . S
C15 C16 1.380 . S
C15 H33 0.930 . S
C16 C15 1.380 . S
C16 C23 1.357 . S
C17 C8 1.511 . S
C17 C18 1.341 . S
C17 C19 1.371 . S
C18 C17 1.341 . S
C18 C22 1.394 . S
C18 H34 0.930 . S
C19 C17 1.371 . S
C19 C20 1.392 . S
C19 H35 0.931 . S
C20 C19 1.392 . S
C20 C21 1.331 . S
C20 H38 0.932 . S
C21 C20 1.331 . S
C21 C22 1.336 . S
C22 C18 1.394 . S
C22 C21 1.336 . S
C22 H37 0.929 . S
C23 C13 1.386 . S
C23 C16 1.357 . S
C23 H36 0.928 . S
H24 C0 0.931 . S
H25 C2 0.930 . S
H26 C4 0.929 . S
H27 C5 0.931 . S
H28 C7 0.930 . S
H29 C11 0.931 . S
H30 C9 0.931 . S
H31 C13 0.931 . S
H32 C14 0.929 . S
H33 C15 0.930 . S
H34 C18 0.930 . S
H35 C19 0.931 . S
H36 C23 0.928 . S
H37 C22 0.929 . S
H38 C20 0.932 . S
C39 C40 1.386 . S
C39 C41 1.397 . S
C39 H63 0.931 . S
C40 C39 1.386 . S
C40 C44 1.397 . S
C41 C39 1.397 . S
C41 C42 1.384 . S
C41 H64 0.930 . S
C42 C41 1.384 . S
C42 C43 1.377 . S
C42 C45 1.481 . S
C43 C42 1.377 . S
C43 C44 1.389 . S
C43 H65 0.929 . S
C44 C40 1.397 . S
C44 C43 1.389 . S
C44 H66 0.931 . S
C45 C42 1.481 . S
C45 C46 1.387 . S
C45 C50 1.390 . S
C46 C45 1.387 . S
C46 C47 1.401 . S
C46 H67 0.930 . S
C47 C46 1.401 . S
C47 C48 1.376 . S
C47 C56 1.511 . S
C48 C47 1.376 . S
C48 C49 1.392 . S
C48 H69 0.931 . S
C49 C48 1.392 . S
C49 C50 1.361 . S
C49 C51 1.500 . S
C50 C45 1.390 . S
C50 C49 1.361 . S
C50 H68 0.931 . S
C51 C49 1.500 . S
C51 C52 1.371 . S
C51 C53 1.365 . S
C52 C51 1.371 . S
C52 C62 1.386 . S
C52 H70 0.931 . S
C53 C51 1.365 . S
C53 C54 1.409 . S
C53 H71 0.929 . S
C54 C53 1.409 . S
C54 C55 1.380 . S
C54 H72 0.930 . S
C55 C54 1.380 . S
C55 C62 1.357 . S
C56 C47 1.511 . S
C56 C57 1.341 . S
C56 C58 1.371 . S
C57 C56 1.341 . S
C57 C61 1.394 . S
C57 H73 0.930 . S
C58 C56 1.371 . S
C58 C59 1.392 . S
C58 H74 0.931 . S
C59 C58 1.392 . S
C59 C60 1.331 . S
C59 H77 0.932 . S
C60 C59 1.331 . S
C60 C61 1.336 . S
C61 C57 1.394 . S
C61 C60 1.336 . S
C61 H76 0.929 . S
C62 C52 1.386 . S
C62 C55 1.357 . S
C62 H75 0.928 . S
H63 C39 0.931 . S
H64 C41 0.930 . S
H65 C43 0.929 . S
H66 C44 0.931 . S
H67 C46 0.930 . S
H68 C50 0.931 . S
H69 C48 0.931 . S
H70 C52 0.931 . S
H71 C53 0.929 . S
H72 C54 0.930 . S
H73 C57 0.930 . S
H74 C58 0.931 . S
H75 C62 0.928 . S
H76 C61 0.929 . S
H77 C59 0.932 . S
C78 C79 1.386 . S
C78 C80 1.397 . S
C78 H102 0.931 . S
C79 C78 1.386 . S
C79 C83 1.397 . S
C80 C78 1.397 . S
C80 C81 1.384 . S
C80 H103 0.930 . S
C81 C80 1.384 . S
C81 C82 1.377 . S
C81 C84 1.481 . S
C82 C81 1.377 . S
C82 C83 1.389 . S
C82 H104 0.929 . S
C83 C79 1.397 . S
C83 C82 1.389 . S
C83 H105 0.931 . S
C84 C81 1.481 . S
C84 C85 1.387 . S
C84 C89 1.390 . S
C85 C84 1.387 . S
C85 C86 1.401 . S
C85 H106 0.930 . S
C86 C85 1.401 . S
C86 C87 1.376 . S
C86 C95 1.511 . S
C87 C86 1.376 . S
C87 C88 1.392 . S
C87 H108 0.931 . S
C88 C87 1.392 . S
C88 C89 1.361 . S
C88 C90 1.500 . S
C89 C84 1.390 . S
C89 C88 1.361 . S
C89 H107 0.931 . S
C90 C88 1.500 . S
C90 C91 1.371 . S
C90 C92 1.365 . S
C91 C90 1.371 . S
C91 C101 1.386 . S
C91 H109 0.931 . S
C92 C90 1.365 . S
C92 C93 1.409 . S
C92 H110 0.929 . S
C93 C92 1.409 . S
C93 C94 1.380 . S
C93 H111 0.930 . S
C94 C93 1.380 . S
C94 C101 1.357 . S
C95 C86 1.511 . S
C95 C96 1.341 . S
C95 C97 1.371 . S
C96 C95 1.341 . S
C96 C100 1.394 . S
C96 H112 0.930 . S
C97 C95 1.371 . S
C97 C98 1.392 . S
C97 H113 0.931 . S
C98 C97 1.392 . S
C98 C99 1.331 . S
C98 H116 0.932 . S
C99 C98 1.331 . S
C99 C100 1.336 . S
C100 C96 1.394 . S
C100 C99 1.336 . S
C100 H115 0.929 . S
C101 C91 1.386 . S
C101 C94 1.357 . S
C101 H114 0.928 . S
H102 C78 0.931 . S
H103 C80 0.930 . S
H104 C82 0.929 . S
H105 C83 0.931 . S
H106 C85 0.930 . S
H107 C89 0.931 . S
H108 C87 0.931 . S
H109 C91 0.931 . S
H110 C92 0.929 . S
H111 C93 0.930 . S
H112 C96 0.930 . S
H113 C97 0.931 . S
H114 C101 0.928 . S
H115 C100 0.929 . S
H116 C98 0.932 . S
C117 C118 1.386 . S
C117 C119 1.397 . S
C117 H141 0.931 . S
C118 C117 1.386 . S
C118 C122 1.397 . S
C119 C117 1.397 . S
C119 C120 1.384 . S
C119 H142 0.930 . S
C120 C119 1.384 . S
C120 C121 1.377 . S
C120 C123 1.481 . S
C121 C120 1.377 . S
C121 C122 1.389 . S
C121 H143 0.929 . S
C122 C118 1.397 . S
C122 C121 1.389 . S
C122 H144 0.931 . S
C123 C120 1.481 . S
C123 C124 1.387 . S
C123 C128 1.390 . S
C124 C123 1.387 . S
C124 C125 1.401 . S
C124 H145 0.930 . S
C125 C124 1.401 . S
C125 C126 1.376 . S
C125 C134 1.511 . S
C126 C125 1.376 . S
C126 C127 1.392 . S
C126 H147 0.931 . S
C127 C126 1.392 . S
C127 C128 1.361 . S
C127 C129 1.500 . S
C128 C123 1.390 . S
C128 C127 1.361 . S
C128 H146 0.931 . S
C129 C127 1.500 . S
C129 C130 1.371 . S
C129 C131 1.365 . S
C130 C129 1.371 . S
C130 C140 1.386 . S
C130 H148 0.931 . S
C131 C129 1.365 . S
C131 C132 1.409 . S
C131 H149 0.929 . S
C132 C131 1.409 . S
C132 C133 1.380 . S
C132 H150 0.930 . S
C133 C132 1.380 . S
C133 C140 1.357 . S
C134 C125 1.511 . S
C134 C135 1.341 . S
C134 C136 1.371 . S
C135 C134 1.341 . S
C135 C139 1.394 . S
C135 H151 0.930 . S
C136 C134 1.371 . S
C136 C137 1.392 . S
C136 H152 0.931 . S
C137 C136 1.392 . S
C137 C138 1.331 . S
C137 H155 0.932 . S
C138 C137 1.331 . S
C138 C139 1.336 . S
C139 C135 1.394 . S
C139 C138 1.336 . S
C139 H154 0.929 . S
C140 C130 1.386 . S
C140 C133 1.357 . S
C140 H153 0.928 . S
H141 C117 0.931 . S
H142 C119 0.930 . S
H143 C121 0.929 . S
H144 C122 0.931 . S
H145 C124 0.930 . S
H146 C128 0.931 . S
H147 C126 0.931 . S
H148 C130 0.931 . S
H149 C131 0.929 . S
H150 C132 0.930 . S
H151 C135 0.930 . S
H152 C136 0.931 . S
H153 C140 0.928 . S
H154 C139 0.929 . S
H155 C137 0.932 . S
C156 C157 1.386 . S
C156 C158 1.397 . S
C156 H180 0.931 . S
C157 C156 1.386 . S
C157 C161 1.397 . S
C158 C156 1.397 . S
C158 C159 1.384 . S
C158 H181 0.930 . S
C159 C158 1.384 . S
C159 C160 1.377 . S
C159 C162 1.481 . S
C160 C159 1.377 . S
C160 C161 1.389 . S
C160 H182 0.929 . S
C161 C157 1.397 . S
C161 C160 1.389 . S
C161 H183 0.931 . S
C162 C159 1.481 . S
C162 C163 1.387 . S
C162 C167 1.390 . S
C163 C162 1.387 . S
C163 C164 1.401 . S
C163 H184 0.930 . S
C164 C163 1.401 . S
C164 C165 1.376 . S
C164 C173 1.511 . S
C165 C164 1.376 . S
C165 C166 1.392 . S
C165 H186 0.931 . S
C166 C165 1.392 . S
C166 C167 1.361 . S
C166 C168 1.500 . S
C167 C162 1.390 . S
C167 C166 1.361 . S
C167 H185 0.931 . S
C168 C166 1.500 . S
C168 C169 1.371 . S
C168 C170 1.365 . S
C169 C168 1.371 . S
C169 C179 1.386 . S
C169 H187 0.931 . S
C170 C168 1.365 . S
C170 C171 1.409 . S
C170 H188 0.929 . S
C171 C170 1.409 . S
C171 C172 1.380 . S
C171 H189 0.930 . S
C172 C171 1.380 . S
C172 C179 1.357 . S
C173 C164 1.511 . S
C173 C174 1.341 . S
C173 C175 1.371 . S
C174 C173 1.341 . S
C174 C178 1.394 . S
C174 H190 0.930 . S
C175 C173 1.371 . S
C175 C176 1.392 . S
C175 H191 0.931 . S
C176 C175 1.392 . S
C176 C177 1.331 . S
C176 H194 0.932 . S
C177 C176 1.331 . S
C177 C178 1.336 . S
C178 C174 1.394 . S
C178 C177 1.336 . S
C178 H193 0.929 . S
C179 C169 1.386 . S
C179 C172 1.357 . S
C179 H192 0.928 . S
H180 C156 0.931 . S
H181 C158 0.930 . S
H182 C160 0.929 . S
H183 C161 0.931 . S
H184 C163 0.930 . S
H185 C167 0.931 . S
H186 C165 0.931 . S
H187 C169 0.931 . S
H188 C170 0.929 . S
H189 C171 0.930 . S
H190 C174 0.930 . S
H191 C175 0.931 . S
H192 C179 0.928 . S
H193 C178 0.929 . S
H194 C176 0.932 . S
C195 C196 1.386 . S
C195 C197 1.397 . S
C195 H219 0.931 . S
C196 C195 1.386 . S
C196 C200 1.397 . S
C197 C195 1.397 . S
C197 C198 1.384 . S
C197 H220 0.930 . S
C198 C197 1.384 . S
C198 C199 1.377 . S
C198 C201 1.481 . S
C199 C198 1.377 . S
C199 C200 1.389 . S
C199 H221 0.929 . S
C200 C196 1.397 . S
C200 C199 1.389 . S
C200 H222 0.931 . S
C201 C198 1.481 . S
C201 C202 1.387 . S
C201 C206 1.390 . S
C202 C201 1.387 . S
C202 C203 1.401 . S
C202 H223 0.930 . S
C203 C202 1.401 . S
C203 C204 1.376 . S
C203 C212 1.511 . S
C204 C203 1.376 . S
C204 C205 1.392 . S
C204 H225 0.931 . S
C205 C204 1.392 . S
C205 C206 1.361 . S
C205 C207 1.500 . S
C206 C201 1.390 . S
C206 C205 1.361 . S
C206 H224 0.931 . S
C207 C205 1.500 . S
C207 C208 1.371 . S
C207 C209 1.365 . S
C208 C207 1.371 . S
C208 C218 1.386 . S
C208 H226 0.931 . S
C209 C207 1.365 . S
C209 C210 1.409 . S
C209 H227 0.929 . S
C210 C209 1.409 . S
C210 C211 1.380 . S
C210 H228 0.930 . S
C211 C210 1.380 . S
C211 C218 1.357 . S
C212 C203 1.511 . S
C212 C213 1.341 . S
C212 C214 1.371 . S
C213 C212 1.341 . S
C213 C217 1.394 . S
C213 H229 0.930 . S
C214 C212 1.371 . S
C214 C215 1.392 . S
C214 H230 0.931 . S
C215 C214 1.392 . S
C215 C216 1.331 . S
C215 H233 0.932 . S
C216 C215 1.331 . S
C216 C217 1.336 . S
C217 C213 1.394 . S
C217 C216 1.336 . S
C217 H232 0.929 . S
C218 C208 1.386 . S
C218 C211 1.357 . S
C218 H231 0.928 . S
H219 C195 0.931 . S
H220 C197 0.930 . S
H221 C199 0.929 . S
H222 C200 0.931 . S
H223 C202 0.930 . S
H224 C206 0.931 . S
H225 C204 0.931 . S
H226 C208 0.931 . S
H227 C209 0.929 . S
H228 C210 0.930 . S
H229 C213 0.930 . S
H230 C214 0.931 . S
H231 C218 0.928 . S
H232 C217 0.929 . S
H233 C215 0.932 . S
C234 C235 1.386 . S
C234 C236 1.397 . S
C234 H258 0.931 . S
C235 C234 1.386 . S
C235 C239 1.397 . S
C236 C234 1.397 . S
C236 C237 1.384 . S
C236 H259 0.930 . S
C237 C236 1.384 . S
C237 C238 1.377 . S
C237 C240 1.481 . S
C238 C237 1.377 . S
C238 C239 1.389 . S
C238 H260 0.929 . S
C239 C235 1.397 . S
C239 C238 1.389 . S
C239 H261 0.931 . S
C240 C237 1.481 . S
C240 C241 1.387 . S
C240 C245 1.390 . S
C241 C240 1.387 . S
C241 C242 1.401 . S
C241 H262 0.930 . S
C242 C241 1.401 . S
C242 C243 1.376 . S
C242 C251 1.511 . S
C243 C242 1.376 . S
C243 C244 1.392 . S
C243 H264 0.931 . S
C244 C243 1.392 . S
C244 C245 1.361 . S
C244 C246 1.500 . S
C245 C240 1.390 . S
C245 C244 1.361 . S
C245 H263 0.931 . S
C246 C244 1.500 . S
C246 C247 1.371 . S
C246 C248 1.365 . S
C247 C246 1.371 . S
C247 C257 1.386 . S
C247 H265 0.931 . S
C248 C246 1.365 . S
C248 C249 1.409 . S
C248 H266 0.929 . S
C249 C248 1.409 . S
C249 C250 1.380 . S
C249 H267 0.930 . S
C250 C249 1.380 . S
C250 C257 1.357 . S
C251 C242 1.511 . S
C251 C252 1.341 . S
C251 C253 1.371 . S
C252 C251 1.341 . S
C252 C256 1.394 . S
C252 H268 0.930 . S
C253 C251 1.371 . S
C253 C254 1.392 . S
C253 H269 0.931 . S
C254 C253 1.392 . S
C254 C255 1.331 . S
C254 H272 0.932 . S
C255 C254 1.331 . S
C255 C256 1.336 . S
C256 C252 1.394 . S
C256 C255 1.336 . S
C256 H271 0.929 . S
C257 C247 1.386 . S
C257 C250 1.357 . S
C257 H270 0.928 . S
H258 C234 0.931 . S
H259 C236 0.930 . S
H260 C238 0.929 . S
H261 C239 0.931 . S
H262 C241 0.930 . S
H263 C245 0.931 . S
H264 C243 0.931 . S
H265 C247 0.931 . S
H266 C248 0.929 . S
H267 C249 0.930 . S
H268 C252 0.930 . S
H269 C253 0.931 . S
H270 C257 0.928 . S
H271 C256 0.929 . S
H272 C254 0.932 . S
C273 C274 1.386 . S
C273 C275 1.397 . S
C273 H297 0.931 . S
C274 C273 1.386 . S
C274 C278 1.397 . S
C275 C273 1.397 . S
C275 C276 1.384 . S
C275 H298 0.930 . S
C276 C275 1.384 . S
C276 C277 1.377 . S
C276 C279 1.481 . S
C277 C276 1.377 . S
C277 C278 1.389 . S
C277 H299 0.929 . S
C278 C274 1.397 . S
C278 C277 1.389 . S
C278 H300 0.931 . S
C279 C276 1.481 . S
C279 C280 1.387 . S
C279 C284 1.390 . S
C280 C279 1.387 . S
C280 C281 1.401 . S
C280 H301 0.930 . S
C281 C280 1.401 . S
C281 C282 1.376 . S
C281 C290 1.511 . S
C282 C281 1.376 . S
C282 C283 1.392 . S
C282 H303 0.931 . S
C283 C282 1.392 . S
C283 C284 1.361 . S
C283 C285 1.500 . S
C284 C279 1.390 . S
C284 C283 1.361 . S
C284 H302 0.931 . S
C285 C283 1.500 . S
C285 C286 1.371 . S
C285 C287 1.365 . S
C286 C285 1.371 . S
C286 C296 1.386 . S
C286 H304 0.931 . S
C287 C285 1.365 . S
C287 C288 1.409 . S
C287 H305 0.929 . S
C288 C287 1.409 . S
C288 C289 1.380 . S
C288 H306 0.930 . S
C289 C288 1.380 . S
C289 C296 1.357 . S
C290 C281 1.511 . S
C290 C291 1.341 . S
C290 C292 1.371 . S
C291 C290 1.341 . S
C291 C295 1.394 . S
C291 H307 0.930 . S
C292 C290 1.371 . S
C292 C293 1.392 . S
C292 H308 0.931 . S
C293 C292 1.392 . S
C293 C294 1.331 . S
C293 H311 0.932 . S
C294 C293 1.331 . S
C294 C295 1.336 . S
C295 C291 1.394 . S
C295 C294 1.336 . S
C295 H310 0.929 . S
C296 C286 1.386 . S
C296 C289 1.357 . S
C296 H309 0.928 . S
H297 C273 0.931 . S
H298 C275 0.930 . S
H299 C277 0.929 . S
H300 C278 0.931 . S
H301 C280 0.930 . S
H302 C284 0.931 . S
H303 C282 0.931 . S
H304 C286 0.931 . S
H305 C287 0.929 . S
H306 C288 0.930 . S
H307 C291 0.930 . S
H308 C292 0.931 . S
H309 C296 0.928 . S
H310 C295 0.929 . S
H311 C293 0.932 . S
C312 C313 1.386 . S
C312 C314 1.397 . S
C312 H336 0.931 . S
C313 C312 1.386 . S
C313 C317 1.397 . S
C314 C312 1.397 . S
C314 C315 1.384 . S
C314 H337 0.930 . S
C315 C314 1.384 . S
C315 C316 1.377 . S
C315 C318 1.481 . S
C316 C315 1.377 . S
C316 C317 1.389 . S
C316 H338 0.929 . S
C317 C313 1.397 . S
C317 C316 1.389 . S
C317 H339 0.931 . S
C318 C315 1.481 . S
C318 C319 1.387 . S
C318 C323 1.390 . S
C319 C318 1.387 . S
C319 C320 1.401 . S
C319 H340 0.930 . S
C320 C319 1.401 . S
C320 C321 1.376 . S
C320 C329 1.511 . S
C321 C320 1.376 . S
C321 C322 1.392 . S
C321 H342 0.931 . S
C322 C321 1.392 . S
C322 C323 1.361 . S
C322 C324 1.500 . S
C323 C318 1.390 . S
C323 C322 1.361 . S
C323 H341 0.931 . S
C324 C322 1.500 . S
C324 C325 1.371 . S
C324 C326 1.365 . S
C325 C324 1.371 . S
C325 C335 1.386 . S
C325 H343 0.931 . S
C326 C324 1.365 . S
C326 C327 1.409 . S
C326 H344 0.929 . S
C327 C326 1.409 . S
C327 C328 1.380 . S
C327 H345 0.930 . S
C328 C327 1.380 . S
C328 C335 1.357 . S
C329 C320 1.511 . S
C329 C330 1.341 . S
C329 C331 1.371 . S
C330 C329 1.341 . S
C330 C334 1.394 . S
C330 H346 0.930 . S
C331 C329 1.371 . S
C331 C332 1.392 . S
C331 H347 0.931 . S
C332 C331 1.392 . S
C332 C333 1.331 . S
C332 H350 0.932 . S
C333 C332 1.331 . S
C333 C334 1.336 . S
C334 C330 1.394 . S
C334 C333 1.336 . S
C334 H349 0.929 . S
C335 C325 1.386 . S
C335 C328 1.357 . S
C335 H348 0.928 . S
H336 C312 0.931 . S
H337 C314 0.930 . S
H338 C316 0.929 . S
H339 C317 0.931 . S
H340 C319 0.930 . S
H341 C323 0.931 . S
H342 C321 0.931 . S
H343 C325 0.931 . S
H344 C326 0.929 . S
H345 C327 0.930 . S
H346 C330 0.930 . S
H347 C331 0.931 . S
H348 C335 0.928 . S
H349 C334 0.929 . S
H350 C332 0.932 . S
C351 C352 1.386 . S
C351 C353 1.397 . S
C351 H375 0.931 . S
C352 C351 1.386 . S
C352 C356 1.397 . S
C353 C351 1.397 . S
C353 C354 1.384 . S
C353 H376 0.930 . S
C354 C353 1.384 . S
C354 C355 1.377 . S
C354 C357 1.481 . S
C355 C354 1.377 . S
C355 C356 1.389 . S
C355 H377 0.929 . S
C356 C352 1.397 . S
C356 C355 1.389 . S
C356 H378 0.931 . S
C357 C354 1.481 . S
C357 C358 1.387 . S
C357 C362 1.390 . S
C358 C357 1.387 . S
C358 C359 1.401 . S
C358 H379 0.930 . S
C359 C358 1.401 . S
C359 C360 1.376 . S
C359 C368 1.511 . S
C360 C359 1.376 . S
C360 C361 1.392 . S
C360 H381 0.931 . S
C361 C360 1.392 . S
C361 C362 1.361 . S
C361 C363 1.500 . S
C362 C357 1.390 . S
C362 C361 1.361 . S
C362 H380 0.931 . S
C363 C361 1.500 . S
C363 C364 1.371 . S
C363 C365 1.365 . S
C364 C363 1.371 . S
C364 C374 1.386 . S
C364 H382 0.931 . S
C365 C363 1.365 . S
C365 C366 1.409 . S
C365 H383 0.929 . S
C366 C365 1.409 . S
C366 C367 1.380 . S
C366 H384 0.930 . S
C367 C366 1.380 . S
C367 C374 1.357 . S
C368 C359 1.511 . S
C368 C369 1.341 . S
C368 C370 1.371 . S
C369 C368 1.341 . S
C369 C373 1.394 . S
C369 H385 0.930 . S
C370 C368 1.371 . S
C370 C371 1.392 . S
C370 H386 0.931 . S
C371 C370 1.392 . S
C371 C372 1.331 . S
C371 H389 0.932 . S
C372 C371 1.331 . S
C372 C373 1.336 . S
C373 C369 1.394 . S
C373 C372 1.336 . S
C373 H388 0.929 . S
C374 C364 1.386 . S
C374 C367 1.357 . S
C374 H387 0.928 . S
H375 C351 0.931 . S
H376 C353 0.930 . S
H377 C355 0.929 . S
H378 C356 0.931 . S
H379 C358 0.930 . S
H380 C362 0.931 . S
H381 C360 0.931 . S
H382 C364 0.931 . S
H383 C365 0.929 . S
H384 C366 0.930 . S
H385 C369 0.930 . S
H386 C370 0.931 . S
H387 C374 0.928 . S
H388 C373 0.929 . S
H389 C371 0.932 . S
C390 C391 1.386 . S
C390 C392 1.397 . S
C390 H414 0.931 . S
C391 C390 1.386 . S
C391 C395 1.397 . S
C392 C390 1.397 . S
C392 C393 1.384 . S
C392 H415 0.930 . S
C393 C392 1.384 . S
C393 C394 1.377 . S
C393 C396 1.481 . S
C394 C393 1.377 . S
C394 C395 1.389 . S
C394 H416 0.929 . S
C395 C391 1.397 . S
C395 C394 1.389 . S
C395 H417 0.931 . S
C396 C393 1.481 . S
C396 C397 1.387 . S
C396 C401 1.390 . S
C397 C396 1.387 . S
C397 C398 1.401 . S
C397 H418 0.930 . S
C398 C397 1.401 . S
C398 C399 1.376 . S
C398 C407 1.511 . S
C399 C398 1.376 . S
C399 C400 1.392 . S
C399 H420 0.931 . S
C400 C399 1.392 . S
C400 C401 1.361 . S
C400 C402 1.500 . S
C401 C396 1.390 . S
C401 C400 1.361 . S
C401 H419 0.931 . S
C402 C400 1.500 . S
C402 C403 1.371 . S
C402 C404 1.365 . S
C403 C402 1.371 . S
C403 C413 1.386 . S
C403 H421 0.931 . S
C404 C402 1.365 . S
C404 C405 1.409 . S
C404 H422 0.929 . S
C405 C404 1.409 . S
C405 C406 1.380 . S
C405 H423 0.930 . S
C406 C405 1.380 . S
C406 C413 1.357 . S
C407 C398 1.511 . S
C407 C408 1.341 . S
C407 C409 1.371 . S
C408 C407 1.341 . S
C408 C412 1.394 . S
C408 H424 0.930 . S
C409 C407 1.371 . S
C409 C410 1.392 . S
C409 H425 0.931 . S
C410 C409 1.392 . S
C410 C411 1.331 . S
C410 H428 0.932 . S
C411 C410 1.331 . S
C411 C412 1.336 . S
C412 C408 1.394 . S
C412 C411 1.336 . S
C412 H427 0.929 . S
C413 C403 1.386 . S
C413 C406 1.357 . S
C413 H426 0.928 . S
H414 C390 0.931 . S
H415 C392 0.930 . S
H416 C394 0.929 . S
H417 C395 0.931 . S
H418 C397 0.930 . S
H419 C401 0.931 . S
H420 C399 0.931 . S
H421 C403 0.931 . S
H422 C404 0.929 . S
H423 C405 0.930 . S
H424 C408 0.930 . S
H425 C409 0.931 . S
H426 C413 0.928 . S
H427 C412 0.929 . S
H428 C410 0.932 . S
C429 C430 1.386 . S
C429 C431 1.397 . S
C429 H453 0.931 . S
C430 C429 1.386 . S
C430 C434 1.397 . S
C431 C429 1.397 . S
C431 C432 1.384 . S
C431 H454 0.930 . S
C432 C431 1.384 . S
C432 C433 1.377 . S
C432 C435 1.481 . S
C433 C432 1.377 . S
C433 C434 1.389 . S
C433 H455 0.929 . S
C434 C430 1.397 . S
C434 C433 1.389 . S
C434 H456 0.931 . S
C435 C432 1.481 . S
C435 C436 1.387 . S
C435 C440 1.390 . S
C436 C435 1.387 . S
C436 C437 1.401 . S
C436 H457 0.930 . S
C437 C436 1.401 . S
C437 C438 1.376 . S
C437 C446 1.511 . S
C438 C437 1.376 . S
C438 C439 1.392 . S
C438 H459 0.931 . S
C439 C438 1.392 . S
C439 C440 1.361 . S
C439 C441 1.500 . S
C440 C435 1.390 . S
C440 C439 1.361 . S
C440 H458 0.931 . S
C441 C439 1.500 . S
C441 C442 1.371 . S
C441 C443 1.365 . S
C442 C441 1.371 . S
C442 C452 1.386 . S
C442 H460 0.931 . S
C443 C441 1.365 . S
C443 C444 1.409 . S
C443 H461 0.929 . S
C444 C443 1.409 . S
C444 C445 1.380 . S
C444 H462 0.930 . S
C445 C444 1.380 . S
C445 C452 1.357 . S
C446 C437 1.511 . S
C446 C447 1.341 . S
C446 C448 1.371 . S
C447 C446 1.341 . S
C447 C451 1.394 . S
C447 H463 0.930 . S
C448 C446 1.371 . S
C448 C449 1.392 . S
C448 H464 0.931 . S
C449 C448 1.392 . S
C449 C450 1.331 . S
C449 H467 0.932 . S
C450 C449 1.331 . S
C450 C451 1.336 . S
C451 C447 1.394 . S
C451 C450 1.336 . S
C451 H466 0.929 . S
C452 C442 1.386 . S
C452 C445 1.357 . S
C452 H465 0.928 . S
H453 C429 0.931 . S
H454 C431 0.930 . S
H455 C433 0.929 . S
H456 C434 0.931 . S
H457 C436 0.930 . S
H458 C440 0.931 . S
H459 C438 0.931 . S
H460 C442 0.931 . S
H461 C443 0.929 . S
H462 C444 0.930 . S
H463 C447 0.930 . S
H464 C448 0.931 . S
H465 C452 0.928 . S
H466 C451 0.929 . S
H467 C449 0.932 . S
C468 C469 1.386 . S
C468 C470 1.397 . S
C468 H492 0.931 . S
C469 C468 1.386 . S
C469 C473 1.397 . S
C470 C468 1.397 . S
C470 C471 1.384 . S
C470 H493 0.930 . S
C471 C470 1.384 . S
C471 C472 1.377 . S
C471 C474 1.481 . S
C472 C471 1.377 . S
C472 C473 1.389 . S
C472 H494 0.929 . S
C473 C469 1.397 . S
C473 C472 1.389 . S
C473 H495 0.931 . S
C474 C471 1.481 . S
C474 C475 1.387 . S
C474 C479 1.390 . S
C475 C474 1.387 . S
C475 C476 1.401 . S
C475 H496 0.930 . S
C476 C475 1.401 . S
C476 C477 1.376 . S
C476 C485 1.511 . S
C477 C476 1.376 . S
C477 C478 1.392 . S
C477 H498 0.931 . S
C478 C477 1.392 . S
C478 C479 1.361 . S
C478 C480 1.500 . S
C479 C474 1.390 . S
C479 C478 1.361 . S
C479 H497 0.931 . S
C480 C478 1.500 . S
C480 C481 1.371 . S
C480 C482 1.365 . S
C481 C480 1.371 . S
C481 C491 1.386 . S
C481 H499 0.931 . S
C482 C480 1.365 . S
C482 C483 1.409 . S
C482 H500 0.929 . S
C483 C482 1.409 . S
C483 C484 1.380 . S
C483 H501 0.930 . S
C484 C483 1.380 . S
C484 C491 1.357 . S
C485 C476 1.511 . S
C485 C486 1.341 . S
C485 C487 1.371 . S
C486 C485 1.341 . S
C486 C490 1.394 . S
C486 H502 0.930 . S
C487 C485 1.371 . S
C487 C488 1.392 . S
C487 H503 0.931 . S
C488 C487 1.392 . S
C488 C489 1.331 . S
C488 H506 0.932 . S
C489 C488 1.331 . S
C489 C490 1.336 . S
C490 C486 1.394 . S
C490 C489 1.336 . S
C490 H505 0.929 . S
C491 C481 1.386 . S
C491 C484 1.357 . S
C491 H504 0.928 . S
H492 C468 0.931 . S
H493 C470 0.930 . S
H494 C472 0.929 . S
H495 C473 0.931 . S
H496 C475 0.930 . S
H497 C479 0.931 . S
H498 C477 0.931 . S
H499 C481 0.931 . S
H500 C482 0.929 . S
H501 C483 0.930 . S
H502 C486 0.930 . S
H503 C487 0.931 . S
H504 C491 0.928 . S
H505 C490 0.929 . S
H506 C488 0.932 . S
C507 C508 1.386 . S
C507 C509 1.397 . S
C507 H531 0.931 . S
C508 C507 1.386 . S
C508 C512 1.397 . S
C509 C507 1.397 . S
C509 C510 1.384 . S
C509 H532 0.930 . S
C510 C509 1.384 . S
C510 C511 1.377 . S
C510 C513 1.481 . S
C511 C510 1.377 . S
C511 C512 1.389 . S
C511 H533 0.929 . S
C512 C508 1.397 . S
C512 C511 1.389 . S
C512 H534 0.931 . S
C513 C510 1.481 . S
C513 C514 1.387 . S
C513 C518 1.390 . S
C514 C513 1.387 . S
C514 C515 1.401 . S
C514 H535 0.930 . S
C515 C514 1.401 . S
C515 C516 1.376 . S
C515 C524 1.511 . S
C516 C515 1.376 . S
C516 C517 1.392 . S
C516 H537 0.931 . S
C517 C516 1.392 . S
C517 C518 1.361 . S
C517 C519 1.500 . S
C518 C513 1.390 . S
C518 C517 1.361 . S
C518 H536 0.931 . S
C519 C517 1.500 . S
C519 C520 1.371 . S
C519 C521 1.365 . S
C520 C519 1.371 . S
C520 C530 1.386 . S
C520 H538 0.931 . S
C521 C519 1.365 . S
C521 C522 1.409 . S
C521 H539 0.929 . S
C522 C521 1.409 . S
C522 C523 1.380 . S
C522 H540 0.930 . S
C523 C522 1.380 . S
C523 C530 1.357 . S
C524 C515 1.511 . S
C524 C525 1.341 . S
C524 C526 1.371 . S
C525 C524 1.341 . S
C525 C529 1.394 . S
C525 H541 0.930 . S
C526 C524 1.371 . S
C526 C527 1.392 . S
C526 H542 0.931 . S
C527 C526 1.392 . S
C527 C528 1.331 . S
C527 H545 0.932 . S
C528 C527 1.331 . S
C528 C529 1.336 . S
C529 C525 1.394 . S
C529 C528 1.336 . S
C529 H544 0.929 . S
C530 C520 1.386 . S
C530 C523 1.357 . S
C530 H543 0.928 . S
H531 C507 0.931 . S
H532 C509 0.930 . S
H533 C511 0.929 . S
H534 C512 0.931 . S
H535 C514 0.930 . S
H536 C518 0.931 . S
H537 C516 0.931 . S
H538 C520 0.931 . S
H539 C521 0.929 . S
H540 C522 0.930 . S
H541 C525 0.930 . S
H542 C526 0.931 . S
H543 C530 0.928 . S
H544 C529 0.929 . S
H545 C527 0.932 . S
C546 C547 1.386 . S
C546 C548 1.397 . S
C546 H570 0.931 . S
C547 C546 1.386 . S
C547 C551 1.397 . S
C548 C546 1.397 . S
C548 C549 1.384 . S
C548 H571 0.930 . S
C549 C548 1.384 . S
C549 C550 1.377 . S
C549 C552 1.481 . S
C550 C549 1.377 . S
C550 C551 1.389 . S
C550 H572 0.929 . S
C551 C547 1.397 . S
C551 C550 1.389 . S
C551 H573 0.931 . S
C552 C549 1.481 . S
C552 C553 1.387 . S
C552 C557 1.390 . S
C553 C552 1.387 . S
C553 C554 1.401 . S
C553 H574 0.930 . S
C554 C553 1.401 . S
C554 C555 1.376 . S
C554 C563 1.511 . S
C555 C554 1.376 . S
C555 C556 1.392 . S
C555 H576 0.931 . S
C556 C555 1.392 . S
C556 C557 1.361 . S
C556 C558 1.500 . S
C557 C552 1.390 . S
C557 C556 1.361 . S
C557 H575 0.931 . S
C558 C556 1.500 . S
C558 C559 1.371 . S
C558 C560 1.365 . S
C559 C558 1.371 . S
C559 C569 1.386 . S
C559 H577 0.931 . S
C560 C558 1.365 . S
C560 C561 1.409 . S
C560 H578 0.929 . S
C561 C560 1.409 . S
C561 C562 1.380 . S
C561 H579 0.930 . S
C562 C561 1.380 . S
C562 C569 1.357 . S
C563 C554 1.511 . S
C563 C564 1.341 . S
C563 C565 1.371 . S
C564 C563 1.341 . S
C564 C568 1.394 . S
C564 H580 0.930 . S
C565 C563 1.371 . S
C565 C566 1.392 . S
C565 H581 0.931 . S
C566 C565 1.392 . S
C566 C567 1.331 . S
C566 H584 0.932 . S
C567 C566 1.331 . S
C567 C568 1.336 . S
C568 C564 1.394 . S
C568 C567 1.336 . S
C568 H583 0.929 . S
C569 C559 1.386 . S
C569 C562 1.357 . S
C569 H582 0.928 . S
H570 C546 0.931 . S
H571 C548 0.930 . S
H572 C550 0.929 . S
H573 C551 0.931 . S
H574 C553 0.930 . S
H575 C557 0.931 . S
H576 C555 0.931 . S
H577 C559 0.931 . S
H578 C560 0.929 . S
H579 C561 0.930 . S
H580 C564 0.930 . S
H581 C565 0.931 . S
H582 C569 0.928 . S
H583 C568 0.929 . S
H584 C566 0.932 . S
C585 C586 1.386 . S
C585 C587 1.397 . S
C585 H609 0.931 . S
C586 C585 1.386 . S
C586 C590 1.397 . S
C587 C585 1.397 . S
C587 C588 1.384 . S
C587 H610 0.930 . S
C588 C587 1.384 . S
C588 C589 1.377 . S
C588 C591 1.481 . S
C589 C588 1.377 . S
C589 C590 1.389 . S
C589 H611 0.929 . S
C590 C586 1.397 . S
C590 C589 1.389 . S
C590 H612 0.931 . S
C591 C588 1.481 . S
C591 C592 1.387 . S
C591 C596 1.390 . S
C592 C591 1.387 . S
C592 C593 1.401 . S
C592 H613 0.930 . S
C593 C592 1.401 . S
C593 C594 1.376 . S
C593 C602 1.511 . S
C594 C593 1.376 . S
C594 C595 1.392 . S
C594 H615 0.931 . S
C595 C594 1.392 . S
C595 C596 1.361 . S
C595 C597 1.500 . S
C596 C591 1.390 . S
C596 C595 1.361 . S
C596 H614 0.931 . S
C597 C595 1.500 . S
C597 C598 1.371 . S
C597 C599 1.365 . S
C598 C597 1.371 . S
C598 C608 1.386 . S
C598 H616 0.931 . S
C599 C597 1.365 . S
C599 C600 1.409 . S
C599 H617 0.929 . S
C600 C599 1.409 . S
C600 C601 1.380 . S
C600 H618 0.930 . S
C601 C600 1.380 . S
C601 C608 1.357 . S
C602 C593 1.511 . S
C602 C603 1.341 . S
C602 C604 1.371 . S
C603 C602 1.341 . S
C603 C607 1.394 . S
C603 H619 0.930 . S
C604 C602 1.371 . S
C604 C605 1.392 . S
C604 H620 0.931 . S
C605 C604 1.392 . S
C605 C606 1.331 . S
C605 H623 0.932 . S
C606 C605 1.331 . S
C606 C607 1.336 . S
C607 C603 1.394 . S
C607 C606 1.336 . S
C607 H622 0.929 . S
C608 C598 1.386 . S
C608 C601 1.357 . S
C608 H621 0.928 . S
H609 C585 0.931 . S
H610 C587 0.930 . S
H611 C589 0.929 . S
H612 C590 0.931 . S
H613 C592 0.930 . S
H614 C596 0.931 . S
H615 C594 0.931 . S
H616 C598 0.931 . S
H617 C599 0.929 . S
H618 C600 0.930 . S
H619 C603 0.930 . S
H620 C604 0.931 . S
H621 C608 0.928 . S
H622 C607 0.929 . S
H623 C605 0.932 . S
C624 C625 1.386 . S
C624 C626 1.397 . S
C624 H648 0.931 . S
C625 C624 1.386 . S
C625 C629 1.397 . S
C626 C624 1.397 . S
C626 C627 1.384 . S
C626 H649 0.930 . S
C627 C626 1.384 . S
C627 C628 1.377 . S
C627 C630 1.481 . S
C628 C627 1.377 . S
C628 C629 1.389 . S
C628 H650 0.929 . S
C629 C625 1.397 . S
C629 C628 1.389 . S
C629 H651 0.931 . S
C630 C627 1.481 . S
C630 C631 1.387 . S
C630 C635 1.390 . S
C631 C630 1.387 . S
C631 C632 1.401 . S
C631 H652 0.930 . S
C632 C631 1.401 . S
C632 C633 1.376 . S
C632 C641 1.511 . S
C633 C632 1.376 . S
C633 C634 1.392 . S
C633 H654 0.931 . S
C634 C633 1.392 . S
C634 C635 1.361 . S
C634 C636 1.500 . S
C635 C630 1.390 . S
C635 C634 1.361 . S
C635 H653 0.931 . S
C636 C634 1.500 . S
C636 C637 1.371 . S
C636 C638 1.365 . S
C637 C636 1.371 . S
C637 C647 1.386 . S
C637 H655 0.931 . S
C638 C636 1.365 . S
C638 C639 1.409 . S
C638 H656 0.929 . S
C639 C638 1.409 . S
C639 C640 1.380 . S
C639 H657 0.930 . S
C640 C639 1.380 . S
C640 C647 1.357 . S
C641 C632 1.511 . S
C641 C642 1.341 . S
C641 C643 1.371 . S
C642 C641 1.341 . S
C642 C646 1.394 . S
C642 H658 0.930 . S
C643 C641 1.371 . S
C643 C644 1.392 . S
C643 H659 0.931 . S
C644 C643 1.392 . S
C644 C645 1.331 . S
C644 H662 0.932 . S
C645 C644 1.331 . S
C645 C646 1.336 . S
C646 C642 1.394 . S
C646 C645 1.336 . S
C646 H661 0.929 . S
C647 C637 1.386 . S
C647 C640 1.357 . S
C647 H660 0.928 . S
H648 C624 0.931 . S
H649 C626 0.930 . S
H650 C628 0.929 . S
H651 C629 0.931 . S
H652 C631 0.930 . S
H653 C635 0.931 . S
H654 C633 0.931 . S
H655 C637 0.931 . S
H656 C638 0.929 . S
H657 C639 0.930 . S
H658 C642 0.930 . S
H659 C643 0.931 . S
H660 C647 0.928 . S
H661 C646 0.929 . S
H662 C644 0.932 . S
C663 C664 1.386 . S
C663 C665 1.397 . S
C663 H687 0.931 . S
C664 C663 1.386 . S
C664 C668 1.397 . S
C665 C663 1.397 . S
C665 C666 1.384 . S
C665 H688 0.930 . S
C666 C665 1.384 . S
C666 C667 1.377 . S
C666 C669 1.481 . S
C667 C666 1.377 . S
C667 C668 1.389 . S
C667 H689 0.929 . S
C668 C664 1.397 . S
C668 C667 1.389 . S
C668 H690 0.931 . S
C669 C666 1.481 . S
C669 C670 1.387 . S
C669 C674 1.390 . S
C670 C669 1.387 . S
C670 C671 1.401 . S
C670 H691 0.930 . S
C671 C670 1.401 . S
C671 C672 1.376 . S
C671 C680 1.511 . S
C672 C671 1.376 . S
C672 C673 1.392 . S
C672 H693 0.931 . S
C673 C672 1.392 . S
C673 C674 1.361 . S
C673 C675 1.500 . S
C674 C669 1.390 . S
C674 C673 1.361 . S
C674 H692 0.931 . S
C675 C673 1.500 . S
C675 C676 1.371 . S
C675 C677 1.365 . S
C676 C675 1.371 . S
C676 C686 1.386 . S
C676 H694 0.931 . S
C677 C675 1.365 . S
C677 C678 1.409 . S
C677 H695 0.929 . S
C678 C677 1.409 . S
C678 C679 1.380 . S
C678 H696 0.930 . S
C679 C678 1.380 . S
C679 C686 1.357 . S
C680 C671 1.511 . S
C680 C681 1.341 . S
C680 C682 1.371 . S
C681 C680 1.341 . S
C681 C685 1.394 . S
C681 H697 0.930 . S
C682 C680 1.371 . S
C682 C683 1.392 . S
C682 H698 0.931 . S
C683 C682 1.392 . S
C683 C684 1.331 . S
C683 H701 0.932 . S
C684 C683 1.331 . S
C684 C685 1.336 . S
C685 C681 1.394 . S
C685 C684 1.336 . S
C685 H700 0.929 . S
C686 C676 1.386 . S
C686 C679 1.357 . S
C686 H699 0.928 . S
H687 C663 0.931 . S
H688 C665 0.930 . S
H689 C667 0.929 . S
H690 C668 0.931 . S
H691 C670 0.930 . S
H692 C674 0.931 . S
H693 C672 0.931 . S
H694 C676 0.931 . S
H695 C677 0.929 . S
H696 C678 0.930 . S
H697 C681 0.930 . S
H698 C682 0.931 . S
H699 C686 0.928 . S
H700 C685 0.929 . S
H701 C683 0.932 . S
Eu702 N733 2.657 . S
Eu702 N740 2.609 . S
Eu702 O746 2.558 . S
Eu702 O747 2.612 1_565 S
Eu702 O749 2.339 1_565 S
Eu702 O750 2.563 1_565 S
Eu702 O751 2.419 . S
Eu702 O753 2.380 1_556 S
Eu702 O754 2.432 . S
Eu702 C766 2.848 . S
C703 C706 1.429 . S
C703 C707 1.411 . S
C703 N710 1.377 . S
C704 C706 1.420 . S
C704 C708 1.423 . S
C704 C716 1.392 . S
C705 C707 1.420 . S
C705 C708 1.351 . S
C705 H728 0.931 . S
C706 C703 1.429 . S
C706 C704 1.420 . S
C706 N714 1.362 . S
C707 C703 1.411 . S
C707 C705 1.420 . S
C707 C712 1.395 . S
C708 C704 1.423 . S
C708 C705 1.351 . S
C708 H720 0.930 . S
C709 C711 1.400 . S
C709 C712 1.386 . S
C709 H721 0.930 . S
N710 C703 1.377 . S
N710 C711 1.321 . S
N710 Eu713 2.609 . S
C711 C709 1.400 . S
C711 N710 1.321 . S
C711 H718 0.930 . S
C712 C707 1.395 . S
C712 C709 1.386 . S
C712 H731 0.930 . S
Eu713 N710 2.609 . S
Eu713 N714 2.657 . S
Eu713 O747 2.380 1_554 S
Eu713 O748 2.432 . S
Eu713 O752 2.558 . S
Eu713 O753 2.612 1_545 S
Eu713 O755 2.339 1_545 S
Eu713 O756 2.563 1_545 S
Eu713 O757 2.419 . S
Eu713 C777 2.848 . S
N714 C706 1.362 . S
N714 Eu713 2.657 . S
N714 C715 1.334 . S
C715 N714 1.334 . S
C715 C717 1.413 . S
C715 H722 0.929 . S
C716 C704 1.392 . S
C716 C717 1.367 . S
C716 H724 0.930 . S
C717 C715 1.413 . S
C717 C716 1.367 . S
C717 H719 0.930 . S
H718 C711 0.930 . S
H719 C717 0.930 . S
H720 C708 0.930 . S
H721 C709 0.930 . S
H722 C715 0.929 . S
H723 C737 0.930 . S
H724 C716 0.930 . S
H725 C743 0.930 . S
H726 C734 0.929 . S
H727 C741 0.930 . S
H728 C705 0.931 . S
H729 C735 0.930 . S
H730 C768 0.930 . S
H731 C712 0.930 . S
H732 C767 0.931 . S
N733 Eu702 2.657 . S
N733 C734 1.334 . S
N733 C738 1.362 . S
C734 H726 0.929 . S
C734 N733 1.334 . S
C734 C737 1.413 . S
C735 H729 0.930 . S
C735 C736 1.392 . S
C735 C737 1.367 . S
C736 C735 1.392 . S
C736 C738 1.420 . S
C736 C768 1.423 . S
C737 H723 0.930 . S
C737 C734 1.413 . S
C737 C735 1.367 . S
C738 N733 1.362 . S
C738 C736 1.420 . S
C738 C742 1.429 . S
H739 C744 0.930 . S
N740 Eu702 2.609 . S
N740 C742 1.377 . S
N740 C743 1.321 . S
C741 H727 0.930 . S
C741 C743 1.400 . S
C741 C744 1.386 . S
C742 C738 1.429 . S
C742 N740 1.377 . S
C742 C745 1.411 . S
C743 H725 0.930 . S
C743 N740 1.321 . S
C743 C741 1.400 . S
C744 H739 0.930 . S
C744 C741 1.386 . S
C744 C745 1.395 . S
C745 C742 1.411 . S
C745 C744 1.395 . S
C745 C767 1.420 . S
O746 Eu702 2.558 . S
O746 C766 1.257 . S
O747 Eu702 2.612 1_545 S
O747 Eu713 2.380 1_556 S
O747 C758 1.276 . S
O748 Eu713 2.432 . S
O748 C765 1.264 1_554 S
O749 Eu702 2.339 1_545 S
O749 C765 1.254 . S
O750 Eu702 2.563 1_545 S
O750 C758 1.235 . S
O751 Eu702 2.419 . S
O751 C766 1.249 . S
O752 Eu713 2.558 . S
O752 C777 1.257 . S
O753 Eu702 2.380 1_554 S
O753 Eu713 2.612 1_565 S
O753 C769 1.276 . S
O754 Eu702 2.432 . S
O754 C776 1.264 1_556 S
O755 Eu713 2.339 1_565 S
O755 C776 1.254 . S
O756 Eu713 2.563 1_565 S
O756 C769 1.235 . S
O757 Eu713 2.419 . S
O757 C777 1.249 . S
C758 O747 1.276 . S
C758 O750 1.235 . S
C759 C761 1.393 1_565 S
C759 C763 1.395 . S
C759 C766 1.492 . S
C760 C761 1.392 . S
C760 C762 1.386 1_545 S
C761 C759 1.393 1_545 S
C761 C760 1.392 . S
C761 H778 0.930 . S
C762 C760 1.386 1_565 S
C762 C764 1.395 . S
C762 H779 0.930 . S
C763 C759 1.395 . S
C763 C764 1.379 . S
C763 H780 0.930 . S
C764 C762 1.395 . S
C764 C763 1.379 . S
C764 H781 0.930 . S
C765 O748 1.264 1_556 S
C765 O749 1.254 . S
C766 Eu702 2.848 . S
C766 O746 1.257 . S
C766 O751 1.249 . S
C766 C759 1.492 . S
C767 H732 0.931 . S
C767 C745 1.420 . S
C767 C768 1.351 . S
C768 H730 0.930 . S
C768 C736 1.423 . S
C768 C767 1.351 . S
C769 O753 1.276 . S
C769 O756 1.235 . S
C770 C771 1.393 1_545 S
C770 C774 1.395 . S
C770 C777 1.492 . S
C771 C770 1.393 1_565 S
C771 C772 1.392 . S
C771 H782 0.930 . S
C772 C771 1.392 . S
C772 C773 1.386 1_565 S
C773 C772 1.386 1_545 S
C773 C775 1.395 . S
C773 H783 0.930 . S
C774 C770 1.395 . S
C774 C775 1.379 . S
C774 H784 0.930 . S
C775 C773 1.395 . S
C775 C774 1.379 . S
C775 H785 0.930 . S
C776 O754 1.264 1_554 S
C776 O755 1.254 . S
C777 Eu713 2.848 . S
C777 O752 1.257 . S
C777 O757 1.249 . S
C777 C770 1.492 . S
H778 C761 0.930 . S
H779 C762 0.930 . S
H780 C763 0.930 . S
H781 C764 0.930 . S
H782 C771 0.930 . S
H783 C773 0.930 . S
H784 C774 0.930 . S
H785 C775 0.930 . S
Eu786 N817 2.657 . S
Eu786 N824 2.609 . S
Eu786 O830 2.558 . S
Eu786 O831 2.612 1_455 S
Eu786 O833 2.339 1_455 S
Eu786 O834 2.563 1_455 S
Eu786 O835 2.419 . S
Eu786 O837 2.380 1_556 S
Eu786 O838 2.432 . S
Eu786 C850 2.848 . S
C787 C790 1.429 . S
C787 C791 1.411 . S
C787 N794 1.377 . S
C788 C790 1.420 . S
C788 C792 1.423 . S
C788 C800 1.392 . S
C789 C791 1.420 . S
C789 C792 1.351 . S
C789 H812 0.931 . S
C790 C787 1.429 . S
C790 C788 1.420 . S
C790 N798 1.362 . S
C791 C787 1.411 . S
C791 C789 1.420 . S
C791 C796 1.395 . S
C792 C788 1.423 . S
C792 C789 1.351 . S
C792 H804 0.930 . S
C793 C795 1.400 . S
C793 C796 1.386 . S
C793 H805 0.930 . S
N794 C787 1.377 . S
N794 C795 1.321 . S
N794 Eu797 2.609 . S
C795 C793 1.400 . S
C795 N794 1.321 . S
C795 H802 0.930 . S
C796 C791 1.395 . S
C796 C793 1.386 . S
C796 H815 0.930 . S
Eu797 N794 2.609 . S
Eu797 N798 2.657 . S
Eu797 O831 2.380 1_554 S
Eu797 O832 2.432 . S
Eu797 O836 2.558 . S
Eu797 O837 2.612 1_655 S
Eu797 O839 2.339 1_655 S
Eu797 O840 2.563 1_655 S
Eu797 O841 2.419 . S
Eu797 C861 2.848 . S
N798 C790 1.362 . S
N798 Eu797 2.657 . S
N798 C799 1.334 . S
C799 N798 1.334 . S
C799 C801 1.413 . S
C799 H806 0.929 . S
C800 C788 1.392 . S
C800 C801 1.367 . S
C800 H808 0.930 . S
C801 C799 1.413 . S
C801 C800 1.367 . S
C801 H803 0.930 . S
H802 C795 0.930 . S
H803 C801 0.930 . S
H804 C792 0.930 . S
H805 C793 0.930 . S
H806 C799 0.929 . S
H807 C821 0.930 . S
H808 C800 0.930 . S
H809 C827 0.930 . S
H810 C818 0.929 . S
H811 C825 0.930 . S
H812 C789 0.931 . S
H813 C819 0.930 . S
H814 C852 0.930 . S
H815 C796 0.930 . S
H816 C851 0.931 . S
N817 Eu786 2.657 . S
N817 C818 1.334 . S
N817 C822 1.362 . S
C818 H810 0.929 . S
C818 N817 1.334 . S
C818 C821 1.413 . S
C819 H813 0.930 . S
C819 C820 1.392 . S
C819 C821 1.367 . S
C820 C819 1.392 . S
C820 C822 1.420 . S
C820 C852 1.423 . S
C821 H807 0.930 . S
C821 C818 1.413 . S
C821 C819 1.367 . S
C822 N817 1.362 . S
C822 C820 1.420 . S
C822 C826 1.429 . S
H823 C828 0.930 . S
N824 Eu786 2.609 . S
N824 C826 1.377 . S
N824 C827 1.321 . S
C825 H811 0.930 . S
C825 C827 1.400 . S
C825 C828 1.386 . S
C826 C822 1.429 . S
C826 N824 1.377 . S
C826 C829 1.411 . S
C827 H809 0.930 . S
C827 N824 1.321 . S
C827 C825 1.400 . S
C828 H823 0.930 . S
C828 C825 1.386 . S
C828 C829 1.395 . S
C829 C826 1.411 . S
C829 C828 1.395 . S
C829 C851 1.420 . S
O830 Eu786 2.558 . S
O830 C850 1.257 . S
O831 Eu786 2.612 1_655 S
O831 Eu797 2.380 1_556 S
O831 C842 1.276 . S
O832 Eu797 2.432 . S
O832 C849 1.264 1_554 S
O833 Eu786 2.339 1_655 S
O833 C849 1.254 . S
O834 Eu786 2.563 1_655 S
O834 C842 1.235 . S
O835 Eu786 2.419 . S
O835 C850 1.249 . S
O836 Eu797 2.558 . S
O836 C861 1.257 . S
O837 Eu786 2.380 1_554 S
O837 Eu797 2.612 1_455 S
O837 C853 1.276 . S
O838 Eu786 2.432 . S
O838 C860 1.264 1_556 S
O839 Eu797 2.339 1_455 S
O839 C860 1.254 . S
O840 Eu797 2.563 1_455 S
O840 C853 1.235 . S
O841 Eu797 2.419 . S
O841 C861 1.249 . S
C842 O831 1.276 . S
C842 O834 1.235 . S
C843 C845 1.393 1_455 S
C843 C847 1.395 . S
C843 C850 1.492 . S
C844 C845 1.392 . S
C844 C846 1.386 1_655 S
C845 C843 1.393 1_655 S
C845 C844 1.392 . S
C845 H862 0.930 . S
C846 C844 1.386 1_455 S
C846 C848 1.395 . S
C846 H863 0.930 . S
C847 C843 1.395 . S
C847 C848 1.379 . S
C847 H864 0.930 . S
C848 C846 1.395 . S
C848 C847 1.379 . S
C848 H865 0.930 . S
C849 O832 1.264 1_556 S
C849 O833 1.254 . S
C850 Eu786 2.848 . S
C850 O830 1.257 . S
C850 O835 1.249 . S
C850 C843 1.492 . S
C851 H816 0.931 . S
C851 C829 1.420 . S
C851 C852 1.351 . S
C852 H814 0.930 . S
C852 C820 1.423 . S
C852 C851 1.351 . S
C853 O837 1.276 . S
C853 O840 1.235 . S
C854 C855 1.393 1_655 S
C854 C858 1.395 . S
C854 C861 1.492 . S
C855 C854 1.393 1_455 S
C855 C856 1.392 . S
C855 H866 0.930 . S
C856 C855 1.392 . S
C856 C857 1.386 1_455 S
C857 C856 1.386 1_655 S
C857 C859 1.395 . S
C857 H867 0.930 . S
C858 C854 1.395 . S
C858 C859 1.379 . S
C858 H868 0.930 . S
C859 C857 1.395 . S
C859 C858 1.379 . S
C859 H869 0.930 . S
C860 O838 1.264 1_554 S
C860 O839 1.254 . S
C861 Eu797 2.848 . S
C861 O836 1.257 . S
C861 O841 1.249 . S
C861 C854 1.492 . S
H862 C845 0.930 . S
H863 C846 0.930 . S
H864 C847 0.930 . S
H865 C848 0.930 . S
H866 C855 0.930 . S
H867 C857 0.930 . S
H868 C858 0.930 . S
H869 C859 0.930 . S
Eu870 N901 2.657 . S
Eu870 N908 2.609 . S
Eu870 O914 2.558 . S
Eu870 O915 2.612 . S
Eu870 O917 2.339 . S
Eu870 O918 2.563 . S
Eu870 O919 2.419 . S
Eu870 O921 2.380 1_554 S
Eu870 O922 2.432 . S
Eu870 C934 2.848 . S
C871 C874 1.429 . S
C871 C875 1.411 . S
C871 N878 1.377 . S
C872 C874 1.420 . S
C872 C876 1.423 . S
C872 C884 1.392 . S
C873 C875 1.420 . S
C873 C876 1.351 . S
C873 H896 0.931 . S
C874 C871 1.429 . S
C874 C872 1.420 . S
C874 N882 1.362 . S
C875 C871 1.411 . S
C875 C873 1.420 . S
C875 C880 1.395 . S
C876 C872 1.423 . S
C876 C873 1.351 . S
C876 H888 0.930 . S
C877 C879 1.400 . S
C877 C880 1.386 . S
C877 H889 0.930 . S
N878 C871 1.377 . S
N878 C879 1.321 . S
N878 Eu881 2.609 . S
C879 C877 1.400 . S
C879 N878 1.321 . S
C879 H886 0.930 . S
C880 C875 1.395 . S
C880 C877 1.386 . S
C880 H899 0.930 . S
Eu881 N878 2.609 . S
Eu881 N882 2.657 . S
Eu881 O915 2.380 1_556 S
Eu881 O916 2.432 . S
Eu881 O920 2.558 . S
Eu881 O921 2.612 . S
Eu881 O923 2.339 . S
Eu881 O924 2.563 . S
Eu881 O925 2.419 . S
Eu881 C945 2.848 . S
N882 C874 1.362 . S
N882 Eu881 2.657 . S
N882 C883 1.334 . S
C883 N882 1.334 . S
C883 C885 1.413 . S
C883 H890 0.929 . S
C884 C872 1.392 . S
C884 C885 1.367 . S
C884 H892 0.930 . S
C885 C883 1.413 . S
C885 C884 1.367 . S
C885 H887 0.930 . S
H886 C879 0.930 . S
H887 C885 0.930 . S
H888 C876 0.930 . S
H889 C877 0.930 . S
H890 C883 0.929 . S
H891 C905 0.930 . S
H892 C884 0.930 . S
H893 C911 0.930 . S
H894 C902 0.929 . S
H895 C909 0.930 . S
H896 C873 0.931 . S
H897 C903 0.930 . S
H898 C936 0.930 . S
H899 C880 0.930 . S
H900 C935 0.931 . S
N901 Eu870 2.657 . S
N901 C902 1.334 . S
N901 C906 1.362 . S
C902 H894 0.929 . S
C902 N901 1.334 . S
C902 C905 1.413 . S
C903 H897 0.930 . S
C903 C904 1.392 . S
C903 C905 1.367 . S
C904 C903 1.392 . S
C904 C906 1.420 . S
C904 C936 1.423 . S
C905 H891 0.930 . S
C905 C902 1.413 . S
C905 C903 1.367 . S
C906 N901 1.362 . S
C906 C904 1.420 . S
C906 C910 1.429 . S
H907 C912 0.930 . S
N908 Eu870 2.609 . S
N908 C910 1.377 . S
N908 C911 1.321 . S
C909 H895 0.930 . S
C909 C911 1.400 . S
C909 C912 1.386 . S
C910 C906 1.429 . S
C910 N908 1.377 . S
C910 C913 1.411 . S
C911 H893 0.930 . S
C911 N908 1.321 . S
C911 C909 1.400 . S
C912 H907 0.930 . S
C912 C909 1.386 . S
C912 C913 1.395 . S
C913 C910 1.411 . S
C913 C912 1.395 . S
C913 C935 1.420 . S
O914 Eu870 2.558 . S
O914 C934 1.257 . S
O915 Eu870 2.612 . S
O915 Eu881 2.380 1_554 S
O915 C926 1.276 . S
O916 Eu881 2.432 . S
O916 C933 1.264 1_556 S
O917 Eu870 2.339 . S
O917 C933 1.254 . S
O918 Eu870 2.563 . S
O918 C926 1.235 . S
O919 Eu870 2.419 . S
O919 C934 1.249 . S
O920 Eu881 2.558 . S
O920 C945 1.257 . S
O921 Eu870 2.380 1_556 S
O921 Eu881 2.612 . S
O921 C937 1.276 . S
O922 Eu870 2.432 . S
O922 C944 1.264 1_554 S
O923 Eu881 2.339 . S
O923 C944 1.254 . S
O924 Eu881 2.563 . S
O924 C937 1.235 . S
O925 Eu881 2.419 . S
O925 C945 1.249 . S
C926 O915 1.276 . S
C926 O918 1.235 . S
C927 C929 1.393 . S
C927 C931 1.395 . S
C927 C934 1.492 . S
C928 C929 1.392 . S
C928 C930 1.386 . S
C929 C927 1.393 . S
C929 C928 1.392 . S
C929 H946 0.930 . S
C930 C928 1.386 . S
C930 C932 1.395 . S
C930 H947 0.930 . S
C931 C927 1.395 . S
C931 C932 1.379 . S
C931 H948 0.930 . S
C932 C930 1.395 . S
C932 C931 1.379 . S
C932 H949 0.930 . S
C933 O916 1.264 1_554 S
C933 O917 1.254 . S
C934 Eu870 2.848 . S
C934 O914 1.257 . S
C934 O919 1.249 . S
C934 C927 1.492 . S
C935 H900 0.931 . S
C935 C913 1.420 . S
C935 C936 1.351 . S
C936 H898 0.930 . S
C936 C904 1.423 . S
C936 C935 1.351 . S
C937 O921 1.276 . S
C937 O924 1.235 . S
C938 C939 1.393 . S
C938 C942 1.395 . S
C938 C945 1.492 . S
C939 C938 1.393 . S
C939 C940 1.392 . S
C939 H950 0.930 . S
C940 C939 1.392 . S
C940 C941 1.386 . S
C941 C940 1.386 . S
C941 C943 1.395 . S
C941 H951 0.930 . S
C942 C938 1.395 . S
C942 C943 1.379 . S
C942 H952 0.930 . S
C943 C941 1.395 . S
C943 C942 1.379 . S
C943 H953 0.930 . S
C944 O922 1.264 1_556 S
C944 O923 1.254 . S
C945 Eu881 2.848 . S
C945 O920 1.257 . S
C945 O925 1.249 . S
C945 C938 1.492 . S
H946 C929 0.930 . S
H947 C930 0.930 . S
H948 C931 0.930 . S
H949 C932 0.930 . S
H950 C939 0.930 . S
H951 C941 0.930 . S
H952 C942 0.930 . S
H953 C943 0.930 . S
Eu954 N985 2.657 . S
Eu954 N992 2.609 . S
Eu954 O998 2.558 . S
Eu954 O999 2.612 . S
Eu954 O1001 2.339 . S
Eu954 O1002 2.563 . S
Eu954 O1003 2.419 . S
Eu954 O1005 2.380 . S
Eu954 O1006 2.432 . S
Eu954 C1018 2.848 . S
C955 C958 1.429 . S
C955 C959 1.411 . S
C955 N962 1.377 . S
C956 C958 1.420 . S
C956 C960 1.423 . S
C956 C968 1.392 . S
C957 C959 1.420 . S
C957 C960 1.351 . S
C957 H980 0.931 . S
C958 C955 1.429 . S
C958 C956 1.420 . S
C958 N966 1.362 . S
C959 C955 1.411 . S
C959 C957 1.420 . S
C959 C964 1.395 . S
C960 C956 1.423 . S
C960 C957 1.351 . S
C960 H972 0.930 . S
C961 C963 1.400 . S
C961 C964 1.386 . S
C961 H973 0.930 . S
N962 C955 1.377 . S
N962 C963 1.321 . S
N962 Eu965 2.609 . S
C963 C961 1.400 . S
C963 N962 1.321 . S
C963 H970 0.930 . S
C964 C959 1.395 . S
C964 C961 1.386 . S
C964 H983 0.930 . S
Eu965 N962 2.609 . S
Eu965 N966 2.657 . S
Eu965 O999 2.380 . S
Eu965 O1000 2.432 . S
Eu965 O1004 2.558 . S
Eu965 O1005 2.612 . S
Eu965 O1007 2.339 . S
Eu965 O1008 2.563 . S
Eu965 O1009 2.419 . S
Eu965 C1029 2.848 . S
N966 C958 1.362 . S
N966 Eu965 2.657 . S
N966 C967 1.334 . S
C967 N966 1.334 . S
C967 C969 1.413 . S
C967 H974 0.929 . S
C968 C956 1.392 . S
C968 C969 1.367 . S
C968 H976 0.930 . S
C969 C967 1.413 . S
C969 C968 1.367 . S
C969 H971 0.930 . S
H970 C963 0.930 . S
H971 C969 0.930 . S
H972 C960 0.930 . S
H973 C961 0.930 . S
H974 C967 0.929 . S
H975 C989 0.930 . S
H976 C968 0.930 . S
H977 C995 0.930 . S
H978 C986 0.929 . S
H979 C993 0.930 . S
H980 C957 0.931 . S
H981 C987 0.930 . S
H982 C1020 0.930 . S
H983 C964 0.930 . S
H984 C1019 0.931 . S
N985 Eu954 2.657 . S
N985 C986 1.334 . S
N985 C990 1.362 . S
C986 H978 0.929 . S
C986 N985 1.334 . S
C986 C989 1.413 . S
C987 H981 0.930 . S
C987 C988 1.392 . S
C987 C989 1.367 . S
C988 C987 1.392 . S
C988 C990 1.420 . S
C988 C1020 1.423 . S
C989 H975 0.930 . S
C989 C986 1.413 . S
C989 C987 1.367 . S
C990 N985 1.362 . S
C990 C988 1.420 . S
C990 C994 1.429 . S
H991 C996 0.930 . S
N992 Eu954 2.609 . S
N992 C994 1.377 . S
N992 C995 1.321 . S
C993 H979 0.930 . S
C993 C995 1.400 . S
C993 C996 1.386 . S
C994 C990 1.429 . S
C994 N992 1.377 . S
C994 C997 1.411 . S
C995 H977 0.930 . S
C995 N992 1.321 . S
C995 C993 1.400 . S
C996 H991 0.930 . S
C996 C993 1.386 . S
C996 C997 1.395 . S
C997 C994 1.411 . S
C997 C996 1.395 . S
C997 C1019 1.420 . S
O998 Eu954 2.558 . S
O998 C1018 1.257 . S
O999 Eu954 2.612 . S
O999 Eu965 2.380 . S
O999 C1010 1.276 . S
O1000 Eu965 2.432 . S
O1000 C1017 1.264 . S
O1001 Eu954 2.339 . S
O1001 C1017 1.254 . S
O1002 Eu954 2.563 . S
O1002 C1010 1.235 . S
O1003 Eu954 2.419 . S
O1003 C1018 1.249 . S
O1004 Eu965 2.558 . S
O1004 C1029 1.257 . S
O1005 Eu954 2.380 . S
O1005 Eu965 2.612 . S
O1005 C1021 1.276 . S
O1006 Eu954 2.432 . S
O1006 C1028 1.264 . S
O1007 Eu965 2.339 . S
O1007 C1028 1.254 . S
O1008 Eu965 2.563 . S
O1008 C1021 1.235 . S
O1009 Eu965 2.419 . S
O1009 C1029 1.249 . S
C1010 O999 1.276 . S
C1010 O1002 1.235 . S
C1011 C1013 1.393 . S
C1011 C1015 1.395 . S
C1011 C1018 1.492 . S
C1012 C1013 1.392 . S
C1012 C1014 1.386 . S
C1013 C1011 1.393 . S
C1013 C1012 1.392 . S
C1013 H1030 0.930 . S
C1014 C1012 1.386 . S
C1014 C1016 1.395 . S
C1014 H1031 0.930 . S
C1015 C1011 1.395 . S
C1015 C1016 1.379 . S
C1015 H1032 0.930 . S
C1016 C1014 1.395 . S
C1016 C1015 1.379 . S
C1016 H1033 0.930 . S
C1017 O1000 1.264 . S
C1017 O1001 1.254 . S
C1018 Eu954 2.848 . S
C1018 O998 1.257 . S
C1018 O1003 1.249 . S
C1018 C1011 1.492 . S
C1019 H984 0.931 . S
C1019 C997 1.420 . S
C1019 C1020 1.351 . S
C1020 H982 0.930 . S
C1020 C988 1.423 . S
C1020 C1019 1.351 . S
C1021 O1005 1.276 . S
C1021 O1008 1.235 . S
C1022 C1023 1.393 . S
C1022 C1026 1.395 . S
C1022 C1029 1.492 . S
C1023 C1022 1.393 . S
C1023 C1024 1.392 . S
C1023 H1034 0.930 . S
C1024 C1023 1.392 . S
C1024 C1025 1.386 . S
C1025 C1024 1.386 . S
C1025 C1027 1.395 . S
C1025 H1035 0.930 . S
C1026 C1022 1.395 . S
C1026 C1027 1.379 . S
C1026 H1036 0.930 . S
C1027 C1025 1.395 . S
C1027 C1026 1.379 . S
C1027 H1037 0.930 . S
C1028 O1006 1.264 . S
C1028 O1007 1.254 . S
C1029 Eu965 2.848 . S
C1029 O1004 1.257 . S
C1029 O1009 1.249 . S
C1029 C1022 1.492 . S
H1030 C1013 0.930 . S
H1031 C1014 0.930 . S
H1032 C1015 0.930 . S
H1033 C1016 0.930 . S
H1034 C1023 0.930 . S
H1035 C1025 0.930 . S
H1036 C1026 0.930 . S
H1037 C1027 0.930 . S
Eu1038 N1069 2.657 . S
Eu1038 N1076 2.609 . S
Eu1038 O1082 2.558 . S
Eu1038 O1083 2.612 . S
Eu1038 O1085 2.339 . S
Eu1038 O1086 2.563 . S
Eu1038 O1087 2.419 . S
Eu1038 O1089 2.380 . S
Eu1038 O1090 2.432 . S
Eu1038 C1102 2.848 . S
C1039 C1042 1.429 . S
C1039 C1043 1.411 . S
C1039 N1046 1.377 . S
C1040 C1042 1.420 . S
C1040 C1044 1.423 . S
C1040 C1052 1.392 . S
C1041 C1043 1.420 . S
C1041 C1044 1.351 . S
C1041 H1064 0.931 . S
C1042 C1039 1.429 . S
C1042 C1040 1.420 . S
C1042 N1050 1.362 . S
C1043 C1039 1.411 . S
C1043 C1041 1.420 . S
C1043 C1048 1.395 . S
C1044 C1040 1.423 . S
C1044 C1041 1.351 . S
C1044 H1056 0.930 . S
C1045 C1047 1.400 . S
C1045 C1048 1.386 . S
C1045 H1057 0.930 . S
N1046 C1039 1.377 . S
N1046 C1047 1.321 . S
N1046 Eu1049 2.609 . S
C1047 C1045 1.400 . S
C1047 N1046 1.321 . S
C1047 H1054 0.930 . S
C1048 C1043 1.395 . S
C1048 C1045 1.386 . S
C1048 H1067 0.930 . S
Eu1049 N1046 2.609 . S
Eu1049 N1050 2.657 . S
Eu1049 O1083 2.380 . S
Eu1049 O1084 2.432 . S
Eu1049 O1088 2.558 . S
Eu1049 O1089 2.612 . S
Eu1049 O1091 2.339 . S
Eu1049 O1092 2.563 . S
Eu1049 O1093 2.419 . S
Eu1049 C1113 2.848 . S
N1050 C1042 1.362 . S
N1050 Eu1049 2.657 . S
N1050 C1051 1.334 . S
C1051 N1050 1.334 . S
C1051 C1053 1.413 . S
C1051 H1058 0.929 . S
C1052 C1040 1.392 . S
C1052 C1053 1.367 . S
C1052 H1060 0.930 . S
C1053 C1051 1.413 . S
C1053 C1052 1.367 . S
C1053 H1055 0.930 . S
H1054 C1047 0.930 . S
H1055 C1053 0.930 . S
H1056 C1044 0.930 . S
H1057 C1045 0.930 . S
H1058 C1051 0.929 . S
H1059 C1073 0.930 . S
H1060 C1052 0.930 . S
H1061 C1079 0.930 . S
H1062 C1070 0.929 . S
H1063 C1077 0.930 . S
H1064 C1041 0.931 . S
H1065 C1071 0.930 . S
H1066 C1104 0.930 . S
H1067 C1048 0.930 . S
H1068 C1103 0.931 . S
N1069 Eu1038 2.657 . S
N1069 C1070 1.334 . S
N1069 C1074 1.362 . S
C1070 H1062 0.929 . S
C1070 N1069 1.334 . S
C1070 C1073 1.413 . S
C1071 H1065 0.930 . S
C1071 C1072 1.392 . S
C1071 C1073 1.367 . S
C1072 C1071 1.392 . S
C1072 C1074 1.420 . S
C1072 C1104 1.423 . S
C1073 H1059 0.930 . S
C1073 C1070 1.413 . S
C1073 C1071 1.367 . S
C1074 N1069 1.362 . S
C1074 C1072 1.420 . S
C1074 C1078 1.429 . S
H1075 C1080 0.930 . S
N1076 Eu1038 2.609 . S
N1076 C1078 1.377 . S
N1076 C1079 1.321 . S
C1077 H1063 0.930 . S
C1077 C1079 1.400 . S
C1077 C1080 1.386 . S
C1078 C1074 1.429 . S
C1078 N1076 1.377 . S
C1078 C1081 1.411 . S
C1079 H1061 0.930 . S
C1079 N1076 1.321 . S
C1079 C1077 1.400 . S
C1080 H1075 0.930 . S
C1080 C1077 1.386 . S
C1080 C1081 1.395 . S
C1081 C1078 1.411 . S
C1081 C1080 1.395 . S
C1081 C1103 1.420 . S
O1082 Eu1038 2.558 . S
O1082 C1102 1.257 . S
O1083 Eu1038 2.612 . S
O1083 Eu1049 2.380 . S
O1083 C1094 1.276 . S
O1084 Eu1049 2.432 . S
O1084 C1101 1.264 . S
O1085 Eu1038 2.339 . S
O1085 C1101 1.254 . S
O1086 Eu1038 2.563 . S
O1086 C1094 1.235 . S
O1087 Eu1038 2.419 . S
O1087 C1102 1.249 . S
O1088 Eu1049 2.558 . S
O1088 C1113 1.257 . S
O1089 Eu1038 2.380 . S
O1089 Eu1049 2.612 . S
O1089 C1105 1.276 . S
O1090 Eu1038 2.432 . S
O1090 C1112 1.264 . S
O1091 Eu1049 2.339 . S
O1091 C1112 1.254 . S
O1092 Eu1049 2.563 . S
O1092 C1105 1.235 . S
O1093 Eu1049 2.419 . S
O1093 C1113 1.249 . S
C1094 O1083 1.276 . S
C1094 O1086 1.235 . S
C1095 C1097 1.393 . S
C1095 C1099 1.395 . S
C1095 C1102 1.492 . S
C1096 C1097 1.392 . S
C1096 C1098 1.386 . S
C1097 C1095 1.393 . S
C1097 C1096 1.392 . S
C1097 H1114 0.930 . S
C1098 C1096 1.386 . S
C1098 C1100 1.395 . S
C1098 H1115 0.930 . S
C1099 C1095 1.395 . S
C1099 C1100 1.379 . S
C1099 H1116 0.930 . S
C1100 C1098 1.395 . S
C1100 C1099 1.379 . S
C1100 H1117 0.930 . S
C1101 O1084 1.264 . S
C1101 O1085 1.254 . S
C1102 Eu1038 2.848 . S
C1102 O1082 1.257 . S
C1102 O1087 1.249 . S
C1102 C1095 1.492 . S
C1103 H1068 0.931 . S
C1103 C1081 1.420 . S
C1103 C1104 1.351 . S
C1104 H1066 0.930 . S
C1104 C1072 1.423 . S
C1104 C1103 1.351 . S
C1105 O1089 1.276 . S
C1105 O1092 1.235 . S
C1106 C1107 1.393 . S
C1106 C1110 1.395 . S
C1106 C1113 1.492 . S
C1107 C1106 1.393 . S
C1107 C1108 1.392 . S
C1107 H1118 0.930 . S
C1108 C1107 1.392 . S
C1108 C1109 1.386 . S
C1109 C1108 1.386 . S
C1109 C1111 1.395 . S
C1109 H1119 0.930 . S
C1110 C1106 1.395 . S
C1110 C1111 1.379 . S
C1110 H1120 0.930 . S
C1111 C1109 1.395 . S
C1111 C1110 1.379 . S
C1111 H1121 0.930 . S
C1112 O1090 1.264 . S
C1112 O1091 1.254 . S
C1113 Eu1049 2.848 . S
C1113 O1088 1.257 . S
C1113 O1093 1.249 . S
C1113 C1106 1.492 . S
H1114 C1097 0.930 . S
H1115 C1098 0.930 . S
H1116 C1099 0.930 . S
H1117 C1100 0.930 . S
H1118 C1107 0.930 . S
H1119 C1109 0.930 . S
H1120 C1110 0.930 . S
H1121 C1111 0.930 . S
Eu1122 N1153 2.657 . S
Eu1122 N1160 2.609 . S
Eu1122 O1166 2.558 . S
Eu1122 O1167 2.612 . S
Eu1122 O1169 2.339 . S
Eu1122 O1170 2.563 . S
Eu1122 O1171 2.419 . S
Eu1122 O1173 2.380 . S
Eu1122 O1174 2.432 . S
Eu1122 C1186 2.848 . S
C1123 C1126 1.429 . S
C1123 C1127 1.411 . S
C1123 N1130 1.377 . S
C1124 C1126 1.420 . S
C1124 C1128 1.423 . S
C1124 C1136 1.392 . S
C1125 C1127 1.420 . S
C1125 C1128 1.351 . S
C1125 H1148 0.931 . S
C1126 C1123 1.429 . S
C1126 C1124 1.420 . S
C1126 N1134 1.362 . S
C1127 C1123 1.411 . S
C1127 C1125 1.420 . S
C1127 C1132 1.395 . S
C1128 C1124 1.423 . S
C1128 C1125 1.351 . S
C1128 H1140 0.930 . S
C1129 C1131 1.400 . S
C1129 C1132 1.386 . S
C1129 H1141 0.930 . S
N1130 C1123 1.377 . S
N1130 C1131 1.321 . S
N1130 Eu1133 2.609 . S
C1131 C1129 1.400 . S
C1131 N1130 1.321 . S
C1131 H1138 0.930 . S
C1132 C1127 1.395 . S
C1132 C1129 1.386 . S
C1132 H1151 0.930 . S
Eu1133 N1130 2.609 . S
Eu1133 N1134 2.657 . S
Eu1133 O1167 2.380 . S
Eu1133 O1168 2.432 . S
Eu1133 O1172 2.558 . S
Eu1133 O1173 2.612 . S
Eu1133 O1175 2.339 . S
Eu1133 O1176 2.563 . S
Eu1133 O1177 2.419 . S
Eu1133 C1197 2.848 . S
N1134 C1126 1.362 . S
N1134 Eu1133 2.657 . S
N1134 C1135 1.334 . S
C1135 N1134 1.334 . S
C1135 C1137 1.413 . S
C1135 H1142 0.929 . S
C1136 C1124 1.392 . S
C1136 C1137 1.367 . S
C1136 H1144 0.930 . S
C1137 C1135 1.413 . S
C1137 C1136 1.367 . S
C1137 H1139 0.930 . S
H1138 C1131 0.930 . S
H1139 C1137 0.930 . S
H1140 C1128 0.930 . S
H1141 C1129 0.930 . S
H1142 C1135 0.929 . S
H1143 C1157 0.930 . S
H1144 C1136 0.930 . S
H1145 C1163 0.930 . S
H1146 C1154 0.929 . S
H1147 C1161 0.930 . S
H1148 C1125 0.931 . S
H1149 C1155 0.930 . S
H1150 C1188 0.930 . S
H1151 C1132 0.930 . S
H1152 C1187 0.931 . S
N1153 Eu1122 2.657 . S
N1153 C1154 1.334 . S
N1153 C1158 1.362 . S
C1154 H1146 0.929 . S
C1154 N1153 1.334 . S
C1154 C1157 1.413 . S
C1155 H1149 0.930 . S
C1155 C1156 1.392 . S
C1155 C1157 1.367 . S
C1156 C1155 1.392 . S
C1156 C1158 1.420 . S
C1156 C1188 1.423 . S
C1157 H1143 0.930 . S
C1157 C1154 1.413 . S
C1157 C1155 1.367 . S
C1158 N1153 1.362 . S
C1158 C1156 1.420 . S
C1158 C1162 1.429 . S
H1159 C1164 0.930 . S
N1160 Eu1122 2.609 . S
N1160 C1162 1.377 . S
N1160 C1163 1.321 . S
C1161 H1147 0.930 . S
C1161 C1163 1.400 . S
C1161 C1164 1.386 . S
C1162 C1158 1.429 . S
C1162 N1160 1.377 . S
C1162 C1165 1.411 . S
C1163 H1145 0.930 . S
C1163 N1160 1.321 . S
C1163 C1161 1.400 . S
C1164 H1159 0.930 . S
C1164 C1161 1.386 . S
C1164 C1165 1.395 . S
C1165 C1162 1.411 . S
C1165 C1164 1.395 . S
C1165 C1187 1.420 . S
O1166 Eu1122 2.558 . S
O1166 C1186 1.257 . S
O1167 Eu1122 2.612 . S
O1167 Eu1133 2.380 . S
O1167 C1178 1.276 . S
O1168 Eu1133 2.432 . S
O1168 C1185 1.264 . S
O1169 Eu1122 2.339 . S
O1169 C1185 1.254 . S
O1170 Eu1122 2.563 . S
O1170 C1178 1.235 . S
O1171 Eu1122 2.419 . S
O1171 C1186 1.249 . S
O1172 Eu1133 2.558 . S
O1172 C1197 1.257 . S
O1173 Eu1122 2.380 . S
O1173 Eu1133 2.612 . S
O1173 C1189 1.276 . S
O1174 Eu1122 2.432 . S
O1174 C1196 1.264 . S
O1175 Eu1133 2.339 . S
O1175 C1196 1.254 . S
O1176 Eu1133 2.563 . S
O1176 C1189 1.235 . S
O1177 Eu1133 2.419 . S
O1177 C1197 1.249 . S
C1178 O1167 1.276 . S
C1178 O1170 1.235 . S
C1179 C1181 1.393 . S
C1179 C1183 1.395 . S
C1179 C1186 1.492 . S
C1180 C1181 1.392 . S
C1180 C1182 1.386 . S
C1181 C1179 1.393 . S
C1181 C1180 1.392 . S
C1181 H1198 0.930 . S
C1182 C1180 1.386 . S
C1182 C1184 1.395 . S
C1182 H1199 0.930 . S
C1183 C1179 1.395 . S
C1183 C1184 1.379 . S
C1183 H1200 0.930 . S
C1184 C1182 1.395 . S
C1184 C1183 1.379 . S
C1184 H1201 0.930 . S
C1185 O1168 1.264 . S
C1185 O1169 1.254 . S
C1186 Eu1122 2.848 . S
C1186 O1166 1.257 . S
C1186 O1171 1.249 . S
C1186 C1179 1.492 . S
C1187 H1152 0.931 . S
C1187 C1165 1.420 . S
C1187 C1188 1.351 . S
C1188 H1150 0.930 . S
C1188 C1156 1.423 . S
C1188 C1187 1.351 . S
C1189 O1173 1.276 . S
C1189 O1176 1.235 . S
C1190 C1191 1.393 . S
C1190 C1194 1.395 . S
C1190 C1197 1.492 . S
C1191 C1190 1.393 . S
C1191 C1192 1.392 . S
C1191 H1202 0.930 . S
C1192 C1191 1.392 . S
C1192 C1193 1.386 . S
C1193 C1192 1.386 . S
C1193 C1195 1.395 . S
C1193 H1203 0.930 . S
C1194 C1190 1.395 . S
C1194 C1195 1.379 . S
C1194 H1204 0.930 . S
C1195 C1193 1.395 . S
C1195 C1194 1.379 . S
C1195 H1205 0.930 . S
C1196 O1174 1.264 . S
C1196 O1175 1.254 . S
C1197 Eu1133 2.848 . S
C1197 O1172 1.257 . S
C1197 O1177 1.249 . S
C1197 C1190 1.492 . S
H1198 C1181 0.930 . S
H1199 C1182 0.930 . S
H1200 C1183 0.930 . S
H1201 C1184 0.930 . S
H1202 C1191 0.930 . S
H1203 C1193 0.930 . S
H1204 C1194 0.930 . S
H1205 C1195 0.930 . S
Eu1206 N1237 2.657 . S
Eu1206 N1244 2.609 . S
Eu1206 O1250 2.558 . S
Eu1206 O1251 2.612 . S
Eu1206 O1253 2.339 . S
Eu1206 O1254 2.563 . S
Eu1206 O1255 2.419 . S
Eu1206 O1257 2.380 . S
Eu1206 O1258 2.432 . S
Eu1206 C1270 2.848 . S
C1207 C1210 1.429 . S
C1207 C1211 1.411 . S
C1207 N1214 1.377 . S
C1208 C1210 1.420 . S
C1208 C1212 1.423 . S
C1208 C1220 1.392 . S
C1209 C1211 1.420 . S
C1209 C1212 1.351 . S
C1209 H1232 0.931 . S
C1210 C1207 1.429 . S
C1210 C1208 1.420 . S
C1210 N1218 1.362 . S
C1211 C1207 1.411 . S
C1211 C1209 1.420 . S
C1211 C1216 1.395 . S
C1212 C1208 1.423 . S
C1212 C1209 1.351 . S
C1212 H1224 0.930 . S
C1213 C1215 1.400 . S
C1213 C1216 1.386 . S
C1213 H1225 0.930 . S
N1214 C1207 1.377 . S
N1214 C1215 1.321 . S
N1214 Eu1217 2.609 . S
C1215 C1213 1.400 . S
C1215 N1214 1.321 . S
C1215 H1222 0.930 . S
C1216 C1211 1.395 . S
C1216 C1213 1.386 . S
C1216 H1235 0.930 . S
Eu1217 N1214 2.609 . S
Eu1217 N1218 2.657 . S
Eu1217 O1251 2.380 . S
Eu1217 O1252 2.432 . S
Eu1217 O1256 2.558 . S
Eu1217 O1257 2.612 . S
Eu1217 O1259 2.339 . S
Eu1217 O1260 2.563 . S
Eu1217 O1261 2.419 . S
Eu1217 C1281 2.848 . S
N1218 C1210 1.362 . S
N1218 Eu1217 2.657 . S
N1218 C1219 1.334 . S
C1219 N1218 1.334 . S
C1219 C1221 1.413 . S
C1219 H1226 0.929 . S
C1220 C1208 1.392 . S
C1220 C1221 1.367 . S
C1220 H1228 0.930 . S
C1221 C1219 1.413 . S
C1221 C1220 1.367 . S
C1221 H1223 0.930 . S
H1222 C1215 0.930 . S
H1223 C1221 0.930 . S
H1224 C1212 0.930 . S
H1225 C1213 0.930 . S
H1226 C1219 0.929 . S
H1227 C1241 0.930 . S
H1228 C1220 0.930 . S
H1229 C1247 0.930 . S
H1230 C1238 0.929 . S
H1231 C1245 0.930 . S
H1232 C1209 0.931 . S
H1233 C1239 0.930 . S
H1234 C1272 0.930 . S
H1235 C1216 0.930 . S
H1236 C1271 0.931 . S
N1237 Eu1206 2.657 . S
N1237 C1238 1.334 . S
N1237 C1242 1.362 . S
C1238 H1230 0.929 . S
C1238 N1237 1.334 . S
C1238 C1241 1.413 . S
C1239 H1233 0.930 . S
C1239 C1240 1.392 . S
C1239 C1241 1.367 . S
C1240 C1239 1.392 . S
C1240 C1242 1.420 . S
C1240 C1272 1.423 . S
C1241 H1227 0.930 . S
C1241 C1238 1.413 . S
C1241 C1239 1.367 . S
C1242 N1237 1.362 . S
C1242 C1240 1.420 . S
C1242 C1246 1.429 . S
H1243 C1248 0.930 . S
N1244 Eu1206 2.609 . S
N1244 C1246 1.377 . S
N1244 C1247 1.321 . S
C1245 H1231 0.930 . S
C1245 C1247 1.400 . S
C1245 C1248 1.386 . S
C1246 C1242 1.429 . S
C1246 N1244 1.377 . S
C1246 C1249 1.411 . S
C1247 H1229 0.930 . S
C1247 N1244 1.321 . S
C1247 C1245 1.400 . S
C1248 H1243 0.930 . S
C1248 C1245 1.386 . S
C1248 C1249 1.395 . S
C1249 C1246 1.411 . S
C1249 C1248 1.395 . S
C1249 C1271 1.420 . S
O1250 Eu1206 2.558 . S
O1250 C1270 1.257 . S
O1251 Eu1206 2.612 . S
O1251 Eu1217 2.380 . S
O1251 C1262 1.276 . S
O1252 Eu1217 2.432 . S
O1252 C1269 1.264 . S
O1253 Eu1206 2.339 . S
O1253 C1269 1.254 . S
O1254 Eu1206 2.563 . S
O1254 C1262 1.235 . S
O1255 Eu1206 2.419 . S
O1255 C1270 1.249 . S
O1256 Eu1217 2.558 . S
O1256 C1281 1.257 . S
O1257 Eu1206 2.380 . S
O1257 Eu1217 2.612 . S
O1257 C1273 1.276 . S
O1258 Eu1206 2.432 . S
O1258 C1280 1.264 . S
O1259 Eu1217 2.339 . S
O1259 C1280 1.254 . S
O1260 Eu1217 2.563 . S
O1260 C1273 1.235 . S
O1261 Eu1217 2.419 . S
O1261 C1281 1.249 . S
C1262 O1251 1.276 . S
C1262 O1254 1.235 . S
C1263 C1265 1.393 . S
C1263 C1267 1.395 . S
C1263 C1270 1.492 . S
C1264 C1265 1.392 . S
C1264 C1266 1.386 . S
C1265 C1263 1.393 . S
C1265 C1264 1.392 . S
C1265 H1282 0.930 . S
C1266 C1264 1.386 . S
C1266 C1268 1.395 . S
C1266 H1283 0.930 . S
C1267 C1263 1.395 . S
C1267 C1268 1.379 . S
C1267 H1284 0.930 . S
C1268 C1266 1.395 . S
C1268 C1267 1.379 . S
C1268 H1285 0.930 . S
C1269 O1252 1.264 . S
C1269 O1253 1.254 . S
C1270 Eu1206 2.848 . S
C1270 O1250 1.257 . S
C1270 O1255 1.249 . S
C1270 C1263 1.492 . S
C1271 H1236 0.931 . S
C1271 C1249 1.420 . S
C1271 C1272 1.351 . S
C1272 H1234 0.930 . S
C1272 C1240 1.423 . S
C1272 C1271 1.351 . S
C1273 O1257 1.276 . S
C1273 O1260 1.235 . S
C1274 C1275 1.393 . S
C1274 C1278 1.395 . S
C1274 C1281 1.492 . S
C1275 C1274 1.393 . S
C1275 C1276 1.392 . S
C1275 H1286 0.930 . S
C1276 C1275 1.392 . S
C1276 C1277 1.386 . S
C1277 C1276 1.386 . S
C1277 C1279 1.395 . S
C1277 H1287 0.930 . S
C1278 C1274 1.395 . S
C1278 C1279 1.379 . S
C1278 H1288 0.930 . S
C1279 C1277 1.395 . S
C1279 C1278 1.379 . S
C1279 H1289 0.930 . S
C1280 O1258 1.264 . S
C1280 O1259 1.254 . S
C1281 Eu1217 2.848 . S
C1281 O1256 1.257 . S
C1281 O1261 1.249 . S
C1281 C1274 1.492 . S
H1282 C1265 0.930 . S
H1283 C1266 0.930 . S
H1284 C1267 0.930 . S
H1285 C1268 0.930 . S
H1286 C1275 0.930 . S
H1287 C1277 0.930 . S
H1288 C1278 0.930 . S
H1289 C1279 0.930 . S
Eu1290 N1321 2.657 . S
Eu1290 N1328 2.609 . S
Eu1290 O1334 2.558 . S
Eu1290 O1335 2.612 . S
Eu1290 O1337 2.339 . S
Eu1290 O1338 2.563 . S
Eu1290 O1339 2.419 . S
Eu1290 O1341 2.380 . S
Eu1290 O1342 2.432 . S
Eu1290 C1354 2.848 . S
C1291 C1294 1.429 . S
C1291 C1295 1.411 . S
C1291 N1298 1.377 . S
C1292 C1294 1.420 . S
C1292 C1296 1.423 . S
C1292 C1304 1.392 . S
C1293 C1295 1.420 . S
C1293 C1296 1.351 . S
C1293 H1316 0.931 . S
C1294 C1291 1.429 . S
C1294 C1292 1.420 . S
C1294 N1302 1.362 . S
C1295 C1291 1.411 . S
C1295 C1293 1.420 . S
C1295 C1300 1.395 . S
C1296 C1292 1.423 . S
C1296 C1293 1.351 . S
C1296 H1308 0.930 . S
C1297 C1299 1.400 . S
C1297 C1300 1.386 . S
C1297 H1309 0.930 . S
N1298 C1291 1.377 . S
N1298 C1299 1.321 . S
N1298 Eu1301 2.609 . S
C1299 C1297 1.400 . S
C1299 N1298 1.321 . S
C1299 H1306 0.930 . S
C1300 C1295 1.395 . S
C1300 C1297 1.386 . S
C1300 H1319 0.930 . S
Eu1301 N1298 2.609 . S
Eu1301 N1302 2.657 . S
Eu1301 O1335 2.380 . S
Eu1301 O1336 2.432 . S
Eu1301 O1340 2.558 . S
Eu1301 O1341 2.612 . S
Eu1301 O1343 2.339 . S
Eu1301 O1344 2.563 . S
Eu1301 O1345 2.419 . S
Eu1301 C1365 2.848 . S
N1302 C1294 1.362 . S
N1302 Eu1301 2.657 . S
N1302 C1303 1.334 . S
C1303 N1302 1.334 . S
C1303 C1305 1.413 . S
C1303 H1310 0.929 . S
C1304 C1292 1.392 . S
C1304 C1305 1.367 . S
C1304 H1312 0.930 . S
C1305 C1303 1.413 . S
C1305 C1304 1.367 . S
C1305 H1307 0.930 . S
H1306 C1299 0.930 . S
H1307 C1305 0.930 . S
H1308 C1296 0.930 . S
H1309 C1297 0.930 . S
H1310 C1303 0.929 . S
H1311 C1325 0.930 . S
H1312 C1304 0.930 . S
H1313 C1331 0.930 . S
H1314 C1322 0.929 . S
H1315 C1329 0.930 . S
H1316 C1293 0.931 . S
H1317 C1323 0.930 . S
H1318 C1356 0.930 . S
H1319 C1300 0.930 . S
H1320 C1355 0.931 . S
N1321 Eu1290 2.657 . S
N1321 C1322 1.334 . S
N1321 C1326 1.362 . S
C1322 H1314 0.929 . S
C1322 N1321 1.334 . S
C1322 C1325 1.413 . S
C1323 H1317 0.930 . S
C1323 C1324 1.392 . S
C1323 C1325 1.367 . S
C1324 C1323 1.392 . S
C1324 C1326 1.420 . S
C1324 C1356 1.423 . S
C1325 H1311 0.930 . S
C1325 C1322 1.413 . S
C1325 C1323 1.367 . S
C1326 N1321 1.362 . S
C1326 C1324 1.420 . S
C1326 C1330 1.429 . S
H1327 C1332 0.930 . S
N1328 Eu1290 2.609 . S
N1328 C1330 1.377 . S
N1328 C1331 1.321 . S
C1329 H1315 0.930 . S
C1329 C1331 1.400 . S
C1329 C1332 1.386 . S
C1330 C1326 1.429 . S
C1330 N1328 1.377 . S
C1330 C1333 1.411 . S
C1331 H1313 0.930 . S
C1331 N1328 1.321 . S
C1331 C1329 1.400 . S
C1332 H1327 0.930 . S
C1332 C1329 1.386 . S
C1332 C1333 1.395 . S
C1333 C1330 1.411 . S
C1333 C1332 1.395 . S
C1333 C1355 1.420 . S
O1334 Eu1290 2.558 . S
O1334 C1354 1.257 . S
O1335 Eu1290 2.612 . S
O1335 Eu1301 2.380 . S
O1335 C1346 1.276 . S
O1336 Eu1301 2.432 . S
O1336 C1353 1.264 . S
O1337 Eu1290 2.339 . S
O1337 C1353 1.254 . S
O1338 Eu1290 2.563 . S
O1338 C1346 1.235 . S
O1339 Eu1290 2.419 . S
O1339 C1354 1.249 . S
O1340 Eu1301 2.558 . S
O1340 C1365 1.257 . S
O1341 Eu1290 2.380 . S
O1341 Eu1301 2.612 . S
O1341 C1357 1.276 . S
O1342 Eu1290 2.432 . S
O1342 C1364 1.264 . S
O1343 Eu1301 2.339 . S
O1343 C1364 1.254 . S
O1344 Eu1301 2.563 . S
O1344 C1357 1.235 . S
O1345 Eu1301 2.419 . S
O1345 C1365 1.249 . S
C1346 O1335 1.276 . S
C1346 O1338 1.235 . S
C1347 C1349 1.393 . S
C1347 C1351 1.395 . S
C1347 C1354 1.492 . S
C1348 C1349 1.392 . S
C1348 C1350 1.386 . S
C1349 C1347 1.393 . S
C1349 C1348 1.392 . S
C1349 H1366 0.930 . S
C1350 C1348 1.386 . S
C1350 C1352 1.395 . S
C1350 H1367 0.930 . S
C1351 C1347 1.395 . S
C1351 C1352 1.379 . S
C1351 H1368 0.930 . S
C1352 C1350 1.395 . S
C1352 C1351 1.379 . S
C1352 H1369 0.930 . S
C1353 O1336 1.264 . S
C1353 O1337 1.254 . S
C1354 Eu1290 2.848 . S
C1354 O1334 1.257 . S
C1354 O1339 1.249 . S
C1354 C1347 1.492 . S
C1355 H1320 0.931 . S
C1355 C1333 1.420 . S
C1355 C1356 1.351 . S
C1356 H1318 0.930 . S
C1356 C1324 1.423 . S
C1356 C1355 1.351 . S
C1357 O1341 1.276 . S
C1357 O1344 1.235 . S
C1358 C1359 1.393 . S
C1358 C1362 1.395 . S
C1358 C1365 1.492 . S
C1359 C1358 1.393 . S
C1359 C1360 1.392 . S
C1359 H1370 0.930 . S
C1360 C1359 1.392 . S
C1360 C1361 1.386 . S
C1361 C1360 1.386 . S
C1361 C1363 1.395 . S
C1361 H1371 0.930 . S
C1362 C1358 1.395 . S
C1362 C1363 1.379 . S
C1362 H1372 0.930 . S
C1363 C1361 1.395 . S
C1363 C1362 1.379 . S
C1363 H1373 0.930 . S
C1364 O1342 1.264 . S
C1364 O1343 1.254 . S
C1365 Eu1301 2.848 . S
C1365 O1340 1.257 . S
C1365 O1345 1.249 . S
C1365 C1358 1.492 . S
H1366 C1349 0.930 . S
H1367 C1350 0.930 . S
H1368 C1351 0.930 . S
H1369 C1352 0.930 . S
H1370 C1359 0.930 . S
H1371 C1361 0.930 . S
H1372 C1362 0.930 . S
H1373 C1363 0.930 . S
Eu1374 N1405 2.657 . S
Eu1374 N1412 2.609 . S
Eu1374 O1418 2.558 . S
Eu1374 O1419 2.612 . S
Eu1374 O1421 2.339 . S
Eu1374 O1422 2.563 . S
Eu1374 O1423 2.419 . S
Eu1374 O1425 2.380 . S
Eu1374 O1426 2.432 . S
Eu1374 C1438 2.848 . S
C1375 C1378 1.429 . S
C1375 C1379 1.411 . S
C1375 N1382 1.377 . S
C1376 C1378 1.420 . S
C1376 C1380 1.423 . S
C1376 C1388 1.392 . S
C1377 C1379 1.420 . S
C1377 C1380 1.351 . S
C1377 H1400 0.931 . S
C1378 C1375 1.429 . S
C1378 C1376 1.420 . S
C1378 N1386 1.362 . S
C1379 C1375 1.411 . S
C1379 C1377 1.420 . S
C1379 C1384 1.395 . S
C1380 C1376 1.423 . S
C1380 C1377 1.351 . S
C1380 H1392 0.930 . S
C1381 C1383 1.400 . S
C1381 C1384 1.386 . S
C1381 H1393 0.930 . S
N1382 C1375 1.377 . S
N1382 C1383 1.321 . S
N1382 Eu1385 2.609 . S
C1383 C1381 1.400 . S
C1383 N1382 1.321 . S
C1383 H1390 0.930 . S
C1384 C1379 1.395 . S
C1384 C1381 1.386 . S
C1384 H1403 0.930 . S
Eu1385 N1382 2.609 . S
Eu1385 N1386 2.657 . S
Eu1385 O1419 2.380 . S
Eu1385 O1420 2.432 . S
Eu1385 O1424 2.558 . S
Eu1385 O1425 2.612 . S
Eu1385 O1427 2.339 . S
Eu1385 O1428 2.563 . S
Eu1385 O1429 2.419 . S
Eu1385 C1449 2.848 . S
N1386 C1378 1.362 . S
N1386 Eu1385 2.657 . S
N1386 C1387 1.334 . S
C1387 N1386 1.334 . S
C1387 C1389 1.413 . S
C1387 H1394 0.929 . S
C1388 C1376 1.392 . S
C1388 C1389 1.367 . S
C1388 H1396 0.930 . S
C1389 C1387 1.413 . S
C1389 C1388 1.367 . S
C1389 H1391 0.930 . S
H1390 C1383 0.930 . S
H1391 C1389 0.930 . S
H1392 C1380 0.930 . S
H1393 C1381 0.930 . S
H1394 C1387 0.929 . S
H1395 C1409 0.930 . S
H1396 C1388 0.930 . S
H1397 C1415 0.930 . S
H1398 C1406 0.929 . S
H1399 C1413 0.930 . S
H1400 C1377 0.931 . S
H1401 C1407 0.930 . S
H1402 C1440 0.930 . S
H1403 C1384 0.930 . S
H1404 C1439 0.931 . S
N1405 Eu1374 2.657 . S
N1405 C1406 1.334 . S
N1405 C1410 1.362 . S
C1406 H1398 0.929 . S
C1406 N1405 1.334 . S
C1406 C1409 1.413 . S
C1407 H1401 0.930 . S
C1407 C1408 1.392 . S
C1407 C1409 1.367 . S
C1408 C1407 1.392 . S
C1408 C1410 1.420 . S
C1408 C1440 1.423 . S
C1409 H1395 0.930 . S
C1409 C1406 1.413 . S
C1409 C1407 1.367 . S
C1410 N1405 1.362 . S
C1410 C1408 1.420 . S
C1410 C1414 1.429 . S
H1411 C1416 0.930 . S
N1412 Eu1374 2.609 . S
N1412 C1414 1.377 . S
N1412 C1415 1.321 . S
C1413 H1399 0.930 . S
C1413 C1415 1.400 . S
C1413 C1416 1.386 . S
C1414 C1410 1.429 . S
C1414 N1412 1.377 . S
C1414 C1417 1.411 . S
C1415 H1397 0.930 . S
C1415 N1412 1.321 . S
C1415 C1413 1.400 . S
C1416 H1411 0.930 . S
C1416 C1413 1.386 . S
C1416 C1417 1.395 . S
C1417 C1414 1.411 . S
C1417 C1416 1.395 . S
C1417 C1439 1.420 . S
O1418 Eu1374 2.558 . S
O1418 C1438 1.257 . S
O1419 Eu1374 2.612 . S
O1419 Eu1385 2.380 . S
O1419 C1430 1.276 . S
O1420 Eu1385 2.432 . S
O1420 C1437 1.264 . S
O1421 Eu1374 2.339 . S
O1421 C1437 1.254 . S
O1422 Eu1374 2.563 . S
O1422 C1430 1.235 . S
O1423 Eu1374 2.419 . S
O1423 C1438 1.249 . S
O1424 Eu1385 2.558 . S
O1424 C1449 1.257 . S
O1425 Eu1374 2.380 . S
O1425 Eu1385 2.612 . S
O1425 C1441 1.276 . S
O1426 Eu1374 2.432 . S
O1426 C1448 1.264 . S
O1427 Eu1385 2.339 . S
O1427 C1448 1.254 . S
O1428 Eu1385 2.563 . S
O1428 C1441 1.235 . S
O1429 Eu1385 2.419 . S
O1429 C1449 1.249 . S
C1430 O1419 1.276 . S
C1430 O1422 1.235 . S
C1431 C1433 1.393 . S
C1431 C1435 1.395 . S
C1431 C1438 1.492 . S
C1432 C1433 1.392 . S
C1432 C1434 1.386 . S
C1433 C1431 1.393 . S
C1433 C1432 1.392 . S
C1433 H1450 0.930 . S
C1434 C1432 1.386 . S
C1434 C1436 1.395 . S
C1434 H1451 0.930 . S
C1435 C1431 1.395 . S
C1435 C1436 1.379 . S
C1435 H1452 0.930 . S
C1436 C1434 1.395 . S
C1436 C1435 1.379 . S
C1436 H1453 0.930 . S
C1437 O1420 1.264 . S
C1437 O1421 1.254 . S
C1438 Eu1374 2.848 . S
C1438 O1418 1.257 . S
C1438 O1423 1.249 . S
C1438 C1431 1.492 . S
C1439 H1404 0.931 . S
C1439 C1417 1.420 . S
C1439 C1440 1.351 . S
C1440 H1402 0.930 . S
C1440 C1408 1.423 . S
C1440 C1439 1.351 . S
C1441 O1425 1.276 . S
C1441 O1428 1.235 . S
C1442 C1443 1.393 . S
C1442 C1446 1.395 . S
C1442 C1449 1.492 . S
C1443 C1442 1.393 . S
C1443 C1444 1.392 . S
C1443 H1454 0.930 . S
C1444 C1443 1.392 . S
C1444 C1445 1.386 . S
C1445 C1444 1.386 . S
C1445 C1447 1.395 . S
C1445 H1455 0.930 . S
C1446 C1442 1.395 . S
C1446 C1447 1.379 . S
C1446 H1456 0.930 . S
C1447 C1445 1.395 . S
C1447 C1446 1.379 . S
C1447 H1457 0.930 . S
C1448 O1426 1.264 . S
C1448 O1427 1.254 . S
C1449 Eu1385 2.848 . S
C1449 O1424 1.257 . S
C1449 O1429 1.249 . S
C1449 C1442 1.492 . S
H1450 C1433 0.930 . S
H1451 C1434 0.930 . S
H1452 C1435 0.930 . S
H1453 C1436 0.930 . S
H1454 C1443 0.930 . S
H1455 C1445 0.930 . S
H1456 C1446 0.930 . S
H1457 C1447 0.930 . S
C1458 C1459 1.391 . S
C1458 C1460 1.394 . S
C1458 H1474 0.931 . S
C1459 C1458 1.391 . S
C1459 C1463 1.376 . S
C1460 C1458 1.394 . S
C1460 C1461 1.369 . S
C1460 C1464 1.531 . S
C1461 C1460 1.369 . S
C1461 C1462 1.410 . S
C1461 C1469 1.503 . S
C1462 C1461 1.410 . S
C1462 C1463 1.392 . S
C1462 C1465 1.511 . S
C1463 C1459 1.376 . S
C1463 C1462 1.392 . S
C1463 H1475 0.929 . S
C1464 C1460 1.531 . S
C1464 H1476 0.960 . S
C1464 H1477 0.962 . S
C1464 H1478 0.960 . S
C1465 C1462 1.511 . S
C1465 H1479 0.961 . S
C1465 H1480 0.961 . S
C1465 H1481 0.961 . S
C1466 C1467 1.370 . S
C1466 C1468 1.363 . S
C1466 H1482 0.931 . S
C1467 C1466 1.370 . S
C1467 C1471 1.408 . S
C1468 C1466 1.363 . S
C1468 C1469 1.370 . S
C1468 C1472 1.524 . S
C1469 C1461 1.503 . S
C1469 C1468 1.370 . S
C1469 C1470 1.403 . S
C1470 C1469 1.403 . S
C1470 C1471 1.404 . S
C1470 C1473 1.539 . S
C1471 C1467 1.408 . S
C1471 C1470 1.404 . S
C1471 H1483 0.930 . S
C1472 C1468 1.524 . S
C1472 H1484 0.956 . S
C1472 H1485 0.961 . S
C1472 H1486 0.961 1_554 S
C1473 C1470 1.539 . S
C1473 H1487 0.958 . S
C1473 H1488 0.961 . S
C1473 H1489 0.960 . S
H1474 C1458 0.931 . S
H1475 C1463 0.929 . S
H1476 C1464 0.960 . S
H1477 C1464 0.962 . S
H1478 C1464 0.960 . S
H1479 C1465 0.961 . S
H1480 C1465 0.961 . S
H1481 C1465 0.961 . S
H1482 C1466 0.931 . S
H1483 C1471 0.930 . S
H1484 C1472 0.956 . S
H1485 C1472 0.961 . S
H1486 C1472 0.961 1_556 S
H1487 C1473 0.958 . S
H1488 C1473 0.961 . S
H1489 C1473 0.960 . S
C1490 C1491 1.391 . S
C1490 C1492 1.394 . S
C1490 H1506 0.931 . S
C1491 C1490 1.391 . S
C1491 C1495 1.376 . S
C1492 C1490 1.394 . S
C1492 C1493 1.369 . S
C1492 C1496 1.531 . S
C1493 C1492 1.369 . S
C1493 C1494 1.410 . S
C1493 C1501 1.503 . S
C1494 C1493 1.410 . S
C1494 C1495 1.392 . S
C1494 C1497 1.511 . S
C1495 C1491 1.376 . S
C1495 C1494 1.392 . S
C1495 H1507 0.929 . S
C1496 C1492 1.531 . S
C1496 H1508 0.960 . S
C1496 H1509 0.962 . S
C1496 H1510 0.960 . S
C1497 C1494 1.511 . S
C1497 H1511 0.961 . S
C1497 H1512 0.961 . S
C1497 H1513 0.961 . S
C1498 C1499 1.370 . S
C1498 C1500 1.363 . S
C1498 H1514 0.931 . S
C1499 C1498 1.370 . S
C1499 C1503 1.408 . S
C1500 C1498 1.363 . S
C1500 C1501 1.370 . S
C1500 C1504 1.524 . S
C1501 C1493 1.503 . S
C1501 C1500 1.370 . S
C1501 C1502 1.403 . S
C1502 C1501 1.403 . S
C1502 C1503 1.404 . S
C1502 C1505 1.539 . S
C1503 C1499 1.408 . S
C1503 C1502 1.404 . S
C1503 H1515 0.930 . S
C1504 C1500 1.524 . S
C1504 H1516 0.956 . S
C1504 H1517 0.961 . S
C1504 H1518 0.961 . S
C1505 C1502 1.539 . S
C1505 H1519 0.958 . S
C1505 H1520 0.961 . S
C1505 H1521 0.960 . S
H1506 C1490 0.931 . S
H1507 C1495 0.929 . S
H1508 C1496 0.960 . S
H1509 C1496 0.962 . S
H1510 C1496 0.960 . S
H1511 C1497 0.961 . S
H1512 C1497 0.961 . S
H1513 C1497 0.961 . S
H1514 C1498 0.931 . S
H1515 C1503 0.930 . S
H1516 C1504 0.956 . S
H1517 C1504 0.961 . S
H1518 C1504 0.961 . S
H1519 C1505 0.958 . S
H1520 C1505 0.961 . S
H1521 C1505 0.960 . S
C1522 C1523 1.391 . S
C1522 C1524 1.394 . S
C1522 H1538 0.931 . S
C1523 C1522 1.391 . S
C1523 C1527 1.376 . S
C1524 C1522 1.394 . S
C1524 C1525 1.369 . S
C1524 C1528 1.531 . S
C1525 C1524 1.369 . S
C1525 C1526 1.410 . S
C1525 C1533 1.503 . S
C1526 C1525 1.410 . S
C1526 C1527 1.392 . S
C1526 C1529 1.511 . S
C1527 C1523 1.376 . S
C1527 C1526 1.392 . S
C1527 H1539 0.929 . S
C1528 C1524 1.531 . S
C1528 H1540 0.960 . S
C1528 H1541 0.962 . S
C1528 H1542 0.960 . S
C1529 C1526 1.511 . S
C1529 H1543 0.961 . S
C1529 H1544 0.961 . S
C1529 H1545 0.961 . S
C1530 C1531 1.370 . S
C1530 C1532 1.363 . S
C1530 H1546 0.954 . S
C1531 C1530 1.370 . S
C1531 C1535 1.408 . S
C1532 C1530 1.363 . S
C1532 C1533 1.370 . S
C1532 C1536 1.524 . S
C1533 C1525 1.503 . S
C1533 C1532 1.370 . S
C1533 C1534 1.403 . S
C1534 C1533 1.403 . S
C1534 C1535 1.404 . S
C1534 C1537 1.539 . S
C1535 C1531 1.408 . S
C1535 C1534 1.404 . S
C1535 H1547 0.930 . S
C1536 C1532 1.524 . S
C1536 H1548 0.956 . S
C1536 H1549 0.961 . S
C1536 H1550 0.961 1_554 S
C1537 C1534 1.539 . S
C1537 H1551 0.958 . S
C1537 H1552 0.961 . S
C1537 H1553 0.960 . S
H1538 C1522 0.931 . S
H1539 C1527 0.929 . S
H1540 C1528 0.960 . S
H1541 C1528 0.962 . S
H1542 C1528 0.960 . S
H1543 C1529 0.961 . S
H1544 C1529 0.961 . S
H1545 C1529 0.961 . S
H1546 C1530 0.954 . S
H1547 C1535 0.930 . S
H1548 C1536 0.956 . S
H1549 C1536 0.961 . S
H1550 C1536 0.961 1_556 S
H1551 C1537 0.958 . S
H1552 C1537 0.961 . S
H1553 C1537 0.960 . S
C1554 C1555 1.391 . S
C1554 C1556 1.394 . S
C1554 H1570 0.931 . S
C1555 C1554 1.391 . S
C1555 C1559 1.376 . S
C1556 C1554 1.394 . S
C1556 C1557 1.369 . S
C1556 C1560 1.531 . S
C1557 C1556 1.369 . S
C1557 C1558 1.410 . S
C1557 C1565 1.503 . S
C1558 C1557 1.410 . S
C1558 C1559 1.392 . S
C1558 C1561 1.511 . S
C1559 C1555 1.376 . S
C1559 C1558 1.392 . S
C1559 H1571 0.929 . S
C1560 C1556 1.531 . S
C1560 H1572 0.960 . S
C1560 H1573 0.962 . S
C1560 H1574 0.960 . S
C1561 C1558 1.511 . S
C1561 H1575 0.961 . S
C1561 H1576 0.961 . S
C1561 H1577 0.961 . S
C1562 C1563 1.370 . S
C1562 C1564 1.363 . S
C1562 H1578 0.931 1_556 S
C1563 C1562 1.370 . S
C1563 C1567 1.408 . S
C1564 C1562 1.363 . S
C1564 C1565 1.370 . S
C1564 C1568 1.524 . S
C1565 C1557 1.503 . S
C1565 C1564 1.370 . S
C1565 C1566 1.403 . S
C1566 C1565 1.403 . S
C1566 C1567 1.404 . S
C1566 C1569 1.539 . S
C1567 C1563 1.408 . S
C1567 C1566 1.404 . S
C1567 H1579 0.930 . S
C1568 C1564 1.524 . S
C1568 H1580 0.956 . S
C1568 H1581 0.961 . S
C1568 H1582 0.961 1_556 S
C1569 C1566 1.539 . S
C1569 H1583 0.958 . S
C1569 H1584 0.961 . S
C1569 H1585 0.960 . S
H1570 C1554 0.931 . S
H1571 C1559 0.929 . S
H1572 C1560 0.960 . S
H1573 C1560 0.962 . S
H1574 C1560 0.960 . S
H1575 C1561 0.961 . S
H1576 C1561 0.961 . S
H1577 C1561 0.961 . S
H1578 C1562 0.931 1_554 S
H1579 C1567 0.930 . S
H1580 C1568 0.956 . S
H1581 C1568 0.961 . S
H1582 C1568 0.961 1_554 S
H1583 C1569 0.958 . S
H1584 C1569 0.961 . S
H1585 C1569 0.960 . S
C1586 C1587 1.391 . S
C1586 C1588 1.394 . S
C1586 H1602 0.931 . S
C1587 C1586 1.391 . S
C1587 C1591 1.376 . S
C1588 C1586 1.394 . S
C1588 C1589 1.369 . S
C1588 C1592 1.531 . S
C1589 C1588 1.369 . S
C1589 C1590 1.410 . S
C1589 C1597 1.503 . S
C1590 C1589 1.410 . S
C1590 C1591 1.392 . S
C1590 C1593 1.511 . S
C1591 C1587 1.376 . S
C1591 C1590 1.392 . S
C1591 H1603 0.929 . S
C1592 C1588 1.531 . S
C1592 H1604 0.960 . S
C1592 H1605 0.962 . S
C1592 H1606 0.960 . S
C1593 C1590 1.511 . S
C1593 H1607 0.961 . S
C1593 H1608 0.961 . S
C1593 H1609 0.961 . S
C1594 C1595 1.370 . S
C1594 C1596 1.363 . S
C1594 H1610 0.931 . S
C1595 C1594 1.370 . S
C1595 C1599 1.408 . S
C1596 C1594 1.363 . S
C1596 C1597 1.370 . S
C1596 C1600 1.524 . S
C1597 C1589 1.503 . S
C1597 C1596 1.370 . S
C1597 C1598 1.403 . S
C1598 C1597 1.403 . S
C1598 C1599 1.404 . S
C1598 C1601 1.500 1_556 S
C1599 C1595 1.408 . S
C1599 C1598 1.404 . S
C1599 H1611 0.930 1_556 S
C1600 C1596 1.524 . S
C1600 H1612 0.956 . S
C1600 H1613 0.961 . S
C1600 H1614 0.961 . S
C1601 C1598 1.500 1_554 S
C1601 H1615 0.962 . S
C1601 H1616 1.019 . S
C1601 H1617 0.942 1_554 S
H1602 C1586 0.931 . S
H1603 C1591 0.929 . S
H1604 C1592 0.960 . S
H1605 C1592 0.962 . S
H1606 C1592 0.960 . S
H1607 C1593 0.961 . S
H1608 C1593 0.961 . S
H1609 C1593 0.961 . S
H1610 C1594 0.931 . S
H1611 C1599 0.930 1_554 S
H1612 C1600 0.956 . S
H1613 C1600 0.961 . S
H1614 C1600 0.961 . S
H1615 C1601 0.962 . S
H1616 C1601 1.019 . S
H1617 C1601 0.942 1_556 S
C1618 C1619 1.391 . S
C1618 C1620 1.394 . S
C1618 H1634 0.931 . S
C1619 C1618 1.391 . S
C1619 C1623 1.376 . S
C1620 C1618 1.394 . S
C1620 C1621 1.369 . S
C1620 C1624 1.531 . S
C1621 C1620 1.369 . S
C1621 C1622 1.410 . S
C1621 C1629 1.503 . S
C1622 C1621 1.410 . S
C1622 C1623 1.392 . S
C1622 C1625 1.511 . S
C1623 C1619 1.376 . S
C1623 C1622 1.392 . S
C1623 H1635 0.929 . S
C1624 C1620 1.531 . S
C1624 H1636 0.949 1_556 S
C1624 H1637 0.962 . S
C1624 H1638 0.960 1_556 S
C1625 C1622 1.511 . S
C1625 H1639 0.961 . S
C1625 H1640 0.961 . S
C1625 H1641 0.961 . S
C1626 C1627 1.370 . S
C1626 C1628 1.363 . S
C1626 H1642 0.931 . S
C1627 C1626 1.370 . S
C1627 C1631 1.408 . S
C1628 C1626 1.363 . S
C1628 C1629 1.370 . S
C1628 C1632 1.524 . S
C1629 C1621 1.503 . S
C1629 C1628 1.370 . S
C1629 C1630 1.403 . S
C1630 C1629 1.403 . S
C1630 C1631 1.404 . S
C1630 C1633 1.539 . S
C1631 C1627 1.408 . S
C1631 C1630 1.404 . S
C1631 H1643 0.930 . S
C1632 C1628 1.524 . S
C1632 H1644 0.956 . S
C1632 H1645 0.961 . S
C1632 H1646 0.961 . S
C1633 C1630 1.539 . S
C1633 H1647 0.958 . S
C1633 H1648 0.961 . S
C1633 H1649 0.960 . S
H1634 C1618 0.931 . S
H1635 C1623 0.929 . S
H1636 C1624 0.949 1_554 S
H1637 C1624 0.962 . S
H1638 C1624 0.960 1_554 S
H1639 C1625 0.961 . S
H1640 C1625 0.961 . S
H1641 C1625 0.961 . S
H1642 C1626 0.931 . S
H1643 C1631 0.930 . S
H1644 C1632 0.956 . S
H1645 C1632 0.961 . S
H1646 C1632 0.961 . S
H1647 C1633 0.958 . S
H1648 C1633 0.961 . S
H1649 C1633 0.960 . S
C1650 C1651 1.391 . S
C1650 C1652 1.394 . S
C1650 H1666 0.931 . S
C1651 C1650 1.391 . S
C1651 C1655 1.376 . S
C1652 C1650 1.394 . S
C1652 C1653 1.369 . S
C1652 C1656 1.531 . S
C1653 C1652 1.369 . S
C1653 C1654 1.410 . S
C1653 C1661 1.503 . S
C1654 C1653 1.410 . S
C1654 C1655 1.392 . S
C1654 C1657 1.511 . S
C1655 C1651 1.376 . S
C1655 C1654 1.392 . S
C1655 H1667 0.929 . S
C1656 C1652 1.531 . S
C1656 H1668 0.960 . S
C1656 H1669 0.962 . S
C1656 H1670 0.960 . S
C1657 C1654 1.511 . S
C1657 H1671 0.961 . S
C1657 H1672 0.961 . S
C1657 H1673 0.961 . S
C1658 C1659 1.370 . S
C1658 C1660 1.363 . S
C1658 H1674 0.931 1_556 S
C1659 C1658 1.370 . S
C1659 C1663 1.408 . S
C1660 C1658 1.363 . S
C1660 C1661 1.370 . S
C1660 C1664 1.524 . S
C1661 C1653 1.503 . S
C1661 C1660 1.370 . S
C1661 C1662 1.403 . S
C1662 C1661 1.403 . S
C1662 C1663 1.404 . S
C1662 C1665 1.539 . S
C1663 C1659 1.408 . S
C1663 C1662 1.404 . S
C1663 H1675 0.930 . S
C1664 C1660 1.524 . S
C1664 H1676 0.956 . S
C1664 H1677 0.961 . S
C1664 H1678 0.961 1_556 S
C1665 C1662 1.539 . S
C1665 H1679 0.958 . S
C1665 H1680 0.961 . S
C1665 H1681 0.960 . S
H1666 C1650 0.931 . S
H1667 C1655 0.929 . S
H1668 C1656 0.960 . S
H1669 C1656 0.962 . S
H1670 C1656 0.960 . S
H1671 C1657 0.961 . S
H1672 C1657 0.961 . S
H1673 C1657 0.961 . S
H1674 C1658 0.931 1_554 S
H1675 C1663 0.930 . S
H1676 C1664 0.956 . S
H1677 C1664 0.961 . S
H1678 C1664 0.961 1_554 S
H1679 C1665 0.958 . S
H1680 C1665 0.961 . S
H1681 C1665 0.960 . S
C1682 C1683 1.391 . S
C1682 C1684 1.394 . S
C1682 H1698 0.931 . S
C1683 C1682 1.391 . S
C1683 C1687 1.376 . S
C1684 C1682 1.394 . S
C1684 C1685 1.369 . S
C1684 C1688 1.531 . S
C1685 C1684 1.369 . S
C1685 C1686 1.410 . S
C1685 C1693 1.503 . S
C1686 C1685 1.410 . S
C1686 C1687 1.392 . S
C1686 C1689 1.511 . S
C1687 C1683 1.376 . S
C1687 C1686 1.392 . S
C1687 H1699 0.929 . S
C1688 C1684 1.531 . S
C1688 H1700 0.960 . S
C1688 H1701 0.962 . S
C1688 H1702 0.960 . S
C1689 C1686 1.511 . S
C1689 H1703 0.961 . S
C1689 H1704 0.961 . S
C1689 H1705 0.961 . S
C1690 C1691 1.370 . S
C1690 C1692 1.363 . S
C1690 H1706 0.931 . S
C1691 C1690 1.370 . S
C1691 C1695 1.408 . S
C1692 C1690 1.363 . S
C1692 C1693 1.370 . S
C1692 C1696 1.524 . S
C1693 C1685 1.503 . S
C1693 C1692 1.370 . S
C1693 C1694 1.403 . S
C1694 C1693 1.403 . S
C1694 C1695 1.404 . S
C1694 C1697 1.539 1_556 S
C1695 C1691 1.408 . S
C1695 C1694 1.404 . S
C1695 H1707 0.930 1_556 S
C1696 C1692 1.524 . S
C1696 H1708 0.956 . S
C1696 H1709 0.961 . S
C1696 H1710 0.961 . S
C1697 C1694 1.539 1_554 S
C1697 H1711 0.958 . S
C1697 H1712 0.961 . S
C1697 H1713 0.960 1_554 S
H1698 C1682 0.931 . S
H1699 C1687 0.929 . S
H1700 C1688 0.960 . S
H1701 C1688 0.962 . S
H1702 C1688 0.960 . S
H1703 C1689 0.961 . S
H1704 C1689 0.961 . S
H1705 C1689 0.961 . S
H1706 C1690 0.931 . S
H1707 C1695 0.930 1_554 S
H1708 C1696 0.956 . S
H1709 C1696 0.961 . S
H1710 C1696 0.961 . S
H1711 C1697 0.958 . S
H1712 C1697 0.961 . S
H1713 C1697 0.960 1_556 S
C1714 C1715 1.391 . S
C1714 C1716 1.394 . S
C1714 H1730 0.931 . S
C1715 C1714 1.391 . S
C1715 C1719 1.376 . S
C1716 C1714 1.394 . S
C1716 C1717 1.369 . S
C1716 C1720 1.531 . S
C1717 C1716 1.369 . S
C1717 C1718 1.410 . S
C1717 C1725 1.503 . S
C1718 C1717 1.410 . S
C1718 C1719 1.392 . S
C1718 C1721 1.511 . S
C1719 C1715 1.376 . S
C1719 C1718 1.392 . S
C1719 H1731 0.929 . S
C1720 C1716 1.531 . S
C1720 H1732 0.960 . S
C1720 H1733 0.962 . S
C1720 H1734 0.960 . S
C1721 C1718 1.511 . S
C1721 H1735 0.961 . S
C1721 H1736 0.961 . S
C1721 H1737 0.961 . S
C1722 C1723 1.370 . S
C1722 C1724 1.363 . S
C1722 H1738 0.931 . S
C1723 C1722 1.370 . S
C1723 C1727 1.408 . S
C1724 C1722 1.363 . S
C1724 C1725 1.370 . S
C1724 C1728 1.524 . S
C1725 C1717 1.503 . S
C1725 C1724 1.370 . S
C1725 C1726 1.403 . S
C1726 C1725 1.403 . S
C1726 C1727 1.404 . S
C1726 C1729 1.532 1_556 S
C1727 C1723 1.408 . S
C1727 C1726 1.404 . S
C1727 H1739 0.930 1_556 S
C1728 C1724 1.524 . S
C1728 H1740 0.956 . S
C1728 H1741 0.961 . S
C1728 H1742 0.961 . S
C1729 C1726 1.532 1_554 S
C1729 H1743 0.955 1_554 S
C1729 H1744 0.973 . S
C1729 H1745 0.955 1_554 S
H1730 C1714 0.931 . S
H1731 C1719 0.929 . S
H1732 C1720 0.960 . S
H1733 C1720 0.962 . S
H1734 C1720 0.960 . S
H1735 C1721 0.961 . S
H1736 C1721 0.961 . S
H1737 C1721 0.961 . S
H1738 C1722 0.931 . S
H1739 C1727 0.930 1_554 S
H1740 C1728 0.956 . S
H1741 C1728 0.961 . S
H1742 C1728 0.961 . S
H1743 C1729 0.955 1_556 S
H1744 C1729 0.973 . S
H1745 C1729 0.955 1_556 S
C1746 C1747 1.391 . S
C1746 C1748 1.394 . S
C1746 H1762 0.931 . S
C1747 C1746 1.391 . S
C1747 C1751 1.376 . S
C1748 C1746 1.394 . S
C1748 C1749 1.369 . S
C1748 C1752 1.531 . S
C1749 C1748 1.369 . S
C1749 C1750 1.410 . S
C1749 C1757 1.503 . S
C1750 C1749 1.410 . S
C1750 C1751 1.392 . S
C1750 C1753 1.511 . S
C1751 C1747 1.376 . S
C1751 C1750 1.392 . S
C1751 H1763 0.929 . S
C1752 C1748 1.531 . S
C1752 H1764 0.960 . S
C1752 H1765 0.962 . S
C1752 H1766 0.960 . S
C1753 C1750 1.511 . S
C1753 H1767 0.961 . S
C1753 H1768 0.961 . S
C1753 H1769 0.961 . S
C1754 C1755 1.370 . S
C1754 C1756 1.363 . S
C1754 H1770 0.931 . S
C1755 C1754 1.370 . S
C1755 C1759 1.408 . S
C1756 C1754 1.363 . S
C1756 C1757 1.370 . S
C1756 C1760 1.524 . S
C1757 C1749 1.503 . S
C1757 C1756 1.370 . S
C1757 C1758 1.403 . S
C1758 C1757 1.403 . S
C1758 C1759 1.404 . S
C1758 C1761 1.539 . S
C1759 C1755 1.408 . S
C1759 C1758 1.404 . S
C1759 H1771 0.930 . S
C1760 C1756 1.524 . S
C1760 H1772 0.956 . S
C1760 H1773 0.961 . S
C1760 H1774 0.961 . S
C1761 C1758 1.539 . S
C1761 H1775 0.958 . S
C1761 H1776 0.961 . S
C1761 H1777 0.960 . S
H1762 C1746 0.931 . S
H1763 C1751 0.929 . S
H1764 C1752 0.960 . S
H1765 C1752 0.962 . S
H1766 C1752 0.960 . S
H1767 C1753 0.961 . S
H1768 C1753 0.961 . S
H1769 C1753 0.961 . S
H1770 C1754 0.931 . S
H1771 C1759 0.930 . S
H1772 C1760 0.956 . S
H1773 C1760 0.961 . S
H1774 C1760 0.961 . S
H1775 C1761 0.958 . S
H1776 C1761 0.961 . S
H1777 C1761 0.960 . S
C1778 C1779 1.391 . S
C1778 C1780 1.394 . S
C1778 H1794 0.931 . S
C1779 C1778 1.391 . S
C1779 C1783 1.376 . S
C1780 C1778 1.394 . S
C1780 C1781 1.369 . S
C1780 C1784 1.531 . S
C1781 C1780 1.369 . S
C1781 C1782 1.410 . S
C1781 C1789 1.503 . S
C1782 C1781 1.410 . S
C1782 C1783 1.392 . S
C1782 C1785 1.511 . S
C1783 C1779 1.376 . S
C1783 C1782 1.392 . S
C1783 H1795 0.929 . S
C1784 C1780 1.531 . S
C1784 H1796 0.960 . S
C1784 H1797 0.962 . S
C1784 H1798 0.960 . S
C1785 C1782 1.511 . S
C1785 H1799 0.961 . S
C1785 H1800 0.961 . S
C1785 H1801 0.961 . S
C1786 C1787 1.370 . S
C1786 C1788 1.363 . S
C1786 H1802 0.931 . S
C1787 C1786 1.370 . S
C1787 C1791 1.408 . S
C1788 C1786 1.363 . S
C1788 C1789 1.370 . S
C1788 C1792 1.524 . S
C1789 C1781 1.503 . S
C1789 C1788 1.370 . S
C1789 C1790 1.403 . S
C1790 C1789 1.403 . S
C1790 C1791 1.404 . S
C1790 C1793 1.539 . S
C1791 C1787 1.408 . S
C1791 C1790 1.404 . S
C1791 H1803 0.930 . S
C1792 C1788 1.524 . S
C1792 H1804 0.956 . S
C1792 H1805 0.961 . S
C1792 H1806 0.961 . S
C1793 C1790 1.539 . S
C1793 H1807 0.958 . S
C1793 H1808 0.961 . S
C1793 H1809 0.960 . S
H1794 C1778 0.931 . S
H1795 C1783 0.929 . S
H1796 C1784 0.960 . S
H1797 C1784 0.962 . S
H1798 C1784 0.960 . S
H1799 C1785 0.961 . S
H1800 C1785 0.961 . S
H1801 C1785 0.961 . S
H1802 C1786 0.931 . S
H1803 C1791 0.930 . S
H1804 C1792 0.956 . S
H1805 C1792 0.961 . S
H1806 C1792 0.961 . S
H1807 C1793 0.958 . S
H1808 C1793 0.961 . S
H1809 C1793 0.960 . S
C1810 C1811 1.391 . S
C1810 C1812 1.394 . S
C1810 H1826 0.931 . S
C1811 C1810 1.391 . S
C1811 C1815 1.376 . S
C1812 C1810 1.394 . S
C1812 C1813 1.369 . S
C1812 C1816 1.531 . S
C1813 C1812 1.369 . S
C1813 C1814 1.410 . S
C1813 C1821 1.503 . S
C1814 C1813 1.410 . S
C1814 C1815 1.392 . S
C1814 C1817 1.511 . S
C1815 C1811 1.376 . S
C1815 C1814 1.392 . S
C1815 H1827 0.929 . S
C1816 C1812 1.531 . S
C1816 H1828 0.960 . S
C1816 H1829 0.962 . S
C1816 H1830 0.960 . S
C1817 C1814 1.511 . S
C1817 H1831 0.961 . S
C1817 H1832 0.961 . S
C1817 H1833 0.961 . S
C1818 C1819 1.370 . S
C1818 C1820 1.363 . S
C1818 H1834 0.931 . S
C1819 C1818 1.370 . S
C1819 C1823 1.408 . S
C1820 C1818 1.363 . S
C1820 C1821 1.370 . S
C1820 C1824 1.524 . S
C1821 C1813 1.503 . S
C1821 C1820 1.370 . S
C1821 C1822 1.403 . S
C1822 C1821 1.403 . S
C1822 C1823 1.404 . S
C1822 C1825 1.539 . S
C1823 C1819 1.408 . S
C1823 C1822 1.404 . S
C1823 H1835 0.930 . S
C1824 C1820 1.524 . S
C1824 H1836 0.956 . S
C1824 H1837 0.961 . S
C1824 H1838 0.961 . S
C1825 C1822 1.539 . S
C1825 H1839 0.958 . S
C1825 H1840 0.961 . S
C1825 H1841 0.960 . S
H1826 C1810 0.931 . S
H1827 C1815 0.929 . S
H1828 C1816 0.960 . S
H1829 C1816 0.962 . S
H1830 C1816 0.960 . S
H1831 C1817 0.961 . S
H1832 C1817 0.961 . S
H1833 C1817 0.961 . S
H1834 C1818 0.931 . S
H1835 C1823 0.930 . S
H1836 C1824 0.956 . S
H1837 C1824 0.961 . S
H1838 C1824 0.961 . S
H1839 C1825 0.958 . S
H1840 C1825 0.961 . S
H1841 C1825 0.960 . S
C1842 C1843 1.391 1_455 S
C1842 C1844 1.394 . S
C1842 H1858 0.931 . S
C1843 C1842 1.391 1_655 S
C1843 C1847 1.376 . S
C1844 C1842 1.394 . S
C1844 C1845 1.369 . S
C1844 C1848 1.531 . S
C1845 C1844 1.369 . S
C1845 C1846 1.410 . S
C1845 C1853 1.503 . S
C1846 C1845 1.410 . S
C1846 C1847 1.392 1_455 S
C1846 C1849 1.511 . S
C1847 C1843 1.376 . S
C1847 C1846 1.392 1_655 S
C1847 H1859 0.929 . S
C1848 C1844 1.531 . S
C1848 H1860 0.960 . S
C1848 H1861 0.962 . S
C1848 H1862 0.960 . S
C1849 C1846 1.511 . S
C1849 H1863 0.961 . S
C1849 H1864 0.961 . S
C1849 H1865 0.961 . S
C1850 C1851 1.370 . S
C1850 C1852 1.363 . S
C1850 H1866 0.931 . S
C1851 C1850 1.370 . S
C1851 C1855 1.408 . S
C1852 C1850 1.363 . S
C1852 C1853 1.370 . S
C1852 C1856 1.524 . S
C1853 C1845 1.503 . S
C1853 C1852 1.370 . S
C1853 C1854 1.403 . S
C1854 C1853 1.403 . S
C1854 C1855 1.404 . S
C1854 C1857 1.539 . S
C1855 C1851 1.408 . S
C1855 C1854 1.404 . S
C1855 H1867 0.930 . S
C1856 C1852 1.524 . S
C1856 H1868 0.956 . S
C1856 H1869 0.961 . S
C1856 H1870 0.961 . S
C1857 C1854 1.539 . S
C1857 H1871 0.958 . S
C1857 H1872 0.961 . S
C1857 H1873 0.960 . S
H1858 C1842 0.931 . S
H1859 C1847 0.929 . S
H1860 C1848 0.960 . S
H1861 C1848 0.962 . S
H1862 C1848 0.960 . S
H1863 C1849 0.961 . S
H1864 C1849 0.961 . S
H1865 C1849 0.961 . S
H1866 C1850 0.931 . S
H1867 C1855 0.930 . S
H1868 C1856 0.956 . S
H1869 C1856 0.961 . S
H1870 C1856 0.961 . S
H1871 C1857 0.958 . S
H1872 C1857 0.961 . S
H1873 C1857 0.960 . S
C1874 C1875 1.391 . S
C1874 C1876 1.394 . S
C1874 H1890 0.931 . S
C1875 C1874 1.391 . S
C1875 C1879 1.376 . S
C1876 C1874 1.394 . S
C1876 C1877 1.369 . S
C1876 C1880 1.531 . S
C1877 C1876 1.369 . S
C1877 C1878 1.410 . S
C1877 C1885 1.503 . S
C1878 C1877 1.410 . S
C1878 C1879 1.392 . S
C1878 C1881 1.511 . S
C1879 C1875 1.376 . S
C1879 C1878 1.392 . S
C1879 H1891 0.929 . S
C1880 C1876 1.531 . S
C1880 H1892 0.960 . S
C1880 H1893 0.962 . S
C1880 H1894 0.960 . S
C1881 C1878 1.511 . S
C1881 H1895 0.961 . S
C1881 H1896 0.961 . S
C1881 H1897 0.961 . S
C1882 C1883 1.370 . S
C1882 C1884 1.363 . S
C1882 H1898 0.931 . S
C1883 C1882 1.370 . S
C1883 C1887 1.408 . S
C1884 C1882 1.363 . S
C1884 C1885 1.370 . S
C1884 C1888 1.524 . S
C1885 C1877 1.503 . S
C1885 C1884 1.370 . S
C1885 C1886 1.403 . S
C1886 C1885 1.403 . S
C1886 C1887 1.404 . S
C1886 C1889 1.539 . S
C1887 C1883 1.408 . S
C1887 C1886 1.404 . S
C1887 H1899 0.930 . S
C1888 C1884 1.524 . S
C1888 H1900 0.956 . S
C1888 H1901 0.961 . S
C1888 H1902 0.961 . S
C1889 C1886 1.539 . S
C1889 H1903 0.958 . S
C1889 H1904 0.961 . S
C1889 H1905 0.960 . S
H1890 C1874 0.931 . S
H1891 C1879 0.929 . S
H1892 C1880 0.960 . S
H1893 C1880 0.962 . S
H1894 C1880 0.960 . S
H1895 C1881 0.961 . S
H1896 C1881 0.961 . S
H1897 C1881 0.961 . S
H1898 C1882 0.931 . S
H1899 C1887 0.930 . S
H1900 C1888 0.956 . S
H1901 C1888 0.961 . S
H1902 C1888 0.961 . S
H1903 C1889 0.958 . S
H1904 C1889 0.961 . S
H1905 C1889 0.960 . S
C1906 C1907 1.391 . S
C1906 C1908 1.394 1_545 S
C1906 H1922 0.931 . S
C1907 C1906 1.391 . S
C1907 C1911 1.376 . S
C1908 C1906 1.394 1_565 S
C1908 C1909 1.369 . S
C1908 C1912 1.531 . S
C1909 C1908 1.369 . S
C1909 C1910 1.410 . S
C1909 C1917 1.503 . S
C1910 C1909 1.410 . S
C1910 C1911 1.392 1_565 S
C1910 C1913 1.511 . S
C1911 C1907 1.376 . S
C1911 C1910 1.392 1_545 S
C1911 H1923 0.929 . S
C1912 C1908 1.531 . S
C1912 H1924 0.960 . S
C1912 H1925 0.962 . S
C1912 H1926 0.960 . S
C1913 C1910 1.511 . S
C1913 H1927 0.961 . S
C1913 H1928 0.961 . S
C1913 H1929 0.961 . S
C1914 C1915 1.370 . S
C1914 C1916 1.363 . S
C1914 H1930 0.931 . S
C1915 C1914 1.370 . S
C1915 C1919 1.408 . S
C1916 C1914 1.363 . S
C1916 C1917 1.370 . S
C1916 C1920 1.524 . S
C1917 C1909 1.503 . S
C1917 C1916 1.370 . S
C1917 C1918 1.403 . S
C1918 C1917 1.403 . S
C1918 C1919 1.404 . S
C1918 C1921 1.539 . S
C1919 C1915 1.408 . S
C1919 C1918 1.404 . S
C1919 H1931 0.930 . S
C1920 C1916 1.524 . S
C1920 H1932 0.956 . S
C1920 H1933 0.961 . S
C1920 H1934 0.961 . S
C1921 C1918 1.539 . S
C1921 H1935 0.958 . S
C1921 H1936 0.961 . S
C1921 H1937 0.960 . S
H1922 C1906 0.931 . S
H1923 C1911 0.929 . S
H1924 C1912 0.960 . S
H1925 C1912 0.962 . S
H1926 C1912 0.960 . S
H1927 C1913 0.961 . S
H1928 C1913 0.961 . S
H1929 C1913 0.961 . S
H1930 C1914 0.931 . S
H1931 C1919 0.930 . S
H1932 C1920 0.956 . S
H1933 C1920 0.961 . S
H1934 C1920 0.961 . S
H1935 C1921 0.958 . S
H1936 C1921 0.961 . S
H1937 C1921 0.960 . S
C1938 C1939 1.391 . S
C1938 C1940 1.394 . S
C1938 H1954 0.931 . S
C1939 C1938 1.391 . S
C1939 C1943 1.376 . S
C1940 C1938 1.394 . S
C1940 C1941 1.369 . S
C1940 C1944 1.531 . S
C1941 C1940 1.369 . S
C1941 C1942 1.410 . S
C1941 C1949 1.503 . S
C1942 C1941 1.410 . S
C1942 C1943 1.392 . S
C1942 C1945 1.511 . S
C1943 C1939 1.376 . S
C1943 C1942 1.392 . S
C1943 H1955 0.929 . S
C1944 C1940 1.531 . S
C1944 H1956 0.960 . S
C1944 H1957 0.962 . S
C1944 H1958 0.960 . S
C1945 C1942 1.511 . S
C1945 H1959 0.961 . S
C1945 H1960 0.961 . S
C1945 H1961 0.961 . S
C1946 C1947 1.370 . S
C1946 C1948 1.363 . S
C1946 H1962 0.931 . S
C1947 C1946 1.370 . S
C1947 C1951 1.408 . S
C1948 C1946 1.363 . S
C1948 C1949 1.370 . S
C1948 C1952 1.524 . S
C1949 C1941 1.503 . S
C1949 C1948 1.370 . S
C1949 C1950 1.403 . S
C1950 C1949 1.403 . S
C1950 C1951 1.404 . S
C1950 C1953 1.539 . S
C1951 C1947 1.408 . S
C1951 C1950 1.404 . S
C1951 H1963 0.930 . S
C1952 C1948 1.524 . S
C1952 H1964 0.956 . S
C1952 H1965 0.961 . S
C1952 H1966 0.961 . S
C1953 C1950 1.539 . S
C1953 H1967 0.958 . S
C1953 H1968 0.961 . S
C1953 H1969 0.960 . S
H1954 C1938 0.931 . S
H1955 C1943 0.929 . S
H1956 C1944 0.960 . S
H1957 C1944 0.962 . S
H1958 C1944 0.960 . S
H1959 C1945 0.961 . S
H1960 C1945 0.961 . S
H1961 C1945 0.961 . S
H1962 C1946 0.931 . S
H1963 C1951 0.930 . S
H1964 C1952 0.956 . S
H1965 C1952 0.961 . S
H1966 C1952 0.961 . S
H1967 C1953 0.958 . S
H1968 C1953 0.961 . S
H1969 C1953 0.960 . S
C1970 C1971 1.391 . S
C1970 C1972 1.394 . S
C1970 H1986 0.931 . S
C1971 C1970 1.391 . S
C1971 C1975 1.376 . S
C1972 C1970 1.394 . S
C1972 C1973 1.369 . S
C1972 C1976 1.531 . S
C1973 C1972 1.369 . S
C1973 C1974 1.410 . S
C1973 C1981 1.503 . S
C1974 C1973 1.410 . S
C1974 C1975 1.392 . S
C1974 C1977 1.511 . S
C1975 C1971 1.376 . S
C1975 C1974 1.392 . S
C1975 H1987 0.929 . S
C1976 C1972 1.531 . S
C1976 H1988 0.960 . S
C1976 H1989 0.962 . S
C1976 H1990 0.960 . S
C1977 C1974 1.511 . S
C1977 H1991 0.961 . S
C1977 H1992 0.961 . S
C1977 H1993 0.961 . S
C1978 C1979 1.370 . S
C1978 C1980 1.363 . S
C1978 H1994 0.931 . S
C1979 C1978 1.370 . S
C1979 C1983 1.408 . S
C1980 C1978 1.363 . S
C1980 C1981 1.370 . S
C1980 C1984 1.524 . S
C1981 C1973 1.503 . S
C1981 C1980 1.370 . S
C1981 C1982 1.403 . S
C1982 C1981 1.403 . S
C1982 C1983 1.404 . S
C1982 C1985 1.539 . S
C1983 C1979 1.408 . S
C1983 C1982 1.404 . S
C1983 H1995 0.930 . S
C1984 C1980 1.524 . S
C1984 H1996 0.956 . S
C1984 H1997 0.961 . S
C1984 H1998 0.961 . S
C1985 C1982 1.539 . S
C1985 H1999 0.958 . S
C1985 H2000 0.961 . S
C1985 H2001 0.960 . S
H1986 C1970 0.931 . S
H1987 C1975 0.929 . S
H1988 C1976 0.960 . S
H1989 C1976 0.962 . S
H1990 C1976 0.960 . S
H1991 C1977 0.961 . S
H1992 C1977 0.961 . S
H1993 C1977 0.961 . S
H1994 C1978 0.931 . S
H1995 C1983 0.930 . S
H1996 C1984 0.956 . S
H1997 C1984 0.961 . S
H1998 C1984 0.961 . S
H1999 C1985 0.958 . S
H2000 C1985 0.961 . S
H2001 C1985 0.960 . S
C2002 C2003 1.391 . S
C2002 C2004 1.394 . S
C2002 H2018 0.931 . S
C2003 C2002 1.391 . S
C2003 C2007 1.376 . S
C2004 C2002 1.394 . S
C2004 C2005 1.369 . S
C2004 C2008 1.531 . S
C2005 C2004 1.369 . S
C2005 C2006 1.410 . S
C2005 C2013 1.503 . S
C2006 C2005 1.410 . S
C2006 C2007 1.392 . S
C2006 C2009 1.511 . S
C2007 C2003 1.376 . S
C2007 C2006 1.392 . S
C2007 H2019 0.929 . S
C2008 C2004 1.531 . S
C2008 H2020 0.960 . S
C2008 H2021 0.962 . S
C2008 H2022 0.960 . S
C2009 C2006 1.511 . S
C2009 H2023 0.961 . S
C2009 H2024 0.961 . S
C2009 H2025 0.961 . S
C2010 C2011 1.370 . S
C2010 C2012 1.363 . S
C2010 H2026 0.931 . S
C2011 C2010 1.370 . S
C2011 C2015 1.408 . S
C2012 C2010 1.363 . S
C2012 C2013 1.370 . S
C2012 C2016 1.524 . S
C2013 C2005 1.503 . S
C2013 C2012 1.370 . S
C2013 C2014 1.403 . S
C2014 C2013 1.403 . S
C2014 C2015 1.404 . S
C2014 C2017 1.539 . S
C2015 C2011 1.408 . S
C2015 C2014 1.404 . S
C2015 H2027 0.930 . S
C2016 C2012 1.524 . S
C2016 H2028 0.956 . S
C2016 H2029 0.961 . S
C2016 H2030 0.961 . S
C2017 C2014 1.539 . S
C2017 H2031 0.958 . S
C2017 H2032 0.961 . S
C2017 H2033 0.960 . S
H2018 C2002 0.931 . S
H2019 C2007 0.929 . S
H2020 C2008 0.960 . S
H2021 C2008 0.962 . S
H2022 C2008 0.960 . S
H2023 C2009 0.961 . S
H2024 C2009 0.961 . S
H2025 C2009 0.961 . S
H2026 C2010 0.931 . S
H2027 C2015 0.930 . S
H2028 C2016 0.956 . S
H2029 C2016 0.961 . S
H2030 C2016 0.961 . S
H2031 C2017 0.958 . S
H2032 C2017 0.961 . S
H2033 C2017 0.960 . S
C2034 C2035 1.391 . S
C2034 C2036 1.394 . S
C2034 H2050 0.931 . S
C2035 C2034 1.391 . S
C2035 C2039 1.376 . S
C2036 C2034 1.394 . S
C2036 C2037 1.369 . S
C2036 C2040 1.531 . S
C2037 C2036 1.369 . S
C2037 C2038 1.410 . S
C2037 C2045 1.503 . S
C2038 C2037 1.410 . S
C2038 C2039 1.392 . S
C2038 C2041 1.511 . S
C2039 C2035 1.376 . S
C2039 C2038 1.392 . S
C2039 H2051 0.929 . S
C2040 C2036 1.531 . S
C2040 H2052 0.960 . S
C2040 H2053 0.962 . S
C2040 H2054 0.960 . S
C2041 C2038 1.511 . S
C2041 H2055 0.961 . S
C2041 H2056 0.961 . S
C2041 H2057 0.961 . S
C2042 C2043 1.370 . S
C2042 C2044 1.363 . S
C2042 H2058 0.931 . S
C2043 C2042 1.370 . S
C2043 C2047 1.408 . S
C2044 C2042 1.363 . S
C2044 C2045 1.370 . S
C2044 C2048 1.524 . S
C2045 C2037 1.503 . S
C2045 C2044 1.370 . S
C2045 C2046 1.403 . S
C2046 C2045 1.403 . S
C2046 C2047 1.404 . S
C2046 C2049 1.539 . S
C2047 C2043 1.408 . S
C2047 C2046 1.404 . S
C2047 H2059 0.930 . S
C2048 C2044 1.524 . S
C2048 H2060 0.956 . S
C2048 H2061 0.961 . S
C2048 H2062 0.961 . S
C2049 C2046 1.539 . S
C2049 H2063 0.958 . S
C2049 H2064 0.961 . S
C2049 H2065 0.960 . S
H2050 C2034 0.931 . S
H2051 C2039 0.929 . S
H2052 C2040 0.960 . S
H2053 C2040 0.962 . S
H2054 C2040 0.960 . S
H2055 C2041 0.961 . S
H2056 C2041 0.961 . S
H2057 C2041 0.961 . S
H2058 C2042 0.931 . S
H2059 C2047 0.930 . S
H2060 C2048 0.956 . S
H2061 C2048 0.961 . S
H2062 C2048 0.961 . S
H2063 C2049 0.958 . S
H2064 C2049 0.961 . S
H2065 C2049 0.960 . S
C2066 C2067 1.391 . S
C2066 C2068 1.394 . S
C2066 H2082 0.931 . S
C2067 C2066 1.391 . S
C2067 C2071 1.376 . S
C2068 C2066 1.394 . S
C2068 C2069 1.369 . S
C2068 C2072 1.531 . S
C2069 C2068 1.369 . S
C2069 C2070 1.410 . S
C2069 C2077 1.503 . S
C2070 C2069 1.410 . S
C2070 C2071 1.392 . S
C2070 C2073 1.511 . S
C2071 C2067 1.376 . S
C2071 C2070 1.392 . S
C2071 H2083 0.929 . S
C2072 C2068 1.531 . S
C2072 H2084 0.960 . S
C2072 H2085 0.962 . S
C2072 H2086 0.960 . S
C2073 C2070 1.511 . S
C2073 H2087 0.961 . S
C2073 H2088 0.961 . S
C2073 H2089 0.961 . S
C2074 C2075 1.370 . S
C2074 C2076 1.363 . S
C2074 H2090 0.931 . S
C2075 C2074 1.370 . S
C2075 C2079 1.408 . S
C2076 C2074 1.363 . S
C2076 C2077 1.370 . S
C2076 C2080 1.524 . S
C2077 C2069 1.503 . S
C2077 C2076 1.370 . S
C2077 C2078 1.403 . S
C2078 C2077 1.403 . S
C2078 C2079 1.404 . S
C2078 C2081 1.539 . S
C2079 C2075 1.408 . S
C2079 C2078 1.404 . S
C2079 H2091 0.930 . S
C2080 C2076 1.524 . S
C2080 H2092 0.956 . S
C2080 H2093 0.961 . S
C2080 H2094 0.961 . S
C2081 C2078 1.539 . S
C2081 H2095 0.958 . S
C2081 H2096 0.961 . S
C2081 H2097 0.960 . S
H2082 C2066 0.931 . S
H2083 C2071 0.929 . S
H2084 C2072 0.960 . S
H2085 C2072 0.962 . S
H2086 C2072 0.960 . S
H2087 C2073 0.961 . S
H2088 C2073 0.961 . S
H2089 C2073 0.961 . S
H2090 C2074 0.931 . S
H2091 C2079 0.930 . S
H2092 C2080 0.956 . S
H2093 C2080 0.961 . S
H2094 C2080 0.961 . S
H2095 C2081 0.958 . S
H2096 C2081 0.961 . S
H2097 C2081 0.960 . S
C2098 C2099 1.391 . S
C2098 C2100 1.394 . S
C2098 H2114 0.931 . S
C2099 C2098 1.391 . S
C2099 C2103 1.376 . S
C2100 C2098 1.394 . S
C2100 C2101 1.369 . S
C2100 C2104 1.531 . S
C2101 C2100 1.369 . S
C2101 C2102 1.410 . S
C2101 C2109 1.503 . S
C2102 C2101 1.410 . S
C2102 C2103 1.392 . S
C2102 C2105 1.511 . S
C2103 C2099 1.376 . S
C2103 C2102 1.392 . S
C2103 H2115 0.929 . S
C2104 C2100 1.531 . S
C2104 H2116 0.960 . S
C2104 H2117 0.962 . S
C2104 H2118 0.960 . S
C2105 C2102 1.511 . S
C2105 H2119 0.961 . S
C2105 H2120 0.961 . S
C2105 H2121 0.961 . S
C2106 C2107 1.370 . S
C2106 C2108 1.363 . S
C2106 H2122 0.931 . S
C2107 C2106 1.370 . S
C2107 C2111 1.408 . S
C2108 C2106 1.363 . S
C2108 C2109 1.370 . S
C2108 C2112 1.524 . S
C2109 C2101 1.503 . S
C2109 C2108 1.370 . S
C2109 C2110 1.403 . S
C2110 C2109 1.403 . S
C2110 C2111 1.404 . S
C2110 C2113 1.539 . S
C2111 C2107 1.408 . S
C2111 C2110 1.404 . S
C2111 H2123 0.930 . S
C2112 C2108 1.524 . S
C2112 H2124 0.956 . S
C2112 H2125 0.961 . S
C2112 H2126 0.961 . S
C2113 C2110 1.539 . S
C2113 H2127 0.958 . S
C2113 H2128 0.961 . S
C2113 H2129 0.960 . S
H2114 C2098 0.931 . S
H2115 C2103 0.929 . S
H2116 C2104 0.960 . S
H2117 C2104 0.962 . S
H2118 C2104 0.960 . S
H2119 C2105 0.961 . S
H2120 C2105 0.961 . S
H2121 C2105 0.961 . S
H2122 C2106 0.931 . S
H2123 C2111 0.930 . S
H2124 C2112 0.956 . S
H2125 C2112 0.961 . S
H2126 C2112 0.961 . S
H2127 C2113 0.958 . S
H2128 C2113 0.961 . S
H2129 C2113 0.960 . S
C2130 C2131 1.391 1_565 S
C2130 C2132 1.394 . S
C2130 H2146 0.933 . S
C2131 C2130 1.391 1_545 S
C2131 C2135 1.376 . S
C2132 C2130 1.394 . S
C2132 C2133 1.369 . S
C2132 C2136 1.531 . S
C2133 C2132 1.369 . S
C2133 C2134 1.410 . S
C2133 C2141 1.503 . S
C2134 C2133 1.410 . S
C2134 C2135 1.392 1_565 S
C2134 C2137 1.511 . S
C2135 C2131 1.376 . S
C2135 C2134 1.392 1_545 S
C2135 H2147 0.929 . S
C2136 C2132 1.531 . S
C2136 H2148 0.960 . S
C2136 H2149 0.962 . S
C2136 H2150 0.960 . S
C2137 C2134 1.511 . S
C2137 H2151 0.961 . S
C2137 H2152 0.961 . S
C2137 H2153 0.961 . S
C2138 C2139 1.370 . S
C2138 C2140 1.363 . S
C2138 H2154 0.931 . S
C2139 C2138 1.370 . S
C2139 C2143 1.408 . S
C2140 C2138 1.363 . S
C2140 C2141 1.370 . S
C2140 C2144 1.524 . S
C2141 C2133 1.503 . S
C2141 C2140 1.370 . S
C2141 C2142 1.403 . S
C2142 C2141 1.403 . S
C2142 C2143 1.404 . S
C2142 C2145 1.539 . S
C2143 C2139 1.408 . S
C2143 C2142 1.404 . S
C2143 H2155 0.930 . S
C2144 C2140 1.524 . S
C2144 H2156 0.956 . S
C2144 H2157 0.961 . S
C2144 H2158 0.961 . S
C2145 C2142 1.539 . S
C2145 H2159 0.958 . S
C2145 H2160 0.961 . S
C2145 H2161 0.960 . S
H2146 C2130 0.933 . S
H2147 C2135 0.929 . S
H2148 C2136 0.960 . S
H2149 C2136 0.962 . S
H2150 C2136 0.960 . S
H2151 C2137 0.961 . S
H2152 C2137 0.961 . S
H2153 C2137 0.961 . S
H2154 C2138 0.931 . S
H2155 C2143 0.930 . S
H2156 C2144 0.956 . S
H2157 C2144 0.961 . S
H2158 C2144 0.961 . S
H2159 C2145 0.958 . S
H2160 C2145 0.961 . S
H2161 C2145 0.960 . S
C2162 C2163 1.391 1_455 S
C2162 C2164 1.394 . S
C2162 H2178 0.931 . S
C2163 C2162 1.391 1_655 S
C2163 C2167 1.411 . S
C2164 C2162 1.394 . S
C2164 C2165 1.369 . S
C2164 C2168 1.531 . S
C2165 C2164 1.369 . S
C2165 C2166 1.410 . S
C2165 C2173 1.503 . S
C2166 C2165 1.410 . S
C2166 C2167 1.341 1_455 S
C2166 C2169 1.511 . S
C2167 C2163 1.411 . S
C2167 C2166 1.341 1_655 S
C2167 H2179 0.949 . S
C2168 C2164 1.531 . S
C2168 H2180 0.960 . S
C2168 H2181 0.962 . S
C2168 H2182 0.960 . S
C2169 C2166 1.511 . S
C2169 H2183 0.961 . S
C2169 H2184 0.961 . S
C2169 H2185 0.961 . S
C2170 C2171 1.370 . S
C2170 C2172 1.363 . S
C2170 H2186 0.931 . S
C2171 C2170 1.370 . S
C2171 C2175 1.408 . S
C2172 C2170 1.363 . S
C2172 C2173 1.370 . S
C2172 C2176 1.524 . S
C2173 C2165 1.503 . S
C2173 C2172 1.370 . S
C2173 C2174 1.403 . S
C2174 C2173 1.403 . S
C2174 C2175 1.404 . S
C2174 C2177 1.539 . S
C2175 C2171 1.408 . S
C2175 C2174 1.404 . S
C2175 H2187 0.930 . S
C2176 C2172 1.524 . S
C2176 H2188 0.956 . S
C2176 H2189 0.961 . S
C2176 H2190 0.961 . S
C2177 C2174 1.539 . S
C2177 H2191 0.958 . S
C2177 H2192 0.961 . S
C2177 H2193 0.960 . S
H2178 C2162 0.931 . S
H2179 C2167 0.949 . S
H2180 C2168 0.960 . S
H2181 C2168 0.962 . S
H2182 C2168 0.960 . S
H2183 C2169 0.961 . S
H2184 C2169 0.961 . S
H2185 C2169 0.961 . S
H2186 C2170 0.931 . S
H2187 C2175 0.930 . S
H2188 C2176 0.956 . S
H2189 C2176 0.961 . S
H2190 C2176 0.961 . S
H2191 C2177 0.958 . S
H2192 C2177 0.961 . S
H2193 C2177 0.960 . S
C2194 C2195 1.391 . S
C2194 C2196 1.394 . S
C2194 H2210 0.931 . S
C2195 C2194 1.391 . S
C2195 C2199 1.376 . S
C2196 C2194 1.394 . S
C2196 C2197 1.369 . S
C2196 C2200 1.531 . S
C2197 C2196 1.369 . S
C2197 C2198 1.410 . S
C2197 C2205 1.503 . S
C2198 C2197 1.410 . S
C2198 C2199 1.392 . S
C2198 C2201 1.511 . S
C2199 C2195 1.376 . S
C2199 C2198 1.392 . S
C2199 H2211 0.929 . S
C2200 C2196 1.531 . S
C2200 H2212 0.960 . S
C2200 H2213 0.962 . S
C2200 H2214 0.960 . S
C2201 C2198 1.511 . S
C2201 H2215 0.961 . S
C2201 H2216 0.961 . S
C2201 H2217 0.961 . S
C2202 C2203 1.370 . S
C2202 C2204 1.363 . S
C2202 H2218 0.931 . S
C2203 C2202 1.370 . S
C2203 C2207 1.408 . S
C2204 C2202 1.363 . S
C2204 C2205 1.370 . S
C2204 C2208 1.524 . S
C2205 C2197 1.503 . S
C2205 C2204 1.370 . S
C2205 C2206 1.403 . S
C2206 C2205 1.403 . S
C2206 C2207 1.404 . S
C2206 C2209 1.539 . S
C2207 C2203 1.408 . S
C2207 C2206 1.404 . S
C2207 H2219 0.930 . S
C2208 C2204 1.524 . S
C2208 H2220 0.956 . S
C2208 H2221 0.961 . S
C2208 H2222 0.961 . S
C2209 C2206 1.539 . S
C2209 H2223 0.958 . S
C2209 H2224 0.961 . S
C2209 H2225 0.960 . S
H2210 C2194 0.931 . S
H2211 C2199 0.929 . S
H2212 C2200 0.960 . S
H2213 C2200 0.962 . S
H2214 C2200 0.960 . S
H2215 C2201 0.961 . S
H2216 C2201 0.961 . S
H2217 C2201 0.961 . S
H2218 C2202 0.931 . S
H2219 C2207 0.930 . S
H2220 C2208 0.956 . S
H2221 C2208 0.961 . S
H2222 C2208 0.961 . S
H2223 C2209 0.958 . S
H2224 C2209 0.961 . S
H2225 C2209 0.960 . S
C2226 C2227 1.391 . S
C2226 C2228 1.394 . S
C2226 H2242 0.931 . S
C2227 C2226 1.391 . S
C2227 C2231 1.376 . S
C2228 C2226 1.394 . S
C2228 C2229 1.369 . S
C2228 C2232 1.531 . S
C2229 C2228 1.369 . S
C2229 C2230 1.410 . S
C2229 C2237 1.503 . S
C2230 C2229 1.410 . S
C2230 C2231 1.392 . S
C2230 C2233 1.511 . S
C2231 C2227 1.376 . S
C2231 C2230 1.392 . S
C2231 H2243 0.929 . S
C2232 C2228 1.531 . S
C2232 H2244 0.960 . S
C2232 H2245 0.962 . S
C2232 H2246 0.960 . S
C2233 C2230 1.511 . S
C2233 H2247 0.961 . S
C2233 H2248 0.961 . S
C2233 H2249 0.961 . S
C2234 C2235 1.370 . S
C2234 C2236 1.363 . S
C2234 H2250 0.931 . S
C2235 C2234 1.370 . S
C2235 C2239 1.408 . S
C2236 C2234 1.363 . S
C2236 C2237 1.370 . S
C2236 C2240 1.524 . S
C2237 C2229 1.503 . S
C2237 C2236 1.370 . S
C2237 C2238 1.403 . S
C2238 C2237 1.403 . S
C2238 C2239 1.404 . S
C2238 C2241 1.539 . S
C2239 C2235 1.408 . S
C2239 C2238 1.404 . S
C2239 H2251 0.930 . S
C2240 C2236 1.524 . S
C2240 H2252 0.956 . S
C2240 H2253 0.961 . S
C2240 H2254 0.961 . S
C2241 C2238 1.539 . S
C2241 H2255 0.958 . S
C2241 H2256 0.961 . S
C2241 H2257 0.960 . S
H2242 C2226 0.931 . S
H2243 C2231 0.929 . S
H2244 C2232 0.960 . S
H2245 C2232 0.962 . S
H2246 C2232 0.960 . S
H2247 C2233 0.961 . S
H2248 C2233 0.961 . S
H2249 C2233 0.961 . S
H2250 C2234 0.931 . S
H2251 C2239 0.930 . S
H2252 C2240 0.956 . S
H2253 C2240 0.961 . S
H2254 C2240 0.961 . S
H2255 C2241 0.958 . S
H2256 C2241 0.961 . S
H2257 C2241 0.960 . S
C2258 C2259 1.391 . S
C2258 C2260 1.394 . S
C2258 H2274 0.931 . S
C2259 C2258 1.391 . S
C2259 C2263 1.376 . S
C2260 C2258 1.394 . S
C2260 C2261 1.369 . S
C2260 C2264 1.531 . S
C2261 C2260 1.369 . S
C2261 C2262 1.410 . S
C2261 C2269 1.503 . S
C2262 C2261 1.410 . S
C2262 C2263 1.392 . S
C2262 C2265 1.511 . S
C2263 C2259 1.376 . S
C2263 C2262 1.392 . S
C2263 H2275 0.929 . S
C2264 C2260 1.531 . S
C2264 H2276 0.960 . S
C2264 H2277 0.962 . S
C2264 H2278 0.960 . S
C2265 C2262 1.511 . S
C2265 H2279 0.961 . S
C2265 H2280 0.961 . S
C2265 H2281 0.961 . S
C2266 C2267 1.370 . S
C2266 C2268 1.363 . S
C2266 H2282 0.931 . S
C2267 C2266 1.370 . S
C2267 C2271 1.408 . S
C2268 C2266 1.363 . S
C2268 C2269 1.370 . S
C2268 C2272 1.524 . S
C2269 C2261 1.503 . S
C2269 C2268 1.370 . S
C2269 C2270 1.403 . S
C2270 C2269 1.403 . S
C2270 C2271 1.404 . S
C2270 C2273 1.539 . S
C2271 C2267 1.408 . S
C2271 C2270 1.404 . S
C2271 H2283 0.930 . S
C2272 C2268 1.524 . S
C2272 H2284 0.956 . S
C2272 H2285 0.961 . S
C2272 H2286 0.961 . S
C2273 C2270 1.539 . S
C2273 H2287 0.958 . S
C2273 H2288 0.961 . S
C2273 H2289 0.960 . S
H2274 C2258 0.931 . S
H2275 C2263 0.929 . S
H2276 C2264 0.960 . S
H2277 C2264 0.962 . S
H2278 C2264 0.960 . S
H2279 C2265 0.961 . S
H2280 C2265 0.961 . S
H2281 C2265 0.961 . S
H2282 C2266 0.931 . S
H2283 C2271 0.930 . S
H2284 C2272 0.956 . S
H2285 C2272 0.961 . S
H2286 C2272 0.961 . S
H2287 C2273 0.958 . S
H2288 C2273 0.961 . S
H2289 C2273 0.960 . S
C2290 C2291 1.391 . S
C2290 C2292 1.394 . S
C2290 H2306 0.931 . S
C2291 C2290 1.391 . S
C2291 C2295 1.376 . S
C2292 C2290 1.394 . S
C2292 C2293 1.369 . S
C2292 C2296 1.531 . S
C2293 C2292 1.369 . S
C2293 C2294 1.410 . S
C2293 C2301 1.503 . S
C2294 C2293 1.410 . S
C2294 C2295 1.392 . S
C2294 C2297 1.511 . S
C2295 C2291 1.376 . S
C2295 C2294 1.392 . S
C2295 H2307 0.929 . S
C2296 C2292 1.531 . S
C2296 H2308 0.960 . S
C2296 H2309 0.962 . S
C2296 H2310 0.960 . S
C2297 C2294 1.511 . S
C2297 H2311 0.961 . S
C2297 H2312 0.961 . S
C2297 H2313 0.961 . S
C2298 C2299 1.370 . S
C2298 C2300 1.363 . S
C2298 H2314 0.931 . S
C2299 C2298 1.370 . S
C2299 C2303 1.408 . S
C2300 C2298 1.363 . S
C2300 C2301 1.370 . S
C2300 C2304 1.524 . S
C2301 C2293 1.503 . S
C2301 C2300 1.370 . S
C2301 C2302 1.403 . S
C2302 C2301 1.403 . S
C2302 C2303 1.404 . S
C2302 C2305 1.539 . S
C2303 C2299 1.408 . S
C2303 C2302 1.404 . S
C2303 H2315 0.930 . S
C2304 C2300 1.524 . S
C2304 H2316 0.956 . S
C2304 H2317 0.961 . S
C2304 H2318 0.961 . S
C2305 C2302 1.539 . S
C2305 H2319 0.958 . S
C2305 H2320 0.961 . S
C2305 H2321 0.960 . S
H2306 C2290 0.931 . S
H2307 C2295 0.929 . S
H2308 C2296 0.960 . S
H2309 C2296 0.962 . S
H2310 C2296 0.960 . S
H2311 C2297 0.961 . S
H2312 C2297 0.961 . S
H2313 C2297 0.961 . S
H2314 C2298 0.931 . S
H2315 C2303 0.930 . S
H2316 C2304 0.956 . S
H2317 C2304 0.961 . S
H2318 C2304 0.961 . S
H2319 C2305 0.958 . S
H2320 C2305 0.961 . S
H2321 C2305 0.960 . S
C2322 C2323 1.391 . S
C2322 C2324 1.394 1_565 S
C2322 H2338 0.931 . S
C2323 C2322 1.391 . S
C2323 C2327 1.376 . S
C2324 C2322 1.394 1_545 S
C2324 C2325 1.369 . S
C2324 C2328 1.531 . S
C2325 C2324 1.369 . S
C2325 C2326 1.410 . S
C2325 C2333 1.503 . S
C2326 C2325 1.410 . S
C2326 C2327 1.392 1_545 S
C2326 C2329 1.511 . S
C2327 C2323 1.376 . S
C2327 C2326 1.392 1_565 S
C2327 H2339 0.929 . S
C2328 C2324 1.531 . S
C2328 H2340 0.960 . S
C2328 H2341 0.962 . S
C2328 H2342 0.960 . S
C2329 C2326 1.511 . S
C2329 H2343 0.961 . S
C2329 H2344 0.961 . S
C2329 H2345 0.961 . S
C2330 C2331 1.370 . S
C2330 C2332 1.363 . S
C2330 H2346 0.931 . S
C2331 C2330 1.370 . S
C2331 C2335 1.408 . S
C2332 C2330 1.363 . S
C2332 C2333 1.370 . S
C2332 C2336 1.524 . S
C2333 C2325 1.503 . S
C2333 C2332 1.370 . S
C2333 C2334 1.403 . S
C2334 C2333 1.403 . S
C2334 C2335 1.404 . S
C2334 C2337 1.539 . S
C2335 C2331 1.408 . S
C2335 C2334 1.404 . S
C2335 H2347 0.930 . S
C2336 C2332 1.524 . S
C2336 H2348 0.956 . S
C2336 H2349 0.961 . S
C2336 H2350 0.961 . S
C2337 C2334 1.539 . S
C2337 H2351 0.958 . S
C2337 H2352 0.961 . S
C2337 H2353 0.960 . S
H2338 C2322 0.931 . S
H2339 C2327 0.929 . S
H2340 C2328 0.960 . S
H2341 C2328 0.962 . S
H2342 C2328 0.960 . S
H2343 C2329 0.961 . S
H2344 C2329 0.961 . S
H2345 C2329 0.961 . S
H2346 C2330 0.931 . S
H2347 C2335 0.930 . S
H2348 C2336 0.956 . S
H2349 C2336 0.961 . S
H2350 C2336 0.961 . S
H2351 C2337 0.958 . S
H2352 C2337 0.961 . S
H2353 C2337 0.960 . S
C2354 C2355 1.391 1_655 S
C2354 C2356 1.394 . S
C2354 H2370 0.931 1_655 S
C2355 C2354 1.391 1_455 S
C2355 C2359 1.376 1_455 S
C2356 C2354 1.394 . S
C2356 C2357 1.369 . S
C2356 C2360 1.531 . S
C2357 C2356 1.369 . S
C2357 C2358 1.410 . S
C2357 C2365 1.503 . S
C2358 C2357 1.410 . S
C2358 C2359 1.392 . S
C2358 C2361 1.511 . S
C2359 C2355 1.376 1_655 S
C2359 C2358 1.392 . S
C2359 H2371 0.950 . S
C2360 C2356 1.531 . S
C2360 H2372 0.960 . S
C2360 H2373 0.962 . S
C2360 H2374 0.960 . S
C2361 C2358 1.511 . S
C2361 H2375 0.961 . S
C2361 H2376 0.961 . S
C2361 H2377 0.961 . S
C2362 C2363 1.370 . S
C2362 C2364 1.363 . S
C2362 H2378 0.931 . S
C2363 C2362 1.370 . S
C2363 C2367 1.408 . S
C2364 C2362 1.363 . S
C2364 C2365 1.370 . S
C2364 C2368 1.524 . S
C2365 C2357 1.503 . S
C2365 C2364 1.370 . S
C2365 C2366 1.403 . S
C2366 C2365 1.403 . S
C2366 C2367 1.404 . S
C2366 C2369 1.539 . S
C2367 C2363 1.408 . S
C2367 C2366 1.404 . S
C2367 H2379 0.930 . S
C2368 C2364 1.524 . S
C2368 H2380 0.956 . S
C2368 H2381 0.961 . S
C2368 H2382 0.961 . S
C2369 C2366 1.539 . S
C2369 H2383 0.958 . S
C2369 H2384 0.961 . S
C2369 H2385 0.960 . S
H2370 C2354 0.931 1_455 S
H2371 C2359 0.950 . S
H2372 C2360 0.960 . S
H2373 C2360 0.962 . S
H2374 C2360 0.960 . S
H2375 C2361 0.961 . S
H2376 C2361 0.961 . S
H2377 C2361 0.961 . S
H2378 C2362 0.931 . S
H2379 C2367 0.930 . S
H2380 C2368 0.956 . S
H2381 C2368 0.961 . S
H2382 C2368 0.961 . S
H2383 C2369 0.958 . S
H2384 C2369 0.961 . S
H2385 C2369 0.960 . S
C2386 C2387 1.391 . S
C2386 C2388 1.394 . S
C2386 H2402 0.931 . S
C2387 C2386 1.391 . S
C2387 C2391 1.376 . S
C2388 C2386 1.394 . S
C2388 C2389 1.369 . S
C2388 C2392 1.531 . S
C2389 C2388 1.369 . S
C2389 C2390 1.410 . S
C2389 C2397 1.503 . S
C2390 C2389 1.410 . S
C2390 C2391 1.392 . S
C2390 C2393 1.511 . S
C2391 C2387 1.376 . S
C2391 C2390 1.392 . S
C2391 H2403 0.929 . S
C2392 C2388 1.531 . S
C2392 H2404 0.960 . S
C2392 H2405 0.962 . S
C2392 H2406 0.960 . S
C2393 C2390 1.511 . S
C2393 H2407 0.961 . S
C2393 H2408 0.961 . S
C2393 H2409 0.961 . S
C2394 C2395 1.370 . S
C2394 C2396 1.363 . S
C2394 H2410 0.931 . S
C2395 C2394 1.370 . S
C2395 C2399 1.408 . S
C2396 C2394 1.363 . S
C2396 C2397 1.370 . S
C2396 C2400 1.524 . S
C2397 C2389 1.503 . S
C2397 C2396 1.370 . S
C2397 C2398 1.403 . S
C2398 C2397 1.403 . S
C2398 C2399 1.404 . S
C2398 C2401 1.539 . S
C2399 C2395 1.408 . S
C2399 C2398 1.404 . S
C2399 H2411 0.930 . S
C2400 C2396 1.524 . S
C2400 H2412 0.956 . S
C2400 H2413 0.961 . S
C2400 H2414 0.961 . S
C2401 C2398 1.539 . S
C2401 H2415 0.958 . S
C2401 H2416 0.961 . S
C2401 H2417 0.960 . S
H2402 C2386 0.931 . S
H2403 C2391 0.929 . S
H2404 C2392 0.960 . S
H2405 C2392 0.962 . S
H2406 C2392 0.960 . S
H2407 C2393 0.961 . S
H2408 C2393 0.961 . S
H2409 C2393 0.961 . S
H2410 C2394 0.931 . S
H2411 C2399 0.930 . S
H2412 C2400 0.956 . S
H2413 C2400 0.961 . S
H2414 C2400 0.961 . S
H2415 C2401 0.958 . S
H2416 C2401 0.961 . S
H2417 C2401 0.960 . S
C2418 C2419 1.391 . S
C2418 C2420 1.394 1_455 S
C2418 H2434 0.931 . S
C2419 C2418 1.391 . S
C2419 C2423 1.376 1_455 S
C2420 C2418 1.394 1_655 S
C2420 C2421 1.369 . S
C2420 C2424 1.531 . S
C2421 C2420 1.369 . S
C2421 C2422 1.410 . S
C2421 C2429 1.503 . S
C2422 C2421 1.410 . S
C2422 C2423 1.392 . S
C2422 C2425 1.511 . S
C2423 C2419 1.376 1_655 S
C2423 C2422 1.392 . S
C2423 H2435 0.931 1_655 S
C2424 C2420 1.531 . S
C2424 H2436 0.960 . S
C2424 H2437 0.962 . S
C2424 H2438 0.960 . S
C2425 C2422 1.511 . S
C2425 H2439 0.961 . S
C2425 H2440 0.961 . S
C2425 H2441 0.961 . S
C2426 C2427 1.370 . S
C2426 C2428 1.363 . S
C2426 H2442 0.931 . S
C2427 C2426 1.370 . S
C2427 C2431 1.408 . S
C2428 C2426 1.363 . S
C2428 C2429 1.370 . S
C2428 C2432 1.524 . S
C2429 C2421 1.503 . S
C2429 C2428 1.370 . S
C2429 C2430 1.403 . S
C2430 C2429 1.403 . S
C2430 C2431 1.404 . S
C2430 C2433 1.539 . S
C2431 C2427 1.408 . S
C2431 C2430 1.404 . S
C2431 H2443 0.930 . S
C2432 C2428 1.524 . S
C2432 H2444 0.956 . S
C2432 H2445 0.961 . S
C2432 H2446 0.961 . S
C2433 C2430 1.539 . S
C2433 H2447 0.958 . S
C2433 H2448 0.961 . S
C2433 H2449 0.960 . S
H2434 C2418 0.931 . S
H2435 C2423 0.931 1_455 S
H2436 C2424 0.960 . S
H2437 C2424 0.962 . S
H2438 C2424 0.960 . S
H2439 C2425 0.961 . S
H2440 C2425 0.961 . S
H2441 C2425 0.961 . S
H2442 C2426 0.931 . S
H2443 C2431 0.930 . S
H2444 C2432 0.956 . S
H2445 C2432 0.961 . S
H2446 C2432 0.961 . S
H2447 C2433 0.958 . S
H2448 C2433 0.961 . S
H2449 C2433 0.960 . S
C2450 C2451 1.391 . S
C2450 C2452 1.394 . S
C2450 H2466 0.931 . S
C2451 C2450 1.391 . S
C2451 C2455 1.376 . S
C2452 C2450 1.394 . S
C2452 C2453 1.369 . S
C2452 C2456 1.531 . S
C2453 C2452 1.369 . S
C2453 C2454 1.410 . S
C2453 C2461 1.503 . S
C2454 C2453 1.410 . S
C2454 C2455 1.392 . S
C2454 C2457 1.511 . S
C2455 C2451 1.376 . S
C2455 C2454 1.392 . S
C2455 H2467 0.929 . S
C2456 C2452 1.531 . S
C2456 H2468 0.960 . S
C2456 H2469 0.962 . S
C2456 H2470 0.960 . S
C2457 C2454 1.511 . S
C2457 H2471 0.961 . S
C2457 H2472 0.961 . S
C2457 H2473 0.961 . S
C2458 C2459 1.370 . S
C2458 C2460 1.363 . S
C2458 H2474 0.931 . S
C2459 C2458 1.370 . S
C2459 C2463 1.408 . S
C2460 C2458 1.363 . S
C2460 C2461 1.370 . S
C2460 C2464 1.524 . S
C2461 C2453 1.503 . S
C2461 C2460 1.370 . S
C2461 C2462 1.403 . S
C2462 C2461 1.403 . S
C2462 C2463 1.404 . S
C2462 C2465 1.539 . S
C2463 C2459 1.408 . S
C2463 C2462 1.404 . S
C2463 H2475 0.930 . S
C2464 C2460 1.524 . S
C2464 H2476 0.956 . S
C2464 H2477 0.961 . S
C2464 H2478 0.961 . S
C2465 C2462 1.539 . S
C2465 H2479 0.958 . S
C2465 H2480 0.961 . S
C2465 H2481 0.960 . S
H2466 C2450 0.931 . S
H2467 C2455 0.929 . S
H2468 C2456 0.960 . S
H2469 C2456 0.962 . S
H2470 C2456 0.960 . S
H2471 C2457 0.961 . S
H2472 C2457 0.961 . S
H2473 C2457 0.961 . S
H2474 C2458 0.931 . S
H2475 C2463 0.930 . S
H2476 C2464 0.956 . S
H2477 C2464 0.961 . S
H2478 C2464 0.961 . S
H2479 C2465 0.958 . S
H2480 C2465 0.961 . S
H2481 C2465 0.960 . S
C2482 C2483 1.391 1_545 S
C2482 C2484 1.394 . S
C2482 H2498 0.923 1_545 S
C2483 C2482 1.391 1_565 S
C2483 C2487 1.376 . S
C2484 C2482 1.394 . S
C2484 C2485 1.369 . S
C2484 C2488 1.531 . S
C2485 C2484 1.369 . S
C2485 C2486 1.410 . S
C2485 C2493 1.503 . S
C2486 C2485 1.410 . S
C2486 C2487 1.392 1_545 S
C2486 C2489 1.511 . S
C2487 C2483 1.376 . S
C2487 C2486 1.392 1_565 S
C2487 H2499 0.929 . S
C2488 C2484 1.531 . S
C2488 H2500 0.960 . S
C2488 H2501 0.962 . S
C2488 H2502 0.960 . S
C2489 C2486 1.511 . S
C2489 H2503 0.961 . S
C2489 H2504 0.961 . S
C2489 H2505 0.961 . S
C2490 C2491 1.370 . S
C2490 C2492 1.363 . S
C2490 H2506 0.931 . S
C2491 C2490 1.370 . S
C2491 C2495 1.408 . S
C2492 C2490 1.363 . S
C2492 C2493 1.370 . S
C2492 C2496 1.524 . S
C2493 C2485 1.503 . S
C2493 C2492 1.370 . S
C2493 C2494 1.403 . S
C2494 C2493 1.403 . S
C2494 C2495 1.404 . S
C2494 C2497 1.539 . S
C2495 C2491 1.408 . S
C2495 C2494 1.404 . S
C2495 H2507 0.930 . S
C2496 C2492 1.524 . S
C2496 H2508 0.956 . S
C2496 H2509 0.961 . S
C2496 H2510 0.961 . S
C2497 C2494 1.539 . S
C2497 H2511 0.958 . S
C2497 H2512 0.961 . S
C2497 H2513 0.960 . S
H2498 C2482 0.923 1_565 S
H2499 C2487 0.929 . S
H2500 C2488 0.960 . S
H2501 C2488 0.962 . S
H2502 C2488 0.960 . S
H2503 C2489 0.961 . S
H2504 C2489 0.961 . S
H2505 C2489 0.961 . S
H2506 C2490 0.931 . S
H2507 C2495 0.930 . S
H2508 C2496 0.956 . S
H2509 C2496 0.961 . S
H2510 C2496 0.961 . S
H2511 C2497 0.958 . S
H2512 C2497 0.961 . S
H2513 C2497 0.960 . S
C2514 C2515 1.391 . S
C2514 C2516 1.394 . S
C2514 H2530 0.931 . S
C2515 C2514 1.391 . S
C2515 C2519 1.376 . S
C2516 C2514 1.394 . S
C2516 C2517 1.369 . S
C2516 C2520 1.531 . S
C2517 C2516 1.369 . S
C2517 C2518 1.410 . S
C2517 C2525 1.503 . S
C2518 C2517 1.410 . S
C2518 C2519 1.392 . S
C2518 C2521 1.511 . S
C2519 C2515 1.376 . S
C2519 C2518 1.392 . S
C2519 H2531 0.929 . S
C2520 C2516 1.531 . S
C2520 H2532 0.960 . S
C2520 H2533 0.962 . S
C2520 H2534 0.960 . S
C2521 C2518 1.511 . S
C2521 H2535 0.961 . S
C2521 H2536 0.961 . S
C2521 H2537 0.961 . S
C2522 C2523 1.370 . S
C2522 C2524 1.363 . S
C2522 H2538 0.931 . S
C2523 C2522 1.370 . S
C2523 C2527 1.408 . S
C2524 C2522 1.363 . S
C2524 C2525 1.370 . S
C2524 C2528 1.524 . S
C2525 C2517 1.503 . S
C2525 C2524 1.370 . S
C2525 C2526 1.403 . S
C2526 C2525 1.403 . S
C2526 C2527 1.404 . S
C2526 C2529 1.539 . S
C2527 C2523 1.408 . S
C2527 C2526 1.404 . S
C2527 H2539 0.930 . S
C2528 C2524 1.524 . S
C2528 H2540 0.956 . S
C2528 H2541 0.961 . S
C2528 H2542 0.961 . S
C2529 C2526 1.539 . S
C2529 H2543 0.958 . S
C2529 H2544 0.961 . S
C2529 H2545 0.960 . S
H2530 C2514 0.931 . S
H2531 C2519 0.929 . S
H2532 C2520 0.960 . S
H2533 C2520 0.962 . S
H2534 C2520 0.960 . S
H2535 C2521 0.961 . S
H2536 C2521 0.961 . S
H2537 C2521 0.961 . S
H2538 C2522 0.931 . S
H2539 C2527 0.930 . S
H2540 C2528 0.956 . S
H2541 C2528 0.961 . S
H2542 C2528 0.961 . S
H2543 C2529 0.958 . S
H2544 C2529 0.961 . S
H2545 C2529 0.960 . S
C2546 C2547 1.391 . S
C2546 C2548 1.394 . S
C2546 H2562 0.931 . S
C2547 C2546 1.391 . S
C2547 C2551 1.376 . S
C2548 C2546 1.394 . S
C2548 C2549 1.369 . S
C2548 C2552 1.531 . S
C2549 C2548 1.369 . S
C2549 C2550 1.410 . S
C2549 C2557 1.503 . S
C2550 C2549 1.410 . S
C2550 C2551 1.392 . S
C2550 C2553 1.511 . S
C2551 C2547 1.376 . S
C2551 C2550 1.392 . S
C2551 H2563 0.929 . S
C2552 C2548 1.531 . S
C2552 H2564 0.960 . S
C2552 H2565 0.962 . S
C2552 H2566 0.960 . S
C2553 C2550 1.511 . S
C2553 H2567 0.961 . S
C2553 H2568 0.961 . S
C2553 H2569 0.961 . S
C2554 C2555 1.370 . S
C2554 C2556 1.363 . S
C2554 H2570 0.931 . S
C2555 C2554 1.370 . S
C2555 C2559 1.408 . S
C2556 C2554 1.363 . S
C2556 C2557 1.370 . S
C2556 C2560 1.524 . S
C2557 C2549 1.503 . S
C2557 C2556 1.370 . S
C2557 C2558 1.403 . S
C2558 C2557 1.403 . S
C2558 C2559 1.404 . S
C2558 C2561 1.539 . S
C2559 C2555 1.408 . S
C2559 C2558 1.404 . S
C2559 H2571 0.930 . S
C2560 C2556 1.524 . S
C2560 H2572 0.956 . S
C2560 H2573 0.961 . S
C2560 H2574 0.961 . S
C2561 C2558 1.539 . S
C2561 H2575 0.958 . S
C2561 H2576 0.961 . S
C2561 H2577 0.960 . S
H2562 C2546 0.931 . S
H2563 C2551 0.929 . S
H2564 C2552 0.960 . S
H2565 C2552 0.962 . S
H2566 C2552 0.960 . S
H2567 C2553 0.961 . S
H2568 C2553 0.961 . S
H2569 C2553 0.961 . S
H2570 C2554 0.931 . S
H2571 C2559 0.930 . S
H2572 C2560 0.956 . S
H2573 C2560 0.961 . S
H2574 C2560 0.961 . S
H2575 C2561 0.958 . S
H2576 C2561 0.961 . S
H2577 C2561 0.960 . S
C2578 C2579 1.391 . S
C2578 C2580 1.394 . S
C2578 H2594 0.931 . S
C2579 C2578 1.391 . S
C2579 C2583 1.376 . S
C2580 C2578 1.394 . S
C2580 C2581 1.369 . S
C2580 C2584 1.531 . S
C2581 C2580 1.369 . S
C2581 C2582 1.410 . S
C2581 C2589 1.503 . S
C2582 C2581 1.410 . S
C2582 C2583 1.392 . S
C2582 C2585 1.511 . S
C2583 C2579 1.376 . S
C2583 C2582 1.392 . S
C2583 H2595 0.929 . S
C2584 C2580 1.531 . S
C2584 H2596 0.960 . S
C2584 H2597 0.962 . S
C2584 H2598 0.960 . S
C2585 C2582 1.511 . S
C2585 H2599 0.961 . S
C2585 H2600 0.961 . S
C2585 H2601 0.961 . S
C2586 C2587 1.370 . S
C2586 C2588 1.363 . S
C2586 H2602 0.931 . S
C2587 C2586 1.370 . S
C2587 C2591 1.408 . S
C2588 C2586 1.363 . S
C2588 C2589 1.370 . S
C2588 C2592 1.524 . S
C2589 C2581 1.503 . S
C2589 C2588 1.370 . S
C2589 C2590 1.403 . S
C2590 C2589 1.403 . S
C2590 C2591 1.404 . S
C2590 C2593 1.539 . S
C2591 C2587 1.408 . S
C2591 C2590 1.404 . S
C2591 H2603 0.930 . S
C2592 C2588 1.524 . S
C2592 H2604 0.956 . S
C2592 H2605 0.961 . S
C2592 H2606 0.961 . S
C2593 C2590 1.539 . S
C2593 H2607 0.958 . S
C2593 H2608 0.961 . S
C2593 H2609 0.960 . S
H2594 C2578 0.931 . S
H2595 C2583 0.929 . S
H2596 C2584 0.960 . S
H2597 C2584 0.962 . S
H2598 C2584 0.960 . S
H2599 C2585 0.961 . S
H2600 C2585 0.961 . S
H2601 C2585 0.961 . S
H2602 C2586 0.931 . S
H2603 C2591 0.930 . S
H2604 C2592 0.956 . S
H2605 C2592 0.961 . S
H2606 C2592 0.961 . S
H2607 C2593 0.958 . S
H2608 C2593 0.961 . S
H2609 C2593 0.960 . S
C2610 C2611 1.391 . S
C2610 C2612 1.394 . S
C2610 H2626 0.931 . S
C2611 C2610 1.391 . S
C2611 C2615 1.376 . S
C2612 C2610 1.394 . S
C2612 C2613 1.369 . S
C2612 C2616 1.531 . S
C2613 C2612 1.369 . S
C2613 C2614 1.410 . S
C2613 C2621 1.503 . S
C2614 C2613 1.410 . S
C2614 C2615 1.392 . S
C2614 C2617 1.511 . S
C2615 C2611 1.376 . S
C2615 C2614 1.392 . S
C2615 H2627 0.929 . S
C2616 C2612 1.531 . S
C2616 H2628 0.960 . S
C2616 H2629 0.962 . S
C2616 H2630 0.960 . S
C2617 C2614 1.511 . S
C2617 H2631 0.961 . S
C2617 H2632 0.961 . S
C2617 H2633 0.961 . S
C2618 C2619 1.370 . S
C2618 C2620 1.363 . S
C2618 H2634 0.931 1_565 S
C2619 C2618 1.370 . S
C2619 C2623 1.408 . S
C2620 C2618 1.363 . S
C2620 C2621 1.370 . S
C2620 C2624 1.524 . S
C2621 C2613 1.503 . S
C2621 C2620 1.370 . S
C2621 C2622 1.403 . S
C2622 C2621 1.403 . S
C2622 C2623 1.404 . S
C2622 C2625 1.539 . S
C2623 C2619 1.408 . S
C2623 C2622 1.404 . S
C2623 H2635 0.930 . S
C2624 C2620 1.524 . S
C2624 H2636 0.956 . S
C2624 H2637 0.961 . S
C2624 H2638 0.961 1_565 S
C2625 C2622 1.539 . S
C2625 H2639 0.958 . S
C2625 H2640 0.961 . S
C2625 H2641 0.960 . S
H2626 C2610 0.931 . S
H2627 C2615 0.929 . S
H2628 C2616 0.960 . S
H2629 C2616 0.962 . S
H2630 C2616 0.960 . S
H2631 C2617 0.961 . S
H2632 C2617 0.961 . S
H2633 C2617 0.961 . S
H2634 C2618 0.931 1_545 S
H2635 C2623 0.930 . S
H2636 C2624 0.956 . S
H2637 C2624 0.961 . S
H2638 C2624 0.961 1_545 S
H2639 C2625 0.958 . S
H2640 C2625 0.961 . S
H2641 C2625 0.960 . S
C2642 C2643 1.391 . S
C2642 C2644 1.394 . S
C2642 H2658 0.931 . S
C2643 C2642 1.391 . S
C2643 C2647 1.376 . S
C2644 C2642 1.394 . S
C2644 C2645 1.369 . S
C2644 C2648 1.531 . S
C2645 C2644 1.369 . S
C2645 C2646 1.410 . S
C2645 C2653 1.503 . S
C2646 C2645 1.410 . S
C2646 C2647 1.392 . S
C2646 C2649 1.545 . S
C2647 C2643 1.376 . S
C2647 C2646 1.392 . S
C2647 H2659 0.929 . S
C2648 C2644 1.531 . S
C2648 H2660 0.960 . S
C2648 H2661 0.962 . S
C2648 H2662 0.960 . S
C2649 C2646 1.545 . S
C2649 H2663 0.942 1_455 S
C2649 H2664 0.961 . S
C2649 H2665 0.947 1_455 S
C2650 C2651 1.370 . S
C2650 C2652 1.363 . S
C2650 H2666 0.931 . S
C2651 C2650 1.370 . S
C2651 C2655 1.408 . S
C2652 C2650 1.363 . S
C2652 C2653 1.370 . S
C2652 C2656 1.524 . S
C2653 C2645 1.503 . S
C2653 C2652 1.370 . S
C2653 C2654 1.403 . S
C2654 C2653 1.403 . S
C2654 C2655 1.404 . S
C2654 C2657 1.539 . S
C2655 C2651 1.408 . S
C2655 C2654 1.404 . S
C2655 H2667 0.930 . S
C2656 C2652 1.524 . S
C2656 H2668 0.956 . S
C2656 H2669 0.961 . S
C2656 H2670 0.961 . S
C2657 C2654 1.539 . S
C2657 H2671 0.958 . S
C2657 H2672 0.961 1_455 S
C2657 H2673 0.971 . S
H2658 C2642 0.931 . S
H2659 C2647 0.929 . S
H2660 C2648 0.960 . S
H2661 C2648 0.962 . S
H2662 C2648 0.960 . S
H2663 C2649 0.942 1_655 S
H2664 C2649 0.961 . S
H2665 C2649 0.947 1_655 S
H2666 C2650 0.931 . S
H2667 C2655 0.930 . S
H2668 C2656 0.956 . S
H2669 C2656 0.961 . S
H2670 C2656 0.961 . S
H2671 C2657 0.958 . S
H2672 C2657 0.961 1_655 S
H2673 C2657 0.971 . S
C2674 C2675 1.391 . S
C2674 C2676 1.394 . S
C2674 H2690 0.931 . S
C2675 C2674 1.391 . S
C2675 C2679 1.376 . S
C2676 C2674 1.394 . S
C2676 C2677 1.369 . S
C2676 C2680 1.531 . S
C2677 C2676 1.369 . S
C2677 C2678 1.410 . S
C2677 C2685 1.503 . S
C2678 C2677 1.410 . S
C2678 C2679 1.392 . S
C2678 C2681 1.511 . S
C2679 C2675 1.376 . S
C2679 C2678 1.392 . S
C2679 H2691 0.929 . S
C2680 C2676 1.531 . S
C2680 H2692 0.960 . S
C2680 H2693 0.962 . S
C2680 H2694 0.960 . S
C2681 C2678 1.511 . S
C2681 H2695 0.961 . S
C2681 H2696 0.961 . S
C2681 H2697 0.961 . S
C2682 C2683 1.370 . S
C2682 C2684 1.363 . S
C2682 H2698 0.931 . S
C2683 C2682 1.370 . S
C2683 C2687 1.408 . S
C2684 C2682 1.363 . S
C2684 C2685 1.370 . S
C2684 C2688 1.524 . S
C2685 C2677 1.503 . S
C2685 C2684 1.370 . S
C2685 C2686 1.403 . S
C2686 C2685 1.403 . S
C2686 C2687 1.404 . S
C2686 C2689 1.539 . S
C2687 C2683 1.408 . S
C2687 C2686 1.404 . S
C2687 H2699 0.930 . S
C2688 C2684 1.524 . S
C2688 H2700 0.956 . S
C2688 H2701 0.961 . S
C2688 H2702 0.961 . S
C2689 C2686 1.539 . S
C2689 H2703 0.958 . S
C2689 H2704 0.961 . S
C2689 H2705 0.960 . S
H2690 C2674 0.931 . S
H2691 C2679 0.929 . S
H2692 C2680 0.960 . S
H2693 C2680 0.962 . S
H2694 C2680 0.960 . S
H2695 C2681 0.961 . S
H2696 C2681 0.961 . S
H2697 C2681 0.961 . S
H2698 C2682 0.931 . S
H2699 C2687 0.930 . S
H2700 C2688 0.956 . S
H2701 C2688 0.961 . S
H2702 C2688 0.961 . S
H2703 C2689 0.958 . S
H2704 C2689 0.961 . S
H2705 C2689 0.960 . S
C2706 C2707 1.391 . S
C2706 C2708 1.394 . S
C2706 H2722 0.931 . S
C2707 C2706 1.391 . S
C2707 C2711 1.376 . S
C2708 C2706 1.394 . S
C2708 C2709 1.369 . S
C2708 C2712 1.531 1_655 S
C2709 C2708 1.369 . S
C2709 C2710 1.410 . S
C2709 C2717 1.503 . S
C2710 C2709 1.410 . S
C2710 C2711 1.392 . S
C2710 C2713 1.511 . S
C2711 C2707 1.376 . S
C2711 C2710 1.392 . S
C2711 H2723 0.929 . S
C2712 C2708 1.531 1_455 S
C2712 H2724 0.960 . S
C2712 H2725 0.962 . S
C2712 H2726 0.960 . S
C2713 C2710 1.511 . S
C2713 H2727 0.961 . S
C2713 H2728 0.961 . S
C2713 H2729 0.961 . S
C2714 C2715 1.370 . S
C2714 C2716 1.363 . S
C2714 H2730 0.931 . S
C2715 C2714 1.370 . S
C2715 C2719 1.408 . S
C2716 C2714 1.363 . S
C2716 C2717 1.370 . S
C2716 C2720 1.524 . S
C2717 C2709 1.503 . S
C2717 C2716 1.370 . S
C2717 C2718 1.403 . S
C2718 C2717 1.403 . S
C2718 C2719 1.404 . S
C2718 C2721 1.539 . S
C2719 C2715 1.408 . S
C2719 C2718 1.404 . S
C2719 H2731 0.930 . S
C2720 C2716 1.524 . S
C2720 H2732 0.956 . S
C2720 H2733 0.961 . S
C2720 H2734 0.961 . S
C2721 C2718 1.539 . S
C2721 H2735 0.958 . S
C2721 H2736 0.961 . S
C2721 H2737 0.960 . S
H2722 C2706 0.931 . S
H2723 C2711 0.929 . S
H2724 C2712 0.960 . S
H2725 C2712 0.962 . S
H2726 C2712 0.960 . S
H2727 C2713 0.961 . S
H2728 C2713 0.961 . S
H2729 C2713 0.961 . S
H2730 C2714 0.931 . S
H2731 C2719 0.930 . S
H2732 C2720 0.956 . S
H2733 C2720 0.961 . S
H2734 C2720 0.961 . S
H2735 C2721 0.958 . S
H2736 C2721 0.961 . S
H2737 C2721 0.960 . S
C2738 C2739 1.391 . S
C2738 C2740 1.394 . S
C2738 H2754 0.931 . S
C2739 C2738 1.391 . S
C2739 C2743 1.376 . S
C2740 C2738 1.394 . S
C2740 C2741 1.369 . S
C2740 C2744 1.531 . S
C2741 C2740 1.369 . S
C2741 C2742 1.410 . S
C2741 C2749 1.503 . S
C2742 C2741 1.410 . S
C2742 C2743 1.392 . S
C2742 C2745 1.511 . S
C2743 C2739 1.376 . S
C2743 C2742 1.392 . S
C2743 H2755 0.929 . S
C2744 C2740 1.531 . S
C2744 H2756 0.960 . S
C2744 H2757 0.962 . S
C2744 H2758 0.960 . S
C2745 C2742 1.511 . S
C2745 H2759 0.961 . S
C2745 H2760 0.961 . S
C2745 H2761 0.961 . S
C2746 C2747 1.370 . S
C2746 C2748 1.363 . S
C2746 H2762 0.931 . S
C2747 C2746 1.370 . S
C2747 C2751 1.408 . S
C2748 C2746 1.363 . S
C2748 C2749 1.370 . S
C2748 C2752 1.524 . S
C2749 C2741 1.503 . S
C2749 C2748 1.370 . S
C2749 C2750 1.403 . S
C2750 C2749 1.403 . S
C2750 C2751 1.404 . S
C2750 C2753 1.539 . S
C2751 C2747 1.408 . S
C2751 C2750 1.404 . S
C2751 H2763 0.930 . S
C2752 C2748 1.524 . S
C2752 H2764 0.956 . S
C2752 H2765 0.961 . S
C2752 H2766 0.961 . S
C2753 C2750 1.539 . S
C2753 H2767 0.958 . S
C2753 H2768 0.961 . S
C2753 H2769 0.960 . S
H2754 C2738 0.931 . S
H2755 C2743 0.929 . S
H2756 C2744 0.960 . S
H2757 C2744 0.962 . S
H2758 C2744 0.960 . S
H2759 C2745 0.961 . S
H2760 C2745 0.961 . S
H2761 C2745 0.961 . S
H2762 C2746 0.931 . S
H2763 C2751 0.930 . S
H2764 C2752 0.956 . S
H2765 C2752 0.961 . S
H2766 C2752 0.961 . S
H2767 C2753 0.958 . S
H2768 C2753 0.961 . S
H2769 C2753 0.960 . S
C2770 C2771 1.391 . S
C2770 C2772 1.394 . S
C2770 H2786 0.931 . S
C2771 C2770 1.391 . S
C2771 C2775 1.376 . S
C2772 C2770 1.394 . S
C2772 C2773 1.369 . S
C2772 C2776 1.531 . S
C2773 C2772 1.369 . S
C2773 C2774 1.410 . S
C2773 C2781 1.503 . S
C2774 C2773 1.410 . S
C2774 C2775 1.392 . S
C2774 C2777 1.511 . S
C2775 C2771 1.376 . S
C2775 C2774 1.392 . S
C2775 H2787 0.929 . S
C2776 C2772 1.531 . S
C2776 H2788 0.960 . S
C2776 H2789 0.962 . S
C2776 H2790 0.960 . S
C2777 C2774 1.511 . S
C2777 H2791 0.961 . S
C2777 H2792 0.961 . S
C2777 H2793 0.961 . S
C2778 C2779 1.370 . S
C2778 C2780 1.363 . S
C2778 H2794 0.931 1_545 S
C2779 C2778 1.370 . S
C2779 C2783 1.408 . S
C2780 C2778 1.363 . S
C2780 C2781 1.370 . S
C2780 C2784 1.524 . S
C2781 C2773 1.503 . S
C2781 C2780 1.370 . S
C2781 C2782 1.403 . S
C2782 C2781 1.403 . S
C2782 C2783 1.404 . S
C2782 C2785 1.539 . S
C2783 C2779 1.408 . S
C2783 C2782 1.404 . S
C2783 H2795 0.930 . S
C2784 C2780 1.524 . S
C2784 H2796 0.956 . S
C2784 H2797 0.961 . S
C2784 H2798 0.961 1_545 S
C2785 C2782 1.539 . S
C2785 H2799 0.958 . S
C2785 H2800 0.961 . S
C2785 H2801 0.960 . S
H2786 C2770 0.931 . S
H2787 C2775 0.929 . S
H2788 C2776 0.960 . S
H2789 C2776 0.962 . S
H2790 C2776 0.960 . S
H2791 C2777 0.961 . S
H2792 C2777 0.961 . S
H2793 C2777 0.961 . S
H2794 C2778 0.931 1_565 S
H2795 C2783 0.930 . S
H2796 C2784 0.956 . S
H2797 C2784 0.961 . S
H2798 C2784 0.961 1_565 S
H2799 C2785 0.958 . S
H2800 C2785 0.961 . S
H2801 C2785 0.960 . S
C2802 C2803 1.391 . S
C2802 C2804 1.394 . S
C2802 H2818 0.931 . S
C2803 C2802 1.391 . S
C2803 C2807 1.376 . S
C2804 C2802 1.394 . S
C2804 C2805 1.369 . S
C2804 C2808 1.531 . S
C2805 C2804 1.369 . S
C2805 C2806 1.410 . S
C2805 C2813 1.503 . S
C2806 C2805 1.410 . S
C2806 C2807 1.392 . S
C2806 C2809 1.511 . S
C2807 C2803 1.376 . S
C2807 C2806 1.392 . S
C2807 H2819 0.929 . S
C2808 C2804 1.531 . S
C2808 H2820 0.960 . S
C2808 H2821 0.962 . S
C2808 H2822 0.960 . S
C2809 C2806 1.511 . S
C2809 H2823 0.961 . S
C2809 H2824 0.961 . S
C2809 H2825 0.961 . S
C2810 C2811 1.370 . S
C2810 C2812 1.363 . S
C2810 H2826 0.931 . S
C2811 C2810 1.370 . S
C2811 C2815 1.408 . S
C2812 C2810 1.363 . S
C2812 C2813 1.370 . S
C2812 C2816 1.524 . S
C2813 C2805 1.503 . S
C2813 C2812 1.370 . S
C2813 C2814 1.403 . S
C2814 C2813 1.403 . S
C2814 C2815 1.404 . S
C2814 C2817 1.539 . S
C2815 C2811 1.408 . S
C2815 C2814 1.404 . S
C2815 H2827 0.930 . S
C2816 C2812 1.524 . S
C2816 H2828 0.956 . S
C2816 H2829 0.961 . S
C2816 H2830 0.961 . S
C2817 C2814 1.539 . S
C2817 H2831 0.958 . S
C2817 H2832 0.961 . S
C2817 H2833 0.960 . S
H2818 C2802 0.931 . S
H2819 C2807 0.929 . S
H2820 C2808 0.960 . S
H2821 C2808 0.962 . S
H2822 C2808 0.960 . S
H2823 C2809 0.961 . S
H2824 C2809 0.961 . S
H2825 C2809 0.961 . S
H2826 C2810 0.931 . S
H2827 C2815 0.930 . S
H2828 C2816 0.956 . S
H2829 C2816 0.961 . S
H2830 C2816 0.961 . S
H2831 C2817 0.958 . S
H2832 C2817 0.961 . S
H2833 C2817 0.960 . S
C2834 C2835 1.391 . S
C2834 C2836 1.394 . S
C2834 H2850 0.931 . S
C2835 C2834 1.391 . S
C2835 C2839 1.376 . S
C2836 C2834 1.394 . S
C2836 C2837 1.369 . S
C2836 C2840 1.531 . S
C2837 C2836 1.369 . S
C2837 C2838 1.410 . S
C2837 C2845 1.503 . S
C2838 C2837 1.410 . S
C2838 C2839 1.392 . S
C2838 C2841 1.511 . S
C2839 C2835 1.376 . S
C2839 C2838 1.392 . S
C2839 H2851 0.929 . S
C2840 C2836 1.531 . S
C2840 H2852 0.960 . S
C2840 H2853 0.962 . S
C2840 H2854 0.960 . S
C2841 C2838 1.511 . S
C2841 H2855 0.961 . S
C2841 H2856 0.961 . S
C2841 H2857 0.961 . S
C2842 C2843 1.370 . S
C2842 C2844 1.363 . S
C2842 H2858 0.931 . S
C2843 C2842 1.370 . S
C2843 C2847 1.408 . S
C2844 C2842 1.363 . S
C2844 C2845 1.370 . S
C2844 C2848 1.524 . S
C2845 C2837 1.503 . S
C2845 C2844 1.370 . S
C2845 C2846 1.403 . S
C2846 C2845 1.403 . S
C2846 C2847 1.404 . S
C2846 C2849 1.539 . S
C2847 C2843 1.408 . S
C2847 C2846 1.404 . S
C2847 H2859 0.930 . S
C2848 C2844 1.524 . S
C2848 H2860 0.956 . S
C2848 H2861 0.961 . S
C2848 H2862 0.961 . S
C2849 C2846 1.539 . S
C2849 H2863 0.958 . S
C2849 H2864 0.961 . S
C2849 H2865 0.960 . S
H2850 C2834 0.931 . S
H2851 C2839 0.929 . S
H2852 C2840 0.960 . S
H2853 C2840 0.962 . S
H2854 C2840 0.960 . S
H2855 C2841 0.961 . S
H2856 C2841 0.961 . S
H2857 C2841 0.961 . S
H2858 C2842 0.931 . S
H2859 C2847 0.930 . S
H2860 C2848 0.956 . S
H2861 C2848 0.961 . S
H2862 C2848 0.961 . S
H2863 C2849 0.958 . S
H2864 C2849 0.961 . S
H2865 C2849 0.960 . S
C2866 C2867 1.391 . S
C2866 C2868 1.394 . S
C2866 H2882 0.931 . S
C2867 C2866 1.391 . S
C2867 C2871 1.376 . S
C2868 C2866 1.394 . S
C2868 C2869 1.369 . S
C2868 C2872 1.531 . S
C2869 C2868 1.369 . S
C2869 C2870 1.410 . S
C2869 C2877 1.503 . S
C2870 C2869 1.410 . S
C2870 C2871 1.392 . S
C2870 C2873 1.511 . S
C2871 C2867 1.376 . S
C2871 C2870 1.392 . S
C2871 H2883 0.929 . S
C2872 C2868 1.531 . S
C2872 H2884 0.960 . S
C2872 H2885 0.962 . S
C2872 H2886 0.960 . S
C2873 C2870 1.511 . S
C2873 H2887 0.961 . S
C2873 H2888 0.961 . S
C2873 H2889 0.961 . S
C2874 C2875 1.370 . S
C2874 C2876 1.363 . S
C2874 H2890 0.931 . S
C2875 C2874 1.370 . S
C2875 C2879 1.408 . S
C2876 C2874 1.363 . S
C2876 C2877 1.370 . S
C2876 C2880 1.524 . S
C2877 C2869 1.503 . S
C2877 C2876 1.370 . S
C2877 C2878 1.403 . S
C2878 C2877 1.403 . S
C2878 C2879 1.404 . S
C2878 C2881 1.539 . S
C2879 C2875 1.408 . S
C2879 C2878 1.404 . S
C2879 H2891 0.930 . S
C2880 C2876 1.524 . S
C2880 H2892 0.956 . S
C2880 H2893 0.961 . S
C2880 H2894 0.961 . S
C2881 C2878 1.539 . S
C2881 H2895 0.958 . S
C2881 H2896 0.961 . S
C2881 H2897 0.960 . S
H2882 C2866 0.931 . S
H2883 C2871 0.929 . S
H2884 C2872 0.960 . S
H2885 C2872 0.962 . S
H2886 C2872 0.960 . S
H2887 C2873 0.961 . S
H2888 C2873 0.961 . S
H2889 C2873 0.961 . S
H2890 C2874 0.931 . S
H2891 C2879 0.930 . S
H2892 C2880 0.956 . S
H2893 C2880 0.961 . S
H2894 C2880 0.961 . S
H2895 C2881 0.958 . S
H2896 C2881 0.961 . S
H2897 C2881 0.960 . S
C2898 C2899 1.391 . S
C2898 C2900 1.394 . S
C2898 H2914 0.931 . S
C2899 C2898 1.391 . S
C2899 C2903 1.376 . S
C2900 C2898 1.394 . S
C2900 C2901 1.369 . S
C2900 C2904 1.531 . S
C2901 C2900 1.369 . S
C2901 C2902 1.410 . S
C2901 C2909 1.503 . S
C2902 C2901 1.410 . S
C2902 C2903 1.392 . S
C2902 C2905 1.511 . S
C2903 C2899 1.376 . S
C2903 C2902 1.392 . S
C2903 H2915 0.929 . S
C2904 C2900 1.531 . S
C2904 H2916 0.960 . S
C2904 H2917 0.962 . S
C2904 H2918 0.960 . S
C2905 C2902 1.511 . S
C2905 H2919 0.961 . S
C2905 H2920 0.961 . S
C2905 H2921 0.961 . S
C2906 C2907 1.370 . S
C2906 C2908 1.363 . S
C2906 H2922 0.931 . S
C2907 C2906 1.370 . S
C2907 C2911 1.408 . S
C2908 C2906 1.363 . S
C2908 C2909 1.370 . S
C2908 C2912 1.524 . S
C2909 C2901 1.503 . S
C2909 C2908 1.370 . S
C2909 C2910 1.403 . S
C2910 C2909 1.403 . S
C2910 C2911 1.404 . S
C2910 C2913 1.539 . S
C2911 C2907 1.408 . S
C2911 C2910 1.404 . S
C2911 H2923 0.930 . S
C2912 C2908 1.524 . S
C2912 H2924 0.956 . S
C2912 H2925 0.961 . S
C2912 H2926 0.961 . S
C2913 C2910 1.539 . S
C2913 H2927 0.958 . S
C2913 H2928 0.961 . S
C2913 H2929 0.960 . S
H2914 C2898 0.931 . S
H2915 C2903 0.929 . S
H2916 C2904 0.960 . S
H2917 C2904 0.962 . S
H2918 C2904 0.960 . S
H2919 C2905 0.961 . S
H2920 C2905 0.961 . S
H2921 C2905 0.961 . S
H2922 C2906 0.931 . S
H2923 C2911 0.930 . S
H2924 C2912 0.956 . S
H2925 C2912 0.961 . S
H2926 C2912 0.961 . S
H2927 C2913 0.958 . S
H2928 C2913 0.961 . S
H2929 C2913 0.960 . S
C2930 C2931 1.391 . S
C2930 C2932 1.394 . S
C2930 H2946 0.931 . S
C2931 C2930 1.391 . S
C2931 C2935 1.376 . S
C2932 C2930 1.394 . S
C2932 C2933 1.369 . S
C2932 C2936 1.531 . S
C2933 C2932 1.369 . S
C2933 C2934 1.410 . S
C2933 C2941 1.503 . S
C2934 C2933 1.410 . S
C2934 C2935 1.392 . S
C2934 C2937 1.511 . S
C2935 C2931 1.376 . S
C2935 C2934 1.392 . S
C2935 H2947 0.929 . S
C2936 C2932 1.531 . S
C2936 H2948 0.960 . S
C2936 H2949 0.962 . S
C2936 H2950 0.960 . S
C2937 C2934 1.511 . S
C2937 H2951 0.961 . S
C2937 H2952 0.961 . S
C2937 H2953 0.961 . S
C2938 C2939 1.370 . S
C2938 C2940 1.363 . S
C2938 H2954 0.931 . S
C2939 C2938 1.370 . S
C2939 C2943 1.408 . S
C2940 C2938 1.363 . S
C2940 C2941 1.370 . S
C2940 C2944 1.524 . S
C2941 C2933 1.503 . S
C2941 C2940 1.370 . S
C2941 C2942 1.403 . S
C2942 C2941 1.403 . S
C2942 C2943 1.404 . S
C2942 C2945 1.539 . S
C2943 C2939 1.408 . S
C2943 C2942 1.404 . S
C2943 H2955 0.930 . S
C2944 C2940 1.524 . S
C2944 H2956 0.956 . S
C2944 H2957 0.961 . S
C2944 H2958 0.961 . S
C2945 C2942 1.539 . S
C2945 H2959 0.958 . S
C2945 H2960 0.961 . S
C2945 H2961 0.960 . S
H2946 C2930 0.931 . S
H2947 C2935 0.929 . S
H2948 C2936 0.960 . S
H2949 C2936 0.962 . S
H2950 C2936 0.960 . S
H2951 C2937 0.961 . S
H2952 C2937 0.961 . S
H2953 C2937 0.961 . S
H2954 C2938 0.931 . S
H2955 C2943 0.930 . S
H2956 C2944 0.956 . S
H2957 C2944 0.961 . S
H2958 C2944 0.961 . S
H2959 C2945 0.958 . S
H2960 C2945 0.961 . S
H2961 C2945 0.960 . S
C2962 C2963 1.391 . S
C2962 C2964 1.394 . S
C2962 H2978 0.931 . S
C2963 C2962 1.391 . S
C2963 C2967 1.376 . S
C2964 C2962 1.394 . S
C2964 C2965 1.369 . S
C2964 C2968 1.531 . S
C2965 C2964 1.369 . S
C2965 C2966 1.410 . S
C2965 C2973 1.503 . S
C2966 C2965 1.410 . S
C2966 C2967 1.392 . S
C2966 C2969 1.511 . S
C2967 C2963 1.376 . S
C2967 C2966 1.392 . S
C2967 H2979 0.929 . S
C2968 C2964 1.531 . S
C2968 H2980 0.960 . S
C2968 H2981 0.962 . S
C2968 H2982 0.960 . S
C2969 C2966 1.511 . S
C2969 H2983 0.961 . S
C2969 H2984 0.961 . S
C2969 H2985 0.961 . S
C2970 C2971 1.370 . S
C2970 C2972 1.363 . S
C2970 H2986 0.931 . S
C2971 C2970 1.370 . S
C2971 C2975 1.408 . S
C2972 C2970 1.363 . S
C2972 C2973 1.370 . S
C2972 C2976 1.524 . S
C2973 C2965 1.503 . S
C2973 C2972 1.370 . S
C2973 C2974 1.403 . S
C2974 C2973 1.403 . S
C2974 C2975 1.404 . S
C2974 C2977 1.539 . S
C2975 C2971 1.408 . S
C2975 C2974 1.404 . S
C2975 H2987 0.930 . S
C2976 C2972 1.524 . S
C2976 H2988 0.956 . S
C2976 H2989 0.961 . S
C2976 H2990 0.961 . S
C2977 C2974 1.539 . S
C2977 H2991 0.958 . S
C2977 H2992 0.961 . S
C2977 H2993 0.960 . S
H2978 C2962 0.931 . S
H2979 C2967 0.929 . S
H2980 C2968 0.960 . S
H2981 C2968 0.962 . S
H2982 C2968 0.960 . S
H2983 C2969 0.961 . S
H2984 C2969 0.961 . S
H2985 C2969 0.961 . S
H2986 C2970 0.931 . S
H2987 C2975 0.930 . S
H2988 C2976 0.956 . S
H2989 C2976 0.961 . S
H2990 C2976 0.961 . S
H2991 C2977 0.958 . S
H2992 C2977 0.961 . S
H2993 C2977 0.960 . S
C2994 C2995 1.391 . S
C2994 C2996 1.394 . S
C2994 H3010 0.931 . S
C2995 C2994 1.391 . S
C2995 C2999 1.376 . S
C2996 C2994 1.394 . S
C2996 C2997 1.369 . S
C2996 C3000 1.531 . S
C2997 C2996 1.369 . S
C2997 C2998 1.410 . S
C2997 C3005 1.503 . S
C2998 C2997 1.410 . S
C2998 C2999 1.392 . S
C2998 C3001 1.511 . S
C2999 C2995 1.376 . S
C2999 C2998 1.392 . S
C2999 H3011 0.929 . S
C3000 C2996 1.531 . S
C3000 H3012 0.960 . S
C3000 H3013 0.962 . S
C3000 H3014 0.960 . S
C3001 C2998 1.511 . S
C3001 H3015 0.961 . S
C3001 H3016 0.961 . S
C3001 H3017 0.961 . S
C3002 C3003 1.370 . S
C3002 C3004 1.363 . S
C3002 H3018 0.931 . S
C3003 C3002 1.370 . S
C3003 C3007 1.408 . S
C3004 C3002 1.363 . S
C3004 C3005 1.370 . S
C3004 C3008 1.524 . S
C3005 C2997 1.503 . S
C3005 C3004 1.370 . S
C3005 C3006 1.403 . S
C3006 C3005 1.403 . S
C3006 C3007 1.404 . S
C3006 C3009 1.539 . S
C3007 C3003 1.408 . S
C3007 C3006 1.404 . S
C3007 H3019 0.930 . S
C3008 C3004 1.524 . S
C3008 H3020 0.956 . S
C3008 H3021 0.961 . S
C3008 H3022 0.961 . S
C3009 C3006 1.539 . S
C3009 H3023 0.958 . S
C3009 H3024 0.961 . S
C3009 H3025 0.960 . S
H3010 C2994 0.931 . S
H3011 C2999 0.929 . S
H3012 C3000 0.960 . S
H3013 C3000 0.962 . S
H3014 C3000 0.960 . S
H3015 C3001 0.961 . S
H3016 C3001 0.961 . S
H3017 C3001 0.961 . S
H3018 C3002 0.931 . S
H3019 C3007 0.930 . S
H3020 C3008 0.956 . S
H3021 C3008 0.961 . S
H3022 C3008 0.961 . S
H3023 C3009 0.958 . S
H3024 C3009 0.961 . S
H3025 C3009 0.960 . S
C3026 C3027 1.391 . S
C3026 C3028 1.394 . S
C3026 H3042 0.931 . S
C3027 C3026 1.391 . S
C3027 C3031 1.376 . S
C3028 C3026 1.394 . S
C3028 C3029 1.369 . S
C3028 C3032 1.531 . S
C3029 C3028 1.369 . S
C3029 C3030 1.410 . S
C3029 C3037 1.503 . S
C3030 C3029 1.410 . S
C3030 C3031 1.392 . S
C3030 C3033 1.511 . S
C3031 C3027 1.376 . S
C3031 C3030 1.392 . S
C3031 H3043 0.929 . S
C3032 C3028 1.531 . S
C3032 H3044 0.960 . S
C3032 H3045 0.962 . S
C3032 H3046 0.960 . S
C3033 C3030 1.511 . S
C3033 H3047 0.961 . S
C3033 H3048 0.961 . S
C3033 H3049 0.961 . S
C3034 C3035 1.370 . S
C3034 C3036 1.363 . S
C3034 H3050 0.931 . S
C3035 C3034 1.370 . S
C3035 C3039 1.408 . S
C3036 C3034 1.363 . S
C3036 C3037 1.370 . S
C3036 C3040 1.524 . S
C3037 C3029 1.503 . S
C3037 C3036 1.370 . S
C3037 C3038 1.403 . S
C3038 C3037 1.403 . S
C3038 C3039 1.404 . S
C3038 C3041 1.539 . S
C3039 C3035 1.408 . S
C3039 C3038 1.404 . S
C3039 H3051 0.930 . S
C3040 C3036 1.524 . S
C3040 H3052 0.956 . S
C3040 H3053 0.961 . S
C3040 H3054 0.961 . S
C3041 C3038 1.539 . S
C3041 H3055 0.958 . S
C3041 H3056 0.961 . S
C3041 H3057 0.960 . S
H3042 C3026 0.931 . S
H3043 C3031 0.929 . S
H3044 C3032 0.960 . S
H3045 C3032 0.962 . S
H3046 C3032 0.960 . S
H3047 C3033 0.961 . S
H3048 C3033 0.961 . S
H3049 C3033 0.961 . S
H3050 C3034 0.931 . S
H3051 C3039 0.930 . S
H3052 C3040 0.956 . S
H3053 C3040 0.961 . S
H3054 C3040 0.961 . S
H3055 C3041 0.958 . S
H3056 C3041 0.961 . S
H3057 C3041 0.960 . S
C3058 C3059 1.391 . S
C3058 C3060 1.394 . S
C3058 H3074 0.931 . S
C3059 C3058 1.391 . S
C3059 C3063 1.376 . S
C3060 C3058 1.394 . S
C3060 C3061 1.369 . S
C3060 C3064 1.531 . S
C3061 C3060 1.369 . S
C3061 C3062 1.410 . S
C3061 C3069 1.503 . S
C3062 C3061 1.410 . S
C3062 C3063 1.392 . S
C3062 C3065 1.511 . S
C3063 C3059 1.376 . S
C3063 C3062 1.392 . S
C3063 H3075 0.929 . S
C3064 C3060 1.531 . S
C3064 H3076 0.960 . S
C3064 H3077 0.962 . S
C3064 H3078 0.960 . S
C3065 C3062 1.511 . S
C3065 H3079 0.961 . S
C3065 H3080 0.961 . S
C3065 H3081 0.961 . S
C3066 C3067 1.370 . S
C3066 C3068 1.363 . S
C3066 H3082 0.931 . S
C3067 C3066 1.370 . S
C3067 C3071 1.408 . S
C3068 C3066 1.363 . S
C3068 C3069 1.370 . S
C3068 C3072 1.524 . S
C3069 C3061 1.503 . S
C3069 C3068 1.370 . S
C3069 C3070 1.403 . S
C3070 C3069 1.403 . S
C3070 C3071 1.404 . S
C3070 C3073 1.539 . S
C3071 C3067 1.408 . S
C3071 C3070 1.404 . S
C3071 H3083 0.930 . S
C3072 C3068 1.524 . S
C3072 H3084 0.956 . S
C3072 H3085 0.961 . S
C3072 H3086 0.961 . S
C3073 C3070 1.539 . S
C3073 H3087 0.958 . S
C3073 H3088 0.961 . S
C3073 H3089 0.960 . S
H3074 C3058 0.931 . S
H3075 C3063 0.929 . S
H3076 C3064 0.960 . S
H3077 C3064 0.962 . S
H3078 C3064 0.960 . S
H3079 C3065 0.961 . S
H3080 C3065 0.961 . S
H3081 C3065 0.961 . S
H3082 C3066 0.931 . S
H3083 C3071 0.930 . S
H3084 C3072 0.956 . S
H3085 C3072 0.961 . S
H3086 C3072 0.961 . S
H3087 C3073 0.958 . S
H3088 C3073 0.961 . S
H3089 C3073 0.960 . S
C3090 C3091 1.391 . S
C3090 C3092 1.394 . S
C3090 H3106 0.931 . S
C3091 C3090 1.391 . S
C3091 C3095 1.376 . S
C3092 C3090 1.394 . S
C3092 C3093 1.369 . S
C3092 C3096 1.531 . S
C3093 C3092 1.369 . S
C3093 C3094 1.410 . S
C3093 C3101 1.503 . S
C3094 C3093 1.410 . S
C3094 C3095 1.392 . S
C3094 C3097 1.511 . S
C3095 C3091 1.376 . S
C3095 C3094 1.392 . S
C3095 H3107 0.929 . S
C3096 C3092 1.531 . S
C3096 H3108 0.960 . S
C3096 H3109 0.962 . S
C3096 H3110 0.960 . S
C3097 C3094 1.511 . S
C3097 H3111 0.961 . S
C3097 H3112 0.961 . S
C3097 H3113 0.961 . S
C3098 C3099 1.370 . S
C3098 C3100 1.363 . S
C3098 H3114 0.931 . S
C3099 C3098 1.370 . S
C3099 C3103 1.408 . S
C3100 C3098 1.363 . S
C3100 C3101 1.370 . S
C3100 C3104 1.524 . S
C3101 C3093 1.503 . S
C3101 C3100 1.370 . S
C3101 C3102 1.403 . S
C3102 C3101 1.403 . S
C3102 C3103 1.404 . S
C3102 C3105 1.539 . S
C3103 C3099 1.408 . S
C3103 C3102 1.404 . S
C3103 H3115 0.930 . S
C3104 C3100 1.524 . S
C3104 H3116 0.956 . S
C3104 H3117 0.961 . S
C3104 H3118 0.961 . S
C3105 C3102 1.539 . S
C3105 H3119 0.958 . S
C3105 H3120 0.961 . S
C3105 H3121 0.960 . S
H3106 C3090 0.931 . S
H3107 C3095 0.929 . S
H3108 C3096 0.960 . S
H3109 C3096 0.962 . S
H3110 C3096 0.960 . S
H3111 C3097 0.961 . S
H3112 C3097 0.961 . S
H3113 C3097 0.961 . S
H3114 C3098 0.931 . S
H3115 C3103 0.930 . S
H3116 C3104 0.956 . S
H3117 C3104 0.961 . S
H3118 C3104 0.961 . S
H3119 C3105 0.958 . S
H3120 C3105 0.961 . S
H3121 C3105 0.960 . S
C3122 C3123 1.391 . S
C3122 C3124 1.394 . S
C3122 H3138 0.931 . S
C3123 C3122 1.391 . S
C3123 C3127 1.376 . S
C3124 C3122 1.394 . S
C3124 C3125 1.369 . S
C3124 C3128 1.531 . S
C3125 C3124 1.369 . S
C3125 C3126 1.410 . S
C3125 C3133 1.503 . S
C3126 C3125 1.410 . S
C3126 C3127 1.392 . S
C3126 C3129 1.511 . S
C3127 C3123 1.376 . S
C3127 C3126 1.392 . S
C3127 H3139 0.929 . S
C3128 C3124 1.531 . S
C3128 H3140 0.960 . S
C3128 H3141 0.962 . S
C3128 H3142 0.960 . S
C3129 C3126 1.511 . S
C3129 H3143 0.961 . S
C3129 H3144 0.961 . S
C3129 H3145 0.961 . S
C3130 C3131 1.370 . S
C3130 C3132 1.363 . S
C3130 H3146 0.931 . S
C3131 C3130 1.370 . S
C3131 C3135 1.408 . S
C3132 C3130 1.363 . S
C3132 C3133 1.370 . S
C3132 C3136 1.524 . S
C3133 C3125 1.503 . S
C3133 C3132 1.370 . S
C3133 C3134 1.403 . S
C3134 C3133 1.403 . S
C3134 C3135 1.404 . S
C3134 C3137 1.539 . S
C3135 C3131 1.408 . S
C3135 C3134 1.404 . S
C3135 H3147 0.930 . S
C3136 C3132 1.524 . S
C3136 H3148 0.956 . S
C3136 H3149 0.961 . S
C3136 H3150 0.961 . S
C3137 C3134 1.539 . S
C3137 H3151 0.958 . S
C3137 H3152 0.961 . S
C3137 H3153 0.960 . S
H3138 C3122 0.931 . S
H3139 C3127 0.929 . S
H3140 C3128 0.960 . S
H3141 C3128 0.962 . S
H3142 C3128 0.960 . S
H3143 C3129 0.961 . S
H3144 C3129 0.961 . S
H3145 C3129 0.961 . S
H3146 C3130 0.931 . S
H3147 C3135 0.930 . S
H3148 C3136 0.956 . S
H3149 C3136 0.961 . S
H3150 C3136 0.961 . S
H3151 C3137 0.958 . S
H3152 C3137 0.961 . S
H3153 C3137 0.960 . S
C3154 C3155 1.391 . S
C3154 C3156 1.394 . S
C3154 H3170 0.931 . S
C3155 C3154 1.391 . S
C3155 C3159 1.376 . S
C3156 C3154 1.394 . S
C3156 C3157 1.369 . S
C3156 C3160 1.531 . S
C3157 C3156 1.369 . S
C3157 C3158 1.410 . S
C3157 C3165 1.503 . S
C3158 C3157 1.410 . S
C3158 C3159 1.392 . S
C3158 C3161 1.511 . S
C3159 C3155 1.376 . S
C3159 C3158 1.392 . S
C3159 H3171 0.929 . S
C3160 C3156 1.531 . S
C3160 H3172 0.960 . S
C3160 H3173 0.962 . S
C3160 H3174 0.960 . S
C3161 C3158 1.511 . S
C3161 H3175 0.961 . S
C3161 H3176 0.961 . S
C3161 H3177 0.961 . S
C3162 C3163 1.370 . S
C3162 C3164 1.363 . S
C3162 H3178 0.931 . S
C3163 C3162 1.370 . S
C3163 C3167 1.408 . S
C3164 C3162 1.363 . S
C3164 C3165 1.370 . S
C3164 C3168 1.524 . S
C3165 C3157 1.503 . S
C3165 C3164 1.370 . S
C3165 C3166 1.403 . S
C3166 C3165 1.403 . S
C3166 C3167 1.404 . S
C3166 C3169 1.539 . S
C3167 C3163 1.408 . S
C3167 C3166 1.404 . S
C3167 H3179 0.930 . S
C3168 C3164 1.524 . S
C3168 H3180 0.956 . S
C3168 H3181 0.961 . S
C3168 H3182 0.961 . S
C3169 C3166 1.539 . S
C3169 H3183 0.958 . S
C3169 H3184 0.961 . S
C3169 H3185 0.960 . S
H3170 C3154 0.931 . S
H3171 C3159 0.929 . S
H3172 C3160 0.960 . S
H3173 C3160 0.962 . S
H3174 C3160 0.960 . S
H3175 C3161 0.961 . S
H3176 C3161 0.961 . S
H3177 C3161 0.961 . S
H3178 C3162 0.931 . S
H3179 C3167 0.930 . S
H3180 C3168 0.956 . S
H3181 C3168 0.961 . S
H3182 C3168 0.961 . S
H3183 C3169 0.958 . S
H3184 C3169 0.961 . S
H3185 C3169 0.960 . S
C1459 C528 1.411 . S
C1467 C769 1.341 . S
C1491 C562 1.478 . S
C1499 C853 1.429 . S
C1523 C484 1.459 . S
C1531 C933 1.440 . S
C1555 C445 1.416 . S
C1563 C849 1.400 . S
C1595 C937 1.364 . S
C1587 C367 1.423 . S
C1619 C411 1.402 . S
C1627 C765 1.336 . S
C1659 C758 1.351 . S
C1651 C450 1.426 . S
C1691 C842 1.412 . S
C1683 C372 1.472 . S
C1715 C406 1.481 . S
C1723 C944 1.419 . S
C1747 C523 1.422 . S
C1755 C860 1.385 . S
C1779 C567 1.412 . S
C1787 C926 1.337 . S
C1819 C776 1.355 . S
C1811 C489 1.421 . S
C1851 C1021 1.362 . S
C1843 C60 1.419 . S
C1875 C94 1.489 . S
C1883 C1105 1.424 . S
C1907 C16 1.457 . S
C1915 C1185 1.443 . S
C1939 C679 1.436 . S
C1947 C1101 1.377 . S
C1971 C601 1.417 . S
C1979 C1189 1.367 . S
C2003 C645 1.395 . S
C2011 C1017 1.345 . S
C2035 C684 1.427 . S
C2043 C1010 1.382 . S
C2067 C606 1.459 . S
C2075 C1094 1.415 . S
C2107 C1196 1.440 . S
C2099 C640 1.453 . S
C2131 C55 1.432 . S
C2139 C1112 1.377 . S
C2171 C1178 1.318 . S
C2163 C99 1.401 . S
C2195 C21 1.412 . S
C2203 C1028 1.359 . S
C2235 C1273 1.363 . S
C2227 C294 1.411 . S
C2259 C328 1.491 . S
C2267 C1357 1.415 . S
C2299 C1437 1.442 . S
C2291 C250 1.457 . S
C2331 C1353 1.379 . S
C2323 C211 1.436 . S
C2363 C1441 1.342 . S
C2355 C133 1.415 . S
C2387 C177 1.379 . S
C2395 C1269 1.362 . S
C2419 C216 1.438 . S
C2427 C1262 1.380 . S
C2451 C138 1.459 . S
C2459 C1346 1.388 . S
C2491 C1448 1.425 . S
C2483 C172 1.466 . S
C2515 C289 1.429 . S
C2523 C1364 1.388 . S
C2547 C333 1.393 . S
C2555 C1430 1.347 . S
C2579 C255 1.402 . S
C2587 C1280 1.366 . S
C2611 C586 1.456 . S
C2619 C772 1.365 . S
C2651 C856 1.333 . S
C2643 C625 1.493 . S
C2675 C664 1.474 . S
C2683 C928 1.347 . S
C2707 C235 1.505 . S
C2715 C844 1.354 . S
C2739 C274 1.460 . S
C2747 C940 1.313 . S
C2779 C760 1.364 . S
C2771 C313 1.456 . S
C2803 C118 1.456 . S
C2811 C1024 1.337 . S
C2835 C157 1.490 . S
C2843 C1108 1.374 . S
C2867 C196 1.472 . S
C2875 C1180 1.337 . S
C2899 C469 1.503 . S
C2907 C1096 1.380 . S
C2939 C1192 1.312 . S
C2931 C508 1.460 . S
C2963 C547 1.458 . S
C2971 C1012 1.364 . S
C2995 C352 1.458 . S
C3003 C1276 1.347 . S
C3027 C391 1.492 . S
C3035 C1360 1.337 . S
C3067 C1432 1.349 . S
C3059 C430 1.470 . S
C3091 C1 1.500 . S
C3099 C1348 1.385 . S
C3123 C40 1.459 . S
C3131 C1444 1.353 . S
C3155 C79 1.455 . S
C3163 C1264 1.353 . S
