# Generated by pormake.
# Topology pyr, (3,6)-cn, num edge types: 1
# Building blocks:
#     Node 0, Type 0, BuildingBlock: MIDCAF_clean_linker_0, # of connection points: 3
#     Node 1, Type 0, BuildingBlock: MIDCAF_clean_linker_0, # of connection points: 3
#     Node 2, Type 0, BuildingBlock: MIDCAF_clean_linker_0, # of connection points: 3
#     Node 3, Type 0, BuildingBlock: MIDCAF_clean_linker_0, # of connection points: 3
#     Node 4, Type 0, BuildingBlock: MIDCAF_clean_linker_0, # of connection points: 3
#     Node 5, Type 0, BuildingBlock: MIDCAF_clean_linker_0, # of connection points: 3
#     Node 6, Type 0, BuildingBlock: MIDCAF_clean_linker_0, # of connection points: 3
#     Node 7, Type 0, BuildingBlock: MIDCAF_clean_linker_0, # of connection points: 3
#     Node 8, Type 1, BuildingBlock: BETDAH_clean_sbu_0, # of connection points: 6
#     Node 9, Type 1, BuildingBlock: BETDAH_clean_sbu_0, # of connection points: 6
#     Node 10, Type 1, BuildingBlock: BETDAH_clean_sbu_0, # of connection points: 6
#     Node 11, Type 1, BuildingBlock: BETDAH_clean_sbu_0, # of connection points: 6
#     Edge 12, Type (0, 1), BuildingBlock: MIFKUJ_clean_linker_0, # of connection points: 2
#     Edge 13, Type (0, 1), BuildingBlock: MIFKUJ_clean_linker_0, # of connection points: 2
#     Edge 14, Type (0, 1), BuildingBlock: MIFKUJ_clean_linker_0, # of connection points: 2
#     Edge 15, Type (0, 1), BuildingBlock: MIFKUJ_clean_linker_0, # of connection points: 2
#     Edge 16, Type (0, 1), BuildingBlock: MIFKUJ_clean_linker_0, # of connection points: 2
#     Edge 17, Type (0, 1), BuildingBlock: MIFKUJ_clean_linker_0, # of connection points: 2
#     Edge 18, Type (0, 1), BuildingBlock: MIFKUJ_clean_linker_0, # of connection points: 2
#     Edge 19, Type (0, 1), BuildingBlock: MIFKUJ_clean_linker_0, # of connection points: 2
#     Edge 20, Type (0, 1), BuildingBlock: MIFKUJ_clean_linker_0, # of connection points: 2
#     Edge 21, Type (0, 1), BuildingBlock: MIFKUJ_clean_linker_0, # of connection points: 2
#     Edge 22, Type (0, 1), BuildingBlock: MIFKUJ_clean_linker_0, # of connection points: 2
#     Edge 23, Type (0, 1), BuildingBlock: MIFKUJ_clean_linker_0, # of connection points: 2
#     Edge 24, Type (0, 1), BuildingBlock: MIFKUJ_clean_linker_0, # of connection points: 2
#     Edge 25, Type (0, 1), BuildingBlock: MIFKUJ_clean_linker_0, # of connection points: 2
#     Edge 26, Type (0, 1), BuildingBlock: MIFKUJ_clean_linker_0, # of connection points: 2
#     Edge 27, Type (0, 1), BuildingBlock: MIFKUJ_clean_linker_0, # of connection points: 2
#     Edge 28, Type (0, 1), BuildingBlock: MIFKUJ_clean_linker_0, # of connection points: 2
#     Edge 29, Type (0, 1), BuildingBlock: MIFKUJ_clean_linker_0, # of connection points: 2
#     Edge 30, Type (0, 1), BuildingBlock: MIFKUJ_clean_linker_0, # of connection points: 2
#     Edge 31, Type (0, 1), BuildingBlock: MIFKUJ_clean_linker_0, # of connection points: 2
#     Edge 32, Type (0, 1), BuildingBlock: MIFKUJ_clean_linker_0, # of connection points: 2
#     Edge 33, Type (0, 1), BuildingBlock: MIFKUJ_clean_linker_0, # of connection points: 2
#     Edge 34, Type (0, 1), BuildingBlock: MIFKUJ_clean_linker_0, # of connection points: 2
#     Edge 35, Type (0, 1), BuildingBlock: MIFKUJ_clean_linker_0, # of connection points: 2
# Relax obj value: 0.073
# Max RMSD: 0.120
# Mean RMSD: 0.055
data_MOF--net-pyr--node1-BETDAH_clean_sbu_0--node2-MIDCAF_clean_linker_0--edge1-MIFKUJ_clean_linker_0
_symmetry_space_group_name_H-M    P1
_symmetry_Int_Tables_number       1
_symmetry_cell_setting            triclinic
loop_
_symmetry_equiv_pos_as_xyz
'x, y, z'
_cell_length_a     57.591901
_cell_length_b     61.167211
_cell_length_c     55.78287
_cell_angle_alpha  91.652786
_cell_angle_beta   88.583771
_cell_angle_gamma 97.918009
loop_
_atom_site_label
_atom_site_type_symbol
_atom_site_fract_x
_atom_site_fract_y
_atom_site_fract_z
_atom_type_partial_charge
C0 C 0.26068 0.24641 0.29143 0.0
C1 C 0.26131 0.22444 0.29783 0.0
C2 C 0.27712 0.21226 0.28556 0.0
C3 C 0.29089 0.22138 0.2664 0.0
H4 H 0.35277 0.21905 0.22159 0.0
H5 H 0.3773 0.19501 0.20045 0.0
H6 H 0.35776 0.21866 0.13267 0.0
H7 H 0.33319 0.24292 0.15379 0.0
H8 H 0.30121 0.28326 0.15512 0.0
H9 H 0.27916 0.30882 0.13549 0.0
H10 H 0.25544 0.33147 0.20474 0.0
H11 H 0.27693 0.30575 0.22428 0.0
H12 H 0.27268 0.27217 0.26717 0.0
H13 H 0.2491 0.25643 0.30086 0.0
H14 H 0.27795 0.19524 0.28986 0.0
H15 H 0.30204 0.21115 0.25666 0.0
N16 N 0.31619 0.23995 0.22446 0.0
N17 N 0.31649 0.26309 0.19153 0.0
N18 N 0.29277 0.26832 0.22542 0.0
C19 C 0.32453 0.24596 0.20225 0.0
C20 C 0.30076 0.27452 0.2032 0.0
C21 C 0.3003 0.25105 0.23617 0.0
C22 C 0.34092 0.23283 0.18938 0.0
C23 C 0.35383 0.2193 0.20219 0.0
C24 C 0.36801 0.20563 0.19011 0.0
C25 C 0.36938 0.20496 0.16494 0.0
C26 C 0.35689 0.21878 0.15209 0.0
C27 C 0.34295 0.23274 0.1642 0.0
C28 C 0.29053 0.29219 0.19125 0.0
C29 C 0.29159 0.29395 0.16615 0.0
C30 C 0.279 0.30864 0.1549 0.0
C31 C 0.26522 0.32191 0.16854 0.0
C32 C 0.2654 0.32109 0.19368 0.0
C33 C 0.27782 0.30637 0.20489 0.0
C34 C 0.28902 0.24282 0.25895 0.0
C35 C 0.27431 0.25548 0.27217 0.0
C36 C 0.20285 0.87467 0.61752 0.0
C37 C 0.19384 0.86765 0.595 0.0
C38 C 0.20317 0.85061 0.58227 0.0
C39 C 0.22172 0.84126 0.59157 0.0
H40 H 0.27301 0.79999 0.57383 0.0
H41 H 0.29268 0.7716 0.553 0.0
H42 H 0.32758 0.76074 0.61837 0.0
H43 H 0.30827 0.78906 0.63906 0.0
H44 H 0.32511 0.83614 0.66853 0.0
H45 H 0.3497 0.85887 0.69709 0.0
H46 H 0.30378 0.90899 0.69517 0.0
H47 H 0.27883 0.88612 0.66707 0.0
H48 H 0.22838 0.87169 0.64385 0.0
H49 H 0.19619 0.88797 0.62759 0.0
H50 H 0.19641 0.84484 0.56492 0.0
H51 H 0.22895 0.82854 0.58106 0.0
N52 N 0.26026 0.82272 0.61214 0.0
N53 N 0.2926 0.8274 0.63746 0.0
N54 N 0.26527 0.85236 0.63999 0.0
C55 C 0.28015 0.8158 0.6198 0.0
C56 C 0.28533 0.84577 0.64758 0.0
C57 C 0.25257 0.84088 0.62242 0.0
C58 C 0.28929 0.7968 0.608 0.0
C59 C 0.28454 0.79121 0.58382 0.0
C60 C 0.2958 0.77508 0.57189 0.0
C61 C 0.31152 0.76403 0.58414 0.0
C62 C 0.31529 0.76885 0.60861 0.0
C63 C 0.3044 0.78518 0.62039 0.0
C64 C 0.29991 0.85924 0.66553 0.0
C65 C 0.32018 0.85197 0.67422 0.0
C66 C 0.33441 0.86508 0.69045 0.0
C67 C 0.32874 0.88576 0.69831 0.0
C68 C 0.30848 0.89302 0.68966 0.0
C69 C 0.29419 0.87989 0.6735 0.0
C70 C 0.23142 0.84898 0.61363 0.0
C71 C 0.22146 0.86547 0.62672 0.0
C72 C 0.64541 0.26592 0.88511 0.0
C73 C 0.62287 0.25517 0.87915 0.0
C74 C 0.6108 0.26561 0.86182 0.0
C75 C 0.62071 0.28576 0.85124 0.0
H76 H 0.61672 0.33104 0.78999 0.0
H77 H 0.60107 0.34782 0.75565 0.0
H78 H 0.65171 0.40604 0.76608 0.0
H79 H 0.66766 0.38899 0.79966 0.0
H80 H 0.70478 0.3932 0.84496 0.0
H81 H 0.73994 0.41197 0.86397 0.0
H82 H 0.75119 0.35059 0.89532 0.0
H83 H 0.71539 0.33237 0.87739 0.0
H84 H 0.67251 0.29335 0.88016 0.0
H85 H 0.65592 0.25871 0.89773 0.0
H86 H 0.59337 0.25846 0.85661 0.0
H87 H 0.61058 0.29304 0.83827 0.0
N88 N 0.64418 0.32793 0.82824 0.0
N89 N 0.67424 0.35839 0.82963 0.0
N90 N 0.67414 0.32951 0.85656 0.0
C91 C 0.6542 0.34789 0.81925 0.0
C92 C 0.68446 0.3494 0.84822 0.0
C93 C 0.65399 0.31855 0.84701 0.0
C94 C 0.64373 0.35837 0.79807 0.0
C95 C 0.62459 0.34743 0.78501 0.0
C96 C 0.61543 0.35728 0.76513 0.0
C97 C 0.62487 0.37861 0.75731 0.0
C98 C 0.64389 0.38953 0.77061 0.0
C99 C 0.65308 0.37967 0.79034 0.0
C100 C 0.70679 0.36109 0.85949 0.0
C101 C 0.71471 0.38367 0.85595 0.0
C102 C 0.73527 0.3945 0.86689 0.0
C103 C 0.74917 0.38319 0.88161 0.0
C104 C 0.74125 0.36047 0.88482 0.0
C105 C 0.72051 0.34977 0.87421 0.0
C106 C 0.64311 0.29653 0.85754 0.0
C107 C 0.65519 0.28605 0.87469 0.0
C108 C 0.777 0.65526 0.39399 0.0
C109 C 0.76485 0.63579 0.38368 0.0
C110 C 0.77424 0.62751 0.36221 0.0
C111 C 0.79503 0.63822 0.35155 0.0
H112 H 0.84172 0.63315 0.29464 0.0
H113 H 0.85859 0.61549 0.26013 0.0
H114 H 0.91938 0.6654 0.26219 0.0
H115 H 0.90202 0.68353 0.29648 0.0
H116 H 0.89621 0.73015 0.33189 0.0
H117 H 0.91292 0.76579 0.34971 0.0
H118 H 0.86492 0.75504 0.41015 0.0
H119 H 0.84839 0.71962 0.39257 0.0
H120 H 0.80631 0.68096 0.3919 0.0
H121 H 0.77035 0.66245 0.41028 0.0
H122 H 0.76571 0.61247 0.35375 0.0
H123 H 0.80158 0.63116 0.33513 0.0
N124 N 0.83943 0.66032 0.33081 0.0
N125 N 0.86972 0.69043 0.33001 0.0
N126 N 0.83988 0.68896 0.35978 0.0
C127 C 0.8596 0.67061 0.32037 0.0
C128 C 0.85996 0.69979 0.34978 0.0
C129 C 0.82939 0.66928 0.35051 0.0
C130 C 0.87035 0.65994 0.29873 0.0
C131 C 0.85869 0.64049 0.28784 0.0
C132 C 0.86857 0.63015 0.26793 0.0
C133 C 0.89065 0.63868 0.25802 0.0
C134 C 0.90228 0.65825 0.26882 0.0
C135 C 0.89231 0.66868 0.28875 0.0
C136 C 0.87081 0.72169 0.36062 0.0
C137 C 0.88922 0.73531 0.34902 0.0
C138 C 0.89876 0.75593 0.35923 0.0
C139 C 0.89043 0.76357 0.38155 0.0
C140 C 0.87216 0.74984 0.39317 0.0
C141 C 0.8625 0.7294 0.38289 0.0
C142 C 0.80716 0.65771 0.36188 0.0
C143 C 0.7977 0.66604 0.38328 0.0
C144 C 0.66831 0.83574 0.83116 0.0
C145 C 0.65818 0.83087 0.85386 0.0
C146 C 0.66134 0.81092 0.86438 0.0
C147 C 0.67495 0.7964 0.85268 0.0
H148 H 0.71666 0.74553 0.86641 0.0
H149 H 0.73968 0.72262 0.88926 0.0
H150 H 0.78241 0.71328 0.82621 0.0
H151 H 0.75966 0.7355 0.80335 0.0
H152 H 0.748 0.75266 0.75454 0.0
H153 H 0.77035 0.76403 0.71839 0.0
H154 H 0.7428 0.82625 0.72167 0.0
H155 H 0.72009 0.81482 0.75775 0.0
H156 H 0.68936 0.82565 0.80198 0.0
H157 H 0.66595 0.8509 0.82253 0.0
H158 H 0.6538 0.80682 0.88193 0.0
H159 H 0.67741 0.78133 0.86143 0.0
N160 N 0.70939 0.7708 0.83029 0.0
N161 N 0.73112 0.76198 0.79618 0.0
N162 N 0.7078 0.79025 0.79473 0.0
C163 C 0.72463 0.75832 0.81941 0.0
C164 C 0.72282 0.77778 0.78366 0.0
C165 C 0.70078 0.78675 0.81795 0.0
C166 C 0.73638 0.74261 0.83306 0.0
C167 C 0.73076 0.73835 0.85735 0.0
C168 C 0.74386 0.72524 0.87043 0.0
C169 C 0.76293 0.71652 0.85948 0.0
C170 C 0.76796 0.72009 0.8351 0.0
C171 C 0.75479 0.73282 0.82201 0.0
C172 C 0.73259 0.78301 0.75935 0.0
C173 C 0.74632 0.76862 0.74736 0.0
C174 C 0.75918 0.77512 0.72664 0.0
C175 C 0.75862 0.79615 0.71742 0.0
C176 C 0.7435 0.80988 0.72828 0.0
C177 C 0.73055 0.80335 0.74905 0.0
C178 C 0.68539 0.80143 0.83007 0.0
C179 C 0.68163 0.82116 0.81935 0.0
C180 C 0.70658 0.14736 0.35261 0.0
C181 C 0.68371 0.15058 0.34684 0.0
C182 C 0.67103 0.1628 0.36295 0.0
C183 C 0.68114 0.17182 0.38419 0.0
H184 H 0.66537 0.19751 0.45104 0.0
H185 H 0.64263 0.21746 0.47916 0.0
H186 H 0.70565 0.24261 0.51703 0.0
H187 H 0.72865 0.22282 0.48866 0.0
H188 H 0.77766 0.20849 0.47023 0.0
H189 H 0.81839 0.20407 0.47736 0.0
H190 H 0.81777 0.15946 0.41577 0.0
H191 H 0.7777 0.16439 0.4082 0.0
H192 H 0.73442 0.15363 0.37748 0.0
H193 H 0.71668 0.13768 0.34084 0.0
H194 H 0.65345 0.16577 0.35892 0.0
H195 H 0.67099 0.18136 0.39606 0.0
N196 N 0.70263 0.18866 0.42885 0.0
N197 N 0.73622 0.19759 0.45207 0.0
N198 N 0.7385 0.17857 0.41521 0.0
C199 C 0.71293 0.19798 0.44905 0.0
C200 C 0.74912 0.18787 0.43519 0.0
C201 C 0.71532 0.17892 0.41184 0.0
C202 C 0.69892 0.20875 0.46737 0.0
C203 C 0.67444 0.20711 0.46545 0.0
C204 C 0.66132 0.21836 0.48176 0.0
C205 C 0.67235 0.23157 0.50034 0.0
C206 C 0.6967 0.23264 0.5028 0.0
C207 C 0.70985 0.22128 0.48653 0.0
C208 C 0.7743 0.18666 0.43876 0.0
C209 C 0.78634 0.19796 0.45805 0.0
C210 C 0.80968 0.19543 0.46215 0.0
C211 C 0.8214 0.18146 0.44712 0.0
C212 C 0.80954 0.17075 0.42742 0.0
C213 C 0.78636 0.1734 0.42322 0.0
C214 C 0.70419 0.16888 0.38974 0.0
C215 C 0.71672 0.15644 0.37374 0.0
C216 C 0.2816 0.632 0.16772 0.0
C217 C 0.27155 0.6413 0.14817 0.0
C218 C 0.28351 0.66149 0.13982 0.0
C219 C 0.30438 0.67187 0.15045 0.0
H220 H 0.3503 0.72959 0.14889 0.0
H221 H 0.36701 0.76458 0.13221 0.0
H222 H 0.42897 0.76432 0.17413 0.0
H223 H 0.41163 0.72937 0.19157 0.0
H224 H 0.41207 0.68363 0.22959 0.0
H225 H 0.42838 0.66571 0.26293 0.0
H226 H 0.36291 0.62291 0.27163 0.0
H227 H 0.34674 0.6406 0.23837 0.0
H228 H 0.30933 0.63454 0.19333 0.0
H229 H 0.27313 0.61672 0.17518 0.0
H230 H 0.27699 0.66929 0.12467 0.0
H231 H 0.31274 0.68727 0.14315 0.0
N232 N 0.34785 0.69349 0.17268 0.0
N233 N 0.37799 0.69432 0.20068 0.0
N234 N 0.34693 0.66473 0.19989 0.0
C235 C 0.36827 0.70403 0.18208 0.0
C236 C 0.36742 0.67464 0.20987 0.0
C237 C 0.33697 0.67387 0.18121 0.0
C238 C 0.37938 0.7261 0.17182 0.0
C239 C 0.36753 0.73684 0.1547 0.0
C240 C 0.37737 0.75718 0.14481 0.0
C241 C 0.39977 0.76793 0.15131 0.0
C242 C 0.41165 0.7572 0.16854 0.0
C243 C 0.40168 0.73682 0.17859 0.0
C244 C 0.37786 0.66383 0.23082 0.0
C245 C 0.40105 0.67041 0.23855 0.0
C246 C 0.41054 0.65993 0.25778 0.0
C247 C 0.39717 0.64262 0.27049 0.0
C248 C 0.37395 0.63621 0.26283 0.0
C249 C 0.36461 0.64641 0.24342 0.0
C250 C 0.31439 0.66258 0.16998 0.0
C251 C 0.30251 0.6424 0.17838 0.0
C252 C 0.1391 0.28605 0.63424 0.0
C253 C 0.12452 0.27025 0.64782 0.0
C254 C 0.12057 0.27586 0.67226 0.0
C255 C 0.13065 0.29625 0.68251 0.0
H256 H 0.11211 0.35611 0.72596 0.0
H257 H 0.09474 0.37384 0.76068 0.0
H258 H 0.16235 0.41003 0.77704 0.0
H259 H 0.17966 0.39272 0.74206 0.0
H260 H 0.20748 0.4069 0.68091 0.0
H261 H 0.2439 0.42444 0.66174 0.0
H262 H 0.25782 0.36096 0.63392 0.0
H263 H 0.2212 0.34349 0.65246 0.0
H264 H 0.16072 0.31758 0.63342 0.0
H265 H 0.14237 0.28319 0.61532 0.0
H266 H 0.10998 0.2644 0.68383 0.0
H267 H 0.12719 0.29971 0.70131 0.0
N268 N 0.14755 0.34273 0.69951 0.0
N269 N 0.17863 0.37217 0.69906 0.0
N270 N 0.17763 0.34336 0.67011 0.0
C271 C 0.15813 0.36229 0.70929 0.0
C272 C 0.18856 0.36283 0.67949 0.0
C273 C 0.15716 0.33313 0.67987 0.0
C274 C 0.14741 0.37288 0.73093 0.0
C275 C 0.12335 0.36783 0.73691 0.0
C276 C 0.11331 0.37812 0.75684 0.0
C277 C 0.12706 0.39345 0.77187 0.0
C278 C 0.15116 0.39825 0.7661 0.0
C279 C 0.1611 0.38835 0.74587 0.0
C280 C 0.21118 0.37369 0.66831 0.0
C281 C 0.21828 0.39664 0.67073 0.0
C282 C 0.23915 0.40674 0.65962 0.0
C283 C 0.25392 0.39416 0.64625 0.0
C284 C 0.24703 0.37119 0.64416 0.0
C285 C 0.2259 0.36117 0.65475 0.0
C286 C 0.14554 0.31165 0.66894 0.0
C287 C 0.1496 0.30615 0.64464 0.0
Ho288 Ho 0.01153 0.0288 0.48803 0.0
Ho289 Ho 0.99802 1.00948 0.53812 0.0
C290 C 0.02445 0.05902 0.53586 0.0
C291 C 0.01611 0.04572 0.44616 0.0
C292 C 0.03485 0.06126 0.4347 0.0
C293 C 0.03452 0.08421 0.43654 0.0
C294 C 0.05328 0.09884 0.42749 0.0
C295 C 0.07274 0.09083 0.41643 0.0
C296 C 0.07267 0.06792 0.41383 0.0
C297 C 0.05391 0.0533 0.42275 0.0
C298 C 0.0472 0.01658 0.51248 0.0
C299 C 0.98306 0.97854 0.49076 0.0
C300 C 0.99091 0.98442 0.57476 0.0
C301 C 0.97369 0.96488 0.57985 0.0
C302 C 0.98124 0.94566 0.58807 0.0
C303 C 0.96499 0.92711 0.59315 0.0
C304 C 0.9408 0.92759 0.59045 0.0
C305 C 0.93343 0.94681 0.58173 0.0
C306 C 0.94968 0.96515 0.5763 0.0
C307 C 0.9684 0.03515 0.52061 0.0
O308 O 0.01778 0.05887 0.51317 0.0
O309 O 0.02236 0.04054 0.54823 0.0
O310 O 0.02152 0.02613 0.45067 0.0
O311 O 1.00409 0.0538 0.46379 0.0
O312 O 0.05005 0.03175 0.49659 0.0
O313 O 0.02646 1.00717 0.5121 0.0
O314 O 0.98152 0.98114 0.51442 0.0
O315 O 0.9934 0.99459 0.47694 0.0
O316 O 0.98255 1.00313 0.57325 0.0
O317 O 0.00661 0.98179 0.55802 0.0
O318 O 0.9724 0.03389 0.54323 0.0
O319 O 0.97887 0.02155 0.50874 0.0
H320 H 0.02002 0.09089 0.44544 0.0
H321 H 0.05287 0.11643 0.42976 0.0
H322 H 0.0872 0.06126 0.40494 0.0
H323 H 0.05459 0.03574 0.42068 0.0
H324 H 0.99971 0.94507 0.59072 0.0
H325 H 0.9714 0.9125 0.5994 0.0
H326 H 0.91501 0.94805 0.57978 0.0
H327 H 0.94333 0.97966 0.56968 0.0
Ho328 Ho 0.53559 0.01845 0.03325 0.0
Ho329 Ho 0.48882 1.00648 1.00253 0.0
C330 C 0.4879 0.0371 0.05046 0.0
C331 C 0.57422 0.03838 0.05049 0.0
C332 C 0.58337 0.04435 0.07442 0.0
C333 C 0.60079 0.06254 0.07714 0.0
C334 C 0.60866 0.0695 0.09993 0.0
C335 C 0.59926 0.05832 0.12043 0.0
C336 C 0.58194 0.03987 0.11755 0.0
C337 C 0.57399 0.03299 0.09471 0.0
C338 C 0.50769 0.9814 0.05116 0.0
C339 C 0.53592 0.987 0.98586 0.0
C340 C 0.45064 0.98769 0.98357 0.0
C341 C 0.44354 0.98507 0.95856 0.0
C342 C 0.42232 0.97234 0.95259 0.0
C343 C 0.41621 0.96898 0.92855 0.0
C344 C 0.43128 0.97836 0.91019 0.0
C345 C 0.45245 0.99133 0.91639 0.0
C346 C 0.45855 0.99459 0.94038 0.0
C347 C 0.5168 0.04345 0.98445 0.0
O348 O 0.51107 0.03942 0.0514 0.0
O349 O 0.47566 0.02293 0.03561 0.0
O350 O 0.57099 0.01729 0.04459 0.0
O351 O 0.5569 0.04867 0.0443 0.0
O352 O 0.52743 0.99055 0.06007 0.0
O353 O 0.50412 0.99334 0.03376 0.0
O354 O 0.51278 0.98449 0.98556 0.0
O355 O 0.54846 1.00156 1.0001 0.0
O356 O 0.45315 1.00797 0.99232 0.0
O357 O 0.46792 0.97698 0.98893 0.0
O358 O 0.49712 0.03424 0.97562 0.0
O359 O 0.52031 0.03159 1.00195 0.0
H360 H 0.60799 0.07163 0.06165 0.0
H361 H 0.62168 0.08401 0.1015 0.0
H362 H 0.57452 0.03076 0.13292 0.0
H363 H 0.56034 0.019 0.09292 0.0
H364 H 0.41067 0.96473 0.96646 0.0
H365 H 0.39996 0.9586 0.92434 0.0
H366 H 0.4643 0.99896 0.90271 0.0
H367 H 0.47513 1.00434 0.94474 0.0
Ho368 Ho 0.51175 0.49269 0.49902 0.0
Ho369 Ho 0.50988 0.52925 0.52971 0.0
C370 C 0.5302 0.48971 0.55421 0.0
C371 C 0.52402 0.45863 0.47629 0.0
C372 C 0.53047 0.43811 0.48548 0.0
C373 C 0.54737 0.4275 0.47312 0.0
C374 C 0.55599 0.40974 0.48332 0.0
C375 C 0.54783 0.40235 0.50606 0.0
C376 C 0.5304 0.41262 0.51812 0.0
C377 C 0.52188 0.43047 0.50796 0.0
C378 C 0.46975 0.49045 0.52337 0.0
C379 C 0.49142 0.53196 0.47437 0.0
C380 C 0.49926 0.56291 0.55467 0.0
C381 C 0.49412 0.58518 0.54976 0.0
C382 C 0.47928 0.5888 0.53114 0.0
C383 C 0.47316 0.60978 0.52798 0.0
C384 C 0.48195 0.6276 0.54323 0.0
C385 C 0.49778 0.6241 0.56106 0.0
C386 C 0.50374 0.60303 0.56433 0.0
C387 C 0.55192 0.53169 0.50541 0.0
O388 O 0.5316 0.48257 0.53159 0.0
O389 O 0.5194 0.5071 0.55886 0.0
O390 O 0.50218 0.46174 0.47961 0.0
O391 O 0.53869 0.47624 0.48154 0.0
O392 O 0.47213 0.48645 0.50058 0.0
O393 O 0.48982 0.49589 0.53217 0.0
O394 O 0.48959 0.53898 0.49707 0.0
O395 O 0.50263 0.51482 0.4697 0.0
O396 O 0.52076 0.55933 0.55026 0.0
O397 O 0.48382 0.5464 0.54769 0.0
O398 O 0.54938 0.53575 0.52813 0.0
O399 O 0.53188 0.52604 0.4966 0.0
H400 H 0.55435 0.43335 0.45589 0.0
H401 H 0.56921 0.4019 0.47352 0.0
H402 H 0.52397 0.40736 0.53573 0.0
H403 H 0.50911 0.43871 0.51799 0.0
H404 H 0.47179 0.57532 0.51949 0.0
H405 H 0.4606 0.61172 0.51432 0.0
H406 H 0.50508 0.63751 0.5729 0.0
H407 H 0.51545 0.60056 0.57862 0.0
Ho408 Ho 0.01205 0.49219 0.02805 0.0
Ho409 Ho 1.00468 0.53685 1.00571 0.0
C410 C 0.0532 0.53554 0.03442 0.0
C411 C 0.02836 0.45687 0.04018 0.0
C412 C 0.05057 0.45072 0.04894 0.0
C413 C 0.06464 0.43917 0.0336 0.0
C414 C 0.0848 0.43185 0.04207 0.0
C415 C 0.09118 0.43573 0.06613 0.0
C416 C 0.0774 0.44769 0.08134 0.0
C417 C 0.05732 0.45511 0.07285 0.0
C418 C 0.98665 0.51836 0.05549 0.0
C419 C 0.96563 0.49252 0.99632 0.0
C420 C 0.98694 0.57308 1.00211 0.0
C421 C 0.96857 0.58171 0.98846 0.0
C422 C 0.94639 0.58255 0.9993 0.0
C423 C 0.92895 0.59126 0.98726 0.0
C424 C 0.9333 0.59958 0.96414 0.0
C425 C 0.95549 0.59884 0.95325 0.0
C426 C 0.97297 0.58997 0.96529 0.0
C427 C 0.02371 0.51097 0.9715 0.0
O428 O 0.04666 0.51392 0.03685 0.0
O429 O 0.03959 0.54805 0.02364 0.0
O430 O 0.01642 0.4684 0.05484 0.0
O431 O 0.02849 0.46342 0.01803 0.0
O432 O 0.98233 0.49692 0.05413 0.0
O433 O 1.00463 0.52459 0.04256 0.0
O434 O 0.97074 0.51445 0.99614 0.0
O435 O 0.97984 0.4801 1.0062 0.0
O436 O 0.00635 0.56941 0.99073 0.0
O437 O 0.97932 0.55772 0.0174 0.0
O438 O 0.01849 0.53059 0.96775 0.0
O439 O 0.01837 0.50684 0.99318 0.0
H440 H 0.05977 0.43538 0.01515 0.0
H441 H 0.09491 0.42246 0.03 0.0
H442 H 0.08202 0.4511 0.09991 0.0
H443 H 0.0469 0.46395 0.08518 0.0
H444 H 0.94255 0.57669 0.0173 0.0
H445 H 0.91222 0.59198 0.99634 0.0
H446 H 0.95932 0.60506 0.9354 0.0
H447 H 0.98993 0.58976 0.95652 0.0
H448 H 0.21501 0.22924 0.30321 0.0
H449 H 0.18557 0.20874 0.32905 0.0
H450 H 0.23839 0.17379 0.35767 0.0
H451 H 0.26823 0.1946 0.33202 0.0
H452 H 0.20076 0.14601 0.34244 0.0
H453 H 0.21356 0.21061 0.39281 0.0
H454 H 0.21793 0.25045 0.40289 0.0
H455 H 0.1473 0.25298 0.38139 0.0
H456 H 0.1426 0.2132 0.37085 0.0
H457 H 0.11903 0.08792 0.42273 0.0
H458 H 0.15298 0.11238 0.40744 0.0
H459 H 0.10689 0.15293 0.37578 0.0
H460 H 0.0728 0.12858 0.39121 0.0
H461 H 0.14362 0.17798 0.39628 0.0
H462 H 0.13232 0.11477 0.34209 0.0
H463 H 0.12773 0.07508 0.33115 0.0
H464 H 0.19562 0.07032 0.35909 0.0
H465 H 0.20047 0.10995 0.3705 0.0
C466 C 0.22058 0.21766 0.31545 0.0
C467 C 0.24405 0.21362 0.31555 0.0
C468 C 0.20366 0.20589 0.3302 0.0
C469 C 0.20981 0.18985 0.34542 0.0
C470 C 0.23329 0.18612 0.34605 0.0
C471 C 0.25029 0.19795 0.33132 0.0
C472 C 0.19132 0.17584 0.3591 0.0
C473 C 0.18857 0.15296 0.35463 0.0
C474 C 0.17507 0.18499 0.3745 0.0
C475 C 0.1778 0.20893 0.38086 0.0
C476 C 0.19902 0.21968 0.39005 0.0
C477 C 0.20154 0.24226 0.39588 0.0
C478 C 0.18292 0.25424 0.39274 0.0
C479 C 0.16171 0.24367 0.38381 0.0
C480 C 0.1591 0.2211 0.37793 0.0
C481 C 0.11613 0.10202 0.41244 0.0
C482 C 0.09326 0.10621 0.40793 0.0
C483 C 0.13554 0.116 0.40378 0.0
C484 C 0.13246 0.1343 0.39018 0.0
C485 C 0.10966 0.1389 0.38623 0.0
C486 C 0.09021 0.12498 0.39504 0.0
C487 C 0.15296 0.14822 0.37938 0.0
C488 C 0.15602 0.17105 0.38435 0.0
C489 C 0.16948 0.13906 0.36434 0.0
C490 C 0.16664 0.11526 0.35738 0.0
C491 C 0.14619 0.10522 0.34606 0.0
C492 C 0.14355 0.08274 0.33976 0.0
C493 C 0.16134 0.07017 0.34449 0.0
C494 C 0.18183 0.08007 0.35548 0.0
C495 C 0.18454 0.10254 0.36185 0.0
H496 H 0.15927 0.05277 0.33959 0.0
H497 H 0.18491 0.27172 0.39727 0.0
H498 H 0.31424 0.9092 0.73685 0.0
H499 H 0.33841 0.93061 0.76681 0.0
H500 H 0.40093 0.91448 0.73016 0.0
H501 H 0.37676 0.89312 0.69978 0.0
H502 H 0.40182 0.90728 0.77738 0.0
H503 H 0.389 0.9668 0.72962 0.0
H504 H 0.36685 0.98986 0.70577 0.0
H505 H 0.32601 1.0041 0.76827 0.0
H506 H 0.34766 0.98086 0.79246 0.0
H507 H 0.46049 0.96958 0.8727 0.0
H508 H 0.44985 0.96016 0.83117 0.0
H509 H 0.37776 0.96698 0.84874 0.0
H510 H 0.38844 0.97745 0.88996 0.0
H511 H 0.39045 0.98301 0.80498 0.0
H512 H 0.39818 0.91619 0.84909 0.0
H513 H 0.42088 0.89354 0.87295 0.0
H514 H 0.47258 0.8941 0.81609 0.0
H515 H 0.45025 0.91692 0.79197 0.0
C516 C 0.33314 0.91054 0.73486 0.0
C517 C 0.34358 0.89949 0.71592 0.0
C518 C 0.34694 0.9228 0.75199 0.0
C519 C 0.37147 0.92438 0.7505 0.0
C520 C 0.38202 0.91352 0.73155 0.0
C521 C 0.36819 0.90124 0.71433 0.0
C522 C 0.38573 0.93607 0.76984 0.0
C523 C 0.39982 0.92405 0.78305 0.0
C524 C 0.38302 0.9579 0.77728 0.0
C525 C 0.36991 0.97197 0.76284 0.0
C526 C 0.37518 0.97471 0.73826 0.0
C527 C 0.36273 0.98784 0.72468 0.0
C528 C 0.34502 0.99842 0.73549 0.0
C529 C 0.33974 0.99591 0.75992 0.0
C530 C 0.35213 0.98278 0.77359 0.0
C531 C 0.44247 0.96956 0.8676 0.0
C532 C 0.42523 0.97406 0.88467 0.0
C533 C 0.4364 0.96402 0.8439 0.0
C534 C 0.41297 0.96258 0.83699 0.0
C535 C 0.39595 0.96795 0.85373 0.0
C536 C 0.40201 0.97365 0.87735 0.0
C537 C 0.40561 0.95386 0.81296 0.0
C538 C 0.39289 0.96646 0.79888 0.0
C539 C 0.40964 0.93261 0.80465 0.0
C540 C 0.42268 0.91839 0.81885 0.0
C541 C 0.41442 0.91151 0.84172 0.0
C542 C 0.42722 0.89866 0.85528 0.0
C543 C 0.44819 0.89243 0.84606 0.0
C544 C 0.45635 0.89896 0.82321 0.0
C545 C 0.44362 0.91182 0.80958 0.0
H546 H 0.45809 0.88251 0.8566 0.0
H547 H 0.3354 1.00858 0.72494 0.0
H548 H 0.57954 0.3725 0.73856 0.0
H549 H 0.56438 0.38995 0.70446 0.0
H550 H 0.6323 0.42744 0.69208 0.0
H551 H 0.64773 0.40983 0.72579 0.0
H552 H 0.60235 0.45408 0.68533 0.0
H553 H 0.60749 0.38163 0.65426 0.0
H554 H 0.60088 0.34092 0.65226 0.0
H555 H 0.52651 0.34176 0.65039 0.0
H556 H 0.53268 0.3825 0.65262 0.0
H557 H 0.55363 0.45267 0.55225 0.0
H558 H 0.5697 0.43398 0.58519 0.0
H559 H 0.54485 0.48035 0.63593 0.0
H560 H 0.5293 0.49927 0.6031 0.0
H561 H 0.55533 0.41147 0.62209 0.0
H562 H 0.57651 0.48724 0.68662 0.0
H563 H 0.5884 0.52749 0.68462 0.0
H564 H 0.6184 0.51931 0.61424 0.0
H565 H 0.60696 0.47901 0.61594 0.0
C566 C 0.59155 0.3842 0.72855 0.0
C567 C 0.61518 0.3894 0.73566 0.0
C568 C 0.58269 0.39435 0.70876 0.0
C569 C 0.59698 0.41021 0.69497 0.0
C570 C 0.6205 0.41551 0.70207 0.0
C571 C 0.6294 0.40532 0.72177 0.0
C572 C 0.58754 0.42142 0.67358 0.0
C573 C 0.59195 0.44461 0.67168 0.0
C574 C 0.57435 0.40957 0.65489 0.0
C575 C 0.57053 0.3851 0.65389 0.0
C576 C 0.58971 0.37313 0.65365 0.0
C577 C 0.58605 0.35005 0.65242 0.0
C578 C 0.56329 0.33876 0.65128 0.0
C579 C 0.54414 0.35053 0.65132 0.0
C580 C 0.5477 0.37361 0.65255 0.0
C581 C 0.55164 0.45903 0.57039 0.0
C582 C 0.54015 0.47784 0.57458 0.0
C583 C 0.56085 0.44816 0.58946 0.0
C584 C 0.55912 0.45564 0.61361 0.0
C585 C 0.54725 0.4742 0.61778 0.0
C586 C 0.53811 0.48508 0.59875 0.0
C587 C 0.56956 0.44419 0.63423 0.0
C588 C 0.56547 0.42096 0.63591 0.0
C589 C 0.58352 0.45596 0.65243 0.0
C590 C 0.59064 0.48014 0.65133 0.0
C591 C 0.58571 0.49404 0.67076 0.0
C592 C 0.59236 0.51686 0.66967 0.0
C593 C 0.60407 0.52596 0.64929 0.0
C594 C 0.60924 0.51225 0.62998 0.0
C595 C 0.60266 0.48942 0.63099 0.0
H596 H 0.60919 0.54363 0.64847 0.0
H597 H 0.56049 0.3209 0.65031 0.0
H598 H 0.9194 0.6569 0.22076 0.0
H599 H 0.93641 0.63812 0.18674 0.0
H600 H 0.90269 0.57541 0.21182 0.0
H601 H 0.88665 0.59389 0.24649 0.0
H602 H 0.94376 0.56955 0.19656 0.0
H603 H 0.88339 0.60425 0.16157 0.0
H604 H 0.86206 0.63503 0.15176 0.0
H605 H 0.9236 0.66755 0.11597 0.0
H606 H 0.94539 0.63708 0.12585 0.0
H607 H 0.95343 0.50465 0.08982 0.0
H608 H 0.93832 0.52603 0.12301 0.0
H609 H 0.98166 0.58473 0.09896 0.0
H610 H 0.99704 0.56323 0.06564 0.0
H611 H 0.93741 0.59376 0.11318 0.0
H612 H 0.99713 0.55796 0.14725 0.0
H613 H 0.0177 0.52651 0.15643 0.0
H614 H 0.95624 0.49544 0.19356 0.0
H615 H 0.93519 0.52658 0.18431 0.0
C616 C 0.91572 0.63908 0.21932 0.0
C617 C 0.90132 0.62716 0.23674 0.0
C618 C 0.92529 0.62829 0.19946 0.0
C619 C 0.92068 0.60515 0.19607 0.0
C620 C 0.9066 0.59321 0.2136 0.0
C621 C 0.89712 0.60396 0.23348 0.0
C622 C 0.9306 0.59333 0.17463 0.0
C623 C 0.94201 0.57479 0.17836 0.0
C624 C 0.92912 0.60015 0.1506 0.0
C625 C 0.91609 0.6185 0.14468 0.0
C626 C 0.89242 0.61805 0.15178 0.0
C627 C 0.88025 0.63543 0.14617 0.0
C628 C 0.89149 0.65327 0.13331 0.0
C629 C 0.91493 0.65374 0.12597 0.0
C630 C 0.9272 0.63642 0.13155 0.0
C631 C 0.95974 0.52214 0.09146 0.0
C632 C 0.97656 0.53211 0.07492 0.0
C633 C 0.95111 0.5344 0.11063 0.0
C634 C 0.95892 0.55711 0.11395 0.0
C635 C 0.97526 0.56729 0.09704 0.0
C636 C 0.98409 0.55494 0.07791 0.0
C637 C 0.95025 0.56995 0.13521 0.0
C638 C 0.93914 0.58863 0.13142 0.0
C639 C 0.95188 0.56321 0.15919 0.0
C640 C 0.96452 0.54451 0.1649 0.0
C641 C 0.98794 0.54434 0.15722 0.0
C642 C 0.9997 0.52659 0.16246 0.0
C643 C 0.98826 0.50896 0.17551 0.0
C644 C 0.96507 0.50909 0.18342 0.0
C645 C 0.95322 0.5268 0.1782 0.0
H646 H 0.99739 0.49523 0.17955 0.0
H647 H 0.88203 0.6667 0.12898 0.0
H648 H 0.35483 0.17644 0.12817 0.0
H649 H 0.3757 0.14783 0.10949 0.0
H650 H 0.43488 0.16856 0.15457 0.0
H651 H 0.41403 0.19717 0.17343 0.0
H652 H 0.44655 0.15985 0.10474 0.0
H653 H 0.40065 0.12604 0.17081 0.0
H654 H 0.36426 0.11599 0.19454 0.0
H655 H 0.33238 0.0802 0.13374 0.0
H656 H 0.3685 0.09033 0.10952 0.0
H657 H 0.50593 0.06745 0.08459 0.0
H658 H 0.48604 0.09556 0.10525 0.0
H659 H 0.42165 0.06988 0.07025 0.0
H660 H 0.44122 0.04146 0.04985 0.0
H661 H 0.41292 0.08147 0.1155 0.0
H662 H 0.45699 0.11453 0.04902 0.0
H663 H 0.49228 0.12457 0.02362 0.0
H664 H 0.52605 0.16223 0.08224 0.0
H665 H 0.49115 0.152 0.10819 0.0
C666 C 0.37242 0.1751 0.13384 0.0
C667 C 0.38282 0.18897 0.15226 0.0
C668 C 0.38424 0.1587 0.12327 0.0
C669 C 0.40673 0.15602 0.13081 0.0
C670 C 0.41752 0.17037 0.14856 0.0
C671 C 0.40557 0.1866 0.15937 0.0
C672 C 0.41858 0.13769 0.12078 0.0
C673 C 0.43943 0.1427 0.10734 0.0
C674 C 0.40886 0.11538 0.1237 0.0
C675 C 0.3872 0.10913 0.13829 0.0
C676 C 0.38582 0.11619 0.16244 0.0
C677 C 0.36525 0.11045 0.17599 0.0
C678 C 0.346 0.09751 0.16564 0.0
C679 C 0.3473 0.09024 0.14173 0.0
C680 C 0.36782 0.09596 0.12808 0.0
C681 C 0.48746 0.06757 0.08149 0.0
C682 C 0.47525 0.05228 0.06536 0.0
C683 C 0.47614 0.08374 0.09324 0.0
C684 C 0.45248 0.0851 0.08891 0.0
C685 C 0.43995 0.06921 0.07377 0.0
C686 C 0.45121 0.05296 0.0621 0.0
C687 C 0.44101 0.10356 0.09942 0.0
C688 C 0.42016 0.0986 0.11293 0.0
C689 C 0.45058 0.12593 0.09626 0.0
C690 C 0.47153 0.1323 0.08064 0.0
C691 C 0.47201 0.12481 0.05656 0.0
C692 C 0.49193 0.13055 0.04205 0.0
C693 C 0.5114 0.14401 0.05131 0.0
C694 C 0.51097 0.15178 0.0751 0.0
C695 C 0.49112 0.14601 0.08973 0.0
H696 H 0.5268 0.14844 0.04004 0.0
H697 H 0.33009 0.09308 0.17616 0.0
H698 H 0.19421 0.88261 0.54947 0.0
H699 H 0.16886 0.90745 0.53357 0.0
H700 H 0.12923 0.90522 0.60031 0.0
H701 H 0.15426 0.88002 0.6162 0.0
H702 H 0.1013 0.90541 0.56015 0.0
H703 H 0.17218 0.94566 0.59274 0.0
H704 H 0.21502 0.95472 0.59646 0.0
H705 H 0.22147 0.97139 0.52212 0.0
H706 H 0.17866 0.96208 0.51787 0.0
H707 H 0.04889 1.00098 0.55697 0.0
H708 H 0.07534 0.97595 0.57038 0.0
H709 H 0.11423 0.98363 0.5033 0.0
H710 H 0.08776 1.00886 0.48998 0.0
H711 H 0.14261 0.97984 0.5412 0.0
H712 H 0.07101 0.94229 0.50933 0.0
H713 H 0.02801 0.93438 0.50623 0.0
H714 H 0.02256 0.91232 0.57878 0.0
H715 H 0.06546 0.92075 0.58258 0.0
C716 C 0.17969 0.88692 0.56051 0.0
C717 C 0.17627 0.87957 0.58413 0.0
C718 C 0.16537 0.90122 0.55147 0.0
C719 C 0.14748 0.90838 0.56594 0.0
C720 C 0.14304 0.89992 0.58894 0.0
C721 C 0.1574 0.88567 0.59802 0.0
C722 C 0.13468 0.92605 0.55794 0.0
C723 C 0.11025 0.92173 0.55616 0.0
C724 C 0.14655 0.94718 0.55234 0.0
C725 C 0.17226 0.95294 0.55492 0.0
C726 C 0.18275 0.95108 0.57714 0.0
C727 C 0.20703 0.95629 0.57935 0.0
C728 C 0.22097 0.96356 0.55952 0.0
C729 C 0.21065 0.96571 0.53745 0.0
C730 C 0.18639 0.96048 0.53513 0.0
C731 C 0.06327 0.99747 0.5453 0.0
C732 C 0.06612 1.00623 0.52235 0.0
C733 C 0.07837 0.9833 0.55294 0.0
C734 C 0.09624 0.97749 0.5375 0.0
C735 C 0.10036 0.98779 0.51534 0.0
C736 C 0.08535 1.0022 0.5078 0.0
C737 C 0.10918 0.95929 0.54363 0.0
C738 C 0.13364 0.96349 0.54501 0.0
C739 C 0.0973 0.93803 0.54879 0.0
C740 C 0.07149 0.93237 0.54632 0.0
C741 C 0.06064 0.93591 0.5247 0.0
C742 C 0.03627 0.93137 0.52282 0.0
C743 C 0.02256 0.92294 0.54233 0.0
C744 C 0.0332 0.91894 0.56371 0.0
C745 C 0.05755 0.92363 0.56575 0.0
H746 H 1.00369 0.91946 0.54086 0.0
H747 H 0.23975 0.96759 0.56127 0.0
H748 H 0.77893 0.42125 0.86795 0.0
H749 H 0.81383 0.43991 0.88725 0.0
H750 H 0.8074 0.39008 0.94092 0.0
H751 H 0.7713 0.37237 0.92303 0.0
H752 H 0.82235 0.42454 0.96311 0.0
H753 H 0.85089 0.39618 0.88914 0.0
H754 H 0.85381 0.3899 0.84537 0.0
H755 H 0.87179 0.4596 0.83558 0.0
H756 H 0.8687 0.46632 0.8793 0.0
H757 H 0.94228 0.45016 1.00217 0.0
H758 H 0.90615 0.43242 0.98332 0.0
H759 H 0.90188 0.49156 0.9446 0.0
H760 H 0.93771 0.50958 0.9638 0.0
H761 H 0.89309 0.4527 0.91497 0.0
H762 H 0.8655 0.47934 0.99101 0.0
H763 H 0.86438 0.48334 0.03512 0.0
H764 H 0.84675 0.41314 0.04097 0.0
H765 H 0.84811 0.40869 0.99688 0.0
C766 C 0.78448 0.41421 0.88405 0.0
C767 C 0.77157 0.39482 0.89345 0.0
C768 C 0.80509 0.42487 0.89499 0.0
C769 C 0.81424 0.41641 0.91553 0.0
C770 C 0.80131 0.39723 0.92511 0.0
C771 C 0.78048 0.38676 0.91443 0.0
C772 C 0.83686 0.42755 0.92717 0.0
C773 C 0.83781 0.43032 0.95238 0.0
C774 C 0.85748 0.43572 0.91375 0.0
C775 C 0.85931 0.43176 0.88747 0.0
C776 C 0.8553 0.41018 0.87764 0.0
C777 C 0.85701 0.40654 0.85284 0.0
C778 C 0.86291 0.42435 0.8377 0.0
C779 C 0.86718 0.44583 0.84733 0.0
C780 C 0.86547 0.44956 0.87212 0.0
C781 C 0.9337 0.45951 0.9897 0.0
C782 C 0.94321 0.4815 0.98475 0.0
C783 C 0.91284 0.44927 0.97888 0.0
C784 C 0.90086 0.46048 0.96237 0.0
C785 C 0.9105 0.48233 0.95715 0.0
C786 C 0.9311 0.49273 0.96832 0.0
C787 C 0.8784 0.44951 0.95068 0.0
C788 C 0.87754 0.44682 0.92553 0.0
C789 C 0.85805 0.44102 0.96416 0.0
C790 C 0.85714 0.44367 0.99065 0.0
C791 C 0.86158 0.46474 1.0017 0.0
C792 C 0.86086 0.46709 0.0267 0.0
C793 C 0.85556 0.4485 0.04084 0.0
C794 C 0.8509 0.42753 0.03 0.0
C795 C 0.85162 0.42508 1.005 0.0
H796 H 0.85501 0.45036 0.06019 0.0
H797 H 0.86423 0.42149 0.8185 0.0
H798 H 0.75414 0.63038 0.43192 0.0
H799 H 0.71821 0.61194 0.45072 0.0
H800 H 0.68898 0.5959 0.38101 0.0
H801 H 0.72472 0.61484 0.36203 0.0
H802 H 0.65593 0.60898 0.41079 0.0
H803 H 0.71001 0.55659 0.41502 0.0
H804 H 0.7471 0.54324 0.42462 0.0
H805 H 0.73574 0.55798 0.49937 0.0
H806 H 0.69871 0.57171 0.49017 0.0
H807 H 0.55898 0.53372 0.45623 0.0
H808 H 0.59448 0.54972 0.43416 0.0
H809 H 0.62959 0.56559 0.50109 0.0
H810 H 0.59447 0.54928 0.52302 0.0
H811 H 0.6594 0.55128 0.47074 0.0
H812 H 0.60615 0.60504 0.46636 0.0
H813 H 0.56889 0.61816 0.45688 0.0
H814 H 0.57859 0.60073 0.38255 0.0
H815 H 0.61578 0.58724 0.39165 0.0
C816 C 0.74007 0.62312 0.42048 0.0
C817 C 0.74265 0.62421 0.3953 0.0
C818 C 0.71947 0.61231 0.43133 0.0
C819 C 0.7007 0.60214 0.41742 0.0
C820 C 0.70307 0.60345 0.3923 0.0
C821 C 0.72373 0.61418 0.38141 0.0
C822 C 0.67875 0.59023 0.42909 0.0
C823 C 0.65673 0.59614 0.42363 0.0
C824 C 0.67947 0.57365 0.44626 0.0
C825 C 0.7017 0.56538 0.45187 0.0
C826 C 0.71551 0.55715 0.43348 0.0
C827 C 0.73651 0.54948 0.43885 0.0
C828 C 0.7438 0.54981 0.46258 0.0
C829 C 0.73008 0.55776 0.48099 0.0
C830 C 0.70908 0.56547 0.47571 0.0
C831 C 0.57433 0.54049 0.46622 0.0
C832 C 0.57374 0.54023 0.49147 0.0
C833 C 0.59465 0.54983 0.45356 0.0
C834 C 0.61491 0.55932 0.46581 0.0
C835 C 0.61441 0.55853 0.49101 0.0
C836 C 0.59418 0.54919 0.50361 0.0
C837 C 0.63657 0.57019 0.45267 0.0
C838 C 0.65856 0.56407 0.45785 0.0
C839 C 0.63581 0.58659 0.43528 0.0
C840 C 0.61361 0.59492 0.42973 0.0
C841 C 0.60026 0.60388 0.44802 0.0
C842 C 0.57916 0.6114 0.44271 0.0
C843 C 0.57134 0.61022 0.41914 0.0
C844 C 0.58465 0.6016 0.4008 0.0
C845 C 0.60575 0.59403 0.40602 0.0
H846 H 0.55499 0.61603 0.41507 0.0
H847 H 0.76006 0.54387 0.46671 0.0
H848 H 0.27404 0.34747 0.12864 0.0
H849 H 0.24673 0.36819 0.10879 0.0
H850 H 0.19339 0.34737 0.16216 0.0
H851 H 0.22015 0.32623 0.18154 0.0
H852 H 0.1762 0.34205 0.11814 0.0
H853 H 0.22328 0.39959 0.16314 0.0
H854 H 0.26 0.42217 0.17564 0.0
H855 H 0.27388 0.44307 0.10324 0.0
H856 H 0.23736 0.42035 0.09025 0.0
H857 H 0.09261 0.4141 0.10796 0.0
H858 H 0.12472 0.39635 0.12281 0.0
H859 H 0.16712 0.4174 0.0607 0.0
H860 H 0.135 0.43549 0.04577 0.0
H861 H 0.19183 0.42261 0.10453 0.0
H862 H 0.14277 0.36674 0.06045 0.0
H863 H 0.10543 0.34471 0.04885 0.0
H864 H 0.09497 0.32089 0.12051 0.0
H865 H 0.13209 0.34306 0.13264 0.0
C866 C 0.25647 0.3473 0.13608 0.0
C867 C 0.24933 0.33532 0.15677 0.0
C868 C 0.24096 0.35927 0.12484 0.0
C869 C 0.21807 0.35944 0.13411 0.0
C870 C 0.21097 0.34751 0.15472 0.0
C871 C 0.2264 0.3356 0.16593 0.0
C872 C 0.20112 0.37153 0.12219 0.0
C873 C 0.17957 0.3597 0.11535 0.0
C874 C 0.20577 0.39444 0.11791 0.0
C875 C 0.22775 0.40805 0.12567 0.0
C876 C 0.23427 0.40883 0.14985 0.0
C877 C 0.25502 0.42169 0.15703 0.0
C878 C 0.26931 0.43399 0.14023 0.0
C879 C 0.26283 0.4335 0.11623 0.0
C880 C 0.2421 0.42064 0.10894 0.0
C881 C 0.10888 0.41525 0.09762 0.0
C882 C 0.11128 0.42616 0.07568 0.0
C883 C 0.12714 0.40497 0.10604 0.0
C884 C 0.14817 0.4054 0.09272 0.0
C885 C 0.15097 0.41685 0.07118 0.0
C886 C 0.1326 0.42703 0.06263 0.0
C887 C 0.1668 0.39317 0.10107 0.0
C888 C 0.18862 0.40493 0.10713 0.0
C889 C 0.16241 0.37018 0.10475 0.0
C890 C 0.14013 0.35671 0.09749 0.0
C891 C 0.13242 0.35694 0.07378 0.0
C892 C 0.11131 0.3444 0.06711 0.0
C893 C 0.09781 0.33144 0.08395 0.0
C894 C 0.10543 0.33095 0.10749 0.0
C895 C 0.12652 0.34348 0.11427 0.0
H896 H 0.08147 0.32175 0.07874 0.0
H897 H 0.28536 0.44395 0.14583 0.0
H898 H 0.63103 0.23932 0.92437 0.0
H899 H 0.61501 0.20461 0.94271 0.0
H900 H 0.5736 0.18617 0.88031 0.0
H901 H 0.58999 0.22069 0.86145 0.0
H902 H 0.54729 0.17511 0.91926 0.0
H903 H 0.62495 0.16243 0.89429 0.0
H904 H 0.66811 0.17031 0.89214 0.0
H905 H 0.671 0.16603 0.96868 0.0
H906 H 0.62782 0.1584 0.97132 0.0
H907 H 0.5108 0.06263 0.94222 0.0
H908 H 0.52939 0.09749 0.92629 0.0
H909 H 0.57199 0.10889 0.98901 0.0
H910 H 0.55359 0.07311 1.00484 0.0
H911 H 0.59805 0.12453 0.95223 0.0
H912 H 0.52145 0.1369 0.97815 0.0
H913 H 0.47829 0.12994 0.98163 0.0
H914 H 0.47322 0.13622 0.90555 0.0
H915 H 0.51635 0.14296 0.90155 0.0
C916 C 0.61884 0.22791 0.91411 0.0
C917 C 0.6123 0.23343 0.89093 0.0
C918 C 0.6095 0.20778 0.92487 0.0
C919 C 0.59309 0.19208 0.91306 0.0
C920 C 0.58615 0.19764 0.89015 0.0
C921 C 0.5956 0.21773 0.87929 0.0
C922 C 0.58302 0.17019 0.92457 0.0
C923 C 0.55853 0.164 0.92612 0.0
C924 C 0.59722 0.15556 0.93457 0.0
C925 C 0.62315 0.16007 0.93302 0.0
C926 C 0.63479 0.16333 0.91068 0.0
C927 C 0.65925 0.16773 0.90937 0.0
C928 C 0.67228 0.16873 0.93027 0.0
C929 C 0.66088 0.16528 0.95251 0.0
C930 C 0.63641 0.1609 0.95392 0.0
C931 C 0.52421 0.07239 0.95275 0.0
C932 C 0.53045 0.0647 0.97502 0.0
C933 C 0.5348 0.0927 0.9436 0.0
C934 C 0.55193 0.10673 0.95644 0.0
C935 C 0.55879 0.09883 0.9785 0.0
C936 C 0.54822 0.07819 0.98765 0.0
C937 C 0.56227 0.12931 0.94665 0.0
C938 C 0.58678 0.13565 0.94543 0.0
C939 C 0.54809 0.14425 0.93719 0.0
C940 C 0.52215 0.14025 0.93952 0.0
C941 C 0.51114 0.13665 0.96214 0.0
C942 C 0.48668 0.13277 0.96421 0.0
C943 C 0.47304 0.13258 0.94382 0.0
C944 C 0.48381 0.13634 0.92132 0.0
C945 C 0.50826 0.14023 0.91914 0.0
H946 H 0.45411 0.12957 0.94547 0.0
H947 H 0.69122 0.17213 0.92922 0.0
H948 H 0.90452 0.8033 0.35936 0.0
H949 H 0.91978 0.8391 0.37756 0.0
H950 H 0.91482 0.81019 0.44738 0.0
H951 H 0.89914 0.77447 0.4293 0.0
H952 H 0.90149 0.84822 0.45279 0.0
H953 H 0.96925 0.82521 0.41373 0.0
H954 H 0.99291 0.81217 0.38018 0.0
H955 H 0.98565 0.87021 0.34107 0.0
H956 H 0.96168 0.88347 0.37427 0.0
H957 H 0.96945 0.93905 0.51295 0.0
H958 H 0.95453 0.90317 0.49496 0.0
H959 H 0.95862 0.93188 0.42503 0.0
H960 H 0.97448 0.96775 0.44293 0.0
H961 H 0.97243 0.8938 0.42011 0.0
H962 H 0.90352 0.91601 0.45982 0.0
H963 H 0.88101 0.92889 0.49439 0.0
H964 H 0.89233 0.87212 0.53369 0.0
H965 H 0.91481 0.8588 0.49929 0.0
C966 C 0.90687 0.80443 0.37857 0.0
C967 C 0.90052 0.78567 0.39268 0.0
C968 C 0.91571 0.82507 0.38907 0.0
C969 C 0.91897 0.82769 0.41404 0.0
C970 C 0.91257 0.80898 0.42815 0.0
C971 C 0.90351 0.78839 0.4177 0.0
C972 C 0.92873 0.84981 0.42546 0.0
C973 C 0.91719 0.85797 0.44571 0.0
C974 C 0.94905 0.86313 0.41636 0.0
C975 C 0.96347 0.85522 0.39639 0.0
C976 C 0.97256 0.83512 0.3979 0.0
C977 C 0.98604 0.8277 0.37896 0.0
C978 C 0.99072 0.84032 0.35848 0.0
C979 C 0.98198 0.86043 0.35693 0.0
C980 C 0.96846 0.86791 0.37581 0.0
C981 C 0.96704 0.93787 0.49374 0.0
C982 C 0.97305 0.95662 0.47953 0.0
C983 C 0.9583 0.91717 0.48339 0.0
C984 C 0.95476 0.91449 0.45848 0.0
C985 C 0.96096 0.93319 0.44425 0.0
C986 C 0.97 0.95387 0.45457 0.0
C987 C 0.94508 0.89228 0.44726 0.0
C988 C 0.95668 0.88407 0.4271 0.0
C989 C 0.92492 0.87885 0.45655 0.0
C990 C 0.91095 0.8865 0.47704 0.0
C991 C 0.9012 0.90628 0.47584 0.0
C992 C 0.88842 0.91362 0.49538 0.0
C993 C 0.8852 0.90128 0.51619 0.0
C994 C 0.89472 0.88155 0.51749 0.0
C995 C 0.90742 0.87407 0.49796 0.0
H996 H 0.87531 0.90701 0.5313 0.0
H997 H 1.00117 0.83455 0.34384 0.0
H998 H 0.31853 0.72284 0.59667 0.0
H999 H 0.34909 0.70204 0.58076 0.0
H1000 H 0.36816 0.75128 0.52729 0.0
H1001 H 0.3376 0.77223 0.54326 0.0
H1002 H 0.36224 0.68404 0.53702 0.0
H1003 H 0.42917 0.76195 0.52899 0.0
H1004 H 0.43489 0.80079 0.54354 0.0
H1005 H 0.39496 0.78247 0.60764 0.0
H1006 H 0.38935 0.74352 0.59363 0.0
H1007 H 0.47122 0.64929 0.50357 0.0
H1008 H 0.44416 0.67686 0.50272 0.0
H1009 H 0.44514 0.6826 0.57987 0.0
H1010 H 0.47047 0.65391 0.581 0.0
H1011 H 0.44187 0.7241 0.55174 0.0
H1012 H 0.40964 0.6474 0.56369 0.0
H1013 H 0.40314 0.60774 0.55298 0.0
H1014 H 0.37036 0.62166 0.48793 0.0
H1015 H 0.37821 0.66162 0.49743 0.0
C1016 C 0.32886 0.72889 0.58114 0.0
C1017 C 0.32594 0.74916 0.57128 0.0
C1018 C 0.3462 0.71699 0.57201 0.0
C1019 C 0.36099 0.72533 0.55309 0.0
C1020 C 0.35694 0.74471 0.54201 0.0
C1021 C 0.33945 0.75656 0.55104 0.0
C1022 C 0.38225 0.71512 0.54722 0.0
C1023 C 0.37968 0.69288 0.53976 0.0
C1024 C 0.40493 0.72665 0.55124 0.0
C1025 C 0.4086 0.74992 0.5601 0.0
C1026 C 0.42169 0.76623 0.54622 0.0
C1027 C 0.42491 0.78825 0.55437 0.0
C1028 C 0.41522 0.79411 0.57646 0.0
C1029 C 0.40239 0.77793 0.5905 0.0
C1030 C 0.39917 0.75589 0.58245 0.0
C1031 C 0.46576 0.65654 0.5203 0.0
C1032 C 0.47218 0.64876 0.54231 0.0
C1033 C 0.45063 0.67247 0.51976 0.0
C1034 C 0.44244 0.68131 0.54126 0.0
C1035 C 0.45133 0.67583 0.56311 0.0
C1036 C 0.46589 0.65943 0.56369 0.0
C1037 C 0.42181 0.69307 0.54147 0.0
C1038 C 0.4245 0.71551 0.54808 0.0
C1039 C 0.39918 0.68159 0.53707 0.0
C1040 C 0.39516 0.6576 0.53095 0.0
C1041 C 0.40175 0.64211 0.54673 0.0
C1042 C 0.3978 0.61955 0.54087 0.0
C1043 C 0.38666 0.61221 0.51959 0.0
C1044 C 0.3794 0.62741 0.50417 0.0
C1045 C 0.38375 0.65003 0.5097 0.0
H1046 H 0.38343 0.59472 0.51517 0.0
H1047 H 0.41769 0.81116 0.58272 0.0
H1048 H 0.80505 0.79226 0.7151 0.0
H1049 H 0.83487 0.81054 0.68791 0.0
H1050 H 0.78176 0.83858 0.65067 0.0
H1051 H 0.7515 0.82015 0.67794 0.0
H1052 H 0.82208 0.82202 0.62069 0.0
H1053 H 0.80482 0.87048 0.68724 0.0
H1054 H 0.79832 0.87919 0.73011 0.0
H1055 H 0.86756 0.86565 0.74548 0.0
H1056 H 0.87431 0.85648 0.70272 0.0
H1057 H 0.89828 0.91223 0.57039 0.0
H1058 H 0.86682 0.88622 0.58748 0.0
H1059 H 0.91216 0.87341 0.6444 0.0
H1060 H 0.94298 0.90071 0.6286 0.0
H1061 H 0.8737 0.88181 0.66296 0.0
H1062 H 0.89253 0.8343 0.59745 0.0
H1063 H 0.89988 0.82406 0.55514 0.0
H1064 H 0.82997 0.83413 0.53782 0.0
H1065 H 0.82227 0.84466 0.58 0.0
C1066 C 0.79954 0.80177 0.70071 0.0
C1067 C 0.77591 0.80478 0.69866 0.0
C1068 C 0.81664 0.81225 0.68525 0.0
C1069 C 0.81045 0.82588 0.66739 0.0
C1070 C 0.78677 0.828 0.66432 0.0
C1071 C 0.76959 0.81764 0.67999 0.0
C1072 C 0.82911 0.83988 0.6541 0.0
C1073 C 0.83326 0.8353 0.62972 0.0
C1074 C 0.84389 0.85679 0.66617 0.0
C1075 C 0.83997 0.86258 0.69183 0.0
C1076 C 0.81858 0.86917 0.69979 0.0
C1077 C 0.81486 0.87422 0.72407 0.0
C1078 C 0.83249 0.87292 0.74052 0.0
C1079 C 0.8539 0.86662 0.73272 0.0
C1080 C 0.85769 0.86151 0.70847 0.0
C1081 C 0.90159 0.9039 0.58656 0.0
C1082 C 0.92313 0.90891 0.59827 0.0
C1083 C 0.88365 0.88872 0.59612 0.0
C1084 C 0.88707 0.87776 0.61724 0.0
C1085 C 0.90903 0.88173 0.62814 0.0
C1086 C 0.9268 0.8972 0.61887 0.0
C1087 C 0.86727 0.86386 0.62936 0.0
C1088 C 0.86273 0.86854 0.65369 0.0
C1089 C 0.85237 0.84694 0.6172 0.0
C1090 C 0.85689 0.84043 0.59186 0.0
C1091 C 0.87876 0.83444 0.5846 0.0
C1092 C 0.88297 0.82854 0.56065 0.0
C1093 C 0.8654 0.82843 0.5438 0.0
C1094 C 0.84356 0.83419 0.55089 0.0
C1095 C 0.83924 0.84009 0.57483 0.0
H1096 H 0.86872 0.82393 0.52525 0.0
H1097 H 0.82958 0.87684 0.75931 0.0
H1098 H 0.70537 0.14954 0.30277 0.0
H1099 H 0.68888 0.1336 0.26534 0.0
H1100 H 0.62195 0.11582 0.30114 0.0
H1101 H 0.63866 0.13091 0.33905 0.0
H1102 H 0.63248 0.08267 0.27288 0.0
H1103 H 0.63095 0.15964 0.26366 0.0
H1104 H 0.64648 0.19927 0.26372 0.0
H1105 H 0.69686 0.18714 0.20862 0.0
H1106 H 0.68185 0.14737 0.20847 0.0
H1107 H 0.57241 0.06068 0.16148 0.0
H1108 H 0.58515 0.0756 0.20087 0.0
H1109 H 0.65617 0.08978 0.17357 0.0
H1110 H 0.64378 0.07437 0.13431 0.0
H1111 H 0.64053 0.12538 0.19814 0.0
H1112 H 0.64226 0.04766 0.20924 0.0
H1113 H 0.62555 1.00831 0.20923 0.0
H1114 H 0.57286 0.02261 0.26092 0.0
H1115 H 0.58907 0.06212 0.26098 0.0
C1116 C 0.68719 0.14207 0.30278 0.0
C1117 C 0.67335 0.14145 0.32394 0.0
C1118 C 0.67771 0.13319 0.28128 0.0
C1119 C 0.65409 0.12379 0.28037 0.0
C1120 C 0.64019 0.12309 0.30143 0.0
C1121 C 0.64971 0.13189 0.32302 0.0
C1122 C 0.64419 0.1143 0.25746 0.0
C1123 C 0.63388 0.09212 0.25662 0.0
C1124 C 0.6463 0.12655 0.23618 0.0
C1125 C 0.6554 0.15048 0.2362 0.0
C1126 C 0.64547 0.16539 0.25169 0.0
C1127 C 0.65415 0.18788 0.25172 0.0
C1128 C 0.67268 0.19571 0.23622 0.0
C1129 C 0.68253 0.18105 0.22063 0.0
C1130 C 0.67392 0.15853 0.22055 0.0
C1131 C 0.59082 0.06659 0.16394 0.0
C1132 C 0.60707 0.06636 0.1447 0.0
C1133 C 0.59803 0.07521 0.18644 0.0
C1134 C 0.62159 0.08376 0.19008 0.0
C1135 C 0.63788 0.08336 0.17104 0.0
C1136 C 0.63074 0.07463 0.1486 0.0
C1137 C 0.62922 0.09372 0.21355 0.0
C1138 C 0.63903 0.11601 0.21446 0.0
C1139 C 0.62644 0.08163 0.2349 0.0
C1140 C 0.61672 0.05788 0.23491 0.0
C1141 C 0.62698 0.04245 0.22044 0.0
C1142 C 0.61763 0.02011 0.22046 0.0
C1143 C 0.59811 1.01298 0.23501 0.0
C1144 C 0.58795 0.02817 0.24963 0.0
C1145 C 0.59723 0.05053 0.24966 0.0
H1146 H 0.5909 0.99567 0.23501 0.0
H1147 H 0.67938 0.21313 0.23627 0.0
H1148 H 0.44228 0.63188 0.27641 0.0
H1149 H 0.45787 0.61352 0.30986 0.0
H1150 H 0.39075 0.60917 0.34639 0.0
H1151 H 0.37508 0.62748 0.31305 0.0
H1152 H 0.42513 0.62137 0.37827 0.0
H1153 H 0.41139 0.56329 0.31848 0.0
H1154 H 0.4154 0.54563 0.27857 0.0
H1155 H 0.48998 0.55136 0.28653 0.0
H1156 H 0.48644 0.56932 0.32638 0.0
H1157 H 0.45104 0.55219 0.47344 0.0
H1158 H 0.43451 0.56935 0.43985 0.0
H1159 H 0.49386 0.55729 0.39516 0.0
H1160 H 0.50902 0.53821 0.42815 0.0
H1161 H 0.46323 0.55395 0.36653 0.0
H1162 H 0.47766 0.61212 0.42653 0.0
H1163 H 0.47395 0.63081 0.46583 0.0
H1164 H 0.3998 0.62813 0.45646 0.0
H1165 H 0.4029 0.60848 0.4177 0.0
C1166 C 0.43073 0.62714 0.29154 0.0
C1167 C 0.40717 0.63136 0.2915 0.0
C1168 C 0.43972 0.61635 0.3108 0.0
C1169 C 0.42566 0.60948 0.33108 0.0
C1170 C 0.40226 0.61401 0.33125 0.0
C1171 C 0.39317 0.62449 0.31186 0.0
C1172 C 0.4352 0.5979 0.35209 0.0
C1173 C 0.43324 0.60647 0.37565 0.0
C1174 C 0.44652 0.57869 0.34921 0.0
C1175 C 0.44867 0.56785 0.3253 0.0
C1176 C 0.42866 0.56094 0.31164 0.0
C1177 C 0.43085 0.55085 0.28904 0.0
C1178 C 0.45294 0.54743 0.27999 0.0
C1179 C 0.47288 0.55405 0.29355 0.0
C1180 C 0.4708 0.56417 0.31615 0.0
C1181 C 0.46062 0.55319 0.45646 0.0
C1182 C 0.48157 0.5437 0.45388 0.0
C1183 C 0.45122 0.56341 0.43701 0.0
C1184 C 0.46294 0.56569 0.41433 0.0
C1185 C 0.48397 0.55615 0.41194 0.0
C1186 C 0.49287 0.5452 0.4311 0.0
C1187 C 0.45342 0.57746 0.39317 0.0
C1188 C 0.45533 0.56892 0.36942 0.0
C1189 C 0.4423 0.59694 0.39587 0.0
C1190 C 0.44048 0.60854 0.41936 0.0
C1191 C 0.46052 0.61526 0.43302 0.0
C1192 C 0.45848 0.62597 0.4553 0.0
C1193 C 0.43656 0.63045 0.46385 0.0
C1194 C 0.41669 0.62434 0.45008 0.0
C1195 C 0.41856 0.61335 0.42799 0.0
H1196 H 0.43488 0.63872 0.48106 0.0
H1197 H 0.45459 0.53961 0.2625 0.0
H1198 H 0.14336 0.3996 0.8181 0.0
H1199 H 0.12595 0.41775 0.85269 0.0
H1200 H 0.06932 0.43113 0.80881 0.0
H1201 H 0.08634 0.41256 0.77434 0.0
H1202 H 0.09112 0.46888 0.83774 0.0
H1203 H 0.05781 0.39249 0.84702 0.0
H1204 H 0.05983 0.35278 0.85123 0.0
H1205 H 0.10015 0.36678 0.91494 0.0
H1206 H 0.09866 0.40663 0.9109 0.0
H1207 H 0.01656 0.51079 0.92364 0.0
H1208 H 0.03324 0.48962 0.89152 0.0
H1209 H 0.071 0.45821 0.9435 0.0
H1210 H 0.05278 0.47854 0.97603 0.0
H1211 H 0.06114 0.42944 0.91105 0.0
H1212 H 0.09651 0.50387 0.90384 0.0
H1213 H 0.09879 0.54424 0.90067 0.0
H1214 H 0.061 0.53555 0.83491 0.0
H1215 H 0.05823 0.4951 0.83785 0.0
C1216 C 0.12718 0.40638 0.81577 0.0
C1217 C 0.11632 0.40449 0.79325 0.0
C1218 C 0.11715 0.41671 0.83567 0.0
C1219 C 0.09618 0.42589 0.8336 0.0
C1220 C 0.08545 0.42424 0.81108 0.0
C1221 C 0.09518 0.41348 0.79133 0.0
C1222 C 0.08562 0.43746 0.85468 0.0
C1223 C 0.08429 0.46018 0.85364 0.0
C1224 C 0.07753 0.4265 0.87602 0.0
C1225 C 0.07834 0.40256 0.8785 0.0
C1226 C 0.06729 0.38712 0.8618 0.0
C1227 C 0.0683 0.36458 0.86418 0.0
C1228 C 0.08017 0.35727 0.8833 0.0
C1229 C 0.09099 0.37248 0.90012 0.0
C1230 C 0.09006 0.39504 0.8978 0.0
C1231 C 0.02829 0.49925 0.92832 0.0
C1232 C 0.03331 0.4965 0.95253 0.0
C1233 C 0.03816 0.48724 0.90977 0.0
C1234 C 0.05431 0.47263 0.91454 0.0
C1235 C 0.05886 0.46938 0.93891 0.0
C1236 C 0.04838 0.48103 0.95765 0.0
C1237 C 0.06626 0.46105 0.89414 0.0
C1238 C 0.06796 0.4383 0.89527 0.0
C1239 C 0.07533 0.47213 0.87306 0.0
C1240 C 0.07698 0.49644 0.87119 0.0
C1241 C 0.08856 0.51056 0.88878 0.0
C1242 C 0.08995 0.53346 0.88702 0.0
C1243 C 0.07999 0.54245 0.86763 0.0
C1244 C 0.06868 0.52856 0.84994 0.0
C1245 C 0.06721 0.50564 0.85163 0.0
H1246 H 0.08109 0.56018 0.8663 0.0
H1247 H 0.08092 0.33981 0.88512 0.0
H1248 H 0.67147 0.87509 0.86032 0.0
H1249 H 0.64991 0.90183 0.88153 0.0
H1250 H 0.59356 0.8499 0.89753 0.0
H1251 H 0.61516 0.82296 0.87634 0.0
H1252 H 0.5791 0.88998 0.87988 0.0
H1253 H 0.62778 0.86607 0.94027 0.0
H1254 H 0.66509 0.85856 0.95685 0.0
H1255 H 0.69367 0.92683 0.95037 0.0
H1256 H 0.65661 0.93468 0.9334 0.0
H1257 H 0.51798 0.94656 0.96787 0.0
H1258 H 0.53824 0.9207 0.94416 0.0
H1259 H 0.60141 0.96778 0.94411 0.0
H1260 H 0.58141 0.99337 0.96902 0.0
H1261 H 0.61245 0.93002 0.95251 0.0
H1262 H 0.56413 0.95496 0.89317 0.0
H1263 H 0.52749 0.96305 0.87556 0.0
H1264 H 0.49893 0.8945 0.87812 0.0
H1265 H 0.53526 0.88603 0.89609 0.0
C1266 C 0.65442 0.86939 0.86825 0.0
C1267 C 0.64496 0.84696 0.86671 0.0
C1268 C 0.64219 0.88465 0.88041 0.0
C1269 C 0.6202 0.8778 0.89111 0.0
C1270 C 0.61051 0.85548 0.88934 0.0
C1271 C 0.62291 0.84012 0.87742 0.0
C1272 C 0.60759 0.89397 0.90454 0.0
C1273 C 0.58617 0.8986 0.89593 0.0
C1274 C 0.61725 0.90559 0.92504 0.0
C1275 C 0.63951 0.90091 0.93533 0.0
C1276 C 0.64209 0.87944 0.94218 0.0
C1277 C 0.66318 0.87513 0.95169 0.0
C1278 C 0.68176 0.8922 0.9546 0.0
C1279 C 0.67927 0.91362 0.94807 0.0
C1280 C 0.65822 0.91801 0.93852 0.0
C1281 C 0.53614 0.95152 0.96263 0.0
C1282 C 0.54809 0.97206 0.97023 0.0
C1283 C 0.54769 0.93673 0.94891 0.0
C1284 C 0.57128 0.94238 0.94186 0.0
C1285 C 0.58319 0.96302 0.94925 0.0
C1286 C 0.57176 0.97766 0.96344 0.0
C1287 C 0.5838 0.92633 0.92787 0.0
C1288 C 0.60528 0.92161 0.93638 0.0
C1289 C 0.57425 0.91483 0.90711 0.0
C1290 C 0.55238 0.91989 0.89619 0.0
C1291 C 0.54998 0.94163 0.89014 0.0
C1292 C 0.52926 0.94628 0.88007 0.0
C1293 C 0.51086 0.92931 0.87577 0.0
C1294 C 0.51318 0.90764 0.88148 0.0
C1295 C 0.53384 0.9029 0.8916 0.0
H1296 H 0.49484 0.93294 0.86797 0.0
H1297 H 0.69807 0.88883 0.96197 0.0
H1298 H 0.85795 0.17512 0.41635 0.0
H1299 H 0.89154 0.15654 0.42541 0.0
H1300 H 0.87192 0.15717 0.50047 0.0
H1301 H 0.83786 0.17493 0.49158 0.0
H1302 H 0.92367 0.16127 0.48866 0.0
H1303 H 0.84746 0.11663 0.47174 0.0
H1304 H 0.81337 0.10631 0.44584 0.0
H1305 H 0.85907 0.09029 0.3879 0.0
H1306 H 0.89348 0.10094 0.41337 0.0
H1307 H 0.95051 0.06815 0.54492 0.0
H1308 H 0.93248 0.09801 0.52837 0.0
H1309 H 0.94277 0.07179 0.45676 0.0
H1310 H 0.95949 0.04093 0.47353 0.0
H1311 H 0.90197 0.08359 0.46033 0.0
H1312 H 0.97747 0.11907 0.47956 0.0
H1313 H 0.0122 0.12892 0.50462 0.0
H1314 H 0.97145 0.16263 0.55533 0.0
H1315 H 0.93632 0.15259 0.53086 0.0
C1316 C 0.86103 0.17171 0.43486 0.0
C1317 C 0.84488 0.176 0.45316 0.0
C1318 C 0.88038 0.16134 0.44001 0.0
C1319 C 0.88398 0.15535 0.46355 0.0
C1320 C 0.86945 0.16181 0.4822 0.0
C1321 C 0.84995 0.17197 0.47705 0.0
C1322 C 0.89945 0.13867 0.46811 0.0
C1323 C 0.9191 0.14428 0.48249 0.0
C1324 C 0.89371 0.11669 0.45941 0.0
C1325 C 0.87301 0.10983 0.44433 0.0
C1326 C 0.85023 0.11106 0.45342 0.0
C1327 C 0.83086 0.10515 0.43883 0.0
C1328 C 0.83406 0.09771 0.41521 0.0
C1329 C 0.85663 0.0961 0.40617 0.0
C1330 C 0.87606 0.10209 0.42067 0.0
C1331 C 0.94885 0.06872 0.52565 0.0
C1332 C 0.95674 0.05252 0.51041 0.0
C1333 C 0.93882 0.08595 0.51618 0.0
C1334 C 0.93697 0.08757 0.49126 0.0
C1335 C 0.94436 0.07106 0.47602 0.0
C1336 C 0.95401 0.05355 0.48557 0.0
C1337 C 0.92616 0.10592 0.48141 0.0
C1338 C 0.90718 0.10062 0.46606 0.0
C1339 C 0.93288 0.1282 0.48893 0.0
C1340 C 0.95417 0.13497 0.50338 0.0
C1341 C 0.97586 0.12852 0.4961 0.0
C1342 C 0.99564 0.13412 0.51022 0.0
C1343 C 0.99403 0.14638 0.53157 0.0
C1344 C 0.97267 0.15314 0.53878 0.0
C1345 C 0.95281 0.14752 0.52477 0.0
H1346 H 0.00934 0.15064 0.54251 0.0
H1347 H 0.81904 0.09314 0.40394 0.0
H1348 H 0.25457 0.59643 0.14298 0.0
H1349 H 0.21848 0.57878 0.12452 0.0
H1350 H 0.20069 0.64255 0.10739 0.0
H1351 H 0.23624 0.66039 0.12673 0.0
H1352 H 0.16206 0.61867 0.12057 0.0
H1353 H 0.22269 0.60426 0.06428 0.0
H1354 H 0.25934 0.59081 0.05054 0.0
H1355 H 0.23156 0.52515 0.07129 0.0
H1356 H 0.19483 0.53826 0.08544 0.0
H1357 H 0.07168 0.5799 0.03731 0.0
H1358 H 0.10793 0.59719 0.05602 0.0
H1359 H 0.12345 0.5332 0.0755 0.0
H1360 H 0.08729 0.51579 0.05662 0.0
H1361 H 0.1631 0.55689 0.06123 0.0
H1362 H 0.10239 0.57121 0.11713 0.0
H1363 H 0.06555 0.58452 0.13049 0.0
H1364 H 0.09345 0.65031 0.11027 0.0
H1365 H 0.13035 0.63732 0.09646 0.0
C1366 C 0.243 0.60688 0.13555 0.0
C1367 C 0.24895 0.63012 0.13655 0.0
C1368 C 0.22224 0.59661 0.12457 0.0
C1369 C 0.20652 0.60906 0.11389 0.0
C1370 C 0.21222 0.63224 0.11519 0.0
C1371 C 0.23296 0.64253 0.12617 0.0
C1372 C 0.18425 0.59808 0.10163 0.0
C1373 C 0.16252 0.60538 0.10735 0.0
C1374 C 0.18407 0.58023 0.08463 0.0
C1375 C 0.20611 0.57229 0.07615 0.0
C1376 C 0.22446 0.58698 0.06608 0.0
C1377 C 0.24524 0.57942 0.05819 0.0
C1378 C 0.2478 0.55715 0.0601 0.0
C1379 C 0.22956 0.54239 0.06985 0.0
C1380 C 0.20876 0.54988 0.0778 0.0
C1381 C 0.08276 0.56939 0.04548 0.0
C1382 C 0.07614 0.54626 0.04528 0.0
C1383 C 0.10362 0.5794 0.05643 0.0
C1384 C 0.11876 0.56676 0.06773 0.0
C1385 C 0.1124 0.54362 0.06712 0.0
C1386 C 0.09148 0.53359 0.05625 0.0
C1387 C 0.141 0.57754 0.08012 0.0
C1388 C 0.16269 0.57019 0.07444 0.0
C1389 C 0.14114 0.59535 0.09714 0.0
C1390 C 0.11904 0.60324 0.10554 0.0
C1391 C 0.1006 0.58848 0.11537 0.0
C1392 C 0.07972 0.59597 0.12305 0.0
C1393 C 0.07714 0.61824 0.12117 0.0
C1394 C 0.09546 0.63306 0.11167 0.0
C1395 C 0.11637 0.62565 0.10394 0.0
H1396 H 0.06096 0.62401 0.12712 0.0
H1397 H 0.2639 0.55132 0.05398 0.0
H1398 H 0.29817 0.38198 0.64769 0.0
H1399 H 0.33455 0.3993 0.62808 0.0
H1400 H 0.29679 0.44746 0.59755 0.0
H1401 H 0.26051 0.43062 0.61772 0.0
H1402 H 0.32929 0.42291 0.56414 0.0
H1403 H 0.32745 0.46676 0.63807 0.0
H1404 H 0.32511 0.47139 0.68209 0.0
H1405 H 0.38662 0.4397 0.68871 0.0
H1406 H 0.38911 0.43458 0.64472 0.0
H1407 H 0.42445 0.49119 0.51054 0.0
H1408 H 0.38833 0.47677 0.53205 0.0
H1409 H 0.42918 0.45524 0.58847 0.0
H1410 H 0.46528 0.47149 0.56778 0.0
H1411 H 0.3944 0.46536 0.60941 0.0
H1412 H 0.39791 0.41956 0.5392 0.0
H1413 H 0.40134 0.41024 0.49605 0.0
H1414 H 0.33896 0.43881 0.48285 0.0
H1415 H 0.33531 0.44854 0.52588 0.0
C1416 C 0.2976 0.39628 0.63684 0.0
C1417 C 0.27629 0.40487 0.63438 0.0
C1418 C 0.31847 0.40622 0.62565 0.0
C1419 C 0.31857 0.42475 0.61124 0.0
C1420 C 0.29729 0.43321 0.60853 0.0
C1421 C 0.27653 0.42361 0.62018 0.0
C1422 C 0.34078 0.43516 0.59893 0.0
C1423 C 0.34342 0.43246 0.57397 0.0
C1424 C 0.35973 0.44686 0.61173 0.0
C1425 C 0.35831 0.45007 0.63813 0.0
C1426 C 0.34034 0.46058 0.64893 0.0
C1427 C 0.33902 0.46334 0.67387 0.0
C1428 C 0.35566 0.45579 0.68819 0.0
C1429 C 0.37371 0.44551 0.6776 0.0
C1430 C 0.3751 0.4427 0.65266 0.0
C1431 C 0.42569 0.48354 0.52765 0.0
C1432 C 0.4478 0.48248 0.53736 0.0
C1433 C 0.40492 0.47494 0.53991 0.0
C1434 C 0.40553 0.464 0.56178 0.0
C1435 C 0.42777 0.46337 0.5717 0.0
C1436 C 0.44855 0.47268 0.5598 0.0
C1437 C 0.38318 0.45333 0.57423 0.0
C1438 C 0.38043 0.45587 0.59933 0.0
C1439 C 0.36438 0.44083 0.56159 0.0
C1440 C 0.36647 0.43497 0.53572 0.0
C1441 C 0.385 0.42397 0.52706 0.0
C1442 C 0.38698 0.4186 0.50264 0.0
C1443 C 0.37041 0.42398 0.48671 0.0
C1444 C 0.3518 0.43468 0.4952 0.0
C1445 C 0.34975 0.44011 0.51961 0.0
H1446 H 0.37198 0.41982 0.46781 0.0
H1447 H 0.35461 0.45794 0.7075 0.0
H1448 H 0.80981 0.72691 0.86386 0.0
H1449 H 0.83684 0.70549 0.88269 0.0
H1450 H 0.7786 0.65738 0.90419 0.0
H1451 H 0.75131 0.67938 0.8859 0.0
H1452 H 0.8106 0.66371 0.93855 0.0
H1453 H 0.81241 0.6483 0.85417 0.0
H1454 H 0.81574 0.6573 0.81131 0.0
H1455 H 0.88582 0.69 0.82145 0.0
H1456 H 0.88279 0.68149 0.86446 0.0
H1457 H 0.88643 0.58428 0.96179 0.0
H1458 H 0.85573 0.6024 0.94436 0.0
H1459 H 0.90776 0.6559 0.92185 0.0
H1460 H 0.93852 0.63786 0.93921 0.0
H1461 H 0.87652 0.6437 0.88725 0.0
H1462 H 0.87324 0.66048 0.97248 0.0
H1463 H 0.86943 0.65101 0.01521 0.0
H1464 H 0.80144 0.61444 1.00291 0.0
H1465 H 0.80499 0.62345 0.96002 0.0
C1466 C 0.80279 0.71187 0.87284 0.0
C1467 C 0.77858 0.70461 0.87328 0.0
C1468 C 0.81822 0.69959 0.88347 0.0
C1469 C 0.80981 0.67951 0.89427 0.0
C1470 C 0.78548 0.67273 0.89577 0.0
C1471 C 0.76994 0.68526 0.88538 0.0
C1472 C 0.82662 0.66543 0.90323 0.0
C1473 C 0.82479 0.65902 0.92723 0.0
C1474 C 0.8453 0.65949 0.88853 0.0
C1475 C 0.84731 0.66438 0.86258 0.0
C1476 C 0.82848 0.65752 0.84729 0.0
C1477 C 0.83032 0.66253 0.82296 0.0
C1478 C 0.85096 0.67425 0.81367 0.0
C1479 C 0.86984 0.68093 0.82867 0.0
C1480 C 0.86808 0.676 0.85302 0.0
C1481 C 0.89131 0.59992 0.95313 0.0
C1482 C 0.91489 0.60971 0.952 0.0
C1483 C 0.87376 0.61025 0.9432 0.0
C1484 C 0.87941 0.63067 0.93214 0.0
C1485 C 0.903 0.64016 0.93034 0.0
C1486 C 0.92058 0.62979 0.94018 0.0
C1487 C 0.86078 0.64238 0.92267 0.0
C1488 C 0.86224 0.64827 0.89852 0.0
C1489 C 0.84171 0.64769 0.93719 0.0
C1490 C 0.83948 0.64246 0.96301 0.0
C1491 C 0.85755 0.65029 0.97886 0.0
C1492 C 0.85543 0.64503 1.00311 0.0
C1493 C 0.83524 0.63208 1.01176 0.0
C1494 C 0.81709 0.62444 0.99618 0.0
C1495 C 0.81913 0.62963 0.97191 0.0
H1496 H 0.83363 0.62801 0.03053 0.0
H1497 H 0.85234 0.67812 0.79483 0.0
H1498 H 0.39204 0.78481 0.10647 0.0
H1499 H 0.40767 0.82013 0.08943 0.0
H1500 H 0.44867 0.83712 0.15245 0.0
H1501 H 0.43198 0.80228 0.17035 0.0
H1502 H 0.43466 0.87274 0.1404 0.0
H1503 H 0.47124 0.82036 0.09242 0.0
H1504 H 0.47307 0.78754 0.06607 0.0
H1505 H 0.43235 0.81443 0.01363 0.0
H1506 H 0.43004 0.84731 0.03981 0.0
H1507 H 0.51481 0.96039 0.09209 0.0
H1508 H 0.49544 0.92547 0.10743 0.0
H1509 H 0.45009 0.91775 0.04665 0.0
H1510 H 0.46975 0.9532 0.03106 0.0
H1511 H 0.46455 0.87795 0.05637 0.0
H1512 H 0.42994 0.93136 0.10427 0.0
H1513 H 0.42939 0.96433 0.13066 0.0
H1514 H 0.46785 0.93536 0.1835 0.0
H1515 H 0.46891 0.90233 0.15727 0.0
C1516 C 0.40414 0.79598 0.11709 0.0
C1517 C 0.41038 0.78998 0.14019 0.0
C1518 C 0.41354 0.81638 0.10694 0.0
C1519 C 0.43 0.83178 0.11913 0.0
C1520 C 0.4362 0.82593 0.14223 0.0
C1521 C 0.42669 0.80556 0.15248 0.0
C1522 C 0.44038 0.85389 0.10814 0.0
C1523 C 0.44145 0.87362 0.1221 0.0
C1524 C 0.44891 0.8559 0.08395 0.0
C1525 C 0.45026 0.83618 0.06819 0.0
C1526 C 0.46253 0.8192 0.07534 0.0
C1527 C 0.46368 0.8006 0.06043 0.0
C1528 C 0.45278 0.79887 0.03822 0.0
C1529 C 0.44076 0.81577 0.03086 0.0
C1530 C 0.43953 0.8344 0.04572 0.0
C1531 C 0.50058 0.95148 0.08192 0.0
C1532 C 0.49392 0.96007 0.06027 0.0
C1533 C 0.48934 0.93128 0.09087 0.0
C1534 C 0.47084 0.91855 0.07863 0.0
C1535 C 0.46417 0.92696 0.05678 0.0
C1536 C 0.47538 0.94745 0.04784 0.0
C1537 C 0.45896 0.89662 0.08872 0.0
C1538 C 0.45766 0.87699 0.07463 0.0
C1539 C 0.45035 0.89465 0.11284 0.0
C1540 C 0.44967 0.91444 0.1287 0.0
C1541 C 0.43842 0.93208 0.12144 0.0
C1542 C 0.438 0.95077 0.13638 0.0
C1543 C 0.44862 0.95196 0.15872 0.0
C1544 C 0.45964 0.93443 0.16618 0.0
C1545 C 0.46014 0.91571 0.1513 0.0
H1546 H 0.44827 0.96644 0.17026 0.0
H1547 H 0.45369 0.78446 0.0267 0.0
H1548 H 0.14019 0.24687 0.60823 0.0
H1549 H 0.1222 0.21229 0.58973 0.0
H1550 H 0.06718 0.2071 0.64363 0.0
H1551 H 0.08386 0.24253 0.66144 0.0
H1552 H 0.09326 0.16609 0.63202 0.0
H1553 H 0.04991 0.2194 0.59654 0.0
H1554 H 0.04688 0.25322 0.57448 0.0
H1555 H 0.08404 0.22827 0.51426 0.0
H1556 H 0.0876 0.19444 0.53614 0.0
H1557 H 0.02249 0.07143 0.58359 0.0
H1558 H 0.03762 0.10684 0.60265 0.0
H1559 H 0.06525 0.13071 0.53419 0.0
H1560 H 0.04836 0.0959 0.51492 0.0
H1561 H 0.05342 0.16318 0.55399 0.0
H1562 H 0.09937 0.11201 0.5859 0.0
H1563 H 0.10736 0.07855 0.60607 0.0
H1564 H 0.07248 0.09894 0.67013 0.0
H1565 H 0.06403 0.1324 0.65024 0.0
C1566 C 0.12399 0.23889 0.61611 0.0
C1567 C 0.1137 0.24823 0.6366 0.0
C1568 C 0.11382 0.21875 0.60548 0.0
C1569 C 0.09327 0.20689 0.61518 0.0
C1570 C 0.0831 0.21577 0.63578 0.0
C1571 C 0.09293 0.23617 0.64613 0.0
C1572 C 0.08246 0.18534 0.60379 0.0
C1573 C 0.08425 0.16543 0.61511 0.0
C1574 C 0.07149 0.18423 0.58125 0.0
C1575 C 0.06925 0.20451 0.56809 0.0
C1576 C 0.05764 0.22123 0.5787 0.0
C1577 C 0.05578 0.24038 0.5662 0.0
C1578 C 0.06533 0.24293 0.54301 0.0
C1579 C 0.07669 0.2263 0.53224 0.0
C1580 C 0.07862 0.20713 0.54467 0.0
C1581 C 0.03185 0.08421 0.5726 0.0
C1582 C 0.03436 0.08059 0.54769 0.0
C1583 C 0.04079 0.10457 0.5836 0.0
C1584 C 0.05349 0.12174 0.57027 0.0
C1585 C 0.05575 0.11808 0.54526 0.0
C1586 C 0.04614 0.09798 0.53415 0.0
C1587 C 0.06407 0.14344 0.58214 0.0
C1588 C 0.06234 0.16353 0.5709 0.0
C1589 C 0.07578 0.14465 0.60446 0.0
C1590 C 0.08086 0.12459 0.61649 0.0
C1591 C 0.09328 0.10928 0.60424 0.0
C1592 C 0.0979 0.09033 0.61563 0.0
C1593 C 0.09037 0.08659 0.63934 0.0
C1594 C 0.07827 0.10184 0.65175 0.0
C1595 C 0.07357 0.12081 0.64044 0.0
H1596 H 0.09397 0.0719 0.64813 0.0
H1597 H 0.06387 0.25776 0.53336 0.0
H1598 H 0.68479 0.27493 0.51259 0.0
H1599 H 0.65953 0.30037 0.5296 0.0
H1600 H 0.6035 0.24643 0.53853 0.0
H1601 H 0.62883 0.22078 0.52122 0.0
H1602 H 0.58961 0.27639 0.51292 0.0
H1603 H 0.62576 0.27868 0.58773 0.0
H1604 H 0.65752 0.28065 0.61686 0.0
H1605 H 0.68485 0.34568 0.59377 0.0
H1606 H 0.65351 0.34401 0.56423 0.0
H1607 H 0.52447 0.36616 0.52819 0.0
H1608 H 0.54134 0.33442 0.54276 0.0
H1609 H 0.61064 0.36615 0.52357 0.0
H1610 H 0.59396 0.3979 0.50932 0.0
H1611 H 0.60972 0.34239 0.56603 0.0
H1612 H 0.58087 0.3329 0.48371 0.0
H1613 H 0.54972 0.33092 0.45383 0.0
H1614 H 0.509 0.27849 0.49222 0.0
H1615 H 0.53984 0.28039 0.52251 0.0
C1616 C 0.66739 0.26832 0.51898 0.0
C1617 C 0.65871 0.24589 0.51534 0.0
C1618 C 0.65293 0.28291 0.52883 0.0
C1619 C 0.62959 0.27533 0.53548 0.0
C1620 C 0.62144 0.25265 0.53352 0.0
C1621 C 0.63587 0.23804 0.52353 0.0
C1622 C 0.61297 0.29153 0.5402 0.0
C1623 C 0.59359 0.29042 0.5252 0.0
C1624 C 0.61823 0.31001 0.55597 0.0
C1625 C 0.63725 0.31117 0.57367 0.0
C1626 C 0.63863 0.29335 0.58873 0.0
C1627 C 0.65656 0.29443 0.60534 0.0
C1628 C 0.6732 0.31327 0.60716 0.0
C1629 C 0.67193 0.3311 0.59237 0.0
C1630 C 0.65405 0.33011 0.57571 0.0
C1631 C 0.54333 0.3665 0.52757 0.0
C1632 C 0.55792 0.38424 0.51724 0.0
C1633 C 0.55292 0.34842 0.53591 0.0
C1634 C 0.5772 0.34792 0.53407 0.0
C1635 C 0.59186 0.36626 0.5252 0.0
C1636 C 0.5823 0.38422 0.51676 0.0
C1637 C 0.58727 0.32741 0.53811 0.0
C1638 C 0.60534 0.32783 0.5546 0.0
C1639 C 0.58088 0.30821 0.52376 0.0
C1640 C 0.56247 0.30698 0.5055 0.0
C1641 C 0.56519 0.32107 0.48585 0.0
C1642 C 0.54761 0.31995 0.46884 0.0
C1643 C 0.52736 0.30464 0.47117 0.0
C1644 C 0.52467 0.29038 0.49048 0.0
C1645 C 0.54218 0.29147 0.50757 0.0
H1646 H 0.51377 0.30379 0.45799 0.0
H1647 H 0.68706 0.31407 0.62004 0.0
loop_
_geom_bond_atom_site_label_1
_geom_bond_atom_site_label_2
_geom_bond_distance
_geom_bond_site_symmetry_2
_ccdc_geom_bond_type
C0 C1 1.384 . S
C0 H13 0.947 . S
C0 C35 1.382 . S
C1 C0 1.384 . S
C1 C2 1.378 . S
C2 C1 1.378 . S
C2 C3 1.378 . S
C2 H14 0.952 . S
C3 C2 1.378 . S
C3 H15 0.950 . S
C3 C34 1.383 . S
H4 C23 0.947 . S
H5 C24 0.946 . S
H6 C26 0.953 . S
H7 C27 0.945 . S
H8 C29 0.952 . S
H9 C30 0.949 . S
H10 C32 0.950 . S
H11 C33 0.948 . S
H12 C35 0.951 . S
H13 C0 0.947 . S
H14 C2 0.952 . S
H15 C3 0.950 . S
N16 C19 1.382 . S
N16 C21 1.363 . S
N17 C19 1.371 . S
N17 C20 1.372 . S
N18 C20 1.361 . S
N18 C21 1.377 . S
C19 N16 1.382 . S
C19 N17 1.371 . S
C19 C22 1.480 . S
C20 N17 1.372 . S
C20 N18 1.361 . S
C20 C28 1.457 . S
C21 N16 1.363 . S
C21 N18 1.377 . S
C21 C34 1.479 . S
C22 C19 1.480 . S
C22 C23 1.383 . S
C22 C27 1.385 . S
C23 H4 0.947 . S
C23 C22 1.383 . S
C23 C24 1.388 . S
C24 H5 0.946 . S
C24 C23 1.388 . S
C24 C25 1.384 . S
C25 C24 1.384 . S
C25 C26 1.377 . S
C26 H6 0.953 . S
C26 C25 1.377 . S
C26 C27 1.369 . S
C27 H7 0.945 . S
C27 C22 1.385 . S
C27 C26 1.369 . S
C28 C20 1.457 . S
C28 C29 1.372 . S
C28 C33 1.364 . S
C29 H8 0.952 . S
C29 C28 1.372 . S
C29 C30 1.389 . S
C30 H9 0.949 . S
C30 C29 1.389 . S
C30 C31 1.387 . S
C31 C30 1.387 . S
C31 C32 1.372 . S
C32 H10 0.950 . S
C32 C31 1.372 . S
C32 C33 1.379 . S
C33 H11 0.948 . S
C33 C28 1.364 . S
C33 C32 1.379 . S
C34 C3 1.383 . S
C34 C21 1.479 . S
C34 C35 1.398 . S
C35 C0 1.382 . S
C35 H12 0.951 . S
C35 C34 1.398 . S
C36 C37 1.384 . S
C36 H49 0.947 . S
C36 C71 1.382 . S
C37 C36 1.384 . S
C37 C38 1.378 . S
C38 C37 1.378 . S
C38 C39 1.378 . S
C38 H50 0.952 . S
C39 C38 1.378 . S
C39 H51 0.950 . S
C39 C70 1.383 . S
H40 C59 0.947 . S
H41 C60 0.946 . S
H42 C62 0.953 . S
H43 C63 0.945 . S
H44 C65 0.952 . S
H45 C66 0.949 . S
H46 C68 0.950 . S
H47 C69 0.948 . S
H48 C71 0.951 . S
H49 C36 0.947 . S
H50 C38 0.952 . S
H51 C39 0.950 . S
N52 C55 1.382 . S
N52 C57 1.363 . S
N53 C55 1.371 . S
N53 C56 1.372 . S
N54 C56 1.361 . S
N54 C57 1.377 . S
C55 N52 1.382 . S
C55 N53 1.371 . S
C55 C58 1.480 . S
C56 N53 1.372 . S
C56 N54 1.361 . S
C56 C64 1.457 . S
C57 N52 1.363 . S
C57 N54 1.377 . S
C57 C70 1.479 . S
C58 C55 1.480 . S
C58 C59 1.383 . S
C58 C63 1.385 . S
C59 H40 0.947 . S
C59 C58 1.383 . S
C59 C60 1.388 . S
C60 H41 0.946 . S
C60 C59 1.388 . S
C60 C61 1.384 . S
C61 C60 1.384 . S
C61 C62 1.377 . S
C62 H42 0.953 . S
C62 C61 1.377 . S
C62 C63 1.369 . S
C63 H43 0.945 . S
C63 C58 1.385 . S
C63 C62 1.369 . S
C64 C56 1.457 . S
C64 C65 1.372 . S
C64 C69 1.364 . S
C65 H44 0.952 . S
C65 C64 1.372 . S
C65 C66 1.389 . S
C66 H45 0.949 . S
C66 C65 1.389 . S
C66 C67 1.387 . S
C67 C66 1.387 . S
C67 C68 1.372 . S
C68 H46 0.950 . S
C68 C67 1.372 . S
C68 C69 1.379 . S
C69 H47 0.948 . S
C69 C64 1.364 . S
C69 C68 1.379 . S
C70 C39 1.383 . S
C70 C57 1.479 . S
C70 C71 1.398 . S
C71 C36 1.382 . S
C71 H48 0.951 . S
C71 C70 1.398 . S
C72 C73 1.384 . S
C72 H85 0.947 . S
C72 C107 1.382 . S
C73 C72 1.384 . S
C73 C74 1.378 . S
C74 C73 1.378 . S
C74 C75 1.378 . S
C74 H86 0.952 . S
C75 C74 1.378 . S
C75 H87 0.950 . S
C75 C106 1.383 . S
H76 C95 0.947 . S
H77 C96 0.946 . S
H78 C98 0.953 . S
H79 C99 0.945 . S
H80 C101 0.952 . S
H81 C102 0.949 . S
H82 C104 0.950 . S
H83 C105 0.948 . S
H84 C107 0.951 . S
H85 C72 0.947 . S
H86 C74 0.952 . S
H87 C75 0.950 . S
N88 C91 1.382 . S
N88 C93 1.363 . S
N89 C91 1.371 . S
N89 C92 1.372 . S
N90 C92 1.361 . S
N90 C93 1.377 . S
C91 N88 1.382 . S
C91 N89 1.371 . S
C91 C94 1.480 . S
C92 N89 1.372 . S
C92 N90 1.361 . S
C92 C100 1.457 . S
C93 N88 1.363 . S
C93 N90 1.377 . S
C93 C106 1.479 . S
C94 C91 1.480 . S
C94 C95 1.383 . S
C94 C99 1.385 . S
C95 H76 0.947 . S
C95 C94 1.383 . S
C95 C96 1.388 . S
C96 H77 0.946 . S
C96 C95 1.388 . S
C96 C97 1.384 . S
C97 C96 1.384 . S
C97 C98 1.377 . S
C98 H78 0.953 . S
C98 C97 1.377 . S
C98 C99 1.369 . S
C99 H79 0.945 . S
C99 C94 1.385 . S
C99 C98 1.369 . S
C100 C92 1.457 . S
C100 C101 1.372 . S
C100 C105 1.364 . S
C101 H80 0.952 . S
C101 C100 1.372 . S
C101 C102 1.389 . S
C102 H81 0.949 . S
C102 C101 1.389 . S
C102 C103 1.387 . S
C103 C102 1.387 . S
C103 C104 1.372 . S
C104 H82 0.950 . S
C104 C103 1.372 . S
C104 C105 1.379 . S
C105 H83 0.948 . S
C105 C100 1.364 . S
C105 C104 1.379 . S
C106 C75 1.383 . S
C106 C93 1.479 . S
C106 C107 1.398 . S
C107 C72 1.382 . S
C107 H84 0.951 . S
C107 C106 1.398 . S
C108 C109 1.384 . S
C108 H121 0.947 . S
C108 C143 1.382 . S
C109 C108 1.384 . S
C109 C110 1.378 . S
C110 C109 1.378 . S
C110 C111 1.378 . S
C110 H122 0.952 . S
C111 C110 1.378 . S
C111 H123 0.950 . S
C111 C142 1.383 . S
H112 C131 0.947 . S
H113 C132 0.946 . S
H114 C134 0.953 . S
H115 C135 0.945 . S
H116 C137 0.952 . S
H117 C138 0.949 . S
H118 C140 0.950 . S
H119 C141 0.948 . S
H120 C143 0.951 . S
H121 C108 0.947 . S
H122 C110 0.952 . S
H123 C111 0.950 . S
N124 C127 1.382 . S
N124 C129 1.363 . S
N125 C127 1.371 . S
N125 C128 1.372 . S
N126 C128 1.361 . S
N126 C129 1.377 . S
C127 N124 1.382 . S
C127 N125 1.371 . S
C127 C130 1.480 . S
C128 N125 1.372 . S
C128 N126 1.361 . S
C128 C136 1.457 . S
C129 N124 1.363 . S
C129 N126 1.377 . S
C129 C142 1.479 . S
C130 C127 1.480 . S
C130 C131 1.383 . S
C130 C135 1.385 . S
C131 H112 0.947 . S
C131 C130 1.383 . S
C131 C132 1.388 . S
C132 H113 0.946 . S
C132 C131 1.388 . S
C132 C133 1.384 . S
C133 C132 1.384 . S
C133 C134 1.377 . S
C134 H114 0.953 . S
C134 C133 1.377 . S
C134 C135 1.369 . S
C135 H115 0.945 . S
C135 C130 1.385 . S
C135 C134 1.369 . S
C136 C128 1.457 . S
C136 C137 1.372 . S
C136 C141 1.364 . S
C137 H116 0.952 . S
C137 C136 1.372 . S
C137 C138 1.389 . S
C138 H117 0.949 . S
C138 C137 1.389 . S
C138 C139 1.387 . S
C139 C138 1.387 . S
C139 C140 1.372 . S
C140 H118 0.950 . S
C140 C139 1.372 . S
C140 C141 1.379 . S
C141 H119 0.948 . S
C141 C136 1.364 . S
C141 C140 1.379 . S
C142 C111 1.383 . S
C142 C129 1.479 . S
C142 C143 1.398 . S
C143 C108 1.382 . S
C143 H120 0.951 . S
C143 C142 1.398 . S
C144 C145 1.384 . S
C144 H157 0.947 . S
C144 C179 1.382 . S
C145 C144 1.384 . S
C145 C146 1.378 . S
C146 C145 1.378 . S
C146 C147 1.378 . S
C146 H158 0.952 . S
C147 C146 1.378 . S
C147 H159 0.950 . S
C147 C178 1.383 . S
H148 C167 0.947 . S
H149 C168 0.946 . S
H150 C170 0.953 . S
H151 C171 0.945 . S
H152 C173 0.952 . S
H153 C174 0.949 . S
H154 C176 0.950 . S
H155 C177 0.948 . S
H156 C179 0.951 . S
H157 C144 0.947 . S
H158 C146 0.952 . S
H159 C147 0.950 . S
N160 C163 1.382 . S
N160 C165 1.363 . S
N161 C163 1.371 . S
N161 C164 1.372 . S
N162 C164 1.361 . S
N162 C165 1.377 . S
C163 N160 1.382 . S
C163 N161 1.371 . S
C163 C166 1.480 . S
C164 N161 1.372 . S
C164 N162 1.361 . S
C164 C172 1.457 . S
C165 N160 1.363 . S
C165 N162 1.377 . S
C165 C178 1.479 . S
C166 C163 1.480 . S
C166 C167 1.383 . S
C166 C171 1.385 . S
C167 H148 0.947 . S
C167 C166 1.383 . S
C167 C168 1.388 . S
C168 H149 0.946 . S
C168 C167 1.388 . S
C168 C169 1.384 . S
C169 C168 1.384 . S
C169 C170 1.377 . S
C170 H150 0.953 . S
C170 C169 1.377 . S
C170 C171 1.369 . S
C171 H151 0.945 . S
C171 C166 1.385 . S
C171 C170 1.369 . S
C172 C164 1.457 . S
C172 C173 1.372 . S
C172 C177 1.364 . S
C173 H152 0.952 . S
C173 C172 1.372 . S
C173 C174 1.389 . S
C174 H153 0.949 . S
C174 C173 1.389 . S
C174 C175 1.387 . S
C175 C174 1.387 . S
C175 C176 1.372 . S
C176 H154 0.950 . S
C176 C175 1.372 . S
C176 C177 1.379 . S
C177 H155 0.948 . S
C177 C172 1.364 . S
C177 C176 1.379 . S
C178 C147 1.383 . S
C178 C165 1.479 . S
C178 C179 1.398 . S
C179 C144 1.382 . S
C179 H156 0.951 . S
C179 C178 1.398 . S
C180 C181 1.384 . S
C180 H193 0.947 . S
C180 C215 1.382 . S
C181 C180 1.384 . S
C181 C182 1.378 . S
C182 C181 1.378 . S
C182 C183 1.378 . S
C182 H194 0.952 . S
C183 C182 1.378 . S
C183 H195 0.950 . S
C183 C214 1.383 . S
H184 C203 0.947 . S
H185 C204 0.946 . S
H186 C206 0.953 . S
H187 C207 0.945 . S
H188 C209 0.952 . S
H189 C210 0.949 . S
H190 C212 0.950 . S
H191 C213 0.948 . S
H192 C215 0.951 . S
H193 C180 0.947 . S
H194 C182 0.952 . S
H195 C183 0.950 . S
N196 C199 1.382 . S
N196 C201 1.363 . S
N197 C199 1.371 . S
N197 C200 1.372 . S
N198 C200 1.361 . S
N198 C201 1.377 . S
C199 N196 1.382 . S
C199 N197 1.371 . S
C199 C202 1.480 . S
C200 N197 1.372 . S
C200 N198 1.361 . S
C200 C208 1.457 . S
C201 N196 1.363 . S
C201 N198 1.377 . S
C201 C214 1.479 . S
C202 C199 1.480 . S
C202 C203 1.383 . S
C202 C207 1.385 . S
C203 H184 0.947 . S
C203 C202 1.383 . S
C203 C204 1.388 . S
C204 H185 0.946 . S
C204 C203 1.388 . S
C204 C205 1.384 . S
C205 C204 1.384 . S
C205 C206 1.377 . S
C206 H186 0.953 . S
C206 C205 1.377 . S
C206 C207 1.369 . S
C207 H187 0.945 . S
C207 C202 1.385 . S
C207 C206 1.369 . S
C208 C200 1.457 . S
C208 C209 1.372 . S
C208 C213 1.364 . S
C209 H188 0.952 . S
C209 C208 1.372 . S
C209 C210 1.389 . S
C210 H189 0.949 . S
C210 C209 1.389 . S
C210 C211 1.387 . S
C211 C210 1.387 . S
C211 C212 1.372 . S
C212 H190 0.950 . S
C212 C211 1.372 . S
C212 C213 1.379 . S
C213 H191 0.948 . S
C213 C208 1.364 . S
C213 C212 1.379 . S
C214 C183 1.383 . S
C214 C201 1.479 . S
C214 C215 1.398 . S
C215 C180 1.382 . S
C215 H192 0.951 . S
C215 C214 1.398 . S
C216 C217 1.384 . S
C216 H229 0.947 . S
C216 C251 1.382 . S
C217 C216 1.384 . S
C217 C218 1.378 . S
C218 C217 1.378 . S
C218 C219 1.378 . S
C218 H230 0.952 . S
C219 C218 1.378 . S
C219 H231 0.950 . S
C219 C250 1.383 . S
H220 C239 0.947 . S
H221 C240 0.946 . S
H222 C242 0.953 . S
H223 C243 0.945 . S
H224 C245 0.952 . S
H225 C246 0.949 . S
H226 C248 0.950 . S
H227 C249 0.948 . S
H228 C251 0.951 . S
H229 C216 0.947 . S
H230 C218 0.952 . S
H231 C219 0.950 . S
N232 C235 1.382 . S
N232 C237 1.363 . S
N233 C235 1.371 . S
N233 C236 1.372 . S
N234 C236 1.361 . S
N234 C237 1.377 . S
C235 N232 1.382 . S
C235 N233 1.371 . S
C235 C238 1.480 . S
C236 N233 1.372 . S
C236 N234 1.361 . S
C236 C244 1.457 . S
C237 N232 1.363 . S
C237 N234 1.377 . S
C237 C250 1.479 . S
C238 C235 1.480 . S
C238 C239 1.383 . S
C238 C243 1.385 . S
C239 H220 0.947 . S
C239 C238 1.383 . S
C239 C240 1.388 . S
C240 H221 0.946 . S
C240 C239 1.388 . S
C240 C241 1.384 . S
C241 C240 1.384 . S
C241 C242 1.377 . S
C242 H222 0.953 . S
C242 C241 1.377 . S
C242 C243 1.369 . S
C243 H223 0.945 . S
C243 C238 1.385 . S
C243 C242 1.369 . S
C244 C236 1.457 . S
C244 C245 1.372 . S
C244 C249 1.364 . S
C245 H224 0.952 . S
C245 C244 1.372 . S
C245 C246 1.389 . S
C246 H225 0.949 . S
C246 C245 1.389 . S
C246 C247 1.387 . S
C247 C246 1.387 . S
C247 C248 1.372 . S
C248 H226 0.950 . S
C248 C247 1.372 . S
C248 C249 1.379 . S
C249 H227 0.948 . S
C249 C244 1.364 . S
C249 C248 1.379 . S
C250 C219 1.383 . S
C250 C237 1.479 . S
C250 C251 1.398 . S
C251 C216 1.382 . S
C251 H228 0.951 . S
C251 C250 1.398 . S
C252 C253 1.384 . S
C252 H265 0.947 . S
C252 C287 1.382 . S
C253 C252 1.384 . S
C253 C254 1.378 . S
C254 C253 1.378 . S
C254 C255 1.378 . S
C254 H266 0.952 . S
C255 C254 1.378 . S
C255 H267 0.950 . S
C255 C286 1.383 . S
H256 C275 0.947 . S
H257 C276 0.946 . S
H258 C278 0.953 . S
H259 C279 0.945 . S
H260 C281 0.952 . S
H261 C282 0.949 . S
H262 C284 0.950 . S
H263 C285 0.948 . S
H264 C287 0.951 . S
H265 C252 0.947 . S
H266 C254 0.952 . S
H267 C255 0.950 . S
N268 C271 1.382 . S
N268 C273 1.363 . S
N269 C271 1.371 . S
N269 C272 1.372 . S
N270 C272 1.361 . S
N270 C273 1.377 . S
C271 N268 1.382 . S
C271 N269 1.371 . S
C271 C274 1.480 . S
C272 N269 1.372 . S
C272 N270 1.361 . S
C272 C280 1.457 . S
C273 N268 1.363 . S
C273 N270 1.377 . S
C273 C286 1.479 . S
C274 C271 1.480 . S
C274 C275 1.383 . S
C274 C279 1.385 . S
C275 H256 0.947 . S
C275 C274 1.383 . S
C275 C276 1.388 . S
C276 H257 0.946 . S
C276 C275 1.388 . S
C276 C277 1.384 . S
C277 C276 1.384 . S
C277 C278 1.377 . S
C278 H258 0.953 . S
C278 C277 1.377 . S
C278 C279 1.369 . S
C279 H259 0.945 . S
C279 C274 1.385 . S
C279 C278 1.369 . S
C280 C272 1.457 . S
C280 C281 1.372 . S
C280 C285 1.364 . S
C281 H260 0.952 . S
C281 C280 1.372 . S
C281 C282 1.389 . S
C282 H261 0.949 . S
C282 C281 1.389 . S
C282 C283 1.387 . S
C283 C282 1.387 . S
C283 C284 1.372 . S
C284 H262 0.950 . S
C284 C283 1.372 . S
C284 C285 1.379 . S
C285 H263 0.948 . S
C285 C280 1.364 . S
C285 C284 1.379 . S
C286 C255 1.383 . S
C286 C273 1.479 . S
C286 C287 1.398 . S
C287 C252 1.382 . S
C287 H264 0.951 . S
C287 C286 1.398 . S
Ho288 C291 2.811 . S
Ho288 O308 2.322 . S
Ho288 O310 2.378 . S
Ho288 O311 2.524 . S
Ho288 O312 2.381 1_545 S
Ho288 O313 2.669 1_545 S
Ho288 O315 2.346 1_445 S
Ho288 O319 2.305 1_455 S
Ho289 C300 2.811 . S
Ho289 O309 2.346 1_665 S
Ho289 O313 2.305 1_655 S
Ho289 O314 2.322 . S
Ho289 O316 2.378 . S
Ho289 O317 2.524 . S
Ho289 O318 2.381 1_565 S
Ho289 O319 2.669 1_565 S
C290 O308 1.259 . S
C290 O309 1.268 . S
C291 Ho288 2.811 . S
C291 C292 1.488 . S
C291 O310 1.215 . S
C291 O311 1.289 . S
C292 C291 1.488 . S
C292 C293 1.348 . S
C292 C297 1.413 . S
C293 C292 1.348 . S
C293 C294 1.442 . S
C293 H320 0.930 . S
C294 C293 1.442 . S
C294 C295 1.381 . S
C294 H321 0.931 . S
C295 C294 1.381 . S
C295 C296 1.321 . S
C296 C295 1.321 . S
C296 C297 1.403 . S
C296 H322 0.934 . S
C297 C292 1.413 . S
C297 C296 1.403 . S
C297 H323 0.930 . S
C298 O312 1.275 . S
C298 O313 1.256 . S
C299 O314 1.259 . S
C299 O315 1.268 . S
C300 Ho289 2.811 . S
C300 C301 1.488 . S
C300 O316 1.215 . S
C300 O317 1.289 . S
C301 C300 1.488 . S
C301 C302 1.348 . S
C301 C306 1.413 . S
C302 C301 1.348 . S
C302 C303 1.442 . S
C302 H324 0.930 . S
C303 C302 1.442 . S
C303 C304 1.381 . S
C303 H325 0.931 . S
C304 C303 1.381 . S
C304 C305 1.321 . S
C305 C304 1.321 . S
C305 C306 1.403 . S
C305 H326 0.934 . S
C306 C301 1.413 . S
C306 C305 1.403 . S
C306 H327 0.930 . S
C307 O318 1.275 . S
C307 O319 1.256 . S
O308 Ho288 2.322 . S
O308 C290 1.259 . S
O309 Ho289 2.346 1_445 S
O309 C290 1.268 . S
O310 Ho288 2.378 . S
O310 C291 1.215 . S
O311 Ho288 2.524 . S
O311 C291 1.289 . S
O312 Ho288 2.381 1_565 S
O312 C298 1.275 . S
O313 Ho288 2.669 1_565 S
O313 Ho289 2.305 1_455 S
O313 C298 1.256 . S
O314 Ho289 2.322 . S
O314 C299 1.259 . S
O315 Ho288 2.346 1_665 S
O315 C299 1.268 . S
O316 Ho289 2.378 . S
O316 C300 1.215 . S
O317 Ho289 2.524 . S
O317 C300 1.289 . S
O318 Ho289 2.381 1_545 S
O318 C307 1.275 . S
O319 Ho288 2.305 1_655 S
O319 Ho289 2.669 1_545 S
O319 C307 1.256 . S
H320 C293 0.930 . S
H321 C294 0.931 . S
H322 C296 0.934 . S
H323 C297 0.930 . S
H324 C302 0.930 . S
H325 C303 0.931 . S
H326 C305 0.934 . S
H327 C306 0.930 . S
Ho328 C331 2.809 . S
Ho328 O348 2.320 . S
Ho328 O350 2.378 . S
Ho328 O351 2.521 . S
Ho328 O352 2.383 1_545 S
Ho328 O353 2.671 1_545 S
Ho328 O355 2.348 1_544 S
Ho328 O359 2.302 1_554 S
Ho329 C340 2.811 1_545 S
Ho329 O349 2.346 1_556 S
Ho329 O353 2.305 1_546 S
Ho329 O354 2.322 1_545 S
Ho329 O356 2.378 1_545 S
Ho329 O357 2.524 1_545 S
Ho329 O358 2.381 . S
Ho329 O359 2.669 . S
C330 O348 1.259 . S
C330 O349 1.268 . S
C331 Ho328 2.809 . S
C331 C332 1.488 . S
C331 O350 1.215 . S
C331 O351 1.289 . S
C332 C331 1.488 . S
C332 C333 1.348 . S
C332 C337 1.413 . S
C333 C332 1.348 . S
C333 C334 1.442 . S
C333 H360 0.930 . S
C334 C333 1.442 . S
C334 C335 1.381 . S
C334 H361 0.931 . S
C335 C334 1.381 . S
C335 C336 1.321 . S
C336 C335 1.321 . S
C336 C337 1.403 . S
C336 H362 0.934 . S
C337 C332 1.413 . S
C337 C336 1.403 . S
C337 H363 0.930 . S
C338 O352 1.275 . S
C338 O353 1.256 . S
C339 O354 1.259 . S
C339 O355 1.268 . S
C340 Ho329 2.811 1_565 S
C340 C341 1.488 . S
C340 O356 1.215 . S
C340 O357 1.289 . S
C341 C340 1.488 . S
C341 C342 1.348 . S
C341 C346 1.413 . S
C342 C341 1.348 . S
C342 C343 1.442 . S
C342 H364 0.930 . S
C343 C342 1.442 . S
C343 C344 1.381 . S
C343 H365 0.931 . S
C344 C343 1.381 . S
C344 C345 1.321 . S
C345 C344 1.321 . S
C345 C346 1.403 . S
C345 H366 0.934 . S
C346 C341 1.413 . S
C346 C345 1.403 . S
C346 H367 0.930 . S
C347 O358 1.275 . S
C347 O359 1.256 . S
O348 Ho328 2.320 . S
O348 C330 1.259 . S
O349 Ho329 2.346 1_554 S
O349 C330 1.268 . S
O350 Ho328 2.378 . S
O350 C331 1.215 . S
O351 Ho328 2.521 . S
O351 C331 1.289 . S
O352 Ho328 2.383 1_565 S
O352 C338 1.275 . S
O353 Ho328 2.671 1_565 S
O353 Ho329 2.305 1_564 S
O353 C338 1.256 . S
O354 Ho329 2.322 1_565 S
O354 C339 1.259 . S
O355 Ho328 2.348 1_566 S
O355 C339 1.268 . S
O356 Ho329 2.378 1_565 S
O356 C340 1.215 . S
O357 Ho329 2.524 1_565 S
O357 C340 1.289 . S
O358 Ho329 2.381 . S
O358 C347 1.275 . S
O359 Ho328 2.302 1_556 S
O359 Ho329 2.669 . S
O359 C347 1.256 . S
H360 C333 0.930 . S
H361 C334 0.931 . S
H362 C336 0.934 . S
H363 C337 0.930 . S
H364 C342 0.930 . S
H365 C343 0.931 . S
H366 C345 0.934 . S
H367 C346 0.930 . S
Ho368 C371 2.811 . S
Ho368 O388 2.322 . S
Ho368 O390 2.378 . S
Ho368 O391 2.524 . S
Ho368 O392 2.381 . S
Ho368 O393 2.669 . S
Ho368 O395 2.346 . S
Ho368 O399 2.305 . S
Ho369 C380 2.811 . S
Ho369 O389 2.346 . S
Ho369 O393 2.305 . S
Ho369 O394 2.322 . S
Ho369 O396 2.378 . S
Ho369 O397 2.524 . S
Ho369 O398 2.381 . S
Ho369 O399 2.669 . S
C370 O388 1.259 . S
C370 O389 1.268 . S
C371 Ho368 2.811 . S
C371 C372 1.488 . S
C371 O390 1.215 . S
C371 O391 1.289 . S
C372 C371 1.488 . S
C372 C373 1.348 . S
C372 C377 1.413 . S
C373 C372 1.348 . S
C373 C374 1.442 . S
C373 H400 0.930 . S
C374 C373 1.442 . S
C374 C375 1.381 . S
C374 H401 0.931 . S
C375 C374 1.381 . S
C375 C376 1.321 . S
C376 C375 1.321 . S
C376 C377 1.403 . S
C376 H402 0.934 . S
C377 C372 1.413 . S
C377 C376 1.403 . S
C377 H403 0.930 . S
C378 O392 1.275 . S
C378 O393 1.256 . S
C379 O394 1.259 . S
C379 O395 1.268 . S
C380 Ho369 2.811 . S
C380 C381 1.488 . S
C380 O396 1.215 . S
C380 O397 1.289 . S
C381 C380 1.488 . S
C381 C382 1.348 . S
C381 C386 1.413 . S
C382 C381 1.348 . S
C382 C383 1.442 . S
C382 H404 0.930 . S
C383 C382 1.442 . S
C383 C384 1.381 . S
C383 H405 0.931 . S
C384 C383 1.381 . S
C384 C385 1.321 . S
C385 C384 1.321 . S
C385 C386 1.403 . S
C385 H406 0.934 . S
C386 C381 1.413 . S
C386 C385 1.403 . S
C386 H407 0.930 . S
C387 O398 1.275 . S
C387 O399 1.256 . S
O388 Ho368 2.322 . S
O388 C370 1.259 . S
O389 Ho369 2.346 . S
O389 C370 1.268 . S
O390 Ho368 2.378 . S
O390 C371 1.215 . S
O391 Ho368 2.524 . S
O391 C371 1.289 . S
O392 Ho368 2.381 . S
O392 C378 1.275 . S
O393 Ho368 2.669 . S
O393 Ho369 2.305 . S
O393 C378 1.256 . S
O394 Ho369 2.322 . S
O394 C379 1.259 . S
O395 Ho368 2.346 . S
O395 C379 1.268 . S
O396 Ho369 2.378 . S
O396 C380 1.215 . S
O397 Ho369 2.524 . S
O397 C380 1.289 . S
O398 Ho369 2.381 . S
O398 C387 1.275 . S
O399 Ho368 2.305 . S
O399 Ho369 2.669 . S
O399 C387 1.256 . S
H400 C373 0.930 . S
H401 C374 0.931 . S
H402 C376 0.934 . S
H403 C377 0.930 . S
H404 C382 0.930 . S
H405 C383 0.931 . S
H406 C385 0.934 . S
H407 C386 0.930 . S
Ho408 C411 2.811 . S
Ho408 O428 2.322 . S
Ho408 O430 2.378 . S
Ho408 O431 2.524 . S
Ho408 O432 2.381 1_455 S
Ho408 O433 2.669 1_455 S
Ho408 O435 2.364 1_455 S
Ho408 O439 2.305 1_554 S
Ho409 C420 2.811 1_455 S
Ho409 O429 2.346 1_556 S
Ho409 O433 2.305 1_456 S
Ho409 O434 2.322 1_455 S
Ho409 O436 2.378 1_455 S
Ho409 O437 2.524 1_455 S
Ho409 O438 2.381 . S
Ho409 O439 2.669 . S
C410 O428 1.259 . S
C410 O429 1.268 . S
C411 Ho408 2.811 . S
C411 C412 1.488 . S
C411 O430 1.215 . S
C411 O431 1.289 . S
C412 C411 1.488 . S
C412 C413 1.348 . S
C412 C417 1.413 . S
C413 C412 1.348 . S
C413 C414 1.442 . S
C413 H440 0.930 . S
C414 C413 1.442 . S
C414 C415 1.381 . S
C414 H441 0.931 . S
C415 C414 1.381 . S
C415 C416 1.321 . S
C416 C415 1.321 . S
C416 C417 1.403 . S
C416 H442 0.934 . S
C417 C412 1.413 . S
C417 C416 1.403 . S
C417 H443 0.930 . S
C418 O432 1.275 . S
C418 O433 1.256 . S
C419 O434 1.259 . S
C419 O435 1.244 1_556 S
C420 Ho409 2.811 1_655 S
C420 C421 1.488 . S
C420 O436 1.215 . S
C420 O437 1.289 . S
C421 C420 1.488 . S
C421 C422 1.348 . S
C421 C426 1.413 . S
C422 C421 1.348 . S
C422 C423 1.442 . S
C422 H444 0.930 . S
C423 C422 1.442 . S
C423 C424 1.381 . S
C423 H445 0.931 . S
C424 C423 1.381 . S
C424 C425 1.321 . S
C425 C424 1.321 . S
C425 C426 1.403 . S
C425 H446 0.934 . S
C426 C421 1.413 . S
C426 C425 1.403 . S
C426 H447 0.930 . S
C427 O438 1.275 . S
C427 O439 1.256 . S
O428 Ho408 2.322 . S
O428 C410 1.259 . S
O429 Ho409 2.346 1_554 S
O429 C410 1.268 . S
O430 Ho408 2.378 . S
O430 C411 1.215 . S
O431 Ho408 2.524 . S
O431 C411 1.289 . S
O432 Ho408 2.381 1_655 S
O432 C418 1.275 . S
O433 Ho408 2.669 1_655 S
O433 Ho409 2.305 1_654 S
O433 C418 1.256 . S
O434 Ho409 2.322 1_655 S
O434 C419 1.259 . S
O435 Ho408 2.364 1_655 S
O435 C419 1.244 1_554 S
O436 Ho409 2.378 1_655 S
O436 C420 1.215 . S
O437 Ho409 2.524 1_655 S
O437 C420 1.289 . S
O438 Ho409 2.381 . S
O438 C427 1.275 . S
O439 Ho408 2.305 1_556 S
O439 Ho409 2.669 . S
O439 C427 1.256 . S
H440 C413 0.930 . S
H441 C414 0.931 . S
H442 C416 0.934 . S
H443 C417 0.930 . S
H444 C422 0.930 . S
H445 C423 0.931 . S
H446 C425 0.934 . S
H447 C426 0.930 . S
H448 C466 0.951 . S
H449 C468 0.951 . S
H450 C470 0.950 . S
H451 C471 0.950 . S
H452 C473 0.950 . S
H453 C476 0.950 . S
H454 C477 0.950 . S
H455 C479 0.950 . S
H456 C480 0.950 . S
H457 C481 0.951 . S
H458 C483 0.951 . S
H459 C485 0.950 . S
H460 C486 0.950 . S
H461 C488 0.950 . S
H462 C491 0.950 . S
H463 C492 0.950 . S
H464 C494 0.950 . S
H465 C495 0.950 . S
C466 H448 0.951 . S
C466 C467 1.366 . S
C466 C468 1.388 . S
C467 C466 1.366 . S
C467 C471 1.385 . S
C468 H449 0.951 . S
C468 C466 1.388 . S
C468 C469 1.366 . S
C469 C468 1.366 . S
C469 C470 1.414 . S
C469 C472 1.499 . S
C470 H450 0.950 . S
C470 C469 1.414 . S
C470 C471 1.374 . S
C471 H451 0.950 . S
C471 C467 1.385 . S
C471 C470 1.374 . S
C472 C469 1.499 . S
C472 C473 1.373 . S
C472 C474 1.389 . S
C473 H452 0.950 . S
C473 C472 1.373 . S
C473 C489 1.377 . S
C474 C472 1.389 . S
C474 C475 1.524 . S
C474 C488 1.377 . S
C475 C474 1.524 . S
C475 C476 1.397 . S
C475 C480 1.363 . S
C476 H453 0.950 . S
C476 C475 1.397 . S
C476 C477 1.334 . S
C477 H454 0.950 . S
C477 C476 1.334 . S
C477 C478 1.287 . S
C478 C477 1.287 . S
C478 C479 1.524 . S
C478 H497 0.913 . S
C479 H455 0.950 . S
C479 C478 1.524 . S
C479 C480 1.415 . S
C480 H456 0.950 . S
C480 C475 1.363 . S
C480 C479 1.415 . S
C481 H457 0.951 . S
C481 C482 1.366 . S
C481 C483 1.388 . S
C482 C481 1.366 . S
C482 C486 1.385 . S
C483 H458 0.951 . S
C483 C481 1.388 . S
C483 C484 1.366 . S
C484 C483 1.366 . S
C484 C485 1.414 . S
C484 C487 1.499 . S
C485 H459 0.950 . S
C485 C484 1.414 . S
C485 C486 1.374 . S
C486 H460 0.950 . S
C486 C482 1.385 . S
C486 C485 1.374 . S
C487 C484 1.499 . S
C487 C488 1.373 . S
C487 C489 1.389 . S
C488 H461 0.950 . S
C488 C474 1.377 . S
C488 C487 1.373 . S
C489 C473 1.377 . S
C489 C487 1.389 . S
C489 C490 1.524 . S
C490 C489 1.524 . S
C490 C491 1.397 . S
C490 C495 1.363 . S
C491 H462 0.950 . S
C491 C490 1.397 . S
C491 C492 1.334 . S
C492 H463 0.950 . S
C492 C491 1.334 . S
C492 C493 1.287 . S
C493 C492 1.287 . S
C493 C494 1.524 . S
C493 H496 0.999 . S
C494 H464 0.950 . S
C494 C493 1.524 . S
C494 C495 1.415 . S
C495 H465 0.950 . S
C495 C490 1.363 . S
C495 C494 1.415 . S
H496 C493 0.999 . S
H497 C478 0.913 . S
H498 C516 0.951 . S
H499 C518 0.951 . S
H500 C520 0.950 . S
H501 C521 0.950 . S
H502 C523 0.950 . S
H503 C526 0.950 . S
H504 C527 0.950 . S
H505 C529 0.950 . S
H506 C530 0.950 . S
H507 C531 0.951 . S
H508 C533 0.951 . S
H509 C535 0.950 . S
H510 C536 0.950 . S
H511 C538 0.950 . S
H512 C541 0.950 . S
H513 C542 0.950 . S
H514 C544 0.950 . S
H515 C545 0.950 . S
C516 H498 0.951 . S
C516 C517 1.366 . S
C516 C518 1.388 . S
C517 C516 1.366 . S
C517 C521 1.385 . S
C518 H499 0.951 . S
C518 C516 1.388 . S
C518 C519 1.366 . S
C519 C518 1.366 . S
C519 C520 1.414 . S
C519 C522 1.499 . S
C520 H500 0.950 . S
C520 C519 1.414 . S
C520 C521 1.374 . S
C521 H501 0.950 . S
C521 C517 1.385 . S
C521 C520 1.374 . S
C522 C519 1.499 . S
C522 C523 1.373 . S
C522 C524 1.389 . S
C523 H502 0.950 . S
C523 C522 1.373 . S
C523 C539 1.377 . S
C524 C522 1.389 . S
C524 C525 1.524 . S
C524 C538 1.377 . S
C525 C524 1.524 . S
C525 C526 1.397 . S
C525 C530 1.363 . S
C526 H503 0.950 . S
C526 C525 1.397 . S
C526 C527 1.334 . S
C527 H504 0.950 . S
C527 C526 1.334 . S
C527 C528 1.287 . S
C528 C527 1.287 . S
C528 C529 1.524 . S
C528 H547 0.913 . S
C529 H505 0.950 . S
C529 C528 1.524 . S
C529 C530 1.415 . S
C530 H506 0.950 . S
C530 C525 1.363 . S
C530 C529 1.415 . S
C531 H507 0.951 . S
C531 C532 1.366 . S
C531 C533 1.388 . S
C532 C531 1.366 . S
C532 C536 1.385 . S
C533 H508 0.951 . S
C533 C531 1.388 . S
C533 C534 1.366 . S
C534 C533 1.366 . S
C534 C535 1.414 . S
C534 C537 1.499 . S
C535 H509 0.950 . S
C535 C534 1.414 . S
C535 C536 1.374 . S
C536 H510 0.950 . S
C536 C532 1.385 . S
C536 C535 1.374 . S
C537 C534 1.499 . S
C537 C538 1.373 . S
C537 C539 1.389 . S
C538 H511 0.950 . S
C538 C524 1.377 . S
C538 C537 1.373 . S
C539 C523 1.377 . S
C539 C537 1.389 . S
C539 C540 1.524 . S
C540 C539 1.524 . S
C540 C541 1.397 . S
C540 C545 1.363 . S
C541 H512 0.950 . S
C541 C540 1.397 . S
C541 C542 1.334 . S
C542 H513 0.950 . S
C542 C541 1.334 . S
C542 C543 1.287 . S
C543 C542 1.287 . S
C543 C544 1.524 . S
C543 H546 0.999 . S
C544 H514 0.950 . S
C544 C543 1.524 . S
C544 C545 1.415 . S
C545 H515 0.950 . S
C545 C540 1.363 . S
C545 C544 1.415 . S
H546 C543 0.999 . S
H547 C528 0.913 . S
H548 C566 0.951 . S
H549 C568 0.951 . S
H550 C570 0.950 . S
H551 C571 0.950 . S
H552 C573 0.950 . S
H553 C576 0.950 . S
H554 C577 0.950 . S
H555 C579 0.950 . S
H556 C580 0.950 . S
H557 C581 0.951 . S
H558 C583 0.951 . S
H559 C585 0.950 . S
H560 C586 0.950 . S
H561 C588 0.950 . S
H562 C591 0.950 . S
H563 C592 0.950 . S
H564 C594 0.950 . S
H565 C595 0.950 . S
C566 H548 0.951 . S
C566 C567 1.366 . S
C566 C568 1.388 . S
C567 C566 1.366 . S
C567 C571 1.385 . S
C568 H549 0.951 . S
C568 C566 1.388 . S
C568 C569 1.366 . S
C569 C568 1.366 . S
C569 C570 1.414 . S
C569 C572 1.499 . S
C570 H550 0.950 . S
C570 C569 1.414 . S
C570 C571 1.374 . S
C571 H551 0.950 . S
C571 C567 1.385 . S
C571 C570 1.374 . S
C572 C569 1.499 . S
C572 C573 1.373 . S
C572 C574 1.389 . S
C573 H552 0.950 . S
C573 C572 1.373 . S
C573 C589 1.377 . S
C574 C572 1.389 . S
C574 C575 1.524 . S
C574 C588 1.377 . S
C575 C574 1.524 . S
C575 C576 1.397 . S
C575 C580 1.363 . S
C576 H553 0.950 . S
C576 C575 1.397 . S
C576 C577 1.334 . S
C577 H554 0.950 . S
C577 C576 1.334 . S
C577 C578 1.287 . S
C578 C577 1.287 . S
C578 C579 1.524 . S
C578 H597 0.913 . S
C579 H555 0.950 . S
C579 C578 1.524 . S
C579 C580 1.415 . S
C580 H556 0.950 . S
C580 C575 1.363 . S
C580 C579 1.415 . S
C581 H557 0.951 . S
C581 C582 1.366 . S
C581 C583 1.388 . S
C582 C581 1.366 . S
C582 C586 1.385 . S
C583 H558 0.951 . S
C583 C581 1.388 . S
C583 C584 1.366 . S
C584 C583 1.366 . S
C584 C585 1.414 . S
C584 C587 1.499 . S
C585 H559 0.950 . S
C585 C584 1.414 . S
C585 C586 1.374 . S
C586 H560 0.950 . S
C586 C582 1.385 . S
C586 C585 1.374 . S
C587 C584 1.499 . S
C587 C588 1.373 . S
C587 C589 1.389 . S
C588 H561 0.950 . S
C588 C574 1.377 . S
C588 C587 1.373 . S
C589 C573 1.377 . S
C589 C587 1.389 . S
C589 C590 1.524 . S
C590 C589 1.524 . S
C590 C591 1.397 . S
C590 C595 1.363 . S
C591 H562 0.950 . S
C591 C590 1.397 . S
C591 C592 1.334 . S
C592 H563 0.950 . S
C592 C591 1.334 . S
C592 C593 1.287 . S
C593 C592 1.287 . S
C593 C594 1.524 . S
C593 H596 0.999 . S
C594 H564 0.950 . S
C594 C593 1.524 . S
C594 C595 1.415 . S
C595 H565 0.950 . S
C595 C590 1.363 . S
C595 C594 1.415 . S
H596 C593 0.999 . S
H597 C578 0.913 . S
H598 C616 0.951 . S
H599 C618 0.951 . S
H600 C620 0.950 . S
H601 C621 0.950 . S
H602 C623 0.950 . S
H603 C626 0.950 . S
H604 C627 0.950 . S
H605 C629 0.950 . S
H606 C630 0.950 . S
H607 C631 0.951 . S
H608 C633 0.951 . S
H609 C635 0.950 . S
H610 C636 0.950 . S
H611 C638 0.950 . S
H612 C641 0.950 . S
H613 C642 0.950 1_455 S
H614 C644 0.950 . S
H615 C645 0.950 . S
C616 H598 0.951 . S
C616 C617 1.366 . S
C616 C618 1.388 . S
C617 C616 1.366 . S
C617 C621 1.385 . S
C618 H599 0.951 . S
C618 C616 1.388 . S
C618 C619 1.366 . S
C619 C618 1.366 . S
C619 C620 1.414 . S
C619 C622 1.499 . S
C620 H600 0.950 . S
C620 C619 1.414 . S
C620 C621 1.374 . S
C621 H601 0.950 . S
C621 C617 1.385 . S
C621 C620 1.374 . S
C622 C619 1.499 . S
C622 C623 1.373 . S
C622 C624 1.389 . S
C623 H602 0.950 . S
C623 C622 1.373 . S
C623 C639 1.377 . S
C624 C622 1.389 . S
C624 C625 1.524 . S
C624 C638 1.377 . S
C625 C624 1.524 . S
C625 C626 1.397 . S
C625 C630 1.363 . S
C626 H603 0.950 . S
C626 C625 1.397 . S
C626 C627 1.334 . S
C627 H604 0.950 . S
C627 C626 1.334 . S
C627 C628 1.287 . S
C628 C627 1.287 . S
C628 C629 1.524 . S
C628 H647 0.913 . S
C629 H605 0.950 . S
C629 C628 1.524 . S
C629 C630 1.415 . S
C630 H606 0.950 . S
C630 C625 1.363 . S
C630 C629 1.415 . S
C631 H607 0.951 . S
C631 C632 1.366 . S
C631 C633 1.388 . S
C632 C631 1.366 . S
C632 C636 1.385 . S
C633 H608 0.951 . S
C633 C631 1.388 . S
C633 C634 1.366 . S
C634 C633 1.366 . S
C634 C635 1.414 . S
C634 C637 1.499 . S
C635 H609 0.950 . S
C635 C634 1.414 . S
C635 C636 1.374 . S
C636 H610 0.950 . S
C636 C632 1.385 . S
C636 C635 1.374 . S
C637 C634 1.499 . S
C637 C638 1.373 . S
C637 C639 1.389 . S
C638 H611 0.950 . S
C638 C624 1.377 . S
C638 C637 1.373 . S
C639 C623 1.377 . S
C639 C637 1.389 . S
C639 C640 1.524 . S
C640 C639 1.524 . S
C640 C641 1.397 . S
C640 C645 1.363 . S
C641 H612 0.950 . S
C641 C640 1.397 . S
C641 C642 1.334 . S
C642 H613 0.950 1_655 S
C642 C641 1.334 . S
C642 C643 1.287 . S
C643 C642 1.287 . S
C643 C644 1.524 . S
C643 H646 0.999 . S
C644 H614 0.950 . S
C644 C643 1.524 . S
C644 C645 1.415 . S
C645 H615 0.950 . S
C645 C640 1.363 . S
C645 C644 1.415 . S
H646 C643 0.999 . S
H647 C628 0.913 . S
H648 C666 0.951 . S
H649 C668 0.951 . S
H650 C670 0.950 . S
H651 C671 0.950 . S
H652 C673 0.950 . S
H653 C676 0.950 . S
H654 C677 0.950 . S
H655 C679 0.950 . S
H656 C680 0.950 . S
H657 C681 0.951 . S
H658 C683 0.951 . S
H659 C685 0.950 . S
H660 C686 0.950 . S
H661 C688 0.950 . S
H662 C691 0.950 . S
H663 C692 0.950 . S
H664 C694 0.950 . S
H665 C695 0.950 . S
C666 H648 0.951 . S
C666 C667 1.366 . S
C666 C668 1.388 . S
C667 C666 1.366 . S
C667 C671 1.385 . S
C668 H649 0.951 . S
C668 C666 1.388 . S
C668 C669 1.366 . S
C669 C668 1.366 . S
C669 C670 1.414 . S
C669 C672 1.499 . S
C670 H650 0.950 . S
C670 C669 1.414 . S
C670 C671 1.374 . S
C671 H651 0.950 . S
C671 C667 1.385 . S
C671 C670 1.374 . S
C672 C669 1.499 . S
C672 C673 1.373 . S
C672 C674 1.389 . S
C673 H652 0.950 . S
C673 C672 1.373 . S
C673 C689 1.377 . S
C674 C672 1.389 . S
C674 C675 1.524 . S
C674 C688 1.377 . S
C675 C674 1.524 . S
C675 C676 1.397 . S
C675 C680 1.363 . S
C676 H653 0.950 . S
C676 C675 1.397 . S
C676 C677 1.334 . S
C677 H654 0.950 . S
C677 C676 1.334 . S
C677 C678 1.287 . S
C678 C677 1.287 . S
C678 C679 1.524 . S
C678 H697 0.913 . S
C679 H655 0.950 . S
C679 C678 1.524 . S
C679 C680 1.415 . S
C680 H656 0.950 . S
C680 C675 1.363 . S
C680 C679 1.415 . S
C681 H657 0.951 . S
C681 C682 1.366 . S
C681 C683 1.388 . S
C682 C681 1.366 . S
C682 C686 1.385 . S
C683 H658 0.951 . S
C683 C681 1.388 . S
C683 C684 1.366 . S
C684 C683 1.366 . S
C684 C685 1.414 . S
C684 C687 1.499 . S
C685 H659 0.950 . S
C685 C684 1.414 . S
C685 C686 1.374 . S
C686 H660 0.950 . S
C686 C682 1.385 . S
C686 C685 1.374 . S
C687 C684 1.499 . S
C687 C688 1.373 . S
C687 C689 1.389 . S
C688 H661 0.950 . S
C688 C674 1.377 . S
C688 C687 1.373 . S
C689 C673 1.377 . S
C689 C687 1.389 . S
C689 C690 1.524 . S
C690 C689 1.524 . S
C690 C691 1.397 . S
C690 C695 1.363 . S
C691 H662 0.950 . S
C691 C690 1.397 . S
C691 C692 1.334 . S
C692 H663 0.950 . S
C692 C691 1.334 . S
C692 C693 1.287 . S
C693 C692 1.287 . S
C693 C694 1.524 . S
C693 H696 0.999 . S
C694 H664 0.950 . S
C694 C693 1.524 . S
C694 C695 1.415 . S
C695 H665 0.950 . S
C695 C690 1.363 . S
C695 C694 1.415 . S
H696 C693 0.999 . S
H697 C678 0.913 . S
H698 C716 0.951 . S
H699 C718 0.951 . S
H700 C720 0.950 . S
H701 C721 0.950 . S
H702 C723 0.950 . S
H703 C726 0.950 . S
H704 C727 0.950 . S
H705 C729 0.950 . S
H706 C730 0.950 . S
H707 C731 0.951 . S
H708 C733 0.951 . S
H709 C735 0.950 . S
H710 C736 0.950 . S
H711 C738 0.950 . S
H712 C741 0.950 . S
H713 C742 0.950 . S
H714 C744 0.950 . S
H715 C745 0.950 . S
C716 H698 0.951 . S
C716 C717 1.366 . S
C716 C718 1.388 . S
C717 C716 1.366 . S
C717 C721 1.385 . S
C718 H699 0.951 . S
C718 C716 1.388 . S
C718 C719 1.366 . S
C719 C718 1.366 . S
C719 C720 1.414 . S
C719 C722 1.499 . S
C720 H700 0.950 . S
C720 C719 1.414 . S
C720 C721 1.374 . S
C721 H701 0.950 . S
C721 C717 1.385 . S
C721 C720 1.374 . S
C722 C719 1.499 . S
C722 C723 1.373 . S
C722 C724 1.389 . S
C723 H702 0.950 . S
C723 C722 1.373 . S
C723 C739 1.377 . S
C724 C722 1.389 . S
C724 C725 1.524 . S
C724 C738 1.377 . S
C725 C724 1.524 . S
C725 C726 1.397 . S
C725 C730 1.363 . S
C726 H703 0.950 . S
C726 C725 1.397 . S
C726 C727 1.334 . S
C727 H704 0.950 . S
C727 C726 1.334 . S
C727 C728 1.287 . S
C728 C727 1.287 . S
C728 C729 1.524 . S
C728 H747 0.913 . S
C729 H705 0.950 . S
C729 C728 1.524 . S
C729 C730 1.415 . S
C730 H706 0.950 . S
C730 C725 1.363 . S
C730 C729 1.415 . S
C731 H707 0.951 . S
C731 C732 1.366 . S
C731 C733 1.388 . S
C732 C731 1.366 . S
C732 C736 1.385 . S
C733 H708 0.951 . S
C733 C731 1.388 . S
C733 C734 1.366 . S
C734 C733 1.366 . S
C734 C735 1.414 . S
C734 C737 1.499 . S
C735 H709 0.950 . S
C735 C734 1.414 . S
C735 C736 1.374 . S
C736 H710 0.950 . S
C736 C732 1.385 . S
C736 C735 1.374 . S
C737 C734 1.499 . S
C737 C738 1.373 . S
C737 C739 1.389 . S
C738 H711 0.950 . S
C738 C724 1.377 . S
C738 C737 1.373 . S
C739 C723 1.377 . S
C739 C737 1.389 . S
C739 C740 1.524 . S
C740 C739 1.524 . S
C740 C741 1.397 . S
C740 C745 1.363 . S
C741 H712 0.950 . S
C741 C740 1.397 . S
C741 C742 1.334 . S
C742 H713 0.950 . S
C742 C741 1.334 . S
C742 C743 1.287 . S
C743 C742 1.287 . S
C743 C744 1.524 . S
C743 H746 0.999 . S
C744 H714 0.950 . S
C744 C743 1.524 . S
C744 C745 1.415 . S
C745 H715 0.950 . S
C745 C740 1.363 . S
C745 C744 1.415 . S
H746 C743 0.999 . S
H747 C728 0.913 . S
H748 C766 0.951 . S
H749 C768 0.951 . S
H750 C770 0.950 . S
H751 C771 0.950 . S
H752 C773 0.950 . S
H753 C776 0.950 . S
H754 C777 0.950 . S
H755 C779 0.950 . S
H756 C780 0.950 . S
H757 C781 0.951 . S
H758 C783 0.951 . S
H759 C785 0.950 . S
H760 C786 0.950 . S
H761 C788 0.950 . S
H762 C791 0.950 . S
H763 C792 0.950 . S
H764 C794 0.950 . S
H765 C795 0.950 . S
C766 H748 0.951 . S
C766 C767 1.366 . S
C766 C768 1.388 . S
C767 C766 1.366 . S
C767 C771 1.385 . S
C768 H749 0.951 . S
C768 C766 1.388 . S
C768 C769 1.366 . S
C769 C768 1.366 . S
C769 C770 1.414 . S
C769 C772 1.499 . S
C770 H750 0.950 . S
C770 C769 1.414 . S
C770 C771 1.374 . S
C771 H751 0.950 . S
C771 C767 1.385 . S
C771 C770 1.374 . S
C772 C769 1.499 . S
C772 C773 1.373 . S
C772 C774 1.389 . S
C773 H752 0.950 . S
C773 C772 1.373 . S
C773 C789 1.377 . S
C774 C772 1.389 . S
C774 C775 1.524 . S
C774 C788 1.377 . S
C775 C774 1.524 . S
C775 C776 1.397 . S
C775 C780 1.363 . S
C776 H753 0.950 . S
C776 C775 1.397 . S
C776 C777 1.334 . S
C777 H754 0.950 . S
C777 C776 1.334 . S
C777 C778 1.287 . S
C778 C777 1.287 . S
C778 C779 1.524 . S
C778 H797 0.913 . S
C779 H755 0.950 . S
C779 C778 1.524 . S
C779 C780 1.415 . S
C780 H756 0.950 . S
C780 C775 1.363 . S
C780 C779 1.415 . S
C781 H757 0.951 . S
C781 C782 1.366 . S
C781 C783 1.388 . S
C782 C781 1.366 . S
C782 C786 1.385 . S
C783 H758 0.951 . S
C783 C781 1.388 . S
C783 C784 1.366 . S
C784 C783 1.366 . S
C784 C785 1.414 . S
C784 C787 1.499 . S
C785 H759 0.950 . S
C785 C784 1.414 . S
C785 C786 1.374 . S
C786 H760 0.950 . S
C786 C782 1.385 . S
C786 C785 1.374 . S
C787 C784 1.499 . S
C787 C788 1.373 . S
C787 C789 1.389 . S
C788 H761 0.950 . S
C788 C774 1.377 . S
C788 C787 1.373 . S
C789 C773 1.377 . S
C789 C787 1.389 . S
C789 C790 1.524 . S
C790 C789 1.524 . S
C790 C791 1.397 . S
C790 C795 1.363 . S
C791 H762 0.950 . S
C791 C790 1.397 . S
C791 C792 1.334 1_556 S
C792 H763 0.950 . S
C792 C791 1.334 1_554 S
C792 C793 1.287 . S
C793 C792 1.287 . S
C793 C794 1.524 . S
C793 H796 0.999 . S
C794 H764 0.950 . S
C794 C793 1.524 . S
C794 C795 1.415 1_554 S
C795 H765 0.950 . S
C795 C790 1.363 . S
C795 C794 1.415 1_556 S
H796 C793 0.999 . S
H797 C778 0.913 . S
H798 C816 0.951 . S
H799 C818 0.951 . S
H800 C820 0.950 . S
H801 C821 0.950 . S
H802 C823 0.950 . S
H803 C826 0.950 . S
H804 C827 0.950 . S
H805 C829 0.950 . S
H806 C830 0.950 . S
H807 C831 0.951 . S
H808 C833 0.951 . S
H809 C835 0.950 . S
H810 C836 0.950 . S
H811 C838 0.950 . S
H812 C841 0.950 . S
H813 C842 0.950 . S
H814 C844 0.950 . S
H815 C845 0.950 . S
C816 H798 0.951 . S
C816 C817 1.366 . S
C816 C818 1.388 . S
C817 C816 1.366 . S
C817 C821 1.385 . S
C818 H799 0.951 . S
C818 C816 1.388 . S
C818 C819 1.366 . S
C819 C818 1.366 . S
C819 C820 1.414 . S
C819 C822 1.499 . S
C820 H800 0.950 . S
C820 C819 1.414 . S
C820 C821 1.374 . S
C821 H801 0.950 . S
C821 C817 1.385 . S
C821 C820 1.374 . S
C822 C819 1.499 . S
C822 C823 1.373 . S
C822 C824 1.389 . S
C823 H802 0.950 . S
C823 C822 1.373 . S
C823 C839 1.377 . S
C824 C822 1.389 . S
C824 C825 1.524 . S
C824 C838 1.377 . S
C825 C824 1.524 . S
C825 C826 1.397 . S
C825 C830 1.363 . S
C826 H803 0.950 . S
C826 C825 1.397 . S
C826 C827 1.334 . S
C827 H804 0.950 . S
C827 C826 1.334 . S
C827 C828 1.287 . S
C828 C827 1.287 . S
C828 C829 1.524 . S
C828 H847 0.913 . S
C829 H805 0.950 . S
C829 C828 1.524 . S
C829 C830 1.415 . S
C830 H806 0.950 . S
C830 C825 1.363 . S
C830 C829 1.415 . S
C831 H807 0.951 . S
C831 C832 1.366 . S
C831 C833 1.388 . S
C832 C831 1.366 . S
C832 C836 1.385 . S
C833 H808 0.951 . S
C833 C831 1.388 . S
C833 C834 1.366 . S
C834 C833 1.366 . S
C834 C835 1.414 . S
C834 C837 1.499 . S
C835 H809 0.950 . S
C835 C834 1.414 . S
C835 C836 1.374 . S
C836 H810 0.950 . S
C836 C832 1.385 . S
C836 C835 1.374 . S
C837 C834 1.499 . S
C837 C838 1.373 . S
C837 C839 1.389 . S
C838 H811 0.950 . S
C838 C824 1.377 . S
C838 C837 1.373 . S
C839 C823 1.377 . S
C839 C837 1.389 . S
C839 C840 1.524 . S
C840 C839 1.524 . S
C840 C841 1.397 . S
C840 C845 1.363 . S
C841 H812 0.950 . S
C841 C840 1.397 . S
C841 C842 1.334 . S
C842 H813 0.950 . S
C842 C841 1.334 . S
C842 C843 1.287 . S
C843 C842 1.287 . S
C843 C844 1.524 . S
C843 H846 0.999 . S
C844 H814 0.950 . S
C844 C843 1.524 . S
C844 C845 1.415 . S
C845 H815 0.950 . S
C845 C840 1.363 . S
C845 C844 1.415 . S
H846 C843 0.999 . S
H847 C828 0.913 . S
H848 C866 0.951 . S
H849 C868 0.951 . S
H850 C870 0.950 . S
H851 C871 0.950 . S
H852 C873 0.950 . S
H853 C876 0.950 . S
H854 C877 0.950 . S
H855 C879 0.950 . S
H856 C880 0.950 . S
H857 C881 0.951 . S
H858 C883 0.951 . S
H859 C885 0.950 . S
H860 C886 0.950 . S
H861 C888 0.950 . S
H862 C891 0.950 . S
H863 C892 0.950 . S
H864 C894 0.950 . S
H865 C895 0.950 . S
C866 H848 0.951 . S
C866 C867 1.366 . S
C866 C868 1.388 . S
C867 C866 1.366 . S
C867 C871 1.385 . S
C868 H849 0.951 . S
C868 C866 1.388 . S
C868 C869 1.366 . S
C869 C868 1.366 . S
C869 C870 1.414 . S
C869 C872 1.499 . S
C870 H850 0.950 . S
C870 C869 1.414 . S
C870 C871 1.374 . S
C871 H851 0.950 . S
C871 C867 1.385 . S
C871 C870 1.374 . S
C872 C869 1.499 . S
C872 C873 1.373 . S
C872 C874 1.389 . S
C873 H852 0.950 . S
C873 C872 1.373 . S
C873 C889 1.377 . S
C874 C872 1.389 . S
C874 C875 1.524 . S
C874 C888 1.377 . S
C875 C874 1.524 . S
C875 C876 1.397 . S
C875 C880 1.363 . S
C876 H853 0.950 . S
C876 C875 1.397 . S
C876 C877 1.334 . S
C877 H854 0.950 . S
C877 C876 1.334 . S
C877 C878 1.287 . S
C878 C877 1.287 . S
C878 C879 1.524 . S
C878 H897 0.913 . S
C879 H855 0.950 . S
C879 C878 1.524 . S
C879 C880 1.415 . S
C880 H856 0.950 . S
C880 C875 1.363 . S
C880 C879 1.415 . S
C881 H857 0.951 . S
C881 C882 1.366 . S
C881 C883 1.388 . S
C882 C881 1.366 . S
C882 C886 1.385 . S
C883 H858 0.951 . S
C883 C881 1.388 . S
C883 C884 1.366 . S
C884 C883 1.366 . S
C884 C885 1.414 . S
C884 C887 1.499 . S
C885 H859 0.950 . S
C885 C884 1.414 . S
C885 C886 1.374 . S
C886 H860 0.950 . S
C886 C882 1.385 . S
C886 C885 1.374 . S
C887 C884 1.499 . S
C887 C888 1.373 . S
C887 C889 1.389 . S
C888 H861 0.950 . S
C888 C874 1.377 . S
C888 C887 1.373 . S
C889 C873 1.377 . S
C889 C887 1.389 . S
C889 C890 1.524 . S
C890 C889 1.524 . S
C890 C891 1.397 . S
C890 C895 1.363 . S
C891 H862 0.950 . S
C891 C890 1.397 . S
C891 C892 1.334 . S
C892 H863 0.950 . S
C892 C891 1.334 . S
C892 C893 1.287 . S
C893 C892 1.287 . S
C893 C894 1.524 . S
C893 H896 0.999 . S
C894 H864 0.950 . S
C894 C893 1.524 . S
C894 C895 1.415 . S
C895 H865 0.950 . S
C895 C890 1.363 . S
C895 C894 1.415 . S
H896 C893 0.999 . S
H897 C878 0.913 . S
H898 C916 0.951 . S
H899 C918 0.951 . S
H900 C920 0.950 . S
H901 C921 0.950 . S
H902 C923 0.950 . S
H903 C926 0.950 . S
H904 C927 0.950 . S
H905 C929 0.950 . S
H906 C930 0.950 . S
H907 C931 0.951 . S
H908 C933 0.951 . S
H909 C935 0.950 . S
H910 C936 0.950 . S
H911 C938 0.950 . S
H912 C941 0.950 . S
H913 C942 0.950 . S
H914 C944 0.950 . S
H915 C945 0.950 . S
C916 H898 0.951 . S
C916 C917 1.366 . S
C916 C918 1.388 . S
C917 C916 1.366 . S
C917 C921 1.385 . S
C918 H899 0.951 . S
C918 C916 1.388 . S
C918 C919 1.366 . S
C919 C918 1.366 . S
C919 C920 1.414 . S
C919 C922 1.499 . S
C920 H900 0.950 . S
C920 C919 1.414 . S
C920 C921 1.374 . S
C921 H901 0.950 . S
C921 C917 1.385 . S
C921 C920 1.374 . S
C922 C919 1.499 . S
C922 C923 1.373 . S
C922 C924 1.389 . S
C923 H902 0.950 . S
C923 C922 1.373 . S
C923 C939 1.377 . S
C924 C922 1.389 . S
C924 C925 1.524 . S
C924 C938 1.377 . S
C925 C924 1.524 . S
C925 C926 1.397 . S
C925 C930 1.363 . S
C926 H903 0.950 . S
C926 C925 1.397 . S
C926 C927 1.334 . S
C927 H904 0.950 . S
C927 C926 1.334 . S
C927 C928 1.287 . S
C928 C927 1.287 . S
C928 C929 1.524 . S
C928 H947 0.913 . S
C929 H905 0.950 . S
C929 C928 1.524 . S
C929 C930 1.415 . S
C930 H906 0.950 . S
C930 C925 1.363 . S
C930 C929 1.415 . S
C931 H907 0.951 . S
C931 C932 1.366 . S
C931 C933 1.388 . S
C932 C931 1.366 . S
C932 C936 1.385 . S
C933 H908 0.951 . S
C933 C931 1.388 . S
C933 C934 1.366 . S
C934 C933 1.366 . S
C934 C935 1.414 . S
C934 C937 1.499 . S
C935 H909 0.950 . S
C935 C934 1.414 . S
C935 C936 1.374 . S
C936 H910 0.950 . S
C936 C932 1.385 . S
C936 C935 1.374 . S
C937 C934 1.499 . S
C937 C938 1.373 . S
C937 C939 1.389 . S
C938 H911 0.950 . S
C938 C924 1.377 . S
C938 C937 1.373 . S
C939 C923 1.377 . S
C939 C937 1.389 . S
C939 C940 1.524 . S
C940 C939 1.524 . S
C940 C941 1.397 . S
C940 C945 1.363 . S
C941 H912 0.950 . S
C941 C940 1.397 . S
C941 C942 1.334 . S
C942 H913 0.950 . S
C942 C941 1.334 . S
C942 C943 1.287 . S
C943 C942 1.287 . S
C943 C944 1.524 . S
C943 H946 0.999 . S
C944 H914 0.950 . S
C944 C943 1.524 . S
C944 C945 1.415 . S
C945 H915 0.950 . S
C945 C940 1.363 . S
C945 C944 1.415 . S
H946 C943 0.999 . S
H947 C928 0.913 . S
H948 C966 0.951 . S
H949 C968 0.951 . S
H950 C970 0.950 . S
H951 C971 0.950 . S
H952 C973 0.950 . S
H953 C976 0.950 . S
H954 C977 0.950 . S
H955 C979 0.950 . S
H956 C980 0.950 . S
H957 C981 0.951 . S
H958 C983 0.951 . S
H959 C985 0.950 . S
H960 C986 0.950 . S
H961 C988 0.950 . S
H962 C991 0.950 . S
H963 C992 0.950 . S
H964 C994 0.950 . S
H965 C995 0.950 . S
C966 H948 0.951 . S
C966 C967 1.366 . S
C966 C968 1.388 . S
C967 C966 1.366 . S
C967 C971 1.385 . S
C968 H949 0.951 . S
C968 C966 1.388 . S
C968 C969 1.366 . S
C969 C968 1.366 . S
C969 C970 1.414 . S
C969 C972 1.499 . S
C970 H950 0.950 . S
C970 C969 1.414 . S
C970 C971 1.374 . S
C971 H951 0.950 . S
C971 C967 1.385 . S
C971 C970 1.374 . S
C972 C969 1.499 . S
C972 C973 1.373 . S
C972 C974 1.389 . S
C973 H952 0.950 . S
C973 C972 1.373 . S
C973 C989 1.377 . S
C974 C972 1.389 . S
C974 C975 1.524 . S
C974 C988 1.377 . S
C975 C974 1.524 . S
C975 C976 1.397 . S
C975 C980 1.363 . S
C976 H953 0.950 . S
C976 C975 1.397 . S
C976 C977 1.334 . S
C977 H954 0.950 . S
C977 C976 1.334 . S
C977 C978 1.287 . S
C978 C977 1.287 . S
C978 C979 1.524 . S
C978 H997 0.913 . S
C979 H955 0.950 . S
C979 C978 1.524 . S
C979 C980 1.415 . S
C980 H956 0.950 . S
C980 C975 1.363 . S
C980 C979 1.415 . S
C981 H957 0.951 . S
C981 C982 1.366 . S
C981 C983 1.388 . S
C982 C981 1.366 . S
C982 C986 1.385 . S
C983 H958 0.951 . S
C983 C981 1.388 . S
C983 C984 1.366 . S
C984 C983 1.366 . S
C984 C985 1.414 . S
C984 C987 1.499 . S
C985 H959 0.950 . S
C985 C984 1.414 . S
C985 C986 1.374 . S
C986 H960 0.950 . S
C986 C982 1.385 . S
C986 C985 1.374 . S
C987 C984 1.499 . S
C987 C988 1.373 . S
C987 C989 1.389 . S
C988 H961 0.950 . S
C988 C974 1.377 . S
C988 C987 1.373 . S
C989 C973 1.377 . S
C989 C987 1.389 . S
C989 C990 1.524 . S
C990 C989 1.524 . S
C990 C991 1.397 . S
C990 C995 1.363 . S
C991 H962 0.950 . S
C991 C990 1.397 . S
C991 C992 1.334 . S
C992 H963 0.950 . S
C992 C991 1.334 . S
C992 C993 1.287 . S
C993 C992 1.287 . S
C993 C994 1.524 . S
C993 H996 0.999 . S
C994 H964 0.950 . S
C994 C993 1.524 . S
C994 C995 1.415 . S
C995 H965 0.950 . S
C995 C990 1.363 . S
C995 C994 1.415 . S
H996 C993 0.999 . S
H997 C978 0.913 . S
H998 C1016 0.951 . S
H999 C1018 0.951 . S
H1000 C1020 0.950 . S
H1001 C1021 0.950 . S
H1002 C1023 0.950 . S
H1003 C1026 0.950 . S
H1004 C1027 0.950 . S
H1005 C1029 0.950 . S
H1006 C1030 0.950 . S
H1007 C1031 0.951 . S
H1008 C1033 0.951 . S
H1009 C1035 0.950 . S
H1010 C1036 0.950 . S
H1011 C1038 0.950 . S
H1012 C1041 0.950 . S
H1013 C1042 0.950 . S
H1014 C1044 0.950 . S
H1015 C1045 0.950 . S
C1016 H998 0.951 . S
C1016 C1017 1.366 . S
C1016 C1018 1.388 . S
C1017 C1016 1.366 . S
C1017 C1021 1.385 . S
C1018 H999 0.951 . S
C1018 C1016 1.388 . S
C1018 C1019 1.366 . S
C1019 C1018 1.366 . S
C1019 C1020 1.414 . S
C1019 C1022 1.499 . S
C1020 H1000 0.950 . S
C1020 C1019 1.414 . S
C1020 C1021 1.374 . S
C1021 H1001 0.950 . S
C1021 C1017 1.385 . S
C1021 C1020 1.374 . S
C1022 C1019 1.499 . S
C1022 C1023 1.373 . S
C1022 C1024 1.389 . S
C1023 H1002 0.950 . S
C1023 C1022 1.373 . S
C1023 C1039 1.377 . S
C1024 C1022 1.389 . S
C1024 C1025 1.524 . S
C1024 C1038 1.377 . S
C1025 C1024 1.524 . S
C1025 C1026 1.397 . S
C1025 C1030 1.363 . S
C1026 H1003 0.950 . S
C1026 C1025 1.397 . S
C1026 C1027 1.334 . S
C1027 H1004 0.950 . S
C1027 C1026 1.334 . S
C1027 C1028 1.287 . S
C1028 C1027 1.287 . S
C1028 C1029 1.524 . S
C1028 H1047 0.913 . S
C1029 H1005 0.950 . S
C1029 C1028 1.524 . S
C1029 C1030 1.415 . S
C1030 H1006 0.950 . S
C1030 C1025 1.363 . S
C1030 C1029 1.415 . S
C1031 H1007 0.951 . S
C1031 C1032 1.366 . S
C1031 C1033 1.388 . S
C1032 C1031 1.366 . S
C1032 C1036 1.385 . S
C1033 H1008 0.951 . S
C1033 C1031 1.388 . S
C1033 C1034 1.366 . S
C1034 C1033 1.366 . S
C1034 C1035 1.414 . S
C1034 C1037 1.499 . S
C1035 H1009 0.950 . S
C1035 C1034 1.414 . S
C1035 C1036 1.374 . S
C1036 H1010 0.950 . S
C1036 C1032 1.385 . S
C1036 C1035 1.374 . S
C1037 C1034 1.499 . S
C1037 C1038 1.373 . S
C1037 C1039 1.389 . S
C1038 H1011 0.950 . S
C1038 C1024 1.377 . S
C1038 C1037 1.373 . S
C1039 C1023 1.377 . S
C1039 C1037 1.389 . S
C1039 C1040 1.524 . S
C1040 C1039 1.524 . S
C1040 C1041 1.397 . S
C1040 C1045 1.363 . S
C1041 H1012 0.950 . S
C1041 C1040 1.397 . S
C1041 C1042 1.334 . S
C1042 H1013 0.950 . S
C1042 C1041 1.334 . S
C1042 C1043 1.287 . S
C1043 C1042 1.287 . S
C1043 C1044 1.524 . S
C1043 H1046 0.999 . S
C1044 H1014 0.950 . S
C1044 C1043 1.524 . S
C1044 C1045 1.415 . S
C1045 H1015 0.950 . S
C1045 C1040 1.363 . S
C1045 C1044 1.415 . S
H1046 C1043 0.999 . S
H1047 C1028 0.913 . S
H1048 C1066 0.951 . S
H1049 C1068 0.951 . S
H1050 C1070 0.950 . S
H1051 C1071 0.950 . S
H1052 C1073 0.950 . S
H1053 C1076 0.950 . S
H1054 C1077 0.950 . S
H1055 C1079 0.950 . S
H1056 C1080 0.950 . S
H1057 C1081 0.951 . S
H1058 C1083 0.951 . S
H1059 C1085 0.950 . S
H1060 C1086 0.950 . S
H1061 C1088 0.950 . S
H1062 C1091 0.950 . S
H1063 C1092 0.950 . S
H1064 C1094 0.950 . S
H1065 C1095 0.950 . S
C1066 H1048 0.951 . S
C1066 C1067 1.366 . S
C1066 C1068 1.388 . S
C1067 C1066 1.366 . S
C1067 C1071 1.385 . S
C1068 H1049 0.951 . S
C1068 C1066 1.388 . S
C1068 C1069 1.366 . S
C1069 C1068 1.366 . S
C1069 C1070 1.414 . S
C1069 C1072 1.499 . S
C1070 H1050 0.950 . S
C1070 C1069 1.414 . S
C1070 C1071 1.374 . S
C1071 H1051 0.950 . S
C1071 C1067 1.385 . S
C1071 C1070 1.374 . S
C1072 C1069 1.499 . S
C1072 C1073 1.373 . S
C1072 C1074 1.389 . S
C1073 H1052 0.950 . S
C1073 C1072 1.373 . S
C1073 C1089 1.377 . S
C1074 C1072 1.389 . S
C1074 C1075 1.524 . S
C1074 C1088 1.377 . S
C1075 C1074 1.524 . S
C1075 C1076 1.397 . S
C1075 C1080 1.363 . S
C1076 H1053 0.950 . S
C1076 C1075 1.397 . S
C1076 C1077 1.334 . S
C1077 H1054 0.950 . S
C1077 C1076 1.334 . S
C1077 C1078 1.287 . S
C1078 C1077 1.287 . S
C1078 C1079 1.524 . S
C1078 H1097 0.913 . S
C1079 H1055 0.950 . S
C1079 C1078 1.524 . S
C1079 C1080 1.415 . S
C1080 H1056 0.950 . S
C1080 C1075 1.363 . S
C1080 C1079 1.415 . S
C1081 H1057 0.951 . S
C1081 C1082 1.366 . S
C1081 C1083 1.388 . S
C1082 C1081 1.366 . S
C1082 C1086 1.385 . S
C1083 H1058 0.951 . S
C1083 C1081 1.388 . S
C1083 C1084 1.366 . S
C1084 C1083 1.366 . S
C1084 C1085 1.414 . S
C1084 C1087 1.499 . S
C1085 H1059 0.950 . S
C1085 C1084 1.414 . S
C1085 C1086 1.374 . S
C1086 H1060 0.950 . S
C1086 C1082 1.385 . S
C1086 C1085 1.374 . S
C1087 C1084 1.499 . S
C1087 C1088 1.373 . S
C1087 C1089 1.389 . S
C1088 H1061 0.950 . S
C1088 C1074 1.377 . S
C1088 C1087 1.373 . S
C1089 C1073 1.377 . S
C1089 C1087 1.389 . S
C1089 C1090 1.524 . S
C1090 C1089 1.524 . S
C1090 C1091 1.397 . S
C1090 C1095 1.363 . S
C1091 H1062 0.950 . S
C1091 C1090 1.397 . S
C1091 C1092 1.334 . S
C1092 H1063 0.950 . S
C1092 C1091 1.334 . S
C1092 C1093 1.287 . S
C1093 C1092 1.287 . S
C1093 C1094 1.524 . S
C1093 H1096 0.999 . S
C1094 H1064 0.950 . S
C1094 C1093 1.524 . S
C1094 C1095 1.415 . S
C1095 H1065 0.950 . S
C1095 C1090 1.363 . S
C1095 C1094 1.415 . S
H1096 C1093 0.999 . S
H1097 C1078 0.913 . S
H1098 C1116 0.951 . S
H1099 C1118 0.951 . S
H1100 C1120 0.950 . S
H1101 C1121 0.950 . S
H1102 C1123 0.950 . S
H1103 C1126 0.950 . S
H1104 C1127 0.950 . S
H1105 C1129 0.950 . S
H1106 C1130 0.950 . S
H1107 C1131 0.951 . S
H1108 C1133 0.951 . S
H1109 C1135 0.950 . S
H1110 C1136 0.950 . S
H1111 C1138 0.950 . S
H1112 C1141 0.950 . S
H1113 C1142 0.950 . S
H1114 C1144 0.930 1_565 S
H1115 C1145 0.950 . S
C1116 H1098 0.951 . S
C1116 C1117 1.366 . S
C1116 C1118 1.388 . S
C1117 C1116 1.366 . S
C1117 C1121 1.385 . S
C1118 H1099 0.951 . S
C1118 C1116 1.388 . S
C1118 C1119 1.366 . S
C1119 C1118 1.366 . S
C1119 C1120 1.414 . S
C1119 C1122 1.499 . S
C1120 H1100 0.950 . S
C1120 C1119 1.414 . S
C1120 C1121 1.374 . S
C1121 H1101 0.950 . S
C1121 C1117 1.385 . S
C1121 C1120 1.374 . S
C1122 C1119 1.499 . S
C1122 C1123 1.373 . S
C1122 C1124 1.389 . S
C1123 H1102 0.950 . S
C1123 C1122 1.373 . S
C1123 C1139 1.377 . S
C1124 C1122 1.389 . S
C1124 C1125 1.524 . S
C1124 C1138 1.377 . S
C1125 C1124 1.524 . S
C1125 C1126 1.397 . S
C1125 C1130 1.363 . S
C1126 H1103 0.950 . S
C1126 C1125 1.397 . S
C1126 C1127 1.334 . S
C1127 H1104 0.950 . S
C1127 C1126 1.334 . S
C1127 C1128 1.287 . S
C1128 C1127 1.287 . S
C1128 C1129 1.524 . S
C1128 H1147 0.913 . S
C1129 H1105 0.950 . S
C1129 C1128 1.524 . S
C1129 C1130 1.415 . S
C1130 H1106 0.950 . S
C1130 C1125 1.363 . S
C1130 C1129 1.415 . S
C1131 H1107 0.951 . S
C1131 C1132 1.366 . S
C1131 C1133 1.388 . S
C1132 C1131 1.366 . S
C1132 C1136 1.385 . S
C1133 H1108 0.951 . S
C1133 C1131 1.388 . S
C1133 C1134 1.366 . S
C1134 C1133 1.366 . S
C1134 C1135 1.414 . S
C1134 C1137 1.499 . S
C1135 H1109 0.950 . S
C1135 C1134 1.414 . S
C1135 C1136 1.374 . S
C1136 H1110 0.950 . S
C1136 C1132 1.385 . S
C1136 C1135 1.374 . S
C1137 C1134 1.499 . S
C1137 C1138 1.373 . S
C1137 C1139 1.389 . S
C1138 H1111 0.950 . S
C1138 C1124 1.377 . S
C1138 C1137 1.373 . S
C1139 C1123 1.377 . S
C1139 C1137 1.389 . S
C1139 C1140 1.524 . S
C1140 C1139 1.524 . S
C1140 C1141 1.397 . S
C1140 C1145 1.363 . S
C1141 H1112 0.950 . S
C1141 C1140 1.397 . S
C1141 C1142 1.334 . S
C1142 H1113 0.950 . S
C1142 C1141 1.334 . S
C1142 C1143 1.287 . S
C1143 C1142 1.287 . S
C1143 C1144 1.524 . S
C1143 H1146 0.999 1_545 S
C1144 H1114 0.930 1_545 S
C1144 C1143 1.524 . S
C1144 C1145 1.415 . S
C1145 H1115 0.950 . S
C1145 C1140 1.363 . S
C1145 C1144 1.415 . S
H1146 C1143 0.999 1_565 S
H1147 C1128 0.913 . S
H1148 C1166 0.951 . S
H1149 C1168 0.951 . S
H1150 C1170 0.950 . S
H1151 C1171 0.950 . S
H1152 C1173 0.950 . S
H1153 C1176 0.950 . S
H1154 C1177 0.950 . S
H1155 C1179 0.950 . S
H1156 C1180 0.950 . S
H1157 C1181 0.951 . S
H1158 C1183 0.951 . S
H1159 C1185 0.950 . S
H1160 C1186 0.950 . S
H1161 C1188 0.950 . S
H1162 C1191 0.950 . S
H1163 C1192 0.950 . S
H1164 C1194 0.950 . S
H1165 C1195 0.950 . S
C1166 H1148 0.951 . S
C1166 C1167 1.366 . S
C1166 C1168 1.388 . S
C1167 C1166 1.366 . S
C1167 C1171 1.385 . S
C1168 H1149 0.951 . S
C1168 C1166 1.388 . S
C1168 C1169 1.366 . S
C1169 C1168 1.366 . S
C1169 C1170 1.414 . S
C1169 C1172 1.499 . S
C1170 H1150 0.950 . S
C1170 C1169 1.414 . S
C1170 C1171 1.374 . S
C1171 H1151 0.950 . S
C1171 C1167 1.385 . S
C1171 C1170 1.374 . S
C1172 C1169 1.499 . S
C1172 C1173 1.373 . S
C1172 C1174 1.389 . S
C1173 H1152 0.950 . S
C1173 C1172 1.373 . S
C1173 C1189 1.377 . S
C1174 C1172 1.389 . S
C1174 C1175 1.524 . S
C1174 C1188 1.377 . S
C1175 C1174 1.524 . S
C1175 C1176 1.397 . S
C1175 C1180 1.363 . S
C1176 H1153 0.950 . S
C1176 C1175 1.397 . S
C1176 C1177 1.334 . S
C1177 H1154 0.950 . S
C1177 C1176 1.334 . S
C1177 C1178 1.287 . S
C1178 C1177 1.287 . S
C1178 C1179 1.524 . S
C1178 H1197 0.913 . S
C1179 H1155 0.950 . S
C1179 C1178 1.524 . S
C1179 C1180 1.415 . S
C1180 H1156 0.950 . S
C1180 C1175 1.363 . S
C1180 C1179 1.415 . S
C1181 H1157 0.951 . S
C1181 C1182 1.366 . S
C1181 C1183 1.388 . S
C1182 C1181 1.366 . S
C1182 C1186 1.385 . S
C1183 H1158 0.951 . S
C1183 C1181 1.388 . S
C1183 C1184 1.366 . S
C1184 C1183 1.366 . S
C1184 C1185 1.414 . S
C1184 C1187 1.499 . S
C1185 H1159 0.950 . S
C1185 C1184 1.414 . S
C1185 C1186 1.374 . S
C1186 H1160 0.950 . S
C1186 C1182 1.385 . S
C1186 C1185 1.374 . S
C1187 C1184 1.499 . S
C1187 C1188 1.373 . S
C1187 C1189 1.389 . S
C1188 H1161 0.950 . S
C1188 C1174 1.377 . S
C1188 C1187 1.373 . S
C1189 C1173 1.377 . S
C1189 C1187 1.389 . S
C1189 C1190 1.524 . S
C1190 C1189 1.524 . S
C1190 C1191 1.397 . S
C1190 C1195 1.363 . S
C1191 H1162 0.950 . S
C1191 C1190 1.397 . S
C1191 C1192 1.334 . S
C1192 H1163 0.950 . S
C1192 C1191 1.334 . S
C1192 C1193 1.287 . S
C1193 C1192 1.287 . S
C1193 C1194 1.524 . S
C1193 H1196 0.999 . S
C1194 H1164 0.950 . S
C1194 C1193 1.524 . S
C1194 C1195 1.415 . S
C1195 H1165 0.950 . S
C1195 C1190 1.363 . S
C1195 C1194 1.415 . S
H1196 C1193 0.999 . S
H1197 C1178 0.913 . S
H1198 C1216 0.951 . S
H1199 C1218 0.951 . S
H1200 C1220 0.950 . S
H1201 C1221 0.950 . S
H1202 C1223 0.950 . S
H1203 C1226 0.950 . S
H1204 C1227 0.950 . S
H1205 C1229 0.950 . S
H1206 C1230 0.950 . S
H1207 C1231 0.951 . S
H1208 C1233 0.951 . S
H1209 C1235 0.950 . S
H1210 C1236 0.950 . S
H1211 C1238 0.950 . S
H1212 C1241 0.950 . S
H1213 C1242 0.950 . S
H1214 C1244 0.950 . S
H1215 C1245 0.950 . S
C1216 H1198 0.951 . S
C1216 C1217 1.366 . S
C1216 C1218 1.388 . S
C1217 C1216 1.366 . S
C1217 C1221 1.385 . S
C1218 H1199 0.951 . S
C1218 C1216 1.388 . S
C1218 C1219 1.366 . S
C1219 C1218 1.366 . S
C1219 C1220 1.414 . S
C1219 C1222 1.499 . S
C1220 H1200 0.950 . S
C1220 C1219 1.414 . S
C1220 C1221 1.374 . S
C1221 H1201 0.950 . S
C1221 C1217 1.385 . S
C1221 C1220 1.374 . S
C1222 C1219 1.499 . S
C1222 C1223 1.373 . S
C1222 C1224 1.389 . S
C1223 H1202 0.950 . S
C1223 C1222 1.373 . S
C1223 C1239 1.377 . S
C1224 C1222 1.389 . S
C1224 C1225 1.524 . S
C1224 C1238 1.377 . S
C1225 C1224 1.524 . S
C1225 C1226 1.397 . S
C1225 C1230 1.363 . S
C1226 H1203 0.950 . S
C1226 C1225 1.397 . S
C1226 C1227 1.334 . S
C1227 H1204 0.950 . S
C1227 C1226 1.334 . S
C1227 C1228 1.287 . S
C1228 C1227 1.287 . S
C1228 C1229 1.524 . S
C1228 H1247 0.913 . S
C1229 H1205 0.950 . S
C1229 C1228 1.524 . S
C1229 C1230 1.415 . S
C1230 H1206 0.950 . S
C1230 C1225 1.363 . S
C1230 C1229 1.415 . S
C1231 H1207 0.951 . S
C1231 C1232 1.366 . S
C1231 C1233 1.388 . S
C1232 C1231 1.366 . S
C1232 C1236 1.385 . S
C1233 H1208 0.951 . S
C1233 C1231 1.388 . S
C1233 C1234 1.366 . S
C1234 C1233 1.366 . S
C1234 C1235 1.414 . S
C1234 C1237 1.499 . S
C1235 H1209 0.950 . S
C1235 C1234 1.414 . S
C1235 C1236 1.374 . S
C1236 H1210 0.950 . S
C1236 C1232 1.385 . S
C1236 C1235 1.374 . S
C1237 C1234 1.499 . S
C1237 C1238 1.373 . S
C1237 C1239 1.389 . S
C1238 H1211 0.950 . S
C1238 C1224 1.377 . S
C1238 C1237 1.373 . S
C1239 C1223 1.377 . S
C1239 C1237 1.389 . S
C1239 C1240 1.524 . S
C1240 C1239 1.524 . S
C1240 C1241 1.397 . S
C1240 C1245 1.363 . S
C1241 H1212 0.950 . S
C1241 C1240 1.397 . S
C1241 C1242 1.334 . S
C1242 H1213 0.950 . S
C1242 C1241 1.334 . S
C1242 C1243 1.287 . S
C1243 C1242 1.287 . S
C1243 C1244 1.524 . S
C1243 H1246 0.999 . S
C1244 H1214 0.950 . S
C1244 C1243 1.524 . S
C1244 C1245 1.415 . S
C1245 H1215 0.950 . S
C1245 C1240 1.363 . S
C1245 C1244 1.415 . S
H1246 C1243 0.999 . S
H1247 C1228 0.913 . S
H1248 C1266 0.951 . S
H1249 C1268 0.951 . S
H1250 C1270 0.950 . S
H1251 C1271 0.950 . S
H1252 C1273 0.950 . S
H1253 C1276 0.950 . S
H1254 C1277 0.950 . S
H1255 C1279 0.950 . S
H1256 C1280 0.950 . S
H1257 C1281 0.951 . S
H1258 C1283 0.951 . S
H1259 C1285 0.950 . S
H1260 C1286 0.950 . S
H1261 C1288 0.950 . S
H1262 C1291 0.950 . S
H1263 C1292 0.950 . S
H1264 C1294 0.950 . S
H1265 C1295 0.950 . S
C1266 H1248 0.951 . S
C1266 C1267 1.366 . S
C1266 C1268 1.388 . S
C1267 C1266 1.366 . S
C1267 C1271 1.385 . S
C1268 H1249 0.951 . S
C1268 C1266 1.388 . S
C1268 C1269 1.366 . S
C1269 C1268 1.366 . S
C1269 C1270 1.414 . S
C1269 C1272 1.499 . S
C1270 H1250 0.950 . S
C1270 C1269 1.414 . S
C1270 C1271 1.374 . S
C1271 H1251 0.950 . S
C1271 C1267 1.385 . S
C1271 C1270 1.374 . S
C1272 C1269 1.499 . S
C1272 C1273 1.373 . S
C1272 C1274 1.389 . S
C1273 H1252 0.950 . S
C1273 C1272 1.373 . S
C1273 C1289 1.377 . S
C1274 C1272 1.389 . S
C1274 C1275 1.524 . S
C1274 C1288 1.377 . S
C1275 C1274 1.524 . S
C1275 C1276 1.397 . S
C1275 C1280 1.363 . S
C1276 H1253 0.950 . S
C1276 C1275 1.397 . S
C1276 C1277 1.334 . S
C1277 H1254 0.950 . S
C1277 C1276 1.334 . S
C1277 C1278 1.287 . S
C1278 C1277 1.287 . S
C1278 C1279 1.524 . S
C1278 H1297 0.913 . S
C1279 H1255 0.950 . S
C1279 C1278 1.524 . S
C1279 C1280 1.415 . S
C1280 H1256 0.950 . S
C1280 C1275 1.363 . S
C1280 C1279 1.415 . S
C1281 H1257 0.951 . S
C1281 C1282 1.366 . S
C1281 C1283 1.388 . S
C1282 C1281 1.366 . S
C1282 C1286 1.385 . S
C1283 H1258 0.951 . S
C1283 C1281 1.388 . S
C1283 C1284 1.366 . S
C1284 C1283 1.366 . S
C1284 C1285 1.414 . S
C1284 C1287 1.499 . S
C1285 H1259 0.950 . S
C1285 C1284 1.414 . S
C1285 C1286 1.374 . S
C1286 H1260 0.950 . S
C1286 C1282 1.385 . S
C1286 C1285 1.374 . S
C1287 C1284 1.499 . S
C1287 C1288 1.373 . S
C1287 C1289 1.389 . S
C1288 H1261 0.950 . S
C1288 C1274 1.377 . S
C1288 C1287 1.373 . S
C1289 C1273 1.377 . S
C1289 C1287 1.389 . S
C1289 C1290 1.524 . S
C1290 C1289 1.524 . S
C1290 C1291 1.397 . S
C1290 C1295 1.363 . S
C1291 H1262 0.950 . S
C1291 C1290 1.397 . S
C1291 C1292 1.334 . S
C1292 H1263 0.950 . S
C1292 C1291 1.334 . S
C1292 C1293 1.287 . S
C1293 C1292 1.287 . S
C1293 C1294 1.524 . S
C1293 H1296 0.999 . S
C1294 H1264 0.950 . S
C1294 C1293 1.524 . S
C1294 C1295 1.415 . S
C1295 H1265 0.950 . S
C1295 C1290 1.363 . S
C1295 C1294 1.415 . S
H1296 C1293 0.999 . S
H1297 C1278 0.913 . S
H1298 C1316 0.951 . S
H1299 C1318 0.951 . S
H1300 C1320 0.950 . S
H1301 C1321 0.950 . S
H1302 C1323 0.950 . S
H1303 C1326 0.950 . S
H1304 C1327 0.950 . S
H1305 C1329 0.950 . S
H1306 C1330 0.950 . S
H1307 C1331 0.951 . S
H1308 C1333 0.951 . S
H1309 C1335 0.950 . S
H1310 C1336 0.950 . S
H1311 C1338 0.950 . S
H1312 C1341 0.950 . S
H1313 C1342 0.950 . S
H1314 C1344 0.950 . S
H1315 C1345 0.950 . S
C1316 H1298 0.951 . S
C1316 C1317 1.366 . S
C1316 C1318 1.388 . S
C1317 C1316 1.366 . S
C1317 C1321 1.385 . S
C1318 H1299 0.951 . S
C1318 C1316 1.388 . S
C1318 C1319 1.366 . S
C1319 C1318 1.366 . S
C1319 C1320 1.414 . S
C1319 C1322 1.499 . S
C1320 H1300 0.950 . S
C1320 C1319 1.414 . S
C1320 C1321 1.374 . S
C1321 H1301 0.950 . S
C1321 C1317 1.385 . S
C1321 C1320 1.374 . S
C1322 C1319 1.499 . S
C1322 C1323 1.373 . S
C1322 C1324 1.389 . S
C1323 H1302 0.950 . S
C1323 C1322 1.373 . S
C1323 C1339 1.377 . S
C1324 C1322 1.389 . S
C1324 C1325 1.524 . S
C1324 C1338 1.377 . S
C1325 C1324 1.524 . S
C1325 C1326 1.397 . S
C1325 C1330 1.363 . S
C1326 H1303 0.950 . S
C1326 C1325 1.397 . S
C1326 C1327 1.334 . S
C1327 H1304 0.950 . S
C1327 C1326 1.334 . S
C1327 C1328 1.287 . S
C1328 C1327 1.287 . S
C1328 C1329 1.524 . S
C1328 H1347 0.913 . S
C1329 H1305 0.950 . S
C1329 C1328 1.524 . S
C1329 C1330 1.415 . S
C1330 H1306 0.950 . S
C1330 C1325 1.363 . S
C1330 C1329 1.415 . S
C1331 H1307 0.951 . S
C1331 C1332 1.366 . S
C1331 C1333 1.388 . S
C1332 C1331 1.366 . S
C1332 C1336 1.385 . S
C1333 H1308 0.951 . S
C1333 C1331 1.388 . S
C1333 C1334 1.366 . S
C1334 C1333 1.366 . S
C1334 C1335 1.414 . S
C1334 C1337 1.499 . S
C1335 H1309 0.950 . S
C1335 C1334 1.414 . S
C1335 C1336 1.374 . S
C1336 H1310 0.950 . S
C1336 C1332 1.385 . S
C1336 C1335 1.374 . S
C1337 C1334 1.499 . S
C1337 C1338 1.373 . S
C1337 C1339 1.389 . S
C1338 H1311 0.950 . S
C1338 C1324 1.377 . S
C1338 C1337 1.373 . S
C1339 C1323 1.377 . S
C1339 C1337 1.389 . S
C1339 C1340 1.524 . S
C1340 C1339 1.524 . S
C1340 C1341 1.397 . S
C1340 C1345 1.363 . S
C1341 H1312 0.950 . S
C1341 C1340 1.397 . S
C1341 C1342 1.334 . S
C1342 H1313 0.950 . S
C1342 C1341 1.334 . S
C1342 C1343 1.287 . S
C1343 C1342 1.287 . S
C1343 C1344 1.524 . S
C1343 H1346 0.999 . S
C1344 H1314 0.950 . S
C1344 C1343 1.524 . S
C1344 C1345 1.415 . S
C1345 H1315 0.950 . S
C1345 C1340 1.363 . S
C1345 C1344 1.415 . S
H1346 C1343 0.999 . S
H1347 C1328 0.913 . S
H1348 C1366 0.951 . S
H1349 C1368 0.951 . S
H1350 C1370 0.950 . S
H1351 C1371 0.950 . S
H1352 C1373 0.950 . S
H1353 C1376 0.950 . S
H1354 C1377 0.950 . S
H1355 C1379 0.950 . S
H1356 C1380 0.950 . S
H1357 C1381 0.951 . S
H1358 C1383 0.951 . S
H1359 C1385 0.950 . S
H1360 C1386 0.950 . S
H1361 C1388 0.950 . S
H1362 C1391 0.950 . S
H1363 C1392 0.950 . S
H1364 C1394 0.950 . S
H1365 C1395 0.950 . S
C1366 H1348 0.951 . S
C1366 C1367 1.366 . S
C1366 C1368 1.388 . S
C1367 C1366 1.366 . S
C1367 C1371 1.385 . S
C1368 H1349 0.951 . S
C1368 C1366 1.388 . S
C1368 C1369 1.366 . S
C1369 C1368 1.366 . S
C1369 C1370 1.414 . S
C1369 C1372 1.499 . S
C1370 H1350 0.950 . S
C1370 C1369 1.414 . S
C1370 C1371 1.374 . S
C1371 H1351 0.950 . S
C1371 C1367 1.385 . S
C1371 C1370 1.374 . S
C1372 C1369 1.499 . S
C1372 C1373 1.373 . S
C1372 C1374 1.389 . S
C1373 H1352 0.950 . S
C1373 C1372 1.373 . S
C1373 C1389 1.377 . S
C1374 C1372 1.389 . S
C1374 C1375 1.524 . S
C1374 C1388 1.377 . S
C1375 C1374 1.524 . S
C1375 C1376 1.397 . S
C1375 C1380 1.363 . S
C1376 H1353 0.950 . S
C1376 C1375 1.397 . S
C1376 C1377 1.334 . S
C1377 H1354 0.950 . S
C1377 C1376 1.334 . S
C1377 C1378 1.287 . S
C1378 C1377 1.287 . S
C1378 C1379 1.524 . S
C1378 H1397 0.913 . S
C1379 H1355 0.950 . S
C1379 C1378 1.524 . S
C1379 C1380 1.415 . S
C1380 H1356 0.950 . S
C1380 C1375 1.363 . S
C1380 C1379 1.415 . S
C1381 H1357 0.951 . S
C1381 C1382 1.366 . S
C1381 C1383 1.388 . S
C1382 C1381 1.366 . S
C1382 C1386 1.385 . S
C1383 H1358 0.951 . S
C1383 C1381 1.388 . S
C1383 C1384 1.366 . S
C1384 C1383 1.366 . S
C1384 C1385 1.414 . S
C1384 C1387 1.499 . S
C1385 H1359 0.950 . S
C1385 C1384 1.414 . S
C1385 C1386 1.374 . S
C1386 H1360 0.950 . S
C1386 C1382 1.385 . S
C1386 C1385 1.374 . S
C1387 C1384 1.499 . S
C1387 C1388 1.373 . S
C1387 C1389 1.389 . S
C1388 H1361 0.950 . S
C1388 C1374 1.377 . S
C1388 C1387 1.373 . S
C1389 C1373 1.377 . S
C1389 C1387 1.389 . S
C1389 C1390 1.524 . S
C1390 C1389 1.524 . S
C1390 C1391 1.397 . S
C1390 C1395 1.363 . S
C1391 H1362 0.950 . S
C1391 C1390 1.397 . S
C1391 C1392 1.334 . S
C1392 H1363 0.950 . S
C1392 C1391 1.334 . S
C1392 C1393 1.287 . S
C1393 C1392 1.287 . S
C1393 C1394 1.524 . S
C1393 H1396 0.999 . S
C1394 H1364 0.950 . S
C1394 C1393 1.524 . S
C1394 C1395 1.415 . S
C1395 H1365 0.950 . S
C1395 C1390 1.363 . S
C1395 C1394 1.415 . S
H1396 C1393 0.999 . S
H1397 C1378 0.913 . S
H1398 C1416 0.951 . S
H1399 C1418 0.951 . S
H1400 C1420 0.950 . S
H1401 C1421 0.950 . S
H1402 C1423 0.950 . S
H1403 C1426 0.950 . S
H1404 C1427 0.950 . S
H1405 C1429 0.950 . S
H1406 C1430 0.950 . S
H1407 C1431 0.951 . S
H1408 C1433 0.951 . S
H1409 C1435 0.950 . S
H1410 C1436 0.950 . S
H1411 C1438 0.950 . S
H1412 C1441 0.950 . S
H1413 C1442 0.950 . S
H1414 C1444 0.950 . S
H1415 C1445 0.950 . S
C1416 H1398 0.951 . S
C1416 C1417 1.366 . S
C1416 C1418 1.388 . S
C1417 C1416 1.366 . S
C1417 C1421 1.385 . S
C1418 H1399 0.951 . S
C1418 C1416 1.388 . S
C1418 C1419 1.366 . S
C1419 C1418 1.366 . S
C1419 C1420 1.414 . S
C1419 C1422 1.499 . S
C1420 H1400 0.950 . S
C1420 C1419 1.414 . S
C1420 C1421 1.374 . S
C1421 H1401 0.950 . S
C1421 C1417 1.385 . S
C1421 C1420 1.374 . S
C1422 C1419 1.499 . S
C1422 C1423 1.373 . S
C1422 C1424 1.389 . S
C1423 H1402 0.950 . S
C1423 C1422 1.373 . S
C1423 C1439 1.377 . S
C1424 C1422 1.389 . S
C1424 C1425 1.524 . S
C1424 C1438 1.377 . S
C1425 C1424 1.524 . S
C1425 C1426 1.397 . S
C1425 C1430 1.363 . S
C1426 H1403 0.950 . S
C1426 C1425 1.397 . S
C1426 C1427 1.334 . S
C1427 H1404 0.950 . S
C1427 C1426 1.334 . S
C1427 C1428 1.287 . S
C1428 C1427 1.287 . S
C1428 C1429 1.524 . S
C1428 H1447 0.913 . S
C1429 H1405 0.950 . S
C1429 C1428 1.524 . S
C1429 C1430 1.415 . S
C1430 H1406 0.950 . S
C1430 C1425 1.363 . S
C1430 C1429 1.415 . S
C1431 H1407 0.951 . S
C1431 C1432 1.366 . S
C1431 C1433 1.388 . S
C1432 C1431 1.366 . S
C1432 C1436 1.385 . S
C1433 H1408 0.951 . S
C1433 C1431 1.388 . S
C1433 C1434 1.366 . S
C1434 C1433 1.366 . S
C1434 C1435 1.414 . S
C1434 C1437 1.499 . S
C1435 H1409 0.950 . S
C1435 C1434 1.414 . S
C1435 C1436 1.374 . S
C1436 H1410 0.950 . S
C1436 C1432 1.385 . S
C1436 C1435 1.374 . S
C1437 C1434 1.499 . S
C1437 C1438 1.373 . S
C1437 C1439 1.389 . S
C1438 H1411 0.950 . S
C1438 C1424 1.377 . S
C1438 C1437 1.373 . S
C1439 C1423 1.377 . S
C1439 C1437 1.389 . S
C1439 C1440 1.524 . S
C1440 C1439 1.524 . S
C1440 C1441 1.397 . S
C1440 C1445 1.363 . S
C1441 H1412 0.950 . S
C1441 C1440 1.397 . S
C1441 C1442 1.334 . S
C1442 H1413 0.950 . S
C1442 C1441 1.334 . S
C1442 C1443 1.287 . S
C1443 C1442 1.287 . S
C1443 C1444 1.524 . S
C1443 H1446 0.999 . S
C1444 H1414 0.950 . S
C1444 C1443 1.524 . S
C1444 C1445 1.415 . S
C1445 H1415 0.950 . S
C1445 C1440 1.363 . S
C1445 C1444 1.415 . S
H1446 C1443 0.999 . S
H1447 C1428 0.913 . S
H1448 C1466 0.951 . S
H1449 C1468 0.951 . S
H1450 C1470 0.950 . S
H1451 C1471 0.950 . S
H1452 C1473 0.950 . S
H1453 C1476 0.950 . S
H1454 C1477 0.950 . S
H1455 C1479 0.950 . S
H1456 C1480 0.950 . S
H1457 C1481 0.951 . S
H1458 C1483 0.951 . S
H1459 C1485 0.950 . S
H1460 C1486 0.950 . S
H1461 C1488 0.950 . S
H1462 C1491 0.950 . S
H1463 C1492 0.950 . S
H1464 C1494 0.950 . S
H1465 C1495 0.950 . S
C1466 H1448 0.951 . S
C1466 C1467 1.366 . S
C1466 C1468 1.388 . S
C1467 C1466 1.366 . S
C1467 C1471 1.385 . S
C1468 H1449 0.951 . S
C1468 C1466 1.388 . S
C1468 C1469 1.366 . S
C1469 C1468 1.366 . S
C1469 C1470 1.414 . S
C1469 C1472 1.499 . S
C1470 H1450 0.950 . S
C1470 C1469 1.414 . S
C1470 C1471 1.374 . S
C1471 H1451 0.950 . S
C1471 C1467 1.385 . S
C1471 C1470 1.374 . S
C1472 C1469 1.499 . S
C1472 C1473 1.373 . S
C1472 C1474 1.389 . S
C1473 H1452 0.950 . S
C1473 C1472 1.373 . S
C1473 C1489 1.377 . S
C1474 C1472 1.389 . S
C1474 C1475 1.524 . S
C1474 C1488 1.377 . S
C1475 C1474 1.524 . S
C1475 C1476 1.397 . S
C1475 C1480 1.363 . S
C1476 H1453 0.950 . S
C1476 C1475 1.397 . S
C1476 C1477 1.334 . S
C1477 H1454 0.950 . S
C1477 C1476 1.334 . S
C1477 C1478 1.287 . S
C1478 C1477 1.287 . S
C1478 C1479 1.524 . S
C1478 H1497 0.913 . S
C1479 H1455 0.950 . S
C1479 C1478 1.524 . S
C1479 C1480 1.415 . S
C1480 H1456 0.950 . S
C1480 C1475 1.363 . S
C1480 C1479 1.415 . S
C1481 H1457 0.951 . S
C1481 C1482 1.366 . S
C1481 C1483 1.388 . S
C1482 C1481 1.366 . S
C1482 C1486 1.385 . S
C1483 H1458 0.951 . S
C1483 C1481 1.388 . S
C1483 C1484 1.366 . S
C1484 C1483 1.366 . S
C1484 C1485 1.414 . S
C1484 C1487 1.499 . S
C1485 H1459 0.950 . S
C1485 C1484 1.414 . S
C1485 C1486 1.374 . S
C1486 H1460 0.950 . S
C1486 C1482 1.385 . S
C1486 C1485 1.374 . S
C1487 C1484 1.499 . S
C1487 C1488 1.373 . S
C1487 C1489 1.389 . S
C1488 H1461 0.950 . S
C1488 C1474 1.377 . S
C1488 C1487 1.373 . S
C1489 C1473 1.377 . S
C1489 C1487 1.389 . S
C1489 C1490 1.524 . S
C1490 C1489 1.524 . S
C1490 C1491 1.397 . S
C1490 C1495 1.363 . S
C1491 H1462 0.950 . S
C1491 C1490 1.397 . S
C1491 C1492 1.334 . S
C1492 H1463 0.950 . S
C1492 C1491 1.334 . S
C1492 C1493 1.287 . S
C1493 C1492 1.287 . S
C1493 C1494 1.524 . S
C1493 H1496 0.999 . S
C1494 H1464 0.950 . S
C1494 C1493 1.524 . S
C1494 C1495 1.415 . S
C1495 H1465 0.950 . S
C1495 C1490 1.363 . S
C1495 C1494 1.415 . S
H1496 C1493 0.999 . S
H1497 C1478 0.913 . S
H1498 C1516 0.951 . S
H1499 C1518 0.951 . S
H1500 C1520 0.950 . S
H1501 C1521 0.950 . S
H1502 C1523 0.950 . S
H1503 C1526 0.950 . S
H1504 C1527 0.950 . S
H1505 C1529 0.950 . S
H1506 C1530 0.950 . S
H1507 C1531 0.951 . S
H1508 C1533 0.951 . S
H1509 C1535 0.950 . S
H1510 C1536 0.950 . S
H1511 C1538 0.950 . S
H1512 C1541 0.950 . S
H1513 C1542 0.950 . S
H1514 C1544 0.950 . S
H1515 C1545 0.950 . S
C1516 H1498 0.951 . S
C1516 C1517 1.366 . S
C1516 C1518 1.388 . S
C1517 C1516 1.366 . S
C1517 C1521 1.385 . S
C1518 H1499 0.951 . S
C1518 C1516 1.388 . S
C1518 C1519 1.366 . S
C1519 C1518 1.366 . S
C1519 C1520 1.414 . S
C1519 C1522 1.499 . S
C1520 H1500 0.950 . S
C1520 C1519 1.414 . S
C1520 C1521 1.374 . S
C1521 H1501 0.950 . S
C1521 C1517 1.385 . S
C1521 C1520 1.374 . S
C1522 C1519 1.499 . S
C1522 C1523 1.373 . S
C1522 C1524 1.389 . S
C1523 H1502 0.950 . S
C1523 C1522 1.373 . S
C1523 C1539 1.377 . S
C1524 C1522 1.389 . S
C1524 C1525 1.524 . S
C1524 C1538 1.377 . S
C1525 C1524 1.524 . S
C1525 C1526 1.397 . S
C1525 C1530 1.363 . S
C1526 H1503 0.950 . S
C1526 C1525 1.397 . S
C1526 C1527 1.334 . S
C1527 H1504 0.950 . S
C1527 C1526 1.334 . S
C1527 C1528 1.287 . S
C1528 C1527 1.287 . S
C1528 C1529 1.524 . S
C1528 H1547 0.913 . S
C1529 H1505 0.950 . S
C1529 C1528 1.524 . S
C1529 C1530 1.415 . S
C1530 H1506 0.950 . S
C1530 C1525 1.363 . S
C1530 C1529 1.415 . S
C1531 H1507 0.951 . S
C1531 C1532 1.366 . S
C1531 C1533 1.388 . S
C1532 C1531 1.366 . S
C1532 C1536 1.385 . S
C1533 H1508 0.951 . S
C1533 C1531 1.388 . S
C1533 C1534 1.366 . S
C1534 C1533 1.366 . S
C1534 C1535 1.414 . S
C1534 C1537 1.499 . S
C1535 H1509 0.950 . S
C1535 C1534 1.414 . S
C1535 C1536 1.374 . S
C1536 H1510 0.950 . S
C1536 C1532 1.385 . S
C1536 C1535 1.374 . S
C1537 C1534 1.499 . S
C1537 C1538 1.373 . S
C1537 C1539 1.389 . S
C1538 H1511 0.950 . S
C1538 C1524 1.377 . S
C1538 C1537 1.373 . S
C1539 C1523 1.377 . S
C1539 C1537 1.389 . S
C1539 C1540 1.524 . S
C1540 C1539 1.524 . S
C1540 C1541 1.397 . S
C1540 C1545 1.363 . S
C1541 H1512 0.950 . S
C1541 C1540 1.397 . S
C1541 C1542 1.334 . S
C1542 H1513 0.950 . S
C1542 C1541 1.334 . S
C1542 C1543 1.287 . S
C1543 C1542 1.287 . S
C1543 C1544 1.524 . S
C1543 H1546 0.999 . S
C1544 H1514 0.950 . S
C1544 C1543 1.524 . S
C1544 C1545 1.415 . S
C1545 H1515 0.950 . S
C1545 C1540 1.363 . S
C1545 C1544 1.415 . S
H1546 C1543 0.999 . S
H1547 C1528 0.913 . S
H1548 C1566 0.951 . S
H1549 C1568 0.951 . S
H1550 C1570 0.950 . S
H1551 C1571 0.950 . S
H1552 C1573 0.950 . S
H1553 C1576 0.950 . S
H1554 C1577 0.950 . S
H1555 C1579 0.950 . S
H1556 C1580 0.950 . S
H1557 C1581 0.951 . S
H1558 C1583 0.951 . S
H1559 C1585 0.950 . S
H1560 C1586 0.950 . S
H1561 C1588 0.950 . S
H1562 C1591 0.950 . S
H1563 C1592 0.950 . S
H1564 C1594 0.950 . S
H1565 C1595 0.950 . S
C1566 H1548 0.951 . S
C1566 C1567 1.366 . S
C1566 C1568 1.388 . S
C1567 C1566 1.366 . S
C1567 C1571 1.385 . S
C1568 H1549 0.951 . S
C1568 C1566 1.388 . S
C1568 C1569 1.366 . S
C1569 C1568 1.366 . S
C1569 C1570 1.414 . S
C1569 C1572 1.499 . S
C1570 H1550 0.950 . S
C1570 C1569 1.414 . S
C1570 C1571 1.374 . S
C1571 H1551 0.950 . S
C1571 C1567 1.385 . S
C1571 C1570 1.374 . S
C1572 C1569 1.499 . S
C1572 C1573 1.373 . S
C1572 C1574 1.389 . S
C1573 H1552 0.950 . S
C1573 C1572 1.373 . S
C1573 C1589 1.377 . S
C1574 C1572 1.389 . S
C1574 C1575 1.524 . S
C1574 C1588 1.377 . S
C1575 C1574 1.524 . S
C1575 C1576 1.397 . S
C1575 C1580 1.363 . S
C1576 H1553 0.950 . S
C1576 C1575 1.397 . S
C1576 C1577 1.334 . S
C1577 H1554 0.950 . S
C1577 C1576 1.334 . S
C1577 C1578 1.287 . S
C1578 C1577 1.287 . S
C1578 C1579 1.524 . S
C1578 H1597 0.913 . S
C1579 H1555 0.950 . S
C1579 C1578 1.524 . S
C1579 C1580 1.415 . S
C1580 H1556 0.950 . S
C1580 C1575 1.363 . S
C1580 C1579 1.415 . S
C1581 H1557 0.951 . S
C1581 C1582 1.366 . S
C1581 C1583 1.388 . S
C1582 C1581 1.366 . S
C1582 C1586 1.385 . S
C1583 H1558 0.951 . S
C1583 C1581 1.388 . S
C1583 C1584 1.366 . S
C1584 C1583 1.366 . S
C1584 C1585 1.414 . S
C1584 C1587 1.499 . S
C1585 H1559 0.950 . S
C1585 C1584 1.414 . S
C1585 C1586 1.374 . S
C1586 H1560 0.950 . S
C1586 C1582 1.385 . S
C1586 C1585 1.374 . S
C1587 C1584 1.499 . S
C1587 C1588 1.373 . S
C1587 C1589 1.389 . S
C1588 H1561 0.950 . S
C1588 C1574 1.377 . S
C1588 C1587 1.373 . S
C1589 C1573 1.377 . S
C1589 C1587 1.389 . S
C1589 C1590 1.524 . S
C1590 C1589 1.524 . S
C1590 C1591 1.397 . S
C1590 C1595 1.363 . S
C1591 H1562 0.950 . S
C1591 C1590 1.397 . S
C1591 C1592 1.334 . S
C1592 H1563 0.950 . S
C1592 C1591 1.334 . S
C1592 C1593 1.287 . S
C1593 C1592 1.287 . S
C1593 C1594 1.524 . S
C1593 H1596 0.999 . S
C1594 H1564 0.950 . S
C1594 C1593 1.524 . S
C1594 C1595 1.415 . S
C1595 H1565 0.950 . S
C1595 C1590 1.363 . S
C1595 C1594 1.415 . S
H1596 C1593 0.999 . S
H1597 C1578 0.913 . S
H1598 C1616 0.951 . S
H1599 C1618 0.951 . S
H1600 C1620 0.950 . S
H1601 C1621 0.950 . S
H1602 C1623 0.950 . S
H1603 C1626 0.950 . S
H1604 C1627 0.950 . S
H1605 C1629 0.950 . S
H1606 C1630 0.950 . S
H1607 C1631 0.951 . S
H1608 C1633 0.951 . S
H1609 C1635 0.950 . S
H1610 C1636 0.950 . S
H1611 C1638 0.950 . S
H1612 C1641 0.950 . S
H1613 C1642 0.950 . S
H1614 C1644 0.950 . S
H1615 C1645 0.950 . S
C1616 H1598 0.951 . S
C1616 C1617 1.366 . S
C1616 C1618 1.388 . S
C1617 C1616 1.366 . S
C1617 C1621 1.385 . S
C1618 H1599 0.951 . S
C1618 C1616 1.388 . S
C1618 C1619 1.366 . S
C1619 C1618 1.366 . S
C1619 C1620 1.414 . S
C1619 C1622 1.499 . S
C1620 H1600 0.950 . S
C1620 C1619 1.414 . S
C1620 C1621 1.374 . S
C1621 H1601 0.950 . S
C1621 C1617 1.385 . S
C1621 C1620 1.374 . S
C1622 C1619 1.499 . S
C1622 C1623 1.373 . S
C1622 C1624 1.389 . S
C1623 H1602 0.950 . S
C1623 C1622 1.373 . S
C1623 C1639 1.377 . S
C1624 C1622 1.389 . S
C1624 C1625 1.524 . S
C1624 C1638 1.377 . S
C1625 C1624 1.524 . S
C1625 C1626 1.397 . S
C1625 C1630 1.363 . S
C1626 H1603 0.950 . S
C1626 C1625 1.397 . S
C1626 C1627 1.334 . S
C1627 H1604 0.950 . S
C1627 C1626 1.334 . S
C1627 C1628 1.287 . S
C1628 C1627 1.287 . S
C1628 C1629 1.524 . S
C1628 H1647 0.913 . S
C1629 H1605 0.950 . S
C1629 C1628 1.524 . S
C1629 C1630 1.415 . S
C1630 H1606 0.950 . S
C1630 C1625 1.363 . S
C1630 C1629 1.415 . S
C1631 H1607 0.951 . S
C1631 C1632 1.366 . S
C1631 C1633 1.388 . S
C1632 C1631 1.366 . S
C1632 C1636 1.385 . S
C1633 H1608 0.951 . S
C1633 C1631 1.388 . S
C1633 C1634 1.366 . S
C1634 C1633 1.366 . S
C1634 C1635 1.414 . S
C1634 C1637 1.499 . S
C1635 H1609 0.950 . S
C1635 C1634 1.414 . S
C1635 C1636 1.374 . S
C1636 H1610 0.950 . S
C1636 C1632 1.385 . S
C1636 C1635 1.374 . S
C1637 C1634 1.499 . S
C1637 C1638 1.373 . S
C1637 C1639 1.389 . S
C1638 H1611 0.950 . S
C1638 C1624 1.377 . S
C1638 C1637 1.373 . S
C1639 C1623 1.377 . S
C1639 C1637 1.389 . S
C1639 C1640 1.524 . S
C1640 C1639 1.524 . S
C1640 C1641 1.397 . S
C1640 C1645 1.363 . S
C1641 H1612 0.950 . S
C1641 C1640 1.397 . S
C1641 C1642 1.334 . S
C1642 H1613 0.950 . S
C1642 C1641 1.334 . S
C1642 C1643 1.287 . S
C1643 C1642 1.287 . S
C1643 C1644 1.524 . S
C1643 H1646 0.999 . S
C1644 H1614 0.950 . S
C1644 C1643 1.524 . S
C1644 C1645 1.415 . S
C1645 H1615 0.950 . S
C1645 C1640 1.363 . S
C1645 C1644 1.415 . S
H1646 C1643 0.999 . S
H1647 C1628 0.913 . S
C467 C1 1.244 . S
C482 C295 1.259 . S
C517 C67 0.952 . S
C532 C344 0.950 . S
C582 C370 2.420 . S
C567 C97 2.448 . S
C617 C133 2.333 . S
C632 C418 2.279 . S
C682 C330 2.519 . S
C667 C25 2.472 . S
C732 C298 0.893 . S
C717 C37 0.913 . S
C782 C419 1.866 . S
C767 C103 1.904 . S
C832 C387 1.503 . S
C817 C109 1.529 . S
C867 C31 1.745 . S
C882 C415 1.779 . S
C932 C347 2.305 . S
C917 C73 2.370 . S
C967 C139 2.355 . S
C982 C299 2.345 . S
C1017 C61 0.721 . S
C1032 C384 0.719 . S
C1082 C304 1.261 . S
C1067 C175 1.209 . S
C1117 C181 0.930 . S
C1132 C335 0.932 . S
C1167 C247 2.474 . S
C1182 C379 2.443 . S
C1217 C277 2.319 . S
C1232 C427 2.266 . S
C1267 C145 2.393 . S
C1282 C339 2.507 . S
C1332 C307 0.899 . S
C1317 C211 0.915 . S
C1382 C410 1.854 . S
C1367 C217 1.884 . S
C1432 C378 1.523 . S
C1417 C283 1.548 . S
C1467 C169 1.683 . S
C1482 C424 1.772 . S
C1532 C338 2.312 . S
C1517 C241 2.374 . S
C1582 C290 2.330 . S
C1567 C253 2.340 . S
C1617 C205 0.729 . S
C1632 C375 0.729 . S
