# Generated by pormake.
# Topology llj, (12,3)-cn, num edge types: 1
# Building blocks:
#     Node 0, Type 0, BuildingBlock: QEWDON_clean_sbu_0, # of connection points: 12
#     Node 1, Type 0, BuildingBlock: QEWDON_clean_sbu_0, # of connection points: 12
#     Node 2, Type 1, BuildingBlock: BETDAH_clean_linker_0, # of connection points: 3
#     Node 3, Type 1, BuildingBlock: BETDAH_clean_linker_0, # of connection points: 3
#     Node 4, Type 1, BuildingBlock: BETDAH_clean_linker_0, # of connection points: 3
#     Node 5, Type 1, BuildingBlock: BETDAH_clean_linker_0, # of connection points: 3
#     Node 6, Type 1, BuildingBlock: BETDAH_clean_linker_0, # of connection points: 3
#     Node 7, Type 1, BuildingBlock: BETDAH_clean_linker_0, # of connection points: 3
#     Node 8, Type 1, BuildingBlock: BETDAH_clean_linker_0, # of connection points: 3
#     Node 9, Type 1, BuildingBlock: BETDAH_clean_linker_0, # of connection points: 3
#     Edge 10, Type (0, 1), BuildingBlock: MIFKUJ_clean_linker_0, # of connection points: 2
#     Edge 11, Type (0, 1), BuildingBlock: MIFKUJ_clean_linker_0, # of connection points: 2
#     Edge 12, Type (0, 1), BuildingBlock: MIFKUJ_clean_linker_0, # of connection points: 2
#     Edge 13, Type (0, 1), BuildingBlock: MIFKUJ_clean_linker_0, # of connection points: 2
#     Edge 14, Type (0, 1), BuildingBlock: MIFKUJ_clean_linker_0, # of connection points: 2
#     Edge 15, Type (0, 1), BuildingBlock: MIFKUJ_clean_linker_0, # of connection points: 2
#     Edge 16, Type (0, 1), BuildingBlock: MIFKUJ_clean_linker_0, # of connection points: 2
#     Edge 17, Type (0, 1), BuildingBlock: MIFKUJ_clean_linker_0, # of connection points: 2
#     Edge 18, Type (0, 1), BuildingBlock: MIFKUJ_clean_linker_0, # of connection points: 2
#     Edge 19, Type (0, 1), BuildingBlock: MIFKUJ_clean_linker_0, # of connection points: 2
#     Edge 20, Type (0, 1), BuildingBlock: MIFKUJ_clean_linker_0, # of connection points: 2
#     Edge 21, Type (0, 1), BuildingBlock: MIFKUJ_clean_linker_0, # of connection points: 2
#     Edge 22, Type (0, 1), BuildingBlock: MIFKUJ_clean_linker_0, # of connection points: 2
#     Edge 23, Type (0, 1), BuildingBlock: MIFKUJ_clean_linker_0, # of connection points: 2
#     Edge 24, Type (0, 1), BuildingBlock: MIFKUJ_clean_linker_0, # of connection points: 2
#     Edge 25, Type (0, 1), BuildingBlock: MIFKUJ_clean_linker_0, # of connection points: 2
#     Edge 26, Type (0, 1), BuildingBlock: MIFKUJ_clean_linker_0, # of connection points: 2
#     Edge 27, Type (0, 1), BuildingBlock: MIFKUJ_clean_linker_0, # of connection points: 2
#     Edge 28, Type (0, 1), BuildingBlock: MIFKUJ_clean_linker_0, # of connection points: 2
#     Edge 29, Type (0, 1), BuildingBlock: MIFKUJ_clean_linker_0, # of connection points: 2
#     Edge 30, Type (0, 1), BuildingBlock: MIFKUJ_clean_linker_0, # of connection points: 2
#     Edge 31, Type (0, 1), BuildingBlock: MIFKUJ_clean_linker_0, # of connection points: 2
#     Edge 32, Type (0, 1), BuildingBlock: MIFKUJ_clean_linker_0, # of connection points: 2
#     Edge 33, Type (0, 1), BuildingBlock: MIFKUJ_clean_linker_0, # of connection points: 2
# Relax obj value: 0.009
# Max RMSD: 0.105
# Mean RMSD: 0.089
data_MOF--net-llj--node1-QEWDON_clean_sbu_0--node2-BETDAH_clean_linker_0--edge1-MIFKUJ_clean_linker_0
_symmetry_space_group_name_H-M    P1
_symmetry_Int_Tables_number       1
_symmetry_cell_setting            triclinic
loop_
_symmetry_equiv_pos_as_xyz
'x, y, z'
_cell_length_a     49.717914
_cell_length_b     49.723654
_cell_length_c     31.239283
_cell_angle_alpha  91.166334
_cell_angle_beta   90.299626
_cell_angle_gamma 90.026108
loop_
_atom_site_label
_atom_site_type_symbol
_atom_site_fract_x
_atom_site_fract_y
_atom_site_fract_z
_atom_type_partial_charge
Zn0 Zn 0.9764 0.06656 0.90616 0.0
Zn1 Zn 0.96687 0.05565 0.00684 0.0
O2 O 0.99309 0.05039 0.95901 0.0
H3 H 0.00804 0.03797 0.95875 0.0
C4 C 0.91302 0.02066 0.87034 0.0
O5 O 0.91191 0.0292 0.91037 0.0
Zn6 Zn 0.04803 0.9377 0.01233 0.0
Zn7 Zn 0.04646 0.92103 0.91362 0.0
O8 O 0.03091 0.94722 0.95685 0.0
H9 H 0.02234 0.96414 0.95064 0.0
Zn10 Zn 0.93407 0.97134 0.90928 0.0
O11 O 0.96153 0.98321 0.95347 0.0
Zn12 Zn 0.95512 0.95937 0.00305 0.0
H13 H 0.97775 0.99329 0.94808 0.0
Zn14 Zn 0.10497 0.02094 0.97817 0.0
O15 O 0.06528 0.01509 0.98677 0.0
H16 H 0.05206 0.00864 0.96624 0.0
Zn17 Zn 0.05907 0.03275 0.0436 0.0
C18 C 0.1239 0.97688 0.92498 0.0
O19 O 0.11496 0.964 0.95836 0.0
O20 O 0.94192 0.08798 0.91868 0.0
O21 O 0.93588 0.07998 0.98783 0.0
O22 O 0.07872 0.89909 0.93505 0.0
O23 O 0.08078 0.9139 0.00272 0.0
O24 O 0.91274 0.93709 0.92269 0.0
O25 O 0.92898 0.92897 0.98771 0.0
C26 C 0.01074 0.06591 0.06425 0.0
O27 O 0.1195 0.05537 0.00816 0.0
O28 O 0.0865 0.06285 0.05508 0.0
O29 O 0.0216 0.90601 0.86579 0.0
C30 C 0.92867 0.09125 0.95316 0.0
O31 O 0.00157 0.08236 0.86042 0.0
C32 C 0.99693 0.92593 0.04532 0.0
O33 O 0.9216 0.99706 0.86201 0.0
C34 C 0.09 0.89954 0.9718 0.0
O35 O 0.12295 0.00244 0.92544 0.0
C36 C 0.94325 0.00689 0.05365 0.0
O37 O 0.98685 0.07346 0.05624 0.0
O38 O 0.02095 0.04695 0.04183 0.0
C39 C 0.91377 0.92268 0.95594 0.0
O40 O 0.02125 0.91855 0.04855 0.0
O41 O 0.99093 0.94384 0.01852 0.0
C42 C 0.06004 0.98017 0.08033 0.0
O43 O 0.94074 0.98144 0.0525 0.0
O44 O 0.95463 0.01817 0.0223 0.0
C45 C 0.10912 0.06917 0.03876 0.0
O46 O 0.06244 0.00505 0.08932 0.0
O47 O 0.05695 0.97299 0.04134 0.0
C48 C 0.00936 0.8838 0.86996 0.0
O49 O 0.0131 0.87001 0.90492 0.0
C50 C 0.00323 0.10782 0.85876 0.0
O51 O 0.98937 0.1226 0.88613 0.0
Zn52 Zn 0.45941 0.5563 0.51759 0.0
Zn53 Zn 0.46722 0.56177 0.61735 0.0
O54 O 0.48787 0.55441 0.5638 0.0
H55 H 0.50327 0.54268 0.56107 0.0
C56 C 0.42732 0.47326 0.44421 0.0
O57 O 0.40907 0.46772 0.47302 0.0
Zn58 Zn 0.54074 0.45333 0.60688 0.0
Zn59 Zn 0.5386 0.45392 0.50391 0.0
O60 O 0.51694 0.46257 0.55738 0.0
H61 H 0.5035 0.47664 0.55838 0.0
Zn62 Zn 0.45793 0.46143 0.51722 0.0
O63 O 0.45072 0.49198 0.55971 0.0
Zn64 Zn 0.44595 0.46979 0.61135 0.0
H65 H 0.44119 0.50832 0.55306 0.0
Zn66 Zn 0.55162 0.5502 0.50826 0.0
O67 O 0.55379 0.52294 0.55545 0.0
H68 H 0.55841 0.50432 0.54977 0.0
Zn69 Zn 0.56204 0.54505 0.6081 0.0
C70 C 0.58289 0.53017 0.43935 0.0
O71 O 0.60098 0.53819 0.46766 0.0
O72 O 0.42721 0.57988 0.53615 0.0
O73 O 0.43547 0.58665 0.60563 0.0
O74 O 0.57236 0.43157 0.5166 0.0
O75 O 0.57009 0.4272 0.58741 0.0
O76 O 0.43734 0.42674 0.53179 0.0
O77 O 0.42236 0.43765 0.59647 0.0
C78 C 0.5177 0.57375 0.66054 0.0
O79 O 0.57456 0.58378 0.52307 0.0
O80 O 0.58467 0.57725 0.5916 0.0
O81 O 0.5169 0.44331 0.44898 0.0
C82 C 0.42133 0.59086 0.57216 0.0
O83 O 0.47432 0.56141 0.45655 0.0
C84 C 0.49333 0.44243 0.65674 0.0
O85 O 0.45198 0.47231 0.45471 0.0
C86 C 0.58111 0.42177 0.55139 0.0
O87 O 0.55817 0.5335 0.44799 0.0
C88 C 0.43416 0.51767 0.65842 0.0
O89 O 0.49252 0.57808 0.66215 0.0
O90 O 0.52634 0.5581 0.63095 0.0
C91 C 0.42275 0.42175 0.56401 0.0
O92 O 0.5184 0.43773 0.65483 0.0
O93 O 0.48302 0.45704 0.628 0.0
C94 C 0.57614 0.49682 0.65118 0.0
O95 O 0.42812 0.4929 0.65673 0.0
O96 O 0.45284 0.52574 0.63414 0.0
C97 C 0.5869 0.59072 0.55745 0.0
O98 O 0.58183 0.52173 0.65079 0.0
O99 O 0.55773 0.48841 0.62583 0.0
C100 C 0.49688 0.42784 0.4541 0.0
O101 O 0.49153 0.41943 0.49273 0.0
C102 C 0.48686 0.58338 0.45174 0.0
O103 O 0.48864 0.60037 0.48442 0.0
H104 H 0.37305 0.35886 0.05431 0.0
H105 H 0.30394 0.32433 0.11527 0.0
H106 H 0.30401 0.33568 0.97932 0.0
C107 C 0.35331 0.34967 0.05231 0.0
C108 C 0.34066 0.34726 0.01224 0.0
C109 C 0.34044 0.34144 0.08982 0.0
C110 C 0.31423 0.33075 0.08676 0.0
C111 C 0.30105 0.32903 0.04681 0.0
C112 C 0.31425 0.33747 0.00997 0.0
N113 N 0.27419 0.31982 0.04253 0.0
C114 C 0.26278 0.30022 0.06775 0.0
H115 H 0.66605 0.39846 0.03019 0.0
H116 H 0.71351 0.35747 0.12412 0.0
H117 H 0.72299 0.33794 0.99027 0.0
C118 C 0.68095 0.38345 0.0383 0.0
C119 C 0.6936 0.36856 0.00549 0.0
C120 C 0.68793 0.37958 0.08128 0.0
C121 C 0.70785 0.36069 0.09106 0.0
C122 C 0.72037 0.34542 0.05877 0.0
C123 C 0.71312 0.34925 0.01569 0.0
N124 N 0.74059 0.32703 0.07129 0.0
C125 C 0.75159 0.30691 0.04539 0.0
H126 H 0.61362 0.66307 0.04324 0.0
H127 H 0.68588 0.70609 0.01224 0.0
H128 H 0.66741 0.68969 0.14355 0.0
C129 C 0.6319 0.67332 0.05337 0.0
C130 C 0.63829 0.6751 0.09707 0.0
C131 C 0.64887 0.68449 0.02256 0.0
C132 C 0.6727 0.69754 0.03588 0.0
C133 C 0.67924 0.69958 0.07976 0.0
C134 C 0.66202 0.68833 0.1099 0.0
N135 N 0.70296 0.71252 0.09512 0.0
C136 C 0.72093 0.72672 0.07022 0.0
H137 H 0.33752 0.59523 0.03379 0.0
H138 H 0.30536 0.67482 0.01927 0.0
H139 H 0.3225 0.64536 0.14495 0.0
C140 C 0.33026 0.61393 0.04796 0.0
C141 C 0.33077 0.61756 0.09256 0.0
C142 C 0.32112 0.6345 0.0214 0.0
C143 C 0.31212 0.65885 0.03981 0.0
C144 C 0.31236 0.66262 0.08459 0.0
C145 C 0.32184 0.64205 0.11055 0.0
N146 N 0.30378 0.68699 0.10456 0.0
C147 C 0.28818 0.70604 0.08415 0.0
H148 H 0.90756 0.82451 0.45851 0.0
H149 H 0.84358 0.77426 0.5038 0.0
H150 H 0.85614 0.78214 0.36886 0.0
C151 C 0.89061 0.81129 0.45208 0.0
C152 C 0.88363 0.80479 0.40955 0.0
C153 C 0.87632 0.8003 0.48634 0.0
C154 C 0.85483 0.78259 0.4776 0.0
C155 C 0.84773 0.77597 0.43504 0.0
C156 C 0.86218 0.78703 0.4015 0.0
N157 N 0.82609 0.75845 0.42447 0.0
C158 C 0.8084 0.74791 0.45394 0.0
H159 H 0.13162 0.86649 0.49051 0.0
H160 H 0.17974 0.80297 0.54329 0.0
H161 H 0.15981 0.80178 0.40926 0.0
C162 C 0.14261 0.84778 0.48657 0.0
C163 C 0.14431 0.83557 0.44577 0.0
C164 C 0.15543 0.83619 0.52205 0.0
C165 C 0.16967 0.81193 0.51626 0.0
C166 C 0.17115 0.79946 0.47553 0.0
C167 C 0.15844 0.81136 0.44067 0.0
N168 N 0.18524 0.77501 0.46821 0.0
C169 C 0.20385 0.76417 0.49633 0.0
H170 H 0.11246 0.18543 0.4608 0.0
H171 H 0.14152 0.24729 0.37866 0.0
H172 H 0.14699 0.25813 0.51497 0.0
C173 C 0.12235 0.20465 0.45688 0.0
C174 C 0.12918 0.22049 0.49316 0.0
C175 C 0.12678 0.21406 0.41543 0.0
C176 C 0.13801 0.23966 0.41041 0.0
C177 C 0.1457 0.25525 0.44608 0.0
C178 C 0.14139 0.24569 0.48746 0.0
N179 N 0.15709 0.28088 0.43958 0.0
C180 C 0.18157 0.28826 0.45771 0.0
H181 H 0.84642 0.122 0.46556 0.0
H182 H 0.7803 0.16973 0.51356 0.0
H183 H 0.78466 0.14927 0.37988 0.0
C184 C 0.82807 0.13319 0.4601 0.0
C185 C 0.81775 0.13486 0.41825 0.0
C186 C 0.81458 0.14544 0.49496 0.0
C187 C 0.79084 0.16002 0.48721 0.0
C188 C 0.7802 0.16135 0.44558 0.0
C189 C 0.79344 0.14848 0.41167 0.0
N190 N 0.75572 0.17472 0.43677 0.0
C191 C 0.74688 0.19725 0.45947 0.0
H192 H 0.11035 0.09024 0.12059 0.0
H193 H 0.13476 0.13071 0.14605 0.0
H194 H 0.16329 0.1435 0.01805 0.0
H195 H 0.14029 0.10266 0.99292 0.0
H196 H 0.19197 0.14567 0.13811 0.0
H197 H 0.14985 0.21121 0.00011 0.0
H198 H 0.10807 0.21484 0.95773 0.0
H199 H 0.06346 0.17856 0.05879 0.0
H200 H 0.10484 0.17511 0.10192 0.0
H201 H 0.27726 0.24825 0.06584 0.0
H202 H 0.24851 0.20999 0.08297 0.0
H203 H 0.18667 0.26472 0.12697 0.0
H204 H 0.21543 0.30299 0.10903 0.0
H205 H 0.16674 0.23162 0.07072 0.0
H206 H 0.21922 0.22176 0.19469 0.0
H207 H 0.25944 0.21804 0.24043 0.0
H208 H 0.28154 0.14466 0.17494 0.0
H209 H 0.24163 0.14807 0.12831 0.0
C210 C 0.12189 0.10173 0.09801 0.0
C211 C 0.12339 0.09344 0.05474 0.0
C212 C 0.13577 0.12471 0.1126 0.0
C213 C 0.15036 0.14021 0.08376 0.0
C214 C 0.15194 0.13186 0.0407 0.0
C215 C 0.13882 0.10855 0.02641 0.0
C216 C 0.16357 0.16563 0.09753 0.0
C217 C 0.18649 0.16459 0.12377 0.0
C218 C 0.15565 0.19037 0.07996 0.0
C219 C 0.13054 0.19281 0.05428 0.0
C220 C 0.1311 0.20419 0.01344 0.0
C221 C 0.10748 0.20618 0.98922 0.0
C222 C 0.08313 0.19692 0.00552 0.0
C223 C 0.08233 0.1857 0.04613 0.0
C224 C 0.10588 0.18371 0.07047 0.0
C225 C 0.25786 0.25197 0.08047 0.0
C226 C 0.24845 0.27829 0.08654 0.0
C227 C 0.24146 0.23015 0.09037 0.0
C228 C 0.21544 0.23442 0.10657 0.0
C229 C 0.20667 0.26091 0.1147 0.0
C230 C 0.2231 0.28272 0.10468 0.0
C231 C 0.19637 0.2115 0.10923 0.0
C232 C 0.17221 0.21297 0.08591 0.0
C233 C 0.20308 0.1873 0.13 0.0
C234 C 0.22731 0.1852 0.15786 0.0
C235 C 0.23269 0.20489 0.18979 0.0
C236 C 0.25546 0.20282 0.21594 0.0
C237 C 0.27304 0.18113 0.2106 0.0
C238 C 0.26788 0.16144 0.17909 0.0
C239 C 0.24513 0.1634 0.15284 0.0
H240 H 0.29066 0.17957 0.23089 0.0
H241 H 0.06488 0.19844 0.98668 0.0
H242 H 0.89239 0.10044 0.01753 0.0
H243 H 0.85785 0.1354 0.02108 0.0
H244 H 0.87894 0.16061 0.8943 0.0
H245 H 0.91334 0.12558 0.89014 0.0
H246 H 0.87844 0.20256 0.95667 0.0
H247 H 0.82128 0.1316 0.90527 0.0
H248 H 0.80159 0.08609 0.90423 0.0
H249 H 0.76959 0.10005 0.03013 0.0
H250 H 0.78946 0.14552 0.03224 0.0
H251 H 0.777 0.30387 0.96869 0.0
H252 H 0.80331 0.26538 0.941 0.0
H253 H 0.78305 0.22066 0.05346 0.0
H254 H 0.75644 0.25872 0.08028 0.0
H255 H 0.78158 0.18838 0.98618 0.0
H256 H 0.84358 0.25469 0.0436 0.0
H257 H 0.86538 0.29917 0.04993 0.0
H258 H 0.89001 0.2931 0.91855 0.0
H259 H 0.86804 0.2487 0.91129 0.0
C260 C 0.88945 0.11315 0.99014 0.0
C261 C 0.90576 0.11029 0.95369 0.0
C262 C 0.86965 0.13307 0.99218 0.0
C263 C 0.86588 0.15055 0.95794 0.0
C264 C 0.88158 0.14732 0.92105 0.0
C265 C 0.90119 0.12722 0.91877 0.0
C266 C 0.84678 0.1733 0.96208 0.0
C267 C 0.85712 0.19954 0.96217 0.0
C268 C 0.81916 0.16921 0.97025 0.0
C269 C 0.80703 0.14193 0.96902 0.0
C270 C 0.81022 0.1249 0.93288 0.0
C271 C 0.799 0.09912 0.93208 0.0
C272 C 0.78438 0.09017 0.96712 0.0
C273 C 0.78092 0.10701 0.00302 0.0
C274 C 0.79214 0.13281 0.00401 0.0
C275 C 0.77793 0.28557 0.98689 0.0
C276 C 0.76482 0.28392 0.02633 0.0
C277 C 0.79303 0.26372 0.97131 0.0
C278 C 0.79541 0.24019 0.99539 0.0
C279 C 0.78147 0.23848 0.03423 0.0
C280 C 0.76633 0.2602 0.04957 0.0
C281 C 0.8133 0.21773 0.98166 0.0
C282 C 0.80277 0.19149 0.97986 0.0
C283 C 0.84088 0.22178 0.97255 0.0
C284 C 0.85384 0.24857 0.97673 0.0
C285 C 0.85342 0.26297 0.01594 0.0
C286 C 0.86585 0.28814 0.01972 0.0
C287 C 0.87898 0.299 0.98461 0.0
C288 C 0.87976 0.28469 0.94567 0.0
C289 C 0.86732 0.25953 0.94171 0.0
H290 H 0.88862 0.31848 0.98762 0.0
H291 H 0.7757 0.0702 0.96643 0.0
H292 H 0.87232 0.90803 0.90226 0.0
H293 H 0.84111 0.87055 0.91007 0.0
H294 H 0.88506 0.84492 0.02145 0.0
H295 H 0.91599 0.88254 0.01443 0.0
H296 H 0.86798 0.80322 0.98038 0.0
H297 H 0.8267 0.88818 0.02233 0.0
H298 H 0.80968 0.934 0.0117 0.0
H299 H 0.75581 0.90447 0.91367 0.0
H300 H 0.77273 0.85837 0.9235 0.0
H301 H 0.76943 0.73841 0.10282 0.0
H302 H 0.80339 0.76816 0.07276 0.0
H303 H 0.75222 0.78096 0.96296 0.0
H304 H 0.7179 0.7514 0.99375 0.0
H305 H 0.77156 0.82738 0.99364 0.0
H306 H 0.80986 0.74262 0.95461 0.0
H307 H 0.82583 0.69632 0.96548 0.0
H308 H 0.88447 0.72544 0.05659 0.0
H309 H 0.86861 0.7719 0.0467 0.0
C310 C 0.87536 0.8944 0.92845 0.0
C311 C 0.89626 0.89868 0.95837 0.0
C312 C 0.85742 0.87302 0.93294 0.0
C313 C 0.85992 0.85562 0.96758 0.0
C314 C 0.88201 0.85867 0.99548 0.0
C315 C 0.89977 0.88019 0.99136 0.0
C316 C 0.83891 0.83519 0.9764 0.0
C317 C 0.84693 0.80857 0.98352 0.0
C318 C 0.81124 0.84193 0.97931 0.0
C319 C 0.80116 0.86975 0.97348 0.0
C320 C 0.8113 0.89138 0.99845 0.0
C321 C 0.80167 0.91745 0.99254 0.0
C322 C 0.78171 0.92217 0.96197 0.0
C323 C 0.7713 0.9008 0.93731 0.0
C324 C 0.7809 0.87469 0.94305 0.0
C325 C 0.76566 0.74736 0.07202 0.0
C326 C 0.74137 0.74267 0.05027 0.0
C327 C 0.78508 0.76424 0.05477 0.0
C328 C 0.78056 0.77652 0.01526 0.0
C329 C 0.7562 0.7716 0.99335 0.0
C330 C 0.7367 0.75471 0.01076 0.0
C331 C 0.80073 0.79559 0.99831 0.0
C332 C 0.79256 0.82197 0.98986 0.0
C333 C 0.82822 0.78866 0.99416 0.0
C334 C 0.83789 0.76074 0.00013 0.0
C335 C 0.82603 0.73914 0.97719 0.0
C336 C 0.83509 0.71286 0.98314 0.0
C337 C 0.85612 0.70793 0.01177 0.0
C338 C 0.86817 0.72929 0.03444 0.0
C339 C 0.85918 0.7556 0.02863 0.0
H340 H 0.8631 0.68757 0.01633 0.0
H341 H 0.77427 0.94237 0.95744 0.0
H342 H 0.11279 0.863 0.91622 0.0
H343 H 0.14901 0.83139 0.93125 0.0
H344 H 0.1579 0.86607 0.05829 0.0
H345 H 0.1212 0.89725 0.04404 0.0
H346 H 0.20038 0.83388 0.95259 0.0
H347 H 0.17133 0.8173 0.1285 0.0
H348 H 0.13154 0.82142 0.17514 0.0
H349 H 0.0796 0.80737 0.06673 0.0
H350 H 0.11906 0.80284 0.01957 0.0
H351 H 0.2995 0.75776 0.06697 0.0
H352 H 0.26758 0.79175 0.04154 0.0
H353 H 0.20502 0.73153 0.03509 0.0
H354 H 0.2369 0.69773 0.06074 0.0
H355 H 0.18895 0.7757 0.07839 0.0
H356 H 0.23251 0.75555 0.94504 0.0
H357 H 0.27043 0.75027 0.89503 0.0
H358 H 0.29037 0.83381 0.91257 0.0
H359 H 0.25285 0.83949 0.96329 0.0
C360 C 0.1225 0.86399 0.94733 0.0
C361 C 0.11372 0.88228 0.97925 0.0
C362 C 0.1433 0.84599 0.95578 0.0
C363 C 0.15572 0.84598 0.99621 0.0
C364 C 0.14813 0.86531 0.02722 0.0
C365 C 0.12718 0.88316 0.01896 0.0
C366 C 0.1755 0.82481 0.00665 0.0
C367 C 0.19798 0.8212 0.98017 0.0
C368 C 0.17206 0.808 0.04226 0.0
C369 C 0.14816 0.80999 0.07047 0.0
C370 C 0.15142 0.81496 0.11467 0.0
C371 C 0.12893 0.8174 0.14119 0.0
C372 C 0.10307 0.81475 0.12389 0.0
C373 C 0.09964 0.80951 0.08007 0.0
C374 C 0.12206 0.80702 0.05343 0.0
C375 C 0.27899 0.75188 0.05948 0.0
C376 C 0.27039 0.7254 0.06555 0.0
C377 C 0.26085 0.77118 0.04491 0.0
C378 C 0.23396 0.76411 0.03631 0.0
C379 C 0.22566 0.73738 0.04158 0.0
C380 C 0.2438 0.71813 0.05605 0.0
C381 C 0.21401 0.78483 0.0245 0.0
C382 C 0.19148 0.78841 0.05087 0.0
C383 C 0.21726 0.80133 0.98849 0.0
C384 C 0.24006 0.79785 0.95841 0.0
C385 C 0.24517 0.77272 0.93864 0.0
C386 C 0.26655 0.76967 0.91008 0.0
C387 C 0.28286 0.79167 0.90075 0.0
C388 C 0.27777 0.81677 0.91991 0.0
C389 C 0.25645 0.81991 0.94858 0.0
H390 H 0.29938 0.78927 0.87858 0.0
H391 H 0.08569 0.81671 0.14445 0.0
H392 H 0.60586 0.61614 0.48732 0.0
H393 H 0.64169 0.64932 0.4848 0.0
H394 H 0.64654 0.65103 0.62284 0.0
H395 H 0.61112 0.61687 0.62559 0.0
H396 H 0.65084 0.69827 0.51095 0.0
H397 H 0.71195 0.65941 0.65213 0.0
H398 H 0.71654 0.61857 0.69525 0.0
H399 H 0.69262 0.56959 0.58679 0.0
H400 H 0.68815 0.61012 0.543 0.0
H401 H 0.77161 0.77354 0.50306 0.0
H402 H 0.7328 0.75267 0.53791 0.0
H403 H 0.76065 0.67433 0.49565 0.0
H404 H 0.7995 0.69518 0.46168 0.0
H405 H 0.73858 0.67138 0.57326 0.0
H406 H 0.7158 0.70982 0.43607 0.0
H407 H 0.71176 0.74667 0.38471 0.0
H408 H 0.66031 0.79004 0.47186 0.0
H409 H 0.66434 0.75354 0.52395 0.0
C410 C 0.61425 0.62377 0.51724 0.0
C411 C 0.60591 0.61357 0.55663 0.0
C412 C 0.63472 0.64288 0.51575 0.0
C413 C 0.64712 0.65239 0.55358 0.0
C414 C 0.63763 0.64358 0.59319 0.0
C415 C 0.61735 0.62411 0.5947 0.0
C416 C 0.67129 0.66974 0.55063 0.0
C417 C 0.66993 0.69263 0.52518 0.0
C418 C 0.69629 0.66231 0.56887 0.0
C419 C 0.69944 0.63778 0.59454 0.0
C420 C 0.70777 0.6399 0.63751 0.0
C421 C 0.71032 0.61683 0.66205 0.0
C422 C 0.70478 0.59151 0.64381 0.0
C423 C 0.69681 0.58921 0.60092 0.0
C424 C 0.69426 0.61222 0.57625 0.0
C425 C 0.76963 0.75183 0.5023 0.0
C426 C 0.7882 0.73578 0.47996 0.0
C427 C 0.74752 0.73996 0.52199 0.0
C428 C 0.74369 0.71197 0.51895 0.0
C429 C 0.76324 0.69593 0.49856 0.0
C430 C 0.78533 0.70779 0.47907 0.0
C431 C 0.71819 0.69943 0.53266 0.0
C432 C 0.71932 0.67751 0.5602 0.0
C433 C 0.6931 0.70725 0.5153 0.0
C434 C 0.69066 0.72917 0.48408 0.0
C435 C 0.7038 0.72732 0.44438 0.0
C436 C 0.70149 0.74811 0.41514 0.0
C437 C 0.68587 0.77072 0.42508 0.0
C438 C 0.67246 0.77255 0.46425 0.0
C439 C 0.67475 0.75182 0.49364 0.0
H440 H 0.68409 0.7868 0.40239 0.0
H441 H 0.70672 0.57368 0.66288 0.0
H442 H 0.38699 0.6038 0.50752 0.0
H443 H 0.34881 0.63423 0.51028 0.0
H444 H 0.36331 0.64953 0.64486 0.0
H445 H 0.40204 0.61903 0.64237 0.0
H446 H 0.30324 0.63272 0.5521 0.0
H447 H 0.34173 0.71461 0.66779 0.0
H448 H 0.3846 0.73316 0.69566 0.0
H449 H 0.42382 0.71071 0.57811 0.0
H450 H 0.38113 0.69231 0.54943 0.0
H451 H 0.19761 0.7275 0.55818 0.0
H452 H 0.23336 0.69966 0.58912 0.0
H453 H 0.29253 0.74261 0.51636 0.0
H454 H 0.2569 0.77064 0.4863 0.0
H455 H 0.31309 0.7292 0.59285 0.0
H456 H 0.26339 0.68497 0.47681 0.0
H457 H 0.22249 0.66697 0.4415 0.0
H458 H 0.20915 0.61489 0.54732 0.0
H459 H 0.24983 0.63285 0.58347 0.0
C460 C 0.38215 0.61354 0.53783 0.0
C461 C 0.39773 0.60902 0.57468 0.0
C462 C 0.36018 0.6309 0.53938 0.0
C463 C 0.3532 0.64425 0.57771 0.0
C464 C 0.36851 0.63968 0.6148 0.0
C465 C 0.39058 0.62217 0.61333 0.0
C466 C 0.33005 0.6631 0.57783 0.0
C467 C 0.30532 0.65374 0.56156 0.0
C468 C 0.33267 0.69053 0.59018 0.0
C469 C 0.35835 0.70184 0.60673 0.0
C470 C 0.35951 0.71371 0.64789 0.0
C471 C 0.38376 0.72418 0.66382 0.0
C472 C 0.40694 0.72303 0.63873 0.0
C473 C 0.40588 0.7115 0.59757 0.0
C474 C 0.38167 0.70103 0.58149 0.0
C475 C 0.21837 0.73134 0.54985 0.0
C476 C 0.22477 0.75099 0.52004 0.0
C477 C 0.23873 0.71544 0.56735 0.0
C478 C 0.2656 0.71882 0.55463 0.0
C479 C 0.272 0.73968 0.52676 0.0
C480 C 0.25168 0.7556 0.50949 0.0
C481 C 0.28661 0.69892 0.56591 0.0
C482 C 0.31083 0.70803 0.58447 0.0
C483 C 0.28378 0.67132 0.55477 0.0
C484 C 0.25939 0.66049 0.53306 0.0
C485 C 0.2516 0.66982 0.49266 0.0
C486 C 0.22849 0.65961 0.47249 0.0
C487 C 0.21317 0.63987 0.49223 0.0
C488 C 0.22099 0.63024 0.53213 0.0
C489 C 0.24406 0.64042 0.55248 0.0
H490 H 0.19529 0.63198 0.47656 0.0
H491 H 0.4257 0.73112 0.65113 0.0
H492 H 0.42085 0.38109 0.50363 0.0
H493 H 0.38337 0.35046 0.48955 0.0
H494 H 0.34335 0.38055 0.60293 0.0
H495 H 0.3808 0.41125 0.61744 0.0
H496 H 0.33392 0.32607 0.58757 0.0
H497 H 0.3326 0.40948 0.5111 0.0
H498 H 0.35207 0.44327 0.46357 0.0
H499 H 0.35398 0.38503 0.36037 0.0
H500 H 0.33526 0.3506 0.40767 0.0
H501 H 0.1952 0.31158 0.53358 0.0
H502 H 0.24023 0.32742 0.55508 0.0
H503 H 0.2721 0.29817 0.43454 0.0
H504 H 0.22704 0.28267 0.41303 0.0
H505 H 0.28794 0.34871 0.45157 0.0
H506 H 0.28625 0.26597 0.52668 0.0
H507 H 0.2679 0.23197 0.57491 0.0
H508 H 0.27101 0.28893 0.67998 0.0
H509 H 0.28902 0.32343 0.63222 0.0
C510 C 0.40433 0.3809 0.52604 0.0
C511 C 0.40344 0.39917 0.56099 0.0
C512 C 0.38298 0.36328 0.518 0.0
C513 C 0.36037 0.36375 0.54466 0.0
C514 C 0.36058 0.38005 0.58183 0.0
C515 C 0.38198 0.39765 0.58998 0.0
C516 C 0.33527 0.35006 0.53104 0.0
C517 C 0.32374 0.33105 0.55797 0.0
C518 C 0.32233 0.35639 0.49202 0.0
C519 C 0.33291 0.37731 0.46316 0.0
C520 C 0.33741 0.40377 0.4784 0.0
C521 C 0.34835 0.42304 0.4515 0.0
C522 C 0.35445 0.41624 0.40905 0.0
C523 C 0.34942 0.39021 0.39334 0.0
C524 C 0.33869 0.37079 0.4202 0.0
C525 C 0.21198 0.30838 0.51206 0.0
C526 C 0.20805 0.29601 0.47187 0.0
C527 C 0.23762 0.31727 0.52432 0.0
C528 C 0.25955 0.31377 0.49651 0.0
C529 C 0.25548 0.30104 0.45647 0.0
C530 C 0.22987 0.29216 0.44428 0.0
C531 C 0.2864 0.32467 0.50817 0.0
C532 C 0.29822 0.34336 0.48091 0.0
C533 C 0.29954 0.31808 0.54688 0.0
C534 C 0.28876 0.29737 0.57575 0.0
C535 C 0.28281 0.27132 0.55998 0.0
C536 C 0.27251 0.25194 0.58726 0.0
C537 C 0.26823 0.2583 0.63046 0.0
C538 C 0.27431 0.28404 0.64649 0.0
C539 C 0.28459 0.30351 0.61934 0.0
H540 H 0.26025 0.24327 0.65152 0.0
H541 H 0.36297 0.43116 0.38832 0.0
H542 H 0.62019 0.41853 0.49089 0.0
H543 H 0.65409 0.38342 0.48203 0.0
H544 H 0.62583 0.34551 0.5965 0.0
H545 H 0.59269 0.38145 0.60669 0.0
H546 H 0.67796 0.33959 0.59129 0.0
H547 H 0.60394 0.32567 0.49337 0.0
H548 H 0.57189 0.33737 0.43614 0.0
H549 H 0.63736 0.34932 0.3495 0.0
H550 H 0.66984 0.33802 0.40637 0.0
H551 H 0.71705 0.20416 0.53103 0.0
H552 H 0.69426 0.24593 0.55393 0.0
H553 H 0.73012 0.28737 0.44837 0.0
H554 H 0.75274 0.24572 0.4256 0.0
H555 H 0.67557 0.29201 0.45019 0.0
H556 H 0.74938 0.30235 0.54871 0.0
H557 H 0.78033 0.28871 0.60623 0.0
H558 H 0.71384 0.2813 0.69237 0.0
H559 H 0.68242 0.29449 0.63515 0.0
C560 C 0.62145 0.4029 0.51449 0.0
C561 C 0.60357 0.40245 0.54912 0.0
C562 C 0.64076 0.38279 0.50931 0.0
C563 C 0.64197 0.36138 0.53788 0.0
C564 C 0.62514 0.36172 0.57387 0.0
C565 C 0.60618 0.38222 0.57961 0.0
C566 C 0.65952 0.33786 0.52869 0.0
C567 C 0.67726 0.32901 0.5606 0.0
C568 C 0.65886 0.32425 0.48841 0.0
C569 C 0.63933 0.33118 0.45423 0.0
C570 C 0.61151 0.33096 0.4622 0.0
C571 C 0.59327 0.33749 0.42981 0.0
C572 C 0.60259 0.34402 0.38921 0.0
C573 C 0.63018 0.34419 0.38095 0.0
C574 C 0.64851 0.33772 0.41323 0.0
C575 C 0.72041 0.22242 0.51347 0.0
C576 C 0.73651 0.2221 0.4768 0.0
C577 C 0.70751 0.24619 0.52653 0.0
C578 C 0.7106 0.26973 0.50287 0.0
C579 C 0.72753 0.26944 0.46706 0.0
C580 C 0.74045 0.24577 0.45417 0.0
C581 C 0.69413 0.29386 0.51262 0.0
C582 C 0.67642 0.3027 0.48081 0.0
C583 C 0.69464 0.30716 0.55305 0.0
C584 C 0.7135 0.29914 0.58747 0.0
C585 C 0.74131 0.29755 0.57978 0.0
C586 C 0.75895 0.28996 0.61237 0.0
C587 C 0.74905 0.28407 0.65289 0.0
C588 C 0.72148 0.28583 0.66094 0.0
C589 C 0.70375 0.29338 0.62845 0.0
H590 H 0.76274 0.27821 0.67808 0.0
H591 H 0.58845 0.34886 0.36408 0.0
H592 H 0.04081 0.04288 0.12612 0.0
H593 H 0.06727 0.06531 0.18226 0.0
H594 H 0.0396 0.14233 0.13817 0.0
H595 H 0.01518 0.11969 0.07944 0.0
H596 H 0.08849 0.14711 0.16028 0.0
H597 H 0.01094 0.11185 0.24735 0.0
H598 H 0.98111 0.07496 0.26986 0.0
H599 H 0.04982 0.02484 0.29219 0.0
H600 H 0.08001 0.06175 0.27099 0.0
H601 H 0.09996 0.23005 0.34388 0.0
H602 H 0.08625 0.20237 0.28211 0.0
H603 H 0.12255 0.13282 0.33927 0.0
H604 H 0.1361 0.16046 0.40149 0.0
H605 H 0.07462 0.12068 0.31075 0.0
H606 H 0.15078 0.16237 0.25199 0.0
H607 H 0.18131 0.19955 0.23505 0.0
H608 H 0.12028 0.2349 0.15643 0.0
H609 H 0.08891 0.19842 0.17434 0.0
C610 C 0.04115 0.06456 0.12771 0.0
C611 C 0.02648 0.07956 0.09818 0.0
C612 C 0.05558 0.07741 0.16062 0.0
C613 C 0.05476 0.10553 0.16552 0.0
C614 C 0.04045 0.1206 0.13534 0.0
C615 C 0.0264 0.10771 0.10195 0.0
C616 C 0.06876 0.11939 0.20184 0.0
C617 C 0.08543 0.1414 0.19318 0.0
C618 C 0.06553 0.11146 0.24478 0.0
C619 C 0.04756 0.08922 0.25681 0.0
C620 C 0.01958 0.09284 0.25669 0.0
C621 C 0.00266 0.07202 0.26936 0.0
C622 C 0.01355 0.04746 0.28183 0.0
C623 C 0.04142 0.04381 0.28229 0.0
C624 C 0.05844 0.06472 0.27027 0.0
C625 C 0.10533 0.20893 0.34302 0.0
C626 C 0.11912 0.1974 0.37744 0.0
C627 C 0.09755 0.19314 0.30765 0.0
C628 C 0.10372 0.16559 0.30577 0.0
C629 C 0.11763 0.15404 0.34002 0.0
C630 C 0.12527 0.16981 0.37556 0.0
C631 C 0.09415 0.14864 0.26918 0.0
C632 C 0.07823 0.12613 0.27781 0.0
C633 C 0.09858 0.15583 0.22618 0.0
C634 C 0.11738 0.17777 0.21491 0.0
C635 C 0.14374 0.17821 0.23146 0.0
C636 C 0.1612 0.19919 0.22171 0.0
C637 C 0.15272 0.21967 0.19484 0.0
C638 C 0.12676 0.21913 0.1775 0.0
C639 C 0.1091 0.19832 0.18754 0.0
H640 H 0.16629 0.23589 0.18732 0.0
H641 H 0.00041 0.03134 0.29145 0.0
H642 H 0.92454 0.05874 0.0577 0.0
H643 H 0.9036 0.08168 0.11904 0.0
H644 H 0.91831 0.01203 0.19605 0.0
H645 H 0.93831 0.9889 0.13452 0.0
H646 H 0.8695 0.02837 0.20845 0.0
H647 H 0.95543 0.07135 0.2025 0.0
H648 H 0.9924 0.09695 0.17149 0.0
H649 H 0.93996 0.16451 0.15405 0.0
H650 H 0.90241 0.13907 0.18501 0.0
H651 H 0.84273 0.08562 0.41356 0.0
H652 H 0.86518 0.065 0.3516 0.0
H653 H 0.84655 0.1347 0.27695 0.0
H654 H 0.82519 0.1559 0.33914 0.0
H655 H 0.89631 0.11901 0.2624 0.0
H656 H 0.81003 0.07576 0.26655 0.0
H657 H 0.77309 0.05035 0.29921 0.0
H658 H 0.8262 0.98368 0.31936 0.0
H659 H 0.86358 0.00884 0.28734 0.0
C660 C 0.92371 0.04859 0.08786 0.0
C661 C 0.93323 0.02217 0.09133 0.0
C662 C 0.91166 0.06164 0.12294 0.0
C663 C 0.90949 0.04865 0.16236 0.0
C664 C 0.91957 0.02244 0.16599 0.0
C665 C 0.93116 0.0093 0.13083 0.0
C666 C 0.89627 0.06192 0.19976 0.0
C667 C 0.87562 0.04806 0.22052 0.0
C668 C 0.90365 0.08794 0.21487 0.0
C669 C 0.92607 0.10322 0.19586 0.0
C670 C 0.95171 0.09161 0.19184 0.0
C671 C 0.97279 0.10612 0.17418 0.0
C672 C 0.9686 0.13239 0.16058 0.0
C673 C 0.94321 0.14416 0.16459 0.0
C674 C 0.92201 0.1297 0.18226 0.0
C675 C 0.84372 0.09669 0.38412 0.0
C676 C 0.83203 0.12234 0.38122 0.0
C677 C 0.85628 0.08476 0.34858 0.0
C678 C 0.85715 0.09814 0.30942 0.0
C679 C 0.84598 0.12394 0.30674 0.0
C680 C 0.83357 0.13592 0.34224 0.0
C681 C 0.86976 0.08537 0.27116 0.0
C682 C 0.8902 0.09934 0.2502 0.0
C683 C 0.86214 0.0595 0.25578 0.0
C684 C 0.83966 0.04429 0.27492 0.0
C685 C 0.81389 0.05576 0.27824 0.0
C686 C 0.79286 0.04139 0.29659 0.0
C687 C 0.79731 0.01544 0.31145 0.0
C688 C 0.82279 0.00379 0.30789 0.0
C689 C 0.8439 0.01809 0.28961 0.0
H690 H 0.781 0.00435 0.32564 0.0
H691 H 0.98499 0.14367 0.14706 0.0
H692 H 0.97997 0.87426 0.05044 0.0
H693 H 0.95545 0.85466 0.11036 0.0
H694 H 0.94732 0.9336 0.16871 0.0
H695 H 0.97144 0.95315 0.10849 0.0
H696 H 0.97622 0.89474 0.21742 0.0
H697 H 0.89252 0.90455 0.1428 0.0
H698 H 0.85532 0.89958 0.09074 0.0
H699 H 0.8592 0.81368 0.10037 0.0
H700 H 0.89676 0.81805 0.15186 0.0
H701 H 0.89971 0.85715 0.4018 0.0
H702 H 0.91903 0.87808 0.33871 0.0
H703 H 0.9188 0.8012 0.27217 0.0
H704 H 0.89993 0.78008 0.33523 0.0
H705 H 0.89337 0.8399 0.22765 0.0
H706 H 0.9754 0.82953 0.30411 0.0
H707 H 0.00783 0.83409 0.36365 0.0
H708 H 0.00708 0.91994 0.35188 0.0
H709 H 0.97402 0.91602 0.293 0.0
C710 C 0.97195 0.88743 0.0753 0.0
C711 C 0.977 0.91517 0.07481 0.0
C712 C 0.95798 0.87629 0.1094 0.0
C713 C 0.94953 0.89273 0.1438 0.0
C714 C 0.95345 0.92065 0.1422 0.0
C715 C 0.96697 0.93182 0.10774 0.0
C716 C 0.9408 0.88041 0.1841 0.0
C717 C 0.95785 0.8831 0.21998 0.0
C718 C 0.91743 0.86437 0.18663 0.0
C719 C 0.89763 0.86165 0.15107 0.0
C720 C 0.8859 0.88458 0.1331 0.0
C721 C 0.86454 0.88186 0.104 0.0
C722 C 0.85466 0.85633 0.09283 0.0
C723 C 0.86669 0.83343 0.10949 0.0
C724 C 0.88807 0.83602 0.13847 0.0
C725 C 0.90435 0.8446 0.37408 0.0
C726 C 0.89805 0.81701 0.37331 0.0
C727 C 0.91535 0.85659 0.33806 0.0
C728 C 0.92027 0.84117 0.30082 0.0
C729 C 0.91498 0.81346 0.30057 0.0
C730 C 0.90409 0.80146 0.33652 0.0
C731 C 0.92872 0.85419 0.2609 0.0
C732 C 0.91175 0.85152 0.22508 0.0
C733 C 0.95225 0.87004 0.25837 0.0
C734 C 0.97181 0.87249 0.29444 0.0
C735 C 0.98171 0.84944 0.31467 0.0
C736 C 0.00028 0.8519 0.34829 0.0
C737 C 0.00939 0.87729 0.36171 0.0
C738 C -6e-05 0.90028 0.34153 0.0
C739 C 0.98125 0.89795 0.30806 0.0
H740 H 0.02379 0.87916 0.38768 0.0
H741 H 0.83782 0.85418 0.07099 0.0
H742 H 0.04132 0.98797 0.16089 0.0
H743 H 0.04956 0.95987 0.22289 0.0
H744 H 0.08948 0.90126 0.14176 0.0
H745 H 0.08102 0.92933 0.07961 0.0
H746 H 0.061 0.87749 0.20734 0.0
H747 H 0.12502 0.94993 0.18997 0.0
H748 H 0.13747 0.99756 0.18171 0.0
H749 H 0.10217 0.01721 0.30352 0.0
H750 H 0.08888 0.96981 0.312 0.0
H751 H 0.17052 0.85131 0.3747 0.0
H752 H 0.15153 0.87312 0.31164 0.0
H753 H 0.07258 0.87021 0.36773 0.0
H754 H 0.0917 0.84906 0.43175 0.0
H755 H 0.11936 0.92395 0.31502 0.0
H756 H 0.03265 0.85229 0.26645 0.0
H757 H 0.01993 0.80453 0.2725 0.0
H758 H 0.1033 0.78246 0.27973 0.0
H759 H 0.11645 0.82997 0.27316 0.0
C760 C 0.05131 0.96879 0.15614 0.0
C761 C 0.06062 0.96078 0.11543 0.0
C762 C 0.05599 0.95277 0.19156 0.0
C763 C 0.07055 0.92873 0.18702 0.0
C764 C 0.07819 0.91975 0.14594 0.0
C765 C 0.07326 0.93571 0.11036 0.0
C766 C 0.08049 0.9147 0.22541 0.0
C767 C 0.07362 0.88765 0.23105 0.0
C768 C 0.09719 0.92797 0.25609 0.0
C769 C 0.10574 0.95636 0.25143 0.0
C770 C 0.11975 0.96445 0.21486 0.0
C771 C 0.12692 0.99141 0.2101 0.0
C772 C 0.12049 0.01043 0.24197 0.0
C773 C 0.10701 0.00249 0.27876 0.0
C774 C 0.09964 0.97558 0.28355 0.0
C775 C 0.14911 0.85535 0.37351 0.0
C776 C 0.13252 0.84861 0.4079 0.0
C777 C 0.13833 0.86779 0.33762 0.0
C778 C 0.11067 0.87308 0.33505 0.0
C779 C 0.09394 0.86612 0.36916 0.0
C780 C 0.10485 0.8542 0.4056 0.0
C781 C 0.09968 0.88679 0.29719 0.0
C782 C 0.10645 0.91385 0.29164 0.0
C783 C 0.08302 0.87348 0.26661 0.0
C784 C 0.07547 0.84479 0.27048 0.0
C785 C 0.04823 0.83723 0.26959 0.0
C786 C 0.04095 0.81021 0.27297 0.0
C787 C 0.06079 0.7905 0.27687 0.0
C788 C 0.08794 0.79777 0.27712 0.0
C789 C 0.09531 0.82477 0.27374 0.0
H790 H 0.05512 0.76958 0.27946 0.0
H791 H 0.12602 0.03131 0.23822 0.0
H792 H 0.12642 0.92245 0.91299 0.0
H793 H 0.13413 0.89747 0.84631 0.0
H794 H 0.14936 0.97195 0.78204 0.0
H795 H 0.1401 0.99711 0.84834 0.0
H796 H 0.11594 0.94259 0.73691 0.0
H797 H 0.2009 0.92412 0.80727 0.0
H798 H 0.22888 0.90867 0.8674 0.0
H799 H 0.19242 0.83049 0.85769 0.0
H800 H 0.1641 0.84552 0.79758 0.0
H801 H 0.16304 0.88947 0.54122 0.0
H802 H 0.1606 0.91199 0.61133 0.0
H803 H 0.14314 0.83614 0.66986 0.0
H804 H 0.14589 0.81341 0.59966 0.0
H805 H 0.1774 0.86465 0.71885 0.0
H806 H 0.09306 0.88138 0.65055 0.0
H807 H 0.06259 0.89565 0.59277 0.0
H808 H 0.09486 0.9757 0.60165 0.0
H809 H 0.1258 0.9618 0.65911 0.0
C810 C 0.13138 0.93351 0.88471 0.0
C811 C 0.13216 0.96177 0.88588 0.0
C812 C 0.13615 0.91916 0.84661 0.0
C813 C 0.14255 0.93277 0.80906 0.0
C814 C 0.14438 0.96098 0.81055 0.0
C815 C 0.1392 0.97535 0.84854 0.0
C816 C 0.14561 0.91786 0.76763 0.0
C817 C 0.12978 0.92588 0.73281 0.0
C818 C 0.16277 0.89528 0.76269 0.0
C819 C 0.18029 0.886 0.79806 0.0
C820 C 0.19881 0.90365 0.81801 0.0
C821 C 0.21474 0.89496 0.85206 0.0
C822 C 0.21241 0.86862 0.86636 0.0
C823 C 0.19422 0.85087 0.84652 0.0
C824 C 0.17829 0.85944 0.81238 0.0
C825 C 0.15854 0.87761 0.56899 0.0
C826 C 0.15439 0.84972 0.56487 0.0
C827 C 0.1572 0.89049 0.60907 0.0
C828 C 0.15129 0.87583 0.64582 0.0
C829 C 0.14773 0.84786 0.64197 0.0
C830 C 0.14928 0.83492 0.60186 0.0
C831 C 0.14819 0.88987 0.68797 0.0
C832 C 0.16377 0.88153 0.72294 0.0
C833 C 0.13057 0.91202 0.69332 0.0
C834 C 0.11193 0.92048 0.65884 0.0
C835 C 0.0938 0.90197 0.63995 0.0
C836 C 0.07643 0.91 0.6073 0.0
C837 C 0.07684 0.93654 0.59347 0.0
C838 C 0.09459 0.95513 0.61235 0.0
C839 C 0.11204 0.9472 0.64499 0.0
H840 H 0.06337 0.94272 0.56818 0.0
H841 H 0.22473 0.86196 0.89277 0.0
H842 H 0.00778 0.16146 0.84307 0.0
H843 H 0.03253 0.18257 0.78535 0.0
H844 H 0.05963 0.10464 0.74045 0.0
H845 H 0.035 0.08329 0.79826 0.0
H846 H 0.1002 0.14255 0.74052 0.0
H847 H 0.00951 0.13386 0.68531 0.0
H848 H 0.96019 0.13888 0.68822 0.0
H849 H 0.96887 0.22428 0.70631 0.0
H850 H 0.0183 0.21978 0.70274 0.0
H851 H 0.13464 0.17004 0.52552 0.0
H852 H 0.11681 0.15356 0.59282 0.0
H853 H 0.08918 0.23347 0.62619 0.0
H854 H 0.10627 0.24994 0.55824 0.0
H855 H 0.04999 0.19709 0.63552 0.0
H856 H 0.14199 0.20509 0.6794 0.0
H857 H 0.19102 0.1985 0.67422 0.0
H858 H 0.18024 0.1129 0.67799 0.0
H859 H 0.13109 0.11894 0.68257 0.0
C860 C 0.01912 0.14879 0.8211 0.0
C861 C 0.01934 0.12068 0.82516 0.0
C862 C 0.03318 0.16089 0.78805 0.0
C863 C 0.0477 0.14514 0.75843 0.0
C864 C 0.04854 0.11714 0.76301 0.0
C865 C 0.0344 0.10499 0.79598 0.0
C866 C 0.06143 0.15781 0.72201 0.0
C867 C 0.08926 0.15429 0.71728 0.0
C868 C 0.04718 0.17359 0.69237 0.0
C869 C 0.01754 0.17647 0.69412 0.0
C870 C 0.00088 0.1537 0.69004 0.0
C871 C 0.97292 0.15645 0.69172 0.0
C872 C 0.9614 0.18185 0.69782 0.0
C873 C 0.97782 0.2046 0.7017 0.0
C874 C 0.0058 0.20199 0.69959 0.0
C875 C 0.12495 0.18415 0.54735 0.0
C876 C 0.12177 0.21127 0.53647 0.0
C877 C 0.11497 0.17475 0.58598 0.0
C878 C 0.10178 0.19231 0.61468 0.0
C879 C 0.09933 0.21958 0.60454 0.0
C880 C 0.10933 0.22901 0.56588 0.0
C881 C 0.08891 0.18178 0.65368 0.0
C882 C 0.06113 0.18564 0.65891 0.0
C883 C 0.10324 0.16619 0.68361 0.0
C884 C 0.13282 0.16248 0.68098 0.0
C885 C 0.15005 0.18485 0.67879 0.0
C886 C 0.17787 0.18121 0.67602 0.0
C887 C 0.18873 0.1553 0.67569 0.0
C888 C 0.1718 0.13296 0.67822 0.0
C889 C 0.14395 0.13648 0.68096 0.0
H890 H 0.21028 0.15253 0.67355 0.0
H891 H 0.93975 0.1839 0.69941 0.0
H892 H 0.9155 0.00964 0.78473 0.0
H893 H 0.89876 0.03683 0.72642 0.0
H894 H 0.87237 0.09765 0.81732 0.0
H895 H 0.88938 0.0705 0.87622 0.0
H896 H 0.84855 0.05136 0.71018 0.0
H897 H 0.87607 0.15923 0.76614 0.0
H898 H 0.90998 0.18219 0.81191 0.0
H899 H 0.96629 0.11858 0.78579 0.0
H900 H 0.93289 0.09542 0.73983 0.0
H901 H 0.78453 0.13526 0.56597 0.0
H902 H 0.80066 0.1218 0.63623 0.0
H903 H 0.88266 0.13118 0.59473 0.0
H904 H 0.86668 0.1458 0.52476 0.0
H905 H 0.87721 0.14474 0.68031 0.0
H906 H 0.85319 0.0715 0.58347 0.0
H907 H 0.82294 0.04606 0.53465 0.0
H908 H 0.76638 0.0363 0.6366 0.0
H909 H 0.79615 0.06206 0.68588 0.0
C910 C 0.90625 0.02884 0.79246 0.0
C911 C 0.90371 0.03787 0.83516 0.0
C912 C 0.89664 0.04434 0.75904 0.0
C913 C 0.8843 0.06923 0.76748 0.0
C914 C 0.88202 0.07858 0.81005 0.0
C915 C 0.89171 0.06303 0.84365 0.0
C916 C 0.87322 0.08473 0.7314 0.0
C917 C 0.85467 0.07186 0.70391 0.0
C918 C 0.88141 0.11137 0.72298 0.0
C919 C 0.90185 0.12547 0.74992 0.0
C920 C 0.89573 0.15021 0.77011 0.0
C921 C 0.91486 0.16324 0.79617 0.0
C922 C 0.94025 0.15179 0.802 0.0
C923 C 0.94658 0.12734 0.78169 0.0
C924 C 0.92753 0.11424 0.75566 0.0
C925 C 0.80599 0.13531 0.5721 0.0
C926 C 0.82432 0.14124 0.53945 0.0
C927 C 0.81517 0.12746 0.61228 0.0
C928 C 0.84285 0.12507 0.62045 0.0
C929 C 0.86121 0.1328 0.58905 0.0
C930 C 0.85204 0.14082 0.54889 0.0
C931 C 0.85255 0.11128 0.65924 0.0
C932 C 0.87078 0.12442 0.68713 0.0
C933 C 0.84457 0.08458 0.66769 0.0
C934 C 0.82674 0.06895 0.6382 0.0
C935 C 0.83421 0.06409 0.59538 0.0
C936 C 0.81717 0.0496 0.56764 0.0
C937 C 0.79272 0.03963 0.58248 0.0
C938 C 0.7853 0.04408 0.62513 0.0
C939 C 0.80224 0.05862 0.65298 0.0
H940 H 0.77956 0.02841 0.56097 0.0
H941 H 0.95504 0.16191 0.82212 0.0
H942 H 0.98521 0.83438 0.86303 0.0
H943 H 0.95665 0.81736 0.80432 0.0
H944 H 0.96406 0.89324 0.74092 0.0
H945 H 0.99252 0.91039 0.79922 0.0
H946 H 0.91182 0.87322 0.73921 0.0
H947 H 0.0026 0.84246 0.7099 0.0
H948 H 0.04481 0.81885 0.72697 0.0
H949 H 0.00128 0.74489 0.74023 0.0
H950 H 0.95874 0.76819 0.72374 0.0
H951 H 0.88953 0.84979 0.51949 0.0
H952 H 0.90597 0.86078 0.59144 0.0
H953 H 0.89672 0.77786 0.62678 0.0
H954 H 0.88104 0.76652 0.55415 0.0
H955 H 0.94489 0.79658 0.64995 0.0
H956 H 0.85477 0.82627 0.6677 0.0
H957 H 0.81281 0.85006 0.64994 0.0
H958 H 0.85421 0.92579 0.65858 0.0
H959 H 0.89654 0.90244 0.67577 0.0
C960 C 0.98063 0.84747 0.83669 0.0
C961 C 0.99129 0.87365 0.83557 0.0
C962 C 0.96434 0.83772 0.80322 0.0
C963 C 0.95841 0.85402 0.76826 0.0
C964 C 0.96839 0.88038 0.76769 0.0
C965 C 0.98478 0.89008 0.80091 0.0
C966 C 0.94285 0.84341 0.73114 0.0
C967 C 0.91902 0.85653 0.71953 0.0
C968 C 0.95193 0.82114 0.70636 0.0
C969 C 0.97748 0.80712 0.71612 0.0
C970 C 0.00201 0.82121 0.71682 0.0
C971 C 0.02599 0.80788 0.72631 0.0
C972 C 0.02571 0.7804 0.73482 0.0
C973 C 0.00145 0.76618 0.73372 0.0
C974 C 0.97741 0.77944 0.72428 0.0
C975 C 0.89096 0.83389 0.54258 0.0
C976 C 0.88415 0.80726 0.5311 0.0
C977 C 0.90005 0.84025 0.58386 0.0
C978 C 0.90228 0.82019 0.61464 0.0
C979 C 0.89501 0.79366 0.60356 0.0
C980 C 0.88591 0.78726 0.56217 0.0
C981 C 0.91404 0.82676 0.65726 0.0
C982 C 0.93726 0.81292 0.66997 0.0
C983 C 0.90434 0.84837 0.68304 0.0
C984 C 0.8789 0.86255 0.67276 0.0
C985 C 0.85499 0.84798 0.6655 0.0
C986 C 0.83113 0.8614 0.65558 0.0
C987 C 0.83086 0.88942 0.65306 0.0
C988 C 0.85445 0.90409 0.66053 0.0
C989 C 0.87838 0.89077 0.67043 0.0
H990 H 0.81236 0.89977 0.64539 0.0
H991 H 0.0443 0.77011 0.74216 0.0
H992 H 0.57303 0.57053 0.66826 0.0
H993 H 0.60206 0.59455 0.71895 0.0
H994 H 0.53241 0.63204 0.77629 0.0
H995 H 0.50342 0.60892 0.72441 0.0
H996 H 0.57135 0.6678 0.76922 0.0
H997 H 0.56518 0.57597 0.81989 0.0
H998 H 0.57095 0.52665 0.81665 0.0
H999 H 0.65546 0.53646 0.79403 0.0
H1000 H 0.65015 0.58583 0.79669 0.0
H1001 H 0.60034 0.69441 0.9855 0.0
H1002 H 0.58571 0.68154 0.91338 0.0
H1003 H 0.66613 0.65477 0.88342 0.0
H1004 H 0.68075 0.66712 0.95639 0.0
H1005 H 0.63062 0.61647 0.8661 0.0
H1006 H 0.63775 0.70826 0.83081 0.0
H1007 H 0.63219 0.75733 0.83934 0.0
H1008 H 0.54634 0.74826 0.83469 0.0
H1009 H 0.55133 0.69909 0.82676 0.0
C1010 C 0.56385 0.58401 0.69111 0.0
C1011 C 0.53584 0.58775 0.69172 0.0
C1012 C 0.58052 0.59767 0.72047 0.0
C1013 C 0.56943 0.61499 0.75172 0.0
C1014 C 0.54149 0.61889 0.75236 0.0
C1015 C 0.5249 0.60546 0.72274 0.0
C1016 C 0.58659 0.62861 0.78464 0.0
C1017 C 0.58425 0.65659 0.79055 0.0
C1018 C 0.60429 0.61417 0.81135 0.0
C1019 C 0.60722 0.58454 0.80808 0.0
C1020 C 0.58493 0.56759 0.81374 0.0
C1021 C 0.58813 0.53966 0.81213 0.0
C1022 C 0.61356 0.5285 0.80524 0.0
C1023 C 0.63579 0.54519 0.79943 0.0
C1024 C 0.6327 0.57312 0.80099 0.0
C1025 C 0.61502 0.68622 0.96329 0.0
C1026 C 0.6416 0.6815 0.97663 0.0
C1027 C 0.6067 0.67911 0.9219 0.0
C1028 C 0.62485 0.66732 0.89281 0.0
C1029 C 0.65182 0.66392 0.9053 0.0
C1030 C 0.66018 0.67111 0.94685 0.0
C1031 C 0.61462 0.65554 0.8518 0.0
C1032 C 0.61826 0.62788 0.84424 0.0
C1033 C 0.5981 0.67029 0.82369 0.0
C1034 C 0.59494 0.69991 0.82837 0.0
C1035 C 0.61767 0.71669 0.8319 0.0
C1036 C 0.61462 0.74454 0.83658 0.0
C1037 C 0.58893 0.7559 0.8376 0.0
C1038 C 0.56623 0.73943 0.83387 0.0
C1039 C 0.56916 0.71156 0.8292 0.0
H1040 H 0.58661 0.77747 0.84123 0.0
H1041 H 0.61613 0.50694 0.80476 0.0
H1042 H 0.38552 0.50803 0.69454 0.0
H1043 H 0.36063 0.53687 0.74427 0.0
H1044 H 0.42175 0.59803 0.7347 0.0
H1045 H 0.44698 0.5689 0.68583 0.0
H1046 H 0.41242 0.58732 0.81483 0.0
H1047 H 0.35745 0.60708 0.6947 0.0
H1048 H 0.32933 0.59781 0.63069 0.0
H1049 H 0.27234 0.55578 0.70737 0.0
H1050 H 0.30028 0.56429 0.77165 0.0
H1051 H 0.34548 0.66787 0.96558 0.0
H1052 H 0.3582 0.6569 0.89159 0.0
H1053 H 0.31502 0.58185 0.89802 0.0
H1054 H 0.30237 0.59268 0.97207 0.0
H1055 H 0.31456 0.60706 0.81359 0.0
H1056 H 0.37468 0.5791 0.92794 0.0
H1057 H 0.40212 0.58777 0.99275 0.0
H1058 H 0.44949 0.64512 0.92501 0.0
H1059 H 0.4219 0.63716 0.86001 0.0
C1060 C 0.39356 0.52775 0.70259 0.0
C1061 C 0.41836 0.53622 0.68604 0.0
C1062 C 0.37911 0.54435 0.73069 0.0
C1063 C 0.38915 0.56976 0.74286 0.0
C1064 C 0.41353 0.57855 0.72555 0.0
C1065 C 0.42796 0.56192 0.69742 0.0
C1066 C 0.37586 0.58561 0.77737 0.0
C1067 C 0.39117 0.59227 0.81391 0.0
C1068 C 0.34797 0.59147 0.7767 0.0
C1069 C 0.33108 0.58624 0.73802 0.0
C1070 C 0.33903 0.59569 0.69786 0.0
C1071 C 0.32311 0.59062 0.66154 0.0
C1072 C 0.29909 0.57626 0.66499 0.0
C1073 C 0.29094 0.56692 0.70475 0.0
C1074 C 0.3068 0.57189 0.74116 0.0
C1075 C 0.33791 0.64951 0.95064 0.0
C1076 C 0.32324 0.63094 0.97447 0.0
C1077 C 0.34518 0.64327 0.90847 0.0
C1078 C 0.3377 0.61849 0.88965 0.0
C1079 C 0.32088 0.6011 0.91203 0.0
C1080 C 0.31387 0.60719 0.95433 0.0
C1081 C 0.35121 0.60853 0.85046 0.0
C1082 C 0.33594 0.60273 0.81356 0.0
C1083 C 0.37916 0.60336 0.85056 0.0
C1084 C 0.39603 0.60782 0.88935 0.0
C1085 C 0.3908 0.59373 0.927 0.0
C1086 C 0.40638 0.5985 0.96375 0.0
C1087 C 0.42749 0.61705 0.96304 0.0
C1088 C 0.43309 0.63081 0.92554 0.0
C1089 C 0.41747 0.6262 0.88875 0.0
H1090 H 0.43955 0.6207 0.99151 0.0
H1091 H 0.28679 0.57239 0.63684 0.0
H1092 H 0.43876 0.44587 0.66985 0.0
H1093 H 0.41276 0.42841 0.72819 0.0
H1094 H 0.48458 0.39394 0.78181 0.0
H1095 H 0.51108 0.41189 0.72306 0.0
H1096 H 0.44201 0.35955 0.78404 0.0
H1097 H 0.45973 0.45177 0.82221 0.0
H1098 H 0.46052 0.50076 0.81177 0.0
H1099 H 0.37439 0.50157 0.80125 0.0
H1100 H 0.37314 0.45245 0.81051 0.0
H1101 H 0.39305 0.33698 0.9923 0.0
H1102 H 0.418 0.35177 0.93005 0.0
H1103 H 0.3463 0.38915 0.88054 0.0
H1104 H 0.32139 0.37532 0.94384 0.0
H1105 H 0.38849 0.42204 0.87552 0.0
H1106 H 0.37051 0.33005 0.8369 0.0
H1107 H 0.36956 0.28096 0.84651 0.0
H1108 H 0.45566 0.27983 0.85779 0.0
H1109 H 0.4571 0.32899 0.84883 0.0
C1110 C 0.44923 0.43487 0.69375 0.0
C1111 C 0.47711 0.4308 0.69158 0.0
C1112 C 0.43425 0.42479 0.72737 0.0
C1113 C 0.44688 0.41038 0.7598 0.0
C1114 C 0.47457 0.40535 0.75727 0.0
C1115 C 0.48962 0.41562 0.72363 0.0
C1116 C 0.43111 0.40085 0.79652 0.0
C1117 C 0.43058 0.37321 0.80445 0.0
C1118 C 0.41568 0.41872 0.82229 0.0
C1119 C 0.41638 0.44833 0.81664 0.0
C1120 C 0.44098 0.46233 0.8172 0.0
C1121 C 0.44151 0.49015 0.8115 0.0
C1122 C 0.41753 0.50427 0.80571 0.0
C1123 C 0.39297 0.4906 0.80559 0.0
C1124 C 0.39234 0.46276 0.81104 0.0
C1125 C 0.3826 0.34847 0.96829 0.0
C1126 C 0.35526 0.35509 0.9731 0.0
C1127 C 0.39682 0.35665 0.93248 0.0
C1128 C 0.38393 0.3713 0.90043 0.0
C1129 C 0.35659 0.37776 0.90487 0.0
C1130 C 0.34234 0.36967 0.94085 0.0
C1131 C 0.39932 0.38067 0.86309 0.0
C1132 C 0.39983 0.40834 0.85506 0.0
C1133 C 0.41469 0.36283 0.83718 0.0
C1134 C 0.41388 0.33325 0.84259 0.0
C1135 C 0.38922 0.31937 0.84178 0.0
C1136 C 0.3886 0.29152 0.84704 0.0
C1137 C 0.41253 0.2773 0.85286 0.0
C1138 C 0.43714 0.29088 0.85333 0.0
C1139 C 0.43787 0.31873 0.84812 0.0
H1140 H 0.412 0.25574 0.85692 0.0
H1141 H 0.41798 0.52582 0.80148 0.0
H1142 H 0.5665 0.44347 0.66758 0.0
H1143 H 0.58924 0.41513 0.71905 0.0
H1144 H 0.64352 0.48023 0.75093 0.0
H1145 H 0.62038 0.5089 0.70002 0.0
H1146 H 0.66944 0.43149 0.74643 0.0
H1147 H 0.58847 0.4686 0.80927 0.0
H1148 H 0.53978 0.4768 0.81546 0.0
H1149 H 0.52578 0.3919 0.82485 0.0
H1150 H 0.57432 0.38319 0.81719 0.0
H1151 H 0.71033 0.41118 0.96052 0.0
H1152 H 0.69371 0.42551 0.89064 0.0
H1153 H 0.64392 0.35448 0.88108 0.0
H1154 H 0.66072 0.34016 0.95127 0.0
H1155 H 0.61538 0.39954 0.86838 0.0
H1156 H 0.69547 0.3618 0.81246 0.0
H1157 H 0.74403 0.35246 0.80709 0.0
H1158 H 0.75956 0.43606 0.78575 0.0
H1159 H 0.7111 0.446 0.79161 0.0
C1160 C 0.58316 0.45182 0.68533 0.0
C1161 C 0.59113 0.47865 0.67997 0.0
C1162 C 0.59627 0.43553 0.7148 0.0
C1163 C 0.61778 0.44573 0.73941 0.0
C1164 C 0.62679 0.47202 0.73255 0.0
C1165 C 0.61344 0.48842 0.70349 0.0
C1166 C 0.62992 0.42971 0.77407 0.0
C1167 C 0.65768 0.4246 0.77323 0.0
C1168 C 0.61436 0.41996 0.80831 0.0
C1169 C 0.58505 0.42523 0.81198 0.0
C1170 C 0.57499 0.45167 0.81195 0.0
C1171 C 0.54739 0.45641 0.81574 0.0
C1172 C 0.52965 0.43488 0.82029 0.0
C1173 C 0.53949 0.40857 0.82098 0.0
C1174 C 0.56705 0.40372 0.8168 0.0
C1175 C 0.69638 0.39836 0.94284 0.0
C1176 C 0.68691 0.37453 0.96068 0.0
C1177 C 0.68693 0.40648 0.90297 0.0
C1178 C 0.66771 0.39096 0.88044 0.0
C1179 C 0.65885 0.36667 0.8978 0.0
C1180 C 0.6685 0.35843 0.93763 0.0
C1181 C 0.65502 0.40167 0.84118 0.0
C1182 C 0.62712 0.40592 0.84121 0.0
C1183 C 0.67041 0.41046 0.80615 0.0
C1184 C 0.69963 0.40467 0.80282 0.0
C1185 C 0.70925 0.37825 0.80701 0.0
C1186 C 0.73676 0.37283 0.8038 0.0
C1187 C 0.75487 0.39366 0.79618 0.0
C1188 C 0.7455 0.41995 0.79168 0.0
C1189 C 0.718 0.42548 0.79489 0.0
H1190 H 0.77616 0.38942 0.79367 0.0
H1191 H 0.50831 0.43859 0.82349 0.0
H1192 H 0.55099 0.50697 0.37676 0.0
H1193 H 0.5658 0.48186 0.31278 0.0
H1194 H 0.64859 0.49644 0.34831 0.0
H1195 H 0.63407 0.52161 0.41179 0.0
H1196 H 0.64092 0.50434 0.26514 0.0
H1197 H 0.61932 0.43678 0.3665 0.0
H1198 H 0.59076 0.41257 0.41727 0.0
H1199 H 0.5351 0.39267 0.31597 0.0
H1200 H 0.56302 0.41728 0.26472 0.0
H1201 H 0.71217 0.40506 0.14929 0.0
H1202 H 0.69082 0.43105 0.20699 0.0
H1203 H 0.61298 0.41649 0.14948 0.0
H1204 H 0.63427 0.39008 0.09166 0.0
H1205 H 0.61458 0.40904 0.23973 0.0
H1206 H 0.63802 0.47719 0.13843 0.0
H1207 H 0.66863 0.5004 0.0894 0.0
H1208 H 0.72334 0.51693 0.19347 0.0
H1209 H 0.69306 0.49374 0.24308 0.0
C1210 C 0.57234 0.50492 0.37079 0.0
C1211 C 0.59137 0.51616 0.39946 0.0
C1212 C 0.58076 0.49048 0.33436 0.0
C1213 C 0.6083 0.48706 0.32608 0.0
C1214 C 0.62724 0.49881 0.35412 0.0
C1215 C 0.61889 0.51315 0.39048 0.0
C1216 C 0.61766 0.47116 0.28839 0.0
C1217 C 0.63519 0.48349 0.2597 0.0
C1218 C 0.60995 0.44401 0.28106 0.0
C1219 C 0.59306 0.42926 0.31187 0.0
C1220 C 0.60081 0.42754 0.35513 0.0
C1221 C 0.58475 0.41374 0.384 0.0
C1222 C 0.56103 0.40128 0.36992 0.0
C1223 C 0.55342 0.40245 0.32687 0.0
C1224 C 0.56933 0.41636 0.29791 0.0
C1225 C 0.69049 0.40724 0.14906 0.0
C1226 C 0.67488 0.39557 0.11598 0.0
C1227 C 0.67834 0.42221 0.18188 0.0
C1228 C 0.65035 0.42582 0.18228 0.0
C1229 C 0.63461 0.41395 0.14964 0.0
C1230 C 0.6468 0.39908 0.11654 0.0
C1231 C 0.63779 0.4423 0.21675 0.0
C1232 C 0.61983 0.43005 0.24486 0.0
C1233 C 0.64525 0.46945 0.22394 0.0
C1234 C 0.66337 0.48362 0.19435 0.0
C1235 C 0.65665 0.48567 0.15078 0.0
C1236 C 0.6739 0.49886 0.12292 0.0
C1237 C 0.69794 0.51008 0.1383 0.0
C1238 C 0.70474 0.50819 0.1816 0.0
C1239 C 0.68749 0.49511 0.20963 0.0
H1240 H 0.71128 0.52028 0.11667 0.0
H1241 H 0.54863 0.39057 0.3923 0.0
H1242 H 0.51005 0.63067 0.4299 0.0
H1243 H 0.53122 0.64173 0.36238 0.0
H1244 H 0.5138 0.56207 0.3124 0.0
H1245 H 0.49248 0.55069 0.38039 0.0
H1246 H 0.56547 0.57784 0.29515 0.0
H1247 H 0.47821 0.61227 0.27877 0.0
H1248 H 0.43673 0.63675 0.29741 0.0
H1249 H 0.48014 0.71142 0.29986 0.0
H1250 H 0.52212 0.68734 0.28236 0.0
H1251 H 0.61387 0.6257 0.09376 0.0
H1252 H 0.5838 0.60629 0.14681 0.0
H1253 H 0.59196 0.67793 0.22602 0.0
H1254 H 0.6216 0.69764 0.17281 0.0
H1255 H 0.53909 0.66032 0.21856 0.0
H1256 H 0.62762 0.62176 0.24869 0.0
H1257 H 0.66812 0.5961 0.22784 0.0
H1258 H 0.61911 0.52759 0.19458 0.0
H1259 H 0.57835 0.55286 0.2152 0.0
C1260 C 0.51061 0.61547 0.4046 0.0
C1261 C 0.49946 0.58985 0.41044 0.0
C1262 C 0.52264 0.62187 0.36593 0.0
C1263 C 0.52375 0.60284 0.33221 0.0
C1264 C 0.51299 0.57707 0.33799 0.0
C1265 C 0.50076 0.57066 0.37676 0.0
C1266 C 0.53671 0.61011 0.29145 0.0
C1267 C 0.55937 0.59555 0.27786 0.0
C1268 C 0.52868 0.63321 0.26889 0.0
C1269 C 0.50344 0.64791 0.27945 0.0
C1270 C 0.47903 0.63388 0.2837 0.0
C1271 C 0.45539 0.6477 0.29404 0.0
C1272 C 0.45579 0.67562 0.2998 0.0
C1273 C 0.47986 0.68978 0.29534 0.0
C1274 C 0.5036 0.67604 0.28521 0.0
C1275 C 0.60907 0.63739 0.12234 0.0
C1276 C 0.62016 0.66318 0.12921 0.0
C1277 C 0.59202 0.62621 0.15269 0.0
C1278 C 0.58578 0.64062 0.19043 0.0
C1279 C 0.59653 0.66648 0.19709 0.0
C1280 C 0.61365 0.67761 0.16688 0.0
C1281 C 0.56846 0.62876 0.22362 0.0
C1282 C 0.54489 0.6424 0.23556 0.0
C1283 C 0.57541 0.60465 0.24429 0.0
C1284 C 0.59996 0.58928 0.23299 0.0
C1285 C 0.62551 0.60125 0.23679 0.0
C1286 C 0.6485 0.58676 0.22511 0.0
C1287 C 0.64618 0.56026 0.20981 0.0
C1288 C 0.62089 0.54811 0.20645 0.0
C1289 C 0.59785 0.56248 0.21822 0.0
H1290 H 0.66399 0.54918 0.20055 0.0
H1291 H 0.43745 0.68629 0.30769 0.0
H1292 H 0.37758 0.48898 0.41868 0.0
H1293 H 0.36431 0.50569 0.34905 0.0
H1294 H 0.44472 0.49197 0.30182 0.0
H1295 H 0.45849 0.47629 0.37249 0.0
H1296 H 0.42843 0.53921 0.27943 0.0
H1297 H 0.39076 0.45286 0.27408 0.0
H1298 H 0.36522 0.41343 0.29759 0.0
H1299 H 0.29187 0.45865 0.29165 0.0
H1300 H 0.31702 0.4986 0.26915 0.0
H1301 H 0.37662 0.58781 0.08173 0.0
H1302 H 0.39552 0.55474 0.13065 0.0
H1303 H 0.32795 0.5664 0.21508 0.0
H1304 H 0.30878 0.59909 0.1661 0.0
H1305 H 0.34338 0.51252 0.20637 0.0
H1306 H 0.38476 0.60084 0.2303 0.0
H1307 H 0.41095 0.64011 0.20748 0.0
H1308 H 0.47823 0.58896 0.17832 0.0
H1309 H 0.45219 0.54927 0.20005 0.0
C1310 C 0.39242 0.48935 0.39343 0.0
C1311 C 0.4191 0.48149 0.40105 0.0
C1312 C 0.38476 0.49873 0.35349 0.0
C1313 C 0.40342 0.49976 0.31997 0.0
C1314 C 0.42999 0.49136 0.32722 0.0
C1315 C 0.43781 0.48238 0.36753 0.0
C1316 C 0.39531 0.51117 0.27836 0.0
C1317 C 0.41017 0.5329 0.26289 0.0
C1318 C 0.37139 0.503 0.25686 0.0
C1319 C 0.35592 0.47884 0.26986 0.0
C1320 C 0.36922 0.45449 0.27804 0.0
C1321 C 0.3548 0.43202 0.29122 0.0
C1322 C 0.32695 0.4335 0.29606 0.0
C1323 C 0.31346 0.4575 0.28777 0.0
C1324 C 0.32782 0.48008 0.27474 0.0
C1325 C 0.36559 0.58295 0.11038 0.0
C1326 C 0.34134 0.59617 0.12038 0.0
C1327 C 0.37645 0.56414 0.13829 0.0
C1328 C 0.3632 0.5583 0.17655 0.0
C1329 C 0.33845 0.57063 0.18566 0.0
C1330 C 0.32767 0.58949 0.15793 0.0
C1331 C 0.37587 0.54108 0.20904 0.0
C1332 C 0.36193 0.51826 0.22256 0.0
C1333 C 0.40067 0.54809 0.22871 0.0
C1334 C 0.41635 0.57203 0.21606 0.0
C1335 C 0.40501 0.59792 0.21852 0.0
C1336 C 0.41982 0.62025 0.20573 0.0
C1337 C 0.44614 0.61699 0.19103 0.0
C1338 C 0.45776 0.59142 0.18934 0.0
C1339 C 0.44298 0.569 0.20185 0.0
H1340 H 0.45762 0.63433 0.18139 0.0
H1341 H 0.31583 0.41607 0.30627 0.0
H1342 H 0.44571 0.4087 0.45697 0.0
H1343 H 0.41663 0.39514 0.39758 0.0
H1344 H 0.48009 0.41355 0.30889 0.0
H1345 H 0.5082 0.42975 0.36856 0.0
H1346 H 0.43684 0.42624 0.2742 0.0
H1347 H 0.46393 0.34789 0.34821 0.0
H1348 H 0.4698 0.31859 0.41026 0.0
H1349 H 0.3841 0.31238 0.42327 0.0
H1350 H 0.37774 0.34161 0.36132 0.0
H1351 H 0.39388 0.33447 0.10806 0.0
H1352 H 0.41803 0.34943 0.17242 0.0
H1353 H 0.34306 0.37135 0.23221 0.0
H1354 H 0.31862 0.35806 0.16673 0.0
H1355 H 0.39011 0.33824 0.28111 0.0
H1356 H 0.36596 0.41761 0.20146 0.0
H1357 H 0.36392 0.44657 0.1387 0.0
H1358 H 0.45012 0.44674 0.13159 0.0
H1359 H 0.45271 0.41741 0.19417 0.0
C1360 C 0.45342 0.40996 0.42489 0.0
C1361 C 0.47944 0.41975 0.41756 0.0
C1362 C 0.43681 0.40204 0.39082 0.0
C1363 C 0.44641 0.40235 0.34866 0.0
C1364 C 0.47223 0.4128 0.34111 0.0
C1365 C 0.48844 0.42177 0.37524 0.0
C1366 C 0.42974 0.39143 0.31261 0.0
C1367 C 0.42696 0.40682 0.27566 0.0
C1368 C 0.41647 0.36617 0.3145 0.0
C1369 C 0.42033 0.34763 0.35078 0.0
C1370 C 0.44632 0.34047 0.3645 0.0
C1371 C 0.44975 0.32378 0.39959 0.0
C1372 C 0.42734 0.31381 0.42093 0.0
C1373 C 0.40145 0.32025 0.40691 0.0
C1374 C 0.39793 0.33691 0.37182 0.0
C1375 C 0.38242 0.34254 0.13476 0.0
C1376 C 0.35431 0.34562 0.13178 0.0
C1377 C 0.39629 0.35088 0.17157 0.0
C1378 C 0.38229 0.36181 0.20652 0.0
C1379 C 0.35412 0.36304 0.20523 0.0
C1380 C 0.3402 0.35526 0.16792 0.0
C1381 C 0.39742 0.37311 0.2434 0.0
C1382 C 0.40003 0.35766 0.28013 0.0
C1383 C 0.41118 0.39789 0.24083 0.0
C1384 C 0.40952 0.41491 0.20231 0.0
C1385 C 0.3845 0.42338 0.1862 0.0
C1386 C 0.38324 0.44003 0.15074 0.0
C1387 C 0.40687 0.44842 0.13104 0.0
C1388 C 0.43182 0.44019 0.14683 0.0
C1389 C 0.43319 0.42358 0.18235 0.0
H1390 H 0.40585 0.46135 0.10363 0.0
H1391 H 0.43003 0.30096 0.44817 0.0
loop_
_geom_bond_atom_site_label_1
_geom_bond_atom_site_label_2
_geom_bond_distance
_geom_bond_site_symmetry_2
_ccdc_geom_bond_type
Zn0 O2 1.933 1_556 S
Zn0 O20 1.985 . S
Zn0 O31 1.970 . S
Zn1 O2 1.911 . S
Zn1 O21 1.970 . S
Zn1 O37 1.945 . S
Zn1 O44 1.981 . S
O2 Zn0 1.933 1_554 S
O2 Zn1 1.911 . S
O2 H3 0.841 1_655 S
H3 O2 0.841 1_455 S
C4 O5 1.246 . S
C4 O33 1.276 1_545 S
O5 C4 1.246 . S
Zn6 O8 1.911 . S
Zn6 O23 1.970 . S
Zn6 O40 1.945 . S
Zn6 O47 1.981 . S
Zn7 O8 1.933 1_556 S
Zn7 O22 1.985 . S
Zn7 O29 1.955 . S
O8 Zn6 1.911 . S
O8 Zn7 1.933 1_554 S
O8 H9 0.841 1_455 S
H9 O8 0.841 1_655 S
Zn10 O11 1.933 1_556 S
Zn10 O24 1.985 . S
Zn10 O33 1.955 . S
O11 Zn10 1.933 1_554 S
O11 Zn12 1.911 . S
O11 H13 0.841 1_565 S
Zn12 O11 1.911 . S
Zn12 O25 1.970 . S
Zn12 O41 1.981 . S
Zn12 O43 1.945 . S
H13 O11 0.841 1_545 S
Zn14 O15 1.933 1_556 S
Zn14 O27 1.985 . S
Zn14 O35 1.955 . S
O15 Zn14 1.933 1_554 S
O15 H16 0.841 1_545 S
O15 Zn17 1.911 . S
H16 O15 0.841 1_565 S
Zn17 O15 1.911 . S
Zn17 O28 1.970 . S
Zn17 O38 1.981 . S
Zn17 O46 1.945 . S
C18 O19 1.246 . S
C18 O35 1.276 1_565 S
O19 C18 1.246 . S
O20 Zn0 1.985 . S
O20 C30 1.245 1_556 S
O21 Zn1 1.970 . S
O21 C30 1.263 . S
O22 Zn7 1.985 . S
O22 C34 1.245 1_556 S
O23 Zn6 1.970 . S
O23 C34 1.263 . S
O24 Zn10 1.985 . S
O24 C39 1.245 1_556 S
O25 Zn12 1.970 . S
O25 C39 1.263 . S
C26 O37 1.262 1_455 S
C26 O38 1.245 . S
O27 Zn14 1.985 . S
O27 C45 1.245 1_556 S
O28 Zn17 1.970 . S
O28 C45 1.263 . S
O29 Zn7 1.955 . S
O29 C48 1.276 1_455 S
C30 O20 1.245 1_554 S
C30 O21 1.263 . S
O31 Zn0 1.970 . S
O31 C50 1.238 1_655 S
C32 O40 1.262 1_655 S
C32 O41 1.245 . S
O33 C4 1.276 1_565 S
O33 Zn10 1.955 . S
C34 O22 1.245 1_554 S
C34 O23 1.263 . S
O35 Zn14 1.955 . S
O35 C18 1.276 1_545 S
C36 O43 1.262 1_545 S
C36 O44 1.245 . S
O37 Zn1 1.945 . S
O37 C26 1.262 1_655 S
O38 Zn17 1.981 . S
O38 C26 1.245 . S
C39 O24 1.245 1_554 S
C39 O25 1.263 . S
O40 Zn6 1.945 . S
O40 C32 1.262 1_455 S
O41 Zn12 1.981 . S
O41 C32 1.245 . S
C42 O46 1.262 1_565 S
C42 O47 1.245 . S
O43 Zn12 1.945 . S
O43 C36 1.262 1_565 S
O44 Zn1 1.981 . S
O44 C36 1.245 . S
C45 O27 1.245 1_554 S
C45 O28 1.263 . S
O46 Zn17 1.945 . S
O46 C42 1.262 1_545 S
O47 Zn6 1.981 . S
O47 C42 1.245 . S
C48 O29 1.276 1_655 S
C48 O49 1.246 . S
O49 C48 1.246 . S
C50 O31 1.238 1_455 S
C50 O51 1.246 . S
O51 C50 1.246 . S
Zn52 O54 1.933 . S
Zn52 O72 1.985 . S
Zn52 O83 1.955 . S
Zn53 O54 1.911 . S
Zn53 O73 1.970 . S
Zn53 O89 1.945 . S
Zn53 O96 1.981 . S
O54 Zn52 1.933 . S
O54 Zn53 1.911 . S
O54 H55 0.841 . S
H55 O54 0.841 . S
C56 O57 1.246 . S
C56 O85 1.276 . S
O57 C56 1.246 . S
Zn58 O60 1.911 . S
Zn58 O75 1.970 . S
Zn58 O92 1.945 . S
Zn58 O99 1.981 . S
Zn59 O60 1.933 . S
Zn59 O74 1.985 . S
Zn59 O81 1.955 . S
O60 Zn58 1.911 . S
O60 Zn59 1.933 . S
O60 H61 0.841 . S
H61 O60 0.841 . S
Zn62 O63 1.933 . S
Zn62 O76 1.985 . S
Zn62 O85 1.955 . S
O63 Zn62 1.933 . S
O63 Zn64 1.911 . S
O63 H65 0.841 . S
Zn64 O63 1.911 . S
Zn64 O77 1.970 . S
Zn64 O93 1.981 . S
Zn64 O95 1.945 . S
H65 O63 0.841 . S
Zn66 O67 1.933 . S
Zn66 O79 1.985 . S
Zn66 O87 1.955 . S
O67 Zn66 1.933 . S
O67 H68 0.841 . S
O67 Zn69 1.911 . S
H68 O67 0.841 . S
Zn69 O67 1.911 . S
Zn69 O80 1.970 . S
Zn69 O90 1.981 . S
Zn69 O98 1.945 . S
C70 O71 1.246 . S
C70 O87 1.276 . S
O71 C70 1.246 . S
O72 Zn52 1.985 . S
O72 C82 1.245 . S
O73 Zn53 1.970 . S
O73 C82 1.263 . S
O74 Zn59 1.985 . S
O74 C86 1.245 . S
O75 Zn58 1.970 . S
O75 C86 1.263 . S
O76 Zn62 1.985 . S
O76 C91 1.245 . S
O77 Zn64 1.970 . S
O77 C91 1.263 . S
C78 O89 1.262 . S
C78 O90 1.245 . S
O79 Zn66 1.985 . S
O79 C97 1.245 . S
O80 Zn69 1.970 . S
O80 C97 1.263 . S
O81 Zn59 1.955 . S
O81 C100 1.276 . S
C82 O72 1.245 . S
C82 O73 1.263 . S
O83 Zn52 1.955 . S
O83 C102 1.276 . S
C84 O92 1.262 . S
C84 O93 1.245 . S
O85 C56 1.276 . S
O85 Zn62 1.955 . S
C86 O74 1.245 . S
C86 O75 1.263 . S
O87 Zn66 1.955 . S
O87 C70 1.276 . S
C88 O95 1.262 . S
C88 O96 1.245 . S
O89 Zn53 1.945 . S
O89 C78 1.262 . S
O90 Zn69 1.981 . S
O90 C78 1.245 . S
C91 O76 1.245 . S
C91 O77 1.263 . S
O92 Zn58 1.945 . S
O92 C84 1.262 . S
O93 Zn64 1.981 . S
O93 C84 1.245 . S
C94 O98 1.262 . S
C94 O99 1.245 . S
O95 Zn64 1.945 . S
O95 C88 1.262 . S
O96 Zn53 1.981 . S
O96 C88 1.245 . S
C97 O79 1.245 . S
C97 O80 1.263 . S
O98 Zn69 1.945 . S
O98 C94 1.262 . S
O99 Zn58 1.981 . S
O99 C94 1.245 . S
C100 O81 1.276 . S
C100 O101 1.246 . S
O101 C100 1.246 . S
C102 O83 1.276 . S
C102 O103 1.246 . S
O103 C102 1.246 . S
H104 C107 0.929 . S
H105 C110 0.929 . S
H106 C112 0.930 . S
C107 H104 0.929 . S
C107 C108 1.398 1_554 S
C107 C109 1.396 . S
C108 C107 1.398 1_556 S
C108 C112 1.407 . S
C109 C107 1.396 . S
C109 C110 1.394 . S
C110 H105 0.929 . S
C110 C109 1.394 . S
C110 C111 1.402 . S
C111 C110 1.402 . S
C111 C112 1.373 1_554 S
C111 N113 1.418 1_554 S
C112 H106 0.930 . S
C112 C108 1.407 . S
C112 C111 1.373 1_556 S
N113 C111 1.418 1_556 S
N113 C114 1.244 1_556 S
C114 N113 1.244 1_554 S
H115 C118 0.929 . S
H116 C121 0.929 . S
H117 C123 0.930 . S
C118 H115 0.929 . S
C118 C119 1.398 1_554 S
C118 C120 1.396 . S
C119 C118 1.398 1_556 S
C119 C123 1.407 . S
C120 C118 1.396 . S
C120 C121 1.394 . S
C121 H116 0.929 . S
C121 C120 1.394 . S
C121 C122 1.382 . S
C122 C121 1.382 . S
C122 C123 1.392 1_554 S
C122 N124 1.420 1_554 S
C123 H117 0.930 . S
C123 C119 1.407 . S
C123 C122 1.392 1_556 S
N124 C122 1.420 1_556 S
N124 C125 1.244 1_556 S
C125 N124 1.244 1_554 S
H126 C129 0.929 . S
H127 C132 0.929 . S
H128 C134 0.930 . S
C129 H126 0.929 . S
C129 C130 1.398 . S
C129 C131 1.396 1_554 S
C130 C129 1.398 . S
C130 C134 1.407 . S
C131 C129 1.396 1_556 S
C131 C132 1.394 . S
C132 H127 0.929 . S
C132 C131 1.394 . S
C132 C133 1.382 1_556 S
C133 C132 1.382 1_554 S
C133 C134 1.392 . S
C133 N135 1.420 . S
C134 H128 0.930 . S
C134 C130 1.407 . S
C134 C133 1.392 . S
N135 C133 1.420 . S
N135 C136 1.244 . S
C136 N135 1.244 . S
H137 C140 0.929 . S
H138 C143 0.929 . S
H139 C145 0.930 . S
C140 H137 0.929 . S
C140 C141 1.398 . S
C140 C142 1.396 1_554 S
C141 C140 1.398 . S
C141 C145 1.407 . S
C142 C140 1.396 1_556 S
C142 C143 1.394 . S
C143 H138 0.929 . S
C143 C142 1.394 . S
C143 C144 1.382 1_556 S
C144 C143 1.382 1_554 S
C144 C145 1.392 . S
C144 N146 1.420 . S
C145 H139 0.930 . S
C145 C141 1.407 . S
C145 C144 1.392 . S
N146 C144 1.420 . S
N146 C147 1.244 . S
C147 N146 1.244 . S
H148 C151 0.929 . S
H149 C154 0.929 . S
H150 C156 0.930 . S
C151 H148 0.929 . S
C151 C152 1.398 . S
C151 C153 1.396 . S
C152 C151 1.398 . S
C152 C156 1.407 . S
C153 C151 1.396 . S
C153 C154 1.394 . S
C154 H149 0.929 . S
C154 C153 1.394 . S
C154 C155 1.382 . S
C155 C154 1.382 . S
C155 C156 1.392 . S
C155 N157 1.420 . S
C156 H150 0.930 . S
C156 C152 1.407 . S
C156 C155 1.392 . S
N157 C155 1.420 . S
N157 C158 1.244 . S
C158 N157 1.244 . S
H159 C162 0.929 . S
H160 C165 0.929 . S
H161 C167 0.930 . S
C162 H159 0.929 . S
C162 C163 1.398 . S
C162 C164 1.396 . S
C163 C162 1.398 . S
C163 C167 1.407 . S
C164 C162 1.396 . S
C164 C165 1.394 . S
C165 H160 0.929 . S
C165 C164 1.394 . S
C165 C166 1.382 . S
C166 C165 1.382 . S
C166 C167 1.392 . S
C166 N168 1.420 . S
C167 H161 0.930 . S
C167 C163 1.407 . S
C167 C166 1.392 . S
N168 C166 1.420 . S
N168 C169 1.244 . S
C169 N168 1.244 . S
H170 C173 0.929 . S
H171 C176 0.929 . S
H172 C178 0.930 . S
C173 H170 0.929 . S
C173 C174 1.398 . S
C173 C175 1.396 . S
C174 C173 1.398 . S
C174 C178 1.407 . S
C175 C173 1.396 . S
C175 C176 1.394 . S
C176 H171 0.929 . S
C176 C175 1.394 . S
C176 C177 1.382 . S
C177 C176 1.382 . S
C177 C178 1.392 . S
C177 N179 1.420 . S
C178 H172 0.930 . S
C178 C174 1.407 . S
C178 C177 1.392 . S
N179 C177 1.420 . S
N179 C180 1.244 . S
C180 N179 1.244 . S
H181 C184 0.929 . S
H182 C187 0.929 . S
H183 C189 0.930 . S
C184 H181 0.929 . S
C184 C185 1.398 . S
C184 C186 1.396 . S
C185 C184 1.398 . S
C185 C189 1.407 . S
C186 C184 1.396 . S
C186 C187 1.394 . S
C187 H182 0.929 . S
C187 C186 1.394 . S
C187 C188 1.382 . S
C188 C187 1.382 . S
C188 C189 1.392 . S
C188 N190 1.420 . S
C189 H183 0.930 . S
C189 C185 1.407 . S
C189 C188 1.392 . S
N190 C188 1.420 . S
N190 C191 1.244 . S
C191 N190 1.244 . S
H192 C210 0.951 . S
H193 C212 0.951 . S
H194 C214 0.950 . S
H195 C215 0.950 . S
H196 C217 0.950 . S
H197 C220 0.950 . S
H198 C221 0.950 . S
H199 C223 0.947 1_554 S
H200 C224 0.950 . S
H201 C225 0.951 . S
H202 C227 0.951 . S
H203 C229 0.950 . S
H204 C230 0.950 . S
H205 C232 0.950 . S
H206 C235 0.950 . S
H207 C236 0.950 . S
H208 C238 0.950 . S
H209 C239 0.950 1_556 S
C210 H192 0.951 . S
C210 C211 1.366 . S
C210 C212 1.388 . S
C211 C210 1.366 . S
C211 C215 1.385 1_554 S
C212 H193 0.951 . S
C212 C210 1.388 . S
C212 C213 1.366 . S
C213 C212 1.366 . S
C213 C214 1.414 1_554 S
C213 C216 1.499 . S
C214 H194 0.950 . S
C214 C213 1.414 1_556 S
C214 C215 1.374 . S
C215 H195 0.950 . S
C215 C211 1.385 1_556 S
C215 C214 1.374 . S
C216 C213 1.499 . S
C216 C217 1.373 . S
C216 C218 1.389 . S
C217 H196 0.950 . S
C217 C216 1.373 . S
C217 C233 1.377 . S
C218 C216 1.389 . S
C218 C219 1.524 1_554 S
C218 C232 1.377 . S
C219 C218 1.524 1_556 S
C219 C220 1.397 . S
C219 C224 1.363 1_556 S
C220 H197 0.950 . S
C220 C219 1.397 . S
C220 C221 1.334 . S
C221 H198 0.950 . S
C221 C220 1.334 . S
C221 C222 1.287 . S
C222 C221 1.287 . S
C222 C223 1.528 . S
C222 H241 0.913 . S
C223 H199 0.947 1_556 S
C223 C222 1.528 . S
C223 C224 1.413 1_556 S
C224 H200 0.950 . S
C224 C219 1.363 1_554 S
C224 C223 1.413 1_554 S
C225 H201 0.951 . S
C225 C226 1.366 1_556 S
C225 C227 1.388 . S
C226 C225 1.366 1_554 S
C226 C230 1.385 . S
C227 H202 0.951 . S
C227 C225 1.388 . S
C227 C228 1.366 1_556 S
C228 C227 1.366 1_554 S
C228 C229 1.414 . S
C228 C231 1.499 . S
C229 H203 0.950 . S
C229 C228 1.414 . S
C229 C230 1.374 . S
C230 H204 0.950 . S
C230 C226 1.385 . S
C230 C229 1.374 . S
C231 C228 1.499 . S
C231 C232 1.373 . S
C231 C233 1.389 . S
C232 H205 0.950 . S
C232 C218 1.377 . S
C232 C231 1.373 . S
C233 C217 1.377 . S
C233 C231 1.389 . S
C233 C234 1.524 . S
C234 C233 1.524 . S
C234 C235 1.397 . S
C234 C239 1.363 . S
C235 H206 0.950 . S
C235 C234 1.397 . S
C235 C236 1.334 . S
C236 H207 0.950 . S
C236 C235 1.334 . S
C236 C237 1.287 . S
C237 C236 1.287 . S
C237 C238 1.524 . S
C237 H240 0.999 . S
C238 H208 0.950 . S
C238 C237 1.524 . S
C238 C239 1.415 . S
C239 H209 0.950 1_554 S
C239 C234 1.363 . S
C239 C238 1.415 . S
H240 C237 0.999 . S
H241 C222 0.913 . S
H242 C260 0.951 . S
H243 C262 0.951 . S
H244 C264 0.950 . S
H245 C265 0.950 . S
H246 C267 0.950 . S
H247 C270 0.950 . S
H248 C271 0.950 . S
H249 C273 0.950 1_554 S
H250 C274 0.950 . S
H251 C275 0.951 . S
H252 C277 0.951 . S
H253 C279 0.950 . S
H254 C280 0.950 . S
H255 C282 0.950 . S
H256 C285 0.950 . S
H257 C286 0.950 . S
H258 C288 0.950 . S
H259 C289 0.970 . S
C260 H242 0.951 . S
C260 C261 1.366 . S
C260 C262 1.388 . S
C261 C260 1.366 . S
C261 C265 1.385 1_554 S
C262 H243 0.951 . S
C262 C260 1.388 . S
C262 C263 1.366 . S
C263 C262 1.366 . S
C263 C264 1.414 1_554 S
C263 C266 1.499 . S
C264 H244 0.950 . S
C264 C263 1.414 1_556 S
C264 C265 1.374 . S
C265 H245 0.950 . S
C265 C261 1.385 1_556 S
C265 C264 1.374 . S
C266 C263 1.499 . S
C266 C267 1.373 . S
C266 C268 1.389 . S
C267 H246 0.950 . S
C267 C266 1.373 . S
C267 C283 1.377 . S
C268 C266 1.389 . S
C268 C269 1.524 1_554 S
C268 C282 1.377 . S
C269 C268 1.524 1_556 S
C269 C270 1.397 . S
C269 C274 1.363 1_556 S
C270 H247 0.950 . S
C270 C269 1.397 . S
C270 C271 1.334 . S
C271 H248 0.950 . S
C271 C270 1.334 . S
C271 C272 1.287 . S
C272 C271 1.287 . S
C272 C273 1.524 . S
C272 H291 0.913 . S
C273 H249 0.950 1_556 S
C273 C272 1.524 . S
C273 C274 1.415 1_556 S
C274 H250 0.950 . S
C274 C269 1.363 1_554 S
C274 C273 1.415 1_554 S
C275 H251 0.951 . S
C275 C276 1.366 1_556 S
C275 C277 1.388 . S
C276 C275 1.366 1_554 S
C276 C280 1.385 . S
C277 H252 0.951 . S
C277 C275 1.388 . S
C277 C278 1.366 1_556 S
C278 C277 1.366 1_554 S
C278 C279 1.414 . S
C278 C281 1.499 . S
C279 H253 0.950 . S
C279 C278 1.414 . S
C279 C280 1.374 . S
C280 H254 0.950 . S
C280 C276 1.385 . S
C280 C279 1.374 . S
C281 C278 1.499 . S
C281 C282 1.373 . S
C281 C283 1.389 . S
C282 H255 0.950 . S
C282 C268 1.377 . S
C282 C281 1.373 . S
C283 C267 1.377 . S
C283 C281 1.389 . S
C283 C284 1.524 . S
C284 C283 1.524 . S
C284 C285 1.397 . S
C284 C289 1.363 . S
C285 H256 0.950 . S
C285 C284 1.397 . S
C285 C286 1.334 . S
C286 H257 0.950 . S
C286 C285 1.334 . S
C286 C287 1.287 . S
C287 C286 1.287 . S
C287 C288 1.524 . S
C287 H290 0.999 . S
C288 H258 0.950 . S
C288 C287 1.524 . S
C288 C289 1.415 . S
C289 H259 0.970 . S
C289 C284 1.363 . S
C289 C288 1.415 . S
H290 C287 0.999 . S
H291 C272 0.913 . S
H292 C310 0.954 . S
H293 C312 0.951 . S
H294 C314 0.950 . S
H295 C315 0.950 . S
H296 C317 0.950 . S
H297 C320 0.950 . S
H298 C321 0.950 . S
H299 C323 0.950 . S
H300 C324 0.950 . S
H301 C325 0.951 . S
H302 C327 0.951 . S
H303 C329 0.950 1_556 S
H304 C330 0.950 1_556 S
H305 C332 0.950 . S
H306 C335 0.950 . S
H307 C336 0.950 . S
H308 C338 0.950 . S
H309 C339 0.950 . S
C310 H292 0.954 . S
C310 C311 1.366 . S
C310 C312 1.388 . S
C311 C310 1.366 . S
C311 C315 1.385 . S
C312 H293 0.951 . S
C312 C310 1.388 . S
C312 C313 1.366 . S
C313 C312 1.366 . S
C313 C314 1.414 . S
C313 C316 1.499 . S
C314 H294 0.950 . S
C314 C313 1.414 . S
C314 C315 1.374 . S
C315 H295 0.950 . S
C315 C311 1.385 . S
C315 C314 1.374 . S
C316 C313 1.499 . S
C316 C317 1.373 1_554 S
C316 C318 1.389 . S
C317 H296 0.950 . S
C317 C316 1.373 1_556 S
C317 C333 1.377 . S
C318 C316 1.389 . S
C318 C319 1.524 . S
C318 C332 1.377 . S
C319 C318 1.524 . S
C319 C320 1.397 . S
C319 C324 1.363 . S
C320 H297 0.950 . S
C320 C319 1.397 . S
C320 C321 1.334 . S
C321 H298 0.950 . S
C321 C320 1.334 . S
C321 C322 1.287 . S
C322 C321 1.287 . S
C322 C323 1.524 . S
C322 H341 0.913 . S
C323 H299 0.950 . S
C323 C322 1.524 . S
C323 C324 1.415 . S
C324 H300 0.950 . S
C324 C319 1.363 . S
C324 C323 1.415 . S
C325 H301 0.951 . S
C325 C326 1.366 . S
C325 C327 1.388 . S
C326 C325 1.366 . S
C326 C330 1.385 . S
C327 H302 0.951 . S
C327 C325 1.388 . S
C327 C328 1.366 . S
C328 C327 1.366 . S
C328 C329 1.414 . S
C328 C331 1.499 . S
C329 H303 0.950 1_554 S
C329 C328 1.414 . S
C329 C330 1.374 . S
C330 H304 0.950 1_554 S
C330 C326 1.385 . S
C330 C329 1.374 . S
C331 C328 1.499 . S
C331 C332 1.373 . S
C331 C333 1.389 1_554 S
C332 H305 0.950 . S
C332 C318 1.377 . S
C332 C331 1.373 . S
C333 C317 1.377 . S
C333 C331 1.389 1_556 S
C333 C334 1.524 . S
C334 C333 1.524 . S
C334 C335 1.397 . S
C334 C339 1.363 . S
C335 H306 0.950 . S
C335 C334 1.397 . S
C335 C336 1.334 . S
C336 H307 0.950 . S
C336 C335 1.334 . S
C336 C337 1.287 . S
C337 C336 1.287 . S
C337 C338 1.524 . S
C337 H340 0.999 . S
C338 H308 0.950 . S
C338 C337 1.524 . S
C338 C339 1.415 . S
C339 H309 0.950 . S
C339 C334 1.363 . S
C339 C338 1.415 . S
H340 C337 0.999 . S
H341 C322 0.913 . S
H342 C360 0.951 . S
H343 C362 0.951 . S
H344 C364 0.950 . S
H345 C365 0.950 . S
H346 C367 0.950 . S
H347 C370 0.950 . S
H348 C371 0.950 . S
H349 C373 0.950 . S
H350 C374 0.950 1_556 S
H351 C375 0.951 . S
H352 C377 0.951 . S
H353 C379 0.950 . S
H354 C380 0.950 . S
H355 C382 0.950 . S
H356 C385 0.950 . S
H357 C386 0.950 . S
H358 C388 0.950 . S
H359 C389 0.950 1_554 S
C360 H342 0.951 . S
C360 C361 1.366 1_556 S
C360 C362 1.388 . S
C361 C360 1.366 1_554 S
C361 C365 1.385 . S
C362 H343 0.951 . S
C362 C360 1.388 . S
C362 C363 1.366 1_556 S
C363 C362 1.366 1_554 S
C363 C364 1.414 . S
C363 C366 1.499 . S
C364 H344 0.950 . S
C364 C363 1.414 . S
C364 C365 1.374 . S
C365 H345 0.950 . S
C365 C361 1.385 . S
C365 C364 1.374 . S
C366 C363 1.499 . S
C366 C367 1.373 1_554 S
C366 C368 1.389 . S
C367 H346 0.950 . S
C367 C366 1.373 1_556 S
C367 C383 1.377 . S
C368 C366 1.389 . S
C368 C369 1.524 . S
C368 C382 1.377 . S
C369 C368 1.524 . S
C369 C370 1.397 . S
C369 C374 1.363 . S
C370 H347 0.950 . S
C370 C369 1.397 . S
C370 C371 1.334 . S
C371 H348 0.950 . S
C371 C370 1.334 . S
C371 C372 1.287 . S
C372 C371 1.287 . S
C372 C373 1.524 . S
C372 H391 0.913 . S
C373 H349 0.950 . S
C373 C372 1.524 . S
C373 C374 1.415 . S
C374 H350 0.950 1_554 S
C374 C369 1.363 . S
C374 C373 1.415 . S
C375 H351 0.951 . S
C375 C376 1.366 . S
C375 C377 1.388 . S
C376 C375 1.366 . S
C376 C380 1.385 1_554 S
C377 H352 0.951 . S
C377 C375 1.388 . S
C377 C378 1.366 . S
C378 C377 1.366 . S
C378 C379 1.414 1_554 S
C378 C381 1.499 . S
C379 H353 0.950 . S
C379 C378 1.414 1_556 S
C379 C380 1.374 . S
C380 H354 0.950 . S
C380 C376 1.385 1_556 S
C380 C379 1.374 . S
C381 C378 1.499 . S
C381 C382 1.373 . S
C381 C383 1.389 1_554 S
C382 H355 0.950 . S
C382 C368 1.377 . S
C382 C381 1.373 . S
C383 C367 1.377 . S
C383 C381 1.389 1_556 S
C383 C384 1.524 . S
C384 C383 1.524 . S
C384 C385 1.397 . S
C384 C389 1.363 . S
C385 H356 0.950 . S
C385 C384 1.397 . S
C385 C386 1.334 . S
C386 H357 0.950 . S
C386 C385 1.334 . S
C386 C387 1.287 . S
C387 C386 1.287 . S
C387 C388 1.524 . S
C387 H390 0.999 . S
C388 H358 0.950 . S
C388 C387 1.524 . S
C388 C389 1.415 . S
C389 H359 0.950 1_556 S
C389 C384 1.363 . S
C389 C388 1.415 . S
H390 C387 0.999 . S
H391 C372 0.913 . S
H392 C410 0.951 . S
H393 C412 0.951 . S
H394 C414 0.950 . S
H395 C415 0.950 . S
H396 C417 0.950 . S
H397 C420 0.950 . S
H398 C421 0.950 . S
H399 C423 0.950 . S
H400 C424 0.950 . S
H401 C425 0.951 . S
H402 C427 0.951 . S
H403 C429 0.950 . S
H404 C430 0.950 . S
H405 C432 0.950 . S
H406 C435 0.950 . S
H407 C436 0.950 . S
H408 C438 0.950 . S
H409 C439 0.950 . S
C410 H392 0.951 . S
C410 C411 1.366 . S
C410 C412 1.388 . S
C411 C410 1.366 . S
C411 C415 1.385 . S
C412 H393 0.951 . S
C412 C410 1.388 . S
C412 C413 1.366 . S
C413 C412 1.366 . S
C413 C414 1.414 . S
C413 C416 1.499 . S
C414 H394 0.950 . S
C414 C413 1.414 . S
C414 C415 1.374 . S
C415 H395 0.950 . S
C415 C411 1.385 . S
C415 C414 1.374 . S
C416 C413 1.499 . S
C416 C417 1.373 . S
C416 C418 1.389 . S
C417 H396 0.950 . S
C417 C416 1.373 . S
C417 C433 1.377 . S
C418 C416 1.389 . S
C418 C419 1.524 . S
C418 C432 1.377 . S
C419 C418 1.524 . S
C419 C420 1.397 . S
C419 C424 1.363 . S
C420 H397 0.950 . S
C420 C419 1.397 . S
C420 C421 1.334 . S
C421 H398 0.950 . S
C421 C420 1.334 . S
C421 C422 1.287 . S
C422 C421 1.287 . S
C422 C423 1.524 . S
C422 H441 0.913 . S
C423 H399 0.950 . S
C423 C422 1.524 . S
C423 C424 1.415 . S
C424 H400 0.950 . S
C424 C419 1.363 . S
C424 C423 1.415 . S
C425 H401 0.951 . S
C425 C426 1.366 . S
C425 C427 1.388 . S
C426 C425 1.366 . S
C426 C430 1.385 . S
C427 H402 0.951 . S
C427 C425 1.388 . S
C427 C428 1.366 . S
C428 C427 1.366 . S
C428 C429 1.414 . S
C428 C431 1.499 . S
C429 H403 0.950 . S
C429 C428 1.414 . S
C429 C430 1.374 . S
C430 H404 0.950 . S
C430 C426 1.385 . S
C430 C429 1.374 . S
C431 C428 1.499 . S
C431 C432 1.373 . S
C431 C433 1.389 . S
C432 H405 0.950 . S
C432 C418 1.377 . S
C432 C431 1.373 . S
C433 C417 1.377 . S
C433 C431 1.389 . S
C433 C434 1.524 . S
C434 C433 1.524 . S
C434 C435 1.397 . S
C434 C439 1.363 . S
C435 H406 0.950 . S
C435 C434 1.397 . S
C435 C436 1.334 . S
C436 H407 0.950 . S
C436 C435 1.334 . S
C436 C437 1.287 . S
C437 C436 1.287 . S
C437 C438 1.524 . S
C437 H440 0.999 . S
C438 H408 0.950 . S
C438 C437 1.524 . S
C438 C439 1.415 . S
C439 H409 0.950 . S
C439 C434 1.363 . S
C439 C438 1.415 . S
H440 C437 0.999 . S
H441 C422 0.913 . S
H442 C460 0.951 . S
H443 C462 0.951 . S
H444 C464 0.950 . S
H445 C465 0.950 . S
H446 C467 0.950 . S
H447 C470 0.950 . S
H448 C471 0.950 . S
H449 C473 0.950 . S
H450 C474 0.950 . S
H451 C475 0.951 . S
H452 C477 0.951 . S
H453 C479 0.950 . S
H454 C480 0.950 . S
H455 C482 0.950 . S
H456 C485 0.950 . S
H457 C486 0.950 . S
H458 C488 0.950 . S
H459 C489 0.950 . S
C460 H442 0.951 . S
C460 C461 1.366 . S
C460 C462 1.388 . S
C461 C460 1.366 . S
C461 C465 1.385 . S
C462 H443 0.951 . S
C462 C460 1.388 . S
C462 C463 1.366 . S
C463 C462 1.366 . S
C463 C464 1.414 . S
C463 C466 1.499 . S
C464 H444 0.950 . S
C464 C463 1.414 . S
C464 C465 1.374 . S
C465 H445 0.950 . S
C465 C461 1.385 . S
C465 C464 1.374 . S
C466 C463 1.499 . S
C466 C467 1.373 . S
C466 C468 1.389 . S
C467 H446 0.950 . S
C467 C466 1.373 . S
C467 C483 1.377 . S
C468 C466 1.389 . S
C468 C469 1.524 . S
C468 C482 1.377 . S
C469 C468 1.524 . S
C469 C470 1.397 . S
C469 C474 1.363 . S
C470 H447 0.950 . S
C470 C469 1.397 . S
C470 C471 1.334 . S
C471 H448 0.950 . S
C471 C470 1.334 . S
C471 C472 1.287 . S
C472 C471 1.287 . S
C472 C473 1.524 . S
C472 H491 0.913 . S
C473 H449 0.950 . S
C473 C472 1.524 . S
C473 C474 1.415 . S
C474 H450 0.950 . S
C474 C469 1.363 . S
C474 C473 1.415 . S
C475 H451 0.951 . S
C475 C476 1.366 . S
C475 C477 1.388 . S
C476 C475 1.366 . S
C476 C480 1.385 . S
C477 H452 0.951 . S
C477 C475 1.388 . S
C477 C478 1.366 . S
C478 C477 1.366 . S
C478 C479 1.414 . S
C478 C481 1.499 . S
C479 H453 0.950 . S
C479 C478 1.414 . S
C479 C480 1.374 . S
C480 H454 0.950 . S
C480 C476 1.385 . S
C480 C479 1.374 . S
C481 C478 1.499 . S
C481 C482 1.373 . S
C481 C483 1.389 . S
C482 H455 0.950 . S
C482 C468 1.377 . S
C482 C481 1.373 . S
C483 C467 1.377 . S
C483 C481 1.389 . S
C483 C484 1.524 . S
C484 C483 1.524 . S
C484 C485 1.397 . S
C484 C489 1.363 . S
C485 H456 0.950 . S
C485 C484 1.397 . S
C485 C486 1.334 . S
C486 H457 0.950 . S
C486 C485 1.334 . S
C486 C487 1.287 . S
C487 C486 1.287 . S
C487 C488 1.524 . S
C487 H490 0.999 . S
C488 H458 0.950 . S
C488 C487 1.524 . S
C488 C489 1.415 . S
C489 H459 0.950 . S
C489 C484 1.363 . S
C489 C488 1.415 . S
H490 C487 0.999 . S
H491 C472 0.913 . S
H492 C510 0.951 . S
H493 C512 0.951 . S
H494 C514 0.950 . S
H495 C515 0.950 . S
H496 C517 0.950 . S
H497 C520 0.950 . S
H498 C521 0.950 . S
H499 C523 0.950 . S
H500 C524 0.950 . S
H501 C525 0.951 . S
H502 C527 0.951 . S
H503 C529 0.950 . S
H504 C530 0.950 . S
H505 C532 0.950 . S
H506 C535 0.950 . S
H507 C536 0.950 . S
H508 C538 0.950 . S
H509 C539 0.950 . S
C510 H492 0.951 . S
C510 C511 1.366 . S
C510 C512 1.388 . S
C511 C510 1.366 . S
C511 C515 1.385 . S
C512 H493 0.951 . S
C512 C510 1.388 . S
C512 C513 1.366 . S
C513 C512 1.366 . S
C513 C514 1.414 . S
C513 C516 1.499 . S
C514 H494 0.950 . S
C514 C513 1.414 . S
C514 C515 1.374 . S
C515 H495 0.950 . S
C515 C511 1.385 . S
C515 C514 1.374 . S
C516 C513 1.499 . S
C516 C517 1.373 . S
C516 C518 1.389 . S
C517 H496 0.950 . S
C517 C516 1.373 . S
C517 C533 1.377 . S
C518 C516 1.389 . S
C518 C519 1.524 . S
C518 C532 1.377 . S
C519 C518 1.524 . S
C519 C520 1.397 . S
C519 C524 1.363 . S
C520 H497 0.950 . S
C520 C519 1.397 . S
C520 C521 1.334 . S
C521 H498 0.950 . S
C521 C520 1.334 . S
C521 C522 1.287 . S
C522 C521 1.287 . S
C522 C523 1.524 . S
C522 H541 0.913 . S
C523 H499 0.950 . S
C523 C522 1.524 . S
C523 C524 1.415 . S
C524 H500 0.950 . S
C524 C519 1.363 . S
C524 C523 1.415 . S
C525 H501 0.951 . S
C525 C526 1.366 . S
C525 C527 1.388 . S
C526 C525 1.366 . S
C526 C530 1.385 . S
C527 H502 0.951 . S
C527 C525 1.388 . S
C527 C528 1.366 . S
C528 C527 1.366 . S
C528 C529 1.414 . S
C528 C531 1.499 . S
C529 H503 0.950 . S
C529 C528 1.414 . S
C529 C530 1.374 . S
C530 H504 0.950 . S
C530 C526 1.385 . S
C530 C529 1.374 . S
C531 C528 1.499 . S
C531 C532 1.373 . S
C531 C533 1.389 . S
C532 H505 0.950 . S
C532 C518 1.377 . S
C532 C531 1.373 . S
C533 C517 1.377 . S
C533 C531 1.389 . S
C533 C534 1.524 . S
C534 C533 1.524 . S
C534 C535 1.397 . S
C534 C539 1.363 . S
C535 H506 0.950 . S
C535 C534 1.397 . S
C535 C536 1.334 . S
C536 H507 0.950 . S
C536 C535 1.334 . S
C536 C537 1.287 . S
C537 C536 1.287 . S
C537 C538 1.524 . S
C537 H540 0.999 . S
C538 H508 0.950 . S
C538 C537 1.524 . S
C538 C539 1.415 . S
C539 H509 0.950 . S
C539 C534 1.363 . S
C539 C538 1.415 . S
H540 C537 0.999 . S
H541 C522 0.913 . S
H542 C560 0.951 . S
H543 C562 0.951 . S
H544 C564 0.950 . S
H545 C565 0.950 . S
H546 C567 0.950 . S
H547 C570 0.950 . S
H548 C571 0.950 . S
H549 C573 0.950 . S
H550 C574 0.950 . S
H551 C575 0.951 . S
H552 C577 0.951 . S
H553 C579 0.950 . S
H554 C580 0.950 . S
H555 C582 0.950 . S
H556 C585 0.950 . S
H557 C586 0.950 . S
H558 C588 0.950 . S
H559 C589 0.950 . S
C560 H542 0.951 . S
C560 C561 1.366 . S
C560 C562 1.388 . S
C561 C560 1.366 . S
C561 C565 1.385 . S
C562 H543 0.951 . S
C562 C560 1.388 . S
C562 C563 1.366 . S
C563 C562 1.366 . S
C563 C564 1.414 . S
C563 C566 1.499 . S
C564 H544 0.950 . S
C564 C563 1.414 . S
C564 C565 1.374 . S
C565 H545 0.950 . S
C565 C561 1.385 . S
C565 C564 1.374 . S
C566 C563 1.499 . S
C566 C567 1.373 . S
C566 C568 1.389 . S
C567 H546 0.950 . S
C567 C566 1.373 . S
C567 C583 1.377 . S
C568 C566 1.389 . S
C568 C569 1.524 . S
C568 C582 1.377 . S
C569 C568 1.524 . S
C569 C570 1.397 . S
C569 C574 1.363 . S
C570 H547 0.950 . S
C570 C569 1.397 . S
C570 C571 1.334 . S
C571 H548 0.950 . S
C571 C570 1.334 . S
C571 C572 1.287 . S
C572 C571 1.287 . S
C572 C573 1.524 . S
C572 H591 0.913 . S
C573 H549 0.950 . S
C573 C572 1.524 . S
C573 C574 1.415 . S
C574 H550 0.950 . S
C574 C569 1.363 . S
C574 C573 1.415 . S
C575 H551 0.951 . S
C575 C576 1.366 . S
C575 C577 1.388 . S
C576 C575 1.366 . S
C576 C580 1.385 . S
C577 H552 0.951 . S
C577 C575 1.388 . S
C577 C578 1.366 . S
C578 C577 1.366 . S
C578 C579 1.414 . S
C578 C581 1.499 . S
C579 H553 0.950 . S
C579 C578 1.414 . S
C579 C580 1.374 . S
C580 H554 0.950 . S
C580 C576 1.385 . S
C580 C579 1.374 . S
C581 C578 1.499 . S
C581 C582 1.373 . S
C581 C583 1.389 . S
C582 H555 0.950 . S
C582 C568 1.377 . S
C582 C581 1.373 . S
C583 C567 1.377 . S
C583 C581 1.389 . S
C583 C584 1.524 . S
C584 C583 1.524 . S
C584 C585 1.397 . S
C584 C589 1.363 . S
C585 H556 0.950 . S
C585 C584 1.397 . S
C585 C586 1.334 . S
C586 H557 0.950 . S
C586 C585 1.334 . S
C586 C587 1.287 . S
C587 C586 1.287 . S
C587 C588 1.524 . S
C587 H590 0.999 . S
C588 H558 0.950 . S
C588 C587 1.524 . S
C588 C589 1.415 . S
C589 H559 0.950 . S
C589 C584 1.363 . S
C589 C588 1.415 . S
H590 C587 0.999 . S
H591 C572 0.913 . S
H592 C610 0.951 . S
H593 C612 0.951 . S
H594 C614 0.950 . S
H595 C615 0.950 . S
H596 C617 0.950 . S
H597 C620 0.950 . S
H598 C621 0.950 . S
H599 C623 0.950 . S
H600 C624 0.950 . S
H601 C625 0.951 . S
H602 C627 0.951 . S
H603 C629 0.950 . S
H604 C630 0.950 . S
H605 C632 0.950 . S
H606 C635 0.950 . S
H607 C636 0.950 . S
H608 C638 0.950 . S
H609 C639 0.950 . S
C610 H592 0.951 . S
C610 C611 1.366 . S
C610 C612 1.388 . S
C611 C610 1.366 . S
C611 C615 1.385 . S
C612 H593 0.951 . S
C612 C610 1.388 . S
C612 C613 1.366 . S
C613 C612 1.366 . S
C613 C614 1.414 . S
C613 C616 1.499 . S
C614 H594 0.950 . S
C614 C613 1.414 . S
C614 C615 1.374 . S
C615 H595 0.950 . S
C615 C611 1.385 . S
C615 C614 1.374 . S
C616 C613 1.499 . S
C616 C617 1.373 . S
C616 C618 1.389 . S
C617 H596 0.950 . S
C617 C616 1.373 . S
C617 C633 1.377 . S
C618 C616 1.389 . S
C618 C619 1.524 . S
C618 C632 1.377 . S
C619 C618 1.524 . S
C619 C620 1.397 . S
C619 C624 1.363 . S
C620 H597 0.950 . S
C620 C619 1.397 . S
C620 C621 1.334 1_455 S
C621 H598 0.950 . S
C621 C620 1.334 1_655 S
C621 C622 1.287 1_655 S
C622 C621 1.287 1_455 S
C622 C623 1.524 . S
C622 H641 0.913 1_455 S
C623 H599 0.950 . S
C623 C622 1.524 . S
C623 C624 1.415 . S
C624 H600 0.950 . S
C624 C619 1.363 . S
C624 C623 1.415 . S
C625 H601 0.951 . S
C625 C626 1.366 . S
C625 C627 1.388 . S
C626 C625 1.366 . S
C626 C630 1.385 . S
C627 H602 0.951 . S
C627 C625 1.388 . S
C627 C628 1.366 . S
C628 C627 1.366 . S
C628 C629 1.414 . S
C628 C631 1.499 . S
C629 H603 0.950 . S
C629 C628 1.414 . S
C629 C630 1.374 . S
C630 H604 0.950 . S
C630 C626 1.385 . S
C630 C629 1.374 . S
C631 C628 1.499 . S
C631 C632 1.373 . S
C631 C633 1.389 . S
C632 H605 0.950 . S
C632 C618 1.377 . S
C632 C631 1.373 . S
C633 C617 1.377 . S
C633 C631 1.389 . S
C633 C634 1.524 . S
C634 C633 1.524 . S
C634 C635 1.397 . S
C634 C639 1.363 . S
C635 H606 0.950 . S
C635 C634 1.397 . S
C635 C636 1.334 . S
C636 H607 0.950 . S
C636 C635 1.334 . S
C636 C637 1.287 . S
C637 C636 1.287 . S
C637 C638 1.524 . S
C637 H640 0.999 . S
C638 H608 0.950 . S
C638 C637 1.524 . S
C638 C639 1.415 . S
C639 H609 0.950 . S
C639 C634 1.363 . S
C639 C638 1.415 . S
H640 C637 0.999 . S
H641 C622 0.913 1_655 S
H642 C660 0.951 . S
H643 C662 0.951 . S
H644 C664 0.950 . S
H645 C665 0.950 1_565 S
H646 C667 0.950 . S
H647 C670 0.950 . S
H648 C671 0.950 . S
H649 C673 0.950 . S
H650 C674 0.950 . S
H651 C675 0.951 . S
H652 C677 0.951 . S
H653 C679 0.950 . S
H654 C680 0.950 . S
H655 C682 0.950 . S
H656 C685 0.950 . S
H657 C686 0.950 . S
H658 C688 0.950 1_565 S
H659 C689 0.950 . S
C660 H642 0.951 . S
C660 C661 1.366 . S
C660 C662 1.388 . S
C661 C660 1.366 . S
C661 C665 1.385 . S
C662 H643 0.951 . S
C662 C660 1.388 . S
C662 C663 1.366 . S
C663 C662 1.366 . S
C663 C664 1.414 . S
C663 C666 1.499 . S
C664 H644 0.950 . S
C664 C663 1.414 . S
C664 C665 1.374 . S
C665 H645 0.950 1_545 S
C665 C661 1.385 . S
C665 C664 1.374 . S
C666 C663 1.499 . S
C666 C667 1.373 . S
C666 C668 1.389 . S
C667 H646 0.950 . S
C667 C666 1.373 . S
C667 C683 1.377 . S
C668 C666 1.389 . S
C668 C669 1.524 . S
C668 C682 1.377 . S
C669 C668 1.524 . S
C669 C670 1.397 . S
C669 C674 1.363 . S
C670 H647 0.950 . S
C670 C669 1.397 . S
C670 C671 1.334 . S
C671 H648 0.950 . S
C671 C670 1.334 . S
C671 C672 1.287 . S
C672 C671 1.287 . S
C672 C673 1.524 . S
C672 H691 0.913 . S
C673 H649 0.950 . S
C673 C672 1.524 . S
C673 C674 1.415 . S
C674 H650 0.950 . S
C674 C669 1.363 . S
C674 C673 1.415 . S
C675 H651 0.951 . S
C675 C676 1.366 . S
C675 C677 1.388 . S
C676 C675 1.366 . S
C676 C680 1.385 . S
C677 H652 0.951 . S
C677 C675 1.388 . S
C677 C678 1.366 . S
C678 C677 1.366 . S
C678 C679 1.414 . S
C678 C681 1.499 . S
C679 H653 0.950 . S
C679 C678 1.414 . S
C679 C680 1.374 . S
C680 H654 0.950 . S
C680 C676 1.385 . S
C680 C679 1.374 . S
C681 C678 1.499 . S
C681 C682 1.373 . S
C681 C683 1.389 . S
C682 H655 0.950 . S
C682 C668 1.377 . S
C682 C681 1.373 . S
C683 C667 1.377 . S
C683 C681 1.389 . S
C683 C684 1.524 . S
C684 C683 1.524 . S
C684 C685 1.397 . S
C684 C689 1.363 . S
C685 H656 0.950 . S
C685 C684 1.397 . S
C685 C686 1.334 . S
C686 H657 0.950 . S
C686 C685 1.334 . S
C686 C687 1.287 . S
C687 C686 1.287 . S
C687 C688 1.524 . S
C687 H690 0.999 . S
C688 H658 0.950 1_545 S
C688 C687 1.524 . S
C688 C689 1.415 . S
C689 H659 0.950 . S
C689 C684 1.363 . S
C689 C688 1.415 . S
H690 C687 0.999 . S
H691 C672 0.913 . S
H692 C710 0.951 . S
H693 C712 0.951 . S
H694 C714 0.950 . S
H695 C715 0.950 . S
H696 C717 0.950 . S
H697 C720 0.950 . S
H698 C721 0.950 . S
H699 C723 0.950 . S
H700 C724 0.950 . S
H701 C725 0.951 . S
H702 C727 0.951 . S
H703 C729 0.950 . S
H704 C730 0.950 . S
H705 C732 0.950 . S
H706 C735 0.950 . S
H707 C736 0.950 . S
H708 C738 0.950 . S
H709 C739 0.950 . S
C710 H692 0.951 . S
C710 C711 1.366 . S
C710 C712 1.388 . S
C711 C710 1.366 . S
C711 C715 1.385 . S
C712 H693 0.951 . S
C712 C710 1.388 . S
C712 C713 1.366 . S
C713 C712 1.366 . S
C713 C714 1.414 . S
C713 C716 1.499 . S
C714 H694 0.950 . S
C714 C713 1.414 . S
C714 C715 1.374 . S
C715 H695 0.950 . S
C715 C711 1.385 . S
C715 C714 1.374 . S
C716 C713 1.499 . S
C716 C717 1.373 . S
C716 C718 1.389 . S
C717 H696 0.950 . S
C717 C716 1.373 . S
C717 C733 1.377 . S
C718 C716 1.389 . S
C718 C719 1.524 . S
C718 C732 1.377 . S
C719 C718 1.524 . S
C719 C720 1.397 . S
C719 C724 1.363 . S
C720 H697 0.950 . S
C720 C719 1.397 . S
C720 C721 1.334 . S
C721 H698 0.950 . S
C721 C720 1.334 . S
C721 C722 1.287 . S
C722 C721 1.287 . S
C722 C723 1.524 . S
C722 H741 0.913 . S
C723 H699 0.950 . S
C723 C722 1.524 . S
C723 C724 1.415 . S
C724 H700 0.950 . S
C724 C719 1.363 . S
C724 C723 1.415 . S
C725 H701 0.951 . S
C725 C726 1.366 . S
C725 C727 1.388 . S
C726 C725 1.366 . S
C726 C730 1.385 . S
C727 H702 0.951 . S
C727 C725 1.388 . S
C727 C728 1.366 . S
C728 C727 1.366 . S
C728 C729 1.414 . S
C728 C731 1.499 . S
C729 H703 0.950 . S
C729 C728 1.414 . S
C729 C730 1.374 . S
C730 H704 0.950 . S
C730 C726 1.385 . S
C730 C729 1.374 . S
C731 C728 1.499 . S
C731 C732 1.373 . S
C731 C733 1.389 . S
C732 H705 0.950 . S
C732 C718 1.377 . S
C732 C731 1.373 . S
C733 C717 1.377 . S
C733 C731 1.389 . S
C733 C734 1.524 . S
C734 C733 1.524 . S
C734 C735 1.397 . S
C734 C739 1.363 . S
C735 H706 0.950 . S
C735 C734 1.397 . S
C735 C736 1.334 1_655 S
C736 H707 0.950 . S
C736 C735 1.334 1_455 S
C736 C737 1.287 . S
C737 C736 1.287 . S
C737 C738 1.524 1_455 S
C737 H740 0.999 . S
C738 H708 0.950 . S
C738 C737 1.524 1_655 S
C738 C739 1.415 . S
C739 H709 0.950 . S
C739 C734 1.363 . S
C739 C738 1.415 . S
H740 C737 0.999 . S
H741 C722 0.913 . S
H742 C760 0.951 . S
H743 C762 0.951 . S
H744 C764 0.950 . S
H745 C765 0.950 . S
H746 C767 0.950 . S
H747 C770 0.950 . S
H748 C771 0.950 . S
H749 C773 0.950 . S
H750 C774 0.950 1_565 S
H751 C775 0.951 . S
H752 C777 0.951 . S
H753 C779 0.950 . S
H754 C780 0.950 . S
H755 C782 0.950 . S
H756 C785 0.950 . S
H757 C786 0.950 . S
H758 C788 0.950 . S
H759 C789 0.950 . S
C760 H742 0.951 . S
C760 C761 1.366 . S
C760 C762 1.388 . S
C761 C760 1.366 . S
C761 C765 1.385 . S
C762 H743 0.951 . S
C762 C760 1.388 . S
C762 C763 1.366 . S
C763 C762 1.366 . S
C763 C764 1.414 . S
C763 C766 1.499 . S
C764 H744 0.950 . S
C764 C763 1.414 . S
C764 C765 1.374 . S
C765 H745 0.950 . S
C765 C761 1.385 . S
C765 C764 1.374 . S
C766 C763 1.499 . S
C766 C767 1.373 . S
C766 C768 1.389 . S
C767 H746 0.950 . S
C767 C766 1.373 . S
C767 C783 1.377 . S
C768 C766 1.389 . S
C768 C769 1.524 . S
C768 C782 1.377 . S
C769 C768 1.524 . S
C769 C770 1.397 1_565 S
C769 C774 1.363 1_565 S
C770 H747 0.950 . S
C770 C769 1.397 1_545 S
C770 C771 1.334 . S
C771 H748 0.950 . S
C771 C770 1.334 . S
C771 C772 1.287 . S
C772 C771 1.287 . S
C772 C773 1.524 . S
C772 H791 0.913 . S
C773 H749 0.950 . S
C773 C772 1.524 . S
C773 C774 1.415 . S
C774 H750 0.950 1_545 S
C774 C769 1.363 1_545 S
C774 C773 1.415 . S
C775 H751 0.951 . S
C775 C776 1.366 . S
C775 C777 1.388 . S
C776 C775 1.366 . S
C776 C780 1.385 . S
C777 H752 0.951 . S
C777 C775 1.388 . S
C777 C778 1.366 . S
C778 C777 1.366 . S
C778 C779 1.414 . S
C778 C781 1.499 . S
C779 H753 0.950 . S
C779 C778 1.414 . S
C779 C780 1.374 . S
C780 H754 0.950 . S
C780 C776 1.385 . S
C780 C779 1.374 . S
C781 C778 1.499 . S
C781 C782 1.373 . S
C781 C783 1.389 . S
C782 H755 0.950 . S
C782 C768 1.377 . S
C782 C781 1.373 . S
C783 C767 1.377 . S
C783 C781 1.389 . S
C783 C784 1.524 . S
C784 C783 1.524 . S
C784 C785 1.397 . S
C784 C789 1.363 . S
C785 H756 0.950 . S
C785 C784 1.397 . S
C785 C786 1.334 . S
C786 H757 0.950 . S
C786 C785 1.334 . S
C786 C787 1.287 . S
C787 C786 1.287 . S
C787 C788 1.524 . S
C787 H790 0.999 . S
C788 H758 0.950 . S
C788 C787 1.524 . S
C788 C789 1.415 . S
C789 H759 0.950 . S
C789 C784 1.363 . S
C789 C788 1.415 . S
H790 C787 0.999 . S
H791 C772 0.913 . S
H792 C810 0.951 . S
H793 C812 0.951 . S
H794 C814 0.950 . S
H795 C815 0.916 1_545 S
H796 C817 0.950 . S
H797 C820 0.950 . S
H798 C821 0.950 . S
H799 C823 0.950 . S
H800 C824 0.950 . S
H801 C825 0.951 . S
H802 C827 0.951 . S
H803 C829 0.950 . S
H804 C830 0.950 . S
H805 C832 0.950 . S
H806 C835 0.950 . S
H807 C836 0.950 . S
H808 C838 0.950 . S
H809 C839 0.950 . S
C810 H792 0.951 . S
C810 C811 1.366 . S
C810 C812 1.388 . S
C811 C810 1.366 . S
C811 C815 1.385 . S
C812 H793 0.951 . S
C812 C810 1.388 . S
C812 C813 1.366 . S
C813 C812 1.366 . S
C813 C814 1.414 . S
C813 C816 1.499 . S
C814 H794 0.950 . S
C814 C813 1.414 . S
C814 C815 1.374 . S
C815 H795 0.916 1_565 S
C815 C811 1.385 . S
C815 C814 1.374 . S
C816 C813 1.499 . S
C816 C817 1.373 . S
C816 C818 1.389 . S
C817 H796 0.950 . S
C817 C816 1.373 . S
C817 C833 1.377 . S
C818 C816 1.389 . S
C818 C819 1.524 . S
C818 C832 1.377 . S
C819 C818 1.524 . S
C819 C820 1.397 . S
C819 C824 1.363 . S
C820 H797 0.950 . S
C820 C819 1.397 . S
C820 C821 1.334 . S
C821 H798 0.950 . S
C821 C820 1.334 . S
C821 C822 1.287 . S
C822 C821 1.287 . S
C822 C823 1.524 . S
C822 H841 0.913 . S
C823 H799 0.950 . S
C823 C822 1.524 . S
C823 C824 1.415 . S
C824 H800 0.950 . S
C824 C819 1.363 . S
C824 C823 1.415 . S
C825 H801 0.951 . S
C825 C826 1.366 . S
C825 C827 1.388 . S
C826 C825 1.366 . S
C826 C830 1.385 . S
C827 H802 0.951 . S
C827 C825 1.388 . S
C827 C828 1.366 . S
C828 C827 1.366 . S
C828 C829 1.414 . S
C828 C831 1.499 . S
C829 H803 0.950 . S
C829 C828 1.414 . S
C829 C830 1.374 . S
C830 H804 0.950 . S
C830 C826 1.385 . S
C830 C829 1.374 . S
C831 C828 1.499 . S
C831 C832 1.373 . S
C831 C833 1.389 . S
C832 H805 0.950 . S
C832 C818 1.377 . S
C832 C831 1.373 . S
C833 C817 1.377 . S
C833 C831 1.389 . S
C833 C834 1.524 . S
C834 C833 1.524 . S
C834 C835 1.397 . S
C834 C839 1.363 . S
C835 H806 0.950 . S
C835 C834 1.397 . S
C835 C836 1.334 . S
C836 H807 0.950 . S
C836 C835 1.334 . S
C836 C837 1.287 . S
C837 C836 1.287 . S
C837 C838 1.524 . S
C837 H840 0.999 . S
C838 H808 0.950 . S
C838 C837 1.524 . S
C838 C839 1.415 . S
C839 H809 0.950 . S
C839 C834 1.363 . S
C839 C838 1.415 . S
H840 C837 0.999 . S
H841 C822 0.913 . S
H842 C860 0.951 . S
H843 C862 0.951 . S
H844 C864 0.950 . S
H845 C865 0.950 . S
H846 C867 0.950 . S
H847 C870 0.950 1_455 S
H848 C871 0.950 . S
H849 C873 0.950 . S
H850 C874 0.932 1_455 S
H851 C875 0.951 . S
H852 C877 0.951 . S
H853 C879 0.950 . S
H854 C880 0.950 . S
H855 C882 0.950 . S
H856 C885 0.950 . S
H857 C886 0.950 . S
H858 C888 0.950 . S
H859 C889 0.950 . S
C860 H842 0.951 . S
C860 C861 1.366 . S
C860 C862 1.388 . S
C861 C860 1.366 . S
C861 C865 1.385 . S
C862 H843 0.951 . S
C862 C860 1.388 . S
C862 C863 1.366 . S
C863 C862 1.366 . S
C863 C864 1.414 . S
C863 C866 1.499 . S
C864 H844 0.950 . S
C864 C863 1.414 . S
C864 C865 1.374 . S
C865 H845 0.950 . S
C865 C861 1.385 . S
C865 C864 1.374 . S
C866 C863 1.499 . S
C866 C867 1.373 . S
C866 C868 1.389 . S
C867 H846 0.950 . S
C867 C866 1.373 . S
C867 C883 1.377 . S
C868 C866 1.389 . S
C868 C869 1.524 . S
C868 C882 1.377 . S
C869 C868 1.524 . S
C869 C870 1.397 1_455 S
C869 C874 1.363 1_455 S
C870 H847 0.950 1_655 S
C870 C869 1.397 1_655 S
C870 C871 1.334 . S
C871 H848 0.950 . S
C871 C870 1.334 . S
C871 C872 1.287 . S
C872 C871 1.287 . S
C872 C873 1.524 . S
C872 H891 0.913 . S
C873 H849 0.950 . S
C873 C872 1.524 . S
C873 C874 1.415 . S
C874 H850 0.932 1_655 S
C874 C869 1.363 1_655 S
C874 C873 1.415 . S
C875 H851 0.951 . S
C875 C876 1.366 . S
C875 C877 1.388 . S
C876 C875 1.366 . S
C876 C880 1.385 . S
C877 H852 0.951 . S
C877 C875 1.388 . S
C877 C878 1.366 . S
C878 C877 1.366 . S
C878 C879 1.414 . S
C878 C881 1.499 . S
C879 H853 0.950 . S
C879 C878 1.414 . S
C879 C880 1.374 . S
C880 H854 0.950 . S
C880 C876 1.385 . S
C880 C879 1.374 . S
C881 C878 1.499 . S
C881 C882 1.373 . S
C881 C883 1.389 . S
C882 H855 0.950 . S
C882 C868 1.377 . S
C882 C881 1.373 . S
C883 C867 1.377 . S
C883 C881 1.389 . S
C883 C884 1.524 . S
C884 C883 1.524 . S
C884 C885 1.397 . S
C884 C889 1.363 . S
C885 H856 0.950 . S
C885 C884 1.397 . S
C885 C886 1.334 . S
C886 H857 0.950 . S
C886 C885 1.334 . S
C886 C887 1.287 . S
C887 C886 1.287 . S
C887 C888 1.524 . S
C887 H890 0.999 . S
C888 H858 0.950 . S
C888 C887 1.524 . S
C888 C889 1.415 . S
C889 H859 0.950 . S
C889 C884 1.363 . S
C889 C888 1.415 . S
H890 C887 0.999 . S
H891 C872 0.913 . S
H892 C910 0.951 . S
H893 C912 0.951 . S
H894 C914 0.950 . S
H895 C915 0.950 . S
H896 C917 0.950 . S
H897 C920 0.950 . S
H898 C921 0.950 . S
H899 C923 0.950 . S
H900 C924 0.950 . S
H901 C925 0.951 . S
H902 C927 0.951 . S
H903 C929 0.950 . S
H904 C930 0.950 . S
H905 C932 0.950 . S
H906 C935 0.950 . S
H907 C936 0.950 . S
H908 C938 0.950 . S
H909 C939 0.950 . S
C910 H892 0.951 . S
C910 C911 1.366 . S
C910 C912 1.388 . S
C911 C910 1.366 . S
C911 C915 1.385 . S
C912 H893 0.951 . S
C912 C910 1.388 . S
C912 C913 1.366 . S
C913 C912 1.366 . S
C913 C914 1.414 . S
C913 C916 1.499 . S
C914 H894 0.950 . S
C914 C913 1.414 . S
C914 C915 1.374 . S
C915 H895 0.950 . S
C915 C911 1.385 . S
C915 C914 1.374 . S
C916 C913 1.499 . S
C916 C917 1.373 . S
C916 C918 1.389 . S
C917 H896 0.950 . S
C917 C916 1.373 . S
C917 C933 1.377 . S
C918 C916 1.389 . S
C918 C919 1.524 . S
C918 C932 1.377 . S
C919 C918 1.524 . S
C919 C920 1.397 . S
C919 C924 1.363 . S
C920 H897 0.950 . S
C920 C919 1.397 . S
C920 C921 1.334 . S
C921 H898 0.950 . S
C921 C920 1.334 . S
C921 C922 1.287 . S
C922 C921 1.287 . S
C922 C923 1.524 . S
C922 H941 0.913 . S
C923 H899 0.950 . S
C923 C922 1.524 . S
C923 C924 1.415 . S
C924 H900 0.950 . S
C924 C919 1.363 . S
C924 C923 1.415 . S
C925 H901 0.951 . S
C925 C926 1.366 . S
C925 C927 1.388 . S
C926 C925 1.366 . S
C926 C930 1.385 . S
C927 H902 0.951 . S
C927 C925 1.388 . S
C927 C928 1.366 . S
C928 C927 1.366 . S
C928 C929 1.414 . S
C928 C931 1.499 . S
C929 H903 0.950 . S
C929 C928 1.414 . S
C929 C930 1.374 . S
C930 H904 0.950 . S
C930 C926 1.385 . S
C930 C929 1.374 . S
C931 C928 1.499 . S
C931 C932 1.373 . S
C931 C933 1.389 . S
C932 H905 0.950 . S
C932 C918 1.377 . S
C932 C931 1.373 . S
C933 C917 1.377 . S
C933 C931 1.389 . S
C933 C934 1.524 . S
C934 C933 1.524 . S
C934 C935 1.397 . S
C934 C939 1.363 . S
C935 H906 0.950 . S
C935 C934 1.397 . S
C935 C936 1.334 . S
C936 H907 0.950 . S
C936 C935 1.334 . S
C936 C937 1.287 . S
C937 C936 1.287 . S
C937 C938 1.524 . S
C937 H940 0.999 . S
C938 H908 0.950 . S
C938 C937 1.524 . S
C938 C939 1.415 . S
C939 H909 0.950 . S
C939 C934 1.363 . S
C939 C938 1.415 . S
H940 C937 0.999 . S
H941 C922 0.913 . S
H942 C960 0.951 . S
H943 C962 0.951 . S
H944 C964 0.950 . S
H945 C965 0.950 . S
H946 C967 0.950 . S
H947 C970 0.967 . S
H948 C971 0.950 . S
H949 C973 0.950 . S
H950 C974 0.950 1_655 S
H951 C975 0.951 . S
H952 C977 0.951 . S
H953 C979 0.950 . S
H954 C980 0.950 . S
H955 C982 0.950 . S
H956 C985 0.950 . S
H957 C986 0.950 . S
H958 C988 0.950 . S
H959 C989 0.950 . S
C960 H942 0.951 . S
C960 C961 1.366 . S
C960 C962 1.388 . S
C961 C960 1.366 . S
C961 C965 1.385 . S
C962 H943 0.951 . S
C962 C960 1.388 . S
C962 C963 1.366 . S
C963 C962 1.366 . S
C963 C964 1.414 . S
C963 C966 1.499 . S
C964 H944 0.950 . S
C964 C963 1.414 . S
C964 C965 1.374 . S
C965 H945 0.950 . S
C965 C961 1.385 . S
C965 C964 1.374 . S
C966 C963 1.499 . S
C966 C967 1.373 . S
C966 C968 1.389 . S
C967 H946 0.950 . S
C967 C966 1.373 . S
C967 C983 1.377 . S
C968 C966 1.389 . S
C968 C969 1.524 . S
C968 C982 1.377 . S
C969 C968 1.524 . S
C969 C970 1.397 1_655 S
C969 C974 1.363 1_655 S
C970 H947 0.967 . S
C970 C969 1.397 1_455 S
C970 C971 1.334 . S
C971 H948 0.950 . S
C971 C970 1.334 . S
C971 C972 1.287 . S
C972 C971 1.287 . S
C972 C973 1.524 . S
C972 H991 0.913 . S
C973 H949 0.950 . S
C973 C972 1.524 . S
C973 C974 1.415 . S
C974 H950 0.950 1_455 S
C974 C969 1.363 1_455 S
C974 C973 1.415 . S
C975 H951 0.951 . S
C975 C976 1.366 . S
C975 C977 1.388 . S
C976 C975 1.366 . S
C976 C980 1.385 . S
C977 H952 0.951 . S
C977 C975 1.388 . S
C977 C978 1.366 . S
C978 C977 1.366 . S
C978 C979 1.414 . S
C978 C981 1.499 . S
C979 H953 0.950 . S
C979 C978 1.414 . S
C979 C980 1.374 . S
C980 H954 0.950 . S
C980 C976 1.385 . S
C980 C979 1.374 . S
C981 C978 1.499 . S
C981 C982 1.373 . S
C981 C983 1.389 . S
C982 H955 0.950 . S
C982 C968 1.377 . S
C982 C981 1.373 . S
C983 C967 1.377 . S
C983 C981 1.389 . S
C983 C984 1.524 . S
C984 C983 1.524 . S
C984 C985 1.397 . S
C984 C989 1.363 . S
C985 H956 0.950 . S
C985 C984 1.397 . S
C985 C986 1.334 . S
C986 H957 0.950 . S
C986 C985 1.334 . S
C986 C987 1.287 . S
C987 C986 1.287 . S
C987 C988 1.524 . S
C987 H990 0.999 . S
C988 H958 0.950 . S
C988 C987 1.524 . S
C988 C989 1.415 . S
C989 H959 0.950 . S
C989 C984 1.363 . S
C989 C988 1.415 . S
H990 C987 0.999 . S
H991 C972 0.913 . S
H992 C1010 0.951 . S
H993 C1012 0.951 . S
H994 C1014 0.950 . S
H995 C1015 0.950 . S
H996 C1017 0.950 . S
H997 C1020 0.950 . S
H998 C1021 0.950 . S
H999 C1023 0.950 . S
H1000 C1024 0.950 . S
H1001 C1025 0.951 . S
H1002 C1027 0.951 . S
H1003 C1029 0.950 . S
H1004 C1030 0.950 . S
H1005 C1032 0.950 . S
H1006 C1035 0.950 . S
H1007 C1036 0.950 . S
H1008 C1038 0.950 . S
H1009 C1039 0.950 . S
C1010 H992 0.951 . S
C1010 C1011 1.366 . S
C1010 C1012 1.388 . S
C1011 C1010 1.366 . S
C1011 C1015 1.385 . S
C1012 H993 0.951 . S
C1012 C1010 1.388 . S
C1012 C1013 1.366 . S
C1013 C1012 1.366 . S
C1013 C1014 1.414 . S
C1013 C1016 1.499 . S
C1014 H994 0.950 . S
C1014 C1013 1.414 . S
C1014 C1015 1.374 . S
C1015 H995 0.950 . S
C1015 C1011 1.385 . S
C1015 C1014 1.374 . S
C1016 C1013 1.499 . S
C1016 C1017 1.373 . S
C1016 C1018 1.389 . S
C1017 H996 0.950 . S
C1017 C1016 1.373 . S
C1017 C1033 1.377 . S
C1018 C1016 1.389 . S
C1018 C1019 1.524 . S
C1018 C1032 1.377 . S
C1019 C1018 1.524 . S
C1019 C1020 1.397 . S
C1019 C1024 1.363 . S
C1020 H997 0.950 . S
C1020 C1019 1.397 . S
C1020 C1021 1.334 . S
C1021 H998 0.950 . S
C1021 C1020 1.334 . S
C1021 C1022 1.287 . S
C1022 C1021 1.287 . S
C1022 C1023 1.524 . S
C1022 H1041 0.913 . S
C1023 H999 0.950 . S
C1023 C1022 1.524 . S
C1023 C1024 1.415 . S
C1024 H1000 0.950 . S
C1024 C1019 1.363 . S
C1024 C1023 1.415 . S
C1025 H1001 0.951 . S
C1025 C1026 1.366 . S
C1025 C1027 1.388 . S
C1026 C1025 1.366 . S
C1026 C1030 1.385 . S
C1027 H1002 0.951 . S
C1027 C1025 1.388 . S
C1027 C1028 1.366 . S
C1028 C1027 1.366 . S
C1028 C1029 1.414 . S
C1028 C1031 1.499 . S
C1029 H1003 0.950 . S
C1029 C1028 1.414 . S
C1029 C1030 1.374 . S
C1030 H1004 0.950 . S
C1030 C1026 1.385 . S
C1030 C1029 1.374 . S
C1031 C1028 1.499 . S
C1031 C1032 1.373 . S
C1031 C1033 1.389 . S
C1032 H1005 0.950 . S
C1032 C1018 1.377 . S
C1032 C1031 1.373 . S
C1033 C1017 1.377 . S
C1033 C1031 1.389 . S
C1033 C1034 1.524 . S
C1034 C1033 1.524 . S
C1034 C1035 1.397 . S
C1034 C1039 1.363 . S
C1035 H1006 0.950 . S
C1035 C1034 1.397 . S
C1035 C1036 1.334 . S
C1036 H1007 0.950 . S
C1036 C1035 1.334 . S
C1036 C1037 1.287 . S
C1037 C1036 1.287 . S
C1037 C1038 1.524 . S
C1037 H1040 0.999 . S
C1038 H1008 0.950 . S
C1038 C1037 1.524 . S
C1038 C1039 1.415 . S
C1039 H1009 0.950 . S
C1039 C1034 1.363 . S
C1039 C1038 1.415 . S
H1040 C1037 0.999 . S
H1041 C1022 0.913 . S
H1042 C1060 0.951 . S
H1043 C1062 0.951 . S
H1044 C1064 0.950 . S
H1045 C1065 0.950 . S
H1046 C1067 0.950 . S
H1047 C1070 0.950 . S
H1048 C1071 0.950 . S
H1049 C1073 0.950 . S
H1050 C1074 0.950 . S
H1051 C1075 0.951 . S
H1052 C1077 0.951 . S
H1053 C1079 0.950 . S
H1054 C1080 0.950 . S
H1055 C1082 0.950 . S
H1056 C1085 0.950 . S
H1057 C1086 0.950 . S
H1058 C1088 0.950 . S
H1059 C1089 0.950 . S
C1060 H1042 0.951 . S
C1060 C1061 1.366 . S
C1060 C1062 1.388 . S
C1061 C1060 1.366 . S
C1061 C1065 1.385 . S
C1062 H1043 0.951 . S
C1062 C1060 1.388 . S
C1062 C1063 1.366 . S
C1063 C1062 1.366 . S
C1063 C1064 1.414 . S
C1063 C1066 1.499 . S
C1064 H1044 0.950 . S
C1064 C1063 1.414 . S
C1064 C1065 1.374 . S
C1065 H1045 0.950 . S
C1065 C1061 1.385 . S
C1065 C1064 1.374 . S
C1066 C1063 1.499 . S
C1066 C1067 1.373 . S
C1066 C1068 1.389 . S
C1067 H1046 0.950 . S
C1067 C1066 1.373 . S
C1067 C1083 1.377 . S
C1068 C1066 1.389 . S
C1068 C1069 1.524 . S
C1068 C1082 1.377 . S
C1069 C1068 1.524 . S
C1069 C1070 1.397 . S
C1069 C1074 1.363 . S
C1070 H1047 0.950 . S
C1070 C1069 1.397 . S
C1070 C1071 1.334 . S
C1071 H1048 0.950 . S
C1071 C1070 1.334 . S
C1071 C1072 1.287 . S
C1072 C1071 1.287 . S
C1072 C1073 1.524 . S
C1072 H1091 0.913 . S
C1073 H1049 0.950 . S
C1073 C1072 1.524 . S
C1073 C1074 1.415 . S
C1074 H1050 0.950 . S
C1074 C1069 1.363 . S
C1074 C1073 1.415 . S
C1075 H1051 0.951 . S
C1075 C1076 1.366 . S
C1075 C1077 1.388 . S
C1076 C1075 1.366 . S
C1076 C1080 1.385 . S
C1077 H1052 0.951 . S
C1077 C1075 1.388 . S
C1077 C1078 1.366 . S
C1078 C1077 1.366 . S
C1078 C1079 1.414 . S
C1078 C1081 1.499 . S
C1079 H1053 0.950 . S
C1079 C1078 1.414 . S
C1079 C1080 1.374 . S
C1080 H1054 0.950 . S
C1080 C1076 1.385 . S
C1080 C1079 1.374 . S
C1081 C1078 1.499 . S
C1081 C1082 1.373 . S
C1081 C1083 1.389 . S
C1082 H1055 0.950 . S
C1082 C1068 1.377 . S
C1082 C1081 1.373 . S
C1083 C1067 1.377 . S
C1083 C1081 1.389 . S
C1083 C1084 1.524 . S
C1084 C1083 1.524 . S
C1084 C1085 1.397 . S
C1084 C1089 1.363 . S
C1085 H1056 0.950 . S
C1085 C1084 1.397 . S
C1085 C1086 1.334 . S
C1086 H1057 0.950 . S
C1086 C1085 1.334 . S
C1086 C1087 1.287 . S
C1087 C1086 1.287 . S
C1087 C1088 1.524 . S
C1087 H1090 0.999 . S
C1088 H1058 0.950 . S
C1088 C1087 1.524 . S
C1088 C1089 1.415 . S
C1089 H1059 0.950 . S
C1089 C1084 1.363 . S
C1089 C1088 1.415 . S
H1090 C1087 0.999 . S
H1091 C1072 0.913 . S
H1092 C1110 0.951 . S
H1093 C1112 0.951 . S
H1094 C1114 0.950 . S
H1095 C1115 0.950 . S
H1096 C1117 0.950 . S
H1097 C1120 0.950 . S
H1098 C1121 0.950 . S
H1099 C1123 0.950 . S
H1100 C1124 0.950 . S
H1101 C1125 0.951 . S
H1102 C1127 0.951 . S
H1103 C1129 0.950 . S
H1104 C1130 0.950 . S
H1105 C1132 0.950 . S
H1106 C1135 0.950 . S
H1107 C1136 0.950 . S
H1108 C1138 0.950 . S
H1109 C1139 0.950 . S
C1110 H1092 0.951 . S
C1110 C1111 1.366 . S
C1110 C1112 1.388 . S
C1111 C1110 1.366 . S
C1111 C1115 1.385 . S
C1112 H1093 0.951 . S
C1112 C1110 1.388 . S
C1112 C1113 1.366 . S
C1113 C1112 1.366 . S
C1113 C1114 1.414 . S
C1113 C1116 1.499 . S
C1114 H1094 0.950 . S
C1114 C1113 1.414 . S
C1114 C1115 1.374 . S
C1115 H1095 0.950 . S
C1115 C1111 1.385 . S
C1115 C1114 1.374 . S
C1116 C1113 1.499 . S
C1116 C1117 1.373 . S
C1116 C1118 1.389 . S
C1117 H1096 0.950 . S
C1117 C1116 1.373 . S
C1117 C1133 1.377 . S
C1118 C1116 1.389 . S
C1118 C1119 1.524 . S
C1118 C1132 1.377 . S
C1119 C1118 1.524 . S
C1119 C1120 1.397 . S
C1119 C1124 1.363 . S
C1120 H1097 0.950 . S
C1120 C1119 1.397 . S
C1120 C1121 1.334 . S
C1121 H1098 0.950 . S
C1121 C1120 1.334 . S
C1121 C1122 1.287 . S
C1122 C1121 1.287 . S
C1122 C1123 1.524 . S
C1122 H1141 0.913 . S
C1123 H1099 0.950 . S
C1123 C1122 1.524 . S
C1123 C1124 1.415 . S
C1124 H1100 0.950 . S
C1124 C1119 1.363 . S
C1124 C1123 1.415 . S
C1125 H1101 0.951 . S
C1125 C1126 1.366 . S
C1125 C1127 1.388 . S
C1126 C1125 1.366 . S
C1126 C1130 1.385 . S
C1127 H1102 0.951 . S
C1127 C1125 1.388 . S
C1127 C1128 1.366 . S
C1128 C1127 1.366 . S
C1128 C1129 1.414 . S
C1128 C1131 1.499 . S
C1129 H1103 0.950 . S
C1129 C1128 1.414 . S
C1129 C1130 1.374 . S
C1130 H1104 0.950 . S
C1130 C1126 1.385 . S
C1130 C1129 1.374 . S
C1131 C1128 1.499 . S
C1131 C1132 1.373 . S
C1131 C1133 1.389 . S
C1132 H1105 0.950 . S
C1132 C1118 1.377 . S
C1132 C1131 1.373 . S
C1133 C1117 1.377 . S
C1133 C1131 1.389 . S
C1133 C1134 1.524 . S
C1134 C1133 1.524 . S
C1134 C1135 1.397 . S
C1134 C1139 1.363 . S
C1135 H1106 0.950 . S
C1135 C1134 1.397 . S
C1135 C1136 1.334 . S
C1136 H1107 0.950 . S
C1136 C1135 1.334 . S
C1136 C1137 1.287 . S
C1137 C1136 1.287 . S
C1137 C1138 1.524 . S
C1137 H1140 0.999 . S
C1138 H1108 0.950 . S
C1138 C1137 1.524 . S
C1138 C1139 1.415 . S
C1139 H1109 0.950 . S
C1139 C1134 1.363 . S
C1139 C1138 1.415 . S
H1140 C1137 0.999 . S
H1141 C1122 0.913 . S
H1142 C1160 0.951 . S
H1143 C1162 0.951 . S
H1144 C1164 0.950 . S
H1145 C1165 0.950 . S
H1146 C1167 0.950 . S
H1147 C1170 0.950 . S
H1148 C1171 0.950 . S
H1149 C1173 0.950 . S
H1150 C1174 0.950 . S
H1151 C1175 0.951 . S
H1152 C1177 0.951 . S
H1153 C1179 0.950 . S
H1154 C1180 0.950 . S
H1155 C1182 0.950 . S
H1156 C1185 0.950 . S
H1157 C1186 0.950 . S
H1158 C1188 0.950 . S
H1159 C1189 0.950 . S
C1160 H1142 0.951 . S
C1160 C1161 1.366 . S
C1160 C1162 1.388 . S
C1161 C1160 1.366 . S
C1161 C1165 1.385 . S
C1162 H1143 0.951 . S
C1162 C1160 1.388 . S
C1162 C1163 1.366 . S
C1163 C1162 1.366 . S
C1163 C1164 1.414 . S
C1163 C1166 1.499 . S
C1164 H1144 0.950 . S
C1164 C1163 1.414 . S
C1164 C1165 1.374 . S
C1165 H1145 0.950 . S
C1165 C1161 1.385 . S
C1165 C1164 1.374 . S
C1166 C1163 1.499 . S
C1166 C1167 1.373 . S
C1166 C1168 1.389 . S
C1167 H1146 0.950 . S
C1167 C1166 1.373 . S
C1167 C1183 1.377 . S
C1168 C1166 1.389 . S
C1168 C1169 1.524 . S
C1168 C1182 1.377 . S
C1169 C1168 1.524 . S
C1169 C1170 1.397 . S
C1169 C1174 1.363 . S
C1170 H1147 0.950 . S
C1170 C1169 1.397 . S
C1170 C1171 1.334 . S
C1171 H1148 0.950 . S
C1171 C1170 1.334 . S
C1171 C1172 1.287 . S
C1172 C1171 1.287 . S
C1172 C1173 1.524 . S
C1172 H1191 0.913 . S
C1173 H1149 0.950 . S
C1173 C1172 1.524 . S
C1173 C1174 1.415 . S
C1174 H1150 0.950 . S
C1174 C1169 1.363 . S
C1174 C1173 1.415 . S
C1175 H1151 0.951 . S
C1175 C1176 1.366 . S
C1175 C1177 1.388 . S
C1176 C1175 1.366 . S
C1176 C1180 1.385 . S
C1177 H1152 0.951 . S
C1177 C1175 1.388 . S
C1177 C1178 1.366 . S
C1178 C1177 1.366 . S
C1178 C1179 1.414 . S
C1178 C1181 1.499 . S
C1179 H1153 0.950 . S
C1179 C1178 1.414 . S
C1179 C1180 1.374 . S
C1180 H1154 0.950 . S
C1180 C1176 1.385 . S
C1180 C1179 1.374 . S
C1181 C1178 1.499 . S
C1181 C1182 1.373 . S
C1181 C1183 1.389 . S
C1182 H1155 0.950 . S
C1182 C1168 1.377 . S
C1182 C1181 1.373 . S
C1183 C1167 1.377 . S
C1183 C1181 1.389 . S
C1183 C1184 1.524 . S
C1184 C1183 1.524 . S
C1184 C1185 1.397 . S
C1184 C1189 1.363 . S
C1185 H1156 0.950 . S
C1185 C1184 1.397 . S
C1185 C1186 1.334 . S
C1186 H1157 0.950 . S
C1186 C1185 1.334 . S
C1186 C1187 1.287 . S
C1187 C1186 1.287 . S
C1187 C1188 1.524 . S
C1187 H1190 0.999 . S
C1188 H1158 0.950 . S
C1188 C1187 1.524 . S
C1188 C1189 1.415 . S
C1189 H1159 0.950 . S
C1189 C1184 1.363 . S
C1189 C1188 1.415 . S
H1190 C1187 0.999 . S
H1191 C1172 0.913 . S
H1192 C1210 0.951 . S
H1193 C1212 0.951 . S
H1194 C1214 0.950 . S
H1195 C1215 0.950 . S
H1196 C1217 0.950 . S
H1197 C1220 0.950 . S
H1198 C1221 0.950 . S
H1199 C1223 0.950 . S
H1200 C1224 0.950 . S
H1201 C1225 0.951 . S
H1202 C1227 0.951 . S
H1203 C1229 0.950 . S
H1204 C1230 0.950 . S
H1205 C1232 0.950 . S
H1206 C1235 0.950 . S
H1207 C1236 0.950 . S
H1208 C1238 0.950 . S
H1209 C1239 0.950 . S
C1210 H1192 0.951 . S
C1210 C1211 1.366 . S
C1210 C1212 1.388 . S
C1211 C1210 1.366 . S
C1211 C1215 1.385 . S
C1212 H1193 0.951 . S
C1212 C1210 1.388 . S
C1212 C1213 1.366 . S
C1213 C1212 1.366 . S
C1213 C1214 1.414 . S
C1213 C1216 1.499 . S
C1214 H1194 0.950 . S
C1214 C1213 1.414 . S
C1214 C1215 1.374 . S
C1215 H1195 0.950 . S
C1215 C1211 1.385 . S
C1215 C1214 1.374 . S
C1216 C1213 1.499 . S
C1216 C1217 1.373 . S
C1216 C1218 1.389 . S
C1217 H1196 0.950 . S
C1217 C1216 1.373 . S
C1217 C1233 1.377 . S
C1218 C1216 1.389 . S
C1218 C1219 1.524 . S
C1218 C1232 1.377 . S
C1219 C1218 1.524 . S
C1219 C1220 1.397 . S
C1219 C1224 1.363 . S
C1220 H1197 0.950 . S
C1220 C1219 1.397 . S
C1220 C1221 1.334 . S
C1221 H1198 0.950 . S
C1221 C1220 1.334 . S
C1221 C1222 1.287 . S
C1222 C1221 1.287 . S
C1222 C1223 1.524 . S
C1222 H1241 0.913 . S
C1223 H1199 0.950 . S
C1223 C1222 1.524 . S
C1223 C1224 1.415 . S
C1224 H1200 0.950 . S
C1224 C1219 1.363 . S
C1224 C1223 1.415 . S
C1225 H1201 0.951 . S
C1225 C1226 1.366 . S
C1225 C1227 1.388 . S
C1226 C1225 1.366 . S
C1226 C1230 1.385 . S
C1227 H1202 0.951 . S
C1227 C1225 1.388 . S
C1227 C1228 1.366 . S
C1228 C1227 1.366 . S
C1228 C1229 1.414 . S
C1228 C1231 1.499 . S
C1229 H1203 0.950 . S
C1229 C1228 1.414 . S
C1229 C1230 1.374 . S
C1230 H1204 0.950 . S
C1230 C1226 1.385 . S
C1230 C1229 1.374 . S
C1231 C1228 1.499 . S
C1231 C1232 1.373 . S
C1231 C1233 1.389 . S
C1232 H1205 0.950 . S
C1232 C1218 1.377 . S
C1232 C1231 1.373 . S
C1233 C1217 1.377 . S
C1233 C1231 1.389 . S
C1233 C1234 1.524 . S
C1234 C1233 1.524 . S
C1234 C1235 1.397 . S
C1234 C1239 1.363 . S
C1235 H1206 0.950 . S
C1235 C1234 1.397 . S
C1235 C1236 1.334 . S
C1236 H1207 0.950 . S
C1236 C1235 1.334 . S
C1236 C1237 1.287 . S
C1237 C1236 1.287 . S
C1237 C1238 1.524 . S
C1237 H1240 0.999 . S
C1238 H1208 0.950 . S
C1238 C1237 1.524 . S
C1238 C1239 1.415 . S
C1239 H1209 0.950 . S
C1239 C1234 1.363 . S
C1239 C1238 1.415 . S
H1240 C1237 0.999 . S
H1241 C1222 0.913 . S
H1242 C1260 0.951 . S
H1243 C1262 0.951 . S
H1244 C1264 0.950 . S
H1245 C1265 0.950 . S
H1246 C1267 0.950 . S
H1247 C1270 0.950 . S
H1248 C1271 0.950 . S
H1249 C1273 0.950 . S
H1250 C1274 0.950 . S
H1251 C1275 0.951 . S
H1252 C1277 0.951 . S
H1253 C1279 0.950 . S
H1254 C1280 0.950 . S
H1255 C1282 0.950 . S
H1256 C1285 0.950 . S
H1257 C1286 0.950 . S
H1258 C1288 0.950 . S
H1259 C1289 0.950 . S
C1260 H1242 0.951 . S
C1260 C1261 1.366 . S
C1260 C1262 1.388 . S
C1261 C1260 1.366 . S
C1261 C1265 1.385 . S
C1262 H1243 0.951 . S
C1262 C1260 1.388 . S
C1262 C1263 1.366 . S
C1263 C1262 1.366 . S
C1263 C1264 1.414 . S
C1263 C1266 1.499 . S
C1264 H1244 0.950 . S
C1264 C1263 1.414 . S
C1264 C1265 1.374 . S
C1265 H1245 0.950 . S
C1265 C1261 1.385 . S
C1265 C1264 1.374 . S
C1266 C1263 1.499 . S
C1266 C1267 1.373 . S
C1266 C1268 1.389 . S
C1267 H1246 0.950 . S
C1267 C1266 1.373 . S
C1267 C1283 1.377 . S
C1268 C1266 1.389 . S
C1268 C1269 1.524 . S
C1268 C1282 1.377 . S
C1269 C1268 1.524 . S
C1269 C1270 1.397 . S
C1269 C1274 1.363 . S
C1270 H1247 0.950 . S
C1270 C1269 1.397 . S
C1270 C1271 1.334 . S
C1271 H1248 0.950 . S
C1271 C1270 1.334 . S
C1271 C1272 1.287 . S
C1272 C1271 1.287 . S
C1272 C1273 1.524 . S
C1272 H1291 0.913 . S
C1273 H1249 0.950 . S
C1273 C1272 1.524 . S
C1273 C1274 1.415 . S
C1274 H1250 0.950 . S
C1274 C1269 1.363 . S
C1274 C1273 1.415 . S
C1275 H1251 0.951 . S
C1275 C1276 1.366 . S
C1275 C1277 1.388 . S
C1276 C1275 1.366 . S
C1276 C1280 1.385 . S
C1277 H1252 0.951 . S
C1277 C1275 1.388 . S
C1277 C1278 1.366 . S
C1278 C1277 1.366 . S
C1278 C1279 1.414 . S
C1278 C1281 1.499 . S
C1279 H1253 0.950 . S
C1279 C1278 1.414 . S
C1279 C1280 1.374 . S
C1280 H1254 0.950 . S
C1280 C1276 1.385 . S
C1280 C1279 1.374 . S
C1281 C1278 1.499 . S
C1281 C1282 1.373 . S
C1281 C1283 1.389 . S
C1282 H1255 0.950 . S
C1282 C1268 1.377 . S
C1282 C1281 1.373 . S
C1283 C1267 1.377 . S
C1283 C1281 1.389 . S
C1283 C1284 1.524 . S
C1284 C1283 1.524 . S
C1284 C1285 1.397 . S
C1284 C1289 1.363 . S
C1285 H1256 0.950 . S
C1285 C1284 1.397 . S
C1285 C1286 1.334 . S
C1286 H1257 0.950 . S
C1286 C1285 1.334 . S
C1286 C1287 1.287 . S
C1287 C1286 1.287 . S
C1287 C1288 1.524 . S
C1287 H1290 0.999 . S
C1288 H1258 0.950 . S
C1288 C1287 1.524 . S
C1288 C1289 1.415 . S
C1289 H1259 0.950 . S
C1289 C1284 1.363 . S
C1289 C1288 1.415 . S
H1290 C1287 0.999 . S
H1291 C1272 0.913 . S
H1292 C1310 0.951 . S
H1293 C1312 0.951 . S
H1294 C1314 0.950 . S
H1295 C1315 0.950 . S
H1296 C1317 0.950 . S
H1297 C1320 0.950 . S
H1298 C1321 0.950 . S
H1299 C1323 0.950 . S
H1300 C1324 0.950 . S
H1301 C1325 0.951 . S
H1302 C1327 0.951 . S
H1303 C1329 0.950 . S
H1304 C1330 0.950 . S
H1305 C1332 0.950 . S
H1306 C1335 0.950 . S
H1307 C1336 0.950 . S
H1308 C1338 0.950 . S
H1309 C1339 0.950 . S
C1310 H1292 0.951 . S
C1310 C1311 1.366 . S
C1310 C1312 1.388 . S
C1311 C1310 1.366 . S
C1311 C1315 1.385 . S
C1312 H1293 0.951 . S
C1312 C1310 1.388 . S
C1312 C1313 1.366 . S
C1313 C1312 1.366 . S
C1313 C1314 1.414 . S
C1313 C1316 1.499 . S
C1314 H1294 0.950 . S
C1314 C1313 1.414 . S
C1314 C1315 1.374 . S
C1315 H1295 0.950 . S
C1315 C1311 1.385 . S
C1315 C1314 1.374 . S
C1316 C1313 1.499 . S
C1316 C1317 1.373 . S
C1316 C1318 1.389 . S
C1317 H1296 0.950 . S
C1317 C1316 1.373 . S
C1317 C1333 1.377 . S
C1318 C1316 1.389 . S
C1318 C1319 1.524 . S
C1318 C1332 1.377 . S
C1319 C1318 1.524 . S
C1319 C1320 1.397 . S
C1319 C1324 1.363 . S
C1320 H1297 0.950 . S
C1320 C1319 1.397 . S
C1320 C1321 1.334 . S
C1321 H1298 0.950 . S
C1321 C1320 1.334 . S
C1321 C1322 1.287 . S
C1322 C1321 1.287 . S
C1322 C1323 1.524 . S
C1322 H1341 0.913 . S
C1323 H1299 0.950 . S
C1323 C1322 1.524 . S
C1323 C1324 1.415 . S
C1324 H1300 0.950 . S
C1324 C1319 1.363 . S
C1324 C1323 1.415 . S
C1325 H1301 0.951 . S
C1325 C1326 1.366 . S
C1325 C1327 1.388 . S
C1326 C1325 1.366 . S
C1326 C1330 1.385 . S
C1327 H1302 0.951 . S
C1327 C1325 1.388 . S
C1327 C1328 1.366 . S
C1328 C1327 1.366 . S
C1328 C1329 1.414 . S
C1328 C1331 1.499 . S
C1329 H1303 0.950 . S
C1329 C1328 1.414 . S
C1329 C1330 1.374 . S
C1330 H1304 0.950 . S
C1330 C1326 1.385 . S
C1330 C1329 1.374 . S
C1331 C1328 1.499 . S
C1331 C1332 1.373 . S
C1331 C1333 1.389 . S
C1332 H1305 0.950 . S
C1332 C1318 1.377 . S
C1332 C1331 1.373 . S
C1333 C1317 1.377 . S
C1333 C1331 1.389 . S
C1333 C1334 1.524 . S
C1334 C1333 1.524 . S
C1334 C1335 1.397 . S
C1334 C1339 1.363 . S
C1335 H1306 0.950 . S
C1335 C1334 1.397 . S
C1335 C1336 1.334 . S
C1336 H1307 0.950 . S
C1336 C1335 1.334 . S
C1336 C1337 1.287 . S
C1337 C1336 1.287 . S
C1337 C1338 1.524 . S
C1337 H1340 0.999 . S
C1338 H1308 0.950 . S
C1338 C1337 1.524 . S
C1338 C1339 1.415 . S
C1339 H1309 0.950 . S
C1339 C1334 1.363 . S
C1339 C1338 1.415 . S
H1340 C1337 0.999 . S
H1341 C1322 0.913 . S
H1342 C1360 0.951 . S
H1343 C1362 0.951 . S
H1344 C1364 0.950 . S
H1345 C1365 0.950 . S
H1346 C1367 0.950 . S
H1347 C1370 0.950 . S
H1348 C1371 0.950 . S
H1349 C1373 0.950 . S
H1350 C1374 0.950 . S
H1351 C1375 0.951 . S
H1352 C1377 0.951 . S
H1353 C1379 0.950 . S
H1354 C1380 0.950 . S
H1355 C1382 0.950 . S
H1356 C1385 0.950 . S
H1357 C1386 0.950 . S
H1358 C1388 0.950 . S
H1359 C1389 0.950 . S
C1360 H1342 0.951 . S
C1360 C1361 1.366 . S
C1360 C1362 1.388 . S
C1361 C1360 1.366 . S
C1361 C1365 1.385 . S
C1362 H1343 0.951 . S
C1362 C1360 1.388 . S
C1362 C1363 1.366 . S
C1363 C1362 1.366 . S
C1363 C1364 1.414 . S
C1363 C1366 1.499 . S
C1364 H1344 0.950 . S
C1364 C1363 1.414 . S
C1364 C1365 1.374 . S
C1365 H1345 0.950 . S
C1365 C1361 1.385 . S
C1365 C1364 1.374 . S
C1366 C1363 1.499 . S
C1366 C1367 1.373 . S
C1366 C1368 1.389 . S
C1367 H1346 0.950 . S
C1367 C1366 1.373 . S
C1367 C1383 1.377 . S
C1368 C1366 1.389 . S
C1368 C1369 1.524 . S
C1368 C1382 1.377 . S
C1369 C1368 1.524 . S
C1369 C1370 1.397 . S
C1369 C1374 1.363 . S
C1370 H1347 0.950 . S
C1370 C1369 1.397 . S
C1370 C1371 1.334 . S
C1371 H1348 0.950 . S
C1371 C1370 1.334 . S
C1371 C1372 1.287 . S
C1372 C1371 1.287 . S
C1372 C1373 1.524 . S
C1372 H1391 0.913 . S
C1373 H1349 0.950 . S
C1373 C1372 1.524 . S
C1373 C1374 1.415 . S
C1374 H1350 0.950 . S
C1374 C1369 1.363 . S
C1374 C1373 1.415 . S
C1375 H1351 0.951 . S
C1375 C1376 1.366 . S
C1375 C1377 1.388 . S
C1376 C1375 1.366 . S
C1376 C1380 1.385 . S
C1377 H1352 0.951 . S
C1377 C1375 1.388 . S
C1377 C1378 1.366 . S
C1378 C1377 1.366 . S
C1378 C1379 1.414 . S
C1378 C1381 1.499 . S
C1379 H1353 0.950 . S
C1379 C1378 1.414 . S
C1379 C1380 1.374 . S
C1380 H1354 0.950 . S
C1380 C1376 1.385 . S
C1380 C1379 1.374 . S
C1381 C1378 1.499 . S
C1381 C1382 1.373 . S
C1381 C1383 1.389 . S
C1382 H1355 0.950 . S
C1382 C1368 1.377 . S
C1382 C1381 1.373 . S
C1383 C1367 1.377 . S
C1383 C1381 1.389 . S
C1383 C1384 1.524 . S
C1384 C1383 1.524 . S
C1384 C1385 1.397 . S
C1384 C1389 1.363 . S
C1385 H1356 0.950 . S
C1385 C1384 1.397 . S
C1385 C1386 1.334 . S
C1386 H1357 0.950 . S
C1386 C1385 1.334 . S
C1386 C1387 1.287 . S
C1387 C1386 1.287 . S
C1387 C1388 1.524 . S
C1387 H1390 0.999 . S
C1388 H1358 0.950 . S
C1388 C1387 1.524 . S
C1388 C1389 1.415 . S
C1389 H1359 0.950 . S
C1389 C1384 1.363 . S
C1389 C1388 1.415 . S
H1390 C1387 0.999 . S
H1391 C1372 0.913 . S
C211 C45 1.576 . S
C226 C114 1.584 . S
C261 C30 1.577 . S
C276 C125 1.586 . S
C311 C39 1.577 . S
C326 C136 1.578 . S
C376 C147 1.578 . S
C361 C34 1.577 . S
C411 C97 1.577 . S
C426 C158 1.585 . S
C476 C169 1.584 . S
C461 C82 1.577 . S
C526 C180 1.578 . S
C511 C91 1.577 . S
C576 C191 1.587 . S
C561 C86 1.578 . S
C626 C175 1.562 . S
C611 C26 1.527 . S
C676 C185 1.462 . S
C661 C36 1.425 . S
C726 C152 1.556 . S
C711 C32 1.517 . S
C776 C163 1.515 . S
C761 C42 1.479 . S
C811 C18 1.615 . S
C826 C164 1.659 . S
C876 C174 1.628 . S
C861 C50 1.564 . S
C911 C4 1.668 . S
C926 C186 1.709 . S
C961 C48 1.575 . S
C976 C153 1.616 . S
C1026 C131 1.536 . S
C1011 C78 1.501 . S
C1061 C88 1.525 . S
C1076 C142 1.562 . S
C1126 C108 1.524 . S
C1111 C84 1.484 . S
C1176 C119 1.499 . S
C1161 C94 1.463 . S
C1226 C120 1.674 . S
C1211 C70 1.630 . S
C1276 C130 1.653 . S
C1261 C102 1.588 . S
C1311 C56 1.566 . S
C1326 C141 1.627 . S
C1361 C100 1.607 . S
C1376 C109 1.648 . S
