# Generated by pormake.
# Topology ctn, (3,4)-cn, num edge types: 1
# Building blocks:
#     Node 0, Type 0, BuildingBlock: PAMTOO_clean_linker_0, # of connection points: 3
#     Node 1, Type 0, BuildingBlock: PAMTOO_clean_linker_0, # of connection points: 3
#     Node 2, Type 0, BuildingBlock: PAMTOO_clean_linker_0, # of connection points: 3
#     Node 3, Type 0, BuildingBlock: PAMTOO_clean_linker_0, # of connection points: 3
#     Node 4, Type 0, BuildingBlock: PAMTOO_clean_linker_0, # of connection points: 3
#     Node 5, Type 0, BuildingBlock: PAMTOO_clean_linker_0, # of connection points: 3
#     Node 6, Type 0, BuildingBlock: PAMTOO_clean_linker_0, # of connection points: 3
#     Node 7, Type 0, BuildingBlock: PAMTOO_clean_linker_0, # of connection points: 3
#     Node 8, Type 0, BuildingBlock: PAMTOO_clean_linker_0, # of connection points: 3
#     Node 9, Type 0, BuildingBlock: PAMTOO_clean_linker_0, # of connection points: 3
#     Node 10, Type 0, BuildingBlock: PAMTOO_clean_linker_0, # of connection points: 3
#     Node 11, Type 0, BuildingBlock: PAMTOO_clean_linker_0, # of connection points: 3
#     Node 12, Type 0, BuildingBlock: PAMTOO_clean_linker_0, # of connection points: 3
#     Node 13, Type 0, BuildingBlock: PAMTOO_clean_linker_0, # of connection points: 3
#     Node 14, Type 0, BuildingBlock: PAMTOO_clean_linker_0, # of connection points: 3
#     Node 15, Type 0, BuildingBlock: PAMTOO_clean_linker_0, # of connection points: 3
#     Node 16, Type 1, BuildingBlock: AZAVOO_clean_sbu_0, # of connection points: 4
#     Node 17, Type 1, BuildingBlock: AZAVOO_clean_sbu_0, # of connection points: 4
#     Node 18, Type 1, BuildingBlock: AZAVOO_clean_sbu_0, # of connection points: 4
#     Node 19, Type 1, BuildingBlock: AZAVOO_clean_sbu_0, # of connection points: 4
#     Node 20, Type 1, BuildingBlock: AZAVOO_clean_sbu_0, # of connection points: 4
#     Node 21, Type 1, BuildingBlock: AZAVOO_clean_sbu_0, # of connection points: 4
#     Node 22, Type 1, BuildingBlock: AZAVOO_clean_sbu_0, # of connection points: 4
#     Node 23, Type 1, BuildingBlock: AZAVOO_clean_sbu_0, # of connection points: 4
#     Node 24, Type 1, BuildingBlock: AZAVOO_clean_sbu_0, # of connection points: 4
#     Node 25, Type 1, BuildingBlock: AZAVOO_clean_sbu_0, # of connection points: 4
#     Node 26, Type 1, BuildingBlock: AZAVOO_clean_sbu_0, # of connection points: 4
#     Node 27, Type 1, BuildingBlock: AZAVOO_clean_sbu_0, # of connection points: 4
#     Edge 28, Type (0, 1), None
#     Edge 29, Type (0, 1), None
#     Edge 30, Type (0, 1), None
#     Edge 31, Type (0, 1), None
#     Edge 32, Type (0, 1), None
#     Edge 33, Type (0, 1), None
#     Edge 34, Type (0, 1), None
#     Edge 35, Type (0, 1), None
#     Edge 36, Type (0, 1), None
#     Edge 37, Type (0, 1), None
#     Edge 38, Type (0, 1), None
#     Edge 39, Type (0, 1), None
#     Edge 40, Type (0, 1), None
#     Edge 41, Type (0, 1), None
#     Edge 42, Type (0, 1), None
#     Edge 43, Type (0, 1), None
#     Edge 44, Type (0, 1), None
#     Edge 45, Type (0, 1), None
#     Edge 46, Type (0, 1), None
#     Edge 47, Type (0, 1), None
#     Edge 48, Type (0, 1), None
#     Edge 49, Type (0, 1), None
#     Edge 50, Type (0, 1), None
#     Edge 51, Type (0, 1), None
#     Edge 52, Type (0, 1), None
#     Edge 53, Type (0, 1), None
#     Edge 54, Type (0, 1), None
#     Edge 55, Type (0, 1), None
#     Edge 56, Type (0, 1), None
#     Edge 57, Type (0, 1), None
#     Edge 58, Type (0, 1), None
#     Edge 59, Type (0, 1), None
#     Edge 60, Type (0, 1), None
#     Edge 61, Type (0, 1), None
#     Edge 62, Type (0, 1), None
#     Edge 63, Type (0, 1), None
#     Edge 64, Type (0, 1), None
#     Edge 65, Type (0, 1), None
#     Edge 66, Type (0, 1), None
#     Edge 67, Type (0, 1), None
#     Edge 68, Type (0, 1), None
#     Edge 69, Type (0, 1), None
#     Edge 70, Type (0, 1), None
#     Edge 71, Type (0, 1), None
#     Edge 72, Type (0, 1), None
#     Edge 73, Type (0, 1), None
#     Edge 74, Type (0, 1), None
#     Edge 75, Type (0, 1), None
# Relax obj value: 0.068
# Max RMSD: 0.166
# Mean RMSD: 0.103
data_MOF--net-ctn--node1-AZAVOO_clean_sbu_0--node2-PAMTOO_clean_linker_0--edge1-none
_symmetry_space_group_name_H-M    P1
_symmetry_Int_Tables_number       1
_symmetry_cell_setting            triclinic
loop_
_symmetry_equiv_pos_as_xyz
'x, y, z'
_cell_length_a     22.748565
_cell_length_b     22.782944
_cell_length_c     23.733668
_cell_angle_alpha  82.609868
_cell_angle_beta   100.51693
_cell_angle_gamma 104.42137
loop_
_atom_site_label
_atom_site_type_symbol
_atom_site_fract_x
_atom_site_fract_y
_atom_site_fract_z
_atom_type_partial_charge
H0 H 0.958 0.17009 0.03981 0.0
H1 H 0.97197 0.98467 0.08225 0.0
H2 H 0.05293 0.08911 0.94075 0.0
H3 H 0.99011 0.95843 0.92576 0.0
C4 C 0.01413 0.94001 0.96677 0.0
O5 O 0.03858 0.98514 1.00371 0.0
H6 H 0.98125 0.90229 0.98711 0.0
C7 C 0.97115 0.13085 0.02942 0.0
C8 C 0.00534 0.13651 0.98453 0.0
C9 C 0.95887 0.07646 0.06491 0.0
C10 C 0.97901 0.02623 0.05397 0.0
C11 C 0.01188 0.03061 1.00859 0.0
C12 C 0.02481 0.08553 0.97386 0.0
H13 H 0.32441 0.67397 0.34851 0.0
H14 H 0.211 0.72402 0.19317 0.0
H15 H 0.37467 0.85231 0.26118 0.0
H16 H 0.26528 0.9133 0.19478 0.0
C17 C 0.24095 0.87161 0.17304 0.0
O18 O 0.28088 0.83386 0.17654 0.0
H19 H 0.20032 0.84821 0.19391 0.0
C20 C 0.31559 0.70721 0.31278 0.0
C21 C 0.35547 0.7645 0.30992 0.0
C22 C 0.26395 0.69227 0.27107 0.0
C23 C 0.25136 0.73526 0.22551 0.0
C24 C 0.29132 0.79327 0.22192 0.0
C25 C 0.34384 0.8077 0.26397 0.0
H26 H 0.02002 0.58 0.19388 0.0
H27 H 0.92339 0.55364 0.02136 0.0
H28 H 0.06743 0.46181 0.09069 0.0
H29 H 0.06839 0.49802 0.98082 0.0
C30 C 0.02022 0.47467 0.96477 0.0
O31 O 0.98084 0.47403 1.0032 0.0
H32 H 0.00545 0.49929 0.92317 0.0
C33 C 0.01211 0.55849 0.15415 0.0
C34 C 0.05001 0.52013 0.14758 0.0
C35 C 0.96612 0.57141 0.1088 0.0
C36 C 0.95886 0.54535 0.05657 0.0
C37 C 0.99476 0.50542 0.0504 0.0
C38 C 0.03973 0.49256 0.09599 0.0
H39 H 0.73862 0.95359 0.26277 0.0
H40 H 0.66332 0.76151 0.2956 0.0
H41 H 0.81446 0.82106 0.20311 0.0
H42 H 0.67556 0.69726 0.18774 0.0
C43 C 0.71928 0.68712 0.21175 0.0
O44 O 0.74578 0.72792 0.25242 0.0
H45 H 0.70872 0.64084 0.23438 0.0
C46 C 0.73686 0.90697 0.25609 0.0
C47 C 0.78043 0.8939 0.22703 0.0
C48 C 0.69344 0.85945 0.28001 0.0
C49 C 0.69395 0.79875 0.27468 0.0
C50 C 0.73808 0.78546 0.24763 0.0
C51 C 0.77982 0.83266 0.22262 0.0
H52 H 0.15623 0.97652 0.6147 0.0
H53 H 0.04052 0.8822 0.47313 0.0
H54 H 0.11649 0.07331 0.44872 0.0
H55 H 0.986 0.02737 0.40917 0.0
C56 C 0.99004 0.98957 0.38567 0.0
O57 O 0.04786 0.97855 0.40042 0.0
H58 H 0.95523 0.94791 0.39681 0.0
C59 C 0.13345 0.9769 0.57042 0.0
C60 C 0.14055 0.03176 0.53416 0.0
C61 C 0.09643 0.92259 0.54855 0.0
C62 C 0.06841 0.92363 0.49083 0.0
C63 C 0.07592 0.97778 0.4554 0.0
C64 C 0.11146 0.03155 0.47695 0.0
H65 H 0.14087 0.80726 0.82248 0.0
H66 H 0.22518 0.69044 0.74894 0.0
H67 H 0.30783 0.75678 0.91066 0.0
H68 H 0.40335 0.74544 0.84494 0.0
C69 C 0.36936 0.72271 0.80986 0.0
O70 O 0.31637 0.69304 0.83137 0.0
H71 H 0.36028 0.75784 0.77428 0.0
C72 C 0.17676 0.7831 0.82475 0.0
C73 C 0.22416 0.78627 0.87346 0.0
C74 C 0.17675 0.74836 0.77887 0.0
C75 C 0.22373 0.71727 0.78302 0.0
C76 C 0.27028 0.72093 0.83008 0.0
C77 C 0.27047 0.75479 0.87481 0.0
H78 H 0.89182 0.54577 0.60188 0.0
H79 H 0.94804 0.45728 0.47813 0.0
H80 H 0.06595 0.6208 0.54208 0.0
H81 H 0.0642 0.45052 0.48277 0.0
C82 C 0.09056 0.49871 0.48265 0.0
O83 O 0.05086 0.53706 0.47145 0.0
H84 H 0.11994 0.50599 0.52528 0.0
C85 C 0.92611 0.54343 0.5765 0.0
C86 C 0.98121 0.58947 0.57781 0.0
C87 C 0.91419 0.49525 0.54084 0.0
C88 C 0.9572 0.49329 0.50652 0.0
C89 C 0.01175 0.53814 0.5075 0.0
C90 C 0.02399 0.58576 0.54312 0.0
H91 H 0.71694 0.84415 0.90523 0.0
H92 H 0.84755 0.73695 0.8992 0.0
H93 H 0.81754 0.87317 0.76275 0.0
H94 H 0.82904 0.76767 0.72256 0.0
C95 C 0.85975 0.74941 0.75893 0.0
O96 O 0.87775 0.78973 0.80079 0.0
H97 H 0.83455 0.70467 0.7771 0.0
C98 C 0.74924 0.83188 0.88314 0.0
C99 C 0.76234 0.8644 0.83023 0.0
C100 C 0.77999 0.78572 0.90903 0.0
C101 C 0.82325 0.77188 0.88055 0.0
C102 C 0.83596 0.80323 0.82784 0.0
C103 C 0.80583 0.84902 0.80307 0.0
H104 H 0.21744 0.34451 0.40521 0.0
H105 H 0.34798 0.23729 0.39905 0.0
H106 H 0.31704 0.37277 0.26209 0.0
H107 H 0.32655 0.26398 0.22307 0.0
C108 C 0.35886 0.24786 0.25933 0.0
O109 O 0.37733 0.28935 0.30013 0.0
H110 H 0.33462 0.20336 0.27882 0.0
C111 C 0.24961 0.33215 0.38302 0.0
C112 C 0.26243 0.36444 0.32995 0.0
C113 C 0.28047 0.28609 0.40896 0.0
C114 C 0.32362 0.27217 0.38039 0.0
C115 C 0.33594 0.30321 0.32744 0.0
C116 C 0.30566 0.34886 0.3026 0.0
H117 H 0.52031 0.08023 0.69383 0.0
H118 H 0.42358 0.05374 0.52136 0.0
H119 H 0.56749 0.96177 0.59077 0.0
H120 H 0.56833 0.99791 0.48117 0.0
C121 C 0.52021 0.97478 0.46469 0.0
O122 O 0.48093 0.97401 0.50328 0.0
H123 H 0.50467 0.99914 0.42321 0.0
C124 C 0.51236 0.05867 0.65413 0.0
C125 C 0.55019 0.02023 0.64759 0.0
C126 C 0.46637 0.07158 0.60877 0.0
C127 C 0.45904 0.04545 0.55657 0.0
C128 C 0.49488 1.00544 0.55045 0.0
C129 C 0.53984 0.99258 0.59603 0.0
H130 H 0.23924 0.45333 0.76307 0.0
H131 H 0.16396 0.26126 0.79588 0.0
H132 H 0.31476 0.32086 0.70293 0.0
H133 H 0.17552 0.19675 0.68787 0.0
C134 C 0.21942 0.18693 0.71174 0.0
O135 O 0.24624 0.22771 0.75235 0.0
H136 H 0.2081 0.14052 0.73396 0.0
C137 C 0.23742 0.40672 0.75631 0.0
C138 C 0.28088 0.39367 0.72709 0.0
C139 C 0.19407 0.3592 0.78031 0.0
C140 C 0.19454 0.29851 0.7749 0.0
C141 C 0.23854 0.28524 0.74766 0.0
C142 C 0.2802 0.33245 0.72257 0.0
H143 H 0.82505 0.17395 0.84792 0.0
H144 H 0.71145 0.22421 0.69281 0.0
H145 H 0.87513 0.35247 0.76087 0.0
H146 H 0.76529 0.41375 0.69468 0.0
C147 C 0.74145 0.37191 0.673 0.0
O148 O 0.78129 0.33409 0.67626 0.0
H149 H 0.70117 0.34849 0.69436 0.0
C150 C 0.81622 0.20722 0.81224 0.0
C151 C 0.85603 0.26455 0.80946 0.0
C152 C 0.76452 0.19234 0.77056 0.0
C153 C 0.75187 0.2354 0.7251 0.0
C154 C 0.79182 0.29342 0.72155 0.0
C155 C 0.84435 0.30782 0.76359 0.0
H156 H 0.45814 0.6701 0.54007 0.0
H157 H 0.47239 0.48474 0.58251 0.0
H158 H 0.55282 0.58916 0.44071 0.0
H159 H 0.49006 0.45843 0.42588 0.0
C160 C 0.51414 0.44004 0.46686 0.0
O161 O 0.53873 0.48522 0.50373 0.0
H162 H 0.4813 0.40237 0.48729 0.0
C163 C 0.47132 0.63087 0.52966 0.0
C164 C 0.50535 0.63653 0.48465 0.0
C165 C 0.45918 0.5765 0.56519 0.0
C166 C 0.47934 0.52629 0.5542 0.0
C167 C 0.51204 0.53068 0.5087 0.0
C168 C 0.52483 0.58557 0.47392 0.0
H169 H 0.65565 0.47635 0.11538 0.0
H170 H 0.54022 0.3819 0.97375 0.0
H171 H 0.61625 0.57298 0.94923 0.0
H172 H 0.48564 0.52671 0.90949 0.0
C173 C 0.48994 0.48904 0.88596 0.0
O174 O 0.54779 0.47815 0.90093 0.0
H175 H 0.45514 0.44728 0.89689 0.0
C176 C 0.63292 0.4767 0.07109 0.0
C177 C 0.6401 0.53153 0.03477 0.0
C178 C 0.59593 0.42237 0.04922 0.0
C179 C 0.56804 0.42336 0.99146 0.0
C180 C 0.57566 0.47746 0.95597 0.0
C181 C 0.61114 0.53126 0.97751 0.0
H182 H 0.64084 0.30679 0.32279 0.0
H183 H 0.72559 0.19055 0.249 0.0
H184 H 0.80842 0.25727 0.41055 0.0
H185 H 0.90428 0.24701 0.3438 0.0
C186 C 0.86988 0.22366 0.30934 0.0
O187 O 0.81713 0.19371 0.33113 0.0
H188 H 0.85999 0.25852 0.27377 0.0
C189 C 0.67688 0.28283 0.32497 0.0
C190 C 0.72442 0.28625 0.37357 0.0
C191 C 0.67692 0.24814 0.27909 0.0
C192 C 0.72409 0.21732 0.28311 0.0
C193 C 0.77081 0.22124 0.33004 0.0
C194 C 0.77094 0.25507 0.37479 0.0
H195 H 0.39186 0.04545 0.10185 0.0
H196 H 0.44831 0.9571 0.97815 0.0
H197 H 0.56595 0.12076 0.04207 0.0
H198 H 0.56497 0.95115 0.98273 0.0
C199 C 0.59134 0.99933 0.98289 0.0
O200 O 0.55102 0.03705 0.97144 0.0
H201 H 0.62074 1.00743 0.0254 0.0
C202 C 0.42618 0.04317 0.07648 0.0
C203 C 0.48125 0.08926 0.07783 0.0
C204 C 0.41433 0.99503 0.0408 0.0
C205 C 0.45741 0.99309 1.00653 0.0
C206 C 0.5119 0.03803 1.00751 0.0
C207 C 0.52404 0.08567 0.04311 0.0
Mg208 Mg 0.20263 0.91926 1.00028 0.0
O209 O 0.30678 0.962 0.01201 0.0
O210 O 0.35776 0.89376 0.05934 0.0
Mg211 Mg 0.28645 0.80294 0.07002 0.0
C212 C 0.35639 0.94765 0.03731 0.0
C213 C 0.06611 0.91775 0.95354 0.0
O214 O 0.09414 0.88385 0.99275 0.0
O215 O 0.20367 0.86447 0.92316 0.0
O216 O 0.25475 0.79784 0.97289 0.0
O217 O 0.20579 0.94007 0.09329 0.0
O218 O 0.21683 0.85379 0.07236 0.0
C219 C 0.22679 0.81821 0.92555 0.0
C220 C 0.21888 0.88854 0.11092 0.0
O221 O 0.09554 0.88609 0.99132 0.0
Mg222 Mg 0.17741 0.52945 0.32557 0.0
O223 O 0.10346 0.5161 0.24417 0.0
O224 O 0.15585 0.52198 0.17181 0.0
Mg225 Mg 0.25943 0.54212 0.20589 0.0
C226 C 0.10539 0.51609 0.19065 0.0
C227 C 0.12994 0.51163 0.43678 0.0
O228 O 0.18596 0.54563 0.44659 0.0
O229 O 0.20095 0.43581 0.33243 0.0
O230 O 0.259 0.45182 0.26335 0.0
O231 O 0.17922 0.62777 0.30974 0.0
O232 O 0.24212 0.58454 0.27778 0.0
C233 C 0.23729 0.41891 0.30606 0.0
C234 C 0.22287 0.63266 0.28013 0.0
O235 O 0.10812 0.4951 0.3865 0.0
Mg236 Mg 0.81601 0.67924 0.0895 0.0
O237 O 0.73513 0.59801 0.06661 0.0
O238 O 0.64972 0.63364 0.0505 0.0
Mg239 Mg 0.67367 0.73456 0.0666 0.0
C240 C 0.67684 0.59013 0.05438 0.0
C241 C 0.92533 0.61099 0.11645 0.0
O242 O 0.93023 0.63218 0.16645 0.0
O243 O 0.80665 0.7233 0.99521 0.0
O244 O 0.72364 0.76161 0.98751 0.0
O245 O 0.80287 0.65579 0.18174 0.0
O246 O 0.75779 0.71997 0.12196 0.0
C247 C 0.7692 0.75441 0.9668 0.0
C248 C 0.76318 0.68938 0.17121 0.0
O249 O 0.88389 0.62322 0.07569 0.0
Mg250 Mg 0.9132 0.08525 0.21688 0.0
O251 O 0.83499 0.99803 0.21452 0.0
O252 O 0.88035 0.92468 0.20272 0.0
Mg253 Mg 0.98052 0.9623 0.19215 0.0
C254 C 0.83359 0.94201 0.21118 0.0
C255 C 0.89555 0.17984 0.28529 0.0
O256 O 0.95538 0.18711 0.29109 0.0
O257 O 0.94781 0.04706 0.30519 0.0
O258 O 0.99323 0.97555 0.28864 0.0
O259 O 0.89818 0.11055 0.12202 0.0
O260 O 0.95787 0.05021 0.16587 0.0
C261 C 0.97792 1.00627 0.32272 0.0
C262 C 0.93544 0.07684 0.11874 0.0
O263 O 0.86063 0.13852 0.2553 0.0
Mg264 Mg 0.3163 0.17944 0.58942 0.0
O265 O 0.23551 0.09825 0.56618 0.0
O266 O 0.15006 0.13382 0.55002 0.0
Mg267 Mg 0.17392 0.23467 0.56634 0.0
C268 C 0.17724 0.09035 0.55384 0.0
C269 C 0.42563 0.11122 0.6164 0.0
O270 O 0.43044 0.13232 0.66643 0.0
O271 O 0.30718 0.22372 0.49518 0.0
O272 O 0.22408 0.2619 0.48741 0.0
O273 O 0.30294 0.15557 0.68156 0.0
O274 O 0.25786 0.21989 0.6219 0.0
C275 C 0.26972 0.25482 0.46675 0.0
C276 C 0.26279 0.18866 0.67085 0.0
O277 O 0.38427 0.12353 0.5756 0.0
Mg278 Mg 0.41349 0.58505 0.71721 0.0
O279 O 0.3354 0.49779 0.71465 0.0
O280 O 0.3808 0.42449 0.7028 0.0
Mg281 Mg 0.48101 0.46229 0.69239 0.0
C282 C 0.33402 0.44178 0.71125 0.0
C283 C 0.39526 0.67843 0.78679 0.0
O284 O 0.45514 0.68632 0.79222 0.0
O285 O 0.448 0.54671 0.80548 0.0
O286 O 0.49349 0.47526 0.78894 0.0
O287 O 0.39851 0.61049 0.62238 0.0
O288 O 0.45832 0.55023 0.66617 0.0
C289 C 0.47808 0.5059 0.82302 0.0
C290 C 0.43583 0.57685 0.61907 0.0
O291 O 0.36063 0.63789 0.75576 0.0
Mg292 Mg 0.70254 0.41919 0.50029 0.0
O293 O 0.80665 0.46208 0.51206 0.0
O294 O 0.85772 0.39398 0.55951 0.0
Mg295 Mg 0.78654 0.30306 0.57016 0.0
C296 C 0.85629 0.44784 0.53745 0.0
C297 C 0.56603 0.41768 0.45354 0.0
O298 O 0.59405 0.38372 0.49269 0.0
O299 O 0.70374 0.36434 0.42326 0.0
O300 O 0.75498 0.29784 0.473 0.0
O301 O 0.70564 0.43994 0.59329 0.0
O302 O 0.71669 0.35371 0.5724 0.0
C303 C 0.72699 0.31816 0.42566 0.0
C304 C 0.71813 0.38818 0.61101 0.0
O305 O 0.59545 0.38596 0.49126 0.0
Mg306 Mg 0.67771 0.0298 0.82548 0.0
O307 O 0.6037 0.01633 0.74415 0.0
O308 O 0.65598 0.02189 0.67178 0.0
Mg309 Mg 0.75957 0.04182 0.70579 0.0
C310 C 0.60557 0.01617 0.69065 0.0
C311 C 0.63037 0.01256 0.93671 0.0
O312 O 0.68719 0.04466 0.94696 0.0
O313 O 0.70101 0.93596 0.83268 0.0
O314 O 0.75893 0.95169 0.76352 0.0
O315 O 0.67971 0.12812 0.80929 0.0
O316 O 0.74252 0.08458 0.77757 0.0
C317 C 0.73726 0.91891 0.80632 0.0
C318 C 0.72334 0.13281 0.77972 0.0
O319 O 0.60836 0.99611 0.88644 0.0
Mg320 Mg 0.05766 0.30329 0.90283 0.0
O321 O 0.96232 0.29068 0.84664 0.0
O322 O 0.89415 0.26661 0.90798 0.0
Mg323 Mg 0.94293 0.26682 1.0006 0.0
C324 C 0.90721 0.27755 0.85702 0.0
C325 C 0.15507 0.37088 0.81919 0.0
O326 O 0.18029 0.40644 0.86071 0.0
O327 O 0.04992 0.39827 0.921 0.0
O328 O 0.98283 0.36817 0.98318 0.0
O329 O 0.05316 0.20286 0.90902 0.0
O330 O 0.02026 0.24609 0.97094 0.0
C331 C 0.01799 0.41003 0.95556 0.0
C332 C 0.02651 0.19699 0.95369 0.0
O333 O 0.10378 0.3335 0.82265 0.0
Mg334 Mg 0.55731 0.80328 0.40274 0.0
O335 O 0.46182 0.79061 0.34682 0.0
O336 O 0.39389 0.76659 0.40839 0.0
Mg337 Mg 0.44299 0.76688 0.5009 0.0
C338 C 0.40677 0.77748 0.35736 0.0
C339 C 0.65432 0.87113 0.31879 0.0
O340 O 0.67937 0.90699 0.36011 0.0
O341 O 0.54963 0.89825 0.42089 0.0
O342 O 0.48283 0.86825 0.48335 0.0
O343 O 0.55286 0.70286 0.40895 0.0
O344 O 0.52016 0.74612 0.47099 0.0
C345 C 0.51787 0.91008 0.45556 0.0
C346 C 0.52636 0.69701 0.45371 0.0
O347 O 0.60321 0.83351 0.32244 0.0
Mg348 Mg 0.99656 0.74917 0.64493 0.0
O349 O 0.07614 0.74674 0.72275 0.0
O350 O 0.15222 0.73908 0.67875 0.0
Mg351 Mg 0.12363 0.72556 0.58284 0.0
C352 C 0.13232 0.7457 0.72401 0.0
C353 C 0.91436 0.74127 0.73656 0.0
O354 O 0.92847 0.68801 0.74586 0.0
O355 O 0.04716 0.84642 0.6141 0.0
O356 O 0.11465 0.82478 0.56657 0.0
O357 O 0.95646 0.64667 0.64673 0.0
O358 O 0.02725 0.69522 0.59542 0.0
C359 C 0.08904 0.86277 0.58196 0.0
C360 C 0.99044 0.64472 0.60926 0.0
O361 O 0.93927 0.78088 0.69978 0.0
Mg362 Mg 0.49638 0.24865 0.14556 0.0
O363 O 0.57616 0.24622 0.22318 0.0
O364 O 0.65219 0.23883 0.17897 0.0
Mg365 Mg 0.62345 0.22548 0.08305 0.0
C366 C 0.63235 0.24531 0.2243 0.0
C367 C 0.41275 0.2393 0.23607 0.0
O368 O 0.4255 0.18546 0.24365 0.0
O369 O 0.54679 0.34607 0.1148 0.0
O370 O 0.61427 0.32462 0.06711 0.0
O371 O 0.45653 0.1461 0.14703 0.0
O372 O 0.52709 0.195 0.09565 0.0
C373 C 0.58863 0.36253 0.08261 0.0
C374 C 0.49042 0.14439 0.10942 0.0
O375 O 0.43921 0.27995 0.20096 0.0
loop_
_geom_bond_atom_site_label_1
_geom_bond_atom_site_label_2
_geom_bond_distance
_geom_bond_site_symmetry_2
_ccdc_geom_bond_type
H0 C7 0.929 . S
H1 C10 0.930 1_465 S
H2 C12 0.929 . S
H3 C4 0.969 . S
C4 H3 0.969 . S
C4 O5 1.550 1_565 S
C4 H6 0.973 . S
O5 C4 1.550 1_545 S
O5 C11 1.412 . S
H6 C4 0.973 . S
C7 H0 0.929 . S
C7 C8 1.400 1_554 S
C7 C9 1.364 . S
C8 C7 1.400 1_556 S
C8 C12 1.377 1_655 S
C9 C7 1.364 . S
C9 C10 1.374 . S
C10 H1 0.930 1_645 S
C10 C9 1.374 . S
C10 C11 1.383 1_655 S
C11 O5 1.412 . S
C11 C10 1.383 1_455 S
C11 C12 1.394 1_554 S
C12 H2 0.929 . S
C12 C8 1.377 1_455 S
C12 C11 1.394 1_556 S
H13 C20 0.929 . S
H14 C23 0.930 . S
H15 C25 0.929 . S
H16 C17 0.969 . S
C17 H16 0.969 . S
C17 O18 1.550 . S
C17 H19 0.973 . S
O18 C17 1.550 . S
O18 C24 1.412 . S
H19 C17 0.973 . S
C20 H13 0.929 . S
C20 C21 1.400 . S
C20 C22 1.364 . S
C21 C20 1.400 . S
C21 C25 1.377 . S
C22 C20 1.364 . S
C22 C23 1.374 . S
C23 H14 0.930 . S
C23 C22 1.374 . S
C23 C24 1.383 . S
C24 O18 1.412 . S
C24 C23 1.383 . S
C24 C25 1.394 . S
C25 H15 0.929 . S
C25 C21 1.377 . S
C25 C24 1.394 . S
H26 C33 0.929 . S
H27 C36 0.930 . S
H28 C38 0.929 . S
H29 C30 0.969 1_455 S
C30 H29 0.969 1_655 S
C30 O31 1.550 1_656 S
C30 H32 0.973 . S
O31 C30 1.550 1_454 S
O31 C37 1.412 . S
H32 C30 0.973 . S
C33 H26 0.929 . S
C33 C34 1.400 1_655 S
C33 C35 1.364 . S
C34 C33 1.400 1_455 S
C34 C38 1.377 . S
C35 C33 1.364 . S
C35 C36 1.374 . S
C36 H27 0.930 . S
C36 C35 1.374 . S
C36 C37 1.383 1_655 S
C37 O31 1.412 . S
C37 C36 1.383 1_455 S
C37 C38 1.394 . S
C38 H28 0.929 . S
C38 C34 1.377 . S
C38 C37 1.394 . S
H39 C46 0.929 . S
H40 C49 0.930 . S
H41 C51 0.929 . S
H42 C43 0.969 . S
C43 H42 0.969 . S
C43 O44 1.550 . S
C43 H45 0.973 . S
O44 C43 1.550 . S
O44 C50 1.412 . S
H45 C43 0.973 . S
C46 H39 0.929 . S
C46 C47 1.400 . S
C46 C48 1.364 . S
C47 C46 1.400 . S
C47 C51 1.377 . S
C48 C46 1.364 . S
C48 C49 1.374 . S
C49 H40 0.930 . S
C49 C48 1.374 . S
C49 C50 1.383 . S
C50 O44 1.412 . S
C50 C49 1.383 . S
C50 C51 1.394 . S
C51 H41 0.929 . S
C51 C47 1.377 . S
C51 C50 1.394 . S
H52 C59 0.929 . S
H53 C62 0.930 . S
H54 C64 0.929 . S
H55 C56 0.969 1_545 S
C56 H55 0.969 1_565 S
C56 O57 1.550 1_665 S
C56 H58 0.973 . S
O57 C56 1.550 1_445 S
O57 C63 1.412 1_545 S
H58 C56 0.973 . S
C59 H52 0.929 . S
C59 C60 1.400 1_565 S
C59 C61 1.364 . S
C60 C59 1.400 1_545 S
C60 C64 1.377 . S
C61 C59 1.364 . S
C61 C62 1.374 . S
C62 H53 0.930 . S
C62 C61 1.374 . S
C62 C63 1.383 . S
C63 O57 1.412 1_565 S
C63 C62 1.383 . S
C63 C64 1.394 1_565 S
C64 H54 0.929 . S
C64 C60 1.377 . S
C64 C63 1.394 1_545 S
H65 C72 0.929 . S
H66 C75 0.930 . S
H67 C77 0.929 . S
H68 C69 0.969 . S
C69 H68 0.969 . S
C69 O70 1.550 . S
C69 H71 0.973 . S
O70 C69 1.550 . S
O70 C76 1.412 . S
H71 C69 0.973 . S
C72 H65 0.929 . S
C72 C73 1.400 . S
C72 C74 1.364 . S
C73 C72 1.400 . S
C73 C77 1.377 . S
C74 C72 1.364 . S
C74 C75 1.374 . S
C75 H66 0.930 . S
C75 C74 1.374 . S
C75 C76 1.383 . S
C76 O70 1.412 . S
C76 C75 1.383 . S
C76 C77 1.394 . S
C77 H67 0.929 . S
C77 C73 1.377 . S
C77 C76 1.394 . S
H78 C85 0.929 . S
H79 C88 0.930 . S
H80 C90 0.929 . S
H81 C82 0.969 . S
C82 H81 0.969 . S
C82 O83 1.550 . S
C82 H84 0.973 . S
O83 C82 1.550 . S
O83 C89 1.412 1_455 S
H84 C82 0.973 . S
C85 H78 0.929 . S
C85 C86 1.400 . S
C85 C87 1.364 . S
C86 C85 1.400 . S
C86 C90 1.377 1_655 S
C87 C85 1.364 . S
C87 C88 1.374 . S
C88 H79 0.930 . S
C88 C87 1.374 . S
C88 C89 1.383 . S
C89 O83 1.412 1_655 S
C89 C88 1.383 . S
C89 C90 1.394 1_655 S
C90 H80 0.929 . S
C90 C86 1.377 1_455 S
C90 C89 1.394 1_455 S
H91 C98 0.929 . S
H92 C101 0.930 . S
H93 C103 0.929 . S
H94 C95 0.969 . S
C95 H94 0.969 . S
C95 O96 1.550 . S
C95 H97 0.973 . S
O96 C95 1.550 . S
O96 C102 1.412 . S
H97 C95 0.973 . S
C98 H91 0.929 . S
C98 C99 1.400 . S
C98 C100 1.364 . S
C99 C98 1.400 . S
C99 C103 1.377 . S
C100 C98 1.364 . S
C100 C101 1.374 . S
C101 H92 0.930 . S
C101 C100 1.374 . S
C101 C102 1.383 . S
C102 O96 1.412 . S
C102 C101 1.383 . S
C102 C103 1.394 . S
C103 H93 0.929 . S
C103 C99 1.377 . S
C103 C102 1.394 . S
H104 C111 0.929 . S
H105 C114 0.930 . S
H106 C116 0.929 . S
H107 C108 0.969 . S
C108 H107 0.969 . S
C108 O109 1.550 . S
C108 H110 0.973 . S
O109 C108 1.550 . S
O109 C115 1.412 . S
H110 C108 0.973 . S
C111 H104 0.929 . S
C111 C112 1.400 . S
C111 C113 1.364 . S
C112 C111 1.400 . S
C112 C116 1.377 . S
C113 C111 1.364 . S
C113 C114 1.374 . S
C114 H105 0.930 . S
C114 C113 1.374 . S
C114 C115 1.383 . S
C115 O109 1.412 . S
C115 C114 1.383 . S
C115 C116 1.394 . S
C116 H106 0.929 . S
C116 C112 1.377 . S
C116 C115 1.394 . S
H117 C124 0.929 . S
H118 C127 0.930 . S
H119 C129 0.929 . S
H120 C121 0.969 . S
C121 H120 0.969 . S
C121 O122 1.550 . S
C121 H123 0.973 . S
O122 C121 1.550 . S
O122 C128 1.412 . S
H123 C121 0.973 . S
C124 H117 0.929 . S
C124 C125 1.400 . S
C124 C126 1.364 . S
C125 C124 1.400 . S
C125 C129 1.377 1_545 S
C126 C124 1.364 . S
C126 C127 1.374 1_545 S
C127 H118 0.930 . S
C127 C126 1.374 1_565 S
C127 C128 1.383 . S
C128 O122 1.412 . S
C128 C127 1.383 . S
C128 C129 1.394 . S
C129 H119 0.929 . S
C129 C125 1.377 1_565 S
C129 C128 1.394 . S
H130 C137 0.929 . S
H131 C140 0.930 . S
H132 C142 0.929 . S
H133 C134 0.969 . S
C134 H133 0.969 . S
C134 O135 1.550 . S
C134 H136 0.973 . S
O135 C134 1.550 . S
O135 C141 1.412 . S
H136 C134 0.973 . S
C137 H130 0.929 . S
C137 C138 1.400 . S
C137 C139 1.364 . S
C138 C137 1.400 . S
C138 C142 1.377 . S
C139 C137 1.364 . S
C139 C140 1.374 . S
C140 H131 0.930 . S
C140 C139 1.374 . S
C140 C141 1.383 . S
C141 O135 1.412 . S
C141 C140 1.383 . S
C141 C142 1.394 . S
C142 H132 0.929 . S
C142 C138 1.377 . S
C142 C141 1.394 . S
H143 C150 0.929 . S
H144 C153 0.930 . S
H145 C155 0.929 . S
H146 C147 0.969 . S
C147 H146 0.969 . S
C147 O148 1.550 . S
C147 H149 0.973 . S
O148 C147 1.550 . S
O148 C154 1.412 . S
H149 C147 0.973 . S
C150 H143 0.929 . S
C150 C151 1.400 . S
C150 C152 1.364 . S
C151 C150 1.400 . S
C151 C155 1.377 . S
C152 C150 1.364 . S
C152 C153 1.374 . S
C153 H144 0.930 . S
C153 C152 1.374 . S
C153 C154 1.383 . S
C154 O148 1.412 . S
C154 C153 1.383 . S
C154 C155 1.394 . S
C155 H145 0.929 . S
C155 C151 1.377 . S
C155 C154 1.394 . S
H156 C163 0.929 . S
H157 C166 0.930 . S
H158 C168 0.929 . S
H159 C160 0.969 . S
C160 H159 0.969 . S
C160 O161 1.550 . S
C160 H162 0.973 . S
O161 C160 1.550 . S
O161 C167 1.412 . S
H162 C160 0.973 . S
C163 H156 0.929 . S
C163 C164 1.400 . S
C163 C165 1.364 . S
C164 C163 1.400 . S
C164 C168 1.377 . S
C165 C163 1.364 . S
C165 C166 1.374 . S
C166 H157 0.930 . S
C166 C165 1.374 . S
C166 C167 1.383 . S
C167 O161 1.412 . S
C167 C166 1.383 . S
C167 C168 1.394 . S
C168 H158 0.929 . S
C168 C164 1.377 . S
C168 C167 1.394 . S
H169 C176 0.929 . S
H170 C179 0.930 . S
H171 C181 0.929 . S
H172 C173 0.969 . S
C173 H172 0.969 . S
C173 O174 1.550 . S
C173 H175 0.973 . S
O174 C173 1.550 . S
O174 C180 1.412 . S
H175 C173 0.973 . S
C176 H169 0.929 . S
C176 C177 1.400 . S
C176 C178 1.364 . S
C177 C176 1.400 . S
C177 C181 1.377 1_554 S
C178 C176 1.364 . S
C178 C179 1.374 1_554 S
C179 H170 0.930 . S
C179 C178 1.374 1_556 S
C179 C180 1.383 . S
C180 O174 1.412 . S
C180 C179 1.383 . S
C180 C181 1.394 . S
C181 H171 0.929 . S
C181 C177 1.377 1_556 S
C181 C180 1.394 . S
H182 C189 0.929 . S
H183 C192 0.930 . S
H184 C194 0.929 . S
H185 C186 0.969 . S
C186 H185 0.969 . S
C186 O187 1.550 . S
C186 H188 0.973 . S
O187 C186 1.550 . S
O187 C193 1.412 . S
H188 C186 0.973 . S
C189 H182 0.929 . S
C189 C190 1.400 . S
C189 C191 1.364 . S
C190 C189 1.400 . S
C190 C194 1.377 . S
C191 C189 1.364 . S
C191 C192 1.374 . S
C192 H183 0.930 . S
C192 C191 1.374 . S
C192 C193 1.383 . S
C193 O187 1.412 . S
C193 C192 1.383 . S
C193 C194 1.394 . S
C194 H184 0.929 . S
C194 C190 1.377 . S
C194 C193 1.394 . S
H195 C202 0.929 . S
H196 C205 0.930 1_565 S
H197 C207 0.929 . S
H198 C199 0.969 . S
C199 H198 0.969 . S
C199 O200 1.550 . S
C199 H201 0.973 1_545 S
O200 C199 1.550 . S
O200 C206 1.412 . S
H201 C199 0.973 1_565 S
C202 H195 0.929 . S
C202 C203 1.400 . S
C202 C204 1.364 . S
C203 C202 1.400 . S
C203 C207 1.377 . S
C204 C202 1.364 . S
C204 C205 1.374 1_554 S
C205 H196 0.930 1_545 S
C205 C204 1.374 1_556 S
C205 C206 1.383 . S
C206 O200 1.412 . S
C206 C205 1.383 . S
C206 C207 1.394 1_556 S
C207 H197 0.929 . S
C207 C203 1.377 . S
C207 C206 1.394 1_554 S
Mg208 O209 2.028 1_554 S
Mg208 O215 1.986 1_554 S
Mg208 O217 2.114 . S
Mg208 O218 2.251 . S
Mg208 O221 2.010 . S
O209 Mg208 2.028 1_556 S
O209 C212 1.250 . S
O210 Mg211 2.028 . S
O210 C212 1.248 . S
Mg211 O210 2.028 . S
Mg211 O216 2.032 . S
Mg211 O218 2.079 1_556 S
C212 O209 1.250 . S
C212 O210 1.248 . S
C213 O214 1.264 . S
C213 O221 1.249 . S
O214 C213 1.264 . S
O215 Mg208 1.986 1_556 S
O215 C219 1.246 . S
O216 Mg211 2.032 . S
O216 C219 1.259 . S
O217 Mg208 2.114 . S
O217 C220 1.252 . S
O218 Mg208 2.251 . S
O218 Mg211 2.079 1_554 S
O218 C220 1.273 . S
C219 O215 1.246 . S
C219 O216 1.259 . S
C220 O217 1.252 . S
C220 O218 1.273 . S
O221 Mg208 2.010 . S
O221 C213 1.249 . S
Mg222 O223 2.028 . S
Mg222 O229 1.986 . S
Mg222 O231 2.114 . S
Mg222 O232 2.251 . S
Mg222 O235 2.010 . S
O223 Mg222 2.028 . S
O223 C226 1.250 . S
O224 Mg225 2.028 . S
O224 C226 1.248 . S
Mg225 O224 2.028 . S
Mg225 O230 2.032 . S
Mg225 O232 2.079 . S
C226 O223 1.250 . S
C226 O224 1.248 . S
C227 O228 1.264 . S
C227 O235 1.249 . S
O228 C227 1.264 . S
O229 Mg222 1.986 . S
O229 C233 1.246 . S
O230 Mg225 2.032 . S
O230 C233 1.259 . S
O231 Mg222 2.114 . S
O231 C234 1.252 . S
O232 Mg222 2.251 . S
O232 Mg225 2.079 . S
O232 C234 1.273 . S
C233 O229 1.246 . S
C233 O230 1.259 . S
C234 O231 1.252 . S
C234 O232 1.273 . S
O235 Mg222 2.010 . S
O235 C227 1.249 . S
Mg236 O237 2.028 . S
Mg236 O243 1.986 1_554 S
Mg236 O245 2.114 . S
Mg236 O246 2.251 . S
Mg236 O249 2.010 . S
O237 Mg236 2.028 . S
O237 C240 1.250 . S
O238 Mg239 2.028 . S
O238 C240 1.248 . S
Mg239 O238 2.028 . S
Mg239 O244 2.032 1_554 S
Mg239 O246 2.079 . S
C240 O237 1.250 . S
C240 O238 1.248 . S
C241 O242 1.264 . S
C241 O249 1.249 . S
O242 C241 1.264 . S
O243 Mg236 1.986 1_556 S
O243 C247 1.246 . S
O244 Mg239 2.032 1_556 S
O244 C247 1.259 . S
O245 Mg236 2.114 . S
O245 C248 1.252 . S
O246 Mg236 2.251 . S
O246 Mg239 2.079 . S
O246 C248 1.273 . S
C247 O243 1.246 . S
C247 O244 1.259 . S
C248 O245 1.252 . S
C248 O246 1.273 . S
O249 Mg236 2.010 . S
O249 C241 1.249 . S
Mg250 O251 2.028 1_545 S
Mg250 O257 1.986 . S
Mg250 O259 2.114 . S
Mg250 O260 2.251 . S
Mg250 O263 2.010 . S
O251 Mg250 2.028 1_565 S
O251 C254 1.250 . S
O252 Mg253 2.028 . S
O252 C254 1.248 . S
Mg253 O252 2.028 . S
Mg253 O258 2.032 . S
Mg253 O260 2.079 1_565 S
C254 O251 1.250 . S
C254 O252 1.248 . S
C255 O256 1.264 . S
C255 O263 1.249 . S
O256 C255 1.264 . S
O257 Mg250 1.986 . S
O257 C261 1.246 . S
O258 Mg253 2.032 . S
O258 C261 1.259 1_565 S
O259 Mg250 2.114 . S
O259 C262 1.252 . S
O260 Mg250 2.251 . S
O260 Mg253 2.079 1_545 S
O260 C262 1.273 . S
C261 O257 1.246 . S
C261 O258 1.259 1_545 S
C262 O259 1.252 . S
C262 O260 1.273 . S
O263 Mg250 2.010 . S
O263 C255 1.249 . S
Mg264 O265 2.028 . S
Mg264 O271 1.986 . S
Mg264 O273 2.114 . S
Mg264 O274 2.251 . S
Mg264 O277 2.010 . S
O265 Mg264 2.028 . S
O265 C268 1.250 . S
O266 Mg267 2.028 . S
O266 C268 1.248 . S
Mg267 O266 2.028 . S
Mg267 O272 2.032 . S
Mg267 O274 2.079 . S
C268 O265 1.250 . S
C268 O266 1.248 . S
C269 O270 1.264 . S
C269 O277 1.249 . S
O270 C269 1.264 . S
O271 Mg264 1.986 . S
O271 C275 1.246 . S
O272 Mg267 2.032 . S
O272 C275 1.259 . S
O273 Mg264 2.114 . S
O273 C276 1.252 . S
O274 Mg264 2.251 . S
O274 Mg267 2.079 . S
O274 C276 1.273 . S
C275 O271 1.246 . S
C275 O272 1.259 . S
C276 O273 1.252 . S
C276 O274 1.273 . S
O277 Mg264 2.010 . S
O277 C269 1.249 . S
Mg278 O279 2.028 . S
Mg278 O285 1.986 . S
Mg278 O287 2.114 . S
Mg278 O288 2.251 . S
Mg278 O291 2.010 . S
O279 Mg278 2.028 . S
O279 C282 1.250 . S
O280 Mg281 2.028 . S
O280 C282 1.248 . S
Mg281 O280 2.028 . S
Mg281 O286 2.032 . S
Mg281 O288 2.079 . S
C282 O279 1.250 . S
C282 O280 1.248 . S
C283 O284 1.264 . S
C283 O291 1.249 . S
O284 C283 1.264 . S
O285 Mg278 1.986 . S
O285 C289 1.246 . S
O286 Mg281 2.032 . S
O286 C289 1.259 . S
O287 Mg278 2.114 . S
O287 C290 1.252 . S
O288 Mg278 2.251 . S
O288 Mg281 2.079 . S
O288 C290 1.273 . S
C289 O285 1.246 . S
C289 O286 1.259 . S
C290 O287 1.252 . S
C290 O288 1.273 . S
O291 Mg278 2.010 . S
O291 C283 1.249 . S
Mg292 O293 2.028 . S
Mg292 O299 1.986 . S
Mg292 O301 2.114 . S
Mg292 O302 2.251 . S
Mg292 O305 2.010 . S
O293 Mg292 2.028 . S
O293 C296 1.250 . S
O294 Mg295 2.028 . S
O294 C296 1.248 . S
Mg295 O294 2.028 . S
Mg295 O300 2.032 . S
Mg295 O302 2.079 . S
C296 O293 1.250 . S
C296 O294 1.248 . S
C297 O298 1.264 . S
C297 O305 1.249 . S
O298 C297 1.264 . S
O299 Mg292 1.986 . S
O299 C303 1.246 . S
O300 Mg295 2.032 . S
O300 C303 1.259 . S
O301 Mg292 2.114 . S
O301 C304 1.252 . S
O302 Mg292 2.251 . S
O302 Mg295 2.079 . S
O302 C304 1.273 . S
C303 O299 1.246 . S
C303 O300 1.259 . S
C304 O301 1.252 . S
C304 O302 1.273 . S
O305 Mg292 2.010 . S
O305 C297 1.249 . S
Mg306 O307 2.028 1_545 S
Mg306 O313 1.986 1_545 S
Mg306 O315 2.114 . S
Mg306 O316 2.251 . S
Mg306 O319 2.010 . S
O307 Mg306 2.028 1_565 S
O307 C310 1.250 . S
O308 Mg309 2.028 . S
O308 C310 1.248 . S
Mg309 O308 2.028 . S
Mg309 O314 2.032 . S
Mg309 O316 2.079 1_565 S
C310 O307 1.250 . S
C310 O308 1.248 . S
C311 O312 1.264 . S
C311 O319 1.249 . S
O312 C311 1.264 . S
O313 Mg306 1.986 1_565 S
O313 C317 1.246 . S
O314 Mg309 2.032 . S
O314 C317 1.259 . S
O315 Mg306 2.114 . S
O315 C318 1.252 . S
O316 Mg306 2.251 . S
O316 Mg309 2.079 1_545 S
O316 C318 1.273 . S
C317 O313 1.246 . S
C317 O314 1.259 . S
C318 O315 1.252 . S
C318 O316 1.273 . S
O319 Mg306 2.010 . S
O319 C311 1.249 . S
Mg320 O321 2.028 1_455 S
Mg320 O327 1.986 . S
Mg320 O329 2.114 . S
Mg320 O330 2.251 1_455 S
Mg320 O333 2.010 . S
O321 Mg320 2.028 1_655 S
O321 C324 1.250 . S
O322 Mg323 2.028 . S
O322 C324 1.248 . S
Mg323 O322 2.028 . S
Mg323 O328 2.032 . S
Mg323 O330 2.079 . S
C324 O321 1.250 . S
C324 O322 1.248 . S
C325 O326 1.264 . S
C325 O333 1.249 . S
O326 C325 1.264 . S
O327 Mg320 1.986 . S
O327 C331 1.246 1_455 S
O328 Mg323 2.032 . S
O328 C331 1.259 . S
O329 Mg320 2.114 . S
O329 C332 1.252 . S
O330 Mg320 2.251 1_655 S
O330 Mg323 2.079 . S
O330 C332 1.273 1_655 S
C331 O327 1.246 1_655 S
C331 O328 1.259 . S
C332 O329 1.252 . S
C332 O330 1.273 1_455 S
O333 Mg320 2.010 . S
O333 C325 1.249 . S
Mg334 O335 2.028 . S
Mg334 O341 1.986 . S
Mg334 O343 2.114 . S
Mg334 O344 2.251 . S
Mg334 O347 2.010 . S
O335 Mg334 2.028 . S
O335 C338 1.250 . S
O336 Mg337 2.028 . S
O336 C338 1.248 . S
Mg337 O336 2.028 . S
Mg337 O342 2.032 . S
Mg337 O344 2.079 . S
C338 O335 1.250 . S
C338 O336 1.248 . S
C339 O340 1.264 . S
C339 O347 1.249 . S
O340 C339 1.264 . S
O341 Mg334 1.986 . S
O341 C345 1.246 . S
O342 Mg337 2.032 . S
O342 C345 1.259 . S
O343 Mg334 2.114 . S
O343 C346 1.252 . S
O344 Mg334 2.251 . S
O344 Mg337 2.079 . S
O344 C346 1.273 . S
C345 O341 1.246 . S
C345 O342 1.259 . S
C346 O343 1.252 . S
C346 O344 1.273 . S
O347 Mg334 2.010 . S
O347 C339 1.249 . S
Mg348 O349 2.028 1_655 S
Mg348 O355 1.986 1_655 S
Mg348 O357 2.114 . S
Mg348 O358 2.251 1_655 S
Mg348 O361 2.010 . S
O349 Mg348 2.028 1_455 S
O349 C352 1.250 . S
O350 Mg351 2.028 . S
O350 C352 1.248 . S
Mg351 O350 2.028 . S
Mg351 O356 2.032 . S
Mg351 O358 2.079 . S
C352 O349 1.250 . S
C352 O350 1.248 . S
C353 O354 1.264 . S
C353 O361 1.249 . S
O354 C353 1.264 . S
O355 Mg348 1.986 1_455 S
O355 C359 1.246 . S
O356 Mg351 2.032 . S
O356 C359 1.259 . S
O357 Mg348 2.114 . S
O357 C360 1.252 . S
O358 Mg348 2.251 1_455 S
O358 Mg351 2.079 . S
O358 C360 1.273 1_455 S
C359 O355 1.246 . S
C359 O356 1.259 . S
C360 O357 1.252 . S
C360 O358 1.273 1_655 S
O361 Mg348 2.010 . S
O361 C353 1.249 . S
Mg362 O363 2.028 . S
Mg362 O369 1.986 . S
Mg362 O371 2.114 . S
Mg362 O372 2.251 . S
Mg362 O375 2.010 . S
O363 Mg362 2.028 . S
O363 C366 1.250 . S
O364 Mg365 2.028 . S
O364 C366 1.248 . S
Mg365 O364 2.028 . S
Mg365 O370 2.032 . S
Mg365 O372 2.079 . S
C366 O363 1.250 . S
C366 O364 1.248 . S
C367 O368 1.264 . S
C367 O375 1.249 . S
O368 C367 1.264 . S
O369 Mg362 1.986 . S
O369 C373 1.246 . S
O370 Mg365 2.032 . S
O370 C373 1.259 . S
O371 Mg362 2.114 . S
O371 C374 1.252 . S
O372 Mg362 2.251 . S
O372 Mg365 2.079 . S
O372 C374 1.273 . S
C373 O369 1.246 . S
C373 O370 1.259 . S
C374 O371 1.252 . S
C374 O372 1.273 . S
O375 Mg362 2.010 . S
O375 C367 1.249 . S
C219 C73 1.810 . S
C227 C82 1.299 . S
C100 C247 1.792 . S
C261 C56 1.392 1_545 S
C276 C134 1.642 . S
C290 C165 1.796 . S
C147 C304 1.215 . S
C310 C125 1.980 1_565 S
C151 C324 1.401 . S
C345 C121 1.452 . S
C139 C325 1.473 . S
C346 C164 1.488 . S
C95 C353 1.144 . S
C61 C359 1.501 . S
C74 C352 1.588 . S
C86 C360 1.814 . S
C47 C254 1.565 . S
C186 C255 0.981 . S
C212 C204 1.665 1_566 S
C233 C112 1.858 . S
C60 C268 1.364 . S
C318 C152 1.457 . S
C269 C126 1.595 . S
C297 C160 0.993 . S
C303 C190 1.795 . S
C199 C311 1.344 . S
C113 C275 1.790 . S
C289 C173 1.387 . S
C43 C248 1.640 . S
C262 C9 1.794 . S
C220 C17 1.205 . S
C226 C34 1.990 . S
C21 C338 1.384 . S
C30 C331 1.459 . S
C48 C339 1.467 . S
C8 C332 1.498 1_655 S
C367 C108 1.145 . S
C373 C178 1.494 . S
C366 C191 1.590 . S
C203 C374 1.815 . S
C138 C282 1.574 . S
C283 C69 0.981 . S
C296 C87 1.691 . S
C317 C99 1.859 . S
C177 C240 1.357 . S
C234 C22 1.463 . S
C35 C241 1.599 . S
C213 C4 0.974 . S
