# Generated by pormake.
# Topology eea, (3,6)-cn, num edge types: 1
# Building blocks:
#     Node 0, Type 0, BuildingBlock: KAKCAD_clean_linker_0, # of connection points: 3
#     Node 1, Type 0, BuildingBlock: KAKCAD_clean_linker_0, # of connection points: 3
#     Node 2, Type 0, BuildingBlock: KAKCAD_clean_linker_0, # of connection points: 3
#     Node 3, Type 0, BuildingBlock: KAKCAD_clean_linker_0, # of connection points: 3
#     Node 4, Type 0, BuildingBlock: KAKCAD_clean_linker_0, # of connection points: 3
#     Node 5, Type 0, BuildingBlock: KAKCAD_clean_linker_0, # of connection points: 3
#     Node 6, Type 0, BuildingBlock: KAKCAD_clean_linker_0, # of connection points: 3
#     Node 7, Type 0, BuildingBlock: KAKCAD_clean_linker_0, # of connection points: 3
#     Node 8, Type 0, BuildingBlock: KAKCAD_clean_linker_0, # of connection points: 3
#     Node 9, Type 0, BuildingBlock: KAKCAD_clean_linker_0, # of connection points: 3
#     Node 10, Type 0, BuildingBlock: KAKCAD_clean_linker_0, # of connection points: 3
#     Node 11, Type 0, BuildingBlock: KAKCAD_clean_linker_0, # of connection points: 3
#     Node 12, Type 0, BuildingBlock: KAKCAD_clean_linker_0, # of connection points: 3
#     Node 13, Type 0, BuildingBlock: KAKCAD_clean_linker_0, # of connection points: 3
#     Node 14, Type 0, BuildingBlock: KAKCAD_clean_linker_0, # of connection points: 3
#     Node 15, Type 0, BuildingBlock: KAKCAD_clean_linker_0, # of connection points: 3
#     Node 16, Type 0, BuildingBlock: KAKCAD_clean_linker_0, # of connection points: 3
#     Node 17, Type 0, BuildingBlock: KAKCAD_clean_linker_0, # of connection points: 3
#     Node 18, Type 1, BuildingBlock: CUKXOW_clean_sbu_0, # of connection points: 6
#     Node 19, Type 1, BuildingBlock: CUKXOW_clean_sbu_0, # of connection points: 6
#     Node 20, Type 1, BuildingBlock: CUKXOW_clean_sbu_0, # of connection points: 6
#     Node 21, Type 1, BuildingBlock: CUKXOW_clean_sbu_0, # of connection points: 6
#     Node 22, Type 1, BuildingBlock: CUKXOW_clean_sbu_0, # of connection points: 6
#     Node 23, Type 1, BuildingBlock: CUKXOW_clean_sbu_0, # of connection points: 6
#     Node 24, Type 1, BuildingBlock: CUKXOW_clean_sbu_0, # of connection points: 6
#     Node 25, Type 1, BuildingBlock: CUKXOW_clean_sbu_0, # of connection points: 6
#     Node 26, Type 1, BuildingBlock: CUKXOW_clean_sbu_0, # of connection points: 6
#     Edge 27, Type (0, 1), BuildingBlock: CIFDUS_clean_linker_0, # of connection points: 2
#     Edge 28, Type (0, 1), BuildingBlock: CIFDUS_clean_linker_0, # of connection points: 2
#     Edge 29, Type (0, 1), BuildingBlock: CIFDUS_clean_linker_0, # of connection points: 2
#     Edge 30, Type (0, 1), BuildingBlock: CIFDUS_clean_linker_0, # of connection points: 2
#     Edge 31, Type (0, 1), BuildingBlock: CIFDUS_clean_linker_0, # of connection points: 2
#     Edge 32, Type (0, 1), BuildingBlock: CIFDUS_clean_linker_0, # of connection points: 2
#     Edge 33, Type (0, 1), BuildingBlock: CIFDUS_clean_linker_0, # of connection points: 2
#     Edge 34, Type (0, 1), BuildingBlock: CIFDUS_clean_linker_0, # of connection points: 2
#     Edge 35, Type (0, 1), BuildingBlock: CIFDUS_clean_linker_0, # of connection points: 2
#     Edge 36, Type (0, 1), BuildingBlock: CIFDUS_clean_linker_0, # of connection points: 2
#     Edge 37, Type (0, 1), BuildingBlock: CIFDUS_clean_linker_0, # of connection points: 2
#     Edge 38, Type (0, 1), BuildingBlock: CIFDUS_clean_linker_0, # of connection points: 2
#     Edge 39, Type (0, 1), BuildingBlock: CIFDUS_clean_linker_0, # of connection points: 2
#     Edge 40, Type (0, 1), BuildingBlock: CIFDUS_clean_linker_0, # of connection points: 2
#     Edge 41, Type (0, 1), BuildingBlock: CIFDUS_clean_linker_0, # of connection points: 2
#     Edge 42, Type (0, 1), BuildingBlock: CIFDUS_clean_linker_0, # of connection points: 2
#     Edge 43, Type (0, 1), BuildingBlock: CIFDUS_clean_linker_0, # of connection points: 2
#     Edge 44, Type (0, 1), BuildingBlock: CIFDUS_clean_linker_0, # of connection points: 2
#     Edge 45, Type (0, 1), BuildingBlock: CIFDUS_clean_linker_0, # of connection points: 2
#     Edge 46, Type (0, 1), BuildingBlock: CIFDUS_clean_linker_0, # of connection points: 2
#     Edge 47, Type (0, 1), BuildingBlock: CIFDUS_clean_linker_0, # of connection points: 2
#     Edge 48, Type (0, 1), BuildingBlock: CIFDUS_clean_linker_0, # of connection points: 2
#     Edge 49, Type (0, 1), BuildingBlock: CIFDUS_clean_linker_0, # of connection points: 2
#     Edge 50, Type (0, 1), BuildingBlock: CIFDUS_clean_linker_0, # of connection points: 2
#     Edge 51, Type (0, 1), BuildingBlock: CIFDUS_clean_linker_0, # of connection points: 2
#     Edge 52, Type (0, 1), BuildingBlock: CIFDUS_clean_linker_0, # of connection points: 2
#     Edge 53, Type (0, 1), BuildingBlock: CIFDUS_clean_linker_0, # of connection points: 2
#     Edge 54, Type (0, 1), BuildingBlock: CIFDUS_clean_linker_0, # of connection points: 2
#     Edge 55, Type (0, 1), BuildingBlock: CIFDUS_clean_linker_0, # of connection points: 2
#     Edge 56, Type (0, 1), BuildingBlock: CIFDUS_clean_linker_0, # of connection points: 2
#     Edge 57, Type (0, 1), BuildingBlock: CIFDUS_clean_linker_0, # of connection points: 2
#     Edge 58, Type (0, 1), BuildingBlock: CIFDUS_clean_linker_0, # of connection points: 2
#     Edge 59, Type (0, 1), BuildingBlock: CIFDUS_clean_linker_0, # of connection points: 2
#     Edge 60, Type (0, 1), BuildingBlock: CIFDUS_clean_linker_0, # of connection points: 2
#     Edge 61, Type (0, 1), BuildingBlock: CIFDUS_clean_linker_0, # of connection points: 2
#     Edge 62, Type (0, 1), BuildingBlock: CIFDUS_clean_linker_0, # of connection points: 2
#     Edge 63, Type (0, 1), BuildingBlock: CIFDUS_clean_linker_0, # of connection points: 2
#     Edge 64, Type (0, 1), BuildingBlock: CIFDUS_clean_linker_0, # of connection points: 2
#     Edge 65, Type (0, 1), BuildingBlock: CIFDUS_clean_linker_0, # of connection points: 2
#     Edge 66, Type (0, 1), BuildingBlock: CIFDUS_clean_linker_0, # of connection points: 2
#     Edge 67, Type (0, 1), BuildingBlock: CIFDUS_clean_linker_0, # of connection points: 2
#     Edge 68, Type (0, 1), BuildingBlock: CIFDUS_clean_linker_0, # of connection points: 2
#     Edge 69, Type (0, 1), BuildingBlock: CIFDUS_clean_linker_0, # of connection points: 2
#     Edge 70, Type (0, 1), BuildingBlock: CIFDUS_clean_linker_0, # of connection points: 2
#     Edge 71, Type (0, 1), BuildingBlock: CIFDUS_clean_linker_0, # of connection points: 2
#     Edge 72, Type (0, 1), BuildingBlock: CIFDUS_clean_linker_0, # of connection points: 2
#     Edge 73, Type (0, 1), BuildingBlock: CIFDUS_clean_linker_0, # of connection points: 2
#     Edge 74, Type (0, 1), BuildingBlock: CIFDUS_clean_linker_0, # of connection points: 2
#     Edge 75, Type (0, 1), BuildingBlock: CIFDUS_clean_linker_0, # of connection points: 2
#     Edge 76, Type (0, 1), BuildingBlock: CIFDUS_clean_linker_0, # of connection points: 2
#     Edge 77, Type (0, 1), BuildingBlock: CIFDUS_clean_linker_0, # of connection points: 2
#     Edge 78, Type (0, 1), BuildingBlock: CIFDUS_clean_linker_0, # of connection points: 2
#     Edge 79, Type (0, 1), BuildingBlock: CIFDUS_clean_linker_0, # of connection points: 2
#     Edge 80, Type (0, 1), BuildingBlock: CIFDUS_clean_linker_0, # of connection points: 2
# Relax obj value: 0.017
# Max RMSD: 0.126
# Mean RMSD: 0.056
data_MOF--net-eea--node1-CUKXOW_clean_sbu_0--node2-KAKCAD_clean_linker_0--edge1-CIFDUS_clean_linker_0
_symmetry_space_group_name_H-M    P1
_symmetry_Int_Tables_number       1
_symmetry_cell_setting            triclinic
loop_
_symmetry_equiv_pos_as_xyz
'x, y, z'
_cell_length_a     61.029812
_cell_length_b     57.848815
_cell_length_c     65.808577
_cell_angle_alpha  93.423653
_cell_angle_beta   93.148768
_cell_angle_gamma 119.96384
loop_
_atom_site_label
_atom_site_type_symbol
_atom_site_fract_x
_atom_site_fract_y
_atom_site_fract_z
_atom_type_partial_charge
C0 C 0.29221 0.17374 0.5136 0.0
C1 C 0.31205 0.16912 0.51963 0.0
C2 C 0.28262 0.16914 0.49303 0.0
C3 C 0.29251 0.15959 0.47803 0.0
C4 C 0.31253 0.15523 0.48404 0.0
C5 C 0.32224 0.16003 0.50457 0.0
C6 C 0.2817 0.15367 0.45626 0.0
C7 C 0.27602 0.17152 0.44684 0.0
C8 C 0.26592 0.166 0.42624 0.0
C9 C 0.26135 0.14225 0.41514 0.0
C10 C 0.26639 0.12386 0.42434 0.0
C11 C 0.27673 0.12988 0.4449 0.0
C12 C 0.26012 0.09806 0.41264 0.0
C13 C 0.23795 0.08401 0.39898 0.0
C14 C 0.27596 0.08705 0.4152 0.0
C15 C 0.26959 0.06246 0.40463 0.0
C16 C 0.24729 0.04831 0.39111 0.0
C17 C 0.25961 0.18465 0.41628 0.0
C18 C 0.24661 0.19555 0.42637 0.0
C19 C 0.26571 0.19087 0.39628 0.0
C20 C 0.25864 0.20727 0.38646 0.0
C21 C 0.24521 0.21777 0.39639 0.0
C22 C 0.23941 0.21186 0.41651 0.0
C23 C 0.23172 0.05958 0.38828 0.0
H24 H 0.28408 0.18094 0.52481 0.0
H25 H 0.26709 0.17252 0.48893 0.0
H26 H 0.32072 0.14813 0.47283 0.0
H27 H 0.33738 0.15605 0.50872 0.0
H28 H 0.27999 0.19001 0.4554 0.0
H29 H 0.28013 0.1156 0.45234 0.0
H30 H 0.25354 0.13795 0.39928 0.0
H31 H 0.22507 0.09161 0.39677 0.0
H32 H 0.29334 0.09743 0.42539 0.0
H33 H 0.28192 0.0543 0.4074 0.0
H34 H 0.24147 0.19098 0.44172 0.0
H35 H 0.27593 0.18299 0.38816 0.0
H36 H 0.21459 0.04951 0.37779 0.0
H37 H 0.22936 0.2199 0.42466 0.0
H38 H 0.26326 0.21129 0.37093 0.0
C39 C 0.87711 0.17497 0.51895 0.0
C40 C 0.87221 0.15547 0.53254 0.0
C41 C 0.88018 0.17025 0.49845 0.0
C42 C 0.87777 0.1457 0.49112 0.0
C43 C 0.87299 0.12627 0.50473 0.0
C44 C 0.87053 0.13123 0.5253 0.0
C45 C 0.87913 0.13986 0.46912 0.0
C46 C 0.90109 0.15612 0.45961 0.0
C47 C 0.90248 0.15053 0.4387 0.0
C48 C 0.88094 0.12887 0.42734 0.0
C49 C 0.85913 0.11207 0.43679 0.0
C50 C 0.85845 0.11763 0.45772 0.0
C51 C 0.83773 0.08778 0.425 0.0
C52 C 0.82743 0.08922 0.40578 0.0
C53 C 0.82825 0.06267 0.43259 0.0
C54 C 0.80942 0.03941 0.42098 0.0
C55 C 0.79936 0.04076 0.40165 0.0
C56 C 0.92667 0.16619 0.42894 0.0
C57 C 0.94372 0.19349 0.43532 0.0
C58 C 0.93325 0.15365 0.41339 0.0
C59 C 0.9559 0.1679 0.40438 0.0
C60 C 0.9732 0.19503 0.41099 0.0
C61 C 0.96674 0.20761 0.42662 0.0
C62 C 0.80822 0.06593 0.39429 0.0
H63 H 0.87849 0.19381 0.52419 0.0
H64 H 0.88374 0.18546 0.48819 0.0
H65 H 0.87108 0.1072 0.4994 0.0
H66 H 0.8666 0.11583 0.53546 0.0
H67 H 0.91735 0.17242 0.46883 0.0
H68 H 0.84163 0.10485 0.4651 0.0
H69 H 0.88124 0.12448 0.41117 0.0
H70 H 0.83433 0.10835 0.39962 0.0
H71 H 0.83596 0.06094 0.44728 0.0
H72 H 0.8028 0.02026 0.42706 0.0
H73 H 0.93937 0.20411 0.44703 0.0
H74 H 0.92114 0.13257 0.40824 0.0
H75 H 0.80081 0.06747 0.37941 0.0
H76 H 0.97956 0.22834 0.43243 0.0
H77 H 0.95968 0.15745 0.39212 0.0
C78 C 0.89133 0.72275 0.52879 0.0
C79 C 0.86629 0.70334 0.53183 0.0
C80 C 0.89692 0.73403 0.51016 0.0
C81 C 0.87759 0.72626 0.49417 0.0
C82 C 0.85271 0.7064 0.49704 0.0
C83 C 0.84715 0.69504 0.51557 0.0
C84 C 0.88303 0.73941 0.47483 0.0
C85 C 0.90468 0.74424 0.465 0.0
C86 C 0.90955 0.75647 0.44662 0.0
C87 C 0.89301 0.76464 0.43855 0.0
C88 C 0.87148 0.76012 0.44815 0.0
C89 C 0.86643 0.74726 0.46615 0.0
C90 C 0.85434 0.76886 0.4391 0.0
C91 C 0.8644 0.79498 0.43334 0.0
C92 C 0.82811 0.75085 0.43518 0.0
C93 C 0.81237 0.75856 0.42502 0.0
C94 C 0.82251 0.78456 0.41879 0.0
C95 C 0.93165 0.76073 0.43549 0.0
C96 C 0.95601 0.77144 0.44584 0.0
C97 C 0.92864 0.75541 0.41407 0.0
C98 C 0.94958 0.76168 0.40318 0.0
C99 C 0.97411 0.77339 0.41339 0.0
C100 C 0.97704 0.77773 0.43489 0.0
C101 C 0.84867 0.8028 0.42346 0.0
H102 H 0.90652 0.72982 0.54101 0.0
H103 H 0.91624 0.74944 0.50849 0.0
H104 H 0.83747 0.69959 0.4849 0.0
H105 H 0.82778 0.6797 0.51715 0.0
H106 H 0.91726 0.73774 0.47129 0.0
H107 H 0.84993 0.74407 0.4737 0.0
H108 H 0.89683 0.77449 0.42459 0.0
H109 H 0.88453 0.80935 0.43643 0.0
H110 H 0.81992 0.73052 0.43933 0.0
H111 H 0.79241 0.74384 0.42151 0.0
H112 H 0.95894 0.77588 0.46232 0.0
H113 H 0.91005 0.74663 0.40567 0.0
H114 H 0.8571 0.82318 0.4194 0.0
H115 H 0.99571 0.78686 0.44322 0.0
H116 H 0.94656 0.75748 0.38668 0.0
C117 C 0.15632 0.29748 0.49148 0.0
C118 C 0.1417 0.30715 0.48191 0.0
C119 C 0.15087 0.28686 0.51024 0.0
C120 C 0.13156 0.28696 0.52097 0.0
C121 C 0.11767 0.29781 0.51187 0.0
C122 C 0.12225 0.30713 0.49251 0.0
C123 C 0.12566 0.27511 0.5411 0.0
C124 C 0.1439 0.27226 0.5531 0.0
C125 C 0.13773 0.25816 0.57055 0.0
C126 C 0.11362 0.24927 0.57733 0.0
C127 C 0.09564 0.25348 0.56652 0.0
C128 C 0.10148 0.26552 0.54814 0.0
C129 C 0.07078 0.24555 0.57452 0.0
C130 C 0.05723 0.22123 0.58322 0.0
C131 C 0.06086 0.26286 0.57412 0.0
C132 C 0.03816 0.25623 0.58251 0.0
C133 C 0.02483 0.23214 0.59152 0.0
C134 C 0.15587 0.25124 0.58079 0.0
C135 C 0.17101 0.2448 0.56903 0.0
C136 C 0.1573 0.24952 0.60203 0.0
C137 C 0.17278 0.24072 0.6111 0.0
C138 C 0.18745 0.23371 0.59919 0.0
C139 C 0.18673 0.23645 0.57811 0.0
C140 C 0.03452 0.21461 0.59164 0.0
H141 H 0.17222 0.29792 0.48467 0.0
H142 H 0.16184 0.27825 0.51597 0.0
H143 H 0.10308 0.29918 0.51953 0.0
H144 H 0.11017 0.31402 0.48593 0.0
H145 H 0.16312 0.28087 0.54893 0.0
H146 H 0.08671 0.26666 0.53921 0.0
H147 H 0.1087 0.23888 0.59098 0.0
H148 H 0.06414 0.20726 0.58348 0.0
H149 H 0.07101 0.28192 0.5678 0.0
H150 H 0.0314 0.27034 0.58242 0.0
H151 H 0.17025 0.24543 0.55261 0.0
H152 H 0.14629 0.25471 0.61169 0.0
H153 H 0.02448 0.1957 0.59819 0.0
H154 H 0.19816 0.23188 0.56846 0.0
H155 H 0.1727 0.23875 0.62735 0.0
C156 C 0.6975 0.81864 0.50144 0.0
C157 C 0.70274 0.83897 0.4886 0.0
C158 C 0.70804 0.82508 0.52185 0.0
C159 C 0.7243 0.852 0.52976 0.0
C160 C 0.72972 0.87224 0.51672 0.0
C161 C 0.71893 0.86581 0.49646 0.0
C162 C 0.7358 0.85912 0.55143 0.0
C163 C 0.74395 0.84314 0.5609 0.0
C164 C 0.75596 0.85063 0.58096 0.0
C165 C 0.75969 0.87425 0.59166 0.0
C166 C 0.75165 0.8904 0.58253 0.0
C167 C 0.73952 0.88256 0.56254 0.0
C168 C 0.75692 0.91608 0.59355 0.0
C169 C 0.75262 0.91753 0.61424 0.0
C170 C 0.76696 0.93954 0.58351 0.0
C171 C 0.7729 0.96398 0.59398 0.0
C172 C 0.7688 0.9655 0.6147 0.0
C173 C 0.76559 0.83441 0.59051 0.0
C174 C 0.75016 0.80643 0.58987 0.0
C175 C 0.79039 0.84692 0.60034 0.0
C176 C 0.79965 0.83175 0.60921 0.0
C177 C 0.78422 0.80378 0.60863 0.0
C178 C 0.75933 0.79126 0.59897 0.0
C179 C 0.75838 0.94199 0.62468 0.0
H180 H 0.68496 0.79777 0.49578 0.0
H181 H 0.70317 0.80896 0.53146 0.0
H182 H 0.74264 0.89314 0.52203 0.0
H183 H 0.72366 0.88187 0.4868 0.0
H184 H 0.74192 0.82543 0.55241 0.0
H185 H 0.73281 0.89475 0.55569 0.0
H186 H 0.76926 0.88029 0.60703 0.0
H187 H 0.74474 0.89974 0.62233 0.0
H188 H 0.7707 0.9391 0.56763 0.0
H189 H 0.78065 0.98171 0.58582 0.0
H190 H 0.73093 0.79631 0.58248 0.0
H191 H 0.80277 0.86844 0.60091 0.0
H192 H 0.75514 0.94259 0.64068 0.0
H193 H 0.74711 0.7697 0.59817 0.0
H194 H 0.81885 0.84194 0.61665 0.0
C195 C 0.13363 0.83246 0.49753 0.0
C196 C 0.15926 0.84131 0.49497 0.0
C197 C 0.12643 0.83701 0.51643 0.0
C198 C 0.14465 0.85041 0.53335 0.0
C199 C 0.17019 0.85841 0.53101 0.0
C200 C 0.17741 0.85387 0.51202 0.0
C201 C 0.13704 0.85701 0.55301 0.0
C202 C 0.11382 0.83866 0.56004 0.0
C203 C 0.10543 0.84549 0.57765 0.0
C204 C 0.12087 0.87086 0.58854 0.0
C205 C 0.14423 0.88947 0.58189 0.0
C206 C 0.15218 0.88232 0.56412 0.0
C207 C 0.15978 0.91675 0.59302 0.0
C208 C 0.14809 0.93079 0.60047 0.0
C209 C 0.18639 0.9291 0.59607 0.0
C210 C 0.20096 0.95493 0.60621 0.0
C211 C 0.18927 0.96903 0.61354 0.0
C212 C 0.08008 0.82663 0.58422 0.0
C213 C 0.05884 0.81205 0.56971 0.0
C214 C 0.07673 0.8238 0.60508 0.0
C215 C 0.05266 0.80721 0.6113 0.0
C216 C 0.03137 0.79298 0.59681 0.0
C217 C 0.03476 0.79535 0.57594 0.0
C218 C 0.16264 0.95657 0.61063 0.0
H219 H 0.11912 0.8224 0.48476 0.0
H220 H 0.10664 0.8308 0.51758 0.0
H221 H 0.18465 0.86847 0.5438 0.0
H222 H 0.19733 0.86105 0.51053 0.0
H223 H 0.10223 0.81894 0.5518 0.0
H224 H 0.16965 0.89696 0.55842 0.0
H225 H 0.11448 0.87633 0.60207 0.0
H226 H 0.12767 0.92205 0.59816 0.0
H227 H 0.19598 0.91876 0.59068 0.0
H228 H 0.22145 0.96403 0.60795 0.0
H229 H 0.06066 0.81407 0.55355 0.0
H230 H 0.09275 0.83438 0.61663 0.0
H231 H 0.15299 0.96673 0.61624 0.0
H232 H 0.01869 0.78485 0.56443 0.0
H233 H 0.05072 0.80542 0.62748 0.0
C234 C 0.93508 0.49332 0.85468 0.0
C235 C 0.9587 0.49544 0.86024 0.0
C236 C 0.92511 0.48786 0.83417 0.0
C237 C 0.93826 0.48389 0.81878 0.0
C238 C 0.96184 0.48611 0.82417 0.0
C239 C 0.97208 0.4921 0.84462 0.0
C240 C 0.92704 0.47672 0.79719 0.0
C241 C 0.91855 0.4924 0.78782 0.0
C242 C 0.90744 0.48541 0.76747 0.0
C243 C 0.90458 0.46218 0.75667 0.0
C244 C 0.91266 0.44604 0.76589 0.0
C245 C 0.9242 0.45371 0.78611 0.0
C246 C 0.90809 0.42062 0.75472 0.0
C247 C 0.88497 0.40368 0.74273 0.0
C248 C 0.92646 0.41273 0.7563 0.0
C249 C 0.92169 0.38838 0.74633 0.0
C250 C 0.89842 0.37131 0.73455 0.0
C251 C 0.89839 0.50203 0.75755 0.0
C252 C 0.88566 0.5126 0.76846 0.0
C253 C 0.90202 0.50707 0.737 0.0
C254 C 0.89291 0.52205 0.72753 0.0
C255 C 0.87996 0.5324 0.73839 0.0
C256 C 0.87659 0.52761 0.75901 0.0
C257 C 0.88022 0.3794 0.73275 0.0
H258 H 0.9239 0.49522 0.86617 0.0
H259 H 0.90675 0.48599 0.8304 0.0
H260 H 0.97246 0.48339 0.81252 0.0
H261 H 0.99056 0.49418 0.84811 0.0
H262 H 0.92107 0.51033 0.79632 0.0
H263 H 0.93006 0.44121 0.79359 0.0
H264 H 0.89572 0.45645 0.74108 0.0
H265 H 0.87025 0.40892 0.74136 0.0
H266 H 0.94457 0.42541 0.76525 0.0
H267 H 0.93604 0.38268 0.74819 0.0
H268 H 0.88231 0.5089 0.78425 0.0
H269 H 0.91201 0.49951 0.7282 0.0
H270 H 0.86223 0.36693 0.72359 0.0
H271 H 0.86702 0.53558 0.76792 0.0
H272 H 0.89566 0.52514 0.71159 0.0
C273 C 0.52242 0.51467 0.84004 0.0
C274 C 0.51581 0.49565 0.85432 0.0
C275 C 0.52774 0.50924 0.82041 0.0
C276 C 0.52606 0.48455 0.81467 0.0
C277 C 0.51919 0.46554 0.82895 0.0
C278 C 0.51418 0.47104 0.8485 0.0
C279 C 0.53137 0.47817 0.79395 0.0
C280 C 0.5535 0.49632 0.78542 0.0
C281 C 0.55969 0.48888 0.76679 0.0
C282 C 0.54308 0.4634 0.75639 0.0
C283 C 0.52076 0.44523 0.76458 0.0
C284 C 0.51504 0.45284 0.7833 0.0
C285 C 0.50405 0.41776 0.75422 0.0
C286 C 0.49677 0.41351 0.73307 0.0
C287 C 0.49541 0.39549 0.76556 0.0
C288 C 0.47993 0.36955 0.75599 0.0
C289 C 0.47257 0.36523 0.73487 0.0
C290 C 0.58414 0.507 0.75864 0.0
C291 C 0.59181 0.53402 0.75684 0.0
C292 C 0.59985 0.49715 0.75237 0.0
C293 C 0.6226 0.51385 0.74422 0.0
C294 C 0.63001 0.54069 0.74194 0.0
C295 C 0.61443 0.55066 0.7484 0.0
C296 C 0.48102 0.38748 0.7235 0.0
H297 H 0.52391 0.53384 0.84417 0.0
H298 H 0.5329 0.5242 0.80967 0.0
H299 H 0.51799 0.44645 0.82508 0.0
H300 H 0.5089 0.4559 0.85911 0.0
H301 H 0.56655 0.51564 0.79379 0.0
H302 H 0.4978 0.43889 0.78968 0.0
H303 H 0.54785 0.45748 0.74212 0.0
H304 H 0.50307 0.43033 0.72398 0.0
H305 H 0.5009 0.39811 0.78184 0.0
H306 H 0.47352 0.35282 0.76519 0.0
H307 H 0.58004 0.5421 0.76154 0.0
H308 H 0.59454 0.47647 0.75379 0.0
H309 H 0.47574 0.38472 0.70718 0.0
H310 H 0.61976 0.57132 0.74692 0.0
H311 H 0.63412 0.50557 0.73923 0.0
C312 C 0.55081 0.06055 0.85794 0.0
C313 C 0.52644 0.04038 0.86164 0.0
C314 C 0.55567 0.06901 0.83843 0.0
C315 C 0.53616 0.05772 0.82229 0.0
C316 C 0.51179 0.03746 0.82595 0.0
C317 C 0.50703 0.0287 0.84543 0.0
C318 C 0.54127 0.0673 0.80176 0.0
C319 C 0.56257 0.06981 0.79279 0.0
C320 C 0.5681 0.07958 0.77361 0.0
C321 C 0.55174 0.08647 0.76325 0.0
C322 C 0.53048 0.08459 0.77213 0.0
C323 C 0.52541 0.07482 0.79144 0.0
C324 C 0.51421 0.09371 0.76159 0.0
C325 C 0.52476 0.11516 0.74935 0.0
C326 C 0.48807 0.08137 0.7639 0.0
C327 C 0.47307 0.09049 0.75456 0.0
C328 C 0.48358 0.11177 0.74214 0.0
C329 C 0.59155 0.08368 0.7648 0.0
C330 C 0.61453 0.09449 0.77737 0.0
C331 C 0.59139 0.07766 0.74375 0.0
C332 C 0.61377 0.08271 0.73544 0.0
C333 C 0.63675 0.09374 0.74801 0.0
C334 C 0.63685 0.09938 0.76908 0.0
C335 C 0.50963 0.12378 0.73954 0.0
H336 H 0.56611 0.0698 0.87018 0.0
H337 H 0.57457 0.08477 0.83603 0.0
H338 H 0.49649 0.02835 0.81371 0.0
H339 H 0.48803 0.01326 0.84795 0.0
H340 H 0.57474 0.06389 0.80074 0.0
H341 H 0.50969 0.07397 0.79892 0.0
H342 H 0.55591 0.09379 0.74838 0.0
H343 H 0.54486 0.12569 0.74745 0.0
H344 H 0.47902 0.06454 0.77291 0.0
H345 H 0.45325 0.08094 0.75735 0.0
H346 H 0.61544 0.09981 0.79358 0.0
H347 H 0.57394 0.06896 0.73369 0.0
H348 H 0.5185 0.13986 0.72986 0.0
H349 H 0.65435 0.10825 0.77911 0.0
H350 H 0.61309 0.07785 0.71917 0.0
C351 C 0.80356 0.6032 0.81223 0.0
C352 C 0.79745 0.62291 0.80789 0.0
C353 C 0.80006 0.59317 0.83128 0.0
C354 C 0.79046 0.60269 0.84655 0.0
C355 C 0.78346 0.62173 0.84198 0.0
C356 C 0.78687 0.6317 0.8228 0.0
C357 C 0.78843 0.59309 0.86724 0.0
C358 C 0.80779 0.58941 0.87625 0.0
C359 C 0.80574 0.57902 0.89527 0.0
C360 C 0.78404 0.57265 0.9054 0.0
C361 C 0.76479 0.57677 0.89695 0.0
C362 C 0.76712 0.58708 0.87788 0.0
C363 C 0.74226 0.57003 0.90821 0.0
C364 C 0.73024 0.54589 0.91734 0.0
C365 C 0.73343 0.58816 0.91081 0.0
C366 C 0.71345 0.58259 0.92282 0.0
C367 C 0.70184 0.55871 0.93238 0.0
C368 C 0.82578 0.57407 0.90436 0.0
C369 C 0.83826 0.56466 0.89189 0.0
C370 C 0.83191 0.57771 0.92568 0.0
C371 C 0.84924 0.57111 0.93433 0.0
C372 C 0.8613 0.56113 0.9219 0.0
C373 C 0.85592 0.55849 0.90053 0.0
C374 C 0.71025 0.54028 0.92925 0.0
H375 H 0.8113 0.59566 0.8009 0.0
H376 H 0.80502 0.57801 0.83408 0.0
H377 H 0.77611 0.62956 0.85342 0.0
H378 H 0.78212 0.64699 0.8199 0.0
H379 H 0.82471 0.59501 0.86851 0.0
H380 H 0.75195 0.58956 0.87104 0.0
H381 H 0.78199 0.5643 0.91994 0.0
H382 H 0.73635 0.53132 0.91531 0.0
H383 H 0.74249 0.60702 0.9041 0.0
H384 H 0.70756 0.59732 0.92505 0.0
H385 H 0.83394 0.56135 0.87544 0.0
H386 H 0.82314 0.58544 0.93579 0.0
H387 H 0.70135 0.52143 0.93598 0.0
H388 H 0.86517 0.55139 0.8904 0.0
H389 H 0.85259 0.57318 0.95083 0.0
C390 C 0.37045 0.15495 0.83426 0.0
C391 C 0.38226 0.17566 0.82154 0.0
C392 C 0.37856 0.15926 0.85521 0.0
C393 C 0.39831 0.18451 0.86387 0.0
C394 C 0.41013 0.20512 0.8511 0.0
C395 C 0.4023 0.20072 0.8302 0.0
C396 C 0.40635 0.18983 0.88619 0.0
C397 C 0.41221 0.17263 0.89646 0.0
C398 C 0.42164 0.17893 0.91729 0.0
C399 C 0.42407 0.20203 0.92794 0.0
C400 C 0.41825 0.21932 0.91794 0.0
C401 C 0.40948 0.21311 0.89708 0.0
C402 C 0.42303 0.24475 0.92902 0.0
C403 C 0.41483 0.24509 0.94854 0.0
C404 C 0.43691 0.26909 0.92047 0.0
C405 C 0.44299 0.29333 0.93139 0.0
C406 C 0.43509 0.29373 0.951 0.0
C407 C 0.43082 0.16276 0.92767 0.0
C408 C 0.41675 0.13457 0.92532 0.0
C409 C 0.45411 0.1757 0.94002 0.0
C410 C 0.46316 0.1609 0.94975 0.0
C411 C 0.44918 0.13274 0.94743 0.0
C412 C 0.42578 0.1197 0.9352 0.0
C413 C 0.42063 0.26935 0.95937 0.0
H414 H 0.35504 0.1354 0.82798 0.0
H415 H 0.36907 0.14306 0.86472 0.0
H416 H 0.42554 0.22472 0.85731 0.0
H417 H 0.41163 0.21715 0.82085 0.0
H418 H 0.41072 0.15517 0.88798 0.0
H419 H 0.405 0.22645 0.88928 0.0
H420 H 0.4313 0.20706 0.94396 0.0
H421 H 0.40402 0.22658 0.95544 0.0
H422 H 0.44366 0.26946 0.90554 0.0
H423 H 0.45395 0.31182 0.9245 0.0
H424 H 0.39871 0.12404 0.91597 0.0
H425 H 0.4656 0.19738 0.94194 0.0
H426 H 0.41437 0.26912 0.97448 0.0
H427 H 0.41468 0.09801 0.93296 0.0
H428 H 0.48115 0.17156 0.95918 0.0
C429 C 0.79516 0.17364 0.83003 0.0
C430 C 0.82039 0.18179 0.82634 0.0
C431 C 0.78876 0.17489 0.85009 0.0
C432 C 0.80748 0.18425 0.86681 0.0
C433 C 0.83232 0.19088 0.86309 0.0
C434 C 0.83869 0.18972 0.84316 0.0
C435 C 0.80196 0.18916 0.88793 0.0
C436 C 0.77975 0.1705 0.89617 0.0
C437 C 0.77518 0.17549 0.91633 0.0
C438 C 0.79306 0.19961 0.92797 0.0
C439 C 0.81525 0.21847 0.92 0.0
C440 C 0.81938 0.21309 0.89994 0.0
C441 C 0.83413 0.24383 0.93257 0.0
C442 C 0.82614 0.2578 0.94557 0.0
C443 C 0.86035 0.25438 0.93156 0.0
C444 C 0.87808 0.27849 0.94292 0.0
C445 C 0.8701 0.29261 0.95576 0.0
C446 C 0.75183 0.15593 0.92545 0.0
C447 C 0.72808 0.14194 0.91377 0.0
C448 C 0.75295 0.15219 0.94634 0.0
C449 C 0.73089 0.13601 0.95552 0.0
C450 C 0.70699 0.12259 0.94403 0.0
C451 C 0.70598 0.12539 0.92292 0.0
C452 C 0.84389 0.28179 0.95708 0.0
H453 H 0.78064 0.16746 0.81738 0.0
H454 H 0.76947 0.1697 0.85244 0.0
H455 H 0.84707 0.19755 0.87563 0.0
H456 H 0.85816 0.19552 0.84087 0.0
H457 H 0.76644 0.15186 0.88711 0.0
H458 H 0.83602 0.22795 0.89342 0.0
H459 H 0.78971 0.20379 0.94339 0.0
H460 H 0.80612 0.25048 0.94661 0.0
H461 H 0.86725 0.244 0.92197 0.0
H462 H 0.89806 0.28631 0.94128 0.0
H463 H 0.7264 0.14434 0.89767 0.0
H464 H 0.77092 0.16208 0.95579 0.0
H465 H 0.837 0.29188 0.96699 0.0
H466 H 0.68807 0.11497 0.91341 0.0
H467 H 0.73261 0.13469 0.97181 0.0
C468 C 0.60675 0.83183 0.18494 0.0
C469 C 0.62195 0.82162 0.19238 0.0
C470 C 0.59704 0.82642 0.16436 0.0
C471 C 0.6025 0.81088 0.15054 0.0
C472 C 0.61838 0.8014 0.15785 0.0
C473 C 0.62782 0.80653 0.17847 0.0
C474 C 0.59097 0.80375 0.12882 0.0
C475 C 0.58708 0.822 0.11813 0.0
C476 C 0.57542 0.81491 0.09792 0.0
C477 C 0.568 0.78942 0.08827 0.0
C478 C 0.57157 0.77086 0.09864 0.0
C479 C 0.583 0.77818 0.11888 0.0
C480 C 0.56243 0.74346 0.08855 0.0
C481 C 0.54933 0.72084 0.09927 0.0
C482 C 0.56639 0.73968 0.06806 0.0
C483 C 0.55749 0.71388 0.05853 0.0
C484 C 0.54432 0.69126 0.06924 0.0
C485 C 0.56923 0.83322 0.0873 0.0
C486 C 0.55787 0.8459 0.09754 0.0
C487 C 0.57287 0.83664 0.06651 0.0
C488 C 0.56459 0.8517 0.05605 0.0
C489 C 0.55222 0.86336 0.06611 0.0
C490 C 0.54939 0.86072 0.08706 0.0
C491 C 0.54037 0.69506 0.08973 0.0
H492 H 0.60214 0.84392 0.19505 0.0
H493 H 0.58471 0.83388 0.15945 0.0
H494 H 0.62345 0.78979 0.14766 0.0
H495 H 0.63919 0.79802 0.18356 0.0
H496 H 0.59324 0.84184 0.12543 0.0
H497 H 0.58538 0.7637 0.12698 0.0
H498 H 0.55831 0.78353 0.07295 0.0
H499 H 0.54568 0.72302 0.11499 0.0
H500 H 0.57655 0.75671 0.05943 0.0
H501 H 0.56067 0.71163 0.04268 0.0
H502 H 0.55459 0.8435 0.11349 0.0
H503 H 0.58176 0.82728 0.05825 0.0
H504 H 0.53055 0.6781 0.09849 0.0
H505 H 0.54019 0.86975 0.09527 0.0
H506 H 0.56698 0.85336 0.03991 0.0
C507 C 0.2096 0.84336 0.1824 0.0
C508 C 0.19737 0.82354 0.19566 0.0
C509 C 0.21277 0.83639 0.1625 0.0
C510 C 0.20418 0.80946 0.15552 0.0
C511 C 0.19202 0.78969 0.16896 0.0
C512 C 0.18846 0.79664 0.18871 0.0
C513 C 0.20828 0.80203 0.13451 0.0
C514 C 0.23054 0.81916 0.12561 0.0
C515 C 0.23487 0.81203 0.10607 0.0
C516 C 0.21677 0.78733 0.09543 0.0
C517 C 0.19453 0.7698 0.10405 0.0
C518 C 0.1903 0.77746 0.12346 0.0
C519 C 0.17639 0.74297 0.09316 0.0
C520 C 0.16989 0.73984 0.07193 0.0
C521 C 0.16634 0.72007 0.10386 0.0
C522 C 0.15062 0.6946 0.09353 0.0
C523 C 0.14453 0.69139 0.07225 0.0
C524 C 0.25861 0.83008 0.09695 0.0
C525 C 0.26797 0.85785 0.09812 0.0
C526 C 0.27202 0.81964 0.08692 0.0
C527 C 0.29421 0.83653 0.07818 0.0
C528 C 0.30353 0.86429 0.07924 0.0
C529 C 0.29017 0.87476 0.08934 0.0
C530 C 0.15407 0.71432 0.06159 0.0
H531 H 0.21644 0.86424 0.18736 0.0
H532 H 0.22178 0.85215 0.15256 0.0
H533 H 0.18563 0.76883 0.16441 0.0
H534 H 0.17923 0.78101 0.19874 0.0
H535 H 0.24501 0.8377 0.13414 0.0
H536 H 0.17279 0.76427 0.12984 0.0
H537 H 0.22018 0.78156 0.08049 0.0
H538 H 0.17715 0.75712 0.06328 0.0
H539 H 0.17115 0.72175 0.12018 0.0
H540 H 0.14327 0.67737 0.10224 0.0
H541 H 0.2579 0.86645 0.10554 0.0
H542 H 0.26554 0.7984 0.08606 0.0
H543 H 0.14979 0.7125 0.04518 0.0
H544 H 0.29665 0.896 0.09021 0.0
H545 H 0.30429 0.82788 0.07085 0.0
C546 C 0.22666 0.38557 0.19097 0.0
C547 C 0.20185 0.37142 0.19698 0.0
C548 C 0.23088 0.39437 0.17144 0.0
C549 C 0.2104 0.38887 0.1572 0.0
C550 C 0.18557 0.37387 0.16297 0.0
C551 C 0.18138 0.36557 0.18259 0.0
C552 C 0.21478 0.39936 0.13668 0.0
C553 C 0.23525 0.40176 0.12616 0.0
C554 C 0.23934 0.41187 0.10694 0.0
C555 C 0.22271 0.41951 0.09822 0.0
C556 C 0.20224 0.41727 0.10836 0.0
C557 C 0.1985 0.40738 0.12759 0.0
C558 C 0.1847 0.42515 0.09867 0.0
C559 C 0.19431 0.44889 0.08902 0.0
C560 C 0.15824 0.4085 0.09832 0.0
C561 C 0.14175 0.41512 0.08806 0.0
C562 C 0.15137 0.43858 0.078 0.0
C563 C 0.26118 0.4151 0.09589 0.0
C564 C 0.28568 0.42671 0.10618 0.0
C565 C 0.25794 0.40829 0.07463 0.0
C566 C 0.27881 0.41397 0.06378 0.0
C567 C 0.30346 0.42656 0.0739 0.0
C568 C 0.3066 0.4324 0.09529 0.0
C569 C 0.17785 0.45555 0.07884 0.0
H570 H 0.24295 0.39008 0.20139 0.0
H571 H 0.2503 0.40602 0.16774 0.0
H572 H 0.16921 0.36862 0.15237 0.0
H573 H 0.162 0.35511 0.18655 0.0
H574 H 0.24771 0.39525 0.13266 0.0
H575 H 0.18319 0.40661 0.13566 0.0
H576 H 0.22575 0.42734 0.08344 0.0
H577 H 0.21461 0.46235 0.08934 0.0
H578 H 0.15028 0.38995 0.10546 0.0
H579 H 0.12146 0.40146 0.08753 0.0
H580 H 0.28882 0.43241 0.12252 0.0
H581 H 0.23925 0.39885 0.06631 0.0
H582 H 0.18591 0.47406 0.07164 0.0
H583 H 0.32536 0.4423 0.10354 0.0
H584 H 0.27566 0.40868 0.04738 0.0
C585 C 0.48921 0.96885 0.16125 0.0
C586 C 0.48571 0.99004 0.15593 0.0
C587 C 0.48497 0.96013 0.18073 0.0
C588 C 0.47695 0.97225 0.19537 0.0
C589 C 0.47329 0.99337 0.19008 0.0
C590 C 0.47784 0.00234 0.17058 0.0
C591 C 0.47258 0.96273 0.21606 0.0
C592 C 0.4904 0.95798 0.22657 0.0
C593 C 0.48603 0.94747 0.2456 0.0
C594 C 0.46348 0.94183 0.25415 0.0
C595 C 0.44534 0.94639 0.24389 0.0
C596 C 0.45021 0.95715 0.22491 0.0
C597 C 0.42089 0.93886 0.25264 0.0
C598 C 0.40786 0.91471 0.26168 0.0
C599 C 0.4103 0.95554 0.25193 0.0
C600 C 0.3873 0.9483 0.26015 0.0
C601 C 0.37432 0.92418 0.26925 0.0
C602 C 0.50462 0.9415 0.25614 0.0
C603 C 0.51617 0.92978 0.24492 0.0
C604 C 0.51069 0.94707 0.27746 0.0
C605 C 0.52773 0.94084 0.28732 0.0
C606 C 0.53907 0.92885 0.2761 0.0
C607 C 0.53319 0.92358 0.25476 0.0
C608 C 0.38489 0.90748 0.26987 0.0
H609 H 0.49549 0.95913 0.15036 0.0
H610 H 0.48773 0.94365 0.18427 0.0
H611 H 0.46722 0.00315 0.20111 0.0
H612 H 0.47488 0.01863 0.16687 0.0
H613 H 0.50786 0.96271 0.21994 0.0
H614 H 0.4361 0.96006 0.21659 0.0
H615 H 0.45985 0.93347 0.26872 0.0
H616 H 0.41518 0.9011 0.26212 0.0
H617 H 0.41997 0.97441 0.24528 0.0
H618 H 0.37985 0.9618 0.25962 0.0
H619 H 0.51174 0.92494 0.22852 0.0
H620 H 0.50233 0.95633 0.28654 0.0
H621 H 0.37519 0.88852 0.27639 0.0
H622 H 0.5418 0.91468 0.24559 0.0
H623 H 0.53166 0.94497 0.30379 0.0
C624 C 0.03869 0.49887 0.16933 0.0
C625 C 0.05172 0.5178 0.15559 0.0
C626 C 0.0476 0.50406 0.19014 0.0
C627 C 0.0695 0.52844 0.19762 0.0
C628 C 0.08232 0.54741 0.18387 0.0
C629 C 0.07359 0.54213 0.16313 0.0
C630 C 0.07929 0.53419 0.21962 0.0
C631 C 0.08168 0.51493 0.23005 0.0
C632 C 0.09266 0.52102 0.25044 0.0
C633 C 0.1007 0.54654 0.26047 0.0
C634 C 0.09844 0.56604 0.25032 0.0
C635 C 0.08759 0.55961 0.22993 0.0
C636 C 0.10847 0.59349 0.26074 0.0
C637 C 0.105 0.59729 0.28137 0.0
C638 C 0.12221 0.61617 0.25022 0.0
C639 C 0.13231 0.64198 0.26009 0.0
C640 C 0.12899 0.64582 0.28075 0.0
C641 C 0.09717 0.50144 0.26091 0.0
C642 C 0.07887 0.47394 0.25874 0.0
C643 C 0.12018 0.51019 0.27297 0.0
C644 C 0.12484 0.49197 0.28255 0.0
C645 C 0.1067 0.46444 0.28023 0.0
C646 C 0.08357 0.45564 0.26832 0.0
C647 C 0.11512 0.62314 0.29126 0.0
H648 H 0.02185 0.47989 0.16394 0.0
H649 H 0.03726 0.48911 0.2004 0.0
H650 H 0.09939 0.56626 0.18911 0.0
H651 H 0.0839 0.55724 0.15297 0.0
H652 H 0.07614 0.49565 0.22196 0.0
H653 H 0.08548 0.5744 0.22204 0.0
H654 H 0.10928 0.55145 0.27612 0.0
H655 H 0.09434 0.58025 0.28988 0.0
H656 H 0.12553 0.614 0.23441 0.0
H657 H 0.14258 0.65897 0.25145 0.0
H658 H 0.06088 0.46656 0.24968 0.0
H659 H 0.13487 0.53114 0.27477 0.0
H660 H 0.11236 0.62536 0.30722 0.0
H661 H 0.06927 0.43455 0.26609 0.0
H662 H 0.14273 0.4995 0.29181 0.0
C663 C 0.46851 0.51196 0.15779 0.0
C664 C 0.49442 0.52144 0.15598 0.0
C665 C 0.46034 0.51553 0.17657 0.0
C666 C 0.47791 0.5286 0.19393 0.0
C667 C 0.50365 0.53705 0.19225 0.0
C668 C 0.51181 0.53357 0.1735 0.0
C669 C 0.46976 0.53478 0.21343 0.0
C670 C 0.44692 0.51595 0.22071 0.0
C671 C 0.4391 0.52216 0.23897 0.0
C672 C 0.45442 0.54761 0.24986 0.0
C673 C 0.47732 0.56659 0.24285 0.0
C674 C 0.48476 0.56001 0.22462 0.0
C675 C 0.49351 0.59345 0.25438 0.0
C676 C 0.48275 0.6083 0.26211 0.0
C677 C 0.52 0.60467 0.25731 0.0
C678 C 0.53543 0.63029 0.2675 0.0
C679 C 0.52475 0.64535 0.27496 0.0
C680 C 0.415 0.50216 0.24674 0.0
C681 C 0.3929 0.48624 0.2333 0.0
C682 C 0.4138 0.49921 0.26777 0.0
C683 C 0.39099 0.48123 0.27524 0.0
C684 C 0.36881 0.46566 0.26186 0.0
C685 C 0.37007 0.46815 0.24078 0.0
C686 C 0.49822 0.63403 0.27223 0.0
H687 H 0.45469 0.50274 0.14452 0.0
H688 H 0.44042 0.50899 0.1773 0.0
H689 H 0.5176 0.54667 0.20542 0.0
H690 H 0.53183 0.54064 0.17266 0.0
H691 H 0.43552 0.49625 0.2124 0.0
H692 H 0.502 0.57494 0.21882 0.0
H693 H 0.44852 0.55271 0.26386 0.0
H694 H 0.46241 0.60027 0.25996 0.0
H695 H 0.52884 0.59362 0.25171 0.0
H696 H 0.55582 0.63853 0.26916 0.0
H697 H 0.39309 0.48821 0.21704 0.0
H698 H 0.43056 0.51074 0.27851 0.0
H699 H 0.48941 0.64505 0.27794 0.0
H700 H 0.35325 0.45662 0.2301 0.0
H701 H 0.39075 0.47942 0.29152 0.0
Tb702 Tb 0.5261 0.01606 1.00224 0.0
C703 C 0.51332 0.95623 0.00735 0.0
Tb704 Tb 0.47004 0.97067 0.00365 0.0
O705 O 0.52735 0.03232 0.03382 0.0
O706 O 0.50339 0.99194 0.02378 0.0
O707 O 0.52893 0.97939 1.00011 0.0
C708 C 0.42475 0.94098 0.01725 0.0
O709 O 0.49035 0.95023 0.01225 0.0
C710 C 0.48671 0.97737 0.96731 0.0
C711 C 0.48274 0.03102 0.9988 0.0
O712 O 0.43244 0.93439 1.00103 0.0
O713 O 0.44245 0.96432 0.02563 0.0
O714 O 0.46798 0.95479 0.97185 0.0
O715 O 0.49257 0.99469 0.98214 0.0
O716 O 0.46566 0.00606 1.00216 0.0
O717 O 0.50721 0.03914 0.99758 0.0
C718 C 0.57044 0.04665 0.98705 0.0
O719 O 0.54806 0.03744 0.97768 0.0
O720 O 0.56809 0.03879 0.00534 0.0
C721 C 0.50882 0.00948 0.03837 0.0
Tb722 Tb 0.98153 0.50788 0.00432 0.0
C723 C 0.03998 0.55047 0.01377 0.0
Tb724 Tb 0.02 0.48869 0.01154 0.0
O725 O 0.96742 0.49627 0.03433 0.0
O726 O 0.00456 0.50755 0.02919 0.0
O727 O 0.01817 0.54484 0.00356 0.0
C728 C 0.04693 0.46948 0.0296 0.0
O729 O 0.04341 0.53145 0.02105 0.0
C730 C 0.01436 0.4992 0.97397 0.0
C731 C 0.96088 0.44547 1.00095 0.0
O732 O 0.05247 0.48228 0.01338 0.0
O733 O 0.026 0.46712 0.03545 0.0
O734 O 0.03421 0.49862 0.98152 0.0
O735 O 0.99778 0.48996 0.98642 0.0
O736 O 0.98407 0.45016 0.00699 0.0
O737 O 0.95582 0.46493 0.99807 0.0
C738 C 0.95357 0.52683 0.9876 0.0
O739 O 0.9562 0.50756 0.97941 0.0
O740 O 0.96653 0.53542 0.00545 0.0
C741 C 0.98841 0.49797 0.04186 0.0
Tb742 Tb 0.47812 0.48849 0.00935 0.0
C743 C 0.49522 0.4452 0.9992 0.0
Tb744 Tb 0.53517 0.50767 0.00527 0.0
O745 O 0.47337 0.49857 0.978 0.0
O746 O 0.50082 0.48906 0.9865 0.0
O747 O 0.4773 0.44989 0.00563 0.0
C748 C 0.5786 0.52907 0.98782 0.0
O749 O 0.51816 0.46489 0.9959 0.0
C750 C 0.52036 0.49673 0.04174 0.0
C751 C 0.51813 0.55082 0.01584 0.0
O752 O 0.57388 0.51498 0.00338 0.0
O753 O 0.5591 0.53142 0.98246 0.0
O754 O 0.54099 0.49787 0.03613 0.0
O755 O 0.51245 0.5063 0.0285 0.0
O756 O 0.53586 0.54602 0.00921 0.0
O757 O 0.49509 0.53126 0.01907 0.0
C758 C 0.4341 0.46709 0.02608 0.0
O759 O 0.4387 0.47977 0.00975 0.0
O760 O 0.45408 0.46628 0.03266 0.0
C761 C 0.4932 0.49779 0.97249 0.0
Tb762 Tb 0.19996 0.35532 0.3346 0.0
C763 C 0.18334 0.29907 0.3495 0.0
Tb764 Tb 0.14328 0.31895 0.3427 0.0
O765 O 0.21226 0.35922 0.36705 0.0
O766 O 0.17632 0.35257 0.35787 0.0
O767 O 0.19987 0.31834 0.33913 0.0
C768 C 0.10101 0.29261 0.36147 0.0
O769 O 0.16169 0.29741 0.35424 0.0
C770 C 0.15205 0.31845 0.30414 0.0
C771 C 0.1595 0.37417 0.3256 0.0
O772 O 0.10911 0.28166 0.34831 0.0
O773 O 0.11666 0.31831 0.36399 0.0
O774 O 0.12962 0.31087 0.30999 0.0
O775 O 0.1669 0.32187 0.31957 0.0
O776 O 0.14237 0.35476 0.33549 0.0
O777 O 0.18173 0.37645 0.32222 0.0
C778 C 0.24426 0.38648 0.31986 0.0
O779 O 0.23457 0.39407 0.33405 0.0
O780 O 0.22909 0.36116 0.31404 0.0
C781 C 0.19055 0.35412 0.37314 0.0
Tb782 Tb 0.65037 0.84897 0.33656 0.0
C783 C 0.70867 0.89161 0.3495 0.0
Tb784 Tb 0.69012 0.82948 0.34559 0.0
O785 O 0.63317 0.83495 0.36499 0.0
O786 O 0.67018 0.84463 0.36218 0.0
O787 O 0.6869 0.88701 0.3397 0.0
C788 C 0.7189 0.81368 0.36539 0.0
O789 O 0.71254 0.87214 0.3552 0.0
C790 C 0.68337 0.83436 0.30616 0.0
C791 C 0.63297 0.78706 0.33053 0.0
O792 O 0.72679 0.83194 0.35266 0.0
O793 O 0.69481 0.80424 0.3668 0.0
O794 O 0.69837 0.82623 0.31335 0.0
O795 O 0.67425 0.83934 0.32127 0.0
O796 O 0.65422 0.79171 0.34106 0.0
O797 O 0.62886 0.80649 0.32516 0.0
C798 C 0.62105 0.86625 0.31942 0.0
O799 O 0.62106 0.84453 0.31354 0.0
O800 O 0.63772 0.87859 0.33518 0.0
C801 C 0.65236 0.83381 0.37338 0.0
Tb802 Tb 0.14596 0.83213 0.34476 0.0
C803 C 0.16201 0.78804 0.33548 0.0
Tb804 Tb 0.20238 0.85016 0.34059 0.0
O805 O 0.13899 0.83929 0.31347 0.0
O806 O 0.16789 0.83144 0.32112 0.0
O807 O 0.14494 0.79356 0.34255 0.0
C808 C 0.24859 0.86961 0.32754 0.0
O809 O 0.18472 0.80719 0.33118 0.0
C810 C 0.18766 0.84332 0.37776 0.0
C811 C 0.18602 0.89439 0.34804 0.0
O812 O 0.2409 0.85607 0.34325 0.0
O813 O 0.23033 0.87236 0.31932 0.0
O814 O 0.20672 0.84106 0.37237 0.0
O815 O 0.18039 0.85173 0.36335 0.0
O816 O 0.20351 0.88891 0.34179 0.0
O817 O 0.16328 0.87532 0.35234 0.0
C818 C 0.10275 0.81186 0.3627 0.0
O819 O 0.10748 0.82559 0.34693 0.0
O820 O 0.12212 0.80929 0.36803 0.0
C821 C 0.15903 0.83955 0.3073 0.0
Tb822 Tb 0.85958 0.68665 0.66598 0.0
C823 C 0.84737 0.63101 0.68057 0.0
Tb824 Tb 0.80488 0.64798 0.6762 0.0
O825 O 0.87407 0.69243 0.69801 0.0
O826 O 0.8369 0.68339 0.6903 0.0
O827 O 0.86326 0.65183 0.67107 0.0
C828 C 0.76371 0.61847 0.69559 0.0
O829 O 0.82445 0.62638 0.68461 0.0
C830 C 0.81189 0.64659 0.63709 0.0
C831 C 0.81768 0.70323 0.66197 0.0
O832 O 0.78644 0.62311 0.70084 0.0
O833 O 0.7641 0.63008 0.67926 0.0
O834 O 0.78988 0.63861 0.64382 0.0
O835 O 0.82752 0.65104 0.65215 0.0
O836 O 0.80485 0.68552 0.67492 0.0
O837 O 0.83802 0.70473 0.65442 0.0
C838 C 0.90195 0.71917 0.64934 0.0
O839 O 0.89353 0.72591 0.66497 0.0
O840 O 0.88646 0.69411 0.64303 0.0
C841 C 0.85248 0.68612 0.70496 0.0
Tb842 Tb 0.30809 0.17462 0.67346 0.0
C843 C 0.36553 0.22092 0.68288 0.0
Tb844 Tb 0.35045 0.16069 0.67695 0.0
O845 O 0.29554 0.1589 0.70284 0.0
O846 O 0.33344 0.17527 0.69708 0.0
O847 O 0.34285 0.21392 0.67363 0.0
C848 C 0.37986 0.14201 0.69096 0.0
O849 O 0.37101 0.20273 0.68886 0.0
C850 C 0.33968 0.16993 0.64003 0.0
C851 C 0.29227 0.11368 0.66793 0.0
O852 O 0.38718 0.16231 0.68024 0.0
O853 O 0.35608 0.13221 0.69367 0.0
O854 O 0.36143 0.17236 0.64615 0.0
O855 O 0.32496 0.15948 0.65354 0.0
O856 O 0.3162 0.12072 0.6738 0.0
O857 O 0.28496 0.13152 0.66525 0.0
C858 C 0.27721 0.1921 0.66036 0.0
O859 O 0.28711 0.19579 0.67909 0.0
O860 O 0.28467 0.17862 0.64921 0.0
C861 C 0.31773 0.16281 0.70956 0.0
Tb862 Tb 0.80673 0.15741 0.6766 0.0
C863 C 0.82351 0.11697 0.66162 0.0
Tb864 Tb 0.86391 0.17946 0.67309 0.0
O865 O 0.79748 0.14813 0.64341 0.0
O866 O 0.83343 0.17871 0.6558 0.0
O867 O 0.80556 0.11954 0.6702 0.0
C868 C 0.90828 0.19398 0.65828 0.0
O869 O 0.84641 0.13773 0.6598 0.0
C870 C 0.84978 0.17148 0.7101 0.0
C871 C 0.84692 0.2197 0.68858 0.0
O872 O 0.89989 0.17956 0.67348 0.0
O873 O 0.89195 0.20064 0.65176 0.0
O874 O 0.87258 0.18915 0.70627 0.0
O875 O 0.83722 0.15762 0.69367 0.0
O876 O 0.8649 0.21727 0.67988 0.0
O877 O 0.82412 0.19883 0.69048 0.0
C878 C 0.76159 0.14243 0.6901 0.0
O879 O 0.77043 0.1567 0.67492 0.0
O880 O 0.77811 0.13659 0.6976 0.0
C881 C 0.82051 0.16478 0.6395 0.0
H882 H 0.31798 0.85523 0.04256 0.0
H883 H 0.34231 0.91372 0.09511 0.0
H884 H 0.38149 0.94297 0.08019 0.0
H885 H 0.4094 0.95145 0.05264 0.0
H886 H 0.3857 0.89254 1.00054 0.0
H887 H 0.3458 0.86377 0.01495 0.0
C888 C 0.33194 0.87428 0.05083 0.0
C889 C 0.32719 0.88223 0.06995 0.0
C890 C 0.35454 0.8909 0.04225 0.0
C891 C 0.3453 0.90723 0.08027 0.0
C892 C 0.3678 0.92391 0.07181 0.0
C893 C 0.39541 0.93236 0.04442 0.0
C894 C 0.40037 0.92407 0.02558 0.0
C895 C 0.37266 0.91591 0.05286 0.0
C896 C 0.38223 0.8993 0.01508 0.0
C897 C 0.35946 0.88286 0.02332 0.0
H898 H 0.1065 0.43315 0.08859 0.0
H899 H 0.15705 0.4585 0.04084 0.0
H900 H 0.12908 0.46995 0.0216 0.0
H901 H 0.09043 0.47314 0.01837 0.0
H902 H 0.03948 0.44728 0.06572 0.0
H903 H 0.06718 0.43521 0.08491 0.0
C904 C 0.11127 0.44092 0.07388 0.0
C905 C 0.13395 0.4451 0.06626 0.0
C906 C 0.09497 0.44727 0.06278 0.0
C907 C 0.13996 0.45552 0.04727 0.0
C908 C 0.12389 0.4619 0.03616 0.0
C909 C 0.08536 0.46471 0.03284 0.0
C910 C 0.06298 0.46099 0.04062 0.0
C911 C 0.1014 0.45795 0.04379 0.0
C912 C 0.05659 0.45016 0.05939 0.0
C913 C 0.07245 0.44335 0.07039 0.0
H914 H 0.56891 0.67445 0.04429 0.0
H915 H 0.4984 0.64623 0.07169 0.0
H916 H 0.48353 0.60061 0.05667 0.0
H917 H 0.49119 0.56848 0.03693 0.0
H918 H 0.56189 0.5966 0.00972 0.0
H919 H 0.57577 0.64254 0.02317 0.0
C920 C 0.55015 0.65839 0.04674 0.0
C921 C 0.53487 0.66377 0.05921 0.0
C922 C 0.54172 0.63216 0.03808 0.0
C923 C 0.51073 0.64261 0.06244 0.0
C924 C 0.50214 0.61652 0.05376 0.0
C925 C 0.50953 0.58464 0.03372 0.0
C926 C 0.52547 0.57897 0.02236 0.0
C927 C 0.51758 0.61102 0.04173 0.0
C928 C 0.54922 0.60028 0.01847 0.0
C929 C 0.55722 0.6266 0.02619 0.0
H930 H 0.86567 0.33699 0.96247 0.0
H931 H 0.91731 0.30774 0.97455 0.0
H932 H 0.94948 0.35199 0.99067 0.0
H933 H 0.96375 0.39966 0.99974 0.0
H934 H 0.91131 0.42812 0.98817 0.0
H935 H 0.87853 0.38331 0.97407 0.0
C936 C 0.88373 0.34004 0.96898 0.0
C937 C 0.88902 0.31898 0.96709 0.0
C938 C 0.90209 0.36546 0.97839 0.0
C939 C 0.91281 0.32364 0.97537 0.0
C940 C 0.9312 0.34893 0.98474 0.0
C941 C 0.94507 0.39603 0.99438 0.0
C942 C 0.94021 0.41743 0.99489 0.0
C943 C 0.92619 0.37012 0.98607 0.0
C944 C 0.91579 0.4122 0.98789 0.0
C945 C 0.89696 0.38652 0.97974 0.0
H946 H 0.66239 0.56783 0.92604 0.0
H947 H 0.6949 0.53684 0.96885 0.0
H948 H 0.66013 0.52569 0.99017 0.0
H949 H 0.61974 0.52358 0.99622 0.0
H950 H 0.58757 0.55498 0.95356 0.0
H951 H 0.62316 0.5676 0.93286 0.0
C952 C 0.66207 0.55897 0.94017 0.0
C953 C 0.68115 0.55301 0.94572 0.0
C954 C 0.64209 0.55273 0.95243 0.0
C955 C 0.68022 0.5412 0.96398 0.0
C956 C 0.66043 0.53497 0.97627 0.0
C957 C 0.6207 0.5334 0.98249 0.0
C958 C 0.60116 0.53839 0.97641 0.0
C959 C 0.64114 0.54043 0.97057 0.0
C960 C 0.60249 0.55103 0.95857 0.0
C961 C 0.62278 0.55817 0.94669 0.0
H962 H 0.42398 0.08862 0.96818 0.0
H963 H 0.49768 0.14208 0.94883 0.0
H964 H 0.51504 0.11683 0.96466 0.0
H965 H 0.50897 0.07851 0.98251 0.0
H966 H 0.43515 0.0241 1.00133 0.0
H967 H 0.4183 0.0509 0.98736 0.0
C968 C 0.44381 0.09465 0.96738 0.0
C969 C 0.45948 0.1172 0.95731 0.0
C970 C 0.45371 0.07996 0.9765 0.0
C971 C 0.48524 0.12499 0.95665 0.0
C972 C 0.49518 0.1105 0.96565 0.0
C973 C 0.48927 0.07265 0.98388 0.0
C974 C 0.4734 0.04923 0.99299 0.0
C975 C 0.47957 0.08788 0.97551 0.0
C976 C 0.44786 0.04198 0.99441 0.0
C977 C 0.43815 0.05725 0.98633 0.0
H978 H 0.66016 0.11704 0.93517 0.0
H979 H 0.70023 0.09187 0.9761 0.0
H980 H 0.66236 0.06795 0.99398 0.0
H981 H 0.6173 0.05344 0.99783 0.0
H982 H 0.57659 0.07531 0.95478 0.0
H983 H 0.61505 0.10083 0.9378 0.0
C984 C 0.66062 0.10599 0.94776 0.0
C985 C 0.6833 0.10657 0.95423 0.0
C986 C 0.63855 0.09166 0.95771 0.0
C987 C 0.68336 0.0924 0.97092 0.0
C988 C 0.66159 0.0785 0.98113 0.0
C989 C 0.617 0.06399 0.98483 0.0
C990 C 0.59429 0.06277 0.97769 0.0
C991 C 0.63908 0.07805 0.97472 0.0
C992 C 0.59394 0.07609 0.96061 0.0
C993 C 0.6159 0.09064 0.95086 0.0
H994 H 0.89462 0.58368 0.95654 0.0
H995 H 0.86667 0.51864 0.90837 0.0
H996 H 0.89368 0.50341 0.92391 0.0
H997 H 0.92384 0.50718 0.95187 0.0
H998 H 0.94967 0.56996 1.00137 0.0
H999 H 0.92437 0.58704 0.98487 0.0
C1000 C 0.89417 0.56599 0.94951 0.0
C1001 C 0.87855 0.55246 0.9312 0.0
C1002 C 0.90919 0.55675 0.95888 0.0
C1003 C 0.87877 0.52989 0.92219 0.0
C1004 C 0.89404 0.52092 0.93119 0.0
C1005 C 0.9239 0.52459 0.95904 0.0
C1006 C 0.93845 0.53728 0.97781 0.0
C1007 C 0.90913 0.53404 0.94961 0.0
C1008 C 0.93847 0.55983 0.98694 0.0
C1009 C 0.92406 0.5696 0.9775 0.0
H1010 H 0.48205 0.33757 0.95746 0.0
H1011 H 0.40471 0.30781 0.97103 0.0
H1012 H 0.41673 0.35165 0.98864 0.0
H1013 H 0.44889 0.39927 0.9982 0.0
H1014 H 0.5263 0.42832 0.98448 0.0
H1015 H 0.51459 0.38394 0.96908 0.0
C1016 C 0.46785 0.34073 0.96429 0.0
C1017 C 0.4425 0.31967 0.96276 0.0
C1018 C 0.47491 0.36586 0.97436 0.0
C1019 C 0.42435 0.32378 0.97202 0.0
C1020 C 0.43121 0.34884 0.98202 0.0
C1021 C 0.46327 0.39585 0.99207 0.0
C1022 C 0.4884 0.41731 0.99235 0.0
C1023 C 0.4564 0.37016 0.98304 0.0
C1024 C 0.50677 0.41235 0.98439 0.0
C1025 C 0.5001 0.38693 0.9755 0.0
H1026 H 0.10553 0.67447 0.04215 0.0
H1027 H 0.14806 0.64701 0.07769 0.0
H1028 H 0.12073 0.60148 0.06142 0.0
H1029 H 0.08353 0.56912 0.03869 0.0
H1030 H 0.04007 0.59581 0.00342 0.0
H1031 H 0.06941 0.6421 0.01762 0.0
C1032 C 0.109 0.65858 0.04612 0.0
C1033 C 0.12864 0.6641 0.0613 0.0
C1034 C 0.09311 0.63233 0.03673 0.0
C1035 C 0.13277 0.64322 0.06637 0.0
C1036 C 0.11726 0.6172 0.05698 0.0
C1037 C 0.08056 0.58503 0.03385 0.0
C1038 C 0.05949 0.57888 0.02006 0.0
C1039 C 0.09716 0.61146 0.04237 0.0
C1040 C 0.05607 0.59989 0.01404 0.0
C1041 C 0.0728 0.62638 0.02223 0.0
H1042 H 0.34513 0.42199 0.08337 0.0
H1043 H 0.3121 0.44924 0.03779 0.0
H1044 H 0.34903 0.46324 0.01852 0.0
H1045 H 0.39145 0.46902 0.01505 0.0
H1046 H 0.42468 0.44243 0.06095 0.0
H1047 H 0.38714 0.42713 0.07968 0.0
C1048 C 0.34607 0.43111 0.06928 0.0
C1049 C 0.32583 0.4345 0.06206 0.0
C1050 C 0.36746 0.4393 0.05831 0.0
C1051 C 0.32723 0.44603 0.04359 0.0
C1052 C 0.34843 0.45422 0.0326 0.0
C1053 C 0.39035 0.45973 0.02909 0.0
C1054 C 0.41073 0.45682 0.03661 0.0
C1055 C 0.36872 0.45106 0.03985 0.0
C1056 C 0.40916 0.44483 0.05483 0.0
C1057 C 0.38773 0.43612 0.06558 0.0
H1058 H 0.57408 0.90103 0.03908 0.0
H1059 H 0.50475 0.85575 0.06742 0.0
H1060 H 0.48592 0.87866 0.05008 0.0
H1061 H 0.48975 0.91293 0.02858 0.0
H1062 H 0.55938 0.96034 1.00111 0.0
H1063 H 0.57726 0.93479 0.01601 0.0
C1064 C 0.55479 0.89608 0.04128 0.0
C1065 C 0.54093 0.87693 0.05471 0.0
C1066 C 0.5441 0.9096 0.03137 0.0
C1067 C 0.51597 0.87075 0.05747 0.0
C1068 C 0.50513 0.88372 0.04746 0.0
C1069 C 0.50875 0.91758 0.02556 0.0
C1070 C 0.52318 0.93864 0.01373 0.0
C1071 C 0.51912 0.9034 0.03461 0.0
C1072 C 0.5478 0.94426 0.01013 0.0
C1073 C 0.55809 0.92973 0.01875 0.0
H1074 H 1.00001 0.24851 0.40486 0.0
H1075 H 0.00259 0.17526 0.39616 0.0
H1076 H 0.04128 0.19851 0.37934 0.0
H1077 H 0.07476 0.23971 0.36697 0.0
H1078 H 0.07483 0.3138 0.37898 0.0
H1079 H 0.03519 0.2903 0.39506 0.0
C1080 C 0.00913 0.23759 0.39966 0.0
C1081 C 0.99781 0.20988 0.40162 0.0
C1082 C 0.03204 0.2513 0.39058 0.0
C1083 C 0.01012 0.19631 0.3944 0.0
C1084 C 0.03252 0.20967 0.38491 0.0
C1085 C 0.06604 0.25064 0.37313 0.0
C1086 C 0.07748 0.27834 0.37165 0.0
C1087 C 0.04359 0.23712 0.38281 0.0
C1088 C 0.06628 0.29242 0.37992 0.0
C1089 C 0.04361 0.27899 0.38909 0.0
H1090 H 0.77312 0.77043 0.42337 0.0
H1091 H 0.8349 0.81636 0.38724 0.0
H1092 H 0.80866 0.82989 0.36803 0.0
H1093 H 0.76799 0.82847 0.36109 0.0
H1094 H 0.70541 0.78047 0.39564 0.0
H1095 H 0.73196 0.76763 0.41558 0.0
C1096 C 0.78081 0.78315 0.41115 0.0
C1097 C 0.80613 0.79248 0.40697 0.0
C1098 C 0.76541 0.79046 0.39979 0.0
C1099 C 0.81573 0.80929 0.3912 0.0
C1100 C 0.80065 0.81689 0.38003 0.0
C1101 C 0.7602 0.81518 0.37297 0.0
C1102 C 0.73487 0.80551 0.37699 0.0
C1103 C 0.77548 0.80762 0.38419 0.0
C1104 C 0.72492 0.78821 0.39234 0.0
C1105 C 0.74008 0.78087 0.40373 0.0
H1106 H 0.19971 0.00462 0.38384 0.0
H1107 H 0.27805 0.03144 0.37475 0.0
H1108 H 0.26589 0.98666 0.3594 0.0
H1109 H 0.2332 0.93926 0.35003 0.0
H1110 H 0.15488 0.91323 0.35881 0.0
H1111 H 0.16687 0.95855 0.37219 0.0
C1112 C 0.21414 1.00092 0.37816 0.0
C1113 C 0.2398 0.02148 0.38059 0.0
C1114 C 0.20702 0.97521 0.3692 0.0
C1115 C 0.2582 0.01596 0.37344 0.0
C1116 C 0.25124 0.99036 0.36451 0.0
C1117 C 0.21869 0.94355 0.35459 0.0
C1118 C 0.19318 0.92271 0.35352 0.0
C1119 C 0.22573 0.96973 0.36253 0.0
C1120 C 0.17469 0.92874 0.35956 0.0
C1121 C 0.18151 0.95469 0.36728 0.0
H1122 H 0.56546 0.66293 0.30318 0.0
H1123 H 0.52143 0.68997 0.26925 0.0
H1124 H 0.55018 0.73598 0.2843 0.0
H1125 H 0.58903 0.76882 0.30572 0.0
H1126 H 0.63341 0.74163 0.33918 0.0
H1127 H 0.60339 0.69549 0.32558 0.0
C1128 C 0.56219 0.67891 0.29905 0.0
C1129 C 0.5414 0.67302 0.28504 0.0
C1130 C 0.57891 0.70533 0.30761 0.0
C1131 C 0.53716 0.69389 0.28013 0.0
C1132 C 0.55369 0.72024 0.28863 0.0
C1133 C 0.59207 0.75282 0.3102 0.0
C1134 C 0.61359 0.75884 0.32342 0.0
C1135 C 0.57478 0.72624 0.30223 0.0
C1136 C 0.61713 0.73773 0.329 0.0
C1137 C 0.59996 0.71127 0.3212 0.0
H1138 H 0.3586 0.90143 0.30468 0.0
H1139 H 0.33464 0.92908 0.25318 0.0
H1140 H 0.29401 0.91539 0.26694 0.0
H1141 H 0.26479 0.89458 0.29325 0.0
H1142 H 0.2884 0.866 0.34428 0.0
H1143 H 0.32952 0.88078 0.33097 0.0
C1144 C 0.34443 0.9043 0.29638 0.0
C1145 C 0.34973 0.91627 0.27789 0.0
C1146 C 0.321 0.89618 0.30429 0.0
C1147 C 0.33126 0.92024 0.26755 0.0
C1148 C 0.30793 0.91226 0.27535 0.0
C1149 C 0.279 0.89171 0.30148 0.0
C1150 C 0.27364 0.87926 0.31972 0.0
C1151 C 0.30256 0.90013 0.29367 0.0
C1152 C 0.29213 0.87555 0.3302 0.0
C1153 C 0.31563 0.88398 0.3226 0.0
H1154 H 0.15115 0.46422 0.28226 0.0
H1155 H 0.07474 0.42096 0.29975 0.0
H1156 H 0.08428 0.3894 0.31564 0.0
H1157 H 0.11451 0.37414 0.32459 0.0
H1158 H 0.19098 0.41828 0.30702 0.0
H1159 H 0.18128 0.44962 0.29155 0.0
C1160 C 0.13663 0.44809 0.28976 0.0
C1161 C 0.1123 0.44507 0.28987 0.0
C1162 C 0.14228 0.43017 0.29896 0.0
C1163 C 0.09357 0.42364 0.29926 0.0
C1164 C 0.09906 0.40567 0.30847 0.0
C1165 C 0.1291 0.3907 0.31749 0.0
C1166 C 0.15347 0.39376 0.31707 0.0
C1167 C 0.12338 0.40875 0.30842 0.0
C1168 C 0.17206 0.4153 0.30765 0.0
C1169 C 0.16654 0.4333 0.29873 0.0
H1170 H 0.34942 0.47606 0.29501 0.0
H1171 H 0.33322 0.41421 0.24682 0.0
H1172 H 0.29317 0.3841 0.26047 0.0
H1173 H 0.26292 0.37523 0.28647 0.0
H1174 H 0.27933 0.43755 0.33432 0.0
H1175 H 0.31927 0.46748 0.32061 0.0
C1176 C 0.33725 0.4559 0.28761 0.0
C1177 C 0.34438 0.44734 0.27001 0.0
C1178 C 0.31432 0.43875 0.29553 0.0
C1179 C 0.32811 0.42135 0.26032 0.0
C1180 C 0.30527 0.40408 0.26818 0.0
C1181 C 0.27535 0.39534 0.2939 0.0
C1182 C 0.26836 0.40417 0.31144 0.0
C1183 C 0.29821 0.41254 0.28581 0.0
C1184 C 0.28439 0.43032 0.32082 0.0
C1185 C 0.30721 0.44743 0.313 0.0
H1186 H 0.54096 0.88327 0.26818 0.0
H1187 H 0.57633 0.95737 0.30772 0.0
H1188 H 0.60472 0.94463 0.32491 0.0
H1189 H 0.61978 0.9123 0.32851 0.0
H1190 H 0.58458 0.83893 0.28812 0.0
H1191 H 0.55619 0.8517 0.2713 0.0
C1192 C 0.55507 0.89683 0.28039 0.0
C1193 C 0.5565 0.92128 0.28658 0.0
C1194 C 0.57144 0.88949 0.29007 0.0
C1195 C 0.57458 0.93829 0.30276 0.0
C1196 C 0.59094 0.93108 0.31253 0.0
C1197 C 0.60587 0.89919 0.31603 0.0
C1198 C 0.60425 0.87473 0.30957 0.0
C1199 C 0.58955 0.90671 0.30632 0.0
C1200 C 0.58622 0.85789 0.29336 0.0
C1201 C 0.56994 0.86515 0.28373 0.0
H1202 H 0.10692 0.66409 0.3073 0.0
H1203 H 0.17561 0.68964 0.27763 0.0
H1204 H 0.19257 0.7355 0.29301 0.0
H1205 H 0.18709 0.76876 0.3135 0.0
H1206 H 0.11831 0.74324 0.34312 0.0
H1207 H 0.10255 0.69692 0.32954 0.0
C1208 C 0.12576 0.67959 0.30444 0.0
C1209 C 0.13984 0.6734 0.29117 0.0
C1210 C 0.13544 0.70597 0.31336 0.0
C1211 C 0.16413 0.69388 0.28747 0.0
C1212 C 0.17393 0.72011 0.29636 0.0
C1213 C 0.16878 0.75306 0.31723 0.0
C1214 C 0.15389 0.7596 0.32925 0.0
C1215 C 0.15962 0.72646 0.30912 0.0
C1216 C 0.13018 0.7389 0.33384 0.0
C1217 C 0.12108 0.71235 0.32603 0.0
H1218 H 0.80364 0.99741 0.39177 0.0
H1219 H 0.75289 0.02824 0.38313 0.0
H1220 H 0.72061 0.98533 0.36447 0.0
H1221 H 0.70587 0.93772 0.35289 0.0
H1222 H 0.75793 0.90822 0.36162 0.0
H1223 H 0.79058 0.95186 0.37773 0.0
C1224 C 0.78552 0.99471 0.38574 0.0
C1225 C 0.78045 0.01571 0.38902 0.0
C1226 C 0.76725 0.97018 0.37503 0.0
C1227 C 0.75713 0.01225 0.3808 0.0
C1228 C 0.73869 0.98772 0.3702 0.0
C1229 C 0.72449 0.94099 0.358 0.0
C1230 C 0.72922 0.91951 0.35624 0.0
C1231 C 0.74339 0.96634 0.36749 0.0
C1232 C 0.75352 0.92418 0.36298 0.0
C1233 C 0.7723 0.94919 0.37225 0.0
H1234 H 0.01528 0.76739 0.42153 0.0
H1235 H 0.98334 0.79863 0.37846 0.0
H1236 H 0.01979 0.81256 0.35864 0.0
H1237 H 0.06123 0.81659 0.35373 0.0
H1238 H 0.09345 0.78595 0.39701 0.0
H1239 H 0.05663 0.77129 0.41657 0.0
C1240 C 0.01638 0.7774 0.40789 0.0
C1241 C 0.99652 0.78184 0.40149 0.0
C1242 C 0.03748 0.78548 0.39656 0.0
C1243 C 0.99815 0.79457 0.3836 0.0
C1244 C 0.01907 0.8027 0.37229 0.0
C1245 C 0.06008 0.80659 0.36739 0.0
C1246 C 0.07992 0.80226 0.37389 0.0
C1247 C 0.03886 0.79828 0.37862 0.0
C1248 C 0.07831 0.78938 0.39165 0.0
C1249 C 0.05729 0.78105 0.40288 0.0
H1250 H 0.19946 0.21537 0.39591 0.0
H1251 H 0.27279 0.25799 0.37272 0.0
H1252 H 0.25962 0.28573 0.35513 0.0
H1253 H 0.22781 0.29888 0.34725 0.0
H1254 H 0.1547 0.25669 0.37103 0.0
H1255 H 0.16732 0.22793 0.38746 0.0
C1256 C 0.21263 0.23087 0.38713 0.0
C1257 C 0.23711 0.23463 0.38571 0.0
C1258 C 0.20496 0.24681 0.3771 0.0
C1259 C 0.25376 0.25449 0.37394 0.0
C1260 C 0.24628 0.27044 0.36394 0.0
C1261 C 0.2145 0.28323 0.35583 0.0
C1262 C 0.19029 0.28002 0.35781 0.0
C1263 C 0.22196 0.26685 0.36546 0.0
C1264 C 0.17342 0.25966 0.36914 0.0
C1265 C 0.18065 0.24322 0.37865 0.0
H1266 H 0.67714 0.54726 0.75018 0.0
H1267 H 0.63522 0.57243 0.71148 0.0
H1268 H 0.67289 0.59875 0.69374 0.0
H1269 H 0.7174 0.61356 0.68854 0.0
H1270 H 0.75991 0.58974 0.72787 0.0
H1271 H 0.72241 0.56387 0.74603 0.0
C1272 C 0.67631 0.55853 0.73786 0.0
C1273 C 0.65342 0.55784 0.73209 0.0
C1274 C 0.69809 0.57372 0.72779 0.0
C1275 C 0.65267 0.57282 0.7163 0.0
C1276 C 0.67415 0.58773 0.70608 0.0
C1277 C 0.7184 0.60266 0.70108 0.0
C1278 C 0.74121 0.60321 0.70672 0.0
C1279 C 0.69689 0.58816 0.71158 0.0
C1280 C 0.74244 0.58936 0.72315 0.0
C1281 C 0.72103 0.57461 0.73354 0.0
H1282 H 0.43308 0.08265 0.7279 0.0
H1283 H 0.49776 0.16324 0.73379 0.0
H1284 H 0.47197 0.17904 0.71695 0.0
H1285 H 0.4306 0.17048 0.70147 0.0
H1286 H 0.36496 0.09141 0.69977 0.0
H1287 H 0.39144 0.07467 0.71451 0.0
C1288 C 0.44159 0.10378 0.72589 0.0
C1289 C 0.46757 0.12154 0.73209 0.0
C1290 C 0.42639 0.11308 0.71696 0.0
C1291 C 0.47808 0.14877 0.72879 0.0
C1292 C 0.46326 0.15798 0.71932 0.0
C1293 C 0.42222 0.14957 0.70425 0.0
C1294 C 0.39604 0.13207 0.69942 0.0
C1295 C 0.43739 0.14034 0.71338 0.0
C1296 C 0.38516 0.10516 0.70337 0.0
C1297 C 0.40027 0.09561 0.71178 0.0
H1298 H 0.854 0.32374 0.73219 0.0
H1299 H 0.93041 0.35942 0.71455 0.0
H1300 H 0.92127 0.31586 0.69862 0.0
H1301 H 0.89154 0.26752 0.6898 0.0
H1302 H 0.81497 0.23246 0.70726 0.0
H1303 H 0.82418 0.27598 0.72278 0.0
C1304 C 0.86859 0.32211 0.72463 0.0
C1305 C 0.89284 0.34489 0.72456 0.0
C1306 C 0.86318 0.29708 0.7154 0.0
C1307 C 0.91165 0.34219 0.71506 0.0
C1308 C 0.9064 0.3173 0.70583 0.0
C1309 C 0.87681 0.26938 0.6969 0.0
C1310 C 0.85258 0.24661 0.69728 0.0
C1311 C 0.88223 0.29458 0.70593 0.0
C1312 C 0.8338 0.24952 0.70666 0.0
C1313 C 0.83903 0.27445 0.71561 0.0
H1314 H 0.23119 0.98921 0.6411 0.0
H1315 H 0.18232 0.01161 0.60863 0.0
H1316 H 0.20851 0.05772 0.62412 0.0
H1317 H 0.24667 0.09227 0.64516 0.0
H1318 H 0.29676 0.07046 0.67643 0.0
H1319 H 0.26876 0.02362 0.66308 0.0
C1320 C 0.22633 0.0042 0.63734 0.0
C1321 C 0.20482 0.99688 0.62366 0.0
C1322 C 0.24171 0.03083 0.64607 0.0
C1323 C 0.19856 0.01652 0.61927 0.0
C1324 C 0.21363 0.04297 0.62803 0.0
C1325 C 0.25132 0.07725 0.64932 0.0
C1326 C 0.27384 0.08494 0.66177 0.0
C1327 C 0.23539 0.05041 0.64128 0.0
C1328 C 0.27961 0.06516 0.66682 0.0
C1329 C 0.26363 0.03835 0.65915 0.0
H1330 H 0.01107 0.21134 0.62779 0.0
H1331 H 0.98563 0.23861 0.57689 0.0
H1332 H 0.94762 0.22974 0.59331 0.0
H1333 H 0.92175 0.21452 0.62223 0.0
H1334 H 0.94646 0.18607 0.6727 0.0
H1335 H 0.98462 0.19498 0.65631 0.0
C1336 C 0.99708 0.21506 0.62019 0.0
C1337 C 1.00124 0.2257 0.60117 0.0
C1338 C 0.97524 0.20986 0.62969 0.0
C1339 C 0.98307 0.23076 0.59166 0.0
C1340 C 0.96128 0.22561 0.601 0.0
C1341 C 0.93559 0.21044 0.62967 0.0
C1342 C 0.93153 0.19992 0.64869 0.0
C1343 C 0.95727 0.21534 0.62007 0.0
C1344 C 0.94933 0.19432 0.65808 0.0
C1345 C 0.97109 0.19936 0.64871 0.0
H1346 H 0.76151 0.76457 0.63397 0.0
H1347 H 0.82967 0.80713 0.60368 0.0
H1348 H 0.84642 0.78049 0.61814 0.0
H1349 H 0.84127 0.74447 0.6386 0.0
H1350 H 0.77334 0.70192 0.6693 0.0
H1351 H 0.75699 0.72927 0.65553 0.0
C1352 C 0.77998 0.76789 0.63051 0.0
C1353 C 0.79431 0.78771 0.61774 0.0
C1354 C 0.78956 0.75259 0.63898 0.0
C1355 C 0.81837 0.79212 0.61359 0.0
C1356 C 0.82792 0.77684 0.62179 0.0
C1357 C 0.82294 0.74122 0.64241 0.0
C1358 C 0.80856 0.7211 0.65496 0.0
C1359 C 0.81364 0.75697 0.63444 0.0
C1360 C 0.78488 0.71731 0.65975 0.0
C1361 C 0.77545 0.73287 0.65181 0.0
H1362 H 0.01034 0.80562 0.6277 0.0
H1363 H 0.99466 0.74253 0.58079 0.0
H1364 H 0.95267 0.71445 0.59232 0.0
H1365 H 0.92104 0.70725 0.61665 0.0
H1366 H 0.93703 0.77045 0.66355 0.0
H1367 H 0.97835 0.79903 0.65121 0.0
C1368 C 0.9978 0.78565 0.6201 0.0
C1369 C 0.00569 0.77609 0.60353 0.0
C1370 C 0.97378 0.76964 0.62683 0.0
C1371 C 0.989 0.7504 0.59353 0.0
C1372 C 0.96504 0.73429 0.60017 0.0
C1373 C 0.93356 0.72733 0.62407 0.0
C1374 C 0.92615 0.73675 0.64102 0.0
C1375 C 0.95731 0.74363 0.61691 0.0
C1376 C 0.94241 0.7628 0.65049 0.0
C1377 C 0.96603 0.77911 0.64347 0.0
H1378 H 0.21434 0.24797 0.6371 0.0
H1379 H 0.19483 0.19415 0.58212 0.0
H1380 H 0.22109 0.17716 0.5961 0.0
H1381 H 0.24986 0.17756 0.62367 0.0
H1382 H 0.26751 0.22876 0.67964 0.0
H1383 H 0.24128 0.24637 0.66572 0.0
C1384 C 0.21554 0.23229 0.62825 0.0
C1385 C 0.20284 0.22276 0.60839 0.0
C1386 C 0.23029 0.22204 0.63659 0.0
C1387 C 0.20489 0.20253 0.59718 0.0
C1388 C 0.21975 0.19255 0.60523 0.0
C1389 C 0.24789 0.19252 0.63284 0.0
C1390 C 0.26062 0.20199 0.65257 0.0
C1391 C 0.23263 0.20225 0.62484 0.0
C1392 C 0.25782 0.2212 0.66438 0.0
C1393 C 0.24289 0.23129 0.65641 0.0
H1394 H 0.81229 0.01306 0.61403 0.0
H1395 H 0.74077 0.97652 0.64045 0.0
H1396 H 0.7517 0.01999 0.65796 0.0
H1397 H 0.78105 0.06865 0.66479 0.0
H1398 H 0.85256 0.10484 0.63809 0.0
H1399 H 0.84208 0.06126 0.62166 0.0
C1400 C 0.79905 0.01465 0.62355 0.0
C1401 C 0.7757 0.99167 0.62583 0.0
C1402 C 0.80544 0.03964 0.63352 0.0
C1403 C 0.75893 0.99392 0.63853 0.0
C1404 C 0.76512 0.01877 0.64847 0.0
C1405 C 0.7944 0.06702 0.65546 0.0
C1406 C 0.81755 0.09009 0.65271 0.0
C1407 C 0.78826 0.04182 0.64596 0.0
C1408 C 0.83464 0.08749 0.64059 0.0
C1409 C 0.82865 0.06255 0.6311 0.0
H1410 H 0.43035 0.34612 0.7078 0.0
H1411 H 0.47821 0.32207 0.73972 0.0
H1412 H 0.45008 0.27566 0.72546 0.0
H1413 H 0.41105 0.24171 0.70542 0.0
H1414 H 0.36212 0.26489 0.67399 0.0
H1415 H 0.39171 0.31189 0.68633 0.0
C1416 C 0.43475 0.33074 0.71139 0.0
C1417 C 0.45624 0.33748 0.7249 0.0
C1418 C 0.4183 0.30396 0.70328 0.0
C1419 C 0.4616 0.31732 0.72959 0.0
C1420 C 0.44557 0.2908 0.72138 0.0
C1421 C 0.40686 0.25699 0.70108 0.0
C1422 C 0.38428 0.24967 0.68884 0.0
C1423 C 0.42371 0.28385 0.70846 0.0
C1424 C 0.37929 0.26988 0.68343 0.0
C1425 C 0.3962 0.29678 0.69052 0.0
H1426 H 0.65401 0.11834 0.71372 0.0
H1427 H 0.67335 0.08338 0.7627 0.0
H1428 H 0.71363 0.09517 0.74894 0.0
H1429 H 0.74359 0.11594 0.72325 0.0
H1430 H 0.72454 0.15132 0.67447 0.0
H1431 H 0.68376 0.13863 0.68777 0.0
C1432 C 0.66693 0.11303 0.72123 0.0
C1433 C 0.66072 0.09999 0.73918 0.0
C1434 C 0.69008 0.11997 0.71329 0.0
C1435 C 0.67781 0.09363 0.74896 0.0
C1436 C 0.70079 0.10028 0.74107 0.0
C1437 C 0.73043 0.12077 0.71552 0.0
C1438 C 0.73692 0.13447 0.69793 0.0
C1439 C 0.70717 0.11356 0.72332 0.0
C1440 C 0.71987 0.14076 0.68806 0.0
C1441 C 0.69659 0.13351 0.69564 0.0
H1442 H 0.90255 0.56999 0.71159 0.0
H1443 H 0.83436 0.52965 0.74232 0.0
H1444 H 0.81798 0.55581 0.72658 0.0
H1445 H 0.82332 0.59073 0.70479 0.0
H1446 H 0.89132 0.63107 0.67378 0.0
H1447 H 0.90714 0.60386 0.68861 0.0
C1448 C 0.88396 0.56666 0.71465 0.0
C1449 C 0.86981 0.54794 0.72824 0.0
C1450 C 0.87454 0.58169 0.70543 0.0
C1451 C 0.8459 0.54423 0.73223 0.0
C1452 C 0.83641 0.55905 0.72311 0.0
C1453 C 0.84149 0.59344 0.70104 0.0
C1454 C 0.85604 0.61295 0.68811 0.0
C1455 C 0.85062 0.57794 0.70979 0.0
C1456 C 0.87965 0.61622 0.68365 0.0
C1457 C 0.88877 0.6007 0.69218 0.0
H1458 H 0.46879 0.95867 0.11997 0.0
H1459 H 0.51272 0.04136 0.14512 0.0
H1460 H 0.52293 0.05529 0.11076 0.0
H1461 H 0.52138 0.04335 0.07354 0.0
H1462 H 0.47751 0.96006 0.04945 0.0
H1463 H 0.46528 0.94707 0.08323 0.0
C1464 C 0.4806 0.97975 0.11793 0.0
C1465 C 0.49022 0.99891 0.13506 0.0
C1466 C 0.48645 0.98752 0.09825 0.0
C1467 C 0.50505 0.02622 0.13214 0.0
C1468 C 0.511 0.03416 0.11252 0.0
C1469 C 0.50899 0.02243 0.07574 0.0
C1470 C 0.50039 0.00275 0.05896 0.0
C1471 C 0.50212 0.01493 0.09545 0.0
C1472 C 0.48433 0.97568 0.06201 0.0
C1473 C 0.47737 0.96816 0.08139 0.0
H1474 H 0.00336 0.49773 0.13767 0.0
H1475 H 0.08042 0.52585 0.12369 0.0
H1476 H 0.06721 0.52069 0.08725 0.0
H1477 H 0.03455 0.51104 0.05965 0.0
H1478 H 0.95736 0.48321 0.07289 0.0
H1479 H 0.96977 0.48529 0.10936 0.0
C1480 C 0.01715 0.50238 0.1266 0.0
C1481 C 0.04289 0.51242 0.1334 0.0
C1482 C 0.00944 0.49959 0.1056 0.0
C1483 C 0.06059 0.51852 0.11888 0.0
C1484 C 0.05305 0.5155 0.09804 0.0
C1485 C 0.02033 0.50505 0.07045 0.0
C1486 C 0.99507 0.49696 0.06361 0.0
C1487 C 0.02764 0.50651 0.09127 0.0
C1488 C 0.97693 0.48951 0.07782 0.0
C1489 C 0.98404 0.49075 0.09865 0.0
H1490 H 0.47389 0.47921 0.1263 0.0
H1491 H 0.53532 0.56089 0.14008 0.0
H1492 H 0.54969 0.55988 0.10634 0.0
H1493 H 0.54368 0.53652 0.07221 0.0
H1494 H 0.48255 0.45504 0.05818 0.0
H1495 H 0.46895 0.45516 0.09258 0.0
C1496 C 0.4904 0.49676 0.12189 0.0
C1497 C 0.50351 0.52007 0.1357 0.0
C1498 C 0.49854 0.49608 0.1024 0.0
C1499 C 0.52507 0.54258 0.12985 0.0
C1500 C 0.53323 0.54209 0.11051 0.0
C1501 C 0.52762 0.51875 0.0769 0.0
C1502 C 0.51401 0.49583 0.06293 0.0
C1503 C 0.52002 0.51904 0.09662 0.0
C1504 C 0.49312 0.4729 0.06884 0.0
C1505 C 0.48539 0.47299 0.08845 0.0
H1506 H 0.98646 0.4759 0.87881 0.0
H1507 H 0.95411 0.52617 0.89149 0.0
H1508 H 0.96876 0.53206 0.92764 0.0
H1509 H 0.99075 0.52279 0.95585 0.0
H1510 H 0.0245 0.4743 0.94282 0.0
H1511 H 0.01056 0.46908 0.9064 0.0
C1512 C 0.983 0.48863 0.88929 0.0
C1513 C 0.96895 0.50036 0.88222 0.0
C1514 C 0.992 0.4925 0.91004 0.0
C1515 C 0.96434 0.51633 0.89638 0.0
C1516 C 0.97293 0.51996 0.9171 0.0
C1517 C 0.99471 0.51086 0.94501 0.0
C1518 C 0.00809 0.49847 0.95193 0.0
C1519 C 0.98661 0.50797 0.92413 0.0
C1520 C 0.01418 0.48398 0.93775 0.0
C1521 C 0.00609 0.48087 0.91698 0.0
H1522 H 0.53558 0.48849 0.88935 0.0
H1523 H 0.48534 0.51525 0.8666 0.0
H1524 H 0.47447 0.51972 0.90146 0.0
H1525 H 0.47734 0.51294 0.93839 0.0
H1526 H 0.52742 0.48504 0.95971 0.0
H1527 H 0.54023 0.48417 0.92562 0.0
C1528 C 0.52228 0.49535 0.89203 0.0
C1529 C 0.51104 0.5012 0.87545 0.0
C1530 C 0.51601 0.49759 0.91192 0.0
C1531 C 0.49425 0.51063 0.87917 0.0
C1532 C 0.48793 0.51302 0.89906 0.0
C1533 C 0.49116 0.50687 0.93551 0.0
C1534 C 0.50142 0.49914 0.95163 0.0
C1535 C 0.49836 0.50609 0.91556 0.0
C1536 C 0.51931 0.49129 0.94769 0.0
C1537 C 0.52663 0.49066 0.92813 0.0
H1538 H 0.50331 0.98992 0.8737 0.0
H1539 H 0.53764 0.07335 0.89641 0.0
H1540 H 0.52835 0.06103 0.93106 0.0
H1541 H 0.50916 0.02672 0.95449 0.0
H1542 H 0.47683 0.94325 0.93298 0.0
H1543 H 0.48597 0.95526 0.89801 0.0
C1544 C 0.50869 0.00531 0.88628 0.0
C1545 C 0.52109 0.03248 0.88258 0.0
C1546 C 0.50354 0.99807 0.90624 0.0
C1547 C 0.52824 0.05233 0.89897 0.0
C1548 C 0.52285 0.0453 0.91873 0.0
C1549 C 0.50481 0.01117 0.9423 0.0
C1550 C 0.49293 0.9842 0.94635 0.0
C1551 C 0.51049 0.01828 0.92251 0.0
C1552 C 0.48622 0.96418 0.9302 0.0
C1553 C 0.49144 0.97106 0.91026 0.0
H1554 H 0.16419 0.29363 0.45191 0.0
H1555 H 0.13071 0.34313 0.46397 0.0
H1556 H 0.1398 0.35913 0.43045 0.0
H1557 H 0.16011 0.36168 0.39827 0.0
H1558 H 0.20235 0.3207 0.39128 0.0
H1559 H 0.18781 0.2996 0.42251 0.0
C1560 C 0.15944 0.30855 0.44784 0.0
C1561 C 0.14687 0.31706 0.46109 0.0
C1562 C 0.16647 0.31941 0.42921 0.0
C1563 C 0.13994 0.33548 0.45435 0.0
C1564 C 0.14544 0.34505 0.43513 0.0
C1565 C 0.166 0.34808 0.40368 0.0
C1566 C 0.18173 0.34218 0.39231 0.0
C1567 C 0.15903 0.33745 0.42253 0.0
C1568 C 0.18981 0.32508 0.39958 0.0
C1569 C 0.18161 0.31311 0.4175 0.0
H1570 H 0.67903 0.86125 0.46855 0.0
H1571 H 0.70182 0.80204 0.46019 0.0
H1572 H 0.68658 0.79373 0.42383 0.0
H1573 H 0.66882 0.80523 0.39402 0.0
H1574 H 0.64624 0.86446 0.40253 0.0
H1575 H 0.65889 0.87059 0.43928 0.0
C1576 C 0.68061 0.84651 0.45874 0.0
C1577 C 0.69173 0.83245 0.46695 0.0
C1578 C 0.67184 0.84187 0.4379 0.0
C1579 C 0.69326 0.81305 0.4542 0.0
C1580 C 0.68469 0.8084 0.4334 0.0
C1581 C 0.66689 0.81954 0.40394 0.0
C1582 C 0.6571 0.8347 0.39566 0.0
C1583 C 0.67431 0.823 0.42502 0.0
C1584 C 0.65373 0.85255 0.40868 0.0
C1585 C 0.66109 0.85618 0.42964 0.0
H1586 H 0.14284 0.85189 0.45973 0.0
H1587 H 0.19363 0.82642 0.48379 0.0
H1588 H 0.2068 0.82411 0.44952 0.0
H1589 H 0.20397 0.8299 0.41247 0.0
H1590 H 0.15344 0.85654 0.38975 0.0
H1591 H 0.13966 0.85713 0.42354 0.0
C1592 C 0.15651 0.84542 0.45747 0.0
C1593 C 0.16706 0.83912 0.47426 0.0
C1594 C 0.16397 0.84423 0.43788 0.0
C1595 C 0.18529 0.83149 0.47111 0.0
C1596 C 0.19274 0.83007 0.45152 0.0
C1597 C 0.18989 0.8357 0.41499 0.0
C1598 C 0.17952 0.84282 0.39854 0.0
C1599 C 0.18227 0.8365 0.43475 0.0
C1600 C 0.16147 0.85057 0.40203 0.0
C1601 C 0.15363 0.85107 0.42141 0.0
H1602 H 0.66734 0.82964 0.21006 0.0
H1603 H 0.59631 0.82251 0.22509 0.0
H1604 H 0.60974 0.82752 0.26138 0.0
H1605 H 0.64047 0.83098 0.28881 0.0
H1606 H 0.71039 0.83604 0.27426 0.0
H1607 H 0.69827 0.83375 0.23775 0.0
C1608 C 0.65466 0.82897 0.22121 0.0
C1609 C 0.6308 0.82573 0.21464 0.0
C1610 C 0.66224 0.83123 0.24217 0.0
C1611 C 0.61494 0.82544 0.22952 0.0
C1612 C 0.6225 0.82805 0.25035 0.0
C1613 C 0.65327 0.83234 0.27773 0.0
C1614 C 0.67644 0.8343 0.28426 0.0
C1615 C 0.64599 0.83073 0.25684 0.0
C1616 C 0.69248 0.83475 0.26959 0.0
C1617 C 0.68555 0.83344 0.24874 0.0
H1618 H 0.15386 0.80242 0.21432 0.0
H1619 H 0.23377 0.86109 0.22424 0.0
H1620 H 0.22896 0.87189 0.25969 0.0
H1621 H 0.20195 0.8638 0.28802 0.0
H1622 H 0.12197 0.80602 0.27784 0.0
H1623 H 0.12662 0.79594 0.2422 0.0
C1624 C 0.17017 0.81756 0.22429 0.0
C1625 C 0.19414 0.83084 0.2168 0.0
C1626 C 0.16718 0.82385 0.24452 0.0
C1627 C 0.21512 0.8507 0.22971 0.0
C1628 C 0.21238 0.85681 0.24995 0.0
C1629 C 0.18568 0.8489 0.27802 0.0
C1630 C 0.16179 0.8354 0.28551 0.0
C1631 C 0.18854 0.84337 0.25756 0.0
C1632 C 0.14056 0.8167 0.27229 0.0
C1633 C 0.14323 0.81084 0.25199 0.0
H1634 H 0.16153 0.32685 0.20966 0.0
H1635 H 0.2318 0.39869 0.23273 0.0
H1636 H 0.22359 0.38733 0.26757 0.0
H1637 H 0.19492 0.35895 0.29164 0.0
H1638 H 0.12318 0.28961 0.26918 0.0
H1639 H 0.13293 0.29863 0.23388 0.0
C1640 C 0.175 0.34027 0.22223 0.0
C1641 C 0.1973 0.36367 0.2183 0.0
C1642 C 0.16973 0.33419 0.24239 0.0
C1643 C 0.2147 0.38029 0.23501 0.0
C1644 C 0.2099 0.37398 0.25506 0.0
C1645 C 0.18183 0.34542 0.27908 0.0
C1646 C 0.15874 0.32329 0.28299 0.0
C1647 C 0.18736 0.35116 0.25893 0.0
C1648 C 0.14122 0.30666 0.26649 0.0
C1649 C 0.14679 0.31182 0.24634 0.0
H1650 H 0.84136 0.64066 0.79054 0.0
H1651 H 0.76745 0.63303 0.78149 0.0
H1652 H 0.77809 0.65292 0.74897 0.0
H1653 H 0.80868 0.67213 0.72289 0.0
H1654 H 0.88203 0.67834 0.73247 0.0
H1655 H 0.87147 0.65967 0.76508 0.0
C1656 C 0.8275 0.64318 0.78139 0.0
C1657 C 0.80362 0.63524 0.78831 0.0
C1658 C 0.83375 0.65458 0.76287 0.0
C1659 C 0.78603 0.63913 0.7765 0.0
C1660 C 0.79209 0.65044 0.75792 0.0
C1661 C 0.82226 0.66933 0.73217 0.0
C1662 C 0.846 0.67639 0.72523 0.0
C1663 C 0.81593 0.65823 0.75092 0.0
C1664 C 0.86361 0.67306 0.73746 0.0
C1665 C 0.85758 0.66227 0.75609 0.0
H1666 H 0.33369 0.15307 0.80365 0.0
H1667 H 0.41163 0.1896 0.7897 0.0
H1668 H 0.39827 0.18708 0.75356 0.0
H1669 H 0.36486 0.17725 0.72632 0.0
H1670 H 0.28696 0.14201 0.7401 0.0
H1671 H 0.29978 0.14093 0.77582 0.0
C1672 C 0.34767 0.16009 0.79263 0.0
C1673 C 0.37363 0.17165 0.79937 0.0
C1674 C 0.33987 0.15896 0.77187 0.0
C1675 C 0.39157 0.18092 0.78493 0.0
C1676 C 0.38395 0.17945 0.76427 0.0
C1677 C 0.35065 0.16913 0.73711 0.0
C1678 C 0.32502 0.1599 0.73065 0.0
C1679 C 0.35822 0.16897 0.75762 0.0
C1680 C 0.30682 0.14934 0.74476 0.0
C1681 C 0.31416 0.14877 0.76518 0.0
H1682 H 0.79701 0.14504 0.7926 0.0
H1683 H 0.86148 0.22327 0.81254 0.0
H1684 H 0.87599 0.22693 0.77849 0.0
H1685 H 0.87093 0.20789 0.74315 0.0
H1686 H 0.80756 0.1293 0.72288 0.0
H1687 H 0.79181 0.12591 0.7567 0.0
C1688 C 0.81412 0.16292 0.78941 0.0
C1689 C 0.82825 0.18374 0.80518 0.0
C1690 C 0.82251 0.16488 0.7697 0.0
C1691 C 0.85048 0.20675 0.80081 0.0
C1692 C 0.85875 0.20894 0.78131 0.0
C1693 C 0.85368 0.19001 0.74616 0.0
C1694 C 0.8402 0.16904 0.73049 0.0
C1695 C 0.84506 0.18807 0.76568 0.0
C1696 C 0.81791 0.14598 0.73458 0.0
C1697 C 0.80904 0.14396 0.75396 0.0
H1698 H 0.28415 0.1534 0.55213 0.0
H1699 H 0.36145 0.1932 0.53642 0.0
H1700 H 0.37702 0.19784 0.57235 0.0
H1701 H 0.36853 0.18958 0.60832 0.0
H1702 H 0.29093 0.148 0.62328 0.0
H1703 H 0.27571 0.14565 0.58781 0.0
C1704 C 0.30442 0.16341 0.5566 0.0
C1705 C 0.32159 0.17296 0.5416 0.0
C1706 C 0.31322 0.16583 0.57724 0.0
C1707 C 0.3478 0.18544 0.54763 0.0
C1708 C 0.35673 0.1882 0.56819 0.0
C1709 C 0.34832 0.18018 0.60378 0.0
C1710 C 0.33093 0.16951 0.61852 0.0
C1711 C 0.3396 0.17829 0.58313 0.0
C1712 C 0.30477 0.1571 0.6124 0.0
C1713 C 0.29601 0.15547 0.59203 0.0
H1714 H 0.83713 0.16695 0.54574 0.0
H1715 H 0.89706 0.15296 0.56729 0.0
H1716 H 0.88784 0.15697 0.60271 0.0
H1717 H 0.86055 0.16109 0.62713 0.0
H1718 H 0.79879 0.17197 0.60543 0.0
H1719 H 0.81058 0.17227 0.5704 0.0
C1720 C 0.84833 0.16513 0.55826 0.0
C1721 C 0.86777 0.15977 0.55402 0.0
C1722 C 0.84243 0.1667 0.57847 0.0
C1723 C 0.88195 0.15702 0.57027 0.0
C1724 C 0.87668 0.1593 0.59047 0.0
C1725 C 0.85021 0.16436 0.61486 0.0
C1726 C 0.82931 0.16729 0.61888 0.0
C1727 C 0.85672 0.16376 0.59473 0.0
C1728 C 0.81518 0.17005 0.60265 0.0
C1729 C 0.82188 0.17016 0.58265 0.0
H1730 H 0.82456 0.69252 0.55142 0.0
H1731 H 0.89379 0.68944 0.55776 0.0
H1732 H 0.88305 0.6713 0.59074 0.0
H1733 H 0.85334 0.6554 0.61763 0.0
H1734 H 0.78441 0.65883 0.61082 0.0
H1735 H 0.79517 0.67671 0.57786 0.0
C1736 C 0.83719 0.68758 0.55985 0.0
C1737 C 0.8599 0.69225 0.55197 0.0
C1738 C 0.83082 0.67697 0.57869 0.0
C1739 C 0.87629 0.6863 0.56346 0.0
C1740 C 0.87009 0.67576 0.58229 0.0
C1741 C 0.84093 0.66044 0.60901 0.0
C1742 C 0.81832 0.65615 0.61674 0.0
C1743 C 0.84738 0.67098 0.59007 0.0
C1744 C 0.80191 0.66189 0.60516 0.0
C1745 C 0.80811 0.67225 0.58635 0.0
loop_
_geom_bond_atom_site_label_1
_geom_bond_atom_site_label_2
_geom_bond_distance
_geom_bond_site_symmetry_2
_ccdc_geom_bond_type
C0 C1 1.386 . S
C0 C2 1.397 . S
C0 H24 0.931 . S
C1 C0 1.386 . S
C1 C5 1.397 . S
C2 C0 1.397 . S
C2 C3 1.384 . S
C2 H25 0.930 . S
C3 C2 1.384 . S
C3 C4 1.377 . S
C3 C6 1.481 . S
C4 C3 1.377 . S
C4 C5 1.389 . S
C4 H26 0.929 . S
C5 C1 1.397 . S
C5 C4 1.389 . S
C5 H27 0.931 . S
C6 C3 1.481 . S
C6 C7 1.387 . S
C6 C11 1.390 . S
C7 C6 1.387 . S
C7 C8 1.401 . S
C7 H28 0.930 . S
C8 C7 1.401 . S
C8 C9 1.376 . S
C8 C17 1.511 . S
C9 C8 1.376 . S
C9 C10 1.392 . S
C9 H30 0.931 . S
C10 C9 1.392 . S
C10 C11 1.361 . S
C10 C12 1.500 . S
C11 C6 1.390 . S
C11 C10 1.361 . S
C11 H29 0.931 . S
C12 C10 1.500 . S
C12 C13 1.371 . S
C12 C14 1.365 . S
C13 C12 1.371 . S
C13 C23 1.386 . S
C13 H31 0.931 . S
C14 C12 1.365 . S
C14 C15 1.409 . S
C14 H32 0.929 . S
C15 C14 1.409 . S
C15 C16 1.380 . S
C15 H33 0.930 . S
C16 C15 1.380 . S
C16 C23 1.357 . S
C17 C8 1.511 . S
C17 C18 1.341 . S
C17 C19 1.371 . S
C18 C17 1.341 . S
C18 C22 1.394 . S
C18 H34 0.930 . S
C19 C17 1.371 . S
C19 C20 1.392 . S
C19 H35 0.931 . S
C20 C19 1.392 . S
C20 C21 1.331 . S
C20 H38 0.932 . S
C21 C20 1.331 . S
C21 C22 1.336 . S
C22 C18 1.394 . S
C22 C21 1.336 . S
C22 H37 0.929 . S
C23 C13 1.386 . S
C23 C16 1.357 . S
C23 H36 0.928 . S
H24 C0 0.931 . S
H25 C2 0.930 . S
H26 C4 0.929 . S
H27 C5 0.931 . S
H28 C7 0.930 . S
H29 C11 0.931 . S
H30 C9 0.931 . S
H31 C13 0.931 . S
H32 C14 0.929 . S
H33 C15 0.930 . S
H34 C18 0.930 . S
H35 C19 0.931 . S
H36 C23 0.928 . S
H37 C22 0.929 . S
H38 C20 0.932 . S
C39 C40 1.386 . S
C39 C41 1.397 . S
C39 H63 0.931 . S
C40 C39 1.386 . S
C40 C44 1.397 . S
C41 C39 1.397 . S
C41 C42 1.384 . S
C41 H64 0.930 . S
C42 C41 1.384 . S
C42 C43 1.377 . S
C42 C45 1.481 . S
C43 C42 1.377 . S
C43 C44 1.389 . S
C43 H65 0.929 . S
C44 C40 1.397 . S
C44 C43 1.389 . S
C44 H66 0.931 . S
C45 C42 1.481 . S
C45 C46 1.387 . S
C45 C50 1.390 . S
C46 C45 1.387 . S
C46 C47 1.401 . S
C46 H67 0.930 . S
C47 C46 1.401 . S
C47 C48 1.376 . S
C47 C56 1.511 . S
C48 C47 1.376 . S
C48 C49 1.392 . S
C48 H69 0.931 . S
C49 C48 1.392 . S
C49 C50 1.361 . S
C49 C51 1.500 . S
C50 C45 1.390 . S
C50 C49 1.361 . S
C50 H68 0.931 . S
C51 C49 1.500 . S
C51 C52 1.371 . S
C51 C53 1.365 . S
C52 C51 1.371 . S
C52 C62 1.386 . S
C52 H70 0.931 . S
C53 C51 1.365 . S
C53 C54 1.409 . S
C53 H71 0.929 . S
C54 C53 1.409 . S
C54 C55 1.380 . S
C54 H72 0.930 . S
C55 C54 1.380 . S
C55 C62 1.357 . S
C56 C47 1.511 . S
C56 C57 1.341 . S
C56 C58 1.371 . S
C57 C56 1.341 . S
C57 C61 1.394 . S
C57 H73 0.930 . S
C58 C56 1.371 . S
C58 C59 1.392 . S
C58 H74 0.931 . S
C59 C58 1.392 . S
C59 C60 1.331 . S
C59 H77 0.932 . S
C60 C59 1.331 . S
C60 C61 1.336 . S
C61 C57 1.394 . S
C61 C60 1.336 . S
C61 H76 0.929 . S
C62 C52 1.386 . S
C62 C55 1.357 . S
C62 H75 0.928 . S
H63 C39 0.931 . S
H64 C41 0.930 . S
H65 C43 0.929 . S
H66 C44 0.931 . S
H67 C46 0.930 . S
H68 C50 0.931 . S
H69 C48 0.931 . S
H70 C52 0.931 . S
H71 C53 0.929 . S
H72 C54 0.930 . S
H73 C57 0.930 . S
H74 C58 0.931 . S
H75 C62 0.928 . S
H76 C61 0.929 . S
H77 C59 0.932 . S
C78 C79 1.386 . S
C78 C80 1.397 . S
C78 H102 0.931 . S
C79 C78 1.386 . S
C79 C83 1.397 . S
C80 C78 1.397 . S
C80 C81 1.384 . S
C80 H103 0.930 . S
C81 C80 1.384 . S
C81 C82 1.377 . S
C81 C84 1.481 . S
C82 C81 1.377 . S
C82 C83 1.389 . S
C82 H104 0.929 . S
C83 C79 1.397 . S
C83 C82 1.389 . S
C83 H105 0.931 . S
C84 C81 1.481 . S
C84 C85 1.387 . S
C84 C89 1.390 . S
C85 C84 1.387 . S
C85 C86 1.401 . S
C85 H106 0.930 . S
C86 C85 1.401 . S
C86 C87 1.376 . S
C86 C95 1.511 . S
C87 C86 1.376 . S
C87 C88 1.392 . S
C87 H108 0.931 . S
C88 C87 1.392 . S
C88 C89 1.361 . S
C88 C90 1.500 . S
C89 C84 1.390 . S
C89 C88 1.361 . S
C89 H107 0.931 . S
C90 C88 1.500 . S
C90 C91 1.371 . S
C90 C92 1.365 . S
C91 C90 1.371 . S
C91 C101 1.386 . S
C91 H109 0.931 . S
C92 C90 1.365 . S
C92 C93 1.409 . S
C92 H110 0.929 . S
C93 C92 1.409 . S
C93 C94 1.380 . S
C93 H111 0.930 . S
C94 C93 1.380 . S
C94 C101 1.357 . S
C95 C86 1.511 . S
C95 C96 1.341 . S
C95 C97 1.371 . S
C96 C95 1.341 . S
C96 C100 1.394 . S
C96 H112 0.930 . S
C97 C95 1.371 . S
C97 C98 1.392 . S
C97 H113 0.931 . S
C98 C97 1.392 . S
C98 C99 1.331 . S
C98 H116 0.932 . S
C99 C98 1.331 . S
C99 C100 1.336 . S
C100 C96 1.394 . S
C100 C99 1.336 . S
C100 H115 0.929 . S
C101 C91 1.386 . S
C101 C94 1.357 . S
C101 H114 0.928 . S
H102 C78 0.931 . S
H103 C80 0.930 . S
H104 C82 0.929 . S
H105 C83 0.931 . S
H106 C85 0.930 . S
H107 C89 0.931 . S
H108 C87 0.931 . S
H109 C91 0.931 . S
H110 C92 0.929 . S
H111 C93 0.930 . S
H112 C96 0.930 . S
H113 C97 0.931 . S
H114 C101 0.928 . S
H115 C100 0.929 . S
H116 C98 0.932 . S
C117 C118 1.386 . S
C117 C119 1.397 . S
C117 H141 0.931 . S
C118 C117 1.386 . S
C118 C122 1.397 . S
C119 C117 1.397 . S
C119 C120 1.384 . S
C119 H142 0.930 . S
C120 C119 1.384 . S
C120 C121 1.377 . S
C120 C123 1.481 . S
C121 C120 1.377 . S
C121 C122 1.389 . S
C121 H143 0.929 . S
C122 C118 1.397 . S
C122 C121 1.389 . S
C122 H144 0.931 . S
C123 C120 1.481 . S
C123 C124 1.387 . S
C123 C128 1.390 . S
C124 C123 1.387 . S
C124 C125 1.401 . S
C124 H145 0.930 . S
C125 C124 1.401 . S
C125 C126 1.376 . S
C125 C134 1.511 . S
C126 C125 1.376 . S
C126 C127 1.392 . S
C126 H147 0.931 . S
C127 C126 1.392 . S
C127 C128 1.361 . S
C127 C129 1.500 . S
C128 C123 1.390 . S
C128 C127 1.361 . S
C128 H146 0.931 . S
C129 C127 1.500 . S
C129 C130 1.371 . S
C129 C131 1.365 . S
C130 C129 1.371 . S
C130 C140 1.386 . S
C130 H148 0.931 . S
C131 C129 1.365 . S
C131 C132 1.409 . S
C131 H149 0.929 . S
C132 C131 1.409 . S
C132 C133 1.380 . S
C132 H150 0.930 . S
C133 C132 1.380 . S
C133 C140 1.357 . S
C134 C125 1.511 . S
C134 C135 1.341 . S
C134 C136 1.371 . S
C135 C134 1.341 . S
C135 C139 1.394 . S
C135 H151 0.930 . S
C136 C134 1.371 . S
C136 C137 1.392 . S
C136 H152 0.931 . S
C137 C136 1.392 . S
C137 C138 1.331 . S
C137 H155 0.932 . S
C138 C137 1.331 . S
C138 C139 1.336 . S
C139 C135 1.394 . S
C139 C138 1.336 . S
C139 H154 0.929 . S
C140 C130 1.386 . S
C140 C133 1.357 . S
C140 H153 0.928 . S
H141 C117 0.931 . S
H142 C119 0.930 . S
H143 C121 0.929 . S
H144 C122 0.931 . S
H145 C124 0.930 . S
H146 C128 0.931 . S
H147 C126 0.931 . S
H148 C130 0.931 . S
H149 C131 0.929 . S
H150 C132 0.930 . S
H151 C135 0.930 . S
H152 C136 0.931 . S
H153 C140 0.928 . S
H154 C139 0.929 . S
H155 C137 0.932 . S
C156 C157 1.386 . S
C156 C158 1.397 . S
C156 H180 0.931 . S
C157 C156 1.386 . S
C157 C161 1.397 . S
C158 C156 1.397 . S
C158 C159 1.384 . S
C158 H181 0.930 . S
C159 C158 1.384 . S
C159 C160 1.377 . S
C159 C162 1.481 . S
C160 C159 1.377 . S
C160 C161 1.389 . S
C160 H182 0.929 . S
C161 C157 1.397 . S
C161 C160 1.389 . S
C161 H183 0.931 . S
C162 C159 1.481 . S
C162 C163 1.387 . S
C162 C167 1.390 . S
C163 C162 1.387 . S
C163 C164 1.401 . S
C163 H184 0.930 . S
C164 C163 1.401 . S
C164 C165 1.376 . S
C164 C173 1.511 . S
C165 C164 1.376 . S
C165 C166 1.392 . S
C165 H186 0.931 . S
C166 C165 1.392 . S
C166 C167 1.361 . S
C166 C168 1.500 . S
C167 C162 1.390 . S
C167 C166 1.361 . S
C167 H185 0.931 . S
C168 C166 1.500 . S
C168 C169 1.371 . S
C168 C170 1.365 . S
C169 C168 1.371 . S
C169 C179 1.386 . S
C169 H187 0.931 . S
C170 C168 1.365 . S
C170 C171 1.409 . S
C170 H188 0.929 . S
C171 C170 1.409 . S
C171 C172 1.380 . S
C171 H189 0.930 . S
C172 C171 1.380 . S
C172 C179 1.357 . S
C173 C164 1.511 . S
C173 C174 1.341 . S
C173 C175 1.371 . S
C174 C173 1.341 . S
C174 C178 1.394 . S
C174 H190 0.930 . S
C175 C173 1.371 . S
C175 C176 1.392 . S
C175 H191 0.931 . S
C176 C175 1.392 . S
C176 C177 1.331 . S
C176 H194 0.932 . S
C177 C176 1.331 . S
C177 C178 1.336 . S
C178 C174 1.394 . S
C178 C177 1.336 . S
C178 H193 0.929 . S
C179 C169 1.386 . S
C179 C172 1.357 . S
C179 H192 0.928 . S
H180 C156 0.931 . S
H181 C158 0.930 . S
H182 C160 0.929 . S
H183 C161 0.931 . S
H184 C163 0.930 . S
H185 C167 0.931 . S
H186 C165 0.931 . S
H187 C169 0.931 . S
H188 C170 0.929 . S
H189 C171 0.930 . S
H190 C174 0.930 . S
H191 C175 0.931 . S
H192 C179 0.928 . S
H193 C178 0.929 . S
H194 C176 0.932 . S
C195 C196 1.386 . S
C195 C197 1.397 . S
C195 H219 0.931 . S
C196 C195 1.386 . S
C196 C200 1.397 . S
C197 C195 1.397 . S
C197 C198 1.384 . S
C197 H220 0.930 . S
C198 C197 1.384 . S
C198 C199 1.377 . S
C198 C201 1.481 . S
C199 C198 1.377 . S
C199 C200 1.389 . S
C199 H221 0.929 . S
C200 C196 1.397 . S
C200 C199 1.389 . S
C200 H222 0.931 . S
C201 C198 1.481 . S
C201 C202 1.387 . S
C201 C206 1.390 . S
C202 C201 1.387 . S
C202 C203 1.401 . S
C202 H223 0.930 . S
C203 C202 1.401 . S
C203 C204 1.376 . S
C203 C212 1.511 . S
C204 C203 1.376 . S
C204 C205 1.392 . S
C204 H225 0.931 . S
C205 C204 1.392 . S
C205 C206 1.361 . S
C205 C207 1.500 . S
C206 C201 1.390 . S
C206 C205 1.361 . S
C206 H224 0.931 . S
C207 C205 1.500 . S
C207 C208 1.371 . S
C207 C209 1.365 . S
C208 C207 1.371 . S
C208 C218 1.386 . S
C208 H226 0.931 . S
C209 C207 1.365 . S
C209 C210 1.409 . S
C209 H227 0.929 . S
C210 C209 1.409 . S
C210 C211 1.380 . S
C210 H228 0.930 . S
C211 C210 1.380 . S
C211 C218 1.357 . S
C212 C203 1.511 . S
C212 C213 1.341 . S
C212 C214 1.371 . S
C213 C212 1.341 . S
C213 C217 1.394 . S
C213 H229 0.930 . S
C214 C212 1.371 . S
C214 C215 1.392 . S
C214 H230 0.931 . S
C215 C214 1.392 . S
C215 C216 1.331 . S
C215 H233 0.932 . S
C216 C215 1.331 . S
C216 C217 1.336 . S
C217 C213 1.394 . S
C217 C216 1.336 . S
C217 H232 0.929 . S
C218 C208 1.386 . S
C218 C211 1.357 . S
C218 H231 0.928 . S
H219 C195 0.931 . S
H220 C197 0.930 . S
H221 C199 0.929 . S
H222 C200 0.931 . S
H223 C202 0.930 . S
H224 C206 0.931 . S
H225 C204 0.931 . S
H226 C208 0.931 . S
H227 C209 0.929 . S
H228 C210 0.930 . S
H229 C213 0.930 . S
H230 C214 0.931 . S
H231 C218 0.928 . S
H232 C217 0.929 . S
H233 C215 0.932 . S
C234 C235 1.386 . S
C234 C236 1.397 . S
C234 H258 0.931 . S
C235 C234 1.386 . S
C235 C239 1.397 . S
C236 C234 1.397 . S
C236 C237 1.384 . S
C236 H259 0.930 . S
C237 C236 1.384 . S
C237 C238 1.377 . S
C237 C240 1.481 . S
C238 C237 1.377 . S
C238 C239 1.389 . S
C238 H260 0.929 . S
C239 C235 1.397 . S
C239 C238 1.389 . S
C239 H261 0.931 . S
C240 C237 1.481 . S
C240 C241 1.387 . S
C240 C245 1.390 . S
C241 C240 1.387 . S
C241 C242 1.401 . S
C241 H262 0.930 . S
C242 C241 1.401 . S
C242 C243 1.376 . S
C242 C251 1.511 . S
C243 C242 1.376 . S
C243 C244 1.392 . S
C243 H264 0.931 . S
C244 C243 1.392 . S
C244 C245 1.361 . S
C244 C246 1.500 . S
C245 C240 1.390 . S
C245 C244 1.361 . S
C245 H263 0.931 . S
C246 C244 1.500 . S
C246 C247 1.371 . S
C246 C248 1.365 . S
C247 C246 1.371 . S
C247 C257 1.386 . S
C247 H265 0.931 . S
C248 C246 1.365 . S
C248 C249 1.409 . S
C248 H266 0.929 . S
C249 C248 1.409 . S
C249 C250 1.380 . S
C249 H267 0.930 . S
C250 C249 1.380 . S
C250 C257 1.357 . S
C251 C242 1.511 . S
C251 C252 1.341 . S
C251 C253 1.371 . S
C252 C251 1.341 . S
C252 C256 1.394 . S
C252 H268 0.930 . S
C253 C251 1.371 . S
C253 C254 1.392 . S
C253 H269 0.931 . S
C254 C253 1.392 . S
C254 C255 1.331 . S
C254 H272 0.932 . S
C255 C254 1.331 . S
C255 C256 1.336 . S
C256 C252 1.394 . S
C256 C255 1.336 . S
C256 H271 0.929 . S
C257 C247 1.386 . S
C257 C250 1.357 . S
C257 H270 0.928 . S
H258 C234 0.931 . S
H259 C236 0.930 . S
H260 C238 0.929 . S
H261 C239 0.931 . S
H262 C241 0.930 . S
H263 C245 0.931 . S
H264 C243 0.931 . S
H265 C247 0.931 . S
H266 C248 0.929 . S
H267 C249 0.930 . S
H268 C252 0.930 . S
H269 C253 0.931 . S
H270 C257 0.928 . S
H271 C256 0.929 . S
H272 C254 0.932 . S
C273 C274 1.386 . S
C273 C275 1.397 . S
C273 H297 0.931 . S
C274 C273 1.386 . S
C274 C278 1.397 . S
C275 C273 1.397 . S
C275 C276 1.384 . S
C275 H298 0.930 . S
C276 C275 1.384 . S
C276 C277 1.377 . S
C276 C279 1.481 . S
C277 C276 1.377 . S
C277 C278 1.389 . S
C277 H299 0.929 . S
C278 C274 1.397 . S
C278 C277 1.389 . S
C278 H300 0.931 . S
C279 C276 1.481 . S
C279 C280 1.387 . S
C279 C284 1.390 . S
C280 C279 1.387 . S
C280 C281 1.401 . S
C280 H301 0.930 . S
C281 C280 1.401 . S
C281 C282 1.376 . S
C281 C290 1.511 . S
C282 C281 1.376 . S
C282 C283 1.392 . S
C282 H303 0.931 . S
C283 C282 1.392 . S
C283 C284 1.361 . S
C283 C285 1.500 . S
C284 C279 1.390 . S
C284 C283 1.361 . S
C284 H302 0.931 . S
C285 C283 1.500 . S
C285 C286 1.371 . S
C285 C287 1.365 . S
C286 C285 1.371 . S
C286 C296 1.386 . S
C286 H304 0.931 . S
C287 C285 1.365 . S
C287 C288 1.409 . S
C287 H305 0.929 . S
C288 C287 1.409 . S
C288 C289 1.380 . S
C288 H306 0.930 . S
C289 C288 1.380 . S
C289 C296 1.357 . S
C290 C281 1.511 . S
C290 C291 1.341 . S
C290 C292 1.371 . S
C291 C290 1.341 . S
C291 C295 1.394 . S
C291 H307 0.930 . S
C292 C290 1.371 . S
C292 C293 1.392 . S
C292 H308 0.931 . S
C293 C292 1.392 . S
C293 C294 1.331 . S
C293 H311 0.932 . S
C294 C293 1.331 . S
C294 C295 1.336 . S
C295 C291 1.394 . S
C295 C294 1.336 . S
C295 H310 0.929 . S
C296 C286 1.386 . S
C296 C289 1.357 . S
C296 H309 0.928 . S
H297 C273 0.931 . S
H298 C275 0.930 . S
H299 C277 0.929 . S
H300 C278 0.931 . S
H301 C280 0.930 . S
H302 C284 0.931 . S
H303 C282 0.931 . S
H304 C286 0.931 . S
H305 C287 0.929 . S
H306 C288 0.930 . S
H307 C291 0.930 . S
H308 C292 0.931 . S
H309 C296 0.928 . S
H310 C295 0.929 . S
H311 C293 0.932 . S
C312 C313 1.386 . S
C312 C314 1.397 . S
C312 H336 0.931 . S
C313 C312 1.386 . S
C313 C317 1.397 . S
C314 C312 1.397 . S
C314 C315 1.384 . S
C314 H337 0.930 . S
C315 C314 1.384 . S
C315 C316 1.377 . S
C315 C318 1.481 . S
C316 C315 1.377 . S
C316 C317 1.389 . S
C316 H338 0.929 . S
C317 C313 1.397 . S
C317 C316 1.389 . S
C317 H339 0.931 . S
C318 C315 1.481 . S
C318 C319 1.387 . S
C318 C323 1.390 . S
C319 C318 1.387 . S
C319 C320 1.401 . S
C319 H340 0.930 . S
C320 C319 1.401 . S
C320 C321 1.376 . S
C320 C329 1.511 . S
C321 C320 1.376 . S
C321 C322 1.392 . S
C321 H342 0.931 . S
C322 C321 1.392 . S
C322 C323 1.361 . S
C322 C324 1.500 . S
C323 C318 1.390 . S
C323 C322 1.361 . S
C323 H341 0.931 . S
C324 C322 1.500 . S
C324 C325 1.371 . S
C324 C326 1.365 . S
C325 C324 1.371 . S
C325 C335 1.386 . S
C325 H343 0.931 . S
C326 C324 1.365 . S
C326 C327 1.409 . S
C326 H344 0.929 . S
C327 C326 1.409 . S
C327 C328 1.380 . S
C327 H345 0.930 . S
C328 C327 1.380 . S
C328 C335 1.357 . S
C329 C320 1.511 . S
C329 C330 1.341 . S
C329 C331 1.371 . S
C330 C329 1.341 . S
C330 C334 1.394 . S
C330 H346 0.930 . S
C331 C329 1.371 . S
C331 C332 1.392 . S
C331 H347 0.931 . S
C332 C331 1.392 . S
C332 C333 1.331 . S
C332 H350 0.932 . S
C333 C332 1.331 . S
C333 C334 1.336 . S
C334 C330 1.394 . S
C334 C333 1.336 . S
C334 H349 0.929 . S
C335 C325 1.386 . S
C335 C328 1.357 . S
C335 H348 0.928 . S
H336 C312 0.931 . S
H337 C314 0.930 . S
H338 C316 0.929 . S
H339 C317 0.931 . S
H340 C319 0.930 . S
H341 C323 0.931 . S
H342 C321 0.931 . S
H343 C325 0.931 . S
H344 C326 0.929 . S
H345 C327 0.930 . S
H346 C330 0.930 . S
H347 C331 0.931 . S
H348 C335 0.928 . S
H349 C334 0.929 . S
H350 C332 0.932 . S
C351 C352 1.386 . S
C351 C353 1.397 . S
C351 H375 0.931 . S
C352 C351 1.386 . S
C352 C356 1.397 . S
C353 C351 1.397 . S
C353 C354 1.384 . S
C353 H376 0.930 . S
C354 C353 1.384 . S
C354 C355 1.377 . S
C354 C357 1.481 . S
C355 C354 1.377 . S
C355 C356 1.389 . S
C355 H377 0.929 . S
C356 C352 1.397 . S
C356 C355 1.389 . S
C356 H378 0.931 . S
C357 C354 1.481 . S
C357 C358 1.387 . S
C357 C362 1.390 . S
C358 C357 1.387 . S
C358 C359 1.401 . S
C358 H379 0.930 . S
C359 C358 1.401 . S
C359 C360 1.376 . S
C359 C368 1.511 . S
C360 C359 1.376 . S
C360 C361 1.392 . S
C360 H381 0.931 . S
C361 C360 1.392 . S
C361 C362 1.361 . S
C361 C363 1.500 . S
C362 C357 1.390 . S
C362 C361 1.361 . S
C362 H380 0.931 . S
C363 C361 1.500 . S
C363 C364 1.371 . S
C363 C365 1.365 . S
C364 C363 1.371 . S
C364 C374 1.386 . S
C364 H382 0.931 . S
C365 C363 1.365 . S
C365 C366 1.409 . S
C365 H383 0.929 . S
C366 C365 1.409 . S
C366 C367 1.380 . S
C366 H384 0.930 . S
C367 C366 1.380 . S
C367 C374 1.357 . S
C368 C359 1.511 . S
C368 C369 1.341 . S
C368 C370 1.371 . S
C369 C368 1.341 . S
C369 C373 1.394 . S
C369 H385 0.930 . S
C370 C368 1.371 . S
C370 C371 1.392 . S
C370 H386 0.931 . S
C371 C370 1.392 . S
C371 C372 1.331 . S
C371 H389 0.932 . S
C372 C371 1.331 . S
C372 C373 1.336 . S
C373 C369 1.394 . S
C373 C372 1.336 . S
C373 H388 0.929 . S
C374 C364 1.386 . S
C374 C367 1.357 . S
C374 H387 0.928 . S
H375 C351 0.931 . S
H376 C353 0.930 . S
H377 C355 0.929 . S
H378 C356 0.931 . S
H379 C358 0.930 . S
H380 C362 0.931 . S
H381 C360 0.931 . S
H382 C364 0.931 . S
H383 C365 0.929 . S
H384 C366 0.930 . S
H385 C369 0.930 . S
H386 C370 0.931 . S
H387 C374 0.928 . S
H388 C373 0.929 . S
H389 C371 0.932 . S
C390 C391 1.386 . S
C390 C392 1.397 . S
C390 H414 0.931 . S
C391 C390 1.386 . S
C391 C395 1.397 . S
C392 C390 1.397 . S
C392 C393 1.384 . S
C392 H415 0.930 . S
C393 C392 1.384 . S
C393 C394 1.377 . S
C393 C396 1.481 . S
C394 C393 1.377 . S
C394 C395 1.389 . S
C394 H416 0.929 . S
C395 C391 1.397 . S
C395 C394 1.389 . S
C395 H417 0.931 . S
C396 C393 1.481 . S
C396 C397 1.387 . S
C396 C401 1.390 . S
C397 C396 1.387 . S
C397 C398 1.401 . S
C397 H418 0.930 . S
C398 C397 1.401 . S
C398 C399 1.376 . S
C398 C407 1.511 . S
C399 C398 1.376 . S
C399 C400 1.392 . S
C399 H420 0.931 . S
C400 C399 1.392 . S
C400 C401 1.361 . S
C400 C402 1.500 . S
C401 C396 1.390 . S
C401 C400 1.361 . S
C401 H419 0.931 . S
C402 C400 1.500 . S
C402 C403 1.371 . S
C402 C404 1.365 . S
C403 C402 1.371 . S
C403 C413 1.386 . S
C403 H421 0.931 . S
C404 C402 1.365 . S
C404 C405 1.409 . S
C404 H422 0.929 . S
C405 C404 1.409 . S
C405 C406 1.380 . S
C405 H423 0.930 . S
C406 C405 1.380 . S
C406 C413 1.357 . S
C407 C398 1.511 . S
C407 C408 1.341 . S
C407 C409 1.371 . S
C408 C407 1.341 . S
C408 C412 1.394 . S
C408 H424 0.930 . S
C409 C407 1.371 . S
C409 C410 1.392 . S
C409 H425 0.931 . S
C410 C409 1.392 . S
C410 C411 1.331 . S
C410 H428 0.932 . S
C411 C410 1.331 . S
C411 C412 1.336 . S
C412 C408 1.394 . S
C412 C411 1.336 . S
C412 H427 0.929 . S
C413 C403 1.386 . S
C413 C406 1.357 . S
C413 H426 0.928 . S
H414 C390 0.931 . S
H415 C392 0.930 . S
H416 C394 0.929 . S
H417 C395 0.931 . S
H418 C397 0.930 . S
H419 C401 0.931 . S
H420 C399 0.931 . S
H421 C403 0.931 . S
H422 C404 0.929 . S
H423 C405 0.930 . S
H424 C408 0.930 . S
H425 C409 0.931 . S
H426 C413 0.928 . S
H427 C412 0.929 . S
H428 C410 0.932 . S
C429 C430 1.386 . S
C429 C431 1.397 . S
C429 H453 0.931 . S
C430 C429 1.386 . S
C430 C434 1.397 . S
C431 C429 1.397 . S
C431 C432 1.384 . S
C431 H454 0.930 . S
C432 C431 1.384 . S
C432 C433 1.377 . S
C432 C435 1.481 . S
C433 C432 1.377 . S
C433 C434 1.389 . S
C433 H455 0.929 . S
C434 C430 1.397 . S
C434 C433 1.389 . S
C434 H456 0.931 . S
C435 C432 1.481 . S
C435 C436 1.387 . S
C435 C440 1.390 . S
C436 C435 1.387 . S
C436 C437 1.401 . S
C436 H457 0.930 . S
C437 C436 1.401 . S
C437 C438 1.376 . S
C437 C446 1.511 . S
C438 C437 1.376 . S
C438 C439 1.392 . S
C438 H459 0.931 . S
C439 C438 1.392 . S
C439 C440 1.361 . S
C439 C441 1.500 . S
C440 C435 1.390 . S
C440 C439 1.361 . S
C440 H458 0.931 . S
C441 C439 1.500 . S
C441 C442 1.371 . S
C441 C443 1.365 . S
C442 C441 1.371 . S
C442 C452 1.386 . S
C442 H460 0.931 . S
C443 C441 1.365 . S
C443 C444 1.409 . S
C443 H461 0.929 . S
C444 C443 1.409 . S
C444 C445 1.380 . S
C444 H462 0.930 . S
C445 C444 1.380 . S
C445 C452 1.357 . S
C446 C437 1.511 . S
C446 C447 1.341 . S
C446 C448 1.371 . S
C447 C446 1.341 . S
C447 C451 1.394 . S
C447 H463 0.930 . S
C448 C446 1.371 . S
C448 C449 1.392 . S
C448 H464 0.931 . S
C449 C448 1.392 . S
C449 C450 1.331 . S
C449 H467 0.932 . S
C450 C449 1.331 . S
C450 C451 1.336 . S
C451 C447 1.394 . S
C451 C450 1.336 . S
C451 H466 0.929 . S
C452 C442 1.386 . S
C452 C445 1.357 . S
C452 H465 0.928 . S
H453 C429 0.931 . S
H454 C431 0.930 . S
H455 C433 0.929 . S
H456 C434 0.931 . S
H457 C436 0.930 . S
H458 C440 0.931 . S
H459 C438 0.931 . S
H460 C442 0.931 . S
H461 C443 0.929 . S
H462 C444 0.930 . S
H463 C447 0.930 . S
H464 C448 0.931 . S
H465 C452 0.928 . S
H466 C451 0.929 . S
H467 C449 0.932 . S
C468 C469 1.386 . S
C468 C470 1.397 . S
C468 H492 0.931 . S
C469 C468 1.386 . S
C469 C473 1.397 . S
C470 C468 1.397 . S
C470 C471 1.384 . S
C470 H493 0.930 . S
C471 C470 1.384 . S
C471 C472 1.377 . S
C471 C474 1.481 . S
C472 C471 1.377 . S
C472 C473 1.389 . S
C472 H494 0.929 . S
C473 C469 1.397 . S
C473 C472 1.389 . S
C473 H495 0.931 . S
C474 C471 1.481 . S
C474 C475 1.387 . S
C474 C479 1.390 . S
C475 C474 1.387 . S
C475 C476 1.401 . S
C475 H496 0.930 . S
C476 C475 1.401 . S
C476 C477 1.376 . S
C476 C485 1.511 . S
C477 C476 1.376 . S
C477 C478 1.392 . S
C477 H498 0.931 . S
C478 C477 1.392 . S
C478 C479 1.361 . S
C478 C480 1.500 . S
C479 C474 1.390 . S
C479 C478 1.361 . S
C479 H497 0.931 . S
C480 C478 1.500 . S
C480 C481 1.371 . S
C480 C482 1.365 . S
C481 C480 1.371 . S
C481 C491 1.386 . S
C481 H499 0.931 . S
C482 C480 1.365 . S
C482 C483 1.409 . S
C482 H500 0.929 . S
C483 C482 1.409 . S
C483 C484 1.380 . S
C483 H501 0.930 . S
C484 C483 1.380 . S
C484 C491 1.357 . S
C485 C476 1.511 . S
C485 C486 1.341 . S
C485 C487 1.371 . S
C486 C485 1.341 . S
C486 C490 1.394 . S
C486 H502 0.930 . S
C487 C485 1.371 . S
C487 C488 1.392 . S
C487 H503 0.931 . S
C488 C487 1.392 . S
C488 C489 1.331 . S
C488 H506 0.932 . S
C489 C488 1.331 . S
C489 C490 1.336 . S
C490 C486 1.394 . S
C490 C489 1.336 . S
C490 H505 0.929 . S
C491 C481 1.386 . S
C491 C484 1.357 . S
C491 H504 0.928 . S
H492 C468 0.931 . S
H493 C470 0.930 . S
H494 C472 0.929 . S
H495 C473 0.931 . S
H496 C475 0.930 . S
H497 C479 0.931 . S
H498 C477 0.931 . S
H499 C481 0.931 . S
H500 C482 0.929 . S
H501 C483 0.930 . S
H502 C486 0.930 . S
H503 C487 0.931 . S
H504 C491 0.928 . S
H505 C490 0.929 . S
H506 C488 0.932 . S
C507 C508 1.386 . S
C507 C509 1.397 . S
C507 H531 0.931 . S
C508 C507 1.386 . S
C508 C512 1.397 . S
C509 C507 1.397 . S
C509 C510 1.384 . S
C509 H532 0.930 . S
C510 C509 1.384 . S
C510 C511 1.377 . S
C510 C513 1.481 . S
C511 C510 1.377 . S
C511 C512 1.389 . S
C511 H533 0.929 . S
C512 C508 1.397 . S
C512 C511 1.389 . S
C512 H534 0.931 . S
C513 C510 1.481 . S
C513 C514 1.387 . S
C513 C518 1.390 . S
C514 C513 1.387 . S
C514 C515 1.401 . S
C514 H535 0.930 . S
C515 C514 1.401 . S
C515 C516 1.376 . S
C515 C524 1.511 . S
C516 C515 1.376 . S
C516 C517 1.392 . S
C516 H537 0.931 . S
C517 C516 1.392 . S
C517 C518 1.361 . S
C517 C519 1.500 . S
C518 C513 1.390 . S
C518 C517 1.361 . S
C518 H536 0.931 . S
C519 C517 1.500 . S
C519 C520 1.371 . S
C519 C521 1.365 . S
C520 C519 1.371 . S
C520 C530 1.386 . S
C520 H538 0.931 . S
C521 C519 1.365 . S
C521 C522 1.409 . S
C521 H539 0.929 . S
C522 C521 1.409 . S
C522 C523 1.380 . S
C522 H540 0.930 . S
C523 C522 1.380 . S
C523 C530 1.357 . S
C524 C515 1.511 . S
C524 C525 1.341 . S
C524 C526 1.371 . S
C525 C524 1.341 . S
C525 C529 1.394 . S
C525 H541 0.930 . S
C526 C524 1.371 . S
C526 C527 1.392 . S
C526 H542 0.931 . S
C527 C526 1.392 . S
C527 C528 1.331 . S
C527 H545 0.932 . S
C528 C527 1.331 . S
C528 C529 1.336 . S
C529 C525 1.394 . S
C529 C528 1.336 . S
C529 H544 0.929 . S
C530 C520 1.386 . S
C530 C523 1.357 . S
C530 H543 0.928 . S
H531 C507 0.931 . S
H532 C509 0.930 . S
H533 C511 0.929 . S
H534 C512 0.931 . S
H535 C514 0.930 . S
H536 C518 0.931 . S
H537 C516 0.931 . S
H538 C520 0.931 . S
H539 C521 0.929 . S
H540 C522 0.930 . S
H541 C525 0.930 . S
H542 C526 0.931 . S
H543 C530 0.928 . S
H544 C529 0.929 . S
H545 C527 0.932 . S
C546 C547 1.386 . S
C546 C548 1.397 . S
C546 H570 0.931 . S
C547 C546 1.386 . S
C547 C551 1.397 . S
C548 C546 1.397 . S
C548 C549 1.384 . S
C548 H571 0.930 . S
C549 C548 1.384 . S
C549 C550 1.377 . S
C549 C552 1.481 . S
C550 C549 1.377 . S
C550 C551 1.389 . S
C550 H572 0.929 . S
C551 C547 1.397 . S
C551 C550 1.389 . S
C551 H573 0.931 . S
C552 C549 1.481 . S
C552 C553 1.387 . S
C552 C557 1.390 . S
C553 C552 1.387 . S
C553 C554 1.401 . S
C553 H574 0.930 . S
C554 C553 1.401 . S
C554 C555 1.376 . S
C554 C563 1.511 . S
C555 C554 1.376 . S
C555 C556 1.392 . S
C555 H576 0.931 . S
C556 C555 1.392 . S
C556 C557 1.361 . S
C556 C558 1.500 . S
C557 C552 1.390 . S
C557 C556 1.361 . S
C557 H575 0.931 . S
C558 C556 1.500 . S
C558 C559 1.371 . S
C558 C560 1.365 . S
C559 C558 1.371 . S
C559 C569 1.386 . S
C559 H577 0.931 . S
C560 C558 1.365 . S
C560 C561 1.409 . S
C560 H578 0.929 . S
C561 C560 1.409 . S
C561 C562 1.380 . S
C561 H579 0.930 . S
C562 C561 1.380 . S
C562 C569 1.357 . S
C563 C554 1.511 . S
C563 C564 1.341 . S
C563 C565 1.371 . S
C564 C563 1.341 . S
C564 C568 1.394 . S
C564 H580 0.930 . S
C565 C563 1.371 . S
C565 C566 1.392 . S
C565 H581 0.931 . S
C566 C565 1.392 . S
C566 C567 1.331 . S
C566 H584 0.932 . S
C567 C566 1.331 . S
C567 C568 1.336 . S
C568 C564 1.394 . S
C568 C567 1.336 . S
C568 H583 0.929 . S
C569 C559 1.386 . S
C569 C562 1.357 . S
C569 H582 0.928 . S
H570 C546 0.931 . S
H571 C548 0.930 . S
H572 C550 0.929 . S
H573 C551 0.931 . S
H574 C553 0.930 . S
H575 C557 0.931 . S
H576 C555 0.931 . S
H577 C559 0.931 . S
H578 C560 0.929 . S
H579 C561 0.930 . S
H580 C564 0.930 . S
H581 C565 0.931 . S
H582 C569 0.928 . S
H583 C568 0.929 . S
H584 C566 0.932 . S
C585 C586 1.386 . S
C585 C587 1.397 . S
C585 H609 0.931 . S
C586 C585 1.386 . S
C586 C590 1.397 . S
C587 C585 1.397 . S
C587 C588 1.384 . S
C587 H610 0.930 . S
C588 C587 1.384 . S
C588 C589 1.377 . S
C588 C591 1.481 . S
C589 C588 1.377 . S
C589 C590 1.389 . S
C589 H611 0.929 . S
C590 C586 1.397 . S
C590 C589 1.389 . S
C590 H612 0.931 . S
C591 C588 1.481 . S
C591 C592 1.387 . S
C591 C596 1.390 . S
C592 C591 1.387 . S
C592 C593 1.401 . S
C592 H613 0.930 . S
C593 C592 1.401 . S
C593 C594 1.376 . S
C593 C602 1.511 . S
C594 C593 1.376 . S
C594 C595 1.392 . S
C594 H615 0.931 . S
C595 C594 1.392 . S
C595 C596 1.361 . S
C595 C597 1.500 . S
C596 C591 1.390 . S
C596 C595 1.361 . S
C596 H614 0.931 . S
C597 C595 1.500 . S
C597 C598 1.371 . S
C597 C599 1.365 . S
C598 C597 1.371 . S
C598 C608 1.386 . S
C598 H616 0.931 . S
C599 C597 1.365 . S
C599 C600 1.409 . S
C599 H617 0.929 . S
C600 C599 1.409 . S
C600 C601 1.380 . S
C600 H618 0.930 . S
C601 C600 1.380 . S
C601 C608 1.357 . S
C602 C593 1.511 . S
C602 C603 1.341 . S
C602 C604 1.371 . S
C603 C602 1.341 . S
C603 C607 1.394 . S
C603 H619 0.930 . S
C604 C602 1.371 . S
C604 C605 1.392 . S
C604 H620 0.931 . S
C605 C604 1.392 . S
C605 C606 1.331 . S
C605 H623 0.932 . S
C606 C605 1.331 . S
C606 C607 1.336 . S
C607 C603 1.394 . S
C607 C606 1.336 . S
C607 H622 0.929 . S
C608 C598 1.386 . S
C608 C601 1.357 . S
C608 H621 0.928 . S
H609 C585 0.931 . S
H610 C587 0.930 . S
H611 C589 0.929 . S
H612 C590 0.931 . S
H613 C592 0.930 . S
H614 C596 0.931 . S
H615 C594 0.931 . S
H616 C598 0.931 . S
H617 C599 0.929 . S
H618 C600 0.930 . S
H619 C603 0.930 . S
H620 C604 0.931 . S
H621 C608 0.928 . S
H622 C607 0.929 . S
H623 C605 0.932 . S
C624 C625 1.386 . S
C624 C626 1.397 . S
C624 H648 0.931 . S
C625 C624 1.386 . S
C625 C629 1.397 . S
C626 C624 1.397 . S
C626 C627 1.384 . S
C626 H649 0.930 . S
C627 C626 1.384 . S
C627 C628 1.377 . S
C627 C630 1.481 . S
C628 C627 1.377 . S
C628 C629 1.389 . S
C628 H650 0.929 . S
C629 C625 1.397 . S
C629 C628 1.389 . S
C629 H651 0.931 . S
C630 C627 1.481 . S
C630 C631 1.387 . S
C630 C635 1.390 . S
C631 C630 1.387 . S
C631 C632 1.401 . S
C631 H652 0.930 . S
C632 C631 1.401 . S
C632 C633 1.376 . S
C632 C641 1.511 . S
C633 C632 1.376 . S
C633 C634 1.392 . S
C633 H654 0.931 . S
C634 C633 1.392 . S
C634 C635 1.361 . S
C634 C636 1.500 . S
C635 C630 1.390 . S
C635 C634 1.361 . S
C635 H653 0.931 . S
C636 C634 1.500 . S
C636 C637 1.371 . S
C636 C638 1.365 . S
C637 C636 1.371 . S
C637 C647 1.386 . S
C637 H655 0.931 . S
C638 C636 1.365 . S
C638 C639 1.409 . S
C638 H656 0.929 . S
C639 C638 1.409 . S
C639 C640 1.380 . S
C639 H657 0.930 . S
C640 C639 1.380 . S
C640 C647 1.357 . S
C641 C632 1.511 . S
C641 C642 1.341 . S
C641 C643 1.371 . S
C642 C641 1.341 . S
C642 C646 1.394 . S
C642 H658 0.930 . S
C643 C641 1.371 . S
C643 C644 1.392 . S
C643 H659 0.931 . S
C644 C643 1.392 . S
C644 C645 1.331 . S
C644 H662 0.932 . S
C645 C644 1.331 . S
C645 C646 1.336 . S
C646 C642 1.394 . S
C646 C645 1.336 . S
C646 H661 0.929 . S
C647 C637 1.386 . S
C647 C640 1.357 . S
C647 H660 0.928 . S
H648 C624 0.931 . S
H649 C626 0.930 . S
H650 C628 0.929 . S
H651 C629 0.931 . S
H652 C631 0.930 . S
H653 C635 0.931 . S
H654 C633 0.931 . S
H655 C637 0.931 . S
H656 C638 0.929 . S
H657 C639 0.930 . S
H658 C642 0.930 . S
H659 C643 0.931 . S
H660 C647 0.928 . S
H661 C646 0.929 . S
H662 C644 0.932 . S
C663 C664 1.386 . S
C663 C665 1.397 . S
C663 H687 0.931 . S
C664 C663 1.386 . S
C664 C668 1.397 . S
C665 C663 1.397 . S
C665 C666 1.384 . S
C665 H688 0.930 . S
C666 C665 1.384 . S
C666 C667 1.377 . S
C666 C669 1.481 . S
C667 C666 1.377 . S
C667 C668 1.389 . S
C667 H689 0.929 . S
C668 C664 1.397 . S
C668 C667 1.389 . S
C668 H690 0.931 . S
C669 C666 1.481 . S
C669 C670 1.387 . S
C669 C674 1.390 . S
C670 C669 1.387 . S
C670 C671 1.401 . S
C670 H691 0.930 . S
C671 C670 1.401 . S
C671 C672 1.376 . S
C671 C680 1.511 . S
C672 C671 1.376 . S
C672 C673 1.392 . S
C672 H693 0.931 . S
C673 C672 1.392 . S
C673 C674 1.361 . S
C673 C675 1.500 . S
C674 C669 1.390 . S
C674 C673 1.361 . S
C674 H692 0.931 . S
C675 C673 1.500 . S
C675 C676 1.371 . S
C675 C677 1.365 . S
C676 C675 1.371 . S
C676 C686 1.386 . S
C676 H694 0.931 . S
C677 C675 1.365 . S
C677 C678 1.409 . S
C677 H695 0.929 . S
C678 C677 1.409 . S
C678 C679 1.380 . S
C678 H696 0.930 . S
C679 C678 1.380 . S
C679 C686 1.357 . S
C680 C671 1.511 . S
C680 C681 1.341 . S
C680 C682 1.371 . S
C681 C680 1.341 . S
C681 C685 1.394 . S
C681 H697 0.930 . S
C682 C680 1.371 . S
C682 C683 1.392 . S
C682 H698 0.931 . S
C683 C682 1.392 . S
C683 C684 1.331 . S
C683 H701 0.932 . S
C684 C683 1.331 . S
C684 C685 1.336 . S
C685 C681 1.394 . S
C685 C684 1.336 . S
C685 H700 0.929 . S
C686 C676 1.386 . S
C686 C679 1.357 . S
C686 H699 0.928 . S
H687 C663 0.931 . S
H688 C665 0.930 . S
H689 C667 0.929 . S
H690 C668 0.931 . S
H691 C670 0.930 . S
H692 C674 0.931 . S
H693 C672 0.931 . S
H694 C676 0.931 . S
H695 C677 0.929 . S
H696 C678 0.930 . S
H697 C681 0.930 . S
H698 C682 0.931 . S
H699 C686 0.928 . S
H700 C685 0.929 . S
H701 C683 0.932 . S
Tb702 O705 2.453 . S
Tb702 O706 2.596 1_545 S
Tb702 O707 2.374 1_545 S
Tb702 O715 2.343 1_554 S
Tb702 O717 2.353 . S
Tb702 O719 2.427 1_554 S
Tb702 O720 2.513 1_554 S
C703 O707 1.251 . S
C703 O709 1.263 . S
Tb704 O706 2.343 1_556 S
Tb704 O709 2.353 1_556 S
Tb704 O712 2.427 1_556 S
Tb704 O713 2.513 1_556 S
Tb704 O714 2.453 . S
Tb704 O715 2.596 1_565 S
Tb704 O716 2.374 1_565 S
O705 Tb702 2.453 . S
O705 C721 1.245 . S
O706 Tb702 2.596 1_565 S
O706 Tb704 2.343 1_554 S
O706 C721 1.259 1_565 S
O707 Tb702 2.374 1_565 S
O707 C703 1.251 . S
C708 O712 1.275 . S
C708 O713 1.246 . S
O709 C703 1.263 . S
O709 Tb704 2.353 1_554 S
C710 O714 1.269 . S
C710 O715 1.255 1_565 S
C711 O716 1.250 . S
C711 O717 1.263 1_556 S
O712 Tb704 2.427 1_554 S
O712 C708 1.275 . S
O713 Tb704 2.513 1_554 S
O713 C708 1.246 . S
O714 Tb704 2.453 . S
O714 C710 1.269 . S
O715 Tb702 2.343 1_556 S
O715 Tb704 2.596 1_545 S
O715 C710 1.255 1_545 S
O716 Tb704 2.374 1_545 S
O716 C711 1.250 . S
O717 Tb702 2.353 . S
O717 C711 1.263 1_554 S
C718 O719 1.275 . S
C718 O720 1.246 . S
O719 Tb702 2.427 1_556 S
O719 C718 1.275 . S
O720 Tb702 2.513 1_556 S
O720 C718 1.246 . S
C721 O705 1.245 . S
C721 O706 1.259 1_545 S
Tb722 O725 2.453 . S
Tb722 O726 2.596 1_655 S
Tb722 O727 2.374 1_655 S
Tb722 O735 2.343 1_554 S
Tb722 O737 2.353 . S
Tb722 O739 2.427 1_554 S
Tb722 O740 2.513 1_554 S
C723 O727 1.251 . S
C723 O729 1.263 . S
Tb724 O726 2.343 1_556 S
Tb724 O729 2.353 1_556 S
Tb724 O732 2.427 1_556 S
Tb724 O733 2.513 1_556 S
Tb724 O734 2.453 . S
Tb724 O735 2.596 1_455 S
Tb724 O736 2.374 1_455 S
O725 Tb722 2.453 . S
O725 C741 1.245 1_655 S
O726 Tb722 2.596 1_455 S
O726 Tb724 2.343 1_554 S
O726 C741 1.259 . S
O727 Tb722 2.374 1_455 S
O727 C723 1.251 . S
C728 O732 1.275 . S
C728 O733 1.246 . S
O729 C723 1.263 . S
O729 Tb724 2.353 1_554 S
C730 O734 1.251 . S
C730 O735 1.257 1_455 S
C731 O736 1.250 . S
C731 O737 1.263 1_556 S
O732 Tb724 2.427 1_554 S
O732 C728 1.275 . S
O733 Tb724 2.513 1_554 S
O733 C728 1.246 . S
O734 Tb724 2.453 . S
O734 C730 1.251 . S
O735 Tb722 2.343 1_556 S
O735 Tb724 2.596 1_655 S
O735 C730 1.257 1_655 S
O736 Tb724 2.374 1_655 S
O736 C731 1.250 . S
O737 Tb722 2.353 . S
O737 C731 1.263 1_554 S
C738 O739 1.275 . S
C738 O740 1.246 . S
O739 Tb722 2.427 1_556 S
O739 C738 1.275 . S
O740 Tb722 2.513 1_556 S
O740 C738 1.246 . S
C741 O725 1.245 1_455 S
C741 O726 1.259 . S
Tb742 O745 2.453 . S
Tb742 O746 2.596 . S
Tb742 O747 2.374 . S
Tb742 O755 2.343 1_556 S
Tb742 O757 2.353 1_556 S
Tb742 O759 2.427 1_556 S
Tb742 O760 2.513 1_556 S
C743 O747 1.251 . S
C743 O749 1.263 1_556 S
Tb744 O746 2.343 1_554 S
Tb744 O749 2.353 . S
Tb744 O752 2.427 1_554 S
Tb744 O753 2.513 1_554 S
Tb744 O754 2.453 . S
Tb744 O755 2.596 . S
Tb744 O756 2.374 . S
O745 Tb742 2.453 . S
O745 C761 1.245 . S
O746 Tb742 2.596 . S
O746 Tb744 2.343 1_556 S
O746 C761 1.259 . S
O747 Tb742 2.374 . S
O747 C743 1.251 . S
C748 O752 1.275 . S
C748 O753 1.246 . S
O749 C743 1.263 1_554 S
O749 Tb744 2.353 . S
C750 O754 1.245 . S
C750 O755 1.259 . S
C751 O756 1.250 . S
C751 O757 1.263 . S
O752 Tb744 2.427 1_556 S
O752 C748 1.275 . S
O753 Tb744 2.513 1_556 S
O753 C748 1.246 . S
O754 Tb744 2.453 . S
O754 C750 1.245 . S
O755 Tb742 2.343 1_554 S
O755 Tb744 2.596 . S
O755 C750 1.259 . S
O756 Tb744 2.374 . S
O756 C751 1.250 . S
O757 Tb742 2.353 1_554 S
O757 C751 1.263 . S
C758 O759 1.275 . S
C758 O760 1.246 . S
O759 Tb742 2.427 1_554 S
O759 C758 1.275 . S
O760 Tb742 2.513 1_554 S
O760 C758 1.246 . S
C761 O745 1.245 . S
C761 O746 1.259 . S
Tb762 O765 2.453 . S
Tb762 O766 2.596 . S
Tb762 O767 2.374 . S
Tb762 O775 2.343 . S
Tb762 O777 2.353 . S
Tb762 O779 2.427 . S
Tb762 O780 2.513 . S
C763 O767 1.251 . S
C763 O769 1.263 . S
Tb764 O766 2.343 . S
Tb764 O769 2.353 . S
Tb764 O772 2.427 . S
Tb764 O773 2.513 . S
Tb764 O774 2.453 . S
Tb764 O775 2.596 . S
Tb764 O776 2.374 . S
O765 Tb762 2.453 . S
O765 C781 1.245 . S
O766 Tb762 2.596 . S
O766 Tb764 2.343 . S
O766 C781 1.259 . S
O767 Tb762 2.374 . S
O767 C763 1.251 . S
C768 O772 1.275 . S
C768 O773 1.246 . S
O769 C763 1.263 . S
O769 Tb764 2.353 . S
C770 O774 1.245 . S
C770 O775 1.259 . S
C771 O776 1.250 . S
C771 O777 1.263 . S
O772 Tb764 2.427 . S
O772 C768 1.275 . S
O773 Tb764 2.513 . S
O773 C768 1.246 . S
O774 Tb764 2.453 . S
O774 C770 1.245 . S
O775 Tb762 2.343 . S
O775 Tb764 2.596 . S
O775 C770 1.259 . S
O776 Tb764 2.374 . S
O776 C771 1.250 . S
O777 Tb762 2.353 . S
O777 C771 1.263 . S
C778 O779 1.275 . S
C778 O780 1.246 . S
O779 Tb762 2.427 . S
O779 C778 1.275 . S
O780 Tb762 2.513 . S
O780 C778 1.246 . S
C781 O765 1.245 . S
C781 O766 1.259 . S
Tb782 O785 2.453 . S
Tb782 O786 2.596 . S
Tb782 O787 2.374 . S
Tb782 O795 2.343 . S
Tb782 O797 2.353 . S
Tb782 O799 2.427 . S
Tb782 O800 2.513 . S
C783 O787 1.251 . S
C783 O789 1.263 . S
Tb784 O786 2.343 . S
Tb784 O789 2.353 . S
Tb784 O792 2.427 . S
Tb784 O793 2.513 . S
Tb784 O794 2.453 . S
Tb784 O795 2.596 . S
Tb784 O796 2.374 . S
O785 Tb782 2.453 . S
O785 C801 1.245 . S
O786 Tb782 2.596 . S
O786 Tb784 2.343 . S
O786 C801 1.259 . S
O787 Tb782 2.374 . S
O787 C783 1.251 . S
C788 O792 1.275 . S
C788 O793 1.246 . S
O789 C783 1.263 . S
O789 Tb784 2.353 . S
C790 O794 1.245 . S
C790 O795 1.259 . S
C791 O796 1.250 . S
C791 O797 1.263 . S
O792 Tb784 2.427 . S
O792 C788 1.275 . S
O793 Tb784 2.513 . S
O793 C788 1.246 . S
O794 Tb784 2.453 . S
O794 C790 1.245 . S
O795 Tb782 2.343 . S
O795 Tb784 2.596 . S
O795 C790 1.259 . S
O796 Tb784 2.374 . S
O796 C791 1.250 . S
O797 Tb782 2.353 . S
O797 C791 1.263 . S
C798 O799 1.275 . S
C798 O800 1.246 . S
O799 Tb782 2.427 . S
O799 C798 1.275 . S
O800 Tb782 2.513 . S
O800 C798 1.246 . S
C801 O785 1.245 . S
C801 O786 1.259 . S
Tb802 O805 2.453 . S
Tb802 O806 2.596 . S
Tb802 O807 2.374 . S
Tb802 O815 2.343 . S
Tb802 O817 2.353 . S
Tb802 O819 2.427 . S
Tb802 O820 2.513 . S
C803 O807 1.251 . S
C803 O809 1.263 . S
Tb804 O806 2.343 . S
Tb804 O809 2.353 . S
Tb804 O812 2.427 . S
Tb804 O813 2.513 . S
Tb804 O814 2.453 . S
Tb804 O815 2.596 . S
Tb804 O816 2.374 . S
O805 Tb802 2.453 . S
O805 C821 1.245 . S
O806 Tb802 2.596 . S
O806 Tb804 2.343 . S
O806 C821 1.259 . S
O807 Tb802 2.374 . S
O807 C803 1.251 . S
C808 O812 1.275 . S
C808 O813 1.246 . S
O809 C803 1.263 . S
O809 Tb804 2.353 . S
C810 O814 1.245 . S
C810 O815 1.259 . S
C811 O816 1.250 . S
C811 O817 1.263 . S
O812 Tb804 2.427 . S
O812 C808 1.275 . S
O813 Tb804 2.513 . S
O813 C808 1.246 . S
O814 Tb804 2.453 . S
O814 C810 1.245 . S
O815 Tb802 2.343 . S
O815 Tb804 2.596 . S
O815 C810 1.259 . S
O816 Tb804 2.374 . S
O816 C811 1.250 . S
O817 Tb802 2.353 . S
O817 C811 1.263 . S
C818 O819 1.275 . S
C818 O820 1.246 . S
O819 Tb802 2.427 . S
O819 C818 1.275 . S
O820 Tb802 2.513 . S
O820 C818 1.246 . S
C821 O805 1.245 . S
C821 O806 1.259 . S
Tb822 O825 2.453 . S
Tb822 O826 2.596 . S
Tb822 O827 2.374 . S
Tb822 O835 2.343 . S
Tb822 O837 2.353 . S
Tb822 O839 2.427 . S
Tb822 O840 2.513 . S
C823 O827 1.251 . S
C823 O829 1.263 . S
Tb824 O826 2.343 . S
Tb824 O829 2.353 . S
Tb824 O832 2.427 . S
Tb824 O833 2.513 . S
Tb824 O834 2.453 . S
Tb824 O835 2.596 . S
Tb824 O836 2.374 . S
O825 Tb822 2.453 . S
O825 C841 1.245 . S
O826 Tb822 2.596 . S
O826 Tb824 2.343 . S
O826 C841 1.259 . S
O827 Tb822 2.374 . S
O827 C823 1.251 . S
C828 O832 1.275 . S
C828 O833 1.246 . S
O829 C823 1.263 . S
O829 Tb824 2.353 . S
C830 O834 1.245 . S
C830 O835 1.259 . S
C831 O836 1.250 . S
C831 O837 1.263 . S
O832 Tb824 2.427 . S
O832 C828 1.275 . S
O833 Tb824 2.513 . S
O833 C828 1.246 . S
O834 Tb824 2.453 . S
O834 C830 1.245 . S
O835 Tb822 2.343 . S
O835 Tb824 2.596 . S
O835 C830 1.259 . S
O836 Tb824 2.374 . S
O836 C831 1.250 . S
O837 Tb822 2.353 . S
O837 C831 1.263 . S
C838 O839 1.275 . S
C838 O840 1.246 . S
O839 Tb822 2.427 . S
O839 C838 1.275 . S
O840 Tb822 2.513 . S
O840 C838 1.246 . S
C841 O825 1.245 . S
C841 O826 1.259 . S
Tb842 O845 2.453 . S
Tb842 O846 2.596 . S
Tb842 O847 2.374 . S
Tb842 O855 2.343 . S
Tb842 O857 2.353 . S
Tb842 O859 2.427 . S
Tb842 O860 2.513 . S
C843 O847 1.251 . S
C843 O849 1.263 . S
Tb844 O846 2.343 . S
Tb844 O849 2.353 . S
Tb844 O852 2.427 . S
Tb844 O853 2.513 . S
Tb844 O854 2.453 . S
Tb844 O855 2.596 . S
Tb844 O856 2.374 . S
O845 Tb842 2.453 . S
O845 C861 1.245 . S
O846 Tb842 2.596 . S
O846 Tb844 2.343 . S
O846 C861 1.259 . S
O847 Tb842 2.374 . S
O847 C843 1.251 . S
C848 O852 1.275 . S
C848 O853 1.246 . S
O849 C843 1.263 . S
O849 Tb844 2.353 . S
C850 O854 1.245 . S
C850 O855 1.259 . S
C851 O856 1.250 . S
C851 O857 1.263 . S
O852 Tb844 2.427 . S
O852 C848 1.275 . S
O853 Tb844 2.513 . S
O853 C848 1.246 . S
O854 Tb844 2.453 . S
O854 C850 1.245 . S
O855 Tb842 2.343 . S
O855 Tb844 2.596 . S
O855 C850 1.259 . S
O856 Tb844 2.374 . S
O856 C851 1.250 . S
O857 Tb842 2.353 . S
O857 C851 1.263 . S
C858 O859 1.275 . S
C858 O860 1.246 . S
O859 Tb842 2.427 . S
O859 C858 1.275 . S
O860 Tb842 2.513 . S
O860 C858 1.246 . S
C861 O845 1.245 . S
C861 O846 1.259 . S
Tb862 O865 2.453 . S
Tb862 O866 2.596 . S
Tb862 O867 2.374 . S
Tb862 O875 2.343 . S
Tb862 O877 2.353 . S
Tb862 O879 2.427 . S
Tb862 O880 2.513 . S
C863 O867 1.251 . S
C863 O869 1.263 . S
Tb864 O866 2.343 . S
Tb864 O869 2.353 . S
Tb864 O872 2.427 . S
Tb864 O873 2.513 . S
Tb864 O874 2.453 . S
Tb864 O875 2.596 . S
Tb864 O876 2.374 . S
O865 Tb862 2.453 . S
O865 C881 1.245 . S
O866 Tb862 2.596 . S
O866 Tb864 2.343 . S
O866 C881 1.259 . S
O867 Tb862 2.374 . S
O867 C863 1.251 . S
C868 O872 1.275 . S
C868 O873 1.246 . S
O869 C863 1.263 . S
O869 Tb864 2.353 . S
C870 O874 1.245 . S
C870 O875 1.259 . S
C871 O876 1.250 . S
C871 O877 1.263 . S
O872 Tb864 2.427 . S
O872 C868 1.275 . S
O873 Tb864 2.513 . S
O873 C868 1.246 . S
O874 Tb864 2.453 . S
O874 C870 1.245 . S
O875 Tb862 2.343 . S
O875 Tb864 2.596 . S
O875 C870 1.259 . S
O876 Tb864 2.374 . S
O876 C871 1.250 . S
O877 Tb862 2.353 . S
O877 C871 1.263 . S
C878 O879 1.275 . S
C878 O880 1.246 . S
O879 Tb862 2.427 . S
O879 C878 1.275 . S
O880 Tb862 2.513 . S
O880 C878 1.246 . S
C881 O865 1.245 . S
C881 O866 1.259 . S
H882 C888 0.930 . S
H883 C891 0.930 . S
H884 C892 0.930 . S
H885 C893 0.930 . S
H886 C896 0.930 . S
H887 C897 0.930 . S
C888 H882 0.930 . S
C888 C889 1.355 . S
C888 C890 1.415 . S
C889 C888 1.355 . S
C889 C891 1.419 . S
C890 C888 1.415 . S
C890 C895 1.425 . S
C890 C897 1.409 . S
C891 H883 0.930 . S
C891 C889 1.419 . S
C891 C892 1.362 . S
C892 H884 0.930 . S
C892 C891 1.362 . S
C892 C895 1.409 . S
C893 H885 0.930 . S
C893 C894 1.355 . S
C893 C895 1.415 . S
C894 C893 1.355 . S
C894 C896 1.419 . S
C895 C890 1.425 . S
C895 C892 1.409 . S
C895 C893 1.415 . S
C896 H886 0.930 . S
C896 C894 1.419 . S
C896 C897 1.362 . S
C897 H887 0.930 . S
C897 C890 1.409 . S
C897 C896 1.362 . S
H898 C904 0.930 . S
H899 C907 0.930 . S
H900 C908 0.930 . S
H901 C909 0.930 . S
H902 C912 0.930 . S
H903 C913 0.930 . S
C904 H898 0.930 . S
C904 C905 1.355 . S
C904 C906 1.415 . S
C905 C904 1.355 . S
C905 C907 1.419 . S
C906 C904 1.415 . S
C906 C911 1.425 . S
C906 C913 1.409 . S
C907 H899 0.930 . S
C907 C905 1.419 . S
C907 C908 1.362 . S
C908 H900 0.930 . S
C908 C907 1.362 . S
C908 C911 1.409 . S
C909 H901 0.930 . S
C909 C910 1.355 . S
C909 C911 1.415 . S
C910 C909 1.355 . S
C910 C912 1.419 . S
C911 C906 1.425 . S
C911 C908 1.409 . S
C911 C909 1.415 . S
C912 H902 0.930 . S
C912 C910 1.419 . S
C912 C913 1.362 . S
C913 H903 0.930 . S
C913 C906 1.409 . S
C913 C912 1.362 . S
H914 C920 0.930 . S
H915 C923 0.930 . S
H916 C924 0.930 1_556 S
H917 C925 0.911 1_556 S
H918 C928 0.930 . S
H919 C929 0.930 . S
C920 H914 0.930 . S
C920 C921 1.355 . S
C920 C922 1.415 . S
C921 C920 1.355 . S
C921 C923 1.419 . S
C922 C920 1.415 . S
C922 C927 1.425 . S
C922 C929 1.409 . S
C923 H915 0.930 . S
C923 C921 1.419 . S
C923 C924 1.362 . S
C924 H916 0.930 1_554 S
C924 C923 1.362 . S
C924 C927 1.409 . S
C925 H917 0.911 1_554 S
C925 C926 1.355 . S
C925 C927 1.415 . S
C926 C925 1.355 . S
C926 C928 1.419 . S
C927 C922 1.425 . S
C927 C924 1.409 . S
C927 C925 1.415 . S
C928 H918 0.930 . S
C928 C926 1.419 . S
C928 C929 1.362 . S
C929 H919 0.930 . S
C929 C922 1.409 . S
C929 C928 1.362 . S
H930 C936 0.930 . S
H931 C939 0.930 . S
H932 C940 0.930 . S
H933 C941 0.930 . S
H934 C944 0.930 . S
H935 C945 0.930 . S
C936 H930 0.930 . S
C936 C937 1.355 . S
C936 C938 1.415 . S
C937 C936 1.355 . S
C937 C939 1.419 . S
C938 C936 1.415 . S
C938 C943 1.425 . S
C938 C945 1.409 . S
C939 H931 0.930 . S
C939 C937 1.419 . S
C939 C940 1.362 . S
C940 H932 0.930 . S
C940 C939 1.362 . S
C940 C943 1.409 . S
C941 H933 0.930 . S
C941 C942 1.355 . S
C941 C943 1.415 . S
C942 C941 1.355 . S
C942 C944 1.419 . S
C943 C938 1.425 . S
C943 C940 1.409 . S
C943 C941 1.415 . S
C944 H934 0.930 . S
C944 C942 1.419 . S
C944 C945 1.362 . S
C945 H935 0.930 . S
C945 C938 1.409 . S
C945 C944 1.362 . S
H946 C952 0.930 . S
H947 C955 0.930 . S
H948 C956 0.930 . S
H949 C957 0.930 . S
H950 C960 0.930 . S
H951 C961 0.930 . S
C952 H946 0.930 . S
C952 C953 1.355 . S
C952 C954 1.415 . S
C953 C952 1.355 . S
C953 C955 1.419 . S
C954 C952 1.415 . S
C954 C959 1.425 . S
C954 C961 1.409 . S
C955 H947 0.930 . S
C955 C953 1.419 . S
C955 C956 1.362 . S
C956 H948 0.930 . S
C956 C955 1.362 . S
C956 C959 1.409 . S
C957 H949 0.930 . S
C957 C958 1.355 . S
C957 C959 1.415 . S
C958 C957 1.355 . S
C958 C960 1.419 . S
C959 C954 1.425 . S
C959 C956 1.409 . S
C959 C957 1.415 . S
C960 H950 0.930 . S
C960 C958 1.419 . S
C960 C961 1.362 . S
C961 H951 0.930 . S
C961 C954 1.409 . S
C961 C960 1.362 . S
H962 C968 0.930 . S
H963 C971 0.930 . S
H964 C972 0.930 . S
H965 C973 0.930 . S
H966 C976 0.930 . S
H967 C977 0.930 . S
C968 H962 0.930 . S
C968 C969 1.355 . S
C968 C970 1.415 . S
C969 C968 1.355 . S
C969 C971 1.419 . S
C970 C968 1.415 . S
C970 C975 1.425 . S
C970 C977 1.409 . S
C971 H963 0.930 . S
C971 C969 1.419 . S
C971 C972 1.362 . S
C972 H964 0.930 . S
C972 C971 1.362 . S
C972 C975 1.409 . S
C973 H965 0.930 . S
C973 C974 1.355 . S
C973 C975 1.415 . S
C974 C973 1.355 . S
C974 C976 1.419 . S
C975 C970 1.425 . S
C975 C972 1.409 . S
C975 C973 1.415 . S
C976 H966 0.930 . S
C976 C974 1.419 . S
C976 C977 1.362 . S
C977 H967 0.930 . S
C977 C970 1.409 . S
C977 C976 1.362 . S
H978 C984 0.930 . S
H979 C987 0.930 . S
H980 C988 0.930 . S
H981 C989 0.930 . S
H982 C992 0.930 . S
H983 C993 0.930 . S
C984 H978 0.930 . S
C984 C985 1.355 . S
C984 C986 1.415 . S
C985 C984 1.355 . S
C985 C987 1.419 . S
C986 C984 1.415 . S
C986 C991 1.425 . S
C986 C993 1.409 . S
C987 H979 0.930 . S
C987 C985 1.419 . S
C987 C988 1.362 . S
C988 H980 0.930 . S
C988 C987 1.362 . S
C988 C991 1.409 . S
C989 H981 0.930 . S
C989 C990 1.355 . S
C989 C991 1.415 . S
C990 C989 1.355 . S
C990 C992 1.419 . S
C991 C986 1.425 . S
C991 C988 1.409 . S
C991 C989 1.415 . S
C992 H982 0.930 . S
C992 C990 1.419 . S
C992 C993 1.362 . S
C993 H983 0.930 . S
C993 C986 1.409 . S
C993 C992 1.362 . S
H994 C1000 0.930 . S
H995 C1003 0.930 . S
H996 C1004 0.930 . S
H997 C1005 0.930 . S
H998 C1008 0.930 . S
H999 C1009 0.930 . S
C1000 H994 0.930 . S
C1000 C1001 1.355 . S
C1000 C1002 1.415 . S
C1001 C1000 1.355 . S
C1001 C1003 1.419 . S
C1002 C1000 1.415 . S
C1002 C1007 1.425 . S
C1002 C1009 1.409 . S
C1003 H995 0.930 . S
C1003 C1001 1.419 . S
C1003 C1004 1.362 . S
C1004 H996 0.930 . S
C1004 C1003 1.362 . S
C1004 C1007 1.409 . S
C1005 H997 0.930 . S
C1005 C1006 1.355 . S
C1005 C1007 1.415 . S
C1006 C1005 1.355 . S
C1006 C1008 1.419 . S
C1007 C1002 1.425 . S
C1007 C1004 1.409 . S
C1007 C1005 1.415 . S
C1008 H998 0.930 . S
C1008 C1006 1.419 . S
C1008 C1009 1.362 . S
C1009 H999 0.930 . S
C1009 C1002 1.409 . S
C1009 C1008 1.362 . S
H1010 C1016 0.930 . S
H1011 C1019 0.930 . S
H1012 C1020 0.930 1_554 S
H1013 C1021 0.930 1_554 S
H1014 C1024 0.930 . S
H1015 C1025 0.930 . S
C1016 H1010 0.930 . S
C1016 C1017 1.355 . S
C1016 C1018 1.415 . S
C1017 C1016 1.355 . S
C1017 C1019 1.419 . S
C1018 C1016 1.415 . S
C1018 C1023 1.425 . S
C1018 C1025 1.409 . S
C1019 H1011 0.930 . S
C1019 C1017 1.419 . S
C1019 C1020 1.362 . S
C1020 H1012 0.930 1_556 S
C1020 C1019 1.362 . S
C1020 C1023 1.409 . S
C1021 H1013 0.930 1_556 S
C1021 C1022 1.355 . S
C1021 C1023 1.415 . S
C1022 C1021 1.355 . S
C1022 C1024 1.419 . S
C1023 C1018 1.425 . S
C1023 C1020 1.409 . S
C1023 C1021 1.415 . S
C1024 H1014 0.930 . S
C1024 C1022 1.419 . S
C1024 C1025 1.362 . S
C1025 H1015 0.930 . S
C1025 C1018 1.409 . S
C1025 C1024 1.362 . S
H1026 C1032 0.930 . S
H1027 C1035 0.930 . S
H1028 C1036 0.930 . S
H1029 C1037 0.930 . S
H1030 C1040 0.930 . S
H1031 C1041 0.930 . S
C1032 H1026 0.930 . S
C1032 C1033 1.355 . S
C1032 C1034 1.415 . S
C1033 C1032 1.355 . S
C1033 C1035 1.419 . S
C1034 C1032 1.415 . S
C1034 C1039 1.425 . S
C1034 C1041 1.409 . S
C1035 H1027 0.930 . S
C1035 C1033 1.419 . S
C1035 C1036 1.362 . S
C1036 H1028 0.930 . S
C1036 C1035 1.362 . S
C1036 C1039 1.409 . S
C1037 H1029 0.930 . S
C1037 C1038 1.355 . S
C1037 C1039 1.415 . S
C1038 C1037 1.355 . S
C1038 C1040 1.419 . S
C1039 C1034 1.425 . S
C1039 C1036 1.409 . S
C1039 C1037 1.415 . S
C1040 H1030 0.930 . S
C1040 C1038 1.419 . S
C1040 C1041 1.362 . S
C1041 H1031 0.930 . S
C1041 C1034 1.409 . S
C1041 C1040 1.362 . S
H1042 C1048 0.930 . S
H1043 C1051 0.930 . S
H1044 C1052 0.930 . S
H1045 C1053 0.930 . S
H1046 C1056 0.930 . S
H1047 C1057 0.930 . S
C1048 H1042 0.930 . S
C1048 C1049 1.355 . S
C1048 C1050 1.415 . S
C1049 C1048 1.355 . S
C1049 C1051 1.419 . S
C1050 C1048 1.415 . S
C1050 C1055 1.425 . S
C1050 C1057 1.409 . S
C1051 H1043 0.930 . S
C1051 C1049 1.419 . S
C1051 C1052 1.362 . S
C1052 H1044 0.930 . S
C1052 C1051 1.362 . S
C1052 C1055 1.409 . S
C1053 H1045 0.930 . S
C1053 C1054 1.355 . S
C1053 C1055 1.415 . S
C1054 C1053 1.355 . S
C1054 C1056 1.419 . S
C1055 C1050 1.425 . S
C1055 C1052 1.409 . S
C1055 C1053 1.415 . S
C1056 H1046 0.930 . S
C1056 C1054 1.419 . S
C1056 C1057 1.362 . S
C1057 H1047 0.930 . S
C1057 C1050 1.409 . S
C1057 C1056 1.362 . S
H1058 C1064 0.930 . S
H1059 C1067 0.930 . S
H1060 C1068 0.930 . S
H1061 C1069 0.930 . S
H1062 C1072 0.940 . S
H1063 C1073 0.930 . S
C1064 H1058 0.930 . S
C1064 C1065 1.355 . S
C1064 C1066 1.415 . S
C1065 C1064 1.355 . S
C1065 C1067 1.419 . S
C1066 C1064 1.415 . S
C1066 C1071 1.425 . S
C1066 C1073 1.409 . S
C1067 H1059 0.930 . S
C1067 C1065 1.419 . S
C1067 C1068 1.362 . S
C1068 H1060 0.930 . S
C1068 C1067 1.362 . S
C1068 C1071 1.409 . S
C1069 H1061 0.930 . S
C1069 C1070 1.355 . S
C1069 C1071 1.415 . S
C1070 C1069 1.355 . S
C1070 C1072 1.419 . S
C1071 C1066 1.425 . S
C1071 C1068 1.409 . S
C1071 C1069 1.415 . S
C1072 H1062 0.940 . S
C1072 C1070 1.419 . S
C1072 C1073 1.362 . S
C1073 H1063 0.930 . S
C1073 C1066 1.409 . S
C1073 C1072 1.362 . S
H1074 C1080 0.930 . S
H1075 C1083 0.930 . S
H1076 C1084 0.930 . S
H1077 C1085 0.930 . S
H1078 C1088 0.930 . S
H1079 C1089 0.930 . S
C1080 H1074 0.930 . S
C1080 C1081 1.355 1_455 S
C1080 C1082 1.415 . S
C1081 C1080 1.355 1_655 S
C1081 C1083 1.419 . S
C1082 C1080 1.415 . S
C1082 C1087 1.425 . S
C1082 C1089 1.409 . S
C1083 H1075 0.930 . S
C1083 C1081 1.419 . S
C1083 C1084 1.362 1_655 S
C1084 H1076 0.930 . S
C1084 C1083 1.362 1_455 S
C1084 C1087 1.409 . S
C1085 H1077 0.930 . S
C1085 C1086 1.355 . S
C1085 C1087 1.415 . S
C1086 C1085 1.355 . S
C1086 C1088 1.419 . S
C1087 C1082 1.425 . S
C1087 C1084 1.409 . S
C1087 C1085 1.415 . S
C1088 H1078 0.930 . S
C1088 C1086 1.419 . S
C1088 C1089 1.362 . S
C1089 H1079 0.930 . S
C1089 C1082 1.409 . S
C1089 C1088 1.362 . S
H1090 C1096 0.930 . S
H1091 C1099 0.930 . S
H1092 C1100 0.930 . S
H1093 C1101 0.930 . S
H1094 C1104 0.930 . S
H1095 C1105 0.930 . S
C1096 H1090 0.930 . S
C1096 C1097 1.355 . S
C1096 C1098 1.415 . S
C1097 C1096 1.355 . S
C1097 C1099 1.419 . S
C1098 C1096 1.415 . S
C1098 C1103 1.425 . S
C1098 C1105 1.409 . S
C1099 H1091 0.930 . S
C1099 C1097 1.419 . S
C1099 C1100 1.362 . S
C1100 H1092 0.930 . S
C1100 C1099 1.362 . S
C1100 C1103 1.409 . S
C1101 H1093 0.930 . S
C1101 C1102 1.355 . S
C1101 C1103 1.415 . S
C1102 C1101 1.355 . S
C1102 C1104 1.419 . S
C1103 C1098 1.425 . S
C1103 C1100 1.409 . S
C1103 C1101 1.415 . S
C1104 H1094 0.930 . S
C1104 C1102 1.419 . S
C1104 C1105 1.362 . S
C1105 H1095 0.930 . S
C1105 C1098 1.409 . S
C1105 C1104 1.362 . S
H1106 C1112 0.947 . S
H1107 C1115 0.930 . S
H1108 C1116 0.930 . S
H1109 C1117 0.930 . S
H1110 C1120 0.930 . S
H1111 C1121 0.930 . S
C1112 H1106 0.947 . S
C1112 C1113 1.355 1_565 S
C1112 C1114 1.415 . S
C1113 C1112 1.355 1_545 S
C1113 C1115 1.419 . S
C1114 C1112 1.415 . S
C1114 C1119 1.425 . S
C1114 C1121 1.409 . S
C1115 H1107 0.930 . S
C1115 C1113 1.419 . S
C1115 C1116 1.362 1_545 S
C1116 H1108 0.930 . S
C1116 C1115 1.362 1_565 S
C1116 C1119 1.409 . S
C1117 H1109 0.930 . S
C1117 C1118 1.355 . S
C1117 C1119 1.415 . S
C1118 C1117 1.355 . S
C1118 C1120 1.419 . S
C1119 C1114 1.425 . S
C1119 C1116 1.409 . S
C1119 C1117 1.415 . S
C1120 H1110 0.930 . S
C1120 C1118 1.419 . S
C1120 C1121 1.362 . S
C1121 H1111 0.930 . S
C1121 C1114 1.409 . S
C1121 C1120 1.362 . S
H1122 C1128 0.930 . S
H1123 C1131 0.930 . S
H1124 C1132 0.930 . S
H1125 C1133 0.930 . S
H1126 C1136 0.930 . S
H1127 C1137 0.930 . S
C1128 H1122 0.930 . S
C1128 C1129 1.355 . S
C1128 C1130 1.415 . S
C1129 C1128 1.355 . S
C1129 C1131 1.419 . S
C1130 C1128 1.415 . S
C1130 C1135 1.425 . S
C1130 C1137 1.409 . S
C1131 H1123 0.930 . S
C1131 C1129 1.419 . S
C1131 C1132 1.362 . S
C1132 H1124 0.930 . S
C1132 C1131 1.362 . S
C1132 C1135 1.409 . S
C1133 H1125 0.930 . S
C1133 C1134 1.355 . S
C1133 C1135 1.415 . S
C1134 C1133 1.355 . S
C1134 C1136 1.419 . S
C1135 C1130 1.425 . S
C1135 C1132 1.409 . S
C1135 C1133 1.415 . S
C1136 H1126 0.930 . S
C1136 C1134 1.419 . S
C1136 C1137 1.362 . S
C1137 H1127 0.930 . S
C1137 C1130 1.409 . S
C1137 C1136 1.362 . S
H1138 C1144 0.930 . S
H1139 C1147 0.930 . S
H1140 C1148 0.930 . S
H1141 C1149 0.930 . S
H1142 C1152 0.930 . S
H1143 C1153 0.930 . S
C1144 H1138 0.930 . S
C1144 C1145 1.355 . S
C1144 C1146 1.415 . S
C1145 C1144 1.355 . S
C1145 C1147 1.419 . S
C1146 C1144 1.415 . S
C1146 C1151 1.425 . S
C1146 C1153 1.409 . S
C1147 H1139 0.930 . S
C1147 C1145 1.419 . S
C1147 C1148 1.362 . S
C1148 H1140 0.930 . S
C1148 C1147 1.362 . S
C1148 C1151 1.409 . S
C1149 H1141 0.930 . S
C1149 C1150 1.355 . S
C1149 C1151 1.415 . S
C1150 C1149 1.355 . S
C1150 C1152 1.419 . S
C1151 C1146 1.425 . S
C1151 C1148 1.409 . S
C1151 C1149 1.415 . S
C1152 H1142 0.930 . S
C1152 C1150 1.419 . S
C1152 C1153 1.362 . S
C1153 H1143 0.930 . S
C1153 C1146 1.409 . S
C1153 C1152 1.362 . S
H1154 C1160 0.930 . S
H1155 C1163 0.930 . S
H1156 C1164 0.930 . S
H1157 C1165 0.930 . S
H1158 C1168 0.930 . S
H1159 C1169 0.930 . S
C1160 H1154 0.930 . S
C1160 C1161 1.355 . S
C1160 C1162 1.415 . S
C1161 C1160 1.355 . S
C1161 C1163 1.419 . S
C1162 C1160 1.415 . S
C1162 C1167 1.425 . S
C1162 C1169 1.409 . S
C1163 H1155 0.930 . S
C1163 C1161 1.419 . S
C1163 C1164 1.362 . S
C1164 H1156 0.930 . S
C1164 C1163 1.362 . S
C1164 C1167 1.409 . S
C1165 H1157 0.930 . S
C1165 C1166 1.355 . S
C1165 C1167 1.415 . S
C1166 C1165 1.355 . S
C1166 C1168 1.419 . S
C1167 C1162 1.425 . S
C1167 C1164 1.409 . S
C1167 C1165 1.415 . S
C1168 H1158 0.930 . S
C1168 C1166 1.419 . S
C1168 C1169 1.362 . S
C1169 H1159 0.930 . S
C1169 C1162 1.409 . S
C1169 C1168 1.362 . S
H1170 C1176 0.930 . S
H1171 C1179 0.930 . S
H1172 C1180 0.930 . S
H1173 C1181 0.930 . S
H1174 C1184 0.930 . S
H1175 C1185 0.930 . S
C1176 H1170 0.930 . S
C1176 C1177 1.355 . S
C1176 C1178 1.415 . S
C1177 C1176 1.355 . S
C1177 C1179 1.419 . S
C1178 C1176 1.415 . S
C1178 C1183 1.425 . S
C1178 C1185 1.409 . S
C1179 H1171 0.930 . S
C1179 C1177 1.419 . S
C1179 C1180 1.362 . S
C1180 H1172 0.930 . S
C1180 C1179 1.362 . S
C1180 C1183 1.409 . S
C1181 H1173 0.930 . S
C1181 C1182 1.355 . S
C1181 C1183 1.415 . S
C1182 C1181 1.355 . S
C1182 C1184 1.419 . S
C1183 C1178 1.425 . S
C1183 C1180 1.409 . S
C1183 C1181 1.415 . S
C1184 H1174 0.930 . S
C1184 C1182 1.419 . S
C1184 C1185 1.362 . S
C1185 H1175 0.930 . S
C1185 C1178 1.409 . S
C1185 C1184 1.362 . S
H1186 C1192 0.930 . S
H1187 C1195 0.930 . S
H1188 C1196 0.930 . S
H1189 C1197 0.930 . S
H1190 C1200 0.930 . S
H1191 C1201 0.930 . S
C1192 H1186 0.930 . S
C1192 C1193 1.355 . S
C1192 C1194 1.415 . S
C1193 C1192 1.355 . S
C1193 C1195 1.419 . S
C1194 C1192 1.415 . S
C1194 C1199 1.425 . S
C1194 C1201 1.409 . S
C1195 H1187 0.930 . S
C1195 C1193 1.419 . S
C1195 C1196 1.362 . S
C1196 H1188 0.930 . S
C1196 C1195 1.362 . S
C1196 C1199 1.409 . S
C1197 H1189 0.930 . S
C1197 C1198 1.355 . S
C1197 C1199 1.415 . S
C1198 C1197 1.355 . S
C1198 C1200 1.419 . S
C1199 C1194 1.425 . S
C1199 C1196 1.409 . S
C1199 C1197 1.415 . S
C1200 H1190 0.930 . S
C1200 C1198 1.419 . S
C1200 C1201 1.362 . S
C1201 H1191 0.930 . S
C1201 C1194 1.409 . S
C1201 C1200 1.362 . S
H1202 C1208 0.930 . S
H1203 C1211 0.930 . S
H1204 C1212 0.930 . S
H1205 C1213 0.930 . S
H1206 C1216 0.930 . S
H1207 C1217 0.930 . S
C1208 H1202 0.930 . S
C1208 C1209 1.355 . S
C1208 C1210 1.415 . S
C1209 C1208 1.355 . S
C1209 C1211 1.419 . S
C1210 C1208 1.415 . S
C1210 C1215 1.425 . S
C1210 C1217 1.409 . S
C1211 H1203 0.930 . S
C1211 C1209 1.419 . S
C1211 C1212 1.362 . S
C1212 H1204 0.930 . S
C1212 C1211 1.362 . S
C1212 C1215 1.409 . S
C1213 H1205 0.930 . S
C1213 C1214 1.355 . S
C1213 C1215 1.415 . S
C1214 C1213 1.355 . S
C1214 C1216 1.419 . S
C1215 C1210 1.425 . S
C1215 C1212 1.409 . S
C1215 C1213 1.415 . S
C1216 H1206 0.930 . S
C1216 C1214 1.419 . S
C1216 C1217 1.362 . S
C1217 H1207 0.930 . S
C1217 C1210 1.409 . S
C1217 C1216 1.362 . S
H1218 C1224 0.930 . S
H1219 C1227 0.930 . S
H1220 C1228 0.930 . S
H1221 C1229 0.930 . S
H1222 C1232 0.930 . S
H1223 C1233 0.930 . S
C1224 H1218 0.930 . S
C1224 C1225 1.355 1_565 S
C1224 C1226 1.415 . S
C1225 C1224 1.355 1_545 S
C1225 C1227 1.419 . S
C1226 C1224 1.415 . S
C1226 C1231 1.425 . S
C1226 C1233 1.409 . S
C1227 H1219 0.930 . S
C1227 C1225 1.419 . S
C1227 C1228 1.362 1_545 S
C1228 H1220 0.930 . S
C1228 C1227 1.362 1_565 S
C1228 C1231 1.409 . S
C1229 H1221 0.930 . S
C1229 C1230 1.355 . S
C1229 C1231 1.415 . S
C1230 C1229 1.355 . S
C1230 C1232 1.419 . S
C1231 C1226 1.425 . S
C1231 C1228 1.409 . S
C1231 C1229 1.415 . S
C1232 H1222 0.930 . S
C1232 C1230 1.419 . S
C1232 C1233 1.362 . S
C1233 H1223 0.930 . S
C1233 C1226 1.409 . S
C1233 C1232 1.362 . S
H1234 C1240 0.930 . S
H1235 C1243 0.930 . S
H1236 C1244 0.930 . S
H1237 C1245 0.930 . S
H1238 C1248 0.930 . S
H1239 C1249 0.930 . S
C1240 H1234 0.930 . S
C1240 C1241 1.355 1_455 S
C1240 C1242 1.415 . S
C1241 C1240 1.355 1_655 S
C1241 C1243 1.419 . S
C1242 C1240 1.415 . S
C1242 C1247 1.425 . S
C1242 C1249 1.409 . S
C1243 H1235 0.930 . S
C1243 C1241 1.419 . S
C1243 C1244 1.362 1_655 S
C1244 H1236 0.930 . S
C1244 C1243 1.362 1_455 S
C1244 C1247 1.409 . S
C1245 H1237 0.930 . S
C1245 C1246 1.355 . S
C1245 C1247 1.415 . S
C1246 C1245 1.355 . S
C1246 C1248 1.419 . S
C1247 C1242 1.425 . S
C1247 C1244 1.409 . S
C1247 C1245 1.415 . S
C1248 H1238 0.930 . S
C1248 C1246 1.419 . S
C1248 C1249 1.362 . S
C1249 H1239 0.930 . S
C1249 C1242 1.409 . S
C1249 C1248 1.362 . S
H1250 C1256 0.930 . S
H1251 C1259 0.930 . S
H1252 C1260 0.930 . S
H1253 C1261 0.930 . S
H1254 C1264 0.930 . S
H1255 C1265 0.930 . S
C1256 H1250 0.930 . S
C1256 C1257 1.355 . S
C1256 C1258 1.415 . S
C1257 C1256 1.355 . S
C1257 C1259 1.419 . S
C1258 C1256 1.415 . S
C1258 C1263 1.425 . S
C1258 C1265 1.409 . S
C1259 H1251 0.930 . S
C1259 C1257 1.419 . S
C1259 C1260 1.362 . S
C1260 H1252 0.930 . S
C1260 C1259 1.362 . S
C1260 C1263 1.409 . S
C1261 H1253 0.930 . S
C1261 C1262 1.355 . S
C1261 C1263 1.415 . S
C1262 C1261 1.355 . S
C1262 C1264 1.419 . S
C1263 C1258 1.425 . S
C1263 C1260 1.409 . S
C1263 C1261 1.415 . S
C1264 H1254 0.930 . S
C1264 C1262 1.419 . S
C1264 C1265 1.362 . S
C1265 H1255 0.930 . S
C1265 C1258 1.409 . S
C1265 C1264 1.362 . S
H1266 C1272 0.930 . S
H1267 C1275 0.930 . S
H1268 C1276 0.930 . S
H1269 C1277 0.930 . S
H1270 C1280 0.930 . S
H1271 C1281 0.930 . S
C1272 H1266 0.930 . S
C1272 C1273 1.355 . S
C1272 C1274 1.415 . S
C1273 C1272 1.355 . S
C1273 C1275 1.419 . S
C1274 C1272 1.415 . S
C1274 C1279 1.425 . S
C1274 C1281 1.409 . S
C1275 H1267 0.930 . S
C1275 C1273 1.419 . S
C1275 C1276 1.362 . S
C1276 H1268 0.930 . S
C1276 C1275 1.362 . S
C1276 C1279 1.409 . S
C1277 H1269 0.930 . S
C1277 C1278 1.355 . S
C1277 C1279 1.415 . S
C1278 C1277 1.355 . S
C1278 C1280 1.419 . S
C1279 C1274 1.425 . S
C1279 C1276 1.409 . S
C1279 C1277 1.415 . S
C1280 H1270 0.930 . S
C1280 C1278 1.419 . S
C1280 C1281 1.362 . S
C1281 H1271 0.930 . S
C1281 C1274 1.409 . S
C1281 C1280 1.362 . S
H1282 C1288 0.930 . S
H1283 C1291 0.930 . S
H1284 C1292 0.930 . S
H1285 C1293 0.930 . S
H1286 C1296 0.930 . S
H1287 C1297 0.930 . S
C1288 H1282 0.930 . S
C1288 C1289 1.355 . S
C1288 C1290 1.415 . S
C1289 C1288 1.355 . S
C1289 C1291 1.419 . S
C1290 C1288 1.415 . S
C1290 C1295 1.425 . S
C1290 C1297 1.409 . S
C1291 H1283 0.930 . S
C1291 C1289 1.419 . S
C1291 C1292 1.362 . S
C1292 H1284 0.930 . S
C1292 C1291 1.362 . S
C1292 C1295 1.409 . S
C1293 H1285 0.930 . S
C1293 C1294 1.355 . S
C1293 C1295 1.415 . S
C1294 C1293 1.355 . S
C1294 C1296 1.419 . S
C1295 C1290 1.425 . S
C1295 C1292 1.409 . S
C1295 C1293 1.415 . S
C1296 H1286 0.930 . S
C1296 C1294 1.419 . S
C1296 C1297 1.362 . S
C1297 H1287 0.930 . S
C1297 C1290 1.409 . S
C1297 C1296 1.362 . S
H1298 C1304 0.930 . S
H1299 C1307 0.930 . S
H1300 C1308 0.930 . S
H1301 C1309 0.930 . S
H1302 C1312 0.930 . S
H1303 C1313 0.930 . S
C1304 H1298 0.930 . S
C1304 C1305 1.355 . S
C1304 C1306 1.415 . S
C1305 C1304 1.355 . S
C1305 C1307 1.419 . S
C1306 C1304 1.415 . S
C1306 C1311 1.425 . S
C1306 C1313 1.409 . S
C1307 H1299 0.930 . S
C1307 C1305 1.419 . S
C1307 C1308 1.362 . S
C1308 H1300 0.930 . S
C1308 C1307 1.362 . S
C1308 C1311 1.409 . S
C1309 H1301 0.930 . S
C1309 C1310 1.355 . S
C1309 C1311 1.415 . S
C1310 C1309 1.355 . S
C1310 C1312 1.419 . S
C1311 C1306 1.425 . S
C1311 C1308 1.409 . S
C1311 C1309 1.415 . S
C1312 H1302 0.930 . S
C1312 C1310 1.419 . S
C1312 C1313 1.362 . S
C1313 H1303 0.930 . S
C1313 C1306 1.409 . S
C1313 C1312 1.362 . S
H1314 C1320 0.930 1_565 S
H1315 C1323 0.930 1_565 S
H1316 C1324 0.930 . S
H1317 C1325 0.930 . S
H1318 C1328 0.930 . S
H1319 C1329 0.930 . S
C1320 H1314 0.930 1_545 S
C1320 C1321 1.355 1_545 S
C1320 C1322 1.415 . S
C1321 C1320 1.355 1_565 S
C1321 C1323 1.419 1_565 S
C1322 C1320 1.415 . S
C1322 C1327 1.425 . S
C1322 C1329 1.409 . S
C1323 H1315 0.930 1_545 S
C1323 C1321 1.419 1_545 S
C1323 C1324 1.362 . S
C1324 H1316 0.930 . S
C1324 C1323 1.362 . S
C1324 C1327 1.409 . S
C1325 H1317 0.930 . S
C1325 C1326 1.355 . S
C1325 C1327 1.415 . S
C1326 C1325 1.355 . S
C1326 C1328 1.419 . S
C1327 C1322 1.425 . S
C1327 C1324 1.409 . S
C1327 C1325 1.415 . S
C1328 H1318 0.930 . S
C1328 C1326 1.419 . S
C1328 C1329 1.362 . S
C1329 H1319 0.930 . S
C1329 C1322 1.409 . S
C1329 C1328 1.362 . S
H1330 C1336 0.946 . S
H1331 C1339 0.930 . S
H1332 C1340 0.930 . S
H1333 C1341 0.930 . S
H1334 C1344 0.930 . S
H1335 C1345 0.930 . S
C1336 H1330 0.946 . S
C1336 C1337 1.357 . S
C1336 C1338 1.397 1_455 S
C1337 C1336 1.357 . S
C1337 C1339 1.419 1_455 S
C1338 C1336 1.397 1_655 S
C1338 C1343 1.425 . S
C1338 C1345 1.409 . S
C1339 H1331 0.930 . S
C1339 C1337 1.419 1_655 S
C1339 C1340 1.362 . S
C1340 H1332 0.930 . S
C1340 C1339 1.362 . S
C1340 C1343 1.409 . S
C1341 H1333 0.930 . S
C1341 C1342 1.355 . S
C1341 C1343 1.415 . S
C1342 C1341 1.355 . S
C1342 C1344 1.419 . S
C1343 C1338 1.425 . S
C1343 C1340 1.409 . S
C1343 C1341 1.415 . S
C1344 H1334 0.930 . S
C1344 C1342 1.419 . S
C1344 C1345 1.362 . S
C1345 H1335 0.930 . S
C1345 C1338 1.409 . S
C1345 C1344 1.362 . S
H1346 C1352 0.930 . S
H1347 C1355 0.930 . S
H1348 C1356 0.930 . S
H1349 C1357 0.930 . S
H1350 C1360 0.930 . S
H1351 C1361 0.930 . S
C1352 H1346 0.930 . S
C1352 C1353 1.355 . S
C1352 C1354 1.415 . S
C1353 C1352 1.355 . S
C1353 C1355 1.419 . S
C1354 C1352 1.415 . S
C1354 C1359 1.425 . S
C1354 C1361 1.409 . S
C1355 H1347 0.930 . S
C1355 C1353 1.419 . S
C1355 C1356 1.362 . S
C1356 H1348 0.930 . S
C1356 C1355 1.362 . S
C1356 C1359 1.409 . S
C1357 H1349 0.930 . S
C1357 C1358 1.355 . S
C1357 C1359 1.415 . S
C1358 C1357 1.355 . S
C1358 C1360 1.419 . S
C1359 C1354 1.425 . S
C1359 C1356 1.409 . S
C1359 C1357 1.415 . S
C1360 H1350 0.930 . S
C1360 C1358 1.419 . S
C1360 C1361 1.362 . S
C1361 H1351 0.930 . S
C1361 C1354 1.409 . S
C1361 C1360 1.362 . S
H1362 C1368 0.930 . S
H1363 C1371 0.930 . S
H1364 C1372 0.930 . S
H1365 C1373 0.930 . S
H1366 C1376 0.930 . S
H1367 C1377 0.930 . S
C1368 H1362 0.930 . S
C1368 C1369 1.355 . S
C1368 C1370 1.415 1_455 S
C1369 C1368 1.355 . S
C1369 C1371 1.419 . S
C1370 C1368 1.415 1_655 S
C1370 C1375 1.425 . S
C1370 C1377 1.409 . S
C1371 H1363 0.930 . S
C1371 C1369 1.419 . S
C1371 C1372 1.362 1_455 S
C1372 H1364 0.930 . S
C1372 C1371 1.362 1_655 S
C1372 C1375 1.409 . S
C1373 H1365 0.930 . S
C1373 C1374 1.355 . S
C1373 C1375 1.415 . S
C1374 C1373 1.355 . S
C1374 C1376 1.419 . S
C1375 C1370 1.425 . S
C1375 C1372 1.409 . S
C1375 C1373 1.415 . S
C1376 H1366 0.930 . S
C1376 C1374 1.419 . S
C1376 C1377 1.362 . S
C1377 H1367 0.930 . S
C1377 C1370 1.409 . S
C1377 C1376 1.362 . S
H1378 C1384 0.930 . S
H1379 C1387 0.930 . S
H1380 C1388 0.930 . S
H1381 C1389 0.930 . S
H1382 C1392 0.930 . S
H1383 C1393 0.930 . S
C1384 H1378 0.930 . S
C1384 C1385 1.355 . S
C1384 C1386 1.415 . S
C1385 C1384 1.355 . S
C1385 C1387 1.419 . S
C1386 C1384 1.415 . S
C1386 C1391 1.425 . S
C1386 C1393 1.409 . S
C1387 H1379 0.930 . S
C1387 C1385 1.419 . S
C1387 C1388 1.362 . S
C1388 H1380 0.930 . S
C1388 C1387 1.362 . S
C1388 C1391 1.409 . S
C1389 H1381 0.930 . S
C1389 C1390 1.355 . S
C1389 C1391 1.415 . S
C1390 C1389 1.355 . S
C1390 C1392 1.419 . S
C1391 C1386 1.425 . S
C1391 C1388 1.409 . S
C1391 C1389 1.415 . S
C1392 H1382 0.930 . S
C1392 C1390 1.419 . S
C1392 C1393 1.362 . S
C1393 H1383 0.930 . S
C1393 C1386 1.409 . S
C1393 C1392 1.362 . S
H1394 C1400 0.930 1_565 S
H1395 C1403 0.930 . S
H1396 C1404 0.930 . S
H1397 C1405 0.930 . S
H1398 C1408 0.930 . S
H1399 C1409 0.930 . S
C1400 H1394 0.930 1_545 S
C1400 C1401 1.355 1_545 S
C1400 C1402 1.415 . S
C1401 C1400 1.355 1_565 S
C1401 C1403 1.419 . S
C1402 C1400 1.415 . S
C1402 C1407 1.425 . S
C1402 C1409 1.409 . S
C1403 H1395 0.930 . S
C1403 C1401 1.419 . S
C1403 C1404 1.362 1_565 S
C1404 H1396 0.930 . S
C1404 C1403 1.362 1_545 S
C1404 C1407 1.409 . S
C1405 H1397 0.930 . S
C1405 C1406 1.355 . S
C1405 C1407 1.415 . S
C1406 C1405 1.355 . S
C1406 C1408 1.419 . S
C1407 C1402 1.425 . S
C1407 C1404 1.409 . S
C1407 C1405 1.415 . S
C1408 H1398 0.930 . S
C1408 C1406 1.419 . S
C1408 C1409 1.362 . S
C1409 H1399 0.930 . S
C1409 C1402 1.409 . S
C1409 C1408 1.362 . S
H1410 C1416 0.930 . S
H1411 C1419 0.930 . S
H1412 C1420 0.930 . S
H1413 C1421 0.930 . S
H1414 C1424 0.930 . S
H1415 C1425 0.930 . S
C1416 H1410 0.930 . S
C1416 C1417 1.355 . S
C1416 C1418 1.415 . S
C1417 C1416 1.355 . S
C1417 C1419 1.419 . S
C1418 C1416 1.415 . S
C1418 C1423 1.425 . S
C1418 C1425 1.409 . S
C1419 H1411 0.930 . S
C1419 C1417 1.419 . S
C1419 C1420 1.362 . S
C1420 H1412 0.930 . S
C1420 C1419 1.362 . S
C1420 C1423 1.409 . S
C1421 H1413 0.930 . S
C1421 C1422 1.355 . S
C1421 C1423 1.415 . S
C1422 C1421 1.355 . S
C1422 C1424 1.419 . S
C1423 C1418 1.425 . S
C1423 C1420 1.409 . S
C1423 C1421 1.415 . S
C1424 H1414 0.930 . S
C1424 C1422 1.419 . S
C1424 C1425 1.362 . S
C1425 H1415 0.930 . S
C1425 C1418 1.409 . S
C1425 C1424 1.362 . S
H1426 C1432 0.930 . S
H1427 C1435 0.930 . S
H1428 C1436 0.930 . S
H1429 C1437 0.930 . S
H1430 C1440 0.930 . S
H1431 C1441 0.930 . S
C1432 H1426 0.930 . S
C1432 C1433 1.355 . S
C1432 C1434 1.415 . S
C1433 C1432 1.355 . S
C1433 C1435 1.419 . S
C1434 C1432 1.415 . S
C1434 C1439 1.425 . S
C1434 C1441 1.409 . S
C1435 H1427 0.930 . S
C1435 C1433 1.419 . S
C1435 C1436 1.362 . S
C1436 H1428 0.930 . S
C1436 C1435 1.362 . S
C1436 C1439 1.409 . S
C1437 H1429 0.930 . S
C1437 C1438 1.355 . S
C1437 C1439 1.415 . S
C1438 C1437 1.355 . S
C1438 C1440 1.419 . S
C1439 C1434 1.425 . S
C1439 C1436 1.409 . S
C1439 C1437 1.415 . S
C1440 H1430 0.930 . S
C1440 C1438 1.419 . S
C1440 C1441 1.362 . S
C1441 H1431 0.930 . S
C1441 C1434 1.409 . S
C1441 C1440 1.362 . S
H1442 C1448 0.930 . S
H1443 C1451 0.930 . S
H1444 C1452 0.930 . S
H1445 C1453 0.930 . S
H1446 C1456 0.930 . S
H1447 C1457 0.930 . S
C1448 H1442 0.930 . S
C1448 C1449 1.355 . S
C1448 C1450 1.415 . S
C1449 C1448 1.355 . S
C1449 C1451 1.419 . S
C1450 C1448 1.415 . S
C1450 C1455 1.425 . S
C1450 C1457 1.409 . S
C1451 H1443 0.930 . S
C1451 C1449 1.419 . S
C1451 C1452 1.362 . S
C1452 H1444 0.930 . S
C1452 C1451 1.362 . S
C1452 C1455 1.409 . S
C1453 H1445 0.930 . S
C1453 C1454 1.355 . S
C1453 C1455 1.415 . S
C1454 C1453 1.355 . S
C1454 C1456 1.419 . S
C1455 C1450 1.425 . S
C1455 C1452 1.409 . S
C1455 C1453 1.415 . S
C1456 H1446 0.930 . S
C1456 C1454 1.419 . S
C1456 C1457 1.362 . S
C1457 H1447 0.930 . S
C1457 C1450 1.409 . S
C1457 C1456 1.362 . S
H1458 C1464 0.930 . S
H1459 C1467 0.930 . S
H1460 C1468 0.930 . S
H1461 C1469 0.930 . S
H1462 C1472 0.930 . S
H1463 C1473 0.930 . S
C1464 H1458 0.930 . S
C1464 C1465 1.355 . S
C1464 C1466 1.415 . S
C1465 C1464 1.355 . S
C1465 C1467 1.419 1_565 S
C1466 C1464 1.415 . S
C1466 C1471 1.425 . S
C1466 C1473 1.409 . S
C1467 H1459 0.930 . S
C1467 C1465 1.419 1_545 S
C1467 C1468 1.362 . S
C1468 H1460 0.930 . S
C1468 C1467 1.362 . S
C1468 C1471 1.409 1_545 S
C1469 H1461 0.930 . S
C1469 C1470 1.355 1_545 S
C1469 C1471 1.415 1_545 S
C1470 C1469 1.355 1_565 S
C1470 C1472 1.419 . S
C1471 C1466 1.425 . S
C1471 C1468 1.409 1_565 S
C1471 C1469 1.415 1_565 S
C1472 H1462 0.930 . S
C1472 C1470 1.419 . S
C1472 C1473 1.362 . S
C1473 H1463 0.930 . S
C1473 C1466 1.409 . S
C1473 C1472 1.362 . S
H1474 C1480 0.930 1_655 S
H1475 C1483 0.930 . S
H1476 C1484 0.930 . S
H1477 C1485 0.930 . S
H1478 C1488 0.930 . S
H1479 C1489 0.930 . S
C1480 H1474 0.930 1_455 S
C1480 C1481 1.355 . S
C1480 C1482 1.415 . S
C1481 C1480 1.355 . S
C1481 C1483 1.419 . S
C1482 C1480 1.415 . S
C1482 C1487 1.425 . S
C1482 C1489 1.409 1_455 S
C1483 H1475 0.930 . S
C1483 C1481 1.419 . S
C1483 C1484 1.362 . S
C1484 H1476 0.930 . S
C1484 C1483 1.362 . S
C1484 C1487 1.409 . S
C1485 H1477 0.930 . S
C1485 C1486 1.355 . S
C1485 C1487 1.415 . S
C1486 C1485 1.355 . S
C1486 C1488 1.419 1_455 S
C1487 C1482 1.425 . S
C1487 C1484 1.409 . S
C1487 C1485 1.415 . S
C1488 H1478 0.930 . S
C1488 C1486 1.419 1_655 S
C1488 C1489 1.362 . S
C1489 H1479 0.930 . S
C1489 C1482 1.409 1_655 S
C1489 C1488 1.362 . S
H1490 C1496 0.930 . S
H1491 C1499 0.930 . S
H1492 C1500 0.930 . S
H1493 C1501 0.930 . S
H1494 C1504 0.930 . S
H1495 C1505 0.930 . S
C1496 H1490 0.930 . S
C1496 C1497 1.355 . S
C1496 C1498 1.415 . S
C1497 C1496 1.355 . S
C1497 C1499 1.419 . S
C1498 C1496 1.415 . S
C1498 C1503 1.425 . S
C1498 C1505 1.409 . S
C1499 H1491 0.930 . S
C1499 C1497 1.419 . S
C1499 C1500 1.362 . S
C1500 H1492 0.930 . S
C1500 C1499 1.362 . S
C1500 C1503 1.409 . S
C1501 H1493 0.930 . S
C1501 C1502 1.355 . S
C1501 C1503 1.415 . S
C1502 C1501 1.355 . S
C1502 C1504 1.419 . S
C1503 C1498 1.425 . S
C1503 C1500 1.409 . S
C1503 C1501 1.415 . S
C1504 H1494 0.930 . S
C1504 C1502 1.419 . S
C1504 C1505 1.362 . S
C1505 H1495 0.930 . S
C1505 C1498 1.409 . S
C1505 C1504 1.362 . S
H1506 C1512 0.930 1_455 S
H1507 C1515 0.930 . S
H1508 C1516 0.930 . S
H1509 C1517 0.930 . S
H1510 C1520 0.930 . S
H1511 C1521 0.930 . S
C1512 H1506 0.930 1_655 S
C1512 C1513 1.355 . S
C1512 C1514 1.415 . S
C1513 C1512 1.355 . S
C1513 C1515 1.419 . S
C1514 C1512 1.415 . S
C1514 C1519 1.425 . S
C1514 C1521 1.409 1_655 S
C1515 H1507 0.930 . S
C1515 C1513 1.419 . S
C1515 C1516 1.362 . S
C1516 H1508 0.930 . S
C1516 C1515 1.362 . S
C1516 C1519 1.409 . S
C1517 H1509 0.930 . S
C1517 C1518 1.355 . S
C1517 C1519 1.415 . S
C1518 C1517 1.355 . S
C1518 C1520 1.419 1_655 S
C1519 C1514 1.425 . S
C1519 C1516 1.409 . S
C1519 C1517 1.415 . S
C1520 H1510 0.930 . S
C1520 C1518 1.419 1_455 S
C1520 C1521 1.362 . S
C1521 H1511 0.930 . S
C1521 C1514 1.409 1_455 S
C1521 C1520 1.362 . S
H1522 C1528 0.930 . S
H1523 C1531 0.930 . S
H1524 C1532 0.930 . S
H1525 C1533 0.930 . S
H1526 C1536 0.930 . S
H1527 C1537 0.930 . S
C1528 H1522 0.930 . S
C1528 C1529 1.355 . S
C1528 C1530 1.415 . S
C1529 C1528 1.355 . S
C1529 C1531 1.419 . S
C1530 C1528 1.415 . S
C1530 C1535 1.425 . S
C1530 C1537 1.409 . S
C1531 H1523 0.930 . S
C1531 C1529 1.419 . S
C1531 C1532 1.362 . S
C1532 H1524 0.930 . S
C1532 C1531 1.362 . S
C1532 C1535 1.409 . S
C1533 H1525 0.930 . S
C1533 C1534 1.355 . S
C1533 C1535 1.415 . S
C1534 C1533 1.355 . S
C1534 C1536 1.419 . S
C1535 C1530 1.425 . S
C1535 C1532 1.409 . S
C1535 C1533 1.415 . S
C1536 H1526 0.930 . S
C1536 C1534 1.419 . S
C1536 C1537 1.362 . S
C1537 H1527 0.930 . S
C1537 C1530 1.409 . S
C1537 C1536 1.362 . S
H1538 C1544 0.930 1_565 S
H1539 C1547 0.930 . S
H1540 C1548 0.930 . S
H1541 C1549 0.930 . S
H1542 C1552 0.930 . S
H1543 C1553 0.930 . S
C1544 H1538 0.930 1_545 S
C1544 C1545 1.355 . S
C1544 C1546 1.415 . S
C1545 C1544 1.355 . S
C1545 C1547 1.419 . S
C1546 C1544 1.415 . S
C1546 C1551 1.425 . S
C1546 C1553 1.409 1_545 S
C1547 H1539 0.930 . S
C1547 C1545 1.419 . S
C1547 C1548 1.362 . S
C1548 H1540 0.930 . S
C1548 C1547 1.362 . S
C1548 C1551 1.409 . S
C1549 H1541 0.930 . S
C1549 C1550 1.355 . S
C1549 C1551 1.415 . S
C1550 C1549 1.355 . S
C1550 C1552 1.419 1_545 S
C1551 C1546 1.425 . S
C1551 C1548 1.409 . S
C1551 C1549 1.415 . S
C1552 H1542 0.930 . S
C1552 C1550 1.419 1_565 S
C1552 C1553 1.362 . S
C1553 H1543 0.930 . S
C1553 C1546 1.409 1_565 S
C1553 C1552 1.362 . S
H1554 C1560 0.930 . S
H1555 C1563 0.930 . S
H1556 C1564 0.930 . S
H1557 C1565 0.930 . S
H1558 C1568 0.930 . S
H1559 C1569 0.930 . S
C1560 H1554 0.930 . S
C1560 C1561 1.355 . S
C1560 C1562 1.415 . S
C1561 C1560 1.355 . S
C1561 C1563 1.419 . S
C1562 C1560 1.415 . S
C1562 C1567 1.425 . S
C1562 C1569 1.409 . S
C1563 H1555 0.930 . S
C1563 C1561 1.419 . S
C1563 C1564 1.362 . S
C1564 H1556 0.930 . S
C1564 C1563 1.362 . S
C1564 C1567 1.409 . S
C1565 H1557 0.930 . S
C1565 C1566 1.355 . S
C1565 C1567 1.415 . S
C1566 C1565 1.355 . S
C1566 C1568 1.419 . S
C1567 C1562 1.425 . S
C1567 C1564 1.409 . S
C1567 C1565 1.415 . S
C1568 H1558 0.930 . S
C1568 C1566 1.419 . S
C1568 C1569 1.362 . S
C1569 H1559 0.930 . S
C1569 C1562 1.409 . S
C1569 C1568 1.362 . S
H1570 C1576 0.930 . S
H1571 C1579 0.930 . S
H1572 C1580 0.930 . S
H1573 C1581 0.930 . S
H1574 C1584 0.930 . S
H1575 C1585 0.930 . S
C1576 H1570 0.930 . S
C1576 C1577 1.355 . S
C1576 C1578 1.415 . S
C1577 C1576 1.355 . S
C1577 C1579 1.419 . S
C1578 C1576 1.415 . S
C1578 C1583 1.425 . S
C1578 C1585 1.409 . S
C1579 H1571 0.930 . S
C1579 C1577 1.419 . S
C1579 C1580 1.362 . S
C1580 H1572 0.930 . S
C1580 C1579 1.362 . S
C1580 C1583 1.409 . S
C1581 H1573 0.930 . S
C1581 C1582 1.355 . S
C1581 C1583 1.415 . S
C1582 C1581 1.355 . S
C1582 C1584 1.419 . S
C1583 C1578 1.425 . S
C1583 C1580 1.409 . S
C1583 C1581 1.415 . S
C1584 H1574 0.930 . S
C1584 C1582 1.419 . S
C1584 C1585 1.362 . S
C1585 H1575 0.930 . S
C1585 C1578 1.409 . S
C1585 C1584 1.362 . S
H1586 C1592 0.930 . S
H1587 C1595 0.930 . S
H1588 C1596 0.930 . S
H1589 C1597 0.930 . S
H1590 C1600 0.930 . S
H1591 C1601 0.930 . S
C1592 H1586 0.930 . S
C1592 C1593 1.355 . S
C1592 C1594 1.415 . S
C1593 C1592 1.355 . S
C1593 C1595 1.419 . S
C1594 C1592 1.415 . S
C1594 C1599 1.425 . S
C1594 C1601 1.409 . S
C1595 H1587 0.930 . S
C1595 C1593 1.419 . S
C1595 C1596 1.362 . S
C1596 H1588 0.930 . S
C1596 C1595 1.362 . S
C1596 C1599 1.409 . S
C1597 H1589 0.930 . S
C1597 C1598 1.355 . S
C1597 C1599 1.415 . S
C1598 C1597 1.355 . S
C1598 C1600 1.419 . S
C1599 C1594 1.425 . S
C1599 C1596 1.409 . S
C1599 C1597 1.415 . S
C1600 H1590 0.930 . S
C1600 C1598 1.419 . S
C1600 C1601 1.362 . S
C1601 H1591 0.930 . S
C1601 C1594 1.409 . S
C1601 C1600 1.362 . S
H1602 C1608 0.930 . S
H1603 C1611 0.930 . S
H1604 C1612 0.930 . S
H1605 C1613 0.930 . S
H1606 C1616 0.930 . S
H1607 C1617 0.930 . S
C1608 H1602 0.930 . S
C1608 C1609 1.355 . S
C1608 C1610 1.415 . S
C1609 C1608 1.355 . S
C1609 C1611 1.419 . S
C1610 C1608 1.415 . S
C1610 C1615 1.425 . S
C1610 C1617 1.409 . S
C1611 H1603 0.930 . S
C1611 C1609 1.419 . S
C1611 C1612 1.362 . S
C1612 H1604 0.930 . S
C1612 C1611 1.362 . S
C1612 C1615 1.409 . S
C1613 H1605 0.930 . S
C1613 C1614 1.355 . S
C1613 C1615 1.415 . S
C1614 C1613 1.355 . S
C1614 C1616 1.419 . S
C1615 C1610 1.425 . S
C1615 C1612 1.409 . S
C1615 C1613 1.415 . S
C1616 H1606 0.930 . S
C1616 C1614 1.419 . S
C1616 C1617 1.362 . S
C1617 H1607 0.930 . S
C1617 C1610 1.409 . S
C1617 C1616 1.362 . S
H1618 C1624 0.930 . S
H1619 C1627 0.930 . S
H1620 C1628 0.930 . S
H1621 C1629 0.930 . S
H1622 C1632 0.930 . S
H1623 C1633 0.930 . S
C1624 H1618 0.930 . S
C1624 C1625 1.355 . S
C1624 C1626 1.415 . S
C1625 C1624 1.355 . S
C1625 C1627 1.419 . S
C1626 C1624 1.415 . S
C1626 C1631 1.425 . S
C1626 C1633 1.409 . S
C1627 H1619 0.930 . S
C1627 C1625 1.419 . S
C1627 C1628 1.362 . S
C1628 H1620 0.930 . S
C1628 C1627 1.362 . S
C1628 C1631 1.409 . S
C1629 H1621 0.930 . S
C1629 C1630 1.355 . S
C1629 C1631 1.415 . S
C1630 C1629 1.355 . S
C1630 C1632 1.419 . S
C1631 C1626 1.425 . S
C1631 C1628 1.409 . S
C1631 C1629 1.415 . S
C1632 H1622 0.930 . S
C1632 C1630 1.419 . S
C1632 C1633 1.362 . S
C1633 H1623 0.930 . S
C1633 C1626 1.409 . S
C1633 C1632 1.362 . S
H1634 C1640 0.930 . S
H1635 C1643 0.930 . S
H1636 C1644 0.930 . S
H1637 C1645 0.930 . S
H1638 C1648 0.930 . S
H1639 C1649 0.930 . S
C1640 H1634 0.930 . S
C1640 C1641 1.355 . S
C1640 C1642 1.415 . S
C1641 C1640 1.355 . S
C1641 C1643 1.419 . S
C1642 C1640 1.415 . S
C1642 C1647 1.425 . S
C1642 C1649 1.409 . S
C1643 H1635 0.930 . S
C1643 C1641 1.419 . S
C1643 C1644 1.362 . S
C1644 H1636 0.930 . S
C1644 C1643 1.362 . S
C1644 C1647 1.409 . S
C1645 H1637 0.930 . S
C1645 C1646 1.355 . S
C1645 C1647 1.415 . S
C1646 C1645 1.355 . S
C1646 C1648 1.419 . S
C1647 C1642 1.425 . S
C1647 C1644 1.409 . S
C1647 C1645 1.415 . S
C1648 H1638 0.930 . S
C1648 C1646 1.419 . S
C1648 C1649 1.362 . S
C1649 H1639 0.930 . S
C1649 C1642 1.409 . S
C1649 C1648 1.362 . S
H1650 C1656 0.930 . S
H1651 C1659 0.930 . S
H1652 C1660 0.930 . S
H1653 C1661 0.930 . S
H1654 C1664 0.930 . S
H1655 C1665 0.930 . S
C1656 H1650 0.930 . S
C1656 C1657 1.355 . S
C1656 C1658 1.415 . S
C1657 C1656 1.355 . S
C1657 C1659 1.419 . S
C1658 C1656 1.415 . S
C1658 C1663 1.425 . S
C1658 C1665 1.409 . S
C1659 H1651 0.930 . S
C1659 C1657 1.419 . S
C1659 C1660 1.362 . S
C1660 H1652 0.930 . S
C1660 C1659 1.362 . S
C1660 C1663 1.409 . S
C1661 H1653 0.930 . S
C1661 C1662 1.355 . S
C1661 C1663 1.415 . S
C1662 C1661 1.355 . S
C1662 C1664 1.419 . S
C1663 C1658 1.425 . S
C1663 C1660 1.409 . S
C1663 C1661 1.415 . S
C1664 H1654 0.930 . S
C1664 C1662 1.419 . S
C1664 C1665 1.362 . S
C1665 H1655 0.930 . S
C1665 C1658 1.409 . S
C1665 C1664 1.362 . S
H1666 C1672 0.930 . S
H1667 C1675 0.930 . S
H1668 C1676 0.930 . S
H1669 C1677 0.930 . S
H1670 C1680 0.930 . S
H1671 C1681 0.930 . S
C1672 H1666 0.930 . S
C1672 C1673 1.355 . S
C1672 C1674 1.415 . S
C1673 C1672 1.355 . S
C1673 C1675 1.419 . S
C1674 C1672 1.415 . S
C1674 C1679 1.425 . S
C1674 C1681 1.409 . S
C1675 H1667 0.930 . S
C1675 C1673 1.419 . S
C1675 C1676 1.362 . S
C1676 H1668 0.930 . S
C1676 C1675 1.362 . S
C1676 C1679 1.409 . S
C1677 H1669 0.930 . S
C1677 C1678 1.355 . S
C1677 C1679 1.415 . S
C1678 C1677 1.355 . S
C1678 C1680 1.419 . S
C1679 C1674 1.425 . S
C1679 C1676 1.409 . S
C1679 C1677 1.415 . S
C1680 H1670 0.930 . S
C1680 C1678 1.419 . S
C1680 C1681 1.362 . S
C1681 H1671 0.930 . S
C1681 C1674 1.409 . S
C1681 C1680 1.362 . S
H1682 C1688 0.930 . S
H1683 C1691 0.930 . S
H1684 C1692 0.930 . S
H1685 C1693 0.930 . S
H1686 C1696 0.930 . S
H1687 C1697 0.930 . S
C1688 H1682 0.930 . S
C1688 C1689 1.355 . S
C1688 C1690 1.415 . S
C1689 C1688 1.355 . S
C1689 C1691 1.419 . S
C1690 C1688 1.415 . S
C1690 C1695 1.425 . S
C1690 C1697 1.409 . S
C1691 H1683 0.930 . S
C1691 C1689 1.419 . S
C1691 C1692 1.362 . S
C1692 H1684 0.930 . S
C1692 C1691 1.362 . S
C1692 C1695 1.409 . S
C1693 H1685 0.930 . S
C1693 C1694 1.355 . S
C1693 C1695 1.415 . S
C1694 C1693 1.355 . S
C1694 C1696 1.419 . S
C1695 C1690 1.425 . S
C1695 C1692 1.409 . S
C1695 C1693 1.415 . S
C1696 H1686 0.930 . S
C1696 C1694 1.419 . S
C1696 C1697 1.362 . S
C1697 H1687 0.930 . S
C1697 C1690 1.409 . S
C1697 C1696 1.362 . S
H1698 C1704 0.930 . S
H1699 C1707 0.930 . S
H1700 C1708 0.930 . S
H1701 C1709 0.930 . S
H1702 C1712 0.930 . S
H1703 C1713 0.930 . S
C1704 H1698 0.930 . S
C1704 C1705 1.355 . S
C1704 C1706 1.415 . S
C1705 C1704 1.355 . S
C1705 C1707 1.419 . S
C1706 C1704 1.415 . S
C1706 C1711 1.425 . S
C1706 C1713 1.409 . S
C1707 H1699 0.930 . S
C1707 C1705 1.419 . S
C1707 C1708 1.362 . S
C1708 H1700 0.930 . S
C1708 C1707 1.362 . S
C1708 C1711 1.409 . S
C1709 H1701 0.930 . S
C1709 C1710 1.355 . S
C1709 C1711 1.415 . S
C1710 C1709 1.355 . S
C1710 C1712 1.419 . S
C1711 C1706 1.425 . S
C1711 C1708 1.409 . S
C1711 C1709 1.415 . S
C1712 H1702 0.930 . S
C1712 C1710 1.419 . S
C1712 C1713 1.362 . S
C1713 H1703 0.930 . S
C1713 C1706 1.409 . S
C1713 C1712 1.362 . S
H1714 C1720 0.930 . S
H1715 C1723 0.930 . S
H1716 C1724 0.930 . S
H1717 C1725 0.930 . S
H1718 C1728 0.930 . S
H1719 C1729 0.930 . S
C1720 H1714 0.930 . S
C1720 C1721 1.355 . S
C1720 C1722 1.415 . S
C1721 C1720 1.355 . S
C1721 C1723 1.419 . S
C1722 C1720 1.415 . S
C1722 C1727 1.425 . S
C1722 C1729 1.409 . S
C1723 H1715 0.930 . S
C1723 C1721 1.419 . S
C1723 C1724 1.362 . S
C1724 H1716 0.930 . S
C1724 C1723 1.362 . S
C1724 C1727 1.409 . S
C1725 H1717 0.930 . S
C1725 C1726 1.355 . S
C1725 C1727 1.415 . S
C1726 C1725 1.355 . S
C1726 C1728 1.419 . S
C1727 C1722 1.425 . S
C1727 C1724 1.409 . S
C1727 C1725 1.415 . S
C1728 H1718 0.930 . S
C1728 C1726 1.419 . S
C1728 C1729 1.362 . S
C1729 H1719 0.930 . S
C1729 C1722 1.409 . S
C1729 C1728 1.362 . S
H1730 C1736 0.930 . S
H1731 C1739 0.930 . S
H1732 C1740 0.930 . S
H1733 C1741 0.930 . S
H1734 C1744 0.930 . S
H1735 C1745 0.930 . S
C1736 H1730 0.930 . S
C1736 C1737 1.355 . S
C1736 C1738 1.415 . S
C1737 C1736 1.355 . S
C1737 C1739 1.419 . S
C1738 C1736 1.415 . S
C1738 C1743 1.425 . S
C1738 C1745 1.409 . S
C1739 H1731 0.930 . S
C1739 C1737 1.419 . S
C1739 C1740 1.362 . S
C1740 H1732 0.930 . S
C1740 C1739 1.362 . S
C1740 C1743 1.409 . S
C1741 H1733 0.930 . S
C1741 C1742 1.355 . S
C1741 C1743 1.415 . S
C1742 C1741 1.355 . S
C1742 C1744 1.419 . S
C1743 C1738 1.425 . S
C1743 C1740 1.409 . S
C1743 C1741 1.415 . S
C1744 H1734 0.930 . S
C1744 C1742 1.419 . S
C1744 C1745 1.362 . S
C1745 H1735 0.930 . S
C1745 C1738 1.409 . S
C1745 C1744 1.362 . S
C889 C528 1.540 . S
C894 C708 1.512 . S
C905 C562 1.534 . S
C910 C728 1.524 . S
C921 C484 1.586 . S
C926 C751 1.583 . S
C937 C445 1.487 . S
C942 C731 1.480 . S
C958 C748 1.471 . S
C953 C367 1.463 . S
C969 C411 1.465 . S
C974 C711 1.455 . S
C990 C718 1.579 . S
C985 C450 1.581 . S
C1006 C738 1.458 . S
C1001 C372 1.495 . S
C1017 C406 1.580 . S
C1022 C743 1.579 . S
C1033 C523 1.452 . S
C1038 C723 1.447 . S
C1049 C567 1.431 . S
C1054 C758 1.438 . S
C1070 C703 1.467 . S
C1065 C489 1.467 . S
C1086 C768 1.539 . S
C1081 C60 1.548 . S
C1097 C94 1.537 . S
C1102 C788 1.527 . S
C1113 C16 1.589 . S
C1118 C811 1.586 . S
C1129 C679 1.475 . S
C1134 C791 1.471 . S
C1145 C601 1.473 . S
C1150 C808 1.435 . S
C1161 C645 1.501 . S
C1166 C771 1.498 . S
C1177 C684 1.588 . S
C1182 C778 1.571 . S
C1193 C606 1.528 . S
C1198 C798 1.509 . S
C1214 C803 1.537 . S
C1209 C640 1.541 . S
C1225 C55 1.493 . S
C1230 C783 1.489 . S
C1246 C818 1.431 . S
C1241 C99 1.430 . S
C1257 C21 1.513 . S
C1262 C763 1.514 . S
C1278 C828 1.564 . S
C1273 C294 1.574 . S
C1289 C328 1.526 . S
C1294 C848 1.510 . S
C1310 C871 1.584 . S
C1305 C250 1.587 . S
C1326 C851 1.447 . S
C1321 C211 1.457 . S
C1342 C868 1.435 . S
C1337 C133 1.473 . S
C1353 C177 1.469 . S
C1358 C831 1.460 . S
C1369 C216 1.587 . S
C1374 C838 1.568 . S
C1385 C138 1.502 . S
C1390 C858 1.454 . S
C1406 C863 1.576 . S
C1401 C172 1.579 . S
C1417 C289 1.456 . S
C1422 C843 1.453 . S
C1433 C333 1.470 . S
C1438 C878 1.452 . S
C1449 C255 1.464 . S
C1454 C823 1.465 . S
C1465 C586 1.320 . S
C1470 C721 1.311 1_565 S
C1486 C741 1.551 . S
C1481 C625 1.640 . S
C1497 C664 1.496 . S
C1502 C750 1.470 . S
C1513 C235 1.652 . S
C1518 C730 1.566 1_655 S
C1529 C274 1.508 . S
C1534 C761 1.479 . S
C1550 C710 1.253 1_545 S
C1545 C313 1.291 . S
C1561 C118 1.321 . S
C1566 C781 1.308 . S
C1577 C157 1.658 . S
C1582 C801 1.575 . S
C1593 C196 1.522 . S
C1598 C810 1.496 . S
C1609 C469 1.646 . S
C1614 C790 1.573 . S
C1630 C821 1.435 . S
C1625 C508 1.498 . S
C1641 C547 1.290 . S
C1646 C770 1.256 . S
C1657 C352 1.320 . S
C1662 C841 1.274 . S
C1673 C391 1.651 . S
C1678 C861 1.562 . S
C1694 C870 1.484 . S
C1689 C430 1.505 . S
C1705 C1 1.680 . S
C1710 C850 1.614 . S
C1721 C40 1.481 . S
C1726 C881 1.409 . S
C1737 C79 1.310 . S
C1742 C830 1.258 . S
