# Generated by pormake.
# Topology ssb, (4,4)-cn, num edge types: 1
# Building blocks:
#     Node 0, Type 0, BuildingBlock: NAHDIM_clean_linker_0, # of connection points: 4
#     Node 1, Type 0, BuildingBlock: NAHDIM_clean_linker_0, # of connection points: 4
#     Node 2, Type 0, BuildingBlock: NAHDIM_clean_linker_0, # of connection points: 4
#     Node 3, Type 0, BuildingBlock: NAHDIM_clean_linker_0, # of connection points: 4
#     Node 4, Type 0, BuildingBlock: NAHDIM_clean_linker_0, # of connection points: 4
#     Node 5, Type 0, BuildingBlock: NAHDIM_clean_linker_0, # of connection points: 4
#     Node 6, Type 0, BuildingBlock: NAHDIM_clean_linker_0, # of connection points: 4
#     Node 7, Type 0, BuildingBlock: NAHDIM_clean_linker_0, # of connection points: 4
#     Node 8, Type 1, BuildingBlock: NAWXER_clean_sbu_0, # of connection points: 4
#     Node 9, Type 1, BuildingBlock: NAWXER_clean_sbu_0, # of connection points: 4
#     Node 10, Type 1, BuildingBlock: NAWXER_clean_sbu_0, # of connection points: 4
#     Node 11, Type 1, BuildingBlock: NAWXER_clean_sbu_0, # of connection points: 4
#     Node 12, Type 1, BuildingBlock: NAWXER_clean_sbu_0, # of connection points: 4
#     Node 13, Type 1, BuildingBlock: NAWXER_clean_sbu_0, # of connection points: 4
#     Node 14, Type 1, BuildingBlock: NAWXER_clean_sbu_0, # of connection points: 4
#     Node 15, Type 1, BuildingBlock: NAWXER_clean_sbu_0, # of connection points: 4
#     Edge 16, Type (0, 1), BuildingBlock: OJICUG_clean_linker_0, # of connection points: 2
#     Edge 17, Type (0, 1), BuildingBlock: OJICUG_clean_linker_0, # of connection points: 2
#     Edge 18, Type (0, 1), BuildingBlock: OJICUG_clean_linker_0, # of connection points: 2
#     Edge 19, Type (0, 1), BuildingBlock: OJICUG_clean_linker_0, # of connection points: 2
#     Edge 20, Type (0, 1), BuildingBlock: OJICUG_clean_linker_0, # of connection points: 2
#     Edge 21, Type (0, 1), BuildingBlock: OJICUG_clean_linker_0, # of connection points: 2
#     Edge 22, Type (0, 1), BuildingBlock: OJICUG_clean_linker_0, # of connection points: 2
#     Edge 23, Type (0, 1), BuildingBlock: OJICUG_clean_linker_0, # of connection points: 2
#     Edge 24, Type (0, 1), BuildingBlock: OJICUG_clean_linker_0, # of connection points: 2
#     Edge 25, Type (0, 1), BuildingBlock: OJICUG_clean_linker_0, # of connection points: 2
#     Edge 26, Type (0, 1), BuildingBlock: OJICUG_clean_linker_0, # of connection points: 2
#     Edge 27, Type (0, 1), BuildingBlock: OJICUG_clean_linker_0, # of connection points: 2
#     Edge 28, Type (0, 1), BuildingBlock: OJICUG_clean_linker_0, # of connection points: 2
#     Edge 29, Type (0, 1), BuildingBlock: OJICUG_clean_linker_0, # of connection points: 2
#     Edge 30, Type (0, 1), BuildingBlock: OJICUG_clean_linker_0, # of connection points: 2
#     Edge 31, Type (0, 1), BuildingBlock: OJICUG_clean_linker_0, # of connection points: 2
#     Edge 32, Type (0, 1), BuildingBlock: OJICUG_clean_linker_0, # of connection points: 2
#     Edge 33, Type (0, 1), BuildingBlock: OJICUG_clean_linker_0, # of connection points: 2
#     Edge 34, Type (0, 1), BuildingBlock: OJICUG_clean_linker_0, # of connection points: 2
#     Edge 35, Type (0, 1), BuildingBlock: OJICUG_clean_linker_0, # of connection points: 2
#     Edge 36, Type (0, 1), BuildingBlock: OJICUG_clean_linker_0, # of connection points: 2
#     Edge 37, Type (0, 1), BuildingBlock: OJICUG_clean_linker_0, # of connection points: 2
#     Edge 38, Type (0, 1), BuildingBlock: OJICUG_clean_linker_0, # of connection points: 2
#     Edge 39, Type (0, 1), BuildingBlock: OJICUG_clean_linker_0, # of connection points: 2
#     Edge 40, Type (0, 1), BuildingBlock: OJICUG_clean_linker_0, # of connection points: 2
#     Edge 41, Type (0, 1), BuildingBlock: OJICUG_clean_linker_0, # of connection points: 2
#     Edge 42, Type (0, 1), BuildingBlock: OJICUG_clean_linker_0, # of connection points: 2
#     Edge 43, Type (0, 1), BuildingBlock: OJICUG_clean_linker_0, # of connection points: 2
#     Edge 44, Type (0, 1), BuildingBlock: OJICUG_clean_linker_0, # of connection points: 2
#     Edge 45, Type (0, 1), BuildingBlock: OJICUG_clean_linker_0, # of connection points: 2
#     Edge 46, Type (0, 1), BuildingBlock: OJICUG_clean_linker_0, # of connection points: 2
#     Edge 47, Type (0, 1), BuildingBlock: OJICUG_clean_linker_0, # of connection points: 2
# Relax obj value: 0.006
# Max RMSD: 0.044
# Mean RMSD: 0.034
data_MOF--net-ssb--node1-NAWXER_clean_sbu_0--node2-NAHDIM_clean_linker_0--edge1-OJICUG_clean_linker_0
_symmetry_space_group_name_H-M    P1
_symmetry_Int_Tables_number       1
_symmetry_cell_setting            triclinic
loop_
_symmetry_equiv_pos_as_xyz
'x, y, z'
_cell_length_a     50.107409
_cell_length_b     50.068206
_cell_length_c     42.978081
_cell_angle_alpha  90.014961
_cell_angle_beta   90.102045
_cell_angle_gamma 90.014193
loop_
_atom_site_label
_atom_site_type_symbol
_atom_site_fract_x
_atom_site_fract_y
_atom_site_fract_z
_atom_type_partial_charge
C0 C 0.35779 0.1357 0.40374 0.0
C1 C 0.33276 0.14421 0.42176 0.0
C2 C 0.31157 0.17115 0.38033 0.0
C3 C 0.32746 0.19417 0.38307 0.0
C4 C 0.32631 0.21442 0.36043 0.0
C5 C 0.30927 0.21137 0.33432 0.0
C6 C 0.29305 0.18829 0.33178 0.0
C7 C 0.2941 0.16877 0.35515 0.0
C8 C 0.34352 0.23893 0.36427 0.0
C9 C 0.27508 0.18383 0.30402 0.0
C10 C 0.47449 0.22765 0.21331 0.0
C11 C 0.44797 0.22878 0.19569 0.0
C12 C 0.40821 0.25035 0.2174 0.0
C13 C 0.3892 0.23119 0.20838 0.0
C14 C 0.36379 0.23073 0.22213 0.0
C15 C 0.35731 0.24994 0.24502 0.0
C16 C 0.37599 0.27005 0.25293 0.0
C17 C 0.40114 0.27009 0.23873 0.0
C18 C 0.34402 0.20951 0.21262 0.0
C19 C 0.36972 0.291 0.27711 0.0
C20 C 0.23378 0.36093 0.15272 0.0
C21 C 0.21926 0.33725 0.1575 0.0
C22 C 0.22289 0.32203 0.18462 0.0
C23 C 0.24077 0.33105 0.20791 0.0
C24 C 0.25481 0.3553 0.20359 0.0
C25 C 0.25142 0.36965 0.1758 0.0
C26 C 0.20747 0.29633 0.18844 0.0
C27 C 0.2732 0.36618 0.22838 0.0
C28 C 0.16834 0.3299 0.43013 0.0
C29 C 0.14645 0.33585 0.40602 0.0
C30 C 0.16552 0.31611 0.35832 0.0
C31 C 0.16308 0.29494 0.33733 0.0
C32 C 0.18169 0.29123 0.31339 0.0
C33 C 0.20357 0.30891 0.31089 0.0
C34 C 0.20577 0.33088 0.33146 0.0
C35 C 0.18652 0.33446 0.35474 0.0
C36 C 0.17826 0.26812 0.29119 0.0
C37 C 0.22876 0.35028 0.32918 0.0
C38 C 0.30948 0.23137 0.30872 0.0
C39 C 0.33115 0.23122 0.2883 0.0
C40 C 0.33188 0.24814 0.26245 0.0
C41 C 0.30971 0.26449 0.25548 0.0
C42 C 0.30863 0.2797 0.22801 0.0
C43 C 0.28674 0.29595 0.22156 0.0
C44 C 0.26568 0.29846 0.24297 0.0
C45 C 0.24378 0.31567 0.23728 0.0
C46 C 0.2238 0.31838 0.25971 0.0
C47 C 0.22472 0.304 0.28752 0.0
C48 C 0.24585 0.28591 0.29312 0.0
C49 C 0.24695 0.27051 0.3205 0.0
C50 C 0.26761 0.25244 0.32555 0.0
C51 C 0.28836 0.24966 0.30386 0.0
C52 C 0.28815 0.26574 0.27668 0.0
C53 C 0.26651 0.28335 0.27088 0.0
C54 C 0.22503 0.34999 0.07992 0.0
C55 C 0.21453 0.37215 0.10137 0.0
O56 O 0.31241 0.1507 0.40113 0.0
O57 O 0.14741 0.31764 0.38174 0.0
O58 O 0.23165 0.37591 0.1264 0.0
O59 O 0.43351 0.25057 0.20619 0.0
H60 H 0.33745 0.16176 0.43667 0.0
H61 H 0.36506 0.15226 0.38884 0.0
H62 H 0.35331 0.11822 0.38866 0.0
H63 H 0.37417 0.13033 0.42003 0.0
H64 H 0.34076 0.19647 0.40274 0.0
H65 H 0.28182 0.15101 0.35336 0.0
H66 H 0.36022 0.23814 0.34736 0.0
H67 H 0.35209 0.24044 0.38807 0.0
H68 H 0.33178 0.25727 0.35934 0.0
H69 H 0.26652 0.16336 0.30362 0.0
H70 H 0.28626 0.18714 0.28207 0.0
H71 H 0.25837 0.19836 0.30462 0.0
H72 H 0.43746 0.20972 0.20091 0.0
H73 H 0.48652 0.21031 0.20535 0.0
H74 H 0.47066 0.22533 0.23862 0.0
H75 H 0.48615 0.24628 0.20968 0.0
H76 H 0.39406 0.2166 0.19069 0.0
H77 H 0.4158 0.28508 0.24504 0.0
H78 H 0.34051 0.1958 0.23249 0.0
H79 H 0.35111 0.1976 0.19245 0.0
H80 H 0.32459 0.21886 0.20657 0.0
H81 H 0.38671 0.30484 0.28116 0.0
H82 H 0.3645 0.28123 0.29949 0.0
H83 H 0.35216 0.30286 0.26956 0.0
H84 H 0.19433 0.36661 0.10997 0.0
H85 H 0.20515 0.33036 0.14022 0.0
H86 H 0.2624 0.38803 0.17208 0.0
H87 H 0.22109 0.27993 0.19555 0.0
H88 H 0.19698 0.29037 0.16673 0.0
H89 H 0.1924 0.29883 0.20712 0.0
H90 H 0.28008 0.38677 0.22301 0.0
H91 H 0.29098 0.3531 0.23053 0.0
H92 H 0.26297 0.36633 0.25128 0.0
H93 H 0.14909 0.35645 0.39681 0.0
H94 H 0.16667 0.34388 0.45011 0.0
H95 H 0.18848 0.3324 0.41991 0.0
H96 H 0.16664 0.30908 0.43885 0.0
H97 H 0.14662 0.28109 0.34001 0.0
H98 H 0.18832 0.35139 0.37023 0.0
H99 H 0.19426 0.25321 0.29531 0.0
H100 H 0.18013 0.27515 0.26678 0.0
H101 H 0.15864 0.25807 0.29403 0.0
H102 H 0.2283 0.36561 0.34787 0.0
H103 H 0.22813 0.36055 0.30631 0.0
H104 H 0.24798 0.33931 0.33059 0.0
H105 H 0.34787 0.218 0.29281 0.0
H106 H 0.32453 0.27887 0.21101 0.0
H107 H 0.28676 0.30688 0.19983 0.0
H108 H 0.20731 0.33197 0.2555 0.0
H109 H 0.2317 0.27202 0.33822 0.0
H110 H 0.26733 0.24093 0.34687 0.0
H111 H 0.21159 0.34757 0.05952 0.0
H112 H 0.22594 0.33058 0.09227 0.0
H113 H 0.24543 0.3548 0.07153 0.0
C114 C 0.6477 0.12291 0.08498 0.0
C115 C 0.63821 0.14834 0.10147 0.0
C116 C 0.67091 0.17745 0.12628 0.0
C117 C 0.65598 0.18753 0.15121 0.0
C118 C 0.66878 0.19811 0.1776 0.0
C119 C 0.69703 0.19802 0.17922 0.0
C120 C 0.71204 0.18825 0.15368 0.0
C121 C 0.69869 0.17877 0.12721 0.0
C122 C 0.65209 0.20886 0.20396 0.0
C123 C 0.74215 0.18674 0.15466 0.0
C124 C 0.70494 0.06327 0.32403 0.0
C125 C 0.72535 0.07882 0.34351 0.0
C126 C 0.72068 0.12526 0.32536 0.0
C127 C 0.73619 0.12251 0.29825 0.0
C128 C 0.73892 0.14372 0.27722 0.0
C129 C 0.72523 0.16793 0.28278 0.0
C130 C 0.70954 0.17081 0.30989 0.0
C131 C 0.70778 0.14952 0.33104 0.0
C132 C 0.75624 0.14012 0.24879 0.0
C133 C 0.69424 0.19619 0.31618 0.0
C134 C 0.86383 0.27295 0.33205 0.0
C135 C 0.86412 0.25582 0.30616 0.0
C136 C 0.84389 0.25705 0.28356 0.0
C137 C 0.82247 0.27524 0.28737 0.0
C138 C 0.8224 0.29286 0.31311 0.0
C139 C 0.84333 0.29171 0.33486 0.0
C140 C 0.84537 0.23866 0.25575 0.0
C141 C 0.79997 0.31251 0.31801 0.0
C142 C 0.73044 0.36977 0.10191 0.0
C143 C 0.74876 0.38985 0.11842 0.0
C144 C 0.77378 0.35842 0.15145 0.0
C145 C 0.79498 0.34034 0.15017 0.0
C146 C 0.79739 0.31959 0.17198 0.0
C147 C 0.77849 0.31747 0.1963 0.0
C148 C 0.75776 0.33659 0.19869 0.0
C149 C 0.75538 0.35662 0.17601 0.0
C150 C 0.81972 0.2996 0.16858 0.0
C151 C 0.73785 0.33568 0.22501 0.0
C152 C 0.7109 0.20528 0.20865 0.0
C153 C 0.71011 0.18669 0.23284 0.0
C154 C 0.72617 0.18955 0.25922 0.0
C155 C 0.74394 0.21139 0.2615 0.0
C156 C 0.76178 0.21387 0.28662 0.0
C157 C 0.77996 0.23486 0.28792 0.0
C158 C 0.78077 0.25435 0.26436 0.0
C159 C 0.7999 0.27514 0.26479 0.0
C160 C 0.79871 0.29537 0.24236 0.0
C161 C 0.77964 0.29474 0.21852 0.0
C162 C 0.7619 0.27282 0.21621 0.0
C163 C 0.74407 0.27025 0.19103 0.0
C164 C 0.72712 0.2483 0.18864 0.0
C165 C 0.72714 0.22826 0.21151 0.0
C166 C 0.74421 0.23096 0.23768 0.0
C167 C 0.76218 0.25283 0.23953 0.0
C168 C 0.88229 0.22804 0.37648 0.0
C169 C 0.89915 0.25069 0.36255 0.0
O170 O 0.65913 0.16648 0.10092 0.0
O171 O 0.77181 0.37709 0.12855 0.0
O172 O 0.88272 0.27205 0.35482 0.0
O173 O 0.71743 0.10523 0.34648 0.0
H174 H 0.63305 0.14276 0.12583 0.0
H175 H 0.66676 0.11603 0.09551 0.0
H176 H 0.65112 0.12685 0.05984 0.0
H177 H 0.633 0.10648 0.08749 0.0
H178 H 0.63439 0.18717 0.14997 0.0
H179 H 0.70992 0.17116 0.10758 0.0
H180 H 0.65208 0.19424 0.22336 0.0
H181 H 0.63109 0.21241 0.19673 0.0
H182 H 0.66066 0.22784 0.21289 0.0
H183 H 0.75033 0.17454 0.1353 0.0
H184 H 0.74906 0.17803 0.17703 0.0
H185 H 0.75062 0.20715 0.15278 0.0
H186 H 0.74499 0.0776 0.33173 0.0
H187 H 0.70414 0.07148 0.30005 0.0
H188 H 0.68468 0.06479 0.33435 0.0
H189 H 0.71071 0.04188 0.32255 0.0
H190 H 0.74626 0.104 0.29299 0.0
H191 H 0.69582 0.15152 0.3519 0.0
H192 H 0.74343 0.13922 0.22772 0.0
H193 H 0.76833 0.12154 0.24991 0.0
H194 H 0.76993 0.15742 0.24612 0.0
H195 H 0.6821 0.1949 0.33774 0.0
H196 H 0.6808 0.20064 0.29627 0.0
H197 H 0.70836 0.21316 0.31847 0.0
H198 H 0.90971 0.24336 0.3415 0.0
H199 H 0.88008 0.24151 0.30327 0.0
H200 H 0.84338 0.30502 0.35476 0.0
H201 H 0.83075 0.2222 0.25862 0.0
H202 H 0.86551 0.22968 0.25307 0.0
H203 H 0.84024 0.24957 0.23405 0.0
H204 H 0.80153 0.32295 0.34076 0.0
H205 H 0.78043 0.30208 0.3168 0.0
H206 H 0.80031 0.3277 0.29921 0.0
H207 H 0.73809 0.39873 0.13855 0.0
H208 H 0.7119 0.37971 0.0937 0.0
H209 H 0.72457 0.35355 0.11813 0.0
H210 H 0.74082 0.36073 0.08165 0.0
H211 H 0.80923 0.34203 0.13133 0.0
H212 H 0.73918 0.37077 0.17782 0.0
H213 H 0.81158 0.27897 0.1688 0.0
H214 H 0.83362 0.30148 0.1886 0.0
H215 H 0.83121 0.30256 0.14677 0.0
H216 H 0.72606 0.35442 0.2267 0.0
H217 H 0.74818 0.33223 0.24754 0.0
H218 H 0.72381 0.31886 0.22119 0.0
H219 H 0.69764 0.16906 0.23053 0.0
H220 H 0.76217 0.19937 0.3053 0.0
H221 H 0.79339 0.23563 0.30766 0.0
H222 H 0.81298 0.31165 0.24326 0.0
H223 H 0.74333 0.28494 0.17257 0.0
H224 H 0.71399 0.24716 0.16864 0.0
H225 H 0.87195 0.23501 0.39785 0.0
H226 H 0.89497 0.21057 0.38241 0.0
H227 H 0.86703 0.2212 0.35951 0.0
C228 C 0.64494 0.87964 0.3955 0.0
C229 C 0.67202 0.87312 0.41036 0.0
C230 C 0.69469 0.8495 0.36708 0.0
C231 C 0.68057 0.82528 0.36889 0.0
C232 C 0.68495 0.80491 0.34692 0.0
C233 C 0.70365 0.80893 0.32271 0.0
C234 C 0.71787 0.83329 0.32097 0.0
C235 C 0.71333 0.85312 0.34336 0.0
C236 C 0.6696 0.77908 0.34948 0.0
C237 C 0.7377 0.83852 0.29527 0.0
C238 C 0.57349 0.76359 0.17473 0.0
C239 C 0.59397 0.75617 0.1496 0.0
C240 C 0.63586 0.76979 0.17534 0.0
C241 C 0.65574 0.78936 0.17612 0.0
C242 C 0.67542 0.78945 0.19942 0.0
C243 C 0.67503 0.76949 0.22271 0.0
C244 C 0.6552 0.74937 0.22189 0.0
C245 C 0.63605 0.74951 0.19801 0.0
C246 C 0.69649 0.81097 0.19929 0.0
C247 C 0.65403 0.72787 0.24648 0.0
C248 C 0.80093 0.64893 0.17306 0.0
C249 C 0.81702 0.67151 0.17828 0.0
C250 C 0.81201 0.68867 0.20346 0.0
C251 C 0.79113 0.68261 0.22446 0.0
C252 C 0.77604 0.65896 0.22036 0.0
C253 C 0.78094 0.64266 0.19445 0.0
C254 C 0.82881 0.71348 0.20734 0.0
C255 C 0.75448 0.65105 0.24305 0.0
C256 C 0.84883 0.70249 0.45371 0.0
C257 C 0.86887 0.69406 0.42861 0.0
C258 C 0.85053 0.71251 0.37984 0.0
C259 C 0.85456 0.73153 0.35653 0.0
C260 C 0.83719 0.73346 0.33098 0.0
C261 C 0.81503 0.71605 0.32893 0.0
C262 C 0.81071 0.69679 0.35245 0.0
C263 C 0.82853 0.69512 0.37761 0.0
C264 C 0.8425 0.75406 0.30613 0.0
C265 C 0.78718 0.67799 0.35098 0.0
C266 C 0.70808 0.78807 0.29867 0.0
C267 C 0.69063 0.78728 0.27327 0.0
C268 C 0.695 0.76989 0.24832 0.0
C269 C 0.71769 0.75309 0.24834 0.0
C270 C 0.72357 0.73651 0.22286 0.0
C271 C 0.74575 0.71979 0.22327 0.0
C272 C 0.76269 0.71869 0.24938 0.0
C273 C 0.78483 0.70116 0.25042 0.0
C274 C 0.80139 0.70084 0.27662 0.0
C275 C 0.79658 0.71766 0.30195 0.0
C276 C 0.7745 0.73526 0.30141 0.0
C277 C 0.76903 0.75241 0.32654 0.0
C278 C 0.74732 0.76974 0.3257 0.0
C279 C 0.73008 0.7704 0.29985 0.0
C280 C 0.73503 0.75303 0.27445 0.0
C281 C 0.75742 0.73565 0.27509 0.0
C282 C 0.81033 0.65999 0.10212 0.0
C283 C 0.81996 0.63637 0.12207 0.0
O284 O 0.69115 0.87003 0.38735 0.0
O285 O 0.86823 0.71186 0.4039 0.0
O286 O 0.8036 0.63283 0.14775 0.0
O287 O 0.61687 0.77155 0.15271 0.0
H288 H 0.67046 0.85449 0.42432 0.0
H289 H 0.6386 0.86332 0.37967 0.0
H290 H 0.64621 0.89845 0.38185 0.0
H291 H 0.62937 0.88191 0.41368 0.0
H292 H 0.66618 0.82211 0.38724 0.0
H293 H 0.72413 0.87185 0.34222 0.0
H294 H 0.65647 0.77673 0.32882 0.0
H295 H 0.65708 0.77829 0.37077 0.0
H296 H 0.68366 0.76193 0.34972 0.0
H297 H 0.74579 0.85917 0.29605 0.0
H298 H 0.72813 0.83523 0.27226 0.0
H299 H 0.75459 0.82428 0.29726 0.0
H300 H 0.59921 0.73466 0.15172 0.0
H301 H 0.55493 0.75172 0.1716 0.0
H302 H 0.56846 0.78518 0.17345 0.0
H303 H 0.58136 0.75935 0.19834 0.0
H304 H 0.65562 0.80482 0.15847 0.0
H305 H 0.62119 0.73386 0.19753 0.0
H306 H 0.69368 0.82417 0.21978 0.0
H307 H 0.69567 0.8234 0.1779 0.0
H308 H 0.71665 0.80189 0.20121 0.0
H309 H 0.63595 0.71517 0.24423 0.0
H310 H 0.65423 0.73701 0.27003 0.0
H311 H 0.67191 0.7149 0.24459 0.0
H312 H 0.8408 0.64006 0.12997 0.0
H313 H 0.83327 0.67611 0.16265 0.0
H314 H 0.76893 0.62495 0.19057 0.0
H315 H 0.8158 0.73128 0.21007 0.0
H316 H 0.84237 0.71681 0.18729 0.0
H317 H 0.84108 0.71168 0.22877 0.0
H318 H 0.74792 0.63005 0.23963 0.0
H319 H 0.7369 0.66425 0.23984 0.0
H320 H 0.76159 0.65349 0.26737 0.0
H321 H 0.86375 0.67365 0.42028 0.0
H322 H 0.84972 0.68847 0.47372 0.0
H323 H 0.82819 0.70224 0.44436 0.0
H324 H 0.8532 0.72303 0.46212 0.0
H325 H 0.87153 0.74486 0.35838 0.0
H326 H 0.82497 0.68027 0.39536 0.0
H327 H 0.82546 0.76818 0.30478 0.0
H328 H 0.84424 0.74414 0.28312 0.0
H329 H 0.86104 0.76561 0.31068 0.0
H330 H 0.78592 0.66485 0.37175 0.0
H331 H 0.78876 0.66526 0.3299 0.0
H332 H 0.76838 0.6896 0.34902 0.0
H333 H 0.67356 0.8006 0.27274 0.0
H334 H 0.71113 0.73635 0.20223 0.0
H335 H 0.74933 0.7076 0.2029 0.0
H336 H 0.81826 0.68726 0.27733 0.0
H337 H 0.78154 0.75269 0.3471 0.0
H338 H 0.74409 0.78252 0.34568 0.0
H339 H 0.82276 0.66175 0.08083 0.0
H340 H 0.81191 0.67911 0.11496 0.0
H341 H 0.78915 0.65721 0.09512 0.0
C342 C 0.40417 0.87598 0.15479 0.0
C343 C 0.40465 0.84682 0.14381 0.0
C344 C 0.3606 0.82876 0.15705 0.0
C345 C 0.36761 0.8129 0.18279 0.0
C346 C 0.34818 0.80445 0.2041 0.0
C347 C 0.32123 0.81178 0.19941 0.0
C348 C 0.31392 0.82648 0.17263 0.0
C349 C 0.33373 0.83458 0.15163 0.0
C350 C 0.35648 0.78817 0.23204 0.0
C351 C 0.28529 0.83439 0.16676 0.0
C352 C 0.28026 0.95098 0.32954 0.0
C353 C 0.26507 0.93351 0.35291 0.0
C354 C 0.27626 0.88791 0.33568 0.0
C355 C 0.26043 0.8881 0.30859 0.0
C356 C 0.2608 0.86648 0.28782 0.0
C357 C 0.27731 0.84424 0.29418 0.0
C358 C 0.29281 0.84369 0.32169 0.0
C359 C 0.29199 0.86554 0.34214 0.0
C360 C 0.24396 0.86763 0.25869 0.0
C361 C 0.3106 0.82023 0.32914 0.0
C362 C 0.14886 0.73036 0.33856 0.0
C363 C 0.14649 0.74672 0.31218 0.0
C364 C 0.166 0.74629 0.28878 0.0
C365 C 0.18875 0.72973 0.2923 0.0
C366 C 0.19057 0.71239 0.31822 0.0
C367 C 0.17031 0.71265 0.34077 0.0
C368 C 0.16262 0.76412 0.26073 0.0
C369 C 0.21437 0.69433 0.3227 0.0
C370 C 0.29101 0.64026 0.1102 0.0
C371 C 0.27068 0.6208 0.12431 0.0
C372 C 0.24485 0.65289 0.15586 0.0
C373 C 0.22342 0.67066 0.15393 0.0
C374 C 0.21979 0.69084 0.17621 0.0
C375 C 0.23767 0.69275 0.20164 0.0
C376 C 0.25877 0.67407 0.20449 0.0
C377 C 0.26238 0.65457 0.18136 0.0
C378 C 0.19712 0.71039 0.17222 0.0
C379 C 0.2777 0.67483 0.23184 0.0
C380 C 0.30119 0.80635 0.22394 0.0
C381 C 0.29845 0.82542 0.24742 0.0
C382 C 0.2796 0.82239 0.271 0.0
C383 C 0.26295 0.79962 0.27144 0.0
C384 C 0.24369 0.79603 0.29477 0.0
C385 C 0.22703 0.77381 0.29462 0.0
C386 C 0.22891 0.75435 0.27107 0.0
C387 C 0.21141 0.73218 0.27015 0.0
C388 C 0.21478 0.71248 0.24738 0.0
C389 C 0.23476 0.71468 0.22478 0.0
C390 C 0.25148 0.7375 0.22434 0.0
C391 C 0.27075 0.74121 0.20094 0.0
C392 C 0.28712 0.7637 0.20077 0.0
C393 C 0.28484 0.78333 0.22398 0.0
C394 C 0.26558 0.78002 0.2478 0.0
C395 C 0.2487 0.75722 0.24779 0.0
C396 C 0.13831 0.77424 0.38587 0.0
C397 C 0.11796 0.75397 0.37322 0.0
O398 O 0.37893 0.83857 0.13676 0.0
O399 O 0.24774 0.6346 0.13268 0.0
O400 O 0.13116 0.73137 0.36249 0.0
O401 O 0.27733 0.90882 0.35592 0.0
H402 H 0.41331 0.83515 0.16331 0.0
H403 H 0.39395 0.87725 0.17766 0.0
H404 H 0.39303 0.88877 0.13813 0.0
H405 H 0.42481 0.88372 0.15768 0.0
H406 H 0.38807 0.80684 0.18642 0.0
H407 H 0.32844 0.84632 0.13136 0.0
H408 H 0.35302 0.79993 0.25356 0.0
H409 H 0.37786 0.78234 0.23118 0.0
H410 H 0.3441 0.76982 0.23358 0.0
H411 H 0.28268 0.84467 0.14405 0.0
H412 H 0.27844 0.84794 0.18557 0.0
H413 H 0.27232 0.81641 0.16721 0.0
H414 H 0.2442 0.93081 0.34466 0.0
H415 H 0.27989 0.94179 0.30606 0.0
H416 H 0.30143 0.95341 0.33674 0.0
H417 H 0.27082 0.97101 0.32786 0.0
H418 H 0.24798 0.90508 0.30313 0.0
H419 H 0.30404 0.86546 0.36311 0.0
H420 H 0.23127 0.84949 0.25702 0.0
H421 H 0.25714 0.86794 0.23796 0.0
H422 H 0.2309 0.88555 0.25803 0.0
H423 H 0.32085 0.82251 0.35192 0.0
H424 H 0.3259 0.818 0.31066 0.0
H425 H 0.29861 0.80158 0.3295 0.0
H426 H 0.10642 0.76323 0.35393 0.0
H427 H 0.12952 0.7599 0.30971 0.0
H428 H 0.17174 0.69982 0.36101 0.0
H429 H 0.17577 0.78183 0.26318 0.0
H430 H 0.14173 0.77126 0.25821 0.0
H431 H 0.16845 0.75345 0.23913 0.0
H432 H 0.21352 0.68322 0.34505 0.0
H433 H 0.23305 0.70625 0.32212 0.0
H434 H 0.2153 0.67968 0.30335 0.0
H435 H 0.27948 0.61091 0.14507 0.0
H436 H 0.30965 0.62966 0.10368 0.0
H437 H 0.29639 0.65599 0.1273 0.0
H438 H 0.28254 0.65003 0.08917 0.0
H439 H 0.20988 0.66909 0.13432 0.0
H440 H 0.27882 0.64071 0.1835 0.0
H441 H 0.20472 0.7312 0.17374 0.0
H442 H 0.18246 0.7076 0.19129 0.0
H443 H 0.18662 0.7078 0.14964 0.0
H444 H 0.29009 0.65648 0.23338 0.0
H445 H 0.26646 0.67721 0.25393 0.0
H446 H 0.29124 0.69225 0.22949 0.0
H447 H 0.31099 0.84311 0.24711 0.0
H448 H 0.24123 0.81042 0.31335 0.0
H449 H 0.21262 0.77213 0.31325 0.0
H450 H 0.20155 0.69532 0.2471 0.0
H451 H 0.27332 0.72685 0.18236 0.0
H452 H 0.30158 0.76553 0.1822 0.0
H453 H 0.15005 0.76529 0.4052 0.0
H454 H 0.12813 0.79249 0.3945 0.0
H455 H 0.15229 0.78048 0.36723 0.0
C456 C 0.1692 0.61733 0.56759 0.0
C457 C 0.15874 0.63819 0.59055 0.0
C458 C 0.18568 0.66867 0.6211 0.0
C459 C 0.16731 0.68066 0.6412 0.0
C460 C 0.17574 0.69195 0.66948 0.0
C461 C 0.203 0.69023 0.67824 0.0
C462 C 0.22147 0.67768 0.65795 0.0
C463 C 0.21262 0.66782 0.62918 0.0
C464 C 0.15537 0.7054 0.69 0.0
C465 C 0.25048 0.67411 0.66667 0.0
C466 C 0.19438 0.60911 0.91185 0.0
C467 C 0.19215 0.63642 0.89853 0.0
C468 C 0.18499 0.64982 0.8453 0.0
C469 C 0.21015 0.64393 0.83283 0.0
C470 C 0.21938 0.65711 0.80609 0.0
C471 C 0.20335 0.67715 0.79218 0.0
C472 C 0.17764 0.68255 0.80432 0.0
C473 C 0.1686 0.6684 0.83045 0.0
C474 C 0.24636 0.64989 0.79301 0.0
C475 C 0.15989 0.70363 0.79011 0.0
C476 C 0.33439 0.78605 0.86162 0.0
C477 C 0.34117 0.76623 0.83996 0.0
C478 C 0.3265 0.76316 0.81235 0.0
C479 C 0.30459 0.78029 0.80633 0.0
C480 C 0.29824 0.80081 0.82769 0.0
C481 C 0.31347 0.8036 0.85497 0.0
C482 C 0.33444 0.74163 0.78959 0.0
C483 C 0.27518 0.81952 0.82188 0.0
C484 C 0.3053 0.84433 0.568 0.0
C485 C 0.29471 0.85948 0.59631 0.0
C486 C 0.30416 0.8391 0.64636 0.0
C487 C 0.3217 0.81926 0.65649 0.0
C488 C 0.31484 0.8022 0.68114 0.0
C489 C 0.29014 0.80576 0.69659 0.0
C490 C 0.27283 0.82665 0.68724 0.0
C491 C 0.27994 0.84297 0.66201 0.0
C492 C 0.33388 0.78026 0.69046 0.0
C493 C 0.24687 0.8318 0.70395 0.0
C494 C 0.21198 0.70022 0.70916 0.0
C495 C 0.20443 0.68566 0.73551 0.0
C496 C 0.21344 0.69272 0.76518 0.0
C497 C 0.23144 0.71431 0.76873 0.0
C498 C 0.24198 0.72122 0.79801 0.0
C499 C 0.26074 0.74157 0.80096 0.0
C500 C 0.26893 0.75647 0.77494 0.0
C501 C 0.28856 0.77664 0.77754 0.0
C502 C 0.29474 0.79245 0.75175 0.0
C503 C 0.28264 0.78797 0.72286 0.0
C504 C 0.26434 0.76662 0.71931 0.0
C505 C 0.25303 0.76038 0.69022 0.0
C506 C 0.23556 0.73892 0.6869 0.0
C507 C 0.22875 0.72282 0.71251 0.0
C508 C 0.2391 0.72939 0.74227 0.0
C509 C 0.25733 0.75095 0.74554 0.0
C510 C 0.33887 0.76822 0.93717 0.0
C511 C 0.35638 0.76854 0.90806 0.0
O512 O 0.17787 0.65802 0.5936 0.0
O513 O 0.31113 0.85439 0.62162 0.0
O514 O 0.34798 0.7891 0.88874 0.0
O515 O 0.17643 0.63838 0.87206 0.0
H516 H 0.15569 0.62794 0.61331 0.0
H517 H 0.1887 0.60947 0.57585 0.0
H518 H 0.17205 0.62636 0.5442 0.0
H519 H 0.15511 0.60028 0.56563 0.0
H520 H 0.14646 0.68152 0.63456 0.0
H521 H 0.22658 0.65849 0.6133 0.0
H522 H 0.14942 0.6914 0.70875 0.0
H523 H 0.13713 0.71099 0.67677 0.0
H524 H 0.16377 0.72362 0.70104 0.0
H525 H 0.26028 0.65853 0.65226 0.0
H526 H 0.25262 0.66854 0.69156 0.0
H527 H 0.26129 0.69317 0.66293 0.0
H528 H 0.21106 0.64822 0.89714 0.0
H529 H 0.2161 0.60376 0.90945 0.0
H530 H 0.18739 0.59487 0.89321 0.0
H531 H 0.17543 0.6126 0.95514 0.0
H532 H 0.22253 0.62901 0.84405 0.0
H533 H 0.1491 0.67257 0.84018 0.0
H534 H 0.26069 0.66626 0.79788 0.0
H535 H 0.24514 0.64742 0.76737 0.0
H536 H 0.25434 0.63119 0.80337 0.0
H537 H 0.14169 0.70731 0.8042 0.0
H538 H 0.15366 0.69718 0.7665 0.0
H539 H 0.17102 0.7227 0.78763 0.0
H540 H 0.35389 0.74876 0.89658 0.0
H541 H 0.35815 0.75338 0.84438 0.0
H542 H 0.30871 0.81913 0.87163 0.0
H543 H 0.31843 0.72634 0.78829 0.0
H544 H 0.35335 0.73159 0.79635 0.0
H545 H 0.33684 0.75026 0.76595 0.0
H546 H 0.27188 0.83347 0.8416 0.0
H547 H 0.25664 0.80785 0.81786 0.0
H548 H 0.27906 0.83137 0.80054 0.0
H549 H 0.27413 0.8519 0.60065 0.0
H550 H 0.29241 0.84807 0.54739 0.0
H551 H 0.30527 0.82253 0.57286 0.0
H552 H 0.32606 0.85056 0.56254 0.0
H553 H 0.34051 0.81671 0.64444 0.0
H554 H 0.26678 0.85896 0.6547 0.0
H555 H 0.32314 0.76091 0.69213 0.0
H556 H 0.34233 0.78476 0.71377 0.0
H557 H 0.35063 0.77808 0.67375 0.0
H558 H 0.23726 0.85068 0.69626 0.0
H559 H 0.2503 0.83278 0.72946 0.0
H560 H 0.23286 0.81508 0.69943 0.0
H561 H 0.19142 0.66847 0.73287 0.0
H562 H 0.2363 0.7106 0.8189 0.0
H563 H 0.26864 0.74562 0.82395 0.0
H564 H 0.30953 0.80817 0.75406 0.0
H565 H 0.25781 0.77183 0.66961 0.0
H566 H 0.22752 0.73501 0.66395 0.0
H567 H 0.34503 0.75177 0.95299 0.0
H568 H 0.3177 0.76495 0.93045 0.0
H569 H 0.34036 0.78753 0.94983 0.0
C570 C 0.24031 0.44352 0.79652 0.0
C571 C 0.23442 0.42353 0.82253 0.0
C572 C 0.24619 0.37782 0.81103 0.0
C573 C 0.22667 0.36271 0.82627 0.0
C574 C 0.21959 0.33722 0.81535 0.0
C575 C 0.23196 0.32696 0.78823 0.0
C576 C 0.25173 0.3423 0.77287 0.0
C577 C 0.259 0.36735 0.78493 0.0
C578 C 0.19879 0.32134 0.83271 0.0
C579 C 0.26487 0.33252 0.74341 0.0
C580 C 0.05446 0.30129 0.69775 0.0
C581 C 0.07755 0.29683 0.67511 0.0
C582 C 0.11523 0.27422 0.69817 0.0
C583 C 0.13768 0.28524 0.68371 0.0
C584 C 0.16253 0.28552 0.69887 0.0
C585 C 0.16471 0.27499 0.72938 0.0
C586 C 0.14185 0.26413 0.7441 0.0
C587 C 0.11749 0.26337 0.72796 0.0
C588 C 0.18646 0.29691 0.68225 0.0
C589 C 0.14308 0.25344 0.77691 0.0
C590 C 0.22938 0.10748 0.71786 0.0
C591 C 0.23991 0.12758 0.69885 0.0
C592 C 0.24915 0.15164 0.71179 0.0
C593 C 0.24668 0.15599 0.74428 0.0
C594 C 0.23636 0.13544 0.76347 0.0
C595 C 0.22838 0.11119 0.75 0.0
C596 C 0.26136 0.17238 0.69068 0.0
C597 C 0.23333 0.13918 0.79815 0.0
C598 C 0.39791 0.25341 0.86086 0.0
C599 C 0.38559 0.2319 0.88177 0.0
C600 C 0.35704 0.20775 0.8465 0.0
C601 C 0.35914 0.20742 0.81412 0.0
C602 C 0.3362 0.20711 0.79532 0.0
C603 C 0.31071 0.2063 0.80946 0.0
C604 C 0.30865 0.20528 0.84233 0.0
C605 C 0.33191 0.20638 0.86052 0.0
C606 C 0.3392 0.20817 0.76042 0.0
C607 C 0.28191 0.20325 0.85826 0.0
C608 C 0.22372 0.30055 0.77549 0.0
C609 C 0.19966 0.29913 0.759 0.0
C610 C 0.19087 0.27514 0.74579 0.0
C611 C 0.20669 0.25186 0.74865 0.0
C612 C 0.19878 0.22754 0.73509 0.0
C613 C 0.21419 0.20463 0.73848 0.0
C614 C 0.23844 0.20522 0.75499 0.0
C615 C 0.25446 0.18208 0.75819 0.0
C616 C 0.27803 0.18325 0.77561 0.0
C617 C 0.28619 0.20694 0.78998 0.0
C618 C 0.27082 0.23044 0.78632 0.0
C619 C 0.27881 0.2548 0.79975 0.0
C620 C 0.26334 0.27771 0.79646 0.0
C621 C 0.23944 0.27728 0.77927 0.0
C622 C 0.23098 0.25292 0.76557 0.0
C623 C 0.2468 0.22953 0.76889 0.0
C624 C 0.17986 0.06332 0.69097 0.0
C625 C 0.20229 0.08231 0.68134 0.0
O626 O 0.25261 0.40271 0.82097 0.0
O627 O 0.37945 0.20962 0.864 0.0
O628 O 0.22028 0.08421 0.70578 0.0
O629 O 0.09123 0.27392 0.68364 0.0
H630 H 0.21376 0.41597 0.81845 0.0
H631 H 0.23829 0.43352 0.77355 0.0
H632 H 0.26094 0.45149 0.79861 0.0
H633 H 0.22593 0.46041 0.79739 0.0
H634 H 0.2171 0.3709 0.84675 0.0
H635 H 0.27409 0.37928 0.77341 0.0
H636 H 0.18035 0.32008 0.81844 0.0
H637 H 0.19369 0.33053 0.85546 0.0
H638 H 0.20597 0.30064 0.83676 0.0
H639 H 0.2769 0.34835 0.73199 0.0
H640 H 0.24958 0.32526 0.72668 0.0
H641 H 0.27825 0.31551 0.74894 0.0
H642 H 0.09093 0.3146 0.67673 0.0
H643 H 0.04338 0.31978 0.69161 0.0
H644 H 0.06234 0.30351 0.72179 0.0
H645 H 0.04046 0.28406 0.69725 0.0
H646 H 0.13571 0.29334 0.66043 0.0
H647 H 0.09991 0.25491 0.73882 0.0
H648 H 0.193 0.31548 0.69415 0.0
H649 H 0.18206 0.3017 0.65752 0.0
H650 H 0.20333 0.28254 0.68315 0.0
H651 H 0.12289 0.24975 0.78666 0.0
H652 H 0.15382 0.26766 0.79233 0.0
H653 H 0.15426 0.23432 0.77711 0.0
H654 H 0.19301 0.10217 0.67667 0.0
H655 H 0.24121 0.12427 0.67398 0.0
H656 H 0.22046 0.09531 0.76442 0.0
H657 H 0.24675 0.18866 0.68662 0.0
H658 H 0.26696 0.16384 0.66774 0.0
H659 H 0.27938 0.18131 0.70158 0.0
H660 H 0.22164 0.1228 0.80901 0.0
H661 H 0.22333 0.15849 0.80323 0.0
H662 H 0.25337 0.13969 0.80918 0.0
H663 H 0.36707 0.24014 0.89243 0.0
H664 H 0.40277 0.2716 0.87456 0.0
H665 H 0.38354 0.25919 0.84234 0.0
H666 H 0.41641 0.24582 0.8497 0.0
H667 H 0.37878 0.20827 0.80366 0.0
H668 H 0.3306 0.20612 0.88569 0.0
H669 H 0.32702 0.22475 0.75077 0.0
H670 H 0.33169 0.18928 0.75008 0.0
H671 H 0.36029 0.211 0.7532 0.0
H672 H 0.28394 0.19862 0.88343 0.0
H673 H 0.26951 0.18754 0.8471 0.0
H674 H 0.27112 0.2225 0.85589 0.0
H675 H 0.18755 0.31696 0.75644 0.0
H676 H 0.18051 0.22589 0.72177 0.0
H677 H 0.20683 0.18645 0.72789 0.0
H678 H 0.29003 0.16536 0.77836 0.0
H679 H 0.29712 0.25645 0.81302 0.0
H680 H 0.27039 0.2958 0.80757 0.0
H681 H 0.16434 0.06213 0.67253 0.0
H682 H 0.17027 0.07074 0.71259 0.0
H683 H 0.18789 0.04298 0.69542 0.0
C684 C 0.83361 0.33859 0.55916 0.0
C685 C 0.85626 0.33766 0.58313 0.0
C686 C 0.84203 0.31313 0.62989 0.0
C687 C 0.84972 0.29199 0.64909 0.0
C688 C 0.83793 0.28818 0.67829 0.0
C689 C 0.81715 0.3054 0.68785 0.0
C690 C 0.80914 0.3268 0.6684 0.0
C691 C 0.82198 0.33071 0.63979 0.0
C692 C 0.84738 0.26552 0.69866 0.0
C693 C 0.78678 0.34536 0.67763 0.0
C694 C 0.83198 0.41849 0.90471 0.0
C695 C 0.83698 0.4002 0.87793 0.0
C696 C 0.8147 0.36561 0.8485 0.0
C697 C 0.80215 0.37586 0.82196 0.0
C698 C 0.79622 0.35937 0.79653 0.0
C699 C 0.80369 0.33211 0.79737 0.0
C700 C 0.81751 0.32198 0.82365 0.0
C701 C 0.8223 0.33879 0.84924 0.0
C702 C 0.78167 0.3712 0.76901 0.0
C703 C 0.82672 0.29332 0.82503 0.0
C704 C 0.65226 0.2517 0.85458 0.0
C705 C 0.65265 0.27066 0.83048 0.0
C706 C 0.66993 0.26769 0.80511 0.0
C707 C 0.68786 0.24584 0.80433 0.0
C708 C 0.68736 0.22659 0.82837 0.0
C709 C 0.66925 0.22962 0.85298 0.0
C710 C 0.66915 0.28815 0.77928 0.0
C711 C 0.70629 0.20316 0.82839 0.0
C712 C 0.7062 0.16765 0.57936 0.0
C713 C 0.71421 0.14922 0.60619 0.0
C714 C 0.70137 0.1695 0.65476 0.0
C715 C 0.68449 0.19129 0.65947 0.0
C716 C 0.68982 0.21001 0.68302 0.0
C717 C 0.71211 0.2062 0.70286 0.0
C718 C 0.72855 0.1834 0.69894 0.0
C719 C 0.72315 0.16546 0.67463 0.0
C720 C 0.67189 0.23405 0.68631 0.0
C721 C 0.7519 0.17802 0.72027 0.0
C722 C 0.80304 0.30053 0.71759 0.0
C723 C 0.8101 0.31602 0.74338 0.0
C724 C 0.79603 0.31407 0.77135 0.0
C725 C 0.77418 0.29624 0.77365 0.0
C726 C 0.75854 0.29486 0.80074 0.0
C727 C 0.73692 0.27753 0.80261 0.0
C728 C 0.73009 0.26087 0.77748 0.0
C729 C 0.70761 0.24386 0.77878 0.0
C730 C 0.70245 0.22615 0.75435 0.0
C731 C 0.71832 0.226 0.72763 0.0
C732 C 0.73951 0.24456 0.72481 0.0
C733 C 0.75425 0.24688 0.69715 0.0
C734 C 0.77487 0.26536 0.69459 0.0
C735 C 0.78204 0.28176 0.71987 0.0
C736 C 0.76751 0.27971 0.74799 0.0
C737 C 0.74581 0.26157 0.75017 0.0
C738 C 0.64261 0.29516 0.90618 0.0
C739 C 0.62265 0.27633 0.89027 0.0
O740 O 0.85385 0.31516 0.60166 0.0
O741 O 0.6966 0.15267 0.63069 0.0
O742 O 0.63595 0.25379 0.87969 0.0
O743 O 0.81744 0.38083 0.87437 0.0
H744 H 0.85559 0.35606 0.59769 0.0
H745 H 0.81399 0.33986 0.57097 0.0
H746 H 0.8337 0.32035 0.5444 0.0
H747 H 0.83584 0.35642 0.544 0.0
H748 H 0.86523 0.27853 0.64114 0.0
H749 H 0.81578 0.34705 0.62501 0.0
H750 H 0.85123 0.27283 0.72266 0.0
H751 H 0.86586 0.25608 0.68957 0.0
H752 H 0.83158 0.25003 0.70006 0.0
H753 H 0.78079 0.35889 0.65835 0.0
H754 H 0.79336 0.35774 0.69759 0.0
H755 H 0.76905 0.33374 0.68515 0.0
H756 H 0.85758 0.3919 0.87626 0.0
H757 H 0.84887 0.41451 0.9214 0.0
H758 H 0.8164 0.40862 0.91971 0.0
H759 H 0.82609 0.45584 0.88352 0.0
H760 H 0.79627 0.3966 0.82133 0.0
H761 H 0.83191 0.33105 0.86998 0.0
H762 H 0.76585 0.3575 0.76045 0.0
H763 H 0.79615 0.37439 0.74988 0.0
H764 H 0.77242 0.39077 0.77469 0.0
H765 H 0.84141 0.29002 0.84405 0.0
H766 H 0.8359 0.28729 0.8026 0.0
H767 H 0.8093 0.28012 0.82919 0.0
H768 H 0.61279 0.28682 0.87061 0.0
H769 H 0.63952 0.28776 0.83103 0.0
H770 H 0.66871 0.21503 0.8716 0.0
H771 H 0.68689 0.30134 0.78112 0.0
H772 H 0.651 0.30085 0.78043 0.0
H773 H 0.66978 0.27822 0.75618 0.0
H774 H 0.70485 0.19118 0.85008 0.0
H775 H 0.72715 0.21029 0.82572 0.0
H776 H 0.70175 0.18999 0.80829 0.0
H777 H 0.73483 0.15486 0.61348 0.0
H778 H 0.72016 0.16521 0.55949 0.0
H779 H 0.707 0.18879 0.58714 0.0
H780 H 0.68557 0.16315 0.57139 0.0
H781 H 0.66761 0.19403 0.64401 0.0
H782 H 0.73582 0.14819 0.67109 0.0
H783 H 0.684 0.2526 0.6877 0.0
H784 H 0.6603 0.2324 0.70821 0.0
H785 H 0.65762 0.23589 0.66661 0.0
H786 H 0.75989 0.15748 0.71733 0.0
H787 H 0.74598 0.18082 0.74495 0.0
H788 H 0.76816 0.19241 0.71517 0.0
H789 H 0.82637 0.33023 0.74144 0.0
H790 H 0.76266 0.30733 0.82076 0.0
H791 H 0.72563 0.27734 0.82407 0.0
H792 H 0.68552 0.21269 0.75589 0.0
H793 H 0.74975 0.2347 0.67699 0.0
H794 H 0.78524 0.26647 0.67255 0.0
H795 H 0.63254 0.31367 0.91423 0.0
H796 H 0.65206 0.28513 0.92647 0.0
H797 H 0.65851 0.30105 0.88959 0.0
C798 C 0.76963 0.58246 0.81201 0.0
C799 C 0.77756 0.60352 0.83613 0.0
C800 C 0.76751 0.64869 0.82147 0.0
C801 C 0.78652 0.66486 0.83611 0.0
C802 C 0.79476 0.68895 0.82246 0.0
C803 C 0.78409 0.69659 0.79323 0.0
C804 C 0.76492 0.68007 0.77839 0.0
C805 C 0.7565 0.6565 0.79306 0.0
C806 C 0.81484 0.70621 0.83924 0.0
C807 C 0.75353 0.68712 0.74691 0.0
C808 C 0.96938 0.71683 0.71703 0.0
C809 C 0.94625 0.72038 0.69416 0.0
C810 C 0.90692 0.74403 0.71207 0.0
C811 C 0.8864 0.73073 0.69618 0.0
C812 C 0.86009 0.7313 0.70743 0.0
C813 C 0.8544 0.74505 0.73546 0.0
C814 C 0.87524 0.7584 0.75154 0.0
C815 C 0.90113 0.75823 0.73915 0.0
C816 C 0.83841 0.71724 0.68935 0.0
C817 C 0.87032 0.77259 0.782 0.0
C818 C 0.79151 0.90851 0.70126 0.0
C819 C 0.78019 0.88813 0.68313 0.0
C820 C 0.76903 0.86543 0.69726 0.0
C821 C 0.77011 0.86274 0.73008 0.0
C822 C 0.78098 0.88368 0.74831 0.0
C823 C 0.79098 0.90656 0.7336 0.0
C824 C 0.75654 0.84416 0.67706 0.0
C825 C 0.78229 0.88206 0.78334 0.0
C826 C 0.65597 0.80016 0.91012 0.0
C827 C 0.63965 0.8206 0.89129 0.0
C828 C 0.6611 0.81688 0.84001 0.0
C829 C 0.65842 0.80692 0.80976 0.0
C830 C 0.67995 0.80732 0.78882 0.0
C831 C 0.70491 0.81754 0.79866 0.0
C832 C 0.70754 0.82842 0.82888 0.0
C833 C 0.68554 0.82845 0.84898 0.0
C834 C 0.67629 0.79604 0.75655 0.0
C835 C 0.73378 0.83958 0.84031 0.0
C836 C 0.79282 0.72185 0.77822 0.0
C837 C 0.81769 0.72233 0.76349 0.0
C838 C 0.82682 0.74527 0.74827 0.0
C839 C 0.81031 0.76816 0.74674 0.0
C840 C 0.8183 0.79118 0.73052 0.0
C841 C 0.80234 0.8139 0.73003 0.0
C842 C 0.77752 0.81441 0.74532 0.0
C843 C 0.76129 0.83757 0.74527 0.0
C844 C 0.73718 0.83763 0.7617 0.0
C845 C 0.72885 0.81517 0.77845 0.0
C846 C 0.74456 0.79169 0.77819 0.0
C847 C 0.73678 0.76875 0.79478 0.0
C848 C 0.75247 0.74586 0.79472 0.0
C849 C 0.77673 0.74505 0.77837 0.0
C850 C 0.78529 0.76812 0.7621 0.0
C851 C 0.76899 0.79134 0.76161 0.0
C852 C 0.842 0.94883 0.66644 0.0
C853 C 0.81768 0.93088 0.6612 0.0
O854 O 0.76028 0.62502 0.83412 0.0
O855 O 0.64 0.81438 0.85982 0.0
O856 O 0.80291 0.93043 0.68841 0.0
O857 O 0.93245 0.74349 0.70167 0.0
H858 H 0.79832 0.60989 0.83034 0.0
H859 H 0.77124 0.59104 0.78825 0.0
H860 H 0.74873 0.57574 0.81562 0.0
H861 H 0.78315 0.56491 0.81352 0.0
H862 H 0.79481 0.65855 0.85823 0.0
H863 H 0.74188 0.64366 0.782 0.0
H864 H 0.83393 0.7062 0.82618 0.0
H865 H 0.81881 0.69905 0.86327 0.0
H866 H 0.80764 0.72717 0.84036 0.0
H867 H 0.74196 0.67037 0.73661 0.0
H868 H 0.76979 0.69272 0.73062 0.0
H869 H 0.74008 0.70461 0.74922 0.0
H870 H 0.93309 0.70254 0.69677 0.0
H871 H 0.98062 0.69826 0.71168 0.0
H872 H 0.96152 0.71528 0.74112 0.0
H873 H 0.98323 0.73415 0.7159 0.0
H874 H 0.89097 0.72018 0.67482 0.0
H875 H 0.91719 0.7685 0.75112 0.0
H876 H 0.82102 0.73071 0.68611 0.0
H877 H 0.83148 0.69957 0.70267 0.0
H878 H 0.84541 0.7104 0.66616 0.0
H879 H 0.88923 0.77785 0.79406 0.0
H880 H 0.85812 0.75995 0.79774 0.0
H881 H 0.85907 0.7913 0.7776 0.0
H882 H 0.82532 0.91049 0.65579 0.0
H883 H 0.77987 0.89004 0.65803 0.0
H884 H 0.79936 0.92269 0.74731 0.0
H885 H 0.7702 0.82677 0.67555 0.0
H886 H 0.75261 0.85147 0.65308 0.0
H887 H 0.73748 0.83711 0.68735 0.0
H888 H 0.79658 0.89676 0.79325 0.0
H889 H 0.78817 0.86176 0.79119 0.0
H890 H 0.76223 0.88652 0.79286 0.0
H891 H 0.64848 0.84077 0.89486 0.0
H892 H 0.65422 0.80437 0.93542 0.0
H893 H 0.67743 0.80109 0.90401 0.0
H894 H 0.6489 0.7795 0.90552 0.0
H895 H 0.63948 0.79835 0.80276 0.0
H896 H 0.68795 0.83707 0.87186 0.0
H897 H 0.6878 0.77719 0.75441 0.0
H898 H 0.68418 0.81022 0.73895 0.0
H899 H 0.65501 0.79177 0.75122 0.0
H900 H 0.73332 0.84465 0.86547 0.0
H901 H 0.73851 0.85795 0.82706 0.0
H902 H 0.75014 0.82504 0.83625 0.0
H903 H 0.83025 0.70469 0.76419 0.0
H904 H 0.83708 0.79195 0.71815 0.0
H905 H 0.80984 0.83111 0.71757 0.0
H906 H 0.7252 0.85566 0.76231 0.0
H907 H 0.71842 0.76817 0.80799 0.0
H908 H 0.74542 0.72886 0.80792 0.0
H909 H 0.85519 0.94876 0.64569 0.0
H910 H 0.85375 0.94137 0.68659 0.0
H911 H 0.83564 0.96967 0.67136 0.0
C912 C 0.96036 0.32851 0.52534 0.0
C913 C 0.04444 0.32627 0.46908 0.0
O914 O 0.9734 0.34847 0.51517 0.0
Zn915 Zn 0.00251 0.32799 0.49796 0.0
O916 O 0.96996 0.30488 0.52249 0.0
Zn917 Zn 0.00461 0.28581 0.50328 0.0
O918 O 0.02163 0.27053 0.53966 0.0
O919 O 0.02267 0.31456 0.5392 0.0
O920 O 0.03699 0.30308 0.4782 0.0
O921 O 0.03011 0.34649 0.47525 0.0
O922 O 0.98175 0.30508 0.46296 0.0
O923 O 0.98858 0.26232 0.47284 0.0
C924 C 0.02853 0.29236 0.55245 0.0
C925 C 0.97788 0.28041 0.45622 0.0
C926 C 0.71483 0.04296 0.55178 0.0
C927 C 0.70242 0.96051 0.49273 0.0
O928 O 0.7363 0.03508 0.53836 0.0
Zn929 Zn 0.74886 0.00209 0.50967 0.0
O930 O 0.69379 0.02888 0.54955 0.0
Zn931 Zn 0.70884 0.00084 0.52413 0.0
O932 O 0.73678 0.98195 0.55566 0.0
O933 O 0.77616 0.98469 0.53304 0.0
O934 O 0.68581 0.97161 0.5109 0.0
O935 O 0.72609 0.96995 0.49048 0.0
O936 O 0.76009 0.01975 0.47285 0.0
O937 O 0.71657 0.022 0.48062 0.0
C938 C 0.76193 0.97706 0.5557 0.0
C939 C 0.73716 0.02746 0.46398 0.0
C940 C 0.99502 0.72086 0.57146 0.0
C941 C 0.04502 0.72922 0.47455 0.0
O942 O 0.00492 0.74186 0.55955 0.0
Zn943 Zn 0.01931 0.7254 0.52236 0.0
O944 O 0.99758 0.69852 0.55718 0.0
Zn945 Zn 0.01538 0.68397 0.51508 0.0
O946 O 0.04095 0.65899 0.53092 0.0
O947 O 0.05174 0.70104 0.54022 0.0
O948 O 0.0383 0.70498 0.48025 0.0
O949 O 0.03739 0.74779 0.49262 0.0
O950 O 0.98404 0.71362 0.49711 0.0
O951 O 0.98542 0.66982 0.49242 0.0
C952 C 0.0572 0.67602 0.54196 0.0
C953 C 0.97357 0.69179 0.48729 0.0
C954 C 0.24652 0.03716 0.56803 0.0
C955 C 0.26283 0.98936 0.47158 0.0
O956 O 0.27138 0.03154 0.56513 0.0
Zn957 Zn 0.29613 0.01317 0.53008 0.0
O958 O 0.2304 0.03092 0.54647 0.0
Zn959 Zn 0.25525 0.0138 0.51918 0.0
O960 O 0.26879 0.97897 0.54439 0.0
O961 O 0.31204 0.98376 0.55245 0.0
O962 O 0.24085 0.99784 0.48247 0.0
O963 O 0.2846 0.99367 0.48665 0.0
O964 O 0.31917 0.04199 0.51626 0.0
O965 O 0.27775 0.04608 0.49962 0.0
C966 C 0.29089 0.96995 0.55534 0.0
C967 C 0.30188 0.05454 0.50032 0.0
C968 C 0.47222 0.82404 0.03712 0.0
C969 C 0.53806 0.81673 0.95472 0.0
O970 O 0.48373 0.84276 0.02235 0.0
Zn971 Zn 0.5035 0.82013 0.99479 0.0
O972 O 0.47664 0.79962 0.02951 0.0
Zn973 Zn 0.50071 0.7784 0.99541 0.0
O974 O 0.52222 0.75666 0.0224 0.0
O975 O 0.52955 0.79989 0.02773 0.0
O976 O 0.52973 0.79362 0.96314 0.0
O977 O 0.52769 0.83743 0.96664 0.0
O978 O 0.4716 0.80415 0.96667 0.0
O979 O 0.47447 0.76039 0.9703 0.0
C980 C 0.5344 0.77569 0.03591 0.0
C981 C 0.46268 0.78089 0.95968 0.0
C982 C 0.24749 0.53912 0.03147 0.0
C983 C 0.237 0.48282 0.9391 0.0
O984 O 0.26604 0.52983 0.0144 0.0
Zn985 Zn 0.24313 0.51032 0.98615 0.0
O986 O 0.22316 0.53245 0.02618 0.0
Zn987 Zn 0.20116 0.50808 0.99336 0.0
O988 O 0.18664 0.47977 0.01915 0.0
O989 O 0.23045 0.47808 0.0151 0.0
O990 O 0.21492 0.48727 0.95316 0.0
O991 O 0.25845 0.4926 0.95005 0.0
O992 O 0.22014 0.54275 0.967 0.0
O993 O 0.17737 0.53434 0.97518 0.0
C994 C 0.20864 0.46857 0.02599 0.0
C995 C 0.19555 0.54943 0.96444 0.0
C996 C 0.53905 0.24805 0.97782 0.0
C997 C 0.48176 0.23498 0.06724 0.0
O998 O 0.52991 0.26563 0.99624 0.0
Zn999 Zn 0.50846 0.24188 0.02069 0.0
O1000 O 0.53126 0.22371 0.9802 0.0
Zn1001 Zn 0.50436 0.2012 0.00946 0.0
O1002 O 0.47648 0.18992 0.9813 0.0
O1003 O 0.4759 0.23329 0.98993 0.0
O1004 O 0.48462 0.2133 0.05167 0.0
O1005 O 0.49184 0.25649 0.05699 0.0
O1006 O 0.53843 0.21529 0.04021 0.0
O1007 O 0.52794 0.17429 0.0254 0.0
C1008 C 0.46611 0.21265 0.97644 0.0
C1009 C 0.54328 0.1901 0.04014 0.0
C1010 C 0.81452 0.54585 0.03769 0.0
C1011 C 0.8192 0.47885 0.95559 0.0
O1012 O 0.83521 0.53446 0.02698 0.0
Zn1013 Zn 0.81737 0.51114 0.99757 0.0
O1014 O 0.79149 0.53921 0.02724 0.0
Zn1015 Zn 0.7751 0.51226 0.99379 0.0
O1016 O 0.75352 0.48875 0.01867 0.0
O1017 O 0.79667 0.48254 0.02613 0.0
O1018 O 0.79522 0.48565 0.96223 0.0
O1019 O 0.83868 0.48861 0.97078 0.0
O1020 O 0.80158 0.53857 0.96364 0.0
O1021 O 0.75763 0.53608 0.96471 0.0
C1022 C 0.77237 0.47624 0.03203 0.0
C1023 C 0.77877 0.54599 0.95315 0.0
C1024 C 0.10906 0.30846 0.42897 0.0
C1025 C 0.11943 0.33369 0.42137 0.0
H1026 H 0.07731 0.28639 0.44967 0.0
C1027 C 0.10484 0.35665 0.42935 0.0
H1028 H 0.12002 0.29044 0.42338 0.0
C1029 C 0.08022 0.35438 0.44447 0.0
C1030 C 0.06993 0.32909 0.45211 0.0
H1031 H 0.11255 0.37634 0.42405 0.0
H1032 H 0.06945 0.3724 0.4505 0.0
C1033 C 0.0846 0.30618 0.44409 0.0
C1034 C 0.75262 0.05427 0.38385 0.0
C1035 C 0.72843 0.06649 0.37544 0.0
H1036 H 0.77438 0.03265 0.41835 0.0
C1037 C 0.70721 0.06648 0.39683 0.0
H1038 H 0.76931 0.05393 0.36787 0.0
C1039 C 0.71003 0.054 0.42578 0.0
C1040 C 0.73421 0.0416 0.43399 0.0
H1041 H 0.6884 0.07588 0.39098 0.0
H1042 H 0.69327 0.05401 0.44166 0.0
C1043 C 0.75553 0.04211 0.41282 0.0
C1044 C 0.90896 0.66898 0.44963 0.0
C1045 C 0.89675 0.69344 0.44224 0.0
H1046 H 0.9429 0.64922 0.46932 0.0
C1047 C 0.91024 0.71732 0.44923 0.0
H1048 H 0.8989 0.65028 0.4448 0.0
C1049 C 0.93534 0.71676 0.46345 0.0
C1050 C 0.94751 0.69229 0.471 0.0
H1051 H 0.90118 0.73645 0.44404 0.0
H1052 H 0.94507 0.73554 0.46876 0.0
C1053 C 0.93414 0.6684 0.4637 0.0
C1054 C 0.24074 0.95928 0.39484 0.0
C1055 C 0.26435 0.94717 0.38431 0.0
H1056 H 0.22168 0.98191 0.43068 0.0
C1057 C 0.2875 0.94903 0.40272 0.0
H1058 H 0.22269 0.95842 0.38098 0.0
C1059 C 0.28702 0.96267 0.4311 0.0
C1060 C 0.26336 0.97471 0.44168 0.0
H1061 H 0.30602 0.94007 0.39501 0.0
H1062 H 0.3052 0.96379 0.44471 0.0
C1063 C 0.24021 0.97276 0.42329 0.0
C1064 C 0.12983 0.67485 0.56626 0.0
C1065 C 0.13217 0.64921 0.57942 0.0
H1066 H 0.10405 0.7036 0.54474 0.0
C1067 C 0.10941 0.63284 0.58082 0.0
H1068 H 0.14696 0.68793 0.56447 0.0
C1069 C 0.08502 0.64158 0.5688 0.0
C1070 C 0.08271 0.66715 0.55572 0.0
H1071 H 0.11065 0.61299 0.59076 0.0
H1072 H 0.06794 0.62833 0.56978 0.0
C1073 C 0.10524 0.68385 0.55495 0.0
C1074 C 0.20197 0.0753 0.62333 0.0
C1075 C 0.21549 0.07236 0.6518 0.0
H1076 H 0.20106 0.06636 0.57465 0.0
C1077 C 0.23993 0.0585 0.65228 0.0
H1078 H 0.18304 0.08571 0.62235 0.0
C1079 C 0.2505 0.04782 0.62484 0.0
C1080 C 0.23651 0.05015 0.5966 0.0
H1081 H 0.25072 0.05554 0.67384 0.0
H1082 H 0.26918 0.03697 0.62593 0.0
C1083 C 0.21224 0.06414 0.5961 0.0
C1084 C 0.89141 0.3118 0.55408 0.0
C1085 C 0.88289 0.33618 0.56681 0.0
H1086 H 0.92254 0.29033 0.53149 0.0
C1087 C 0.89958 0.35867 0.56445 0.0
H1088 H 0.87875 0.29427 0.55503 0.0
C1089 C 0.92478 0.35649 0.55059 0.0
C1090 C 0.93362 0.33176 0.53911 0.0
H1091 H 0.8933 0.37777 0.57372 0.0
H1092 H 0.93748 0.37397 0.54941 0.0
C1093 C 0.91654 0.30956 0.54069 0.0
C1094 C 0.77729 0.95503 0.63799 0.0
C1095 C 0.8014 0.94101 0.63388 0.0
H1096 H 0.74555 0.9769 0.61622 0.0
C1097 C 0.81153 0.93789 0.60364 0.0
H1098 H 0.76899 0.95805 0.66096 0.0
C1099 C 0.79844 0.94924 0.5782 0.0
C1100 C 0.7746 0.9635 0.58236 0.0
H1101 H 0.83005 0.92723 0.59983 0.0
H1102 H 0.8071 0.94702 0.55526 0.0
C1103 C 0.76383 0.96584 0.61238 0.0
C1104 C 0.96854 0.74502 0.64937 0.0
C1105 C 0.9567 0.72164 0.66115 0.0
H1106 H 0.98976 0.76326 0.61163 0.0
C1107 C 0.95697 0.69841 0.64288 0.0
H1108 H 0.96903 0.76309 0.66322 0.0
C1109 C 0.96893 0.69842 0.61358 0.0
C1110 C 0.9811 0.72164 0.60186 0.0
H1111 H 0.94836 0.68002 0.65155 0.0
H1112 H 0.96899 0.68001 0.60033 0.0
C1113 C 0.98049 0.74507 0.61992 0.0
C1114 C 0.26922 0.90103 0.58127 0.0
C1115 C 0.2936 0.88914 0.58951 0.0
H1116 H 0.24919 0.93583 0.56451 0.0
C1117 C 0.31702 0.9046 0.5883 0.0
H1118 H 0.2509 0.88953 0.58168 0.0
C1119 C 0.31611 0.93121 0.57832 0.0
C1120 C 0.29177 0.94283 0.56917 0.0
H1121 H 0.33613 0.89583 0.5942 0.0
H1122 H 0.33458 0.94238 0.57686 0.0
C1123 C 0.26829 0.92756 0.57135 0.0
C1124 C 0.06515 0.31766 0.62372 0.0
C1125 C 0.06704 0.2946 0.64215 0.0
H1126 H 0.0518 0.33499 0.58104 0.0
C1127 C 0.05673 0.27042 0.63052 0.0
H1128 H 0.07251 0.33664 0.6323 0.0
C1129 C 0.04484 0.2694 0.601 0.0
C1130 C 0.04263 0.29264 0.5828 0.0
H1131 H 0.05741 0.25243 0.64449 0.0
H1132 H 0.03678 0.25059 0.59282 0.0
C1133 C 0.05315 0.3167 0.59441 0.0
C1134 C 0.69047 0.10584 0.59225 0.0
C1135 C 0.71432 0.12044 0.59536 0.0
H1136 H 0.67189 0.06971 0.57641 0.0
C1137 C 0.7383 0.10884 0.58528 0.0
H1138 H 0.67163 0.1145 0.59934 0.0
C1139 C 0.73847 0.08339 0.57203 0.0
C1140 C 0.71461 0.06893 0.56833 0.0
H1141 H 0.75691 0.11976 0.58697 0.0
H1142 H 0.75731 0.07531 0.56406 0.0
C1143 C 0.69063 0.08026 0.57905 0.0
C1144 C 0.9191 0.28411 0.40118 0.0
C1145 C 0.92042 0.25933 0.38577 0.0
H1146 H 0.93655 0.31026 0.4349 0.0
C1147 C 0.94156 0.24186 0.39308 0.0
H1148 H 0.90311 0.29809 0.39654 0.0
C1149 C 0.96045 0.24866 0.41578 0.0
C1150 C 0.959 0.27339 0.43106 0.0
H1151 H 0.94315 0.22269 0.38157 0.0
H1152 H 0.97616 0.23459 0.42137 0.0
C1153 C 0.93836 0.29116 0.42323 0.0
C1154 C 0.66735 0.89894 0.46101 0.0
C1155 C 0.68026 0.89562 0.43218 0.0
H1156 H 0.66391 0.92232 0.50281 0.0
C1157 C 0.70012 0.91411 0.42363 0.0
H1158 H 0.65181 0.88519 0.46808 0.0
C1159 C 0.70738 0.93476 0.44366 0.0
C1160 C 0.69449 0.93808 0.47238 0.0
H1161 H 0.71021 0.91275 0.40144 0.0
H1162 H 0.72282 0.94853 0.43631 0.0
C1163 C 0.6742 0.92015 0.48081 0.0
C1164 C 0.07957 0.76581 0.40882 0.0
C1165 C 0.09819 0.74667 0.39864 0.0
H1166 H 0.04841 0.77551 0.44108 0.0
C1167 C 0.09866 0.72156 0.41338 0.0
H1168 H 0.07873 0.78531 0.39794 0.0
C1169 C 0.08086 0.71576 0.43745 0.0
C1170 C 0.06272 0.73513 0.44797 0.0
H1171 H 0.11284 0.70634 0.40657 0.0
H1172 H 0.08182 0.6963 0.44843 0.0
C1173 C 0.06225 0.76023 0.43347 0.0
C1174 C 0.33865 0.11547 0.4699 0.0
C1175 C 0.3239 0.12152 0.44289 0.0
H1176 H 0.34354 0.08934 0.50914 0.0
C1177 C 0.30188 0.10529 0.43524 0.0
H1178 H 0.35583 0.12744 0.47623 0.0
C1179 C 0.29456 0.084 0.45437 0.0
C1180 C 0.30946 0.07783 0.48112 0.0
H1181 H 0.29027 0.10884 0.41439 0.0
H1182 H 0.27752 0.07192 0.44773 0.0
C1183 C 0.33168 0.09368 0.48867 0.0
C1184 C 0.60139 0.84356 0.91884 0.0
C1185 C 0.61116 0.82102 0.90304 0.0
H1186 H 0.57037 0.86005 0.94703 0.0
C1187 C 0.59504 0.79806 0.90123 0.0
H1188 H 0.61329 0.86157 0.92056 0.0
C1189 C 0.57061 0.79701 0.91689 0.0
C1190 C 0.56157 0.81909 0.93412 0.0
H1191 H 0.60195 0.78049 0.88896 0.0
H1192 H 0.55923 0.77862 0.91635 0.0
C1193 C 0.57677 0.84269 0.93399 0.0
C1194 C 0.14962 0.61653 0.92187 0.0
C1195 C 0.17744 0.64115 0.92564 0.0
H1196 H 0.14423 0.56688 0.92928 0.0
C1197 C 0.20569 0.63662 0.95324 0.0
H1198 H 0.13197 0.62062 0.90816 0.0
C1199 C 0.21224 0.60255 0.96386 0.0
C1200 C 0.18926 0.57628 0.95332 0.0
H1201 H 0.22038 0.6521 0.95722 0.0
H1202 H 0.23006 0.59783 0.97699 0.0
C1203 C 0.15806 0.58301 0.93374 0.0
C1204 C 0.42146 0.20227 0.90631 0.0
C1205 C 0.40481 0.22489 0.90781 0.0
H1206 H 0.45346 0.18031 0.92738 0.0
C1207 C 0.40771 0.24259 0.93297 0.0
H1208 H 0.4201 0.18843 0.88701 0.0
C1209 C 0.4272 0.23824 0.95567 0.0
C1210 C 0.44398 0.21583 0.95399 0.0
H1211 H 0.39534 0.26028 0.93454 0.0
H1212 H 0.42936 0.25262 0.97433 0.0
C1213 C 0.44059 0.1976 0.92943 0.0
C1214 C 0.86173 0.44289 0.87497 0.0
C1215 C 0.83232 0.42358 0.86079 0.0
H1216 H 0.87323 0.46949 0.92283 0.0
C1217 C 0.79741 0.43167 0.87236 0.0
H1218 H 0.88158 0.43966 0.86586 0.0
C1219 C 0.79448 0.44905 0.90869 0.0
C1220 C 0.82362 0.4621 0.92818 0.0
H1221 H 0.7802 0.42229 0.86181 0.0
H1222 H 0.77491 0.45214 0.91862 0.0
C1223 C 0.85654 0.45996 0.91135 0.0
C1224 C 0.59045 0.1437 0.08261 0.0
C1225 C 0.61337 0.15973 0.08597 0.0
H1226 H 0.55059 0.14046 0.06481 0.0
C1227 C 0.61239 0.18633 0.07532 0.0
H1228 H 0.59011 0.12346 0.09144 0.0
C1229 C 0.58942 0.19626 0.06093 0.0
C1230 C 0.56706 0.17979 0.05647 0.0
H1231 H 0.6293 0.19959 0.07793 0.0
H1232 H 0.58939 0.21672 0.05271 0.0
C1233 C 0.56774 0.15345 0.06751 0.0
C1234 C 0.84255 0.60094 0.08897 0.0
C1235 C 0.81918 0.61122 0.10251 0.0
H1236 H 0.85955 0.57191 0.0581 0.0
C1237 C 0.7946 0.5991 0.09552 0.0
H1238 H 0.86171 0.61012 0.09366 0.0
C1239 C 0.79331 0.57747 0.07514 0.0
C1240 C 0.81658 0.56743 0.06113 0.0
H1241 H 0.77623 0.6068 0.10531 0.0
H1242 H 0.77395 0.56893 0.06996 0.0
C1243 C 0.84129 0.57912 0.06862 0.0
C1244 C 0.43202 0.81588 0.11085 0.0
C1245 C 0.42228 0.84185 0.11576 0.0
H1246 H 0.45537 0.78989 0.08233 0.0
C1247 C 0.42807 0.86173 0.09355 0.0
H1248 H 0.42735 0.80003 0.12712 0.0
C1249 C 0.44436 0.85599 0.06802 0.0
C1250 C 0.45452 0.83013 0.06363 0.0
H1251 H 0.42032 0.88178 0.09577 0.0
H1252 H 0.44882 0.87177 0.0516 0.0
C1253 C 0.44793 0.81006 0.08512 0.0
C1254 C 0.18772 0.40772 0.07289 0.0
C1255 C 0.21254 0.39802 0.08322 0.0
H1256 H 0.16687 0.43781 0.0469 0.0
C1257 C 0.23582 0.41194 0.07496 0.0
H1258 H 0.16948 0.39722 0.07864 0.0
C1259 C 0.23438 0.43491 0.0567 0.0
C1260 C 0.20961 0.44461 0.0462 0.0
H1261 H 0.25523 0.4048 0.08235 0.0
H1262 H 0.25279 0.44498 0.05067 0.0
C1263 C 0.18624 0.43091 0.0547 0.0
C1264 C 0.46085 0.25578 0.1482 0.0
C1265 C 0.45303 0.23124 0.16116 0.0
H1266 H 0.47559 0.27635 0.10815 0.0
C1267 C 0.45258 0.20841 0.14221 0.0
H1268 H 0.46167 0.27364 0.16241 0.0
C1269 C 0.4606 0.2099 0.11114 0.0
C1270 C 0.46944 0.23424 0.09848 0.0
H1271 H 0.44686 0.18921 0.15172 0.0
H1272 H 0.46084 0.19174 0.09744 0.0
C1273 C 0.46885 0.2573 0.11714 0.0
C1274 C 0.7803 0.41382 0.08096 0.0
C1275 C 0.75558 0.41255 0.09642 0.0
H1276 H 0.80507 0.43522 0.04896 0.0
C1277 C 0.73634 0.43228 0.09011 0.0
H1278 H 0.79543 0.39873 0.08469 0.0
C1279 C 0.74166 0.45285 0.06902 0.0
C1280 C 0.76652 0.45437 0.0541 0.0
H1281 H 0.71704 0.43162 0.1014 0.0
H1282 H 0.72641 0.46772 0.06465 0.0
C1283 C 0.78582 0.43472 0.06038 0.0
C1284 C 0.57923 0.78682 0.1058 0.0
C1285 C 0.58165 0.76083 0.11784 0.0
H1286 H 0.56278 0.81185 0.07031 0.0
C1287 C 0.56981 0.73954 0.10156 0.0
H1288 H 0.58777 0.80367 0.11811 0.0
C1289 C 0.55542 0.74418 0.07418 0.0
C1290 C 0.55231 0.77028 0.06266 0.0
H1291 H 0.57103 0.71936 0.11054 0.0
H1292 H 0.54598 0.72741 0.06267 0.0
C1293 C 0.56482 0.79148 0.07846 0.0
C1294 C 0.28342 0.57964 0.09328 0.0
C1295 C 0.26406 0.59896 0.10089 0.0
H1296 H 0.2936 0.54574 0.06506 0.0
C1297 C 0.23919 0.59801 0.08561 0.0
H1298 H 0.30275 0.57989 0.1046 0.0
C1299 C 0.23379 0.57814 0.06369 0.0
C1300 C 0.25329 0.55914 0.05583 0.0
H1301 H 0.22382 0.61262 0.09037 0.0
H1302 H 0.21449 0.57808 0.05227 0.0
C1303 C 0.27822 0.56014 0.07071 0.0
C1304 C 0.40158 0.74978 0.92235 0.0
C1305 C 0.38536 0.77224 0.91717 0.0
H1306 H 0.43887 0.73486 0.93936 0.0
C1307 C 0.39562 0.79774 0.92392 0.0
H1308 H 0.39405 0.72988 0.91777 0.0
C1309 C 0.42133 0.80064 0.93617 0.0
C1310 C 0.4372 0.77808 0.94241 0.0
H1311 H 0.38342 0.81538 0.92068 0.0
H1312 H 0.42829 0.82051 0.94197 0.0
C1313 C 0.42723 0.75266 0.93476 0.0
C1314 C 0.21202 0.44304 0.86994 0.0
C1315 C 0.23572 0.43714 0.85399 0.0
H1316 H 0.19387 0.46181 0.90914 0.0
C1317 C 0.26015 0.44586 0.86662 0.0
H1318 H 0.19289 0.43681 0.86066 0.0
C1319 C 0.26076 0.46048 0.89444 0.0
C1320 C 0.23695 0.46664 0.91016 0.0
H1321 H 0.2787 0.44176 0.85463 0.0
H1322 H 0.27983 0.46718 0.90342 0.0
C1323 C 0.21262 0.45748 0.8977 0.0
C1324 C 0.59866 0.2424 0.92472 0.0
C1325 C 0.60071 0.2685 0.91276 0.0
H1326 H 0.57721 0.21549 0.95414 0.0
C1327 C 0.58195 0.28776 0.92224 0.0
H1328 H 0.61279 0.22701 0.91832 0.0
C1329 C 0.56187 0.28121 0.94342 0.0
C1330 C 0.55976 0.25509 0.95497 0.0
H1331 H 0.58299 0.30798 0.91335 0.0
H1332 H 0.54786 0.2965 0.95054 0.0
C1333 C 0.5782 0.23572 0.94527 0.0
C1334 C 0.8013 0.58696 0.8842 0.0
C1335 C 0.77717 0.59181 0.86859 0.0
H1336 H 0.82067 0.56923 0.9233 0.0
C1337 C 0.75312 0.58367 0.88254 0.0
H1338 H 0.82013 0.59303 0.87406 0.0
C1339 C 0.75338 0.56979 0.91084 0.0
C1340 C 0.77769 0.56388 0.92571 0.0
H1341 H 0.73423 0.58722 0.87098 0.0
H1342 H 0.73464 0.56287 0.92044 0.0
C1343 C 0.80156 0.57328 0.91246 0.0
loop_
_geom_bond_atom_site_label_1
_geom_bond_atom_site_label_2
_geom_bond_distance
_geom_bond_site_symmetry_2
_ccdc_geom_bond_type
C0 C1 1.560 . S
C0 H61 0.959 . S
C0 H62 0.959 . S
C0 H63 0.960 . S
C1 C0 1.560 . S
C1 O56 1.426 . S
C1 H60 0.980 . S
C2 C3 1.407 . S
C2 C7 1.418 . S
C2 O56 1.334 . S
C3 C2 1.407 . S
C3 C4 1.360 . S
C3 H64 0.929 . S
C4 C3 1.360 . S
C4 C5 1.401 . S
C4 C8 1.527 . S
C5 C4 1.401 . S
C5 C6 1.405 . S
C5 C38 1.587 . S
C6 C5 1.405 . S
C6 C7 1.332 . S
C6 C9 1.496 . S
C7 C2 1.418 . S
C7 C6 1.332 . S
C7 H65 0.929 . S
C8 C4 1.527 . S
C8 H66 0.959 . S
C8 H67 0.961 . S
C8 H68 0.961 . S
C9 C6 1.496 . S
C9 H69 0.960 . S
C9 H70 0.960 . S
C9 H71 0.961 . S
C10 C11 1.517 . S
C10 H73 0.961 . S
C10 H74 0.960 . S
C10 H75 0.959 . S
C11 C10 1.517 . S
C11 O59 1.468 . S
C11 H72 0.980 . S
C12 C13 1.349 . S
C12 C17 1.367 . S
C12 O59 1.408 . S
C13 C12 1.349 . S
C13 C14 1.407 . S
C13 H76 0.930 . S
C14 C13 1.407 . S
C14 C15 1.449 . S
C14 C18 1.535 . S
C15 C14 1.449 . S
C15 C16 1.384 . S
C15 C40 1.553 . S
C16 C15 1.384 . S
C16 C17 1.364 . S
C16 C19 1.450 . S
C17 C12 1.367 . S
C17 C16 1.364 . S
C17 H77 0.931 . S
C18 C14 1.535 . S
C18 H78 0.959 . S
C18 H79 0.961 . S
C18 H80 0.959 . S
C19 C16 1.450 . S
C19 H81 0.960 . S
C19 H82 0.960 . S
C19 H83 0.960 . S
C20 C21 1.309 . S
C20 C25 1.304 . S
C20 O58 1.435 . S
C21 C20 1.309 . S
C21 C22 1.476 . S
C21 H85 0.930 . S
C22 C21 1.476 . S
C22 C23 1.400 . S
C22 C26 1.567 . S
C23 C22 1.400 . S
C23 C24 1.373 . S
C23 C45 1.432 . S
C24 C23 1.373 . S
C24 C25 1.339 . S
C24 C27 1.530 . S
C25 C20 1.304 . S
C25 C24 1.339 . S
C25 H86 0.930 . S
C26 C22 1.567 . S
C26 H87 0.961 . S
C26 H88 0.960 . S
C26 H89 0.958 . S
C27 C24 1.530 . S
C27 H90 0.961 . S
C27 H91 0.960 . S
C27 H92 0.960 . S
C28 C29 1.530 . S
C28 H94 0.961 . S
C28 H95 0.961 . S
C28 H96 0.959 . S
C29 C28 1.530 . S
C29 O57 1.412 . S
C29 H93 0.980 . S
C30 C31 1.288 . S
C30 C35 1.377 . S
C30 O57 1.393 . S
C31 C30 1.288 . S
C31 C32 1.369 . S
C31 H97 0.932 . S
C32 C31 1.369 . S
C32 C33 1.398 . S
C32 C36 1.527 . S
C33 C32 1.398 . S
C33 C34 1.380 . S
C33 C47 1.497 . S
C34 C33 1.380 . S
C34 C35 1.383 . S
C34 C37 1.603 . S
C35 C30 1.377 . S
C35 C34 1.383 . S
C35 H98 0.929 . S
C36 C32 1.527 . S
C36 H99 0.961 . S
C36 H100 0.959 . S
C36 H101 0.959 . S
C37 C34 1.603 . S
C37 H102 0.960 . S
C37 H103 0.962 . S
C37 H104 0.961 . S
C38 C5 1.587 . S
C38 C39 1.360 . S
C38 C51 1.412 . S
C39 C38 1.360 . S
C39 C40 1.365 . S
C39 H105 0.929 . S
C40 C15 1.553 . S
C40 C39 1.365 . S
C40 C41 1.404 . S
C41 C40 1.404 . S
C41 C42 1.395 . S
C41 C52 1.451 . S
C42 C41 1.395 . S
C42 C43 1.322 . S
C42 H106 0.930 . S
C43 C42 1.322 . S
C43 C44 1.459 . S
C43 H107 0.929 . S
C44 C43 1.459 . S
C44 C45 1.445 . S
C44 C53 1.395 . S
C45 C23 1.432 . S
C45 C44 1.445 . S
C45 C46 1.370 . S
C46 C45 1.370 . S
C46 C47 1.438 . S
C46 H108 0.930 . S
C47 C33 1.497 . S
C47 C46 1.438 . S
C47 C48 1.360 . S
C48 C47 1.360 . S
C48 C49 1.401 . S
C48 C53 1.446 . S
C49 C48 1.401 . S
C49 C50 1.347 . S
C49 H109 0.929 . S
C50 C49 1.347 . S
C50 C51 1.455 . S
C50 H110 0.930 . S
C51 C38 1.412 . S
C51 C50 1.455 . S
C51 C52 1.331 . S
C52 C41 1.451 . S
C52 C51 1.331 . S
C52 C53 1.497 . S
C53 C44 1.395 . S
C53 C48 1.446 . S
C53 C52 1.497 . S
C54 C55 1.582 . S
C54 H111 0.962 . S
C54 H112 0.959 . S
C54 H113 0.958 . S
C55 C54 1.582 . S
C55 O58 1.458 . S
C55 H84 0.980 . S
O56 C1 1.426 . S
O56 C2 1.334 . S
O57 C29 1.412 . S
O57 C30 1.393 . S
O58 C20 1.435 . S
O58 C55 1.458 . S
O59 C11 1.468 . S
O59 C12 1.408 . S
H60 C1 0.980 . S
H61 C0 0.959 . S
H62 C0 0.959 . S
H63 C0 0.960 . S
H64 C3 0.929 . S
H65 C7 0.929 . S
H66 C8 0.959 . S
H67 C8 0.961 . S
H68 C8 0.961 . S
H69 C9 0.960 . S
H70 C9 0.960 . S
H71 C9 0.961 . S
H72 C11 0.980 . S
H73 C10 0.961 . S
H74 C10 0.960 . S
H75 C10 0.959 . S
H76 C13 0.930 . S
H77 C17 0.931 . S
H78 C18 0.959 . S
H79 C18 0.961 . S
H80 C18 0.959 . S
H81 C19 0.960 . S
H82 C19 0.960 . S
H83 C19 0.960 . S
H84 C55 0.980 . S
H85 C21 0.930 . S
H86 C25 0.930 . S
H87 C26 0.961 . S
H88 C26 0.960 . S
H89 C26 0.958 . S
H90 C27 0.961 . S
H91 C27 0.960 . S
H92 C27 0.960 . S
H93 C29 0.980 . S
H94 C28 0.961 . S
H95 C28 0.961 . S
H96 C28 0.959 . S
H97 C31 0.932 . S
H98 C35 0.929 . S
H99 C36 0.961 . S
H100 C36 0.959 . S
H101 C36 0.959 . S
H102 C37 0.960 . S
H103 C37 0.962 . S
H104 C37 0.961 . S
H105 C39 0.929 . S
H106 C42 0.930 . S
H107 C43 0.929 . S
H108 C46 0.930 . S
H109 C49 0.929 . S
H110 C50 0.930 . S
H111 C54 0.962 . S
H112 C54 0.959 . S
H113 C54 0.958 . S
C114 C115 1.560 . S
C114 H175 0.959 . S
C114 H176 0.959 . S
C114 H177 0.960 . S
C115 C114 1.560 . S
C115 O170 1.426 . S
C115 H174 0.980 . S
C116 C117 1.407 . S
C116 C121 1.418 . S
C116 O170 1.334 . S
C117 C116 1.407 . S
C117 C118 1.360 . S
C117 H178 0.929 . S
C118 C117 1.360 . S
C118 C119 1.401 . S
C118 C122 1.527 . S
C119 C118 1.401 . S
C119 C120 1.405 . S
C119 C152 1.587 . S
C120 C119 1.405 . S
C120 C121 1.332 . S
C120 C123 1.496 . S
C121 C116 1.418 . S
C121 C120 1.332 . S
C121 H179 0.929 . S
C122 C118 1.527 . S
C122 H180 0.959 . S
C122 H181 0.961 . S
C122 H182 0.961 . S
C123 C120 1.496 . S
C123 H183 0.960 . S
C123 H184 0.960 . S
C123 H185 0.961 . S
C124 C125 1.517 . S
C124 H187 0.961 . S
C124 H188 0.960 . S
C124 H189 0.959 . S
C125 C124 1.517 . S
C125 O173 1.468 . S
C125 H186 0.980 . S
C126 C127 1.349 . S
C126 C131 1.367 . S
C126 O173 1.408 . S
C127 C126 1.349 . S
C127 C128 1.407 . S
C127 H190 0.930 . S
C128 C127 1.407 . S
C128 C129 1.449 . S
C128 C132 1.535 . S
C129 C128 1.449 . S
C129 C130 1.384 . S
C129 C154 1.553 . S
C130 C129 1.384 . S
C130 C131 1.364 . S
C130 C133 1.450 . S
C131 C126 1.367 . S
C131 C130 1.364 . S
C131 H191 0.931 . S
C132 C128 1.535 . S
C132 H192 0.959 . S
C132 H193 0.961 . S
C132 H194 0.959 . S
C133 C130 1.450 . S
C133 H195 0.960 . S
C133 H196 0.960 . S
C133 H197 0.960 . S
C134 C135 1.309 . S
C134 C139 1.304 . S
C134 O172 1.435 . S
C135 C134 1.309 . S
C135 C136 1.476 . S
C135 H199 0.930 . S
C136 C135 1.476 . S
C136 C137 1.400 . S
C136 C140 1.567 . S
C137 C136 1.400 . S
C137 C138 1.373 . S
C137 C159 1.432 . S
C138 C137 1.373 . S
C138 C139 1.339 . S
C138 C141 1.530 . S
C139 C134 1.304 . S
C139 C138 1.339 . S
C139 H200 0.930 . S
C140 C136 1.567 . S
C140 H201 0.961 . S
C140 H202 0.960 . S
C140 H203 0.958 . S
C141 C138 1.530 . S
C141 H204 0.961 . S
C141 H205 0.960 . S
C141 H206 0.960 . S
C142 C143 1.530 . S
C142 H208 0.961 . S
C142 H209 0.961 . S
C142 H210 0.959 . S
C143 C142 1.530 . S
C143 O171 1.412 . S
C143 H207 0.980 . S
C144 C145 1.288 . S
C144 C149 1.377 . S
C144 O171 1.393 . S
C145 C144 1.288 . S
C145 C146 1.369 . S
C145 H211 0.932 . S
C146 C145 1.369 . S
C146 C147 1.398 . S
C146 C150 1.527 . S
C147 C146 1.398 . S
C147 C148 1.380 . S
C147 C161 1.497 . S
C148 C147 1.380 . S
C148 C149 1.383 . S
C148 C151 1.603 . S
C149 C144 1.377 . S
C149 C148 1.383 . S
C149 H212 0.929 . S
C150 C146 1.527 . S
C150 H213 0.961 . S
C150 H214 0.959 . S
C150 H215 0.959 . S
C151 C148 1.603 . S
C151 H216 0.960 . S
C151 H217 0.962 . S
C151 H218 0.961 . S
C152 C119 1.587 . S
C152 C153 1.360 . S
C152 C165 1.412 . S
C153 C152 1.360 . S
C153 C154 1.365 . S
C153 H219 0.929 . S
C154 C129 1.553 . S
C154 C153 1.365 . S
C154 C155 1.404 . S
C155 C154 1.404 . S
C155 C156 1.395 . S
C155 C166 1.451 . S
C156 C155 1.395 . S
C156 C157 1.322 . S
C156 H220 0.930 . S
C157 C156 1.322 . S
C157 C158 1.459 . S
C157 H221 0.929 . S
C158 C157 1.459 . S
C158 C159 1.445 . S
C158 C167 1.395 . S
C159 C137 1.432 . S
C159 C158 1.445 . S
C159 C160 1.370 . S
C160 C159 1.370 . S
C160 C161 1.438 . S
C160 H222 0.930 . S
C161 C147 1.497 . S
C161 C160 1.438 . S
C161 C162 1.360 . S
C162 C161 1.360 . S
C162 C163 1.401 . S
C162 C167 1.446 . S
C163 C162 1.401 . S
C163 C164 1.347 . S
C163 H223 0.929 . S
C164 C163 1.347 . S
C164 C165 1.455 . S
C164 H224 0.930 . S
C165 C152 1.412 . S
C165 C164 1.455 . S
C165 C166 1.331 . S
C166 C155 1.451 . S
C166 C165 1.331 . S
C166 C167 1.497 . S
C167 C158 1.395 . S
C167 C162 1.446 . S
C167 C166 1.497 . S
C168 C169 1.582 . S
C168 H225 0.962 . S
C168 H226 0.959 . S
C168 H227 0.958 . S
C169 C168 1.582 . S
C169 O172 1.458 . S
C169 H198 0.980 . S
O170 C115 1.426 . S
O170 C116 1.334 . S
O171 C143 1.412 . S
O171 C144 1.393 . S
O172 C134 1.435 . S
O172 C169 1.458 . S
O173 C125 1.468 . S
O173 C126 1.408 . S
H174 C115 0.980 . S
H175 C114 0.959 . S
H176 C114 0.959 . S
H177 C114 0.960 . S
H178 C117 0.929 . S
H179 C121 0.929 . S
H180 C122 0.959 . S
H181 C122 0.961 . S
H182 C122 0.961 . S
H183 C123 0.960 . S
H184 C123 0.960 . S
H185 C123 0.961 . S
H186 C125 0.980 . S
H187 C124 0.961 . S
H188 C124 0.960 . S
H189 C124 0.959 . S
H190 C127 0.930 . S
H191 C131 0.931 . S
H192 C132 0.959 . S
H193 C132 0.961 . S
H194 C132 0.959 . S
H195 C133 0.960 . S
H196 C133 0.960 . S
H197 C133 0.960 . S
H198 C169 0.980 . S
H199 C135 0.930 . S
H200 C139 0.930 . S
H201 C140 0.961 . S
H202 C140 0.960 . S
H203 C140 0.958 . S
H204 C141 0.961 . S
H205 C141 0.960 . S
H206 C141 0.960 . S
H207 C143 0.980 . S
H208 C142 0.961 . S
H209 C142 0.961 . S
H210 C142 0.959 . S
H211 C145 0.932 . S
H212 C149 0.929 . S
H213 C150 0.961 . S
H214 C150 0.959 . S
H215 C150 0.959 . S
H216 C151 0.960 . S
H217 C151 0.962 . S
H218 C151 0.961 . S
H219 C153 0.929 . S
H220 C156 0.930 . S
H221 C157 0.929 . S
H222 C160 0.930 . S
H223 C163 0.929 . S
H224 C164 0.930 . S
H225 C168 0.962 . S
H226 C168 0.959 . S
H227 C168 0.958 . S
C228 C229 1.560 . S
C228 H289 0.959 . S
C228 H290 0.959 . S
C228 H291 0.960 . S
C229 C228 1.560 . S
C229 O284 1.426 . S
C229 H288 0.980 . S
C230 C231 1.407 . S
C230 C235 1.418 . S
C230 O284 1.334 . S
C231 C230 1.407 . S
C231 C232 1.360 . S
C231 H292 0.929 . S
C232 C231 1.360 . S
C232 C233 1.401 . S
C232 C236 1.527 . S
C233 C232 1.401 . S
C233 C234 1.405 . S
C233 C266 1.587 . S
C234 C233 1.405 . S
C234 C235 1.332 . S
C234 C237 1.496 . S
C235 C230 1.418 . S
C235 C234 1.332 . S
C235 H293 0.929 . S
C236 C232 1.527 . S
C236 H294 0.959 . S
C236 H295 0.961 . S
C236 H296 0.961 . S
C237 C234 1.496 . S
C237 H297 0.960 . S
C237 H298 0.960 . S
C237 H299 0.961 . S
C238 C239 1.517 . S
C238 H301 0.961 . S
C238 H302 0.960 . S
C238 H303 0.959 . S
C239 C238 1.517 . S
C239 O287 1.468 . S
C239 H300 0.980 . S
C240 C241 1.349 . S
C240 C245 1.367 . S
C240 O287 1.408 . S
C241 C240 1.349 . S
C241 C242 1.407 . S
C241 H304 0.930 . S
C242 C241 1.407 . S
C242 C243 1.449 . S
C242 C246 1.535 . S
C243 C242 1.449 . S
C243 C244 1.384 . S
C243 C268 1.553 . S
C244 C243 1.384 . S
C244 C245 1.364 . S
C244 C247 1.450 . S
C245 C240 1.367 . S
C245 C244 1.364 . S
C245 H305 0.931 . S
C246 C242 1.535 . S
C246 H306 0.959 . S
C246 H307 0.961 . S
C246 H308 0.959 . S
C247 C244 1.450 . S
C247 H309 0.960 . S
C247 H310 0.960 . S
C247 H311 0.960 . S
C248 C249 1.309 . S
C248 C253 1.304 . S
C248 O286 1.435 . S
C249 C248 1.309 . S
C249 C250 1.476 . S
C249 H313 0.930 . S
C250 C249 1.476 . S
C250 C251 1.400 . S
C250 C254 1.567 . S
C251 C250 1.400 . S
C251 C252 1.373 . S
C251 C273 1.432 . S
C252 C251 1.373 . S
C252 C253 1.339 . S
C252 C255 1.530 . S
C253 C248 1.304 . S
C253 C252 1.339 . S
C253 H314 0.930 . S
C254 C250 1.567 . S
C254 H315 0.961 . S
C254 H316 0.960 . S
C254 H317 0.958 . S
C255 C252 1.530 . S
C255 H318 0.961 . S
C255 H319 0.960 . S
C255 H320 0.960 . S
C256 C257 1.530 . S
C256 H322 0.961 . S
C256 H323 0.961 . S
C256 H324 0.959 . S
C257 C256 1.530 . S
C257 O285 1.412 . S
C257 H321 0.980 . S
C258 C259 1.288 . S
C258 C263 1.377 . S
C258 O285 1.393 . S
C259 C258 1.288 . S
C259 C260 1.369 . S
C259 H325 0.932 . S
C260 C259 1.369 . S
C260 C261 1.398 . S
C260 C264 1.527 . S
C261 C260 1.398 . S
C261 C262 1.380 . S
C261 C275 1.497 . S
C262 C261 1.380 . S
C262 C263 1.383 . S
C262 C265 1.603 . S
C263 C258 1.377 . S
C263 C262 1.383 . S
C263 H326 0.929 . S
C264 C260 1.527 . S
C264 H327 0.961 . S
C264 H328 0.959 . S
C264 H329 0.959 . S
C265 C262 1.603 . S
C265 H330 0.960 . S
C265 H331 0.962 . S
C265 H332 0.961 . S
C266 C233 1.587 . S
C266 C267 1.360 . S
C266 C279 1.412 . S
C267 C266 1.360 . S
C267 C268 1.365 . S
C267 H333 0.929 . S
C268 C243 1.553 . S
C268 C267 1.365 . S
C268 C269 1.404 . S
C269 C268 1.404 . S
C269 C270 1.395 . S
C269 C280 1.451 . S
C270 C269 1.395 . S
C270 C271 1.322 . S
C270 H334 0.930 . S
C271 C270 1.322 . S
C271 C272 1.459 . S
C271 H335 0.929 . S
C272 C271 1.459 . S
C272 C273 1.445 . S
C272 C281 1.395 . S
C273 C251 1.432 . S
C273 C272 1.445 . S
C273 C274 1.370 . S
C274 C273 1.370 . S
C274 C275 1.438 . S
C274 H336 0.930 . S
C275 C261 1.497 . S
C275 C274 1.438 . S
C275 C276 1.360 . S
C276 C275 1.360 . S
C276 C277 1.401 . S
C276 C281 1.446 . S
C277 C276 1.401 . S
C277 C278 1.347 . S
C277 H337 0.929 . S
C278 C277 1.347 . S
C278 C279 1.455 . S
C278 H338 0.930 . S
C279 C266 1.412 . S
C279 C278 1.455 . S
C279 C280 1.331 . S
C280 C269 1.451 . S
C280 C279 1.331 . S
C280 C281 1.497 . S
C281 C272 1.395 . S
C281 C276 1.446 . S
C281 C280 1.497 . S
C282 C283 1.582 . S
C282 H339 0.962 . S
C282 H340 0.959 . S
C282 H341 0.958 . S
C283 C282 1.582 . S
C283 O286 1.458 . S
C283 H312 0.980 . S
O284 C229 1.426 . S
O284 C230 1.334 . S
O285 C257 1.412 . S
O285 C258 1.393 . S
O286 C248 1.435 . S
O286 C283 1.458 . S
O287 C239 1.468 . S
O287 C240 1.408 . S
H288 C229 0.980 . S
H289 C228 0.959 . S
H290 C228 0.959 . S
H291 C228 0.960 . S
H292 C231 0.929 . S
H293 C235 0.929 . S
H294 C236 0.959 . S
H295 C236 0.961 . S
H296 C236 0.961 . S
H297 C237 0.960 . S
H298 C237 0.960 . S
H299 C237 0.961 . S
H300 C239 0.980 . S
H301 C238 0.961 . S
H302 C238 0.960 . S
H303 C238 0.959 . S
H304 C241 0.930 . S
H305 C245 0.931 . S
H306 C246 0.959 . S
H307 C246 0.961 . S
H308 C246 0.959 . S
H309 C247 0.960 . S
H310 C247 0.960 . S
H311 C247 0.960 . S
H312 C283 0.980 . S
H313 C249 0.930 . S
H314 C253 0.930 . S
H315 C254 0.961 . S
H316 C254 0.960 . S
H317 C254 0.958 . S
H318 C255 0.961 . S
H319 C255 0.960 . S
H320 C255 0.960 . S
H321 C257 0.980 . S
H322 C256 0.961 . S
H323 C256 0.961 . S
H324 C256 0.959 . S
H325 C259 0.932 . S
H326 C263 0.929 . S
H327 C264 0.961 . S
H328 C264 0.959 . S
H329 C264 0.959 . S
H330 C265 0.960 . S
H331 C265 0.962 . S
H332 C265 0.961 . S
H333 C267 0.929 . S
H334 C270 0.930 . S
H335 C271 0.929 . S
H336 C274 0.930 . S
H337 C277 0.929 . S
H338 C278 0.930 . S
H339 C282 0.962 . S
H340 C282 0.959 . S
H341 C282 0.958 . S
C342 C343 1.560 . S
C342 H403 0.959 . S
C342 H404 0.959 . S
C342 H405 0.960 . S
C343 C342 1.560 . S
C343 O398 1.426 . S
C343 H402 0.980 . S
C344 C345 1.407 . S
C344 C349 1.418 . S
C344 O398 1.334 . S
C345 C344 1.407 . S
C345 C346 1.360 . S
C345 H406 0.929 . S
C346 C345 1.360 . S
C346 C347 1.401 . S
C346 C350 1.527 . S
C347 C346 1.401 . S
C347 C348 1.405 . S
C347 C380 1.587 . S
C348 C347 1.405 . S
C348 C349 1.332 . S
C348 C351 1.496 . S
C349 C344 1.418 . S
C349 C348 1.332 . S
C349 H407 0.929 . S
C350 C346 1.527 . S
C350 H408 0.959 . S
C350 H409 0.961 . S
C350 H410 0.961 . S
C351 C348 1.496 . S
C351 H411 0.960 . S
C351 H412 0.960 . S
C351 H413 0.961 . S
C352 C353 1.517 . S
C352 H415 0.961 . S
C352 H416 0.960 . S
C352 H417 0.959 . S
C353 C352 1.517 . S
C353 O401 1.468 . S
C353 H414 0.980 . S
C354 C355 1.349 . S
C354 C359 1.367 . S
C354 O401 1.408 . S
C355 C354 1.349 . S
C355 C356 1.407 . S
C355 H418 0.930 . S
C356 C355 1.407 . S
C356 C357 1.449 . S
C356 C360 1.535 . S
C357 C356 1.449 . S
C357 C358 1.384 . S
C357 C382 1.553 . S
C358 C357 1.384 . S
C358 C359 1.364 . S
C358 C361 1.450 . S
C359 C354 1.367 . S
C359 C358 1.364 . S
C359 H419 0.931 . S
C360 C356 1.535 . S
C360 H420 0.959 . S
C360 H421 0.961 . S
C360 H422 0.959 . S
C361 C358 1.450 . S
C361 H423 0.960 . S
C361 H424 0.960 . S
C361 H425 0.960 . S
C362 C363 1.309 . S
C362 C367 1.304 . S
C362 O400 1.435 . S
C363 C362 1.309 . S
C363 C364 1.476 . S
C363 H427 0.930 . S
C364 C363 1.476 . S
C364 C365 1.400 . S
C364 C368 1.567 . S
C365 C364 1.400 . S
C365 C366 1.373 . S
C365 C387 1.432 . S
C366 C365 1.373 . S
C366 C367 1.339 . S
C366 C369 1.530 . S
C367 C362 1.304 . S
C367 C366 1.339 . S
C367 H428 0.930 . S
C368 C364 1.567 . S
C368 H429 0.961 . S
C368 H430 0.960 . S
C368 H431 0.958 . S
C369 C366 1.530 . S
C369 H432 0.961 . S
C369 H433 0.960 . S
C369 H434 0.960 . S
C370 C371 1.530 . S
C370 H436 0.961 . S
C370 H437 0.961 . S
C370 H438 0.959 . S
C371 C370 1.530 . S
C371 O399 1.412 . S
C371 H435 0.980 . S
C372 C373 1.288 . S
C372 C377 1.377 . S
C372 O399 1.393 . S
C373 C372 1.288 . S
C373 C374 1.369 . S
C373 H439 0.932 . S
C374 C373 1.369 . S
C374 C375 1.398 . S
C374 C378 1.527 . S
C375 C374 1.398 . S
C375 C376 1.380 . S
C375 C389 1.497 . S
C376 C375 1.380 . S
C376 C377 1.383 . S
C376 C379 1.603 . S
C377 C372 1.377 . S
C377 C376 1.383 . S
C377 H440 0.929 . S
C378 C374 1.527 . S
C378 H441 0.961 . S
C378 H442 0.959 . S
C378 H443 0.959 . S
C379 C376 1.603 . S
C379 H444 0.960 . S
C379 H445 0.962 . S
C379 H446 0.961 . S
C380 C347 1.587 . S
C380 C381 1.360 . S
C380 C393 1.412 . S
C381 C380 1.360 . S
C381 C382 1.365 . S
C381 H447 0.929 . S
C382 C357 1.553 . S
C382 C381 1.365 . S
C382 C383 1.404 . S
C383 C382 1.404 . S
C383 C384 1.395 . S
C383 C394 1.451 . S
C384 C383 1.395 . S
C384 C385 1.322 . S
C384 H448 0.930 . S
C385 C384 1.322 . S
C385 C386 1.459 . S
C385 H449 0.929 . S
C386 C385 1.459 . S
C386 C387 1.445 . S
C386 C395 1.395 . S
C387 C365 1.432 . S
C387 C386 1.445 . S
C387 C388 1.370 . S
C388 C387 1.370 . S
C388 C389 1.438 . S
C388 H450 0.930 . S
C389 C375 1.497 . S
C389 C388 1.438 . S
C389 C390 1.360 . S
C390 C389 1.360 . S
C390 C391 1.401 . S
C390 C395 1.446 . S
C391 C390 1.401 . S
C391 C392 1.347 . S
C391 H451 0.929 . S
C392 C391 1.347 . S
C392 C393 1.455 . S
C392 H452 0.930 . S
C393 C380 1.412 . S
C393 C392 1.455 . S
C393 C394 1.331 . S
C394 C383 1.451 . S
C394 C393 1.331 . S
C394 C395 1.497 . S
C395 C386 1.395 . S
C395 C390 1.446 . S
C395 C394 1.497 . S
C396 C397 1.582 . S
C396 H453 0.962 . S
C396 H454 0.959 . S
C396 H455 0.958 . S
C397 C396 1.582 . S
C397 O400 1.458 . S
C397 H426 0.980 . S
O398 C343 1.426 . S
O398 C344 1.334 . S
O399 C371 1.412 . S
O399 C372 1.393 . S
O400 C362 1.435 . S
O400 C397 1.458 . S
O401 C353 1.468 . S
O401 C354 1.408 . S
H402 C343 0.980 . S
H403 C342 0.959 . S
H404 C342 0.959 . S
H405 C342 0.960 . S
H406 C345 0.929 . S
H407 C349 0.929 . S
H408 C350 0.959 . S
H409 C350 0.961 . S
H410 C350 0.961 . S
H411 C351 0.960 . S
H412 C351 0.960 . S
H413 C351 0.961 . S
H414 C353 0.980 . S
H415 C352 0.961 . S
H416 C352 0.960 . S
H417 C352 0.959 . S
H418 C355 0.930 . S
H419 C359 0.931 . S
H420 C360 0.959 . S
H421 C360 0.961 . S
H422 C360 0.959 . S
H423 C361 0.960 . S
H424 C361 0.960 . S
H425 C361 0.960 . S
H426 C397 0.980 . S
H427 C363 0.930 . S
H428 C367 0.930 . S
H429 C368 0.961 . S
H430 C368 0.960 . S
H431 C368 0.958 . S
H432 C369 0.961 . S
H433 C369 0.960 . S
H434 C369 0.960 . S
H435 C371 0.980 . S
H436 C370 0.961 . S
H437 C370 0.961 . S
H438 C370 0.959 . S
H439 C373 0.932 . S
H440 C377 0.929 . S
H441 C378 0.961 . S
H442 C378 0.959 . S
H443 C378 0.959 . S
H444 C379 0.960 . S
H445 C379 0.962 . S
H446 C379 0.961 . S
H447 C381 0.929 . S
H448 C384 0.930 . S
H449 C385 0.929 . S
H450 C388 0.930 . S
H451 C391 0.929 . S
H452 C392 0.930 . S
H453 C396 0.962 . S
H454 C396 0.959 . S
H455 C396 0.958 . S
C456 C457 1.560 . S
C456 H517 0.959 . S
C456 H518 0.959 . S
C456 H519 0.960 . S
C457 C456 1.560 . S
C457 O512 1.426 . S
C457 H516 0.980 . S
C458 C459 1.407 . S
C458 C463 1.418 . S
C458 O512 1.334 . S
C459 C458 1.407 . S
C459 C460 1.360 . S
C459 H520 0.929 . S
C460 C459 1.360 . S
C460 C461 1.401 . S
C460 C464 1.527 . S
C461 C460 1.401 . S
C461 C462 1.405 . S
C461 C494 1.587 . S
C462 C461 1.405 . S
C462 C463 1.332 . S
C462 C465 1.496 . S
C463 C458 1.418 . S
C463 C462 1.332 . S
C463 H521 0.929 . S
C464 C460 1.527 . S
C464 H522 0.959 . S
C464 H523 0.961 . S
C464 H524 0.961 . S
C465 C462 1.496 . S
C465 H525 0.960 . S
C465 H526 0.960 . S
C465 H527 0.961 . S
C466 C467 1.517 . S
C466 H529 0.961 . S
C466 H530 0.960 . S
C466 H531 0.959 . S
C467 C466 1.517 . S
C467 O515 1.468 . S
C467 H528 0.980 . S
C468 C469 1.349 . S
C468 C473 1.367 . S
C468 O515 1.408 . S
C469 C468 1.349 . S
C469 C470 1.407 . S
C469 H532 0.930 . S
C470 C469 1.407 . S
C470 C471 1.449 . S
C470 C474 1.535 . S
C471 C470 1.449 . S
C471 C472 1.384 . S
C471 C496 1.553 . S
C472 C471 1.384 . S
C472 C473 1.364 . S
C472 C475 1.450 . S
C473 C468 1.367 . S
C473 C472 1.364 . S
C473 H533 0.931 . S
C474 C470 1.535 . S
C474 H534 0.959 . S
C474 H535 0.961 . S
C474 H536 0.959 . S
C475 C472 1.450 . S
C475 H537 0.960 . S
C475 H538 0.960 . S
C475 H539 0.960 . S
C476 C477 1.309 . S
C476 C481 1.304 . S
C476 O514 1.435 . S
C477 C476 1.309 . S
C477 C478 1.476 . S
C477 H541 0.930 . S
C478 C477 1.476 . S
C478 C479 1.400 . S
C478 C482 1.567 . S
C479 C478 1.400 . S
C479 C480 1.373 . S
C479 C501 1.432 . S
C480 C479 1.373 . S
C480 C481 1.339 . S
C480 C483 1.530 . S
C481 C476 1.304 . S
C481 C480 1.339 . S
C481 H542 0.930 . S
C482 C478 1.567 . S
C482 H543 0.961 . S
C482 H544 0.960 . S
C482 H545 0.958 . S
C483 C480 1.530 . S
C483 H546 0.961 . S
C483 H547 0.960 . S
C483 H548 0.960 . S
C484 C485 1.530 . S
C484 H550 0.961 . S
C484 H551 0.961 . S
C484 H552 0.959 . S
C485 C484 1.530 . S
C485 O513 1.412 . S
C485 H549 0.980 . S
C486 C487 1.288 . S
C486 C491 1.377 . S
C486 O513 1.393 . S
C487 C486 1.288 . S
C487 C488 1.369 . S
C487 H553 0.932 . S
C488 C487 1.369 . S
C488 C489 1.398 . S
C488 C492 1.527 . S
C489 C488 1.398 . S
C489 C490 1.380 . S
C489 C503 1.497 . S
C490 C489 1.380 . S
C490 C491 1.383 . S
C490 C493 1.603 . S
C491 C486 1.377 . S
C491 C490 1.383 . S
C491 H554 0.929 . S
C492 C488 1.527 . S
C492 H555 0.961 . S
C492 H556 0.959 . S
C492 H557 0.959 . S
C493 C490 1.603 . S
C493 H558 0.960 . S
C493 H559 0.962 . S
C493 H560 0.961 . S
C494 C461 1.587 . S
C494 C495 1.360 . S
C494 C507 1.412 . S
C495 C494 1.360 . S
C495 C496 1.365 . S
C495 H561 0.929 . S
C496 C471 1.553 . S
C496 C495 1.365 . S
C496 C497 1.404 . S
C497 C496 1.404 . S
C497 C498 1.395 . S
C497 C508 1.451 . S
C498 C497 1.395 . S
C498 C499 1.322 . S
C498 H562 0.930 . S
C499 C498 1.322 . S
C499 C500 1.459 . S
C499 H563 0.929 . S
C500 C499 1.459 . S
C500 C501 1.445 . S
C500 C509 1.395 . S
C501 C479 1.432 . S
C501 C500 1.445 . S
C501 C502 1.370 . S
C502 C501 1.370 . S
C502 C503 1.438 . S
C502 H564 0.930 . S
C503 C489 1.497 . S
C503 C502 1.438 . S
C503 C504 1.360 . S
C504 C503 1.360 . S
C504 C505 1.401 . S
C504 C509 1.446 . S
C505 C504 1.401 . S
C505 C506 1.347 . S
C505 H565 0.929 . S
C506 C505 1.347 . S
C506 C507 1.455 . S
C506 H566 0.930 . S
C507 C494 1.412 . S
C507 C506 1.455 . S
C507 C508 1.331 . S
C508 C497 1.451 . S
C508 C507 1.331 . S
C508 C509 1.497 . S
C509 C500 1.395 . S
C509 C504 1.446 . S
C509 C508 1.497 . S
C510 C511 1.582 . S
C510 H567 0.962 . S
C510 H568 0.959 . S
C510 H569 0.958 . S
C511 C510 1.582 . S
C511 O514 1.458 . S
C511 H540 0.980 . S
O512 C457 1.426 . S
O512 C458 1.334 . S
O513 C485 1.412 . S
O513 C486 1.393 . S
O514 C476 1.435 . S
O514 C511 1.458 . S
O515 C467 1.468 . S
O515 C468 1.408 . S
H516 C457 0.980 . S
H517 C456 0.959 . S
H518 C456 0.959 . S
H519 C456 0.960 . S
H520 C459 0.929 . S
H521 C463 0.929 . S
H522 C464 0.959 . S
H523 C464 0.961 . S
H524 C464 0.961 . S
H525 C465 0.960 . S
H526 C465 0.960 . S
H527 C465 0.961 . S
H528 C467 0.980 . S
H529 C466 0.961 . S
H530 C466 0.960 . S
H531 C466 0.959 . S
H532 C469 0.930 . S
H533 C473 0.931 . S
H534 C474 0.959 . S
H535 C474 0.961 . S
H536 C474 0.959 . S
H537 C475 0.960 . S
H538 C475 0.960 . S
H539 C475 0.960 . S
H540 C511 0.980 . S
H541 C477 0.930 . S
H542 C481 0.930 . S
H543 C482 0.961 . S
H544 C482 0.960 . S
H545 C482 0.958 . S
H546 C483 0.961 . S
H547 C483 0.960 . S
H548 C483 0.960 . S
H549 C485 0.980 . S
H550 C484 0.961 . S
H551 C484 0.961 . S
H552 C484 0.959 . S
H553 C487 0.932 . S
H554 C491 0.929 . S
H555 C492 0.961 . S
H556 C492 0.959 . S
H557 C492 0.959 . S
H558 C493 0.960 . S
H559 C493 0.962 . S
H560 C493 0.961 . S
H561 C495 0.929 . S
H562 C498 0.930 . S
H563 C499 0.929 . S
H564 C502 0.930 . S
H565 C505 0.929 . S
H566 C506 0.930 . S
H567 C510 0.962 . S
H568 C510 0.959 . S
H569 C510 0.958 . S
C570 C571 1.560 . S
C570 H631 0.959 . S
C570 H632 0.959 . S
C570 H633 0.960 . S
C571 C570 1.560 . S
C571 O626 1.426 . S
C571 H630 0.980 . S
C572 C573 1.407 . S
C572 C577 1.418 . S
C572 O626 1.334 . S
C573 C572 1.407 . S
C573 C574 1.360 . S
C573 H634 0.929 . S
C574 C573 1.360 . S
C574 C575 1.401 . S
C574 C578 1.527 . S
C575 C574 1.401 . S
C575 C576 1.405 . S
C575 C608 1.587 . S
C576 C575 1.405 . S
C576 C577 1.332 . S
C576 C579 1.496 . S
C577 C572 1.418 . S
C577 C576 1.332 . S
C577 H635 0.929 . S
C578 C574 1.527 . S
C578 H636 0.959 . S
C578 H637 0.961 . S
C578 H638 0.961 . S
C579 C576 1.496 . S
C579 H639 0.960 . S
C579 H640 0.960 . S
C579 H641 0.961 . S
C580 C581 1.517 . S
C580 H643 0.961 . S
C580 H644 0.960 . S
C580 H645 0.959 . S
C581 C580 1.517 . S
C581 O629 1.468 . S
C581 H642 0.980 . S
C582 C583 1.349 . S
C582 C587 1.367 . S
C582 O629 1.408 . S
C583 C582 1.349 . S
C583 C584 1.407 . S
C583 H646 0.930 . S
C584 C583 1.407 . S
C584 C585 1.449 . S
C584 C588 1.535 . S
C585 C584 1.449 . S
C585 C586 1.384 . S
C585 C610 1.553 . S
C586 C585 1.384 . S
C586 C587 1.364 . S
C586 C589 1.450 . S
C587 C582 1.367 . S
C587 C586 1.364 . S
C587 H647 0.931 . S
C588 C584 1.535 . S
C588 H648 0.959 . S
C588 H649 0.961 . S
C588 H650 0.959 . S
C589 C586 1.450 . S
C589 H651 0.960 . S
C589 H652 0.960 . S
C589 H653 0.960 . S
C590 C591 1.309 . S
C590 C595 1.304 . S
C590 O628 1.435 . S
C591 C590 1.309 . S
C591 C592 1.476 . S
C591 H655 0.930 . S
C592 C591 1.476 . S
C592 C593 1.400 . S
C592 C596 1.567 . S
C593 C592 1.400 . S
C593 C594 1.373 . S
C593 C615 1.432 . S
C594 C593 1.373 . S
C594 C595 1.339 . S
C594 C597 1.530 . S
C595 C590 1.304 . S
C595 C594 1.339 . S
C595 H656 0.930 . S
C596 C592 1.567 . S
C596 H657 0.961 . S
C596 H658 0.960 . S
C596 H659 0.958 . S
C597 C594 1.530 . S
C597 H660 0.961 . S
C597 H661 0.960 . S
C597 H662 0.960 . S
C598 C599 1.530 . S
C598 H664 0.961 . S
C598 H665 0.961 . S
C598 H666 0.959 . S
C599 C598 1.530 . S
C599 O627 1.412 . S
C599 H663 0.980 . S
C600 C601 1.288 . S
C600 C605 1.377 . S
C600 O627 1.393 . S
C601 C600 1.288 . S
C601 C602 1.369 . S
C601 H667 0.932 . S
C602 C601 1.369 . S
C602 C603 1.398 . S
C602 C606 1.527 . S
C603 C602 1.398 . S
C603 C604 1.380 . S
C603 C617 1.497 . S
C604 C603 1.380 . S
C604 C605 1.383 . S
C604 C607 1.603 . S
C605 C600 1.377 . S
C605 C604 1.383 . S
C605 H668 0.929 . S
C606 C602 1.527 . S
C606 H669 0.961 . S
C606 H670 0.959 . S
C606 H671 0.959 . S
C607 C604 1.603 . S
C607 H672 0.960 . S
C607 H673 0.962 . S
C607 H674 0.961 . S
C608 C575 1.587 . S
C608 C609 1.360 . S
C608 C621 1.412 . S
C609 C608 1.360 . S
C609 C610 1.365 . S
C609 H675 0.929 . S
C610 C585 1.553 . S
C610 C609 1.365 . S
C610 C611 1.404 . S
C611 C610 1.404 . S
C611 C612 1.395 . S
C611 C622 1.451 . S
C612 C611 1.395 . S
C612 C613 1.322 . S
C612 H676 0.930 . S
C613 C612 1.322 . S
C613 C614 1.459 . S
C613 H677 0.929 . S
C614 C613 1.459 . S
C614 C615 1.445 . S
C614 C623 1.395 . S
C615 C593 1.432 . S
C615 C614 1.445 . S
C615 C616 1.370 . S
C616 C615 1.370 . S
C616 C617 1.438 . S
C616 H678 0.930 . S
C617 C603 1.497 . S
C617 C616 1.438 . S
C617 C618 1.360 . S
C618 C617 1.360 . S
C618 C619 1.401 . S
C618 C623 1.446 . S
C619 C618 1.401 . S
C619 C620 1.347 . S
C619 H679 0.929 . S
C620 C619 1.347 . S
C620 C621 1.455 . S
C620 H680 0.930 . S
C621 C608 1.412 . S
C621 C620 1.455 . S
C621 C622 1.331 . S
C622 C611 1.451 . S
C622 C621 1.331 . S
C622 C623 1.497 . S
C623 C614 1.395 . S
C623 C618 1.446 . S
C623 C622 1.497 . S
C624 C625 1.582 . S
C624 H681 0.962 . S
C624 H682 0.959 . S
C624 H683 0.958 . S
C625 C624 1.582 . S
C625 O628 1.458 . S
C625 H654 0.980 . S
O626 C571 1.426 . S
O626 C572 1.334 . S
O627 C599 1.412 . S
O627 C600 1.393 . S
O628 C590 1.435 . S
O628 C625 1.458 . S
O629 C581 1.468 . S
O629 C582 1.408 . S
H630 C571 0.980 . S
H631 C570 0.959 . S
H632 C570 0.959 . S
H633 C570 0.960 . S
H634 C573 0.929 . S
H635 C577 0.929 . S
H636 C578 0.959 . S
H637 C578 0.961 . S
H638 C578 0.961 . S
H639 C579 0.960 . S
H640 C579 0.960 . S
H641 C579 0.961 . S
H642 C581 0.980 . S
H643 C580 0.961 . S
H644 C580 0.960 . S
H645 C580 0.959 . S
H646 C583 0.930 . S
H647 C587 0.931 . S
H648 C588 0.959 . S
H649 C588 0.961 . S
H650 C588 0.959 . S
H651 C589 0.960 . S
H652 C589 0.960 . S
H653 C589 0.960 . S
H654 C625 0.980 . S
H655 C591 0.930 . S
H656 C595 0.930 . S
H657 C596 0.961 . S
H658 C596 0.960 . S
H659 C596 0.958 . S
H660 C597 0.961 . S
H661 C597 0.960 . S
H662 C597 0.960 . S
H663 C599 0.980 . S
H664 C598 0.961 . S
H665 C598 0.961 . S
H666 C598 0.959 . S
H667 C601 0.932 . S
H668 C605 0.929 . S
H669 C606 0.961 . S
H670 C606 0.959 . S
H671 C606 0.959 . S
H672 C607 0.960 . S
H673 C607 0.962 . S
H674 C607 0.961 . S
H675 C609 0.929 . S
H676 C612 0.930 . S
H677 C613 0.929 . S
H678 C616 0.930 . S
H679 C619 0.929 . S
H680 C620 0.930 . S
H681 C624 0.962 . S
H682 C624 0.959 . S
H683 C624 0.958 . S
C684 C685 1.560 . S
C684 H745 0.959 . S
C684 H746 0.959 . S
C684 H747 0.960 . S
C685 C684 1.560 . S
C685 O740 1.426 . S
C685 H744 0.980 . S
C686 C687 1.407 . S
C686 C691 1.418 . S
C686 O740 1.334 . S
C687 C686 1.407 . S
C687 C688 1.360 . S
C687 H748 0.929 . S
C688 C687 1.360 . S
C688 C689 1.401 . S
C688 C692 1.527 . S
C689 C688 1.401 . S
C689 C690 1.405 . S
C689 C722 1.587 . S
C690 C689 1.405 . S
C690 C691 1.332 . S
C690 C693 1.496 . S
C691 C686 1.418 . S
C691 C690 1.332 . S
C691 H749 0.929 . S
C692 C688 1.527 . S
C692 H750 0.959 . S
C692 H751 0.961 . S
C692 H752 0.961 . S
C693 C690 1.496 . S
C693 H753 0.960 . S
C693 H754 0.960 . S
C693 H755 0.961 . S
C694 C695 1.517 . S
C694 H757 0.961 . S
C694 H758 0.960 . S
C694 H759 0.959 . S
C695 C694 1.517 . S
C695 O743 1.468 . S
C695 H756 0.980 . S
C696 C697 1.349 . S
C696 C701 1.367 . S
C696 O743 1.408 . S
C697 C696 1.349 . S
C697 C698 1.407 . S
C697 H760 0.930 . S
C698 C697 1.407 . S
C698 C699 1.449 . S
C698 C702 1.535 . S
C699 C698 1.449 . S
C699 C700 1.384 . S
C699 C724 1.553 . S
C700 C699 1.384 . S
C700 C701 1.364 . S
C700 C703 1.450 . S
C701 C696 1.367 . S
C701 C700 1.364 . S
C701 H761 0.931 . S
C702 C698 1.535 . S
C702 H762 0.959 . S
C702 H763 0.961 . S
C702 H764 0.959 . S
C703 C700 1.450 . S
C703 H765 0.960 . S
C703 H766 0.960 . S
C703 H767 0.960 . S
C704 C705 1.309 . S
C704 C709 1.304 . S
C704 O742 1.435 . S
C705 C704 1.309 . S
C705 C706 1.476 . S
C705 H769 0.930 . S
C706 C705 1.476 . S
C706 C707 1.400 . S
C706 C710 1.567 . S
C707 C706 1.400 . S
C707 C708 1.373 . S
C707 C729 1.432 . S
C708 C707 1.373 . S
C708 C709 1.339 . S
C708 C711 1.530 . S
C709 C704 1.304 . S
C709 C708 1.339 . S
C709 H770 0.930 . S
C710 C706 1.567 . S
C710 H771 0.961 . S
C710 H772 0.960 . S
C710 H773 0.958 . S
C711 C708 1.530 . S
C711 H774 0.961 . S
C711 H775 0.960 . S
C711 H776 0.960 . S
C712 C713 1.530 . S
C712 H778 0.961 . S
C712 H779 0.961 . S
C712 H780 0.959 . S
C713 C712 1.530 . S
C713 O741 1.412 . S
C713 H777 0.980 . S
C714 C715 1.288 . S
C714 C719 1.377 . S
C714 O741 1.393 . S
C715 C714 1.288 . S
C715 C716 1.369 . S
C715 H781 0.932 . S
C716 C715 1.369 . S
C716 C717 1.398 . S
C716 C720 1.527 . S
C717 C716 1.398 . S
C717 C718 1.380 . S
C717 C731 1.497 . S
C718 C717 1.380 . S
C718 C719 1.383 . S
C718 C721 1.603 . S
C719 C714 1.377 . S
C719 C718 1.383 . S
C719 H782 0.929 . S
C720 C716 1.527 . S
C720 H783 0.961 . S
C720 H784 0.959 . S
C720 H785 0.959 . S
C721 C718 1.603 . S
C721 H786 0.960 . S
C721 H787 0.962 . S
C721 H788 0.961 . S
C722 C689 1.587 . S
C722 C723 1.360 . S
C722 C735 1.412 . S
C723 C722 1.360 . S
C723 C724 1.365 . S
C723 H789 0.929 . S
C724 C699 1.553 . S
C724 C723 1.365 . S
C724 C725 1.404 . S
C725 C724 1.404 . S
C725 C726 1.395 . S
C725 C736 1.451 . S
C726 C725 1.395 . S
C726 C727 1.322 . S
C726 H790 0.930 . S
C727 C726 1.322 . S
C727 C728 1.459 . S
C727 H791 0.929 . S
C728 C727 1.459 . S
C728 C729 1.445 . S
C728 C737 1.395 . S
C729 C707 1.432 . S
C729 C728 1.445 . S
C729 C730 1.370 . S
C730 C729 1.370 . S
C730 C731 1.438 . S
C730 H792 0.930 . S
C731 C717 1.497 . S
C731 C730 1.438 . S
C731 C732 1.360 . S
C732 C731 1.360 . S
C732 C733 1.401 . S
C732 C737 1.446 . S
C733 C732 1.401 . S
C733 C734 1.347 . S
C733 H793 0.929 . S
C734 C733 1.347 . S
C734 C735 1.455 . S
C734 H794 0.930 . S
C735 C722 1.412 . S
C735 C734 1.455 . S
C735 C736 1.331 . S
C736 C725 1.451 . S
C736 C735 1.331 . S
C736 C737 1.497 . S
C737 C728 1.395 . S
C737 C732 1.446 . S
C737 C736 1.497 . S
C738 C739 1.582 . S
C738 H795 0.962 . S
C738 H796 0.959 . S
C738 H797 0.958 . S
C739 C738 1.582 . S
C739 O742 1.458 . S
C739 H768 0.980 . S
O740 C685 1.426 . S
O740 C686 1.334 . S
O741 C713 1.412 . S
O741 C714 1.393 . S
O742 C704 1.435 . S
O742 C739 1.458 . S
O743 C695 1.468 . S
O743 C696 1.408 . S
H744 C685 0.980 . S
H745 C684 0.959 . S
H746 C684 0.959 . S
H747 C684 0.960 . S
H748 C687 0.929 . S
H749 C691 0.929 . S
H750 C692 0.959 . S
H751 C692 0.961 . S
H752 C692 0.961 . S
H753 C693 0.960 . S
H754 C693 0.960 . S
H755 C693 0.961 . S
H756 C695 0.980 . S
H757 C694 0.961 . S
H758 C694 0.960 . S
H759 C694 0.959 . S
H760 C697 0.930 . S
H761 C701 0.931 . S
H762 C702 0.959 . S
H763 C702 0.961 . S
H764 C702 0.959 . S
H765 C703 0.960 . S
H766 C703 0.960 . S
H767 C703 0.960 . S
H768 C739 0.980 . S
H769 C705 0.930 . S
H770 C709 0.930 . S
H771 C710 0.961 . S
H772 C710 0.960 . S
H773 C710 0.958 . S
H774 C711 0.961 . S
H775 C711 0.960 . S
H776 C711 0.960 . S
H777 C713 0.980 . S
H778 C712 0.961 . S
H779 C712 0.961 . S
H780 C712 0.959 . S
H781 C715 0.932 . S
H782 C719 0.929 . S
H783 C720 0.961 . S
H784 C720 0.959 . S
H785 C720 0.959 . S
H786 C721 0.960 . S
H787 C721 0.962 . S
H788 C721 0.961 . S
H789 C723 0.929 . S
H790 C726 0.930 . S
H791 C727 0.929 . S
H792 C730 0.930 . S
H793 C733 0.929 . S
H794 C734 0.930 . S
H795 C738 0.962 . S
H796 C738 0.959 . S
H797 C738 0.958 . S
C798 C799 1.560 . S
C798 H859 0.959 . S
C798 H860 0.959 . S
C798 H861 0.960 . S
C799 C798 1.560 . S
C799 O854 1.426 . S
C799 H858 0.980 . S
C800 C801 1.407 . S
C800 C805 1.418 . S
C800 O854 1.334 . S
C801 C800 1.407 . S
C801 C802 1.360 . S
C801 H862 0.929 . S
C802 C801 1.360 . S
C802 C803 1.401 . S
C802 C806 1.527 . S
C803 C802 1.401 . S
C803 C804 1.405 . S
C803 C836 1.587 . S
C804 C803 1.405 . S
C804 C805 1.332 . S
C804 C807 1.496 . S
C805 C800 1.418 . S
C805 C804 1.332 . S
C805 H863 0.929 . S
C806 C802 1.527 . S
C806 H864 0.959 . S
C806 H865 0.961 . S
C806 H866 0.961 . S
C807 C804 1.496 . S
C807 H867 0.960 . S
C807 H868 0.960 . S
C807 H869 0.961 . S
C808 C809 1.517 . S
C808 H871 0.961 . S
C808 H872 0.960 . S
C808 H873 0.959 . S
C809 C808 1.517 . S
C809 O857 1.468 . S
C809 H870 0.980 . S
C810 C811 1.349 . S
C810 C815 1.367 . S
C810 O857 1.408 . S
C811 C810 1.349 . S
C811 C812 1.407 . S
C811 H874 0.930 . S
C812 C811 1.407 . S
C812 C813 1.449 . S
C812 C816 1.535 . S
C813 C812 1.449 . S
C813 C814 1.384 . S
C813 C838 1.553 . S
C814 C813 1.384 . S
C814 C815 1.364 . S
C814 C817 1.450 . S
C815 C810 1.367 . S
C815 C814 1.364 . S
C815 H875 0.931 . S
C816 C812 1.535 . S
C816 H876 0.959 . S
C816 H877 0.961 . S
C816 H878 0.959 . S
C817 C814 1.450 . S
C817 H879 0.960 . S
C817 H880 0.960 . S
C817 H881 0.960 . S
C818 C819 1.309 . S
C818 C823 1.304 . S
C818 O856 1.435 . S
C819 C818 1.309 . S
C819 C820 1.476 . S
C819 H883 0.930 . S
C820 C819 1.476 . S
C820 C821 1.400 . S
C820 C824 1.567 . S
C821 C820 1.400 . S
C821 C822 1.373 . S
C821 C843 1.432 . S
C822 C821 1.373 . S
C822 C823 1.339 . S
C822 C825 1.530 . S
C823 C818 1.304 . S
C823 C822 1.339 . S
C823 H884 0.930 . S
C824 C820 1.567 . S
C824 H885 0.961 . S
C824 H886 0.960 . S
C824 H887 0.958 . S
C825 C822 1.530 . S
C825 H888 0.961 . S
C825 H889 0.960 . S
C825 H890 0.960 . S
C826 C827 1.530 . S
C826 H892 0.961 . S
C826 H893 0.961 . S
C826 H894 0.959 . S
C827 C826 1.530 . S
C827 O855 1.412 . S
C827 H891 0.980 . S
C828 C829 1.288 . S
C828 C833 1.377 . S
C828 O855 1.393 . S
C829 C828 1.288 . S
C829 C830 1.369 . S
C829 H895 0.932 . S
C830 C829 1.369 . S
C830 C831 1.398 . S
C830 C834 1.527 . S
C831 C830 1.398 . S
C831 C832 1.380 . S
C831 C845 1.497 . S
C832 C831 1.380 . S
C832 C833 1.383 . S
C832 C835 1.603 . S
C833 C828 1.377 . S
C833 C832 1.383 . S
C833 H896 0.929 . S
C834 C830 1.527 . S
C834 H897 0.961 . S
C834 H898 0.959 . S
C834 H899 0.959 . S
C835 C832 1.603 . S
C835 H900 0.960 . S
C835 H901 0.962 . S
C835 H902 0.961 . S
C836 C803 1.587 . S
C836 C837 1.360 . S
C836 C849 1.412 . S
C837 C836 1.360 . S
C837 C838 1.365 . S
C837 H903 0.929 . S
C838 C813 1.553 . S
C838 C837 1.365 . S
C838 C839 1.404 . S
C839 C838 1.404 . S
C839 C840 1.395 . S
C839 C850 1.451 . S
C840 C839 1.395 . S
C840 C841 1.322 . S
C840 H904 0.930 . S
C841 C840 1.322 . S
C841 C842 1.459 . S
C841 H905 0.929 . S
C842 C841 1.459 . S
C842 C843 1.445 . S
C842 C851 1.395 . S
C843 C821 1.432 . S
C843 C842 1.445 . S
C843 C844 1.370 . S
C844 C843 1.370 . S
C844 C845 1.438 . S
C844 H906 0.930 . S
C845 C831 1.497 . S
C845 C844 1.438 . S
C845 C846 1.360 . S
C846 C845 1.360 . S
C846 C847 1.401 . S
C846 C851 1.446 . S
C847 C846 1.401 . S
C847 C848 1.347 . S
C847 H907 0.929 . S
C848 C847 1.347 . S
C848 C849 1.455 . S
C848 H908 0.930 . S
C849 C836 1.412 . S
C849 C848 1.455 . S
C849 C850 1.331 . S
C850 C839 1.451 . S
C850 C849 1.331 . S
C850 C851 1.497 . S
C851 C842 1.395 . S
C851 C846 1.446 . S
C851 C850 1.497 . S
C852 C853 1.582 . S
C852 H909 0.962 . S
C852 H910 0.959 . S
C852 H911 0.958 . S
C853 C852 1.582 . S
C853 O856 1.458 . S
C853 H882 0.980 . S
O854 C799 1.426 . S
O854 C800 1.334 . S
O855 C827 1.412 . S
O855 C828 1.393 . S
O856 C818 1.435 . S
O856 C853 1.458 . S
O857 C809 1.468 . S
O857 C810 1.408 . S
H858 C799 0.980 . S
H859 C798 0.959 . S
H860 C798 0.959 . S
H861 C798 0.960 . S
H862 C801 0.929 . S
H863 C805 0.929 . S
H864 C806 0.959 . S
H865 C806 0.961 . S
H866 C806 0.961 . S
H867 C807 0.960 . S
H868 C807 0.960 . S
H869 C807 0.961 . S
H870 C809 0.980 . S
H871 C808 0.961 . S
H872 C808 0.960 . S
H873 C808 0.959 . S
H874 C811 0.930 . S
H875 C815 0.931 . S
H876 C816 0.959 . S
H877 C816 0.961 . S
H878 C816 0.959 . S
H879 C817 0.960 . S
H880 C817 0.960 . S
H881 C817 0.960 . S
H882 C853 0.980 . S
H883 C819 0.930 . S
H884 C823 0.930 . S
H885 C824 0.961 . S
H886 C824 0.960 . S
H887 C824 0.958 . S
H888 C825 0.961 . S
H889 C825 0.960 . S
H890 C825 0.960 . S
H891 C827 0.980 . S
H892 C826 0.961 . S
H893 C826 0.961 . S
H894 C826 0.959 . S
H895 C829 0.932 . S
H896 C833 0.929 . S
H897 C834 0.961 . S
H898 C834 0.959 . S
H899 C834 0.959 . S
H900 C835 0.960 . S
H901 C835 0.962 . S
H902 C835 0.961 . S
H903 C837 0.929 . S
H904 C840 0.930 . S
H905 C841 0.929 . S
H906 C844 0.930 . S
H907 C847 0.929 . S
H908 C848 0.930 . S
H909 C852 0.962 . S
H910 C852 0.959 . S
H911 C852 0.958 . S
C912 O914 1.247 . S
C912 O916 1.258 . S
C913 O920 1.247 . S
C913 O921 1.258 . S
O914 C912 1.247 . S
O914 Zn915 2.028 1_655 S
Zn915 O914 2.028 1_455 S
Zn915 O919 2.035 . S
Zn915 O921 2.035 . S
Zn915 O922 2.028 1_455 S
O916 C912 1.258 . S
O916 Zn917 2.035 1_655 S
Zn917 O916 2.035 1_455 S
Zn917 O918 2.028 . S
Zn917 O920 2.028 . S
Zn917 O923 2.035 1_455 S
O918 Zn917 2.028 . S
O918 C924 1.247 . S
O919 Zn915 2.035 . S
O919 C924 1.258 . S
O920 C913 1.247 . S
O920 Zn917 2.028 . S
O921 C913 1.258 . S
O921 Zn915 2.035 . S
O922 Zn915 2.028 1_655 S
O922 C925 1.247 . S
O923 Zn917 2.035 1_655 S
O923 C925 1.258 . S
C924 O918 1.247 . S
C924 O919 1.258 . S
C925 O922 1.247 . S
C925 O923 1.258 . S
C926 O928 1.247 . S
C926 O930 1.258 . S
C927 O934 1.247 . S
C927 O935 1.258 . S
O928 C926 1.247 . S
O928 Zn929 2.028 . S
Zn929 O928 2.028 . S
Zn929 O933 2.035 1_545 S
Zn929 O935 2.035 1_545 S
Zn929 O936 2.028 . S
O930 C926 1.258 . S
O930 Zn931 2.035 . S
Zn931 O930 2.035 . S
Zn931 O932 2.028 1_545 S
Zn931 O934 2.028 1_545 S
Zn931 O937 2.035 . S
O932 Zn931 2.028 1_565 S
O932 C938 1.247 . S
O933 Zn929 2.035 1_565 S
O933 C938 1.258 . S
O934 C927 1.247 . S
O934 Zn931 2.028 1_565 S
O935 C927 1.258 . S
O935 Zn929 2.035 1_565 S
O936 Zn929 2.028 . S
O936 C939 1.247 . S
O937 Zn931 2.035 . S
O937 C939 1.258 . S
C938 O932 1.247 . S
C938 O933 1.258 . S
C939 O936 1.247 . S
C939 O937 1.258 . S
C940 O942 1.247 . S
C940 O944 1.258 . S
C941 O948 1.247 . S
C941 O949 1.258 . S
O942 C940 1.247 . S
O942 Zn943 2.028 1_655 S
Zn943 O942 2.028 1_455 S
Zn943 O947 2.035 . S
Zn943 O949 2.035 . S
Zn943 O950 2.028 1_455 S
O944 C940 1.258 . S
O944 Zn945 2.035 1_655 S
Zn945 O944 2.035 1_455 S
Zn945 O946 2.028 . S
Zn945 O948 2.028 . S
Zn945 O951 2.035 1_455 S
O946 Zn945 2.028 . S
O946 C952 1.247 . S
O947 Zn943 2.035 . S
O947 C952 1.258 . S
O948 C941 1.247 . S
O948 Zn945 2.028 . S
O949 C941 1.258 . S
O949 Zn943 2.035 . S
O950 Zn943 2.028 1_655 S
O950 C953 1.247 . S
O951 Zn945 2.035 1_655 S
O951 C953 1.258 . S
C952 O946 1.247 . S
C952 O947 1.258 . S
C953 O950 1.247 . S
C953 O951 1.258 . S
C954 O956 1.247 . S
C954 O958 1.258 . S
C955 O962 1.247 . S
C955 O963 1.258 . S
O956 C954 1.247 . S
O956 Zn957 2.028 . S
Zn957 O956 2.028 . S
Zn957 O961 2.035 1_545 S
Zn957 O963 2.035 1_545 S
Zn957 O964 2.028 . S
O958 C954 1.258 . S
O958 Zn959 2.035 . S
Zn959 O958 2.035 . S
Zn959 O960 2.028 1_545 S
Zn959 O962 2.028 1_545 S
Zn959 O965 2.035 . S
O960 Zn959 2.028 1_565 S
O960 C966 1.247 . S
O961 Zn957 2.035 1_565 S
O961 C966 1.258 . S
O962 C955 1.247 . S
O962 Zn959 2.028 1_565 S
O963 C955 1.258 . S
O963 Zn957 2.035 1_565 S
O964 Zn957 2.028 . S
O964 C967 1.247 . S
O965 Zn959 2.035 . S
O965 C967 1.258 . S
C966 O960 1.247 . S
C966 O961 1.258 . S
C967 O964 1.247 . S
C967 O965 1.258 . S
C968 O970 1.247 . S
C968 O972 1.258 . S
C969 O976 1.247 . S
C969 O977 1.258 . S
O970 C968 1.247 . S
O970 Zn971 2.030 . S
Zn971 O970 2.030 . S
Zn971 O975 2.037 . S
Zn971 O977 2.033 1_554 S
Zn971 O978 2.026 1_554 S
O972 C968 1.258 . S
O972 Zn973 2.037 . S
Zn973 O972 2.037 . S
Zn973 O974 2.030 . S
Zn973 O976 2.026 1_554 S
Zn973 O979 2.033 1_554 S
O974 Zn973 2.030 . S
O974 C980 1.247 . S
O975 Zn971 2.037 . S
O975 C980 1.258 . S
O976 C969 1.247 . S
O976 Zn973 2.026 1_556 S
O977 C969 1.258 . S
O977 Zn971 2.033 1_556 S
O978 Zn971 2.026 1_556 S
O978 C981 1.247 . S
O979 Zn973 2.033 1_556 S
O979 C981 1.258 . S
C980 O974 1.247 . S
C980 O975 1.258 . S
C981 O978 1.247 . S
C981 O979 1.258 . S
C982 O984 1.247 . S
C982 O986 1.258 . S
C983 O990 1.247 . S
C983 O991 1.258 . S
O984 C982 1.247 . S
O984 Zn985 2.028 . S
Zn985 O984 2.028 . S
Zn985 O989 2.035 . S
Zn985 O991 2.035 1_554 S
Zn985 O992 2.028 1_554 S
O986 C982 1.258 . S
O986 Zn987 2.035 . S
Zn987 O986 2.035 . S
Zn987 O988 2.028 . S
Zn987 O990 2.028 1_554 S
Zn987 O993 2.035 1_554 S
O988 Zn987 2.028 . S
O988 C994 1.247 . S
O989 Zn985 2.035 . S
O989 C994 1.258 . S
O990 C983 1.247 . S
O990 Zn987 2.028 1_556 S
O991 C983 1.258 . S
O991 Zn985 2.035 1_556 S
O992 Zn985 2.028 1_556 S
O992 C995 1.247 . S
O993 Zn987 2.035 1_556 S
O993 C995 1.258 . S
C994 O988 1.247 . S
C994 O989 1.258 . S
C995 O992 1.247 . S
C995 O993 1.258 . S
C996 O998 1.247 . S
C996 O1000 1.258 . S
C997 O1004 1.247 . S
C997 O1005 1.258 . S
O998 C996 1.247 . S
O998 Zn999 2.026 1_556 S
Zn999 O998 2.026 1_554 S
Zn999 O1003 2.033 1_554 S
Zn999 O1005 2.037 . S
Zn999 O1006 2.030 . S
O1000 C996 1.258 . S
O1000 Zn1001 2.032 1_556 S
Zn1001 O1000 2.032 1_554 S
Zn1001 O1002 2.025 1_554 S
Zn1001 O1004 2.031 . S
Zn1001 O1007 2.038 . S
O1002 Zn1001 2.025 1_556 S
O1002 C1008 1.247 . S
O1003 Zn999 2.033 1_556 S
O1003 C1008 1.258 . S
O1004 C997 1.247 . S
O1004 Zn1001 2.031 . S
O1005 C997 1.258 . S
O1005 Zn999 2.037 . S
O1006 Zn999 2.030 . S
O1006 C1009 1.247 . S
O1007 Zn1001 2.038 . S
O1007 C1009 1.258 . S
C1008 O1002 1.247 . S
C1008 O1003 1.258 . S
C1009 O1006 1.247 . S
C1009 O1007 1.258 . S
C1010 O1012 1.247 . S
C1010 O1014 1.258 . S
C1011 O1018 1.247 . S
C1011 O1019 1.258 . S
O1012 C1010 1.247 . S
O1012 Zn1013 2.028 . S
Zn1013 O1012 2.028 . S
Zn1013 O1017 2.035 . S
Zn1013 O1019 2.035 1_554 S
Zn1013 O1020 2.028 1_554 S
O1014 C1010 1.258 . S
O1014 Zn1015 2.035 . S
Zn1015 O1014 2.035 . S
Zn1015 O1016 2.028 . S
Zn1015 O1018 2.028 1_554 S
Zn1015 O1021 2.035 1_554 S
O1016 Zn1015 2.028 . S
O1016 C1022 1.247 . S
O1017 Zn1013 2.035 . S
O1017 C1022 1.258 . S
O1018 C1011 1.247 . S
O1018 Zn1015 2.028 1_556 S
O1019 C1011 1.258 . S
O1019 Zn1013 2.035 1_556 S
O1020 Zn1013 2.028 1_556 S
O1020 C1023 1.247 . S
O1021 Zn1015 2.035 1_556 S
O1021 C1023 1.258 . S
C1022 O1016 1.247 . S
C1022 O1017 1.258 . S
C1023 O1020 1.247 . S
C1023 O1021 1.258 . S
C1024 C1025 1.387 . S
C1024 H1028 0.950 . S
C1024 C1033 1.390 . S
C1025 C1024 1.387 . S
C1025 C1027 1.387 . S
H1026 C1033 0.950 . S
C1027 C1025 1.387 . S
C1027 C1029 1.390 . S
C1027 H1031 0.950 . S
H1028 C1024 0.950 . S
C1029 C1027 1.390 . S
C1029 C1030 1.387 . S
C1029 H1032 0.950 . S
C1030 C1029 1.387 . S
C1030 C1033 1.387 . S
H1031 C1027 0.950 . S
H1032 C1029 0.950 . S
C1033 C1024 1.390 . S
C1033 H1026 0.950 . S
C1033 C1030 1.387 . S
C1034 C1035 1.387 . S
C1034 H1038 0.950 . S
C1034 C1043 1.390 . S
C1035 C1034 1.387 . S
C1035 C1037 1.387 . S
H1036 C1043 0.950 . S
C1037 C1035 1.387 . S
C1037 C1039 1.390 . S
C1037 H1041 0.950 . S
H1038 C1034 0.950 . S
C1039 C1037 1.390 . S
C1039 C1040 1.387 . S
C1039 H1042 0.950 . S
C1040 C1039 1.387 . S
C1040 C1043 1.387 . S
H1041 C1037 0.950 . S
H1042 C1039 0.950 . S
C1043 C1034 1.390 . S
C1043 H1036 0.950 . S
C1043 C1040 1.387 . S
C1044 C1045 1.387 . S
C1044 H1048 0.950 . S
C1044 C1053 1.390 . S
C1045 C1044 1.387 . S
C1045 C1047 1.387 . S
H1046 C1053 0.950 . S
C1047 C1045 1.387 . S
C1047 C1049 1.390 . S
C1047 H1051 0.950 . S
H1048 C1044 0.950 . S
C1049 C1047 1.390 . S
C1049 C1050 1.387 . S
C1049 H1052 0.950 . S
C1050 C1049 1.387 . S
C1050 C1053 1.387 . S
H1051 C1047 0.950 . S
H1052 C1049 0.950 . S
C1053 C1044 1.390 . S
C1053 H1046 0.950 . S
C1053 C1050 1.387 . S
C1054 C1055 1.387 . S
C1054 H1058 0.950 . S
C1054 C1063 1.390 . S
C1055 C1054 1.387 . S
C1055 C1057 1.387 . S
H1056 C1063 0.950 . S
C1057 C1055 1.387 . S
C1057 C1059 1.390 . S
C1057 H1061 0.950 . S
H1058 C1054 0.950 . S
C1059 C1057 1.390 . S
C1059 C1060 1.387 . S
C1059 H1062 0.950 . S
C1060 C1059 1.387 . S
C1060 C1063 1.387 . S
H1061 C1057 0.950 . S
H1062 C1059 0.950 . S
C1063 C1054 1.390 . S
C1063 H1056 0.950 . S
C1063 C1060 1.387 . S
C1064 C1065 1.387 . S
C1064 H1068 0.950 . S
C1064 C1073 1.390 . S
C1065 C1064 1.387 . S
C1065 C1067 1.387 . S
H1066 C1073 0.950 . S
C1067 C1065 1.387 . S
C1067 C1069 1.390 . S
C1067 H1071 0.950 . S
H1068 C1064 0.950 . S
C1069 C1067 1.390 . S
C1069 C1070 1.387 . S
C1069 H1072 0.950 . S
C1070 C1069 1.387 . S
C1070 C1073 1.387 . S
H1071 C1067 0.950 . S
H1072 C1069 0.950 . S
C1073 C1064 1.390 . S
C1073 H1066 0.950 . S
C1073 C1070 1.387 . S
C1074 C1075 1.387 . S
C1074 H1078 0.950 . S
C1074 C1083 1.390 . S
C1075 C1074 1.387 . S
C1075 C1077 1.387 . S
H1076 C1083 0.950 . S
C1077 C1075 1.387 . S
C1077 C1079 1.390 . S
C1077 H1081 0.950 . S
H1078 C1074 0.950 . S
C1079 C1077 1.390 . S
C1079 C1080 1.387 . S
C1079 H1082 0.950 . S
C1080 C1079 1.387 . S
C1080 C1083 1.387 . S
H1081 C1077 0.950 . S
H1082 C1079 0.950 . S
C1083 C1074 1.390 . S
C1083 H1076 0.950 . S
C1083 C1080 1.387 . S
C1084 C1085 1.387 . S
C1084 H1088 0.950 . S
C1084 C1093 1.390 . S
C1085 C1084 1.387 . S
C1085 C1087 1.387 . S
H1086 C1093 0.950 . S
C1087 C1085 1.387 . S
C1087 C1089 1.390 . S
C1087 H1091 0.950 . S
H1088 C1084 0.950 . S
C1089 C1087 1.390 . S
C1089 C1090 1.387 . S
C1089 H1092 0.950 . S
C1090 C1089 1.387 . S
C1090 C1093 1.387 . S
H1091 C1087 0.950 . S
H1092 C1089 0.950 . S
C1093 C1084 1.390 . S
C1093 H1086 0.950 . S
C1093 C1090 1.387 . S
C1094 C1095 1.387 . S
C1094 H1098 0.950 . S
C1094 C1103 1.390 . S
C1095 C1094 1.387 . S
C1095 C1097 1.387 . S
H1096 C1103 0.950 . S
C1097 C1095 1.387 . S
C1097 C1099 1.390 . S
C1097 H1101 0.950 . S
H1098 C1094 0.950 . S
C1099 C1097 1.390 . S
C1099 C1100 1.387 . S
C1099 H1102 0.950 . S
C1100 C1099 1.387 . S
C1100 C1103 1.387 . S
H1101 C1097 0.950 . S
H1102 C1099 0.950 . S
C1103 C1094 1.390 . S
C1103 H1096 0.950 . S
C1103 C1100 1.387 . S
C1104 C1105 1.387 . S
C1104 H1108 0.950 . S
C1104 C1113 1.390 . S
C1105 C1104 1.387 . S
C1105 C1107 1.387 . S
H1106 C1113 0.950 . S
C1107 C1105 1.387 . S
C1107 C1109 1.390 . S
C1107 H1111 0.950 . S
H1108 C1104 0.950 . S
C1109 C1107 1.390 . S
C1109 C1110 1.387 . S
C1109 H1112 0.950 . S
C1110 C1109 1.387 . S
C1110 C1113 1.387 . S
H1111 C1107 0.950 . S
H1112 C1109 0.950 . S
C1113 C1104 1.390 . S
C1113 H1106 0.950 . S
C1113 C1110 1.387 . S
C1114 C1115 1.387 . S
C1114 H1118 0.950 . S
C1114 C1123 1.390 . S
C1115 C1114 1.387 . S
C1115 C1117 1.387 . S
H1116 C1123 0.950 . S
C1117 C1115 1.387 . S
C1117 C1119 1.390 . S
C1117 H1121 0.950 . S
H1118 C1114 0.950 . S
C1119 C1117 1.390 . S
C1119 C1120 1.387 . S
C1119 H1122 0.950 . S
C1120 C1119 1.387 . S
C1120 C1123 1.387 . S
H1121 C1117 0.950 . S
H1122 C1119 0.950 . S
C1123 C1114 1.390 . S
C1123 H1116 0.950 . S
C1123 C1120 1.387 . S
C1124 C1125 1.387 . S
C1124 H1128 0.950 . S
C1124 C1133 1.390 . S
C1125 C1124 1.387 . S
C1125 C1127 1.387 . S
H1126 C1133 0.950 . S
C1127 C1125 1.387 . S
C1127 C1129 1.390 . S
C1127 H1131 0.950 . S
H1128 C1124 0.950 . S
C1129 C1127 1.390 . S
C1129 C1130 1.387 . S
C1129 H1132 0.950 . S
C1130 C1129 1.387 . S
C1130 C1133 1.387 . S
H1131 C1127 0.950 . S
H1132 C1129 0.950 . S
C1133 C1124 1.390 . S
C1133 H1126 0.950 . S
C1133 C1130 1.387 . S
C1134 C1135 1.387 . S
C1134 H1138 0.950 . S
C1134 C1143 1.390 . S
C1135 C1134 1.387 . S
C1135 C1137 1.387 . S
H1136 C1143 0.950 . S
C1137 C1135 1.387 . S
C1137 C1139 1.390 . S
C1137 H1141 0.950 . S
H1138 C1134 0.950 . S
C1139 C1137 1.390 . S
C1139 C1140 1.387 . S
C1139 H1142 0.950 . S
C1140 C1139 1.387 . S
C1140 C1143 1.387 . S
H1141 C1137 0.950 . S
H1142 C1139 0.950 . S
C1143 C1134 1.390 . S
C1143 H1136 0.950 . S
C1143 C1140 1.387 . S
C1144 C1145 1.387 . S
C1144 H1148 0.950 . S
C1144 C1153 1.390 . S
C1145 C1144 1.387 . S
C1145 C1147 1.387 . S
H1146 C1153 0.950 . S
C1147 C1145 1.387 . S
C1147 C1149 1.390 . S
C1147 H1151 0.950 . S
H1148 C1144 0.950 . S
C1149 C1147 1.390 . S
C1149 C1150 1.387 . S
C1149 H1152 0.950 . S
C1150 C1149 1.387 . S
C1150 C1153 1.387 . S
H1151 C1147 0.950 . S
H1152 C1149 0.950 . S
C1153 C1144 1.390 . S
C1153 H1146 0.950 . S
C1153 C1150 1.387 . S
C1154 C1155 1.387 . S
C1154 H1158 0.950 . S
C1154 C1163 1.390 . S
C1155 C1154 1.387 . S
C1155 C1157 1.387 . S
H1156 C1163 0.950 . S
C1157 C1155 1.387 . S
C1157 C1159 1.390 . S
C1157 H1161 0.950 . S
H1158 C1154 0.950 . S
C1159 C1157 1.390 . S
C1159 C1160 1.387 . S
C1159 H1162 0.950 . S
C1160 C1159 1.387 . S
C1160 C1163 1.387 . S
H1161 C1157 0.950 . S
H1162 C1159 0.950 . S
C1163 C1154 1.390 . S
C1163 H1156 0.950 . S
C1163 C1160 1.387 . S
C1164 C1165 1.387 . S
C1164 H1168 0.950 . S
C1164 C1173 1.390 . S
C1165 C1164 1.387 . S
C1165 C1167 1.387 . S
H1166 C1173 0.950 . S
C1167 C1165 1.387 . S
C1167 C1169 1.390 . S
C1167 H1171 0.950 . S
H1168 C1164 0.950 . S
C1169 C1167 1.390 . S
C1169 C1170 1.387 . S
C1169 H1172 0.950 . S
C1170 C1169 1.387 . S
C1170 C1173 1.387 . S
H1171 C1167 0.950 . S
H1172 C1169 0.950 . S
C1173 C1164 1.390 . S
C1173 H1166 0.950 . S
C1173 C1170 1.387 . S
C1174 C1175 1.387 . S
C1174 H1178 0.950 . S
C1174 C1183 1.390 . S
C1175 C1174 1.387 . S
C1175 C1177 1.387 . S
H1176 C1183 0.950 . S
C1177 C1175 1.387 . S
C1177 C1179 1.390 . S
C1177 H1181 0.950 . S
H1178 C1174 0.950 . S
C1179 C1177 1.390 . S
C1179 C1180 1.387 . S
C1179 H1182 0.950 . S
C1180 C1179 1.387 . S
C1180 C1183 1.387 . S
H1181 C1177 0.950 . S
H1182 C1179 0.950 . S
C1183 C1174 1.390 . S
C1183 H1176 0.950 . S
C1183 C1180 1.387 . S
C1184 C1185 1.387 . S
C1184 H1188 0.950 . S
C1184 C1193 1.390 . S
C1185 C1184 1.387 . S
C1185 C1187 1.387 . S
H1186 C1193 0.950 . S
C1187 C1185 1.387 . S
C1187 C1189 1.390 . S
C1187 H1191 0.950 . S
H1188 C1184 0.950 . S
C1189 C1187 1.390 . S
C1189 C1190 1.387 . S
C1189 H1192 0.950 . S
C1190 C1189 1.387 . S
C1190 C1193 1.387 . S
H1191 C1187 0.950 . S
H1192 C1189 0.950 . S
C1193 C1184 1.390 . S
C1193 H1186 0.950 . S
C1193 C1190 1.387 . S
C1194 C1195 1.387 . S
C1194 H1198 0.950 . S
C1194 C1203 1.390 . S
C1195 C1194 1.387 . S
C1195 C1197 1.387 . S
H1196 C1203 0.950 . S
C1197 C1195 1.387 . S
C1197 C1199 1.390 . S
C1197 H1201 0.950 . S
H1198 C1194 0.950 . S
C1199 C1197 1.390 . S
C1199 C1200 1.387 . S
C1199 H1202 0.950 . S
C1200 C1199 1.387 . S
C1200 C1203 1.387 . S
H1201 C1197 0.950 . S
H1202 C1199 0.950 . S
C1203 C1194 1.390 . S
C1203 H1196 0.950 . S
C1203 C1200 1.387 . S
C1204 C1205 1.387 . S
C1204 H1208 0.950 . S
C1204 C1213 1.390 . S
C1205 C1204 1.387 . S
C1205 C1207 1.387 . S
H1206 C1213 0.950 . S
C1207 C1205 1.387 . S
C1207 C1209 1.390 . S
C1207 H1211 0.950 . S
H1208 C1204 0.950 . S
C1209 C1207 1.390 . S
C1209 C1210 1.387 . S
C1209 H1212 0.950 . S
C1210 C1209 1.387 . S
C1210 C1213 1.387 . S
H1211 C1207 0.950 . S
H1212 C1209 0.950 . S
C1213 C1204 1.390 . S
C1213 H1206 0.950 . S
C1213 C1210 1.387 . S
C1214 C1215 1.387 . S
C1214 H1218 0.950 . S
C1214 C1223 1.390 . S
C1215 C1214 1.387 . S
C1215 C1217 1.387 . S
H1216 C1223 0.950 . S
C1217 C1215 1.387 . S
C1217 C1219 1.390 . S
C1217 H1221 0.950 . S
H1218 C1214 0.950 . S
C1219 C1217 1.390 . S
C1219 C1220 1.387 . S
C1219 H1222 0.950 . S
C1220 C1219 1.387 . S
C1220 C1223 1.387 . S
H1221 C1217 0.950 . S
H1222 C1219 0.950 . S
C1223 C1214 1.390 . S
C1223 H1216 0.950 . S
C1223 C1220 1.387 . S
C1224 C1225 1.387 . S
C1224 H1228 0.950 . S
C1224 C1233 1.390 . S
C1225 C1224 1.387 . S
C1225 C1227 1.387 . S
H1226 C1233 0.950 . S
C1227 C1225 1.387 . S
C1227 C1229 1.390 . S
C1227 H1231 0.950 . S
H1228 C1224 0.950 . S
C1229 C1227 1.390 . S
C1229 C1230 1.387 . S
C1229 H1232 0.950 . S
C1230 C1229 1.387 . S
C1230 C1233 1.387 . S
H1231 C1227 0.950 . S
H1232 C1229 0.950 . S
C1233 C1224 1.390 . S
C1233 H1226 0.950 . S
C1233 C1230 1.387 . S
C1234 C1235 1.387 . S
C1234 H1238 0.950 . S
C1234 C1243 1.390 . S
C1235 C1234 1.387 . S
C1235 C1237 1.387 . S
H1236 C1243 0.950 . S
C1237 C1235 1.387 . S
C1237 C1239 1.390 . S
C1237 H1241 0.950 . S
H1238 C1234 0.950 . S
C1239 C1237 1.390 . S
C1239 C1240 1.387 . S
C1239 H1242 0.950 . S
C1240 C1239 1.387 . S
C1240 C1243 1.387 . S
H1241 C1237 0.950 . S
H1242 C1239 0.950 . S
C1243 C1234 1.390 . S
C1243 H1236 0.950 . S
C1243 C1240 1.387 . S
C1244 C1245 1.387 . S
C1244 H1248 0.950 . S
C1244 C1253 1.390 . S
C1245 C1244 1.387 . S
C1245 C1247 1.387 . S
H1246 C1253 0.950 . S
C1247 C1245 1.387 . S
C1247 C1249 1.390 . S
C1247 H1251 0.950 . S
H1248 C1244 0.950 . S
C1249 C1247 1.390 . S
C1249 C1250 1.387 . S
C1249 H1252 0.950 . S
C1250 C1249 1.387 . S
C1250 C1253 1.387 . S
H1251 C1247 0.950 . S
H1252 C1249 0.950 . S
C1253 C1244 1.390 . S
C1253 H1246 0.950 . S
C1253 C1250 1.387 . S
C1254 C1255 1.387 . S
C1254 H1258 0.950 . S
C1254 C1263 1.390 . S
C1255 C1254 1.387 . S
C1255 C1257 1.387 . S
H1256 C1263 0.950 . S
C1257 C1255 1.387 . S
C1257 C1259 1.390 . S
C1257 H1261 0.950 . S
H1258 C1254 0.950 . S
C1259 C1257 1.390 . S
C1259 C1260 1.387 . S
C1259 H1262 0.950 . S
C1260 C1259 1.387 . S
C1260 C1263 1.387 . S
H1261 C1257 0.950 . S
H1262 C1259 0.950 . S
C1263 C1254 1.390 . S
C1263 H1256 0.950 . S
C1263 C1260 1.387 . S
C1264 C1265 1.387 . S
C1264 H1268 0.950 . S
C1264 C1273 1.390 . S
C1265 C1264 1.387 . S
C1265 C1267 1.387 . S
H1266 C1273 0.950 . S
C1267 C1265 1.387 . S
C1267 C1269 1.390 . S
C1267 H1271 0.950 . S
H1268 C1264 0.950 . S
C1269 C1267 1.390 . S
C1269 C1270 1.387 . S
C1269 H1272 0.950 . S
C1270 C1269 1.387 . S
C1270 C1273 1.387 . S
H1271 C1267 0.950 . S
H1272 C1269 0.950 . S
C1273 C1264 1.390 . S
C1273 H1266 0.950 . S
C1273 C1270 1.387 . S
C1274 C1275 1.387 . S
C1274 H1278 0.950 . S
C1274 C1283 1.390 . S
C1275 C1274 1.387 . S
C1275 C1277 1.387 . S
H1276 C1283 0.950 . S
C1277 C1275 1.387 . S
C1277 C1279 1.390 . S
C1277 H1281 0.950 . S
H1278 C1274 0.950 . S
C1279 C1277 1.390 . S
C1279 C1280 1.387 . S
C1279 H1282 0.950 . S
C1280 C1279 1.387 . S
C1280 C1283 1.387 . S
H1281 C1277 0.950 . S
H1282 C1279 0.950 . S
C1283 C1274 1.390 . S
C1283 H1276 0.950 . S
C1283 C1280 1.387 . S
C1284 C1285 1.387 . S
C1284 H1288 0.950 . S
C1284 C1293 1.390 . S
C1285 C1284 1.387 . S
C1285 C1287 1.387 . S
H1286 C1293 0.950 . S
C1287 C1285 1.387 . S
C1287 C1289 1.390 . S
C1287 H1291 0.950 . S
H1288 C1284 0.950 . S
C1289 C1287 1.390 . S
C1289 C1290 1.387 . S
C1289 H1292 0.950 . S
C1290 C1289 1.387 . S
C1290 C1293 1.387 . S
H1291 C1287 0.950 . S
H1292 C1289 0.950 . S
C1293 C1284 1.390 . S
C1293 H1286 0.950 . S
C1293 C1290 1.387 . S
C1294 C1295 1.387 . S
C1294 H1298 0.950 . S
C1294 C1303 1.390 . S
C1295 C1294 1.387 . S
C1295 C1297 1.387 . S
H1296 C1303 0.950 . S
C1297 C1295 1.387 . S
C1297 C1299 1.390 . S
C1297 H1301 0.950 . S
H1298 C1294 0.950 . S
C1299 C1297 1.390 . S
C1299 C1300 1.387 . S
C1299 H1302 0.950 . S
C1300 C1299 1.387 . S
C1300 C1303 1.387 . S
H1301 C1297 0.950 . S
H1302 C1299 0.950 . S
C1303 C1294 1.390 . S
C1303 H1296 0.950 . S
C1303 C1300 1.387 . S
C1304 C1305 1.387 . S
C1304 H1308 0.950 . S
C1304 C1313 1.390 . S
C1305 C1304 1.387 . S
C1305 C1307 1.387 . S
H1306 C1313 0.950 . S
C1307 C1305 1.387 . S
C1307 C1309 1.390 . S
C1307 H1311 0.950 . S
H1308 C1304 0.950 . S
C1309 C1307 1.390 . S
C1309 C1310 1.387 . S
C1309 H1312 0.950 . S
C1310 C1309 1.387 . S
C1310 C1313 1.387 . S
H1311 C1307 0.950 . S
H1312 C1309 0.950 . S
C1313 C1304 1.390 . S
C1313 H1306 0.950 . S
C1313 C1310 1.387 . S
C1314 C1315 1.387 . S
C1314 H1318 0.950 . S
C1314 C1323 1.390 . S
C1315 C1314 1.387 . S
C1315 C1317 1.387 . S
H1316 C1323 0.950 . S
C1317 C1315 1.387 . S
C1317 C1319 1.390 . S
C1317 H1321 0.950 . S
H1318 C1314 0.950 . S
C1319 C1317 1.390 . S
C1319 C1320 1.387 . S
C1319 H1322 0.950 . S
C1320 C1319 1.387 . S
C1320 C1323 1.387 . S
H1321 C1317 0.950 . S
H1322 C1319 0.950 . S
C1323 C1314 1.390 . S
C1323 H1316 0.950 . S
C1323 C1320 1.387 . S
C1324 C1325 1.387 . S
C1324 H1328 0.950 . S
C1324 C1333 1.390 . S
C1325 C1324 1.387 . S
C1325 C1327 1.387 . S
H1326 C1333 0.950 . S
C1327 C1325 1.387 . S
C1327 C1329 1.390 . S
C1327 H1331 0.950 . S
H1328 C1324 0.950 . S
C1329 C1327 1.390 . S
C1329 C1330 1.387 . S
C1329 H1332 0.950 . S
C1330 C1329 1.387 . S
C1330 C1333 1.387 . S
H1331 C1327 0.950 . S
H1332 C1329 0.950 . S
C1333 C1324 1.390 . S
C1333 H1326 0.950 . S
C1333 C1330 1.387 . S
C1334 C1335 1.387 . S
C1334 H1338 0.950 . S
C1334 C1343 1.390 . S
C1335 C1334 1.387 . S
C1335 C1337 1.387 . S
H1336 C1343 0.950 . S
C1337 C1335 1.387 . S
C1337 C1339 1.390 . S
C1337 H1341 0.950 . S
H1338 C1334 0.950 . S
C1339 C1337 1.390 . S
C1339 C1340 1.387 . S
C1339 H1342 0.950 . S
C1340 C1339 1.387 . S
C1340 C1343 1.387 . S
H1341 C1337 0.950 . S
H1342 C1339 0.950 . S
C1343 C1334 1.390 . S
C1343 H1336 0.950 . S
C1343 C1340 1.387 . S
C1030 C913 1.526 . S
C1025 C29 1.210 . S
C1040 C939 1.665 . S
C1035 C125 0.894 . S
C1050 C953 1.526 . S
C1045 C257 1.210 . S
C1060 C955 1.666 . S
C1055 C353 0.894 . S
C1065 C457 1.176 . S
C1070 C952 1.488 . S
C1080 C954 1.648 . S
C1075 C625 1.345 . S
C1090 C912 1.488 . S
C1085 C685 1.175 . S
C1100 C938 1.646 . S
C1095 C853 1.352 . S
C1110 C940 1.700 . S
C1105 C809 1.122 . S
C1120 C966 1.506 . S
C1115 C485 1.232 . S
C1130 C924 1.701 . S
C1125 C581 1.116 . S
C1140 C926 1.506 . S
C1135 C713 1.237 . S
C1150 C925 1.675 . S
C1145 C169 1.236 . S
C1160 C927 1.474 . S
C1155 C229 1.155 . S
C1170 C941 1.672 . S
C1165 C397 1.233 . S
C1180 C967 1.474 . S
C1175 C1 1.157 . S
C1190 C969 1.527 . S
C1185 C827 1.207 . S
C1195 C467 0.901 . S
C1200 C995 1.667 . S
C1205 C599 1.212 . S
C1210 C1008 1.527 . S
C1215 C695 0.895 . S
C1220 C1011 1.666 . S
C1225 C115 1.172 . S
C1230 C1009 1.486 . S
C1235 C283 1.345 . S
C1240 C1010 1.648 . S
C1245 C343 1.173 . S
C1250 C968 1.488 . S
C1260 C994 1.647 . S
C1255 C55 1.346 . S
C1270 C997 1.703 . S
C1265 C11 1.123 . S
C1275 C143 1.236 . S
C1280 C1022 1.506 . S
C1285 C239 1.118 . S
C1290 C980 1.702 . S
C1295 C371 1.232 . S
C1300 C982 1.506 . S
C1310 C981 1.672 . S
C1305 C511 1.232 . S
C1320 C983 1.474 . S
C1315 C571 1.157 . S
C1325 C739 1.235 . S
C1330 C996 1.669 . S
C1340 C1023 1.474 . S
C1335 C799 1.154 . S
