# Generated by pormake.
# Topology sit, (3,6)-cn, num edge types: 1
# Building blocks:
#     Node 0, Type 0, BuildingBlock: QEWDON_clean_linker_0, # of connection points: 3
#     Node 1, Type 0, BuildingBlock: QEWDON_clean_linker_0, # of connection points: 3
#     Node 2, Type 0, BuildingBlock: QEWDON_clean_linker_0, # of connection points: 3
#     Node 3, Type 0, BuildingBlock: QEWDON_clean_linker_0, # of connection points: 3
#     Node 4, Type 1, BuildingBlock: MIDCAF_clean_sbu_0, # of connection points: 6
#     Node 5, Type 1, BuildingBlock: MIDCAF_clean_sbu_0, # of connection points: 6
#     Edge 6, Type (0, 1), BuildingBlock: MIFKUJ_clean_linker_0, # of connection points: 2
#     Edge 7, Type (0, 1), BuildingBlock: MIFKUJ_clean_linker_0, # of connection points: 2
#     Edge 8, Type (0, 1), BuildingBlock: MIFKUJ_clean_linker_0, # of connection points: 2
#     Edge 9, Type (0, 1), BuildingBlock: MIFKUJ_clean_linker_0, # of connection points: 2
#     Edge 10, Type (0, 1), BuildingBlock: MIFKUJ_clean_linker_0, # of connection points: 2
#     Edge 11, Type (0, 1), BuildingBlock: MIFKUJ_clean_linker_0, # of connection points: 2
#     Edge 12, Type (0, 1), BuildingBlock: MIFKUJ_clean_linker_0, # of connection points: 2
#     Edge 13, Type (0, 1), BuildingBlock: MIFKUJ_clean_linker_0, # of connection points: 2
#     Edge 14, Type (0, 1), BuildingBlock: MIFKUJ_clean_linker_0, # of connection points: 2
#     Edge 15, Type (0, 1), BuildingBlock: MIFKUJ_clean_linker_0, # of connection points: 2
#     Edge 16, Type (0, 1), BuildingBlock: MIFKUJ_clean_linker_0, # of connection points: 2
#     Edge 17, Type (0, 1), BuildingBlock: MIFKUJ_clean_linker_0, # of connection points: 2
# Relax obj value: 0.077
# Max RMSD: 0.183
# Mean RMSD: 0.153
data_MOF--net-sit--node1-MIDCAF_clean_sbu_0--node2-QEWDON_clean_linker_0--edge1-MIFKUJ_clean_linker_0
_symmetry_space_group_name_H-M    P1
_symmetry_Int_Tables_number       1
_symmetry_cell_setting            triclinic
loop_
_symmetry_equiv_pos_as_xyz
'x, y, z'
_cell_length_a     26.372545
_cell_length_b     46.443431
_cell_length_c     50.792986
_cell_angle_alpha  90.114063
_cell_angle_beta   86.441068
_cell_angle_gamma 83.798378
loop_
_atom_site_label
_atom_site_type_symbol
_atom_site_fract_x
_atom_site_fract_y
_atom_site_fract_z
_atom_type_partial_charge
H0 H 0.2049 0.2619 0.03351 0.0
C1 C 0.17117 0.27373 0.02602 0.0
C2 C 0.17216 0.30273 0.01841 0.0
C3 C 0.1271 0.25974 0.02302 0.0
H4 H 0.12995 0.33985 0.00184 0.0
C5 C 0.12889 0.31756 0.00798 0.0
C6 C 0.08525 0.30375 0.00417 0.0
C7 C 0.08435 0.27484 0.01202 0.0
C8 C 0.12669 0.22873 0.02942 0.0
H9 H 0.05099 0.26379 0.00896 0.0
C10 C 0.13364 0.2187 0.05522 0.0
C11 C 0.13092 0.18931 0.06108 0.0
C12 C 0.11772 0.20907 0.00961 0.0
H13 H 0.11224 0.21638 0.98964 0.0
C14 C 0.11594 0.17983 0.01538 0.0
H15 H 0.13963 0.23378 0.07077 0.0
C16 C 0.12233 0.16997 0.04101 0.0
H17 H 0.11982 0.1473 0.0453 0.0
H18 H 0.10902 0.16482 1.00001 0.0
H19 H 0.08298 0.74048 0.04727 0.0
C20 C 0.05156 0.73227 0.0379 0.0
C21 C 0.06108 0.71643 0.0141 0.0
C22 C 0.00203 0.73589 0.05045 0.0
H23 H 0.02776 0.69103 0.98542 0.0
C24 C 0.02054 0.70449 0.00302 0.0
C25 C 0.97137 0.70769 0.01534 0.0
C26 C 0.96191 0.72397 0.03868 0.0
C27 C 0.99325 0.74836 0.07751 0.0
H28 H 0.92397 0.72588 0.04848 0.0
C29 C 0.01076 0.77491 0.08425 0.0
C30 C 0.0025 0.78565 0.11028 0.0
C31 C 0.96778 0.7329 0.09711 0.0
H32 H 0.95464 0.71224 0.09261 0.0
C33 C 0.95985 0.74357 0.12286 0.0
H34 H 0.03039 0.78713 0.06941 0.0
C35 C 0.97715 0.76976 0.12945 0.0
H36 H 0.97059 0.77776 0.14958 0.0
H37 H 0.94039 0.73143 0.13778 0.0
H38 H 0.70331 0.76192 0.53884 0.0
C39 C 0.66876 0.77416 0.53268 0.0
C40 C 0.66995 0.80286 0.52422 0.0
C41 C 0.62318 0.76099 0.53218 0.0
H42 H 0.62821 0.83952 0.5071 0.0
C43 C 0.62577 0.81806 0.51512 0.0
C44 C 0.57992 0.80545 0.51456 0.0
C45 C 0.57895 0.7768 0.52331 0.0
C46 C 0.62232 0.72994 0.53847 0.0
H47 H 0.54399 0.76653 0.52301 0.0
C48 C 0.63313 0.71913 0.56364 0.0
C49 C 0.63005 0.68961 0.56939 0.0
C50 C 0.60898 0.71106 0.51906 0.0
H51 H 0.60047 0.71898 0.49959 0.0
C52 C 0.60655 0.68185 0.52453 0.0
H53 H 0.64306 0.73369 0.57873 0.0
C54 C 0.61682 0.67117 0.54948 0.0
H55 H 0.61311 0.64855 0.55338 0.0
H56 H 0.59604 0.66749 0.50946 0.0
H57 H 0.58422 0.22068 0.54625 0.0
C58 C 0.54956 0.2205 0.53592 0.0
C59 C 0.55096 0.20773 0.51056 0.0
C60 C 0.50252 0.23066 0.54914 0.0
H61 H 0.5044 0.19791 0.47873 0.0
C62 C 0.50459 0.20716 0.49832 0.0
C63 C 0.45765 0.21515 0.51218 0.0
C64 C 0.4568 0.22731 0.5374 0.0
C65 C 0.49971 0.23997 0.57701 0.0
H66 H 0.42049 0.23274 0.54848 0.0
C67 C 0.5084 0.26823 0.58415 0.0
C68 C 0.49902 0.27765 0.61056 0.0
C69 C 0.48318 0.22103 0.59642 0.0
H70 H 0.47592 0.19929 0.59116 0.0
C71 C 0.47495 0.23013 0.62264 0.0
H72 H 0.52048 0.28307 0.56916 0.0
C73 C 0.48246 0.25831 0.62968 0.0
H74 H 0.47571 0.26498 0.65017 0.0
H75 H 0.46215 0.21541 0.6375 0.0
Zn76 Zn 0.07428 0.08158 0.35925 0.0
Zn77 Zn 0.08846 0.95147 0.34696 0.0
Zn78 Zn 0.08773 1.00315 0.35792 0.0
C79 C 0.07661 0.97535 0.29969 0.0
C80 C 0.00939 0.96619 0.38649 0.0
O81 O 0.15866 0.00827 0.37747 0.0
O82 O 0.11764 0.048 0.36781 0.0
C83 C 0.08196 0.05258 0.30786 0.0
O84 O 0.08145 0.99733 0.31449 0.0
O85 O 0.07687 0.95046 0.30948 0.0
O86 O 0.03182 0.94561 0.3725 0.0
O87 O 0.02175 0.99205 0.38323 0.0
O88 O 0.07258 0.07639 0.32053 0.0
O89 O 0.08808 0.02755 0.31932 0.0
O90 O 0.0202 0.02395 0.38332 0.0
O91 O 0.01266 0.0729 0.38111 0.0
C92 C -0.00283 0.04942 0.38961 0.0
O93 O 0.15851 0.97893 0.37363 0.0
O94 O 0.15508 0.93474 0.3583 0.0
C95 C 0.15512 0.03568 0.37855 0.0
C96 C 0.17736 0.95211 0.37142 0.0
Zn97 Zn 0.57256 0.59337 0.85791 0.0
Zn98 Zn 0.5961 0.43233 0.85265 0.0
Zn99 Zn 0.57881 0.5032 0.85825 0.0
C100 C 0.58761 0.46167 0.80326 0.0
C101 C 0.50529 0.47318 0.88285 0.0
O102 O 0.64549 0.51321 0.87781 0.0
O103 O 0.60909 0.55362 0.86457 0.0
C104 C 0.58628 0.5424 0.81603 0.0
O105 O 0.57907 0.48562 0.81671 0.0
O106 O 0.59889 0.43748 0.81405 0.0
O107 O 0.54087 0.45727 0.87101 0.0
O108 O 0.50698 0.50037 0.88097 0.0
O109 O 0.58181 0.55532 0.83808 0.0
O110 O 0.58636 0.51509 0.81713 0.0
O111 O 0.51191 0.53306 0.87834 0.0
O112 O 0.50833 0.58266 0.87814 0.0
C113 C 0.48989 0.55897 0.88451 0.0
O114 O 0.64547 0.48266 0.87939 0.0
O115 O 0.65833 0.43468 0.87174 0.0
C116 C 0.64351 0.5407 0.87783 0.0
C117 C 0.67054 0.45746 0.88234 0.0
H118 H 0.05176 0.18696 0.09698 0.0
H119 H 0.05266 0.16255 0.13962 0.0
H120 H 0.21638 0.14246 0.12862 0.0
H121 H 0.21494 0.16638 0.08545 0.0
H122 H 0.17765 0.09641 0.14378 0.0
H123 H 0.16164 0.19129 0.1769 0.0
H124 H 0.13094 0.24299 0.18337 0.0
H125 H 0.98234 0.2208 0.20967 0.0
H126 H 0.01189 0.16895 0.20299 0.0
H127 H 0.17245 0.04507 0.27952 0.0
H128 H 0.19019 0.0663 0.23622 0.0
H129 H 0.02835 0.08827 0.22916 0.0
H130 H 0.01108 0.06822 0.27294 0.0
H131 H 0.07945 0.13484 0.22499 0.0
H132 H 0.10999 0.03532 0.19215 0.0
H133 H 0.15503 0.9861 0.18885 0.0
H134 H 0.296 0.02069 0.16739 0.0
H135 H 0.25192 0.07026 0.17048 0.0
C136 C 0.08795 0.17784 0.10403 0.0
C137 C 0.13333 0.17869 0.08832 0.0
C138 C 0.08857 0.16396 0.12838 0.0
C139 C 0.13469 0.15085 0.13754 0.0
C140 C 0.18036 0.15242 0.12203 0.0
C141 C 0.17965 0.16621 0.09754 0.0
C142 C 0.13414 0.1338 0.16231 0.0
C143 C 0.15687 0.10497 0.1617 0.0
C144 C 0.10749 0.14495 0.18581 0.0
C145 C 0.0889 0.17618 0.18918 0.0
C146 C 0.12224 0.19742 0.18376 0.0
C147 C 0.10507 0.22677 0.18755 0.0
C148 C 0.05469 0.23518 0.19687 0.0
C149 C 0.02134 0.21426 0.20242 0.0
C150 C 0.0383 0.18487 0.19866 0.0
C151 C 0.14073 0.05331 0.26811 0.0
C152 C 0.09043 0.05482 0.2792 0.0
C153 C 0.15086 0.0656 0.24347 0.0
C154 C 0.1106 0.07905 0.22947 0.0
C155 C 0.06002 0.07818 0.23967 0.0
C156 C 0.05004 0.06641 0.26447 0.0
C157 C 0.12073 0.09709 0.20601 0.0
C158 C 0.10021 0.1263 0.20704 0.0
C159 C 0.15128 0.08656 0.18341 0.0
C160 C 0.17754 0.05661 0.18164 0.0
C161 C 0.15062 0.03251 0.18686 0.0
C162 C 0.17602 0.00451 0.18508 0.0
C163 C 0.22833 1.00023 0.17808 0.0
C164 C 0.25543 0.024 0.1728 0.0
C165 C 0.23022 0.05207 0.1745 0.0
H166 H 0.24783 0.9785 0.17669 0.0
H167 H 0.04151 0.25791 0.19984 0.0
H168 H 0.08466 0.7932 0.13779 0.0
H169 H 0.09978 0.83724 0.16137 0.0
H170 H 0.9706 0.88396 0.12655 0.0
H171 H 0.95614 0.83986 0.1025 0.0
H172 H 0.04908 0.91934 0.13511 0.0
H173 H 0.94968 0.85313 0.18274 0.0
H174 H 0.93249 0.80527 0.19989 0.0
H175 H 0.06634 0.8015 0.24432 0.0
H176 H 0.08481 0.84915 0.22706 0.0
H177 H 0.98711 0.98496 0.27661 0.0
H178 H 0.97231 0.96504 0.23341 0.0
H179 H 0.13476 0.94667 0.21691 0.0
H180 H 0.14958 0.96683 0.25996 0.0
H181 H 0.03035 0.9018 0.23137 0.0
H182 H 0.12179 0.9525 0.13728 0.0
H183 H 0.13143 1.00052 0.11818 0.0
H184 H 0.00222 0.03785 0.16702 0.0
H185 H 0.99113 0.99002 0.18602 0.0
C186 C 0.06087 0.8132 0.13441 0.0
C187 C 0.01954 0.81339 0.1183 0.0
C188 C 0.06928 0.83827 0.14795 0.0
C189 C 0.03583 0.86376 0.146 0.0
C190 C -0.00308 0.86457 0.12827 0.0
C191 C 0.98871 0.83946 0.11454 0.0
C192 C 0.03704 0.8878 0.1652 0.0
C193 C 0.0452 0.9156 0.15617 0.0
C194 C 0.03039 0.88302 0.19265 0.0
C195 C 0.01885 0.8546 0.20343 0.0
C196 C 0.97561 0.84202 0.19604 0.0
C197 C 0.96563 0.81493 0.20579 0.0
C198 C -0.00164 0.80033 0.22314 0.0
C199 C 0.04105 0.81282 0.23085 0.0
C200 C 0.05128 0.83987 0.2211 0.0
C201 C 0.01964 0.97859 0.26296 0.0
C202 C 0.06947 0.97781 0.27133 0.0
C203 C 0.01117 0.96701 0.23836 0.0
C204 C 0.05249 0.95479 0.22176 0.0
C205 C 0.10245 0.95684 0.229 0.0
C206 C 0.11091 0.96841 0.25361 0.0
C207 C 0.04385 0.93329 0.20141 0.0
C208 C 0.03438 0.90571 0.21032 0.0
C209 C 0.04863 0.93855 0.17399 0.0
C210 C 0.05615 0.96765 0.16341 0.0
C211 C 0.09538 0.97093 0.14394 0.0
C212 C 0.10096 0.99812 0.13303 0.0
C213 C 0.06739 0.02221 0.14134 0.0
C214 C 0.02824 0.01917 0.16063 0.0
C215 C 0.02249 0.99204 0.17159 0.0
H216 H 0.07189 0.04325 0.13295 0.0
H217 H 0.99058 0.77936 0.23066 0.0
H218 H 0.6831 0.63841 0.58264 0.0
H219 H 0.68216 0.61512 0.62574 0.0
H220 H 0.5928 0.69063 0.66018 0.0
H221 H 0.59304 0.71402 0.61693 0.0
H222 H 0.66803 0.66418 0.69335 0.0
H223 H 0.53314 0.63737 0.64086 0.0
H224 H 0.49867 0.61818 0.60117 0.0
H225 H 0.5892 0.53669 0.61044 0.0
H226 H 0.62503 0.5556 0.64988 0.0
H227 H 0.56364 0.60015 0.80759 0.0
H228 H 0.57604 0.62636 0.76646 0.0
H229 H 0.636 0.54633 0.72697 0.0
H230 H 0.62148 0.5199 0.76785 0.0
H231 H 0.57828 0.57553 0.69622 0.0
H232 H 0.71398 0.59957 0.74746 0.0
H233 H 0.75262 0.61691 0.7867 0.0
H234 H 0.66769 0.70049 0.77972 0.0
H235 H 0.628 0.68354 0.74063 0.0
C236 C 0.66371 0.65021 0.59944 0.0
C237 C 0.63743 0.67789 0.59628 0.0
C238 C 0.66335 0.6369 0.62406 0.0
C239 C 0.63664 0.65095 0.64603 0.0
C240 C 0.61351 0.6794 0.64342 0.0
C241 C 0.6138 0.69276 0.61872 0.0
C242 C 0.62903 0.63496 0.67098 0.0
C243 C 0.648 0.64495 0.69411 0.0
C244 C 0.60406 0.60945 0.67176 0.0
C245 C 0.58224 0.59803 0.64813 0.0
C246 C 0.54608 0.61546 0.63428 0.0
C247 C 0.52626 0.60462 0.61185 0.0
C248 C 0.54187 0.57627 0.60323 0.0
C249 C 0.57725 0.55867 0.61708 0.0
C250 C 0.59735 0.56945 0.63946 0.0
C251 C 0.5793 0.58816 0.7901 0.0
C252 C 0.59174 0.55801 0.79091 0.0
C253 C 0.5868 0.6032 0.76663 0.0
C254 C 0.60817 0.58849 0.74368 0.0
C255 C 0.61972 0.55824 0.7444 0.0
C256 C 0.61135 0.54312 0.76776 0.0
C257 C 0.61754 0.60452 0.71881 0.0
C258 C 0.59867 0.59462 0.6956 0.0
C259 C 0.64338 0.6298 0.71794 0.0
C260 C 0.6677 0.6402 0.74124 0.0
C261 C 0.70332 0.6216 0.75438 0.0
C262 C 0.72543 0.63137 0.77659 0.0
C263 C 0.71253 0.65976 0.78573 0.0
C264 C 0.67761 0.67849 0.77263 0.0
C265 C 0.65535 0.66883 0.75042 0.0
H266 H 0.72966 0.66727 0.80294 0.0
H267 H 0.52645 0.56791 0.58587 0.0
H268 H 0.58545 0.3048 0.60344 0.0
H269 H 0.60338 0.34916 0.62584 0.0
H270 H 0.44803 0.3613 0.6591 0.0
H271 H 0.43019 0.3169 0.637 0.0
H272 H 0.49258 0.41521 0.64715 0.0
H273 H 0.5238 0.32443 0.69323 0.0
H274 H 0.56107 0.27376 0.69743 0.0
H275 H 0.71197 0.29989 0.68504 0.0
H276 H 0.67542 0.35071 0.68024 0.0
H277 H 0.50003 0.46956 0.77804 0.0
H278 H 0.48858 0.45059 0.7341 0.0
H279 H 0.65219 0.43212 0.7208 0.0
H280 H 0.66314 0.44983 0.76526 0.0
H281 H 0.61009 0.38528 0.71708 0.0
H282 H 0.57612 0.4792 0.6799 0.0
H283 H 0.53548 0.52942 0.6776 0.0
H284 H 0.38808 0.49853 0.67546 0.0
H285 H 0.42773 0.44812 0.67805 0.0
C286 C 0.55479 0.3175 0.61482 0.0
C287 C 0.50668 0.30737 0.61881 0.0
C288 C 0.56499 0.3428 0.62756 0.0
C289 C 0.52707 0.35837 0.64424 0.0
C290 C 0.4777 0.34969 0.64623 0.0
C291 C 0.46769 0.32424 0.6338 0.0
C292 C 0.54096 0.3801 0.66316 0.0
C293 C 0.51839 0.40888 0.66244 0.0
C294 C 0.57483 0.37174 0.68295 0.0
C295 C 0.59689 0.34126 0.68598 0.0
C296 C 0.5649 0.31932 0.69112 0.0
C297 C 0.58589 0.29059 0.69366 0.0
C298 C 0.63886 0.28359 0.69141 0.0
C299 C 0.67094 0.30534 0.68669 0.0
C300 C 0.65012 0.3341 0.68404 0.0
C301 C 0.5335 0.46274 0.76516 0.0
C302 C 0.58243 0.46126 0.77472 0.0
C303 C 0.52702 0.45186 0.74002 0.0
C304 C 0.56955 0.4398 0.72405 0.0
C305 C 0.6188 0.4412 0.73274 0.0
C306 C 0.62514 0.45152 0.75802 0.0
C307 C 0.56244 0.42095 0.70114 0.0
C308 C 0.58563 0.39227 0.70137 0.0
C309 C 0.52894 0.42954 0.68114 0.0
C310 C 0.50494 0.45984 0.67929 0.0
C311 C 0.535 0.4831 0.67909 0.0
C312 C 0.51215 0.51161 0.6777 0.0
C313 C 0.45924 0.51716 0.67641 0.0
C314 C 0.42908 0.4942 0.67644 0.0
C315 C 0.45174 0.46564 0.6778 0.0
H316 H 0.44161 0.53925 0.67536 0.0
H317 H 0.65506 0.26134 0.69342 0.0
H318 H 0.26486 0.28413 0.99407 0.0
H319 H 0.33043 0.31531 0.97969 0.0
H320 H 0.24929 0.38622 0.02518 0.0
H321 H 0.18402 0.3551 0.03971 0.0
H322 H 0.25686 0.39391 0.96962 0.0
H323 H 0.36727 0.36239 0.03962 0.0
H324 H 0.41688 0.32527 0.06505 0.0
H325 H 0.50666 0.29632 0.99467 0.0
H326 H 0.45716 0.33298 0.96875 0.0
H327 H 0.42494 0.49743 0.91706 0.0
H328 H 0.37096 0.47042 0.94759 0.0
H329 H 0.45096 0.38979 0.91799 0.0
H330 H 0.50286 0.41571 0.88779 0.0
H331 H 0.44517 0.39021 0.97045 0.0
H332 H 0.34192 0.40992 0.89945 0.0
H333 H 0.28958 0.43514 0.86637 0.0
H334 H 0.18366 0.4726 0.92784 0.0
H335 H 0.23691 0.44888 0.96146 0.0
C336 C 0.2625 0.30592 0.00205 0.0
C337 C 0.21934 0.31734 0.01782 0.0
C338 C 0.2998 0.32376 0.99373 0.0
C339 C 0.29434 0.35312 0.00121 0.0
C340 C 0.25406 0.36364 0.01917 0.0
C341 C 0.21696 0.34584 0.02752 0.0
C342 C 0.32434 0.37385 0.98672 0.0
C343 C 0.29792 0.39382 0.97037 0.0
C344 C 0.37811 0.3722 0.98653 0.0
C345 C 0.40826 0.35037 0.00222 0.0
C346 C 0.39735 0.34799 0.02953 0.0
C347 C 0.42552 0.32704 0.04404 0.0
C348 C 0.46485 0.30842 0.03148 0.0
C349 C 0.4762 0.31075 0.00438 0.0
C350 C 0.44815 0.33165 0.98979 0.0
C351 C 0.43038 0.47398 0.91699 0.0
C352 C 0.46835 0.45886 0.90005 0.0
C353 C 0.39986 0.45859 0.93445 0.0
C354 C 0.40765 0.42809 0.93528 0.0
C355 C 0.44481 0.41325 0.91803 0.0
C356 C 0.47433 0.42833 0.90058 0.0
C357 C 0.37745 0.41089 0.9537 0.0
C358 C 0.40388 0.39119 0.97042 0.0
C359 C 0.32382 0.41167 0.95318 0.0
C360 C 0.29426 0.42816 0.9331 0.0
C361 C 0.30841 0.42427 0.90603 0.0
C362 C 0.27841 0.43821 0.88713 0.0
C363 C 0.23347 0.45558 0.89499 0.0
C364 C 0.21864 0.45924 0.92178 0.0
C365 C 0.249 0.44579 0.94078 0.0
H366 H 0.20997 0.46606 0.8803 0.0
H367 H 0.48657 0.29221 0.04274 0.0
H368 H 0.97894 0.64967 0.00909 0.0
H369 H 0.91933 0.62092 0.98885 0.0
H370 H 0.81675 0.69837 0.97827 0.0
H371 H 0.87635 0.72726 0.99934 0.0
H372 H 0.76456 0.65283 0.99216 0.0
H373 H 0.89529 0.67104 0.92711 0.0
H374 H 0.98394 0.67321 0.90933 0.0
H375 H 0.01524 0.58113 0.91762 0.0
H376 H 0.92698 0.57851 0.93577 0.0
H377 H 0.63248 0.5986 0.88884 0.0
H378 H 0.68531 0.62552 0.9153 0.0
H379 H 0.78072 0.54666 0.93044 0.0
H380 H 0.72755 0.51931 0.90376 0.0
H381 H 0.83575 0.59249 0.91497 0.0
H382 H 0.69932 0.57588 0.97851 0.0
H383 H 0.60929 0.57617 0.99496 0.0
H384 H 0.5866 0.6686 0.98691 0.0
H385 H 0.67635 0.66883 0.97008 0.0
C386 C 0.94344 0.66049 0.00263 0.0
C387 C 0.93233 0.69064 0.00537 0.0
C388 C 0.9095 0.6441 0.99103 0.0
C389 C 0.86417 0.65758 0.9815 0.0
C390 C 0.85172 0.68757 0.98536 0.0
C391 C 0.88562 0.70403 0.99731 0.0
C392 C 0.83138 0.64033 0.96647 0.0
C393 C 0.7799 0.63993 0.97508 0.0
C394 C 0.85166 0.62317 0.94439 0.0
C395 C 0.90458 0.62459 0.93301 0.0
C396 C 0.92115 0.65127 0.92527 0.0
C397 C 0.97134 0.65259 0.91511 0.0
C398 C 0.00525 0.62733 0.9124 0.0
C399 C 0.98896 0.60069 0.91975 0.0
C400 C 0.93882 0.59926 0.92994 0.0
C401 C 0.66464 0.58686 0.8977 0.0
C402 C 0.6759 0.55678 0.89406 0.0
C403 C 0.69463 0.60232 0.91303 0.0
C404 C 0.73658 0.58806 0.92507 0.0
C405 C 0.74829 0.55803 0.9214 0.0
C406 C 0.71793 0.54245 0.90618 0.0
C407 C 0.76896 0.60488 0.94071 0.0
C408 C 0.82044 0.60527 0.93213 0.0
C409 C 0.74838 0.62239 0.9625 0.0
C410 C 0.69448 0.62233 0.97283 0.0
C411 C 0.67504 0.59624 0.98007 0.0
C412 C 0.62408 0.59632 0.9895 0.0
C413 C 0.59222 0.62238 0.99192 0.0
C414 C 0.61131 0.64843 0.985 0.0
C415 C 0.66225 0.64847 0.97555 0.0
H416 H 0.55276 0.62239 0.99921 0.0
H417 H 0.04411 0.6284 0.90457 0.0
H418 H 0.98253 0.30515 0.01748 0.0
H419 H 0.91249 0.33442 0.99723 0.0
H420 H 0.0207 0.36756 0.94107 0.0
H421 H 0.0905 0.33809 0.96078 0.0
H422 H 0.95431 0.41099 0.9636 0.0
H423 H 0.94702 0.32034 0.92085 0.0
H424 H 0.94226 0.26782 0.91681 0.0
H425 H 0.79714 0.27673 0.96096 0.0
H426 H 0.80138 0.32929 0.96561 0.0
H427 H 0.7692 0.46768 0.87162 0.0
H428 H 0.84246 0.44559 0.89494 0.0
H429 H 0.73895 0.41348 0.95424 0.0
H430 H 0.66619 0.43542 0.93094 0.0
H431 H 0.80472 0.37042 0.92931 0.0
H432 H 0.81359 0.4626 0.97099 0.0
H433 H 0.81834 0.51531 0.97147 0.0
H434 H 0.96155 0.50345 0.92568 0.0
H435 H 0.95733 0.45061 0.9246 0.0
C436 C 0.99124 0.31835 0.00059 0.0
C437 C 0.04205 0.31957 0.99094 0.0
C438 C 0.95129 0.33513 0.9891 0.0
C439 C 0.96153 0.35328 0.96775 0.0
C440 C 0.01206 0.35398 0.95772 0.0
C441 C 0.05186 0.33716 0.96907 0.0
C442 C 0.9197 0.37199 0.95616 0.0
C443 C 0.92182 0.40211 0.95584 0.0
C444 C 0.87721 0.3604 0.94626 0.0
C445 C 0.87485 0.32872 0.94388 0.0
C446 C 0.91437 0.31107 0.92997 0.0
C447 C 0.9117 0.28129 0.9275 0.0
C448 C 0.86951 0.26893 0.9387 0.0
C449 C 0.82986 0.28633 0.95235 0.0
C450 C 0.83236 0.31612 0.9549 0.0
C451 C 0.76246 0.45703 0.89028 0.0
C452 C 0.71255 0.45352 0.89987 0.0
C453 C 0.80411 0.44426 0.90346 0.0
C454 C 0.79597 0.42775 0.92621 0.0
C455 C 0.74595 0.42606 0.9367 0.0
C456 C 0.70453 0.43884 0.9236 0.0
C457 C 0.83877 0.40941 0.93728 0.0
C458 C 0.83704 0.3793 0.93725 0.0
C459 C 0.88175 0.421 0.94656 0.0
C460 C 0.88489 0.45268 0.94751 0.0
C461 C 0.84593 0.47124 0.96086 0.0
C462 C 0.84855 0.50112 0.96127 0.0
C463 C 0.89012 0.5127 0.94855 0.0
C464 C 0.92933 0.49442 0.93549 0.0
C465 C 0.92687 0.46449 0.935 0.0
H466 H 0.89191 0.53583 0.94891 0.0
H467 H 0.86748 0.24588 0.93673 0.0
H468 H 0.1465 0.69612 0.03931 0.0
H469 H 0.22454 0.66973 0.01875 0.0
H470 H 0.17074 0.68958 0.94175 0.0
H471 H 0.09363 0.71674 0.96206 0.0
H472 H 0.18793 0.62915 0.95389 0.0
H473 H 0.2708 0.71535 0.9539 0.0
H474 H 0.30166 0.75882 0.9725 0.0
H475 H 0.39382 0.70563 0.02424 0.0
H476 H 0.36289 0.6618 0.0062 0.0
H477 H 0.39662 0.57264 0.86637 0.0
H478 H 0.32329 0.59799 0.89172 0.0
H479 H 0.40199 0.5834 0.96328 0.0
H480 H 0.47568 0.55821 0.93767 0.0
H481 H 0.37248 0.63992 0.95677 0.0
H482 H 0.29287 0.5526 0.95199 0.0
H483 H 0.26268 0.51069 0.93062 0.0
H484 H 0.16206 0.56748 0.88575 0.0
H485 H 0.19309 0.60988 0.9062 0.0
C486 C 0.15232 0.69595 0.01802 0.0
C487 C 0.11363 0.70818 0.00229 0.0
C488 C 0.19675 0.68068 0.0063 0.0
C489 C 0.20291 0.67739 0.97877 0.0
C490 C 0.16642 0.69168 0.96304 0.0
C491 C 0.12246 0.7072 0.97468 0.0
C492 C 0.24343 0.65608 0.96652 0.0
C493 C 0.22834 0.6316 0.95423 0.0
C494 C 0.29595 0.65902 0.9677 0.0
C495 C 0.31393 0.68531 0.97897 0.0
C496 C 0.2971 0.71293 0.9695 0.0
C497 C 0.31475 0.73763 0.97987 0.0
C498 C 0.34952 0.735 0.99962 0.0
C499 C 0.36677 0.70764 0.00899 0.0
C500 C 0.34921 0.68285 0.99869 0.0
C501 C 0.39703 0.57354 0.88767 0.0
C502 C 0.44103 0.56288 0.90022 0.0
C503 C 0.35535 0.58828 0.90215 0.0
C504 C 0.35709 0.5927 0.92945 0.0
C505 C 0.39977 0.58027 0.94226 0.0
C506 C 0.44146 0.56545 0.92773 0.0
C507 C 0.31709 0.61287 0.94386 0.0
C508 C 0.33216 0.6372 0.95662 0.0
C509 C 0.26437 0.60996 0.94287 0.0
C510 C 0.24572 0.58446 0.93048 0.0
C511 C 0.26473 0.5562 0.93735 0.0
C512 C 0.24736 0.53232 0.9254 0.0
C513 C 0.21036 0.53639 0.90682 0.0
C514 C 0.19075 0.56436 0.90012 0.0
C515 C 0.20832 0.58833 0.91185 0.0
H516 H 0.19674 0.51795 0.8976 0.0
H517 H 0.36321 0.75415 0.00759 0.0
H518 H 0.758 0.78535 0.49489 0.0
H519 H 0.8228 0.8169 0.47964 0.0
H520 H 0.75029 0.88519 0.53106 0.0
H521 H 0.68622 0.85371 0.54661 0.0
H522 H 0.76656 0.88261 0.46139 0.0
H523 H 0.83786 0.88227 0.55155 0.0
H524 H 0.87783 0.8541 0.58744 0.0
H525 H 0.99453 0.81443 0.53211 0.0
H526 H 0.95482 0.84215 0.49589 0.0
H527 H 0.91208 0.98941 0.40512 0.0
H528 H 0.85651 0.96687 0.43799 0.0
H529 H 0.97919 0.89947 0.44965 0.0
H530 H 0.03448 0.92281 0.41882 0.0
H531 H 0.93299 0.9048 0.49201 0.0
H532 H 0.87908 0.89766 0.40414 0.0
H533 H 0.84715 0.91481 0.36169 0.0
H534 H 0.70815 0.9536 0.40167 0.0
H535 H 0.73934 0.93676 0.44435 0.0
C536 C 0.75756 0.80656 0.50387 0.0
C537 C 0.71743 0.81715 0.52197 0.0
C538 C 0.79417 0.82462 0.49499 0.0
C539 C 0.79105 0.8533 0.50427 0.0
C540 C 0.75347 0.86305 0.52389 0.0
C541 C 0.71713 0.84503 0.53282 0.0
C542 C 0.82153 0.87435 0.49073 0.0
C543 C 0.80269 0.88792 0.46816 0.0
C544 C 0.8692 0.88024 0.49917 0.0
C545 C 0.89316 0.86406 0.52106 0.0
C546 C 0.87177 0.86736 0.54704 0.0
C547 C 0.89445 0.85153 0.56744 0.0
C548 C 0.93862 0.83244 0.56205 0.0
C549 C 0.96031 0.8292 0.53626 0.0
C550 C 0.93778 0.84499 0.51582 0.0
C551 C 0.92737 0.97054 0.41561 0.0
C552 C 0.97731 0.95776 0.40938 0.0
C553 C 0.89552 0.95735 0.43412 0.0
C554 C 0.91311 0.931 0.44608 0.0
C555 C 0.96421 0.91967 0.44097 0.0
C556 C 0.99585 0.93297 0.42307 0.0
C557 C 0.87856 0.91343 0.46208 0.0
C558 C 0.89648 0.90024 0.48522 0.0
C559 C 0.83117 0.90668 0.45324 0.0
C560 C 0.81218 0.91667 0.42755 0.0
C561 C 0.84194 0.91012 0.40391 0.0
C562 C 0.82389 0.91969 0.37979 0.0
C563 C 0.77582 0.93548 0.379 0.0
C564 C 0.74554 0.94154 0.40232 0.0
C565 C 0.76341 0.93202 0.42649 0.0
H566 H 0.76191 0.94287 0.3603 0.0
H567 H 0.95608 0.82019 0.57786 0.0
H568 H 0.401 0.17729 0.53711 0.0
H569 H 0.34163 0.14805 0.51703 0.0
H570 H 0.35251 0.19762 0.44564 0.0
H571 H 0.41372 0.22635 0.46535 0.0
H572 H 0.24227 0.17024 0.47691 0.0
H573 H 0.41444 0.15523 0.42669 0.0
H574 H 0.50845 0.14809 0.42745 0.0
H575 H 0.49783 0.07626 0.47987 0.0
H576 H 0.40362 0.08352 0.47991 0.0
H577 H 0.16858 0.09186 0.37122 0.0
H578 H 0.21511 0.12243 0.39789 0.0
H579 H 0.26326 0.04903 0.44566 0.0
H580 H 0.21503 0.01822 0.41933 0.0
H581 H 0.34205 0.08583 0.43099 0.0
H582 H 0.17444 0.09167 0.47158 0.0
H583 H 0.08031 0.09681 0.47293 0.0
H584 H 0.07966 0.18316 0.44285 0.0
H585 H 0.17393 0.17836 0.44083 0.0
C586 C 0.38921 0.18266 0.51749 0.0
C587 C 0.4116 0.20407 0.50272 0.0
C588 C 0.35555 0.16588 0.50605 0.0
C589 C 0.34325 0.17065 0.47989 0.0
C590 C 0.36185 0.19372 0.46589 0.0
C591 C 0.3965 0.21012 0.47712 0.0
C592 C 0.31731 0.14902 0.46615 0.0
C593 C 0.26387 0.15196 0.46659 0.0
C594 C 0.34572 0.12462 0.45375 0.0
C595 C 0.40216 0.12017 0.4536 0.0
C596 C 0.43218 0.13816 0.43863 0.0
C597 C 0.48546 0.13405 0.43887 0.0
C598 C 0.50908 0.11175 0.45372 0.0
C599 C 0.47947 0.09356 0.46841 0.0
C600 C 0.42616 0.09769 0.46835 0.0
C601 C 0.18941 0.0821 0.38726 0.0
C602 C 0.18868 0.05257 0.39305 0.0
C603 C 0.21588 0.09962 0.40248 0.0
C604 C 0.24211 0.088 0.42382 0.0
C605 C 0.24323 0.05829 0.42916 0.0
C606 C 0.21623 0.04067 0.41397 0.0
C607 C 0.26681 0.10752 0.44077 0.0
C608 C 0.32016 0.10406 0.44125 0.0
C609 C 0.23812 0.13127 0.45421 0.0
C610 C 0.18134 0.13456 0.45585 0.0
C611 C 0.15428 0.11169 0.46506 0.0
C612 C 0.10088 0.11454 0.46597 0.0
C613 C 0.07403 0.14027 0.45793 0.0
C614 C 0.10053 0.16323 0.44905 0.0
C615 C 0.15396 0.16047 0.44804 0.0
H616 H 0.03268 0.14243 0.45862 0.0
H617 H 0.55033 0.1085 0.4538 0.0
H618 H 0.54982 0.86391 0.5179 0.0
H619 H 0.48541 0.89165 0.49348 0.0
H620 H 0.43968 0.81247 0.46247 0.0
H621 H 0.50809 0.7846 0.48458 0.0
H622 H 0.44415 0.84827 0.42492 0.0
H623 H 0.36759 0.85769 0.51384 0.0
H624 H 0.36736 0.86921 0.56128 0.0
H625 H 0.3926 0.95696 0.54298 0.0
H626 H 0.39348 0.94587 0.4954 0.0
H627 H 0.2023 0.89608 0.3842 0.0
H628 H 0.27246 0.87551 0.40939 0.0
H629 H 0.32334 0.96007 0.41759 0.0
H630 H 0.25283 0.98101 0.39158 0.0
H631 H 0.3205 0.92635 0.46563 0.0
H632 H 0.38953 0.91646 0.37608 0.0
H633 H 0.3868 0.90385 0.32905 0.0
H634 H 0.37235 0.81529 0.34942 0.0
H635 H 0.37429 0.82746 0.39662 0.0
C636 C 0.52652 0.85227 0.5057 0.0
C637 C 0.5349 0.82189 0.50305 0.0
C638 C 0.48888 0.86825 0.49206 0.0
C639 C 0.45698 0.85424 0.47634 0.0
C640 C 0.4638 0.82385 0.47445 0.0
C641 C 0.50252 0.80785 0.4875 0.0
C642 C 0.41797 0.87127 0.46101 0.0
C643 C 0.4168 0.86507 0.43399 0.0
C644 C 0.38321 0.89396 0.47249 0.0
C645 C 0.38092 0.9009 0.50108 0.0
C646 C 0.37317 0.87942 0.51995 0.0
C647 C 0.37296 0.88587 0.54685 0.0
C648 C 0.38006 0.91379 0.55514 0.0
C649 C 0.38711 0.93535 0.53653 0.0
C650 C 0.38736 0.92901 0.5096 0.0
C651 C 0.22851 0.91043 0.3911 0.0
C652 C 0.22179 0.94032 0.38599 0.0
C653 C 0.26853 0.89858 0.40562 0.0
C654 C 0.30317 0.91622 0.41524 0.0
C655 C 0.29673 0.94614 0.41041 0.0
C656 C 0.25641 0.95809 0.3957 0.0
C657 C 0.34626 0.90275 0.42992 0.0
C658 C 0.34824 0.90965 0.45669 0.0
C659 C 0.38149 0.8805 0.41833 0.0
C660 C 0.38184 0.87291 0.3899 0.0
C661 C 0.38559 0.89432 0.37054 0.0
C662 C 0.38417 0.88725 0.34385 0.0
C663 C 0.37934 0.85879 0.33626 0.0
C664 C 0.37612 0.83732 0.35533 0.0
C665 C 0.37748 0.84428 0.38206 0.0
H666 H 0.37815 0.85337 0.31559 0.0
H667 H 0.38004 0.91871 0.57597 0.0
H668 H 0.65213 0.21789 0.51464 0.0
H669 H 0.72874 0.18783 0.49737 0.0
H670 H 0.63471 0.13129 0.45998 0.0
H671 H 0.55909 0.1586 0.47966 0.0
H672 H 0.70225 0.09935 0.47873 0.0
H673 H 0.70825 0.18476 0.42643 0.0
H674 H 0.70978 0.23681 0.41728 0.0
H675 H 0.84847 0.23688 0.4573 0.0
H676 H 0.84743 0.1849 0.46699 0.0
H677 H 0.89989 0.03853 0.38136 0.0
H678 H 0.82275 0.06214 0.40555 0.0
H679 H 0.91665 0.09688 0.46171 0.0
H680 H 0.99323 0.07281 0.43802 0.0
H681 H 0.85192 0.1391 0.43435 0.0
H682 H 0.84269 0.05059 0.4838 0.0
H683 H 0.83862 0.99806 0.48877 0.0
H684 H 0.70173 0.00408 0.44665 0.0
H685 H 0.7052 0.05668 0.44122 0.0
C686 C 0.64766 0.19892 0.50296 0.0
C687 C 0.59871 0.19126 0.49835 0.0
C688 C 0.69172 0.18192 0.49269 0.0
C689 C 0.68787 0.15737 0.47691 0.0
C690 C 0.63914 0.15002 0.47203 0.0
C691 C 0.59544 0.16631 0.48292 0.0
C692 C 0.73396 0.13846 0.46618 0.0
C693 C 0.73452 0.10822 0.4687 0.0
C694 C 0.77682 0.1497 0.45338 0.0
C695 C 0.77742 0.181 0.4477 0.0
C696 C 0.73885 0.19593 0.43347 0.0
C697 C 0.73967 0.22541 0.42815 0.0
C698 C 0.77911 0.24016 0.43678 0.0
C699 C 0.81788 0.22544 0.45068 0.0
C700 C 0.81722 0.19597 0.45608 0.0
C701 C 0.90363 0.04985 0.39969 0.0
C702 C 0.95218 0.05324 0.4083 0.0
C703 C 0.85974 0.06368 0.41327 0.0
C704 C 0.86416 0.08145 0.43528 0.0
C705 C 0.91246 0.0833 0.44478 0.0
C706 C 0.95605 0.06921 0.43147 0.0
C707 C 0.8194 0.10041 0.44679 0.0
C708 C 0.81931 0.13054 0.44437 0.0
C709 C 0.77635 0.08911 0.45892 0.0
C710 C 0.77437 0.05752 0.462 0.0
C711 C 0.81192 0.04068 0.47544 0.0
C712 C 0.80962 0.01094 0.47842 0.0
C713 C 0.76983 0.9978 0.46814 0.0
C714 C 0.7324 0.01434 0.4547 0.0
C715 C 0.73446 0.04412 0.4517 0.0
H716 H 0.76809 0.97482 0.47066 0.0
H717 H 0.77969 0.26298 0.43263 0.0
loop_
_geom_bond_atom_site_label_1
_geom_bond_atom_site_label_2
_geom_bond_distance
_geom_bond_site_symmetry_2
_ccdc_geom_bond_type
H0 C1 0.949 . S
C1 H0 0.949 . S
C1 C2 1.395 . S
C1 C3 1.391 . S
C2 C1 1.395 . S
C2 C5 1.390 1_554 S
C3 C1 1.391 . S
C3 C7 1.387 . S
C3 C8 1.491 . S
H4 C5 0.950 . S
C5 C2 1.390 1_556 S
C5 H4 0.950 . S
C5 C6 1.378 . S
C6 C5 1.378 . S
C6 C7 1.409 1_556 S
C7 C3 1.387 . S
C7 C6 1.409 1_554 S
C7 H9 0.951 . S
C8 C3 1.491 . S
C8 C10 1.382 . S
C8 C12 1.404 . S
H9 C7 0.951 . S
C10 C8 1.382 . S
C10 C11 1.390 . S
C10 H15 0.949 . S
C11 C10 1.390 . S
C11 C16 1.399 . S
C12 C8 1.404 . S
C12 H13 0.950 . S
C12 C14 1.375 . S
H13 C12 0.950 . S
C14 C12 1.375 . S
C14 C16 1.382 . S
C14 H18 0.950 . S
H15 C10 0.949 . S
C16 C11 1.399 . S
C16 C14 1.382 . S
C16 H17 0.952 . S
H17 C16 0.952 . S
H18 C14 0.950 . S
H19 C20 0.949 . S
C20 H19 0.949 . S
C20 C21 1.395 . S
C20 C22 1.391 1_455 S
C21 C20 1.395 . S
C21 C24 1.390 1_554 S
C22 C20 1.391 1_655 S
C22 C26 1.387 . S
C22 C27 1.491 . S
H23 C24 0.950 . S
C24 C21 1.390 1_556 S
C24 H23 0.950 . S
C24 C25 1.378 1_456 S
C25 C24 1.378 1_654 S
C25 C26 1.409 . S
C26 C22 1.387 . S
C26 C25 1.409 . S
C26 H28 0.951 . S
C27 C22 1.491 . S
C27 C29 1.382 . S
C27 C31 1.404 . S
H28 C26 0.951 . S
C29 C27 1.382 . S
C29 C30 1.390 . S
C29 H34 0.949 1_655 S
C30 C29 1.390 . S
C30 C35 1.399 . S
C31 C27 1.404 . S
C31 H32 0.950 . S
C31 C33 1.375 . S
H32 C31 0.950 . S
C33 C31 1.375 . S
C33 C35 1.382 . S
C33 H37 0.950 . S
H34 C29 0.949 1_455 S
C35 C30 1.399 . S
C35 C33 1.382 . S
C35 H36 0.952 . S
H36 C35 0.952 . S
H37 C33 0.950 . S
H38 C39 0.949 . S
C39 H38 0.949 . S
C39 C40 1.395 . S
C39 C41 1.391 . S
C40 C39 1.395 . S
C40 C43 1.390 . S
C41 C39 1.391 . S
C41 C45 1.387 . S
C41 C46 1.491 . S
H42 C43 0.950 . S
C43 C40 1.390 . S
C43 H42 0.950 . S
C43 C44 1.378 . S
C44 C43 1.378 . S
C44 C45 1.409 . S
C45 C41 1.387 . S
C45 C44 1.409 . S
C45 H47 0.951 . S
C46 C41 1.491 . S
C46 C48 1.382 . S
C46 C50 1.404 . S
H47 C45 0.951 . S
C48 C46 1.382 . S
C48 C49 1.390 . S
C48 H53 0.949 . S
C49 C48 1.390 . S
C49 C54 1.399 . S
C50 C46 1.404 . S
C50 H51 0.950 . S
C50 C52 1.375 . S
H51 C50 0.950 . S
C52 C50 1.375 . S
C52 C54 1.382 . S
C52 H56 0.950 . S
H53 C48 0.949 . S
C54 C49 1.399 . S
C54 C52 1.382 . S
C54 H55 0.952 . S
H55 C54 0.952 . S
H56 C52 0.950 . S
H57 C58 0.949 . S
C58 H57 0.949 . S
C58 C59 1.395 . S
C58 C60 1.391 . S
C59 C58 1.395 . S
C59 C62 1.390 . S
C60 C58 1.391 . S
C60 C64 1.387 . S
C60 C65 1.491 . S
H61 C62 0.950 . S
C62 C59 1.390 . S
C62 H61 0.950 . S
C62 C63 1.378 . S
C63 C62 1.378 . S
C63 C64 1.409 . S
C64 C60 1.387 . S
C64 C63 1.409 . S
C64 H66 0.951 . S
C65 C60 1.491 . S
C65 C67 1.382 . S
C65 C69 1.404 . S
H66 C64 0.951 . S
C67 C65 1.382 . S
C67 C68 1.390 . S
C67 H72 0.949 . S
C68 C67 1.390 . S
C68 C73 1.399 . S
C69 C65 1.404 . S
C69 H70 0.950 . S
C69 C71 1.375 . S
H70 C69 0.950 . S
C71 C69 1.375 . S
C71 C73 1.382 . S
C71 H75 0.950 . S
H72 C67 0.949 . S
C73 C68 1.399 . S
C73 C71 1.382 . S
C73 H74 0.952 . S
H74 C73 0.952 . S
H75 C71 0.950 . S
Zn76 O82 1.920 . S
Zn76 O88 1.898 . S
Zn76 O91 1.905 . S
Zn77 O85 1.905 . S
Zn77 O86 1.898 . S
Zn77 O94 1.920 . S
Zn78 O81 2.080 . S
Zn78 O84 2.114 1_545 S
Zn78 O87 2.120 1_545 S
Zn78 O89 2.120 . S
Zn78 O90 2.114 . S
Zn78 O93 2.080 1_545 S
C79 O84 1.166 . S
C79 O85 1.182 . S
C80 O86 1.167 . S
C80 O87 1.299 . S
O81 Zn78 2.080 . S
O81 C95 1.305 . S
O82 Zn76 1.920 . S
O82 C95 1.234 . S
C83 O88 1.167 . S
C83 O89 1.299 . S
O84 Zn78 2.114 1_565 S
O84 C79 1.166 . S
O85 Zn77 1.905 . S
O85 C79 1.182 . S
O86 Zn77 1.898 . S
O86 C80 1.167 . S
O87 Zn78 2.120 1_565 S
O87 C80 1.299 . S
O88 Zn76 1.898 . S
O88 C83 1.167 . S
O89 Zn78 2.120 . S
O89 C83 1.299 . S
O90 Zn78 2.114 . S
O90 C92 1.166 1_455 S
O91 Zn76 1.905 . S
O91 C92 1.182 1_455 S
C92 O90 1.166 1_655 S
C92 O91 1.182 1_655 S
O93 Zn78 2.080 1_565 S
O93 C96 1.305 . S
O94 Zn77 1.920 . S
O94 C96 1.234 . S
C95 O81 1.305 . S
C95 O82 1.234 . S
C96 O93 1.305 . S
C96 O94 1.234 . S
Zn97 O103 1.920 . S
Zn97 O109 1.898 . S
Zn97 O112 1.905 . S
Zn98 O106 1.905 . S
Zn98 O107 1.898 . S
Zn98 O115 1.920 . S
Zn99 O102 2.080 . S
Zn99 O105 2.114 . S
Zn99 O108 2.120 . S
Zn99 O110 2.120 . S
Zn99 O111 2.114 . S
Zn99 O114 2.080 . S
C100 O105 1.166 . S
C100 O106 1.182 . S
C101 O107 1.167 . S
C101 O108 1.299 . S
O102 Zn99 2.080 . S
O102 C116 1.305 . S
O103 Zn97 1.920 . S
O103 C116 1.234 . S
C104 O109 1.167 . S
C104 O110 1.299 . S
O105 Zn99 2.114 . S
O105 C100 1.166 . S
O106 Zn98 1.905 . S
O106 C100 1.182 . S
O107 Zn98 1.898 . S
O107 C101 1.167 . S
O108 Zn99 2.120 . S
O108 C101 1.299 . S
O109 Zn97 1.898 . S
O109 C104 1.167 . S
O110 Zn99 2.120 . S
O110 C104 1.299 . S
O111 Zn99 2.114 . S
O111 C113 1.166 . S
O112 Zn97 1.905 . S
O112 C113 1.182 . S
C113 O111 1.166 . S
C113 O112 1.182 . S
O114 Zn99 2.080 . S
O114 C117 1.305 . S
O115 Zn98 1.920 . S
O115 C117 1.234 . S
C116 O102 1.305 . S
C116 O103 1.234 . S
C117 O114 1.305 . S
C117 O115 1.234 . S
H118 C136 0.951 . S
H119 C138 0.951 . S
H120 C140 0.950 . S
H121 C141 0.950 . S
H122 C143 0.950 . S
H123 C146 0.950 . S
H124 C147 0.950 . S
H125 C149 0.959 . S
H126 C150 0.950 . S
H127 C151 0.951 . S
H128 C153 0.951 . S
H129 C155 0.950 . S
H130 C156 0.950 . S
H131 C158 0.950 . S
H132 C161 0.950 . S
H133 C162 0.930 1_565 S
H134 C164 0.950 . S
H135 C165 0.950 . S
C136 H118 0.951 . S
C136 C137 1.366 . S
C136 C138 1.388 . S
C137 C136 1.366 . S
C137 C141 1.385 . S
C138 H119 0.951 . S
C138 C136 1.388 . S
C138 C139 1.366 . S
C139 C138 1.366 . S
C139 C140 1.414 . S
C139 C142 1.499 . S
C140 H120 0.950 . S
C140 C139 1.414 . S
C140 C141 1.374 . S
C141 H121 0.950 . S
C141 C137 1.385 . S
C141 C140 1.374 . S
C142 C139 1.499 . S
C142 C143 1.373 . S
C142 C144 1.389 . S
C143 H122 0.950 . S
C143 C142 1.373 . S
C143 C159 1.377 . S
C144 C142 1.389 . S
C144 C145 1.524 . S
C144 C158 1.377 . S
C145 C144 1.524 . S
C145 C146 1.397 . S
C145 C150 1.363 . S
C146 H123 0.950 . S
C146 C145 1.397 . S
C146 C147 1.334 . S
C147 H124 0.950 . S
C147 C146 1.334 . S
C147 C148 1.287 . S
C148 C147 1.287 . S
C148 C149 1.524 . S
C148 H167 0.913 . S
C149 H125 0.959 . S
C149 C148 1.524 . S
C149 C150 1.415 . S
C150 H126 0.950 . S
C150 C145 1.363 . S
C150 C149 1.415 . S
C151 H127 0.951 . S
C151 C152 1.366 . S
C151 C153 1.388 . S
C152 C151 1.366 . S
C152 C156 1.385 . S
C153 H128 0.951 . S
C153 C151 1.388 . S
C153 C154 1.366 . S
C154 C153 1.366 . S
C154 C155 1.414 . S
C154 C157 1.499 . S
C155 H129 0.950 . S
C155 C154 1.414 . S
C155 C156 1.374 . S
C156 H130 0.950 . S
C156 C152 1.385 . S
C156 C155 1.374 . S
C157 C154 1.499 . S
C157 C158 1.373 . S
C157 C159 1.389 . S
C158 H131 0.950 . S
C158 C144 1.377 . S
C158 C157 1.373 . S
C159 C143 1.377 . S
C159 C157 1.389 . S
C159 C160 1.524 . S
C160 C159 1.524 . S
C160 C161 1.397 . S
C160 C165 1.363 . S
C161 H132 0.950 . S
C161 C160 1.397 . S
C161 C162 1.334 . S
C162 H133 0.930 1_545 S
C162 C161 1.334 . S
C162 C163 1.287 . S
C163 C162 1.287 . S
C163 C164 1.524 . S
C163 H166 0.999 1_545 S
C164 H134 0.950 . S
C164 C163 1.524 . S
C164 C165 1.415 . S
C165 H135 0.950 . S
C165 C160 1.363 . S
C165 C164 1.415 . S
H166 C163 0.999 1_565 S
H167 C148 0.913 . S
H168 C186 0.951 . S
H169 C188 0.951 . S
H170 C190 0.950 . S
H171 C191 0.950 . S
H172 C193 0.950 . S
H173 C196 0.950 . S
H174 C197 0.950 . S
H175 C199 0.950 . S
H176 C200 0.950 . S
H177 C201 0.954 . S
H178 C203 0.951 1_655 S
H179 C205 0.950 . S
H180 C206 0.950 . S
H181 C208 0.950 . S
H182 C211 0.950 . S
H183 C212 0.950 . S
H184 C214 0.950 1_545 S
H185 C215 0.950 1_655 S
C186 H168 0.951 . S
C186 C187 1.366 . S
C186 C188 1.388 . S
C187 C186 1.366 . S
C187 C191 1.385 1_455 S
C188 H169 0.951 . S
C188 C186 1.388 . S
C188 C189 1.366 . S
C189 C188 1.366 . S
C189 C190 1.414 1_455 S
C189 C192 1.499 . S
C190 H170 0.950 . S
C190 C189 1.414 1_655 S
C190 C191 1.374 . S
C191 H171 0.950 . S
C191 C187 1.385 1_655 S
C191 C190 1.374 . S
C192 C189 1.499 . S
C192 C193 1.373 . S
C192 C194 1.389 . S
C193 H172 0.950 . S
C193 C192 1.373 . S
C193 C209 1.377 . S
C194 C192 1.389 . S
C194 C195 1.524 . S
C194 C208 1.377 . S
C195 C194 1.524 . S
C195 C196 1.397 1_455 S
C195 C200 1.363 . S
C196 H173 0.950 . S
C196 C195 1.397 1_655 S
C196 C197 1.334 . S
C197 H174 0.950 . S
C197 C196 1.334 . S
C197 C198 1.287 . S
C198 C197 1.287 . S
C198 C199 1.524 1_655 S
C198 H217 0.913 . S
C199 H175 0.950 . S
C199 C198 1.524 1_455 S
C199 C200 1.415 . S
C200 H176 0.950 . S
C200 C195 1.363 . S
C200 C199 1.415 . S
C201 H177 0.954 . S
C201 C202 1.366 . S
C201 C203 1.388 . S
C202 C201 1.366 . S
C202 C206 1.385 . S
C203 H178 0.951 1_455 S
C203 C201 1.388 . S
C203 C204 1.366 . S
C204 C203 1.366 . S
C204 C205 1.414 . S
C204 C207 1.499 . S
C205 H179 0.950 . S
C205 C204 1.414 . S
C205 C206 1.374 . S
C206 H180 0.950 . S
C206 C202 1.385 . S
C206 C205 1.374 . S
C207 C204 1.499 . S
C207 C208 1.373 . S
C207 C209 1.389 . S
C208 H181 0.950 . S
C208 C194 1.377 . S
C208 C207 1.373 . S
C209 C193 1.377 . S
C209 C207 1.389 . S
C209 C210 1.524 . S
C210 C209 1.524 . S
C210 C211 1.397 . S
C210 C215 1.363 . S
C211 H182 0.950 . S
C211 C210 1.397 . S
C211 C212 1.334 . S
C212 H183 0.950 . S
C212 C211 1.334 . S
C212 C213 1.287 . S
C213 C212 1.287 . S
C213 C214 1.524 . S
C213 H216 0.999 1_565 S
C214 H184 0.950 1_565 S
C214 C213 1.524 . S
C214 C215 1.415 . S
C215 H185 0.950 1_455 S
C215 C210 1.363 . S
C215 C214 1.415 . S
H216 C213 0.999 1_545 S
H217 C198 0.913 . S
H218 C236 0.951 . S
H219 C238 0.951 . S
H220 C240 0.950 . S
H221 C241 0.950 . S
H222 C243 0.950 . S
H223 C246 0.950 . S
H224 C247 0.950 . S
H225 C249 0.950 . S
H226 C250 0.950 . S
H227 C251 0.951 . S
H228 C253 0.951 . S
H229 C255 0.950 . S
H230 C256 0.950 . S
H231 C258 0.950 . S
H232 C261 0.950 . S
H233 C262 0.950 . S
H234 C264 0.950 . S
H235 C265 0.950 . S
C236 H218 0.951 . S
C236 C237 1.366 . S
C236 C238 1.388 . S
C237 C236 1.366 . S
C237 C241 1.385 . S
C238 H219 0.951 . S
C238 C236 1.388 . S
C238 C239 1.366 . S
C239 C238 1.366 . S
C239 C240 1.414 . S
C239 C242 1.499 . S
C240 H220 0.950 . S
C240 C239 1.414 . S
C240 C241 1.374 . S
C241 H221 0.950 . S
C241 C237 1.385 . S
C241 C240 1.374 . S
C242 C239 1.499 . S
C242 C243 1.373 . S
C242 C244 1.389 . S
C243 H222 0.950 . S
C243 C242 1.373 . S
C243 C259 1.377 . S
C244 C242 1.389 . S
C244 C245 1.524 . S
C244 C258 1.377 . S
C245 C244 1.524 . S
C245 C246 1.397 . S
C245 C250 1.363 . S
C246 H223 0.950 . S
C246 C245 1.397 . S
C246 C247 1.334 . S
C247 H224 0.950 . S
C247 C246 1.334 . S
C247 C248 1.287 . S
C248 C247 1.287 . S
C248 C249 1.524 . S
C248 H267 0.913 . S
C249 H225 0.950 . S
C249 C248 1.524 . S
C249 C250 1.415 . S
C250 H226 0.950 . S
C250 C245 1.363 . S
C250 C249 1.415 . S
C251 H227 0.951 . S
C251 C252 1.366 . S
C251 C253 1.388 . S
C252 C251 1.366 . S
C252 C256 1.385 . S
C253 H228 0.951 . S
C253 C251 1.388 . S
C253 C254 1.366 . S
C254 C253 1.366 . S
C254 C255 1.414 . S
C254 C257 1.499 . S
C255 H229 0.950 . S
C255 C254 1.414 . S
C255 C256 1.374 . S
C256 H230 0.950 . S
C256 C252 1.385 . S
C256 C255 1.374 . S
C257 C254 1.499 . S
C257 C258 1.373 . S
C257 C259 1.389 . S
C258 H231 0.950 . S
C258 C244 1.377 . S
C258 C257 1.373 . S
C259 C243 1.377 . S
C259 C257 1.389 . S
C259 C260 1.524 . S
C260 C259 1.524 . S
C260 C261 1.397 . S
C260 C265 1.363 . S
C261 H232 0.950 . S
C261 C260 1.397 . S
C261 C262 1.334 . S
C262 H233 0.950 . S
C262 C261 1.334 . S
C262 C263 1.287 . S
C263 C262 1.287 . S
C263 C264 1.524 . S
C263 H266 0.999 . S
C264 H234 0.950 . S
C264 C263 1.524 . S
C264 C265 1.415 . S
C265 H235 0.950 . S
C265 C260 1.363 . S
C265 C264 1.415 . S
H266 C263 0.999 . S
H267 C248 0.913 . S
H268 C286 0.951 . S
H269 C288 0.951 . S
H270 C290 0.950 . S
H271 C291 0.950 . S
H272 C293 0.950 . S
H273 C296 0.950 . S
H274 C297 0.950 . S
H275 C299 0.950 . S
H276 C300 0.950 . S
H277 C301 0.951 . S
H278 C303 0.951 . S
H279 C305 0.950 . S
H280 C306 0.950 . S
H281 C308 0.950 . S
H282 C311 0.950 . S
H283 C312 0.950 . S
H284 C314 0.950 . S
H285 C315 0.950 . S
C286 H268 0.951 . S
C286 C287 1.366 . S
C286 C288 1.388 . S
C287 C286 1.366 . S
C287 C291 1.385 . S
C288 H269 0.951 . S
C288 C286 1.388 . S
C288 C289 1.366 . S
C289 C288 1.366 . S
C289 C290 1.414 . S
C289 C292 1.499 . S
C290 H270 0.950 . S
C290 C289 1.414 . S
C290 C291 1.374 . S
C291 H271 0.950 . S
C291 C287 1.385 . S
C291 C290 1.374 . S
C292 C289 1.499 . S
C292 C293 1.373 . S
C292 C294 1.389 . S
C293 H272 0.950 . S
C293 C292 1.373 . S
C293 C309 1.377 . S
C294 C292 1.389 . S
C294 C295 1.524 . S
C294 C308 1.377 . S
C295 C294 1.524 . S
C295 C296 1.397 . S
C295 C300 1.363 . S
C296 H273 0.950 . S
C296 C295 1.397 . S
C296 C297 1.334 . S
C297 H274 0.950 . S
C297 C296 1.334 . S
C297 C298 1.287 . S
C298 C297 1.287 . S
C298 C299 1.524 . S
C298 H317 0.913 . S
C299 H275 0.950 . S
C299 C298 1.524 . S
C299 C300 1.415 . S
C300 H276 0.950 . S
C300 C295 1.363 . S
C300 C299 1.415 . S
C301 H277 0.951 . S
C301 C302 1.366 . S
C301 C303 1.388 . S
C302 C301 1.366 . S
C302 C306 1.385 . S
C303 H278 0.951 . S
C303 C301 1.388 . S
C303 C304 1.366 . S
C304 C303 1.366 . S
C304 C305 1.414 . S
C304 C307 1.499 . S
C305 H279 0.950 . S
C305 C304 1.414 . S
C305 C306 1.374 . S
C306 H280 0.950 . S
C306 C302 1.385 . S
C306 C305 1.374 . S
C307 C304 1.499 . S
C307 C308 1.373 . S
C307 C309 1.389 . S
C308 H281 0.950 . S
C308 C294 1.377 . S
C308 C307 1.373 . S
C309 C293 1.377 . S
C309 C307 1.389 . S
C309 C310 1.524 . S
C310 C309 1.524 . S
C310 C311 1.397 . S
C310 C315 1.363 . S
C311 H282 0.950 . S
C311 C310 1.397 . S
C311 C312 1.334 . S
C312 H283 0.950 . S
C312 C311 1.334 . S
C312 C313 1.287 . S
C313 C312 1.287 . S
C313 C314 1.524 . S
C313 H316 0.999 . S
C314 H284 0.950 . S
C314 C313 1.524 . S
C314 C315 1.415 . S
C315 H285 0.950 . S
C315 C310 1.363 . S
C315 C314 1.415 . S
H316 C313 0.999 . S
H317 C298 0.913 . S
H318 C336 0.951 . S
H319 C338 0.951 . S
H320 C340 0.950 . S
H321 C341 0.950 . S
H322 C343 0.950 . S
H323 C346 0.950 . S
H324 C347 0.950 . S
H325 C349 0.950 . S
H326 C350 0.950 . S
H327 C351 0.951 . S
H328 C353 0.951 . S
H329 C355 0.950 . S
H330 C356 0.950 . S
H331 C358 0.950 . S
H332 C361 0.950 . S
H333 C362 0.950 . S
H334 C364 0.950 . S
H335 C365 0.950 . S
C336 H318 0.951 . S
C336 C337 1.366 . S
C336 C338 1.388 . S
C337 C336 1.366 . S
C337 C341 1.385 1_556 S
C338 H319 0.951 . S
C338 C336 1.388 . S
C338 C339 1.366 . S
C339 C338 1.366 . S
C339 C340 1.414 . S
C339 C342 1.499 . S
C340 H320 0.950 . S
C340 C339 1.414 . S
C340 C341 1.374 1_556 S
C341 H321 0.950 . S
C341 C337 1.385 1_554 S
C341 C340 1.374 1_554 S
C342 C339 1.499 . S
C342 C343 1.373 . S
C342 C344 1.389 . S
C343 H322 0.950 . S
C343 C342 1.373 . S
C343 C359 1.377 . S
C344 C342 1.389 . S
C344 C345 1.524 . S
C344 C358 1.377 . S
C345 C344 1.524 . S
C345 C346 1.397 1_556 S
C345 C350 1.363 . S
C346 H323 0.950 . S
C346 C345 1.397 1_554 S
C346 C347 1.334 . S
C347 H324 0.950 . S
C347 C346 1.334 . S
C347 C348 1.287 . S
C348 C347 1.287 . S
C348 C349 1.524 1_554 S
C348 H367 0.913 . S
C349 H325 0.950 . S
C349 C348 1.524 1_556 S
C349 C350 1.415 . S
C350 H326 0.950 . S
C350 C345 1.363 . S
C350 C349 1.415 . S
C351 H327 0.951 . S
C351 C352 1.366 . S
C351 C353 1.388 . S
C352 C351 1.366 . S
C352 C356 1.385 . S
C353 H328 0.951 . S
C353 C351 1.388 . S
C353 C354 1.366 . S
C354 C353 1.366 . S
C354 C355 1.414 . S
C354 C357 1.499 . S
C355 H329 0.950 . S
C355 C354 1.414 . S
C355 C356 1.374 . S
C356 H330 0.950 . S
C356 C352 1.385 . S
C356 C355 1.374 . S
C357 C354 1.499 . S
C357 C358 1.373 . S
C357 C359 1.389 . S
C358 H331 0.950 . S
C358 C344 1.377 . S
C358 C357 1.373 . S
C359 C343 1.377 . S
C359 C357 1.389 . S
C359 C360 1.524 . S
C360 C359 1.524 . S
C360 C361 1.397 . S
C360 C365 1.363 . S
C361 H332 0.950 . S
C361 C360 1.397 . S
C361 C362 1.334 . S
C362 H333 0.950 . S
C362 C361 1.334 . S
C362 C363 1.287 . S
C363 C362 1.287 . S
C363 C364 1.524 . S
C363 H366 0.999 . S
C364 H334 0.950 . S
C364 C363 1.524 . S
C364 C365 1.415 . S
C365 H335 0.950 . S
C365 C360 1.363 . S
C365 C364 1.415 . S
H366 C363 0.999 . S
H367 C348 0.913 . S
H368 C386 0.951 1_554 S
H369 C388 0.951 . S
H370 C390 0.950 . S
H371 C391 0.950 . S
H372 C393 0.950 . S
H373 C396 0.950 . S
H374 C397 0.950 . S
H375 C399 0.950 1_455 S
H376 C400 0.950 . S
H377 C401 0.951 . S
H378 C403 0.951 . S
H379 C405 0.950 . S
H380 C406 0.950 . S
H381 C408 0.950 . S
H382 C411 0.950 . S
H383 C412 0.949 . S
H384 C414 0.950 . S
H385 C415 0.950 . S
C386 H368 0.951 1_556 S
C386 C387 1.366 . S
C386 C388 1.388 . S
C387 C386 1.366 . S
C387 C391 1.385 . S
C388 H369 0.951 . S
C388 C386 1.388 . S
C388 C389 1.366 . S
C389 C388 1.366 . S
C389 C390 1.414 . S
C389 C392 1.499 . S
C390 H370 0.950 . S
C390 C389 1.414 . S
C390 C391 1.374 . S
C391 H371 0.950 . S
C391 C387 1.385 . S
C391 C390 1.374 . S
C392 C389 1.499 . S
C392 C393 1.373 . S
C392 C394 1.389 . S
C393 H372 0.950 . S
C393 C392 1.373 . S
C393 C409 1.377 . S
C394 C392 1.389 . S
C394 C395 1.524 . S
C394 C408 1.377 . S
C395 C394 1.524 . S
C395 C396 1.397 . S
C395 C400 1.363 . S
C396 H373 0.950 . S
C396 C395 1.397 . S
C396 C397 1.334 . S
C397 H374 0.950 . S
C397 C396 1.334 . S
C397 C398 1.287 . S
C398 C397 1.287 . S
C398 C399 1.524 . S
C398 H417 0.913 1_655 S
C399 H375 0.950 1_655 S
C399 C398 1.524 . S
C399 C400 1.415 . S
C400 H376 0.950 . S
C400 C395 1.363 . S
C400 C399 1.415 . S
C401 H377 0.951 . S
C401 C402 1.366 . S
C401 C403 1.388 . S
C402 C401 1.366 . S
C402 C406 1.385 . S
C403 H378 0.951 . S
C403 C401 1.388 . S
C403 C404 1.366 . S
C404 C403 1.366 . S
C404 C405 1.414 . S
C404 C407 1.499 . S
C405 H379 0.950 . S
C405 C404 1.414 . S
C405 C406 1.374 . S
C406 H380 0.950 . S
C406 C402 1.385 . S
C406 C405 1.374 . S
C407 C404 1.499 . S
C407 C408 1.373 . S
C407 C409 1.389 . S
C408 H381 0.950 . S
C408 C394 1.377 . S
C408 C407 1.373 . S
C409 C393 1.377 . S
C409 C407 1.389 . S
C409 C410 1.524 . S
C410 C409 1.524 . S
C410 C411 1.397 . S
C410 C415 1.363 . S
C411 H382 0.950 . S
C411 C410 1.397 . S
C411 C412 1.336 1_556 S
C412 H383 0.949 . S
C412 C411 1.336 1_554 S
C412 C413 1.287 . S
C413 C412 1.287 . S
C413 C414 1.524 1_554 S
C413 H416 0.999 . S
C414 H384 0.950 . S
C414 C413 1.524 1_556 S
C414 C415 1.415 . S
C415 H385 0.950 . S
C415 C410 1.363 . S
C415 C414 1.415 . S
H416 C413 0.999 . S
H417 C398 0.913 1_455 S
H418 C436 0.951 1_654 S
H419 C438 0.951 . S
H420 C440 0.950 . S
H421 C441 0.950 . S
H422 C443 0.950 . S
H423 C446 0.950 . S
H424 C447 0.950 . S
H425 C449 0.950 . S
H426 C450 0.950 . S
H427 C451 0.951 . S
H428 C453 0.951 . S
H429 C455 0.950 . S
H430 C456 0.950 . S
H431 C458 0.950 . S
H432 C461 0.950 . S
H433 C462 0.950 . S
H434 C464 0.950 . S
H435 C465 0.950 . S
C436 H418 0.951 1_456 S
C436 C437 1.366 . S
C436 C438 1.388 1_455 S
C437 C436 1.366 . S
C437 C441 1.385 . S
C438 H419 0.951 . S
C438 C436 1.388 1_655 S
C438 C439 1.366 . S
C439 C438 1.366 . S
C439 C440 1.414 1_655 S
C439 C442 1.499 . S
C440 H420 0.950 . S
C440 C439 1.414 1_455 S
C440 C441 1.374 . S
C441 H421 0.950 . S
C441 C437 1.385 . S
C441 C440 1.374 . S
C442 C439 1.499 . S
C442 C443 1.373 . S
C442 C444 1.389 . S
C443 H422 0.950 . S
C443 C442 1.373 . S
C443 C459 1.377 . S
C444 C442 1.389 . S
C444 C445 1.524 . S
C444 C458 1.377 . S
C445 C444 1.524 . S
C445 C446 1.397 . S
C445 C450 1.363 . S
C446 H423 0.950 . S
C446 C445 1.397 . S
C446 C447 1.334 . S
C447 H424 0.950 . S
C447 C446 1.334 . S
C447 C448 1.287 . S
C448 C447 1.287 . S
C448 C449 1.524 . S
C448 H467 0.913 . S
C449 H425 0.950 . S
C449 C448 1.524 . S
C449 C450 1.415 . S
C450 H426 0.950 . S
C450 C445 1.363 . S
C450 C449 1.415 . S
C451 H427 0.951 . S
C451 C452 1.366 . S
C451 C453 1.388 . S
C452 C451 1.366 . S
C452 C456 1.385 . S
C453 H428 0.951 . S
C453 C451 1.388 . S
C453 C454 1.366 . S
C454 C453 1.366 . S
C454 C455 1.414 . S
C454 C457 1.499 . S
C455 H429 0.950 . S
C455 C454 1.414 . S
C455 C456 1.374 . S
C456 H430 0.950 . S
C456 C452 1.385 . S
C456 C455 1.374 . S
C457 C454 1.499 . S
C457 C458 1.373 . S
C457 C459 1.389 . S
C458 H431 0.950 . S
C458 C444 1.377 . S
C458 C457 1.373 . S
C459 C443 1.377 . S
C459 C457 1.389 . S
C459 C460 1.524 . S
C460 C459 1.524 . S
C460 C461 1.397 . S
C460 C465 1.363 . S
C461 H432 0.950 . S
C461 C460 1.397 . S
C461 C462 1.334 . S
C462 H433 0.950 . S
C462 C461 1.334 . S
C462 C463 1.287 . S
C463 C462 1.287 . S
C463 C464 1.524 . S
C463 H466 0.999 . S
C464 H434 0.950 . S
C464 C463 1.524 . S
C464 C465 1.415 . S
C465 H435 0.950 . S
C465 C460 1.363 . S
C465 C464 1.415 . S
H466 C463 0.999 . S
H467 C448 0.913 . S
H468 C486 0.951 . S
H469 C488 0.951 1_554 S
H470 C490 0.950 . S
H471 C491 0.950 . S
H472 C493 0.950 . S
H473 C496 0.950 . S
H474 C497 0.950 . S
H475 C499 0.931 1_554 S
H476 C500 0.950 . S
H477 C501 0.951 . S
H478 C503 0.951 . S
H479 C505 0.950 . S
H480 C506 0.950 . S
H481 C508 0.950 . S
H482 C511 0.950 . S
H483 C512 0.950 . S
H484 C514 0.950 . S
H485 C515 0.950 . S
C486 H468 0.951 . S
C486 C487 1.366 1_554 S
C486 C488 1.388 1_554 S
C487 C486 1.366 1_556 S
C487 C491 1.385 . S
C488 H469 0.951 1_556 S
C488 C486 1.388 1_556 S
C488 C489 1.366 . S
C489 C488 1.366 . S
C489 C490 1.414 . S
C489 C492 1.499 . S
C490 H470 0.950 . S
C490 C489 1.414 . S
C490 C491 1.374 . S
C491 H471 0.950 . S
C491 C487 1.385 . S
C491 C490 1.374 . S
C492 C489 1.499 . S
C492 C493 1.373 . S
C492 C494 1.389 . S
C493 H472 0.950 . S
C493 C492 1.373 . S
C493 C509 1.377 . S
C494 C492 1.389 . S
C494 C495 1.524 . S
C494 C508 1.377 . S
C495 C494 1.524 . S
C495 C496 1.397 . S
C495 C500 1.363 . S
C496 H473 0.950 . S
C496 C495 1.397 . S
C496 C497 1.334 . S
C497 H474 0.950 . S
C497 C496 1.334 . S
C497 C498 1.287 . S
C498 C497 1.287 . S
C498 C499 1.524 . S
C498 H517 0.913 . S
C499 H475 0.931 1_556 S
C499 C498 1.524 . S
C499 C500 1.415 . S
C500 H476 0.950 . S
C500 C495 1.363 . S
C500 C499 1.415 . S
C501 H477 0.951 . S
C501 C502 1.366 . S
C501 C503 1.388 . S
C502 C501 1.366 . S
C502 C506 1.385 . S
C503 H478 0.951 . S
C503 C501 1.388 . S
C503 C504 1.366 . S
C504 C503 1.366 . S
C504 C505 1.414 . S
C504 C507 1.499 . S
C505 H479 0.950 . S
C505 C504 1.414 . S
C505 C506 1.374 . S
C506 H480 0.950 . S
C506 C502 1.385 . S
C506 C505 1.374 . S
C507 C504 1.499 . S
C507 C508 1.373 . S
C507 C509 1.389 . S
C508 H481 0.950 . S
C508 C494 1.377 . S
C508 C507 1.373 . S
C509 C493 1.377 . S
C509 C507 1.389 . S
C509 C510 1.524 . S
C510 C509 1.524 . S
C510 C511 1.397 . S
C510 C515 1.363 . S
C511 H482 0.950 . S
C511 C510 1.397 . S
C511 C512 1.334 . S
C512 H483 0.950 . S
C512 C511 1.334 . S
C512 C513 1.287 . S
C513 C512 1.287 . S
C513 C514 1.524 . S
C513 H516 0.999 . S
C514 H484 0.950 . S
C514 C513 1.524 . S
C514 C515 1.415 . S
C515 H485 0.950 . S
C515 C510 1.363 . S
C515 C514 1.415 . S
H516 C513 0.999 . S
H517 C498 0.913 . S
H518 C536 0.951 . S
H519 C538 0.951 . S
H520 C540 0.950 . S
H521 C541 0.950 . S
H522 C543 0.950 . S
H523 C546 0.950 . S
H524 C547 0.950 . S
H525 C549 0.950 . S
H526 C550 0.950 . S
H527 C551 0.951 . S
H528 C553 0.951 . S
H529 C555 0.950 1_455 S
H530 C556 0.950 . S
H531 C558 0.950 . S
H532 C561 0.950 . S
H533 C562 0.950 . S
H534 C564 0.950 . S
H535 C565 0.950 . S
C536 H518 0.951 . S
C536 C537 1.366 . S
C536 C538 1.388 . S
C537 C536 1.366 . S
C537 C541 1.385 . S
C538 H519 0.951 . S
C538 C536 1.388 . S
C538 C539 1.366 . S
C539 C538 1.366 . S
C539 C540 1.414 . S
C539 C542 1.499 . S
C540 H520 0.950 . S
C540 C539 1.414 . S
C540 C541 1.374 . S
C541 H521 0.950 . S
C541 C537 1.385 . S
C541 C540 1.374 . S
C542 C539 1.499 . S
C542 C543 1.373 . S
C542 C544 1.389 . S
C543 H522 0.950 . S
C543 C542 1.373 . S
C543 C559 1.377 . S
C544 C542 1.389 . S
C544 C545 1.524 . S
C544 C558 1.377 . S
C545 C544 1.524 . S
C545 C546 1.397 . S
C545 C550 1.363 . S
C546 H523 0.950 . S
C546 C545 1.397 . S
C546 C547 1.334 . S
C547 H524 0.950 . S
C547 C546 1.334 . S
C547 C548 1.287 . S
C548 C547 1.287 . S
C548 C549 1.524 . S
C548 H567 0.913 . S
C549 H525 0.950 . S
C549 C548 1.524 . S
C549 C550 1.415 . S
C550 H526 0.950 . S
C550 C545 1.363 . S
C550 C549 1.415 . S
C551 H527 0.951 . S
C551 C552 1.366 . S
C551 C553 1.388 . S
C552 C551 1.366 . S
C552 C556 1.385 1_655 S
C553 H528 0.951 . S
C553 C551 1.388 . S
C553 C554 1.366 . S
C554 C553 1.366 . S
C554 C555 1.414 . S
C554 C557 1.499 . S
C555 H529 0.950 1_655 S
C555 C554 1.414 . S
C555 C556 1.374 1_655 S
C556 H530 0.950 . S
C556 C552 1.385 1_455 S
C556 C555 1.374 1_455 S
C557 C554 1.499 . S
C557 C558 1.373 . S
C557 C559 1.389 . S
C558 H531 0.950 . S
C558 C544 1.377 . S
C558 C557 1.373 . S
C559 C543 1.377 . S
C559 C557 1.389 . S
C559 C560 1.524 . S
C560 C559 1.524 . S
C560 C561 1.397 . S
C560 C565 1.363 . S
C561 H532 0.950 . S
C561 C560 1.397 . S
C561 C562 1.334 . S
C562 H533 0.950 . S
C562 C561 1.334 . S
C562 C563 1.287 . S
C563 C562 1.287 . S
C563 C564 1.524 . S
C563 H566 0.999 . S
C564 H534 0.950 . S
C564 C563 1.524 . S
C564 C565 1.415 . S
C565 H535 0.950 . S
C565 C560 1.363 . S
C565 C564 1.415 . S
H566 C563 0.999 . S
H567 C548 0.913 . S
H568 C586 0.951 . S
H569 C588 0.951 . S
H570 C590 0.950 . S
H571 C591 0.950 . S
H572 C593 0.950 . S
H573 C596 0.950 . S
H574 C597 0.950 . S
H575 C599 0.950 . S
H576 C600 0.950 . S
H577 C601 0.951 . S
H578 C603 0.951 . S
H579 C605 0.950 . S
H580 C606 0.950 . S
H581 C608 0.950 . S
H582 C611 0.950 . S
H583 C612 0.950 . S
H584 C614 0.950 . S
H585 C615 0.950 . S
C586 H568 0.951 . S
C586 C587 1.366 . S
C586 C588 1.388 . S
C587 C586 1.366 . S
C587 C591 1.385 . S
C588 H569 0.951 . S
C588 C586 1.388 . S
C588 C589 1.366 . S
C589 C588 1.366 . S
C589 C590 1.414 . S
C589 C592 1.499 . S
C590 H570 0.950 . S
C590 C589 1.414 . S
C590 C591 1.374 . S
C591 H571 0.950 . S
C591 C587 1.385 . S
C591 C590 1.374 . S
C592 C589 1.499 . S
C592 C593 1.373 . S
C592 C594 1.389 . S
C593 H572 0.950 . S
C593 C592 1.373 . S
C593 C609 1.377 . S
C594 C592 1.389 . S
C594 C595 1.524 . S
C594 C608 1.377 . S
C595 C594 1.524 . S
C595 C596 1.397 . S
C595 C600 1.363 . S
C596 H573 0.950 . S
C596 C595 1.397 . S
C596 C597 1.334 . S
C597 H574 0.950 . S
C597 C596 1.334 . S
C597 C598 1.287 . S
C598 C597 1.287 . S
C598 C599 1.524 . S
C598 H617 0.913 . S
C599 H575 0.950 . S
C599 C598 1.524 . S
C599 C600 1.415 . S
C600 H576 0.950 . S
C600 C595 1.363 . S
C600 C599 1.415 . S
C601 H577 0.951 . S
C601 C602 1.366 . S
C601 C603 1.388 . S
C602 C601 1.366 . S
C602 C606 1.385 . S
C603 H578 0.951 . S
C603 C601 1.388 . S
C603 C604 1.366 . S
C604 C603 1.366 . S
C604 C605 1.414 . S
C604 C607 1.499 . S
C605 H579 0.950 . S
C605 C604 1.414 . S
C605 C606 1.374 . S
C606 H580 0.950 . S
C606 C602 1.385 . S
C606 C605 1.374 . S
C607 C604 1.499 . S
C607 C608 1.373 . S
C607 C609 1.389 . S
C608 H581 0.950 . S
C608 C594 1.377 . S
C608 C607 1.373 . S
C609 C593 1.377 . S
C609 C607 1.389 . S
C609 C610 1.524 . S
C610 C609 1.524 . S
C610 C611 1.397 . S
C610 C615 1.363 . S
C611 H582 0.950 . S
C611 C610 1.397 . S
C611 C612 1.334 . S
C612 H583 0.950 . S
C612 C611 1.334 . S
C612 C613 1.287 . S
C613 C612 1.287 . S
C613 C614 1.524 . S
C613 H616 0.999 . S
C614 H584 0.950 . S
C614 C613 1.524 . S
C614 C615 1.415 . S
C615 H585 0.950 . S
C615 C610 1.363 . S
C615 C614 1.415 . S
H616 C613 0.999 . S
H617 C598 0.913 . S
H618 C636 0.951 . S
H619 C638 0.951 . S
H620 C640 0.950 . S
H621 C641 0.950 . S
H622 C643 0.950 . S
H623 C646 0.950 . S
H624 C647 0.950 . S
H625 C649 0.950 . S
H626 C650 0.950 . S
H627 C651 0.951 . S
H628 C653 0.951 . S
H629 C655 0.950 . S
H630 C656 0.950 . S
H631 C658 0.950 . S
H632 C661 0.950 . S
H633 C662 0.950 . S
H634 C664 0.950 . S
H635 C665 0.950 . S
C636 H618 0.951 . S
C636 C637 1.366 . S
C636 C638 1.388 . S
C637 C636 1.366 . S
C637 C641 1.385 . S
C638 H619 0.951 . S
C638 C636 1.388 . S
C638 C639 1.366 . S
C639 C638 1.366 . S
C639 C640 1.414 . S
C639 C642 1.499 . S
C640 H620 0.950 . S
C640 C639 1.414 . S
C640 C641 1.374 . S
C641 H621 0.950 . S
C641 C637 1.385 . S
C641 C640 1.374 . S
C642 C639 1.499 . S
C642 C643 1.373 . S
C642 C644 1.389 . S
C643 H622 0.950 . S
C643 C642 1.373 . S
C643 C659 1.377 . S
C644 C642 1.389 . S
C644 C645 1.524 . S
C644 C658 1.377 . S
C645 C644 1.524 . S
C645 C646 1.397 . S
C645 C650 1.363 . S
C646 H623 0.950 . S
C646 C645 1.397 . S
C646 C647 1.334 . S
C647 H624 0.950 . S
C647 C646 1.334 . S
C647 C648 1.287 . S
C648 C647 1.287 . S
C648 C649 1.524 . S
C648 H667 0.913 . S
C649 H625 0.950 . S
C649 C648 1.524 . S
C649 C650 1.415 . S
C650 H626 0.950 . S
C650 C645 1.363 . S
C650 C649 1.415 . S
C651 H627 0.951 . S
C651 C652 1.366 . S
C651 C653 1.388 . S
C652 C651 1.366 . S
C652 C656 1.385 . S
C653 H628 0.951 . S
C653 C651 1.388 . S
C653 C654 1.366 . S
C654 C653 1.366 . S
C654 C655 1.414 . S
C654 C657 1.499 . S
C655 H629 0.950 . S
C655 C654 1.414 . S
C655 C656 1.374 . S
C656 H630 0.950 . S
C656 C652 1.385 . S
C656 C655 1.374 . S
C657 C654 1.499 . S
C657 C658 1.373 . S
C657 C659 1.389 . S
C658 H631 0.950 . S
C658 C644 1.377 . S
C658 C657 1.373 . S
C659 C643 1.377 . S
C659 C657 1.389 . S
C659 C660 1.524 . S
C660 C659 1.524 . S
C660 C661 1.397 . S
C660 C665 1.363 . S
C661 H632 0.950 . S
C661 C660 1.397 . S
C661 C662 1.334 . S
C662 H633 0.950 . S
C662 C661 1.334 . S
C662 C663 1.287 . S
C663 C662 1.287 . S
C663 C664 1.524 . S
C663 H666 0.999 . S
C664 H634 0.950 . S
C664 C663 1.524 . S
C664 C665 1.415 . S
C665 H635 0.950 . S
C665 C660 1.363 . S
C665 C664 1.415 . S
H666 C663 0.999 . S
H667 C648 0.913 . S
H668 C686 0.951 . S
H669 C688 0.951 . S
H670 C690 0.950 . S
H671 C691 0.950 . S
H672 C693 0.950 . S
H673 C696 0.950 . S
H674 C697 0.950 . S
H675 C699 0.950 . S
H676 C700 0.950 . S
H677 C701 0.951 . S
H678 C703 0.951 . S
H679 C705 0.950 . S
H680 C706 0.950 . S
H681 C708 0.950 . S
H682 C711 0.950 . S
H683 C712 0.950 . S
H684 C714 0.950 . S
H685 C715 0.950 . S
C686 H668 0.951 . S
C686 C687 1.366 . S
C686 C688 1.388 . S
C687 C686 1.366 . S
C687 C691 1.385 . S
C688 H669 0.951 . S
C688 C686 1.388 . S
C688 C689 1.366 . S
C689 C688 1.366 . S
C689 C690 1.414 . S
C689 C692 1.499 . S
C690 H670 0.950 . S
C690 C689 1.414 . S
C690 C691 1.374 . S
C691 H671 0.950 . S
C691 C687 1.385 . S
C691 C690 1.374 . S
C692 C689 1.499 . S
C692 C693 1.373 . S
C692 C694 1.389 . S
C693 H672 0.950 . S
C693 C692 1.373 . S
C693 C709 1.377 . S
C694 C692 1.389 . S
C694 C695 1.524 . S
C694 C708 1.377 . S
C695 C694 1.524 . S
C695 C696 1.397 . S
C695 C700 1.363 . S
C696 H673 0.950 . S
C696 C695 1.397 . S
C696 C697 1.334 . S
C697 H674 0.950 . S
C697 C696 1.334 . S
C697 C698 1.287 . S
C698 C697 1.287 . S
C698 C699 1.524 . S
C698 H717 0.913 . S
C699 H675 0.950 . S
C699 C698 1.524 . S
C699 C700 1.415 . S
C700 H676 0.950 . S
C700 C695 1.363 . S
C700 C699 1.415 . S
C701 H677 0.951 . S
C701 C702 1.366 . S
C701 C703 1.388 . S
C702 C701 1.366 . S
C702 C706 1.385 . S
C703 H678 0.951 . S
C703 C701 1.388 . S
C703 C704 1.366 . S
C704 C703 1.366 . S
C704 C705 1.414 . S
C704 C707 1.499 . S
C705 H679 0.950 . S
C705 C704 1.414 . S
C705 C706 1.374 . S
C706 H680 0.950 . S
C706 C702 1.385 . S
C706 C705 1.374 . S
C707 C704 1.499 . S
C707 C708 1.373 . S
C707 C709 1.389 . S
C708 H681 0.950 . S
C708 C694 1.377 . S
C708 C707 1.373 . S
C709 C693 1.377 . S
C709 C707 1.389 . S
C709 C710 1.524 . S
C710 C709 1.524 . S
C710 C711 1.397 . S
C710 C715 1.363 . S
C711 H682 0.950 . S
C711 C710 1.397 . S
C711 C712 1.334 . S
C712 H683 0.950 . S
C712 C711 1.334 . S
C712 C713 1.287 . S
C713 C712 1.287 . S
C713 C714 1.524 . S
C713 H716 0.999 1_545 S
C714 H684 0.950 . S
C714 C713 1.524 . S
C714 C715 1.415 . S
C715 H685 0.950 . S
C715 C710 1.363 . S
C715 C714 1.415 . S
H716 C713 0.999 1_565 S
H717 C698 0.913 . S
C152 C83 1.422 . S
C137 C11 1.428 . S
C202 C79 1.409 . S
C187 C30 1.411 1_455 S
C252 C104 1.423 . S
C237 C49 1.429 . S
C287 C68 1.411 . S
C302 C100 1.409 . S
C337 C2 1.189 1_556 S
C352 C101 1.084 . S
C402 C116 1.085 . S
C387 C25 1.204 1_556 S
C437 C6 1.862 . S
C452 C117 1.698 . S
C502 C113 1.741 . S
C487 C21 1.874 1_556 S
C552 C80 1.085 1_655 S
C537 C40 1.190 . S
C587 C63 1.204 . S
C602 C95 1.086 . S
C652 C96 1.698 . S
C637 C44 1.862 . S
C702 C92 1.741 . S
C687 C59 1.875 . S
