# Generated by pormake.
# Topology tsx, (6,3)-cn, num edge types: 1
# Building blocks:
#     Node 0, Type 0, BuildingBlock: MIDCAF_clean_sbu_0, # of connection points: 6
#     Node 1, Type 0, BuildingBlock: MIDCAF_clean_sbu_0, # of connection points: 6
#     Node 2, Type 1, BuildingBlock: BELTOD_clean_linker_0, # of connection points: 3
#     Node 3, Type 1, BuildingBlock: BELTOD_clean_linker_0, # of connection points: 3
#     Node 4, Type 1, BuildingBlock: BELTOD_clean_linker_0, # of connection points: 3
#     Node 5, Type 1, BuildingBlock: BELTOD_clean_linker_0, # of connection points: 3
#     Edge 6, Type (0, 1), BuildingBlock: TEMPAE_clean_linker_10, # of connection points: 2
#     Edge 7, Type (0, 1), BuildingBlock: TEMPAE_clean_linker_10, # of connection points: 2
#     Edge 8, Type (0, 1), BuildingBlock: TEMPAE_clean_linker_10, # of connection points: 2
#     Edge 9, Type (0, 1), BuildingBlock: TEMPAE_clean_linker_10, # of connection points: 2
#     Edge 10, Type (0, 1), BuildingBlock: TEMPAE_clean_linker_10, # of connection points: 2
#     Edge 11, Type (0, 1), BuildingBlock: TEMPAE_clean_linker_10, # of connection points: 2
#     Edge 12, Type (0, 1), BuildingBlock: TEMPAE_clean_linker_10, # of connection points: 2
#     Edge 13, Type (0, 1), BuildingBlock: TEMPAE_clean_linker_10, # of connection points: 2
#     Edge 14, Type (0, 1), BuildingBlock: TEMPAE_clean_linker_10, # of connection points: 2
#     Edge 15, Type (0, 1), BuildingBlock: TEMPAE_clean_linker_10, # of connection points: 2
#     Edge 16, Type (0, 1), BuildingBlock: TEMPAE_clean_linker_10, # of connection points: 2
#     Edge 17, Type (0, 1), BuildingBlock: TEMPAE_clean_linker_10, # of connection points: 2
# Relax obj value: 0.110
# Max RMSD: 0.178
# Mean RMSD: 0.105
data_MOF--net-tsx--node1-MIDCAF_clean_sbu_0--node2-BELTOD_clean_linker_0--edge1-TEMPAE_clean_linker_10
_symmetry_space_group_name_H-M    P1
_symmetry_Int_Tables_number       1
_symmetry_cell_setting            triclinic
loop_
_symmetry_equiv_pos_as_xyz
'x, y, z'
_cell_length_a     22.47566
_cell_length_b     23.142927
_cell_length_c     43.162641
_cell_angle_alpha  91.266873
_cell_angle_beta   94.296236
_cell_angle_gamma 90.075475
loop_
_atom_site_label
_atom_site_type_symbol
_atom_site_fract_x
_atom_site_fract_y
_atom_site_fract_z
_atom_type_partial_charge
Zn0 Zn 0.89897 0.05009 0.9631 0.0
Zn1 Zn 0.07721 0.04381 0.04117 0.0
Zn2 Zn 0.9912 0.04631 0.00138 0.0
C3 C 0.04785 0.15694 0.04129 0.0
C4 C 0.12484 0.00943 0.98712 0.0
O5 O 0.92384 0.98333 0.01556 0.0
O6 O 0.85623 0.98094 0.97562 0.0
C7 C 0.90536 0.15772 0.99116 0.0
O8 O 0.01347 0.13704 0.01814 0.0
O9 O 0.07747 0.1226 0.0586 0.0
O10 O 0.14177 0.0255 0.01445 0.0
O11 O 0.0691 0.01184 0.97769 0.0
O12 O 0.8679 0.12566 0.97584 0.0
O13 O 0.95686 0.1373 0.00059 0.0
O14 O 0.01963 0.01686 0.95572 0.0
O15 O 0.94229 0.04423 0.92477 0.0
C16 C 0.99426 0.02366 0.92829 0.0
O17 O 0.96828 0.98966 0.04036 0.0
O18 O 0.05435 0.98267 0.06825 0.0
C19 C 0.87628 0.9612 0.00132 0.0
C20 C 1.00013 0.96896 0.06367 0.0
Zn21 Zn 0.69234 0.47701 0.56087 0.0
Zn22 Zn 0.53733 0.41197 0.49943 0.0
Zn23 Zn 0.59828 0.46432 0.53203 0.0
C24 C 0.60583 0.4728 0.46272 0.0
C25 C 0.49309 0.52533 0.50087 0.0
O26 O 0.56792 0.47368 0.57839 0.0
O27 O 0.65792 0.4766 0.60242 0.0
C28 C 0.7021 0.37447 0.5272 0.0
O29 O 0.5994 0.50633 0.48649 0.0
O30 O 0.59318 0.41961 0.46466 0.0
O31 O 0.47217 0.47448 0.50099 0.0
O32 O 0.5502 0.53197 0.50531 0.0
O33 O 0.73374 0.40614 0.54616 0.0
O34 O 0.64907 0.39003 0.51879 0.0
O35 O 0.61631 0.55128 0.51552 0.0
O36 O 0.70486 0.55428 0.54162 0.0
C37 C 0.66531 0.57826 0.52382 0.0
O38 O 0.52655 0.4295 0.55758 0.0
O39 O 0.53382 0.34892 0.53039 0.0
C40 C 0.60183 0.47716 0.60357 0.0
C41 C 0.5144 0.37545 0.55356 0.0
P42 P 0.07214 0.96141 0.37873 0.0
H43 H 0.04011 0.96428 0.44394 0.0
H44 H 0.96372 0.0193 0.46956 0.0
H45 H 0.89063 0.07671 0.38004 0.0
H46 H 0.96803 0.02444 0.35499 0.0
H47 H 0.16656 0.97264 0.42838 0.0
H48 H 0.2373 0.90334 0.45187 0.0
H49 H 0.14354 0.76442 0.40036 0.0
H50 H 0.07361 0.83432 0.37649 0.0
H51 H 0.13224 0.95756 0.32155 0.0
H52 H 0.96248 0.9034 0.35147 0.0
O53 O 0.11665 0.01806 0.37458 0.0
H54 H 0.09701 0.93679 0.26767 0.0
H55 H 0.92591 0.88436 0.29713 0.0
C56 C 0.00904 0.98926 0.39748 0.0
C57 C 0.00674 0.98759 0.42983 0.0
C58 C 0.96296 0.01892 0.44444 0.0
C59 C 0.92145 0.05271 0.4268 0.0
C60 C 0.92239 0.05173 0.3943 0.0
C61 C 0.96627 0.02113 0.37989 0.0
C62 C 0.11561 0.90866 0.40032 0.0
C63 C 0.1608 0.92715 0.42246 0.0
C64 C 0.20111 0.88744 0.43596 0.0
C65 C 0.19666 0.82844 0.4276 0.0
C66 C 0.14898 0.80975 0.40673 0.0
C67 C 0.10868 0.84958 0.39325 0.0
C68 C 0.04918 0.93422 0.34027 0.0
C69 C 0.08746 0.94082 0.31652 0.0
C70 C 0.06714 0.92915 0.28573 0.0
C71 C 0.00802 0.9108 0.27815 0.0
C72 C 0.97141 0.89909 0.30227 0.0
C73 C 0.99214 0.91034 0.33325 0.0
P74 P 0.06809 0.96348 0.60234 0.0
H75 H 0.02452 0.93467 0.53866 0.0
H76 H 0.92559 0.90692 0.516 0.0
H77 H 0.84938 0.96199 0.60072 0.0
H78 H 0.94879 0.98941 0.62329 0.0
H79 H 0.19457 0.9809 0.59888 0.0
H80 H 0.25605 0.0679 0.59958 0.0
H81 H 0.09752 0.17306 0.5911 0.0
H82 H 0.03539 0.08511 0.59116 0.0
H83 H 0.01234 0.88031 0.64133 0.0
H84 H 0.12297 0.03279 0.65539 0.0
O85 O 0.10405 0.90558 0.58964 0.0
H86 H 0.01276 0.87047 0.69792 0.0
H87 H 0.12393 0.02262 0.71114 0.0
C88 C 0.99416 0.96204 0.583 0.0
C89 C 0.98629 0.94236 0.55202 0.0
C90 C 0.92949 0.92692 0.53899 0.0
C91 C 0.8797 0.93097 0.55683 0.0
C92 C 0.88704 0.95724 0.58663 0.0
C93 C 0.94391 0.97281 0.59959 0.0
C94 C 0.11048 0.02653 0.59426 0.0
C95 C 0.17282 0.02244 0.59636 0.0
C96 C 0.20791 0.07214 0.59725 0.0
C97 C 0.18129 0.12687 0.59584 0.0
C98 C 0.11881 0.13113 0.59233 0.0
C99 C 0.08347 0.08108 0.59201 0.0
C100 C 0.06698 0.95751 0.64393 0.0
C101 C 0.0366 0.9116 0.65647 0.0
C102 C 0.03704 0.90589 0.68872 0.0
C103 C 0.06889 0.94549 0.70887 0.0
C104 C 0.09989 0.99088 0.69618 0.0
C105 C 0.09882 0.99694 0.66409 0.0
P106 P 0.65938 0.7113 0.91075 0.0
H107 H 0.62548 0.8296 0.92578 0.0
H108 H 0.52838 0.87298 0.93307 0.0
H109 H 0.44932 0.70325 0.93463 0.0
H110 H 0.54644 0.65959 0.92607 0.0
H111 H 0.77407 0.65968 0.90444 0.0
H112 H 0.82395 0.5754 0.92712 0.0
H113 H 0.67929 0.55283 0.98619 0.0
H114 H 0.62984 0.63854 0.96379 0.0
H115 H 0.63006 0.76694 0.8518 0.0
H116 H 0.62972 0.594 0.88697 0.0
O117 O 0.70834 0.76432 0.90651 0.0
H118 H 0.59278 0.72995 0.80044 0.0
H119 H 0.59464 0.55641 0.83561 0.0
C120 C 0.59355 0.74123 0.926 0.0
C121 C 0.5878 0.80145 0.92845 0.0
C122 C 0.53223 0.82631 0.93229 0.0
C123 C 0.48167 0.7913 0.93406 0.0
C124 C 0.48791 0.73096 0.93336 0.0
C125 C 0.54343 0.70607 0.92892 0.0
C126 C 0.69822 0.6553 0.93232 0.0
C127 C 0.75354 0.63738 0.92272 0.0
C128 C 0.78184 0.58901 0.93554 0.0
C129 C 0.75521 0.55731 0.95819 0.0
C130 C 0.70082 0.57664 0.96881 0.0
C131 C 0.67238 0.62539 0.95588 0.0
C132 C 0.63459 0.68302 0.87285 0.0
C133 C 0.62274 0.72091 0.84832 0.0
C134 C 0.60129 0.6997 0.81903 0.0
C135 C 0.59112 0.64013 0.81382 0.0
C136 C 0.60144 0.60255 0.83883 0.0
C137 C 0.62252 0.62391 0.86814 0.0
P138 P 0.55655 0.4824 0.13202 0.0
H139 H 0.51756 0.41144 0.07814 0.0
H140 H 0.41947 0.37792 0.05684 0.0
H141 H 0.33605 0.48248 0.12542 0.0
H142 H 0.43471 0.51681 0.14631 0.0
H143 H 0.6712 0.48669 0.10417 0.0
H144 H 0.72376 0.56449 0.08028 0.0
H145 H 0.5721 0.6765 0.0893 0.0
H146 H 0.5194 0.59801 0.11314 0.0
H147 H 0.50594 0.42865 0.18425 0.0
H148 H 0.60668 0.58287 0.16891 0.0
O149 O 0.5972 0.42216 0.13117 0.0
H150 H 0.51265 0.45089 0.23991 0.0
H151 H 0.61168 0.60652 0.22429 0.0
C152 C 0.4834 0.46521 0.11432 0.0
C153 C 0.47815 0.42763 0.0884 0.0
C154 C 0.42208 0.40845 0.07629 0.0
C155 C 0.3701 0.42676 0.08982 0.0
C156 C 0.37528 0.46757 0.11453 0.0
C157 C 0.43164 0.48681 0.12665 0.0
C158 C 0.59135 0.53669 0.1103 0.0
C159 C 0.64876 0.5276 0.10053 0.0
C160 C 0.67879 0.57208 0.08685 0.0
C161 C 0.65214 0.62661 0.08315 0.0
C162 C 0.59388 0.63503 0.09219 0.0
C163 C 0.5636 0.59024 0.10555 0.0
C164 C 0.55498 0.50431 0.17229 0.0
C165 C 0.52827 0.46802 0.19277 0.0
C166 C 0.5319 0.48105 0.22462 0.0
C167 C 0.56251 0.53075 0.23665 0.0
C168 C 0.58818 0.56771 0.21589 0.0
C169 C 0.58478 0.55442 0.18404 0.0
C170 C 0.07384 0.24288 0.07461 0.0
C171 C 0.06454 0.21844 0.04465 0.0
C172 C 0.11332 0.28948 0.08065 0.0
C173 C 0.14415 0.31186 0.05608 0.0
C174 C 0.12848 0.29248 0.02519 0.0
C175 C 0.08941 0.2453 0.01987 0.0
C176 C 0.12808 0.30902 0.11392 0.0
C177 C 0.15877 0.31631 0.99816 0.0
C178 C 0.2593 0.4314 0.07521 0.0
C179 C 0.31181 0.39897 0.08002 0.0
C180 C 0.20421 0.40414 0.06663 0.0
C181 C 0.20166 0.34311 0.06346 0.0
C182 C 0.25471 0.31041 0.06826 0.0
C183 C 0.30889 0.33871 0.07636 0.0
C184 C 0.14883 0.44048 0.06139 0.0
C185 C 0.25428 0.24516 0.06538 0.0
H186 H 0.05509 0.22171 0.09384 0.0
H187 H 0.08328 0.22584 0.99675 0.0
H188 H 0.17059 0.28877 0.12274 0.0
H189 H 0.1342 0.35654 0.1157 0.0
H190 H 0.09274 0.29634 0.12914 0.0
H191 H 0.13227 0.30745 0.97578 0.0
H192 H 0.166 0.3636 0.00108 0.0
H193 H 0.20307 0.29558 0.99697 0.0
H194 H 0.26139 0.47805 0.07794 0.0
H195 H 0.34907 0.31333 0.0806 0.0
H196 H 0.12002 0.43486 0.08087 0.0
H197 H 0.12256 0.4264 0.03973 0.0
H198 H 0.15962 0.48715 0.05992 0.0
H199 H 0.22457 0.22685 0.0821 0.0
H200 H 0.29945 0.22631 0.06988 0.0
H201 H 0.23655 0.23132 0.04169 0.0
C202 C 0.22882 0.0035 0.97232 0.0
C203 C 0.16991 0.98334 0.96806 0.0
C204 C 0.27604 0.97121 0.96165 0.0
C205 C 0.26397 0.91757 0.94605 0.0
C206 C 0.20408 0.89926 0.9394 0.0
C207 C 0.15758 0.93232 0.95074 0.0
C208 C 0.33917 0.9923 0.96945 0.0
C209 C 0.18949 0.84323 0.92193 0.0
C210 C 0.4004 0.85439 0.91155 0.0
C211 C 0.42236 0.81819 0.93536 0.0
C212 C 0.34624 0.8839 0.91353 0.0
C213 C 0.31451 0.87827 0.9404 0.0
C214 C 0.33554 0.83989 0.96395 0.0
C215 C 0.389 0.80975 0.96094 0.0
C216 C 0.32443 0.923 0.88756 0.0
C217 C 0.30335 0.83309 0.99314 0.0
H218 H 0.23835 0.04302 0.98577 0.0
H219 H 0.11235 0.91594 0.94825 0.0
H220 H 0.36227 0.963 0.98643 0.0
H221 H 0.36453 0.99164 0.94839 0.0
H222 H 0.34065 0.03685 0.97962 0.0
H223 H 0.21233 0.80666 0.93398 0.0
H224 H 0.1408 0.83425 0.91957 0.0
H225 H 0.20603 0.84493 0.89838 0.0
H226 H 0.42612 0.86016 0.89155 0.0
H227 H 0.40619 0.78161 0.97925 0.0
H228 H 0.33075 0.96878 0.89526 0.0
H229 H 0.27604 0.91628 0.88147 0.0
H230 H 0.34884 0.91564 0.86638 0.0
H231 H 0.30485 0.87458 0.00659 0.0
H232 H 0.32342 0.7989 0.00825 0.0
H233 H 0.25571 0.8223 0.98717 0.0
C234 C 0.78424 0.90233 0.00533 0.0
C235 C 0.84484 0.91204 0.01419 0.0
C236 C 0.75391 0.85486 0.0163 0.0
C237 C 0.7845 0.81719 0.03735 0.0
C238 C 0.84569 0.82659 0.04629 0.0
C239 C 0.87546 0.87293 0.0338 0.0
C240 C 0.68931 0.84475 0.00517 0.0
C241 C 0.87972 0.78764 0.06893 0.0
C242 C 0.68763 0.72905 0.08697 0.0
C243 C 0.68621 0.67525 0.07133 0.0
C244 C 0.72069 0.77526 0.07657 0.0
C245 C 0.75239 0.76761 0.04968 0.0
C246 C 0.75179 0.71318 0.03402 0.0
C247 C 0.7187 0.66757 0.04507 0.0
C248 C 0.72175 0.83226 0.09434 0.0
C249 C 0.78493 0.70336 0.00521 0.0
H250 H 0.76049 0.93172 0.9896 0.0
H251 H 0.92302 0.87764 0.03875 0.0
H252 H 0.68408 0.80142 0.99372 0.0
H253 H 0.66121 0.84544 0.02524 0.0
H254 H 0.67222 0.8777 0.98843 0.0
H255 H 0.92761 0.79971 0.07262 0.0
H256 H 0.8598 0.79001 0.09169 0.0
H257 H 0.8764 0.74205 0.06048 0.0
H258 H 0.66356 0.73473 0.10766 0.0
H259 H 0.71763 0.62602 0.03296 0.0
H260 H 0.70218 0.86657 0.07921 0.0
H261 H 0.7685 0.84509 0.10139 0.0
H262 H 0.69654 0.83047 0.11548 0.0
H263 H 0.76007 0.72409 0.98525 0.0
H264 H 0.78992 0.65668 -0.00039 0.0
H265 H 0.83002 0.72317 0.0079 0.0
C266 C 0.93095 0.26325 0.99742 0.0
C267 C 0.88865 0.21878 0.99665 0.0
C268 C 0.91334 0.32156 0.99723 0.0
C269 C 0.85175 0.33537 0.99533 0.0
C270 C 0.80908 0.29062 0.99655 0.0
C271 C 0.82809 0.233 0.99735 0.0
C272 C 0.96049 0.3679 0.99661 0.0
C273 C 0.74294 0.30305 0.99427 0.0
C274 C 0.79091 0.48884 9e-05 0.0
C275 C 0.78205 0.50181 0.9685 0.0
C276 C 0.81597 0.43567 0.00945 0.0
C277 C 0.8312 0.3944 0.98662 0.0
C278 C 0.82257 0.40773 0.95474 0.0
C279 C 0.79845 0.46126 0.94613 0.0
C280 C 0.82565 0.42342 0.04364 0.0
C281 C 0.83709 0.36471 0.92956 0.0
H282 H 0.97729 0.25252 0.99592 0.0
H283 H 0.79506 0.19875 0.99698 0.0
H284 H 0.96332 0.38202 0.97237 0.0
H285 H 0.94901 0.40626 0.01082 0.0
H286 H 0.00512 0.35193 0.00532 0.0
H287 H 0.71611 0.26449 -0.00068 0.0
H288 H 0.73249 0.33863 0.01059 0.0
H289 H 0.7289 0.31718 0.97043 0.0
H290 H 0.77865 0.52041 0.01741 0.0
H291 H 0.79095 0.47093 0.92168 0.0
H292 H 0.87273 0.4108 0.04942 0.0
H293 H 0.79727 0.38654 0.04945 0.0
H294 H 0.81497 0.46132 0.05845 0.0
H295 H 0.88456 0.35166 0.93281 0.0
H296 H 0.8288 0.38233 0.90589 0.0
H297 H 0.80957 0.32515 0.93102 0.0
C298 C 0.73654 0.65058 0.50755 0.0
C299 C 0.67787 0.63717 0.51363 0.0
C300 C 0.75661 0.70786 0.50817 0.0
C301 C 0.71672 0.75304 0.51481 0.0
C302 C 0.65541 0.74016 0.51678 0.0
C303 C 0.63664 0.68197 0.51653 0.0
C304 C 0.82224 0.71913 0.50542 0.0
C305 C 0.61077 0.78722 0.52209 0.0
C306 C 0.80183 0.8596 0.56829 0.0
C307 C 0.82477 0.89719 0.54707 0.0
C308 C 0.76132 0.81576 0.55837 0.0
C309 C 0.74247 0.80965 0.52638 0.0
C310 C 0.75983 0.85171 0.50544 0.0
C311 C 0.80153 0.89462 0.51594 0.0
C312 C 0.74427 0.7721 0.58171 0.0
C313 C 0.73848 0.84884 0.47148 0.0
H314 H 0.76821 0.6158 0.5049 0.0
H315 H 0.59127 0.67175 0.52141 0.0
H316 H 0.82846 0.75403 0.48879 0.0
H317 H 0.84341 0.73355 0.52836 0.0
H318 H 0.84601 0.68002 0.49757 0.0
H319 H 0.56462 0.77285 0.51462 0.0
H320 H 0.61239 0.79878 0.54721 0.0
H321 H 0.62119 0.82672 0.50939 0.0
H322 H 0.81965 0.8609 0.59234 0.0
H323 H 0.81819 0.92425 0.49948 0.0
H324 H 0.76601 0.73013 0.5769 0.0
H325 H 0.69539 0.76476 0.57977 0.0
H326 H 0.75805 0.78599 0.606 0.0
H327 H 0.76959 0.82185 0.45864 0.0
H328 H 0.73763 0.89257 0.46134 0.0
H329 H 0.69328 0.82935 0.46786 0.0
C330 C 0.78574 0.30409 0.52495 0.0
C331 C 0.72743 0.32031 0.51491 0.0
C332 C 0.81237 0.25513 0.51238 0.0
C333 C 0.77992 0.22131 0.48918 0.0
C334 C 0.72008 0.23577 0.47994 0.0
C335 C 0.69451 0.28528 0.49288 0.0
C336 C 0.87641 0.24143 0.52276 0.0
C337 C 0.68402 0.2005 0.45539 0.0
C338 C 0.87632 0.15052 0.43123 0.0
C339 C 0.8817 0.09391 0.44205 0.0
C340 C 0.84158 0.19156 0.44577 0.0
C341 C 0.81147 0.17586 0.47196 0.0
C342 C 0.81564 0.1185 0.48276 0.0
C343 C 0.85104 0.07814 0.46772 0.0
C344 C 0.83896 0.25242 0.43371 0.0
C345 C 0.78389 0.10018 0.51054 0.0
H346 H 0.8114 0.33051 0.54219 0.0
H347 H 0.64925 0.29721 0.4852 0.0
H348 H 0.88087 0.19536 0.52908 0.0
H349 H 0.90509 0.2486 0.50335 0.0
H350 H 0.89352 0.26871 0.543 0.0
H351 H 0.63613 0.21274 0.45376 0.0
H352 H 0.70185 0.20709 0.43244 0.0
H353 H 0.68774 0.15376 0.46036 0.0
H354 H 0.9009 0.1634 0.41183 0.0
H355 H 0.85485 0.03435 0.47606 0.0
H356 H 0.85972 0.28281 0.45162 0.0
H357 H 0.79191 0.26593 0.42887 0.0
H358 H 0.86245 0.25672 0.41212 0.0
H359 H 0.80292 0.12367 0.53169 0.0
H360 H 0.78783 0.05299 0.51448 0.0
H361 H 0.73592 0.11161 0.50743 0.0
C362 C 0.46397 0.28584 0.56807 0.0
C363 C 0.47029 0.34593 0.57146 0.0
C364 C 0.41391 0.25748 0.57777 0.0
C365 C 0.36928 0.2899 0.59173 0.0
C366 C 0.37805 0.34982 0.59794 0.0
C367 C 0.42857 0.37735 0.58757 0.0
C368 C 0.40689 0.19335 0.57096 0.0
C369 C 0.33246 0.38559 0.61362 0.0
C370 C 0.22096 0.21577 0.57312 0.0
C371 C 0.21993 0.17866 0.59819 0.0
C372 C 0.26678 0.25681 0.57205 0.0
C373 C 0.31185 0.26093 0.59684 0.0
C374 C 0.30699 0.22776 0.62367 0.0
C375 C 0.26142 0.18636 0.62385 0.0
C376 C 0.27019 0.29155 0.54305 0.0
C377 C 0.35284 0.23224 0.651 0.0
H378 H 0.4966 0.26118 0.55608 0.0
H379 H 0.43338 0.42384 0.59041 0.0
H380 H 0.3983 0.17028 0.59242 0.0
H381 H 0.36797 0.18561 0.55398 0.0
H382 H 0.44698 0.17416 0.56125 0.0
H383 H 0.35212 0.4266 0.62362 0.0
H384 H 0.29548 0.39655 0.59629 0.0
H385 H 0.31314 0.36129 0.63236 0.0
H386 H 0.18868 0.20971 0.55335 0.0
H387 H 0.25994 0.15793 0.64343 0.0
H388 H 0.30712 0.27488 0.5297 0.0
H389 H 0.27998 0.33755 0.54913 0.0
H390 H 0.22812 0.28901 0.52782 0.0
H391 H 0.39355 0.20825 0.64545 0.0
H392 H 0.33606 0.21363 0.67221 0.0
H393 H 0.3659 0.27795 0.65604 0.0
C394 C 0.39122 0.56717 0.49341 0.0
C395 C 0.45301 0.5739 0.49222 0.0
C396 C 0.35167 0.61122 0.484 0.0
C397 C 0.37438 0.66337 0.47301 0.0
C398 C 0.43684 0.67094 0.47225 0.0
C399 C 0.47549 0.62602 0.48192 0.0
C400 C 0.2854 0.60137 0.48518 0.0
C401 C 0.46274 0.72594 0.46069 0.0
C402 C 0.26547 0.74553 0.41907 0.0
C403 C 0.24326 0.78711 0.43931 0.0
C404 C 0.30954 0.70621 0.42954 0.0
C405 C 0.33211 0.7085 0.46105 0.0
C406 C 0.31089 0.75113 0.48149 0.0
C407 C 0.26664 0.7899 0.47039 0.0
C408 C 0.3311 0.66144 0.407 0.0
C409 C 0.33387 0.75486 0.51525 0.0
H410 H 0.37357 0.52709 0.50155 0.0
H411 H 0.52312 0.63117 0.48065 0.0
H412 H 0.26573 0.63634 0.4991 0.0
H413 H 0.26317 0.60259 0.46137 0.0
H414 H 0.27517 0.55921 0.49543 0.0
H415 H 0.5123 0.7252 0.4619 0.0
H416 H 0.4458 0.73276 0.43624 0.0
H417 H 0.44831 0.7635 0.47465 0.0
H418 H 0.24863 0.74393 0.39487 0.0
H419 H 0.24953 0.82173 0.4862 0.0
H420 H 0.31929 0.61757 0.41445 0.0
H421 H 0.38041 0.66334 0.4069 0.0
H422 H 0.31136 0.66739 0.38291 0.0
H423 H 0.32111 0.71523 0.52719 0.0
H424 H 0.31595 0.79297 0.52756 0.0
H425 H 0.38331 0.75734 0.51726 0.0
C426 C 0.91917 0.94815 0.09859 0.0
C427 C 0.97437 0.93394 0.08746 0.0
C428 C 0.90494 0.92956 0.12796 0.0
C429 C 0.94769 0.89783 0.14636 0.0
C430 C 0.99813 0.87506 0.13267 0.0
C431 C 0.011 0.89367 0.10331 0.0
C432 C 0.848 0.95011 0.1408 0.0
C433 C 0.04338 0.8384 0.15077 0.0
C434 C 0.99738 0.95544 0.22631 0.0
C435 C 0.98416 0.90939 0.24514 0.0
C436 C 0.98177 0.95363 0.19439 0.0
C437 C 0.95113 0.90466 0.18078 0.0
C438 C 0.933 0.86009 0.20004 0.0
C439 C 0.9501 0.8628 0.23213 0.0
C440 C 0.00163 0.00284 0.17504 0.0
C441 C 0.8983 0.80817 0.18693 0.0
H442 H 0.88989 0.97805 0.0859 0.0
H443 H 0.05277 0.88105 0.09409 0.0
H444 H 0.83104 0.91793 0.15671 0.0
H445 H 0.85667 0.99113 0.15419 0.0
H446 H 0.81305 0.95832 0.12182 0.0
H447 H 0.07493 0.81729 0.13547 0.0
H448 H 0.06948 0.86599 0.16826 0.0
H449 H 0.0208 0.80449 0.16337 0.0
H450 H 0.02169 0.99256 0.23651 0.0
H451 H 0.93884 0.82746 0.24671 0.0
H452 H 0.96281 0.0212 0.16128 0.0
H453 H 0.03359 0.98672 0.15848 0.0
H454 H 0.02364 0.03825 0.18947 0.0
H455 H 0.87393 0.81687 0.16419 0.0
H456 H 0.86581 0.794 0.2034 0.0
H457 H 0.92951 0.77179 0.18374 0.0
C458 C 0.02932 0.04859 0.87749 0.0
C459 C 0.02404 0.00737 0.9003 0.0
C460 C 0.04518 0.03237 0.84778 0.0
C461 C 0.05524 0.97329 0.84071 0.0
C462 C 0.05301 0.93181 0.86425 0.0
C463 C 0.03712 0.94944 0.89389 0.0
C464 C 0.04696 0.07801 0.82337 0.0
C465 C 0.06428 0.86862 0.85765 0.0
C466 C 0.01219 0.93717 0.75611 0.0
C467 C 0.06707 0.94236 0.74305 0.0
C468 C 0.00831 0.94361 0.78826 0.0
C469 C 0.06072 0.955 0.80782 0.0
C470 C 0.11681 0.95601 0.79501 0.0
C471 C 0.11928 0.95013 0.76268 0.0
C472 C 0.94758 0.94209 0.80103 0.0
C473 C 0.17373 0.96671 0.81518 0.0
H474 H 0.01835 0.09329 0.88252 0.0
H475 H 0.03095 0.91744 0.91133 0.0
H476 H 0.08917 0.0751 0.81167 0.0
H477 H 0.0097 0.07073 0.80533 0.0
H478 H 0.043 0.12241 0.83331 0.0
H479 H 0.05717 0.84143 0.87794 0.0
H480 H 0.03443 0.8528 0.83761 0.0
H481 H 0.11084 0.86279 0.8513 0.0
H482 H 0.97176 0.93145 0.741 0.0
H483 H 0.16192 0.9533 0.75263 0.0
H484 H 0.93608 0.98594 0.80961 0.0
H485 H 0.94792 0.91275 0.82102 0.0
H486 H 0.91209 0.92758 0.78325 0.0
H487 H 0.17563 0.01262 0.82316 0.0
H488 H 0.21398 0.95732 0.80251 0.0
H489 H 0.17498 0.93983 0.83619 0.0
C490 C 0.52796 0.52147 0.63746 0.0
C491 C 0.57766 0.48604 0.63411 0.0
C492 C 0.51552 0.54336 0.66695 0.0
C493 C 0.5535 0.52886 0.69332 0.0
C494 C 0.59937 0.48775 0.69025 0.0
C495 C 0.61102 0.46708 0.66064 0.0
C496 C 0.46545 0.58616 0.66936 0.0
C497 C 0.64022 0.47005 0.71779 0.0
C498 C 0.60115 0.63818 0.75654 0.0
C499 C 0.57375 0.61672 0.78206 0.0
C500 C 0.59127 0.6123 0.72697 0.0
C501 C 0.55326 0.56344 0.72275 0.0
C502 C 0.52248 0.54372 0.74793 0.0
C503 C 0.53321 0.57054 0.77736 0.0
C504 C 0.62487 0.63496 0.7007 0.0
C505 C 0.48099 0.4923 0.74428 0.0
H506 H 0.50193 0.53594 0.61693 0.0
H507 H 0.64888 0.43881 0.65806 0.0
H508 H 0.44223 0.57984 0.69083 0.0
H509 H 0.48412 0.63063 0.67044 0.0
H510 H 0.43237 0.58264 0.64894 0.0
H511 H 0.66815 0.4322 0.71219 0.0
H512 H 0.67029 0.50664 0.7253 0.0
H513 H 0.61411 0.45927 0.73769 0.0
H514 H 0.63292 0.67343 0.75994 0.0
H515 H 0.51093 0.55441 0.79685 0.0
H516 H 0.59403 0.6414 0.67978 0.0
H517 H 0.65883 0.60286 0.69439 0.0
H518 H 0.64792 0.67655 0.70699 0.0
H519 H 0.4528 0.49387 0.72209 0.0
H520 H 0.4516 0.48988 0.76379 0.0
H521 H 0.50768 0.45205 0.74375 0.0
C522 C 0.60082 0.55302 0.42452 0.0
C523 C 0.61533 0.49574 0.43181 0.0
C524 C 0.5967 0.57085 0.39347 0.0
C525 C 0.60747 0.53032 0.36944 0.0
C526 C 0.6269 0.47388 0.37709 0.0
C527 C 0.6307 0.45741 0.40815 0.0
C528 C 0.57687 0.6317 0.38639 0.0
C529 C 0.6394 0.42932 0.35229 0.0
C530 C 0.52494 0.52852 0.2899 0.0
C531 C 0.57091 0.54133 0.27087 0.0
C532 C 0.53509 0.52917 0.32236 0.0
C533 C 0.59247 0.5436 0.3362 0.0
C534 C 0.63755 0.56148 0.31729 0.0
C535 C 0.62641 0.55971 0.28482 0.0
C536 C 0.48557 0.5102 0.34169 0.0
C537 C 0.69883 0.57853 0.3312 0.0
H538 H 0.58913 0.58292 0.44276 0.0
H539 H 0.64278 0.41329 0.41376 0.0
H540 H 0.6015 0.64961 0.36742 0.0
H541 H 0.52872 0.63141 0.37855 0.0
H542 H 0.58333 0.6608 0.4072 0.0
H543 H 0.65824 0.38883 0.36227 0.0
H544 H 0.59739 0.41851 0.33817 0.0
H545 H 0.67115 0.44679 0.33638 0.0
H546 H 0.48146 0.51585 0.27936 0.0
H547 H 0.66236 0.56967 0.2704 0.0
H548 H 0.48054 0.54133 0.36121 0.0
H549 H 0.49689 0.46762 0.35187 0.0
H550 H 0.44207 0.50614 0.32777 0.0
H551 H 0.69562 0.60664 0.35217 0.0
H552 H 0.7248 0.60154 0.31433 0.0
H553 H 0.72383 0.5392 0.3385 0.0
loop_
_geom_bond_atom_site_label_1
_geom_bond_atom_site_label_2
_geom_bond_distance
_geom_bond_site_symmetry_2
_ccdc_geom_bond_type
Zn0 O6 1.920 1_545 S
Zn0 O12 1.898 . S
Zn0 O15 1.905 1_545 S
Zn1 O9 1.905 . S
Zn1 O10 1.898 1_545 S
Zn1 O18 1.920 1_545 S
Zn2 O5 2.080 1_445 S
Zn2 O8 2.114 . S
Zn2 O11 2.120 1_545 S
Zn2 O13 2.120 1_455 S
Zn2 O14 2.114 1_554 S
Zn2 O17 2.080 . S
C3 O8 1.166 . S
C3 O9 1.182 . S
C4 O10 1.167 . S
C4 O11 1.299 . S
O5 Zn2 2.080 1_665 S
O5 C19 1.305 . S
O6 Zn0 1.920 1_565 S
O6 C19 1.234 1_556 S
C7 O12 1.167 . S
C7 O13 1.299 1_556 S
O8 Zn2 2.114 . S
O8 C3 1.166 . S
O9 Zn1 1.905 . S
O9 C3 1.182 . S
O10 Zn1 1.898 1_565 S
O10 C4 1.167 . S
O11 Zn2 2.120 1_565 S
O11 C4 1.299 . S
O12 Zn0 1.898 . S
O12 C7 1.167 . S
O13 Zn2 2.120 1_655 S
O13 C7 1.299 1_554 S
O14 Zn2 2.114 1_556 S
O14 C16 1.166 1_545 S
O15 Zn0 1.905 1_565 S
O15 C16 1.182 1_655 S
C16 O14 1.166 1_565 S
C16 O15 1.182 1_455 S
O17 Zn2 2.080 . S
O17 C20 1.305 1_545 S
O18 Zn1 1.920 1_565 S
O18 C20 1.234 . S
C19 O5 1.305 . S
C19 O6 1.234 1_554 S
C20 O17 1.305 1_565 S
C20 O18 1.234 . S
Zn21 O27 1.920 . S
Zn21 O33 1.898 . S
Zn21 O36 1.905 . S
Zn22 O30 1.905 . S
Zn22 O31 1.898 . S
Zn22 O39 1.920 . S
Zn23 O26 2.080 . S
Zn23 O29 2.114 . S
Zn23 O32 2.120 . S
Zn23 O34 2.120 . S
Zn23 O35 2.114 . S
Zn23 O38 2.080 . S
C24 O29 1.166 . S
C24 O30 1.182 . S
C25 O31 1.167 . S
C25 O32 1.299 . S
O26 Zn23 2.080 . S
O26 C40 1.305 . S
O27 Zn21 1.920 . S
O27 C40 1.234 . S
C28 O33 1.167 . S
C28 O34 1.299 . S
O29 Zn23 2.114 . S
O29 C24 1.166 . S
O30 Zn22 1.905 . S
O30 C24 1.182 . S
O31 Zn22 1.898 . S
O31 C25 1.167 . S
O32 Zn23 2.120 . S
O32 C25 1.299 . S
O33 Zn21 1.898 . S
O33 C28 1.167 . S
O34 Zn23 2.120 . S
O34 C28 1.299 . S
O35 Zn23 2.114 . S
O35 C37 1.166 . S
O36 Zn21 1.905 . S
O36 C37 1.182 . S
C37 O35 1.166 . S
C37 O36 1.182 . S
O38 Zn23 2.080 . S
O38 C41 1.305 . S
O39 Zn22 1.920 . S
O39 C41 1.234 . S
C40 O26 1.305 . S
C40 O27 1.234 . S
C41 O38 1.305 . S
C41 O39 1.234 . S
P42 O53 1.490 . S
P42 C56 1.812 . S
P42 C62 1.803 . S
P42 C68 1.819 . S
H43 C57 0.941 . S
H44 C58 0.939 . S
H45 C60 0.940 . S
H46 C61 0.940 . S
H47 C63 0.939 . S
H48 C64 0.942 . S
H49 C66 0.940 . S
H50 C67 0.939 . S
H51 C69 0.941 . S
H52 C73 0.939 1_565 S
O53 P42 1.490 . S
H54 C70 0.939 . S
H55 C72 0.940 1_565 S
C56 P42 1.812 . S
C56 C57 1.389 . S
C56 C61 1.391 . S
C57 H43 0.941 . S
C57 C56 1.389 . S
C57 C58 1.397 . S
C58 H44 0.939 . S
C58 C57 1.397 . S
C58 C59 1.378 1_455 S
C59 C58 1.378 1_655 S
C59 C60 1.378 . S
C60 H45 0.940 . S
C60 C59 1.378 . S
C60 C61 1.396 1_655 S
C61 H46 0.940 . S
C61 C56 1.391 . S
C61 C60 1.396 1_455 S
C62 P42 1.803 . S
C62 C63 1.378 . S
C62 C67 1.400 1_545 S
C63 H47 0.939 . S
C63 C62 1.378 . S
C63 C64 1.361 1_545 S
C64 H48 0.942 . S
C64 C63 1.361 1_565 S
C64 C65 1.369 . S
C65 C64 1.369 . S
C65 C66 1.404 . S
C66 H49 0.940 . S
C66 C65 1.404 . S
C66 C67 1.389 . S
C67 H50 0.939 . S
C67 C62 1.400 1_565 S
C67 C66 1.389 . S
C68 P42 1.819 . S
C68 C69 1.391 . S
C68 C73 1.391 . S
C69 H51 0.941 . S
C69 C68 1.391 . S
C69 C70 1.396 . S
C70 H54 0.939 . S
C70 C69 1.396 . S
C70 C71 1.397 . S
C71 C70 1.397 . S
C71 C72 1.385 . S
C72 H55 0.940 1_545 S
C72 C71 1.385 . S
C72 C73 1.388 . S
C73 H52 0.939 1_545 S
C73 C68 1.391 . S
C73 C72 1.388 . S
P74 O85 1.490 . S
P74 C88 1.812 1_455 S
P74 C94 1.803 1_565 S
P74 C100 1.819 . S
H75 C89 0.941 1_455 S
H76 C90 0.939 . S
H77 C92 0.940 . S
H78 C93 0.940 1_545 S
H79 C95 0.939 . S
H80 C96 0.942 . S
H81 C98 0.940 . S
H82 C99 0.939 . S
H83 C101 0.941 . S
H84 C105 0.939 . S
O85 P74 1.490 . S
H86 C102 0.939 . S
H87 C104 0.940 . S
C88 P74 1.812 1_655 S
C88 C89 1.389 . S
C88 C93 1.391 . S
C89 H75 0.941 1_655 S
C89 C88 1.389 . S
C89 C90 1.397 . S
C90 H76 0.939 . S
C90 C89 1.397 . S
C90 C91 1.378 . S
C91 C90 1.378 . S
C91 C92 1.378 . S
C92 H77 0.940 . S
C92 C91 1.378 . S
C92 C93 1.396 . S
C93 H78 0.940 1_565 S
C93 C88 1.391 . S
C93 C92 1.396 . S
C94 P74 1.803 1_545 S
C94 C95 1.378 . S
C94 C99 1.400 . S
C95 H79 0.939 . S
C95 C94 1.378 . S
C95 C96 1.361 . S
C96 H80 0.942 . S
C96 C95 1.361 . S
C96 C97 1.369 . S
C97 C96 1.369 . S
C97 C98 1.404 . S
C98 H81 0.940 . S
C98 C97 1.404 . S
C98 C99 1.389 . S
C99 H82 0.939 . S
C99 C94 1.400 . S
C99 C98 1.389 . S
C100 P74 1.819 . S
C100 C101 1.391 . S
C100 C105 1.391 1_565 S
C101 H83 0.941 . S
C101 C100 1.391 . S
C101 C102 1.396 . S
C102 H86 0.939 . S
C102 C101 1.396 . S
C102 C103 1.397 1_565 S
C103 C102 1.397 1_545 S
C103 C104 1.385 . S
C104 H87 0.940 . S
C104 C103 1.385 . S
C104 C105 1.388 . S
C105 H84 0.939 . S
C105 C100 1.391 1_545 S
C105 C104 1.388 . S
P106 O117 1.490 . S
P106 C120 1.812 . S
P106 C126 1.803 . S
P106 C132 1.819 . S
H107 C121 0.941 . S
H108 C122 0.939 . S
H109 C124 0.940 . S
H110 C125 0.940 . S
H111 C127 0.939 . S
H112 C128 0.942 . S
H113 C130 0.940 . S
H114 C131 0.939 . S
H115 C133 0.941 . S
H116 C137 0.939 . S
O117 P106 1.490 . S
H118 C134 0.939 . S
H119 C136 0.940 . S
C120 P106 1.812 . S
C120 C121 1.389 . S
C120 C125 1.391 . S
C121 H107 0.941 . S
C121 C120 1.389 . S
C121 C122 1.397 . S
C122 H108 0.939 . S
C122 C121 1.397 . S
C122 C123 1.378 . S
C123 C122 1.378 . S
C123 C124 1.378 . S
C124 H109 0.940 . S
C124 C123 1.378 . S
C124 C125 1.396 . S
C125 H110 0.940 . S
C125 C120 1.391 . S
C125 C124 1.396 . S
C126 P106 1.803 . S
C126 C127 1.378 . S
C126 C131 1.400 . S
C127 H111 0.939 . S
C127 C126 1.378 . S
C127 C128 1.361 . S
C128 H112 0.942 . S
C128 C127 1.361 . S
C128 C129 1.369 . S
C129 C128 1.369 . S
C129 C130 1.404 . S
C130 H113 0.940 . S
C130 C129 1.404 . S
C130 C131 1.389 . S
C131 H114 0.939 . S
C131 C126 1.400 . S
C131 C130 1.389 . S
C132 P106 1.819 . S
C132 C133 1.391 . S
C132 C137 1.391 . S
C133 H115 0.941 . S
C133 C132 1.391 . S
C133 C134 1.396 . S
C134 H118 0.939 . S
C134 C133 1.396 . S
C134 C135 1.397 . S
C135 C134 1.397 . S
C135 C136 1.385 . S
C136 H119 0.940 . S
C136 C135 1.385 . S
C136 C137 1.388 . S
C137 H116 0.939 . S
C137 C132 1.391 . S
C137 C136 1.388 . S
P138 O149 1.490 . S
P138 C152 1.812 . S
P138 C158 1.803 . S
P138 C164 1.819 . S
H139 C153 0.941 . S
H140 C154 0.939 . S
H141 C156 0.940 . S
H142 C157 0.940 . S
H143 C159 0.939 . S
H144 C160 0.942 . S
H145 C162 0.940 . S
H146 C163 0.939 . S
H147 C165 0.941 . S
H148 C169 0.939 . S
O149 P138 1.490 . S
H150 C166 0.939 . S
H151 C168 0.940 . S
C152 P138 1.812 . S
C152 C153 1.389 . S
C152 C157 1.391 . S
C153 H139 0.941 . S
C153 C152 1.389 . S
C153 C154 1.397 . S
C154 H140 0.939 . S
C154 C153 1.397 . S
C154 C155 1.378 . S
C155 C154 1.378 . S
C155 C156 1.378 . S
C156 H141 0.940 . S
C156 C155 1.378 . S
C156 C157 1.396 . S
C157 H142 0.940 . S
C157 C152 1.391 . S
C157 C156 1.396 . S
C158 P138 1.803 . S
C158 C159 1.378 . S
C158 C163 1.400 . S
C159 H143 0.939 . S
C159 C158 1.378 . S
C159 C160 1.361 . S
C160 H144 0.942 . S
C160 C159 1.361 . S
C160 C161 1.369 . S
C161 C160 1.369 . S
C161 C162 1.404 . S
C162 H145 0.940 . S
C162 C161 1.404 . S
C162 C163 1.389 . S
C163 H146 0.939 . S
C163 C158 1.400 . S
C163 C162 1.389 . S
C164 P138 1.819 . S
C164 C165 1.391 . S
C164 C169 1.391 . S
C165 H147 0.941 . S
C165 C164 1.391 . S
C165 C166 1.396 . S
C166 H150 0.939 . S
C166 C165 1.396 . S
C166 C167 1.397 . S
C167 C166 1.397 . S
C167 C168 1.385 . S
C168 H151 0.940 . S
C168 C167 1.385 . S
C168 C169 1.388 . S
C169 H148 0.939 . S
C169 C164 1.391 . S
C169 C168 1.388 . S
C170 C171 1.391 . S
C170 C172 1.394 . S
C170 H186 0.931 . S
C171 C170 1.391 . S
C171 C175 1.376 . S
C172 C170 1.394 . S
C172 C173 1.369 . S
C172 C176 1.531 . S
C173 C172 1.369 . S
C173 C174 1.410 . S
C173 C181 1.503 . S
C174 C173 1.410 . S
C174 C175 1.392 . S
C174 C177 1.511 1_554 S
C175 C171 1.376 . S
C175 C174 1.392 . S
C175 H187 0.929 1_554 S
C176 C172 1.531 . S
C176 H188 0.960 . S
C176 H189 0.962 . S
C176 H190 0.960 . S
C177 C174 1.511 1_556 S
C177 H191 0.961 . S
C177 H192 0.961 . S
C177 H193 0.961 . S
C178 C179 1.370 . S
C178 C180 1.363 . S
C178 H194 0.931 . S
C179 C178 1.370 . S
C179 C183 1.408 . S
C180 C178 1.363 . S
C180 C181 1.370 . S
C180 C184 1.524 . S
C181 C173 1.503 . S
C181 C180 1.370 . S
C181 C182 1.403 . S
C182 C181 1.403 . S
C182 C183 1.404 . S
C182 C185 1.539 . S
C183 C179 1.408 . S
C183 C182 1.404 . S
C183 H195 0.930 . S
C184 C180 1.524 . S
C184 H196 0.956 . S
C184 H197 0.961 . S
C184 H198 0.961 . S
C185 C182 1.539 . S
C185 H199 0.958 . S
C185 H200 0.961 . S
C185 H201 0.960 . S
H186 C170 0.931 . S
H187 C175 0.929 1_556 S
H188 C176 0.960 . S
H189 C176 0.962 . S
H190 C176 0.960 . S
H191 C177 0.961 . S
H192 C177 0.961 . S
H193 C177 0.961 . S
H194 C178 0.931 . S
H195 C183 0.930 . S
H196 C184 0.956 . S
H197 C184 0.961 . S
H198 C184 0.961 . S
H199 C185 0.958 . S
H200 C185 0.961 . S
H201 C185 0.960 . S
C202 C203 1.391 1_554 S
C202 C204 1.394 . S
C202 H218 0.931 . S
C203 C202 1.391 1_556 S
C203 C207 1.376 . S
C204 C202 1.394 . S
C204 C205 1.369 1_554 S
C204 C208 1.531 . S
C205 C204 1.369 1_556 S
C205 C206 1.410 . S
C205 C213 1.503 . S
C206 C205 1.410 . S
C206 C207 1.392 . S
C206 C209 1.511 . S
C207 C203 1.376 . S
C207 C206 1.392 . S
C207 H219 0.929 . S
C208 C204 1.531 . S
C208 H220 0.960 . S
C208 H221 0.962 . S
C208 H222 0.960 . S
C209 C206 1.511 . S
C209 H223 0.961 . S
C209 H224 0.961 . S
C209 H225 0.961 . S
C210 C211 1.370 . S
C210 C212 1.363 . S
C210 H226 0.931 . S
C211 C210 1.370 . S
C211 C215 1.408 . S
C212 C210 1.363 . S
C212 C213 1.370 . S
C212 C216 1.524 . S
C213 C205 1.503 . S
C213 C212 1.370 . S
C213 C214 1.403 . S
C214 C213 1.403 . S
C214 C215 1.404 . S
C214 C217 1.539 . S
C215 C211 1.408 . S
C215 C214 1.404 . S
C215 H227 0.930 . S
C216 C212 1.524 . S
C216 H228 0.956 . S
C216 H229 0.961 . S
C216 H230 0.961 . S
C217 C214 1.539 . S
C217 H231 0.958 1_556 S
C217 H232 0.961 . S
C217 H233 0.960 . S
H218 C202 0.931 . S
H219 C207 0.929 . S
H220 C208 0.960 . S
H221 C208 0.962 . S
H222 C208 0.960 . S
H223 C209 0.961 . S
H224 C209 0.961 . S
H225 C209 0.961 . S
H226 C210 0.931 . S
H227 C215 0.930 . S
H228 C216 0.956 . S
H229 C216 0.961 . S
H230 C216 0.961 . S
H231 C217 0.958 1_554 S
H232 C217 0.961 . S
H233 C217 0.960 . S
C234 C235 1.391 . S
C234 C236 1.394 . S
C234 H250 0.931 1_554 S
C235 C234 1.391 . S
C235 C239 1.376 . S
C236 C234 1.394 . S
C236 C237 1.369 . S
C236 C240 1.531 1_554 S
C237 C236 1.369 . S
C237 C238 1.410 . S
C237 C245 1.503 . S
C238 C237 1.410 . S
C238 C239 1.392 . S
C238 C241 1.511 . S
C239 C235 1.376 . S
C239 C238 1.392 . S
C239 H251 0.929 . S
C240 C236 1.531 1_556 S
C240 H252 0.960 . S
C240 H253 0.962 . S
C240 H254 0.960 . S
C241 C238 1.511 . S
C241 H255 0.961 . S
C241 H256 0.961 . S
C241 H257 0.961 . S
C242 C243 1.370 . S
C242 C244 1.363 . S
C242 H258 0.931 . S
C243 C242 1.370 . S
C243 C247 1.408 . S
C244 C242 1.363 . S
C244 C245 1.370 . S
C244 C248 1.524 . S
C245 C237 1.503 . S
C245 C244 1.370 . S
C245 C246 1.403 . S
C246 C245 1.403 . S
C246 C247 1.404 . S
C246 C249 1.539 . S
C247 C243 1.408 . S
C247 C246 1.404 . S
C247 H259 0.930 . S
C248 C244 1.524 . S
C248 H260 0.956 . S
C248 H261 0.961 . S
C248 H262 0.961 . S
C249 C246 1.539 . S
C249 H263 0.958 1_554 S
C249 H264 0.961 . S
C249 H265 0.960 . S
H250 C234 0.931 1_556 S
H251 C239 0.929 . S
H252 C240 0.960 . S
H253 C240 0.962 . S
H254 C240 0.960 . S
H255 C241 0.961 . S
H256 C241 0.961 . S
H257 C241 0.961 . S
H258 C242 0.931 . S
H259 C247 0.930 . S
H260 C248 0.956 . S
H261 C248 0.961 . S
H262 C248 0.961 . S
H263 C249 0.958 1_556 S
H264 C249 0.961 . S
H265 C249 0.960 . S
C266 C267 1.391 . S
C266 C268 1.394 . S
C266 H282 0.929 1_556 S
C267 C266 1.391 . S
C267 C271 1.376 . S
C268 C266 1.394 . S
C268 C269 1.369 . S
C268 C272 1.531 . S
C269 C268 1.369 . S
C269 C270 1.410 . S
C269 C277 1.503 . S
C270 C269 1.410 . S
C270 C271 1.392 . S
C270 C273 1.511 . S
C271 C267 1.376 . S
C271 C270 1.392 . S
C271 H283 0.929 . S
C272 C268 1.531 . S
C272 H284 0.960 . S
C272 H285 0.962 1_556 S
C272 H286 0.960 . S
C273 C270 1.511 . S
C273 H287 0.961 . S
C273 H288 0.961 . S
C273 H289 0.961 . S
C274 C275 1.370 . S
C274 C276 1.363 . S
C274 H290 0.931 1_556 S
C275 C274 1.370 . S
C275 C279 1.408 . S
C276 C274 1.363 . S
C276 C277 1.370 . S
C276 C280 1.524 1_556 S
C277 C269 1.503 . S
C277 C276 1.370 . S
C277 C278 1.403 . S
C278 C277 1.403 . S
C278 C279 1.404 . S
C278 C281 1.539 . S
C279 C275 1.408 . S
C279 C278 1.404 . S
C279 H291 0.930 . S
C280 C276 1.524 1_554 S
C280 H292 0.956 . S
C280 H293 0.961 . S
C280 H294 0.961 . S
C281 C278 1.539 . S
C281 H295 0.958 . S
C281 H296 0.961 . S
C281 H297 0.960 . S
H282 C266 0.929 1_554 S
H283 C271 0.929 . S
H284 C272 0.960 . S
H285 C272 0.962 1_554 S
H286 C272 0.960 . S
H287 C273 0.961 . S
H288 C273 0.961 . S
H289 C273 0.961 . S
H290 C274 0.931 1_554 S
H291 C279 0.930 . S
H292 C280 0.956 . S
H293 C280 0.961 . S
H294 C280 0.961 . S
H295 C281 0.958 . S
H296 C281 0.961 . S
H297 C281 0.960 . S
C298 C299 1.391 . S
C298 C300 1.394 . S
C298 H314 0.931 . S
C299 C298 1.391 . S
C299 C303 1.376 . S
C300 C298 1.394 . S
C300 C301 1.369 . S
C300 C304 1.531 . S
C301 C300 1.369 . S
C301 C302 1.410 . S
C301 C309 1.503 . S
C302 C301 1.410 . S
C302 C303 1.392 . S
C302 C305 1.511 . S
C303 C299 1.376 . S
C303 C302 1.392 . S
C303 H315 0.929 . S
C304 C300 1.531 . S
C304 H316 0.960 . S
C304 H317 0.962 . S
C304 H318 0.960 . S
C305 C302 1.511 . S
C305 H319 0.961 . S
C305 H320 0.961 . S
C305 H321 0.961 . S
C306 C307 1.370 . S
C306 C308 1.363 . S
C306 H322 0.931 . S
C307 C306 1.370 . S
C307 C311 1.408 . S
C308 C306 1.363 . S
C308 C309 1.370 . S
C308 C312 1.524 . S
C309 C301 1.503 . S
C309 C308 1.370 . S
C309 C310 1.403 . S
C310 C309 1.403 . S
C310 C311 1.404 . S
C310 C313 1.539 . S
C311 C307 1.408 . S
C311 C310 1.404 . S
C311 H323 0.930 . S
C312 C308 1.524 . S
C312 H324 0.956 . S
C312 H325 0.961 . S
C312 H326 0.961 . S
C313 C310 1.539 . S
C313 H327 0.958 . S
C313 H328 0.961 . S
C313 H329 0.960 . S
H314 C298 0.931 . S
H315 C303 0.929 . S
H316 C304 0.960 . S
H317 C304 0.962 . S
H318 C304 0.960 . S
H319 C305 0.961 . S
H320 C305 0.961 . S
H321 C305 0.961 . S
H322 C306 0.931 . S
H323 C311 0.930 . S
H324 C312 0.956 . S
H325 C312 0.961 . S
H326 C312 0.961 . S
H327 C313 0.958 . S
H328 C313 0.961 . S
H329 C313 0.960 . S
C330 C331 1.391 . S
C330 C332 1.394 . S
C330 H346 0.931 . S
C331 C330 1.391 . S
C331 C335 1.376 . S
C332 C330 1.394 . S
C332 C333 1.369 . S
C332 C336 1.531 . S
C333 C332 1.369 . S
C333 C334 1.410 . S
C333 C341 1.503 . S
C334 C333 1.410 . S
C334 C335 1.392 . S
C334 C337 1.511 . S
C335 C331 1.376 . S
C335 C334 1.392 . S
C335 H347 0.929 . S
C336 C332 1.531 . S
C336 H348 0.960 . S
C336 H349 0.962 . S
C336 H350 0.960 . S
C337 C334 1.511 . S
C337 H351 0.961 . S
C337 H352 0.961 . S
C337 H353 0.961 . S
C338 C339 1.370 . S
C338 C340 1.363 . S
C338 H354 0.931 . S
C339 C338 1.370 . S
C339 C343 1.408 . S
C340 C338 1.363 . S
C340 C341 1.370 . S
C340 C344 1.524 . S
C341 C333 1.503 . S
C341 C340 1.370 . S
C341 C342 1.403 . S
C342 C341 1.403 . S
C342 C343 1.404 . S
C342 C345 1.539 . S
C343 C339 1.408 . S
C343 C342 1.404 . S
C343 H355 0.930 . S
C344 C340 1.524 . S
C344 H356 0.956 . S
C344 H357 0.961 . S
C344 H358 0.961 . S
C345 C342 1.539 . S
C345 H359 0.958 . S
C345 H360 0.961 . S
C345 H361 0.960 . S
H346 C330 0.931 . S
H347 C335 0.929 . S
H348 C336 0.960 . S
H349 C336 0.962 . S
H350 C336 0.960 . S
H351 C337 0.961 . S
H352 C337 0.961 . S
H353 C337 0.961 . S
H354 C338 0.931 . S
H355 C343 0.930 . S
H356 C344 0.956 . S
H357 C344 0.961 . S
H358 C344 0.961 . S
H359 C345 0.958 . S
H360 C345 0.961 . S
H361 C345 0.960 . S
C362 C363 1.391 . S
C362 C364 1.394 . S
C362 H378 0.931 . S
C363 C362 1.391 . S
C363 C367 1.376 . S
C364 C362 1.394 . S
C364 C365 1.369 . S
C364 C368 1.531 . S
C365 C364 1.369 . S
C365 C366 1.410 . S
C365 C373 1.503 . S
C366 C365 1.410 . S
C366 C367 1.392 . S
C366 C369 1.511 . S
C367 C363 1.376 . S
C367 C366 1.392 . S
C367 H379 0.929 . S
C368 C364 1.531 . S
C368 H380 0.960 . S
C368 H381 0.962 . S
C368 H382 0.960 . S
C369 C366 1.511 . S
C369 H383 0.961 . S
C369 H384 0.961 . S
C369 H385 0.961 . S
C370 C371 1.370 . S
C370 C372 1.363 . S
C370 H386 0.931 . S
C371 C370 1.370 . S
C371 C375 1.408 . S
C372 C370 1.363 . S
C372 C373 1.370 . S
C372 C376 1.524 . S
C373 C365 1.503 . S
C373 C372 1.370 . S
C373 C374 1.403 . S
C374 C373 1.403 . S
C374 C375 1.404 . S
C374 C377 1.539 . S
C375 C371 1.408 . S
C375 C374 1.404 . S
C375 H387 0.930 . S
C376 C372 1.524 . S
C376 H388 0.956 . S
C376 H389 0.961 . S
C376 H390 0.961 . S
C377 C374 1.539 . S
C377 H391 0.958 . S
C377 H392 0.961 . S
C377 H393 0.960 . S
H378 C362 0.931 . S
H379 C367 0.929 . S
H380 C368 0.960 . S
H381 C368 0.962 . S
H382 C368 0.960 . S
H383 C369 0.961 . S
H384 C369 0.961 . S
H385 C369 0.961 . S
H386 C370 0.931 . S
H387 C375 0.930 . S
H388 C376 0.956 . S
H389 C376 0.961 . S
H390 C376 0.961 . S
H391 C377 0.958 . S
H392 C377 0.961 . S
H393 C377 0.960 . S
C394 C395 1.391 . S
C394 C396 1.394 . S
C394 H410 0.931 . S
C395 C394 1.391 . S
C395 C399 1.376 . S
C396 C394 1.394 . S
C396 C397 1.369 . S
C396 C400 1.531 . S
C397 C396 1.369 . S
C397 C398 1.410 . S
C397 C405 1.503 . S
C398 C397 1.410 . S
C398 C399 1.392 . S
C398 C401 1.511 . S
C399 C395 1.376 . S
C399 C398 1.392 . S
C399 H411 0.929 . S
C400 C396 1.531 . S
C400 H412 0.960 . S
C400 H413 0.962 . S
C400 H414 0.960 . S
C401 C398 1.511 . S
C401 H415 0.961 . S
C401 H416 0.961 . S
C401 H417 0.961 . S
C402 C403 1.370 . S
C402 C404 1.363 . S
C402 H418 0.931 . S
C403 C402 1.370 . S
C403 C407 1.408 . S
C404 C402 1.363 . S
C404 C405 1.370 . S
C404 C408 1.524 . S
C405 C397 1.503 . S
C405 C404 1.370 . S
C405 C406 1.403 . S
C406 C405 1.403 . S
C406 C407 1.404 . S
C406 C409 1.539 . S
C407 C403 1.408 . S
C407 C406 1.404 . S
C407 H419 0.930 . S
C408 C404 1.524 . S
C408 H420 0.956 . S
C408 H421 0.961 . S
C408 H422 0.961 . S
C409 C406 1.539 . S
C409 H423 0.958 . S
C409 H424 0.961 . S
C409 H425 0.960 . S
H410 C394 0.931 . S
H411 C399 0.929 . S
H412 C400 0.960 . S
H413 C400 0.962 . S
H414 C400 0.960 . S
H415 C401 0.961 . S
H416 C401 0.961 . S
H417 C401 0.961 . S
H418 C402 0.931 . S
H419 C407 0.930 . S
H420 C408 0.956 . S
H421 C408 0.961 . S
H422 C408 0.961 . S
H423 C409 0.958 . S
H424 C409 0.961 . S
H425 C409 0.960 . S
C426 C427 1.391 . S
C426 C428 1.394 . S
C426 H442 0.931 1_455 S
C427 C426 1.391 . S
C427 C431 1.376 1_565 S
C428 C426 1.394 . S
C428 C429 1.369 . S
C428 C432 1.531 1_455 S
C429 C428 1.369 . S
C429 C430 1.410 1_565 S
C429 C437 1.503 1_565 S
C430 C429 1.410 1_545 S
C430 C431 1.392 . S
C430 C433 1.511 . S
C431 C427 1.376 1_545 S
C431 C430 1.392 . S
C431 H443 0.929 . S
C432 C428 1.531 1_655 S
C432 H444 0.960 . S
C432 H445 0.962 . S
C432 H446 0.960 . S
C433 C430 1.511 . S
C433 H447 0.961 . S
C433 H448 0.961 . S
C433 H449 0.961 . S
C434 C435 1.370 . S
C434 C436 1.363 . S
C434 H450 0.931 . S
C435 C434 1.370 . S
C435 C439 1.408 1_545 S
C436 C434 1.363 . S
C436 C437 1.370 . S
C436 C440 1.524 . S
C437 C429 1.503 1_545 S
C437 C436 1.370 . S
C437 C438 1.403 1_545 S
C438 C437 1.403 1_565 S
C438 C439 1.404 . S
C438 C441 1.539 . S
C439 C435 1.408 1_565 S
C439 C438 1.404 . S
C439 H451 0.930 . S
C440 C436 1.524 . S
C440 H452 0.956 1_455 S
C440 H453 0.961 . S
C440 H454 0.961 . S
C441 C438 1.539 . S
C441 H455 0.958 . S
C441 H456 0.961 . S
C441 H457 0.960 . S
H442 C426 0.931 1_655 S
H443 C431 0.929 . S
H444 C432 0.960 . S
H445 C432 0.962 . S
H446 C432 0.960 . S
H447 C433 0.961 . S
H448 C433 0.961 . S
H449 C433 0.961 . S
H450 C434 0.931 . S
H451 C439 0.930 . S
H452 C440 0.956 1_655 S
H453 C440 0.961 . S
H454 C440 0.961 . S
H455 C441 0.958 . S
H456 C441 0.961 . S
H457 C441 0.960 . S
C458 C459 1.391 1_645 S
C458 C460 1.394 . S
C458 H474 0.931 . S
C459 C458 1.391 1_465 S
C459 C463 1.376 . S
C460 C458 1.394 . S
C460 C461 1.369 1_655 S
C460 C464 1.531 . S
C461 C460 1.369 1_455 S
C461 C462 1.410 1_545 S
C461 C469 1.503 . S
C462 C461 1.410 1_565 S
C462 C463 1.392 . S
C462 C465 1.511 . S
C463 C459 1.376 . S
C463 C462 1.392 . S
C463 H475 0.929 . S
C464 C460 1.531 . S
C464 H476 0.960 . S
C464 H477 0.962 . S
C464 H478 0.960 . S
C465 C462 1.511 . S
C465 H479 0.961 . S
C465 H480 0.961 . S
C465 H481 0.961 . S
C466 C467 1.370 1_665 S
C466 C468 1.363 . S
C466 H482 0.931 . S
C467 C466 1.370 1_445 S
C467 C471 1.408 . S
C468 C466 1.363 . S
C468 C469 1.370 1_665 S
C468 C472 1.524 . S
C469 C461 1.503 . S
C469 C468 1.370 1_445 S
C469 C470 1.403 . S
C470 C469 1.403 . S
C470 C471 1.404 . S
C470 C473 1.539 . S
C471 C467 1.408 . S
C471 C470 1.404 . S
C471 H483 0.930 . S
C472 C468 1.524 . S
C472 H484 0.956 . S
C472 H485 0.961 . S
C472 H486 0.961 . S
C473 C470 1.539 . S
C473 H487 0.958 . S
C473 H488 0.961 . S
C473 H489 0.960 . S
H474 C458 0.931 . S
H475 C463 0.929 . S
H476 C464 0.960 . S
H477 C464 0.962 . S
H478 C464 0.960 . S
H479 C465 0.961 . S
H480 C465 0.961 . S
H481 C465 0.961 . S
H482 C466 0.931 . S
H483 C471 0.930 . S
H484 C472 0.956 . S
H485 C472 0.961 . S
H486 C472 0.961 . S
H487 C473 0.958 . S
H488 C473 0.961 . S
H489 C473 0.960 . S
C490 C491 1.391 . S
C490 C492 1.394 . S
C490 H506 0.931 . S
C491 C490 1.391 . S
C491 C495 1.376 . S
C492 C490 1.394 . S
C492 C493 1.369 . S
C492 C496 1.531 . S
C493 C492 1.369 . S
C493 C494 1.410 . S
C493 C501 1.503 . S
C494 C493 1.410 . S
C494 C495 1.392 . S
C494 C497 1.511 . S
C495 C491 1.376 . S
C495 C494 1.392 . S
C495 H507 0.929 . S
C496 C492 1.531 . S
C496 H508 0.960 . S
C496 H509 0.962 . S
C496 H510 0.960 . S
C497 C494 1.511 . S
C497 H511 0.961 . S
C497 H512 0.961 . S
C497 H513 0.961 . S
C498 C499 1.370 . S
C498 C500 1.363 . S
C498 H514 0.931 . S
C499 C498 1.370 . S
C499 C503 1.408 . S
C500 C498 1.363 . S
C500 C501 1.370 . S
C500 C504 1.524 . S
C501 C493 1.503 . S
C501 C500 1.370 . S
C501 C502 1.403 . S
C502 C501 1.403 . S
C502 C503 1.404 . S
C502 C505 1.539 . S
C503 C499 1.408 . S
C503 C502 1.404 . S
C503 H515 0.930 . S
C504 C500 1.524 . S
C504 H516 0.956 . S
C504 H517 0.961 . S
C504 H518 0.961 . S
C505 C502 1.539 . S
C505 H519 0.958 . S
C505 H520 0.961 . S
C505 H521 0.960 . S
H506 C490 0.931 . S
H507 C495 0.929 . S
H508 C496 0.960 . S
H509 C496 0.962 . S
H510 C496 0.960 . S
H511 C497 0.961 . S
H512 C497 0.961 . S
H513 C497 0.961 . S
H514 C498 0.931 . S
H515 C503 0.930 . S
H516 C504 0.956 . S
H517 C504 0.961 . S
H518 C504 0.961 . S
H519 C505 0.958 . S
H520 C505 0.961 . S
H521 C505 0.960 . S
C522 C523 1.391 . S
C522 C524 1.394 . S
C522 H538 0.931 . S
C523 C522 1.391 . S
C523 C527 1.376 . S
C524 C522 1.394 . S
C524 C525 1.369 . S
C524 C528 1.531 . S
C525 C524 1.369 . S
C525 C526 1.410 . S
C525 C533 1.503 . S
C526 C525 1.410 . S
C526 C527 1.392 . S
C526 C529 1.511 . S
C527 C523 1.376 . S
C527 C526 1.392 . S
C527 H539 0.929 . S
C528 C524 1.531 . S
C528 H540 0.960 . S
C528 H541 0.962 . S
C528 H542 0.960 . S
C529 C526 1.511 . S
C529 H543 0.961 . S
C529 H544 0.961 . S
C529 H545 0.961 . S
C530 C531 1.370 . S
C530 C532 1.363 . S
C530 H546 0.931 . S
C531 C530 1.370 . S
C531 C535 1.408 . S
C532 C530 1.363 . S
C532 C533 1.370 . S
C532 C536 1.524 . S
C533 C525 1.503 . S
C533 C532 1.370 . S
C533 C534 1.403 . S
C534 C533 1.403 . S
C534 C535 1.404 . S
C534 C537 1.539 . S
C535 C531 1.408 . S
C535 C534 1.404 . S
C535 H547 0.930 . S
C536 C532 1.524 . S
C536 H548 0.956 . S
C536 H549 0.961 . S
C536 H550 0.961 . S
C537 C534 1.539 . S
C537 H551 0.958 . S
C537 H552 0.961 . S
C537 H553 0.960 . S
H538 C522 0.931 . S
H539 C527 0.929 . S
H540 C528 0.960 . S
H541 C528 0.962 . S
H542 C528 0.960 . S
H543 C529 0.961 . S
H544 C529 0.961 . S
H545 C529 0.961 . S
H546 C530 0.931 . S
H547 C535 0.930 . S
H548 C536 0.956 . S
H549 C536 0.961 . S
H550 C536 0.961 . S
H551 C537 0.958 . S
H552 C537 0.961 . S
H553 C537 0.960 . S
C179 C155 1.208 . S
C171 C3 1.052 . S
C203 C4 1.493 1_556 S
C211 C123 1.589 . S
C235 C19 1.508 . S
C243 C161 1.568 . S
C267 C7 1.088 . S
C275 C129 1.226 . S
C299 C37 1.172 . S
C307 C91 1.232 . S
C331 C28 1.452 . S
C339 C59 1.588 . S
C371 C97 1.571 . S
C363 C41 1.541 . S
C403 C65 1.222 . S
C395 C25 1.177 . S
C427 C20 1.303 . S
C435 C71 1.450 . S
C459 C16 1.355 . S
C467 C103 1.458 . S
C499 C135 1.456 . S
C491 C40 1.341 . S
C523 C24 1.350 . S
C531 C167 1.459 . S
