# Generated by pormake.
# Topology ctn, (3,4)-cn, num edge types: 1
# Building blocks:
#     Node 0, Type 0, BuildingBlock: MIDCAF_clean_linker_0, # of connection points: 3
#     Node 1, Type 0, BuildingBlock: MIDCAF_clean_linker_0, # of connection points: 3
#     Node 2, Type 0, BuildingBlock: MIDCAF_clean_linker_0, # of connection points: 3
#     Node 3, Type 0, BuildingBlock: MIDCAF_clean_linker_0, # of connection points: 3
#     Node 4, Type 0, BuildingBlock: MIDCAF_clean_linker_0, # of connection points: 3
#     Node 5, Type 0, BuildingBlock: MIDCAF_clean_linker_0, # of connection points: 3
#     Node 6, Type 0, BuildingBlock: MIDCAF_clean_linker_0, # of connection points: 3
#     Node 7, Type 0, BuildingBlock: MIDCAF_clean_linker_0, # of connection points: 3
#     Node 8, Type 0, BuildingBlock: MIDCAF_clean_linker_0, # of connection points: 3
#     Node 9, Type 0, BuildingBlock: MIDCAF_clean_linker_0, # of connection points: 3
#     Node 10, Type 0, BuildingBlock: MIDCAF_clean_linker_0, # of connection points: 3
#     Node 11, Type 0, BuildingBlock: MIDCAF_clean_linker_0, # of connection points: 3
#     Node 12, Type 0, BuildingBlock: MIDCAF_clean_linker_0, # of connection points: 3
#     Node 13, Type 0, BuildingBlock: MIDCAF_clean_linker_0, # of connection points: 3
#     Node 14, Type 0, BuildingBlock: MIDCAF_clean_linker_0, # of connection points: 3
#     Node 15, Type 0, BuildingBlock: MIDCAF_clean_linker_0, # of connection points: 3
#     Node 16, Type 1, BuildingBlock: TATPOV_clean_sbu_0, # of connection points: 4
#     Node 17, Type 1, BuildingBlock: TATPOV_clean_sbu_0, # of connection points: 4
#     Node 18, Type 1, BuildingBlock: TATPOV_clean_sbu_0, # of connection points: 4
#     Node 19, Type 1, BuildingBlock: TATPOV_clean_sbu_0, # of connection points: 4
#     Node 20, Type 1, BuildingBlock: TATPOV_clean_sbu_0, # of connection points: 4
#     Node 21, Type 1, BuildingBlock: TATPOV_clean_sbu_0, # of connection points: 4
#     Node 22, Type 1, BuildingBlock: TATPOV_clean_sbu_0, # of connection points: 4
#     Node 23, Type 1, BuildingBlock: TATPOV_clean_sbu_0, # of connection points: 4
#     Node 24, Type 1, BuildingBlock: TATPOV_clean_sbu_0, # of connection points: 4
#     Node 25, Type 1, BuildingBlock: TATPOV_clean_sbu_0, # of connection points: 4
#     Node 26, Type 1, BuildingBlock: TATPOV_clean_sbu_0, # of connection points: 4
#     Node 27, Type 1, BuildingBlock: TATPOV_clean_sbu_0, # of connection points: 4
#     Edge 28, Type (0, 1), BuildingBlock: XUDNAN_clean_linker_2, # of connection points: 2
#     Edge 29, Type (0, 1), BuildingBlock: XUDNAN_clean_linker_2, # of connection points: 2
#     Edge 30, Type (0, 1), BuildingBlock: XUDNAN_clean_linker_2, # of connection points: 2
#     Edge 31, Type (0, 1), BuildingBlock: XUDNAN_clean_linker_2, # of connection points: 2
#     Edge 32, Type (0, 1), BuildingBlock: XUDNAN_clean_linker_2, # of connection points: 2
#     Edge 33, Type (0, 1), BuildingBlock: XUDNAN_clean_linker_2, # of connection points: 2
#     Edge 34, Type (0, 1), BuildingBlock: XUDNAN_clean_linker_2, # of connection points: 2
#     Edge 35, Type (0, 1), BuildingBlock: XUDNAN_clean_linker_2, # of connection points: 2
#     Edge 36, Type (0, 1), BuildingBlock: XUDNAN_clean_linker_2, # of connection points: 2
#     Edge 37, Type (0, 1), BuildingBlock: XUDNAN_clean_linker_2, # of connection points: 2
#     Edge 38, Type (0, 1), BuildingBlock: XUDNAN_clean_linker_2, # of connection points: 2
#     Edge 39, Type (0, 1), BuildingBlock: XUDNAN_clean_linker_2, # of connection points: 2
#     Edge 40, Type (0, 1), BuildingBlock: XUDNAN_clean_linker_2, # of connection points: 2
#     Edge 41, Type (0, 1), BuildingBlock: XUDNAN_clean_linker_2, # of connection points: 2
#     Edge 42, Type (0, 1), BuildingBlock: XUDNAN_clean_linker_2, # of connection points: 2
#     Edge 43, Type (0, 1), BuildingBlock: XUDNAN_clean_linker_2, # of connection points: 2
#     Edge 44, Type (0, 1), BuildingBlock: XUDNAN_clean_linker_2, # of connection points: 2
#     Edge 45, Type (0, 1), BuildingBlock: XUDNAN_clean_linker_2, # of connection points: 2
#     Edge 46, Type (0, 1), BuildingBlock: XUDNAN_clean_linker_2, # of connection points: 2
#     Edge 47, Type (0, 1), BuildingBlock: XUDNAN_clean_linker_2, # of connection points: 2
#     Edge 48, Type (0, 1), BuildingBlock: XUDNAN_clean_linker_2, # of connection points: 2
#     Edge 49, Type (0, 1), BuildingBlock: XUDNAN_clean_linker_2, # of connection points: 2
#     Edge 50, Type (0, 1), BuildingBlock: XUDNAN_clean_linker_2, # of connection points: 2
#     Edge 51, Type (0, 1), BuildingBlock: XUDNAN_clean_linker_2, # of connection points: 2
#     Edge 52, Type (0, 1), BuildingBlock: XUDNAN_clean_linker_2, # of connection points: 2
#     Edge 53, Type (0, 1), BuildingBlock: XUDNAN_clean_linker_2, # of connection points: 2
#     Edge 54, Type (0, 1), BuildingBlock: XUDNAN_clean_linker_2, # of connection points: 2
#     Edge 55, Type (0, 1), BuildingBlock: XUDNAN_clean_linker_2, # of connection points: 2
#     Edge 56, Type (0, 1), BuildingBlock: XUDNAN_clean_linker_2, # of connection points: 2
#     Edge 57, Type (0, 1), BuildingBlock: XUDNAN_clean_linker_2, # of connection points: 2
#     Edge 58, Type (0, 1), BuildingBlock: XUDNAN_clean_linker_2, # of connection points: 2
#     Edge 59, Type (0, 1), BuildingBlock: XUDNAN_clean_linker_2, # of connection points: 2
#     Edge 60, Type (0, 1), BuildingBlock: XUDNAN_clean_linker_2, # of connection points: 2
#     Edge 61, Type (0, 1), BuildingBlock: XUDNAN_clean_linker_2, # of connection points: 2
#     Edge 62, Type (0, 1), BuildingBlock: XUDNAN_clean_linker_2, # of connection points: 2
#     Edge 63, Type (0, 1), BuildingBlock: XUDNAN_clean_linker_2, # of connection points: 2
#     Edge 64, Type (0, 1), BuildingBlock: XUDNAN_clean_linker_2, # of connection points: 2
#     Edge 65, Type (0, 1), BuildingBlock: XUDNAN_clean_linker_2, # of connection points: 2
#     Edge 66, Type (0, 1), BuildingBlock: XUDNAN_clean_linker_2, # of connection points: 2
#     Edge 67, Type (0, 1), BuildingBlock: XUDNAN_clean_linker_2, # of connection points: 2
#     Edge 68, Type (0, 1), BuildingBlock: XUDNAN_clean_linker_2, # of connection points: 2
#     Edge 69, Type (0, 1), BuildingBlock: XUDNAN_clean_linker_2, # of connection points: 2
#     Edge 70, Type (0, 1), BuildingBlock: XUDNAN_clean_linker_2, # of connection points: 2
#     Edge 71, Type (0, 1), BuildingBlock: XUDNAN_clean_linker_2, # of connection points: 2
#     Edge 72, Type (0, 1), BuildingBlock: XUDNAN_clean_linker_2, # of connection points: 2
#     Edge 73, Type (0, 1), BuildingBlock: XUDNAN_clean_linker_2, # of connection points: 2
#     Edge 74, Type (0, 1), BuildingBlock: XUDNAN_clean_linker_2, # of connection points: 2
#     Edge 75, Type (0, 1), BuildingBlock: XUDNAN_clean_linker_2, # of connection points: 2
# Relax obj value: 0.003
# Max RMSD: 0.048
# Mean RMSD: 0.021
data_MOF--net-ctn--node1-TATPOV_clean_sbu_0--node2-MIDCAF_clean_linker_0--edge1-XUDNAN_clean_linker_2
_symmetry_space_group_name_H-M    P1
_symmetry_Int_Tables_number       1
_symmetry_cell_setting            triclinic
loop_
_symmetry_equiv_pos_as_xyz
'x, y, z'
_cell_length_a     66.979845
_cell_length_b     66.958971
_cell_length_c     66.919121
_cell_angle_alpha  91.030522
_cell_angle_beta   91.025561
_cell_angle_gamma 91.07863
loop_
_atom_site_label
_atom_site_type_symbol
_atom_site_fract_x
_atom_site_fract_y
_atom_site_fract_z
_atom_type_partial_charge
C0 C 0.9812 0.04803 0.08304 0.0
C1 C 0.97983 0.02899 0.09148 0.0
C2 C 0.99359 0.01446 0.08586 0.0
C3 C 0.0084 0.01882 0.07208 0.0
H4 H 0.06539 0.0014 0.05616 0.0
H5 H 0.09215 0.97769 0.0508 0.0
H6 H 0.10972 0.00938 0.99813 0.0
H7 H 0.08307 0.03295 0.00328 0.0
H8 H 0.06242 0.07078 0.99141 0.0
H9 H 0.05769 0.09532 0.96564 0.0
H10 H 0.00273 0.11351 0.99262 0.0
H11 H 0.00739 0.08877 0.01878 0.0
H12 H 0.99645 0.06708 0.06264 0.0
H13 H 0.97072 0.05949 0.08707 0.0
H14 H 0.99304 -0.00027 0.09229 0.0
H15 H 0.01872 0.0072 0.0681 0.0
N16 N 0.04103 0.02971 0.04659 0.0
N17 N 0.05307 0.04867 0.02022 0.0
N18 N 0.02348 0.05779 0.03591 0.0
C19 C 0.05507 0.03297 0.03258 0.0
C20 C 0.03742 0.06119 0.02173 0.0
C21 C 0.02522 0.04205 0.04842 0.0
C22 C 0.07192 0.01906 0.03009 0.0
C23 C 0.07499 0.00338 0.04347 0.0
C24 C 0.0904 0.98984 0.04049 0.0
C25 C 0.10294 0.99158 0.02397 0.0
C26 C 0.10012 0.00746 0.01084 0.0
C27 C 0.08486 0.02105 0.01388 0.0
C28 C 0.03516 0.07753 0.00713 0.0
C29 C 0.04934 0.08001 0.99207 0.0
C30 C 0.04662 0.09408 0.97719 0.0
C31 C 0.02971 0.10614 0.97696 0.0
C32 C 0.01593 0.1044 0.99245 0.0
C33 C 0.01858 0.09017 0.00737 0.0
C34 C 0.00968 0.03777 0.06338 0.0
C35 C 0.99587 0.05233 0.069 0.0
C36 C 0.2236 0.64175 0.22196 0.0
C37 C 0.20389 0.64423 0.21495 0.0
C38 C 0.19836 0.66306 0.20792 0.0
C39 C 0.21211 0.67904 0.20814 0.0
H40 H 0.23743 0.72777 0.17061 0.0
H41 H 0.23742 0.75581 0.14789 0.0
H42 H 0.26833 0.7925 0.19288 0.0
H43 H 0.26921 0.76417 0.21509 0.0
H44 H 0.30412 0.73759 0.23776 0.0
H45 H 0.33282 0.73666 0.26032 0.0
H46 H 0.31457 0.67786 0.27924 0.0
H47 H 0.28585 0.67853 0.25627 0.0
H48 H 0.25224 0.65533 0.22809 0.0
H49 H 0.22858 0.62738 0.22705 0.0
H50 H 0.18326 0.66563 0.20267 0.0
H51 H 0.20727 0.69341 0.20291 0.0
N52 N 0.24309 0.7102 0.2057 0.0
N53 N 0.2719 0.72527 0.22015 0.0
N54 N 0.26195 0.69317 0.22967 0.0
C55 C 0.25605 0.72604 0.20727 0.0
C56 C 0.27501 0.70889 0.23138 0.0
C57 C 0.24592 0.69374 0.21695 0.0
C58 C 0.2536 0.74368 0.19451 0.0
C59 C 0.24401 0.74191 0.1757 0.0
C60 C 0.2439 0.75807 0.16271 0.0
C61 C 0.25311 0.77643 0.16839 0.0
C62 C 0.26157 0.77846 0.18774 0.0
C63 C 0.262 0.76224 0.20054 0.0
C64 C 0.29255 0.70818 0.24521 0.0
C65 C 0.30612 0.72442 0.24669 0.0
C66 C 0.32257 0.72395 0.25975 0.0
C67 C 0.32587 0.70726 0.27173 0.0
C68 C 0.31248 0.69088 0.27013 0.0
C69 C 0.29597 0.69134 0.25703 0.0
C70 C 0.23162 0.67663 0.21565 0.0
C71 C 0.23724 0.65777 0.22244 0.0
C72 C 0.96428 0.37823 0.01279 0.0
C73 C 0.95128 0.37892 0.99613 0.0
C74 C 0.93409 0.39055 0.99733 0.0
C75 C 0.93058 0.4022 0.01436 0.0
H76 H 0.89474 0.44722 0.03391 0.0
H77 H 0.87091 0.47399 0.03008 0.0
H78 H 0.8998 0.50669 0.07914 0.0
H79 H 0.92323 0.47981 0.08336 0.0
H80 H 0.96497 0.46712 0.09806 0.0
H81 H 0.9926 0.47227 0.1218 0.0
H82 H 0.0096 0.41089 0.1135 0.0
H83 H 0.98196 0.40561 0.08931 0.0
H84 H 0.9716 0.38973 0.04209 0.0
H85 H 0.97767 0.36943 0.01225 0.0
H86 H 0.92361 0.39108 0.98484 0.0
H87 H 0.91751 0.41148 0.01442 0.0
N88 N 0.92731 0.43089 0.04649 0.0
N89 N 0.94041 0.4469 0.07533 0.0
N90 N 0.95606 0.41865 0.06222 0.0
C91 C 0.9263 0.4457 0.06054 0.0
C92 C 0.95524 0.43341 0.07636 0.0
C93 C 0.9421 0.41727 0.04722 0.0
C94 C 0.91099 0.46134 0.0589 0.0
C95 C 0.89593 0.46004 0.04399 0.0
C96 C 0.88233 0.47546 0.04171 0.0
C97 C 0.8835 0.49255 0.05423 0.0
C98 C 0.89829 0.49364 0.06939 0.0
C99 C 0.91182 0.47822 0.07174 0.0
C100 C 0.97129 0.43595 0.09173 0.0
C101 C 0.97445 0.45462 0.10133 0.0
C102 C 0.99034 0.45764 0.11484 0.0
C103 C 0.00323 0.44201 0.11929 0.0
C104 C -0.0002 0.42315 0.11025 0.0
C105 C 0.98406 0.42019 0.0964 0.0
C106 C 0.94424 0.40257 0.03057 0.0
C107 C 0.96081 0.38996 0.02985 0.0
C108 C 0.73759 0.74219 0.16553 0.0
C109 C 0.72621 0.72434 0.16408 0.0
C110 C 0.70942 0.72215 0.17619 0.0
C111 C 0.70393 0.73754 0.18922 0.0
H112 H 0.66126 0.75259 0.23135 0.0
H113 H 0.62907 0.75099 0.24821 0.0
H114 H 0.63321 0.81443 0.2605 0.0
H115 H 0.66507 0.81618 0.24387 0.0
H116 H 0.69859 0.84202 0.22456 0.0
H117 H 0.71727 0.87298 0.23056 0.0
H118 H 0.77221 0.84296 0.21758 0.0
H119 H 0.75324 0.81182 0.21084 0.0
H120 H 0.74116 0.77118 0.17919 0.0
H121 H 0.75076 0.74424 0.15657 0.0
H122 H 0.70019 0.7087 0.17526 0.0
H123 H 0.69073 0.73537 0.1981 0.0
N124 N 0.69136 0.77055 0.21389 0.0
N125 N 0.69568 0.80334 0.22607 0.0
N126 N 0.71948 0.78966 0.20482 0.0
C127 C 0.68481 0.78604 0.22521 0.0
C128 C 0.713 0.80529 0.21603 0.0
C129 C 0.70865 0.77224 0.20359 0.0
C130 C 0.66573 0.78454 0.23609 0.0
C131 C 0.65533 0.76618 0.23772 0.0
C132 C 0.63699 0.76521 0.24747 0.0
C133 C 0.62863 0.78261 0.25549 0.0
C134 C 0.63921 0.80082 0.25423 0.0
C135 C 0.65754 0.80177 0.24473 0.0
C136 C 0.72448 0.82438 0.21756 0.0
C137 C 0.71464 0.84199 0.22282 0.0
C138 C 0.72537 0.85976 0.22632 0.0
C139 C 0.74629 0.86036 0.22499 0.0
C140 C 0.7561 0.843 0.21871 0.0
C141 C 0.74526 0.82516 0.21493 0.0
C142 C 0.71512 0.75553 0.19049 0.0
C143 C 0.73213 0.75759 0.1786 0.0
C144 C 0.05968 0.91457 0.49748 0.0
C145 C 0.04577 0.89888 0.4941 0.0
C146 C 0.03479 0.8981 0.47598 0.0
C147 C 0.03795 0.91252 0.46141 0.0
H148 H 0.00996 0.94998 0.41285 0.0
H149 H 0.98952 0.95428 0.38302 0.0
H150 H 0.04276 0.96715 0.34939 0.0
H151 H 0.06286 0.9645 0.37989 0.0
H152 H 0.09207 0.99719 0.41224 0.0
H153 H 0.11683 0.02364 0.41995 0.0
H154 H 0.11777 0.00655 0.48185 0.0
H155 H 0.09312 0.98027 0.47433 0.0
H156 H 0.07379 0.94073 0.48618 0.0
H157 H 0.06811 0.91584 0.51142 0.0
H158 H 0.02404 0.8861 0.47287 0.0
H159 H 0.02944 0.91134 0.44751 0.0
N160 N 0.04562 0.94295 0.43161 0.0
N161 N 0.06476 0.97035 0.42073 0.0
N162 N 0.07083 0.95713 0.45237 0.0
C163 C 0.04993 0.95651 0.41732 0.0
C164 C 0.07518 0.97083 0.43833 0.0
C165 C 0.05621 0.94306 0.44915 0.0
C166 C 0.03793 0.95699 0.39866 0.0
C167 C 0.01723 0.95359 0.39901 0.0
C168 C 0.00554 0.95591 0.38175 0.0
C169 C 0.01433 0.9611 0.3635 0.0
C170 C 0.03525 0.96367 0.36311 0.0
C171 C 0.04686 0.96196 0.38056 0.0
C172 C 0.09057 0.98659 0.44265 0.0
C173 C 0.09755 0.99907 0.42749 0.0
C174 C 0.11177 0.01417 0.43187 0.0
C175 C 0.11909 0.01722 0.45152 0.0
C176 C 0.11217 0.00472 0.46663 0.0
C177 C 0.09815 0.98954 0.46224 0.0
C178 C 0.05214 0.92805 0.46469 0.0
C179 C 0.06284 0.92895 0.48298 0.0
C180 C 0.22859 0.74094 0.8524 0.0
C181 C 0.21719 0.75827 0.85451 0.0
C182 C 0.20677 0.76526 0.83766 0.0
C183 C 0.20774 0.75521 0.81922 0.0
H184 H 0.1726 0.74108 0.7694 0.0
H185 H 0.1462 0.74559 0.74475 0.0
H186 H 0.17878 0.71082 0.70166 0.0
H187 H 0.20511 0.70575 0.72661 0.0
H188 H 0.23574 0.67069 0.75217 0.0
H189 H 0.26095 0.64477 0.7508 0.0
H190 H 0.29887 0.67996 0.79141 0.0
H191 H 0.27342 0.70525 0.79343 0.0
H192 H 0.23871 0.71777 0.83287 0.0
H193 H 0.23651 0.73484 0.86508 0.0
H194 H 0.19812 0.77874 0.83858 0.0
H195 H 0.19961 0.76107 0.80655 0.0
N196 N 0.20636 0.73015 0.78316 0.0
N197 N 0.2219 0.70696 0.76211 0.0
N198 N 0.23543 0.71448 0.79403 0.0
C199 C 0.20691 0.72001 0.76541 0.0
C200 C 0.23629 0.70425 0.77636 0.0
C201 C 0.2205 0.72742 0.79757 0.0
C202 C 0.19104 0.72301 0.75005 0.0
C203 C 0.17425 0.7344 0.75467 0.0
C204 C 0.15911 0.73713 0.74045 0.0
C205 C 0.16037 0.72866 0.72116 0.0
C206 C 0.17721 0.71736 0.71645 0.0
C207 C 0.19236 0.71453 0.73075 0.0
C208 C 0.25245 0.68981 0.77321 0.0
C209 C 0.24958 0.67294 0.7606 0.0
C210 C 0.26408 0.65814 0.75974 0.0
C211 C 0.28182 0.66008 0.77127 0.0
C212 C 0.28516 0.67765 0.78278 0.0
C213 C 0.27059 0.69222 0.78389 0.0
C214 C 0.21938 0.73808 0.8171 0.0
C215 C 0.2298 0.73107 0.8339 0.0
C216 C 0.96912 0.60981 0.50099 0.0
C217 C 0.95412 0.61678 0.51356 0.0
C218 C 0.93457 0.60912 0.51102 0.0
C219 C 0.93024 0.59424 0.49654 0.0
H220 H 0.88318 0.55464 0.46534 0.0
H221 H 0.85397 0.53328 0.47067 0.0
H222 H 0.89071 0.48115 0.46349 0.0
H223 H 0.91916 0.50262 0.45643 0.0
H224 H 0.9504 0.52111 0.41317 0.0
H225 H 0.97544 0.51427 0.38803 0.0
H226 H 0.01429 0.55985 0.41492 0.0
H227 H 0.98928 0.56701 0.43967 0.0
H228 H 0.97683 0.58996 0.47718 0.0
H229 H 0.98427 0.61568 0.50246 0.0
H230 H 0.92274 0.61425 0.52056 0.0
H231 H 0.91511 0.58833 0.49518 0.0
N232 N 0.92421 0.5592 0.47056 0.0
N233 N 0.93533 0.53825 0.44465 0.0
N234 N 0.95518 0.56547 0.456 0.0
C235 C 0.9212 0.5431 0.45816 0.0
C236 C 0.95232 0.54956 0.44334 0.0
C237 C 0.94128 0.57039 0.46964 0.0
C238 C 0.90332 0.53023 0.46038 0.0
C239 C 0.88479 0.53858 0.46463 0.0
C240 C 0.8681 0.52627 0.4679 0.0
C241 C 0.86974 0.5053 0.46767 0.0
C242 C 0.88846 0.4971 0.46331 0.0
C243 C 0.90493 0.50941 0.45939 0.0
C244 C 0.96771 0.5447 0.42842 0.0
C245 C 0.96429 0.52964 0.41376 0.0
C246 C 0.97869 0.52565 0.39939 0.0
C247 C 0.99682 0.5366 0.39938 0.0
C248 C 0.00034 0.55139 0.41425 0.0
C249 C 0.98598 0.55542 0.42854 0.0
C250 C 0.94536 0.58698 0.48418 0.0
C251 C 0.96479 0.59516 0.48641 0.0
C252 C 0.89986 0.80239 0.79056 0.0
C253 C 0.90116 0.81436 0.77358 0.0
C254 C 0.88808 0.83039 0.77158 0.0
C255 C 0.8736 0.83399 0.7859 0.0
H256 H 0.82698 0.87095 0.79857 0.0
H257 H 0.80124 0.8953 0.79146 0.0
H258 H 0.76439 0.86978 0.83711 0.0
H259 H 0.78986 0.84537 0.84416 0.0
H260 H 0.80128 0.80124 0.85963 0.0
H261 H 0.7956 0.77685 0.88578 0.0
H262 H 0.85911 0.76885 0.8922 0.0
H263 H 0.86494 0.79289 0.86553 0.0
H264 H 0.88447 0.79613 0.81753 0.0
H265 H 0.90963 0.78983 0.79246 0.0
H266 H 0.88891 0.84008 0.75882 0.0
H267 H 0.86357 0.84628 0.78363 0.0
N268 N 0.84163 0.83884 0.81366 0.0
N269 N 0.82328 0.82774 0.84091 0.0
N270 N 0.8528 0.81168 0.83222 0.0
C271 C 0.82565 0.84068 0.82571 0.0
C272 C 0.83682 0.81331 0.84434 0.0
C273 C 0.85527 0.82437 0.81677 0.0
C274 C 0.81049 0.85609 0.82188 0.0
C275 C 0.81342 0.87055 0.80715 0.0
C276 C 0.79874 0.88459 0.80314 0.0
C277 C 0.78078 0.88437 0.81366 0.0
C278 C 0.77798 0.87014 0.82857 0.0
C279 C 0.79266 0.85621 0.83267 0.0
C280 C 0.83357 0.79895 0.86053 0.0
C281 C 0.81407 0.79435 0.86663 0.0
C282 C 0.81078 0.78038 0.88152 0.0
C283 C 0.82694 0.77113 0.8909 0.0
C284 C 0.84647 0.77593 0.88514 0.0
C285 C 0.84976 0.78956 0.86988 0.0
C286 C 0.87181 0.82161 0.80257 0.0
C287 C 0.88534 0.80596 0.80489 0.0
C288 C 0.39006 0.29932 0.27908 0.0
C289 C 0.39155 0.31088 0.26183 0.0
C290 C 0.37765 0.32601 0.25865 0.0
C291 C 0.36233 0.32922 0.27217 0.0
H292 H 0.31928 0.37375 0.29865 0.0
H293 H 0.29401 0.39867 0.2923 0.0
H294 H 0.24783 0.35526 0.30633 0.0
H295 H 0.27327 0.33116 0.3142 0.0
H296 H 0.29549 0.30905 0.35824 0.0
H297 H 0.28995 0.28545 0.38487 0.0
H298 H 0.34104 0.25203 0.36602 0.0
H299 H 0.34654 0.27549 0.33913 0.0
H300 H 0.37382 0.29301 0.3055 0.0
H301 H 0.40042 0.28742 0.28187 0.0
H302 H 0.37857 0.33534 0.24563 0.0
H303 H 0.35174 0.34084 0.26906 0.0
N304 N 0.32974 0.33414 0.29946 0.0
N305 N 0.31083 0.32258 0.32621 0.0
N306 N 0.34065 0.30689 0.31803 0.0
C307 C 0.31343 0.33558 0.31112 0.0
C308 C 0.32446 0.3083 0.3299 0.0
C309 C 0.3434 0.31973 0.30275 0.0
C310 C 0.29819 0.35062 0.30698 0.0
C311 C 0.30369 0.3697 0.30046 0.0
C312 C 0.28913 0.38391 0.29667 0.0
C313 C 0.26868 0.37915 0.29874 0.0
C314 C 0.26332 0.35984 0.30506 0.0
C315 C 0.27791 0.34588 0.30941 0.0
C316 C 0.32144 0.29418 0.34644 0.0
C317 C 0.3056 0.29671 0.35973 0.0
C318 C 0.30249 0.28326 0.37512 0.0
C319 C 0.31507 0.2669 0.37755 0.0
C320 C 0.33098 0.2644 0.36439 0.0
C321 C 0.33417 0.27792 0.34904 0.0
C322 C 0.3605 0.31731 0.28917 0.0
C323 C 0.37471 0.30248 0.29258 0.0
C324 C 0.48539 0.88127 0.52522 0.0
C325 C 0.47009 0.87628 0.51129 0.0
C326 C 0.45335 0.8886 0.51006 0.0
C327 C 0.45224 0.90585 0.52201 0.0
H328 H 0.41938 0.9568 0.52942 0.0
H329 H 0.39296 0.98073 0.52389 0.0
H330 H 0.42161 0.02162 0.56657 0.0
H331 H 0.44775 0.99767 0.57245 0.0
H332 H 0.48661 0.98641 0.59441 0.0
H333 H 0.5119 0.99375 0.62016 0.0
H334 H 0.53857 0.93654 0.60867 0.0
H335 H 0.51311 0.92896 0.58308 0.0
H336 H 0.49656 0.90208 0.54748 0.0
H337 H 0.49859 0.87223 0.5264 0.0
H338 H 0.44113 0.88499 0.49972 0.0
H339 H 0.43924 0.91511 0.52042 0.0
N340 N 0.45227 0.94324 0.54434 0.0
N341 N 0.46673 0.96513 0.56843 0.0
N342 N 0.48189 0.9347 0.56106 0.0
C343 C 0.45193 0.96081 0.55483 0.0
C344 C 0.48175 0.95218 0.57166 0.0
C345 C 0.46721 0.93009 0.54738 0.0
C346 C 0.43574 0.97525 0.5514 0.0
C347 C 0.42005 0.97087 0.53767 0.0
C348 C 0.40494 0.98464 0.53441 0.0
C349 C 0.40517 0.00308 0.5448 0.0
C350 C 0.42082 0.00743 0.55854 0.0
C351 C 0.4359 0.9937 0.56181 0.0
C352 C 0.49769 0.95702 0.58672 0.0
C353 C 0.49788 0.97539 0.59727 0.0
C354 C 0.51249 0.97969 0.61195 0.0
C355 C 0.52721 0.96572 0.61645 0.0
C356 C 0.52727 0.94752 0.60567 0.0
C357 C 0.5127 0.94322 0.59095 0.0
C358 C 0.46782 0.91118 0.53553 0.0
C359 C 0.48427 0.8985 0.53721 0.0
C360 C 0.2455 0.23084 0.65444 0.0
C361 C 0.23257 0.21406 0.6534 0.0
C362 C 0.21718 0.21252 0.66732 0.0
C363 C 0.21494 0.22725 0.68211 0.0
H364 H 0.17698 0.24686 0.72605 0.0
H365 H 0.15056 0.24328 0.75038 0.0
H366 H 0.18286 0.28319 0.79126 0.0
H367 H 0.20936 0.28715 0.76674 0.0
H368 H 0.24747 0.31378 0.74677 0.0
H369 H 0.26838 0.34389 0.74667 0.0
H370 H 0.27316 0.33831 0.68243 0.0
H371 H 0.25322 0.30762 0.68279 0.0
H372 H 0.25363 0.25821 0.66968 0.0
H373 H 0.25766 0.23238 0.6441 0.0
H374 H 0.20675 0.19996 0.66674 0.0
H375 H 0.20294 0.22548 0.69261 0.0
N376 N 0.21241 0.25657 0.71402 0.0
N377 N 0.22274 0.28682 0.72951 0.0
N378 N 0.23772 0.27602 0.69986 0.0
C379 C 0.2107 0.27024 0.72911 0.0
C380 C 0.2362 0.28986 0.71483 0.0
C381 C 0.22597 0.25925 0.69942 0.0
C382 C 0.19526 0.26737 0.74442 0.0
C383 C 0.17859 0.25479 0.74026 0.0
C384 C 0.16342 0.25277 0.75414 0.0
C385 C 0.16473 0.26298 0.77262 0.0
C386 C 0.18161 0.27509 0.77711 0.0
C387 C 0.19667 0.27744 0.76305 0.0
C388 C 0.24875 0.30828 0.71481 0.0
C389 C 0.25304 0.319 0.73264 0.0
C390 C 0.26493 0.33638 0.73253 0.0
C391 C 0.2725 0.34372 0.71451 0.0
C392 C 0.268 0.333 0.69666 0.0
C393 C 0.25644 0.31542 0.69684 0.0
C394 C 0.22801 0.24394 0.68332 0.0
C395 C 0.24324 0.24562 0.66921 0.0
C396 C 0.72561 0.15973 0.76129 0.0
C397 C 0.71049 0.15342 0.74769 0.0
C398 C 0.70899 0.16271 0.72907 0.0
C399 C 0.72243 0.17806 0.72416 0.0
H400 H 0.72993 0.22813 0.68789 0.0
H401 H 0.72377 0.25106 0.66074 0.0
H402 H 0.77906 0.28264 0.67547 0.0
H403 H 0.78551 0.25951 0.70232 0.0
H404 H 0.81133 0.24604 0.74194 0.0
H405 H 0.84269 0.24701 0.76099 0.0
H406 H 0.83347 0.18514 0.7765 0.0
H407 H 0.80179 0.1845 0.75828 0.0
H408 H 0.75078 0.17912 0.76708 0.0
H409 H 0.72724 0.15267 0.77565 0.0
H410 H 0.69741 0.15813 0.71835 0.0
H411 H 0.72101 0.18489 0.70967 0.0
N412 N 0.74881 0.21295 0.71781 0.0
N413 N 0.78037 0.22815 0.72344 0.0
N414 N 0.77059 0.2006 0.74224 0.0
C415 C 0.76255 0.22734 0.7133 0.0
C416 C 0.78451 0.21473 0.73785 0.0
C417 C 0.75272 0.19962 0.73238 0.0
C418 C 0.75831 0.24183 0.69727 0.0
C419 C 0.74077 0.23999 0.68543 0.0
C420 C 0.73715 0.25324 0.6699 0.0
C421 C 0.75095 0.26866 0.66586 0.0
C422 C 0.76827 0.27074 0.67796 0.0
C423 C 0.77192 0.25748 0.69344 0.0
C424 C 0.80399 0.21525 0.7487 0.0
C425 C 0.81604 0.23265 0.7494 0.0
C426 C 0.8341 0.23314 0.76024 0.0
C427 C 0.84067 0.21615 0.77039 0.0
C428 C 0.82875 0.19865 0.76929 0.0
C429 C 0.81059 0.19825 0.75871 0.0
C430 C 0.73781 0.18408 0.73765 0.0
C431 C 0.73918 0.17479 0.75629 0.0
C432 C 0.48201 0.53972 0.582 0.0
C433 C 0.47675 0.52021 0.58751 0.0
C434 C 0.48677 0.50404 0.57894 0.0
C435 C 0.50167 0.50728 0.56494 0.0
H436 H 0.56043 0.48819 0.54871 0.0
H437 H 0.58602 0.46347 0.54248 0.0
H438 H 0.59746 0.48954 0.48519 0.0
H439 H 0.57191 0.51427 0.4913 0.0
H440 H 0.55261 0.55531 0.48092 0.0
H441 H 0.54958 0.58352 0.45883 0.0
H442 H 0.50798 0.61074 0.49921 0.0
H443 H 0.51052 0.58217 0.52108 0.0
H444 H 0.50011 0.55813 0.56334 0.0
H445 H 0.4744 0.5524 0.58837 0.0
H446 H 0.48297 0.48887 0.58302 0.0
H447 H 0.50895 0.49446 0.55844 0.0
N448 N 0.53546 0.51606 0.53938 0.0
N449 N 0.5473 0.53477 0.51263 0.0
N450 N 0.52041 0.54633 0.53131 0.0
C451 C 0.54859 0.51842 0.5243 0.0
C452 C 0.5333 0.54882 0.51603 0.0
C453 C 0.52135 0.52994 0.54299 0.0
C454 C 0.56406 0.50326 0.52052 0.0
C455 C 0.56834 0.48866 0.53476 0.0
C456 C 0.58309 0.47455 0.53126 0.0
C457 C 0.59372 0.47455 0.51334 0.0
C458 C 0.58937 0.48904 0.49905 0.0
C459 C 0.5748 0.50329 0.50263 0.0
C460 C 0.53181 0.56639 0.50284 0.0
C461 C 0.54284 0.5673 0.48517 0.0
C462 C 0.54118 0.58359 0.4725 0.0
C463 C 0.52856 0.5995 0.4772 0.0
C464 C 0.51762 0.59864 0.49493 0.0
C465 C 0.51918 0.58228 0.50756 0.0
C466 C 0.50654 0.52674 0.55887 0.0
C467 C 0.49663 0.54295 0.56763 0.0
C468 C 0.56197 0.42078 0.00293 0.0
C469 C 0.54905 0.40456 0.99812 0.0
C470 C 0.53858 0.40442 0.97971 0.0
C471 C 0.54102 0.42011 0.9664 0.0
H472 H 0.52131 0.441 0.91194 0.0
H473 H 0.50154 0.44254 0.88111 0.0
H474 H 0.53173 0.49777 0.8664 0.0
H475 H 0.55175 0.49614 0.89696 0.0
H476 H 0.58567 0.51388 0.92552 0.0
H477 H 0.60909 0.54102 0.93455 0.0
H478 H 0.61288 0.51945 0.99489 0.0
H479 H 0.58941 0.49237 0.98602 0.0
H480 H 0.57447 0.4487 0.99396 0.0
H481 H 0.57003 0.42151 0.0171 0.0
H482 H 0.52866 0.39203 0.97548 0.0
H483 H 0.53277 0.41945 0.95233 0.0
N484 N 0.54675 0.453 0.93926 0.0
N485 N 0.56197 0.48369 0.9316 0.0
N486 N 0.5692 0.46862 0.96212 0.0
C487 C 0.54932 0.46829 0.92638 0.0
C488 C 0.57193 0.48399 0.94945 0.0
C489 C 0.55669 0.45304 0.95716 0.0
C490 C 0.53806 0.46852 0.90708 0.0
C491 C 0.52388 0.4534 0.90208 0.0
C492 C 0.51247 0.45431 0.88443 0.0
C493 C 0.515 0.47032 0.87134 0.0
C494 C 0.52956 0.48512 0.87604 0.0
C495 C 0.54094 0.48424 0.89369 0.0
C496 C 0.5857 0.50085 0.95502 0.0
C497 C 0.59138 0.51495 0.94076 0.0
C498 C 0.60486 0.53047 0.94589 0.0
C499 C 0.61279 0.53235 0.96542 0.0
C500 C 0.60683 0.51851 0.97978 0.0
C501 C 0.5935 0.50289 0.97462 0.0
C502 C 0.55398 0.43634 0.97121 0.0
C503 C 0.5644 0.43646 0.98966 0.0
C504 C 0.74147 0.23271 0.34703 0.0
C505 C 0.73526 0.25226 0.3513 0.0
C506 C 0.7236 0.26207 0.33694 0.0
C507 C 0.71908 0.25286 0.31839 0.0
H508 H 0.67963 0.25151 0.27004 0.0
H509 H 0.65368 0.26376 0.24798 0.0
H510 H 0.66814 0.21915 0.20345 0.0
H511 H 0.69434 0.20662 0.22566 0.0
H512 H 0.73019 0.16503 0.25275 0.0
H513 H 0.75662 0.1405 0.24848 0.0
H514 H 0.80098 0.18627 0.2637 0.0
H515 H 0.77459 0.21016 0.26899 0.0
H516 H 0.74273 0.20881 0.32554 0.0
H517 H 0.74995 0.22444 0.35793 0.0
H518 H 0.71864 0.27716 0.33968 0.0
H519 H 0.71063 0.261 0.30737 0.0
N520 N 0.70817 0.22987 0.2815 0.0
N521 N 0.71925 0.20794 0.25633 0.0
N522 N 0.73698 0.21139 0.28682 0.0
C523 C 0.7058 0.22153 0.26287 0.0
C524 C 0.73494 0.20298 0.2683 0.0
C525 C 0.72359 0.22469 0.29361 0.0
C526 C 0.68925 0.22812 0.24962 0.0
C527 C 0.67733 0.24415 0.25562 0.0
C528 C 0.66248 0.25129 0.24292 0.0
C529 C 0.65904 0.24256 0.22392 0.0
C530 C 0.67047 0.22614 0.21805 0.0
C531 C 0.68552 0.21904 0.23075 0.0
C532 C 0.75045 0.18932 0.26141 0.0
C533 C 0.74565 0.1698 0.25474 0.0
C534 C 0.7608 0.15581 0.25226 0.0
C535 C 0.78094 0.16129 0.25618 0.0
C536 C 0.78564 0.18135 0.26117 0.0
C537 C 0.77055 0.1951 0.26404 0.0
C538 C 0.72636 0.23379 0.3138 0.0
C539 C 0.73725 0.22368 0.32847 0.0
C540 C 0.46822 0.11128 0.99633 0.0
C541 C 0.46102 0.11004 0.01583 0.0
C542 C 0.4485 0.09392 0.02081 0.0
C543 C 0.44297 0.07941 0.00636 0.0
H544 H 0.40106 0.03035 0.99163 0.0
H545 H 0.37423 0.00507 0.99311 0.0
H546 H 0.37256 0.0008 0.9286 0.0
H547 H 0.39961 0.02543 0.92718 0.0
H548 H 0.44562 0.02034 0.91132 0.0
H549 H 0.47014 0.00571 0.88949 0.0
H550 H 0.51633 0.04353 0.91662 0.0
H551 H 0.49171 0.05839 0.93875 0.0
H552 H 0.46889 0.09787 0.96708 0.0
H553 H 0.47793 0.12361 0.99221 0.0
H554 H 0.44272 0.09277 0.03578 0.0
H555 H 0.43315 0.06719 0.01053 0.0
N556 N 0.42679 0.05516 0.97255 0.0
N557 N 0.43425 0.0373 0.94328 0.0
N558 N 0.45728 0.06093 0.95645 0.0
C559 C 0.42145 0.04135 0.95822 0.0
C560 C 0.45222 0.04685 0.9423 0.0
C561 C 0.44458 0.06523 0.97153 0.0
C562 C 0.40267 0.02952 0.95931 0.0
C563 C 0.39461 0.02432 0.97779 0.0
C564 C 0.37922 0.00989 0.97863 0.0
C565 C 0.37159 0.00064 0.96097 0.0
C566 C 0.37849 0.00727 0.94248 0.0
C567 C 0.39395 0.02142 0.94167 0.0
C568 C 0.46671 0.04034 0.92709 0.0
C569 C 0.46093 0.02578 0.9126 0.0
C570 C 0.47498 0.01731 0.90009 0.0
C571 C 0.49516 0.02324 0.90163 0.0
C572 C 0.50084 0.03868 0.91517 0.0
C573 C 0.48673 0.04714 0.92785 0.0
C574 C 0.45028 0.08056 0.98684 0.0
C575 C 0.4631 0.09655 0.98202 0.0
Zn576 Zn 0.27684 0.84612 0.00591 0.0
Zn577 Zn 0.24534 0.86983 0.00784 0.0
O578 O 0.24774 0.85979 0.03691 0.0
O579 O 0.27571 0.84294 0.03569 0.0
O580 O 0.22118 0.88746 0.00725 0.0
O581 O 0.29297 0.86845 0.99445 0.0
O582 O 0.26809 0.88903 0.99895 0.0
C583 C 0.26129 0.84974 0.04551 0.0
C584 C 0.24546 0.8324 0.97988 0.0
O585 O 0.23742 0.84826 0.98651 0.0
O586 O 0.26235 0.82732 0.98664 0.0
C587 C 0.21458 0.89794 0.02164 0.0
O588 O 0.2237 0.89765 0.03918 0.0
C589 C 0.28589 0.88579 0.99346 0.0
Zn590 Zn 0.10282 0.45211 0.27578 0.0
Zn591 Zn 0.11869 0.4882 0.26354 0.0
O592 O 0.101 0.49597 0.28686 0.0
O593 O 0.08768 0.46766 0.29698 0.0
O594 O 0.13013 0.51453 0.25445 0.0
O595 O 0.13155 0.44356 0.28131 0.0
O596 O 0.14335 0.47222 0.27034 0.0
C597 C 0.08954 0.48651 0.29853 0.0
C598 C 0.09309 0.46165 0.23475 0.0
O599 O 0.10352 0.47723 0.23914 0.0
O600 O 0.09034 0.44833 0.24771 0.0
C601 C 0.12144 0.52486 0.24123 0.0
O602 O 0.10429 0.51848 0.23346 0.0
C603 C 0.14625 0.45491 0.27726 0.0
Zn604 Zn 0.77609 0.61577 0.97264 0.0
Zn605 Zn 0.76892 0.63498 0.00797 0.0
O606 O 0.78866 0.61352 0.01588 0.0
O607 O 0.79558 0.59812 0.98757 0.0
O608 O 0.76327 0.6488 0.0342 0.0
O609 O 0.78507 0.64234 0.96148 0.0
O610 O 0.78056 0.65724 0.99065 0.0
C611 C 0.79794 0.60006 0.00636 0.0
C612 C 0.73502 0.61279 0.98454 0.0
O613 O 0.74144 0.62349 0.99931 0.0
O614 O 0.74686 0.60747 0.97096 0.0
C615 C 0.75824 0.63822 0.04894 0.0
O616 O 0.75694 0.61871 0.04655 0.0
C617 C 0.78594 0.65792 0.9725 0.0
Zn618 Zn 0.8624 0.00143 0.27917 0.0
Zn619 Zn 0.87225 0.00042 0.24165 0.0
O620 O 0.86165 0.02913 0.24553 0.0
O621 O 0.85901 0.03118 0.27825 0.0
O622 O 0.88221 0.00019 0.21328 0.0
O623 O 0.88823 0.98999 0.28841 0.0
O624 O 0.89829 0.99402 0.25759 0.0
C625 C 0.85809 0.03927 0.26133 0.0
C626 C 0.83757 0.97427 0.25581 0.0
O627 O 0.84983 0.97847 0.24204 0.0
O628 O 0.83926 0.98298 0.27272 0.0
C629 C 0.89451 0.01387 0.20831 0.0
O630 O 0.89965 0.02787 0.22153 0.0
C631 C 0.90192 0.98936 0.27567 0.0
Zn632 Zn 0.28049 0.10738 0.46021 0.0
Zn633 Zn 0.27085 0.12614 0.49531 0.0
O634 O 0.29309 0.10733 0.5035 0.0
O635 O 0.30141 0.09188 0.47564 0.0
O636 O 0.26381 0.13953 0.52132 0.0
O637 O 0.28738 0.13477 0.44924 0.0
O638 O 0.27941 0.14928 0.47772 0.0
C639 C 0.30371 0.09467 0.49434 0.0
C640 C 0.2395 0.10077 0.47177 0.0
O641 O 0.24484 0.11193 0.48658 0.0
O642 O 0.25189 0.09654 0.4583 0.0
C643 C 0.25863 0.12878 0.53587 0.0
O644 O 0.25796 0.10926 0.53344 0.0
C645 C 0.28556 0.15047 0.45987 0.0
Zn646 Zn 0.36099 0.49398 0.77532 0.0
Zn647 Zn 0.37847 0.50333 0.74109 0.0
O648 O 0.36397 0.52964 0.74844 0.0
O649 O 0.35213 0.52228 0.77802 0.0
O650 O 0.39198 0.50888 0.71471 0.0
O651 O 0.38762 0.48674 0.78712 0.0
O652 O 0.40231 0.49717 0.75995 0.0
C653 C 0.35479 0.53471 0.76424 0.0
C654 C 0.34715 0.46857 0.74374 0.0
O655 O 0.36035 0.47855 0.73446 0.0
O656 O 0.34352 0.47289 0.76178 0.0
C657 C 0.38324 0.5046 0.6981 0.0
O658 O 0.36485 0.49743 0.69812 0.0
C659 C 0.40341 0.49022 0.77756 0.0
Zn660 Zn 0.78156 0.35167 0.50801 0.0
Zn661 Zn 0.7447 0.36437 0.50238 0.0
O662 O 0.7439 0.3518 0.53048 0.0
O663 O 0.77509 0.34336 0.5359 0.0
O664 O 0.71714 0.37575 0.49856 0.0
O665 O 0.79331 0.37864 0.50223 0.0
O666 O 0.76262 0.38976 0.49984 0.0
C667 C 0.75729 0.3444 0.5418 0.0
C668 C 0.76156 0.33199 0.47463 0.0
O669 O 0.74737 0.34368 0.47901 0.0
O670 O 0.77742 0.33227 0.4852 0.0
C671 C 0.7105 0.38765 0.5118 0.0
O672 O 0.72145 0.39157 0.52793 0.0
C673 C 0.78145 0.39284 0.49949 0.0
Zn674 Zn 0.61358 0.94871 0.77813 0.0
Zn675 Zn 0.62582 0.98751 0.77937 0.0
O676 O 0.60551 0.98629 0.80197 0.0
O677 O 0.59564 0.95473 0.80141 0.0
O678 O 0.63504 0.01628 0.77993 0.0
O679 O 0.64209 0.94062 0.78325 0.0
O680 O 0.65179 0.97223 0.78412 0.0
C681 C 0.59478 0.9722 0.8089 0.0
C682 C 0.60498 0.96936 0.74176 0.0
O683 O 0.61323 0.98395 0.7514 0.0
O684 O 0.60331 0.95243 0.74979 0.0
C685 C 0.64397 0.02361 0.76507 0.0
O686 O 0.64724 0.0121 0.7494 0.0
C687 C 0.65587 0.95377 0.78527 0.0
Zn688 Zn 0.99795 0.28048 0.84132 0.0
Zn689 Zn 0.00205 0.25303 0.86962 0.0
O690 O 0.02966 0.25455 0.85599 0.0
O691 O 0.02579 0.2762 0.83193 0.0
O692 O 0.00552 0.23015 0.88872 0.0
O693 O 0.99244 0.30024 0.86361 0.0
O694 O 0.99557 0.2777 0.887 0.0
C695 C 0.03664 0.26408 0.84125 0.0
C696 C 0.96899 0.24939 0.83644 0.0
O697 O 0.97779 0.24324 0.85217 0.0
O698 O 0.97509 0.2652 0.82825 0.0
C699 C 0.00909 0.21346 0.88027 0.0
O700 O 0.01021 0.2127 0.86068 0.0
C701 C 0.99201 0.29557 0.88187 0.0
Zn702 Zn 0.47053 0.77942 0.35478 0.0
Zn703 Zn 0.48726 0.74741 0.36896 0.0
O704 O 0.50768 0.75661 0.34771 0.0
O705 O 0.49272 0.7828 0.33545 0.0
O706 O 0.49997 0.72335 0.3815 0.0
O707 O 0.47163 0.79366 0.38114 0.0
O708 O 0.4846 0.76656 0.39361 0.0
C709 C 0.50726 0.77101 0.33545 0.0
C710 C 0.44554 0.74492 0.34884 0.0
O711 O 0.46046 0.73619 0.35669 0.0
O712 O 0.44602 0.76366 0.34681 0.0
C713 C 0.49023 0.71301 0.39393 0.0
O714 O 0.47179 0.71788 0.39791 0.0
C715 C 0.47831 0.7843 0.39599 0.0
Zn716 Zn 0.96726 0.77714 0.60643 0.0
Zn717 Zn 0.0036 0.7664 0.62196 0.0
O718 O 0.01117 0.78868 0.60291 0.0
O719 O 0.9823 0.79773 0.59001 0.0
O720 O 0.02984 0.7568 0.6328 0.0
O721 O 0.95916 0.78386 0.63501 0.0
O722 O 0.98864 0.77532 0.64681 0.0
C723 C 0.00116 0.79963 0.59118 0.0
C724 C 0.97671 0.73619 0.59809 0.0
O725 O 0.99242 0.74123 0.60806 0.0
O726 O 0.96319 0.74883 0.59507 0.0
C727 C 0.0414 0.76721 0.64426 0.0
O728 O 0.03637 0.78546 0.64932 0.0
C729 C 0.97115 0.78179 0.64969 0.0
Zn730 Zn 0.47187 0.27415 0.10106 0.0
Zn731 Zn 0.50726 0.26543 0.11946 0.0
O732 O 0.51431 0.28746 0.09964 0.0
O733 O 0.48583 0.29588 0.08555 0.0
O734 O 0.53358 0.26086 0.13364 0.0
O735 O 0.46037 0.28045 0.12837 0.0
O736 O 0.48939 0.2739 0.14247 0.0
C737 C 0.50457 0.29823 0.08752 0.0
C738 C 0.48488 0.23324 0.09468 0.0
O739 O 0.49939 0.23847 0.10631 0.0
O740 O 0.47161 0.24567 0.08998 0.0
C741 C 0.54266 0.27636 0.14067 0.0
O742 O 0.53453 0.29387 0.13818 0.0
C743 C 0.47133 0.2793 0.14392 0.0
H744 H 0.24767 0.76376 0.88223 0.0
H745 H 0.18544 0.77784 0.87119 0.0
H746 H 0.18519 0.79719 0.90294 0.0
H747 H 0.24322 0.75737 0.93607 0.0
H748 H 0.26769 0.76808 0.94131 0.0
H749 H 0.26267 0.75499 0.91795 0.0
H750 H 0.27442 0.78618 0.89862 0.0
H751 H 0.27945 0.79935 0.92189 0.0
H752 H 0.26291 0.80986 0.90349 0.0
H753 H 0.1926 0.81686 0.93517 0.0
H754 H 0.20686 0.83425 0.96529 0.0
H755 H 0.26329 0.80504 0.95576 0.0
C756 C 0.23381 0.77051 0.88659 0.0
C757 C 0.21659 0.76923 0.87407 0.0
C758 C 0.19896 0.77882 0.88029 0.0
C759 C 0.19861 0.78971 0.89841 0.0
C760 C 0.21591 0.79069 0.91029 0.0
C761 C 0.23312 0.7812 0.90467 0.0
C762 C 0.24986 0.78482 0.91983 0.0
C763 C 0.25623 0.76514 0.92935 0.0
C764 C 0.2677 0.7957 0.91039 0.0
C765 C 0.2395 0.79813 0.93473 0.0
C766 C 0.21993 0.80139 0.92902 0.0
C767 C 0.20783 0.81418 0.93992 0.0
C768 C 0.21604 0.824 0.95699 0.0
C769 C 0.23611 0.82084 0.96301 0.0
C770 C 0.24779 0.80751 0.9518 0.0
H771 H 0.00851 0.50046 0.38363 0.0
H772 H 0.01927 0.56442 0.37977 0.0
H773 H 0.04483 0.55848 0.35439 0.0
H774 H 0.05937 0.48562 0.37765 0.0
H775 H 0.05292 0.46377 0.36259 0.0
H776 H 0.03566 0.47297 0.38075 0.0
H777 H 0.00824 0.47539 0.35312 0.0
H778 H 0.02539 0.4661 0.33489 0.0
H779 H 0.01327 0.48957 0.33106 0.0
H780 H 0.06898 0.5457 0.32925 0.0
H781 H 0.08958 0.52696 0.30546 0.0
H782 H 0.06271 0.47133 0.32523 0.0
C783 C 0.01613 0.51323 0.37735 0.0
C784 C 0.01195 0.53291 0.38382 0.0
C785 C 0.02244 0.54919 0.37534 0.0
C786 C 0.03692 0.54598 0.36083 0.0
C787 C 0.04073 0.52641 0.35489 0.0
C788 C 0.03062 0.51031 0.36282 0.0
C789 C 0.03742 0.49079 0.35367 0.0
C790 C 0.04691 0.47751 0.36962 0.0
C791 C 0.02005 0.47982 0.34252 0.0
C792 C 0.05287 0.49846 0.3393 0.0
C793 C 0.0546 0.51905 0.34029 0.0
C794 C 0.06779 0.52957 0.32834 0.0
C795 C 0.07944 0.51878 0.31488 0.0
C796 C 0.0778 0.49766 0.31345 0.0
C797 C 0.06438 0.48744 0.32596 0.0
H798 H 0.80756 0.73533 0.88608 0.0
H799 H 0.83804 0.77346 0.93031 0.0
H800 H 0.83035 0.74887 0.95656 0.0
H801 H 0.76827 0.71738 0.91685 0.0
H802 H 0.76829 0.69235 0.90649 0.0
H803 H 0.77595 0.71308 0.89147 0.0
H804 H 0.80978 0.69617 0.88491 0.0
H805 H 0.80217 0.67534 0.89983 0.0
H806 H 0.82514 0.68878 0.90581 0.0
H807 H 0.81764 0.72065 0.97808 0.0
H808 H 0.80415 0.68951 0.99258 0.0
H809 H 0.78424 0.66908 0.93352 0.0
C810 C 0.8126 0.73841 0.90132 0.0
C811 C 0.82325 0.75619 0.90637 0.0
C812 C 0.82986 0.75981 0.92631 0.0
C813 C 0.8255 0.74601 0.94125 0.0
C814 C 0.81481 0.7286 0.93583 0.0
C815 C 0.80872 0.72465 0.91627 0.0
C816 C 0.79805 0.70459 0.91418 0.0
C817 C 0.77635 0.70701 0.90682 0.0
C818 C 0.80947 0.69038 0.90037 0.0
C819 C 0.79893 0.6979 0.93564 0.0
C820 C 0.80842 0.71203 0.94797 0.0
C821 C 0.81036 0.7094 0.96853 0.0
C822 C 0.80259 0.69174 0.97664 0.0
C823 C 0.79333 0.67687 0.96413 0.0
C824 C 0.79148 0.68009 0.9434 0.0
H825 H 0.97781 0.9436 0.35297 0.0
H826 H 0.02142 0.98742 0.33288 0.0
H827 H 0.99921 0.99522 0.3046 0.0
H828 H 0.95625 0.92825 0.30391 0.0
H829 H 0.93125 0.92726 0.31342 0.0
H830 H 0.9522 0.92197 0.32962 0.0
H831 H 0.94105 0.94938 0.35468 0.0
H832 H 0.92008 0.95467 0.33863 0.0
H833 H 0.93746 0.97443 0.34603 0.0
H834 H 0.97076 0.00068 0.28004 0.0
H835 H 0.93755 0.00575 0.26413 0.0
H836 H 0.91162 0.96153 0.30296 0.0
C837 C 0.98289 0.9548 0.34268 0.0
C838 C 0.00164 0.96469 0.34533 0.0
C839 C 0.00749 0.97909 0.33112 0.0
C840 C 0.99488 0.98375 0.31495 0.0
C841 C 0.97633 0.97408 0.31319 0.0
C842 C 0.9703 0.96003 0.32681 0.0
C843 C 0.94871 0.95369 0.32327 0.0
C844 C 0.94701 0.93147 0.31719 0.0
C845 C 0.93609 0.95833 0.34174 0.0
C846 C 0.94332 0.9669 0.30597 0.0
C847 C 0.95958 0.9781 0.29991 0.0
C848 C 0.95797 0.99187 0.28456 0.0
C849 C 0.93911 0.99461 0.27557 0.0
C850 C 0.92216 0.98403 0.2824 0.0
C851 C 0.92442 0.96976 0.29748 0.0
H852 H 0.24223 0.21833 0.61389 0.0
H853 H 0.22925 0.17355 0.65821 0.0
H854 H 0.23384 0.14693 0.63282 0.0
H855 H 0.21793 0.19292 0.5721 0.0
H856 H 0.23653 0.20048 0.55448 0.0
H857 H 0.23179 0.21604 0.57604 0.0
H858 H 0.26923 0.21508 0.58638 0.0
H859 H 0.27409 0.19954 0.56484 0.0
H860 H 0.28097 0.1913 0.58947 0.0
H861 H 0.24027 0.12517 0.60276 0.0
H862 H 0.24826 0.10978 0.57015 0.0
H863 H 0.25772 0.16877 0.54566 0.0
C864 C 0.24047 0.20293 0.61832 0.0
C865 C 0.23529 0.19806 0.63805 0.0
C866 C 0.2329 0.17769 0.64312 0.0
C867 C 0.23559 0.16245 0.62884 0.0
C868 C 0.2407 0.1678 0.60955 0.0
C869 C 0.24314 0.18754 0.60427 0.0
C870 C 0.24885 0.18925 0.58256 0.0
C871 C 0.23281 0.20033 0.57059 0.0
C872 C 0.26952 0.19939 0.58071 0.0
C873 C 0.24933 0.16738 0.57649 0.0
C874 C 0.24454 0.15526 0.59226 0.0
C875 C 0.24404 0.13451 0.59029 0.0
C876 C 0.2486 0.12591 0.5717 0.0
C877 C 0.25363 0.13805 0.55534 0.0
C878 C 0.25395 0.15906 0.55785 0.0
H879 H 0.47304 0.53441 0.62602 0.0
H880 H 0.44329 0.49756 0.58019 0.0
H881 H 0.41544 0.49089 0.60306 0.0
H882 H 0.46034 0.50285 0.66682 0.0
H883 H 0.45698 0.52315 0.68442 0.0
H884 H 0.47397 0.52608 0.66407 0.0
H885 H 0.45511 0.55747 0.65271 0.0
H886 H 0.43804 0.55461 0.67302 0.0
H887 H 0.42859 0.5557 0.64768 0.0
H888 H 0.39092 0.48831 0.63063 0.0
H889 H 0.37233 0.4877 0.66207 0.0
H890 H 0.41873 0.52466 0.69103 0.0
C891 C 0.46054 0.52509 0.62083 0.0
C892 C 0.46015 0.51656 0.60136 0.0
C893 C 0.44379 0.50418 0.59508 0.0
C894 C 0.42791 0.50039 0.60792 0.0
C895 C 0.42874 0.50893 0.62707 0.0
C896 C 0.4447 0.52086 0.63361 0.0
C897 C 0.44233 0.52728 0.65529 0.0
C898 C 0.45942 0.51936 0.66842 0.0
C899 C 0.44093 0.55012 0.65728 0.0
C900 C 0.42258 0.51706 0.65989 0.0
C901 C 0.41491 0.50678 0.6433 0.0
C902 C 0.39679 0.49627 0.64374 0.0
C903 C 0.38631 0.49606 0.66168 0.0
C904 C 0.39407 0.50609 0.67904 0.0
C905 C 0.41243 0.51679 0.67804 0.0
H906 H 0.77875 0.28198 0.63945 0.0
H907 H 0.71578 0.28537 0.65305 0.0
H908 H 0.71049 0.30651 0.62354 0.0
H909 H 0.78476 0.33304 0.62234 0.0
H910 H 0.80189 0.32601 0.60309 0.0
H911 H 0.80064 0.31187 0.6257 0.0
H912 H 0.7937 0.27945 0.60475 0.0
H913 H 0.7949 0.29347 0.58211 0.0
H914 H 0.77301 0.27845 0.58713 0.0
H915 H 0.71212 0.32641 0.59144 0.0
H916 H 0.7205 0.34275 0.55966 0.0
H917 H 0.78248 0.3265 0.56824 0.0
C918 C 0.76389 0.28746 0.63649 0.0
C919 C 0.7477 0.28206 0.64865 0.0
C920 C 0.72841 0.28916 0.64388 0.0
C921 C 0.72528 0.30129 0.62722 0.0
C922 C 0.7416 0.30623 0.61553 0.0
C923 C 0.76053 0.29955 0.62002 0.0
C924 C 0.7755 0.30634 0.60481 0.0
C925 C 0.79164 0.32014 0.61457 0.0
C926 C 0.78481 0.28836 0.59406 0.0
C927 C 0.76202 0.31772 0.59088 0.0
C928 C 0.74253 0.31762 0.59729 0.0
C929 C 0.72737 0.3267 0.58637 0.0
C930 C 0.73226 0.33594 0.56834 0.0
C931 C 0.75215 0.33597 0.56144 0.0
C932 C 0.76715 0.32689 0.57308 0.0
H933 H 0.53918 0.93994 0.64531 0.0
H934 H 0.54786 0.0007 0.62523 0.0
H935 H 0.57046 0.00784 0.65422 0.0
H936 H 0.5373 0.95144 0.69643 0.0
H937 H 0.55039 0.9296 0.70436 0.0
H938 H 0.53623 0.92891 0.68125 0.0
H939 H 0.56767 0.91807 0.66212 0.0
H940 H 0.58194 0.91865 0.68521 0.0
H941 H 0.59026 0.93307 0.66435 0.0
H942 H 0.59053 0.00876 0.68652 0.0
H943 H 0.60628 0.00349 0.71963 0.0
H944 H 0.58447 0.94196 0.71802 0.0
C945 C 0.54618 0.95462 0.64674 0.0
C946 C 0.54185 0.96975 0.63298 0.0
C947 C 0.55089 0.98893 0.63569 0.0
C948 C 0.56383 0.99308 0.65202 0.0
C949 C 0.56759 0.97787 0.66544 0.0
C950 C 0.55907 0.95901 0.66292 0.0
C951 C 0.56468 0.94556 0.67996 0.0
C952 C 0.54604 0.93847 0.69116 0.0
C953 C 0.57687 0.92779 0.67246 0.0
C954 C 0.57742 0.9599 0.69267 0.0
C955 C 0.57906 0.97841 0.68399 0.0
C956 C 0.58949 0.99427 0.69337 0.0
C957 C 0.59836 0.99113 0.71219 0.0
C958 C 0.59665 0.9723 0.72142 0.0
C959 C 0.58619 0.9565 0.71135 0.0
H960 H 0.87579 0.23617 0.76204 0.0
H961 H 0.84864 0.19781 0.80607 0.0
H962 H 0.87987 0.19931 0.8261 0.0
H963 H 0.92645 0.21772 0.76636 0.0
H964 H 0.93769 0.24221 0.76396 0.0
H965 H 0.91391 0.23642 0.752 0.0
H966 H 0.89826 0.26662 0.77029 0.0
H967 H 0.92198 0.27255 0.78219 0.0
H968 H 0.9002 0.2686 0.79717 0.0
H969 H 0.91362 0.20647 0.84234 0.0
H970 H 0.94619 0.2205 0.85435 0.0
H971 H 0.9503 0.25539 0.80046 0.0
C972 C 0.87632 0.22807 0.77588 0.0
C973 C 0.8597 0.21673 0.78231 0.0
C974 C 0.86125 0.20624 0.8005 0.0
C975 C 0.87893 0.20706 0.81207 0.0
C976 C 0.89495 0.21848 0.80532 0.0
C977 C 0.89376 0.22888 0.7877 0.0
C978 C 0.91257 0.24115 0.78443 0.0
C979 C 0.92329 0.23393 0.76557 0.0
C980 C 0.90797 0.26355 0.78347 0.0
C981 C 0.92436 0.23636 0.80317 0.0
C982 C 0.91411 0.22302 0.8149 0.0
C983 C 0.92184 0.21684 0.83322 0.0
C984 C 0.94036 0.22485 0.8399 0.0
C985 C 0.95077 0.23906 0.82838 0.0
C986 C 0.94274 0.24455 0.80963 0.0
H987 H 0.4606 0.87478 0.47144 0.0
H988 H 0.48447 0.83889 0.5193 0.0
H989 H 0.48905 0.8109 0.49523 0.0
H990 H 0.43333 0.83472 0.44536 0.0
H991 H 0.43872 0.84449 0.42108 0.0
H992 H 0.43702 0.86122 0.44232 0.0
H993 H 0.47251 0.87529 0.43537 0.0
H994 H 0.47438 0.85852 0.41419 0.0
H995 H 0.49311 0.8584 0.43387 0.0
H996 H 0.49152 0.78696 0.46514 0.0
H997 H 0.49147 0.76955 0.43211 0.0
H998 H 0.46557 0.82174 0.405 0.0
C999 C 0.46646 0.86094 0.47699 0.0
C1000 C 0.47207 0.859 0.49728 0.0
C1001 C 0.48018 0.84076 0.50378 0.0
C1002 C 0.48275 0.82476 0.49024 0.0
C1003 C 0.47713 0.82726 0.47029 0.0
C1004 C 0.4691 0.84491 0.46376 0.0
C1005 C 0.46458 0.84411 0.44157 0.0
C1006 C 0.44208 0.84626 0.43734 0.0
C1007 C 0.47688 0.86002 0.43061 0.0
C1008 C 0.47141 0.82329 0.43655 0.0
C1009 C 0.47858 0.8137 0.45323 0.0
C1010 C 0.48589 0.79433 0.45199 0.0
C1011 C 0.48582 0.78457 0.43318 0.0
C1012 C 0.47853 0.79425 0.41595 0.0
C1013 C 0.47125 0.81385 0.41783 0.0
H1014 H 0.12573 0.27045 0.7646 0.0
H1015 H 0.16607 0.25282 0.81216 0.0
H1016 H 0.13747 0.24993 0.83512 0.0
H1017 H 0.09489 0.3009 0.79543 0.0
H1018 H 0.07223 0.29423 0.78176 0.0
H1019 H 0.09582 0.29412 0.76927 0.0
H1020 H 0.08933 0.25722 0.75819 0.0
H1021 H 0.06576 0.25719 0.77072 0.0
H1022 H 0.08409 0.23878 0.77678 0.0
H1023 H 0.10369 0.24809 0.85241 0.0
H1024 H 0.0686 0.25063 0.86331 0.0
H1025 H 0.05152 0.27126 0.80446 0.0
C1026 C 0.12849 0.26587 0.77983 0.0
C1027 C 0.14797 0.26165 0.78665 0.0
C1028 C 0.15117 0.25608 0.80674 0.0
C1029 C 0.13504 0.25433 0.8198 0.0
C1030 C 0.11593 0.25847 0.81253 0.0
C1031 C 0.11269 0.26437 0.79306 0.0
C1032 C 0.09097 0.26879 0.78903 0.0
C1033 C 0.08833 0.29082 0.78356 0.0
C1034 C 0.08201 0.25465 0.77272 0.0
C1035 C 0.08239 0.2644 0.80925 0.0
C1036 C 0.0969 0.25823 0.8226 0.0
C1037 C 0.09225 0.25302 0.8421 0.0
C1038 C 0.07231 0.25443 0.84814 0.0
C1039 C 0.05741 0.26128 0.83478 0.0
C1040 C 0.06261 0.26617 0.81509 0.0
H1041 H 0.49481 0.6205 0.46751 0.0
H1042 H 0.55834 0.61788 0.45606 0.0
H1043 H 0.55532 0.64597 0.43293 0.0
H1044 H 0.47886 0.6328 0.41799 0.0
H1045 H 0.45988 0.64967 0.42618 0.0
H1046 H 0.46694 0.62911 0.44162 0.0
H1047 H 0.47489 0.6537 0.47117 0.0
H1048 H 0.46776 0.67432 0.45585 0.0
H1049 H 0.49214 0.67428 0.4677 0.0
H1050 H 0.54534 0.67438 0.41084 0.0
H1051 H 0.52935 0.70166 0.39244 0.0
H1052 H 0.47264 0.68642 0.41927 0.0
C1053 C 0.50816 0.62592 0.46033 0.0
C1054 C 0.52681 0.61681 0.46359 0.0
C1055 C 0.54381 0.6243 0.45359 0.0
C1056 C 0.54228 0.64035 0.44049 0.0
C1057 C 0.52366 0.64888 0.43757 0.0
C1058 C 0.50693 0.642 0.44729 0.0
C1059 C 0.48873 0.65394 0.44174 0.0
C1060 C 0.47266 0.64058 0.43126 0.0
C1061 C 0.4804 0.6647 0.46021 0.0
C1062 C 0.49784 0.66864 0.42739 0.0
C1063 C 0.51799 0.66541 0.42511 0.0
C1064 C 0.52957 0.67706 0.41253 0.0
C1065 C 0.52034 0.6925 0.40211 0.0
C1066 C 0.49974 0.69622 0.4044 0.0
C1067 C 0.48841 0.68402 0.41719 0.0
H1068 H 0.89417 0.81427 0.73315 0.0
H1069 H 0.94035 0.80343 0.77775 0.0
H1070 H 0.96365 0.79451 0.75089 0.0
H1071 H 0.90589 0.77422 0.70024 0.0
H1072 H 0.90063 0.78782 0.67781 0.0
H1073 H 0.88791 0.79393 0.70052 0.0
H1074 H 0.90019 0.83075 0.69824 0.0
H1075 H 0.91291 0.82477 0.67547 0.0
H1076 H 0.92654 0.83621 0.69629 0.0
H1077 H 0.98166 0.78623 0.71897 0.0
H1078 H 0.99285 0.77891 0.68468 0.0
H1079 H 0.93469 0.79546 0.66126 0.0
C1080 C 0.90928 0.81033 0.73729 0.0
C1081 C 0.91548 0.80964 0.75755 0.0
C1082 C 0.93524 0.80393 0.76233 0.0
C1083 C 0.9486 0.79894 0.74718 0.0
C1084 C 0.94194 0.79972 0.72735 0.0
C1085 C 0.92274 0.80528 0.7224 0.0
C1086 C 0.91909 0.80446 0.70002 0.0
C1087 C 0.9024 0.7892 0.69432 0.0
C1088 C 0.91441 0.82529 0.69204 0.0
C1089 C 0.93922 0.79748 0.69311 0.0
C1090 C 0.95223 0.79488 0.70907 0.0
C1091 C 0.97161 0.78826 0.70636 0.0
C1092 C 0.97782 0.78414 0.68682 0.0
C1093 C 0.96466 0.78661 0.67024 0.0
C1094 C 0.94515 0.79345 0.67356 0.0
H1095 H 0.01053 0.88179 0.50655 0.0
H1096 H 0.07476 0.88078 0.51629 0.0
H1097 H 0.07031 0.85577 0.54254 0.0
H1098 H 0.99696 0.87684 0.55774 0.0
H1099 H 0.97555 0.86083 0.55227 0.0
H1100 H 0.98373 0.87864 0.53416 0.0
H1101 H 0.98661 0.8502 0.50763 0.0
H1102 H 0.97833 0.83232 0.52563 0.0
H1103 H 0.00167 0.82889 0.51314 0.0
H1104 H 0.05893 0.83099 0.56779 0.0
H1105 H 0.04141 0.8076 0.58988 0.0
H1106 H 0.98461 0.82445 0.56341 0.0
C1107 C 0.02367 0.87616 0.51406 0.0
C1108 C 0.04299 0.88333 0.50943 0.0
C1109 C 0.05979 0.87575 0.51979 0.0
C1110 C 0.05743 0.86147 0.53466 0.0
C1111 C 0.03818 0.85486 0.53898 0.0
C1112 C 0.02159 0.8619 0.52895 0.0
C1113 C 0.00256 0.85233 0.53649 0.0
C1114 C 0.9889 0.8681 0.54571 0.0
C1115 C 0.99166 0.84021 0.51972 0.0
C1116 C 0.01105 0.83882 0.5523 0.0
C1117 C 0.03162 0.84053 0.55351 0.0
C1118 C 0.04282 0.82951 0.56699 0.0
C1119 C 0.03272 0.81627 0.57948 0.0
C1120 C 0.01163 0.81416 0.57841 0.0
C1121 C 0.00073 0.82571 0.56466 0.0
H1122 H 0.1385 0.76236 0.7146 0.0
H1123 H 0.14471 0.70087 0.69424 0.0
H1124 H 0.11622 0.70476 0.67083 0.0
H1125 H 0.0857 0.76159 0.71488 0.0
H1126 H 0.08326 0.78691 0.70658 0.0
H1127 H 0.10523 0.77985 0.72043 0.0
H1128 H 0.12756 0.79244 0.69185 0.0
H1129 H 0.10564 0.79957 0.6779 0.0
H1130 H 0.12325 0.78286 0.66677 0.0
H1131 H 0.08582 0.71469 0.65115 0.0
H1132 H 0.05576 0.72988 0.63657 0.0
H1133 H 0.06887 0.78463 0.67048 0.0
C1134 C 0.13392 0.74969 0.70522 0.0
C1135 C 0.14393 0.73131 0.70626 0.0
C1136 C 0.13753 0.7152 0.69352 0.0
C1137 C 0.12128 0.71723 0.68024 0.0
C1138 C 0.1116 0.73546 0.67984 0.0
C1139 C 0.1177 0.75142 0.69196 0.0
C1140 C 0.10422 0.76912 0.68927 0.0
C1141 C 0.094 0.77469 0.70896 0.0
C1142 C 0.11587 0.78705 0.68095 0.0
C1143 C 0.08937 0.76051 0.67397 0.0
C1144 C 0.09398 0.74113 0.66862 0.0
C1145 C 0.08214 0.7299 0.65512 0.0
C1146 C 0.06507 0.73867 0.64695 0.0
C1147 C 0.05994 0.75847 0.65236 0.0
C1148 C 0.0724 0.76951 0.66596 0.0
H1149 H 0.93456 0.65138 0.52242 0.0
H1150 H 0.98518 0.61598 0.54036 0.0
H1151 H 0.99493 0.6417 0.56578 0.0
H1152 H 0.95949 0.69803 0.5261 0.0
H1153 H 0.93851 0.71151 0.53555 0.0
H1154 H 0.93437 0.68951 0.52007 0.0
H1155 H 0.91287 0.67367 0.54765 0.0
H1156 H 0.91692 0.69566 0.56323 0.0
H1157 H 0.92323 0.67144 0.57255 0.0
H1158 H 0.0004 0.67186 0.58757 0.0
H1159 H 0.0018 0.70505 0.60405 0.0
H1160 H 0.9477 0.72126 0.57194 0.0
C1161 C 0.94747 0.64892 0.53198 0.0
C1162 C 0.95913 0.63173 0.52951 0.0
C1163 C 0.97615 0.62914 0.54198 0.0
C1164 C 0.98172 0.64358 0.55651 0.0
C1165 C 0.97009 0.6605 0.55839 0.0
C1166 C 0.95332 0.66327 0.5465 0.0
C1167 C 0.94418 0.68341 0.55076 0.0
C1168 C 0.94415 0.69638 0.532 0.0
C1169 C 0.92304 0.68089 0.55904 0.0
C1170 C 0.95867 0.69165 0.56662 0.0
C1171 C 0.97337 0.67809 0.57093 0.0
C1172 C 0.98889 0.68255 0.58447 0.0
C1173 C 0.98956 0.70148 0.59372 0.0
C1174 C 0.97485 0.71578 0.58932 0.0
C1175 C 0.95908 0.71062 0.57576 0.0
H1176 H 0.77979 0.87791 0.20819 0.0
H1177 H 0.73885 0.88386 0.25751 0.0
H1178 H 0.75685 0.91427 0.26916 0.0
H1179 H 0.82386 0.89362 0.23633 0.0
H1180 H 0.83492 0.90705 0.21608 0.0
H1181 H 0.81838 0.88602 0.21081 0.0
H1182 H 0.79615 0.90824 0.18867 0.0
H1183 H 0.81258 0.92937 0.19395 0.0
H1184 H 0.78633 0.93097 0.19908 0.0
H1185 H 0.77898 0.94311 0.2762 0.0
H1186 H 0.80525 0.96905 0.27911 0.0
H1187 H 0.83309 0.94521 0.22581 0.0
C1188 C 0.77465 0.88562 0.22143 0.0
C1189 C 0.75765 0.87864 0.23172 0.0
C1190 C 0.75146 0.88916 0.24903 0.0
C1191 C 0.76166 0.9064 0.25587 0.0
C1192 C 0.77814 0.91298 0.24533 0.0
C1193 C 0.78473 0.90298 0.22855 0.0
C1194 C 0.80329 0.9132 0.22046 0.0
C1195 C 0.82117 0.89914 0.22096 0.0
C1196 C 0.79934 0.9209 0.19928 0.0
C1197 C 0.80609 0.93036 0.23547 0.0
C1198 C 0.79128 0.92987 0.24958 0.0
C1199 C 0.79066 0.94372 0.26525 0.0
C1200 C 0.80572 0.95839 0.26676 0.0
C1201 C 0.82129 0.95919 0.25271 0.0
C1202 C 0.82132 0.94508 0.23669 0.0
H1203 H 0.78581 0.12755 0.2321 0.0
H1204 H 0.81144 0.15976 0.28367 0.0
H1205 H 0.8366 0.13393 0.28748 0.0
H1206 H 0.79007 0.07983 0.25234 0.0
H1207 H 0.7963 0.0673 0.22927 0.0
H1208 H 0.78171 0.08958 0.22875 0.0
H1209 H 0.80748 0.10609 0.20547 0.0
H1210 H 0.8222 0.08383 0.20598 0.0
H1211 H 0.83341 0.10764 0.21311 0.0
H1212 H 0.85626 0.10335 0.28867 0.0
H1213 H 0.86953 0.06926 0.28686 0.0
H1214 H 0.83231 0.05617 0.23439 0.0
C1215 C 0.79687 0.12929 0.24403 0.0
C1216 C 0.79678 0.14598 0.25733 0.0
C1217 C 0.81146 0.14753 0.27286 0.0
C1218 C 0.82582 0.13284 0.27526 0.0
C1219 C 0.82543 0.1166 0.26202 0.0
C1220 C 0.81142 0.11469 0.24666 0.0
C1221 C 0.81355 0.09493 0.23548 0.0
C1222 C 0.79427 0.08216 0.23653 0.0
C1223 C 0.81952 0.09833 0.21371 0.0
C1224 C 0.83049 0.08584 0.24741 0.0
C1225 C 0.83718 0.09875 0.26254 0.0
C1226 C 0.85147 0.09324 0.27666 0.0
C1227 C 0.85889 0.07387 0.27554 0.0
C1228 C 0.85216 0.06031 0.26032 0.0
C1229 C 0.83809 0.0665 0.24582 0.0
H1230 H 0.33912 0.99341 0.98517 0.0
H1231 H 0.37516 0.96647 0.93896 0.0
H1232 H 0.35536 0.93537 0.94085 0.0
H1233 H 0.33475 0.95034 0.0148 0.0
H1234 H 0.30923 0.95427 0.02179 0.0
H1235 H 0.32509 0.97528 0.01589 0.0
H1236 H 0.29945 0.98613 0.98895 0.0
H1237 H 0.28348 0.96515 0.99481 0.0
H1238 H 0.2915 0.96861 0.96951 0.0
H1239 H 0.33446 0.90653 0.94946 0.0
H1240 H 0.31201 0.88119 0.96362 0.0
H1241 H 0.28801 0.92598 0.00376 0.0
C1242 C 0.34266 0.98102 0.97533 0.0
C1243 C 0.35852 0.98251 0.9617 0.0
C1244 C 0.3628 0.96591 0.94916 0.0
C1245 C 0.35171 0.9481 0.95019 0.0
C1246 C 0.33629 0.94707 0.96378 0.0
C1247 C 0.33159 0.96304 0.97606 0.0
C1248 C 0.31464 0.95748 0.98981 0.0
C1249 C 0.32134 0.95946 0.01188 0.0
C1250 C 0.29617 0.9701 0.98551 0.0
C1251 C 0.31097 0.93577 0.98361 0.0
C1252 C 0.32368 0.93021 0.96854 0.0
C1253 C 0.32421 0.91073 0.96106 0.0
C1254 C 0.31148 0.89643 0.96926 0.0
C1255 C 0.29824 0.90169 0.98466 0.0
C1256 C 0.29777 0.92169 0.99176 0.0
H1257 H 0.23156 0.38309 0.31577 0.0
H1258 H 0.26974 0.4089 0.27068 0.0
H1259 H 0.24362 0.43291 0.26259 0.0
H1260 H 0.18739 0.38427 0.2857 0.0
H1261 H 0.17128 0.38949 0.30636 0.0
H1262 H 0.19389 0.37592 0.3104 0.0
H1263 H 0.20536 0.40192 0.33759 0.0
H1264 H 0.1828 0.41564 0.33358 0.0
H1265 H 0.20678 0.42802 0.33147 0.0
H1266 H 0.21301 0.45369 0.25872 0.0
H1267 H 0.17911 0.46754 0.25718 0.0
H1268 H 0.15978 0.4257 0.30203 0.0
C1269 C 0.23455 0.39364 0.30409 0.0
C1270 C 0.25301 0.39404 0.29407 0.0
C1271 C 0.25609 0.40847 0.27907 0.0
C1272 C 0.24124 0.42215 0.27423 0.0
C1273 C 0.22324 0.42111 0.28427 0.0
C1274 C 0.21975 0.40707 0.29871 0.0
C1275 C 0.19857 0.40806 0.30617 0.0
C1276 C 0.18711 0.38826 0.30189 0.0
C1277 C 0.19838 0.41375 0.32853 0.0
C1278 C 0.19062 0.42471 0.29348 0.0
C1279 C 0.20521 0.43231 0.28123 0.0
C1280 C 0.20145 0.44785 0.26822 0.0
C1281 C 0.18218 0.45565 0.2675 0.0
C1282 C 0.16683 0.44762 0.27943 0.0
C1283 C 0.1712 0.43205 0.29267 0.0
H1284 H 0.15325 0.02618 0.43137 0.0
H1285 H 0.11891 0.04395 0.48286 0.0
H1286 H 0.14507 0.06902 0.4924 0.0
H1287 H 0.20021 0.0291 0.45529 0.0
H1288 H 0.21335 0.03863 0.4341 0.0
H1289 H 0.19112 0.02344 0.43026 0.0
H1290 H 0.17513 0.05142 0.40942 0.0
H1291 H 0.19738 0.06669 0.41312 0.0
H1292 H 0.17344 0.07622 0.4201 0.0
H1293 H 0.17582 0.09051 0.49751 0.0
H1294 H 0.20922 0.10669 0.4981 0.0
H1295 H 0.22355 0.07482 0.44325 0.0
C1296 C 0.15106 0.03566 0.4444 0.0
C1297 C 0.13407 0.03321 0.45636 0.0
C1298 C 0.13191 0.04554 0.47358 0.0
C1299 C 0.14661 0.05988 0.47904 0.0
C1300 C 0.16334 0.0617 0.4671 0.0
C1301 C 0.16563 0.04997 0.45012 0.0
C1302 C 0.18558 0.05408 0.44057 0.0
C1303 C 0.19831 0.03519 0.44004 0.0
C1304 C 0.1827 0.06262 0.41956 0.0
C1305 C 0.19429 0.06968 0.45505 0.0
C1306 C 0.18116 0.07401 0.47014 0.0
C1307 C 0.18617 0.08739 0.48568 0.0
C1308 C 0.2052 0.09649 0.48589 0.0
C1309 C 0.21902 0.09208 0.4707 0.0
C1310 C 0.21332 0.07863 0.455 0.0
H1311 H 0.70085 0.12017 0.72491 0.0
H1312 H 0.69014 0.14865 0.78234 0.0
H1313 H 0.67013 0.11919 0.79233 0.0
H1314 H 0.65175 0.09452 0.71909 0.0
H1315 H 0.66237 0.07254 0.70792 0.0
H1316 H 0.6741 0.09667 0.70461 0.0
H1317 H 0.70738 0.08321 0.71881 0.0
H1318 H 0.69574 0.05912 0.7223 0.0
H1319 H 0.70784 0.0721 0.74316 0.0
H1320 H 0.65328 0.08588 0.79687 0.0
H1321 H 0.64078 0.05096 0.79574 0.0
H1322 H 0.66293 0.04401 0.73546 0.0
C1323 C 0.69387 0.12038 0.73939 0.0
C1324 C 0.69688 0.13668 0.75283 0.0
C1325 C 0.68799 0.13625 0.77186 0.0
C1326 C 0.67656 0.11964 0.77762 0.0
C1327 C 0.6742 0.10361 0.76417 0.0
C1328 C 0.68254 0.10385 0.74542 0.0
C1329 C 0.67884 0.08419 0.73431 0.0
C1330 C 0.666 0.08717 0.71536 0.0
C1331 C 0.69863 0.07406 0.72937 0.0
C1332 C 0.66741 0.07275 0.74987 0.0
C1333 C 0.66473 0.08428 0.76691 0.0
C1334 C 0.65514 0.07675 0.78355 0.0
C1335 C 0.64813 0.05688 0.78277 0.0
C1336 C 0.65087 0.04474 0.76552 0.0
C1337 C 0.66055 0.0529 0.74885 0.0
H1338 H 0.38793 0.01319 0.50891 0.0
H1339 H 0.38647 0.02639 0.57263 0.0
H1340 H 0.36073 0.05161 0.56662 0.0
H1341 H 0.38159 0.06317 0.49242 0.0
H1342 H 0.36583 0.05601 0.47127 0.0
H1343 H 0.38413 0.03897 0.48057 0.0
H1344 H 0.35646 0.01189 0.4849 0.0
H1345 H 0.33808 0.02881 0.47552 0.0
H1346 H 0.33493 0.01762 0.49959 0.0
H1347 H 0.33523 0.07546 0.55366 0.0
H1348 H 0.31137 0.09583 0.53472 0.0
H1349 H 0.32919 0.06659 0.47955 0.0
C1350 C 0.38205 0.02122 0.52164 0.0
C1351 C 0.38927 0.01784 0.54124 0.0
C1352 C 0.38138 0.02891 0.55745 0.0
C1353 C 0.36668 0.04319 0.5542 0.0
C1354 C 0.36001 0.04621 0.53468 0.0
C1355 C 0.36738 0.0355 0.51868 0.0
C1356 C 0.35768 0.04161 0.49918 0.0
C1357 C 0.37324 0.05047 0.48503 0.0
C1358 C 0.3461 0.02393 0.48922 0.0
C1359 C 0.34369 0.05744 0.50672 0.0
C1360 C 0.34528 0.05989 0.52723 0.0
C1361 C 0.33385 0.07367 0.53758 0.0
C1362 C 0.32036 0.08519 0.52668 0.0
C1363 C 0.3184 0.08283 0.50563 0.0
C1364 C 0.33032 0.06878 0.49561 0.0
H1365 H 0.62353 0.4629 0.53903 0.0
H1366 H 0.59939 0.45254 0.47908 0.0
H1367 H 0.62585 0.42813 0.47251 0.0
H1368 H 0.67475 0.46086 0.526 0.0
H1369 H 0.68249 0.44853 0.54849 0.0
H1370 H 0.66111 0.46442 0.54873 0.0
H1371 H 0.63933 0.4353 0.56198 0.0
H1372 H 0.66066 0.4193 0.56178 0.0
H1373 H 0.63811 0.41183 0.54833 0.0
H1374 H 0.65532 0.40515 0.4724 0.0
H1375 H 0.6863 0.38647 0.47823 0.0
H1376 H 0.69139 0.41232 0.53812 0.0
C1377 C 0.62367 0.4553 0.52461 0.0
C1378 C 0.60937 0.45955 0.50957 0.0
C1379 C 0.61028 0.44959 0.49076 0.0
C1380 C 0.62518 0.43563 0.48694 0.0
C1381 C 0.63911 0.43185 0.50206 0.0
C1382 C 0.63852 0.44145 0.5205 0.0
C1383 C 0.6557 0.43529 0.53392 0.0
C1384 C 0.66932 0.45335 0.53961 0.0
C1385 C 0.64798 0.4248 0.55261 0.0
C1386 C 0.6661 0.42081 0.52013 0.0
C1387 C 0.65622 0.4189 0.50188 0.0
C1388 C 0.66316 0.4065 0.48665 0.0
C1389 C 0.68076 0.39593 0.49012 0.0
C1390 C 0.69131 0.39791 0.50862 0.0
C1391 C 0.68371 0.41044 0.52381 0.0
H1392 H 0.7145 0.27841 0.37561 0.0
H1393 H 0.77199 0.25009 0.36935 0.0
H1394 H 0.78391 0.26653 0.40049 0.0
H1395 H 0.7347 0.3258 0.39415 0.0
H1396 H 0.71474 0.33009 0.41133 0.0
H1397 H 0.71009 0.3155 0.38879 0.0
H1398 H 0.69673 0.28617 0.40978 0.0
H1399 H 0.7014 0.30065 0.4324 0.0
H1400 H 0.71224 0.27636 0.42945 0.0
H1401 H 0.79 0.28554 0.43171 0.0
H1402 H 0.79064 0.30758 0.46132 0.0
H1403 H 0.72987 0.32545 0.44773 0.0
C1404 C 0.72961 0.27573 0.38075 0.0
C1405 C 0.74216 0.26261 0.37012 0.0
C1406 C 0.76185 0.25955 0.37743 0.0
C1407 C 0.76885 0.26896 0.39506 0.0
C1408 C 0.75611 0.28158 0.40521 0.0
C1409 C 0.73697 0.28515 0.39836 0.0
C1410 C 0.72666 0.29988 0.4121 0.0
C1411 C 0.72123 0.31895 0.40092 0.0
C1412 C 0.70816 0.29018 0.42149 0.0
C1413 C 0.74308 0.30399 0.42766 0.0
C1414 C 0.75984 0.29312 0.42333 0.0
C1415 C 0.777 0.29417 0.43529 0.0
C1416 C 0.77716 0.30677 0.45213 0.0
C1417 C 0.76031 0.31834 0.45693 0.0
C1418 C 0.74299 0.31683 0.4445 0.0
H1419 H 0.5257 0.03863 0.8791 0.0
H1420 H 0.49851 0.98297 0.89815 0.0
H1421 H 0.52244 0.96403 0.87808 0.0
H1422 H 0.53378 0.02304 0.82903 0.0
H1423 H 0.55744 0.03601 0.82682 0.0
H1424 H 0.53913 0.04534 0.8438 0.0
H1425 H 0.56499 0.04416 0.873 0.0
H1426 H 0.5834 0.03481 0.85607 0.0
H1427 H 0.57736 0.02108 0.87816 0.0
H1428 H 0.54781 0.9511 0.85498 0.0
H1429 H 0.57305 0.94476 0.82947 0.0
H1430 H 0.58421 0.00864 0.82494 0.0
C1431 C 0.52502 0.02246 0.87922 0.0
C1432 C 0.51024 0.01223 0.89009 0.0
C1433 C 0.50959 0.99107 0.88973 0.0
C1434 C 0.52319 0.98019 0.8785 0.0
C1435 C 0.53739 0.99068 0.86773 0.0
C1436 C 0.53846 0.01132 0.86795 0.0
C1437 C 0.55461 0.0188 0.8542 0.0
C1438 C 0.5457 0.03154 0.83747 0.0
C1439 C 0.57107 0.0304 0.86607 0.0
C1440 C 0.5622 0.99913 0.84603 0.0
C1441 C 0.55214 0.98313 0.8542 0.0
C1442 C 0.55593 0.96348 0.84856 0.0
C1443 C 0.57028 0.96005 0.83402 0.0
C1444 C 0.58066 0.97619 0.8252 0.0
C1445 C 0.57667 0.99598 0.8315 0.0
H1446 H 0.31582 0.22609 0.37439 0.0
H1447 H 0.3054 0.27463 0.41654 0.0
H1448 H 0.29762 0.25011 0.4426 0.0
H1449 H 0.27662 0.19422 0.39016 0.0
H1450 H 0.2903 0.17152 0.38678 0.0
H1451 H 0.29592 0.19288 0.37178 0.0
H1452 H 0.333 0.19203 0.38348 0.0
H1453 H 0.32751 0.17061 0.39848 0.0
H1454 H 0.33903 0.19265 0.40985 0.0
H1455 H 0.29006 0.22024 0.46373 0.0
H1456 H 0.28305 0.18727 0.47829 0.0
H1457 H 0.2986 0.15844 0.42217 0.0
C1458 C 0.31222 0.23157 0.38919 0.0
C1459 C 0.31126 0.25226 0.39347 0.0
C1460 C 0.30607 0.25883 0.41291 0.0
C1461 C 0.30173 0.24503 0.42782 0.0
C1462 C 0.30267 0.22474 0.42304 0.0
C1463 C 0.30781 0.21803 0.40421 0.0
C1464 C 0.30712 0.19545 0.40272 0.0
C1465 C 0.29156 0.18809 0.38693 0.0
C1466 C 0.3279 0.1872 0.39838 0.0
C1467 C 0.30064 0.1905 0.42363 0.0
C1468 C 0.29823 0.20758 0.43516 0.0
C1469 C 0.29198 0.20675 0.45487 0.0
C1470 C 0.28802 0.18794 0.463 0.0
C1471 C 0.29029 0.17024 0.45139 0.0
C1472 C 0.29677 0.17165 0.43148 0.0
H1473 H 0.47466 0.46357 0.86898 0.0
H1474 H 0.52518 0.482 0.83357 0.0
H1475 H 0.50237 0.48757 0.80478 0.0
H1476 H 0.44641 0.43776 0.82851 0.0
H1477 H 0.42278 0.44598 0.83778 0.0
H1478 H 0.44335 0.4422 0.85492 0.0
H1479 H 0.44017 0.47853 0.8684 0.0
H1480 H 0.41969 0.48246 0.85125 0.0
H1481 H 0.44128 0.49893 0.85121 0.0
H1482 H 0.47342 0.49286 0.78042 0.0
H1483 H 0.44101 0.49745 0.76285 0.0
H1484 H 0.41013 0.47513 0.81465 0.0
C1485 C 0.48102 0.46832 0.85505 0.0
C1486 C 0.50171 0.47225 0.8535 0.0
C1487 C 0.50934 0.47901 0.83513 0.0
C1488 C 0.49653 0.4821 0.81867 0.0
C1489 C 0.47615 0.47832 0.82083 0.0
C1490 C 0.46849 0.47149 0.83855 0.0
C1491 C 0.44599 0.46944 0.83743 0.0
C1492 C 0.43924 0.44754 0.83979 0.0
C1493 C 0.43622 0.48316 0.85299 0.0
C1494 C 0.44211 0.47646 0.8164 0.0
C1495 C 0.45965 0.4814 0.80695 0.0
C1496 C 0.45961 0.48888 0.78762 0.0
C1497 C 0.44114 0.49145 0.77777 0.0
C1498 C 0.42301 0.48664 0.78733 0.0
C1499 C 0.42367 0.4789 0.80683 0.0
H1500 H 0.73836 0.72833 0.12535 0.0
H1501 H 0.72584 0.68394 0.17015 0.0
H1502 H 0.7332 0.6571 0.14572 0.0
H1503 H 0.71672 0.70141 0.08396 0.0
H1504 H 0.73531 0.70933 0.06648 0.0
H1505 H 0.72968 0.72507 0.08766 0.0
H1506 H 0.76698 0.72566 0.09866 0.0
H1507 H 0.77275 0.70998 0.07747 0.0
H1508 H 0.77957 0.70241 0.10235 0.0
H1509 H 0.74103 0.63512 0.11618 0.0
H1510 H 0.74908 0.6195 0.08371 0.0
H1511 H 0.75699 0.67831 0.05833 0.0
C1512 C 0.73746 0.71298 0.13013 0.0
C1513 C 0.73152 0.70824 0.14968 0.0
C1514 C 0.73015 0.68793 0.1552 0.0
C1515 C 0.73441 0.67259 0.14147 0.0
C1516 C 0.74006 0.6778 0.12229 0.0
C1517 C 0.74165 0.6975 0.11663 0.0
C1518 C 0.74762 0.69906 0.09498 0.0
C1519 C 0.73136 0.70932 0.08254 0.0
C1520 C 0.76794 0.70992 0.09327 0.0
C1521 C 0.74902 0.67714 0.08931 0.0
C1522 C 0.74463 0.66513 0.10528 0.0
C1523 C 0.74459 0.64437 0.10359 0.0
C1524 C 0.74916 0.63564 0.08506 0.0
C1525 C 0.75371 0.64766 0.06847 0.0
C1526 C 0.75367 0.6687 0.07073 0.0
H1527 H 0.96942 0.05096 0.12458 0.0
H1528 H 0.95528 0.99592 0.09175 0.0
H1529 H 0.93044 0.98688 0.11711 0.0
H1530 H 0.96702 0.0303 0.17276 0.0
H1531 H 0.95618 0.05193 0.18437 0.0
H1532 H 0.97166 0.05479 0.16287 0.0
H1533 H 0.94306 0.07286 0.1444 0.0
H1534 H 0.92748 0.07009 0.16589 0.0
H1535 H 0.91885 0.06078 0.14175 0.0
H1536 H 0.90804 0.98327 0.14673 0.0
H1537 H 0.89064 0.9848 0.17896 0.0
H1538 H 0.91994 0.04192 0.19276 0.0
C1539 C 0.96084 0.03718 0.12258 0.0
C1540 C 0.96418 0.02416 0.10618 0.0
C1541 C 0.95298 0.00605 0.10427 0.0
C1542 C 0.93878 0.00085 0.11853 0.0
C1543 C 0.936 0.01389 0.13465 0.0
C1544 C 0.94673 0.03167 0.13678 0.0
C1545 C 0.94168 0.0425 0.15605 0.0
C1546 C 0.96024 0.04502 0.16982 0.0
C1547 C 0.9322 0.06276 0.15176 0.0
C1548 C 0.92661 0.02795 0.16453 0.0
C1549 C 0.92338 0.01163 0.15188 0.0
C1550 C 0.91037 0.99603 0.15671 0.0
C1551 C 0.90055 0.99703 0.17506 0.0
C1552 C 0.9039 0.01347 0.18841 0.0
C1553 C 0.917 0.02916 0.1829 0.0
H1554 H 0.22665 0.78777 0.13854 0.0
H1555 H 0.28547 0.8015 0.16422 0.0
H1556 H 0.29117 0.82622 0.13824 0.0
H1557 H 0.24145 0.78781 0.08937 0.0
H1558 H 0.21919 0.7988 0.07922 0.0
H1559 H 0.21799 0.78482 0.10187 0.0
H1560 H 0.20288 0.81527 0.12018 0.0
H1561 H 0.20408 0.82939 0.09753 0.0
H1562 H 0.21594 0.83906 0.12018 0.0
H1563 H 0.29313 0.84508 0.10713 0.0
H1564 H 0.29097 0.85706 0.07251 0.0
H1565 H 0.23105 0.83197 0.0662 0.0
C1566 C 0.2406 0.79619 0.13891 0.0
C1567 C 0.25547 0.79277 0.15371 0.0
C1568 C 0.27356 0.80412 0.1535 0.0
C1569 C 0.27701 0.81821 0.1387 0.0
C1570 C 0.26225 0.8209 0.12416 0.0
C1571 C 0.24435 0.81031 0.12414 0.0
C1572 C 0.23187 0.81463 0.10562 0.0
C1573 C 0.22738 0.79538 0.0933 0.0
C1574 C 0.21255 0.82522 0.11122 0.0
C1575 C 0.24597 0.82858 0.09482 0.0
C1576 C 0.26329 0.8322 0.106 0.0
C1577 C 0.27947 0.84282 0.09844 0.0
C1578 C 0.27813 0.84954 0.0788 0.0
C1579 C 0.2607 0.84578 0.06702 0.0
C1580 C 0.24424 0.8356 0.07525 0.0
H1581 H 0.01301 0.42158 0.15308 0.0
H1582 H 0.03162 0.47128 0.11671 0.0
H1583 H 0.05879 0.47968 0.14104 0.0
H1584 H 0.01969 0.44657 0.19909 0.0
H1585 H 0.02866 0.42537 0.21258 0.0
H1586 H 0.01233 0.42159 0.19115 0.0
H1587 H 0.03835 0.3987 0.17464 0.0
H1588 H 0.05476 0.40236 0.19609 0.0
H1589 H 0.06352 0.40794 0.17146 0.0
H1590 H 0.08183 0.48441 0.17019 0.0
H1591 H 0.09919 0.48578 0.2029 0.0
H1592 H 0.06544 0.43334 0.22113 0.0
C1593 C 0.02315 0.43391 0.15009 0.0
C1594 C 0.02042 0.44574 0.13304 0.0
C1595 C 0.03357 0.46209 0.12973 0.0
C1596 C 0.04906 0.46689 0.14339 0.0
C1597 C 0.05115 0.4552 0.16027 0.0
C1598 C 0.0386 0.43904 0.16371 0.0
C1599 C 0.04311 0.43 0.18386 0.0
C1600 C 0.02486 0.43095 0.19747 0.0
C1601 C 0.05037 0.40847 0.18135 0.0
C1602 C 0.05982 0.4439 0.19138 0.0
C1603 C 0.06436 0.45815 0.1774 0.0
C1604 C 0.07858 0.47322 0.18119 0.0
C1605 C 0.08831 0.47389 0.19987 0.0
C1606 C 0.0837 0.45966 0.21461 0.0
C1607 C 0.06944 0.44432 0.21014 0.0
H1608 H 0.33947 0.73803 0.29588 0.0
H1609 H 0.35164 0.67659 0.27932 0.0
H1610 H 0.38213 0.67797 0.30086 0.0
H1611 H 0.38826 0.75563 0.2932 0.0
H1612 H 0.3866 0.77304 0.31393 0.0
H1613 H 0.36454 0.76607 0.29959 0.0
H1614 H 0.34714 0.75477 0.33192 0.0
H1615 H 0.36922 0.7617 0.34639 0.0
H1616 H 0.35895 0.73669 0.34763 0.0
H1617 H 0.41334 0.68759 0.3218 0.0
H1618 H 0.44214 0.70474 0.33903 0.0
H1619 H 0.40894 0.75974 0.34068 0.0
C1620 C 0.34843 0.72478 0.29689 0.0
C1621 C 0.34321 0.70722 0.28589 0.0
C1622 C 0.35525 0.69015 0.2878 0.0
C1623 C 0.3726 0.69081 0.29996 0.0
C1624 C 0.37756 0.70858 0.31024 0.0
C1625 C 0.3657 0.7252 0.30885 0.0
C1626 C 0.37488 0.74299 0.32002 0.0
C1627 C 0.37881 0.76045 0.30584 0.0
C1628 C 0.36177 0.74941 0.33753 0.0
C1629 C 0.39412 0.73404 0.32738 0.0
C1630 C 0.39536 0.7141 0.32194 0.0
C1631 C 0.41239 0.70314 0.32633 0.0
C1632 C 0.42866 0.71296 0.33614 0.0
C1633 C 0.42779 0.73356 0.34114 0.0
C1634 C 0.41009 0.74397 0.33706 0.0
H1635 H 0.965 0.34074 0.98974 0.0
H1636 H 0.94968 0.3952 0.95923 0.0
H1637 H 0.95911 0.37985 0.92713 0.0
H1638 H 0.00785 0.32887 0.96005 0.0
H1639 H 0.00289 0.30231 0.95964 0.0
H1640 H 0.99497 0.31745 0.98047 0.0
H1641 H 0.95861 0.30432 0.97503 0.0
H1642 H 0.96643 0.28909 0.95425 0.0
H1643 H 0.94666 0.30667 0.95085 0.0
H1644 H 0.97051 0.35935 0.89869 0.0
H1645 H 0.98166 0.33396 0.87466 0.0
H1646 H 0.9894 0.29203 0.92292 0.0
C1647 C 0.96368 0.34939 0.97628 0.0
C1648 C 0.95648 0.36912 0.97693 0.0
C1649 C 0.95484 0.37996 0.95902 0.0
C1650 C 0.96031 0.37144 0.94074 0.0
C1651 C 0.96735 0.35203 0.94059 0.0
C1652 C 0.96895 0.34104 0.9578 0.0
C1653 C 0.97666 0.32031 0.95325 0.0
C1654 C 0.99679 0.31705 0.96399 0.0
C1655 C 0.96116 0.30414 0.95866 0.0
C1656 C 0.97912 0.32144 0.9308 0.0
C1657 C 0.97376 0.33995 0.92392 0.0
C1658 C 0.97472 0.34477 0.90385 0.0
C1659 C 0.98112 0.3302 0.89031 0.0
C1660 C 0.98641 0.31093 0.89685 0.0
C1661 C 0.98549 0.30659 0.91744 0.0
H1662 H 0.61387 0.75733 0.28409 0.0
H1663 H 0.59811 0.80729 0.24691 0.0
H1664 H 0.56514 0.8086 0.26257 0.0
H1665 H 0.56389 0.73361 0.28422 0.0
H1666 H 0.56598 0.72635 0.30997 0.0
H1667 H 0.58804 0.72839 0.29504 0.0
H1668 H 0.60397 0.7531 0.32122 0.0
H1669 H 0.58195 0.75121 0.33618 0.0
H1670 H 0.59078 0.77532 0.32819 0.0
H1671 H 0.53494 0.80576 0.28271 0.0
H1672 H 0.50838 0.79901 0.30653 0.0
H1673 H 0.54288 0.75081 0.33158 0.0
C1674 C 0.60332 0.76832 0.27909 0.0
C1675 C 0.6085 0.78226 0.26432 0.0
C1676 C 0.59447 0.79662 0.25832 0.0
C1677 C 0.57569 0.79741 0.26705 0.0
C1678 C 0.57114 0.78374 0.28178 0.0
C1679 C 0.58445 0.76942 0.2878 0.0
C1680 C 0.57589 0.75709 0.30457 0.0
C1681 C 0.5733 0.73505 0.29805 0.0
C1682 C 0.58892 0.75932 0.32367 0.0
C1683 C 0.55582 0.76691 0.30714 0.0
C1684 C 0.55347 0.78216 0.2937 0.0
C1685 C 0.53652 0.7938 0.29326 0.0
C1686 C 0.52151 0.78983 0.30693 0.0
C1687 C 0.52347 0.77435 0.321 0.0
C1688 C 0.54088 0.76268 0.321 0.0
H1689 H 0.01861 0.14573 0.97782 0.0
H1690 H 0.03278 0.09676 0.93746 0.0
H1691 H 0.02838 0.11879 0.90868 0.0
H1692 H 0.9808 0.16809 0.94563 0.0
H1693 H 0.98817 0.19338 0.9524 0.0
H1694 H 0.99169 0.17363 0.96998 0.0
H1695 H 0.0293 0.1831 0.97316 0.0
H1696 H 0.02591 0.20283 0.95554 0.0
H1697 H 0.04417 0.18392 0.95098 0.0
H1698 H 0.02331 0.14577 0.88441 0.0
H1699 H 0.01791 0.17651 0.86568 0.0
H1700 H 0.00715 0.20877 0.92125 0.0
C1701 C 0.02056 0.13965 0.9629 0.0
C1702 C 0.02614 0.11955 0.95987 0.0
C1703 C 0.02876 0.11216 0.94014 0.0
C1704 C 0.0262 0.12452 0.92369 0.0
C1705 C 0.02099 0.14428 0.92716 0.0
C1706 C 0.01817 0.15187 0.94622 0.0
C1707 C 0.01314 0.17388 0.94565 0.0
C1708 C 0.9922 0.17745 0.95391 0.0
C1709 C 0.02908 0.18668 0.957 0.0
C1710 C 0.01369 0.17743 0.92332 0.0
C1711 C 0.01817 0.16008 0.913 0.0
C1712 C 0.01973 0.15946 0.8923 0.0
C1713 C 0.01665 0.17705 0.88179 0.0
C1714 C 0.01209 0.19511 0.89194 0.0
C1715 C 0.01058 0.19523 0.91303 0.0
H1716 H 0.38706 0.30925 0.22106 0.0
H1717 H 0.43106 0.30268 0.26877 0.0
H1718 H 0.4565 0.29437 0.24378 0.0
H1719 H 0.40317 0.26903 0.19045 0.0
H1720 H 0.39858 0.28154 0.16723 0.0
H1721 H 0.38407 0.28757 0.18883 0.0
H1722 H 0.39434 0.32491 0.18595 0.0
H1723 H 0.40883 0.31901 0.16428 0.0
H1724 H 0.42046 0.33188 0.18546 0.0
H1725 H 0.47692 0.28617 0.21351 0.0
H1726 H 0.49077 0.2786 0.18034 0.0
H1727 H 0.43327 0.29079 0.15258 0.0
C1728 C 0.40212 0.30637 0.22625 0.0
C1729 C 0.4071 0.30667 0.24687 0.0
C1730 C 0.42688 0.30238 0.25306 0.0
C1731 C 0.44144 0.29774 0.23898 0.0
C1732 C 0.43597 0.29747 0.21878 0.0
C1733 C 0.41679 0.30169 0.21243 0.0
C1734 C 0.41462 0.29993 0.18991 0.0
C1735 C 0.3992 0.28354 0.18375 0.0
C1736 C 0.40925 0.32014 0.18087 0.0
C1737 C 0.43557 0.29398 0.18456 0.0
C1738 C 0.44768 0.29268 0.20141 0.0
C1739 C 0.46759 0.2872 0.20021 0.0
C1740 C 0.47531 0.28291 0.18129 0.0
C1741 C 0.46313 0.2841 0.16382 0.0
C1742 C 0.44301 0.28977 0.1656 0.0
H1743 H 0.51421 0.38517 0.00803 0.0
H1744 H 0.57807 0.38645 0.0204 0.0
H1745 H 0.57369 0.35947 0.04472 0.0
H1746 H 0.49885 0.37633 0.05795 0.0
H1747 H 0.47834 0.35985 0.05059 0.0
H1748 H 0.48652 0.37912 0.03402 0.0
H1749 H 0.49166 0.35258 0.006 0.0
H1750 H 0.48341 0.33323 0.02246 0.0
H1751 H 0.50739 0.33159 0.01081 0.0
H1752 H 0.56228 0.3325 0.0679 0.0
H1753 H 0.5447 0.30734 0.088 0.0
H1754 H 0.48839 0.32352 0.06004 0.0
C1755 C 0.52731 0.37963 0.01568 0.0
C1756 C 0.54648 0.38796 0.01233 0.0
C1757 C 0.5632 0.38048 0.02291 0.0
C1758 C 0.56089 0.3651 0.03667 0.0
C1759 C 0.54177 0.35732 0.03968 0.0
C1760 C 0.52528 0.3643 0.02945 0.0
C1761 C 0.50635 0.35349 0.03554 0.0
C1762 C 0.49165 0.36807 0.0451 0.0
C1763 C 0.49664 0.34204 0.01764 0.0
C1764 C 0.51476 0.33935 0.05079 0.0
C1765 C 0.53521 0.34178 0.05297 0.0
C1766 C 0.54627 0.33044 0.06629 0.0
C1767 C 0.53614 0.31619 0.07765 0.0
C1768 C 0.51516 0.31341 0.07561 0.0
C1769 C 0.50442 0.32523 0.06198 0.0
H1770 H 0.62991 0.22257 0.20141 0.0
H1771 H 0.65393 0.28185 0.21574 0.0
H1772 H 0.62766 0.29666 0.19473 0.0
H1773 H 0.61517 0.23265 0.14942 0.0
H1774 H 0.59265 0.21756 0.15046 0.0
H1775 H 0.61411 0.21145 0.16562 0.0
H1776 H 0.59252 0.21301 0.19733 0.0
H1777 H 0.57103 0.2192 0.1823 0.0
H1778 H 0.57892 0.23536 0.20289 0.0
H1779 H 0.59811 0.30522 0.17387 0.0
H1780 H 0.56687 0.30712 0.15409 0.0
H1781 H 0.56166 0.24235 0.15287 0.0
C1782 C 0.6298 0.23863 0.19983 0.0
C1783 C 0.64391 0.25109 0.21023 0.0
C1784 C 0.64313 0.27207 0.20806 0.0
C1785 C 0.62835 0.28061 0.19608 0.0
C1786 C 0.61447 0.26797 0.1863 0.0
C1787 C 0.61505 0.24744 0.18796 0.0
C1788 C 0.59777 0.23738 0.1765 0.0
C1789 C 0.60539 0.22397 0.15949 0.0
C1790 C 0.58427 0.22555 0.1906 0.0
C1791 C 0.58728 0.25549 0.16841 0.0
C1792 C 0.59727 0.27295 0.17418 0.0
C1793 C 0.59021 0.29165 0.16912 0.0
C1794 C 0.57241 0.29257 0.15791 0.0
C1795 C 0.56181 0.2749 0.15188 0.0
C1796 C 0.56949 0.25612 0.15712 0.0
H1797 H 0.45374 0.14972 0.01321 0.0
H1798 H 0.47985 0.10575 0.052 0.0
H1799 H 0.48937 0.13258 0.07662 0.0
H1800 H 0.48936 0.18936 0.02289 0.0
H1801 H 0.47101 0.2087 0.02262 0.0
H1802 H 0.46674 0.18608 0.0081 0.0
H1803 H 0.43309 0.1802 0.02583 0.0
H1804 H 0.43724 0.20282 0.04038 0.0
H1805 H 0.43271 0.17952 0.05274 0.0
H1806 H 0.49731 0.16475 0.09612 0.0
H1807 H 0.50026 0.19912 0.1104 0.0
H1808 H 0.46671 0.22124 0.05962 0.0
C1809 C 0.4615 0.14582 0.02689 0.0
C1810 C 0.46626 0.12583 0.03078 0.0
C1811 C 0.47614 0.12107 0.04888 0.0
C1812 C 0.48163 0.13618 0.06285 0.0
C1813 C 0.4768 0.15584 0.05855 0.0
C1814 C 0.46672 0.16062 0.04111 0.0
C1815 C 0.46267 0.18272 0.0403 0.0
C1816 C 0.47307 0.19227 0.02242 0.0
C1817 C 0.44009 0.18653 0.03979 0.0
C1818 C 0.47218 0.18971 0.05992 0.0
C1819 C 0.48047 0.17406 0.07016 0.0
C1820 C 0.4907 0.17709 0.08833 0.0
C1821 C 0.49236 0.19662 0.09628 0.0
C1822 C 0.48354 0.21274 0.0862 0.0
C1823 C 0.47335 0.20915 0.06781 0.0
H1824 H 0.2695 0.37735 0.73862 0.0
H1825 H 0.3043 0.35245 0.6903 0.0
H1826 H 0.32511 0.38317 0.69031 0.0
H1827 H 0.27178 0.42917 0.72397 0.0
H1828 H 0.27461 0.43844 0.74934 0.0
H1829 H 0.26111 0.41534 0.74418 0.0
H1830 H 0.28443 0.39697 0.7688 0.0
H1831 H 0.2979 0.42001 0.77412 0.0
H1832 H 0.31108 0.39837 0.76549 0.0
H1833 H 0.34306 0.41634 0.69646 0.0
H1834 H 0.35822 0.4478 0.71012 0.0
H1835 H 0.31308 0.44956 0.75582 0.0
C1836 C 0.28152 0.37821 0.72805 0.0
C1837 C 0.28504 0.36238 0.71435 0.0
C1838 C 0.30087 0.36444 0.70067 0.0
C1839 C 0.31289 0.38184 0.7006 0.0
C1840 C 0.30903 0.39704 0.7144 0.0
C1841 C 0.29383 0.3953 0.72798 0.0
C1842 C 0.29361 0.41314 0.74217 0.0
C1843 C 0.27412 0.4247 0.73976 0.0
C1844 C 0.29696 0.40673 0.76393 0.0
C1845 C 0.31128 0.42504 0.73467 0.0
C1846 C 0.31979 0.41571 0.71842 0.0
C1847 C 0.3365 0.4238 0.70915 0.0
C1848 C 0.34497 0.4417 0.71697 0.0
C1849 C 0.33688 0.45108 0.73407 0.0
C1850 C 0.31964 0.44273 0.74276 0.0
H1851 H 0.29377 0.63362 0.74154 0.0
H1852 H 0.3013 0.64782 0.80489 0.0
H1853 H 0.32347 0.61935 0.80861 0.0
H1854 H 0.29071 0.58128 0.747 0.0
H1855 H 0.30422 0.57521 0.72471 0.0
H1856 H 0.29054 0.59806 0.72622 0.0
H1857 H 0.32268 0.6183 0.71828 0.0
H1858 H 0.33648 0.59548 0.71677 0.0
H1859 H 0.34481 0.61538 0.73359 0.0
H1860 H 0.34188 0.58815 0.80674 0.0
H1861 H 0.35602 0.55528 0.79921 0.0
H1862 H 0.33749 0.56016 0.73705 0.0
C1863 C 0.30023 0.63084 0.75615 0.0
C1864 C 0.29599 0.64327 0.77285 0.0
C1865 C 0.3047 0.63897 0.79172 0.0
C1866 C 0.31726 0.62272 0.79405 0.0
C1867 C 0.32105 0.61079 0.77738 0.0
C1868 C 0.31288 0.61457 0.75877 0.0
C1869 C 0.31858 0.59854 0.74366 0.0
C1870 C 0.2999 0.58763 0.73489 0.0
C1871 C 0.3314 0.60746 0.72709 0.0
C1872 C 0.33075 0.58494 0.75688 0.0
C1873 C 0.33202 0.59248 0.77624 0.0
C1874 C 0.34125 0.58219 0.7916 0.0
C1875 C 0.34917 0.56351 0.78718 0.0
C1876 C 0.34795 0.5553 0.76755 0.0
C1877 C 0.33894 0.56631 0.75209 0.0
H1878 H 0.8615 0.46673 0.45409 0.0
H1879 H 0.83848 0.51332 0.49298 0.0
H1880 H 0.81098 0.49072 0.50234 0.0
H1881 H 0.81443 0.44252 0.43914 0.0
H1882 H 0.82455 0.41783 0.44069 0.0
H1883 H 0.84052 0.43868 0.43447 0.0
H1884 H 0.86444 0.43046 0.46396 0.0
H1885 H 0.8486 0.40959 0.47023 0.0
H1886 H 0.85467 0.42868 0.4888 0.0
H1887 H 0.78652 0.4621 0.50878 0.0
H1888 H 0.76986 0.42922 0.51421 0.0
H1889 H 0.81192 0.40096 0.47476 0.0
C1890 C 0.85082 0.47235 0.46462 0.0
C1891 C 0.85233 0.49206 0.47258 0.0
C1892 C 0.83758 0.49858 0.48611 0.0
C1893 C 0.82188 0.48577 0.49168 0.0
C1894 C 0.8212 0.46636 0.48384 0.0
C1895 C 0.83544 0.45964 0.47078 0.0
C1896 C 0.8327 0.43758 0.46608 0.0
C1897 C 0.82775 0.43395 0.44377 0.0
C1898 C 0.85119 0.4259 0.47267 0.0
C1899 C 0.81492 0.43282 0.47886 0.0
C1900 C 0.80811 0.44967 0.48861 0.0
C1901 C 0.79175 0.44881 0.50124 0.0
C1902 C 0.78236 0.43016 0.50421 0.0
C1903 C 0.78979 0.41271 0.49502 0.0
C1904 C 0.8061 0.41414 0.48207 0.0
H1905 H 0.74094 0.87583 0.80892 0.0
H1906 H 0.78431 0.92468 0.80722 0.0
H1907 H 0.75713 0.94808 0.79948 0.0
H1908 H 0.70968 0.89219 0.7685 0.0
H1909 H 0.68687 0.88407 0.78 0.0
H1910 H 0.7098 0.8714 0.78525 0.0
H1911 H 0.70526 0.87782 0.82321 0.0
H1912 H 0.68232 0.89051 0.81808 0.0
H1913 H 0.70205 0.90301 0.8324 0.0
H1914 H 0.7247 0.96617 0.79277 0.0
H1915 H 0.6901 0.97718 0.78657 0.0
H1916 H 0.66864 0.91601 0.79254 0.0
C1917 C 0.74472 0.89148 0.80706 0.0
C1918 C 0.76469 0.89849 0.80877 0.0
C1919 C 0.76909 0.919 0.80585 0.0
C1920 C 0.75376 0.93239 0.80155 0.0
C1921 C 0.73419 0.92496 0.80009 0.0
C1922 C 0.72969 0.90495 0.80267 0.0
C1923 C 0.70754 0.90063 0.80022 0.0
C1924 C 0.70323 0.88622 0.78243 0.0
C1925 C 0.69878 0.89252 0.81963 0.0
C1926 C 0.7002 0.92136 0.79599 0.0
C1927 C 0.71574 0.93523 0.796 0.0
C1928 C 0.71244 0.95542 0.79266 0.0
C1929 C 0.69274 0.96153 0.78919 0.0
C1930 C 0.67665 0.94747 0.78902 0.0
C1931 C 0.68057 0.92715 0.79247 0.0
H1932 H 0.64551 0.54302 0.94401 0.0
H1933 H 0.61455 0.55674 0.9988 0.0
H1934 H 0.64122 0.58131 0.00842 0.0
H1935 H 0.69355 0.54417 0.96493 0.0
H1936 H 0.70538 0.55516 0.94367 0.0
H1937 H 0.68286 0.54035 0.9402 0.0
H1938 H 0.66587 0.56987 0.92254 0.0
H1939 H 0.68839 0.58479 0.92592 0.0
H1940 H 0.66505 0.59388 0.9351 0.0
H1941 H 0.67248 0.60264 0.01302 0.0
H1942 H 0.70626 0.6181 0.0128 0.0
H1943 H 0.71655 0.59008 0.95495 0.0
C1944 C 0.6441 0.55155 0.9578 0.0
C1945 C 0.62792 0.54812 0.97061 0.0
C1946 C 0.62688 0.55914 0.98881 0.0
C1947 C 0.64187 0.5732 0.99433 0.0
C1948 C 0.65776 0.57604 0.98145 0.0
C1949 C 0.65895 0.56553 0.96356 0.0
C1950 C 0.67824 0.57024 0.95306 0.0
C1951 C 0.69074 0.55136 0.95032 0.0
C1952 C 0.67413 0.5803 0.93297 0.0
C1953 C 0.68795 0.58473 0.96804 0.0
C1954 C 0.67582 0.5881 0.9842 0.0
C1955 C 0.68202 0.60028 0.00034 0.0
C1956 C 0.70124 0.60899 8e-05 0.0
C1957 C 0.71406 0.60535 0.98385 0.0
C1958 C 0.7071 0.59329 0.96753 0.0
H1959 H 0.20029 0.61543 0.24352 0.0
H1960 H 0.17402 0.63463 0.18739 0.0
H1961 H 0.14938 0.60682 0.18854 0.0
H1962 H 0.19611 0.56282 0.23227 0.0
H1963 H 0.19075 0.55628 0.25766 0.0
H1964 H 0.20573 0.57821 0.25277 0.0
H1965 H 0.18141 0.59986 0.27318 0.0
H1966 H 0.16631 0.57802 0.27807 0.0
H1967 H 0.15519 0.59937 0.26657 0.0
H1968 H 0.12752 0.57684 0.19593 0.0
H1969 H 0.11113 0.54616 0.20819 0.0
H1970 H 0.15307 0.54576 0.2584 0.0
C1971 C 0.18954 0.61373 0.2313 0.0
C1972 C 0.18913 0.62734 0.21538 0.0
C1973 C 0.17448 0.62466 0.19994 0.0
C1974 C 0.16048 0.60883 0.20039 0.0
C1975 C 0.16139 0.59572 0.2163 0.0
C1976 C 0.17563 0.59793 0.2314 0.0
C1977 C 0.17374 0.58155 0.24657 0.0
C1978 C 0.19271 0.56897 0.24735 0.0
C1979 C 0.16887 0.59022 0.26732 0.0
C1980 C 0.1562 0.56972 0.23764 0.0
C1981 C 0.14918 0.57821 0.22027 0.0
C1982 C 0.13293 0.57003 0.20949 0.0
C1983 C 0.12369 0.55263 0.2166 0.0
C1984 C 0.13086 0.54353 0.23421 0.0
C1985 C 0.14731 0.55229 0.24483 0.0
H1986 H 0.87051 0.50784 0.01858 0.0
H1987 H 0.86556 0.51566 0.08285 0.0
H1988 H 0.84399 0.54467 0.07762 0.0
H1989 H 0.87194 0.55952 0.00643 0.0
H1990 H 0.85708 0.55623 0.98384 0.0
H1991 H 0.87226 0.53616 0.99262 0.0
H1992 H 0.84114 0.51256 0.99276 0.0
H1993 H 0.82589 0.53251 0.98384 0.0
H1994 H 0.81946 0.51991 0.00648 0.0
H1995 H 0.82313 0.57297 0.06534 0.0
H1996 H 0.80331 0.59759 0.04694 0.0
H1997 H 0.82127 0.57056 0.99072 0.0
C1998 C 0.8647 0.51546 0.03158 0.0
C1999 C 0.8698 0.50947 0.05114 0.0
C2000 C 0.86212 0.52013 0.06772 0.0
C2001 C 0.84978 0.53657 0.06491 0.0
C2002 C 0.84521 0.54214 0.04543 0.0
C2003 C 0.85233 0.53184 0.02905 0.0
C2004 C 0.84504 0.54074 0.00968 0.0
C2005 C 0.86263 0.54863 0.99743 0.0
C2006 C 0.83211 0.52553 0.99747 0.0
C2007 C 0.83267 0.55767 0.01771 0.0
C2008 C 0.83303 0.55828 0.03836 0.0
C2009 C 0.82271 0.57263 0.04916 0.0
C2010 C 0.81154 0.58658 0.03856 0.0
C2011 C 0.81072 0.58603 0.01737 0.0
C2012 C 0.82157 0.57141 0.0069 0.0
H2013 H 0.12982 0.97566 0.05068 0.0
H2014 H 0.11125 0.97366 0.98819 0.0
H2015 H 0.13741 0.94921 0.98104 0.0
H2016 H 0.18236 0.97252 0.04225 0.0
H2017 H 0.18721 0.95697 0.06344 0.0
H2018 H 0.16669 0.97396 0.06384 0.0
H2019 H 0.14228 0.94462 0.07111 0.0
H2020 H 0.16273 0.92753 0.07076 0.0
H2021 H 0.14128 0.92309 0.05453 0.0
H2022 H 0.16547 0.92523 0.98052 0.0
H2023 H 0.19427 0.90363 0.98647 0.0
H2024 H 0.1951 0.92119 0.0493 0.0
C2025 C 0.13116 0.96993 0.03554 0.0
C2026 C 0.11853 0.9766 0.01997 0.0
C2027 C 0.12092 0.96894 0.0003 0.0
C2028 C 0.13565 0.95497 0.99611 0.0
C2029 C 0.14792 0.9488 0.01175 0.0
C2030 C 0.1459 0.95603 0.03106 0.0
C2031 C 0.16137 0.94721 0.045 0.0
C2032 C 0.17523 0.96365 0.05417 0.0
C2033 C 0.15131 0.93488 0.06131 0.0
C2034 C 0.17241 0.93395 0.03048 0.0
C2035 C 0.16432 0.93505 0.0114 0.0
C2036 C 0.17194 0.92422 0.9954 0.0
C2037 C 0.18831 0.91198 0.99895 0.0
C2038 C 0.197 0.91069 0.01835 0.0
C2039 C 0.18884 0.92183 0.0343 0.0
loop_
_geom_bond_atom_site_label_1
_geom_bond_atom_site_label_2
_geom_bond_distance
_geom_bond_site_symmetry_2
_ccdc_geom_bond_type
C0 C1 1.384 . S
C0 H13 0.947 . S
C0 C35 1.382 1_655 S
C1 C0 1.384 . S
C1 C2 1.378 1_655 S
C2 C1 1.378 1_455 S
C2 C3 1.378 . S
C2 H14 0.952 . S
C3 C2 1.378 . S
C3 H15 0.950 . S
C3 C34 1.383 . S
H4 C23 0.943 1_565 S
H5 C24 0.946 . S
H6 C26 0.953 . S
H7 C27 0.945 . S
H8 C29 0.942 1_556 S
H9 C30 0.949 . S
H10 C32 0.950 . S
H11 C33 0.948 . S
H12 C35 0.951 1_655 S
H13 C0 0.947 . S
H14 C2 0.952 . S
H15 C3 0.950 . S
N16 C19 1.382 . S
N16 C21 1.363 . S
N17 C19 1.371 . S
N17 C20 1.372 . S
N18 C20 1.361 . S
N18 C21 1.377 . S
C19 N16 1.382 . S
C19 N17 1.371 . S
C19 C22 1.480 . S
C20 N17 1.372 . S
C20 N18 1.361 . S
C20 C28 1.457 . S
C21 N16 1.363 . S
C21 N18 1.377 . S
C21 C34 1.479 . S
C22 C19 1.480 . S
C22 C23 1.383 . S
C22 C27 1.385 . S
C23 H4 0.943 1_545 S
C23 C22 1.383 . S
C23 C24 1.388 1_545 S
C24 H5 0.946 . S
C24 C23 1.388 1_565 S
C24 C25 1.384 . S
C25 C24 1.384 . S
C25 C26 1.377 1_565 S
C26 H6 0.953 . S
C26 C25 1.377 1_545 S
C26 C27 1.369 . S
C27 H7 0.945 . S
C27 C22 1.385 . S
C27 C26 1.369 . S
C28 C20 1.457 . S
C28 C29 1.416 . S
C28 C33 1.364 . S
C29 H8 0.942 1_554 S
C29 C28 1.416 . S
C29 C30 1.356 1_554 S
C30 H9 0.949 . S
C30 C29 1.356 1_556 S
C30 C31 1.387 . S
C31 C30 1.387 . S
C31 C32 1.372 1_556 S
C32 H10 0.950 . S
C32 C31 1.372 1_554 S
C32 C33 1.379 . S
C33 H11 0.948 . S
C33 C28 1.364 . S
C33 C32 1.379 . S
C34 C3 1.383 . S
C34 C21 1.479 . S
C34 C35 1.398 . S
C35 C0 1.382 1_455 S
C35 H12 0.951 1_455 S
C35 C34 1.398 . S
C36 C37 1.384 . S
C36 H49 0.947 . S
C36 C71 1.382 . S
C37 C36 1.384 . S
C37 C38 1.378 . S
C38 C37 1.378 . S
C38 C39 1.378 . S
C38 H50 0.952 . S
C39 C38 1.378 . S
C39 H51 0.950 . S
C39 C70 1.383 . S
H40 C59 0.947 . S
H41 C60 0.946 . S
H42 C62 0.953 . S
H43 C63 0.945 . S
H44 C65 0.952 . S
H45 C66 0.949 . S
H46 C68 0.950 . S
H47 C69 0.948 . S
H48 C71 0.951 . S
H49 C36 0.947 . S
H50 C38 0.952 . S
H51 C39 0.950 . S
N52 C55 1.382 . S
N52 C57 1.363 . S
N53 C55 1.371 . S
N53 C56 1.372 . S
N54 C56 1.361 . S
N54 C57 1.377 . S
C55 N52 1.382 . S
C55 N53 1.371 . S
C55 C58 1.480 . S
C56 N53 1.372 . S
C56 N54 1.361 . S
C56 C64 1.457 . S
C57 N52 1.363 . S
C57 N54 1.377 . S
C57 C70 1.479 . S
C58 C55 1.480 . S
C58 C59 1.383 . S
C58 C63 1.385 . S
C59 H40 0.947 . S
C59 C58 1.383 . S
C59 C60 1.388 . S
C60 H41 0.946 . S
C60 C59 1.388 . S
C60 C61 1.384 . S
C61 C60 1.384 . S
C61 C62 1.377 . S
C62 H42 0.953 . S
C62 C61 1.377 . S
C62 C63 1.369 . S
C63 H43 0.945 . S
C63 C58 1.385 . S
C63 C62 1.369 . S
C64 C56 1.457 . S
C64 C65 1.372 . S
C64 C69 1.364 . S
C65 H44 0.952 . S
C65 C64 1.372 . S
C65 C66 1.389 . S
C66 H45 0.949 . S
C66 C65 1.389 . S
C66 C67 1.387 . S
C67 C66 1.387 . S
C67 C68 1.372 . S
C68 H46 0.950 . S
C68 C67 1.372 . S
C68 C69 1.379 . S
C69 H47 0.948 . S
C69 C64 1.364 . S
C69 C68 1.379 . S
C70 C39 1.383 . S
C70 C57 1.479 . S
C70 C71 1.398 . S
C71 C36 1.382 . S
C71 H48 0.951 . S
C71 C70 1.398 . S
C72 C73 1.384 . S
C72 H85 0.947 . S
C72 C107 1.382 . S
C73 C72 1.384 . S
C73 C74 1.378 1_554 S
C74 C73 1.378 1_556 S
C74 C75 1.378 1_556 S
C74 H86 0.952 . S
C75 C74 1.378 1_554 S
C75 H87 0.950 . S
C75 C106 1.383 . S
H76 C95 0.947 . S
H77 C96 0.946 . S
H78 C98 0.953 . S
H79 C99 0.945 . S
H80 C101 0.952 . S
H81 C102 0.949 . S
H82 C104 0.950 . S
H83 C105 0.948 . S
H84 C107 0.951 . S
H85 C72 0.947 . S
H86 C74 0.952 . S
H87 C75 0.950 . S
N88 C91 1.382 . S
N88 C93 1.363 . S
N89 C91 1.371 . S
N89 C92 1.372 . S
N90 C92 1.361 . S
N90 C93 1.377 . S
C91 N88 1.382 . S
C91 N89 1.371 . S
C91 C94 1.480 . S
C92 N89 1.372 . S
C92 N90 1.361 . S
C92 C100 1.457 . S
C93 N88 1.363 . S
C93 N90 1.377 . S
C93 C106 1.479 . S
C94 C91 1.480 . S
C94 C95 1.383 . S
C94 C99 1.385 . S
C95 H76 0.947 . S
C95 C94 1.383 . S
C95 C96 1.388 . S
C96 H77 0.946 . S
C96 C95 1.388 . S
C96 C97 1.384 . S
C97 C96 1.384 . S
C97 C98 1.377 . S
C98 H78 0.953 . S
C98 C97 1.377 . S
C98 C99 1.369 . S
C99 H79 0.945 . S
C99 C94 1.385 . S
C99 C98 1.369 . S
C100 C92 1.457 . S
C100 C101 1.372 . S
C100 C105 1.364 . S
C101 H80 0.952 . S
C101 C100 1.372 . S
C101 C102 1.389 . S
C102 H81 0.949 . S
C102 C101 1.389 . S
C102 C103 1.387 1_655 S
C103 C102 1.387 1_455 S
C103 C104 1.372 . S
C104 H82 0.950 . S
C104 C103 1.372 . S
C104 C105 1.379 1_455 S
C105 H83 0.948 . S
C105 C100 1.364 . S
C105 C104 1.379 1_655 S
C106 C75 1.383 . S
C106 C93 1.479 . S
C106 C107 1.398 . S
C107 C72 1.382 . S
C107 H84 0.951 . S
C107 C106 1.398 . S
C108 C109 1.384 . S
C108 H121 0.947 . S
C108 C143 1.382 . S
C109 C108 1.384 . S
C109 C110 1.378 . S
C110 C109 1.378 . S
C110 C111 1.378 . S
C110 H122 0.952 . S
C111 C110 1.378 . S
C111 H123 0.950 . S
C111 C142 1.383 . S
H112 C131 0.947 . S
H113 C132 0.946 . S
H114 C134 0.953 . S
H115 C135 0.945 . S
H116 C137 0.952 . S
H117 C138 0.949 . S
H118 C140 0.950 . S
H119 C141 0.948 . S
H120 C143 0.951 . S
H121 C108 0.947 . S
H122 C110 0.952 . S
H123 C111 0.950 . S
N124 C127 1.382 . S
N124 C129 1.363 . S
N125 C127 1.371 . S
N125 C128 1.372 . S
N126 C128 1.361 . S
N126 C129 1.377 . S
C127 N124 1.382 . S
C127 N125 1.371 . S
C127 C130 1.480 . S
C128 N125 1.372 . S
C128 N126 1.361 . S
C128 C136 1.457 . S
C129 N124 1.363 . S
C129 N126 1.377 . S
C129 C142 1.479 . S
C130 C127 1.480 . S
C130 C131 1.383 . S
C130 C135 1.385 . S
C131 H112 0.947 . S
C131 C130 1.383 . S
C131 C132 1.388 . S
C132 H113 0.946 . S
C132 C131 1.388 . S
C132 C133 1.384 . S
C133 C132 1.384 . S
C133 C134 1.377 . S
C134 H114 0.953 . S
C134 C133 1.377 . S
C134 C135 1.369 . S
C135 H115 0.945 . S
C135 C130 1.385 . S
C135 C134 1.369 . S
C136 C128 1.457 . S
C136 C137 1.372 . S
C136 C141 1.364 . S
C137 H116 0.952 . S
C137 C136 1.372 . S
C137 C138 1.389 . S
C138 H117 0.949 . S
C138 C137 1.389 . S
C138 C139 1.387 . S
C139 C138 1.387 . S
C139 C140 1.372 . S
C140 H118 0.950 . S
C140 C139 1.372 . S
C140 C141 1.379 . S
C141 H119 0.948 . S
C141 C136 1.364 . S
C141 C140 1.379 . S
C142 C111 1.383 . S
C142 C129 1.479 . S
C142 C143 1.398 . S
C143 C108 1.382 . S
C143 H120 0.951 . S
C143 C142 1.398 . S
C144 C145 1.384 . S
C144 H157 0.947 . S
C144 C179 1.382 . S
C145 C144 1.384 . S
C145 C146 1.378 . S
C146 C145 1.378 . S
C146 C147 1.378 . S
C146 H158 0.952 . S
C147 C146 1.378 . S
C147 H159 0.950 . S
C147 C178 1.383 . S
H148 C167 0.947 . S
H149 C168 0.978 . S
H150 C170 0.953 . S
H151 C171 0.945 . S
H152 C173 0.952 . S
H153 C174 0.949 . S
H154 C176 0.950 . S
H155 C177 0.948 . S
H156 C179 0.951 . S
H157 C144 0.947 . S
H158 C146 0.952 . S
H159 C147 0.950 . S
N160 C163 1.382 . S
N160 C165 1.363 . S
N161 C163 1.371 . S
N161 C164 1.372 . S
N162 C164 1.361 . S
N162 C165 1.377 . S
C163 N160 1.382 . S
C163 N161 1.371 . S
C163 C166 1.480 . S
C164 N161 1.372 . S
C164 N162 1.361 . S
C164 C172 1.457 . S
C165 N160 1.363 . S
C165 N162 1.377 . S
C165 C178 1.479 . S
C166 C163 1.480 . S
C166 C167 1.383 . S
C166 C171 1.385 . S
C167 H148 0.947 . S
C167 C166 1.383 . S
C167 C168 1.364 1_455 S
C168 H149 0.978 . S
C168 C167 1.364 1_655 S
C168 C169 1.377 1_655 S
C169 C168 1.377 1_455 S
C169 C170 1.377 . S
C170 H150 0.953 . S
C170 C169 1.377 . S
C170 C171 1.369 . S
C171 H151 0.945 . S
C171 C166 1.385 . S
C171 C170 1.369 . S
C172 C164 1.457 . S
C172 C173 1.372 . S
C172 C177 1.364 . S
C173 H152 0.952 . S
C173 C172 1.372 . S
C173 C174 1.389 1_565 S
C174 H153 0.949 . S
C174 C173 1.389 1_545 S
C174 C175 1.392 . S
C175 C174 1.392 . S
C175 C176 1.352 1_545 S
C176 H154 0.950 . S
C176 C175 1.352 1_565 S
C176 C177 1.379 . S
C177 H155 0.948 . S
C177 C172 1.364 . S
C177 C176 1.379 . S
C178 C147 1.383 . S
C178 C165 1.479 . S
C178 C179 1.398 . S
C179 C144 1.382 . S
C179 H156 0.951 . S
C179 C178 1.398 . S
C180 C181 1.384 . S
C180 H193 0.947 . S
C180 C215 1.382 . S
C181 C180 1.384 . S
C181 C182 1.378 . S
C182 C181 1.378 . S
C182 C183 1.378 . S
C182 H194 0.952 . S
C183 C182 1.378 . S
C183 H195 0.950 . S
C183 C214 1.383 . S
H184 C203 0.947 . S
H185 C204 0.946 . S
H186 C206 0.953 . S
H187 C207 0.945 . S
H188 C209 0.952 . S
H189 C210 0.949 . S
H190 C212 0.950 . S
H191 C213 0.948 . S
H192 C215 0.951 . S
H193 C180 0.947 . S
H194 C182 0.952 . S
H195 C183 0.950 . S
N196 C199 1.382 . S
N196 C201 1.363 . S
N197 C199 1.371 . S
N197 C200 1.372 . S
N198 C200 1.361 . S
N198 C201 1.377 . S
C199 N196 1.382 . S
C199 N197 1.371 . S
C199 C202 1.480 . S
C200 N197 1.372 . S
C200 N198 1.361 . S
C200 C208 1.457 . S
C201 N196 1.363 . S
C201 N198 1.377 . S
C201 C214 1.479 . S
C202 C199 1.480 . S
C202 C203 1.383 . S
C202 C207 1.385 . S
C203 H184 0.947 . S
C203 C202 1.383 . S
C203 C204 1.388 . S
C204 H185 0.946 . S
C204 C203 1.388 . S
C204 C205 1.384 . S
C205 C204 1.384 . S
C205 C206 1.377 . S
C206 H186 0.953 . S
C206 C205 1.377 . S
C206 C207 1.369 . S
C207 H187 0.945 . S
C207 C202 1.385 . S
C207 C206 1.369 . S
C208 C200 1.457 . S
C208 C209 1.372 . S
C208 C213 1.364 . S
C209 H188 0.952 . S
C209 C208 1.372 . S
C209 C210 1.389 . S
C210 H189 0.949 . S
C210 C209 1.389 . S
C210 C211 1.387 . S
C211 C210 1.387 . S
C211 C212 1.372 . S
C212 H190 0.950 . S
C212 C211 1.372 . S
C212 C213 1.379 . S
C213 H191 0.948 . S
C213 C208 1.364 . S
C213 C212 1.379 . S
C214 C183 1.383 . S
C214 C201 1.479 . S
C214 C215 1.398 . S
C215 C180 1.382 . S
C215 H192 0.951 . S
C215 C214 1.398 . S
C216 C217 1.384 . S
C216 H229 0.947 . S
C216 C251 1.382 . S
C217 C216 1.384 . S
C217 C218 1.378 . S
C218 C217 1.378 . S
C218 C219 1.378 . S
C218 H230 0.952 . S
C219 C218 1.378 . S
C219 H231 0.950 . S
C219 C250 1.383 . S
H220 C239 0.947 . S
H221 C240 0.946 . S
H222 C242 0.953 . S
H223 C243 0.945 . S
H224 C245 0.952 . S
H225 C246 0.949 . S
H226 C248 0.950 . S
H227 C249 0.948 . S
H228 C251 0.951 . S
H229 C216 0.947 . S
H230 C218 0.952 . S
H231 C219 0.950 . S
N232 C235 1.382 . S
N232 C237 1.363 . S
N233 C235 1.371 . S
N233 C236 1.372 . S
N234 C236 1.361 . S
N234 C237 1.377 . S
C235 N232 1.382 . S
C235 N233 1.371 . S
C235 C238 1.480 . S
C236 N233 1.372 . S
C236 N234 1.361 . S
C236 C244 1.457 . S
C237 N232 1.363 . S
C237 N234 1.377 . S
C237 C250 1.479 . S
C238 C235 1.480 . S
C238 C239 1.383 . S
C238 C243 1.385 . S
C239 H220 0.947 . S
C239 C238 1.383 . S
C239 C240 1.388 . S
C240 H221 0.946 . S
C240 C239 1.388 . S
C240 C241 1.384 . S
C241 C240 1.384 . S
C241 C242 1.377 . S
C242 H222 0.953 . S
C242 C241 1.377 . S
C242 C243 1.369 . S
C243 H223 0.945 . S
C243 C238 1.385 . S
C243 C242 1.369 . S
C244 C236 1.457 . S
C244 C245 1.372 . S
C244 C249 1.364 1_655 S
C245 H224 0.952 . S
C245 C244 1.372 . S
C245 C246 1.389 . S
C246 H225 0.949 . S
C246 C245 1.389 . S
C246 C247 1.387 1_655 S
C247 C246 1.387 1_455 S
C247 C248 1.372 . S
C248 H226 0.950 . S
C248 C247 1.372 . S
C248 C249 1.379 . S
C249 H227 0.948 . S
C249 C244 1.364 1_455 S
C249 C248 1.379 . S
C250 C219 1.383 . S
C250 C237 1.479 . S
C250 C251 1.398 . S
C251 C216 1.382 . S
C251 H228 0.951 . S
C251 C250 1.398 . S
C252 C253 1.384 . S
C252 H265 0.947 . S
C252 C287 1.382 . S
C253 C252 1.384 . S
C253 C254 1.378 . S
C254 C253 1.378 . S
C254 C255 1.378 . S
C254 H266 0.952 . S
C255 C254 1.378 . S
C255 H267 0.950 . S
C255 C286 1.383 . S
H256 C275 0.947 . S
H257 C276 0.946 . S
H258 C278 0.953 . S
H259 C279 0.945 . S
H260 C281 0.952 . S
H261 C282 0.949 . S
H262 C284 0.950 . S
H263 C285 0.948 . S
H264 C287 0.951 . S
H265 C252 0.947 . S
H266 C254 0.952 . S
H267 C255 0.950 . S
N268 C271 1.382 . S
N268 C273 1.363 . S
N269 C271 1.371 . S
N269 C272 1.372 . S
N270 C272 1.361 . S
N270 C273 1.377 . S
C271 N268 1.382 . S
C271 N269 1.371 . S
C271 C274 1.480 . S
C272 N269 1.372 . S
C272 N270 1.361 . S
C272 C280 1.457 . S
C273 N268 1.363 . S
C273 N270 1.377 . S
C273 C286 1.479 . S
C274 C271 1.480 . S
C274 C275 1.383 . S
C274 C279 1.385 . S
C275 H256 0.947 . S
C275 C274 1.383 . S
C275 C276 1.388 . S
C276 H257 0.946 . S
C276 C275 1.388 . S
C276 C277 1.384 . S
C277 C276 1.384 . S
C277 C278 1.377 . S
C278 H258 0.953 . S
C278 C277 1.377 . S
C278 C279 1.369 . S
C279 H259 0.945 . S
C279 C274 1.385 . S
C279 C278 1.369 . S
C280 C272 1.457 . S
C280 C281 1.372 . S
C280 C285 1.364 . S
C281 H260 0.952 . S
C281 C280 1.372 . S
C281 C282 1.389 . S
C282 H261 0.949 . S
C282 C281 1.389 . S
C282 C283 1.387 . S
C283 C282 1.387 . S
C283 C284 1.372 . S
C284 H262 0.950 . S
C284 C283 1.372 . S
C284 C285 1.379 . S
C285 H263 0.948 . S
C285 C280 1.364 . S
C285 C284 1.379 . S
C286 C255 1.383 . S
C286 C273 1.479 . S
C286 C287 1.398 . S
C287 C252 1.382 . S
C287 H264 0.951 . S
C287 C286 1.398 . S
C288 C289 1.384 . S
C288 H301 0.947 . S
C288 C323 1.382 . S
C289 C288 1.384 . S
C289 C290 1.378 . S
C290 C289 1.378 . S
C290 C291 1.378 . S
C290 H302 0.952 . S
C291 C290 1.378 . S
C291 H303 0.950 . S
C291 C322 1.383 . S
H292 C311 0.947 . S
H293 C312 0.946 . S
H294 C314 0.953 . S
H295 C315 0.945 . S
H296 C317 0.952 . S
H297 C318 0.949 . S
H298 C320 0.950 . S
H299 C321 0.948 . S
H300 C323 0.951 . S
H301 C288 0.947 . S
H302 C290 0.952 . S
H303 C291 0.950 . S
N304 C307 1.382 . S
N304 C309 1.363 . S
N305 C307 1.371 . S
N305 C308 1.372 . S
N306 C308 1.361 . S
N306 C309 1.377 . S
C307 N304 1.382 . S
C307 N305 1.371 . S
C307 C310 1.480 . S
C308 N305 1.372 . S
C308 N306 1.361 . S
C308 C316 1.457 . S
C309 N304 1.363 . S
C309 N306 1.377 . S
C309 C322 1.479 . S
C310 C307 1.480 . S
C310 C311 1.383 . S
C310 C315 1.385 . S
C311 H292 0.947 . S
C311 C310 1.383 . S
C311 C312 1.388 . S
C312 H293 0.946 . S
C312 C311 1.388 . S
C312 C313 1.384 . S
C313 C312 1.384 . S
C313 C314 1.377 . S
C314 H294 0.953 . S
C314 C313 1.377 . S
C314 C315 1.369 . S
C315 H295 0.945 . S
C315 C310 1.385 . S
C315 C314 1.369 . S
C316 C308 1.457 . S
C316 C317 1.372 . S
C316 C321 1.364 . S
C317 H296 0.952 . S
C317 C316 1.372 . S
C317 C318 1.389 . S
C318 H297 0.949 . S
C318 C317 1.389 . S
C318 C319 1.387 . S
C319 C318 1.387 . S
C319 C320 1.372 . S
C320 H298 0.950 . S
C320 C319 1.372 . S
C320 C321 1.379 . S
C321 H299 0.948 . S
C321 C316 1.364 . S
C321 C320 1.379 . S
C322 C291 1.383 . S
C322 C309 1.479 . S
C322 C323 1.398 . S
C323 C288 1.382 . S
C323 H300 0.951 . S
C323 C322 1.398 . S
C324 C325 1.384 . S
C324 H337 0.947 . S
C324 C359 1.382 . S
C325 C324 1.384 . S
C325 C326 1.378 . S
C326 C325 1.378 . S
C326 C327 1.378 . S
C326 H338 0.952 . S
C327 C326 1.378 . S
C327 H339 0.950 . S
C327 C358 1.383 . S
H328 C347 0.947 . S
H329 C348 0.946 . S
H330 C350 0.953 . S
H331 C351 0.945 . S
H332 C353 0.952 . S
H333 C354 0.949 . S
H334 C356 0.950 . S
H335 C357 0.948 . S
H336 C359 0.951 . S
H337 C324 0.947 . S
H338 C326 0.952 . S
H339 C327 0.950 . S
N340 C343 1.382 . S
N340 C345 1.363 . S
N341 C343 1.371 . S
N341 C344 1.372 . S
N342 C344 1.361 . S
N342 C345 1.377 . S
C343 N340 1.382 . S
C343 N341 1.371 . S
C343 C346 1.480 . S
C344 N341 1.372 . S
C344 N342 1.361 . S
C344 C352 1.457 . S
C345 N340 1.363 . S
C345 N342 1.377 . S
C345 C358 1.479 . S
C346 C343 1.480 . S
C346 C347 1.383 . S
C346 C351 1.385 1_565 S
C347 H328 0.947 . S
C347 C346 1.383 . S
C347 C348 1.388 . S
C348 H329 0.946 . S
C348 C347 1.388 . S
C348 C349 1.384 1_565 S
C349 C348 1.384 1_545 S
C349 C350 1.377 . S
C350 H330 0.953 . S
C350 C349 1.377 . S
C350 C351 1.369 . S
C351 H331 0.945 . S
C351 C346 1.385 1_545 S
C351 C350 1.369 . S
C352 C344 1.457 . S
C352 C353 1.372 . S
C352 C357 1.364 . S
C353 H332 0.952 . S
C353 C352 1.372 . S
C353 C354 1.389 . S
C354 H333 0.949 . S
C354 C353 1.389 . S
C354 C355 1.387 . S
C355 C354 1.387 . S
C355 C356 1.372 . S
C356 H334 0.950 . S
C356 C355 1.372 . S
C356 C357 1.379 . S
C357 H335 0.948 . S
C357 C352 1.364 . S
C357 C356 1.379 . S
C358 C327 1.383 . S
C358 C345 1.479 . S
C358 C359 1.398 . S
C359 C324 1.382 . S
C359 H336 0.951 . S
C359 C358 1.398 . S
C360 C361 1.384 . S
C360 H373 0.947 . S
C360 C395 1.382 . S
C361 C360 1.384 . S
C361 C362 1.378 . S
C362 C361 1.378 . S
C362 C363 1.378 . S
C362 H374 0.952 . S
C363 C362 1.378 . S
C363 H375 0.950 . S
C363 C394 1.383 . S
H364 C383 0.947 . S
H365 C384 0.946 . S
H366 C386 0.953 . S
H367 C387 0.945 . S
H368 C389 0.952 . S
H369 C390 0.949 . S
H370 C392 0.950 . S
H371 C393 0.948 . S
H372 C395 0.951 . S
H373 C360 0.947 . S
H374 C362 0.952 . S
H375 C363 0.950 . S
N376 C379 1.382 . S
N376 C381 1.363 . S
N377 C379 1.371 . S
N377 C380 1.372 . S
N378 C380 1.361 . S
N378 C381 1.377 . S
C379 N376 1.382 . S
C379 N377 1.371 . S
C379 C382 1.480 . S
C380 N377 1.372 . S
C380 N378 1.361 . S
C380 C388 1.457 . S
C381 N376 1.363 . S
C381 N378 1.377 . S
C381 C394 1.479 . S
C382 C379 1.480 . S
C382 C383 1.383 . S
C382 C387 1.385 . S
C383 H364 0.947 . S
C383 C382 1.383 . S
C383 C384 1.388 . S
C384 H365 0.946 . S
C384 C383 1.388 . S
C384 C385 1.384 . S
C385 C384 1.384 . S
C385 C386 1.377 . S
C386 H366 0.953 . S
C386 C385 1.377 . S
C386 C387 1.369 . S
C387 H367 0.945 . S
C387 C382 1.385 . S
C387 C386 1.369 . S
C388 C380 1.457 . S
C388 C389 1.372 . S
C388 C393 1.364 . S
C389 H368 0.952 . S
C389 C388 1.372 . S
C389 C390 1.389 . S
C390 H369 0.949 . S
C390 C389 1.389 . S
C390 C391 1.387 . S
C391 C390 1.387 . S
C391 C392 1.372 . S
C392 H370 0.950 . S
C392 C391 1.372 . S
C392 C393 1.379 . S
C393 H371 0.948 . S
C393 C388 1.364 . S
C393 C392 1.379 . S
C394 C363 1.383 . S
C394 C381 1.479 . S
C394 C395 1.398 . S
C395 C360 1.382 . S
C395 H372 0.951 . S
C395 C394 1.398 . S
C396 C397 1.384 . S
C396 H409 0.947 . S
C396 C431 1.382 . S
C397 C396 1.384 . S
C397 C398 1.378 . S
C398 C397 1.378 . S
C398 C399 1.378 . S
C398 H410 0.952 . S
C399 C398 1.378 . S
C399 H411 0.950 . S
C399 C430 1.383 . S
H400 C419 0.947 . S
H401 C420 0.946 . S
H402 C422 0.953 . S
H403 C423 0.945 . S
H404 C425 0.952 . S
H405 C426 0.949 . S
H406 C428 0.950 . S
H407 C429 0.948 . S
H408 C431 0.951 . S
H409 C396 0.947 . S
H410 C398 0.952 . S
H411 C399 0.950 . S
N412 C415 1.382 . S
N412 C417 1.363 . S
N413 C415 1.371 . S
N413 C416 1.372 . S
N414 C416 1.361 . S
N414 C417 1.377 . S
C415 N412 1.382 . S
C415 N413 1.371 . S
C415 C418 1.480 . S
C416 N413 1.372 . S
C416 N414 1.361 . S
C416 C424 1.457 . S
C417 N412 1.363 . S
C417 N414 1.377 . S
C417 C430 1.479 . S
C418 C415 1.480 . S
C418 C419 1.383 . S
C418 C423 1.385 . S
C419 H400 0.947 . S
C419 C418 1.383 . S
C419 C420 1.388 . S
C420 H401 0.946 . S
C420 C419 1.388 . S
C420 C421 1.384 . S
C421 C420 1.384 . S
C421 C422 1.377 . S
C422 H402 0.953 . S
C422 C421 1.377 . S
C422 C423 1.369 . S
C423 H403 0.945 . S
C423 C418 1.385 . S
C423 C422 1.369 . S
C424 C416 1.457 . S
C424 C425 1.372 . S
C424 C429 1.364 . S
C425 H404 0.952 . S
C425 C424 1.372 . S
C425 C426 1.389 . S
C426 H405 0.949 . S
C426 C425 1.389 . S
C426 C427 1.387 . S
C427 C426 1.387 . S
C427 C428 1.372 . S
C428 H406 0.950 . S
C428 C427 1.372 . S
C428 C429 1.379 . S
C429 H407 0.948 . S
C429 C424 1.364 . S
C429 C428 1.379 . S
C430 C399 1.383 . S
C430 C417 1.479 . S
C430 C431 1.398 . S
C431 C396 1.382 . S
C431 H408 0.951 . S
C431 C430 1.398 . S
C432 C433 1.384 . S
C432 H445 0.947 . S
C432 C467 1.382 . S
C433 C432 1.384 . S
C433 C434 1.378 . S
C434 C433 1.378 . S
C434 C435 1.378 . S
C434 H446 0.952 . S
C435 C434 1.378 . S
C435 H447 0.950 . S
C435 C466 1.383 . S
H436 C455 0.947 . S
H437 C456 0.946 . S
H438 C458 0.953 . S
H439 C459 0.945 . S
H440 C461 0.952 . S
H441 C462 0.949 . S
H442 C464 0.950 . S
H443 C465 0.948 . S
H444 C467 0.951 . S
H445 C432 0.947 . S
H446 C434 0.952 . S
H447 C435 0.950 . S
N448 C451 1.382 . S
N448 C453 1.363 . S
N449 C451 1.371 . S
N449 C452 1.372 . S
N450 C452 1.361 . S
N450 C453 1.377 . S
C451 N448 1.382 . S
C451 N449 1.371 . S
C451 C454 1.480 . S
C452 N449 1.372 . S
C452 N450 1.361 . S
C452 C460 1.457 . S
C453 N448 1.363 . S
C453 N450 1.377 . S
C453 C466 1.479 . S
C454 C451 1.480 . S
C454 C455 1.383 . S
C454 C459 1.385 . S
C455 H436 0.947 . S
C455 C454 1.383 . S
C455 C456 1.388 . S
C456 H437 0.946 . S
C456 C455 1.388 . S
C456 C457 1.384 . S
C457 C456 1.384 . S
C457 C458 1.377 . S
C458 H438 0.953 . S
C458 C457 1.377 . S
C458 C459 1.369 . S
C459 H439 0.945 . S
C459 C454 1.385 . S
C459 C458 1.369 . S
C460 C452 1.457 . S
C460 C461 1.372 . S
C460 C465 1.364 . S
C461 H440 0.952 . S
C461 C460 1.372 . S
C461 C462 1.389 . S
C462 H441 0.949 . S
C462 C461 1.389 . S
C462 C463 1.387 . S
C463 C462 1.387 . S
C463 C464 1.372 . S
C464 H442 0.950 . S
C464 C463 1.372 . S
C464 C465 1.379 . S
C465 H443 0.948 . S
C465 C460 1.364 . S
C465 C464 1.379 . S
C466 C435 1.383 . S
C466 C453 1.479 . S
C466 C467 1.398 . S
C467 C432 1.382 . S
C467 H444 0.951 . S
C467 C466 1.398 . S
C468 C469 1.384 . S
C468 H481 0.947 . S
C468 C503 1.382 1_554 S
C469 C468 1.384 . S
C469 C470 1.378 1_554 S
C470 C469 1.378 1_556 S
C470 C471 1.378 . S
C470 H482 0.952 . S
C471 C470 1.378 . S
C471 H483 0.950 . S
C471 C502 1.383 . S
H472 C491 0.947 . S
H473 C492 0.946 . S
H474 C494 0.953 . S
H475 C495 0.945 . S
H476 C497 0.952 . S
H477 C498 0.949 . S
H478 C500 0.950 . S
H479 C501 0.948 . S
H480 C503 0.944 1_554 S
H481 C468 0.947 . S
H482 C470 0.952 . S
H483 C471 0.950 . S
N484 C487 1.382 . S
N484 C489 1.363 . S
N485 C487 1.371 . S
N485 C488 1.372 . S
N486 C488 1.361 . S
N486 C489 1.377 . S
C487 N484 1.382 . S
C487 N485 1.371 . S
C487 C490 1.480 . S
C488 N485 1.372 . S
C488 N486 1.361 . S
C488 C496 1.457 . S
C489 N484 1.363 . S
C489 N486 1.377 . S
C489 C502 1.479 . S
C490 C487 1.480 . S
C490 C491 1.383 . S
C490 C495 1.385 . S
C491 H472 0.947 . S
C491 C490 1.383 . S
C491 C492 1.388 . S
C492 H473 0.946 . S
C492 C491 1.388 . S
C492 C493 1.384 . S
C493 C492 1.384 . S
C493 C494 1.377 . S
C494 H474 0.953 . S
C494 C493 1.377 . S
C494 C495 1.369 . S
C495 H475 0.945 . S
C495 C490 1.385 . S
C495 C494 1.369 . S
C496 C488 1.457 . S
C496 C497 1.372 . S
C496 C501 1.364 . S
C497 H476 0.952 . S
C497 C496 1.372 . S
C497 C498 1.389 . S
C498 H477 0.949 . S
C498 C497 1.389 . S
C498 C499 1.387 . S
C499 C498 1.387 . S
C499 C500 1.372 . S
C500 H478 0.950 . S
C500 C499 1.372 . S
C500 C501 1.379 . S
C501 H479 0.948 . S
C501 C496 1.364 . S
C501 C500 1.379 . S
C502 C471 1.383 . S
C502 C489 1.479 . S
C502 C503 1.398 . S
C503 C468 1.382 1_556 S
C503 H480 0.944 1_556 S
C503 C502 1.398 . S
C504 C505 1.384 . S
C504 H517 0.947 . S
C504 C539 1.382 . S
C505 C504 1.384 . S
C505 C506 1.378 . S
C506 C505 1.378 . S
C506 C507 1.378 . S
C506 H518 0.952 . S
C507 C506 1.378 . S
C507 H519 0.950 . S
C507 C538 1.383 . S
H508 C527 0.947 . S
H509 C528 0.946 . S
H510 C530 0.953 . S
H511 C531 0.945 . S
H512 C533 0.952 . S
H513 C534 0.949 . S
H514 C536 0.950 . S
H515 C537 0.948 . S
H516 C539 0.951 . S
H517 C504 0.947 . S
H518 C506 0.952 . S
H519 C507 0.950 . S
N520 C523 1.382 . S
N520 C525 1.363 . S
N521 C523 1.371 . S
N521 C524 1.372 . S
N522 C524 1.361 . S
N522 C525 1.377 . S
C523 N520 1.382 . S
C523 N521 1.371 . S
C523 C526 1.480 . S
C524 N521 1.372 . S
C524 N522 1.361 . S
C524 C532 1.457 . S
C525 N520 1.363 . S
C525 N522 1.377 . S
C525 C538 1.479 . S
C526 C523 1.480 . S
C526 C527 1.383 . S
C526 C531 1.385 . S
C527 H508 0.947 . S
C527 C526 1.383 . S
C527 C528 1.388 . S
C528 H509 0.946 . S
C528 C527 1.388 . S
C528 C529 1.384 . S
C529 C528 1.384 . S
C529 C530 1.377 . S
C530 H510 0.953 . S
C530 C529 1.377 . S
C530 C531 1.369 . S
C531 H511 0.945 . S
C531 C526 1.385 . S
C531 C530 1.369 . S
C532 C524 1.457 . S
C532 C533 1.372 . S
C532 C537 1.364 . S
C533 H512 0.952 . S
C533 C532 1.372 . S
C533 C534 1.389 . S
C534 H513 0.949 . S
C534 C533 1.389 . S
C534 C535 1.387 . S
C535 C534 1.387 . S
C535 C536 1.372 . S
C536 H514 0.950 . S
C536 C535 1.372 . S
C536 C537 1.379 . S
C537 H515 0.948 . S
C537 C532 1.364 . S
C537 C536 1.379 . S
C538 C507 1.383 . S
C538 C525 1.479 . S
C538 C539 1.398 . S
C539 C504 1.382 . S
C539 H516 0.951 . S
C539 C538 1.398 . S
C540 C541 1.384 1_556 S
C540 H553 0.947 . S
C540 C575 1.382 . S
C541 C540 1.384 1_554 S
C541 C542 1.378 . S
C542 C541 1.378 . S
C542 C543 1.378 1_554 S
C542 H554 0.952 . S
C543 C542 1.378 1_556 S
C543 H555 0.965 . S
C543 C574 1.383 . S
H544 C563 0.947 . S
H545 C564 0.946 . S
H546 C566 0.953 . S
H547 C567 0.945 . S
H548 C569 0.952 . S
H549 C570 0.949 . S
H550 C572 0.950 . S
H551 C573 0.948 . S
H552 C575 0.951 . S
H553 C540 0.947 . S
H554 C542 0.952 . S
H555 C543 0.965 . S
N556 C559 1.382 . S
N556 C561 1.363 . S
N557 C559 1.371 . S
N557 C560 1.372 . S
N558 C560 1.361 . S
N558 C561 1.377 . S
C559 N556 1.382 . S
C559 N557 1.371 . S
C559 C562 1.480 . S
C560 N557 1.372 . S
C560 N558 1.361 . S
C560 C568 1.457 . S
C561 N556 1.363 . S
C561 N558 1.377 . S
C561 C574 1.479 . S
C562 C559 1.480 . S
C562 C563 1.383 . S
C562 C567 1.385 . S
C563 H544 0.947 . S
C563 C562 1.383 . S
C563 C564 1.388 . S
C564 H545 0.946 . S
C564 C563 1.388 . S
C564 C565 1.383 . S
C565 C564 1.383 . S
C565 C566 1.377 1_545 S
C566 H546 0.953 . S
C566 C565 1.377 1_565 S
C566 C567 1.369 1_565 S
C567 H547 0.945 . S
C567 C562 1.385 . S
C567 C566 1.369 1_545 S
C568 C560 1.457 . S
C568 C569 1.372 . S
C568 C573 1.364 . S
C569 H548 0.952 . S
C569 C568 1.372 . S
C569 C570 1.389 . S
C570 H549 0.949 . S
C570 C569 1.389 . S
C570 C571 1.387 . S
C571 C570 1.387 . S
C571 C572 1.372 . S
C572 H550 0.950 . S
C572 C571 1.372 . S
C572 C573 1.379 . S
C573 H551 0.948 . S
C573 C568 1.364 . S
C573 C572 1.379 . S
C574 C543 1.383 . S
C574 C561 1.479 . S
C574 C575 1.398 . S
C575 C540 1.382 . S
C575 H552 0.951 . S
C575 C574 1.398 . S
Zn576 O579 2.036 . S
Zn576 O581 2.046 1_554 S
Zn576 O586 2.060 1_554 S
Zn577 O578 1.962 . S
Zn577 O580 1.986 . S
Zn577 O582 1.996 . S
Zn577 O585 1.943 1_554 S
O578 Zn577 1.962 . S
O578 C583 1.254 . S
O579 Zn576 2.036 . S
O579 C583 1.269 . S
O580 Zn577 1.986 . S
O580 C587 1.262 . S
O581 Zn576 2.046 1_556 S
O581 C589 1.260 . S
O582 Zn577 1.996 . S
O582 C589 1.257 1_554 S
C583 O578 1.254 . S
C583 O579 1.269 . S
C584 O585 1.249 . S
C584 O586 1.270 . S
O585 Zn577 1.943 1_556 S
O585 C584 1.249 . S
O586 Zn576 2.060 1_556 S
O586 C584 1.270 . S
C587 O580 1.262 . S
C587 O588 1.232 . S
O588 C587 1.232 . S
C589 O581 1.260 . S
C589 O582 1.257 1_556 S
Zn590 O593 2.031 . S
Zn590 O595 2.049 . S
Zn590 O600 2.067 . S
Zn591 O592 1.962 . S
Zn591 O594 1.986 . S
Zn591 O596 1.996 . S
Zn591 O599 1.943 . S
O592 Zn591 1.962 . S
O592 C597 1.254 . S
O593 Zn590 2.031 . S
O593 C597 1.269 . S
O594 Zn591 1.986 . S
O594 C601 1.262 . S
O595 Zn590 2.049 . S
O595 C603 1.260 . S
O596 Zn591 1.996 . S
O596 C603 1.257 . S
C597 O592 1.254 . S
C597 O593 1.269 . S
C598 O599 1.249 . S
C598 O600 1.270 . S
O599 Zn591 1.943 . S
O599 C598 1.249 . S
O600 Zn590 2.067 . S
O600 C598 1.270 . S
C601 O594 1.262 . S
C601 O602 1.232 . S
O602 C601 1.232 . S
C603 O595 1.260 . S
C603 O596 1.257 . S
Zn604 O607 2.031 . S
Zn604 O609 2.049 . S
Zn604 O614 2.067 . S
Zn605 O606 1.962 . S
Zn605 O608 1.986 . S
Zn605 O610 1.996 1_554 S
Zn605 O613 1.943 . S
O606 Zn605 1.962 . S
O606 C611 1.254 . S
O607 Zn604 2.031 . S
O607 C611 1.269 1_556 S
O608 Zn605 1.986 . S
O608 C615 1.262 . S
O609 Zn604 2.049 . S
O609 C617 1.260 . S
O610 Zn605 1.996 1_556 S
O610 C617 1.257 . S
C611 O606 1.254 . S
C611 O607 1.269 1_554 S
C612 O613 1.249 1_556 S
C612 O614 1.270 . S
O613 Zn605 1.943 . S
O613 C612 1.249 1_554 S
O614 Zn604 2.067 . S
O614 C612 1.270 . S
C615 O608 1.262 . S
C615 O616 1.232 . S
O616 C615 1.232 . S
C617 O609 1.260 . S
C617 O610 1.257 . S
Zn618 O621 2.046 . S
Zn618 O623 2.039 1_545 S
Zn618 O628 2.046 1_545 S
Zn619 O620 1.962 . S
Zn619 O622 1.986 . S
Zn619 O624 1.996 . S
Zn619 O627 1.943 1_545 S
O620 Zn619 1.962 . S
O620 C625 1.254 . S
O621 Zn618 2.046 . S
O621 C625 1.269 . S
O622 Zn619 1.986 . S
O622 C629 1.262 . S
O623 Zn618 2.039 1_565 S
O623 C631 1.260 . S
O624 Zn619 1.996 . S
O624 C631 1.257 1_545 S
C625 O620 1.254 . S
C625 O621 1.269 . S
C626 O627 1.249 . S
C626 O628 1.270 . S
O627 Zn619 1.943 1_565 S
O627 C626 1.249 . S
O628 Zn618 2.046 1_565 S
O628 C626 1.270 . S
C629 O622 1.262 . S
C629 O630 1.232 . S
O630 C629 1.232 . S
C631 O623 1.260 . S
C631 O624 1.257 1_565 S
Zn632 O635 2.031 . S
Zn632 O637 2.049 . S
Zn632 O642 2.067 . S
Zn633 O634 1.962 . S
Zn633 O636 1.986 . S
Zn633 O638 1.996 . S
Zn633 O641 1.943 . S
O634 Zn633 1.962 . S
O634 C639 1.254 . S
O635 Zn632 2.031 . S
O635 C639 1.269 . S
O636 Zn633 1.986 . S
O636 C643 1.262 . S
O637 Zn632 2.049 . S
O637 C645 1.260 . S
O638 Zn633 1.996 . S
O638 C645 1.257 . S
C639 O634 1.254 . S
C639 O635 1.269 . S
C640 O641 1.249 . S
C640 O642 1.270 . S
O641 Zn633 1.943 . S
O641 C640 1.249 . S
O642 Zn632 2.067 . S
O642 C640 1.270 . S
C643 O636 1.262 . S
C643 O644 1.232 . S
O644 C643 1.232 . S
C645 O637 1.260 . S
C645 O638 1.257 . S
Zn646 O649 2.031 . S
Zn646 O651 2.049 . S
Zn646 O656 2.067 . S
Zn647 O648 1.962 . S
Zn647 O650 1.986 . S
Zn647 O652 1.996 . S
Zn647 O655 1.943 . S
O648 Zn647 1.962 . S
O648 C653 1.254 . S
O649 Zn646 2.031 . S
O649 C653 1.269 . S
O650 Zn647 1.986 . S
O650 C657 1.262 . S
O651 Zn646 2.049 . S
O651 C659 1.260 . S
O652 Zn647 1.996 . S
O652 C659 1.257 . S
C653 O648 1.254 . S
C653 O649 1.269 . S
C654 O655 1.249 . S
C654 O656 1.270 . S
O655 Zn647 1.943 . S
O655 C654 1.249 . S
O656 Zn646 2.067 . S
O656 C654 1.270 . S
C657 O650 1.262 . S
C657 O658 1.232 . S
O658 C657 1.232 . S
C659 O651 1.260 . S
C659 O652 1.257 . S
Zn660 O663 2.031 . S
Zn660 O665 2.049 . S
Zn660 O670 2.067 . S
Zn661 O662 1.962 . S
Zn661 O664 1.986 . S
Zn661 O666 1.996 . S
Zn661 O669 1.943 . S
O662 Zn661 1.962 . S
O662 C667 1.254 . S
O663 Zn660 2.031 . S
O663 C667 1.269 . S
O664 Zn661 1.986 . S
O664 C671 1.262 . S
O665 Zn660 2.049 . S
O665 C673 1.260 . S
O666 Zn661 1.996 . S
O666 C673 1.257 . S
C667 O662 1.254 . S
C667 O663 1.269 . S
C668 O669 1.249 . S
C668 O670 1.270 . S
O669 Zn661 1.943 . S
O669 C668 1.249 . S
O670 Zn660 2.067 . S
O670 C668 1.270 . S
C671 O664 1.262 . S
C671 O672 1.232 . S
O672 C671 1.232 . S
C673 O665 1.260 . S
C673 O666 1.257 . S
Zn674 O677 2.031 . S
Zn674 O679 2.049 . S
Zn674 O684 2.067 . S
Zn675 O676 1.962 . S
Zn675 O678 1.986 . S
Zn675 O680 1.996 1_545 S
Zn675 O683 1.943 . S
O676 Zn675 1.962 . S
O676 C681 1.254 . S
O677 Zn674 2.031 . S
O677 C681 1.269 1_565 S
O678 Zn675 1.986 . S
O678 C685 1.262 . S
O679 Zn674 2.049 . S
O679 C687 1.260 . S
O680 Zn675 1.996 1_565 S
O680 C687 1.257 . S
C681 O676 1.254 . S
C681 O677 1.269 1_545 S
C682 O683 1.249 1_565 S
C682 O684 1.270 . S
O683 Zn675 1.943 . S
O683 C682 1.249 1_545 S
O684 Zn674 2.067 . S
O684 C682 1.270 . S
C685 O678 1.262 . S
C685 O686 1.232 . S
O686 C685 1.232 . S
C687 O679 1.260 . S
C687 O680 1.257 . S
Zn688 O691 2.035 . S
Zn688 O693 2.047 1_455 S
Zn688 O698 2.062 1_455 S
Zn689 O690 1.962 . S
Zn689 O692 1.986 . S
Zn689 O694 1.996 . S
Zn689 O697 1.943 1_455 S
O690 Zn689 1.962 . S
O690 C695 1.254 . S
O691 Zn688 2.035 . S
O691 C695 1.269 . S
O692 Zn689 1.986 . S
O692 C699 1.262 . S
O693 Zn688 2.047 1_655 S
O693 C701 1.260 . S
O694 Zn689 1.996 . S
O694 C701 1.257 1_455 S
C695 O690 1.254 . S
C695 O691 1.269 . S
C696 O697 1.249 . S
C696 O698 1.270 . S
O697 Zn689 1.943 1_655 S
O697 C696 1.249 . S
O698 Zn688 2.062 1_655 S
O698 C696 1.270 . S
C699 O692 1.262 . S
C699 O700 1.232 . S
O700 C699 1.232 . S
C701 O693 1.260 . S
C701 O694 1.257 1_655 S
Zn702 O705 2.031 . S
Zn702 O707 2.049 . S
Zn702 O712 2.067 . S
Zn703 O704 1.962 . S
Zn703 O706 1.986 . S
Zn703 O708 1.996 . S
Zn703 O711 1.943 . S
O704 Zn703 1.962 . S
O704 C709 1.254 . S
O705 Zn702 2.031 . S
O705 C709 1.269 . S
O706 Zn703 1.986 . S
O706 C713 1.262 . S
O707 Zn702 2.049 . S
O707 C715 1.260 . S
O708 Zn703 1.996 . S
O708 C715 1.257 . S
C709 O704 1.254 . S
C709 O705 1.269 . S
C710 O711 1.249 . S
C710 O712 1.270 . S
O711 Zn703 1.943 . S
O711 C710 1.249 . S
O712 Zn702 2.067 . S
O712 C710 1.270 . S
C713 O706 1.262 . S
C713 O714 1.232 . S
O714 C713 1.232 . S
C715 O707 1.260 . S
C715 O708 1.257 . S
Zn716 O719 2.031 . S
Zn716 O721 2.049 . S
Zn716 O726 2.067 . S
Zn717 O718 1.962 . S
Zn717 O720 1.986 . S
Zn717 O722 1.996 1_455 S
Zn717 O725 1.943 . S
O718 Zn717 1.962 . S
O718 C723 1.254 . S
O719 Zn716 2.031 . S
O719 C723 1.269 1_655 S
O720 Zn717 1.986 . S
O720 C727 1.262 . S
O721 Zn716 2.049 . S
O721 C729 1.260 . S
O722 Zn717 1.996 1_655 S
O722 C729 1.257 . S
C723 O718 1.254 . S
C723 O719 1.269 1_455 S
C724 O725 1.249 1_655 S
C724 O726 1.270 . S
O725 Zn717 1.943 . S
O725 C724 1.249 1_455 S
O726 Zn716 2.067 . S
O726 C724 1.270 . S
C727 O720 1.262 . S
C727 O728 1.232 . S
O728 C727 1.232 . S
C729 O721 1.260 . S
C729 O722 1.257 . S
Zn730 O733 2.031 . S
Zn730 O735 2.049 . S
Zn730 O740 2.067 . S
Zn731 O732 1.962 . S
Zn731 O734 1.986 . S
Zn731 O736 1.996 . S
Zn731 O739 1.943 . S
O732 Zn731 1.962 . S
O732 C737 1.254 . S
O733 Zn730 2.031 . S
O733 C737 1.269 . S
O734 Zn731 1.986 . S
O734 C741 1.262 . S
O735 Zn730 2.049 . S
O735 C743 1.260 . S
O736 Zn731 1.996 . S
O736 C743 1.257 . S
C737 O732 1.254 . S
C737 O733 1.269 . S
C738 O739 1.249 . S
C738 O740 1.270 . S
O739 Zn731 1.943 . S
O739 C738 1.249 . S
O740 Zn730 2.067 . S
O740 C738 1.270 . S
C741 O734 1.262 . S
C741 O742 1.232 . S
O742 C741 1.232 . S
C743 O735 1.260 . S
C743 O736 1.257 . S
H744 C756 0.930 . S
H745 C758 0.930 . S
H746 C759 0.930 . S
H747 C763 0.959 . S
H748 C763 0.959 . S
H749 C763 0.961 . S
H750 C764 0.960 . S
H751 C764 0.961 . S
H752 C764 0.959 . S
H753 C767 0.929 . S
H754 C768 0.931 . S
H755 C770 0.930 . S
C756 H744 0.930 . S
C756 C757 1.399 . S
C756 C761 1.399 . S
C757 C756 1.399 . S
C757 C758 1.376 . S
C758 H745 0.930 . S
C758 C757 1.376 . S
C758 C759 1.388 . S
C759 H746 0.930 . S
C759 C758 1.388 . S
C759 C760 1.390 . S
C760 C759 1.390 . S
C760 C761 1.394 . S
C760 C766 1.465 . S
C761 C756 1.399 . S
C761 C760 1.394 . S
C761 C762 1.516 . S
C762 C761 1.516 . S
C762 C763 1.502 . S
C762 C764 1.561 . S
C762 C765 1.526 . S
C763 H747 0.959 . S
C763 H748 0.959 . S
C763 H749 0.961 . S
C763 C762 1.502 . S
C764 H750 0.960 . S
C764 H751 0.961 . S
C764 H752 0.959 . S
C764 C762 1.561 . S
C765 C762 1.526 . S
C765 C766 1.396 . S
C765 C770 1.390 . S
C766 C760 1.465 . S
C766 C765 1.396 . S
C766 C767 1.399 . S
C767 H753 0.929 . S
C767 C766 1.399 . S
C767 C768 1.385 . S
C768 H754 0.931 . S
C768 C767 1.385 . S
C768 C769 1.389 . S
C769 C768 1.389 . S
C769 C770 1.387 . S
C770 H755 0.930 . S
C770 C765 1.390 . S
C770 C769 1.387 . S
H771 C783 0.930 . S
H772 C785 0.930 . S
H773 C786 0.930 . S
H774 C790 0.959 . S
H775 C790 0.959 . S
H776 C790 0.961 . S
H777 C791 0.960 . S
H778 C791 0.961 . S
H779 C791 0.959 . S
H780 C794 0.929 . S
H781 C795 0.931 . S
H782 C797 0.930 . S
C783 H771 0.930 . S
C783 C784 1.399 . S
C783 C788 1.399 . S
C784 C783 1.399 . S
C784 C785 1.376 . S
C785 H772 0.930 . S
C785 C784 1.376 . S
C785 C786 1.388 . S
C786 H773 0.930 . S
C786 C785 1.388 . S
C786 C787 1.390 . S
C787 C786 1.390 . S
C787 C788 1.394 . S
C787 C793 1.465 . S
C788 C783 1.399 . S
C788 C787 1.394 . S
C788 C789 1.516 . S
C789 C788 1.516 . S
C789 C790 1.502 . S
C789 C791 1.561 . S
C789 C792 1.526 . S
C790 H774 0.959 . S
C790 H775 0.959 . S
C790 H776 0.961 . S
C790 C789 1.502 . S
C791 H777 0.960 . S
C791 H778 0.961 . S
C791 H779 0.959 . S
C791 C789 1.561 . S
C792 C789 1.526 . S
C792 C793 1.396 . S
C792 C797 1.390 . S
C793 C787 1.465 . S
C793 C792 1.396 . S
C793 C794 1.399 . S
C794 H780 0.929 . S
C794 C793 1.399 . S
C794 C795 1.385 . S
C795 H781 0.931 . S
C795 C794 1.385 . S
C795 C796 1.389 . S
C796 C795 1.389 . S
C796 C797 1.387 . S
C797 H782 0.930 . S
C797 C792 1.390 . S
C797 C796 1.387 . S
H798 C810 0.930 . S
H799 C812 0.930 . S
H800 C813 0.930 . S
H801 C817 0.959 . S
H802 C817 0.959 . S
H803 C817 0.961 . S
H804 C818 0.960 . S
H805 C818 0.961 . S
H806 C818 0.959 . S
H807 C821 0.929 . S
H808 C822 0.931 . S
H809 C824 0.930 . S
C810 H798 0.930 . S
C810 C811 1.399 . S
C810 C815 1.399 . S
C811 C810 1.399 . S
C811 C812 1.376 . S
C812 H799 0.930 . S
C812 C811 1.376 . S
C812 C813 1.388 . S
C813 H800 0.930 . S
C813 C812 1.388 . S
C813 C814 1.390 . S
C814 C813 1.390 . S
C814 C815 1.394 . S
C814 C820 1.465 . S
C815 C810 1.399 . S
C815 C814 1.394 . S
C815 C816 1.516 . S
C816 C815 1.516 . S
C816 C817 1.502 . S
C816 C818 1.561 . S
C816 C819 1.526 . S
C817 H801 0.959 . S
C817 H802 0.959 . S
C817 H803 0.961 . S
C817 C816 1.502 . S
C818 H804 0.960 . S
C818 H805 0.961 . S
C818 H806 0.959 . S
C818 C816 1.561 . S
C819 C816 1.526 . S
C819 C820 1.396 . S
C819 C824 1.390 . S
C820 C814 1.465 . S
C820 C819 1.396 . S
C820 C821 1.399 . S
C821 H807 0.929 . S
C821 C820 1.399 . S
C821 C822 1.385 . S
C822 H808 0.931 . S
C822 C821 1.385 . S
C822 C823 1.389 . S
C823 C822 1.389 . S
C823 C824 1.387 . S
C824 H809 0.930 . S
C824 C819 1.390 . S
C824 C823 1.387 . S
H825 C837 0.930 . S
H826 C839 0.930 . S
H827 C840 0.930 1_545 S
H828 C844 0.959 . S
H829 C844 0.959 . S
H830 C844 0.961 . S
H831 C845 0.960 . S
H832 C845 0.961 . S
H833 C845 0.959 . S
H834 C848 0.929 . S
H835 C849 0.931 . S
H836 C851 0.930 . S
C837 H825 0.930 . S
C837 C838 1.399 . S
C837 C842 1.399 . S
C838 C837 1.399 . S
C838 C839 1.376 . S
C839 H826 0.930 . S
C839 C838 1.376 . S
C839 C840 1.388 . S
C840 H827 0.930 1_565 S
C840 C839 1.388 . S
C840 C841 1.390 . S
C841 C840 1.390 . S
C841 C842 1.394 . S
C841 C847 1.465 . S
C842 C837 1.399 . S
C842 C841 1.394 . S
C842 C843 1.516 . S
C843 C842 1.516 . S
C843 C844 1.502 . S
C843 C845 1.561 . S
C843 C846 1.526 . S
C844 H828 0.959 . S
C844 H829 0.959 . S
C844 H830 0.961 . S
C844 C843 1.502 . S
C845 H831 0.960 . S
C845 H832 0.961 . S
C845 H833 0.959 . S
C845 C843 1.561 . S
C846 C843 1.526 . S
C846 C847 1.396 . S
C846 C851 1.390 . S
C847 C841 1.465 . S
C847 C846 1.396 . S
C847 C848 1.399 1_565 S
C848 H834 0.929 . S
C848 C847 1.399 1_545 S
C848 C849 1.385 . S
C849 H835 0.931 . S
C849 C848 1.385 . S
C849 C850 1.389 1_545 S
C850 C849 1.389 1_565 S
C850 C851 1.387 . S
C851 H836 0.930 . S
C851 C846 1.390 . S
C851 C850 1.387 . S
H852 C864 0.930 . S
H853 C866 0.930 . S
H854 C867 0.930 . S
H855 C871 0.959 . S
H856 C871 0.959 . S
H857 C871 0.961 . S
H858 C872 0.960 . S
H859 C872 0.961 . S
H860 C872 0.959 . S
H861 C875 0.929 . S
H862 C876 0.931 . S
H863 C878 0.930 . S
C864 H852 0.930 . S
C864 C865 1.399 . S
C864 C869 1.399 . S
C865 C864 1.399 . S
C865 C866 1.376 . S
C866 H853 0.930 . S
C866 C865 1.376 . S
C866 C867 1.388 . S
C867 H854 0.930 . S
C867 C866 1.388 . S
C867 C868 1.390 . S
C868 C867 1.390 . S
C868 C869 1.394 . S
C868 C874 1.465 . S
C869 C864 1.399 . S
C869 C868 1.394 . S
C869 C870 1.516 . S
C870 C869 1.516 . S
C870 C871 1.502 . S
C870 C872 1.561 . S
C870 C873 1.526 . S
C871 H855 0.959 . S
C871 H856 0.959 . S
C871 H857 0.961 . S
C871 C870 1.502 . S
C872 H858 0.960 . S
C872 H859 0.961 . S
C872 H860 0.959 . S
C872 C870 1.561 . S
C873 C870 1.526 . S
C873 C874 1.396 . S
C873 C878 1.390 . S
C874 C868 1.465 . S
C874 C873 1.396 . S
C874 C875 1.399 . S
C875 H861 0.929 . S
C875 C874 1.399 . S
C875 C876 1.385 . S
C876 H862 0.931 . S
C876 C875 1.385 . S
C876 C877 1.389 . S
C877 C876 1.389 . S
C877 C878 1.387 . S
C878 H863 0.930 . S
C878 C873 1.390 . S
C878 C877 1.387 . S
H879 C891 0.930 . S
H880 C893 0.930 . S
H881 C894 0.930 . S
H882 C898 0.959 . S
H883 C898 0.959 . S
H884 C898 0.961 . S
H885 C899 0.960 . S
H886 C899 0.961 . S
H887 C899 0.959 . S
H888 C902 0.929 . S
H889 C903 0.931 . S
H890 C905 0.930 . S
C891 H879 0.930 . S
C891 C892 1.399 . S
C891 C896 1.399 . S
C892 C891 1.399 . S
C892 C893 1.376 . S
C893 H880 0.930 . S
C893 C892 1.376 . S
C893 C894 1.388 . S
C894 H881 0.930 . S
C894 C893 1.388 . S
C894 C895 1.390 . S
C895 C894 1.390 . S
C895 C896 1.394 . S
C895 C901 1.465 . S
C896 C891 1.399 . S
C896 C895 1.394 . S
C896 C897 1.516 . S
C897 C896 1.516 . S
C897 C898 1.502 . S
C897 C899 1.561 . S
C897 C900 1.526 . S
C898 H882 0.959 . S
C898 H883 0.959 . S
C898 H884 0.961 . S
C898 C897 1.502 . S
C899 H885 0.960 . S
C899 H886 0.961 . S
C899 H887 0.959 . S
C899 C897 1.561 . S
C900 C897 1.526 . S
C900 C901 1.396 . S
C900 C905 1.390 . S
C901 C895 1.465 . S
C901 C900 1.396 . S
C901 C902 1.399 . S
C902 H888 0.929 . S
C902 C901 1.399 . S
C902 C903 1.385 . S
C903 H889 0.931 . S
C903 C902 1.385 . S
C903 C904 1.389 . S
C904 C903 1.389 . S
C904 C905 1.387 . S
C905 H890 0.930 . S
C905 C900 1.390 . S
C905 C904 1.387 . S
H906 C918 0.930 . S
H907 C920 0.930 . S
H908 C921 0.930 . S
H909 C925 0.959 . S
H910 C925 0.959 . S
H911 C925 0.961 . S
H912 C926 0.960 . S
H913 C926 0.961 . S
H914 C926 0.959 . S
H915 C929 0.929 . S
H916 C930 0.931 . S
H917 C932 0.930 . S
C918 H906 0.930 . S
C918 C919 1.399 . S
C918 C923 1.399 . S
C919 C918 1.399 . S
C919 C920 1.376 . S
C920 H907 0.930 . S
C920 C919 1.376 . S
C920 C921 1.388 . S
C921 H908 0.930 . S
C921 C920 1.388 . S
C921 C922 1.390 . S
C922 C921 1.390 . S
C922 C923 1.394 . S
C922 C928 1.465 . S
C923 C918 1.399 . S
C923 C922 1.394 . S
C923 C924 1.516 . S
C924 C923 1.516 . S
C924 C925 1.502 . S
C924 C926 1.561 . S
C924 C927 1.526 . S
C925 H909 0.959 . S
C925 H910 0.959 . S
C925 H911 0.961 . S
C925 C924 1.502 . S
C926 H912 0.960 . S
C926 H913 0.961 . S
C926 H914 0.959 . S
C926 C924 1.561 . S
C927 C924 1.526 . S
C927 C928 1.396 . S
C927 C932 1.390 . S
C928 C922 1.465 . S
C928 C927 1.396 . S
C928 C929 1.399 . S
C929 H915 0.929 . S
C929 C928 1.399 . S
C929 C930 1.385 . S
C930 H916 0.931 . S
C930 C929 1.385 . S
C930 C931 1.389 . S
C931 C930 1.389 . S
C931 C932 1.387 . S
C932 H917 0.930 . S
C932 C927 1.390 . S
C932 C931 1.387 . S
H933 C945 0.930 . S
H934 C947 0.930 . S
H935 C948 0.930 . S
H936 C952 0.959 . S
H937 C952 0.959 . S
H938 C952 0.961 . S
H939 C953 0.960 . S
H940 C953 0.961 . S
H941 C953 0.959 . S
H942 C956 0.929 . S
H943 C957 0.931 1_545 S
H944 C959 0.930 . S
C945 H933 0.930 . S
C945 C946 1.399 . S
C945 C950 1.399 . S
C946 C945 1.399 . S
C946 C947 1.376 . S
C947 H934 0.930 . S
C947 C946 1.376 . S
C947 C948 1.388 . S
C948 H935 0.930 . S
C948 C947 1.388 . S
C948 C949 1.390 . S
C949 C948 1.390 . S
C949 C950 1.394 . S
C949 C955 1.465 . S
C950 C945 1.399 . S
C950 C949 1.394 . S
C950 C951 1.516 . S
C951 C950 1.516 . S
C951 C952 1.502 . S
C951 C953 1.561 . S
C951 C954 1.526 . S
C952 H936 0.959 . S
C952 H937 0.959 . S
C952 H938 0.961 . S
C952 C951 1.502 . S
C953 H939 0.960 . S
C953 H940 0.961 . S
C953 H941 0.959 . S
C953 C951 1.561 . S
C954 C951 1.526 . S
C954 C955 1.396 . S
C954 C959 1.390 . S
C955 C949 1.465 . S
C955 C954 1.396 . S
C955 C956 1.399 . S
C956 H942 0.929 . S
C956 C955 1.399 . S
C956 C957 1.385 . S
C957 H943 0.931 1_565 S
C957 C956 1.385 . S
C957 C958 1.389 . S
C958 C957 1.389 . S
C958 C959 1.387 . S
C959 H944 0.930 . S
C959 C954 1.390 . S
C959 C958 1.387 . S
H960 C972 0.930 . S
H961 C974 0.930 . S
H962 C975 0.930 . S
H963 C979 0.959 . S
H964 C979 0.959 . S
H965 C979 0.961 . S
H966 C980 0.960 . S
H967 C980 0.961 . S
H968 C980 0.959 . S
H969 C983 0.929 . S
H970 C984 0.931 . S
H971 C986 0.930 . S
C972 H960 0.930 . S
C972 C973 1.399 . S
C972 C977 1.399 . S
C973 C972 1.399 . S
C973 C974 1.376 . S
C974 H961 0.930 . S
C974 C973 1.376 . S
C974 C975 1.388 . S
C975 H962 0.930 . S
C975 C974 1.388 . S
C975 C976 1.390 . S
C976 C975 1.390 . S
C976 C977 1.394 . S
C976 C982 1.465 . S
C977 C972 1.399 . S
C977 C976 1.394 . S
C977 C978 1.516 . S
C978 C977 1.516 . S
C978 C979 1.502 . S
C978 C980 1.561 . S
C978 C981 1.526 . S
C979 H963 0.959 . S
C979 H964 0.959 . S
C979 H965 0.961 . S
C979 C978 1.502 . S
C980 H966 0.960 . S
C980 H967 0.961 . S
C980 H968 0.959 . S
C980 C978 1.561 . S
C981 C978 1.526 . S
C981 C982 1.396 . S
C981 C986 1.390 . S
C982 C976 1.465 . S
C982 C981 1.396 . S
C982 C983 1.399 . S
C983 H969 0.929 . S
C983 C982 1.399 . S
C983 C984 1.385 . S
C984 H970 0.931 . S
C984 C983 1.385 . S
C984 C985 1.389 . S
C985 C984 1.389 . S
C985 C986 1.387 . S
C986 H971 0.930 . S
C986 C981 1.390 . S
C986 C985 1.387 . S
H987 C999 0.930 . S
H988 C1001 0.930 . S
H989 C1002 0.930 . S
H990 C1006 0.959 . S
H991 C1006 0.959 . S
H992 C1006 0.961 . S
H993 C1007 0.960 . S
H994 C1007 0.961 . S
H995 C1007 0.959 . S
H996 C1010 0.929 . S
H997 C1011 0.931 . S
H998 C1013 0.930 . S
C999 H987 0.930 . S
C999 C1000 1.399 . S
C999 C1004 1.399 . S
C1000 C999 1.399 . S
C1000 C1001 1.376 . S
C1001 H988 0.930 . S
C1001 C1000 1.376 . S
C1001 C1002 1.388 . S
C1002 H989 0.930 . S
C1002 C1001 1.388 . S
C1002 C1003 1.390 . S
C1003 C1002 1.390 . S
C1003 C1004 1.394 . S
C1003 C1009 1.465 . S
C1004 C999 1.399 . S
C1004 C1003 1.394 . S
C1004 C1005 1.516 . S
C1005 C1004 1.516 . S
C1005 C1006 1.502 . S
C1005 C1007 1.561 . S
C1005 C1008 1.526 . S
C1006 H990 0.959 . S
C1006 H991 0.959 . S
C1006 H992 0.961 . S
C1006 C1005 1.502 . S
C1007 H993 0.960 . S
C1007 H994 0.961 . S
C1007 H995 0.959 . S
C1007 C1005 1.561 . S
C1008 C1005 1.526 . S
C1008 C1009 1.396 . S
C1008 C1013 1.390 . S
C1009 C1003 1.465 . S
C1009 C1008 1.396 . S
C1009 C1010 1.399 . S
C1010 H996 0.929 . S
C1010 C1009 1.399 . S
C1010 C1011 1.385 . S
C1011 H997 0.931 . S
C1011 C1010 1.385 . S
C1011 C1012 1.389 . S
C1012 C1011 1.389 . S
C1012 C1013 1.387 . S
C1013 H998 0.930 . S
C1013 C1008 1.390 . S
C1013 C1012 1.387 . S
H1014 C1026 0.930 . S
H1015 C1028 0.930 . S
H1016 C1029 0.930 . S
H1017 C1033 0.959 . S
H1018 C1033 0.959 . S
H1019 C1033 0.961 . S
H1020 C1034 0.960 . S
H1021 C1034 0.961 . S
H1022 C1034 0.959 . S
H1023 C1037 0.929 . S
H1024 C1038 0.931 . S
H1025 C1040 0.930 . S
C1026 H1014 0.930 . S
C1026 C1027 1.399 . S
C1026 C1031 1.399 . S
C1027 C1026 1.399 . S
C1027 C1028 1.376 . S
C1028 H1015 0.930 . S
C1028 C1027 1.376 . S
C1028 C1029 1.388 . S
C1029 H1016 0.930 . S
C1029 C1028 1.388 . S
C1029 C1030 1.390 . S
C1030 C1029 1.390 . S
C1030 C1031 1.394 . S
C1030 C1036 1.465 . S
C1031 C1026 1.399 . S
C1031 C1030 1.394 . S
C1031 C1032 1.516 . S
C1032 C1031 1.516 . S
C1032 C1033 1.502 . S
C1032 C1034 1.561 . S
C1032 C1035 1.526 . S
C1033 H1017 0.959 . S
C1033 H1018 0.959 . S
C1033 H1019 0.961 . S
C1033 C1032 1.502 . S
C1034 H1020 0.960 . S
C1034 H1021 0.961 . S
C1034 H1022 0.959 . S
C1034 C1032 1.561 . S
C1035 C1032 1.526 . S
C1035 C1036 1.396 . S
C1035 C1040 1.390 . S
C1036 C1030 1.465 . S
C1036 C1035 1.396 . S
C1036 C1037 1.399 . S
C1037 H1023 0.929 . S
C1037 C1036 1.399 . S
C1037 C1038 1.385 . S
C1038 H1024 0.931 . S
C1038 C1037 1.385 . S
C1038 C1039 1.389 . S
C1039 C1038 1.389 . S
C1039 C1040 1.387 . S
C1040 H1025 0.930 . S
C1040 C1035 1.390 . S
C1040 C1039 1.387 . S
H1041 C1053 0.930 . S
H1042 C1055 0.930 . S
H1043 C1056 0.930 . S
H1044 C1060 0.959 . S
H1045 C1060 0.959 . S
H1046 C1060 0.961 . S
H1047 C1061 0.960 . S
H1048 C1061 0.961 . S
H1049 C1061 0.959 . S
H1050 C1064 0.929 . S
H1051 C1065 0.931 . S
H1052 C1067 0.930 . S
C1053 H1041 0.930 . S
C1053 C1054 1.399 . S
C1053 C1058 1.399 . S
C1054 C1053 1.399 . S
C1054 C1055 1.376 . S
C1055 H1042 0.930 . S
C1055 C1054 1.376 . S
C1055 C1056 1.388 . S
C1056 H1043 0.930 . S
C1056 C1055 1.388 . S
C1056 C1057 1.390 . S
C1057 C1056 1.390 . S
C1057 C1058 1.394 . S
C1057 C1063 1.465 . S
C1058 C1053 1.399 . S
C1058 C1057 1.394 . S
C1058 C1059 1.516 . S
C1059 C1058 1.516 . S
C1059 C1060 1.502 . S
C1059 C1061 1.561 . S
C1059 C1062 1.526 . S
C1060 H1044 0.959 . S
C1060 H1045 0.959 . S
C1060 H1046 0.961 . S
C1060 C1059 1.502 . S
C1061 H1047 0.960 . S
C1061 H1048 0.961 . S
C1061 H1049 0.959 . S
C1061 C1059 1.561 . S
C1062 C1059 1.526 . S
C1062 C1063 1.396 . S
C1062 C1067 1.390 . S
C1063 C1057 1.465 . S
C1063 C1062 1.396 . S
C1063 C1064 1.399 . S
C1064 H1050 0.929 . S
C1064 C1063 1.399 . S
C1064 C1065 1.385 . S
C1065 H1051 0.931 . S
C1065 C1064 1.385 . S
C1065 C1066 1.389 . S
C1066 C1065 1.389 . S
C1066 C1067 1.387 . S
C1067 H1052 0.930 . S
C1067 C1062 1.390 . S
C1067 C1066 1.387 . S
H1068 C1080 0.930 . S
H1069 C1082 0.930 . S
H1070 C1083 0.930 . S
H1071 C1087 0.959 . S
H1072 C1087 0.959 . S
H1073 C1087 0.961 . S
H1074 C1088 0.960 . S
H1075 C1088 0.961 . S
H1076 C1088 0.959 . S
H1077 C1091 0.929 . S
H1078 C1092 0.931 . S
H1079 C1094 0.930 . S
C1080 H1068 0.930 . S
C1080 C1081 1.399 . S
C1080 C1085 1.399 . S
C1081 C1080 1.399 . S
C1081 C1082 1.376 . S
C1082 H1069 0.930 . S
C1082 C1081 1.376 . S
C1082 C1083 1.388 . S
C1083 H1070 0.930 . S
C1083 C1082 1.388 . S
C1083 C1084 1.390 . S
C1084 C1083 1.390 . S
C1084 C1085 1.394 . S
C1084 C1090 1.465 . S
C1085 C1080 1.399 . S
C1085 C1084 1.394 . S
C1085 C1086 1.516 . S
C1086 C1085 1.516 . S
C1086 C1087 1.502 . S
C1086 C1088 1.561 . S
C1086 C1089 1.526 . S
C1087 H1071 0.959 . S
C1087 H1072 0.959 . S
C1087 H1073 0.961 . S
C1087 C1086 1.502 . S
C1088 H1074 0.960 . S
C1088 H1075 0.961 . S
C1088 H1076 0.959 . S
C1088 C1086 1.561 . S
C1089 C1086 1.526 . S
C1089 C1090 1.396 . S
C1089 C1094 1.390 . S
C1090 C1084 1.465 . S
C1090 C1089 1.396 . S
C1090 C1091 1.399 . S
C1091 H1077 0.929 . S
C1091 C1090 1.399 . S
C1091 C1092 1.385 . S
C1092 H1078 0.931 . S
C1092 C1091 1.385 . S
C1092 C1093 1.389 . S
C1093 C1092 1.389 . S
C1093 C1094 1.387 . S
C1094 H1079 0.930 . S
C1094 C1089 1.390 . S
C1094 C1093 1.387 . S
H1095 C1107 0.930 . S
H1096 C1109 0.930 . S
H1097 C1110 0.930 . S
H1098 C1114 0.959 . S
H1099 C1114 0.959 . S
H1100 C1114 0.961 . S
H1101 C1115 0.960 . S
H1102 C1115 0.961 1_655 S
H1103 C1115 0.959 1_655 S
H1104 C1118 0.929 . S
H1105 C1119 0.931 . S
H1106 C1121 0.930 . S
C1107 H1095 0.930 . S
C1107 C1108 1.399 . S
C1107 C1112 1.399 . S
C1108 C1107 1.399 . S
C1108 C1109 1.376 . S
C1109 H1096 0.930 . S
C1109 C1108 1.376 . S
C1109 C1110 1.388 . S
C1110 H1097 0.930 . S
C1110 C1109 1.388 . S
C1110 C1111 1.390 . S
C1111 C1110 1.390 . S
C1111 C1112 1.394 . S
C1111 C1117 1.465 . S
C1112 C1107 1.399 . S
C1112 C1111 1.394 . S
C1112 C1113 1.516 . S
C1113 C1112 1.516 . S
C1113 C1114 1.502 . S
C1113 C1115 1.561 . S
C1113 C1116 1.526 . S
C1114 H1098 0.959 . S
C1114 H1099 0.959 . S
C1114 H1100 0.961 . S
C1114 C1113 1.502 . S
C1115 H1101 0.960 . S
C1115 H1102 0.961 1_455 S
C1115 H1103 0.959 1_455 S
C1115 C1113 1.561 . S
C1116 C1113 1.526 . S
C1116 C1117 1.396 . S
C1116 C1121 1.390 . S
C1117 C1111 1.465 . S
C1117 C1116 1.396 . S
C1117 C1118 1.399 . S
C1118 H1104 0.929 . S
C1118 C1117 1.399 . S
C1118 C1119 1.385 . S
C1119 H1105 0.931 . S
C1119 C1118 1.385 . S
C1119 C1120 1.389 . S
C1120 C1119 1.389 . S
C1120 C1121 1.387 . S
C1121 H1106 0.930 . S
C1121 C1116 1.390 . S
C1121 C1120 1.387 . S
H1122 C1134 0.930 . S
H1123 C1136 0.930 . S
H1124 C1137 0.930 . S
H1125 C1141 0.959 . S
H1126 C1141 0.959 . S
H1127 C1141 0.961 . S
H1128 C1142 0.960 . S
H1129 C1142 0.961 . S
H1130 C1142 0.959 . S
H1131 C1145 0.929 . S
H1132 C1146 0.931 . S
H1133 C1148 0.930 . S
C1134 H1122 0.930 . S
C1134 C1135 1.399 . S
C1134 C1139 1.399 . S
C1135 C1134 1.399 . S
C1135 C1136 1.376 . S
C1136 H1123 0.930 . S
C1136 C1135 1.376 . S
C1136 C1137 1.388 . S
C1137 H1124 0.930 . S
C1137 C1136 1.388 . S
C1137 C1138 1.390 . S
C1138 C1137 1.390 . S
C1138 C1139 1.394 . S
C1138 C1144 1.465 . S
C1139 C1134 1.399 . S
C1139 C1138 1.394 . S
C1139 C1140 1.516 . S
C1140 C1139 1.516 . S
C1140 C1141 1.502 . S
C1140 C1142 1.561 . S
C1140 C1143 1.526 . S
C1141 H1125 0.959 . S
C1141 H1126 0.959 . S
C1141 H1127 0.961 . S
C1141 C1140 1.502 . S
C1142 H1128 0.960 . S
C1142 H1129 0.961 . S
C1142 H1130 0.959 . S
C1142 C1140 1.561 . S
C1143 C1140 1.526 . S
C1143 C1144 1.396 . S
C1143 C1148 1.390 . S
C1144 C1138 1.465 . S
C1144 C1143 1.396 . S
C1144 C1145 1.399 . S
C1145 H1131 0.929 . S
C1145 C1144 1.399 . S
C1145 C1146 1.385 . S
C1146 H1132 0.931 . S
C1146 C1145 1.385 . S
C1146 C1147 1.389 . S
C1147 C1146 1.389 . S
C1147 C1148 1.387 . S
C1148 H1133 0.930 . S
C1148 C1143 1.390 . S
C1148 C1147 1.387 . S
H1149 C1161 0.930 . S
H1150 C1163 0.930 1_455 S
H1151 C1164 0.930 . S
H1152 C1168 0.959 . S
H1153 C1168 0.959 . S
H1154 C1168 0.961 . S
H1155 C1169 0.960 . S
H1156 C1169 0.961 . S
H1157 C1169 0.959 . S
H1158 C1172 0.929 . S
H1159 C1173 0.931 . S
H1160 C1175 0.930 . S
C1161 H1149 0.930 . S
C1161 C1162 1.399 . S
C1161 C1166 1.399 . S
C1162 C1161 1.399 . S
C1162 C1163 1.376 . S
C1163 H1150 0.930 1_655 S
C1163 C1162 1.376 . S
C1163 C1164 1.388 1_655 S
C1164 H1151 0.930 . S
C1164 C1163 1.388 1_455 S
C1164 C1165 1.390 1_455 S
C1165 C1164 1.390 1_655 S
C1165 C1166 1.394 . S
C1165 C1171 1.465 . S
C1166 C1161 1.399 . S
C1166 C1165 1.394 . S
C1166 C1167 1.516 . S
C1167 C1166 1.516 . S
C1167 C1168 1.502 . S
C1167 C1169 1.561 . S
C1167 C1170 1.526 . S
C1168 H1152 0.959 . S
C1168 H1153 0.959 . S
C1168 H1154 0.961 . S
C1168 C1167 1.502 . S
C1169 H1155 0.960 . S
C1169 H1156 0.961 . S
C1169 H1157 0.959 . S
C1169 C1167 1.561 . S
C1170 C1167 1.526 . S
C1170 C1171 1.396 . S
C1170 C1175 1.390 . S
C1171 C1165 1.465 . S
C1171 C1170 1.396 . S
C1171 C1172 1.399 1_655 S
C1172 H1158 0.929 . S
C1172 C1171 1.399 1_455 S
C1172 C1173 1.385 . S
C1173 H1159 0.931 . S
C1173 C1172 1.385 . S
C1173 C1174 1.389 1_455 S
C1174 C1173 1.389 1_655 S
C1174 C1175 1.387 . S
C1175 H1160 0.930 . S
C1175 C1170 1.390 . S
C1175 C1174 1.387 . S
H1176 C1188 0.930 . S
H1177 C1190 0.930 . S
H1178 C1191 0.930 . S
H1179 C1195 0.959 . S
H1180 C1195 0.959 . S
H1181 C1195 0.961 . S
H1182 C1196 0.960 . S
H1183 C1196 0.961 . S
H1184 C1196 0.959 . S
H1185 C1199 0.929 . S
H1186 C1200 0.931 . S
H1187 C1202 0.930 . S
C1188 H1176 0.930 . S
C1188 C1189 1.399 . S
C1188 C1193 1.399 . S
C1189 C1188 1.399 . S
C1189 C1190 1.376 . S
C1190 H1177 0.930 . S
C1190 C1189 1.376 . S
C1190 C1191 1.388 . S
C1191 H1178 0.930 . S
C1191 C1190 1.388 . S
C1191 C1192 1.390 . S
C1192 C1191 1.390 . S
C1192 C1193 1.394 . S
C1192 C1198 1.465 . S
C1193 C1188 1.399 . S
C1193 C1192 1.394 . S
C1193 C1194 1.516 . S
C1194 C1193 1.516 . S
C1194 C1195 1.502 . S
C1194 C1196 1.561 . S
C1194 C1197 1.526 . S
C1195 H1179 0.959 . S
C1195 H1180 0.959 . S
C1195 H1181 0.961 . S
C1195 C1194 1.502 . S
C1196 H1182 0.960 . S
C1196 H1183 0.961 . S
C1196 H1184 0.959 . S
C1196 C1194 1.561 . S
C1197 C1194 1.526 . S
C1197 C1198 1.396 . S
C1197 C1202 1.390 . S
C1198 C1192 1.465 . S
C1198 C1197 1.396 . S
C1198 C1199 1.399 . S
C1199 H1185 0.929 . S
C1199 C1198 1.399 . S
C1199 C1200 1.385 . S
C1200 H1186 0.931 . S
C1200 C1199 1.385 . S
C1200 C1201 1.389 . S
C1201 C1200 1.389 . S
C1201 C1202 1.387 . S
C1202 H1187 0.930 . S
C1202 C1197 1.390 . S
C1202 C1201 1.387 . S
H1203 C1215 0.930 . S
H1204 C1217 0.930 . S
H1205 C1218 0.930 . S
H1206 C1222 0.959 . S
H1207 C1222 0.959 . S
H1208 C1222 0.961 . S
H1209 C1223 0.960 . S
H1210 C1223 0.961 . S
H1211 C1223 0.959 . S
H1212 C1226 0.929 . S
H1213 C1227 0.931 . S
H1214 C1229 0.930 . S
C1215 H1203 0.930 . S
C1215 C1216 1.399 . S
C1215 C1220 1.399 . S
C1216 C1215 1.399 . S
C1216 C1217 1.376 . S
C1217 H1204 0.930 . S
C1217 C1216 1.376 . S
C1217 C1218 1.388 . S
C1218 H1205 0.930 . S
C1218 C1217 1.388 . S
C1218 C1219 1.390 . S
C1219 C1218 1.390 . S
C1219 C1220 1.394 . S
C1219 C1225 1.465 . S
C1220 C1215 1.399 . S
C1220 C1219 1.394 . S
C1220 C1221 1.516 . S
C1221 C1220 1.516 . S
C1221 C1222 1.502 . S
C1221 C1223 1.561 . S
C1221 C1224 1.526 . S
C1222 H1206 0.959 . S
C1222 H1207 0.959 . S
C1222 H1208 0.961 . S
C1222 C1221 1.502 . S
C1223 H1209 0.960 . S
C1223 H1210 0.961 . S
C1223 H1211 0.959 . S
C1223 C1221 1.561 . S
C1224 C1221 1.526 . S
C1224 C1225 1.396 . S
C1224 C1229 1.390 . S
C1225 C1219 1.465 . S
C1225 C1224 1.396 . S
C1225 C1226 1.399 . S
C1226 H1212 0.929 . S
C1226 C1225 1.399 . S
C1226 C1227 1.385 . S
C1227 H1213 0.931 . S
C1227 C1226 1.385 . S
C1227 C1228 1.389 . S
C1228 C1227 1.389 . S
C1228 C1229 1.387 . S
C1229 H1214 0.930 . S
C1229 C1224 1.390 . S
C1229 C1228 1.387 . S
H1230 C1242 0.930 . S
H1231 C1244 0.930 . S
H1232 C1245 0.930 1_554 S
H1233 C1249 0.959 . S
H1234 C1249 0.959 . S
H1235 C1249 0.961 . S
H1236 C1250 0.960 . S
H1237 C1250 0.961 . S
H1238 C1250 0.959 . S
H1239 C1253 0.929 . S
H1240 C1254 0.931 . S
H1241 C1256 0.930 . S
C1242 H1230 0.930 . S
C1242 C1243 1.399 . S
C1242 C1247 1.399 . S
C1243 C1242 1.399 . S
C1243 C1244 1.376 . S
C1244 H1231 0.930 . S
C1244 C1243 1.376 . S
C1244 C1245 1.388 . S
C1245 H1232 0.930 1_556 S
C1245 C1244 1.388 . S
C1245 C1246 1.390 . S
C1246 C1245 1.390 . S
C1246 C1247 1.394 . S
C1246 C1252 1.465 . S
C1247 C1242 1.399 . S
C1247 C1246 1.394 . S
C1247 C1248 1.516 . S
C1248 C1247 1.516 . S
C1248 C1249 1.502 . S
C1248 C1250 1.561 . S
C1248 C1251 1.526 . S
C1249 H1233 0.959 . S
C1249 H1234 0.959 . S
C1249 H1235 0.961 . S
C1249 C1248 1.502 . S
C1250 H1236 0.960 . S
C1250 H1237 0.961 . S
C1250 H1238 0.959 . S
C1250 C1248 1.561 . S
C1251 C1248 1.526 . S
C1251 C1252 1.396 . S
C1251 C1256 1.390 . S
C1252 C1246 1.465 . S
C1252 C1251 1.396 . S
C1252 C1253 1.399 1_556 S
C1253 H1239 0.929 . S
C1253 C1252 1.399 1_554 S
C1253 C1254 1.385 . S
C1254 H1240 0.931 . S
C1254 C1253 1.385 . S
C1254 C1255 1.389 1_554 S
C1255 C1254 1.389 1_556 S
C1255 C1256 1.387 . S
C1256 H1241 0.930 . S
C1256 C1251 1.390 . S
C1256 C1255 1.387 . S
H1257 C1269 0.930 . S
H1258 C1271 0.930 . S
H1259 C1272 0.930 . S
H1260 C1276 0.959 . S
H1261 C1276 0.959 . S
H1262 C1276 0.961 . S
H1263 C1277 0.960 . S
H1264 C1277 0.961 . S
H1265 C1277 0.959 . S
H1266 C1280 0.929 . S
H1267 C1281 0.931 . S
H1268 C1283 0.930 . S
C1269 H1257 0.930 . S
C1269 C1270 1.399 . S
C1269 C1274 1.399 . S
C1270 C1269 1.399 . S
C1270 C1271 1.376 . S
C1271 H1258 0.930 . S
C1271 C1270 1.376 . S
C1271 C1272 1.388 . S
C1272 H1259 0.930 . S
C1272 C1271 1.388 . S
C1272 C1273 1.390 . S
C1273 C1272 1.390 . S
C1273 C1274 1.394 . S
C1273 C1279 1.465 . S
C1274 C1269 1.399 . S
C1274 C1273 1.394 . S
C1274 C1275 1.516 . S
C1275 C1274 1.516 . S
C1275 C1276 1.502 . S
C1275 C1277 1.561 . S
C1275 C1278 1.526 . S
C1276 H1260 0.959 . S
C1276 H1261 0.959 . S
C1276 H1262 0.961 . S
C1276 C1275 1.502 . S
C1277 H1263 0.960 . S
C1277 H1264 0.961 . S
C1277 H1265 0.959 . S
C1277 C1275 1.561 . S
C1278 C1275 1.526 . S
C1278 C1279 1.396 . S
C1278 C1283 1.390 . S
C1279 C1273 1.465 . S
C1279 C1278 1.396 . S
C1279 C1280 1.399 . S
C1280 H1266 0.929 . S
C1280 C1279 1.399 . S
C1280 C1281 1.385 . S
C1281 H1267 0.931 . S
C1281 C1280 1.385 . S
C1281 C1282 1.389 . S
C1282 C1281 1.389 . S
C1282 C1283 1.387 . S
C1283 H1268 0.930 . S
C1283 C1278 1.390 . S
C1283 C1282 1.387 . S
H1284 C1296 0.930 . S
H1285 C1298 0.930 . S
H1286 C1299 0.930 . S
H1287 C1303 0.959 . S
H1288 C1303 0.959 . S
H1289 C1303 0.961 . S
H1290 C1304 0.960 . S
H1291 C1304 0.961 . S
H1292 C1304 0.959 . S
H1293 C1307 0.929 . S
H1294 C1308 0.931 . S
H1295 C1310 0.930 . S
C1296 H1284 0.930 . S
C1296 C1297 1.399 . S
C1296 C1301 1.399 . S
C1297 C1296 1.399 . S
C1297 C1298 1.376 . S
C1298 H1285 0.930 . S
C1298 C1297 1.376 . S
C1298 C1299 1.388 . S
C1299 H1286 0.930 . S
C1299 C1298 1.388 . S
C1299 C1300 1.390 . S
C1300 C1299 1.390 . S
C1300 C1301 1.394 . S
C1300 C1306 1.465 . S
C1301 C1296 1.399 . S
C1301 C1300 1.394 . S
C1301 C1302 1.516 . S
C1302 C1301 1.516 . S
C1302 C1303 1.502 . S
C1302 C1304 1.561 . S
C1302 C1305 1.526 . S
C1303 H1287 0.959 . S
C1303 H1288 0.959 . S
C1303 H1289 0.961 . S
C1303 C1302 1.502 . S
C1304 H1290 0.960 . S
C1304 H1291 0.961 . S
C1304 H1292 0.959 . S
C1304 C1302 1.561 . S
C1305 C1302 1.526 . S
C1305 C1306 1.396 . S
C1305 C1310 1.390 . S
C1306 C1300 1.465 . S
C1306 C1305 1.396 . S
C1306 C1307 1.399 . S
C1307 H1293 0.929 . S
C1307 C1306 1.399 . S
C1307 C1308 1.385 . S
C1308 H1294 0.931 . S
C1308 C1307 1.385 . S
C1308 C1309 1.389 . S
C1309 C1308 1.389 . S
C1309 C1310 1.387 . S
C1310 H1295 0.930 . S
C1310 C1305 1.390 . S
C1310 C1309 1.387 . S
H1311 C1323 0.930 . S
H1312 C1325 0.930 . S
H1313 C1326 0.930 . S
H1314 C1330 0.959 . S
H1315 C1330 0.959 . S
H1316 C1330 0.961 . S
H1317 C1331 0.960 . S
H1318 C1331 0.961 . S
H1319 C1331 0.959 . S
H1320 C1334 0.929 . S
H1321 C1335 0.931 . S
H1322 C1337 0.930 . S
C1323 H1311 0.930 . S
C1323 C1324 1.399 . S
C1323 C1328 1.399 . S
C1324 C1323 1.399 . S
C1324 C1325 1.376 . S
C1325 H1312 0.930 . S
C1325 C1324 1.376 . S
C1325 C1326 1.388 . S
C1326 H1313 0.930 . S
C1326 C1325 1.388 . S
C1326 C1327 1.390 . S
C1327 C1326 1.390 . S
C1327 C1328 1.394 . S
C1327 C1333 1.465 . S
C1328 C1323 1.399 . S
C1328 C1327 1.394 . S
C1328 C1329 1.516 . S
C1329 C1328 1.516 . S
C1329 C1330 1.502 . S
C1329 C1331 1.561 . S
C1329 C1332 1.526 . S
C1330 H1314 0.959 . S
C1330 H1315 0.959 . S
C1330 H1316 0.961 . S
C1330 C1329 1.502 . S
C1331 H1317 0.960 . S
C1331 H1318 0.961 . S
C1331 H1319 0.959 . S
C1331 C1329 1.561 . S
C1332 C1329 1.526 . S
C1332 C1333 1.396 . S
C1332 C1337 1.390 . S
C1333 C1327 1.465 . S
C1333 C1332 1.396 . S
C1333 C1334 1.399 . S
C1334 H1320 0.929 . S
C1334 C1333 1.399 . S
C1334 C1335 1.385 . S
C1335 H1321 0.931 . S
C1335 C1334 1.385 . S
C1335 C1336 1.389 . S
C1336 C1335 1.389 . S
C1336 C1337 1.387 . S
C1337 H1322 0.930 . S
C1337 C1332 1.390 . S
C1337 C1336 1.387 . S
H1338 C1350 0.930 . S
H1339 C1352 0.930 . S
H1340 C1353 0.930 . S
H1341 C1357 0.959 . S
H1342 C1357 0.959 . S
H1343 C1357 0.961 . S
H1344 C1358 0.960 . S
H1345 C1358 0.961 . S
H1346 C1358 0.959 . S
H1347 C1361 0.929 . S
H1348 C1362 0.931 . S
H1349 C1364 0.930 . S
C1350 H1338 0.930 . S
C1350 C1351 1.399 . S
C1350 C1355 1.399 . S
C1351 C1350 1.399 . S
C1351 C1352 1.376 . S
C1352 H1339 0.930 . S
C1352 C1351 1.376 . S
C1352 C1353 1.388 . S
C1353 H1340 0.930 . S
C1353 C1352 1.388 . S
C1353 C1354 1.390 . S
C1354 C1353 1.390 . S
C1354 C1355 1.394 . S
C1354 C1360 1.465 . S
C1355 C1350 1.399 . S
C1355 C1354 1.394 . S
C1355 C1356 1.516 . S
C1356 C1355 1.516 . S
C1356 C1357 1.502 . S
C1356 C1358 1.561 . S
C1356 C1359 1.526 . S
C1357 H1341 0.959 . S
C1357 H1342 0.959 . S
C1357 H1343 0.961 . S
C1357 C1356 1.502 . S
C1358 H1344 0.960 . S
C1358 H1345 0.961 . S
C1358 H1346 0.959 . S
C1358 C1356 1.561 . S
C1359 C1356 1.526 . S
C1359 C1360 1.396 . S
C1359 C1364 1.390 . S
C1360 C1354 1.465 . S
C1360 C1359 1.396 . S
C1360 C1361 1.399 . S
C1361 H1347 0.929 . S
C1361 C1360 1.399 . S
C1361 C1362 1.385 . S
C1362 H1348 0.931 . S
C1362 C1361 1.385 . S
C1362 C1363 1.389 . S
C1363 C1362 1.389 . S
C1363 C1364 1.387 . S
C1364 H1349 0.930 . S
C1364 C1359 1.390 . S
C1364 C1363 1.387 . S
H1365 C1377 0.930 . S
H1366 C1379 0.930 . S
H1367 C1380 0.930 . S
H1368 C1384 0.959 . S
H1369 C1384 0.959 . S
H1370 C1384 0.961 . S
H1371 C1385 0.960 . S
H1372 C1385 0.961 . S
H1373 C1385 0.959 . S
H1374 C1388 0.929 . S
H1375 C1389 0.931 . S
H1376 C1391 0.930 . S
C1377 H1365 0.930 . S
C1377 C1378 1.399 . S
C1377 C1382 1.399 . S
C1378 C1377 1.399 . S
C1378 C1379 1.376 . S
C1379 H1366 0.930 . S
C1379 C1378 1.376 . S
C1379 C1380 1.388 . S
C1380 H1367 0.930 . S
C1380 C1379 1.388 . S
C1380 C1381 1.390 . S
C1381 C1380 1.390 . S
C1381 C1382 1.394 . S
C1381 C1387 1.465 . S
C1382 C1377 1.399 . S
C1382 C1381 1.394 . S
C1382 C1383 1.516 . S
C1383 C1382 1.516 . S
C1383 C1384 1.502 . S
C1383 C1385 1.561 . S
C1383 C1386 1.526 . S
C1384 H1368 0.959 . S
C1384 H1369 0.959 . S
C1384 H1370 0.961 . S
C1384 C1383 1.502 . S
C1385 H1371 0.960 . S
C1385 H1372 0.961 . S
C1385 H1373 0.959 . S
C1385 C1383 1.561 . S
C1386 C1383 1.526 . S
C1386 C1387 1.396 . S
C1386 C1391 1.390 . S
C1387 C1381 1.465 . S
C1387 C1386 1.396 . S
C1387 C1388 1.399 . S
C1388 H1374 0.929 . S
C1388 C1387 1.399 . S
C1388 C1389 1.385 . S
C1389 H1375 0.931 . S
C1389 C1388 1.385 . S
C1389 C1390 1.389 . S
C1390 C1389 1.389 . S
C1390 C1391 1.387 . S
C1391 H1376 0.930 . S
C1391 C1386 1.390 . S
C1391 C1390 1.387 . S
H1392 C1404 0.930 . S
H1393 C1406 0.930 . S
H1394 C1407 0.930 . S
H1395 C1411 0.959 . S
H1396 C1411 0.959 . S
H1397 C1411 0.961 . S
H1398 C1412 0.960 . S
H1399 C1412 0.961 . S
H1400 C1412 0.959 . S
H1401 C1415 0.929 . S
H1402 C1416 0.931 . S
H1403 C1418 0.930 . S
C1404 H1392 0.930 . S
C1404 C1405 1.399 . S
C1404 C1409 1.399 . S
C1405 C1404 1.399 . S
C1405 C1406 1.376 . S
C1406 H1393 0.930 . S
C1406 C1405 1.376 . S
C1406 C1407 1.388 . S
C1407 H1394 0.930 . S
C1407 C1406 1.388 . S
C1407 C1408 1.390 . S
C1408 C1407 1.390 . S
C1408 C1409 1.394 . S
C1408 C1414 1.465 . S
C1409 C1404 1.399 . S
C1409 C1408 1.394 . S
C1409 C1410 1.516 . S
C1410 C1409 1.516 . S
C1410 C1411 1.502 . S
C1410 C1412 1.561 . S
C1410 C1413 1.526 . S
C1411 H1395 0.959 . S
C1411 H1396 0.959 . S
C1411 H1397 0.961 . S
C1411 C1410 1.502 . S
C1412 H1398 0.960 . S
C1412 H1399 0.961 . S
C1412 H1400 0.959 . S
C1412 C1410 1.561 . S
C1413 C1410 1.526 . S
C1413 C1414 1.396 . S
C1413 C1418 1.390 . S
C1414 C1408 1.465 . S
C1414 C1413 1.396 . S
C1414 C1415 1.399 . S
C1415 H1401 0.929 . S
C1415 C1414 1.399 . S
C1415 C1416 1.385 . S
C1416 H1402 0.931 . S
C1416 C1415 1.385 . S
C1416 C1417 1.389 . S
C1417 C1416 1.389 . S
C1417 C1418 1.387 . S
C1418 H1403 0.930 . S
C1418 C1413 1.390 . S
C1418 C1417 1.387 . S
H1419 C1431 0.930 . S
H1420 C1433 0.930 . S
H1421 C1434 0.930 . S
H1422 C1438 0.959 . S
H1423 C1438 0.959 . S
H1424 C1438 0.961 . S
H1425 C1439 0.960 . S
H1426 C1439 0.961 . S
H1427 C1439 0.959 . S
H1428 C1442 0.956 . S
H1429 C1443 0.931 1_565 S
H1430 C1445 0.930 . S
C1431 H1419 0.930 . S
C1431 C1432 1.399 . S
C1431 C1436 1.399 . S
C1432 C1431 1.399 . S
C1432 C1433 1.376 . S
C1433 H1420 0.930 . S
C1433 C1432 1.376 . S
C1433 C1434 1.388 . S
C1434 H1421 0.930 . S
C1434 C1433 1.388 . S
C1434 C1435 1.390 . S
C1435 C1434 1.390 . S
C1435 C1436 1.394 . S
C1435 C1441 1.465 . S
C1436 C1431 1.399 . S
C1436 C1435 1.394 . S
C1436 C1437 1.516 . S
C1437 C1436 1.516 . S
C1437 C1438 1.502 . S
C1437 C1439 1.561 . S
C1437 C1440 1.526 . S
C1438 H1422 0.959 . S
C1438 H1423 0.959 . S
C1438 H1424 0.961 . S
C1438 C1437 1.502 . S
C1439 H1425 0.960 . S
C1439 H1426 0.961 . S
C1439 H1427 0.959 . S
C1439 C1437 1.561 . S
C1440 C1437 1.526 . S
C1440 C1441 1.396 . S
C1440 C1445 1.390 . S
C1441 C1435 1.465 . S
C1441 C1440 1.396 . S
C1441 C1442 1.399 . S
C1442 H1428 0.956 . S
C1442 C1441 1.399 . S
C1442 C1443 1.385 . S
C1443 H1429 0.931 1_545 S
C1443 C1442 1.385 . S
C1443 C1444 1.389 . S
C1444 C1443 1.389 . S
C1444 C1445 1.387 . S
C1445 H1430 0.930 . S
C1445 C1440 1.390 . S
C1445 C1444 1.387 . S
H1446 C1458 0.930 . S
H1447 C1460 0.930 . S
H1448 C1461 0.930 . S
H1449 C1465 0.959 . S
H1450 C1465 0.959 . S
H1451 C1465 0.961 . S
H1452 C1466 0.960 . S
H1453 C1466 0.961 . S
H1454 C1466 0.959 . S
H1455 C1469 0.929 . S
H1456 C1470 0.931 . S
H1457 C1472 0.930 . S
C1458 H1446 0.930 . S
C1458 C1459 1.399 . S
C1458 C1463 1.399 . S
C1459 C1458 1.399 . S
C1459 C1460 1.376 . S
C1460 H1447 0.930 . S
C1460 C1459 1.376 . S
C1460 C1461 1.388 . S
C1461 H1448 0.930 . S
C1461 C1460 1.388 . S
C1461 C1462 1.390 . S
C1462 C1461 1.390 . S
C1462 C1463 1.394 . S
C1462 C1468 1.465 . S
C1463 C1458 1.399 . S
C1463 C1462 1.394 . S
C1463 C1464 1.516 . S
C1464 C1463 1.516 . S
C1464 C1465 1.502 . S
C1464 C1466 1.561 . S
C1464 C1467 1.526 . S
C1465 H1449 0.959 . S
C1465 H1450 0.959 . S
C1465 H1451 0.961 . S
C1465 C1464 1.502 . S
C1466 H1452 0.960 . S
C1466 H1453 0.961 . S
C1466 H1454 0.959 . S
C1466 C1464 1.561 . S
C1467 C1464 1.526 . S
C1467 C1468 1.396 . S
C1467 C1472 1.390 . S
C1468 C1462 1.465 . S
C1468 C1467 1.396 . S
C1468 C1469 1.399 . S
C1469 H1455 0.929 . S
C1469 C1468 1.399 . S
C1469 C1470 1.385 . S
C1470 H1456 0.931 . S
C1470 C1469 1.385 . S
C1470 C1471 1.389 . S
C1471 C1470 1.389 . S
C1471 C1472 1.387 . S
C1472 H1457 0.930 . S
C1472 C1467 1.390 . S
C1472 C1471 1.387 . S
H1473 C1485 0.930 . S
H1474 C1487 0.930 . S
H1475 C1488 0.930 . S
H1476 C1492 0.959 . S
H1477 C1492 0.959 . S
H1478 C1492 0.961 . S
H1479 C1493 0.960 . S
H1480 C1493 0.961 . S
H1481 C1493 0.959 . S
H1482 C1496 0.929 . S
H1483 C1497 0.931 . S
H1484 C1499 0.930 . S
C1485 H1473 0.930 . S
C1485 C1486 1.399 . S
C1485 C1490 1.399 . S
C1486 C1485 1.399 . S
C1486 C1487 1.376 . S
C1487 H1474 0.930 . S
C1487 C1486 1.376 . S
C1487 C1488 1.388 . S
C1488 H1475 0.930 . S
C1488 C1487 1.388 . S
C1488 C1489 1.390 . S
C1489 C1488 1.390 . S
C1489 C1490 1.394 . S
C1489 C1495 1.465 . S
C1490 C1485 1.399 . S
C1490 C1489 1.394 . S
C1490 C1491 1.516 . S
C1491 C1490 1.516 . S
C1491 C1492 1.502 . S
C1491 C1493 1.561 . S
C1491 C1494 1.526 . S
C1492 H1476 0.959 . S
C1492 H1477 0.959 . S
C1492 H1478 0.961 . S
C1492 C1491 1.502 . S
C1493 H1479 0.960 . S
C1493 H1480 0.961 . S
C1493 H1481 0.959 . S
C1493 C1491 1.561 . S
C1494 C1491 1.526 . S
C1494 C1495 1.396 . S
C1494 C1499 1.390 . S
C1495 C1489 1.465 . S
C1495 C1494 1.396 . S
C1495 C1496 1.399 . S
C1496 H1482 0.929 . S
C1496 C1495 1.399 . S
C1496 C1497 1.385 . S
C1497 H1483 0.931 . S
C1497 C1496 1.385 . S
C1497 C1498 1.389 . S
C1498 C1497 1.389 . S
C1498 C1499 1.387 . S
C1499 H1484 0.930 . S
C1499 C1494 1.390 . S
C1499 C1498 1.387 . S
H1500 C1512 0.930 . S
H1501 C1514 0.930 . S
H1502 C1515 0.930 . S
H1503 C1519 0.959 . S
H1504 C1519 0.959 . S
H1505 C1519 0.961 . S
H1506 C1520 0.960 . S
H1507 C1520 0.961 . S
H1508 C1520 0.959 . S
H1509 C1523 0.929 . S
H1510 C1524 0.931 . S
H1511 C1526 0.930 . S
C1512 H1500 0.930 . S
C1512 C1513 1.399 . S
C1512 C1517 1.399 . S
C1513 C1512 1.399 . S
C1513 C1514 1.376 . S
C1514 H1501 0.930 . S
C1514 C1513 1.376 . S
C1514 C1515 1.388 . S
C1515 H1502 0.930 . S
C1515 C1514 1.388 . S
C1515 C1516 1.390 . S
C1516 C1515 1.390 . S
C1516 C1517 1.394 . S
C1516 C1522 1.465 . S
C1517 C1512 1.399 . S
C1517 C1516 1.394 . S
C1517 C1518 1.516 . S
C1518 C1517 1.516 . S
C1518 C1519 1.502 . S
C1518 C1520 1.561 . S
C1518 C1521 1.526 . S
C1519 H1503 0.959 . S
C1519 H1504 0.959 . S
C1519 H1505 0.961 . S
C1519 C1518 1.502 . S
C1520 H1506 0.960 . S
C1520 H1507 0.961 . S
C1520 H1508 0.959 . S
C1520 C1518 1.561 . S
C1521 C1518 1.526 . S
C1521 C1522 1.396 . S
C1521 C1526 1.390 . S
C1522 C1516 1.465 . S
C1522 C1521 1.396 . S
C1522 C1523 1.399 . S
C1523 H1509 0.929 . S
C1523 C1522 1.399 . S
C1523 C1524 1.385 . S
C1524 H1510 0.931 . S
C1524 C1523 1.385 . S
C1524 C1525 1.389 . S
C1525 C1524 1.389 . S
C1525 C1526 1.387 . S
C1526 H1511 0.930 . S
C1526 C1521 1.390 . S
C1526 C1525 1.387 . S
H1527 C1539 0.930 . S
H1528 C1541 0.930 1_565 S
H1529 C1542 0.956 . S
H1530 C1546 0.959 . S
H1531 C1546 0.959 . S
H1532 C1546 0.961 . S
H1533 C1547 0.960 . S
H1534 C1547 0.961 . S
H1535 C1547 0.959 . S
H1536 C1550 0.929 . S
H1537 C1551 0.931 . S
H1538 C1553 0.930 . S
C1539 H1527 0.930 . S
C1539 C1540 1.399 . S
C1539 C1544 1.399 . S
C1540 C1539 1.399 . S
C1540 C1541 1.376 . S
C1541 H1528 0.930 1_545 S
C1541 C1540 1.376 . S
C1541 C1542 1.380 1_545 S
C1542 H1529 0.956 . S
C1542 C1541 1.380 1_565 S
C1542 C1543 1.372 1_565 S
C1543 C1542 1.372 1_545 S
C1543 C1544 1.394 . S
C1543 C1549 1.465 . S
C1544 C1539 1.399 . S
C1544 C1543 1.394 . S
C1544 C1545 1.516 . S
C1545 C1544 1.516 . S
C1545 C1546 1.502 . S
C1545 C1547 1.561 . S
C1545 C1548 1.526 . S
C1546 H1530 0.959 . S
C1546 H1531 0.959 . S
C1546 H1532 0.961 . S
C1546 C1545 1.502 . S
C1547 H1533 0.960 . S
C1547 H1534 0.961 . S
C1547 H1535 0.959 . S
C1547 C1545 1.561 . S
C1548 C1545 1.526 . S
C1548 C1549 1.396 . S
C1548 C1553 1.390 . S
C1549 C1543 1.465 . S
C1549 C1548 1.396 . S
C1549 C1550 1.399 1_545 S
C1550 H1536 0.929 . S
C1550 C1549 1.399 1_565 S
C1550 C1551 1.385 . S
C1551 H1537 0.931 . S
C1551 C1550 1.385 . S
C1551 C1552 1.389 1_565 S
C1552 C1551 1.389 1_545 S
C1552 C1553 1.387 . S
C1553 H1538 0.930 . S
C1553 C1548 1.390 . S
C1553 C1552 1.387 . S
H1554 C1566 0.930 . S
H1555 C1568 0.930 . S
H1556 C1569 0.930 . S
H1557 C1573 0.959 . S
H1558 C1573 0.959 . S
H1559 C1573 0.961 . S
H1560 C1574 0.960 . S
H1561 C1574 0.961 . S
H1562 C1574 0.959 . S
H1563 C1577 0.929 . S
H1564 C1578 0.931 . S
H1565 C1580 0.930 . S
C1566 H1554 0.930 . S
C1566 C1567 1.399 . S
C1566 C1571 1.399 . S
C1567 C1566 1.399 . S
C1567 C1568 1.376 . S
C1568 H1555 0.930 . S
C1568 C1567 1.376 . S
C1568 C1569 1.388 . S
C1569 H1556 0.930 . S
C1569 C1568 1.388 . S
C1569 C1570 1.390 . S
C1570 C1569 1.390 . S
C1570 C1571 1.394 . S
C1570 C1576 1.465 . S
C1571 C1566 1.399 . S
C1571 C1570 1.394 . S
C1571 C1572 1.516 . S
C1572 C1571 1.516 . S
C1572 C1573 1.502 . S
C1572 C1574 1.561 . S
C1572 C1575 1.526 . S
C1573 H1557 0.959 . S
C1573 H1558 0.959 . S
C1573 H1559 0.961 . S
C1573 C1572 1.502 . S
C1574 H1560 0.960 . S
C1574 H1561 0.961 . S
C1574 H1562 0.959 . S
C1574 C1572 1.561 . S
C1575 C1572 1.526 . S
C1575 C1576 1.396 . S
C1575 C1580 1.390 . S
C1576 C1570 1.465 . S
C1576 C1575 1.396 . S
C1576 C1577 1.399 . S
C1577 H1563 0.929 . S
C1577 C1576 1.399 . S
C1577 C1578 1.385 . S
C1578 H1564 0.931 . S
C1578 C1577 1.385 . S
C1578 C1579 1.389 . S
C1579 C1578 1.389 . S
C1579 C1580 1.387 . S
C1580 H1565 0.930 . S
C1580 C1575 1.390 . S
C1580 C1579 1.387 . S
H1581 C1593 0.930 . S
H1582 C1595 0.930 . S
H1583 C1596 0.930 . S
H1584 C1600 0.959 . S
H1585 C1600 0.959 . S
H1586 C1600 0.961 . S
H1587 C1601 0.960 . S
H1588 C1601 0.961 . S
H1589 C1601 0.959 . S
H1590 C1604 0.929 . S
H1591 C1605 0.931 . S
H1592 C1607 0.930 . S
C1593 H1581 0.930 . S
C1593 C1594 1.399 . S
C1593 C1598 1.399 . S
C1594 C1593 1.399 . S
C1594 C1595 1.376 . S
C1595 H1582 0.930 . S
C1595 C1594 1.376 . S
C1595 C1596 1.388 . S
C1596 H1583 0.930 . S
C1596 C1595 1.388 . S
C1596 C1597 1.390 . S
C1597 C1596 1.390 . S
C1597 C1598 1.394 . S
C1597 C1603 1.465 . S
C1598 C1593 1.399 . S
C1598 C1597 1.394 . S
C1598 C1599 1.516 . S
C1599 C1598 1.516 . S
C1599 C1600 1.502 . S
C1599 C1601 1.561 . S
C1599 C1602 1.526 . S
C1600 H1584 0.959 . S
C1600 H1585 0.959 . S
C1600 H1586 0.961 . S
C1600 C1599 1.502 . S
C1601 H1587 0.960 . S
C1601 H1588 0.961 . S
C1601 H1589 0.959 . S
C1601 C1599 1.561 . S
C1602 C1599 1.526 . S
C1602 C1603 1.396 . S
C1602 C1607 1.390 . S
C1603 C1597 1.465 . S
C1603 C1602 1.396 . S
C1603 C1604 1.399 . S
C1604 H1590 0.929 . S
C1604 C1603 1.399 . S
C1604 C1605 1.385 . S
C1605 H1591 0.931 . S
C1605 C1604 1.385 . S
C1605 C1606 1.389 . S
C1606 C1605 1.389 . S
C1606 C1607 1.387 . S
C1607 H1592 0.930 . S
C1607 C1602 1.390 . S
C1607 C1606 1.387 . S
H1608 C1620 0.930 . S
H1609 C1622 0.930 . S
H1610 C1623 0.930 . S
H1611 C1627 0.959 . S
H1612 C1627 0.959 . S
H1613 C1627 0.961 . S
H1614 C1628 0.960 . S
H1615 C1628 0.961 . S
H1616 C1628 0.959 . S
H1617 C1631 0.929 . S
H1618 C1632 0.931 . S
H1619 C1634 0.930 . S
C1620 H1608 0.930 . S
C1620 C1621 1.399 . S
C1620 C1625 1.399 . S
C1621 C1620 1.399 . S
C1621 C1622 1.376 . S
C1622 H1609 0.930 . S
C1622 C1621 1.376 . S
C1622 C1623 1.388 . S
C1623 H1610 0.930 . S
C1623 C1622 1.388 . S
C1623 C1624 1.390 . S
C1624 C1623 1.390 . S
C1624 C1625 1.394 . S
C1624 C1630 1.465 . S
C1625 C1620 1.399 . S
C1625 C1624 1.394 . S
C1625 C1626 1.516 . S
C1626 C1625 1.516 . S
C1626 C1627 1.502 . S
C1626 C1628 1.561 . S
C1626 C1629 1.526 . S
C1627 H1611 0.959 . S
C1627 H1612 0.959 . S
C1627 H1613 0.961 . S
C1627 C1626 1.502 . S
C1628 H1614 0.960 . S
C1628 H1615 0.961 . S
C1628 H1616 0.959 . S
C1628 C1626 1.561 . S
C1629 C1626 1.526 . S
C1629 C1630 1.396 . S
C1629 C1634 1.390 . S
C1630 C1624 1.465 . S
C1630 C1629 1.396 . S
C1630 C1631 1.399 . S
C1631 H1617 0.929 . S
C1631 C1630 1.399 . S
C1631 C1632 1.385 . S
C1632 H1618 0.931 . S
C1632 C1631 1.385 . S
C1632 C1633 1.389 . S
C1633 C1632 1.389 . S
C1633 C1634 1.387 . S
C1634 H1619 0.930 . S
C1634 C1629 1.390 . S
C1634 C1633 1.387 . S
H1635 C1647 0.930 1_554 S
H1636 C1649 0.930 . S
H1637 C1650 0.930 . S
H1638 C1654 0.959 . S
H1639 C1654 0.959 . S
H1640 C1654 0.961 . S
H1641 C1655 0.960 . S
H1642 C1655 0.961 . S
H1643 C1655 0.959 . S
H1644 C1658 0.929 . S
H1645 C1659 0.931 . S
H1646 C1661 0.930 . S
C1647 H1635 0.930 1_556 S
C1647 C1648 1.399 . S
C1647 C1652 1.399 . S
C1648 C1647 1.399 . S
C1648 C1649 1.376 . S
C1649 H1636 0.930 . S
C1649 C1648 1.376 . S
C1649 C1650 1.388 . S
C1650 H1637 0.930 . S
C1650 C1649 1.388 . S
C1650 C1651 1.390 . S
C1651 C1650 1.390 . S
C1651 C1652 1.394 . S
C1651 C1657 1.465 . S
C1652 C1647 1.399 . S
C1652 C1651 1.394 . S
C1652 C1653 1.516 . S
C1653 C1652 1.516 . S
C1653 C1654 1.502 1_655 S
C1653 C1655 1.561 . S
C1653 C1656 1.526 . S
C1654 H1638 0.959 . S
C1654 H1639 0.959 . S
C1654 H1640 0.961 . S
C1654 C1653 1.502 1_455 S
C1655 H1641 0.960 . S
C1655 H1642 0.961 . S
C1655 H1643 0.959 . S
C1655 C1653 1.561 . S
C1656 C1653 1.526 . S
C1656 C1657 1.396 . S
C1656 C1661 1.390 . S
C1657 C1651 1.465 . S
C1657 C1656 1.396 . S
C1657 C1658 1.399 . S
C1658 H1644 0.929 . S
C1658 C1657 1.399 . S
C1658 C1659 1.385 . S
C1659 H1645 0.931 . S
C1659 C1658 1.385 . S
C1659 C1660 1.389 . S
C1660 C1659 1.389 . S
C1660 C1661 1.387 . S
C1661 H1646 0.930 . S
C1661 C1656 1.390 . S
C1661 C1660 1.387 . S
H1662 C1674 0.930 . S
H1663 C1676 0.930 . S
H1664 C1677 0.930 . S
H1665 C1681 0.959 . S
H1666 C1681 0.959 . S
H1667 C1681 0.961 . S
H1668 C1682 0.960 . S
H1669 C1682 0.961 . S
H1670 C1682 0.959 . S
H1671 C1685 0.929 . S
H1672 C1686 0.931 . S
H1673 C1688 0.930 . S
C1674 H1662 0.930 . S
C1674 C1675 1.399 . S
C1674 C1679 1.399 . S
C1675 C1674 1.399 . S
C1675 C1676 1.376 . S
C1676 H1663 0.930 . S
C1676 C1675 1.376 . S
C1676 C1677 1.388 . S
C1677 H1664 0.930 . S
C1677 C1676 1.388 . S
C1677 C1678 1.390 . S
C1678 C1677 1.390 . S
C1678 C1679 1.394 . S
C1678 C1684 1.465 . S
C1679 C1674 1.399 . S
C1679 C1678 1.394 . S
C1679 C1680 1.516 . S
C1680 C1679 1.516 . S
C1680 C1681 1.502 . S
C1680 C1682 1.561 . S
C1680 C1683 1.526 . S
C1681 H1665 0.959 . S
C1681 H1666 0.959 . S
C1681 H1667 0.961 . S
C1681 C1680 1.502 . S
C1682 H1668 0.960 . S
C1682 H1669 0.961 . S
C1682 H1670 0.959 . S
C1682 C1680 1.561 . S
C1683 C1680 1.526 . S
C1683 C1684 1.396 . S
C1683 C1688 1.390 . S
C1684 C1678 1.465 . S
C1684 C1683 1.396 . S
C1684 C1685 1.399 . S
C1685 H1671 0.929 . S
C1685 C1684 1.399 . S
C1685 C1686 1.385 . S
C1686 H1672 0.931 . S
C1686 C1685 1.385 . S
C1686 C1687 1.389 . S
C1687 C1686 1.389 . S
C1687 C1688 1.387 . S
C1688 H1673 0.930 . S
C1688 C1683 1.390 . S
C1688 C1687 1.387 . S
H1689 C1701 0.930 . S
H1690 C1703 0.930 . S
H1691 C1704 0.930 . S
H1692 C1708 0.959 . S
H1693 C1708 0.959 . S
H1694 C1708 0.961 . S
H1695 C1709 0.960 . S
H1696 C1709 0.961 . S
H1697 C1709 0.959 . S
H1698 C1712 0.929 . S
H1699 C1713 0.931 . S
H1700 C1715 0.930 . S
C1701 H1689 0.930 . S
C1701 C1702 1.399 . S
C1701 C1706 1.399 . S
C1702 C1701 1.399 . S
C1702 C1703 1.376 . S
C1703 H1690 0.930 . S
C1703 C1702 1.376 . S
C1703 C1704 1.388 . S
C1704 H1691 0.930 . S
C1704 C1703 1.388 . S
C1704 C1705 1.390 . S
C1705 C1704 1.390 . S
C1705 C1706 1.394 . S
C1705 C1711 1.465 . S
C1706 C1701 1.399 . S
C1706 C1705 1.394 . S
C1706 C1707 1.516 . S
C1707 C1706 1.516 . S
C1707 C1708 1.502 1_455 S
C1707 C1709 1.561 . S
C1707 C1710 1.526 . S
C1708 H1692 0.959 . S
C1708 H1693 0.959 . S
C1708 H1694 0.961 . S
C1708 C1707 1.502 1_655 S
C1709 H1695 0.960 . S
C1709 H1696 0.961 . S
C1709 H1697 0.959 . S
C1709 C1707 1.561 . S
C1710 C1707 1.526 . S
C1710 C1711 1.396 . S
C1710 C1715 1.390 . S
C1711 C1705 1.465 . S
C1711 C1710 1.396 . S
C1711 C1712 1.399 . S
C1712 H1698 0.929 . S
C1712 C1711 1.399 . S
C1712 C1713 1.385 . S
C1713 H1699 0.931 . S
C1713 C1712 1.385 . S
C1713 C1714 1.389 . S
C1714 C1713 1.389 . S
C1714 C1715 1.387 . S
C1715 H1700 0.930 . S
C1715 C1710 1.390 . S
C1715 C1714 1.387 . S
H1716 C1728 0.930 . S
H1717 C1730 0.930 . S
H1718 C1731 0.930 . S
H1719 C1735 0.959 . S
H1720 C1735 0.959 . S
H1721 C1735 0.961 . S
H1722 C1736 0.960 . S
H1723 C1736 0.961 . S
H1724 C1736 0.959 . S
H1725 C1739 0.929 . S
H1726 C1740 0.931 . S
H1727 C1742 0.930 . S
C1728 H1716 0.930 . S
C1728 C1729 1.399 . S
C1728 C1733 1.399 . S
C1729 C1728 1.399 . S
C1729 C1730 1.376 . S
C1730 H1717 0.930 . S
C1730 C1729 1.376 . S
C1730 C1731 1.388 . S
C1731 H1718 0.930 . S
C1731 C1730 1.388 . S
C1731 C1732 1.390 . S
C1732 C1731 1.390 . S
C1732 C1733 1.394 . S
C1732 C1738 1.465 . S
C1733 C1728 1.399 . S
C1733 C1732 1.394 . S
C1733 C1734 1.516 . S
C1734 C1733 1.516 . S
C1734 C1735 1.502 . S
C1734 C1736 1.561 . S
C1734 C1737 1.526 . S
C1735 H1719 0.959 . S
C1735 H1720 0.959 . S
C1735 H1721 0.961 . S
C1735 C1734 1.502 . S
C1736 H1722 0.960 . S
C1736 H1723 0.961 . S
C1736 H1724 0.959 . S
C1736 C1734 1.561 . S
C1737 C1734 1.526 . S
C1737 C1738 1.396 . S
C1737 C1742 1.390 . S
C1738 C1732 1.465 . S
C1738 C1737 1.396 . S
C1738 C1739 1.399 . S
C1739 H1725 0.929 . S
C1739 C1738 1.399 . S
C1739 C1740 1.385 . S
C1740 H1726 0.931 . S
C1740 C1739 1.385 . S
C1740 C1741 1.389 . S
C1741 C1740 1.389 . S
C1741 C1742 1.387 . S
C1742 H1727 0.930 . S
C1742 C1737 1.390 . S
C1742 C1741 1.387 . S
H1743 C1755 0.930 . S
H1744 C1757 0.930 1_556 S
H1745 C1758 0.930 . S
H1746 C1762 0.959 . S
H1747 C1762 0.959 . S
H1748 C1762 0.961 . S
H1749 C1763 0.960 . S
H1750 C1763 0.961 . S
H1751 C1763 0.959 . S
H1752 C1766 0.929 . S
H1753 C1767 0.931 . S
H1754 C1769 0.930 . S
C1755 H1743 0.930 . S
C1755 C1756 1.399 . S
C1755 C1760 1.399 . S
C1756 C1755 1.399 . S
C1756 C1757 1.376 . S
C1757 H1744 0.930 1_554 S
C1757 C1756 1.376 . S
C1757 C1758 1.388 . S
C1758 H1745 0.930 . S
C1758 C1757 1.388 . S
C1758 C1759 1.390 . S
C1759 C1758 1.390 . S
C1759 C1760 1.394 . S
C1759 C1765 1.465 . S
C1760 C1755 1.399 . S
C1760 C1759 1.394 . S
C1760 C1761 1.516 . S
C1761 C1760 1.516 . S
C1761 C1762 1.502 . S
C1761 C1763 1.561 . S
C1761 C1764 1.526 . S
C1762 H1746 0.959 . S
C1762 H1747 0.959 . S
C1762 H1748 0.961 . S
C1762 C1761 1.502 . S
C1763 H1749 0.960 . S
C1763 H1750 0.961 . S
C1763 H1751 0.959 . S
C1763 C1761 1.561 . S
C1764 C1761 1.526 . S
C1764 C1765 1.396 . S
C1764 C1769 1.390 . S
C1765 C1759 1.465 . S
C1765 C1764 1.396 . S
C1765 C1766 1.399 . S
C1766 H1752 0.929 . S
C1766 C1765 1.399 . S
C1766 C1767 1.385 . S
C1767 H1753 0.931 . S
C1767 C1766 1.385 . S
C1767 C1768 1.389 . S
C1768 C1767 1.389 . S
C1768 C1769 1.387 . S
C1769 H1754 0.930 . S
C1769 C1764 1.390 . S
C1769 C1768 1.387 . S
H1770 C1782 0.930 . S
H1771 C1784 0.930 . S
H1772 C1785 0.930 . S
H1773 C1789 0.959 . S
H1774 C1789 0.959 . S
H1775 C1789 0.961 . S
H1776 C1790 0.960 . S
H1777 C1790 0.961 . S
H1778 C1790 0.959 . S
H1779 C1793 0.929 . S
H1780 C1794 0.931 . S
H1781 C1796 0.930 . S
C1782 H1770 0.930 . S
C1782 C1783 1.399 . S
C1782 C1787 1.399 . S
C1783 C1782 1.399 . S
C1783 C1784 1.376 . S
C1784 H1771 0.930 . S
C1784 C1783 1.376 . S
C1784 C1785 1.388 . S
C1785 H1772 0.930 . S
C1785 C1784 1.388 . S
C1785 C1786 1.390 . S
C1786 C1785 1.390 . S
C1786 C1787 1.394 . S
C1786 C1792 1.465 . S
C1787 C1782 1.399 . S
C1787 C1786 1.394 . S
C1787 C1788 1.516 . S
C1788 C1787 1.516 . S
C1788 C1789 1.502 . S
C1788 C1790 1.561 . S
C1788 C1791 1.526 . S
C1789 H1773 0.959 . S
C1789 H1774 0.959 . S
C1789 H1775 0.961 . S
C1789 C1788 1.502 . S
C1790 H1776 0.960 . S
C1790 H1777 0.961 . S
C1790 H1778 0.959 . S
C1790 C1788 1.561 . S
C1791 C1788 1.526 . S
C1791 C1792 1.396 . S
C1791 C1796 1.390 . S
C1792 C1786 1.465 . S
C1792 C1791 1.396 . S
C1792 C1793 1.399 . S
C1793 H1779 0.929 . S
C1793 C1792 1.399 . S
C1793 C1794 1.385 . S
C1794 H1780 0.931 . S
C1794 C1793 1.385 . S
C1794 C1795 1.389 . S
C1795 C1794 1.389 . S
C1795 C1796 1.387 . S
C1796 H1781 0.930 . S
C1796 C1791 1.390 . S
C1796 C1795 1.387 . S
H1797 C1809 0.930 . S
H1798 C1811 0.930 . S
H1799 C1812 0.930 . S
H1800 C1816 0.959 . S
H1801 C1816 0.959 . S
H1802 C1816 0.961 . S
H1803 C1817 0.960 . S
H1804 C1817 0.961 . S
H1805 C1817 0.959 . S
H1806 C1820 0.929 . S
H1807 C1821 0.931 . S
H1808 C1823 0.930 . S
C1809 H1797 0.930 . S
C1809 C1810 1.399 . S
C1809 C1814 1.399 . S
C1810 C1809 1.399 . S
C1810 C1811 1.376 . S
C1811 H1798 0.930 . S
C1811 C1810 1.376 . S
C1811 C1812 1.388 . S
C1812 H1799 0.930 . S
C1812 C1811 1.388 . S
C1812 C1813 1.390 . S
C1813 C1812 1.390 . S
C1813 C1814 1.394 . S
C1813 C1819 1.465 . S
C1814 C1809 1.399 . S
C1814 C1813 1.394 . S
C1814 C1815 1.516 . S
C1815 C1814 1.516 . S
C1815 C1816 1.502 . S
C1815 C1817 1.561 . S
C1815 C1818 1.526 . S
C1816 H1800 0.959 . S
C1816 H1801 0.959 . S
C1816 H1802 0.961 . S
C1816 C1815 1.502 . S
C1817 H1803 0.960 . S
C1817 H1804 0.961 . S
C1817 H1805 0.959 . S
C1817 C1815 1.561 . S
C1818 C1815 1.526 . S
C1818 C1819 1.396 . S
C1818 C1823 1.390 . S
C1819 C1813 1.465 . S
C1819 C1818 1.396 . S
C1819 C1820 1.399 . S
C1820 H1806 0.929 . S
C1820 C1819 1.399 . S
C1820 C1821 1.385 . S
C1821 H1807 0.931 . S
C1821 C1820 1.385 . S
C1821 C1822 1.389 . S
C1822 C1821 1.389 . S
C1822 C1823 1.387 . S
C1823 H1808 0.930 . S
C1823 C1818 1.390 . S
C1823 C1822 1.387 . S
H1824 C1836 0.930 . S
H1825 C1838 0.930 . S
H1826 C1839 0.930 . S
H1827 C1843 0.959 . S
H1828 C1843 0.959 . S
H1829 C1843 0.961 . S
H1830 C1844 0.960 . S
H1831 C1844 0.961 . S
H1832 C1844 0.959 . S
H1833 C1847 0.929 . S
H1834 C1848 0.931 . S
H1835 C1850 0.930 . S
C1836 H1824 0.930 . S
C1836 C1837 1.399 . S
C1836 C1841 1.399 . S
C1837 C1836 1.399 . S
C1837 C1838 1.376 . S
C1838 H1825 0.930 . S
C1838 C1837 1.376 . S
C1838 C1839 1.388 . S
C1839 H1826 0.930 . S
C1839 C1838 1.388 . S
C1839 C1840 1.390 . S
C1840 C1839 1.390 . S
C1840 C1841 1.394 . S
C1840 C1846 1.465 . S
C1841 C1836 1.399 . S
C1841 C1840 1.394 . S
C1841 C1842 1.516 . S
C1842 C1841 1.516 . S
C1842 C1843 1.502 . S
C1842 C1844 1.561 . S
C1842 C1845 1.526 . S
C1843 H1827 0.959 . S
C1843 H1828 0.959 . S
C1843 H1829 0.961 . S
C1843 C1842 1.502 . S
C1844 H1830 0.960 . S
C1844 H1831 0.961 . S
C1844 H1832 0.959 . S
C1844 C1842 1.561 . S
C1845 C1842 1.526 . S
C1845 C1846 1.396 . S
C1845 C1850 1.390 . S
C1846 C1840 1.465 . S
C1846 C1845 1.396 . S
C1846 C1847 1.399 . S
C1847 H1833 0.929 . S
C1847 C1846 1.399 . S
C1847 C1848 1.385 . S
C1848 H1834 0.931 . S
C1848 C1847 1.385 . S
C1848 C1849 1.389 . S
C1849 C1848 1.389 . S
C1849 C1850 1.387 . S
C1850 H1835 0.930 . S
C1850 C1845 1.390 . S
C1850 C1849 1.387 . S
H1851 C1863 0.930 . S
H1852 C1865 0.930 . S
H1853 C1866 0.930 . S
H1854 C1870 0.959 . S
H1855 C1870 0.959 . S
H1856 C1870 0.961 . S
H1857 C1871 0.960 . S
H1858 C1871 0.961 . S
H1859 C1871 0.959 . S
H1860 C1874 0.929 . S
H1861 C1875 0.931 . S
H1862 C1877 0.930 . S
C1863 H1851 0.930 . S
C1863 C1864 1.399 . S
C1863 C1868 1.399 . S
C1864 C1863 1.399 . S
C1864 C1865 1.376 . S
C1865 H1852 0.930 . S
C1865 C1864 1.376 . S
C1865 C1866 1.388 . S
C1866 H1853 0.930 . S
C1866 C1865 1.388 . S
C1866 C1867 1.390 . S
C1867 C1866 1.390 . S
C1867 C1868 1.394 . S
C1867 C1873 1.465 . S
C1868 C1863 1.399 . S
C1868 C1867 1.394 . S
C1868 C1869 1.516 . S
C1869 C1868 1.516 . S
C1869 C1870 1.502 . S
C1869 C1871 1.561 . S
C1869 C1872 1.526 . S
C1870 H1854 0.959 . S
C1870 H1855 0.959 . S
C1870 H1856 0.961 . S
C1870 C1869 1.502 . S
C1871 H1857 0.960 . S
C1871 H1858 0.961 . S
C1871 H1859 0.959 . S
C1871 C1869 1.561 . S
C1872 C1869 1.526 . S
C1872 C1873 1.396 . S
C1872 C1877 1.390 . S
C1873 C1867 1.465 . S
C1873 C1872 1.396 . S
C1873 C1874 1.399 . S
C1874 H1860 0.929 . S
C1874 C1873 1.399 . S
C1874 C1875 1.385 . S
C1875 H1861 0.931 . S
C1875 C1874 1.385 . S
C1875 C1876 1.389 . S
C1876 C1875 1.389 . S
C1876 C1877 1.387 . S
C1877 H1862 0.930 . S
C1877 C1872 1.390 . S
C1877 C1876 1.387 . S
H1878 C1890 0.930 . S
H1879 C1892 0.930 . S
H1880 C1893 0.930 . S
H1881 C1897 0.959 . S
H1882 C1897 0.959 . S
H1883 C1897 0.961 . S
H1884 C1898 0.960 . S
H1885 C1898 0.961 . S
H1886 C1898 0.959 . S
H1887 C1901 0.929 . S
H1888 C1902 0.931 . S
H1889 C1904 0.930 . S
C1890 H1878 0.930 . S
C1890 C1891 1.399 . S
C1890 C1895 1.399 . S
C1891 C1890 1.399 . S
C1891 C1892 1.376 . S
C1892 H1879 0.930 . S
C1892 C1891 1.376 . S
C1892 C1893 1.388 . S
C1893 H1880 0.930 . S
C1893 C1892 1.388 . S
C1893 C1894 1.390 . S
C1894 C1893 1.390 . S
C1894 C1895 1.394 . S
C1894 C1900 1.465 . S
C1895 C1890 1.399 . S
C1895 C1894 1.394 . S
C1895 C1896 1.516 . S
C1896 C1895 1.516 . S
C1896 C1897 1.502 . S
C1896 C1898 1.561 . S
C1896 C1899 1.526 . S
C1897 H1881 0.959 . S
C1897 H1882 0.959 . S
C1897 H1883 0.961 . S
C1897 C1896 1.502 . S
C1898 H1884 0.960 . S
C1898 H1885 0.961 . S
C1898 H1886 0.959 . S
C1898 C1896 1.561 . S
C1899 C1896 1.526 . S
C1899 C1900 1.396 . S
C1899 C1904 1.390 . S
C1900 C1894 1.465 . S
C1900 C1899 1.396 . S
C1900 C1901 1.399 . S
C1901 H1887 0.929 . S
C1901 C1900 1.399 . S
C1901 C1902 1.385 . S
C1902 H1888 0.931 . S
C1902 C1901 1.385 . S
C1902 C1903 1.389 . S
C1903 C1902 1.389 . S
C1903 C1904 1.387 . S
C1904 H1889 0.930 . S
C1904 C1899 1.390 . S
C1904 C1903 1.387 . S
H1905 C1917 0.930 . S
H1906 C1919 0.930 . S
H1907 C1920 0.930 . S
H1908 C1924 0.959 . S
H1909 C1924 0.959 . S
H1910 C1924 0.961 . S
H1911 C1925 0.960 . S
H1912 C1925 0.961 . S
H1913 C1925 0.959 . S
H1914 C1928 0.929 . S
H1915 C1929 0.931 . S
H1916 C1931 0.930 . S
C1917 H1905 0.930 . S
C1917 C1918 1.399 . S
C1917 C1922 1.399 . S
C1918 C1917 1.399 . S
C1918 C1919 1.376 . S
C1919 H1906 0.930 . S
C1919 C1918 1.376 . S
C1919 C1920 1.388 . S
C1920 H1907 0.930 . S
C1920 C1919 1.388 . S
C1920 C1921 1.390 . S
C1921 C1920 1.390 . S
C1921 C1922 1.394 . S
C1921 C1927 1.465 . S
C1922 C1917 1.399 . S
C1922 C1921 1.394 . S
C1922 C1923 1.516 . S
C1923 C1922 1.516 . S
C1923 C1924 1.502 . S
C1923 C1925 1.561 . S
C1923 C1926 1.526 . S
C1924 H1908 0.959 . S
C1924 H1909 0.959 . S
C1924 H1910 0.961 . S
C1924 C1923 1.502 . S
C1925 H1911 0.960 . S
C1925 H1912 0.961 . S
C1925 H1913 0.959 . S
C1925 C1923 1.561 . S
C1926 C1923 1.526 . S
C1926 C1927 1.396 . S
C1926 C1931 1.390 . S
C1927 C1921 1.465 . S
C1927 C1926 1.396 . S
C1927 C1928 1.399 . S
C1928 H1914 0.929 . S
C1928 C1927 1.399 . S
C1928 C1929 1.385 . S
C1929 H1915 0.931 . S
C1929 C1928 1.385 . S
C1929 C1930 1.389 . S
C1930 C1929 1.389 . S
C1930 C1931 1.387 . S
C1931 H1916 0.930 . S
C1931 C1926 1.390 . S
C1931 C1930 1.387 . S
H1932 C1944 0.930 . S
H1933 C1946 0.930 1_554 S
H1934 C1947 0.930 . S
H1935 C1951 0.959 . S
H1936 C1951 0.959 . S
H1937 C1951 0.961 . S
H1938 C1952 0.960 . S
H1939 C1952 0.961 . S
H1940 C1952 0.959 . S
H1941 C1955 0.929 . S
H1942 C1956 0.931 . S
H1943 C1958 0.930 . S
C1944 H1932 0.930 . S
C1944 C1945 1.399 . S
C1944 C1949 1.399 . S
C1945 C1944 1.399 . S
C1945 C1946 1.376 . S
C1946 H1933 0.930 1_556 S
C1946 C1945 1.376 . S
C1946 C1947 1.388 1_556 S
C1947 H1934 0.930 . S
C1947 C1946 1.388 1_554 S
C1947 C1948 1.390 1_554 S
C1948 C1947 1.390 1_556 S
C1948 C1949 1.394 . S
C1948 C1954 1.465 . S
C1949 C1944 1.399 . S
C1949 C1948 1.394 . S
C1949 C1950 1.516 . S
C1950 C1949 1.516 . S
C1950 C1951 1.502 . S
C1950 C1952 1.561 . S
C1950 C1953 1.526 . S
C1951 H1935 0.959 . S
C1951 H1936 0.959 . S
C1951 H1937 0.961 . S
C1951 C1950 1.502 . S
C1952 H1938 0.960 . S
C1952 H1939 0.961 . S
C1952 H1940 0.959 . S
C1952 C1950 1.561 . S
C1953 C1950 1.526 . S
C1953 C1954 1.396 . S
C1953 C1958 1.390 . S
C1954 C1948 1.465 . S
C1954 C1953 1.396 . S
C1954 C1955 1.399 1_556 S
C1955 H1941 0.929 . S
C1955 C1954 1.399 1_554 S
C1955 C1956 1.385 . S
C1956 H1942 0.931 . S
C1956 C1955 1.385 . S
C1956 C1957 1.389 1_554 S
C1957 C1956 1.389 1_556 S
C1957 C1958 1.387 . S
C1958 H1943 0.930 . S
C1958 C1953 1.390 . S
C1958 C1957 1.387 . S
H1959 C1971 0.930 . S
H1960 C1973 0.930 . S
H1961 C1974 0.930 . S
H1962 C1978 0.959 . S
H1963 C1978 0.959 . S
H1964 C1978 0.961 . S
H1965 C1979 0.960 . S
H1966 C1979 0.961 . S
H1967 C1979 0.959 . S
H1968 C1982 0.929 . S
H1969 C1983 0.931 . S
H1970 C1985 0.930 . S
C1971 H1959 0.930 . S
C1971 C1972 1.399 . S
C1971 C1976 1.399 . S
C1972 C1971 1.399 . S
C1972 C1973 1.376 . S
C1973 H1960 0.930 . S
C1973 C1972 1.376 . S
C1973 C1974 1.388 . S
C1974 H1961 0.930 . S
C1974 C1973 1.388 . S
C1974 C1975 1.390 . S
C1975 C1974 1.390 . S
C1975 C1976 1.394 . S
C1975 C1981 1.465 . S
C1976 C1971 1.399 . S
C1976 C1975 1.394 . S
C1976 C1977 1.516 . S
C1977 C1976 1.516 . S
C1977 C1978 1.502 . S
C1977 C1979 1.561 . S
C1977 C1980 1.526 . S
C1978 H1962 0.959 . S
C1978 H1963 0.959 . S
C1978 H1964 0.961 . S
C1978 C1977 1.502 . S
C1979 H1965 0.960 . S
C1979 H1966 0.961 . S
C1979 H1967 0.959 . S
C1979 C1977 1.561 . S
C1980 C1977 1.526 . S
C1980 C1981 1.396 . S
C1980 C1985 1.390 . S
C1981 C1975 1.465 . S
C1981 C1980 1.396 . S
C1981 C1982 1.399 . S
C1982 H1968 0.929 . S
C1982 C1981 1.399 . S
C1982 C1983 1.385 . S
C1983 H1969 0.931 . S
C1983 C1982 1.385 . S
C1983 C1984 1.389 . S
C1984 C1983 1.389 . S
C1984 C1985 1.387 . S
C1985 H1970 0.930 . S
C1985 C1980 1.390 . S
C1985 C1984 1.387 . S
H1986 C1998 0.930 . S
H1987 C2000 0.930 . S
H1988 C2001 0.930 . S
H1989 C2005 0.956 1_554 S
H1990 C2005 0.962 . S
H1991 C2005 0.962 . S
H1992 C2006 0.960 . S
H1993 C2006 0.961 . S
H1994 C2006 0.959 . S
H1995 C2009 0.929 . S
H1996 C2010 0.931 . S
H1997 C2012 0.930 1_556 S
C1998 H1986 0.930 . S
C1998 C1999 1.399 . S
C1998 C2003 1.399 . S
C1999 C1998 1.399 . S
C1999 C2000 1.376 . S
C2000 H1987 0.930 . S
C2000 C1999 1.376 . S
C2000 C2001 1.388 . S
C2001 H1988 0.930 . S
C2001 C2000 1.388 . S
C2001 C2002 1.390 . S
C2002 C2001 1.390 . S
C2002 C2003 1.394 . S
C2002 C2008 1.465 . S
C2003 C1998 1.399 . S
C2003 C2002 1.394 . S
C2003 C2004 1.516 . S
C2004 C2003 1.516 . S
C2004 C2005 1.501 1_554 S
C2004 C2006 1.561 1_554 S
C2004 C2007 1.526 . S
C2005 H1989 0.956 1_556 S
C2005 H1990 0.962 . S
C2005 H1991 0.962 . S
C2005 C2004 1.501 1_556 S
C2006 H1992 0.960 . S
C2006 H1993 0.961 . S
C2006 H1994 0.959 . S
C2006 C2004 1.561 1_556 S
C2007 C2004 1.526 . S
C2007 C2008 1.396 . S
C2007 C2012 1.390 . S
C2008 C2002 1.465 . S
C2008 C2007 1.396 . S
C2008 C2009 1.399 . S
C2009 H1995 0.929 . S
C2009 C2008 1.399 . S
C2009 C2010 1.385 . S
C2010 H1996 0.931 . S
C2010 C2009 1.385 . S
C2010 C2011 1.389 . S
C2011 C2010 1.389 . S
C2011 C2012 1.387 . S
C2012 H1997 0.930 1_554 S
C2012 C2007 1.390 . S
C2012 C2011 1.387 . S
H2013 C2025 0.930 . S
H2014 C2027 0.930 1_556 S
H2015 C2028 0.930 . S
H2016 C2032 0.959 . S
H2017 C2032 0.959 . S
H2018 C2032 0.961 . S
H2019 C2033 0.960 . S
H2020 C2033 0.961 . S
H2021 C2033 0.959 . S
H2022 C2036 0.929 . S
H2023 C2037 0.931 . S
H2024 C2039 0.930 . S
C2025 H2013 0.930 . S
C2025 C2026 1.399 . S
C2025 C2030 1.399 . S
C2026 C2025 1.399 . S
C2026 C2027 1.376 . S
C2027 H2014 0.930 1_554 S
C2027 C2026 1.376 . S
C2027 C2028 1.388 1_554 S
C2028 H2015 0.930 . S
C2028 C2027 1.388 1_556 S
C2028 C2029 1.390 1_556 S
C2029 C2028 1.390 1_554 S
C2029 C2030 1.394 . S
C2029 C2035 1.465 . S
C2030 C2025 1.399 . S
C2030 C2029 1.394 . S
C2030 C2031 1.516 . S
C2031 C2030 1.516 . S
C2031 C2032 1.502 . S
C2031 C2033 1.561 . S
C2031 C2034 1.526 . S
C2032 H2016 0.959 . S
C2032 H2017 0.959 . S
C2032 H2018 0.961 . S
C2032 C2031 1.502 . S
C2033 H2019 0.960 . S
C2033 H2020 0.961 . S
C2033 H2021 0.959 . S
C2033 C2031 1.561 . S
C2034 C2031 1.526 . S
C2034 C2035 1.396 . S
C2034 C2039 1.390 . S
C2035 C2029 1.465 . S
C2035 C2034 1.396 . S
C2035 C2036 1.399 1_554 S
C2036 H2022 0.929 . S
C2036 C2035 1.399 1_556 S
C2036 C2037 1.385 . S
C2037 H2023 0.931 . S
C2037 C2036 1.385 . S
C2037 C2038 1.389 1_556 S
C2038 C2037 1.389 1_554 S
C2038 C2039 1.387 . S
C2039 H2024 0.930 . S
C2039 C2034 1.390 . S
C2039 C2038 1.387 . S
C769 C584 1.499 . S
C757 C181 1.491 . S
C796 C597 1.487 . S
C784 C247 1.475 . S
C811 C283 1.618 . S
C823 C617 1.559 . S
C850 C631 1.342 . S
C838 C169 1.439 1_655 S
C877 C643 1.503 . S
C865 C361 1.516 . S
C904 C657 1.420 . S
C892 C433 1.426 . S
C919 C421 1.484 . S
C931 C667 1.490 . S
C958 C682 1.524 . S
C946 C355 1.522 . S
C973 C427 1.523 . S
C985 C696 1.497 . S
C1012 C715 1.405 . S
C1000 C325 1.438 . S
C1027 C385 1.488 . S
C1039 C695 1.470 . S
C1066 C713 1.416 . S
C1054 C463 1.405 . S
C1081 C253 1.642 . S
C1093 C729 1.511 . S
C1108 C145 1.477 . S
C1120 C723 1.474 . S
C1135 C205 1.489 . S
C1147 C727 1.498 . S
C1162 C217 1.521 . S
C1174 C724 1.523 . S
C1189 C139 1.527 . S
C1201 C626 1.467 . S
C1216 C535 1.482 . S
C1228 C625 1.459 . S
C1255 C589 1.314 . S
C1243 C565 1.391 1_565 S
C1282 C603 1.567 . S
C1270 C313 1.631 . S
C1297 C175 1.571 . S
C1309 C640 1.546 . S
C1336 C685 1.503 . S
C1324 C397 1.511 . S
C1363 C639 1.489 . S
C1351 C349 1.487 . S
C1390 C671 1.429 . S
C1378 C457 1.436 . S
C1417 C668 1.447 . S
C1405 C505 1.509 . S
C1432 C571 1.453 . S
C1444 C681 1.467 . S
C1459 C319 1.617 . S
C1471 C645 1.565 . S
C1498 C659 1.383 . S
C1486 C493 1.437 . S
C1513 C109 1.520 . S
C1525 C615 1.500 . S
C1552 C629 1.420 . S
C1540 C1 1.426 . S
C1579 C583 1.458 . S
C1567 C61 1.478 . S
C1606 C598 1.534 . S
C1594 C103 1.521 . S
C1621 C67 1.513 . S
C1633 C710 1.514 . S
C1648 C73 1.428 1_556 S
C1660 C701 1.333 . S
C1675 C133 1.484 . S
C1687 C709 1.462 . S
C1702 C31 1.424 . S
C1714 C699 1.413 . S
C1741 C743 1.507 . S
C1729 C289 1.644 . S
C1768 C737 1.469 . S
C1756 C469 1.477 . S
C1795 C741 1.484 . S
C1783 C529 1.500 . S
C1810 C541 1.503 . S
C1822 C738 1.502 . S
C1837 C391 1.516 . S
C1849 C654 1.510 . S
C1876 C653 1.458 . S
C1864 C211 1.477 . S
C1903 C673 1.332 . S
C1891 C241 1.393 . S
C1930 C687 1.507 . S
C1918 C277 1.624 . S
C1945 C499 1.555 . S
C1957 C612 1.546 . S
C1984 C601 1.507 . S
C1972 C37 1.505 . S
C1999 C97 1.489 . S
C2011 C611 1.486 . S
C2038 C587 1.431 . S
C2026 C25 1.434 . S
