# Generated by pormake.
# Topology anh, (6,3)-cn, num edge types: 1
# Building blocks:
#     Node 0, Type 0, BuildingBlock: BETDAH_clean_sbu_0, # of connection points: 6
#     Node 1, Type 0, BuildingBlock: BETDAH_clean_sbu_0, # of connection points: 6
#     Node 2, Type 0, BuildingBlock: BETDAH_clean_sbu_0, # of connection points: 6
#     Node 3, Type 1, BuildingBlock: BETDIP_clean_linker_0, # of connection points: 3
#     Node 4, Type 1, BuildingBlock: BETDIP_clean_linker_0, # of connection points: 3
#     Node 5, Type 1, BuildingBlock: BETDIP_clean_linker_0, # of connection points: 3
#     Node 6, Type 1, BuildingBlock: BETDIP_clean_linker_0, # of connection points: 3
#     Node 7, Type 1, BuildingBlock: BETDIP_clean_linker_0, # of connection points: 3
#     Node 8, Type 1, BuildingBlock: BETDIP_clean_linker_0, # of connection points: 3
#     Edge 9, Type (0, 1), BuildingBlock: CIFDUS_clean_linker_0, # of connection points: 2
#     Edge 10, Type (0, 1), BuildingBlock: CIFDUS_clean_linker_0, # of connection points: 2
#     Edge 11, Type (0, 1), BuildingBlock: CIFDUS_clean_linker_0, # of connection points: 2
#     Edge 12, Type (0, 1), BuildingBlock: CIFDUS_clean_linker_0, # of connection points: 2
#     Edge 13, Type (0, 1), BuildingBlock: CIFDUS_clean_linker_0, # of connection points: 2
#     Edge 14, Type (0, 1), BuildingBlock: CIFDUS_clean_linker_0, # of connection points: 2
#     Edge 15, Type (0, 1), BuildingBlock: CIFDUS_clean_linker_0, # of connection points: 2
#     Edge 16, Type (0, 1), BuildingBlock: CIFDUS_clean_linker_0, # of connection points: 2
#     Edge 17, Type (0, 1), BuildingBlock: CIFDUS_clean_linker_0, # of connection points: 2
#     Edge 18, Type (0, 1), BuildingBlock: CIFDUS_clean_linker_0, # of connection points: 2
#     Edge 19, Type (0, 1), BuildingBlock: CIFDUS_clean_linker_0, # of connection points: 2
#     Edge 20, Type (0, 1), BuildingBlock: CIFDUS_clean_linker_0, # of connection points: 2
#     Edge 21, Type (0, 1), BuildingBlock: CIFDUS_clean_linker_0, # of connection points: 2
#     Edge 22, Type (0, 1), BuildingBlock: CIFDUS_clean_linker_0, # of connection points: 2
#     Edge 23, Type (0, 1), BuildingBlock: CIFDUS_clean_linker_0, # of connection points: 2
#     Edge 24, Type (0, 1), BuildingBlock: CIFDUS_clean_linker_0, # of connection points: 2
#     Edge 25, Type (0, 1), BuildingBlock: CIFDUS_clean_linker_0, # of connection points: 2
#     Edge 26, Type (0, 1), BuildingBlock: CIFDUS_clean_linker_0, # of connection points: 2
# Relax obj value: 0.181
# Max RMSD: 0.193
# Mean RMSD: 0.130
data_MOF--net-anh--node1-BETDAH_clean_sbu_0--node2-BETDIP_clean_linker_0--edge1-CIFDUS_clean_linker_0
_symmetry_space_group_name_H-M    P1
_symmetry_Int_Tables_number       1
_symmetry_cell_setting            triclinic
loop_
_symmetry_equiv_pos_as_xyz
'x, y, z'
_cell_length_a     28.733244
_cell_length_b     34.200086
_cell_length_c     43.40032
_cell_angle_alpha  95.537825
_cell_angle_beta   88.648068
_cell_angle_gamma 131.17234
loop_
_atom_site_label
_atom_site_type_symbol
_atom_site_fract_x
_atom_site_fract_y
_atom_site_fract_z
_atom_type_partial_charge
Ho0 Ho 0.16124 0.60013 0.1392 0.0
Ho1 Ho 0.09036 0.6331 0.15964 0.0
C2 C 0.23619 0.72612 0.15119 0.0
C3 C 0.23278 0.58721 0.11333 0.0
C4 C 0.25093 0.55619 0.11414 0.0
C5 C 0.29941 0.56924 0.09605 0.0
C6 C 0.32493 0.5466 0.09953 0.0
C7 C 0.30222 0.51038 0.12115 0.0
C8 C 0.25155 0.49533 0.1383 0.0
C9 C 0.22625 0.51853 0.13499 0.0
C10 C 0.13765 0.59414 0.2 0.0
C11 C 1.01625 0.50907 0.14856 0.0
C12 C 1.02935 0.65555 0.18707 0.0
C13 C 0.96119 0.62006 0.1882 0.0
C14 C 0.92834 0.57168 0.20016 0.0
C15 C 0.86465 0.53246 0.19422 0.0
C16 C 0.83232 0.54071 0.17638 0.0
C17 C 0.86388 0.59035 0.16668 0.0
C18 C 0.92801 0.62976 0.17249 0.0
C19 C 0.07659 0.60183 0.09806 0.0
O20 O 0.23703 0.68847 0.14195 0.0
O21 O 0.18415 0.71495 0.15936 0.0
O22 O 0.17721 0.56377 0.10188 0.0
O23 O 0.24888 0.61909 0.13824 0.0
O24 O 0.13859 0.56154 0.18289 0.0
O25 O 0.15369 0.63025 0.18449 0.0
O26 O 1.02051 0.54613 0.16509 0.0
O27 O 1.06309 0.5216 0.13204 0.0
O28 O 1.05102 0.66965 0.15963 0.0
O29 O 1.05603 0.64262 0.20186 0.0
O30 O 1.03315 0.59354 0.11441 0.0
O31 O 0.12613 0.62949 0.11461 0.0
H32 H 0.3191 0.59844 0.07998 0.0
H33 H 0.36334 0.55817 0.0857 0.0
H34 H 0.23331 0.46736 0.15503 0.0
H35 H 0.18906 0.5085 0.14933 0.0
H36 H 0.95211 0.56266 0.21245 0.0
H37 H 0.84104 0.49475 0.20237 0.0
H38 H 0.83974 0.59756 0.15288 0.0
H39 H 0.95217 0.66657 0.16298 0.0
Ho40 Ho 0.62939 0.04771 0.46962 0.0
Ho41 Ho 0.5473 0.07165 0.46133 0.0
C42 C 0.47875 0.95156 0.45747 0.0
C43 C 0.68019 0.01288 0.48816 0.0
C44 C 0.66362 0.96237 0.49127 0.0
C45 C 0.67998 0.95524 0.51903 0.0
C46 C 0.66861 0.90927 0.52202 0.0
C47 C 0.64097 0.86938 0.49719 0.0
C48 C 0.6233 0.87617 0.46958 0.0
C49 C 0.63437 0.9221 0.46667 0.0
C50 C 0.61241 0.05639 0.41055 0.0
C51 C 0.69859 0.1675 0.46552 0.0
C52 C 0.49631 0.10833 0.44695 0.0
C53 C 0.50668 0.15617 0.45701 0.0
C54 C 0.45572 0.15314 0.46003 0.0
C55 C 0.46396 0.19694 0.47204 0.0
C56 C 0.52349 0.24478 0.48109 0.0
C57 C 0.5747 0.24812 0.47721 0.0
C58 C 0.56633 0.20411 0.46553 0.0
C59 C 0.56209 0.0617 0.52046 0.0
O60 O 0.53116 0.96726 0.47006 0.0
O61 O 0.47737 0.98572 0.44674 0.0
O62 O 0.68325 0.02494 0.46008 0.0
O63 O 0.65455 0.02556 0.5068 0.0
O64 O 0.66409 0.07196 0.42205 0.0
O65 O 0.57151 0.03416 0.43016 0.0
O66 O 0.6427 0.1495 0.45797 0.0
O67 O 0.70619 0.13624 0.4751 0.0
O68 O 0.47595 0.07615 0.46794 0.0
O69 O 0.53921 0.11388 0.431 0.0
O70 O 0.5116 0.04673 0.50797 0.0
O71 O 0.6047 0.08495 0.50158 0.0
H72 H 0.70232 0.98562 0.53836 0.0
H73 H 0.68161 0.90508 0.54387 0.0
H74 H 0.60234 0.84659 0.44988 0.0
H75 H 0.621 0.92642 0.44499 0.0
H76 H 0.4093 0.11651 0.45374 0.0
H77 H 0.42365 0.19323 0.47461 0.0
H78 H 0.62102 0.2842 0.48437 0.0
H79 H 0.6063 0.20729 0.46392 0.0
Ho80 Ho 0.64357 0.57841 0.85402 0.0
Ho81 Ho 0.55224 0.46314 0.84006 0.0
C82 C 0.48953 0.51831 0.84833 0.0
C83 C 0.70623 0.67676 0.84915 0.0
C84 C 0.69194 0.70747 0.83779 0.0
C85 C 0.63809 0.68291 0.81915 0.0
C86 C 0.6272 0.71252 0.80644 0.0
C87 C 0.67013 0.76751 0.81186 0.0
C88 C 0.72323 0.79184 0.83129 0.0
C89 C 0.734 0.76208 0.84408 0.0
C90 C 0.60459 0.5249 0.90374 0.0
C91 C 0.70793 0.5253 0.84944 0.0
C92 C 0.49026 0.36394 0.84051 0.0
C93 C 0.50083 0.32741 0.83241 0.0
C94 C 0.44996 0.27448 0.82386 0.0
C95 C 0.45871 0.23963 0.81397 0.0
C96 C 0.51871 0.257 0.81227 0.0
C97 C 0.56964 0.30988 0.82179 0.0
C98 C 0.56077 0.34473 0.83172 0.0
C99 C 0.58525 0.51493 0.79012 0.0
O100 O 0.54983 0.56209 0.84859 0.0
O101 O 0.47777 0.4729 0.84761 0.0
O102 O 0.68131 0.65528 0.87472 0.0
O103 O 0.7031 0.64503 0.82802 0.0
O104 O 0.6616 0.5678 0.9018 0.0
O105 O 0.57199 0.51503 0.88043 0.0
O106 O 0.64826 0.48038 0.84357 0.0
O107 O 0.71777 0.56973 0.85406 0.0
O108 O 0.48747 0.38413 0.81732 0.0
O109 O 0.52193 0.39828 0.86474 0.0
O110 O 0.52974 0.47192 0.79369 0.0
O111 O 0.62164 0.52638 0.81212 0.0
H112 H 0.60503 0.64085 0.81382 0.0
H113 H 0.58531 0.69225 0.79205 0.0
H114 H 0.75761 0.83401 0.83577 0.0
H115 H 0.77601 0.78187 0.85828 0.0
H116 H 0.4033 0.2602 0.82432 0.0
H117 H 0.41835 0.19908 0.80732 0.0
H118 H 0.61649 0.32479 0.82054 0.0
H119 H 0.60084 0.38531 0.83826 0.0
H120 H 0.56445 0.07821 0.14345 0.0
H121 H 0.68034 0.16589 0.22738 0.0
H122 H 0.5216 1.0027 0.22656 0.0
H123 H 0.67368 0.22587 0.20552 0.0
C124 C 0.69548 0.22587 0.18469 0.0
C125 C 0.57516 0.07997 0.16757 0.0
C126 C 0.5362 0.03396 0.18317 0.0
C127 C 0.62779 0.12843 0.18351 0.0
C128 C 0.64044 0.1296 0.21492 0.0
C129 C 0.60215 0.08468 0.23059 0.0
C130 C 0.55085 0.03744 0.21449 0.0
N131 N 0.66805 0.17575 0.16842 0.0
H132 H 0.63382 0.55637 0.52432 0.0
H133 H 0.67502 0.63246 0.61701 0.0
H134 H 0.62686 0.48334 0.60198 0.0
H135 H 0.59952 0.60448 0.51983 0.0
C136 C 0.63696 0.64161 0.53284 0.0
C137 C 0.63839 0.55663 0.54905 0.0
C138 C 0.62826 0.51458 0.56067 0.0
C139 C 0.65492 0.59909 0.56955 0.0
C140 C 0.66193 0.59953 0.60141 0.0
C141 C 0.65139 0.55779 0.61334 0.0
C142 C 0.63493 0.51566 0.59283 0.0
N143 N 0.66656 0.64284 0.55916 0.0
H144 H 1.03302 0.49962 0.82501 0.0
H145 H 0.14238 0.54161 0.90895 0.0
H146 H 0.98949 0.53715 0.91295 0.0
H147 H 0.22295 0.56636 0.8784 0.0
C148 C 0.19927 0.53202 0.86166 0.0
C149 C 1.04309 0.51196 0.84962 0.0
C150 C 1.00434 0.52105 0.86671 0.0
C151 C 0.09589 0.52008 0.86473 0.0
C152 C 0.1053 0.53537 0.89674 0.0
C153 C 0.06694 0.54061 0.91396 0.0
C154 C 1.01887 0.53424 0.89886 0.0
N155 N 0.13626 0.51032 0.84983 0.0
H156 H 0.16783 0.60117 0.47307 0.0
H157 H 1.06376 0.50266 0.38877 0.0
H158 H 0.21162 0.66784 0.38663 0.0
H159 H 0.98433 0.47666 0.42617 0.0
C160 C 1.00196 0.46497 0.44135 0.0
C161 C 0.15948 0.5965 0.44824 0.0
C162 C 0.19681 0.64074 0.43137 0.0
C163 C 0.10908 0.54666 0.43304 0.0
C164 C 0.09977 0.5412 0.40062 0.0
C165 C 0.13673 0.58444 0.38344 0.0
C166 C 0.18403 0.63384 0.39931 0.0
N167 N 0.06691 0.50223 0.45 0.0
H168 H 0.63083 0.0674 0.78818 0.0
H169 H 0.65544 0.01762 0.69875 0.0
H170 H 0.61442 0.1179 0.70519 0.0
H171 H 0.62368 0.94903 0.72268 0.0
C172 C 0.64224 0.96377 0.74649 0.0
C173 C 0.63263 0.06804 0.76325 0.0
C174 C 0.62095 0.09627 0.74889 0.0
C175 C 0.64373 0.03842 0.74547 0.0
C176 C 0.64587 0.03919 0.71293 0.0
C177 C 0.63442 0.0673 0.69839 0.0
C178 C 0.62242 0.09573 0.71652 0.0
N179 N 0.65158 1.00791 0.76095 0.0
H180 H 0.3982 0.30812 0.12416 0.0
H181 H 0.52562 0.33368 0.05635 0.0
H182 H 0.47457 0.42716 0.06306 0.0
H183 H 0.49354 0.23823 0.10117 0.0
C184 C 0.50561 0.27588 0.10491 0.0
C185 C 0.42812 0.32946 0.10561 0.0
C186 C 0.43397 0.37032 0.09589 0.0
C187 C 0.46261 0.31724 0.09218 0.0
C188 C 0.50093 0.34443 0.06772 0.0
C189 C 0.50444 0.38365 0.05697 0.0
C190 C 0.47198 0.39697 0.07156 0.0
N191 N 0.45679 0.27654 0.10323 0.0
H192 H 0.25069 0.40889 0.11889 0.0
H193 H 0.42437 0.56759 0.134 0.0
H194 H 0.48055 0.53674 0.13281 0.0
H195 H 0.48113 0.46606 0.11973 0.0
H196 H 0.30907 0.30736 0.10174 0.0
H197 H 0.25104 0.33625 0.11265 0.0
C198 C 0.30067 0.43641 0.12264 0.0
C199 C 0.33364 0.49034 0.126 0.0
C200 C 0.33282 0.41838 0.12123 0.0
C201 C 0.39835 0.52589 0.13085 0.0
C202 C 0.43043 0.50832 0.1302 0.0
C203 C 0.43089 0.43778 0.1189 0.0
C204 C 0.39918 0.38495 0.10965 0.0
C205 C 0.39831 0.45488 0.12421 0.0
C206 C 0.33423 0.3483 0.10888 0.0
C207 C 0.30118 0.3649 0.11481 0.0
H208 H 0.82575 0.23345 0.48383 0.0
H209 H 0.69299 0.22938 0.43481 0.0
H210 H 0.77324 0.31874 0.42484 0.0
H211 H 0.88047 0.39859 0.42827 0.0
H212 H 1.01868 0.40899 0.47567 0.0
H213 H 0.93805 0.31794 0.48785 0.0
C214 C 0.81447 0.2522 0.47108 0.0
C215 C 0.75213 0.22371 0.46062 0.0
C216 C 0.86216 0.30525 0.46494 0.0
C217 C 0.73934 0.24938 0.44391 0.0
C218 C 0.78564 0.301 0.43788 0.0
C219 C 0.89323 0.38119 0.44144 0.0
C220 C 0.95564 0.41084 0.45104 0.0
C221 C 0.84698 0.32927 0.44816 0.0
C222 C 0.97103 0.38733 0.46803 0.0
C223 C 0.92475 0.33507 0.47491 0.0
H224 H 0.69348 0.8571 0.8352 0.0
H225 H 0.62684 0.74959 0.75224 0.0
H226 H 0.61197 0.80024 0.72541 0.0
H227 H 0.61883 0.87558 0.72486 0.0
H228 H 0.68628 0.98429 0.80704 0.0
H229 H 0.70056 0.93326 0.83455 0.0
C230 C 0.67604 0.8449 0.8112 0.0
C231 C 0.66094 0.79913 0.79596 0.0
C232 C 0.66792 0.87461 0.79565 0.0
C233 C 0.63779 0.78387 0.76489 0.0
C234 C 0.62969 0.81311 0.74936 0.0
C235 C 0.63667 0.88809 0.74882 0.0
C236 C 0.65145 0.93365 0.76383 0.0
C237 C 0.64461 0.85851 0.76446 0.0
C238 C 0.67447 0.94938 0.79488 0.0
C239 C 0.68265 0.92016 0.81064 0.0
H240 H 0.78869 0.44826 0.14729 0.0
H241 H 0.73199 0.53379 0.17996 0.0
H242 H 0.62504 0.459 0.16113 0.0
H243 H 0.54835 0.36908 0.13678 0.0
H244 H 0.60641 0.28559 0.10104 0.0
H245 H 0.71249 0.3595 0.12091 0.0
C246 C 0.75269 0.45026 0.15047 0.0
C247 C 0.76763 0.49598 0.16526 0.0
C248 C 0.69196 0.40764 0.13922 0.0
C249 C 0.72121 0.4988 0.16868 0.0
C250 C 0.66027 0.45611 0.15798 0.0
C251 C 0.58418 0.36736 0.13232 0.0
C252 C 0.56971 0.32229 0.1165 0.0
C253 C 0.64518 0.41038 0.14319 0.0
C254 C 0.61666 0.32015 0.11274 0.0
C255 C 0.67722 0.36232 0.12407 0.0
H256 H 0.45719 0.86426 0.47454 0.0
H257 H 0.367 0.9106 0.43282 0.0
H258 H 0.27136 0.82042 0.42514 0.0
H259 H 0.21349 0.72756 0.42686 0.0
H260 H 0.29993 0.67711 0.46649 0.0
H261 H 0.39519 0.76882 0.47913 0.0
C262 C 0.41657 0.85463 0.46388 0.0
C263 C 0.42037 0.89498 0.45406 0.0
C264 C 0.36034 0.8016 0.45935 0.0
C265 C 0.36659 0.88116 0.44047 0.0
C266 C 0.31128 0.82924 0.43609 0.0
C267 C 0.25283 0.73659 0.43877 0.0
C268 C 0.24931 0.6953 0.44572 0.0
C269 C 0.30771 0.78912 0.44506 0.0
C270 C 0.30085 0.70791 0.46119 0.0
C271 C 0.3557 0.76048 0.46804 0.0
H272 H 0.60178 0.24824 0.83167 0.0
H273 H 0.45676 0.1845 0.76189 0.0
H274 H 0.4726 0.12697 0.73794 0.0
H275 H 0.52992 0.09703 0.73516 0.0
H276 H 0.67744 0.16149 0.80324 0.0
H277 H 0.6578 0.21577 0.82968 0.0
C278 C 0.57374 0.22182 0.8112 0.0
C279 C 0.52793 0.22078 0.79874 0.0
C280 C 0.58343 0.18883 0.79723 0.0
C281 C 0.49161 0.18574 0.77237 0.0
C282 C 0.5009 0.15297 0.75847 0.0
C283 C 0.55796 0.12304 0.75576 0.0
C284 C 0.6056 0.1256 0.76697 0.0
C285 C 0.54697 0.15451 0.7705 0.0
C286 C 0.64038 0.15859 0.79415 0.0
C287 C 0.62943 0.18993 0.80913 0.0
H288 H 0.71869 0.86279 0.52596 0.0
H289 H 0.54263 0.76788 0.47446 0.0
H290 H 0.52788 0.68977 0.47917 0.0
H291 H 0.56341 0.64767 0.49957 0.0
H292 H 0.73683 0.74283 0.55337 0.0
H293 H 0.75374 0.82123 0.54638 0.0
C294 C 0.67667 0.82502 0.51604 0.0
C295 C 0.63181 0.82151 0.49997 0.0
C296 C 0.66793 0.7801 0.51928 0.0
C297 C 0.57838 0.77211 0.48667 0.0
C298 C 0.56968 0.72725 0.4895 0.0
C299 C 0.60502 0.68568 0.50956 0.0
C300 C 0.64863 0.68939 0.52703 0.0
C301 C 0.61401 0.73071 0.50589 0.0
C302 C 0.70228 0.7388 0.54 0.0
C303 C 0.71203 0.78372 0.536 0.0
H304 H 0.73446 0.45594 0.82594 0.0
H305 H 0.82103 0.60267 0.88098 0.0
H306 H 0.91355 0.61486 0.88925 0.0
H307 H 0.97481 0.58601 0.88295 0.0
H308 H 0.8955 0.44263 0.82631 0.0
H309 H 0.80103 0.42901 0.8169 0.0
C310 C 0.77314 0.49092 0.83984 0.0
C311 C 0.76645 0.52814 0.85283 0.0
C312 C 0.83039 0.49909 0.84429 0.0
C313 C 0.82069 0.57255 0.87028 0.0
C314 C 0.87528 0.57983 0.87517 0.0
C315 C 0.93774 0.55162 0.86804 0.0
C316 C 0.94677 0.51604 0.85535 0.0
C317 C 0.8816 0.54377 0.86248 0.0
C318 C 0.89452 0.47227 0.8364 0.0
C319 C 0.83869 0.46403 0.8312 0.0
H320 H 0.26023 0.81978 0.15002 0.0
H321 H 0.35108 0.75906 0.15916 0.0
H322 H 0.45109 0.84742 0.16652 0.0
H323 H 0.51377 0.94278 0.17386 0.0
H324 H 0.42682 1.00599 0.163 0.0
H325 H 0.32588 0.9171 0.15228 0.0
C326 C 0.30192 0.82587 0.15345 0.0
C327 C 0.29714 0.78193 0.15417 0.0
C328 C 0.36071 0.87774 0.15713 0.0
C329 C 0.3524 0.79133 0.15837 0.0
C330 C 0.4101 0.84221 0.16265 0.0
C331 C 0.47301 0.93717 0.16824 0.0
C332 C 0.4785 0.98145 0.16874 0.0
C333 C 0.41497 0.88578 0.16236 0.0
C334 C 0.42463 0.97304 0.16207 0.0
C335 C 0.36656 0.92196 0.15637 0.0
H336 H 0.60792 0.34721 0.46968 0.0
H337 H 0.45753 0.24342 0.52762 0.0
H338 H 0.47401 0.31721 0.55589 0.0
H339 H 0.53466 0.41166 0.56618 0.0
H340 H 0.68471 0.51632 0.50849 0.0
H341 H 0.66448 0.44195 0.47784 0.0
C342 C 0.57871 0.34086 0.48843 0.0
C343 C 0.53166 0.28987 0.49658 0.0
C344 C 0.58835 0.38362 0.50461 0.0
C345 C 0.49367 0.28214 0.5207 0.0
C346 C 0.50326 0.32436 0.53699 0.0
C347 C 0.56268 0.4181 0.54677 0.0
C348 C 0.61142 0.46939 0.53975 0.0
C349 C 0.55091 0.37529 0.52942 0.0
C350 C 0.64676 0.47718 0.51425 0.0
C351 C 0.63548 0.4347 0.49689 0.0
H352 H 0.35171 0.44562 0.83314 0.0
H353 H 0.5045 0.60497 0.86937 0.0
H354 H 0.43436 0.62166 0.87559 0.0
H355 H 0.3286 0.59406 0.87241 0.0
H356 H 0.17366 0.43799 0.83351 0.0
H357 H 0.24297 0.41887 0.82701 0.0
C358 C 0.37058 0.4843 0.8425 0.0
C359 C 0.43721 0.52363 0.85094 0.0
C360 C 0.32797 0.49499 0.8456 0.0
C361 C 0.45616 0.57286 0.86249 0.0
C362 C 0.41492 0.58282 0.86617 0.0
C363 C 0.30889 0.55555 0.86206 0.0
C364 C 0.24287 0.51825 0.8534 0.0
C365 C 0.35051 0.54465 0.85796 0.0
C366 C 0.22225 0.46895 0.84036 0.0
C367 C 0.26303 0.45773 0.83677 0.0
H368 H 0.90496 0.46872 0.1731 0.0
H369 H 0.99657 0.42038 0.12658 0.0
H370 H 0.90521 0.32866 0.13076 0.0
H371 H 0.79935 0.26081 0.15054 0.0
H372 H 0.71088 0.312 0.19736 0.0
H373 H 0.79915 0.40225 0.18976 0.0
C374 C 0.90515 0.43829 0.16371 0.0
C375 C 0.9586 0.45233 0.14968 0.0
C376 C 0.85207 0.38523 0.16615 0.0
C377 C 0.95675 0.4115 0.13754 0.0
C378 C 0.90417 0.35866 0.13996 0.0
C379 C 0.79894 0.29161 0.15847 0.0
C380 C 0.74763 0.27896 0.1744 0.0
C381 C 0.85143 0.34475 0.15451 0.0
C382 C 0.74911 0.32005 0.18496 0.0
C383 C 0.80001 0.37207 0.18076 0.0
H384 H 0.10503 0.55376 0.05961 0.0
H385 H 1.0405 0.63717 0.06023 0.0
H386 H 1.03588 0.62903 0.00341 0.0
H387 H 1.05006 0.59796 0.95372 0.0
H388 H 0.10113 0.50393 0.95349 0.0
H389 H 0.1133 0.5181 0.00971 0.0
C390 C 0.09046 0.57041 0.04721 0.0
C391 C 0.0738 0.59649 0.06387 0.0
C392 C 0.08607 0.5641 0.01456 0.0
C393 C 1.05359 0.61697 0.04772 0.0
C394 C 1.05107 0.61239 0.01528 0.0
C395 C 1.06299 0.57979 0.96577 0.0
C396 C 0.07522 0.5503 0.94877 0.0
C397 C 0.06695 0.5858 -0.00157 0.0
C398 C 0.0931 0.52817 0.96539 0.0
C399 C 0.09935 0.53564 -0.00222 0.0
H400 H 0.6964 0.10363 0.36624 0.0
H401 H 0.5031 0.0157 0.38228 0.0
H402 H 0.48323 0.01779 0.32827 0.0
H403 H 0.52032 0.04309 0.27623 0.0
H404 H 0.71349 0.13095 0.2599 0.0
H405 H 0.73409 0.13107 0.31432 0.0
C406 C 0.64998 0.08501 0.35787 0.0
C407 C 0.60119 0.05921 0.37811 0.0
C408 C 0.63893 0.08648 0.32677 0.0
C409 C 0.54136 0.03559 0.36709 0.0
C410 C 0.52997 0.03678 0.33621 0.0
C411 C 0.56689 0.06206 0.28456 0.0
C412 C 0.61523 0.08671 0.26397 0.0
C413 C 0.5783 0.06177 0.3158 0.0
C414 C 0.67554 0.112 0.27528 0.0
C415 C 0.68727 0.11183 0.30635 0.0
H416 H 0.66623 0.5228 0.75183 0.0
H417 H 0.54237 0.55277 0.7615 0.0
H418 H 0.55729 0.57443 0.70797 0.0
H419 H 0.59629 0.57514 0.65694 0.0
H420 H 0.71254 0.53726 0.64559 0.0
H421 H 0.70989 0.52805 0.70104 0.0
C422 C 0.64395 0.5354 0.74229 0.0
C423 C 0.60397 0.53699 0.76035 0.0
C424 C 0.65052 0.54535 0.71107 0.0
C425 C 0.57378 0.55188 0.74783 0.0
C426 C 0.58199 0.56389 0.71725 0.0
C427 C 0.62192 0.5658 0.66676 0.0
C428 C 0.6545 0.55683 0.6473 0.0
C429 C 0.61884 0.55931 0.69841 0.0
C430 C 0.68675 0.54392 0.66016 0.0
C431 C 0.68535 0.53879 0.69183 0.0
H432 H 0.66143 0.08717 0.55381 0.0
H433 H 0.47621 0.0303 0.56224 0.0
H434 H 0.48175 0.02532 0.61719 0.0
H435 H 0.53867 0.03838 0.66334 0.0
H436 H 0.72187 0.09148 0.65688 0.0
H437 H 0.71727 0.09541 0.60079 0.0
C438 C 0.62234 0.07343 0.56771 0.0
C439 C 0.5686 0.05934 0.55385 0.0
C440 C 0.62524 0.06963 0.59965 0.0
C441 C 0.51826 0.04159 0.5722 0.0
C442 C 0.52121 0.03859 0.60372 0.0
C443 C 0.5775 0.05061 0.64959 0.0
C444 C 0.63064 0.06501 0.66411 0.0
C445 C 0.57437 0.05266 0.61769 0.0
C446 C 0.68038 0.0801 0.64607 0.0
C447 C 0.67785 0.08266 0.6141 0.0
H448 H 0.66714 0.53129 0.9537 0.0
H449 H 0.48436 0.44339 0.91102 0.0
H450 H 0.43849 0.388 0.95293 0.0
H451 H 0.44875 0.3679 0.0033 0.0
H452 H 0.62898 0.45476 0.04797 0.0
H453 H 0.67775 0.50651 0.00361 0.0
C454 C 0.61738 0.49991 0.95368 0.0
C455 C 0.57917 0.49176 0.92946 0.0
C456 C 0.59093 0.46781 0.97806 0.0
C457 C 0.51479 0.45069 0.92946 0.0
C458 C 0.4884 0.41884 0.95339 0.0
C459 C 0.49881 0.39748 0.00291 0.0
C460 C 0.53548 0.40756 0.02847 0.0
C461 C 0.52585 0.42742 0.97792 0.0
C462 C 0.60016 0.44612 0.02818 0.0
C463 C 0.62781 0.47596 0.00302 0.0
H464 H 1.05055 0.5346 0.24075 0.0
H465 H 0.24409 0.6675 0.23441 0.0
H466 H 0.2616 0.6745 0.29039 0.0
H467 H 0.22258 0.64096 0.34032 0.0
H468 H 1.02631 0.51478 0.34829 0.0
H469 H 1.00955 0.50579 0.29236 0.0
C470 C 0.09628 0.56528 0.25187 0.0
C471 C 0.14607 0.60061 0.23387 0.0
C472 C 0.10564 0.56968 0.28414 0.0
C473 C 0.20522 0.64027 0.24812 0.0
C474 C 0.21521 0.64404 0.28 0.0
C475 C 0.17572 0.61218 0.33022 0.0
C476 C 0.12597 0.57865 0.34902 0.0
C477 C 0.1658 0.60879 0.2982 0.0
C478 C 0.06604 0.54056 0.33472 0.0
C479 C 1.05614 0.53571 0.30263 0.0
loop_
_geom_bond_atom_site_label_1
_geom_bond_atom_site_label_2
_geom_bond_distance
_geom_bond_site_symmetry_2
_ccdc_geom_bond_type
Ho0 C3 2.811 . S
Ho0 O20 2.322 . S
Ho0 O22 2.378 . S
Ho0 O23 2.524 . S
Ho0 O24 2.381 . S
Ho0 O25 2.669 . S
Ho0 O27 2.349 . S
Ho0 O31 2.305 . S
Ho1 C12 2.811 1_455 S
Ho1 O21 2.346 . S
Ho1 O25 2.305 . S
Ho1 O26 2.322 1_455 S
Ho1 O28 2.378 1_455 S
Ho1 O29 2.524 1_455 S
Ho1 O30 2.381 . S
Ho1 O31 2.669 . S
C2 O20 1.259 . S
C2 O21 1.268 . S
C3 Ho0 2.811 . S
C3 C4 1.488 . S
C3 O22 1.215 . S
C3 O23 1.289 . S
C4 C3 1.488 . S
C4 C5 1.348 . S
C4 C9 1.413 . S
C5 C4 1.348 . S
C5 C6 1.442 . S
C5 H32 0.930 . S
C6 C5 1.442 . S
C6 C7 1.381 . S
C6 H33 0.931 . S
C7 C6 1.381 . S
C7 C8 1.321 . S
C8 C7 1.321 . S
C8 C9 1.403 . S
C8 H34 0.934 . S
C9 C4 1.413 . S
C9 C8 1.403 . S
C9 H35 0.930 . S
C10 O24 1.275 . S
C10 O25 1.256 . S
C11 O26 1.259 . S
C11 O27 1.263 1_655 S
C12 Ho1 2.811 1_655 S
C12 C13 1.488 . S
C12 O28 1.215 . S
C12 O29 1.289 . S
C13 C12 1.488 . S
C13 C14 1.348 . S
C13 C18 1.413 . S
C14 C13 1.348 . S
C14 C15 1.442 . S
C14 H36 0.930 . S
C15 C14 1.442 . S
C15 C16 1.381 . S
C15 H37 0.931 . S
C16 C15 1.381 . S
C16 C17 1.321 . S
C17 C16 1.321 . S
C17 C18 1.403 . S
C17 H38 0.934 . S
C18 C13 1.413 . S
C18 C17 1.403 . S
C18 H39 0.930 . S
C19 O30 1.275 . S
C19 O31 1.256 . S
O20 Ho0 2.322 . S
O20 C2 1.259 . S
O21 Ho1 2.346 . S
O21 C2 1.268 . S
O22 Ho0 2.378 . S
O22 C3 1.215 . S
O23 Ho0 2.524 . S
O23 C3 1.289 . S
O24 Ho0 2.381 . S
O24 C10 1.275 . S
O25 Ho0 2.669 . S
O25 Ho1 2.305 . S
O25 C10 1.256 . S
O26 Ho1 2.322 1_655 S
O26 C11 1.259 . S
O27 Ho0 2.349 . S
O27 C11 1.263 1_455 S
O28 Ho1 2.378 1_655 S
O28 C12 1.215 . S
O29 Ho1 2.524 1_655 S
O29 C12 1.289 . S
O30 Ho1 2.381 . S
O30 C19 1.275 . S
O31 Ho0 2.305 . S
O31 Ho1 2.669 . S
O31 C19 1.256 . S
H32 C5 0.930 . S
H33 C6 0.931 . S
H34 C8 0.934 . S
H35 C9 0.930 . S
H36 C14 0.930 . S
H37 C15 0.931 . S
H38 C17 0.934 . S
H39 C18 0.930 . S
Ho40 C43 2.811 1_545 S
Ho40 O60 2.322 1_545 S
Ho40 O62 2.378 1_545 S
Ho40 O63 2.524 1_545 S
Ho40 O64 2.381 . S
Ho40 O65 2.669 . S
Ho40 O67 2.346 . S
Ho40 O71 2.305 . S
Ho41 C52 2.811 . S
Ho41 O61 2.346 1_545 S
Ho41 O65 2.305 . S
Ho41 O66 2.322 . S
Ho41 O68 2.378 . S
Ho41 O69 2.524 . S
Ho41 O70 2.381 . S
Ho41 O71 2.669 . S
C42 O60 1.259 . S
C42 O61 1.268 . S
C43 Ho40 2.811 1_565 S
C43 C44 1.488 . S
C43 O62 1.215 . S
C43 O63 1.289 . S
C44 C43 1.488 . S
C44 C45 1.348 . S
C44 C49 1.413 . S
C45 C44 1.348 . S
C45 C46 1.442 . S
C45 H72 0.930 . S
C46 C45 1.442 . S
C46 C47 1.381 . S
C46 H73 0.931 . S
C47 C46 1.381 . S
C47 C48 1.321 . S
C48 C47 1.321 . S
C48 C49 1.403 . S
C48 H74 0.934 . S
C49 C44 1.413 . S
C49 C48 1.403 . S
C49 H75 0.930 . S
C50 O64 1.275 . S
C50 O65 1.256 . S
C51 O66 1.259 . S
C51 O67 1.268 . S
C52 Ho41 2.811 . S
C52 C53 1.488 . S
C52 O68 1.215 . S
C52 O69 1.289 . S
C53 C52 1.488 . S
C53 C54 1.348 . S
C53 C58 1.413 . S
C54 C53 1.348 . S
C54 C55 1.442 . S
C54 H76 0.930 . S
C55 C54 1.442 . S
C55 C56 1.381 . S
C55 H77 0.931 . S
C56 C55 1.381 . S
C56 C57 1.321 . S
C57 C56 1.321 . S
C57 C58 1.403 . S
C57 H78 0.934 . S
C58 C53 1.413 . S
C58 C57 1.403 . S
C58 H79 0.930 . S
C59 O70 1.275 . S
C59 O71 1.256 . S
O60 Ho40 2.322 1_565 S
O60 C42 1.259 . S
O61 Ho41 2.346 1_565 S
O61 C42 1.268 . S
O62 Ho40 2.378 1_565 S
O62 C43 1.215 . S
O63 Ho40 2.524 1_565 S
O63 C43 1.289 . S
O64 Ho40 2.381 . S
O64 C50 1.275 . S
O65 Ho40 2.669 . S
O65 Ho41 2.305 . S
O65 C50 1.256 . S
O66 Ho41 2.322 . S
O66 C51 1.259 . S
O67 Ho40 2.346 . S
O67 C51 1.268 . S
O68 Ho41 2.378 . S
O68 C52 1.215 . S
O69 Ho41 2.524 . S
O69 C52 1.289 . S
O70 Ho41 2.381 . S
O70 C59 1.275 . S
O71 Ho40 2.305 . S
O71 Ho41 2.669 . S
O71 C59 1.256 . S
H72 C45 0.930 . S
H73 C46 0.931 . S
H74 C48 0.934 . S
H75 C49 0.930 . S
H76 C54 0.930 . S
H77 C55 0.931 . S
H78 C57 0.934 . S
H79 C58 0.930 . S
Ho80 C83 2.811 . S
Ho80 O100 2.322 . S
Ho80 O102 2.378 . S
Ho80 O103 2.524 . S
Ho80 O104 2.381 . S
Ho80 O105 2.669 . S
Ho80 O107 2.346 . S
Ho80 O111 2.305 . S
Ho81 C92 2.811 . S
Ho81 O101 2.346 . S
Ho81 O105 2.305 . S
Ho81 O106 2.322 . S
Ho81 O108 2.378 . S
Ho81 O109 2.524 . S
Ho81 O110 2.381 . S
Ho81 O111 2.669 . S
C82 O100 1.259 . S
C82 O101 1.268 . S
C83 Ho80 2.811 . S
C83 C84 1.488 . S
C83 O102 1.215 . S
C83 O103 1.289 . S
C84 C83 1.488 . S
C84 C85 1.348 . S
C84 C89 1.413 . S
C85 C84 1.348 . S
C85 C86 1.442 . S
C85 H112 0.930 . S
C86 C85 1.442 . S
C86 C87 1.381 . S
C86 H113 0.931 . S
C87 C86 1.381 . S
C87 C88 1.321 . S
C88 C87 1.321 . S
C88 C89 1.403 . S
C88 H114 0.934 . S
C89 C84 1.413 . S
C89 C88 1.403 . S
C89 H115 0.930 . S
C90 O104 1.275 . S
C90 O105 1.256 . S
C91 O106 1.259 . S
C91 O107 1.268 . S
C92 Ho81 2.811 . S
C92 C93 1.488 . S
C92 O108 1.215 . S
C92 O109 1.289 . S
C93 C92 1.488 . S
C93 C94 1.348 . S
C93 C98 1.413 . S
C94 C93 1.348 . S
C94 C95 1.442 . S
C94 H116 0.930 . S
C95 C94 1.442 . S
C95 C96 1.381 . S
C95 H117 0.931 . S
C96 C95 1.381 . S
C96 C97 1.321 . S
C97 C96 1.321 . S
C97 C98 1.403 . S
C97 H118 0.934 . S
C98 C93 1.413 . S
C98 C97 1.403 . S
C98 H119 0.930 . S
C99 O110 1.275 . S
C99 O111 1.256 . S
O100 Ho80 2.322 . S
O100 C82 1.259 . S
O101 Ho81 2.346 . S
O101 C82 1.268 . S
O102 Ho80 2.378 . S
O102 C83 1.215 . S
O103 Ho80 2.524 . S
O103 C83 1.289 . S
O104 Ho80 2.381 . S
O104 C90 1.275 . S
O105 Ho80 2.669 . S
O105 Ho81 2.305 . S
O105 C90 1.256 . S
O106 Ho81 2.322 . S
O106 C91 1.259 . S
O107 Ho80 2.346 . S
O107 C91 1.268 . S
O108 Ho81 2.378 . S
O108 C92 1.215 . S
O109 Ho81 2.524 . S
O109 C92 1.289 . S
O110 Ho81 2.381 . S
O110 C99 1.275 . S
O111 Ho80 2.305 . S
O111 Ho81 2.669 . S
O111 C99 1.256 . S
H112 C85 0.930 . S
H113 C86 0.931 . S
H114 C88 0.934 . S
H115 C89 0.930 . S
H116 C94 0.930 . S
H117 C95 0.931 . S
H118 C97 0.934 . S
H119 C98 0.930 . S
H120 C125 0.930 . S
H121 C128 0.930 . S
H122 C130 0.930 . S
H123 C124 1.016 . S
C124 H123 1.016 . S
C124 N131 1.286 . S
C125 H120 0.930 . S
C125 C126 1.397 1_545 S
C125 C127 1.361 . S
C126 C125 1.397 1_565 S
C126 C130 1.390 . S
C127 C125 1.361 . S
C127 C128 1.393 . S
C127 N131 1.413 . S
C128 H121 0.930 . S
C128 C127 1.393 . S
C128 C129 1.399 . S
C129 C128 1.399 . S
C129 C130 1.381 1_545 S
C130 H122 0.930 . S
C130 C126 1.390 . S
C130 C129 1.381 1_565 S
N131 C124 1.286 . S
N131 C127 1.413 . S
H132 C137 0.930 . S
H133 C140 0.930 . S
H134 C142 0.930 . S
H135 C136 1.016 . S
C136 H135 1.016 . S
C136 N143 1.286 . S
C137 H132 0.930 . S
C137 C138 1.397 . S
C137 C139 1.361 . S
C138 C137 1.397 . S
C138 C142 1.390 . S
C139 C137 1.361 . S
C139 C140 1.393 . S
C139 N143 1.413 . S
C140 H133 0.930 . S
C140 C139 1.393 . S
C140 C141 1.399 . S
C141 C140 1.399 . S
C141 C142 1.381 . S
C142 H134 0.930 . S
C142 C138 1.390 . S
C142 C141 1.381 . S
N143 C136 1.286 . S
N143 C139 1.413 . S
H144 C149 0.930 . S
H145 C152 0.930 . S
H146 C154 0.921 1_655 S
H147 C148 1.016 . S
C148 H147 1.016 . S
C148 N155 1.286 . S
C149 H144 0.930 . S
C149 C150 1.397 1_455 S
C149 C151 1.361 . S
C150 C149 1.397 1_655 S
C150 C154 1.389 1_655 S
C151 C149 1.361 . S
C151 C152 1.393 . S
C151 N155 1.413 . S
C152 H145 0.930 . S
C152 C151 1.393 . S
C152 C153 1.399 . S
C153 C152 1.399 . S
C153 C154 1.392 . S
C154 H146 0.921 1_455 S
C154 C150 1.389 1_455 S
C154 C153 1.392 . S
N155 C148 1.286 . S
N155 C151 1.413 . S
H156 C161 0.930 . S
H157 C164 0.930 . S
H158 C166 0.930 . S
H159 C160 1.016 . S
C160 H159 1.016 . S
C160 N167 1.286 . S
C161 H156 0.930 . S
C161 C162 1.397 . S
C161 C163 1.361 1_455 S
C162 C161 1.397 . S
C162 C166 1.390 . S
C163 C161 1.361 1_655 S
C163 C164 1.393 . S
C163 N167 1.413 . S
C164 H157 0.930 . S
C164 C163 1.393 . S
C164 C165 1.399 1_655 S
C165 C164 1.399 1_455 S
C165 C166 1.381 . S
C166 H158 0.930 . S
C166 C162 1.390 . S
C166 C165 1.381 . S
N167 C160 1.286 . S
N167 C163 1.413 . S
H168 C173 0.930 . S
H169 C176 0.933 . S
H170 C178 0.930 . S
H171 C172 1.016 . S
C172 H171 1.016 . S
C172 N179 1.286 . S
C173 H168 0.930 . S
C173 C174 1.397 . S
C173 C175 1.361 . S
C174 C173 1.397 . S
C174 C178 1.390 . S
C175 C173 1.361 . S
C175 C176 1.393 1_545 S
C175 N179 1.413 1_545 S
C176 H169 0.933 . S
C176 C175 1.393 1_565 S
C176 C177 1.396 1_565 S
C177 C176 1.396 1_545 S
C177 C178 1.381 . S
C178 H170 0.930 . S
C178 C174 1.390 . S
C178 C177 1.381 . S
N179 C172 1.286 . S
N179 C175 1.413 1_565 S
H180 C185 0.930 . S
H181 C188 0.930 . S
H182 C190 0.930 . S
H183 C184 1.016 . S
C184 H183 1.016 . S
C184 N191 1.286 . S
C185 H180 0.930 . S
C185 C186 1.397 . S
C185 C187 1.361 . S
C186 C185 1.397 . S
C186 C190 1.390 . S
C187 C185 1.361 . S
C187 C188 1.393 . S
C187 N191 1.413 . S
C188 H181 0.930 . S
C188 C187 1.393 . S
C188 C189 1.399 . S
C189 C188 1.399 . S
C189 C190 1.381 . S
C190 H182 0.930 . S
C190 C186 1.390 . S
C190 C189 1.381 . S
N191 C184 1.286 . S
N191 C187 1.413 . S
H192 C198 0.930 . S
H193 C201 0.930 . S
H194 C202 0.930 . S
H195 C203 0.930 . S
H196 C206 0.930 . S
H197 C207 0.930 . S
C198 H192 0.930 . S
C198 C199 1.355 . S
C198 C200 1.415 . S
C199 C198 1.355 . S
C199 C201 1.419 . S
C200 C198 1.415 . S
C200 C205 1.425 . S
C200 C207 1.409 . S
C201 H193 0.930 . S
C201 C199 1.419 . S
C201 C202 1.362 . S
C202 H194 0.930 . S
C202 C201 1.362 . S
C202 C205 1.409 . S
C203 H195 0.930 . S
C203 C204 1.355 . S
C203 C205 1.415 . S
C204 C203 1.355 . S
C204 C206 1.419 . S
C205 C200 1.425 . S
C205 C202 1.409 . S
C205 C203 1.415 . S
C206 H196 0.930 . S
C206 C204 1.419 . S
C206 C207 1.362 . S
C207 H197 0.930 . S
C207 C200 1.409 . S
C207 C206 1.362 . S
H208 C214 0.930 . S
H209 C217 0.930 . S
H210 C218 0.930 . S
H211 C219 0.930 . S
H212 C222 0.930 . S
H213 C223 0.930 . S
C214 H208 0.930 . S
C214 C215 1.355 . S
C214 C216 1.415 . S
C215 C214 1.355 . S
C215 C217 1.419 . S
C216 C214 1.415 . S
C216 C221 1.425 . S
C216 C223 1.409 . S
C217 H209 0.930 . S
C217 C215 1.419 . S
C217 C218 1.362 . S
C218 H210 0.930 . S
C218 C217 1.362 . S
C218 C221 1.409 . S
C219 H211 0.930 . S
C219 C220 1.355 . S
C219 C221 1.415 . S
C220 C219 1.355 . S
C220 C222 1.419 . S
C221 C216 1.425 . S
C221 C218 1.409 . S
C221 C219 1.415 . S
C222 H212 0.930 . S
C222 C220 1.419 . S
C222 C223 1.362 . S
C223 H213 0.930 . S
C223 C216 1.409 . S
C223 C222 1.362 . S
H224 C230 0.930 . S
H225 C233 0.930 . S
H226 C234 0.930 . S
H227 C235 0.930 . S
H228 C238 0.930 . S
H229 C239 0.930 . S
C230 H224 0.930 . S
C230 C231 1.355 . S
C230 C232 1.415 . S
C231 C230 1.355 . S
C231 C233 1.419 . S
C232 C230 1.415 . S
C232 C237 1.425 . S
C232 C239 1.409 . S
C233 H225 0.930 . S
C233 C231 1.419 . S
C233 C234 1.362 . S
C234 H226 0.930 . S
C234 C233 1.362 . S
C234 C237 1.409 . S
C235 H227 0.930 . S
C235 C236 1.355 . S
C235 C237 1.415 . S
C236 C235 1.355 . S
C236 C238 1.419 . S
C237 C232 1.425 . S
C237 C234 1.409 . S
C237 C235 1.415 . S
C238 H228 0.930 . S
C238 C236 1.419 . S
C238 C239 1.362 . S
C239 H229 0.930 . S
C239 C232 1.409 . S
C239 C238 1.362 . S
H240 C246 0.930 . S
H241 C249 0.930 . S
H242 C250 0.930 . S
H243 C251 0.930 . S
H244 C254 0.930 . S
H245 C255 0.930 . S
C246 H240 0.930 . S
C246 C247 1.355 . S
C246 C248 1.415 . S
C247 C246 1.355 . S
C247 C249 1.419 . S
C248 C246 1.415 . S
C248 C253 1.425 . S
C248 C255 1.409 . S
C249 H241 0.930 . S
C249 C247 1.419 . S
C249 C250 1.362 . S
C250 H242 0.930 . S
C250 C249 1.362 . S
C250 C253 1.409 . S
C251 H243 0.930 . S
C251 C252 1.355 . S
C251 C253 1.415 . S
C252 C251 1.355 . S
C252 C254 1.419 . S
C253 C248 1.425 . S
C253 C250 1.409 . S
C253 C251 1.415 . S
C254 H244 0.930 . S
C254 C252 1.419 . S
C254 C255 1.362 . S
C255 H245 0.930 . S
C255 C248 1.409 . S
C255 C254 1.362 . S
H256 C262 0.930 . S
H257 C265 0.930 . S
H258 C266 0.930 . S
H259 C267 0.930 . S
H260 C270 0.930 . S
H261 C271 0.930 . S
C262 H256 0.930 . S
C262 C263 1.355 . S
C262 C264 1.415 . S
C263 C262 1.355 . S
C263 C265 1.419 . S
C264 C262 1.415 . S
C264 C269 1.425 . S
C264 C271 1.409 . S
C265 H257 0.930 . S
C265 C263 1.419 . S
C265 C266 1.362 . S
C266 H258 0.930 . S
C266 C265 1.362 . S
C266 C269 1.409 . S
C267 H259 0.930 . S
C267 C268 1.355 . S
C267 C269 1.415 . S
C268 C267 1.355 . S
C268 C270 1.419 . S
C269 C264 1.425 . S
C269 C266 1.409 . S
C269 C267 1.415 . S
C270 H260 0.930 . S
C270 C268 1.419 . S
C270 C271 1.362 . S
C271 H261 0.930 . S
C271 C264 1.409 . S
C271 C270 1.362 . S
H272 C278 0.930 . S
H273 C281 0.930 . S
H274 C282 0.930 . S
H275 C283 0.930 . S
H276 C286 0.930 . S
H277 C287 0.930 . S
C278 H272 0.930 . S
C278 C279 1.355 . S
C278 C280 1.415 . S
C279 C278 1.355 . S
C279 C281 1.419 . S
C280 C278 1.415 . S
C280 C285 1.425 . S
C280 C287 1.409 . S
C281 H273 0.930 . S
C281 C279 1.419 . S
C281 C282 1.362 . S
C282 H274 0.930 . S
C282 C281 1.362 . S
C282 C285 1.409 . S
C283 H275 0.930 . S
C283 C284 1.355 . S
C283 C285 1.415 . S
C284 C283 1.355 . S
C284 C286 1.419 . S
C285 C280 1.425 . S
C285 C282 1.409 . S
C285 C283 1.415 . S
C286 H276 0.930 . S
C286 C284 1.419 . S
C286 C287 1.362 . S
C287 H277 0.930 . S
C287 C280 1.409 . S
C287 C286 1.362 . S
H288 C294 0.930 . S
H289 C297 0.930 . S
H290 C298 0.930 . S
H291 C299 0.930 . S
H292 C302 0.930 . S
H293 C303 0.930 . S
C294 H288 0.930 . S
C294 C295 1.355 . S
C294 C296 1.415 . S
C295 C294 1.355 . S
C295 C297 1.419 . S
C296 C294 1.415 . S
C296 C301 1.425 . S
C296 C303 1.409 . S
C297 H289 0.930 . S
C297 C295 1.419 . S
C297 C298 1.362 . S
C298 H290 0.930 . S
C298 C297 1.362 . S
C298 C301 1.409 . S
C299 H291 0.930 . S
C299 C300 1.355 . S
C299 C301 1.415 . S
C300 C299 1.355 . S
C300 C302 1.419 . S
C301 C296 1.425 . S
C301 C298 1.409 . S
C301 C299 1.415 . S
C302 H292 0.930 . S
C302 C300 1.419 . S
C302 C303 1.362 . S
C303 H293 0.930 . S
C303 C296 1.409 . S
C303 C302 1.362 . S
H304 C310 0.930 . S
H305 C313 0.930 . S
H306 C314 0.930 . S
H307 C315 0.930 . S
H308 C318 0.930 . S
H309 C319 0.930 . S
C310 H304 0.930 . S
C310 C311 1.355 . S
C310 C312 1.415 . S
C311 C310 1.355 . S
C311 C313 1.419 . S
C312 C310 1.415 . S
C312 C317 1.425 . S
C312 C319 1.409 . S
C313 H305 0.930 . S
C313 C311 1.419 . S
C313 C314 1.362 . S
C314 H306 0.930 . S
C314 C313 1.362 . S
C314 C317 1.409 . S
C315 H307 0.930 . S
C315 C316 1.355 . S
C315 C317 1.415 . S
C316 C315 1.355 . S
C316 C318 1.419 . S
C317 C312 1.425 . S
C317 C314 1.409 . S
C317 C315 1.415 . S
C318 H308 0.930 . S
C318 C316 1.419 . S
C318 C319 1.362 . S
C319 H309 0.930 . S
C319 C312 1.409 . S
C319 C318 1.362 . S
H320 C326 0.930 . S
H321 C329 0.930 . S
H322 C330 0.930 . S
H323 C331 0.930 . S
H324 C334 0.930 . S
H325 C335 0.930 . S
C326 H320 0.930 . S
C326 C327 1.355 . S
C326 C328 1.415 . S
C327 C326 1.355 . S
C327 C329 1.419 . S
C328 C326 1.415 . S
C328 C333 1.425 . S
C328 C335 1.409 . S
C329 H321 0.930 . S
C329 C327 1.419 . S
C329 C330 1.362 . S
C330 H322 0.930 . S
C330 C329 1.362 . S
C330 C333 1.409 . S
C331 H323 0.930 . S
C331 C332 1.355 . S
C331 C333 1.415 . S
C332 C331 1.355 . S
C332 C334 1.419 . S
C333 C328 1.425 . S
C333 C330 1.409 . S
C333 C331 1.415 . S
C334 H324 0.930 . S
C334 C332 1.419 . S
C334 C335 1.362 . S
C335 H325 0.930 . S
C335 C328 1.409 . S
C335 C334 1.362 . S
H336 C342 0.930 . S
H337 C345 0.930 . S
H338 C346 0.930 . S
H339 C347 0.930 . S
H340 C350 0.930 . S
H341 C351 0.930 . S
C342 H336 0.930 . S
C342 C343 1.355 . S
C342 C344 1.415 . S
C343 C342 1.355 . S
C343 C345 1.419 . S
C344 C342 1.415 . S
C344 C349 1.425 . S
C344 C351 1.409 . S
C345 H337 0.930 . S
C345 C343 1.419 . S
C345 C346 1.362 . S
C346 H338 0.930 . S
C346 C345 1.362 . S
C346 C349 1.409 . S
C347 H339 0.930 . S
C347 C348 1.355 . S
C347 C349 1.415 . S
C348 C347 1.355 . S
C348 C350 1.419 . S
C349 C344 1.425 . S
C349 C346 1.409 . S
C349 C347 1.415 . S
C350 H340 0.930 . S
C350 C348 1.419 . S
C350 C351 1.362 . S
C351 H341 0.930 . S
C351 C344 1.409 . S
C351 C350 1.362 . S
H352 C358 0.930 . S
H353 C361 0.930 . S
H354 C362 0.930 . S
H355 C363 0.930 . S
H356 C366 0.930 . S
H357 C367 0.930 . S
C358 H352 0.930 . S
C358 C359 1.355 . S
C358 C360 1.415 . S
C359 C358 1.355 . S
C359 C361 1.419 . S
C360 C358 1.415 . S
C360 C365 1.425 . S
C360 C367 1.409 . S
C361 H353 0.930 . S
C361 C359 1.419 . S
C361 C362 1.362 . S
C362 H354 0.930 . S
C362 C361 1.362 . S
C362 C365 1.409 . S
C363 H355 0.930 . S
C363 C364 1.355 . S
C363 C365 1.415 . S
C364 C363 1.355 . S
C364 C366 1.419 . S
C365 C360 1.425 . S
C365 C362 1.409 . S
C365 C363 1.415 . S
C366 H356 0.930 . S
C366 C364 1.419 . S
C366 C367 1.362 . S
C367 H357 0.930 . S
C367 C360 1.409 . S
C367 C366 1.362 . S
H368 C374 0.930 . S
H369 C377 0.930 . S
H370 C378 0.930 . S
H371 C379 0.930 . S
H372 C382 0.930 . S
H373 C383 0.930 . S
C374 H368 0.930 . S
C374 C375 1.355 . S
C374 C376 1.415 . S
C375 C374 1.355 . S
C375 C377 1.419 . S
C376 C374 1.415 . S
C376 C381 1.425 . S
C376 C383 1.409 . S
C377 H369 0.930 . S
C377 C375 1.419 . S
C377 C378 1.362 . S
C378 H370 0.930 . S
C378 C377 1.362 . S
C378 C381 1.409 . S
C379 H371 0.930 . S
C379 C380 1.355 . S
C379 C381 1.415 . S
C380 C379 1.355 . S
C380 C382 1.419 . S
C381 C376 1.425 . S
C381 C378 1.409 . S
C381 C379 1.415 . S
C382 H372 0.930 . S
C382 C380 1.419 . S
C382 C383 1.362 . S
C383 H373 0.930 . S
C383 C376 1.409 . S
C383 C382 1.362 . S
H384 C390 0.930 . S
H385 C393 0.930 . S
H386 C394 0.930 . S
H387 C395 0.930 . S
H388 C398 0.930 . S
H389 C399 0.930 . S
C390 H384 0.930 . S
C390 C391 1.355 . S
C390 C392 1.415 . S
C391 C390 1.355 . S
C391 C393 1.419 . S
C392 C390 1.415 . S
C392 C397 1.425 . S
C392 C399 1.409 1_554 S
C393 H385 0.930 . S
C393 C391 1.419 . S
C393 C394 1.362 . S
C394 H386 0.930 . S
C394 C393 1.362 . S
C394 C397 1.409 . S
C395 H387 0.930 . S
C395 C396 1.355 . S
C395 C397 1.415 1_556 S
C396 C395 1.355 . S
C396 C398 1.419 . S
C397 C392 1.425 . S
C397 C394 1.409 . S
C397 C395 1.415 1_554 S
C398 H388 0.930 . S
C398 C396 1.419 . S
C398 C399 1.362 . S
C399 H389 0.930 . S
C399 C392 1.409 1_556 S
C399 C398 1.362 . S
H400 C406 0.930 . S
H401 C409 0.930 . S
H402 C410 0.930 . S
H403 C411 0.930 . S
H404 C414 0.930 . S
H405 C415 0.930 . S
C406 H400 0.930 . S
C406 C407 1.355 . S
C406 C408 1.415 . S
C407 C406 1.355 . S
C407 C409 1.419 . S
C408 C406 1.415 . S
C408 C413 1.425 . S
C408 C415 1.409 . S
C409 H401 0.930 . S
C409 C407 1.419 . S
C409 C410 1.362 . S
C410 H402 0.930 . S
C410 C409 1.362 . S
C410 C413 1.409 . S
C411 H403 0.930 . S
C411 C412 1.355 . S
C411 C413 1.415 . S
C412 C411 1.355 . S
C412 C414 1.419 . S
C413 C408 1.425 . S
C413 C410 1.409 . S
C413 C411 1.415 . S
C414 H404 0.930 . S
C414 C412 1.419 . S
C414 C415 1.362 . S
C415 H405 0.930 . S
C415 C408 1.409 . S
C415 C414 1.362 . S
H416 C422 0.930 . S
H417 C425 0.930 . S
H418 C426 0.930 . S
H419 C427 0.930 . S
H420 C430 0.930 . S
H421 C431 0.930 . S
C422 H416 0.930 . S
C422 C423 1.355 . S
C422 C424 1.415 . S
C423 C422 1.355 . S
C423 C425 1.419 . S
C424 C422 1.415 . S
C424 C429 1.425 . S
C424 C431 1.409 . S
C425 H417 0.930 . S
C425 C423 1.419 . S
C425 C426 1.362 . S
C426 H418 0.930 . S
C426 C425 1.362 . S
C426 C429 1.409 . S
C427 H419 0.930 . S
C427 C428 1.355 . S
C427 C429 1.415 . S
C428 C427 1.355 . S
C428 C430 1.419 . S
C429 C424 1.425 . S
C429 C426 1.409 . S
C429 C427 1.415 . S
C430 H420 0.930 . S
C430 C428 1.419 . S
C430 C431 1.362 . S
C431 H421 0.930 . S
C431 C424 1.409 . S
C431 C430 1.362 . S
H432 C438 0.930 . S
H433 C441 0.930 . S
H434 C442 0.930 . S
H435 C443 0.930 . S
H436 C446 0.930 . S
H437 C447 0.930 . S
C438 H432 0.930 . S
C438 C439 1.355 . S
C438 C440 1.415 . S
C439 C438 1.355 . S
C439 C441 1.419 1_545 S
C440 C438 1.415 . S
C440 C445 1.425 1_545 S
C440 C447 1.409 . S
C441 H433 0.930 . S
C441 C439 1.419 1_565 S
C441 C442 1.362 . S
C442 H434 0.930 . S
C442 C441 1.362 . S
C442 C445 1.409 . S
C443 H435 0.930 . S
C443 C444 1.355 1_565 S
C443 C445 1.415 . S
C444 C443 1.355 1_545 S
C444 C446 1.419 . S
C445 C440 1.425 1_565 S
C445 C442 1.409 . S
C445 C443 1.415 . S
C446 H436 0.930 . S
C446 C444 1.419 . S
C446 C447 1.362 . S
C447 H437 0.930 . S
C447 C440 1.409 . S
C447 C446 1.362 . S
H448 C454 0.930 . S
H449 C457 0.930 . S
H450 C458 0.930 . S
H451 C459 0.930 . S
H452 C462 0.930 . S
H453 C463 0.939 . S
C454 H448 0.930 . S
C454 C455 1.355 . S
C454 C456 1.415 . S
C455 C454 1.355 . S
C455 C457 1.419 . S
C456 C454 1.415 . S
C456 C461 1.425 . S
C456 C463 1.431 . S
C457 H449 0.930 . S
C457 C455 1.419 . S
C457 C458 1.362 . S
C458 H450 0.930 . S
C458 C457 1.362 . S
C458 C461 1.409 . S
C459 H451 0.930 . S
C459 C460 1.355 . S
C459 C461 1.415 1_554 S
C460 C459 1.355 . S
C460 C462 1.419 . S
C461 C456 1.425 . S
C461 C458 1.409 . S
C461 C459 1.415 1_556 S
C462 H452 0.930 . S
C462 C460 1.419 . S
C462 C463 1.333 1_554 S
C463 H453 0.939 . S
C463 C456 1.431 . S
C463 C462 1.333 1_556 S
H464 C470 0.930 1_655 S
H465 C473 0.930 . S
H466 C474 0.930 . S
H467 C475 0.930 . S
H468 C478 0.930 . S
H469 C479 0.930 . S
C470 H464 0.930 1_455 S
C470 C471 1.355 . S
C470 C472 1.415 . S
C471 C470 1.355 . S
C471 C473 1.419 . S
C472 C470 1.415 . S
C472 C477 1.425 . S
C472 C479 1.409 1_455 S
C473 H465 0.930 . S
C473 C471 1.419 . S
C473 C474 1.362 . S
C474 H466 0.930 . S
C474 C473 1.362 . S
C474 C477 1.409 . S
C475 H467 0.930 . S
C475 C476 1.355 . S
C475 C477 1.415 . S
C476 C475 1.355 . S
C476 C478 1.419 1_455 S
C477 C472 1.425 . S
C477 C474 1.409 . S
C477 C475 1.415 . S
C478 H468 0.930 . S
C478 C476 1.419 1_655 S
C478 C479 1.362 . S
C479 H469 0.930 . S
C479 C472 1.409 1_655 S
C479 C478 1.362 . S
C199 C7 1.004 . S
C204 C186 1.043 . S
C215 C51 1.955 . S
C220 C160 1.868 . S
C231 C87 1.285 . S
C236 C172 1.339 . S
C247 C16 0.515 . S
C252 C184 0.177 . S
C268 C162 1.833 . S
C263 C42 1.888 . S
C284 C174 1.175 . S
C279 C96 1.210 . S
C295 C47 1.348 . S
C300 C136 1.308 . S
C311 C91 3.332 . S
C316 C150 3.307 . S
C327 C2 1.899 . S
C332 C126 1.919 . S
C348 C138 1.185 . S
C343 C56 1.178 . S
C364 C148 2.727 . S
C359 C82 2.850 . S
C375 C11 1.944 . S
C380 C124 1.884 . S
C396 C153 1.779 . S
C391 C19 1.677 . S
C407 C50 1.446 . S
C412 C129 1.463 . S
C423 C99 1.526 . S
C428 C141 1.504 . S
C444 C177 1.502 . S
C439 C59 1.524 . S
C460 C189 1.206 . S
C455 C90 1.233 . S
C471 C10 1.416 . S
C476 C165 1.444 . S
