# Generated by pormake.
# Topology zzz, (3,6)-cn, num edge types: 1
# Building blocks:
#     Node 0, Type 0, BuildingBlock: ESEHIV_clean_linker_0, # of connection points: 3
#     Node 1, Type 0, BuildingBlock: ESEHIV_clean_linker_0, # of connection points: 3
#     Node 2, Type 0, BuildingBlock: ESEHIV_clean_linker_0, # of connection points: 3
#     Node 3, Type 0, BuildingBlock: ESEHIV_clean_linker_0, # of connection points: 3
#     Node 4, Type 0, BuildingBlock: ESEHIV_clean_linker_0, # of connection points: 3
#     Node 5, Type 0, BuildingBlock: ESEHIV_clean_linker_0, # of connection points: 3
#     Node 6, Type 0, BuildingBlock: ESEHIV_clean_linker_0, # of connection points: 3
#     Node 7, Type 0, BuildingBlock: ESEHIV_clean_linker_0, # of connection points: 3
#     Node 8, Type 1, BuildingBlock: VOLQOD_clean_sbu_1, # of connection points: 6
#     Node 9, Type 1, BuildingBlock: VOLQOD_clean_sbu_1, # of connection points: 6
#     Node 10, Type 1, BuildingBlock: VOLQOD_clean_sbu_1, # of connection points: 6
#     Node 11, Type 1, BuildingBlock: VOLQOD_clean_sbu_1, # of connection points: 6
#     Edge 12, Type (0, 1), BuildingBlock: TEMPAE_clean_linker_10, # of connection points: 2
#     Edge 13, Type (0, 1), BuildingBlock: TEMPAE_clean_linker_10, # of connection points: 2
#     Edge 14, Type (0, 1), BuildingBlock: TEMPAE_clean_linker_10, # of connection points: 2
#     Edge 15, Type (0, 1), BuildingBlock: TEMPAE_clean_linker_10, # of connection points: 2
#     Edge 16, Type (0, 1), BuildingBlock: TEMPAE_clean_linker_10, # of connection points: 2
#     Edge 17, Type (0, 1), BuildingBlock: TEMPAE_clean_linker_10, # of connection points: 2
#     Edge 18, Type (0, 1), BuildingBlock: TEMPAE_clean_linker_10, # of connection points: 2
#     Edge 19, Type (0, 1), BuildingBlock: TEMPAE_clean_linker_10, # of connection points: 2
#     Edge 20, Type (0, 1), BuildingBlock: TEMPAE_clean_linker_10, # of connection points: 2
#     Edge 21, Type (0, 1), BuildingBlock: TEMPAE_clean_linker_10, # of connection points: 2
#     Edge 22, Type (0, 1), BuildingBlock: TEMPAE_clean_linker_10, # of connection points: 2
#     Edge 23, Type (0, 1), BuildingBlock: TEMPAE_clean_linker_10, # of connection points: 2
#     Edge 24, Type (0, 1), BuildingBlock: TEMPAE_clean_linker_10, # of connection points: 2
#     Edge 25, Type (0, 1), BuildingBlock: TEMPAE_clean_linker_10, # of connection points: 2
#     Edge 26, Type (0, 1), BuildingBlock: TEMPAE_clean_linker_10, # of connection points: 2
#     Edge 27, Type (0, 1), BuildingBlock: TEMPAE_clean_linker_10, # of connection points: 2
#     Edge 28, Type (0, 1), BuildingBlock: TEMPAE_clean_linker_10, # of connection points: 2
#     Edge 29, Type (0, 1), BuildingBlock: TEMPAE_clean_linker_10, # of connection points: 2
#     Edge 30, Type (0, 1), BuildingBlock: TEMPAE_clean_linker_10, # of connection points: 2
#     Edge 31, Type (0, 1), BuildingBlock: TEMPAE_clean_linker_10, # of connection points: 2
#     Edge 32, Type (0, 1), BuildingBlock: TEMPAE_clean_linker_10, # of connection points: 2
#     Edge 33, Type (0, 1), BuildingBlock: TEMPAE_clean_linker_10, # of connection points: 2
#     Edge 34, Type (0, 1), BuildingBlock: TEMPAE_clean_linker_10, # of connection points: 2
#     Edge 35, Type (0, 1), BuildingBlock: TEMPAE_clean_linker_10, # of connection points: 2
# Relax obj value: 0.360
# Max RMSD: 0.258
# Mean RMSD: 0.208
data_MOF--net-zzz--node1-VOLQOD_clean_sbu_1--node2-ESEHIV_clean_linker_0--edge1-TEMPAE_clean_linker_10
_symmetry_space_group_name_H-M    P1
_symmetry_Int_Tables_number       1
_symmetry_cell_setting            triclinic
loop_
_symmetry_equiv_pos_as_xyz
'x, y, z'
_cell_length_a     45.476226
_cell_length_b     44.713087
_cell_length_c     17.862602
_cell_angle_alpha  90.141526
_cell_angle_beta   90.142463
_cell_angle_gamma 92.227345
loop_
_atom_site_label
_atom_site_type_symbol
_atom_site_fract_x
_atom_site_fract_y
_atom_site_fract_z
_atom_type_partial_charge
H0 H 0.844 0.45338 0.18356 0.0
H1 H 0.77749 0.44396 0.01403 0.0
H2 H 0.76344 0.49977 0.20719 0.0
C3 C 0.82191 0.45754 0.164 0.0
C4 C 0.8045 0.4771 0.20437 0.0
C5 C 0.8124 0.44577 0.09519 0.0
C6 C 0.7846 0.45268 0.06811 0.0
C7 C 0.7666 0.47193 0.10825 0.0
C8 C 0.77653 0.48392 0.17726 0.0
H9 H 0.05603 0.80927 0.25064 0.0
H10 H 0.06406 0.75277 0.05785 0.0
H11 H 0.01393 0.72159 0.24838 0.0
C12 C 0.05206 0.78785 0.22306 0.0
C13 C 0.03415 0.76588 0.25819 0.0
C14 C 0.06217 0.78387 0.14992 0.0
C15 C 0.05697 0.75599 0.1151 0.0
C16 C 0.04031 0.73301 0.15082 0.0
C17 C 0.02811 0.73843 0.22181 0.0
H18 H 0.69571 0.04604 0.20384 0.0
H19 H 0.75366 0.05362 0.01639 0.0
H20 H 0.7822 0.01146 0.22038 0.0
C21 C 0.7174 0.04332 0.18012 0.0
C22 C 0.73851 0.02815 0.22082 0.0
C23 C 0.72276 0.05244 0.10661 0.0
C24 C 0.75031 0.04783 0.07469 0.0
C25 C 0.77241 0.03342 0.1151 0.0
C26 C 0.76607 0.0233 0.1885 0.0
H27 H 0.49113 0.68846 0.27576 0.0
H28 H 0.54129 0.77158 0.25521 0.0
H29 H 0.48609 0.73934 0.07345 0.0
C30 C 0.4967 0.70864 0.24439 0.0
C31 C 0.48617 0.71131 0.17123 0.0
C32 C 0.51678 0.72999 0.27485 0.0
C33 C 0.52511 0.75548 0.23289 0.0
C34 C 0.51343 0.75931 0.16055 0.0
C35 C 0.49397 0.73714 0.13042 0.0
H36 H 0.2062 0.58147 0.1577 0.0
H37 H 0.26978 0.58989 0.33499 0.0
H38 H 0.29138 0.54484 0.13014 0.0
C39 C 0.22849 0.57909 0.17784 0.0
C40 C 0.24836 0.56353 0.13367 0.0
C41 C 0.23582 0.58848 0.2507 0.0
C42 C 0.26412 0.5833 0.27817 0.0
C43 C 0.28424 0.56737 0.23542 0.0
C44 C 0.27622 0.55758 0.16298 0.0
H45 H 0.0523 0.17562 0.14541 0.0
H46 H 0.03523 0.24781 0.29503 0.0
H47 H 0.09728 0.26136 0.11461 0.0
C48 C 0.05611 0.19884 0.16188 0.0
C49 C 0.07625 0.21718 0.12198 0.0
C50 C 0.04114 0.20983 0.22351 0.0
C51 C 0.04609 0.23956 0.24548 0.0
C52 C 0.06644 0.25819 0.20689 0.0
C53 C 0.08135 0.24716 0.14415 0.0
H54 H 0.33362 0.9921 0.14698 0.0
H55 H 0.26162 0.96383 0.28664 0.0
H56 H 0.24725 0.02429 0.10271 0.0
C57 C 0.31032 0.99244 0.16003 0.0
C58 C 0.29177 0.00992 0.11712 0.0
C59 C 0.29948 0.9757 0.22033 0.0
C60 C 0.2696 0.97594 0.23773 0.0
C61 C 0.25047 0.99355 0.19606 0.0
C62 C 0.26166 0.0105 0.13501 0.0
H63 H 0.4829 0.31082 0.14313 0.0
H64 H 0.45874 0.21961 0.08393 0.0
H65 H 0.5138 0.23931 0.2769 0.0
C66 C 0.48378 0.28697 0.15381 0.0
C67 C 0.50006 0.27724 0.21462 0.0
C68 C 0.46897 0.26651 0.10607 0.0
C69 C 0.47034 0.23559 0.12015 0.0
C70 C 0.48674 0.22559 0.18194 0.0
C71 C 0.50182 0.24665 0.22809 0.0
O72 O 0.08076 0.99929 0.59786 0.0
Zn73 Zn 0.05582 0.99926 0.69191 0.0
O74 O 0.01339 0.99644 0.66613 0.0
Zn75 Zn 0.99446 0.03145 0.70442 0.0
Zn76 Zn 0.00842 0.99391 0.55766 0.0
Zn77 Zn 0.99351 0.96127 0.71003 0.0
O78 O 0.96212 0.02095 0.77684 0.0
O79 O 0.95883 0.97124 0.77596 0.0
O80 O 0.06668 0.03779 0.74864 0.0
O81 O 0.02312 0.05812 0.75982 0.0
O82 O 0.97846 0.05551 0.62013 0.0
O83 O 0.98437 0.02744 0.51899 0.0
O84 O 0.99157 0.95348 0.52548 0.0
O85 O 0.06646 0.96402 0.75733 0.0
O86 O 0.98077 0.93075 0.63252 0.0
O87 O 0.02284 0.94031 0.77119 0.0
C88 C 0.07435 0.99954 0.5283 0.0
C89 C 0.95009 0.99639 0.79881 0.0
C90 C 0.97532 0.05105 0.55007 0.0
C91 C 0.05066 0.05857 0.77229 0.0
C92 C 0.98199 0.93053 0.56139 0.0
C93 C 0.05038 0.94261 0.784 0.0
O94 O 0.04769 0.99824 0.50621 0.0
O95 O 0.49977 0.05441 0.58008 0.0
Zn96 Zn 0.50527 0.03055 0.67544 0.0
O97 O 0.51298 0.98823 0.6505 0.0
Zn98 Zn 0.48195 0.9621 0.69106 0.0
Zn99 Zn 0.51495 0.98286 0.54205 0.0
Zn100 Zn 0.54999 0.9758 0.69329 0.0
O101 O 0.49719 0.93186 0.7626 0.0
O102 O 0.54513 0.94236 0.76943 0.0
O103 O 0.46775 0.03368 0.73748 0.0
O104 O 0.45343 0.98583 0.74889 0.0
O105 O 0.45924 0.94099 0.60914 0.0
O106 O 0.48444 0.95225 0.50614 0.0
O107 O 0.55567 0.97236 0.50862 0.0
O108 O 0.53998 0.04979 0.73363 0.0
O109 O 0.57941 0.96489 0.61498 0.0
O110 O 0.56898 0.01098 0.74292 0.0
C111 C 0.50039 0.04761 0.51068 0.0
C112 C 0.5224 0.927 0.79004 0.0
C113 C 0.46301 0.93856 0.53883 0.0
C114 C 0.44989 0.01339 0.76246 0.0
C115 C 0.57895 0.96579 0.54382 0.0
C116 C 0.56391 0.03835 0.75455 0.0
O117 O 0.5058 0.02119 0.48934 0.0
O118 O 0.44857 0.50121 0.62415 0.0
Zn119 Zn 0.47508 0.49576 0.71441 0.0
O120 O 0.51703 0.49894 0.6836 0.0
Zn121 Zn 0.53676 0.46341 0.71521 0.0
Zn122 Zn 0.52025 0.50308 0.57518 0.0
Zn123 Zn 0.53755 0.53339 0.72918 0.0
O124 O 0.57158 0.47286 0.78147 0.0
O125 O 0.5714 0.52211 0.79534 0.0
O126 O 0.46488 0.45517 0.76312 0.0
O127 O 0.50933 0.43648 0.77315 0.0
O128 O 0.54932 0.43947 0.6268 0.0
O129 O 0.53892 0.46748 0.52855 0.0
O130 O 0.5415 0.54156 0.54525 0.0
O131 O 0.46607 0.52924 0.78824 0.0
O132 O 0.55199 0.5638 0.65347 0.0
O133 O 0.50916 0.55449 0.79151 0.0
C134 C 0.45389 0.50521 0.55471 0.0
C135 C 0.58233 0.49699 0.81003 0.0
C136 C 0.54889 0.44368 0.55638 0.0
C137 C 0.48178 0.43484 0.78531 0.0
C138 C 0.55196 0.56393 0.58227 0.0
C139 C 0.48233 0.55138 0.81078 0.0
O140 O 0.48011 0.50594 0.52987 0.0
O141 O 0.97508 0.52651 0.59595 0.0
Zn142 Zn 0.01486 0.53257 0.64829 0.0
O143 O 0.03057 0.49339 0.67691 0.0
Zn144 Zn 0.0351 0.49156 0.78482 0.0
Zn145 Zn 0.00404 0.46047 0.64537 0.0
Zn146 Zn 0.06877 0.48771 0.63103 0.0
O147 O 0.07682 0.4852 0.81486 0.0
O148 O 0.10151 0.48706 0.70799 0.0
O149 O 0.01071 0.55954 0.73924 0.0
O150 O 0.02525 0.53057 0.83176 0.0
O151 O 0.00764 0.46077 0.83054 0.0
O152 O 0.9851 0.43914 0.73324 0.0
O153 O 0.024 0.43089 0.57912 0.0
O154 O 0.04276 0.55458 0.57595 0.0
O155 O 0.06923 0.45063 0.56687 0.0
O156 O 0.07786 0.52162 0.56265 0.0
C157 C 0.9615 0.50271 0.57282 0.0
C158 C 0.10103 0.48542 0.77918 0.0
C159 C 0.9887 0.44195 0.80365 0.0
C160 C 0.01599 0.55537 0.80852 0.0
C161 C 0.04976 0.43033 0.55145 0.0
C162 C 0.06663 0.54637 0.54639 0.0
O163 O 0.97114 0.4769 0.58611 0.0
C164 C 0.20882 0.02398 0.24011 0.0
C165 C 0.21979 0.99593 0.2228 0.0
C166 C 0.18293 0.02628 0.28226 0.0
C167 C 0.16776 0.99991 0.3074 0.0
C168 C 0.17753 0.97159 0.28486 0.0
C169 C 0.20343 0.96997 0.24287 0.0
C170 C 0.17306 0.05689 0.30444 0.0
C171 C 0.16186 0.94292 0.30962 0.0
C172 C 0.12787 0.00085 0.49401 0.0
C173 C 0.09828 0.00094 0.47167 0.0
C174 C 0.15063 0.00116 0.44101 0.0
C175 C 0.14372 0.00164 0.36363 0.0
C176 C 0.11397 0.00235 0.3406 0.0
C177 C 0.09162 0.00195 0.39483 0.0
C178 C 0.18211 0.00037 0.46792 0.0
C179 C 0.10574 0.00296 0.2587 0.0
H180 H 0.22154 0.04409 0.22518 0.0
H181 H 0.21179 0.94826 0.229 0.0
H182 H 0.14898 0.05848 0.29616 0.0
H183 H 0.17769 0.06071 0.3648 0.0
H184 H 0.18456 0.07497 0.27198 0.0
H185 H 0.17029 0.92299 0.28061 0.0
H186 H 0.16493 0.94004 0.3708 0.0
H187 H 0.13788 0.94382 0.29895 0.0
H188 H 0.13331 1.00015 0.55307 0.0
H189 H 0.06886 0.00216 0.37679 0.0
H190 H 0.19521 0.01961 0.44467 0.0
H191 H 0.19217 0.97965 0.44757 0.0
H192 H 0.18385 0.00107 0.52995 0.0
H193 H 0.11771 0.02179 0.23028 0.0
H194 H 0.08173 0.00529 0.25007 0.0
H195 H 0.11235 0.98201 0.23113 0.0
C196 C 0.51367 0.18088 0.22189 0.0
C197 C 0.48687 0.19367 0.20416 0.0
C198 C 0.51443 0.1542 0.26277 0.0
C199 C 0.48772 0.13996 0.28652 0.0
C200 C 0.46056 0.15133 0.26285 0.0
C201 C 0.46045 0.17815 0.22182 0.0
C202 C 0.5439 0.14273 0.28591 0.0
C203 C 0.4316 0.13658 0.286 0.0
C204 C 0.49374 0.06341 0.37691 0.0
C205 C 0.4953 0.07093 0.45335 0.0
C206 C 0.49025 0.08544 0.3219 0.0
C207 C 0.48846 0.11576 0.34368 0.0
C208 C 0.48929 0.12339 0.42075 0.0
C209 C 0.49261 0.10092 0.47454 0.0
C210 C 0.48921 0.07637 0.24044 0.0
C211 C 0.48749 0.15549 0.44641 0.0
H212 H 0.53411 0.19285 0.20787 0.0
H213 H 0.43972 0.18812 0.20861 0.0
H214 H 0.54723 0.14656 0.3468 0.0
H215 H 0.54464 0.11829 0.27579 0.0
H216 H 0.5624 0.15412 0.25541 0.0
H217 H 0.41289 0.14498 0.25307 0.0
H218 H 0.43206 0.11193 0.27923 0.0
H219 H 0.42765 0.14127 0.34609 0.0
H220 H 0.49556 0.04029 0.35978 0.0
H221 H 0.49369 0.10701 0.53328 0.0
H222 H 0.50907 0.08564 0.21141 0.0
H223 H 0.4698 0.08574 0.21253 0.0
H224 H 0.48822 0.05168 0.23307 0.0
H225 H 0.50664 0.16892 0.42467 0.0
H226 H 0.48722 0.15757 0.50839 0.0
H227 H 0.46734 0.16536 0.42364 0.0
C228 C 0.32912 0.57845 0.31367 0.0
C229 C 0.31197 0.55803 0.27082 0.0
C230 C 0.35314 0.56904 0.35572 0.0
C231 C 0.3601 0.53844 0.35514 0.0
C232 C 0.34357 0.51793 0.30973 0.0
C233 C 0.3197 0.52798 0.268 0.0
C234 C 0.37046 0.59168 0.40274 0.0
C235 C 0.35033 0.48514 0.30761 0.0
C236 C 0.4356 0.51914 0.4275 0.0
C237 C 0.42948 0.51127 0.50216 0.0
C238 C 0.41318 0.52746 0.37856 0.0
C239 C 0.38386 0.52779 0.40465 0.0
C240 C 0.37735 0.51903 0.47915 0.0
C241 C 0.40024 0.51093 0.52705 0.0
C242 C 0.42099 0.53671 0.29956 0.0
C243 C 0.34629 0.51893 0.50884 0.0
H244 H 0.32331 0.60173 0.31548 0.0
H245 H 0.30628 0.51203 0.23578 0.0
H246 H 0.36781 0.5861 0.46291 0.0
H247 H 0.39425 0.59093 0.38962 0.0
H248 H 0.36326 0.61486 0.39374 0.0
H249 H 0.33672 0.47251 0.26556 0.0
H250 H 0.37389 0.48237 0.29448 0.0
H251 H 0.34618 0.47507 0.3635 0.0
H252 H 0.4581 0.51951 0.4075 0.0
H253 H 0.39524 0.50483 0.58444 0.0
H254 H 0.41603 0.56057 0.29114 0.0
H255 H 0.40746 0.52342 0.25875 0.0
H256 H 0.44461 0.5338 0.28679 0.0
H257 H 0.33819 0.54201 0.50821 0.0
H258 H 0.34469 0.51019 0.56692 0.0
H259 H 0.33143 0.50503 0.47232 0.0
C260 C 0.09135 0.29001 0.30262 0.0
C261 C 0.07341 0.28797 0.23893 0.0
C262 C 0.09137 0.31535 0.34896 0.0
C263 C 0.07295 0.33912 0.33083 0.0
C264 C 0.05671 0.33815 0.26294 0.0
C265 C 0.05693 0.31235 0.21793 0.0
C266 C 0.10891 0.31537 0.42083 0.0
C267 C 0.03715 0.36321 0.24107 0.0
C268 C 0.03894 0.38021 0.4932 0.0
C269 C 0.05658 0.40657 0.49693 0.0
C270 C 0.04424 0.35808 0.43966 0.0
C271 C 0.06746 0.36262 0.38766 0.0
C272 C 0.08537 0.38918 0.391 0.0
C273 C 0.07987 0.41076 0.44605 0.0
C274 C 0.02491 0.32982 0.43874 0.0
C275 C 0.11002 0.39497 0.33585 0.0
H276 H 0.10366 0.27079 0.31918 0.0
H277 H 0.0427 0.3104 0.16922 0.0
H278 H 0.12083 0.33722 0.42938 0.0
H279 H 0.09371 0.31189 0.4688 0.0
H280 H 0.12509 0.29738 0.42157 0.0
H281 H 0.0299 0.36134 0.18173 0.0
H282 H 0.0173 0.36257 0.27713 0.0
H283 H 0.04869 0.38527 0.24962 0.0
H284 H 0.02097 0.37679 0.53241 0.0
H285 H 0.09341 0.43124 0.44806 0.0
H286 H 0.0386 0.30998 0.44537 0.0
H287 H 0.0134 0.32753 0.38408 0.0
H288 H 0.00816 0.32952 0.48391 0.0
H289 H 0.126 0.37689 0.33916 0.0
H290 H 0.12193 0.41678 0.34595 0.0
H291 H 0.10108 0.39479 0.27799 0.0
C292 C 0.81283 0.04726 0.02426 0.0
C293 C 0.80093 0.02719 0.07762 0.0
C294 C 0.83767 0.04043 0.98213 0.0
C295 C 0.85196 0.01341 0.99572 0.0
C296 C 0.84117 0.99374 0.05215 0.0
C297 C 0.81552 0.00058 0.0915 0.0
C298 C 0.84815 0.06185 0.92164 0.0
C299 C 0.85644 0.96525 0.07014 0.0
C300 C 0.89818 0.98438 0.83596 0.0
C301 C 0.9258 0.99757 0.85285 0.0
C302 C 0.87398 0.98875 0.88301 0.0
C303 C 0.8779 0.00578 0.94964 0.0
C304 C 0.90626 0.01761 0.96887 0.0
C305 C 0.92975 0.01391 0.91933 0.0
C306 C 0.84395 0.97655 0.85933 0.0
C307 C 0.91164 0.03492 0.04062 0.0
H308 H 0.80245 0.06829 0.01435 0.0
H309 H 0.80656 0.98462 0.13169 0.0
H310 H 0.87094 0.07021 0.9338 0.0
H311 H 0.84855 0.05004 0.86694 0.0
H312 H 0.83392 0.08137 0.91628 0.0
H313 H 0.847 0.95385 0.12031 0.0
H314 H 0.85449 0.94961 0.02195 0.0
H315 H 0.88025 0.97012 0.07997 0.0
H316 H 0.89522 0.97198 0.78407 0.0
H317 H 0.95127 0.02394 0.93231 0.0
H318 H 0.82929 0.99539 0.849 0.0
H319 H 0.83385 0.96273 0.90458 0.0
H320 H 0.84482 0.96275 0.80763 0.0
H321 H 0.90101 0.05677 0.0373 0.0
H322 H 0.93548 0.03916 0.05189 0.0
H323 H 0.90173 0.02255 0.08871 0.0
C324 C 0.53098 0.78086 0.03912 0.0
C325 C 0.52244 0.78539 0.11355 0.0
C326 C 0.53495 0.80497 0.98973 0.0
C327 C 0.53026 0.83437 0.01538 0.0
C328 C 0.52367 0.83928 0.09188 0.0
C329 C 0.51988 0.81465 0.14024 0.0
C330 C 0.5422 0.79871 0.90886 0.0
C331 C 0.51869 0.87031 0.1215 0.0
C332 C 0.55177 0.89857 0.88403 0.0
C333 C 0.52485 0.90356 0.84833 0.0
C334 C 0.55387 0.87658 0.93982 0.0
C335 C 0.5285 0.85913 0.96013 0.0
C336 C 0.50126 0.86427 0.9248 0.0
C337 C 0.49978 0.88635 0.86955 0.0
C338 C 0.58325 0.87179 0.97645 0.0
C339 C 0.47366 0.8461 0.9446 0.0
H340 H 0.53352 0.75824 0.01876 0.0
H341 H 0.51332 0.81818 0.19781 0.0
H342 H 0.52277 0.80299 0.8733 0.0
H343 H 0.56051 0.81387 0.88959 0.0
H344 H 0.54844 0.77519 0.89989 0.0
H345 H 0.51798 0.87087 0.18366 0.0
H346 H 0.53626 0.88631 0.10202 0.0
H347 H 0.49746 0.87814 0.0997 0.0
H348 H 0.57124 0.91184 0.86842 0.0
H349 H 0.47883 0.89001 0.84269 0.0
H350 H 0.59045 0.8489 0.96379 0.0
H351 H 0.58127 0.87358 0.03818 0.0
H352 H 0.60056 0.8882 0.95716 0.0
H353 H 0.4767 0.82213 0.93177 0.0
H354 H 0.45405 0.8535 0.91353 0.0
H355 H 0.46925 0.84786 0.00548 0.0
C356 C 0.73873 0.49016 0.99844 0.0
C357 C 0.73877 0.48117 0.07358 0.0
C358 C 0.71241 0.49535 0.96082 0.0
C359 C 0.68539 0.49162 -0.00059 0.0
C360 C 0.68536 0.48425 0.07656 0.0
C361 C 0.71216 0.47912 0.11292 0.0
C362 C 0.71346 0.50331 0.87868 0.0
C363 C 0.65697 0.48032 0.11962 0.0
C364 C 0.6191 0.52146 0.89821 0.0
C365 C 0.60785 0.49562 0.86161 0.0
C366 C 0.64366 0.52034 0.94587 0.0
C367 C 0.65736 0.4928 0.95674 0.0
C368 C 0.64569 0.46655 0.92145 0.0
C369 C 0.62108 0.46827 0.8745 0.0
C370 C 0.65541 0.54874 0.98297 0.0
C371 C 0.65976 0.43675 0.93134 0.0
H372 H 0.75939 0.49236 0.96837 0.0
H373 H 0.7122 0.47223 0.17107 0.0
H374 H 0.70314 0.48474 0.84525 0.0
H375 H 0.70077 0.52354 0.86793 0.0
H376 H 0.73633 0.50749 0.85844 0.0
H377 H 0.66084 0.47819 0.18078 0.0
H378 H 0.64274 0.49953 0.1097 0.0
H379 H 0.64472 0.45987 0.09972 0.0
H380 H 0.6089 0.54266 0.88918 0.0
H381 H 0.61251 0.44813 0.8469 0.0
H382 H 0.67741 0.55502 0.95991 0.0
H383 H 0.6582 0.54519 0.04399 0.0
H384 H 0.64072 0.56772 0.97431 0.0
H385 H 0.68229 0.43787 0.90751 0.0
H386 H 0.647 0.41815 0.9035 0.0
H387 H 0.66185 0.43145 0.99171 0.0
C388 C 0.05715 0.69064 0.07276 0.0
C389 C 0.03423 0.70442 0.11021 0.0
C390 C 0.05164 0.66554 0.027 0.0
C391 C 0.02245 0.65385 0.0184 0.0
C392 C 0.99929 0.667 0.05812 0.0
C393 C 0.00547 0.69217 0.10372 0.0
C394 C 0.07703 0.65201 0.98632 0.0
C395 C 0.96792 0.65504 0.05064 0.0
C396 C 0.00978 0.60966 0.83857 0.0
C397 C 0.01353 0.58027 0.86304 0.0
C398 C 0.01121 0.63377 0.88924 0.0
C399 C 0.01639 0.62834 0.96619 0.0
C400 C 0.01858 0.5986 0.99178 0.0
C401 C 0.01716 0.57495 0.93996 0.0
C402 C 0.00871 0.6652 0.85983 0.0
C403 C 0.0239 0.59183 0.07339 0.0
H404 H 0.07945 0.69988 0.07837 0.0
H405 H 0.98765 0.70293 0.13201 0.0
H406 H 0.07808 0.62789 7e-05 0.0
H407 H 0.07363 0.65369 0.92496 0.0
H408 H 0.09852 0.66326 0.00078 0.0
H409 H 0.95279 0.66648 0.08907 0.0
H410 H 0.9602 0.65811 0.9923 0.0
H411 H 0.96658 0.63068 0.06243 0.0
H412 H 0.00688 0.61402 0.7794 0.0
H413 H 0.01979 0.55231 0.9597 0.0
H414 H 0.03024 0.67754 0.86567 0.0
H415 H 0.99245 0.67745 0.89304 0.0
H416 H 0.00204 0.66549 0.79997 0.0
H417 H 0.04637 0.60003 0.08953 0.0
H418 H 0.02181 0.56747 0.08544 0.0
H419 H 0.00815 0.60363 0.10919 0.0
C420 C 0.99304 0.19173 0.27803 0.0
C421 C 0.02344 0.18899 0.27021 0.0
C422 C 0.97638 0.17102 0.3212 0.0
C423 C 0.99077 0.14761 0.35781 0.0
C424 C 0.02165 0.14524 0.35054 0.0
C425 C 0.03751 0.16583 0.30624 0.0
C426 C 0.94347 0.17375 0.3259 0.0
C427 C 0.03808 0.12097 0.38964 0.0
C428 C 0.96926 0.1056 0.53092 0.0
C429 C 0.96733 0.07638 0.50194 0.0
C430 C 0.97311 0.13025 0.48319 0.0
C431 C 0.97442 0.12541 0.40501 0.0
C432 C 0.96734 0.09663 0.37544 0.0
C433 C 0.96412 0.07227 0.42442 0.0
C434 C 0.98012 0.16066 0.5171 0.0
C435 C 0.9671 0.09086 0.29219 0.0
H436 H 0.98233 0.20967 0.2493 0.0
H437 H 0.0611 0.16401 0.30005 0.0
H438 H 0.93254 0.15594 0.29122 0.0
H439 H 0.93561 0.1706 0.38418 0.0
H440 H 0.93643 0.19578 0.30524 0.0
H441 H 0.06221 0.1231 0.38028 0.0
H442 H 0.03396 0.12176 0.45081 0.0
H443 H 0.03012 0.09866 0.36909 0.0
H444 H 0.97107 0.10912 0.59086 0.0
H445 H 0.96174 0.04982 0.40158 0.0
H446 H 0.97021 0.17862 0.48388 0.0
H447 H 0.00434 0.16491 0.51722 0.0
H448 H 0.97221 0.16206 0.57575 0.0
H449 H 0.95726 0.1096 0.26161 0.0
H450 H 0.95467 0.06971 0.27802 0.0
H451 H 0.99005 0.08898 0.27228 0.0
C452 C 0.3214 0.93015 0.27527 0.0
C453 C 0.32041 0.96134 0.27027 0.0
C454 C 0.34326 0.91688 0.31842 0.0
C455 C 0.36418 0.93544 0.35726 0.0
C456 C 0.36247 0.96701 0.35376 0.0
C457 C 0.3407 0.97951 0.30988 0.0
C458 C 0.3446 0.88323 0.31976 0.0
C459 C 0.38401 0.98776 0.39511 0.0
C460 C 0.41076 0.9205 0.52424 0.0
C461 C 0.43876 0.92535 0.49254 0.0
C462 C 0.38551 0.9194 0.47903 0.0
C463 C 0.38859 0.92281 0.40073 0.0
C464 C 0.41687 0.92226 0.36805 0.0
C465 C 0.44177 0.92375 0.41452 0.0
C466 C 0.3557 0.91909 0.516 0.0
C467 C 0.42099 0.92441 0.28443 0.0
H468 H 0.30567 0.91626 0.24378 0.0
H469 H 0.33967 0.00365 0.3057 0.0
H470 H 0.36179 0.87621 0.28014 0.0
H471 H 0.35061 0.87506 0.37614 0.0
H472 H 0.32332 0.87222 0.30257 0.0
H473 H 0.37869 0.01167 0.38896 0.0
H474 H 0.38412 0.98224 0.45564 0.0
H475 H 0.40659 0.98489 0.37354 0.0
H476 H 0.40819 0.92087 0.58456 0.0
H477 H 0.4634 0.9265 0.38949 0.0
H478 H 0.33915 0.90594 0.48259 0.0
H479 H 0.34823 0.94238 0.52008 0.0
H480 H 0.35649 0.90966 0.57343 0.0
H481 H 0.40382 0.9107 0.2545 0.0
H482 H 0.44302 0.917 0.26722 0.0
H483 H 0.41897 0.94803 0.26677 0.0
C484 C 0.54385 0.30164 0.27803 0.0
C485 C 0.51337 0.29948 0.2667 0.0
C486 C 0.55647 0.32423 0.32411 0.0
C487 C 0.53795 0.34451 0.36019 0.0
C488 C 0.50705 0.34176 0.35002 0.0
C489 C 0.49519 0.31942 0.30281 0.0
C490 C 0.58948 0.32689 0.33265 0.0
C491 C 0.48643 0.36258 0.38852 0.0
C492 C 0.55497 0.38919 0.53456 0.0
C493 C 0.55507 0.41841 0.50597 0.0
C494 C 0.5523 0.36435 0.48674 0.0
C495 C 0.55023 0.36893 0.40862 0.0
C496 C 0.5541 0.39817 0.37911 0.0
C497 C 0.55623 0.42266 0.42827 0.0
C498 C 0.54822 0.33354 0.52053 0.0
C499 C 0.5529 0.40387 0.29593 0.0
H500 H 0.55778 0.28619 0.24929 0.0
H501 H 0.47158 0.31747 0.29395 0.0
H502 H 0.59783 0.34823 0.30749 0.0
H503 H 0.59571 0.32749 0.39272 0.0
H504 H 0.60059 0.30812 0.30511 0.0
H505 H 0.46293 0.35656 0.37685 0.0
H506 H 0.48999 0.36208 0.44997 0.0
H507 H 0.49103 0.3859 0.36959 0.0
H508 H 0.55439 0.38563 0.59456 0.0
H509 H 0.55689 0.44517 0.40571 0.0
H510 H 0.56023 0.31678 0.48801 0.0
H511 H 0.5245 0.32668 0.51911 0.0
H512 H 0.55582 0.33307 0.57966 0.0
H513 H 0.56514 0.38687 0.26473 0.0
H514 H 0.56213 0.42649 0.2815 0.0
H515 H 0.52966 0.40224 0.27675 0.0
C516 C 0.18922 0.61546 0.27509 0.0
C517 C 0.21202 0.59794 0.30161 0.0
C518 C 0.16264 0.61705 0.31457 0.0
C519 C 0.15891 0.6007 0.38179 0.0
C520 C 0.18316 0.58619 0.4133 0.0
C521 C 0.20936 0.58491 0.37272 0.0
C522 C 0.13772 0.63368 0.28036 0.0
C523 C 0.18039 0.56886 0.48563 0.0
C524 C 0.09411 0.59382 0.51357 0.0
C525 C 0.08274 0.56548 0.49251 0.0
C526 C 0.11727 0.6077 0.47277 0.0
C527 C 0.12898 0.59265 0.41032 0.0
C528 C 0.11496 0.56576 0.38413 0.0
C529 C 0.09212 0.55241 0.42602 0.0
C530 C 0.13098 0.63683 0.50108 0.0
C531 C 0.12621 0.54918 0.31684 0.0
H532 H 0.19138 0.62626 0.22099 0.0
H533 H 0.22669 0.57126 0.39391 0.0
H534 H 0.12367 0.61789 0.24661 0.0
H535 H 0.12371 0.6435 0.3241 0.0
H536 H 0.1461 0.65181 0.2427 0.0
H537 H 0.20212 0.56237 0.50747 0.0
H538 H 0.16945 0.58222 0.52908 0.0
H539 H 0.1666 0.54816 0.47608 0.0
H540 H 0.08681 0.60383 0.5653 0.0
H541 H 0.08307 0.53052 0.40986 0.0
H542 H 0.13947 0.65095 0.4543 0.0
H543 H 0.14978 0.63208 0.53834 0.0
H544 H 0.11495 0.64961 0.53387 0.0
H545 H 0.12981 0.56465 0.26904 0.0
H546 H 0.11076 0.53066 0.29884 0.0
H547 H 0.14767 0.53953 0.33075 0.0
C548 C 0.05891 0.83746 0.11333 0.0
C549 C 0.07299 0.81022 0.10567 0.0
C550 C 0.06394 0.8608 0.06253 0.0
C551 C 0.0832 0.85673 0.00163 0.0
C552 C 0.09976 0.83061 0.99769 0.0
C553 C 0.09439 0.80753 0.04979 0.0
C554 C 0.04597 0.88841 0.0695 0.0
C555 C 0.12118 0.82587 0.93485 0.0
C556 C 0.04944 0.8907 0.83154 0.0
C557 C 0.06329 0.91922 0.83044 0.0
C558 C 0.05769 0.86915 0.88308 0.0
C559 C 0.08037 0.87633 0.93526 0.0
C560 C 0.09625 0.90415 0.93024 0.0
C561 C 0.08749 0.92542 0.8775 0.0
C562 C 0.04034 0.83962 0.88557 0.0
C563 C 0.12096 0.91236 0.98382 0.0
H564 H 0.04206 0.83988 0.15546 0.0
H565 H 0.10588 0.78685 0.04446 0.0
H566 H 0.05993 0.90895 0.06033 0.0
H567 H 0.02845 0.88775 0.02608 0.0
H568 H 0.03536 0.89001 0.12526 0.0
H569 H 0.1374 0.80891 0.94981 0.0
H570 H 0.10893 0.8178 0.88446 0.0
H571 H 0.13315 0.84711 0.91993 0.0
H572 H 0.03119 0.88558 0.79382 0.0
H573 H 0.09845 0.94739 0.87617 0.0
H574 H 0.02686 0.83852 0.93727 0.0
H575 H 0.05538 0.8207 0.88703 0.0
H576 H 0.02538 0.83652 0.83665 0.0
H577 H 0.1116 0.92067 0.0369 0.0
H578 H 0.13583 0.93031 0.96065 0.0
H579 H 0.13405 0.89263 0.99728 0.0
C580 C 0.69989 0.0872 0.01457 0.0
C581 C 0.69787 0.06156 0.05952 0.0
C582 C 0.67709 0.09375 0.96456 0.0
C583 C 0.65244 0.07353 0.95782 0.0
C584 C 0.64981 0.04842 0.00594 0.0
C585 C 0.67245 0.04293 0.05645 0.0
C586 C 0.68029 0.12141 0.91667 0.0
C587 C 0.62422 0.02589 0.00022 0.0
C588 C 0.58085 0.07565 0.85209 0.0
C589 C 0.58719 0.05628 0.7931 0.0
C590 C 0.60323 0.08528 0.90225 0.0
C591 C 0.63203 0.0748 0.89299 0.0
C592 C 0.63903 0.05866 0.82763 0.0
C593 C 0.61648 0.04969 0.7784 0.0
C594 C 0.59545 0.10407 0.96899 0.0
C595 C 0.66951 0.04744 0.81445 0.0
H596 H 0.71947 0.10179 0.01758 0.0
H597 H 0.67099 0.02295 0.09079 0.0
H598 H 0.6928 0.11614 0.86538 0.0
H599 H 0.6586 0.12973 0.8996 0.0
H600 H 0.69281 0.13956 0.94685 0.0
H601 H 0.62491 0.00841 0.04424 0.0
H602 H 0.60308 0.03725 0.0051 0.0
H603 H 0.62447 0.01468 0.94472 0.0
H604 H 0.55824 0.08115 0.86278 0.0
H605 H 0.62143 0.03534 0.73137 0.0
H606 H 0.61382 0.12013 0.98354 0.0
H607 H 0.59135 0.08934 0.01806 0.0
H608 H 0.57526 0.11664 0.95842 0.0
H609 H 0.68633 0.06579 0.82214 0.0
H610 H 0.67194 0.03794 0.75735 0.0
H611 H 0.67413 0.02973 0.85583 0.0
C612 C 0.44929 0.68807 0.08083 0.0
C613 C 0.4721 0.6849 0.13291 0.0
C614 C 0.44089 0.66441 0.03241 0.0
C615 C 0.45616 0.63745 0.03534 0.0
C616 C 0.47674 0.63306 0.09346 0.0
C617 C 0.48448 0.65685 0.1414 0.0
C618 C 0.41773 0.66933 0.97363 0.0
C619 C 0.49343 0.60459 0.0993 0.0
C620 C 0.44783 0.56866 0.91084 0.0
C621 C 0.47068 0.57472 0.85988 0.0
C622 C 0.44071 0.59003 0.96534 0.0
C623 C 0.45704 0.61767 0.96858 0.0
C624 C 0.47831 0.62466 0.91294 0.0
C625 C 0.4847 0.60318 0.85928 0.0
C626 C 0.41715 0.58213 0.02198 0.0
C627 C 0.49621 0.65391 0.91346 0.0
H628 H 0.43913 0.70948 0.07523 0.0
H629 H 0.5022 0.65411 0.18119 0.0
H630 H 0.42854 0.67644 0.92063 0.0
H631 H 0.40458 0.64837 0.96224 0.0
H632 H 0.4027 0.68708 0.99087 0.0
H633 H 0.47825 0.58469 0.09411 0.0
H634 H 0.50957 0.60373 0.05289 0.0
H635 H 0.50557 0.60316 0.15316 0.0
H636 H 0.43665 0.5468 0.91082 0.0
H637 H 0.5018 0.60829 0.81853 0.0
H638 H 0.40585 0.60228 0.0414 0.0
H639 H 0.42732 0.57162 0.07138 0.0
H640 H 0.40053 0.56583 0.9984 0.0
H641 H 0.48152 0.67311 0.91487 0.0
H642 H 0.51071 0.65639 0.86371 0.0
H643 H 0.51023 0.65524 0.96441 0.0
C644 C 0.84093 0.44581 0.9776 0.0
C645 C 0.83401 0.43191 0.0457 0.0
C646 C 0.86627 0.4387 0.93819 0.0
C647 C 0.88468 0.41652 0.96678 0.0
C648 C 0.87598 0.40009 0.03122 0.0
C649 C 0.85098 0.40845 0.07104 0.0
C650 C 0.87478 0.45713 0.87022 0.0
C651 C 0.89405 0.37522 0.0614 0.0
C652 C 0.94582 0.40636 0.82821 0.0
C653 C 0.96665 0.42787 0.85471 0.0
C654 C 0.92018 0.39931 0.86927 0.0
C655 C 0.91498 0.41491 0.93666 0.0
C656 C 0.93743 0.43406 0.96747 0.0
C657 C 0.96322 0.4399 0.92662 0.0
C658 C 0.89761 0.37718 0.83729 0.0
C659 C 0.93291 0.45115 0.03939 0.0
H660 H 0.82791 0.46413 0.95844 0.0
H661 H 0.84546 0.39756 0.12362 0.0
H662 H 0.89513 0.47081 0.88244 0.0
H663 H 0.8795 0.44236 0.82216 0.0
H664 H 0.85728 0.47241 0.85325 0.0
H665 H 0.87999 0.35853 0.09215 0.0
H666 H 0.90577 0.36362 0.01599 0.0
H667 H 0.9107 0.38465 0.10132 0.0
H668 H 0.94863 0.39638 0.77344 0.0
H669 H 0.9794 0.45617 0.94824 0.0
H670 H 0.8807 0.38935 0.80609 0.0
H671 H 0.88631 0.36421 0.88247 0.0
H672 H 0.90782 0.36138 0.79791 0.0
H673 H 0.91544 0.46749 0.03109 0.0
H674 H 0.95326 0.46354 0.05824 0.0
H675 H 0.92556 0.43571 0.08464 0.0
C676 C 0.10688 0.17768 0.07047 0.0
C677 C 0.09113 0.20353 0.05777 0.0
C678 C 0.109 0.15582 0.0146 0.0
C679 C 0.09528 0.16029 0.94454 0.0
C680 C 0.08405 0.18865 0.92771 0.0
C681 C 0.08181 0.20999 0.98512 0.0
C682 C 0.12163 0.1262 0.03491 0.0
C683 C 0.07046 0.19481 0.85251 0.0
C684 C 0.09153 0.09627 0.80226 0.0
C685 C 0.06351 0.08353 0.81744 0.0
C686 C 0.10241 0.12152 0.84256 0.0
C687 C 0.08501 0.13368 0.90001 0.0
C688 C 0.05708 0.12016 0.91666 0.0
C689 C 0.0466 0.09557 0.87461 0.0
C690 C 0.13191 0.13567 0.82183 0.0
C691 C 0.03802 0.1317 0.97888 0.0
H692 H 0.11422 0.17284 0.12684 0.0
H693 H 0.06972 0.23005 0.97526 0.0
H694 H 0.1034 0.11016 0.05025 0.0
H695 H 0.1335 0.11657 0.98694 0.0
H696 H 0.13691 0.12843 0.08341 0.0
H697 H 0.06923 0.21923 0.84222 0.0
H698 H 0.08322 0.18463 0.80682 0.0
H699 H 0.04778 0.18474 0.85069 0.0
H700 H 0.10448 0.08714 0.7574 0.0
H701 H 0.02505 0.08555 0.88684 0.0
H702 H 0.14483 0.14224 0.8724 0.0
H703 H 0.12842 0.15632 0.7892 0.0
H704 H 0.14503 0.12044 0.78714 0.0
H705 H 0.05032 0.13202 0.03262 0.0
H706 H 0.01743 0.11784 0.98632 0.0
H707 H 0.03197 0.15499 0.96672 0.0
C708 C 0.29978 0.01694 0.98058 0.0
C709 C 0.30528 0.02671 0.05392 0.0
C710 C 0.32069 0.02263 0.92398 0.0
C711 C 0.34769 0.03794 0.9421 0.0
C712 C 0.35121 0.05152 0.0134 0.0
C713 C 0.3298 0.04585 0.06844 0.0
C714 C 0.31557 0.00879 0.84777 0.0
C715 C 0.37942 0.0682 0.03539 0.0
C716 C 0.41483 0.00109 0.86499 0.0
C717 C 0.42465 0.02125 0.80973 0.0
C718 C 0.39014 0.00667 0.90865 0.0
C719 C 0.37427 0.03285 0.8958 0.0
C720 C 0.38413 0.05351 0.84037 0.0
C721 C 0.40948 0.04759 0.79832 0.0
C722 C 0.38102 0.98433 0.96851 0.0
C723 C 0.36749 0.08128 0.8239 0.0
H724 H 0.28081 0.00215 0.9693 0.0
H725 H 0.33395 0.05349 0.12533 0.0
H726 H 0.32445 0.02375 0.80309 0.0
H727 H 0.32717 0.98745 0.84439 0.0
H728 H 0.29178 0.00389 0.8371 0.0
H729 H 0.37637 0.08252 0.08548 0.0
H730 H 0.39636 0.0518 0.04884 0.0
H731 H 0.38796 0.08239 0.98886 0.0
H732 H 0.42666 0.98084 0.87442 0.0
H733 H 0.41687 0.06307 0.75504 0.0
H734 H 0.35875 0.97458 0.9559 0.0
H735 H 0.37994 0.99566 0.02374 0.0
H736 H 0.39645 0.96576 0.97313 0.0
H737 H 0.34647 0.0748 0.79547 0.0
H738 H 0.38017 0.09707 0.78715 0.0
H739 H 0.36189 0.09305 0.8764 0.0
C740 C 0.46721 0.27726 0.97013 0.0
C741 C 0.45391 0.27909 0.04046 0.0
C742 C 0.46355 0.29986 0.91667 0.0
C743 C 0.44664 0.32482 0.93508 0.0
C744 C 0.42944 0.32402 0.00101 0.0
C745 C 0.43317 0.30096 0.05289 0.0
C746 C 0.48119 0.29916 0.84538 0.0
C747 C 0.41068 0.34976 0.02252 0.0
C748 C 0.48603 0.39857 0.88862 0.0
C749 C 0.47005 0.4086 0.8272 0.0
C750 C 0.4779 0.37188 0.92514 0.0
C751 C 0.45352 0.35419 0.89839 0.0
C752 C 0.43678 0.36452 0.83723 0.0
C753 C 0.44513 0.39188 0.80262 0.0
C754 C 0.49597 0.36235 0.99154 0.0
C755 C 0.41105 0.34617 0.80598 0.0
H756 H 0.4832 0.26032 0.96032 0.0
H757 H 0.42278 0.30227 0.10735 0.0
H758 H 0.46857 0.30824 0.7979 0.0
H759 H 0.5016 0.31334 0.85235 0.0
H760 H 0.48755 0.27607 0.83135 0.0
H761 H 0.39399 0.34297 0.06517 0.0
H762 H 0.42499 0.36806 0.04652 0.0
H763 H 0.39929 0.35879 0.97299 0.0
H764 H 0.50525 0.41159 0.90771 0.0
H765 H 0.43303 0.39945 0.75432 0.0
H766 H 0.50684 0.34119 0.97836 0.0
H767 H 0.48154 0.35811 0.04067 0.0
H768 H 0.51325 0.37946 0.00745 0.0
H769 H 0.41945 0.3279 0.77079 0.0
H770 H 0.39665 0.35988 0.77066 0.0
H771 H 0.39766 0.33563 0.85131 0.0
C772 C 0.22034 0.56709 0.01406 0.0
C773 C 0.2377 0.55025 0.06183 0.0
C774 C 0.20308 0.55322 0.95794 0.0
C775 C 0.20361 0.52178 0.9486 0.0
C776 C 0.22374 0.50521 0.99068 0.0
C777 C 0.24047 0.51963 0.0474 0.0
C778 C 0.18206 0.57184 0.91411 0.0
C779 C 0.22568 0.47184 0.98063 0.0
C780 C 0.12797 0.48941 0.90084 0.0
C781 C 0.12893 0.48829 0.82238 0.0
C782 C 0.15279 0.49849 0.94281 0.0
C783 C 0.17947 0.5062 0.90562 0.0
C784 C 0.18139 0.50248 0.82709 0.0
C785 C 0.15599 0.49376 0.78619 0.0
C786 C 0.14972 0.50207 0.02659 0.0
C787 C 0.20965 0.50961 0.78561 0.0
H788 H 0.21862 0.59088 0.02422 0.0
H789 H 0.2539 0.50647 0.08401 0.0
H790 H 0.18318 0.56655 0.85355 0.0
H791 H 0.1592 0.56652 0.93284 0.0
H792 H 0.18673 0.59623 0.92189 0.0
H793 H 0.24654 0.4636 0.00393 0.0
H794 H 0.20709 0.46029 0.01022 0.0
H795 H 0.22408 0.46554 0.92058 0.0
H796 H 0.10732 0.48487 0.92958 0.0
H797 H 0.15709 0.49268 0.72564 0.0
H798 H 0.15204 0.52614 0.04169 0.0
H799 H 0.16737 0.49035 0.05613 0.0
H800 H 0.1281 0.49318 0.04738 0.0
H801 H 0.21241 0.53419 0.77833 0.0
H802 H 0.20957 0.49904 0.72925 0.0
H803 H 0.22893 0.50203 0.81757 0.0
C804 C 0.03484 0.78766 0.38578 0.0
C805 C 0.01849 0.77488 0.32653 0.0
C806 C 0.02231 0.80828 0.4342 0.0
C807 C 0.99268 0.81596 0.42315 0.0
C808 C 0.97496 0.7996 0.37083 0.0
C809 C 0.98817 0.77922 0.32256 0.0
C810 C 0.04195 0.82472 0.4902 0.0
C811 C 0.94297 0.80614 0.35963 0.0
C812 C 0.9691 0.87538 0.56005 0.0
C813 C 0.97742 0.90163 0.52105 0.0
C814 C 0.97148 0.84704 0.52683 0.0
C815 C 0.98289 0.84496 0.45349 0.0
C816 C 0.98889 0.87143 0.41175 0.0
C817 C 0.98582 0.89939 0.44582 0.0
C818 C 0.96385 0.81947 0.57242 0.0
C819 C 0.00096 0.87031 0.33302 0.0
H820 H 0.05828 0.78413 0.38885 0.0
H821 H 0.97548 0.76932 0.2767 0.0
H822 H 0.04716 0.84772 0.46954 0.0
H823 H 0.03066 0.82673 0.54481 0.0
H824 H 0.06296 0.81336 0.49913 0.0
H825 H 0.93078 0.78706 0.33226 0.0
H826 H 0.93227 0.81115 0.41375 0.0
H827 H 0.94127 0.82606 0.32319 0.0
H828 H 0.9622 0.87681 0.61796 0.0
H829 H 0.99202 0.91947 0.41484 0.0
H830 H 0.98405 0.81163 0.59983 0.0
H831 H 0.95471 0.80101 0.5367 0.0
H832 H 0.9477 0.8243 0.61699 0.0
H833 H 0.0232 0.86091 0.33401 0.0
H834 H 0.0027 0.89279 0.30665 0.0
H835 H 0.98673 0.85546 0.29729 0.0
C836 C 0.71539 0.03134 0.34594 0.0
C837 C 0.72886 0.01389 0.29166 0.0
C838 C 0.69547 0.0183 0.39715 0.0
C839 C 0.68911 0.98705 0.394 0.0
C840 C 0.70572 0.96893 0.34612 0.0
C841 C 0.72544 0.98264 0.29502 0.0
C842 C 0.67864 0.03848 0.44805 0.0
C843 C 0.70037 0.93546 0.34291 0.0
C844 C 0.63378 0.96075 0.54079 0.0
C845 C 0.60712 0.9642 0.50227 0.0
C846 C 0.66099 0.96583 0.50489 0.0
C847 C 0.66151 0.97485 0.42905 0.0
C848 C 0.63475 0.97596 0.38842 0.0
C849 C 0.60794 0.97044 0.42539 0.0
C850 C 0.68897 0.96361 0.54976 0.0
C851 C 0.63426 0.98528 0.30715 0.0
H852 H 0.71814 0.05552 0.34326 0.0
H853 H 0.73579 0.96912 0.25285 0.0
H854 H 0.65581 0.04011 0.42669 0.0
H855 H 0.6773 0.02914 0.50542 0.0
H856 H 0.6889 0.06142 0.45109 0.0
H857 H 0.71927 0.9242 0.31742 0.0
H858 H 0.6963 0.92613 0.39962 0.0
H859 H 0.68054 0.93015 0.30829 0.0
H860 H 0.63348 0.95564 0.60007 0.0
H861 H 0.58755 0.97287 0.39482 0.0
H862 H 0.69646 0.98628 0.56882 0.0
H863 H 0.70681 0.95441 0.51539 0.0
H864 H 0.68555 0.94933 0.60004 0.0
H865 H 0.64208 0.00902 0.30223 0.0
H866 H 0.61188 0.98294 0.28224 0.0
H867 H 0.64933 0.97163 0.2738 0.0
C868 C 0.51523 0.71209 0.40575 0.0
C869 C 0.53214 0.72161 0.34425 0.0
C870 C 0.52575 0.69088 0.45571 0.0
C871 C 0.554 0.67941 0.4441 0.0
C872 C 0.57291 0.69286 0.38994 0.0
C873 C 0.56164 0.7138 0.33994 0.0
C874 C 0.50498 0.67766 0.51369 0.0
C875 C 0.60371 0.68244 0.37851 0.0
C876 C 0.57075 0.61756 0.58118 0.0
C877 C 0.55932 0.5923 0.54231 0.0
C878 C 0.57166 0.64604 0.54783 0.0
C879 C 0.56024 0.64937 0.47469 0.0
C880 C 0.55086 0.62362 0.43325 0.0
C881 C 0.55085 0.59542 0.46728 0.0
C882 C 0.58299 0.67263 0.59299 0.0
C883 C 0.53851 0.626 0.35487 0.0
H884 H 0.49247 0.71835 0.40918 0.0
H885 H 0.57483 0.72125 0.29252 0.0
H886 H 0.49683 0.65514 0.49488 0.0
H887 H 0.51645 0.67495 0.56792 0.0
H888 H 0.4857 0.69175 0.52268 0.0
H889 H 0.61773 0.69973 0.3497 0.0
H890 H 0.61409 0.67682 0.43272 0.0
H891 H 0.6029 0.66195 0.34326 0.0
H892 H 0.57773 0.61537 0.63892 0.0
H893 H 0.54221 0.57609 0.43644 0.0
H894 H 0.56439 0.6825 0.62313 0.0
H895 H 0.59326 0.69022 0.55673 0.0
H896 H 0.59934 0.6659 0.63543 0.0
H897 H 0.51795 0.6386 0.35621 0.0
H898 H 0.53344 0.60374 0.32915 0.0
H899 H 0.55432 0.63849 0.31827 0.0
C900 C 0.81186 0.48382 0.34187 0.0
C901 C 0.81825 0.49296 0.26871 0.0
C902 C 0.83138 0.4914 0.40074 0.0
C903 C 0.85793 0.50786 0.38502 0.0
C904 C 0.86263 0.51984 0.31255 0.0
C905 C 0.84261 0.5123 0.25528 0.0
C906 C 0.82514 0.47896 0.47772 0.0
C907 C 0.89064 0.53725 0.29275 0.0
C908 C 0.91611 0.52892 0.53214 0.0
C909 C 0.93447 0.50449 0.52698 0.0
C910 C 0.89032 0.52998 0.48848 0.0
C911 C 0.88335 0.50648 0.43733 0.0
C912 C 0.9019 0.48184 0.43215 0.0
C913 C 0.92696 0.48103 0.47751 0.0
C914 C 0.87069 0.55622 0.49666 0.0
C915 C 0.89572 0.45652 0.3773 0.0
H916 H 0.79302 0.46876 0.35194 0.0
H917 H 0.84744 0.51923 0.19832 0.0
H918 H 0.83764 0.45838 0.48583 0.0
H919 H 0.83228 0.49523 0.52176 0.0
H920 H 0.80137 0.47307 0.48518 0.0
H921 H 0.88858 0.54937 0.23888 0.0
H922 H 0.89688 0.55363 0.33723 0.0
H923 H 0.90882 0.52152 0.2874 0.0
H924 H 0.92171 0.54697 0.57085 0.0
H925 H 0.94114 0.46217 0.47288 0.0
H926 H 0.8476 0.54818 0.50604 0.0
H927 H 0.871 0.56949 0.44429 0.0
H928 H 0.87767 0.57117 0.54373 0.0
H929 H 0.87381 0.44574 0.3886 0.0
H930 H 0.91246 0.43911 0.38019 0.0
H931 H 0.89529 0.46537 0.31933 0.0
loop_
_geom_bond_atom_site_label_1
_geom_bond_atom_site_label_2
_geom_bond_distance
_geom_bond_site_symmetry_2
_ccdc_geom_bond_type
H0 C3 0.931 . S
H1 C6 0.928 . S
H2 C8 0.930 . S
C3 H0 0.931 . S
C3 C4 1.413 . S
C3 C5 1.360 1_554 S
C4 C3 1.413 . S
C4 C8 1.429 . S
C5 C3 1.360 1_556 S
C5 C6 1.372 . S
C6 H1 0.928 . S
C6 C5 1.372 . S
C6 C7 1.404 1_556 S
C7 C6 1.404 1_554 S
C7 C8 1.391 . S
C8 H2 0.930 . S
C8 C4 1.429 . S
C8 C7 1.391 . S
H9 C12 0.931 . S
H10 C15 0.928 1_556 S
H11 C17 0.930 . S
C12 H9 0.931 . S
C12 C13 1.413 . S
C12 C14 1.360 . S
C13 C12 1.413 . S
C13 C17 1.429 . S
C14 C12 1.360 . S
C14 C15 1.372 . S
C15 H10 0.928 1_554 S
C15 C14 1.372 . S
C15 C16 1.404 . S
C16 C15 1.404 . S
C16 C17 1.391 . S
C17 H11 0.930 . S
C17 C13 1.429 . S
C17 C16 1.391 . S
H18 C21 0.931 . S
H19 C24 0.928 . S
H20 C26 0.931 . S
C21 H18 0.931 . S
C21 C22 1.413 . S
C21 C23 1.360 . S
C22 C21 1.413 . S
C22 C26 1.429 1_565 S
C23 C21 1.360 . S
C23 C24 1.373 1_554 S
C24 H19 0.928 . S
C24 C23 1.373 1_556 S
C24 C25 1.404 1_556 S
C25 C24 1.404 1_554 S
C25 C26 1.390 1_565 S
C26 H20 0.931 . S
C26 C22 1.429 1_545 S
C26 C25 1.390 1_545 S
H27 C30 0.931 . S
H28 C33 0.928 . S
H29 C35 0.930 . S
C30 H27 0.931 . S
C30 C31 1.413 1_554 S
C30 C32 1.360 . S
C31 C30 1.413 1_556 S
C31 C35 1.429 . S
C32 C30 1.360 . S
C32 C33 1.372 . S
C33 H28 0.928 . S
C33 C32 1.372 . S
C33 C34 1.404 . S
C34 C33 1.404 . S
C34 C35 1.391 1_554 S
C35 H29 0.930 . S
C35 C31 1.429 . S
C35 C34 1.391 1_556 S
H36 C39 0.931 . S
H37 C42 0.928 . S
H38 C44 0.930 . S
C39 H36 0.931 . S
C39 C40 1.413 . S
C39 C41 1.360 . S
C40 C39 1.413 . S
C40 C44 1.429 . S
C41 C39 1.360 . S
C41 C42 1.372 . S
C42 H37 0.928 . S
C42 C41 1.372 . S
C42 C43 1.404 . S
C43 C42 1.404 . S
C43 C44 1.391 . S
C44 H38 0.930 . S
C44 C40 1.429 . S
C44 C43 1.391 . S
H45 C48 0.931 . S
H46 C51 0.928 . S
H47 C53 0.930 . S
C48 H45 0.931 . S
C48 C49 1.413 . S
C48 C50 1.360 . S
C49 C48 1.413 . S
C49 C53 1.429 . S
C50 C48 1.360 . S
C50 C51 1.372 . S
C51 H46 0.928 . S
C51 C50 1.372 . S
C51 C52 1.404 . S
C52 C51 1.404 . S
C52 C53 1.391 . S
C53 H47 0.930 . S
C53 C49 1.429 . S
C53 C52 1.391 . S
H54 C57 0.930 . S
H55 C60 0.928 . S
H56 C62 0.929 . S
C57 H54 0.930 . S
C57 C58 1.413 . S
C57 C59 1.360 . S
C58 C57 1.413 . S
C58 C62 1.429 1_565 S
C59 C57 1.360 . S
C59 C60 1.372 . S
C60 H55 0.928 . S
C60 C59 1.372 . S
C60 C61 1.404 . S
C61 C60 1.404 . S
C61 C62 1.391 1_565 S
C62 H56 0.929 . S
C62 C58 1.429 1_545 S
C62 C61 1.391 1_545 S
H63 C66 0.931 . S
H64 C69 0.928 . S
H65 C71 0.930 . S
C66 H63 0.931 . S
C66 C67 1.413 . S
C66 C68 1.360 . S
C67 C66 1.413 . S
C67 C71 1.429 . S
C68 C66 1.360 . S
C68 C69 1.372 . S
C69 H64 0.928 . S
C69 C68 1.372 . S
C69 C70 1.404 . S
C70 C69 1.404 . S
C70 C71 1.391 . S
C71 H65 0.930 . S
C71 C67 1.429 . S
C71 C70 1.391 . S
O72 Zn73 1.953 . S
O72 C88 1.233 . S
Zn73 O72 1.953 . S
Zn73 O74 1.950 . S
Zn73 O80 1.919 1_565 S
Zn73 O85 1.924 . S
O74 Zn73 1.950 . S
O74 Zn75 1.900 1_565 S
O74 Zn76 1.953 . S
O74 Zn77 1.964 . S
Zn75 O74 1.900 1_545 S
Zn75 O78 1.933 1_455 S
Zn75 O81 1.941 . S
Zn75 O82 1.965 . S
Zn76 O74 1.953 . S
Zn76 O83 1.938 1_565 S
Zn76 O84 1.906 . S
Zn76 O94 1.953 . S
Zn77 O74 1.964 . S
Zn77 O79 1.932 1_455 S
Zn77 O86 1.977 1_455 S
Zn77 O87 1.910 . S
O78 Zn75 1.933 1_655 S
O78 C89 1.226 . S
O79 Zn77 1.932 1_655 S
O79 C89 1.307 1_565 S
O80 Zn73 1.919 1_545 S
O80 C91 1.253 . S
O81 Zn75 1.941 . S
O81 C91 1.283 . S
O82 Zn75 1.965 . S
O82 C90 1.303 . S
O83 Zn76 1.938 1_545 S
O83 C90 1.247 . S
O84 Zn76 1.906 . S
O84 C92 1.296 1_455 S
O85 Zn73 1.924 . S
O85 C93 1.311 . S
O86 Zn77 1.977 1_655 S
O86 C92 1.273 . S
O87 Zn77 1.910 . S
O87 C93 1.231 . S
C88 O72 1.233 . S
C88 O94 1.298 . S
C89 O78 1.226 . S
C89 O79 1.307 1_545 S
C90 O82 1.303 . S
C90 O83 1.247 . S
C91 O80 1.253 . S
C91 O81 1.283 . S
C92 O84 1.296 1_655 S
C92 O86 1.273 . S
C93 O85 1.311 . S
C93 O87 1.231 . S
O94 Zn76 1.953 . S
O94 C88 1.298 . S
O95 Zn96 1.953 . S
O95 C111 1.225 . S
Zn96 O95 1.953 . S
Zn96 O97 1.949 . S
Zn96 O103 1.919 . S
Zn96 O108 1.924 . S
O97 Zn96 1.949 . S
O97 Zn98 1.923 1_545 S
O97 Zn99 1.950 . S
O97 Zn100 1.945 1_545 S
Zn98 O97 1.923 1_565 S
Zn98 O101 1.933 . S
Zn98 O104 1.941 . S
Zn98 O105 1.965 . S
Zn99 O97 1.950 . S
Zn99 O106 1.938 . S
Zn99 O107 1.906 1_545 S
Zn99 O117 1.953 . S
Zn100 O97 1.945 1_565 S
Zn100 O102 1.932 . S
Zn100 O109 1.977 . S
Zn100 O110 1.910 1_565 S
O101 Zn98 1.933 . S
O101 C112 1.226 . S
O102 Zn100 1.932 . S
O102 C112 1.307 . S
O103 Zn96 1.919 . S
O103 C114 1.253 . S
O104 Zn98 1.941 . S
O104 C114 1.283 1_565 S
O105 Zn98 1.965 . S
O105 C113 1.303 . S
O106 Zn99 1.938 . S
O106 C113 1.247 1_545 S
O107 Zn99 1.906 1_565 S
O107 C115 1.304 . S
O108 Zn96 1.924 . S
O108 C116 1.311 . S
O109 Zn100 1.977 . S
O109 C115 1.272 . S
O110 Zn100 1.910 1_545 S
O110 C116 1.231 . S
C111 O95 1.225 . S
C111 O117 1.298 . S
C112 O101 1.226 . S
C112 O102 1.307 . S
C113 O105 1.303 . S
C113 O106 1.247 1_565 S
C114 O103 1.253 . S
C114 O104 1.283 1_545 S
C115 O107 1.304 . S
C115 O109 1.272 . S
C116 O108 1.311 . S
C116 O110 1.231 . S
O117 Zn99 1.953 . S
O117 C111 1.298 . S
O118 Zn119 1.953 . S
O118 C134 1.225 . S
Zn119 O118 1.953 . S
Zn119 O120 1.949 . S
Zn119 O126 1.919 . S
Zn119 O131 1.924 . S
O120 Zn119 1.949 . S
O120 Zn121 1.923 . S
O120 Zn122 1.950 . S
O120 Zn123 1.945 . S
Zn121 O120 1.923 . S
Zn121 O124 1.933 . S
Zn121 O127 1.941 . S
Zn121 O128 1.965 . S
Zn122 O120 1.950 . S
Zn122 O129 1.938 . S
Zn122 O130 1.906 . S
Zn122 O140 1.953 . S
Zn123 O120 1.945 . S
Zn123 O125 1.932 . S
Zn123 O132 1.977 . S
Zn123 O133 1.910 . S
O124 Zn121 1.933 . S
O124 C135 1.226 . S
O125 Zn123 1.932 . S
O125 C135 1.307 . S
O126 Zn119 1.919 . S
O126 C137 1.253 . S
O127 Zn121 1.941 . S
O127 C137 1.283 . S
O128 Zn121 1.965 . S
O128 C136 1.303 . S
O129 Zn122 1.938 . S
O129 C136 1.247 . S
O130 Zn122 1.906 . S
O130 C138 1.304 . S
O131 Zn119 1.924 . S
O131 C139 1.311 . S
O132 Zn123 1.977 . S
O132 C138 1.272 . S
O133 Zn123 1.910 . S
O133 C139 1.231 . S
C134 O118 1.225 . S
C134 O140 1.298 . S
C135 O124 1.226 . S
C135 O125 1.307 . S
C136 O128 1.303 . S
C136 O129 1.247 . S
C137 O126 1.253 . S
C137 O127 1.283 . S
C138 O130 1.304 . S
C138 O132 1.272 . S
C139 O131 1.311 . S
C139 O133 1.231 . S
O140 Zn122 1.953 . S
O140 C134 1.298 . S
O141 Zn142 1.953 1_655 S
O141 C157 1.225 . S
Zn142 O141 1.953 1_455 S
Zn142 O143 1.949 . S
Zn142 O149 1.919 . S
Zn142 O154 1.924 . S
O143 Zn142 1.949 . S
O143 Zn144 1.923 . S
O143 Zn145 1.950 1_455 S
O143 Zn146 1.945 . S
Zn144 O143 1.923 . S
Zn144 O147 1.933 . S
Zn144 O150 1.941 1_455 S
Zn144 O151 1.965 1_455 S
Zn145 O143 1.950 1_655 S
Zn145 O152 1.938 . S
Zn145 O153 1.906 1_655 S
Zn145 O163 1.953 . S
Zn146 O143 1.945 . S
Zn146 O148 1.932 . S
Zn146 O155 1.977 . S
Zn146 O156 1.910 . S
O147 Zn144 1.933 . S
O147 C158 1.226 . S
O148 Zn146 1.932 . S
O148 C158 1.307 . S
O149 Zn142 1.919 . S
O149 C160 1.253 . S
O150 Zn144 1.941 1_655 S
O150 C160 1.283 1_655 S
O151 Zn144 1.965 1_655 S
O151 C159 1.303 . S
O152 Zn145 1.938 . S
O152 C159 1.247 . S
O153 Zn145 1.906 1_455 S
O153 C161 1.304 . S
O154 Zn142 1.924 . S
O154 C162 1.311 . S
O155 Zn146 1.977 . S
O155 C161 1.272 . S
O156 Zn146 1.910 . S
O156 C162 1.231 . S
C157 O141 1.225 . S
C157 O163 1.298 . S
C158 O147 1.226 . S
C158 O148 1.307 . S
C159 O151 1.303 . S
C159 O152 1.247 . S
C160 O149 1.253 . S
C160 O150 1.283 1_455 S
C161 O153 1.304 . S
C161 O155 1.272 . S
C162 O154 1.311 . S
C162 O156 1.231 . S
O163 Zn145 1.953 . S
O163 C157 1.298 . S
C164 C165 1.391 1_545 S
C164 C166 1.394 . S
C164 H180 0.931 . S
C165 C164 1.391 1_565 S
C165 C169 1.376 . S
C166 C164 1.394 . S
C166 C167 1.369 1_545 S
C166 C170 1.531 . S
C167 C166 1.369 1_565 S
C167 C168 1.410 . S
C167 C175 1.503 . S
C168 C167 1.410 . S
C168 C169 1.392 . S
C168 C171 1.511 . S
C169 C165 1.376 . S
C169 C168 1.392 . S
C169 H181 0.929 . S
C170 C166 1.531 . S
C170 H182 0.960 1_545 S
C170 H183 0.962 . S
C170 H184 0.960 . S
C171 C168 1.511 . S
C171 H185 0.961 . S
C171 H186 0.961 . S
C171 H187 0.961 . S
C172 C173 1.370 1_545 S
C172 C174 1.363 . S
C172 H188 0.931 . S
C173 C172 1.370 1_565 S
C173 C177 1.408 . S
C174 C172 1.363 . S
C174 C175 1.370 1_545 S
C174 C178 1.524 . S
C175 C167 1.503 . S
C175 C174 1.370 1_565 S
C175 C176 1.403 . S
C176 C175 1.403 . S
C176 C177 1.404 . S
C176 C179 1.539 . S
C177 C173 1.408 . S
C177 C176 1.404 . S
C177 H189 0.930 . S
C178 C174 1.524 . S
C178 H190 0.956 . S
C178 H191 0.961 . S
C178 H192 0.961 . S
C179 C176 1.539 . S
C179 H193 0.958 . S
C179 H194 0.961 . S
C179 H195 0.960 . S
H180 C164 0.931 . S
H181 C169 0.929 . S
H182 C170 0.960 1_565 S
H183 C170 0.962 . S
H184 C170 0.960 . S
H185 C171 0.961 . S
H186 C171 0.961 . S
H187 C171 0.961 . S
H188 C172 0.931 . S
H189 C177 0.930 . S
H190 C178 0.956 . S
H191 C178 0.961 . S
H192 C178 0.961 . S
H193 C179 0.958 . S
H194 C179 0.961 . S
H195 C179 0.960 . S
C196 C197 1.391 . S
C196 C198 1.394 . S
C196 H212 0.931 . S
C197 C196 1.391 . S
C197 C201 1.376 . S
C198 C196 1.394 . S
C198 C199 1.369 . S
C198 C202 1.531 . S
C199 C198 1.369 . S
C199 C200 1.410 . S
C199 C207 1.503 . S
C200 C199 1.410 . S
C200 C201 1.392 . S
C200 C203 1.511 . S
C201 C197 1.376 . S
C201 C200 1.392 . S
C201 H213 0.929 . S
C202 C198 1.531 . S
C202 H214 0.960 . S
C202 H215 0.962 . S
C202 H216 0.960 . S
C203 C200 1.511 . S
C203 H217 0.961 . S
C203 H218 0.961 . S
C203 H219 0.961 . S
C204 C205 1.370 . S
C204 C206 1.363 . S
C204 H220 0.931 . S
C205 C204 1.370 . S
C205 C209 1.408 . S
C206 C204 1.363 . S
C206 C207 1.370 . S
C206 C210 1.524 . S
C207 C199 1.503 . S
C207 C206 1.370 . S
C207 C208 1.403 . S
C208 C207 1.403 . S
C208 C209 1.404 . S
C208 C211 1.539 . S
C209 C205 1.408 . S
C209 C208 1.404 . S
C209 H221 0.930 . S
C210 C206 1.524 . S
C210 H222 0.956 . S
C210 H223 0.961 . S
C210 H224 0.961 . S
C211 C208 1.539 . S
C211 H225 0.958 . S
C211 H226 0.961 . S
C211 H227 0.960 . S
H212 C196 0.931 . S
H213 C201 0.929 . S
H214 C202 0.960 . S
H215 C202 0.962 . S
H216 C202 0.960 . S
H217 C203 0.961 . S
H218 C203 0.961 . S
H219 C203 0.961 . S
H220 C204 0.931 . S
H221 C209 0.930 . S
H222 C210 0.956 . S
H223 C210 0.961 . S
H224 C210 0.961 . S
H225 C211 0.958 . S
H226 C211 0.961 . S
H227 C211 0.960 . S
C228 C229 1.391 . S
C228 C230 1.394 . S
C228 H244 0.931 . S
C229 C228 1.391 . S
C229 C233 1.376 . S
C230 C228 1.394 . S
C230 C231 1.369 . S
C230 C234 1.531 . S
C231 C230 1.369 . S
C231 C232 1.410 . S
C231 C239 1.503 . S
C232 C231 1.410 . S
C232 C233 1.392 . S
C232 C235 1.511 . S
C233 C229 1.376 . S
C233 C232 1.392 . S
C233 H245 0.929 . S
C234 C230 1.531 . S
C234 H246 0.960 . S
C234 H247 0.962 . S
C234 H248 0.960 . S
C235 C232 1.511 . S
C235 H249 0.961 . S
C235 H250 0.961 . S
C235 H251 0.961 . S
C236 C237 1.370 . S
C236 C238 1.363 . S
C236 H252 0.931 . S
C237 C236 1.370 . S
C237 C241 1.408 . S
C238 C236 1.363 . S
C238 C239 1.370 . S
C238 C242 1.524 . S
C239 C231 1.503 . S
C239 C238 1.370 . S
C239 C240 1.403 . S
C240 C239 1.403 . S
C240 C241 1.404 . S
C240 C243 1.539 . S
C241 C237 1.408 . S
C241 C240 1.404 . S
C241 H253 0.930 . S
C242 C238 1.524 . S
C242 H254 0.956 . S
C242 H255 0.961 . S
C242 H256 0.961 . S
C243 C240 1.539 . S
C243 H257 0.958 . S
C243 H258 0.961 . S
C243 H259 0.960 . S
H244 C228 0.931 . S
H245 C233 0.929 . S
H246 C234 0.960 . S
H247 C234 0.962 . S
H248 C234 0.960 . S
H249 C235 0.961 . S
H250 C235 0.961 . S
H251 C235 0.961 . S
H252 C236 0.931 . S
H253 C241 0.930 . S
H254 C242 0.956 . S
H255 C242 0.961 . S
H256 C242 0.961 . S
H257 C243 0.958 . S
H258 C243 0.961 . S
H259 C243 0.960 . S
C260 C261 1.391 . S
C260 C262 1.394 . S
C260 H276 0.931 . S
C261 C260 1.391 . S
C261 C265 1.376 . S
C262 C260 1.394 . S
C262 C263 1.369 . S
C262 C266 1.531 . S
C263 C262 1.369 . S
C263 C264 1.410 . S
C263 C271 1.503 . S
C264 C263 1.410 . S
C264 C265 1.392 . S
C264 C267 1.511 . S
C265 C261 1.376 . S
C265 C264 1.392 . S
C265 H277 0.929 . S
C266 C262 1.531 . S
C266 H278 0.960 . S
C266 H279 0.962 . S
C266 H280 0.960 . S
C267 C264 1.511 . S
C267 H281 0.961 . S
C267 H282 0.961 . S
C267 H283 0.973 . S
C268 C269 1.370 . S
C268 C270 1.363 . S
C268 H284 0.931 . S
C269 C268 1.370 . S
C269 C273 1.408 . S
C270 C268 1.363 . S
C270 C271 1.370 . S
C270 C274 1.524 . S
C271 C263 1.503 . S
C271 C270 1.370 . S
C271 C272 1.403 . S
C272 C271 1.403 . S
C272 C273 1.404 . S
C272 C275 1.539 . S
C273 C269 1.408 . S
C273 C272 1.404 . S
C273 H285 0.930 . S
C274 C270 1.524 . S
C274 H286 0.956 . S
C274 H287 0.961 . S
C274 H288 0.961 . S
C275 C272 1.539 . S
C275 H289 0.958 . S
C275 H290 0.961 . S
C275 H291 0.960 . S
H276 C260 0.931 . S
H277 C265 0.929 . S
H278 C266 0.960 . S
H279 C266 0.962 . S
H280 C266 0.960 . S
H281 C267 0.961 . S
H282 C267 0.961 . S
H283 C267 0.973 . S
H284 C268 0.931 . S
H285 C273 0.930 . S
H286 C274 0.956 . S
H287 C274 0.961 . S
H288 C274 0.961 . S
H289 C275 0.958 . S
H290 C275 0.961 . S
H291 C275 0.960 . S
C292 C293 1.391 1_556 S
C292 C294 1.394 . S
C292 H308 0.931 . S
C293 C292 1.391 1_554 S
C293 C297 1.376 1_545 S
C294 C292 1.394 . S
C294 C295 1.369 . S
C294 C298 1.531 . S
C295 C294 1.369 . S
C295 C296 1.410 1_546 S
C295 C303 1.503 . S
C296 C295 1.410 1_564 S
C296 C297 1.392 . S
C296 C299 1.511 . S
C297 C293 1.376 1_565 S
C297 C296 1.392 . S
C297 H309 0.929 . S
C298 C294 1.531 . S
C298 H310 0.960 . S
C298 H311 0.962 . S
C298 H312 0.960 . S
C299 C296 1.511 . S
C299 H313 0.961 . S
C299 H314 0.961 . S
C299 H315 0.961 1_565 S
C300 C301 1.370 1_565 S
C300 C302 1.363 . S
C300 H316 0.931 . S
C301 C300 1.370 1_545 S
C301 C305 1.408 . S
C302 C300 1.363 . S
C302 C303 1.370 1_565 S
C302 C306 1.524 . S
C303 C295 1.503 . S
C303 C302 1.370 1_545 S
C303 C304 1.403 . S
C304 C303 1.403 . S
C304 C305 1.404 . S
C304 C307 1.539 . S
C305 C301 1.408 . S
C305 C304 1.404 . S
C305 H317 0.930 . S
C306 C302 1.524 . S
C306 H318 0.956 . S
C306 H319 0.961 . S
C306 H320 0.961 . S
C307 C304 1.539 . S
C307 H321 0.958 . S
C307 H322 0.961 . S
C307 H323 0.960 . S
H308 C292 0.931 . S
H309 C297 0.929 . S
H310 C298 0.960 . S
H311 C298 0.962 . S
H312 C298 0.960 . S
H313 C299 0.961 . S
H314 C299 0.961 . S
H315 C299 0.961 1_545 S
H316 C300 0.931 . S
H317 C305 0.930 . S
H318 C306 0.956 . S
H319 C306 0.961 . S
H320 C306 0.961 . S
H321 C307 0.958 . S
H322 C307 0.961 . S
H323 C307 0.960 . S
C324 C325 1.391 . S
C324 C326 1.394 . S
C324 H340 0.931 . S
C325 C324 1.391 . S
C325 C329 1.376 . S
C326 C324 1.394 . S
C326 C327 1.369 . S
C326 C330 1.531 . S
C327 C326 1.369 . S
C327 C328 1.410 . S
C327 C335 1.503 . S
C328 C327 1.410 . S
C328 C329 1.392 . S
C328 C331 1.511 . S
C329 C325 1.376 . S
C329 C328 1.392 . S
C329 H341 0.929 1_556 S
C330 C326 1.531 . S
C330 H342 0.960 . S
C330 H343 0.962 . S
C330 H344 0.960 . S
C331 C328 1.511 . S
C331 H345 0.961 . S
C331 H346 0.961 . S
C331 H347 0.961 . S
C332 C333 1.370 . S
C332 C334 1.363 . S
C332 H348 0.931 . S
C333 C332 1.370 . S
C333 C337 1.408 . S
C334 C332 1.363 . S
C334 C335 1.370 . S
C334 C338 1.524 . S
C335 C327 1.503 . S
C335 C334 1.370 . S
C335 C336 1.403 . S
C336 C335 1.403 . S
C336 C337 1.404 . S
C336 C339 1.539 . S
C337 C333 1.408 . S
C337 C336 1.404 . S
C337 H349 0.930 . S
C338 C334 1.524 . S
C338 H350 0.956 . S
C338 H351 0.961 . S
C338 H352 0.961 . S
C339 C336 1.539 . S
C339 H353 0.958 . S
C339 H354 0.961 . S
C339 H355 0.960 . S
H340 C324 0.931 . S
H341 C329 0.929 1_554 S
H342 C330 0.960 . S
H343 C330 0.962 . S
H344 C330 0.960 . S
H345 C331 0.961 . S
H346 C331 0.961 . S
H347 C331 0.961 . S
H348 C332 0.931 . S
H349 C337 0.930 . S
H350 C338 0.956 . S
H351 C338 0.961 . S
H352 C338 0.961 . S
H353 C339 0.958 . S
H354 C339 0.961 . S
H355 C339 0.960 . S
C356 C357 1.391 . S
C356 C358 1.394 . S
C356 H372 0.931 . S
C357 C356 1.391 . S
C357 C361 1.376 1_556 S
C358 C356 1.394 . S
C358 C359 1.369 . S
C358 C362 1.531 . S
C359 C358 1.369 . S
C359 C360 1.410 . S
C359 C367 1.503 . S
C360 C359 1.410 . S
C360 C361 1.392 1_556 S
C360 C363 1.511 . S
C361 C357 1.376 1_554 S
C361 C360 1.392 1_554 S
C361 H373 0.929 . S
C362 C358 1.531 . S
C362 H374 0.960 . S
C362 H375 0.962 . S
C362 H376 0.960 . S
C363 C360 1.511 . S
C363 H377 0.961 1_556 S
C363 H378 0.961 . S
C363 H379 0.961 . S
C364 C365 1.370 . S
C364 C366 1.363 . S
C364 H380 0.931 . S
C365 C364 1.370 . S
C365 C369 1.408 . S
C366 C364 1.363 . S
C366 C367 1.370 . S
C366 C370 1.524 . S
C367 C359 1.503 . S
C367 C366 1.370 . S
C367 C368 1.403 . S
C368 C367 1.403 . S
C368 C369 1.404 . S
C368 C371 1.539 . S
C369 C365 1.408 . S
C369 C368 1.404 . S
C369 H381 0.930 . S
C370 C366 1.524 . S
C370 H382 0.956 . S
C370 H383 0.961 . S
C370 H384 0.961 . S
C371 C368 1.539 . S
C371 H385 0.958 . S
C371 H386 0.961 . S
C371 H387 0.960 . S
H372 C356 0.931 . S
H373 C361 0.929 . S
H374 C362 0.960 . S
H375 C362 0.962 . S
H376 C362 0.960 . S
H377 C363 0.961 1_554 S
H378 C363 0.961 . S
H379 C363 0.961 . S
H380 C364 0.931 . S
H381 C369 0.930 . S
H382 C370 0.956 . S
H383 C370 0.961 . S
H384 C370 0.961 . S
H385 C371 0.958 . S
H386 C371 0.961 . S
H387 C371 0.960 . S
C388 C389 1.391 1_456 S
C388 C390 1.394 . S
C388 H404 0.931 . S
C389 C388 1.391 1_654 S
C389 C393 1.376 . S
C390 C388 1.394 . S
C390 C391 1.369 . S
C390 C394 1.531 . S
C391 C390 1.369 . S
C391 C392 1.410 1_456 S
C391 C399 1.503 . S
C392 C391 1.410 1_654 S
C392 C393 1.392 . S
C392 C395 1.511 . S
C393 C389 1.376 . S
C393 C392 1.392 . S
C393 H405 0.929 . S
C394 C390 1.531 . S
C394 H406 0.960 . S
C394 H407 0.962 . S
C394 H408 0.960 . S
C395 C392 1.511 . S
C395 H409 0.961 . S
C395 H410 0.961 1_554 S
C395 H411 0.961 . S
C396 C397 1.370 1_655 S
C396 C398 1.363 . S
C396 H412 0.931 . S
C397 C396 1.370 1_455 S
C397 C401 1.408 . S
C398 C396 1.363 . S
C398 C399 1.370 1_655 S
C398 C402 1.524 . S
C399 C391 1.503 . S
C399 C398 1.370 1_455 S
C399 C400 1.403 . S
C400 C399 1.403 . S
C400 C401 1.404 . S
C400 C403 1.539 . S
C401 C397 1.408 . S
C401 C400 1.404 . S
C401 H413 0.930 . S
C402 C398 1.524 . S
C402 H414 0.956 . S
C402 H415 0.961 . S
C402 H416 0.961 . S
C403 C400 1.539 . S
C403 H417 0.958 . S
C403 H418 0.961 . S
C403 H419 0.960 1_556 S
H404 C388 0.931 . S
H405 C393 0.929 . S
H406 C394 0.960 . S
H407 C394 0.962 . S
H408 C394 0.960 . S
H409 C395 0.961 . S
H410 C395 0.961 1_556 S
H411 C395 0.961 . S
H412 C396 0.931 . S
H413 C401 0.930 . S
H414 C402 0.956 . S
H415 C402 0.961 . S
H416 C402 0.961 . S
H417 C403 0.958 . S
H418 C403 0.961 . S
H419 C403 0.960 1_554 S
C420 C421 1.391 . S
C420 C422 1.394 . S
C420 H436 0.931 . S
C421 C420 1.391 . S
C421 C425 1.376 . S
C422 C420 1.394 . S
C422 C423 1.369 . S
C422 C426 1.531 . S
C423 C422 1.369 . S
C423 C424 1.410 . S
C423 C431 1.503 . S
C424 C423 1.410 . S
C424 C425 1.392 . S
C424 C427 1.511 . S
C425 C421 1.376 . S
C425 C424 1.392 . S
C425 H437 0.929 . S
C426 C422 1.531 . S
C426 H438 0.960 . S
C426 H439 0.962 . S
C426 H440 0.960 . S
C427 C424 1.511 . S
C427 H441 0.961 . S
C427 H442 0.961 . S
C427 H443 0.961 . S
C428 C429 1.370 . S
C428 C430 1.363 . S
C428 H444 0.931 . S
C429 C428 1.370 . S
C429 C433 1.408 . S
C430 C428 1.363 . S
C430 C431 1.370 . S
C430 C434 1.524 . S
C431 C423 1.503 . S
C431 C430 1.370 . S
C431 C432 1.403 . S
C432 C431 1.403 . S
C432 C433 1.404 . S
C432 C435 1.539 . S
C433 C429 1.408 . S
C433 C432 1.404 . S
C433 H445 0.930 . S
C434 C430 1.524 . S
C434 H446 0.956 . S
C434 H447 0.961 . S
C434 H448 0.961 . S
C435 C432 1.539 . S
C435 H449 0.958 . S
C435 H450 0.961 . S
C435 H451 0.960 . S
H436 C420 0.931 . S
H437 C425 0.929 . S
H438 C426 0.960 . S
H439 C426 0.962 . S
H440 C426 0.960 . S
H441 C427 0.961 . S
H442 C427 0.961 . S
H443 C427 0.961 . S
H444 C428 0.931 . S
H445 C433 0.930 . S
H446 C434 0.956 . S
H447 C434 0.961 . S
H448 C434 0.961 . S
H449 C435 0.958 . S
H450 C435 0.961 . S
H451 C435 0.960 . S
C452 C453 1.391 . S
C452 C454 1.394 . S
C452 H468 0.931 . S
C453 C452 1.391 . S
C453 C457 1.376 1_565 S
C454 C452 1.394 . S
C454 C455 1.369 . S
C454 C458 1.531 . S
C455 C454 1.369 . S
C455 C456 1.410 1_565 S
C455 C463 1.503 . S
C456 C455 1.410 1_545 S
C456 C457 1.392 . S
C456 C459 1.511 . S
C457 C453 1.376 1_545 S
C457 C456 1.392 . S
C457 H469 0.929 . S
C458 C454 1.531 . S
C458 H470 0.960 . S
C458 H471 0.962 . S
C458 H472 0.960 . S
C459 C456 1.511 . S
C459 H473 0.961 . S
C459 H474 0.961 . S
C459 H475 0.961 . S
C460 C461 1.370 1_545 S
C460 C462 1.363 . S
C460 H476 0.931 . S
C461 C460 1.370 1_565 S
C461 C465 1.408 . S
C462 C460 1.363 . S
C462 C463 1.370 1_545 S
C462 C466 1.524 . S
C463 C455 1.503 . S
C463 C462 1.370 1_565 S
C463 C464 1.403 . S
C464 C463 1.403 . S
C464 C465 1.404 . S
C464 C467 1.539 . S
C465 C461 1.408 . S
C465 C464 1.404 . S
C465 H477 0.930 . S
C466 C462 1.524 . S
C466 H478 0.956 . S
C466 H479 0.961 . S
C466 H480 0.961 . S
C467 C464 1.539 . S
C467 H481 0.958 . S
C467 H482 0.961 . S
C467 H483 0.960 . S
H468 C452 0.931 . S
H469 C457 0.929 . S
H470 C458 0.960 . S
H471 C458 0.962 . S
H472 C458 0.960 . S
H473 C459 0.961 . S
H474 C459 0.961 . S
H475 C459 0.961 . S
H476 C460 0.931 . S
H477 C465 0.930 . S
H478 C466 0.956 . S
H479 C466 0.961 . S
H480 C466 0.961 . S
H481 C467 0.958 . S
H482 C467 0.961 . S
H483 C467 0.960 . S
C484 C485 1.391 . S
C484 C486 1.394 . S
C484 H500 0.931 . S
C485 C484 1.391 . S
C485 C489 1.376 . S
C486 C484 1.394 . S
C486 C487 1.369 . S
C486 C490 1.531 . S
C487 C486 1.369 . S
C487 C488 1.410 . S
C487 C495 1.503 . S
C488 C487 1.410 . S
C488 C489 1.392 . S
C488 C491 1.511 . S
C489 C485 1.376 . S
C489 C488 1.392 . S
C489 H501 0.929 . S
C490 C486 1.531 . S
C490 H502 0.960 . S
C490 H503 0.962 . S
C490 H504 0.960 . S
C491 C488 1.511 . S
C491 H505 0.961 . S
C491 H506 0.961 . S
C491 H507 0.961 . S
C492 C493 1.370 . S
C492 C494 1.363 . S
C492 H508 0.931 . S
C493 C492 1.370 . S
C493 C497 1.408 . S
C494 C492 1.363 . S
C494 C495 1.370 . S
C494 C498 1.524 . S
C495 C487 1.503 . S
C495 C494 1.370 . S
C495 C496 1.403 . S
C496 C495 1.403 . S
C496 C497 1.404 . S
C496 C499 1.539 . S
C497 C493 1.408 . S
C497 C496 1.404 . S
C497 H509 0.930 . S
C498 C494 1.524 . S
C498 H510 0.956 . S
C498 H511 0.961 . S
C498 H512 0.961 . S
C499 C496 1.539 . S
C499 H513 0.958 . S
C499 H514 0.961 . S
C499 H515 0.960 . S
H500 C484 0.931 . S
H501 C489 0.929 . S
H502 C490 0.960 . S
H503 C490 0.962 . S
H504 C490 0.960 . S
H505 C491 0.961 . S
H506 C491 0.961 . S
H507 C491 0.961 . S
H508 C492 0.931 . S
H509 C497 0.930 . S
H510 C498 0.956 . S
H511 C498 0.961 . S
H512 C498 0.961 . S
H513 C499 0.958 . S
H514 C499 0.961 . S
H515 C499 0.960 . S
C516 C517 1.391 . S
C516 C518 1.394 . S
C516 H532 0.931 . S
C517 C516 1.391 . S
C517 C521 1.376 . S
C518 C516 1.394 . S
C518 C519 1.369 . S
C518 C522 1.531 . S
C519 C518 1.369 . S
C519 C520 1.410 . S
C519 C527 1.503 . S
C520 C519 1.410 . S
C520 C521 1.392 . S
C520 C523 1.511 . S
C521 C517 1.376 . S
C521 C520 1.392 . S
C521 H533 0.929 . S
C522 C518 1.531 . S
C522 H534 0.960 . S
C522 H535 0.962 . S
C522 H536 0.960 . S
C523 C520 1.511 . S
C523 H537 0.961 . S
C523 H538 0.961 . S
C523 H539 0.961 . S
C524 C525 1.370 . S
C524 C526 1.363 . S
C524 H540 0.931 . S
C525 C524 1.370 . S
C525 C529 1.408 . S
C526 C524 1.363 . S
C526 C527 1.370 . S
C526 C530 1.524 . S
C527 C519 1.503 . S
C527 C526 1.370 . S
C527 C528 1.403 . S
C528 C527 1.403 . S
C528 C529 1.404 . S
C528 C531 1.539 . S
C529 C525 1.408 . S
C529 C528 1.404 . S
C529 H541 0.930 . S
C530 C526 1.524 . S
C530 H542 0.956 . S
C530 H543 0.961 . S
C530 H544 0.961 . S
C531 C528 1.539 . S
C531 H545 0.958 . S
C531 H546 0.961 . S
C531 H547 0.960 . S
H532 C516 0.931 . S
H533 C521 0.929 . S
H534 C522 0.960 . S
H535 C522 0.962 . S
H536 C522 0.960 . S
H537 C523 0.961 . S
H538 C523 0.961 . S
H539 C523 0.961 . S
H540 C524 0.931 . S
H541 C529 0.930 . S
H542 C530 0.956 . S
H543 C530 0.961 . S
H544 C530 0.961 . S
H545 C531 0.958 . S
H546 C531 0.961 . S
H547 C531 0.960 . S
C548 C549 1.391 . S
C548 C550 1.394 1_554 S
C548 H564 0.931 . S
C549 C548 1.391 . S
C549 C553 1.376 1_655 S
C550 C548 1.394 1_556 S
C550 C551 1.369 1_655 S
C550 C554 1.531 . S
C551 C550 1.369 1_455 S
C551 C552 1.410 . S
C551 C559 1.503 . S
C552 C551 1.410 . S
C552 C553 1.392 1_556 S
C552 C555 1.511 . S
C553 C549 1.376 1_455 S
C553 C552 1.392 1_554 S
C553 H565 0.929 . S
C554 C550 1.531 . S
C554 H566 0.960 . S
C554 H567 0.962 . S
C554 H568 0.960 1_556 S
C555 C552 1.511 . S
C555 H569 0.961 . S
C555 H570 0.961 . S
C555 H571 0.961 . S
C556 C557 1.370 . S
C556 C558 1.363 . S
C556 H572 0.931 . S
C557 C556 1.370 . S
C557 C561 1.408 . S
C558 C556 1.363 . S
C558 C559 1.370 . S
C558 C562 1.524 . S
C559 C551 1.503 . S
C559 C558 1.370 . S
C559 C560 1.403 . S
C560 C559 1.403 . S
C560 C561 1.404 . S
C560 C563 1.539 1_556 S
C561 C557 1.408 . S
C561 C560 1.404 . S
C561 H573 0.930 . S
C562 C558 1.524 . S
C562 H574 0.956 1_455 S
C562 H575 0.961 . S
C562 H576 0.961 . S
C563 C560 1.539 1_554 S
C563 H577 0.958 . S
C563 H578 0.961 . S
C563 H579 0.960 . S
H564 C548 0.931 . S
H565 C553 0.929 . S
H566 C554 0.960 . S
H567 C554 0.962 . S
H568 C554 0.960 1_554 S
H569 C555 0.961 . S
H570 C555 0.961 . S
H571 C555 0.961 . S
H572 C556 0.931 . S
H573 C561 0.930 . S
H574 C562 0.956 1_655 S
H575 C562 0.961 . S
H576 C562 0.961 . S
H577 C563 0.958 . S
H578 C563 0.961 . S
H579 C563 0.960 . S
C580 C581 1.392 1_544 S
C580 C582 1.394 1_554 S
C580 H596 0.931 . S
C581 C580 1.392 1_566 S
C581 C585 1.375 . S
C582 C580 1.394 1_556 S
C582 C583 1.369 . S
C582 C586 1.531 1_556 S
C583 C582 1.369 . S
C583 C584 1.410 1_545 S
C583 C591 1.503 . S
C584 C583 1.410 1_565 S
C584 C585 1.392 . S
C584 C587 1.511 . S
C585 C581 1.375 . S
C585 C584 1.392 . S
C585 H597 0.929 . S
C586 C582 1.531 1_554 S
C586 H598 0.960 1_554 S
C586 H599 0.962 . S
C586 H600 0.960 . S
C587 C584 1.511 . S
C587 H601 0.961 . S
C587 H602 0.961 . S
C587 H603 0.961 . S
C588 C589 1.370 . S
C588 C590 1.363 . S
C588 H604 0.931 . S
C589 C588 1.370 . S
C589 C593 1.408 . S
C590 C588 1.363 . S
C590 C591 1.370 . S
C590 C594 1.524 1_545 S
C591 C583 1.503 . S
C591 C590 1.370 . S
C591 C592 1.403 . S
C592 C591 1.403 . S
C592 C593 1.404 . S
C592 C595 1.539 . S
C593 C589 1.408 . S
C593 C592 1.404 . S
C593 H605 0.930 . S
C594 C590 1.524 1_565 S
C594 H606 0.956 . S
C594 H607 0.961 . S
C594 H608 0.961 . S
C595 C592 1.539 . S
C595 H609 0.958 . S
C595 H610 0.961 . S
C595 H611 0.960 . S
H596 C580 0.931 . S
H597 C585 0.929 . S
H598 C586 0.960 1_556 S
H599 C586 0.962 . S
H600 C586 0.960 . S
H601 C587 0.961 . S
H602 C587 0.961 . S
H603 C587 0.961 . S
H604 C588 0.931 . S
H605 C593 0.930 . S
H606 C594 0.956 . S
H607 C594 0.961 . S
H608 C594 0.961 . S
H609 C595 0.958 . S
H610 C595 0.961 . S
H611 C595 0.960 . S
C612 C613 1.391 . S
C612 C614 1.394 . S
C612 H628 0.931 . S
C613 C612 1.391 . S
C613 C617 1.376 . S
C614 C612 1.394 . S
C614 C615 1.369 . S
C614 C618 1.531 . S
C615 C614 1.369 . S
C615 C616 1.410 . S
C615 C623 1.503 . S
C616 C615 1.410 . S
C616 C617 1.392 . S
C616 C619 1.511 . S
C617 C613 1.376 . S
C617 C616 1.392 . S
C617 H629 0.929 1_556 S
C618 C614 1.531 . S
C618 H630 0.960 . S
C618 H631 0.962 . S
C618 H632 0.960 . S
C619 C616 1.511 . S
C619 H633 0.961 . S
C619 H634 0.961 . S
C619 H635 0.961 . S
C620 C621 1.370 . S
C620 C622 1.363 . S
C620 H636 0.931 . S
C621 C620 1.370 . S
C621 C625 1.408 . S
C622 C620 1.363 . S
C622 C623 1.370 . S
C622 C626 1.524 . S
C623 C615 1.503 . S
C623 C622 1.370 . S
C623 C624 1.403 . S
C624 C623 1.403 . S
C624 C625 1.404 . S
C624 C627 1.539 . S
C625 C621 1.408 . S
C625 C624 1.404 . S
C625 H637 0.930 . S
C626 C622 1.524 . S
C626 H638 0.956 . S
C626 H639 0.961 . S
C626 H640 0.961 . S
C627 C624 1.539 . S
C627 H641 0.958 . S
C627 H642 0.961 . S
C627 H643 0.960 . S
H628 C612 0.931 . S
H629 C617 0.929 1_554 S
H630 C618 0.960 . S
H631 C618 0.962 . S
H632 C618 0.960 . S
H633 C619 0.961 . S
H634 C619 0.961 . S
H635 C619 0.961 . S
H636 C620 0.931 . S
H637 C625 0.930 . S
H638 C626 0.956 . S
H639 C626 0.961 . S
H640 C626 0.961 . S
H641 C627 0.958 . S
H642 C627 0.961 . S
H643 C627 0.960 . S
C644 C645 1.391 . S
C644 C646 1.394 . S
C644 H660 0.931 . S
C645 C644 1.391 . S
C645 C649 1.376 1_556 S
C646 C644 1.394 . S
C646 C647 1.369 . S
C646 C650 1.531 . S
C647 C646 1.369 . S
C647 C648 1.410 . S
C647 C655 1.503 . S
C648 C647 1.410 . S
C648 C649 1.392 1_556 S
C648 C651 1.511 1_556 S
C649 C645 1.376 1_554 S
C649 C648 1.392 1_554 S
C649 H661 0.929 . S
C650 C646 1.531 . S
C650 H662 0.960 . S
C650 H663 0.962 . S
C650 H664 0.960 . S
C651 C648 1.511 1_554 S
C651 H665 0.961 . S
C651 H666 0.961 1_554 S
C651 H667 0.961 . S
C652 C653 1.370 . S
C652 C654 1.363 . S
C652 H668 0.931 . S
C653 C652 1.370 . S
C653 C657 1.408 . S
C654 C652 1.363 . S
C654 C655 1.370 . S
C654 C658 1.524 . S
C655 C647 1.503 . S
C655 C654 1.370 . S
C655 C656 1.403 . S
C656 C655 1.403 . S
C656 C657 1.404 . S
C656 C659 1.539 . S
C657 C653 1.408 . S
C657 C656 1.404 . S
C657 H669 0.930 . S
C658 C654 1.524 . S
C658 H670 0.956 . S
C658 H671 0.961 . S
C658 H672 0.961 . S
C659 C656 1.539 . S
C659 H673 0.958 . S
C659 H674 0.961 . S
C659 H675 0.960 . S
H660 C644 0.931 . S
H661 C649 0.929 . S
H662 C650 0.960 . S
H663 C650 0.962 . S
H664 C650 0.960 . S
H665 C651 0.961 . S
H666 C651 0.961 1_556 S
H667 C651 0.961 . S
H668 C652 0.931 . S
H669 C657 0.930 . S
H670 C658 0.956 . S
H671 C658 0.961 . S
H672 C658 0.961 . S
H673 C659 0.958 . S
H674 C659 0.961 . S
H675 C659 0.960 . S
C676 C677 1.391 . S
C676 C678 1.394 . S
C676 H692 0.931 . S
C677 C676 1.391 . S
C677 C681 1.376 . S
C678 C676 1.394 . S
C678 C679 1.369 . S
C678 C682 1.531 . S
C679 C678 1.369 . S
C679 C680 1.410 . S
C679 C687 1.503 . S
C680 C679 1.410 . S
C680 C681 1.392 . S
C680 C683 1.511 . S
C681 C677 1.376 . S
C681 C680 1.392 . S
C681 H693 0.929 . S
C682 C678 1.531 . S
C682 H694 0.960 . S
C682 H695 0.962 . S
C682 H696 0.960 . S
C683 C680 1.511 . S
C683 H697 0.961 . S
C683 H698 0.961 . S
C683 H699 0.961 . S
C684 C685 1.370 . S
C684 C686 1.363 . S
C684 H700 0.931 . S
C685 C684 1.370 . S
C685 C689 1.408 . S
C686 C684 1.363 . S
C686 C687 1.370 1_556 S
C686 C690 1.524 . S
C687 C679 1.503 . S
C687 C686 1.370 1_554 S
C687 C688 1.403 . S
C688 C687 1.403 . S
C688 C689 1.404 1_554 S
C688 C691 1.539 . S
C689 C685 1.408 . S
C689 C688 1.404 1_556 S
C689 H701 0.930 1_556 S
C690 C686 1.524 . S
C690 H702 0.956 . S
C690 H703 0.961 . S
C690 H704 0.961 . S
C691 C688 1.539 . S
C691 H705 0.958 . S
C691 H706 0.961 . S
C691 H707 0.960 . S
H692 C676 0.931 . S
H693 C681 0.929 . S
H694 C682 0.960 . S
H695 C682 0.962 . S
H696 C682 0.960 . S
H697 C683 0.961 . S
H698 C683 0.961 . S
H699 C683 0.961 . S
H700 C684 0.931 . S
H701 C689 0.930 1_554 S
H702 C690 0.956 . S
H703 C690 0.961 . S
H704 C690 0.961 . S
H705 C691 0.958 . S
H706 C691 0.961 . S
H707 C691 0.960 . S
C708 C709 1.391 1_565 S
C708 C710 1.394 . S
C708 H724 0.931 . S
C709 C708 1.391 1_545 S
C709 C713 1.376 . S
C710 C708 1.394 . S
C710 C711 1.369 1_565 S
C710 C714 1.531 1_554 S
C711 C710 1.369 1_545 S
C711 C712 1.410 . S
C711 C719 1.503 1_554 S
C712 C711 1.410 . S
C712 C713 1.392 . S
C712 C715 1.511 . S
C713 C709 1.376 . S
C713 C712 1.392 . S
C713 H725 0.929 . S
C714 C710 1.531 1_556 S
C714 H726 0.960 . S
C714 H727 0.962 . S
C714 H728 0.960 . S
C715 C712 1.511 . S
C715 H729 0.961 . S
C715 H730 0.961 . S
C715 H731 0.961 . S
C716 C717 1.371 1_565 S
C716 C718 1.364 1_556 S
C716 H732 0.931 . S
C717 C716 1.371 1_545 S
C717 C721 1.407 . S
C718 C716 1.364 1_554 S
C718 C719 1.371 1_564 S
C718 C722 1.523 . S
C719 C711 1.503 1_556 S
C719 C718 1.371 1_546 S
C719 C720 1.403 . S
C720 C719 1.403 . S
C720 C721 1.404 . S
C720 C723 1.539 . S
C721 C717 1.407 . S
C721 C720 1.404 . S
C721 H733 0.930 . S
C722 C718 1.523 . S
C722 H734 0.956 . S
C722 H735 0.961 . S
C722 H736 0.961 . S
C723 C720 1.539 . S
C723 H737 0.958 . S
C723 H738 0.961 . S
C723 H739 0.960 . S
H724 C708 0.931 . S
H725 C713 0.929 . S
H726 C714 0.960 . S
H727 C714 0.962 . S
H728 C714 0.960 . S
H729 C715 0.961 . S
H730 C715 0.961 . S
H731 C715 0.961 . S
H732 C716 0.931 . S
H733 C721 0.930 . S
H734 C722 0.956 . S
H735 C722 0.961 . S
H736 C722 0.961 . S
H737 C723 0.958 . S
H738 C723 0.961 . S
H739 C723 0.960 . S
C740 C741 1.391 . S
C740 C742 1.394 . S
C740 H756 0.931 . S
C741 C740 1.391 . S
C741 C745 1.376 . S
C742 C740 1.394 . S
C742 C743 1.369 . S
C742 C746 1.531 . S
C743 C742 1.369 . S
C743 C744 1.410 . S
C743 C751 1.503 1_554 S
C744 C743 1.410 . S
C744 C745 1.392 . S
C744 C747 1.511 1_554 S
C745 C741 1.376 . S
C745 C744 1.392 . S
C745 H757 0.929 . S
C746 C742 1.531 . S
C746 H758 0.960 1_554 S
C746 H759 0.962 . S
C746 H760 0.960 . S
C747 C744 1.511 1_556 S
C747 H761 0.961 1_556 S
C747 H762 0.961 . S
C747 H763 0.961 . S
C748 C749 1.370 . S
C748 C750 1.363 . S
C748 H764 0.931 . S
C749 C748 1.370 . S
C749 C753 1.408 . S
C750 C748 1.363 . S
C750 C751 1.370 . S
C750 C754 1.524 1_556 S
C751 C743 1.503 1_556 S
C751 C750 1.370 . S
C751 C752 1.403 . S
C752 C751 1.403 . S
C752 C753 1.404 . S
C752 C755 1.539 . S
C753 C749 1.408 . S
C753 C752 1.404 . S
C753 H765 0.930 . S
C754 C750 1.524 1_554 S
C754 H766 0.956 . S
C754 H767 0.961 . S
C754 H768 0.961 . S
C755 C752 1.539 . S
C755 H769 0.958 . S
C755 H770 0.961 . S
C755 H771 0.960 . S
H756 C740 0.931 . S
H757 C745 0.929 . S
H758 C746 0.960 1_556 S
H759 C746 0.962 . S
H760 C746 0.960 . S
H761 C747 0.961 1_554 S
H762 C747 0.961 . S
H763 C747 0.961 . S
H764 C748 0.931 . S
H765 C753 0.930 . S
H766 C754 0.956 . S
H767 C754 0.961 . S
H768 C754 0.961 . S
H769 C755 0.958 . S
H770 C755 0.961 . S
H771 C755 0.960 . S
C772 C773 1.391 . S
C772 C774 1.394 . S
C772 H788 0.931 . S
C773 C772 1.391 . S
C773 C777 1.376 . S
C774 C772 1.394 . S
C774 C775 1.369 . S
C774 C778 1.531 . S
C775 C774 1.369 . S
C775 C776 1.410 . S
C775 C783 1.503 1_554 S
C776 C775 1.410 . S
C776 C777 1.392 . S
C776 C779 1.511 1_554 S
C777 C773 1.376 . S
C777 C776 1.392 . S
C777 H789 0.929 . S
C778 C774 1.531 . S
C778 H790 0.960 1_554 S
C778 H791 0.962 . S
C778 H792 0.960 . S
C779 C776 1.511 1_556 S
C779 H793 0.961 1_556 S
C779 H794 0.961 . S
C779 H795 0.961 . S
C780 C781 1.370 . S
C780 C782 1.363 . S
C780 H796 0.931 . S
C781 C780 1.370 . S
C781 C785 1.408 . S
C782 C780 1.363 . S
C782 C783 1.370 . S
C782 C786 1.524 1_556 S
C783 C775 1.503 1_556 S
C783 C782 1.370 . S
C783 C784 1.403 . S
C784 C783 1.403 . S
C784 C785 1.404 . S
C784 C787 1.539 . S
C785 C781 1.408 . S
C785 C784 1.404 . S
C785 H797 0.930 . S
C786 C782 1.524 1_554 S
C786 H798 0.956 . S
C786 H799 0.961 . S
C786 H800 0.961 . S
C787 C784 1.539 . S
C787 H801 0.958 . S
C787 H802 0.961 . S
C787 H803 0.960 . S
H788 C772 0.931 . S
H789 C777 0.929 . S
H790 C778 0.960 1_556 S
H791 C778 0.962 . S
H792 C778 0.960 . S
H793 C779 0.961 1_554 S
H794 C779 0.961 . S
H795 C779 0.961 . S
H796 C780 0.931 . S
H797 C785 0.930 . S
H798 C786 0.956 . S
H799 C786 0.961 . S
H800 C786 0.961 . S
H801 C787 0.958 . S
H802 C787 0.961 . S
H803 C787 0.960 . S
C804 C805 1.391 1_455 S
C804 C806 1.394 . S
C804 H820 0.931 . S
C805 C804 1.391 1_655 S
C805 C809 1.376 . S
C806 C804 1.394 . S
C806 C807 1.369 1_455 S
C806 C810 1.531 . S
C807 C806 1.369 1_655 S
C807 C808 1.410 . S
C807 C815 1.503 . S
C808 C807 1.410 . S
C808 C809 1.392 . S
C808 C811 1.511 . S
C809 C805 1.376 . S
C809 C808 1.392 . S
C809 H821 0.929 . S
C810 C806 1.531 . S
C810 H822 0.960 . S
C810 H823 0.962 . S
C810 H824 0.960 . S
C811 C808 1.511 . S
C811 H825 0.961 . S
C811 H826 0.961 . S
C811 H827 0.961 . S
C812 C813 1.370 . S
C812 C814 1.363 . S
C812 H828 0.931 . S
C813 C812 1.370 . S
C813 C817 1.408 . S
C814 C812 1.363 . S
C814 C815 1.370 . S
C814 C818 1.524 . S
C815 C807 1.503 . S
C815 C814 1.370 . S
C815 C816 1.403 . S
C816 C815 1.403 . S
C816 C817 1.404 . S
C816 C819 1.539 . S
C817 C813 1.408 . S
C817 C816 1.404 . S
C817 H829 0.930 . S
C818 C814 1.524 . S
C818 H830 0.956 1_655 S
C818 H831 0.961 . S
C818 H832 0.961 . S
C819 C816 1.539 . S
C819 H833 0.958 1_655 S
C819 H834 0.961 . S
C819 H835 0.960 . S
H820 C804 0.931 . S
H821 C809 0.929 . S
H822 C810 0.960 . S
H823 C810 0.962 . S
H824 C810 0.960 . S
H825 C811 0.961 . S
H826 C811 0.961 . S
H827 C811 0.961 . S
H828 C812 0.931 . S
H829 C817 0.930 . S
H830 C818 0.956 1_455 S
H831 C818 0.961 . S
H832 C818 0.961 . S
H833 C819 0.958 1_455 S
H834 C819 0.961 . S
H835 C819 0.960 . S
C836 C837 1.377 1_545 S
C836 C838 1.394 . S
C836 H852 0.931 . S
C837 C836 1.377 1_565 S
C837 C841 1.391 . S
C838 C836 1.394 . S
C838 C839 1.369 1_545 S
C838 C842 1.531 . S
C839 C838 1.369 1_565 S
C839 C840 1.410 . S
C839 C847 1.503 . S
C840 C839 1.410 . S
C840 C841 1.392 . S
C840 C843 1.511 . S
C841 C837 1.391 . S
C841 C840 1.392 . S
C841 H853 0.929 . S
C842 C838 1.531 . S
C842 H854 0.960 . S
C842 H855 0.962 . S
C842 H856 0.960 . S
C843 C840 1.511 . S
C843 H857 0.961 . S
C843 H858 0.961 . S
C843 H859 0.961 . S
C844 C845 1.370 . S
C844 C846 1.363 . S
C844 H860 0.931 . S
C845 C844 1.370 . S
C845 C849 1.433 . S
C846 C844 1.363 . S
C846 C847 1.370 . S
C846 C850 1.524 . S
C847 C839 1.503 . S
C847 C846 1.370 . S
C847 C848 1.403 1_565 S
C848 C847 1.403 1_545 S
C848 C849 1.399 1_545 S
C848 C851 1.539 . S
C849 C845 1.433 . S
C849 C848 1.399 1_565 S
C849 H861 0.912 1_565 S
C850 C846 1.524 . S
C850 H862 0.956 . S
C850 H863 0.961 . S
C850 H864 0.961 . S
C851 C848 1.539 . S
C851 H865 0.958 . S
C851 H866 0.961 . S
C851 H867 0.960 . S
H852 C836 0.931 . S
H853 C841 0.929 . S
H854 C842 0.960 . S
H855 C842 0.962 . S
H856 C842 0.960 . S
H857 C843 0.961 . S
H858 C843 0.961 . S
H859 C843 0.961 . S
H860 C844 0.931 . S
H861 C849 0.912 1_545 S
H862 C850 0.956 . S
H863 C850 0.961 . S
H864 C850 0.961 . S
H865 C851 0.958 . S
H866 C851 0.961 . S
H867 C851 0.960 . S
C868 C869 1.391 . S
C868 C870 1.394 . S
C868 H884 0.931 . S
C869 C868 1.391 . S
C869 C873 1.376 . S
C870 C868 1.394 . S
C870 C871 1.369 . S
C870 C874 1.531 . S
C871 C870 1.369 . S
C871 C872 1.410 . S
C871 C879 1.503 . S
C872 C871 1.410 . S
C872 C873 1.392 . S
C872 C875 1.511 . S
C873 C869 1.376 . S
C873 C872 1.392 . S
C873 H885 0.929 . S
C874 C870 1.531 . S
C874 H886 0.960 . S
C874 H887 0.962 . S
C874 H888 0.960 . S
C875 C872 1.511 . S
C875 H889 0.961 . S
C875 H890 0.961 . S
C875 H891 0.961 . S
C876 C877 1.370 . S
C876 C878 1.363 . S
C876 H892 0.931 . S
C877 C876 1.370 . S
C877 C881 1.408 . S
C878 C876 1.363 . S
C878 C879 1.370 . S
C878 C882 1.524 . S
C879 C871 1.503 . S
C879 C878 1.370 . S
C879 C880 1.403 . S
C880 C879 1.403 . S
C880 C881 1.404 . S
C880 C883 1.539 . S
C881 C877 1.408 . S
C881 C880 1.404 . S
C881 H893 0.930 . S
C882 C878 1.524 . S
C882 H894 0.956 . S
C882 H895 0.961 . S
C882 H896 0.961 . S
C883 C880 1.539 . S
C883 H897 0.958 . S
C883 H898 0.961 . S
C883 H899 0.960 . S
H884 C868 0.931 . S
H885 C873 0.929 . S
H886 C874 0.960 . S
H887 C874 0.962 . S
H888 C874 0.960 . S
H889 C875 0.961 . S
H890 C875 0.961 . S
H891 C875 0.961 . S
H892 C876 0.931 . S
H893 C881 0.930 . S
H894 C882 0.956 . S
H895 C882 0.961 . S
H896 C882 0.961 . S
H897 C883 0.958 . S
H898 C883 0.961 . S
H899 C883 0.960 . S
C900 C901 1.391 . S
C900 C902 1.394 . S
C900 H916 0.931 . S
C901 C900 1.391 . S
C901 C905 1.376 . S
C902 C900 1.394 . S
C902 C903 1.369 . S
C902 C906 1.531 . S
C903 C902 1.369 . S
C903 C904 1.410 . S
C903 C911 1.503 . S
C904 C903 1.410 . S
C904 C905 1.392 . S
C904 C907 1.511 . S
C905 C901 1.376 . S
C905 C904 1.392 . S
C905 H917 0.929 . S
C906 C902 1.531 . S
C906 H918 0.960 . S
C906 H919 0.962 . S
C906 H920 0.960 . S
C907 C904 1.511 . S
C907 H921 0.961 . S
C907 H922 0.961 . S
C907 H923 0.961 . S
C908 C909 1.370 . S
C908 C910 1.363 . S
C908 H924 0.931 . S
C909 C908 1.370 . S
C909 C913 1.408 . S
C910 C908 1.363 . S
C910 C911 1.370 . S
C910 C914 1.524 . S
C911 C903 1.503 . S
C911 C910 1.370 . S
C911 C912 1.403 . S
C912 C911 1.403 . S
C912 C913 1.404 . S
C912 C915 1.539 . S
C913 C909 1.408 . S
C913 C912 1.404 . S
C913 H925 0.930 . S
C914 C910 1.524 . S
C914 H926 0.956 . S
C914 H927 0.961 . S
C914 H928 0.961 . S
C915 C912 1.539 . S
C915 H929 0.958 . S
C915 H930 0.961 . S
C915 H931 0.960 . S
H916 C900 0.931 . S
H917 C905 0.929 . S
H918 C906 0.960 . S
H919 C906 0.962 . S
H920 C906 0.960 . S
H921 C907 0.961 . S
H922 C907 0.961 . S
H923 C907 0.961 . S
H924 C908 0.931 . S
H925 C913 0.930 . S
H926 C914 0.956 . S
H927 C914 0.961 . S
H928 C914 0.961 . S
H929 C915 0.958 . S
H930 C915 0.961 . S
H931 C915 0.960 . S
C165 C61 1.519 . S
C173 C88 1.525 . S
C205 C111 1.638 . S
C197 C70 1.604 . S
C237 C134 1.590 . S
C229 C43 1.546 . S
C269 C161 1.477 . S
C261 C52 1.561 . S
C301 C89 1.501 . S
C293 C25 1.492 1_545 S
C325 C34 1.436 1_556 S
C333 C112 1.494 . S
C357 C7 1.368 1_556 S
C365 C135 1.403 . S
C389 C16 1.520 . S
C397 C160 1.524 . S
C429 C90 0.183 . S
C421 C50 0.448 . S
C461 C113 0.124 . S
C453 C59 0.159 . S
C493 C136 0.280 . S
C485 C67 0.307 . S
C517 C41 0.291 . S
C525 C162 0.541 . S
C549 C14 0.463 . S
C557 C93 0.623 . S
C589 C116 0.647 . S
C581 C23 0.465 1_556 S
C621 C139 0.583 . S
C613 C31 0.601 . S
C645 C5 0.242 . S
C653 C159 0.273 . S
C677 C49 1.576 . S
C685 C91 1.626 . S
C709 C58 1.545 1_545 S
C717 C114 1.528 . S
C749 C137 1.539 . S
C741 C68 1.551 . S
C781 C158 1.342 . S
C773 C40 1.335 . S
C805 C13 1.577 . S
C813 C92 1.575 . S
C845 C115 1.502 . S
C837 C22 1.538 . S
C877 C138 1.492 . S
C869 C32 1.515 . S
C901 C4 1.608 . S
C909 C157 1.673 . S
