# Generated by pormake.
# Topology scu, (8,4)-cn, num edge types: 1
# Building blocks:
#     Node 0, Type 0, BuildingBlock: GIZVER_clean_sbu_0, # of connection points: 8
#     Node 1, Type 1, BuildingBlock: IZENUY_clean_linker_0, # of connection points: 4
#     Node 2, Type 1, BuildingBlock: IZENUY_clean_linker_0, # of connection points: 4
#     Edge 3, Type (0, 1), BuildingBlock: MIFKUJ_clean_linker_0, # of connection points: 2
#     Edge 4, Type (0, 1), BuildingBlock: MIFKUJ_clean_linker_0, # of connection points: 2
#     Edge 5, Type (0, 1), BuildingBlock: MIFKUJ_clean_linker_0, # of connection points: 2
#     Edge 6, Type (0, 1), BuildingBlock: MIFKUJ_clean_linker_0, # of connection points: 2
#     Edge 7, Type (0, 1), BuildingBlock: MIFKUJ_clean_linker_0, # of connection points: 2
#     Edge 8, Type (0, 1), BuildingBlock: MIFKUJ_clean_linker_0, # of connection points: 2
#     Edge 9, Type (0, 1), BuildingBlock: MIFKUJ_clean_linker_0, # of connection points: 2
#     Edge 10, Type (0, 1), BuildingBlock: MIFKUJ_clean_linker_0, # of connection points: 2
# Relax obj value: 0.123
# Max RMSD: 0.248
# Mean RMSD: 0.212
data_MOF--net-scu--node1-GIZVER_clean_sbu_0--node2-IZENUY_clean_linker_0--edge1-MIFKUJ_clean_linker_0
_symmetry_space_group_name_H-M    P1
_symmetry_Int_Tables_number       1
_symmetry_cell_setting            triclinic
loop_
_symmetry_equiv_pos_as_xyz
'x, y, z'
_cell_length_a     34.213697
_cell_length_b     34.760419
_cell_length_c     27.355852
_cell_angle_alpha  98.787445
_cell_angle_beta   82.806964
_cell_angle_gamma 107.56572
loop_
_atom_site_label
_atom_site_type_symbol
_atom_site_fract_x
_atom_site_fract_y
_atom_site_fract_z
_atom_type_partial_charge
Co0 Co 0.03582 0.9789 0.10682 0.0
Co1 Co 0.09529 0.03559 0.07333 0.0
Co2 Co 0.0208 0.02567 1.0111 0.0
O3 O 0.05268 0.9982 0.04304 0.0
H4 H 0.06317 0.97923 0.01946 0.0
O5 O 0.98908 0.05295 0.97897 0.0
Co6 Co 1.00592 0.07266 0.91533 0.0
Co7 Co 0.94491 1.01584 0.94989 0.0
H8 H 0.97904 0.0722 1.00254 0.0
O9 O 0.14184 0.02295 0.07661 0.0
O10 O 0.08719 1.01732 0.13472 0.0
O11 O 0.09713 0.09164 0.08222 0.0
O12 O 0.03474 0.07879 0.05728 0.0
O13 O 0.07052 0.04554 0.96456 0.0
O14 O 1.01868 0.09495 0.85838 0.0
O15 O 0.97998 0.11223 0.92601 0.0
O16 O 0.038 0.0351 0.89617 0.0
O17 O 1.00644 0.97275 0.96491 0.0
O18 O 0.94323 0.95954 0.94166 0.0
O19 O 0.95619 0.03268 0.88742 0.0
O20 O 0.89969 0.03124 0.94067 0.0
C21 C 0.04224 0.93238 0.14171 0.0
C22 C 0.97228 1.01347 0.10498 0.0
C23 C 0.06557 0.1026 0.07913 0.0
C24 C 0.12539 1.01722 0.12142 0.0
C25 C 0.99687 0.11827 0.88121 0.0
C26 C 0.07006 0.03765 0.9174 0.0
C27 C 0.97517 0.9488 0.94392 0.0
C28 C 0.91899 0.03613 0.89703 0.0
O29 O 0.02167 0.95708 0.16354 0.0
O30 O 0.06025 0.93783 0.09714 0.0
O31 O 0.97129 1.00573 0.05786 0.0
O32 O 1.00525 1.01782 0.12536 0.0
H33 H 0.02691 0.46739 0.44434 0.0
H34 H 1.01159 0.46997 0.60379 0.0
H35 H 0.02543 0.3626 0.51054 0.0
H36 H 0.02071 0.58419 0.58327 0.0
H37 H 0.03171 0.5815 0.42401 0.0
H38 H 0.03125 0.69226 0.51884 0.0
N39 N 1.01924 0.51546 0.53152 0.0
N40 N 0.02357 0.53547 0.49585 0.0
C41 C 0.0241 0.45263 0.47727 0.0
C42 C 0.02677 0.41263 0.47218 0.0
C43 C 1.01909 0.47383 0.5249 0.0
C44 C 1.01543 0.45384 0.56719 0.0
C45 C 1.01809 0.41371 0.56242 0.0
C46 C 0.02389 0.39367 0.51474 0.0
C47 C 0.02352 0.59931 0.55065 0.0
C48 C 0.02682 0.64104 0.55647 0.0
C49 C 0.02504 0.57748 0.50277 0.0
C50 C 0.0297 0.59804 0.46072 0.0
C51 C 0.03291 0.63989 0.46601 0.0
C52 C 0.0306 0.66054 0.51412 0.0
H53 H 0.5753 0.02614 0.43657 0.0
H54 H 0.58167 1.02131 0.59226 0.0
H55 H 0.69068 0.0365 0.49164 0.0
H56 H 0.45946 1.01019 0.58273 0.0
H57 H 0.45774 1.00704 0.42464 0.0
H58 H 0.34618 0.99574 0.51918 0.0
N59 N 0.52994 1.01791 0.52664 0.0
N60 N 0.50712 1.01553 0.49341 0.0
C61 C 0.59277 0.02693 0.4673 0.0
C62 C 0.63549 0.03246 0.45872 0.0
C63 C 0.57306 0.02321 0.51595 0.0
C64 C 0.59658 0.02444 0.55513 0.0
C65 C 0.63891 0.02857 0.54628 0.0
C66 C 0.65787 0.03283 0.49831 0.0
C67 C 0.44279 1.00765 0.55068 0.0
C68 C 0.3997 1.00131 0.55676 0.0
C69 C 0.46391 1.00992 0.50257 0.0
C70 C 0.44168 1.00591 0.46138 0.0
C71 C 0.39903 0.99968 0.4671 0.0
C72 C 0.3788 0.99843 0.51474 0.0
H73 H 0.12357 0.15901 0.13328 0.0
H74 H 0.11434 0.21645 0.19192 0.0
H75 H 0.99077 0.19204 0.15108 0.0
H76 H 0.99947 0.13388 0.09215 0.0
H77 H 0.03828 0.27928 0.16803 0.0
H78 H 0.99502 0.15754 0.24842 0.0
H79 H 1.00196 0.09413 0.27139 0.0
H80 H 0.11236 0.16124 0.34068 0.0
H81 H 0.10621 0.22508 0.31796 0.0
H82 H 0.97768 0.39249 0.39499 0.0
H83 H 0.98257 0.34465 0.31999 0.0
H84 H 0.0951 0.33358 0.36424 0.0
H85 H 0.08933 0.38005 0.4396 0.0
H86 H 0.04592 0.26198 0.34296 0.0
H87 H 0.09006 0.38397 0.26228 0.0
H88 H 0.08392 0.44755 0.23891 0.0
H89 H 0.97329 0.38117 0.16956 0.0
H90 H 0.97849 0.31724 0.19309 0.0
C91 C 0.09459 0.16609 0.13592 0.0
C92 C 0.06214 0.14145 0.10815 0.0
C93 C 0.0894 0.19901 0.16958 0.0
C94 C 0.05176 0.20822 0.17619 0.0
C95 C 1.02007 0.18541 0.14647 0.0
C96 C 0.02513 0.15216 0.11284 0.0
C97 C 0.04482 0.23931 0.21726 0.0
C98 C 0.03933 0.27542 0.20641 0.0
C99 C 0.04669 0.23435 0.26717 0.0
C100 C 0.05035 0.19604 0.28111 0.0
C101 C 0.02094 0.15874 0.26823 0.0
C102 C 0.0247 0.12273 0.28125 0.0
C103 C 0.05768 0.12363 0.30723 0.0
C104 C 0.08687 0.16059 0.32048 0.0
C105 C 0.08321 0.1967 0.30766 0.0
C106 C 1.00385 0.38042 0.38792 0.0
C107 C 0.03314 0.38983 0.42289 0.0
C108 C 1.00668 0.35311 0.3451 0.0
C109 C 0.03926 0.33538 0.33626 0.0
C110 C 0.06952 0.34651 0.37024 0.0
C111 C 0.06637 0.37323 0.41316 0.0
C112 C 0.04059 0.30296 0.29405 0.0
C113 C 0.04473 0.26617 0.30473 0.0
C114 C 0.03753 0.30751 0.24414 0.0
C115 C 0.03443 0.3459 0.22992 0.0
C116 C 0.06425 0.38298 0.2424 0.0
C117 C 0.06097 0.41907 0.22906 0.0
C118 C 0.02817 0.41842 0.2029 0.0
C119 C 0.99864 0.38164 0.1899 0.0
C120 C 1.00176 0.34547 0.20319 0.0
H121 H 0.02569 0.44639 0.1926 0.0
H122 H 0.06055 0.09571 0.31722 0.0
H123 H 0.89204 0.97875 0.08495 0.0
H124 H 0.83028 0.98353 0.13804 0.0
H125 H 0.90604 0.06453 0.24796 0.0
H126 H 0.96782 0.0579 0.19588 0.0
H127 H 0.84852 1.01641 0.29411 0.0
H128 H 0.84899 0.0956 0.16592 0.0
H129 H 0.85171 0.11043 0.08004 0.0
H130 H 0.74014 1.01402 0.05689 0.0
H131 H 0.73706 0.99822 0.14246 0.0
H132 H 0.70027 0.09565 0.43429 0.0
H133 H 0.75201 0.09446 0.3643 0.0
H134 H 0.6766 0.97819 0.30237 0.0
H135 H 0.62467 0.97899 0.37328 0.0
H136 H 0.73055 0.04291 0.23061 0.0
H137 H 0.73451 0.966 0.3647 0.0
H138 H 0.73222 0.96064 0.45394 0.0
H139 H 0.83914 0.064 0.46788 0.0
H140 H 0.84146 0.07055 0.37888 0.0
C141 C 0.89548 0.9977 0.12038 0.0
C142 C 0.93481 1.0179 0.1363 0.0
C143 C 0.86007 1.00065 0.15068 0.0
C144 C 0.86311 0.02495 0.19698 0.0
C145 C 0.90255 0.04545 0.21262 0.0
C146 C 0.93794 0.04174 0.1828 0.0
C147 C 0.82538 0.02812 0.2297 0.0
C148 C 0.82307 0.02257 0.27997 0.0
C149 C 0.79152 0.03578 0.21177 0.0
C150 C 0.79303 0.04546 0.16046 0.0
C151 C 0.82517 0.07738 0.14242 0.0
C152 C 0.82677 0.08598 0.0938 0.0
C153 C 0.79619 0.06311 0.06298 0.0
C154 C 0.76385 0.03168 0.08078 0.0
C155 C 0.76214 0.0229 0.12935 0.0
C156 C 0.69396 0.07057 0.40475 0.0
C157 C 0.65852 0.03736 0.40921 0.0
C158 C 0.72359 0.06989 0.36486 0.0
C159 C 0.71833 0.03609 0.32844 0.0
C160 C 0.68113 1.00464 0.33005 0.0
C161 C 0.6514 1.00518 0.37038 0.0
C162 C 0.75423 0.03109 0.29414 0.0
C163 C 0.75613 0.03643 0.24405 0.0
C164 C 0.78813 0.0241 0.31228 0.0
C165 C 0.78792 1.01898 0.36523 0.0
C166 C 0.75738 0.98773 0.38686 0.0
C167 C 0.75607 0.98448 0.4374 0.0
C168 C 0.78545 1.01202 0.4666 0.0
C169 C 0.81636 0.04272 0.44523 0.0
C170 C 0.81769 0.04621 0.39474 0.0
H171 H 0.78432 1.00953 0.50576 0.0
H172 H 0.7975 0.06979 0.02533 0.0
H173 H 1.00234 0.91117 0.2305 0.0
H174 H 1.00524 0.85713 0.27553 0.0
H175 H 0.09138 0.82356 0.1604 0.0
H176 H 0.08878 0.87839 0.11472 0.0
H177 H 0.98225 0.77867 0.25444 0.0
H178 H 0.15253 0.78359 0.2094 0.0
H179 H 0.22253 0.83137 0.20347 0.0
H180 H 0.1793 0.92406 0.29599 0.0
H181 H 0.10897 0.87731 0.30121 0.0
H182 H 0.99764 0.61634 0.37623 0.0
H183 H 1.00319 0.65861 0.31003 0.0
H184 H 0.08611 0.75923 0.39292 0.0
H185 H 0.08296 0.71674 0.45668 0.0
H186 H 0.11082 0.76366 0.30401 0.0
H187 H 0.97616 0.7442 0.39222 0.0
H188 H 0.90741 0.70423 0.42362 0.0
H189 H 0.87806 0.65499 0.27445 0.0
H190 H 0.94686 0.69438 0.24223 0.0
C191 C 0.02206 0.89247 0.2145 0.0
C192 C 0.04517 0.89917 0.16864 0.0
C193 C 0.02357 0.86133 0.24042 0.0
C194 C 0.04844 0.83597 0.2216 0.0
C195 C 0.07211 0.84279 0.17605 0.0
C196 C 0.07043 0.87403 0.14977 0.0
C197 C 0.04839 0.80212 0.24961 0.0
C198 C 1.01048 0.77522 0.26486 0.0
C199 C 0.08488 0.79747 0.26394 0.0
C200 C 0.12553 0.82718 0.25508 0.0
C201 C 0.1579 0.81446 0.2276 0.0
C202 C 0.1976 0.84134 0.22442 0.0
C203 C 0.20533 0.88075 0.24929 0.0
C204 C 0.1732 0.89373 0.27629 0.0
C205 C 0.13335 0.86717 0.27901 0.0
C206 C 1.01772 0.6472 0.37975 0.0
C207 C 0.03918 0.66324 0.42246 0.0
C208 C 0.02049 0.6716 0.3421 0.0
C209 C 0.04435 0.71269 0.34667 0.0
C210 C 0.06728 0.72788 0.38816 0.0
C211 C 0.06501 0.70352 0.42516 0.0
C212 C 0.04467 0.74084 0.31003 0.0
C213 C 0.0826 0.76645 0.29272 0.0
C214 C 1.00807 0.74543 0.29563 0.0
C215 C 0.96677 0.72179 0.31489 0.0
C216 C 0.95512 0.72463 0.36617 0.0
C217 C 0.91615 0.70212 0.3841 0.0
C218 C 0.88843 0.67697 0.35106 0.0
C219 C 0.89959 0.67439 0.3 0.0
C220 C 0.93856 0.6968 0.28188 0.0
H221 H 0.85827 0.65957 0.365 0.0
H222 H 0.23627 0.90114 0.24781 0.0
H223 H 0.2079 0.04973 0.11993 0.0
H224 H 0.25388 0.04377 0.17731 0.0
H225 H 0.15033 0.9714 0.26246 0.0
H226 H 0.10365 0.97966 0.20647 0.0
H227 H 0.2006 1.01755 0.32256 0.0
H228 H 0.21771 0.93205 0.17389 0.0
H229 H 0.2313 0.91151 0.08483 0.0
H230 H 0.35357 0.99341 0.08697 0.0
H231 H 0.34069 1.01479 0.17616 0.0
H232 H 0.32553 0.94374 0.44888 0.0
H233 H 0.2796 0.94256 0.38677 0.0
H234 H 0.37112 0.04262 0.32563 0.0
H235 H 0.41717 0.04459 0.38859 0.0
H236 H 0.3259 0.97758 0.25348 0.0
H237 H 0.30205 0.06556 0.40377 0.0
H238 H 0.28729 0.07909 0.49431 0.0
H239 H 0.17384 0.98289 0.48748 0.0
H240 H 0.18829 0.96833 0.39696 0.0
C241 C 0.19483 0.03248 0.15086 0.0
C242 C 0.15221 1.01432 0.15809 0.0
C243 C 0.22125 0.02892 0.18354 0.0
C244 C 0.2059 1.00584 0.22322 0.0
C245 C 0.16309 0.98879 0.23163 0.0
C246 C 0.13639 0.99335 0.19953 0.0
C247 C 0.23478 0.99983 0.25565 0.0
C248 C 0.22763 1.00826 0.30727 0.0
C249 C 0.27039 0.98793 0.23588 0.0
C250 C 0.27818 0.97511 0.18199 0.0
C251 C 0.24752 0.94577 0.15554 0.0
C252 C 0.25508 0.93398 0.10492 0.0
C253 C 0.29327 0.95114 0.08024 0.0
C254 C 0.324 0.98011 0.10615 0.0
C255 C 0.3166 0.99203 0.15679 0.0
C256 C 0.33606 0.96531 0.42195 0.0
C257 C 0.37468 0.99476 0.42411 0.0
C258 C 0.30985 0.96445 0.38644 0.0
C259 C 0.32181 0.99288 0.35224 0.0
C260 C 0.3614 1.0205 0.35192 0.0
C261 C 0.38768 1.02153 0.38775 0.0
C262 C 0.29171 0.99579 0.31964 0.0
C263 C 0.29872 0.9868 0.26824 0.0
C264 C 0.25554 1.00622 0.33949 0.0
C265 C 0.24642 1.01564 0.3937 0.0
C266 C 0.27408 0.04713 0.42163 0.0
C267 C 0.26577 0.055 0.47293 0.0
C268 C 0.2297 0.03181 0.49665 0.0
C269 C 0.20179 1.0008 0.46907 0.0
C270 C 0.21001 0.99275 0.41777 0.0
H271 H 0.22334 0.03791 0.53637 0.0
H272 H 0.29906 0.94199 0.04103 0.0
H273 H 0.91752 0.89222 0.88907 0.0
H274 H 0.92661 0.83343 0.83276 0.0
H275 H 0.04956 0.85838 0.87615 0.0
H276 H 0.04089 0.91737 0.9326 0.0
H277 H 0.98096 0.83611 0.75333 0.0
H278 H 0.07632 0.7684 0.85677 0.0
H279 H 0.08629 0.76249 0.94278 0.0
H280 H 0.96284 0.76653 0.9894 0.0
H281 H 0.95199 0.77202 0.90359 0.0
H282 H 0.0787 0.7154 0.58542 0.0
H283 H 0.07119 0.76106 0.66093 0.0
H284 H 0.96736 0.66795 0.71606 0.0
H285 H 0.97435 0.62196 0.6398 0.0
H286 H 0.02402 0.72059 0.79173 0.0
H287 H 0.94344 0.72806 0.66079 0.0
H288 H 0.9357 0.73454 0.57423 0.0
H289 H 0.02745 0.85061 0.58421 0.0
H290 H 0.03625 0.84445 0.6706 0.0
C291 C 0.94633 0.88494 0.88733 0.0
C292 C 0.97852 0.90979 0.91535 0.0
C293 C 0.95152 0.85133 0.8549 0.0
C294 C 0.98883 0.8415 0.84994 0.0
C295 C 0.02044 0.86517 0.87937 0.0
C296 C 1.01536 0.89895 0.91175 0.0
C297 C 0.99545 0.8084 0.81137 0.0
C298 C 0.99017 0.81082 0.76197 0.0
C299 C 1.00778 0.77543 0.82233 0.0
C300 C 1.01352 0.77103 0.87382 0.0
C301 C 0.05125 0.76785 0.88533 0.0
C302 C 0.05707 0.76463 0.93406 0.0
C303 C 0.02527 0.76427 0.97156 0.0
C304 C 0.98751 0.76696 0.96036 0.0
C305 C 0.98153 0.7702 0.91169 0.0
C306 C 0.05458 0.70437 0.61389 0.0
C307 C 0.0266 0.66533 0.60626 0.0
C308 C 0.05053 0.73043 0.65714 0.0
C309 C 1.01849 0.71802 0.6938 0.0
C310 C 0.99237 0.67802 0.68819 0.0
C311 C 0.99636 0.65182 0.64464 0.0
C312 C 1.00932 0.74854 0.73422 0.0
C313 C 1.0145 0.74583 0.78354 0.0
C314 C 0.99683 0.78136 0.72341 0.0
C315 C 0.9907 0.78565 0.67199 0.0
C316 C 0.96211 0.75485 0.64442 0.0
C317 C 0.95754 0.75847 0.5954 0.0
C318 C 0.98112 0.79293 0.5737 0.0
C319 C 1.00922 0.82392 0.60105 0.0
C320 C 1.01399 0.8204 0.65005 0.0
H321 H 0.97757 0.79565 0.53572 0.0
H322 H 0.02985 0.76184 1.00927 0.0
H323 H 0.07493 1.00039 0.82194 0.0
H324 H 0.13628 0.99053 0.77132 0.0
H325 H 0.2106 0.05015 0.89246 0.0
H326 H 0.14926 0.05955 0.94375 0.0
H327 H 0.24086 0.07892 0.79491 0.0
H328 H 0.19079 0.95277 0.8705 0.0
H329 H 0.13765 0.88983 0.8901 0.0
H330 H 0.12638 0.85015 0.73466 0.0
H331 H 0.17904 0.91305 0.71411 0.0
H332 H 0.41649 0.04781 0.64768 0.0
H333 H 0.36753 0.04985 0.72116 0.0
H334 H 0.27596 0.95143 0.64677 0.0
H335 H 0.32564 0.94659 0.57675 0.0
H336 H 0.25837 0.94304 0.73241 0.0
H337 H 0.28906 0.06344 0.65128 0.0
H338 H 0.33267 0.12636 0.61891 0.0
H339 H 0.36846 0.17721 0.76542 0.0
H340 H 0.32534 0.11434 0.79856 0.0
C341 C 0.10428 1.01133 0.83793 0.0
C342 C 0.10714 0.03086 0.88692 0.0
C343 C 0.13931 1.00553 0.80898 0.0
C344 C 0.17802 1.0195 0.82816 0.0
C345 C 0.18104 0.03909 0.87695 0.0
C346 C 0.14591 0.04433 0.90624 0.0
C347 C 0.2154 1.0145 0.79674 0.0
C348 C 0.24517 0.04927 0.78183 0.0
C349 C 0.22014 0.97576 0.7782 0.0
C350 C 0.1888 0.93774 0.79079 0.0
C351 C 0.17683 0.93075 0.84051 0.0
C352 C 0.14683 0.89504 0.85178 0.0
C353 C 0.12875 0.866 0.81362 0.0
C354 C 0.14052 0.87263 0.76415 0.0
C355 C 0.17048 0.90826 0.75268 0.0
C356 C 0.38637 0.02576 0.64792 0.0
C357 C 0.37471 0.99776 0.60572 0.0
C358 C 0.35797 0.02741 0.68961 0.0
C359 C 0.31704 1.00196 0.68922 0.0
C360 C 0.30683 0.97189 0.64857 0.0
C361 C 0.33537 0.96939 0.60799 0.0
C362 C 0.28385 1.00757 0.72882 0.0
C363 C 0.25468 0.97289 0.74561 0.0
C364 C 0.27845 0.04633 0.74701 0.0
C365 C 0.30447 0.08404 0.72725 0.0
C366 C 0.30646 0.08796 0.67651 0.0
C367 C 0.33105 0.1236 0.65804 0.0
C368 C 0.35345 0.15571 0.69006 0.0
C369 C 0.35119 0.15227 0.74065 0.0
C370 C 0.32669 0.11665 0.7593 0.0
H371 H 0.37246 0.18329 0.6757 0.0
H372 H 0.10566 0.83833 0.82233 0.0
H373 H 0.97899 0.18871 0.92305 0.0
H374 H 0.97559 0.24475 0.88009 0.0
H375 H 0.99822 0.17752 0.73914 0.0
H376 H 1.00239 0.12176 0.78149 0.0
H377 H 0.04702 0.28398 0.80349 0.0
H378 H 0.91842 0.20231 0.66973 0.0
H379 H 0.85089 0.15036 0.66924 0.0
H380 H 0.83669 0.16811 0.82846 0.0
H381 H 0.90334 0.22112 0.82998 0.0
H382 H 0.06954 0.37227 0.5814 0.0
H383 H 0.06036 0.32868 0.64651 0.0
H384 H 0.95035 0.36085 0.70749 0.0
H385 H 0.95937 0.40458 0.64167 0.0
H386 H 0.93774 0.27883 0.69729 0.0
H387 H 0.036 0.39559 0.76987 0.0
H388 H 0.10003 0.45229 0.77246 0.0
H389 H 0.17145 0.36752 0.74114 0.0
H390 H 0.10784 0.3103 0.73767 0.0
C391 C 0.98275 0.18565 0.88288 0.0
C392 C 0.99119 0.15086 0.85573 0.0
C393 C 0.98085 0.2177 0.85842 0.0
C394 C 0.98613 0.21498 0.80635 0.0
C395 C 0.99336 0.17982 0.77922 0.0
C396 C 0.99606 0.14819 0.80357 0.0
C397 C 0.98735 0.24979 0.77995 0.0
C398 C 0.02302 0.28298 0.78049 0.0
C399 C 0.95576 0.24867 0.7504 0.0
C400 C 0.91637 0.21542 0.74997 0.0
C401 C 0.90092 0.19521 0.70468 0.0
C402 C 0.8626 0.16576 0.7042 0.0
C403 C 0.83951 0.15598 0.74879 0.0
C404 C 0.8547 0.17558 0.79395 0.0
C405 C 0.8928 0.20534 0.79463 0.0
C406 C 0.04363 0.37048 0.60902 0.0
C407 C 1.01514 0.39187 0.60631 0.0
C408 C 0.03849 0.34563 0.64641 0.0
C409 C 1.00473 0.34148 0.6822 0.0
C410 C 0.97668 0.36356 0.68038 0.0
C411 C 0.98202 0.3888 0.64303 0.0
C412 C 0.998 0.31241 0.71959 0.0
C413 C 0.96153 0.28007 0.72072 0.0
C414 C 0.02873 0.31432 0.75088 0.0
C415 C 0.0671 0.34865 0.75323 0.0
C416 C 0.06535 0.38903 0.76321 0.0
C417 C 0.10158 0.42127 0.76488 0.0
C418 C 0.13979 0.41351 0.7569 0.0
C419 C 0.14184 0.37349 0.74732 0.0
C420 C 0.10569 0.34114 0.74557 0.0
H421 H 0.1678 0.43852 0.7582 0.0
H422 H 0.80985 0.13323 0.74835 0.0
H423 H 0.91623 0.99948 0.80193 0.0
H424 H 0.87085 1.00258 0.74114 0.0
H425 H 0.82872 0.09271 0.84261 0.0
H426 H 0.8719 0.08727 0.90455 0.0
H427 H 0.76671 0.03916 0.81075 0.0
H428 H 0.89759 0.107 0.73065 0.0
H429 H 0.96763 0.11581 0.69038 0.0
H430 H 0.92222 1.01714 0.57806 0.0
H431 H 0.8518 1.00711 0.61772 0.0
H432 H 0.64631 0.07605 0.63615 0.0
H433 H 0.69654 0.08261 0.69592 0.0
H434 H 0.73964 0.98818 0.60503 0.0
H435 H 0.69027 0.98226 0.54513 0.0
H436 H 0.80256 0.04949 0.63112 0.0
H437 H 0.67847 0.97227 0.71639 0.0
H438 H 0.60694 0.95833 0.75391 0.0
H439 H 0.64051 0.06853 0.85417 0.0
H440 H 0.71217 0.08339 0.81679 0.0
C441 C 0.89773 1.02041 0.81069 0.0
C442 C 0.89724 0.04304 0.8577 0.0
C443 C 0.87194 1.02235 0.77591 0.0
C444 C 0.84652 0.04823 0.78692 0.0
C445 C 0.84784 0.07241 0.83319 0.0
C446 C 0.87257 0.06944 0.86848 0.0
C447 C 0.81605 0.04772 0.75233 0.0
C448 C 0.7749 0.04218 0.77161 0.0
C449 C 0.82626 0.05026 0.7008 0.0
C450 C 0.86904 0.05634 0.6773 0.0
C451 C 0.90231 0.08707 0.69742 0.0
C452 C 0.94219 0.09229 0.6747 0.0
C453 C 0.94936 0.06716 0.63173 0.0
C454 C 0.91663 0.03666 0.61133 0.0
C455 C 0.87669 0.03123 0.6339 0.0
C456 C 0.66601 0.05623 0.62962 0.0
C457 C 0.66443 0.02861 0.58622 0.0
C458 C 0.69479 0.06007 0.66359 0.0
C459 C 0.72191 0.03586 0.65499 0.0
C460 C 0.71933 1.00741 0.61232 0.0
C461 C 0.69094 1.00385 0.57831 0.0
C462 C 0.75363 0.04042 0.68965 0.0
C463 C 0.79483 0.04682 0.67039 0.0
C464 C 0.74359 0.03803 0.74099 0.0
C465 C 0.70054 0.02915 0.76344 0.0
C466 C 0.67051 0.99369 0.74617 0.0
C467 C 0.62997 0.98559 0.76746 0.0
C468 C 0.61916 1.01259 0.8063 0.0
C469 C 0.64891 0.04769 0.82402 0.0
C470 C 0.68949 0.05595 0.80283 0.0
H471 H 0.58776 1.00626 0.82274 0.0
H472 H 0.98029 0.07131 0.61426 0.0
loop_
_geom_bond_atom_site_label_1
_geom_bond_atom_site_label_2
_geom_bond_distance
_geom_bond_site_symmetry_2
_ccdc_geom_bond_type
Co0 O3 2.042 . S
Co0 O10 2.263 . S
Co0 O29 2.286 1_455 S
Co0 O30 2.069 . S
Co0 O32 2.015 1_455 S
Co1 O3 2.122 1_545 S
Co1 O9 2.073 . S
Co1 O10 2.328 1_545 S
Co1 O11 1.976 . S
Co2 O3 2.095 1_545 S
Co2 O5 2.079 1_454 S
Co2 O12 2.134 . S
Co2 O13 2.158 1_554 S
Co2 O17 2.089 1_444 S
Co2 O31 2.129 1_445 S
O3 Co0 2.042 . S
O3 Co1 2.122 1_565 S
O3 Co2 2.095 1_565 S
O3 H4 0.980 . S
H4 O3 0.980 . S
O5 Co2 2.079 1_656 S
O5 Co6 2.042 . S
O5 Co7 2.122 1_545 S
O5 H8 0.980 . S
Co6 O5 2.042 . S
Co6 O14 2.286 1_655 S
Co6 O15 2.069 . S
Co6 O16 2.015 1_655 S
Co6 O19 2.264 . S
Co7 O5 2.122 1_565 S
Co7 O18 1.976 . S
Co7 O19 2.327 1_565 S
Co7 O20 2.073 . S
H8 O5 0.980 . S
O9 Co1 2.073 . S
O9 C24 1.245 1_545 S
O10 Co0 2.263 . S
O10 Co1 2.328 1_565 S
O10 C24 1.257 . S
O11 Co1 1.976 . S
O11 C23 1.251 . S
O12 Co2 2.134 . S
O12 C23 1.274 . S
O13 Co2 2.158 1_556 S
O13 C26 1.246 . S
O14 Co6 2.286 1_455 S
O14 C25 1.259 1_455 S
O15 Co6 2.069 . S
O15 C25 1.289 . S
O16 Co6 2.015 1_455 S
O16 C26 1.257 . S
O17 Co2 2.089 1_666 S
O17 C27 1.274 . S
O18 Co7 1.976 . S
O18 C27 1.251 . S
O19 Co6 2.264 . S
O19 Co7 2.327 1_545 S
O19 C28 1.257 . S
O20 Co7 2.073 . S
O20 C28 1.245 1_565 S
C21 O29 1.259 1_455 S
C21 O30 1.289 . S
C22 O31 1.246 . S
C22 O32 1.257 . S
C23 O11 1.251 . S
C23 O12 1.274 . S
C24 O9 1.245 1_565 S
C24 O10 1.257 . S
C25 O14 1.259 1_655 S
C25 O15 1.289 . S
C26 O13 1.246 . S
C26 O16 1.257 . S
C27 O17 1.274 . S
C27 O18 1.251 . S
C28 O19 1.257 . S
C28 O20 1.245 1_545 S
O29 Co0 2.286 1_655 S
O29 C21 1.259 1_655 S
O30 Co0 2.069 . S
O30 C21 1.289 . S
O31 Co2 2.129 1_665 S
O31 C22 1.246 . S
O32 Co0 2.015 1_655 S
O32 C22 1.257 . S
H33 C41 0.940 . S
H34 C44 0.940 . S
H35 C46 0.940 . S
H36 C47 0.940 . S
H37 C50 0.940 . S
H38 C52 0.940 . S
N39 N40 1.190 . S
N39 C43 1.477 . S
N40 N39 1.190 . S
N40 C49 1.477 . S
C41 H33 0.940 . S
C41 C42 1.395 1_455 S
C41 C43 1.322 . S
C42 C41 1.395 1_655 S
C42 C46 1.364 . S
C43 N39 1.477 . S
C43 C41 1.322 . S
C43 C44 1.447 . S
C44 H34 0.940 . S
C44 C43 1.447 . S
C44 C45 1.373 . S
C45 C44 1.373 . S
C45 C46 1.417 1_455 S
C46 H35 0.940 . S
C46 C42 1.364 . S
C46 C45 1.417 1_655 S
C47 H36 0.940 . S
C47 C48 1.378 1_455 S
C47 C49 1.322 . S
C48 C47 1.378 1_655 S
C48 C52 1.377 . S
C49 N40 1.477 . S
C49 C47 1.322 . S
C49 C50 1.447 . S
C50 H37 0.940 . S
C50 C49 1.447 . S
C50 C51 1.373 . S
C51 C50 1.373 . S
C51 C52 1.417 1_455 S
C52 H38 0.940 . S
C52 C48 1.377 . S
C52 C51 1.417 1_655 S
H53 C61 0.940 . S
H54 C64 0.940 . S
H55 C66 0.940 . S
H56 C67 0.940 . S
H57 C70 0.940 . S
H58 C72 0.940 . S
N59 N60 1.190 . S
N59 C63 1.477 . S
N60 N59 1.190 . S
N60 C69 1.477 . S
C61 H53 0.940 . S
C61 C62 1.380 1_545 S
C61 C63 1.322 . S
C62 C61 1.380 1_565 S
C62 C66 1.378 . S
C63 N59 1.477 . S
C63 C61 1.322 . S
C63 C64 1.447 . S
C64 H54 0.940 . S
C64 C63 1.447 . S
C64 C65 1.373 . S
C65 C64 1.373 . S
C65 C66 1.417 1_545 S
C66 H55 0.940 . S
C66 C62 1.378 . S
C66 C65 1.417 1_565 S
C67 H56 0.940 . S
C67 C68 1.394 1_545 S
C67 C69 1.322 . S
C68 C67 1.394 1_565 S
C68 C72 1.363 . S
C69 N60 1.477 . S
C69 C67 1.322 . S
C69 C70 1.447 . S
C70 H57 0.940 . S
C70 C69 1.447 . S
C70 C71 1.373 . S
C71 C70 1.373 . S
C71 C72 1.417 1_545 S
C72 H58 0.940 . S
C72 C68 1.363 . S
C72 C71 1.417 1_565 S
H73 C91 0.951 . S
H74 C93 0.951 . S
H75 C95 0.950 . S
H76 C96 0.950 . S
H77 C98 0.950 . S
H78 C101 0.950 1_655 S
H79 C102 0.950 . S
H80 C104 0.950 . S
H81 C105 0.950 . S
H82 C106 0.951 . S
H83 C108 0.951 . S
H84 C110 0.950 . S
H85 C111 0.950 . S
H86 C113 0.950 . S
H87 C116 0.950 1_455 S
H88 C117 0.950 . S
H89 C119 0.950 . S
H90 C120 0.950 . S
C91 H73 0.951 . S
C91 C92 1.355 1_455 S
C91 C93 1.388 . S
C92 C91 1.355 1_655 S
C92 C96 1.399 . S
C93 H74 0.951 . S
C93 C91 1.388 . S
C93 C94 1.366 1_455 S
C94 C93 1.366 1_655 S
C94 C95 1.414 . S
C94 C97 1.499 . S
C95 H75 0.950 . S
C95 C94 1.414 . S
C95 C96 1.374 . S
C96 H76 0.950 . S
C96 C92 1.399 . S
C96 C95 1.374 . S
C97 C94 1.499 . S
C97 C98 1.373 . S
C97 C99 1.389 1_655 S
C98 H77 0.950 . S
C98 C97 1.373 . S
C98 C114 1.377 . S
C99 C97 1.389 1_455 S
C99 C100 1.524 . S
C99 C113 1.377 . S
C100 C99 1.524 . S
C100 C101 1.397 . S
C100 C105 1.363 . S
C101 H78 0.950 1_455 S
C101 C100 1.397 . S
C101 C102 1.334 . S
C102 H79 0.950 . S
C102 C101 1.334 . S
C102 C103 1.287 . S
C103 C102 1.287 . S
C103 C104 1.524 . S
C103 H122 0.913 . S
C104 H80 0.950 . S
C104 C103 1.524 . S
C104 C105 1.415 . S
C105 H81 0.950 . S
C105 C100 1.363 . S
C105 C104 1.415 . S
C106 H82 0.951 . S
C106 C107 1.366 . S
C106 C108 1.388 . S
C107 C106 1.366 . S
C107 C111 1.385 1_655 S
C108 H83 0.951 . S
C108 C106 1.388 . S
C108 C109 1.366 . S
C109 C108 1.366 . S
C109 C110 1.414 1_655 S
C109 C112 1.505 . S
C110 H84 0.950 . S
C110 C109 1.414 1_455 S
C110 C111 1.374 . S
C111 H85 0.950 . S
C111 C107 1.385 1_455 S
C111 C110 1.374 . S
C112 C109 1.505 . S
C112 C113 1.353 1_655 S
C112 C114 1.405 . S
C113 H86 0.950 . S
C113 C99 1.377 . S
C113 C112 1.353 1_455 S
C114 C98 1.377 . S
C114 C112 1.405 . S
C114 C115 1.524 . S
C115 C114 1.524 . S
C115 C116 1.397 . S
C115 C120 1.363 . S
C116 H87 0.950 1_655 S
C116 C115 1.397 . S
C116 C117 1.334 . S
C117 H88 0.950 . S
C117 C116 1.334 . S
C117 C118 1.287 . S
C118 C117 1.287 . S
C118 C119 1.524 . S
C118 H121 0.999 . S
C119 H89 0.950 . S
C119 C118 1.524 . S
C119 C120 1.415 . S
C120 H90 0.950 . S
C120 C115 1.363 . S
C120 C119 1.415 . S
H121 C118 0.999 . S
H122 C103 0.913 . S
H123 C141 0.951 . S
H124 C143 0.951 . S
H125 C145 0.950 . S
H126 C146 0.950 . S
H127 C148 0.950 . S
H128 C151 0.950 . S
H129 C152 0.950 . S
H130 C154 0.950 . S
H131 C155 0.950 . S
H132 C156 0.951 . S
H133 C158 0.951 . S
H134 C160 0.950 . S
H135 C161 0.950 . S
H136 C163 0.950 . S
H137 C166 0.950 . S
H138 C167 0.950 . S
H139 C169 0.950 . S
H140 C170 0.950 . S
C141 H123 0.951 . S
C141 C142 1.366 . S
C141 C143 1.388 . S
C142 C141 1.366 . S
C142 C146 1.385 1_565 S
C143 H124 0.951 . S
C143 C141 1.388 . S
C143 C144 1.366 . S
C144 C143 1.366 . S
C144 C145 1.414 1_565 S
C144 C147 1.500 . S
C145 H125 0.950 . S
C145 C144 1.414 1_545 S
C145 C146 1.374 . S
C146 H126 0.950 . S
C146 C142 1.385 1_545 S
C146 C145 1.374 . S
C147 C144 1.500 . S
C147 C148 1.375 1_565 S
C147 C149 1.387 . S
C148 H127 0.950 . S
C148 C147 1.375 1_545 S
C148 C164 1.379 1_545 S
C149 C147 1.387 . S
C149 C150 1.524 . S
C149 C163 1.377 . S
C150 C149 1.524 . S
C150 C151 1.397 1_565 S
C150 C155 1.363 . S
C151 H128 0.950 . S
C151 C150 1.397 1_545 S
C151 C152 1.334 . S
C152 H129 0.950 . S
C152 C151 1.334 . S
C152 C153 1.287 . S
C153 C152 1.287 . S
C153 C154 1.524 1_545 S
C153 H172 0.913 . S
C154 H130 0.950 . S
C154 C153 1.524 1_565 S
C154 C155 1.415 . S
C155 H131 0.950 . S
C155 C150 1.363 . S
C155 C154 1.415 . S
C156 H132 0.951 . S
C156 C157 1.366 1_545 S
C156 C158 1.388 . S
C157 C156 1.366 1_565 S
C157 C161 1.385 . S
C158 H133 0.951 . S
C158 C156 1.388 . S
C158 C159 1.366 1_545 S
C159 C158 1.366 1_565 S
C159 C160 1.414 . S
C159 C162 1.499 . S
C160 H134 0.950 . S
C160 C159 1.414 . S
C160 C161 1.374 . S
C161 H135 0.950 . S
C161 C157 1.385 . S
C161 C160 1.374 . S
C162 C159 1.499 . S
C162 C163 1.373 . S
C162 C164 1.382 . S
C163 H136 0.950 . S
C163 C149 1.377 . S
C163 C162 1.373 . S
C164 C148 1.379 1_565 S
C164 C162 1.382 . S
C164 C165 1.533 . S
C165 C164 1.533 . S
C165 C166 1.397 . S
C165 C170 1.363 1_565 S
C166 H137 0.950 . S
C166 C165 1.397 . S
C166 C167 1.334 . S
C167 H138 0.950 . S
C167 C166 1.334 . S
C167 C168 1.287 . S
C168 C167 1.287 . S
C168 C169 1.524 1_565 S
C168 H171 0.999 . S
C169 H139 0.950 . S
C169 C168 1.524 1_545 S
C169 C170 1.415 . S
C170 H140 0.950 . S
C170 C165 1.363 1_545 S
C170 C169 1.415 . S
H171 C168 0.999 . S
H172 C153 0.913 . S
H173 C191 0.951 . S
H174 C193 0.951 . S
H175 C195 0.950 . S
H176 C196 0.950 . S
H177 C198 0.950 . S
H178 C201 0.950 . S
H179 C202 0.950 . S
H180 C204 0.950 . S
H181 C205 0.950 . S
H182 C206 0.951 . S
H183 C208 0.951 . S
H184 C210 0.950 . S
H185 C211 0.950 . S
H186 C213 0.950 . S
H187 C216 0.950 . S
H188 C217 0.950 . S
H189 C219 0.950 . S
H190 C220 0.950 . S
C191 H173 0.951 . S
C191 C192 1.366 . S
C191 C193 1.388 . S
C192 C191 1.366 . S
C192 C196 1.385 . S
C193 H174 0.951 . S
C193 C191 1.388 . S
C193 C194 1.366 . S
C194 C193 1.366 . S
C194 C195 1.414 . S
C194 C197 1.499 . S
C195 H175 0.950 . S
C195 C194 1.414 . S
C195 C196 1.374 . S
C196 H176 0.950 . S
C196 C192 1.385 . S
C196 C195 1.374 . S
C197 C194 1.499 . S
C197 C198 1.373 1_455 S
C197 C199 1.389 . S
C198 H177 0.950 . S
C198 C197 1.373 1_655 S
C198 C214 1.377 . S
C199 C197 1.389 . S
C199 C200 1.524 . S
C199 C213 1.377 . S
C200 C199 1.524 . S
C200 C201 1.397 . S
C200 C205 1.363 . S
C201 H178 0.950 . S
C201 C200 1.397 . S
C201 C202 1.334 . S
C202 H179 0.950 . S
C202 C201 1.334 . S
C202 C203 1.287 . S
C203 C202 1.287 . S
C203 C204 1.524 . S
C203 H222 0.913 . S
C204 H180 0.950 . S
C204 C203 1.524 . S
C204 C205 1.415 . S
C205 H181 0.950 . S
C205 C200 1.363 . S
C205 C204 1.415 . S
C206 H182 0.951 . S
C206 C207 1.366 . S
C206 C208 1.388 . S
C207 C206 1.366 . S
C207 C211 1.385 . S
C208 H183 0.951 . S
C208 C206 1.388 . S
C208 C209 1.366 . S
C209 C208 1.366 . S
C209 C210 1.414 . S
C209 C212 1.499 . S
C210 H184 0.950 . S
C210 C209 1.414 . S
C210 C211 1.374 . S
C211 H185 0.950 . S
C211 C207 1.385 . S
C211 C210 1.374 . S
C212 C209 1.499 . S
C212 C213 1.373 . S
C212 C214 1.389 1_455 S
C213 H186 0.950 . S
C213 C199 1.377 . S
C213 C212 1.373 . S
C214 C198 1.377 . S
C214 C212 1.389 1_655 S
C214 C215 1.524 . S
C215 C214 1.524 . S
C215 C216 1.397 . S
C215 C220 1.363 . S
C216 H187 0.950 . S
C216 C215 1.397 . S
C216 C217 1.334 . S
C217 H188 0.950 . S
C217 C216 1.334 . S
C217 C218 1.287 . S
C218 C217 1.287 . S
C218 C219 1.524 . S
C218 H221 0.999 . S
C219 H189 0.950 . S
C219 C218 1.524 . S
C219 C220 1.415 . S
C220 H190 0.950 . S
C220 C215 1.363 . S
C220 C219 1.415 . S
H221 C218 0.999 . S
H222 C203 0.913 . S
H223 C241 0.951 . S
H224 C243 0.951 . S
H225 C245 0.950 . S
H226 C246 0.950 . S
H227 C248 0.950 . S
H228 C251 0.950 . S
H229 C252 0.950 . S
H230 C254 0.950 . S
H231 C255 0.949 1_545 S
H232 C256 0.951 . S
H233 C258 0.951 . S
H234 C260 0.950 . S
H235 C261 0.950 . S
H236 C263 0.950 . S
H237 C266 0.950 . S
H238 C267 0.950 . S
H239 C269 0.950 . S
H240 C270 0.950 1_565 S
C241 H223 0.951 . S
C241 C242 1.366 1_545 S
C241 C243 1.388 . S
C242 C241 1.366 1_565 S
C242 C246 1.385 . S
C243 H224 0.951 . S
C243 C241 1.388 . S
C243 C244 1.366 1_545 S
C244 C243 1.366 1_565 S
C244 C245 1.414 . S
C244 C247 1.499 . S
C245 H225 0.950 . S
C245 C244 1.414 . S
C245 C246 1.374 . S
C246 H226 0.950 . S
C246 C242 1.385 . S
C246 C245 1.374 . S
C247 C244 1.499 . S
C247 C248 1.373 1_565 S
C247 C249 1.389 . S
C248 H227 0.950 . S
C248 C247 1.373 1_545 S
C248 C264 1.377 . S
C249 C247 1.389 . S
C249 C250 1.524 . S
C249 C263 1.377 . S
C250 C249 1.524 . S
C250 C251 1.397 . S
C250 C255 1.363 . S
C251 H228 0.950 . S
C251 C250 1.397 . S
C251 C252 1.334 . S
C252 H229 0.950 . S
C252 C251 1.334 . S
C252 C253 1.287 . S
C253 C252 1.287 . S
C253 C254 1.524 . S
C253 H272 0.913 . S
C254 H230 0.950 . S
C254 C253 1.524 . S
C254 C255 1.415 . S
C255 H231 0.949 1_565 S
C255 C250 1.363 . S
C255 C254 1.415 . S
C256 H232 0.951 . S
C256 C257 1.366 1_565 S
C256 C258 1.388 . S
C257 C256 1.366 1_545 S
C257 C261 1.385 . S
C258 H233 0.951 . S
C258 C256 1.388 . S
C258 C259 1.361 1_565 S
C259 C258 1.361 1_545 S
C259 C260 1.416 . S
C259 C262 1.502 1_545 S
C260 H234 0.950 . S
C260 C259 1.416 . S
C260 C261 1.374 . S
C261 H235 0.950 . S
C261 C257 1.385 . S
C261 C260 1.374 . S
C262 C259 1.502 1_565 S
C262 C263 1.373 . S
C262 C264 1.389 1_565 S
C263 H236 0.950 . S
C263 C249 1.377 . S
C263 C262 1.373 . S
C264 C248 1.377 . S
C264 C262 1.389 1_545 S
C264 C265 1.524 . S
C265 C264 1.524 . S
C265 C266 1.397 . S
C265 C270 1.363 . S
C266 H237 0.950 . S
C266 C265 1.397 . S
C266 C267 1.334 . S
C267 H238 0.950 . S
C267 C266 1.334 . S
C267 C268 1.287 . S
C268 C267 1.287 . S
C268 C269 1.524 . S
C268 H271 0.999 . S
C269 H239 0.950 . S
C269 C268 1.524 . S
C269 C270 1.415 . S
C270 H240 0.950 1_545 S
C270 C265 1.363 . S
C270 C269 1.415 . S
H271 C268 0.999 . S
H272 C253 0.913 . S
H273 C291 0.951 . S
H274 C293 0.951 . S
H275 C295 0.950 . S
H276 C296 0.950 . S
H277 C298 0.950 . S
H278 C301 0.950 . S
H279 C302 0.950 . S
H280 C304 0.950 . S
H281 C305 0.950 . S
H282 C306 0.951 . S
H283 C308 0.946 . S
H284 C310 0.950 . S
H285 C311 0.950 . S
H286 C313 0.950 . S
H287 C316 0.950 . S
H288 C317 0.950 . S
H289 C319 0.950 . S
H290 C320 0.950 . S
C291 H273 0.951 . S
C291 C292 1.366 1_655 S
C291 C293 1.388 . S
C292 C291 1.366 1_455 S
C292 C296 1.385 . S
C293 H274 0.951 . S
C293 C291 1.388 . S
C293 C294 1.366 1_655 S
C294 C293 1.366 1_455 S
C294 C295 1.414 . S
C294 C297 1.499 . S
C295 H275 0.950 . S
C295 C294 1.414 . S
C295 C296 1.374 . S
C296 H276 0.950 . S
C296 C292 1.385 . S
C296 C295 1.374 . S
C297 C294 1.499 . S
C297 C298 1.373 1_455 S
C297 C299 1.389 . S
C298 H277 0.950 . S
C298 C297 1.373 1_655 S
C298 C314 1.377 . S
C299 C297 1.389 . S
C299 C300 1.524 . S
C299 C313 1.377 . S
C300 C299 1.524 . S
C300 C301 1.397 . S
C300 C305 1.363 . S
C301 H278 0.950 . S
C301 C300 1.397 . S
C301 C302 1.334 . S
C302 H279 0.950 . S
C302 C301 1.334 . S
C302 C303 1.287 . S
C303 C302 1.287 . S
C303 C304 1.524 . S
C303 H322 0.913 . S
C304 H280 0.950 . S
C304 C303 1.524 . S
C304 C305 1.415 . S
C305 H281 0.950 . S
C305 C300 1.363 . S
C305 C304 1.415 . S
C306 H282 0.951 . S
C306 C307 1.366 1_455 S
C306 C308 1.393 . S
C307 C306 1.366 1_655 S
C307 C311 1.385 . S
C308 H283 0.946 . S
C308 C306 1.393 . S
C308 C309 1.366 1_455 S
C309 C308 1.366 1_655 S
C309 C310 1.414 . S
C309 C312 1.499 . S
C310 H284 0.950 . S
C310 C309 1.414 . S
C310 C311 1.374 . S
C311 H285 0.950 . S
C311 C307 1.385 . S
C311 C310 1.374 . S
C312 C309 1.499 . S
C312 C313 1.373 1_655 S
C312 C314 1.389 . S
C313 H286 0.950 . S
C313 C299 1.377 . S
C313 C312 1.373 1_455 S
C314 C298 1.377 . S
C314 C312 1.389 . S
C314 C315 1.524 . S
C315 C314 1.524 . S
C315 C316 1.397 . S
C315 C320 1.363 . S
C316 H287 0.950 . S
C316 C315 1.397 . S
C316 C317 1.334 . S
C317 H288 0.950 . S
C317 C316 1.334 . S
C317 C318 1.287 . S
C318 C317 1.287 . S
C318 C319 1.524 . S
C318 H321 0.999 . S
C319 H289 0.950 . S
C319 C318 1.524 . S
C319 C320 1.415 . S
C320 H290 0.950 . S
C320 C315 1.363 . S
C320 C319 1.415 . S
H321 C318 0.999 . S
H322 C303 0.913 . S
H323 C341 0.951 . S
H324 C343 0.951 . S
H325 C345 0.950 . S
H326 C346 0.950 . S
H327 C348 0.950 . S
H328 C351 0.950 . S
H329 C352 0.950 . S
H330 C354 0.950 . S
H331 C355 0.950 . S
H332 C356 0.951 . S
H333 C358 0.951 . S
H334 C360 0.950 . S
H335 C361 0.950 . S
H336 C363 0.950 . S
H337 C366 0.950 . S
H338 C367 0.950 . S
H339 C369 0.950 . S
H340 C370 0.950 . S
C341 H323 0.951 . S
C341 C342 1.366 1_565 S
C341 C343 1.388 . S
C342 C341 1.366 1_545 S
C342 C346 1.385 . S
C343 H324 0.951 . S
C343 C341 1.388 . S
C343 C344 1.366 . S
C344 C343 1.366 . S
C344 C345 1.414 1_565 S
C344 C347 1.496 . S
C345 H325 0.950 . S
C345 C344 1.414 1_545 S
C345 C346 1.374 . S
C346 H326 0.950 . S
C346 C342 1.385 . S
C346 C345 1.374 . S
C347 C344 1.496 . S
C347 C348 1.362 1_565 S
C347 C349 1.403 . S
C348 H327 0.950 . S
C348 C347 1.362 1_545 S
C348 C364 1.377 . S
C349 C347 1.403 . S
C349 C350 1.524 . S
C349 C363 1.377 . S
C350 C349 1.524 . S
C350 C351 1.397 . S
C350 C355 1.363 . S
C351 H328 0.950 . S
C351 C350 1.397 . S
C351 C352 1.334 . S
C352 H329 0.950 . S
C352 C351 1.334 . S
C352 C353 1.287 . S
C353 C352 1.287 . S
C353 C354 1.524 . S
C353 H372 0.913 . S
C354 H330 0.950 . S
C354 C353 1.524 . S
C354 C355 1.415 . S
C355 H331 0.950 . S
C355 C350 1.363 . S
C355 C354 1.415 . S
C356 H332 0.951 . S
C356 C357 1.366 1_545 S
C356 C358 1.388 . S
C357 C356 1.366 1_565 S
C357 C361 1.385 . S
C358 H333 0.951 . S
C358 C356 1.388 . S
C358 C359 1.365 . S
C359 C358 1.365 . S
C359 C360 1.412 1_545 S
C359 C362 1.501 . S
C360 H334 0.950 . S
C360 C359 1.412 1_565 S
C360 C361 1.374 . S
C361 H335 0.950 . S
C361 C357 1.385 . S
C361 C360 1.374 . S
C362 C359 1.501 . S
C362 C363 1.373 1_545 S
C362 C364 1.389 . S
C363 H336 0.950 . S
C363 C349 1.377 . S
C363 C362 1.373 1_565 S
C364 C348 1.377 . S
C364 C362 1.389 . S
C364 C365 1.524 . S
C365 C364 1.524 . S
C365 C366 1.397 . S
C365 C370 1.363 . S
C366 H337 0.950 . S
C366 C365 1.397 . S
C366 C367 1.334 . S
C367 H338 0.950 . S
C367 C366 1.334 . S
C367 C368 1.287 . S
C368 C367 1.287 . S
C368 C369 1.524 . S
C368 H371 0.999 . S
C369 H339 0.950 . S
C369 C368 1.524 . S
C369 C370 1.415 . S
C370 H340 0.950 . S
C370 C365 1.363 . S
C370 C369 1.415 . S
H371 C368 0.999 . S
H372 C353 0.913 . S
H373 C391 0.951 . S
H374 C393 0.951 . S
H375 C395 0.950 . S
H376 C396 0.950 . S
H377 C398 0.950 . S
H378 C401 0.950 . S
H379 C402 0.950 . S
H380 C404 0.950 . S
H381 C405 0.950 . S
H382 C406 0.951 . S
H383 C408 0.951 . S
H384 C410 0.950 . S
H385 C411 0.950 . S
H386 C413 0.950 . S
H387 C416 0.950 . S
H388 C417 0.950 . S
H389 C419 0.950 . S
H390 C420 0.950 . S
C391 H373 0.951 . S
C391 C392 1.366 . S
C391 C393 1.388 . S
C392 C391 1.366 . S
C392 C396 1.385 1_655 S
C393 H374 0.951 . S
C393 C391 1.388 . S
C393 C394 1.366 . S
C394 C393 1.366 . S
C394 C395 1.414 1_655 S
C394 C397 1.499 . S
C395 H375 0.950 . S
C395 C394 1.414 1_455 S
C395 C396 1.374 . S
C396 H376 0.950 . S
C396 C392 1.385 1_455 S
C396 C395 1.374 . S
C397 C394 1.499 . S
C397 C398 1.373 1_655 S
C397 C399 1.389 . S
C398 H377 0.950 . S
C398 C397 1.373 1_455 S
C398 C414 1.377 . S
C399 C397 1.389 . S
C399 C400 1.524 . S
C399 C413 1.377 . S
C400 C399 1.524 . S
C400 C401 1.397 . S
C400 C405 1.363 . S
C401 H378 0.950 . S
C401 C400 1.397 . S
C401 C402 1.334 . S
C402 H379 0.950 . S
C402 C401 1.334 . S
C402 C403 1.287 . S
C403 C402 1.287 . S
C403 C404 1.524 . S
C403 H422 0.913 . S
C404 H380 0.950 . S
C404 C403 1.524 . S
C404 C405 1.415 . S
C405 H381 0.950 . S
C405 C400 1.363 . S
C405 C404 1.415 . S
C406 H382 0.951 . S
C406 C407 1.366 . S
C406 C408 1.388 . S
C407 C406 1.366 . S
C407 C411 1.385 1_455 S
C408 H383 0.951 . S
C408 C406 1.388 . S
C408 C409 1.368 . S
C409 C408 1.368 . S
C409 C410 1.410 1_455 S
C409 C412 1.500 1_455 S
C410 H384 0.950 . S
C410 C409 1.410 1_655 S
C410 C411 1.374 . S
C411 H385 0.950 . S
C411 C407 1.385 1_655 S
C411 C410 1.374 . S
C412 C409 1.500 1_655 S
C412 C413 1.373 . S
C412 C414 1.389 1_655 S
C413 H386 0.950 . S
C413 C399 1.377 . S
C413 C412 1.373 . S
C414 C398 1.377 . S
C414 C412 1.389 1_455 S
C414 C415 1.524 . S
C415 C414 1.524 . S
C415 C416 1.397 . S
C415 C420 1.363 . S
C416 H387 0.950 . S
C416 C415 1.397 . S
C416 C417 1.334 . S
C417 H388 0.950 . S
C417 C416 1.334 . S
C417 C418 1.287 . S
C418 C417 1.287 . S
C418 C419 1.524 . S
C418 H421 0.999 . S
C419 H389 0.950 . S
C419 C418 1.524 . S
C419 C420 1.415 . S
C420 H390 0.950 . S
C420 C415 1.363 . S
C420 C419 1.415 . S
H421 C418 0.999 . S
H422 C403 0.913 . S
H423 C441 0.944 1_565 S
H424 C443 0.951 1_565 S
H425 C445 0.950 . S
H426 C446 0.950 . S
H427 C448 0.950 . S
H428 C451 0.950 . S
H429 C452 0.950 . S
H430 C454 0.950 . S
H431 C455 0.950 . S
H432 C456 0.951 . S
H433 C458 0.951 . S
H434 C460 0.950 . S
H435 C461 0.950 . S
H436 C463 0.950 . S
H437 C466 0.950 . S
H438 C467 0.950 . S
H439 C469 0.950 . S
H440 C470 0.950 . S
C441 H423 0.944 1_545 S
C441 C442 1.366 . S
C441 C443 1.388 . S
C442 C441 1.366 . S
C442 C446 1.385 . S
C443 H424 0.951 1_545 S
C443 C441 1.388 . S
C443 C444 1.366 . S
C444 C443 1.366 . S
C444 C445 1.414 . S
C444 C447 1.499 . S
C445 H425 0.950 . S
C445 C444 1.414 . S
C445 C446 1.374 . S
C446 H426 0.950 . S
C446 C442 1.385 . S
C446 C445 1.374 . S
C447 C444 1.499 . S
C447 C448 1.373 1_545 S
C447 C449 1.389 . S
C448 H427 0.950 . S
C448 C447 1.373 1_565 S
C448 C464 1.377 . S
C449 C447 1.389 . S
C449 C450 1.524 . S
C449 C463 1.377 . S
C450 C449 1.524 . S
C450 C451 1.397 . S
C450 C455 1.363 . S
C451 H428 0.950 . S
C451 C450 1.397 . S
C451 C452 1.334 . S
C452 H429 0.950 . S
C452 C451 1.334 . S
C452 C453 1.287 . S
C453 C452 1.287 . S
C453 C454 1.524 . S
C453 H472 0.913 . S
C454 H430 0.950 . S
C454 C453 1.524 . S
C454 C455 1.415 . S
C455 H431 0.950 . S
C455 C450 1.363 . S
C455 C454 1.415 . S
C456 H432 0.951 . S
C456 C457 1.366 . S
C456 C458 1.388 . S
C457 C456 1.366 . S
C457 C461 1.385 1_545 S
C458 H433 0.951 . S
C458 C456 1.388 . S
C458 C459 1.366 . S
C459 C458 1.366 . S
C459 C460 1.414 1_545 S
C459 C462 1.499 . S
C460 H434 0.950 . S
C460 C459 1.414 1_565 S
C460 C461 1.374 . S
C461 H435 0.950 . S
C461 C457 1.385 1_565 S
C461 C460 1.374 . S
C462 C459 1.499 . S
C462 C463 1.373 . S
C462 C464 1.389 1_545 S
C463 H436 0.950 . S
C463 C449 1.377 . S
C463 C462 1.373 . S
C464 C448 1.377 . S
C464 C462 1.389 1_565 S
C464 C465 1.524 . S
C465 C464 1.524 . S
C465 C466 1.397 . S
C465 C470 1.363 . S
C466 H437 0.950 . S
C466 C465 1.397 . S
C466 C467 1.334 . S
C467 H438 0.950 . S
C467 C466 1.334 . S
C467 C468 1.287 . S
C468 C467 1.287 . S
C468 C469 1.524 . S
C468 H471 0.999 . S
C469 H439 0.950 . S
C469 C468 1.524 . S
C469 C470 1.415 . S
C470 H440 0.950 . S
C470 C465 1.363 . S
C470 C469 1.415 . S
H471 C468 0.999 . S
H472 C453 0.913 . S
C92 C23 1.503 1_655 S
C107 C42 1.554 . S
C142 C22 1.657 . S
C157 C62 1.660 . S
C192 C21 2.067 . S
C207 C51 2.053 . S
C242 C24 1.725 . S
C257 C71 1.790 . S
C292 C27 1.504 1_455 S
C307 C48 1.561 . S
C342 C26 1.661 . S
C357 C68 1.657 . S
C407 C45 2.057 . S
C392 C25 2.069 . S
C442 C28 1.724 . S
C457 C65 1.783 . S
