# Generated by pormake.
# Topology anh, (6,3)-cn, num edge types: 1
# Building blocks:
#     Node 0, Type 0, BuildingBlock: BETFEN_clean_sbu_0, # of connection points: 6
#     Node 1, Type 0, BuildingBlock: BETFEN_clean_sbu_0, # of connection points: 6
#     Node 2, Type 0, BuildingBlock: BETFEN_clean_sbu_0, # of connection points: 6
#     Node 3, Type 1, BuildingBlock: BELTOD_clean_linker_0, # of connection points: 3
#     Node 4, Type 1, BuildingBlock: BELTOD_clean_linker_0, # of connection points: 3
#     Node 5, Type 1, BuildingBlock: BELTOD_clean_linker_0, # of connection points: 3
#     Node 6, Type 1, BuildingBlock: BELTOD_clean_linker_0, # of connection points: 3
#     Node 7, Type 1, BuildingBlock: BELTOD_clean_linker_0, # of connection points: 3
#     Node 8, Type 1, BuildingBlock: BELTOD_clean_linker_0, # of connection points: 3
#     Edge 9, Type (0, 1), None
#     Edge 10, Type (0, 1), None
#     Edge 11, Type (0, 1), None
#     Edge 12, Type (0, 1), None
#     Edge 13, Type (0, 1), None
#     Edge 14, Type (0, 1), None
#     Edge 15, Type (0, 1), None
#     Edge 16, Type (0, 1), None
#     Edge 17, Type (0, 1), None
#     Edge 18, Type (0, 1), None
#     Edge 19, Type (0, 1), None
#     Edge 20, Type (0, 1), None
#     Edge 21, Type (0, 1), None
#     Edge 22, Type (0, 1), None
#     Edge 23, Type (0, 1), None
#     Edge 24, Type (0, 1), None
#     Edge 25, Type (0, 1), None
#     Edge 26, Type (0, 1), None
# Relax obj value: 0.323
# Max RMSD: 0.273
# Mean RMSD: 0.183
data_MOF--net-anh--node1-BETFEN_clean_sbu_0--node2-BELTOD_clean_linker_0--edge1-none
_symmetry_space_group_name_H-M    P1
_symmetry_Int_Tables_number       1
_symmetry_cell_setting            triclinic
loop_
_symmetry_equiv_pos_as_xyz
'x, y, z'
_cell_length_a     17.454278
_cell_length_b     18.448809
_cell_length_c     32.549403
_cell_angle_alpha  91.730449
_cell_angle_beta   91.295683
_cell_angle_gamma 96.170272
loop_
_atom_site_label
_atom_site_type_symbol
_atom_site_fract_x
_atom_site_fract_y
_atom_site_fract_z
_atom_type_partial_charge
Pr0 Pr 0.09942 0.52917 0.12385 0.0
Pr1 Pr 0.11666 0.68675 0.11978 0.0
C2 C 0.05787 0.38867 0.14131 0.0
C3 C 0.99304 0.3465 0.1606 0.0
C4 C 0.98013 0.27111 0.15293 0.0
C5 C 0.92017 0.2298 0.17204 0.0
C6 C 0.87221 0.26326 0.19933 0.0
C7 C 0.8844 0.33936 0.20618 0.0
C8 C 0.94431 0.38067 0.18691 0.0
C9 C 0.11542 0.57574 0.04324 0.0
C10 C 0.94128 0.61367 0.11701 0.0
C11 C 0.16586 0.82874 0.11228 0.0
C12 C 0.22919 0.86994 0.13639 0.0
C13 C 0.2616 0.83623 0.16964 0.0
C14 C 0.32249 0.87268 0.19298 0.0
C15 C 0.35265 0.94378 0.18359 0.0
C16 C 0.3208 0.97732 0.14983 0.0
C17 C 0.2592 0.94059 0.12639 0.0
C18 C 0.10062 0.63979 0.20055 0.0
C19 C 0.2767 0.59834 0.11686 0.0
O20 O 0.10196 0.43388 0.1656 0.0
O21 O 0.04315 0.41587 0.1058 0.0
O22 O 0.07311 0.60223 0.06946 0.0
O23 O 0.15065 0.52336 0.05802 0.0
O24 O 0.98527 0.66699 0.10021 0.0
O25 O 0.9741 0.56194 0.13574 0.0
O26 O 0.18679 0.77779 0.08755 0.0
O27 O 0.10562 0.80625 0.1334 0.0
O28 O 0.14369 0.61413 0.17437 0.0
O29 O 0.06499 0.69113 0.18535 0.0
O30 O 0.23371 0.54015 0.12881 0.0
O31 O 0.24472 0.65803 0.10814 0.0
H32 H 1.01683 0.24407 0.13238 0.0
H33 H 0.91146 0.17156 0.16546 0.0
H34 H 0.84899 0.36676 0.22724 0.0
H35 H 0.95331 0.43908 0.19299 0.0
H36 H 0.23984 0.78124 0.17747 0.0
H37 H 0.34663 0.84468 0.21817 0.0
H38 H 0.34281 1.03213 0.14193 0.0
H39 H 0.23517 0.96715 0.10061 0.0
Pr40 Pr 0.5737 0.21073 0.53504 0.0
Pr41 Pr 0.38987 0.17996 0.51158 0.0
C42 C 0.72799 0.23276 0.52971 0.0
C43 C 0.78204 0.28751 0.50973 0.0
C44 C 0.83846 0.26438 0.48379 0.0
C45 C 0.88769 0.31523 0.4631 0.0
C46 C 0.88181 0.39047 0.46808 0.0
C47 C 0.82528 0.41351 0.49415 0.0
C48 C 0.77567 0.36264 0.51456 0.0
C49 C 0.47206 0.19338 0.6002 0.0
C50 C 0.47193 0.35683 0.52761 0.0
C51 C 0.24019 0.12767 0.50903 0.0
C52 C 0.20565 1.0518 0.4996 0.0
C53 C 0.1522 1.0374 0.46665 0.0
C54 C 0.13196 0.9658 0.45144 0.0
C55 C 0.1651 0.90718 0.4688 0.0
C56 C 0.21464 0.92127 0.50345 0.0
C57 C 0.23489 0.99268 0.51861 0.0
C58 C 0.47786 0.19411 0.44035 0.0
C59 C 0.4939 1.03147 0.52746 0.0
O60 O 0.68464 0.18774 0.50486 0.0
O61 O 0.69104 0.25509 0.56155 0.0
O62 O 0.46712 0.16039 0.56591 0.0
O63 O 0.53734 0.23514 0.60353 0.0
O64 O 0.40695 0.31075 0.53004 0.0
O65 O 0.5395 0.33058 0.52251 0.0
O66 O 0.27971 0.14024 0.54373 0.0
O67 O 0.27398 0.16036 0.47815 0.0
O68 O 0.50073 0.20049 0.47718 0.0
O69 O 0.40338 0.18181 0.4392 0.0
O70 O 0.55694 1.0788 0.5349 0.0
O71 O 0.42648 1.05613 0.51746 0.0
H72 H 0.84418 0.20679 0.47935 0.0
H73 H 0.93112 0.29567 0.44364 0.0
H74 H 0.81865 0.47095 0.49831 0.0
H75 H 0.73192 0.38219 0.53382 0.0
H76 H 0.12933 1.08196 0.45121 0.0
H77 H 0.09373 0.95685 0.42467 0.0
H78 H 0.23975 0.87711 0.51808 0.0
H79 H 0.27639 1.00164 0.54396 0.0
Pr80 Pr 0.61411 0.54882 0.79369 0.0
Pr81 Pr 0.64257 0.70047 0.83051 0.0
C82 C 0.61226 0.42674 0.74562 0.0
C83 C 0.64601 0.35752 0.74045 0.0
C84 C 0.67687 0.32329 0.77392 0.0
C85 C 0.68986 0.24975 0.77031 0.0
C86 C 0.66945 0.20862 0.73357 0.0
C87 C 0.64986 0.24726 0.69868 0.0
C88 C 0.63775 0.32068 0.70225 0.0
C89 C 0.60788 0.55402 0.87908 0.0
C90 C 0.79669 0.61895 0.81132 0.0
C91 C 0.6652 0.81957 0.88076 0.0
C92 C 0.60913 0.86815 0.89573 0.0
C93 C 0.61855 0.94198 0.88615 0.0
C94 C 0.5545 0.98123 0.88444 0.0
C95 C 0.48006 0.94577 0.8906 0.0
C96 C 0.47433 0.87802 0.90958 0.0
C97 C 0.53829 0.83863 0.91133 0.0
C98 C 0.59158 0.69525 0.74748 0.0
C99 C 0.46376 0.62796 0.82081 0.0
O100 O 0.65525 0.48703 0.7383 0.0
O101 O 0.56742 0.43277 0.77683 0.0
O102 O 0.65792 0.58984 0.85819 0.0
O103 O 0.56004 0.51107 0.85596 0.0
O104 O 0.76991 0.68277 0.81622 0.0
O105 O 0.7494 0.55778 0.80716 0.0
O106 O 0.65701 0.75313 0.89417 0.0
O107 O 0.67862 0.82161 0.84129 0.0
O108 O 0.64087 0.6582 0.76295 0.0
O109 O 0.56834 0.74 0.775 0.0
O110 O 0.48761 0.58619 0.79089 0.0
O111 O 0.51457 0.66569 0.84585 0.0
H112 H 0.68599 0.35183 0.8035 0.0
H113 H 0.71012 0.22438 0.7974 0.0
H114 H 0.63531 0.22009 0.66928 0.0
H115 H 0.61548 0.34682 0.67579 0.0
H116 H 0.67317 0.96669 0.87524 0.0
H117 H 0.56238 1.03497 0.87172 0.0
H118 H 0.41836 0.85054 0.9166 0.0
H119 H 0.52962 0.78236 0.92034 0.0
P120 P 0.62592 1.07699 0.29101 0.0
H121 H 0.594 1.07768 0.2011 0.0
H122 H 0.48374 1.02432 0.15823 0.0
H123 H 0.36779 0.94789 0.26716 0.0
H124 H 0.47816 1.00009 0.30957 0.0
H125 H 0.78356 1.05646 0.2693 0.0
H126 H 0.88225 0.13096 0.23322 0.0
H127 H 0.72518 0.29417 0.21611 0.0
H128 H 0.6268 0.21949 0.25353 0.0
H129 H 0.67686 1.09114 0.37749 0.0
H130 H 0.50364 0.17261 0.30012 0.0
O131 O 0.66411 1.00421 0.30834 0.0
H132 H 0.61613 0.13783 0.43847 0.0
H133 H 0.44278 0.21901 0.36108 0.0
C134 C 0.54392 1.04337 0.25861 0.0
C135 C 0.54452 1.05019 0.21578 0.0
C136 C 0.48132 1.01992 0.19129 0.0
C137 C 0.41714 0.98169 0.20929 0.0
C138 C 0.41666 0.97621 0.25228 0.0
C139 C 0.47956 1.00637 0.2766 0.0
C140 C 0.69806 0.13271 0.26423 0.0
C141 C 0.77024 1.1083 0.25792 0.0
C142 C 0.82654 0.15079 0.23692 0.0
C143 C 0.81157 0.21842 0.22154 0.0
C144 C 0.73887 0.24272 0.22793 0.0
C145 C 0.68254 0.20009 0.24915 0.0
C146 C 0.59344 0.12681 0.33446 0.0
C147 C 0.62706 0.1208 0.37358 0.0
C148 C 0.59299 0.14831 0.40843 0.0
C149 C 0.5251 0.18217 0.4044 0.0
C150 C 0.49518 0.19305 0.36493 0.0
C151 C 0.52969 0.1663 0.33013 0.0
P152 P 0.53197 0.69706 0.56063 0.0
H153 H 0.57646 0.59429 0.49466 0.0
H154 H 0.55969 0.46178 0.48511 0.0
H155 H 0.388 0.4466 0.57805 0.0
H156 H 0.4082 0.58058 0.5894 0.0
H157 H 0.62931 0.83636 0.56848 0.0
H158 H 0.61751 0.96377 0.55609 0.0
H159 H 0.38279 0.90739 0.5136 0.0
H160 H 0.3952 0.77682 0.52609 0.0
H161 H 0.61269 0.60486 0.61378 0.0
H162 H 0.47336 0.78223 0.63082 0.0
O163 O 0.62332 0.69854 0.54617 0.0
H164 H 0.63855 0.60479 0.68775 0.0
H165 H 0.49927 0.78229 0.70548 0.0
C166 C 0.49323 0.60109 0.54257 0.0
C167 C 0.53333 0.56385 0.51258 0.0
C168 C 0.52405 0.48645 0.50722 0.0
C169 C 0.47222 0.441 0.53057 0.0
C170 C 0.42802 0.47812 0.55883 0.0
C171 C 0.4391 0.55604 0.5651 0.0
C172 C 0.51419 0.79363 0.54762 0.0
C173 C 0.57494 0.84994 0.55587 0.0
C174 C 0.56804 0.92452 0.54877 0.0
C175 C 0.49925 0.94871 0.53332 0.0
C176 C 0.43725 0.89267 0.52533 0.0
C177 C 0.44437 0.81686 0.53242 0.0
C178 C 0.5415 0.69378 0.6164 0.0
C179 C 0.58701 0.64348 0.63347 0.0
C180 C 0.60196 0.64359 0.67592 0.0
C181 C 0.57157 0.69392 0.70262 0.0
C182 C 0.52389 0.74302 0.68575 0.0
C183 C 0.50897 0.74295 0.64299 0.0
P184 P 0.1296 0.66728 0.86483 0.0
H185 H 0.27656 0.74174 0.88761 0.0
H186 H 0.40772 0.72667 0.87154 0.0
H187 H 0.32995 0.54741 0.78696 0.0
H188 H 0.19458 0.56296 0.80421 0.0
H189 H 0.04458 0.73231 0.79994 0.0
H190 H 0.90736 0.71702 0.78148 0.0
H191 H 0.87852 0.51885 0.84904 0.0
H192 H 1.0162 0.53572 0.8688 0.0
H193 H 0.2014 0.55423 0.90967 0.0
H194 H 0.04106 0.71155 0.93426 0.0
O195 O 0.12944 0.75773 0.86903 0.0
H196 H 0.19707 0.51913 0.98164 0.0
H197 H 1.03631 0.67658 0.00617 0.0
C198 C 0.22516 0.65458 0.84665 0.0
C199 C 0.28682 0.69961 0.8651 0.0
C200 C 0.36267 0.69051 0.85591 0.0
C201 C 0.3804 0.63585 0.82773 0.0
C202 C 0.31858 0.59043 0.80861 0.0
C203 C 0.24123 0.59934 0.81833 0.0
C204 C 0.04114 0.63569 0.83616 0.0
C205 C 1.00973 0.68402 0.80965 0.0
C206 C 0.93083 0.67557 0.79934 0.0
C207 C 0.8818 0.61735 0.81431 0.0
C208 C 0.91478 0.56425 0.83699 0.0
C209 C 0.9938 0.57369 0.84812 0.0
C210 C 0.12252 0.63638 0.91681 0.0
C211 C 0.1652 0.58116 0.9305 0.0
C212 C 0.16268 0.56114 0.97164 0.0
C213 C 0.11688 0.5956 -0.00042 0.0
C214 C 0.07256 0.64944 -0.01457 0.0
C215 C 0.07518 0.6694 0.94434 0.0
P216 P 0.12119 0.6018 0.38631 0.0
H217 H 0.25637 0.69391 0.42002 0.0
H218 H 0.27386 0.81487 0.45338 0.0
H219 H 1.02984 0.83146 0.43878 0.0
H220 H 1.01248 0.70921 0.40573 0.0
H221 H 1.02339 0.47155 0.35511 0.0
H222 H 0.92917 0.38538 0.38818 0.0
H223 H 0.95737 0.5177 0.50035 0.0
H224 H 0.05132 0.60302 0.46731 0.0
H225 H 0.20116 0.53971 0.31711 0.0
H226 H 1.01763 0.67603 0.33343 0.0
O227 O 0.20074 0.56213 0.39651 0.0
H228 H 0.19359 0.55491 0.24263 0.0
H229 H 1.01048 0.69204 0.25924 0.0
C230 C 0.13305 0.69218 0.41045 0.0
C231 C 0.2064 0.72315 0.42412 0.0
C232 C 0.2163 0.79235 0.44345 0.0
C233 C 0.1531 0.83267 0.4491 0.0
C234 C 0.07969 0.80195 0.43479 0.0
C235 C 0.06974 0.73216 0.41581 0.0
C236 C 0.04269 0.54508 0.40825 0.0
C237 C 1.00803 0.4828 0.38654 0.0
C238 C 0.95481 0.43315 0.40563 0.0
C239 C 0.9355 0.44475 0.44691 0.0
C240 C 0.96984 0.50771 0.46835 0.0
C241 C 1.02347 0.55684 0.44936 0.0
C242 C 0.11086 0.60789 0.33108 0.0
C243 C 0.15907 0.5728 0.30477 0.0
C244 C 0.15472 0.58137 0.26214 0.0
C245 C 0.10217 0.6254 0.24513 0.0
C246 C 0.0522 0.65836 0.27145 0.0
C247 C 0.05628 0.64939 0.31398 0.0
P248 P 0.42848 0.991 0.72891 0.0
H249 H 0.54758 1.00731 0.66647 0.0
H250 H 0.6529 1.10468 0.66806 0.0
H251 H 0.64043 0.11934 0.80076 0.0
H252 H 0.5442 1.01618 0.79832 0.0
H253 H 0.35777 0.86869 0.77417 0.0
H254 H 0.37893 0.84889 0.8458 0.0
H255 H 0.43688 1.08038 0.8684 0.0
H256 H 0.41138 1.10025 0.79604 0.0
H257 H 0.46408 0.15041 0.7377 0.0
H258 H 0.33637 0.99477 0.65339 0.0
O259 O 0.40621 0.91218 0.7026 0.0
H260 H 0.48869 0.23437 0.68204 0.0
H261 H 0.3622 1.07749 0.59799 0.0
C262 C 0.53238 1.01024 0.7322 0.0
C263 C 0.57099 1.02869 0.69605 0.0
C264 C 0.63009 1.08645 0.69705 0.0
C265 C 0.64859 0.12727 0.73407 0.0
C266 C 0.62442 1.09445 0.77091 0.0
C267 C 0.56755 1.03512 0.76975 0.0
C268 C 0.38827 0.98537 0.77932 0.0
C269 C 0.37016 0.91594 0.79475 0.0
C270 C 0.38227 0.90478 0.83638 0.0
C271 C 0.41655 0.9626 0.86221 0.0
C272 C 0.41439 1.03418 0.84875 0.0
C273 C 0.40008 1.04558 0.80705 0.0
C274 C 0.40022 1.06511 0.69947 0.0
C275 C 0.43705 0.13585 0.70794 0.0
C276 C 0.45278 0.18355 0.67587 0.0
C277 C 0.43107 0.16079 0.63545 0.0
C278 C 0.38136 1.09601 0.62873 0.0
C279 C 0.36604 1.04839 0.66063 0.0
P280 P 0.60252 0.54534 0.06616 0.0
H281 H 0.70197 0.47854 0.12433 0.0
H282 H 0.8381 0.50311 0.14245 0.0
H283 H 0.84771 0.70776 0.08075 0.0
H284 H 0.70912 0.68318 0.06337 0.0
H285 H 0.49895 0.48022 0.12779 0.0
H286 H 0.36737 0.49802 0.1461 0.0
H287 H 0.37771 0.68878 0.072 0.0
H288 H 0.50985 0.6696 0.053 0.0
H289 H 0.72753 0.58418 0.00746 0.0
H290 H 0.48106 0.52657 0.00239 0.0
O291 O 0.5944 0.45465 0.06908 0.0
H292 H 0.72855 0.58862 0.93295 0.0
H293 H 0.48315 0.52622 0.92714 0.0
C294 C 0.69503 0.5779 0.09137 0.0
C295 C 0.73234 0.52971 0.11544 0.0
C296 C 0.81104 0.54379 0.12568 0.0
C297 C 0.8551 0.60655 0.11206 0.0
C298 C 0.81614 0.65828 0.09122 0.0
C299 C 0.73654 0.64454 0.08153 0.0
C300 C 0.51471 0.57305 0.0886 0.0
C301 C 0.47383 0.52682 0.11599 0.0
C302 C 0.39794 0.53684 0.12633 0.0
C303 C 0.36093 0.59419 0.11009 0.0
C304 C 0.40399 0.64381 0.08502 0.0
C305 C 0.47997 0.63316 0.07427 0.0
C306 C 0.6034 0.55903 0.01123 0.0
C307 C 0.67306 0.57504 -0.00921 0.0
C308 C 0.674 0.57635 0.94785 0.0
C309 C 0.60598 0.55785 0.9244 0.0
C310 C 0.53644 0.54081 0.94461 0.0
C311 C 0.53516 0.54177 -0.01237 0.0
loop_
_geom_bond_atom_site_label_1
_geom_bond_atom_site_label_2
_geom_bond_distance
_geom_bond_site_symmetry_2
_ccdc_geom_bond_type
Pr0 C2 2.880 . S
Pr0 O20 2.562 . S
Pr0 O21 2.490 . S
Pr0 O22 2.695 1_655 S
Pr0 O23 2.512 . S
Pr0 O25 2.437 . S
Pr0 O28 2.436 . S
Pr0 O30 2.438 1_655 S
Pr1 C11 2.880 . S
Pr1 O22 2.436 . S
Pr1 O24 2.438 1_455 S
Pr1 O26 2.562 . S
Pr1 O27 2.490 . S
Pr1 O28 2.695 1_455 S
Pr1 O29 2.512 . S
Pr1 O31 2.437 . S
C2 Pr0 2.880 . S
C2 C3 1.491 . S
C2 O20 1.254 . S
C2 O21 1.225 . S
C3 C2 1.491 . S
C3 C4 1.392 . S
C3 C8 1.356 . S
C4 C3 1.392 . S
C4 C5 1.368 . S
C4 H32 0.929 . S
C5 C4 1.368 . S
C5 C6 1.386 . S
C5 H33 0.929 . S
C6 C5 1.386 . S
C6 C7 1.373 . S
C7 C6 1.373 . S
C7 C8 1.409 . S
C7 H34 0.931 . S
C8 C3 1.356 . S
C8 C7 1.409 . S
C8 H35 0.930 . S
C9 O22 1.270 . S
C9 O23 1.248 1_455 S
C10 O24 1.267 . S
C10 O25 1.278 . S
C11 Pr1 2.880 . S
C11 C12 1.491 . S
C11 O26 1.254 . S
C11 O27 1.225 . S
C12 C11 1.491 . S
C12 C13 1.392 . S
C12 C17 1.356 . S
C13 C12 1.392 . S
C13 C14 1.368 . S
C13 H36 0.929 . S
C14 C13 1.368 . S
C14 C15 1.386 . S
C14 H37 0.929 . S
C15 C14 1.386 . S
C15 C16 1.373 . S
C16 C15 1.373 . S
C16 C17 1.409 . S
C16 H38 0.931 . S
C17 C12 1.356 . S
C17 C16 1.409 . S
C17 H39 0.930 . S
C18 O28 1.270 1_455 S
C18 O29 1.248 . S
C19 O30 1.267 . S
C19 O31 1.278 . S
O20 Pr0 2.562 . S
O20 C2 1.254 . S
O21 Pr0 2.490 . S
O21 C2 1.225 . S
O22 Pr0 2.695 1_455 S
O22 Pr1 2.436 . S
O22 C9 1.270 . S
O23 Pr0 2.512 . S
O23 C9 1.248 1_655 S
O24 Pr1 2.438 1_655 S
O24 C10 1.267 . S
O25 Pr0 2.437 . S
O25 C10 1.278 . S
O26 Pr1 2.562 . S
O26 C11 1.254 . S
O27 Pr1 2.490 . S
O27 C11 1.225 . S
O28 Pr0 2.436 . S
O28 Pr1 2.695 1_655 S
O28 C18 1.270 1_655 S
O29 Pr1 2.512 . S
O29 C18 1.248 . S
O30 Pr0 2.438 1_455 S
O30 C19 1.267 . S
O31 Pr1 2.437 . S
O31 C19 1.278 . S
H32 C4 0.929 . S
H33 C5 0.929 . S
H34 C7 0.931 . S
H35 C8 0.930 . S
H36 C13 0.929 . S
H37 C14 0.929 . S
H38 C16 0.931 . S
H39 C17 0.930 . S
Pr40 C42 2.880 . S
Pr40 O60 2.562 . S
Pr40 O61 2.490 . S
Pr40 O62 2.695 1_545 S
Pr40 O63 2.512 . S
Pr40 O65 2.437 . S
Pr40 O68 2.436 . S
Pr40 O70 2.438 1_545 S
Pr41 C51 2.880 . S
Pr41 O62 2.436 . S
Pr41 O64 2.438 1_565 S
Pr41 O66 2.562 . S
Pr41 O67 2.490 . S
Pr41 O68 2.695 1_565 S
Pr41 O69 2.512 . S
Pr41 O71 2.437 . S
C42 Pr40 2.880 . S
C42 C43 1.491 . S
C42 O60 1.254 . S
C42 O61 1.225 . S
C43 C42 1.491 . S
C43 C44 1.392 . S
C43 C48 1.356 . S
C44 C43 1.392 . S
C44 C45 1.368 . S
C44 H72 0.929 . S
C45 C44 1.368 . S
C45 C46 1.386 . S
C45 H73 0.929 . S
C46 C45 1.386 . S
C46 C47 1.373 . S
C47 C46 1.373 . S
C47 C48 1.409 . S
C47 H74 0.931 . S
C48 C43 1.356 . S
C48 C47 1.409 . S
C48 H75 0.930 . S
C49 O62 1.270 1_545 S
C49 O63 1.248 . S
C50 O64 1.267 . S
C50 O65 1.278 . S
C51 Pr41 2.880 . S
C51 C52 1.491 . S
C51 O66 1.254 . S
C51 O67 1.225 . S
C52 C51 1.491 . S
C52 C53 1.392 . S
C52 C57 1.356 . S
C53 C52 1.392 . S
C53 C54 1.368 . S
C53 H76 0.929 . S
C54 C53 1.368 . S
C54 C55 1.386 . S
C54 H77 0.929 . S
C55 C54 1.386 . S
C55 C56 1.373 . S
C56 C55 1.373 . S
C56 C57 1.409 . S
C56 H78 0.931 . S
C57 C52 1.356 . S
C57 C56 1.409 . S
C57 H79 0.930 . S
C58 O68 1.270 . S
C58 O69 1.248 1_545 S
C59 O70 1.267 . S
C59 O71 1.278 . S
O60 Pr40 2.562 . S
O60 C42 1.254 . S
O61 Pr40 2.490 . S
O61 C42 1.225 . S
O62 Pr40 2.695 1_565 S
O62 Pr41 2.436 . S
O62 C49 1.270 1_565 S
O63 Pr40 2.512 . S
O63 C49 1.248 . S
O64 Pr41 2.438 1_545 S
O64 C50 1.267 . S
O65 Pr40 2.437 . S
O65 C50 1.278 . S
O66 Pr41 2.562 . S
O66 C51 1.254 . S
O67 Pr41 2.490 . S
O67 C51 1.225 . S
O68 Pr40 2.436 . S
O68 Pr41 2.695 1_545 S
O68 C58 1.270 . S
O69 Pr41 2.512 . S
O69 C58 1.248 1_565 S
O70 Pr40 2.438 1_565 S
O70 C59 1.267 . S
O71 Pr41 2.437 . S
O71 C59 1.278 . S
H72 C44 0.929 . S
H73 C45 0.929 . S
H74 C47 0.931 . S
H75 C48 0.930 . S
H76 C53 0.929 . S
H77 C54 0.929 . S
H78 C56 0.931 . S
H79 C57 0.930 . S
Pr80 C82 2.880 . S
Pr80 O100 2.562 . S
Pr80 O101 2.490 . S
Pr80 O102 2.695 . S
Pr80 O103 2.512 . S
Pr80 O105 2.437 . S
Pr80 O108 2.436 . S
Pr80 O110 2.438 . S
Pr81 C91 2.880 . S
Pr81 O102 2.436 . S
Pr81 O104 2.438 . S
Pr81 O106 2.562 . S
Pr81 O107 2.490 . S
Pr81 O108 2.695 . S
Pr81 O109 2.512 . S
Pr81 O111 2.437 . S
C82 Pr80 2.880 . S
C82 C83 1.491 . S
C82 O100 1.254 . S
C82 O101 1.225 . S
C83 C82 1.491 . S
C83 C84 1.392 . S
C83 C88 1.356 . S
C84 C83 1.392 . S
C84 C85 1.368 . S
C84 H112 0.929 . S
C85 C84 1.368 . S
C85 C86 1.386 . S
C85 H113 0.929 . S
C86 C85 1.386 . S
C86 C87 1.373 . S
C87 C86 1.373 . S
C87 C88 1.409 . S
C87 H114 0.931 . S
C88 C83 1.356 . S
C88 C87 1.409 . S
C88 H115 0.930 . S
C89 O102 1.270 . S
C89 O103 1.248 . S
C90 O104 1.267 . S
C90 O105 1.278 . S
C91 Pr81 2.880 . S
C91 C92 1.491 . S
C91 O106 1.254 . S
C91 O107 1.225 . S
C92 C91 1.491 . S
C92 C93 1.392 . S
C92 C97 1.356 . S
C93 C92 1.392 . S
C93 C94 1.368 . S
C93 H116 0.929 . S
C94 C93 1.368 . S
C94 C95 1.386 . S
C94 H117 0.929 . S
C95 C94 1.386 . S
C95 C96 1.373 . S
C96 C95 1.373 . S
C96 C97 1.409 . S
C96 H118 0.931 . S
C97 C92 1.356 . S
C97 C96 1.409 . S
C97 H119 0.930 . S
C98 O108 1.270 . S
C98 O109 1.248 . S
C99 O110 1.267 . S
C99 O111 1.278 . S
O100 Pr80 2.562 . S
O100 C82 1.254 . S
O101 Pr80 2.490 . S
O101 C82 1.225 . S
O102 Pr80 2.695 . S
O102 Pr81 2.436 . S
O102 C89 1.270 . S
O103 Pr80 2.512 . S
O103 C89 1.248 . S
O104 Pr81 2.438 . S
O104 C90 1.267 . S
O105 Pr80 2.437 . S
O105 C90 1.278 . S
O106 Pr81 2.562 . S
O106 C91 1.254 . S
O107 Pr81 2.490 . S
O107 C91 1.225 . S
O108 Pr80 2.436 . S
O108 Pr81 2.695 . S
O108 C98 1.270 . S
O109 Pr81 2.512 . S
O109 C98 1.248 . S
O110 Pr80 2.438 . S
O110 C99 1.267 . S
O111 Pr81 2.437 . S
O111 C99 1.278 . S
H112 C84 0.929 . S
H113 C85 0.929 . S
H114 C87 0.931 . S
H115 C88 0.930 . S
H116 C93 0.929 . S
H117 C94 0.929 . S
H118 C96 0.931 . S
H119 C97 0.930 . S
P120 O131 1.490 . S
P120 C134 1.812 . S
P120 C140 1.803 1_565 S
P120 C146 1.819 . S
H121 C135 0.941 . S
H122 C136 0.939 . S
H123 C138 0.940 . S
H124 C139 0.940 . S
H125 C141 0.939 . S
H126 C142 0.942 . S
H127 C144 0.940 . S
H128 C145 0.939 . S
H129 C147 0.941 . S
H130 C151 0.939 . S
O131 P120 1.490 . S
H132 C148 0.939 . S
H133 C150 0.940 . S
C134 P120 1.812 . S
C134 C135 1.389 . S
C134 C139 1.391 . S
C135 H121 0.941 . S
C135 C134 1.389 . S
C135 C136 1.397 . S
C136 H122 0.939 . S
C136 C135 1.397 . S
C136 C137 1.378 . S
C137 C136 1.378 . S
C137 C138 1.378 . S
C138 H123 0.940 . S
C138 C137 1.378 . S
C138 C139 1.396 . S
C139 H124 0.940 . S
C139 C134 1.391 . S
C139 C138 1.396 . S
C140 P120 1.803 1_545 S
C140 C141 1.378 . S
C140 C145 1.400 . S
C141 H125 0.939 . S
C141 C140 1.378 . S
C141 C142 1.361 . S
C142 H126 0.942 . S
C142 C141 1.361 . S
C142 C143 1.369 . S
C143 C142 1.369 . S
C143 C144 1.404 . S
C144 H127 0.940 . S
C144 C143 1.404 . S
C144 C145 1.389 . S
C145 H128 0.939 . S
C145 C140 1.400 . S
C145 C144 1.389 . S
C146 P120 1.819 . S
C146 C147 1.391 . S
C146 C151 1.391 1_565 S
C147 H129 0.941 . S
C147 C146 1.391 . S
C147 C148 1.396 . S
C148 H132 0.939 . S
C148 C147 1.396 . S
C148 C149 1.397 1_565 S
C149 C148 1.397 1_545 S
C149 C150 1.385 . S
C150 H133 0.940 . S
C150 C149 1.385 . S
C150 C151 1.388 . S
C151 H130 0.939 . S
C151 C146 1.391 1_545 S
C151 C150 1.388 . S
P152 O163 1.490 . S
P152 C166 1.812 . S
P152 C172 1.803 . S
P152 C178 1.819 . S
H153 C167 0.941 . S
H154 C168 0.939 . S
H155 C170 0.940 . S
H156 C171 0.940 . S
H157 C173 0.939 . S
H158 C174 0.942 . S
H159 C176 0.940 . S
H160 C177 0.939 . S
H161 C179 0.941 . S
H162 C183 0.939 . S
O163 P152 1.490 . S
H164 C180 0.939 . S
H165 C182 0.940 . S
C166 P152 1.812 . S
C166 C167 1.389 . S
C166 C171 1.391 . S
C167 H153 0.941 . S
C167 C166 1.389 . S
C167 C168 1.397 . S
C168 H154 0.939 . S
C168 C167 1.397 . S
C168 C169 1.378 . S
C169 C168 1.378 . S
C169 C170 1.378 . S
C170 H155 0.940 . S
C170 C169 1.378 . S
C170 C171 1.396 . S
C171 H156 0.940 . S
C171 C166 1.391 . S
C171 C170 1.396 . S
C172 P152 1.803 . S
C172 C173 1.378 . S
C172 C177 1.400 . S
C173 H157 0.939 . S
C173 C172 1.378 . S
C173 C174 1.361 . S
C174 H158 0.942 . S
C174 C173 1.361 . S
C174 C175 1.369 . S
C175 C174 1.369 . S
C175 C176 1.404 . S
C176 H159 0.940 . S
C176 C175 1.404 . S
C176 C177 1.389 . S
C177 H160 0.939 . S
C177 C172 1.400 . S
C177 C176 1.389 . S
C178 P152 1.819 . S
C178 C179 1.391 . S
C178 C183 1.391 . S
C179 H161 0.941 . S
C179 C178 1.391 . S
C179 C180 1.396 . S
C180 H164 0.939 . S
C180 C179 1.396 . S
C180 C181 1.397 . S
C181 C180 1.397 . S
C181 C182 1.385 . S
C182 H165 0.940 . S
C182 C181 1.385 . S
C182 C183 1.388 . S
C183 H162 0.939 . S
C183 C178 1.391 . S
C183 C182 1.388 . S
P184 O195 1.490 . S
P184 C198 1.812 . S
P184 C204 1.803 1_455 S
P184 C210 1.819 . S
H185 C199 0.941 . S
H186 C200 0.939 . S
H187 C202 0.940 . S
H188 C203 0.940 . S
H189 C205 0.939 . S
H190 C206 0.942 . S
H191 C208 0.940 . S
H192 C209 0.939 . S
H193 C211 0.941 . S
H194 C215 0.939 . S
O195 P184 1.490 . S
H196 C212 0.939 . S
H197 C214 0.940 . S
C198 P184 1.812 . S
C198 C199 1.389 . S
C198 C203 1.391 . S
C199 H185 0.941 . S
C199 C198 1.389 . S
C199 C200 1.397 . S
C200 H186 0.939 . S
C200 C199 1.397 . S
C200 C201 1.378 . S
C201 C200 1.378 . S
C201 C202 1.378 . S
C202 H187 0.940 . S
C202 C201 1.378 . S
C202 C203 1.396 . S
C203 H188 0.940 . S
C203 C198 1.391 . S
C203 C202 1.396 . S
C204 P184 1.803 1_655 S
C204 C205 1.378 . S
C204 C209 1.400 . S
C205 H189 0.939 . S
C205 C204 1.378 . S
C205 C206 1.361 . S
C206 H190 0.942 . S
C206 C205 1.361 . S
C206 C207 1.369 . S
C207 C206 1.369 . S
C207 C208 1.404 . S
C208 H191 0.940 . S
C208 C207 1.404 . S
C208 C209 1.389 . S
C209 H192 0.939 . S
C209 C204 1.400 . S
C209 C208 1.389 . S
C210 P184 1.819 . S
C210 C211 1.391 . S
C210 C215 1.391 1_455 S
C211 H193 0.941 . S
C211 C210 1.391 . S
C211 C212 1.396 1_556 S
C212 H196 0.939 . S
C212 C211 1.396 1_554 S
C212 C213 1.397 . S
C213 C212 1.397 . S
C213 C214 1.385 1_455 S
C214 H197 0.940 . S
C214 C213 1.385 1_655 S
C214 C215 1.388 1_554 S
C215 H194 0.939 . S
C215 C210 1.391 1_655 S
C215 C214 1.388 1_556 S
P216 O227 1.490 . S
P216 C230 1.812 . S
P216 C236 1.803 1_455 S
P216 C242 1.819 . S
H217 C231 0.941 . S
H218 C232 0.939 . S
H219 C234 0.940 . S
H220 C235 0.940 . S
H221 C237 0.939 1_455 S
H222 C238 0.942 . S
H223 C240 0.940 . S
H224 C241 0.939 . S
H225 C243 0.941 . S
H226 C247 0.939 . S
O227 P216 1.490 . S
H228 C244 0.939 . S
H229 C246 0.940 . S
C230 P216 1.812 . S
C230 C231 1.389 . S
C230 C235 1.391 . S
C231 H217 0.941 . S
C231 C230 1.389 . S
C231 C232 1.397 . S
C232 H218 0.939 . S
C232 C231 1.397 . S
C232 C233 1.378 . S
C233 C232 1.378 . S
C233 C234 1.378 . S
C234 H219 0.940 . S
C234 C233 1.378 . S
C234 C235 1.396 . S
C235 H220 0.940 . S
C235 C230 1.391 . S
C235 C234 1.396 . S
C236 P216 1.803 1_655 S
C236 C237 1.378 . S
C236 C241 1.400 . S
C237 H221 0.939 1_655 S
C237 C236 1.378 . S
C237 C238 1.361 . S
C238 H222 0.942 . S
C238 C237 1.361 . S
C238 C239 1.369 . S
C239 C238 1.369 . S
C239 C240 1.404 . S
C240 H223 0.940 . S
C240 C239 1.404 . S
C240 C241 1.389 . S
C241 H224 0.939 . S
C241 C236 1.400 . S
C241 C240 1.389 . S
C242 P216 1.819 . S
C242 C243 1.391 . S
C242 C247 1.391 1_455 S
C243 H225 0.941 . S
C243 C242 1.391 . S
C243 C244 1.396 . S
C244 H228 0.939 . S
C244 C243 1.396 . S
C244 C245 1.401 . S
C245 C244 1.401 . S
C245 C246 1.382 1_455 S
C246 H229 0.940 . S
C246 C245 1.382 1_655 S
C246 C247 1.388 . S
C247 H226 0.939 . S
C247 C242 1.391 1_655 S
C247 C246 1.388 . S
P248 O259 1.490 . S
P248 C262 1.812 . S
P248 C268 1.803 1_545 S
P248 C274 1.819 . S
H249 C263 0.941 . S
H250 C264 0.939 . S
H251 C266 0.940 . S
H252 C267 0.940 . S
H253 C269 0.939 . S
H254 C270 0.942 . S
H255 C272 0.940 . S
H256 C273 0.939 . S
H257 C275 0.941 . S
H258 C279 0.939 . S
O259 P248 1.490 . S
H260 C276 0.939 . S
H261 C278 0.940 . S
C262 P248 1.812 . S
C262 C263 1.389 . S
C262 C267 1.391 . S
C263 H249 0.941 . S
C263 C262 1.389 . S
C263 C264 1.397 . S
C264 H250 0.939 . S
C264 C263 1.397 . S
C264 C265 1.378 . S
C265 C264 1.378 . S
C265 C266 1.378 . S
C266 H251 0.940 . S
C266 C265 1.378 . S
C266 C267 1.396 . S
C267 H252 0.940 . S
C267 C262 1.391 . S
C267 C266 1.396 . S
C268 P248 1.803 1_565 S
C268 C269 1.378 . S
C268 C273 1.400 . S
C269 H253 0.939 . S
C269 C268 1.378 . S
C269 C270 1.361 . S
C270 H254 0.942 . S
C270 C269 1.361 . S
C270 C271 1.369 . S
C271 C270 1.369 . S
C271 C272 1.404 . S
C272 H255 0.940 . S
C272 C271 1.404 . S
C272 C273 1.389 . S
C273 H256 0.939 . S
C273 C268 1.400 . S
C273 C272 1.389 . S
C274 P248 1.819 . S
C274 C275 1.391 . S
C274 C279 1.391 1_545 S
C275 H257 0.941 . S
C275 C274 1.391 . S
C275 C276 1.396 . S
C276 H260 0.939 . S
C276 C275 1.396 . S
C276 C277 1.397 . S
C277 C276 1.397 . S
C277 C278 1.385 1_545 S
C278 H261 0.940 . S
C278 C277 1.385 1_565 S
C278 C279 1.388 . S
C279 H258 0.939 . S
C279 C274 1.391 1_565 S
C279 C278 1.388 . S
P280 O291 1.490 . S
P280 C294 1.812 . S
P280 C300 1.803 . S
P280 C306 1.819 . S
H281 C295 0.941 . S
H282 C296 0.939 . S
H283 C298 0.940 . S
H284 C299 0.940 . S
H285 C301 0.939 . S
H286 C302 0.942 . S
H287 C304 0.940 . S
H288 C305 0.939 . S
H289 C307 0.941 . S
H290 C311 0.939 . S
O291 P280 1.490 . S
H292 C308 0.939 . S
H293 C310 0.939 . S
C294 P280 1.812 . S
C294 C295 1.389 . S
C294 C299 1.391 . S
C295 H281 0.941 . S
C295 C294 1.389 . S
C295 C296 1.397 . S
C296 H282 0.939 . S
C296 C295 1.397 . S
C296 C297 1.378 . S
C297 C296 1.378 . S
C297 C298 1.378 . S
C298 H283 0.940 . S
C298 C297 1.378 . S
C298 C299 1.396 . S
C299 H284 0.940 . S
C299 C294 1.391 . S
C299 C298 1.396 . S
C300 P280 1.803 . S
C300 C301 1.378 . S
C300 C305 1.400 . S
C301 H285 0.939 . S
C301 C300 1.378 . S
C301 C302 1.361 . S
C302 H286 0.942 . S
C302 C301 1.361 . S
C302 C303 1.369 . S
C303 C302 1.369 . S
C303 C304 1.404 . S
C304 H287 0.940 . S
C304 C303 1.404 . S
C304 C305 1.389 . S
C305 H288 0.939 . S
C305 C300 1.400 . S
C305 C304 1.389 . S
C306 P280 1.819 . S
C306 C307 1.391 . S
C306 C311 1.391 . S
C307 H289 0.941 . S
C307 C306 1.391 . S
C307 C308 1.396 1_554 S
C308 H292 0.939 . S
C308 C307 1.396 1_556 S
C308 C309 1.397 . S
C309 C308 1.397 . S
C309 C310 1.383 . S
C310 H293 0.939 . S
C310 C309 1.383 . S
C310 C311 1.391 1_556 S
C311 H290 0.939 . S
C311 C306 1.391 . S
C311 C310 1.391 1_554 S
C19 C303 2.567 . S
C46 C239 2.611 . S
C95 C271 2.418 . S
C10 C297 2.881 . S
C233 C55 1.915 . S
C265 C86 3.371 . S
C59 C175 4.841 . S
C90 C207 3.119 . S
C15 C137 2.139 . S
C169 C50 4.828 . S
C201 C99 2.652 . S
C6 C143 2.051 . S
C213 C9 1.194 . S
C58 C149 1.468 . S
C98 C181 2.003 . S
C277 C49 1.195 . S
C309 C89 0.930 . S
C18 C245 1.334 . S
