# Generated by pormake.
# Topology pto, (3,4)-cn, num edge types: 1
# Building blocks:
#     Node 0, Type 0, BuildingBlock: ESEHIV_clean_linker_0, # of connection points: 3
#     Node 1, Type 0, BuildingBlock: ESEHIV_clean_linker_0, # of connection points: 3
#     Node 2, Type 0, BuildingBlock: ESEHIV_clean_linker_0, # of connection points: 3
#     Node 3, Type 0, BuildingBlock: ESEHIV_clean_linker_0, # of connection points: 3
#     Node 4, Type 0, BuildingBlock: ESEHIV_clean_linker_0, # of connection points: 3
#     Node 5, Type 0, BuildingBlock: ESEHIV_clean_linker_0, # of connection points: 3
#     Node 6, Type 0, BuildingBlock: ESEHIV_clean_linker_0, # of connection points: 3
#     Node 7, Type 0, BuildingBlock: ESEHIV_clean_linker_0, # of connection points: 3
#     Node 8, Type 1, BuildingBlock: NAWXER_clean_sbu_0, # of connection points: 4
#     Node 9, Type 1, BuildingBlock: NAWXER_clean_sbu_0, # of connection points: 4
#     Node 10, Type 1, BuildingBlock: NAWXER_clean_sbu_0, # of connection points: 4
#     Node 11, Type 1, BuildingBlock: NAWXER_clean_sbu_0, # of connection points: 4
#     Node 12, Type 1, BuildingBlock: NAWXER_clean_sbu_0, # of connection points: 4
#     Node 13, Type 1, BuildingBlock: NAWXER_clean_sbu_0, # of connection points: 4
#     Edge 14, Type (0, 1), BuildingBlock: KIFKEQ_clean_linker_1, # of connection points: 2
#     Edge 15, Type (0, 1), BuildingBlock: KIFKEQ_clean_linker_1, # of connection points: 2
#     Edge 16, Type (0, 1), BuildingBlock: KIFKEQ_clean_linker_1, # of connection points: 2
#     Edge 17, Type (0, 1), BuildingBlock: KIFKEQ_clean_linker_1, # of connection points: 2
#     Edge 18, Type (0, 1), BuildingBlock: KIFKEQ_clean_linker_1, # of connection points: 2
#     Edge 19, Type (0, 1), BuildingBlock: KIFKEQ_clean_linker_1, # of connection points: 2
#     Edge 20, Type (0, 1), BuildingBlock: KIFKEQ_clean_linker_1, # of connection points: 2
#     Edge 21, Type (0, 1), BuildingBlock: KIFKEQ_clean_linker_1, # of connection points: 2
#     Edge 22, Type (0, 1), BuildingBlock: KIFKEQ_clean_linker_1, # of connection points: 2
#     Edge 23, Type (0, 1), BuildingBlock: KIFKEQ_clean_linker_1, # of connection points: 2
#     Edge 24, Type (0, 1), BuildingBlock: KIFKEQ_clean_linker_1, # of connection points: 2
#     Edge 25, Type (0, 1), BuildingBlock: KIFKEQ_clean_linker_1, # of connection points: 2
#     Edge 26, Type (0, 1), BuildingBlock: KIFKEQ_clean_linker_1, # of connection points: 2
#     Edge 27, Type (0, 1), BuildingBlock: KIFKEQ_clean_linker_1, # of connection points: 2
#     Edge 28, Type (0, 1), BuildingBlock: KIFKEQ_clean_linker_1, # of connection points: 2
#     Edge 29, Type (0, 1), BuildingBlock: KIFKEQ_clean_linker_1, # of connection points: 2
#     Edge 30, Type (0, 1), BuildingBlock: KIFKEQ_clean_linker_1, # of connection points: 2
#     Edge 31, Type (0, 1), BuildingBlock: KIFKEQ_clean_linker_1, # of connection points: 2
#     Edge 32, Type (0, 1), BuildingBlock: KIFKEQ_clean_linker_1, # of connection points: 2
#     Edge 33, Type (0, 1), BuildingBlock: KIFKEQ_clean_linker_1, # of connection points: 2
#     Edge 34, Type (0, 1), BuildingBlock: KIFKEQ_clean_linker_1, # of connection points: 2
#     Edge 35, Type (0, 1), BuildingBlock: KIFKEQ_clean_linker_1, # of connection points: 2
#     Edge 36, Type (0, 1), BuildingBlock: KIFKEQ_clean_linker_1, # of connection points: 2
#     Edge 37, Type (0, 1), BuildingBlock: KIFKEQ_clean_linker_1, # of connection points: 2
# Relax obj value: 0.000
# Max RMSD: 0.005
# Mean RMSD: 0.003
data_MOF--net-pto--node1-NAWXER_clean_sbu_0--node2-ESEHIV_clean_linker_0--edge1-KIFKEQ_clean_linker_1
_symmetry_space_group_name_H-M    P1
_symmetry_Int_Tables_number       1
_symmetry_cell_setting            triclinic
loop_
_symmetry_equiv_pos_as_xyz
'x, y, z'
_cell_length_a     41.393092
_cell_length_b     38.992327
_cell_length_c     36.730137
_cell_angle_alpha  90.473749
_cell_angle_beta   89.934573
_cell_angle_gamma 90.038077
loop_
_atom_site_label
_atom_site_type_symbol
_atom_site_fract_x
_atom_site_fract_y
_atom_site_fract_z
_atom_type_partial_charge
H0 H 0.24266 0.31505 0.18245 0.0
H1 H 0.28594 0.22709 0.23241 0.0
H2 H 0.18733 0.2537 0.25661 0.0
C3 C 0.24087 0.29332 0.2005 0.0
C4 C 0.21169 0.2871 0.21889 0.0
C5 C 0.26786 0.272 0.2052 0.0
C6 C 0.26528 0.24371 0.22862 0.0
C7 C 0.23623 0.23675 0.24723 0.0
C8 C 0.20966 0.25871 0.24221 0.0
H9 H 0.25102 0.7476 0.83529 0.0
H10 H 0.28869 0.82965 0.77092 0.0
H11 H 0.19942 0.78059 0.74014 0.0
C12 C 0.24866 0.76443 0.81212 0.0
C13 C 0.22177 0.76144 0.78893 0.0
C14 C 0.27313 0.78842 0.80515 0.0
C15 C 0.27007 0.81062 0.77545 0.0
C16 C 0.24308 0.80869 0.75215 0.0
C17 C 0.21932 0.78366 0.759 0.0
H18 H 0.74508 0.83441 0.24361 0.0
H19 H 0.8292 0.77908 0.27834 0.0
H20 H 0.77507 0.74272 0.18628 0.0
C21 C 0.76173 0.81324 0.23991 0.0
C22 C 0.75679 0.78926 0.21147 0.0
C23 C 0.78762 0.80947 0.26436 0.0
C24 C 0.80907 0.78192 0.25974 0.0
C25 C 0.80501 0.75822 0.23117 0.0
C26 C 0.77889 0.76202 0.20724 0.0
H27 H 0.73276 0.23856 0.78271 0.0
H28 H 0.83147 0.26187 0.75564 0.0
H29 H 0.77946 0.32709 0.82993 0.0
C30 C 0.75376 0.25498 0.78543 0.0
C31 C 0.75246 0.28389 0.8087 0.0
C32 C 0.78225 0.24659 0.76633 0.0
C33 C 0.80955 0.26765 0.77065 0.0
C34 C 0.80874 0.29646 0.7938 0.0
C35 C 0.78026 0.30429 0.81287 0.0
H36 H 0.71044 0.75876 0.75565 0.0
H37 H 0.76036 0.66659 0.78465 0.0
H38 H 0.79068 0.7248 0.69087 0.0
C39 C 0.72941 0.74018 0.75031 0.0
C40 C 0.75025 0.74499 0.72083 0.0
C41 C 0.73258 0.71167 0.7729 0.0
C42 C 0.75728 0.68778 0.76609 0.0
C43 C 0.77897 0.69243 0.73679 0.0
C44 C 0.7746 0.72082 0.71375 0.0
H45 H 0.70108 0.22806 0.27942 0.0
H46 H 0.74802 0.3133 0.22781 0.0
H47 H 0.78717 0.27134 0.32642 0.0
C48 C 0.72015 0.24715 0.27914 0.0
C49 C 0.74368 0.24706 0.3065 0.0
C50 C 0.72165 0.27068 0.25057 0.0
C51 C 0.74683 0.29487 0.24971 0.0
C52 C 0.77053 0.29519 0.27711 0.0
C53 C 0.769 0.27101 0.30518 0.0
H54 H 0.24001 0.27383 0.68257 0.0
H55 H 0.32232 0.22622 0.73135 0.0
H56 H 0.28136 0.31648 0.78078 0.0
C57 C 0.25814 0.27372 0.7038 0.0
C58 C 0.25733 0.2986 0.73184 0.0
C59 C 0.28212 0.24826 0.70303 0.0
C60 C 0.30488 0.24695 0.73112 0.0
C61 C 0.30442 0.27101 0.75967 0.0
C62 C 0.28093 0.29711 0.75949 0.0
H63 H 0.23819 0.71712 0.32128 0.0
H64 H 0.27071 0.65623 0.22986 0.0
H65 H 0.32954 0.73854 0.27043 0.0
C66 C 0.25626 0.71111 0.30089 0.0
C67 C 0.28417 0.73162 0.29848 0.0
C68 C 0.25117 0.68339 0.27669 0.0
C69 C 0.27457 0.67656 0.24968 0.0
C70 C 0.30294 0.69617 0.2477 0.0
C71 C 0.30772 0.72328 0.27236 0.0
C72 C 0.95117 0.4681 0.26965 0.0
C73 C 0.04577 0.54365 0.27112 0.0
O74 O 0.96464 0.4811 0.29765 0.0
Zn75 Zn 0.9972 0.50768 0.27207 0.0
O76 O 0.96099 0.47647 0.23783 0.0
Zn77 Zn 0.99661 0.50898 0.21372 0.0
O78 O 0.02136 0.47619 0.18522 0.0
O79 O 0.02479 0.46844 0.24473 0.0
O80 O 0.03526 0.53673 0.23907 0.0
O81 O 0.0306 0.53252 0.29876 0.0
O82 O 0.96969 0.54832 0.24975 0.0
O83 O 0.97098 0.54431 0.18987 0.0
C84 C 0.03219 0.45934 0.21213 0.0
C85 C 0.96132 0.55966 0.21854 0.0
C86 C 0.99301 0.46456 0.79866 0.0
C87 C 0.06393 0.56487 0.79557 0.0
O88 O 1.00358 0.4814 0.826 0.0
Zn89 Zn 0.02889 0.51385 0.79836 0.0
O90 O 1.0011 0.47341 0.76632 0.0
Zn91 Zn 0.02948 0.51259 0.7402 0.0
O92 O 0.06249 0.48607 0.71491 0.0
O93 O 0.06508 0.48124 0.77468 0.0
O94 O 0.05636 0.55366 0.76384 0.0
O95 O 0.05372 0.54923 0.82353 0.0
O96 O 0.99054 0.54135 0.77241 0.0
O97 O 0.99658 0.53699 0.71282 0.0
C98 C 0.07549 0.47299 0.7429 0.0
C99 C 0.98067 0.54803 0.74017 0.0
C100 C 0.23344 0.96599 0.53412 0.0
C101 C 0.23384 0.04286 0.42834 0.0
O102 O 0.20861 0.9794 0.51957 0.0
Zn103 Zn 0.23166 1.00443 0.48139 0.0
O104 O 0.26161 0.97326 0.52194 0.0
Zn105 Zn 0.28371 1.00377 0.48081 0.0
O106 O 0.30726 0.0378 0.50947 0.0
O107 O 0.25429 0.04403 0.51198 0.0
O108 O 0.26201 0.03414 0.43934 0.0
O109 O 0.209 0.03117 0.44455 0.0
O110 O 0.25337 0.96346 0.45081 0.0
O111 O 0.30648 0.96906 0.4529 0.0
C112 C 0.28264 0.05427 0.52074 0.0
C113 C 0.28163 0.95259 0.44222 0.0
C114 C 0.55756 0.76813 0.05419 0.0
C115 C 0.46948 0.76846 0.96568 0.0
O116 O 0.54999 0.73779 0.04342 0.0
Zn117 Zn 0.51475 0.71422 0.00798 0.0
O118 O 0.54141 0.79354 0.04278 0.0
Zn119 Zn 0.51279 0.76822 0.01059 0.0
O120 O 0.4806 0.74242 0.04714 0.0
O121 O 0.48887 0.68685 0.04064 0.0
O122 O 0.48269 0.79387 0.98163 0.0
O123 O 0.47921 0.73792 0.97268 0.0
O124 O 0.54232 0.69037 0.97408 0.0
O125 O 0.54563 0.74678 0.97043 0.0
C126 C 0.47389 0.71146 0.0559 0.0
C127 C 0.55466 0.71684 0.95966 0.0
C128 C 0.74299 0.95953 0.5718 0.0
C129 C 0.74098 0.05741 0.49006 0.0
O130 O 0.71797 0.97299 0.55776 0.0
Zn131 Zn 0.74034 1.0079 0.53038 0.0
O132 O 0.77109 0.97148 0.5644 0.0
Zn133 Zn 0.79237 0.01079 0.53197 0.0
O134 O 0.8133 0.03978 0.56844 0.0
O135 O 0.76005 0.04044 0.57221 0.0
O136 O 0.76932 0.04848 0.50006 0.0
O137 O 0.71654 0.04026 0.50045 0.0
O138 O 0.76439 0.97718 0.49081 0.0
O139 O 0.81704 0.98499 0.49519 0.0
C140 C 0.78765 0.05073 0.58382 0.0
C141 C 0.79305 0.97051 0.4798 0.0
C142 C 0.55269 0.25869 0.05468 0.0
C143 C 0.46956 0.25866 0.96 0.0
O144 O 0.54244 0.23217 0.03783 0.0
Zn145 Zn 0.51225 0.25612 0.00608 0.0
O146 O 0.54234 0.28842 0.04596 0.0
Zn147 Zn 0.5105 0.31186 0.00862 0.0
O148 O 0.47976 0.33412 0.04164 0.0
O149 O 0.47871 0.27746 0.04425 0.0
O150 O 0.47796 0.28844 0.97148 0.0
O151 O 0.48364 0.23208 0.9722 0.0
O152 O 0.54403 0.28117 0.97003 0.0
O153 O 0.54046 0.33727 0.9771 0.0
C154 C 0.46833 0.3067 0.05532 0.0
C155 C 0.55304 0.31136 0.96124 0.0
H156 H 0.21248 0.35708 0.21108 0.0
H157 H 0.14703 0.27066 0.21567 0.0
H158 H 0.16681 0.39551 0.20297 0.0
H159 H 0.10126 0.30975 0.20949 0.0
H160 H 0.03828 0.4036 0.25513 0.0
H161 H 0.08007 0.35949 0.25229 0.0
H162 H 0.11949 0.40615 0.15576 0.0
H163 H 0.07707 0.45013 0.15815 0.0
C164 C 0.18847 0.34611 0.2099 0.0
C165 C 0.18361 0.31058 0.21395 0.0
C166 C 0.16231 0.36824 0.20532 0.0
C167 C 0.13061 0.35552 0.20537 0.0
C168 C 0.12554 0.32015 0.20941 0.0
C169 C 0.15176 0.29786 0.21331 0.0
C170 C 0.05551 0.40406 0.2329 0.0
C171 C 0.05456 0.43028 0.2069 0.0
C172 C 0.07929 0.37875 0.23121 0.0
C173 C 0.103 0.37957 0.20391 0.0
C174 C 0.10147 0.4051 0.17714 0.0
C175 C 0.07717 0.43006 0.17838 0.0
H176 H 0.23111 0.69545 0.81264 0.0
H177 H 0.15612 0.76535 0.7786 0.0
H178 H 0.19101 0.65007 0.81901 0.0
H179 H 0.11637 0.71938 0.78368 0.0
H180 H 0.07264 0.61441 0.745 0.0
H181 H 0.1091 0.66341 0.74761 0.0
H182 H 0.13929 0.63405 0.85539 0.0
H183 H 0.10224 0.58485 0.85302 0.0
C184 C 0.20607 0.7014 0.80706 0.0
C185 C 0.19699 0.73419 0.79491 0.0
C186 C 0.18311 0.67529 0.81066 0.0
C187 C 0.15063 0.68119 0.80173 0.0
C188 C 0.14134 0.71406 0.7904 0.0
C189 C 0.16419 0.74031 0.78727 0.0
C190 C 0.08684 0.6185 0.76942 0.0
C191 C 0.08466 0.5957 0.79878 0.0
C192 C 0.10756 0.6467 0.77098 0.0
C193 C 0.127 0.65254 0.8017 0.0
C194 C 0.12463 0.63004 0.83133 0.0
C195 C 0.10336 0.60203 0.83004 0.0
H196 H 0.82454 0.71443 0.28401 0.0
H197 H 0.83573 0.73534 0.16952 0.0
H198 H 0.86217 0.6668 0.27862 0.0
H199 H 0.87452 0.6882 0.16411 0.0
H200 H 0.92042 0.57948 0.16356 0.0
H201 H 0.88199 0.62726 0.16504 0.0
H202 H 0.9177 0.6571 0.27126 0.0
H203 H 0.95468 0.60895 0.27031 0.0
C204 C 0.83537 0.70898 0.25773 0.0
C205 C 0.82746 0.72875 0.22727 0.0
C206 C 0.85709 0.68176 0.25459 0.0
C207 C 0.87188 0.67386 0.22101 0.0
C208 C 0.86347 0.69332 0.19033 0.0
C209 C 0.84136 0.72039 0.19341 0.0
C210 C 0.92007 0.59647 0.18703 0.0
C211 C 0.94026 0.59025 0.21698 0.0
C212 C 0.89813 0.6239 0.1879 0.0
C213 C 0.89628 0.6458 0.21856 0.0
C214 C 0.91762 0.64025 0.24768 0.0
C215 C 0.93907 0.61273 0.24702 0.0
H216 H 0.83814 0.3201 0.85576 0.0
H217 H 0.84334 0.32434 0.73859 0.0
H218 H 0.88543 0.35754 0.86032 0.0
H219 H 0.88946 0.36274 0.74278 0.0
H220 H 0.9865 0.40866 0.75506 0.0
H221 H 0.94422 0.36543 0.75669 0.0
H222 H 0.90342 0.41445 0.85229 0.0
H223 H 0.94709 0.45666 0.85159 0.0
C224 C 0.84936 0.32927 0.83102 0.0
C225 C 0.83731 0.3192 0.79683 0.0
C226 C 0.87636 0.35081 0.83357 0.0
C227 C 0.89158 0.36308 0.80194 0.0
C228 C 0.87909 0.35314 0.76778 0.0
C229 C 0.85249 0.33127 0.76528 0.0
C230 C 0.96876 0.40982 0.77675 0.0
C231 C 0.96991 0.43607 0.80307 0.0
C232 C 0.94429 0.38524 0.77751 0.0
C233 C 0.91984 0.38676 0.80413 0.0
C234 C 0.92187 0.41223 0.83149 0.0
C235 C 0.94685 0.4365 0.83112 0.0
H236 H 0.26009 0.17178 0.23667 0.0
H237 H 0.20629 0.2334 0.31392 0.0
H238 H 0.25684 0.12301 0.27766 0.0
H239 H 0.20279 0.1845 0.35472 0.0
H240 H 0.28118 0.06224 0.38141 0.0
H241 H 0.27966 0.10747 0.33641 0.0
H242 H 0.17935 0.12641 0.36201 0.0
H243 H 0.18096 0.08097 0.40775 0.0
C244 C 0.2477 0.17502 0.26245 0.0
C245 C 0.23362 0.20667 0.27199 0.0
C246 C 0.24572 0.14699 0.28591 0.0
C247 C 0.22955 0.1498 0.31952 0.0
C248 C 0.21499 0.18125 0.32882 0.0
C249 C 0.21705 0.20933 0.3054 0.0
C250 C 0.25864 0.07576 0.37729 0.0
C251 C 0.2312 0.068 0.39832 0.0
C252 C 0.25774 0.10163 0.35126 0.0
C253 C 0.22941 0.12067 0.34559 0.0
C254 C 0.20166 0.11244 0.36597 0.0
C255 C 0.20249 0.08623 0.39195 0.0
H256 H 0.2771 0.79527 0.87908 0.0
H257 H 0.33552 0.78218 0.7826 0.0
H258 H 0.32588 0.79281 0.91693 0.0
H259 H 0.38419 0.77889 0.82049 0.0
H260 H 0.44894 0.72576 0.91113 0.0
H261 H 0.4022 0.73324 0.87117 0.0
H262 H 0.38072 0.82981 0.92396 0.0
H263 H 0.42795 0.82287 0.96339 0.0
C264 C 0.30041 0.79204 0.86605 0.0
C265 C 0.30265 0.78902 0.82799 0.0
C266 C 0.32824 0.79074 0.88762 0.0
C267 C 0.35871 0.78561 0.87156 0.0
C268 C 0.36096 0.78277 0.83349 0.0
C269 C 0.33322 0.78483 0.81188 0.0
C270 C 0.4344 0.74872 0.91401 0.0
C271 C 0.44213 0.77375 0.94036 0.0
C272 C 0.40776 0.75303 0.89108 0.0
C273 C 0.3879 0.78207 0.89459 0.0
C274 C 0.39563 0.80715 0.92083 0.0
C275 C 0.42271 0.80323 0.94321 0.0
H276 H 0.78915 0.87979 0.26442 0.0
H277 H 0.79507 0.79241 0.33547 0.0
H278 H 0.79506 0.91839 0.31727 0.0
H279 H 0.80052 0.83084 0.38807 0.0
H280 H 0.75671 0.91423 0.46723 0.0
H281 H 0.75866 0.87518 0.41511 0.0
H282 H 0.83906 0.93179 0.37093 0.0
H283 H 0.83763 0.97081 0.42408 0.0
C284 C 0.79176 0.86891 0.29129 0.0
C285 C 0.79159 0.83316 0.29591 0.0
C286 C 0.79545 0.89092 0.3214 0.0
C287 C 0.79837 0.87752 0.35665 0.0
C288 C 0.79836 0.84179 0.36117 0.0
C289 C 0.79528 0.81986 0.33111 0.0
C290 C 0.77509 0.91814 0.44664 0.0
C291 C 0.79707 0.94549 0.44968 0.0
C292 C 0.77622 0.89574 0.41687 0.0
C293 C 0.79893 0.90055 0.38901 0.0
C294 C 0.82124 0.92767 0.39207 0.0
C295 C 0.8206 0.94975 0.42249 0.0
H296 H 0.7457 0.30769 0.87886 0.0
H297 H 0.69031 0.2811 0.78306 0.0
H298 H 0.69585 0.32077 0.9116 0.0
H299 H 0.64049 0.29387 0.81598 0.0
H300 H 0.56505 0.2677 0.90546 0.0
H301 H 0.61215 0.26581 0.8661 0.0
H302 H 0.64762 0.35946 0.91543 0.0
H303 H 0.59993 0.36123 0.9554 0.0
C304 C 0.72294 0.30508 0.86459 0.0
C305 C 0.72207 0.293 0.82838 0.0
C306 C 0.69436 0.31273 0.88336 0.0
C307 C 0.66418 0.30834 0.86643 0.0
C308 C 0.66333 0.29713 0.82995 0.0
C309 C 0.6919 0.2896 0.81115 0.0
C310 C 0.58259 0.28828 0.90753 0.0
C311 C 0.57889 0.31455 0.93363 0.0
C312 C 0.60955 0.28728 0.88478 0.0
C313 C 0.63376 0.31238 0.8877 0.0
C314 C 0.62947 0.33957 0.91277 0.0
C315 C 0.60209 0.3408 0.93538 0.0
H316 H 0.18788 0.83682 0.72278 0.0
H317 H 0.29153 0.83372 0.70848 0.0
H318 H 0.18312 0.87264 0.66912 0.0
H319 H 0.28703 0.87182 0.65716 0.0
H320 H 0.27181 0.91128 0.54549 0.0
H321 H 0.27209 0.87265 0.59683 0.0
H322 H 0.19104 0.92726 0.64391 0.0
H323 H 0.18978 0.96489 0.59078 0.0
C324 C 0.20971 0.84377 0.70834 0.0
C325 C 0.24011 0.83201 0.72014 0.0
C326 C 0.20698 0.86486 0.67777 0.0
C327 C 0.23462 0.87513 0.65835 0.0
C328 C 0.26502 0.86394 0.67068 0.0
C329 C 0.2677 0.84247 0.70079 0.0
C330 C 0.25386 0.91486 0.56669 0.0
C331 C 0.23092 0.94124 0.5643 0.0
C332 C 0.2542 0.89288 0.59643 0.0
C333 C 0.23209 0.89712 0.62524 0.0
C334 C 0.20838 0.92297 0.62228 0.0
C335 C 0.20764 0.94464 0.59191 0.0
H336 H 0.75262 0.77407 0.13845 0.0
H337 H 0.69479 0.80848 0.22981 0.0
H338 H 0.70414 0.77053 0.10102 0.0
H339 H 0.64654 0.80622 0.19162 0.0
H340 H 0.57387 0.82518 0.09466 0.0
H341 H 0.62214 0.83343 0.13249 0.0
H342 H 0.65404 0.73116 0.10475 0.0
H343 H 0.60593 0.72266 0.06755 0.0
C344 C 0.72966 0.78102 0.1506 0.0
C345 C 0.72774 0.79116 0.18742 0.0
C346 C 0.70191 0.77911 0.12904 0.0
C347 C 0.67157 0.78783 0.14352 0.0
C348 C 0.66967 0.79952 0.17972 0.0
C349 C 0.69741 0.80097 0.20152 0.0
C350 C 0.59115 0.80444 0.09679 0.0
C351 C 0.58603 0.77325 0.07813 0.0
C352 C 0.61869 0.80915 0.11848 0.0
C353 C 0.64191 0.78302 0.12131 0.0
C354 C 0.63672 0.75188 0.10273 0.0
C355 C 0.60902 0.74696 0.08164 0.0
H356 H 0.73648 0.22546 0.71733 0.0
H357 H 0.83097 0.1994 0.75839 0.0
H358 H 0.73904 0.17709 0.67507 0.0
H359 H 0.83348 0.15072 0.71624 0.0
H360 H 0.83915 0.09008 0.6068 0.0
H361 H 0.83838 0.13656 0.65199 0.0
H362 H 0.73768 0.11577 0.67373 0.0
H363 H 0.73826 0.07023 0.6283 0.0
C364 C 0.75764 0.20913 0.71767 0.0
C365 C 0.78347 0.21631 0.74132 0.0
C366 C 0.75914 0.18133 0.69342 0.0
C367 C 0.78646 0.15984 0.69226 0.0
C368 C 0.81227 0.16696 0.71601 0.0
C369 C 0.81079 0.19484 0.74023 0.0
C370 C 0.81697 0.09527 0.62151 0.0
C371 C 0.78873 0.0766 0.61369 0.0
C372 C 0.81651 0.12187 0.64748 0.0
C373 C 0.78783 0.13026 0.66625 0.0
C374 C 0.75999 0.11065 0.65925 0.0
C375 C 0.76041 0.0843 0.6333 0.0
H376 H 0.33003 0.26727 0.23094 0.0
H377 H 0.27553 0.29438 0.13509 0.0
H378 H 0.3802 0.28019 0.1987 0.0
H379 H 0.32555 0.3081 0.10345 0.0
H380 H 0.42046 0.35477 0.0651 0.0
H381 H 0.3727 0.34955 0.10444 0.0
H382 H 0.40949 0.25393 0.1459 0.0
H383 H 0.45675 0.25907 0.10688 0.0
C384 C 0.32869 0.27586 0.20302 0.0
C385 C 0.29863 0.27971 0.18568 0.0
C386 C 0.35743 0.28352 0.18466 0.0
C387 C 0.3568 0.29547 0.14864 0.0
C388 C 0.32681 0.29965 0.13143 0.0
C389 C 0.29812 0.29169 0.14961 0.0
C390 C 0.41856 0.33308 0.08321 0.0
C391 C 0.44218 0.30724 0.08279 0.0
C392 C 0.39117 0.32992 0.10547 0.0
C393 C 0.38727 0.30119 0.12808 0.0
C394 C 0.41184 0.27645 0.12902 0.0
C395 C 0.43885 0.27933 0.1065 0.0
H396 H 0.84039 0.70936 0.71472 0.0
H397 H 0.78241 0.62277 0.74807 0.0
H398 H 0.88762 0.6724 0.7106 0.0
H399 H 0.83028 0.58626 0.74543 0.0
H400 H 0.93211 0.5544 0.78937 0.0
H401 H 0.88228 0.58707 0.78401 0.0
H402 H 0.91003 0.6185 0.676 0.0
H403 H 0.96016 0.58512 0.68109 0.0
C404 C 0.83744 0.68237 0.72053 0.0
C405 C 0.80735 0.66919 0.73182 0.0
C406 C 0.86465 0.66123 0.71827 0.0
C407 C 0.86262 0.62653 0.72778 0.0
C408 C 0.83255 0.61305 0.73824 0.0
C409 C 0.80519 0.63406 0.73998 0.0
C410 C 0.92762 0.56815 0.76436 0.0
C411 C 0.95017 0.56735 0.7357 0.0
C412 C 0.89892 0.58661 0.76122 0.0
C413 C 0.89225 0.6052 0.72957 0.0
C414 C 0.91466 0.60439 0.70073 0.0
C415 C 0.94324 0.58528 0.7036 0.0
H416 H 0.76544 0.3649 0.27737 0.0
H417 H 0.83511 0.28265 0.27644 0.0
H418 H 0.80965 0.40706 0.27846 0.0
H419 H 0.87922 0.32472 0.27647 0.0
H420 H 0.93736 0.41661 0.22224 0.0
H421 H 0.89372 0.37458 0.22573 0.0
H422 H 0.8615 0.41998 0.3269 0.0
H423 H 0.90603 0.46177 0.32408 0.0
C424 C 0.79021 0.35596 0.27719 0.0
C425 C 0.79702 0.32067 0.27669 0.0
C426 C 0.81538 0.37996 0.27811 0.0
C427 C 0.84768 0.36899 0.2777 0.0
C428 C 0.85446 0.33371 0.27686 0.0
C429 C 0.82933 0.30975 0.27681 0.0
C430 C 0.92105 0.4176 0.24533 0.0
C431 C 0.92502 0.44247 0.2729 0.0
C432 C 0.89621 0.39349 0.24733 0.0
C433 C 0.87435 0.39421 0.2765 0.0
C434 C 0.8781 0.4191 0.30409 0.0
C435 C 0.90355 0.4428 0.30256 0.0
H436 H 0.22804 0.32815 0.79167 0.0
H437 H 0.22755 0.33044 0.67397 0.0
H438 H 0.18635 0.37145 0.79326 0.0
H439 H 0.18326 0.37108 0.67557 0.0
H440 H 0.12123 0.4671 0.68906 0.0
H441 H 0.16621 0.42661 0.6862 0.0
H442 H 0.13225 0.37957 0.78548 0.0
H443 H 0.08906 0.42138 0.78933 0.0
C444 C 0.21914 0.33779 0.76602 0.0
C445 C 0.23149 0.32547 0.73269 0.0
C446 C 0.19453 0.3623 0.76693 0.0
C447 C 0.18079 0.37472 0.73454 0.0
C448 C 0.19324 0.36258 0.70117 0.0
C449 C 0.21841 0.33861 0.70026 0.0
C450 C 0.12358 0.44806 0.71021 0.0
C451 C 0.10186 0.44757 0.73957 0.0
C452 C 0.14926 0.42465 0.70853 0.0
C453 C 0.15334 0.39972 0.73579 0.0
C454 C 0.13082 0.39886 0.76454 0.0
C455 C 0.10574 0.4227 0.76662 0.0
H456 H 0.18935 0.70429 0.294 0.0
H457 H 0.24472 0.6141 0.26478 0.0
H458 H 0.14045 0.66943 0.29677 0.0
H459 H 0.19541 0.57987 0.26587 0.0
H460 H 0.09358 0.5493 0.22107 0.0
H461 H 0.1435 0.58212 0.22549 0.0
H462 H 0.11693 0.61603 0.33357 0.0
H463 H 0.06673 0.5824 0.32949 0.0
C464 C 0.1913 0.67704 0.28859 0.0
C465 C 0.2212 0.66214 0.27906 0.0
C466 C 0.16319 0.65714 0.2901 0.0
C467 C 0.1642 0.62203 0.28151 0.0
C468 C 0.19396 0.60698 0.27235 0.0
C469 C 0.22215 0.62671 0.27143 0.0
C470 C 0.09832 0.56366 0.24587 0.0
C471 C 0.07617 0.56335 0.27493 0.0
C472 C 0.12702 0.58227 0.24844 0.0
C473 C 0.13406 0.60151 0.27987 0.0
C474 C 0.11196 0.60142 0.309 0.0
C475 C 0.08339 0.58213 0.30672 0.0
H476 H 0.74942 0.81051 0.74592 0.0
H477 H 0.74477 0.75035 0.64687 0.0
H478 H 0.74469 0.86315 0.71063 0.0
H479 H 0.73963 0.80329 0.61142 0.0
H480 H 0.69716 0.90879 0.571 0.0
H481 H 0.69727 0.856 0.60718 0.0
H482 H 0.78376 0.89013 0.66215 0.0
H483 H 0.78407 0.9422 0.62583 0.0
C484 C 0.74718 0.80864 0.71658 0.0
C485 C 0.7475 0.77652 0.69899 0.0
C486 C 0.74452 0.83866 0.69647 0.0
C487 C 0.74165 0.83712 0.65844 0.0
C488 C 0.7415 0.80501 0.64079 0.0
C489 C 0.74473 0.77489 0.66093 0.0
C490 C 0.71592 0.90508 0.59113 0.0
C491 C 0.74059 0.92948 0.5957 0.0
C492 C 0.71613 0.87487 0.61151 0.0
C493 C 0.74058 0.86914 0.63726 0.0
C494 C 0.7646 0.89406 0.64255 0.0
C495 C 0.76478 0.92378 0.62174 0.0
H496 H 0.65658 0.27037 0.2594 0.0
H497 H 0.73095 0.26649 0.17698 0.0
H498 H 0.61522 0.26382 0.21246 0.0
H499 H 0.68935 0.2598 0.12975 0.0
H500 H 0.60222 0.21249 0.06381 0.0
H501 H 0.64405 0.21439 0.11145 0.0
H502 H 0.5973 0.30246 0.16019 0.0
H503 H 0.55619 0.30084 0.11297 0.0
C504 C 0.66399 0.2682 0.23117 0.0
C505 C 0.69684 0.26914 0.22168 0.0
C506 C 0.64039 0.26441 0.20439 0.0
C507 C 0.64918 0.26108 0.1676 0.0
C508 C 0.68204 0.26193 0.15801 0.0
C509 C 0.70572 0.26621 0.18486 0.0
C510 C 0.60081 0.23189 0.08503 0.0
C511 C 0.5761 0.25653 0.08477 0.0
C512 C 0.62479 0.23318 0.11198 0.0
C513 C 0.62384 0.25865 0.13933 0.0
C514 C 0.59851 0.28248 0.13955 0.0
C515 C 0.57506 0.28158 0.11246 0.0
H516 H 0.2321 0.20974 0.67713 0.0
H517 H 0.33434 0.22727 0.66338 0.0
H518 H 0.23417 0.16413 0.63151 0.0
H519 H 0.33644 0.18218 0.61687 0.0
H520 H 0.33222 0.07249 0.56674 0.0
H521 H 0.33297 0.12095 0.6096 0.0
H522 H 0.24063 0.15464 0.56824 0.0
H523 H 0.23942 0.1059 0.52685 0.0
C524 C 0.2549 0.20418 0.66383 0.0
C525 C 0.28302 0.22204 0.67366 0.0
C526 C 0.25615 0.17809 0.63763 0.0
C527 C 0.28549 0.16952 0.62036 0.0
C528 C 0.31356 0.18775 0.62996 0.0
C529 C 0.31234 0.21367 0.65642 0.0
C530 C 0.31232 0.09051 0.56672 0.0
C531 C 0.2856 0.08521 0.54387 0.0
C532 C 0.31273 0.11831 0.59115 0.0
C533 C 0.28659 0.14144 0.59276 0.0
C534 C 0.26071 0.13686 0.56852 0.0
C535 C 0.26012 0.10899 0.5446 0.0
H536 H 0.2925 0.69703 0.17466 0.0
H537 H 0.36728 0.68348 0.25499 0.0
H538 H 0.33341 0.69649 0.12629 0.0
H539 H 0.40815 0.68221 0.20658 0.0
H540 H 0.46625 0.65544 0.09975 0.0
H541 H 0.42371 0.64614 0.14535 0.0
H542 H 0.38043 0.74296 0.11707 0.0
H543 H 0.42307 0.75271 0.07239 0.0
C544 C 0.3176 0.69305 0.18179 0.0
C545 C 0.32687 0.69031 0.21839 0.0
C546 C 0.34094 0.69292 0.15425 0.0
C547 C 0.37383 0.68936 0.16285 0.0
C548 C 0.38291 0.68473 0.19929 0.0
C549 C 0.35963 0.68556 0.2269 0.0
C550 C 0.44756 0.67462 0.10326 0.0
C551 C 0.44804 0.70488 0.08272 0.0
C552 C 0.42334 0.66932 0.12929 0.0
C553 C 0.39879 0.69376 0.13442 0.0
C554 C 0.39892 0.72359 0.11333 0.0
C555 C 0.42346 0.72926 0.088 0.0
H556 H 0.69082 0.22776 0.34605 0.0
H557 H 0.79272 0.20771 0.33237 0.0
H558 H 0.68781 0.18341 0.39258 0.0
H559 H 0.78974 0.1632 0.37831 0.0
H560 H 0.78337 0.10975 0.48463 0.0
H561 H 0.78234 0.15731 0.44259 0.0
H562 H 0.69122 0.12118 0.3995 0.0
H563 H 0.69184 0.07365 0.44283 0.0
C564 C 0.71254 0.21378 0.35297 0.0
C565 C 0.74206 0.22124 0.33576 0.0
C566 C 0.71079 0.18834 0.37948 0.0
C567 C 0.73853 0.16986 0.38924 0.0
C568 C 0.76803 0.17743 0.37197 0.0
C569 C 0.76979 0.20292 0.34565 0.0
C570 C 0.76297 0.11201 0.46635 0.0
C571 C 0.73785 0.08775 0.46664 0.0
C572 C 0.76248 0.1392 0.44212 0.0
C573 C 0.73704 0.14267 0.41721 0.0
C574 C 0.71114 0.11924 0.41846 0.0
C575 C 0.71148 0.09202 0.44314 0.0
H576 H 0.29335 0.2807 0.83257 0.0
H577 H 0.36857 0.25375 0.75578 0.0
H578 H 0.33153 0.27399 0.88259 0.0
H579 H 0.4064 0.24626 0.80594 0.0
H580 H 0.45753 0.20773 0.90939 0.0
H581 H 0.41606 0.20839 0.86151 0.0
H582 H 0.38117 0.30568 0.90251 0.0
H583 H 0.42211 0.30509 0.94976 0.0
C584 C 0.31803 0.27359 0.82631 0.0
C585 C 0.32789 0.26791 0.79012 0.0
C586 C 0.33981 0.26945 0.85498 0.0
C587 C 0.37184 0.25934 0.84813 0.0
C588 C 0.38169 0.25344 0.81205 0.0
C589 C 0.36001 0.25785 0.78335 0.0
C590 C 0.44069 0.22895 0.90831 0.0
C591 C 0.44317 0.25644 0.93307 0.0
C592 C 0.41716 0.22946 0.88087 0.0
C593 C 0.39547 0.25715 0.87831 0.0
C594 C 0.39733 0.28389 0.90396 0.0
C595 C 0.42098 0.28362 0.93088 0.0
H596 H 0.30856 0.79413 0.27872 0.0
H597 H 0.26783 0.74039 0.37053 0.0
H598 H 0.31147 0.84649 0.31516 0.0
H599 H 0.26977 0.79332 0.40646 0.0
H600 H 0.23526 0.90412 0.43276 0.0
H601 H 0.23924 0.84982 0.40012 0.0
H602 H 0.33849 0.87208 0.37285 0.0
H603 H 0.33468 0.92686 0.40603 0.0
C604 C 0.30075 0.79324 0.30683 0.0
C605 C 0.28786 0.76293 0.32162 0.0
C606 C 0.30236 0.82334 0.32764 0.0
C607 C 0.29075 0.82395 0.36352 0.0
C608 C 0.27858 0.79359 0.37868 0.0
C609 C 0.27731 0.76335 0.35803 0.0
C610 C 0.25799 0.89758 0.41982 0.0
C611 C 0.28464 0.91989 0.42183 0.0
C612 C 0.26031 0.86628 0.40142 0.0
C613 C 0.28921 0.85668 0.38419 0.0
C614 C 0.31591 0.87897 0.38591 0.0
C615 C 0.31374 0.91021 0.40489 0.0
H616 H 0.69225 0.65816 0.78827 0.0
H617 H 0.72234 0.75783 0.82711 0.0
H618 H 0.64904 0.65739 0.83399 0.0
H619 H 0.68024 0.75679 0.87346 0.0
H620 H 0.57889 0.76705 0.91637 0.0
H621 H 0.62316 0.76299 0.87315 0.0
H622 H 0.63419 0.6554 0.89764 0.0
H623 H 0.58892 0.65927 0.94027 0.0
C624 C 0.69004 0.67946 0.80724 0.0
C625 C 0.71029 0.70817 0.80413 0.0
C626 C 0.66535 0.67909 0.83338 0.0
C627 C 0.66073 0.70735 0.85696 0.0
C628 C 0.68243 0.73506 0.85508 0.0
C629 C 0.70676 0.73555 0.82881 0.0
C630 C 0.59063 0.74246 0.91247 0.0
C631 C 0.58045 0.71353 0.93189 0.0
C632 C 0.61626 0.74018 0.88788 0.0
C633 C 0.63266 0.70897 0.88231 0.0
C634 C 0.62203 0.67979 0.90114 0.0
C635 C 0.59613 0.68203 0.92562 0.0
loop_
_geom_bond_atom_site_label_1
_geom_bond_atom_site_label_2
_geom_bond_distance
_geom_bond_site_symmetry_2
_ccdc_geom_bond_type
H0 C3 0.931 . S
H1 C6 0.928 . S
H2 C8 0.930 . S
C3 H0 0.931 . S
C3 C4 1.413 . S
C3 C5 1.360 . S
C4 C3 1.413 . S
C4 C8 1.429 . S
C5 C3 1.360 . S
C5 C6 1.372 . S
C6 H1 0.928 . S
C6 C5 1.372 . S
C6 C7 1.404 . S
C7 C6 1.404 . S
C7 C8 1.391 . S
C8 H2 0.930 . S
C8 C4 1.429 . S
C8 C7 1.391 . S
H9 C12 0.931 . S
H10 C15 0.928 . S
H11 C17 0.930 . S
C12 H9 0.931 . S
C12 C13 1.413 . S
C12 C14 1.360 . S
C13 C12 1.413 . S
C13 C17 1.429 . S
C14 C12 1.360 . S
C14 C15 1.372 . S
C15 H10 0.928 . S
C15 C14 1.372 . S
C15 C16 1.404 . S
C16 C15 1.404 . S
C16 C17 1.391 . S
C17 H11 0.930 . S
C17 C13 1.429 . S
C17 C16 1.391 . S
H18 C21 0.931 . S
H19 C24 0.928 . S
H20 C26 0.930 . S
C21 H18 0.931 . S
C21 C22 1.413 . S
C21 C23 1.360 . S
C22 C21 1.413 . S
C22 C26 1.429 . S
C23 C21 1.360 . S
C23 C24 1.372 . S
C24 H19 0.928 . S
C24 C23 1.372 . S
C24 C25 1.404 . S
C25 C24 1.404 . S
C25 C26 1.391 . S
C26 H20 0.930 . S
C26 C22 1.429 . S
C26 C25 1.391 . S
H27 C30 0.931 . S
H28 C33 0.928 . S
H29 C35 0.930 . S
C30 H27 0.931 . S
C30 C31 1.413 . S
C30 C32 1.360 . S
C31 C30 1.413 . S
C31 C35 1.429 . S
C32 C30 1.360 . S
C32 C33 1.372 . S
C33 H28 0.928 . S
C33 C32 1.372 . S
C33 C34 1.404 . S
C34 C33 1.404 . S
C34 C35 1.391 . S
C35 H29 0.930 . S
C35 C31 1.429 . S
C35 C34 1.391 . S
H36 C39 0.931 . S
H37 C42 0.928 . S
H38 C44 0.930 . S
C39 H36 0.931 . S
C39 C40 1.413 . S
C39 C41 1.360 . S
C40 C39 1.413 . S
C40 C44 1.429 . S
C41 C39 1.360 . S
C41 C42 1.372 . S
C42 H37 0.928 . S
C42 C41 1.372 . S
C42 C43 1.404 . S
C43 C42 1.404 . S
C43 C44 1.391 . S
C44 H38 0.930 . S
C44 C40 1.429 . S
C44 C43 1.391 . S
H45 C48 0.931 . S
H46 C51 0.928 . S
H47 C53 0.930 . S
C48 H45 0.931 . S
C48 C49 1.413 . S
C48 C50 1.360 . S
C49 C48 1.413 . S
C49 C53 1.429 . S
C50 C48 1.360 . S
C50 C51 1.372 . S
C51 H46 0.928 . S
C51 C50 1.372 . S
C51 C52 1.404 . S
C52 C51 1.404 . S
C52 C53 1.391 . S
C53 H47 0.930 . S
C53 C49 1.429 . S
C53 C52 1.391 . S
H54 C57 0.931 . S
H55 C60 0.928 . S
H56 C62 0.930 . S
C57 H54 0.931 . S
C57 C58 1.413 . S
C57 C59 1.360 . S
C58 C57 1.413 . S
C58 C62 1.429 . S
C59 C57 1.360 . S
C59 C60 1.372 . S
C60 H55 0.928 . S
C60 C59 1.372 . S
C60 C61 1.404 . S
C61 C60 1.404 . S
C61 C62 1.391 . S
C62 H56 0.930 . S
C62 C58 1.429 . S
C62 C61 1.391 . S
H63 C66 0.931 . S
H64 C69 0.928 . S
H65 C71 0.930 . S
C66 H63 0.931 . S
C66 C67 1.413 . S
C66 C68 1.360 . S
C67 C66 1.413 . S
C67 C71 1.429 . S
C68 C66 1.360 . S
C68 C69 1.372 . S
C69 H64 0.928 . S
C69 C68 1.372 . S
C69 C70 1.404 . S
C70 C69 1.404 . S
C70 C71 1.391 . S
C71 H65 0.930 . S
C71 C67 1.429 . S
C71 C70 1.391 . S
C72 O74 1.247 . S
C72 O76 1.258 . S
C73 O80 1.247 . S
C73 O81 1.258 . S
O74 C72 1.247 . S
O74 Zn75 2.028 1_655 S
Zn75 O74 2.028 1_455 S
Zn75 O79 2.035 . S
Zn75 O81 2.035 . S
Zn75 O82 2.028 1_455 S
O76 C72 1.258 . S
O76 Zn77 2.035 1_655 S
Zn77 O76 2.035 1_455 S
Zn77 O78 2.028 . S
Zn77 O80 2.028 . S
Zn77 O83 2.035 1_455 S
O78 Zn77 2.028 . S
O78 C84 1.247 . S
O79 Zn75 2.035 . S
O79 C84 1.258 . S
O80 C73 1.247 . S
O80 Zn77 2.028 . S
O81 C73 1.258 . S
O81 Zn75 2.035 . S
O82 Zn75 2.028 1_655 S
O82 C85 1.247 . S
O83 Zn77 2.035 1_655 S
O83 C85 1.258 . S
C84 O78 1.247 . S
C84 O79 1.258 . S
C85 O82 1.247 . S
C85 O83 1.258 . S
C86 O88 1.247 . S
C86 O90 1.258 . S
C87 O94 1.247 . S
C87 O95 1.258 . S
O88 C86 1.247 . S
O88 Zn89 2.028 1_655 S
Zn89 O88 2.028 1_455 S
Zn89 O93 2.035 . S
Zn89 O95 2.035 . S
Zn89 O96 2.028 1_455 S
O90 C86 1.258 . S
O90 Zn91 2.035 1_655 S
Zn91 O90 2.035 1_455 S
Zn91 O92 2.028 . S
Zn91 O94 2.028 . S
Zn91 O97 2.035 1_455 S
O92 Zn91 2.028 . S
O92 C98 1.247 . S
O93 Zn89 2.035 . S
O93 C98 1.258 . S
O94 C87 1.247 . S
O94 Zn91 2.028 . S
O95 C87 1.258 . S
O95 Zn89 2.035 . S
O96 Zn89 2.028 1_655 S
O96 C99 1.247 . S
O97 Zn91 2.035 1_655 S
O97 C99 1.258 . S
C98 O92 1.247 . S
C98 O93 1.258 . S
C99 O96 1.247 . S
C99 O97 1.258 . S
C100 O102 1.247 . S
C100 O104 1.258 . S
C101 O108 1.247 . S
C101 O109 1.258 . S
O102 C100 1.247 . S
O102 Zn103 2.024 1_565 S
Zn103 O102 2.024 1_545 S
Zn103 O107 2.039 . S
Zn103 O109 2.039 . S
Zn103 O110 2.024 1_545 S
O104 C100 1.258 . S
O104 Zn105 2.015 1_565 S
Zn105 O104 2.015 1_545 S
Zn105 O106 2.047 . S
Zn105 O108 2.048 . S
Zn105 O111 2.016 1_545 S
O106 Zn105 2.047 . S
O106 C112 1.247 . S
O107 Zn103 2.039 . S
O107 C112 1.258 . S
O108 C101 1.247 . S
O108 Zn105 2.048 . S
O109 C101 1.258 . S
O109 Zn103 2.039 . S
O110 Zn103 2.024 1_565 S
O110 C113 1.247 . S
O111 Zn105 2.016 1_565 S
O111 C113 1.258 . S
C112 O106 1.247 . S
C112 O107 1.258 . S
C113 O110 1.247 . S
C113 O111 1.258 . S
C114 O116 1.247 . S
C114 O118 1.258 . S
C115 O122 1.247 . S
C115 O123 1.258 . S
O116 C114 1.247 . S
O116 Zn117 2.026 . S
Zn117 O116 2.026 . S
Zn117 O121 2.034 . S
Zn117 O123 2.037 1_554 S
Zn117 O124 2.029 1_554 S
O118 C114 1.258 . S
O118 Zn119 2.048 . S
Zn119 O118 2.048 . S
Zn119 O120 2.041 . S
Zn119 O122 2.015 1_554 S
Zn119 O125 2.023 1_554 S
O120 Zn119 2.041 . S
O120 C126 1.247 . S
O121 Zn117 2.034 . S
O121 C126 1.258 . S
O122 C115 1.247 . S
O122 Zn119 2.015 1_556 S
O123 C115 1.258 . S
O123 Zn117 2.037 1_556 S
O124 Zn117 2.029 1_556 S
O124 C127 1.247 . S
O125 Zn119 2.023 1_556 S
O125 C127 1.258 . S
C126 O120 1.247 . S
C126 O121 1.258 . S
C127 O124 1.247 . S
C127 O125 1.258 . S
C128 O130 1.247 . S
C128 O132 1.258 . S
C129 O136 1.247 . S
C129 O137 1.258 . S
O130 C128 1.247 . S
O130 Zn131 2.027 . S
Zn131 O130 2.027 . S
Zn131 O135 2.036 1_565 S
Zn131 O137 2.036 1_565 S
Zn131 O138 2.027 . S
O132 C128 1.258 . S
O132 Zn133 2.024 1_565 S
Zn133 O132 2.024 1_545 S
Zn133 O134 2.039 . S
Zn133 O136 2.039 . S
Zn133 O139 2.024 1_545 S
O134 Zn133 2.039 . S
O134 C140 1.247 . S
O135 Zn131 2.036 1_545 S
O135 C140 1.258 . S
O136 C129 1.247 . S
O136 Zn133 2.039 . S
O137 C129 1.258 . S
O137 Zn131 2.036 1_545 S
O138 Zn131 2.027 . S
O138 C141 1.247 . S
O139 Zn133 2.024 1_565 S
O139 C141 1.258 . S
C140 O134 1.247 . S
C140 O135 1.258 . S
C141 O138 1.247 . S
C141 O139 1.258 . S
C142 O144 1.247 . S
C142 O146 1.258 . S
C143 O150 1.247 . S
C143 O151 1.258 . S
O144 C142 1.247 . S
O144 Zn145 2.028 . S
Zn145 O144 2.028 . S
Zn145 O149 2.035 . S
Zn145 O151 2.035 1_554 S
Zn145 O152 2.028 1_554 S
O146 C142 1.258 . S
O146 Zn147 2.035 . S
Zn147 O146 2.035 . S
Zn147 O148 2.028 . S
Zn147 O150 2.028 1_554 S
Zn147 O153 2.035 1_554 S
O148 Zn147 2.028 . S
O148 C154 1.247 . S
O149 Zn145 2.035 . S
O149 C154 1.258 . S
O150 C143 1.247 . S
O150 Zn147 2.028 1_556 S
O151 C143 1.258 . S
O151 Zn145 2.035 1_556 S
O152 Zn145 2.028 1_556 S
O152 C155 1.247 . S
O153 Zn147 2.035 1_556 S
O153 C155 1.258 . S
C154 O148 1.247 . S
C154 O149 1.258 . S
C155 O152 1.247 . S
C155 O153 1.258 . S
H156 C164 0.950 . S
H157 C169 0.950 . S
H158 C166 0.950 . S
H159 C168 0.950 . S
H160 C170 0.950 . S
H161 C172 0.950 . S
H162 C174 0.950 . S
H163 C175 0.950 . S
C164 H156 0.950 . S
C164 C165 1.386 . S
C164 C166 1.391 . S
C165 C164 1.386 . S
C165 C169 1.393 . S
C166 H158 0.950 . S
C166 C164 1.391 . S
C166 C167 1.400 . S
C167 C166 1.400 . S
C167 C168 1.398 . S
C167 C173 1.491 . S
C168 H159 0.950 . S
C168 C167 1.398 . S
C168 C169 1.391 . S
C169 H157 0.950 . S
C169 C165 1.393 . S
C169 C168 1.391 . S
C170 H160 0.950 . S
C170 C171 1.386 . S
C170 C172 1.391 . S
C171 C170 1.386 . S
C171 C175 1.393 . S
C172 H161 0.950 . S
C172 C170 1.391 . S
C172 C173 1.400 . S
C173 C167 1.491 . S
C173 C172 1.400 . S
C173 C174 1.398 . S
C174 H162 0.950 . S
C174 C173 1.398 . S
C174 C175 1.391 . S
C175 H163 0.950 . S
C175 C171 1.393 . S
C175 C174 1.391 . S
H176 C184 0.950 . S
H177 C189 0.950 . S
H178 C186 0.950 . S
H179 C188 0.950 . S
H180 C190 0.950 . S
H181 C192 0.950 . S
H182 C194 0.950 . S
H183 C195 0.950 . S
C184 H176 0.950 . S
C184 C185 1.386 . S
C184 C186 1.391 . S
C185 C184 1.386 . S
C185 C189 1.393 . S
C186 H178 0.950 . S
C186 C184 1.391 . S
C186 C187 1.400 . S
C187 C186 1.400 . S
C187 C188 1.398 . S
C187 C193 1.491 . S
C188 H179 0.950 . S
C188 C187 1.398 . S
C188 C189 1.391 . S
C189 H177 0.950 . S
C189 C185 1.393 . S
C189 C188 1.391 . S
C190 H180 0.950 . S
C190 C191 1.386 . S
C190 C192 1.391 . S
C191 C190 1.386 . S
C191 C195 1.393 . S
C192 H181 0.950 . S
C192 C190 1.391 . S
C192 C193 1.400 . S
C193 C187 1.491 . S
C193 C192 1.400 . S
C193 C194 1.398 . S
C194 H182 0.950 . S
C194 C193 1.398 . S
C194 C195 1.391 . S
C195 H183 0.950 . S
C195 C191 1.393 . S
C195 C194 1.391 . S
H196 C204 0.950 . S
H197 C209 0.950 . S
H198 C206 0.950 . S
H199 C208 0.950 . S
H200 C210 0.950 . S
H201 C212 0.950 . S
H202 C214 0.950 . S
H203 C215 0.950 . S
C204 H196 0.950 . S
C204 C205 1.386 . S
C204 C206 1.391 . S
C205 C204 1.386 . S
C205 C209 1.393 . S
C206 H198 0.950 . S
C206 C204 1.391 . S
C206 C207 1.400 . S
C207 C206 1.400 . S
C207 C208 1.398 . S
C207 C213 1.491 . S
C208 H199 0.950 . S
C208 C207 1.398 . S
C208 C209 1.391 . S
C209 H197 0.950 . S
C209 C205 1.393 . S
C209 C208 1.391 . S
C210 H200 0.950 . S
C210 C211 1.386 . S
C210 C212 1.391 . S
C211 C210 1.386 . S
C211 C215 1.393 . S
C212 H201 0.950 . S
C212 C210 1.391 . S
C212 C213 1.400 . S
C213 C207 1.491 . S
C213 C212 1.400 . S
C213 C214 1.398 . S
C214 H202 0.950 . S
C214 C213 1.398 . S
C214 C215 1.391 . S
C215 H203 0.950 . S
C215 C211 1.393 . S
C215 C214 1.391 . S
H216 C224 0.950 . S
H217 C229 0.950 . S
H218 C226 0.950 . S
H219 C228 0.950 . S
H220 C230 0.950 . S
H221 C232 0.950 . S
H222 C234 0.950 . S
H223 C235 0.950 . S
C224 H216 0.950 . S
C224 C225 1.386 . S
C224 C226 1.391 . S
C225 C224 1.386 . S
C225 C229 1.393 . S
C226 H218 0.950 . S
C226 C224 1.391 . S
C226 C227 1.400 . S
C227 C226 1.400 . S
C227 C228 1.398 . S
C227 C233 1.491 . S
C228 H219 0.950 . S
C228 C227 1.398 . S
C228 C229 1.391 . S
C229 H217 0.950 . S
C229 C225 1.393 . S
C229 C228 1.391 . S
C230 H220 0.950 . S
C230 C231 1.386 . S
C230 C232 1.391 . S
C231 C230 1.386 . S
C231 C235 1.393 . S
C232 H221 0.950 . S
C232 C230 1.391 . S
C232 C233 1.400 . S
C233 C227 1.491 . S
C233 C232 1.400 . S
C233 C234 1.398 . S
C234 H222 0.950 . S
C234 C233 1.398 . S
C234 C235 1.391 . S
C235 H223 0.950 . S
C235 C231 1.393 . S
C235 C234 1.391 . S
H236 C244 0.950 . S
H237 C249 0.950 . S
H238 C246 0.950 . S
H239 C248 0.950 . S
H240 C250 0.950 . S
H241 C252 0.950 . S
H242 C254 0.950 . S
H243 C255 0.950 . S
C244 H236 0.950 . S
C244 C245 1.386 . S
C244 C246 1.391 . S
C245 C244 1.386 . S
C245 C249 1.393 . S
C246 H238 0.950 . S
C246 C244 1.391 . S
C246 C247 1.400 . S
C247 C246 1.400 . S
C247 C248 1.398 . S
C247 C253 1.491 . S
C248 H239 0.950 . S
C248 C247 1.398 . S
C248 C249 1.391 . S
C249 H237 0.950 . S
C249 C245 1.393 . S
C249 C248 1.391 . S
C250 H240 0.950 . S
C250 C251 1.386 . S
C250 C252 1.391 . S
C251 C250 1.386 . S
C251 C255 1.393 . S
C252 H241 0.950 . S
C252 C250 1.391 . S
C252 C253 1.400 . S
C253 C247 1.491 . S
C253 C252 1.400 . S
C253 C254 1.398 . S
C254 H242 0.950 . S
C254 C253 1.398 . S
C254 C255 1.391 . S
C255 H243 0.950 . S
C255 C251 1.393 . S
C255 C254 1.391 . S
H256 C264 0.950 . S
H257 C269 0.950 . S
H258 C266 0.950 . S
H259 C268 0.950 . S
H260 C270 0.950 . S
H261 C272 0.950 . S
H262 C274 0.950 . S
H263 C275 0.950 . S
C264 H256 0.950 . S
C264 C265 1.386 . S
C264 C266 1.391 . S
C265 C264 1.386 . S
C265 C269 1.393 . S
C266 H258 0.950 . S
C266 C264 1.391 . S
C266 C267 1.400 . S
C267 C266 1.400 . S
C267 C268 1.398 . S
C267 C273 1.491 . S
C268 H259 0.950 . S
C268 C267 1.398 . S
C268 C269 1.391 . S
C269 H257 0.950 . S
C269 C265 1.393 . S
C269 C268 1.391 . S
C270 H260 0.950 . S
C270 C271 1.386 . S
C270 C272 1.391 . S
C271 C270 1.386 . S
C271 C275 1.393 . S
C272 H261 0.950 . S
C272 C270 1.391 . S
C272 C273 1.400 . S
C273 C267 1.491 . S
C273 C272 1.400 . S
C273 C274 1.398 . S
C274 H262 0.950 . S
C274 C273 1.398 . S
C274 C275 1.391 . S
C275 H263 0.950 . S
C275 C271 1.393 . S
C275 C274 1.391 . S
H276 C284 0.950 . S
H277 C289 0.950 . S
H278 C286 0.950 . S
H279 C288 0.950 . S
H280 C290 0.950 . S
H281 C292 0.950 . S
H282 C294 0.950 . S
H283 C295 0.950 . S
C284 H276 0.950 . S
C284 C285 1.386 . S
C284 C286 1.391 . S
C285 C284 1.386 . S
C285 C289 1.393 . S
C286 H278 0.950 . S
C286 C284 1.391 . S
C286 C287 1.400 . S
C287 C286 1.400 . S
C287 C288 1.398 . S
C287 C293 1.491 . S
C288 H279 0.950 . S
C288 C287 1.398 . S
C288 C289 1.391 . S
C289 H277 0.950 . S
C289 C285 1.393 . S
C289 C288 1.391 . S
C290 H280 0.950 . S
C290 C291 1.386 . S
C290 C292 1.391 . S
C291 C290 1.386 . S
C291 C295 1.393 . S
C292 H281 0.950 . S
C292 C290 1.391 . S
C292 C293 1.400 . S
C293 C287 1.491 . S
C293 C292 1.400 . S
C293 C294 1.398 . S
C294 H282 0.950 . S
C294 C293 1.398 . S
C294 C295 1.391 . S
C295 H283 0.950 . S
C295 C291 1.393 . S
C295 C294 1.391 . S
H296 C304 0.950 . S
H297 C309 0.950 . S
H298 C306 0.950 . S
H299 C308 0.950 . S
H300 C310 0.950 . S
H301 C312 0.950 . S
H302 C314 0.950 . S
H303 C315 0.950 . S
C304 H296 0.950 . S
C304 C305 1.386 . S
C304 C306 1.391 . S
C305 C304 1.386 . S
C305 C309 1.393 . S
C306 H298 0.950 . S
C306 C304 1.391 . S
C306 C307 1.400 . S
C307 C306 1.400 . S
C307 C308 1.398 . S
C307 C313 1.491 . S
C308 H299 0.950 . S
C308 C307 1.398 . S
C308 C309 1.391 . S
C309 H297 0.950 . S
C309 C305 1.393 . S
C309 C308 1.391 . S
C310 H300 0.950 . S
C310 C311 1.386 . S
C310 C312 1.391 . S
C311 C310 1.386 . S
C311 C315 1.393 . S
C312 H301 0.950 . S
C312 C310 1.391 . S
C312 C313 1.400 . S
C313 C307 1.491 . S
C313 C312 1.400 . S
C313 C314 1.398 . S
C314 H302 0.950 . S
C314 C313 1.398 . S
C314 C315 1.391 . S
C315 H303 0.950 . S
C315 C311 1.393 . S
C315 C314 1.391 . S
H316 C324 0.950 . S
H317 C329 0.950 . S
H318 C326 0.950 . S
H319 C328 0.950 . S
H320 C330 0.950 . S
H321 C332 0.950 . S
H322 C334 0.950 . S
H323 C335 0.950 . S
C324 H316 0.950 . S
C324 C325 1.386 . S
C324 C326 1.391 . S
C325 C324 1.386 . S
C325 C329 1.393 . S
C326 H318 0.950 . S
C326 C324 1.391 . S
C326 C327 1.400 . S
C327 C326 1.400 . S
C327 C328 1.398 . S
C327 C333 1.491 . S
C328 H319 0.950 . S
C328 C327 1.398 . S
C328 C329 1.391 . S
C329 H317 0.950 . S
C329 C325 1.393 . S
C329 C328 1.391 . S
C330 H320 0.950 . S
C330 C331 1.386 . S
C330 C332 1.391 . S
C331 C330 1.386 . S
C331 C335 1.393 . S
C332 H321 0.950 . S
C332 C330 1.391 . S
C332 C333 1.400 . S
C333 C327 1.491 . S
C333 C332 1.400 . S
C333 C334 1.398 . S
C334 H322 0.950 . S
C334 C333 1.398 . S
C334 C335 1.391 . S
C335 H323 0.950 . S
C335 C331 1.393 . S
C335 C334 1.391 . S
H336 C344 0.950 . S
H337 C349 0.950 . S
H338 C346 0.950 . S
H339 C348 0.950 . S
H340 C350 0.950 . S
H341 C352 0.950 . S
H342 C354 0.950 . S
H343 C355 0.950 . S
C344 H336 0.950 . S
C344 C345 1.386 . S
C344 C346 1.391 . S
C345 C344 1.386 . S
C345 C349 1.393 . S
C346 H338 0.950 . S
C346 C344 1.391 . S
C346 C347 1.400 . S
C347 C346 1.400 . S
C347 C348 1.398 . S
C347 C353 1.491 . S
C348 H339 0.950 . S
C348 C347 1.398 . S
C348 C349 1.391 . S
C349 H337 0.950 . S
C349 C345 1.393 . S
C349 C348 1.391 . S
C350 H340 0.950 . S
C350 C351 1.386 . S
C350 C352 1.391 . S
C351 C350 1.386 . S
C351 C355 1.393 . S
C352 H341 0.950 . S
C352 C350 1.391 . S
C352 C353 1.400 . S
C353 C347 1.491 . S
C353 C352 1.400 . S
C353 C354 1.398 . S
C354 H342 0.950 . S
C354 C353 1.398 . S
C354 C355 1.391 . S
C355 H343 0.950 . S
C355 C351 1.393 . S
C355 C354 1.391 . S
H356 C364 0.950 . S
H357 C369 0.950 . S
H358 C366 0.950 . S
H359 C368 0.950 . S
H360 C370 0.950 . S
H361 C372 0.950 . S
H362 C374 0.950 . S
H363 C375 0.950 . S
C364 H356 0.950 . S
C364 C365 1.386 . S
C364 C366 1.391 . S
C365 C364 1.386 . S
C365 C369 1.393 . S
C366 H358 0.950 . S
C366 C364 1.391 . S
C366 C367 1.400 . S
C367 C366 1.400 . S
C367 C368 1.398 . S
C367 C373 1.491 . S
C368 H359 0.950 . S
C368 C367 1.398 . S
C368 C369 1.391 . S
C369 H357 0.950 . S
C369 C365 1.393 . S
C369 C368 1.391 . S
C370 H360 0.950 . S
C370 C371 1.386 . S
C370 C372 1.391 . S
C371 C370 1.386 . S
C371 C375 1.393 . S
C372 H361 0.950 . S
C372 C370 1.391 . S
C372 C373 1.400 . S
C373 C367 1.491 . S
C373 C372 1.400 . S
C373 C374 1.398 . S
C374 H362 0.950 . S
C374 C373 1.398 . S
C374 C375 1.391 . S
C375 H363 0.950 . S
C375 C371 1.393 . S
C375 C374 1.391 . S
H376 C384 0.950 . S
H377 C389 0.950 . S
H378 C386 0.950 . S
H379 C388 0.950 . S
H380 C390 0.950 . S
H381 C392 0.950 . S
H382 C394 0.950 . S
H383 C395 0.950 . S
C384 H376 0.950 . S
C384 C385 1.386 . S
C384 C386 1.391 . S
C385 C384 1.386 . S
C385 C389 1.393 . S
C386 H378 0.950 . S
C386 C384 1.391 . S
C386 C387 1.400 . S
C387 C386 1.400 . S
C387 C388 1.398 . S
C387 C393 1.491 . S
C388 H379 0.950 . S
C388 C387 1.398 . S
C388 C389 1.391 . S
C389 H377 0.950 . S
C389 C385 1.393 . S
C389 C388 1.391 . S
C390 H380 0.950 . S
C390 C391 1.386 . S
C390 C392 1.391 . S
C391 C390 1.386 . S
C391 C395 1.393 . S
C392 H381 0.950 . S
C392 C390 1.391 . S
C392 C393 1.400 . S
C393 C387 1.491 . S
C393 C392 1.400 . S
C393 C394 1.398 . S
C394 H382 0.950 . S
C394 C393 1.398 . S
C394 C395 1.391 . S
C395 H383 0.950 . S
C395 C391 1.393 . S
C395 C394 1.391 . S
H396 C404 0.950 . S
H397 C409 0.950 . S
H398 C406 0.950 . S
H399 C408 0.950 . S
H400 C410 0.950 . S
H401 C412 0.950 . S
H402 C414 0.950 . S
H403 C415 0.950 . S
C404 H396 0.950 . S
C404 C405 1.386 . S
C404 C406 1.391 . S
C405 C404 1.386 . S
C405 C409 1.393 . S
C406 H398 0.950 . S
C406 C404 1.391 . S
C406 C407 1.400 . S
C407 C406 1.400 . S
C407 C408 1.398 . S
C407 C413 1.491 . S
C408 H399 0.950 . S
C408 C407 1.398 . S
C408 C409 1.391 . S
C409 H397 0.950 . S
C409 C405 1.393 . S
C409 C408 1.391 . S
C410 H400 0.950 . S
C410 C411 1.386 . S
C410 C412 1.391 . S
C411 C410 1.386 . S
C411 C415 1.393 . S
C412 H401 0.950 . S
C412 C410 1.391 . S
C412 C413 1.400 . S
C413 C407 1.491 . S
C413 C412 1.400 . S
C413 C414 1.398 . S
C414 H402 0.950 . S
C414 C413 1.398 . S
C414 C415 1.391 . S
C415 H403 0.950 . S
C415 C411 1.393 . S
C415 C414 1.391 . S
H416 C424 0.950 . S
H417 C429 0.950 . S
H418 C426 0.950 . S
H419 C428 0.950 . S
H420 C430 0.950 . S
H421 C432 0.950 . S
H422 C434 0.950 . S
H423 C435 0.950 . S
C424 H416 0.950 . S
C424 C425 1.386 . S
C424 C426 1.391 . S
C425 C424 1.386 . S
C425 C429 1.393 . S
C426 H418 0.950 . S
C426 C424 1.391 . S
C426 C427 1.400 . S
C427 C426 1.400 . S
C427 C428 1.398 . S
C427 C433 1.491 . S
C428 H419 0.950 . S
C428 C427 1.398 . S
C428 C429 1.391 . S
C429 H417 0.950 . S
C429 C425 1.393 . S
C429 C428 1.391 . S
C430 H420 0.950 . S
C430 C431 1.386 . S
C430 C432 1.391 . S
C431 C430 1.386 . S
C431 C435 1.393 . S
C432 H421 0.950 . S
C432 C430 1.391 . S
C432 C433 1.400 . S
C433 C427 1.491 . S
C433 C432 1.400 . S
C433 C434 1.398 . S
C434 H422 0.950 . S
C434 C433 1.398 . S
C434 C435 1.391 . S
C435 H423 0.950 . S
C435 C431 1.393 . S
C435 C434 1.391 . S
H436 C444 0.950 . S
H437 C449 0.950 . S
H438 C446 0.950 . S
H439 C448 0.950 . S
H440 C450 0.950 . S
H441 C452 0.950 . S
H442 C454 0.950 . S
H443 C455 0.950 . S
C444 H436 0.950 . S
C444 C445 1.386 . S
C444 C446 1.391 . S
C445 C444 1.386 . S
C445 C449 1.393 . S
C446 H438 0.950 . S
C446 C444 1.391 . S
C446 C447 1.400 . S
C447 C446 1.400 . S
C447 C448 1.398 . S
C447 C453 1.491 . S
C448 H439 0.950 . S
C448 C447 1.398 . S
C448 C449 1.391 . S
C449 H437 0.950 . S
C449 C445 1.393 . S
C449 C448 1.391 . S
C450 H440 0.950 . S
C450 C451 1.386 . S
C450 C452 1.391 . S
C451 C450 1.386 . S
C451 C455 1.393 . S
C452 H441 0.950 . S
C452 C450 1.391 . S
C452 C453 1.400 . S
C453 C447 1.491 . S
C453 C452 1.400 . S
C453 C454 1.398 . S
C454 H442 0.950 . S
C454 C453 1.398 . S
C454 C455 1.391 . S
C455 H443 0.950 . S
C455 C451 1.393 . S
C455 C454 1.391 . S
H456 C464 0.950 . S
H457 C469 0.950 . S
H458 C466 0.950 . S
H459 C468 0.950 . S
H460 C470 0.950 . S
H461 C472 0.950 . S
H462 C474 0.950 . S
H463 C475 0.950 . S
C464 H456 0.950 . S
C464 C465 1.386 . S
C464 C466 1.391 . S
C465 C464 1.386 . S
C465 C469 1.393 . S
C466 H458 0.950 . S
C466 C464 1.391 . S
C466 C467 1.400 . S
C467 C466 1.400 . S
C467 C468 1.398 . S
C467 C473 1.491 . S
C468 H459 0.950 . S
C468 C467 1.398 . S
C468 C469 1.391 . S
C469 H457 0.950 . S
C469 C465 1.393 . S
C469 C468 1.391 . S
C470 H460 0.950 . S
C470 C471 1.386 . S
C470 C472 1.391 . S
C471 C470 1.386 . S
C471 C475 1.393 . S
C472 H461 0.950 . S
C472 C470 1.391 . S
C472 C473 1.400 . S
C473 C467 1.491 . S
C473 C472 1.400 . S
C473 C474 1.398 . S
C474 H462 0.950 . S
C474 C473 1.398 . S
C474 C475 1.391 . S
C475 H463 0.950 . S
C475 C471 1.393 . S
C475 C474 1.391 . S
H476 C484 0.950 . S
H477 C489 0.950 . S
H478 C486 0.950 . S
H479 C488 0.950 . S
H480 C490 0.950 . S
H481 C492 0.950 . S
H482 C494 0.950 . S
H483 C495 0.950 . S
C484 H476 0.950 . S
C484 C485 1.386 . S
C484 C486 1.391 . S
C485 C484 1.386 . S
C485 C489 1.393 . S
C486 H478 0.950 . S
C486 C484 1.391 . S
C486 C487 1.400 . S
C487 C486 1.400 . S
C487 C488 1.398 . S
C487 C493 1.491 . S
C488 H479 0.950 . S
C488 C487 1.398 . S
C488 C489 1.391 . S
C489 H477 0.950 . S
C489 C485 1.393 . S
C489 C488 1.391 . S
C490 H480 0.950 . S
C490 C491 1.386 . S
C490 C492 1.391 . S
C491 C490 1.386 . S
C491 C495 1.393 . S
C492 H481 0.950 . S
C492 C490 1.391 . S
C492 C493 1.400 . S
C493 C487 1.491 . S
C493 C492 1.400 . S
C493 C494 1.398 . S
C494 H482 0.950 . S
C494 C493 1.398 . S
C494 C495 1.391 . S
C495 H483 0.950 . S
C495 C491 1.393 . S
C495 C494 1.391 . S
H496 C504 0.950 . S
H497 C509 0.950 . S
H498 C506 0.950 . S
H499 C508 0.950 . S
H500 C510 0.950 . S
H501 C512 0.950 . S
H502 C514 0.950 . S
H503 C515 0.950 . S
C504 H496 0.950 . S
C504 C505 1.386 . S
C504 C506 1.391 . S
C505 C504 1.386 . S
C505 C509 1.393 . S
C506 H498 0.950 . S
C506 C504 1.391 . S
C506 C507 1.400 . S
C507 C506 1.400 . S
C507 C508 1.398 . S
C507 C513 1.491 . S
C508 H499 0.950 . S
C508 C507 1.398 . S
C508 C509 1.391 . S
C509 H497 0.950 . S
C509 C505 1.393 . S
C509 C508 1.391 . S
C510 H500 0.950 . S
C510 C511 1.386 . S
C510 C512 1.391 . S
C511 C510 1.386 . S
C511 C515 1.393 . S
C512 H501 0.950 . S
C512 C510 1.391 . S
C512 C513 1.400 . S
C513 C507 1.491 . S
C513 C512 1.400 . S
C513 C514 1.398 . S
C514 H502 0.950 . S
C514 C513 1.398 . S
C514 C515 1.391 . S
C515 H503 0.950 . S
C515 C511 1.393 . S
C515 C514 1.391 . S
H516 C524 0.950 . S
H517 C529 0.950 . S
H518 C526 0.950 . S
H519 C528 0.950 . S
H520 C530 0.950 . S
H521 C532 0.950 . S
H522 C534 0.950 . S
H523 C535 0.950 . S
C524 H516 0.950 . S
C524 C525 1.386 . S
C524 C526 1.391 . S
C525 C524 1.386 . S
C525 C529 1.393 . S
C526 H518 0.950 . S
C526 C524 1.391 . S
C526 C527 1.400 . S
C527 C526 1.400 . S
C527 C528 1.398 . S
C527 C533 1.491 . S
C528 H519 0.950 . S
C528 C527 1.398 . S
C528 C529 1.391 . S
C529 H517 0.950 . S
C529 C525 1.393 . S
C529 C528 1.391 . S
C530 H520 0.950 . S
C530 C531 1.386 . S
C530 C532 1.391 . S
C531 C530 1.386 . S
C531 C535 1.393 . S
C532 H521 0.950 . S
C532 C530 1.391 . S
C532 C533 1.400 . S
C533 C527 1.491 . S
C533 C532 1.400 . S
C533 C534 1.398 . S
C534 H522 0.950 . S
C534 C533 1.398 . S
C534 C535 1.391 . S
C535 H523 0.950 . S
C535 C531 1.393 . S
C535 C534 1.391 . S
H536 C544 0.950 . S
H537 C549 0.950 . S
H538 C546 0.950 . S
H539 C548 0.950 . S
H540 C550 0.950 . S
H541 C552 0.950 . S
H542 C554 0.950 . S
H543 C555 0.950 . S
C544 H536 0.950 . S
C544 C545 1.386 . S
C544 C546 1.391 . S
C545 C544 1.386 . S
C545 C549 1.393 . S
C546 H538 0.950 . S
C546 C544 1.391 . S
C546 C547 1.400 . S
C547 C546 1.400 . S
C547 C548 1.398 . S
C547 C553 1.491 . S
C548 H539 0.950 . S
C548 C547 1.398 . S
C548 C549 1.391 . S
C549 H537 0.950 . S
C549 C545 1.393 . S
C549 C548 1.391 . S
C550 H540 0.950 . S
C550 C551 1.386 . S
C550 C552 1.391 . S
C551 C550 1.386 . S
C551 C555 1.393 . S
C552 H541 0.950 . S
C552 C550 1.391 . S
C552 C553 1.400 . S
C553 C547 1.491 . S
C553 C552 1.400 . S
C553 C554 1.398 . S
C554 H542 0.950 . S
C554 C553 1.398 . S
C554 C555 1.391 . S
C555 H543 0.950 . S
C555 C551 1.393 . S
C555 C554 1.391 . S
H556 C564 0.950 . S
H557 C569 0.950 . S
H558 C566 0.950 . S
H559 C568 0.950 . S
H560 C570 0.950 . S
H561 C572 0.950 . S
H562 C574 0.950 . S
H563 C575 0.950 . S
C564 H556 0.950 . S
C564 C565 1.386 . S
C564 C566 1.391 . S
C565 C564 1.386 . S
C565 C569 1.393 . S
C566 H558 0.950 . S
C566 C564 1.391 . S
C566 C567 1.400 . S
C567 C566 1.400 . S
C567 C568 1.398 . S
C567 C573 1.491 . S
C568 H559 0.950 . S
C568 C567 1.398 . S
C568 C569 1.391 . S
C569 H557 0.950 . S
C569 C565 1.393 . S
C569 C568 1.391 . S
C570 H560 0.950 . S
C570 C571 1.386 . S
C570 C572 1.391 . S
C571 C570 1.386 . S
C571 C575 1.393 . S
C572 H561 0.950 . S
C572 C570 1.391 . S
C572 C573 1.400 . S
C573 C567 1.491 . S
C573 C572 1.400 . S
C573 C574 1.398 . S
C574 H562 0.950 . S
C574 C573 1.398 . S
C574 C575 1.391 . S
C575 H563 0.950 . S
C575 C571 1.393 . S
C575 C574 1.391 . S
H576 C584 0.950 . S
H577 C589 0.950 . S
H578 C586 0.950 . S
H579 C588 0.950 . S
H580 C590 0.950 . S
H581 C592 0.950 . S
H582 C594 0.950 . S
H583 C595 0.950 . S
C584 H576 0.950 . S
C584 C585 1.386 . S
C584 C586 1.391 . S
C585 C584 1.386 . S
C585 C589 1.393 . S
C586 H578 0.950 . S
C586 C584 1.391 . S
C586 C587 1.400 . S
C587 C586 1.400 . S
C587 C588 1.398 . S
C587 C593 1.491 . S
C588 H579 0.950 . S
C588 C587 1.398 . S
C588 C589 1.391 . S
C589 H577 0.950 . S
C589 C585 1.393 . S
C589 C588 1.391 . S
C590 H580 0.950 . S
C590 C591 1.386 . S
C590 C592 1.391 . S
C591 C590 1.386 . S
C591 C595 1.393 . S
C592 H581 0.950 . S
C592 C590 1.391 . S
C592 C593 1.400 . S
C593 C587 1.491 . S
C593 C592 1.400 . S
C593 C594 1.398 . S
C594 H582 0.950 . S
C594 C593 1.398 . S
C594 C595 1.391 . S
C595 H583 0.950 . S
C595 C591 1.393 . S
C595 C594 1.391 . S
H596 C604 0.950 . S
H597 C609 0.950 . S
H598 C606 0.950 . S
H599 C608 0.950 . S
H600 C610 0.950 . S
H601 C612 0.950 . S
H602 C614 0.950 . S
H603 C615 0.950 . S
C604 H596 0.950 . S
C604 C605 1.386 . S
C604 C606 1.391 . S
C605 C604 1.386 . S
C605 C609 1.393 . S
C606 H598 0.950 . S
C606 C604 1.391 . S
C606 C607 1.400 . S
C607 C606 1.400 . S
C607 C608 1.398 . S
C607 C613 1.491 . S
C608 H599 0.950 . S
C608 C607 1.398 . S
C608 C609 1.391 . S
C609 H597 0.950 . S
C609 C605 1.393 . S
C609 C608 1.391 . S
C610 H600 0.950 . S
C610 C611 1.386 . S
C610 C612 1.391 . S
C611 C610 1.386 . S
C611 C615 1.393 . S
C612 H601 0.950 . S
C612 C610 1.391 . S
C612 C613 1.400 . S
C613 C607 1.491 . S
C613 C612 1.400 . S
C613 C614 1.398 . S
C614 H602 0.950 . S
C614 C613 1.398 . S
C614 C615 1.391 . S
C615 H603 0.950 . S
C615 C611 1.393 . S
C615 C614 1.391 . S
H616 C624 0.950 . S
H617 C629 0.950 . S
H618 C626 0.950 . S
H619 C628 0.950 . S
H620 C630 0.950 . S
H621 C632 0.950 . S
H622 C634 0.950 . S
H623 C635 0.950 . S
C624 H616 0.950 . S
C624 C625 1.386 . S
C624 C626 1.391 . S
C625 C624 1.386 . S
C625 C629 1.393 . S
C626 H618 0.950 . S
C626 C624 1.391 . S
C626 C627 1.400 . S
C627 C626 1.400 . S
C627 C628 1.398 . S
C627 C633 1.491 . S
C628 H619 0.950 . S
C628 C627 1.398 . S
C628 C629 1.391 . S
C629 H617 0.950 . S
C629 C625 1.393 . S
C629 C628 1.391 . S
C630 H620 0.950 . S
C630 C631 1.386 . S
C630 C632 1.391 . S
C631 C630 1.386 . S
C631 C635 1.393 . S
C632 H621 0.950 . S
C632 C630 1.391 . S
C632 C633 1.400 . S
C633 C627 1.491 . S
C633 C632 1.400 . S
C633 C634 1.398 . S
C634 H622 0.950 . S
C634 C633 1.398 . S
C634 C635 1.391 . S
C635 H623 0.950 . S
C635 C631 1.393 . S
C635 C634 1.391 . S
C171 C84 1.503 . S
C165 C4 1.503 . S
C191 C87 1.501 . S
C185 C13 1.501 . S
C211 C85 1.501 . S
C205 C25 1.507 . S
C231 C86 1.503 . S
C225 C34 1.503 . S
C251 C101 1.496 . S
C245 C7 1.497 . S
C271 C115 1.503 . S
C265 C14 1.508 . S
C285 C23 1.503 . S
C291 C141 1.503 . S
C311 C155 1.509 . S
C305 C31 1.511 . S
C331 C100 1.497 . S
C325 C16 1.495 . S
C345 C22 1.512 . S
C351 C114 1.510 . S
C371 C140 1.499 . S
C365 C32 1.502 . S
C391 C154 1.506 . S
C385 C5 1.507 . S
C405 C43 1.505 . S
C411 C99 1.505 . S
C431 C72 1.509 . S
C425 C52 1.509 . S
C445 C58 1.503 . S
C451 C98 1.498 . S
C465 C68 1.504 . S
C471 C73 1.502 . S
C491 C128 1.506 . S
C485 C40 1.508 . S
C511 C142 1.500 . S
C505 C50 1.504 . S
C531 C112 1.499 . S
C525 C59 1.503 . S
C545 C70 1.501 . S
C551 C126 1.501 . S
C571 C129 1.510 . S
C565 C49 1.508 . S
C591 C143 1.497 . S
C585 C61 1.498 . S
C611 C113 1.501 . S
C605 C67 1.502 . S
C625 C41 1.504 . S
C631 C127 1.501 . S
