# Generated by pormake.
# Topology anh, (6,3)-cn, num edge types: 1
# Building blocks:
#     Node 0, Type 0, BuildingBlock: NUHQIS_clean_sbu_0, # of connection points: 6
#     Node 1, Type 0, BuildingBlock: NUHQIS_clean_sbu_0, # of connection points: 6
#     Node 2, Type 0, BuildingBlock: NUHQIS_clean_sbu_0, # of connection points: 6
#     Node 3, Type 1, BuildingBlock: PAMTOO_clean_linker_0, # of connection points: 3
#     Node 4, Type 1, BuildingBlock: PAMTOO_clean_linker_0, # of connection points: 3
#     Node 5, Type 1, BuildingBlock: PAMTOO_clean_linker_0, # of connection points: 3
#     Node 6, Type 1, BuildingBlock: PAMTOO_clean_linker_0, # of connection points: 3
#     Node 7, Type 1, BuildingBlock: PAMTOO_clean_linker_0, # of connection points: 3
#     Node 8, Type 1, BuildingBlock: PAMTOO_clean_linker_0, # of connection points: 3
#     Edge 9, Type (0, 1), BuildingBlock: AJUNOK_clean_linker_0, # of connection points: 2
#     Edge 10, Type (0, 1), BuildingBlock: AJUNOK_clean_linker_0, # of connection points: 2
#     Edge 11, Type (0, 1), BuildingBlock: AJUNOK_clean_linker_0, # of connection points: 2
#     Edge 12, Type (0, 1), BuildingBlock: AJUNOK_clean_linker_0, # of connection points: 2
#     Edge 13, Type (0, 1), BuildingBlock: AJUNOK_clean_linker_0, # of connection points: 2
#     Edge 14, Type (0, 1), BuildingBlock: AJUNOK_clean_linker_0, # of connection points: 2
#     Edge 15, Type (0, 1), BuildingBlock: AJUNOK_clean_linker_0, # of connection points: 2
#     Edge 16, Type (0, 1), BuildingBlock: AJUNOK_clean_linker_0, # of connection points: 2
#     Edge 17, Type (0, 1), BuildingBlock: AJUNOK_clean_linker_0, # of connection points: 2
#     Edge 18, Type (0, 1), BuildingBlock: AJUNOK_clean_linker_0, # of connection points: 2
#     Edge 19, Type (0, 1), BuildingBlock: AJUNOK_clean_linker_0, # of connection points: 2
#     Edge 20, Type (0, 1), BuildingBlock: AJUNOK_clean_linker_0, # of connection points: 2
#     Edge 21, Type (0, 1), BuildingBlock: AJUNOK_clean_linker_0, # of connection points: 2
#     Edge 22, Type (0, 1), BuildingBlock: AJUNOK_clean_linker_0, # of connection points: 2
#     Edge 23, Type (0, 1), BuildingBlock: AJUNOK_clean_linker_0, # of connection points: 2
#     Edge 24, Type (0, 1), BuildingBlock: AJUNOK_clean_linker_0, # of connection points: 2
#     Edge 25, Type (0, 1), BuildingBlock: AJUNOK_clean_linker_0, # of connection points: 2
#     Edge 26, Type (0, 1), BuildingBlock: AJUNOK_clean_linker_0, # of connection points: 2
# Relax obj value: 0.374
# Max RMSD: 0.157
# Mean RMSD: 0.126
data_MOF--net-anh--node1-NUHQIS_clean_sbu_0--node2-PAMTOO_clean_linker_0--edge1-AJUNOK_clean_linker_0
_symmetry_space_group_name_H-M    P1
_symmetry_Int_Tables_number       1
_symmetry_cell_setting            triclinic
loop_
_symmetry_equiv_pos_as_xyz
'x, y, z'
_cell_length_a     21.858334
_cell_length_b     21.852874
_cell_length_c     36.815933
_cell_angle_alpha  85.712334
_cell_angle_beta   91.178688
_cell_angle_gamma 119.83781
loop_
_atom_site_label
_atom_site_type_symbol
_atom_site_fract_x
_atom_site_fract_y
_atom_site_fract_z
_atom_type_partial_charge
Tb0 Tb 0.34179 0.67809 0.18263 0.0
Eu1 Eu 0.26068 0.75566 0.15127 0.0
C2 C 0.25514 0.71186 0.23418 0.0
C3 C 1.17356 0.58234 0.17241 0.0
C4 C 0.41482 0.55929 0.20646 0.0
C5 C 0.36239 0.43603 0.19468 0.0
C6 C 0.35485 0.4939 0.20121 0.0
C7 C 0.48183 0.56646 0.20595 0.0
C8 C 0.48957 0.50939 0.19871 0.0
C9 C 0.43009 0.44397 0.19246 0.0
C10 C 0.41033 0.62254 0.20952 0.0
O11 O 0.32122 0.65247 0.12506 0.0
O12 O 0.32256 0.75367 0.10427 0.0
O13 O 0.36489 0.84496 0.17065 0.0
O14 O 0.42862 0.78822 0.17519 0.0
C15 C 0.32664 0.6979 0.09796 0.0
O16 O 1.19577 0.77297 0.11085 0.0
O17 O 0.23869 0.84138 0.15567 0.0
O18 O 0.21675 0.71256 0.20699 0.0
O19 O 0.31731 0.71913 0.22876 0.0
O20 O 0.23301 0.58838 0.18536 0.0
O21 O 1.17283 0.63797 0.15575 0.0
C22 C 0.42575 0.84686 0.17493 0.0
O23 O 0.43035 0.66596 0.18035 0.0
O24 O 0.35292 0.61434 0.22444 0.0
C25 C 1.12087 0.80031 0.14092 0.0
C26 C 0.97611 0.73252 0.15684 0.0
C27 C 1.00297 0.7681 0.12239 0.0
C28 C 1.07491 0.80199 0.11457 0.0
C29 C 1.09492 0.76824 0.17601 0.0
C30 C 1.02291 0.73463 0.18394 0.0
C31 C 1.1922 0.8193 0.12993 0.0
H32 H 0.31579 0.38603 0.1901 0.0
H33 H 0.30282 0.48822 0.2011 0.0
H34 H 0.52845 0.61714 0.20956 0.0
H35 H 0.54247 0.51756 0.19621 0.0
H36 H 0.96801 0.76489 0.10042 0.0
H37 H 1.09396 0.82489 0.08718 0.0
H38 H 1.12957 0.76525 0.19663 0.0
H39 H 1.0034 0.70653 0.21039 0.0
Tb40 Tb 0.8894 0.22209 0.5161 0.0
Eu41 Eu 0.73376 0.14823 0.4926 0.0
C42 C 0.76861 0.15846 0.57421 0.0
C43 C 0.81185 1.05682 0.51025 0.0
C44 C 1.06596 0.35103 0.54285 0.0
C45 C 1.07787 0.45756 0.56549 0.0
C46 C 1.04484 0.38396 0.56715 0.0
C47 C 1.12559 0.39185 0.52049 0.0
C48 C 1.15661 0.46496 0.51781 0.0
C49 C 1.12989 0.49826 0.53856 0.0
C50 C 1.01714 0.27963 0.53274 0.0
O51 O 0.88299 0.20279 0.4573 0.0
O52 O 0.79435 0.22464 0.44615 0.0
O53 O 0.75287 0.25615 0.50725 0.0
O54 O 0.87358 0.31511 0.51075 0.0
C55 C 0.84872 0.22303 0.43416 0.0
O56 O 0.65497 1.09289 0.45238 0.0
O57 O 0.6243 1.11323 0.50544 0.0
O58 O 0.73273 1.11296 0.55058 0.0
O59 O 0.82886 0.21484 0.56455 0.0
O60 O 0.85624 1.11061 0.52829 0.0
O61 O 0.76598 1.06331 0.48879 0.0
C62 C 0.81308 0.31529 0.5106 0.0
O63 O 0.9658 0.23888 0.55565 0.0
O64 O 0.99508 0.27775 0.49946 0.0
C65 C 0.53238 1.05157 0.46347 0.0
C66 C 0.39136 0.99006 0.44439 0.0
C67 C 0.44411 1.04461 0.42153 0.0
C68 C 0.51441 1.07399 0.43064 0.0
C69 C 0.48055 0.99919 0.48714 0.0
C70 C 0.4101 0.96767 0.47739 0.0
C71 C 0.60497 1.08644 0.47394 0.0
H72 H 1.05722 0.48211 0.58219 0.0
H73 H 0.99865 0.35337 0.5847 0.0
H74 H 1.14205 0.36712 0.5014 0.0
H75 H 1.19517 0.49388 0.4961 0.0
H76 H 0.43121 1.06572 0.3969 0.0
H77 H 0.55447 1.11584 0.4127 0.0
H78 H 0.49465 0.98267 0.51294 0.0
H79 H 0.37048 0.92618 0.49559 0.0
Tb80 Tb 0.91221 0.74118 0.84666 0.0
Eu81 Eu 0.84209 0.59493 0.81568 0.0
C82 C 0.83766 0.60608 0.89885 0.0
C83 C 1.00321 0.6647 0.84156 0.0
C84 C 0.93155 0.90633 0.85894 0.0
C85 C 0.83498 0.92223 0.87781 0.0
C86 C 0.89121 0.91121 0.8867 0.0
C87 C 0.92031 0.9215 0.82241 0.0
C88 C 0.86417 0.93205 0.81364 0.0
C89 C 0.81933 0.9288 0.8412 0.0
C90 C 0.96517 0.86323 0.86661 0.0
O91 O 0.87975 0.74964 0.79 0.0
O92 O 0.91538 0.67662 0.77392 0.0
O93 O 0.75216 0.62183 0.81627 0.0
O94 O 0.80062 0.71188 0.85415 0.0
C95 C 0.89952 0.72508 0.76398 0.0
O96 O 0.79591 0.53894 0.76751 0.0
O97 O 0.81085 0.48391 0.81577 0.0
O98 O 0.79781 0.57391 0.8719 0.0
O99 O 0.89659 0.66612 0.89284 0.0
O100 O 1.00231 0.72474 0.83792 0.0
O101 O 0.9438 0.60464 0.83917 0.0
C102 C 0.74554 0.66594 0.83656 0.0
O103 O 0.92796 0.80706 0.88849 0.0
O104 O 0.98897 0.84837 0.83821 0.0
C105 C 0.70783 0.42101 0.78226 0.0
C106 C 0.57142 0.30712 0.77556 0.0
C107 C 0.59218 0.37134 0.75518 0.0
C108 C 0.66011 0.42809 0.75848 0.0
C109 C 0.68554 0.35803 0.80405 0.0
C110 C 0.61785 0.30161 0.8008 0.0
C111 C 0.78104 0.47801 0.78407 0.0
H112 H 0.80124 0.92118 0.89928 0.0
H113 H 0.89854 0.89928 0.91501 0.0
H114 H 0.95033 0.91847 0.80025 0.0
H115 H 0.85371 0.9394 0.7852 0.0
H116 H 0.55701 0.37652 0.73563 0.0
H117 H 0.6757 0.47652 0.74161 0.0
H118 H 0.72119 0.35146 0.82273 0.0
H119 H 0.60336 0.25214 0.81644 0.0
H120 H 0.95337 0.34837 0.2693 0.0
H121 H 0.76585 0.1445 0.27197 0.0
H122 H 0.85121 0.26387 0.16888 0.0
H123 H 0.67054 0.16936 0.1902 0.0
C124 C 0.67491 1.12544 0.20482 0.0
O125 O 0.74532 0.14157 0.20189 0.0
H126 H 0.66166 1.12493 0.23389 0.0
C127 C 0.91069 0.30712 0.25493 0.0
C128 C 0.91023 0.31461 0.21665 0.0
C129 C 0.85895 0.2468 0.2751 0.0
C130 C 0.80531 0.19158 0.25656 0.0
C131 C 0.79987 0.19733 0.21841 0.0
C132 C 0.85296 0.25966 0.19833 0.0
H133 H 0.84135 0.83613 0.60486 0.0
H134 H 0.84853 0.64386 0.6006 0.0
H135 H 0.80952 0.73949 0.50294 0.0
H136 H 0.7308 0.55704 0.51655 0.0
C137 C 0.77448 0.56117 0.5341 0.0
O138 O 0.82875 0.6318 0.53139 0.0
H139 H 0.75287 0.5458 0.56249 0.0
C140 C 0.83594 0.79331 0.58955 0.0
C141 C 0.82344 0.7953 0.55182 0.0
C142 C 0.84419 0.73897 0.60768 0.0
C143 C 0.84118 0.68558 0.58727 0.0
C144 C 0.82766 0.68394 0.54981 0.0
C145 C 0.81793 0.73893 0.53201 0.0
H146 H 0.22545 0.66078 0.93825 0.0
H147 H 0.43192 0.68236 0.93612 0.0
H148 H 0.3219 0.66752 0.83568 0.0
H149 H 0.41975 0.5832 0.85083 0.0
C150 C 0.45924 0.6261 0.86694 0.0
O151 O 0.44214 0.68011 0.86585 0.0
H152 H 0.45291 0.60248 0.8954 0.0
C153 C 0.26863 0.66324 0.92297 0.0
C154 C 0.26534 0.66326 0.88475 0.0
C155 C 0.32813 0.66992 0.94168 0.0
C156 C 0.38556 0.67612 0.92182 0.0
C157 C 0.38386 0.67325 0.88376 0.0
C158 C 0.32316 0.66717 0.86511 0.0
H159 H 1.19177 0.67325 0.40562 0.0
H160 H 1.08513 0.77294 0.34924 0.0
H161 H 1.09059 0.76081 0.46539 0.0
H162 H 1.077 0.9133 0.42015 0.0
C163 C 1.1003 0.89016 0.40295 0.0
O164 O 1.05999 0.81692 0.40769 0.0
H165 H 1.09658 0.90745 0.37425 0.0
C166 C 1.16131 0.69993 0.40566 0.0
C167 C 1.14063 0.71148 0.43914 0.0
C168 C 1.14159 0.72134 0.37264 0.0
C169 C 1.10188 0.75591 0.37394 0.0
C170 C 1.08703 0.77316 0.40714 0.0
C171 C 1.10488 0.74962 0.4397 0.0
H172 H 0.70208 1.01909 0.72875 0.0
H173 H 0.56788 1.11039 0.71582 0.0
H174 H 0.54082 0.96904 0.80895 0.0
H175 H 0.38627 0.98716 0.7781 0.0
C176 C 0.42997 1.02825 0.76025 0.0
O177 O 0.49367 1.04534 0.77623 0.0
H178 H 0.42545 1.00684 0.73319 0.0
C179 C 0.65796 1.02415 0.73778 0.0
C180 C 0.62417 0.99049 0.77113 0.0
C181 C 0.63685 1.06632 0.71694 0.0
C182 C 0.58167 1.07435 0.73026 0.0
C183 C 0.54431 1.03565 0.76226 0.0
C184 C 0.566 0.99413 0.78276 0.0
H185 H 0.81167 0.59378 0.06815 0.0
H186 H 0.64198 0.40022 0.03141 0.0
H187 H 0.63863 0.45569 0.14058 0.0
H188 H 0.58962 0.3086 0.13063 0.0
C189 C 0.54461 0.30953 0.11633 0.0
O190 O 0.56753 0.36547 0.0903 0.0
H191 H 0.51435 0.25916 0.10302 0.0
C192 C 0.76265 0.54438 0.07338 0.0
C193 C 0.73038 0.52791 0.1079 0.0
C194 C 0.73136 0.4989 0.04555 0.0
C195 C 0.66777 0.43565 0.05278 0.0
C196 C 0.63385 0.42033 0.08662 0.0
C197 C 0.66486 0.46687 0.11434 0.0
C198 C 0.49303 0.37554 0.19506 0.0
C199 C 0.44112 0.3884 0.17905 0.0
C200 C 0.52138 0.34159 0.17653 0.0
C201 C 0.4974 0.31816 0.14185 0.0
H202 H 0.51629 0.39753 0.22055 0.0
H203 H 0.5666 0.33971 0.18786 0.0
S204 S 0.35719 0.33182 0.08997 0.0
N205 N 0.36326 0.37038 0.12779 0.0
N206 N 0.41398 0.30285 0.09399 0.0
C207 C 0.43999 0.32343 0.12752 0.0
C208 C 0.41242 0.35965 0.14586 0.0
C209 C 1.08018 0.57407 0.51705 0.0
C210 C 1.14048 0.56801 0.5244 0.0
C211 C 1.08289 0.62628 0.49194 0.0
C212 C 1.14566 0.67344 0.47275 0.0
H213 H 1.02879 0.53366 0.52742 0.0
H214 H 1.03385 0.62485 0.4848 0.0
S215 S 0.32083 0.68863 0.48715 0.0
N216 N 0.26715 0.62137 0.51544 0.0
N217 N 0.27161 0.71784 0.46629 0.0
C218 C 1.2078 0.67268 0.48234 0.0
C219 C 1.20535 0.62047 0.50878 0.0
C220 C 0.75159 0.99132 0.83969 0.0
C221 C 0.75653 0.93265 0.83093 0.0
C222 C 0.70277 1.00626 0.82233 0.0
C223 C 0.65807 0.96257 0.7961 0.0
H224 H 0.78924 1.02872 0.85771 0.0
H225 H 0.70378 1.05504 0.82724 0.0
S226 S 0.64151 0.79572 0.76925 0.0
N227 N 0.70635 0.82514 0.79871 0.0
N228 N 0.61454 0.85432 0.76567 0.0
C229 C 0.65811 0.90053 0.78962 0.0
C230 C 0.70753 0.88512 0.80729 0.0
C231 C 0.87846 0.60989 0.16978 0.0
C232 C 0.89995 0.68166 0.16096 0.0
C233 C 0.8139 0.55672 0.15779 0.0
C234 C 0.7699 0.57432 0.13668 0.0
H235 H 0.91524 0.59457 0.18145 0.0
H236 H 0.80342 0.50259 0.16045 0.0
S237 S 0.79406 0.75318 0.11537 0.0
N238 N 0.86541 0.76677 0.13783 0.0
N239 N 0.7449 0.66653 0.11405 0.0
C240 C 0.78561 0.64499 0.13306 0.0
C241 C 0.85078 0.69899 0.14561 0.0
C242 C 0.26555 0.9488 0.46005 0.0
C243 C 0.31689 0.95914 0.43418 0.0
C244 C 1.19627 0.92746 0.44969 0.0
C245 C 1.17672 0.91774 0.41305 0.0
H246 H 0.27929 0.95901 0.48825 0.0
H247 H 1.15779 0.91907 0.47037 0.0
S248 S 0.29136 0.93419 0.33563 0.0
N249 N 0.34212 0.95076 0.37141 0.0
N250 N 0.21406 0.9185 0.35115 0.0
C251 C 0.22747 0.92675 0.38715 0.0
C252 C 0.29697 0.94538 0.39795 0.0
C253 C 0.46454 0.19447 0.7952 0.0
C254 C 0.50756 0.24188 0.76666 0.0
C255 C 0.42444 1.1222 0.79051 0.0
C256 C 0.42759 1.09571 0.75735 0.0
H257 H 0.46883 0.21201 0.82239 0.0
H258 H 0.40068 1.0863 0.8145 0.0
S259 S 0.51576 0.20073 0.67164 0.0
N260 N 0.53891 0.25968 0.7022 0.0
N261 N 0.46176 1.12354 0.69325 0.0
C262 C 0.45986 0.14391 0.72702 0.0
C263 C 0.5011 0.21747 0.73179 0.0
C264 C 0.87184 0.9897 0.53515 0.0
C265 C 0.81466 0.98871 0.51608 0.0
C266 C 0.87563 0.92789 0.54403 0.0
C267 C 0.82226 0.86047 0.53484 0.0
H268 H 0.91423 1.03891 0.54411 0.0
H269 H 0.92042 0.93285 0.55947 0.0
S270 S 0.66203 0.8272 0.48315 0.0
N271 N 0.70426 0.91364 0.48663 0.0
N272 N 0.71097 0.79734 0.50382 0.0
C273 C 0.76577 0.85849 0.5145 0.0
C274 C 0.762 0.92223 0.50517 0.0
C275 C 1.07515 0.60183 0.85348 0.0
C276 C 1.07233 0.66533 0.84892 0.0
C277 C 1.13851 0.60146 0.86255 0.0
C278 C 1.20267 0.66456 0.86707 0.0
H279 H 1.02751 0.55155 0.85099 0.0
H280 H 1.13667 0.55107 0.86737 0.0
S281 S 0.22563 0.84514 0.85874 0.0
N282 N 1.14151 0.79341 0.84996 0.0
N283 N 0.25872 0.79209 0.86661 0.0
C284 C 1.20088 0.7282 0.86204 0.0
C285 C 1.1366 0.72876 0.85304 0.0
C286 C 0.55005 0.92166 0.20028 0.0
C287 C 0.4928 0.91702 0.17943 0.0
C288 C 0.6107 0.98794 0.2066 0.0
C289 C 0.61828 1.05293 0.19148 0.0
H290 H 0.54679 0.87386 0.21312 0.0
H291 H 0.65079 0.98841 0.22454 0.0
S292 S 0.48661 1.07005 0.13235 0.0
N293 N 0.45035 0.98405 0.14237 0.0
N294 N 0.56307 1.10634 0.15308 0.0
C295 C 0.56253 1.04821 0.1694 0.0
C296 C 0.50057 0.98129 0.16365 0.0
C297 C 0.76304 0.39666 0.49409 0.0
C298 C 0.81136 0.38329 0.51425 0.0
C299 C 0.7559 0.45662 0.49873 0.0
C300 C 0.796 0.50659 0.52412 0.0
H301 H 0.72927 0.3596 0.47483 0.0
H302 H 0.71611 0.46221 0.4832 0.0
S303 S 0.92581 0.49395 0.58627 0.0
N304 N 0.89848 0.42482 0.5618 0.0
N305 N 0.88407 0.53596 0.57089 0.0
C306 C 0.84487 0.49417 0.54436 0.0
C307 C 0.85281 0.43331 0.53933 0.0
C308 C 0.66232 0.6978 0.86854 0.0
C309 C 0.67421 0.66251 0.84099 0.0
C310 C 0.5949 0.69065 0.87507 0.0
C311 C 0.53555 0.64868 0.8541 0.0
H312 H 0.70497 0.7295 0.88622 0.0
H313 H 0.58849 0.71578 0.89782 0.0
S314 S 0.53828 0.5513 0.77609 0.0
N315 N 0.61989 0.58794 0.79091 0.0
N316 N 0.49563 0.57581 0.80264 0.0
C317 C 0.54769 0.61642 0.82531 0.0
C318 C 0.61587 0.62291 0.81894 0.0
C319 C 1.03743 0.50278 0.17233 0.0
C320 C 1.10528 0.51109 0.17913 0.0
C321 C 0.9739 0.43794 0.18178 0.0
C322 C 0.97487 0.3777 0.19811 0.0
H323 H 1.0331 0.54753 0.16084 0.0
H324 H 0.9238 0.4361 0.17779 0.0
S325 S 1.13637 0.36862 0.22127 0.0
N326 N 1.16682 0.45013 0.20316 0.0
N327 N 1.04971 0.33084 0.2198 0.0
C328 C 1.04192 0.38473 0.20394 0.0
C329 C 1.10608 0.45026 0.19481 0.0
C330 C 0.2811 0.62512 0.0435 0.0
C331 C 0.33307 0.68607 0.05928 0.0
C332 C 0.28 0.61971 0.00547 0.0
C333 C 0.33166 0.67438 0.98203 0.0
H334 H 0.23921 0.58289 0.0604 0.0
H335 H 0.23801 0.57285 -0.00575 0.0
S336 S 0.47881 0.8443 0.00991 0.0
N337 N 0.43679 0.80192 0.04848 0.0
N338 N 0.43605 0.79087 0.97761 0.0
C339 C 0.38459 0.73458 -0.00231 0.0
C340 C 0.38487 0.74064 0.03611 0.0
C341 C 0.8597 0.17971 0.37434 0.0
C342 C 0.86181 0.23347 0.3941 0.0
C343 C 0.85869 0.18401 0.33587 0.0
C344 C 0.86086 0.24271 0.31583 0.0
H345 H 0.85568 1.13269 0.38869 0.0
H346 H 0.85585 0.141 0.3217 0.0
S347 S 0.86734 0.39751 0.35488 0.0
N348 N 0.86591 0.34673 0.39079 0.0
N349 N 0.86573 0.35572 0.31901 0.0
C350 C 0.86442 0.29724 0.33542 0.0
C351 C 0.86434 0.29231 0.37436 0.0
C352 C 0.92363 0.71999 0.69846 0.0
C353 C 0.88857 0.73652 0.72439 0.0
C354 C 0.90965 0.72187 0.66112 0.0
C355 C 0.85908 0.73944 0.64775 0.0
H356 H 0.96204 0.7046 0.70712 0.0
H357 H 0.93893 0.70929 0.64257 0.0
S358 S 0.74958 0.78377 0.70423 0.0
N359 N 0.79988 0.77011 0.734 0.0
N360 N 0.77198 0.77166 0.66399 0.0
C361 C 0.82348 0.75623 0.67338 0.0
C362 C 0.8385 0.75519 0.71154 0.0
C363 C 0.77782 0.15631 0.64203 0.0
C364 C 0.7371 0.14627 0.61078 0.0
C365 C 0.74533 1.13302 0.67669 0.0
C366 C 0.67132 1.09969 0.68103 0.0
H367 H 0.83444 0.17885 0.63956 0.0
H368 H 0.77816 1.13936 0.70014 0.0
S369 S 0.54267 1.06789 0.60742 0.0
N370 N 0.62022 1.10688 0.58631 0.0
N371 N 0.55923 1.06168 0.65105 0.0
C372 C 0.63077 1.09297 0.64996 0.0
C373 C 0.6637 1.11659 0.61491 0.0
C374 C 0.74036 0.54225 0.94408 0.0
C375 C 0.81299 0.57665 0.93614 0.0
C376 C 0.71456 0.51581 0.97945 0.0
C377 C 0.76037 0.52161 0.00802 0.0
H378 H 0.70324 0.53766 0.92301 0.0
H379 H 0.65844 0.4926 0.98459 0.0
S380 S 0.95478 0.60171 0.0005 0.0
N381 N 0.93042 0.613 0.95891 0.0
N382 N 0.88152 0.56007 0.02555 0.0
C383 C 0.83311 0.554 0.00019 0.0
C384 C 0.85955 0.58235 0.96418 0.0
C385 C 0.21845 0.76844 0.27669 0.0
C386 C 0.23102 0.71345 0.27044 0.0
C387 C 1.18692 0.76837 0.30907 0.0
C388 C 1.16787 0.71414 0.33704 0.0
H389 H 0.23211 0.8115 0.25603 0.0
H390 H 1.17762 0.81175 0.31179 0.0
S391 S 1.17697 0.5499 0.32983 0.0
N392 N 0.21427 0.59822 0.29159 0.0
N393 N 1.1542 0.59741 0.3532 0.0
C394 C 1.17728 0.65653 0.33018 0.0
C395 C 1.20946 0.65661 0.29678 0.0
loop_
_geom_bond_atom_site_label_1
_geom_bond_atom_site_label_2
_geom_bond_distance
_geom_bond_site_symmetry_2
_ccdc_geom_bond_type
Tb0 C10 2.825 . S
Tb0 O11 2.347 . S
Tb0 O14 2.366 . S
Tb0 O19 2.418 . S
Tb0 O20 2.384 1_455 S
Tb0 O23 2.479 . S
Tb0 O24 2.471 . S
Eu1 O12 2.418 . S
Eu1 O13 2.384 1_655 S
Eu1 O16 2.479 . S
Eu1 O17 2.471 . S
Eu1 O18 2.347 1_655 S
Eu1 O21 2.366 . S
Eu1 C31 2.825 . S
C2 O18 1.259 . S
C2 O19 1.265 . S
C3 O20 1.255 . S
C3 O21 1.265 . S
C4 C6 1.380 . S
C4 C7 1.374 . S
C4 C10 1.507 . S
C5 C6 1.384 . S
C5 C9 1.387 . S
C5 H32 0.930 . S
C6 C4 1.380 . S
C6 C5 1.384 . S
C6 H33 0.931 . S
C7 C4 1.374 . S
C7 C8 1.390 . S
C7 H34 0.930 . S
C8 C7 1.390 . S
C8 C9 1.391 . S
C8 H35 0.930 . S
C9 C5 1.387 . S
C9 C8 1.391 . S
C10 Tb0 2.825 . S
C10 C4 1.507 . S
C10 O23 1.238 . S
C10 O24 1.247 . S
O11 Tb0 2.347 . S
O11 C15 1.259 . S
O12 Eu1 2.418 . S
O12 C15 1.265 1_655 S
O13 Eu1 2.384 1_455 S
O13 C22 1.255 . S
O14 Tb0 2.366 . S
O14 C22 1.265 . S
C15 O11 1.259 . S
C15 O12 1.265 1_455 S
O16 Eu1 2.479 . S
O16 C31 1.238 . S
O17 Eu1 2.471 . S
O17 C31 1.247 . S
O18 Eu1 2.347 1_455 S
O18 C2 1.259 . S
O19 Tb0 2.418 . S
O19 C2 1.265 . S
O20 Tb0 2.384 1_655 S
O20 C3 1.255 . S
O21 Eu1 2.366 . S
O21 C3 1.265 . S
C22 O13 1.255 . S
C22 O14 1.265 . S
O23 Tb0 2.479 . S
O23 C10 1.238 . S
O24 Tb0 2.471 . S
O24 C10 1.247 . S
C25 C28 1.380 . S
C25 C29 1.374 . S
C25 C31 1.507 . S
C26 C27 1.387 . S
C26 C30 1.391 . S
C27 C26 1.387 . S
C27 C28 1.384 . S
C27 H36 0.930 . S
C28 C25 1.380 . S
C28 C27 1.384 . S
C28 H37 0.931 . S
C29 C25 1.374 . S
C29 C30 1.390 . S
C29 H38 0.930 . S
C30 C26 1.391 . S
C30 C29 1.390 . S
C30 H39 0.930 . S
C31 Eu1 2.825 . S
C31 O16 1.238 . S
C31 O17 1.247 . S
C31 C25 1.507 . S
H32 C5 0.930 . S
H33 C6 0.931 . S
H34 C7 0.930 . S
H35 C8 0.930 . S
H36 C27 0.930 . S
H37 C28 0.931 . S
H38 C29 0.930 . S
H39 C30 0.930 . S
Tb40 C50 2.825 . S
Tb40 O51 2.347 . S
Tb40 O54 2.366 . S
Tb40 O59 2.418 . S
Tb40 O60 2.384 1_545 S
Tb40 O63 2.479 . S
Tb40 O64 2.471 . S
Eu41 O52 2.418 1_565 S
Eu41 O53 2.384 1_565 S
Eu41 O56 2.479 . S
Eu41 O57 2.471 . S
Eu41 O58 2.347 1_565 S
Eu41 O61 2.366 . S
Eu41 C71 2.825 . S
C42 O58 1.259 . S
C42 O59 1.265 . S
C43 O60 1.255 . S
C43 O61 1.265 . S
C44 C46 1.380 . S
C44 C47 1.374 . S
C44 C50 1.507 . S
C45 C46 1.384 . S
C45 C49 1.387 . S
C45 H72 0.930 . S
C46 C44 1.380 . S
C46 C45 1.384 . S
C46 H73 0.931 . S
C47 C44 1.374 . S
C47 C48 1.390 . S
C47 H74 0.930 . S
C48 C47 1.390 . S
C48 C49 1.391 . S
C48 H75 0.930 . S
C49 C45 1.387 . S
C49 C48 1.391 . S
C50 Tb40 2.825 . S
C50 C44 1.507 . S
C50 O63 1.238 . S
C50 O64 1.247 . S
O51 Tb40 2.347 . S
O51 C55 1.259 . S
O52 Eu41 2.418 1_545 S
O52 C55 1.265 . S
O53 Eu41 2.384 1_545 S
O53 C62 1.255 . S
O54 Tb40 2.366 . S
O54 C62 1.265 . S
C55 O51 1.259 . S
C55 O52 1.265 . S
O56 Eu41 2.479 . S
O56 C71 1.238 . S
O57 Eu41 2.471 . S
O57 C71 1.247 . S
O58 Eu41 2.347 1_545 S
O58 C42 1.259 . S
O59 Tb40 2.418 . S
O59 C42 1.265 . S
O60 Tb40 2.384 1_565 S
O60 C43 1.255 . S
O61 Eu41 2.366 . S
O61 C43 1.265 . S
C62 O53 1.255 . S
C62 O54 1.265 . S
O63 Tb40 2.479 . S
O63 C50 1.238 . S
O64 Tb40 2.471 . S
O64 C50 1.247 . S
C65 C68 1.380 . S
C65 C69 1.374 . S
C65 C71 1.507 . S
C66 C67 1.387 . S
C66 C70 1.391 . S
C67 C66 1.387 . S
C67 C68 1.384 . S
C67 H76 0.930 . S
C68 C65 1.380 . S
C68 C67 1.384 . S
C68 H77 0.931 . S
C69 C65 1.374 . S
C69 C70 1.390 . S
C69 H78 0.930 . S
C70 C66 1.391 . S
C70 C69 1.390 . S
C70 H79 0.930 . S
C71 Eu41 2.825 . S
C71 O56 1.238 . S
C71 O57 1.247 . S
C71 C65 1.507 . S
H72 C45 0.930 . S
H73 C46 0.931 . S
H74 C47 0.930 . S
H75 C48 0.930 . S
H76 C67 0.930 . S
H77 C68 0.931 . S
H78 C69 0.930 . S
H79 C70 0.930 . S
Tb80 C90 2.825 . S
Tb80 O91 2.347 . S
Tb80 O94 2.366 . S
Tb80 O99 2.418 . S
Tb80 O100 2.384 . S
Tb80 O103 2.479 . S
Tb80 O104 2.471 . S
Eu81 O92 2.418 . S
Eu81 O93 2.384 . S
Eu81 O96 2.479 . S
Eu81 O97 2.471 . S
Eu81 O98 2.347 . S
Eu81 O101 2.366 . S
Eu81 C111 2.825 . S
C82 O98 1.259 . S
C82 O99 1.265 . S
C83 O100 1.255 . S
C83 O101 1.265 . S
C84 C86 1.380 . S
C84 C87 1.374 . S
C84 C90 1.507 . S
C85 C86 1.384 . S
C85 C89 1.387 . S
C85 H112 0.930 . S
C86 C84 1.380 . S
C86 C85 1.384 . S
C86 H113 0.931 . S
C87 C84 1.374 . S
C87 C88 1.390 . S
C87 H114 0.930 . S
C88 C87 1.390 . S
C88 C89 1.391 . S
C88 H115 0.930 . S
C89 C85 1.387 . S
C89 C88 1.391 . S
C90 Tb80 2.825 . S
C90 C84 1.507 . S
C90 O103 1.238 . S
C90 O104 1.247 . S
O91 Tb80 2.347 . S
O91 C95 1.259 . S
O92 Eu81 2.418 . S
O92 C95 1.265 . S
O93 Eu81 2.384 . S
O93 C102 1.255 . S
O94 Tb80 2.366 . S
O94 C102 1.265 . S
C95 O91 1.259 . S
C95 O92 1.265 . S
O96 Eu81 2.479 . S
O96 C111 1.238 . S
O97 Eu81 2.471 . S
O97 C111 1.247 . S
O98 Eu81 2.347 . S
O98 C82 1.259 . S
O99 Tb80 2.418 . S
O99 C82 1.265 . S
O100 Tb80 2.384 . S
O100 C83 1.255 . S
O101 Eu81 2.366 . S
O101 C83 1.265 . S
C102 O93 1.255 . S
C102 O94 1.265 . S
O103 Tb80 2.479 . S
O103 C90 1.238 . S
O104 Tb80 2.471 . S
O104 C90 1.247 . S
C105 C108 1.380 . S
C105 C109 1.374 . S
C105 C111 1.507 . S
C106 C107 1.387 . S
C106 C110 1.391 . S
C107 C106 1.387 . S
C107 C108 1.384 . S
C107 H116 0.930 . S
C108 C105 1.380 . S
C108 C107 1.384 . S
C108 H117 0.931 . S
C109 C105 1.374 . S
C109 C110 1.390 . S
C109 H118 0.930 . S
C110 C106 1.391 . S
C110 C109 1.390 . S
C110 H119 0.930 . S
C111 Eu81 2.825 . S
C111 O96 1.238 . S
C111 O97 1.247 . S
C111 C105 1.507 . S
H112 C85 0.930 . S
H113 C86 0.931 . S
H114 C87 0.930 . S
H115 C88 0.930 . S
H116 C107 0.930 . S
H117 C108 0.931 . S
H118 C109 0.930 . S
H119 C110 0.930 . S
H120 C127 0.929 . S
H121 C130 0.930 . S
H122 C132 0.929 . S
H123 C124 0.969 . S
C124 H123 0.969 . S
C124 O125 1.550 . S
C124 H126 0.973 . S
O125 C124 1.550 . S
O125 C131 1.412 . S
H126 C124 0.973 . S
C127 H120 0.929 . S
C127 C128 1.400 . S
C127 C129 1.364 . S
C128 C127 1.400 . S
C128 C132 1.377 . S
C129 C127 1.364 . S
C129 C130 1.374 1_545 S
C130 H121 0.930 . S
C130 C129 1.374 1_565 S
C130 C131 1.383 . S
C131 O125 1.412 . S
C131 C130 1.383 . S
C131 C132 1.394 1_565 S
C132 H122 0.929 . S
C132 C128 1.377 . S
C132 C131 1.394 1_545 S
H133 C140 0.929 . S
H134 C143 0.930 . S
H135 C145 0.929 . S
H136 C137 0.969 . S
C137 H136 0.969 . S
C137 O138 1.550 . S
C137 H139 0.973 . S
O138 C137 1.550 . S
O138 C144 1.412 . S
H139 C137 0.973 . S
C140 H133 0.929 . S
C140 C141 1.400 . S
C140 C142 1.364 . S
C141 C140 1.400 . S
C141 C145 1.377 . S
C142 C140 1.364 . S
C142 C143 1.374 . S
C143 H134 0.930 . S
C143 C142 1.374 . S
C143 C144 1.383 . S
C144 O138 1.412 . S
C144 C143 1.383 . S
C144 C145 1.394 . S
C145 H135 0.929 . S
C145 C141 1.377 . S
C145 C144 1.394 . S
H146 C153 0.929 . S
H147 C156 0.930 . S
H148 C158 0.929 . S
H149 C150 0.969 . S
C150 H149 0.969 . S
C150 O151 1.550 . S
C150 H152 0.973 . S
O151 C150 1.550 . S
O151 C157 1.412 . S
H152 C150 0.973 . S
C153 H146 0.929 . S
C153 C154 1.400 . S
C153 C155 1.364 1_655 S
C154 C153 1.400 . S
C154 C158 1.377 1_655 S
C155 C153 1.364 1_455 S
C155 C156 1.374 . S
C156 H147 0.930 . S
C156 C155 1.374 . S
C156 C157 1.383 . S
C157 O151 1.412 . S
C157 C156 1.383 . S
C157 C158 1.394 . S
C158 H148 0.929 . S
C158 C154 1.377 1_455 S
C158 C157 1.394 . S
H159 C166 0.929 . S
H160 C169 0.930 . S
H161 C171 0.929 . S
H162 C163 0.969 . S
C163 H162 0.969 . S
C163 O164 1.550 . S
C163 H165 0.973 . S
O164 C163 1.550 . S
O164 C170 1.412 . S
H165 C163 0.973 . S
C166 H159 0.929 . S
C166 C167 1.400 . S
C166 C168 1.364 1_655 S
C167 C166 1.400 . S
C167 C171 1.377 1_655 S
C168 C166 1.364 1_455 S
C168 C169 1.374 . S
C169 H160 0.930 . S
C169 C168 1.374 . S
C169 C170 1.383 . S
C170 O164 1.412 . S
C170 C169 1.383 . S
C170 C171 1.394 . S
C171 H161 0.929 . S
C171 C167 1.377 1_455 S
C171 C170 1.394 . S
H172 C179 0.929 . S
H173 C182 0.930 . S
H174 C184 0.929 . S
H175 C176 0.969 . S
C176 H175 0.969 . S
C176 O177 1.550 . S
C176 H178 0.973 . S
O177 C176 1.550 . S
O177 C183 1.412 . S
H178 C176 0.973 . S
C179 H172 0.929 . S
C179 C180 1.400 . S
C179 C181 1.364 . S
C180 C179 1.400 . S
C180 C184 1.377 . S
C181 C179 1.364 . S
C181 C182 1.374 1_565 S
C182 H173 0.930 . S
C182 C181 1.374 1_545 S
C182 C183 1.383 . S
C183 O177 1.412 . S
C183 C182 1.383 . S
C183 C184 1.394 1_545 S
C184 H174 0.929 . S
C184 C180 1.377 . S
C184 C183 1.394 1_565 S
H185 C192 0.929 . S
H186 C195 0.930 . S
H187 C197 0.929 . S
H188 C189 0.969 . S
C189 H188 0.969 . S
C189 O190 1.550 . S
C189 H191 0.973 . S
O190 C189 1.550 . S
O190 C196 1.412 . S
H191 C189 0.973 . S
C192 H185 0.929 . S
C192 C193 1.400 . S
C192 C194 1.364 . S
C193 C192 1.400 . S
C193 C197 1.377 . S
C194 C192 1.364 . S
C194 C195 1.374 . S
C195 H186 0.930 . S
C195 C194 1.374 . S
C195 C196 1.383 . S
C196 O190 1.412 . S
C196 C195 1.383 . S
C196 C197 1.394 . S
C197 H187 0.929 . S
C197 C193 1.377 . S
C197 C196 1.394 . S
C198 C199 1.369 . S
C198 C200 1.419 . S
C198 H202 0.930 . S
C199 C198 1.369 . S
C199 C208 1.429 . S
C200 C198 1.419 . S
C200 C201 1.363 . S
C200 H203 0.929 . S
C201 C200 1.363 . S
C201 C207 1.428 . S
H202 C198 0.930 . S
H203 C200 0.929 . S
S204 N205 1.613 . S
S204 N206 1.610 . S
N205 S204 1.613 . S
N205 C208 1.350 . S
N206 S204 1.610 . S
N206 C207 1.351 . S
C207 C201 1.428 . S
C207 N206 1.351 . S
C207 C208 1.434 . S
C208 C199 1.429 . S
C208 N205 1.350 . S
C208 C207 1.434 . S
C209 C210 1.369 . S
C209 C211 1.419 . S
C209 H213 0.930 . S
C210 C209 1.369 . S
C210 C219 1.429 . S
C211 C209 1.419 . S
C211 C212 1.363 . S
C211 H214 0.929 . S
C212 C211 1.363 . S
C212 C218 1.428 . S
H213 C209 0.930 . S
H214 C211 0.929 . S
S215 N216 1.613 . S
S215 N217 1.610 . S
N216 S215 1.613 . S
N216 C219 1.350 1_455 S
N217 S215 1.610 . S
N217 C218 1.351 1_455 S
C218 C212 1.428 . S
C218 N217 1.351 1_655 S
C218 C219 1.434 . S
C219 C210 1.429 . S
C219 N216 1.350 1_655 S
C219 C218 1.434 . S
C220 C221 1.369 . S
C220 C222 1.419 . S
C220 H224 0.930 . S
C221 C220 1.369 . S
C221 C230 1.429 . S
C222 C220 1.419 . S
C222 C223 1.363 . S
C222 H225 0.929 . S
C223 C222 1.363 . S
C223 C229 1.428 . S
H224 C220 0.930 . S
H225 C222 0.929 . S
S226 N227 1.613 . S
S226 N228 1.610 . S
N227 S226 1.613 . S
N227 C230 1.350 . S
N228 S226 1.610 . S
N228 C229 1.351 . S
C229 C223 1.428 . S
C229 N228 1.351 . S
C229 C230 1.434 . S
C230 C221 1.429 . S
C230 N227 1.350 . S
C230 C229 1.434 . S
C231 C232 1.369 . S
C231 C233 1.419 . S
C231 H235 0.930 . S
C232 C231 1.369 . S
C232 C241 1.429 . S
C233 C231 1.419 . S
C233 C234 1.363 . S
C233 H236 0.929 . S
C234 C233 1.363 . S
C234 C240 1.428 . S
H235 C231 0.930 . S
H236 C233 0.929 . S
S237 N238 1.613 . S
S237 N239 1.610 . S
N238 S237 1.613 . S
N238 C241 1.350 . S
N239 S237 1.610 . S
N239 C240 1.351 . S
C240 C234 1.428 . S
C240 N239 1.351 . S
C240 C241 1.434 . S
C241 C232 1.429 . S
C241 N238 1.350 . S
C241 C240 1.434 . S
C242 C243 1.369 . S
C242 C244 1.419 . S
C242 H246 0.930 . S
C243 C242 1.369 . S
C243 C252 1.429 . S
C244 C242 1.419 . S
C244 C245 1.363 . S
C244 H247 0.929 . S
C245 C244 1.363 . S
C245 C251 1.428 . S
H246 C242 0.930 . S
H247 C244 0.929 . S
S248 N249 1.613 . S
S248 N250 1.610 . S
N249 S248 1.613 . S
N249 C252 1.350 . S
N250 S248 1.610 . S
N250 C251 1.351 . S
C251 C245 1.428 . S
C251 N250 1.351 . S
C251 C252 1.434 . S
C252 C243 1.429 . S
C252 N249 1.350 . S
C252 C251 1.434 . S
C253 C254 1.369 . S
C253 C255 1.419 . S
C253 H257 0.930 . S
C254 C253 1.369 . S
C254 C263 1.429 . S
C255 C253 1.419 . S
C255 C256 1.363 . S
C255 H258 0.929 . S
C256 C255 1.363 . S
C256 C262 1.428 . S
H257 C253 0.930 . S
H258 C255 0.929 . S
S259 N260 1.613 . S
S259 N261 1.610 . S
N260 S259 1.613 . S
N260 C263 1.350 . S
N261 S259 1.610 . S
N261 C262 1.351 . S
C262 C256 1.428 . S
C262 N261 1.351 . S
C262 C263 1.434 . S
C263 C254 1.429 . S
C263 N260 1.350 . S
C263 C262 1.434 . S
C264 C265 1.369 . S
C264 C266 1.419 . S
C264 H268 0.930 . S
C265 C264 1.369 . S
C265 C274 1.429 . S
C266 C264 1.419 . S
C266 C267 1.363 . S
C266 H269 0.929 . S
C267 C266 1.363 . S
C267 C273 1.428 . S
H268 C264 0.930 . S
H269 C266 0.929 . S
S270 N271 1.613 . S
S270 N272 1.610 . S
N271 S270 1.613 . S
N271 C274 1.350 . S
N272 S270 1.610 . S
N272 C273 1.351 . S
C273 C267 1.428 . S
C273 N272 1.351 . S
C273 C274 1.434 . S
C274 C265 1.429 . S
C274 N271 1.350 . S
C274 C273 1.434 . S
C275 C276 1.369 . S
C275 C277 1.419 . S
C275 H279 0.930 . S
C276 C275 1.369 . S
C276 C285 1.429 . S
C277 C275 1.419 . S
C277 C278 1.363 . S
C277 H280 0.929 . S
C278 C277 1.363 . S
C278 C284 1.428 . S
H279 C275 0.930 . S
H280 C277 0.929 . S
S281 N282 1.613 . S
S281 N283 1.610 . S
N282 S281 1.613 . S
N282 C285 1.350 . S
N283 S281 1.610 . S
N283 C284 1.351 . S
C284 C278 1.428 . S
C284 N283 1.351 . S
C284 C285 1.434 . S
C285 C276 1.429 . S
C285 N282 1.350 . S
C285 C284 1.434 . S
C286 C287 1.369 . S
C286 C288 1.419 . S
C286 H290 0.930 . S
C287 C286 1.369 . S
C287 C296 1.429 . S
C288 C286 1.419 . S
C288 C289 1.363 . S
C288 H291 0.929 . S
C289 C288 1.363 . S
C289 C295 1.428 . S
H290 C286 0.930 . S
H291 C288 0.929 . S
S292 N293 1.613 . S
S292 N294 1.610 . S
N293 S292 1.613 . S
N293 C296 1.350 . S
N294 S292 1.610 . S
N294 C295 1.351 . S
C295 C289 1.428 . S
C295 N294 1.351 . S
C295 C296 1.434 . S
C296 C287 1.429 . S
C296 N293 1.350 . S
C296 C295 1.434 . S
C297 C298 1.369 . S
C297 C299 1.419 . S
C297 H301 0.930 . S
C298 C297 1.369 . S
C298 C307 1.429 . S
C299 C297 1.419 . S
C299 C300 1.363 . S
C299 H302 0.929 . S
C300 C299 1.363 . S
C300 C306 1.428 . S
H301 C297 0.930 . S
H302 C299 0.929 . S
S303 N304 1.613 . S
S303 N305 1.610 . S
N304 S303 1.613 . S
N304 C307 1.350 . S
N305 S303 1.610 . S
N305 C306 1.351 . S
C306 C300 1.428 . S
C306 N305 1.351 . S
C306 C307 1.434 . S
C307 C298 1.429 . S
C307 N304 1.350 . S
C307 C306 1.434 . S
C308 C309 1.369 . S
C308 C310 1.419 . S
C308 H312 0.930 . S
C309 C308 1.369 . S
C309 C318 1.429 . S
C310 C308 1.419 . S
C310 C311 1.363 . S
C310 H313 0.929 . S
C311 C310 1.363 . S
C311 C317 1.428 . S
H312 C308 0.930 . S
H313 C310 0.929 . S
S314 N315 1.613 . S
S314 N316 1.610 . S
N315 S314 1.613 . S
N315 C318 1.350 . S
N316 S314 1.610 . S
N316 C317 1.351 . S
C317 C311 1.428 . S
C317 N316 1.351 . S
C317 C318 1.434 . S
C318 C309 1.429 . S
C318 N315 1.350 . S
C318 C317 1.434 . S
C319 C320 1.369 . S
C319 C321 1.419 . S
C319 H323 0.930 . S
C320 C319 1.369 . S
C320 C329 1.429 . S
C321 C319 1.419 . S
C321 C322 1.363 . S
C321 H324 0.929 . S
C322 C321 1.363 . S
C322 C328 1.428 . S
H323 C319 0.930 . S
H324 C321 0.929 . S
S325 N326 1.613 . S
S325 N327 1.610 . S
N326 S325 1.613 . S
N326 C329 1.350 . S
N327 S325 1.610 . S
N327 C328 1.351 . S
C328 C322 1.428 . S
C328 N327 1.351 . S
C328 C329 1.434 . S
C329 C320 1.429 . S
C329 N326 1.350 . S
C329 C328 1.434 . S
C330 C331 1.369 1_655 S
C330 C332 1.419 1_554 S
C330 H334 0.930 . S
C331 C330 1.369 1_455 S
C331 C340 1.429 . S
C332 C330 1.419 1_556 S
C332 C333 1.363 1_655 S
C332 H335 0.929 . S
C333 C332 1.363 1_455 S
C333 C339 1.428 1_556 S
H334 C330 0.930 . S
H335 C332 0.929 . S
S336 N337 1.613 . S
S336 N338 1.610 1_554 S
N337 S336 1.613 . S
N337 C340 1.350 . S
N338 S336 1.610 1_556 S
N338 C339 1.351 1_556 S
C339 C333 1.428 1_554 S
C339 N338 1.351 1_554 S
C339 C340 1.434 . S
C340 C331 1.429 . S
C340 N337 1.350 . S
C340 C339 1.434 . S
C341 C342 1.369 1_565 S
C341 C343 1.419 . S
C341 H345 0.930 . S
C342 C341 1.369 1_545 S
C342 C351 1.429 . S
C343 C341 1.419 . S
C343 C344 1.363 1_565 S
C343 H346 0.929 . S
C344 C343 1.363 1_545 S
C344 C350 1.428 . S
H345 C341 0.930 . S
H346 C343 0.929 . S
S347 N348 1.613 . S
S347 N349 1.610 . S
N348 S347 1.613 . S
N348 C351 1.350 . S
N349 S347 1.610 . S
N349 C350 1.351 . S
C350 C344 1.428 . S
C350 N349 1.351 . S
C350 C351 1.434 . S
C351 C342 1.429 . S
C351 N348 1.350 . S
C351 C350 1.434 . S
C352 C353 1.369 . S
C352 C354 1.419 . S
C352 H356 0.930 . S
C353 C352 1.369 . S
C353 C362 1.429 . S
C354 C352 1.419 . S
C354 C355 1.363 . S
C354 H357 0.929 . S
C355 C354 1.363 . S
C355 C361 1.428 . S
H356 C352 0.930 . S
H357 C354 0.929 . S
S358 N359 1.613 . S
S358 N360 1.610 . S
N359 S358 1.613 . S
N359 C362 1.350 . S
N360 S358 1.610 . S
N360 C361 1.351 . S
C361 C355 1.428 . S
C361 N360 1.351 . S
C361 C362 1.434 . S
C362 C353 1.429 . S
C362 N359 1.350 . S
C362 C361 1.434 . S
C363 C364 1.369 . S
C363 C365 1.419 . S
C363 H367 0.930 . S
C364 C363 1.369 . S
C364 C373 1.429 1_545 S
C365 C363 1.419 . S
C365 C366 1.363 1_545 S
C365 H368 0.929 . S
C366 C365 1.363 1_565 S
C366 C372 1.428 . S
H367 C363 0.930 . S
H368 C365 0.929 . S
S369 N370 1.613 . S
S369 N371 1.610 . S
N370 S369 1.613 . S
N370 C373 1.350 . S
N371 S369 1.610 . S
N371 C372 1.351 . S
C372 C366 1.428 . S
C372 N371 1.351 . S
C372 C373 1.434 . S
C373 C364 1.429 1_565 S
C373 N370 1.350 . S
C373 C372 1.434 . S
C374 C375 1.369 . S
C374 C376 1.419 1_556 S
C374 H378 0.930 . S
C375 C374 1.369 . S
C375 C384 1.429 . S
C376 C374 1.419 1_554 S
C376 C377 1.363 . S
C376 H379 0.929 . S
C377 C376 1.363 . S
C377 C383 1.428 1_554 S
H378 C374 0.930 . S
H379 C376 0.929 . S
S380 N381 1.613 . S
S380 N382 1.610 1_556 S
N381 S380 1.613 . S
N381 C384 1.350 . S
N382 S380 1.610 1_554 S
N382 C383 1.351 1_554 S
C383 C377 1.428 1_556 S
C383 N382 1.351 1_556 S
C383 C384 1.434 . S
C384 C375 1.429 . S
C384 N381 1.350 . S
C384 C383 1.434 . S
C385 C386 1.369 . S
C385 C387 1.419 . S
C385 H389 0.930 . S
C386 C385 1.369 . S
C386 C395 1.429 1_455 S
C387 C385 1.419 . S
C387 C388 1.363 . S
C387 H390 0.929 . S
C388 C387 1.363 . S
C388 C394 1.428 1_455 S
H389 C385 0.930 . S
H390 C387 0.929 . S
S391 N392 1.613 . S
S391 N393 1.610 . S
N392 S391 1.613 . S
N392 C395 1.350 . S
N393 S391 1.610 . S
N393 C394 1.351 . S
C394 C388 1.428 1_655 S
C394 N393 1.351 . S
C394 C395 1.434 . S
C395 C386 1.429 1_655 S
C395 N392 1.350 . S
C395 C394 1.434 . S
C199 C9 0.761 . S
C201 C189 0.792 . S
C210 C49 0.594 . S
C212 C167 0.537 . S
C221 C89 0.564 . S
C223 C180 0.561 . S
C232 C26 0.691 . S
C234 C193 0.617 . S
C245 C163 0.929 . S
C243 C66 0.823 . S
C256 C176 0.986 . S
C254 C106 0.855 . S
C265 C43 2.979 . S
C267 C141 2.939 . S
C276 C83 3.049 . S
C278 C154 2.996 . S
C287 C22 3.174 . S
C289 C124 2.939 . S
C300 C137 2.964 . S
C298 C62 3.186 . S
C311 C150 2.910 . S
C309 C102 3.107 . S
C320 C3 2.990 . S
C322 C128 2.959 . S
C333 C155 1.782 . S
C331 C15 1.729 . S
C342 C55 1.731 . S
C344 C129 1.811 . S
C353 C95 1.732 . S
C355 C142 1.811 . S
C366 C181 1.184 . S
C364 C42 1.197 . S
C377 C194 1.186 . S
C375 C82 1.197 . S
C386 C2 1.149 . S
C388 C168 1.149 . S
