# Generated by pormake.
# Topology anh, (6,3)-cn, num edge types: 1
# Building blocks:
#     Node 0, Type 0, BuildingBlock: HISSIN_clean_sbu_0, # of connection points: 6
#     Node 1, Type 0, BuildingBlock: HISSIN_clean_sbu_0, # of connection points: 6
#     Node 2, Type 0, BuildingBlock: HISSIN_clean_sbu_0, # of connection points: 6
#     Node 3, Type 1, BuildingBlock: MIDCAF_clean_linker_0, # of connection points: 3
#     Node 4, Type 1, BuildingBlock: MIDCAF_clean_linker_0, # of connection points: 3
#     Node 5, Type 1, BuildingBlock: MIDCAF_clean_linker_0, # of connection points: 3
#     Node 6, Type 1, BuildingBlock: MIDCAF_clean_linker_0, # of connection points: 3
#     Node 7, Type 1, BuildingBlock: MIDCAF_clean_linker_0, # of connection points: 3
#     Node 8, Type 1, BuildingBlock: MIDCAF_clean_linker_0, # of connection points: 3
#     Edge 9, Type (0, 1), BuildingBlock: ZUJKAS_clean_linker_0, # of connection points: 2
#     Edge 10, Type (0, 1), BuildingBlock: ZUJKAS_clean_linker_0, # of connection points: 2
#     Edge 11, Type (0, 1), BuildingBlock: ZUJKAS_clean_linker_0, # of connection points: 2
#     Edge 12, Type (0, 1), BuildingBlock: ZUJKAS_clean_linker_0, # of connection points: 2
#     Edge 13, Type (0, 1), BuildingBlock: ZUJKAS_clean_linker_0, # of connection points: 2
#     Edge 14, Type (0, 1), BuildingBlock: ZUJKAS_clean_linker_0, # of connection points: 2
#     Edge 15, Type (0, 1), BuildingBlock: ZUJKAS_clean_linker_0, # of connection points: 2
#     Edge 16, Type (0, 1), BuildingBlock: ZUJKAS_clean_linker_0, # of connection points: 2
#     Edge 17, Type (0, 1), BuildingBlock: ZUJKAS_clean_linker_0, # of connection points: 2
#     Edge 18, Type (0, 1), BuildingBlock: ZUJKAS_clean_linker_0, # of connection points: 2
#     Edge 19, Type (0, 1), BuildingBlock: ZUJKAS_clean_linker_0, # of connection points: 2
#     Edge 20, Type (0, 1), BuildingBlock: ZUJKAS_clean_linker_0, # of connection points: 2
#     Edge 21, Type (0, 1), BuildingBlock: ZUJKAS_clean_linker_0, # of connection points: 2
#     Edge 22, Type (0, 1), BuildingBlock: ZUJKAS_clean_linker_0, # of connection points: 2
#     Edge 23, Type (0, 1), BuildingBlock: ZUJKAS_clean_linker_0, # of connection points: 2
#     Edge 24, Type (0, 1), BuildingBlock: ZUJKAS_clean_linker_0, # of connection points: 2
#     Edge 25, Type (0, 1), BuildingBlock: ZUJKAS_clean_linker_0, # of connection points: 2
#     Edge 26, Type (0, 1), BuildingBlock: ZUJKAS_clean_linker_0, # of connection points: 2
# Relax obj value: 0.202
# Max RMSD: 0.183
# Mean RMSD: 0.150
data_MOF--net-anh--node1-HISSIN_clean_sbu_0--node2-MIDCAF_clean_linker_0--edge1-ZUJKAS_clean_linker_0
_symmetry_space_group_name_H-M    P1
_symmetry_Int_Tables_number       1
_symmetry_cell_setting            triclinic
loop_
_symmetry_equiv_pos_as_xyz
'x, y, z'
_cell_length_a     45.584592
_cell_length_b     45.614901
_cell_length_c     82.072115
_cell_angle_alpha  92.524518
_cell_angle_beta   90.700669
_cell_angle_gamma 119.82891
loop_
_atom_site_label
_atom_site_type_symbol
_atom_site_fract_x
_atom_site_fract_y
_atom_site_fract_z
_atom_type_partial_charge
Eu0 Eu 1.04762 0.49757 0.17029 0.0
Eu1 Eu 0.08917 0.57939 0.1738 0.0
C2 C 0.06761 0.53625 0.20549 0.0
C3 C 0.97398 0.41528 0.15873 0.0
C4 C 0.94926 0.38465 0.16459 0.0
C5 C 0.93019 0.42064 0.14429 0.0
C6 C 0.91504 0.37254 0.16068 0.0
C7 C 0.96428 0.43265 0.14816 0.0
C8 C 0.90517 0.39112 0.15098 0.0
C9 C 1.00851 0.43255 0.16596 0.0
O10 O 0.13115 0.5656 0.17485 0.0
O11 O 0.10189 0.50902 0.16667 0.0
C12 C 0.13076 0.53728 0.17016 0.0
O13 O 1.04464 0.51656 0.14579 0.0
O14 O 0.12578 0.62675 0.18673 0.0
O15 O 0.09986 0.62766 0.16459 0.0
O16 O 0.09562 0.56469 0.14828 0.0
C17 C 0.07057 0.54126 0.13913 0.0
O18 O 1.00608 0.5114 0.17343 0.0
O19 O 1.03502 0.56724 0.16755 0.0
O20 O 0.06839 0.56198 0.19855 0.0
O21 O 1.03256 0.45028 0.15612 0.0
O22 O 1.01184 0.44916 0.17986 0.0
O23 O 0.06723 0.51146 0.19656 0.0
C24 C 0.15705 0.66824 0.16837 0.0
C25 C 0.16726 0.7025 0.16729 0.0
C26 C 0.20865 0.67747 0.15581 0.0
C27 C 0.19828 0.72431 0.16065 0.0
C28 C 0.17759 0.65572 0.16234 0.0
C29 C 0.21955 0.71211 0.15506 0.0
C30 C 0.12459 0.64521 0.17529 0.0
C31 C 1.0062 0.53933 0.16978 0.0
H32 H 0.95623 0.37125 0.17297 0.0
H33 H 0.92335 0.43532 0.1367 0.0
H34 H 0.89628 0.34991 0.16618 0.0
H35 H 0.98291 0.45663 0.14367 0.0
H36 H 0.15137 0.71239 0.17166 0.0
H37 H 0.22454 0.6673 0.15184 0.0
H38 H 0.20571 0.75076 0.16001 0.0
H39 H 0.16979 0.62915 0.16287 0.0
Eu40 Eu 0.582 1.02478 0.50357 0.0
Eu41 Eu 0.53996 0.06494 0.50503 0.0
C42 C 0.56366 0.04675 0.53788 0.0
C43 C 0.61008 0.95979 0.4952 0.0
C44 C 0.57739 0.93187 0.49252 0.0
C45 C 0.63388 0.92577 0.48504 0.0
C46 C 0.57303 0.90074 0.48652 0.0
C47 C 0.6382 0.95676 0.49114 0.0
C48 C 0.60129 0.89728 0.48298 0.0
C49 C 0.61539 0.9921 0.50242 0.0
O50 O 0.59529 0.10755 0.50755 0.0
O51 O 0.62219 0.07905 0.49871 0.0
C52 C 0.62277 0.10775 0.5025 0.0
O53 O 0.55976 1.01835 0.47824 0.0
O54 O 0.52911 0.10187 0.51709 0.0
O55 O 0.50369 0.07689 0.49391 0.0
O56 O 0.55845 0.06762 0.47958 0.0
C57 C 0.55847 0.04272 0.47104 0.0
O58 O 0.52701 0.98174 0.50444 0.0
O59 O 0.4976 1.00998 0.50059 0.0
O60 O 0.53822 0.04696 0.53036 0.0
O61 O 0.61921 1.01461 0.49214 0.0
O62 O 0.59598 0.99046 0.51432 0.0
O63 O 0.58777 0.04622 0.52952 0.0
C64 C 0.52766 0.1363 0.49721 0.0
C65 C 0.5426 0.14113 0.48192 0.0
C66 C 0.55693 0.19719 0.50266 0.0
C67 C 0.56545 0.17362 0.47733 0.0
C68 C 0.53392 0.16467 0.50721 0.0
C69 C 0.57401 0.20191 0.48796 0.0
C70 C 0.51258 0.10287 0.50421 0.0
C71 C 0.49816 0.98148 0.50187 0.0
H72 H 0.55533 0.93394 0.49539 0.0
H73 H 0.65615 0.92376 0.48266 0.0
H74 H 0.54765 0.87924 0.48496 0.0
H75 H 0.66358 0.97817 0.49305 0.0
H76 H 0.53849 0.11977 0.47395 0.0
H77 H 0.56311 0.21836 0.51123 0.0
H78 H 0.57765 0.17643 0.46581 0.0
H79 H 0.52307 0.16157 0.51912 0.0
Eu80 Eu 0.54118 0.53168 0.83435 0.0
Eu81 Eu 0.62297 0.57357 0.83869 0.0
C82 C 0.57771 0.5566 0.87074 0.0
C83 C 0.45732 0.52484 0.83303 0.0
C84 C 0.46152 0.54313 0.84795 0.0
C85 C 0.4294 0.55296 0.82123 0.0
C86 C 0.45041 0.56658 0.84937 0.0
C87 C 0.44027 0.52924 0.81985 0.0
C88 C 0.43522 0.57258 0.83589 0.0
C89 C 0.47636 0.50689 0.83018 0.0
O90 O 0.60952 0.51828 0.83305 0.0
O91 O 0.55271 0.48908 0.83793 0.0
C92 C 0.58134 0.48942 0.83509 0.0
O93 O 0.56008 0.52233 0.81054 0.0
O94 O 0.67062 0.58304 0.84999 0.0
O95 O 0.67125 0.61232 0.82985 0.0
O96 O 0.60959 0.57227 0.81217 0.0
C97 C 0.58648 0.5458 0.80357 0.0
O98 O 0.55716 0.58668 0.82967 0.0
O99 O 0.60908 0.61501 0.84289 0.0
O100 O 0.60706 0.56462 0.86464 0.0
O101 O 0.49732 0.51824 0.81835 0.0
O102 O 0.48994 0.5015 0.84299 0.0
O103 O 0.55059 0.54741 0.86136 0.0
C104 C 0.71167 0.59489 0.83039 0.0
C105 C 0.74337 0.6203 0.82579 0.0
C106 C 0.72294 0.55226 0.81812 0.0
C107 C 0.76499 0.61173 0.81757 0.0
C108 C 0.70134 0.56088 0.8262 0.0
C109 C 0.75523 0.57754 0.81388 0.0
C110 C 0.68887 0.6037 0.83904 0.0
C111 C 0.58292 0.61516 0.83592 0.0
H112 H 0.47484 0.54059 0.85833 0.0
H113 H 0.41788 0.55701 0.81058 0.0
H114 H 0.45447 0.58059 0.86097 0.0
H115 H 0.43717 0.51578 0.80817 0.0
H116 H 0.75148 0.64672 0.82867 0.0
H117 H 0.71472 0.52569 0.81576 0.0
H118 H 0.78951 0.63184 0.81428 0.0
H119 H 0.67676 0.54087 0.82944 0.0
C120 C 0.5349 0.96204 0.20279 0.0
C121 C 0.52516 0.96194 0.18645 0.0
C122 C 0.52994 0.99229 0.18038 0.0
C123 C 0.5422 1.02148 0.19065 0.0
H124 H 0.55024 0.11501 0.19272 0.0
H125 H 0.5695 0.16724 0.17889 0.0
H126 H 0.62895 0.22468 0.22209 0.0
H127 H 0.60902 0.17239 0.23611 0.0
H128 H 0.60195 0.12782 0.26871 0.0
H129 H 0.60279 0.12295 0.29828 0.0
H130 H 0.54087 1.01438 0.2914 0.0
H131 H 0.54025 1.01897 0.26191 0.0
H132 H 0.55312 0.99008 0.22577 0.0
H133 H 0.53202 0.93919 0.20777 0.0
H134 H 0.5223 0.99308 0.16794 0.0
H135 H 0.54428 0.044 0.18566 0.0
N136 N 0.56414 0.08018 0.21244 0.0
N137 N 0.57504 0.10588 0.23887 0.0
N138 N 0.56153 0.04914 0.23485 0.0
C139 C 0.57207 0.10771 0.2225 0.0
C140 C 0.56948 0.07648 0.24513 0.0
C141 C 0.55908 0.0509 0.21847 0.0
C142 C 0.57881 0.13957 0.21538 0.0
C143 C 0.56691 0.13883 0.1994 0.0
C144 C 0.57783 0.16874 0.19147 0.0
C145 C 0.60117 0.20001 0.19929 0.0
C146 C 0.61079 0.201 0.21576 0.0
C147 C 0.59958 0.17101 0.22376 0.0
C148 C 0.57099 0.0738 0.26297 0.0
C149 C 0.58861 0.10291 0.2735 0.0
C150 C 0.58927 0.10016 0.29039 0.0
C151 C 0.57181 0.06831 0.29704 0.0
C152 C 0.55434 1.03923 0.28654 0.0
C153 C 0.55416 0.0419 0.26967 0.0
C154 C 0.54977 1.02098 0.20726 0.0
C155 C 0.54695 0.99121 0.21311 0.0
C156 C 0.76416 0.51412 0.55805 0.0
C157 C 0.76653 0.51281 0.54097 0.0
C158 C 0.76119 0.53529 0.53193 0.0
C159 C 0.75052 0.55612 0.53952 0.0
H160 H 0.69481 0.59632 0.52616 0.0
H161 H 0.6724 0.62108 0.50761 0.0
H162 H 0.6423 0.66116 0.54873 0.0
H163 H 0.66377 0.63546 0.56733 0.0
H164 H 0.6577 0.60018 0.60112 0.0
H165 H 0.63827 0.58985 0.62882 0.0
H166 H 0.69604 0.53975 0.63678 0.0
H167 H 0.71503 0.5494 0.60892 0.0
H168 H 0.74961 0.53364 0.57868 0.0
H169 H 0.76884 0.49766 0.56543 0.0
H170 H 0.76253 0.53496 0.51876 0.0
H171 H 0.74481 0.57163 0.53194 0.0
N172 N 0.71459 0.58649 0.55368 0.0
N173 N 0.68703 0.59584 0.57544 0.0
N174 N 0.71801 0.56807 0.57945 0.0
C175 C 0.69501 0.59891 0.55949 0.0
C176 C 0.69845 0.58049 0.58553 0.0
C177 C 0.72637 0.57121 0.56352 0.0
C178 C 0.68128 0.61406 0.54827 0.0
C179 C 0.68339 0.61038 0.53129 0.0
C180 C 0.67058 0.62463 0.52062 0.0
C181 C 0.65557 0.64313 0.52666 0.0
C182 C 0.65317 0.64656 0.54364 0.0
C183 C 0.66575 0.63207 0.55433 0.0
C184 C 0.68794 0.57559 0.6027 0.0
C185 C 0.66642 0.58704 0.60874 0.0
C186 C 0.65535 0.58125 0.62468 0.0
C187 C 0.66553 0.5639 0.63501 0.0
C188 C 0.68732 0.55274 0.62906 0.0
C189 C 0.69841 0.55852 0.6131 0.0
C190 C 0.74466 0.5548 0.55633 0.0
C191 C 0.75319 0.53481 0.56566 0.0
C192 C 0.99652 0.52607 0.87011 0.0
C193 C 0.99888 0.53538 0.85386 0.0
C194 C 1.02933 0.56272 0.84902 0.0
C195 C 1.05625 0.58114 0.86027 0.0
H196 H 0.15133 0.66297 0.86408 0.0
H197 H 0.20679 0.69339 0.85239 0.0
H198 H 0.25417 0.69905 0.89922 0.0
H199 H 0.19888 0.66928 0.91103 0.0
H200 H 0.15296 0.63239 0.94021 0.0
H201 H 0.1467 0.62065 0.96893 0.0
H202 H 1.03879 0.55633 0.96034 0.0
H203 H 1.04513 0.56723 0.93146 0.0
H204 H 1.0205 0.53722 0.89392 0.0
H205 H 0.97354 0.50489 0.87419 0.0
H206 H 1.03189 0.57102 0.83669 0.0
H207 H 0.07894 0.60258 0.85614 0.0
N208 N 0.11121 0.61883 0.88367 0.0
N209 N 0.13342 0.63206 0.91057 0.0
N210 N 0.0776 0.58832 0.90492 0.0
C211 C 0.13735 0.63808 0.89446 0.0
C212 C 0.10352 0.60739 0.91591 0.0
C213 C 0.08132 0.59387 0.88876 0.0
C214 C 0.17065 0.66282 0.88839 0.0
C215 C 0.17359 0.67139 0.872 0.0
C216 C 0.20536 0.68892 0.86529 0.0
C217 C 0.2348 0.69805 0.8748 0.0
C218 C 0.232 0.69252 0.89157 0.0
C219 C 0.2002 0.67514 0.89832 0.0
C220 C 0.09955 0.60075 0.93349 0.0
C221 C 0.12786 0.61579 0.94441 0.0
C222 C 0.12425 0.60918 0.96094 0.0
C223 C 0.09223 0.58759 0.96697 0.0
C224 C 0.06389 0.57268 0.95606 0.0
C225 C 0.06752 0.5791 0.9395 0.0
C226 C 1.05337 0.57284 0.8767 0.0
C227 C 1.02343 0.54466 0.88142 0.0
C228 C 0.17908 0.62963 0.46843 0.0
C229 C 0.17845 0.65499 0.47864 0.0
C230 C 0.14648 0.64772 0.48449 0.0
C231 C 0.11643 0.61683 0.47988 0.0
H232 H 0.99833 0.50575 0.48844 0.0
H233 H 0.94635 0.45573 0.49699 0.0
H234 H 0.94714 0.39878 0.45378 0.0
H235 H 0.99816 0.44748 0.44559 0.0
H236 H 1.00987 0.49228 0.41272 0.0
H237 H 1.011 0.49088 0.383 0.0
H238 H 0.11214 0.57713 0.38592 0.0
H239 H 0.11128 0.57841 0.4156 0.0
H240 H 0.1511 0.5814 0.45523 0.0
H241 H 0.20256 0.63381 0.46334 0.0
H242 H 0.1445 0.66614 0.49247 0.0
H243 H 0.09238 0.61302 0.48402 0.0
N244 N 1.05899 0.53818 0.46835 0.0
N245 N 1.0338 0.51163 0.44261 0.0
N246 N 0.08578 0.56184 0.444 0.0
C247 C 1.03267 0.5117 0.4592 0.0
C248 C 1.05989 0.53643 0.4349 0.0
C249 C 0.08594 0.56344 0.46058 0.0
C250 C 1.00303 0.48118 0.46627 0.0
C251 C 0.98768 0.48237 0.48094 0.0
C252 C 0.95748 0.45359 0.48574 0.0
C253 C 0.94193 0.42251 0.47618 0.0
C254 C 0.95797 0.42152 0.46177 0.0
C255 C 0.98756 0.44998 0.45696 0.0
C256 C 1.06047 0.53548 0.41669 0.0
C257 C 1.03241 0.51097 0.40707 0.0
C258 C 1.03296 0.51026 0.38998 0.0
C259 C 1.06165 0.53389 0.38201 0.0
C260 C 0.08975 0.55828 0.39161 0.0
C261 C 0.08914 0.55913 0.40869 0.0
C262 C 0.11729 0.59225 0.46917 0.0
C263 C 0.14926 0.5992 0.46375 0.0
C264 C 0.61031 0.16971 0.79939 0.0
C265 C 0.58832 0.17014 0.81121 0.0
C266 C 0.56698 0.13908 0.81836 0.0
C267 C 0.56711 0.1088 0.81351 0.0
H268 H 0.60423 1.01344 0.82165 0.0
H269 H 0.60435 0.9625 0.83055 0.0
H270 H 0.54883 0.90758 0.78616 0.0
H271 H 0.54808 0.95719 0.77767 0.0
H272 H 0.5795 1.00042 0.74518 0.0
H273 H 0.57712 0.99963 0.71542 0.0
H274 H 0.57526 0.09341 0.7181 0.0
H275 H 0.57735 0.09419 0.74778 0.0
H276 H 0.62668 0.14072 0.78487 0.0
H277 H 0.62682 0.1924 0.79325 0.0
H278 H 0.54978 0.13798 0.8276 0.0
H279 H 0.54938 0.08536 0.81877 0.0
N280 N 0.58193 0.04917 0.80068 0.0
N281 N 0.57766 1.02138 0.77504 0.0
N282 N 0.5832 0.0751 0.77621 0.0
C283 C 0.57867 1.02127 0.79164 0.0
C284 C 0.57986 0.04793 0.76721 0.0
C285 C 0.58419 0.0764 0.7928 0.0
C286 C 0.5761 0.98997 0.79888 0.0
C287 C 0.59152 0.99029 0.81397 0.0
C288 C 0.59191 0.96097 0.81897 0.0
C289 C 0.57655 0.9302 0.80917 0.0
C290 C 0.56053 0.93002 0.79435 0.0
C291 C 0.56034 0.95903 0.78936 0.0
C292 C 0.57859 0.04735 0.749 0.0
C293 C 0.57857 1.02091 0.73946 0.0
C294 C 0.5774 1.02053 0.72236 0.0
C295 C 0.57594 0.04643 0.71432 0.0
C296 C 0.57593 0.07282 0.72385 0.0
C297 C 0.57734 0.07334 0.74093 0.0
C298 C 0.58837 0.10853 0.80123 0.0
C299 C 0.61022 0.1397 0.79451 0.0
C300 C 0.68862 0.56501 0.12936 0.0
C301 C 0.68848 0.54539 0.14218 0.0
C302 C 0.6575 0.52691 0.15011 0.0
C303 C 0.62791 0.52785 0.14521 0.0
H304 H 0.50114 0.50595 0.14895 0.0
H305 H 0.44898 0.50469 0.15783 0.0
H306 H 0.47023 0.58755 0.12764 0.0
H307 H 0.52154 0.58866 0.11896 0.0
H308 H 0.52482 0.55329 0.0798 0.0
H309 H 0.52428 0.55531 0.05021 0.0
H310 H 0.61188 0.54236 0.04876 0.0
H311 H 0.61301 0.54127 0.07837 0.0
H312 H 0.66093 0.58054 0.11418 0.0
H313 H 0.71133 0.57929 0.12267 0.0
H314 H 0.65605 0.51159 0.1601 0.0
H315 H 0.60458 0.51272 0.15131 0.0
N316 N 0.57075 0.54452 0.13317 0.0
N317 N 0.5446 0.54646 0.1085 0.0
N318 N 0.59543 0.54577 0.10788 0.0
C319 C 0.54449 0.54551 0.12506 0.0
C320 C 0.56957 0.54623 0.09979 0.0
C321 C 0.59675 0.545 0.12443 0.0
C322 C 0.51614 0.54774 0.13337 0.0
C323 C 0.49508 0.52443 0.14457 0.0
C324 C 0.46478 0.52343 0.14947 0.0
C325 C 0.4548 0.54602 0.14352 0.0
C326 C 0.4767 0.56995 0.13278 0.0
C327 C 0.50642 0.57059 0.12775 0.0
C328 C 0.56899 0.54715 0.08161 0.0
C329 C 0.54402 0.55087 0.07321 0.0
C330 C 0.54358 0.55183 0.05615 0.0
C331 C 0.56802 0.54899 0.04695 0.0
C332 C 0.59293 0.54518 0.05537 0.0
C333 C 0.59345 0.54434 0.07242 0.0
C334 C 0.62821 0.54686 0.13203 0.0
C335 C 0.65929 0.56559 0.1244 0.0
H336 H 0.19633 0.59181 0.1721 0.0
H337 H 0.24969 0.59216 0.16804 0.0
H338 H 0.19488 0.48353 0.16046 0.0
H339 H 0.14146 0.48316 0.16397 0.0
H340 H 0.28396 0.56864 0.18307 0.0
H341 H 0.25099 0.50342 0.12171 0.0
H342 H 0.22485 0.51782 0.13147 0.0
H343 H 0.22167 0.47829 0.13649 0.0
C344 C 0.19546 0.5679 0.16951 0.0
C345 C 0.16401 0.53746 0.16829 0.0
C346 C 0.22629 0.56813 0.16718 0.0
C347 C 0.22702 0.53796 0.1635 0.0
C348 C 0.19565 0.50747 0.16269 0.0
H349 H 0.39151 0.48973 0.1476 0.0
H350 H 0.33758 0.48764 0.15294 0.0
C351 C 0.1648 0.50724 0.16489 0.0
C352 C 0.26039 0.53845 0.16086 0.0
H353 H 0.30107 0.51037 0.13481 0.0
C354 C 0.28754 0.55598 0.17243 0.0
C355 C 0.26593 0.5221 0.14702 0.0
C356 C 0.23946 0.50466 0.13339 0.0
C357 C 0.31907 0.55709 0.17076 0.0
C358 C 0.32447 0.54057 0.15699 0.0
C359 C 0.29736 0.52295 0.14545 0.0
C360 C 0.35809 0.54188 0.15417 0.0
C361 C 0.34618 0.57546 0.18404 0.0
C362 C 0.38828 0.57294 0.15296 0.0
C363 C 0.41931 0.5742 0.14988 0.0
C364 C 0.42158 0.54444 0.14788 0.0
C365 C 0.39135 0.51333 0.14925 0.0
C366 C 0.36019 0.51208 0.1522 0.0
H367 H 0.3354 0.57829 0.19568 0.0
H368 H 0.36038 0.56199 0.18627 0.0
H369 H 0.36432 0.60119 0.18025 0.0
H370 H 0.38784 0.59645 0.15412 0.0
H371 H 0.44169 0.59877 0.14907 0.0
H372 H 0.68487 0.11892 0.49206 0.0
H373 H 0.73684 0.17272 0.48863 0.0
H374 H 0.68691 0.22719 0.50485 0.0
H375 H 0.63478 0.17343 0.50836 0.0
H376 H 0.74934 0.22633 0.4687 0.0
H377 H 0.77458 0.27452 0.5336 0.0
H378 H 0.74778 0.23019 0.5276 0.0
H379 H 0.73224 0.25907 0.52556 0.0
C380 C 0.6848 0.14225 0.49504 0.0
C381 C 0.65517 0.14124 0.5007 0.0
C382 C 0.7148 0.17327 0.49302 0.0
C383 C 0.71662 0.20464 0.49672 0.0
C384 C 0.687 0.20377 0.50225 0.0
H385 H 0.88499 0.41797 0.49108 0.0
H386 H 0.83099 0.36693 0.49613 0.0
C387 C 0.65688 0.17271 0.5042 0.0
C388 C 0.74908 0.23784 0.49435 0.0
H389 H 0.81108 0.31104 0.51443 0.0
C390 C 0.76275 0.24472 0.47876 0.0
C391 C 0.76708 0.26244 0.50732 0.0
C392 C 0.755 0.25633 0.52451 0.0
C393 C 0.79312 0.27496 0.47577 0.0
C394 C 0.81149 0.2994 0.48877 0.0
C395 C 0.79754 0.29276 0.50435 0.0
C396 C 0.84542 0.33121 0.48645 0.0
C397 C 0.80481 0.28067 0.4585 0.0
C398 C 0.87265 0.32902 0.47978 0.0
C399 C 0.90369 0.35825 0.47692 0.0
C400 C 0.90916 0.39121 0.48068 0.0
C401 C 0.88231 0.39342 0.48799 0.0
C402 C 0.85108 0.36399 0.49084 0.0
H403 H 0.78348 0.26583 0.44948 0.0
H404 H 0.81682 0.30784 0.45589 0.0
H405 H 0.82366 0.2723 0.45671 0.0
H406 H 0.86999 0.30445 0.47673 0.0
H407 H 0.92359 0.35485 0.47174 0.0
H408 H 0.63229 0.68101 0.84569 0.0
H409 H 0.63136 0.73389 0.84267 0.0
H410 H 0.53216 0.6775 0.81919 0.0
H411 H 0.5326 0.62478 0.82252 0.0
H412 H 0.62898 0.76681 0.81723 0.0
H413 H 0.51304 0.73375 0.85061 0.0
H414 H 0.53295 0.70811 0.85084 0.0
H415 H 0.50538 0.70392 0.83389 0.0
C416 C 0.61008 0.67972 0.84001 0.0
C417 C 0.58247 0.64807 0.83447 0.0
C418 C 0.6096 0.71024 0.83822 0.0
C419 C 0.58142 0.71037 0.83094 0.0
C420 C 0.55397 0.67875 0.82529 0.0
H421 H 0.52777 0.86256 0.80318 0.0
H422 H 0.5306 0.81184 0.80857 0.0
C423 C 0.5544 0.64829 0.82709 0.0
C424 C 0.58114 0.74335 0.82883 0.0
H425 H 0.53399 0.78257 0.83502 0.0
C426 C 0.60827 0.77021 0.82129 0.0
C427 C 0.55427 0.74854 0.83398 0.0
C428 C 0.52495 0.7222 0.84293 0.0
C429 C 0.60882 0.80097 0.81836 0.0
C430 C 0.58182 0.80605 0.82339 0.0
C431 C 0.55484 0.77929 0.83106 0.0
C432 C 0.58044 0.83817 0.8204 0.0
C433 C 0.63793 0.82726 0.80927 0.0
C434 C 0.60707 0.87081 0.82548 0.0
C435 C 0.60565 0.90038 0.82225 0.0
C436 C 0.57745 0.89854 0.81386 0.0
C437 C 0.55041 0.86572 0.80929 0.0
C438 C 0.55186 0.83629 0.81252 0.0
H439 H 0.65093 0.81604 0.8022 0.0
H440 H 0.62924 0.83987 0.80075 0.0
H441 H 0.65676 0.84679 0.81817 0.0
H442 H 0.62915 0.87358 0.83201 0.0
H443 H 0.62712 0.92477 0.82603 0.0
H444 H 0.99525 0.59194 0.16241 0.0
H445 H 0.94152 0.59137 0.15878 0.0
H446 H 0.88704 0.48561 0.16846 0.0
H447 H 0.94067 0.48603 0.17223 0.0
H448 H 0.88949 0.55917 0.1374 0.0
H449 H 0.83834 0.5168 0.19805 0.0
H450 H 0.88152 0.52952 0.19349 0.0
H451 H 0.84779 0.48776 0.18714 0.0
C452 C 0.97192 0.5685 0.1639 0.0
C453 C 0.97288 0.53913 0.16781 0.0
C454 C 0.94091 0.56818 0.16176 0.0
C455 C 0.90953 0.53858 0.16357 0.0
C456 C 0.91044 0.50913 0.16734 0.0
H457 H 0.69525 0.4911 0.15194 0.0
H458 H 0.74737 0.48889 0.157 0.0
C459 C 0.94144 0.50939 0.16944 0.0
C460 C 0.87623 0.53844 0.16097 0.0
H461 H 0.80073 0.51879 0.17843 0.0
C462 C 0.87028 0.55047 0.14648 0.0
C463 C 0.85038 0.52685 0.17258 0.0
C464 C 0.85486 0.51479 0.18875 0.0
C465 C 0.83984 0.55091 0.14322 0.0
C466 C 0.81419 0.53982 0.15492 0.0
C467 C 0.81994 0.52743 0.16935 0.0
C468 C 0.78175 0.54138 0.15248 0.0
C469 C 0.83519 0.56242 0.12692 0.0
C470 C 0.78278 0.57173 0.14872 0.0
C471 C 0.75287 0.57305 0.14581 0.0
C472 C 0.72045 0.54415 0.1467 0.0
C473 C 0.71938 0.51404 0.15113 0.0
C474 C 0.74944 0.51271 0.15398 0.0
H475 H 0.85105 0.55935 0.11758 0.0
H476 H 0.80836 0.54809 0.1224 0.0
H477 H 0.84307 0.5897 0.12821 0.0
H478 H 0.80689 0.59472 0.14803 0.0
H479 H 0.7553 0.59705 0.14288 0.0
H480 H 0.4325 0.96958 0.4981 0.0
H481 H 0.37936 0.91544 0.49516 0.0
H482 H 0.43498 0.86218 0.49803 0.0
H483 H 0.48808 0.91619 0.50137 0.0
H484 H 0.35307 0.86435 0.47301 0.0
H485 H 0.36565 0.81112 0.53015 0.0
H486 H 0.3936 0.8547 0.52587 0.0
H487 H 0.40062 0.82179 0.51725 0.0
C488 C 0.43359 0.94642 0.49825 0.0
C489 C 0.46514 0.94785 0.50016 0.0
C490 C 0.40289 0.91517 0.49651 0.0
C491 C 0.40233 0.88396 0.49667 0.0
C492 C 0.4339 0.88536 0.49834 0.0
H493 H 0.2446 0.6683 0.48333 0.0
H494 H 0.29684 0.72278 0.48745 0.0
C495 C 0.46461 0.91661 0.50014 0.0
C496 C 0.36905 0.85035 0.49467 0.0
H497 H 0.32161 0.7731 0.51126 0.0
C498 C 0.34626 0.84461 0.48151 0.0
C499 C 0.35938 0.82391 0.50559 0.0
C500 C 0.38091 0.82824 0.52059 0.0
C501 C 0.31522 0.81366 0.47878 0.0
C502 C 0.30567 0.78718 0.48964 0.0
C503 C 0.3284 0.79291 0.50282 0.0
C504 C 0.27274 0.75335 0.4874 0.0
C505 C 0.29343 0.80933 0.46388 0.0
C506 C 0.24081 0.75131 0.4863 0.0
C507 C 0.21049 0.71979 0.48387 0.0
C508 C 0.21078 0.68893 0.48245 0.0
C509 C 0.24277 0.69108 0.484 0.0
C510 C 0.273 0.72254 0.48649 0.0
H511 H 0.30819 0.82727 0.45451 0.0
H512 H 0.28166 0.78314 0.4583 0.0
H513 H 0.27293 0.81441 0.46748 0.0
H514 H 0.23921 0.7742 0.48734 0.0
H515 H 0.18681 0.71978 0.48271 0.0
H516 H 0.63504 0.47862 0.82882 0.0
H517 H 0.63504 0.42495 0.82555 0.0
H518 H 0.52849 0.37044 0.83451 0.0
H519 H 0.52822 0.42396 0.83758 0.0
H520 H 0.62145 0.37446 0.84565 0.0
H521 H 0.52852 0.31908 0.79348 0.0
H522 H 0.54725 0.36299 0.80046 0.0
H523 H 0.51254 0.33076 0.81097 0.0
C524 C 0.61148 0.4553 0.83008 0.0
C525 C 0.58159 0.4562 0.83342 0.0
C526 C 0.61153 0.42433 0.8282 0.0
C527 C 0.58164 0.39294 0.82942 0.0
C528 C 0.55187 0.39381 0.83302 0.0
H529 H 0.5334 0.17835 0.81922 0.0
H530 H 0.53184 0.23097 0.82434 0.0
C531 C 0.55181 0.42476 0.83492 0.0
C532 C 0.58185 0.35966 0.82725 0.0
H533 H 0.54452 0.28257 0.80556 0.0
C534 C 0.60465 0.35452 0.8368 0.0
C535 C 0.56 0.33299 0.8158 0.0
C536 C 0.53591 0.33673 0.80448 0.0
C537 C 0.60582 0.32395 0.83548 0.0
C538 C 0.58414 0.29737 0.82395 0.0
C539 C 0.56121 0.30244 0.81445 0.0
C540 C 0.5853 0.26463 0.82133 0.0
C541 C 0.62982 0.32023 0.84688 0.0
C542 C 0.6157 0.26506 0.81782 0.0
C543 C 0.61673 0.23482 0.81501 0.0
C544 C 0.5873 0.20262 0.8154 0.0
C545 C 0.55683 0.2022 0.81899 0.0
C546 C 0.55584 0.23258 0.8218 0.0
H547 H 0.63602 0.33698 0.85815 0.0
H548 H 0.61903 0.29371 0.85044 0.0
H549 H 0.65382 0.32761 0.84069 0.0
H550 H 0.63885 0.28897 0.81695 0.0
H551 H 0.6409 0.23684 0.81249 0.0
H552 H 0.56157 0.83886 0.49778 0.0
H553 H 0.56512 0.78722 0.49578 0.0
H554 H 0.6362 0.82772 0.45748 0.0
H555 H 0.63302 0.87985 0.45952 0.0
H556 H 0.55925 0.73731 0.47143 0.0
H557 H 0.6914 0.82185 0.49593 0.0
H558 H 0.66083 0.83589 0.49498 0.0
H559 H 0.68028 0.83193 0.47674 0.0
C560 C 0.5771 0.83637 0.48855 0.0
C561 C 0.59747 0.86357 0.47899 0.0
C562 C 0.5791 0.80683 0.48742 0.0
C563 C 0.60142 0.80402 0.47671 0.0
C564 C 0.61928 0.82974 0.46602 0.0
H565 H 0.68621 0.67597 0.49939 0.0
H566 H 0.67041 0.70913 0.48259 0.0
C567 C 0.61749 0.85945 0.46722 0.0
C568 C 0.60964 0.77686 0.47873 0.0
H569 H 0.67094 0.76384 0.49517 0.0
C570 C 0.58384 0.74298 0.47633 0.0
C571 C 0.64177 0.78445 0.48514 0.0
C572 C 0.67017 0.82044 0.48848 0.0
C573 C 0.58898 0.71645 0.48078 0.0
C574 C 0.62049 0.72421 0.48806 0.0
C575 C 0.64681 0.75796 0.48956 0.0
C576 C 0.62593 0.69866 0.49596 0.0
C577 C 0.56043 0.68049 0.47796 0.0
C578 C 0.60581 0.68125 0.50888 0.0
C579 C 0.61457 0.66198 0.51843 0.0
C580 C 0.64391 0.66015 0.51537 0.0
C581 C 0.66324 0.6765 0.50199 0.0
C582 C 0.65432 0.69557 0.49239 0.0
H583 H 0.54376 0.67801 0.46737 0.0
H584 H 0.57008 0.66265 0.47578 0.0
H585 H 0.54475 0.67307 0.48888 0.0
H586 H 0.58427 0.68392 0.51214 0.0
H587 H 0.59888 0.64931 0.52849 0.0
H588 H 0.82265 0.60705 0.8216 0.0
H589 H 0.86032 0.5856 0.81479 0.0
H590 H 0.78091 0.50361 0.78492 0.0
H591 H 0.74278 0.52549 0.79147 0.0
H592 H 0.80569 0.48081 0.80789 0.0
H593 H 0.91361 0.5797 0.77734 0.0
H594 H 0.9042 0.5994 0.79425 0.0
H595 H 0.87313 0.578 0.77772 0.0
C596 C 0.81343 0.58527 0.81304 0.0
C597 C 0.77958 0.56792 0.80718 0.0
C598 C 0.83514 0.57303 0.80909 0.0
C599 C 0.82362 0.54325 0.79914 0.0
C600 C 0.79038 0.52679 0.79251 0.0
H601 H 0.99538 0.51928 0.82089 0.0
H602 H 0.94844 0.50666 0.8017 0.0
C603 C 0.76859 0.53918 0.7964 0.0
C604 C 0.84468 0.52692 0.79832 0.0
H605 H 0.92822 0.55086 0.79851 0.0
C606 C 0.83228 0.49547 0.80523 0.0
C607 C 0.87905 0.5452 0.79432 0.0
C608 C 0.89307 0.57726 0.7853 0.0
C609 C 0.85443 0.48459 0.81058 0.0
C610 C 0.88964 0.50608 0.80926 0.0
C611 C 0.90128 0.53471 0.79999 0.0
C612 C 0.91446 0.50435 0.82041 0.0
C613 C 0.84011 0.45152 0.81875 0.0
C614 C 0.91061 0.50624 0.83731 0.0
C615 C 0.93734 0.51372 0.84825 0.0
C616 C 0.96867 0.51976 0.84252 0.0
C617 C 0.97169 0.51528 0.82566 0.0
C618 C 0.94484 0.5078 0.81468 0.0
H619 H 0.81581 0.43233 0.81256 0.0
H620 H 0.85793 0.44155 0.81869 0.0
H621 H 0.83468 0.45529 0.83158 0.0
H622 H 0.88789 0.50478 0.84207 0.0
H623 H 0.9342 0.51749 0.86109 0.0
H624 H 0.25366 0.70253 0.12977 0.0
H625 H 0.31317 0.73936 0.12341 0.0
H626 H 0.32251 0.81143 0.16184 0.0
H627 H 0.26385 0.77493 0.16845 0.0
H628 H 0.35378 0.8398 0.13129 0.0
H629 H 0.39018 0.74954 0.15561 0.0
H630 H 0.35747 0.73541 0.1398 0.0
H631 H 0.34981 0.7458 0.16004 0.0
C632 C 0.26842 0.72634 0.1368 0.0
C633 C 0.25405 0.73574 0.14968 0.0
C634 C 0.30229 0.74732 0.13309 0.0
C635 C 0.32214 0.77793 0.14222 0.0
C636 C 0.30746 0.78796 0.15458 0.0
H637 H 0.47615 0.90174 0.19674 0.0
H638 H 0.43481 0.85327 0.17993 0.0
C639 C 0.27383 0.7671 0.1583 0.0
C640 C 0.35891 0.79892 0.1402 0.0
H641 H 0.43234 0.80654 0.15553 0.0
C642 C 0.37137 0.8324 0.13597 0.0
C643 C 0.38155 0.78885 0.14619 0.0
C644 C 0.36933 0.75298 0.15071 0.0
C645 C 0.40516 0.85716 0.13955 0.0
C646 C 0.42695 0.84782 0.14735 0.0
C647 C 0.41548 0.81352 0.14961 0.0
C648 C 0.45723 0.87339 0.15702 0.0
C649 C 0.41611 0.89362 0.13673 0.0
C650 C 0.48469 0.90007 0.14978 0.0
C651 C 0.50864 0.92811 0.15946 0.0
C652 C 0.50546 0.92966 0.17649 0.0
C653 C 0.47968 0.90139 0.18372 0.0
C654 C 0.45586 0.87358 0.17408 0.0
H655 H 0.39527 0.8966 0.13142 0.0
H656 H 0.42529 0.9092 0.14841 0.0
H657 H 0.43722 0.90374 0.12822 0.0
H658 H 0.4865 0.90009 0.13663 0.0
H659 H 0.52864 0.94926 0.15356 0.0
H660 H 0.63472 0.21601 0.47517 0.0
H661 H 0.68556 0.27142 0.47406 0.0
H662 H 0.63105 0.31895 0.49372 0.0
H663 H 0.57967 0.26406 0.49376 0.0
H664 H 0.67572 0.35757 0.472 0.0
H665 H 0.73975 0.31468 0.5155 0.0
H666 H 0.72646 0.29327 0.49565 0.0
H667 H 0.69533 0.28876 0.51009 0.0
C668 C 0.63323 0.23836 0.47873 0.0
C669 C 0.60317 0.23557 0.48478 0.0
C670 C 0.66254 0.27001 0.47832 0.0
C671 C 0.66242 0.29927 0.48424 0.0
C672 C 0.63186 0.2967 0.48919 0.0
H673 H 0.73546 0.44712 0.54906 0.0
H674 H 0.72475 0.39839 0.53163 0.0
C675 C 0.60253 0.26524 0.48938 0.0
C676 C 0.69407 0.33224 0.48705 0.0
H677 H 0.76077 0.37243 0.51462 0.0
C678 C 0.69502 0.36095 0.48095 0.0
C679 C 0.7196 0.3365 0.49851 0.0
C680 C 0.72039 0.30678 0.50541 0.0
C681 C 0.71782 0.39355 0.48761 0.0
C682 C 0.74076 0.3974 0.50042 0.0
C683 C 0.74291 0.36919 0.50489 0.0
C684 C 0.75516 0.42745 0.51201 0.0
C685 C 0.71454 0.42302 0.48217 0.0
C686 C 0.77751 0.46012 0.50718 0.0
C687 C 0.78392 0.48841 0.51728 0.0
C688 C 0.76807 0.48431 0.53231 0.0
C689 C 0.74844 0.45146 0.53769 0.0
C690 C 0.74211 0.42339 0.52766 0.0
H691 H 0.69402 0.41519 0.47268 0.0
H692 H 0.70923 0.43548 0.49274 0.0
H693 H 0.73868 0.44199 0.47707 0.0
H694 H 0.78839 0.46375 0.49528 0.0
H695 H 0.79972 0.51341 0.51292 0.0
H696 H 0.37906 0.57142 0.8228 0.0
H697 H 0.36271 0.61468 0.82633 0.0
H698 H 0.45379 0.67791 0.85566 0.0
H699 H 0.4712 0.6354 0.85164 0.0
H700 H 0.39319 0.66266 0.87069 0.0
H701 H 0.39635 0.71024 0.80957 0.0
H702 H 0.37629 0.66491 0.80923 0.0
H703 H 0.42046 0.69023 0.81516 0.0
C704 C 0.39613 0.59489 0.82961 0.0
C705 C 0.42626 0.59974 0.83708 0.0
C706 C 0.38681 0.61968 0.83156 0.0
C707 C 0.40738 0.64971 0.84101 0.0
C708 C 0.43785 0.65506 0.84815 0.0
H709 H 0.29982 0.74619 0.88488 0.0
H710 H 0.35194 0.74872 0.87552 0.0
C711 C 0.44743 0.63049 0.84604 0.0
C712 C 0.39437 0.67281 0.84531 0.0
H713 H 0.3573 0.71377 0.82827 0.0
C714 C 0.38617 0.67479 0.86155 0.0
C715 C 0.38557 0.68867 0.83333 0.0
C716 C 0.39543 0.68874 0.81586 0.0
C717 C 0.36613 0.68906 0.86588 0.0
C718 C 0.35492 0.70259 0.85363 0.0
C719 C 0.36589 0.7034 0.83764 0.0
C720 C 0.32657 0.70908 0.85644 0.0
C721 C 0.35453 0.68644 0.8832 0.0
C722 C 0.29566 0.68812 0.84791 0.0
C723 C 0.26616 0.68699 0.85304 0.0
C724 C 0.26695 0.70674 0.86686 0.0
C725 C 0.29843 0.73028 0.87437 0.0
C726 C 0.32815 0.73169 0.86907 0.0
H727 H 0.36177 0.6709 0.89049 0.0
H728 H 0.36622 0.71212 0.88934 0.0
H729 H 0.32661 0.67504 0.8833 0.0
H730 H 0.29382 0.6705 0.83811 0.0
H731 H 0.24238 0.66838 0.84703 0.0
H732 H 0.87948 0.43361 0.1544 0.0
H733 H 0.82016 0.4179 0.15742 0.0
H734 H 0.79039 0.31279 0.14815 0.0
H735 H 0.84965 0.3283 0.14504 0.0
H736 H 0.74487 0.3419 0.13401 0.0
H737 H 0.77924 0.36296 0.20071 0.0
H738 H 0.80445 0.39467 0.18677 0.0
H739 H 0.80516 0.35572 0.18649 0.0
C740 C 0.8602 0.40726 0.15249 0.0
C741 C 0.86917 0.3821 0.14966 0.0
C742 C 0.82638 0.39838 0.15423 0.0
C743 C 0.80111 0.36426 0.15303 0.0
C744 C 0.80969 0.33931 0.14903 0.0
H745 H 0.62649 0.20194 0.16942 0.0
H746 H 0.66831 0.25118 0.15639 0.0
C747 C 0.84349 0.34814 0.1474 0.0
C748 C 0.76673 0.35361 0.15846 0.0
H749 H 0.72215 0.32919 0.19297 0.0
C750 C 0.7397 0.33989 0.1469 0.0
C751 C 0.76023 0.35187 0.17527 0.0
C752 C 0.78866 0.36703 0.18813 0.0
C753 C 0.70613 0.32177 0.15177 0.0
C754 C 0.69983 0.31617 0.16853 0.0
C755 C 0.7268 0.33311 0.1801 0.0
C756 C 0.66787 0.28768 0.17408 0.0
C757 C 0.67797 0.30754 0.13884 0.0
C758 C 0.65305 0.2914 0.18838 0.0
C759 C 0.6293 0.26285 0.19613 0.0
C760 C 0.61986 0.2302 0.18962 0.0
C761 C 0.63267 0.22668 0.17463 0.0
C762 C 0.65657 0.25504 0.16703 0.0
H763 H 0.68377 0.32587 0.12923 0.0
H764 H 0.67584 0.28423 0.13284 0.0
H765 H 0.65329 0.3014 0.14401 0.0
H766 H 0.66149 0.3163 0.19411 0.0
H767 H 0.61965 0.2663 0.20762 0.0
H768 H 0.11634 0.59311 0.12177 0.0
H769 H 0.11723 0.59728 0.09224 0.0
H770 H 1.02828 0.49829 0.08631 0.0
H771 H 1.02666 0.49419 0.11596 0.0
H772 H 0.12352 0.55735 0.0685 0.0
H773 H 1.00112 0.55475 0.0599 0.0
H774 H 1.02146 0.56093 0.07975 0.0
H775 H 0.99812 0.51922 0.06993 0.0
C776 C 0.09687 0.57222 0.11422 0.0
C777 C 0.0713 0.54338 0.12121 0.0
C778 C 0.09744 0.57466 0.09733 0.0
C779 C 0.07254 0.54834 0.0871 0.0
C780 C 1.04728 0.51924 0.09401 0.0
H781 H 1.05098 0.52738 0.98069 0.0
H782 H 1.04535 0.51626 0.00973 0.0
C783 C 1.04653 0.51686 0.11094 0.0
C784 C 0.07361 0.55137 0.0692 0.0
H785 H 1.02949 0.55437 0.03598 0.0
C786 C 0.10295 0.55667 0.06139 0.0
C787 C 1.0467 0.55046 0.05997 0.0
C788 C 1.01518 0.54634 0.0678 0.0
C789 C 0.10618 0.56125 0.0446 0.0
C790 C 0.07946 0.56065 0.03544 0.0
C791 C 1.04985 0.55471 0.04312 0.0
C792 C 0.0824 0.56746 0.01795 0.0
C793 C 0.13813 0.5667 0.03673 0.0
C794 C 0.10473 0.60006 0.01308 0.0
C795 C 0.10773 0.60664 0.99655 0.0
C796 C 0.08849 0.58067 0.98458 0.0
C797 C 0.06588 0.54805 0.98957 0.0
C798 C 0.06275 0.54157 0.00614 0.0
H799 H 0.15333 0.55979 0.04472 0.0
H800 H 0.13205 0.5516 0.02493 0.0
H801 H 0.15389 0.59381 0.03418 0.0
H802 H 0.11973 0.62045 0.02209 0.0
H803 H 0.12487 0.63218 0.99317 0.0
H804 H 0.53862 0.07742 0.45188 0.0
H805 H 0.54031 0.07973 0.42222 0.0
H806 H 0.58217 1.01312 0.42004 0.0
H807 H 0.5792 1.0096 0.44969 0.0
H808 H 0.59213 0.10341 0.40333 0.0
H809 H 0.5081 0.96738 0.38572 0.0
H810 H 0.51204 0.98448 0.40638 0.0
H811 H 0.54331 0.97483 0.39873 0.0
C812 C 0.54789 0.06301 0.44506 0.0
C813 C 0.55859 0.04317 0.45308 0.0
C814 C 0.54888 0.06438 0.42812 0.0
C815 C 0.56089 0.0462 0.41885 0.0
C816 C 0.57189 1.02659 0.42686 0.0
H817 H 0.62546 0.09514 0.31899 0.0
H818 H 0.62395 0.08957 0.34858 0.0
C819 C 0.57036 1.02475 0.44381 0.0
C820 C 0.563 0.04895 0.40091 0.0
H821 H 0.53905 1.00266 0.36451 0.0
C822 C 0.58038 0.08137 0.39484 0.0
C823 C 0.54734 1.02021 0.38983 0.0
C824 C 0.52636 0.9848 0.39548 0.0
C825 C 0.58253 0.0859 0.37801 0.0
C826 C 0.56793 0.05712 0.36694 0.0
C827 C 0.55054 1.0247 0.37301 0.0
C828 C 0.56927 0.06003 0.34899 0.0
C829 C 0.5995 0.12152 0.37234 0.0
C830 C 0.53918 0.04423 0.33931 0.0
C831 C 0.54008 0.04676 0.32242 0.0
C832 C 0.57109 0.06538 0.31491 0.0
C833 C 0.60123 0.08104 0.32456 0.0
C834 C 0.60035 0.07802 0.34144 0.0
H835 H 0.60001 0.13975 0.38193 0.0
H836 H 0.62608 0.1295 0.3695 0.0
H837 H 0.58645 0.12312 0.36119 0.0
H838 H 0.51491 1.03016 0.34485 0.0
H839 H 0.5165 1.03459 0.31523 0.0
H840 H 0.54217 0.49744 0.78076 0.0
H841 H 0.55068 0.49301 0.75146 0.0
H842 H 0.64894 0.5828 0.75718 0.0
H843 H 0.64091 0.5874 0.78625 0.0
H844 H 0.56453 0.54259 0.72786 0.0
H845 H 0.6676 0.51214 0.7336 0.0
H846 H 0.63984 0.50764 0.75001 0.0
H847 H 0.67484 0.54858 0.74613 0.0
C848 C 0.56561 0.51616 0.77577 0.0
C849 C 0.59087 0.54272 0.78586 0.0
C850 C 0.57041 0.51359 0.75905 0.0
C851 C 0.60065 0.53729 0.75225 0.0
C852 C 0.6257 0.56391 0.76226 0.0
H853 H 0.65908 0.60717 0.65692 0.0
H854 H 0.63947 0.59667 0.68475 0.0
C855 C 0.62091 0.56659 0.77888 0.0
C856 C 0.60605 0.53514 0.7346 0.0
H857 H 0.66105 0.53146 0.70788 0.0
C858 C 0.58532 0.53969 0.72343 0.0
C859 C 0.63293 0.53092 0.72887 0.0
C860 C 0.6549 0.52421 0.74025 0.0
C861 C 0.59182 0.54179 0.70672 0.0
C862 C 0.62 0.53969 0.70114 0.0
C863 C 0.63968 0.53345 0.71221 0.0
C864 C 0.63043 0.54534 0.68402 0.0
C865 C 0.56864 0.54652 0.69521 0.0
C866 C 0.63255 0.52021 0.67449 0.0
C867 C 0.64381 0.52615 0.65856 0.0
C868 C 0.65339 0.55744 0.65191 0.0
C869 C 0.65133 0.58259 0.66155 0.0
C870 C 0.64007 0.57662 0.67746 0.0
H871 H 0.54338 0.53775 0.70038 0.0
H872 H 0.57988 0.57384 0.69308 0.0
H873 H 0.56526 0.53262 0.68325 0.0
H874 H 0.62541 0.49597 0.67937 0.0
H875 H 0.64472 0.50612 0.65141 0.0
H876 H 0.52263 0.05514 0.55956 0.0
H877 H 0.52561 0.05589 0.58939 0.0
H878 H 0.61053 1.03897 0.5872 0.0
H879 H 0.60828 1.03903 0.55744 0.0
H880 H 0.51837 1.00775 0.60947 0.0
H881 H 0.6471 0.11848 0.61991 0.0
H882 H 0.62462 0.10786 0.60037 0.0
H883 H 0.64624 0.08592 0.6065 0.0
C884 C 0.5421 0.05178 0.56541 0.0
C885 C 0.56537 0.04727 0.55604 0.0
C886 C 0.54375 0.05218 0.5825 0.0
C887 C 0.56869 0.04812 0.59065 0.0
C888 C 0.59163 0.04311 0.5813 0.0
H889 H 0.61182 1.03037 0.69254 0.0
H890 H 0.60933 1.03 0.66267 0.0
C891 C 0.59015 0.04293 0.56423 0.0
C892 C 0.57003 0.04812 0.60885 0.0
H893 H 0.62207 0.08583 0.64283 0.0
C894 C 0.541 1.02499 0.61675 0.0
C895 C 0.59956 0.07058 0.61843 0.0
C896 C 0.63104 0.09734 0.6109 0.0
C897 C 0.54085 1.02331 0.63383 0.0
C898 C 0.57042 0.04557 0.64337 0.0
C899 C 0.59946 0.06867 0.63552 0.0
C900 C 0.57159 0.04548 0.66152 0.0
C901 C 0.50921 0.99729 0.64155 0.0
C902 C 0.55143 0.05459 0.67085 0.0
C903 C 0.55281 0.05485 0.68793 0.0
C904 C 0.57438 0.04597 0.69609 0.0
C905 C 0.59461 1.03693 0.68669 0.0
C906 C 0.59337 1.0369 0.6696 0.0
H907 H 0.49152 0.97721 0.63248 0.0
H908 H 0.51556 0.98525 0.65143 0.0
H909 H 0.49593 1.00991 0.64704 0.0
H910 H 0.53475 0.06174 0.66491 0.0
H911 H 0.5367 0.0617 0.69474 0.0
H912 H 0.52058 0.53452 0.88874 0.0
H913 H 0.51707 0.53426 0.91855 0.0
H914 H 0.62548 0.57981 0.92359 0.0
H915 H 0.62933 0.58028 0.89395 0.0
H916 H 0.54015 0.50203 0.9405 0.0
H917 H 0.60483 0.64084 0.95427 0.0
H918 H 0.58794 0.62167 0.93413 0.0
H919 H 0.62773 0.62699 0.94141 0.0
C920 C 0.54373 0.54475 0.89618 0.0
C921 C 0.57526 0.55751 0.88886 0.0
C922 C 0.54165 0.5445 0.91323 0.0
C923 C 0.57104 0.55739 0.92335 0.0
C924 C 0.60249 0.57025 0.91608 0.0
H925 H 0.6222 0.57869 0.02701 0.0
H926 H 0.62147 0.57939 0.99725 0.0
C927 C 0.6046 0.57033 0.89907 0.0
C928 C 0.56892 0.55643 0.94146 0.0
H929 H 0.59546 0.60666 0.9768 0.0
C930 C 0.55197 0.5249 0.94845 0.0
C931 C 0.58451 0.58626 0.95185 0.0
C932 C 0.60204 0.6209 0.94508 0.0
C933 C 0.55104 0.52234 0.9655 0.0
C934 C 0.56681 0.5522 0.97592 0.0
C935 C 0.58341 0.58375 0.96889 0.0
C936 C 0.5669 0.55132 0.9941 0.0
C937 C 0.5342 0.4876 0.97217 0.0
C938 C 0.53648 0.53564 0.00239 0.0
C939 C 0.53681 0.53482 0.01945 0.0
C940 C 0.56759 0.54999 0.02871 0.0
C941 C 0.598 0.56616 0.02036 0.0
C942 C 0.59763 0.56685 0.0033 0.0
H943 H 0.53193 0.46799 0.96292 0.0
H944 H 0.54847 0.48699 0.98309 0.0
H945 H 0.50829 0.48081 0.97579 0.0
H946 H 0.51239 0.52411 0.99566 0.0
H947 H 0.51286 0.52191 0.02535 0.0
H948 H 0.07083 0.48981 0.22459 0.0
H949 H 0.06996 0.48863 0.25437 0.0
H950 H 1.06149 0.57872 0.25729 0.0
H951 H 0.06311 0.58054 0.22759 0.0
H952 H 0.10734 0.58284 0.27961 0.0
H953 H 0.98954 0.45933 0.28285 0.0
H954 H 1.02113 0.4569 0.27098 0.0
H955 H 1.00245 0.48115 0.2642 0.0
C956 C 0.06867 0.50933 0.23155 0.0
C957 C 0.0669 0.5352 0.22362 0.0
C958 C 0.06795 0.50849 0.24861 0.0
C959 C 0.06504 0.53324 0.25815 0.0
C960 C 0.06359 0.55923 0.25026 0.0
H961 H 1.01086 0.52346 0.36009 0.0
H962 H 1.01228 0.52348 0.33029 0.0
C963 C 0.06448 0.5602 0.23322 0.0
C964 C 0.06426 0.53261 0.27633 0.0
H965 H 1.02142 0.4839 0.30774 0.0
C966 C 0.0885 0.5612 0.28575 0.0
C967 C 1.03941 0.50461 0.28442 0.0
C968 C 1.01144 0.47389 0.27511 0.0
C969 C 0.08881 0.56246 0.30292 0.0
C970 C 0.06465 0.53402 0.31101 0.0
C971 C 1.04018 0.50557 0.3016 0.0
C972 C 0.06387 0.53357 0.3292 0.0
C973 C 0.11456 0.59462 0.31221 0.0
C974 C 0.09218 0.53868 0.3386 0.0
C975 C 0.09146 0.53876 0.35567 0.0
C976 C 1.06225 0.5333 0.36377 0.0
C977 C 1.03369 0.52748 0.3543 0.0
C978 C 1.0345 0.52759 0.33723 0.0
H979 H 0.12448 0.61672 0.30447 0.0
H980 H 0.10355 0.60005 0.32314 0.0
H981 H 0.13625 0.59179 0.31632 0.0
H982 H 0.11483 0.54241 0.33273 0.0
H983 H 0.11369 0.54267 0.36253 0.0
loop_
_geom_bond_atom_site_label_1
_geom_bond_atom_site_label_2
_geom_bond_distance
_geom_bond_site_symmetry_2
_ccdc_geom_bond_type
Eu0 C9 2.828 . S
Eu0 O11 2.392 1_655 S
Eu0 O13 2.418 . S
Eu0 O18 2.373 . S
Eu0 O21 2.488 . S
Eu0 O22 2.471 . S
Eu0 O23 2.349 . S
Eu1 O10 2.373 . S
Eu1 O14 2.488 . S
Eu1 O15 2.471 . S
Eu1 O16 2.349 . S
Eu1 O19 2.392 1_455 S
Eu1 O20 2.418 . S
Eu1 C30 2.828 . S
C2 O20 1.244 . S
C2 O23 1.265 1_455 S
C3 C4 1.379 . S
C3 C7 1.373 . S
C3 C9 1.505 . S
C4 C3 1.379 . S
C4 C6 1.369 . S
C4 H32 0.930 . S
C5 C7 1.383 . S
C5 C8 1.382 . S
C5 H33 0.930 . S
C6 C4 1.369 . S
C6 C8 1.392 . S
C6 H34 0.930 . S
C7 C3 1.373 . S
C7 C5 1.383 . S
C7 H35 0.931 . S
C8 C5 1.382 . S
C8 C6 1.392 . S
C9 Eu0 2.828 . S
C9 C3 1.505 . S
C9 O21 1.249 . S
C9 O22 1.244 . S
O10 Eu1 2.373 . S
O10 C12 1.258 . S
O11 Eu0 2.392 1_455 S
O11 C12 1.242 . S
C12 O10 1.258 . S
C12 O11 1.242 . S
O13 Eu0 2.418 . S
O13 C17 1.244 1_655 S
O14 Eu1 2.488 . S
O14 C30 1.249 . S
O15 Eu1 2.471 . S
O15 C30 1.244 . S
O16 Eu1 2.349 . S
O16 C17 1.265 . S
C17 O13 1.244 1_455 S
C17 O16 1.265 . S
O18 Eu0 2.373 . S
O18 C31 1.258 . S
O19 Eu1 2.392 1_655 S
O19 C31 1.242 . S
O20 Eu1 2.418 . S
O20 C2 1.244 . S
O21 Eu0 2.488 . S
O21 C9 1.249 . S
O22 Eu0 2.471 . S
O22 C9 1.244 . S
O23 Eu0 2.349 . S
O23 C2 1.265 1_655 S
C24 C25 1.379 . S
C24 C28 1.373 . S
C24 C30 1.505 . S
C25 C24 1.379 . S
C25 C27 1.369 . S
C25 H36 0.930 . S
C26 C28 1.383 . S
C26 C29 1.382 . S
C26 H37 0.930 . S
C27 C25 1.369 . S
C27 C29 1.392 . S
C27 H38 0.930 . S
C28 C24 1.373 . S
C28 C26 1.383 . S
C28 H39 0.931 . S
C29 C26 1.382 . S
C29 C27 1.392 . S
C30 Eu1 2.828 . S
C30 O14 1.249 . S
C30 O15 1.244 . S
C30 C24 1.505 . S
C31 O18 1.258 . S
C31 O19 1.242 . S
H32 C4 0.930 . S
H33 C5 0.930 . S
H34 C6 0.930 . S
H35 C7 0.931 . S
H36 C25 0.930 . S
H37 C26 0.930 . S
H38 C27 0.930 . S
H39 C28 0.931 . S
Eu40 C49 2.828 . S
Eu40 O51 2.392 1_565 S
Eu40 O53 2.418 . S
Eu40 O58 2.373 . S
Eu40 O61 2.488 . S
Eu40 O62 2.471 . S
Eu40 O63 2.349 1_565 S
Eu41 O50 2.373 . S
Eu41 O54 2.488 . S
Eu41 O55 2.471 . S
Eu41 O56 2.349 . S
Eu41 O59 2.392 1_545 S
Eu41 O60 2.418 . S
Eu41 C70 2.828 . S
C42 O60 1.244 . S
C42 O63 1.265 . S
C43 C44 1.379 . S
C43 C47 1.373 . S
C43 C49 1.505 . S
C44 C43 1.379 . S
C44 C46 1.369 . S
C44 H72 0.930 . S
C45 C47 1.383 . S
C45 C48 1.382 . S
C45 H73 0.930 . S
C46 C44 1.369 . S
C46 C48 1.392 . S
C46 H74 0.930 . S
C47 C43 1.373 . S
C47 C45 1.383 . S
C47 H75 0.931 . S
C48 C45 1.382 . S
C48 C46 1.392 . S
C49 Eu40 2.828 . S
C49 C43 1.505 . S
C49 O61 1.249 . S
C49 O62 1.244 . S
O50 Eu41 2.373 . S
O50 C52 1.258 . S
O51 Eu40 2.392 1_545 S
O51 C52 1.242 . S
C52 O50 1.258 . S
C52 O51 1.242 . S
O53 Eu40 2.418 . S
O53 C57 1.244 1_565 S
O54 Eu41 2.488 . S
O54 C70 1.249 . S
O55 Eu41 2.471 . S
O55 C70 1.244 . S
O56 Eu41 2.349 . S
O56 C57 1.265 . S
C57 O53 1.244 1_545 S
C57 O56 1.265 . S
O58 Eu40 2.373 . S
O58 C71 1.258 . S
O59 Eu41 2.392 1_565 S
O59 C71 1.242 . S
O60 Eu41 2.418 . S
O60 C42 1.244 . S
O61 Eu40 2.488 . S
O61 C49 1.249 . S
O62 Eu40 2.471 . S
O62 C49 1.244 . S
O63 Eu40 2.349 1_545 S
O63 C42 1.265 . S
C64 C65 1.379 . S
C64 C68 1.373 . S
C64 C70 1.505 . S
C65 C64 1.379 . S
C65 C67 1.369 . S
C65 H76 0.930 . S
C66 C68 1.383 . S
C66 C69 1.382 . S
C66 H77 0.930 . S
C67 C65 1.369 . S
C67 C69 1.392 . S
C67 H78 0.930 . S
C68 C64 1.373 . S
C68 C66 1.383 . S
C68 H79 0.931 . S
C69 C66 1.382 . S
C69 C67 1.392 . S
C70 Eu41 2.828 . S
C70 O54 1.249 . S
C70 O55 1.244 . S
C70 C64 1.505 . S
C71 O58 1.258 . S
C71 O59 1.242 . S
H72 C44 0.930 . S
H73 C45 0.930 . S
H74 C46 0.930 . S
H75 C47 0.931 . S
H76 C65 0.930 . S
H77 C66 0.930 . S
H78 C67 0.930 . S
H79 C68 0.931 . S
Eu80 C89 2.828 . S
Eu80 O91 2.392 . S
Eu80 O93 2.418 . S
Eu80 O98 2.373 . S
Eu80 O101 2.488 . S
Eu80 O102 2.471 . S
Eu80 O103 2.349 . S
Eu81 O90 2.373 . S
Eu81 O94 2.488 . S
Eu81 O95 2.471 . S
Eu81 O96 2.349 . S
Eu81 O99 2.392 . S
Eu81 O100 2.418 . S
Eu81 C110 2.828 . S
C82 O100 1.244 . S
C82 O103 1.265 . S
C83 C84 1.379 . S
C83 C87 1.373 . S
C83 C89 1.505 . S
C84 C83 1.379 . S
C84 C86 1.369 . S
C84 H112 0.930 . S
C85 C87 1.383 . S
C85 C88 1.382 . S
C85 H113 0.930 . S
C86 C84 1.369 . S
C86 C88 1.392 . S
C86 H114 0.930 . S
C87 C83 1.373 . S
C87 C85 1.383 . S
C87 H115 0.931 . S
C88 C85 1.382 . S
C88 C86 1.392 . S
C89 Eu80 2.828 . S
C89 C83 1.505 . S
C89 O101 1.249 . S
C89 O102 1.244 . S
O90 Eu81 2.373 . S
O90 C92 1.258 . S
O91 Eu80 2.392 . S
O91 C92 1.242 . S
C92 O90 1.258 . S
C92 O91 1.242 . S
O93 Eu80 2.418 . S
O93 C97 1.244 . S
O94 Eu81 2.488 . S
O94 C110 1.249 . S
O95 Eu81 2.471 . S
O95 C110 1.244 . S
O96 Eu81 2.349 . S
O96 C97 1.265 . S
C97 O93 1.244 . S
C97 O96 1.265 . S
O98 Eu80 2.373 . S
O98 C111 1.258 . S
O99 Eu81 2.392 . S
O99 C111 1.242 . S
O100 Eu81 2.418 . S
O100 C82 1.244 . S
O101 Eu80 2.488 . S
O101 C89 1.249 . S
O102 Eu80 2.471 . S
O102 C89 1.244 . S
O103 Eu80 2.349 . S
O103 C82 1.265 . S
C104 C105 1.379 . S
C104 C108 1.373 . S
C104 C110 1.505 . S
C105 C104 1.379 . S
C105 C107 1.369 . S
C105 H116 0.930 . S
C106 C108 1.383 . S
C106 C109 1.382 . S
C106 H117 0.930 . S
C107 C105 1.369 . S
C107 C109 1.392 . S
C107 H118 0.930 . S
C108 C104 1.373 . S
C108 C106 1.383 . S
C108 H119 0.931 . S
C109 C106 1.382 . S
C109 C107 1.392 . S
C110 Eu81 2.828 . S
C110 O94 1.249 . S
C110 O95 1.244 . S
C110 C104 1.505 . S
C111 O98 1.258 . S
C111 O99 1.242 . S
H112 C84 0.930 . S
H113 C85 0.930 . S
H114 C86 0.930 . S
H115 C87 0.931 . S
H116 C105 0.930 . S
H117 C106 0.930 . S
H118 C107 0.930 . S
H119 C108 0.931 . S
C120 C121 1.384 . S
C120 H133 0.947 . S
C120 C155 1.382 . S
C121 C120 1.384 . S
C121 C122 1.378 . S
C122 C121 1.378 . S
C122 C123 1.378 . S
C122 H134 0.952 . S
C123 C122 1.378 . S
C123 H135 0.950 . S
C123 C154 1.383 . S
H124 C143 0.947 . S
H125 C144 0.946 . S
H126 C146 0.953 . S
H127 C147 0.945 . S
H128 C149 0.952 . S
H129 C150 0.949 . S
H130 C152 0.950 . S
H131 C153 0.948 . S
H132 C155 0.951 . S
H133 C120 0.947 . S
H134 C122 0.952 . S
H135 C123 0.950 . S
N136 C139 1.382 . S
N136 C141 1.363 1_545 S
N137 C139 1.371 . S
N137 C140 1.372 . S
N138 C140 1.361 1_565 S
N138 C141 1.377 . S
C139 N136 1.382 . S
C139 N137 1.371 . S
C139 C142 1.480 . S
C140 N137 1.372 . S
C140 N138 1.361 1_545 S
C140 C148 1.457 . S
C141 N136 1.363 1_565 S
C141 N138 1.377 . S
C141 C154 1.479 . S
C142 C139 1.480 . S
C142 C143 1.383 . S
C142 C147 1.385 . S
C143 H124 0.947 . S
C143 C142 1.383 . S
C143 C144 1.388 . S
C144 H125 0.946 . S
C144 C143 1.388 . S
C144 C145 1.384 . S
C145 C144 1.384 . S
C145 C146 1.377 . S
C146 H126 0.953 . S
C146 C145 1.377 . S
C146 C147 1.369 . S
C147 H127 0.945 . S
C147 C142 1.385 . S
C147 C146 1.369 . S
C148 C140 1.457 . S
C148 C149 1.372 . S
C148 C153 1.364 1_545 S
C149 H128 0.952 . S
C149 C148 1.372 . S
C149 C150 1.389 . S
C150 H129 0.949 . S
C150 C149 1.389 . S
C150 C151 1.387 . S
C151 C150 1.387 . S
C151 C152 1.372 1_545 S
C152 H130 0.950 . S
C152 C151 1.372 1_565 S
C152 C153 1.379 . S
C153 H131 0.948 . S
C153 C148 1.364 1_565 S
C153 C152 1.379 . S
C154 C123 1.383 . S
C154 C141 1.479 . S
C154 C155 1.398 . S
C155 C120 1.382 . S
C155 H132 0.951 . S
C155 C154 1.398 . S
C156 C157 1.384 . S
C156 H169 0.947 . S
C156 C191 1.382 . S
C157 C156 1.384 . S
C157 C158 1.378 . S
C158 C157 1.378 . S
C158 C159 1.378 . S
C158 H170 0.952 . S
C159 C158 1.378 . S
C159 H171 0.950 . S
C159 C190 1.383 . S
H160 C179 0.947 . S
H161 C180 0.946 . S
H162 C182 0.953 . S
H163 C183 0.945 . S
H164 C185 0.952 . S
H165 C186 0.949 . S
H166 C188 0.950 . S
H167 C189 0.948 . S
H168 C191 0.951 . S
H169 C156 0.947 . S
H170 C158 0.952 . S
H171 C159 0.950 . S
N172 C175 1.382 . S
N172 C177 1.363 . S
N173 C175 1.371 . S
N173 C176 1.372 . S
N174 C176 1.361 . S
N174 C177 1.377 . S
C175 N172 1.382 . S
C175 N173 1.371 . S
C175 C178 1.480 . S
C176 N173 1.372 . S
C176 N174 1.361 . S
C176 C184 1.457 . S
C177 N172 1.363 . S
C177 N174 1.377 . S
C177 C190 1.479 . S
C178 C175 1.480 . S
C178 C179 1.383 . S
C178 C183 1.385 . S
C179 H160 0.947 . S
C179 C178 1.383 . S
C179 C180 1.388 . S
C180 H161 0.946 . S
C180 C179 1.388 . S
C180 C181 1.384 . S
C181 C180 1.384 . S
C181 C182 1.377 . S
C182 H162 0.953 . S
C182 C181 1.377 . S
C182 C183 1.369 . S
C183 H163 0.945 . S
C183 C178 1.385 . S
C183 C182 1.369 . S
C184 C176 1.457 . S
C184 C185 1.372 . S
C184 C189 1.364 . S
C185 H164 0.952 . S
C185 C184 1.372 . S
C185 C186 1.389 . S
C186 H165 0.949 . S
C186 C185 1.389 . S
C186 C187 1.387 . S
C187 C186 1.387 . S
C187 C188 1.372 . S
C188 H166 0.950 . S
C188 C187 1.372 . S
C188 C189 1.379 . S
C189 H167 0.948 . S
C189 C184 1.364 . S
C189 C188 1.379 . S
C190 C159 1.383 . S
C190 C177 1.479 . S
C190 C191 1.398 . S
C191 C156 1.382 . S
C191 H168 0.951 . S
C191 C190 1.398 . S
C192 C193 1.384 . S
C192 H205 0.947 . S
C192 C227 1.382 . S
C193 C192 1.384 . S
C193 C194 1.378 . S
C194 C193 1.378 . S
C194 C195 1.378 . S
C194 H206 0.952 . S
C195 C194 1.378 . S
C195 H207 0.950 . S
C195 C226 1.383 . S
H196 C215 0.947 . S
H197 C216 0.946 . S
H198 C218 0.953 . S
H199 C219 0.945 . S
H200 C221 0.952 . S
H201 C222 0.949 . S
H202 C224 0.950 1_655 S
H203 C225 0.948 1_655 S
H204 C227 0.951 . S
H205 C192 0.947 . S
H206 C194 0.952 . S
H207 C195 0.950 . S
N208 C211 1.382 . S
N208 C213 1.363 . S
N209 C211 1.371 . S
N209 C212 1.372 . S
N210 C212 1.361 . S
N210 C213 1.377 . S
C211 N208 1.382 . S
C211 N209 1.371 . S
C211 C214 1.480 . S
C212 N209 1.372 . S
C212 N210 1.361 . S
C212 C220 1.457 . S
C213 N208 1.363 . S
C213 N210 1.377 . S
C213 C226 1.479 1_455 S
C214 C211 1.480 . S
C214 C215 1.383 . S
C214 C219 1.385 . S
C215 H196 0.947 . S
C215 C214 1.383 . S
C215 C216 1.388 . S
C216 H197 0.946 . S
C216 C215 1.388 . S
C216 C217 1.384 . S
C217 C216 1.384 . S
C217 C218 1.377 . S
C218 H198 0.953 . S
C218 C217 1.377 . S
C218 C219 1.369 . S
C219 H199 0.945 . S
C219 C214 1.385 . S
C219 C218 1.369 . S
C220 C212 1.457 . S
C220 C221 1.372 . S
C220 C225 1.364 . S
C221 H200 0.952 . S
C221 C220 1.372 . S
C221 C222 1.389 . S
C222 H201 0.949 . S
C222 C221 1.389 . S
C222 C223 1.387 . S
C223 C222 1.387 . S
C223 C224 1.372 . S
C224 H202 0.950 1_455 S
C224 C223 1.372 . S
C224 C225 1.379 . S
C225 H203 0.948 1_455 S
C225 C220 1.364 . S
C225 C224 1.379 . S
C226 C195 1.383 . S
C226 C213 1.479 1_655 S
C226 C227 1.398 . S
C227 C192 1.382 . S
C227 H204 0.951 . S
C227 C226 1.398 . S
C228 C229 1.384 . S
C228 H241 0.947 . S
C228 C263 1.382 . S
C229 C228 1.384 . S
C229 C230 1.378 . S
C230 C229 1.378 . S
C230 C231 1.378 . S
C230 H242 0.952 . S
C231 C230 1.378 . S
C231 H243 0.950 . S
C231 C262 1.383 . S
H232 C251 0.947 . S
H233 C252 0.946 . S
H234 C254 0.953 . S
H235 C255 0.945 . S
H236 C257 0.952 . S
H237 C258 0.949 . S
H238 C260 0.950 . S
H239 C261 0.948 . S
H240 C263 0.951 . S
H241 C228 0.947 . S
H242 C230 0.952 . S
H243 C231 0.950 . S
N244 C247 1.382 . S
N244 C249 1.363 . S
N245 C247 1.368 1_655 S
N245 C248 1.361 1_655 S
N246 C248 1.361 . S
N246 C249 1.377 . S
C247 N244 1.382 . S
C247 N245 1.368 1_455 S
C247 C250 1.480 1_455 S
C248 N245 1.361 1_455 S
C248 N246 1.361 . S
C248 C256 1.457 . S
C249 N244 1.363 . S
C249 N246 1.377 . S
C249 C262 1.479 . S
C250 C247 1.480 1_655 S
C250 C251 1.383 . S
C250 C255 1.385 . S
C251 H232 0.947 . S
C251 C250 1.383 . S
C251 C252 1.388 . S
C252 H233 0.946 . S
C252 C251 1.388 . S
C252 C253 1.384 . S
C253 C252 1.384 . S
C253 C254 1.377 . S
C254 H234 0.953 . S
C254 C253 1.377 . S
C254 C255 1.369 . S
C255 H235 0.945 . S
C255 C250 1.385 . S
C255 C254 1.369 . S
C256 C248 1.457 . S
C256 C257 1.372 1_455 S
C256 C261 1.364 . S
C257 H236 0.952 . S
C257 C256 1.372 1_655 S
C257 C258 1.389 . S
C258 H237 0.949 . S
C258 C257 1.389 . S
C258 C259 1.387 1_655 S
C259 C258 1.387 1_455 S
C259 C260 1.372 . S
C260 H238 0.950 . S
C260 C259 1.372 . S
C260 C261 1.379 . S
C261 H239 0.948 . S
C261 C256 1.364 . S
C261 C260 1.379 . S
C262 C231 1.383 . S
C262 C249 1.479 . S
C262 C263 1.398 . S
C263 C228 1.382 . S
C263 H240 0.951 . S
C263 C262 1.398 . S
C264 C265 1.384 . S
C264 H277 0.947 . S
C264 C299 1.382 . S
C265 C264 1.384 . S
C265 C266 1.378 . S
C266 C265 1.378 . S
C266 C267 1.378 . S
C266 H278 0.952 . S
C267 C266 1.378 . S
C267 H279 0.950 . S
C267 C298 1.383 . S
H268 C287 0.947 . S
H269 C288 0.946 . S
H270 C290 0.953 . S
H271 C291 0.945 . S
H272 C293 0.952 . S
H273 C294 0.949 . S
H274 C296 0.950 . S
H275 C297 0.948 . S
H276 C299 0.951 . S
H277 C264 0.947 . S
H278 C266 0.952 . S
H279 C267 0.950 . S
N280 C283 1.382 1_545 S
N280 C285 1.363 . S
N281 C283 1.371 . S
N281 C284 1.372 1_565 S
N282 C284 1.361 . S
N282 C285 1.377 . S
C283 N280 1.382 1_565 S
C283 N281 1.371 . S
C283 C286 1.480 . S
C284 N281 1.372 1_545 S
C284 N282 1.361 . S
C284 C292 1.457 . S
C285 N280 1.363 . S
C285 N282 1.377 . S
C285 C298 1.479 . S
C286 C283 1.480 . S
C286 C287 1.383 . S
C286 C291 1.385 . S
C287 H268 0.947 . S
C287 C286 1.383 . S
C287 C288 1.388 . S
C288 H269 0.946 . S
C288 C287 1.388 . S
C288 C289 1.384 . S
C289 C288 1.384 . S
C289 C290 1.377 . S
C290 H270 0.953 . S
C290 C289 1.377 . S
C290 C291 1.369 . S
C291 H271 0.945 . S
C291 C286 1.385 . S
C291 C290 1.369 . S
C292 C284 1.457 . S
C292 C293 1.372 1_545 S
C292 C297 1.364 . S
C293 H272 0.952 . S
C293 C292 1.372 1_565 S
C293 C294 1.389 . S
C294 H273 0.949 . S
C294 C293 1.389 . S
C294 C295 1.387 1_565 S
C295 C294 1.387 1_545 S
C295 C296 1.372 . S
C296 H274 0.950 . S
C296 C295 1.372 . S
C296 C297 1.379 . S
C297 H275 0.948 . S
C297 C292 1.364 . S
C297 C296 1.379 . S
C298 C267 1.383 . S
C298 C285 1.479 . S
C298 C299 1.398 . S
C299 C264 1.382 . S
C299 H276 0.951 . S
C299 C298 1.398 . S
C300 C301 1.384 . S
C300 H313 0.947 . S
C300 C335 1.382 . S
C301 C300 1.384 . S
C301 C302 1.378 . S
C302 C301 1.378 . S
C302 C303 1.378 . S
C302 H314 0.952 . S
C303 C302 1.378 . S
C303 H315 0.950 . S
C303 C334 1.383 . S
H304 C323 0.947 . S
H305 C324 0.946 . S
H306 C326 0.953 . S
H307 C327 0.945 . S
H308 C329 0.952 . S
H309 C330 0.949 . S
H310 C332 0.950 . S
H311 C333 0.948 . S
H312 C335 0.951 . S
H313 C300 0.947 . S
H314 C302 0.952 . S
H315 C303 0.950 . S
N316 C319 1.382 . S
N316 C321 1.363 . S
N317 C319 1.371 . S
N317 C320 1.372 . S
N318 C320 1.361 . S
N318 C321 1.377 . S
C319 N316 1.382 . S
C319 N317 1.371 . S
C319 C322 1.480 . S
C320 N317 1.372 . S
C320 N318 1.361 . S
C320 C328 1.457 . S
C321 N316 1.363 . S
C321 N318 1.377 . S
C321 C334 1.479 . S
C322 C319 1.480 . S
C322 C323 1.383 . S
C322 C327 1.385 . S
C323 H304 0.947 . S
C323 C322 1.383 . S
C323 C324 1.388 . S
C324 H305 0.946 . S
C324 C323 1.388 . S
C324 C325 1.384 . S
C325 C324 1.384 . S
C325 C326 1.377 . S
C326 H306 0.953 . S
C326 C325 1.377 . S
C326 C327 1.369 . S
C327 H307 0.945 . S
C327 C322 1.385 . S
C327 C326 1.369 . S
C328 C320 1.457 . S
C328 C329 1.372 . S
C328 C333 1.364 . S
C329 H308 0.952 . S
C329 C328 1.372 . S
C329 C330 1.389 . S
C330 H309 0.949 . S
C330 C329 1.389 . S
C330 C331 1.387 . S
C331 C330 1.387 . S
C331 C332 1.372 . S
C332 H310 0.950 . S
C332 C331 1.372 . S
C332 C333 1.379 . S
C333 H311 0.948 . S
C333 C328 1.364 . S
C333 C332 1.379 . S
C334 C303 1.383 . S
C334 C321 1.479 . S
C334 C335 1.398 . S
C335 C300 1.382 . S
C335 H312 0.951 . S
C335 C334 1.398 . S
H336 C344 0.929 . S
H337 C346 0.930 . S
H338 C348 0.930 . S
H339 C351 0.929 . S
H340 C354 0.930 . S
H341 C356 0.960 . S
H342 C356 0.960 . S
H343 C356 0.960 . S
C344 H336 0.929 . S
C344 C345 1.377 . S
C344 C346 1.384 . S
C345 C344 1.377 . S
C345 C351 1.390 . S
C346 H337 0.930 . S
C346 C344 1.384 . S
C346 C347 1.372 . S
C347 C346 1.372 . S
C347 C348 1.400 . S
C347 C352 1.490 . S
C348 H338 0.930 . S
C348 C347 1.400 . S
C348 C351 1.386 . S
H349 C365 0.930 . S
H350 C366 0.931 . S
C351 H339 0.929 . S
C351 C345 1.390 . S
C351 C348 1.386 . S
C352 C347 1.490 . S
C352 C354 1.395 . S
C352 C355 1.403 . S
H353 C359 0.930 . S
C354 H340 0.930 . S
C354 C352 1.395 . S
C354 C357 1.403 . S
C355 C352 1.403 . S
C355 C356 1.524 . S
C355 C359 1.400 . S
C356 H341 0.960 . S
C356 H342 0.960 . S
C356 H343 0.960 . S
C356 C355 1.524 . S
C357 C354 1.403 . S
C357 C358 1.392 . S
C357 C361 1.495 . S
C358 C357 1.392 . S
C358 C359 1.385 . S
C358 C360 1.478 . S
C359 H353 0.930 . S
C359 C355 1.400 . S
C359 C358 1.385 . S
C360 C358 1.478 . S
C360 C362 1.381 . S
C360 C366 1.383 . S
C361 C357 1.495 . S
C361 H367 0.959 . S
C361 H368 0.961 . S
C361 H369 0.960 . S
C362 C360 1.381 . S
C362 C363 1.394 . S
C362 H370 0.930 . S
C363 C362 1.394 . S
C363 C364 1.383 . S
C363 H371 0.929 . S
C364 C363 1.383 . S
C364 C365 1.377 . S
C365 H349 0.930 . S
C365 C364 1.377 . S
C365 C366 1.379 . S
C366 H350 0.931 . S
C366 C360 1.383 . S
C366 C365 1.379 . S
H367 C361 0.959 . S
H368 C361 0.961 . S
H369 C361 0.960 . S
H370 C362 0.930 . S
H371 C363 0.929 . S
H372 C380 0.929 . S
H373 C382 0.930 . S
H374 C384 0.930 . S
H375 C387 0.929 . S
H376 C390 0.930 . S
H377 C392 0.960 . S
H378 C392 0.960 . S
H379 C392 0.960 . S
C380 H372 0.929 . S
C380 C381 1.377 . S
C380 C382 1.384 . S
C381 C380 1.377 . S
C381 C387 1.390 . S
C382 H373 0.930 . S
C382 C380 1.384 . S
C382 C383 1.372 . S
C383 C382 1.372 . S
C383 C384 1.400 . S
C383 C388 1.490 . S
C384 H374 0.930 . S
C384 C383 1.400 . S
C384 C387 1.386 . S
H385 C401 0.930 . S
H386 C402 0.931 . S
C387 H375 0.929 . S
C387 C381 1.390 . S
C387 C384 1.386 . S
C388 C383 1.490 . S
C388 C390 1.395 . S
C388 C391 1.403 . S
H389 C395 0.930 . S
C390 H376 0.930 . S
C390 C388 1.395 . S
C390 C393 1.403 . S
C391 C388 1.403 . S
C391 C392 1.524 . S
C391 C395 1.400 . S
C392 H377 0.960 . S
C392 H378 0.960 . S
C392 H379 0.960 . S
C392 C391 1.524 . S
C393 C390 1.403 . S
C393 C394 1.392 . S
C393 C397 1.495 . S
C394 C393 1.392 . S
C394 C395 1.385 . S
C394 C396 1.478 . S
C395 H389 0.930 . S
C395 C391 1.400 . S
C395 C394 1.385 . S
C396 C394 1.478 . S
C396 C398 1.381 . S
C396 C402 1.383 . S
C397 C393 1.495 . S
C397 H403 0.959 . S
C397 H404 0.961 . S
C397 H405 0.960 . S
C398 C396 1.381 . S
C398 C399 1.394 . S
C398 H406 0.930 . S
C399 C398 1.394 . S
C399 C400 1.383 . S
C399 H407 0.929 . S
C400 C399 1.383 . S
C400 C401 1.377 . S
C401 H385 0.930 . S
C401 C400 1.377 . S
C401 C402 1.379 . S
C402 H386 0.931 . S
C402 C396 1.383 . S
C402 C401 1.379 . S
H403 C397 0.959 . S
H404 C397 0.961 . S
H405 C397 0.960 . S
H406 C398 0.930 . S
H407 C399 0.929 . S
H408 C416 0.929 . S
H409 C418 0.930 . S
H410 C420 0.930 . S
H411 C423 0.929 . S
H412 C426 0.930 . S
H413 C428 0.960 . S
H414 C428 0.960 . S
H415 C428 0.960 . S
C416 H408 0.929 . S
C416 C417 1.377 . S
C416 C418 1.384 . S
C417 C416 1.377 . S
C417 C423 1.390 . S
C418 H409 0.930 . S
C418 C416 1.384 . S
C418 C419 1.372 . S
C419 C418 1.372 . S
C419 C420 1.400 . S
C419 C424 1.490 . S
C420 H410 0.930 . S
C420 C419 1.400 . S
C420 C423 1.386 . S
H421 C437 0.930 . S
H422 C438 0.931 . S
C423 H411 0.929 . S
C423 C417 1.390 . S
C423 C420 1.386 . S
C424 C419 1.490 . S
C424 C426 1.395 . S
C424 C427 1.403 . S
H425 C431 0.930 . S
C426 H412 0.930 . S
C426 C424 1.395 . S
C426 C429 1.403 . S
C427 C424 1.403 . S
C427 C428 1.524 . S
C427 C431 1.400 . S
C428 H413 0.960 . S
C428 H414 0.960 . S
C428 H415 0.960 . S
C428 C427 1.524 . S
C429 C426 1.403 . S
C429 C430 1.392 . S
C429 C433 1.495 . S
C430 C429 1.392 . S
C430 C431 1.385 . S
C430 C432 1.478 . S
C431 H425 0.930 . S
C431 C427 1.400 . S
C431 C430 1.385 . S
C432 C430 1.478 . S
C432 C434 1.381 . S
C432 C438 1.383 . S
C433 C429 1.495 . S
C433 H439 0.959 . S
C433 H440 0.961 . S
C433 H441 0.960 . S
C434 C432 1.381 . S
C434 C435 1.394 . S
C434 H442 0.930 . S
C435 C434 1.394 . S
C435 C436 1.383 . S
C435 H443 0.929 . S
C436 C435 1.383 . S
C436 C437 1.377 . S
C437 H421 0.930 . S
C437 C436 1.377 . S
C437 C438 1.379 . S
C438 H422 0.931 . S
C438 C432 1.383 . S
C438 C437 1.379 . S
H439 C433 0.959 . S
H440 C433 0.961 . S
H441 C433 0.960 . S
H442 C434 0.930 . S
H443 C435 0.929 . S
H444 C452 0.929 . S
H445 C454 0.930 . S
H446 C456 0.930 . S
H447 C459 0.929 . S
H448 C462 0.930 . S
H449 C464 0.960 . S
H450 C464 0.960 . S
H451 C464 0.960 . S
C452 H444 0.929 . S
C452 C453 1.377 . S
C452 C454 1.384 . S
C453 C452 1.377 . S
C453 C459 1.390 . S
C454 H445 0.930 . S
C454 C452 1.384 . S
C454 C455 1.372 . S
C455 C454 1.372 . S
C455 C456 1.400 . S
C455 C460 1.490 . S
C456 H446 0.930 . S
C456 C455 1.400 . S
C456 C459 1.386 . S
H457 C473 0.930 . S
H458 C474 0.931 . S
C459 H447 0.929 . S
C459 C453 1.390 . S
C459 C456 1.386 . S
C460 C455 1.490 . S
C460 C462 1.395 . S
C460 C463 1.403 . S
H461 C467 0.930 . S
C462 H448 0.930 . S
C462 C460 1.395 . S
C462 C465 1.403 . S
C463 C460 1.403 . S
C463 C464 1.524 . S
C463 C467 1.400 . S
C464 H449 0.960 . S
C464 H450 0.960 . S
C464 H451 0.960 . S
C464 C463 1.524 . S
C465 C462 1.403 . S
C465 C466 1.392 . S
C465 C469 1.495 . S
C466 C465 1.392 . S
C466 C467 1.385 . S
C466 C468 1.478 . S
C467 H461 0.930 . S
C467 C463 1.400 . S
C467 C466 1.385 . S
C468 C466 1.478 . S
C468 C470 1.381 . S
C468 C474 1.383 . S
C469 C465 1.495 . S
C469 H475 0.959 . S
C469 H476 0.961 . S
C469 H477 0.960 . S
C470 C468 1.381 . S
C470 C471 1.394 . S
C470 H478 0.930 . S
C471 C470 1.394 . S
C471 C472 1.383 . S
C471 H479 0.929 . S
C472 C471 1.383 . S
C472 C473 1.377 . S
C473 H457 0.930 . S
C473 C472 1.377 . S
C473 C474 1.379 . S
C474 H458 0.931 . S
C474 C468 1.383 . S
C474 C473 1.379 . S
H475 C469 0.959 . S
H476 C469 0.961 . S
H477 C469 0.960 . S
H478 C470 0.930 . S
H479 C471 0.929 . S
H480 C488 0.929 . S
H481 C490 0.930 . S
H482 C492 0.930 . S
H483 C495 0.929 . S
H484 C498 0.930 . S
H485 C500 0.960 . S
H486 C500 0.960 . S
H487 C500 0.960 . S
C488 H480 0.929 . S
C488 C489 1.377 . S
C488 C490 1.384 . S
C489 C488 1.377 . S
C489 C495 1.390 . S
C490 H481 0.930 . S
C490 C488 1.384 . S
C490 C491 1.372 . S
C491 C490 1.372 . S
C491 C492 1.400 . S
C491 C496 1.490 . S
C492 H482 0.930 . S
C492 C491 1.400 . S
C492 C495 1.386 . S
H493 C509 0.930 . S
H494 C510 0.931 . S
C495 H483 0.929 . S
C495 C489 1.390 . S
C495 C492 1.386 . S
C496 C491 1.490 . S
C496 C498 1.395 . S
C496 C499 1.403 . S
H497 C503 0.930 . S
C498 H484 0.930 . S
C498 C496 1.395 . S
C498 C501 1.403 . S
C499 C496 1.403 . S
C499 C500 1.524 . S
C499 C503 1.400 . S
C500 H485 0.960 . S
C500 H486 0.960 . S
C500 H487 0.960 . S
C500 C499 1.524 . S
C501 C498 1.403 . S
C501 C502 1.392 . S
C501 C505 1.495 . S
C502 C501 1.392 . S
C502 C503 1.385 . S
C502 C504 1.478 . S
C503 H497 0.930 . S
C503 C499 1.400 . S
C503 C502 1.385 . S
C504 C502 1.478 . S
C504 C506 1.381 . S
C504 C510 1.383 . S
C505 C501 1.495 . S
C505 H511 0.959 . S
C505 H512 0.961 . S
C505 H513 0.960 . S
C506 C504 1.381 . S
C506 C507 1.394 . S
C506 H514 0.930 . S
C507 C506 1.394 . S
C507 C508 1.383 . S
C507 H515 0.929 . S
C508 C507 1.383 . S
C508 C509 1.377 . S
C509 H493 0.930 . S
C509 C508 1.377 . S
C509 C510 1.379 . S
C510 H494 0.931 . S
C510 C504 1.383 . S
C510 C509 1.379 . S
H511 C505 0.959 . S
H512 C505 0.961 . S
H513 C505 0.960 . S
H514 C506 0.930 . S
H515 C507 0.929 . S
H516 C524 0.929 . S
H517 C526 0.930 . S
H518 C528 0.930 . S
H519 C531 0.929 . S
H520 C534 0.930 . S
H521 C536 0.960 . S
H522 C536 0.960 . S
H523 C536 0.960 . S
C524 H516 0.929 . S
C524 C525 1.377 . S
C524 C526 1.384 . S
C525 C524 1.377 . S
C525 C531 1.390 . S
C526 H517 0.930 . S
C526 C524 1.384 . S
C526 C527 1.372 . S
C527 C526 1.372 . S
C527 C528 1.400 . S
C527 C532 1.490 . S
C528 H518 0.930 . S
C528 C527 1.400 . S
C528 C531 1.386 . S
H529 C545 0.930 . S
H530 C546 0.931 . S
C531 H519 0.929 . S
C531 C525 1.390 . S
C531 C528 1.386 . S
C532 C527 1.490 . S
C532 C534 1.395 . S
C532 C535 1.403 . S
H533 C539 0.930 . S
C534 H520 0.930 . S
C534 C532 1.395 . S
C534 C537 1.403 . S
C535 C532 1.403 . S
C535 C536 1.524 . S
C535 C539 1.400 . S
C536 H521 0.960 . S
C536 H522 0.960 . S
C536 H523 0.960 . S
C536 C535 1.524 . S
C537 C534 1.403 . S
C537 C538 1.392 . S
C537 C541 1.495 . S
C538 C537 1.392 . S
C538 C539 1.385 . S
C538 C540 1.478 . S
C539 H533 0.930 . S
C539 C535 1.400 . S
C539 C538 1.385 . S
C540 C538 1.478 . S
C540 C542 1.381 . S
C540 C546 1.383 . S
C541 C537 1.495 . S
C541 H547 0.959 . S
C541 H548 0.961 . S
C541 H549 0.960 . S
C542 C540 1.381 . S
C542 C543 1.394 . S
C542 H550 0.930 . S
C543 C542 1.394 . S
C543 C544 1.383 . S
C543 H551 0.929 . S
C544 C543 1.383 . S
C544 C545 1.377 . S
C545 H529 0.930 . S
C545 C544 1.377 . S
C545 C546 1.379 . S
C546 H530 0.931 . S
C546 C540 1.383 . S
C546 C545 1.379 . S
H547 C541 0.959 . S
H548 C541 0.961 . S
H549 C541 0.960 . S
H550 C542 0.930 . S
H551 C543 0.929 . S
H552 C560 0.929 . S
H553 C562 0.930 . S
H554 C564 0.930 . S
H555 C567 0.929 . S
H556 C570 0.930 . S
H557 C572 0.960 . S
H558 C572 0.960 . S
H559 C572 0.960 . S
C560 H552 0.929 . S
C560 C561 1.377 . S
C560 C562 1.384 . S
C561 C560 1.377 . S
C561 C567 1.390 . S
C562 H553 0.930 . S
C562 C560 1.384 . S
C562 C563 1.372 . S
C563 C562 1.372 . S
C563 C564 1.400 . S
C563 C568 1.490 . S
C564 H554 0.930 . S
C564 C563 1.400 . S
C564 C567 1.386 . S
H565 C581 0.930 . S
H566 C582 0.931 . S
C567 H555 0.929 . S
C567 C561 1.390 . S
C567 C564 1.386 . S
C568 C563 1.490 . S
C568 C570 1.395 . S
C568 C571 1.403 . S
H569 C575 0.930 . S
C570 H556 0.930 . S
C570 C568 1.395 . S
C570 C573 1.403 . S
C571 C568 1.403 . S
C571 C572 1.524 . S
C571 C575 1.400 . S
C572 H557 0.960 . S
C572 H558 0.960 . S
C572 H559 0.960 . S
C572 C571 1.524 . S
C573 C570 1.403 . S
C573 C574 1.392 . S
C573 C577 1.495 . S
C574 C573 1.392 . S
C574 C575 1.385 . S
C574 C576 1.478 . S
C575 H569 0.930 . S
C575 C571 1.400 . S
C575 C574 1.385 . S
C576 C574 1.478 . S
C576 C578 1.381 . S
C576 C582 1.383 . S
C577 C573 1.495 . S
C577 H583 0.959 . S
C577 H584 0.961 . S
C577 H585 0.960 . S
C578 C576 1.381 . S
C578 C579 1.394 . S
C578 H586 0.930 . S
C579 C578 1.394 . S
C579 C580 1.383 . S
C579 H587 0.929 . S
C580 C579 1.383 . S
C580 C581 1.377 . S
C581 H565 0.930 . S
C581 C580 1.377 . S
C581 C582 1.379 . S
C582 H566 0.931 . S
C582 C576 1.383 . S
C582 C581 1.379 . S
H583 C577 0.959 . S
H584 C577 0.961 . S
H585 C577 0.960 . S
H586 C578 0.930 . S
H587 C579 0.929 . S
H588 C596 0.929 . S
H589 C598 0.930 . S
H590 C600 0.930 . S
H591 C603 0.929 . S
H592 C606 0.930 . S
H593 C608 0.960 . S
H594 C608 0.960 . S
H595 C608 0.960 . S
C596 H588 0.929 . S
C596 C597 1.377 . S
C596 C598 1.384 . S
C597 C596 1.377 . S
C597 C603 1.390 . S
C598 H589 0.930 . S
C598 C596 1.384 . S
C598 C599 1.372 . S
C599 C598 1.372 . S
C599 C600 1.400 . S
C599 C604 1.490 . S
C600 H590 0.930 . S
C600 C599 1.400 . S
C600 C603 1.386 . S
H601 C617 0.930 . S
H602 C618 0.931 . S
C603 H591 0.929 . S
C603 C597 1.390 . S
C603 C600 1.386 . S
C604 C599 1.490 . S
C604 C606 1.395 . S
C604 C607 1.403 . S
H605 C611 0.930 . S
C606 H592 0.930 . S
C606 C604 1.395 . S
C606 C609 1.403 . S
C607 C604 1.403 . S
C607 C608 1.524 . S
C607 C611 1.400 . S
C608 H593 0.960 . S
C608 H594 0.960 . S
C608 H595 0.960 . S
C608 C607 1.524 . S
C609 C606 1.403 . S
C609 C610 1.392 . S
C609 C613 1.495 . S
C610 C609 1.392 . S
C610 C611 1.385 . S
C610 C612 1.478 . S
C611 H605 0.930 . S
C611 C607 1.400 . S
C611 C610 1.385 . S
C612 C610 1.478 . S
C612 C614 1.381 . S
C612 C618 1.383 . S
C613 C609 1.495 . S
C613 H619 0.959 . S
C613 H620 0.961 . S
C613 H621 0.960 . S
C614 C612 1.381 . S
C614 C615 1.394 . S
C614 H622 0.930 . S
C615 C614 1.394 . S
C615 C616 1.383 . S
C615 H623 0.929 . S
C616 C615 1.383 . S
C616 C617 1.377 . S
C617 H601 0.930 . S
C617 C616 1.377 . S
C617 C618 1.379 . S
C618 H602 0.931 . S
C618 C612 1.383 . S
C618 C617 1.379 . S
H619 C613 0.959 . S
H620 C613 0.961 . S
H621 C613 0.960 . S
H622 C614 0.930 . S
H623 C615 0.929 . S
H624 C632 0.929 . S
H625 C634 0.930 . S
H626 C636 0.930 . S
H627 C639 0.929 . S
H628 C642 0.930 . S
H629 C644 0.960 . S
H630 C644 0.960 . S
H631 C644 0.960 . S
C632 H624 0.929 . S
C632 C633 1.377 . S
C632 C634 1.384 . S
C633 C632 1.377 . S
C633 C639 1.390 . S
C634 H625 0.930 . S
C634 C632 1.384 . S
C634 C635 1.372 . S
C635 C634 1.372 . S
C635 C636 1.400 . S
C635 C640 1.490 . S
C636 H626 0.930 . S
C636 C635 1.400 . S
C636 C639 1.386 . S
H637 C653 0.930 . S
H638 C654 0.931 . S
C639 H627 0.929 . S
C639 C633 1.390 . S
C639 C636 1.386 . S
C640 C635 1.490 . S
C640 C642 1.395 . S
C640 C643 1.403 . S
H641 C647 0.930 . S
C642 H628 0.930 . S
C642 C640 1.395 . S
C642 C645 1.403 . S
C643 C640 1.403 . S
C643 C644 1.524 . S
C643 C647 1.400 . S
C644 H629 0.960 . S
C644 H630 0.960 . S
C644 H631 0.960 . S
C644 C643 1.524 . S
C645 C642 1.403 . S
C645 C646 1.392 . S
C645 C649 1.495 . S
C646 C645 1.392 . S
C646 C647 1.385 . S
C646 C648 1.478 . S
C647 H641 0.930 . S
C647 C643 1.400 . S
C647 C646 1.385 . S
C648 C646 1.478 . S
C648 C650 1.381 . S
C648 C654 1.383 . S
C649 C645 1.495 . S
C649 H655 0.959 . S
C649 H656 0.961 . S
C649 H657 0.960 . S
C650 C648 1.381 . S
C650 C651 1.394 . S
C650 H658 0.930 . S
C651 C650 1.394 . S
C651 C652 1.383 . S
C651 H659 0.929 . S
C652 C651 1.383 . S
C652 C653 1.377 . S
C653 H637 0.930 . S
C653 C652 1.377 . S
C653 C654 1.379 . S
C654 H638 0.931 . S
C654 C648 1.383 . S
C654 C653 1.379 . S
H655 C649 0.959 . S
H656 C649 0.961 . S
H657 C649 0.960 . S
H658 C650 0.930 . S
H659 C651 0.929 . S
H660 C668 0.929 . S
H661 C670 0.930 . S
H662 C672 0.930 . S
H663 C675 0.929 . S
H664 C678 0.930 . S
H665 C680 0.960 . S
H666 C680 0.960 . S
H667 C680 0.960 . S
C668 H660 0.929 . S
C668 C669 1.377 . S
C668 C670 1.384 . S
C669 C668 1.377 . S
C669 C675 1.390 . S
C670 H661 0.930 . S
C670 C668 1.384 . S
C670 C671 1.372 . S
C671 C670 1.372 . S
C671 C672 1.400 . S
C671 C676 1.490 . S
C672 H662 0.930 . S
C672 C671 1.400 . S
C672 C675 1.386 . S
H673 C689 0.930 . S
H674 C690 0.931 . S
C675 H663 0.929 . S
C675 C669 1.390 . S
C675 C672 1.386 . S
C676 C671 1.490 . S
C676 C678 1.395 . S
C676 C679 1.403 . S
H677 C683 0.930 . S
C678 H664 0.930 . S
C678 C676 1.395 . S
C678 C681 1.403 . S
C679 C676 1.403 . S
C679 C680 1.524 . S
C679 C683 1.400 . S
C680 H665 0.960 . S
C680 H666 0.960 . S
C680 H667 0.960 . S
C680 C679 1.524 . S
C681 C678 1.403 . S
C681 C682 1.392 . S
C681 C685 1.495 . S
C682 C681 1.392 . S
C682 C683 1.385 . S
C682 C684 1.478 . S
C683 H677 0.930 . S
C683 C679 1.400 . S
C683 C682 1.385 . S
C684 C682 1.478 . S
C684 C686 1.381 . S
C684 C690 1.383 . S
C685 C681 1.495 . S
C685 H691 0.959 . S
C685 H692 0.961 . S
C685 H693 0.960 . S
C686 C684 1.381 . S
C686 C687 1.394 . S
C686 H694 0.930 . S
C687 C686 1.394 . S
C687 C688 1.383 . S
C687 H695 0.929 . S
C688 C687 1.383 . S
C688 C689 1.377 . S
C689 H673 0.930 . S
C689 C688 1.377 . S
C689 C690 1.379 . S
C690 H674 0.931 . S
C690 C684 1.383 . S
C690 C689 1.379 . S
H691 C685 0.959 . S
H692 C685 0.961 . S
H693 C685 0.960 . S
H694 C686 0.930 . S
H695 C687 0.929 . S
H696 C704 0.929 . S
H697 C706 0.930 . S
H698 C708 0.930 . S
H699 C711 0.929 . S
H700 C714 0.930 . S
H701 C716 0.960 . S
H702 C716 0.960 . S
H703 C716 0.960 . S
C704 H696 0.929 . S
C704 C705 1.377 . S
C704 C706 1.384 . S
C705 C704 1.377 . S
C705 C711 1.390 . S
C706 H697 0.930 . S
C706 C704 1.384 . S
C706 C707 1.372 . S
C707 C706 1.372 . S
C707 C708 1.400 . S
C707 C712 1.490 . S
C708 H698 0.930 . S
C708 C707 1.400 . S
C708 C711 1.386 . S
H709 C725 0.930 . S
H710 C726 0.931 . S
C711 H699 0.929 . S
C711 C705 1.390 . S
C711 C708 1.386 . S
C712 C707 1.490 . S
C712 C714 1.395 . S
C712 C715 1.403 . S
H713 C719 0.930 . S
C714 H700 0.930 . S
C714 C712 1.395 . S
C714 C717 1.403 . S
C715 C712 1.403 . S
C715 C716 1.524 . S
C715 C719 1.400 . S
C716 H701 0.960 . S
C716 H702 0.960 . S
C716 H703 0.960 . S
C716 C715 1.524 . S
C717 C714 1.403 . S
C717 C718 1.392 . S
C717 C721 1.495 . S
C718 C717 1.392 . S
C718 C719 1.385 . S
C718 C720 1.478 . S
C719 H713 0.930 . S
C719 C715 1.400 . S
C719 C718 1.385 . S
C720 C718 1.478 . S
C720 C722 1.381 . S
C720 C726 1.383 . S
C721 C717 1.495 . S
C721 H727 0.959 . S
C721 H728 0.961 . S
C721 H729 0.960 . S
C722 C720 1.381 . S
C722 C723 1.394 . S
C722 H730 0.930 . S
C723 C722 1.394 . S
C723 C724 1.383 . S
C723 H731 0.929 . S
C724 C723 1.383 . S
C724 C725 1.377 . S
C725 H709 0.930 . S
C725 C724 1.377 . S
C725 C726 1.379 . S
C726 H710 0.931 . S
C726 C720 1.383 . S
C726 C725 1.379 . S
H727 C721 0.959 . S
H728 C721 0.961 . S
H729 C721 0.960 . S
H730 C722 0.930 . S
H731 C723 0.929 . S
H732 C740 0.929 . S
H733 C742 0.930 . S
H734 C744 0.930 . S
H735 C747 0.929 . S
H736 C750 0.930 . S
H737 C752 0.960 . S
H738 C752 0.960 . S
H739 C752 0.960 . S
C740 H732 0.929 . S
C740 C741 1.377 . S
C740 C742 1.384 . S
C741 C740 1.377 . S
C741 C747 1.390 . S
C742 H733 0.930 . S
C742 C740 1.384 . S
C742 C743 1.372 . S
C743 C742 1.372 . S
C743 C744 1.400 . S
C743 C748 1.490 . S
C744 H734 0.930 . S
C744 C743 1.400 . S
C744 C747 1.386 . S
H745 C761 0.930 . S
H746 C762 0.931 . S
C747 H735 0.929 . S
C747 C741 1.390 . S
C747 C744 1.386 . S
C748 C743 1.490 . S
C748 C750 1.395 . S
C748 C751 1.403 . S
H749 C755 0.930 . S
C750 H736 0.930 . S
C750 C748 1.395 . S
C750 C753 1.403 . S
C751 C748 1.403 . S
C751 C752 1.524 . S
C751 C755 1.400 . S
C752 H737 0.960 . S
C752 H738 0.960 . S
C752 H739 0.960 . S
C752 C751 1.524 . S
C753 C750 1.403 . S
C753 C754 1.392 . S
C753 C757 1.495 . S
C754 C753 1.392 . S
C754 C755 1.385 . S
C754 C756 1.478 . S
C755 H749 0.930 . S
C755 C751 1.400 . S
C755 C754 1.385 . S
C756 C754 1.478 . S
C756 C758 1.381 . S
C756 C762 1.383 . S
C757 C753 1.495 . S
C757 H763 0.959 . S
C757 H764 0.961 . S
C757 H765 0.960 . S
C758 C756 1.381 . S
C758 C759 1.394 . S
C758 H766 0.930 . S
C759 C758 1.394 . S
C759 C760 1.383 . S
C759 H767 0.929 . S
C760 C759 1.383 . S
C760 C761 1.377 . S
C761 H745 0.930 . S
C761 C760 1.377 . S
C761 C762 1.379 . S
C762 H746 0.931 . S
C762 C756 1.383 . S
C762 C761 1.379 . S
H763 C757 0.959 . S
H764 C757 0.961 . S
H765 C757 0.960 . S
H766 C758 0.930 . S
H767 C759 0.929 . S
H768 C776 0.929 . S
H769 C778 0.930 . S
H770 C780 0.930 . S
H771 C783 0.929 . S
H772 C786 0.930 . S
H773 C788 0.960 . S
H774 C788 0.960 . S
H775 C788 0.960 . S
C776 H768 0.929 . S
C776 C777 1.377 . S
C776 C778 1.384 . S
C777 C776 1.377 . S
C777 C783 1.390 1_455 S
C778 H769 0.930 . S
C778 C776 1.384 . S
C778 C779 1.372 . S
C779 C778 1.372 . S
C779 C780 1.400 1_455 S
C779 C784 1.490 . S
C780 H770 0.930 . S
C780 C779 1.400 1_655 S
C780 C783 1.386 . S
H781 C797 0.930 1_655 S
H782 C798 0.931 1_655 S
C783 H771 0.929 . S
C783 C777 1.390 1_655 S
C783 C780 1.386 . S
C784 C779 1.490 . S
C784 C786 1.395 . S
C784 C787 1.403 1_455 S
H785 C791 0.930 1_655 S
C786 H772 0.930 . S
C786 C784 1.395 . S
C786 C789 1.403 . S
C787 C784 1.403 1_655 S
C787 C788 1.524 . S
C787 C791 1.400 1_655 S
C788 H773 0.960 . S
C788 H774 0.960 . S
C788 H775 0.960 . S
C788 C787 1.524 . S
C789 C786 1.403 . S
C789 C790 1.392 . S
C789 C793 1.495 . S
C790 C789 1.392 . S
C790 C791 1.385 . S
C790 C792 1.478 . S
C791 H785 0.930 1_455 S
C791 C787 1.400 1_455 S
C791 C790 1.385 . S
C792 C790 1.478 . S
C792 C794 1.381 . S
C792 C798 1.383 . S
C793 C789 1.495 . S
C793 H799 0.959 . S
C793 H800 0.961 . S
C793 H801 0.960 . S
C794 C792 1.381 . S
C794 C795 1.394 1_554 S
C794 H802 0.930 . S
C795 C794 1.394 1_556 S
C795 C796 1.383 . S
C795 H803 0.929 . S
C796 C795 1.383 . S
C796 C797 1.377 . S
C797 H781 0.930 1_455 S
C797 C796 1.377 . S
C797 C798 1.379 1_556 S
C798 H782 0.931 1_455 S
C798 C792 1.383 . S
C798 C797 1.379 1_554 S
H799 C793 0.959 . S
H800 C793 0.961 . S
H801 C793 0.960 . S
H802 C794 0.930 . S
H803 C795 0.929 . S
H804 C812 0.929 . S
H805 C814 0.930 . S
H806 C816 0.930 . S
H807 C819 0.929 . S
H808 C822 0.930 . S
H809 C824 0.960 . S
H810 C824 0.960 . S
H811 C824 0.960 . S
C812 H804 0.929 . S
C812 C813 1.377 . S
C812 C814 1.384 . S
C813 C812 1.377 . S
C813 C819 1.390 . S
C814 H805 0.930 . S
C814 C812 1.384 . S
C814 C815 1.372 . S
C815 C814 1.372 . S
C815 C816 1.400 . S
C815 C820 1.490 . S
C816 H806 0.930 . S
C816 C815 1.400 . S
C816 C819 1.386 . S
H817 C833 0.930 . S
H818 C834 0.931 . S
C819 H807 0.929 . S
C819 C813 1.390 . S
C819 C816 1.386 . S
C820 C815 1.490 . S
C820 C822 1.395 . S
C820 C823 1.403 1_545 S
H821 C827 0.930 . S
C822 H808 0.930 . S
C822 C820 1.395 . S
C822 C825 1.403 . S
C823 C820 1.403 1_565 S
C823 C824 1.524 . S
C823 C827 1.400 . S
C824 H809 0.960 . S
C824 H810 0.960 . S
C824 H811 0.960 . S
C824 C823 1.524 . S
C825 C822 1.403 . S
C825 C826 1.392 . S
C825 C829 1.495 . S
C826 C825 1.392 . S
C826 C827 1.385 1_545 S
C826 C828 1.478 . S
C827 H821 0.930 . S
C827 C823 1.400 . S
C827 C826 1.385 1_565 S
C828 C826 1.478 . S
C828 C830 1.381 . S
C828 C834 1.383 . S
C829 C825 1.495 . S
C829 H835 0.959 . S
C829 H836 0.961 . S
C829 H837 0.960 . S
C830 C828 1.381 . S
C830 C831 1.394 . S
C830 H838 0.930 . S
C831 C830 1.394 . S
C831 C832 1.383 . S
C831 H839 0.929 . S
C832 C831 1.383 . S
C832 C833 1.377 . S
C833 H817 0.930 . S
C833 C832 1.377 . S
C833 C834 1.379 . S
C834 H818 0.931 . S
C834 C828 1.383 . S
C834 C833 1.379 . S
H835 C829 0.959 . S
H836 C829 0.961 . S
H837 C829 0.960 . S
H838 C830 0.930 . S
H839 C831 0.929 . S
H840 C848 0.929 . S
H841 C850 0.930 . S
H842 C852 0.930 . S
H843 C855 0.929 . S
H844 C858 0.930 . S
H845 C860 0.960 . S
H846 C860 0.960 . S
H847 C860 0.960 . S
C848 H840 0.929 . S
C848 C849 1.377 . S
C848 C850 1.384 . S
C849 C848 1.377 . S
C849 C855 1.390 . S
C850 H841 0.930 . S
C850 C848 1.384 . S
C850 C851 1.372 . S
C851 C850 1.372 . S
C851 C852 1.400 . S
C851 C856 1.490 . S
C852 H842 0.930 . S
C852 C851 1.400 . S
C852 C855 1.386 . S
H853 C869 0.930 . S
H854 C870 0.931 . S
C855 H843 0.929 . S
C855 C849 1.390 . S
C855 C852 1.386 . S
C856 C851 1.490 . S
C856 C858 1.395 . S
C856 C859 1.403 . S
H857 C863 0.930 . S
C858 H844 0.930 . S
C858 C856 1.395 . S
C858 C861 1.403 . S
C859 C856 1.403 . S
C859 C860 1.524 . S
C859 C863 1.400 . S
C860 H845 0.960 . S
C860 H846 0.960 . S
C860 H847 0.960 . S
C860 C859 1.524 . S
C861 C858 1.403 . S
C861 C862 1.392 . S
C861 C865 1.495 . S
C862 C861 1.392 . S
C862 C863 1.385 . S
C862 C864 1.478 . S
C863 H857 0.930 . S
C863 C859 1.400 . S
C863 C862 1.385 . S
C864 C862 1.478 . S
C864 C866 1.381 . S
C864 C870 1.383 . S
C865 C861 1.495 . S
C865 H871 0.959 . S
C865 H872 0.961 . S
C865 H873 0.960 . S
C866 C864 1.381 . S
C866 C867 1.394 . S
C866 H874 0.930 . S
C867 C866 1.394 . S
C867 C868 1.383 . S
C867 H875 0.929 . S
C868 C867 1.383 . S
C868 C869 1.377 . S
C869 H853 0.930 . S
C869 C868 1.377 . S
C869 C870 1.379 . S
C870 H854 0.931 . S
C870 C864 1.383 . S
C870 C869 1.379 . S
H871 C865 0.959 . S
H872 C865 0.961 . S
H873 C865 0.960 . S
H874 C866 0.930 . S
H875 C867 0.929 . S
H876 C884 0.929 . S
H877 C886 0.930 . S
H878 C888 0.930 . S
H879 C891 0.929 . S
H880 C894 0.930 . S
H881 C896 0.960 . S
H882 C896 0.960 . S
H883 C896 0.960 . S
C884 H876 0.929 . S
C884 C885 1.377 . S
C884 C886 1.384 . S
C885 C884 1.377 . S
C885 C891 1.390 . S
C886 H877 0.930 . S
C886 C884 1.384 . S
C886 C887 1.372 . S
C887 C886 1.372 . S
C887 C888 1.400 . S
C887 C892 1.490 . S
C888 H878 0.930 . S
C888 C887 1.400 . S
C888 C891 1.386 . S
H889 C905 0.930 . S
H890 C906 0.931 . S
C891 H879 0.929 . S
C891 C885 1.390 . S
C891 C888 1.386 . S
C892 C887 1.490 . S
C892 C894 1.395 1_545 S
C892 C895 1.403 . S
H893 C899 0.930 . S
C894 H880 0.930 . S
C894 C892 1.395 1_565 S
C894 C897 1.403 . S
C895 C892 1.403 . S
C895 C896 1.524 . S
C895 C899 1.400 . S
C896 H881 0.960 . S
C896 H882 0.960 . S
C896 H883 0.960 . S
C896 C895 1.524 . S
C897 C894 1.403 . S
C897 C898 1.392 1_565 S
C897 C901 1.495 . S
C898 C897 1.392 1_545 S
C898 C899 1.385 . S
C898 C900 1.478 . S
C899 H893 0.930 . S
C899 C895 1.400 . S
C899 C898 1.385 . S
C900 C898 1.478 . S
C900 C902 1.381 . S
C900 C906 1.383 . S
C901 C897 1.495 . S
C901 H907 0.959 . S
C901 H908 0.961 . S
C901 H909 0.960 . S
C902 C900 1.381 . S
C902 C903 1.394 . S
C902 H910 0.930 . S
C903 C902 1.394 . S
C903 C904 1.383 . S
C903 H911 0.929 . S
C904 C903 1.383 . S
C904 C905 1.377 . S
C905 H889 0.930 . S
C905 C904 1.377 . S
C905 C906 1.379 . S
C906 H890 0.931 . S
C906 C900 1.383 . S
C906 C905 1.379 . S
H907 C901 0.959 . S
H908 C901 0.961 . S
H909 C901 0.960 . S
H910 C902 0.930 . S
H911 C903 0.929 . S
H912 C920 0.929 . S
H913 C922 0.930 . S
H914 C924 0.930 . S
H915 C927 0.929 . S
H916 C930 0.930 . S
H917 C932 0.960 . S
H918 C932 0.960 . S
H919 C932 0.960 . S
C920 H912 0.929 . S
C920 C921 1.377 . S
C920 C922 1.384 . S
C921 C920 1.377 . S
C921 C927 1.390 . S
C922 H913 0.930 . S
C922 C920 1.384 . S
C922 C923 1.372 . S
C923 C922 1.372 . S
C923 C924 1.400 . S
C923 C928 1.490 . S
C924 H914 0.930 . S
C924 C923 1.400 . S
C924 C927 1.386 . S
H925 C941 0.930 . S
H926 C942 0.931 . S
C927 H915 0.929 . S
C927 C921 1.390 . S
C927 C924 1.386 . S
C928 C923 1.490 . S
C928 C930 1.395 . S
C928 C931 1.403 . S
H929 C935 0.930 . S
C930 H916 0.930 . S
C930 C928 1.395 . S
C930 C933 1.403 . S
C931 C928 1.403 . S
C931 C932 1.524 . S
C931 C935 1.400 . S
C932 H917 0.960 . S
C932 H918 0.960 . S
C932 H919 0.960 . S
C932 C931 1.524 . S
C933 C930 1.403 . S
C933 C934 1.392 . S
C933 C937 1.495 . S
C934 C933 1.392 . S
C934 C935 1.385 . S
C934 C936 1.478 . S
C935 H929 0.930 . S
C935 C931 1.400 . S
C935 C934 1.385 . S
C936 C934 1.478 . S
C936 C938 1.381 . S
C936 C942 1.383 . S
C937 C933 1.495 . S
C937 H943 0.959 . S
C937 H944 0.961 . S
C937 H945 0.960 . S
C938 C936 1.381 . S
C938 C939 1.394 1_556 S
C938 H946 0.930 . S
C939 C938 1.394 1_554 S
C939 C940 1.383 . S
C939 H947 0.929 . S
C940 C939 1.383 . S
C940 C941 1.377 . S
C941 H925 0.930 . S
C941 C940 1.377 . S
C941 C942 1.379 1_554 S
C942 H926 0.931 . S
C942 C936 1.383 . S
C942 C941 1.379 1_556 S
H943 C937 0.959 . S
H944 C937 0.961 . S
H945 C937 0.960 . S
H946 C938 0.930 . S
H947 C939 0.929 . S
H948 C956 0.929 . S
H949 C958 0.930 . S
H950 C960 0.930 . S
H951 C963 0.929 . S
H952 C966 0.930 . S
H953 C968 0.960 . S
H954 C968 0.960 . S
H955 C968 0.960 . S
C956 H948 0.929 . S
C956 C957 1.377 . S
C956 C958 1.384 . S
C957 C956 1.377 . S
C957 C963 1.390 1_455 S
C958 H949 0.930 . S
C958 C956 1.384 . S
C958 C959 1.372 . S
C959 C958 1.372 . S
C959 C960 1.400 1_455 S
C959 C964 1.490 . S
C960 H950 0.930 . S
C960 C959 1.400 1_655 S
C960 C963 1.386 . S
H961 C977 0.930 . S
H962 C978 0.931 . S
C963 H951 0.929 . S
C963 C957 1.390 1_655 S
C963 C960 1.386 . S
C964 C959 1.490 . S
C964 C966 1.395 . S
C964 C967 1.403 1_455 S
H965 C971 0.930 . S
C966 H952 0.930 . S
C966 C964 1.395 . S
C966 C969 1.403 . S
C967 C964 1.403 1_655 S
C967 C968 1.524 . S
C967 C971 1.400 . S
C968 H953 0.960 . S
C968 H954 0.960 . S
C968 H955 0.960 . S
C968 C967 1.524 . S
C969 C966 1.403 . S
C969 C970 1.392 . S
C969 C973 1.495 . S
C970 C969 1.392 . S
C970 C971 1.385 1_455 S
C970 C972 1.478 . S
C971 H965 0.930 . S
C971 C967 1.400 . S
C971 C970 1.385 1_655 S
C972 C970 1.478 . S
C972 C974 1.381 . S
C972 C978 1.383 1_455 S
C973 C969 1.495 . S
C973 H979 0.959 . S
C973 H980 0.961 . S
C973 H981 0.960 . S
C974 C972 1.381 . S
C974 C975 1.394 . S
C974 H982 0.930 . S
C975 C974 1.394 . S
C975 C976 1.383 . S
C975 H983 0.929 . S
C976 C975 1.383 . S
C976 C977 1.377 1_455 S
C977 H961 0.930 . S
C977 C976 1.377 1_655 S
C977 C978 1.379 . S
C978 H962 0.931 . S
C978 C972 1.383 1_655 S
C978 C977 1.379 . S
H979 C973 0.959 . S
H980 C973 0.961 . S
H981 C973 0.960 . S
H982 C974 0.930 . S
H983 C975 0.929 . S
C345 C12 2.859 . S
C364 C325 2.802 . S
C381 C52 2.848 . S
C400 C253 2.780 . S
C417 C111 2.915 . S
C436 C289 2.840 . S
C453 C31 3.076 . S
C472 C301 3.021 . S
C508 C229 3.036 . S
C489 C71 3.088 . S
C544 C265 2.968 . S
C525 C92 3.016 . S
C561 C48 0.383 . S
C580 C181 0.352 . S
C597 C109 0.424 . S
C616 C193 0.321 . S
C633 C29 0.406 . S
C652 C121 0.355 . S
C688 C157 0.286 . S
C669 C69 0.340 . S
C724 C217 0.251 . S
C705 C88 0.247 . S
C741 C8 0.243 . S
C760 C145 0.391 . S
C796 C223 1.097 . S
C777 C17 1.089 . S
C813 C57 1.084 . S
C832 C151 1.106 . S
C849 C97 1.087 . S
C868 C187 1.109 . S
C904 C295 1.772 . S
C885 C42 1.708 . S
C940 C331 1.755 . S
C921 C82 1.724 . S
C957 C2 1.727 . S
C976 C259 1.764 . S
