# Generated by pormake.
# Topology ptr, (4,4)-cn, num edge types: 1
# Building blocks:
#     Node 0, Type 0, BuildingBlock: GALJAG_clean_sbu_0, # of connection points: 4
#     Node 1, Type 0, BuildingBlock: GALJAG_clean_sbu_0, # of connection points: 4
#     Node 2, Type 0, BuildingBlock: GALJAG_clean_sbu_0, # of connection points: 4
#     Node 3, Type 0, BuildingBlock: GALJAG_clean_sbu_0, # of connection points: 4
#     Node 4, Type 0, BuildingBlock: GALJAG_clean_sbu_0, # of connection points: 4
#     Node 5, Type 0, BuildingBlock: GALJAG_clean_sbu_0, # of connection points: 4
#     Node 6, Type 0, BuildingBlock: GALJAG_clean_sbu_0, # of connection points: 4
#     Node 7, Type 0, BuildingBlock: GALJAG_clean_sbu_0, # of connection points: 4
#     Node 8, Type 0, BuildingBlock: GALJAG_clean_sbu_0, # of connection points: 4
#     Node 9, Type 0, BuildingBlock: GALJAG_clean_sbu_0, # of connection points: 4
#     Node 10, Type 0, BuildingBlock: GALJAG_clean_sbu_0, # of connection points: 4
#     Node 11, Type 0, BuildingBlock: GALJAG_clean_sbu_0, # of connection points: 4
#     Node 12, Type 0, BuildingBlock: GALJAG_clean_sbu_0, # of connection points: 4
#     Node 13, Type 0, BuildingBlock: GALJAG_clean_sbu_0, # of connection points: 4
#     Node 14, Type 0, BuildingBlock: GALJAG_clean_sbu_0, # of connection points: 4
#     Node 15, Type 0, BuildingBlock: GALJAG_clean_sbu_0, # of connection points: 4
#     Node 16, Type 0, BuildingBlock: GALJAG_clean_sbu_0, # of connection points: 4
#     Node 17, Type 0, BuildingBlock: GALJAG_clean_sbu_0, # of connection points: 4
#     Node 18, Type 1, BuildingBlock: NAHDIM_clean_linker_0, # of connection points: 4
#     Node 19, Type 1, BuildingBlock: NAHDIM_clean_linker_0, # of connection points: 4
#     Node 20, Type 1, BuildingBlock: NAHDIM_clean_linker_0, # of connection points: 4
#     Node 21, Type 1, BuildingBlock: NAHDIM_clean_linker_0, # of connection points: 4
#     Node 22, Type 1, BuildingBlock: NAHDIM_clean_linker_0, # of connection points: 4
#     Node 23, Type 1, BuildingBlock: NAHDIM_clean_linker_0, # of connection points: 4
#     Node 24, Type 1, BuildingBlock: NAHDIM_clean_linker_0, # of connection points: 4
#     Node 25, Type 1, BuildingBlock: NAHDIM_clean_linker_0, # of connection points: 4
#     Node 26, Type 1, BuildingBlock: NAHDIM_clean_linker_0, # of connection points: 4
#     Node 27, Type 1, BuildingBlock: NAHDIM_clean_linker_0, # of connection points: 4
#     Node 28, Type 1, BuildingBlock: NAHDIM_clean_linker_0, # of connection points: 4
#     Node 29, Type 1, BuildingBlock: NAHDIM_clean_linker_0, # of connection points: 4
#     Node 30, Type 1, BuildingBlock: NAHDIM_clean_linker_0, # of connection points: 4
#     Node 31, Type 1, BuildingBlock: NAHDIM_clean_linker_0, # of connection points: 4
#     Node 32, Type 1, BuildingBlock: NAHDIM_clean_linker_0, # of connection points: 4
#     Node 33, Type 1, BuildingBlock: NAHDIM_clean_linker_0, # of connection points: 4
#     Node 34, Type 1, BuildingBlock: NAHDIM_clean_linker_0, # of connection points: 4
#     Node 35, Type 1, BuildingBlock: NAHDIM_clean_linker_0, # of connection points: 4
#     Edge 36, Type (0, 1), BuildingBlock: KIFKEQ_clean_linker_1, # of connection points: 2
#     Edge 37, Type (0, 1), BuildingBlock: KIFKEQ_clean_linker_1, # of connection points: 2
#     Edge 38, Type (0, 1), BuildingBlock: KIFKEQ_clean_linker_1, # of connection points: 2
#     Edge 39, Type (0, 1), BuildingBlock: KIFKEQ_clean_linker_1, # of connection points: 2
#     Edge 40, Type (0, 1), BuildingBlock: KIFKEQ_clean_linker_1, # of connection points: 2
#     Edge 41, Type (0, 1), BuildingBlock: KIFKEQ_clean_linker_1, # of connection points: 2
#     Edge 42, Type (0, 1), BuildingBlock: KIFKEQ_clean_linker_1, # of connection points: 2
#     Edge 43, Type (0, 1), BuildingBlock: KIFKEQ_clean_linker_1, # of connection points: 2
#     Edge 44, Type (0, 1), BuildingBlock: KIFKEQ_clean_linker_1, # of connection points: 2
#     Edge 45, Type (0, 1), BuildingBlock: KIFKEQ_clean_linker_1, # of connection points: 2
#     Edge 46, Type (0, 1), BuildingBlock: KIFKEQ_clean_linker_1, # of connection points: 2
#     Edge 47, Type (0, 1), BuildingBlock: KIFKEQ_clean_linker_1, # of connection points: 2
#     Edge 48, Type (0, 1), BuildingBlock: KIFKEQ_clean_linker_1, # of connection points: 2
#     Edge 49, Type (0, 1), BuildingBlock: KIFKEQ_clean_linker_1, # of connection points: 2
#     Edge 50, Type (0, 1), BuildingBlock: KIFKEQ_clean_linker_1, # of connection points: 2
#     Edge 51, Type (0, 1), BuildingBlock: KIFKEQ_clean_linker_1, # of connection points: 2
#     Edge 52, Type (0, 1), BuildingBlock: KIFKEQ_clean_linker_1, # of connection points: 2
#     Edge 53, Type (0, 1), BuildingBlock: KIFKEQ_clean_linker_1, # of connection points: 2
#     Edge 54, Type (0, 1), BuildingBlock: KIFKEQ_clean_linker_1, # of connection points: 2
#     Edge 55, Type (0, 1), BuildingBlock: KIFKEQ_clean_linker_1, # of connection points: 2
#     Edge 56, Type (0, 1), BuildingBlock: KIFKEQ_clean_linker_1, # of connection points: 2
#     Edge 57, Type (0, 1), BuildingBlock: KIFKEQ_clean_linker_1, # of connection points: 2
#     Edge 58, Type (0, 1), BuildingBlock: KIFKEQ_clean_linker_1, # of connection points: 2
#     Edge 59, Type (0, 1), BuildingBlock: KIFKEQ_clean_linker_1, # of connection points: 2
#     Edge 60, Type (0, 1), BuildingBlock: KIFKEQ_clean_linker_1, # of connection points: 2
#     Edge 61, Type (0, 1), BuildingBlock: KIFKEQ_clean_linker_1, # of connection points: 2
#     Edge 62, Type (0, 1), BuildingBlock: KIFKEQ_clean_linker_1, # of connection points: 2
#     Edge 63, Type (0, 1), BuildingBlock: KIFKEQ_clean_linker_1, # of connection points: 2
#     Edge 64, Type (0, 1), BuildingBlock: KIFKEQ_clean_linker_1, # of connection points: 2
#     Edge 65, Type (0, 1), BuildingBlock: KIFKEQ_clean_linker_1, # of connection points: 2
#     Edge 66, Type (0, 1), BuildingBlock: KIFKEQ_clean_linker_1, # of connection points: 2
#     Edge 67, Type (0, 1), BuildingBlock: KIFKEQ_clean_linker_1, # of connection points: 2
#     Edge 68, Type (0, 1), BuildingBlock: KIFKEQ_clean_linker_1, # of connection points: 2
#     Edge 69, Type (0, 1), BuildingBlock: KIFKEQ_clean_linker_1, # of connection points: 2
#     Edge 70, Type (0, 1), BuildingBlock: KIFKEQ_clean_linker_1, # of connection points: 2
#     Edge 71, Type (0, 1), BuildingBlock: KIFKEQ_clean_linker_1, # of connection points: 2
#     Edge 72, Type (0, 1), BuildingBlock: KIFKEQ_clean_linker_1, # of connection points: 2
#     Edge 73, Type (0, 1), BuildingBlock: KIFKEQ_clean_linker_1, # of connection points: 2
#     Edge 74, Type (0, 1), BuildingBlock: KIFKEQ_clean_linker_1, # of connection points: 2
#     Edge 75, Type (0, 1), BuildingBlock: KIFKEQ_clean_linker_1, # of connection points: 2
#     Edge 76, Type (0, 1), BuildingBlock: KIFKEQ_clean_linker_1, # of connection points: 2
#     Edge 77, Type (0, 1), BuildingBlock: KIFKEQ_clean_linker_1, # of connection points: 2
#     Edge 78, Type (0, 1), BuildingBlock: KIFKEQ_clean_linker_1, # of connection points: 2
#     Edge 79, Type (0, 1), BuildingBlock: KIFKEQ_clean_linker_1, # of connection points: 2
#     Edge 80, Type (0, 1), BuildingBlock: KIFKEQ_clean_linker_1, # of connection points: 2
#     Edge 81, Type (0, 1), BuildingBlock: KIFKEQ_clean_linker_1, # of connection points: 2
#     Edge 82, Type (0, 1), BuildingBlock: KIFKEQ_clean_linker_1, # of connection points: 2
#     Edge 83, Type (0, 1), BuildingBlock: KIFKEQ_clean_linker_1, # of connection points: 2
#     Edge 84, Type (0, 1), BuildingBlock: KIFKEQ_clean_linker_1, # of connection points: 2
#     Edge 85, Type (0, 1), BuildingBlock: KIFKEQ_clean_linker_1, # of connection points: 2
#     Edge 86, Type (0, 1), BuildingBlock: KIFKEQ_clean_linker_1, # of connection points: 2
#     Edge 87, Type (0, 1), BuildingBlock: KIFKEQ_clean_linker_1, # of connection points: 2
#     Edge 88, Type (0, 1), BuildingBlock: KIFKEQ_clean_linker_1, # of connection points: 2
#     Edge 89, Type (0, 1), BuildingBlock: KIFKEQ_clean_linker_1, # of connection points: 2
#     Edge 90, Type (0, 1), BuildingBlock: KIFKEQ_clean_linker_1, # of connection points: 2
#     Edge 91, Type (0, 1), BuildingBlock: KIFKEQ_clean_linker_1, # of connection points: 2
#     Edge 92, Type (0, 1), BuildingBlock: KIFKEQ_clean_linker_1, # of connection points: 2
#     Edge 93, Type (0, 1), BuildingBlock: KIFKEQ_clean_linker_1, # of connection points: 2
#     Edge 94, Type (0, 1), BuildingBlock: KIFKEQ_clean_linker_1, # of connection points: 2
#     Edge 95, Type (0, 1), BuildingBlock: KIFKEQ_clean_linker_1, # of connection points: 2
#     Edge 96, Type (0, 1), BuildingBlock: KIFKEQ_clean_linker_1, # of connection points: 2
#     Edge 97, Type (0, 1), BuildingBlock: KIFKEQ_clean_linker_1, # of connection points: 2
#     Edge 98, Type (0, 1), BuildingBlock: KIFKEQ_clean_linker_1, # of connection points: 2
#     Edge 99, Type (0, 1), BuildingBlock: KIFKEQ_clean_linker_1, # of connection points: 2
#     Edge 100, Type (0, 1), BuildingBlock: KIFKEQ_clean_linker_1, # of connection points: 2
#     Edge 101, Type (0, 1), BuildingBlock: KIFKEQ_clean_linker_1, # of connection points: 2
#     Edge 102, Type (0, 1), BuildingBlock: KIFKEQ_clean_linker_1, # of connection points: 2
#     Edge 103, Type (0, 1), BuildingBlock: KIFKEQ_clean_linker_1, # of connection points: 2
#     Edge 104, Type (0, 1), BuildingBlock: KIFKEQ_clean_linker_1, # of connection points: 2
#     Edge 105, Type (0, 1), BuildingBlock: KIFKEQ_clean_linker_1, # of connection points: 2
#     Edge 106, Type (0, 1), BuildingBlock: KIFKEQ_clean_linker_1, # of connection points: 2
#     Edge 107, Type (0, 1), BuildingBlock: KIFKEQ_clean_linker_1, # of connection points: 2
# Relax obj value: 0.026
# Max RMSD: 0.104
# Mean RMSD: 0.052
data_MOF--net-ptr--node1-GALJAG_clean_sbu_0--node2-NAHDIM_clean_linker_0--edge1-KIFKEQ_clean_linker_1
_symmetry_space_group_name_H-M    P1
_symmetry_Int_Tables_number       1
_symmetry_cell_setting            triclinic
loop_
_symmetry_equiv_pos_as_xyz
'x, y, z'
_cell_length_a     94.0443
_cell_length_b     93.699546
_cell_length_c     85.441565
_cell_angle_alpha  90.791351
_cell_angle_beta   90.459472
_cell_angle_gamma 120.03147
loop_
_atom_site_label
_atom_site_type_symbol
_atom_site_fract_x
_atom_site_fract_y
_atom_site_fract_z
_atom_type_partial_charge
In0 In 0.00487 0.34444 0.00578 0.0
O1 O 0.98958 0.34693 0.02519 0.0
O2 O 0.01531 0.3639 0.02517 0.0
C3 C 0.98352 0.31676 0.99005 0.0
C4 C 0.02523 0.33422 0.01645 0.0
C5 C 0.00701 0.36572 0.98389 0.0
O6 O 0.98051 0.32013 0.00359 0.0
O7 O 0.99717 0.32732 0.9846 0.0
O8 O 0.01875 0.36308 0.98657 0.0
O9 O 0.9947 0.35799 0.99248 0.0
C10 C 0.00174 0.35925 0.03169 0.0
O11 O 0.03056 0.34738 0.00884 0.0
O12 O 0.00993 0.32652 0.0185 0.0
In13 In 0.65259 0.65088 0.01277 0.0
O14 O 0.64903 0.62844 0.0265 0.0
O15 O 0.6344 0.6391 0.03232 0.0
C16 C 0.68031 0.65951 0.99698 0.0
C17 C 0.66367 0.6788 0.03007 0.0
C18 C 0.63009 0.63878 0.98921 0.0
O19 O 0.67525 0.64876 0.00749 0.0
O20 O 0.67136 0.66578 0.99448 0.0
O21 O 0.63255 0.6511 0.99751 0.0
O22 O 0.6388 0.63257 0.99293 0.0
C23 C 0.63808 0.62818 0.03516 0.0
O24 O 0.65154 0.67378 0.02072 0.0
O25 O 0.67017 0.66985 0.0305 0.0
In26 In 0.34611 0.00229 0.00723 0.0
O27 O 0.34807 0.02762 0.00562 0.0
O28 O 0.3331 0.00886 0.98886 0.0
C29 C 0.36498 0.00395 0.03176 0.0
C30 C 0.36339 0.99952 0.98371 0.0
C31 C 0.31667 0.98216 0.0196 0.0
O32 O 0.36451 0.0165 0.02716 0.0
O33 O 0.35616 0.99089 0.02388 0.0
O34 O 0.32229 0.97742 0.00853 0.0
O35 O 0.32584 0.99691 0.02417 0.0
C36 C 0.33865 0.02351 0.9937 0.0
O37 O 0.34969 0.98753 0.98763 0.0
O38 O 0.36828 0.01255 0.99181 0.0
In39 In 0.00024 0.65375 0.00905 0.0
O40 O 0.0176 0.65148 0.99185 0.0
O41 O 0.99245 0.63259 0.99168 0.0
C42 C 0.02366 0.68333 0.02086 0.0
C43 C 0.978 0.6617 0.99822 0.0
C44 C 0.99216 0.63126 0.0316 0.0
O45 O 0.02167 0.68027 0.00632 0.0
O46 O 0.01432 0.67139 0.02922 0.0
O47 O 0.9818 0.63449 0.02553 0.0
O48 O 0.00643 0.63922 0.02612 0.0
C49 C 0.00646 0.63804 0.98582 0.0
O50 O 0.9802 0.66061 0.01264 0.0
O51 O 0.98667 0.65843 0.98939 0.0
In52 In 0.35374 0.35708 0.00289 0.0
O53 O 0.35497 0.37839 0.98917 0.0
O54 O 0.37125 0.3699 0.98275 0.0
C55 C 0.32645 0.34907 0.01936 0.0
C56 C 0.34262 0.32818 0.987 0.0
C57 C 0.37698 0.36931 0.02586 0.0
O58 O 0.33051 0.35827 0.00763 0.0
O59 O 0.3363 0.34415 0.02294 0.0
O60 O 0.37292 0.35596 0.01859 0.0
O61 O 0.36956 0.37664 0.02133 0.0
C62 C 0.36613 0.37979 0.98016 0.0
O63 O 0.35593 0.33479 0.99481 0.0
O64 O 0.33521 0.33625 0.98704 0.0
In65 In 0.652 -9e-05 0.01176 0.0
O66 O 0.6518 0.01787 0.03002 0.0
O67 O 0.63131 0.99354 0.02882 0.0
C68 C 0.68049 0.01881 0.99712 0.0
C69 C 0.66074 0.9803 0.02678 0.0
C70 C 0.63134 0.99372 0.98723 0.0
O71 O 0.67426 0.0249 0.00619 0.0
O72 O 0.67231 0.00332 0.99544 0.0
O73 O 0.63234 0.98234 0.99401 0.0
O74 O 0.64051 0.00796 0.99297 0.0
C75 C 0.63804 0.00756 0.03546 0.0
O76 O 0.64913 0.97462 0.01675 0.0
O77 O 0.66761 0.99565 0.02928 0.0
In78 In 0.66661 0.67921 0.34057 0.0
O79 O 0.6466 0.67946 0.35551 0.0
O80 O 0.67139 0.69832 0.35958 0.0
C81 C 0.64883 0.65041 0.32467 0.0
C82 C 0.68629 0.67123 0.35667 0.0
C83 C 0.67492 0.70153 0.31769 0.0
O84 O 0.64214 0.65643 0.33321 0.0
O85 O 0.66429 0.65876 0.32443 0.0
O86 O 0.68539 0.70203 0.32737 0.0
O87 O 0.66046 0.69 0.31972 0.0
C88 C 0.65656 0.69218 0.36335 0.0
O89 O 0.69075 0.67932 0.34419 0.0
O90 O 0.67201 0.66729 0.36102 0.0
In91 In 0.31724 0.98348 0.34718 0.0
O92 O 0.31114 0.96 0.36022 0.0
O93 O 0.30333 0.97572 0.37022 0.0
C94 C 0.34304 0.98463 0.33232 0.0
C95 C 0.32963 0.01416 0.35974 0.0
C96 C 0.29337 0.97249 0.32482 0.0
O97 O 0.34006 0.98082 0.3465 0.0
O98 O 0.33309 0.98799 0.32565 0.0
O99 O 0.30217 0.98758 0.32844 0.0
O100 O 0.29645 0.96301 0.33262 0.0
C101 C 0.30387 0.96259 0.37127 0.0
O102 O 0.31495 0.00577 0.35485 0.0
O103 O 0.33798 0.0071 0.35824 0.0
In104 In 0.01832 0.3348 0.34087 0.0
O105 O 0.02398 0.36125 0.33879 0.0
O106 O 0.00788 0.34388 0.32161 0.0
C107 C 0.03872 0.34212 0.36606 0.0
C108 C 0.03222 0.32745 0.31689 0.0
C109 C 0.98828 0.31344 0.35224 0.0
O110 O 0.0323 0.35059 0.3623 0.0
O111 O 0.0349 0.32988 0.35713 0.0
O112 O 0.99715 0.30869 0.34561 0.0
O113 O 0.99446 0.32885 0.35296 0.0
C114 C 0.01527 0.35865 0.32662 0.0
O115 O 0.01893 0.31682 0.32289 0.0
O116 O 0.03854 0.34167 0.32308 0.0
In117 In 0.66745 0.97877 0.34436 0.0
O118 O 0.68836 0.98161 0.32903 0.0
O119 O 0.66609 0.95859 0.32797 0.0
C120 C 0.68788 0.00875 0.35766 0.0
C121 C 0.64464 0.98425 0.33033 0.0
C122 C 0.65738 0.95539 0.3663 0.0
O123 O 0.68972 0.00478 0.344 0.0
O124 O 0.67591 0.99751 0.36477 0.0
O125 O 0.64765 0.95647 0.35678 0.0
O126 O 0.67236 0.96596 0.36457 0.0
C127 C 0.68046 0.96733 0.32295 0.0
O128 O 0.64524 0.98261 0.34487 0.0
O129 O 0.65539 0.98293 0.32281 0.0
In130 In 0.02218 0.69173 0.33762 0.0
O131 O 0.02075 0.69746 0.3119 0.0
O132 O 0.03618 0.71749 0.327 0.0
C133 C 0.99391 0.68452 0.35206 0.0
C134 C 0.01812 0.6628 0.32646 0.0
C135 C 0.04545 0.7042 0.36049 0.0
O136 O 0.99774 0.69159 0.33904 0.0
O137 O 0.00439 0.68137 0.35779 0.0
O138 O 0.04323 0.69235 0.35163 0.0
O139 O 0.03617 0.71 0.35758 0.0
C140 C 0.03063 0.7127 0.3133 0.0
O141 O 0.03207 0.67569 0.32744 0.0
O142 O 0.00639 0.66457 0.33109 0.0
In143 In 0.31299 0.33308 0.34403 0.0
O144 O 0.30745 0.30827 0.35426 0.0
O145 O 0.33042 0.32952 0.35979 0.0
C146 C 0.29043 0.32075 0.32048 0.0
C147 C 0.30318 0.34562 0.36748 0.0
C148 C 0.33964 0.35186 0.32665 0.0
O149 O 0.29741 0.31326 0.32573 0.0
O150 O 0.29453 0.33432 0.32733 0.0
O151 O 0.33196 0.35783 0.33365 0.0
O152 O 0.33373 0.33659 0.32828 0.0
C153 C 0.32118 0.31422 0.36128 0.0
O154 O 0.31755 0.35303 0.3622 0.0
O155 O 0.29361 0.33197 0.36076 0.0
In156 In 0.33404 0.01815 0.67416 0.0
O157 O 0.35857 0.01889 0.6733 0.0
O158 O 0.34572 0.01237 0.6948 0.0
C159 C 0.34136 0.03839 0.64945 0.0
C160 C 0.32422 0.03113 0.69726 0.0
C161 C 0.31345 0.98737 0.66293 0.0
O162 O 0.35148 0.04101 0.66039 0.0
O163 O 0.32758 0.02563 0.65097 0.0
O164 O 0.30856 0.99724 0.66669 0.0
O165 O 0.32863 0.99292 0.66508 0.0
C166 C 0.35839 0.01504 0.68744 0.0
O167 O 0.31514 0.01671 0.69185 0.0
O168 O 0.33801 0.03897 0.6909 0.0
In169 In 0.98298 0.31354 0.67626 0.0
O170 O 0.97812 0.33398 0.6847 0.0
O171 O 0.99935 0.33408 0.69353 0.0
C172 C 0.96133 0.30077 0.65204 0.0
C173 C 0.96969 0.29031 0.69842 0.0
C174 C 0.01143 0.32348 0.66126 0.0
O175 O 0.9637 0.31339 0.65973 0.0
O176 O 0.9698 0.29456 0.65662 0.0
O177 O 0.00648 0.31281 0.67182 0.0
O178 O 0.002 0.32908 0.65826 0.0
C179 C 0.99065 0.34084 0.6936 0.0
O180 O 0.98248 0.29317 0.69121 0.0
O181 O 0.96353 0.29892 0.69425 0.0
In182 In 0.68221 0.66699 0.67256 0.0
O183 O 0.68254 0.69154 0.6708 0.0
O184 O 0.66759 0.67225 0.6546 0.0
C185 C 0.70505 0.67614 0.69567 0.0
C186 C 0.69643 0.65887 0.64936 0.0
C187 C 0.6536 0.64607 0.68624 0.0
O188 O 0.70417 0.68648 0.687 0.0
O189 O 0.6946 0.66129 0.69254 0.0
O190 O 0.65784 0.64269 0.67335 0.0
O191 O 0.66374 0.65997 0.69215 0.0
C192 C 0.67265 0.68686 0.65925 0.0
O193 O 0.68622 0.6483 0.65848 0.0
O194 O 0.69957 0.67341 0.65209 0.0
In195 In 0.33362 0.31618 0.67593 0.0
O196 O 0.35241 0.32051 0.65719 0.0
O197 O 0.33332 0.29587 0.66042 0.0
C198 C 0.35212 0.34496 0.69192 0.0
C199 C 0.31246 0.32241 0.65994 0.0
C200 C 0.32305 0.29328 0.69845 0.0
O201 O 0.35819 0.33676 0.68616 0.0
O202 O 0.33685 0.33854 0.68978 0.0
O203 O 0.31348 0.29396 0.68843 0.0
O204 O 0.338 0.30398 0.69695 0.0
C205 C 0.34589 0.30559 0.6529 0.0
O206 O 0.30883 0.31488 0.67272 0.0
O207 O 0.32655 0.32638 0.65506 0.0
In208 In 0.69246 0.02484 0.6667 0.0
O209 O 0.69088 0.04389 0.65164 0.0
O210 O 0.71015 0.03888 0.64707 0.0
C211 C 0.66649 0.02167 0.68284 0.0
C212 C 0.68236 0.99679 0.64972 0.0
C213 C 0.71421 0.03199 0.69067 0.0
O214 O 0.67844 0.0356 0.67948 0.0
O215 O 0.66773 0.00957 0.67806 0.0
O216 O 0.70195 0.01786 0.68827 0.0
O217 O 0.71586 0.04248 0.68071 0.0
C218 C 0.70312 0.04686 0.64342 0.0
O219 O 0.69573 0.00355 0.65746 0.0
O220 O 0.67446 0.00438 0.65031 0.0
In221 In 0.97424 0.6686 0.67493 0.0
O222 O 0.96352 0.64283 0.68533 0.0
O223 O 0.98844 0.66051 0.69047 0.0
C224 C 0.95335 0.65711 0.65003 0.0
C225 C 0.96659 0.68317 0.69833 0.0
C226 C 0.00231 0.68713 0.65928 0.0
O227 O 0.96124 0.65035 0.6548 0.0
O228 O 0.95574 0.66959 0.65799 0.0
O229 O 0.99352 0.69295 0.66404 0.0
O230 O 0.99685 0.67219 0.66235 0.0
C231 C 0.97677 0.64602 0.69217 0.0
O232 O 0.98117 0.68801 0.69435 0.0
O233 O 0.95578 0.67121 0.69025 0.0
C234 C 0.2026 0.28613 0.05227 0.0
C235 C 0.2129 0.30005 0.06408 0.0
C236 C 0.20266 0.29673 0.09042 0.0
C237 C 0.20698 0.31292 0.09463 0.0
C238 C 0.19772 0.31602 0.10554 0.0
C239 C 0.18375 0.30261 0.11217 0.0
C240 C 0.17976 0.28624 0.10833 0.0
C241 C 0.18952 0.28354 0.09769 0.0
C242 C 0.20256 0.33362 0.10957 0.0
C243 C 0.1648 0.2716 0.11491 0.0
C244 C 0.07905 0.31257 0.0707 0.0
C245 C 0.08783 0.30742 0.08181 0.0
C246 C 0.11466 0.31731 0.09427 0.0
C247 C 0.11085 0.30181 0.10002 0.0
C248 C 0.12231 0.2999 0.109 0.0
C249 C 0.13789 0.31378 0.11244 0.0
C250 C 0.14182 0.32939 0.10666 0.0
C251 C 0.13014 0.33094 0.0976 0.0
C252 C 0.11778 0.283 0.11476 0.0
C253 C 0.15836 0.34441 0.11007 0.0
C254 C 0.11005 0.31047 0.21428 0.0
C255 C 0.10579 0.29604 0.20549 0.0
C256 C 0.11768 0.2945 0.19697 0.0
C257 C 0.13406 0.3078 0.19692 0.0
C258 C 0.13836 0.32234 0.2057 0.0
C259 C 0.12631 0.3234 0.21438 0.0
C260 C 0.11271 0.27863 0.18802 0.0
C261 C 0.15567 0.3368 0.20584 0.0
C262 C 0.22087 0.26587 0.21652 0.0
C263 C 0.2206 0.28144 0.22165 0.0
C264 C 0.19626 0.28316 0.21471 0.0
C265 C 0.18007 0.27216 0.21007 0.0
C266 C 0.17108 0.27737 0.201 0.0
C267 C 0.17835 0.29415 0.19693 0.0
C268 C 0.1946 0.30548 0.20205 0.0
C269 C 0.20346 0.29983 0.21081 0.0
C270 C 0.15378 0.26491 0.19582 0.0
C271 C 0.20251 0.32356 0.19843 0.0
C272 C 0.17244 0.3057 0.12178 0.0
C273 C 0.16149 0.30914 0.11381 0.0
C274 C 0.15011 0.31178 0.12184 0.0
C275 C 0.1497 0.31121 0.13836 0.0
C276 C 0.1386 0.31411 0.14682 0.0
C277 C 0.1378 0.31285 0.16302 0.0
C278 C 0.14798 0.3085 0.17138 0.0
C279 C 0.14671 0.30642 0.18777 0.0
C280 C 0.1571 0.30223 0.19572 0.0
C281 C 0.16868 0.29983 0.18776 0.0
C282 C 0.1701 0.30177 0.17134 0.0
C283 C 0.18153 0.29935 0.1629 0.0
C284 C 0.1826 0.301 0.14671 0.0
C285 C 0.172 0.30474 0.1383 0.0
C286 C 0.16052 0.30744 0.1466 0.0
C287 C 0.15962 0.30603 0.16313 0.0
C288 C 0.07468 0.30563 0.20803 0.0
C289 C 0.08208 0.30264 0.22282 0.0
O290 O 0.21067 0.2936 0.07895 0.0
O291 O 0.20437 0.27739 0.22339 0.0
O292 O 0.09905 0.31255 0.22282 0.0
O293 O 0.10382 0.31956 0.08548 0.0
H294 H 0.2083 0.30894 0.06335 0.0
H295 H 0.18938 0.28049 0.05508 0.0
H296 H 0.20599 0.27636 0.05263 0.0
H297 H 0.2044 0.29102 0.04023 0.0
H298 H 0.21744 0.3231 0.08918 0.0
H299 H 0.18642 0.27108 0.0944 0.0
H300 H 0.19367 0.33657 0.10399 0.0
H301 H 0.21506 0.34251 0.10545 0.0
H302 H 0.20215 0.33527 0.12242 0.0
H303 H 0.16271 0.25972 0.1098 0.0
H304 H 0.15371 0.27264 0.11263 0.0
H305 H 0.16628 0.27138 0.12778 0.0
H306 H 0.0807 0.30102 0.09239 0.0
H307 H 0.07495 0.29747 0.05097 0.0
H308 H 0.08639 0.32645 0.07036 0.0
H309 H 0.06873 0.3122 0.07762 0.0
H310 H 0.09897 0.29108 0.0975 0.0
H311 H 0.13303 0.34283 0.0931 0.0
H312 H 0.12716 0.27979 0.11114 0.0
H313 H 0.10557 0.27327 0.11024 0.0
H314 H 0.11756 0.28304 0.12775 0.0
H315 H 0.1592 0.35585 0.1055 0.0
H316 H 0.16811 0.3427 0.10465 0.0
H317 H 0.16081 0.34595 0.1229 0.0
H318 H 0.07863 0.28944 0.22323 0.0
H319 H 0.09329 0.28588 0.20522 0.0
H320 H 0.1295 0.33448 0.22119 0.0
H321 H 0.11328 0.28089 0.17527 0.0
H322 H 0.10005 0.26879 0.19076 0.0
H323 H 0.12136 0.27414 0.19073 0.0
H324 H 0.15673 0.34771 0.21223 0.0
H325 H 0.15985 0.34032 0.19366 0.0
H326 H 0.16406 0.33323 0.21152 0.0
H327 H 0.22656 0.29066 0.21229 0.0
H328 H 0.23363 0.26868 0.21433 0.0
H329 H 0.21361 0.26079 0.20548 0.0
H330 H 0.21543 0.25633 0.22563 0.0
H331 H 0.17458 0.25937 0.21337 0.0
H332 H 0.21583 0.30846 0.21489 0.0
H333 H 0.15215 0.26583 0.18306 0.0
H334 H 0.14498 0.26756 0.20198 0.0
H335 H 0.15063 0.25207 0.19838 0.0
H336 H 0.21473 0.33097 0.20427 0.0
H337 H 0.19444 0.32842 0.2022 0.0
H338 H 0.20407 0.3252 0.18559 0.0
H339 H 0.1616 0.30943 0.10111 0.0
H340 H 0.13034 0.31731 0.14098 0.0
H341 H 0.12897 0.31515 0.1689 0.0
H342 H 0.15589 0.30045 0.20827 0.0
H343 H 0.18978 0.29614 0.16872 0.0
H344 H 0.19166 0.29906 0.14083 0.0
H345 H 0.0611 0.2976 0.20775 0.0
H346 H 0.07954 0.30273 0.1974 0.0
H347 H 0.07779 0.31873 0.20763 0.0
C348 C 0.72789 0.92359 0.05897 0.0
C349 C 0.71236 0.91634 0.06878 0.0
C350 C 0.71236 0.90653 0.0949 0.0
C351 C 0.69589 0.89429 0.09636 0.0
C352 C 0.69142 0.88127 0.10672 0.0
C353 C 0.70378 0.88034 0.11548 0.0
C354 C 0.72042 0.89291 0.11417 0.0
C355 C 0.72442 0.90609 0.10416 0.0
C356 C 0.67354 0.86831 0.10798 0.0
C357 C 0.73408 0.89217 0.12285 0.0
C358 C 0.69268 0.76365 0.07509 0.0
C359 C 0.69887 0.77942 0.08408 0.0
C360 C 0.689 0.79682 0.09558 0.0
C361 C 0.70385 0.80758 0.10348 0.0
C362 C 0.70532 0.82063 0.11291 0.0
C363 C 0.69157 0.82281 0.11474 0.0
C364 C 0.67656 0.81191 0.10696 0.0
C365 C 0.67551 0.7991 0.09739 0.0
C366 C 0.72163 0.83221 0.12079 0.0
C367 C 0.66167 0.81386 0.1087 0.0
C368 C 0.69245 0.79714 0.21666 0.0
C369 C 0.70686 0.80772 0.20864 0.0
C370 C 0.70804 0.821 0.20018 0.0
C371 C 0.69443 0.82355 0.19944 0.0
C372 C 0.67989 0.81288 0.20742 0.0
C373 C 0.67916 0.79988 0.21601 0.0
C374 C 0.72386 0.8323 0.19203 0.0
C375 C 0.66512 0.81517 0.2068 0.0
C376 C 0.737 0.95256 0.22244 0.0
C377 C 0.72125 0.93671 0.22653 0.0
C378 C 0.71915 0.91043 0.21918 0.0
C379 C 0.72993 0.90495 0.21495 0.0
C380 C 0.72462 0.89077 0.20551 0.0
C381 C 0.70792 0.88156 0.20065 0.0
C382 C 0.6968 0.88677 0.20534 0.0
C383 C 0.70258 0.90127 0.21449 0.0
C384 C 0.73686 0.8856 0.20082 0.0
C385 C 0.67883 0.87692 0.20085 0.0
C386 C 0.69949 0.86547 0.12479 0.0
C387 C 0.69643 0.8512 0.11655 0.0
C388 C 0.69318 0.8369 0.12433 0.0
C389 C 0.69279 0.83667 0.14085 0.0
C390 C 0.68935 0.82241 0.14904 0.0
C391 C 0.68991 0.82256 0.16532 0.0
C392 C 0.69398 0.837 0.17402 0.0
C393 C 0.69555 0.83756 0.19052 0.0
C394 C 0.69945 0.85204 0.19882 0.0
C395 C 0.70214 0.86622 0.19109 0.0
C396 C 0.70074 0.86595 0.17457 0.0
C397 C 0.70348 0.88 0.16637 0.0
C398 C 0.7026 0.87974 0.15008 0.0
C399 C 0.69938 0.86557 0.14135 0.0
C400 C 0.69617 0.85114 0.1494 0.0
C401 C 0.69678 0.85131 0.16601 0.0
C402 C 0.70021 0.76805 0.21164 0.0
C403 C 0.70157 0.77825 0.22634 0.0
O404 O 0.71696 0.91878 0.08448 0.0
O405 O 0.72505 0.9243 0.22823 0.0
O406 O 0.69074 0.7842 0.22514 0.0
O407 O 0.68722 0.7842 0.08613 0.0
H408 H 0.70506 0.9029 0.0658 0.0
H409 H 0.73516 0.9176 0.06197 0.0
H410 H 0.73561 0.93707 0.06132 0.0
H411 H 0.72466 0.9214 0.04629 0.0
H412 H 0.68657 0.89493 0.08936 0.0
H413 H 0.73709 0.91574 0.10296 0.0
H414 H 0.67131 0.85691 0.10169 0.0
H415 H 0.66532 0.87238 0.10277 0.0
H416 H 0.67026 0.86521 0.12042 0.0
H417 H 0.7464 0.90139 0.1186 0.0
H418 H 0.73266 0.87971 0.1216 0.0
H419 H 0.73357 0.89466 0.1355 0.0
H420 H 0.71094 0.78965 0.08017 0.0
H421 H 0.7001 0.76709 0.06408 0.0
H422 H 0.68097 0.76117 0.06899 0.0
H423 H 0.69352 0.74768 0.09152 0.0
H424 H 0.71441 0.80598 0.10224 0.0
H425 H 0.6641 0.79074 0.0913 0.0
H426 H 0.72042 0.83088 0.13367 0.0
H427 H 0.72541 0.84519 0.11814 0.0
H428 H 0.7315 0.82974 0.11705 0.0
H429 H 0.65051 0.80348 0.10309 0.0
H430 H 0.66404 0.82552 0.10325 0.0
H431 H 0.65927 0.81467 0.12129 0.0
H432 H 0.71436 0.7887 0.22778 0.0
H433 H 0.71728 0.80581 0.20893 0.0
H434 H 0.66809 0.79166 0.22221 0.0
H435 H 0.72181 0.83065 0.17916 0.0
H436 H 0.73388 0.82981 0.19521 0.0
H437 H 0.72793 0.84537 0.19501 0.0
H438 H 0.65432 0.80507 0.21263 0.0
H439 H 0.66175 0.81575 0.19444 0.0
H440 H 0.6682 0.82705 0.21266 0.0
H441 H 0.71233 0.93379 0.21667 0.0
H442 H 0.73442 0.96273 0.2203 0.0
H443 H 0.74225 0.9505 0.21162 0.0
H444 H 0.74627 0.95635 0.23209 0.0
H445 H 0.74265 0.91202 0.21885 0.0
H446 H 0.6941 0.90523 0.21826 0.0
H447 H 0.73595 0.88296 0.18803 0.0
H448 H 0.73402 0.87411 0.20691 0.0
H449 H 0.74969 0.89518 0.20387 0.0
H450 H 0.67157 0.88201 0.20631 0.0
H451 H 0.67369 0.86392 0.20443 0.0
H452 H 0.67739 0.87685 0.18794 0.0
H453 H 0.69701 0.85135 0.10386 0.0
H454 H 0.68636 0.81101 0.14295 0.0
H455 H 0.68732 0.81127 0.171 0.0
H456 H 0.70093 0.85246 0.21146 0.0
H457 H 0.70639 0.89138 0.17245 0.0
H458 H 0.70477 0.89089 0.14438 0.0
H459 H 0.70889 0.7633 0.21249 0.0
H460 H 0.70329 0.77575 0.20108 0.0
H461 H 0.6875 0.75746 0.21014 0.0
C462 C 0.19399 0.90193 0.05834 0.0
C463 C 0.20697 0.91239 0.07088 0.0
C464 C 0.1965 0.89395 0.09334 0.0
C465 C 0.18409 0.89747 0.09738 0.0
C466 C 0.17214 0.88792 0.10828 0.0
C467 C 0.17237 0.87437 0.1151 0.0
C468 C 0.18514 0.87111 0.11148 0.0
C469 C 0.19716 0.88109 0.10077 0.0
C470 C 0.1589 0.89198 0.1121 0.0
C471 C 0.18574 0.85674 0.11852 0.0
C472 C 0.06714 0.80477 0.06379 0.0
C473 C 0.07738 0.79732 0.06967 0.0
C474 C 0.08921 0.80664 0.09549 0.0
C475 C 0.09965 0.80156 0.10182 0.0
C476 C 0.11293 0.81221 0.11163 0.0
C477 C 0.11558 0.82816 0.11524 0.0
C478 C 0.1047 0.83311 0.10916 0.0
C479 C 0.0916 0.82224 0.09931 0.0
C480 C 0.12426 0.80654 0.11797 0.0
C481 C 0.10706 0.84995 0.11287 0.0
C482 C 0.08549 0.81299 0.21567 0.0
C483 C 0.09641 0.80747 0.21164 0.0
C484 C 0.11107 0.81785 0.20391 0.0
C485 C 0.11478 0.83399 0.20006 0.0
C486 C 0.10407 0.83975 0.20465 0.0
C487 C 0.08964 0.8292 0.21258 0.0
C488 C 0.1225 0.81152 0.1997 0.0
C489 C 0.10771 0.85694 0.20091 0.0
C490 C 0.22475 0.9436 0.21755 0.0
C491 C 0.21575 0.93206 0.23104 0.0
C492 C 0.19851 0.90482 0.21819 0.0
C493 C 0.19676 0.88924 0.21575 0.0
C494 C 0.18362 0.87701 0.20679 0.0
C495 C 0.1719 0.88048 0.20015 0.0
C496 C 0.17356 0.89623 0.20252 0.0
C497 C 0.18687 0.90827 0.21147 0.0
C498 C 0.18226 0.86038 0.20441 0.0
C499 C 0.16124 0.90031 0.19559 0.0
C500 C 0.15836 0.86275 0.12471 0.0
C501 C 0.14433 0.85075 0.11673 0.0
C502 C 0.13017 0.83997 0.12472 0.0
C503 C 0.12994 0.84098 0.14123 0.0
C504 C 0.11583 0.83044 0.14962 0.0
C505 C 0.11567 0.83164 0.16586 0.0
C506 C 0.12966 0.84338 0.17434 0.0
C507 C 0.1296 0.84472 0.19085 0.0
C508 C 0.14361 0.85673 0.19888 0.0
C509 C 0.15777 0.8676 0.19086 0.0
C510 C 0.15813 0.86637 0.17436 0.0
C511 C 0.17218 0.87706 0.16592 0.0
C512 C 0.17231 0.87591 0.14966 0.0
C513 C 0.15844 0.86394 0.14123 0.0
C514 C 0.14416 0.85298 0.14951 0.0
C515 C 0.14401 0.8542 0.16609 0.0
C516 C 0.04415 0.78384 0.21328 0.0
C517 C 0.06061 0.78644 0.21942 0.0
O518 O 0.20783 0.90236 0.08222 0.0
O519 O 0.21158 0.91602 0.22701 0.0
O520 O 0.07097 0.80309 0.22267 0.0
O521 O 0.07668 0.79632 0.08584 0.0
H522 H 0.20368 0.92115 0.07638 0.0
H523 H 0.18164 0.89512 0.06359 0.0
H524 H 0.19685 0.89284 0.05287 0.0
H525 H 0.19355 0.90994 0.0491 0.0
H526 H 0.18342 0.90749 0.092 0.0
H527 H 0.20684 0.87853 0.09771 0.0
H528 H 0.14719 0.88266 0.10638 0.0
H529 H 0.16192 0.90436 0.10794 0.0
H530 H 0.15692 0.89154 0.12492 0.0
H531 H 0.19661 0.85599 0.11468 0.0
H532 H 0.17444 0.84506 0.11513 0.0
H533 H 0.18608 0.85785 0.13149 0.0
H534 H 0.09032 0.80548 0.06598 0.0
H535 H 0.06705 0.80495 0.05079 0.0
H536 H 0.0725 0.81766 0.06822 0.0
H537 H 0.05428 0.79755 0.06787 0.0
H538 H 0.0975 0.78934 0.09885 0.0
H539 H 0.08322 0.82589 0.09455 0.0
H540 H 0.12449 0.80718 0.13096 0.0
H541 H 0.13697 0.81489 0.114 0.0
H542 H 0.12045 0.79372 0.11414 0.0
H543 H 0.09669 0.85134 0.10842 0.0
H544 H 0.11855 0.85947 0.10747 0.0
H545 H 0.10836 0.85232 0.12572 0.0
H546 H 0.06564 0.78204 0.20994 0.0
H547 H 0.09355 0.79513 0.21463 0.0
H548 H 0.08126 0.83341 0.21601 0.0
H549 H 0.12268 0.81022 0.18678 0.0
H550 H 0.11873 0.79937 0.20492 0.0
H551 H 0.13522 0.82048 0.20371 0.0
H552 H 0.09762 0.85917 0.2044 0.0
H553 H 0.10974 0.85905 0.18816 0.0
H554 H 0.11917 0.86609 0.20713 0.0
H555 H 0.20448 0.93261 0.23373 0.0
H556 H 0.22816 0.95647 0.22078 0.0
H557 H 0.21674 0.93987 0.20692 0.0
H558 H 0.23606 0.94322 0.21468 0.0
H559 H 0.2058 0.88669 0.22092 0.0
H560 H 0.18804 0.92027 0.21308 0.0
H561 H 0.18187 0.85757 0.19169 0.0
H562 H 0.1706 0.85068 0.20944 0.0
H563 H 0.19267 0.85979 0.20996 0.0
H564 H 0.16401 0.91298 0.19882 0.0
H565 H 0.14873 0.89139 0.19964 0.0
H566 H 0.16111 0.89916 0.18263 0.0
H567 H 0.14431 0.85 0.10403 0.0
H568 H 0.10471 0.82117 0.14371 0.0
H569 H 0.10442 0.82323 0.17167 0.0
H570 H 0.14342 0.85779 0.21153 0.0
H571 H 0.18322 0.8865 0.1718 0.0
H572 H 0.18343 0.88451 0.14376 0.0
H573 H 0.03841 0.78816 0.22206 0.0
H574 H 0.03562 0.77057 0.21051 0.0
H575 H 0.04606 0.7909 0.2024 0.0
C576 C 0.29544 0.10362 0.95678 0.0
C577 C 0.29904 0.09479 0.94348 0.0
C578 C 0.3071 0.11506 0.92252 0.0
C579 C 0.29114 0.11163 0.91848 0.0
C580 C 0.28865 0.12156 0.90794 0.0
C581 C 0.30236 0.13534 0.90147 0.0
C582 C 0.31841 0.13863 0.90523 0.0
C583 C 0.32054 0.12831 0.91558 0.0
C584 C 0.27133 0.11755 0.90403 0.0
C585 C 0.33331 0.15332 0.89865 0.0
C586 C 0.26907 0.2032 0.95954 0.0
C587 C 0.28377 0.20998 0.94865 0.0
C588 C 0.28221 0.19871 0.92254 0.0
C589 C 0.2986 0.20293 0.92047 0.0
C590 C 0.30265 0.19402 0.90983 0.0
C591 C 0.28996 0.1804 0.9014 0.0
C592 C 0.2734 0.17637 0.90329 0.0
C593 C 0.26982 0.1859 0.91357 0.0
C594 C 0.32045 0.19892 0.9079 0.0
C595 C 0.25942 0.16165 0.89496 0.0
C596 C 0.27675 0.19713 0.79997 0.0
C597 C 0.29326 0.20261 0.80381 0.0
C598 C 0.29767 0.19242 0.81191 0.0
C599 C 0.28531 0.1765 0.81629 0.0
C600 C 0.26874 0.17078 0.81196 0.0
C601 C 0.26471 0.18114 0.80369 0.0
C602 C 0.31552 0.19868 0.8159 0.0
C603 C 0.25525 0.15381 0.81629 0.0
C604 C 0.29722 0.07224 0.80485 0.0
C605 C 0.29411 0.07916 0.78985 0.0
C606 C 0.30085 0.10706 0.79889 0.0
C607 C 0.31357 0.12344 0.79983 0.0
C608 C 0.31199 0.13532 0.80861 0.0
C609 C 0.29712 0.13073 0.81635 0.0
C610 C 0.284 0.11424 0.81515 0.0
C611 C 0.28607 0.10251 0.80661 0.0
C612 C 0.32627 0.15275 0.80967 0.0
C613 C 0.26779 0.109 0.8229 0.0
C614 C 0.29985 0.14701 0.89188 0.0
C615 C 0.29719 0.15855 0.89986 0.0
C616 C 0.29382 0.16944 0.89184 0.0
C617 C 0.2933 0.16903 0.87529 0.0
C618 C 0.29021 0.17997 0.8668 0.0
C619 C 0.28901 0.17898 0.85054 0.0
C620 C 0.2911 0.16717 0.84211 0.0
C621 C 0.28962 0.16587 0.82559 0.0
C622 C 0.29171 0.15395 0.8176 0.0
C623 C 0.29529 0.14321 0.82565 0.0
C624 C 0.29687 0.14433 0.84217 0.0
C625 C 0.30053 0.13377 0.85065 0.0
C626 C 0.30153 0.13462 0.86693 0.0
C627 C 0.29915 0.14623 0.87534 0.0
C628 C 0.2958 0.15725 0.86702 0.0
C629 C 0.29466 0.1563 0.85042 0.0
C630 C 0.26578 0.22774 0.79918 0.0
C631 C 0.27906 0.22376 0.7944 0.0
O632 O 0.31012 0.10616 0.93317 0.0
O633 O 0.30346 0.09624 0.79038 0.0
O634 O 0.27198 0.20681 0.79256 0.0
O635 O 0.27799 0.20664 0.93329 0.0
H636 H 0.28739 0.08625 0.93714 0.0
H637 H 0.28965 0.11051 0.95206 0.0
H638 H 0.30696 0.11249 0.96311 0.0
H639 H 0.28682 0.09452 0.96519 0.0
H640 H 0.28051 0.10139 0.92356 0.0
H641 H 0.3328 0.13083 0.91867 0.0
H642 H 0.26908 0.12709 0.9094 0.0
H643 H 0.262 0.10532 0.9084 0.0
H644 H 0.26966 0.11771 0.89117 0.0
H645 H 0.34498 0.15431 0.90288 0.0
H646 H 0.33329 0.16481 0.902 0.0
H647 H 0.33284 0.15239 0.88567 0.0
H648 H 0.29069 0.2035 0.95141 0.0
H649 H 0.27329 0.20531 0.97198 0.0
H650 H 0.26113 0.18971 0.95743 0.0
H651 H 0.26165 0.20923 0.95739 0.0
H652 H 0.3082 0.21314 0.92721 0.0
H653 H 0.25721 0.18289 0.91523 0.0
H654 H 0.32326 0.19878 0.89532 0.0
H655 H 0.32286 0.18988 0.91387 0.0
H656 H 0.32888 0.21136 0.91301 0.0
H657 H 0.24726 0.15882 0.89949 0.0
H658 H 0.26073 0.15058 0.89625 0.0
H659 H 0.25965 0.16412 0.88228 0.0
H660 H 0.2884 0.2285 0.80409 0.0
H661 H 0.30272 0.21476 0.80037 0.0
H662 H 0.25204 0.17695 0.80043 0.0
H663 H 0.31733 0.19984 0.82881 0.0
H664 H 0.32376 0.21086 0.81072 0.0
H665 H 0.31913 0.18971 0.81166 0.0
H666 H 0.2429 0.15146 0.8126 0.0
H667 H 0.25539 0.15233 0.82915 0.0
H668 H 0.25743 0.14434 0.81067 0.0
H669 H 0.28085 0.07518 0.78873 0.0
H670 H 0.28952 0.0586 0.8049 0.0
H671 H 0.29404 0.0772 0.81529 0.0
H672 H 0.31037 0.07575 0.80586 0.0
H673 H 0.3249 0.12684 0.79381 0.0
H674 H 0.27606 0.08991 0.806 0.0
H675 H 0.32914 0.15688 0.82212 0.0
H676 H 0.32289 0.16113 0.80372 0.0
H677 H 0.33748 0.15397 0.80416 0.0
H678 H 0.25819 0.09633 0.81923 0.0
H679 H 0.26339 0.11768 0.82006 0.0
H680 H 0.26944 0.10932 0.8358 0.0
H681 H 0.29737 0.1588 0.91257 0.0
H682 H 0.28853 0.18932 0.87268 0.0
H683 H 0.28637 0.18757 0.84465 0.0
H684 H 0.29041 0.15295 0.80494 0.0
H685 H 0.30252 0.12461 0.8448 0.0
H686 H 0.30416 0.12604 0.87285 0.0
H687 H 0.25586 0.22322 0.7901 0.0
H688 H 0.27114 0.24127 0.80089 0.0
H689 H 0.2603 0.22169 0.81038 0.0
C690 C 0.80285 0.08048 0.95712 0.0
C691 C 0.79188 0.08516 0.94779 0.0
C692 C 0.80049 0.09313 0.92126 0.0
C693 C 0.79629 0.10518 0.9181 0.0
C694 C 0.80536 0.11768 0.90745 0.0
C695 C 0.8191 0.11826 0.90013 0.0
C696 C 0.82311 0.10583 0.90313 0.0
C697 C 0.81347 0.09318 0.91343 0.0
C698 C 0.80052 0.13051 0.90436 0.0
C699 C 0.83795 0.10624 0.89599 0.0
C700 C 0.91696 0.23184 0.94951 0.0
C701 C 0.90595 0.21521 0.94241 0.0
C702 C 0.88593 0.20212 0.92099 0.0
C703 C 0.88768 0.1881 0.91965 0.0
C704 C 0.8774 0.17491 0.90956 0.0
C705 C 0.86475 0.17546 0.901 0.0
C706 C 0.86283 0.18948 0.90243 0.0
C707 C 0.87368 0.20277 0.91219 0.0
C708 C 0.88001 0.16029 0.90819 0.0
C709 C 0.84918 0.19032 0.89388 0.0
C710 C 0.89791 0.19766 0.80112 0.0
C711 C 0.90007 0.18518 0.80772 0.0
C712 C 0.88722 0.17204 0.81552 0.0
C713 C 0.87187 0.1713 0.81674 0.0
C714 C 0.8696 0.18375 0.81006 0.0
C715 C 0.88269 0.1968 0.80237 0.0
C716 C 0.89009 0.15903 0.82266 0.0
C717 C 0.85341 0.18335 0.81122 0.0
C718 C 0.77845 0.04259 0.79648 0.0
C719 C 0.78068 0.05914 0.79132 0.0
C720 C 0.80609 0.08461 0.79824 0.0
C721 C 0.82209 0.08929 0.80299 0.0
C722 C 0.83165 0.10383 0.81179 0.0
C723 C 0.82517 0.11421 0.81549 0.0
C724 C 0.80917 0.10986 0.81016 0.0
C725 C 0.79974 0.09501 0.80165 0.0
C726 C 0.84869 0.10808 0.81711 0.0
C727 C 0.8021 0.1209 0.81341 0.0
C728 C 0.83026 0.13273 0.89072 0.0
C729 C 0.84108 0.14723 0.89892 0.0
C730 C 0.85307 0.161 0.89121 0.0
C731 C 0.85431 0.16041 0.87476 0.0
C732 C 0.86657 0.17383 0.86667 0.0
C733 C 0.8678 0.17307 0.8505 0.0
C734 C 0.85692 0.15878 0.84182 0.0
C735 C 0.85839 0.15774 0.82545 0.0
C736 C 0.84752 0.1433 0.81717 0.0
C737 C 0.83525 0.12963 0.82484 0.0
C738 C 0.83356 0.13045 0.84124 0.0
C739 C 0.82146 0.11692 0.84939 0.0
C740 C 0.82013 0.11774 0.86555 0.0
C741 C 0.83103 0.13201 0.87423 0.0
C742 C 0.84317 0.14588 0.86623 0.0
C743 C 0.84445 0.14509 0.84973 0.0
C744 C 0.93733 0.22131 0.80416 0.0
C745 C 0.92558 0.21347 0.79006 0.0
O746 O 0.79232 0.08153 0.93208 0.0
O747 O 0.79735 0.07021 0.79005 0.0
O748 O 0.91008 0.21077 0.79365 0.0
O749 O 0.89573 0.21517 0.93059 0.0
H750 H 0.79681 0.09865 0.94965 0.0
H751 H 0.81563 0.08743 0.95282 0.0
H752 H 0.79837 0.06707 0.95576 0.0
H753 H 0.80301 0.0836 0.96974 0.0
H754 H 0.78601 0.10482 0.92408 0.0
H755 H 0.81648 0.08369 0.91597 0.0
H756 H 0.80945 0.14227 0.91034 0.0
H757 H 0.78805 0.12675 0.90872 0.0
H758 H 0.80084 0.13285 0.89162 0.0
H759 H 0.84049 0.09687 0.90104 0.0
H760 H 0.84899 0.11861 0.89779 0.0
H761 H 0.8359 0.10383 0.88319 0.0
H762 H 0.89929 0.20513 0.9509 0.0
H763 H 0.94055 0.23665 0.94364 0.0
H764 H 0.91287 0.23094 0.96199 0.0
H765 H 0.91191 0.23997 0.94581 0.0
H766 H 0.89708 0.18737 0.92636 0.0
H767 H 0.8724 0.21361 0.9133 0.0
H768 H 0.86994 0.14964 0.9142 0.0
H769 H 0.89188 0.16288 0.91357 0.0
H770 H 0.87969 0.15666 0.89571 0.0
H771 H 0.84825 0.20123 0.89759 0.0
H772 H 0.83723 0.179 0.89593 0.0
H773 H 0.85139 0.191 0.8811 0.0
H774 H 0.9249 0.20158 0.78691 0.0
H775 H 0.91176 0.18563 0.80701 0.0
H776 H 0.88111 0.20646 0.79729 0.0
H777 H 0.88832 0.15883 0.8355 0.0
H778 H 0.90263 0.16118 0.82045 0.0
H779 H 0.88099 0.1467 0.81781 0.0
H780 H 0.85354 0.19387 0.80524 0.0
H781 H 0.85044 0.18368 0.82373 0.0
H782 H 0.84346 0.17165 0.80595 0.0
H783 H 0.77517 0.06333 0.80051 0.0
H784 H 0.76522 0.03351 0.798 0.0
H785 H 0.78493 0.04421 0.80787 0.0
H786 H 0.7836 0.03764 0.78768 0.0
H787 H 0.82695 0.08129 0.80004 0.0
H788 H 0.78755 0.0917 0.79745 0.0
H789 H 0.85062 0.11162 0.82973 0.0
H790 H 0.85786 0.11879 0.81046 0.0
H791 H 0.85101 0.09767 0.81517 0.0
H792 H 0.7901 0.1165 0.80731 0.0
H793 H 0.8108 0.13365 0.80968 0.0
H794 H 0.80033 0.12144 0.82619 0.0
H795 H 0.84048 0.14765 0.91159 0.0
H796 H 0.87541 0.18508 0.87274 0.0
H797 H 0.87748 0.1838 0.84492 0.0
H798 H 0.84892 0.14252 0.80465 0.0
H799 H 0.81289 0.10552 0.84337 0.0
H800 H 0.81055 0.10698 0.87121 0.0
H801 H 0.93794 0.23298 0.80798 0.0
H802 H 0.94986 0.22392 0.8011 0.0
H803 H 0.93313 0.21282 0.81418 0.0
C804 C 0.80217 0.70536 0.95708 0.0
C805 C 0.78967 0.70217 0.94392 0.0
C806 C 0.80191 0.69459 0.92228 0.0
C807 C 0.81453 0.71067 0.91909 0.0
C808 C 0.8272 0.71334 0.90888 0.0
C809 C 0.82739 0.69969 0.90183 0.0
C810 C 0.81448 0.68352 0.90466 0.0
C811 C 0.8018 0.68122 0.91472 0.0
C812 C 0.84069 0.73077 0.90599 0.0
C813 C 0.81438 0.66869 0.89744 0.0
C814 C 0.90563 0.71749 0.96685 0.0
C815 C 0.90791 0.70637 0.95502 0.0
C816 C 0.90549 0.7133 0.92837 0.0
C817 C 0.89482 0.69774 0.92166 0.0
C818 C 0.88401 0.69596 0.90939 0.0
C819 C 0.8839 0.71005 0.9038 0.0
C820 C 0.8955 0.72589 0.90982 0.0
C821 C 0.90633 0.72732 0.92195 0.0
C822 C 0.87212 0.67894 0.90298 0.0
C823 C 0.89577 0.74118 0.90409 0.0
C824 C 0.9179 0.72917 0.80233 0.0
C825 C 0.90792 0.71257 0.80625 0.0
C826 C 0.89329 0.70741 0.81445 0.0
C827 C 0.88872 0.71914 0.81895 0.0
C828 C 0.89867 0.73583 0.81477 0.0
C829 C 0.91302 0.74055 0.80631 0.0
C830 C 0.88265 0.68942 0.8182 0.0
C831 C 0.89417 0.74869 0.81926 0.0
C832 C 0.77363 0.70721 0.80328 0.0
C833 C 0.78365 0.70892 0.78865 0.0
C834 C 0.80394 0.70176 0.7987 0.0
C835 C 0.80733 0.6889 0.79986 0.0
C836 C 0.82057 0.69061 0.80901 0.0
C837 C 0.83086 0.70573 0.817 0.0
C838 C 0.82773 0.71895 0.81565 0.0
C839 C 0.8142 0.71679 0.80666 0.0
C840 C 0.82348 0.67622 0.81024 0.0
C841 C 0.83867 0.73537 0.82376 0.0
C842 C 0.84186 0.70236 0.89272 0.0
C843 C 0.85558 0.7045 0.90114 0.0
C844 C 0.87007 0.70794 0.89366 0.0
C845 C 0.87101 0.70933 0.8772 0.0
C846 C 0.88547 0.71306 0.86929 0.0
C847 C 0.88632 0.71469 0.85309 0.0
C848 C 0.87264 0.71236 0.84417 0.0
C849 C 0.87337 0.71402 0.8277 0.0
C850 C 0.85952 0.71158 0.81924 0.0
C851 C 0.84491 0.70771 0.82675 0.0
C852 C 0.84395 0.7061 0.8432 0.0
C853 C 0.82947 0.70232 0.85114 0.0
C854 C 0.82877 0.70117 0.86737 0.0
C855 C 0.84242 0.70344 0.87623 0.0
C856 C 0.85709 0.70701 0.86845 0.0
C857 C 0.85788 0.70842 0.85192 0.0
C858 C 0.95997 0.74411 0.80061 0.0
C859 C 0.94328 0.72922 0.79615 0.0
O860 O 0.78983 0.69139 0.9327 0.0
O861 O 0.79071 0.69904 0.78981 0.0
O862 O 0.93205 0.73458 0.79436 0.0
O863 O 0.91454 0.71496 0.94142 0.0
H864 H 0.79275 0.71403 0.93841 0.0
H865 H 0.81481 0.71135 0.95245 0.0
H866 H 0.79949 0.6936 0.96255 0.0
H867 H 0.80178 0.71372 0.96621 0.0
H868 H 0.81478 0.72124 0.92462 0.0
H869 H 0.79198 0.66887 0.91715 0.0
H870 H 0.85225 0.73289 0.91168 0.0
H871 H 0.83773 0.74008 0.9107 0.0
H872 H 0.84292 0.73269 0.89325 0.0
H873 H 0.80349 0.65691 0.90087 0.0
H874 H 0.82567 0.66855 0.90111 0.0
H875 H 0.81445 0.66946 0.88449 0.0
H876 H 0.89536 0.69566 0.95277 0.0
H877 H 0.90178 0.71138 0.97833 0.0
H878 H 0.91709 0.72956 0.96844 0.0
H879 H 0.8959 0.71992 0.96248 0.0
H880 H 0.89463 0.68696 0.92633 0.0
H881 H 0.91483 0.7393 0.92708 0.0
H882 H 0.8718 0.67898 0.88998 0.0
H883 H 0.85958 0.67517 0.90709 0.0
H884 H 0.87539 0.66964 0.90681 0.0
H885 H 0.90605 0.75263 0.90941 0.0
H886 H 0.88401 0.74062 0.90699 0.0
H887 H 0.8969 0.7418 0.89117 0.0
H888 H 0.93977 0.72037 0.8059 0.0
H889 H 0.91138 0.70361 0.80266 0.0
H890 H 0.9207 0.75329 0.803 0.0
H891 H 0.88225 0.68792 0.83108 0.0
H892 H 0.88726 0.68166 0.81286 0.0
H893 H 0.86987 0.68486 0.81395 0.0
H894 H 0.904 0.76136 0.81647 0.0
H895 H 0.89168 0.74818 0.83199 0.0
H896 H 0.88276 0.74608 0.81288 0.0
H897 H 0.79339 0.72202 0.78739 0.0
H898 H 0.76797 0.71512 0.80246 0.0
H899 H 0.78166 0.71113 0.81391 0.0
H900 H 0.76376 0.69418 0.80462 0.0
H901 H 0.79938 0.67736 0.79368 0.0
H902 H 0.81183 0.72692 0.80593 0.0
H903 H 0.82406 0.67343 0.82274 0.0
H904 H 0.83549 0.6795 0.80503 0.0
H905 H 0.81373 0.66496 0.80416 0.0
H906 H 0.83558 0.7449 0.82031 0.0
H907 H 0.85173 0.73982 0.82099 0.0
H908 H 0.83741 0.73391 0.83662 0.0
H909 H 0.85503 0.70364 0.91381 0.0
H910 H 0.89632 0.71489 0.87557 0.0
H911 H 0.89783 0.71776 0.84763 0.0
H912 H 0.8602 0.71297 0.80663 0.0
H913 H 0.81854 0.70033 0.84492 0.0
H914 H 0.81737 0.69841 0.87288 0.0
H915 H 0.96432 0.75335 0.79118 0.0
H916 H 0.96923 0.74025 0.80267 0.0
H917 H 0.95891 0.75002 0.81155 0.0
C918 C 0.8697 0.62181 0.38617 0.0
C919 C 0.88038 0.63645 0.39715 0.0
C920 C 0.87009 0.63304 0.42337 0.0
C921 C 0.8738 0.64887 0.42825 0.0
C922 C 0.86372 0.65106 0.43887 0.0
C923 C 0.84949 0.63709 0.44445 0.0
C924 C 0.84599 0.62105 0.43982 0.0
C925 C 0.85658 0.61925 0.42953 0.0
C926 C 0.86801 0.6683 0.44378 0.0
C927 C 0.83076 0.60586 0.44521 0.0
C928 C 0.75089 0.65131 0.3963 0.0
C929 C 0.76198 0.64582 0.403 0.0
C930 C 0.78169 0.65255 0.42457 0.0
C931 C 0.7802 0.63687 0.42513 0.0
C932 C 0.79053 0.634 0.43491 0.0
C933 C 0.80296 0.64719 0.44395 0.0
C934 C 0.80468 0.66307 0.44322 0.0
C935 C 0.79376 0.66543 0.43377 0.0
C936 C 0.7882 0.61686 0.43545 0.0
C937 C 0.81815 0.67758 0.45222 0.0
C938 C 0.77179 0.63919 0.54598 0.0
C939 C 0.76767 0.62455 0.53762 0.0
C940 C 0.77953 0.62314 0.52891 0.0
C941 C 0.79572 0.63672 0.5283 0.0
C942 C 0.79984 0.65149 0.5366 0.0
C943 C 0.78783 0.65246 0.54542 0.0
C944 C 0.77478 0.60711 0.52037 0.0
C945 C 0.81694 0.66625 0.53612 0.0
C946 C 0.88682 0.59811 0.5471 0.0
C947 C 0.88478 0.61295 0.55108 0.0
C948 C 0.85953 0.61328 0.54496 0.0
C949 C 0.84339 0.60212 0.5403 0.0
C950 C 0.83399 0.6073 0.53187 0.0
C951 C 0.84081 0.62421 0.52848 0.0
C952 C 0.85692 0.63572 0.53382 0.0
C953 C 0.8662 0.6301 0.5419 0.0
C954 C 0.81683 0.59467 0.52649 0.0
C955 C 0.86431 0.65391 0.53098 0.0
C956 C 0.83749 0.63928 0.45388 0.0
C957 C 0.82678 0.64298 0.44584 0.0
C958 C 0.81453 0.64441 0.45361 0.0
C959 C 0.81299 0.64234 0.47 0.0
C960 C 0.80073 0.64356 0.47821 0.0
C961 C 0.79937 0.64157 0.49434 0.0
C962 C 0.80995 0.63786 0.50283 0.0
C963 C 0.80841 0.63543 0.51917 0.0
C964 C 0.81892 0.63145 0.52719 0.0
C965 C 0.83099 0.62974 0.51936 0.0
C966 C 0.83289 0.63235 0.50305 0.0
C967 C 0.84497 0.63085 0.49479 0.0
C968 C 0.8467 0.6334 0.47874 0.0
C969 C 0.83617 0.63716 0.47027 0.0
C970 C 0.82388 0.63873 0.47835 0.0
C971 C 0.82229 0.6364 0.49477 0.0
C972 C 0.73518 0.63192 0.54132 0.0
C973 C 0.74405 0.63054 0.55584 0.0
O974 O 0.87912 0.6309 0.41231 0.0
O975 O 0.86817 0.60742 0.55261 0.0
O976 O 0.76084 0.64117 0.55472 0.0
O977 O 0.77177 0.65572 0.41536 0.0
H978 H 0.87564 0.64521 0.39635 0.0
H979 H 0.85666 0.61597 0.38972 0.0
H980 H 0.87359 0.6124 0.38666 0.0
H981 H 0.87058 0.62599 0.37393 0.0
H982 H 0.88448 0.65947 0.42356 0.0
H983 H 0.85393 0.60708 0.42567 0.0
H984 H 0.85918 0.67135 0.43821 0.0
H985 H 0.88062 0.67764 0.4403 0.0
H986 H 0.86699 0.66912 0.45666 0.0
H987 H 0.8292 0.59439 0.43959 0.0
H988 H 0.81971 0.60684 0.44253 0.0
H989 H 0.83143 0.60484 0.45808 0.0
H990 H 0.76904 0.64297 0.39429 0.0
H991 H 0.72731 0.6318 0.40108 0.0
H992 H 0.75531 0.65511 0.38403 0.0
H993 H 0.75554 0.6643 0.4008 0.0
H994 H 0.77095 0.62676 0.41808 0.0
H995 H 0.79485 0.67749 0.43325 0.0
H996 H 0.79847 0.61667 0.42933 0.0
H997 H 0.77647 0.60751 0.42972 0.0
H998 H 0.78837 0.61327 0.44775 0.0
H999 H 0.81916 0.68944 0.44877 0.0
H1000 H 0.83015 0.67828 0.4503 0.0
H1001 H 0.81565 0.67599 0.46493 0.0
H1002 H 0.74145 0.61763 0.55688 0.0
H1003 H 0.75532 0.61414 0.53784 0.0
H1004 H 0.7909 0.66371 0.55188 0.0
H1005 H 0.77573 0.60912 0.50756 0.0
H1006 H 0.76205 0.59731 0.52295 0.0
H1007 H 0.78337 0.60273 0.52366 0.0
H1008 H 0.8179 0.67718 0.54237 0.0
H1009 H 0.82063 0.66951 0.52378 0.0
H1010 H 0.82578 0.66315 0.5416 0.0
H1011 H 0.88993 0.62161 0.54116 0.0
H1012 H 0.89995 0.60208 0.54518 0.0
H1013 H 0.8798 0.59191 0.53618 0.0
H1014 H 0.88214 0.58908 0.55671 0.0
H1015 H 0.83831 0.5892 0.54296 0.0
H1016 H 0.87853 0.63884 0.54601 0.0
H1017 H 0.81524 0.59587 0.51377 0.0
H1018 H 0.8078 0.5969 0.53275 0.0
H1019 H 0.81396 0.58186 0.52873 0.0
H1020 H 0.87623 0.66141 0.53732 0.0
H1021 H 0.8557 0.65812 0.53472 0.0
H1022 H 0.86637 0.65622 0.51827 0.0
H1023 H 0.82778 0.64443 0.43325 0.0
H1024 H 0.79208 0.64614 0.47227 0.0
H1025 H 0.7898 0.64282 0.50005 0.0
H1026 H 0.81751 0.62938 0.53969 0.0
H1027 H 0.85328 0.62774 0.50064 0.0
H1028 H 0.85631 0.63223 0.47302 0.0
H1029 H 0.73753 0.64473 0.54024 0.0
H1030 H 0.72173 0.62337 0.54205 0.0
H1031 H 0.73955 0.62862 0.53058 0.0
C1032 C 0.38574 0.25476 0.38834 0.0
C1033 C 0.37142 0.24819 0.39968 0.0
C1034 C 0.37395 0.23884 0.42537 0.0
C1035 C 0.3577 0.22642 0.42776 0.0
C1036 C 0.35416 0.21369 0.43823 0.0
C1037 C 0.3672 0.21327 0.44623 0.0
C1038 C 0.38361 0.22601 0.444 0.0
C1039 C 0.38671 0.23887 0.43385 0.0
C1040 C 0.33651 0.20052 0.4405 0.0
C1041 C 0.39792 0.22584 0.45195 0.0
C1042 C 0.35564 0.0942 0.41127 0.0
C1043 C 0.36139 0.10927 0.4213 0.0
C1044 C 0.35216 0.12782 0.43119 0.0
C1045 C 0.36771 0.1399 0.43697 0.0
C1046 C 0.36977 0.15397 0.44505 0.0
C1047 C 0.356 0.15597 0.44752 0.0
C1048 C 0.34038 0.14396 0.44157 0.0
C1049 C 0.33869 0.13005 0.43342 0.0
C1050 C 0.38667 0.16667 0.45103 0.0
C1051 C 0.32548 0.14576 0.44396 0.0
C1052 C 0.35916 0.13361 0.54874 0.0
C1053 C 0.37368 0.14444 0.54099 0.0
C1054 C 0.37491 0.15788 0.5328 0.0
C1055 C 0.36125 0.16034 0.53205 0.0
C1056 C 0.34668 0.14955 0.53992 0.0
C1057 C 0.34589 0.13639 0.54826 0.0
C1058 C 0.39078 0.16935 0.52479 0.0
C1059 C 0.33188 0.15179 0.53931 0.0
C1060 C 0.40013 0.28897 0.55138 0.0
C1061 C 0.38478 0.27305 0.55608 0.0
C1062 C 0.38367 0.24709 0.54934 0.0
C1063 C 0.39489 0.24208 0.54538 0.0
C1064 C 0.39006 0.22779 0.53625 0.0
C1065 C 0.37342 0.21798 0.5314 0.0
C1066 C 0.36186 0.22274 0.53579 0.0
C1067 C 0.36715 0.23735 0.54464 0.0
C1068 C 0.40275 0.22313 0.53187 0.0
C1069 C 0.34393 0.21227 0.53132 0.0
C1070 C 0.36378 0.19894 0.456 0.0
C1071 C 0.36071 0.18441 0.44824 0.0
C1072 C 0.358 0.17055 0.45653 0.0
C1073 C 0.35823 0.17107 0.47308 0.0
C1074 C 0.35537 0.15729 0.48177 0.0
C1075 C 0.35634 0.15812 0.49803 0.0
C1076 C 0.36028 0.17279 0.50623 0.0
C1077 C 0.36213 0.17399 0.5227 0.0
C1078 C 0.36587 0.18868 0.53052 0.0
C1079 C 0.3681 0.20244 0.52231 0.0
C1080 C 0.36644 0.20154 0.50578 0.0
C1081 C 0.36874 0.21515 0.49709 0.0
C1082 C 0.36746 0.21422 0.4808 0.0
C1083 C 0.36424 0.19977 0.47257 0.0
C1084 C 0.36158 0.18581 0.48112 0.0
C1085 C 0.36262 0.18667 0.49773 0.0
C1086 C 0.36652 0.10448 0.54227 0.0
C1087 C 0.36795 0.11415 0.55739 0.0
O1088 O 0.37767 0.25086 0.41486 0.0
O1089 O 0.38908 0.26104 0.55818 0.0
O1090 O 0.3573 0.12033 0.55672 0.0
O1091 O 0.34967 0.11393 0.42346 0.0
H1092 H 0.36353 0.23473 0.39707 0.0
H1093 H 0.39285 0.24836 0.39016 0.0
H1094 H 0.39409 0.26821 0.39031 0.0
H1095 H 0.38111 0.25248 0.37602 0.0
H1096 H 0.34782 0.2267 0.42142 0.0
H1097 H 0.3992 0.24864 0.43198 0.0
H1098 H 0.33427 0.18887 0.43474 0.0
H1099 H 0.32777 0.20397 0.43543 0.0
H1100 H 0.33398 0.19812 0.45316 0.0
H1101 H 0.40991 0.23533 0.44729 0.0
H1102 H 0.39686 0.21355 0.45045 0.0
H1103 H 0.39785 0.22826 0.46469 0.0
H1104 H 0.3677 0.10933 0.43245 0.0
H1105 H 0.37054 0.10284 0.39163 0.0
H1106 H 0.34184 0.08804 0.41051 0.0
H1107 H 0.3557 0.08475 0.41923 0.0
H1108 H 0.37831 0.13846 0.43523 0.0
H1109 H 0.32676 0.12074 0.42887 0.0
H1110 H 0.38982 0.17909 0.44691 0.0
H1111 H 0.39631 0.16393 0.44717 0.0
H1112 H 0.38675 0.16712 0.46403 0.0
H1113 H 0.31409 0.13508 0.43904 0.0
H1114 H 0.32735 0.15715 0.43829 0.0
H1115 H 0.32383 0.14704 0.45666 0.0
H1116 H 0.3808 0.12444 0.55903 0.0
H1117 H 0.38411 0.14255 0.5412 0.0
H1118 H 0.33477 0.12801 0.55429 0.0
H1119 H 0.38888 0.16767 0.51191 0.0
H1120 H 0.40087 0.16703 0.52814 0.0
H1121 H 0.39464 0.18238 0.52773 0.0
H1122 H 0.32119 0.14184 0.5454 0.0
H1123 H 0.32829 0.152 0.52693 0.0
H1124 H 0.33501 0.16382 0.54485 0.0
H1125 H 0.37557 0.2695 0.54638 0.0
H1126 H 0.39711 0.29879 0.54902 0.0
H1127 H 0.40523 0.28672 0.54055 0.0
H1128 H 0.40969 0.29334 0.56082 0.0
H1129 H 0.40757 0.2496 0.54928 0.0
H1130 H 0.35833 0.24093 0.5482 0.0
H1131 H 0.40194 0.22023 0.51913 0.0
H1132 H 0.40033 0.2119 0.53823 0.0
H1133 H 0.41545 0.2331 0.53484 0.0
H1134 H 0.33633 0.21709 0.53652 0.0
H1135 H 0.33921 0.19943 0.53521 0.0
H1136 H 0.34247 0.21183 0.51839 0.0
H1137 H 0.36074 0.18397 0.43554 0.0
H1138 H 0.35248 0.14572 0.4761 0.0
H1139 H 0.35412 0.14713 0.50409 0.0
H1140 H 0.3675 0.18956 0.54316 0.0
H1141 H 0.37158 0.2267 0.50278 0.0
H1142 H 0.36929 0.22506 0.47473 0.0
H1143 H 0.37498 0.09944 0.5428 0.0
H1144 H 0.36987 0.11265 0.53204 0.0
H1145 H 0.35373 0.09413 0.54048 0.0
C1146 C 0.86776 0.222 0.38718 0.0
C1147 C 0.87752 0.23635 0.39881 0.0
C1148 C 0.8667 0.22212 0.42339 0.0
C1149 C 0.85451 0.2263 0.42609 0.0
C1150 C 0.84145 0.21697 0.4361 0.0
C1151 C 0.84046 0.20307 0.44346 0.0
C1152 C 0.85304 0.19917 0.4412 0.0
C1153 C 0.86616 0.20895 0.43138 0.0
C1154 C 0.82848 0.22174 0.43856 0.0
C1155 C 0.85232 0.18435 0.44874 0.0
C1156 C 0.74452 0.13574 0.3795 0.0
C1157 C 0.75025 0.12821 0.3921 0.0
C1158 C 0.75801 0.14008 0.41832 0.0
C1159 C 0.76981 0.13567 0.42212 0.0
C1160 C 0.78213 0.14475 0.43341 0.0
C1161 C 0.78276 0.15868 0.44083 0.0
C1162 C 0.77051 0.1628 0.43735 0.0
C1163 C 0.75806 0.15318 0.42635 0.0
C1164 C 0.79472 0.13974 0.43708 0.0
C1165 C 0.77093 0.17774 0.44474 0.0
C1166 C 0.74861 0.1397 0.54016 0.0
C1167 C 0.76025 0.13476 0.53748 0.0
C1168 C 0.77519 0.14536 0.53027 0.0
C1169 C 0.77852 0.16119 0.52571 0.0
C1170 C 0.7671 0.16642 0.52898 0.0
C1171 C 0.75233 0.15562 0.5363 0.0
C1172 C 0.78733 0.13959 0.52733 0.0
C1173 C 0.77036 0.1833 0.52446 0.0
C1174 C 0.89496 0.26358 0.54283 0.0
C1175 C 0.88457 0.2562 0.55741 0.0
C1176 C 0.86331 0.22886 0.54723 0.0
C1177 C 0.85928 0.21239 0.54586 0.0
C1178 C 0.846 0.20108 0.53644 0.0
C1179 C 0.83627 0.20635 0.52844 0.0
C1180 C 0.84001 0.22294 0.53005 0.0
C1181 C 0.85362 0.23409 0.53927 0.0
C1182 C 0.84243 0.18351 0.53497 0.0
C1183 C 0.82963 0.22889 0.52203 0.0
C1184 C 0.82559 0.19187 0.45236 0.0
C1185 C 0.81169 0.18059 0.44373 0.0
C1186 C 0.79705 0.16977 0.45106 0.0
C1187 C 0.7962 0.17003 0.46756 0.0
C1188 C 0.78177 0.15911 0.47536 0.0
C1189 C 0.78093 0.15977 0.49159 0.0
C1190 C 0.79454 0.17126 0.50065 0.0
C1191 C 0.79375 0.17213 0.51714 0.0
C1192 C 0.80749 0.18369 0.52579 0.0
C1193 C 0.82216 0.19448 0.51844 0.0
C1194 C 0.82322 0.1938 0.50196 0.0
C1195 C 0.8378 0.20441 0.49417 0.0
C1196 C 0.8386 0.20387 0.47792 0.0
C1197 C 0.82493 0.19252 0.46887 0.0
C1198 C 0.81016 0.18155 0.47649 0.0
C1199 C 0.80931 0.18219 0.49305 0.0
C1200 C 0.70736 0.10716 0.5397 0.0
C1201 C 0.7249 0.1125 0.54511 0.0
O1202 O 0.87904 0.23036 0.41313 0.0
O1203 O 0.87657 0.23912 0.55635 0.0
O1204 O 0.73375 0.12956 0.54648 0.0
O1205 O 0.74671 0.13216 0.40671 0.0
H1206 H 0.87093 0.24334 0.40023 0.0
H1207 H 0.85514 0.21392 0.39149 0.0
H1208 H 0.87384 0.21452 0.38569 0.0
H1209 H 0.86676 0.22673 0.3756 0.0
H1210 H 0.85512 0.23687 0.4205 0.0
H1211 H 0.87573 0.20594 0.42938 0.0
H1212 H 0.81685 0.21246 0.43267 0.0
H1213 H 0.83212 0.23404 0.43376 0.0
H1214 H 0.82601 0.22187 0.45124 0.0
H1215 H 0.86279 0.18268 0.44539 0.0
H1216 H 0.84067 0.17305 0.44529 0.0
H1217 H 0.85243 0.18572 0.46166 0.0
H1218 H 0.76379 0.13382 0.39076 0.0
H1219 H 0.74726 0.13276 0.36766 0.0
H1220 H 0.75108 0.14936 0.38108 0.0
H1221 H 0.7311 0.13102 0.38027 0.0
H1222 H 0.76945 0.12521 0.41615 0.0
H1223 H 0.74875 0.15634 0.42339 0.0
H1224 H 0.79668 0.13994 0.44994 0.0
H1225 H 0.80662 0.14869 0.43189 0.0
H1226 H 0.79101 0.12724 0.43233 0.0
H1227 H 0.76142 0.18011 0.43965 0.0
H1228 H 0.78319 0.18883 0.44321 0.0
H1229 H 0.76884 0.1759 0.45749 0.0
H1230 H 0.73012 0.10804 0.53588 0.0
H1231 H 0.75776 0.12269 0.54105 0.0
H1232 H 0.74338 0.15941 0.53867 0.0
H1233 H 0.78897 0.13896 0.51454 0.0
H1234 H 0.7833 0.12727 0.53228 0.0
H1235 H 0.79948 0.1486 0.53256 0.0
H1236 H 0.7602 0.18548 0.52778 0.0
H1237 H 0.77208 0.18472 0.51162 0.0
H1238 H 0.7819 0.1929 0.53024 0.0
H1239 H 0.87545 0.26039 0.55845 0.0
H1240 H 0.90134 0.27727 0.54347 0.0
H1241 H 0.88704 0.25944 0.53213 0.0
H1242 H 0.90427 0.25964 0.54176 0.0
H1243 H 0.86678 0.20845 0.55207 0.0
H1244 H 0.85648 0.24677 0.5402 0.0
H1245 H 0.84144 0.17979 0.52243 0.0
H1246 H 0.83046 0.17517 0.54041 0.0
H1247 H 0.85206 0.18176 0.54075 0.0
H1248 H 0.83295 0.24156 0.52593 0.0
H1249 H 0.81642 0.22043 0.52436 0.0
H1250 H 0.83127 0.22889 0.50918 0.0
H1251 H 0.81223 0.18034 0.43105 0.0
H1252 H 0.77094 0.14999 0.46898 0.0
H1253 H 0.76944 0.15115 0.49693 0.0
H1254 H 0.80676 0.18432 0.53843 0.0
H1255 H 0.84874 0.21335 0.50053 0.0
H1256 H 0.85008 0.21245 0.47255 0.0
H1257 H 0.69999 0.09351 0.53843 0.0
H1258 H 0.7076 0.11257 0.52815 0.0
H1259 H 0.70132 0.11142 0.54821 0.0
C1260 C 0.03609 0.47109 0.28092 0.0
C1261 C 0.02021 0.45672 0.27401 0.0
C1262 C 0.0164 0.4647 0.24828 0.0
C1263 C -0.0 0.46092 0.24777 0.0
C1264 C 0.99509 0.46984 0.23828 0.0
C1265 C 0.00694 0.48296 0.22933 0.0
C1266 C 0.02348 0.48656 0.22963 0.0
C1267 C 0.02793 0.47714 0.23893 0.0
C1268 C 0.9773 0.46541 0.238 0.0
C1269 C 0.03648 0.50057 0.2204 0.0
C1270 C 0.99464 0.58064 0.28111 0.0
C1271 C 0.98913 0.56475 0.27255 0.0
C1272 C 0.99596 0.55416 0.24925 0.0
C1273 C 0.00832 0.55808 0.23838 0.0
C1274 C 0.00871 0.54577 0.22917 0.0
C1275 C 0.99594 0.52918 0.23042 0.0
C1276 C 0.98312 0.52519 0.24111 0.0
C1277 C 0.98338 0.53768 0.25057 0.0
C1278 C 0.0229 0.55052 0.2183 0.0
C1279 C 0.96919 0.50771 0.24268 0.0
C1280 C 0.96592 0.53726 0.13306 0.0
C1281 C 0.98277 0.54287 0.1349 0.0
C1282 C 0.98819 0.53294 0.14193 0.0
C1283 C 0.97652 0.5171 0.14717 0.0
C1284 C 0.95956 0.51115 0.14465 0.0
C1285 C 0.9545 0.52129 0.13748 0.0
C1286 C 0.00638 0.53945 0.14401 0.0
C1287 C 0.94679 0.49424 0.14989 0.0
C1288 C 0.00427 0.42247 0.13817 0.0
C1289 C 0.99356 0.42277 0.12473 0.0
C1290 C 0.99586 0.4498 0.12872 0.0
C1291 C 0.00832 0.46629 0.12963 0.0
C1292 C 0.00622 0.47804 0.13806 0.0
C1293 C 0.99108 0.47318 0.14541 0.0
C1294 C 0.97816 0.45664 0.14398 0.0
C1295 C 0.9807 0.44508 0.1357 0.0
C1296 C 0.02025 0.49559 0.13935 0.0
C1297 C 0.96172 0.45118 0.15131 0.0
C1298 C 0.00216 0.49339 0.22032 0.0
C1299 C 0.00115 0.50587 0.22849 0.0
C1300 C 0.99631 0.51595 0.22096 0.0
C1301 C 0.99224 0.51349 0.2048 0.0
C1302 C 0.98669 0.52294 0.19697 0.0
C1303 C 0.98321 0.52077 0.18097 0.0
C1304 C 0.98513 0.50906 0.17218 0.0
C1305 C 0.98198 0.50702 0.15584 0.0
C1306 C 0.984 0.49525 0.14747 0.0
C1307 C 0.98897 0.48528 0.15501 0.0
C1308 C 0.99204 0.48703 0.17135 0.0
C1309 C 0.99684 0.47704 0.17933 0.0
C1310 C -9e-05 0.47891 0.1954 0.0
C1311 C 0.99864 0.49108 0.20406 0.0
C1312 C 0.99371 0.50121 0.19628 0.0
C1313 C 0.99027 0.49908 0.17993 0.0
C1314 C 0.95508 0.56724 0.13777 0.0
C1315 C 0.96721 0.56371 0.12914 0.0
O1316 O 0.02131 0.45653 0.25785 0.0
O1317 O 0.99883 0.43895 0.12075 0.0
O1318 O 0.96023 0.5468 0.12695 0.0
O1319 O 0.99665 0.56658 0.25824 0.0
H1320 H 0.00983 0.45858 0.27745 0.0
H1321 H 0.03799 0.48292 0.27625 0.0
H1322 H 0.04681 0.46974 0.27779 0.0
H1323 H 0.0354 0.47162 0.29387 0.0
H1324 H 0.99108 0.45099 0.25483 0.0
H1325 H 0.04056 0.47982 0.23938 0.0
H1326 H 0.97613 0.47536 0.24395 0.0
H1327 H 0.96931 0.45364 0.24399 0.0
H1328 H 0.97282 0.46434 0.22574 0.0
H1329 H 0.04895 0.50245 0.22273 0.0
H1330 H 0.03653 0.51218 0.22333 0.0
H1331 H 0.03364 0.49801 0.2077 0.0
H1332 H 0.97555 0.55646 0.27197 0.0
H1333 H 0.00689 0.57897 0.30093 0.0
H1334 H 0.98335 0.58187 0.28189 0.0
H1335 H 0.00083 0.5907 0.2723 0.0
H1336 H 0.01797 0.57083 0.23746 0.0
H1337 H 0.97364 0.53447 0.25885 0.0
H1338 H 0.01859 0.54959 0.206 0.0
H1339 H 0.02781 0.54199 0.21951 0.0
H1340 H 0.03305 0.56333 0.22059 0.0
H1341 H 0.95872 0.50714 0.24915 0.0
H1342 H 0.97368 0.50053 0.24917 0.0
H1343 H 0.9647 0.50172 0.23098 0.0
H1344 H 0.97842 0.5688 0.13675 0.0
H1345 H 0.99171 0.55494 0.13079 0.0
H1346 H 0.94153 0.51697 0.13571 0.0
H1347 H 0.00961 0.541 0.15668 0.0
H1348 H 0.0139 0.55149 0.13829 0.0
H1349 H 0.00962 0.53044 0.13905 0.0
H1350 H 0.93408 0.49147 0.14716 0.0
H1351 H 0.94805 0.49329 0.16271 0.0
H1352 H 0.94881 0.48475 0.14407 0.0
H1353 H 0.98061 0.41656 0.12858 0.0
H1354 H 0.00027 0.40955 0.14136 0.0
H1355 H 0.00314 0.42895 0.14865 0.0
H1356 H 0.01739 0.42869 0.13477 0.0
H1357 H 0.01989 0.46985 0.12401 0.0
H1358 H 0.9707 0.43251 0.13453 0.0
H1359 H 0.02355 0.49915 0.15188 0.0
H1360 H 0.01639 0.50404 0.13439 0.0
H1361 H 0.03133 0.49734 0.13314 0.0
H1362 H 0.9526 0.43812 0.14834 0.0
H1363 H 0.9568 0.45913 0.14734 0.0
H1364 H 0.96325 0.4526 0.16423 0.0
H1365 H 0.00418 0.50777 0.24091 0.0
H1366 H 0.98503 0.53216 0.20312 0.0
H1367 H 0.97909 0.52848 0.17557 0.0
H1368 H 0.98165 0.49382 0.13492 0.0
H1369 H 0.99825 0.46763 0.17325 0.0
H1370 H 0.00348 0.47082 0.20092 0.0
H1371 H 0.96039 0.58074 0.13963 0.0
H1372 H 0.95244 0.56136 0.1494 0.0
H1373 H 0.94333 0.56224 0.13104 0.0
C1374 C 0.46202 0.41236 0.29304 0.0
C1375 C 0.45284 0.4181 0.28233 0.0
C1376 C 0.4639 0.42686 0.25648 0.0
C1377 C 0.46072 0.43971 0.25377 0.0
C1378 C 0.47046 0.45237 0.24352 0.0
C1379 C 0.48382 0.45226 0.23608 0.0
C1380 C 0.48679 0.43905 0.23859 0.0
C1381 C 0.4765 0.42629 0.24852 0.0
C1382 C 0.46671 0.46605 0.24092 0.0
C1383 C 0.50113 0.43865 0.23122 0.0
C1384 C 0.59124 0.56579 0.279 0.0
C1385 C 0.58157 0.55031 0.26959 0.0
C1386 C 0.55474 0.53404 0.25665 0.0
C1387 C 0.55852 0.52284 0.24929 0.0
C1388 C 0.54694 0.51002 0.23956 0.0
C1389 C 0.53139 0.50854 0.23686 0.0
C1390 C 0.52765 0.51994 0.24403 0.0
C1391 C 0.53937 0.53249 0.25392 0.0
C1392 C 0.55127 0.49791 0.23235 0.0
C1393 C 0.51121 0.51877 0.24137 0.0
C1394 C 0.55894 0.53234 0.13502 0.0
C1395 C 0.56259 0.52162 0.14323 0.0
C1396 C 0.5504 0.50845 0.15161 0.0
C1397 C 0.53434 0.50616 0.15207 0.0
C1398 C 0.53066 0.51695 0.14387 0.0
C1399 C 0.543 0.52981 0.13535 0.0
C1400 C 0.55469 0.49697 0.15997 0.0
C1401 C 0.51371 0.51493 0.14418 0.0
C1402 C 0.43523 0.37805 0.13344 0.0
C1403 C 0.44044 0.39537 0.12776 0.0
C1404 C 0.46714 0.41927 0.13486 0.0
C1405 C 0.48274 0.4229 0.14004 0.0
C1406 C 0.49307 0.43759 0.14836 0.0
C1407 C 0.48773 0.44905 0.15128 0.0
C1408 C 0.47224 0.44579 0.14545 0.0
C1409 C 0.46209 0.43092 0.13726 0.0
C1410 C 0.50961 0.44077 0.15422 0.0
C1411 C 0.46641 0.45798 0.14801 0.0
C1412 C 0.49542 0.46659 0.22675 0.0
C1413 C 0.50702 0.48072 0.23498 0.0
C1414 C 0.51879 0.49456 0.22718 0.0
C1415 C 0.51901 0.49444 0.21064 0.0
C1416 C 0.53051 0.50825 0.20239 0.0
C1417 C 0.53113 0.50773 0.18614 0.0
C1418 C 0.52033 0.49336 0.17752 0.0
C1419 C 0.52139 0.49242 0.16107 0.0
C1420 C 0.5104 0.47797 0.15286 0.0
C1421 C 0.4983 0.4643 0.16064 0.0
C1422 C 0.49704 0.46499 0.17709 0.0
C1423 C 0.48499 0.45148 0.18529 0.0
C1424 C 0.48418 0.45211 0.20153 0.0
C1425 C 0.49557 0.46614 0.2102 0.0
C1426 C 0.50753 0.48007 0.20214 0.0
C1427 C 0.50822 0.47951 0.18556 0.0
C1428 C 0.59549 0.56144 0.14095 0.0
C1429 C 0.58706 0.55128 0.12604 0.0
O1430 O 0.45508 0.41498 0.2669 0.0
O1431 O 0.45744 0.4045 0.1275 0.0
O1432 O 0.57027 0.54521 0.12666 0.0
O1433 O 0.5655 0.54636 0.26648 0.0
H1434 H 0.45816 0.4316 0.28455 0.0
H1435 H 0.4753 0.41903 0.29026 0.0
H1436 H 0.45719 0.39891 0.29139 0.0
H1437 H 0.46071 0.41499 0.3055 0.0
H1438 H 0.45065 0.43983 0.25974 0.0
H1439 H 0.47871 0.41618 0.25066 0.0
H1440 H 0.47613 0.47742 0.24711 0.0
H1441 H 0.45444 0.46294 0.24539 0.0
H1442 H 0.46718 0.46877 0.22827 0.0
H1443 H 0.5029 0.42864 0.2359 0.0
H1444 H 0.51262 0.45061 0.23326 0.0
H1445 H 0.49903 0.43668 0.21838 0.0
H1446 H 0.58259 0.53962 0.27377 0.0
H1447 H 0.59432 0.56182 0.29031 0.0
H1448 H 0.5821 0.56875 0.28442 0.0
H1449 H 0.60928 0.58156 0.26354 0.0
H1450 H 0.57039 0.52389 0.2512 0.0
H1451 H 0.53656 0.54119 0.2596 0.0
H1452 H 0.55188 0.49919 0.21945 0.0
H1453 H 0.54161 0.48508 0.23488 0.0
H1454 H 0.56328 0.49985 0.23675 0.0
H1455 H 0.5109 0.52964 0.2463 0.0
H1456 H 0.50151 0.50752 0.24699 0.0
H1457 H 0.50824 0.51764 0.22865 0.0
H1458 H 0.58956 0.54091 0.12487 0.0
H1459 H 0.57485 0.52335 0.14316 0.0
H1460 H 0.54029 0.53812 0.12899 0.0
H1461 H 0.55428 0.49865 0.17281 0.0
H1462 H 0.56713 0.49926 0.15701 0.0
H1463 H 0.54556 0.48394 0.15694 0.0
H1464 H 0.51317 0.52511 0.1382 0.0
H1465 H 0.50977 0.51446 0.15647 0.0
H1466 H 0.50481 0.50309 0.1383 0.0
H1467 H 0.4355 0.40077 0.13635 0.0
H1468 H 0.42162 0.37046 0.13375 0.0
H1469 H 0.44019 0.37883 0.14546 0.0
H1470 H 0.43999 0.37186 0.12564 0.0
H1471 H 0.48662 0.41395 0.13788 0.0
H1472 H 0.4503 0.42849 0.13267 0.0
H1473 H 0.51049 0.4426 0.16714 0.0
H1474 H 0.51948 0.45226 0.14909 0.0
H1475 H 0.51183 0.43048 0.15121 0.0
H1476 H 0.45435 0.45396 0.14217 0.0
H1477 H 0.47559 0.47019 0.14348 0.0
H1478 H 0.46525 0.45959 0.16074 0.0
H1479 H 0.50709 0.48083 0.24769 0.0
H1480 H 0.53924 0.51957 0.20844 0.0
H1481 H 0.54032 0.51869 0.18042 0.0
H1482 H 0.51144 0.47726 0.14027 0.0
H1483 H 0.47608 0.44024 0.17926 0.0
H1484 H 0.47465 0.44135 0.20723 0.0
H1485 H 0.60895 0.56629 0.14061 0.0
H1486 H 0.59068 0.55367 0.15143 0.0
H1487 H 0.59322 0.57196 0.14216 0.0
C1488 C 0.4371 0.96691 0.28531 0.0
C1489 C 0.43686 0.98174 0.27831 0.0
C1490 C 0.44775 0.98487 0.25235 0.0
C1491 C 0.4594 0.00164 0.25133 0.0
C1492 C 0.47313 0.00689 0.24177 0.0
C1493 C 0.4753 0.99504 0.23329 0.0
C1494 C 0.46329 0.97811 0.23405 0.0
C1495 C 0.44946 0.97328 0.24339 0.0
C1496 C 0.48548 0.02506 0.241 0.0
C1497 C 0.4653 0.96509 0.22541 0.0
C1498 C 0.57163 0.03463 0.29529 0.0
C1499 C 0.56848 0.02009 0.28457 0.0
C1500 C 0.55985 0.02116 0.25812 0.0
C1501 C 0.54874 0.0046 0.25437 0.0
C1502 C 0.53598 0.00033 0.24341 0.0
C1503 C 0.53419 0.01293 0.23631 0.0
C1504 C 0.54566 0.02969 0.23989 0.0
C1505 C 0.55859 0.03358 0.25053 0.0
C1506 C 0.52424 0.98236 0.23963 0.0
C1507 C 0.54398 0.04349 0.23288 0.0
C1508 C 0.57067 0.03212 0.13893 0.0
C1509 C 0.55949 0.01514 0.13985 0.0
C1510 C 0.54393 0.00941 0.14634 0.0
C1511 C 0.53947 0.02091 0.15189 0.0
C1512 C 0.5504 0.038 0.15021 0.0
C1513 C 0.56584 0.04336 0.14362 0.0
C1514 C 0.53235 0.99111 0.14758 0.0
C1515 C 0.54592 0.05058 0.15576 0.0
C1516 C 0.41521 0.98929 0.13851 0.0
C1517 C 0.42802 0.00141 0.12728 0.0
C1518 C 0.45268 0.99934 0.13181 0.0
C1519 C 0.45651 0.98679 0.13313 0.0
C1520 C 0.47035 0.98928 0.14175 0.0
C1521 C 0.48076 0.00485 0.14893 0.0
C1522 C 0.47735 0.01783 0.14708 0.0
C1523 C 0.46332 0.01494 0.13852 0.0
C1524 C 0.4737 0.97522 0.14343 0.0
C1525 C 0.48849 0.03472 0.15423 0.0
C1526 C 0.4907 0.00025 0.22459 0.0
C1527 C 0.50473 0.00369 0.23329 0.0
C1528 C 0.51971 0.0086 0.22606 0.0
C1529 C 0.52074 0.00984 0.20959 0.0
C1530 C 0.53548 0.01423 0.20188 0.0
C1531 C 0.5365 0.01593 0.18571 0.0
C1532 C 0.52278 0.01316 0.17662 0.0
C1533 C 0.52378 0.01516 0.1602 0.0
C1534 C 0.5099 0.01224 0.1515 0.0
C1535 C 0.49495 0.00744 0.15879 0.0
C1536 C 0.49371 0.00546 0.17519 0.0
C1537 C 0.47888 0.00076 0.18289 0.0
C1538 C 0.47786 0.99909 0.19907 0.0
C1539 C 0.49159 0.00192 0.20815 0.0
C1540 C 0.50666 0.00665 0.20063 0.0
C1541 C 0.50771 0.00837 0.18413 0.0
C1542 C 0.61153 0.04304 0.14445 0.0
C1543 C 0.59593 0.03106 0.13524 0.0
O1544 O 0.43494 0.97968 0.26219 0.0
O1545 O 0.43896 0.99607 0.12354 0.0
O1546 O 0.58613 0.03813 0.1335 0.0
O1547 O 0.57168 0.0254 0.26927 0.0
H1548 H 0.44876 0.99302 0.28141 0.0
H1549 H 0.44752 0.96592 0.28052 0.0
H1550 H 0.42548 0.95532 0.2824 0.0
H1551 H 0.43869 0.96839 0.29824 0.0
H1552 H 0.45776 0.01056 0.25811 0.0
H1553 H 0.44026 0.96035 0.24425 0.0
H1554 H 0.49692 0.02767 0.24733 0.0
H1555 H 0.48083 0.03278 0.24636 0.0
H1556 H 0.48869 0.02871 0.22865 0.0
H1557 H 0.45552 0.9524 0.22823 0.0
H1558 H 0.47743 0.96641 0.22838 0.0
H1559 H 0.46494 0.96673 0.21261 0.0
H1560 H 0.55531 0.01047 0.28579 0.0
H1561 H 0.56901 0.03064 0.30763 0.0
H1562 H 0.56345 0.03944 0.29175 0.0
H1563 H 0.58459 0.04475 0.29451 0.0
H1564 H 0.55005 0.99507 0.26011 0.0
H1565 H 0.56736 0.04634 0.25351 0.0
H1566 H 0.5223 0.98032 0.22677 0.0
H1567 H 0.51215 0.97867 0.24489 0.0
H1568 H 0.52873 0.97427 0.24424 0.0
H1569 H 0.55279 0.0557 0.23823 0.0
H1570 H 0.53131 0.04124 0.23444 0.0
H1571 H 0.54624 0.04397 0.22013 0.0
H1572 H 0.58971 0.01969 0.14228 0.0
H1573 H 0.56284 0.00633 0.1355 0.0
H1574 H 0.57444 0.05643 0.14256 0.0
H1575 H 0.52997 0.98782 0.1601 0.0
H1576 H 0.53733 0.98374 0.14209 0.0
H1577 H 0.52039 0.98769 0.14186 0.0
H1578 H 0.55558 0.06339 0.15316 0.0
H1579 H 0.54398 0.04959 0.16859 0.0
H1580 H 0.53421 0.04806 0.15007 0.0
H1581 H 0.43444 0.01374 0.13315 0.0
H1582 H 0.40631 0.99335 0.14161 0.0
H1583 H 0.42136 0.98875 0.14946 0.0
H1584 H 0.40843 0.97672 0.13311 0.0
H1585 H 0.44837 0.97489 0.12765 0.0
H1586 H 0.46095 0.02499 0.1369 0.0
H1587 H 0.4739 0.97252 0.15602 0.0
H1588 H 0.48598 0.97881 0.13871 0.0
H1589 H 0.46434 0.96382 0.13722 0.0
H1590 H 0.48463 0.04374 0.15101 0.0
H1591 H 0.50129 0.03939 0.15035 0.0
H1592 H 0.4885 0.03389 0.16718 0.0
H1593 H 0.50402 0.00267 0.24593 0.0
H1594 H 0.54642 0.0165 0.20828 0.0
H1595 H 0.54821 0.01947 0.18045 0.0
H1596 H 0.51078 0.01389 0.13893 0.0
H1597 H 0.46789 0.99838 0.17651 0.0
H1598 H 0.46617 0.99558 0.20437 0.0
H1599 H 0.61964 0.03767 0.14593 0.0
H1600 H 0.60822 0.04546 0.15625 0.0
H1601 H 0.61838 0.05497 0.13837 0.0
C1602 C 0.54908 0.99051 0.72386 0.0
C1603 C 0.56261 0.00242 0.73526 0.0
C1604 C 0.55085 0.99723 0.76099 0.0
C1605 C 0.55491 0.01289 0.76677 0.0
C1606 C 0.54475 0.01481 0.7775 0.0
C1607 C 0.53016 0.00074 0.78234 0.0
C1608 C 0.52637 0.98485 0.7769 0.0
C1609 C 0.53698 0.98329 0.76646 0.0
C1610 C 0.54937 0.03189 0.78332 0.0
C1611 C 0.51082 0.96959 0.78163 0.0
C1612 C 0.47549 0.0438 0.72804 0.0
C1613 C 0.46236 0.02866 0.73642 0.0
C1614 C 0.47062 0.02615 0.76273 0.0
C1615 C 0.46559 0.00933 0.76316 0.0
C1616 C 0.47338 0.00362 0.7733 0.0
C1617 C 0.48654 0.01503 0.78306 0.0
C1618 C 0.49121 0.03194 0.78302 0.0
C1619 C 0.48294 0.03723 0.77301 0.0
C1620 C 0.46782 0.98547 0.77332 0.0
C1621 C 0.50531 0.04449 0.79312 0.0
C1622 C 0.45381 0.00491 0.88283 0.0
C1623 C 0.44954 0.98932 0.87653 0.0
C1624 C 0.4611 0.9869 0.86839 0.0
C1625 C 0.4772 0.00032 0.8666 0.0
C1626 C 0.48164 0.01591 0.87329 0.0
C1627 C 0.46988 0.01794 0.88146 0.0
C1628 C 0.45613 0.97004 0.86167 0.0
C1629 C 0.49872 0.03046 0.87163 0.0
C1630 C 0.57312 0.97051 0.87269 0.0
C1631 C 0.56919 0.97954 0.88553 0.0
C1632 C 0.54238 0.97707 0.88072 0.0
C1633 C 0.52698 0.96516 0.87485 0.0
C1634 C 0.51653 0.96971 0.86741 0.0
C1635 C 0.52159 0.98662 0.86604 0.0
C1636 C 0.5368 0.99872 0.8727 0.0
C1637 C 0.54702 0.99382 0.88006 0.0
C1638 C 0.50024 0.9565 0.8607 0.0
C1639 C 0.54233 0.01683 0.87182 0.0
C1640 C 0.5182 0.00279 0.79191 0.0
C1641 C 0.50811 0.00751 0.78418 0.0
C1642 C 0.49635 0.00953 0.7922 0.0
C1643 C 0.49436 0.00657 0.80843 0.0
C1644 C 0.48239 0.00811 0.81681 0.0
C1645 C 0.4807 0.00539 0.83282 0.0
C1646 C 0.49085 0.0009 0.84105 0.0
C1647 C 0.48929 0.99818 0.85733 0.0
C1648 C 0.49943 0.99356 0.86514 0.0
C1649 C 0.51128 0.99166 0.8571 0.0
C1650 C 0.51318 0.99451 0.84083 0.0
C1651 C 0.52513 0.99293 0.83242 0.0
C1652 C 0.52689 0.99574 0.81642 0.0
C1653 C 0.51668 0.00011 0.8082 0.0
C1654 C 0.50463 0.00192 0.81646 0.0
C1655 C 0.50288 0.9991 0.83279 0.0
C1656 C 0.42396 0.01215 0.87631 0.0
C1657 C 0.42641 0.0011 0.88774 0.0
O1658 O 0.56 0.99537 0.74988 0.0
O1659 O 0.5523 0.97195 0.88712 0.0
O1660 O 0.44307 0.00778 0.89086 0.0
O1661 O 0.46385 0.03198 0.75241 0.0
H1662 H 0.56207 0.01404 0.73591 0.0
H1663 H 0.5369 0.98797 0.72808 0.0
H1664 H 0.54903 0.97864 0.72291 0.0
H1665 H 0.55094 0.99597 0.71207 0.0
H1666 H 0.56594 0.0236 0.76275 0.0
H1667 H 0.53411 0.97125 0.76198 0.0
H1668 H 0.54096 0.0356 0.77793 0.0
H1669 H 0.56218 0.04117 0.78035 0.0
H1670 H 0.548 0.032 0.79621 0.0
H1671 H 0.50919 0.95828 0.7756 0.0
H1672 H 0.5 0.97096 0.77891 0.0
H1673 H 0.51109 0.968 0.79446 0.0
H1674 H 0.46449 0.01824 0.7336 0.0
H1675 H 0.47464 0.04139 0.7152 0.0
H1676 H 0.48789 0.04672 0.73223 0.0
H1677 H 0.47401 0.05468 0.73043 0.0
H1678 H 0.45564 0.00072 0.75551 0.0
H1679 H 0.48654 0.05016 0.77267 0.0
H1680 H 0.47734 0.98343 0.76783 0.0
H1681 H 0.45605 0.97797 0.76675 0.0
H1682 H 0.4663 0.98105 0.78552 0.0
H1683 H 0.50794 0.05727 0.79109 0.0
H1684 H 0.51656 0.04385 0.79072 0.0
H1685 H 0.5024 0.04169 0.80565 0.0
H1686 H 0.421 0.98859 0.88232 0.0
H1687 H 0.43738 0.97892 0.87817 0.0
H1688 H 0.47311 0.02985 0.88661 0.0
H1689 H 0.4576 0.97073 0.84878 0.0
H1690 H 0.4432 0.96079 0.86429 0.0
H1691 H 0.46432 0.96575 0.86649 0.0
H1692 H 0.50031 0.0417 0.87777 0.0
H1693 H 0.50139 0.03318 0.85903 0.0
H1694 H 0.50789 0.02742 0.87641 0.0
H1695 H 0.57446 0.9924 0.88145 0.0
H1696 H 0.58659 0.97544 0.87213 0.0
H1697 H 0.56882 0.97239 0.86117 0.0
H1698 H 0.56674 0.95703 0.87473 0.0
H1699 H 0.52336 0.95226 0.87573 0.0
H1700 H 0.55852 0.0031 0.88535 0.0
H1701 H 0.49999 0.95786 0.84782 0.0
H1702 H 0.49015 0.95795 0.86565 0.0
H1703 H 0.49787 0.94389 0.86316 0.0
H1704 H 0.55427 0.02471 0.87798 0.0
H1705 H 0.53293 0.01923 0.87705 0.0
H1706 H 0.54356 0.02048 0.85937 0.0
H1707 H 0.50947 0.00969 0.77169 0.0
H1708 H 0.47422 0.01149 0.81107 0.0
H1709 H 0.47131 0.00683 0.83867 0.0
H1710 H 0.49812 0.99146 0.87764 0.0
H1711 H 0.5333 0.98952 0.83811 0.0
H1712 H 0.53634 0.99442 0.81055 0.0
H1713 H 0.4107 0.00696 0.87349 0.0
H1714 H 0.43042 0.01298 0.86524 0.0
H1715 H 0.42898 0.02478 0.8814 0.0
C1716 C 0.01346 0.5624 0.72746 0.0
C1717 C -0.00015 0.56099 0.73815 0.0
C1718 C 0.00296 0.55179 0.76363 0.0
C1719 C 0.98708 0.53893 0.76663 0.0
C1720 C 0.98462 0.52619 0.77665 0.0
C1721 C 0.99838 0.52631 0.78366 0.0
C1722 C 0.01441 0.53953 0.78091 0.0
C1723 C 0.01645 0.5523 0.77113 0.0
C1724 C 0.96736 0.51245 0.77954 0.0
C1725 C 0.0294 0.53996 0.78793 0.0
C1726 C 0.00543 0.42047 0.74096 0.0
C1727 C 0.00896 0.43536 0.75041 0.0
C1728 C 0.99481 0.44799 0.76336 0.0
C1729 C 0.00888 0.46008 0.77147 0.0
C1730 C 0.00817 0.47185 0.78122 0.0
C1731 C 0.99302 0.47142 0.78307 0.0
C1732 C 0.97877 0.45912 0.77517 0.0
C1733 C 0.97987 0.44756 0.76537 0.0
C1734 C 0.02369 0.48492 0.78933 0.0
C1735 C 0.96244 0.45831 0.77696 0.0
C1736 C 0.98918 0.44334 0.88345 0.0
C1737 C 0.00477 0.45506 0.87818 0.0
C1738 C 0.00705 0.4691 0.87032 0.0
C1739 C 0.9935 0.47149 0.86783 0.0
C1740 C 0.97791 0.45997 0.87358 0.0
C1741 C 0.976 0.4461 0.88145 0.0
C1742 C 0.02393 0.48136 0.86464 0.0
C1743 C 0.96324 0.46221 0.8712 0.0
C1744 C 0.03338 0.60204 0.87661 0.0
C1745 C 0.02119 0.5876 0.8864 0.0
C1746 C 0.02053 0.56139 0.8824 0.0
C1747 C 0.03121 0.55607 0.87738 0.0
C1748 C 0.02523 0.54058 0.87006 0.0
C1749 C 0.00807 0.53004 0.86807 0.0
C1750 C 0.99714 0.53498 0.87395 0.0
C1751 C 0.00349 0.55064 0.88108 0.0
C1752 C 0.03726 0.53563 0.86414 0.0
C1753 C 0.97879 0.52382 0.87239 0.0
C1754 C 0.99606 0.51208 0.79296 0.0
C1755 C 0.99408 0.49819 0.78475 0.0
C1756 C 0.99248 0.4845 0.79259 0.0
C1757 C 0.9923 0.48435 0.80912 0.0
C1758 C 0.99004 0.47051 0.81736 0.0
C1759 C 0.99069 0.47079 0.83364 0.0
C1760 C 0.99394 0.48504 0.84228 0.0
C1761 C 0.99551 0.48577 0.85879 0.0
C1762 C 0.99951 0.50038 0.86696 0.0
C1763 C 0.00176 0.51431 0.85906 0.0
C1764 C 0.99948 0.51357 0.84262 0.0
C1765 C 0.001 0.52715 0.83437 0.0
C1766 C 0.99934 0.52651 0.81814 0.0
C1767 C 0.99666 0.51248 0.80951 0.0
C1768 C 0.99478 0.49855 0.8176 0.0
C1769 C 0.9959 0.49899 0.83419 0.0
C1770 C 0.98153 0.40483 0.87839 0.0
C1771 C 0.99359 0.42 0.88816 0.0
O1772 O 0.00555 0.56383 0.75353 0.0
O1773 O 0.02711 0.57686 0.88861 0.0
O1774 O 0.98643 0.4296 0.89106 0.0
O1775 O 0.99519 0.43667 0.7535 0.0
H1776 H 0.98911 0.54831 0.73658 0.0
H1777 H 0.01701 0.55317 0.73076 0.0
H1778 H 0.02448 0.57491 0.72856 0.0
H1779 H 0.00912 0.55999 0.71506 0.0
H1780 H 0.97664 0.53889 0.76113 0.0
H1781 H 0.02864 0.56244 0.76881 0.0
H1782 H 0.96552 0.50088 0.77392 0.0
H1783 H 0.95796 0.51515 0.77477 0.0
H1784 H 0.96544 0.51029 0.7923 0.0
H1785 H 0.04101 0.55033 0.7835 0.0
H1786 H 0.02916 0.52821 0.78527 0.0
H1787 H 0.02938 0.5413 0.80085 0.0
H1788 H 0.01956 0.44711 0.74632 0.0
H1789 H 0.01213 0.42536 0.72968 0.0
H1790 H 0.99285 0.41561 0.7355 0.0
H1791 H 0.01105 0.40672 0.7564 0.0
H1792 H 0.02054 0.46055 0.77015 0.0
H1793 H 0.96906 0.43817 0.75913 0.0
H1794 H 0.02239 0.48349 0.8022 0.0
H1795 H 0.02579 0.49737 0.7866 0.0
H1796 H 0.03468 0.48421 0.78584 0.0
H1797 H 0.95223 0.44714 0.77117 0.0
H1798 H 0.96305 0.46939 0.77175 0.0
H1799 H 0.95968 0.45837 0.78957 0.0
H1800 H 0.00502 0.42677 0.88136 0.0
H1801 H 0.01525 0.4535 0.8804 0.0
H1802 H 0.96409 0.43714 0.88585 0.0
H1803 H 0.02355 0.48236 0.85173 0.0
H1804 H 0.03326 0.47787 0.86771 0.0
H1805 H 0.02782 0.49373 0.86983 0.0
H1806 H 0.95196 0.45221 0.87652 0.0
H1807 H 0.96089 0.46248 0.85848 0.0
H1808 H 0.96584 0.47422 0.87643 0.0
H1809 H 0.00937 0.58152 0.87967 0.0
H1810 H 0.02892 0.61087 0.87476 0.0
H1811 H 0.03466 0.59738 0.86498 0.0
H1812 H 0.04567 0.60862 0.88246 0.0
H1813 H 0.04433 0.56435 0.87876 0.0
H1814 H 0.99515 0.55442 0.88565 0.0
H1815 H 0.0355 0.53318 0.85131 0.0
H1816 H 0.03491 0.52406 0.86975 0.0
H1817 H 0.05022 0.54528 0.86656 0.0
H1818 H 0.97192 0.52899 0.87848 0.0
H1819 H 0.97519 0.51157 0.87728 0.0
H1820 H 0.97513 0.52189 0.85981 0.0
H1821 H 0.99434 0.49826 0.77205 0.0
H1822 H 0.98778 0.45933 0.81129 0.0
H1823 H 0.98894 0.45979 0.83936 0.0
H1824 H 0.00126 0.50103 0.87957 0.0
H1825 H 0.00347 0.53844 0.84037 0.0
H1826 H 0.00057 0.5373 0.81242 0.0
H1827 H 0.98701 0.39704 0.87549 0.0
H1828 H 0.97851 0.40878 0.86725 0.0
H1829 H 0.96997 0.39736 0.88486 0.0
C1830 C 0.54139 0.54945 0.72976 0.0
C1831 C 0.54722 0.5662 0.73791 0.0
C1832 C 0.53639 0.55706 0.76377 0.0
C1833 C 0.52403 0.5612 0.76489 0.0
C1834 C 0.51049 0.5523 0.77454 0.0
C1835 C 0.50922 0.53884 0.78303 0.0
C1836 C 0.52194 0.53496 0.78222 0.0
C1837 C 0.53556 0.54438 0.77281 0.0
C1838 C 0.49737 0.55706 0.7754 0.0
C1839 C 0.5209 0.52051 0.79082 0.0
C1840 C 0.41297 0.47092 0.71934 0.0
C1841 C 0.41836 0.46259 0.73141 0.0
C1842 C 0.4267 0.47491 0.75744 0.0
C1843 C 0.43888 0.47104 0.76122 0.0
C1844 C 0.45123 0.48056 0.77235 0.0
C1845 C 0.45151 0.49439 0.77959 0.0
C1846 C 0.43897 0.49808 0.77599 0.0
C1847 C 0.42649 0.48801 0.76519 0.0
C1848 C 0.46415 0.47602 0.77613 0.0
C1849 C 0.43902 0.51293 0.78313 0.0
C1850 C 0.41574 0.47503 0.87846 0.0
C1851 C 0.4275 0.47025 0.87577 0.0
C1852 C 0.44247 0.48104 0.86872 0.0
C1853 C 0.44571 0.49689 0.86431 0.0
C1854 C 0.43413 0.50193 0.86756 0.0
C1855 C 0.41935 0.49095 0.87474 0.0
C1856 C 0.45478 0.47548 0.86583 0.0
C1857 C 0.43727 0.51879 0.86317 0.0
C1858 C 0.56034 0.60127 0.88196 0.0
C1859 C 0.55041 0.59355 0.89671 0.0
C1860 C 0.52973 0.56596 0.88652 0.0
C1861 C 0.52626 0.54966 0.88507 0.0
C1862 C 0.51314 0.5381 0.87564 0.0
C1863 C 0.50302 0.54294 0.8677 0.0
C1864 C 0.50619 0.55933 0.86941 0.0
C1865 C 0.51962 0.57073 0.87867 0.0
C1866 C 0.51016 0.52074 0.87407 0.0
C1867 C 0.49541 0.5648 0.8614 0.0
C1868 C 0.49398 0.52802 0.79165 0.0
C1869 C 0.4803 0.51659 0.78285 0.0
C1870 C 0.46555 0.5057 0.78997 0.0
C1871 C 0.46437 0.50601 0.80645 0.0
C1872 C 0.44988 0.49492 0.81406 0.0
C1873 C 0.44873 0.49557 0.83025 0.0
C1874 C 0.46209 0.50724 0.83948 0.0
C1875 C 0.461 0.50805 0.85594 0.0
C1876 C 0.47449 0.51981 0.86475 0.0
C1877 C 0.48919 0.53085 0.85757 0.0
C1878 C 0.49054 0.5302 0.84113 0.0
C1879 C 0.50516 0.54106 0.83352 0.0
C1880 C 0.50629 0.54046 0.81732 0.0
C1881 C 0.49293 0.52883 0.80811 0.0
C1882 C 0.47807 0.51773 0.81553 0.0
C1883 C 0.4769 0.51838 0.83206 0.0
C1884 C 0.37462 0.44257 0.87722 0.0
C1885 C 0.39201 0.44771 0.88297 0.0
O1886 O 0.54908 0.56494 0.75387 0.0
O1887 O 0.54291 0.57651 0.89559 0.0
O1888 O 0.40088 0.46474 0.8847 0.0
O1889 O 0.4151 0.46629 0.74626 0.0
H1890 H 0.5379 0.56998 0.73575 0.0
H1891 H 0.52931 0.54011 0.73437 0.0
H1892 H 0.55037 0.54522 0.73184 0.0
H1893 H 0.5399 0.55028 0.71695 0.0
H1894 H 0.52497 0.57137 0.75822 0.0
H1895 H 0.54529 0.54141 0.77191 0.0
H1896 H 0.48617 0.54762 0.76904 0.0
H1897 H 0.50135 0.56923 0.77011 0.0
H1898 H 0.49402 0.55747 0.78777 0.0
H1899 H 0.53117 0.51833 0.78793 0.0
H1900 H 0.50909 0.50915 0.7879 0.0
H1901 H 0.5212 0.52278 0.80363 0.0
H1902 H 0.43181 0.46766 0.72997 0.0
H1903 H 0.41572 0.46845 0.70731 0.0
H1904 H 0.41972 0.48447 0.72152 0.0
H1905 H 0.39958 0.46634 0.72015 0.0
H1906 H 0.43872 0.46059 0.75545 0.0
H1907 H 0.4169 0.49075 0.76223 0.0
H1908 H 0.47596 0.48512 0.77087 0.0
H1909 H 0.46074 0.46355 0.7715 0.0
H1910 H 0.46617 0.47641 0.78899 0.0
H1911 H 0.42955 0.51516 0.77768 0.0
H1912 H 0.45125 0.52413 0.78182 0.0
H1913 H 0.43657 0.51108 0.79583 0.0
H1914 H 0.39744 0.44342 0.8738 0.0
H1915 H 0.42507 0.45817 0.87923 0.0
H1916 H 0.4103 0.4946 0.87712 0.0
H1917 H 0.45644 0.47485 0.85303 0.0
H1918 H 0.45088 0.46319 0.8708 0.0
H1919 H 0.46689 0.48459 0.87104 0.0
H1920 H 0.4269 0.52074 0.86628 0.0
H1921 H 0.43931 0.52046 0.85038 0.0
H1922 H 0.44859 0.52841 0.86925 0.0
H1923 H 0.54097 0.59727 0.89814 0.0
H1924 H 0.56637 0.61493 0.88272 0.0
H1925 H 0.55217 0.59702 0.87143 0.0
H1926 H 0.56991 0.59773 0.88048 0.0
H1927 H 0.53408 0.54607 0.8912 0.0
H1928 H 0.52204 0.58327 0.87972 0.0
H1929 H 0.50962 0.51727 0.86151 0.0
H1930 H 0.49813 0.51203 0.8792 0.0
H1931 H 0.51987 0.51928 0.88006 0.0
H1932 H 0.49845 0.57742 0.86518 0.0
H1933 H 0.48229 0.55611 0.86388 0.0
H1934 H 0.49692 0.56467 0.84854 0.0
H1935 H 0.48114 0.5162 0.7702 0.0
H1936 H 0.43924 0.48564 0.80757 0.0
H1937 H 0.43721 0.48681 0.83545 0.0
H1938 H 0.47354 0.5204 0.87736 0.0
H1939 H 0.51589 0.5502 0.84001 0.0
H1940 H 0.51779 0.54921 0.81209 0.0
H1941 H 0.36725 0.42896 0.87557 0.0
H1942 H 0.37517 0.44834 0.86581 0.0
H1943 H 0.36839 0.4466 0.88574 0.0
C1944 C 0.6297 0.76708 0.62177 0.0
C1945 C 0.63259 0.75764 0.60854 0.0
C1946 C 0.64071 0.77759 0.58728 0.0
C1947 C 0.62485 0.77472 0.58363 0.0
C1948 C 0.62255 0.78483 0.57317 0.0
C1949 C 0.63636 0.7982 0.56634 0.0
C1950 C 0.65228 0.80091 0.56967 0.0
C1951 C 0.65422 0.79043 0.57998 0.0
C1952 C 0.60536 0.78146 0.56973 0.0
C1953 C 0.66728 0.81515 0.5627 0.0
C1954 C 0.61031 0.87161 0.62428 0.0
C1955 C 0.62453 0.8783 0.61284 0.0
C1956 C 0.62118 0.86542 0.58721 0.0
C1957 C 0.6372 0.86875 0.58442 0.0
C1958 C 0.64007 0.85879 0.574 0.0
C1959 C 0.62658 0.84504 0.56651 0.0
C1960 C 0.6104 0.84186 0.56916 0.0
C1961 C 0.60797 0.85239 0.57921 0.0
C1962 C 0.6575 0.86277 0.57124 0.0
C1963 C 0.59562 0.82708 0.5618 0.0
C1964 C 0.60871 0.85999 0.46704 0.0
C1965 C 0.62537 0.86524 0.46985 0.0
C1966 C 0.63005 0.85484 0.47714 0.0
C1967 C 0.61782 0.83897 0.48178 0.0
C1968 C 0.60108 0.83344 0.47836 0.0
C1969 C 0.59678 0.84399 0.47086 0.0
C1970 C 0.64803 0.8609 0.48016 0.0
C1971 C 0.58772 0.81652 0.48298 0.0
C1972 C 0.62553 0.73277 0.46855 0.0
C1973 C 0.62391 0.74075 0.45359 0.0
C1974 C 0.63178 0.76872 0.4634 0.0
C1975 C 0.64492 0.78487 0.46473 0.0
C1976 C 0.64375 0.79689 0.47367 0.0
C1977 C 0.62889 0.79269 0.48127 0.0
C1978 C 0.61539 0.77644 0.47976 0.0
C1979 C 0.61701 0.76456 0.47096 0.0
C1980 C 0.65841 0.81407 0.47504 0.0
C1981 C 0.59924 0.77163 0.48744 0.0
C1982 C 0.63413 0.81009 0.5568 0.0
C1983 C 0.63238 0.82218 0.56484 0.0
C1984 C 0.62928 0.8333 0.5569 0.0
C1985 C 0.62804 0.8325 0.54037 0.0
C1986 C 0.62506 0.84355 0.53198 0.0
C1987 C 0.62317 0.84222 0.51577 0.0
C1988 C 0.62452 0.82999 0.50729 0.0
C1989 C 0.62238 0.8284 0.49082 0.0
C1990 C 0.62393 0.81619 0.48274 0.0
C1991 C 0.62747 0.80535 0.49067 0.0
C1992 C 0.6295 0.80663 0.50716 0.0
C1993 C 0.63292 0.79585 0.51554 0.0
C1994 C 0.63443 0.79693 0.5318 0.0
C1995 C 0.63285 0.80901 0.54028 0.0
C1996 C 0.62972 0.82022 0.53205 0.0
C1997 C 0.62798 0.81899 0.51548 0.0
C1998 C 0.59885 0.89198 0.46637 0.0
C1999 C 0.61155 0.88697 0.46219 0.0
O2000 O 0.64358 0.76855 0.59787 0.0
O2001 O 0.634 0.75773 0.45473 0.0
O2002 O 0.60367 0.86994 0.46067 0.0
O2003 O 0.61813 0.87449 0.5977 0.0
H2004 H 0.6207 0.7492 0.6025 0.0
H2005 H 0.62411 0.77416 0.61707 0.0
H2006 H 0.64149 0.77585 0.62778 0.0
H2007 H 0.62118 0.75834 0.63048 0.0
H2008 H 0.61418 0.76478 0.58897 0.0
H2009 H 0.66639 0.79253 0.58277 0.0
H2010 H 0.60376 0.79141 0.57511 0.0
H2011 H 0.59583 0.76947 0.57439 0.0
H2012 H 0.60334 0.78146 0.5569 0.0
H2013 H 0.67884 0.81569 0.56658 0.0
H2014 H 0.66788 0.82694 0.56608 0.0
H2015 H 0.66638 0.81407 0.54973 0.0
H2016 H 0.63177 0.87211 0.61542 0.0
H2017 H 0.61503 0.87412 0.63656 0.0
H2018 H 0.60248 0.85806 0.62254 0.0
H2019 H 0.60261 0.87739 0.62234 0.0
H2020 H 0.64742 0.87913 0.59042 0.0
H2021 H 0.59566 0.85006 0.58142 0.0
H2022 H 0.65954 0.86212 0.55853 0.0
H2023 H 0.65967 0.85353 0.57711 0.0
H2024 H 0.66662 0.87522 0.5759 0.0
H2025 H 0.58391 0.82509 0.56681 0.0
H2026 H 0.59642 0.81577 0.56345 0.0
H2027 H 0.59527 0.82888 0.54903 0.0
H2028 H 0.62066 0.89138 0.47208 0.0
H2029 H 0.63472 0.87741 0.46634 0.0
H2030 H 0.58399 0.83999 0.46839 0.0
H2031 H 0.65059 0.86237 0.49296 0.0
H2032 H 0.65609 0.8729 0.47458 0.0
H2033 H 0.65121 0.85168 0.47568 0.0
H2034 H 0.57526 0.81423 0.4798 0.0
H2035 H 0.58835 0.81511 0.49581 0.0
H2036 H 0.58962 0.80697 0.47711 0.0
H2037 H 0.61092 0.73759 0.45182 0.0
H2038 H 0.6174 0.71917 0.46782 0.0
H2039 H 0.63844 0.73569 0.47035 0.0
H2040 H 0.62187 0.73741 0.47889 0.0
H2041 H 0.65625 0.78798 0.45884 0.0
H2042 H 0.60667 0.75215 0.47004 0.0
H2043 H 0.66141 0.8178 0.48757 0.0
H2044 H 0.65541 0.82291 0.4695 0.0
H2045 H 0.66943 0.81505 0.46934 0.0
H2046 H 0.5895 0.75893 0.48405 0.0
H2047 H 0.59504 0.78038 0.48423 0.0
H2048 H 0.60092 0.77233 0.50036 0.0
H2049 H 0.63308 0.82272 0.57755 0.0
H2050 H 0.62397 0.85326 0.53788 0.0
H2051 H 0.62062 0.85093 0.50998 0.0
H2052 H 0.62222 0.81502 0.47012 0.0
H2053 H 0.63431 0.78633 0.50964 0.0
H2054 H 0.63686 0.78817 0.53766 0.0
H2055 H 0.58919 0.88782 0.45705 0.0
H2056 H 0.60486 0.90559 0.46788 0.0
H2057 H 0.5929 0.88625 0.47754 0.0
C2058 C 0.12572 0.74724 0.62717 0.0
C2059 C 0.11626 0.75203 0.61578 0.0
C2060 C 0.12742 0.75934 0.58979 0.0
C2061 C 0.12441 0.77214 0.58618 0.0
C2062 C 0.13439 0.78433 0.57563 0.0
C2063 C 0.14778 0.78379 0.56878 0.0
C2064 C 0.1505 0.77056 0.57208 0.0
C2065 C 0.14001 0.75828 0.58233 0.0
C2066 C 0.1309 0.79804 0.57216 0.0
C2067 C 0.16484 0.76971 0.5653 0.0
C2068 C 0.23764 0.86305 0.62175 0.0
C2069 C 0.24263 0.87629 0.60926 0.0
C2070 C 0.21878 0.86362 0.59112 0.0
C2071 C 0.2219 0.85153 0.58479 0.0
C2072 C 0.21072 0.83938 0.57427 0.0
C2073 C 0.19619 0.83938 0.56986 0.0
C2074 C 0.19325 0.85181 0.57579 0.0
C2075 C 0.20461 0.86379 0.58634 0.0
C2076 C 0.21422 0.82626 0.56818 0.0
C2077 C 0.17793 0.8522 0.57122 0.0
C2078 C 0.2248 0.8641 0.46895 0.0
C2079 C 0.22832 0.85291 0.47645 0.0
C2080 C 0.21606 0.83938 0.48439 0.0
C2081 C 0.20003 0.83713 0.4851 0.0
C2082 C 0.19642 0.84828 0.47748 0.0
C2083 C 0.20885 0.86156 0.46942 0.0
C2084 C 0.22025 0.82755 0.49215 0.0
C2085 C 0.17948 0.84627 0.47803 0.0
C2086 C 0.10198 0.70684 0.46666 0.0
C2087 C 0.10737 0.72462 0.46241 0.0
C2088 C 0.13389 0.74894 0.46913 0.0
C2089 C 0.1497 0.75329 0.47425 0.0
C2090 C 0.15982 0.76843 0.48198 0.0
C2091 C 0.15402 0.77961 0.48433 0.0
C2092 C 0.13834 0.77565 0.47845 0.0
C2093 C 0.12839 0.76032 0.4709 0.0
C2094 C 0.17656 0.77232 0.48793 0.0
C2095 C 0.13201 0.78751 0.48039 0.0
C2096 C 0.15983 0.79788 0.55948 0.0
C2097 C 0.17141 0.81196 0.56775 0.0
C2098 C 0.18356 0.82561 0.56004 0.0
C2099 C 0.18414 0.8254 0.54352 0.0
C2100 C 0.19601 0.83905 0.53537 0.0
C2101 C 0.19682 0.83851 0.51914 0.0
C2102 C 0.18593 0.82422 0.51045 0.0
C2103 C 0.18712 0.82327 0.49401 0.0
C2104 C 0.17629 0.80877 0.48579 0.0
C2105 C 0.16416 0.79509 0.49354 0.0
C2106 C 0.16256 0.7959 0.50993 0.0
C2107 C 0.15031 0.78246 0.51807 0.0
C2108 C 0.14912 0.78322 0.53425 0.0
C2109 C 0.16038 0.79728 0.54296 0.0
C2110 C 0.17264 0.81108 0.53497 0.0
C2111 C 0.17363 0.81044 0.51843 0.0
C2112 C 0.26146 0.89254 0.47591 0.0
C2113 C 0.25304 0.8834 0.46058 0.0
O2114 O 0.1185 0.74806 0.60065 0.0
O2115 O 0.12438 0.73371 0.46258 0.0
O2116 O 0.23627 0.87747 0.4612 0.0
O2117 O 0.22883 0.87512 0.60199 0.0
H2118 H 0.12134 0.76558 0.61722 0.0
H2119 H 0.13899 0.75399 0.62437 0.0
H2120 H 0.12118 0.73378 0.62629 0.0
H2121 H 0.12433 0.7505 0.6394 0.0
H2122 H 0.11434 0.77262 0.59174 0.0
H2123 H 0.14207 0.74821 0.58515 0.0
H2124 H 0.14038 0.8096 0.57805 0.0
H2125 H 0.11864 0.79528 0.57634 0.0
H2126 H 0.13154 0.80024 0.55938 0.0
H2127 H 0.16614 0.75951 0.57025 0.0
H2128 H 0.17644 0.78151 0.56758 0.0
H2129 H 0.16317 0.76779 0.55243 0.0
H2130 H 0.2503 0.87459 0.60042 0.0
H2131 H 0.24872 0.86443 0.6279 0.0
H2132 H 0.23099 0.85053 0.61631 0.0
H2133 H 0.22946 0.86405 0.63047 0.0
H2134 H 0.23285 0.85123 0.58815 0.0
H2135 H 0.20233 0.8732 0.59117 0.0
H2136 H 0.20429 0.81392 0.5717 0.0
H2137 H 0.22615 0.82804 0.57262 0.0
H2138 H 0.2144 0.82634 0.55519 0.0
H2139 H 0.17804 0.8634 0.57585 0.0
H2140 H 0.16701 0.84115 0.57578 0.0
H2141 H 0.17659 0.85176 0.55826 0.0
H2142 H 0.25536 0.87299 0.45861 0.0
H2143 H 0.24056 0.8546 0.47623 0.0
H2144 H 0.20622 0.8702 0.46359 0.0
H2145 H 0.21946 0.82847 0.50505 0.0
H2146 H 0.23281 0.8301 0.48931 0.0
H2147 H 0.21127 0.81468 0.48846 0.0
H2148 H 0.17883 0.85639 0.47206 0.0
H2149 H 0.17578 0.84592 0.49039 0.0
H2150 H 0.17048 0.83436 0.47232 0.0
H2151 H 0.10234 0.72937 0.47158 0.0
H2152 H 0.08835 0.69928 0.46673 0.0
H2153 H 0.10676 0.70659 0.47852 0.0
H2154 H 0.10678 0.70127 0.45816 0.0
H2155 H 0.15392 0.74453 0.47259 0.0
H2156 H 0.11638 0.75729 0.46641 0.0
H2157 H 0.17749 0.77463 0.50079 0.0
H2158 H 0.18616 0.78374 0.48245 0.0
H2159 H 0.17914 0.76219 0.48537 0.0
H2160 H 0.12005 0.78312 0.47421 0.0
H2161 H 0.14109 0.79977 0.47586 0.0
H2162 H 0.13044 0.78918 0.49302 0.0
H2163 H 0.17117 0.81217 0.58045 0.0
H2164 H 0.20484 0.85028 0.54148 0.0
H2165 H 0.20624 0.84938 0.51349 0.0
H2166 H 0.17751 0.808 0.47323 0.0
H2167 H 0.14149 0.77119 0.51202 0.0
H2168 H 0.13943 0.77254 0.53989 0.0
H2169 H 0.27491 0.89738 0.4754 0.0
H2170 H 0.25924 0.90298 0.47807 0.0
H2171 H 0.25663 0.88407 0.48592 0.0
C2172 C 0.13505 0.37374 0.62523 0.0
C2173 C 0.12278 0.36855 0.61146 0.0
C2174 C 0.13633 0.36015 0.59177 0.0
C2175 C 0.14874 0.37613 0.58796 0.0
C2176 C 0.16154 0.37852 0.57804 0.0
C2177 C 0.16203 0.3647 0.57185 0.0
C2178 C 0.14942 0.34861 0.57541 0.0
C2179 C 0.13666 0.34657 0.58523 0.0
C2180 C 0.17472 0.39586 0.57435 0.0
C2181 C 0.14962 0.3336 0.56908 0.0
C2182 C 0.25464 0.38965 0.63354 0.0
C2183 C 0.24989 0.37628 0.62085 0.0
C2184 C 0.24318 0.38066 0.59458 0.0
C2185 C 0.23113 0.36456 0.59025 0.0
C2186 C 0.21896 0.36174 0.57905 0.0
C2187 C 0.21878 0.37533 0.57222 0.0
C2188 C 0.23139 0.39158 0.57609 0.0
C2189 C 0.24365 0.39401 0.58704 0.0
C2190 C 0.20596 0.34425 0.57494 0.0
C2191 C 0.23149 0.40639 0.56924 0.0
C2192 C 0.24804 0.38883 0.46925 0.0
C2193 C 0.2383 0.37254 0.47415 0.0
C2194 C 0.22412 0.36795 0.48292 0.0
C2195 C 0.21982 0.37999 0.48705 0.0
C2196 C 0.2296 0.39638 0.48195 0.0
C2197 C 0.24344 0.4005 0.47289 0.0
C2198 C 0.21363 0.35024 0.48763 0.0
C2199 C 0.22542 0.40956 0.48605 0.0
C2200 C 0.1072 0.37456 0.47392 0.0
C2201 C 0.11633 0.37377 0.45945 0.0
C2202 C 0.13514 0.36491 0.46991 0.0
C2203 C 0.13772 0.35152 0.47121 0.0
C2204 C 0.15118 0.35289 0.47972 0.0
C2205 C 0.16245 0.36813 0.48699 0.0
C2206 C 0.1601 0.38184 0.48556 0.0
C2207 C 0.1464 0.38006 0.47717 0.0
C2208 C 0.15329 0.33801 0.48108 0.0
C2209 C 0.17201 0.39835 0.493 0.0
C2210 C 0.17624 0.36714 0.56242 0.0
C2211 C 0.19029 0.36965 0.57048 0.0
C2212 C 0.20441 0.37258 0.56255 0.0
C2213 C 0.2046 0.37306 0.54601 0.0
C2214 C 0.21861 0.37609 0.53762 0.0
C2215 C 0.21879 0.37698 0.52136 0.0
C2216 C 0.20483 0.3745 0.51284 0.0
C2217 C 0.2049 0.37546 0.49632 0.0
C2218 C 0.19081 0.37298 0.48827 0.0
C2219 C 0.17662 0.36973 0.49626 0.0
C2220 C 0.1763 0.36872 0.51276 0.0
C2221 C 0.16222 0.36548 0.52115 0.0
C2222 C 0.16216 0.36497 0.53741 0.0
C2223 C 0.17612 0.36747 0.54589 0.0
C2224 C 0.19038 0.3705 0.53766 0.0
C2225 C 0.19048 0.37115 0.52107 0.0
C2226 C 0.2895 0.405 0.46811 0.0
C2227 C 0.27361 0.38936 0.46311 0.0
O2228 O 0.12401 0.35721 0.60179 0.0
O2229 O 0.12167 0.36256 0.46165 0.0
O2230 O 0.2616 0.39355 0.46051 0.0
O2231 O 0.25412 0.38362 0.60636 0.0
H2232 H 0.12532 0.3796 0.60466 0.0
H2233 H 0.14784 0.37988 0.62097 0.0
H2234 H 0.13285 0.36282 0.63204 0.0
H2235 H 0.13385 0.3826 0.63312 0.0
H2236 H 0.14867 0.38683 0.59275 0.0
H2237 H 0.12703 0.33429 0.58815 0.0
H2238 H 0.18662 0.3983 0.57952 0.0
H2239 H 0.1719 0.40528 0.57901 0.0
H2240 H 0.17625 0.39724 0.56149 0.0
H2241 H 0.13897 0.32192 0.57305 0.0
H2242 H 0.16113 0.33399 0.57291 0.0
H2243 H 0.14947 0.33363 0.55609 0.0
H2244 H 0.23632 0.36805 0.62156 0.0
H2245 H 0.25145 0.38405 0.64529 0.0
H2246 H 0.24781 0.39631 0.63152 0.0
H2247 H 0.26801 0.39873 0.63336 0.0
H2248 H 0.23111 0.35423 0.59583 0.0
H2249 H 0.25316 0.40638 0.5904 0.0
H2250 H 0.20395 0.34262 0.56205 0.0
H2251 H 0.19418 0.34158 0.58027 0.0
H2252 H 0.20928 0.33515 0.57926 0.0
H2253 H 0.24176 0.4182 0.574 0.0
H2254 H 0.21971 0.40597 0.57172 0.0
H2255 H 0.23262 0.40618 0.55634 0.0
H2256 H 0.27018 0.38048 0.47284 0.0
H2257 H 0.24156 0.36336 0.47082 0.0
H2258 H 0.25095 0.41298 0.46882 0.0
H2259 H 0.214 0.34944 0.50056 0.0
H2260 H 0.21784 0.34211 0.48235 0.0
H2261 H 0.20064 0.34557 0.48402 0.0
H2262 H 0.2353 0.42205 0.4828 0.0
H2263 H 0.2232 0.40959 0.49879 0.0
H2264 H 0.21394 0.40688 0.47975 0.0
H2265 H 0.12701 0.38621 0.45735 0.0
H2266 H 0.10278 0.38343 0.47212 0.0
H2267 H 0.1155 0.37876 0.48436 0.0
H2268 H 0.09651 0.36222 0.4763 0.0
H2269 H 0.129 0.33989 0.4656 0.0
H2270 H 0.14464 0.39058 0.47642 0.0
H2271 H 0.15408 0.33546 0.49362 0.0
H2272 H 0.16497 0.34058 0.47558 0.0
H2273 H 0.14302 0.32683 0.47536 0.0
H2274 H 0.16933 0.40817 0.48958 0.0
H2275 H 0.18477 0.40209 0.48962 0.0
H2276 H 0.1714 0.39737 0.50594 0.0
H2277 H 0.19029 0.36946 0.58319 0.0
H2278 H 0.22965 0.37799 0.54357 0.0
H2279 H 0.23 0.3796 0.51555 0.0
H2280 H 0.19099 0.37392 0.47562 0.0
H2281 H 0.1511 0.36341 0.51524 0.0
H2282 H 0.15103 0.36258 0.54326 0.0
H2283 H 0.29378 0.41416 0.45861 0.0
H2284 H 0.29931 0.40213 0.47101 0.0
H2285 H 0.2873 0.41059 0.4787 0.0
H2286 H 0.97371 0.3551 0.04525 0.0
H2287 H 0.02662 0.38304 0.04951 0.0
H2288 H 0.97162 0.37046 0.06756 0.0
H2289 H 0.02459 0.39796 0.07211 0.0
H2290 H 0.01621 0.43395 0.10102 0.0
H2291 H 0.01776 0.41843 0.07864 0.0
H2292 H 0.97561 0.37427 0.0953 0.0
H2293 H 0.97369 0.39006 0.11732 0.0
C2294 C 0.98488 0.3644 0.05107 0.0
C2295 C 0.00032 0.36791 0.04562 0.0
C2296 C 0.9837 0.37316 0.0639 0.0
C2297 C 0.99794 0.38552 0.07162 0.0
C2298 C 0.01337 0.38878 0.06628 0.0
C2299 C 0.01454 0.38014 0.05339 0.0
C2300 C 0.00714 0.42099 0.09976 0.0
C2301 C 0.99454 0.4133 0.11068 0.0
C2302 C 0.00813 0.41202 0.08704 0.0
C2303 C 0.99676 0.39508 0.08511 0.0
C2304 C 0.98435 0.38735 0.09622 0.0
C2305 C 0.98328 0.39636 0.10886 0.0
H2306 H 0.63928 0.60008 0.0407 0.0
H2307 H 0.6198 0.63 0.05866 0.0
H2308 H 0.62643 0.58084 0.06202 0.0
H2309 H 0.60771 0.61141 0.08031 0.0
H2310 H 0.57472 0.56805 0.10933 0.0
H2311 H 0.58651 0.58546 0.08686 0.0
H2312 H 0.62805 0.57762 0.08919 0.0
H2313 H 0.61561 0.55928 0.11115 0.0
C2314 C 0.63233 0.60257 0.04926 0.0
C2315 C 0.63045 0.61646 0.04799 0.0
C2316 C 0.62505 0.59163 0.06155 0.0
C2317 C 0.61594 0.59449 0.07292 0.0
C2318 C 0.61427 0.60853 0.07163 0.0
C2319 C 0.62131 0.61929 0.05925 0.0
C2320 C 0.58622 0.56979 0.10489 0.0
C2321 C 0.59407 0.56196 0.11182 0.0
C2322 C 0.59313 0.57998 0.0921 0.0
C2323 C 0.60829 0.58302 0.08615 0.0
C2324 C 0.61621 0.57533 0.0932 0.0
C2325 C 0.60916 0.5649 0.10585 0.0
H2326 H 0.36356 0.97758 0.04598 0.0
H2327 H 0.38823 0.03076 0.04861 0.0
H2328 H 0.37897 0.97742 0.06883 0.0
H2329 H 0.40427 0.0307 0.07126 0.0
H2330 H 0.41964 0.98211 0.10031 0.0
H2331 H 0.40548 0.98361 0.077 0.0
H2332 H 0.4018 0.02373 0.09835 0.0
H2333 H 0.41672 0.02267 0.12142 0.0
C2334 C 0.37243 0.98927 0.05137 0.0
C2335 C 0.37472 0.00419 0.0455 0.0
C2336 C 0.38136 0.98919 0.06443 0.0
C2337 C 0.39298 0.00405 0.07186 0.0
C2338 C 0.39529 0.01901 0.06595 0.0
C2339 C 0.38619 0.01908 0.05292 0.0
C2340 C 0.41606 0.99144 0.09991 0.0
C2341 C 0.41965 0.00256 0.11254 0.0
C2342 C 0.40776 0.99218 0.08662 0.0
C2343 C 0.40248 0.00381 0.08576 0.0
C2344 C 0.40596 0.01484 0.09846 0.0
C2345 C 0.41442 0.01419 0.11171 0.0
H2346 H 0.35783 0.97249 0.96605 0.0
H2347 H 0.39018 0.0251 0.97102 0.0
H2348 H 0.37344 0.97192 0.94352 0.0
H2349 H 0.40524 0.02473 0.94829 0.0
H2350 H 0.43865 0.01866 0.91572 0.0
H2351 H 0.42378 0.01686 0.93934 0.0
H2352 H 0.37858 0.97988 0.91687 0.0
H2353 H 0.39379 0.98102 0.89344 0.0
C2354 C 0.36825 0.98391 0.9623 0.0
C2355 C 0.37283 0.99882 0.9703 0.0
C2356 C 0.37713 0.98363 0.94934 0.0
C2357 C 0.39066 0.99828 0.94407 0.0
C2358 C 0.39515 0.01315 0.95217 0.0
C2359 C 0.38642 0.01339 0.96516 0.0
C2360 C 0.4256 0.00991 0.91588 0.0
C2361 C 0.41743 0.99973 0.90278 0.0
C2362 C 0.417 0.00902 0.9294 0.0
C2363 C 0.39993 0.99827 0.93004 0.0
C2364 C 0.39175 0.98809 0.91693 0.0
C2365 C 0.40042 0.9888 0.90347 0.0
H2366 H 0.98141 0.36922 0.97441 0.0
H2367 H 0.03202 0.38512 0.96412 0.0
H2368 H 0.97971 0.38387 0.95206 0.0
H2369 H 0.0306 0.40062 0.94189 0.0
H2370 H 0.01411 0.40762 0.8926 0.0
H2371 H 0.01882 0.39622 0.9163 0.0
H2372 H 0.98757 0.40962 0.94185 0.0
H2373 H 0.98207 0.41994 0.91808 0.0
C2374 C 0.9923 0.37613 0.96751 0.0
C2375 C 0.00685 0.376 0.97101 0.0
C2376 C 0.99137 0.38468 0.95471 0.0
C2377 C 0.00504 0.39356 0.94514 0.0
C2378 C 0.01976 0.39375 0.94887 0.0
C2379 C 0.02064 0.38499 0.96166 0.0
C2380 C 0.00837 0.40821 0.90335 0.0
C2381 C 0.99777 0.41472 0.90341 0.0
C2382 C 0.01116 0.4018 0.91697 0.0
C2383 C 0.00351 0.40188 0.93102 0.0
C2384 C 0.99341 0.409 0.93119 0.0
C2385 C 0.99039 0.41512 0.91754 0.0
H2386 H 0.60479 0.64443 0.9829 0.0
H2387 H 0.62882 0.61853 0.96555 0.0
H2388 H 0.58504 0.63314 0.9611 0.0
H2389 H 0.60981 0.60801 0.94334 0.0
H2390 H 0.56477 0.57851 0.91326 0.0
H2391 H 0.58305 0.58917 0.93591 0.0
H2392 H 0.58144 0.63446 0.93414 0.0
H2393 H 0.56215 0.6232 0.91202 0.0
C2394 C 0.60591 0.63643 0.97433 0.0
C2395 C 0.61825 0.63227 0.97595 0.0
C2396 C 0.59467 0.63004 0.96176 0.0
C2397 C 0.59572 0.61957 0.9504 0.0
C2398 C 0.60829 0.61567 0.952 0.0
C2399 C 0.6193 0.62181 0.96469 0.0
C2400 C 0.56806 0.59063 0.91785 0.0
C2401 C 0.56169 0.59989 0.91103 0.0
C2402 C 0.57879 0.59688 0.93076 0.0
C2403 C 0.58383 0.61274 0.93693 0.0
C2404 C 0.57761 0.62208 0.92997 0.0
C2405 C 0.56663 0.61569 0.91722 0.0
H2406 H 0.98412 0.60925 0.97148 0.0
H2407 H 0.03488 0.64796 0.96974 0.0
H2408 H 0.98781 0.59618 0.94825 0.0
H2409 H 0.03852 0.63498 0.94626 0.0
H2410 H 0.04231 0.59898 0.91191 0.0
H2411 H 0.03908 0.61036 0.9367 0.0
H2412 H 0.99196 0.60235 0.92044 0.0
H2413 H 0.99513 0.59078 0.89584 0.0
C2414 C 0.9961 0.61493 0.96616 0.0
C2415 C 0.0092 0.62967 0.97238 0.0
C2416 C 0.99818 0.60749 0.9528 0.0
C2417 C 0.01341 0.61461 0.94534 0.0
C2418 C 0.02666 0.62912 0.95181 0.0
C2419 C 0.02457 0.6366 0.96521 0.0
C2420 C 0.03121 0.59951 0.91376 0.0
C2421 C 0.01886 0.5938 0.90206 0.0
C2422 C 0.02941 0.60613 0.92787 0.0
C2423 C 0.01525 0.60721 0.93055 0.0
C2424 C 0.0029 0.60144 0.91885 0.0
C2425 C 0.00471 0.59486 0.90475 0.0
H2426 H 0.39047 0.38543 0.95965 0.0
H2427 H 0.3551 0.40038 0.97109 0.0
H2428 H 0.39903 0.40343 0.93709 0.0
H2429 H 0.3633 0.41799 0.94836 0.0
H2430 H 0.3889 0.45741 0.91277 0.0
H2431 H 0.38482 0.44256 0.9371 0.0
H2432 H 0.38792 0.40399 0.91176 0.0
H2433 H 0.39251 0.41915 0.88759 0.0
C2434 C 0.38457 0.39262 0.95738 0.0
C2435 C 0.37208 0.39146 0.9671 0.0
C2436 C 0.38941 0.40286 0.9444 0.0
C2437 C 0.38182 0.41213 0.94086 0.0
C2438 C 0.36959 0.41123 0.95084 0.0
C2439 C 0.3648 0.40104 0.96383 0.0
C2440 C 0.38907 0.44594 0.91251 0.0
C2441 C 0.3913 0.43956 0.89834 0.0
C2442 C 0.38656 0.43734 0.9264 0.0
C2443 C 0.386 0.42205 0.9264 0.0
C2444 C 0.38855 0.41585 0.91226 0.0
C2445 C 0.39113 0.42449 0.89839 0.0
H2446 H 0.60764 0.96424 0.97444 0.0
H2447 H 0.63155 0.01688 0.96835 0.0
H2448 H 0.59098 0.95991 0.95084 0.0
H2449 H 0.61558 0.01264 0.94452 0.0
H2450 H 0.57629 0.00211 0.90886 0.0
H2451 H 0.5894 0.00472 0.93426 0.0
H2452 H 0.59287 0.96138 0.92337 0.0
H2453 H 0.57895 0.95824 0.89852 0.0
C2454 C 0.60934 0.97487 0.96803 0.0
C2455 C 0.62086 0.99089 0.97323 0.0
C2456 C 0.59988 0.97241 0.95445 0.0
C2457 C 0.6019 0.98592 0.94571 0.0
C2458 C 0.6134 0.00193 0.95106 0.0
C2459 C 0.62268 0.00438 0.96469 0.0
C2460 C 0.57986 0.99315 0.91193 0.0
C2461 C 0.57709 0.98037 0.90135 0.0
C2462 C 0.58745 0.99467 0.92646 0.0
C2463 C 0.59252 0.98345 0.9308 0.0
C2464 C 0.58911 0.97024 0.9205 0.0
C2465 C 0.5813 0.96858 0.90605 0.0
H2466 H 0.60912 0.98689 0.04949 0.0
H2467 H 0.65038 0.03659 0.05206 0.0
H2468 H 0.59762 0.99247 0.07272 0.0
H2469 H 0.639 0.0421 0.07544 0.0
H2470 H 0.60689 0.05079 0.10947 0.0
H2471 H 0.61595 0.0452 0.08454 0.0
H2472 H 0.60456 0.9972 0.10075 0.0
H2473 H 0.59534 0.00275 0.12554 0.0
C2474 C 0.61569 0.99903 0.05498 0.0
C2475 C 0.63067 0.01129 0.04899 0.0
C2476 C 0.60915 0.0022 0.06833 0.0
C2477 C 0.61743 0.0177 0.07596 0.0
C2478 C 0.63223 0.03009 0.06974 0.0
C2479 C 0.6388 0.02691 0.0564 0.0
C2480 C 0.60615 0.03898 0.10758 0.0
C2481 C 0.60029 0.02714 0.11937 0.0
C2482 C 0.61144 0.03582 0.09338 0.0
C2483 C 0.61099 0.02076 0.09068 0.0
C2484 C 0.60486 0.00883 0.10238 0.0
C2485 C 0.59963 0.01201 0.11659 0.0
H2486 H 0.01277 0.62322 0.04665 0.0
H2487 H 0.96273 0.61342 0.04609 0.0
H2488 H 0.00687 0.60561 0.06924 0.0
H2489 H 0.95688 0.59598 0.06887 0.0
H2490 H 0.94825 0.55494 0.10217 0.0
H2491 H 0.95421 0.56996 0.07768 0.0
H2492 H 0.00121 0.60706 0.09691 0.0
H2493 H 0.99531 0.5919 0.12124 0.0
C2494 C 0.00048 0.61724 0.05131 0.0
C2495 C 0.98822 0.61974 0.04464 0.0
C2496 C 0.99713 0.60722 0.06431 0.0
C2497 C 0.98143 0.59946 0.0709 0.0
C2498 C 0.96905 0.60164 0.06397 0.0
C2499 C 0.97242 0.61169 0.05097 0.0
C2500 C 0.95994 0.56619 0.10103 0.0
C2501 C 0.9714 0.57218 0.11352 0.0
C2502 C 0.9633 0.57485 0.08708 0.0
C2503 C 0.97818 0.58971 0.08535 0.0
C2504 C 0.98974 0.59553 0.09778 0.0
C2505 C 0.98635 0.5869 0.11172 0.0
H2506 H 0.39394 0.35531 0.03801 0.0
H2507 H 0.38607 0.39664 0.04431 0.0
H2508 H 0.41093 0.36359 0.0618 0.0
H2509 H 0.40328 0.40509 0.06799 0.0
H2510 H 0.41399 0.39873 0.11988 0.0
H2511 H 0.40039 0.39417 0.09436 0.0
H2512 H 0.43684 0.38481 0.0738 0.0
H2513 H 0.45028 0.38915 0.09945 0.0
C2514 C 0.39603 0.3663 0.04436 0.0
C2515 C 0.38859 0.37527 0.03935 0.0
C2516 C 0.40585 0.37111 0.05795 0.0
C2517 C 0.4084 0.38497 0.06683 0.0
C2518 C 0.40137 0.39423 0.06152 0.0
C2519 C 0.39159 0.38945 0.04791 0.0
C2520 C 0.41922 0.39596 0.10985 0.0
C2521 C 0.43325 0.39442 0.11161 0.0
C2522 C 0.41148 0.3934 0.09522 0.0
C2523 C 0.41753 0.38912 0.08204 0.0
C2524 C 0.43179 0.38794 0.08375 0.0
C2525 C 0.43956 0.39055 0.09838 0.0
H2526 H 0.62585 0.68722 0.36908 0.0
H2527 H 0.67582 0.71285 0.38677 0.0
H2528 H 0.61779 0.69935 0.39023 0.0
H2529 H 0.66774 0.72419 0.40839 0.0
H2530 H 0.65319 0.7549 0.43726 0.0
H2531 H 0.66034 0.74348 0.4151 0.0
H2532 H 0.61297 0.69893 0.41702 0.0
H2533 H 0.60541 0.71098 0.4386 0.0
C2534 C 0.63506 0.69534 0.3776 0.0
C2535 C 0.65146 0.69918 0.37625 0.0
C2536 C 0.63045 0.70222 0.3898 0.0
C2537 C 0.6421 0.71286 0.40109 0.0
C2538 C 0.65846 0.71643 0.39977 0.0
C2539 C 0.66311 0.70982 0.38742 0.0
C2540 C 0.64417 0.74278 0.43281 0.0
C2541 C 0.62856 0.73396 0.43954 0.0
C2542 C 0.64837 0.73609 0.42018 0.0
C2543 C 0.63729 0.72019 0.41419 0.0
C2544 C 0.62174 0.71132 0.42104 0.0
C2545 C 0.61742 0.71815 0.43349 0.0
H2546 H 0.29975 0.93179 0.37381 0.0
H2547 H 0.2913 0.96748 0.39817 0.0
H2548 H 0.28719 0.91262 0.39511 0.0
H2549 H 0.27929 0.9486 0.4198 0.0
H2550 H 0.24371 0.90479 0.44849 0.0
H2551 H 0.25574 0.9236 0.42684 0.0
H2552 H 0.29179 0.90819 0.42152 0.0
H2553 H 0.27923 0.88885 0.44274 0.0
C2554 C 0.29531 0.93557 0.38379 0.0
C2555 C 0.29648 0.95111 0.38433 0.0
C2556 C 0.2882 0.92463 0.39606 0.0
C2557 C 0.28222 0.92904 0.40923 0.0
C2558 C 0.2835 0.94466 0.40976 0.0
C2559 C 0.29048 0.95554 0.39741 0.0
C2560 C 0.25404 0.90525 0.44252 0.0
C2561 C 0.26024 0.89499 0.447 0.0
C2562 C 0.26109 0.91619 0.43023 0.0
C2563 C 0.2747 0.91738 0.42233 0.0
C2564 C 0.28109 0.90735 0.42707 0.0
C2565 C 0.27396 0.89631 0.43926 0.0
H2566 H 0.05469 0.3262 0.37613 0.0
H2567 H 0.04798 0.36761 0.3869 0.0
H2568 H 0.07356 0.33364 0.39855 0.0
H2569 H 0.06657 0.37487 0.40941 0.0
H2570 H 0.11434 0.39364 0.43741 0.0
H2571 H 0.09571 0.38579 0.41481 0.0
H2572 H 0.07356 0.33461 0.42737 0.0
H2573 H 0.0924 0.34251 0.44989 0.0
C2574 C 0.05719 0.33684 0.38333 0.0
C2575 C 0.04991 0.34635 0.37975 0.0
C2576 C 0.06793 0.34105 0.39621 0.0
C2577 C 0.0716 0.35488 0.40573 0.0
C2578 C 0.0642 0.3643 0.40217 0.0
C2579 C 0.05347 0.36008 0.38933 0.0
C2580 C 0.1056 0.38071 0.43523 0.0
C2581 C 0.10506 0.36866 0.4452 0.0
C2582 C 0.09483 0.37622 0.42238 0.0
C2583 C 0.08319 0.35957 0.41927 0.0
C2584 C 0.08257 0.34751 0.4293 0.0
C2585 C 0.09332 0.35202 0.44219 0.0
H2586 H 0.05439 0.34916 0.29667 0.0
H2587 H 0.02663 0.29731 0.30674 0.0
H2588 H 0.06611 0.34315 0.27399 0.0
H2589 H 0.03909 0.29123 0.28461 0.0
H2590 H 0.0517 0.28367 0.2351 0.0
H2591 H 0.03945 0.28955 0.25749 0.0
H2592 H 0.08474 0.33556 0.26582 0.0
H2593 H 0.09642 0.33019 0.24285 0.0
C2594 C 0.05098 0.33647 0.29412 0.0
C2595 C 0.03962 0.3237 0.30344 0.0
C2596 C 0.05779 0.333 0.28117 0.0
C2597 C 0.05367 0.31668 0.2774 0.0
C2598 C 0.04237 0.30392 0.2869 0.0
C2599 C 0.03531 0.30738 0.29968 0.0
C2600 C 0.05899 0.29503 0.24176 0.0
C2601 C 0.07508 0.30631 0.23727 0.0
C2602 C 0.05203 0.29838 0.25469 0.0
C2603 C 0.06108 0.31303 0.26362 0.0
C2604 C 0.07723 0.32427 0.25915 0.0
C2605 C 0.08406 0.32108 0.24603 0.0
H2606 H 0.70356 0.73059 0.31351 0.0
H2607 H 0.65571 0.69864 0.29262 0.0
H2608 H 0.71007 0.74979 0.29207 0.0
H2609 H 0.66238 0.71726 0.2709 0.0
H2610 H 0.67191 0.76032 0.24144 0.0
H2611 H 0.66599 0.74287 0.26401 0.0
H2612 H 0.71629 0.7533 0.26513 0.0
H2613 H 0.72239 0.77157 0.24301 0.0
C2614 C 0.69449 0.72764 0.30428 0.0
C2615 C 0.67911 0.71318 0.30476 0.0
C2616 C 0.69824 0.73857 0.29193 0.0
C2617 C 0.68674 0.73515 0.27973 0.0
C2618 C 0.67142 0.72055 0.28023 0.0
C2619 C 0.66762 0.70978 0.29264 0.0
C2620 C 0.68178 0.75913 0.24667 0.0
C2621 C 0.69774 0.76765 0.24067 0.0
C2622 C 0.67834 0.74893 0.25952 0.0
C2623 C 0.69065 0.74661 0.26645 0.0
C2624 C 0.70657 0.75502 0.26034 0.0
C2625 C 0.71007 0.76542 0.24761 0.0
H2626 H 0.28355 0.99021 0.30712 0.0
H2627 H 0.27551 0.94104 0.31328 0.0
H2628 H 0.26436 0.98029 0.28478 0.0
H2629 H 0.2563 0.93113 0.29105 0.0
H2630 H 0.24022 0.92533 0.23915 0.0
H2631 H 0.25829 0.935 0.26224 0.0
H2632 H 0.23465 0.96176 0.27833 0.0
H2633 H 0.21655 0.95208 0.25516 0.0
C2634 C 0.27759 0.97727 0.30378 0.0
C2635 C 0.28106 0.96641 0.31191 0.0
C2636 C 0.26656 0.97158 0.29104 0.0
C2637 C 0.25889 0.95495 0.28612 0.0
C2638 C 0.26219 0.94406 0.29444 0.0
C2639 C 0.27311 0.94971 0.30722 0.0
C2640 C 0.23874 0.9331 0.24772 0.0
C2641 C 0.22669 0.93762 0.24556 0.0
C2642 C 0.24908 0.93862 0.26094 0.0
C2643 C 0.24778 0.94901 0.27217 0.0
C2644 C 0.23595 0.95379 0.26986 0.0
C2645 C 0.22553 0.94817 0.25668 0.0
H2646 H 0.70569 0.98664 0.30397 0.0
H2647 H 0.66976 0.9358 0.31246 0.0
H2648 H 0.7149 0.97803 0.28086 0.0
H2649 H 0.67942 0.92719 0.2895 0.0
H2650 H 0.72132 0.92576 0.2568 0.0
H2651 H 0.71116 0.93217 0.28062 0.0
H2652 H 0.69587 0.961 0.25389 0.0
H2653 H 0.7054 0.95412 0.22989 0.0
C2654 C 0.69994 0.97361 0.30104 0.0
C2655 C 0.68699 0.96187 0.30997 0.0
C2656 C 0.70517 0.96873 0.2878 0.0
C2657 C 0.69779 0.952 0.28347 0.0
C2658 C 0.68526 0.94016 0.29269 0.0
C2659 C 0.67976 0.94509 0.30576 0.0
C2660 C 0.71553 0.93321 0.2559 0.0
C2661 C 0.71405 0.93936 0.24138 0.0
C2662 C 0.70976 0.93687 0.26955 0.0
C2663 C 0.70283 0.94709 0.269 0.0
C2664 C 0.70124 0.95313 0.25456 0.0
C2665 C 0.70664 0.94917 0.24088 0.0
H2666 H 0.02041 0.7047 0.2829 0.0
H2667 H 0.05184 0.746 0.31341 0.0
H2668 H 0.02856 0.72298 0.26064 0.0
H2669 H 0.06024 0.76431 0.29104 0.0
H2670 H 0.05562 0.79346 0.24963 0.0
H2671 H 0.04887 0.77598 0.27252 0.0
H2672 H 0.05251 0.73916 0.24462 0.0
H2673 H 0.059 0.75656 0.22175 0.0
C2674 C 0.0291 0.71769 0.28484 0.0
C2675 C 0.03549 0.72392 0.29989 0.0
C2676 C 0.03387 0.72815 0.27206 0.0
C2677 C 0.04513 0.7451 0.27404 0.0
C2678 C 0.05144 0.75134 0.28914 0.0
C2679 C 0.04669 0.74085 0.30194 0.0
C2680 C 0.05521 0.78174 0.24849 0.0
C2681 C 0.05806 0.77646 0.23397 0.0
C2682 C 0.05137 0.77173 0.26158 0.0
C2683 C 0.05012 0.75616 0.26039 0.0
C2684 C 0.05318 0.751 0.2459 0.0
C2685 C 0.05705 0.76101 0.23283 0.0
H2686 H 0.26822 0.32984 0.31131 0.0
H2687 H 0.28744 0.29804 0.29858 0.0
H2688 H 0.25063 0.3206 0.28767 0.0
H2689 H 0.27022 0.28921 0.27483 0.0
H2690 H 0.25384 0.29775 0.22547 0.0
H2691 H 0.27019 0.30703 0.24977 0.0
H2692 H 0.22596 0.29025 0.27627 0.0
H2693 H 0.20949 0.28038 0.2521 0.0
C2694 C 0.26863 0.32085 0.30349 0.0
C2695 C 0.27916 0.31463 0.30676 0.0
C2696 C 0.25858 0.31557 0.29003 0.0
C2697 C 0.2592 0.3043 0.27947 0.0
C2698 C 0.26963 0.298 0.28278 0.0
C2699 C 0.27939 0.30298 0.29639 0.0
C2700 C 0.24762 0.29612 0.23648 0.0
C2701 C 0.2304 0.28841 0.23679 0.0
C2702 C 0.25695 0.30137 0.25034 0.0
C2703 C 0.24928 0.2993 0.26481 0.0
C2704 C 0.23212 0.29203 0.2652 0.0
C2705 C 0.22273 0.28643 0.25134 0.0
H2706 H 0.27203 0.33668 0.37646 0.0
H2707 H 0.32312 0.36901 0.38892 0.0
H2708 H 0.26396 0.34688 0.3994 0.0
H2709 H 0.31501 0.37881 0.41199 0.0
H2710 H 0.29086 0.3732 0.46099 0.0
H2711 H 0.29772 0.36267 0.43758 0.0
H2712 H 0.2695 0.37747 0.40901 0.0
H2713 H 0.2631 0.38858 0.43224 0.0
C2714 C 0.2815 0.34595 0.38409 0.0
C2715 C 0.29819 0.35207 0.38093 0.0
C2716 C 0.27689 0.35179 0.39714 0.0
C2717 C 0.28889 0.36353 0.40742 0.0
C2718 C 0.30555 0.36966 0.40426 0.0
C2719 C 0.31017 0.36411 0.39104 0.0
C2720 C 0.28607 0.37415 0.44971 0.0
C2721 C 0.27642 0.38169 0.44854 0.0
C2722 C 0.29003 0.36817 0.43636 0.0
C2723 C 0.28413 0.36931 0.42157 0.0
C2724 C 0.2741 0.3764 0.42034 0.0
C2725 C 0.27044 0.38273 0.43367 0.0
H2726 H 0.67572 0.95068 0.38847 0.0
H2727 H 0.62571 0.93317 0.37313 0.0
H2728 H 0.6657 0.93237 0.4108 0.0
H2729 H 0.61569 0.91529 0.39557 0.0
H2730 H 0.64032 0.916 0.45889 0.0
H2731 H 0.65215 0.93108 0.43499 0.0
H2732 H 0.61319 0.89134 0.40772 0.0
H2733 H 0.60111 0.87657 0.43173 0.0
C2734 C 0.6626 0.94284 0.38982 0.0
C2735 C 0.6515 0.9434 0.37909 0.0
C2736 C 0.65685 0.93242 0.40265 0.0
C2737 C 0.63988 0.92239 0.40504 0.0
C2738 C 0.62883 0.92264 0.39401 0.0
C2739 C 0.63457 0.93299 0.38118 0.0
C2740 C 0.63449 0.91039 0.44775 0.0
C2741 C 0.61993 0.89504 0.44716 0.0
C2742 C 0.64128 0.91898 0.43403 0.0
C2743 C 0.63363 0.91244 0.4194 0.0
C2744 C 0.61931 0.89683 0.4188 0.0
C2745 C 0.61247 0.88828 0.43253 0.0
H2746 H 0.06493 0.69205 0.37021 0.0
H2747 H 0.05192 0.72913 0.38138 0.0
H2748 H 0.0816 0.69933 0.39411 0.0
H2749 H 0.06893 0.7367 0.40515 0.0
H2750 H 0.08 0.72668 0.4556 0.0
H2751 H 0.06688 0.72391 0.43012 0.0
H2752 H 0.10599 0.72015 0.40779 0.0
H2753 H 0.11886 0.72253 0.43339 0.0
C2754 C 0.06587 0.70196 0.37765 0.0
C2755 C 0.05703 0.70994 0.37399 0.0
C2756 C 0.07551 0.7062 0.39131 0.0
C2757 C 0.07654 0.71855 0.4016 0.0
C2758 C 0.06819 0.72697 0.3976 0.0
C2759 C 0.05853 0.7227 0.38394 0.0
C2760 C 0.08591 0.72555 0.4452 0.0
C2761 C 0.10052 0.725 0.44644 0.0
C2762 C 0.07845 0.72403 0.4306 0.0
C2763 C 0.08539 0.72182 0.4169 0.0
C2764 C 0.10025 0.72168 0.41812 0.0
C2765 C 0.1077 0.72319 0.43274 0.0
H2766 H 0.34451 0.05654 0.71665 0.0
H2767 H 0.29332 0.02145 0.70754 0.0
H2768 H 0.33716 0.06777 0.7389 0.0
H2769 H 0.2857 0.03337 0.72923 0.0
H2770 H 0.27804 0.04752 0.77829 0.0
H2771 H 0.28511 0.0357 0.75621 0.0
H2772 H 0.32626 0.08386 0.74643 0.0
H2773 H 0.31999 0.09528 0.76911 0.0
C2774 C 0.33163 0.05141 0.71931 0.0
C2775 C 0.31947 0.03816 0.71039 0.0
C2776 C 0.32736 0.05793 0.73201 0.0
C2777 C 0.31078 0.05162 0.73591 0.0
C2778 C 0.29861 0.03841 0.72682 0.0
C2779 C 0.30293 0.03164 0.7143 0.0
C2780 C 0.28866 0.05552 0.77145 0.0
C2781 C 0.29841 0.07231 0.77558 0.0
C2782 C 0.29264 0.04879 0.75866 0.0
C2783 C 0.30631 0.05877 0.74944 0.0
C2784 C 0.31587 0.07565 0.7534 0.0
C2785 C 0.31212 0.08229 0.76639 0.0
H2786 H 0.94282 0.28304 0.71576 0.0
H2787 H 0.9811 0.27081 0.71005 0.0
H2788 H 0.93192 0.26419 0.7375 0.0
H2789 H 0.97044 0.2522 0.73208 0.0
H2790 H 0.93732 0.20837 0.76243 0.0
H2791 H 0.94748 0.22635 0.73993 0.0
H2792 H 0.93886 0.26206 0.76415 0.0
H2793 H 0.92814 0.24376 0.78637 0.0
C2794 C 0.9489 0.27629 0.71915 0.0
C2795 C 0.96281 0.27838 0.7112 0.0
C2796 C 0.94272 0.26558 0.73169 0.0
C2797 C 0.95034 0.25673 0.7366 0.0
C2798 C 0.96416 0.25869 0.7285 0.0
C2799 C 0.97033 0.2694 0.71593 0.0
C2800 C 0.93755 0.22004 0.76289 0.0
C2801 C 0.9319 0.22465 0.77613 0.0
C2802 C 0.94348 0.2304 0.75006 0.0
C2803 C 0.94399 0.24566 0.75022 0.0
C2804 C 0.9384 0.25029 0.76351 0.0
C2805 C 0.93237 0.23988 0.7763 0.0
H2806 H 0.73257 0.70604 0.70131 0.0
H2807 H 0.70434 0.65709 0.71969 0.0
H2808 H 0.75211 0.71388 0.72314 0.0
H2809 H 0.72327 0.66505 0.74192 0.0
H2810 H 0.76747 0.67872 0.77276 0.0
H2811 H 0.74949 0.67118 0.74986 0.0
H2812 H 0.75538 0.72002 0.75009 0.0
H2813 H 0.77421 0.7278 0.77249 0.0
C2814 C 0.73051 0.697 0.71009 0.0
C2815 C 0.71699 0.68095 0.70879 0.0
C2816 C 0.74163 0.70151 0.72268 0.0
C2817 C 0.73933 0.69013 0.73438 0.0
C2818 C 0.7257 0.67408 0.73302 0.0
C2819 C 0.71475 0.66951 0.72032 0.0
C2820 C 0.76516 0.68794 0.76776 0.0
C2821 C 0.77261 0.70402 0.77421 0.0
C2822 C 0.75465 0.68355 0.75471 0.0
C2823 C 0.75094 0.69498 0.74802 0.0
C2824 C 0.7582 0.71098 0.75465 0.0
C2825 C 0.76892 0.71544 0.76755 0.0
H2826 H 0.69535 0.62958 0.64337 0.0
H2827 H 0.71405 0.67858 0.62556 0.0
H2828 H 0.70745 0.62272 0.62141 0.0
H2829 H 0.72546 0.67159 0.60329 0.0
H2830 H 0.7572 0.66024 0.57252 0.0
H2831 H 0.74635 0.66661 0.59559 0.0
H2832 H 0.70458 0.6171 0.59421 0.0
H2833 H 0.71605 0.61048 0.5716 0.0
C2834 C 0.70199 0.63885 0.63471 0.0
C2835 C 0.70381 0.65462 0.6362 0.0
C2836 C 0.70883 0.6349 0.62206 0.0
C2837 C 0.71748 0.64659 0.61052 0.0
C2838 C 0.71921 0.66236 0.61206 0.0
C2839 C 0.71256 0.66635 0.6248 0.0
C2840 C 0.74585 0.65061 0.57728 0.0
C2841 C 0.73766 0.6347 0.57043 0.0
C2842 C 0.73949 0.65433 0.59044 0.0
C2843 C 0.72455 0.64239 0.59684 0.0
C2844 C 0.71627 0.62653 0.58985 0.0
C2845 C 0.72277 0.62274 0.57683 0.0
H2846 H 0.36875 0.06837 0.64549 0.0
H2847 H 0.32289 0.0331 0.62299 0.0
H2848 H 0.37505 0.08667 0.62341 0.0
H2849 H 0.32941 0.05105 0.60062 0.0
H2850 H 0.33774 0.09418 0.57069 0.0
H2851 H 0.33152 0.07622 0.59298 0.0
H2852 H 0.38262 0.08961 0.59664 0.0
H2853 H 0.3889 0.10819 0.57475 0.0
C2854 C 0.36008 0.06449 0.63576 0.0
C2855 C 0.34531 0.04935 0.63597 0.0
C2856 C 0.36373 0.07492 0.62305 0.0
C2857 C 0.35275 0.07037 0.6102 0.0
C2858 C 0.33803 0.05511 0.61041 0.0
C2859 C 0.33432 0.04476 0.62318 0.0
C2860 C 0.34767 0.09347 0.57641 0.0
C2861 C 0.36391 0.10297 0.57128 0.0
C2862 C 0.34408 0.083 0.58907 0.0
C2863 C 0.35658 0.08151 0.5967 0.0
C2864 C 0.37275 0.09073 0.5913 0.0
C2865 C 0.37636 0.10132 0.57873 0.0
H2866 H 0.95969 0.27902 0.62967 0.0
H2867 H 0.93703 0.30724 0.644 0.0
H2868 H 0.94133 0.26842 0.60694 0.0
H2869 H 0.91797 0.29597 0.62175 0.0
H2870 H 0.89736 0.28629 0.57199 0.0
H2871 H 0.91593 0.29714 0.59462 0.0
H2872 H 0.91456 0.25049 0.59852 0.0
H2873 H 0.89699 0.24015 0.57534 0.0
C2874 C 0.95062 0.28279 0.62804 0.0
C2875 C 0.9498 0.29397 0.63856 0.0
C2876 C 0.93998 0.27662 0.61505 0.0
C2877 C 0.92806 0.28126 0.61243 0.0
C2878 C 0.92716 0.29233 0.62315 0.0
C2879 C 0.938 0.29871 0.636 0.0
C2880 C 0.90105 0.27839 0.57774 0.0
C2881 C 0.89548 0.26231 0.57198 0.0
C2882 C 0.9116 0.28454 0.5908 0.0
C2883 C 0.91673 0.27469 0.59855 0.0
C2884 C 0.91111 0.25856 0.59278 0.0
C2885 C 0.90081 0.25253 0.57955 0.0
H2886 H 0.33867 0.27423 0.64507 0.0
H2887 H 0.36648 0.32472 0.63025 0.0
H2888 H 0.3477 0.26531 0.6219 0.0
H2889 H 0.37513 0.31574 0.60702 0.0
H2890 H 0.36716 0.28875 0.55882 0.0
H2891 H 0.35785 0.29622 0.5826 0.0
H2892 H 0.37734 0.27174 0.61053 0.0
H2893 H 0.38717 0.26471 0.58686 0.0
C2894 C 0.34673 0.2834 0.6369 0.0
C2895 C 0.35189 0.30016 0.63944 0.0
C2896 C 0.3519 0.2783 0.6237 0.0
C2897 C 0.362 0.28985 0.61269 0.0
C2898 C 0.36723 0.3066 0.6153 0.0
C2899 C 0.36236 0.31173 0.62862 0.0
C2900 C 0.36933 0.28485 0.57003 0.0
C2901 C 0.37776 0.27602 0.5709 0.0
C2902 C 0.36408 0.28917 0.5836 0.0
C2903 C 0.36691 0.28454 0.59833 0.0
C2904 C 0.37493 0.27534 0.59926 0.0
C2905 C 0.38051 0.2713 0.5857 0.0
H2906 H 0.68932 0.06468 0.63317 0.0
H2907 H 0.72848 0.05457 0.62353 0.0
H2908 H 0.6965 0.08187 0.61017 0.0
H2909 H 0.7359 0.07207 0.60063 0.0
H2910 H 0.72774 0.08527 0.55034 0.0
H2911 H 0.7241 0.07074 0.57479 0.0
H2912 H 0.71734 0.10756 0.59919 0.0
H2913 H 0.72065 0.12186 0.57461 0.0
C2914 C 0.6996 0.0663 0.62624 0.0
C2915 C 0.70829 0.05822 0.63011 0.0
C2916 C 0.70379 0.07624 0.6131 0.0
C2917 C 0.71678 0.07834 0.60354 0.0
C2918 C 0.72571 0.07055 0.60764 0.0
C2919 C 0.72151 0.0606 0.6208 0.0
C2920 C 0.72575 0.09037 0.56099 0.0
C2921 C 0.72465 0.10477 0.56061 0.0
C2922 C 0.72371 0.0821 0.57501 0.0
C2923 C 0.72041 0.08798 0.58895 0.0
C2924 C 0.71969 0.10261 0.58863 0.0
C2925 C 0.72174 0.11089 0.57461 0.0
H2926 H 0.95388 0.63746 0.62668 0.0
H2927 H 0.92907 0.66354 0.64135 0.0
H2928 H 0.93707 0.62823 0.60272 0.0
H2929 H 0.91189 0.65386 0.61743 0.0
H2930 H 0.87348 0.61085 0.58151 0.0
H2931 H 0.88991 0.62272 0.60548 0.0
H2932 H 0.93413 0.64499 0.57841 0.0
H2933 H 0.91773 0.63361 0.55432 0.0
C2934 C 0.94475 0.64112 0.62482 0.0
C2935 C 0.94276 0.65121 0.63585 0.0
C2936 C 0.93522 0.63592 0.61109 0.0
C2937 C 0.92328 0.64042 0.60828 0.0
C2938 C 0.92104 0.65026 0.6194 0.0
C2939 C 0.93086 0.65579 0.63302 0.0
C2940 C 0.88666 0.61859 0.5806 0.0
C2941 C 0.89433 0.62147 0.56597 0.0
C2942 C 0.89604 0.62535 0.59433 0.0
C2943 C 0.91323 0.63471 0.59372 0.0
C2944 C 0.92088 0.63777 0.57914 0.0
C2945 C 0.91151 0.63133 0.5654 0.0
H2946 H 0.98729 0.70236 0.72184 0.0
H2947 H 0.93682 0.67977 0.70574 0.0
H2948 H 0.98047 0.71271 0.74534 0.0
H2949 H 0.9301 0.69049 0.72919 0.0
H2950 H 0.9349 0.7322 0.76548 0.0
H2951 H 0.93971 0.72068 0.74158 0.0
H2952 H 0.96088 0.69749 0.7691 0.0
H2953 H 0.95565 0.70858 0.79308 0.0
C2954 C 0.97478 0.69975 0.72326 0.0
C2955 C 0.96258 0.69026 0.71198 0.0
C2956 C 0.97087 0.70559 0.73673 0.0
C2957 C 0.95476 0.7023 0.73907 0.0
C2958 C 0.94262 0.69319 0.72762 0.0
C2959 C 0.94646 0.68706 0.71426 0.0
C2960 C 0.94026 0.72437 0.76648 0.0
C2961 C 0.94469 0.72108 0.78122 0.0
C2962 C 0.94304 0.71782 0.75279 0.0
C2963 C 0.9507 0.70827 0.75355 0.0
C2964 C 0.95503 0.7049 0.76823 0.0
C2965 C 0.95196 0.71115 0.78191 0.0
H2966 H 0.34141 0.28861 0.72053 0.0
H2967 H 0.29131 0.27138 0.70568 0.0
H2968 H 0.33157 0.27035 0.74286 0.0
H2969 H 0.28144 0.25349 0.72821 0.0
H2970 H 0.30735 0.25326 0.79102 0.0
H2971 H 0.3184 0.26888 0.76723 0.0
H2972 H 0.27907 0.22937 0.74009 0.0
H2973 H 0.26779 0.21402 0.76402 0.0
C2974 C 0.32829 0.28087 0.72202 0.0
C2975 C 0.31713 0.28146 0.71139 0.0
C2976 C 0.32264 0.27047 0.73486 0.0
C2977 C 0.3057 0.26049 0.7374 0.0
C2978 C 0.29456 0.26082 0.72652 0.0
C2979 C 0.30021 0.27116 0.71365 0.0
C2980 C 0.30125 0.24783 0.77992 0.0
C2981 C 0.28686 0.23233 0.77935 0.0
C2982 C 0.30759 0.25674 0.76627 0.0
C2983 C 0.29964 0.25039 0.75171 0.0
C2984 C 0.28541 0.23471 0.75111 0.0
C2985 C 0.27904 0.22583 0.76478 0.0
H2986 H 0.70918 0.01318 0.71626 0.0
H2987 H 0.7434 0.06027 0.69681 0.0
H2988 H 0.72578 0.02069 0.7403 0.0
H2989 H 0.76014 0.06771 0.7209 0.0
H2990 H 0.7927 0.06338 0.76109 0.0
H2991 H 0.77719 0.05733 0.73641 0.0
H2992 H 0.73275 0.04263 0.76204 0.0
H2993 H 0.74828 0.04897 0.78672 0.0
C2994 C 0.72033 0.02508 0.71707 0.0
C2995 C 0.72499 0.03615 0.70467 0.0
C2996 C 0.72976 0.02941 0.73086 0.0
C2997 C 0.74416 0.04482 0.73248 0.0
C2998 C 0.7491 0.05573 0.71992 0.0
C2999 C 0.73952 0.05149 0.70618 0.0
C3000 C 0.77969 0.05919 0.76146 0.0
C3001 C 0.77173 0.05695 0.77586 0.0
C3002 C 0.77083 0.05569 0.74734 0.0
C3003 C 0.75379 0.04949 0.74735 0.0
C3004 C 0.74586 0.0473 0.76171 0.0
C3005 C 0.75474 0.05104 0.7758 0.0
H3006 H 0.01568 0.30309 0.025 0.0
H3007 H 0.05846 0.35161 0.02259 0.0
H3008 H 0.03203 0.29284 0.03713 0.0
H3009 H 0.07491 0.34152 0.03567 0.0
H3010 H 0.11151 0.31911 0.05319 0.0
H3011 H 0.09243 0.33023 0.03579 0.0
H3012 H 0.04019 0.28633 0.0595 0.0
H3013 H 0.05791 0.27422 0.07712 0.0
C3014 C 0.02863 0.3116 0.02718 0.0
C3015 C 0.03578 0.32817 0.02294 0.0
C3016 C 0.03802 0.30576 0.03436 0.0
C3017 C 0.05477 0.31641 0.03775 0.0
C3018 C 0.06207 0.33293 0.03315 0.0
C3019 C 0.05266 0.33875 0.0257 0.0
C3020 C 0.09825 0.31271 0.0538 0.0
C3021 C 0.08689 0.29727 0.06913 0.0
C3022 C 0.08631 0.32002 0.04363 0.0
C3023 C 0.06431 0.31023 0.04628 0.0
C3024 C 0.05335 0.29218 0.05827 0.0
C3025 C 0.06418 0.284 0.06885 0.0
H3026 H 0.64859 0.69681 0.03596 0.0
H3027 H 0.69207 0.69417 0.0472 0.0
H3028 H 0.65809 0.72064 0.05385 0.0
H3029 H 0.70145 0.71779 0.06499 0.0
H3030 H 0.72832 0.77529 0.08907 0.0
H3031 H 0.71662 0.74724 0.06794 0.0
H3032 H 0.65813 0.72791 0.08204 0.0
H3033 H 0.6684 0.75557 0.10365 0.0
C3034 C 0.6602 0.70139 0.04217 0.0
C3035 C 0.6696 0.69366 0.04019 0.0
C3036 C 0.66557 0.71493 0.05247 0.0
C3037 C 0.68051 0.72107 0.06077 0.0
C3038 C 0.69002 0.71351 0.05857 0.0
C3039 C 0.68458 0.69989 0.04845 0.0
C3040 C 0.71542 0.76609 0.08836 0.0
C3041 C 0.69934 0.76996 0.09645 0.0
C3042 C 0.70791 0.749 0.07467 0.0
C3043 C 0.68609 0.73507 0.0719 0.0
C3044 C 0.67103 0.73694 0.08344 0.0
C3045 C 0.67731 0.75363 0.09748 0.0
H3046 H 0.30295 0.99034 0.04336 0.0
H3047 H 0.29432 0.94982 0.01241 0.0
H3048 H 0.27672 0.97309 0.05565 0.0
H3049 H 0.26772 0.9325 0.02462 0.0
H3050 H 0.22913 0.90264 0.06219 0.0
H3051 H 0.25565 0.91907 0.04957 0.0
H3052 H 0.24776 0.9607 0.04892 0.0
H3053 H 0.22155 0.94442 0.06178 0.0
C3054 C 0.2954 0.97774 0.03913 0.0
C3055 C 0.30066 0.97144 0.02688 0.0
C3056 C 0.28031 0.96787 0.04613 0.0
C3057 C 0.27008 0.95146 0.04104 0.0
C3058 C 0.2754 0.94507 0.02887 0.0
C3059 C 0.29056 0.95499 0.02183 0.0
C3060 C 0.23321 0.91537 0.05948 0.0
C3061 C 0.22352 0.92242 0.06336 0.0
C3062 C 0.24828 0.92471 0.05212 0.0
C3063 C 0.25387 0.94124 0.04839 0.0
C3064 C 0.24397 0.94812 0.05195 0.0
C3065 C 0.22896 0.93881 0.05929 0.0
H3066 H 0.31985 0.0171 0.96743 0.0
H3067 H 0.34727 0.05518 0.00237 0.0
H3068 H 0.31137 0.03483 0.95486 0.0
H3069 H 0.33846 0.07293 0.98988 0.0
H3070 H 0.33065 0.10509 0.95404 0.0
H3071 H 0.34118 0.08845 0.96588 0.0
H3072 H 0.293 0.04521 0.96096 0.0
H3073 H 0.28266 0.06173 0.94895 0.0
C3074 C 0.32406 0.02928 0.97244 0.0
C3075 C 0.33413 0.03471 0.98596 0.0
C3076 C 0.31913 0.03941 0.96527 0.0
C3077 C 0.32411 0.05522 0.97145 0.0
C3078 C 0.33451 0.06084 0.98478 0.0
C3079 C 0.33947 0.05066 0.99198 0.0
C3080 C 0.32242 0.09198 0.95534 0.0
C3081 C 0.30593 0.08461 0.95023 0.0
C3082 C 0.32838 0.0825 0.96224 0.0
C3083 C 0.31796 0.06548 0.96423 0.0
C3084 C 0.30144 0.05821 0.95929 0.0
C3085 C 0.2955 0.06766 0.95243 0.0
H3086 H 0.95827 0.28829 0.00148 0.0
H3087 H 0.98375 0.31058 0.95894 0.0
H3088 H 0.9414 0.26217 0.98712 0.0
H3089 H 0.96691 0.28464 0.94467 0.0
H3090 H 0.92416 0.23531 0.91301 0.0
H3091 H 0.94163 0.26638 0.9301 0.0
H3092 H 0.94405 0.23788 0.97845 0.0
H3093 H 0.92641 0.20605 0.96271 0.0
C3094 C 0.96011 0.28765 0.98904 0.0
C3095 C 0.97235 0.3014 0.98132 0.0
C3096 C 0.95055 0.27271 0.98087 0.0
C3097 C 0.95288 0.27142 0.96481 0.0
C3098 C 0.96469 0.28533 0.95699 0.0
C3099 C 0.97443 0.30015 0.9652 0.0
C3100 C 0.9284 0.23588 0.92493 0.0
C3101 C 0.92084 0.21713 0.93701 0.0
C3102 C 0.9386 0.25505 0.9359 0.0
C3103 C 0.94375 0.25545 0.95641 0.0
C3104 C 0.94001 0.23705 0.96642 0.0
C3105 C 0.92989 0.21728 0.95649 0.0
H3106 H 0.6926 0.68139 0.97332 0.0
H3107 H 0.70279 0.64947 0.00144 0.0
H3108 H 0.71837 0.69083 0.95976 0.0
H3109 H 0.72885 0.65923 0.98811 0.0
H3110 H 0.76773 0.66979 0.9511 0.0
H3111 H 0.74085 0.65876 0.96319 0.0
H3112 H 0.74733 0.70778 0.96544 0.0
H3113 H 0.77389 0.71863 0.95299 0.0
C3114 C 0.70037 0.67639 0.97661 0.0
C3115 C 0.69571 0.66474 0.98848 0.0
C3116 C 0.71519 0.68187 0.9689 0.0
C3117 C 0.72574 0.67587 0.97291 0.0
C3118 C 0.72094 0.66398 0.98462 0.0
C3119 C 0.70606 0.65846 0.99232 0.0
C3120 C 0.76324 0.67812 0.95396 0.0
C3121 C 0.77269 0.695 0.95071 0.0
C3122 C 0.74795 0.67185 0.96104 0.0
C3123 C 0.74187 0.68236 0.96518 0.0
C3124 C 0.75145 0.69927 0.96209 0.0
C3125 C 0.76668 0.70551 0.95499 0.0
H3126 H 0.96429 0.67706 0.01432 0.0
H3127 H 0.96704 0.65923 0.96819 0.0
H3128 H 0.94753 0.68803 0.0036 0.0
H3129 H 0.95011 0.66998 0.95757 0.0
H3130 H 0.90362 0.67554 0.95076 0.0
H3131 H 0.92019 0.66425 0.96111 0.0
H3132 H 0.95323 0.71122 0.98333 0.0
H3133 H 0.93705 0.7227 0.97263 0.0
C3134 C 0.96117 0.67535 0.00194 0.0
C3135 C 0.96693 0.66729 0.99208 0.0
C3136 C 0.9517 0.68171 0.99581 0.0
C3137 C 0.9476 0.67987 0.97977 0.0
C3138 C 0.95304 0.67148 0.96999 0.0
C3139 C 0.96274 0.66537 0.97606 0.0
C3140 C 0.9144 0.68344 0.95788 0.0
C3141 C 0.91864 0.69983 0.96132 0.0
C3142 C 0.92389 0.677 0.96375 0.0
C3143 C 0.93779 0.68681 0.97323 0.0
C3144 C 0.94234 0.70332 0.97633 0.0
C3145 C 0.93303 0.70986 0.97022 0.0
H3146 H 0.35696 0.30914 0.98321 0.0
H3147 H 0.31244 0.31025 0.97323 0.0
H3148 H 0.34452 0.28139 0.97164 0.0
H3149 H 0.2998 0.28244 0.9623 0.0
H3150 H 0.28301 0.23602 0.93449 0.0
H3151 H 0.29902 0.26523 0.94156 0.0
H3152 H 0.32411 0.25416 0.97789 0.0
H3153 H 0.30863 0.22509 0.97023 0.0
C3154 C 0.34454 0.30347 0.9785 0.0
C3155 C 0.33566 0.31183 0.97916 0.0
C3156 C 0.33737 0.28753 0.97196 0.0
C3157 C 0.32111 0.27959 0.96606 0.0
C3158 C 0.31242 0.2882 0.96644 0.0
C3159 C 0.31963 0.30414 0.97284 0.0
C3160 C 0.29224 0.23991 0.94371 0.0
C3161 C 0.29478 0.22831 0.95165 0.0
C3162 C 0.3013 0.25663 0.94791 0.0
C3163 C 0.31284 0.26211 0.96037 0.0
C3164 C 0.31558 0.2505 0.96807 0.0
C3165 C 0.30666 0.23382 0.96375 0.0
H3166 H 0.69781 0.05232 0.99429 0.0
H3167 H 0.69879 0.00793 0.9822 0.0
H3168 H 0.72394 0.06875 0.98121 0.0
H3169 H 0.72516 0.02426 0.9698 0.0
H3170 H 0.7656 0.05548 0.93709 0.0
H3171 H 0.73826 0.04022 0.94801 0.0
H3172 H 0.75226 0.07799 0.98403 0.0
H3173 H 0.77932 0.09365 0.97251 0.0
C3174 C 0.70367 0.0461 0.9889 0.0
C3175 C 0.69627 0.02887 0.98923 0.0
C3176 C 0.71869 0.0555 0.98148 0.0
C3177 C 0.72672 0.04786 0.9744 0.0
C3178 C 0.71923 0.03058 0.9748 0.0
C3179 C 0.70415 0.0212 0.98203 0.0
C3180 C 0.76272 0.06069 0.94714 0.0
C3181 C 0.7745 0.07596 0.95376 0.0
C3182 C 0.74709 0.05183 0.95354 0.0
C3183 C 0.74299 0.05782 0.96696 0.0
C3184 C 0.75481 0.07312 0.97354 0.0
C3185 C 0.77035 0.08207 0.967 0.0
H3186 H 0.68869 0.99104 0.04411 0.0
H3187 H 0.64606 0.9466 0.02672 0.0
H3188 H 0.69957 0.97477 0.05538 0.0
H3189 H 0.65657 0.93009 0.03869 0.0
H3190 H 0.69099 0.90861 0.0442 0.0
H3191 H 0.67727 0.92324 0.03511 0.0
H3192 H 0.6973 0.95671 0.07503 0.0
H3193 H 0.71173 0.94262 0.08353 0.0
C3194 C 0.6815 0.97773 0.04292 0.0
C3195 C 0.66655 0.97009 0.03448 0.0
C3196 C 0.68768 0.96835 0.04951 0.0
C3197 C 0.67896 0.95105 0.04802 0.0
C3198 C 0.66376 0.94338 0.03988 0.0
C3199 C 0.65767 0.95282 0.0331 0.0
C3200 C 0.69225 0.91897 0.05111 0.0
C3201 C 0.70229 0.92433 0.06464 0.0
C3202 C 0.68431 0.92733 0.04596 0.0
C3203 C 0.68616 0.94123 0.05429 0.0
C3204 C 0.6958 0.94625 0.06814 0.0
C3205 C 0.70393 0.93803 0.07315 0.0
H3206 H 0.04071 0.71254 0.00558 0.0
H3207 H 0.03098 0.69158 0.05164 0.0
H3208 H 0.05512 0.74025 0.01743 0.0
H3209 H 0.04558 0.71913 0.06344 0.0
H3210 H 0.04999 0.76848 0.07777 0.0
H3211 H 0.03902 0.74113 0.06583 0.0
H3212 H 0.07903 0.76044 0.03326 0.0
H3213 H 0.08989 0.78796 0.04515 0.0
C3214 C 0.04196 0.71386 0.01821 0.0
C3215 C 0.0346 0.69993 0.02769 0.0
C3216 C 0.05023 0.72971 0.025 0.0
C3217 C 0.05127 0.73188 0.04138 0.0
C3218 C 0.04467 0.71788 0.05079 0.0
C3219 C 0.03641 0.7021 0.04403 0.0
C3220 C 0.05652 0.76683 0.06817 0.0
C3221 C 0.07095 0.78027 0.06256 0.0
C3222 C 0.05029 0.75116 0.06136 0.0
C3223 C 0.05827 0.74857 0.04871 0.0
C3224 C 0.0726 0.76205 0.04297 0.0
C3225 C 0.07886 0.77775 0.04982 0.0
H3226 H 0.31653 0.3319 0.04647 0.0
H3227 H 0.30115 0.35378 0.01081 0.0
H3228 H 0.2901 0.32145 0.05921 0.0
H3229 H 0.27456 0.34286 0.02313 0.0
H3230 H 0.23209 0.33164 0.05394 0.0
H3231 H 0.26035 0.34487 0.04501 0.0
H3232 H 0.26215 0.30071 0.05516 0.0
H3233 H 0.23411 0.28782 0.06473 0.0
C3234 C 0.3075 0.3345 0.04138 0.0
C3235 C 0.31088 0.34364 0.02764 0.0
C3236 C 0.29231 0.32842 0.04862 0.0
C3237 C 0.28013 0.33123 0.04219 0.0
C3238 C 0.2837 0.34067 0.02859 0.0
C3239 C 0.29893 0.34686 0.02145 0.0
C3240 C 0.23864 0.32487 0.05445 0.0
C3241 C 0.23089 0.30867 0.05994 0.0
C3242 C 0.25478 0.33239 0.04922 0.0
C3243 C 0.26352 0.32382 0.04918 0.0
C3244 C 0.2559 0.30778 0.05515 0.0
C3245 C 0.2398 0.30032 0.06053 0.0
H3246 H 0.68348 0.66181 0.38699 0.0
H3247 H 0.71235 0.66911 0.34569 0.0
H3248 H 0.69958 0.6519 0.40087 0.0
H3249 H 0.7283 0.65891 0.35955 0.0
H3250 H 0.74267 0.61684 0.38103 0.0
H3251 H 0.72492 0.63094 0.36618 0.0
H3252 H 0.72504 0.65948 0.41629 0.0
H3253 H 0.74261 0.64594 0.43253 0.0
C3254 C 0.69334 0.66138 0.38093 0.0
C3255 C 0.69667 0.66619 0.36527 0.0
C3256 C 0.70262 0.65582 0.3889 0.0
C3257 C 0.71515 0.65466 0.38125 0.0
C3258 C 0.7186 0.6596 0.36565 0.0
C3259 C 0.70956 0.6655 0.35777 0.0
C3260 C 0.73873 0.62409 0.38772 0.0
C3261 C 0.74708 0.63236 0.40769 0.0
C3262 C 0.72851 0.63367 0.3784 0.0
C3263 C 0.72404 0.6476 0.38928 0.0
C3264 C 0.72851 0.65161 0.41002 0.0
C3265 C 0.73875 0.64265 0.42042 0.0
H3266 H 0.3136 0.03108 0.36642 0.0
H3267 H 0.36127 0.0349 0.36913 0.0
H3268 H 0.32507 0.05839 0.37875 0.0
H3269 H 0.37283 0.0623 0.38088 0.0
H3270 H 0.39383 0.11054 0.41881 0.0
H3271 H 0.38027 0.07889 0.40316 0.0
H3272 H 0.33774 0.08738 0.37557 0.0
H3273 H 0.3503 0.11935 0.39074 0.0
C3274 C 0.32655 0.03781 0.36956 0.0
C3275 C 0.33652 0.03084 0.36685 0.0
C3276 C 0.33315 0.05351 0.37653 0.0
C3277 C 0.34986 0.06253 0.38089 0.0
C3278 C 0.35983 0.05558 0.37805 0.0
C3279 C 0.35323 0.0399 0.37115 0.0
C3280 C 0.38401 0.10662 0.4102 0.0
C3281 C 0.37159 0.11696 0.40855 0.0
C3282 C 0.37495 0.08656 0.40089 0.0
C3283 C 0.3569 0.07909 0.38832 0.0
C3284 C 0.34798 0.09182 0.38374 0.0
C3285 C 0.35619 0.11209 0.39251 0.0
H3286 H 0.96752 0.32132 0.367 0.0
H3287 H 0.97261 0.27975 0.35264 0.0
H3288 H 0.94112 0.30268 0.37851 0.0
H3289 H 0.94595 0.26099 0.36389 0.0
H3290 H 0.90562 0.2339 0.40011 0.0
H3291 H 0.93242 0.25241 0.38893 0.0
H3292 H 0.91347 0.28248 0.37057 0.0
H3293 H 0.88691 0.26425 0.38211 0.0
C3294 C 0.96294 0.30818 0.36623 0.0
C3295 C 0.97212 0.30199 0.3589 0.0
C3296 C 0.94776 0.29748 0.37275 0.0
C3297 C 0.94138 0.28033 0.37209 0.0
C3298 C 0.95059 0.27414 0.36476 0.0
C3299 C 0.96581 0.28487 0.35822 0.0
C3300 C 0.9073 0.24461 0.39387 0.0
C3301 C 0.89433 0.24792 0.39236 0.0
C3302 C 0.92257 0.2551 0.38731 0.0
C3303 C 0.92513 0.26901 0.37896 0.0
C3304 C 0.91204 0.2721 0.37722 0.0
C3305 C 0.89682 0.26165 0.3838 0.0
H3306 H 0.02472 0.38927 0.33835 0.0
H3307 H 0.00384 0.35831 0.297 0.0
H3308 H 0.02434 0.41197 0.32506 0.0
H3309 H 0.00365 0.3812 0.2836 0.0
H3310 H 0.02938 0.43478 0.26223 0.0
H3311 H 0.0265 0.41012 0.27463 0.0
H3312 H 0.00283 0.41846 0.31392 0.0
H3313 H 0.00544 0.44297 0.30142 0.0
C3314 C 0.01998 0.3873 0.32644 0.0
C3315 C 0.0143 0.37204 0.3187 0.0
C3316 C 0.01969 0.40027 0.31887 0.0
C3317 C 0.01394 0.39831 0.30332 0.0
C3318 C 0.0082 0.38303 0.29557 0.0
C3319 C 0.00824 0.36994 0.30325 0.0
C3320 C 0.02323 0.43115 0.27334 0.0
C3321 C 0.01732 0.44063 0.28073 0.0
C3322 C 0.0216 0.41705 0.28043 0.0
C3323 C 0.0144 0.41239 0.29519 0.0
C3324 C 0.00845 0.42181 0.30254 0.0
C3325 C 0.00986 0.43575 0.29537 0.0
H3326 H 0.61584 0.63362 0.31773 0.0
H3327 H 0.66087 0.63317 0.30952 0.0
H3328 H 0.60109 0.60967 0.3 0.0
H3329 H 0.64625 0.60948 0.29188 0.0
H3330 H 0.6146 0.55273 0.26683 0.0
H3331 H 0.63088 0.5802 0.28863 0.0
H3332 H 0.5948 0.60263 0.27162 0.0
H3333 H 0.57754 0.57561 0.24928 0.0
C3334 C 0.62253 0.62831 0.31227 0.0
C3335 C 0.63949 0.63524 0.31499 0.0
C3336 C 0.61413 0.6147 0.30204 0.0
C3337 C 0.62252 0.60771 0.29459 0.0
C3338 C 0.63938 0.6144 0.29764 0.0
C3339 C 0.64779 0.62807 0.30767 0.0
C3340 C 0.61147 0.56238 0.26718 0.0
C3341 C 0.59238 0.5597 0.25779 0.0
C3342 C 0.62098 0.57911 0.28126 0.0
C3343 C 0.61397 0.59384 0.2833 0.0
C3344 C 0.59808 0.59313 0.27065 0.0
C3345 C 0.58781 0.57684 0.25616 0.0
H3346 H 0.34969 0.9888 0.30113 0.0
H3347 H 0.36781 0.98118 0.34502 0.0
H3348 H 0.37254 0.9889 0.28756 0.0
H3349 H 0.3906 0.98125 0.33145 0.0
H3350 H 0.43819 0.99964 0.30432 0.0
H3351 H 0.41577 0.00105 0.31712 0.0
H3352 H 0.38186 0.96844 0.28141 0.0
H3353 H 0.40429 0.96699 0.26864 0.0
C3354 C 0.35857 0.98719 0.30787 0.0
C3355 C 0.35698 0.98498 0.32413 0.0
C3356 C 0.37159 0.98716 0.30009 0.0
C3357 C 0.38335 0.9851 0.30845 0.0
C3358 C 0.38182 0.98305 0.32473 0.0
C3359 C 0.36873 0.98292 0.33248 0.0
C3360 C 0.42598 0.99297 0.2991 0.0
C3361 C 0.42307 0.98351 0.2853 0.0
C3362 C 0.41314 0.99367 0.30648 0.0
C3363 C 0.39708 0.98489 0.30024 0.0
C3364 C 0.39416 0.97553 0.28636 0.0
C3365 C 0.40699 0.97471 0.27905 0.0
H3366 H 0.64243 0.99026 0.29948 0.0
H3367 H 0.62008 0.98688 0.34427 0.0
H3368 H 0.62346 0.99767 0.28733 0.0
H3369 H 0.60127 0.99445 0.33219 0.0
H3370 H 0.56029 0.99376 0.30329 0.0
H3371 H 0.57802 0.98381 0.31351 0.0
H3372 H 0.61882 0.02149 0.28816 0.0
H3373 H 0.601 0.03132 0.27785 0.0
C3374 C 0.63342 0.99104 0.30671 0.0
C3375 C 0.63273 0.98801 0.32282 0.0
C3376 C 0.62263 0.99536 0.29977 0.0
C3377 C 0.61087 0.99665 0.3088 0.0
C3378 C 0.61004 0.99335 0.32487 0.0
C3379 C 0.62087 0.98911 0.33181 0.0
C3380 C 0.57298 0.99972 0.29972 0.0
C3381 C 0.5792 0.01312 0.28958 0.0
C3382 C 0.58316 0.99413 0.30566 0.0
C3383 C 0.59981 0.00187 0.30164 0.0
C3384 C 0.60598 0.01512 0.29129 0.0
C3385 C 0.59581 0.02076 0.2854 0.0
H3386 H 0.04144 0.65497 0.31796 0.0
H3387 H 0.989 0.63459 0.32125 0.0
H3388 H 0.03695 0.62834 0.30837 0.0
H3389 H 0.98448 0.60827 0.31114 0.0
H3390 H 0.9724 0.5507 0.30314 0.0
H3391 H 0.98044 0.58225 0.31671 0.0
H3392 H 0.03363 0.61026 0.28772 0.0
H3393 H 0.02705 0.57925 0.27382 0.0
C3394 C 0.02896 0.64481 0.31654 0.0
C3395 C 0.01558 0.64683 0.3204 0.0
C3396 C 0.02637 0.62957 0.31094 0.0
C3397 C 0.01034 0.61611 0.30905 0.0
C3398 C 0.997 0.61822 0.31281 0.0
C3399 C 0.99958 0.63338 0.31847 0.0
C3400 C 0.98408 0.56159 0.30093 0.0
C3401 C 0.99756 0.56218 0.28486 0.0
C3402 C 0.98884 0.58148 0.30866 0.0
C3403 C 0.00742 0.59996 0.30308 0.0
C3404 C 0.02247 0.5991 0.2906 0.0
C3405 C 0.01881 0.57974 0.2823 0.0
H3406 H 0.35475 0.38486 0.32046 0.0
H3407 H 0.35913 0.3415 0.31338 0.0
H3408 H 0.38098 0.40148 0.3075 0.0
H3409 H 0.38543 0.35804 0.30102 0.0
H3410 H 0.42764 0.38851 0.27033 0.0
H3411 H 0.39925 0.37329 0.27883 0.0
H3412 H 0.40949 0.41191 0.31294 0.0
H3413 H 0.43766 0.42742 0.30388 0.0
C3414 C 0.36128 0.37889 0.31608 0.0
C3415 C 0.35492 0.3619 0.31797 0.0
C3416 C 0.37635 0.3884 0.30874 0.0
C3417 C 0.38538 0.38113 0.30322 0.0
C3418 C 0.37874 0.36405 0.30484 0.0
C3419 C 0.36368 0.35456 0.31206 0.0
C3420 C 0.4237 0.39392 0.27937 0.0
C3421 C 0.43479 0.4093 0.28626 0.0
C3422 C 0.40747 0.38511 0.28438 0.0
C3423 C 0.40205 0.39132 0.29663 0.0
C3424 C 0.4131 0.40686 0.3033 0.0
C3425 C 0.42927 0.41573 0.29817 0.0
H3426 H 0.35121 0.32459 0.37451 0.0
H3427 H 0.30379 0.28103 0.36668 0.0
H3428 H 0.36161 0.30792 0.38579 0.0
H3429 H 0.31404 0.26425 0.37859 0.0
H3430 H 0.34587 0.23915 0.37913 0.0
H3431 H 0.33226 0.25447 0.37187 0.0
H3432 H 0.36125 0.29184 0.40694 0.0
H3433 H 0.37535 0.27684 0.41362 0.0
C3434 C 0.3429 0.31145 0.37547 0.0
C3435 C 0.32671 0.3041 0.36961 0.0
C3436 C 0.34884 0.30188 0.38208 0.0
C3437 C 0.3387 0.28469 0.38312 0.0
C3438 C 0.32228 0.27741 0.37777 0.0
C3439 C 0.31636 0.28702 0.37103 0.0
C3440 C 0.34909 0.2505 0.38546 0.0
C3441 C 0.36151 0.25667 0.39706 0.0
C3442 C 0.34124 0.25926 0.38136 0.0
C3443 C 0.34565 0.27444 0.38879 0.0
C3444 C 0.35769 0.28032 0.40081 0.0
C3445 C 0.36566 0.27163 0.40478 0.0
H3446 H 0.68548 0.02052 0.38639 0.0
H3447 H 0.71366 0.0349 0.34403 0.0
H3448 H 0.70149 0.04879 0.39665 0.0
H3449 H 0.72939 0.06314 0.35408 0.0
H3450 H 0.76342 0.11018 0.38016 0.0
H3451 H 0.74945 0.08077 0.3736 0.0
H3452 H 0.70409 0.07539 0.39118 0.0
H3453 H 0.71825 0.10477 0.39809 0.0
C3454 C 0.69516 0.0297 0.37932 0.0
C3455 C 0.69829 0.02552 0.36439 0.0
C3456 C 0.70427 0.0459 0.38515 0.0
C3457 C 0.7167 0.05825 0.37617 0.0
C3458 C 0.72007 0.05391 0.3614 0.0
C3459 C 0.71098 0.03774 0.35559 0.0
C3460 C 0.75053 0.10262 0.38286 0.0
C3461 C 0.74193 0.10971 0.38971 0.0
C3462 C 0.74249 0.08582 0.37899 0.0
C3463 C 0.72562 0.07573 0.38176 0.0
C3464 C 0.71713 0.08275 0.38906 0.0
C3465 C 0.7252 0.09957 0.39297 0.0
H3466 H 0.9848 0.67233 0.3813 0.0
H3467 H 0.96713 0.68484 0.33984 0.0
H3468 H 0.95806 0.66203 0.39326 0.0
H3469 H 0.94019 0.67406 0.35158 0.0
H3470 H 0.89731 0.66556 0.38168 0.0
H3471 H 0.92522 0.67855 0.37178 0.0
H3472 H 0.93078 0.63888 0.39031 0.0
H3473 H 0.90302 0.62621 0.40057 0.0
C3474 C 0.97519 0.6729 0.37475 0.0
C3475 C 0.97803 0.67936 0.35963 0.0
C3476 C 0.95983 0.6669 0.38157 0.0
C3477 C 0.94691 0.6671 0.37336 0.0
C3478 C 0.9499 0.6739 0.35833 0.0
C3479 C 0.96532 0.68002 0.35156 0.0
C3480 C 0.90461 0.65978 0.38382 0.0
C3481 C 0.89808 0.645 0.39206 0.0
C3482 C 0.92054 0.66712 0.37803 0.0
C3483 C 0.93027 0.65977 0.38022 0.0
C3484 C 0.92376 0.64504 0.38862 0.0
C3485 C 0.90784 0.63774 0.39446 0.0
H3486 H 0.38529 0.01724 0.67336 0.0
H3487 H 0.36307 0.01206 0.71853 0.0
H3488 H 0.4094 0.01876 0.68596 0.0
H3489 H 0.38723 0.01356 0.73115 0.0
H3490 H 0.44286 0.04129 0.74616 0.0
H3491 H 0.41671 0.03601 0.7348 0.0
H3492 H 0.41814 0.00184 0.70129 0.0
H3493 H 0.44431 0.00712 0.71269 0.0
C3494 C 0.38549 0.01625 0.68596 0.0
C3495 C 0.37234 0.01458 0.69497 0.0
C3496 C 0.39926 0.01704 0.69317 0.0
C3497 C 0.4002 0.01632 0.70954 0.0
C3498 C 0.38688 0.0143 0.71852 0.0
C3499 C 0.37304 0.01335 0.71129 0.0
C3500 C 0.43741 0.0324 0.73659 0.0
C3501 C 0.44545 0.02436 0.7305 0.0
C3502 C 0.42244 0.02937 0.73009 0.0
C3503 C 0.41537 0.01847 0.7172 0.0
C3504 C 0.42335 0.01035 0.71119 0.0
C3505 C 0.43824 0.01328 0.71776 0.0
H3506 H 0.97067 0.35323 0.70106 0.0
H3507 H 0.01926 0.36056 0.70947 0.0
H3508 H 0.97667 0.37589 0.71946 0.0
H3509 H 0.02521 0.38312 0.72778 0.0
H3510 H 0.04249 0.43883 0.75322 0.0
H3511 H 0.03516 0.41223 0.73131 0.0
H3512 H 0.97644 0.38138 0.74813 0.0
H3513 H 0.98231 0.40728 0.77059 0.0
C3514 C 0.98266 0.35977 0.70674 0.0
C3515 C 0.99451 0.35515 0.70386 0.0
C3516 C 0.98604 0.37264 0.71734 0.0
C3517 C 0.00139 0.38123 0.72503 0.0
C3518 C 0.01335 0.37687 0.72186 0.0
C3519 C 0.00991 0.36388 0.71145 0.0
C3520 C 0.03049 0.42784 0.75284 0.0
C3521 C 0.0124 0.42718 0.76219 0.0
C3522 C 0.02557 0.41156 0.7387 0.0
C3523 C 0.00482 0.39441 0.73658 0.0
C3524 C 0.98851 0.39222 0.7492 0.0
C3525 C 0.9922 0.40785 0.76374 0.0
H3526 H 0.627 0.61892 0.67336 0.0
H3527 H 0.64514 0.64751 0.7164 0.0
H3528 H 0.60123 0.60008 0.68614 0.0
H3529 H 0.61947 0.62852 0.7292 0.0
H3530 H 0.57918 0.57757 0.74865 0.0
H3531 H 0.60477 0.59727 0.73625 0.0
H3532 H 0.57715 0.60246 0.69839 0.0
H3533 H 0.55148 0.58304 0.71098 0.0
C3534 C 0.62548 0.62115 0.68554 0.0
C3535 C 0.63805 0.63467 0.69389 0.0
C3536 C 0.61074 0.61043 0.69282 0.0
C3537 C 0.60841 0.61288 0.70864 0.0
C3538 C 0.62102 0.62633 0.71702 0.0
C3539 C 0.63565 0.6372 0.70967 0.0
C3540 C 0.57854 0.58313 0.73784 0.0
C3541 C 0.56328 0.57904 0.73095 0.0
C3542 C 0.59319 0.59437 0.73073 0.0
C3543 C 0.59289 0.60138 0.7164 0.0
C3544 C 0.5777 0.59718 0.70942 0.0
C3545 C 0.56305 0.58618 0.71666 0.0
H3546 H 0.65173 0.67905 0.63431 0.0
H3547 H 0.68171 0.7188 0.66692 0.0
H3548 H 0.64279 0.6964 0.62164 0.0
H3549 H 0.67249 0.73615 0.65438 0.0
H3550 H 0.66436 0.76726 0.61795 0.0
H3551 H 0.67454 0.75044 0.62995 0.0
H3552 H 0.62553 0.70814 0.62752 0.0
H3553 H 0.61551 0.72486 0.61528 0.0
C3554 C 0.65638 0.6915 0.6388 0.0
C3555 C 0.66737 0.69755 0.65165 0.0
C3556 C 0.65119 0.70142 0.63159 0.0
C3557 C 0.65686 0.71763 0.63704 0.0
C3558 C 0.66801 0.72376 0.6498 0.0
C3559 C 0.67321 0.71381 0.65704 0.0
C3560 C 0.65585 0.75431 0.61981 0.0
C3561 C 0.63922 0.74725 0.61533 0.0
C3562 C 0.66163 0.74473 0.62682 0.0
C3563 C 0.65087 0.72792 0.62959 0.0
C3564 C 0.63421 0.72096 0.62526 0.0
C3565 C 0.62846 0.73052 0.61827 0.0
H3566 H 0.28188 0.97479 0.65227 0.0
H3567 H 0.32045 0.96287 0.65749 0.0
H3568 H 0.26456 0.94827 0.63898 0.0
H3569 H 0.30299 0.93615 0.64477 0.0
H3570 H 0.27565 0.8979 0.60662 0.0
H3571 H 0.29227 0.92467 0.61957 0.0
H3572 H 0.24911 0.91917 0.64265 0.0
H3573 H 0.2324 0.89264 0.62911 0.0
C3574 C 0.28656 0.9664 0.65074 0.0
C3575 C 0.30252 0.9709 0.65585 0.0
C3576 C 0.27662 0.95117 0.64318 0.0
C3577 C 0.2824 0.94009 0.64069 0.0
C3578 C 0.29826 0.94451 0.64617 0.0
C3579 C 0.30823 0.95977 0.65358 0.0
C3580 C 0.26971 0.90251 0.61434 0.0
C3581 C 0.25273 0.89324 0.61678 0.0
C3582 C 0.27925 0.91778 0.6219 0.0
C3583 C 0.27207 0.92406 0.63227 0.0
C3584 C 0.25503 0.91483 0.63461 0.0
C3585 C 0.24546 0.8996 0.62693 0.0
H3586 H 0.03533 0.31596 0.66799 0.0
H3587 H 0.02315 0.34407 0.63651 0.0
H3588 H 0.06185 0.32641 0.65548 0.0
H3589 H 0.04943 0.35414 0.62366 0.0
H3590 H 0.10507 0.38391 0.61718 0.0
H3591 H 0.07805 0.37264 0.62882 0.0
H3592 H 0.07479 0.32508 0.63186 0.0
H3593 H 0.10208 0.33658 0.62068 0.0
C3594 C 0.03827 0.32425 0.65829 0.0
C3595 C 0.02721 0.32925 0.65327 0.0
C3596 C 0.05342 0.33017 0.65105 0.0
C3597 C 0.05781 0.34115 0.63856 0.0
C3598 C 0.04658 0.34592 0.6334 0.0
C3599 C 0.03148 0.34008 0.64071 0.0
C3600 C 0.09846 0.371 0.62017 0.0
C3601 C 0.10551 0.36104 0.61767 0.0
C3602 C 0.08297 0.36451 0.6268 0.0
C3603 C 0.07416 0.3479 0.63118 0.0
C3604 C 0.08126 0.33794 0.62873 0.0
C3605 C 0.09681 0.34447 0.62216 0.0
H3606 H 0.28362 0.31908 0.67031 0.0
H3607 H 0.3174 0.33777 0.63196 0.0
H3608 H 0.26788 0.33071 0.659 0.0
H3609 H 0.30139 0.349 0.62036 0.0
H3610 H 0.28266 0.3862 0.61808 0.0
H3611 H 0.29677 0.37149 0.62591 0.0
H3612 H 0.25023 0.32942 0.63807 0.0
H3613 H 0.23628 0.34443 0.63074 0.0
C3614 C 0.28749 0.3254 0.6593 0.0
C3615 C 0.30179 0.32761 0.65207 0.0
C3616 C 0.27842 0.33201 0.65276 0.0
C3617 C 0.28341 0.34089 0.63879 0.0
C3618 C 0.29736 0.34249 0.63125 0.0
C3619 C 0.30647 0.33595 0.63784 0.0
C3620 C 0.27547 0.37374 0.62226 0.0
C3621 C 0.2584 0.36647 0.62385 0.0
C3622 C 0.28352 0.36525 0.62667 0.0
C3623 C 0.27465 0.34927 0.6327 0.0
C3624 C 0.25748 0.3418 0.63372 0.0
C3625 C 0.24946 0.35033 0.62941 0.0
H3626 H 0.65206 0.9784 0.63633 0.0
H3627 H 0.69742 0.97853 0.64502 0.0
H3628 H 0.6397 0.95057 0.62552 0.0
H3629 H 0.68526 0.95076 0.63354 0.0
H3630 H 0.65023 0.89429 0.63343 0.0
H3631 H 0.66555 0.92354 0.64041 0.0
H3632 H 0.63848 0.93308 0.60494 0.0
H3633 H 0.62264 0.90369 0.59857 0.0
C3634 C 0.65951 0.97257 0.63564 0.0
C3635 C 0.67568 0.9806 0.64162 0.0
C3636 C 0.65244 0.95661 0.62932 0.0
C3637 C 0.66143 0.94832 0.62865 0.0
C3638 C 0.67787 0.95664 0.6341 0.0
C3639 C 0.68489 0.97259 0.64058 0.0
C3640 C 0.64779 0.90272 0.62697 0.0
C3641 C 0.63541 0.89673 0.61533 0.0
C3642 C 0.65662 0.91951 0.6309 0.0
C3643 C 0.65329 0.93075 0.62326 0.0
C3644 C 0.64124 0.92479 0.61124 0.0
C3645 C 0.63227 0.90795 0.60744 0.0
H3646 H 0.02333 0.6769 0.64998 0.0
H3647 H 0.01688 0.71942 0.65045 0.0
H3648 H 0.04992 0.69296 0.63799 0.0
H3649 H 0.04349 0.73552 0.63791 0.0
H3650 H 0.10044 0.76266 0.63527 0.0
H3651 H 0.07225 0.74737 0.6444 0.0
H3652 H 0.06339 0.70597 0.61459 0.0
H3653 H 0.09176 0.72107 0.60599 0.0
C3654 C 0.02752 0.68966 0.64733 0.0
C3655 C 0.01804 0.69692 0.6512 0.0
C3656 C 0.04274 0.69885 0.64032 0.0
C3657 C 0.04885 0.71554 0.6369 0.0
C3658 C 0.03923 0.72275 0.64054 0.0
C3659 C 0.02397 0.71353 0.64765 0.0
C3660 C 0.09234 0.75039 0.6305 0.0
C3661 C 0.09822 0.74316 0.61975 0.0
C3662 C 0.07617 0.74164 0.63567 0.0
C3663 C 0.06552 0.72543 0.63024 0.0
C3664 C 0.07131 0.71836 0.61916 0.0
C3665 C 0.08751 0.72707 0.61409 0.0
H3666 H 0.95347 0.61427 0.69874 0.0
H3667 H 0.00508 0.64986 0.70481 0.0
H3668 H 0.95775 0.59359 0.71171 0.0
H3669 H 0.00949 0.6292 0.71716 0.0
H3670 H 0.01202 0.5931 0.74887 0.0
H3671 H 0.00493 0.61326 0.73968 0.0
H3672 H 0.97019 0.57721 0.70643 0.0
H3673 H 0.97677 0.55683 0.71622 0.0
C3674 C 0.9657 0.61767 0.70289 0.0
C3675 C 0.97894 0.63366 0.70076 0.0
C3676 C 0.96819 0.60581 0.71022 0.0
C3677 C 0.98398 0.6097 0.71547 0.0
C3678 C 0.99711 0.62581 0.71354 0.0
C3679 C 0.99461 0.63765 0.70634 0.0
C3680 C 0.0026 0.58938 0.73986 0.0
C3681 C 0.99469 0.57327 0.73347 0.0
C3682 C 0.99866 0.60099 0.73445 0.0
C3683 C 0.987 0.5969 0.72228 0.0
C3684 C 0.97899 0.58073 0.71601 0.0
C3685 C 0.9828 0.56907 0.72155 0.0
H3686 H 0.34176 0.36586 0.7019 0.0
H3687 H 0.38487 0.36076 0.69975 0.0
H3688 H 0.35819 0.39343 0.71314 0.0
H3689 H 0.40135 0.38826 0.7116 0.0
H3690 H 0.42771 0.44525 0.7124 0.0
H3691 H 0.4121 0.41625 0.70447 0.0
H3692 H 0.37307 0.40944 0.73534 0.0
H3693 H 0.38844 0.43863 0.74268 0.0
C3694 C 0.35474 0.37056 0.70406 0.0
C3695 C 0.36205 0.36119 0.69987 0.0
C3696 C 0.36417 0.38635 0.71064 0.0
C3697 C 0.38114 0.39313 0.71331 0.0
C3698 C 0.38836 0.38354 0.7095 0.0
C3699 C 0.37892 0.36775 0.70279 0.0
C3700 C 0.41591 0.43745 0.71766 0.0
C3701 C 0.40942 0.44415 0.72832 0.0
C3702 C 0.40697 0.42081 0.71318 0.0
C3703 C 0.3913 0.41045 0.71925 0.0
C3704 C 0.38501 0.41708 0.73026 0.0
C3705 C 0.39389 0.43378 0.73463 0.0
H3706 H 0.66129 0.04556 0.69572 0.0
H3707 H 0.63906 0.9928 0.68949 0.0
H3708 H 0.6371 0.04161 0.70984 0.0
H3709 H 0.61481 0.98886 0.70311 0.0
H3710 H 0.57915 0.98532 0.73962 0.0
H3711 H 0.60508 0.99083 0.7283 0.0
H3712 H 0.60864 0.03304 0.70481 0.0
H3713 H 0.583 0.02784 0.71666 0.0
C3714 C 0.65123 0.03314 0.69735 0.0
C3715 C 0.65205 0.0195 0.69151 0.0
C3716 C 0.63735 0.03087 0.70536 0.0
C3717 C 0.62401 0.01491 0.70764 0.0
C3718 C 0.62495 0.0013 0.70183 0.0
C3719 C 0.63881 0.00357 0.69391 0.0
C3720 C 0.58566 0.99596 0.73229 0.0
C3721 C 0.57924 0.00637 0.72928 0.0
C3722 C 0.60042 0.99903 0.72566 0.0
C3723 C 0.60896 0.01238 0.71562 0.0
C3724 C 0.60257 0.02284 0.7127 0.0
C3725 C 0.58786 0.01983 0.71943 0.0
loop_
_geom_bond_atom_site_label_1
_geom_bond_atom_site_label_2
_geom_bond_distance
_geom_bond_site_symmetry_2
_ccdc_geom_bond_type
In0 O1 2.294 1_455 S
In0 O2 2.326 . S
In0 O6 2.255 1_454 S
In0 O7 2.326 1_454 S
In0 O8 2.266 1_554 S
In0 O9 2.326 1_454 S
In0 O11 2.294 . S
In0 O12 2.326 . S
O1 In0 2.294 1_655 S
O1 C10 1.242 1_655 S
O2 In0 2.326 . S
O2 C10 1.248 . S
C3 O6 1.290 . S
C3 O7 1.260 . S
C4 O11 1.240 . S
C4 O12 1.252 . S
C5 O8 1.252 . S
C5 O9 1.260 1_455 S
O6 In0 2.255 1_656 S
O6 C3 1.290 . S
O7 In0 2.326 1_656 S
O7 C3 1.260 . S
O8 In0 2.266 1_556 S
O8 C5 1.252 . S
O9 In0 2.326 1_656 S
O9 C5 1.260 1_655 S
C10 O1 1.242 1_455 S
C10 O2 1.248 . S
O11 In0 2.294 . S
O11 C4 1.240 . S
O12 In0 2.326 . S
O12 C4 1.252 . S
In13 O14 2.294 . S
In13 O15 2.326 . S
In13 O19 2.266 . S
In13 O20 2.326 1_554 S
In13 O21 2.266 1_554 S
In13 O22 2.326 1_554 S
In13 O24 2.294 . S
In13 O25 2.326 . S
O14 In13 2.294 . S
O14 C23 1.240 . S
O15 In13 2.326 . S
O15 C23 1.252 . S
C16 O19 1.252 1_556 S
C16 O20 1.260 . S
C17 O24 1.240 . S
C17 O25 1.252 . S
C18 O21 1.252 . S
C18 O22 1.260 . S
O19 In13 2.266 . S
O19 C16 1.252 1_554 S
O20 In13 2.326 1_556 S
O20 C16 1.260 . S
O21 In13 2.266 1_556 S
O21 C18 1.252 . S
O22 In13 2.326 1_556 S
O22 C18 1.260 . S
C23 O14 1.240 . S
C23 O15 1.252 . S
O24 In13 2.294 . S
O24 C17 1.240 . S
O25 In13 2.326 . S
O25 C17 1.252 . S
In26 O27 2.292 . S
In26 O28 2.326 1_554 S
In26 O32 2.266 . S
In26 O33 2.326 1_545 S
In26 O34 2.266 1_545 S
In26 O35 2.326 1_545 S
In26 O37 2.294 1_544 S
In26 O38 2.326 1_554 S
O27 In26 2.292 . S
O27 C36 1.245 1_554 S
O28 In26 2.326 1_556 S
O28 C36 1.252 . S
C29 O32 1.252 . S
C29 O33 1.260 1_545 S
C30 O37 1.261 . S
C30 O38 1.213 1_565 S
C31 O34 1.252 . S
C31 O35 1.260 . S
O32 In26 2.266 . S
O32 C29 1.252 . S
O33 In26 2.326 1_565 S
O33 C29 1.260 1_565 S
O34 In26 2.266 1_565 S
O34 C31 1.252 . S
O35 In26 2.326 1_565 S
O35 C31 1.260 . S
C36 O27 1.245 1_556 S
C36 O28 1.252 . S
O37 In26 2.294 1_566 S
O37 C30 1.261 . S
O38 In26 2.326 1_556 S
O38 C30 1.213 1_545 S
In39 O40 2.293 1_554 S
In39 O41 2.326 1_454 S
In39 O45 2.265 . S
In39 O46 2.326 . S
In39 O47 2.267 1_455 S
In39 O48 2.324 . S
In39 O50 2.296 1_455 S
In39 O51 2.327 1_454 S
O40 In39 2.293 1_556 S
O40 C49 1.240 . S
O41 In39 2.326 1_656 S
O41 C49 1.252 1_655 S
C42 O45 1.252 . S
C42 O46 1.260 . S
C43 O50 1.240 1_556 S
C43 O51 1.252 . S
C44 O47 1.252 . S
C44 O48 1.260 1_655 S
O45 In39 2.265 . S
O45 C42 1.252 . S
O46 In39 2.326 . S
O46 C42 1.260 . S
O47 In39 2.267 1_655 S
O47 C44 1.252 . S
O48 In39 2.324 . S
O48 C44 1.260 1_455 S
C49 O40 1.240 . S
C49 O41 1.252 1_455 S
O50 In39 2.296 1_655 S
O50 C43 1.240 1_554 S
O51 In39 2.327 1_656 S
O51 C43 1.252 . S
In52 O53 2.294 1_554 S
In52 O54 2.326 1_554 S
In52 O58 2.266 . S
In52 O59 2.326 . S
In52 O60 2.266 . S
In52 O61 2.326 . S
In52 O63 2.294 1_554 S
In52 O64 2.326 1_554 S
O53 In52 2.294 1_556 S
O53 C62 1.240 . S
O54 In52 2.326 1_556 S
O54 C62 1.252 . S
C55 O58 1.252 . S
C55 O59 1.260 . S
C56 O63 1.240 . S
C56 O64 1.252 . S
C57 O60 1.252 . S
C57 O61 1.260 . S
O58 In52 2.266 . S
O58 C55 1.252 . S
O59 In52 2.326 . S
O59 C55 1.260 . S
O60 In52 2.266 . S
O60 C57 1.252 . S
O61 In52 2.326 . S
O61 C57 1.260 . S
C62 O53 1.240 . S
C62 O54 1.252 . S
O63 In52 2.294 1_556 S
O63 C56 1.240 . S
O64 In52 2.326 1_556 S
O64 C56 1.252 . S
In65 O66 2.293 . S
In65 O67 2.326 1_545 S
In65 O71 2.265 . S
In65 O72 2.326 1_554 S
In65 O73 2.267 1_544 S
In65 O74 2.324 1_554 S
In65 O76 2.296 1_545 S
In65 O77 2.327 1_545 S
O66 In65 2.293 . S
O66 C75 1.240 . S
O67 In65 2.326 1_565 S
O67 C75 1.252 1_565 S
C68 O71 1.252 1_556 S
C68 O72 1.260 . S
C69 O76 1.240 . S
C69 O77 1.252 . S
C70 O73 1.252 . S
C70 O74 1.260 1_565 S
O71 In65 2.265 . S
O71 C68 1.252 1_554 S
O72 In65 2.326 1_556 S
O72 C68 1.260 . S
O73 In65 2.267 1_566 S
O73 C70 1.252 . S
O74 In65 2.324 1_556 S
O74 C70 1.260 1_545 S
C75 O66 1.240 . S
C75 O67 1.252 1_545 S
O76 In65 2.296 1_565 S
O76 C69 1.240 . S
O77 In65 2.327 1_565 S
O77 C69 1.252 . S
In78 O79 2.294 . S
In78 O80 2.326 . S
In78 O84 2.266 . S
In78 O85 2.326 . S
In78 O86 2.266 . S
In78 O87 2.326 . S
In78 O89 2.294 . S
In78 O90 2.326 . S
O79 In78 2.294 . S
O79 C88 1.240 . S
O80 In78 2.326 . S
O80 C88 1.252 . S
C81 O84 1.252 . S
C81 O85 1.260 . S
C82 O89 1.240 . S
C82 O90 1.252 . S
C83 O86 1.252 . S
C83 O87 1.260 . S
O84 In78 2.266 . S
O84 C81 1.252 . S
O85 In78 2.326 . S
O85 C81 1.260 . S
O86 In78 2.266 . S
O86 C83 1.252 . S
O87 In78 2.326 . S
O87 C83 1.260 . S
C88 O79 1.240 . S
C88 O80 1.252 . S
O89 In78 2.294 . S
O89 C82 1.240 . S
O90 In78 2.326 . S
O90 C82 1.252 . S
In91 O92 2.294 . S
In91 O93 2.326 . S
In91 O97 2.266 . S
In91 O98 2.326 . S
In91 O99 2.266 . S
In91 O100 2.326 . S
In91 O102 2.294 1_565 S
In91 O103 2.326 . S
O92 In91 2.294 . S
O92 C101 1.240 . S
O93 In91 2.326 . S
O93 C101 1.252 . S
C94 O97 1.252 . S
C94 O98 1.260 . S
C95 O102 1.240 . S
C95 O103 1.252 1_545 S
C96 O99 1.252 . S
C96 O100 1.260 . S
O97 In91 2.266 . S
O97 C94 1.252 . S
O98 In91 2.326 . S
O98 C94 1.260 . S
O99 In91 2.266 . S
O99 C96 1.252 . S
O100 In91 2.326 . S
O100 C96 1.260 . S
C101 O92 1.240 . S
C101 O93 1.252 . S
O102 In91 2.294 1_545 S
O102 C95 1.240 . S
O103 In91 2.326 . S
O103 C95 1.252 1_565 S
In104 O105 2.294 . S
In104 O106 2.326 . S
In104 O110 2.266 . S
In104 O111 2.326 . S
In104 O112 2.283 . S
In104 O113 2.326 . S
In104 O115 2.294 . S
In104 O116 2.326 . S
O105 In104 2.294 . S
O105 C114 1.240 . S
O106 In104 2.326 . S
O106 C114 1.252 . S
C107 O110 1.252 . S
C107 O111 1.260 . S
C108 O115 1.240 . S
C108 O116 1.252 . S
C109 O112 1.229 1_655 S
C109 O113 1.260 1_655 S
O110 In104 2.266 . S
O110 C107 1.252 . S
O111 In104 2.326 . S
O111 C107 1.260 . S
O112 In104 2.283 . S
O112 C109 1.229 1_455 S
O113 In104 2.326 . S
O113 C109 1.260 1_455 S
C114 O105 1.240 . S
C114 O106 1.252 . S
O115 In104 2.294 . S
O115 C108 1.240 . S
O116 In104 2.326 . S
O116 C108 1.252 . S
In117 O118 2.294 . S
In117 O119 2.326 . S
In117 O123 2.266 1_565 S
In117 O124 2.358 . S
In117 O125 2.266 . S
In117 O126 2.326 . S
In117 O128 2.294 . S
In117 O129 2.326 . S
O118 In117 2.294 . S
O118 C127 1.240 . S
O119 In117 2.326 . S
O119 C127 1.252 . S
C120 O123 1.252 . S
C120 O124 1.258 1_545 S
C121 O128 1.240 . S
C121 O129 1.252 . S
C122 O125 1.252 . S
C122 O126 1.260 . S
O123 In117 2.266 1_545 S
O123 C120 1.252 . S
O124 In117 2.358 . S
O124 C120 1.258 1_565 S
O125 In117 2.266 . S
O125 C122 1.252 . S
O126 In117 2.326 . S
O126 C122 1.260 . S
C127 O118 1.240 . S
C127 O119 1.252 . S
O128 In117 2.294 . S
O128 C121 1.240 . S
O129 In117 2.326 . S
O129 C121 1.252 . S
In130 O131 2.294 . S
In130 O132 2.326 . S
In130 O136 2.266 1_455 S
In130 O137 2.326 . S
In130 O138 2.266 . S
In130 O139 2.326 . S
In130 O141 2.294 . S
In130 O142 2.326 . S
O131 In130 2.294 . S
O131 C140 1.240 . S
O132 In130 2.326 . S
O132 C140 1.252 . S
C133 O136 1.252 . S
C133 O137 1.260 1_655 S
C134 O141 1.240 . S
C134 O142 1.252 . S
C135 O138 1.252 . S
C135 O139 1.260 . S
O136 In130 2.266 1_655 S
O136 C133 1.252 . S
O137 In130 2.326 . S
O137 C133 1.260 1_455 S
O138 In130 2.266 . S
O138 C135 1.252 . S
O139 In130 2.326 . S
O139 C135 1.260 . S
C140 O131 1.240 . S
C140 O132 1.252 . S
O141 In130 2.294 . S
O141 C134 1.240 . S
O142 In130 2.326 . S
O142 C134 1.252 . S
In143 O144 2.294 . S
In143 O145 2.326 . S
In143 O149 2.266 . S
In143 O150 2.326 . S
In143 O151 2.266 . S
In143 O152 2.326 . S
In143 O154 2.294 . S
In143 O155 2.326 . S
O144 In143 2.294 . S
O144 C153 1.240 . S
O145 In143 2.326 . S
O145 C153 1.252 . S
C146 O149 1.252 . S
C146 O150 1.260 . S
C147 O154 1.240 . S
C147 O155 1.252 . S
C148 O151 1.252 . S
C148 O152 1.260 . S
O149 In143 2.266 . S
O149 C146 1.252 . S
O150 In143 2.326 . S
O150 C146 1.260 . S
O151 In143 2.266 . S
O151 C148 1.252 . S
O152 In143 2.326 . S
O152 C148 1.260 . S
C153 O144 1.240 . S
C153 O145 1.252 . S
O154 In143 2.294 . S
O154 C147 1.240 . S
O155 In143 2.326 . S
O155 C147 1.252 . S
In156 O157 2.294 . S
In156 O158 2.326 . S
In156 O162 2.266 . S
In156 O163 2.326 . S
In156 O164 2.266 1_545 S
In156 O165 2.326 . S
In156 O167 2.294 . S
In156 O168 2.326 . S
O157 In156 2.294 . S
O157 C166 1.240 . S
O158 In156 2.326 . S
O158 C166 1.252 . S
C159 O162 1.252 . S
C159 O163 1.260 . S
C160 O167 1.240 . S
C160 O168 1.252 . S
C161 O164 1.252 . S
C161 O165 1.260 1_565 S
O162 In156 2.266 . S
O162 C159 1.252 . S
O163 In156 2.326 . S
O163 C159 1.260 . S
O164 In156 2.266 1_565 S
O164 C161 1.252 . S
O165 In156 2.326 . S
O165 C161 1.260 1_545 S
C166 O157 1.240 . S
C166 O158 1.252 . S
O167 In156 2.294 . S
O167 C160 1.240 . S
O168 In156 2.326 . S
O168 C160 1.252 . S
In169 O170 2.294 . S
In169 O171 2.326 . S
In169 O175 2.266 . S
In169 O176 2.326 . S
In169 O177 2.266 1_655 S
In169 O178 2.326 . S
In169 O180 2.294 . S
In169 O181 2.326 . S
O170 In169 2.294 . S
O170 C179 1.240 . S
O171 In169 2.326 . S
O171 C179 1.252 . S
C172 O175 1.252 . S
C172 O176 1.260 . S
C173 O180 1.240 . S
C173 O181 1.252 . S
C174 O177 1.252 . S
C174 O178 1.260 1_455 S
O175 In169 2.266 . S
O175 C172 1.252 . S
O176 In169 2.326 . S
O176 C172 1.260 . S
O177 In169 2.266 1_455 S
O177 C174 1.252 . S
O178 In169 2.326 . S
O178 C174 1.260 1_655 S
C179 O170 1.240 . S
C179 O171 1.252 . S
O180 In169 2.294 . S
O180 C173 1.240 . S
O181 In169 2.326 . S
O181 C173 1.252 . S
In182 O183 2.294 . S
In182 O184 2.326 . S
In182 O188 2.266 . S
In182 O189 2.326 . S
In182 O190 2.266 . S
In182 O191 2.326 . S
In182 O193 2.294 . S
In182 O194 2.326 . S
O183 In182 2.294 . S
O183 C192 1.240 . S
O184 In182 2.326 . S
O184 C192 1.252 . S
C185 O188 1.252 . S
C185 O189 1.260 . S
C186 O193 1.240 . S
C186 O194 1.252 . S
C187 O190 1.252 . S
C187 O191 1.260 . S
O188 In182 2.266 . S
O188 C185 1.252 . S
O189 In182 2.326 . S
O189 C185 1.260 . S
O190 In182 2.266 . S
O190 C187 1.252 . S
O191 In182 2.326 . S
O191 C187 1.260 . S
C192 O183 1.240 . S
C192 O184 1.252 . S
O193 In182 2.294 . S
O193 C186 1.240 . S
O194 In182 2.326 . S
O194 C186 1.252 . S
In195 O196 2.294 . S
In195 O197 2.326 . S
In195 O201 2.266 . S
In195 O202 2.326 . S
In195 O203 2.266 . S
In195 O204 2.326 . S
In195 O206 2.294 . S
In195 O207 2.326 . S
O196 In195 2.294 . S
O196 C205 1.240 . S
O197 In195 2.326 . S
O197 C205 1.252 . S
C198 O201 1.252 . S
C198 O202 1.260 . S
C199 O206 1.240 . S
C199 O207 1.252 . S
C200 O203 1.252 . S
C200 O204 1.260 . S
O201 In195 2.266 . S
O201 C198 1.252 . S
O202 In195 2.326 . S
O202 C198 1.260 . S
O203 In195 2.266 . S
O203 C200 1.252 . S
O204 In195 2.326 . S
O204 C200 1.260 . S
C205 O196 1.240 . S
C205 O197 1.252 . S
O206 In195 2.294 . S
O206 C199 1.240 . S
O207 In195 2.326 . S
O207 C199 1.252 . S
In208 O209 2.294 . S
In208 O210 2.326 . S
In208 O214 2.266 . S
In208 O215 2.326 . S
In208 O216 2.266 . S
In208 O217 2.326 . S
In208 O219 2.294 1_545 S
In208 O220 2.326 . S
O209 In208 2.294 . S
O209 C218 1.240 . S
O210 In208 2.326 . S
O210 C218 1.252 . S
C211 O214 1.252 . S
C211 O215 1.260 . S
C212 O219 1.240 . S
C212 O220 1.252 1_565 S
C213 O216 1.252 . S
C213 O217 1.260 . S
O214 In208 2.266 . S
O214 C211 1.252 . S
O215 In208 2.326 . S
O215 C211 1.260 . S
O216 In208 2.266 . S
O216 C213 1.252 . S
O217 In208 2.326 . S
O217 C213 1.260 . S
C218 O209 1.240 . S
C218 O210 1.252 . S
O219 In208 2.294 1_565 S
O219 C212 1.240 . S
O220 In208 2.326 . S
O220 C212 1.252 1_545 S
In221 O222 2.294 . S
In221 O223 2.326 . S
In221 O227 2.266 . S
In221 O228 2.326 . S
In221 O229 2.233 1_655 S
In221 O230 2.326 . S
In221 O232 2.294 . S
In221 O233 2.326 . S
O222 In221 2.294 . S
O222 C231 1.240 . S
O223 In221 2.326 . S
O223 C231 1.252 . S
C224 O227 1.252 . S
C224 O228 1.260 . S
C225 O232 1.240 . S
C225 O233 1.252 . S
C226 O229 1.302 . S
C226 O230 1.260 1_455 S
O227 In221 2.266 . S
O227 C224 1.252 . S
O228 In221 2.326 . S
O228 C224 1.260 . S
O229 In221 2.233 1_455 S
O229 C226 1.302 . S
O230 In221 2.326 . S
O230 C226 1.260 1_655 S
C231 O222 1.240 . S
C231 O223 1.252 . S
O232 In221 2.294 . S
O232 C225 1.240 . S
O233 In221 2.326 . S
O233 C225 1.252 . S
C234 C235 1.560 . S
C234 H295 0.959 . S
C234 H296 0.959 . S
C234 H297 0.960 . S
C235 C234 1.560 . S
C235 O290 1.426 . S
C235 H294 0.980 . S
C236 C237 1.407 . S
C236 C241 1.418 . S
C236 O290 1.334 . S
C237 C236 1.407 . S
C237 C238 1.360 . S
C237 H298 0.929 . S
C238 C237 1.360 . S
C238 C239 1.401 . S
C238 C242 1.527 . S
C239 C238 1.401 . S
C239 C240 1.405 . S
C239 C272 1.587 . S
C240 C239 1.405 . S
C240 C241 1.332 . S
C240 C243 1.496 . S
C241 C236 1.418 . S
C241 C240 1.332 . S
C241 H299 0.929 . S
C242 C238 1.527 . S
C242 H300 0.959 . S
C242 H301 0.961 . S
C242 H302 0.961 . S
C243 C240 1.496 . S
C243 H303 0.960 . S
C243 H304 0.960 . S
C243 H305 0.961 . S
C244 C245 1.517 . S
C244 H307 0.961 . S
C244 H308 0.960 . S
C244 H309 0.959 . S
C245 C244 1.517 . S
C245 O293 1.468 . S
C245 H306 0.980 . S
C246 C247 1.349 . S
C246 C251 1.367 . S
C246 O293 1.408 . S
C247 C246 1.349 . S
C247 C248 1.407 . S
C247 H310 0.930 . S
C248 C247 1.407 . S
C248 C249 1.449 . S
C248 C252 1.535 . S
C249 C248 1.449 . S
C249 C250 1.384 . S
C249 C274 1.553 . S
C250 C249 1.384 . S
C250 C251 1.364 . S
C250 C253 1.450 . S
C251 C246 1.367 . S
C251 C250 1.364 . S
C251 H311 0.931 . S
C252 C248 1.535 . S
C252 H312 0.959 . S
C252 H313 0.961 . S
C252 H314 0.959 . S
C253 C250 1.450 . S
C253 H315 0.960 . S
C253 H316 0.960 . S
C253 H317 0.960 . S
C254 C255 1.309 . S
C254 C259 1.304 . S
C254 O292 1.435 . S
C255 C254 1.309 . S
C255 C256 1.476 . S
C255 H319 0.930 . S
C256 C255 1.476 . S
C256 C257 1.400 . S
C256 C260 1.567 . S
C257 C256 1.400 . S
C257 C258 1.373 . S
C257 C279 1.432 . S
C258 C257 1.373 . S
C258 C259 1.339 . S
C258 C261 1.530 . S
C259 C254 1.304 . S
C259 C258 1.339 . S
C259 H320 0.930 . S
C260 C256 1.567 . S
C260 H321 0.961 . S
C260 H322 0.960 . S
C260 H323 0.958 . S
C261 C258 1.530 . S
C261 H324 0.961 . S
C261 H325 0.960 . S
C261 H326 0.960 . S
C262 C263 1.530 . S
C262 H328 0.961 . S
C262 H329 0.961 . S
C262 H330 0.959 . S
C263 C262 1.530 . S
C263 O291 1.412 . S
C263 H327 0.980 . S
C264 C265 1.288 . S
C264 C269 1.377 . S
C264 O291 1.393 . S
C265 C264 1.288 . S
C265 C266 1.369 . S
C265 H331 0.932 . S
C266 C265 1.369 . S
C266 C267 1.398 . S
C266 C270 1.527 . S
C267 C266 1.398 . S
C267 C268 1.380 . S
C267 C281 1.497 . S
C268 C267 1.380 . S
C268 C269 1.383 . S
C268 C271 1.603 . S
C269 C264 1.377 . S
C269 C268 1.383 . S
C269 H332 0.929 . S
C270 C266 1.527 . S
C270 H333 0.961 . S
C270 H334 0.959 . S
C270 H335 0.959 . S
C271 C268 1.603 . S
C271 H336 0.960 . S
C271 H337 0.962 . S
C271 H338 0.961 . S
C272 C239 1.587 . S
C272 C273 1.360 . S
C272 C285 1.412 . S
C273 C272 1.360 . S
C273 C274 1.365 . S
C273 H339 0.929 . S
C274 C249 1.553 . S
C274 C273 1.365 . S
C274 C275 1.404 . S
C275 C274 1.404 . S
C275 C276 1.395 . S
C275 C286 1.451 . S
C276 C275 1.395 . S
C276 C277 1.322 . S
C276 H340 0.930 . S
C277 C276 1.322 . S
C277 C278 1.459 . S
C277 H341 0.929 . S
C278 C277 1.459 . S
C278 C279 1.445 . S
C278 C287 1.395 . S
C279 C257 1.432 . S
C279 C278 1.445 . S
C279 C280 1.370 . S
C280 C279 1.370 . S
C280 C281 1.438 . S
C280 H342 0.930 . S
C281 C267 1.497 . S
C281 C280 1.438 . S
C281 C282 1.360 . S
C282 C281 1.360 . S
C282 C283 1.401 . S
C282 C287 1.446 . S
C283 C282 1.401 . S
C283 C284 1.347 . S
C283 H343 0.929 . S
C284 C283 1.347 . S
C284 C285 1.455 . S
C284 H344 0.930 . S
C285 C272 1.412 . S
C285 C284 1.455 . S
C285 C286 1.331 . S
C286 C275 1.451 . S
C286 C285 1.331 . S
C286 C287 1.497 . S
C287 C278 1.395 . S
C287 C282 1.446 . S
C287 C286 1.497 . S
C288 C289 1.582 . S
C288 H345 0.962 . S
C288 H346 0.959 . S
C288 H347 0.958 . S
C289 C288 1.582 . S
C289 O292 1.458 . S
C289 H318 0.980 . S
O290 C235 1.426 . S
O290 C236 1.334 . S
O291 C263 1.412 . S
O291 C264 1.393 . S
O292 C254 1.435 . S
O292 C289 1.458 . S
O293 C245 1.468 . S
O293 C246 1.408 . S
H294 C235 0.980 . S
H295 C234 0.959 . S
H296 C234 0.959 . S
H297 C234 0.960 . S
H298 C237 0.929 . S
H299 C241 0.929 . S
H300 C242 0.959 . S
H301 C242 0.961 . S
H302 C242 0.961 . S
H303 C243 0.960 . S
H304 C243 0.960 . S
H305 C243 0.961 . S
H306 C245 0.980 . S
H307 C244 0.961 . S
H308 C244 0.960 . S
H309 C244 0.959 . S
H310 C247 0.930 . S
H311 C251 0.931 . S
H312 C252 0.959 . S
H313 C252 0.961 . S
H314 C252 0.959 . S
H315 C253 0.960 . S
H316 C253 0.960 . S
H317 C253 0.960 . S
H318 C289 0.980 . S
H319 C255 0.930 . S
H320 C259 0.930 . S
H321 C260 0.961 . S
H322 C260 0.960 . S
H323 C260 0.958 . S
H324 C261 0.961 . S
H325 C261 0.960 . S
H326 C261 0.960 . S
H327 C263 0.980 . S
H328 C262 0.961 . S
H329 C262 0.961 . S
H330 C262 0.959 . S
H331 C265 0.932 . S
H332 C269 0.929 . S
H333 C270 0.961 . S
H334 C270 0.959 . S
H335 C270 0.959 . S
H336 C271 0.960 . S
H337 C271 0.962 . S
H338 C271 0.961 . S
H339 C273 0.929 . S
H340 C276 0.930 . S
H341 C277 0.929 . S
H342 C280 0.930 . S
H343 C283 0.929 . S
H344 C284 0.930 . S
H345 C288 0.962 . S
H346 C288 0.959 . S
H347 C288 0.958 . S
C348 C349 1.560 . S
C348 H409 0.959 . S
C348 H410 0.959 . S
C348 H411 0.960 . S
C349 C348 1.560 . S
C349 O404 1.426 . S
C349 H408 0.980 . S
C350 C351 1.407 . S
C350 C355 1.418 . S
C350 O404 1.334 . S
C351 C350 1.407 . S
C351 C352 1.360 . S
C351 H412 0.929 . S
C352 C351 1.360 . S
C352 C353 1.401 . S
C352 C356 1.527 . S
C353 C352 1.401 . S
C353 C354 1.405 . S
C353 C386 1.587 . S
C354 C353 1.405 . S
C354 C355 1.332 . S
C354 C357 1.496 . S
C355 C350 1.418 . S
C355 C354 1.332 . S
C355 H413 0.929 . S
C356 C352 1.527 . S
C356 H414 0.959 . S
C356 H415 0.961 . S
C356 H416 0.961 . S
C357 C354 1.496 . S
C357 H417 0.960 . S
C357 H418 0.960 . S
C357 H419 0.961 . S
C358 C359 1.517 . S
C358 H421 0.961 . S
C358 H422 0.960 . S
C358 H423 0.959 . S
C359 C358 1.517 . S
C359 O407 1.468 . S
C359 H420 0.980 . S
C360 C361 1.349 . S
C360 C365 1.367 . S
C360 O407 1.408 . S
C361 C360 1.349 . S
C361 C362 1.407 . S
C361 H424 0.930 . S
C362 C361 1.407 . S
C362 C363 1.449 . S
C362 C366 1.535 . S
C363 C362 1.449 . S
C363 C364 1.384 . S
C363 C388 1.553 . S
C364 C363 1.384 . S
C364 C365 1.364 . S
C364 C367 1.450 . S
C365 C360 1.367 . S
C365 C364 1.364 . S
C365 H425 0.931 . S
C366 C362 1.535 . S
C366 H426 0.959 . S
C366 H427 0.961 . S
C366 H428 0.959 . S
C367 C364 1.450 . S
C367 H429 0.960 . S
C367 H430 0.960 . S
C367 H431 0.960 . S
C368 C369 1.309 . S
C368 C373 1.304 . S
C368 O406 1.435 . S
C369 C368 1.309 . S
C369 C370 1.476 . S
C369 H433 0.930 . S
C370 C369 1.476 . S
C370 C371 1.400 . S
C370 C374 1.567 . S
C371 C370 1.400 . S
C371 C372 1.373 . S
C371 C393 1.432 . S
C372 C371 1.373 . S
C372 C373 1.339 . S
C372 C375 1.530 . S
C373 C368 1.304 . S
C373 C372 1.339 . S
C373 H434 0.930 . S
C374 C370 1.567 . S
C374 H435 0.961 . S
C374 H436 0.960 . S
C374 H437 0.958 . S
C375 C372 1.530 . S
C375 H438 0.961 . S
C375 H439 0.960 . S
C375 H440 0.960 . S
C376 C377 1.530 . S
C376 H442 0.961 . S
C376 H443 0.961 . S
C376 H444 0.959 . S
C377 C376 1.530 . S
C377 O405 1.412 . S
C377 H441 0.980 . S
C378 C379 1.288 . S
C378 C383 1.377 . S
C378 O405 1.393 . S
C379 C378 1.288 . S
C379 C380 1.369 . S
C379 H445 0.932 . S
C380 C379 1.369 . S
C380 C381 1.398 . S
C380 C384 1.527 . S
C381 C380 1.398 . S
C381 C382 1.380 . S
C381 C395 1.497 . S
C382 C381 1.380 . S
C382 C383 1.383 . S
C382 C385 1.603 . S
C383 C378 1.377 . S
C383 C382 1.383 . S
C383 H446 0.929 . S
C384 C380 1.527 . S
C384 H447 0.961 . S
C384 H448 0.959 . S
C384 H449 0.959 . S
C385 C382 1.603 . S
C385 H450 0.960 . S
C385 H451 0.962 . S
C385 H452 0.961 . S
C386 C353 1.587 . S
C386 C387 1.360 . S
C386 C399 1.412 . S
C387 C386 1.360 . S
C387 C388 1.365 . S
C387 H453 0.929 . S
C388 C363 1.553 . S
C388 C387 1.365 . S
C388 C389 1.404 . S
C389 C388 1.404 . S
C389 C390 1.395 . S
C389 C400 1.451 . S
C390 C389 1.395 . S
C390 C391 1.322 . S
C390 H454 0.930 . S
C391 C390 1.322 . S
C391 C392 1.459 . S
C391 H455 0.929 . S
C392 C391 1.459 . S
C392 C393 1.445 . S
C392 C401 1.395 . S
C393 C371 1.432 . S
C393 C392 1.445 . S
C393 C394 1.370 . S
C394 C393 1.370 . S
C394 C395 1.438 . S
C394 H456 0.930 . S
C395 C381 1.497 . S
C395 C394 1.438 . S
C395 C396 1.360 . S
C396 C395 1.360 . S
C396 C397 1.401 . S
C396 C401 1.446 . S
C397 C396 1.401 . S
C397 C398 1.347 . S
C397 H457 0.929 . S
C398 C397 1.347 . S
C398 C399 1.455 . S
C398 H458 0.930 . S
C399 C386 1.412 . S
C399 C398 1.455 . S
C399 C400 1.331 . S
C400 C389 1.451 . S
C400 C399 1.331 . S
C400 C401 1.497 . S
C401 C392 1.395 . S
C401 C396 1.446 . S
C401 C400 1.497 . S
C402 C403 1.582 . S
C402 H459 0.962 . S
C402 H460 0.959 . S
C402 H461 0.958 . S
C403 C402 1.582 . S
C403 O406 1.458 . S
C403 H432 0.980 . S
O404 C349 1.426 . S
O404 C350 1.334 . S
O405 C377 1.412 . S
O405 C378 1.393 . S
O406 C368 1.435 . S
O406 C403 1.458 . S
O407 C359 1.468 . S
O407 C360 1.408 . S
H408 C349 0.980 . S
H409 C348 0.959 . S
H410 C348 0.959 . S
H411 C348 0.960 . S
H412 C351 0.929 . S
H413 C355 0.929 . S
H414 C356 0.959 . S
H415 C356 0.961 . S
H416 C356 0.961 . S
H417 C357 0.960 . S
H418 C357 0.960 . S
H419 C357 0.961 . S
H420 C359 0.980 . S
H421 C358 0.961 . S
H422 C358 0.960 . S
H423 C358 0.959 . S
H424 C361 0.930 . S
H425 C365 0.931 . S
H426 C366 0.959 . S
H427 C366 0.961 . S
H428 C366 0.959 . S
H429 C367 0.960 . S
H430 C367 0.960 . S
H431 C367 0.960 . S
H432 C403 0.980 . S
H433 C369 0.930 . S
H434 C373 0.930 . S
H435 C374 0.961 . S
H436 C374 0.960 . S
H437 C374 0.958 . S
H438 C375 0.961 . S
H439 C375 0.960 . S
H440 C375 0.960 . S
H441 C377 0.980 . S
H442 C376 0.961 . S
H443 C376 0.961 . S
H444 C376 0.959 . S
H445 C379 0.932 . S
H446 C383 0.929 . S
H447 C384 0.961 . S
H448 C384 0.959 . S
H449 C384 0.959 . S
H450 C385 0.960 . S
H451 C385 0.962 . S
H452 C385 0.961 . S
H453 C387 0.929 . S
H454 C390 0.930 . S
H455 C391 0.929 . S
H456 C394 0.930 . S
H457 C397 0.929 . S
H458 C398 0.930 . S
H459 C402 0.962 . S
H460 C402 0.959 . S
H461 C402 0.958 . S
C462 C463 1.560 . S
C462 H523 0.959 . S
C462 H524 0.959 . S
C462 H525 0.960 . S
C463 C462 1.560 . S
C463 O518 1.426 . S
C463 H522 0.980 . S
C464 C465 1.407 . S
C464 C469 1.418 . S
C464 O518 1.334 . S
C465 C464 1.407 . S
C465 C466 1.360 . S
C465 H526 0.929 . S
C466 C465 1.360 . S
C466 C467 1.401 . S
C466 C470 1.527 . S
C467 C466 1.401 . S
C467 C468 1.405 . S
C467 C500 1.587 . S
C468 C467 1.405 . S
C468 C469 1.332 . S
C468 C471 1.496 . S
C469 C464 1.418 . S
C469 C468 1.332 . S
C469 H527 0.929 . S
C470 C466 1.527 . S
C470 H528 0.959 . S
C470 H529 0.961 . S
C470 H530 0.961 . S
C471 C468 1.496 . S
C471 H531 0.960 . S
C471 H532 0.960 . S
C471 H533 0.961 . S
C472 C473 1.517 . S
C472 H535 0.961 . S
C472 H536 0.960 . S
C472 H537 0.959 . S
C473 C472 1.517 . S
C473 O521 1.468 . S
C473 H534 0.980 . S
C474 C475 1.349 . S
C474 C479 1.367 . S
C474 O521 1.408 . S
C475 C474 1.349 . S
C475 C476 1.407 . S
C475 H538 0.930 . S
C476 C475 1.407 . S
C476 C477 1.449 . S
C476 C480 1.535 . S
C477 C476 1.449 . S
C477 C478 1.384 . S
C477 C502 1.553 . S
C478 C477 1.384 . S
C478 C479 1.364 . S
C478 C481 1.450 . S
C479 C474 1.367 . S
C479 C478 1.364 . S
C479 H539 0.931 . S
C480 C476 1.535 . S
C480 H540 0.959 . S
C480 H541 0.961 . S
C480 H542 0.959 . S
C481 C478 1.450 . S
C481 H543 0.960 . S
C481 H544 0.960 . S
C481 H545 0.960 . S
C482 C483 1.309 . S
C482 C487 1.304 . S
C482 O520 1.435 . S
C483 C482 1.309 . S
C483 C484 1.476 . S
C483 H547 0.930 . S
C484 C483 1.476 . S
C484 C485 1.400 . S
C484 C488 1.567 . S
C485 C484 1.400 . S
C485 C486 1.373 . S
C485 C507 1.432 . S
C486 C485 1.373 . S
C486 C487 1.339 . S
C486 C489 1.530 . S
C487 C482 1.304 . S
C487 C486 1.339 . S
C487 H548 0.930 . S
C488 C484 1.567 . S
C488 H549 0.961 . S
C488 H550 0.960 . S
C488 H551 0.958 . S
C489 C486 1.530 . S
C489 H552 0.961 . S
C489 H553 0.960 . S
C489 H554 0.960 . S
C490 C491 1.530 . S
C490 H556 0.961 . S
C490 H557 0.961 . S
C490 H558 0.959 . S
C491 C490 1.530 . S
C491 O519 1.412 . S
C491 H555 0.980 . S
C492 C493 1.288 . S
C492 C497 1.377 . S
C492 O519 1.393 . S
C493 C492 1.288 . S
C493 C494 1.369 . S
C493 H559 0.932 . S
C494 C493 1.369 . S
C494 C495 1.398 . S
C494 C498 1.527 . S
C495 C494 1.398 . S
C495 C496 1.380 . S
C495 C509 1.497 . S
C496 C495 1.380 . S
C496 C497 1.383 . S
C496 C499 1.603 . S
C497 C492 1.377 . S
C497 C496 1.383 . S
C497 H560 0.929 . S
C498 C494 1.527 . S
C498 H561 0.961 . S
C498 H562 0.959 . S
C498 H563 0.959 . S
C499 C496 1.603 . S
C499 H564 0.960 . S
C499 H565 0.962 . S
C499 H566 0.961 . S
C500 C467 1.587 . S
C500 C501 1.360 . S
C500 C513 1.412 . S
C501 C500 1.360 . S
C501 C502 1.365 . S
C501 H567 0.929 . S
C502 C477 1.553 . S
C502 C501 1.365 . S
C502 C503 1.404 . S
C503 C502 1.404 . S
C503 C504 1.395 . S
C503 C514 1.451 . S
C504 C503 1.395 . S
C504 C505 1.322 . S
C504 H568 0.930 . S
C505 C504 1.322 . S
C505 C506 1.459 . S
C505 H569 0.929 . S
C506 C505 1.459 . S
C506 C507 1.445 . S
C506 C515 1.395 . S
C507 C485 1.432 . S
C507 C506 1.445 . S
C507 C508 1.370 . S
C508 C507 1.370 . S
C508 C509 1.438 . S
C508 H570 0.930 . S
C509 C495 1.497 . S
C509 C508 1.438 . S
C509 C510 1.360 . S
C510 C509 1.360 . S
C510 C511 1.401 . S
C510 C515 1.446 . S
C511 C510 1.401 . S
C511 C512 1.347 . S
C511 H571 0.929 . S
C512 C511 1.347 . S
C512 C513 1.455 . S
C512 H572 0.930 . S
C513 C500 1.412 . S
C513 C512 1.455 . S
C513 C514 1.331 . S
C514 C503 1.451 . S
C514 C513 1.331 . S
C514 C515 1.497 . S
C515 C506 1.395 . S
C515 C510 1.446 . S
C515 C514 1.497 . S
C516 C517 1.582 . S
C516 H573 0.962 . S
C516 H574 0.959 . S
C516 H575 0.958 . S
C517 C516 1.582 . S
C517 O520 1.458 . S
C517 H546 0.980 . S
O518 C463 1.426 . S
O518 C464 1.334 . S
O519 C491 1.412 . S
O519 C492 1.393 . S
O520 C482 1.435 . S
O520 C517 1.458 . S
O521 C473 1.468 . S
O521 C474 1.408 . S
H522 C463 0.980 . S
H523 C462 0.959 . S
H524 C462 0.959 . S
H525 C462 0.960 . S
H526 C465 0.929 . S
H527 C469 0.929 . S
H528 C470 0.959 . S
H529 C470 0.961 . S
H530 C470 0.961 . S
H531 C471 0.960 . S
H532 C471 0.960 . S
H533 C471 0.961 . S
H534 C473 0.980 . S
H535 C472 0.961 . S
H536 C472 0.960 . S
H537 C472 0.959 . S
H538 C475 0.930 . S
H539 C479 0.931 . S
H540 C480 0.959 . S
H541 C480 0.961 . S
H542 C480 0.959 . S
H543 C481 0.960 . S
H544 C481 0.960 . S
H545 C481 0.960 . S
H546 C517 0.980 . S
H547 C483 0.930 . S
H548 C487 0.930 . S
H549 C488 0.961 . S
H550 C488 0.960 . S
H551 C488 0.958 . S
H552 C489 0.961 . S
H553 C489 0.960 . S
H554 C489 0.960 . S
H555 C491 0.980 . S
H556 C490 0.961 . S
H557 C490 0.961 . S
H558 C490 0.959 . S
H559 C493 0.932 . S
H560 C497 0.929 . S
H561 C498 0.961 . S
H562 C498 0.959 . S
H563 C498 0.959 . S
H564 C499 0.960 . S
H565 C499 0.962 . S
H566 C499 0.961 . S
H567 C501 0.929 . S
H568 C504 0.930 . S
H569 C505 0.929 . S
H570 C508 0.930 . S
H571 C511 0.929 . S
H572 C512 0.930 . S
H573 C516 0.962 . S
H574 C516 0.959 . S
H575 C516 0.958 . S
C576 C577 1.560 . S
C576 H637 0.959 . S
C576 H638 0.959 . S
C576 H639 0.960 . S
C577 C576 1.560 . S
C577 O632 1.426 . S
C577 H636 0.980 . S
C578 C579 1.407 . S
C578 C583 1.418 . S
C578 O632 1.334 . S
C579 C578 1.407 . S
C579 C580 1.360 . S
C579 H640 0.929 . S
C580 C579 1.360 . S
C580 C581 1.401 . S
C580 C584 1.527 . S
C581 C580 1.401 . S
C581 C582 1.405 . S
C581 C614 1.587 . S
C582 C581 1.405 . S
C582 C583 1.332 . S
C582 C585 1.496 . S
C583 C578 1.418 . S
C583 C582 1.332 . S
C583 H641 0.929 . S
C584 C580 1.527 . S
C584 H642 0.959 . S
C584 H643 0.961 . S
C584 H644 0.961 . S
C585 C582 1.496 . S
C585 H645 0.960 . S
C585 H646 0.960 . S
C585 H647 0.961 . S
C586 C587 1.517 . S
C586 H649 0.961 . S
C586 H650 0.960 . S
C586 H651 0.959 . S
C587 C586 1.517 . S
C587 O635 1.468 . S
C587 H648 0.980 . S
C588 C589 1.349 . S
C588 C593 1.367 . S
C588 O635 1.408 . S
C589 C588 1.349 . S
C589 C590 1.407 . S
C589 H652 0.930 . S
C590 C589 1.407 . S
C590 C591 1.449 . S
C590 C594 1.535 . S
C591 C590 1.449 . S
C591 C592 1.384 . S
C591 C616 1.553 . S
C592 C591 1.384 . S
C592 C593 1.364 . S
C592 C595 1.450 . S
C593 C588 1.367 . S
C593 C592 1.364 . S
C593 H653 0.931 . S
C594 C590 1.535 . S
C594 H654 0.959 . S
C594 H655 0.961 . S
C594 H656 0.959 . S
C595 C592 1.450 . S
C595 H657 0.960 . S
C595 H658 0.960 . S
C595 H659 0.960 . S
C596 C597 1.309 . S
C596 C601 1.304 . S
C596 O634 1.435 . S
C597 C596 1.309 . S
C597 C598 1.476 . S
C597 H661 0.930 . S
C598 C597 1.476 . S
C598 C599 1.400 . S
C598 C602 1.567 . S
C599 C598 1.400 . S
C599 C600 1.373 . S
C599 C621 1.432 . S
C600 C599 1.373 . S
C600 C601 1.339 . S
C600 C603 1.530 . S
C601 C596 1.304 . S
C601 C600 1.339 . S
C601 H662 0.930 . S
C602 C598 1.567 . S
C602 H663 0.961 . S
C602 H664 0.960 . S
C602 H665 0.958 . S
C603 C600 1.530 . S
C603 H666 0.961 . S
C603 H667 0.960 . S
C603 H668 0.960 . S
C604 C605 1.530 . S
C604 H670 0.961 . S
C604 H671 0.961 . S
C604 H672 0.959 . S
C605 C604 1.530 . S
C605 O633 1.412 . S
C605 H669 0.980 . S
C606 C607 1.288 . S
C606 C611 1.377 . S
C606 O633 1.393 . S
C607 C606 1.288 . S
C607 C608 1.369 . S
C607 H673 0.932 . S
C608 C607 1.369 . S
C608 C609 1.398 . S
C608 C612 1.527 . S
C609 C608 1.398 . S
C609 C610 1.380 . S
C609 C623 1.497 . S
C610 C609 1.380 . S
C610 C611 1.383 . S
C610 C613 1.603 . S
C611 C606 1.377 . S
C611 C610 1.383 . S
C611 H674 0.929 . S
C612 C608 1.527 . S
C612 H675 0.961 . S
C612 H676 0.959 . S
C612 H677 0.959 . S
C613 C610 1.603 . S
C613 H678 0.960 . S
C613 H679 0.962 . S
C613 H680 0.961 . S
C614 C581 1.587 . S
C614 C615 1.360 . S
C614 C627 1.412 . S
C615 C614 1.360 . S
C615 C616 1.365 . S
C615 H681 0.929 . S
C616 C591 1.553 . S
C616 C615 1.365 . S
C616 C617 1.404 . S
C617 C616 1.404 . S
C617 C618 1.395 . S
C617 C628 1.451 . S
C618 C617 1.395 . S
C618 C619 1.322 . S
C618 H682 0.930 . S
C619 C618 1.322 . S
C619 C620 1.459 . S
C619 H683 0.929 . S
C620 C619 1.459 . S
C620 C621 1.445 . S
C620 C629 1.395 . S
C621 C599 1.432 . S
C621 C620 1.445 . S
C621 C622 1.370 . S
C622 C621 1.370 . S
C622 C623 1.438 . S
C622 H684 0.930 . S
C623 C609 1.497 . S
C623 C622 1.438 . S
C623 C624 1.360 . S
C624 C623 1.360 . S
C624 C625 1.401 . S
C624 C629 1.446 . S
C625 C624 1.401 . S
C625 C626 1.347 . S
C625 H685 0.929 . S
C626 C625 1.347 . S
C626 C627 1.455 . S
C626 H686 0.930 . S
C627 C614 1.412 . S
C627 C626 1.455 . S
C627 C628 1.331 . S
C628 C617 1.451 . S
C628 C627 1.331 . S
C628 C629 1.497 . S
C629 C620 1.395 . S
C629 C624 1.446 . S
C629 C628 1.497 . S
C630 C631 1.582 . S
C630 H687 0.962 . S
C630 H688 0.959 . S
C630 H689 0.958 . S
C631 C630 1.582 . S
C631 O634 1.458 . S
C631 H660 0.980 . S
O632 C577 1.426 . S
O632 C578 1.334 . S
O633 C605 1.412 . S
O633 C606 1.393 . S
O634 C596 1.435 . S
O634 C631 1.458 . S
O635 C587 1.468 . S
O635 C588 1.408 . S
H636 C577 0.980 . S
H637 C576 0.959 . S
H638 C576 0.959 . S
H639 C576 0.960 . S
H640 C579 0.929 . S
H641 C583 0.929 . S
H642 C584 0.959 . S
H643 C584 0.961 . S
H644 C584 0.961 . S
H645 C585 0.960 . S
H646 C585 0.960 . S
H647 C585 0.961 . S
H648 C587 0.980 . S
H649 C586 0.961 . S
H650 C586 0.960 . S
H651 C586 0.959 . S
H652 C589 0.930 . S
H653 C593 0.931 . S
H654 C594 0.959 . S
H655 C594 0.961 . S
H656 C594 0.959 . S
H657 C595 0.960 . S
H658 C595 0.960 . S
H659 C595 0.960 . S
H660 C631 0.980 . S
H661 C597 0.930 . S
H662 C601 0.930 . S
H663 C602 0.961 . S
H664 C602 0.960 . S
H665 C602 0.958 . S
H666 C603 0.961 . S
H667 C603 0.960 . S
H668 C603 0.960 . S
H669 C605 0.980 . S
H670 C604 0.961 . S
H671 C604 0.961 . S
H672 C604 0.959 . S
H673 C607 0.932 . S
H674 C611 0.929 . S
H675 C612 0.961 . S
H676 C612 0.959 . S
H677 C612 0.959 . S
H678 C613 0.960 . S
H679 C613 0.962 . S
H680 C613 0.961 . S
H681 C615 0.929 . S
H682 C618 0.930 . S
H683 C619 0.929 . S
H684 C622 0.930 . S
H685 C625 0.929 . S
H686 C626 0.930 . S
H687 C630 0.962 . S
H688 C630 0.959 . S
H689 C630 0.958 . S
C690 C691 1.560 . S
C690 H751 0.959 . S
C690 H752 0.959 . S
C690 H753 0.960 . S
C691 C690 1.560 . S
C691 O746 1.426 . S
C691 H750 0.980 . S
C692 C693 1.407 . S
C692 C697 1.418 . S
C692 O746 1.334 . S
C693 C692 1.407 . S
C693 C694 1.360 . S
C693 H754 0.929 . S
C694 C693 1.360 . S
C694 C695 1.401 . S
C694 C698 1.527 . S
C695 C694 1.401 . S
C695 C696 1.405 . S
C695 C728 1.587 . S
C696 C695 1.405 . S
C696 C697 1.332 . S
C696 C699 1.496 . S
C697 C692 1.418 . S
C697 C696 1.332 . S
C697 H755 0.929 . S
C698 C694 1.527 . S
C698 H756 0.959 . S
C698 H757 0.961 . S
C698 H758 0.961 . S
C699 C696 1.496 . S
C699 H759 0.960 . S
C699 H760 0.960 . S
C699 H761 0.961 . S
C700 C701 1.517 . S
C700 H763 0.961 . S
C700 H764 0.960 . S
C700 H765 0.959 . S
C701 C700 1.517 . S
C701 O749 1.468 . S
C701 H762 0.980 . S
C702 C703 1.349 . S
C702 C707 1.367 . S
C702 O749 1.408 . S
C703 C702 1.349 . S
C703 C704 1.407 . S
C703 H766 0.930 . S
C704 C703 1.407 . S
C704 C705 1.449 . S
C704 C708 1.535 . S
C705 C704 1.449 . S
C705 C706 1.384 . S
C705 C730 1.553 . S
C706 C705 1.384 . S
C706 C707 1.364 . S
C706 C709 1.450 . S
C707 C702 1.367 . S
C707 C706 1.364 . S
C707 H767 0.931 . S
C708 C704 1.535 . S
C708 H768 0.959 . S
C708 H769 0.961 . S
C708 H770 0.959 . S
C709 C706 1.450 . S
C709 H771 0.960 . S
C709 H772 0.960 . S
C709 H773 0.960 . S
C710 C711 1.309 . S
C710 C715 1.304 . S
C710 O748 1.435 . S
C711 C710 1.309 . S
C711 C712 1.476 . S
C711 H775 0.930 . S
C712 C711 1.476 . S
C712 C713 1.400 . S
C712 C716 1.567 . S
C713 C712 1.400 . S
C713 C714 1.373 . S
C713 C735 1.432 . S
C714 C713 1.373 . S
C714 C715 1.339 . S
C714 C717 1.530 . S
C715 C710 1.304 . S
C715 C714 1.339 . S
C715 H776 0.930 . S
C716 C712 1.567 . S
C716 H777 0.961 . S
C716 H778 0.960 . S
C716 H779 0.958 . S
C717 C714 1.530 . S
C717 H780 0.961 . S
C717 H781 0.960 . S
C717 H782 0.960 . S
C718 C719 1.530 . S
C718 H784 0.961 . S
C718 H785 0.961 . S
C718 H786 0.959 . S
C719 C718 1.530 . S
C719 O747 1.412 . S
C719 H783 0.980 . S
C720 C721 1.288 . S
C720 C725 1.377 . S
C720 O747 1.393 . S
C721 C720 1.288 . S
C721 C722 1.369 . S
C721 H787 0.932 . S
C722 C721 1.369 . S
C722 C723 1.398 . S
C722 C726 1.527 . S
C723 C722 1.398 . S
C723 C724 1.380 . S
C723 C737 1.497 . S
C724 C723 1.380 . S
C724 C725 1.383 . S
C724 C727 1.603 . S
C725 C720 1.377 . S
C725 C724 1.383 . S
C725 H788 0.929 . S
C726 C722 1.527 . S
C726 H789 0.961 . S
C726 H790 0.959 . S
C726 H791 0.959 . S
C727 C724 1.603 . S
C727 H792 0.960 . S
C727 H793 0.962 . S
C727 H794 0.961 . S
C728 C695 1.587 . S
C728 C729 1.360 . S
C728 C741 1.412 . S
C729 C728 1.360 . S
C729 C730 1.365 . S
C729 H795 0.929 . S
C730 C705 1.553 . S
C730 C729 1.365 . S
C730 C731 1.404 . S
C731 C730 1.404 . S
C731 C732 1.395 . S
C731 C742 1.451 . S
C732 C731 1.395 . S
C732 C733 1.322 . S
C732 H796 0.930 . S
C733 C732 1.322 . S
C733 C734 1.459 . S
C733 H797 0.929 . S
C734 C733 1.459 . S
C734 C735 1.445 . S
C734 C743 1.395 . S
C735 C713 1.432 . S
C735 C734 1.445 . S
C735 C736 1.370 . S
C736 C735 1.370 . S
C736 C737 1.438 . S
C736 H798 0.930 . S
C737 C723 1.497 . S
C737 C736 1.438 . S
C737 C738 1.360 . S
C738 C737 1.360 . S
C738 C739 1.401 . S
C738 C743 1.446 . S
C739 C738 1.401 . S
C739 C740 1.347 . S
C739 H799 0.929 . S
C740 C739 1.347 . S
C740 C741 1.455 . S
C740 H800 0.930 . S
C741 C728 1.412 . S
C741 C740 1.455 . S
C741 C742 1.331 . S
C742 C731 1.451 . S
C742 C741 1.331 . S
C742 C743 1.497 . S
C743 C734 1.395 . S
C743 C738 1.446 . S
C743 C742 1.497 . S
C744 C745 1.582 . S
C744 H801 0.962 . S
C744 H802 0.959 . S
C744 H803 0.958 . S
C745 C744 1.582 . S
C745 O748 1.458 . S
C745 H774 0.980 . S
O746 C691 1.426 . S
O746 C692 1.334 . S
O747 C719 1.412 . S
O747 C720 1.393 . S
O748 C710 1.435 . S
O748 C745 1.458 . S
O749 C701 1.468 . S
O749 C702 1.408 . S
H750 C691 0.980 . S
H751 C690 0.959 . S
H752 C690 0.959 . S
H753 C690 0.960 . S
H754 C693 0.929 . S
H755 C697 0.929 . S
H756 C698 0.959 . S
H757 C698 0.961 . S
H758 C698 0.961 . S
H759 C699 0.960 . S
H760 C699 0.960 . S
H761 C699 0.961 . S
H762 C701 0.980 . S
H763 C700 0.961 . S
H764 C700 0.960 . S
H765 C700 0.959 . S
H766 C703 0.930 . S
H767 C707 0.931 . S
H768 C708 0.959 . S
H769 C708 0.961 . S
H770 C708 0.959 . S
H771 C709 0.960 . S
H772 C709 0.960 . S
H773 C709 0.960 . S
H774 C745 0.980 . S
H775 C711 0.930 . S
H776 C715 0.930 . S
H777 C716 0.961 . S
H778 C716 0.960 . S
H779 C716 0.958 . S
H780 C717 0.961 . S
H781 C717 0.960 . S
H782 C717 0.960 . S
H783 C719 0.980 . S
H784 C718 0.961 . S
H785 C718 0.961 . S
H786 C718 0.959 . S
H787 C721 0.932 . S
H788 C725 0.929 . S
H789 C726 0.961 . S
H790 C726 0.959 . S
H791 C726 0.959 . S
H792 C727 0.960 . S
H793 C727 0.962 . S
H794 C727 0.961 . S
H795 C729 0.929 . S
H796 C732 0.930 . S
H797 C733 0.929 . S
H798 C736 0.930 . S
H799 C739 0.929 . S
H800 C740 0.930 . S
H801 C744 0.962 . S
H802 C744 0.959 . S
H803 C744 0.958 . S
C804 C805 1.560 . S
C804 H865 0.959 . S
C804 H866 0.959 . S
C804 H867 0.960 . S
C805 C804 1.560 . S
C805 O860 1.426 . S
C805 H864 0.980 . S
C806 C807 1.407 . S
C806 C811 1.418 . S
C806 O860 1.334 . S
C807 C806 1.407 . S
C807 C808 1.360 . S
C807 H868 0.929 . S
C808 C807 1.360 . S
C808 C809 1.401 . S
C808 C812 1.527 . S
C809 C808 1.401 . S
C809 C810 1.405 . S
C809 C842 1.587 . S
C810 C809 1.405 . S
C810 C811 1.332 . S
C810 C813 1.496 . S
C811 C806 1.418 . S
C811 C810 1.332 . S
C811 H869 0.929 . S
C812 C808 1.527 . S
C812 H870 0.959 . S
C812 H871 0.961 . S
C812 H872 0.961 . S
C813 C810 1.496 . S
C813 H873 0.960 . S
C813 H874 0.960 . S
C813 H875 0.961 . S
C814 C815 1.517 . S
C814 H877 0.961 . S
C814 H878 0.960 . S
C814 H879 0.959 . S
C815 C814 1.517 . S
C815 O863 1.468 . S
C815 H876 0.980 . S
C816 C817 1.349 . S
C816 C821 1.367 . S
C816 O863 1.408 . S
C817 C816 1.349 . S
C817 C818 1.407 . S
C817 H880 0.930 . S
C818 C817 1.407 . S
C818 C819 1.449 . S
C818 C822 1.535 . S
C819 C818 1.449 . S
C819 C820 1.384 . S
C819 C844 1.553 . S
C820 C819 1.384 . S
C820 C821 1.364 . S
C820 C823 1.450 . S
C821 C816 1.367 . S
C821 C820 1.364 . S
C821 H881 0.931 . S
C822 C818 1.535 . S
C822 H882 0.959 . S
C822 H883 0.961 . S
C822 H884 0.959 . S
C823 C820 1.450 . S
C823 H885 0.960 . S
C823 H886 0.960 . S
C823 H887 0.960 . S
C824 C825 1.309 . S
C824 C829 1.304 . S
C824 O862 1.435 . S
C825 C824 1.309 . S
C825 C826 1.476 . S
C825 H889 0.930 . S
C826 C825 1.476 . S
C826 C827 1.400 . S
C826 C830 1.567 . S
C827 C826 1.400 . S
C827 C828 1.373 . S
C827 C849 1.432 . S
C828 C827 1.373 . S
C828 C829 1.339 . S
C828 C831 1.530 . S
C829 C824 1.304 . S
C829 C828 1.339 . S
C829 H890 0.930 . S
C830 C826 1.567 . S
C830 H891 0.961 . S
C830 H892 0.960 . S
C830 H893 0.958 . S
C831 C828 1.530 . S
C831 H894 0.961 . S
C831 H895 0.960 . S
C831 H896 0.960 . S
C832 C833 1.530 . S
C832 H898 0.961 . S
C832 H899 0.961 . S
C832 H900 0.959 . S
C833 C832 1.530 . S
C833 O861 1.412 . S
C833 H897 0.980 . S
C834 C835 1.288 . S
C834 C839 1.377 . S
C834 O861 1.393 . S
C835 C834 1.288 . S
C835 C836 1.369 . S
C835 H901 0.932 . S
C836 C835 1.369 . S
C836 C837 1.398 . S
C836 C840 1.527 . S
C837 C836 1.398 . S
C837 C838 1.380 . S
C837 C851 1.497 . S
C838 C837 1.380 . S
C838 C839 1.383 . S
C838 C841 1.603 . S
C839 C834 1.377 . S
C839 C838 1.383 . S
C839 H902 0.929 . S
C840 C836 1.527 . S
C840 H903 0.961 . S
C840 H904 0.959 . S
C840 H905 0.959 . S
C841 C838 1.603 . S
C841 H906 0.960 . S
C841 H907 0.962 . S
C841 H908 0.961 . S
C842 C809 1.587 . S
C842 C843 1.360 . S
C842 C855 1.412 . S
C843 C842 1.360 . S
C843 C844 1.365 . S
C843 H909 0.929 . S
C844 C819 1.553 . S
C844 C843 1.365 . S
C844 C845 1.404 . S
C845 C844 1.404 . S
C845 C846 1.395 . S
C845 C856 1.451 . S
C846 C845 1.395 . S
C846 C847 1.322 . S
C846 H910 0.930 . S
C847 C846 1.322 . S
C847 C848 1.459 . S
C847 H911 0.929 . S
C848 C847 1.459 . S
C848 C849 1.445 . S
C848 C857 1.395 . S
C849 C827 1.432 . S
C849 C848 1.445 . S
C849 C850 1.370 . S
C850 C849 1.370 . S
C850 C851 1.438 . S
C850 H912 0.930 . S
C851 C837 1.497 . S
C851 C850 1.438 . S
C851 C852 1.360 . S
C852 C851 1.360 . S
C852 C853 1.401 . S
C852 C857 1.446 . S
C853 C852 1.401 . S
C853 C854 1.347 . S
C853 H913 0.929 . S
C854 C853 1.347 . S
C854 C855 1.455 . S
C854 H914 0.930 . S
C855 C842 1.412 . S
C855 C854 1.455 . S
C855 C856 1.331 . S
C856 C845 1.451 . S
C856 C855 1.331 . S
C856 C857 1.497 . S
C857 C848 1.395 . S
C857 C852 1.446 . S
C857 C856 1.497 . S
C858 C859 1.582 . S
C858 H915 0.962 . S
C858 H916 0.959 . S
C858 H917 0.958 . S
C859 C858 1.582 . S
C859 O862 1.458 . S
C859 H888 0.980 . S
O860 C805 1.426 . S
O860 C806 1.334 . S
O861 C833 1.412 . S
O861 C834 1.393 . S
O862 C824 1.435 . S
O862 C859 1.458 . S
O863 C815 1.468 . S
O863 C816 1.408 . S
H864 C805 0.980 . S
H865 C804 0.959 . S
H866 C804 0.959 . S
H867 C804 0.960 . S
H868 C807 0.929 . S
H869 C811 0.929 . S
H870 C812 0.959 . S
H871 C812 0.961 . S
H872 C812 0.961 . S
H873 C813 0.960 . S
H874 C813 0.960 . S
H875 C813 0.961 . S
H876 C815 0.980 . S
H877 C814 0.961 . S
H878 C814 0.960 . S
H879 C814 0.959 . S
H880 C817 0.930 . S
H881 C821 0.931 . S
H882 C822 0.959 . S
H883 C822 0.961 . S
H884 C822 0.959 . S
H885 C823 0.960 . S
H886 C823 0.960 . S
H887 C823 0.960 . S
H888 C859 0.980 . S
H889 C825 0.930 . S
H890 C829 0.930 . S
H891 C830 0.961 . S
H892 C830 0.960 . S
H893 C830 0.958 . S
H894 C831 0.961 . S
H895 C831 0.960 . S
H896 C831 0.960 . S
H897 C833 0.980 . S
H898 C832 0.961 . S
H899 C832 0.961 . S
H900 C832 0.959 . S
H901 C835 0.932 . S
H902 C839 0.929 . S
H903 C840 0.961 . S
H904 C840 0.959 . S
H905 C840 0.959 . S
H906 C841 0.960 . S
H907 C841 0.962 . S
H908 C841 0.961 . S
H909 C843 0.929 . S
H910 C846 0.930 . S
H911 C847 0.929 . S
H912 C850 0.930 . S
H913 C853 0.929 . S
H914 C854 0.930 . S
H915 C858 0.962 . S
H916 C858 0.959 . S
H917 C858 0.958 . S
C918 C919 1.560 . S
C918 H979 0.959 . S
C918 H980 0.959 . S
C918 H981 0.960 . S
C919 C918 1.560 . S
C919 O974 1.426 . S
C919 H978 0.980 . S
C920 C921 1.407 . S
C920 C925 1.418 . S
C920 O974 1.334 . S
C921 C920 1.407 . S
C921 C922 1.360 . S
C921 H982 0.929 . S
C922 C921 1.360 . S
C922 C923 1.401 . S
C922 C926 1.527 . S
C923 C922 1.401 . S
C923 C924 1.405 . S
C923 C956 1.587 . S
C924 C923 1.405 . S
C924 C925 1.332 . S
C924 C927 1.496 . S
C925 C920 1.418 . S
C925 C924 1.332 . S
C925 H983 0.929 . S
C926 C922 1.527 . S
C926 H984 0.959 . S
C926 H985 0.961 . S
C926 H986 0.961 . S
C927 C924 1.496 . S
C927 H987 0.960 . S
C927 H988 0.960 . S
C927 H989 0.961 . S
C928 C929 1.517 . S
C928 H991 0.961 . S
C928 H992 0.960 . S
C928 H993 0.959 . S
C929 C928 1.517 . S
C929 O977 1.468 . S
C929 H990 0.980 . S
C930 C931 1.349 . S
C930 C935 1.367 . S
C930 O977 1.408 . S
C931 C930 1.349 . S
C931 C932 1.407 . S
C931 H994 0.930 . S
C932 C931 1.407 . S
C932 C933 1.449 . S
C932 C936 1.535 . S
C933 C932 1.449 . S
C933 C934 1.384 . S
C933 C958 1.553 . S
C934 C933 1.384 . S
C934 C935 1.364 . S
C934 C937 1.450 . S
C935 C930 1.367 . S
C935 C934 1.364 . S
C935 H995 0.931 . S
C936 C932 1.535 . S
C936 H996 0.959 . S
C936 H997 0.961 . S
C936 H998 0.959 . S
C937 C934 1.450 . S
C937 H999 0.960 . S
C937 H1000 0.960 . S
C937 H1001 0.960 . S
C938 C939 1.309 . S
C938 C943 1.304 . S
C938 O976 1.435 . S
C939 C938 1.309 . S
C939 C940 1.476 . S
C939 H1003 0.930 . S
C940 C939 1.476 . S
C940 C941 1.400 . S
C940 C944 1.567 . S
C941 C940 1.400 . S
C941 C942 1.373 . S
C941 C963 1.432 . S
C942 C941 1.373 . S
C942 C943 1.339 . S
C942 C945 1.530 . S
C943 C938 1.304 . S
C943 C942 1.339 . S
C943 H1004 0.930 . S
C944 C940 1.567 . S
C944 H1005 0.961 . S
C944 H1006 0.960 . S
C944 H1007 0.958 . S
C945 C942 1.530 . S
C945 H1008 0.961 . S
C945 H1009 0.960 . S
C945 H1010 0.960 . S
C946 C947 1.530 . S
C946 H1012 0.961 . S
C946 H1013 0.961 . S
C946 H1014 0.959 . S
C947 C946 1.530 . S
C947 O975 1.412 . S
C947 H1011 0.980 . S
C948 C949 1.288 . S
C948 C953 1.377 . S
C948 O975 1.393 . S
C949 C948 1.288 . S
C949 C950 1.369 . S
C949 H1015 0.932 . S
C950 C949 1.369 . S
C950 C951 1.398 . S
C950 C954 1.527 . S
C951 C950 1.398 . S
C951 C952 1.380 . S
C951 C965 1.497 . S
C952 C951 1.380 . S
C952 C953 1.383 . S
C952 C955 1.603 . S
C953 C948 1.377 . S
C953 C952 1.383 . S
C953 H1016 0.929 . S
C954 C950 1.527 . S
C954 H1017 0.961 . S
C954 H1018 0.959 . S
C954 H1019 0.959 . S
C955 C952 1.603 . S
C955 H1020 0.960 . S
C955 H1021 0.962 . S
C955 H1022 0.961 . S
C956 C923 1.587 . S
C956 C957 1.360 . S
C956 C969 1.412 . S
C957 C956 1.360 . S
C957 C958 1.365 . S
C957 H1023 0.929 . S
C958 C933 1.553 . S
C958 C957 1.365 . S
C958 C959 1.404 . S
C959 C958 1.404 . S
C959 C960 1.395 . S
C959 C970 1.451 . S
C960 C959 1.395 . S
C960 C961 1.322 . S
C960 H1024 0.930 . S
C961 C960 1.322 . S
C961 C962 1.459 . S
C961 H1025 0.929 . S
C962 C961 1.459 . S
C962 C963 1.445 . S
C962 C971 1.395 . S
C963 C941 1.432 . S
C963 C962 1.445 . S
C963 C964 1.370 . S
C964 C963 1.370 . S
C964 C965 1.438 . S
C964 H1026 0.930 . S
C965 C951 1.497 . S
C965 C964 1.438 . S
C965 C966 1.360 . S
C966 C965 1.360 . S
C966 C967 1.401 . S
C966 C971 1.446 . S
C967 C966 1.401 . S
C967 C968 1.347 . S
C967 H1027 0.929 . S
C968 C967 1.347 . S
C968 C969 1.455 . S
C968 H1028 0.930 . S
C969 C956 1.412 . S
C969 C968 1.455 . S
C969 C970 1.331 . S
C970 C959 1.451 . S
C970 C969 1.331 . S
C970 C971 1.497 . S
C971 C962 1.395 . S
C971 C966 1.446 . S
C971 C970 1.497 . S
C972 C973 1.582 . S
C972 H1029 0.962 . S
C972 H1030 0.959 . S
C972 H1031 0.958 . S
C973 C972 1.582 . S
C973 O976 1.458 . S
C973 H1002 0.980 . S
O974 C919 1.426 . S
O974 C920 1.334 . S
O975 C947 1.412 . S
O975 C948 1.393 . S
O976 C938 1.435 . S
O976 C973 1.458 . S
O977 C929 1.468 . S
O977 C930 1.408 . S
H978 C919 0.980 . S
H979 C918 0.959 . S
H980 C918 0.959 . S
H981 C918 0.960 . S
H982 C921 0.929 . S
H983 C925 0.929 . S
H984 C926 0.959 . S
H985 C926 0.961 . S
H986 C926 0.961 . S
H987 C927 0.960 . S
H988 C927 0.960 . S
H989 C927 0.961 . S
H990 C929 0.980 . S
H991 C928 0.961 . S
H992 C928 0.960 . S
H993 C928 0.959 . S
H994 C931 0.930 . S
H995 C935 0.931 . S
H996 C936 0.959 . S
H997 C936 0.961 . S
H998 C936 0.959 . S
H999 C937 0.960 . S
H1000 C937 0.960 . S
H1001 C937 0.960 . S
H1002 C973 0.980 . S
H1003 C939 0.930 . S
H1004 C943 0.930 . S
H1005 C944 0.961 . S
H1006 C944 0.960 . S
H1007 C944 0.958 . S
H1008 C945 0.961 . S
H1009 C945 0.960 . S
H1010 C945 0.960 . S
H1011 C947 0.980 . S
H1012 C946 0.961 . S
H1013 C946 0.961 . S
H1014 C946 0.959 . S
H1015 C949 0.932 . S
H1016 C953 0.929 . S
H1017 C954 0.961 . S
H1018 C954 0.959 . S
H1019 C954 0.959 . S
H1020 C955 0.960 . S
H1021 C955 0.962 . S
H1022 C955 0.961 . S
H1023 C957 0.929 . S
H1024 C960 0.930 . S
H1025 C961 0.929 . S
H1026 C964 0.930 . S
H1027 C967 0.929 . S
H1028 C968 0.930 . S
H1029 C972 0.962 . S
H1030 C972 0.959 . S
H1031 C972 0.958 . S
C1032 C1033 1.560 . S
C1032 H1093 0.959 . S
C1032 H1094 0.959 . S
C1032 H1095 0.960 . S
C1033 C1032 1.560 . S
C1033 O1088 1.426 . S
C1033 H1092 0.980 . S
C1034 C1035 1.407 . S
C1034 C1039 1.418 . S
C1034 O1088 1.334 . S
C1035 C1034 1.407 . S
C1035 C1036 1.360 . S
C1035 H1096 0.929 . S
C1036 C1035 1.360 . S
C1036 C1037 1.401 . S
C1036 C1040 1.527 . S
C1037 C1036 1.401 . S
C1037 C1038 1.405 . S
C1037 C1070 1.587 . S
C1038 C1037 1.405 . S
C1038 C1039 1.332 . S
C1038 C1041 1.496 . S
C1039 C1034 1.418 . S
C1039 C1038 1.332 . S
C1039 H1097 0.929 . S
C1040 C1036 1.527 . S
C1040 H1098 0.959 . S
C1040 H1099 0.961 . S
C1040 H1100 0.961 . S
C1041 C1038 1.496 . S
C1041 H1101 0.960 . S
C1041 H1102 0.960 . S
C1041 H1103 0.961 . S
C1042 C1043 1.517 . S
C1042 H1105 0.961 . S
C1042 H1106 0.960 . S
C1042 H1107 0.959 . S
C1043 C1042 1.517 . S
C1043 O1091 1.468 . S
C1043 H1104 0.980 . S
C1044 C1045 1.349 . S
C1044 C1049 1.367 . S
C1044 O1091 1.408 . S
C1045 C1044 1.349 . S
C1045 C1046 1.407 . S
C1045 H1108 0.930 . S
C1046 C1045 1.407 . S
C1046 C1047 1.449 . S
C1046 C1050 1.535 . S
C1047 C1046 1.449 . S
C1047 C1048 1.384 . S
C1047 C1072 1.553 . S
C1048 C1047 1.384 . S
C1048 C1049 1.364 . S
C1048 C1051 1.450 . S
C1049 C1044 1.367 . S
C1049 C1048 1.364 . S
C1049 H1109 0.931 . S
C1050 C1046 1.535 . S
C1050 H1110 0.959 . S
C1050 H1111 0.961 . S
C1050 H1112 0.959 . S
C1051 C1048 1.450 . S
C1051 H1113 0.960 . S
C1051 H1114 0.960 . S
C1051 H1115 0.960 . S
C1052 C1053 1.309 . S
C1052 C1057 1.304 . S
C1052 O1090 1.435 . S
C1053 C1052 1.309 . S
C1053 C1054 1.476 . S
C1053 H1117 0.930 . S
C1054 C1053 1.476 . S
C1054 C1055 1.400 . S
C1054 C1058 1.567 . S
C1055 C1054 1.400 . S
C1055 C1056 1.373 . S
C1055 C1077 1.432 . S
C1056 C1055 1.373 . S
C1056 C1057 1.339 . S
C1056 C1059 1.530 . S
C1057 C1052 1.304 . S
C1057 C1056 1.339 . S
C1057 H1118 0.930 . S
C1058 C1054 1.567 . S
C1058 H1119 0.961 . S
C1058 H1120 0.960 . S
C1058 H1121 0.958 . S
C1059 C1056 1.530 . S
C1059 H1122 0.961 . S
C1059 H1123 0.960 . S
C1059 H1124 0.960 . S
C1060 C1061 1.530 . S
C1060 H1126 0.961 . S
C1060 H1127 0.961 . S
C1060 H1128 0.959 . S
C1061 C1060 1.530 . S
C1061 O1089 1.412 . S
C1061 H1125 0.980 . S
C1062 C1063 1.288 . S
C1062 C1067 1.377 . S
C1062 O1089 1.393 . S
C1063 C1062 1.288 . S
C1063 C1064 1.369 . S
C1063 H1129 0.932 . S
C1064 C1063 1.369 . S
C1064 C1065 1.398 . S
C1064 C1068 1.527 . S
C1065 C1064 1.398 . S
C1065 C1066 1.380 . S
C1065 C1079 1.497 . S
C1066 C1065 1.380 . S
C1066 C1067 1.383 . S
C1066 C1069 1.603 . S
C1067 C1062 1.377 . S
C1067 C1066 1.383 . S
C1067 H1130 0.929 . S
C1068 C1064 1.527 . S
C1068 H1131 0.961 . S
C1068 H1132 0.959 . S
C1068 H1133 0.959 . S
C1069 C1066 1.603 . S
C1069 H1134 0.960 . S
C1069 H1135 0.962 . S
C1069 H1136 0.961 . S
C1070 C1037 1.587 . S
C1070 C1071 1.360 . S
C1070 C1083 1.412 . S
C1071 C1070 1.360 . S
C1071 C1072 1.365 . S
C1071 H1137 0.929 . S
C1072 C1047 1.553 . S
C1072 C1071 1.365 . S
C1072 C1073 1.404 . S
C1073 C1072 1.404 . S
C1073 C1074 1.395 . S
C1073 C1084 1.451 . S
C1074 C1073 1.395 . S
C1074 C1075 1.322 . S
C1074 H1138 0.930 . S
C1075 C1074 1.322 . S
C1075 C1076 1.459 . S
C1075 H1139 0.929 . S
C1076 C1075 1.459 . S
C1076 C1077 1.445 . S
C1076 C1085 1.395 . S
C1077 C1055 1.432 . S
C1077 C1076 1.445 . S
C1077 C1078 1.370 . S
C1078 C1077 1.370 . S
C1078 C1079 1.438 . S
C1078 H1140 0.930 . S
C1079 C1065 1.497 . S
C1079 C1078 1.438 . S
C1079 C1080 1.360 . S
C1080 C1079 1.360 . S
C1080 C1081 1.401 . S
C1080 C1085 1.446 . S
C1081 C1080 1.401 . S
C1081 C1082 1.347 . S
C1081 H1141 0.929 . S
C1082 C1081 1.347 . S
C1082 C1083 1.455 . S
C1082 H1142 0.930 . S
C1083 C1070 1.412 . S
C1083 C1082 1.455 . S
C1083 C1084 1.331 . S
C1084 C1073 1.451 . S
C1084 C1083 1.331 . S
C1084 C1085 1.497 . S
C1085 C1076 1.395 . S
C1085 C1080 1.446 . S
C1085 C1084 1.497 . S
C1086 C1087 1.582 . S
C1086 H1143 0.962 . S
C1086 H1144 0.959 . S
C1086 H1145 0.958 . S
C1087 C1086 1.582 . S
C1087 O1090 1.458 . S
C1087 H1116 0.980 . S
O1088 C1033 1.426 . S
O1088 C1034 1.334 . S
O1089 C1061 1.412 . S
O1089 C1062 1.393 . S
O1090 C1052 1.435 . S
O1090 C1087 1.458 . S
O1091 C1043 1.468 . S
O1091 C1044 1.408 . S
H1092 C1033 0.980 . S
H1093 C1032 0.959 . S
H1094 C1032 0.959 . S
H1095 C1032 0.960 . S
H1096 C1035 0.929 . S
H1097 C1039 0.929 . S
H1098 C1040 0.959 . S
H1099 C1040 0.961 . S
H1100 C1040 0.961 . S
H1101 C1041 0.960 . S
H1102 C1041 0.960 . S
H1103 C1041 0.961 . S
H1104 C1043 0.980 . S
H1105 C1042 0.961 . S
H1106 C1042 0.960 . S
H1107 C1042 0.959 . S
H1108 C1045 0.930 . S
H1109 C1049 0.931 . S
H1110 C1050 0.959 . S
H1111 C1050 0.961 . S
H1112 C1050 0.959 . S
H1113 C1051 0.960 . S
H1114 C1051 0.960 . S
H1115 C1051 0.960 . S
H1116 C1087 0.980 . S
H1117 C1053 0.930 . S
H1118 C1057 0.930 . S
H1119 C1058 0.961 . S
H1120 C1058 0.960 . S
H1121 C1058 0.958 . S
H1122 C1059 0.961 . S
H1123 C1059 0.960 . S
H1124 C1059 0.960 . S
H1125 C1061 0.980 . S
H1126 C1060 0.961 . S
H1127 C1060 0.961 . S
H1128 C1060 0.959 . S
H1129 C1063 0.932 . S
H1130 C1067 0.929 . S
H1131 C1068 0.961 . S
H1132 C1068 0.959 . S
H1133 C1068 0.959 . S
H1134 C1069 0.960 . S
H1135 C1069 0.962 . S
H1136 C1069 0.961 . S
H1137 C1071 0.929 . S
H1138 C1074 0.930 . S
H1139 C1075 0.929 . S
H1140 C1078 0.930 . S
H1141 C1081 0.929 . S
H1142 C1082 0.930 . S
H1143 C1086 0.962 . S
H1144 C1086 0.959 . S
H1145 C1086 0.958 . S
C1146 C1147 1.560 . S
C1146 H1207 0.959 . S
C1146 H1208 0.959 . S
C1146 H1209 0.960 . S
C1147 C1146 1.560 . S
C1147 O1202 1.426 . S
C1147 H1206 0.980 . S
C1148 C1149 1.407 . S
C1148 C1153 1.418 . S
C1148 O1202 1.334 . S
C1149 C1148 1.407 . S
C1149 C1150 1.360 . S
C1149 H1210 0.929 . S
C1150 C1149 1.360 . S
C1150 C1151 1.401 . S
C1150 C1154 1.527 . S
C1151 C1150 1.401 . S
C1151 C1152 1.405 . S
C1151 C1184 1.587 . S
C1152 C1151 1.405 . S
C1152 C1153 1.332 . S
C1152 C1155 1.496 . S
C1153 C1148 1.418 . S
C1153 C1152 1.332 . S
C1153 H1211 0.929 . S
C1154 C1150 1.527 . S
C1154 H1212 0.959 . S
C1154 H1213 0.961 . S
C1154 H1214 0.961 . S
C1155 C1152 1.496 . S
C1155 H1215 0.960 . S
C1155 H1216 0.960 . S
C1155 H1217 0.961 . S
C1156 C1157 1.517 . S
C1156 H1219 0.961 . S
C1156 H1220 0.960 . S
C1156 H1221 0.959 . S
C1157 C1156 1.517 . S
C1157 O1205 1.468 . S
C1157 H1218 0.980 . S
C1158 C1159 1.349 . S
C1158 C1163 1.367 . S
C1158 O1205 1.408 . S
C1159 C1158 1.349 . S
C1159 C1160 1.407 . S
C1159 H1222 0.930 . S
C1160 C1159 1.407 . S
C1160 C1161 1.449 . S
C1160 C1164 1.535 . S
C1161 C1160 1.449 . S
C1161 C1162 1.384 . S
C1161 C1186 1.553 . S
C1162 C1161 1.384 . S
C1162 C1163 1.364 . S
C1162 C1165 1.450 . S
C1163 C1158 1.367 . S
C1163 C1162 1.364 . S
C1163 H1223 0.931 . S
C1164 C1160 1.535 . S
C1164 H1224 0.959 . S
C1164 H1225 0.961 . S
C1164 H1226 0.959 . S
C1165 C1162 1.450 . S
C1165 H1227 0.960 . S
C1165 H1228 0.960 . S
C1165 H1229 0.960 . S
C1166 C1167 1.309 . S
C1166 C1171 1.304 . S
C1166 O1204 1.435 . S
C1167 C1166 1.309 . S
C1167 C1168 1.476 . S
C1167 H1231 0.930 . S
C1168 C1167 1.476 . S
C1168 C1169 1.400 . S
C1168 C1172 1.567 . S
C1169 C1168 1.400 . S
C1169 C1170 1.373 . S
C1169 C1191 1.432 . S
C1170 C1169 1.373 . S
C1170 C1171 1.339 . S
C1170 C1173 1.530 . S
C1171 C1166 1.304 . S
C1171 C1170 1.339 . S
C1171 H1232 0.930 . S
C1172 C1168 1.567 . S
C1172 H1233 0.961 . S
C1172 H1234 0.960 . S
C1172 H1235 0.958 . S
C1173 C1170 1.530 . S
C1173 H1236 0.961 . S
C1173 H1237 0.960 . S
C1173 H1238 0.960 . S
C1174 C1175 1.530 . S
C1174 H1240 0.961 . S
C1174 H1241 0.961 . S
C1174 H1242 0.959 . S
C1175 C1174 1.530 . S
C1175 O1203 1.412 . S
C1175 H1239 0.980 . S
C1176 C1177 1.288 . S
C1176 C1181 1.377 . S
C1176 O1203 1.393 . S
C1177 C1176 1.288 . S
C1177 C1178 1.369 . S
C1177 H1243 0.932 . S
C1178 C1177 1.369 . S
C1178 C1179 1.398 . S
C1178 C1182 1.527 . S
C1179 C1178 1.398 . S
C1179 C1180 1.380 . S
C1179 C1193 1.497 . S
C1180 C1179 1.380 . S
C1180 C1181 1.383 . S
C1180 C1183 1.603 . S
C1181 C1176 1.377 . S
C1181 C1180 1.383 . S
C1181 H1244 0.929 . S
C1182 C1178 1.527 . S
C1182 H1245 0.961 . S
C1182 H1246 0.959 . S
C1182 H1247 0.959 . S
C1183 C1180 1.603 . S
C1183 H1248 0.960 . S
C1183 H1249 0.962 . S
C1183 H1250 0.961 . S
C1184 C1151 1.587 . S
C1184 C1185 1.360 . S
C1184 C1197 1.412 . S
C1185 C1184 1.360 . S
C1185 C1186 1.365 . S
C1185 H1251 0.929 . S
C1186 C1161 1.553 . S
C1186 C1185 1.365 . S
C1186 C1187 1.404 . S
C1187 C1186 1.404 . S
C1187 C1188 1.395 . S
C1187 C1198 1.451 . S
C1188 C1187 1.395 . S
C1188 C1189 1.322 . S
C1188 H1252 0.930 . S
C1189 C1188 1.322 . S
C1189 C1190 1.459 . S
C1189 H1253 0.929 . S
C1190 C1189 1.459 . S
C1190 C1191 1.445 . S
C1190 C1199 1.395 . S
C1191 C1169 1.432 . S
C1191 C1190 1.445 . S
C1191 C1192 1.370 . S
C1192 C1191 1.370 . S
C1192 C1193 1.438 . S
C1192 H1254 0.930 . S
C1193 C1179 1.497 . S
C1193 C1192 1.438 . S
C1193 C1194 1.360 . S
C1194 C1193 1.360 . S
C1194 C1195 1.401 . S
C1194 C1199 1.446 . S
C1195 C1194 1.401 . S
C1195 C1196 1.347 . S
C1195 H1255 0.929 . S
C1196 C1195 1.347 . S
C1196 C1197 1.455 . S
C1196 H1256 0.930 . S
C1197 C1184 1.412 . S
C1197 C1196 1.455 . S
C1197 C1198 1.331 . S
C1198 C1187 1.451 . S
C1198 C1197 1.331 . S
C1198 C1199 1.497 . S
C1199 C1190 1.395 . S
C1199 C1194 1.446 . S
C1199 C1198 1.497 . S
C1200 C1201 1.582 . S
C1200 H1257 0.962 . S
C1200 H1258 0.959 . S
C1200 H1259 0.958 . S
C1201 C1200 1.582 . S
C1201 O1204 1.458 . S
C1201 H1230 0.980 . S
O1202 C1147 1.426 . S
O1202 C1148 1.334 . S
O1203 C1175 1.412 . S
O1203 C1176 1.393 . S
O1204 C1166 1.435 . S
O1204 C1201 1.458 . S
O1205 C1157 1.468 . S
O1205 C1158 1.408 . S
H1206 C1147 0.980 . S
H1207 C1146 0.959 . S
H1208 C1146 0.959 . S
H1209 C1146 0.960 . S
H1210 C1149 0.929 . S
H1211 C1153 0.929 . S
H1212 C1154 0.959 . S
H1213 C1154 0.961 . S
H1214 C1154 0.961 . S
H1215 C1155 0.960 . S
H1216 C1155 0.960 . S
H1217 C1155 0.961 . S
H1218 C1157 0.980 . S
H1219 C1156 0.961 . S
H1220 C1156 0.960 . S
H1221 C1156 0.959 . S
H1222 C1159 0.930 . S
H1223 C1163 0.931 . S
H1224 C1164 0.959 . S
H1225 C1164 0.961 . S
H1226 C1164 0.959 . S
H1227 C1165 0.960 . S
H1228 C1165 0.960 . S
H1229 C1165 0.960 . S
H1230 C1201 0.980 . S
H1231 C1167 0.930 . S
H1232 C1171 0.930 . S
H1233 C1172 0.961 . S
H1234 C1172 0.960 . S
H1235 C1172 0.958 . S
H1236 C1173 0.961 . S
H1237 C1173 0.960 . S
H1238 C1173 0.960 . S
H1239 C1175 0.980 . S
H1240 C1174 0.961 . S
H1241 C1174 0.961 . S
H1242 C1174 0.959 . S
H1243 C1177 0.932 . S
H1244 C1181 0.929 . S
H1245 C1182 0.961 . S
H1246 C1182 0.959 . S
H1247 C1182 0.959 . S
H1248 C1183 0.960 . S
H1249 C1183 0.962 . S
H1250 C1183 0.961 . S
H1251 C1185 0.929 . S
H1252 C1188 0.930 . S
H1253 C1189 0.929 . S
H1254 C1192 0.930 . S
H1255 C1195 0.929 . S
H1256 C1196 0.930 . S
H1257 C1200 0.962 . S
H1258 C1200 0.959 . S
H1259 C1200 0.958 . S
C1260 C1261 1.560 . S
C1260 H1321 0.959 . S
C1260 H1322 0.959 . S
C1260 H1323 0.960 . S
C1261 C1260 1.560 . S
C1261 O1316 1.426 . S
C1261 H1320 0.980 . S
C1262 C1263 1.407 1_455 S
C1262 C1267 1.418 . S
C1262 O1316 1.334 . S
C1263 C1262 1.407 1_655 S
C1263 C1264 1.360 . S
C1263 H1324 0.929 . S
C1264 C1263 1.360 . S
C1264 C1265 1.401 1_655 S
C1264 C1268 1.527 . S
C1265 C1264 1.401 1_455 S
C1265 C1266 1.405 . S
C1265 C1298 1.587 1_455 S
C1266 C1265 1.405 . S
C1266 C1267 1.332 . S
C1266 C1269 1.496 . S
C1267 C1262 1.418 . S
C1267 C1266 1.332 . S
C1267 H1325 0.929 . S
C1268 C1264 1.527 . S
C1268 H1326 0.959 . S
C1268 H1327 0.961 . S
C1268 H1328 0.961 . S
C1269 C1266 1.496 . S
C1269 H1329 0.960 . S
C1269 H1330 0.960 . S
C1269 H1331 0.961 . S
C1270 C1271 1.517 . S
C1270 H1333 0.964 1_655 S
C1270 H1334 0.960 . S
C1270 H1335 0.959 . S
C1271 C1270 1.517 . S
C1271 O1319 1.468 . S
C1271 H1332 0.980 1_655 S
C1272 C1273 1.349 . S
C1272 C1277 1.367 . S
C1272 O1319 1.408 . S
C1273 C1272 1.349 . S
C1273 C1274 1.407 1_655 S
C1273 H1336 0.930 1_655 S
C1274 C1273 1.407 1_455 S
C1274 C1275 1.449 1_455 S
C1274 C1278 1.535 . S
C1275 C1274 1.449 1_655 S
C1275 C1276 1.384 . S
C1275 C1300 1.553 . S
C1276 C1275 1.384 . S
C1276 C1277 1.364 . S
C1276 C1279 1.450 . S
C1277 C1272 1.367 . S
C1277 C1276 1.364 . S
C1277 H1337 0.931 . S
C1278 C1274 1.535 . S
C1278 H1338 0.959 . S
C1278 H1339 0.961 . S
C1278 H1340 0.959 . S
C1279 C1276 1.450 . S
C1279 H1341 0.960 . S
C1279 H1342 0.960 . S
C1279 H1343 0.960 . S
C1280 C1281 1.309 . S
C1280 C1285 1.304 . S
C1280 O1318 1.435 . S
C1281 C1280 1.309 . S
C1281 C1282 1.464 1_655 S
C1281 H1345 0.930 1_655 S
C1282 C1281 1.464 1_455 S
C1282 C1283 1.393 1_455 S
C1282 C1286 1.586 . S
C1283 C1282 1.393 1_655 S
C1283 C1284 1.373 . S
C1283 C1305 1.432 . S
C1284 C1283 1.373 . S
C1284 C1285 1.339 . S
C1284 C1287 1.530 . S
C1285 C1280 1.304 . S
C1285 C1284 1.339 . S
C1285 H1346 0.930 . S
C1286 C1282 1.586 . S
C1286 H1347 0.961 . S
C1286 H1348 0.960 . S
C1286 H1349 0.958 . S
C1287 C1284 1.530 . S
C1287 H1350 0.961 . S
C1287 H1351 0.960 . S
C1287 H1352 0.960 . S
C1288 C1289 1.486 1_455 S
C1288 H1354 0.961 . S
C1288 H1355 0.961 . S
C1288 H1356 0.959 . S
C1289 C1288 1.486 1_655 S
C1289 O1317 1.403 1_655 S
C1289 H1353 0.994 . S
C1290 C1291 1.288 . S
C1290 C1295 1.377 1_455 S
C1290 O1317 1.393 . S
C1291 C1290 1.288 . S
C1291 C1292 1.369 . S
C1291 H1357 0.932 . S
C1292 C1291 1.369 . S
C1292 C1293 1.398 1_455 S
C1292 C1296 1.527 . S
C1293 C1292 1.398 1_655 S
C1293 C1294 1.380 . S
C1293 C1307 1.497 . S
C1294 C1293 1.380 . S
C1294 C1295 1.383 . S
C1294 C1297 1.603 . S
C1295 C1290 1.377 1_655 S
C1295 C1294 1.383 . S
C1295 H1358 0.929 . S
C1296 C1292 1.527 . S
C1296 H1359 0.961 . S
C1296 H1360 0.959 . S
C1296 H1361 0.959 . S
C1297 C1294 1.603 . S
C1297 H1362 0.960 . S
C1297 H1363 0.962 . S
C1297 H1364 0.961 . S
C1298 C1265 1.587 1_655 S
C1298 C1299 1.360 . S
C1298 C1311 1.412 . S
C1299 C1298 1.360 . S
C1299 C1300 1.365 . S
C1299 H1365 0.929 . S
C1300 C1275 1.553 . S
C1300 C1299 1.365 . S
C1300 C1301 1.404 . S
C1301 C1300 1.404 . S
C1301 C1302 1.395 . S
C1301 C1312 1.451 . S
C1302 C1301 1.395 . S
C1302 C1303 1.322 . S
C1302 H1366 0.930 . S
C1303 C1302 1.322 . S
C1303 C1304 1.459 . S
C1303 H1367 0.929 . S
C1304 C1303 1.459 . S
C1304 C1305 1.445 . S
C1304 C1313 1.395 . S
C1305 C1283 1.432 . S
C1305 C1304 1.445 . S
C1305 C1306 1.370 . S
C1306 C1305 1.370 . S
C1306 C1307 1.438 . S
C1306 H1368 0.930 . S
C1307 C1293 1.497 . S
C1307 C1306 1.438 . S
C1307 C1308 1.360 . S
C1308 C1307 1.360 . S
C1308 C1309 1.401 . S
C1308 C1313 1.446 . S
C1309 C1308 1.401 . S
C1309 C1310 1.347 . S
C1309 H1369 0.929 . S
C1310 C1309 1.347 . S
C1310 C1311 1.455 . S
C1310 H1370 0.930 . S
C1311 C1298 1.412 . S
C1311 C1310 1.455 . S
C1311 C1312 1.331 . S
C1312 C1301 1.451 . S
C1312 C1311 1.331 . S
C1312 C1313 1.497 . S
C1313 C1304 1.395 . S
C1313 C1308 1.446 . S
C1313 C1312 1.497 . S
C1314 C1315 1.582 . S
C1314 H1371 0.962 . S
C1314 H1372 0.959 . S
C1314 H1373 0.958 . S
C1315 C1314 1.582 . S
C1315 O1318 1.458 . S
C1315 H1344 0.980 . S
O1316 C1261 1.426 . S
O1316 C1262 1.334 . S
O1317 C1289 1.403 1_455 S
O1317 C1290 1.393 . S
O1318 C1280 1.435 . S
O1318 C1315 1.458 . S
O1319 C1271 1.468 . S
O1319 C1272 1.408 . S
H1320 C1261 0.980 . S
H1321 C1260 0.959 . S
H1322 C1260 0.959 . S
H1323 C1260 0.960 . S
H1324 C1263 0.929 . S
H1325 C1267 0.929 . S
H1326 C1268 0.959 . S
H1327 C1268 0.961 . S
H1328 C1268 0.961 . S
H1329 C1269 0.960 . S
H1330 C1269 0.960 . S
H1331 C1269 0.961 . S
H1332 C1271 0.980 1_455 S
H1333 C1270 0.964 1_455 S
H1334 C1270 0.960 . S
H1335 C1270 0.959 . S
H1336 C1273 0.930 1_455 S
H1337 C1277 0.931 . S
H1338 C1278 0.959 . S
H1339 C1278 0.961 . S
H1340 C1278 0.959 . S
H1341 C1279 0.960 . S
H1342 C1279 0.960 . S
H1343 C1279 0.960 . S
H1344 C1315 0.980 . S
H1345 C1281 0.930 1_455 S
H1346 C1285 0.930 . S
H1347 C1286 0.961 . S
H1348 C1286 0.960 . S
H1349 C1286 0.958 . S
H1350 C1287 0.961 . S
H1351 C1287 0.960 . S
H1352 C1287 0.960 . S
H1353 C1289 0.994 . S
H1354 C1288 0.961 . S
H1355 C1288 0.961 . S
H1356 C1288 0.959 . S
H1357 C1291 0.932 . S
H1358 C1295 0.929 . S
H1359 C1296 0.961 . S
H1360 C1296 0.959 . S
H1361 C1296 0.959 . S
H1362 C1297 0.960 . S
H1363 C1297 0.962 . S
H1364 C1297 0.961 . S
H1365 C1299 0.929 . S
H1366 C1302 0.930 . S
H1367 C1303 0.929 . S
H1368 C1306 0.930 . S
H1369 C1309 0.929 . S
H1370 C1310 0.930 . S
H1371 C1314 0.962 . S
H1372 C1314 0.959 . S
H1373 C1314 0.958 . S
C1374 C1375 1.560 . S
C1374 H1435 0.959 . S
C1374 H1436 0.959 . S
C1374 H1437 0.960 . S
C1375 C1374 1.560 . S
C1375 O1430 1.426 . S
C1375 H1434 0.980 . S
C1376 C1377 1.407 . S
C1376 C1381 1.418 . S
C1376 O1430 1.334 . S
C1377 C1376 1.407 . S
C1377 C1378 1.360 . S
C1377 H1438 0.929 . S
C1378 C1377 1.360 . S
C1378 C1379 1.401 . S
C1378 C1382 1.527 . S
C1379 C1378 1.401 . S
C1379 C1380 1.405 . S
C1379 C1412 1.587 . S
C1380 C1379 1.405 . S
C1380 C1381 1.332 . S
C1380 C1383 1.496 . S
C1381 C1376 1.418 . S
C1381 C1380 1.332 . S
C1381 H1439 0.929 . S
C1382 C1378 1.527 . S
C1382 H1440 0.959 . S
C1382 H1441 0.961 . S
C1382 H1442 0.961 . S
C1383 C1380 1.496 . S
C1383 H1443 0.960 . S
C1383 H1444 0.960 . S
C1383 H1445 0.961 . S
C1384 C1385 1.517 . S
C1384 H1447 0.961 . S
C1384 H1448 0.960 . S
C1384 H1449 0.959 . S
C1385 C1384 1.517 . S
C1385 O1433 1.468 . S
C1385 H1446 0.980 . S
C1386 C1387 1.349 . S
C1386 C1391 1.367 . S
C1386 O1433 1.408 . S
C1387 C1386 1.349 . S
C1387 C1388 1.407 . S
C1387 H1450 0.930 . S
C1388 C1387 1.407 . S
C1388 C1389 1.449 . S
C1388 C1392 1.535 . S
C1389 C1388 1.449 . S
C1389 C1390 1.384 . S
C1389 C1414 1.553 . S
C1390 C1389 1.384 . S
C1390 C1391 1.364 . S
C1390 C1393 1.450 . S
C1391 C1386 1.367 . S
C1391 C1390 1.364 . S
C1391 H1451 0.931 . S
C1392 C1388 1.535 . S
C1392 H1452 0.959 . S
C1392 H1453 0.961 . S
C1392 H1454 0.959 . S
C1393 C1390 1.450 . S
C1393 H1455 0.960 . S
C1393 H1456 0.960 . S
C1393 H1457 0.960 . S
C1394 C1395 1.309 . S
C1394 C1399 1.304 . S
C1394 O1432 1.435 . S
C1395 C1394 1.309 . S
C1395 C1396 1.476 . S
C1395 H1459 0.930 . S
C1396 C1395 1.476 . S
C1396 C1397 1.400 . S
C1396 C1400 1.567 . S
C1397 C1396 1.400 . S
C1397 C1398 1.373 . S
C1397 C1419 1.432 . S
C1398 C1397 1.373 . S
C1398 C1399 1.339 . S
C1398 C1401 1.530 . S
C1399 C1394 1.304 . S
C1399 C1398 1.339 . S
C1399 H1460 0.930 . S
C1400 C1396 1.567 . S
C1400 H1461 0.961 . S
C1400 H1462 0.960 . S
C1400 H1463 0.958 . S
C1401 C1398 1.530 . S
C1401 H1464 0.961 . S
C1401 H1465 0.960 . S
C1401 H1466 0.960 . S
C1402 C1403 1.530 . S
C1402 H1468 0.961 . S
C1402 H1469 0.961 . S
C1402 H1470 0.959 . S
C1403 C1402 1.530 . S
C1403 O1431 1.412 . S
C1403 H1467 0.980 . S
C1404 C1405 1.288 . S
C1404 C1409 1.377 . S
C1404 O1431 1.393 . S
C1405 C1404 1.288 . S
C1405 C1406 1.369 . S
C1405 H1471 0.932 . S
C1406 C1405 1.369 . S
C1406 C1407 1.398 . S
C1406 C1410 1.527 . S
C1407 C1406 1.398 . S
C1407 C1408 1.380 . S
C1407 C1421 1.497 . S
C1408 C1407 1.380 . S
C1408 C1409 1.383 . S
C1408 C1411 1.603 . S
C1409 C1404 1.377 . S
C1409 C1408 1.383 . S
C1409 H1472 0.929 . S
C1410 C1406 1.527 . S
C1410 H1473 0.961 . S
C1410 H1474 0.959 . S
C1410 H1475 0.959 . S
C1411 C1408 1.603 . S
C1411 H1476 0.960 . S
C1411 H1477 0.962 . S
C1411 H1478 0.961 . S
C1412 C1379 1.587 . S
C1412 C1413 1.360 . S
C1412 C1425 1.412 . S
C1413 C1412 1.360 . S
C1413 C1414 1.365 . S
C1413 H1479 0.929 . S
C1414 C1389 1.553 . S
C1414 C1413 1.365 . S
C1414 C1415 1.404 . S
C1415 C1414 1.404 . S
C1415 C1416 1.395 . S
C1415 C1426 1.451 . S
C1416 C1415 1.395 . S
C1416 C1417 1.322 . S
C1416 H1480 0.930 . S
C1417 C1416 1.322 . S
C1417 C1418 1.459 . S
C1417 H1481 0.929 . S
C1418 C1417 1.459 . S
C1418 C1419 1.445 . S
C1418 C1427 1.395 . S
C1419 C1397 1.432 . S
C1419 C1418 1.445 . S
C1419 C1420 1.370 . S
C1420 C1419 1.370 . S
C1420 C1421 1.438 . S
C1420 H1482 0.930 . S
C1421 C1407 1.497 . S
C1421 C1420 1.438 . S
C1421 C1422 1.360 . S
C1422 C1421 1.360 . S
C1422 C1423 1.401 . S
C1422 C1427 1.446 . S
C1423 C1422 1.401 . S
C1423 C1424 1.347 . S
C1423 H1483 0.929 . S
C1424 C1423 1.347 . S
C1424 C1425 1.455 . S
C1424 H1484 0.930 . S
C1425 C1412 1.412 . S
C1425 C1424 1.455 . S
C1425 C1426 1.331 . S
C1426 C1415 1.451 . S
C1426 C1425 1.331 . S
C1426 C1427 1.497 . S
C1427 C1418 1.395 . S
C1427 C1422 1.446 . S
C1427 C1426 1.497 . S
C1428 C1429 1.582 . S
C1428 H1485 0.962 . S
C1428 H1486 0.959 . S
C1428 H1487 0.958 . S
C1429 C1428 1.582 . S
C1429 O1432 1.458 . S
C1429 H1458 0.980 . S
O1430 C1375 1.426 . S
O1430 C1376 1.334 . S
O1431 C1403 1.412 . S
O1431 C1404 1.393 . S
O1432 C1394 1.435 . S
O1432 C1429 1.458 . S
O1433 C1385 1.468 . S
O1433 C1386 1.408 . S
H1434 C1375 0.980 . S
H1435 C1374 0.959 . S
H1436 C1374 0.959 . S
H1437 C1374 0.960 . S
H1438 C1377 0.929 . S
H1439 C1381 0.929 . S
H1440 C1382 0.959 . S
H1441 C1382 0.961 . S
H1442 C1382 0.961 . S
H1443 C1383 0.960 . S
H1444 C1383 0.960 . S
H1445 C1383 0.961 . S
H1446 C1385 0.980 . S
H1447 C1384 0.961 . S
H1448 C1384 0.960 . S
H1449 C1384 0.959 . S
H1450 C1387 0.930 . S
H1451 C1391 0.931 . S
H1452 C1392 0.959 . S
H1453 C1392 0.961 . S
H1454 C1392 0.959 . S
H1455 C1393 0.960 . S
H1456 C1393 0.960 . S
H1457 C1393 0.960 . S
H1458 C1429 0.980 . S
H1459 C1395 0.930 . S
H1460 C1399 0.930 . S
H1461 C1400 0.961 . S
H1462 C1400 0.960 . S
H1463 C1400 0.958 . S
H1464 C1401 0.961 . S
H1465 C1401 0.960 . S
H1466 C1401 0.960 . S
H1467 C1403 0.980 . S
H1468 C1402 0.961 . S
H1469 C1402 0.961 . S
H1470 C1402 0.959 . S
H1471 C1405 0.932 . S
H1472 C1409 0.929 . S
H1473 C1410 0.961 . S
H1474 C1410 0.959 . S
H1475 C1410 0.959 . S
H1476 C1411 0.960 . S
H1477 C1411 0.962 . S
H1478 C1411 0.961 . S
H1479 C1413 0.929 . S
H1480 C1416 0.930 . S
H1481 C1417 0.929 . S
H1482 C1420 0.930 . S
H1483 C1423 0.929 . S
H1484 C1424 0.930 . S
H1485 C1428 0.962 . S
H1486 C1428 0.959 . S
H1487 C1428 0.958 . S
C1488 C1489 1.560 . S
C1488 H1549 0.959 . S
C1488 H1550 0.959 . S
C1488 H1551 0.960 . S
C1489 C1488 1.560 . S
C1489 O1544 1.426 . S
C1489 H1548 0.980 . S
C1490 C1491 1.407 1_565 S
C1490 C1495 1.418 . S
C1490 O1544 1.334 . S
C1491 C1490 1.407 1_545 S
C1491 C1492 1.360 . S
C1491 H1552 0.929 . S
C1492 C1491 1.360 . S
C1492 C1493 1.401 1_545 S
C1492 C1496 1.527 . S
C1493 C1492 1.401 1_565 S
C1493 C1494 1.405 . S
C1493 C1526 1.587 1_565 S
C1494 C1493 1.405 . S
C1494 C1495 1.332 . S
C1494 C1497 1.496 . S
C1495 C1490 1.418 . S
C1495 C1494 1.332 . S
C1495 H1553 0.929 . S
C1496 C1492 1.527 . S
C1496 H1554 0.959 . S
C1496 H1555 0.961 . S
C1496 H1556 0.961 . S
C1497 C1494 1.496 . S
C1497 H1557 0.960 . S
C1497 H1558 0.960 . S
C1497 H1559 0.961 . S
C1498 C1499 1.517 . S
C1498 H1561 0.908 1_545 S
C1498 H1562 0.960 . S
C1498 H1563 0.959 . S
C1499 C1498 1.517 . S
C1499 O1547 1.468 . S
C1499 H1560 0.980 1_545 S
C1500 C1501 1.349 . S
C1500 C1505 1.367 . S
C1500 O1547 1.408 . S
C1501 C1500 1.349 . S
C1501 C1502 1.407 1_545 S
C1501 H1564 0.930 1_545 S
C1502 C1501 1.407 1_565 S
C1502 C1503 1.449 1_565 S
C1502 C1506 1.535 . S
C1503 C1502 1.449 1_545 S
C1503 C1504 1.384 . S
C1503 C1528 1.553 . S
C1504 C1503 1.384 . S
C1504 C1505 1.364 . S
C1504 C1507 1.450 . S
C1505 C1500 1.367 . S
C1505 C1504 1.364 . S
C1505 H1565 0.931 . S
C1506 C1502 1.535 . S
C1506 H1566 0.959 . S
C1506 H1567 0.961 . S
C1506 H1568 0.959 . S
C1507 C1504 1.450 . S
C1507 H1569 0.960 . S
C1507 H1570 0.960 . S
C1507 H1571 0.960 . S
C1508 C1509 1.309 . S
C1508 C1513 1.304 . S
C1508 O1546 1.435 . S
C1509 C1508 1.309 . S
C1509 C1510 1.491 1_545 S
C1509 H1573 0.930 1_545 S
C1510 C1509 1.491 1_565 S
C1510 C1511 1.352 1_565 S
C1510 C1514 1.600 . S
C1511 C1510 1.352 1_545 S
C1511 C1512 1.373 . S
C1511 C1533 1.432 . S
C1512 C1511 1.373 . S
C1512 C1513 1.339 . S
C1512 C1515 1.530 . S
C1513 C1508 1.304 . S
C1513 C1512 1.339 . S
C1513 H1574 0.930 . S
C1514 C1510 1.600 . S
C1514 H1575 0.961 . S
C1514 H1576 0.960 . S
C1514 H1577 0.958 . S
C1515 C1512 1.530 . S
C1515 H1578 0.961 . S
C1515 H1579 0.960 . S
C1515 H1580 0.960 . S
C1516 C1517 1.530 1_565 S
C1516 H1582 0.961 . S
C1516 H1583 0.961 . S
C1516 H1584 0.959 . S
C1517 C1516 1.530 1_545 S
C1517 O1545 1.412 1_545 S
C1517 H1581 0.980 . S
C1518 C1519 1.288 . S
C1518 C1523 1.377 1_565 S
C1518 O1545 1.393 . S
C1519 C1518 1.288 . S
C1519 C1520 1.369 . S
C1519 H1585 0.932 . S
C1520 C1519 1.369 . S
C1520 C1521 1.398 1_565 S
C1520 C1524 1.527 . S
C1521 C1520 1.398 1_545 S
C1521 C1522 1.380 . S
C1521 C1535 1.497 . S
C1522 C1521 1.380 . S
C1522 C1523 1.383 . S
C1522 C1525 1.603 . S
C1523 C1518 1.377 1_545 S
C1523 C1522 1.383 . S
C1523 H1586 0.929 . S
C1524 C1520 1.527 . S
C1524 H1587 0.961 . S
C1524 H1588 0.959 . S
C1524 H1589 0.959 . S
C1525 C1522 1.603 . S
C1525 H1590 0.960 . S
C1525 H1591 0.962 . S
C1525 H1592 0.961 . S
C1526 C1493 1.587 1_545 S
C1526 C1527 1.360 . S
C1526 C1539 1.412 . S
C1527 C1526 1.360 . S
C1527 C1528 1.365 . S
C1527 H1593 0.929 . S
C1528 C1503 1.553 . S
C1528 C1527 1.365 . S
C1528 C1529 1.404 . S
C1529 C1528 1.404 . S
C1529 C1530 1.395 . S
C1529 C1540 1.451 . S
C1530 C1529 1.395 . S
C1530 C1531 1.322 . S
C1530 H1594 0.930 . S
C1531 C1530 1.322 . S
C1531 C1532 1.459 . S
C1531 H1595 0.929 . S
C1532 C1531 1.459 . S
C1532 C1533 1.445 . S
C1532 C1541 1.395 . S
C1533 C1511 1.432 . S
C1533 C1532 1.445 . S
C1533 C1534 1.370 . S
C1534 C1533 1.370 . S
C1534 C1535 1.438 . S
C1534 H1596 0.930 . S
C1535 C1521 1.497 . S
C1535 C1534 1.438 . S
C1535 C1536 1.360 . S
C1536 C1535 1.360 . S
C1536 C1537 1.401 . S
C1536 C1541 1.446 . S
C1537 C1536 1.401 . S
C1537 C1538 1.347 . S
C1537 H1597 0.929 . S
C1538 C1537 1.347 . S
C1538 C1539 1.455 . S
C1538 H1598 0.930 . S
C1539 C1526 1.412 . S
C1539 C1538 1.455 . S
C1539 C1540 1.331 . S
C1540 C1529 1.451 . S
C1540 C1539 1.331 . S
C1540 C1541 1.497 . S
C1541 C1532 1.395 . S
C1541 C1536 1.446 . S
C1541 C1540 1.497 . S
C1542 C1543 1.582 . S
C1542 H1599 0.962 . S
C1542 H1600 0.959 . S
C1542 H1601 0.958 . S
C1543 C1542 1.582 . S
C1543 O1546 1.458 . S
C1543 H1572 0.980 . S
O1544 C1489 1.426 . S
O1544 C1490 1.334 . S
O1545 C1517 1.412 1_565 S
O1545 C1518 1.393 . S
O1546 C1508 1.435 . S
O1546 C1543 1.458 . S
O1547 C1499 1.468 . S
O1547 C1500 1.408 . S
H1548 C1489 0.980 . S
H1549 C1488 0.959 . S
H1550 C1488 0.959 . S
H1551 C1488 0.960 . S
H1552 C1491 0.929 . S
H1553 C1495 0.929 . S
H1554 C1496 0.959 . S
H1555 C1496 0.961 . S
H1556 C1496 0.961 . S
H1557 C1497 0.960 . S
H1558 C1497 0.960 . S
H1559 C1497 0.961 . S
H1560 C1499 0.980 1_565 S
H1561 C1498 0.908 1_565 S
H1562 C1498 0.960 . S
H1563 C1498 0.959 . S
H1564 C1501 0.930 1_565 S
H1565 C1505 0.931 . S
H1566 C1506 0.959 . S
H1567 C1506 0.961 . S
H1568 C1506 0.959 . S
H1569 C1507 0.960 . S
H1570 C1507 0.960 . S
H1571 C1507 0.960 . S
H1572 C1543 0.980 . S
H1573 C1509 0.930 1_565 S
H1574 C1513 0.930 . S
H1575 C1514 0.961 . S
H1576 C1514 0.960 . S
H1577 C1514 0.958 . S
H1578 C1515 0.961 . S
H1579 C1515 0.960 . S
H1580 C1515 0.960 . S
H1581 C1517 0.980 . S
H1582 C1516 0.961 . S
H1583 C1516 0.961 . S
H1584 C1516 0.959 . S
H1585 C1519 0.932 . S
H1586 C1523 0.929 . S
H1587 C1524 0.961 . S
H1588 C1524 0.959 . S
H1589 C1524 0.959 . S
H1590 C1525 0.960 . S
H1591 C1525 0.962 . S
H1592 C1525 0.961 . S
H1593 C1527 0.929 . S
H1594 C1530 0.930 . S
H1595 C1531 0.929 . S
H1596 C1534 0.930 . S
H1597 C1537 0.929 . S
H1598 C1538 0.930 . S
H1599 C1542 0.962 . S
H1600 C1542 0.959 . S
H1601 C1542 0.958 . S
C1602 C1603 1.560 . S
C1602 H1663 0.959 . S
C1602 H1664 0.959 . S
C1602 H1665 0.960 . S
C1603 C1602 1.560 . S
C1603 O1658 1.426 . S
C1603 H1662 0.980 1_565 S
C1604 C1605 1.407 1_565 S
C1604 C1609 1.418 . S
C1604 O1658 1.334 . S
C1605 C1604 1.407 1_545 S
C1605 C1606 1.360 . S
C1605 H1666 0.929 . S
C1606 C1605 1.360 . S
C1606 C1607 1.401 . S
C1606 C1610 1.527 . S
C1607 C1606 1.401 . S
C1607 C1608 1.405 1_545 S
C1607 C1640 1.587 . S
C1608 C1607 1.405 1_565 S
C1608 C1609 1.332 . S
C1608 C1611 1.496 . S
C1609 C1604 1.418 . S
C1609 C1608 1.332 . S
C1609 H1667 0.929 . S
C1610 C1606 1.527 . S
C1610 H1668 0.959 . S
C1610 H1669 0.961 . S
C1610 H1670 0.961 . S
C1611 C1608 1.496 . S
C1611 H1671 0.960 . S
C1611 H1672 0.960 . S
C1611 H1673 0.961 . S
C1612 C1613 1.517 . S
C1612 H1675 0.961 . S
C1612 H1676 0.960 . S
C1612 H1677 0.959 . S
C1613 C1612 1.517 . S
C1613 O1661 1.468 . S
C1613 H1674 0.980 . S
C1614 C1615 1.349 . S
C1614 C1619 1.367 . S
C1614 O1661 1.408 . S
C1615 C1614 1.349 . S
C1615 C1616 1.407 . S
C1615 H1678 0.928 1_545 S
C1616 C1615 1.407 . S
C1616 C1617 1.449 . S
C1616 C1620 1.535 1_545 S
C1617 C1616 1.449 . S
C1617 C1618 1.384 . S
C1617 C1642 1.553 . S
C1618 C1617 1.384 . S
C1618 C1619 1.364 . S
C1618 C1621 1.450 . S
C1619 C1614 1.367 . S
C1619 C1618 1.364 . S
C1619 H1679 0.931 . S
C1620 C1616 1.535 1_565 S
C1620 H1680 0.959 . S
C1620 H1681 0.961 . S
C1620 H1682 0.959 . S
C1621 C1618 1.450 . S
C1621 H1683 0.960 . S
C1621 H1684 0.960 . S
C1621 H1685 0.960 . S
C1622 C1623 1.309 1_545 S
C1622 C1627 1.304 . S
C1622 O1660 1.435 . S
C1623 C1622 1.309 1_565 S
C1623 C1624 1.476 . S
C1623 H1687 0.930 . S
C1624 C1623 1.476 . S
C1624 C1625 1.400 1_565 S
C1624 C1628 1.567 . S
C1625 C1624 1.400 1_545 S
C1625 C1626 1.373 . S
C1625 C1647 1.432 . S
C1626 C1625 1.373 . S
C1626 C1627 1.339 . S
C1626 C1629 1.530 . S
C1627 C1622 1.304 . S
C1627 C1626 1.339 . S
C1627 H1688 0.930 . S
C1628 C1624 1.567 . S
C1628 H1689 0.961 . S
C1628 H1690 0.960 . S
C1628 H1691 0.958 . S
C1629 C1626 1.530 . S
C1629 H1692 0.961 . S
C1629 H1693 0.960 . S
C1629 H1694 0.960 . S
C1630 C1631 1.530 . S
C1630 H1696 0.961 . S
C1630 H1697 0.961 . S
C1630 H1698 0.959 . S
C1631 C1630 1.530 . S
C1631 O1659 1.412 . S
C1631 H1695 0.994 . S
C1632 C1633 1.288 . S
C1632 C1637 1.377 1_565 S
C1632 O1659 1.393 . S
C1633 C1632 1.288 . S
C1633 C1634 1.369 . S
C1633 H1699 0.932 . S
C1634 C1633 1.369 . S
C1634 C1635 1.398 . S
C1634 C1638 1.527 . S
C1635 C1634 1.398 . S
C1635 C1636 1.380 1_565 S
C1635 C1649 1.497 1_565 S
C1636 C1635 1.380 1_545 S
C1636 C1637 1.383 . S
C1636 C1639 1.603 . S
C1637 C1632 1.377 1_545 S
C1637 C1636 1.383 . S
C1637 H1700 0.929 . S
C1638 C1634 1.527 . S
C1638 H1701 0.961 . S
C1638 H1702 0.959 . S
C1638 H1703 0.959 . S
C1639 C1636 1.603 . S
C1639 H1704 0.960 . S
C1639 H1705 0.962 . S
C1639 H1706 0.961 . S
C1640 C1607 1.587 . S
C1640 C1641 1.360 . S
C1640 C1653 1.412 . S
C1641 C1640 1.360 . S
C1641 C1642 1.365 . S
C1641 H1707 0.929 . S
C1642 C1617 1.553 . S
C1642 C1641 1.365 . S
C1642 C1643 1.404 . S
C1643 C1642 1.404 . S
C1643 C1644 1.395 . S
C1643 C1654 1.451 . S
C1644 C1643 1.395 . S
C1644 C1645 1.322 . S
C1644 H1708 0.930 . S
C1645 C1644 1.322 . S
C1645 C1646 1.459 . S
C1645 H1709 0.929 . S
C1646 C1645 1.459 . S
C1646 C1647 1.445 . S
C1646 C1655 1.395 . S
C1647 C1625 1.432 . S
C1647 C1646 1.445 . S
C1647 C1648 1.370 . S
C1648 C1647 1.370 . S
C1648 C1649 1.438 . S
C1648 H1710 0.930 . S
C1649 C1635 1.497 1_545 S
C1649 C1648 1.438 . S
C1649 C1650 1.360 . S
C1650 C1649 1.360 . S
C1650 C1651 1.401 . S
C1650 C1655 1.446 . S
C1651 C1650 1.401 . S
C1651 C1652 1.347 . S
C1651 H1711 0.969 . S
C1652 C1651 1.347 . S
C1652 C1653 1.455 . S
C1652 H1712 0.930 . S
C1653 C1640 1.412 . S
C1653 C1652 1.455 . S
C1653 C1654 1.331 . S
C1654 C1643 1.451 . S
C1654 C1653 1.331 . S
C1654 C1655 1.497 . S
C1655 C1646 1.395 . S
C1655 C1650 1.446 . S
C1655 C1654 1.497 . S
C1656 C1657 1.622 . S
C1656 H1713 0.962 . S
C1656 H1714 0.959 . S
C1656 H1715 0.958 . S
C1657 C1656 1.622 . S
C1657 O1660 1.475 . S
C1657 H1686 0.980 1_545 S
O1658 C1603 1.426 . S
O1658 C1604 1.334 . S
O1659 C1631 1.412 . S
O1659 C1632 1.393 . S
O1660 C1622 1.435 . S
O1660 C1657 1.475 . S
O1661 C1613 1.468 . S
O1661 C1614 1.408 . S
H1662 C1603 0.980 1_545 S
H1663 C1602 0.959 . S
H1664 C1602 0.959 . S
H1665 C1602 0.960 . S
H1666 C1605 0.929 . S
H1667 C1609 0.929 . S
H1668 C1610 0.959 . S
H1669 C1610 0.961 . S
H1670 C1610 0.961 . S
H1671 C1611 0.960 . S
H1672 C1611 0.960 . S
H1673 C1611 0.961 . S
H1674 C1613 0.980 . S
H1675 C1612 0.961 . S
H1676 C1612 0.960 . S
H1677 C1612 0.959 . S
H1678 C1615 0.928 1_565 S
H1679 C1619 0.931 . S
H1680 C1620 0.959 . S
H1681 C1620 0.961 . S
H1682 C1620 0.959 . S
H1683 C1621 0.960 . S
H1684 C1621 0.960 . S
H1685 C1621 0.960 . S
H1686 C1657 0.980 1_565 S
H1687 C1623 0.930 . S
H1688 C1627 0.930 . S
H1689 C1628 0.961 . S
H1690 C1628 0.960 . S
H1691 C1628 0.958 . S
H1692 C1629 0.961 . S
H1693 C1629 0.960 . S
H1694 C1629 0.960 . S
H1695 C1631 0.994 . S
H1696 C1630 0.961 . S
H1697 C1630 0.961 . S
H1698 C1630 0.959 . S
H1699 C1633 0.932 . S
H1700 C1637 0.929 . S
H1701 C1638 0.961 . S
H1702 C1638 0.959 . S
H1703 C1638 0.959 . S
H1704 C1639 0.960 . S
H1705 C1639 0.962 . S
H1706 C1639 0.961 . S
H1707 C1641 0.929 . S
H1708 C1644 0.930 . S
H1709 C1645 0.929 . S
H1710 C1648 0.930 . S
H1711 C1651 0.969 . S
H1712 C1652 0.930 . S
H1713 C1656 0.962 . S
H1714 C1656 0.959 . S
H1715 C1656 0.958 . S
C1716 C1717 1.560 . S
C1716 H1777 0.959 . S
C1716 H1778 0.959 . S
C1716 H1779 0.960 . S
C1717 C1716 1.560 . S
C1717 O1772 1.426 . S
C1717 H1776 0.980 1_455 S
C1718 C1719 1.407 1_455 S
C1718 C1723 1.418 . S
C1718 O1772 1.334 . S
C1719 C1718 1.407 1_655 S
C1719 C1720 1.360 . S
C1719 H1780 0.929 . S
C1720 C1719 1.360 . S
C1720 C1721 1.401 . S
C1720 C1724 1.527 . S
C1721 C1720 1.401 . S
C1721 C1722 1.405 1_655 S
C1721 C1754 1.587 . S
C1722 C1721 1.405 1_455 S
C1722 C1723 1.332 . S
C1722 C1725 1.496 . S
C1723 C1718 1.418 . S
C1723 C1722 1.332 . S
C1723 H1781 0.929 . S
C1724 C1720 1.527 . S
C1724 H1782 0.959 . S
C1724 H1783 0.961 . S
C1724 H1784 0.961 . S
C1725 C1722 1.496 . S
C1725 H1785 0.960 . S
C1725 H1786 0.960 . S
C1725 H1787 0.961 . S
C1726 C1727 1.517 . S
C1726 H1789 0.961 . S
C1726 H1790 0.960 . S
C1726 H1791 0.959 . S
C1727 C1726 1.517 . S
C1727 O1775 1.468 . S
C1727 H1788 0.980 . S
C1728 C1729 1.349 . S
C1728 C1733 1.367 . S
C1728 O1775 1.408 . S
C1729 C1728 1.349 . S
C1729 C1730 1.407 . S
C1729 H1792 0.922 1_655 S
C1730 C1729 1.407 . S
C1730 C1731 1.449 . S
C1730 C1734 1.535 1_655 S
C1731 C1730 1.449 . S
C1731 C1732 1.384 . S
C1731 C1756 1.553 . S
C1732 C1731 1.384 . S
C1732 C1733 1.364 . S
C1732 C1735 1.450 . S
C1733 C1728 1.367 . S
C1733 C1732 1.364 . S
C1733 H1793 0.931 . S
C1734 C1730 1.535 1_455 S
C1734 H1794 0.959 . S
C1734 H1795 0.961 . S
C1734 H1796 0.959 . S
C1735 C1732 1.450 . S
C1735 H1797 0.960 . S
C1735 H1798 0.960 . S
C1735 H1799 0.960 . S
C1736 C1737 1.309 1_655 S
C1736 C1741 1.304 . S
C1736 O1774 1.435 . S
C1737 C1736 1.309 1_455 S
C1737 C1738 1.476 . S
C1737 H1801 0.930 . S
C1738 C1737 1.476 . S
C1738 C1739 1.400 1_455 S
C1738 C1742 1.567 . S
C1739 C1738 1.400 1_655 S
C1739 C1740 1.373 . S
C1739 C1761 1.432 . S
C1740 C1739 1.373 . S
C1740 C1741 1.339 . S
C1740 C1743 1.530 . S
C1741 C1736 1.304 . S
C1741 C1740 1.339 . S
C1741 H1802 0.930 . S
C1742 C1738 1.567 . S
C1742 H1803 0.961 . S
C1742 H1804 0.960 . S
C1742 H1805 0.958 . S
C1743 C1740 1.530 . S
C1743 H1806 0.961 . S
C1743 H1807 0.960 . S
C1743 H1808 0.960 . S
C1744 C1745 1.530 . S
C1744 H1810 0.961 . S
C1744 H1811 0.961 . S
C1744 H1812 0.959 . S
C1745 C1744 1.530 . S
C1745 O1773 1.412 . S
C1745 H1809 0.987 . S
C1746 C1747 1.288 . S
C1746 C1751 1.377 1_455 S
C1746 O1773 1.393 . S
C1747 C1746 1.288 . S
C1747 C1748 1.369 . S
C1747 H1813 0.932 . S
C1748 C1747 1.369 . S
C1748 C1749 1.398 . S
C1748 C1752 1.527 . S
C1749 C1748 1.398 . S
C1749 C1750 1.380 1_455 S
C1749 C1763 1.497 1_455 S
C1750 C1749 1.380 1_655 S
C1750 C1751 1.383 . S
C1750 C1753 1.603 . S
C1751 C1746 1.377 1_655 S
C1751 C1750 1.383 . S
C1751 H1814 0.929 . S
C1752 C1748 1.527 . S
C1752 H1815 0.961 . S
C1752 H1816 0.959 . S
C1752 H1817 0.959 . S
C1753 C1750 1.603 . S
C1753 H1818 0.960 . S
C1753 H1819 0.962 . S
C1753 H1820 0.961 . S
C1754 C1721 1.587 . S
C1754 C1755 1.360 . S
C1754 C1767 1.412 . S
C1755 C1754 1.360 . S
C1755 C1756 1.365 . S
C1755 H1821 0.929 . S
C1756 C1731 1.553 . S
C1756 C1755 1.365 . S
C1756 C1757 1.404 . S
C1757 C1756 1.404 . S
C1757 C1758 1.395 . S
C1757 C1768 1.451 . S
C1758 C1757 1.395 . S
C1758 C1759 1.322 . S
C1758 H1822 0.930 . S
C1759 C1758 1.322 . S
C1759 C1760 1.459 . S
C1759 H1823 0.929 . S
C1760 C1759 1.459 . S
C1760 C1761 1.445 . S
C1760 C1769 1.395 . S
C1761 C1739 1.432 . S
C1761 C1760 1.445 . S
C1761 C1762 1.370 . S
C1762 C1761 1.370 . S
C1762 C1763 1.438 . S
C1762 H1824 0.930 . S
C1763 C1749 1.497 1_655 S
C1763 C1762 1.438 . S
C1763 C1764 1.360 . S
C1764 C1763 1.360 . S
C1764 C1765 1.401 . S
C1764 C1769 1.446 . S
C1765 C1764 1.401 . S
C1765 C1766 1.347 . S
C1765 H1825 0.929 . S
C1766 C1765 1.347 . S
C1766 C1767 1.455 . S
C1766 H1826 0.930 . S
C1767 C1754 1.412 . S
C1767 C1766 1.455 . S
C1767 C1768 1.331 . S
C1768 C1757 1.451 . S
C1768 C1767 1.331 . S
C1768 C1769 1.497 . S
C1769 C1760 1.395 . S
C1769 C1764 1.446 . S
C1769 C1768 1.497 . S
C1770 C1771 1.581 1_655 S
C1770 H1827 0.993 . S
C1770 H1828 0.959 . S
C1770 H1829 0.958 . S
C1771 C1770 1.581 1_455 S
C1771 O1774 1.435 1_455 S
C1771 H1800 0.989 . S
O1772 C1717 1.426 . S
O1772 C1718 1.334 . S
O1773 C1745 1.412 . S
O1773 C1746 1.393 . S
O1774 C1736 1.435 . S
O1774 C1771 1.435 1_655 S
O1775 C1727 1.468 . S
O1775 C1728 1.408 . S
H1776 C1717 0.980 1_655 S
H1777 C1716 0.959 . S
H1778 C1716 0.959 . S
H1779 C1716 0.960 . S
H1780 C1719 0.929 . S
H1781 C1723 0.929 . S
H1782 C1724 0.959 . S
H1783 C1724 0.961 . S
H1784 C1724 0.961 . S
H1785 C1725 0.960 . S
H1786 C1725 0.960 . S
H1787 C1725 0.961 . S
H1788 C1727 0.980 . S
H1789 C1726 0.961 . S
H1790 C1726 0.960 . S
H1791 C1726 0.959 . S
H1792 C1729 0.922 1_455 S
H1793 C1733 0.931 . S
H1794 C1734 0.959 . S
H1795 C1734 0.961 . S
H1796 C1734 0.959 . S
H1797 C1735 0.960 . S
H1798 C1735 0.960 . S
H1799 C1735 0.960 . S
H1800 C1771 0.989 . S
H1801 C1737 0.930 . S
H1802 C1741 0.930 . S
H1803 C1742 0.961 . S
H1804 C1742 0.960 . S
H1805 C1742 0.958 . S
H1806 C1743 0.961 . S
H1807 C1743 0.960 . S
H1808 C1743 0.960 . S
H1809 C1745 0.987 . S
H1810 C1744 0.961 . S
H1811 C1744 0.961 . S
H1812 C1744 0.959 . S
H1813 C1747 0.932 . S
H1814 C1751 0.929 . S
H1815 C1752 0.961 . S
H1816 C1752 0.959 . S
H1817 C1752 0.959 . S
H1818 C1753 0.960 . S
H1819 C1753 0.962 . S
H1820 C1753 0.961 . S
H1821 C1755 0.929 . S
H1822 C1758 0.930 . S
H1823 C1759 0.929 . S
H1824 C1762 0.930 . S
H1825 C1765 0.929 . S
H1826 C1766 0.930 . S
H1827 C1770 0.993 . S
H1828 C1770 0.959 . S
H1829 C1770 0.958 . S
C1830 C1831 1.560 . S
C1830 H1891 0.959 . S
C1830 H1892 0.959 . S
C1830 H1893 0.960 . S
C1831 C1830 1.560 . S
C1831 O1886 1.426 . S
C1831 H1890 0.980 . S
C1832 C1833 1.407 . S
C1832 C1837 1.418 . S
C1832 O1886 1.334 . S
C1833 C1832 1.407 . S
C1833 C1834 1.360 . S
C1833 H1894 0.929 . S
C1834 C1833 1.360 . S
C1834 C1835 1.401 . S
C1834 C1838 1.527 . S
C1835 C1834 1.401 . S
C1835 C1836 1.405 . S
C1835 C1868 1.587 . S
C1836 C1835 1.405 . S
C1836 C1837 1.332 . S
C1836 C1839 1.496 . S
C1837 C1832 1.418 . S
C1837 C1836 1.332 . S
C1837 H1895 0.929 . S
C1838 C1834 1.527 . S
C1838 H1896 0.959 . S
C1838 H1897 0.961 . S
C1838 H1898 0.961 . S
C1839 C1836 1.496 . S
C1839 H1899 0.960 . S
C1839 H1900 0.960 . S
C1839 H1901 0.961 . S
C1840 C1841 1.517 . S
C1840 H1903 0.961 . S
C1840 H1904 0.960 . S
C1840 H1905 0.959 . S
C1841 C1840 1.517 . S
C1841 O1889 1.468 . S
C1841 H1902 0.980 . S
C1842 C1843 1.349 . S
C1842 C1847 1.367 . S
C1842 O1889 1.408 . S
C1843 C1842 1.349 . S
C1843 C1844 1.407 . S
C1843 H1906 0.930 . S
C1844 C1843 1.407 . S
C1844 C1845 1.449 . S
C1844 C1848 1.535 . S
C1845 C1844 1.449 . S
C1845 C1846 1.384 . S
C1845 C1870 1.553 . S
C1846 C1845 1.384 . S
C1846 C1847 1.364 . S
C1846 C1849 1.450 . S
C1847 C1842 1.367 . S
C1847 C1846 1.364 . S
C1847 H1907 0.931 . S
C1848 C1844 1.535 . S
C1848 H1908 0.959 . S
C1848 H1909 0.961 . S
C1848 H1910 0.959 . S
C1849 C1846 1.450 . S
C1849 H1911 0.960 . S
C1849 H1912 0.960 . S
C1849 H1913 0.960 . S
C1850 C1851 1.309 . S
C1850 C1855 1.304 . S
C1850 O1888 1.435 . S
C1851 C1850 1.309 . S
C1851 C1852 1.476 . S
C1851 H1915 0.930 . S
C1852 C1851 1.476 . S
C1852 C1853 1.400 . S
C1852 C1856 1.567 . S
C1853 C1852 1.400 . S
C1853 C1854 1.373 . S
C1853 C1875 1.432 . S
C1854 C1853 1.373 . S
C1854 C1855 1.339 . S
C1854 C1857 1.530 . S
C1855 C1850 1.304 . S
C1855 C1854 1.339 . S
C1855 H1916 0.930 . S
C1856 C1852 1.567 . S
C1856 H1917 0.961 . S
C1856 H1918 0.960 . S
C1856 H1919 0.958 . S
C1857 C1854 1.530 . S
C1857 H1920 0.961 . S
C1857 H1921 0.960 . S
C1857 H1922 0.960 . S
C1858 C1859 1.530 . S
C1858 H1924 0.961 . S
C1858 H1925 0.961 . S
C1858 H1926 0.959 . S
C1859 C1858 1.530 . S
C1859 O1887 1.412 . S
C1859 H1923 0.980 . S
C1860 C1861 1.288 . S
C1860 C1865 1.377 . S
C1860 O1887 1.393 . S
C1861 C1860 1.288 . S
C1861 C1862 1.369 . S
C1861 H1927 0.932 . S
C1862 C1861 1.369 . S
C1862 C1863 1.398 . S
C1862 C1866 1.527 . S
C1863 C1862 1.398 . S
C1863 C1864 1.380 . S
C1863 C1877 1.497 . S
C1864 C1863 1.380 . S
C1864 C1865 1.383 . S
C1864 C1867 1.603 . S
C1865 C1860 1.377 . S
C1865 C1864 1.383 . S
C1865 H1928 0.929 . S
C1866 C1862 1.527 . S
C1866 H1929 0.961 . S
C1866 H1930 0.959 . S
C1866 H1931 0.959 . S
C1867 C1864 1.603 . S
C1867 H1932 0.960 . S
C1867 H1933 0.962 . S
C1867 H1934 0.961 . S
C1868 C1835 1.587 . S
C1868 C1869 1.360 . S
C1868 C1881 1.412 . S
C1869 C1868 1.360 . S
C1869 C1870 1.365 . S
C1869 H1935 0.929 . S
C1870 C1845 1.553 . S
C1870 C1869 1.365 . S
C1870 C1871 1.404 . S
C1871 C1870 1.404 . S
C1871 C1872 1.395 . S
C1871 C1882 1.451 . S
C1872 C1871 1.395 . S
C1872 C1873 1.322 . S
C1872 H1936 0.930 . S
C1873 C1872 1.322 . S
C1873 C1874 1.459 . S
C1873 H1937 0.929 . S
C1874 C1873 1.459 . S
C1874 C1875 1.445 . S
C1874 C1883 1.395 . S
C1875 C1853 1.432 . S
C1875 C1874 1.445 . S
C1875 C1876 1.370 . S
C1876 C1875 1.370 . S
C1876 C1877 1.438 . S
C1876 H1938 0.930 . S
C1877 C1863 1.497 . S
C1877 C1876 1.438 . S
C1877 C1878 1.360 . S
C1878 C1877 1.360 . S
C1878 C1879 1.401 . S
C1878 C1883 1.446 . S
C1879 C1878 1.401 . S
C1879 C1880 1.347 . S
C1879 H1939 0.929 . S
C1880 C1879 1.347 . S
C1880 C1881 1.455 . S
C1880 H1940 0.930 . S
C1881 C1868 1.412 . S
C1881 C1880 1.455 . S
C1881 C1882 1.331 . S
C1882 C1871 1.451 . S
C1882 C1881 1.331 . S
C1882 C1883 1.497 . S
C1883 C1874 1.395 . S
C1883 C1878 1.446 . S
C1883 C1882 1.497 . S
C1884 C1885 1.582 . S
C1884 H1941 0.962 . S
C1884 H1942 0.959 . S
C1884 H1943 0.958 . S
C1885 C1884 1.582 . S
C1885 O1888 1.458 . S
C1885 H1914 0.980 . S
O1886 C1831 1.426 . S
O1886 C1832 1.334 . S
O1887 C1859 1.412 . S
O1887 C1860 1.393 . S
O1888 C1850 1.435 . S
O1888 C1885 1.458 . S
O1889 C1841 1.468 . S
O1889 C1842 1.408 . S
H1890 C1831 0.980 . S
H1891 C1830 0.959 . S
H1892 C1830 0.959 . S
H1893 C1830 0.960 . S
H1894 C1833 0.929 . S
H1895 C1837 0.929 . S
H1896 C1838 0.959 . S
H1897 C1838 0.961 . S
H1898 C1838 0.961 . S
H1899 C1839 0.960 . S
H1900 C1839 0.960 . S
H1901 C1839 0.961 . S
H1902 C1841 0.980 . S
H1903 C1840 0.961 . S
H1904 C1840 0.960 . S
H1905 C1840 0.959 . S
H1906 C1843 0.930 . S
H1907 C1847 0.931 . S
H1908 C1848 0.959 . S
H1909 C1848 0.961 . S
H1910 C1848 0.959 . S
H1911 C1849 0.960 . S
H1912 C1849 0.960 . S
H1913 C1849 0.960 . S
H1914 C1885 0.980 . S
H1915 C1851 0.930 . S
H1916 C1855 0.930 . S
H1917 C1856 0.961 . S
H1918 C1856 0.960 . S
H1919 C1856 0.958 . S
H1920 C1857 0.961 . S
H1921 C1857 0.960 . S
H1922 C1857 0.960 . S
H1923 C1859 0.980 . S
H1924 C1858 0.961 . S
H1925 C1858 0.961 . S
H1926 C1858 0.959 . S
H1927 C1861 0.932 . S
H1928 C1865 0.929 . S
H1929 C1866 0.961 . S
H1930 C1866 0.959 . S
H1931 C1866 0.959 . S
H1932 C1867 0.960 . S
H1933 C1867 0.962 . S
H1934 C1867 0.961 . S
H1935 C1869 0.929 . S
H1936 C1872 0.930 . S
H1937 C1873 0.929 . S
H1938 C1876 0.930 . S
H1939 C1879 0.929 . S
H1940 C1880 0.930 . S
H1941 C1884 0.962 . S
H1942 C1884 0.959 . S
H1943 C1884 0.958 . S
C1944 C1945 1.560 . S
C1944 H2005 0.959 . S
C1944 H2006 0.959 . S
C1944 H2007 0.960 . S
C1945 C1944 1.560 . S
C1945 O2000 1.426 . S
C1945 H2004 0.980 . S
C1946 C1947 1.407 . S
C1946 C1951 1.418 . S
C1946 O2000 1.334 . S
C1947 C1946 1.407 . S
C1947 C1948 1.360 . S
C1947 H2008 0.929 . S
C1948 C1947 1.360 . S
C1948 C1949 1.401 . S
C1948 C1952 1.527 . S
C1949 C1948 1.401 . S
C1949 C1950 1.405 . S
C1949 C1982 1.587 . S
C1950 C1949 1.405 . S
C1950 C1951 1.332 . S
C1950 C1953 1.496 . S
C1951 C1946 1.418 . S
C1951 C1950 1.332 . S
C1951 H2009 0.929 . S
C1952 C1948 1.527 . S
C1952 H2010 0.959 . S
C1952 H2011 0.961 . S
C1952 H2012 0.961 . S
C1953 C1950 1.496 . S
C1953 H2013 0.960 . S
C1953 H2014 0.960 . S
C1953 H2015 0.961 . S
C1954 C1955 1.517 . S
C1954 H2017 0.961 . S
C1954 H2018 0.960 . S
C1954 H2019 0.959 . S
C1955 C1954 1.517 . S
C1955 O2003 1.468 . S
C1955 H2016 0.980 . S
C1956 C1957 1.349 . S
C1956 C1961 1.367 . S
C1956 O2003 1.408 . S
C1957 C1956 1.349 . S
C1957 C1958 1.407 . S
C1957 H2020 0.930 . S
C1958 C1957 1.407 . S
C1958 C1959 1.449 . S
C1958 C1962 1.535 . S
C1959 C1958 1.449 . S
C1959 C1960 1.384 . S
C1959 C1984 1.553 . S
C1960 C1959 1.384 . S
C1960 C1961 1.364 . S
C1960 C1963 1.450 . S
C1961 C1956 1.367 . S
C1961 C1960 1.364 . S
C1961 H2021 0.931 . S
C1962 C1958 1.535 . S
C1962 H2022 0.959 . S
C1962 H2023 0.961 . S
C1962 H2024 0.959 . S
C1963 C1960 1.450 . S
C1963 H2025 0.960 . S
C1963 H2026 0.960 . S
C1963 H2027 0.960 . S
C1964 C1965 1.309 . S
C1964 C1969 1.304 . S
C1964 O2002 1.435 . S
C1965 C1964 1.309 . S
C1965 C1966 1.476 . S
C1965 H2029 0.930 . S
C1966 C1965 1.476 . S
C1966 C1967 1.400 . S
C1966 C1970 1.567 . S
C1967 C1966 1.400 . S
C1967 C1968 1.373 . S
C1967 C1989 1.432 . S
C1968 C1967 1.373 . S
C1968 C1969 1.339 . S
C1968 C1971 1.530 . S
C1969 C1964 1.304 . S
C1969 C1968 1.339 . S
C1969 H2030 0.930 . S
C1970 C1966 1.567 . S
C1970 H2031 0.961 . S
C1970 H2032 0.960 . S
C1970 H2033 0.958 . S
C1971 C1968 1.530 . S
C1971 H2034 0.961 . S
C1971 H2035 0.960 . S
C1971 H2036 0.960 . S
C1972 C1973 1.530 . S
C1972 H2038 0.961 . S
C1972 H2039 0.961 . S
C1972 H2040 0.959 . S
C1973 C1972 1.530 . S
C1973 O2001 1.412 . S
C1973 H2037 0.980 . S
C1974 C1975 1.288 . S
C1974 C1979 1.377 . S
C1974 O2001 1.393 . S
C1975 C1974 1.288 . S
C1975 C1976 1.369 . S
C1975 H2041 0.932 . S
C1976 C1975 1.369 . S
C1976 C1977 1.398 . S
C1976 C1980 1.527 . S
C1977 C1976 1.398 . S
C1977 C1978 1.380 . S
C1977 C1991 1.497 . S
C1978 C1977 1.380 . S
C1978 C1979 1.383 . S
C1978 C1981 1.603 . S
C1979 C1974 1.377 . S
C1979 C1978 1.383 . S
C1979 H2042 0.929 . S
C1980 C1976 1.527 . S
C1980 H2043 0.961 . S
C1980 H2044 0.959 . S
C1980 H2045 0.959 . S
C1981 C1978 1.603 . S
C1981 H2046 0.960 . S
C1981 H2047 0.962 . S
C1981 H2048 0.961 . S
C1982 C1949 1.587 . S
C1982 C1983 1.360 . S
C1982 C1995 1.412 . S
C1983 C1982 1.360 . S
C1983 C1984 1.365 . S
C1983 H2049 0.929 . S
C1984 C1959 1.553 . S
C1984 C1983 1.365 . S
C1984 C1985 1.404 . S
C1985 C1984 1.404 . S
C1985 C1986 1.395 . S
C1985 C1996 1.451 . S
C1986 C1985 1.395 . S
C1986 C1987 1.322 . S
C1986 H2050 0.930 . S
C1987 C1986 1.322 . S
C1987 C1988 1.459 . S
C1987 H2051 0.929 . S
C1988 C1987 1.459 . S
C1988 C1989 1.445 . S
C1988 C1997 1.395 . S
C1989 C1967 1.432 . S
C1989 C1988 1.445 . S
C1989 C1990 1.370 . S
C1990 C1989 1.370 . S
C1990 C1991 1.438 . S
C1990 H2052 0.930 . S
C1991 C1977 1.497 . S
C1991 C1990 1.438 . S
C1991 C1992 1.360 . S
C1992 C1991 1.360 . S
C1992 C1993 1.401 . S
C1992 C1997 1.446 . S
C1993 C1992 1.401 . S
C1993 C1994 1.347 . S
C1993 H2053 0.929 . S
C1994 C1993 1.347 . S
C1994 C1995 1.455 . S
C1994 H2054 0.930 . S
C1995 C1982 1.412 . S
C1995 C1994 1.455 . S
C1995 C1996 1.331 . S
C1996 C1985 1.451 . S
C1996 C1995 1.331 . S
C1996 C1997 1.497 . S
C1997 C1988 1.395 . S
C1997 C1992 1.446 . S
C1997 C1996 1.497 . S
C1998 C1999 1.582 . S
C1998 H2055 0.962 . S
C1998 H2056 0.959 . S
C1998 H2057 0.958 . S
C1999 C1998 1.582 . S
C1999 O2002 1.458 . S
C1999 H2028 0.980 . S
O2000 C1945 1.426 . S
O2000 C1946 1.334 . S
O2001 C1973 1.412 . S
O2001 C1974 1.393 . S
O2002 C1964 1.435 . S
O2002 C1999 1.458 . S
O2003 C1955 1.468 . S
O2003 C1956 1.408 . S
H2004 C1945 0.980 . S
H2005 C1944 0.959 . S
H2006 C1944 0.959 . S
H2007 C1944 0.960 . S
H2008 C1947 0.929 . S
H2009 C1951 0.929 . S
H2010 C1952 0.959 . S
H2011 C1952 0.961 . S
H2012 C1952 0.961 . S
H2013 C1953 0.960 . S
H2014 C1953 0.960 . S
H2015 C1953 0.961 . S
H2016 C1955 0.980 . S
H2017 C1954 0.961 . S
H2018 C1954 0.960 . S
H2019 C1954 0.959 . S
H2020 C1957 0.930 . S
H2021 C1961 0.931 . S
H2022 C1962 0.959 . S
H2023 C1962 0.961 . S
H2024 C1962 0.959 . S
H2025 C1963 0.960 . S
H2026 C1963 0.960 . S
H2027 C1963 0.960 . S
H2028 C1999 0.980 . S
H2029 C1965 0.930 . S
H2030 C1969 0.930 . S
H2031 C1970 0.961 . S
H2032 C1970 0.960 . S
H2033 C1970 0.958 . S
H2034 C1971 0.961 . S
H2035 C1971 0.960 . S
H2036 C1971 0.960 . S
H2037 C1973 0.980 . S
H2038 C1972 0.961 . S
H2039 C1972 0.961 . S
H2040 C1972 0.959 . S
H2041 C1975 0.932 . S
H2042 C1979 0.929 . S
H2043 C1980 0.961 . S
H2044 C1980 0.959 . S
H2045 C1980 0.959 . S
H2046 C1981 0.960 . S
H2047 C1981 0.962 . S
H2048 C1981 0.961 . S
H2049 C1983 0.929 . S
H2050 C1986 0.930 . S
H2051 C1987 0.929 . S
H2052 C1990 0.930 . S
H2053 C1993 0.929 . S
H2054 C1994 0.930 . S
H2055 C1998 0.962 . S
H2056 C1998 0.959 . S
H2057 C1998 0.958 . S
C2058 C2059 1.560 . S
C2058 H2119 0.959 . S
C2058 H2120 0.959 . S
C2058 H2121 0.960 . S
C2059 C2058 1.560 . S
C2059 O2114 1.426 . S
C2059 H2118 0.980 . S
C2060 C2061 1.407 . S
C2060 C2065 1.418 . S
C2060 O2114 1.334 . S
C2061 C2060 1.407 . S
C2061 C2062 1.360 . S
C2061 H2122 0.929 . S
C2062 C2061 1.360 . S
C2062 C2063 1.401 . S
C2062 C2066 1.527 . S
C2063 C2062 1.401 . S
C2063 C2064 1.405 . S
C2063 C2096 1.587 . S
C2064 C2063 1.405 . S
C2064 C2065 1.332 . S
C2064 C2067 1.496 . S
C2065 C2060 1.418 . S
C2065 C2064 1.332 . S
C2065 H2123 0.929 . S
C2066 C2062 1.527 . S
C2066 H2124 0.959 . S
C2066 H2125 0.961 . S
C2066 H2126 0.961 . S
C2067 C2064 1.496 . S
C2067 H2127 0.960 . S
C2067 H2128 0.960 . S
C2067 H2129 0.961 . S
C2068 C2069 1.517 . S
C2068 H2131 0.961 . S
C2068 H2132 0.960 . S
C2068 H2133 0.959 . S
C2069 C2068 1.517 . S
C2069 O2117 1.468 . S
C2069 H2130 0.980 . S
C2070 C2071 1.349 . S
C2070 C2075 1.367 . S
C2070 O2117 1.408 . S
C2071 C2070 1.349 . S
C2071 C2072 1.407 . S
C2071 H2134 0.930 . S
C2072 C2071 1.407 . S
C2072 C2073 1.449 . S
C2072 C2076 1.535 . S
C2073 C2072 1.449 . S
C2073 C2074 1.384 . S
C2073 C2098 1.553 . S
C2074 C2073 1.384 . S
C2074 C2075 1.364 . S
C2074 C2077 1.450 . S
C2075 C2070 1.367 . S
C2075 C2074 1.364 . S
C2075 H2135 0.931 . S
C2076 C2072 1.535 . S
C2076 H2136 0.959 . S
C2076 H2137 0.961 . S
C2076 H2138 0.959 . S
C2077 C2074 1.450 . S
C2077 H2139 0.960 . S
C2077 H2140 0.960 . S
C2077 H2141 0.960 . S
C2078 C2079 1.309 . S
C2078 C2083 1.304 . S
C2078 O2116 1.435 . S
C2079 C2078 1.309 . S
C2079 C2080 1.476 . S
C2079 H2143 0.930 . S
C2080 C2079 1.476 . S
C2080 C2081 1.400 . S
C2080 C2084 1.567 . S
C2081 C2080 1.400 . S
C2081 C2082 1.373 . S
C2081 C2103 1.432 . S
C2082 C2081 1.373 . S
C2082 C2083 1.339 . S
C2082 C2085 1.530 . S
C2083 C2078 1.304 . S
C2083 C2082 1.339 . S
C2083 H2144 0.930 . S
C2084 C2080 1.567 . S
C2084 H2145 0.961 . S
C2084 H2146 0.960 . S
C2084 H2147 0.958 . S
C2085 C2082 1.530 . S
C2085 H2148 0.961 . S
C2085 H2149 0.960 . S
C2085 H2150 0.960 . S
C2086 C2087 1.530 . S
C2086 H2152 0.961 . S
C2086 H2153 0.961 . S
C2086 H2154 0.959 . S
C2087 C2086 1.530 . S
C2087 O2115 1.412 . S
C2087 H2151 0.980 . S
C2088 C2089 1.288 . S
C2088 C2093 1.377 . S
C2088 O2115 1.393 . S
C2089 C2088 1.288 . S
C2089 C2090 1.369 . S
C2089 H2155 0.932 . S
C2090 C2089 1.369 . S
C2090 C2091 1.398 . S
C2090 C2094 1.527 . S
C2091 C2090 1.398 . S
C2091 C2092 1.380 . S
C2091 C2105 1.497 . S
C2092 C2091 1.380 . S
C2092 C2093 1.383 . S
C2092 C2095 1.603 . S
C2093 C2088 1.377 . S
C2093 C2092 1.383 . S
C2093 H2156 0.929 . S
C2094 C2090 1.527 . S
C2094 H2157 0.961 . S
C2094 H2158 0.959 . S
C2094 H2159 0.959 . S
C2095 C2092 1.603 . S
C2095 H2160 0.960 . S
C2095 H2161 0.962 . S
C2095 H2162 0.961 . S
C2096 C2063 1.587 . S
C2096 C2097 1.360 . S
C2096 C2109 1.412 . S
C2097 C2096 1.360 . S
C2097 C2098 1.365 . S
C2097 H2163 0.929 . S
C2098 C2073 1.553 . S
C2098 C2097 1.365 . S
C2098 C2099 1.404 . S
C2099 C2098 1.404 . S
C2099 C2100 1.395 . S
C2099 C2110 1.451 . S
C2100 C2099 1.395 . S
C2100 C2101 1.322 . S
C2100 H2164 0.930 . S
C2101 C2100 1.322 . S
C2101 C2102 1.459 . S
C2101 H2165 0.929 . S
C2102 C2101 1.459 . S
C2102 C2103 1.445 . S
C2102 C2111 1.395 . S
C2103 C2081 1.432 . S
C2103 C2102 1.445 . S
C2103 C2104 1.370 . S
C2104 C2103 1.370 . S
C2104 C2105 1.438 . S
C2104 H2166 0.930 . S
C2105 C2091 1.497 . S
C2105 C2104 1.438 . S
C2105 C2106 1.360 . S
C2106 C2105 1.360 . S
C2106 C2107 1.401 . S
C2106 C2111 1.446 . S
C2107 C2106 1.401 . S
C2107 C2108 1.347 . S
C2107 H2167 0.929 . S
C2108 C2107 1.347 . S
C2108 C2109 1.455 . S
C2108 H2168 0.930 . S
C2109 C2096 1.412 . S
C2109 C2108 1.455 . S
C2109 C2110 1.331 . S
C2110 C2099 1.451 . S
C2110 C2109 1.331 . S
C2110 C2111 1.497 . S
C2111 C2102 1.395 . S
C2111 C2106 1.446 . S
C2111 C2110 1.497 . S
C2112 C2113 1.582 . S
C2112 H2169 0.962 . S
C2112 H2170 0.959 . S
C2112 H2171 0.958 . S
C2113 C2112 1.582 . S
C2113 O2116 1.458 . S
C2113 H2142 0.980 . S
O2114 C2059 1.426 . S
O2114 C2060 1.334 . S
O2115 C2087 1.412 . S
O2115 C2088 1.393 . S
O2116 C2078 1.435 . S
O2116 C2113 1.458 . S
O2117 C2069 1.468 . S
O2117 C2070 1.408 . S
H2118 C2059 0.980 . S
H2119 C2058 0.959 . S
H2120 C2058 0.959 . S
H2121 C2058 0.960 . S
H2122 C2061 0.929 . S
H2123 C2065 0.929 . S
H2124 C2066 0.959 . S
H2125 C2066 0.961 . S
H2126 C2066 0.961 . S
H2127 C2067 0.960 . S
H2128 C2067 0.960 . S
H2129 C2067 0.961 . S
H2130 C2069 0.980 . S
H2131 C2068 0.961 . S
H2132 C2068 0.960 . S
H2133 C2068 0.959 . S
H2134 C2071 0.930 . S
H2135 C2075 0.931 . S
H2136 C2076 0.959 . S
H2137 C2076 0.961 . S
H2138 C2076 0.959 . S
H2139 C2077 0.960 . S
H2140 C2077 0.960 . S
H2141 C2077 0.960 . S
H2142 C2113 0.980 . S
H2143 C2079 0.930 . S
H2144 C2083 0.930 . S
H2145 C2084 0.961 . S
H2146 C2084 0.960 . S
H2147 C2084 0.958 . S
H2148 C2085 0.961 . S
H2149 C2085 0.960 . S
H2150 C2085 0.960 . S
H2151 C2087 0.980 . S
H2152 C2086 0.961 . S
H2153 C2086 0.961 . S
H2154 C2086 0.959 . S
H2155 C2089 0.932 . S
H2156 C2093 0.929 . S
H2157 C2094 0.961 . S
H2158 C2094 0.959 . S
H2159 C2094 0.959 . S
H2160 C2095 0.960 . S
H2161 C2095 0.962 . S
H2162 C2095 0.961 . S
H2163 C2097 0.929 . S
H2164 C2100 0.930 . S
H2165 C2101 0.929 . S
H2166 C2104 0.930 . S
H2167 C2107 0.929 . S
H2168 C2108 0.930 . S
H2169 C2112 0.962 . S
H2170 C2112 0.959 . S
H2171 C2112 0.958 . S
C2172 C2173 1.560 . S
C2172 H2233 0.959 . S
C2172 H2234 0.959 . S
C2172 H2235 0.960 . S
C2173 C2172 1.560 . S
C2173 O2228 1.426 . S
C2173 H2232 0.980 . S
C2174 C2175 1.407 . S
C2174 C2179 1.418 . S
C2174 O2228 1.334 . S
C2175 C2174 1.407 . S
C2175 C2176 1.360 . S
C2175 H2236 0.929 . S
C2176 C2175 1.360 . S
C2176 C2177 1.401 . S
C2176 C2180 1.527 . S
C2177 C2176 1.401 . S
C2177 C2178 1.405 . S
C2177 C2210 1.587 . S
C2178 C2177 1.405 . S
C2178 C2179 1.332 . S
C2178 C2181 1.496 . S
C2179 C2174 1.418 . S
C2179 C2178 1.332 . S
C2179 H2237 0.929 . S
C2180 C2176 1.527 . S
C2180 H2238 0.959 . S
C2180 H2239 0.961 . S
C2180 H2240 0.961 . S
C2181 C2178 1.496 . S
C2181 H2241 0.960 . S
C2181 H2242 0.960 . S
C2181 H2243 0.961 . S
C2182 C2183 1.517 . S
C2182 H2245 0.961 . S
C2182 H2246 0.960 . S
C2182 H2247 0.959 . S
C2183 C2182 1.517 . S
C2183 O2231 1.468 . S
C2183 H2244 0.980 . S
C2184 C2185 1.349 . S
C2184 C2189 1.367 . S
C2184 O2231 1.408 . S
C2185 C2184 1.349 . S
C2185 C2186 1.407 . S
C2185 H2248 0.930 . S
C2186 C2185 1.407 . S
C2186 C2187 1.449 . S
C2186 C2190 1.535 . S
C2187 C2186 1.449 . S
C2187 C2188 1.384 . S
C2187 C2212 1.553 . S
C2188 C2187 1.384 . S
C2188 C2189 1.364 . S
C2188 C2191 1.450 . S
C2189 C2184 1.367 . S
C2189 C2188 1.364 . S
C2189 H2249 0.931 . S
C2190 C2186 1.535 . S
C2190 H2250 0.959 . S
C2190 H2251 0.961 . S
C2190 H2252 0.959 . S
C2191 C2188 1.450 . S
C2191 H2253 0.960 . S
C2191 H2254 0.960 . S
C2191 H2255 0.960 . S
C2192 C2193 1.309 . S
C2192 C2197 1.304 . S
C2192 O2230 1.435 . S
C2193 C2192 1.309 . S
C2193 C2194 1.476 . S
C2193 H2257 0.930 . S
C2194 C2193 1.476 . S
C2194 C2195 1.400 . S
C2194 C2198 1.567 . S
C2195 C2194 1.400 . S
C2195 C2196 1.373 . S
C2195 C2217 1.432 . S
C2196 C2195 1.373 . S
C2196 C2197 1.339 . S
C2196 C2199 1.530 . S
C2197 C2192 1.304 . S
C2197 C2196 1.339 . S
C2197 H2258 0.930 . S
C2198 C2194 1.567 . S
C2198 H2259 0.961 . S
C2198 H2260 0.960 . S
C2198 H2261 0.958 . S
C2199 C2196 1.530 . S
C2199 H2262 0.961 . S
C2199 H2263 0.960 . S
C2199 H2264 0.960 . S
C2200 C2201 1.530 . S
C2200 H2266 0.961 . S
C2200 H2267 0.961 . S
C2200 H2268 0.959 . S
C2201 C2200 1.530 . S
C2201 O2229 1.412 . S
C2201 H2265 0.980 . S
C2202 C2203 1.288 . S
C2202 C2207 1.377 . S
C2202 O2229 1.393 . S
C2203 C2202 1.288 . S
C2203 C2204 1.369 . S
C2203 H2269 0.932 . S
C2204 C2203 1.369 . S
C2204 C2205 1.398 . S
C2204 C2208 1.527 . S
C2205 C2204 1.398 . S
C2205 C2206 1.380 . S
C2205 C2219 1.497 . S
C2206 C2205 1.380 . S
C2206 C2207 1.383 . S
C2206 C2209 1.603 . S
C2207 C2202 1.377 . S
C2207 C2206 1.383 . S
C2207 H2270 0.929 . S
C2208 C2204 1.527 . S
C2208 H2271 0.961 . S
C2208 H2272 0.959 . S
C2208 H2273 0.959 . S
C2209 C2206 1.603 . S
C2209 H2274 0.960 . S
C2209 H2275 0.962 . S
C2209 H2276 0.961 . S
C2210 C2177 1.587 . S
C2210 C2211 1.360 . S
C2210 C2223 1.412 . S
C2211 C2210 1.360 . S
C2211 C2212 1.365 . S
C2211 H2277 0.929 . S
C2212 C2187 1.553 . S
C2212 C2211 1.365 . S
C2212 C2213 1.404 . S
C2213 C2212 1.404 . S
C2213 C2214 1.395 . S
C2213 C2224 1.451 . S
C2214 C2213 1.395 . S
C2214 C2215 1.322 . S
C2214 H2278 0.930 . S
C2215 C2214 1.322 . S
C2215 C2216 1.459 . S
C2215 H2279 0.929 . S
C2216 C2215 1.459 . S
C2216 C2217 1.445 . S
C2216 C2225 1.395 . S
C2217 C2195 1.432 . S
C2217 C2216 1.445 . S
C2217 C2218 1.370 . S
C2218 C2217 1.370 . S
C2218 C2219 1.438 . S
C2218 H2280 0.930 . S
C2219 C2205 1.497 . S
C2219 C2218 1.438 . S
C2219 C2220 1.360 . S
C2220 C2219 1.360 . S
C2220 C2221 1.401 . S
C2220 C2225 1.446 . S
C2221 C2220 1.401 . S
C2221 C2222 1.347 . S
C2221 H2281 0.929 . S
C2222 C2221 1.347 . S
C2222 C2223 1.455 . S
C2222 H2282 0.930 . S
C2223 C2210 1.412 . S
C2223 C2222 1.455 . S
C2223 C2224 1.331 . S
C2224 C2213 1.451 . S
C2224 C2223 1.331 . S
C2224 C2225 1.497 . S
C2225 C2216 1.395 . S
C2225 C2220 1.446 . S
C2225 C2224 1.497 . S
C2226 C2227 1.582 . S
C2226 H2283 0.962 . S
C2226 H2284 0.959 . S
C2226 H2285 0.958 . S
C2227 C2226 1.582 . S
C2227 O2230 1.458 . S
C2227 H2256 0.980 . S
O2228 C2173 1.426 . S
O2228 C2174 1.334 . S
O2229 C2201 1.412 . S
O2229 C2202 1.393 . S
O2230 C2192 1.435 . S
O2230 C2227 1.458 . S
O2231 C2183 1.468 . S
O2231 C2184 1.408 . S
H2232 C2173 0.980 . S
H2233 C2172 0.959 . S
H2234 C2172 0.959 . S
H2235 C2172 0.960 . S
H2236 C2175 0.929 . S
H2237 C2179 0.929 . S
H2238 C2180 0.959 . S
H2239 C2180 0.961 . S
H2240 C2180 0.961 . S
H2241 C2181 0.960 . S
H2242 C2181 0.960 . S
H2243 C2181 0.961 . S
H2244 C2183 0.980 . S
H2245 C2182 0.961 . S
H2246 C2182 0.960 . S
H2247 C2182 0.959 . S
H2248 C2185 0.930 . S
H2249 C2189 0.931 . S
H2250 C2190 0.959 . S
H2251 C2190 0.961 . S
H2252 C2190 0.959 . S
H2253 C2191 0.960 . S
H2254 C2191 0.960 . S
H2255 C2191 0.960 . S
H2256 C2227 0.980 . S
H2257 C2193 0.930 . S
H2258 C2197 0.930 . S
H2259 C2198 0.961 . S
H2260 C2198 0.960 . S
H2261 C2198 0.958 . S
H2262 C2199 0.961 . S
H2263 C2199 0.960 . S
H2264 C2199 0.960 . S
H2265 C2201 0.980 . S
H2266 C2200 0.961 . S
H2267 C2200 0.961 . S
H2268 C2200 0.959 . S
H2269 C2203 0.932 . S
H2270 C2207 0.929 . S
H2271 C2208 0.961 . S
H2272 C2208 0.959 . S
H2273 C2208 0.959 . S
H2274 C2209 0.960 . S
H2275 C2209 0.962 . S
H2276 C2209 0.961 . S
H2277 C2211 0.929 . S
H2278 C2214 0.930 . S
H2279 C2215 0.929 . S
H2280 C2218 0.930 . S
H2281 C2221 0.929 . S
H2282 C2222 0.930 . S
H2283 C2226 0.962 . S
H2284 C2226 0.959 . S
H2285 C2226 0.958 . S
H2286 C2294 0.950 . S
H2287 C2299 0.950 . S
H2288 C2296 0.950 . S
H2289 C2298 0.950 . S
H2290 C2300 0.950 . S
H2291 C2302 0.950 . S
H2292 C2304 0.950 . S
H2293 C2305 0.950 . S
C2294 H2286 0.950 . S
C2294 C2295 1.386 . S
C2294 C2296 1.391 . S
C2295 C2294 1.386 . S
C2295 C2299 1.393 1_655 S
C2296 H2288 0.950 . S
C2296 C2294 1.391 . S
C2296 C2297 1.400 . S
C2297 C2296 1.400 . S
C2297 C2298 1.398 1_655 S
C2297 C2303 1.491 . S
C2298 H2289 0.950 . S
C2298 C2297 1.398 1_455 S
C2298 C2299 1.391 . S
C2299 H2287 0.950 . S
C2299 C2295 1.393 1_455 S
C2299 C2298 1.391 . S
C2300 H2290 0.950 . S
C2300 C2301 1.386 1_455 S
C2300 C2302 1.391 . S
C2301 C2300 1.386 1_655 S
C2301 C2305 1.393 . S
C2302 H2291 0.950 . S
C2302 C2300 1.391 . S
C2302 C2303 1.400 1_455 S
C2303 C2297 1.491 . S
C2303 C2302 1.400 1_655 S
C2303 C2304 1.398 . S
C2304 H2292 0.950 . S
C2304 C2303 1.398 . S
C2304 C2305 1.391 . S
C2305 H2293 0.950 . S
C2305 C2301 1.393 . S
C2305 C2304 1.391 . S
H2306 C2314 0.950 . S
H2307 C2319 0.950 . S
H2308 C2316 0.950 . S
H2309 C2318 0.950 . S
H2310 C2320 0.950 . S
H2311 C2322 0.950 . S
H2312 C2324 0.950 . S
H2313 C2325 0.950 . S
C2314 H2306 0.950 . S
C2314 C2315 1.386 . S
C2314 C2316 1.391 . S
C2315 C2314 1.386 . S
C2315 C2319 1.393 . S
C2316 H2308 0.950 . S
C2316 C2314 1.391 . S
C2316 C2317 1.400 . S
C2317 C2316 1.400 . S
C2317 C2318 1.398 . S
C2317 C2323 1.491 . S
C2318 H2309 0.950 . S
C2318 C2317 1.398 . S
C2318 C2319 1.391 . S
C2319 H2307 0.950 . S
C2319 C2315 1.393 . S
C2319 C2318 1.391 . S
C2320 H2310 0.950 . S
C2320 C2321 1.386 . S
C2320 C2322 1.391 . S
C2321 C2320 1.386 . S
C2321 C2325 1.393 . S
C2322 H2311 0.950 . S
C2322 C2320 1.391 . S
C2322 C2323 1.400 . S
C2323 C2317 1.491 . S
C2323 C2322 1.400 . S
C2323 C2324 1.398 . S
C2324 H2312 0.950 . S
C2324 C2323 1.398 . S
C2324 C2325 1.391 . S
C2325 H2313 0.950 . S
C2325 C2321 1.393 . S
C2325 C2324 1.391 . S
H2326 C2334 0.950 . S
H2327 C2339 0.950 . S
H2328 C2336 0.950 . S
H2329 C2338 0.950 . S
H2330 C2340 0.950 . S
H2331 C2342 0.950 . S
H2332 C2344 0.954 1_565 S
H2333 C2345 0.938 1_565 S
C2334 H2326 0.950 . S
C2334 C2335 1.386 1_565 S
C2334 C2336 1.391 . S
C2335 C2334 1.386 1_545 S
C2335 C2339 1.393 . S
C2336 H2328 0.950 . S
C2336 C2334 1.391 . S
C2336 C2337 1.400 1_565 S
C2337 C2336 1.400 1_545 S
C2337 C2338 1.398 . S
C2337 C2343 1.491 . S
C2338 H2329 0.950 . S
C2338 C2337 1.398 . S
C2338 C2339 1.391 . S
C2339 H2327 0.950 . S
C2339 C2335 1.393 . S
C2339 C2338 1.391 . S
C2340 H2330 0.950 . S
C2340 C2341 1.386 . S
C2340 C2342 1.391 . S
C2341 C2340 1.386 . S
C2341 C2345 1.390 . S
C2342 H2331 0.950 . S
C2342 C2340 1.391 . S
C2342 C2343 1.400 . S
C2343 C2337 1.491 . S
C2343 C2342 1.400 . S
C2343 C2344 1.407 . S
C2344 H2332 0.954 1_545 S
C2344 C2343 1.407 . S
C2344 C2345 1.396 . S
C2345 H2333 0.938 1_545 S
C2345 C2341 1.390 . S
C2345 C2344 1.396 . S
H2346 C2354 0.950 . S
H2347 C2359 0.950 . S
H2348 C2356 0.950 . S
H2349 C2358 0.950 . S
H2350 C2360 0.950 . S
H2351 C2362 0.950 . S
H2352 C2364 0.950 . S
H2353 C2365 0.950 . S
C2354 H2346 0.950 . S
C2354 C2355 1.386 . S
C2354 C2356 1.391 . S
C2355 C2354 1.386 . S
C2355 C2359 1.393 1_565 S
C2356 H2348 0.950 . S
C2356 C2354 1.391 . S
C2356 C2357 1.400 . S
C2357 C2356 1.400 . S
C2357 C2358 1.398 1_565 S
C2357 C2363 1.491 . S
C2358 H2349 0.950 . S
C2358 C2357 1.398 1_545 S
C2358 C2359 1.391 . S
C2359 H2347 0.950 . S
C2359 C2355 1.393 1_545 S
C2359 C2358 1.391 . S
C2360 H2350 0.950 . S
C2360 C2361 1.386 1_545 S
C2360 C2362 1.391 . S
C2361 C2360 1.386 1_565 S
C2361 C2365 1.393 . S
C2362 H2351 0.950 . S
C2362 C2360 1.391 . S
C2362 C2363 1.400 1_545 S
C2363 C2357 1.491 . S
C2363 C2362 1.400 1_565 S
C2363 C2364 1.398 . S
C2364 H2352 0.950 . S
C2364 C2363 1.398 . S
C2364 C2365 1.391 . S
C2365 H2353 0.950 . S
C2365 C2361 1.393 . S
C2365 C2364 1.391 . S
H2366 C2374 0.918 1_655 S
H2367 C2379 0.950 . S
H2368 C2376 0.950 1_655 S
H2369 C2378 0.950 . S
H2370 C2380 0.950 . S
H2371 C2382 0.950 . S
H2372 C2384 0.929 1_655 S
H2373 C2385 0.950 1_655 S
C2374 H2366 0.918 1_455 S
C2374 C2375 1.443 . S
C2374 C2376 1.370 . S
C2375 C2374 1.443 . S
C2375 C2379 1.393 . S
C2376 H2368 0.950 1_455 S
C2376 C2374 1.370 . S
C2376 C2377 1.400 . S
C2377 C2376 1.400 . S
C2377 C2378 1.398 . S
C2377 C2383 1.491 . S
C2378 H2369 0.950 . S
C2378 C2377 1.398 . S
C2378 C2379 1.391 . S
C2379 H2367 0.950 . S
C2379 C2375 1.393 . S
C2379 C2378 1.391 . S
C2380 H2370 0.950 . S
C2380 C2381 1.386 . S
C2380 C2382 1.391 . S
C2381 C2380 1.386 . S
C2381 C2385 1.393 . S
C2382 H2371 0.950 . S
C2382 C2380 1.391 . S
C2382 C2383 1.400 . S
C2383 C2377 1.491 . S
C2383 C2382 1.400 . S
C2383 C2384 1.434 . S
C2384 H2372 0.929 1_455 S
C2384 C2383 1.434 . S
C2384 C2385 1.378 . S
C2385 H2373 0.950 1_455 S
C2385 C2381 1.393 . S
C2385 C2384 1.378 . S
H2386 C2394 0.950 . S
H2387 C2399 0.950 . S
H2388 C2396 0.950 . S
H2389 C2398 0.950 . S
H2390 C2400 0.950 . S
H2391 C2402 0.950 . S
H2392 C2404 0.950 . S
H2393 C2405 0.950 . S
C2394 H2386 0.950 . S
C2394 C2395 1.386 . S
C2394 C2396 1.391 . S
C2395 C2394 1.386 . S
C2395 C2399 1.393 . S
C2396 H2388 0.950 . S
C2396 C2394 1.391 . S
C2396 C2397 1.400 . S
C2397 C2396 1.400 . S
C2397 C2398 1.398 . S
C2397 C2403 1.491 . S
C2398 H2389 0.950 . S
C2398 C2397 1.398 . S
C2398 C2399 1.391 . S
C2399 H2387 0.950 . S
C2399 C2395 1.393 . S
C2399 C2398 1.391 . S
C2400 H2390 0.950 . S
C2400 C2401 1.386 . S
C2400 C2402 1.391 . S
C2401 C2400 1.386 . S
C2401 C2405 1.393 . S
C2402 H2391 0.950 . S
C2402 C2400 1.391 . S
C2402 C2403 1.400 . S
C2403 C2397 1.491 . S
C2403 C2402 1.400 . S
C2403 C2404 1.398 . S
C2404 H2392 0.950 . S
C2404 C2403 1.398 . S
C2404 C2405 1.391 . S
C2405 H2393 0.950 . S
C2405 C2401 1.393 . S
C2405 C2404 1.391 . S
H2406 C2414 0.950 . S
H2407 C2419 0.950 . S
H2408 C2416 0.950 . S
H2409 C2418 0.950 . S
H2410 C2420 0.950 . S
H2411 C2422 0.950 . S
H2412 C2424 0.950 . S
H2413 C2425 0.950 . S
C2414 H2406 0.950 . S
C2414 C2415 1.386 1_655 S
C2414 C2416 1.391 . S
C2415 C2414 1.386 1_455 S
C2415 C2419 1.393 . S
C2416 H2408 0.950 . S
C2416 C2414 1.391 . S
C2416 C2417 1.400 1_655 S
C2417 C2416 1.400 1_455 S
C2417 C2418 1.398 . S
C2417 C2423 1.491 . S
C2418 H2409 0.950 . S
C2418 C2417 1.398 . S
C2418 C2419 1.391 . S
C2419 H2407 0.950 . S
C2419 C2415 1.393 . S
C2419 C2418 1.391 . S
C2420 H2410 0.950 . S
C2420 C2421 1.386 . S
C2420 C2422 1.391 . S
C2421 C2420 1.386 . S
C2421 C2425 1.393 1_455 S
C2422 H2411 0.950 . S
C2422 C2420 1.391 . S
C2422 C2423 1.400 . S
C2423 C2417 1.491 . S
C2423 C2422 1.400 . S
C2423 C2424 1.398 1_455 S
C2424 H2412 0.950 . S
C2424 C2423 1.398 1_655 S
C2424 C2425 1.391 . S
C2425 H2413 0.950 . S
C2425 C2421 1.393 1_655 S
C2425 C2424 1.391 . S
H2426 C2434 0.950 . S
H2427 C2439 0.950 . S
H2428 C2436 0.950 . S
H2429 C2438 0.950 . S
H2430 C2440 0.950 . S
H2431 C2442 0.950 . S
H2432 C2444 0.950 . S
H2433 C2445 0.950 . S
C2434 H2426 0.950 . S
C2434 C2435 1.386 . S
C2434 C2436 1.391 . S
C2435 C2434 1.386 . S
C2435 C2439 1.393 . S
C2436 H2428 0.950 . S
C2436 C2434 1.391 . S
C2436 C2437 1.400 . S
C2437 C2436 1.400 . S
C2437 C2438 1.398 . S
C2437 C2443 1.491 . S
C2438 H2429 0.950 . S
C2438 C2437 1.398 . S
C2438 C2439 1.391 . S
C2439 H2427 0.950 . S
C2439 C2435 1.393 . S
C2439 C2438 1.391 . S
C2440 H2430 0.950 . S
C2440 C2441 1.386 . S
C2440 C2442 1.391 . S
C2441 C2440 1.386 . S
C2441 C2445 1.393 . S
C2442 H2431 0.950 . S
C2442 C2440 1.391 . S
C2442 C2443 1.400 . S
C2443 C2437 1.491 . S
C2443 C2442 1.400 . S
C2443 C2444 1.398 . S
C2444 H2432 0.950 . S
C2444 C2443 1.398 . S
C2444 C2445 1.391 . S
C2445 H2433 0.950 . S
C2445 C2441 1.393 . S
C2445 C2444 1.391 . S
H2446 C2454 0.950 . S
H2447 C2459 0.950 . S
H2448 C2456 0.950 . S
H2449 C2458 0.950 . S
H2450 C2460 0.950 . S
H2451 C2462 0.950 . S
H2452 C2464 0.950 . S
H2453 C2465 0.950 . S
C2454 H2446 0.950 . S
C2454 C2455 1.386 . S
C2454 C2456 1.391 . S
C2455 C2454 1.386 . S
C2455 C2459 1.393 1_565 S
C2456 H2448 0.950 . S
C2456 C2454 1.391 . S
C2456 C2457 1.400 . S
C2457 C2456 1.400 . S
C2457 C2458 1.398 1_565 S
C2457 C2463 1.491 . S
C2458 H2449 0.950 . S
C2458 C2457 1.398 1_545 S
C2458 C2459 1.391 . S
C2459 H2447 0.950 . S
C2459 C2455 1.393 1_545 S
C2459 C2458 1.391 . S
C2460 H2450 0.950 . S
C2460 C2461 1.338 1_545 S
C2460 C2462 1.391 . S
C2461 C2460 1.338 1_565 S
C2461 C2465 1.472 . S
C2462 H2451 0.950 . S
C2462 C2460 1.391 . S
C2462 C2463 1.400 1_545 S
C2463 C2457 1.491 . S
C2463 C2462 1.400 1_565 S
C2463 C2464 1.398 . S
C2464 H2452 0.950 . S
C2464 C2463 1.398 . S
C2464 C2465 1.391 . S
C2465 H2453 0.950 . S
C2465 C2461 1.472 . S
C2465 C2464 1.391 . S
H2466 C2474 0.950 . S
H2467 C2479 0.950 . S
H2468 C2476 0.950 . S
H2469 C2478 0.950 . S
H2470 C2480 0.950 . S
H2471 C2482 0.950 . S
H2472 C2484 0.950 . S
H2473 C2485 0.950 . S
C2474 H2466 0.950 . S
C2474 C2475 1.386 1_565 S
C2474 C2476 1.391 . S
C2475 C2474 1.386 1_545 S
C2475 C2479 1.393 . S
C2476 H2468 0.950 . S
C2476 C2474 1.391 . S
C2476 C2477 1.400 1_565 S
C2477 C2476 1.400 1_545 S
C2477 C2478 1.398 . S
C2477 C2483 1.491 . S
C2478 H2469 0.950 . S
C2478 C2477 1.398 . S
C2478 C2479 1.391 . S
C2479 H2467 0.950 . S
C2479 C2475 1.393 . S
C2479 C2478 1.391 . S
C2480 H2470 0.950 . S
C2480 C2481 1.386 . S
C2480 C2482 1.391 . S
C2481 C2480 1.386 . S
C2481 C2485 1.393 1_545 S
C2482 H2471 0.950 . S
C2482 C2480 1.391 . S
C2482 C2483 1.400 . S
C2483 C2477 1.491 . S
C2483 C2482 1.400 . S
C2483 C2484 1.398 1_545 S
C2484 H2472 0.950 . S
C2484 C2483 1.398 1_565 S
C2484 C2485 1.391 . S
C2485 H2473 0.950 . S
C2485 C2481 1.393 1_565 S
C2485 C2484 1.391 . S
H2486 C2494 0.950 . S
H2487 C2499 0.950 . S
H2488 C2496 0.950 . S
H2489 C2498 0.950 . S
H2490 C2500 0.950 . S
H2491 C2502 0.950 . S
H2492 C2504 0.950 . S
H2493 C2505 0.950 . S
C2494 H2486 0.950 . S
C2494 C2495 1.386 1_455 S
C2494 C2496 1.391 . S
C2495 C2494 1.386 1_655 S
C2495 C2499 1.393 . S
C2496 H2488 0.950 . S
C2496 C2494 1.391 . S
C2496 C2497 1.400 1_455 S
C2497 C2496 1.400 1_655 S
C2497 C2498 1.398 . S
C2497 C2503 1.491 . S
C2498 H2489 0.950 . S
C2498 C2497 1.398 . S
C2498 C2499 1.391 . S
C2499 H2487 0.950 . S
C2499 C2495 1.393 . S
C2499 C2498 1.391 . S
C2500 H2490 0.950 . S
C2500 C2501 1.386 . S
C2500 C2502 1.391 . S
C2501 C2500 1.386 . S
C2501 C2505 1.393 1_655 S
C2502 H2491 0.950 . S
C2502 C2500 1.391 . S
C2502 C2503 1.400 . S
C2503 C2497 1.491 . S
C2503 C2502 1.400 . S
C2503 C2504 1.398 1_655 S
C2504 H2492 0.950 . S
C2504 C2503 1.398 1_455 S
C2504 C2505 1.391 . S
C2505 H2493 0.950 . S
C2505 C2501 1.393 1_455 S
C2505 C2504 1.391 . S
H2506 C2514 0.950 . S
H2507 C2519 0.950 . S
H2508 C2516 0.950 . S
H2509 C2518 0.950 . S
H2510 C2520 0.950 . S
H2511 C2522 0.950 . S
H2512 C2524 0.950 . S
H2513 C2525 0.950 . S
C2514 H2506 0.950 . S
C2514 C2515 1.386 . S
C2514 C2516 1.391 . S
C2515 C2514 1.386 . S
C2515 C2519 1.393 . S
C2516 H2508 0.950 . S
C2516 C2514 1.391 . S
C2516 C2517 1.400 . S
C2517 C2516 1.400 . S
C2517 C2518 1.398 . S
C2517 C2523 1.491 . S
C2518 H2509 0.950 . S
C2518 C2517 1.398 . S
C2518 C2519 1.391 . S
C2519 H2507 0.950 . S
C2519 C2515 1.393 . S
C2519 C2518 1.391 . S
C2520 H2510 0.950 . S
C2520 C2521 1.386 . S
C2520 C2522 1.391 . S
C2521 C2520 1.386 . S
C2521 C2525 1.393 . S
C2522 H2511 0.950 . S
C2522 C2520 1.391 . S
C2522 C2523 1.400 . S
C2523 C2517 1.491 . S
C2523 C2522 1.400 . S
C2523 C2524 1.398 . S
C2524 H2512 0.950 . S
C2524 C2523 1.398 . S
C2524 C2525 1.391 . S
C2525 H2513 0.950 . S
C2525 C2521 1.393 . S
C2525 C2524 1.391 . S
H2526 C2534 0.950 . S
H2527 C2539 0.950 . S
H2528 C2536 0.950 . S
H2529 C2538 0.950 . S
H2530 C2540 0.950 . S
H2531 C2542 0.950 . S
H2532 C2544 0.950 . S
H2533 C2545 0.950 . S
C2534 H2526 0.950 . S
C2534 C2535 1.386 . S
C2534 C2536 1.391 . S
C2535 C2534 1.386 . S
C2535 C2539 1.393 . S
C2536 H2528 0.950 . S
C2536 C2534 1.391 . S
C2536 C2537 1.400 . S
C2537 C2536 1.400 . S
C2537 C2538 1.398 . S
C2537 C2543 1.491 . S
C2538 H2529 0.950 . S
C2538 C2537 1.398 . S
C2538 C2539 1.391 . S
C2539 H2527 0.950 . S
C2539 C2535 1.393 . S
C2539 C2538 1.391 . S
C2540 H2530 0.950 . S
C2540 C2541 1.386 . S
C2540 C2542 1.391 . S
C2541 C2540 1.386 . S
C2541 C2545 1.393 . S
C2542 H2531 0.950 . S
C2542 C2540 1.391 . S
C2542 C2543 1.400 . S
C2543 C2537 1.491 . S
C2543 C2542 1.400 . S
C2543 C2544 1.398 . S
C2544 H2532 0.950 . S
C2544 C2543 1.398 . S
C2544 C2545 1.391 . S
C2545 H2533 0.950 . S
C2545 C2541 1.393 . S
C2545 C2544 1.391 . S
H2546 C2554 0.950 . S
H2547 C2559 0.950 . S
H2548 C2556 0.950 . S
H2549 C2558 0.950 . S
H2550 C2560 0.950 . S
H2551 C2562 0.950 . S
H2552 C2564 0.950 . S
H2553 C2565 0.950 . S
C2554 H2546 0.950 . S
C2554 C2555 1.386 . S
C2554 C2556 1.391 . S
C2555 C2554 1.386 . S
C2555 C2559 1.393 . S
C2556 H2548 0.950 . S
C2556 C2554 1.391 . S
C2556 C2557 1.400 . S
C2557 C2556 1.400 . S
C2557 C2558 1.398 . S
C2557 C2563 1.491 . S
C2558 H2549 0.950 . S
C2558 C2557 1.398 . S
C2558 C2559 1.391 . S
C2559 H2547 0.950 . S
C2559 C2555 1.393 . S
C2559 C2558 1.391 . S
C2560 H2550 0.950 . S
C2560 C2561 1.386 . S
C2560 C2562 1.391 . S
C2561 C2560 1.386 . S
C2561 C2565 1.393 . S
C2562 H2551 0.950 . S
C2562 C2560 1.391 . S
C2562 C2563 1.400 . S
C2563 C2557 1.491 . S
C2563 C2562 1.400 . S
C2563 C2564 1.398 . S
C2564 H2552 0.950 . S
C2564 C2563 1.398 . S
C2564 C2565 1.391 . S
C2565 H2553 0.950 . S
C2565 C2561 1.393 . S
C2565 C2564 1.391 . S
H2566 C2574 0.950 . S
H2567 C2579 0.950 . S
H2568 C2576 0.950 . S
H2569 C2578 0.950 . S
H2570 C2580 0.950 . S
H2571 C2582 0.950 . S
H2572 C2584 0.950 . S
H2573 C2585 0.950 . S
C2574 H2566 0.950 . S
C2574 C2575 1.386 . S
C2574 C2576 1.391 . S
C2575 C2574 1.386 . S
C2575 C2579 1.393 . S
C2576 H2568 0.950 . S
C2576 C2574 1.391 . S
C2576 C2577 1.400 . S
C2577 C2576 1.400 . S
C2577 C2578 1.398 . S
C2577 C2583 1.491 . S
C2578 H2569 0.950 . S
C2578 C2577 1.398 . S
C2578 C2579 1.391 . S
C2579 H2567 0.950 . S
C2579 C2575 1.393 . S
C2579 C2578 1.391 . S
C2580 H2570 0.950 . S
C2580 C2581 1.386 . S
C2580 C2582 1.391 . S
C2581 C2580 1.386 . S
C2581 C2585 1.393 . S
C2582 H2571 0.950 . S
C2582 C2580 1.391 . S
C2582 C2583 1.400 . S
C2583 C2577 1.491 . S
C2583 C2582 1.400 . S
C2583 C2584 1.398 . S
C2584 H2572 0.950 . S
C2584 C2583 1.398 . S
C2584 C2585 1.391 . S
C2585 H2573 0.950 . S
C2585 C2581 1.393 . S
C2585 C2584 1.391 . S
H2586 C2594 0.950 . S
H2587 C2599 0.950 . S
H2588 C2596 0.950 . S
H2589 C2598 0.950 . S
H2590 C2600 0.950 . S
H2591 C2602 0.950 . S
H2592 C2604 0.950 . S
H2593 C2605 0.950 . S
C2594 H2586 0.950 . S
C2594 C2595 1.386 . S
C2594 C2596 1.391 . S
C2595 C2594 1.386 . S
C2595 C2599 1.393 . S
C2596 H2588 0.950 . S
C2596 C2594 1.391 . S
C2596 C2597 1.400 . S
C2597 C2596 1.400 . S
C2597 C2598 1.398 . S
C2597 C2603 1.491 . S
C2598 H2589 0.950 . S
C2598 C2597 1.398 . S
C2598 C2599 1.391 . S
C2599 H2587 0.950 . S
C2599 C2595 1.393 . S
C2599 C2598 1.391 . S
C2600 H2590 0.950 . S
C2600 C2601 1.386 . S
C2600 C2602 1.391 . S
C2601 C2600 1.386 . S
C2601 C2605 1.393 . S
C2602 H2591 0.950 . S
C2602 C2600 1.391 . S
C2602 C2603 1.400 . S
C2603 C2597 1.491 . S
C2603 C2602 1.400 . S
C2603 C2604 1.398 . S
C2604 H2592 0.950 . S
C2604 C2603 1.398 . S
C2604 C2605 1.391 . S
C2605 H2593 0.950 . S
C2605 C2601 1.393 . S
C2605 C2604 1.391 . S
H2606 C2614 0.950 . S
H2607 C2619 0.950 . S
H2608 C2616 0.950 . S
H2609 C2618 0.950 . S
H2610 C2620 0.950 . S
H2611 C2622 0.950 . S
H2612 C2624 0.950 . S
H2613 C2625 0.950 . S
C2614 H2606 0.950 . S
C2614 C2615 1.386 . S
C2614 C2616 1.391 . S
C2615 C2614 1.386 . S
C2615 C2619 1.393 . S
C2616 H2608 0.950 . S
C2616 C2614 1.391 . S
C2616 C2617 1.400 . S
C2617 C2616 1.400 . S
C2617 C2618 1.398 . S
C2617 C2623 1.491 . S
C2618 H2609 0.950 . S
C2618 C2617 1.398 . S
C2618 C2619 1.391 . S
C2619 H2607 0.950 . S
C2619 C2615 1.393 . S
C2619 C2618 1.391 . S
C2620 H2610 0.950 . S
C2620 C2621 1.386 . S
C2620 C2622 1.391 . S
C2621 C2620 1.386 . S
C2621 C2625 1.393 . S
C2622 H2611 0.950 . S
C2622 C2620 1.391 . S
C2622 C2623 1.400 . S
C2623 C2617 1.491 . S
C2623 C2622 1.400 . S
C2623 C2624 1.398 . S
C2624 H2612 0.950 . S
C2624 C2623 1.398 . S
C2624 C2625 1.391 . S
C2625 H2613 0.950 . S
C2625 C2621 1.393 . S
C2625 C2624 1.391 . S
H2626 C2634 0.950 . S
H2627 C2639 0.950 . S
H2628 C2636 0.950 . S
H2629 C2638 0.950 . S
H2630 C2640 0.950 . S
H2631 C2642 0.950 . S
H2632 C2644 0.950 . S
H2633 C2645 0.950 . S
C2634 H2626 0.950 . S
C2634 C2635 1.386 . S
C2634 C2636 1.391 . S
C2635 C2634 1.386 . S
C2635 C2639 1.393 . S
C2636 H2628 0.950 . S
C2636 C2634 1.391 . S
C2636 C2637 1.400 . S
C2637 C2636 1.400 . S
C2637 C2638 1.398 . S
C2637 C2643 1.491 . S
C2638 H2629 0.950 . S
C2638 C2637 1.398 . S
C2638 C2639 1.391 . S
C2639 H2627 0.950 . S
C2639 C2635 1.393 . S
C2639 C2638 1.391 . S
C2640 H2630 0.950 . S
C2640 C2641 1.386 . S
C2640 C2642 1.391 . S
C2641 C2640 1.386 . S
C2641 C2645 1.393 . S
C2642 H2631 0.950 . S
C2642 C2640 1.391 . S
C2642 C2643 1.400 . S
C2643 C2637 1.491 . S
C2643 C2642 1.400 . S
C2643 C2644 1.398 . S
C2644 H2632 0.950 . S
C2644 C2643 1.398 . S
C2644 C2645 1.391 . S
C2645 H2633 0.950 . S
C2645 C2641 1.393 . S
C2645 C2644 1.391 . S
H2646 C2654 0.950 . S
H2647 C2659 0.950 . S
H2648 C2656 0.950 . S
H2649 C2658 0.950 . S
H2650 C2660 0.950 . S
H2651 C2662 0.950 . S
H2652 C2664 0.950 . S
H2653 C2665 0.950 . S
C2654 H2646 0.950 . S
C2654 C2655 1.386 . S
C2654 C2656 1.391 . S
C2655 C2654 1.386 . S
C2655 C2659 1.393 . S
C2656 H2648 0.950 . S
C2656 C2654 1.391 . S
C2656 C2657 1.400 . S
C2657 C2656 1.400 . S
C2657 C2658 1.398 . S
C2657 C2663 1.491 . S
C2658 H2649 0.950 . S
C2658 C2657 1.398 . S
C2658 C2659 1.391 . S
C2659 H2647 0.950 . S
C2659 C2655 1.393 . S
C2659 C2658 1.391 . S
C2660 H2650 0.950 . S
C2660 C2661 1.386 . S
C2660 C2662 1.391 . S
C2661 C2660 1.386 . S
C2661 C2665 1.393 . S
C2662 H2651 0.950 . S
C2662 C2660 1.391 . S
C2662 C2663 1.400 . S
C2663 C2657 1.491 . S
C2663 C2662 1.400 . S
C2663 C2664 1.398 . S
C2664 H2652 0.950 . S
C2664 C2663 1.398 . S
C2664 C2665 1.391 . S
C2665 H2653 0.950 . S
C2665 C2661 1.393 . S
C2665 C2664 1.391 . S
H2666 C2674 0.950 . S
H2667 C2679 0.950 . S
H2668 C2676 0.950 . S
H2669 C2678 0.950 . S
H2670 C2680 0.950 . S
H2671 C2682 0.950 . S
H2672 C2684 0.950 . S
H2673 C2685 0.950 . S
C2674 H2666 0.950 . S
C2674 C2675 1.386 . S
C2674 C2676 1.391 . S
C2675 C2674 1.386 . S
C2675 C2679 1.393 . S
C2676 H2668 0.950 . S
C2676 C2674 1.391 . S
C2676 C2677 1.400 . S
C2677 C2676 1.400 . S
C2677 C2678 1.398 . S
C2677 C2683 1.491 . S
C2678 H2669 0.950 . S
C2678 C2677 1.398 . S
C2678 C2679 1.391 . S
C2679 H2667 0.950 . S
C2679 C2675 1.393 . S
C2679 C2678 1.391 . S
C2680 H2670 0.950 . S
C2680 C2681 1.386 . S
C2680 C2682 1.391 . S
C2681 C2680 1.386 . S
C2681 C2685 1.393 . S
C2682 H2671 0.950 . S
C2682 C2680 1.391 . S
C2682 C2683 1.400 . S
C2683 C2677 1.491 . S
C2683 C2682 1.400 . S
C2683 C2684 1.398 . S
C2684 H2672 0.950 . S
C2684 C2683 1.398 . S
C2684 C2685 1.391 . S
C2685 H2673 0.950 . S
C2685 C2681 1.393 . S
C2685 C2684 1.391 . S
H2686 C2694 0.950 . S
H2687 C2699 0.950 . S
H2688 C2696 0.950 . S
H2689 C2698 0.950 . S
H2690 C2700 0.950 . S
H2691 C2702 0.950 . S
H2692 C2704 0.950 . S
H2693 C2705 0.950 . S
C2694 H2686 0.950 . S
C2694 C2695 1.386 . S
C2694 C2696 1.391 . S
C2695 C2694 1.386 . S
C2695 C2699 1.393 . S
C2696 H2688 0.950 . S
C2696 C2694 1.391 . S
C2696 C2697 1.400 . S
C2697 C2696 1.400 . S
C2697 C2698 1.398 . S
C2697 C2703 1.491 . S
C2698 H2689 0.950 . S
C2698 C2697 1.398 . S
C2698 C2699 1.391 . S
C2699 H2687 0.950 . S
C2699 C2695 1.393 . S
C2699 C2698 1.391 . S
C2700 H2690 0.950 . S
C2700 C2701 1.386 . S
C2700 C2702 1.391 . S
C2701 C2700 1.386 . S
C2701 C2705 1.393 . S
C2702 H2691 0.950 . S
C2702 C2700 1.391 . S
C2702 C2703 1.400 . S
C2703 C2697 1.491 . S
C2703 C2702 1.400 . S
C2703 C2704 1.398 . S
C2704 H2692 0.950 . S
C2704 C2703 1.398 . S
C2704 C2705 1.391 . S
C2705 H2693 0.950 . S
C2705 C2701 1.393 . S
C2705 C2704 1.391 . S
H2706 C2714 0.950 . S
H2707 C2719 0.950 . S
H2708 C2716 0.950 . S
H2709 C2718 0.950 . S
H2710 C2720 0.950 . S
H2711 C2722 0.950 . S
H2712 C2724 0.950 . S
H2713 C2725 0.950 . S
C2714 H2706 0.950 . S
C2714 C2715 1.386 . S
C2714 C2716 1.391 . S
C2715 C2714 1.386 . S
C2715 C2719 1.393 . S
C2716 H2708 0.950 . S
C2716 C2714 1.391 . S
C2716 C2717 1.400 . S
C2717 C2716 1.400 . S
C2717 C2718 1.398 . S
C2717 C2723 1.491 . S
C2718 H2709 0.950 . S
C2718 C2717 1.398 . S
C2718 C2719 1.391 . S
C2719 H2707 0.950 . S
C2719 C2715 1.393 . S
C2719 C2718 1.391 . S
C2720 H2710 0.950 . S
C2720 C2721 1.386 . S
C2720 C2722 1.391 . S
C2721 C2720 1.386 . S
C2721 C2725 1.393 . S
C2722 H2711 0.950 . S
C2722 C2720 1.391 . S
C2722 C2723 1.400 . S
C2723 C2717 1.491 . S
C2723 C2722 1.400 . S
C2723 C2724 1.398 . S
C2724 H2712 0.950 . S
C2724 C2723 1.398 . S
C2724 C2725 1.391 . S
C2725 H2713 0.950 . S
C2725 C2721 1.393 . S
C2725 C2724 1.391 . S
H2726 C2734 0.950 . S
H2727 C2739 0.950 . S
H2728 C2736 0.950 . S
H2729 C2738 0.950 . S
H2730 C2740 0.950 . S
H2731 C2742 0.950 . S
H2732 C2744 0.950 . S
H2733 C2745 0.950 . S
C2734 H2726 0.950 . S
C2734 C2735 1.386 . S
C2734 C2736 1.391 . S
C2735 C2734 1.386 . S
C2735 C2739 1.393 . S
C2736 H2728 0.950 . S
C2736 C2734 1.391 . S
C2736 C2737 1.400 . S
C2737 C2736 1.400 . S
C2737 C2738 1.398 . S
C2737 C2743 1.491 . S
C2738 H2729 0.950 . S
C2738 C2737 1.398 . S
C2738 C2739 1.391 . S
C2739 H2727 0.950 . S
C2739 C2735 1.393 . S
C2739 C2738 1.391 . S
C2740 H2730 0.950 . S
C2740 C2741 1.386 . S
C2740 C2742 1.391 . S
C2741 C2740 1.386 . S
C2741 C2745 1.393 . S
C2742 H2731 0.950 . S
C2742 C2740 1.391 . S
C2742 C2743 1.400 . S
C2743 C2737 1.491 . S
C2743 C2742 1.400 . S
C2743 C2744 1.398 . S
C2744 H2732 0.950 . S
C2744 C2743 1.398 . S
C2744 C2745 1.391 . S
C2745 H2733 0.950 . S
C2745 C2741 1.393 . S
C2745 C2744 1.391 . S
H2746 C2754 0.950 . S
H2747 C2759 0.950 . S
H2748 C2756 0.950 . S
H2749 C2758 0.950 . S
H2750 C2760 0.950 . S
H2751 C2762 0.950 . S
H2752 C2764 0.950 . S
H2753 C2765 0.950 . S
C2754 H2746 0.950 . S
C2754 C2755 1.386 . S
C2754 C2756 1.391 . S
C2755 C2754 1.386 . S
C2755 C2759 1.393 . S
C2756 H2748 0.950 . S
C2756 C2754 1.391 . S
C2756 C2757 1.400 . S
C2757 C2756 1.400 . S
C2757 C2758 1.398 . S
C2757 C2763 1.491 . S
C2758 H2749 0.950 . S
C2758 C2757 1.398 . S
C2758 C2759 1.391 . S
C2759 H2747 0.950 . S
C2759 C2755 1.393 . S
C2759 C2758 1.391 . S
C2760 H2750 0.950 . S
C2760 C2761 1.386 . S
C2760 C2762 1.391 . S
C2761 C2760 1.386 . S
C2761 C2765 1.393 . S
C2762 H2751 0.950 . S
C2762 C2760 1.391 . S
C2762 C2763 1.400 . S
C2763 C2757 1.491 . S
C2763 C2762 1.400 . S
C2763 C2764 1.398 . S
C2764 H2752 0.950 . S
C2764 C2763 1.398 . S
C2764 C2765 1.391 . S
C2765 H2753 0.950 . S
C2765 C2761 1.393 . S
C2765 C2764 1.391 . S
H2766 C2774 0.950 . S
H2767 C2779 0.950 . S
H2768 C2776 0.950 . S
H2769 C2778 0.950 . S
H2770 C2780 0.950 . S
H2771 C2782 0.950 . S
H2772 C2784 0.950 . S
H2773 C2785 0.950 . S
C2774 H2766 0.950 . S
C2774 C2775 1.386 . S
C2774 C2776 1.391 . S
C2775 C2774 1.386 . S
C2775 C2779 1.393 . S
C2776 H2768 0.950 . S
C2776 C2774 1.391 . S
C2776 C2777 1.400 . S
C2777 C2776 1.400 . S
C2777 C2778 1.398 . S
C2777 C2783 1.491 . S
C2778 H2769 0.950 . S
C2778 C2777 1.398 . S
C2778 C2779 1.391 . S
C2779 H2767 0.950 . S
C2779 C2775 1.393 . S
C2779 C2778 1.391 . S
C2780 H2770 0.950 . S
C2780 C2781 1.386 . S
C2780 C2782 1.391 . S
C2781 C2780 1.386 . S
C2781 C2785 1.393 . S
C2782 H2771 0.950 . S
C2782 C2780 1.391 . S
C2782 C2783 1.400 . S
C2783 C2777 1.491 . S
C2783 C2782 1.400 . S
C2783 C2784 1.398 . S
C2784 H2772 0.950 . S
C2784 C2783 1.398 . S
C2784 C2785 1.391 . S
C2785 H2773 0.950 . S
C2785 C2781 1.393 . S
C2785 C2784 1.391 . S
H2786 C2794 0.950 . S
H2787 C2799 0.950 . S
H2788 C2796 0.950 . S
H2789 C2798 0.950 . S
H2790 C2800 0.950 . S
H2791 C2802 0.950 . S
H2792 C2804 0.950 . S
H2793 C2805 0.950 . S
C2794 H2786 0.950 . S
C2794 C2795 1.386 . S
C2794 C2796 1.391 . S
C2795 C2794 1.386 . S
C2795 C2799 1.393 . S
C2796 H2788 0.950 . S
C2796 C2794 1.391 . S
C2796 C2797 1.400 . S
C2797 C2796 1.400 . S
C2797 C2798 1.398 . S
C2797 C2803 1.491 . S
C2798 H2789 0.950 . S
C2798 C2797 1.398 . S
C2798 C2799 1.391 . S
C2799 H2787 0.950 . S
C2799 C2795 1.393 . S
C2799 C2798 1.391 . S
C2800 H2790 0.950 . S
C2800 C2801 1.386 . S
C2800 C2802 1.391 . S
C2801 C2800 1.386 . S
C2801 C2805 1.393 . S
C2802 H2791 0.950 . S
C2802 C2800 1.391 . S
C2802 C2803 1.400 . S
C2803 C2797 1.491 . S
C2803 C2802 1.400 . S
C2803 C2804 1.398 . S
C2804 H2792 0.950 . S
C2804 C2803 1.398 . S
C2804 C2805 1.391 . S
C2805 H2793 0.950 . S
C2805 C2801 1.393 . S
C2805 C2804 1.391 . S
H2806 C2814 0.950 . S
H2807 C2819 0.950 . S
H2808 C2816 0.950 . S
H2809 C2818 0.950 . S
H2810 C2820 0.950 . S
H2811 C2822 0.950 . S
H2812 C2824 0.950 . S
H2813 C2825 0.950 . S
C2814 H2806 0.950 . S
C2814 C2815 1.386 . S
C2814 C2816 1.391 . S
C2815 C2814 1.386 . S
C2815 C2819 1.393 . S
C2816 H2808 0.950 . S
C2816 C2814 1.391 . S
C2816 C2817 1.400 . S
C2817 C2816 1.400 . S
C2817 C2818 1.398 . S
C2817 C2823 1.491 . S
C2818 H2809 0.950 . S
C2818 C2817 1.398 . S
C2818 C2819 1.391 . S
C2819 H2807 0.950 . S
C2819 C2815 1.393 . S
C2819 C2818 1.391 . S
C2820 H2810 0.950 . S
C2820 C2821 1.386 . S
C2820 C2822 1.391 . S
C2821 C2820 1.386 . S
C2821 C2825 1.393 . S
C2822 H2811 0.950 . S
C2822 C2820 1.391 . S
C2822 C2823 1.400 . S
C2823 C2817 1.491 . S
C2823 C2822 1.400 . S
C2823 C2824 1.398 . S
C2824 H2812 0.950 . S
C2824 C2823 1.398 . S
C2824 C2825 1.391 . S
C2825 H2813 0.950 . S
C2825 C2821 1.393 . S
C2825 C2824 1.391 . S
H2826 C2834 0.950 . S
H2827 C2839 0.950 . S
H2828 C2836 0.950 . S
H2829 C2838 0.950 . S
H2830 C2840 0.950 . S
H2831 C2842 0.950 . S
H2832 C2844 0.950 . S
H2833 C2845 0.950 . S
C2834 H2826 0.950 . S
C2834 C2835 1.386 . S
C2834 C2836 1.391 . S
C2835 C2834 1.386 . S
C2835 C2839 1.393 . S
C2836 H2828 0.950 . S
C2836 C2834 1.391 . S
C2836 C2837 1.400 . S
C2837 C2836 1.400 . S
C2837 C2838 1.398 . S
C2837 C2843 1.491 . S
C2838 H2829 0.950 . S
C2838 C2837 1.398 . S
C2838 C2839 1.391 . S
C2839 H2827 0.950 . S
C2839 C2835 1.393 . S
C2839 C2838 1.391 . S
C2840 H2830 0.950 . S
C2840 C2841 1.386 . S
C2840 C2842 1.391 . S
C2841 C2840 1.386 . S
C2841 C2845 1.393 . S
C2842 H2831 0.950 . S
C2842 C2840 1.391 . S
C2842 C2843 1.400 . S
C2843 C2837 1.491 . S
C2843 C2842 1.400 . S
C2843 C2844 1.398 . S
C2844 H2832 0.950 . S
C2844 C2843 1.398 . S
C2844 C2845 1.391 . S
C2845 H2833 0.950 . S
C2845 C2841 1.393 . S
C2845 C2844 1.391 . S
H2846 C2854 0.950 . S
H2847 C2859 0.950 . S
H2848 C2856 0.950 . S
H2849 C2858 0.950 . S
H2850 C2860 0.950 . S
H2851 C2862 0.950 . S
H2852 C2864 0.950 . S
H2853 C2865 0.950 . S
C2854 H2846 0.950 . S
C2854 C2855 1.386 . S
C2854 C2856 1.391 . S
C2855 C2854 1.386 . S
C2855 C2859 1.393 . S
C2856 H2848 0.950 . S
C2856 C2854 1.391 . S
C2856 C2857 1.400 . S
C2857 C2856 1.400 . S
C2857 C2858 1.398 . S
C2857 C2863 1.491 . S
C2858 H2849 0.950 . S
C2858 C2857 1.398 . S
C2858 C2859 1.391 . S
C2859 H2847 0.950 . S
C2859 C2855 1.393 . S
C2859 C2858 1.391 . S
C2860 H2850 0.950 . S
C2860 C2861 1.386 . S
C2860 C2862 1.391 . S
C2861 C2860 1.386 . S
C2861 C2865 1.393 . S
C2862 H2851 0.950 . S
C2862 C2860 1.391 . S
C2862 C2863 1.400 . S
C2863 C2857 1.491 . S
C2863 C2862 1.400 . S
C2863 C2864 1.398 . S
C2864 H2852 0.950 . S
C2864 C2863 1.398 . S
C2864 C2865 1.391 . S
C2865 H2853 0.950 . S
C2865 C2861 1.393 . S
C2865 C2864 1.391 . S
H2866 C2874 0.950 . S
H2867 C2879 0.950 . S
H2868 C2876 0.950 . S
H2869 C2878 0.950 . S
H2870 C2880 0.950 . S
H2871 C2882 0.950 . S
H2872 C2884 0.950 . S
H2873 C2885 0.950 . S
C2874 H2866 0.950 . S
C2874 C2875 1.386 . S
C2874 C2876 1.391 . S
C2875 C2874 1.386 . S
C2875 C2879 1.393 . S
C2876 H2868 0.950 . S
C2876 C2874 1.391 . S
C2876 C2877 1.400 . S
C2877 C2876 1.400 . S
C2877 C2878 1.398 . S
C2877 C2883 1.491 . S
C2878 H2869 0.950 . S
C2878 C2877 1.398 . S
C2878 C2879 1.391 . S
C2879 H2867 0.950 . S
C2879 C2875 1.393 . S
C2879 C2878 1.391 . S
C2880 H2870 0.950 . S
C2880 C2881 1.386 . S
C2880 C2882 1.391 . S
C2881 C2880 1.386 . S
C2881 C2885 1.393 . S
C2882 H2871 0.950 . S
C2882 C2880 1.391 . S
C2882 C2883 1.400 . S
C2883 C2877 1.491 . S
C2883 C2882 1.400 . S
C2883 C2884 1.398 . S
C2884 H2872 0.950 . S
C2884 C2883 1.398 . S
C2884 C2885 1.391 . S
C2885 H2873 0.950 . S
C2885 C2881 1.393 . S
C2885 C2884 1.391 . S
H2886 C2894 0.950 . S
H2887 C2899 0.950 . S
H2888 C2896 0.950 . S
H2889 C2898 0.950 . S
H2890 C2900 0.950 . S
H2891 C2902 0.950 . S
H2892 C2904 0.950 . S
H2893 C2905 0.950 . S
C2894 H2886 0.950 . S
C2894 C2895 1.386 . S
C2894 C2896 1.391 . S
C2895 C2894 1.386 . S
C2895 C2899 1.393 . S
C2896 H2888 0.950 . S
C2896 C2894 1.391 . S
C2896 C2897 1.400 . S
C2897 C2896 1.400 . S
C2897 C2898 1.398 . S
C2897 C2903 1.491 . S
C2898 H2889 0.950 . S
C2898 C2897 1.398 . S
C2898 C2899 1.391 . S
C2899 H2887 0.950 . S
C2899 C2895 1.393 . S
C2899 C2898 1.391 . S
C2900 H2890 0.950 . S
C2900 C2901 1.386 . S
C2900 C2902 1.391 . S
C2901 C2900 1.386 . S
C2901 C2905 1.393 . S
C2902 H2891 0.950 . S
C2902 C2900 1.391 . S
C2902 C2903 1.400 . S
C2903 C2897 1.491 . S
C2903 C2902 1.400 . S
C2903 C2904 1.398 . S
C2904 H2892 0.950 . S
C2904 C2903 1.398 . S
C2904 C2905 1.391 . S
C2905 H2893 0.950 . S
C2905 C2901 1.393 . S
C2905 C2904 1.391 . S
H2906 C2914 0.950 . S
H2907 C2919 0.950 . S
H2908 C2916 0.950 . S
H2909 C2918 0.950 . S
H2910 C2920 0.950 . S
H2911 C2922 0.950 . S
H2912 C2924 0.950 . S
H2913 C2925 0.950 . S
C2914 H2906 0.950 . S
C2914 C2915 1.386 . S
C2914 C2916 1.391 . S
C2915 C2914 1.386 . S
C2915 C2919 1.393 . S
C2916 H2908 0.950 . S
C2916 C2914 1.391 . S
C2916 C2917 1.400 . S
C2917 C2916 1.400 . S
C2917 C2918 1.398 . S
C2917 C2923 1.491 . S
C2918 H2909 0.950 . S
C2918 C2917 1.398 . S
C2918 C2919 1.391 . S
C2919 H2907 0.950 . S
C2919 C2915 1.393 . S
C2919 C2918 1.391 . S
C2920 H2910 0.950 . S
C2920 C2921 1.386 . S
C2920 C2922 1.391 . S
C2921 C2920 1.386 . S
C2921 C2925 1.393 . S
C2922 H2911 0.950 . S
C2922 C2920 1.391 . S
C2922 C2923 1.400 . S
C2923 C2917 1.491 . S
C2923 C2922 1.400 . S
C2923 C2924 1.398 . S
C2924 H2912 0.950 . S
C2924 C2923 1.398 . S
C2924 C2925 1.391 . S
C2925 H2913 0.950 . S
C2925 C2921 1.393 . S
C2925 C2924 1.391 . S
H2926 C2934 0.950 . S
H2927 C2939 0.950 . S
H2928 C2936 0.950 . S
H2929 C2938 0.950 . S
H2930 C2940 0.950 . S
H2931 C2942 0.950 . S
H2932 C2944 0.950 . S
H2933 C2945 0.950 . S
C2934 H2926 0.950 . S
C2934 C2935 1.386 . S
C2934 C2936 1.391 . S
C2935 C2934 1.386 . S
C2935 C2939 1.393 . S
C2936 H2928 0.950 . S
C2936 C2934 1.391 . S
C2936 C2937 1.400 . S
C2937 C2936 1.400 . S
C2937 C2938 1.398 . S
C2937 C2943 1.491 . S
C2938 H2929 0.950 . S
C2938 C2937 1.398 . S
C2938 C2939 1.391 . S
C2939 H2927 0.950 . S
C2939 C2935 1.393 . S
C2939 C2938 1.391 . S
C2940 H2930 0.950 . S
C2940 C2941 1.386 . S
C2940 C2942 1.391 . S
C2941 C2940 1.386 . S
C2941 C2945 1.393 . S
C2942 H2931 0.950 . S
C2942 C2940 1.391 . S
C2942 C2943 1.400 . S
C2943 C2937 1.491 . S
C2943 C2942 1.400 . S
C2943 C2944 1.398 . S
C2944 H2932 0.950 . S
C2944 C2943 1.398 . S
C2944 C2945 1.391 . S
C2945 H2933 0.950 . S
C2945 C2941 1.393 . S
C2945 C2944 1.391 . S
H2946 C2954 0.950 . S
H2947 C2959 0.950 . S
H2948 C2956 0.950 . S
H2949 C2958 0.950 . S
H2950 C2960 0.950 . S
H2951 C2962 0.950 . S
H2952 C2964 0.950 . S
H2953 C2965 0.950 . S
C2954 H2946 0.950 . S
C2954 C2955 1.386 . S
C2954 C2956 1.391 . S
C2955 C2954 1.386 . S
C2955 C2959 1.393 . S
C2956 H2948 0.950 . S
C2956 C2954 1.391 . S
C2956 C2957 1.400 . S
C2957 C2956 1.400 . S
C2957 C2958 1.398 . S
C2957 C2963 1.491 . S
C2958 H2949 0.950 . S
C2958 C2957 1.398 . S
C2958 C2959 1.391 . S
C2959 H2947 0.950 . S
C2959 C2955 1.393 . S
C2959 C2958 1.391 . S
C2960 H2950 0.950 . S
C2960 C2961 1.386 . S
C2960 C2962 1.391 . S
C2961 C2960 1.386 . S
C2961 C2965 1.393 . S
C2962 H2951 0.950 . S
C2962 C2960 1.391 . S
C2962 C2963 1.400 . S
C2963 C2957 1.491 . S
C2963 C2962 1.400 . S
C2963 C2964 1.398 . S
C2964 H2952 0.950 . S
C2964 C2963 1.398 . S
C2964 C2965 1.391 . S
C2965 H2953 0.950 . S
C2965 C2961 1.393 . S
C2965 C2964 1.391 . S
H2966 C2974 0.950 . S
H2967 C2979 0.950 . S
H2968 C2976 0.950 . S
H2969 C2978 0.950 . S
H2970 C2980 0.950 . S
H2971 C2982 0.950 . S
H2972 C2984 0.950 . S
H2973 C2985 0.950 . S
C2974 H2966 0.950 . S
C2974 C2975 1.386 . S
C2974 C2976 1.391 . S
C2975 C2974 1.386 . S
C2975 C2979 1.393 . S
C2976 H2968 0.950 . S
C2976 C2974 1.391 . S
C2976 C2977 1.400 . S
C2977 C2976 1.400 . S
C2977 C2978 1.398 . S
C2977 C2983 1.491 . S
C2978 H2969 0.950 . S
C2978 C2977 1.398 . S
C2978 C2979 1.391 . S
C2979 H2967 0.950 . S
C2979 C2975 1.393 . S
C2979 C2978 1.391 . S
C2980 H2970 0.950 . S
C2980 C2981 1.386 . S
C2980 C2982 1.391 . S
C2981 C2980 1.386 . S
C2981 C2985 1.393 . S
C2982 H2971 0.950 . S
C2982 C2980 1.391 . S
C2982 C2983 1.400 . S
C2983 C2977 1.491 . S
C2983 C2982 1.400 . S
C2983 C2984 1.398 . S
C2984 H2972 0.950 . S
C2984 C2983 1.398 . S
C2984 C2985 1.391 . S
C2985 H2973 0.950 . S
C2985 C2981 1.393 . S
C2985 C2984 1.391 . S
H2986 C2994 0.950 . S
H2987 C2999 0.950 . S
H2988 C2996 0.950 . S
H2989 C2998 0.950 . S
H2990 C3000 0.950 . S
H2991 C3002 0.950 . S
H2992 C3004 0.950 . S
H2993 C3005 0.950 . S
C2994 H2986 0.950 . S
C2994 C2995 1.386 . S
C2994 C2996 1.391 . S
C2995 C2994 1.386 . S
C2995 C2999 1.393 . S
C2996 H2988 0.950 . S
C2996 C2994 1.391 . S
C2996 C2997 1.400 . S
C2997 C2996 1.400 . S
C2997 C2998 1.398 . S
C2997 C3003 1.491 . S
C2998 H2989 0.950 . S
C2998 C2997 1.398 . S
C2998 C2999 1.391 . S
C2999 H2987 0.950 . S
C2999 C2995 1.393 . S
C2999 C2998 1.391 . S
C3000 H2990 0.950 . S
C3000 C3001 1.386 . S
C3000 C3002 1.391 . S
C3001 C3000 1.386 . S
C3001 C3005 1.393 . S
C3002 H2991 0.950 . S
C3002 C3000 1.391 . S
C3002 C3003 1.400 . S
C3003 C2997 1.491 . S
C3003 C3002 1.400 . S
C3003 C3004 1.398 . S
C3004 H2992 0.950 . S
C3004 C3003 1.398 . S
C3004 C3005 1.391 . S
C3005 H2993 0.950 . S
C3005 C3001 1.393 . S
C3005 C3004 1.391 . S
H3006 C3014 0.950 . S
H3007 C3019 0.950 . S
H3008 C3016 0.950 . S
H3009 C3018 0.950 . S
H3010 C3020 0.950 . S
H3011 C3022 0.950 . S
H3012 C3024 0.950 . S
H3013 C3025 0.950 . S
C3014 H3006 0.950 . S
C3014 C3015 1.386 . S
C3014 C3016 1.391 . S
C3015 C3014 1.386 . S
C3015 C3019 1.393 . S
C3016 H3008 0.950 . S
C3016 C3014 1.391 . S
C3016 C3017 1.400 . S
C3017 C3016 1.400 . S
C3017 C3018 1.398 . S
C3017 C3023 1.491 . S
C3018 H3009 0.950 . S
C3018 C3017 1.398 . S
C3018 C3019 1.391 . S
C3019 H3007 0.950 . S
C3019 C3015 1.393 . S
C3019 C3018 1.391 . S
C3020 H3010 0.950 . S
C3020 C3021 1.386 . S
C3020 C3022 1.391 . S
C3021 C3020 1.386 . S
C3021 C3025 1.393 . S
C3022 H3011 0.950 . S
C3022 C3020 1.391 . S
C3022 C3023 1.400 . S
C3023 C3017 1.491 . S
C3023 C3022 1.400 . S
C3023 C3024 1.398 . S
C3024 H3012 0.950 . S
C3024 C3023 1.398 . S
C3024 C3025 1.391 . S
C3025 H3013 0.950 . S
C3025 C3021 1.393 . S
C3025 C3024 1.391 . S
H3026 C3034 0.950 . S
H3027 C3039 0.950 . S
H3028 C3036 0.950 . S
H3029 C3038 0.950 . S
H3030 C3040 0.950 . S
H3031 C3042 0.950 . S
H3032 C3044 0.950 . S
H3033 C3045 0.950 . S
C3034 H3026 0.950 . S
C3034 C3035 1.386 . S
C3034 C3036 1.391 . S
C3035 C3034 1.386 . S
C3035 C3039 1.393 . S
C3036 H3028 0.950 . S
C3036 C3034 1.391 . S
C3036 C3037 1.400 . S
C3037 C3036 1.400 . S
C3037 C3038 1.398 . S
C3037 C3043 1.491 . S
C3038 H3029 0.950 . S
C3038 C3037 1.398 . S
C3038 C3039 1.391 . S
C3039 H3027 0.950 . S
C3039 C3035 1.393 . S
C3039 C3038 1.391 . S
C3040 H3030 0.950 . S
C3040 C3041 1.386 . S
C3040 C3042 1.391 . S
C3041 C3040 1.386 . S
C3041 C3045 1.393 . S
C3042 H3031 0.950 . S
C3042 C3040 1.391 . S
C3042 C3043 1.400 . S
C3043 C3037 1.491 . S
C3043 C3042 1.400 . S
C3043 C3044 1.398 . S
C3044 H3032 0.950 . S
C3044 C3043 1.398 . S
C3044 C3045 1.391 . S
C3045 H3033 0.950 . S
C3045 C3041 1.393 . S
C3045 C3044 1.391 . S
H3046 C3054 0.950 . S
H3047 C3059 0.950 . S
H3048 C3056 0.950 . S
H3049 C3058 0.950 . S
H3050 C3060 0.950 . S
H3051 C3062 0.950 . S
H3052 C3064 0.950 . S
H3053 C3065 0.950 . S
C3054 H3046 0.950 . S
C3054 C3055 1.386 . S
C3054 C3056 1.391 . S
C3055 C3054 1.386 . S
C3055 C3059 1.393 . S
C3056 H3048 0.950 . S
C3056 C3054 1.391 . S
C3056 C3057 1.400 . S
C3057 C3056 1.400 . S
C3057 C3058 1.398 . S
C3057 C3063 1.491 . S
C3058 H3049 0.950 . S
C3058 C3057 1.398 . S
C3058 C3059 1.391 . S
C3059 H3047 0.950 . S
C3059 C3055 1.393 . S
C3059 C3058 1.391 . S
C3060 H3050 0.950 . S
C3060 C3061 1.386 . S
C3060 C3062 1.391 . S
C3061 C3060 1.386 . S
C3061 C3065 1.393 . S
C3062 H3051 0.950 . S
C3062 C3060 1.391 . S
C3062 C3063 1.400 . S
C3063 C3057 1.491 . S
C3063 C3062 1.400 . S
C3063 C3064 1.398 . S
C3064 H3052 0.950 . S
C3064 C3063 1.398 . S
C3064 C3065 1.391 . S
C3065 H3053 0.950 . S
C3065 C3061 1.393 . S
C3065 C3064 1.391 . S
H3066 C3074 0.950 . S
H3067 C3079 0.950 . S
H3068 C3076 0.950 . S
H3069 C3078 0.950 . S
H3070 C3080 0.950 . S
H3071 C3082 0.950 . S
H3072 C3084 0.950 . S
H3073 C3085 0.950 . S
C3074 H3066 0.950 . S
C3074 C3075 1.386 . S
C3074 C3076 1.391 . S
C3075 C3074 1.386 . S
C3075 C3079 1.393 . S
C3076 H3068 0.950 . S
C3076 C3074 1.391 . S
C3076 C3077 1.400 . S
C3077 C3076 1.400 . S
C3077 C3078 1.398 . S
C3077 C3083 1.491 . S
C3078 H3069 0.950 . S
C3078 C3077 1.398 . S
C3078 C3079 1.391 . S
C3079 H3067 0.950 . S
C3079 C3075 1.393 . S
C3079 C3078 1.391 . S
C3080 H3070 0.950 . S
C3080 C3081 1.386 . S
C3080 C3082 1.391 . S
C3081 C3080 1.386 . S
C3081 C3085 1.393 . S
C3082 H3071 0.950 . S
C3082 C3080 1.391 . S
C3082 C3083 1.400 . S
C3083 C3077 1.491 . S
C3083 C3082 1.400 . S
C3083 C3084 1.398 . S
C3084 H3072 0.950 . S
C3084 C3083 1.398 . S
C3084 C3085 1.391 . S
C3085 H3073 0.950 . S
C3085 C3081 1.393 . S
C3085 C3084 1.391 . S
H3086 C3094 0.950 . S
H3087 C3099 0.950 . S
H3088 C3096 0.950 . S
H3089 C3098 0.950 . S
H3090 C3100 0.950 . S
H3091 C3102 0.950 . S
H3092 C3104 0.950 . S
H3093 C3105 0.950 . S
C3094 H3086 0.950 . S
C3094 C3095 1.386 . S
C3094 C3096 1.391 . S
C3095 C3094 1.386 . S
C3095 C3099 1.393 . S
C3096 H3088 0.950 . S
C3096 C3094 1.391 . S
C3096 C3097 1.400 . S
C3097 C3096 1.400 . S
C3097 C3098 1.398 . S
C3097 C3103 1.491 . S
C3098 H3089 0.950 . S
C3098 C3097 1.398 . S
C3098 C3099 1.391 . S
C3099 H3087 0.950 . S
C3099 C3095 1.393 . S
C3099 C3098 1.391 . S
C3100 H3090 0.950 . S
C3100 C3101 1.386 . S
C3100 C3102 1.391 . S
C3101 C3100 1.386 . S
C3101 C3105 1.393 . S
C3102 H3091 0.950 . S
C3102 C3100 1.391 . S
C3102 C3103 1.400 . S
C3103 C3097 1.491 . S
C3103 C3102 1.400 . S
C3103 C3104 1.398 . S
C3104 H3092 0.950 . S
C3104 C3103 1.398 . S
C3104 C3105 1.391 . S
C3105 H3093 0.950 . S
C3105 C3101 1.393 . S
C3105 C3104 1.391 . S
H3106 C3114 0.950 . S
H3107 C3119 0.950 . S
H3108 C3116 0.950 . S
H3109 C3118 0.950 . S
H3110 C3120 0.950 . S
H3111 C3122 0.950 . S
H3112 C3124 0.950 . S
H3113 C3125 0.950 . S
C3114 H3106 0.950 . S
C3114 C3115 1.386 . S
C3114 C3116 1.391 . S
C3115 C3114 1.386 . S
C3115 C3119 1.393 . S
C3116 H3108 0.950 . S
C3116 C3114 1.391 . S
C3116 C3117 1.400 . S
C3117 C3116 1.400 . S
C3117 C3118 1.398 . S
C3117 C3123 1.491 . S
C3118 H3109 0.950 . S
C3118 C3117 1.398 . S
C3118 C3119 1.391 . S
C3119 H3107 0.950 . S
C3119 C3115 1.393 . S
C3119 C3118 1.391 . S
C3120 H3110 0.950 . S
C3120 C3121 1.386 . S
C3120 C3122 1.391 . S
C3121 C3120 1.386 . S
C3121 C3125 1.393 . S
C3122 H3111 0.950 . S
C3122 C3120 1.391 . S
C3122 C3123 1.400 . S
C3123 C3117 1.491 . S
C3123 C3122 1.400 . S
C3123 C3124 1.398 . S
C3124 H3112 0.950 . S
C3124 C3123 1.398 . S
C3124 C3125 1.391 . S
C3125 H3113 0.950 . S
C3125 C3121 1.393 . S
C3125 C3124 1.391 . S
H3126 C3134 0.950 . S
H3127 C3139 0.950 . S
H3128 C3136 0.950 . S
H3129 C3138 0.950 . S
H3130 C3140 0.950 . S
H3131 C3142 0.950 . S
H3132 C3144 0.950 . S
H3133 C3145 0.950 . S
C3134 H3126 0.950 . S
C3134 C3135 1.386 . S
C3134 C3136 1.391 . S
C3135 C3134 1.386 . S
C3135 C3139 1.393 . S
C3136 H3128 0.950 . S
C3136 C3134 1.391 . S
C3136 C3137 1.400 . S
C3137 C3136 1.400 . S
C3137 C3138 1.398 . S
C3137 C3143 1.491 . S
C3138 H3129 0.950 . S
C3138 C3137 1.398 . S
C3138 C3139 1.391 . S
C3139 H3127 0.950 . S
C3139 C3135 1.393 . S
C3139 C3138 1.391 . S
C3140 H3130 0.950 . S
C3140 C3141 1.386 . S
C3140 C3142 1.391 . S
C3141 C3140 1.386 . S
C3141 C3145 1.393 . S
C3142 H3131 0.950 . S
C3142 C3140 1.391 . S
C3142 C3143 1.400 . S
C3143 C3137 1.491 . S
C3143 C3142 1.400 . S
C3143 C3144 1.398 . S
C3144 H3132 0.950 . S
C3144 C3143 1.398 . S
C3144 C3145 1.391 . S
C3145 H3133 0.950 . S
C3145 C3141 1.393 . S
C3145 C3144 1.391 . S
H3146 C3154 0.950 . S
H3147 C3159 0.950 . S
H3148 C3156 0.950 . S
H3149 C3158 0.950 . S
H3150 C3160 0.950 . S
H3151 C3162 0.950 . S
H3152 C3164 0.950 . S
H3153 C3165 0.950 . S
C3154 H3146 0.950 . S
C3154 C3155 1.386 . S
C3154 C3156 1.391 . S
C3155 C3154 1.386 . S
C3155 C3159 1.393 . S
C3156 H3148 0.950 . S
C3156 C3154 1.391 . S
C3156 C3157 1.400 . S
C3157 C3156 1.400 . S
C3157 C3158 1.398 . S
C3157 C3163 1.491 . S
C3158 H3149 0.950 . S
C3158 C3157 1.398 . S
C3158 C3159 1.391 . S
C3159 H3147 0.950 . S
C3159 C3155 1.393 . S
C3159 C3158 1.391 . S
C3160 H3150 0.950 . S
C3160 C3161 1.386 . S
C3160 C3162 1.391 . S
C3161 C3160 1.386 . S
C3161 C3165 1.393 . S
C3162 H3151 0.950 . S
C3162 C3160 1.391 . S
C3162 C3163 1.400 . S
C3163 C3157 1.491 . S
C3163 C3162 1.400 . S
C3163 C3164 1.398 . S
C3164 H3152 0.950 . S
C3164 C3163 1.398 . S
C3164 C3165 1.391 . S
C3165 H3153 0.950 . S
C3165 C3161 1.393 . S
C3165 C3164 1.391 . S
H3166 C3174 0.950 . S
H3167 C3179 0.950 . S
H3168 C3176 0.950 . S
H3169 C3178 0.950 . S
H3170 C3180 0.950 . S
H3171 C3182 0.950 . S
H3172 C3184 0.950 . S
H3173 C3185 0.950 . S
C3174 H3166 0.950 . S
C3174 C3175 1.386 . S
C3174 C3176 1.391 . S
C3175 C3174 1.386 . S
C3175 C3179 1.393 . S
C3176 H3168 0.950 . S
C3176 C3174 1.391 . S
C3176 C3177 1.400 . S
C3177 C3176 1.400 . S
C3177 C3178 1.398 . S
C3177 C3183 1.491 . S
C3178 H3169 0.950 . S
C3178 C3177 1.398 . S
C3178 C3179 1.391 . S
C3179 H3167 0.950 . S
C3179 C3175 1.393 . S
C3179 C3178 1.391 . S
C3180 H3170 0.950 . S
C3180 C3181 1.386 . S
C3180 C3182 1.391 . S
C3181 C3180 1.386 . S
C3181 C3185 1.393 . S
C3182 H3171 0.950 . S
C3182 C3180 1.391 . S
C3182 C3183 1.400 . S
C3183 C3177 1.491 . S
C3183 C3182 1.400 . S
C3183 C3184 1.398 . S
C3184 H3172 0.950 . S
C3184 C3183 1.398 . S
C3184 C3185 1.391 . S
C3185 H3173 0.950 . S
C3185 C3181 1.393 . S
C3185 C3184 1.391 . S
H3186 C3194 0.950 . S
H3187 C3199 0.950 . S
H3188 C3196 0.950 . S
H3189 C3198 0.950 . S
H3190 C3200 0.950 . S
H3191 C3202 0.950 . S
H3192 C3204 0.950 . S
H3193 C3205 0.950 . S
C3194 H3186 0.950 . S
C3194 C3195 1.386 . S
C3194 C3196 1.391 . S
C3195 C3194 1.386 . S
C3195 C3199 1.393 . S
C3196 H3188 0.950 . S
C3196 C3194 1.391 . S
C3196 C3197 1.400 . S
C3197 C3196 1.400 . S
C3197 C3198 1.398 . S
C3197 C3203 1.491 . S
C3198 H3189 0.950 . S
C3198 C3197 1.398 . S
C3198 C3199 1.391 . S
C3199 H3187 0.950 . S
C3199 C3195 1.393 . S
C3199 C3198 1.391 . S
C3200 H3190 0.950 . S
C3200 C3201 1.386 . S
C3200 C3202 1.391 . S
C3201 C3200 1.386 . S
C3201 C3205 1.393 . S
C3202 H3191 0.950 . S
C3202 C3200 1.391 . S
C3202 C3203 1.400 . S
C3203 C3197 1.491 . S
C3203 C3202 1.400 . S
C3203 C3204 1.398 . S
C3204 H3192 0.950 . S
C3204 C3203 1.398 . S
C3204 C3205 1.391 . S
C3205 H3193 0.950 . S
C3205 C3201 1.393 . S
C3205 C3204 1.391 . S
H3206 C3214 0.950 . S
H3207 C3219 0.950 . S
H3208 C3216 0.950 . S
H3209 C3218 0.950 . S
H3210 C3220 0.950 . S
H3211 C3222 0.950 . S
H3212 C3224 0.950 . S
H3213 C3225 0.950 . S
C3214 H3206 0.950 . S
C3214 C3215 1.386 . S
C3214 C3216 1.391 . S
C3215 C3214 1.386 . S
C3215 C3219 1.393 . S
C3216 H3208 0.950 . S
C3216 C3214 1.391 . S
C3216 C3217 1.400 . S
C3217 C3216 1.400 . S
C3217 C3218 1.398 . S
C3217 C3223 1.491 . S
C3218 H3209 0.950 . S
C3218 C3217 1.398 . S
C3218 C3219 1.391 . S
C3219 H3207 0.950 . S
C3219 C3215 1.393 . S
C3219 C3218 1.391 . S
C3220 H3210 0.950 . S
C3220 C3221 1.386 . S
C3220 C3222 1.391 . S
C3221 C3220 1.386 . S
C3221 C3225 1.393 . S
C3222 H3211 0.950 . S
C3222 C3220 1.391 . S
C3222 C3223 1.400 . S
C3223 C3217 1.491 . S
C3223 C3222 1.400 . S
C3223 C3224 1.398 . S
C3224 H3212 0.950 . S
C3224 C3223 1.398 . S
C3224 C3225 1.391 . S
C3225 H3213 0.950 . S
C3225 C3221 1.393 . S
C3225 C3224 1.391 . S
H3226 C3234 0.950 . S
H3227 C3239 0.950 . S
H3228 C3236 0.950 . S
H3229 C3238 0.950 . S
H3230 C3240 0.950 . S
H3231 C3242 0.950 . S
H3232 C3244 0.950 . S
H3233 C3245 0.950 . S
C3234 H3226 0.950 . S
C3234 C3235 1.386 . S
C3234 C3236 1.391 . S
C3235 C3234 1.386 . S
C3235 C3239 1.393 . S
C3236 H3228 0.950 . S
C3236 C3234 1.391 . S
C3236 C3237 1.400 . S
C3237 C3236 1.400 . S
C3237 C3238 1.398 . S
C3237 C3243 1.491 . S
C3238 H3229 0.950 . S
C3238 C3237 1.398 . S
C3238 C3239 1.391 . S
C3239 H3227 0.950 . S
C3239 C3235 1.393 . S
C3239 C3238 1.391 . S
C3240 H3230 0.950 . S
C3240 C3241 1.386 . S
C3240 C3242 1.391 . S
C3241 C3240 1.386 . S
C3241 C3245 1.393 . S
C3242 H3231 0.950 . S
C3242 C3240 1.391 . S
C3242 C3243 1.400 . S
C3243 C3237 1.491 . S
C3243 C3242 1.400 . S
C3243 C3244 1.398 . S
C3244 H3232 0.950 . S
C3244 C3243 1.398 . S
C3244 C3245 1.391 . S
C3245 H3233 0.950 . S
C3245 C3241 1.393 . S
C3245 C3244 1.391 . S
H3246 C3254 0.950 . S
H3247 C3259 0.950 . S
H3248 C3256 0.950 . S
H3249 C3258 0.950 . S
H3250 C3260 0.950 . S
H3251 C3262 0.950 . S
H3252 C3264 0.950 . S
H3253 C3265 0.950 . S
C3254 H3246 0.950 . S
C3254 C3255 1.386 . S
C3254 C3256 1.391 . S
C3255 C3254 1.386 . S
C3255 C3259 1.393 . S
C3256 H3248 0.950 . S
C3256 C3254 1.391 . S
C3256 C3257 1.400 . S
C3257 C3256 1.400 . S
C3257 C3258 1.398 . S
C3257 C3263 1.491 . S
C3258 H3249 0.950 . S
C3258 C3257 1.398 . S
C3258 C3259 1.391 . S
C3259 H3247 0.950 . S
C3259 C3255 1.393 . S
C3259 C3258 1.391 . S
C3260 H3250 0.950 . S
C3260 C3261 1.386 . S
C3260 C3262 1.391 . S
C3261 C3260 1.386 . S
C3261 C3265 1.393 . S
C3262 H3251 0.950 . S
C3262 C3260 1.391 . S
C3262 C3263 1.400 . S
C3263 C3257 1.491 . S
C3263 C3262 1.400 . S
C3263 C3264 1.398 . S
C3264 H3252 0.950 . S
C3264 C3263 1.398 . S
C3264 C3265 1.391 . S
C3265 H3253 0.950 . S
C3265 C3261 1.393 . S
C3265 C3264 1.391 . S
H3266 C3274 0.950 . S
H3267 C3279 0.950 . S
H3268 C3276 0.950 . S
H3269 C3278 0.950 . S
H3270 C3280 0.950 . S
H3271 C3282 0.950 . S
H3272 C3284 0.950 . S
H3273 C3285 0.950 . S
C3274 H3266 0.950 . S
C3274 C3275 1.386 . S
C3274 C3276 1.391 . S
C3275 C3274 1.386 . S
C3275 C3279 1.393 . S
C3276 H3268 0.950 . S
C3276 C3274 1.391 . S
C3276 C3277 1.400 . S
C3277 C3276 1.400 . S
C3277 C3278 1.398 . S
C3277 C3283 1.491 . S
C3278 H3269 0.950 . S
C3278 C3277 1.398 . S
C3278 C3279 1.391 . S
C3279 H3267 0.950 . S
C3279 C3275 1.393 . S
C3279 C3278 1.391 . S
C3280 H3270 0.950 . S
C3280 C3281 1.386 . S
C3280 C3282 1.391 . S
C3281 C3280 1.386 . S
C3281 C3285 1.393 . S
C3282 H3271 0.950 . S
C3282 C3280 1.391 . S
C3282 C3283 1.400 . S
C3283 C3277 1.491 . S
C3283 C3282 1.400 . S
C3283 C3284 1.398 . S
C3284 H3272 0.950 . S
C3284 C3283 1.398 . S
C3284 C3285 1.391 . S
C3285 H3273 0.950 . S
C3285 C3281 1.393 . S
C3285 C3284 1.391 . S
H3286 C3294 0.950 . S
H3287 C3299 0.950 . S
H3288 C3296 0.950 . S
H3289 C3298 0.950 . S
H3290 C3300 0.950 . S
H3291 C3302 0.950 . S
H3292 C3304 0.950 . S
H3293 C3305 0.950 . S
C3294 H3286 0.950 . S
C3294 C3295 1.386 . S
C3294 C3296 1.391 . S
C3295 C3294 1.386 . S
C3295 C3299 1.393 . S
C3296 H3288 0.950 . S
C3296 C3294 1.391 . S
C3296 C3297 1.400 . S
C3297 C3296 1.400 . S
C3297 C3298 1.398 . S
C3297 C3303 1.491 . S
C3298 H3289 0.950 . S
C3298 C3297 1.398 . S
C3298 C3299 1.391 . S
C3299 H3287 0.950 . S
C3299 C3295 1.393 . S
C3299 C3298 1.391 . S
C3300 H3290 0.950 . S
C3300 C3301 1.386 . S
C3300 C3302 1.391 . S
C3301 C3300 1.386 . S
C3301 C3305 1.393 . S
C3302 H3291 0.950 . S
C3302 C3300 1.391 . S
C3302 C3303 1.400 . S
C3303 C3297 1.491 . S
C3303 C3302 1.400 . S
C3303 C3304 1.398 . S
C3304 H3292 0.950 . S
C3304 C3303 1.398 . S
C3304 C3305 1.391 . S
C3305 H3293 0.950 . S
C3305 C3301 1.393 . S
C3305 C3304 1.391 . S
H3306 C3314 0.950 . S
H3307 C3319 0.950 . S
H3308 C3316 0.950 . S
H3309 C3318 0.950 . S
H3310 C3320 0.950 . S
H3311 C3322 0.950 . S
H3312 C3324 0.950 . S
H3313 C3325 0.950 . S
C3314 H3306 0.950 . S
C3314 C3315 1.386 . S
C3314 C3316 1.391 . S
C3315 C3314 1.386 . S
C3315 C3319 1.393 . S
C3316 H3308 0.950 . S
C3316 C3314 1.391 . S
C3316 C3317 1.400 . S
C3317 C3316 1.400 . S
C3317 C3318 1.398 . S
C3317 C3323 1.491 . S
C3318 H3309 0.950 . S
C3318 C3317 1.398 . S
C3318 C3319 1.391 . S
C3319 H3307 0.950 . S
C3319 C3315 1.393 . S
C3319 C3318 1.391 . S
C3320 H3310 0.950 . S
C3320 C3321 1.386 . S
C3320 C3322 1.391 . S
C3321 C3320 1.386 . S
C3321 C3325 1.393 . S
C3322 H3311 0.950 . S
C3322 C3320 1.391 . S
C3322 C3323 1.400 . S
C3323 C3317 1.491 . S
C3323 C3322 1.400 . S
C3323 C3324 1.398 . S
C3324 H3312 0.950 . S
C3324 C3323 1.398 . S
C3324 C3325 1.391 . S
C3325 H3313 0.950 . S
C3325 C3321 1.393 . S
C3325 C3324 1.391 . S
H3326 C3334 0.950 . S
H3327 C3339 0.950 . S
H3328 C3336 0.950 . S
H3329 C3338 0.950 . S
H3330 C3340 0.950 . S
H3331 C3342 0.950 . S
H3332 C3344 0.950 . S
H3333 C3345 0.950 . S
C3334 H3326 0.950 . S
C3334 C3335 1.386 . S
C3334 C3336 1.391 . S
C3335 C3334 1.386 . S
C3335 C3339 1.393 . S
C3336 H3328 0.950 . S
C3336 C3334 1.391 . S
C3336 C3337 1.400 . S
C3337 C3336 1.400 . S
C3337 C3338 1.398 . S
C3337 C3343 1.491 . S
C3338 H3329 0.950 . S
C3338 C3337 1.398 . S
C3338 C3339 1.391 . S
C3339 H3327 0.950 . S
C3339 C3335 1.393 . S
C3339 C3338 1.391 . S
C3340 H3330 0.950 . S
C3340 C3341 1.386 . S
C3340 C3342 1.391 . S
C3341 C3340 1.386 . S
C3341 C3345 1.393 . S
C3342 H3331 0.950 . S
C3342 C3340 1.391 . S
C3342 C3343 1.400 . S
C3343 C3337 1.491 . S
C3343 C3342 1.400 . S
C3343 C3344 1.398 . S
C3344 H3332 0.950 . S
C3344 C3343 1.398 . S
C3344 C3345 1.391 . S
C3345 H3333 0.950 . S
C3345 C3341 1.393 . S
C3345 C3344 1.391 . S
H3346 C3354 0.950 . S
H3347 C3359 0.950 . S
H3348 C3356 0.950 . S
H3349 C3358 0.950 . S
H3350 C3360 0.950 . S
H3351 C3362 0.950 . S
H3352 C3364 0.950 . S
H3353 C3365 0.950 . S
C3354 H3346 0.950 . S
C3354 C3355 1.386 . S
C3354 C3356 1.391 . S
C3355 C3354 1.386 . S
C3355 C3359 1.393 . S
C3356 H3348 0.950 . S
C3356 C3354 1.391 . S
C3356 C3357 1.400 . S
C3357 C3356 1.400 . S
C3357 C3358 1.398 . S
C3357 C3363 1.491 . S
C3358 H3349 0.950 . S
C3358 C3357 1.398 . S
C3358 C3359 1.391 . S
C3359 H3347 0.950 . S
C3359 C3355 1.393 . S
C3359 C3358 1.391 . S
C3360 H3350 0.950 . S
C3360 C3361 1.386 . S
C3360 C3362 1.391 . S
C3361 C3360 1.386 . S
C3361 C3365 1.393 . S
C3362 H3351 0.950 . S
C3362 C3360 1.391 . S
C3362 C3363 1.400 . S
C3363 C3357 1.491 . S
C3363 C3362 1.400 . S
C3363 C3364 1.398 . S
C3364 H3352 0.950 . S
C3364 C3363 1.398 . S
C3364 C3365 1.391 . S
C3365 H3353 0.950 . S
C3365 C3361 1.393 . S
C3365 C3364 1.391 . S
H3366 C3374 0.950 . S
H3367 C3379 0.950 . S
H3368 C3376 0.950 . S
H3369 C3378 0.950 . S
H3370 C3380 0.995 . S
H3371 C3382 0.943 1_545 S
H3372 C3384 0.950 . S
H3373 C3385 0.950 . S
C3374 H3366 0.950 . S
C3374 C3375 1.386 . S
C3374 C3376 1.391 . S
C3375 C3374 1.386 . S
C3375 C3379 1.393 . S
C3376 H3368 0.950 . S
C3376 C3374 1.391 . S
C3376 C3377 1.400 . S
C3377 C3376 1.400 . S
C3377 C3378 1.398 . S
C3377 C3383 1.491 . S
C3378 H3369 0.950 . S
C3378 C3377 1.398 . S
C3378 C3379 1.391 . S
C3379 H3367 0.950 . S
C3379 C3375 1.393 . S
C3379 C3378 1.391 . S
C3380 H3370 0.995 . S
C3380 C3381 1.377 1_545 S
C3380 C3382 1.359 1_545 S
C3381 C3380 1.377 1_565 S
C3381 C3385 1.393 . S
C3382 H3371 0.943 1_565 S
C3382 C3380 1.359 1_565 S
C3382 C3383 1.400 . S
C3383 C3377 1.491 . S
C3383 C3382 1.400 . S
C3383 C3384 1.398 . S
C3384 H3372 0.950 . S
C3384 C3383 1.398 . S
C3384 C3385 1.391 . S
C3385 H3373 0.950 . S
C3385 C3381 1.393 . S
C3385 C3384 1.391 . S
H3386 C3394 0.950 . S
H3387 C3399 0.938 1_655 S
H3388 C3396 0.950 . S
H3389 C3398 0.950 . S
H3390 C3400 0.950 . S
H3391 C3402 0.950 . S
H3392 C3404 0.950 . S
H3393 C3405 0.950 . S
C3394 H3386 0.950 . S
C3394 C3395 1.386 . S
C3394 C3396 1.391 . S
C3395 C3394 1.386 . S
C3395 C3399 1.398 . S
C3396 H3388 0.950 . S
C3396 C3394 1.391 . S
C3396 C3397 1.400 . S
C3397 C3396 1.400 . S
C3397 C3398 1.398 1_455 S
C3397 C3403 1.491 . S
C3398 H3389 0.950 . S
C3398 C3397 1.398 1_655 S
C3398 C3399 1.398 1_655 S
C3399 H3387 0.938 1_455 S
C3399 C3395 1.398 . S
C3399 C3398 1.398 1_455 S
C3400 H3390 0.950 . S
C3400 C3401 1.386 1_655 S
C3400 C3402 1.391 . S
C3401 C3400 1.386 1_455 S
C3401 C3405 1.393 . S
C3402 H3391 0.950 . S
C3402 C3400 1.391 . S
C3402 C3403 1.400 1_655 S
C3403 C3397 1.491 . S
C3403 C3402 1.400 1_455 S
C3403 C3404 1.398 . S
C3404 H3392 0.950 . S
C3404 C3403 1.398 . S
C3404 C3405 1.391 . S
C3405 H3393 0.950 . S
C3405 C3401 1.393 . S
C3405 C3404 1.391 . S
H3406 C3414 0.950 . S
H3407 C3419 0.950 . S
H3408 C3416 0.950 . S
H3409 C3418 0.950 . S
H3410 C3420 0.950 . S
H3411 C3422 0.950 . S
H3412 C3424 0.950 . S
H3413 C3425 0.950 . S
C3414 H3406 0.950 . S
C3414 C3415 1.386 . S
C3414 C3416 1.391 . S
C3415 C3414 1.386 . S
C3415 C3419 1.393 . S
C3416 H3408 0.950 . S
C3416 C3414 1.391 . S
C3416 C3417 1.400 . S
C3417 C3416 1.400 . S
C3417 C3418 1.398 . S
C3417 C3423 1.491 . S
C3418 H3409 0.950 . S
C3418 C3417 1.398 . S
C3418 C3419 1.391 . S
C3419 H3407 0.950 . S
C3419 C3415 1.393 . S
C3419 C3418 1.391 . S
C3420 H3410 0.950 . S
C3420 C3421 1.386 . S
C3420 C3422 1.391 . S
C3421 C3420 1.386 . S
C3421 C3425 1.393 . S
C3422 H3411 0.950 . S
C3422 C3420 1.391 . S
C3422 C3423 1.400 . S
C3423 C3417 1.491 . S
C3423 C3422 1.400 . S
C3423 C3424 1.398 . S
C3424 H3412 0.950 . S
C3424 C3423 1.398 . S
C3424 C3425 1.391 . S
C3425 H3413 0.950 . S
C3425 C3421 1.393 . S
C3425 C3424 1.391 . S
H3426 C3434 0.950 . S
H3427 C3439 0.950 . S
H3428 C3436 0.950 . S
H3429 C3438 0.950 . S
H3430 C3440 0.950 . S
H3431 C3442 0.950 . S
H3432 C3444 0.950 . S
H3433 C3445 0.950 . S
C3434 H3426 0.950 . S
C3434 C3435 1.386 . S
C3434 C3436 1.391 . S
C3435 C3434 1.386 . S
C3435 C3439 1.393 . S
C3436 H3428 0.950 . S
C3436 C3434 1.391 . S
C3436 C3437 1.400 . S
C3437 C3436 1.400 . S
C3437 C3438 1.398 . S
C3437 C3443 1.491 . S
C3438 H3429 0.950 . S
C3438 C3437 1.398 . S
C3438 C3439 1.391 . S
C3439 H3427 0.950 . S
C3439 C3435 1.393 . S
C3439 C3438 1.391 . S
C3440 H3430 0.950 . S
C3440 C3441 1.386 . S
C3440 C3442 1.391 . S
C3441 C3440 1.386 . S
C3441 C3445 1.393 . S
C3442 H3431 0.950 . S
C3442 C3440 1.391 . S
C3442 C3443 1.400 . S
C3443 C3437 1.491 . S
C3443 C3442 1.400 . S
C3443 C3444 1.398 . S
C3444 H3432 0.950 . S
C3444 C3443 1.398 . S
C3444 C3445 1.391 . S
C3445 H3433 0.950 . S
C3445 C3441 1.393 . S
C3445 C3444 1.391 . S
H3446 C3454 0.950 . S
H3447 C3459 0.950 . S
H3448 C3456 0.950 . S
H3449 C3458 0.950 . S
H3450 C3460 0.950 . S
H3451 C3462 0.950 . S
H3452 C3464 0.950 . S
H3453 C3465 0.950 . S
C3454 H3446 0.950 . S
C3454 C3455 1.386 . S
C3454 C3456 1.391 . S
C3455 C3454 1.386 . S
C3455 C3459 1.393 . S
C3456 H3448 0.950 . S
C3456 C3454 1.391 . S
C3456 C3457 1.400 . S
C3457 C3456 1.400 . S
C3457 C3458 1.398 . S
C3457 C3463 1.491 . S
C3458 H3449 0.950 . S
C3458 C3457 1.398 . S
C3458 C3459 1.391 . S
C3459 H3447 0.950 . S
C3459 C3455 1.393 . S
C3459 C3458 1.391 . S
C3460 H3450 0.950 . S
C3460 C3461 1.386 . S
C3460 C3462 1.391 . S
C3461 C3460 1.386 . S
C3461 C3465 1.393 . S
C3462 H3451 0.950 . S
C3462 C3460 1.391 . S
C3462 C3463 1.400 . S
C3463 C3457 1.491 . S
C3463 C3462 1.400 . S
C3463 C3464 1.398 . S
C3464 H3452 0.950 . S
C3464 C3463 1.398 . S
C3464 C3465 1.391 . S
C3465 H3453 0.950 . S
C3465 C3461 1.393 . S
C3465 C3464 1.391 . S
H3466 C3474 0.950 . S
H3467 C3479 0.950 . S
H3468 C3476 0.950 . S
H3469 C3478 0.950 . S
H3470 C3480 0.950 . S
H3471 C3482 0.950 . S
H3472 C3484 0.950 . S
H3473 C3485 0.950 . S
C3474 H3466 0.950 . S
C3474 C3475 1.386 . S
C3474 C3476 1.391 . S
C3475 C3474 1.386 . S
C3475 C3479 1.393 . S
C3476 H3468 0.950 . S
C3476 C3474 1.391 . S
C3476 C3477 1.400 . S
C3477 C3476 1.400 . S
C3477 C3478 1.398 . S
C3477 C3483 1.491 . S
C3478 H3469 0.950 . S
C3478 C3477 1.398 . S
C3478 C3479 1.391 . S
C3479 H3467 0.950 . S
C3479 C3475 1.393 . S
C3479 C3478 1.391 . S
C3480 H3470 0.950 . S
C3480 C3481 1.386 . S
C3480 C3482 1.391 . S
C3481 C3480 1.386 . S
C3481 C3485 1.393 . S
C3482 H3471 0.950 . S
C3482 C3480 1.391 . S
C3482 C3483 1.400 . S
C3483 C3477 1.491 . S
C3483 C3482 1.400 . S
C3483 C3484 1.398 . S
C3484 H3472 0.950 . S
C3484 C3483 1.398 . S
C3484 C3485 1.391 . S
C3485 H3473 0.950 . S
C3485 C3481 1.393 . S
C3485 C3484 1.391 . S
H3486 C3494 0.950 . S
H3487 C3499 0.950 . S
H3488 C3496 0.987 . S
H3489 C3498 0.950 . S
H3490 C3500 0.950 . S
H3491 C3502 0.950 . S
H3492 C3504 0.950 1_565 S
H3493 C3505 0.950 1_565 S
C3494 H3486 0.950 . S
C3494 C3495 1.386 . S
C3494 C3496 1.391 . S
C3495 C3494 1.386 . S
C3495 C3499 1.393 . S
C3496 H3488 0.987 . S
C3496 C3494 1.391 . S
C3496 C3497 1.400 . S
C3497 C3496 1.400 . S
C3497 C3498 1.398 . S
C3497 C3503 1.491 . S
C3498 H3489 0.950 . S
C3498 C3497 1.398 . S
C3498 C3499 1.391 . S
C3499 H3487 0.950 . S
C3499 C3495 1.393 . S
C3499 C3498 1.391 . S
C3500 H3490 0.950 . S
C3500 C3501 1.386 . S
C3500 C3502 1.391 . S
C3501 C3500 1.386 . S
C3501 C3505 1.393 . S
C3502 H3491 0.950 . S
C3502 C3500 1.391 . S
C3502 C3503 1.400 . S
C3503 C3497 1.491 . S
C3503 C3502 1.400 . S
C3503 C3504 1.398 . S
C3504 H3492 0.950 1_545 S
C3504 C3503 1.398 . S
C3504 C3505 1.391 . S
C3505 H3493 0.950 1_545 S
C3505 C3501 1.393 . S
C3505 C3504 1.391 . S
H3506 C3514 0.950 . S
H3507 C3519 0.950 . S
H3508 C3516 0.950 . S
H3509 C3518 0.950 . S
H3510 C3520 0.950 . S
H3511 C3522 0.950 . S
H3512 C3524 0.950 . S
H3513 C3525 0.950 . S
C3514 H3506 0.950 . S
C3514 C3515 1.386 . S
C3514 C3516 1.391 . S
C3515 C3514 1.386 . S
C3515 C3519 1.393 1_655 S
C3516 H3508 0.950 . S
C3516 C3514 1.391 . S
C3516 C3517 1.400 . S
C3517 C3516 1.400 . S
C3517 C3518 1.398 1_655 S
C3517 C3523 1.491 . S
C3518 H3509 0.950 . S
C3518 C3517 1.398 1_455 S
C3518 C3519 1.391 . S
C3519 H3507 0.950 . S
C3519 C3515 1.393 1_455 S
C3519 C3518 1.391 . S
C3520 H3510 0.950 . S
C3520 C3521 1.386 1_455 S
C3520 C3522 1.391 . S
C3521 C3520 1.386 1_655 S
C3521 C3525 1.393 . S
C3522 H3511 0.950 . S
C3522 C3520 1.391 . S
C3522 C3523 1.400 1_455 S
C3523 C3517 1.491 . S
C3523 C3522 1.400 1_655 S
C3523 C3524 1.398 . S
C3524 H3512 0.950 . S
C3524 C3523 1.398 . S
C3524 C3525 1.391 . S
C3525 H3513 0.950 . S
C3525 C3521 1.393 . S
C3525 C3524 1.391 . S
H3526 C3534 0.950 . S
H3527 C3539 0.950 . S
H3528 C3536 0.950 . S
H3529 C3538 0.950 . S
H3530 C3540 0.950 . S
H3531 C3542 0.950 . S
H3532 C3544 0.950 . S
H3533 C3545 0.950 . S
C3534 H3526 0.950 . S
C3534 C3535 1.386 . S
C3534 C3536 1.391 . S
C3535 C3534 1.386 . S
C3535 C3539 1.393 . S
C3536 H3528 0.950 . S
C3536 C3534 1.391 . S
C3536 C3537 1.400 . S
C3537 C3536 1.400 . S
C3537 C3538 1.398 . S
C3537 C3543 1.491 . S
C3538 H3529 0.950 . S
C3538 C3537 1.398 . S
C3538 C3539 1.391 . S
C3539 H3527 0.950 . S
C3539 C3535 1.393 . S
C3539 C3538 1.391 . S
C3540 H3530 0.950 . S
C3540 C3541 1.386 . S
C3540 C3542 1.391 . S
C3541 C3540 1.386 . S
C3541 C3545 1.393 . S
C3542 H3531 0.950 . S
C3542 C3540 1.391 . S
C3542 C3543 1.400 . S
C3543 C3537 1.491 . S
C3543 C3542 1.400 . S
C3543 C3544 1.398 . S
C3544 H3532 0.950 . S
C3544 C3543 1.398 . S
C3544 C3545 1.391 . S
C3545 H3533 0.950 . S
C3545 C3541 1.393 . S
C3545 C3544 1.391 . S
H3546 C3554 0.950 . S
H3547 C3559 0.950 . S
H3548 C3556 0.950 . S
H3549 C3558 0.950 . S
H3550 C3560 0.950 . S
H3551 C3562 0.950 . S
H3552 C3564 0.950 . S
H3553 C3565 0.950 . S
C3554 H3546 0.950 . S
C3554 C3555 1.386 . S
C3554 C3556 1.391 . S
C3555 C3554 1.386 . S
C3555 C3559 1.393 . S
C3556 H3548 0.950 . S
C3556 C3554 1.391 . S
C3556 C3557 1.400 . S
C3557 C3556 1.400 . S
C3557 C3558 1.398 . S
C3557 C3563 1.491 . S
C3558 H3549 0.950 . S
C3558 C3557 1.398 . S
C3558 C3559 1.391 . S
C3559 H3547 0.950 . S
C3559 C3555 1.393 . S
C3559 C3558 1.391 . S
C3560 H3550 0.950 . S
C3560 C3561 1.386 . S
C3560 C3562 1.391 . S
C3561 C3560 1.386 . S
C3561 C3565 1.393 . S
C3562 H3551 0.950 . S
C3562 C3560 1.391 . S
C3562 C3563 1.400 . S
C3563 C3557 1.491 . S
C3563 C3562 1.400 . S
C3563 C3564 1.398 . S
C3564 H3552 0.950 . S
C3564 C3563 1.398 . S
C3564 C3565 1.391 . S
C3565 H3553 0.950 . S
C3565 C3561 1.393 . S
C3565 C3564 1.391 . S
H3566 C3574 0.950 . S
H3567 C3579 0.950 . S
H3568 C3576 0.950 . S
H3569 C3578 0.950 . S
H3570 C3580 0.950 . S
H3571 C3582 0.950 . S
H3572 C3584 0.950 . S
H3573 C3585 0.950 . S
C3574 H3566 0.950 . S
C3574 C3575 1.386 . S
C3574 C3576 1.391 . S
C3575 C3574 1.386 . S
C3575 C3579 1.393 . S
C3576 H3568 0.950 . S
C3576 C3574 1.391 . S
C3576 C3577 1.400 . S
C3577 C3576 1.400 . S
C3577 C3578 1.398 . S
C3577 C3583 1.491 . S
C3578 H3569 0.950 . S
C3578 C3577 1.398 . S
C3578 C3579 1.391 . S
C3579 H3567 0.950 . S
C3579 C3575 1.393 . S
C3579 C3578 1.391 . S
C3580 H3570 0.950 . S
C3580 C3581 1.386 . S
C3580 C3582 1.391 . S
C3581 C3580 1.386 . S
C3581 C3585 1.393 . S
C3582 H3571 0.950 . S
C3582 C3580 1.391 . S
C3582 C3583 1.400 . S
C3583 C3577 1.491 . S
C3583 C3582 1.400 . S
C3583 C3584 1.398 . S
C3584 H3572 0.950 . S
C3584 C3583 1.398 . S
C3584 C3585 1.391 . S
C3585 H3573 0.950 . S
C3585 C3581 1.393 . S
C3585 C3584 1.391 . S
H3586 C3594 0.950 . S
H3587 C3599 0.950 . S
H3588 C3596 0.950 . S
H3589 C3598 0.950 . S
H3590 C3600 0.950 . S
H3591 C3602 0.950 . S
H3592 C3604 0.950 . S
H3593 C3605 0.950 . S
C3594 H3586 0.950 . S
C3594 C3595 1.386 . S
C3594 C3596 1.391 . S
C3595 C3594 1.386 . S
C3595 C3599 1.393 . S
C3596 H3588 0.950 . S
C3596 C3594 1.391 . S
C3596 C3597 1.400 . S
C3597 C3596 1.400 . S
C3597 C3598 1.398 . S
C3597 C3603 1.491 . S
C3598 H3589 0.950 . S
C3598 C3597 1.398 . S
C3598 C3599 1.391 . S
C3599 H3587 0.950 . S
C3599 C3595 1.393 . S
C3599 C3598 1.391 . S
C3600 H3590 0.950 . S
C3600 C3601 1.386 . S
C3600 C3602 1.391 . S
C3601 C3600 1.386 . S
C3601 C3605 1.393 . S
C3602 H3591 0.950 . S
C3602 C3600 1.391 . S
C3602 C3603 1.400 . S
C3603 C3597 1.491 . S
C3603 C3602 1.400 . S
C3603 C3604 1.398 . S
C3604 H3592 0.950 . S
C3604 C3603 1.398 . S
C3604 C3605 1.391 . S
C3605 H3593 0.950 . S
C3605 C3601 1.393 . S
C3605 C3604 1.391 . S
H3606 C3614 0.950 . S
H3607 C3619 0.950 . S
H3608 C3616 0.950 . S
H3609 C3618 0.950 . S
H3610 C3620 0.950 . S
H3611 C3622 0.950 . S
H3612 C3624 0.950 . S
H3613 C3625 0.950 . S
C3614 H3606 0.950 . S
C3614 C3615 1.386 . S
C3614 C3616 1.391 . S
C3615 C3614 1.386 . S
C3615 C3619 1.393 . S
C3616 H3608 0.950 . S
C3616 C3614 1.391 . S
C3616 C3617 1.400 . S
C3617 C3616 1.400 . S
C3617 C3618 1.398 . S
C3617 C3623 1.491 . S
C3618 H3609 0.950 . S
C3618 C3617 1.398 . S
C3618 C3619 1.391 . S
C3619 H3607 0.950 . S
C3619 C3615 1.393 . S
C3619 C3618 1.391 . S
C3620 H3610 0.950 . S
C3620 C3621 1.386 . S
C3620 C3622 1.391 . S
C3621 C3620 1.386 . S
C3621 C3625 1.393 . S
C3622 H3611 0.950 . S
C3622 C3620 1.391 . S
C3622 C3623 1.400 . S
C3623 C3617 1.491 . S
C3623 C3622 1.400 . S
C3623 C3624 1.398 . S
C3624 H3612 0.950 . S
C3624 C3623 1.398 . S
C3624 C3625 1.391 . S
C3625 H3613 0.950 . S
C3625 C3621 1.393 . S
C3625 C3624 1.391 . S
H3626 C3634 0.950 . S
H3627 C3639 0.950 . S
H3628 C3636 0.950 . S
H3629 C3638 0.950 . S
H3630 C3640 0.950 . S
H3631 C3642 0.950 . S
H3632 C3644 0.950 . S
H3633 C3645 0.950 . S
C3634 H3626 0.950 . S
C3634 C3635 1.386 . S
C3634 C3636 1.391 . S
C3635 C3634 1.386 . S
C3635 C3639 1.393 . S
C3636 H3628 0.950 . S
C3636 C3634 1.391 . S
C3636 C3637 1.400 . S
C3637 C3636 1.400 . S
C3637 C3638 1.398 . S
C3637 C3643 1.491 . S
C3638 H3629 0.950 . S
C3638 C3637 1.398 . S
C3638 C3639 1.391 . S
C3639 H3627 0.950 . S
C3639 C3635 1.393 . S
C3639 C3638 1.391 . S
C3640 H3630 0.950 . S
C3640 C3641 1.386 . S
C3640 C3642 1.391 . S
C3641 C3640 1.386 . S
C3641 C3645 1.393 . S
C3642 H3631 0.950 . S
C3642 C3640 1.391 . S
C3642 C3643 1.400 . S
C3643 C3637 1.491 . S
C3643 C3642 1.400 . S
C3643 C3644 1.398 . S
C3644 H3632 0.950 . S
C3644 C3643 1.398 . S
C3644 C3645 1.391 . S
C3645 H3633 0.950 . S
C3645 C3641 1.393 . S
C3645 C3644 1.391 . S
H3646 C3654 0.950 . S
H3647 C3659 0.950 . S
H3648 C3656 0.950 . S
H3649 C3658 0.950 . S
H3650 C3660 0.950 . S
H3651 C3662 0.950 . S
H3652 C3664 0.950 . S
H3653 C3665 0.950 . S
C3654 H3646 0.950 . S
C3654 C3655 1.386 . S
C3654 C3656 1.391 . S
C3655 C3654 1.386 . S
C3655 C3659 1.393 . S
C3656 H3648 0.950 . S
C3656 C3654 1.391 . S
C3656 C3657 1.400 . S
C3657 C3656 1.400 . S
C3657 C3658 1.398 . S
C3657 C3663 1.491 . S
C3658 H3649 0.950 . S
C3658 C3657 1.398 . S
C3658 C3659 1.391 . S
C3659 H3647 0.950 . S
C3659 C3655 1.393 . S
C3659 C3658 1.391 . S
C3660 H3650 0.950 . S
C3660 C3661 1.386 . S
C3660 C3662 1.391 . S
C3661 C3660 1.386 . S
C3661 C3665 1.393 . S
C3662 H3651 0.950 . S
C3662 C3660 1.391 . S
C3662 C3663 1.400 . S
C3663 C3657 1.491 . S
C3663 C3662 1.400 . S
C3663 C3664 1.398 . S
C3664 H3652 0.950 . S
C3664 C3663 1.398 . S
C3664 C3665 1.391 . S
C3665 H3653 0.950 . S
C3665 C3661 1.393 . S
C3665 C3664 1.391 . S
H3666 C3674 0.950 . S
H3667 C3679 0.950 . S
H3668 C3676 0.950 . S
H3669 C3678 0.950 . S
H3670 C3680 0.950 . S
H3671 C3682 0.950 . S
H3672 C3684 0.950 . S
H3673 C3685 0.950 . S
C3674 H3666 0.950 . S
C3674 C3675 1.386 . S
C3674 C3676 1.391 . S
C3675 C3674 1.386 . S
C3675 C3679 1.393 1_655 S
C3676 H3668 0.950 . S
C3676 C3674 1.391 . S
C3676 C3677 1.400 . S
C3677 C3676 1.400 . S
C3677 C3678 1.398 1_655 S
C3677 C3683 1.491 . S
C3678 H3669 0.950 . S
C3678 C3677 1.398 1_455 S
C3678 C3679 1.391 . S
C3679 H3667 0.950 . S
C3679 C3675 1.393 1_455 S
C3679 C3678 1.391 . S
C3680 H3670 0.950 . S
C3680 C3681 1.386 1_455 S
C3680 C3682 1.391 . S
C3681 C3680 1.386 1_655 S
C3681 C3685 1.393 . S
C3682 H3671 0.950 . S
C3682 C3680 1.391 . S
C3682 C3683 1.400 1_455 S
C3683 C3677 1.491 . S
C3683 C3682 1.400 1_655 S
C3683 C3684 1.398 . S
C3684 H3672 0.950 . S
C3684 C3683 1.398 . S
C3684 C3685 1.391 . S
C3685 H3673 0.950 . S
C3685 C3681 1.393 . S
C3685 C3684 1.391 . S
H3686 C3694 0.950 . S
H3687 C3699 0.950 . S
H3688 C3696 0.950 . S
H3689 C3698 0.950 . S
H3690 C3700 0.950 . S
H3691 C3702 0.950 . S
H3692 C3704 0.950 . S
H3693 C3705 0.950 . S
C3694 H3686 0.950 . S
C3694 C3695 1.386 . S
C3694 C3696 1.391 . S
C3695 C3694 1.386 . S
C3695 C3699 1.393 . S
C3696 H3688 0.950 . S
C3696 C3694 1.391 . S
C3696 C3697 1.400 . S
C3697 C3696 1.400 . S
C3697 C3698 1.398 . S
C3697 C3703 1.491 . S
C3698 H3689 0.950 . S
C3698 C3697 1.398 . S
C3698 C3699 1.391 . S
C3699 H3687 0.950 . S
C3699 C3695 1.393 . S
C3699 C3698 1.391 . S
C3700 H3690 0.950 . S
C3700 C3701 1.386 . S
C3700 C3702 1.391 . S
C3701 C3700 1.386 . S
C3701 C3705 1.393 . S
C3702 H3691 0.950 . S
C3702 C3700 1.391 . S
C3702 C3703 1.400 . S
C3703 C3697 1.491 . S
C3703 C3702 1.400 . S
C3703 C3704 1.398 . S
C3704 H3692 0.950 . S
C3704 C3703 1.398 . S
C3704 C3705 1.391 . S
C3705 H3693 0.950 . S
C3705 C3701 1.393 . S
C3705 C3704 1.391 . S
H3706 C3714 0.950 . S
H3707 C3719 0.950 . S
H3708 C3716 0.950 . S
H3709 C3718 0.950 . S
H3710 C3720 0.950 . S
H3711 C3722 0.950 . S
H3712 C3724 0.950 . S
H3713 C3725 0.950 . S
C3714 H3706 0.950 . S
C3714 C3715 1.386 . S
C3714 C3716 1.391 . S
C3715 C3714 1.386 . S
C3715 C3719 1.393 1_545 S
C3716 H3708 0.950 . S
C3716 C3714 1.391 . S
C3716 C3717 1.400 . S
C3717 C3716 1.400 . S
C3717 C3718 1.398 1_545 S
C3717 C3723 1.491 . S
C3718 H3709 0.950 . S
C3718 C3717 1.398 1_565 S
C3718 C3719 1.391 . S
C3719 H3707 0.950 . S
C3719 C3715 1.393 1_565 S
C3719 C3718 1.391 . S
C3720 H3710 0.950 . S
C3720 C3721 1.386 1_565 S
C3720 C3722 1.391 . S
C3721 C3720 1.386 1_545 S
C3721 C3725 1.393 . S
C3722 H3711 0.950 . S
C3722 C3720 1.391 . S
C3722 C3723 1.400 1_565 S
C3723 C3717 1.491 . S
C3723 C3722 1.400 1_545 S
C3723 C3724 1.398 . S
C3724 H3712 0.950 . S
C3724 C3723 1.398 . S
C3724 C3725 1.391 . S
C3725 H3713 0.950 . S
C3725 C3721 1.393 . S
C3725 C3724 1.391 . S
C2295 C10 1.412 1_655 S
C2301 C1289 1.197 . S
C2315 C23 1.709 . S
C2321 C1429 1.191 . S
C2341 C1517 1.223 . S
C2335 C29 1.461 . S
C2355 C30 1.569 . S
C2361 C1657 1.171 1_565 S
C2375 C5 1.509 . S
C2381 C1771 1.116 . S
C2395 C18 1.713 . S
C2401 C1859 1.343 . S
C2415 C49 1.385 . S
C2421 C1745 1.180 . S
C2441 C1885 1.391 . S
C2435 C62 1.628 . S
C2461 C1631 1.252 . S
C2455 C70 1.459 . S
C2475 C75 1.526 . S
C2481 C1543 1.196 . S
C2501 C1315 1.193 . S
C2495 C44 1.505 . S
C2515 C57 1.627 . S
C2521 C1403 1.448 . S
C2535 C88 1.729 . S
C2541 C1973 1.326 . S
C2555 C101 1.793 . S
C2561 C2113 1.232 . S
C2581 C2201 1.307 . S
C2575 C107 1.716 . S
C2595 C108 1.779 . S
C2601 C289 1.206 . S
C2615 C83 1.783 . S
C2621 C403 1.244 . S
C2635 C96 1.759 . S
C2641 C491 1.362 . S
C2655 C127 1.539 . S
C2661 C377 1.386 . S
C2675 C140 1.677 . S
C2681 C517 1.445 . S
C2701 C263 1.472 . S
C2695 C146 1.639 . S
C2721 C2227 1.541 . S
C2715 C147 1.798 . S
C2741 C1999 1.430 . S
C2735 C122 1.698 . S
C2761 C2087 1.543 . S
C2755 C135 1.713 . S
C2775 C160 1.631 . S
C2781 C605 1.213 . S
C2795 C173 1.764 . S
C2801 C745 1.214 . S
C2815 C185 1.720 . S
C2821 C833 1.334 . S
C2835 C186 1.877 . S
C2841 C973 1.331 . S
C2861 C1087 1.244 . S
C2855 C159 1.787 . S
C2881 C1175 1.370 . S
C2875 C172 1.796 . S
C2901 C1061 1.472 . S
C2895 C205 1.649 . S
C2921 C1201 1.445 . S
C2915 C218 1.713 . S
C2935 C224 1.628 . S
C2941 C947 1.488 . S
C2961 C859 1.452 . S
C2955 C225 1.693 . S
C2975 C200 1.701 . S
C2981 C631 1.422 . S
C3001 C719 1.535 . S
C2995 C213 1.673 . S
C3021 C245 0.962 . S
C3015 C4 1.721 . S
C3035 C17 1.551 . S
C3041 C359 0.856 . S
C3061 C463 1.213 . S
C3055 C31 1.615 . S
C3081 C577 1.187 . S
C3075 C36 1.555 . S
C3101 C701 0.972 . S
C3095 C3 1.676 . S
C3121 C805 1.185 . S
C3115 C16 1.566 . S
C3135 C43 1.801 . S
C3141 C815 1.290 . S
C3155 C56 1.627 . S
C3161 C587 1.219 . S
C3175 C68 1.695 . S
C3181 C691 1.468 . S
C3195 C69 1.643 . S
C3201 C349 1.403 . S
C3221 C473 1.290 . S
C3215 C42 1.742 . S
C3235 C55 1.648 . S
C3241 C235 1.401 . S
C3261 C929 0.955 . S
C3255 C82 1.683 . S
C3275 C95 1.678 . S
C3281 C1043 0.968 . S
C3295 C109 1.661 . S
C3301 C1147 1.281 . S
C3321 C1261 1.097 . S
C3315 C114 1.321 . S
C3335 C81 1.636 . S
C3341 C1385 0.923 . S
C3355 C94 1.428 . S
C3361 C1489 1.117 . S
C3375 C121 1.526 . S
C3381 C1499 0.967 1_565 S
C3395 C134 1.431 . S
C3401 C1271 0.958 1_455 S
C3421 C1375 1.441 . S
C3415 C148 1.662 . S
C3435 C153 1.611 . S
C3441 C1033 1.372 . S
C3455 C120 1.785 . S
C3461 C1157 1.299 . S
C3481 C919 1.508 . S
C3475 C133 1.763 . S
C3501 C1613 0.987 . S
C3495 C166 1.516 . S
C3515 C179 1.411 . S
C3521 C1727 0.884 . S
C3535 C187 1.586 . S
C3541 C1831 1.193 . S
C3561 C1945 1.179 . S
C3555 C192 1.521 . S
C3581 C2069 0.974 . S
C3575 C161 1.711 . S
C3595 C174 1.684 . S
C3601 C2173 1.237 . S
C3615 C199 1.761 . S
C3621 C2183 1.285 . S
C3635 C212 1.752 . S
C3641 C1955 1.251 . S
C3661 C2059 1.470 . S
C3655 C226 1.734 . S
C3681 C1717 1.134 1_655 S
C3675 C231 1.333 . S
C3701 C1841 1.216 . S
C3695 C198 1.715 . S
C3715 C211 1.446 . S
C3721 C1603 1.200 1_545 S
