# Generated by pormake.
# Topology hwx, (6,3)-cn, num edge types: 1
# Building blocks:
#     Node 0, Type 0, BuildingBlock: OJICUG_clean_sbu_0, # of connection points: 6
#     Node 1, Type 0, BuildingBlock: OJICUG_clean_sbu_0, # of connection points: 6
#     Node 2, Type 0, BuildingBlock: OJICUG_clean_sbu_0, # of connection points: 6
#     Node 3, Type 0, BuildingBlock: OJICUG_clean_sbu_0, # of connection points: 6
#     Node 4, Type 1, BuildingBlock: PAMTOO_clean_linker_0, # of connection points: 3
#     Node 5, Type 1, BuildingBlock: PAMTOO_clean_linker_0, # of connection points: 3
#     Node 6, Type 1, BuildingBlock: PAMTOO_clean_linker_0, # of connection points: 3
#     Node 7, Type 1, BuildingBlock: PAMTOO_clean_linker_0, # of connection points: 3
#     Node 8, Type 1, BuildingBlock: PAMTOO_clean_linker_0, # of connection points: 3
#     Node 9, Type 1, BuildingBlock: PAMTOO_clean_linker_0, # of connection points: 3
#     Node 10, Type 1, BuildingBlock: PAMTOO_clean_linker_0, # of connection points: 3
#     Node 11, Type 1, BuildingBlock: PAMTOO_clean_linker_0, # of connection points: 3
#     Edge 12, Type (0, 1), BuildingBlock: TEMPAE_clean_linker_10, # of connection points: 2
#     Edge 13, Type (0, 1), BuildingBlock: TEMPAE_clean_linker_10, # of connection points: 2
#     Edge 14, Type (0, 1), BuildingBlock: TEMPAE_clean_linker_10, # of connection points: 2
#     Edge 15, Type (0, 1), BuildingBlock: TEMPAE_clean_linker_10, # of connection points: 2
#     Edge 16, Type (0, 1), BuildingBlock: TEMPAE_clean_linker_10, # of connection points: 2
#     Edge 17, Type (0, 1), BuildingBlock: TEMPAE_clean_linker_10, # of connection points: 2
#     Edge 18, Type (0, 1), BuildingBlock: TEMPAE_clean_linker_10, # of connection points: 2
#     Edge 19, Type (0, 1), BuildingBlock: TEMPAE_clean_linker_10, # of connection points: 2
#     Edge 20, Type (0, 1), BuildingBlock: TEMPAE_clean_linker_10, # of connection points: 2
#     Edge 21, Type (0, 1), BuildingBlock: TEMPAE_clean_linker_10, # of connection points: 2
#     Edge 22, Type (0, 1), BuildingBlock: TEMPAE_clean_linker_10, # of connection points: 2
#     Edge 23, Type (0, 1), BuildingBlock: TEMPAE_clean_linker_10, # of connection points: 2
#     Edge 24, Type (0, 1), BuildingBlock: TEMPAE_clean_linker_10, # of connection points: 2
#     Edge 25, Type (0, 1), BuildingBlock: TEMPAE_clean_linker_10, # of connection points: 2
#     Edge 26, Type (0, 1), BuildingBlock: TEMPAE_clean_linker_10, # of connection points: 2
#     Edge 27, Type (0, 1), BuildingBlock: TEMPAE_clean_linker_10, # of connection points: 2
#     Edge 28, Type (0, 1), BuildingBlock: TEMPAE_clean_linker_10, # of connection points: 2
#     Edge 29, Type (0, 1), BuildingBlock: TEMPAE_clean_linker_10, # of connection points: 2
#     Edge 30, Type (0, 1), BuildingBlock: TEMPAE_clean_linker_10, # of connection points: 2
#     Edge 31, Type (0, 1), BuildingBlock: TEMPAE_clean_linker_10, # of connection points: 2
#     Edge 32, Type (0, 1), BuildingBlock: TEMPAE_clean_linker_10, # of connection points: 2
#     Edge 33, Type (0, 1), BuildingBlock: TEMPAE_clean_linker_10, # of connection points: 2
#     Edge 34, Type (0, 1), BuildingBlock: TEMPAE_clean_linker_10, # of connection points: 2
#     Edge 35, Type (0, 1), BuildingBlock: TEMPAE_clean_linker_10, # of connection points: 2
# Relax obj value: 0.008
# Max RMSD: 0.047
# Mean RMSD: 0.043
data_MOF--net-hwx--node1-OJICUG_clean_sbu_0--node2-PAMTOO_clean_linker_0--edge1-TEMPAE_clean_linker_10
_symmetry_space_group_name_H-M    P1
_symmetry_Int_Tables_number       1
_symmetry_cell_setting            triclinic
loop_
_symmetry_equiv_pos_as_xyz
'x, y, z'
_cell_length_a     53.384228
_cell_length_b     53.381446
_cell_length_c     20.508073
_cell_angle_alpha  88.117542
_cell_angle_beta   91.942735
_cell_angle_gamma 90.006648
loop_
_atom_site_label
_atom_site_type_symbol
_atom_site_fract_x
_atom_site_fract_y
_atom_site_fract_z
_atom_type_partial_charge
Sc0 Sc 0.22011 0.22058 0.09725 0.0
Sc1 Sc 0.17848 0.18205 0.00932 0.0
Sc2 Sc 0.21775 0.22396 0.92482 0.0
O3 O 0.20549 0.2089 0.01046 0.0
C4 C 0.21598 0.27209 0.01344 0.0
C5 C 0.16182 0.21551 0.12609 0.0
C6 C 0.15887 0.21965 0.89497 0.0
C7 C 0.21522 0.16155 0.12458 0.0
C8 C 0.26868 0.21887 0.0108 0.0
C9 C 0.21249 0.1659 0.8931 0.0
O10 O 0.21763 0.25947 0.06707 0.0
O11 O 0.15745 0.19981 0.08198 0.0
O12 O 0.18031 0.22888 0.88373 0.0
O13 O 0.2245 0.18288 0.1371 0.0
O14 O 0.25648 0.22081 0.95654 0.0
O15 O 0.19657 0.16138 0.93651 0.0
O16 O 0.25818 0.21848 0.06561 0.0
O17 O 0.19842 0.15849 0.08029 0.0
O18 O 0.22159 0.18763 0.88235 0.0
O19 O 0.18354 0.22443 0.13805 0.0
O20 O 0.21559 0.26193 0.95811 0.0
O21 O 0.15549 0.20255 0.93826 0.0
Sc22 Sc 0.27548 0.72447 0.43025 0.0
Sc23 Sc 0.31577 0.67925 0.5073 0.0
Sc24 Sc 0.281 0.71973 0.60196 0.0
O25 O 0.29071 0.70782 0.51313 0.0
C26 C 0.2854 0.77146 0.52023 0.0
C27 C 0.33276 0.71677 0.39341 0.0
C28 C 0.33964 0.70979 0.62512 0.0
C29 C 0.27575 0.66691 0.39388 0.0
C30 C 0.22847 0.72238 0.52258 0.0
C31 C 0.28254 0.66014 0.62518 0.0
O32 O 0.2818 0.76179 0.4648 0.0
O33 O 0.33692 0.69935 0.436 0.0
O34 O 0.31918 0.7202 0.63895 0.0
O35 O 0.26692 0.68898 0.38767 0.0
O36 O 0.24162 0.72095 0.57542 0.0
O37 O 0.29714 0.65624 0.57886 0.0
O38 O 0.23806 0.72373 0.46667 0.0
O39 O 0.29374 0.66079 0.43326 0.0
O40 O 0.27539 0.68198 0.6394 0.0
O41 O 0.3114 0.72716 0.38418 0.0
O42 O 0.28568 0.75864 0.57363 0.0
O43 O 0.34117 0.69436 0.57961 0.0
Sc44 Sc 0.77498 0.77618 0.9184 0.0
Sc45 Sc 0.82156 0.81528 0.9864 0.0
Sc46 Sc 0.78213 0.78013 0.08917 0.0
O47 O 0.79286 0.79055 -0.00198 0.0
C48 C 0.72918 0.78364 0.01197 0.0
C49 C 0.78242 0.83316 0.87328 0.0
C50 C 0.79169 0.83891 0.10193 0.0
C51 C 0.83233 0.77628 0.87686 0.0
C52 C 0.78027 0.72836 0.01513 0.0
C53 C 0.84168 0.78225 0.10936 0.0
O54 O 0.73824 0.78083 0.95621 0.0
O55 O 0.80166 0.83654 0.9101 0.0
O56 O 0.78146 0.81836 0.11968 0.0
O57 O 0.80965 0.7692 0.87043 0.0
O58 O 0.78216 0.74081 0.06697 0.0
O59 O 0.84516 0.79673 0.06018 0.0
O60 O 0.77744 0.73855 0.95845 0.0
O61 O 0.83937 0.7926 0.91719 0.0
O62 O 0.82007 0.77507 0.12607 0.0
O63 O 0.7704 0.81264 0.87155 0.0
O64 O 0.7427 0.78398 0.06415 0.0
O65 O 0.80671 0.8406 0.05514 0.0
Sc66 Sc 0.72284 0.28023 0.58802 0.0
Sc67 Sc 0.67759 0.31762 0.50142 0.0
Sc68 Sc 0.72032 0.28232 0.41563 0.0
O69 O 0.70695 0.29335 0.50175 0.0
C70 C 0.77059 0.29034 0.50088 0.0
C71 C 0.71275 0.33773 0.61699 0.0
C72 C 0.70888 0.34036 0.38457 0.0
C73 C 0.66441 0.27898 0.617 0.0
C74 C 0.72401 0.23146 0.50238 0.0
C75 C 0.66128 0.28132 0.38702 0.0
O76 O 0.76045 0.28689 0.55575 0.0
O77 O 0.69551 0.34056 0.57317 0.0
O78 O 0.71953 0.31976 0.37291 0.0
O79 O 0.68688 0.27183 0.62919 0.0
O80 O 0.72295 0.24357 0.44794 0.0
O81 O 0.6565 0.29734 0.42933 0.0
O82 O 0.72389 0.24213 0.55689 0.0
O83 O 0.65856 0.29549 0.57319 0.0
O84 O 0.68342 0.27407 0.37641 0.0
O85 O 0.72397 0.31698 0.62887 0.0
O86 O 0.75845 0.2895 0.44658 0.0
O87 O 0.69334 0.34243 0.4295 0.0
H88 H 0.23565 0.56902 0.00774 0.0
H89 H 0.22605 0.49648 0.9265 0.0
H90 H 0.20746 0.50766 0.12579 0.0
H91 H 0.2301 0.45975 0.11691 0.0
C92 C 0.2303 0.45885 0.06286 0.0
O93 O 0.21192 0.47454 0.03554 0.0
H94 H 0.24912 0.46518 0.04704 0.0
C95 C 0.22945 0.54975 0.01321 0.0
C96 C 0.22072 0.5407 0.07334 0.0
C97 C 0.23113 0.53413 0.96003 0.0
C98 C 0.22425 0.5089 0.96685 0.0
C99 C 0.21607 0.49938 0.02702 0.0
C100 C 0.21384 0.51532 0.0797 0.0
H101 H 0.93169 0.73083 0.47705 0.0
H102 H 0.00781 0.72397 0.41851 0.0
H103 H 0.99102 0.71854 0.62208 0.0
H104 H 0.03809 0.74141 0.60926 0.0
C105 C 0.04069 0.73837 0.55656 0.0
O106 O 0.02676 0.71785 0.53783 0.0
H107 H 0.03408 0.75548 0.52842 0.0
C108 C 0.9513 0.72732 0.48989 0.0
C109 C 0.95909 0.72474 0.55571 0.0
C110 C 0.96866 0.72699 0.44038 0.0
C111 C 0.99414 0.72338 0.45639 0.0
C112 C 0.00206 0.71985 0.52198 0.0
C113 C 0.98452 0.72019 0.57148 0.0
H114 H 0.73168 0.44234 0.99628 0.0
H115 H 0.75439 0.50898 0.09432 0.0
H116 H 0.76086 0.5052 0.88635 0.0
H117 H 0.80372 0.53512 0.96391 0.0
C118 C 0.79133 0.54034 0.00384 0.0
O119 O 0.76704 0.5335 0.98783 0.0
H120 H 0.79796 0.5305 0.04991 0.0
C121 C 0.73892 0.46134 0.99438 0.0
C122 C 0.74539 0.47226 0.93424 0.0
C123 C 0.74213 0.47429 0.0523 0.0
C124 C 0.75212 0.49855 0.05004 0.0
C125 C 0.759 0.50956 0.99023 0.0
C126 C 0.75592 0.49635 0.93245 0.0
H127 H 0.06 0.248 0.50351 0.0
H128 H 0.99266 0.27193 0.59248 0.0
H129 H 0.99552 0.26956 0.3833 0.0
H130 H 0.96372 0.31013 0.42429 0.0
C131 C 0.95852 0.30257 0.47314 0.0
O132 O 0.96709 0.27829 0.48191 0.0
H133 H 0.9672 0.31445 0.51138 0.0
C134 C 0.04079 0.25466 0.4989 0.0
C135 C 0.02946 0.25824 0.43679 0.0
C136 C 0.02775 0.25944 0.55523 0.0
C137 C 0.00314 0.26858 0.54928 0.0
C138 C 0.99158 0.27219 0.48721 0.0
C139 C 0.00477 0.26721 0.43097 0.0
H140 H 0.75751 0.93491 0.46861 0.0
H141 H 0.73189 0.99777 0.57499 0.0
H142 H 0.75257 0.00793 0.37519 0.0
H143 H 0.77523 0.04204 0.47555 0.0
C144 C 0.75808 0.04539 0.50353 0.0
O145 O 0.73884 0.03055 0.47997 0.0
H146 H 0.76226 0.04035 0.55582 0.0
C147 C 0.75251 0.95454 0.47068 0.0
C148 C 0.75545 0.97004 0.41506 0.0
C149 C 0.74373 0.96404 0.52872 0.0
C150 C 0.73832 0.98977 0.53067 0.0
C151 C 0.7419 0.00557 0.47571 0.0
C152 C 0.74992 0.99563 0.41749 0.0
H153 H 0.56668 0.238 0.99558 0.0
H154 H 0.49796 0.22435 0.0941 0.0
H155 H 0.499 0.22288 0.88445 0.0
H156 H 0.45897 0.25233 0.93886 0.0
C157 C 0.45561 0.24122 0.98464 0.0
O158 O 0.47058 0.22008 0.98656 0.0
H159 H 0.46051 0.25299 0.02703 0.0
C160 C 0.54693 0.23311 0.99392 0.0
C161 C 0.53459 0.23006 0.93351 0.0
C162 C 0.53395 0.23116 0.05196 0.0
C163 C 0.5084 0.22514 0.04967 0.0
C164 C 0.49579 0.22226 0.98916 0.0
C165 C 0.50897 0.22433 0.93108 0.0
H166 H 0.24327 0.06283 0.5121 0.0
H167 H 0.26472 0.9938 0.42722 0.0
H168 H 0.26328 0.99892 0.63612 0.0
H169 H 0.30252 0.96512 0.5973 0.0
C170 C 0.29491 0.96004 0.54836 0.0
O171 O 0.27082 0.96914 0.53933 0.0
H172 H 0.30702 0.96847 0.51031 0.0
C173 C 0.24937 0.04346 0.51792 0.0
C174 C 0.25284 0.03268 0.58068 0.0
C175 C 0.2535 0.02967 0.46244 0.0
C176 C 0.26187 0.00483 0.46979 0.0
C177 C 0.26537 0.99378 0.53251 0.0
C178 C 0.26103 0.00774 0.58793 0.0
H179 H 0.4384 0.7366 0.00358 0.0
H180 H 0.5091 0.75536 0.92051 0.0
H181 H 0.50021 0.75961 0.12766 0.0
H182 H 0.53444 0.79724 0.08185 0.0
C183 C 0.54031 0.78895 0.03574 0.0
O184 O 0.53171 0.76463 0.03278 0.0
H185 H 0.53218 0.80029 0.99364 0.0
C186 C 0.45774 0.74259 0.00978 0.0
C187 C 0.46736 0.74781 0.07221 0.0
C188 C 0.47258 0.7451 0.95499 0.0
C189 C 0.49732 0.75359 0.96242 0.0
C190 C 0.50724 0.75877 0.02483 0.0
C191 C 0.49225 0.75599 0.07958 0.0
C192 C 0.14463 0.23703 0.2218 0.0
C193 C 0.1405 0.22378 0.16452 0.0
C194 C 0.12456 0.24391 0.25986 0.0
C195 C 0.09976 0.23756 0.23987 0.0
C196 C 0.09537 0.2251 0.18082 0.0
C197 C 0.11578 0.21826 0.144 0.0
C198 C 0.12997 0.25713 0.32278 0.0
C199 C 0.06918 0.21823 0.15765 0.0
C200 C 0.05583 0.22839 0.37916 0.0
C201 C 0.04381 0.25171 0.37939 0.0
C202 C 0.07331 0.2232 0.33218 0.0
C203 C 0.07884 0.2418 0.28409 0.0
C204 C 0.06558 0.26484 0.28153 0.0
C205 C 0.04811 0.26954 0.32945 0.0
C206 C 0.08687 0.19832 0.33633 0.0
C207 C 0.07083 0.28498 0.23048 0.0
H208 H 0.16362 0.24148 0.23787 0.0
H209 H 0.11232 0.20837 0.09926 0.0
H210 H 0.11853 0.27443 0.32422 0.0
H211 H 0.12473 0.24481 0.36478 0.0
H212 H 0.15006 0.26222 0.32917 0.0
H213 H 0.06872 0.21102 0.10742 0.0
H214 H 0.06154 0.20358 0.19105 0.0
H215 H 0.05658 0.23473 0.1586 0.0
H216 H 0.05224 0.21452 0.41758 0.0
H217 H 0.03886 0.28761 0.32993 0.0
H218 H 0.10702 0.2014 0.34847 0.0
H219 H 0.08563 0.18918 0.28854 0.0
H220 H 0.07916 0.18531 0.374 0.0
H221 H 0.08972 0.29296 0.24024 0.0
H222 H 0.05687 0.30043 0.23018 0.0
H223 H 0.07082 0.27699 0.18122 0.0
C224 C 0.25886 0.64201 0.71886 0.0
C225 C 0.27389 0.63834 0.66519 0.0
C226 C 0.2517 0.62181 0.75944 0.0
C227 C 0.25969 0.59727 0.74603 0.0
C228 C 0.27404 0.59324 0.69064 0.0
C229 C 0.28103 0.61382 0.65092 0.0
C230 C 0.23633 0.6269 0.81812 0.0
C231 C 0.28272 0.56731 0.67461 0.0
C232 C 0.26425 0.55658 0.8998 0.0
C233 C 0.24079 0.54485 0.89863 0.0
C234 C 0.27146 0.57229 0.84781 0.0
C235 C 0.25469 0.57641 0.79356 0.0
C236 C 0.23183 0.56295 0.78981 0.0
C237 C 0.22512 0.54723 0.8427 0.0
C238 C 0.29609 0.5861 0.8536 0.0
C239 C 0.21358 0.56668 0.73252 0.0
H240 H 0.25306 0.66079 0.73018 0.0
H241 H 0.29246 0.6107 0.60927 0.0
H242 H 0.21933 0.61495 0.81795 0.0
H243 H 0.24743 0.62209 0.86354 0.0
H244 H 0.23043 0.64682 0.81956 0.0
H245 H 0.29139 0.56696 0.62616 0.0
H246 H 0.29673 0.5605 0.7123 0.0
H247 H 0.26678 0.55398 0.67514 0.0
H248 H 0.27633 0.5546 0.94328 0.0
H249 H 0.2069 0.53823 0.84222 0.0
H250 H 0.29245 0.60622 0.86169 0.0
H251 H 0.30646 0.58499 0.80784 0.0
H252 H 0.3082 0.57855 0.89478 0.0
H253 H 0.2042 0.58513 0.73565 0.0
H254 H 0.19895 0.55189 0.73159 0.0
H255 H 0.22349 0.56678 0.68582 0.0
C256 C 0.86109 0.76658 0.21514 0.0
C257 C 0.86371 0.77336 0.14918 0.0
C258 C 0.88176 0.75848 0.25414 0.0
C259 C 0.90555 0.75657 0.22611 0.0
C260 C 0.90826 0.76289 0.15919 0.0
C261 C 0.88732 0.77151 0.12159 0.0
C262 C 0.87815 0.75232 0.32568 0.0
C263 C 0.93321 0.76051 0.12744 0.0
C264 C 0.95716 0.75913 0.35576 0.0
C265 C 0.95964 0.73373 0.37364 0.0
C266 C 0.94114 0.76688 0.30345 0.0
C267 C 0.9275 0.74866 0.26831 0.0
C268 C 0.932 0.72284 0.28217 0.0
C269 C 0.94786 0.71565 0.33551 0.0
C270 C 0.93673 0.79458 0.29081 0.0
C271 C 0.91825 0.70285 0.24492 0.0
H272 H 0.84292 0.7681 0.23673 0.0
H273 H 0.88935 0.77647 0.07035 0.0
H274 H 0.88342 0.73253 0.3372 0.0
H275 H 0.89056 0.76426 0.35607 0.0
H276 H 0.85849 0.75517 0.33996 0.0
H277 H 0.93195 0.76521 0.07426 0.0
H278 H 0.94712 0.77313 0.15074 0.0
H279 H 0.94043 0.7411 0.13474 0.0
H280 H 0.96604 0.77302 0.38632 0.0
H281 H 0.9496 0.69602 0.35028 0.0
H282 H 0.91828 0.79977 0.30987 0.0
H283 H 0.9362 0.7993 0.23774 0.0
H284 H 0.95142 0.80611 0.31504 0.0
H285 H 0.89874 0.70142 0.26169 0.0
H286 H 0.92733 0.68422 0.25263 0.0
H287 H 0.91729 0.70771 0.19188 0.0
C288 C 0.71436 0.38403 0.63158 0.0
C289 C 0.72001 0.35967 0.65557 0.0
C290 C 0.72012 0.405 0.66871 0.0
C291 C 0.73139 0.40147 0.73173 0.0
C292 C 0.73789 0.377 0.75533 0.0
C293 C 0.73229 0.3564 0.71673 0.0
C294 C 0.71335 0.43082 0.64144 0.0
C295 C 0.74972 0.37246 0.82264 0.0
C296 C 0.75987 0.45379 0.83116 0.0
C297 C 0.74069 0.45793 0.87452 0.0
C298 C 0.7567 0.43635 0.78161 0.0
C299 C 0.73392 0.42284 0.77602 0.0
C300 C 0.71399 0.42826 0.81703 0.0
C301 C 0.71758 0.44585 0.86547 0.0
C302 C 0.77819 0.43137 0.73786 0.0
C303 C 0.68936 0.41434 0.81262 0.0
H304 H 0.70525 0.38674 0.5838 0.0
H305 H 0.73678 0.33765 0.73545 0.0
H306 H 0.69756 0.43842 0.66855 0.0
H307 H 0.7294 0.44383 0.64777 0.0
H308 H 0.7077 0.43065 0.58881 0.0
H309 H 0.75505 0.35252 0.83207 0.0
H310 H 0.76669 0.38424 0.82897 0.0
H311 H 0.73636 0.37789 0.86003 0.0
H312 H 0.77775 0.46312 0.8382 0.0
H313 H 0.70261 0.44939 0.89842 0.0
H314 H 0.77145 0.43065 0.68619 0.0
H315 H 0.78663 0.41288 0.75157 0.0
H316 H 0.79303 0.44589 0.74182 0.0
H317 H 0.68153 0.41528 0.76183 0.0
H318 H 0.67525 0.42196 0.84531 0.0
H319 H 0.69248 0.39427 0.82628 0.0
C320 C 0.6447 0.25607 0.29439 0.0
C321 C 0.64012 0.27097 0.3478 0.0
C322 C 0.62495 0.24772 0.25397 0.0
C323 C 0.6 0.2543 0.26746 0.0
C324 C 0.59511 0.26812 0.32329 0.0
C325 C 0.61525 0.27638 0.3627 0.0
C326 C 0.63091 0.23301 0.19474 0.0
C327 C 0.56874 0.27524 0.33959 0.0
C328 C 0.55895 0.26161 0.11488 0.0
C329 C 0.54705 0.23826 0.11302 0.0
C330 C 0.57524 0.26751 0.16683 0.0
C331 C 0.57967 0.2496 0.2183 0.0
C332 C 0.56639 0.2266 0.21888 0.0
C333 C 0.55012 0.22116 0.16587 0.0
C334 C 0.58889 0.29232 0.16443 0.0
C335 C 0.57046 0.20722 0.2734 0.0
H336 H 0.6638 0.25157 0.28276 0.0
H337 H 0.61145 0.28753 0.40448 0.0
H338 H 0.61921 0.21586 0.19265 0.0
H339 H 0.62646 0.24453 0.1498 0.0
H340 H 0.65096 0.22744 0.1945 0.0
H341 H 0.5678 0.28267 0.38943 0.0
H342 H 0.56161 0.28986 0.30399 0.0
H343 H 0.55604 0.25886 0.33588 0.0
H344 H 0.55627 0.27488 0.07404 0.0
H345 H 0.54086 0.2031 0.1641 0.0
H346 H 0.6092 0.28901 0.15853 0.0
H347 H 0.58685 0.30213 0.21079 0.0
H348 H 0.5819 0.30484 0.12346 0.0
H349 H 0.58919 0.1985 0.2694 0.0
H350 H 0.55608 0.19218 0.27174 0.0
H351 H 0.57013 0.21605 0.32159 0.0
C352 C 0.21475 0.11997 0.87311 0.0
C353 C 0.22075 0.14472 0.854 0.0
C354 C 0.22139 0.0997 0.8355 0.0
C355 C 0.23418 0.10426 0.77707 0.0
C356 C 0.24108 0.12905 0.75859 0.0
C357 C 0.23435 0.14899 0.79741 0.0
C358 C 0.2139 0.07352 0.85709 0.0
C359 C 0.25468 0.13464 0.69641 0.0
C360 C 0.26485 0.05174 0.68728 0.0
C361 C 0.24692 0.04784 0.63723 0.0
C362 C 0.26069 0.06953 0.73485 0.0
C363 C 0.2381 0.08354 0.73189 0.0
C364 C 0.21944 0.07861 0.68337 0.0
C365 C 0.22408 0.06079 0.63676 0.0
C366 C 0.28089 0.07416 0.78629 0.0
C367 C 0.19502 0.09296 0.67879 0.0
H368 H 0.20457 0.11638 0.9173 0.0
H369 H 0.2392 0.16799 0.78244 0.0
H370 H 0.19925 0.0664 0.82279 0.0
H371 H 0.23016 0.06061 0.85608 0.0
H372 H 0.20645 0.07285 0.90705 0.0
H373 H 0.26034 0.15462 0.69147 0.0
H374 H 0.27167 0.12275 0.69471 0.0
H375 H 0.24238 0.13009 0.65372 0.0
H376 H 0.28256 0.0418 0.68734 0.0
H377 H 0.21012 0.05754 0.59831 0.0
H378 H 0.27285 0.07392 0.83549 0.0
H379 H 0.28914 0.093 0.77758 0.0
H380 H 0.29614 0.06 0.78606 0.0
H381 H 0.18554 0.09163 0.72608 0.0
H382 H 0.182 0.08595 0.64009 0.0
H383 H 0.19877 0.11309 0.668 0.0
C384 C 0.34962 0.73829 0.29351 0.0
C385 C 0.35389 0.7249 0.3528 0.0
C386 C 0.36949 0.7441 0.25249 0.0
C387 C 0.39418 0.73654 0.2716 0.0
C388 C 0.39877 0.72423 0.33291 0.0
C389 C 0.37857 0.71846 0.37261 0.0
C390 C 0.36389 0.75721 0.18728 0.0
C391 C 0.42484 0.71609 0.35533 0.0
C392 C 0.43682 0.72206 0.13414 0.0
C393 C 0.45104 0.74405 0.12865 0.0
C394 C 0.41861 0.71927 0.18129 0.0
C395 C 0.41464 0.73891 0.22446 0.0
C396 C 0.42973 0.76073 0.22123 0.0
C397 C 0.44784 0.76305 0.17317 0.0
C398 C 0.40308 0.6956 0.18345 0.0
C399 C 0.42614 0.78192 0.26693 0.0
H400 H 0.33065 0.74343 0.278 0.0
H401 H 0.38214 0.70849 0.41891 0.0
H402 H 0.37656 0.77348 0.18037 0.0
H403 H 0.36731 0.74415 0.14753 0.0
H404 H 0.34418 0.76386 0.18225 0.0
H405 H 0.42567 0.70945 0.40728 0.0
H406 H 0.43114 0.70063 0.32493 0.0
H407 H 0.43829 0.73177 0.34912 0.0
H408 H 0.43955 0.7072 0.10026 0.0
H409 H 0.45876 0.78011 0.1687 0.0
H410 H 0.38305 0.70027 0.17318 0.0
H411 H 0.40452 0.68655 0.2329 0.0
H412 H 0.40901 0.68187 0.14744 0.0
H413 H 0.40747 0.79063 0.2569 0.0
H414 H 0.44071 0.79664 0.26163 0.0
H415 H 0.42659 0.77472 0.31832 0.0
C416 C 0.74914 0.86228 0.82917 0.0
C417 C 0.774 0.85393 0.82934 0.0
C418 C 0.74096 0.88209 0.78697 0.0
C419 C 0.75784 0.89287 0.74227 0.0
C420 C 0.783 0.88437 0.7425 0.0
C421 C 0.7909 0.8653 0.78707 0.0
C422 C 0.71433 0.89138 0.78997 0.0
C423 C 0.80139 0.89483 0.69428 0.0
C424 C 0.73531 0.92187 0.58041 0.0
C425 C 0.74222 0.94705 0.58748 0.0
C426 C 0.73919 0.90415 0.63155 0.0
C427 C 0.74913 0.91198 0.69234 0.0
C428 C 0.75353 0.93776 0.7021 0.0
C429 C 0.7504 0.95499 0.6492 0.0
C430 C 0.73463 0.87679 0.61863 0.0
C431 C 0.76312 0.94694 0.76713 0.0
H432 H 0.73623 0.85353 0.86268 0.0
H433 H 0.8101 0.85865 0.78743 0.0
H434 H 0.71414 0.91204 0.79439 0.0
H435 H 0.70377 0.88709 0.74421 0.0
H436 H 0.70439 0.88268 0.83171 0.0
H437 H 0.82012 0.88581 0.70027 0.0
H438 H 0.79411 0.89205 0.64369 0.0
H439 H 0.80368 0.91528 0.70022 0.0
H440 H 0.7281 0.91571 0.53357 0.0
H441 H 0.75574 0.97436 0.6555 0.0
H442 H 0.72305 0.86803 0.65697 0.0
H443 H 0.75283 0.86669 0.62 0.0
H444 H 0.72515 0.87402 0.57034 0.0
H445 H 0.75313 0.93754 0.80772 0.0
H446 H 0.76088 0.96755 0.77045 0.0
H447 H 0.78332 0.94235 0.77397 0.0
C448 C 0.87673 0.7724 0.84288 0.0
C449 C 0.85148 0.76529 0.83543 0.0
C450 C 0.89492 0.76336 0.80192 0.0
C451 C 0.88776 0.74679 0.75222 0.0
C452 C 0.86257 0.73864 0.74617 0.0
C453 C 0.84471 0.74801 0.78782 0.0
C454 C 0.9216 0.77251 0.80991 0.0
C455 C 0.85427 0.7209 0.69385 0.0
C456 C 0.92531 0.7509 0.59921 0.0
C457 C 0.94098 0.72985 0.60688 0.0
C458 C 0.90781 0.75638 0.64589 0.0
C459 C 0.90593 0.74046 0.70202 0.0
C460 C 0.92176 0.71921 0.71046 0.0
C461 C 0.93926 0.7142 0.66276 0.0
C462 C 0.89147 0.77937 0.6353 0.0
C463 C 0.92019 0.70184 0.76972 0.0
H464 H 0.8823 0.7855 0.87994 0.0
H465 H 0.82534 0.74218 0.78201 0.0
H466 H 0.93485 0.75648 0.81164 0.0
H467 H 0.92626 0.78473 0.76721 0.0
H468 H 0.92462 0.78333 0.85486 0.0
H469 H 0.83477 0.71422 0.70014 0.0
H470 H 0.85531 0.73051 0.64522 0.0
H471 H 0.86694 0.70442 0.69407 0.0
H472 H 0.92696 0.76336 0.55674 0.0
H473 H 0.95134 0.69791 0.66867 0.0
H474 H 0.89484 0.79239 0.67574 0.0
H475 H 0.8714 0.77398 0.63552 0.0
H476 H 0.89504 0.78956 0.58843 0.0
H477 H 0.92422 0.71235 0.81466 0.0
H478 H 0.93355 0.68592 0.76851 0.0
H479 H 0.90091 0.69426 0.77312 0.0
C480 C 0.72755 0.36069 0.28601 0.0
C481 C 0.71475 0.36293 0.34409 0.0
C482 C 0.73229 0.38175 0.2458 0.0
C483 C 0.72424 0.40569 0.26441 0.0
C484 C 0.71215 0.40826 0.32408 0.0
C485 C 0.70741 0.38682 0.3631 0.0
C486 C 0.74518 0.37826 0.18225 0.0
C487 C 0.70361 0.43353 0.34582 0.0
C488 C 0.75343 0.4585 0.16541 0.0
C489 C 0.73549 0.46158 0.11435 0.0
C490 C 0.74931 0.44155 0.21775 0.0
C491 C 0.7268 0.4275 0.21843 0.0
C492 C 0.70782 0.4322 0.16975 0.0
C493 C 0.7124 0.44925 0.11831 0.0
C494 C 0.76982 0.43727 0.26938 0.0
C495 C 0.68349 0.41775 0.1689 0.0
H496 H 0.73337 0.34235 0.27103 0.0
H497 H 0.6978 0.38879 0.40838 0.0
H498 H 0.73225 0.38366 0.14065 0.0
H499 H 0.76184 0.39062 0.17937 0.0
H500 H 0.75128 0.35859 0.17642 0.0
H501 H 0.69695 0.4327 0.39659 0.0
H502 H 0.7191 0.44733 0.34276 0.0
H503 H 0.68809 0.44058 0.31286 0.0
H504 H 0.77131 0.46802 0.16217 0.0
H505 H 0.69844 0.45192 0.07903 0.0
H506 H 0.77934 0.41923 0.26119 0.0
H507 H 0.76193 0.43598 0.31873 0.0
H508 H 0.78406 0.45244 0.26825 0.0
H509 H 0.68722 0.39794 0.15744 0.0
H510 H 0.66968 0.42559 0.13196 0.0
H511 H 0.67501 0.41774 0.21751 0.0
C512 C 0.1125 0.22397 0.87586 0.0
C513 C 0.1369 0.22874 0.85513 0.0
C514 C 0.0915 0.23087 0.83634 0.0
C515 C 0.09504 0.24242 0.77432 0.0
C516 C 0.11957 0.24832 0.75444 0.0
C517 C 0.1402 0.24155 0.7953 0.0
C518 C 0.06562 0.22474 0.8597 0.0
C519 C 0.12412 0.26051 0.68838 0.0
C520 C 0.05143 0.23025 0.63064 0.0
C521 C 0.04025 0.25378 0.61929 0.0
C522 C 0.06816 0.22584 0.68364 0.0
C523 C 0.07367 0.24547 0.72657 0.0
C524 C 0.06078 0.26863 0.71855 0.0
C525 C 0.04415 0.27257 0.66456 0.0
C526 C 0.08138 0.20082 0.69054 0.0
C527 C 0.06586 0.28979 0.76413 0.0
H528 H 0.10977 0.21447 0.92262 0.0
H529 H 0.15897 0.24542 0.77909 0.0
H530 H 0.05281 0.24093 0.85048 0.0
H531 H 0.05779 0.20882 0.8322 0.0
H532 H 0.06585 0.21949 0.91259 0.0
H533 H 0.14412 0.26555 0.68237 0.0
H534 H 0.11841 0.2475 0.64947 0.0
H535 H 0.11259 0.27772 0.68098 0.0
H536 H 0.0481 0.21567 0.59575 0.0
H537 H 0.03547 0.29077 0.65557 0.0
H538 H 0.08025 0.19304 0.74115 0.0
H539 H 0.10152 0.20334 0.68031 0.0
H540 H 0.07335 0.18693 0.65651 0.0
H541 H 0.06678 0.28276 0.81567 0.0
H542 H 0.05128 0.30463 0.75855 0.0
H543 H 0.08428 0.29835 0.75349 0.0
C544 C 0.27968 0.63523 0.30926 0.0
C545 C 0.26476 0.64746 0.35297 0.0
C546 C 0.26939 0.61712 0.26831 0.0
C547 C 0.24378 0.61047 0.27323 0.0
C548 C 0.22885 0.62223 0.31913 0.0
C549 C 0.23944 0.64103 0.35768 0.0
C550 C 0.28577 0.60558 0.21867 0.0
C551 C 0.2018 0.61495 0.32752 0.0
C552 C 0.2158 0.58323 0.11941 0.0
C553 C 0.22118 0.55762 0.1297 0.0
C554 C 0.22191 0.60061 0.16709 0.0
C555 C 0.23265 0.59207 0.22778 0.0
C556 C 0.23552 0.56601 0.24122 0.0
C557 C 0.23008 0.54908 0.19166 0.0
C558 C 0.21887 0.62823 0.15023 0.0
C559 C 0.24594 0.55612 0.30638 0.0
H560 H 0.29926 0.64039 0.30592 0.0
H561 H 0.22808 0.65045 0.39228 0.0
H562 H 0.28686 0.585 0.22747 0.0
H563 H 0.27744 0.60898 0.16883 0.0
H564 H 0.3051 0.61328 0.22016 0.0
H565 H 0.19331 0.62465 0.36851 0.0
H566 H 0.19067 0.61959 0.28211 0.0
H567 H 0.20035 0.5944 0.33666 0.0
H568 H 0.2081 0.58993 0.07243 0.0
H569 H 0.23427 0.52937 0.20043 0.0
H570 H 0.23765 0.63697 0.14627 0.0
H571 H 0.20911 0.63781 0.18924 0.0
H572 H 0.20823 0.63168 0.10329 0.0
H573 H 0.26647 0.55934 0.30943 0.0
H574 H 0.2425 0.5357 0.31346 0.0
H575 H 0.23754 0.56612 0.3469 0.0
C576 C 0.36082 0.72816 0.72297 0.0
C577 C 0.36263 0.71586 0.66395 0.0
C578 C 0.38221 0.73321 0.76173 0.0
C579 C 0.4061 0.72604 0.7407 0.0
C580 C 0.40821 0.71447 0.68007 0.0
C581 C 0.38642 0.70934 0.64256 0.0
C582 C 0.37912 0.74545 0.8264 0.0
C583 C 0.43339 0.70692 0.65567 0.0
C584 C 0.45792 0.75639 0.84089 0.0
C585 C 0.46148 0.73824 0.89116 0.0
C586 C 0.44142 0.75189 0.78766 0.0
C587 C 0.42831 0.72882 0.78548 0.0
C588 C 0.43381 0.70965 0.8331 0.0
C589 C 0.45037 0.71462 0.88537 0.0
C590 C 0.43639 0.77261 0.73711 0.0
C591 C 0.42036 0.68476 0.8326 0.0
H592 H 0.34257 0.73333 0.73987 0.0
H593 H 0.38804 0.70013 0.59657 0.0
H594 H 0.38548 0.73239 0.86686 0.0
H595 H 0.39093 0.7625 0.82915 0.0
H596 H 0.35937 0.75079 0.8343 0.0
H597 H 0.43215 0.70102 0.60422 0.0
H598 H 0.44688 0.72267 0.65941 0.0
H599 H 0.44111 0.6911 0.68652 0.0
H600 H 0.4665 0.77467 0.84563 0.0
H601 H 0.45334 0.70058 0.92432 0.0
H602 H 0.41826 0.78172 0.74667 0.0
H603 H 0.43489 0.76503 0.6874 0.0
H604 H 0.45129 0.78713 0.73828 0.0
H605 H 0.40057 0.6875 0.84575 0.0
H606 H 0.4291 0.67085 0.86786 0.0
H607 H 0.42019 0.67691 0.78319 0.0
C608 C 0.77072 0.86031 0.19216 0.0
C609 C 0.78616 0.86177 0.13817 0.0
C610 C 0.76631 0.88137 0.22911 0.0
C611 C 0.77753 0.90456 0.21164 0.0
C612 C 0.79241 0.90647 0.15596 0.0
C613 C 0.79662 0.88503 0.11993 0.0
C614 C 0.75028 0.87855 0.28827 0.0
C615 C 0.8045 0.93094 0.13565 0.0
C616 C 0.74887 0.95842 0.29895 0.0
C617 C 0.76434 0.95869 0.35539 0.0
C618 C 0.75402 0.9422 0.24849 0.0
C619 C 0.77509 0.92605 0.25522 0.0
C620 C 0.79197 0.92806 0.30951 0.0
C621 C 0.78635 0.94437 0.35903 0.0
C622 C 0.73577 0.94081 0.19094 0.0
C623 C 0.81474 0.91136 0.3184 0.0
H624 H 0.76239 0.84254 0.20653 0.0
H625 H 0.80842 0.88646 0.07801 0.0
H626 H 0.76178 0.88212 0.33309 0.0
H627 H 0.73491 0.89257 0.28532 0.0
H628 H 0.74192 0.85956 0.2933 0.0
H629 H 0.81324 0.92998 0.08739 0.0
H630 H 0.79047 0.9463 0.13342 0.0
H631 H 0.81921 0.9359 0.1725 0.0
H632 H 0.7318 0.96947 0.29643 0.0
H633 H 0.79835 0.94477 0.40275 0.0
H634 H 0.72402 0.92378 0.19669 0.0
H635 H 0.74583 0.93933 0.14477 0.0
H636 H 0.72319 0.95741 0.18688 0.0
H637 H 0.80867 0.89189 0.33017 0.0
H638 H 0.8276 0.91753 0.35845 0.0
H639 H 0.82525 0.91098 0.27272 0.0
C640 C 0.61898 0.27007 0.63174 0.0
C641 C 0.64392 0.26789 0.65531 0.0
C642 C 0.59908 0.26143 0.6692 0.0
C643 C 0.60422 0.25062 0.73206 0.0
C644 C 0.62939 0.24726 0.75489 0.0
C645 C 0.64898 0.25582 0.71604 0.0
C646 C 0.57252 0.26501 0.6428 0.0
C647 C 0.6356 0.23587 0.82187 0.0
C648 C 0.55865 0.25996 0.86595 0.0
C649 C 0.54851 0.23594 0.87415 0.0
C650 C 0.57604 0.26518 0.81796 0.0
C651 C 0.58347 0.24582 0.77719 0.0
C652 C 0.57217 0.22185 0.78276 0.0
C653 C 0.55472 0.21714 0.83155 0.0
C654 C 0.58748 0.29105 0.81339 0.0
C655 C 0.57947 0.20087 0.73965 0.0
H656 H 0.61491 0.27895 0.58425 0.0
H657 H 0.66819 0.25394 0.73439 0.0
H658 H 0.56151 0.24757 0.65004 0.0
H659 H 0.56328 0.27991 0.66984 0.0
H660 H 0.5718 0.27048 0.59003 0.0
H661 H 0.65602 0.23248 0.82995 0.0
H662 H 0.62927 0.24865 0.85964 0.0
H663 H 0.62554 0.21785 0.82894 0.0
H664 H 0.55373 0.27441 0.89925 0.0
H665 H 0.54695 0.19852 0.83859 0.0
H666 H 0.58564 0.2988 0.7626 0.0
H667 H 0.60779 0.28992 0.82657 0.0
H668 H 0.57859 0.30431 0.84627 0.0
H669 H 0.57939 0.20746 0.68777 0.0
H670 H 0.56672 0.18451 0.74431 0.0
H671 H 0.59882 0.19461 0.75326 0.0
C672 C 0.21919 0.11506 0.1422 0.0
C673 C 0.22391 0.13932 0.16408 0.0
C674 C 0.22577 0.09383 0.18122 0.0
C675 C 0.23693 0.09699 0.24391 0.0
C676 C 0.24272 0.12138 0.26507 0.0
C677 C 0.23629 0.14225 0.2247 0.0
C678 C 0.21977 0.06811 0.1565 0.0
C679 C 0.2545 0.12554 0.33187 0.0
C680 C 0.2243 0.05274 0.38589 0.0
C681 C 0.24788 0.04173 0.39785 0.0
C682 C 0.22001 0.06954 0.33297 0.0
C683 C 0.2398 0.07533 0.29085 0.0
C684 C 0.26301 0.06254 0.29936 0.0
C685 C 0.26683 0.04583 0.35322 0.0
C686 C 0.19493 0.08264 0.32558 0.0
C687 C 0.28436 0.06789 0.25465 0.0
H688 H 0.21001 0.11262 0.09487 0.0
H689 H 0.24011 0.1609 0.24183 0.0
H690 H 0.23592 0.05526 0.16576 0.0
H691 H 0.20371 0.0601 0.18308 0.0
H692 H 0.21478 0.06866 0.10343 0.0
H693 H 0.25939 0.14551 0.33909 0.0
H694 H 0.24129 0.11949 0.36994 0.0
H695 H 0.27174 0.11407 0.33941 0.0
H696 H 0.20964 0.04934 0.42044 0.0
H697 H 0.28508 0.03731 0.36278 0.0
H698 H 0.18748 0.08185 0.27456 0.0
H699 H 0.19726 0.1027 0.33702 0.0
H700 H 0.18087 0.07427 0.35854 0.0
H701 H 0.27755 0.06907 0.20292 0.0
H702 H 0.2992 0.05331 0.26016 0.0
H703 H 0.29285 0.08625 0.2663 0.0
C704 C 0.2109 0.31489 0.95937 0.0
C705 C 0.2153 0.29987 0.01612 0.0
C706 C 0.21135 0.34119 0.96154 0.0
C707 C 0.21656 0.35271 0.02171 0.0
C708 C 0.22053 0.33769 0.07926 0.0
C709 C 0.21975 0.31152 0.07582 0.0
C710 C 0.20675 0.35664 0.89932 0.0
C711 C 0.22631 0.34923 0.14436 0.0
C712 C 0.2461 0.41723 0.02726 0.0
C713 C 0.22585 0.43209 0.04426 0.0
C714 C 0.24308 0.39153 0.01718 0.0
C715 C 0.21922 0.38041 0.02454 0.0
C716 C 0.19852 0.39547 0.0399 0.0
C717 C 0.20215 0.42113 0.05025 0.0
C718 C 0.26568 0.3761 0.00152 0.0
C719 C 0.17278 0.38431 0.04786 0.0
H720 H 0.20727 0.30612 0.91308 0.0
H721 H 0.22319 0.30018 0.12003 0.0
H722 H 0.19168 0.37055 0.90592 0.0
H723 H 0.22393 0.36726 0.88725 0.0
H724 H 0.20136 0.3449 0.85736 0.0
H725 H 0.22812 0.33495 0.18488 0.0
H726 H 0.2441 0.35993 0.14216 0.0
H727 H 0.21134 0.36264 0.15581 0.0
H728 H 0.26453 0.42559 0.02361 0.0
H729 H 0.18658 0.43254 0.0645 0.0
H730 H 0.26169 0.36515 0.95733 0.0
H731 H 0.27004 0.3625 0.04243 0.0
H732 H 0.28252 0.38786 0.99326 0.0
H733 H 0.16749 0.37293 0.00523 0.0
H734 H 0.15823 0.39891 0.05325 0.0
H735 H 0.17292 0.37159 0.09175 0.0
C736 C 0.18541 0.71882 0.47092 0.0
C737 C 0.20078 0.72293 0.52644 0.0
C738 C 0.15919 0.71992 0.4737 0.0
C739 C 0.14808 0.72555 0.53318 0.0
C740 C 0.16345 0.72944 0.58954 0.0
C741 C 0.18959 0.72794 0.58559 0.0
C742 C 0.14337 0.71535 0.41281 0.0
C743 C 0.15231 0.73573 0.65374 0.0
C744 C 0.08321 0.75475 0.52795 0.0
C745 C 0.06819 0.73433 0.54613 0.0
C746 C 0.10918 0.75204 0.5226 0.0
C747 C 0.12042 0.72833 0.53606 0.0
C748 C 0.10535 0.70759 0.55429 0.0
C749 C 0.07942 0.71091 0.5599 0.0
C750 C 0.12465 0.77469 0.50388 0.0
C751 C 0.11667 0.68202 0.56882 0.0
H752 H 0.19386 0.71471 0.42515 0.0
H753 H 0.20128 0.73121 0.62871 0.0
H754 H 0.12959 0.70024 0.42253 0.0
H755 H 0.13259 0.73252 0.39826 0.0
H756 H 0.15484 0.71001 0.37124 0.0
H757 H 0.16683 0.73763 0.69338 0.0
H758 H 0.14171 0.75359 0.64808 0.0
H759 H 0.13887 0.72096 0.6688 0.0
H760 H 0.07463 0.77299 0.51875 0.0
H761 H 0.06794 0.69524 0.57556 0.0
H762 H 0.13538 0.77091 0.45986 0.0
H763 H 0.13847 0.77866 0.54385 0.0
H764 H 0.11296 0.79167 0.49374 0.0
H765 H 0.12761 0.67611 0.52692 0.0
H766 H 0.10222 0.66757 0.57909 0.0
H767 H 0.12985 0.68278 0.61171 0.0
C768 C 0.79611 0.68882 0.07117 0.0
C769 C 0.78199 0.70074 0.02024 0.0
C770 C 0.79914 0.66266 0.07372 0.0
C771 C 0.78732 0.64817 0.02497 0.0
C772 C 0.77255 0.6601 0.97441 0.0
C773 C 0.77029 0.68625 0.97229 0.0
C774 C 0.8154 0.6506 0.12765 0.0
C775 C 0.75922 0.64524 0.92226 0.0
C776 C 0.80969 0.58338 0.98332 0.0
C777 C 0.79199 0.56812 0.01404 0.0
C778 C 0.80918 0.6095 0.98914 0.0
C779 C 0.79035 0.6205 0.02602 0.0
C780 C 0.77315 0.60503 0.05952 0.0
C781 C 0.77439 0.57897 0.05378 0.0
C782 C 0.82818 0.62538 0.95389 0.0
C783 C 0.75267 0.61603 0.09882 0.0
H784 H 0.80539 0.70001 0.10797 0.0
H785 H 0.75921 0.69539 0.9331 0.0
H786 H 0.80452 0.63639 0.15532 0.0
H787 H 0.8313 0.64069 0.10634 0.0
H788 H 0.82304 0.6645 0.16224 0.0
H789 H 0.7477 0.65732 0.88779 0.0
H790 H 0.77311 0.63506 0.89403 0.0
H791 H 0.74684 0.631 0.94511 0.0
H792 H 0.82359 0.57493 0.95357 0.0
H793 H 0.761 0.56705 0.0785 0.0
H794 H 0.83706 0.63887 0.98759 0.0
H795 H 0.81866 0.63646 0.91359 0.0
H796 H 0.84309 0.61388 0.93301 0.0
H797 H 0.76071 0.62919 0.13466 0.0
H798 H 0.74188 0.60139 0.12543 0.0
H799 H 0.73951 0.62692 0.06579 0.0
C800 C 0.81387 0.28549 0.55014 0.0
C801 C 0.79787 0.29501 0.49968 0.0
C802 C 0.83996 0.28818 0.54697 0.0
C803 C 0.85019 0.30117 0.49273 0.0
C804 C 0.83405 0.31174 0.44303 0.0
C805 C 0.80808 0.30828 0.44674 0.0
C806 C 0.85661 0.2763 0.60037 0.0
C807 C 0.84422 0.32619 0.38519 0.0
C808 C 0.91822 0.32178 0.50923 0.0
C809 C 0.93038 0.30277 0.47691 0.0
C810 C 0.89203 0.32179 0.51392 0.0
C811 C 0.8778 0.30223 0.48592 0.0
C812 C 0.88997 0.28335 0.45183 0.0
C813 C 0.91608 0.28409 0.44684 0.0
C814 C 0.8796 0.34257 0.54917 0.0
C815 C 0.87548 0.26211 0.4216 0.0
H816 H 0.80606 0.27514 0.59102 0.0
H817 H 0.79574 0.31594 0.40799 0.0
H818 H 0.86834 0.26154 0.57971 0.0
H819 H 0.86952 0.29046 0.62117 0.0
H820 H 0.84569 0.2677 0.64048 0.0
H821 H 0.8291 0.33514 0.35396 0.0
H822 H 0.85734 0.34095 0.40196 0.0
H823 H 0.85494 0.31341 0.35494 0.0
H824 H 0.92924 0.33653 0.53123 0.0
H825 H 0.92541 0.26973 0.42042 0.0
H826 H 0.87004 0.3347 0.59243 0.0
H827 H 0.86504 0.3518 0.51679 0.0
H828 H 0.89321 0.35698 0.56563 0.0
H829 H 0.86511 0.25163 0.45974 0.0
H830 H 0.88784 0.24879 0.39733 0.0
H831 H 0.86143 0.26963 0.38501 0.0
C832 C 0.73378 0.19024 0.55944 0.0
C833 C 0.72634 0.20378 0.50223 0.0
C834 C 0.73761 0.16425 0.5591 0.0
C835 C 0.73365 0.15143 0.50031 0.0
C836 C 0.72539 0.16482 0.44288 0.0
C837 C 0.72195 0.19086 0.44442 0.0
C838 C 0.74662 0.15063 0.62124 0.0
C839 C 0.72069 0.15172 0.37947 0.0
C840 C 0.76925 0.09064 0.48343 0.0
C841 C 0.75099 0.0727 0.49827 0.0
C842 C 0.76374 0.11632 0.4831 0.0
C843 C 0.73937 0.12423 0.49827 0.0
C844 C 0.72079 0.10619 0.51319 0.0
C845 C 0.72692 0.0806 0.5138 0.0
C846 C 0.78414 0.13499 0.46774 0.0
C847 C 0.69459 0.11393 0.5294 0.0
H848 H 0.73727 0.20003 0.60431 0.0
H849 H 0.71599 0.2011 0.40009 0.0
H850 H 0.73383 0.13489 0.63318 0.0
H851 H 0.76543 0.14247 0.61439 0.0
H852 H 0.74784 0.16316 0.66343 0.0
H853 H 0.71285 0.16456 0.3402 0.0
H854 H 0.73849 0.14373 0.36295 0.0
H855 H 0.70748 0.1359 0.38673 0.0
H856 H 0.78802 0.08455 0.47291 0.0
H857 H 0.71296 0.06675 0.5269 0.0
H858 H 0.78771 0.14707 0.51008 0.0
H859 H 0.7781 0.14743 0.42574 0.0
H860 H 0.802 0.12574 0.45595 0.0
H861 H 0.69517 0.12489 0.57445 0.0
H862 H 0.68202 0.09757 0.53688 0.0
H863 H 0.68639 0.12625 0.48958 0.0
C864 C 0.30842 0.21224 0.95243 0.0
C865 C 0.2964 0.21818 0.00976 0.0
C866 C 0.33458 0.2135 0.94891 0.0
C867 C 0.34905 0.22121 0.00373 0.0
C868 C 0.33714 0.22643 0.06242 0.0
C869 C 0.31095 0.22469 0.06487 0.0
C870 C 0.34665 0.2074 0.88579 0.0
C871 C 0.35194 0.23496 0.12171 0.0
C872 C 0.41967 0.21137 0.01007 0.0
C873 C 0.42814 0.23486 0.98724 0.0
C874 C 0.39392 0.20649 0.0149 0.0
C875 C 0.37637 0.22571 -0.00198 0.0
C876 C 0.38488 0.24951 0.97587 0.0
C877 C 0.41064 0.25376 0.97076 0.0
C878 C 0.38548 0.18084 0.03832 0.0
C879 C 0.36679 0.27061 0.95818 0.0
H880 H 0.29733 0.2069 0.90984 0.0
H881 H 0.30183 0.22936 0.10931 0.0
H882 H 0.35493 0.22464 0.86385 0.0
H883 H 0.36211 0.19374 0.89518 0.0
H884 H 0.33304 0.19955 0.84974 0.0
H885 H 0.34009 0.2366 0.16488 0.0
H886 H 0.36746 0.22168 0.1344 0.0
H887 H 0.36049 0.2535 0.11074 0.0
H888 H 0.43308 0.19681 0.02433 0.0
H889 H 0.41724 0.27205 0.95441 0.0
H890 H 0.37243 0.17271 0.00145 0.0
H891 H 0.37509 0.18237 0.08395 0.0
H892 H 0.40145 0.16772 0.04773 0.0
H893 H 0.35365 0.26495 0.91827 0.0
H894 H 0.3765 0.28805 0.94222 0.0
H895 H 0.3554 0.27476 0.00079 0.0
C896 C 0.27987 0.81482 0.47158 0.0
C897 C 0.28886 0.79895 0.52301 0.0
C898 C 0.28181 0.84096 0.47518 0.0
C899 C 0.29343 0.85147 0.53103 0.0
C900 C 0.30324 0.83554 0.58222 0.0
C901 C 0.30063 0.80948 0.57787 0.0
C902 C 0.27081 0.85736 0.42002 0.0
C903 C 0.31617 0.84603 0.64199 0.0
C904 C 0.31444 0.91943 0.51567 0.0
C905 C 0.29473 0.93186 0.5445 0.0
C906 C 0.31448 0.89321 0.51172 0.0
C907 C 0.2943 0.87916 0.53707 0.0
C908 C 0.27465 0.8916 0.56758 0.0
C909 C 0.27531 0.91776 0.57183 0.0
C910 C 0.33604 0.88054 0.48016 0.0
C911 C 0.25273 0.87731 0.59494 0.0
H912 H 0.27066 0.80683 0.42918 0.0
H913 H 0.30785 0.79732 0.61752 0.0
H914 H 0.25569 0.86922 0.43845 0.0
H915 H 0.28535 0.87014 0.4006 0.0
H916 H 0.26292 0.84625 0.37932 0.0
H917 H 0.32421 0.83109 0.67541 0.0
H918 H 0.33145 0.85892 0.6274 0.0
H919 H 0.30265 0.8571 0.66919 0.0
H920 H 0.32976 0.93027 0.49594 0.0
H921 H 0.26039 0.92726 0.59573 0.0
H922 H 0.32908 0.87062 0.43645 0.0
H923 H 0.34465 0.86625 0.51445 0.0
H924 H 0.35075 0.89406 0.46512 0.0
H925 H 0.24307 0.86677 0.5557 0.0
H926 H 0.2389 0.88983 0.61675 0.0
H927 H 0.25945 0.8634 0.63293 0.0
C928 C 0.69112 0.79705 0.07017 0.0
C929 C 0.70164 0.78604 0.01626 0.0
C930 C 0.665 0.79902 0.07497 0.0
C931 C 0.64908 0.7893 0.02531 0.0
C932 C 0.6596 0.77824 0.97072 0.0
C933 C 0.68574 0.77696 0.96657 0.0
C934 C 0.65446 0.81137 0.1333 0.0
C935 C 0.64325 0.7673 0.91727 0.0
C936 C 0.58279 0.77002 0.06566 0.0
C937 C 0.56857 0.78929 0.03444 0.0
C938 C 0.60902 0.7699 0.06348 0.0
C939 C 0.62138 0.78995 0.03109 0.0
C940 C 0.60719 0.81006 0.00219 0.0
C941 C 0.58092 0.80947 0.00416 0.0
C942 C 0.62347 0.74804 0.09456 0.0
C943 C 0.61974 0.83202 0.96847 0.0
H944 H 0.7033 0.80431 0.10847 0.0
H945 H 0.69372 0.76828 0.92495 0.0
H946 H 0.64159 0.82681 0.11688 0.0
H947 H 0.64335 0.79761 0.16187 0.0
H948 H 0.66937 0.81909 0.16598 0.0
H949 H 0.65438 0.75948 0.87791 0.0
H950 H 0.63138 0.75216 0.93807 0.0
H951 H 0.63046 0.7819 0.89539 0.0
H952 H 0.57335 0.75475 0.09085 0.0
H953 H 0.56997 0.8247 0.98153 0.0
H954 H 0.63735 0.75477 0.13143 0.0
H955 H 0.63406 0.73848 0.0569 0.0
H956 H 0.61105 0.7341 0.11863 0.0
H957 H 0.634 0.84035 0.00187 0.0
H958 H 0.60614 0.84684 0.95188 0.0
H959 H 0.62966 0.82555 0.92543 0.0
loop_
_geom_bond_atom_site_label_1
_geom_bond_atom_site_label_2
_geom_bond_distance
_geom_bond_site_symmetry_2
_ccdc_geom_bond_type
Sc0 O3 2.025 . S
Sc0 O10 2.105 . S
Sc0 O13 2.105 . S
Sc0 O16 2.105 . S
Sc0 O19 2.105 . S
Sc1 O3 2.025 . S
Sc1 O11 2.105 . S
Sc1 O15 2.105 1_554 S
Sc1 O17 2.105 . S
Sc1 O21 2.105 1_554 S
Sc2 O3 2.025 1_556 S
Sc2 O12 2.105 . S
Sc2 O14 2.105 . S
Sc2 O18 2.105 . S
Sc2 O20 2.105 . S
O3 Sc0 2.025 . S
O3 Sc1 2.025 . S
O3 Sc2 2.025 1_554 S
C4 O10 1.268 . S
C4 O20 1.268 1_554 S
C5 O11 1.268 . S
C5 O19 1.268 . S
C6 O12 1.268 . S
C6 O21 1.268 . S
C7 O13 1.268 . S
C7 O17 1.268 . S
C8 O14 1.268 1_554 S
C8 O16 1.268 . S
C9 O15 1.268 . S
C9 O18 1.268 . S
O10 Sc0 2.105 . S
O10 C4 1.268 . S
O11 Sc1 2.105 . S
O11 C5 1.268 . S
O12 Sc2 2.105 . S
O12 C6 1.268 . S
O13 Sc0 2.105 . S
O13 C7 1.268 . S
O14 Sc2 2.105 . S
O14 C8 1.268 1_556 S
O15 Sc1 2.105 1_556 S
O15 C9 1.268 . S
O16 Sc0 2.105 . S
O16 C8 1.268 . S
O17 Sc1 2.105 . S
O17 C7 1.268 . S
O18 Sc2 2.105 . S
O18 C9 1.268 . S
O19 Sc0 2.105 . S
O19 C5 1.268 . S
O20 Sc2 2.105 . S
O20 C4 1.268 1_556 S
O21 Sc1 2.105 1_556 S
O21 C6 1.268 . S
Sc22 O25 2.025 . S
Sc22 O32 2.105 . S
Sc22 O35 2.105 . S
Sc22 O38 2.105 . S
Sc22 O41 2.105 . S
Sc23 O25 2.025 . S
Sc23 O33 2.105 . S
Sc23 O37 2.105 . S
Sc23 O39 2.105 . S
Sc23 O43 2.105 . S
Sc24 O25 2.025 . S
Sc24 O34 2.105 . S
Sc24 O36 2.105 . S
Sc24 O40 2.105 . S
Sc24 O42 2.105 . S
O25 Sc22 2.025 . S
O25 Sc23 2.025 . S
O25 Sc24 2.025 . S
C26 O32 1.268 . S
C26 O42 1.268 . S
C27 O33 1.268 . S
C27 O41 1.268 . S
C28 O34 1.268 . S
C28 O43 1.268 . S
C29 O35 1.268 . S
C29 O39 1.268 . S
C30 O36 1.268 . S
C30 O38 1.268 . S
C31 O37 1.268 . S
C31 O40 1.268 . S
O32 Sc22 2.105 . S
O32 C26 1.268 . S
O33 Sc23 2.105 . S
O33 C27 1.268 . S
O34 Sc24 2.105 . S
O34 C28 1.268 . S
O35 Sc22 2.105 . S
O35 C29 1.268 . S
O36 Sc24 2.105 . S
O36 C30 1.268 . S
O37 Sc23 2.105 . S
O37 C31 1.268 . S
O38 Sc22 2.105 . S
O38 C30 1.268 . S
O39 Sc23 2.105 . S
O39 C29 1.268 . S
O40 Sc24 2.105 . S
O40 C31 1.268 . S
O41 Sc22 2.105 . S
O41 C27 1.268 . S
O42 Sc24 2.105 . S
O42 C26 1.268 . S
O43 Sc23 2.105 . S
O43 C28 1.268 . S
Sc44 O47 2.025 1_556 S
Sc44 O54 2.105 . S
Sc44 O57 2.105 . S
Sc44 O60 2.105 . S
Sc44 O63 2.105 . S
Sc45 O47 2.025 . S
Sc45 O55 2.105 1_554 S
Sc45 O59 2.105 . S
Sc45 O61 2.105 1_554 S
Sc45 O65 2.105 . S
Sc46 O47 2.025 . S
Sc46 O56 2.105 . S
Sc46 O58 2.105 . S
Sc46 O62 2.105 . S
Sc46 O64 2.105 . S
O47 Sc44 2.025 1_554 S
O47 Sc45 2.025 . S
O47 Sc46 2.025 . S
C48 O54 1.268 1_554 S
C48 O64 1.268 . S
C49 O55 1.268 . S
C49 O63 1.268 . S
C50 O56 1.268 . S
C50 O65 1.268 . S
C51 O57 1.268 . S
C51 O61 1.268 . S
C52 O58 1.268 . S
C52 O60 1.268 1_554 S
C53 O59 1.268 . S
C53 O62 1.268 . S
O54 Sc44 2.105 . S
O54 C48 1.268 1_556 S
O55 Sc45 2.105 1_556 S
O55 C49 1.268 . S
O56 Sc46 2.105 . S
O56 C50 1.268 . S
O57 Sc44 2.105 . S
O57 C51 1.268 . S
O58 Sc46 2.105 . S
O58 C52 1.268 . S
O59 Sc45 2.105 . S
O59 C53 1.268 . S
O60 Sc44 2.105 . S
O60 C52 1.268 1_556 S
O61 Sc45 2.105 1_556 S
O61 C51 1.268 . S
O62 Sc46 2.105 . S
O62 C53 1.268 . S
O63 Sc44 2.105 . S
O63 C49 1.268 . S
O64 Sc46 2.105 . S
O64 C48 1.268 . S
O65 Sc45 2.105 . S
O65 C50 1.268 . S
Sc66 O69 2.025 . S
Sc66 O76 2.105 . S
Sc66 O79 2.105 . S
Sc66 O82 2.105 . S
Sc66 O85 2.105 . S
Sc67 O69 2.025 . S
Sc67 O77 2.105 . S
Sc67 O81 2.105 . S
Sc67 O83 2.105 . S
Sc67 O87 2.105 . S
Sc68 O69 2.025 . S
Sc68 O78 2.105 . S
Sc68 O80 2.105 . S
Sc68 O84 2.105 . S
Sc68 O86 2.105 . S
O69 Sc66 2.025 . S
O69 Sc67 2.025 . S
O69 Sc68 2.025 . S
C70 O76 1.268 . S
C70 O86 1.268 . S
C71 O77 1.268 . S
C71 O85 1.268 . S
C72 O78 1.268 . S
C72 O87 1.268 . S
C73 O79 1.268 . S
C73 O83 1.268 . S
C74 O80 1.268 . S
C74 O82 1.268 . S
C75 O81 1.268 . S
C75 O84 1.268 . S
O76 Sc66 2.105 . S
O76 C70 1.268 . S
O77 Sc67 2.105 . S
O77 C71 1.268 . S
O78 Sc68 2.105 . S
O78 C72 1.268 . S
O79 Sc66 2.105 . S
O79 C73 1.268 . S
O80 Sc68 2.105 . S
O80 C74 1.268 . S
O81 Sc67 2.105 . S
O81 C75 1.268 . S
O82 Sc66 2.105 . S
O82 C74 1.268 . S
O83 Sc67 2.105 . S
O83 C73 1.268 . S
O84 Sc68 2.105 . S
O84 C75 1.268 . S
O85 Sc66 2.105 . S
O85 C71 1.268 . S
O86 Sc68 2.105 . S
O86 C70 1.268 . S
O87 Sc67 2.105 . S
O87 C72 1.268 . S
H88 C95 0.929 . S
H89 C98 0.930 . S
H90 C100 0.929 . S
H91 C92 0.969 . S
C92 H91 0.969 . S
C92 O93 1.550 1_556 S
C92 H94 0.973 . S
O93 C92 1.550 1_554 S
O93 C99 1.412 . S
H94 C92 0.973 . S
C95 H88 0.929 . S
C95 C96 1.400 . S
C95 C97 1.364 1_554 S
C96 C95 1.400 . S
C96 C100 1.377 . S
C97 C95 1.364 1_556 S
C97 C98 1.374 . S
C98 H89 0.930 . S
C98 C97 1.374 . S
C98 C99 1.383 1_556 S
C99 O93 1.412 . S
C99 C98 1.383 1_554 S
C99 C100 1.394 . S
C100 H90 0.929 . S
C100 C96 1.377 . S
C100 C99 1.394 . S
H101 C108 0.929 . S
H102 C111 0.930 . S
H103 C113 0.929 . S
H104 C105 0.969 . S
C105 H104 0.969 . S
C105 O106 1.550 . S
C105 H107 0.973 . S
O106 C105 1.550 . S
O106 C112 1.412 1_455 S
H107 C105 0.973 . S
C108 H101 0.929 . S
C108 C109 1.400 . S
C108 C110 1.364 . S
C109 C108 1.400 . S
C109 C113 1.377 . S
C110 C108 1.364 . S
C110 C111 1.374 . S
C111 H102 0.930 . S
C111 C110 1.374 . S
C111 C112 1.383 . S
C112 O106 1.412 1_655 S
C112 C111 1.383 . S
C112 C113 1.394 . S
C113 H103 0.929 . S
C113 C109 1.377 . S
C113 C112 1.394 . S
H114 C121 0.929 . S
H115 C124 0.930 . S
H116 C126 0.929 . S
H117 C118 0.969 . S
C118 H117 0.969 . S
C118 O119 1.550 1_554 S
C118 H120 0.973 . S
O119 C118 1.550 1_556 S
O119 C125 1.412 . S
H120 C118 0.973 . S
C121 H114 0.929 . S
C121 C122 1.396 1_554 S
C121 C123 1.367 . S
C122 C121 1.396 1_556 S
C122 C126 1.377 . S
C123 C121 1.367 . S
C123 C124 1.374 . S
C124 H115 0.930 . S
C124 C123 1.374 . S
C124 C125 1.383 1_554 S
C125 O119 1.412 . S
C125 C124 1.383 1_556 S
C125 C126 1.394 . S
C126 H116 0.929 . S
C126 C122 1.377 . S
C126 C125 1.394 . S
H127 C134 0.929 . S
H128 C137 0.930 . S
H129 C139 0.929 . S
H130 C131 0.969 . S
C131 H130 0.969 . S
C131 O132 1.550 . S
C131 H133 0.973 . S
O132 C131 1.550 . S
O132 C138 1.412 1_655 S
H133 C131 0.973 . S
C134 H127 0.929 . S
C134 C135 1.400 . S
C134 C136 1.364 . S
C135 C134 1.400 . S
C135 C139 1.377 . S
C136 C134 1.364 . S
C136 C137 1.374 . S
C137 H128 0.930 . S
C137 C136 1.374 . S
C137 C138 1.383 . S
C138 O132 1.412 1_455 S
C138 C137 1.383 . S
C138 C139 1.394 . S
C139 H129 0.929 . S
C139 C135 1.377 . S
C139 C138 1.394 . S
H140 C147 0.929 . S
H141 C150 0.930 . S
H142 C152 0.929 . S
H143 C144 0.969 . S
C144 H143 0.969 . S
C144 O145 1.550 . S
C144 H146 0.973 . S
O145 C144 1.550 . S
O145 C151 1.412 1_545 S
H146 C144 0.973 . S
C147 H140 0.929 . S
C147 C148 1.400 . S
C147 C149 1.364 . S
C148 C147 1.400 . S
C148 C152 1.377 . S
C149 C147 1.364 . S
C149 C150 1.374 . S
C150 H141 0.930 . S
C150 C149 1.374 . S
C150 C151 1.383 . S
C151 O145 1.412 1_565 S
C151 C150 1.383 . S
C151 C152 1.394 . S
C152 H142 0.929 . S
C152 C148 1.377 . S
C152 C151 1.394 . S
H153 C160 0.929 . S
H154 C163 0.930 . S
H155 C165 0.929 . S
H156 C157 0.969 . S
C157 H156 0.969 . S
C157 O158 1.550 1_554 S
C157 H159 0.973 . S
O158 C157 1.550 1_556 S
O158 C164 1.412 . S
H159 C157 0.973 . S
C160 H153 0.929 . S
C160 C161 1.396 1_554 S
C160 C162 1.367 . S
C161 C160 1.396 1_556 S
C161 C165 1.377 . S
C162 C160 1.367 . S
C162 C163 1.374 . S
C163 H154 0.930 . S
C163 C162 1.374 . S
C163 C164 1.383 1_554 S
C164 O158 1.412 . S
C164 C163 1.383 1_556 S
C164 C165 1.394 . S
C165 H155 0.929 . S
C165 C161 1.377 . S
C165 C164 1.394 . S
H166 C173 0.929 . S
H167 C176 0.930 . S
H168 C178 0.929 . S
H169 C170 0.969 . S
C170 H169 0.969 . S
C170 O171 1.550 . S
C170 H172 0.973 . S
O171 C170 1.550 . S
O171 C177 1.412 1_565 S
H172 C170 0.973 . S
C173 H166 0.929 . S
C173 C174 1.400 . S
C173 C175 1.364 . S
C174 C173 1.400 . S
C174 C178 1.377 . S
C175 C173 1.364 . S
C175 C176 1.374 . S
C176 H167 0.930 . S
C176 C175 1.374 . S
C176 C177 1.383 . S
C177 O171 1.412 1_545 S
C177 C176 1.383 . S
C177 C178 1.394 . S
C178 H168 0.929 . S
C178 C174 1.377 . S
C178 C177 1.394 . S
H179 C186 0.929 . S
H180 C189 0.930 . S
H181 C191 0.929 . S
H182 C183 0.969 . S
C183 H182 0.969 . S
C183 O184 1.550 1_556 S
C183 H185 0.973 . S
O184 C183 1.550 1_554 S
O184 C190 1.412 . S
H185 C183 0.973 . S
C186 H179 0.929 . S
C186 C187 1.400 . S
C186 C188 1.364 1_554 S
C187 C186 1.400 . S
C187 C191 1.377 . S
C188 C186 1.364 1_556 S
C188 C189 1.374 . S
C189 H180 0.930 . S
C189 C188 1.374 . S
C189 C190 1.383 1_556 S
C190 O184 1.412 . S
C190 C189 1.383 1_554 S
C190 C191 1.394 . S
C191 H181 0.929 . S
C191 C187 1.377 . S
C191 C190 1.394 . S
C192 C193 1.391 . S
C192 C194 1.394 . S
C192 H208 0.931 . S
C193 C192 1.391 . S
C193 C197 1.376 . S
C194 C192 1.394 . S
C194 C195 1.369 . S
C194 C198 1.531 . S
C195 C194 1.369 . S
C195 C196 1.410 . S
C195 C203 1.503 . S
C196 C195 1.410 . S
C196 C197 1.392 . S
C196 C199 1.511 . S
C197 C193 1.376 . S
C197 C196 1.392 . S
C197 H209 0.929 . S
C198 C194 1.531 . S
C198 H210 0.960 . S
C198 H211 0.962 . S
C198 H212 0.960 . S
C199 C196 1.511 . S
C199 H213 0.961 . S
C199 H214 0.961 . S
C199 H215 0.961 . S
C200 C201 1.370 . S
C200 C202 1.363 . S
C200 H216 0.931 . S
C201 C200 1.370 . S
C201 C205 1.408 . S
C202 C200 1.363 . S
C202 C203 1.370 . S
C202 C206 1.524 . S
C203 C195 1.503 . S
C203 C202 1.370 . S
C203 C204 1.403 . S
C204 C203 1.403 . S
C204 C205 1.404 . S
C204 C207 1.539 . S
C205 C201 1.408 . S
C205 C204 1.404 . S
C205 H217 0.930 . S
C206 C202 1.524 . S
C206 H218 0.956 . S
C206 H219 0.961 . S
C206 H220 0.961 . S
C207 C204 1.539 . S
C207 H221 0.958 . S
C207 H222 0.961 . S
C207 H223 0.960 . S
H208 C192 0.931 . S
H209 C197 0.929 . S
H210 C198 0.960 . S
H211 C198 0.962 . S
H212 C198 0.960 . S
H213 C199 0.961 . S
H214 C199 0.961 . S
H215 C199 0.961 . S
H216 C200 0.931 . S
H217 C205 0.930 . S
H218 C206 0.956 . S
H219 C206 0.961 . S
H220 C206 0.961 . S
H221 C207 0.958 . S
H222 C207 0.961 . S
H223 C207 0.960 . S
C224 C225 1.391 . S
C224 C226 1.394 . S
C224 H240 0.931 . S
C225 C224 1.391 . S
C225 C229 1.376 . S
C226 C224 1.394 . S
C226 C227 1.369 . S
C226 C230 1.531 . S
C227 C226 1.369 . S
C227 C228 1.410 . S
C227 C235 1.503 . S
C228 C227 1.410 . S
C228 C229 1.392 . S
C228 C231 1.511 . S
C229 C225 1.376 . S
C229 C228 1.392 . S
C229 H241 0.929 . S
C230 C226 1.531 . S
C230 H242 0.960 . S
C230 H243 0.962 . S
C230 H244 0.960 . S
C231 C228 1.511 . S
C231 H245 0.961 . S
C231 H246 0.961 . S
C231 H247 0.961 . S
C232 C233 1.370 . S
C232 C234 1.363 . S
C232 H248 0.931 . S
C233 C232 1.370 . S
C233 C237 1.408 . S
C234 C232 1.363 . S
C234 C235 1.370 . S
C234 C238 1.524 . S
C235 C227 1.503 . S
C235 C234 1.370 . S
C235 C236 1.403 . S
C236 C235 1.403 . S
C236 C237 1.404 . S
C236 C239 1.539 . S
C237 C233 1.408 . S
C237 C236 1.404 . S
C237 H249 0.930 . S
C238 C234 1.524 . S
C238 H250 0.956 . S
C238 H251 0.961 . S
C238 H252 0.961 . S
C239 C236 1.539 . S
C239 H253 0.958 . S
C239 H254 0.961 . S
C239 H255 0.960 . S
H240 C224 0.931 . S
H241 C229 0.929 . S
H242 C230 0.960 . S
H243 C230 0.962 . S
H244 C230 0.960 . S
H245 C231 0.961 . S
H246 C231 0.961 . S
H247 C231 0.961 . S
H248 C232 0.931 . S
H249 C237 0.930 . S
H250 C238 0.956 . S
H251 C238 0.961 . S
H252 C238 0.961 . S
H253 C239 0.958 . S
H254 C239 0.961 . S
H255 C239 0.960 . S
C256 C257 1.391 . S
C256 C258 1.394 . S
C256 H272 0.931 . S
C257 C256 1.391 . S
C257 C261 1.376 . S
C258 C256 1.394 . S
C258 C259 1.369 . S
C258 C262 1.531 . S
C259 C258 1.369 . S
C259 C260 1.410 . S
C259 C267 1.503 . S
C260 C259 1.410 . S
C260 C261 1.392 . S
C260 C263 1.511 . S
C261 C257 1.376 . S
C261 C260 1.392 . S
C261 H273 0.929 . S
C262 C258 1.531 . S
C262 H274 0.960 . S
C262 H275 0.962 . S
C262 H276 0.960 . S
C263 C260 1.511 . S
C263 H277 0.961 . S
C263 H278 0.961 . S
C263 H279 0.961 . S
C264 C265 1.370 . S
C264 C266 1.363 . S
C264 H280 0.931 . S
C265 C264 1.370 . S
C265 C269 1.408 . S
C266 C264 1.363 . S
C266 C267 1.370 . S
C266 C270 1.524 . S
C267 C259 1.503 . S
C267 C266 1.370 . S
C267 C268 1.403 . S
C268 C267 1.403 . S
C268 C269 1.404 . S
C268 C271 1.539 . S
C269 C265 1.408 . S
C269 C268 1.404 . S
C269 H281 0.930 . S
C270 C266 1.524 . S
C270 H282 0.956 . S
C270 H283 0.961 . S
C270 H284 0.961 . S
C271 C268 1.539 . S
C271 H285 0.958 . S
C271 H286 0.961 . S
C271 H287 0.960 . S
H272 C256 0.931 . S
H273 C261 0.929 . S
H274 C262 0.960 . S
H275 C262 0.962 . S
H276 C262 0.960 . S
H277 C263 0.961 . S
H278 C263 0.961 . S
H279 C263 0.961 . S
H280 C264 0.931 . S
H281 C269 0.930 . S
H282 C270 0.956 . S
H283 C270 0.961 . S
H284 C270 0.961 . S
H285 C271 0.958 . S
H286 C271 0.961 . S
H287 C271 0.960 . S
C288 C289 1.391 . S
C288 C290 1.394 . S
C288 H304 0.931 . S
C289 C288 1.391 . S
C289 C293 1.376 . S
C290 C288 1.394 . S
C290 C291 1.369 . S
C290 C294 1.531 . S
C291 C290 1.369 . S
C291 C292 1.410 . S
C291 C299 1.503 . S
C292 C291 1.410 . S
C292 C293 1.392 . S
C292 C295 1.511 . S
C293 C289 1.376 . S
C293 C292 1.392 . S
C293 H305 0.929 . S
C294 C290 1.531 . S
C294 H306 0.960 . S
C294 H307 0.962 . S
C294 H308 0.960 . S
C295 C292 1.511 . S
C295 H309 0.961 . S
C295 H310 0.961 . S
C295 H311 0.961 . S
C296 C297 1.370 . S
C296 C298 1.363 . S
C296 H312 0.931 . S
C297 C296 1.370 . S
C297 C301 1.408 . S
C298 C296 1.363 . S
C298 C299 1.370 . S
C298 C302 1.524 . S
C299 C291 1.503 . S
C299 C298 1.370 . S
C299 C300 1.403 . S
C300 C299 1.403 . S
C300 C301 1.404 . S
C300 C303 1.539 . S
C301 C297 1.408 . S
C301 C300 1.404 . S
C301 H313 0.930 . S
C302 C298 1.524 . S
C302 H314 0.956 . S
C302 H315 0.961 . S
C302 H316 0.961 . S
C303 C300 1.539 . S
C303 H317 0.958 . S
C303 H318 0.961 . S
C303 H319 0.960 . S
H304 C288 0.931 . S
H305 C293 0.929 . S
H306 C294 0.960 . S
H307 C294 0.962 . S
H308 C294 0.960 . S
H309 C295 0.961 . S
H310 C295 0.961 . S
H311 C295 0.961 . S
H312 C296 0.931 . S
H313 C301 0.930 . S
H314 C302 0.956 . S
H315 C302 0.961 . S
H316 C302 0.961 . S
H317 C303 0.958 . S
H318 C303 0.961 . S
H319 C303 0.960 . S
C320 C321 1.391 . S
C320 C322 1.394 . S
C320 H336 0.931 . S
C321 C320 1.391 . S
C321 C325 1.376 . S
C322 C320 1.394 . S
C322 C323 1.369 . S
C322 C326 1.531 . S
C323 C322 1.369 . S
C323 C324 1.410 . S
C323 C331 1.503 . S
C324 C323 1.410 . S
C324 C325 1.392 . S
C324 C327 1.511 . S
C325 C321 1.376 . S
C325 C324 1.392 . S
C325 H337 0.929 . S
C326 C322 1.531 . S
C326 H338 0.960 . S
C326 H339 0.962 . S
C326 H340 0.960 . S
C327 C324 1.511 . S
C327 H341 0.961 . S
C327 H342 0.961 . S
C327 H343 0.961 . S
C328 C329 1.370 . S
C328 C330 1.363 . S
C328 H344 0.931 . S
C329 C328 1.370 . S
C329 C333 1.408 . S
C330 C328 1.363 . S
C330 C331 1.370 . S
C330 C334 1.524 . S
C331 C323 1.503 . S
C331 C330 1.370 . S
C331 C332 1.403 . S
C332 C331 1.403 . S
C332 C333 1.404 . S
C332 C335 1.539 . S
C333 C329 1.408 . S
C333 C332 1.404 . S
C333 H345 0.930 . S
C334 C330 1.524 . S
C334 H346 0.956 . S
C334 H347 0.961 . S
C334 H348 0.961 . S
C335 C332 1.539 . S
C335 H349 0.958 . S
C335 H350 0.961 . S
C335 H351 0.960 . S
H336 C320 0.931 . S
H337 C325 0.929 . S
H338 C326 0.960 . S
H339 C326 0.962 . S
H340 C326 0.960 . S
H341 C327 0.961 . S
H342 C327 0.961 . S
H343 C327 0.961 . S
H344 C328 0.931 . S
H345 C333 0.930 . S
H346 C334 0.956 . S
H347 C334 0.961 . S
H348 C334 0.961 . S
H349 C335 0.958 . S
H350 C335 0.961 . S
H351 C335 0.960 . S
C352 C353 1.391 . S
C352 C354 1.394 . S
C352 H368 0.931 . S
C353 C352 1.391 . S
C353 C357 1.376 . S
C354 C352 1.394 . S
C354 C355 1.369 . S
C354 C358 1.531 . S
C355 C354 1.369 . S
C355 C356 1.410 . S
C355 C363 1.503 . S
C356 C355 1.410 . S
C356 C357 1.392 . S
C356 C359 1.511 . S
C357 C353 1.376 . S
C357 C356 1.392 . S
C357 H369 0.929 . S
C358 C354 1.531 . S
C358 H370 0.960 . S
C358 H371 0.962 . S
C358 H372 0.960 . S
C359 C356 1.511 . S
C359 H373 0.961 . S
C359 H374 0.961 . S
C359 H375 0.961 . S
C360 C361 1.370 . S
C360 C362 1.363 . S
C360 H376 0.931 . S
C361 C360 1.370 . S
C361 C365 1.408 . S
C362 C360 1.363 . S
C362 C363 1.370 . S
C362 C366 1.524 . S
C363 C355 1.503 . S
C363 C362 1.370 . S
C363 C364 1.403 . S
C364 C363 1.403 . S
C364 C365 1.404 . S
C364 C367 1.539 . S
C365 C361 1.408 . S
C365 C364 1.404 . S
C365 H377 0.930 . S
C366 C362 1.524 . S
C366 H378 0.956 . S
C366 H379 0.961 . S
C366 H380 0.961 . S
C367 C364 1.539 . S
C367 H381 0.958 . S
C367 H382 0.961 . S
C367 H383 0.960 . S
H368 C352 0.931 . S
H369 C357 0.929 . S
H370 C358 0.960 . S
H371 C358 0.962 . S
H372 C358 0.960 . S
H373 C359 0.961 . S
H374 C359 0.961 . S
H375 C359 0.961 . S
H376 C360 0.931 . S
H377 C365 0.930 . S
H378 C366 0.956 . S
H379 C366 0.961 . S
H380 C366 0.961 . S
H381 C367 0.958 . S
H382 C367 0.961 . S
H383 C367 0.960 . S
C384 C385 1.391 . S
C384 C386 1.394 . S
C384 H400 0.931 . S
C385 C384 1.391 . S
C385 C389 1.376 . S
C386 C384 1.394 . S
C386 C387 1.369 . S
C386 C390 1.531 . S
C387 C386 1.369 . S
C387 C388 1.410 . S
C387 C395 1.503 . S
C388 C387 1.410 . S
C388 C389 1.392 . S
C388 C391 1.511 . S
C389 C385 1.376 . S
C389 C388 1.392 . S
C389 H401 0.929 . S
C390 C386 1.531 . S
C390 H402 0.960 . S
C390 H403 0.962 . S
C390 H404 0.960 . S
C391 C388 1.511 . S
C391 H405 0.961 . S
C391 H406 0.961 . S
C391 H407 0.961 . S
C392 C393 1.370 . S
C392 C394 1.363 . S
C392 H408 0.931 . S
C393 C392 1.370 . S
C393 C397 1.408 . S
C394 C392 1.363 . S
C394 C395 1.370 . S
C394 C398 1.524 . S
C395 C387 1.503 . S
C395 C394 1.370 . S
C395 C396 1.403 . S
C396 C395 1.403 . S
C396 C397 1.404 . S
C396 C399 1.539 . S
C397 C393 1.408 . S
C397 C396 1.404 . S
C397 H409 0.930 . S
C398 C394 1.524 . S
C398 H410 0.956 . S
C398 H411 0.961 . S
C398 H412 0.961 . S
C399 C396 1.539 . S
C399 H413 0.958 . S
C399 H414 0.961 . S
C399 H415 0.960 . S
H400 C384 0.931 . S
H401 C389 0.929 . S
H402 C390 0.960 . S
H403 C390 0.962 . S
H404 C390 0.960 . S
H405 C391 0.961 . S
H406 C391 0.961 . S
H407 C391 0.961 . S
H408 C392 0.931 . S
H409 C397 0.930 . S
H410 C398 0.956 . S
H411 C398 0.961 . S
H412 C398 0.961 . S
H413 C399 0.958 . S
H414 C399 0.961 . S
H415 C399 0.960 . S
C416 C417 1.391 . S
C416 C418 1.394 . S
C416 H432 0.931 . S
C417 C416 1.391 . S
C417 C421 1.376 . S
C418 C416 1.394 . S
C418 C419 1.369 . S
C418 C422 1.531 . S
C419 C418 1.369 . S
C419 C420 1.410 . S
C419 C427 1.503 . S
C420 C419 1.410 . S
C420 C421 1.392 . S
C420 C423 1.511 . S
C421 C417 1.376 . S
C421 C420 1.392 . S
C421 H433 0.929 . S
C422 C418 1.531 . S
C422 H434 0.960 . S
C422 H435 0.962 . S
C422 H436 0.960 . S
C423 C420 1.511 . S
C423 H437 0.961 . S
C423 H438 0.961 . S
C423 H439 0.961 . S
C424 C425 1.370 . S
C424 C426 1.363 . S
C424 H440 0.931 . S
C425 C424 1.370 . S
C425 C429 1.408 . S
C426 C424 1.363 . S
C426 C427 1.370 . S
C426 C430 1.524 . S
C427 C419 1.503 . S
C427 C426 1.370 . S
C427 C428 1.403 . S
C428 C427 1.403 . S
C428 C429 1.404 . S
C428 C431 1.539 . S
C429 C425 1.408 . S
C429 C428 1.404 . S
C429 H441 0.930 . S
C430 C426 1.524 . S
C430 H442 0.956 . S
C430 H443 0.961 . S
C430 H444 0.961 . S
C431 C428 1.539 . S
C431 H445 0.958 . S
C431 H446 0.961 . S
C431 H447 0.960 . S
H432 C416 0.931 . S
H433 C421 0.929 . S
H434 C422 0.960 . S
H435 C422 0.962 . S
H436 C422 0.960 . S
H437 C423 0.961 . S
H438 C423 0.961 . S
H439 C423 0.961 . S
H440 C424 0.931 . S
H441 C429 0.930 . S
H442 C430 0.956 . S
H443 C430 0.961 . S
H444 C430 0.961 . S
H445 C431 0.958 . S
H446 C431 0.961 . S
H447 C431 0.960 . S
C448 C449 1.391 . S
C448 C450 1.394 . S
C448 H464 0.931 . S
C449 C448 1.391 . S
C449 C453 1.376 . S
C450 C448 1.394 . S
C450 C451 1.369 . S
C450 C454 1.531 . S
C451 C450 1.369 . S
C451 C452 1.410 . S
C451 C459 1.503 . S
C452 C451 1.410 . S
C452 C453 1.392 . S
C452 C455 1.511 . S
C453 C449 1.376 . S
C453 C452 1.392 . S
C453 H465 0.929 . S
C454 C450 1.531 . S
C454 H466 0.960 . S
C454 H467 0.962 . S
C454 H468 0.960 . S
C455 C452 1.511 . S
C455 H469 0.961 . S
C455 H470 0.961 . S
C455 H471 0.961 . S
C456 C457 1.370 . S
C456 C458 1.363 . S
C456 H472 0.931 . S
C457 C456 1.370 . S
C457 C461 1.408 . S
C458 C456 1.363 . S
C458 C459 1.370 . S
C458 C462 1.524 . S
C459 C451 1.503 . S
C459 C458 1.370 . S
C459 C460 1.403 . S
C460 C459 1.403 . S
C460 C461 1.404 . S
C460 C463 1.539 . S
C461 C457 1.408 . S
C461 C460 1.404 . S
C461 H473 0.930 . S
C462 C458 1.524 . S
C462 H474 0.956 . S
C462 H475 0.961 . S
C462 H476 0.961 . S
C463 C460 1.539 . S
C463 H477 0.958 . S
C463 H478 0.961 . S
C463 H479 0.960 . S
H464 C448 0.931 . S
H465 C453 0.929 . S
H466 C454 0.960 . S
H467 C454 0.962 . S
H468 C454 0.960 . S
H469 C455 0.961 . S
H470 C455 0.961 . S
H471 C455 0.961 . S
H472 C456 0.931 . S
H473 C461 0.930 . S
H474 C462 0.956 . S
H475 C462 0.961 . S
H476 C462 0.961 . S
H477 C463 0.958 . S
H478 C463 0.961 . S
H479 C463 0.960 . S
C480 C481 1.391 . S
C480 C482 1.394 . S
C480 H496 0.931 . S
C481 C480 1.391 . S
C481 C485 1.376 . S
C482 C480 1.394 . S
C482 C483 1.369 . S
C482 C486 1.531 . S
C483 C482 1.369 . S
C483 C484 1.410 . S
C483 C491 1.503 . S
C484 C483 1.410 . S
C484 C485 1.392 . S
C484 C487 1.511 . S
C485 C481 1.376 . S
C485 C484 1.392 . S
C485 H497 0.929 . S
C486 C482 1.531 . S
C486 H498 0.960 . S
C486 H499 0.962 . S
C486 H500 0.960 . S
C487 C484 1.511 . S
C487 H501 0.961 . S
C487 H502 0.961 . S
C487 H503 0.961 . S
C488 C489 1.370 . S
C488 C490 1.363 . S
C488 H504 0.931 . S
C489 C488 1.370 . S
C489 C493 1.408 . S
C490 C488 1.363 . S
C490 C491 1.370 . S
C490 C494 1.524 . S
C491 C483 1.503 . S
C491 C490 1.370 . S
C491 C492 1.403 . S
C492 C491 1.403 . S
C492 C493 1.404 . S
C492 C495 1.539 . S
C493 C489 1.408 . S
C493 C492 1.404 . S
C493 H505 0.930 . S
C494 C490 1.524 . S
C494 H506 0.956 . S
C494 H507 0.961 . S
C494 H508 0.961 . S
C495 C492 1.539 . S
C495 H509 0.958 . S
C495 H510 0.961 . S
C495 H511 0.960 . S
H496 C480 0.931 . S
H497 C485 0.929 . S
H498 C486 0.960 . S
H499 C486 0.962 . S
H500 C486 0.960 . S
H501 C487 0.961 . S
H502 C487 0.961 . S
H503 C487 0.961 . S
H504 C488 0.931 . S
H505 C493 0.930 . S
H506 C494 0.956 . S
H507 C494 0.961 . S
H508 C494 0.961 . S
H509 C495 0.958 . S
H510 C495 0.961 . S
H511 C495 0.960 . S
C512 C513 1.391 . S
C512 C514 1.394 . S
C512 H528 0.931 . S
C513 C512 1.391 . S
C513 C517 1.376 . S
C514 C512 1.394 . S
C514 C515 1.369 . S
C514 C518 1.531 . S
C515 C514 1.369 . S
C515 C516 1.410 . S
C515 C523 1.503 . S
C516 C515 1.410 . S
C516 C517 1.392 . S
C516 C519 1.511 . S
C517 C513 1.376 . S
C517 C516 1.392 . S
C517 H529 0.929 . S
C518 C514 1.531 . S
C518 H530 0.960 . S
C518 H531 0.962 . S
C518 H532 0.960 . S
C519 C516 1.511 . S
C519 H533 0.961 . S
C519 H534 0.961 . S
C519 H535 0.961 . S
C520 C521 1.370 . S
C520 C522 1.363 . S
C520 H536 0.931 . S
C521 C520 1.370 . S
C521 C525 1.408 . S
C522 C520 1.363 . S
C522 C523 1.370 . S
C522 C526 1.524 . S
C523 C515 1.503 . S
C523 C522 1.370 . S
C523 C524 1.403 . S
C524 C523 1.403 . S
C524 C525 1.404 . S
C524 C527 1.539 . S
C525 C521 1.408 . S
C525 C524 1.404 . S
C525 H537 0.930 . S
C526 C522 1.524 . S
C526 H538 0.956 . S
C526 H539 0.961 . S
C526 H540 0.961 . S
C527 C524 1.539 . S
C527 H541 0.958 . S
C527 H542 0.961 . S
C527 H543 0.960 . S
H528 C512 0.931 . S
H529 C517 0.929 . S
H530 C518 0.960 . S
H531 C518 0.962 . S
H532 C518 0.960 . S
H533 C519 0.961 . S
H534 C519 0.961 . S
H535 C519 0.961 . S
H536 C520 0.931 . S
H537 C525 0.930 . S
H538 C526 0.956 . S
H539 C526 0.961 . S
H540 C526 0.961 . S
H541 C527 0.958 . S
H542 C527 0.961 . S
H543 C527 0.960 . S
C544 C545 1.391 . S
C544 C546 1.394 . S
C544 H560 0.931 . S
C545 C544 1.391 . S
C545 C549 1.376 . S
C546 C544 1.394 . S
C546 C547 1.369 . S
C546 C550 1.531 . S
C547 C546 1.369 . S
C547 C548 1.410 . S
C547 C555 1.503 . S
C548 C547 1.410 . S
C548 C549 1.392 . S
C548 C551 1.511 . S
C549 C545 1.376 . S
C549 C548 1.392 . S
C549 H561 0.929 . S
C550 C546 1.531 . S
C550 H562 0.960 . S
C550 H563 0.962 . S
C550 H564 0.960 . S
C551 C548 1.511 . S
C551 H565 0.961 . S
C551 H566 0.961 . S
C551 H567 0.961 . S
C552 C553 1.370 . S
C552 C554 1.363 . S
C552 H568 0.931 . S
C553 C552 1.370 . S
C553 C557 1.408 . S
C554 C552 1.363 . S
C554 C555 1.370 . S
C554 C558 1.524 . S
C555 C547 1.503 . S
C555 C554 1.370 . S
C555 C556 1.403 . S
C556 C555 1.403 . S
C556 C557 1.404 . S
C556 C559 1.539 . S
C557 C553 1.408 . S
C557 C556 1.404 . S
C557 H569 0.930 . S
C558 C554 1.524 . S
C558 H570 0.956 . S
C558 H571 0.961 . S
C558 H572 0.961 . S
C559 C556 1.539 . S
C559 H573 0.958 . S
C559 H574 0.961 . S
C559 H575 0.960 . S
H560 C544 0.931 . S
H561 C549 0.929 . S
H562 C550 0.960 . S
H563 C550 0.962 . S
H564 C550 0.960 . S
H565 C551 0.961 . S
H566 C551 0.961 . S
H567 C551 0.961 . S
H568 C552 0.931 . S
H569 C557 0.930 . S
H570 C558 0.956 . S
H571 C558 0.961 . S
H572 C558 0.961 . S
H573 C559 0.958 . S
H574 C559 0.961 . S
H575 C559 0.960 . S
C576 C577 1.391 . S
C576 C578 1.394 . S
C576 H592 0.931 . S
C577 C576 1.391 . S
C577 C581 1.376 . S
C578 C576 1.394 . S
C578 C579 1.369 . S
C578 C582 1.531 . S
C579 C578 1.369 . S
C579 C580 1.410 . S
C579 C587 1.503 . S
C580 C579 1.410 . S
C580 C581 1.392 . S
C580 C583 1.511 . S
C581 C577 1.376 . S
C581 C580 1.392 . S
C581 H593 0.929 . S
C582 C578 1.531 . S
C582 H594 0.960 . S
C582 H595 0.962 . S
C582 H596 0.960 . S
C583 C580 1.511 . S
C583 H597 0.961 . S
C583 H598 0.961 . S
C583 H599 0.961 . S
C584 C585 1.370 . S
C584 C586 1.363 . S
C584 H600 0.931 . S
C585 C584 1.370 . S
C585 C589 1.408 . S
C586 C584 1.363 . S
C586 C587 1.370 . S
C586 C590 1.524 . S
C587 C579 1.503 . S
C587 C586 1.370 . S
C587 C588 1.403 . S
C588 C587 1.403 . S
C588 C589 1.404 . S
C588 C591 1.539 . S
C589 C585 1.408 . S
C589 C588 1.404 . S
C589 H601 0.930 . S
C590 C586 1.524 . S
C590 H602 0.956 . S
C590 H603 0.961 . S
C590 H604 0.961 . S
C591 C588 1.539 . S
C591 H605 0.958 . S
C591 H606 0.961 . S
C591 H607 0.960 . S
H592 C576 0.931 . S
H593 C581 0.929 . S
H594 C582 0.960 . S
H595 C582 0.962 . S
H596 C582 0.960 . S
H597 C583 0.961 . S
H598 C583 0.961 . S
H599 C583 0.961 . S
H600 C584 0.931 . S
H601 C589 0.930 . S
H602 C590 0.956 . S
H603 C590 0.961 . S
H604 C590 0.961 . S
H605 C591 0.958 . S
H606 C591 0.961 . S
H607 C591 0.960 . S
C608 C609 1.391 . S
C608 C610 1.394 . S
C608 H624 0.931 . S
C609 C608 1.391 . S
C609 C613 1.376 . S
C610 C608 1.394 . S
C610 C611 1.369 . S
C610 C614 1.531 . S
C611 C610 1.369 . S
C611 C612 1.410 . S
C611 C619 1.503 . S
C612 C611 1.410 . S
C612 C613 1.392 . S
C612 C615 1.511 . S
C613 C609 1.376 . S
C613 C612 1.392 . S
C613 H625 0.929 . S
C614 C610 1.531 . S
C614 H626 0.960 . S
C614 H627 0.962 . S
C614 H628 0.960 . S
C615 C612 1.511 . S
C615 H629 0.961 . S
C615 H630 0.961 . S
C615 H631 0.961 . S
C616 C617 1.370 . S
C616 C618 1.363 . S
C616 H632 0.931 . S
C617 C616 1.370 . S
C617 C621 1.408 . S
C618 C616 1.363 . S
C618 C619 1.370 . S
C618 C622 1.524 . S
C619 C611 1.503 . S
C619 C618 1.370 . S
C619 C620 1.403 . S
C620 C619 1.403 . S
C620 C621 1.404 . S
C620 C623 1.539 . S
C621 C617 1.408 . S
C621 C620 1.404 . S
C621 H633 0.930 . S
C622 C618 1.524 . S
C622 H634 0.956 . S
C622 H635 0.961 . S
C622 H636 0.961 . S
C623 C620 1.539 . S
C623 H637 0.958 . S
C623 H638 0.961 . S
C623 H639 0.960 . S
H624 C608 0.931 . S
H625 C613 0.929 . S
H626 C614 0.960 . S
H627 C614 0.962 . S
H628 C614 0.960 . S
H629 C615 0.961 . S
H630 C615 0.961 . S
H631 C615 0.961 . S
H632 C616 0.931 . S
H633 C621 0.930 . S
H634 C622 0.956 . S
H635 C622 0.961 . S
H636 C622 0.961 . S
H637 C623 0.958 . S
H638 C623 0.961 . S
H639 C623 0.960 . S
C640 C641 1.391 . S
C640 C642 1.394 . S
C640 H656 0.931 . S
C641 C640 1.391 . S
C641 C645 1.376 . S
C642 C640 1.394 . S
C642 C643 1.369 . S
C642 C646 1.531 . S
C643 C642 1.369 . S
C643 C644 1.410 . S
C643 C651 1.503 . S
C644 C643 1.410 . S
C644 C645 1.392 . S
C644 C647 1.511 . S
C645 C641 1.376 . S
C645 C644 1.392 . S
C645 H657 0.929 . S
C646 C642 1.531 . S
C646 H658 0.960 . S
C646 H659 0.962 . S
C646 H660 0.960 . S
C647 C644 1.511 . S
C647 H661 0.961 . S
C647 H662 0.961 . S
C647 H663 0.961 . S
C648 C649 1.370 . S
C648 C650 1.363 . S
C648 H664 0.931 . S
C649 C648 1.370 . S
C649 C653 1.408 . S
C650 C648 1.363 . S
C650 C651 1.370 . S
C650 C654 1.524 . S
C651 C643 1.503 . S
C651 C650 1.370 . S
C651 C652 1.403 . S
C652 C651 1.403 . S
C652 C653 1.404 . S
C652 C655 1.539 . S
C653 C649 1.408 . S
C653 C652 1.404 . S
C653 H665 0.930 . S
C654 C650 1.524 . S
C654 H666 0.956 . S
C654 H667 0.961 . S
C654 H668 0.961 . S
C655 C652 1.539 . S
C655 H669 0.958 . S
C655 H670 0.961 . S
C655 H671 0.960 . S
H656 C640 0.931 . S
H657 C645 0.929 . S
H658 C646 0.960 . S
H659 C646 0.962 . S
H660 C646 0.960 . S
H661 C647 0.961 . S
H662 C647 0.961 . S
H663 C647 0.961 . S
H664 C648 0.931 . S
H665 C653 0.930 . S
H666 C654 0.956 . S
H667 C654 0.961 . S
H668 C654 0.961 . S
H669 C655 0.958 . S
H670 C655 0.961 . S
H671 C655 0.960 . S
C672 C673 1.391 . S
C672 C674 1.394 . S
C672 H688 0.931 . S
C673 C672 1.391 . S
C673 C677 1.376 . S
C674 C672 1.394 . S
C674 C675 1.369 . S
C674 C678 1.531 . S
C675 C674 1.369 . S
C675 C676 1.410 . S
C675 C683 1.503 . S
C676 C675 1.410 . S
C676 C677 1.392 . S
C676 C679 1.511 . S
C677 C673 1.376 . S
C677 C676 1.392 . S
C677 H689 0.929 . S
C678 C674 1.531 . S
C678 H690 0.960 . S
C678 H691 0.962 . S
C678 H692 0.960 . S
C679 C676 1.511 . S
C679 H693 0.961 . S
C679 H694 0.961 . S
C679 H695 0.961 . S
C680 C681 1.370 . S
C680 C682 1.363 . S
C680 H696 0.931 . S
C681 C680 1.370 . S
C681 C685 1.408 . S
C682 C680 1.363 . S
C682 C683 1.370 . S
C682 C686 1.524 . S
C683 C675 1.503 . S
C683 C682 1.370 . S
C683 C684 1.403 . S
C684 C683 1.403 . S
C684 C685 1.404 . S
C684 C687 1.539 . S
C685 C681 1.408 . S
C685 C684 1.404 . S
C685 H697 0.930 . S
C686 C682 1.524 . S
C686 H698 0.956 . S
C686 H699 0.961 . S
C686 H700 0.961 . S
C687 C684 1.539 . S
C687 H701 0.958 . S
C687 H702 0.961 . S
C687 H703 0.960 . S
H688 C672 0.931 . S
H689 C677 0.929 . S
H690 C678 0.960 . S
H691 C678 0.962 . S
H692 C678 0.960 . S
H693 C679 0.961 . S
H694 C679 0.961 . S
H695 C679 0.961 . S
H696 C680 0.931 . S
H697 C685 0.930 . S
H698 C686 0.956 . S
H699 C686 0.961 . S
H700 C686 0.961 . S
H701 C687 0.958 . S
H702 C687 0.961 . S
H703 C687 0.960 . S
C704 C705 1.391 1_556 S
C704 C706 1.394 . S
C704 H720 0.931 . S
C705 C704 1.391 1_554 S
C705 C709 1.376 . S
C706 C704 1.394 . S
C706 C707 1.369 1_556 S
C706 C710 1.531 . S
C707 C706 1.369 1_554 S
C707 C708 1.410 . S
C707 C715 1.503 . S
C708 C707 1.410 . S
C708 C709 1.392 . S
C708 C711 1.511 . S
C709 C705 1.376 . S
C709 C708 1.392 . S
C709 H721 0.929 . S
C710 C706 1.531 . S
C710 H722 0.960 . S
C710 H723 0.962 . S
C710 H724 0.960 . S
C711 C708 1.511 . S
C711 H725 0.961 . S
C711 H726 0.961 . S
C711 H727 0.961 . S
C712 C713 1.370 . S
C712 C714 1.363 . S
C712 H728 0.931 . S
C713 C712 1.370 . S
C713 C717 1.408 1_554 S
C714 C712 1.363 . S
C714 C715 1.370 . S
C714 C718 1.524 . S
C715 C707 1.503 . S
C715 C714 1.370 . S
C715 C716 1.403 1_554 S
C716 C715 1.403 1_556 S
C716 C717 1.404 . S
C716 C719 1.539 . S
C717 C713 1.408 1_556 S
C717 C716 1.404 . S
C717 H729 0.930 . S
C718 C714 1.524 . S
C718 H730 0.956 1_554 S
C718 H731 0.961 . S
C718 H732 0.961 . S
C719 C716 1.539 . S
C719 H733 0.958 . S
C719 H734 0.961 1_556 S
C719 H735 0.960 1_556 S
H720 C704 0.931 . S
H721 C709 0.929 . S
H722 C710 0.960 . S
H723 C710 0.962 . S
H724 C710 0.960 . S
H725 C711 0.961 . S
H726 C711 0.961 . S
H727 C711 0.961 . S
H728 C712 0.931 . S
H729 C717 0.930 . S
H730 C718 0.956 1_556 S
H731 C718 0.961 . S
H732 C718 0.961 . S
H733 C719 0.958 . S
H734 C719 0.961 1_554 S
H735 C719 0.960 1_554 S
C736 C737 1.391 . S
C736 C738 1.394 . S
C736 H752 0.931 . S
C737 C736 1.391 . S
C737 C741 1.376 . S
C738 C736 1.394 . S
C738 C739 1.369 . S
C738 C742 1.531 . S
C739 C738 1.369 . S
C739 C740 1.410 . S
C739 C747 1.503 . S
C740 C739 1.410 . S
C740 C741 1.392 . S
C740 C743 1.511 . S
C741 C737 1.376 . S
C741 C740 1.392 . S
C741 H753 0.929 . S
C742 C738 1.531 . S
C742 H754 0.960 . S
C742 H755 0.962 . S
C742 H756 0.960 . S
C743 C740 1.511 . S
C743 H757 0.961 . S
C743 H758 0.961 . S
C743 H759 0.961 . S
C744 C745 1.370 . S
C744 C746 1.363 . S
C744 H760 0.931 . S
C745 C744 1.370 . S
C745 C749 1.408 . S
C746 C744 1.363 . S
C746 C747 1.370 . S
C746 C750 1.524 . S
C747 C739 1.503 . S
C747 C746 1.370 . S
C747 C748 1.403 . S
C748 C747 1.403 . S
C748 C749 1.404 . S
C748 C751 1.539 . S
C749 C745 1.408 . S
C749 C748 1.404 . S
C749 H761 0.930 . S
C750 C746 1.524 . S
C750 H762 0.956 . S
C750 H763 0.961 . S
C750 H764 0.961 . S
C751 C748 1.539 . S
C751 H765 0.958 . S
C751 H766 0.961 . S
C751 H767 0.960 . S
H752 C736 0.931 . S
H753 C741 0.929 . S
H754 C742 0.960 . S
H755 C742 0.962 . S
H756 C742 0.960 . S
H757 C743 0.961 . S
H758 C743 0.961 . S
H759 C743 0.961 . S
H760 C744 0.931 . S
H761 C749 0.930 . S
H762 C750 0.956 . S
H763 C750 0.961 . S
H764 C750 0.961 . S
H765 C751 0.958 . S
H766 C751 0.961 . S
H767 C751 0.960 . S
C768 C769 1.391 . S
C768 C770 1.394 . S
C768 H784 0.931 . S
C769 C768 1.391 . S
C769 C773 1.376 . S
C770 C768 1.394 . S
C770 C771 1.369 . S
C770 C774 1.531 . S
C771 C770 1.369 . S
C771 C772 1.410 . S
C771 C779 1.503 . S
C772 C771 1.410 . S
C772 C773 1.392 . S
C772 C775 1.511 . S
C773 C769 1.376 . S
C773 C772 1.392 . S
C773 H785 0.929 . S
C774 C770 1.531 . S
C774 H786 0.960 . S
C774 H787 0.962 . S
C774 H788 0.960 . S
C775 C772 1.511 . S
C775 H789 0.961 1_554 S
C775 H790 0.961 1_554 S
C775 H791 0.961 . S
C776 C777 1.370 1_556 S
C776 C778 1.363 . S
C776 H792 0.931 . S
C777 C776 1.370 1_554 S
C777 C781 1.408 . S
C778 C776 1.363 . S
C778 C779 1.370 1_556 S
C778 C782 1.524 . S
C779 C771 1.503 . S
C779 C778 1.370 1_554 S
C779 C780 1.403 . S
C780 C779 1.403 . S
C780 C781 1.404 . S
C780 C783 1.539 . S
C781 C777 1.408 . S
C781 C780 1.404 . S
C781 H793 0.930 . S
C782 C778 1.524 . S
C782 H794 0.956 . S
C782 H795 0.961 . S
C782 H796 0.961 . S
C783 C780 1.539 . S
C783 H797 0.958 . S
C783 H798 0.961 . S
C783 H799 0.960 . S
H784 C768 0.931 . S
H785 C773 0.929 . S
H786 C774 0.960 . S
H787 C774 0.962 . S
H788 C774 0.960 . S
H789 C775 0.961 1_556 S
H790 C775 0.961 1_556 S
H791 C775 0.961 . S
H792 C776 0.931 . S
H793 C781 0.930 . S
H794 C782 0.956 . S
H795 C782 0.961 . S
H796 C782 0.961 . S
H797 C783 0.958 . S
H798 C783 0.961 . S
H799 C783 0.960 . S
C800 C801 1.391 . S
C800 C802 1.394 . S
C800 H816 0.931 . S
C801 C800 1.391 . S
C801 C805 1.376 . S
C802 C800 1.394 . S
C802 C803 1.369 . S
C802 C806 1.531 . S
C803 C802 1.369 . S
C803 C804 1.410 . S
C803 C811 1.503 . S
C804 C803 1.410 . S
C804 C805 1.392 . S
C804 C807 1.511 . S
C805 C801 1.376 . S
C805 C804 1.392 . S
C805 H817 0.929 . S
C806 C802 1.531 . S
C806 H818 0.960 . S
C806 H819 0.962 . S
C806 H820 0.960 . S
C807 C804 1.511 . S
C807 H821 0.961 . S
C807 H822 0.961 . S
C807 H823 0.961 . S
C808 C809 1.370 . S
C808 C810 1.363 . S
C808 H824 0.931 . S
C809 C808 1.370 . S
C809 C813 1.408 . S
C810 C808 1.363 . S
C810 C811 1.370 . S
C810 C814 1.524 . S
C811 C803 1.503 . S
C811 C810 1.370 . S
C811 C812 1.403 . S
C812 C811 1.403 . S
C812 C813 1.404 . S
C812 C815 1.539 . S
C813 C809 1.408 . S
C813 C812 1.404 . S
C813 H825 0.930 . S
C814 C810 1.524 . S
C814 H826 0.956 . S
C814 H827 0.961 . S
C814 H828 0.961 . S
C815 C812 1.539 . S
C815 H829 0.958 . S
C815 H830 0.961 . S
C815 H831 0.960 . S
H816 C800 0.931 . S
H817 C805 0.929 . S
H818 C806 0.960 . S
H819 C806 0.962 . S
H820 C806 0.960 . S
H821 C807 0.961 . S
H822 C807 0.961 . S
H823 C807 0.961 . S
H824 C808 0.931 . S
H825 C813 0.930 . S
H826 C814 0.956 . S
H827 C814 0.961 . S
H828 C814 0.961 . S
H829 C815 0.958 . S
H830 C815 0.961 . S
H831 C815 0.960 . S
C832 C833 1.391 . S
C832 C834 1.394 . S
C832 H848 0.931 . S
C833 C832 1.391 . S
C833 C837 1.376 . S
C834 C832 1.394 . S
C834 C835 1.369 . S
C834 C838 1.531 . S
C835 C834 1.369 . S
C835 C836 1.410 . S
C835 C843 1.503 . S
C836 C835 1.410 . S
C836 C837 1.392 . S
C836 C839 1.511 . S
C837 C833 1.376 . S
C837 C836 1.392 . S
C837 H849 0.929 . S
C838 C834 1.531 . S
C838 H850 0.960 . S
C838 H851 0.962 . S
C838 H852 0.960 . S
C839 C836 1.511 . S
C839 H853 0.961 . S
C839 H854 0.961 . S
C839 H855 0.961 . S
C840 C841 1.370 . S
C840 C842 1.363 . S
C840 H856 0.931 . S
C841 C840 1.370 . S
C841 C845 1.408 . S
C842 C840 1.363 . S
C842 C843 1.370 . S
C842 C846 1.524 . S
C843 C835 1.503 . S
C843 C842 1.370 . S
C843 C844 1.403 . S
C844 C843 1.403 . S
C844 C845 1.404 . S
C844 C847 1.539 . S
C845 C841 1.408 . S
C845 C844 1.404 . S
C845 H857 0.930 . S
C846 C842 1.524 . S
C846 H858 0.956 . S
C846 H859 0.961 . S
C846 H860 0.961 . S
C847 C844 1.539 . S
C847 H861 0.958 . S
C847 H862 0.961 . S
C847 H863 0.960 . S
H848 C832 0.931 . S
H849 C837 0.929 . S
H850 C838 0.960 . S
H851 C838 0.962 . S
H852 C838 0.960 . S
H853 C839 0.961 . S
H854 C839 0.961 . S
H855 C839 0.961 . S
H856 C840 0.931 . S
H857 C845 0.930 . S
H858 C846 0.956 . S
H859 C846 0.961 . S
H860 C846 0.961 . S
H861 C847 0.958 . S
H862 C847 0.961 . S
H863 C847 0.960 . S
C864 C865 1.391 1_556 S
C864 C866 1.394 . S
C864 H880 0.931 . S
C865 C864 1.391 1_554 S
C865 C869 1.376 . S
C866 C864 1.394 . S
C866 C867 1.357 1_556 S
C866 C870 1.531 . S
C867 C866 1.357 1_554 S
C867 C868 1.423 . S
C867 C875 1.503 . S
C868 C867 1.423 . S
C868 C869 1.392 . S
C868 C871 1.511 . S
C869 C865 1.376 . S
C869 C868 1.392 . S
C869 H881 0.929 . S
C870 C866 1.531 . S
C870 H882 0.960 . S
C870 H883 0.962 . S
C870 H884 0.960 . S
C871 C868 1.511 . S
C871 H885 0.961 . S
C871 H886 0.961 . S
C871 H887 0.961 . S
C872 C873 1.370 . S
C872 C874 1.363 . S
C872 H888 0.931 . S
C873 C872 1.370 . S
C873 C877 1.408 1_554 S
C874 C872 1.363 . S
C874 C875 1.370 . S
C874 C878 1.524 . S
C875 C867 1.503 . S
C875 C874 1.370 . S
C875 C876 1.403 1_554 S
C876 C875 1.403 1_556 S
C876 C877 1.404 . S
C876 C879 1.539 . S
C877 C873 1.408 1_556 S
C877 C876 1.404 . S
C877 H889 0.930 . S
C878 C874 1.524 . S
C878 H890 0.956 . S
C878 H891 0.961 . S
C878 H892 0.961 . S
C879 C876 1.539 . S
C879 H893 0.958 . S
C879 H894 0.961 . S
C879 H895 0.960 . S
H880 C864 0.931 . S
H881 C869 0.929 . S
H882 C870 0.960 . S
H883 C870 0.962 . S
H884 C870 0.960 . S
H885 C871 0.961 . S
H886 C871 0.961 . S
H887 C871 0.961 . S
H888 C872 0.931 . S
H889 C877 0.930 . S
H890 C878 0.956 . S
H891 C878 0.961 . S
H892 C878 0.961 . S
H893 C879 0.958 . S
H894 C879 0.961 . S
H895 C879 0.960 . S
C896 C897 1.391 . S
C896 C898 1.394 . S
C896 H912 0.931 . S
C897 C896 1.391 . S
C897 C901 1.376 . S
C898 C896 1.394 . S
C898 C899 1.369 . S
C898 C902 1.531 . S
C899 C898 1.369 . S
C899 C900 1.410 . S
C899 C907 1.503 . S
C900 C899 1.410 . S
C900 C901 1.392 . S
C900 C903 1.511 . S
C901 C897 1.376 . S
C901 C900 1.392 . S
C901 H913 0.929 . S
C902 C898 1.531 . S
C902 H914 0.960 . S
C902 H915 0.962 . S
C902 H916 0.960 . S
C903 C900 1.511 . S
C903 H917 0.961 . S
C903 H918 0.961 . S
C903 H919 0.961 . S
C904 C905 1.370 . S
C904 C906 1.363 . S
C904 H920 0.931 . S
C905 C904 1.370 . S
C905 C909 1.408 . S
C906 C904 1.363 . S
C906 C907 1.370 . S
C906 C910 1.524 . S
C907 C899 1.503 . S
C907 C906 1.370 . S
C907 C908 1.403 . S
C908 C907 1.403 . S
C908 C909 1.404 . S
C908 C911 1.539 . S
C909 C905 1.408 . S
C909 C908 1.404 . S
C909 H921 0.930 . S
C910 C906 1.524 . S
C910 H922 0.956 . S
C910 H923 0.961 . S
C910 H924 0.961 . S
C911 C908 1.539 . S
C911 H925 0.958 . S
C911 H926 0.961 . S
C911 H927 0.960 . S
H912 C896 0.931 . S
H913 C901 0.929 . S
H914 C902 0.960 . S
H915 C902 0.962 . S
H916 C902 0.960 . S
H917 C903 0.961 . S
H918 C903 0.961 . S
H919 C903 0.961 . S
H920 C904 0.931 . S
H921 C909 0.930 . S
H922 C910 0.956 . S
H923 C910 0.961 . S
H924 C910 0.961 . S
H925 C911 0.958 . S
H926 C911 0.961 . S
H927 C911 0.960 . S
C928 C929 1.389 1_554 S
C928 C930 1.394 . S
C928 H944 0.931 . S
C929 C928 1.389 1_556 S
C929 C933 1.379 . S
C930 C928 1.394 . S
C930 C931 1.369 1_554 S
C930 C934 1.531 . S
C931 C930 1.369 1_556 S
C931 C932 1.410 . S
C931 C939 1.503 . S
C932 C931 1.410 . S
C932 C933 1.392 . S
C932 C935 1.511 . S
C933 C929 1.379 . S
C933 C932 1.392 . S
C933 H945 0.929 . S
C934 C930 1.531 . S
C934 H946 0.960 1_554 S
C934 H947 0.962 . S
C934 H948 0.960 1_554 S
C935 C932 1.511 . S
C935 H949 0.961 . S
C935 H950 0.961 . S
C935 H951 0.961 . S
C936 C937 1.370 . S
C936 C938 1.363 . S
C936 H952 0.931 . S
C937 C936 1.370 . S
C937 C941 1.408 1_554 S
C938 C936 1.363 . S
C938 C939 1.370 1_554 S
C938 C942 1.524 . S
C939 C931 1.503 . S
C939 C938 1.370 1_556 S
C939 C940 1.403 . S
C940 C939 1.403 . S
C940 C941 1.404 . S
C940 C943 1.539 . S
C941 C937 1.408 1_556 S
C941 C940 1.404 . S
C941 H953 0.930 . S
C942 C938 1.524 . S
C942 H954 0.956 . S
C942 H955 0.961 . S
C942 H956 0.961 . S
C943 C940 1.539 . S
C943 H957 0.958 . S
C943 H958 0.961 . S
C943 H959 0.960 . S
H944 C928 0.931 . S
H945 C933 0.929 . S
H946 C934 0.960 1_556 S
H947 C934 0.962 . S
H948 C934 0.960 1_556 S
H949 C935 0.961 . S
H950 C935 0.961 . S
H951 C935 0.961 . S
H952 C936 0.931 . S
H953 C941 0.930 . S
H954 C942 0.956 . S
H955 C942 0.961 . S
H956 C942 0.961 . S
H957 C943 0.958 . S
H958 C943 0.961 . S
H959 C943 0.960 . S
C193 C5 1.476 . S
C201 C135 1.476 . S
C225 C31 1.480 . S
C233 C97 1.471 . S
C265 C110 1.461 . S
C257 C53 1.470 . S
C289 C71 1.445 . S
C297 C122 1.458 . S
C329 C162 1.483 . S
C321 C75 1.501 . S
C361 C174 1.464 . S
C353 C9 1.438 . S
C393 C187 1.458 . S
C385 C27 1.446 . S
C425 C149 1.466 . S
C417 C49 1.474 . S
C449 C51 1.461 . S
C457 C109 1.468 . S
C481 C72 1.497 . S
C489 C123 1.485 . S
C513 C6 1.482 . S
C521 C136 1.465 . S
C553 C96 1.460 . S
C545 C29 1.456 . S
C577 C28 1.464 . S
C585 C188 1.467 . S
C617 C148 1.464 . S
C609 C50 1.447 . S
C649 C161 1.453 . S
C641 C73 1.440 . S
C673 C7 1.486 . S
C681 C175 1.471 . S
C713 C92 1.459 1_554 S
C705 C4 1.514 . S
C745 C105 1.463 . S
C737 C30 1.506 . S
C769 C52 1.496 . S
C777 C118 1.468 . S
C801 C70 1.493 . S
C809 C131 1.488 . S
C841 C144 1.444 . S
C833 C74 1.504 . S
C865 C8 1.483 . S
C873 C157 1.443 . S
C897 C26 1.482 . S
C905 C170 1.485 . S
C929 C48 1.501 1_556 S
C937 C183 1.466 1_554 S
