# Generated by pormake.
# Topology pth, (4,4)-cn, num edge types: 1
# Building blocks:
#     Node 0, Type 0, BuildingBlock: TATPOV_clean_sbu_0, # of connection points: 4
#     Node 1, Type 0, BuildingBlock: TATPOV_clean_sbu_0, # of connection points: 4
#     Node 2, Type 0, BuildingBlock: TATPOV_clean_sbu_0, # of connection points: 4
#     Node 3, Type 1, BuildingBlock: AZAVOO_clean_linker_0, # of connection points: 4
#     Node 4, Type 1, BuildingBlock: AZAVOO_clean_linker_0, # of connection points: 4
#     Node 5, Type 1, BuildingBlock: AZAVOO_clean_linker_0, # of connection points: 4
#     Edge 6, Type (0, 1), BuildingBlock: XIVTED_clean_linker_0, # of connection points: 2
#     Edge 7, Type (0, 1), BuildingBlock: XIVTED_clean_linker_0, # of connection points: 2
#     Edge 8, Type (0, 1), BuildingBlock: XIVTED_clean_linker_0, # of connection points: 2
#     Edge 9, Type (0, 1), BuildingBlock: XIVTED_clean_linker_0, # of connection points: 2
#     Edge 10, Type (0, 1), BuildingBlock: XIVTED_clean_linker_0, # of connection points: 2
#     Edge 11, Type (0, 1), BuildingBlock: XIVTED_clean_linker_0, # of connection points: 2
#     Edge 12, Type (0, 1), BuildingBlock: XIVTED_clean_linker_0, # of connection points: 2
#     Edge 13, Type (0, 1), BuildingBlock: XIVTED_clean_linker_0, # of connection points: 2
#     Edge 14, Type (0, 1), BuildingBlock: XIVTED_clean_linker_0, # of connection points: 2
#     Edge 15, Type (0, 1), BuildingBlock: XIVTED_clean_linker_0, # of connection points: 2
#     Edge 16, Type (0, 1), BuildingBlock: XIVTED_clean_linker_0, # of connection points: 2
#     Edge 17, Type (0, 1), BuildingBlock: XIVTED_clean_linker_0, # of connection points: 2
# Relax obj value: 0.151
# Max RMSD: 0.230
# Mean RMSD: 0.204
data_MOF--net-pth--node1-TATPOV_clean_sbu_0--node2-AZAVOO_clean_linker_0--edge1-XIVTED_clean_linker_0
_symmetry_space_group_name_H-M    P1
_symmetry_Int_Tables_number       1
_symmetry_cell_setting            triclinic
loop_
_symmetry_equiv_pos_as_xyz
'x, y, z'
_cell_length_a     26.55111
_cell_length_b     26.415899
_cell_length_c     69.50663
_cell_angle_alpha  94.136684
_cell_angle_beta   91.391568
_cell_angle_gamma 121.22687
loop_
_atom_site_label
_atom_site_type_symbol
_atom_site_fract_x
_atom_site_fract_y
_atom_site_fract_z
_atom_type_partial_charge
Zn0 Zn 0.23541 0.01927 0.05421 0.0
Zn1 Zn 0.17952 0.07335 0.06932 0.0
O2 O 0.17423 0.01757 0.08921 0.0
O3 O 0.21761 0.97157 0.07731 0.0
O4 O 0.14125 0.11412 0.0822 0.0
O5 O 0.30973 0.10069 0.05394 0.0
O6 O 0.26137 0.14253 0.06486 0.0
C7 C 0.18994 0.97983 0.09054 0.0
C8 C 0.13354 -0.00055 0.03035 0.0
O9 O 0.12936 0.0316 0.04401 0.0
O10 O 0.17421 0.98781 0.03137 0.0
C11 C 0.09536 0.08583 0.09142 0.0
O12 O 0.07088 0.02813 0.09182 0.0
C13 C 0.30826 0.14707 0.05879 0.0
Zn14 Zn 0.15179 0.04516 0.3637 0.0
Zn15 Zn 0.06744 0.02389 0.38805 0.0
O16 O 0.14664 0.07347 0.40414 0.0
O17 O 0.21689 0.09909 0.38409 0.0
O18 O 0.01104 0.01898 0.40762 0.0
O19 O 0.11724 0.07749 0.34558 0.0
O20 O 0.05092 0.06334 0.36634 0.0
C21 C 0.20127 0.10083 0.40106 0.0
C22 C 0.07409 0.92006 0.37036 0.0
O23 O 0.04586 0.93807 0.38041 0.0
O24 O 0.11981 0.95678 0.36241 0.0
C25 C 0.00905 -0.00197 0.42367 0.0
O26 O 0.04161 0.97501 0.427 0.0
C27 C 0.07343 0.0811 0.35039 0.0
Zn28 Zn 0.12733 0.93318 0.74782 0.0
Zn29 Zn 0.08026 0.98719 0.72989 0.0
O30 O 0.13028 0.97416 0.71014 0.0
O31 O 0.15937 0.91935 0.72333 0.0
O32 O 0.03379 0.01259 0.71425 0.0
O33 O 0.04891 0.86986 0.75636 0.0
O34 O 0.01294 0.91767 0.74241 0.0
C35 C 0.15792 0.94651 0.70926 0.0
C36 C 0.17209 0.05924 0.76205 0.0
O37 O 0.13436 0.05652 0.74969 0.0
O38 O 0.17682 0.01425 0.76369 0.0
C39 C 0.05374 0.05236 0.70254 0.0
O40 O 0.11071 0.08299 0.70034 0.0
C41 C 0.00563 0.8756 0.75214 0.0
H42 H 0.98225 0.4929 0.10196 0.0
H43 H 0.00965 0.77795 0.31737 0.0
H44 H 0.88431 0.33182 0.20483 0.0
H45 H 0.89954 0.26562 0.18232 0.0
H46 H 0.0854 0.39953 0.18405 0.0
H47 H 0.06958 0.46514 0.20622 0.0
H48 H 0.89697 0.43145 0.17871 0.0
H49 H 0.91631 0.44325 0.14456 0.0
H50 H 0.09481 0.58759 0.16128 0.0
H51 H 0.07517 0.57462 0.19533 0.0
H52 H 0.90277 0.55123 0.19362 0.0
H53 H 0.93573 0.63373 0.17343 0.0
H54 H 0.09816 0.73582 0.2096 0.0
H55 H 0.06605 0.65245 0.22932 0.0
H56 H 0.882 0.57374 0.24127 0.0
H57 H 0.88344 0.65069 0.2636 0.0
H58 H 0.04697 0.68614 0.29192 0.0
H59 H 0.04549 0.60996 0.26934 0.0
H60 H 0.85899 0.47818 0.26837 0.0
H61 H 0.86744 0.51944 0.30132 0.0
H62 H 0.02751 0.51724 0.31233 0.0
H63 H 0.02292 0.48435 0.2785 0.0
H64 H 0.86576 0.3475 0.25508 0.0
H65 H 0.87111 0.27128 0.27182 0.0
H66 H 0.05471 0.35166 0.25989 0.0
H67 H 0.04921 0.42735 0.24357 0.0
O68 O 0.97572 0.48858 0.11554 0.0
O69 O 0.06673 0.56311 0.12493 0.0
O70 O 0.92559 0.72991 0.29265 0.0
O71 O 0.00886 0.74859 0.30798 0.0
C72 C 0.96615 0.44637 0.2187 0.0
C73 C 0.97211 0.49599 0.2102 0.0
C74 C 0.96964 0.54106 0.2216 0.0
C75 C 0.95996 0.5358 0.24139 0.0
C76 C 0.95066 0.48429 0.24973 0.0
C77 C 0.9556 0.44044 0.23849 0.0
C78 C 0.97576 0.40332 0.20697 0.0
C79 C 0.92832 0.34631 0.20048 0.0
C80 C 0.93714 0.30868 0.18767 0.0
C81 C 0.99353 0.32777 0.1812 0.0
C82 C 0.04123 0.38406 0.18842 0.0
C83 C 0.0324 0.42142 0.20117 0.0
C84 C 0.9845 0.50243 0.18946 0.0
C85 C 0.94027 0.46537 0.17494 0.0
C86 C 0.95142 0.47233 0.15546 0.0
C87 C 0.00705 0.51654 0.15019 0.0
C88 C 0.05145 0.55323 0.16483 0.0
C89 C 0.04032 0.54602 0.18428 0.0
C90 C 0.98215 0.59573 0.21285 0.0
C91 C 0.94472 0.59202 0.1975 0.0
C92 C 0.96361 0.63892 0.18598 0.0
C93 C 0.01956 0.69065 0.18995 0.0
C94 C 0.05469 0.69644 0.20637 0.0
C95 C 0.03628 0.64904 0.21767 0.0
C96 C 0.96342 0.58605 0.25376 0.0
C97 C 0.91845 0.59875 0.25214 0.0
C98 C 0.91925 0.64247 0.26499 0.0
C99 C 0.96514 0.67428 0.27965 0.0
C100 C 0.01089 0.6624 0.28086 0.0
C101 C 0.01018 0.61893 0.26797 0.0
C102 C 0.94156 0.48069 0.27076 0.0
C103 C 0.89501 0.48501 0.27808 0.0
C104 C 0.89988 0.50847 0.29715 0.0
C105 C 0.95033 0.52545 0.30941 0.0
C106 C 0.99005 0.50856 0.30303 0.0
C107 C 0.98675 0.48809 0.28369 0.0
C108 C 0.95685 0.39236 0.24785 0.0
C109 C 0.90689 0.34816 0.256 0.0
C110 C 0.91007 0.30493 0.26557 0.0
C111 C 0.96316 0.30519 0.26696 0.0
C112 C 0.01285 0.34945 0.25868 0.0
C113 C 0.00978 0.39272 0.24933 0.0
C114 C 0.01853 0.52431 0.12949 0.0
C115 C 0.96517 0.71926 0.29375 0.0
H116 H 0.68568 0.06979 0.43622 0.0
H117 H 0.32338 0.16072 0.58912 0.0
H118 H 0.65376 0.99221 0.54331 0.0
H119 H 0.72333 0.97679 0.52519 0.0
H120 H 0.85038 0.1658 0.53318 0.0
H121 H 0.7805 0.18068 0.55153 0.0
H122 H 0.58387 0.02008 0.51127 0.0
H123 H 0.61337 0.02378 0.47804 0.0
H124 H 0.7503 0.20858 0.49168 0.0
H125 H 0.72002 0.20422 0.52482 0.0
H126 H 0.47466 0.03356 0.52942 0.0
H127 H 0.41546 0.05137 0.5065 0.0
H128 H 0.56017 0.23253 0.50537 0.0
H129 H 0.61898 0.21448 0.5286 0.0
H130 H 0.46031 0.01137 0.57239 0.0
H131 H 0.3721 0.01218 0.58124 0.0
H132 H 0.46329 0.2012 0.5759 0.0
H133 H 0.55158 0.19993 0.56741 0.0
H134 H 0.55337 0.99296 0.59609 0.0
H135 H 0.48766 0.96499 0.62233 0.0
H136 H 0.52203 0.14466 0.63013 0.0
H137 H 0.59192 0.17296 0.60536 0.0
H138 H 0.64943 0.99373 0.58222 0.0
H139 H 0.71659 0.98803 0.60558 0.0
H140 H 0.79875 0.17615 0.62298 0.0
H141 H 0.73168 0.18137 0.59945 0.0
O142 O 0.67428 0.06949 0.44935 0.0
O143 O 0.74417 0.16431 0.45713 0.0
O144 O 0.31304 0.0621 0.58844 0.0
O145 O 0.35761 0.15911 0.58561 0.0
C146 C 0.66494 0.0976 0.55484 0.0
C147 C 0.63352 0.10846 0.54069 0.0
C148 C 0.58478 0.11289 0.54563 0.0
C149 C 0.56655 0.10525 0.56464 0.0
C150 C 0.5989 0.09583 0.57901 0.0
C151 C 0.64866 0.09278 0.57411 0.0
C152 C 0.71232 0.08749 0.54876 0.0
C153 C 0.69751 0.02993 0.54181 0.0
C154 C 0.73721 0.02125 0.53142 0.0
C155 C 0.79198 0.07019 0.52763 0.0
C156 C 0.80821 0.12741 0.53577 0.0
C157 C 0.7687 0.13594 0.54637 0.0
C158 C 0.64987 0.11185 0.52036 0.0
C159 C 0.61995 0.06136 0.50698 0.0
C160 C 0.63702 0.0636 0.48805 0.0
C161 C 0.68431 0.11645 0.48221 0.0
C162 C 0.71376 0.16717 0.49569 0.0
C163 C 0.69656 0.16486 0.5146 0.0
C164 C 0.55089 0.1228 0.53068 0.0
C165 C 0.49353 0.07704 0.5242 0.0
C166 C 0.45977 0.08741 0.51124 0.0
C167 C 0.48309 0.14355 0.50435 0.0
C168 C 0.54123 0.18887 0.51045 0.0
C169 C 0.57481 0.17862 0.52362 0.0
C170 C 0.51238 0.10564 0.56936 0.0
C171 C 0.46115 0.0529 0.57318 0.0
C172 C 0.41082 0.05349 0.5782 0.0
C173 C 0.41067 0.10681 0.5793 0.0
C174 C 0.46192 0.15942 0.57521 0.0
C175 C 0.51235 0.15882 0.5703 0.0
C176 C 0.57685 0.08482 0.59862 0.0
C177 C 0.54906 0.02693 0.60421 0.0
C178 C 0.51014 0.01069 0.61892 0.0
C179 C 0.49713 0.05171 0.62796 0.0
C180 C 0.53028 0.11136 0.62369 0.0
C181 C 0.57056 0.12791 0.60942 0.0
C182 C 0.68578 0.08792 0.58921 0.0
C183 C 0.68164 0.0335 0.5912 0.0
C184 C 0.71986 0.03035 0.60459 0.0
C185 C 0.76311 0.08173 0.61607 0.0
C186 C 0.76639 0.13599 0.61418 0.0
C187 C 0.72791 0.13898 0.60089 0.0
C188 C 0.70287 0.11844 0.46217 0.0
C189 C 0.35741 0.10774 0.58472 0.0
H190 H 0.79757 0.83273 0.01838 0.0
H191 H 0.30664 0.21713 0.92648 0.0
H192 H 0.6722 0.75535 0.92382 0.0
H193 H 0.76979 0.83663 0.93586 0.0
H194 H 0.84733 0.74601 0.90655 0.0
H195 H 0.7492 0.66203 0.89663 0.0
H196 H 0.60895 0.68329 0.95818 0.0
H197 H 0.6756 0.74892 0.98582 0.0
H198 H 0.80772 0.7103 0.96752 0.0
H199 H 0.7404 0.64425 0.94016 0.0
H200 H 0.48618 0.54157 0.95222 0.0
H201 H 0.45934 0.48875 0.98129 0.0
H202 H 0.62174 0.48766 0.98197 0.0
H203 H 0.64616 0.53703 0.95232 0.0
H204 H 0.43113 0.4995 0.90674 0.0
H205 H 0.3423 0.402 0.9089 0.0
H206 H 0.45123 0.33452 0.92747 0.0
H207 H 0.53965 0.43195 0.92502 0.0
H208 H 0.49118 0.55957 0.86883 0.0
H209 H 0.4304 0.48568 0.84167 0.0
H210 H 0.49924 0.37638 0.85751 0.0
H211 H 0.56092 0.45113 0.88388 0.0
H212 H 0.61051 0.68993 0.87347 0.0
H213 H 0.65517 0.7236 0.84297 0.0
H214 H 0.71545 0.59937 0.84243 0.0
H215 H 0.66734 0.56387 0.87201 0.0
O216 O 0.77128 0.80532 0.00769 0.0
O217 O 0.83847 0.78582 0.99714 0.0
O218 O 0.28702 0.29287 0.91577 0.0
O219 O 0.34102 0.2561 0.92548 0.0
C220 C 0.64736 0.64437 0.911 0.0
C221 C 0.63148 0.62357 0.92946 0.0
C222 C 0.58074 0.56744 0.93109 0.0
C223 C 0.54543 0.53204 0.9143 0.0
C224 C 0.56267 0.55158 0.89584 0.0
C225 C 0.61377 0.60755 0.89417 0.0
C226 C 0.70332 0.70198 0.90979 0.0
C227 C 0.71042 0.75413 0.91938 0.0
C228 C 0.76667 0.80086 0.92625 0.0
C229 C 0.81666 0.79681 0.92296 0.0
C230 C 0.80968 0.74937 0.91018 0.0
C231 C 0.75336 0.70168 0.90399 0.0
C232 C 0.67006 0.6595 0.9471 0.0
C233 C 0.65205 0.68861 0.96031 0.0
C234 C 0.69032 0.72625 0.97602 0.0
C235 C 0.74719 0.73525 0.97878 0.0
C236 C 0.76439 0.70465 0.96576 0.0
C237 C 0.72603 0.6669 0.95013 0.0
C238 C 0.568 0.54298 0.95015 0.0
C239 C 0.51613 0.53042 0.95881 0.0
C240 C 0.50121 0.50072 0.97552 0.0
C241 C 0.53826 0.48362 0.98393 0.0
C242 C 0.59172 0.49923 0.97571 0.0
C243 C 0.60613 0.5281 0.95889 0.0
C244 C 0.49172 0.47289 0.91588 0.0
C245 C 0.43565 0.46357 0.91128 0.0
C246 C 0.38503 0.40788 0.91253 0.0
C247 C 0.38967 0.36048 0.91841 0.0
C248 C 0.44605 0.37004 0.92295 0.0
C249 C 0.49662 0.42571 0.92164 0.0
C250 C 0.53006 0.51037 0.87833 0.0
C251 C 0.49365 0.52004 0.86614 0.0
C252 C 0.45867 0.47759 0.85077 0.0
C253 C 0.45976 0.42495 0.84741 0.0
C254 C 0.49786 0.41668 0.8594 0.0
C255 C 0.53285 0.45911 0.87461 0.0
C256 C 0.63592 0.62467 0.8749 0.0
C257 C 0.63248 0.66944 0.86646 0.0
C258 C 0.65858 0.68892 0.84913 0.0
C259 C 0.68968 0.66478 0.84016 0.0
C260 C 0.69115 0.61848 0.84851 0.0
C261 C 0.66403 0.5983 0.86557 0.0
C262 C 0.78851 0.77684 0.99508 0.0
C263 C 0.33603 0.30124 0.91978 0.0
H264 H 0.00796 0.04242 0.11672 0.0
H265 H 0.05945 0.36329 0.14991 0.0
H266 H 0.13232 0.20382 0.09243 0.0
H267 H 0.94834 0.20717 0.17885 0.0
H268 H 0.07901 0.30295 0.12673 0.0
H269 H 0.97758 0.09936 0.13744 0.0
C270 C 0.02853 0.08971 0.11562 0.0
C271 C 0.07304 0.11847 0.1029 0.0
C272 C 0.05023 0.28173 0.13811 0.0
C273 C 0.0386 0.18381 0.12659 0.0
C274 C 0.03932 0.31625 0.15143 0.0
C275 C 0.00286 0.29037 0.16651 0.0
C276 C 0.02453 0.22069 0.13981 0.0
C277 C 0.97667 0.2289 0.16744 0.0
C278 C 0.01127 0.12219 0.12749 0.0
C279 C 0.09811 0.17982 0.10209 0.0
N280 N 0.98833 0.19616 0.15433 0.0
N281 N 0.08071 0.21041 0.11382 0.0
H282 H 0.9863 0.95055 0.45854 0.0
H283 H 0.84113 0.13474 0.49729 0.0
H284 H 0.95555 0.06285 0.42408 0.0
H285 H 0.82384 0.9863 0.52516 0.0
H286 H 0.89394 0.11641 0.47213 0.0
H287 H 0.93535 0.96877 0.4846 0.0
C288 C 0.96862 0.97877 0.45641 0.0
C289 C 0.97518 0.00519 0.43909 0.0
C290 C 0.87888 0.08797 0.48378 0.0
C291 C 0.91772 0.02678 0.46889 0.0
C292 C 0.84935 0.09885 0.49827 0.0
C293 C 0.82853 0.06223 0.51339 0.0
C294 C 0.88806 0.04033 0.48445 0.0
C295 C 0.83916 0.01547 0.5137 0.0
C296 C 0.9396 0.98914 0.47128 0.0
C297 C 0.95142 0.04138 0.43714 0.0
N298 N 0.86834 0.00588 0.49945 0.0
N299 N 0.92411 0.05138 0.45189 0.0
H300 H 0.92032 0.90142 0.75928 0.0
H301 H 0.71322 0.60784 0.80993 0.0
H302 H 0.96158 0.76465 0.76417 0.0
H303 H 0.74625 0.78104 0.83131 0.0
H304 H 0.78263 0.65431 0.78518 0.0
H305 H 0.83329 0.84535 0.77753 0.0
C306 C 0.91041 0.85901 0.76383 0.0
C307 C 0.94848 0.83784 0.76039 0.0
C308 C 0.7738 0.68169 0.79519 0.0
C309 C 0.84902 0.77362 0.781 0.0
C310 C 0.73456 0.65544 0.80945 0.0
C311 C 0.72434 0.69051 0.82313 0.0
C312 C 0.80199 0.7432 0.79427 0.0
C313 C 0.75195 0.75174 0.82114 0.0
C314 C 0.86101 0.82734 0.7743 0.0
C315 C 0.93365 0.78278 0.7667 0.0
N316 N 0.78966 0.77612 0.80706 0.0
N317 N 0.88506 0.75254 0.77677 0.0
H318 H 0.15011 -0.00228 0.1249 0.0
H319 H 0.02823 0.66946 0.15185 0.0
H320 H 0.18583 0.875 0.09275 0.0
H321 H 0.06867 0.81153 0.19585 0.0
H322 H 0.07404 0.74252 0.12838 0.0
H323 H 0.11026 0.92888 0.14998 0.0
C324 C 0.15004 0.9566 0.12319 0.0
C325 C 0.17124 0.94199 0.1067 0.0
C326 C 0.07283 0.75773 0.14316 0.0
C327 C 0.12483 0.863 0.13505 0.0
C328 C 0.04621 0.71611 0.15647 0.0
C329 C 0.04432 0.73474 0.17569 0.0
C330 C 0.09697 0.81831 0.14904 0.0
C331 C 0.06922 0.79567 0.1811 0.0
C332 C 0.12739 0.91749 0.1375 0.0
C333 C 0.17013 0.88816 0.10524 0.0
N334 N 0.09422 0.83548 0.16777 0.0
N335 N 0.14661 0.85029 0.11911 0.0
H336 H 0.18337 0.10272 0.43967 0.0
H337 H 0.51457 0.19773 0.47086 0.0
H338 H 0.32168 0.15873 0.40017 0.0
H339 H 0.36859 0.11334 0.50696 0.0
H340 H 0.44976 0.20485 0.44694 0.0
H341 H 0.25626 0.12877 0.46648 0.0
C342 C 0.22922 0.12148 0.43665 0.0
C343 C 0.24624 0.12745 0.41758 0.0
C344 C 0.43212 0.1854 0.4602 0.0
C345 C 0.32976 0.15676 0.44821 0.0
C346 C 0.4691 0.18153 0.47386 0.0
C347 C 0.44654 0.15406 0.49073 0.0
C348 C 0.37233 0.16185 0.46352 0.0
C349 C 0.38733 0.13369 0.49393 0.0
C350 C 0.27079 0.13613 0.45197 0.0
C351 C 0.30641 0.15254 0.4146 0.0
N352 N 0.35215 0.13756 0.48037 0.0
N353 N 0.3459 0.1655 0.42973 0.0
H354 H 0.16123 0.15654 0.77011 0.0
H355 H 0.48334 0.35356 0.8236 0.0
H356 H 0.27734 0.09094 0.78051 0.0
H357 H 0.34417 0.38689 0.83652 0.0
H358 H 0.4132 0.26681 0.80184 0.0
H359 H 0.23267 0.25053 0.78926 0.0
C360 C 0.20164 0.16189 0.7764 0.0
C361 C 0.21324 0.11576 0.77383 0.0
C362 C 0.39816 0.29336 0.80937 0.0
C363 C 0.29507 0.22293 0.79526 0.0
C364 C 0.4381 0.34281 0.82184 0.0
C365 C 0.41949 0.37712 0.8322 0.0
C366 C 0.33922 0.27828 0.80701 0.0
C367 C 0.36061 0.36194 0.82882 0.0
C368 C 0.2422 0.21536 0.7873 0.0
C369 C 0.26629 0.12503 0.78226 0.0
N370 N 0.32239 0.31336 0.81657 0.0
N371 N 0.30533 0.17762 0.79249 0.0
H372 H 0.07917 0.13484 0.67658 0.0
H373 H 0.74008 -0.00268 0.64086 0.0
H374 H 0.9331 0.9888 0.70131 0.0
H375 H 0.88256 0.15969 0.62216 0.0
H376 H 0.81092 0.99228 0.66252 0.0
H377 H 0.00858 0.14416 0.65609 0.0
C378 C 0.03234 0.10491 0.67777 0.0
C379 C 0.0121 0.06088 0.69066 0.0
C380 C 0.82672 0.02917 0.65374 0.0
C381 C 0.93113 0.07106 0.66719 0.0
C382 C 0.78632 0.03186 0.64129 0.0
C383 C 0.80543 0.07895 0.62967 0.0
C384 C 0.88688 0.07364 0.65449 0.0
C385 C 0.86581 0.12291 0.63101 0.0
C386 C 0.99206 0.11028 0.66607 0.0
C387 C 0.95085 0.02339 0.69159 0.0
N388 N 0.90442 0.11904 0.64312 0.0
N389 N 0.91264 0.02916 0.67996 0.0
H390 H 0.05163 0.02821 0.01983 0.0
H391 H 0.8914 0.76359 0.93704 0.0
H392 H 0.11866 0.91568 0.00165 0.0
H393 H 0.86744 0.91377 0.93895 0.0
H394 H 0.97271 0.81778 0.96134 0.0
H395 H 0.98037 0.98517 0.99149 0.0
C396 C 0.05147 0.9946 0.00989 0.0
C397 C 0.09093 0.97524 0.01318 0.0
C398 C 0.9503 0.83932 0.95625 0.0
C399 C 0.00976 0.92607 0.98088 0.0
C400 C 0.904 0.80861 0.94208 0.0
C401 C 0.87218 0.83402 0.93562 0.0
C402 C 0.96464 0.89562 0.96445 0.0
C403 C 0.88992 0.89185 0.94357 0.0
C404 C 0.0111 0.97042 0.99368 0.0
C405 C 0.08903 0.93188 -0.00025 0.0
N406 N 0.93453 0.92045 0.95775 0.0
N407 N 0.04881 0.90844 0.9843 0.0
H408 H 0.96261 0.82211 0.37258 0.0
H409 H 0.06294 0.61186 0.32345 0.0
H410 H 0.14169 0.87334 0.36201 0.0
H411 H 0.88013 0.54844 0.33335 0.0
H412 H 0.09224 0.70052 0.34421 0.0
H413 H 0.93159 0.71745 0.36388 0.0
C414 C 0.99544 0.81125 0.36873 0.0
C415 C 0.05457 0.85641 0.36762 0.0
C416 C 0.04564 0.66701 0.34209 0.0
C417 C 0.01978 0.73761 0.35792 0.0
C418 C 0.02852 0.61514 0.33034 0.0
C419 C 0.96836 0.57192 0.32609 0.0
C420 C 0.00262 0.67719 0.34944 0.0
C421 C 0.92688 0.58106 0.3355 0.0
C422 C 0.97777 0.75165 0.36379 0.0
C423 C 0.09542 0.84008 0.36266 0.0
N424 N 0.94467 0.63331 0.34637 0.0
N425 N 0.07718 0.78225 0.35787 0.0
H426 H 0.21564 0.04362 0.68927 0.0
H427 H 0.39313 0.94223 0.62499 0.0
H428 H 0.19323 0.87152 0.69475 0.0
H429 H 0.4807 0.11467 0.65823 0.0
H430 H 0.30608 0.91259 0.64312 0.0
H431 H 0.29767 0.06733 0.66886 0.0
C432 C 0.22686 0.0102 0.68573 0.0
C433 C 0.19773 0.95552 0.6937 0.0
C434 C 0.34463 0.95681 0.64634 0.0
C435 C 0.29101 0.98244 0.67047 0.0
C436 C 0.39489 0.9738 0.63621 0.0
C437 C 0.4453 0.03136 0.64 0.0
C438 C 0.34386 -0.00193 0.65992 0.0
C439 C 0.44304 0.07039 0.65436 0.0
C440 C 0.27401 0.02408 0.67432 0.0
C441 C 0.2147 0.91418 0.68889 0.0
N442 N 0.39296 0.05327 0.66362 0.0
N443 N 0.26033 0.92843 0.67752 0.0
H444 H 0.41276 0.17326 0.04386 0.0
H445 H 0.47778 0.48745 0.01514 0.0
H446 H 0.31578 0.25479 0.06363 0.0
H447 H 0.55309 0.39032 0.98921 0.0
H448 H 0.43452 0.414 0.03864 0.0
H449 H 0.48223 0.26486 0.03021 0.0
C450 C 0.40665 0.21077 0.04567 0.0
C451 C 0.35755 0.20582 0.05453 0.0
C452 C 0.46132 0.40941 0.02797 0.0
C453 C 0.43655 0.31058 0.03869 0.0
C454 C 0.48573 0.4511 0.01448 0.0
C455 C 0.5186 0.4448 -1e-05 0.0
C456 C 0.46978 0.36105 0.02695 0.0
C457 C 0.52851 0.39748 0.00014 0.0
C458 C 0.44626 0.26304 0.0378 0.0
C459 C 0.35244 0.25623 0.05665 0.0
N460 N 0.50369 0.35718 0.01325 0.0
N461 N 0.39086 0.30621 0.04848 0.0
H462 H 0.98918 0.10957 0.35751 0.0
H463 H 0.01642 0.24388 0.25603 0.0
H464 H 0.1019 0.11016 0.31366 0.0
H465 H 0.92221 0.26714 0.30217 0.0
H466 H 0.03616 0.18199 0.27547 0.0
H467 H 0.95322 0.15557 0.33608 0.0
C468 C 0.00614 0.11905 0.34336 0.0
C469 C 0.04904 0.10648 0.33744 0.0
C470 C 0.0108 0.20022 0.28133 0.0
C471 C 0.00791 0.15873 0.31287 0.0
C472 C -0.00041 0.23561 0.27024 0.0
C473 C 0.96831 0.26129 0.27761 0.0
C474 C 0.99079 0.19049 0.29999 0.0
C475 C 0.94645 0.24812 0.29594 0.0
C476 C 0.9856 0.1453 0.33115 0.0
C477 C 0.06926 0.11954 0.31892 0.0
N478 N 0.95863 0.21407 0.30661 0.0
N479 N 0.04867 0.14508 0.30736 0.0
loop_
_geom_bond_atom_site_label_1
_geom_bond_atom_site_label_2
_geom_bond_distance
_geom_bond_site_symmetry_2
_ccdc_geom_bond_type
Zn0 O3 2.031 1_545 S
Zn0 O5 2.049 . S
Zn0 O10 2.067 1_545 S
Zn1 O2 1.962 . S
Zn1 O4 1.986 . S
Zn1 O6 1.996 . S
Zn1 O9 1.943 . S
O2 Zn1 1.962 . S
O2 C7 1.254 1_545 S
O3 Zn0 2.031 1_565 S
O3 C7 1.269 . S
O4 Zn1 1.986 . S
O4 C11 1.262 . S
O5 Zn0 2.049 . S
O5 C13 1.260 . S
O6 Zn1 1.996 . S
O6 C13 1.257 . S
C7 O2 1.254 1_565 S
C7 O3 1.269 . S
C8 O9 1.259 . S
C8 O10 1.263 1_545 S
O9 Zn1 1.943 . S
O9 C8 1.259 . S
O10 Zn0 2.067 1_565 S
O10 C8 1.263 1_565 S
C11 O4 1.262 . S
C11 O12 1.232 . S
O12 C11 1.232 . S
C13 O5 1.260 . S
C13 O6 1.257 . S
Zn14 O17 2.031 . S
Zn14 O19 2.049 . S
Zn14 O24 2.068 . S
Zn15 O16 1.962 . S
Zn15 O18 1.986 1_455 S
Zn15 O20 1.996 . S
Zn15 O23 1.943 1_545 S
O16 Zn15 1.962 . S
O16 C21 1.254 . S
O17 Zn14 2.031 . S
O17 C21 1.269 . S
O18 Zn15 1.986 1_655 S
O18 C25 1.262 . S
O19 Zn14 2.049 . S
O19 C27 1.260 . S
O20 Zn15 1.996 . S
O20 C27 1.257 . S
C21 O16 1.254 . S
C21 O17 1.269 . S
C22 O23 1.249 . S
C22 O24 1.270 1_565 S
O23 Zn15 1.943 1_565 S
O23 C22 1.249 . S
O24 Zn14 2.068 . S
O24 C22 1.270 1_545 S
C25 O18 1.262 . S
C25 O26 1.232 1_545 S
O26 C25 1.232 1_565 S
C27 O19 1.260 . S
C27 O20 1.257 . S
Zn28 O31 2.031 1_565 S
Zn28 O33 2.049 . S
Zn28 O38 2.067 1_565 S
Zn29 O30 1.962 . S
Zn29 O32 1.986 . S
Zn29 O34 1.996 1_545 S
Zn29 O37 1.943 . S
O30 Zn29 1.962 . S
O30 C35 1.254 . S
O31 Zn28 2.031 1_545 S
O31 C35 1.269 . S
O32 Zn29 1.986 . S
O32 C39 1.262 . S
O33 Zn28 2.049 . S
O33 C41 1.260 . S
O34 Zn29 1.996 1_565 S
O34 C41 1.257 . S
C35 O30 1.254 . S
C35 O31 1.269 . S
C36 O37 1.249 . S
C36 O38 1.270 . S
O37 Zn29 1.943 . S
O37 C36 1.249 . S
O38 Zn28 2.067 1_545 S
O38 C36 1.270 . S
C39 O32 1.262 . S
C39 O40 1.232 . S
O40 C39 1.232 . S
C41 O33 1.260 . S
C41 O34 1.257 . S
H42 O68 0.856 . S
H43 O71 0.854 . S
H44 C79 0.930 1_655 S
H45 C80 0.930 1_655 S
H46 C82 0.930 . S
H47 C83 0.930 . S
H48 C85 0.931 . S
H49 C86 0.930 . S
H50 C88 0.930 . S
H51 C89 0.929 . S
H52 C91 0.930 . S
H53 C92 0.931 . S
H54 C94 0.930 . S
H55 C95 0.929 . S
H56 C97 0.931 1_655 S
H57 C98 0.930 . S
H58 C100 0.930 . S
H59 C101 0.932 . S
H60 C103 0.930 1_655 S
H61 C104 0.929 . S
H62 C106 0.931 . S
H63 C107 0.930 . S
H64 C109 0.929 1_655 S
H65 C110 0.931 1_655 S
H66 C112 0.930 . S
H67 C113 0.929 . S
O68 H42 0.856 . S
O68 C114 1.300 . S
O69 C114 1.209 . S
O70 C115 1.199 . S
O71 H43 0.854 . S
O71 C115 1.297 . S
C72 C73 1.404 . S
C72 C77 1.397 . S
C72 C78 1.492 . S
C73 C72 1.404 . S
C73 C74 1.396 . S
C73 C84 1.492 . S
C74 C73 1.396 . S
C74 C75 1.397 . S
C74 C90 1.509 . S
C75 C74 1.397 . S
C75 C76 1.412 . S
C75 C96 1.485 . S
C76 C75 1.412 . S
C76 C77 1.388 . S
C76 C102 1.490 . S
C77 C72 1.397 . S
C77 C76 1.388 . S
C77 C108 1.519 . S
C78 C72 1.492 . S
C78 C79 1.363 . S
C78 C83 1.390 . S
C79 H44 0.930 1_455 S
C79 C78 1.363 . S
C79 C80 1.372 . S
C80 H45 0.930 1_455 S
C80 C79 1.372 . S
C80 C81 1.383 . S
C81 C80 1.383 . S
C81 C82 1.395 . S
C82 H46 0.930 . S
C82 C81 1.395 . S
C82 C83 1.362 . S
C83 H47 0.930 . S
C83 C78 1.390 . S
C83 C82 1.362 . S
C84 C73 1.492 . S
C84 C85 1.377 . S
C84 C89 1.397 . S
C85 H48 0.931 . S
C85 C84 1.377 . S
C85 C86 1.376 . S
C86 H49 0.930 . S
C86 C85 1.376 . S
C86 C87 1.376 . S
C87 C86 1.376 . S
C87 C88 1.378 . S
C87 C114 1.486 . S
C88 H50 0.930 . S
C88 C87 1.378 . S
C88 C89 1.376 . S
C89 H51 0.929 . S
C89 C84 1.397 . S
C89 C88 1.376 . S
C90 C74 1.509 . S
C90 C91 1.391 . S
C90 C95 1.386 . S
C91 H52 0.930 . S
C91 C90 1.391 . S
C91 C92 1.375 . S
C92 H53 0.931 . S
C92 C91 1.375 . S
C92 C93 1.375 . S
C93 C92 1.375 . S
C93 C94 1.361 . S
C94 H54 0.930 . S
C94 C93 1.361 . S
C94 C95 1.399 . S
C95 H55 0.929 . S
C95 C90 1.386 . S
C95 C94 1.399 . S
C96 C75 1.485 . S
C96 C97 1.394 . S
C96 C101 1.360 . S
C97 H56 0.931 1_455 S
C97 C96 1.394 . S
C97 C98 1.372 . S
C98 H57 0.930 . S
C98 C97 1.372 . S
C98 C99 1.397 . S
C99 C98 1.397 . S
C99 C100 1.390 . S
C99 C115 1.476 . S
C100 H58 0.930 . S
C100 C99 1.390 . S
C100 C101 1.366 . S
C101 H59 0.932 . S
C101 C96 1.360 . S
C101 C100 1.366 . S
C102 C76 1.490 . S
C102 C103 1.380 . S
C102 C107 1.386 . S
C103 H60 0.930 1_455 S
C103 C102 1.380 . S
C103 C104 1.381 1_455 S
C104 H61 0.929 . S
C104 C103 1.381 1_655 S
C104 C105 1.371 1_655 S
C105 C104 1.371 1_455 S
C105 C106 1.380 . S
C106 H62 0.931 . S
C106 C105 1.380 . S
C106 C107 1.387 . S
C107 H63 0.930 . S
C107 C102 1.386 . S
C107 C106 1.387 . S
C108 C77 1.519 . S
C108 C109 1.377 . S
C108 C113 1.361 . S
C109 H64 0.929 1_455 S
C109 C108 1.377 . S
C109 C110 1.386 . S
C110 H65 0.931 1_455 S
C110 C109 1.386 . S
C110 C111 1.363 . S
C111 C110 1.363 . S
C111 C112 1.385 . S
C112 H66 0.930 . S
C112 C111 1.385 . S
C112 C113 1.396 . S
C113 H67 0.929 . S
C113 C108 1.361 . S
C113 C112 1.396 . S
C114 O68 1.300 . S
C114 O69 1.209 . S
C114 C87 1.486 . S
C115 O70 1.199 . S
C115 O71 1.297 . S
C115 C99 1.476 . S
H116 O142 0.856 . S
H117 O145 0.854 . S
H118 C153 0.930 . S
H119 C154 0.930 . S
H120 C156 0.930 . S
H121 C157 0.930 . S
H122 C159 0.931 1_565 S
H123 C160 0.930 1_565 S
H124 C162 0.930 . S
H125 C163 0.929 . S
H126 C165 0.930 1_565 S
H127 C166 0.931 1_565 S
H128 C168 0.930 . S
H129 C169 0.929 . S
H130 C171 0.931 1_565 S
H131 C172 0.930 1_565 S
H132 C174 0.930 . S
H133 C175 0.932 . S
H134 C177 0.930 . S
H135 C178 0.929 . S
H136 C180 0.931 . S
H137 C181 0.930 . S
H138 C183 0.929 1_565 S
H139 C184 0.931 1_565 S
H140 C186 0.930 . S
H141 C187 0.929 . S
O142 H116 0.856 . S
O142 C188 1.300 . S
O143 C188 1.209 . S
O144 C189 1.199 . S
O145 H117 0.854 . S
O145 C189 1.297 . S
C146 C147 1.404 . S
C146 C151 1.397 . S
C146 C152 1.492 . S
C147 C146 1.404 . S
C147 C148 1.396 . S
C147 C158 1.492 . S
C148 C147 1.396 . S
C148 C149 1.397 . S
C148 C164 1.509 . S
C149 C148 1.397 . S
C149 C150 1.412 . S
C149 C170 1.485 . S
C150 C149 1.412 . S
C150 C151 1.388 . S
C150 C176 1.490 . S
C151 C146 1.397 . S
C151 C150 1.388 . S
C151 C182 1.519 . S
C152 C146 1.492 . S
C152 C153 1.363 1_545 S
C152 C157 1.390 . S
C153 H118 0.930 . S
C153 C152 1.363 1_565 S
C153 C154 1.372 . S
C154 H119 0.930 . S
C154 C153 1.372 . S
C154 C155 1.383 1_565 S
C155 C154 1.383 1_545 S
C155 C156 1.395 . S
C156 H120 0.930 . S
C156 C155 1.395 . S
C156 C157 1.362 . S
C157 H121 0.930 . S
C157 C152 1.390 . S
C157 C156 1.362 . S
C158 C147 1.492 . S
C158 C159 1.377 . S
C158 C163 1.397 . S
C159 H122 0.931 1_545 S
C159 C158 1.377 . S
C159 C160 1.376 . S
C160 H123 0.930 1_545 S
C160 C159 1.376 . S
C160 C161 1.376 . S
C161 C160 1.376 . S
C161 C162 1.378 . S
C161 C188 1.486 . S
C162 H124 0.930 . S
C162 C161 1.378 . S
C162 C163 1.376 . S
C163 H125 0.929 . S
C163 C158 1.397 . S
C163 C162 1.376 . S
C164 C148 1.509 . S
C164 C165 1.391 . S
C164 C169 1.386 . S
C165 H126 0.930 1_545 S
C165 C164 1.391 . S
C165 C166 1.375 . S
C166 H127 0.931 1_545 S
C166 C165 1.375 . S
C166 C167 1.375 . S
C167 C166 1.375 . S
C167 C168 1.361 . S
C168 H128 0.930 . S
C168 C167 1.361 . S
C168 C169 1.399 . S
C169 H129 0.929 . S
C169 C164 1.386 . S
C169 C168 1.399 . S
C170 C149 1.485 . S
C170 C171 1.394 . S
C170 C175 1.360 . S
C171 H130 0.931 1_545 S
C171 C170 1.394 . S
C171 C172 1.372 . S
C172 H131 0.930 1_545 S
C172 C171 1.372 . S
C172 C173 1.397 . S
C173 C172 1.397 . S
C173 C174 1.390 . S
C173 C189 1.476 . S
C174 H132 0.930 . S
C174 C173 1.390 . S
C174 C175 1.366 . S
C175 H133 0.932 . S
C175 C170 1.360 . S
C175 C174 1.366 . S
C176 C150 1.490 . S
C176 C177 1.380 1_545 S
C176 C181 1.386 . S
C177 H134 0.930 . S
C177 C176 1.380 1_565 S
C177 C178 1.381 . S
C178 H135 0.929 . S
C178 C177 1.381 . S
C178 C179 1.371 1_565 S
C179 C178 1.371 1_545 S
C179 C180 1.380 . S
C180 H136 0.931 . S
C180 C179 1.380 . S
C180 C181 1.387 . S
C181 H137 0.930 . S
C181 C176 1.386 . S
C181 C180 1.387 . S
C182 C151 1.519 . S
C182 C183 1.377 . S
C182 C187 1.361 . S
C183 H138 0.929 1_545 S
C183 C182 1.377 . S
C183 C184 1.386 . S
C184 H139 0.931 1_545 S
C184 C183 1.386 . S
C184 C185 1.363 . S
C185 C184 1.363 . S
C185 C186 1.385 . S
C186 H140 0.930 . S
C186 C185 1.385 . S
C186 C187 1.396 . S
C187 H141 0.929 . S
C187 C182 1.361 . S
C187 C186 1.396 . S
C188 O142 1.300 . S
C188 O143 1.209 . S
C188 C161 1.486 . S
C189 O144 1.199 . S
C189 O145 1.297 . S
C189 C173 1.476 . S
H190 O216 0.856 . S
H191 O219 0.854 . S
H192 C227 0.930 . S
H193 C228 0.930 . S
H194 C230 0.930 . S
H195 C231 0.930 . S
H196 C233 0.931 . S
H197 C234 0.930 . S
H198 C236 0.930 . S
H199 C237 0.929 . S
H200 C239 0.930 . S
H201 C240 0.931 . S
H202 C242 0.930 . S
H203 C243 0.929 . S
H204 C245 0.931 . S
H205 C246 0.930 . S
H206 C248 0.930 . S
H207 C249 0.932 . S
H208 C251 0.930 . S
H209 C252 0.929 . S
H210 C254 0.931 . S
H211 C255 0.930 . S
H212 C257 0.929 . S
H213 C258 0.931 . S
H214 C260 0.930 . S
H215 C261 0.929 . S
O216 H190 0.856 . S
O216 C262 1.300 . S
O217 C262 1.209 . S
O218 C263 1.199 . S
O219 H191 0.854 . S
O219 C263 1.297 . S
C220 C221 1.404 . S
C220 C225 1.397 . S
C220 C226 1.492 . S
C221 C220 1.404 . S
C221 C222 1.396 . S
C221 C232 1.492 . S
C222 C221 1.396 . S
C222 C223 1.397 . S
C222 C238 1.509 . S
C223 C222 1.397 . S
C223 C224 1.412 . S
C223 C244 1.485 . S
C224 C223 1.412 . S
C224 C225 1.388 . S
C224 C250 1.490 . S
C225 C220 1.397 . S
C225 C224 1.388 . S
C225 C256 1.519 . S
C226 C220 1.492 . S
C226 C227 1.363 . S
C226 C231 1.390 . S
C227 H192 0.930 . S
C227 C226 1.363 . S
C227 C228 1.372 . S
C228 H193 0.930 . S
C228 C227 1.372 . S
C228 C229 1.383 . S
C229 C228 1.383 . S
C229 C230 1.395 . S
C230 H194 0.930 . S
C230 C229 1.395 . S
C230 C231 1.362 . S
C231 H195 0.930 . S
C231 C226 1.390 . S
C231 C230 1.362 . S
C232 C221 1.492 . S
C232 C233 1.377 . S
C232 C237 1.397 . S
C233 H196 0.931 . S
C233 C232 1.377 . S
C233 C234 1.376 . S
C234 H197 0.930 . S
C234 C233 1.376 . S
C234 C235 1.376 . S
C235 C234 1.376 . S
C235 C236 1.378 . S
C235 C262 1.486 1_556 S
C236 H198 0.930 . S
C236 C235 1.378 . S
C236 C237 1.376 . S
C237 H199 0.929 . S
C237 C232 1.397 . S
C237 C236 1.376 . S
C238 C222 1.509 . S
C238 C239 1.391 . S
C238 C243 1.386 . S
C239 H200 0.930 . S
C239 C238 1.391 . S
C239 C240 1.375 . S
C240 H201 0.931 . S
C240 C239 1.375 . S
C240 C241 1.375 . S
C241 C240 1.375 . S
C241 C242 1.361 . S
C242 H202 0.930 . S
C242 C241 1.361 . S
C242 C243 1.399 . S
C243 H203 0.929 . S
C243 C238 1.386 . S
C243 C242 1.399 . S
C244 C223 1.485 . S
C244 C245 1.394 . S
C244 C249 1.360 . S
C245 H204 0.931 . S
C245 C244 1.394 . S
C245 C246 1.372 . S
C246 H205 0.930 . S
C246 C245 1.372 . S
C246 C247 1.397 . S
C247 C246 1.397 . S
C247 C248 1.390 . S
C247 C263 1.476 . S
C248 H206 0.930 . S
C248 C247 1.390 . S
C248 C249 1.366 . S
C249 H207 0.932 . S
C249 C244 1.360 . S
C249 C248 1.366 . S
C250 C224 1.490 . S
C250 C251 1.380 . S
C250 C255 1.386 . S
C251 H208 0.930 . S
C251 C250 1.380 . S
C251 C252 1.381 . S
C252 H209 0.929 . S
C252 C251 1.381 . S
C252 C253 1.371 . S
C253 C252 1.371 . S
C253 C254 1.380 . S
C254 H210 0.931 . S
C254 C253 1.380 . S
C254 C255 1.387 . S
C255 H211 0.930 . S
C255 C250 1.386 . S
C255 C254 1.387 . S
C256 C225 1.519 . S
C256 C257 1.377 . S
C256 C261 1.361 . S
C257 H212 0.929 . S
C257 C256 1.377 . S
C257 C258 1.386 . S
C258 H213 0.931 . S
C258 C257 1.386 . S
C258 C259 1.363 . S
C259 C258 1.363 . S
C259 C260 1.385 . S
C260 H214 0.930 . S
C260 C259 1.385 . S
C260 C261 1.396 . S
C261 H215 0.929 . S
C261 C256 1.361 . S
C261 C260 1.396 . S
C262 O216 1.300 . S
C262 O217 1.209 . S
C262 C235 1.486 1_554 S
C263 O218 1.199 . S
C263 O219 1.297 . S
C263 C247 1.476 . S
H264 C270 0.924 1_655 S
H265 C274 0.930 . S
H266 C279 0.929 . S
H267 C277 0.929 1_655 S
H268 C272 0.929 . S
H269 C278 0.929 1_655 S
C270 H264 0.924 1_455 S
C270 C271 1.367 . S
C270 C278 1.378 . S
C271 C270 1.367 . S
C271 C279 1.433 . S
C272 H268 0.929 . S
C272 C274 1.378 . S
C272 C276 1.350 . S
C273 C276 1.463 . S
C273 C278 1.350 . S
C273 N281 1.427 . S
C274 H265 0.930 . S
C274 C272 1.378 . S
C274 C275 1.367 . S
C275 C274 1.367 . S
C275 C277 1.433 . S
C276 C272 1.350 . S
C276 C273 1.463 . S
C276 N280 1.427 . S
C277 H267 0.929 1_455 S
C277 C275 1.433 . S
C277 N280 1.384 . S
C278 H269 0.929 1_455 S
C278 C270 1.378 . S
C278 C273 1.350 . S
C279 H266 0.929 . S
C279 C271 1.433 . S
C279 N281 1.384 . S
N280 C276 1.427 . S
N280 C277 1.384 . S
N281 C273 1.427 . S
N281 C279 1.384 . S
H282 C288 0.930 . S
H283 C292 0.930 . S
H284 C297 0.929 . S
H285 C295 0.929 . S
H286 C290 0.929 . S
H287 C296 0.929 . S
C288 H282 0.930 . S
C288 C289 1.367 1_565 S
C288 C296 1.378 . S
C289 C288 1.367 1_545 S
C289 C297 1.433 . S
C290 H286 0.929 . S
C290 C292 1.378 . S
C290 C294 1.350 . S
C291 C294 1.463 . S
C291 C296 1.350 1_545 S
C291 N299 1.427 . S
C292 H283 0.930 . S
C292 C290 1.378 . S
C292 C293 1.367 . S
C293 C292 1.367 . S
C293 C295 1.433 1_545 S
C294 C290 1.350 . S
C294 C291 1.463 . S
C294 N298 1.427 1_545 S
C295 H285 0.929 . S
C295 C293 1.433 1_565 S
C295 N298 1.384 . S
C296 H287 0.929 . S
C296 C288 1.378 . S
C296 C291 1.350 1_565 S
C297 H284 0.929 . S
C297 C289 1.433 . S
C297 N299 1.384 . S
N298 C294 1.427 1_565 S
N298 C295 1.384 . S
N299 C291 1.427 . S
N299 C297 1.384 . S
H300 C306 0.930 . S
H301 C310 0.930 . S
H302 C315 0.929 1_455 S
H303 C313 0.929 . S
H304 C308 0.929 . S
H305 C314 0.929 . S
C306 H300 0.930 . S
C306 C307 1.367 . S
C306 C314 1.378 . S
C307 C306 1.367 . S
C307 C315 1.433 . S
C308 H304 0.929 . S
C308 C310 1.378 . S
C308 C312 1.350 . S
C309 C312 1.463 . S
C309 C314 1.350 . S
C309 N317 1.427 . S
C310 H301 0.930 . S
C310 C308 1.378 . S
C310 C311 1.367 . S
C311 C310 1.367 . S
C311 C313 1.433 . S
C312 C308 1.350 . S
C312 C309 1.463 . S
C312 N316 1.427 . S
C313 H303 0.929 . S
C313 C311 1.433 . S
C313 N316 1.384 . S
C314 H305 0.929 . S
C314 C306 1.378 . S
C314 C309 1.350 . S
C315 H302 0.929 1_655 S
C315 C307 1.433 . S
C315 N317 1.384 . S
N316 C312 1.427 . S
N316 C313 1.384 . S
N317 C309 1.427 . S
N317 C315 1.384 . S
H318 C324 0.930 1_545 S
H319 C328 0.930 . S
H320 C333 0.929 . S
H321 C331 0.929 . S
H322 C326 0.929 . S
H323 C332 0.929 . S
C324 H318 0.930 1_565 S
C324 C325 1.367 . S
C324 C332 1.378 . S
C325 C324 1.367 . S
C325 C333 1.433 . S
C326 H322 0.929 . S
C326 C328 1.378 . S
C326 C330 1.350 . S
C327 C330 1.463 . S
C327 C332 1.350 . S
C327 N335 1.427 . S
C328 H319 0.930 . S
C328 C326 1.378 . S
C328 C329 1.367 . S
C329 C328 1.367 . S
C329 C331 1.433 . S
C330 C326 1.350 . S
C330 C327 1.463 . S
C330 N334 1.427 . S
C331 H321 0.929 . S
C331 C329 1.433 . S
C331 N334 1.384 . S
C332 H323 0.929 . S
C332 C324 1.378 . S
C332 C327 1.350 . S
C333 H320 0.929 . S
C333 C325 1.433 . S
C333 N335 1.384 . S
N334 C330 1.427 . S
N334 C331 1.384 . S
N335 C327 1.427 . S
N335 C333 1.384 . S
H336 C342 0.930 . S
H337 C346 0.930 . S
H338 C351 0.929 . S
H339 C349 0.929 . S
H340 C344 0.929 . S
H341 C350 0.929 . S
C342 H336 0.930 . S
C342 C343 1.367 . S
C342 C350 1.378 . S
C343 C342 1.367 . S
C343 C351 1.433 . S
C344 H340 0.929 . S
C344 C346 1.378 . S
C344 C348 1.350 . S
C345 C348 1.463 . S
C345 C350 1.350 . S
C345 N353 1.427 . S
C346 H337 0.930 . S
C346 C344 1.378 . S
C346 C347 1.367 . S
C347 C346 1.367 . S
C347 C349 1.433 . S
C348 C344 1.350 . S
C348 C345 1.463 . S
C348 N352 1.427 . S
C349 H339 0.929 . S
C349 C347 1.433 . S
C349 N352 1.384 . S
C350 H341 0.929 . S
C350 C342 1.378 . S
C350 C345 1.350 . S
C351 H338 0.929 . S
C351 C343 1.433 . S
C351 N353 1.384 . S
N352 C348 1.427 . S
N352 C349 1.384 . S
N353 C345 1.427 . S
N353 C351 1.384 . S
H354 C360 0.930 . S
H355 C364 0.930 . S
H356 C369 0.929 . S
H357 C367 0.929 . S
H358 C362 0.929 . S
H359 C368 0.929 . S
C360 H354 0.930 . S
C360 C361 1.367 . S
C360 C368 1.378 . S
C361 C360 1.367 . S
C361 C369 1.433 . S
C362 H358 0.929 . S
C362 C364 1.378 . S
C362 C366 1.350 . S
C363 C366 1.463 . S
C363 C368 1.350 . S
C363 N371 1.427 . S
C364 H355 0.930 . S
C364 C362 1.378 . S
C364 C365 1.367 . S
C365 C364 1.367 . S
C365 C367 1.433 . S
C366 C362 1.350 . S
C366 C363 1.463 . S
C366 N370 1.427 . S
C367 H357 0.929 . S
C367 C365 1.433 . S
C367 N370 1.384 . S
C368 H359 0.929 . S
C368 C360 1.378 . S
C368 C363 1.350 . S
C369 H356 0.929 . S
C369 C361 1.433 . S
C369 N371 1.384 . S
N370 C366 1.427 . S
N370 C367 1.384 . S
N371 C363 1.427 . S
N371 C369 1.384 . S
H372 C378 0.930 1_455 S
H373 C382 0.930 1_565 S
H374 C387 0.929 1_565 S
H375 C385 0.929 . S
H376 C380 0.929 1_565 S
H377 C386 0.929 . S
C378 H372 0.930 1_655 S
C378 C379 1.367 . S
C378 C386 1.378 . S
C379 C378 1.367 . S
C379 C387 1.433 . S
C380 H376 0.929 1_545 S
C380 C382 1.378 . S
C380 C384 1.350 . S
C381 C384 1.463 . S
C381 C386 1.350 . S
C381 N389 1.427 . S
C382 H373 0.930 1_545 S
C382 C380 1.378 . S
C382 C383 1.367 . S
C383 C382 1.367 . S
C383 C385 1.433 . S
C384 C380 1.350 . S
C384 C381 1.463 . S
C384 N388 1.427 . S
C385 H375 0.929 . S
C385 C383 1.433 . S
C385 N388 1.384 . S
C386 H377 0.929 . S
C386 C378 1.378 . S
C386 C381 1.350 . S
C387 H374 0.929 1_545 S
C387 C379 1.433 . S
C387 N389 1.384 . S
N388 C384 1.427 . S
N388 C385 1.384 . S
N389 C381 1.427 . S
N389 C387 1.384 . S
H390 C396 0.930 1_545 S
H391 C400 0.930 . S
H392 C405 0.929 . S
H393 C403 0.929 . S
H394 C398 0.929 . S
H395 C404 0.905 1_556 S
C396 H390 0.930 1_565 S
C396 C397 1.367 . S
C396 C404 1.398 1_455 S
C397 C396 1.367 . S
C397 C405 1.433 1_455 S
C398 H394 0.929 . S
C398 C400 1.378 . S
C398 C402 1.350 . S
C399 C402 1.463 1_554 S
C399 C404 1.354 . S
C399 N407 1.427 . S
C400 H391 0.930 . S
C400 C398 1.378 . S
C400 C401 1.367 . S
C401 C400 1.367 . S
C401 C403 1.433 . S
C402 C398 1.350 . S
C402 C399 1.463 1_556 S
C402 N406 1.427 . S
C403 H393 0.929 . S
C403 C401 1.433 . S
C403 N406 1.384 . S
C404 H395 0.905 1_554 S
C404 C396 1.398 1_655 S
C404 C399 1.354 . S
C405 H392 0.929 . S
C405 C397 1.433 1_655 S
C405 N407 1.384 . S
N406 C402 1.427 . S
N406 C403 1.384 . S
N407 C399 1.427 . S
N407 C405 1.384 . S
H408 C414 0.930 . S
H409 C418 0.930 . S
H410 C423 0.929 . S
H411 C421 0.929 . S
H412 C416 0.929 . S
H413 C422 0.929 . S
C414 H408 0.930 . S
C414 C415 1.367 1_655 S
C414 C422 1.378 . S
C415 C414 1.367 1_455 S
C415 C423 1.433 . S
C416 H412 0.929 . S
C416 C418 1.378 . S
C416 C420 1.350 . S
C417 C420 1.463 . S
C417 C422 1.350 1_455 S
C417 N425 1.427 . S
C418 H409 0.930 . S
C418 C416 1.378 . S
C418 C419 1.367 . S
C419 C418 1.367 . S
C419 C421 1.433 1_455 S
C420 C416 1.350 . S
C420 C417 1.463 . S
C420 N424 1.427 1_455 S
C421 H411 0.929 . S
C421 C419 1.433 1_655 S
C421 N424 1.384 . S
C422 H413 0.929 . S
C422 C414 1.378 . S
C422 C417 1.350 1_655 S
C423 H410 0.929 . S
C423 C415 1.433 . S
C423 N425 1.384 . S
N424 C420 1.427 1_655 S
N424 C421 1.384 . S
N425 C417 1.427 . S
N425 C423 1.384 . S
H426 C432 0.930 . S
H427 C436 0.930 . S
H428 C441 0.929 . S
H429 C439 0.929 . S
H430 C434 0.929 . S
H431 C440 0.929 . S
C432 H426 0.930 . S
C432 C433 1.367 . S
C432 C440 1.378 . S
C433 C432 1.367 . S
C433 C441 1.433 1_545 S
C434 H430 0.929 . S
C434 C436 1.378 . S
C434 C438 1.350 1_565 S
C435 C438 1.463 . S
C435 C440 1.350 . S
C435 N443 1.427 1_545 S
C436 H427 0.930 . S
C436 C434 1.378 . S
C436 C437 1.367 1_565 S
C437 C436 1.367 1_545 S
C437 C439 1.433 . S
C438 C434 1.350 1_545 S
C438 C435 1.463 . S
C438 N442 1.427 . S
C439 H429 0.929 . S
C439 C437 1.433 . S
C439 N442 1.384 . S
C440 H431 0.929 . S
C440 C432 1.378 . S
C440 C435 1.350 . S
C441 H428 0.929 . S
C441 C433 1.433 1_565 S
C441 N443 1.384 . S
N442 C438 1.427 . S
N442 C439 1.384 . S
N443 C435 1.427 1_565 S
N443 C441 1.384 . S
H444 C450 0.930 . S
H445 C454 0.930 . S
H446 C459 0.929 . S
H447 C457 0.929 . S
H448 C452 0.929 . S
H449 C458 0.929 1_556 S
C450 H444 0.930 . S
C450 C451 1.367 . S
C450 C458 1.378 . S
C451 C450 1.367 . S
C451 C459 1.433 . S
C452 H448 0.929 . S
C452 C454 1.378 . S
C452 C456 1.350 . S
C453 C456 1.463 . S
C453 C458 1.350 . S
C453 N461 1.427 . S
C454 H445 0.930 . S
C454 C452 1.378 . S
C454 C455 1.367 1_554 S
C455 C454 1.367 1_556 S
C455 C457 1.433 . S
C456 C452 1.350 . S
C456 C453 1.463 . S
C456 N460 1.427 1_554 S
C457 H447 0.929 . S
C457 C455 1.433 . S
C457 N460 1.384 . S
C458 H449 0.929 1_554 S
C458 C450 1.378 . S
C458 C453 1.350 . S
C459 H446 0.929 . S
C459 C451 1.433 . S
C459 N461 1.384 . S
N460 C456 1.427 1_556 S
N460 C457 1.384 . S
N461 C453 1.427 . S
N461 C459 1.384 . S
H462 C468 0.930 . S
H463 C472 0.930 . S
H464 C477 0.929 . S
H465 C475 0.929 . S
H466 C470 0.929 . S
H467 C476 0.929 . S
C468 H462 0.930 . S
C468 C469 1.367 . S
C468 C476 1.378 . S
C469 C468 1.367 . S
C469 C477 1.433 . S
C470 H466 0.929 . S
C470 C472 1.378 . S
C470 C474 1.350 . S
C471 C474 1.463 . S
C471 C476 1.350 . S
C471 N479 1.427 . S
C472 H463 0.930 . S
C472 C470 1.378 . S
C472 C473 1.367 . S
C473 C472 1.367 . S
C473 C475 1.433 . S
C474 C470 1.350 . S
C474 C471 1.463 . S
C474 N478 1.427 . S
C475 H465 0.929 . S
C475 C473 1.433 . S
C475 N478 1.384 . S
C476 H467 0.929 . S
C476 C468 1.378 . S
C476 C471 1.350 . S
C477 H464 0.929 . S
C477 C469 1.433 . S
C477 N479 1.384 . S
N478 C474 1.427 . S
N478 C475 1.384 . S
N479 C471 1.427 . S
N479 C477 1.384 . S
C275 C81 1.241 . S
C271 C11 1.282 . S
C289 C25 1.304 . S
C293 C155 1.275 . S
C307 C41 1.980 1_655 S
C311 C259 2.065 . S
C325 C7 0.718 . S
C329 C93 0.714 . S
C347 C167 0.762 . S
C343 C21 0.762 . S
C361 C36 1.472 . S
C365 C253 1.405 . S
C383 C185 2.037 . S
C379 C39 2.022 1_655 S
C397 C8 1.321 1_565 S
C401 C229 1.344 . S
C419 C105 1.478 . S
C415 C22 1.566 . S
C437 C179 1.385 . S
C433 C35 1.477 . S
C455 C241 0.811 . S
C451 C13 0.790 . S
C469 C27 2.040 . S
C473 C111 2.128 . S
