# Generated by pormake.
# Topology anh, (6,3)-cn, num edge types: 1
# Building blocks:
#     Node 0, Type 0, BuildingBlock: BETDEL_clean_sbu_0, # of connection points: 6
#     Node 1, Type 0, BuildingBlock: BETDEL_clean_sbu_0, # of connection points: 6
#     Node 2, Type 0, BuildingBlock: BETDEL_clean_sbu_0, # of connection points: 6
#     Node 3, Type 1, BuildingBlock: CUQRIR_clean_linker_1, # of connection points: 3
#     Node 4, Type 1, BuildingBlock: CUQRIR_clean_linker_1, # of connection points: 3
#     Node 5, Type 1, BuildingBlock: CUQRIR_clean_linker_1, # of connection points: 3
#     Node 6, Type 1, BuildingBlock: CUQRIR_clean_linker_1, # of connection points: 3
#     Node 7, Type 1, BuildingBlock: CUQRIR_clean_linker_1, # of connection points: 3
#     Node 8, Type 1, BuildingBlock: CUQRIR_clean_linker_1, # of connection points: 3
#     Edge 9, Type (0, 1), BuildingBlock: ZUJKAS_clean_linker_0, # of connection points: 2
#     Edge 10, Type (0, 1), BuildingBlock: ZUJKAS_clean_linker_0, # of connection points: 2
#     Edge 11, Type (0, 1), BuildingBlock: ZUJKAS_clean_linker_0, # of connection points: 2
#     Edge 12, Type (0, 1), BuildingBlock: ZUJKAS_clean_linker_0, # of connection points: 2
#     Edge 13, Type (0, 1), BuildingBlock: ZUJKAS_clean_linker_0, # of connection points: 2
#     Edge 14, Type (0, 1), BuildingBlock: ZUJKAS_clean_linker_0, # of connection points: 2
#     Edge 15, Type (0, 1), BuildingBlock: ZUJKAS_clean_linker_0, # of connection points: 2
#     Edge 16, Type (0, 1), BuildingBlock: ZUJKAS_clean_linker_0, # of connection points: 2
#     Edge 17, Type (0, 1), BuildingBlock: ZUJKAS_clean_linker_0, # of connection points: 2
#     Edge 18, Type (0, 1), BuildingBlock: ZUJKAS_clean_linker_0, # of connection points: 2
#     Edge 19, Type (0, 1), BuildingBlock: ZUJKAS_clean_linker_0, # of connection points: 2
#     Edge 20, Type (0, 1), BuildingBlock: ZUJKAS_clean_linker_0, # of connection points: 2
#     Edge 21, Type (0, 1), BuildingBlock: ZUJKAS_clean_linker_0, # of connection points: 2
#     Edge 22, Type (0, 1), BuildingBlock: ZUJKAS_clean_linker_0, # of connection points: 2
#     Edge 23, Type (0, 1), BuildingBlock: ZUJKAS_clean_linker_0, # of connection points: 2
#     Edge 24, Type (0, 1), BuildingBlock: ZUJKAS_clean_linker_0, # of connection points: 2
#     Edge 25, Type (0, 1), BuildingBlock: ZUJKAS_clean_linker_0, # of connection points: 2
#     Edge 26, Type (0, 1), BuildingBlock: ZUJKAS_clean_linker_0, # of connection points: 2
# Relax obj value: 0.117
# Max RMSD: 0.197
# Mean RMSD: 0.139
data_MOF--net-anh--node1-BETDEL_clean_sbu_0--node2-CUQRIR_clean_linker_1--edge1-ZUJKAS_clean_linker_0
_symmetry_space_group_name_H-M    P1
_symmetry_Int_Tables_number       1
_symmetry_cell_setting            triclinic
loop_
_symmetry_equiv_pos_as_xyz
'x, y, z'
_cell_length_a     36.56579
_cell_length_b     36.761828
_cell_length_c     59.856434
_cell_angle_alpha  85.66902
_cell_angle_beta   89.538572
_cell_angle_gamma 119.77459
loop_
_atom_site_label
_atom_site_type_symbol
_atom_site_fract_x
_atom_site_fract_y
_atom_site_fract_z
_atom_type_partial_charge
Dy0 Dy 0.03883 0.48733 0.17076 0.0
C1 C 0.9274 0.54348 0.18873 0.0
C2 C 0.09974 0.46993 0.15855 0.0
Dy3 Dy 0.98967 0.52829 0.17586 0.0
O4 O 0.07365 0.452 0.17589 0.0
O5 O 0.0909 0.49576 0.14718 0.0
O6 O 0.02082 0.45726 0.20609 0.0
O7 O 0.02967 0.51776 0.19863 0.0
C8 C 0.01823 0.48798 0.21372 0.0
C9 C 1.01191 0.53018 0.13281 0.0
O10 O 0.05164 0.58345 0.18389 0.0
O11 O 0.09009 0.55666 0.16831 0.0
O12 O 0.95728 0.56657 0.17357 0.0
O13 O 0.93298 0.51343 0.19747 0.0
O14 O 1.00811 0.5597 0.14111 0.0
O15 O 0.99985 0.49896 0.14726 0.0
O16 O 0.97576 0.42993 0.16622 0.0
O17 O 0.93958 0.45939 0.18125 0.0
C18 C 0.08813 0.5885 0.1762 0.0
C19 C 0.94023 0.42608 0.17469 0.0
Dy20 Dy 0.52764 0.04542 0.50647 0.0
C21 C 0.7022 0.14801 0.51865 0.0
C22 C 0.44736 0.98633 0.50147 0.0
Dy23 Dy 0.62379 0.09469 0.50591 0.0
O24 O 0.46109 0.00569 0.51937 0.0
O25 O 0.47703 1.00125 0.48569 0.0
O26 O 0.52618 0.07039 0.539 0.0
O27 O 0.57421 0.0564 0.53151 0.0
C28 C 0.56034 0.07123 0.5455 0.0
C29 C 0.59987 0.08905 0.46318 0.0
O30 O 0.61604 0.02975 0.51162 0.0
O31 O 0.54321 0.99265 0.50894 0.0
O32 O 0.69338 0.12126 0.50372 0.0
O33 O 0.66743 0.14315 0.52755 0.0
O34 O 0.639 0.10886 0.46835 0.0
O35 O 0.57716 0.07487 0.48099 0.0
O36 O 0.53677 0.10973 0.4962 0.0
O37 O 0.60426 0.14403 0.50926 0.0
C38 C 0.5799 0.99366 0.51122 0.0
C39 C 0.56988 0.14429 0.50236 0.0
Dy40 Dy 0.60279 0.67224 0.83708 0.0
C41 C 0.53775 0.50265 0.85778 0.0
C42 C 0.62287 0.75269 0.82605 0.0
Dy43 Dy 0.5592 0.58082 0.84027 0.0
O44 O 0.63633 0.7403 0.84331 0.0
O45 O 0.60022 0.72154 0.81436 0.0
O46 O 0.63084 0.67208 0.86993 0.0
O47 O 0.56855 0.62472 0.86492 0.0
C48 C 0.5979 0.63788 0.87845 0.0
C49 C 0.57587 0.60354 0.79622 0.0
O50 O 0.50021 0.58507 0.84363 0.0
O51 O 0.53494 0.65775 0.84202 0.0
O52 O 0.51743 0.51107 0.84239 0.0
O53 O 0.56776 0.53721 0.8645 0.0
O54 O 0.55609 0.56499 0.80501 0.0
O55 O 0.58581 0.62891 0.81125 0.0
O56 O 0.65975 0.66672 0.82856 0.0
O57 O 0.62709 0.59714 0.84253 0.0
C58 C 0.49953 0.62075 0.84373 0.0
C59 C 0.66157 0.63244 0.83513 0.0
C60 C 0.51051 0.00689 0.19787 0.0
N61 N 0.53605 0.03497 0.21238 0.0
N62 N 0.47426 0.97534 0.20877 0.0
C63 C 0.51967 0.01045 0.17304 0.0
C64 C 0.4784 0.9859 0.23019 0.0
N65 N 0.51538 0.02145 0.23238 0.0
C66 C 0.4459 0.96174 0.2492 0.0
H67 H 0.49606 0.01559 0.164 0.0
H68 H 0.51649 0.98047 0.16822 0.0
H69 H 0.55124 0.03692 0.16741 0.0
H70 H 0.4537 0.93929 0.25837 0.0
H71 H 0.41376 0.94401 0.24293 0.0
H72 H 0.44597 0.98321 0.26127 0.0
C73 C 0.5643 0.56162 0.52888 0.0
N74 N 0.5616 0.58784 0.54299 0.0
N75 N 0.55712 0.52479 0.54034 0.0
C76 C 0.5746 0.57217 0.50408 0.0
C77 C 0.54946 0.52993 0.56182 0.0
N78 N 0.55265 0.5679 0.56344 0.0
C79 C 0.53629 0.49701 0.58139 0.0
H80 H 0.54483 0.55742 0.49517 0.0
H81 H 0.59466 0.55948 0.49839 0.0
H82 H 0.59089 0.60658 0.49949 0.0
H83 H 0.5646 0.50182 0.59033 0.0
H84 H 0.51988 0.46483 0.57578 0.0
H85 H 0.51495 0.5 0.59348 0.0
C86 C 0.07245 0.60907 0.86263 0.0
N87 N 0.09589 0.60292 0.87858 0.0
N88 N 0.03541 0.60287 0.87185 0.0
C89 C 0.08662 0.62363 0.8384 0.0
C90 C 0.0372 0.59309 0.89385 0.0
N91 N 0.07372 0.59348 0.89803 0.0
C92 C 1.00339 0.58418 0.91144 0.0
H93 H 0.12137 0.64448 0.8366 0.0
H94 H 0.0709 0.6405 0.83093 0.0
H95 H 0.07797 0.59581 0.82901 0.0
H96 H 0.97184 0.56971 0.90429 0.0
H97 H 1.00985 0.61428 0.91781 0.0
H98 H 1.00301 0.56293 0.92574 0.0
C99 C 0.04993 0.58814 0.47656 0.0
N100 N 0.02781 0.56399 0.4603 0.0
N101 N 0.08289 0.62438 0.46739 0.0
C102 C 0.04144 0.57514 0.50143 0.0
C103 C 0.07947 0.62202 0.44498 0.0
N104 N 0.04568 0.58523 0.44066 0.0
C105 C 0.11153 0.65356 0.42743 0.0
H106 H 0.04601 0.60178 0.5108 0.0
H107 H 0.06403 0.56519 0.50747 0.0
H108 H 1.00873 0.549 0.50539 0.0
H109 H 0.12906 0.63959 0.41996 0.0
H110 H 0.13411 0.6831 0.43459 0.0
H111 H 0.09561 0.66134 0.41377 0.0
C112 C 0.56485 0.12645 0.81054 0.0
N113 N 0.56785 0.10492 0.7941 0.0
N114 N 0.56445 0.16088 0.80158 0.0
C115 C 0.56661 0.11649 0.8352 0.0
C116 C 0.56804 0.16011 0.7792 0.0
N117 N 0.57058 0.12602 0.77459 0.0
C118 C 0.56958 0.19306 0.76212 0.0
H119 H 0.54459 0.12269 0.8449 0.0
H120 H 0.59897 0.13754 0.84047 0.0
H121 H 0.55871 0.08334 0.83916 0.0
H122 H 0.60272 0.21896 0.75923 0.0
H123 H 0.5506 0.20652 0.76836 0.0
H124 H 0.55763 0.1797 0.74598 0.0
C125 C 0.53673 0.54406 0.1505 0.0
N126 N 0.5561 0.54003 0.13235 0.0
N127 N 0.50435 0.54959 0.14427 0.0
C128 C 0.54833 0.54083 0.17435 0.0
C129 C 0.50414 0.54788 0.1217 0.0
N130 N 0.53583 0.54201 0.11442 0.0
C131 C 0.47208 0.55017 0.10681 0.0
H132 H 0.53553 0.50713 0.18016 0.0
H133 H 0.53511 0.55453 0.18562 0.0
H134 H 0.58304 0.55697 0.17552 0.0
H135 H 0.48753 0.56861 0.09061 0.0
H136 H 0.45508 0.56429 0.11447 0.0
H137 H 0.44819 0.51782 0.10331 0.0
H138 H 0.16739 0.52444 0.1309 0.0
H139 H 0.24066 0.54188 0.13577 0.0
H140 H 0.19927 0.44293 0.18964 0.0
H141 H 0.12607 0.42521 0.1849 0.0
H142 H 0.28164 0.56233 0.18164 0.0
H143 H 0.27724 0.42725 0.14276 0.0
H144 H 0.24089 0.44578 0.136 0.0
H145 H 0.23427 0.41563 0.16223 0.0
C146 C 0.17386 0.50566 0.14333 0.0
C147 C 0.14127 0.4733 0.15744 0.0
C148 C 0.2156 0.51606 0.14629 0.0
C149 C 0.22489 0.49388 0.1632 0.0
C150 C 0.19231 0.46029 0.17655 0.0
H151 H 0.4534 0.49066 0.17649 0.0
H152 H 0.38759 0.48332 0.19169 0.0
C153 C 0.15065 0.44995 0.17366 0.0
C154 C 0.26874 0.50564 0.16696 0.0
H155 H 0.33925 0.47273 0.15941 0.0
C156 C 0.2945 0.54281 0.17698 0.0
C157 C 0.28471 0.47976 0.16093 0.0
C158 C 0.25808 0.43996 0.14975 0.0
C159 C 0.33652 0.55487 0.18115 0.0
C160 C 0.35286 0.52928 0.17471 0.0
C161 C 0.32656 0.4919 0.16488 0.0
C162 C 0.39806 0.54236 0.17499 0.0
C163 C 0.36269 0.59468 0.19236 0.0
C164 C 0.42756 0.57995 0.16266 0.0
C165 C 0.46584 0.58479 0.1549 0.0
C166 C 0.47375 0.55132 0.15845 0.0
C167 C 0.4472 0.51644 0.17333 0.0
C168 C 0.40974 0.51233 0.18195 0.0
H169 H 0.34273 0.60036 0.20409 0.0
H170 H 0.38823 0.59358 0.20176 0.0
H171 H 0.37714 0.62184 0.17938 0.0
H172 H 0.41932 0.6034 0.1568 0.0
H173 H 0.4869 0.61233 0.14383 0.0
H174 H 0.76137 0.19499 0.54771 0.0
H175 H 0.81687 0.26956 0.53971 0.0
H176 H 0.77288 0.27014 0.47306 0.0
H177 H 0.71914 0.19626 0.48061 0.0
H178 H 0.8728 0.29331 0.48991 0.0
H179 H 0.78912 0.37954 0.51054 0.0
H180 H 0.77669 0.32984 0.52558 0.0
H181 H 0.76111 0.33116 0.49736 0.0
C182 C 0.76435 0.21121 0.53134 0.0
C183 C 0.7377 0.19023 0.51442 0.0
C184 C 0.79523 0.2535 0.52693 0.0
C185 C 0.7981 0.27472 0.50593 0.0
C186 C 0.77063 0.25392 0.48935 0.0
H187 H 0.95064 0.52817 0.44385 0.0
H188 H 0.89393 0.45491 0.45292 0.0
C189 C 0.74068 0.2118 0.49354 0.0
C190 C 0.83267 0.31719 0.49987 0.0
H191 H 0.85646 0.41924 0.49182 0.0
C192 C 0.86973 0.32112 0.49055 0.0
C193 C 0.8271 0.3524 0.50003 0.0
C194 C 0.78642 0.34839 0.50895 0.0
C195 C 0.90184 0.35987 0.481 0.0
C196 C 0.89722 0.39573 0.48187 0.0
C197 C 0.85989 0.39165 0.49126 0.0
C198 C 0.93174 0.43807 0.47439 0.0
C199 C 0.93953 0.36142 0.46943 0.0
C200 C 0.97153 0.45213 0.48307 0.0
C201 C 1.00382 0.49276 0.47712 0.0
C202 C 0.99606 0.5207 0.46358 0.0
C203 C 0.9567 0.50673 0.45445 0.0
C204 C 0.92456 0.46535 0.45976 0.0
H205 H 0.93074 0.33101 0.46259 0.0
H206 H 0.95361 0.3868 0.45547 0.0
H207 H 0.96378 0.36698 0.48182 0.0
H208 H 0.97742 0.43206 0.49488 0.0
H209 H 0.0345 0.50306 0.48385 0.0
H210 H 0.67732 0.82668 0.84253 0.0
H211 H 0.66973 0.88971 0.8418 0.0
H212 H 0.55448 0.82588 0.80718 0.0
H213 H 0.56239 0.76379 0.80721 0.0
H214 H 0.64455 0.91822 0.79032 0.0
H215 H 0.54857 0.892 0.86902 0.0
H216 H 0.58658 0.87423 0.8676 0.0
H217 H 0.5384 0.84798 0.85349 0.0
C218 C 0.6507 0.82654 0.83462 0.0
C219 C 0.62105 0.79132 0.82438 0.0
C220 C 0.64612 0.86197 0.83452 0.0
C221 C 0.61133 0.86157 0.8247 0.0
C222 C 0.58129 0.82612 0.81493 0.0
H223 H 0.50894 0.02406 0.80081 0.0
H224 H 0.52131 0.9645 0.80864 0.0
C225 C 0.58626 0.79119 0.81463 0.0
C226 C 0.60864 0.89974 0.82184 0.0
H227 H 0.56057 0.94928 0.84321 0.0
C228 C 0.6268 0.92564 0.80196 0.0
C229 C 0.58438 0.90778 0.83694 0.0
C230 C 0.56328 0.87919 0.85805 0.0
C231 C 0.62053 0.95953 0.79639 0.0
C232 C 0.59684 0.96827 0.81164 0.0
C233 C 0.57905 0.94249 0.83174 0.0
C234 C 0.58944 1.00358 0.80675 0.0
C235 C 0.63772 0.98437 0.77384 0.0
C236 C 0.62367 0.0447 0.80315 0.0
C237 C 0.6165 0.07807 0.79818 0.0
C238 C 0.57517 0.07047 0.79723 0.0
C239 C 0.54092 0.02966 0.80119 0.0
C240 C 0.548 0.99613 0.8058 0.0
H241 H 0.6438 0.96613 0.76182 0.0
H242 H 0.6156 0.99378 0.76639 0.0
H243 H 0.66811 0.0133 0.77596 0.0
H244 H 0.65578 0.05093 0.80438 0.0
H245 H 0.64291 0.10988 0.79556 0.0
H246 H 0.85178 0.47278 0.19704 0.0
H247 H 0.78423 0.46324 0.18502 0.0
H248 H 0.84177 0.59711 0.1676 0.0
H249 H 0.91026 0.60641 0.17823 0.0
H250 H 0.73149 0.48905 0.19474 0.0
H251 H 0.79928 0.55393 0.10845 0.0
H252 H 0.82779 0.5425 0.12969 0.0
H253 H 0.82714 0.59135 0.12824 0.0
C254 C 0.84976 0.50033 0.19121 0.0
C255 C 0.88603 0.54037 0.18838 0.0
C256 C 0.81125 0.49475 0.18418 0.0
C257 C 0.80852 0.52927 0.17464 0.0
C258 C 0.84378 0.56988 0.17407 0.0
H259 H 0.63463 0.59956 0.1382 0.0
H260 H 0.69488 0.58904 0.14511 0.0
C261 C 0.8826 0.57532 0.18051 0.0
C262 C 0.76934 0.52268 0.1645 0.0
H263 H 0.73254 0.54897 0.11744 0.0
C264 C 0.73148 0.50144 0.17771 0.0
C265 C 0.76932 0.53785 0.14204 0.0
C266 C 0.808 0.55721 0.12623 0.0
C267 C 0.69418 0.49794 0.16961 0.0
C268 C 0.69518 0.5163 0.14787 0.0
C269 C 0.73227 0.53516 0.13416 0.0
C270 C 0.66034 0.5225 0.14062 0.0
C271 C 0.65453 0.47686 0.18472 0.0
C272 C 0.62177 0.4887 0.13518 0.0
C273 C 0.58764 0.49493 0.1311 0.0
C274 C 0.59218 0.5348 0.13254 0.0
C275 C 0.63121 0.5688 0.13692 0.0
C276 C 0.66524 0.56274 0.14086 0.0
H277 H 0.65978 0.46615 0.20164 0.0
H278 H 0.64239 0.49884 0.18662 0.0
H279 H 0.62981 0.44911 0.17703 0.0
H280 H 0.61778 0.45751 0.13489 0.0
H281 H 0.5573 0.46851 0.12788 0.0
H282 H 0.38552 0.94978 0.53425 0.0
H283 H 0.32714 0.87708 0.53766 0.0
H284 H 0.36893 0.85662 0.47464 0.0
H285 H 0.42737 0.92937 0.47098 0.0
H286 H 0.27554 0.85517 0.49225 0.0
H287 H 0.33114 0.74758 0.52787 0.0
H288 H 0.35274 0.80057 0.536 0.0
H289 H 0.36513 0.7924 0.50848 0.0
C290 C 0.38207 0.92976 0.5211 0.0
C291 C 0.40999 0.94503 0.5021 0.0
C292 C 0.34954 0.88827 0.52335 0.0
C293 C 0.34506 0.86185 0.50672 0.0
C294 C 0.37308 0.87676 0.48785 0.0
H295 H 0.16035 0.63531 0.46097 0.0
H296 H 0.22482 0.68883 0.47654 0.0
C297 C 0.40553 0.91834 0.48552 0.0
C298 C 0.30595 0.82227 0.50644 0.0
H299 H 0.26107 0.71602 0.51582 0.0
C300 C 0.27193 0.82463 0.49765 0.0
C301 C 0.30269 0.7832 0.51311 0.0
C302 C 0.33976 0.78038 0.52196 0.0
C303 C 0.23428 0.78837 0.49461 0.0
C304 C 0.23015 0.74886 0.50181 0.0
C305 C 0.26426 0.74652 0.51093 0.0
C306 C 0.19194 0.71007 0.49757 0.0
C307 C 0.20046 0.79296 0.48247 0.0
C308 C 0.15252 0.70338 0.50512 0.0
C309 C 0.11639 0.67499 0.49519 0.0
C310 C 0.11934 0.65145 0.47871 0.0
C311 C 0.15813 0.65445 0.47321 0.0
C312 C 0.19454 0.68415 0.48241 0.0
H313 H 0.21327 0.82446 0.47309 0.0
H314 H 0.1854 0.76879 0.47039 0.0
H315 H 0.17583 0.78918 0.49487 0.0
H316 H 0.15018 0.72273 0.5172 0.0
H317 H 0.08654 0.67279 0.49957 0.0
H318 H 0.58794 0.48527 0.88411 0.0
H319 H 0.60814 0.43228 0.87839 0.0
H320 H 0.51657 0.38289 0.82785 0.0
H321 H 0.49632 0.43585 0.83333 0.0
H322 H 0.55558 0.34299 0.88151 0.0
H323 H 0.6307 0.41002 0.79631 0.0
H324 H 0.62066 0.43995 0.81563 0.0
H325 H 0.57887 0.40347 0.79961 0.0
C326 C 0.57129 0.46231 0.87225 0.0
C327 C 0.54042 0.46429 0.85924 0.0
C328 C 0.58331 0.43265 0.86879 0.0
C329 C 0.56459 0.40488 0.8523 0.0
C330 C 0.53195 0.40503 0.84027 0.0
H331 H 0.50341 0.17605 0.8134 0.0
H332 H 0.51292 0.23894 0.8303 0.0
C333 C 0.51983 0.43459 0.84374 0.0
C334 C 0.5776 0.37418 0.84824 0.0
H335 H 0.60947 0.33718 0.80626 0.0
C336 C 0.56839 0.34214 0.86527 0.0
C337 C 0.59489 0.37393 0.82711 0.0
C338 C 0.60727 0.40894 0.80868 0.0
C339 C 0.57244 0.30749 0.86101 0.0
C340 C 0.58613 0.3055 0.83934 0.0
C341 C 0.59887 0.3392 0.82287 0.0
C342 C 0.58055 0.26612 0.83226 0.0
C343 C 0.55957 0.27199 0.87915 0.0
C344 C 0.61552 0.26131 0.82807 0.0
C345 C 0.60992 0.22563 0.81857 0.0
C346 C 0.56955 0.19528 0.81307 0.0
C347 C 0.53454 0.19956 0.81777 0.0
C348 C 0.54 0.235 0.82739 0.0
H349 H 0.55798 0.28194 0.89604 0.0
H350 H 0.52792 0.24571 0.8759 0.0
H351 H 0.58208 0.25997 0.87907 0.0
H352 H 0.64694 0.28551 0.8316 0.0
H353 H 0.63697 0.2221 0.81485 0.0
H354 H 0.51259 0.91445 0.52266 0.0
H355 H 0.51171 0.8474 0.52749 0.0
H356 H 0.64511 0.91142 0.50988 0.0
H357 H 0.64648 0.97893 0.50601 0.0
H358 H 0.52563 0.80325 0.50048 0.0
H359 H 0.64537 0.84365 0.56423 0.0
H360 H 0.62427 0.87744 0.55597 0.0
H361 H 0.66573 0.87838 0.53901 0.0
C362 C 0.54192 0.91446 0.51996 0.0
C363 C 0.57972 0.95253 0.5141 0.0
C364 C 0.54135 0.87581 0.52271 0.0
C365 C 0.57847 0.87374 0.51956 0.0
C366 C 0.61615 0.91171 0.51325 0.0
H367 H 0.6302 0.66218 0.52717 0.0
H368 H 0.63431 0.73117 0.52034 0.0
C369 C 0.61686 0.95053 0.51083 0.0
C370 C 0.57718 0.83182 0.52226 0.0
H371 H 0.62301 0.77914 0.54828 0.0
C372 C 0.5469 0.79813 0.51104 0.0
C373 C 0.6048 0.8244 0.53597 0.0
C374 C 0.63657 0.85774 0.54966 0.0
C375 C 0.54384 0.7581 0.51285 0.0
C376 C 0.57143 0.75071 0.52657 0.0
C377 C 0.60189 0.78441 0.53767 0.0
C378 C 0.56872 0.70825 0.53001 0.0
C379 C 0.51147 0.7244 0.49956 0.0
C380 C 0.53078 0.67195 0.53791 0.0
C381 C 0.52846 0.63259 0.54153 0.0
C382 C 0.564 0.62826 0.53758 0.0
C383 C 0.60211 0.66442 0.52992 0.0
C384 C 0.60446 0.70391 0.52619 0.0
H385 H 0.50274 0.7382 0.48483 0.0
H386 H 0.52315 0.70397 0.49356 0.0
H387 H 0.4824 0.70449 0.5104 0.0
H388 H 0.50293 0.67408 0.54168 0.0
H389 H 0.49881 0.60534 0.54762 0.0
H390 H 0.74231 0.70057 0.83562 0.0
H391 H 0.80879 0.69936 0.83915 0.0
H392 H 0.74048 0.56429 0.8396 0.0
H393 H 0.67432 0.56513 0.83636 0.0
H394 H 0.82765 0.65092 0.87528 0.0
H395 H 0.83835 0.60567 0.79008 0.0
H396 H 0.80697 0.62927 0.7968 0.0
H397 H 0.78806 0.57467 0.8052 0.0
C398 C 0.74152 0.67067 0.83619 0.0
C399 C 0.70281 0.633 0.83552 0.0
C400 C 0.77956 0.66999 0.83834 0.0
C401 C 0.77988 0.63175 0.83942 0.0
C402 C 0.74133 0.59425 0.83853 0.0
H403 H 0.96221 0.54512 0.856 0.0
H404 H 0.90115 0.55385 0.84716 0.0
C405 C 0.70338 0.59483 0.83671 0.0
C406 C 0.82003 0.63051 0.84206 0.0
H407 H 0.88599 0.60363 0.8161 0.0
C408 C 0.84067 0.64104 0.86225 0.0
C409 C 0.83688 0.61709 0.82521 0.0
C410 C 0.81673 0.60628 0.803 0.0
C411 C 0.87691 0.63757 0.86622 0.0
C412 C 0.89394 0.62429 0.84931 0.0
C413 C 0.87333 0.61398 0.82907 0.0
C414 C 0.93241 0.62 0.85255 0.0
C415 C 0.89563 0.64661 0.88889 0.0
C416 C 0.97106 0.65445 0.85769 0.0
C417 C 1.00592 0.64941 0.86254 0.0
C418 C 1.00321 0.61001 0.86206 0.0
C419 C 0.96531 0.57599 0.85596 0.0
C420 C 0.93037 0.58096 0.85112 0.0
H421 H 0.87278 0.64516 0.90177 0.0
H422 H 0.90605 0.62393 0.89466 0.0
H423 H 0.92352 0.67876 0.88767 0.0
H424 H 0.97401 0.68512 0.85848 0.0
H425 H 0.03456 0.67585 0.86762 0.0
H426 H 0.12996 0.65388 0.14373 0.0
H427 H 0.19694 0.71998 0.1463 0.0
H428 H 0.20363 0.68033 0.21503 0.0
H429 H 0.1365 0.61455 0.2125 0.0
H430 H 0.21877 0.78419 0.17811 0.0
H431 H 0.31991 0.71112 0.18464 0.0
H432 H 0.26739 0.68432 0.17441 0.0
H433 H 0.27455 0.68814 0.20395 0.0
C434 C 0.14572 0.65945 0.15939 0.0
C435 C 0.12797 0.62912 0.17793 0.0
C436 C 0.18404 0.69723 0.16086 0.0
C437 C 0.20591 0.70527 0.18079 0.0
C438 C 0.18791 0.67492 0.19936 0.0
H439 H 0.44515 0.89562 0.22686 0.0
H440 H 0.38054 0.83251 0.21884 0.0
C441 C 0.14939 0.63737 0.19796 0.0
C442 C 0.24722 0.74534 0.18227 0.0
H443 H 0.35224 0.78328 0.19017 0.0
C444 C 0.24805 0.78409 0.18068 0.0
C445 C 0.28556 0.74547 0.18566 0.0
C446 C 0.28717 0.70515 0.1871 0.0
C447 C 0.28543 0.82248 0.18332 0.0
C448 C 0.32415 0.82283 0.1867 0.0
C449 C 0.32319 0.78386 0.18768 0.0
C450 C 0.36523 0.86225 0.19065 0.0
C451 C 0.28209 0.86175 0.18353 0.0
C452 C 0.3801 0.90083 0.17731 0.0
C453 C 0.41655 0.93779 0.18262 0.0
C454 C 0.44025 0.9369 0.20086 0.0
C455 C 0.42727 0.89775 0.213 0.0
C456 C 0.39022 0.86133 0.20824 0.0
H457 H 0.24929 0.85416 0.18783 0.0
H458 H 0.30306 0.88285 0.19578 0.0
H459 H 0.2911 0.87892 0.16655 0.0
H460 H 0.3632 0.90276 0.16295 0.0
H461 H 0.42518 0.96721 0.17294 0.0
H462 H 0.54041 0.18309 0.47198 0.0
H463 H 0.53985 0.24934 0.47497 0.0
H464 H 0.58993 0.25809 0.54056 0.0
H465 H 0.59309 0.19394 0.5369 0.0
H466 H 0.5015 0.27509 0.50131 0.0
H467 H 0.67104 0.37283 0.51551 0.0
H468 H 0.64908 0.32007 0.50735 0.0
H469 H 0.64548 0.32904 0.5363 0.0
C470 C 0.55158 0.19944 0.48694 0.0
C471 C 0.56746 0.18353 0.50403 0.0
C472 C 0.55124 0.23741 0.48869 0.0
C473 C 0.56608 0.2601 0.50774 0.0
C474 C 0.58009 0.24288 0.5252 0.0
H475 H 0.59729 0.48681 0.5604 0.0
H476 H 0.596 0.42296 0.55134 0.0
C477 C 0.58153 0.20575 0.52319 0.0
C478 C 0.56631 0.30109 0.50966 0.0
H479 H 0.62799 0.40237 0.52318 0.0
C480 C 0.52927 0.303 0.50598 0.0
C481 C 0.60244 0.33808 0.51562 0.0
C482 C 0.64433 0.34008 0.51869 0.0
C483 C 0.52663 0.33949 0.50918 0.0
C484 C 0.56257 0.3763 0.51569 0.0
C485 C 0.59999 0.37462 0.51855 0.0
C486 C 0.56209 0.41593 0.52096 0.0
C487 C 0.48453 0.33709 0.50643 0.0
C488 C 0.54398 0.43498 0.50706 0.0
C489 C 0.54257 0.47078 0.51309 0.0
C490 C 0.5608 0.48975 0.53273 0.0
C491 C 0.58138 0.47239 0.54568 0.0
C492 C 0.58125 0.43587 0.54021 0.0
H493 H 0.45813 0.30402 0.50816 0.0
H494 H 0.47862 0.35456 0.51898 0.0
H495 H 0.48409 0.35087 0.48936 0.0
H496 H 0.53069 0.42226 0.49151 0.0
H497 H 0.52656 0.48306 0.50256 0.0
H498 H 0.48101 0.66954 0.86877 0.0
H499 H 0.41272 0.6656 0.87494 0.0
H500 H 0.35715 0.5677 0.82996 0.0
H501 H 0.42454 0.5693 0.82538 0.0
H502 H 0.36397 0.68066 0.85204 0.0
H503 H 0.26913 0.50994 0.87715 0.0
H504 H 0.32573 0.53628 0.87344 0.0
H505 H 0.29322 0.51984 0.84958 0.0
C506 C 0.45404 0.64686 0.8604 0.0
C507 C 0.45815 0.61931 0.84684 0.0
C508 C 0.41482 0.64464 0.86388 0.0
C509 C 0.37864 0.61543 0.85351 0.0
C510 C 0.38343 0.58917 0.83915 0.0
H511 H 0.11729 0.56424 0.84851 0.0
H512 H 0.18603 0.56909 0.84219 0.0
C513 C 0.4223 0.59041 0.83628 0.0
C514 C 0.3366 0.61334 0.85736 0.0
H515 H 0.23083 0.54565 0.86942 0.0
C516 C 0.33505 0.65102 0.85603 0.0
C517 C 0.29815 0.57487 0.8626 0.0
C518 C 0.29667 0.53305 0.866 0.0
C519 C 0.29685 0.65132 0.85934 0.0
C520 C 0.25851 0.61286 0.8643 0.0
C521 C 0.25992 0.57522 0.86556 0.0
C522 C 0.21663 0.61076 0.86808 0.0
C523 C 0.29791 0.69299 0.85695 0.0
C524 C 0.21011 0.63209 0.88491 0.0
C525 C 0.17073 0.6296 0.88838 0.0
C526 C 0.13663 0.60542 0.87526 0.0
C527 C 0.143 0.58365 0.85867 0.0
C528 C 0.18233 0.58621 0.85515 0.0
H529 H 0.32654 0.71763 0.84705 0.0
H530 H 0.26961 0.69017 0.84873 0.0
H531 H 0.29844 0.70367 0.87385 0.0
H532 H 0.23541 0.65049 0.89554 0.0
H533 H 0.16713 0.64705 0.90117 0.0
H534 H 0.86886 0.40522 0.20013 0.0
H535 H 0.80325 0.33811 0.20572 0.0
H536 H 0.853 0.28395 0.16156 0.0
H537 H 0.9198 0.3512 0.15647 0.0
H538 H 0.74557 0.29479 0.17791 0.0
H539 H 0.8074 0.19246 0.21158 0.0
H540 H 0.83956 0.24906 0.2083 0.0
H541 H 0.83021 0.21907 0.18446 0.0
C542 C 0.86617 0.37911 0.19161 0.0
C543 C 0.9001 0.38407 0.1778 0.0
C544 C 0.8283 0.34042 0.19486 0.0
C545 C 0.82265 0.30508 0.18441 0.0
C546 C 0.8564 0.30995 0.17043 0.0
H547 H 0.60666 0.04439 0.19045 0.0
H548 H 0.67462 0.10948 0.18237 0.0
C549 C 0.8947 0.34873 0.16734 0.0
C550 C 0.7809 0.26423 0.18763 0.0
H551 H 0.73491 0.15872 0.20442 0.0
C552 C 0.7434 0.26509 0.18375 0.0
C553 C 0.77735 0.22493 0.19508 0.0
C554 C 0.8157 0.2212 0.20031 0.0
C555 C 0.70315 0.22847 0.18676 0.0
C556 C 0.69939 0.18921 0.19472 0.0
C557 C 0.73701 0.18829 0.1984 0.0
C558 C 0.65713 0.14905 0.19939 0.0
C559 C 0.66532 0.23255 0.1806 0.0
C560 C 0.62395 0.14831 0.21197 0.0
C561 C 0.58444 0.11137 0.21571 0.0
C562 C 0.57696 0.0733 0.20778 0.0
C563 C 0.61064 0.07333 0.19614 0.0
C564 C 0.64989 0.11066 0.1918 0.0
H565 H 0.67412 0.25929 0.16769 0.0
H566 H 0.64023 0.20348 0.17408 0.0
H567 H 0.65238 0.23901 0.19568 0.0
H568 H 0.62846 0.17636 0.21907 0.0
H569 H 0.5595 0.1127 0.22478 0.0
H570 H 0.02664 0.59192 0.10037 0.0
H571 H 0.04576 0.59679 0.06074 0.0
H572 H 0.04227 0.47767 0.07076 0.0
H573 H 0.0222 0.47223 0.1108 0.0
H574 H 0.11658 0.59893 0.04196 0.0
H575 H 0.9693 0.46217 0.01659 0.0
H576 H 0.97212 0.48417 0.04291 0.0
H577 H 0.99533 0.45175 0.03946 0.0
C578 C 0.02964 0.56653 0.09418 0.0
C579 C 0.02268 0.53155 0.1087 0.0
C580 C 0.0407 0.56944 0.07148 0.0
C581 C 0.04515 0.5375 0.06265 0.0
C582 C 0.03833 0.5024 0.07709 0.0
H583 H 0.0776 0.52691 0.91766 0.0
H584 H 0.079 0.51168 0.95838 0.0
C585 C 0.02704 0.49938 0.09996 0.0
C586 C 0.05785 0.54218 0.03841 0.0
H587 H 0.02167 0.50291 0.98823 0.0
C588 C 0.09604 0.57763 0.03024 0.0
C589 C 0.03127 0.51428 0.0231 0.0
C590 C 0.98955 0.47606 0.03081 0.0
C591 C 0.10786 0.58661 0.00721 0.0
C592 C 0.08029 0.55994 0.99172 0.0
C593 C 0.04293 0.52342 1.0 0.0
C594 C 0.08722 0.57144 0.96696 0.0
C595 C 0.14976 0.62488 0.99982 0.0
C596 C 0.09272 0.61043 0.95808 0.0
C597 C 0.09303 0.61931 0.93497 0.0
C598 C 0.08691 0.58916 0.92019 0.0
C599 C 0.08341 0.55093 0.92877 0.0
C600 C 0.08361 0.54212 0.95201 0.0
H601 H 0.17305 0.63146 0.01293 0.0
H602 H 0.16297 0.62104 0.98398 0.0
H603 H 0.14553 0.65274 0.99717 0.0
H604 H 0.0941 0.63312 0.96906 0.0
H605 H 0.09461 0.64848 0.92866 0.0
H606 H 0.5354 0.0183 0.44754 0.0
H607 H 0.52071 0.0052 0.40799 0.0
H608 H 0.61715 0.13311 0.38762 0.0
H609 H 0.63356 0.14512 0.4268 0.0
H610 H 0.49565 0.03461 0.3739 0.0
H611 H 0.65856 0.0731 0.35203 0.0
H612 H 0.63962 0.06776 0.38065 0.0
H613 H 0.65863 0.11677 0.36344 0.0
C614 C 0.55307 0.04358 0.43454 0.0
C615 C 0.58586 0.08258 0.44006 0.0
C616 C 0.54482 0.0361 0.41197 0.0
C617 C 0.56883 0.06774 0.39468 0.0
C618 C 0.59942 0.1076 0.40049 0.0
H619 H 0.50161 0.07315 0.25609 0.0
H620 H 0.51566 0.08433 0.2958 0.0
C621 C 0.60846 0.11464 0.42289 0.0
C622 C 0.56279 0.05936 0.37059 0.0
H623 H 0.61708 0.07252 0.32108 0.0
C624 C 0.52218 0.04264 0.3624 0.0
C625 C 0.59708 0.06843 0.35557 0.0
C626 C 0.64077 0.08201 0.36344 0.0
C627 C 0.51532 0.03656 0.33954 0.0
C628 C 0.55022 0.04906 0.32427 0.0
C629 C 0.59047 0.06403 0.33262 0.0
C630 C 0.54561 0.04622 0.29965 0.0
C631 C 0.4706 0.01602 0.3321 0.0
C632 C 0.56032 0.0236 0.28817 0.0
C633 C 0.55349 0.0185 0.26536 0.0
C634 C 0.53203 0.03602 0.25365 0.0
C635 C 0.51909 0.06026 0.26478 0.0
C636 C 0.52628 0.06578 0.28753 0.0
H637 H 0.44755 0.99656 0.34622 0.0
H638 H 0.46326 0.04075 0.32587 0.0
H639 H 0.4662 0.99569 0.31839 0.0
H640 H 0.57552 0.00839 0.29707 0.0
H641 H 0.56271 0.99884 0.25711 0.0
H642 H 0.59035 0.55971 0.76694 0.0
H643 H 0.59236 0.56821 0.72612 0.0
H644 H 0.57918 0.67811 0.72886 0.0
H645 H 0.57872 0.67039 0.77018 0.0
H646 H 0.52603 0.56096 0.7039 0.0
H647 H 0.66752 0.7154 0.67707 0.0
H648 H 0.66047 0.68901 0.70479 0.0
H649 H 0.63219 0.71629 0.69779 0.0
C650 C 0.58886 0.58629 0.75885 0.0
C651 C 0.58424 0.61431 0.7717 0.0
C652 C 0.58993 0.59109 0.73549 0.0
C653 C 0.58577 0.62368 0.72429 0.0
C654 C 0.58306 0.65304 0.73704 0.0
H655 H 0.49677 0.57977 0.58728 0.0
H656 H 0.50439 0.60128 0.62573 0.0
C657 C 0.58272 0.64861 0.76063 0.0
C658 C 0.57995 0.62345 0.69965 0.0
H659 H 0.62339 0.67793 0.6486 0.0
C660 C 0.54717 0.58674 0.69183 0.0
C661 C 0.60763 0.65693 0.68387 0.0
C662 C 0.64419 0.69657 0.69118 0.0
C663 C 0.54197 0.58197 0.66883 0.0
C664 C 0.56954 0.61541 0.653 0.0
C665 C 0.6019 0.65256 0.66074 0.0
C666 C 0.5674 0.61042 0.6285 0.0
C667 C 0.50825 0.54027 0.66172 0.0
C668 C 0.60101 0.61067 0.61686 0.0
C669 C 0.59688 0.59931 0.59486 0.0
C670 C 0.55918 0.58758 0.58408 0.0
C671 C 0.52632 0.58941 0.59519 0.0
C672 C 0.53056 0.6012 0.61719 0.0
H673 H 0.49581 0.51513 0.67586 0.0
H674 H 0.48153 0.54362 0.65542 0.0
H675 H 0.52068 0.53002 0.648 0.0
H676 H 0.62961 0.61743 0.6252 0.0
H677 H 0.62227 0.59744 0.58658 0.0
H678 H 0.59756 0.03587 0.5715 0.0
H679 H 0.60854 0.04187 0.61184 0.0
H680 H 0.56874 0.13461 0.61007 0.0
H681 H 0.55589 0.12719 0.57022 0.0
H682 H 0.65349 0.10528 0.63994 0.0
H683 H 0.48126 0.03966 0.65318 0.0
H684 H 0.50528 0.04005 0.62666 0.0
H685 H 0.50495 0.08644 0.63415 0.0
C686 C 0.59194 0.05802 0.57975 0.0
C687 C 0.57518 0.08054 0.5681 0.0
C688 C 0.59819 0.06142 0.60269 0.0
C689 C 0.58827 0.08779 0.61396 0.0
C690 C 0.57537 0.11318 0.60176 0.0
H691 H 0.63252 0.17712 0.74367 0.0
H692 H 0.64006 0.16257 0.70523 0.0
C693 C 0.56823 0.10909 0.57905 0.0
C694 C 0.5876 0.08633 0.63868 0.0
H695 H 0.5231 0.07134 0.68393 0.0
C696 C 0.62496 0.0974 0.64968 0.0
C697 C 0.55 0.07478 0.65135 0.0
C698 C 0.50802 0.05911 0.64075 0.0
C699 C 0.62612 0.09937 0.67302 0.0
C700 C 0.58921 0.09102 0.68541 0.0
C701 C 0.55151 0.07805 0.67445 0.0
C702 C 0.58891 0.0979 0.70943 0.0
C703 C 0.66679 0.11033 0.68411 0.0
C704 C 0.55739 0.06667 0.72452 0.0
C705 C 0.552 0.07565 0.74611 0.0
C706 C 0.57836 0.11576 0.75303 0.0
C707 C 0.61136 0.14623 0.73844 0.0
C708 C 0.61622 0.13761 0.71667 0.0
H709 H 0.68603 0.10055 0.67445 0.0
H710 H 0.68564 0.14496 0.68463 0.0
H711 H 0.66086 0.09519 0.70153 0.0
H712 H 0.53578 0.0359 0.71925 0.0
H713 H 0.52615 0.0519 0.75707 0.0
H714 H 0.66049 0.6551 0.90685 0.0
H715 H 0.6536 0.63334 0.94704 0.0
H716 H 0.51809 0.56532 0.94413 0.0
H717 H 0.52488 0.58631 0.9037 0.0
H718 H 0.61006 0.65122 0.97976 0.0
H719 H 0.54371 0.47903 0.97732 0.0
H720 H 0.56941 0.51608 0.953 0.0
H721 H 0.51643 0.50128 0.96192 0.0
C722 C 0.62925 0.63515 0.91476 0.0
C723 C 0.5932 0.62224 0.90226 0.0
C724 C 0.62538 0.6228 0.93768 0.0
C725 C 0.5854 0.59737 0.94847 0.0
C726 C 0.54927 0.5842 0.93598 0.0
H727 H 0.48661 0.49392 0.08304 0.0
H728 H 0.50201 0.50785 0.04258 0.0
C729 C 0.55314 0.59626 0.91296 0.0
C730 C 0.58166 0.58636 0.97299 0.0
H731 H 0.54691 0.50362 0.013 0.0
C732 C 0.59639 0.619 0.98713 0.0
C733 C 0.56366 0.54431 0.9824 0.0
C734 C 0.54766 0.50809 0.96792 0.0
C735 C 0.5922 0.61069 0.01056 0.0
C736 C 0.57447 0.56846 0.02012 0.0
C737 C 0.56061 0.53594 0.00581 0.0
C738 C 0.56704 0.55696 0.04479 0.0
C739 C 0.60501 0.6473 0.02456 0.0
C740 C 0.59879 0.57815 0.05973 0.0
C741 C 0.58912 0.57183 0.08283 0.0
C742 C 0.54816 0.54261 0.09142 0.0
C743 C 0.51796 0.51772 0.07671 0.0
C744 C 0.52698 0.5254 0.05359 0.0
H745 H 0.60561 0.67452 0.01478 0.0
H746 H 0.58318 0.63838 0.03953 0.0
H747 H 0.63736 0.65804 0.03019 0.0
H748 H 0.63056 0.60101 0.05353 0.0
H749 H 0.61302 0.59142 0.0938 0.0
H750 H 1.01155 0.43373 0.24926 0.0
H751 H 1.01026 0.44397 0.28923 0.0
H752 H 0.01627 0.56297 0.27211 0.0
H753 H 0.01761 0.553 0.23218 0.0
H754 H 0.07567 0.51757 0.30984 0.0
H755 H 0.91508 0.49719 0.31974 0.0
H756 H 0.93066 0.47737 0.29695 0.0
H757 H 0.94765 0.53244 0.29629 0.0
C758 C 0.01218 0.46185 0.25406 0.0
C759 C 0.01469 0.4926 0.23771 0.0
C760 C 1.01151 0.46766 0.27682 0.0
C761 C 0.01277 0.50399 0.2835 0.0
C762 C 0.01468 0.53446 0.26722 0.0
H763 H 0.0225 0.61659 0.40521 0.0
H764 H 0.01352 0.59376 0.3672 0.0
C765 C 0.01559 0.5288 0.24447 0.0
C766 C 0.01409 0.51112 0.30748 0.0
H767 H 0.95957 0.52303 0.35007 0.0
C768 C 0.05021 0.5184 0.31878 0.0
C769 C 0.98087 0.51243 0.31886 0.0
C770 C 0.94116 0.50415 0.30745 0.0
C771 C 0.05467 0.52844 0.34111 0.0
C772 C 0.0214 0.52985 0.35256 0.0
C773 C 0.98493 0.52177 0.3413 0.0
C774 C 0.0247 0.54191 0.37581 0.0
C775 C 0.09569 0.53923 0.3518 0.0
C776 C 0.03289 0.51973 0.39334 0.0
C777 C 0.03894 0.53343 0.41484 0.0
C778 C 0.0359 0.56882 0.41916 0.0
C779 C 0.02555 0.5896 0.40198 0.0
C780 C 0.0202 0.57641 0.38042 0.0
H781 H 0.1216 0.54792 0.33903 0.0
H782 H 0.1054 0.56572 0.36243 0.0
H783 H 0.09162 0.5114 0.36256 0.0
H784 H 0.03531 0.49231 0.39032 0.0
H785 H 0.04701 0.51711 0.42796 0.0
loop_
_geom_bond_atom_site_label_1
_geom_bond_atom_site_label_2
_geom_bond_distance
_geom_bond_site_symmetry_2
_ccdc_geom_bond_type
Dy0 O4 2.398 . S
Dy0 O5 2.491 . S
Dy0 O6 2.403 . S
Dy0 O7 2.664 1_455 S
Dy0 O11 2.326 . S
Dy0 O15 2.310 . S
Dy0 O16 2.351 1_455 S
C1 O12 1.185 . S
C1 O13 1.355 . S
C2 O4 1.185 . S
C2 O5 1.355 . S
Dy3 O7 2.310 . S
Dy3 O10 2.351 1_655 S
Dy3 O12 2.398 . S
Dy3 O13 2.491 . S
Dy3 O14 2.403 . S
Dy3 O15 2.664 1_655 S
Dy3 O17 2.326 . S
O4 Dy0 2.398 . S
O4 C2 1.185 . S
O5 Dy0 2.491 . S
O5 C2 1.355 . S
O6 Dy0 2.403 . S
O6 C8 1.254 . S
O7 Dy0 2.664 1_655 S
O7 Dy3 2.310 . S
O7 C8 1.268 1_655 S
C8 O6 1.254 . S
C8 O7 1.268 1_455 S
C9 O14 1.254 1_455 S
C9 O15 1.268 . S
O10 Dy3 2.351 1_455 S
O10 C18 1.249 . S
O11 Dy0 2.326 . S
O11 C18 1.267 . S
O12 C1 1.185 . S
O12 Dy3 2.398 . S
O13 C1 1.355 . S
O13 Dy3 2.491 . S
O14 Dy3 2.403 . S
O14 C9 1.254 1_655 S
O15 Dy0 2.310 . S
O15 Dy3 2.664 1_455 S
O15 C9 1.268 . S
O16 Dy0 2.351 1_655 S
O16 C19 1.249 . S
O17 Dy3 2.326 . S
O17 C19 1.267 . S
C18 O10 1.249 . S
C18 O11 1.267 . S
C19 O16 1.249 . S
C19 O17 1.267 . S
Dy20 O24 2.398 1_545 S
Dy20 O25 2.491 1_545 S
Dy20 O26 2.403 . S
Dy20 O27 2.664 . S
Dy20 O31 2.326 1_545 S
Dy20 O35 2.310 . S
Dy20 O36 2.351 . S
C21 O32 1.185 . S
C21 O33 1.355 . S
C22 O24 1.185 . S
C22 O25 1.355 . S
Dy23 O27 2.310 . S
Dy23 O30 2.351 . S
Dy23 O32 2.398 . S
Dy23 O33 2.491 . S
Dy23 O34 2.403 . S
Dy23 O35 2.664 . S
Dy23 O37 2.326 . S
O24 Dy20 2.398 1_565 S
O24 C22 1.185 . S
O25 Dy20 2.491 1_565 S
O25 C22 1.355 . S
O26 Dy20 2.403 . S
O26 C28 1.254 . S
O27 Dy20 2.664 . S
O27 Dy23 2.310 . S
O27 C28 1.268 . S
C28 O26 1.254 . S
C28 O27 1.268 . S
C29 O34 1.254 . S
C29 O35 1.268 . S
O30 Dy23 2.351 . S
O30 C38 1.249 1_545 S
O31 Dy20 2.326 1_565 S
O31 C38 1.267 . S
O32 C21 1.185 . S
O32 Dy23 2.398 . S
O33 C21 1.355 . S
O33 Dy23 2.491 . S
O34 Dy23 2.403 . S
O34 C29 1.254 . S
O35 Dy20 2.310 . S
O35 Dy23 2.664 . S
O35 C29 1.268 . S
O36 Dy20 2.351 . S
O36 C39 1.249 . S
O37 Dy23 2.326 . S
O37 C39 1.267 . S
C38 O30 1.249 1_565 S
C38 O31 1.267 . S
C39 O36 1.249 . S
C39 O37 1.267 . S
Dy40 O44 2.398 . S
Dy40 O45 2.491 . S
Dy40 O46 2.403 . S
Dy40 O47 2.664 . S
Dy40 O51 2.326 . S
Dy40 O55 2.310 . S
Dy40 O56 2.351 . S
C41 O52 1.185 . S
C41 O53 1.355 . S
C42 O44 1.185 . S
C42 O45 1.355 . S
Dy43 O47 2.310 . S
Dy43 O50 2.351 . S
Dy43 O52 2.398 . S
Dy43 O53 2.491 . S
Dy43 O54 2.403 . S
Dy43 O55 2.664 . S
Dy43 O57 2.326 . S
O44 Dy40 2.398 . S
O44 C42 1.185 . S
O45 Dy40 2.491 . S
O45 C42 1.355 . S
O46 Dy40 2.403 . S
O46 C48 1.254 . S
O47 Dy40 2.664 . S
O47 Dy43 2.310 . S
O47 C48 1.268 . S
C48 O46 1.254 . S
C48 O47 1.268 . S
C49 O54 1.254 . S
C49 O55 1.268 . S
O50 Dy43 2.351 . S
O50 C58 1.249 . S
O51 Dy40 2.326 . S
O51 C58 1.267 . S
O52 C41 1.185 . S
O52 Dy43 2.398 . S
O53 C41 1.355 . S
O53 Dy43 2.491 . S
O54 Dy43 2.403 . S
O54 C49 1.254 . S
O55 Dy40 2.310 . S
O55 Dy43 2.664 . S
O55 C49 1.268 . S
O56 Dy40 2.351 . S
O56 C59 1.249 . S
O57 Dy43 2.326 . S
O57 C59 1.267 . S
C58 O50 1.249 . S
C58 O51 1.267 . S
C59 O56 1.249 . S
C59 O57 1.267 . S
C60 N61 1.317 . S
C60 N62 1.348 1_545 S
C60 C63 1.485 . S
N61 C60 1.317 . S
N61 N65 1.370 . S
N62 C60 1.348 1_565 S
N62 C64 1.346 . S
C63 C60 1.485 . S
C63 H67 0.960 . S
C63 H68 0.961 1_545 S
C63 H69 0.960 . S
C64 N62 1.346 . S
C64 N65 1.307 1_565 S
C64 C66 1.486 . S
N65 N61 1.370 . S
N65 C64 1.307 1_545 S
C66 C64 1.486 . S
C66 H70 0.960 . S
C66 H71 0.960 . S
C66 H72 0.959 . S
H67 C63 0.960 . S
H68 C63 0.961 1_565 S
H69 C63 0.960 . S
H70 C66 0.960 . S
H71 C66 0.960 . S
H72 C66 0.959 . S
C73 N74 1.317 . S
C73 N75 1.348 . S
C73 C76 1.485 . S
N74 C73 1.317 . S
N74 N78 1.370 . S
N75 C73 1.348 . S
N75 C77 1.346 . S
C76 C73 1.485 . S
C76 H80 0.960 . S
C76 H81 0.961 . S
C76 H82 0.960 . S
C77 N75 1.346 . S
C77 N78 1.307 . S
C77 C79 1.486 . S
N78 N74 1.370 . S
N78 C77 1.307 . S
C79 C77 1.486 . S
C79 H83 0.960 . S
C79 H84 0.960 . S
C79 H85 0.959 . S
H80 C76 0.960 . S
H81 C76 0.961 . S
H82 C76 0.960 . S
H83 C79 0.960 . S
H84 C79 0.960 . S
H85 C79 0.959 . S
C86 N87 1.317 . S
C86 N88 1.348 . S
C86 C89 1.485 . S
N87 C86 1.317 . S
N87 N91 1.370 . S
N88 C86 1.348 . S
N88 C90 1.346 . S
C89 C86 1.485 . S
C89 H93 0.960 . S
C89 H94 0.961 . S
C89 H95 0.960 . S
C90 N88 1.346 . S
C90 N91 1.307 . S
C90 C92 1.486 1_455 S
N91 N87 1.370 . S
N91 C90 1.307 . S
C92 C90 1.486 1_655 S
C92 H96 0.960 . S
C92 H97 0.960 . S
C92 H98 0.959 . S
H93 C89 0.960 . S
H94 C89 0.961 . S
H95 C89 0.960 . S
H96 C92 0.960 . S
H97 C92 0.960 . S
H98 C92 0.959 . S
C99 N100 1.317 . S
C99 N101 1.348 . S
C99 C102 1.485 . S
N100 C99 1.317 . S
N100 N104 1.370 . S
N101 C99 1.348 . S
N101 C103 1.346 . S
C102 C99 1.485 . S
C102 H106 0.960 . S
C102 H107 0.961 . S
C102 H108 0.960 . S
C103 N101 1.346 . S
C103 N104 1.307 . S
C103 C105 1.486 . S
N104 N100 1.370 . S
N104 C103 1.307 . S
C105 C103 1.486 . S
C105 H109 0.960 . S
C105 H110 0.960 . S
C105 H111 0.959 . S
H106 C102 0.960 . S
H107 C102 0.961 . S
H108 C102 0.960 . S
H109 C105 0.960 . S
H110 C105 0.960 . S
H111 C105 0.959 . S
C112 N113 1.317 . S
C112 N114 1.348 . S
C112 C115 1.485 . S
N113 C112 1.317 . S
N113 N117 1.370 . S
N114 C112 1.348 . S
N114 C116 1.346 . S
C115 C112 1.485 . S
C115 H119 0.960 . S
C115 H120 0.961 . S
C115 H121 0.960 . S
C116 N114 1.346 . S
C116 N117 1.307 . S
C116 C118 1.486 . S
N117 N113 1.370 . S
N117 C116 1.307 . S
C118 C116 1.486 . S
C118 H122 0.960 . S
C118 H123 0.960 . S
C118 H124 0.959 . S
H119 C115 0.960 . S
H120 C115 0.961 . S
H121 C115 0.960 . S
H122 C118 0.960 . S
H123 C118 0.960 . S
H124 C118 0.959 . S
C125 N126 1.317 . S
C125 N127 1.348 . S
C125 C128 1.485 . S
N126 C125 1.317 . S
N126 N130 1.370 . S
N127 C125 1.348 . S
N127 C129 1.346 . S
C128 C125 1.485 . S
C128 H132 0.960 . S
C128 H133 0.961 . S
C128 H134 0.960 . S
C129 N127 1.346 . S
C129 N130 1.307 . S
C129 C131 1.486 . S
N130 N126 1.370 . S
N130 C129 1.307 . S
C131 C129 1.486 . S
C131 H135 0.960 . S
C131 H136 0.960 . S
C131 H137 0.959 . S
H132 C128 0.960 . S
H133 C128 0.961 . S
H134 C128 0.960 . S
H135 C131 0.960 . S
H136 C131 0.960 . S
H137 C131 0.959 . S
H138 C146 0.929 . S
H139 C148 0.930 . S
H140 C150 0.930 . S
H141 C153 0.929 . S
H142 C156 0.930 . S
H143 C158 0.960 . S
H144 C158 0.960 . S
H145 C158 0.960 . S
C146 H138 0.929 . S
C146 C147 1.377 . S
C146 C148 1.384 . S
C147 C146 1.377 . S
C147 C153 1.390 . S
C148 H139 0.930 . S
C148 C146 1.384 . S
C148 C149 1.372 . S
C149 C148 1.372 . S
C149 C150 1.400 . S
C149 C154 1.490 . S
C150 H140 0.930 . S
C150 C149 1.400 . S
C150 C153 1.386 . S
H151 C167 0.930 . S
H152 C168 0.931 . S
C153 H141 0.929 . S
C153 C147 1.390 . S
C153 C150 1.386 . S
C154 C149 1.490 . S
C154 C156 1.395 . S
C154 C157 1.403 . S
H155 C161 0.930 . S
C156 H142 0.930 . S
C156 C154 1.395 . S
C156 C159 1.403 . S
C157 C154 1.403 . S
C157 C158 1.524 . S
C157 C161 1.400 . S
C158 H143 0.960 . S
C158 H144 0.960 . S
C158 H145 0.960 . S
C158 C157 1.524 . S
C159 C156 1.403 . S
C159 C160 1.392 . S
C159 C163 1.495 . S
C160 C159 1.392 . S
C160 C161 1.385 . S
C160 C162 1.478 . S
C161 H155 0.930 . S
C161 C157 1.400 . S
C161 C160 1.385 . S
C162 C160 1.478 . S
C162 C164 1.381 . S
C162 C168 1.383 . S
C163 C159 1.495 . S
C163 H169 0.959 . S
C163 H170 0.961 . S
C163 H171 0.960 . S
C164 C162 1.381 . S
C164 C165 1.394 . S
C164 H172 0.930 . S
C165 C164 1.394 . S
C165 C166 1.383 . S
C165 H173 0.929 . S
C166 C165 1.383 . S
C166 C167 1.377 . S
C167 H151 0.930 . S
C167 C166 1.377 . S
C167 C168 1.379 . S
C168 H152 0.931 . S
C168 C162 1.383 . S
C168 C167 1.379 . S
H169 C163 0.959 . S
H170 C163 0.961 . S
H171 C163 0.960 . S
H172 C164 0.930 . S
H173 C165 0.929 . S
H174 C182 0.929 . S
H175 C184 0.930 . S
H176 C186 0.930 . S
H177 C189 0.929 . S
H178 C192 0.930 . S
H179 C194 0.960 . S
H180 C194 0.960 . S
H181 C194 0.960 . S
C182 H174 0.929 . S
C182 C183 1.377 . S
C182 C184 1.384 . S
C183 C182 1.377 . S
C183 C189 1.390 . S
C184 H175 0.930 . S
C184 C182 1.384 . S
C184 C185 1.372 . S
C185 C184 1.372 . S
C185 C186 1.400 . S
C185 C190 1.490 . S
C186 H176 0.930 . S
C186 C185 1.400 . S
C186 C189 1.386 . S
H187 C203 0.930 . S
H188 C204 0.931 . S
C189 H177 0.929 . S
C189 C183 1.390 . S
C189 C186 1.386 . S
C190 C185 1.490 . S
C190 C192 1.395 . S
C190 C193 1.403 . S
H191 C197 0.930 . S
C192 H178 0.930 . S
C192 C190 1.395 . S
C192 C195 1.403 . S
C193 C190 1.403 . S
C193 C194 1.524 . S
C193 C197 1.400 . S
C194 H179 0.960 . S
C194 H180 0.960 . S
C194 H181 0.960 . S
C194 C193 1.524 . S
C195 C192 1.403 . S
C195 C196 1.392 . S
C195 C199 1.495 . S
C196 C195 1.392 . S
C196 C197 1.385 . S
C196 C198 1.478 . S
C197 H191 0.930 . S
C197 C193 1.400 . S
C197 C196 1.385 . S
C198 C196 1.478 . S
C198 C200 1.381 . S
C198 C204 1.383 . S
C199 C195 1.495 . S
C199 H205 0.959 . S
C199 H206 0.961 . S
C199 H207 0.960 . S
C200 C198 1.381 . S
C200 C201 1.394 . S
C200 H208 0.930 . S
C201 C200 1.394 . S
C201 C202 1.383 . S
C201 H209 0.929 1_655 S
C202 C201 1.383 . S
C202 C203 1.377 . S
C203 H187 0.930 . S
C203 C202 1.377 . S
C203 C204 1.379 . S
C204 H188 0.931 . S
C204 C198 1.383 . S
C204 C203 1.379 . S
H205 C199 0.959 . S
H206 C199 0.961 . S
H207 C199 0.960 . S
H208 C200 0.930 . S
H209 C201 0.929 1_455 S
H210 C218 0.929 . S
H211 C220 0.930 . S
H212 C222 0.930 . S
H213 C225 0.929 . S
H214 C228 0.930 . S
H215 C230 0.960 . S
H216 C230 0.960 . S
H217 C230 0.960 . S
C218 H210 0.929 . S
C218 C219 1.377 . S
C218 C220 1.384 . S
C219 C218 1.377 . S
C219 C225 1.390 . S
C220 H211 0.930 . S
C220 C218 1.384 . S
C220 C221 1.372 . S
C221 C220 1.372 . S
C221 C222 1.400 . S
C221 C226 1.490 . S
C222 H212 0.930 . S
C222 C221 1.400 . S
C222 C225 1.386 . S
H223 C239 0.930 . S
H224 C240 0.931 . S
C225 H213 0.929 . S
C225 C219 1.390 . S
C225 C222 1.386 . S
C226 C221 1.490 . S
C226 C228 1.395 . S
C226 C229 1.403 . S
H227 C233 0.930 . S
C228 H214 0.930 . S
C228 C226 1.395 . S
C228 C231 1.403 . S
C229 C226 1.403 . S
C229 C230 1.524 . S
C229 C233 1.400 . S
C230 H215 0.960 . S
C230 H216 0.960 . S
C230 H217 0.960 . S
C230 C229 1.524 . S
C231 C228 1.403 . S
C231 C232 1.392 . S
C231 C235 1.495 . S
C232 C231 1.392 . S
C232 C233 1.385 . S
C232 C234 1.478 . S
C233 H227 0.930 . S
C233 C229 1.400 . S
C233 C232 1.385 . S
C234 C232 1.478 . S
C234 C236 1.381 1_565 S
C234 C240 1.383 . S
C235 C231 1.495 . S
C235 H241 0.959 . S
C235 H242 0.961 . S
C235 H243 0.960 1_565 S
C236 C234 1.381 1_545 S
C236 C237 1.394 . S
C236 H244 0.930 . S
C237 C236 1.394 . S
C237 C238 1.383 . S
C237 H245 0.929 . S
C238 C237 1.383 . S
C238 C239 1.377 . S
C239 H223 0.930 . S
C239 C238 1.377 . S
C239 C240 1.379 1_545 S
C240 H224 0.931 . S
C240 C234 1.383 . S
C240 C239 1.379 1_565 S
H241 C235 0.959 . S
H242 C235 0.961 . S
H243 C235 0.960 1_545 S
H244 C236 0.930 . S
H245 C237 0.929 . S
H246 C254 0.929 . S
H247 C256 0.930 . S
H248 C258 0.930 . S
H249 C261 0.929 . S
H250 C264 0.930 . S
H251 C266 0.960 . S
H252 C266 0.960 . S
H253 C266 0.960 . S
C254 H246 0.929 . S
C254 C255 1.377 . S
C254 C256 1.384 . S
C255 C254 1.377 . S
C255 C261 1.390 . S
C256 H247 0.930 . S
C256 C254 1.384 . S
C256 C257 1.372 . S
C257 C256 1.372 . S
C257 C258 1.400 . S
C257 C262 1.490 . S
C258 H248 0.930 . S
C258 C257 1.400 . S
C258 C261 1.386 . S
H259 C275 0.930 . S
H260 C276 0.931 . S
C261 H249 0.929 . S
C261 C255 1.390 . S
C261 C258 1.386 . S
C262 C257 1.490 . S
C262 C264 1.395 . S
C262 C265 1.403 . S
H263 C269 0.930 . S
C264 H250 0.930 . S
C264 C262 1.395 . S
C264 C267 1.403 . S
C265 C262 1.403 . S
C265 C266 1.524 . S
C265 C269 1.400 . S
C266 H251 0.960 . S
C266 H252 0.960 . S
C266 H253 0.960 . S
C266 C265 1.524 . S
C267 C264 1.403 . S
C267 C268 1.392 . S
C267 C271 1.495 . S
C268 C267 1.392 . S
C268 C269 1.385 . S
C268 C270 1.478 . S
C269 H263 0.930 . S
C269 C265 1.400 . S
C269 C268 1.385 . S
C270 C268 1.478 . S
C270 C272 1.381 . S
C270 C276 1.383 . S
C271 C267 1.495 . S
C271 H277 0.959 . S
C271 H278 0.961 . S
C271 H279 0.960 . S
C272 C270 1.381 . S
C272 C273 1.394 . S
C272 H280 0.930 . S
C273 C272 1.394 . S
C273 C274 1.383 . S
C273 H281 0.929 . S
C274 C273 1.383 . S
C274 C275 1.377 . S
C275 H259 0.930 . S
C275 C274 1.377 . S
C275 C276 1.379 . S
C276 H260 0.931 . S
C276 C270 1.383 . S
C276 C275 1.379 . S
H277 C271 0.959 . S
H278 C271 0.961 . S
H279 C271 0.960 . S
H280 C272 0.930 . S
H281 C273 0.929 . S
H282 C290 0.929 . S
H283 C292 0.930 . S
H284 C294 0.930 . S
H285 C297 0.929 . S
H286 C300 0.930 . S
H287 C302 0.960 . S
H288 C302 0.960 . S
H289 C302 0.960 . S
C290 H282 0.929 . S
C290 C291 1.377 . S
C290 C292 1.384 . S
C291 C290 1.377 . S
C291 C297 1.390 . S
C292 H283 0.930 . S
C292 C290 1.384 . S
C292 C293 1.372 . S
C293 C292 1.372 . S
C293 C294 1.400 . S
C293 C298 1.490 . S
C294 H284 0.930 . S
C294 C293 1.400 . S
C294 C297 1.386 . S
H295 C311 0.930 . S
H296 C312 0.931 . S
C297 H285 0.929 . S
C297 C291 1.390 . S
C297 C294 1.386 . S
C298 C293 1.490 . S
C298 C300 1.395 . S
C298 C301 1.403 . S
H299 C305 0.930 . S
C300 H286 0.930 . S
C300 C298 1.395 . S
C300 C303 1.403 . S
C301 C298 1.403 . S
C301 C302 1.524 . S
C301 C305 1.400 . S
C302 H287 0.960 . S
C302 H288 0.960 . S
C302 H289 0.960 . S
C302 C301 1.524 . S
C303 C300 1.403 . S
C303 C304 1.392 . S
C303 C307 1.495 . S
C304 C303 1.392 . S
C304 C305 1.385 . S
C304 C306 1.478 . S
C305 H299 0.930 . S
C305 C301 1.400 . S
C305 C304 1.385 . S
C306 C304 1.478 . S
C306 C308 1.381 . S
C306 C312 1.383 . S
C307 C303 1.495 . S
C307 H313 0.959 . S
C307 H314 0.961 . S
C307 H315 0.960 . S
C308 C306 1.381 . S
C308 C309 1.394 . S
C308 H316 0.930 . S
C309 C308 1.394 . S
C309 C310 1.383 . S
C309 H317 0.929 . S
C310 C309 1.383 . S
C310 C311 1.377 . S
C311 H295 0.930 . S
C311 C310 1.377 . S
C311 C312 1.379 . S
C312 H296 0.931 . S
C312 C306 1.383 . S
C312 C311 1.379 . S
H313 C307 0.959 . S
H314 C307 0.961 . S
H315 C307 0.960 . S
H316 C308 0.930 . S
H317 C309 0.929 . S
H318 C326 0.929 . S
H319 C328 0.930 . S
H320 C330 0.930 . S
H321 C333 0.929 . S
H322 C336 0.930 . S
H323 C338 0.960 . S
H324 C338 0.960 . S
H325 C338 0.960 . S
C326 H318 0.929 . S
C326 C327 1.377 . S
C326 C328 1.384 . S
C327 C326 1.377 . S
C327 C333 1.390 . S
C328 H319 0.930 . S
C328 C326 1.384 . S
C328 C329 1.372 . S
C329 C328 1.372 . S
C329 C330 1.400 . S
C329 C334 1.490 . S
C330 H320 0.930 . S
C330 C329 1.400 . S
C330 C333 1.386 . S
H331 C347 0.930 . S
H332 C348 0.931 . S
C333 H321 0.929 . S
C333 C327 1.390 . S
C333 C330 1.386 . S
C334 C329 1.490 . S
C334 C336 1.395 . S
C334 C337 1.403 . S
H335 C341 0.930 . S
C336 H322 0.930 . S
C336 C334 1.395 . S
C336 C339 1.403 . S
C337 C334 1.403 . S
C337 C338 1.524 . S
C337 C341 1.400 . S
C338 H323 0.960 . S
C338 H324 0.960 . S
C338 H325 0.960 . S
C338 C337 1.524 . S
C339 C336 1.403 . S
C339 C340 1.392 . S
C339 C343 1.495 . S
C340 C339 1.392 . S
C340 C341 1.385 . S
C340 C342 1.478 . S
C341 H335 0.930 . S
C341 C337 1.400 . S
C341 C340 1.385 . S
C342 C340 1.478 . S
C342 C344 1.381 . S
C342 C348 1.383 . S
C343 C339 1.495 . S
C343 H349 0.959 . S
C343 H350 0.961 . S
C343 H351 0.960 . S
C344 C342 1.381 . S
C344 C345 1.394 . S
C344 H352 0.930 . S
C345 C344 1.394 . S
C345 C346 1.383 . S
C345 H353 0.929 . S
C346 C345 1.383 . S
C346 C347 1.377 . S
C347 H331 0.930 . S
C347 C346 1.377 . S
C347 C348 1.379 . S
C348 H332 0.931 . S
C348 C342 1.383 . S
C348 C347 1.379 . S
H349 C343 0.959 . S
H350 C343 0.961 . S
H351 C343 0.960 . S
H352 C344 0.930 . S
H353 C345 0.929 . S
H354 C362 0.929 . S
H355 C364 0.930 . S
H356 C366 0.930 . S
H357 C369 0.929 . S
H358 C372 0.930 . S
H359 C374 0.960 . S
H360 C374 0.960 . S
H361 C374 0.960 . S
C362 H354 0.929 . S
C362 C363 1.377 . S
C362 C364 1.384 . S
C363 C362 1.377 . S
C363 C369 1.390 . S
C364 H355 0.930 . S
C364 C362 1.384 . S
C364 C365 1.372 . S
C365 C364 1.372 . S
C365 C366 1.400 . S
C365 C370 1.490 . S
C366 H356 0.930 . S
C366 C365 1.400 . S
C366 C369 1.386 . S
H367 C383 0.930 . S
H368 C384 0.931 . S
C369 H357 0.929 . S
C369 C363 1.390 . S
C369 C366 1.386 . S
C370 C365 1.490 . S
C370 C372 1.395 . S
C370 C373 1.403 . S
H371 C377 0.930 . S
C372 H358 0.930 . S
C372 C370 1.395 . S
C372 C375 1.403 . S
C373 C370 1.403 . S
C373 C374 1.524 . S
C373 C377 1.400 . S
C374 H359 0.960 . S
C374 H360 0.960 . S
C374 H361 0.960 . S
C374 C373 1.524 . S
C375 C372 1.403 . S
C375 C376 1.392 . S
C375 C379 1.495 . S
C376 C375 1.392 . S
C376 C377 1.385 . S
C376 C378 1.478 . S
C377 H371 0.930 . S
C377 C373 1.400 . S
C377 C376 1.385 . S
C378 C376 1.478 . S
C378 C380 1.381 . S
C378 C384 1.383 . S
C379 C375 1.495 . S
C379 H385 0.959 . S
C379 H386 0.961 . S
C379 H387 0.960 . S
C380 C378 1.381 . S
C380 C381 1.394 . S
C380 H388 0.930 . S
C381 C380 1.394 . S
C381 C382 1.383 . S
C381 H389 0.929 . S
C382 C381 1.383 . S
C382 C383 1.377 . S
C383 H367 0.930 . S
C383 C382 1.377 . S
C383 C384 1.379 . S
C384 H368 0.931 . S
C384 C378 1.383 . S
C384 C383 1.379 . S
H385 C379 0.959 . S
H386 C379 0.961 . S
H387 C379 0.960 . S
H388 C380 0.930 . S
H389 C381 0.929 . S
H390 C398 0.929 . S
H391 C400 0.930 . S
H392 C402 0.930 . S
H393 C405 0.929 . S
H394 C408 0.930 . S
H395 C410 0.960 . S
H396 C410 0.960 . S
H397 C410 0.960 . S
C398 H390 0.929 . S
C398 C399 1.377 . S
C398 C400 1.384 . S
C399 C398 1.377 . S
C399 C405 1.390 . S
C400 H391 0.930 . S
C400 C398 1.384 . S
C400 C401 1.372 . S
C401 C400 1.372 . S
C401 C402 1.400 . S
C401 C406 1.490 . S
C402 H392 0.930 . S
C402 C401 1.400 . S
C402 C405 1.386 . S
H403 C419 0.930 . S
H404 C420 0.931 . S
C405 H393 0.929 . S
C405 C399 1.390 . S
C405 C402 1.386 . S
C406 C401 1.490 . S
C406 C408 1.395 . S
C406 C409 1.403 . S
H407 C413 0.930 . S
C408 H394 0.930 . S
C408 C406 1.395 . S
C408 C411 1.403 . S
C409 C406 1.403 . S
C409 C410 1.524 . S
C409 C413 1.400 . S
C410 H395 0.960 . S
C410 H396 0.960 . S
C410 H397 0.960 . S
C410 C409 1.524 . S
C411 C408 1.403 . S
C411 C412 1.392 . S
C411 C415 1.495 . S
C412 C411 1.392 . S
C412 C413 1.385 . S
C412 C414 1.478 . S
C413 H407 0.930 . S
C413 C409 1.400 . S
C413 C412 1.385 . S
C414 C412 1.478 . S
C414 C416 1.381 . S
C414 C420 1.383 . S
C415 C411 1.495 . S
C415 H421 0.959 . S
C415 H422 0.961 . S
C415 H423 0.960 . S
C416 C414 1.381 . S
C416 C417 1.394 . S
C416 H424 0.930 . S
C417 C416 1.394 . S
C417 C418 1.383 . S
C417 H425 0.929 1_655 S
C418 C417 1.383 . S
C418 C419 1.377 . S
C419 H403 0.930 . S
C419 C418 1.377 . S
C419 C420 1.379 . S
C420 H404 0.931 . S
C420 C414 1.383 . S
C420 C419 1.379 . S
H421 C415 0.959 . S
H422 C415 0.961 . S
H423 C415 0.960 . S
H424 C416 0.930 . S
H425 C417 0.929 1_455 S
H426 C434 0.929 . S
H427 C436 0.930 . S
H428 C438 0.930 . S
H429 C441 0.929 . S
H430 C444 0.930 . S
H431 C446 0.960 . S
H432 C446 0.960 . S
H433 C446 0.960 . S
C434 H426 0.929 . S
C434 C435 1.377 . S
C434 C436 1.384 . S
C435 C434 1.377 . S
C435 C441 1.390 . S
C436 H427 0.930 . S
C436 C434 1.384 . S
C436 C437 1.372 . S
C437 C436 1.372 . S
C437 C438 1.400 . S
C437 C442 1.490 . S
C438 H428 0.930 . S
C438 C437 1.400 . S
C438 C441 1.386 . S
H439 C455 0.930 . S
H440 C456 0.931 . S
C441 H429 0.929 . S
C441 C435 1.390 . S
C441 C438 1.386 . S
C442 C437 1.490 . S
C442 C444 1.395 . S
C442 C445 1.403 . S
H443 C449 0.930 . S
C444 H430 0.930 . S
C444 C442 1.395 . S
C444 C447 1.403 . S
C445 C442 1.403 . S
C445 C446 1.524 . S
C445 C449 1.400 . S
C446 H431 0.960 . S
C446 H432 0.960 . S
C446 H433 0.960 . S
C446 C445 1.524 . S
C447 C444 1.403 . S
C447 C448 1.392 . S
C447 C451 1.495 . S
C448 C447 1.392 . S
C448 C449 1.385 . S
C448 C450 1.478 . S
C449 H443 0.930 . S
C449 C445 1.400 . S
C449 C448 1.385 . S
C450 C448 1.478 . S
C450 C452 1.381 . S
C450 C456 1.383 . S
C451 C447 1.495 . S
C451 H457 0.959 . S
C451 H458 0.961 . S
C451 H459 0.960 . S
C452 C450 1.381 . S
C452 C453 1.394 . S
C452 H460 0.930 . S
C453 C452 1.394 . S
C453 C454 1.383 . S
C453 H461 0.929 . S
C454 C453 1.383 . S
C454 C455 1.377 . S
C455 H439 0.930 . S
C455 C454 1.377 . S
C455 C456 1.379 . S
C456 H440 0.931 . S
C456 C450 1.383 . S
C456 C455 1.379 . S
H457 C451 0.959 . S
H458 C451 0.961 . S
H459 C451 0.960 . S
H460 C452 0.930 . S
H461 C453 0.929 . S
H462 C470 0.929 . S
H463 C472 0.930 . S
H464 C474 0.930 . S
H465 C477 0.929 . S
H466 C480 0.930 . S
H467 C482 0.960 . S
H468 C482 0.960 . S
H469 C482 0.960 . S
C470 H462 0.929 . S
C470 C471 1.377 . S
C470 C472 1.384 . S
C471 C470 1.377 . S
C471 C477 1.390 . S
C472 H463 0.930 . S
C472 C470 1.384 . S
C472 C473 1.372 . S
C473 C472 1.372 . S
C473 C474 1.400 . S
C473 C478 1.490 . S
C474 H464 0.930 . S
C474 C473 1.400 . S
C474 C477 1.386 . S
H475 C491 0.930 . S
H476 C492 0.931 . S
C477 H465 0.929 . S
C477 C471 1.390 . S
C477 C474 1.386 . S
C478 C473 1.490 . S
C478 C480 1.395 . S
C478 C481 1.403 . S
H479 C485 0.930 . S
C480 H466 0.930 . S
C480 C478 1.395 . S
C480 C483 1.403 . S
C481 C478 1.403 . S
C481 C482 1.524 . S
C481 C485 1.400 . S
C482 H467 0.960 . S
C482 H468 0.960 . S
C482 H469 0.960 . S
C482 C481 1.524 . S
C483 C480 1.403 . S
C483 C484 1.392 . S
C483 C487 1.495 . S
C484 C483 1.392 . S
C484 C485 1.385 . S
C484 C486 1.478 . S
C485 H479 0.930 . S
C485 C481 1.400 . S
C485 C484 1.385 . S
C486 C484 1.478 . S
C486 C488 1.381 . S
C486 C492 1.383 . S
C487 C483 1.495 . S
C487 H493 0.959 . S
C487 H494 0.961 . S
C487 H495 0.960 . S
C488 C486 1.381 . S
C488 C489 1.394 . S
C488 H496 0.930 . S
C489 C488 1.394 . S
C489 C490 1.383 . S
C489 H497 0.929 . S
C490 C489 1.383 . S
C490 C491 1.377 . S
C491 H475 0.930 . S
C491 C490 1.377 . S
C491 C492 1.379 . S
C492 H476 0.931 . S
C492 C486 1.383 . S
C492 C491 1.379 . S
H493 C487 0.959 . S
H494 C487 0.961 . S
H495 C487 0.960 . S
H496 C488 0.930 . S
H497 C489 0.929 . S
H498 C506 0.929 . S
H499 C508 0.930 . S
H500 C510 0.930 . S
H501 C513 0.929 . S
H502 C516 0.930 . S
H503 C518 0.960 . S
H504 C518 0.960 . S
H505 C518 0.960 . S
C506 H498 0.929 . S
C506 C507 1.377 . S
C506 C508 1.384 . S
C507 C506 1.377 . S
C507 C513 1.390 . S
C508 H499 0.930 . S
C508 C506 1.384 . S
C508 C509 1.372 . S
C509 C508 1.372 . S
C509 C510 1.400 . S
C509 C514 1.490 . S
C510 H500 0.930 . S
C510 C509 1.400 . S
C510 C513 1.386 . S
H511 C527 0.930 . S
H512 C528 0.931 . S
C513 H501 0.929 . S
C513 C507 1.390 . S
C513 C510 1.386 . S
C514 C509 1.490 . S
C514 C516 1.395 . S
C514 C517 1.403 . S
H515 C521 0.930 . S
C516 H502 0.930 . S
C516 C514 1.395 . S
C516 C519 1.403 . S
C517 C514 1.403 . S
C517 C518 1.524 . S
C517 C521 1.400 . S
C518 H503 0.960 . S
C518 H504 0.960 . S
C518 H505 0.960 . S
C518 C517 1.524 . S
C519 C516 1.403 . S
C519 C520 1.392 . S
C519 C523 1.495 . S
C520 C519 1.392 . S
C520 C521 1.385 . S
C520 C522 1.478 . S
C521 H515 0.930 . S
C521 C517 1.400 . S
C521 C520 1.385 . S
C522 C520 1.478 . S
C522 C524 1.381 . S
C522 C528 1.383 . S
C523 C519 1.495 . S
C523 H529 0.959 . S
C523 H530 0.961 . S
C523 H531 0.960 . S
C524 C522 1.381 . S
C524 C525 1.394 . S
C524 H532 0.930 . S
C525 C524 1.394 . S
C525 C526 1.383 . S
C525 H533 0.929 . S
C526 C525 1.383 . S
C526 C527 1.377 . S
C527 H511 0.930 . S
C527 C526 1.377 . S
C527 C528 1.379 . S
C528 H512 0.931 . S
C528 C522 1.383 . S
C528 C527 1.379 . S
H529 C523 0.959 . S
H530 C523 0.961 . S
H531 C523 0.960 . S
H532 C524 0.930 . S
H533 C525 0.929 . S
H534 C542 0.929 . S
H535 C544 0.930 . S
H536 C546 0.930 . S
H537 C549 0.929 . S
H538 C552 0.930 . S
H539 C554 0.960 . S
H540 C554 0.960 . S
H541 C554 0.960 . S
C542 H534 0.929 . S
C542 C543 1.377 . S
C542 C544 1.384 . S
C543 C542 1.377 . S
C543 C549 1.390 . S
C544 H535 0.930 . S
C544 C542 1.384 . S
C544 C545 1.372 . S
C545 C544 1.372 . S
C545 C546 1.400 . S
C545 C550 1.490 . S
C546 H536 0.930 . S
C546 C545 1.400 . S
C546 C549 1.386 . S
H547 C563 0.930 . S
H548 C564 0.931 . S
C549 H537 0.929 . S
C549 C543 1.390 . S
C549 C546 1.386 . S
C550 C545 1.490 . S
C550 C552 1.395 . S
C550 C553 1.403 . S
H551 C557 0.930 . S
C552 H538 0.930 . S
C552 C550 1.395 . S
C552 C555 1.403 . S
C553 C550 1.403 . S
C553 C554 1.524 . S
C553 C557 1.400 . S
C554 H539 0.960 . S
C554 H540 0.960 . S
C554 H541 0.960 . S
C554 C553 1.524 . S
C555 C552 1.403 . S
C555 C556 1.392 . S
C555 C559 1.495 . S
C556 C555 1.392 . S
C556 C557 1.385 . S
C556 C558 1.478 . S
C557 H551 0.930 . S
C557 C553 1.400 . S
C557 C556 1.385 . S
C558 C556 1.478 . S
C558 C560 1.381 . S
C558 C564 1.383 . S
C559 C555 1.495 . S
C559 H565 0.959 . S
C559 H566 0.961 . S
C559 H567 0.960 . S
C560 C558 1.381 . S
C560 C561 1.394 . S
C560 H568 0.930 . S
C561 C560 1.394 . S
C561 C562 1.383 . S
C561 H569 0.929 . S
C562 C561 1.383 . S
C562 C563 1.377 . S
C563 H547 0.930 . S
C563 C562 1.377 . S
C563 C564 1.379 . S
C564 H548 0.931 . S
C564 C558 1.383 . S
C564 C563 1.379 . S
H565 C559 0.959 . S
H566 C559 0.961 . S
H567 C559 0.960 . S
H568 C560 0.930 . S
H569 C561 0.929 . S
H570 C578 0.929 . S
H571 C580 0.930 . S
H572 C582 0.930 . S
H573 C585 0.929 . S
H574 C588 0.930 . S
H575 C590 0.960 . S
H576 C590 0.960 . S
H577 C590 0.960 . S
C578 H570 0.929 . S
C578 C579 1.377 . S
C578 C580 1.384 . S
C579 C578 1.377 . S
C579 C585 1.390 . S
C580 H571 0.930 . S
C580 C578 1.384 . S
C580 C581 1.372 . S
C581 C580 1.372 . S
C581 C582 1.400 . S
C581 C586 1.490 . S
C582 H572 0.930 . S
C582 C581 1.400 . S
C582 C585 1.386 . S
H583 C599 0.930 . S
H584 C600 0.931 . S
C585 H573 0.929 . S
C585 C579 1.390 . S
C585 C582 1.386 . S
C586 C581 1.490 . S
C586 C588 1.395 . S
C586 C589 1.403 . S
H587 C593 0.930 1_655 S
C588 H574 0.930 . S
C588 C586 1.395 . S
C588 C591 1.403 . S
C589 C586 1.403 . S
C589 C590 1.524 1_455 S
C589 C593 1.400 1_554 S
C590 H575 0.960 . S
C590 H576 0.960 . S
C590 H577 0.960 . S
C590 C589 1.524 1_655 S
C591 C588 1.403 . S
C591 C592 1.392 1_554 S
C591 C595 1.495 1_554 S
C592 C591 1.392 1_556 S
C592 C593 1.385 . S
C592 C594 1.478 . S
C593 H587 0.930 1_455 S
C593 C589 1.400 1_556 S
C593 C592 1.385 . S
C594 C592 1.478 . S
C594 C596 1.381 . S
C594 C600 1.383 . S
C595 C591 1.495 1_556 S
C595 H601 0.959 1_556 S
C595 H602 0.961 . S
C595 H603 0.960 . S
C596 C594 1.381 . S
C596 C597 1.394 . S
C596 H604 0.930 . S
C597 C596 1.394 . S
C597 C598 1.383 . S
C597 H605 0.929 . S
C598 C597 1.383 . S
C598 C599 1.377 . S
C599 H583 0.930 . S
C599 C598 1.377 . S
C599 C600 1.379 . S
C600 H584 0.931 . S
C600 C594 1.383 . S
C600 C599 1.379 . S
H601 C595 0.959 1_554 S
H602 C595 0.961 . S
H603 C595 0.960 . S
H604 C596 0.930 . S
H605 C597 0.929 . S
H606 C614 0.929 1_565 S
H607 C616 0.930 1_565 S
H608 C618 0.930 . S
H609 C621 0.929 . S
H610 C624 0.930 . S
H611 C626 0.960 . S
H612 C626 0.960 . S
H613 C626 0.960 . S
C614 H606 0.929 1_545 S
C614 C615 1.377 . S
C614 C616 1.384 . S
C615 C614 1.377 . S
C615 C621 1.390 . S
C616 H607 0.930 1_545 S
C616 C614 1.384 . S
C616 C617 1.372 . S
C617 C616 1.372 . S
C617 C618 1.400 . S
C617 C622 1.490 . S
C618 H608 0.930 . S
C618 C617 1.400 . S
C618 C621 1.386 . S
H619 C635 0.930 . S
H620 C636 0.931 . S
C621 H609 0.929 . S
C621 C615 1.390 . S
C621 C618 1.386 . S
C622 C617 1.490 . S
C622 C624 1.395 . S
C622 C625 1.403 . S
H623 C629 0.930 . S
C624 H610 0.930 . S
C624 C622 1.395 . S
C624 C627 1.403 . S
C625 C622 1.403 . S
C625 C626 1.524 . S
C625 C629 1.400 . S
C626 H611 0.960 . S
C626 H612 0.960 . S
C626 H613 0.960 . S
C626 C625 1.524 . S
C627 C624 1.403 . S
C627 C628 1.392 . S
C627 C631 1.496 1_545 S
C628 C627 1.392 . S
C628 C629 1.385 . S
C628 C630 1.478 . S
C629 H623 0.930 . S
C629 C625 1.400 . S
C629 C628 1.385 . S
C630 C628 1.478 . S
C630 C632 1.381 1_545 S
C630 C636 1.383 . S
C631 C627 1.496 1_565 S
C631 H637 0.957 . S
C631 H638 0.944 1_565 S
C631 H639 0.978 . S
C632 C630 1.381 1_565 S
C632 C633 1.394 . S
C632 H640 0.930 . S
C633 C632 1.394 . S
C633 C634 1.383 1_565 S
C633 H641 0.929 . S
C634 C633 1.383 1_545 S
C634 C635 1.377 . S
C635 H619 0.930 . S
C635 C634 1.377 . S
C635 C636 1.379 . S
C636 H620 0.931 . S
C636 C630 1.383 . S
C636 C635 1.379 . S
H637 C631 0.957 . S
H638 C631 0.944 1_545 S
H639 C631 0.978 . S
H640 C632 0.930 . S
H641 C633 0.929 . S
H642 C650 0.929 . S
H643 C652 0.930 . S
H644 C654 0.930 . S
H645 C657 0.929 . S
H646 C660 0.930 . S
H647 C662 0.960 . S
H648 C662 0.960 . S
H649 C662 0.960 . S
C650 H642 0.929 . S
C650 C651 1.377 . S
C650 C652 1.384 . S
C651 C650 1.377 . S
C651 C657 1.390 . S
C652 H643 0.930 . S
C652 C650 1.384 . S
C652 C653 1.372 . S
C653 C652 1.372 . S
C653 C654 1.400 . S
C653 C658 1.490 . S
C654 H644 0.930 . S
C654 C653 1.400 . S
C654 C657 1.386 . S
H655 C671 0.930 . S
H656 C672 0.931 . S
C657 H645 0.929 . S
C657 C651 1.390 . S
C657 C654 1.386 . S
C658 C653 1.490 . S
C658 C660 1.395 . S
C658 C661 1.403 . S
H659 C665 0.930 . S
C660 H646 0.930 . S
C660 C658 1.395 . S
C660 C663 1.403 . S
C661 C658 1.403 . S
C661 C662 1.524 . S
C661 C665 1.400 . S
C662 H647 0.960 . S
C662 H648 0.960 . S
C662 H649 0.960 . S
C662 C661 1.524 . S
C663 C660 1.403 . S
C663 C664 1.392 . S
C663 C667 1.495 . S
C664 C663 1.392 . S
C664 C665 1.385 . S
C664 C666 1.478 . S
C665 H659 0.930 . S
C665 C661 1.400 . S
C665 C664 1.385 . S
C666 C664 1.478 . S
C666 C668 1.381 . S
C666 C672 1.383 . S
C667 C663 1.495 . S
C667 H673 0.959 . S
C667 H674 0.961 . S
C667 H675 0.960 . S
C668 C666 1.381 . S
C668 C669 1.394 . S
C668 H676 0.930 . S
C669 C668 1.394 . S
C669 C670 1.383 . S
C669 H677 0.929 . S
C670 C669 1.383 . S
C670 C671 1.377 . S
C671 H655 0.930 . S
C671 C670 1.377 . S
C671 C672 1.379 . S
C672 H656 0.931 . S
C672 C666 1.383 . S
C672 C671 1.379 . S
H673 C667 0.959 . S
H674 C667 0.961 . S
H675 C667 0.960 . S
H676 C668 0.930 . S
H677 C669 0.929 . S
H678 C686 0.929 . S
H679 C688 0.930 . S
H680 C690 0.930 . S
H681 C693 0.929 . S
H682 C696 0.930 . S
H683 C698 0.960 . S
H684 C698 0.960 . S
H685 C698 0.960 . S
C686 H678 0.929 . S
C686 C687 1.377 . S
C686 C688 1.384 . S
C687 C686 1.377 . S
C687 C693 1.390 . S
C688 H679 0.930 . S
C688 C686 1.384 . S
C688 C689 1.372 . S
C689 C688 1.372 . S
C689 C690 1.400 . S
C689 C694 1.490 . S
C690 H680 0.930 . S
C690 C689 1.400 . S
C690 C693 1.386 . S
H691 C707 0.930 . S
H692 C708 0.931 . S
C693 H681 0.929 . S
C693 C687 1.390 . S
C693 C690 1.386 . S
C694 C689 1.490 . S
C694 C696 1.395 . S
C694 C697 1.403 . S
H695 C701 0.930 . S
C696 H682 0.930 . S
C696 C694 1.395 . S
C696 C699 1.403 . S
C697 C694 1.403 . S
C697 C698 1.524 . S
C697 C701 1.400 . S
C698 H683 0.960 . S
C698 H684 0.960 . S
C698 H685 0.960 . S
C698 C697 1.524 . S
C699 C696 1.403 . S
C699 C700 1.392 . S
C699 C703 1.495 . S
C700 C699 1.392 . S
C700 C701 1.385 . S
C700 C702 1.478 . S
C701 H695 0.930 . S
C701 C697 1.400 . S
C701 C700 1.385 . S
C702 C700 1.478 . S
C702 C704 1.381 . S
C702 C708 1.383 . S
C703 C699 1.495 . S
C703 H709 0.959 . S
C703 H710 0.961 . S
C703 H711 0.960 . S
C704 C702 1.381 . S
C704 C705 1.394 . S
C704 H712 0.930 . S
C705 C704 1.394 . S
C705 C706 1.383 . S
C705 H713 0.929 . S
C706 C705 1.383 . S
C706 C707 1.377 . S
C707 H691 0.930 . S
C707 C706 1.377 . S
C707 C708 1.379 . S
C708 H692 0.931 . S
C708 C702 1.383 . S
C708 C707 1.379 . S
H709 C703 0.959 . S
H710 C703 0.961 . S
H711 C703 0.960 . S
H712 C704 0.930 . S
H713 C705 0.929 . S
H714 C722 0.929 . S
H715 C724 0.930 . S
H716 C726 0.930 . S
H717 C729 0.929 . S
H718 C732 0.930 . S
H719 C734 0.960 . S
H720 C734 0.960 . S
H721 C734 0.960 . S
C722 H714 0.929 . S
C722 C723 1.377 . S
C722 C724 1.384 . S
C723 C722 1.377 . S
C723 C729 1.390 . S
C724 H715 0.930 . S
C724 C722 1.384 . S
C724 C725 1.372 . S
C725 C724 1.372 . S
C725 C726 1.400 . S
C725 C730 1.490 . S
C726 H716 0.930 . S
C726 C725 1.400 . S
C726 C729 1.386 . S
H727 C743 0.930 . S
H728 C744 0.931 . S
C729 H717 0.929 . S
C729 C723 1.390 . S
C729 C726 1.386 . S
C730 C725 1.490 . S
C730 C732 1.395 . S
C730 C733 1.403 . S
H731 C737 0.930 . S
C732 H718 0.930 . S
C732 C730 1.395 . S
C732 C735 1.403 1_556 S
C733 C730 1.403 . S
C733 C734 1.524 . S
C733 C737 1.400 1_556 S
C734 H719 0.960 . S
C734 H720 0.960 . S
C734 H721 0.960 . S
C734 C733 1.524 . S
C735 C732 1.403 1_554 S
C735 C736 1.392 . S
C735 C739 1.495 . S
C736 C735 1.392 . S
C736 C737 1.385 . S
C736 C738 1.478 . S
C737 H731 0.930 . S
C737 C733 1.400 1_554 S
C737 C736 1.385 . S
C738 C736 1.478 . S
C738 C740 1.381 . S
C738 C744 1.383 . S
C739 C735 1.495 . S
C739 H745 0.959 . S
C739 H746 0.961 . S
C739 H747 0.960 . S
C740 C738 1.381 . S
C740 C741 1.394 . S
C740 H748 0.930 . S
C741 C740 1.394 . S
C741 C742 1.383 . S
C741 H749 0.929 . S
C742 C741 1.383 . S
C742 C743 1.377 . S
C743 H727 0.930 . S
C743 C742 1.377 . S
C743 C744 1.379 . S
C744 H728 0.931 . S
C744 C738 1.383 . S
C744 C743 1.379 . S
H745 C739 0.959 . S
H746 C739 0.961 . S
H747 C739 0.960 . S
H748 C740 0.930 . S
H749 C741 0.929 . S
H750 C758 0.929 . S
H751 C760 0.930 . S
H752 C762 0.930 . S
H753 C765 0.929 . S
H754 C768 0.930 . S
H755 C770 0.960 . S
H756 C770 0.960 . S
H757 C770 0.960 . S
C758 H750 0.929 . S
C758 C759 1.377 . S
C758 C760 1.384 . S
C759 C758 1.377 . S
C759 C765 1.390 . S
C760 H751 0.930 . S
C760 C758 1.384 . S
C760 C761 1.372 . S
C761 C760 1.372 . S
C761 C762 1.400 . S
C761 C766 1.490 . S
C762 H752 0.930 . S
C762 C761 1.400 . S
C762 C765 1.386 . S
H763 C779 0.930 . S
H764 C780 0.931 . S
C765 H753 0.929 . S
C765 C759 1.390 . S
C765 C762 1.386 . S
C766 C761 1.490 . S
C766 C768 1.395 . S
C766 C769 1.403 1_455 S
H767 C773 0.930 . S
C768 H754 0.930 . S
C768 C766 1.395 . S
C768 C771 1.403 . S
C769 C766 1.403 1_655 S
C769 C770 1.524 . S
C769 C773 1.400 . S
C770 H755 0.960 . S
C770 H756 0.960 . S
C770 H757 0.960 . S
C770 C769 1.524 . S
C771 C768 1.403 . S
C771 C772 1.392 . S
C771 C775 1.495 . S
C772 C771 1.392 . S
C772 C773 1.385 1_455 S
C772 C774 1.478 . S
C773 H767 0.930 . S
C773 C769 1.400 . S
C773 C772 1.385 1_655 S
C774 C772 1.478 . S
C774 C776 1.381 . S
C774 C780 1.383 . S
C775 C771 1.495 . S
C775 H781 0.959 . S
C775 H782 0.961 . S
C775 H783 0.960 . S
C776 C774 1.381 . S
C776 C777 1.394 . S
C776 H784 0.930 . S
C777 C776 1.394 . S
C777 C778 1.383 . S
C777 H785 0.929 . S
C778 C777 1.383 . S
C778 C779 1.377 . S
C779 H763 0.930 . S
C779 C778 1.377 . S
C779 C780 1.379 . S
C780 H764 0.931 . S
C780 C774 1.383 . S
C780 C779 1.379 . S
H781 C775 0.959 . S
H782 C775 0.961 . S
H783 C775 0.960 . S
H784 C776 0.930 . S
H785 C777 0.929 . S
C147 C2 0.707 . S
C166 N127 0.718 . S
C183 C21 0.861 . S
C202 N100 0.841 1_655 S
C219 C42 0.936 . S
C238 N113 0.932 . S
C255 C1 1.265 . S
C274 N126 1.293 . S
C310 N101 1.125 . S
C291 C22 1.117 . S
C346 N114 1.036 . S
C327 C41 1.009 . S
C363 C38 1.692 . S
C382 N74 1.710 . S
C399 C59 1.570 . S
C418 N88 1.522 1_655 S
C435 C18 1.868 . S
C454 N62 1.875 . S
C490 N75 1.962 . S
C471 C39 1.979 . S
C526 N87 2.164 . S
C507 C58 2.127 . S
C543 C19 1.791 . S
C562 N61 1.791 . S
C598 N91 1.602 . S
C579 C9 1.557 . S
C615 C29 1.550 . S
C634 N65 1.551 . S
C651 C49 1.531 . S
C670 N78 1.604 . S
C706 N117 1.440 . S
C687 C28 1.405 . S
C742 N130 1.469 . S
C723 C48 1.477 . S
C759 C8 1.476 . S
C778 N104 1.476 . S
