# Generated by pormake.
# Topology pyr, (3,6)-cn, num edge types: 1
# Building blocks:
#     Node 0, Type 0, BuildingBlock: QEWDON_clean_linker_0, # of connection points: 3
#     Node 1, Type 0, BuildingBlock: QEWDON_clean_linker_0, # of connection points: 3
#     Node 2, Type 0, BuildingBlock: QEWDON_clean_linker_0, # of connection points: 3
#     Node 3, Type 0, BuildingBlock: QEWDON_clean_linker_0, # of connection points: 3
#     Node 4, Type 0, BuildingBlock: QEWDON_clean_linker_0, # of connection points: 3
#     Node 5, Type 0, BuildingBlock: QEWDON_clean_linker_0, # of connection points: 3
#     Node 6, Type 0, BuildingBlock: QEWDON_clean_linker_0, # of connection points: 3
#     Node 7, Type 0, BuildingBlock: QEWDON_clean_linker_0, # of connection points: 3
#     Node 8, Type 1, BuildingBlock: MIDCAF_clean_sbu_0, # of connection points: 6
#     Node 9, Type 1, BuildingBlock: MIDCAF_clean_sbu_0, # of connection points: 6
#     Node 10, Type 1, BuildingBlock: MIDCAF_clean_sbu_0, # of connection points: 6
#     Node 11, Type 1, BuildingBlock: MIDCAF_clean_sbu_0, # of connection points: 6
#     Edge 12, Type (0, 1), BuildingBlock: MIFKUJ_clean_linker_0, # of connection points: 2
#     Edge 13, Type (0, 1), BuildingBlock: MIFKUJ_clean_linker_0, # of connection points: 2
#     Edge 14, Type (0, 1), BuildingBlock: MIFKUJ_clean_linker_0, # of connection points: 2
#     Edge 15, Type (0, 1), BuildingBlock: MIFKUJ_clean_linker_0, # of connection points: 2
#     Edge 16, Type (0, 1), BuildingBlock: MIFKUJ_clean_linker_0, # of connection points: 2
#     Edge 17, Type (0, 1), BuildingBlock: MIFKUJ_clean_linker_0, # of connection points: 2
#     Edge 18, Type (0, 1), BuildingBlock: MIFKUJ_clean_linker_0, # of connection points: 2
#     Edge 19, Type (0, 1), BuildingBlock: MIFKUJ_clean_linker_0, # of connection points: 2
#     Edge 20, Type (0, 1), BuildingBlock: MIFKUJ_clean_linker_0, # of connection points: 2
#     Edge 21, Type (0, 1), BuildingBlock: MIFKUJ_clean_linker_0, # of connection points: 2
#     Edge 22, Type (0, 1), BuildingBlock: MIFKUJ_clean_linker_0, # of connection points: 2
#     Edge 23, Type (0, 1), BuildingBlock: MIFKUJ_clean_linker_0, # of connection points: 2
#     Edge 24, Type (0, 1), BuildingBlock: MIFKUJ_clean_linker_0, # of connection points: 2
#     Edge 25, Type (0, 1), BuildingBlock: MIFKUJ_clean_linker_0, # of connection points: 2
#     Edge 26, Type (0, 1), BuildingBlock: MIFKUJ_clean_linker_0, # of connection points: 2
#     Edge 27, Type (0, 1), BuildingBlock: MIFKUJ_clean_linker_0, # of connection points: 2
#     Edge 28, Type (0, 1), BuildingBlock: MIFKUJ_clean_linker_0, # of connection points: 2
#     Edge 29, Type (0, 1), BuildingBlock: MIFKUJ_clean_linker_0, # of connection points: 2
#     Edge 30, Type (0, 1), BuildingBlock: MIFKUJ_clean_linker_0, # of connection points: 2
#     Edge 31, Type (0, 1), BuildingBlock: MIFKUJ_clean_linker_0, # of connection points: 2
#     Edge 32, Type (0, 1), BuildingBlock: MIFKUJ_clean_linker_0, # of connection points: 2
#     Edge 33, Type (0, 1), BuildingBlock: MIFKUJ_clean_linker_0, # of connection points: 2
#     Edge 34, Type (0, 1), BuildingBlock: MIFKUJ_clean_linker_0, # of connection points: 2
#     Edge 35, Type (0, 1), BuildingBlock: MIFKUJ_clean_linker_0, # of connection points: 2
# Relax obj value: 0.142
# Max RMSD: 0.267
# Mean RMSD: 0.193
data_MOF--net-pry--node1-MIDCAF_clean_sbu_0--node2-QEWDON_clean_linker_0--edge1-MIFKUJ_clean_linker_0
_symmetry_space_group_name_H-M    P1
_symmetry_Int_Tables_number       1
_symmetry_cell_setting            triclinic
loop_
_symmetry_equiv_pos_as_xyz
'x, y, z'
_cell_length_a     45.636873
_cell_length_b     46.093655
_cell_length_c     49.161032
_cell_angle_alpha  90.120185
_cell_angle_beta   90.53751
_cell_angle_gamma 100.15491
loop_
_atom_site_label
_atom_site_type_symbol
_atom_site_fract_x
_atom_site_fract_y
_atom_site_fract_z
_atom_type_partial_charge
H0 H 0.27323 0.27291 0.22489 0.0
C1 C 0.25906 0.26307 0.24119 0.0
C2 C 0.2615 0.23481 0.25099 0.0
C3 C 0.23931 0.27959 0.25294 0.0
H4 H 0.24479 0.20174 0.2809 0.0
C5 C 0.24273 0.22295 0.2724 0.0
C6 C 0.22263 0.23913 0.28434 0.0
C7 C 0.22117 0.2675 0.27444 0.0
C8 C 0.24263 0.3115 0.24682 0.0
H9 H 0.20665 0.28063 0.28407 0.0
C10 C 0.22324 0.32328 0.22897 0.0
C11 C 0.22841 0.35388 0.22317 0.0
C12 C 0.26657 0.33041 0.25908 0.0
H13 H 0.28163 0.32178 0.27281 0.0
C14 C 0.27135 0.36051 0.25386 0.0
H15 H 0.20485 0.30874 0.21928 0.0
C16 C 0.25253 0.37217 0.23611 0.0
H17 H 0.25675 0.39575 0.23269 0.0
H18 H 0.28979 0.37491 0.26359 0.0
H19 H 0.30572 0.87517 0.80919 0.0
C20 C 0.31788 0.8602 0.79904 0.0
C21 C 0.34618 0.85638 0.80886 0.0
C22 C 0.30429 0.8436 0.77691 0.0
H23 H 0.38282 0.83318 0.80216 0.0
C24 C 0.36121 0.83651 0.79494 0.0
C25 C 0.3482 0.82023 0.77217 0.0
C26 C 0.31959 0.82389 0.76364 0.0
C27 C 0.2723 0.84269 0.77041 0.0
H28 H 0.30841 0.81039 0.74725 0.0
C29 C 0.26127 0.86716 0.75971 0.0
C30 C 0.23062 0.86474 0.75312 0.0
C31 C 0.25258 0.81612 0.77465 0.0
H32 H 0.26056 0.79712 0.78289 0.0
C33 C 0.22247 0.81368 0.76834 0.0
H34 H 0.27641 0.88771 0.75635 0.0
C35 C 0.21158 0.83764 0.75758 0.0
H36 H 0.18817 0.83466 0.7522 0.0
H37 H 0.20753 0.79301 0.77156 0.0
H38 H 0.7252 0.37917 0.86385 0.0
C39 C 0.72273 0.35898 0.87552 0.0
C40 C 0.74736 0.35161 0.88982 0.0
C41 C 0.69452 0.34101 0.87731 0.0
H42 H 0.7616 0.32038 0.91772 0.0
C43 C 0.74336 0.32563 0.90551 0.0
C44 C 0.71535 0.3075 0.90728 0.0
C45 C 0.6913 0.31511 0.89272 0.0
C46 C 0.66752 0.35017 0.86549 0.0
H47 H 0.66964 0.30104 0.89388 0.0
C48 C 0.66636 0.3593 0.83823 0.0
C49 C 0.63974 0.36613 0.82721 0.0
C50 C 0.64213 0.34889 0.88178 0.0
H51 H 0.64254 0.34242 0.90294 0.0
C52 C 0.61598 0.35602 0.87107 0.0
H53 H 0.68575 0.36023 0.82547 0.0
C54 C 0.61469 0.36446 0.84398 0.0
H55 H 0.59416 0.37023 0.83627 0.0
H56 H 0.59663 0.35503 0.88383 0.0
H57 H 0.81997 0.80688 0.31612 0.0
C58 C 0.80375 0.79203 0.32777 0.0
C59 C 0.80418 0.79377 0.35633 0.0
C60 C 0.7819 0.77165 0.31421 0.0
H61 H 0.78279 0.77614 0.39321 0.0
C62 C 0.78304 0.77445 0.3712 0.0
C63 C 0.76095 0.75432 0.35789 0.0
C64 C 0.76036 0.75312 0.32941 0.0
C65 C 0.78087 0.76994 0.28415 0.0
H66 H 0.74329 0.73751 0.31907 0.0
C67 C 0.80581 0.76498 0.26941 0.0
C68 C 0.80399 0.76088 0.24094 0.0
C69 C 0.75428 0.77175 0.27021 0.0
H70 H 0.73484 0.77563 0.28118 0.0
C71 C 0.7525 0.76845 0.24204 0.0
H72 H 0.82631 0.76364 0.28024 0.0
C73 C 0.777 0.76281 0.2275 0.0
H74 H 0.77442 0.75915 0.20578 0.0
H75 H 0.73185 0.7697 0.23147 0.0
H76 H 0.8706 0.89099 0.93591 0.0
C77 C 0.88471 0.90206 0.92011 0.0
C78 C 0.91356 0.89562 0.91627 0.0
C79 C 0.87338 0.92164 0.90268 0.0
H80 H 0.95286 0.90434 0.8911 0.0
C81 C 0.93104 0.90962 0.89486 0.0
C82 C 0.92014 0.92972 0.87763 0.0
C83 C 0.8914 0.93565 0.88189 0.0
C84 C 0.8413 0.92383 0.90273 0.0
H85 H 0.8823 0.95008 0.86797 0.0
C86 C 0.82755 0.93513 0.92509 0.0
C87 C 0.79697 0.93713 0.92374 0.0
C88 C 0.8243 0.91465 0.87929 0.0
H89 H 0.83436 0.90586 0.86193 0.0
C90 C 0.79424 0.91656 0.87796 0.0
H91 H 0.84049 0.94233 0.94323 0.0
C92 C 0.78066 0.92772 0.89992 0.0
H93 H 0.75732 0.92934 0.89814 0.0
H94 H 0.78141 0.90947 0.85976 0.0
H95 H 0.68532 0.17628 0.48191 0.0
C96 C 0.67487 0.17416 0.46194 0.0
C97 C 0.68797 0.16059 0.44066 0.0
C98 C 0.64757 0.18381 0.45828 0.0
H99 H 0.6825 0.14598 0.39875 0.0
C100 C 0.67303 0.15676 0.41528 0.0
C101 C 0.64534 0.16584 0.41136 0.0
C102 C 0.63296 0.17966 0.43294 0.0
C103 C 0.63261 0.19435 0.48212 0.0
H104 H 0.61142 0.1862 0.43033 0.0
C105 C 0.62534 0.22289 0.48326 0.0
C106 C 0.61104 0.23185 0.50638 0.0
C107 C 0.62556 0.17519 0.50422 0.0
H108 H 0.6309 0.1532 0.50377 0.0
C109 C 0.61123 0.184 0.52691 0.0
H110 H 0.63083 0.23795 0.46642 0.0
C111 C 0.60393 0.21209 0.52799 0.0
H112 H 0.59294 0.21856 0.54589 0.0
H113 H 0.60577 0.16899 0.54375 0.0
H114 H 0.46956 0.67536 0.1656 0.0
C115 C 0.44721 0.66274 0.16381 0.0
C116 C 0.42482 0.67503 0.15073 0.0
C117 C 0.4405 0.63465 0.17564 0.0
H118 H 0.37876 0.66744 0.13792 0.0
C119 C 0.39605 0.6584 0.14851 0.0
C120 C 0.38928 0.6302 0.15987 0.0
C121 C 0.41137 0.61855 0.17395 0.0
C122 C 0.464 0.6222 0.18985 0.0
H123 H 0.40613 0.5968 0.1829 0.0
C124 C 0.46306 0.61842 0.21818 0.0
C125 C 0.48583 0.6072 0.23192 0.0
C126 C 0.48771 0.61453 0.17517 0.0
H127 H 0.48879 0.61743 0.15331 0.0
C128 C 0.51004 0.60281 0.1886 0.0
H129 H 0.44475 0.6245 0.22949 0.0
C130 C 0.50916 0.59914 0.2168 0.0
H131 H 0.5271 0.59064 0.22685 0.0
H132 H 0.52824 0.59682 0.17716 0.0
H133 H 0.14567 0.46846 0.68318 0.0
C134 C 0.13831 0.45629 0.66474 0.0
C135 C 0.15434 0.46265 0.64046 0.0
C136 C 0.11459 0.43231 0.66594 0.0
H137 H 0.15801 0.44938 0.59845 0.0
C138 C 0.14568 0.44519 0.61719 0.0
C139 C 0.12175 0.4216 0.61815 0.0
C140 C 0.10607 0.4156 0.64242 0.0
C141 C 0.10164 0.42162 0.69235 0.0
H142 H 0.08834 0.39658 0.64352 0.0
C143 C 0.08952 0.44021 0.71015 0.0
C144 C 0.07761 0.42952 0.73538 0.0
C145 C 0.10185 0.39228 0.69988 0.0
H146 H 0.11155 0.37773 0.68671 0.0
C147 C 0.09024 0.3816 0.7247 0.0
H148 H 0.08902 0.46269 0.70407 0.0
C149 C 0.07837 0.40002 0.7424 0.0
H150 H 0.07045 0.39118 0.76189 0.0
H151 H 0.09081 0.35904 0.73042 0.0
Zn152 Zn 0.98849 0.09501 0.58536 0.0
Zn153 Zn 0.04447 0.03245 0.53047 0.0
Zn154 Zn 0.01734 0.06414 0.55538 0.0
C155 C 0.05896 0.08541 0.50461 0.0
C156 C 0.9864 0.00773 0.52311 0.0
O157 O 0.02026 0.05078 0.59975 0.0
O158 O 0.99544 0.08039 0.62199 0.0
C159 C 0.03012 0.13459 0.55616 0.0
O160 O 0.04923 0.09313 0.52767 0.0
O161 O 0.05588 0.05836 0.49876 0.0
O162 O 0.01092 0.9988 0.52534 0.0
O163 O 0.98456 0.03415 0.53055 0.0
O164 O 0.0102 0.13388 0.57389 0.0
O165 O 0.03657 0.11055 0.54644 0.0
O166 O 0.96976 0.05693 0.54019 0.0
O167 O 0.94835 0.08339 0.56902 0.0
C168 C 0.94662 0.06714 0.54818 0.0
O169 O 0.04253 0.03978 0.58495 0.0
O170 O 0.07636 0.0284 0.55706 0.0
C171 C 0.0098 0.0594 0.62221 0.0
C172 C 0.06715 0.03019 0.58099 0.0
Zn173 Zn 0.48995 0.07906 0.05926 0.0
Zn174 Zn 0.53669 0.0131 0.13053 0.0
Zn175 Zn 0.51445 0.0456 0.09376 0.0
C176 C 0.58224 0.03363 0.09321 0.0
C177 C 0.49137 0.97621 0.10215 0.0
O178 O 0.49128 0.07615 0.11798 0.0
O179 O 0.47235 0.10233 0.08684 0.0
C180 C 0.55185 0.08836 0.04972 0.0
O181 O 0.56202 0.04737 0.08385 0.0
O182 O 0.57694 0.01702 0.11366 0.0
O183 O 0.50747 0.97666 0.12321 0.0
O184 O 0.49199 0.99954 0.08767 0.0
O185 O 0.52822 0.09651 0.04166 0.0
O186 O 0.551 0.06927 0.06893 0.0
O187 O 0.48243 0.01606 0.06634 0.0
O188 O 0.46345 0.04666 0.03948 0.0
C189 C 0.46527 0.02063 0.04632 0.0
O190 O 0.51011 0.06395 0.13594 0.0
O191 O 0.53198 0.03612 0.16349 0.0
C192 C 0.47585 0.09615 0.11154 0.0
C193 C 0.51909 0.05789 0.15996 0.0
Zn194 Zn 0.5511 0.60019 0.61116 0.0
Zn195 Zn 0.46241 0.53212 0.56161 0.0
Zn196 Zn 0.50718 0.56725 0.58256 0.0
C197 C 0.50273 0.49604 0.57359 0.0
C198 C 0.48756 0.57225 0.52098 0.0
O199 O 0.48804 0.59555 0.61238 0.0
O200 O 0.52644 0.62212 0.63402 0.0
C201 C 0.55589 0.54187 0.62061 0.0
O202 O 0.51561 0.52064 0.58439 0.0
O203 O 0.47802 0.49472 0.56148 0.0
O204 O 0.46411 0.55438 0.52668 0.0
O205 O 0.50834 0.57898 0.53899 0.0
O206 O 0.56775 0.56763 0.6277 0.0
O207 O 0.53364 0.53775 0.60379 0.0
O208 O 0.53376 0.59538 0.55245 0.0
O209 O 0.5711 0.61825 0.57803 0.0
C210 C 0.55888 0.61302 0.55496 0.0
O211 O 0.46462 0.57523 0.60092 0.0
O212 O 0.43101 0.5371 0.58759 0.0
C213 C 0.49868 0.61545 0.63013 0.0
C214 C 0.43791 0.56033 0.60152 0.0
Zn215 Zn 0.07456 0.62437 0.01638 0.0
Zn216 Zn 0.99493 0.55274 0.07064 0.0
Zn217 Zn 0.03369 0.58731 0.04237 0.0
C218 C 0.0488 0.53699 0.08511 0.0
C219 C 0.98126 0.53984 0.01617 0.0
O220 O 0.0222 0.63322 0.04357 0.0
O221 O 0.05937 0.66137 0.02243 0.0
C222 C 0.10459 0.59813 0.05582 0.0
O223 O 0.05795 0.56048 0.07099 0.0
O224 O 0.02121 0.52754 0.08707 0.0
O225 O 0.96912 0.53648 0.03919 0.0
O226 O 0.00686 0.55648 0.01346 0.0
O227 O 0.1097 0.61689 0.03703 0.0
O228 O 0.07783 0.58466 0.06037 0.0
O229 O 0.03051 0.57363 0.99923 0.0
O230 O 0.06609 0.60573 0.9801 0.0
C231 C 0.04535 0.58372 0.97807 0.0
O232 O 0.0065 0.6152 0.06407 0.0
O233 O 0.98327 0.58378 0.09409 0.0
C234 C 0.03453 0.65861 0.03409 0.0
C235 C 0.98991 0.60973 0.08517 0.0
H236 H 0.18894 0.1842 0.29021 0.0
H237 H 0.15979 0.16427 0.32976 0.0
H238 H 0.18691 0.24659 0.37239 0.0
H239 H 0.21592 0.26673 0.33277 0.0
H240 H 0.19161 0.19492 0.40404 0.0
H241 H 0.11989 0.23386 0.34941 0.0
H242 H 0.09235 0.24061 0.30717 0.0
H243 H 0.0581 0.14771 0.30385 0.0
H244 H 0.08581 0.14033 0.34587 0.0
H245 H 0.09114 0.14165 0.51228 0.0
H246 H 0.11675 0.17483 0.47742 0.0
H247 H 0.08611 0.1093 0.41587 0.0
H248 H 0.05966 0.07727 0.45015 0.0
H249 H 0.0826 0.16045 0.39625 0.0
H250 H 0.15632 0.11957 0.44732 0.0
H251 H 0.18473 0.11053 0.48838 0.0
H252 H 0.21698 0.20342 0.49699 0.0
H253 H 0.18862 0.21301 0.45606 0.0
C254 C 0.18868 0.19804 0.30801 0.0
C255 C 0.2046 0.2271 0.30828 0.0
C256 C 0.17196 0.18668 0.33057 0.0
C257 C 0.17104 0.20398 0.35403 0.0
C258 C 0.18723 0.23286 0.35452 0.0
C259 C 0.20362 0.2444 0.33179 0.0
C260 C 0.15309 0.19179 0.37791 0.0
C261 C 0.16769 0.1878 0.40254 0.0
C262 C 0.12197 0.18212 0.37584 0.0
C263 C 0.10512 0.18653 0.35067 0.0
C264 C 0.10668 0.21484 0.33956 0.0
C265 C 0.091 0.21878 0.31568 0.0
C266 C 0.07354 0.1946 0.30281 0.0
C267 C 0.07166 0.16642 0.31383 0.0
C268 C 0.08732 0.16235 0.3377 0.0
C269 C 0.08915 0.13489 0.49124 0.0
C270 C 0.07306 0.10702 0.48407 0.0
C271 C 0.10419 0.15361 0.47131 0.0
C272 C 0.10367 0.14454 0.44387 0.0
C273 C 0.08692 0.117 0.43675 0.0
C274 C 0.0719 0.09855 0.45651 0.0
C275 C 0.12115 0.16266 0.42234 0.0
C276 C 0.10646 0.16785 0.39803 0.0
C277 C 0.15228 0.17295 0.42461 0.0
C278 C 0.16969 0.1671 0.44901 0.0
C279 C 0.16919 0.13811 0.45814 0.0
C280 C 0.18538 0.13286 0.48134 0.0
C281 C 0.20248 0.1564 0.49541 0.0
C282 C 0.20358 0.18522 0.48619 0.0
C283 C 0.18742 0.19057 0.463 0.0
H284 H 0.215 0.1523 0.51337 0.0
H285 H 0.06141 0.1977 0.28432 0.0
H286 H 0.31655 0.87112 0.85421 0.0
H287 H 0.33743 0.8962 0.89556 0.0
H288 H 0.426 0.89955 0.86493 0.0
H289 H 0.40546 0.87628 0.82246 0.0
H290 H 0.40762 0.87629 0.92617 0.0
H291 H 0.41432 0.9576 0.86153 0.0
H292 H 0.39291 0.98621 0.82655 0.0
H293 H 0.32547 1.00183 0.88233 0.0
H294 H 0.34625 0.9729 0.91751 0.0
H295 H 0.48871 0.97513 0.02495 0.0
H296 H 0.46859 0.94354 0.98663 0.0
H297 H 0.38797 0.98042 0.98875 0.0
H298 H 0.40892 0.01306 0.02595 0.0
H299 H 0.40326 0.98194 0.94064 0.0
H300 H 0.3941 0.90462 0.00569 0.0
H301 H 0.40932 0.87327 0.04166 0.0
H302 H 0.47399 0.84665 0.98855 0.0
H303 H 0.45942 0.87835 0.95225 0.0
C304 C 0.34047 0.87765 0.85576 0.0
C305 C 0.35913 0.8717 0.83447 0.0
C306 C 0.35237 0.89166 0.87973 0.0
C307 C 0.38324 0.89959 0.88339 0.0
C308 C 0.40208 0.89337 0.8626 0.0
C309 C 0.3902 0.87989 0.83832 0.0
C310 C 0.39559 0.91526 0.90862 0.0
C311 C 0.40717 0.89951 0.92931 0.0
C312 C 0.39392 0.9452 0.91303 0.0
C313 C 0.38162 0.96282 0.89201 0.0
C314 C 0.39475 0.96689 0.86623 0.0
C315 C 0.38277 0.98321 0.8464 0.0
C316 C 0.35779 0.99575 0.85218 0.0
C317 C 0.34479 0.99207 0.87786 0.0
C318 C 0.35667 0.97573 0.89776 0.0
C319 C 0.4663 0.97569 0.0178 0.0
C320 C 0.45024 0.99629 0.02863 0.0
C321 C 0.45476 0.95766 0.99574 0.0
C322 C 0.42657 0.95936 0.98449 0.0
C323 C 0.40985 0.97872 0.99663 0.0
C324 C 0.42167 0.99718 0.01816 0.0
C325 C 0.41545 0.94308 0.95886 0.0
C326 C 0.40398 0.95873 0.93787 0.0
C327 C 0.41667 0.91284 0.9545 0.0
C328 C 0.42585 0.89408 0.97634 0.0
C329 C 0.41176 0.8923 1.00174 0.0
C330 C 0.42023 0.87437 0.02218 0.0
C331 C 0.4426 0.85788 0.01742 0.0
C332 C 0.45664 0.8594 0.9922 0.0
C333 C 0.44828 0.87735 0.97168 0.0
H334 H 0.44907 0.84392 0.03324 0.0
H335 H 0.34854 0.00839 0.8368 0.0
H336 H 0.59502 0.34832 0.79035 0.0
H337 H 0.58681 0.37154 0.74702 0.0
H338 H 0.67164 0.4294 0.75595 0.0
H339 H 0.67962 0.40667 0.79976 0.0
H340 H 0.62744 0.45937 0.74993 0.0
H341 H 0.65761 0.37833 0.70406 0.0
H342 H 0.65798 0.32626 0.69284 0.0
H343 H 0.56654 0.31515 0.66708 0.0
H344 H 0.56538 0.367 0.67863 0.0
H345 H 0.61312 0.54094 0.63459 0.0
H346 H 0.63215 0.50383 0.66154 0.0
H347 H 0.54483 0.44966 0.66117 0.0
H348 H 0.52558 0.48691 0.63381 0.0
H349 H 0.59296 0.41669 0.66 0.0
H350 H 0.56057 0.49389 0.71157 0.0
H351 H 0.55834 0.54551 0.72321 0.0
H352 H 0.65252 0.56246 0.73905 0.0
H353 H 0.65537 0.51101 0.72705 0.0
C354 C 0.61217 0.36566 0.78283 0.0
C355 C 0.63777 0.37601 0.79863 0.0
C356 C 0.60759 0.37869 0.7579 0.0
C357 C 0.62861 0.40221 0.74819 0.0
C358 C 0.65514 0.41124 0.76305 0.0
C359 C 0.65975 0.39817 0.78802 0.0
C360 C 0.62085 0.42016 0.72505 0.0
C361 C 0.6206 0.45007 0.73009 0.0
C362 C 0.61072 0.40781 0.69947 0.0
C363 C 0.61131 0.37653 0.69258 0.0
C364 C 0.63745 0.36472 0.69632 0.0
C365 C 0.63781 0.33523 0.68988 0.0
C366 C 0.61222 0.31735 0.6795 0.0
C367 C 0.58628 0.32898 0.6753 0.0
C368 C 0.58578 0.35843 0.68178 0.0
C369 C 0.5981 0.52087 0.63977 0.0
C370 C 0.56782 0.51692 0.63245 0.0
C371 C 0.60901 0.49964 0.65505 0.0
C372 C 0.58978 0.47428 0.66369 0.0
C373 C 0.56 0.46913 0.65468 0.0
C374 C 0.54905 0.49041 0.63914 0.0
C375 C 0.59991 0.45564 0.68508 0.0
C376 C 0.60029 0.4258 0.67979 0.0
C377 C 0.60991 0.46782 0.71066 0.0
C378 C 0.60823 0.4987 0.71812 0.0
C379 C 0.58084 0.50869 0.71732 0.0
C380 C 0.57946 0.53791 0.72401 0.0
C381 C 0.60529 0.55728 0.73179 0.0
C382 C 0.63254 0.54744 0.73297 0.0
C383 C 0.63405 0.51826 0.72623 0.0
H384 H 0.60418 0.57989 0.73697 0.0
H385 H 0.61255 0.29453 0.6745 0.0
H386 H 0.84343 0.72538 0.25713 0.0
H387 H 0.88134 0.70808 0.22976 0.0
H388 H 0.85879 0.75885 0.16165 0.0
H389 H 0.82186 0.77759 0.18918 0.0
H390 H 0.85606 0.69557 0.15252 0.0
H391 H 0.9217 0.78124 0.18784 0.0
H392 H 0.94584 0.81424 0.22418 0.0
H393 H 0.98377 0.74335 0.25822 0.0
H394 H 0.95949 0.7098 0.2223 0.0
H395 H 0.95846 0.6494 0.06399 0.0
H396 H 0.93355 0.68391 0.08895 0.0
H397 H 0.96645 0.65375 0.16452 0.0
H398 H 0.99275 0.62062 0.1392 0.0
H399 H 0.96526 0.7108 0.16826 0.0
H400 H 0.89871 0.62423 0.13778 0.0
H401 H 0.87392 0.58826 0.10402 0.0
H402 H 0.83562 0.65613 0.06487 0.0
H403 H 0.86039 0.69254 0.0983 0.0
C404 C 0.84704 0.73364 0.23662 0.0
C405 C 0.82929 0.75277 0.22537 0.0
C406 C 0.86865 0.72355 0.22096 0.0
C407 C 0.87273 0.73216 0.19372 0.0
C408 C 0.85582 0.7519 0.18264 0.0
C409 C 0.83456 0.76238 0.19838 0.0
C410 C 0.89284 0.71861 0.1762 0.0
C411 C 0.88001 0.69926 0.1556 0.0
C412 C 0.92388 0.72277 0.18094 0.0
C413 C 0.93854 0.74294 0.20252 0.0
C414 C 0.93496 0.77261 0.20322 0.0
C415 C 0.94872 0.79144 0.22371 0.0
C416 C 0.96627 0.78089 0.24354 0.0
C417 C 0.97015 0.7515 0.24287 0.0
C418 C 0.95642 0.73257 0.22243 0.0
C419 C 0.96171 0.65148 0.08569 0.0
C420 C 0.97822 0.63319 0.09957 0.0
C421 C 0.94696 0.67069 0.10008 0.0
C422 C 0.9479 0.67126 0.12869 0.0
C423 C 0.96547 0.65381 0.14249 0.0
C424 C 0.98036 0.63482 0.12805 0.0
C425 C 0.92853 0.68775 0.14441 0.0
C426 C 0.94137 0.70738 0.16487 0.0
C427 C 0.89731 0.68331 0.14 0.0
C428 C 0.88193 0.66127 0.1202 0.0
C429 C 0.88523 0.63155 0.12183 0.0
C430 C 0.87112 0.61105 0.10279 0.0
C431 C 0.85335 0.61993 0.08221 0.0
C432 C 0.84951 0.6493 0.08073 0.0
C433 C 0.8636 0.66989 0.09971 0.0
H434 H 0.84244 0.60403 0.06748 0.0
H435 H 0.97691 0.7955 0.25938 0.0
H436 H 0.31769 0.25807 0.23253 0.0
H437 H 0.35481 0.23214 0.21319 0.0
H438 H 0.29745 0.14893 0.227 0.0
H439 H 0.25907 0.17463 0.24487 0.0
H440 H 0.37192 0.16414 0.24304 0.0
H441 H 0.29267 0.15277 0.1726 0.0
H442 H 0.25685 0.17323 0.14368 0.0
H443 H 0.328 0.23718 0.1117 0.0
H444 H 0.36415 0.21734 0.1408 0.0
H445 H 0.45055 0.0739 0.15949 0.0
H446 H 0.41597 0.09578 0.18774 0.0
H447 H 0.43151 0.17422 0.13836 0.0
H448 H 0.46483 0.15198 0.10967 0.0
H449 H 0.37596 0.15871 0.1424 0.0
H450 H 0.45599 0.17039 0.20714 0.0
H451 H 0.49462 0.15464 0.23611 0.0
H452 H 0.4275 0.09618 0.27951 0.0
H453 H 0.38843 0.11122 0.25045 0.0
C454 C 0.31248 0.23428 0.23113 0.0
C455 C 0.28484 0.21867 0.24004 0.0
C456 C 0.33409 0.21946 0.22042 0.0
C457 C 0.32899 0.18862 0.21879 0.0
C458 C 0.30195 0.17276 0.2283 0.0
C459 C 0.28002 0.18759 0.23859 0.0
C460 C 0.35116 0.17339 0.20532 0.0
C461 C 0.37262 0.16241 0.22106 0.0
C462 C 0.35265 0.17207 0.17669 0.0
C463 C 0.331 0.18383 0.15909 0.0
C464 C 0.3006 0.17139 0.15961 0.0
C465 C 0.28026 0.18282 0.14315 0.0
C466 C 0.29013 0.20655 0.12593 0.0
C467 C 0.32038 0.21884 0.12508 0.0
C468 C 0.34079 0.2075 0.14154 0.0
C469 C 0.44707 0.09608 0.15513 0.0
C470 C 0.4603 0.11117 0.13228 0.0
C471 C 0.42724 0.10861 0.17128 0.0
C472 C 0.42081 0.13673 0.1652 0.0
C473 C 0.43561 0.1524 0.14337 0.0
C474 C 0.45488 0.13973 0.12705 0.0
C475 C 0.39722 0.14921 0.17997 0.0
C476 C 0.3754 0.15994 0.16443 0.0
C477 C 0.39588 0.15067 0.20877 0.0
C478 C 0.41928 0.14173 0.22643 0.0
C479 C 0.44946 0.15401 0.22272 0.0
C480 C 0.47144 0.14523 0.23918 0.0
C481 C 0.46353 0.12441 0.25963 0.0
C482 C 0.4336 0.11231 0.26365 0.0
C483 C 0.41151 0.12096 0.2472 0.0
H484 H 0.48058 0.1177 0.2724 0.0
H485 H 0.27435 0.21537 0.11319 0.0
H486 H 0.25429 0.90308 0.71273 0.0
H487 H 0.22888 0.93734 0.6872 0.0
H488 H 0.15228 0.91529 0.73865 0.0
H489 H 0.1777 0.88194 0.76468 0.0
H490 H 0.1394 0.90741 0.68249 0.0
H491 H 0.19116 0.98098 0.74394 0.0
H492 H 0.23533 0.00938 0.76699 0.0
H493 H 0.27149 0.04004 0.6898 0.0
H494 H 0.2277 0.01146 0.66626 0.0
H495 H 0.04727 0.99834 0.62608 0.0
H496 H 0.07677 0.97721 0.66014 0.0
H497 H 0.1569 0.01423 0.61756 0.0
H498 H 0.12734 0.03724 0.58502 0.0
H499 H 0.16915 0.01523 0.66946 0.0
H500 H 0.12014 0.94261 0.60727 0.0
H501 H 0.07766 0.91382 0.58222 0.0
H502 H 0.03907 0.87959 0.65745 0.0
H503 H 0.08117 0.90839 0.68295 0.0
C504 C 0.23239 0.90615 0.71909 0.0
C505 C 0.21791 0.88937 0.74054 0.0
C506 C 0.21781 0.92562 0.70437 0.0
C507 C 0.18852 0.9286 0.71083 0.0
C508 C 0.17472 0.9131 0.73311 0.0
C509 C 0.18931 0.89396 0.74792 0.0
C510 C 0.17126 0.94601 0.69331 0.0
C511 C 0.14568 0.93105 0.67992 0.0
C512 C 0.17999 0.97667 0.68923 0.0
C513 C 0.20633 0.9938 0.70333 0.0
C514 C 0.20867 0.99353 0.73187 0.0
C515 C 0.2336 0.00972 0.74503 0.0
C516 C 0.25624 0.02643 0.72987 0.0
C517 C 0.25396 0.02705 0.70152 0.0
C518 C 0.22908 0.01087 0.68826 0.0
C519 C 0.07114 0.00334 0.62502 0.0
C520 C 0.08486 0.0202 0.60347 0.0
C521 C 0.08809 0.99058 0.64401 0.0
C522 C 0.11918 0.99364 0.64124 0.0
C523 C 0.13304 0.01146 0.62026 0.0
C524 C 0.11608 0.02451 0.60157 0.0
C525 C 0.13699 0.97668 0.65881 0.0
C526 C 0.16279 0.9916 0.67203 0.0
C527 C 0.12878 0.9458 0.66238 0.0
C528 C 0.1036 0.92807 0.64708 0.0
C529 C 0.10248 0.92913 0.61849 0.0
C530 C 0.07849 0.91276 0.6042 0.0
C531 C 0.05561 0.89499 0.61824 0.0
C532 C 0.05675 0.89345 0.6466 0.0
C533 C 0.08068 0.9098 0.66099 0.0
H534 H 0.03705 0.88234 0.60714 0.0
H535 H 0.27552 0.03896 0.74009 0.0
H536 H 0.75723 0.41205 0.89325 0.0
H537 H 0.80427 0.44483 0.90304 0.0
H538 H 0.85035 0.37089 0.90047 0.0
H539 H 0.80352 0.33799 0.88977 0.0
H540 H 0.85747 0.40106 0.94905 0.0
H541 H 0.86742 0.4232 0.85495 0.0
H542 H 0.85324 0.43805 0.80925 0.0
H543 H 0.84233 0.52251 0.84046 0.0
H544 H 0.85613 0.50806 0.88646 0.0
H545 H 0.98989 0.48782 0.99491 0.0
H546 H 0.95742 0.4568 0.96224 0.0
H547 H 0.90295 0.52406 0.9548 0.0
H548 H 0.93613 0.55544 0.98676 0.0
H549 H 0.905 0.49496 0.90654 0.0
H550 H 0.88651 0.46972 1.00104 0.0
H551 H 0.90036 0.45559 0.04714 0.0
H552 H 0.92553 0.3769 0.01507 0.0
H553 H 0.91221 0.3908 0.9687 0.0
C554 C 0.77746 0.40282 0.89378 0.0
C555 C 0.77646 0.37224 0.891 0.0
C556 C 0.80439 0.42165 0.89945 0.0
C557 C 0.83081 0.4103 0.90254 0.0
C558 C 0.83019 0.3801 0.89824 0.0
C559 C 0.80336 0.3613 0.89231 0.0
C560 C 0.85791 0.42907 0.91399 0.0
C561 C 0.86828 0.42124 0.93941 0.0
C562 C 0.87148 0.4558 0.90178 0.0
C563 C 0.86255 0.46441 0.87425 0.0
C564 C 0.86164 0.44481 0.85217 0.0
C565 C 0.85377 0.45319 0.82617 0.0
C566 C 0.84681 0.48117 0.82197 0.0
C567 C 0.84772 0.50083 0.84375 0.0
C568 C 0.85562 0.49257 0.86979 0.0
C569 C 0.97156 0.49628 0.9855 0.0
C570 C 0.96558 0.52402 0.99287 0.0
C571 C 0.95294 0.47855 0.96701 0.0
C572 C 0.9275 0.48794 0.95637 0.0
C573 C 0.92248 0.51639 0.96266 0.0
C574 C 0.94134 0.53426 0.98092 0.0
C575 C 0.90424 0.46696 0.94162 0.0
C576 C 0.89446 0.47448 0.91582 0.0
C577 C 0.8909 0.43995 0.95353 0.0
C578 C 0.8987 0.43146 0.9814 0.0
C579 C 0.8952 0.44951 0.00381 0.0
C580 C 0.90292 0.44153 0.02998 0.0
C581 C 0.9139 0.41541 0.03402 0.0
C582 C 0.91709 0.39716 0.0119 0.0
C583 C 0.90945 0.40507 0.98568 0.0
H584 H 0.91987 0.40926 0.0543 0.0
H585 H 0.84076 0.48764 0.80181 0.0
H586 H 0.70097 0.74996 0.35232 0.0
H587 H 0.66233 0.72314 0.38184 0.0
H588 H 0.72968 0.69047 0.42897 0.0
H589 H 0.76846 0.71778 0.39987 0.0
H590 H 0.67428 0.64709 0.41424 0.0
H591 H 0.70955 0.73954 0.46023 0.0
H592 H 0.72471 0.79357 0.46169 0.0
H593 H 0.6381 0.80394 0.43272 0.0
H594 H 0.62263 0.7499 0.43078 0.0
H595 H 0.61722 0.61482 0.54603 0.0
H596 H 0.64648 0.63622 0.50729 0.0
H597 H 0.56783 0.66064 0.47148 0.0
H598 H 0.53831 0.6393 0.51043 0.0
H599 H 0.62404 0.70761 0.47623 0.0
H600 H 0.58809 0.61111 0.43982 0.0
H601 H 0.57652 0.5567 0.44194 0.0
H602 H 0.66912 0.55387 0.45514 0.0
H603 H 0.68098 0.6082 0.45355 0.0
C604 C 0.70741 0.73668 0.36874 0.0
C605 C 0.73757 0.73584 0.37392 0.0
C606 C 0.68542 0.72149 0.38556 0.0
C607 C 0.69328 0.70489 0.40746 0.0
C608 C 0.72328 0.70309 0.41204 0.0
C609 C 0.74532 0.71873 0.39555 0.0
C610 C 0.67039 0.69103 0.42669 0.0
C611 C 0.66326 0.66024 0.4278 0.0
C612 C 0.65596 0.7083 0.44412 0.0
C613 C 0.66493 0.74074 0.44534 0.0
C614 C 0.6938 0.75337 0.45407 0.0
C615 C 0.70246 0.78399 0.45498 0.0
C616 C 0.6824 0.8022 0.44728 0.0
C617 C 0.65361 0.78981 0.43871 0.0
C618 C 0.64485 0.75917 0.43777 0.0
C619 C 0.60617 0.62475 0.52982 0.0
C620 C 0.57554 0.62529 0.53096 0.0
C621 C 0.62286 0.63684 0.50772 0.0
C622 C 0.60928 0.65001 0.48653 0.0
C623 C 0.57868 0.65071 0.48765 0.0
C624 C 0.56183 0.6383 0.50972 0.0
C625 C 0.62773 0.66354 0.46377 0.0
C626 C 0.63441 0.69438 0.46221 0.0
C627 C 0.64208 0.64626 0.4462 0.0
C628 C 0.63527 0.61362 0.44681 0.0
C629 C 0.60583 0.59878 0.44341 0.0
C630 C 0.59927 0.56802 0.44447 0.0
C631 C 0.62207 0.55185 0.44874 0.0
C632 C 0.65148 0.56642 0.45186 0.0
C633 C 0.65812 0.5972 0.45085 0.0
H634 H 0.61696 0.52803 0.44957 0.0
H635 H 0.68916 0.82592 0.44798 0.0
H636 H 0.16706 0.34527 0.21948 0.0
H637 H 0.13683 0.3746 0.19303 0.0
H638 H 0.21657 0.42359 0.15772 0.0
H639 H 0.24662 0.39432 0.18364 0.0
H640 H 0.18251 0.45975 0.18008 0.0
H641 H 0.16738 0.37617 0.11953 0.0
H642 H 0.15251 0.32372 0.10718 0.0
H643 H 0.06356 0.32519 0.13413 0.0
H644 H 0.07801 0.37756 0.147 0.0
H645 H 0.10731 0.53341 0.07299 0.0
H646 H 0.13958 0.50341 0.09602 0.0
H647 H 0.06738 0.46797 0.14887 0.0
H648 H 0.03621 0.49971 0.12784 0.0
H649 H 0.09804 0.42529 0.11712 0.0
H650 H 0.11113 0.50713 0.17723 0.0
H651 H 0.1249 0.5572 0.19596 0.0
H652 H 0.21647 0.5574 0.17698 0.0
H653 H 0.20304 0.50811 0.15618 0.0
C654 C 0.17804 0.36179 0.20556 0.0
C655 C 0.2093 0.36767 0.20397 0.0
C656 C 0.16075 0.37863 0.1905 0.0
C657 C 0.17441 0.40154 0.17348 0.0
C658 C 0.20547 0.40631 0.17086 0.0
C659 C 0.22264 0.38952 0.18575 0.0
C660 C 0.1569 0.42205 0.15993 0.0
C661 C 0.16444 0.45232 0.16582 0.0
C662 C 0.13257 0.41221 0.14217 0.0
C663 C 0.12387 0.38072 0.13448 0.0
C664 C 0.14472 0.36524 0.12305 0.0
C665 C 0.13635 0.33554 0.11591 0.0
C666 C 0.10713 0.32111 0.11993 0.0
C667 C 0.0862 0.33638 0.13106 0.0
C668 C 0.09446 0.36608 0.13826 0.0
C669 C 0.09885 0.5204 0.09037 0.0
C670 C 0.06953 0.52002 0.09916 0.0
C671 C 0.11711 0.50278 0.1032 0.0
C672 C 0.10594 0.48357 0.12434 0.0
C673 C 0.07655 0.48272 0.13275 0.0
C674 C 0.05875 0.50095 0.12061 0.0
C675 C 0.12407 0.46311 0.13689 0.0
C676 C 0.11649 0.43284 0.13095 0.0
C677 C 0.1482 0.47295 0.15489 0.0
C678 C 0.15586 0.50404 0.16439 0.0
C679 C 0.13402 0.51822 0.17594 0.0
C680 C 0.14182 0.54647 0.18708 0.0
C681 C 0.17151 0.56058 0.18741 0.0
C682 C 0.19343 0.54661 0.17632 0.0
C683 C 0.18568 0.51861 0.16462 0.0
H684 H 0.17754 0.58223 0.19649 0.0
H685 H 0.10069 0.29812 0.11438 0.0
H686 H 0.67031 0.29364 0.94327 0.0
H687 H 0.65928 0.25034 0.97205 0.0
H688 H 0.73797 0.22034 0.94347 0.0
H689 H 0.74882 0.26379 0.91379 0.0
H690 H 0.69101 0.17655 0.94228 0.0
H691 H 0.73593 0.2427 0.0093 0.0
H692 H 0.74791 0.28943 0.03485 0.0
H693 H 0.65719 0.28003 0.06086 0.0
H694 H 0.64451 0.23348 0.03514 0.0
H695 H 0.60772 0.10002 0.07282 0.0
H696 H 0.65299 0.12792 0.05236 0.0
H697 H 0.6044 0.13479 0.97759 0.0
H698 H 0.55969 0.10682 0.99768 0.0
H699 H 0.65795 0.18322 0.03756 0.0
H700 H 0.64716 0.14334 0.92356 0.0
H701 H 0.63801 0.0965 0.8981 0.0
H702 H 0.66536 0.05125 0.96739 0.0
H703 H 0.67541 0.09798 0.9933 0.0
C704 C 0.68532 0.27787 0.94306 0.0
C705 C 0.71025 0.28193 0.92604 0.0
C706 C 0.67921 0.25328 0.95983 0.0
C707 C 0.69803 0.23227 0.96026 0.0
C708 C 0.72328 0.2364 0.94361 0.0
C709 C 0.72949 0.26121 0.92676 0.0
C710 C 0.6895 0.20514 0.97669 0.0
C711 C 0.68416 0.17781 0.96325 0.0
C712 C 0.6818 0.20664 0.00441 0.0
C713 C 0.68928 0.23452 0.02025 0.0
C714 C 0.71849 0.25064 0.02037 0.0
C715 C 0.72541 0.27711 0.03489 0.0
C716 C 0.70333 0.28768 0.04947 0.0
C717 C 0.67429 0.27178 0.04959 0.0
C718 C 0.66724 0.2453 0.0351 0.0
C719 C 0.60705 0.10681 0.05178 0.0
C720 C 0.58023 0.10139 0.03684 0.0
C721 C 0.63287 0.12275 0.04013 0.0
C722 C 0.63223 0.13322 0.01332 0.0
C723 C 0.60574 0.12646 0.99807 0.0
C724 C 0.58004 0.11078 0.0097 0.0
C725 C 0.65715 0.15509 1.00241 0.0
C726 C 0.66565 0.18155 0.01691 0.0
C727 C 0.6681 0.15261 0.97579 0.0
C728 C 0.66205 0.1243 0.96042 0.0
C729 C 0.65152 0.1235 0.93338 0.0
C730 C 0.64615 0.09694 0.91888 0.0
C731 C 0.65121 0.07096 0.93116 0.0
C732 C 0.66157 0.07146 0.958 0.0
C733 C 0.66706 0.09797 0.97261 0.0
H734 H 0.64706 0.05042 0.9199 0.0
H735 H 0.70873 0.30819 0.06069 0.0
H736 H 0.83928 0.78739 0.40029 0.0
H737 H 0.86762 0.82652 0.42849 0.0
H738 H 0.84289 0.89196 0.37437 0.0
H739 H 0.81506 0.85274 0.34574 0.0
H740 H 0.89847 0.90858 0.39121 0.0
H741 H 0.80576 0.87467 0.43418 0.0
H742 H 0.76507 0.83802 0.45277 0.0
H743 H 0.8252 0.81184 0.51181 0.0
H744 H 0.8664 0.84812 0.49331 0.0
H745 H 0.94563 0.0226 0.4873 0.0
H746 H 0.90957 0.98888 0.45969 0.0
H747 H 0.93641 0.91474 0.50026 0.0
H748 H 0.97194 0.94844 0.52814 0.0
H749 H 0.87521 0.90636 0.48973 0.0
H750 H 0.96858 0.93852 0.44249 0.0
H751 H 0.00803 0.97643 0.42361 0.0
H752 H 0.94369 0.00779 0.37233 0.0
H753 H 0.90377 0.9703 0.39121 0.0
C754 C 0.84026 0.81013 0.39425 0.0
C755 C 0.82489 0.81709 0.37096 0.0
C756 C 0.85627 0.83246 0.41043 0.0
C757 C 0.85672 0.8622 0.40393 0.0
C758 C 0.84268 0.86918 0.37988 0.0
C759 C 0.82691 0.84678 0.36348 0.0
C760 C 0.87104 0.88587 0.42273 0.0
C761 C 0.893 0.90834 0.41265 0.0
C762 C 0.86399 0.88558 0.45076 0.0
C763 C 0.83922 0.86396 0.46221 0.0
C764 C 0.81035 0.86097 0.45102 0.0
C765 C 0.78719 0.84026 0.46155 0.0
C766 C 0.79255 0.82254 0.48342 0.0
C767 C 0.82108 0.82557 0.49485 0.0
C768 C 0.84435 0.84623 0.48437 0.0
C769 C 0.94287 0.99922 0.49106 0.0
C770 C 0.96121 0.98813 0.51002 0.0
C771 C 0.92262 0.97994 0.47505 0.0
C772 C 0.92057 0.94932 0.47778 0.0
C773 C 0.93763 0.93829 0.49786 0.0
C774 C 0.95795 0.95753 0.51369 0.0
C775 C 0.90289 0.92862 0.45825 0.0
C776 C 0.88032 0.90672 0.46821 0.0
C777 C 0.90912 0.92963 0.43008 0.0
C778 C 0.93317 0.95184 0.41845 0.0
C779 C 0.96283 0.95363 0.42731 0.0
C780 C 0.98527 0.97502 0.4166 0.0
C781 C 0.97836 0.99456 0.39684 0.0
C782 C 0.949 0.99268 0.38767 0.0
C783 C 0.92647 0.97136 0.39836 0.0
H784 H 0.99576 0.01111 0.38858 0.0
H785 H 0.77459 0.8065 0.49154 0.0
H786 H 0.34747 0.80682 0.71753 0.0
H787 H 0.36983 0.76911 0.69472 0.0
H788 H 0.40692 0.74647 0.77108 0.0
H789 H 0.38356 0.78328 0.79441 0.0
H790 H 0.44798 0.75349 0.72877 0.0
H791 H 0.34944 0.70149 0.74528 0.0
H792 H 0.29458 0.69191 0.74401 0.0
H793 H 0.29553 0.69224 0.65668 0.0
H794 H 0.35043 0.70234 0.65742 0.0
H795 H 0.50127 0.62787 0.68417 0.0
H796 H 0.47318 0.65976 0.70906 0.0
H797 H 0.42522 0.67333 0.63542 0.0
H798 H 0.45303 0.64077 0.6107 0.0
H799 H 0.38897 0.67074 0.67647 0.0
H800 H 0.48655 0.72435 0.65941 0.0
H801 H 0.54145 0.73346 0.6597 0.0
H802 H 0.54232 0.73041 0.74699 0.0
H803 H 0.48739 0.72088 0.74721 0.0
C804 C 0.36002 0.79362 0.72967 0.0
C805 C 0.36346 0.79822 0.75799 0.0
C806 C 0.37288 0.77206 0.7165 0.0
C807 C 0.38981 0.7547 0.7312 0.0
C808 C 0.3939 0.75957 0.7593 0.0
C809 C 0.38071 0.78089 0.77259 0.0
C810 C 0.4039 0.73207 0.71708 0.0
C811 C 0.43503 0.7351 0.71773 0.0
C812 C 0.3871 0.70856 0.70192 0.0
C813 C 0.35408 0.70313 0.70142 0.0
C814 C 0.33797 0.69993 0.7258 0.0
C815 C 0.30685 0.69431 0.72518 0.0
C816 C 0.29157 0.69159 0.70028 0.0
C817 C 0.30739 0.69444 0.67595 0.0
C818 C 0.33851 0.70012 0.67647 0.0
C819 C 0.48437 0.63731 0.67345 0.0
C820 C 0.479 0.63162 0.64561 0.0
C821 C 0.46847 0.65573 0.68761 0.0
C822 C 0.44751 0.66964 0.67404 0.0
C823 C 0.44129 0.663 0.6464 0.0
C824 C 0.45696 0.6442 0.63231 0.0
C825 C 0.43306 0.69192 0.68842 0.0
C826 C 0.40192 0.689 0.68765 0.0
C827 C 0.44983 0.71567 0.70336 0.0
C828 C 0.48286 0.72163 0.70331 0.0
C829 C 0.49845 0.72544 0.67866 0.0
C830 C 0.52957 0.7307 0.67874 0.0
C831 C 0.54536 0.73244 0.70335 0.0
C832 C 0.53005 0.72901 0.72794 0.0
C833 C 0.49893 0.72371 0.72798 0.0
H834 H 0.56945 0.7365 0.70336 0.0
H835 H 0.26748 0.68719 0.69985 0.0
H836 H 0.93031 0.98738 0.86187 0.0
H837 H 0.95261 0.00807 0.81955 0.0
H838 H 0.96999 0.92248 0.79624 0.0
H839 H 0.94827 0.90183 0.83899 0.0
H840 H 0.01452 0.96401 0.7801 0.0
H841 H 0.90835 0.9488 0.77217 0.0
H842 H 0.85747 0.95314 0.78593 0.0
H843 H 0.87927 0.04732 0.77909 0.0
H844 H 0.93045 0.04358 0.76572 0.0
H845 H 0.99583 1.00028 0.63213 0.0
H846 H 0.98959 0.9762 0.67684 0.0
H847 H 0.01645 0.06044 0.71613 0.0
H848 H 0.02429 0.08424 0.67162 0.0
H849 H 0.95129 0.01742 0.72317 0.0
H850 H 0.05871 0.03082 0.72995 0.0
H851 H 0.1097 0.02453 0.71881 0.0
H852 H 0.08493 0.93092 0.72813 0.0
H853 H 0.03329 0.93643 0.73793 0.0
C854 C 0.93922 0.97306 0.84787 0.0
C855 C 0.93733 0.94293 0.85369 0.0
C856 C 0.95186 0.98487 0.8236 0.0
C857 C 0.96238 0.96673 0.80429 0.0
C858 C 0.96193 0.93694 0.81069 0.0
C859 C 0.94957 0.92515 0.83517 0.0
C860 C 0.97231 0.97857 0.77698 0.0
C861 C 1.00054 0.97537 0.7675 0.0
C862 C 0.95421 0.99361 0.7605 0.0
C863 C 0.92331 0.99591 0.76817 0.0
C864 C 0.90235 0.97045 0.77376 0.0
C865 C 0.87345 0.9728 0.78148 0.0
C866 C 0.86516 1.00049 0.78344 0.0
C867 C 0.88573 0.02589 0.7776 0.0
C868 C 0.91468 0.02366 0.76993 0.0
C869 C 1.00194 0.01335 0.65031 0.0
C870 C 0.01175 0.04393 0.64838 0.0
C871 C 0.99809 0.99964 0.67583 0.0
C872 C 1.00312 0.01646 0.69981 0.0
C873 C 0.01312 0.04696 0.6979 0.0
C874 C 0.0176 0.06051 0.67247 0.0
C875 C 0.99361 0.00321 0.72652 0.0
C876 C 0.96524 0.00598 0.73574 0.0
C877 C 0.01149 0.98754 0.7425 0.0
C878 C 0.04186 0.98403 0.73416 0.0
C879 C 0.06378 0.0088 0.72874 0.0
C880 C 0.09288 0.00538 0.72279 0.0
C881 C 0.10048 0.97734 0.72268 0.0
C882 C 0.07891 0.9526 0.72799 0.0
C883 C 0.04969 0.95585 0.73362 0.0
H884 H 0.12316 0.97481 0.71886 0.0
H885 H 0.84278 0.00227 0.78943 0.0
H886 H 0.66404 0.17856 0.35915 0.0
H887 H 0.63582 0.16564 0.31661 0.0
H888 H 0.56036 0.12348 0.36268 0.0
H889 H 0.58812 0.13699 0.40517 0.0
H890 H 0.58209 0.08884 0.31744 0.0
H891 H 0.55083 0.18127 0.33716 0.0
H892 H 0.5592 0.2344 0.34781 0.0
H893 H 0.60671 0.2532 0.27311 0.0
H894 H 0.59902 0.20009 0.26222 0.0
H895 H 0.48941 0.04565 0.20731 0.0
H896 H 0.50329 0.07008 0.25098 0.0
H897 H 0.56521 0.13702 0.21005 0.0
H898 H 0.54992 0.11343 0.16622 0.0
H899 H 0.54854 0.16034 0.25411 0.0
H900 H 0.5853 0.07149 0.235 0.0
H901 H 0.58182 0.01903 0.22292 0.0
H902 H 0.53061 0.99396 0.29462 0.0
H903 H 0.53341 0.04634 0.30691 0.0
C904 C 0.64136 0.16673 0.36015 0.0
C905 C 0.62824 0.15889 0.38547 0.0
C906 C 0.62524 0.15946 0.33588 0.0
C907 C 0.59593 0.14372 0.33649 0.0
C908 C 0.58287 0.13575 0.36174 0.0
C909 C 0.59872 0.14356 0.38598 0.0
C910 C 0.57937 0.13436 0.31078 0.0
C911 C 0.57427 0.10439 0.30381 0.0
C912 C 0.57007 0.15477 0.29257 0.0
C913 C 0.57463 0.18668 0.29903 0.0
C914 C 0.56333 0.1967 0.32314 0.0
C915 C 0.56789 0.22682 0.32919 0.0
C916 C 0.58355 0.24716 0.31119 0.0
C917 C 0.59462 0.23742 0.28706 0.0
C918 C 0.59014 0.20731 0.28092 0.0
C919 C 0.50486 0.0664 0.20757 0.0
C920 C 0.51848 0.07778 0.18344 0.0
C921 C 0.5132 0.08012 0.23258 0.0
C922 C 0.53626 0.10479 0.23406 0.0
C923 C 0.54764 0.11787 0.20963 0.0
C924 C 0.53872 0.10451 0.1845 0.0
C925 C 0.55088 0.11459 0.26074 0.0
C926 C 0.55593 0.14466 0.26784 0.0
C927 C 0.56081 0.09433 0.27889 0.0
C928 C 0.5593 0.06282 0.27171 0.0
C929 C 0.57315 0.05479 0.2481 0.0
C930 C 0.57131 0.02507 0.24122 0.0
C931 C 0.55594 0.00318 0.25796 0.0
C932 C 0.54246 0.01095 0.28165 0.0
C933 C 0.54417 0.04064 0.28859 0.0
H934 H 0.55454 0.98018 0.25261 0.0
H935 H 0.58706 0.27047 0.3159 0.0
H936 H 0.49715 0.56116 0.26305 0.0
H937 H 0.49866 0.55831 0.31281 0.0
H938 H 0.47621 0.64518 0.31843 0.0
H939 H 0.47498 0.64829 0.26875 0.0
H940 H 0.522 0.63875 0.35272 0.0
H941 H 0.42424 0.5871 0.33008 0.0
H942 H 0.38707 0.54969 0.30685 0.0
H943 H 0.4259 0.48072 0.34348 0.0
H944 H 0.4636 0.51777 0.36663 0.0
H945 H 0.44419 0.58882 0.49009 0.0
H946 H 0.44553 0.5997 0.44144 0.0
H947 H 0.53788 0.5911 0.43939 0.0
H948 H 0.53677 0.58004 0.48838 0.0
H949 H 0.45717 0.55973 0.40337 0.0
H950 H 0.56937 0.63893 0.38651 0.0
H951 H 0.60049 0.68332 0.4063 0.0
H952 H 0.52465 0.70399 0.44833 0.0
H953 H 0.49308 0.65989 0.42862 0.0
C954 C 0.49261 0.57965 0.27492 0.0
C955 C 0.48585 0.60491 0.26203 0.0
C956 C 0.49334 0.57794 0.30331 0.0
C957 C 0.48745 0.6015 0.31928 0.0
C958 C 0.48083 0.62677 0.30646 0.0
C959 C 0.47988 0.6284 0.27811 0.0
C960 C 0.4882 0.5999 0.34938 0.0
C961 C 0.50801 0.62134 0.36383 0.0
C962 C 0.46949 0.57754 0.36382 0.0
C963 C 0.44695 0.55522 0.34983 0.0
C964 C 0.42504 0.56397 0.33297 0.0
C965 C 0.40383 0.54283 0.31987 0.0
C966 C 0.40417 0.51285 0.32363 0.0
C967 C 0.42569 0.50395 0.34055 0.0
C968 C 0.44698 0.52501 0.35367 0.0
C969 C 0.46502 0.58995 0.47941 0.0
C970 C 0.49049 0.58397 0.49303 0.0
C971 C 0.46573 0.59612 0.45163 0.0
C972 C 0.49192 0.59641 0.43689 0.0
C973 C 0.51775 0.59162 0.45062 0.0
C974 C 0.51707 0.58537 0.47853 0.0
C975 C 0.49115 0.59852 0.4068 0.0
C976 C 0.47145 0.57696 0.39231 0.0
C977 C 0.50956 0.62111 0.39238 0.0
C978 C 0.52896 0.64595 0.40632 0.0
C979 C 0.55941 0.65286 0.40013 0.0
C980 C 0.57708 0.67804 0.41121 0.0
C981 C 0.56449 0.69655 0.42842 0.0
C982 C 0.53432 0.68968 0.4349 0.0
C983 C 0.51659 0.66448 0.42394 0.0
H984 H 0.5781 0.71602 0.43703 0.0
H985 H 0.38772 0.49651 0.31348 0.0
H986 H 0.03124 0.41479 0.77099 0.0
H987 H 0.01817 0.44407 0.8086 0.0
H988 H 0.08129 0.51883 0.78079 0.0
H989 H 0.09672 0.48877 0.74474 0.0
H990 H 0.09122 0.51272 0.82986 0.0
H991 H 1.00027 0.51377 0.78141 0.0
H992 H 0.95356 0.4945 0.75676 0.0
H993 H 0.9206 0.44374 0.82665 0.0
H994 H 0.96713 0.46251 0.85167 0.0
H995 H 0.05448 0.60987 0.92876 0.0
H996 H 0.05127 0.58584 0.88422 0.0
H997 H 0.01965 0.50187 0.92183 0.0
H998 H 0.0243 0.52576 0.96672 0.0
H999 H 0.99116 0.51527 0.86736 0.0
H1000 H 0.08584 0.51205 0.91283 0.0
H1001 H 0.13146 0.53489 0.93744 0.0
H1002 H 0.15607 0.59352 0.87047 0.0
H1003 H 0.1103 0.57131 0.84565 0.0
C1004 C 0.04252 0.43743 0.77286 0.0
C1005 C 0.06565 0.44907 0.75507 0.0
C1006 C 0.03447 0.45443 0.79415 0.0
C1007 C 0.04858 0.48383 0.79763 0.0
C1008 C 0.07011 0.49616 0.77869 0.0
C1009 C 0.07874 0.47895 0.75781 0.0
C1010 C 0.04385 0.50039 0.82278 0.0
C1011 C 0.06921 0.51371 0.83754 0.0
C1012 C 0.01521 0.50113 0.83354 0.0
C1013 C 0.98736 0.48937 0.81834 0.0
C1014 C 0.98318 0.4983 0.79145 0.0
C1015 C 0.95666 0.48754 0.77744 0.0
C1016 C 0.9341 0.46792 0.79013 0.0
C1017 C 0.93802 0.45901 0.81686 0.0
C1018 C 0.96445 0.46972 0.83097 0.0
C1019 C 0.04638 0.58635 0.92752 0.0
C1020 C 0.03919 0.56962 0.95117 0.0
C1021 C 0.04439 0.57273 0.90207 0.0
C1022 C 0.03514 0.54218 0.89983 0.0
C1023 C 0.02642 0.52557 0.9232 0.0
C1024 C 0.02876 0.53921 0.94877 0.0
C1025 C 0.03838 0.52735 0.87367 0.0
C1026 C 0.01293 0.51435 0.85908 0.0
C1027 C 0.06683 0.52714 0.86275 0.0
C1028 C 0.09451 0.54026 0.87753 0.0
C1029 C 0.10085 0.52999 0.90347 0.0
C1030 C 0.12675 0.54279 0.91743 0.0
C1031 C 0.14661 0.56571 0.90556 0.0
C1032 C 0.14064 0.57581 0.87966 0.0
C1033 C 0.11473 0.56312 0.86563 0.0
H1034 H 0.16666 0.57558 0.9164 0.0
H1035 H 0.91358 0.45965 0.77927 0.0
H1036 H 0.74414 0.91267 0.94597 0.0
H1037 H 0.71402 0.9351 0.97773 0.0
H1038 H 0.78369 0.01136 0.98485 0.0
H1039 H 0.81386 0.98899 0.95225 0.0
H1040 H 0.71832 0.95098 0.02765 0.0
H1041 H 0.74814 0.07394 0.99483 0.0
H1042 H 0.76382 0.10382 0.95422 0.0
H1043 H 0.729 0.03029 0.90262 0.0
H1044 H 0.71266 1.00016 0.94287 0.0
H1045 H 0.63586 0.02649 0.1145 0.0
H1046 H 0.6794 0.01705 0.0896 0.0
H1047 H 0.63533 0.02991 0.01368 0.0
H1048 H 0.59194 0.03971 0.03854 0.0
H1049 H 0.69299 0.04937 0.00913 0.0
H1050 H 0.63201 0.96065 0.04211 0.0
H1051 H 0.60622 0.92701 0.07669 0.0
H1052 H 0.68955 0.92508 0.11736 0.0
H1053 H 0.71577 0.95904 0.08318 0.0
C1054 C 0.7532 0.93412 0.95447 0.0
C1055 C 0.78131 0.94913 0.94648 0.0
C1056 C 0.73596 0.94693 0.97273 0.0
C1057 C 0.7463 0.97515 0.98353 0.0
C1058 C 0.77498 0.98976 0.97653 0.0
C1059 C 0.79237 0.97683 0.95817 0.0
C1060 C 0.72645 0.98901 1.00156 0.0
C1061 C 0.71299 0.97261 0.0236 0.0
C1062 C 0.71897 0.01706 0.99622 0.0
C1063 C 0.72981 0.0346 0.97192 0.0
C1064 C 0.744 0.0641 0.97482 0.0
C1065 C 0.75289 0.08112 0.95186 0.0
C1066 C 0.74759 0.0689 0.92586 0.0
C1067 C 0.7333 0.03966 0.92277 0.0
C1068 C 0.72429 0.02258 0.94566 0.0
C1069 C 0.63576 0.02798 0.09251 0.0
C1070 C 0.61048 0.0339 0.07848 0.0
C1071 C 0.66061 0.02245 0.07829 0.0
C1072 C 0.66046 0.0221 0.04972 0.0
C1073 C 0.63602 0.02997 0.03571 0.0
C1074 C 0.61122 0.03572 0.04996 0.0
C1075 C 0.68426 0.01093 0.0344 0.0
C1076 C 0.69863 0.0279 0.01317 0.0
C1077 C 0.69154 0.9828 0.03959 0.0
C1078 C 0.67579 0.96263 0.06029 0.0
C1079 C 0.64478 0.95324 0.05857 0.0
C1080 C 0.6301 0.93409 0.07807 0.0
C1081 C 0.64624 0.92396 0.09924 0.0
C1082 C 0.67708 0.93298 0.10097 0.0
C1083 C 0.69186 0.95218 0.08155 0.0
H1084 H 0.63489 0.90903 0.11426 0.0
H1085 H 0.75444 0.08213 0.90811 0.0
H1086 H 0.70321 0.10856 0.42258 0.0
H1087 H 0.74745 0.08791 0.43455 0.0
H1088 H 0.78013 0.1646 0.48373 0.0
H1089 H 0.73681 0.18596 0.47081 0.0
H1090 H 0.82496 0.14907 0.45971 0.0
H1091 H 0.74293 0.09776 0.51102 0.0
H1092 H 0.6931 0.06801 0.51785 0.0
H1093 H 0.71767 0.99733 0.47118 0.0
H1094 H 0.76756 0.02685 0.46377 0.0
H1095 H 0.88996 0.05781 0.56666 0.0
H1096 H 0.84592 0.0678 0.54234 0.0
H1097 H 0.89656 0.08181 0.46841 0.0
H1098 H 0.94106 0.07297 0.49314 0.0
H1099 H 0.81049 0.04958 0.50117 0.0
H1100 H 0.87741 0.14075 0.43509 0.0
H1101 H 0.92666 0.17314 0.43507 0.0
H1102 H 0.93076 0.16899 0.52225 0.0
H1103 H 0.88138 0.13698 0.52279 0.0
C1104 C 0.72008 0.12135 0.43549 0.0
C1105 C 0.71616 0.14891 0.44587 0.0
C1106 C 0.74528 0.10931 0.44261 0.0
C1107 C 0.76705 0.12437 0.46051 0.0
C1108 C 0.76372 0.15236 0.47001 0.0
C1109 C 0.73869 0.16447 0.46278 0.0
C1110 C 0.79275 0.11078 0.47019 0.0
C1111 C 0.82172 0.12719 0.46851 0.0
C1112 C 0.7888 0.0824 0.48218 0.0
C1113 C 0.75883 0.06464 0.48656 0.0
C1114 C 0.73762 0.07597 0.50203 0.0
C1115 C 0.70938 0.05913 0.50604 0.0
C1116 C 0.70219 0.03084 0.49488 0.0
C1117 C 0.72326 0.01928 0.47975 0.0
C1118 C 0.75151 0.03605 0.47565 0.0
C1119 C 0.89144 0.06205 0.545 0.0
C1120 C 0.91887 0.06408 0.53171 0.0
C1121 C 0.86622 0.06782 0.53108 0.0
C1122 C 0.86788 0.07607 0.50357 0.0
C1123 C 0.89471 0.07585 0.4897 0.0
C1124 C 0.92005 0.07022 0.50372 0.0
C1125 C 0.84261 0.08784 0.49061 0.0
C1126 C 0.81373 0.07118 0.49179 0.0
C1127 C 0.84651 0.11638 0.47897 0.0
C1128 C 0.87589 0.13618 0.47892 0.0
C1129 C 0.88879 0.14686 0.45424 0.0
C1130 C 0.91672 0.16515 0.45415 0.0
C1131 C 0.93188 0.17303 0.47864 0.0
C1132 C 0.91905 0.16279 0.50329 0.0
C1133 C 0.8911 0.14458 0.5035 0.0
H1134 H 0.95353 0.18711 0.47852 0.0
H1135 H 0.68032 0.01783 0.49802 0.0
H1136 H 0.34625 0.61745 0.1982 0.0
H1137 H 0.29301 0.59873 0.18969 0.0
H1138 H 0.31126 0.58796 0.10462 0.0
H1139 H 0.36407 0.60678 0.11313 0.0
H1140 H 0.26017 0.62793 0.15696 0.0
H1141 H 0.26154 0.53461 0.0765 0.0
H1142 H 0.28633 0.49177 0.06972 0.0
H1143 H 0.30213 0.48754 0.15574 0.0
H1144 H 0.27714 0.53013 0.16308 0.0
H1145 H 0.15799 0.59093 0.03666 0.0
H1146 H 0.20203 0.58425 0.06289 0.0
H1147 H 0.15281 0.585 0.1373 0.0
H1148 H 0.10825 0.59112 0.1109 0.0
H1149 H 0.21389 0.54202 0.10096 0.0
H1150 H 0.20603 0.6298 0.18236 0.0
H1151 H 0.18116 0.67249 0.1898 0.0
H1152 H 0.17976 0.68781 0.10371 0.0
H1153 H 0.20487 0.64542 0.09582 0.0
C1154 C 0.33884 0.61014 0.17793 0.0
C1155 C 0.35896 0.6133 0.15629 0.0
C1156 C 0.30855 0.59959 0.17306 0.0
C1157 C 0.29822 0.59175 0.14657 0.0
C1158 C 0.31876 0.59334 0.1253 0.0
C1159 C 0.34886 0.60417 0.1301 0.0
C1160 C 0.26594 0.58615 0.14002 0.0
C1161 C 0.24975 0.60869 0.14544 0.0
C1162 C 0.25251 0.56131 0.12462 0.0
C1163 C 0.26766 0.53573 0.1203 0.0
C1164 C 0.27021 0.52449 0.09398 0.0
C1165 C 0.28432 0.50026 0.09004 0.0
C1166 C 0.29586 0.48699 0.11228 0.0
C1167 C 0.29329 0.49791 0.13852 0.0
C1168 C 0.27923 0.52215 0.14257 0.0
C1169 C 0.1565 0.58927 0.05861 0.0
C1170 C 0.12994 0.59163 0.07187 0.0
C1171 C 0.18154 0.58522 0.07352 0.0
C1172 C 0.18065 0.58414 0.102 0.0
C1173 C 0.15387 0.58568 0.11534 0.0
C1174 C 0.12855 0.58928 0.10032 0.0
C1175 C 0.20867 0.58413 0.1173 0.0
C1176 C 0.2241 0.56075 0.11324 0.0
C1177 C 0.22138 0.60815 0.13406 0.0
C1178 C 0.20662 0.63395 0.13849 0.0
C1179 C 0.20025 0.64218 0.16503 0.0
C1180 C 0.1862 0.66638 0.16933 0.0
C1181 C 0.17867 0.68271 0.14723 0.0
C1182 C 0.18538 0.675 0.1208 0.0
C1183 C 0.19946 0.65084 0.11641 0.0
H1184 H 0.16778 0.70144 0.1506 0.0
H1185 H 0.30676 0.46822 0.10918 0.0
H1186 H 0.16484 0.51797 0.66398 0.0
H1187 H 0.21133 0.55434 0.66312 0.0
H1188 H 0.25263 0.49401 0.61582 0.0
H1189 H 0.20702 0.45783 0.61689 0.0
H1190 H 0.26856 0.55174 0.68126 0.0
H1191 H 0.29288 0.52829 0.56735 0.0
H1192 H 0.26452 0.5181 0.52445 0.0
H1193 H 0.19537 0.56057 0.55584 0.0
H1194 H 0.2235 0.57144 0.5988 0.0
H1195 H 0.4092 0.53444 0.64523 0.0
H1196 H 0.3598 0.54049 0.66006 0.0
H1197 H 0.36214 0.61376 0.60509 0.0
H1198 H 0.41148 0.60706 0.58982 0.0
H1199 H 0.31821 0.57339 0.59244 0.0
H1200 H 0.34475 0.62293 0.67393 0.0
H1201 H 0.37144 0.63709 0.71714 0.0
H1202 H 0.3377 0.55183 0.75027 0.0
H1203 H 0.31093 0.53698 0.7073 0.0
C1204 C 0.1839 0.51254 0.65343 0.0
C1205 C 0.18203 0.4852 0.64007 0.0
C1206 C 0.21036 0.53333 0.65294 0.0
C1207 C 0.23522 0.5271 0.63894 0.0
C1208 C 0.23349 0.49961 0.62614 0.0
C1209 C 0.20728 0.47896 0.62666 0.0
C1210 C 0.26354 0.54853 0.63772 0.0
C1211 C 0.27939 0.55696 0.66191 0.0
C1212 C 0.27708 0.55664 0.61245 0.0
C1213 C 0.26034 0.55067 0.58636 0.0
C1214 C 0.27176 0.53571 0.56504 0.0
C1215 C 0.25568 0.52974 0.54072 0.0
C1216 C 0.22815 0.53866 0.53743 0.0
C1217 C 0.21667 0.55363 0.55843 0.0
C1218 C 0.23266 0.55967 0.58279 0.0
C1219 C 0.39973 0.55274 0.63737 0.0
C1220 C 0.41417 0.57059 0.61677 0.0
C1221 C 0.3715 0.55634 0.64592 0.0
C1222 C 0.35712 0.57768 0.63377 0.0
C1223 C 0.37279 0.59728 0.61489 0.0
C1224 C 0.40109 0.59363 0.60634 0.0
C1225 C 0.32423 0.57447 0.63602 0.0
C1226 C 0.30732 0.56934 0.61192 0.0
C1227 C 0.30964 0.57022 0.66136 0.0
C1228 C 0.32584 0.57881 0.6873 0.0
C1229 C 0.34316 0.6071 0.69035 0.0
C1230 C 0.35827 0.61529 0.71481 0.0
C1231 C 0.35631 0.59537 0.73637 0.0
C1232 C 0.33917 0.56724 0.73355 0.0
C1233 C 0.32391 0.55897 0.70918 0.0
H1234 H 0.36806 0.60175 0.75528 0.0
H1235 H 0.21573 0.53398 0.5186 0.0
H1236 H 0.96997 0.89701 0.93698 0.0
H1237 H 0.98897 0.85847 0.96224 0.0
H1238 H 0.9018 0.80415 0.95953 0.0
H1239 H 0.88267 0.84248 0.93411 0.0
H1240 H 0.92749 0.80091 0.00894 0.0
H1241 H 0.95614 0.79208 0.91603 0.0
H1242 H 0.97918 0.80963 0.87254 0.0
H1243 H 0.06438 0.83192 0.91232 0.0
H1244 H 0.04175 0.81491 0.95615 0.0
H1245 H 0.97635 0.65828 0.02048 0.0
H1246 H 0.95356 0.70094 0.00815 0.0
H1247 H 0.03606 0.75893 0.02712 0.0
H1248 H 0.05827 0.71652 0.04099 0.0
H1249 H 0.01299 0.76119 0.97158 0.0
H1250 H 0.98458 0.76649 0.06411 0.0
H1251 H 0.96089 0.75198 0.10803 0.0
H1252 H 0.87488 0.73686 0.0692 0.0
H1253 H 0.89807 0.75034 0.0249 0.0
C1254 C 0.95481 0.87686 0.94169 0.0
C1255 C 0.92477 0.87291 0.93331 0.0
C1256 C 0.96572 0.85481 0.95621 0.0
C1257 C 0.94694 0.82815 0.96256 0.0
C1258 C 0.91676 0.82449 0.95496 0.0
C1259 C 0.90582 0.84654 0.94046 0.0
C1260 C 0.95896 0.80376 0.9763 0.0
C1261 C 0.94592 0.79193 1.00058 0.0
C1262 C 0.98348 0.79243 0.96578 0.0
C1263 C 0.99719 0.80251 0.93942 0.0
C1264 C 0.97975 0.80094 0.91554 0.0
C1265 C 0.99274 0.81076 0.89082 0.0
C1266 C 0.02321 0.82196 0.88968 0.0
C1267 C 0.04077 0.82329 0.91324 0.0
C1268 C 0.02788 0.81354 0.93803 0.0
C1269 C 0.98898 0.68023 0.02366 0.0
C1270 C 0.0187 0.68408 0.03279 0.0
C1271 C 0.97612 0.70459 0.01615 0.0
C1272 C 0.99307 0.73316 0.01681 0.0
C1273 C 0.02248 0.73713 0.02664 0.0
C1274 C 0.0351 0.71289 0.03467 0.0
C1275 C 0.98146 0.75828 0.00419 0.0
C1276 C 0.99455 0.77015 0.97998 0.0
C1277 C 0.95692 0.76946 0.01475 0.0
C1278 C 0.94314 0.75914 0.04105 0.0
C1279 C 0.96068 0.75945 0.06479 0.0
C1280 C 0.94732 0.75155 0.08981 0.0
C1281 C 0.91641 0.74358 0.09141 0.0
C1282 C 0.89883 0.74299 0.06794 0.0
C1283 C 0.91207 0.75071 0.04286 0.0
H1284 H 0.90607 0.73808 0.11085 0.0
H1285 H 0.03323 0.82955 0.87052 0.0
H1286 H 0.39286 0.71829 0.16017 0.0
H1287 H 0.40132 0.76834 0.1423 0.0
H1288 H 0.47827 0.75072 0.0991 0.0
H1289 H 0.47027 0.70057 0.11779 0.0
H1290 H 0.49061 0.80262 0.12103 0.0
H1291 H 0.41112 0.75541 0.06545 0.0
H1292 H 0.36278 0.72442 0.05417 0.0
H1293 H 0.31743 0.78346 0.09827 0.0
H1294 H 0.36553 0.81459 0.11018 0.0
H1295 H 0.50495 0.94151 0.0616 0.0
H1296 H 0.48883 0.88796 0.05897 0.0
H1297 H 0.42534 0.89261 0.12256 0.0
H1298 H 0.44192 0.94607 0.12554 0.0
H1299 H 0.40708 0.84566 0.0823 0.0
H1300 H 0.4888 0.88619 0.14335 0.0
H1301 H 0.53715 0.91807 0.15283 0.0
H1302 H 0.57888 0.87063 0.09358 0.0
H1303 H 0.53054 0.83875 0.08341 0.0
C1304 C 0.41149 0.72506 0.14674 0.0
C1305 C 0.43077 0.70554 0.14015 0.0
C1306 C 0.41622 0.75361 0.13639 0.0
C1307 C 0.43997 0.76313 0.11873 0.0
C1308 C 0.45963 0.74381 0.11249 0.0
C1309 C 0.45512 0.71525 0.12319 0.0
C1310 C 0.44468 0.79363 0.10782 0.0
C1311 C 0.47254 0.81171 0.11179 0.0
C1312 C 0.42107 0.80579 0.09605 0.0
C1313 C 0.39199 0.78724 0.08886 0.0
C1314 C 0.39086 0.76169 0.07291 0.0
C1315 C 0.36349 0.74411 0.06638 0.0
C1316 C 0.33706 0.75194 0.07554 0.0
C1317 C 0.33793 0.77742 0.0912 0.0
C1318 C 0.36525 0.79507 0.09781 0.0
C1319 C 0.48647 0.93122 0.07394 0.0
C1320 C 0.47435 0.94768 0.09355 0.0
C1321 C 0.47743 0.90067 0.07258 0.0
C1322 C 0.4561 0.88638 0.09076 0.0
C1323 C 0.44171 0.90327 0.10828 0.0
C1324 C 0.45109 0.93376 0.10993 0.0
C1325 C 0.4529 0.85426 0.09528 0.0
C1326 C 0.42532 0.83612 0.09052 0.0
C1327 C 0.47687 0.84186 0.1058 0.0
C1328 C 0.50607 0.86032 0.11244 0.0
C1329 C 0.50826 0.88267 0.13224 0.0
C1330 C 0.53564 0.90073 0.13774 0.0
C1331 C 0.56105 0.89642 0.12377 0.0
C1332 C 0.55915 0.87395 0.10435 0.0
C1333 C 0.53178 0.85588 0.09871 0.0
H1334 H 0.58219 0.91047 0.12805 0.0
H1335 H 0.31589 0.73829 0.07047 0.0
H1336 H 0.06926 0.40339 0.59125 0.0
H1337 H 0.05617 0.35815 0.5643 0.0
H1338 H 0.14713 0.34439 0.56961 0.0
H1339 H 0.16047 0.39024 0.59566 0.0
H1340 H 0.11929 0.31876 0.52286 0.0
H1341 H 0.10148 0.31862 0.61956 0.0
H1342 H 0.08167 0.33604 0.66191 0.0
H1343 H 0.9929 0.31614 0.62901 0.0
H1344 H 0.01223 0.29864 0.58638 0.0
H1345 H 0.08832 0.16116 0.56061 0.0
H1346 H 0.10736 0.21413 0.55471 0.0
H1347 H 0.02087 0.2265 0.526 0.0
H1348 H 1.00212 0.17374 0.53121 0.0
H1349 H 0.04581 0.25356 0.57931 0.0
H1350 H 0.0658 0.24402 0.48487 0.0
H1351 H 0.08817 0.22498 0.44463 0.0
H1352 H 0.17555 0.26101 0.47495 0.0
H1353 H 0.15379 0.27949 0.51581 0.0
C1354 C 0.08664 0.39132 0.58562 0.0
C1355 C 0.11576 0.40001 0.59565 0.0
C1356 C 0.07919 0.3655 0.57029 0.0
C1357 C 0.10055 0.34756 0.56555 0.0
C1358 C 0.13031 0.35786 0.57307 0.0
C1359 C 0.1379 0.38402 0.58798 0.0
C1360 C 0.0909 0.31617 0.55789 0.0
C1361 C 0.10328 0.30442 0.53516 0.0
C1362 C 0.07006 0.29747 0.57403 0.0
C1363 C 0.05831 0.30764 0.59971 0.0
C1364 C 0.07775 0.31811 0.62132 0.0
C1365 C 0.06662 0.32799 0.64537 0.0
C1366 C 0.03607 0.32738 0.6481 0.0
C1367 C 0.01656 0.31669 0.62683 0.0
C1368 C 0.02758 0.30672 0.60275 0.0
C1369 C 0.07393 0.17506 0.55179 0.0
C1370 C 0.04398 0.16359 0.54599 0.0
C1371 C 0.08474 0.20519 0.54844 0.0
C1372 C 0.0655 0.22404 0.53976 0.0
C1373 C 0.0361 0.21219 0.53237 0.0
C1374 C 0.02544 0.18215 0.53539 0.0
C1375 C 0.07382 0.25613 0.5441 0.0
C1376 C 0.06143 0.26793 0.56663 0.0
C1377 C 0.09491 0.27444 0.528 0.0
C1378 C 0.10813 0.2629 0.50363 0.0
C1379 C 0.0898 0.24749 0.48322 0.0
C1380 C 0.10237 0.23686 0.46023 0.0
C1381 C 0.13324 0.24179 0.45723 0.0
C1382 C 0.15163 0.25718 0.4773 0.0
C1383 C 0.13919 0.26772 0.5004 0.0
H1384 H 0.14289 0.2338 0.43929 0.0
H1385 H 0.02752 0.3351 0.66672 0.0
H1386 H 0.64877 0.28431 0.5138 0.0
H1387 H 0.6351 0.33202 0.52598 0.0
H1388 H 0.54216 0.29345 0.5181 0.0
H1389 H 0.55583 0.2459 0.50634 0.0
H1390 H 0.55496 0.34886 0.49523 0.0
H1391 H 0.57466 0.30079 0.57875 0.0
H1392 H 0.60497 0.27778 0.61128 0.0
H1393 H 0.66851 0.35828 0.61641 0.0
H1394 H 0.63889 0.38162 0.58345 0.0
H1395 H 0.47593 0.43889 0.56727 0.0
H1396 H 0.49944 0.39671 0.55662 0.0
H1397 H 0.58613 0.45094 0.5659 0.0
H1398 H 0.56261 0.49366 0.5762 0.0
H1399 H 0.58221 0.39174 0.58667 0.0
H1400 H 0.5615 0.44071 0.50504 0.0
H1401 H 0.53076 0.46408 0.4732 0.0
H1402 H 0.46932 0.38244 0.465 0.0
H1403 H 0.49945 0.35868 0.49717 0.0
C1404 C 0.62549 0.28634 0.5141 0.0
C1405 C 0.60331 0.26165 0.50883 0.0
C1406 C 0.61768 0.31344 0.52132 0.0
C1407 C 0.58757 0.31627 0.52321 0.0
C1408 C 0.56551 0.29185 0.51678 0.0
C1409 C 0.57329 0.26475 0.50995 0.0
C1410 C 0.57871 0.34425 0.53256 0.0
C1411 C 0.56084 0.35812 0.51527 0.0
C1412 C 0.58696 0.35684 0.55849 0.0
C1413 C 0.60484 0.34278 0.57821 0.0
C1414 C 0.59531 0.31347 0.58651 0.0
C1415 C 0.61234 0.30038 0.60506 0.0
C1416 C 0.63881 0.31647 0.61567 0.0
C1417 C 0.64814 0.34578 0.60798 0.0
C1418 C 0.63124 0.35894 0.58935 0.0
C1419 C 0.50005 0.44183 0.56755 0.0
C1420 C 0.5174 0.46972 0.57262 0.0
C1421 C 0.51343 0.41765 0.56139 0.0
C1422 C 0.54452 0.42075 0.56003 0.0
C1423 C 0.56207 0.44806 0.56679 0.0
C1424 C 0.54863 0.47245 0.57286 0.0
C1425 C 0.55812 0.39592 0.54947 0.0
C1426 C 0.57677 0.38268 0.56649 0.0
C1427 C 0.55069 0.38387 0.52325 0.0
C1428 C 0.53262 0.39798 0.5037 0.0
C1429 C 0.54131 0.42779 0.49662 0.0
C1430 C 0.52401 0.4411 0.47848 0.0
C1431 C 0.49807 0.42477 0.46713 0.0
C1432 C 0.48941 0.39507 0.47383 0.0
C1433 C 0.50661 0.38166 0.492 0.0
H1434 H 0.4847 0.43511 0.45309 0.0
H1435 H 0.65197 0.3063 0.63003 0.0
loop_
_geom_bond_atom_site_label_1
_geom_bond_atom_site_label_2
_geom_bond_distance
_geom_bond_site_symmetry_2
_ccdc_geom_bond_type
H0 C1 0.949 . S
C1 H0 0.949 . S
C1 C2 1.395 . S
C1 C3 1.391 . S
C2 C1 1.395 . S
C2 C5 1.390 . S
C3 C1 1.391 . S
C3 C7 1.387 . S
C3 C8 1.491 . S
H4 C5 0.950 . S
C5 C2 1.390 . S
C5 H4 0.950 . S
C5 C6 1.378 . S
C6 C5 1.378 . S
C6 C7 1.409 . S
C7 C3 1.387 . S
C7 C6 1.409 . S
C7 H9 0.951 . S
C8 C3 1.491 . S
C8 C10 1.382 . S
C8 C12 1.404 . S
H9 C7 0.951 . S
C10 C8 1.382 . S
C10 C11 1.390 . S
C10 H15 0.949 . S
C11 C10 1.390 . S
C11 C16 1.399 . S
C12 C8 1.404 . S
C12 H13 0.950 . S
C12 C14 1.375 . S
H13 C12 0.950 . S
C14 C12 1.375 . S
C14 C16 1.382 . S
C14 H18 0.950 . S
H15 C10 0.949 . S
C16 C11 1.399 . S
C16 C14 1.382 . S
C16 H17 0.952 . S
H17 C16 0.952 . S
H18 C14 0.950 . S
H19 C20 0.949 . S
C20 H19 0.949 . S
C20 C21 1.395 . S
C20 C22 1.391 . S
C21 C20 1.395 . S
C21 C24 1.390 . S
C22 C20 1.391 . S
C22 C26 1.387 . S
C22 C27 1.491 . S
H23 C24 0.950 . S
C24 C21 1.390 . S
C24 H23 0.950 . S
C24 C25 1.378 . S
C25 C24 1.378 . S
C25 C26 1.409 . S
C26 C22 1.387 . S
C26 C25 1.409 . S
C26 H28 0.951 . S
C27 C22 1.491 . S
C27 C29 1.382 . S
C27 C31 1.404 . S
H28 C26 0.951 . S
C29 C27 1.382 . S
C29 C30 1.390 . S
C29 H34 0.949 . S
C30 C29 1.390 . S
C30 C35 1.399 . S
C31 C27 1.404 . S
C31 H32 0.950 . S
C31 C33 1.375 . S
H32 C31 0.950 . S
C33 C31 1.375 . S
C33 C35 1.382 . S
C33 H37 0.950 . S
H34 C29 0.949 . S
C35 C30 1.399 . S
C35 C33 1.382 . S
C35 H36 0.952 . S
H36 C35 0.952 . S
H37 C33 0.950 . S
H38 C39 0.949 . S
C39 H38 0.949 . S
C39 C40 1.395 . S
C39 C41 1.391 . S
C40 C39 1.395 . S
C40 C43 1.390 . S
C41 C39 1.391 . S
C41 C45 1.387 . S
C41 C46 1.491 . S
H42 C43 0.950 . S
C43 C40 1.390 . S
C43 H42 0.950 . S
C43 C44 1.378 . S
C44 C43 1.378 . S
C44 C45 1.409 . S
C45 C41 1.387 . S
C45 C44 1.409 . S
C45 H47 0.951 . S
C46 C41 1.491 . S
C46 C48 1.382 . S
C46 C50 1.404 . S
H47 C45 0.951 . S
C48 C46 1.382 . S
C48 C49 1.390 . S
C48 H53 0.949 . S
C49 C48 1.390 . S
C49 C54 1.399 . S
C50 C46 1.404 . S
C50 H51 0.950 . S
C50 C52 1.375 . S
H51 C50 0.950 . S
C52 C50 1.375 . S
C52 C54 1.382 . S
C52 H56 0.950 . S
H53 C48 0.949 . S
C54 C49 1.399 . S
C54 C52 1.382 . S
C54 H55 0.952 . S
H55 C54 0.952 . S
H56 C52 0.950 . S
H57 C58 0.949 . S
C58 H57 0.949 . S
C58 C59 1.395 . S
C58 C60 1.391 . S
C59 C58 1.395 . S
C59 C62 1.390 . S
C60 C58 1.391 . S
C60 C64 1.387 . S
C60 C65 1.491 . S
H61 C62 0.950 . S
C62 C59 1.390 . S
C62 H61 0.950 . S
C62 C63 1.378 . S
C63 C62 1.378 . S
C63 C64 1.409 . S
C64 C60 1.387 . S
C64 C63 1.409 . S
C64 H66 0.951 . S
C65 C60 1.491 . S
C65 C67 1.382 . S
C65 C69 1.404 . S
H66 C64 0.951 . S
C67 C65 1.382 . S
C67 C68 1.390 . S
C67 H72 0.949 . S
C68 C67 1.390 . S
C68 C73 1.399 . S
C69 C65 1.404 . S
C69 H70 0.950 . S
C69 C71 1.375 . S
H70 C69 0.950 . S
C71 C69 1.375 . S
C71 C73 1.382 . S
C71 H75 0.950 . S
H72 C67 0.949 . S
C73 C68 1.399 . S
C73 C71 1.382 . S
C73 H74 0.952 . S
H74 C73 0.952 . S
H75 C71 0.950 . S
H76 C77 0.949 . S
C77 H76 0.949 . S
C77 C78 1.395 . S
C77 C79 1.391 . S
C78 C77 1.395 . S
C78 C81 1.390 . S
C79 C77 1.391 . S
C79 C83 1.381 1_565 S
C79 C84 1.491 . S
H80 C81 0.950 . S
C81 C78 1.390 . S
C81 H80 0.950 . S
C81 C82 1.378 . S
C82 C81 1.378 . S
C82 C83 1.398 1_565 S
C83 C79 1.381 1_545 S
C83 C82 1.398 1_545 S
C83 H85 0.969 . S
C84 C79 1.491 . S
C84 C86 1.382 1_565 S
C84 C88 1.404 1_565 S
H85 C83 0.969 . S
C86 C84 1.382 1_545 S
C86 C87 1.390 . S
C86 H91 0.937 1_556 S
C87 C86 1.390 . S
C87 C92 1.399 . S
C88 C84 1.404 1_545 S
C88 H89 0.950 1_545 S
C88 C90 1.375 . S
H89 C88 0.950 1_565 S
C90 C88 1.375 . S
C90 C92 1.382 . S
C90 H94 0.950 . S
H91 C86 0.937 1_554 S
C92 C87 1.399 . S
C92 C90 1.382 . S
C92 H93 0.952 . S
H93 C92 0.952 . S
H94 C90 0.950 . S
H95 C96 0.949 . S
C96 H95 0.949 . S
C96 C97 1.395 . S
C96 C98 1.391 . S
C97 C96 1.395 . S
C97 C100 1.390 . S
C98 C96 1.391 . S
C98 C102 1.387 . S
C98 C103 1.491 . S
H99 C100 0.950 . S
C100 C97 1.390 . S
C100 H99 0.950 . S
C100 C101 1.378 . S
C101 C100 1.378 . S
C101 C102 1.409 . S
C102 C98 1.387 . S
C102 C101 1.409 . S
C102 H104 0.951 . S
C103 C98 1.491 . S
C103 C105 1.382 . S
C103 C107 1.404 . S
H104 C102 0.951 . S
C105 C103 1.382 . S
C105 C106 1.390 . S
C105 H110 0.949 . S
C106 C105 1.390 . S
C106 C111 1.399 . S
C107 C103 1.404 . S
C107 H108 0.950 . S
C107 C109 1.375 . S
H108 C107 0.950 . S
C109 C107 1.375 . S
C109 C111 1.382 . S
C109 H113 0.950 . S
H110 C105 0.949 . S
C111 C106 1.399 . S
C111 C109 1.382 . S
C111 H112 0.952 . S
H112 C111 0.952 . S
H113 C109 0.950 . S
H114 C115 0.949 . S
C115 H114 0.949 . S
C115 C116 1.395 . S
C115 C117 1.391 . S
C116 C115 1.395 . S
C116 C119 1.390 . S
C117 C115 1.391 . S
C117 C121 1.387 . S
C117 C122 1.491 . S
H118 C119 0.950 . S
C119 C116 1.390 . S
C119 H118 0.950 . S
C119 C120 1.378 . S
C120 C119 1.378 . S
C120 C121 1.409 . S
C121 C117 1.387 . S
C121 C120 1.409 . S
C121 H123 0.951 . S
C122 C117 1.491 . S
C122 C124 1.382 . S
C122 C126 1.404 . S
H123 C121 0.951 . S
C124 C122 1.382 . S
C124 C125 1.390 . S
C124 H129 0.949 . S
C125 C124 1.390 . S
C125 C130 1.399 . S
C126 C122 1.404 . S
C126 H127 0.950 . S
C126 C128 1.375 . S
H127 C126 0.950 . S
C128 C126 1.375 . S
C128 C130 1.382 . S
C128 H132 0.950 . S
H129 C124 0.949 . S
C130 C125 1.399 . S
C130 C128 1.382 . S
C130 H131 0.952 . S
H131 C130 0.952 . S
H132 C128 0.950 . S
H133 C134 0.949 . S
C134 H133 0.949 . S
C134 C135 1.395 . S
C134 C136 1.391 . S
C135 C134 1.395 . S
C135 C138 1.390 . S
C136 C134 1.391 . S
C136 C140 1.387 . S
C136 C141 1.491 . S
H137 C138 0.950 . S
C138 C135 1.390 . S
C138 H137 0.950 . S
C138 C139 1.378 . S
C139 C138 1.378 . S
C139 C140 1.409 . S
C140 C136 1.387 . S
C140 C139 1.409 . S
C140 H142 0.951 . S
C141 C136 1.491 . S
C141 C143 1.382 . S
C141 C145 1.404 . S
H142 C140 0.951 . S
C143 C141 1.382 . S
C143 C144 1.390 . S
C143 H148 0.949 . S
C144 C143 1.390 . S
C144 C149 1.399 . S
C145 C141 1.404 . S
C145 H146 0.950 . S
C145 C147 1.375 . S
H146 C145 0.950 . S
C147 C145 1.375 . S
C147 C149 1.382 . S
C147 H151 0.950 . S
H148 C143 0.949 . S
C149 C144 1.399 . S
C149 C147 1.382 . S
C149 H150 0.952 . S
H150 C149 0.952 . S
H151 C147 0.950 . S
Zn152 O158 1.920 . S
Zn152 O164 1.898 . S
Zn152 O167 1.905 . S
Zn153 O161 1.905 . S
Zn153 O162 1.898 1_545 S
Zn153 O170 1.920 . S
Zn154 O157 2.080 1_455 S
Zn154 O160 2.114 . S
Zn154 O163 2.120 1_455 S
Zn154 O165 2.120 . S
Zn154 O166 2.114 1_455 S
Zn154 O169 2.080 . S
C155 O160 1.166 . S
C155 O161 1.182 . S
C156 O162 1.167 1_655 S
C156 O163 1.299 1_565 S
O157 Zn154 2.080 1_655 S
O157 C171 1.305 . S
O158 Zn152 1.920 . S
O158 C171 1.234 . S
C159 O164 1.167 1_455 S
C159 O165 1.299 . S
O160 Zn154 2.114 . S
O160 C155 1.166 . S
O161 Zn153 1.905 . S
O161 C155 1.182 . S
O162 Zn153 1.898 1_565 S
O162 C156 1.167 1_455 S
O163 Zn154 2.120 1_655 S
O163 C156 1.299 1_545 S
O164 Zn152 1.898 . S
O164 C159 1.167 1_655 S
O165 Zn154 2.120 . S
O165 C159 1.299 . S
O166 Zn154 2.114 1_655 S
O166 C168 1.166 . S
O167 Zn152 1.905 . S
O167 C168 1.182 . S
C168 O166 1.166 . S
C168 O167 1.182 . S
O169 Zn154 2.080 . S
O169 C172 1.305 . S
O170 Zn153 1.920 . S
O170 C172 1.234 . S
C171 O157 1.305 . S
C171 O158 1.234 . S
C172 O169 1.305 . S
C172 O170 1.234 . S
Zn173 O179 1.920 . S
Zn173 O185 1.898 . S
Zn173 O188 1.905 . S
Zn174 O182 1.905 1_565 S
Zn174 O183 1.898 . S
Zn174 O191 1.920 1_565 S
Zn175 O178 2.080 . S
Zn175 O181 2.114 . S
Zn175 O184 2.120 1_545 S
Zn175 O186 2.120 . S
Zn175 O187 2.114 . S
Zn175 O190 2.080 . S
C176 O181 1.166 . S
C176 O182 1.182 . S
C177 O183 1.167 . S
C177 O184 1.299 . S
O178 Zn175 2.080 . S
O178 C192 1.305 . S
O179 Zn173 1.920 . S
O179 C192 1.234 . S
C180 O185 1.167 . S
C180 O186 1.299 . S
O181 Zn175 2.114 . S
O181 C176 1.166 . S
O182 Zn174 1.905 1_545 S
O182 C176 1.182 . S
O183 Zn174 1.898 . S
O183 C177 1.167 . S
O184 Zn175 2.120 1_565 S
O184 C177 1.299 . S
O185 Zn173 1.898 . S
O185 C180 1.167 . S
O186 Zn175 2.120 . S
O186 C180 1.299 . S
O187 Zn175 2.114 . S
O187 C189 1.166 . S
O188 Zn173 1.905 . S
O188 C189 1.182 . S
C189 O187 1.166 . S
C189 O188 1.182 . S
O190 Zn175 2.080 . S
O190 C193 1.305 . S
O191 Zn174 1.920 1_545 S
O191 C193 1.234 . S
C192 O178 1.305 . S
C192 O179 1.234 . S
C193 O190 1.305 . S
C193 O191 1.234 . S
Zn194 O200 1.920 . S
Zn194 O206 1.898 . S
Zn194 O209 1.905 . S
Zn195 O203 1.905 . S
Zn195 O204 1.898 . S
Zn195 O212 1.920 . S
Zn196 O199 2.080 . S
Zn196 O202 2.114 . S
Zn196 O205 2.120 . S
Zn196 O207 2.120 . S
Zn196 O208 2.114 . S
Zn196 O211 2.080 . S
C197 O202 1.166 . S
C197 O203 1.182 . S
C198 O204 1.167 . S
C198 O205 1.299 . S
O199 Zn196 2.080 . S
O199 C213 1.305 . S
O200 Zn194 1.920 . S
O200 C213 1.234 . S
C201 O206 1.167 . S
C201 O207 1.299 . S
O202 Zn196 2.114 . S
O202 C197 1.166 . S
O203 Zn195 1.905 . S
O203 C197 1.182 . S
O204 Zn195 1.898 . S
O204 C198 1.167 . S
O205 Zn196 2.120 . S
O205 C198 1.299 . S
O206 Zn194 1.898 . S
O206 C201 1.167 . S
O207 Zn196 2.120 . S
O207 C201 1.299 . S
O208 Zn196 2.114 . S
O208 C210 1.166 . S
O209 Zn194 1.905 . S
O209 C210 1.182 . S
C210 O208 1.166 . S
C210 O209 1.182 . S
O211 Zn196 2.080 . S
O211 C214 1.305 . S
O212 Zn195 1.920 . S
O212 C214 1.234 . S
C213 O199 1.305 . S
C213 O200 1.234 . S
C214 O211 1.305 . S
C214 O212 1.234 . S
Zn215 O221 1.920 . S
Zn215 O227 1.898 1_556 S
Zn215 O230 1.905 . S
Zn216 O224 1.905 1_655 S
Zn216 O225 1.898 . S
Zn216 O233 1.920 . S
Zn217 O220 2.080 . S
Zn217 O223 2.114 . S
Zn217 O226 2.120 1_455 S
Zn217 O228 2.120 . S
Zn217 O229 2.114 1_554 S
Zn217 O232 2.080 . S
C218 O223 1.166 . S
C218 O224 1.182 . S
C219 O225 1.167 . S
C219 O226 1.299 . S
O220 Zn217 2.080 . S
O220 C234 1.305 . S
O221 Zn215 1.920 . S
O221 C234 1.234 1_556 S
C222 O227 1.167 . S
C222 O228 1.299 . S
O223 Zn217 2.114 . S
O223 C218 1.166 . S
O224 Zn216 1.905 1_455 S
O224 C218 1.182 . S
O225 Zn216 1.898 . S
O225 C219 1.167 . S
O226 Zn217 2.120 1_655 S
O226 C219 1.299 . S
O227 Zn215 1.898 1_554 S
O227 C222 1.167 . S
O228 Zn217 2.120 . S
O228 C222 1.299 . S
O229 Zn217 2.114 1_556 S
O229 C231 1.166 . S
O230 Zn215 1.905 . S
O230 C231 1.182 . S
C231 O229 1.166 . S
C231 O230 1.182 . S
O232 Zn217 2.080 . S
O232 C235 1.305 1_455 S
O233 Zn216 1.920 . S
O233 C235 1.234 . S
C234 O220 1.305 . S
C234 O221 1.234 1_554 S
C235 O232 1.305 1_655 S
C235 O233 1.234 . S
H236 C254 0.951 . S
H237 C256 0.951 . S
H238 C258 0.950 . S
H239 C259 0.950 . S
H240 C261 0.950 . S
H241 C264 0.950 . S
H242 C265 0.950 . S
H243 C267 0.950 . S
H244 C268 0.950 . S
H245 C269 0.951 . S
H246 C271 0.951 . S
H247 C273 0.950 . S
H248 C274 0.950 . S
H249 C276 0.950 . S
H250 C279 0.950 . S
H251 C280 0.950 . S
H252 C282 0.950 . S
H253 C283 0.950 . S
C254 H236 0.951 . S
C254 C255 1.366 . S
C254 C256 1.388 . S
C255 C254 1.366 . S
C255 C259 1.385 . S
C256 H237 0.951 . S
C256 C254 1.388 . S
C256 C257 1.366 . S
C257 C256 1.366 . S
C257 C258 1.414 . S
C257 C260 1.499 . S
C258 H238 0.950 . S
C258 C257 1.414 . S
C258 C259 1.374 . S
C259 H239 0.950 . S
C259 C255 1.385 . S
C259 C258 1.374 . S
C260 C257 1.499 . S
C260 C261 1.373 . S
C260 C262 1.389 . S
C261 H240 0.950 . S
C261 C260 1.373 . S
C261 C277 1.377 . S
C262 C260 1.389 . S
C262 C263 1.524 . S
C262 C276 1.377 . S
C263 C262 1.524 . S
C263 C264 1.397 . S
C263 C268 1.363 . S
C264 H241 0.950 . S
C264 C263 1.397 . S
C264 C265 1.334 . S
C265 H242 0.950 . S
C265 C264 1.334 . S
C265 C266 1.287 . S
C266 C265 1.287 . S
C266 C267 1.524 . S
C266 H285 0.913 . S
C267 H243 0.950 . S
C267 C266 1.524 . S
C267 C268 1.415 . S
C268 H244 0.950 . S
C268 C263 1.363 . S
C268 C267 1.415 . S
C269 H245 0.951 . S
C269 C270 1.366 . S
C269 C271 1.388 . S
C270 C269 1.366 . S
C270 C274 1.385 . S
C271 H246 0.951 . S
C271 C269 1.388 . S
C271 C272 1.366 . S
C272 C271 1.366 . S
C272 C273 1.414 . S
C272 C275 1.499 . S
C273 H247 0.950 . S
C273 C272 1.414 . S
C273 C274 1.374 . S
C274 H248 0.950 . S
C274 C270 1.385 . S
C274 C273 1.374 . S
C275 C272 1.499 . S
C275 C276 1.373 . S
C275 C277 1.389 . S
C276 H249 0.950 . S
C276 C262 1.377 . S
C276 C275 1.373 . S
C277 C261 1.377 . S
C277 C275 1.389 . S
C277 C278 1.524 . S
C278 C277 1.524 . S
C278 C279 1.397 . S
C278 C283 1.363 . S
C279 H250 0.950 . S
C279 C278 1.397 . S
C279 C280 1.334 . S
C280 H251 0.950 . S
C280 C279 1.334 . S
C280 C281 1.287 . S
C281 C280 1.287 . S
C281 C282 1.524 . S
C281 H284 0.999 . S
C282 H252 0.950 . S
C282 C281 1.524 . S
C282 C283 1.415 . S
C283 H253 0.950 . S
C283 C278 1.363 . S
C283 C282 1.415 . S
H284 C281 0.999 . S
H285 C266 0.913 . S
H286 C304 0.951 . S
H287 C306 0.951 . S
H288 C308 0.950 . S
H289 C309 0.950 . S
H290 C311 0.950 . S
H291 C314 0.950 . S
H292 C315 0.950 . S
H293 C317 0.950 . S
H294 C318 0.950 . S
H295 C319 0.956 . S
H296 C321 0.951 . S
H297 C323 0.950 . S
H298 C324 0.945 1_544 S
H299 C326 0.950 . S
H300 C329 0.950 . S
H301 C330 0.950 1_554 S
H302 C332 0.950 . S
H303 C333 0.950 . S
C304 H286 0.951 . S
C304 C305 1.366 . S
C304 C306 1.388 . S
C305 C304 1.366 . S
C305 C309 1.385 . S
C306 H287 0.951 . S
C306 C304 1.388 . S
C306 C307 1.366 . S
C307 C306 1.366 . S
C307 C308 1.414 . S
C307 C310 1.499 . S
C308 H288 0.950 . S
C308 C307 1.414 . S
C308 C309 1.374 . S
C309 H289 0.950 . S
C309 C305 1.385 . S
C309 C308 1.374 . S
C310 C307 1.499 . S
C310 C311 1.373 . S
C310 C312 1.389 . S
C311 H290 0.950 . S
C311 C310 1.373 . S
C311 C327 1.377 . S
C312 C310 1.389 . S
C312 C313 1.524 . S
C312 C326 1.377 . S
C313 C312 1.524 . S
C313 C314 1.397 . S
C313 C318 1.363 1_565 S
C314 H291 0.950 . S
C314 C313 1.397 . S
C314 C315 1.334 1_565 S
C315 H292 0.950 . S
C315 C314 1.334 1_545 S
C315 C316 1.287 . S
C316 C315 1.287 . S
C316 C317 1.524 . S
C316 H335 0.913 . S
C317 H293 0.950 . S
C317 C316 1.524 . S
C317 C318 1.415 . S
C318 H294 0.950 . S
C318 C313 1.363 1_545 S
C318 C317 1.415 . S
C319 H295 0.956 . S
C319 C320 1.366 1_556 S
C319 C321 1.388 . S
C320 C319 1.366 1_554 S
C320 C324 1.382 1_554 S
C321 H296 0.951 . S
C321 C319 1.388 . S
C321 C322 1.366 . S
C322 C321 1.366 . S
C322 C323 1.414 . S
C322 C325 1.499 . S
C323 H297 0.950 . S
C323 C322 1.414 . S
C323 C324 1.381 . S
C324 H298 0.945 1_566 S
C324 C320 1.382 1_556 S
C324 C323 1.381 . S
C325 C322 1.499 . S
C325 C326 1.373 . S
C325 C327 1.389 . S
C326 H299 0.950 . S
C326 C312 1.377 . S
C326 C325 1.373 . S
C327 C311 1.377 . S
C327 C325 1.389 . S
C327 C328 1.524 . S
C328 C327 1.524 . S
C328 C329 1.397 . S
C328 C333 1.363 . S
C329 H300 0.950 . S
C329 C328 1.397 . S
C329 C330 1.334 . S
C330 H301 0.950 1_556 S
C330 C329 1.334 . S
C330 C331 1.287 . S
C331 C330 1.287 . S
C331 C332 1.524 . S
C331 H334 0.999 . S
C332 H302 0.950 . S
C332 C331 1.524 . S
C332 C333 1.415 . S
C333 H303 0.950 . S
C333 C328 1.363 . S
C333 C332 1.415 . S
H334 C331 0.999 . S
H335 C316 0.913 . S
H336 C354 0.951 . S
H337 C356 0.951 . S
H338 C358 0.950 . S
H339 C359 0.950 . S
H340 C361 0.950 . S
H341 C364 0.950 . S
H342 C365 0.950 . S
H343 C367 0.950 . S
H344 C368 0.950 . S
H345 C369 0.951 . S
H346 C371 0.951 . S
H347 C373 0.950 . S
H348 C374 0.950 . S
H349 C376 0.950 . S
H350 C379 0.950 . S
H351 C380 0.950 . S
H352 C382 0.950 . S
H353 C383 0.950 . S
C354 H336 0.951 . S
C354 C355 1.366 . S
C354 C356 1.388 . S
C355 C354 1.366 . S
C355 C359 1.385 . S
C356 H337 0.951 . S
C356 C354 1.388 . S
C356 C357 1.366 . S
C357 C356 1.366 . S
C357 C358 1.414 . S
C357 C360 1.499 . S
C358 H338 0.950 . S
C358 C357 1.414 . S
C358 C359 1.374 . S
C359 H339 0.950 . S
C359 C355 1.385 . S
C359 C358 1.374 . S
C360 C357 1.499 . S
C360 C361 1.373 . S
C360 C362 1.389 . S
C361 H340 0.950 . S
C361 C360 1.373 . S
C361 C377 1.377 . S
C362 C360 1.389 . S
C362 C363 1.524 . S
C362 C376 1.377 . S
C363 C362 1.524 . S
C363 C364 1.397 . S
C363 C368 1.363 . S
C364 H341 0.950 . S
C364 C363 1.397 . S
C364 C365 1.334 . S
C365 H342 0.950 . S
C365 C364 1.334 . S
C365 C366 1.287 . S
C366 C365 1.287 . S
C366 C367 1.524 . S
C366 H385 0.913 . S
C367 H343 0.950 . S
C367 C366 1.524 . S
C367 C368 1.415 . S
C368 H344 0.950 . S
C368 C363 1.363 . S
C368 C367 1.415 . S
C369 H345 0.951 . S
C369 C370 1.366 . S
C369 C371 1.388 . S
C370 C369 1.366 . S
C370 C374 1.385 . S
C371 H346 0.951 . S
C371 C369 1.388 . S
C371 C372 1.366 . S
C372 C371 1.366 . S
C372 C373 1.414 . S
C372 C375 1.499 . S
C373 H347 0.950 . S
C373 C372 1.414 . S
C373 C374 1.374 . S
C374 H348 0.950 . S
C374 C370 1.385 . S
C374 C373 1.374 . S
C375 C372 1.499 . S
C375 C376 1.373 . S
C375 C377 1.389 . S
C376 H349 0.950 . S
C376 C362 1.377 . S
C376 C375 1.373 . S
C377 C361 1.377 . S
C377 C375 1.389 . S
C377 C378 1.524 . S
C378 C377 1.524 . S
C378 C379 1.397 . S
C378 C383 1.363 . S
C379 H350 0.950 . S
C379 C378 1.397 . S
C379 C380 1.334 . S
C380 H351 0.950 . S
C380 C379 1.334 . S
C380 C381 1.287 . S
C381 C380 1.287 . S
C381 C382 1.524 . S
C381 H384 0.999 . S
C382 H352 0.950 . S
C382 C381 1.524 . S
C382 C383 1.415 . S
C383 H353 0.950 . S
C383 C378 1.363 . S
C383 C382 1.415 . S
H384 C381 0.999 . S
H385 C366 0.913 . S
H386 C404 0.951 . S
H387 C406 0.951 . S
H388 C408 0.950 . S
H389 C409 0.950 . S
H390 C411 0.950 . S
H391 C414 0.950 . S
H392 C415 0.950 . S
H393 C417 0.950 . S
H394 C418 0.950 . S
H395 C419 0.951 . S
H396 C421 0.951 . S
H397 C423 0.950 . S
H398 C424 0.950 . S
H399 C426 0.950 . S
H400 C429 0.950 . S
H401 C430 0.950 . S
H402 C432 0.950 . S
H403 C433 0.950 . S
C404 H386 0.951 . S
C404 C405 1.366 . S
C404 C406 1.388 . S
C405 C404 1.366 . S
C405 C409 1.385 . S
C406 H387 0.951 . S
C406 C404 1.388 . S
C406 C407 1.366 . S
C407 C406 1.366 . S
C407 C408 1.414 . S
C407 C410 1.499 . S
C408 H388 0.950 . S
C408 C407 1.414 . S
C408 C409 1.374 . S
C409 H389 0.950 . S
C409 C405 1.385 . S
C409 C408 1.374 . S
C410 C407 1.499 . S
C410 C411 1.373 . S
C410 C412 1.389 . S
C411 H390 0.950 . S
C411 C410 1.373 . S
C411 C427 1.377 . S
C412 C410 1.389 . S
C412 C413 1.524 . S
C412 C426 1.377 . S
C413 C412 1.524 . S
C413 C414 1.397 . S
C413 C418 1.363 . S
C414 H391 0.950 . S
C414 C413 1.397 . S
C414 C415 1.334 . S
C415 H392 0.950 . S
C415 C414 1.334 . S
C415 C416 1.287 . S
C416 C415 1.287 . S
C416 C417 1.524 . S
C416 H435 0.913 1_655 S
C417 H393 0.950 . S
C417 C416 1.524 . S
C417 C418 1.415 . S
C418 H394 0.950 . S
C418 C413 1.363 . S
C418 C417 1.415 . S
C419 H395 0.951 . S
C419 C420 1.366 . S
C419 C421 1.388 . S
C420 C419 1.366 . S
C420 C424 1.385 . S
C421 H396 0.951 . S
C421 C419 1.388 . S
C421 C422 1.366 . S
C422 C421 1.366 . S
C422 C423 1.414 . S
C422 C425 1.499 . S
C423 H397 0.950 . S
C423 C422 1.414 . S
C423 C424 1.374 . S
C424 H398 0.950 . S
C424 C420 1.385 . S
C424 C423 1.374 . S
C425 C422 1.499 . S
C425 C426 1.373 . S
C425 C427 1.389 . S
C426 H399 0.950 . S
C426 C412 1.377 . S
C426 C425 1.373 . S
C427 C411 1.377 . S
C427 C425 1.389 . S
C427 C428 1.524 . S
C428 C427 1.524 . S
C428 C429 1.397 . S
C428 C433 1.363 . S
C429 H400 0.950 . S
C429 C428 1.397 . S
C429 C430 1.334 . S
C430 H401 0.950 . S
C430 C429 1.334 . S
C430 C431 1.287 . S
C431 C430 1.287 . S
C431 C432 1.524 . S
C431 H434 0.999 . S
C432 H402 0.950 . S
C432 C431 1.524 . S
C432 C433 1.415 . S
C433 H403 0.950 . S
C433 C428 1.363 . S
C433 C432 1.415 . S
H434 C431 0.999 . S
H435 C416 0.913 1_455 S
H436 C454 0.951 . S
H437 C456 0.951 . S
H438 C458 0.950 . S
H439 C459 0.950 . S
H440 C461 0.950 . S
H441 C464 0.950 . S
H442 C465 0.950 . S
H443 C467 0.950 . S
H444 C468 0.950 . S
H445 C469 0.951 . S
H446 C471 0.951 . S
H447 C473 0.950 . S
H448 C474 0.950 . S
H449 C476 0.950 . S
H450 C479 0.950 . S
H451 C480 0.950 . S
H452 C482 0.950 . S
H453 C483 0.950 . S
C454 H436 0.951 . S
C454 C455 1.366 . S
C454 C456 1.388 . S
C455 C454 1.366 . S
C455 C459 1.385 . S
C456 H437 0.951 . S
C456 C454 1.388 . S
C456 C457 1.366 . S
C457 C456 1.366 . S
C457 C458 1.414 . S
C457 C460 1.499 . S
C458 H438 0.950 . S
C458 C457 1.414 . S
C458 C459 1.374 . S
C459 H439 0.950 . S
C459 C455 1.385 . S
C459 C458 1.374 . S
C460 C457 1.499 . S
C460 C461 1.373 . S
C460 C462 1.389 . S
C461 H440 0.950 . S
C461 C460 1.373 . S
C461 C477 1.377 . S
C462 C460 1.389 . S
C462 C463 1.524 . S
C462 C476 1.377 . S
C463 C462 1.524 . S
C463 C464 1.397 . S
C463 C468 1.363 . S
C464 H441 0.950 . S
C464 C463 1.397 . S
C464 C465 1.334 . S
C465 H442 0.950 . S
C465 C464 1.334 . S
C465 C466 1.287 . S
C466 C465 1.287 . S
C466 C467 1.524 . S
C466 H485 0.913 . S
C467 H443 0.950 . S
C467 C466 1.524 . S
C467 C468 1.415 . S
C468 H444 0.950 . S
C468 C463 1.363 . S
C468 C467 1.415 . S
C469 H445 0.951 . S
C469 C470 1.366 . S
C469 C471 1.388 . S
C470 C469 1.366 . S
C470 C474 1.385 . S
C471 H446 0.951 . S
C471 C469 1.388 . S
C471 C472 1.366 . S
C472 C471 1.366 . S
C472 C473 1.414 . S
C472 C475 1.499 . S
C473 H447 0.950 . S
C473 C472 1.414 . S
C473 C474 1.374 . S
C474 H448 0.950 . S
C474 C470 1.385 . S
C474 C473 1.374 . S
C475 C472 1.499 . S
C475 C476 1.373 . S
C475 C477 1.389 . S
C476 H449 0.950 . S
C476 C462 1.377 . S
C476 C475 1.373 . S
C477 C461 1.377 . S
C477 C475 1.389 . S
C477 C478 1.524 . S
C478 C477 1.524 . S
C478 C479 1.397 . S
C478 C483 1.363 . S
C479 H450 0.950 . S
C479 C478 1.397 . S
C479 C480 1.334 . S
C480 H451 0.950 . S
C480 C479 1.334 . S
C480 C481 1.287 . S
C481 C480 1.287 . S
C481 C482 1.524 . S
C481 H484 0.999 . S
C482 H452 0.950 . S
C482 C481 1.524 . S
C482 C483 1.415 . S
C483 H453 0.950 . S
C483 C478 1.363 . S
C483 C482 1.415 . S
H484 C481 0.999 . S
H485 C466 0.913 . S
H486 C504 0.951 . S
H487 C506 0.951 . S
H488 C508 0.950 . S
H489 C509 0.950 . S
H490 C511 0.950 . S
H491 C514 0.950 . S
H492 C515 0.950 . S
H493 C517 0.950 . S
H494 C518 0.950 . S
H495 C519 0.951 . S
H496 C521 0.951 . S
H497 C523 0.950 . S
H498 C524 0.950 . S
H499 C526 0.924 1_545 S
H500 C529 0.950 . S
H501 C530 0.950 . S
H502 C532 0.950 . S
H503 C533 0.950 . S
C504 H486 0.951 . S
C504 C505 1.366 . S
C504 C506 1.388 . S
C505 C504 1.366 . S
C505 C509 1.385 . S
C506 H487 0.951 . S
C506 C504 1.388 . S
C506 C507 1.366 . S
C507 C506 1.366 . S
C507 C508 1.414 . S
C507 C510 1.499 . S
C508 H488 0.950 . S
C508 C507 1.414 . S
C508 C509 1.374 . S
C509 H489 0.950 . S
C509 C505 1.385 . S
C509 C508 1.374 . S
C510 C507 1.499 . S
C510 C511 1.373 . S
C510 C512 1.389 . S
C511 H490 0.950 . S
C511 C510 1.373 . S
C511 C527 1.377 . S
C512 C510 1.389 . S
C512 C513 1.524 1_565 S
C512 C526 1.389 . S
C513 C512 1.524 1_545 S
C513 C514 1.397 . S
C513 C518 1.363 . S
C514 H491 0.950 . S
C514 C513 1.397 . S
C514 C515 1.334 . S
C515 H492 0.950 . S
C515 C514 1.334 . S
C515 C516 1.287 . S
C516 C515 1.287 . S
C516 C517 1.524 . S
C516 H535 0.913 . S
C517 H493 0.950 . S
C517 C516 1.524 . S
C517 C518 1.415 . S
C518 H494 0.950 . S
C518 C513 1.363 . S
C518 C517 1.415 . S
C519 H495 0.951 . S
C519 C520 1.366 1_565 S
C519 C521 1.388 . S
C520 C519 1.366 1_545 S
C520 C524 1.385 . S
C521 H496 0.951 . S
C521 C519 1.388 . S
C521 C522 1.366 . S
C522 C521 1.366 . S
C522 C523 1.414 1_565 S
C522 C525 1.499 . S
C523 H497 0.950 . S
C523 C522 1.414 1_545 S
C523 C524 1.374 . S
C524 H498 0.950 . S
C524 C520 1.385 . S
C524 C523 1.374 . S
C525 C522 1.499 . S
C525 C526 1.387 . S
C525 C527 1.389 . S
C526 H499 0.924 1_565 S
C526 C512 1.389 . S
C526 C525 1.387 . S
C527 C511 1.377 . S
C527 C525 1.389 . S
C527 C528 1.524 . S
C528 C527 1.524 . S
C528 C529 1.397 . S
C528 C533 1.363 . S
C529 H500 0.950 . S
C529 C528 1.397 . S
C529 C530 1.334 . S
C530 H501 0.950 . S
C530 C529 1.334 . S
C530 C531 1.287 . S
C531 C530 1.287 . S
C531 C532 1.524 . S
C531 H534 0.999 . S
C532 H502 0.950 . S
C532 C531 1.524 . S
C532 C533 1.415 . S
C533 H503 0.950 . S
C533 C528 1.363 . S
C533 C532 1.415 . S
H534 C531 0.999 . S
H535 C516 0.913 . S
H536 C554 0.951 . S
H537 C556 0.951 . S
H538 C558 0.950 . S
H539 C559 0.950 . S
H540 C561 0.950 . S
H541 C564 0.950 . S
H542 C565 0.950 . S
H543 C567 0.950 . S
H544 C568 0.950 . S
H545 C569 0.951 . S
H546 C571 0.951 . S
H547 C573 0.950 . S
H548 C574 0.950 . S
H549 C576 0.950 . S
H550 C579 0.950 . S
H551 C580 0.950 . S
H552 C582 0.950 . S
H553 C583 0.950 1_556 S
C554 H536 0.951 . S
C554 C555 1.366 . S
C554 C556 1.388 . S
C555 C554 1.366 . S
C555 C559 1.385 . S
C556 H537 0.951 . S
C556 C554 1.388 . S
C556 C557 1.366 . S
C557 C556 1.366 . S
C557 C558 1.414 . S
C557 C560 1.499 . S
C558 H538 0.950 . S
C558 C557 1.414 . S
C558 C559 1.374 . S
C559 H539 0.950 . S
C559 C555 1.385 . S
C559 C558 1.374 . S
C560 C557 1.499 . S
C560 C561 1.373 . S
C560 C562 1.389 . S
C561 H540 0.950 . S
C561 C560 1.373 . S
C561 C577 1.377 . S
C562 C560 1.389 . S
C562 C563 1.524 . S
C562 C576 1.377 . S
C563 C562 1.524 . S
C563 C564 1.397 . S
C563 C568 1.363 . S
C564 H541 0.950 . S
C564 C563 1.397 . S
C564 C565 1.334 . S
C565 H542 0.950 . S
C565 C564 1.334 . S
C565 C566 1.287 . S
C566 C565 1.287 . S
C566 C567 1.524 . S
C566 H585 0.913 . S
C567 H543 0.950 . S
C567 C566 1.524 . S
C567 C568 1.415 . S
C568 H544 0.950 . S
C568 C563 1.363 . S
C568 C567 1.415 . S
C569 H545 0.951 . S
C569 C570 1.366 . S
C569 C571 1.388 . S
C570 C569 1.366 . S
C570 C574 1.385 . S
C571 H546 0.951 . S
C571 C569 1.388 . S
C571 C572 1.366 . S
C572 C571 1.366 . S
C572 C573 1.414 . S
C572 C575 1.499 . S
C573 H547 0.950 . S
C573 C572 1.414 . S
C573 C574 1.374 . S
C574 H548 0.950 . S
C574 C570 1.385 . S
C574 C573 1.374 . S
C575 C572 1.499 . S
C575 C576 1.373 . S
C575 C577 1.389 . S
C576 H549 0.950 . S
C576 C562 1.377 . S
C576 C575 1.373 . S
C577 C561 1.377 . S
C577 C575 1.389 . S
C577 C578 1.523 1_556 S
C578 C577 1.523 1_554 S
C578 C579 1.398 . S
C578 C583 1.363 . S
C579 H550 0.950 . S
C579 C578 1.398 . S
C579 C580 1.334 . S
C580 H551 0.950 . S
C580 C579 1.334 . S
C580 C581 1.287 . S
C581 C580 1.287 . S
C581 C582 1.524 . S
C581 H584 0.999 . S
C582 H552 0.950 . S
C582 C581 1.524 . S
C582 C583 1.415 . S
C583 H553 0.950 1_554 S
C583 C578 1.363 . S
C583 C582 1.415 . S
H584 C581 0.999 . S
H585 C566 0.913 . S
H586 C604 0.951 . S
H587 C606 0.951 . S
H588 C608 0.950 . S
H589 C609 0.950 . S
H590 C611 0.950 . S
H591 C614 0.950 . S
H592 C615 0.950 . S
H593 C617 0.950 . S
H594 C618 0.950 . S
H595 C619 0.951 . S
H596 C621 0.951 . S
H597 C623 0.950 . S
H598 C624 0.950 . S
H599 C626 0.950 . S
H600 C629 0.950 . S
H601 C630 0.950 . S
H602 C632 0.950 . S
H603 C633 0.950 . S
C604 H586 0.951 . S
C604 C605 1.366 . S
C604 C606 1.388 . S
C605 C604 1.366 . S
C605 C609 1.385 . S
C606 H587 0.951 . S
C606 C604 1.388 . S
C606 C607 1.366 . S
C607 C606 1.366 . S
C607 C608 1.414 . S
C607 C610 1.499 . S
C608 H588 0.950 . S
C608 C607 1.414 . S
C608 C609 1.374 . S
C609 H589 0.950 . S
C609 C605 1.385 . S
C609 C608 1.374 . S
C610 C607 1.499 . S
C610 C611 1.373 . S
C610 C612 1.389 . S
C611 H590 0.950 . S
C611 C610 1.373 . S
C611 C627 1.377 . S
C612 C610 1.389 . S
C612 C613 1.524 . S
C612 C626 1.377 . S
C613 C612 1.524 . S
C613 C614 1.397 . S
C613 C618 1.363 . S
C614 H591 0.950 . S
C614 C613 1.397 . S
C614 C615 1.334 . S
C615 H592 0.950 . S
C615 C614 1.334 . S
C615 C616 1.287 . S
C616 C615 1.287 . S
C616 C617 1.524 . S
C616 H635 0.913 . S
C617 H593 0.950 . S
C617 C616 1.524 . S
C617 C618 1.415 . S
C618 H594 0.950 . S
C618 C613 1.363 . S
C618 C617 1.415 . S
C619 H595 0.951 . S
C619 C620 1.366 . S
C619 C621 1.388 . S
C620 C619 1.366 . S
C620 C624 1.385 . S
C621 H596 0.951 . S
C621 C619 1.388 . S
C621 C622 1.366 . S
C622 C621 1.366 . S
C622 C623 1.414 . S
C622 C625 1.499 . S
C623 H597 0.950 . S
C623 C622 1.414 . S
C623 C624 1.374 . S
C624 H598 0.950 . S
C624 C620 1.385 . S
C624 C623 1.374 . S
C625 C622 1.499 . S
C625 C626 1.373 . S
C625 C627 1.389 . S
C626 H599 0.950 . S
C626 C612 1.377 . S
C626 C625 1.373 . S
C627 C611 1.377 . S
C627 C625 1.389 . S
C627 C628 1.524 . S
C628 C627 1.524 . S
C628 C629 1.397 . S
C628 C633 1.363 . S
C629 H600 0.950 . S
C629 C628 1.397 . S
C629 C630 1.334 . S
C630 H601 0.950 . S
C630 C629 1.334 . S
C630 C631 1.287 . S
C631 C630 1.287 . S
C631 C632 1.524 . S
C631 H634 0.999 . S
C632 H602 0.950 . S
C632 C631 1.524 . S
C632 C633 1.415 . S
C633 H603 0.950 . S
C633 C628 1.363 . S
C633 C632 1.415 . S
H634 C631 0.999 . S
H635 C616 0.913 . S
H636 C654 0.951 . S
H637 C656 0.951 . S
H638 C658 0.950 . S
H639 C659 0.950 . S
H640 C661 0.950 . S
H641 C664 0.950 . S
H642 C665 0.950 . S
H643 C667 0.950 . S
H644 C668 0.950 . S
H645 C669 0.951 . S
H646 C671 0.951 . S
H647 C673 0.950 . S
H648 C674 0.950 . S
H649 C676 0.950 . S
H650 C679 0.950 . S
H651 C680 0.950 . S
H652 C682 0.950 . S
H653 C683 0.950 . S
C654 H636 0.951 . S
C654 C655 1.366 . S
C654 C656 1.388 . S
C655 C654 1.366 . S
C655 C659 1.385 . S
C656 H637 0.951 . S
C656 C654 1.388 . S
C656 C657 1.366 . S
C657 C656 1.366 . S
C657 C658 1.414 . S
C657 C660 1.499 . S
C658 H638 0.950 . S
C658 C657 1.414 . S
C658 C659 1.374 . S
C659 H639 0.950 . S
C659 C655 1.385 . S
C659 C658 1.374 . S
C660 C657 1.499 . S
C660 C661 1.373 . S
C660 C662 1.389 . S
C661 H640 0.950 . S
C661 C660 1.373 . S
C661 C677 1.377 . S
C662 C660 1.389 . S
C662 C663 1.524 . S
C662 C676 1.377 . S
C663 C662 1.524 . S
C663 C664 1.397 . S
C663 C668 1.363 . S
C664 H641 0.950 . S
C664 C663 1.397 . S
C664 C665 1.334 . S
C665 H642 0.950 . S
C665 C664 1.334 . S
C665 C666 1.287 . S
C666 C665 1.287 . S
C666 C667 1.524 . S
C666 H685 0.913 . S
C667 H643 0.950 . S
C667 C666 1.524 . S
C667 C668 1.415 . S
C668 H644 0.950 . S
C668 C663 1.363 . S
C668 C667 1.415 . S
C669 H645 0.951 . S
C669 C670 1.366 . S
C669 C671 1.388 . S
C670 C669 1.366 . S
C670 C674 1.385 . S
C671 H646 0.951 . S
C671 C669 1.388 . S
C671 C672 1.366 . S
C672 C671 1.366 . S
C672 C673 1.414 . S
C672 C675 1.499 . S
C673 H647 0.950 . S
C673 C672 1.414 . S
C673 C674 1.374 . S
C674 H648 0.950 . S
C674 C670 1.385 . S
C674 C673 1.374 . S
C675 C672 1.499 . S
C675 C676 1.373 . S
C675 C677 1.389 . S
C676 H649 0.950 . S
C676 C662 1.377 . S
C676 C675 1.373 . S
C677 C661 1.377 . S
C677 C675 1.389 . S
C677 C678 1.524 . S
C678 C677 1.524 . S
C678 C679 1.397 . S
C678 C683 1.363 . S
C679 H650 0.950 . S
C679 C678 1.397 . S
C679 C680 1.334 . S
C680 H651 0.950 . S
C680 C679 1.334 . S
C680 C681 1.287 . S
C681 C680 1.287 . S
C681 C682 1.524 . S
C681 H684 0.999 . S
C682 H652 0.950 . S
C682 C681 1.524 . S
C682 C683 1.415 . S
C683 H653 0.950 . S
C683 C678 1.363 . S
C683 C682 1.415 . S
H684 C681 0.999 . S
H685 C666 0.913 . S
H686 C704 0.951 . S
H687 C706 0.951 . S
H688 C708 0.950 . S
H689 C709 0.950 . S
H690 C711 0.950 . S
H691 C714 0.950 . S
H692 C715 0.950 . S
H693 C717 0.950 . S
H694 C718 0.950 . S
H695 C719 0.951 . S
H696 C721 0.951 . S
H697 C723 0.950 . S
H698 C724 0.950 . S
H699 C726 0.950 . S
H700 C729 0.950 . S
H701 C730 0.950 . S
H702 C732 0.950 . S
H703 C733 0.950 . S
C704 H686 0.951 . S
C704 C705 1.366 . S
C704 C706 1.388 . S
C705 C704 1.366 . S
C705 C709 1.385 . S
C706 H687 0.951 . S
C706 C704 1.388 . S
C706 C707 1.366 . S
C707 C706 1.366 . S
C707 C708 1.414 . S
C707 C710 1.499 . S
C708 H688 0.950 . S
C708 C707 1.414 . S
C708 C709 1.374 . S
C709 H689 0.950 . S
C709 C705 1.385 . S
C709 C708 1.374 . S
C710 C707 1.499 . S
C710 C711 1.373 . S
C710 C712 1.389 1_556 S
C711 H690 0.950 . S
C711 C710 1.373 . S
C711 C727 1.377 . S
C712 C710 1.389 1_554 S
C712 C713 1.524 . S
C712 C726 1.377 . S
C713 C712 1.524 . S
C713 C714 1.397 . S
C713 C718 1.363 . S
C714 H691 0.950 . S
C714 C713 1.397 . S
C714 C715 1.334 . S
C715 H692 0.950 . S
C715 C714 1.334 . S
C715 C716 1.287 . S
C716 C715 1.287 . S
C716 C717 1.524 . S
C716 H735 0.913 . S
C717 H693 0.950 . S
C717 C716 1.524 . S
C717 C718 1.415 . S
C718 H694 0.950 . S
C718 C713 1.363 . S
C718 C717 1.415 . S
C719 H695 0.951 . S
C719 C720 1.366 . S
C719 C721 1.388 . S
C720 C719 1.366 . S
C720 C724 1.385 . S
C721 H696 0.951 . S
C721 C719 1.388 . S
C721 C722 1.366 . S
C722 C721 1.366 . S
C722 C723 1.414 . S
C722 C725 1.513 . S
C723 H697 0.950 . S
C723 C722 1.414 . S
C723 C724 1.374 . S
C724 H698 0.950 . S
C724 C720 1.385 . S
C724 C723 1.374 . S
C725 C722 1.513 . S
C725 C726 1.388 . S
C725 C727 1.361 1_554 S
C726 H699 0.950 . S
C726 C712 1.377 . S
C726 C725 1.388 . S
C727 C711 1.377 . S
C727 C725 1.361 1_556 S
C727 C728 1.524 . S
C728 C727 1.524 . S
C728 C729 1.397 . S
C728 C733 1.363 . S
C729 H700 0.950 . S
C729 C728 1.397 . S
C729 C730 1.334 . S
C730 H701 0.950 . S
C730 C729 1.334 . S
C730 C731 1.287 . S
C731 C730 1.287 . S
C731 C732 1.524 . S
C731 H734 0.999 . S
C732 H702 0.950 . S
C732 C731 1.524 . S
C732 C733 1.415 . S
C733 H703 0.950 . S
C733 C728 1.363 . S
C733 C732 1.415 . S
H734 C731 0.999 . S
H735 C716 0.913 . S
H736 C754 0.951 . S
H737 C756 0.951 . S
H738 C758 0.950 . S
H739 C759 0.950 . S
H740 C761 0.950 . S
H741 C764 0.950 . S
H742 C765 0.950 . S
H743 C767 0.950 . S
H744 C768 0.950 . S
H745 C769 0.951 . S
H746 C771 0.951 . S
H747 C773 0.950 . S
H748 C774 0.925 1_455 S
H749 C776 0.950 . S
H750 C779 0.950 . S
H751 C780 0.950 . S
H752 C782 0.950 . S
H753 C783 0.950 . S
C754 H736 0.951 . S
C754 C755 1.366 . S
C754 C756 1.388 . S
C755 C754 1.366 . S
C755 C759 1.385 . S
C756 H737 0.951 . S
C756 C754 1.388 . S
C756 C757 1.366 . S
C757 C756 1.366 . S
C757 C758 1.414 . S
C757 C760 1.499 . S
C758 H738 0.950 . S
C758 C757 1.414 . S
C758 C759 1.374 . S
C759 H739 0.950 . S
C759 C755 1.385 . S
C759 C758 1.374 . S
C760 C757 1.499 . S
C760 C761 1.373 . S
C760 C762 1.389 . S
C761 H740 0.950 . S
C761 C760 1.373 . S
C761 C777 1.377 . S
C762 C760 1.389 . S
C762 C763 1.524 . S
C762 C776 1.377 . S
C763 C762 1.524 . S
C763 C764 1.397 . S
C763 C768 1.363 . S
C764 H741 0.950 . S
C764 C763 1.397 . S
C764 C765 1.334 . S
C765 H742 0.950 . S
C765 C764 1.334 . S
C765 C766 1.287 . S
C766 C765 1.287 . S
C766 C767 1.524 . S
C766 H785 0.913 . S
C767 H743 0.950 . S
C767 C766 1.524 . S
C767 C768 1.415 . S
C768 H744 0.950 . S
C768 C763 1.363 . S
C768 C767 1.415 . S
C769 H745 0.951 . S
C769 C770 1.366 . S
C769 C771 1.388 . S
C770 C769 1.366 . S
C770 C774 1.385 . S
C771 H746 0.951 . S
C771 C769 1.388 . S
C771 C772 1.366 . S
C772 C771 1.366 . S
C772 C773 1.414 . S
C772 C775 1.499 . S
C773 H747 0.950 . S
C773 C772 1.414 . S
C773 C774 1.374 . S
C774 H748 0.925 1_655 S
C774 C770 1.385 . S
C774 C773 1.374 . S
C775 C772 1.499 . S
C775 C776 1.373 . S
C775 C777 1.389 . S
C776 H749 0.950 . S
C776 C762 1.377 . S
C776 C775 1.373 . S
C777 C761 1.377 . S
C777 C775 1.389 . S
C777 C778 1.524 . S
C778 C777 1.524 . S
C778 C779 1.397 . S
C778 C783 1.363 . S
C779 H750 0.950 . S
C779 C778 1.397 . S
C779 C780 1.334 . S
C780 H751 0.950 . S
C780 C779 1.334 . S
C780 C781 1.287 . S
C781 C780 1.287 . S
C781 C782 1.524 . S
C781 H784 0.999 . S
C782 H752 0.950 . S
C782 C781 1.524 . S
C782 C783 1.415 . S
C783 H753 0.950 . S
C783 C778 1.363 . S
C783 C782 1.415 . S
H784 C781 0.999 . S
H785 C766 0.913 . S
H786 C804 0.951 . S
H787 C806 0.951 . S
H788 C808 0.950 . S
H789 C809 0.950 . S
H790 C811 0.950 . S
H791 C814 0.950 . S
H792 C815 0.950 . S
H793 C817 0.950 . S
H794 C818 0.950 . S
H795 C819 0.951 . S
H796 C821 0.951 . S
H797 C823 0.950 . S
H798 C824 0.950 . S
H799 C826 0.950 . S
H800 C829 0.950 . S
H801 C830 0.950 . S
H802 C832 0.950 . S
H803 C833 0.950 . S
C804 H786 0.951 . S
C804 C805 1.366 . S
C804 C806 1.388 . S
C805 C804 1.366 . S
C805 C809 1.385 . S
C806 H787 0.951 . S
C806 C804 1.388 . S
C806 C807 1.366 . S
C807 C806 1.366 . S
C807 C808 1.414 . S
C807 C810 1.499 . S
C808 H788 0.950 . S
C808 C807 1.414 . S
C808 C809 1.374 . S
C809 H789 0.950 . S
C809 C805 1.385 . S
C809 C808 1.374 . S
C810 C807 1.499 . S
C810 C811 1.373 . S
C810 C812 1.389 . S
C811 H790 0.950 . S
C811 C810 1.373 . S
C811 C827 1.377 . S
C812 C810 1.389 . S
C812 C813 1.524 . S
C812 C826 1.377 . S
C813 C812 1.524 . S
C813 C814 1.397 . S
C813 C818 1.363 . S
C814 H791 0.950 . S
C814 C813 1.397 . S
C814 C815 1.334 . S
C815 H792 0.950 . S
C815 C814 1.334 . S
C815 C816 1.287 . S
C816 C815 1.287 . S
C816 C817 1.524 . S
C816 H835 0.913 . S
C817 H793 0.950 . S
C817 C816 1.524 . S
C817 C818 1.415 . S
C818 H794 0.950 . S
C818 C813 1.363 . S
C818 C817 1.415 . S
C819 H795 0.951 . S
C819 C820 1.366 . S
C819 C821 1.388 . S
C820 C819 1.366 . S
C820 C824 1.385 . S
C821 H796 0.951 . S
C821 C819 1.388 . S
C821 C822 1.366 . S
C822 C821 1.366 . S
C822 C823 1.414 . S
C822 C825 1.499 . S
C823 H797 0.950 . S
C823 C822 1.414 . S
C823 C824 1.374 . S
C824 H798 0.950 . S
C824 C820 1.385 . S
C824 C823 1.374 . S
C825 C822 1.499 . S
C825 C826 1.373 . S
C825 C827 1.389 . S
C826 H799 0.950 . S
C826 C812 1.377 . S
C826 C825 1.373 . S
C827 C811 1.377 . S
C827 C825 1.389 . S
C827 C828 1.524 . S
C828 C827 1.524 . S
C828 C829 1.397 . S
C828 C833 1.363 . S
C829 H800 0.950 . S
C829 C828 1.397 . S
C829 C830 1.334 . S
C830 H801 0.950 . S
C830 C829 1.334 . S
C830 C831 1.287 . S
C831 C830 1.287 . S
C831 C832 1.524 . S
C831 H834 0.999 . S
C832 H802 0.950 . S
C832 C831 1.524 . S
C832 C833 1.415 . S
C833 H803 0.950 . S
C833 C828 1.363 . S
C833 C832 1.415 . S
H834 C831 0.999 . S
H835 C816 0.913 . S
H836 C854 0.951 . S
H837 C856 0.951 . S
H838 C858 0.950 . S
H839 C859 0.950 . S
H840 C861 0.926 1_455 S
H841 C864 0.950 1_565 S
H842 C865 0.950 . S
H843 C867 0.950 . S
H844 C868 0.950 . S
H845 C869 0.951 1_565 S
H846 C871 0.968 . S
H847 C873 0.950 . S
H848 C874 0.950 . S
H849 C876 0.950 . S
H850 C879 0.950 . S
H851 C880 0.950 . S
H852 C882 0.950 . S
H853 C883 0.950 . S
C854 H836 0.951 . S
C854 C855 1.389 . S
C854 C856 1.388 . S
C855 C854 1.389 . S
C855 C859 1.364 1_545 S
C856 H837 0.951 . S
C856 C854 1.388 . S
C856 C857 1.366 . S
C857 C856 1.366 . S
C857 C858 1.414 1_545 S
C857 C860 1.499 . S
C858 H838 0.950 . S
C858 C857 1.414 1_565 S
C858 C859 1.374 . S
C859 H839 0.950 . S
C859 C855 1.364 1_565 S
C859 C858 1.374 . S
C860 C857 1.499 . S
C860 C861 1.402 1_545 S
C860 C862 1.389 . S
C861 H840 0.926 1_655 S
C861 C860 1.402 1_565 S
C861 C877 1.374 1_665 S
C862 C860 1.389 . S
C862 C863 1.524 . S
C862 C876 1.377 . S
C863 C862 1.524 . S
C863 C864 1.397 . S
C863 C868 1.363 . S
C864 H841 0.950 1_545 S
C864 C863 1.397 . S
C864 C865 1.334 . S
C865 H842 0.950 . S
C865 C864 1.334 . S
C865 C866 1.287 . S
C866 C865 1.287 . S
C866 C867 1.524 . S
C866 H885 0.913 . S
C867 H843 0.950 . S
C867 C866 1.524 . S
C867 C868 1.415 . S
C868 H844 0.950 . S
C868 C863 1.363 . S
C868 C867 1.415 . S
C869 H845 0.951 1_545 S
C869 C870 1.366 . S
C869 C871 1.386 1_545 S
C870 C869 1.366 . S
C870 C874 1.385 . S
C871 H846 0.968 . S
C871 C869 1.386 1_565 S
C871 C872 1.351 1_565 S
C872 C871 1.351 1_545 S
C872 C873 1.414 . S
C872 C875 1.499 . S
C873 H847 0.950 . S
C873 C872 1.414 . S
C873 C874 1.374 . S
C874 H848 0.950 . S
C874 C870 1.385 . S
C874 C873 1.374 . S
C875 C872 1.499 . S
C875 C876 1.373 . S
C875 C877 1.389 1_655 S
C876 H849 0.950 . S
C876 C862 1.377 . S
C876 C875 1.373 . S
C877 C861 1.374 1_445 S
C877 C875 1.389 1_455 S
C877 C878 1.524 1_545 S
C878 C877 1.524 1_565 S
C878 C879 1.397 1_565 S
C878 C883 1.363 . S
C879 H850 0.950 . S
C879 C878 1.397 1_545 S
C879 C880 1.334 . S
C880 H851 0.950 . S
C880 C879 1.334 . S
C880 C881 1.287 1_545 S
C881 C880 1.287 1_565 S
C881 C882 1.524 . S
C881 H884 0.999 . S
C882 H852 0.950 . S
C882 C881 1.524 . S
C882 C883 1.415 . S
C883 H853 0.950 . S
C883 C878 1.363 . S
C883 C882 1.415 . S
H884 C881 0.999 . S
H885 C866 0.913 . S
H886 C904 0.951 . S
H887 C906 0.951 . S
H888 C908 0.950 . S
H889 C909 0.950 . S
H890 C911 0.950 . S
H891 C914 0.950 . S
H892 C915 0.950 . S
H893 C917 0.950 . S
H894 C918 0.950 . S
H895 C919 0.951 . S
H896 C921 0.951 . S
H897 C923 0.950 . S
H898 C924 0.950 . S
H899 C926 0.950 . S
H900 C929 0.950 . S
H901 C930 0.950 . S
H902 C932 0.950 . S
H903 C933 0.950 . S
C904 H886 0.951 . S
C904 C905 1.366 . S
C904 C906 1.388 . S
C905 C904 1.366 . S
C905 C909 1.385 . S
C906 H887 0.951 . S
C906 C904 1.388 . S
C906 C907 1.366 . S
C907 C906 1.366 . S
C907 C908 1.414 . S
C907 C910 1.499 . S
C908 H888 0.950 . S
C908 C907 1.414 . S
C908 C909 1.374 . S
C909 H889 0.950 . S
C909 C905 1.385 . S
C909 C908 1.374 . S
C910 C907 1.499 . S
C910 C911 1.373 . S
C910 C912 1.389 . S
C911 H890 0.950 . S
C911 C910 1.373 . S
C911 C927 1.377 . S
C912 C910 1.389 . S
C912 C913 1.524 . S
C912 C926 1.377 . S
C913 C912 1.524 . S
C913 C914 1.397 . S
C913 C918 1.363 . S
C914 H891 0.950 . S
C914 C913 1.397 . S
C914 C915 1.334 . S
C915 H892 0.950 . S
C915 C914 1.334 . S
C915 C916 1.287 . S
C916 C915 1.287 . S
C916 C917 1.524 . S
C916 H935 0.913 . S
C917 H893 0.950 . S
C917 C916 1.524 . S
C917 C918 1.415 . S
C918 H894 0.950 . S
C918 C913 1.363 . S
C918 C917 1.415 . S
C919 H895 0.951 . S
C919 C920 1.366 . S
C919 C921 1.388 . S
C920 C919 1.366 . S
C920 C924 1.385 . S
C921 H896 0.951 . S
C921 C919 1.388 . S
C921 C922 1.366 . S
C922 C921 1.366 . S
C922 C923 1.414 . S
C922 C925 1.499 . S
C923 H897 0.950 . S
C923 C922 1.414 . S
C923 C924 1.374 . S
C924 H898 0.950 . S
C924 C920 1.385 . S
C924 C923 1.374 . S
C925 C922 1.499 . S
C925 C926 1.373 . S
C925 C927 1.389 . S
C926 H899 0.950 . S
C926 C912 1.377 . S
C926 C925 1.373 . S
C927 C911 1.377 . S
C927 C925 1.389 . S
C927 C928 1.524 . S
C928 C927 1.524 . S
C928 C929 1.397 . S
C928 C933 1.363 1_545 S
C929 H900 0.950 . S
C929 C928 1.397 . S
C929 C930 1.334 1_545 S
C930 H901 0.950 . S
C930 C929 1.334 1_565 S
C930 C931 1.287 . S
C931 C930 1.287 . S
C931 C932 1.524 . S
C931 H934 0.999 . S
C932 H902 0.950 . S
C932 C931 1.524 . S
C932 C933 1.415 . S
C933 H903 0.950 . S
C933 C928 1.363 1_565 S
C933 C932 1.415 . S
H934 C931 0.999 . S
H935 C916 0.913 . S
H936 C954 0.951 . S
H937 C956 0.951 . S
H938 C958 0.950 . S
H939 C959 0.950 . S
H940 C961 0.950 . S
H941 C964 0.950 . S
H942 C965 0.950 . S
H943 C967 0.950 . S
H944 C968 0.950 . S
H945 C969 0.951 . S
H946 C971 0.951 . S
H947 C973 0.950 . S
H948 C974 0.950 . S
H949 C976 0.950 . S
H950 C979 0.950 . S
H951 C980 0.950 . S
H952 C982 0.950 . S
H953 C983 0.950 . S
C954 H936 0.951 . S
C954 C955 1.366 . S
C954 C956 1.388 . S
C955 C954 1.366 . S
C955 C959 1.385 . S
C956 H937 0.951 . S
C956 C954 1.388 . S
C956 C957 1.366 . S
C957 C956 1.366 . S
C957 C958 1.414 . S
C957 C960 1.499 . S
C958 H938 0.950 . S
C958 C957 1.414 . S
C958 C959 1.374 . S
C959 H939 0.950 . S
C959 C955 1.385 . S
C959 C958 1.374 . S
C960 C957 1.499 . S
C960 C961 1.373 . S
C960 C962 1.389 . S
C961 H940 0.950 . S
C961 C960 1.373 . S
C961 C977 1.377 . S
C962 C960 1.389 . S
C962 C963 1.524 . S
C962 C976 1.377 . S
C963 C962 1.524 . S
C963 C964 1.397 . S
C963 C968 1.363 . S
C964 H941 0.950 . S
C964 C963 1.397 . S
C964 C965 1.334 . S
C965 H942 0.950 . S
C965 C964 1.334 . S
C965 C966 1.287 . S
C966 C965 1.287 . S
C966 C967 1.524 . S
C966 H985 0.913 . S
C967 H943 0.950 . S
C967 C966 1.524 . S
C967 C968 1.415 . S
C968 H944 0.950 . S
C968 C963 1.363 . S
C968 C967 1.415 . S
C969 H945 0.951 . S
C969 C970 1.366 . S
C969 C971 1.388 . S
C970 C969 1.366 . S
C970 C974 1.385 . S
C971 H946 0.951 . S
C971 C969 1.388 . S
C971 C972 1.366 . S
C972 C971 1.366 . S
C972 C973 1.414 . S
C972 C975 1.499 . S
C973 H947 0.950 . S
C973 C972 1.414 . S
C973 C974 1.374 . S
C974 H948 0.950 . S
C974 C970 1.385 . S
C974 C973 1.374 . S
C975 C972 1.499 . S
C975 C976 1.373 . S
C975 C977 1.389 . S
C976 H949 0.950 . S
C976 C962 1.377 . S
C976 C975 1.373 . S
C977 C961 1.377 . S
C977 C975 1.389 . S
C977 C978 1.524 . S
C978 C977 1.524 . S
C978 C979 1.397 . S
C978 C983 1.363 . S
C979 H950 0.950 . S
C979 C978 1.397 . S
C979 C980 1.334 . S
C980 H951 0.950 . S
C980 C979 1.334 . S
C980 C981 1.287 . S
C981 C980 1.287 . S
C981 C982 1.524 . S
C981 H984 0.999 . S
C982 H952 0.950 . S
C982 C981 1.524 . S
C982 C983 1.415 . S
C983 H953 0.950 . S
C983 C978 1.363 . S
C983 C982 1.415 . S
H984 C981 0.999 . S
H985 C966 0.913 . S
H986 C1004 0.951 . S
H987 C1006 0.951 . S
H988 C1008 0.950 . S
H989 C1009 0.950 . S
H990 C1011 0.950 . S
H991 C1014 0.950 1_455 S
H992 C1015 0.950 . S
H993 C1017 0.950 . S
H994 C1018 0.950 1_455 S
H995 C1019 0.951 . S
H996 C1021 0.951 . S
H997 C1023 0.950 . S
H998 C1024 0.950 . S
H999 C1026 0.950 . S
H1000 C1029 0.950 . S
H1001 C1030 0.950 . S
H1002 C1032 0.950 . S
H1003 C1033 0.950 . S
C1004 H986 0.951 . S
C1004 C1005 1.366 . S
C1004 C1006 1.388 . S
C1005 C1004 1.366 . S
C1005 C1009 1.385 . S
C1006 H987 0.951 . S
C1006 C1004 1.388 . S
C1006 C1007 1.366 . S
C1007 C1006 1.366 . S
C1007 C1008 1.414 . S
C1007 C1010 1.499 . S
C1008 H988 0.950 . S
C1008 C1007 1.414 . S
C1008 C1009 1.374 . S
C1009 H989 0.950 . S
C1009 C1005 1.385 . S
C1009 C1008 1.374 . S
C1010 C1007 1.499 . S
C1010 C1011 1.373 . S
C1010 C1012 1.389 . S
C1011 H990 0.950 . S
C1011 C1010 1.373 . S
C1011 C1027 1.377 . S
C1012 C1010 1.389 . S
C1012 C1013 1.524 . S
C1012 C1026 1.377 . S
C1013 C1012 1.524 . S
C1013 C1014 1.397 1_455 S
C1013 C1018 1.363 1_455 S
C1014 H991 0.950 1_655 S
C1014 C1013 1.397 1_655 S
C1014 C1015 1.334 . S
C1015 H992 0.950 . S
C1015 C1014 1.334 . S
C1015 C1016 1.287 . S
C1016 C1015 1.287 . S
C1016 C1017 1.524 . S
C1016 H1035 0.913 . S
C1017 H993 0.950 . S
C1017 C1016 1.524 . S
C1017 C1018 1.415 . S
C1018 H994 0.950 1_655 S
C1018 C1013 1.363 1_655 S
C1018 C1017 1.415 . S
C1019 H995 0.951 . S
C1019 C1020 1.366 . S
C1019 C1021 1.388 . S
C1020 C1019 1.366 . S
C1020 C1024 1.385 . S
C1021 H996 0.951 . S
C1021 C1019 1.388 . S
C1021 C1022 1.366 . S
C1022 C1021 1.366 . S
C1022 C1023 1.414 . S
C1022 C1025 1.499 . S
C1023 H997 0.950 . S
C1023 C1022 1.414 . S
C1023 C1024 1.374 . S
C1024 H998 0.950 . S
C1024 C1020 1.385 . S
C1024 C1023 1.374 . S
C1025 C1022 1.499 . S
C1025 C1026 1.373 . S
C1025 C1027 1.389 . S
C1026 H999 0.950 . S
C1026 C1012 1.377 . S
C1026 C1025 1.373 . S
C1027 C1011 1.377 . S
C1027 C1025 1.389 . S
C1027 C1028 1.524 . S
C1028 C1027 1.524 . S
C1028 C1029 1.397 . S
C1028 C1033 1.363 . S
C1029 H1000 0.950 . S
C1029 C1028 1.397 . S
C1029 C1030 1.334 . S
C1030 H1001 0.950 . S
C1030 C1029 1.334 . S
C1030 C1031 1.287 . S
C1031 C1030 1.287 . S
C1031 C1032 1.524 . S
C1031 H1034 0.999 . S
C1032 H1002 0.950 . S
C1032 C1031 1.524 . S
C1032 C1033 1.415 . S
C1033 H1003 0.950 . S
C1033 C1028 1.363 . S
C1033 C1032 1.415 . S
H1034 C1031 0.999 . S
H1035 C1016 0.913 . S
H1036 C1054 0.951 1_556 S
H1037 C1056 0.951 . S
H1038 C1058 0.950 . S
H1039 C1059 0.950 . S
H1040 C1061 0.950 . S
H1041 C1064 0.950 . S
H1042 C1065 0.950 . S
H1043 C1067 0.950 1_565 S
H1044 C1068 0.950 1_565 S
H1045 C1069 0.951 . S
H1046 C1071 0.951 . S
H1047 C1073 0.952 . S
H1048 C1074 0.950 1_565 S
H1049 C1076 0.950 . S
H1050 C1079 0.950 . S
H1051 C1080 0.950 . S
H1052 C1082 0.950 . S
H1053 C1083 0.950 . S
C1054 H1036 0.951 1_554 S
C1054 C1055 1.366 1_565 S
C1054 C1056 1.388 . S
C1055 C1054 1.366 1_545 S
C1055 C1059 1.385 . S
C1056 H1037 0.951 . S
C1056 C1054 1.388 . S
C1056 C1057 1.366 1_565 S
C1057 C1056 1.366 1_545 S
C1057 C1058 1.414 . S
C1057 C1060 1.499 . S
C1058 H1038 0.950 . S
C1058 C1057 1.414 . S
C1058 C1059 1.374 . S
C1059 H1039 0.950 . S
C1059 C1055 1.385 . S
C1059 C1058 1.374 . S
C1060 C1057 1.499 . S
C1060 C1061 1.373 . S
C1060 C1062 1.389 . S
C1061 H1040 0.950 . S
C1061 C1060 1.373 . S
C1061 C1077 1.377 . S
C1062 C1060 1.389 . S
C1062 C1063 1.524 1_554 S
C1062 C1076 1.377 . S
C1063 C1062 1.524 1_556 S
C1063 C1064 1.397 . S
C1063 C1068 1.363 . S
C1064 H1041 0.950 . S
C1064 C1063 1.397 . S
C1064 C1065 1.334 . S
C1065 H1042 0.950 . S
C1065 C1064 1.334 . S
C1065 C1066 1.287 . S
C1066 C1065 1.287 . S
C1066 C1067 1.524 . S
C1066 H1085 0.913 . S
C1067 H1043 0.950 1_545 S
C1067 C1066 1.524 . S
C1067 C1068 1.415 . S
C1068 H1044 0.950 1_545 S
C1068 C1063 1.363 . S
C1068 C1067 1.415 . S
C1069 H1045 0.951 . S
C1069 C1070 1.366 . S
C1069 C1071 1.388 . S
C1070 C1069 1.366 . S
C1070 C1074 1.385 . S
C1071 H1046 0.951 . S
C1071 C1069 1.388 . S
C1071 C1072 1.366 . S
C1072 C1071 1.366 . S
C1072 C1073 1.413 1_545 S
C1072 C1075 1.499 . S
C1073 H1047 0.952 . S
C1073 C1072 1.413 1_565 S
C1073 C1074 1.373 1_565 S
C1074 H1048 0.950 1_545 S
C1074 C1070 1.385 . S
C1074 C1073 1.373 1_545 S
C1075 C1072 1.499 . S
C1075 C1076 1.373 . S
C1075 C1077 1.389 . S
C1076 H1049 0.950 . S
C1076 C1062 1.377 . S
C1076 C1075 1.373 . S
C1077 C1061 1.377 . S
C1077 C1075 1.389 . S
C1077 C1078 1.524 . S
C1078 C1077 1.524 . S
C1078 C1079 1.397 1_545 S
C1078 C1083 1.363 . S
C1079 H1050 0.950 . S
C1079 C1078 1.397 1_565 S
C1079 C1080 1.334 . S
C1080 H1051 0.950 . S
C1080 C1079 1.334 . S
C1080 C1081 1.287 1_565 S
C1081 C1080 1.287 1_545 S
C1081 C1082 1.524 . S
C1081 H1084 0.999 1_545 S
C1082 H1052 0.950 . S
C1082 C1081 1.524 . S
C1082 C1083 1.415 . S
C1083 H1053 0.950 . S
C1083 C1078 1.363 . S
C1083 C1082 1.415 . S
H1084 C1081 0.999 1_565 S
H1085 C1066 0.913 . S
H1086 C1104 0.951 . S
H1087 C1106 0.951 . S
H1088 C1108 0.950 . S
H1089 C1109 0.950 . S
H1090 C1111 0.950 . S
H1091 C1114 0.950 . S
H1092 C1115 0.950 1_565 S
H1093 C1117 0.950 . S
H1094 C1118 0.950 . S
H1095 C1119 0.951 . S
H1096 C1121 0.951 . S
H1097 C1123 0.950 . S
H1098 C1124 0.950 . S
H1099 C1126 0.950 . S
H1100 C1129 0.950 . S
H1101 C1130 0.950 . S
H1102 C1132 0.950 . S
H1103 C1133 0.950 . S
C1104 H1086 0.951 . S
C1104 C1105 1.366 . S
C1104 C1106 1.388 . S
C1105 C1104 1.366 . S
C1105 C1109 1.385 . S
C1106 H1087 0.951 . S
C1106 C1104 1.388 . S
C1106 C1107 1.366 . S
C1107 C1106 1.366 . S
C1107 C1108 1.414 . S
C1107 C1110 1.499 . S
C1108 H1088 0.950 . S
C1108 C1107 1.414 . S
C1108 C1109 1.374 . S
C1109 H1089 0.950 . S
C1109 C1105 1.385 . S
C1109 C1108 1.374 . S
C1110 C1107 1.499 . S
C1110 C1111 1.373 . S
C1110 C1112 1.389 . S
C1111 H1090 0.950 . S
C1111 C1110 1.373 . S
C1111 C1127 1.377 . S
C1112 C1110 1.389 . S
C1112 C1113 1.524 . S
C1112 C1126 1.377 . S
C1113 C1112 1.524 . S
C1113 C1114 1.397 . S
C1113 C1118 1.363 . S
C1114 H1091 0.950 . S
C1114 C1113 1.397 . S
C1114 C1115 1.334 . S
C1115 H1092 0.950 1_545 S
C1115 C1114 1.334 . S
C1115 C1116 1.287 1_545 S
C1116 C1115 1.287 1_565 S
C1116 C1117 1.524 . S
C1116 H1135 0.913 . S
C1117 H1093 0.950 . S
C1117 C1116 1.524 . S
C1117 C1118 1.415 1_565 S
C1118 H1094 0.950 . S
C1118 C1113 1.363 . S
C1118 C1117 1.415 1_545 S
C1119 H1095 0.951 . S
C1119 C1120 1.366 . S
C1119 C1121 1.388 . S
C1120 C1119 1.366 . S
C1120 C1124 1.385 . S
C1121 H1096 0.951 . S
C1121 C1119 1.388 . S
C1121 C1122 1.366 . S
C1122 C1121 1.366 . S
C1122 C1123 1.414 . S
C1122 C1125 1.499 . S
C1123 H1097 0.950 . S
C1123 C1122 1.414 . S
C1123 C1124 1.374 . S
C1124 H1098 0.950 . S
C1124 C1120 1.385 . S
C1124 C1123 1.374 . S
C1125 C1122 1.499 . S
C1125 C1126 1.373 . S
C1125 C1127 1.389 . S
C1126 H1099 0.950 . S
C1126 C1112 1.377 . S
C1126 C1125 1.373 . S
C1127 C1111 1.377 . S
C1127 C1125 1.389 . S
C1127 C1128 1.524 . S
C1128 C1127 1.524 . S
C1128 C1129 1.397 . S
C1128 C1133 1.363 . S
C1129 H1100 0.950 . S
C1129 C1128 1.397 . S
C1129 C1130 1.334 . S
C1130 H1101 0.950 . S
C1130 C1129 1.334 . S
C1130 C1131 1.287 . S
C1131 C1130 1.287 . S
C1131 C1132 1.524 . S
C1131 H1134 0.999 . S
C1132 H1102 0.950 . S
C1132 C1131 1.524 . S
C1132 C1133 1.415 . S
C1133 H1103 0.950 . S
C1133 C1128 1.363 . S
C1133 C1132 1.415 . S
H1134 C1131 0.999 . S
H1135 C1116 0.913 . S
H1136 C1154 0.951 . S
H1137 C1156 0.951 . S
H1138 C1158 0.950 . S
H1139 C1159 0.950 . S
H1140 C1161 0.950 . S
H1141 C1164 0.950 . S
H1142 C1165 0.950 . S
H1143 C1167 0.950 . S
H1144 C1168 0.950 . S
H1145 C1169 0.951 . S
H1146 C1171 0.951 . S
H1147 C1173 0.950 . S
H1148 C1174 0.950 . S
H1149 C1176 0.950 . S
H1150 C1179 0.950 . S
H1151 C1180 0.950 . S
H1152 C1182 0.950 . S
H1153 C1183 0.950 . S
C1154 H1136 0.951 . S
C1154 C1155 1.366 . S
C1154 C1156 1.388 . S
C1155 C1154 1.366 . S
C1155 C1159 1.385 . S
C1156 H1137 0.951 . S
C1156 C1154 1.388 . S
C1156 C1157 1.366 . S
C1157 C1156 1.366 . S
C1157 C1158 1.414 . S
C1157 C1160 1.499 . S
C1158 H1138 0.950 . S
C1158 C1157 1.414 . S
C1158 C1159 1.374 . S
C1159 H1139 0.950 . S
C1159 C1155 1.385 . S
C1159 C1158 1.374 . S
C1160 C1157 1.499 . S
C1160 C1161 1.373 . S
C1160 C1162 1.389 . S
C1161 H1140 0.950 . S
C1161 C1160 1.373 . S
C1161 C1177 1.377 . S
C1162 C1160 1.389 . S
C1162 C1163 1.524 . S
C1162 C1176 1.377 . S
C1163 C1162 1.524 . S
C1163 C1164 1.397 . S
C1163 C1168 1.363 . S
C1164 H1141 0.950 . S
C1164 C1163 1.397 . S
C1164 C1165 1.334 . S
C1165 H1142 0.950 . S
C1165 C1164 1.334 . S
C1165 C1166 1.287 . S
C1166 C1165 1.287 . S
C1166 C1167 1.524 . S
C1166 H1185 0.913 . S
C1167 H1143 0.950 . S
C1167 C1166 1.524 . S
C1167 C1168 1.415 . S
C1168 H1144 0.950 . S
C1168 C1163 1.363 . S
C1168 C1167 1.415 . S
C1169 H1145 0.951 . S
C1169 C1170 1.366 . S
C1169 C1171 1.388 . S
C1170 C1169 1.366 . S
C1170 C1174 1.385 . S
C1171 H1146 0.951 . S
C1171 C1169 1.388 . S
C1171 C1172 1.366 . S
C1172 C1171 1.366 . S
C1172 C1173 1.414 . S
C1172 C1175 1.499 . S
C1173 H1147 0.950 . S
C1173 C1172 1.414 . S
C1173 C1174 1.374 . S
C1174 H1148 0.950 . S
C1174 C1170 1.385 . S
C1174 C1173 1.374 . S
C1175 C1172 1.499 . S
C1175 C1176 1.373 . S
C1175 C1177 1.389 . S
C1176 H1149 0.950 . S
C1176 C1162 1.377 . S
C1176 C1175 1.373 . S
C1177 C1161 1.377 . S
C1177 C1175 1.389 . S
C1177 C1178 1.524 . S
C1178 C1177 1.524 . S
C1178 C1179 1.397 . S
C1178 C1183 1.363 . S
C1179 H1150 0.950 . S
C1179 C1178 1.397 . S
C1179 C1180 1.334 . S
C1180 H1151 0.950 . S
C1180 C1179 1.334 . S
C1180 C1181 1.287 . S
C1181 C1180 1.287 . S
C1181 C1182 1.524 . S
C1181 H1184 0.999 . S
C1182 H1152 0.950 . S
C1182 C1181 1.524 . S
C1182 C1183 1.415 . S
C1183 H1153 0.950 . S
C1183 C1178 1.363 . S
C1183 C1182 1.415 . S
H1184 C1181 0.999 . S
H1185 C1166 0.913 . S
H1186 C1204 0.951 . S
H1187 C1206 0.951 . S
H1188 C1208 0.950 . S
H1189 C1209 0.950 . S
H1190 C1211 0.950 . S
H1191 C1214 0.950 . S
H1192 C1215 0.950 . S
H1193 C1217 0.950 . S
H1194 C1218 0.950 . S
H1195 C1219 0.951 . S
H1196 C1221 0.951 . S
H1197 C1223 0.950 . S
H1198 C1224 0.950 . S
H1199 C1226 0.950 . S
H1200 C1229 0.950 . S
H1201 C1230 0.950 . S
H1202 C1232 0.950 . S
H1203 C1233 0.950 . S
C1204 H1186 0.951 . S
C1204 C1205 1.366 . S
C1204 C1206 1.388 . S
C1205 C1204 1.366 . S
C1205 C1209 1.385 . S
C1206 H1187 0.951 . S
C1206 C1204 1.388 . S
C1206 C1207 1.366 . S
C1207 C1206 1.366 . S
C1207 C1208 1.414 . S
C1207 C1210 1.499 . S
C1208 H1188 0.950 . S
C1208 C1207 1.414 . S
C1208 C1209 1.374 . S
C1209 H1189 0.950 . S
C1209 C1205 1.385 . S
C1209 C1208 1.374 . S
C1210 C1207 1.499 . S
C1210 C1211 1.373 . S
C1210 C1212 1.389 . S
C1211 H1190 0.950 . S
C1211 C1210 1.373 . S
C1211 C1227 1.377 . S
C1212 C1210 1.389 . S
C1212 C1213 1.524 . S
C1212 C1226 1.377 . S
C1213 C1212 1.524 . S
C1213 C1214 1.397 . S
C1213 C1218 1.363 . S
C1214 H1191 0.950 . S
C1214 C1213 1.397 . S
C1214 C1215 1.334 . S
C1215 H1192 0.950 . S
C1215 C1214 1.334 . S
C1215 C1216 1.287 . S
C1216 C1215 1.287 . S
C1216 C1217 1.524 . S
C1216 H1235 0.913 . S
C1217 H1193 0.950 . S
C1217 C1216 1.524 . S
C1217 C1218 1.415 . S
C1218 H1194 0.950 . S
C1218 C1213 1.363 . S
C1218 C1217 1.415 . S
C1219 H1195 0.951 . S
C1219 C1220 1.366 . S
C1219 C1221 1.388 . S
C1220 C1219 1.366 . S
C1220 C1224 1.385 . S
C1221 H1196 0.951 . S
C1221 C1219 1.388 . S
C1221 C1222 1.366 . S
C1222 C1221 1.366 . S
C1222 C1223 1.414 . S
C1222 C1225 1.499 . S
C1223 H1197 0.950 . S
C1223 C1222 1.414 . S
C1223 C1224 1.374 . S
C1224 H1198 0.950 . S
C1224 C1220 1.385 . S
C1224 C1223 1.374 . S
C1225 C1222 1.499 . S
C1225 C1226 1.373 . S
C1225 C1227 1.389 . S
C1226 H1199 0.950 . S
C1226 C1212 1.377 . S
C1226 C1225 1.373 . S
C1227 C1211 1.377 . S
C1227 C1225 1.389 . S
C1227 C1228 1.524 . S
C1228 C1227 1.524 . S
C1228 C1229 1.397 . S
C1228 C1233 1.363 . S
C1229 H1200 0.950 . S
C1229 C1228 1.397 . S
C1229 C1230 1.334 . S
C1230 H1201 0.950 . S
C1230 C1229 1.334 . S
C1230 C1231 1.287 . S
C1231 C1230 1.287 . S
C1231 C1232 1.524 . S
C1231 H1234 0.999 . S
C1232 H1202 0.950 . S
C1232 C1231 1.524 . S
C1232 C1233 1.415 . S
C1233 H1203 0.950 . S
C1233 C1228 1.363 . S
C1233 C1232 1.415 . S
H1234 C1231 0.999 . S
H1235 C1216 0.913 . S
H1236 C1254 0.951 . S
H1237 C1256 0.951 . S
H1238 C1258 0.950 . S
H1239 C1259 0.950 . S
H1240 C1261 0.950 . S
H1241 C1264 0.950 . S
H1242 C1265 0.950 . S
H1243 C1267 0.950 . S
H1244 C1268 0.950 . S
H1245 C1269 0.951 . S
H1246 C1271 0.951 . S
H1247 C1273 0.950 . S
H1248 C1274 0.950 . S
H1249 C1276 0.950 . S
H1250 C1279 0.950 . S
H1251 C1280 0.950 . S
H1252 C1282 0.950 . S
H1253 C1283 0.950 . S
C1254 H1236 0.951 . S
C1254 C1255 1.366 1_455 S
C1254 C1256 1.388 . S
C1255 C1254 1.366 1_655 S
C1255 C1259 1.385 . S
C1256 H1237 0.951 . S
C1256 C1254 1.388 . S
C1256 C1257 1.366 1_455 S
C1257 C1256 1.366 1_655 S
C1257 C1258 1.414 . S
C1257 C1260 1.499 . S
C1258 H1238 0.950 . S
C1258 C1257 1.414 . S
C1258 C1259 1.374 . S
C1259 H1239 0.950 . S
C1259 C1255 1.385 . S
C1259 C1258 1.374 . S
C1260 C1257 1.499 . S
C1260 C1261 1.373 1_556 S
C1260 C1262 1.389 1_655 S
C1261 H1240 0.950 . S
C1261 C1260 1.373 1_554 S
C1261 C1277 1.377 . S
C1262 C1260 1.389 1_455 S
C1262 C1263 1.524 . S
C1262 C1276 1.377 . S
C1263 C1262 1.524 . S
C1263 C1264 1.397 1_455 S
C1263 C1268 1.363 . S
C1264 H1241 0.950 . S
C1264 C1263 1.397 1_655 S
C1264 C1265 1.334 . S
C1265 H1242 0.950 . S
C1265 C1264 1.334 . S
C1265 C1266 1.287 1_655 S
C1266 C1265 1.287 1_455 S
C1266 C1267 1.524 . S
C1266 H1285 0.913 . S
C1267 H1243 0.950 . S
C1267 C1266 1.524 . S
C1267 C1268 1.415 . S
C1268 H1244 0.950 . S
C1268 C1263 1.363 . S
C1268 C1267 1.415 . S
C1269 H1245 0.951 . S
C1269 C1270 1.366 1_655 S
C1269 C1271 1.388 . S
C1270 C1269 1.366 1_455 S
C1270 C1274 1.385 1_554 S
C1271 H1246 0.951 . S
C1271 C1269 1.388 . S
C1271 C1272 1.366 1_654 S
C1272 C1271 1.366 1_456 S
C1272 C1273 1.414 . S
C1272 C1275 1.499 . S
C1273 H1247 0.950 . S
C1273 C1272 1.414 . S
C1273 C1274 1.374 . S
C1274 H1248 0.950 . S
C1274 C1270 1.385 1_556 S
C1274 C1273 1.374 . S
C1275 C1272 1.499 . S
C1275 C1276 1.373 . S
C1275 C1277 1.389 1_456 S
C1276 H1249 0.950 . S
C1276 C1262 1.377 . S
C1276 C1275 1.373 . S
C1277 C1261 1.377 . S
C1277 C1275 1.389 1_654 S
C1277 C1278 1.524 . S
C1278 C1277 1.524 . S
C1278 C1279 1.397 1_655 S
C1278 C1283 1.363 . S
C1279 H1250 0.950 . S
C1279 C1278 1.397 1_455 S
C1279 C1280 1.334 . S
C1280 H1251 0.950 . S
C1280 C1279 1.334 . S
C1280 C1281 1.287 1_455 S
C1281 C1280 1.287 1_655 S
C1281 C1282 1.524 . S
C1281 H1284 0.999 . S
C1282 H1252 0.950 . S
C1282 C1281 1.524 . S
C1282 C1283 1.415 . S
C1283 H1253 0.950 . S
C1283 C1278 1.363 . S
C1283 C1282 1.415 . S
H1284 C1281 0.999 . S
H1285 C1266 0.913 . S
H1286 C1304 0.951 . S
H1287 C1306 0.951 . S
H1288 C1308 0.950 . S
H1289 C1309 0.950 . S
H1290 C1311 0.950 . S
H1291 C1314 0.950 . S
H1292 C1315 0.950 . S
H1293 C1317 0.950 . S
H1294 C1318 0.950 . S
H1295 C1319 0.951 . S
H1296 C1321 0.951 . S
H1297 C1323 0.950 . S
H1298 C1324 0.950 . S
H1299 C1326 0.950 . S
H1300 C1329 0.950 . S
H1301 C1330 0.950 . S
H1302 C1332 0.950 . S
H1303 C1333 0.950 . S
C1304 H1286 0.951 . S
C1304 C1305 1.366 . S
C1304 C1306 1.388 . S
C1305 C1304 1.366 . S
C1305 C1309 1.385 . S
C1306 H1287 0.951 . S
C1306 C1304 1.388 . S
C1306 C1307 1.366 . S
C1307 C1306 1.366 . S
C1307 C1308 1.414 . S
C1307 C1310 1.499 . S
C1308 H1288 0.950 . S
C1308 C1307 1.414 . S
C1308 C1309 1.374 . S
C1309 H1289 0.950 . S
C1309 C1305 1.385 . S
C1309 C1308 1.374 . S
C1310 C1307 1.499 . S
C1310 C1311 1.373 . S
C1310 C1312 1.389 . S
C1311 H1290 0.950 . S
C1311 C1310 1.373 . S
C1311 C1327 1.377 . S
C1312 C1310 1.389 . S
C1312 C1313 1.524 . S
C1312 C1326 1.377 . S
C1313 C1312 1.524 . S
C1313 C1314 1.397 . S
C1313 C1318 1.363 . S
C1314 H1291 0.950 . S
C1314 C1313 1.397 . S
C1314 C1315 1.334 . S
C1315 H1292 0.950 . S
C1315 C1314 1.334 . S
C1315 C1316 1.287 . S
C1316 C1315 1.287 . S
C1316 C1317 1.524 . S
C1316 H1335 0.913 . S
C1317 H1293 0.950 . S
C1317 C1316 1.524 . S
C1317 C1318 1.415 . S
C1318 H1294 0.950 . S
C1318 C1313 1.363 . S
C1318 C1317 1.415 . S
C1319 H1295 0.951 . S
C1319 C1320 1.366 . S
C1319 C1321 1.388 . S
C1320 C1319 1.366 . S
C1320 C1324 1.385 . S
C1321 H1296 0.951 . S
C1321 C1319 1.388 . S
C1321 C1322 1.366 . S
C1322 C1321 1.366 . S
C1322 C1323 1.414 . S
C1322 C1325 1.499 . S
C1323 H1297 0.950 . S
C1323 C1322 1.414 . S
C1323 C1324 1.374 . S
C1324 H1298 0.950 . S
C1324 C1320 1.385 . S
C1324 C1323 1.374 . S
C1325 C1322 1.499 . S
C1325 C1326 1.373 . S
C1325 C1327 1.389 . S
C1326 H1299 0.950 . S
C1326 C1312 1.377 . S
C1326 C1325 1.373 . S
C1327 C1311 1.377 . S
C1327 C1325 1.389 . S
C1327 C1328 1.524 . S
C1328 C1327 1.524 . S
C1328 C1329 1.397 . S
C1328 C1333 1.363 . S
C1329 H1300 0.950 . S
C1329 C1328 1.397 . S
C1329 C1330 1.334 . S
C1330 H1301 0.950 . S
C1330 C1329 1.334 . S
C1330 C1331 1.287 . S
C1331 C1330 1.287 . S
C1331 C1332 1.524 . S
C1331 H1334 0.999 . S
C1332 H1302 0.950 . S
C1332 C1331 1.524 . S
C1332 C1333 1.415 . S
C1333 H1303 0.950 . S
C1333 C1328 1.363 . S
C1333 C1332 1.415 . S
H1334 C1331 0.999 . S
H1335 C1316 0.913 . S
H1336 C1354 0.951 . S
H1337 C1356 0.951 . S
H1338 C1358 0.950 . S
H1339 C1359 0.950 . S
H1340 C1361 0.950 . S
H1341 C1364 0.950 . S
H1342 C1365 0.950 . S
H1343 C1367 0.950 . S
H1344 C1368 0.950 . S
H1345 C1369 0.951 . S
H1346 C1371 0.951 . S
H1347 C1373 0.950 . S
H1348 C1374 0.950 1_655 S
H1349 C1376 0.950 . S
H1350 C1379 0.950 . S
H1351 C1380 0.950 . S
H1352 C1382 0.950 . S
H1353 C1383 0.950 . S
C1354 H1336 0.951 . S
C1354 C1355 1.366 . S
C1354 C1356 1.388 . S
C1355 C1354 1.366 . S
C1355 C1359 1.385 . S
C1356 H1337 0.951 . S
C1356 C1354 1.388 . S
C1356 C1357 1.366 . S
C1357 C1356 1.366 . S
C1357 C1358 1.414 . S
C1357 C1360 1.499 . S
C1358 H1338 0.950 . S
C1358 C1357 1.414 . S
C1358 C1359 1.374 . S
C1359 H1339 0.950 . S
C1359 C1355 1.385 . S
C1359 C1358 1.374 . S
C1360 C1357 1.499 . S
C1360 C1361 1.373 . S
C1360 C1362 1.389 . S
C1361 H1340 0.950 . S
C1361 C1360 1.373 . S
C1361 C1377 1.377 . S
C1362 C1360 1.389 . S
C1362 C1363 1.524 . S
C1362 C1376 1.377 . S
C1363 C1362 1.524 . S
C1363 C1364 1.397 . S
C1363 C1368 1.363 . S
C1364 H1341 0.950 . S
C1364 C1363 1.397 . S
C1364 C1365 1.334 . S
C1365 H1342 0.950 . S
C1365 C1364 1.334 . S
C1365 C1366 1.287 . S
C1366 C1365 1.287 . S
C1366 C1367 1.524 . S
C1366 H1385 0.913 . S
C1367 H1343 0.950 . S
C1367 C1366 1.524 . S
C1367 C1368 1.415 . S
C1368 H1344 0.950 . S
C1368 C1363 1.363 . S
C1368 C1367 1.415 . S
C1369 H1345 0.951 . S
C1369 C1370 1.366 . S
C1369 C1371 1.388 . S
C1370 C1369 1.366 . S
C1370 C1374 1.385 . S
C1371 H1346 0.951 . S
C1371 C1369 1.388 . S
C1371 C1372 1.366 . S
C1372 C1371 1.366 . S
C1372 C1373 1.414 . S
C1372 C1375 1.499 . S
C1373 H1347 0.950 . S
C1373 C1372 1.414 . S
C1373 C1374 1.374 . S
C1374 H1348 0.950 1_455 S
C1374 C1370 1.385 . S
C1374 C1373 1.374 . S
C1375 C1372 1.499 . S
C1375 C1376 1.373 . S
C1375 C1377 1.389 . S
C1376 H1349 0.950 . S
C1376 C1362 1.377 . S
C1376 C1375 1.373 . S
C1377 C1361 1.377 . S
C1377 C1375 1.389 . S
C1377 C1378 1.524 . S
C1378 C1377 1.524 . S
C1378 C1379 1.397 . S
C1378 C1383 1.363 . S
C1379 H1350 0.950 . S
C1379 C1378 1.397 . S
C1379 C1380 1.334 . S
C1380 H1351 0.950 . S
C1380 C1379 1.334 . S
C1380 C1381 1.287 . S
C1381 C1380 1.287 . S
C1381 C1382 1.524 . S
C1381 H1384 0.999 . S
C1382 H1352 0.950 . S
C1382 C1381 1.524 . S
C1382 C1383 1.415 . S
C1383 H1353 0.950 . S
C1383 C1378 1.363 . S
C1383 C1382 1.415 . S
H1384 C1381 0.999 . S
H1385 C1366 0.913 . S
H1386 C1404 0.951 . S
H1387 C1406 0.951 . S
H1388 C1408 0.950 . S
H1389 C1409 0.950 . S
H1390 C1411 0.950 . S
H1391 C1414 0.950 . S
H1392 C1415 0.950 . S
H1393 C1417 0.950 . S
H1394 C1418 0.950 . S
H1395 C1419 0.951 . S
H1396 C1421 0.951 . S
H1397 C1423 0.950 . S
H1398 C1424 0.950 . S
H1399 C1426 0.950 . S
H1400 C1429 0.950 . S
H1401 C1430 0.950 . S
H1402 C1432 0.950 . S
H1403 C1433 0.950 . S
C1404 H1386 0.951 . S
C1404 C1405 1.366 . S
C1404 C1406 1.388 . S
C1405 C1404 1.366 . S
C1405 C1409 1.385 . S
C1406 H1387 0.951 . S
C1406 C1404 1.388 . S
C1406 C1407 1.366 . S
C1407 C1406 1.366 . S
C1407 C1408 1.414 . S
C1407 C1410 1.499 . S
C1408 H1388 0.950 . S
C1408 C1407 1.414 . S
C1408 C1409 1.374 . S
C1409 H1389 0.950 . S
C1409 C1405 1.385 . S
C1409 C1408 1.374 . S
C1410 C1407 1.499 . S
C1410 C1411 1.373 . S
C1410 C1412 1.389 . S
C1411 H1390 0.950 . S
C1411 C1410 1.373 . S
C1411 C1427 1.377 . S
C1412 C1410 1.389 . S
C1412 C1413 1.524 . S
C1412 C1426 1.377 . S
C1413 C1412 1.524 . S
C1413 C1414 1.397 . S
C1413 C1418 1.363 . S
C1414 H1391 0.950 . S
C1414 C1413 1.397 . S
C1414 C1415 1.334 . S
C1415 H1392 0.950 . S
C1415 C1414 1.334 . S
C1415 C1416 1.287 . S
C1416 C1415 1.287 . S
C1416 C1417 1.524 . S
C1416 H1435 0.913 . S
C1417 H1393 0.950 . S
C1417 C1416 1.524 . S
C1417 C1418 1.415 . S
C1418 H1394 0.950 . S
C1418 C1413 1.363 . S
C1418 C1417 1.415 . S
C1419 H1395 0.951 . S
C1419 C1420 1.366 . S
C1419 C1421 1.388 . S
C1420 C1419 1.366 . S
C1420 C1424 1.385 . S
C1421 H1396 0.951 . S
C1421 C1419 1.388 . S
C1421 C1422 1.366 . S
C1422 C1421 1.366 . S
C1422 C1423 1.414 . S
C1422 C1425 1.499 . S
C1423 H1397 0.950 . S
C1423 C1422 1.414 . S
C1423 C1424 1.374 . S
C1424 H1398 0.950 . S
C1424 C1420 1.385 . S
C1424 C1423 1.374 . S
C1425 C1422 1.499 . S
C1425 C1426 1.373 . S
C1425 C1427 1.389 . S
C1426 H1399 0.950 . S
C1426 C1412 1.377 . S
C1426 C1425 1.373 . S
C1427 C1411 1.377 . S
C1427 C1425 1.389 . S
C1427 C1428 1.524 . S
C1428 C1427 1.524 . S
C1428 C1429 1.397 . S
C1428 C1433 1.363 . S
C1429 H1400 0.950 . S
C1429 C1428 1.397 . S
C1429 C1430 1.334 . S
C1430 H1401 0.950 . S
C1430 C1429 1.334 . S
C1430 C1431 1.287 . S
C1431 C1430 1.287 . S
C1431 C1432 1.524 . S
C1431 H1434 0.999 . S
C1432 H1402 0.950 . S
C1432 C1431 1.524 . S
C1432 C1433 1.415 . S
C1433 H1403 0.950 . S
C1433 C1428 1.363 . S
C1433 C1432 1.415 . S
H1434 C1431 0.999 . S
H1435 C1416 0.913 . S
C255 C6 1.866 . S
C270 C155 1.730 . S
C305 C21 2.138 . S
C320 C189 1.967 1_565 S
C370 C201 0.774 . S
C355 C49 0.770 . S
C405 C68 1.163 . S
C420 C235 1.145 . S
C470 C192 2.225 . S
C455 C2 2.399 . S
C520 C172 1.177 . S
C505 C30 1.132 . S
C570 C219 1.156 1_556 S
C555 C40 1.277 . S
C620 C210 1.278 . S
C605 C63 1.330 . S
C655 C11 1.468 . S
C670 C218 1.527 . S
C720 C180 1.552 . S
C705 C44 1.690 . S
C755 C59 1.090 . S
C770 C156 1.016 . S
C805 C25 1.841 . S
C820 C213 1.748 . S
C870 C171 2.044 . S
C855 C82 2.163 1_545 S
C905 C101 1.866 . S
C920 C193 1.736 . S
C955 C125 1.401 . S
C970 C198 1.330 . S
C1005 C144 0.982 . S
C1020 C231 1.060 . S
C1055 C87 1.250 1_554 S
C1070 C176 1.367 . S
C1120 C168 2.200 . S
C1105 C97 2.359 . S
C1170 C222 1.345 . S
C1155 C120 1.388 . S
C1220 C214 1.264 . S
C1205 C135 1.364 . S
C1255 C78 1.949 . S
C1270 C234 1.867 . S
C1320 C177 1.144 . S
C1305 C116 1.224 . S
C1370 C159 1.638 . S
C1355 C139 1.765 . S
C1405 C106 1.520 . S
C1420 C197 1.502 . S
