# Generated by pormake.
# Topology wbl, (4,4)-cn, num edge types: 1
# Building blocks:
#     Node 0, Type 0, BuildingBlock: MIFKUJ_clean_linker_1, # of connection points: 4
#     Node 1, Type 0, BuildingBlock: MIFKUJ_clean_linker_1, # of connection points: 4
#     Node 2, Type 0, BuildingBlock: MIFKUJ_clean_linker_1, # of connection points: 4
#     Node 3, Type 0, BuildingBlock: MIFKUJ_clean_linker_1, # of connection points: 4
#     Node 4, Type 0, BuildingBlock: MIFKUJ_clean_linker_1, # of connection points: 4
#     Node 5, Type 0, BuildingBlock: MIFKUJ_clean_linker_1, # of connection points: 4
#     Node 6, Type 0, BuildingBlock: MIFKUJ_clean_linker_1, # of connection points: 4
#     Node 7, Type 0, BuildingBlock: MIFKUJ_clean_linker_1, # of connection points: 4
#     Node 8, Type 1, BuildingBlock: QUQFOY_clean_sbu_3, # of connection points: 4
#     Node 9, Type 1, BuildingBlock: QUQFOY_clean_sbu_3, # of connection points: 4
#     Node 10, Type 1, BuildingBlock: QUQFOY_clean_sbu_3, # of connection points: 4
#     Node 11, Type 1, BuildingBlock: QUQFOY_clean_sbu_3, # of connection points: 4
#     Node 12, Type 1, BuildingBlock: QUQFOY_clean_sbu_3, # of connection points: 4
#     Node 13, Type 1, BuildingBlock: QUQFOY_clean_sbu_3, # of connection points: 4
#     Node 14, Type 1, BuildingBlock: QUQFOY_clean_sbu_3, # of connection points: 4
#     Node 15, Type 1, BuildingBlock: QUQFOY_clean_sbu_3, # of connection points: 4
#     Edge 16, Type (0, 1), BuildingBlock: XUDNAN_clean_linker_2, # of connection points: 2
#     Edge 17, Type (0, 1), BuildingBlock: XUDNAN_clean_linker_2, # of connection points: 2
#     Edge 18, Type (0, 1), BuildingBlock: XUDNAN_clean_linker_2, # of connection points: 2
#     Edge 19, Type (0, 1), BuildingBlock: XUDNAN_clean_linker_2, # of connection points: 2
#     Edge 20, Type (0, 1), BuildingBlock: XUDNAN_clean_linker_2, # of connection points: 2
#     Edge 21, Type (0, 1), BuildingBlock: XUDNAN_clean_linker_2, # of connection points: 2
#     Edge 22, Type (0, 1), BuildingBlock: XUDNAN_clean_linker_2, # of connection points: 2
#     Edge 23, Type (0, 1), BuildingBlock: XUDNAN_clean_linker_2, # of connection points: 2
#     Edge 24, Type (0, 1), BuildingBlock: XUDNAN_clean_linker_2, # of connection points: 2
#     Edge 25, Type (0, 1), BuildingBlock: XUDNAN_clean_linker_2, # of connection points: 2
#     Edge 26, Type (0, 1), BuildingBlock: XUDNAN_clean_linker_2, # of connection points: 2
#     Edge 27, Type (0, 1), BuildingBlock: XUDNAN_clean_linker_2, # of connection points: 2
#     Edge 28, Type (0, 1), BuildingBlock: XUDNAN_clean_linker_2, # of connection points: 2
#     Edge 29, Type (0, 1), BuildingBlock: XUDNAN_clean_linker_2, # of connection points: 2
#     Edge 30, Type (0, 1), BuildingBlock: XUDNAN_clean_linker_2, # of connection points: 2
#     Edge 31, Type (0, 1), BuildingBlock: XUDNAN_clean_linker_2, # of connection points: 2
#     Edge 32, Type (0, 1), BuildingBlock: XUDNAN_clean_linker_2, # of connection points: 2
#     Edge 33, Type (0, 1), BuildingBlock: XUDNAN_clean_linker_2, # of connection points: 2
#     Edge 34, Type (0, 1), BuildingBlock: XUDNAN_clean_linker_2, # of connection points: 2
#     Edge 35, Type (0, 1), BuildingBlock: XUDNAN_clean_linker_2, # of connection points: 2
#     Edge 36, Type (0, 1), BuildingBlock: XUDNAN_clean_linker_2, # of connection points: 2
#     Edge 37, Type (0, 1), BuildingBlock: XUDNAN_clean_linker_2, # of connection points: 2
#     Edge 38, Type (0, 1), BuildingBlock: XUDNAN_clean_linker_2, # of connection points: 2
#     Edge 39, Type (0, 1), BuildingBlock: XUDNAN_clean_linker_2, # of connection points: 2
#     Edge 40, Type (0, 1), BuildingBlock: XUDNAN_clean_linker_2, # of connection points: 2
#     Edge 41, Type (0, 1), BuildingBlock: XUDNAN_clean_linker_2, # of connection points: 2
#     Edge 42, Type (0, 1), BuildingBlock: XUDNAN_clean_linker_2, # of connection points: 2
#     Edge 43, Type (0, 1), BuildingBlock: XUDNAN_clean_linker_2, # of connection points: 2
#     Edge 44, Type (0, 1), BuildingBlock: XUDNAN_clean_linker_2, # of connection points: 2
#     Edge 45, Type (0, 1), BuildingBlock: XUDNAN_clean_linker_2, # of connection points: 2
#     Edge 46, Type (0, 1), BuildingBlock: XUDNAN_clean_linker_2, # of connection points: 2
#     Edge 47, Type (0, 1), BuildingBlock: XUDNAN_clean_linker_2, # of connection points: 2
# Relax obj value: 0.160
# Max RMSD: 0.159
# Mean RMSD: 0.136
data_MOF--net-wbl--node1-QUQFOY_clean_sbu_3--node2-MIFKUJ_clean_linker_1--edge1-XUDNAN_clean_linker_2
_symmetry_space_group_name_H-M    P1
_symmetry_Int_Tables_number       1
_symmetry_cell_setting            triclinic
loop_
_symmetry_equiv_pos_as_xyz
'x, y, z'
_cell_length_a     46.417471
_cell_length_b     46.687645
_cell_length_c     75.081636
_cell_angle_alpha  90.80719
_cell_angle_beta   90.220322
_cell_angle_gamma 90.10611
loop_
_atom_site_label
_atom_site_type_symbol
_atom_site_fract_x
_atom_site_fract_y
_atom_site_fract_z
_atom_type_partial_charge
H0 H 0.01261 0.07305 0.36218 0.0
H1 H 0.97759 0.09263 0.38326 0.0
H2 H 0.90886 0.05078 0.35379 0.0
H3 H 0.94408 0.02983 0.33355 0.0
H4 H 0.02567 0.01897 0.35741 0.0
H5 H 0.0024 0.09344 0.31483 0.0
H6 H 0.96688 0.12527 0.30156 0.0
H7 H 0.91683 0.05131 0.28458 0.0
H8 H 0.95369 0.01994 0.2967 0.0
H9 H 0.03603 0.94983 0.29874 0.0
H10 H 0.07155 0.92489 0.2799 0.0
H11 H 0.12912 0.9973 0.28548 0.0
H12 H 0.09379 0.02181 0.30442 0.0
H13 H 0.01871 0.01921 0.29142 0.0
H14 H 0.05208 0.9453 0.33446 0.0
H15 H 0.08712 0.91992 0.35302 0.0
H16 H 0.12107 0.00123 0.37176 0.0
H17 H 0.0865 0.02623 0.35305 0.0
C18 C 0.98101 0.05013 0.34617 0.0
C19 C 0.98996 0.06833 0.36018 0.0
C20 C 0.96985 0.07976 0.37212 0.0
C21 C 0.94038 0.07321 0.37026 0.0
C22 C 0.9314 0.05598 0.35575 0.0
C23 C 0.95152 0.04432 0.34397 0.0
C24 C 0.00253 0.03528 0.33478 0.0
C25 C 0.02426 0.01929 0.34298 0.0
C26 C 0.00085 0.03554 0.31598 0.0
C27 C 0.98045 0.05447 0.30676 0.0
C28 C 0.98395 0.08424 0.30794 0.0
C29 C 0.96344 0.10237 0.3005 0.0
C30 C 0.93866 0.09103 0.29211 0.0
C31 C 0.93576 0.06102 0.29059 0.0
C32 C 0.9567 0.04293 0.29763 0.0
C33 C 0.06252 0.98749 0.30292 0.0
C34 C 0.05634 0.9602 0.29586 0.0
C35 C 0.07655 0.94605 0.28516 0.0
C36 C 0.10288 0.95934 0.28114 0.0
C37 C 0.1088 0.9868 0.28816 0.0
C38 C 0.0888 0.00071 0.29904 0.0
C39 C 0.04139 0.00263 0.31414 0.0
C40 C 0.01992 0.01883 0.30585 0.0
C41 C 0.04387 0.00317 0.33286 0.0
C42 C 0.06689 0.98761 0.34233 0.0
C43 C 0.06756 0.95755 0.34226 0.0
C44 C 0.0874 0.94311 0.35296 0.0
C45 C 0.1069 0.95856 0.36383 0.0
C46 C 0.1067 0.98866 0.36335 0.0
C47 C 0.08683 0.00302 0.35275 0.0
H48 H -0.00141 0.44731 0.537 0.0
H49 H 0.96516 0.41249 0.52416 0.0
H50 H 0.89663 0.47518 0.52767 0.0
H51 H 0.93006 0.50892 0.54195 0.0
H52 H 0.00851 0.51346 0.52729 0.0
H53 H 0.97668 0.44417 0.57149 0.0
H54 H 0.9462 0.4182 0.5924 0.0
H55 H 0.9145 0.49851 0.61352 0.0
H56 H 0.94392 0.52445 0.59208 0.0
H57 H 0.02998 0.595 0.56754 0.0
H58 H 0.05739 0.62645 0.58793 0.0
H59 H 0.08555 0.5525 0.61718 0.0
H60 H 0.05845 0.52131 0.59681 0.0
H61 H 0.00098 0.52276 0.593 0.0
H62 H 0.01493 0.56858 0.52272 0.0
H63 H 0.04799 0.60156 0.50833 0.0
H64 H 0.1168 0.57298 0.54276 0.0
H65 H 0.08415 0.53852 0.55606 0.0
C66 C 0.96664 0.48045 0.54052 0.0
C67 C 0.9764 0.45354 0.53478 0.0
C68 C 0.95716 0.43372 0.52728 0.0
C69 C 0.92787 0.44075 0.52487 0.0
C70 C 0.91871 0.46856 0.5297 0.0
C71 C 0.93784 0.48807 0.53767 0.0
C72 C 0.98604 0.49965 0.55072 0.0
C73 C 0.00693 0.51559 0.54166 0.0
C74 C 0.98374 0.5024 0.56942 0.0
C75 C 0.96231 0.4863 0.58 0.0
C76 C 0.96227 0.4562 0.58005 0.0
C77 C 0.94504 0.44136 0.5921 0.0
C78 C 0.92816 0.45644 0.60454 0.0
C79 C 0.92743 0.48647 0.60406 0.0
C80 C 0.9442 0.50124 0.59183 0.0
C81 C 0.04221 0.55583 0.58067 0.0
C82 C 0.04249 0.58559 0.57816 0.0
C83 C 0.05813 0.6035 0.58979 0.0
C84 C 0.07331 0.59189 0.60422 0.0
C85 C 0.07366 0.56205 0.60634 0.0
C86 C 0.05827 0.54422 0.59468 0.0
C87 C 0.02354 0.53671 0.5697 0.0
C88 C 0.00263 0.52077 0.57861 0.0
C89 C 0.02575 0.53427 0.55093 0.0
C90 C 0.04684 0.55154 0.54079 0.0
C91 C 0.03731 0.56894 0.52687 0.0
C92 C 0.05621 0.58809 0.5188 0.0
C93 C 0.08501 0.5905 0.52462 0.0
C94 C 0.09489 0.57176 0.53783 0.0
C95 C 0.07608 0.55226 0.54566 0.0
H96 H 0.48753 0.56237 0.85103 0.0
H97 H 0.45265 0.58565 0.87084 0.0
H98 H 0.38507 0.53199 0.84876 0.0
H99 H 0.42021 0.50811 0.82957 0.0
H100 H 0.5006 0.50491 0.85227 0.0
H101 H 0.48418 0.57 0.80176 0.0
H102 H 0.44962 0.60195 0.7877 0.0
H103 H 0.38952 0.5313 0.78216 0.0
H104 H 0.42524 0.49927 0.79507 0.0
H105 H 0.50497 0.43987 0.78571 0.0
H106 H 0.53871 0.41089 0.76796 0.0
H107 H 0.61026 0.45306 0.79414 0.0
H108 H 0.57682 0.48327 0.81105 0.0
H109 H 0.49521 0.49458 0.78649 0.0
H110 H 0.5326 0.42828 0.83336 0.0
H111 H 0.56928 0.40809 0.85329 0.0
H112 H 0.59424 0.4938 0.86961 0.0
H113 H 0.55839 0.51356 0.84958 0.0
C114 C 0.45641 0.5337 0.83873 0.0
C115 C 0.46511 0.55597 0.85029 0.0
C116 C 0.44511 0.5694 0.86149 0.0
C117 C 0.4161 0.5606 0.86138 0.0
C118 C 0.4073 0.53908 0.84925 0.0
C119 C 0.4273 0.52564 0.83812 0.0
C120 C 0.47803 0.51701 0.82852 0.0
C121 C 0.49961 0.50269 0.83787 0.0
C122 C 0.47681 0.51436 0.80982 0.0
C123 C 0.45709 0.53244 0.79945 0.0
C124 C 0.46376 0.5614 0.79711 0.0
C125 C 0.44379 0.57967 0.78927 0.0
C126 C 0.41647 0.56944 0.78399 0.0
C127 C 0.41039 0.54001 0.78579 0.0
C128 C 0.43069 0.52162 0.79327 0.0
C129 C 0.53828 0.46338 0.80004 0.0
C130 C 0.52792 0.44297 0.78761 0.0
C131 C 0.54708 0.42639 0.77753 0.0
C132 C 0.57685 0.42966 0.77996 0.0
C133 C 0.58728 0.44997 0.79233 0.0
C134 C 0.56818 0.46702 0.80208 0.0
C135 C 0.51774 0.48149 0.8103 0.0
C136 C 0.49622 0.49628 0.80091 0.0
C137 C 0.51975 0.48528 0.82904 0.0
C138 C 0.54287 0.47241 0.83997 0.0
C139 C 0.54634 0.44261 0.84106 0.0
C140 C 0.56714 0.43114 0.85251 0.0
C141 C 0.5848 0.44934 0.86295 0.0
C142 C 0.58145 0.47914 0.86153 0.0
C143 C 0.56075 0.4905 0.85019 0.0
H144 H 0.5117 0.9264 0.06374 0.0
H145 H 0.48161 0.88884 0.05039 0.0
H146 H 0.43088 0.95319 0.02389 0.0
H147 H 0.46056 0.99075 0.0378 0.0
H148 H 0.51687 0.00431 0.03634 0.0
H149 H 0.53005 0.9473 0.10287 0.0
H150 H 0.50411 0.91756 0.12403 0.0
H151 H 0.42332 0.95166 0.1048 0.0
H152 H 0.4495 0.98024 0.08318 0.0
H153 H 0.5159 0.06655 0.1017 0.0
H154 H 0.5429 0.10023 0.12057 0.0
H155 H 0.6217 0.07523 0.09417 0.0
H156 H 0.59442 0.04174 0.07517 0.0
H157 H 0.52549 0.00853 0.10223 0.0
H158 H 0.51185 0.07981 0.05438 0.0
H159 H 0.53033 0.11853 0.03589 0.0
H160 H 0.60211 0.06528 0.02016 0.0
H161 H 0.5831 0.02629 0.03849 0.0
C162 C 0.48816 0.96136 0.05192 0.0
C163 C 0.49407 0.93241 0.05508 0.0
C164 C 0.47703 0.91096 0.04729 0.0
C165 C 0.45382 0.91805 0.0361 0.0
C166 C 0.44838 0.94706 0.03262 0.0
C167 C 0.46546 0.96852 0.04042 0.0
C168 C 0.50516 0.98416 0.06099 0.0
C169 C 0.51892 0.00505 0.05074 0.0
C170 C 0.50753 0.98555 0.07976 0.0
C171 C 0.49165 0.96582 0.09146 0.0
C172 C 0.50672 0.94799 0.1031 0.0
C173 C 0.49183 0.9312 0.11528 0.0
C174 C 0.46157 0.93234 0.11629 0.0
C175 C 0.44655 0.94983 0.10427 0.0
C176 C 0.46147 0.96632 0.09194 0.0
C177 C 0.55317 0.05166 0.08707 0.0
C178 C 0.53893 0.06868 0.09979 0.0
C179 C 0.5544 0.0878 0.1106 0.0
C180 C 0.58448 0.09012 0.10901 0.0
C181 C 0.59853 0.0741 0.09563 0.0
C182 C 0.58298 0.05495 0.08476 0.0
C183 C 0.53723 0.02851 0.07762 0.0
C184 C 0.52383 0.00745 0.08781 0.0
C185 C 0.53473 0.0273 0.05889 0.0
C186 C 0.54619 0.05037 0.04773 0.0
C187 C 0.53147 0.07647 0.04686 0.0
C188 C 0.54194 0.09844 0.03625 0.0
C189 C 0.56751 0.09474 0.02654 0.0
C190 C 0.58234 0.06859 0.02753 0.0
C191 C 0.57154 0.04639 0.03792 0.0
H192 H 0.98801 0.57663 0.90016 0.0
H193 H 0.01561 0.60454 0.87874 0.0
H194 H 0.09476 0.5783 0.9039 0.0
H195 H 0.06733 0.54909 0.92473 0.0
H196 H 0.98935 0.52152 0.90149 0.0
H197 H 0.00272 0.59606 0.94867 0.0
H198 H 0.03565 0.6304 0.96285 0.0
H199 H 0.09467 0.56115 0.97413 0.0
H200 H 0.06056 0.52711 0.96119 0.0
H201 H 0.98635 0.44039 0.94254 0.0
H202 H 0.95697 0.40359 0.9566 0.0
H203 H 0.90367 0.46999 0.98008 0.0
H204 H 0.93425 0.50631 0.96686 0.0
H205 H -0.00252 0.51665 0.96729 0.0
H206 H 0.99052 0.46505 0.89719 0.0
H207 H 0.9584 0.43864 0.87696 0.0
H208 H 0.88521 0.46525 0.9084 0.0
H209 H 0.91741 0.49211 0.92847 0.0
C210 C 0.0255 0.56091 0.91421 0.0
C211 C 0.01128 0.57718 0.90127 0.0
C212 C 0.02699 0.59313 0.88907 0.0
C213 C 0.05717 0.59351 0.8898 0.0
C214 C 0.07144 0.57855 0.90329 0.0
C215 C 0.05574 0.56206 0.91527 0.0
C216 C 0.00888 0.54019 0.92497 0.0
C217 C 0.9911 0.52055 0.91588 0.0
C218 C 0.01103 0.53887 0.94373 0.0
C219 C 0.02936 0.55918 0.95389 0.0
C220 C 0.02253 0.58839 0.9546 0.0
C221 C 0.04157 0.60799 0.96254 0.0
C222 C 0.06815 0.5988 0.96955 0.0
C223 C 0.07431 0.56922 0.96928 0.0
C224 C 0.05491 0.54961 0.96176 0.0
C225 C 0.96237 0.47596 0.95369 0.0
C226 C 0.96865 0.44686 0.95105 0.0
C227 C 0.95165 0.42587 0.95897 0.0
C228 C 0.9277 0.43364 0.96943 0.0
C229 C 0.92217 0.46299 0.97246 0.0
C230 C 0.93953 0.48391 0.96482 0.0
C231 C 0.97805 0.49804 0.94368 0.0
C232 C -0.00433 0.51777 0.9529 0.0
C233 C 0.97558 0.49961 0.92496 0.0
C234 C 0.9564 0.48044 0.91438 0.0
C235 C 0.9676 0.46491 0.89986 0.0
C236 C 0.94925 0.44993 0.8883 0.0
C237 C 0.91933 0.45014 0.89106 0.0
C238 C 0.90821 0.46458 0.90606 0.0
C239 C 0.9266 0.47982 0.91757 0.0
H240 H 0.48837 0.5615 0.21064 0.0
H241 H 0.45999 0.59959 0.22429 0.0
H242 H 0.38249 0.54943 0.21566 0.0
H243 H 0.41117 0.51217 0.20098 0.0
H244 H 0.4939 0.50107 0.2173 0.0
H245 H 0.45961 0.56689 0.17411 0.0
H246 H 0.42849 0.59454 0.15443 0.0
H247 H 0.39196 0.51615 0.13322 0.0
H248 H 0.42192 0.48841 0.15362 0.0
H249 H 0.48825 0.42194 0.1596 0.0
H250 H 0.51879 0.39224 0.14005 0.0
H251 H 0.58843 0.4528 0.14692 0.0
H252 H 0.55819 0.48195 0.1669 0.0
H253 H 0.47765 0.485 0.15254 0.0
H254 H 0.50774 0.41964 0.19658 0.0
H255 H 0.54313 0.39013 0.21169 0.0
H256 H 0.5886 0.46637 0.22931 0.0
H257 H 0.55326 0.49595 0.21355 0.0
C258 C 0.45179 0.53424 0.20471 0.0
C259 C 0.4653 0.55862 0.21193 0.0
C260 C 0.44896 0.58033 0.21985 0.0
C261 C 0.41878 0.57776 0.22109 0.0
C262 C 0.40554 0.55249 0.21462 0.0
C263 C 0.42189 0.53104 0.20637 0.0
C264 C 0.46882 0.51317 0.19439 0.0
C265 C 0.49043 0.4977 0.20312 0.0
C266 C 0.46387 0.50843 0.17596 0.0
C267 C 0.44285 0.5255 0.16558 0.0
C268 C 0.44408 0.5556 0.16581 0.0
C269 C 0.42641 0.57143 0.15451 0.0
C270 C 0.40785 0.55737 0.14247 0.0
C271 C 0.40605 0.52737 0.14251 0.0
C272 C 0.42324 0.51158 0.15407 0.0
C273 C 0.5211 0.45399 0.16468 0.0
C274 C 0.51023 0.42855 0.15707 0.0
C275 C 0.52763 0.41163 0.14601 0.0
C276 C 0.55582 0.42038 0.14209 0.0
C277 C 0.56673 0.44572 0.14982 0.0
C278 C 0.54956 0.46227 0.1612 0.0
C279 C 0.5023 0.47285 0.17547 0.0
C280 C 0.48065 0.48814 0.16678 0.0
C281 C 0.50704 0.47737 0.19387 0.0
C282 C 0.52811 0.45992 0.20376 0.0
C283 C 0.52538 0.43002 0.20363 0.0
C284 C 0.54545 0.41321 0.21247 0.0
C285 C 0.56857 0.42595 0.22181 0.0
C286 C 0.5711 0.45598 0.22215 0.0
C287 C 0.55089 0.47286 0.21325 0.0
H288 H 0.5047 0.95197 0.40923 0.0
H289 H 0.47347 0.92325 0.38978 0.0
H290 H 0.39866 0.96381 0.41297 0.0
H291 H 0.4302 0.99279 0.43248 0.0
H292 H 0.50661 0.01011 0.40768 0.0
H293 H 0.4814 0.93845 0.45166 0.0
H294 H 0.44645 0.91225 0.46965 0.0
H295 H 0.41883 0.99204 0.49388 0.0
H296 H 0.45348 0.01802 0.47584 0.0
H297 H 0.52174 0.06902 0.47695 0.0
H298 H 0.55891 0.09538 0.49374 0.0
H299 H 0.62431 0.05908 0.45959 0.0
H300 H 0.58749 0.03172 0.44337 0.0
H301 H 0.51091 0.01629 0.47354 0.0
H302 H 0.53786 0.08806 0.4321 0.0
H303 H 0.565 0.11714 0.41128 0.0
H304 H 0.58289 0.04111 0.37957 0.0
H305 H 0.55847 0.01214 0.4013 0.0
C306 C 0.46978 0.97456 0.42225 0.0
C307 C 0.48156 0.95447 0.41029 0.0
C308 C 0.46372 0.93814 0.39916 0.0
C309 C 0.43369 0.94158 0.39974 0.0
C310 C 0.42175 0.96068 0.41233 0.0
C311 C 0.43971 0.97721 0.42346 0.0
C312 C 0.48936 0.99426 0.43212 0.0
C313 C 0.50803 0.01121 0.42211 0.0
C314 C 0.48986 0.99665 0.45089 0.0
C315 C 0.46979 0.98026 0.46224 0.0
C316 C 0.46772 0.95028 0.46081 0.0
C317 C 0.44782 0.93533 0.47111 0.0
C318 C 0.42994 0.95007 0.48321 0.0
C319 C 0.43259 0.97999 0.48489 0.0
C320 C 0.45232 0.9949 0.47453 0.0
C321 C 0.55169 0.04864 0.4587 0.0
C322 C 0.54408 0.06667 0.47308 0.0
C323 C 0.56524 0.08176 0.48264 0.0
C324 C 0.59433 0.07939 0.47781 0.0
C325 C 0.60194 0.0616 0.46336 0.0
C326 C 0.58088 0.04607 0.45405 0.0
C327 C 0.52933 0.03156 0.44908 0.0
C328 C 0.50987 0.01525 0.45911 0.0
C329 C 0.52795 0.02995 0.43022 0.0
C330 C 0.54617 0.04778 0.4184 0.0
C331 C 0.54841 0.07757 0.42095 0.0
C332 C 0.56358 0.09429 0.4088 0.0
C333 C 0.57616 0.08171 0.39354 0.0
C334 C 0.57419 0.05178 0.39124 0.0
C335 C 0.55972 0.03507 0.4036 0.0
H336 H 0.0225 0.08515 0.72142 0.0
H337 H -0.00233 0.12389 0.73716 0.0
H338 H 0.91703 0.09674 0.71322 0.0
H339 H 0.94233 0.05847 0.69714 0.0
H340 H 0.01493 0.02584 0.72139 0.0
H341 H 0.01151 0.10393 0.67898 0.0
H342 H 0.99016 0.14021 0.65967 0.0
H343 H 0.93493 0.07551 0.63589 0.0
H344 H 0.95623 0.03946 0.65524 0.0
H345 H 0.0164 0.94693 0.67785 0.0
H346 H 0.03566 0.91028 0.65741 0.0
H347 H 0.0938 0.97287 0.63556 0.0
H348 H 0.07436 0.00938 0.65591 0.0
H349 H 0.01484 0.0248 0.65528 0.0
H350 H 0.00744 0.96596 0.72076 0.0
H351 H 0.03277 0.92861 0.73692 0.0
H352 H 0.1134 0.95679 0.71428 0.0
H353 H 0.08756 0.99344 0.69765 0.0
C354 C 0.98427 0.06915 0.70805 0.0
C355 C -0.00056 0.08744 0.71971 0.0
C356 C 0.98514 0.10947 0.72876 0.0
C357 C 0.9553 0.11343 0.72648 0.0
C358 C 0.94007 0.09457 0.71508 0.0
C359 C 0.95444 0.07263 0.70594 0.0
C360 C -0.00013 0.0469 0.69776 0.0
C361 C 0.0149 0.02561 0.70694 0.0
C362 C -4e-05 0.04666 0.67895 0.0
C363 C 0.98541 0.06907 0.6685 0.0
C364 C 0.99447 0.09772 0.6698 0.0
C365 C 0.98236 0.11836 0.65875 0.0
C366 C 0.96088 0.11066 0.64632 0.0
C367 C 0.95117 0.08214 0.64551 0.0
C368 C 0.96347 0.06149 0.65643 0.0
C369 C 0.04399 0.9808 0.66834 0.0
C370 C 0.03369 0.95255 0.66889 0.0
C371 C 0.0446 0.93172 0.6572 0.0
C372 C 0.06618 0.93878 0.64492 0.0
C373 C 0.0774 0.96676 0.64501 0.0
C374 C 0.06622 0.98765 0.65653 0.0
C375 C 0.02982 0.00371 0.67889 0.0
C376 C 0.01488 0.02504 0.66974 0.0
C377 C 0.02991 0.00403 0.69769 0.0
C378 C 0.04563 0.98223 0.70794 0.0
C379 C 0.03059 0.96411 0.71937 0.0
C380 C 0.04518 0.94292 0.72871 0.0
C381 C 0.0752 0.9397 0.72697 0.0
C382 C 0.09025 0.95837 0.71574 0.0
C383 C 0.07557 0.97938 0.70627 0.0
C384 C 0.35464 0.65267 0.03221 0.0
O385 O 0.37641 0.64984 0.02217 0.0
Cd386 Cd 0.37791 0.66703 0.99267 0.0
O387 O 0.33161 0.66433 0.0265 0.0
Cd388 Cd 0.31478 0.68313 0.99707 0.0
C389 C 0.36171 0.73785 0.99948 0.0
O390 O 0.33602 0.64519 0.9793 0.0
O391 O 0.32285 0.68182 0.96421 0.0
O392 O 0.26849 0.66121 0.00401 0.0
C393 C 0.33071 0.65585 0.96429 0.0
O394 O 0.38079 0.71951 0.99514 0.0
C395 C 0.25328 0.68171 0.9983 0.0
O396 O 0.33578 0.73009 0.00187 0.0
O397 O 0.26671 0.7034 0.99258 0.0
C398 C 0.38516 0.85082 0.22651 0.0
O399 O 0.40543 0.84729 0.23766 0.0
Cd400 Cd 0.39688 0.83051 0.26728 0.0
O401 O 0.35903 0.84694 0.23105 0.0
Cd402 Cd 0.33069 0.83484 0.25792 0.0
C403 C 0.3593 0.76861 0.25759 0.0
O404 O 0.36044 0.86138 0.27931 0.0
O405 O 0.32773 0.83433 0.2906 0.0
O406 O 0.2986 0.87118 0.24647 0.0
C407 C 0.34719 0.85305 0.29303 0.0
O408 O 0.38211 0.78037 0.26373 0.0
C409 C 0.27547 0.85784 0.24988 0.0
O410 O 0.33754 0.78367 0.25341 0.0
O411 O 0.27795 0.8332 0.25668 0.0
C412 C 0.17639 0.8846 0.47518 0.0
O413 O 0.17747 0.90483 0.48661 0.0
Cd414 Cd 0.17885 0.89823 0.51812 0.0
O415 O 0.17756 0.85855 0.47993 0.0
Cd416 Cd 0.18602 0.83563 0.50931 0.0
C417 C 0.24646 0.87327 0.5187 0.0
O418 O 0.14787 0.85929 0.52595 0.0
O419 O 0.18056 0.83958 0.54213 0.0
O420 O 0.15683 0.79466 0.50021 0.0
C421 C 0.15564 0.85054 0.54109 0.0
O422 O 0.22953 0.89195 0.5253 0.0
C423 C 0.17546 0.77575 0.50384 0.0
O424 O 0.23656 0.85157 0.51021 0.0
O425 O 0.19984 0.78467 0.50934 0.0
C426 C 0.14878 0.65013 0.77828 0.0
O427 O 0.1482 0.62905 0.76741 0.0
Cd428 Cd 0.1678 0.63177 0.73795 0.0
O429 O 0.15811 0.67449 0.77345 0.0
Cd430 Cd 0.17576 0.69841 0.7462 0.0
C431 C 0.23566 0.65797 0.74802 0.0
O432 O 0.14503 0.67244 0.72507 0.0
O433 O 0.17809 0.69879 0.71355 0.0
O434 O 0.14556 0.73652 0.75799 0.0
C435 C 0.1564 0.68266 0.7112 0.0
O436 O 0.21988 0.63746 0.74225 0.0
C437 C 0.16191 0.75682 0.75328 0.0
O438 O 0.22488 0.68247 0.75146 0.0
O439 O 0.1853 0.75005 0.74559 0.0
C440 C 0.85235 0.142 0.4801 0.0
O441 O 0.8503 0.12448 0.4928 0.0
Cd442 Cd 0.84528 0.13766 0.52339 0.0
O443 O 0.84993 0.16886 0.48296 0.0
Cd444 Cd 0.83645 0.1964 0.51044 0.0
C445 C 0.77705 0.15743 0.519 0.0
O446 O 0.87514 0.17893 0.52906 0.0
O447 O 0.84021 0.19824 0.54359 0.0
O448 O 0.86012 0.23908 0.49872 0.0
C449 C 0.86611 0.18966 0.54351 0.0
O450 O 0.79354 0.14187 0.52832 0.0
C451 C 0.84009 0.25622 0.50315 0.0
O452 O 0.78745 0.17713 0.50941 0.0
O453 O 0.81783 0.24524 0.51007 0.0
C454 C 0.86298 0.37743 0.71783 0.0
O455 O 0.88211 0.38301 0.72952 0.0
Cd456 Cd 0.87945 0.36963 0.76026 0.0
O457 O 0.83955 0.36501 0.72208 0.0
Cd458 Cd 0.81581 0.34765 0.74955 0.0
C459 C 0.86643 0.29714 0.755 0.0
O460 O 0.83349 0.38472 0.77022 0.0
O461 O 0.81258 0.34847 0.78206 0.0
O462 O 0.77283 0.36875 0.73657 0.0
C463 C 0.82446 0.37271 0.78418 0.0
O464 O 0.88228 0.31742 0.761 0.0
C465 C 0.75574 0.34949 0.74193 0.0
O466 O 0.84168 0.30205 0.7483 0.0
O467 O 0.76676 0.32844 0.75001 0.0
C468 C 0.67147 0.38422 0.9733 0.0
O469 O 0.67926 0.40268 0.98494 0.0
Cd470 Cd 0.6891 0.39283 0.01567 0.0
O471 O 0.66939 0.35781 0.97717 0.0
Cd472 Cd 0.68019 0.3286 0.00385 0.0
C473 C 0.749 0.35373 0.00749 0.0
O474 O 0.65381 0.3589 0.02504 0.0
O475 O 0.67744 0.32378 0.03635 0.0
O476 O 0.64329 0.29647 0.99187 0.0
C477 C 0.65977 0.34413 0.03858 0.0
O478 O 0.73834 0.37564 0.01526 0.0
C479 C 0.65693 0.27355 0.99507 0.0
O480 O 0.73266 0.33431 0.00091 0.0
O481 O 0.68203 0.27627 0.00169 0.0
C482 C 0.66369 0.15173 0.28396 0.0
O483 O 0.67014 0.1296 0.2748 0.0
Cd484 Cd 0.6888 0.13132 0.24501 0.0
O485 O 0.66786 0.17668 0.27779 0.0
Cd486 Cd 0.68882 0.1973 0.25041 0.0
C487 C 0.75267 0.16329 0.25455 0.0
O488 O 0.66216 0.16708 0.22924 0.0
O489 O 0.69529 0.19356 0.21794 0.0
O490 O 0.65553 0.23667 0.2552 0.0
C491 C 0.6742 0.17669 0.21543 0.0
O492 O 0.74007 0.14124 0.24809 0.0
C493 C 0.67396 0.25643 0.25306 0.0
O494 O 0.73854 0.18595 0.25815 0.0
O495 O 0.69972 0.24868 0.25005 0.0
H496 H 0.12336 0.90511 0.2854 0.0
H497 H 0.1325 0.98057 0.25291 0.0
H498 H 0.17373 0.95822 0.23739 0.0
H499 H 0.19465 0.89553 0.29323 0.0
H500 H 0.19451 0.85692 0.29254 0.0
H501 H 0.16229 0.87598 0.29844 0.0
H502 H 0.13439 0.84972 0.27307 0.0
H503 H 0.16663 0.83041 0.26711 0.0
H504 H 0.1478 0.85094 0.2506 0.0
H505 H 0.21808 0.93189 0.2292 0.0
H506 H 0.26286 0.90351 0.22903 0.0
H507 H 0.22504 0.8445 0.26647 0.0
C508 C 0.13342 0.9164 0.27455 0.0
C509 C 0.12474 0.9444 0.2702 0.0
C510 C 0.13892 0.95906 0.25638 0.0
C511 C 0.16217 0.94645 0.24742 0.0
C512 C 0.17083 0.91914 0.25239 0.0
C513 C 0.15678 0.90416 0.26555 0.0
C514 C 0.17256 0.87676 0.26992 0.0
C515 C 0.18154 0.8763 0.28969 0.0
C516 C 0.15425 0.8504 0.26487 0.0
C517 C 0.19842 0.87941 0.25782 0.0
C518 C 0.1967 0.90373 0.24757 0.0
C519 C 0.21939 0.91242 0.23681 0.0
C520 C 0.24477 0.89624 0.23685 0.0
C521 C 0.24723 0.87171 0.2476 0.0
C522 C 0.22345 0.86277 0.25779 0.0
H523 H 0.06925 0.64531 0.51627 0.0
H524 H 0.14373 0.58929 0.51855 0.0
H525 H 0.1752 0.63005 0.51105 0.0
H526 H 0.09498 0.68855 0.47849 0.0
H527 H 0.07941 0.72083 0.4877 0.0
H528 H 0.0628 0.68663 0.49179 0.0
H529 H 0.06593 0.69657 0.5258 0.0
H530 H 0.08268 0.73063 0.52185 0.0
H531 H 0.10039 0.70488 0.53579 0.0
H532 H 0.19891 0.6785 0.50671 0.0
H533 H 0.21226 0.72973 0.50447 0.0
H534 H 0.12172 0.75241 0.5029 0.0
C535 C 0.09203 0.6412 0.51464 0.0
C536 C 0.10388 0.61392 0.51802 0.0
C537 C 0.13406 0.61 0.51627 0.0
C538 C 0.15212 0.63299 0.51186 0.0
C539 C 0.13968 0.65968 0.50896 0.0
C540 C 0.11025 0.66373 0.51004 0.0
C541 C 0.10224 0.69471 0.50718 0.0
C542 C 0.08377 0.69786 0.49028 0.0
C543 C 0.08692 0.70743 0.52364 0.0
C544 C 0.13181 0.70768 0.50481 0.0
C545 C 0.15319 0.6872 0.50584 0.0
C546 C 0.18232 0.69462 0.50551 0.0
C547 C 0.18971 0.72374 0.50427 0.0
C548 C 0.16803 0.74496 0.50326 0.0
C549 C 0.13879 0.73664 0.50324 0.0
H550 H 0.37353 0.55948 0.75907 0.0
H551 H 0.40717 0.62491 0.79532 0.0
H552 H 0.36781 0.65708 0.78676 0.0
H553 H 0.34426 0.60753 0.72492 0.0
H554 H 0.31264 0.58564 0.72147 0.0
H555 H 0.34613 0.56938 0.72811 0.0
H556 H 0.32084 0.54697 0.75533 0.0
H557 H 0.28736 0.56309 0.74877 0.0
H558 H 0.30174 0.56988 0.77077 0.0
H559 H 0.32245 0.68063 0.77655 0.0
H560 H 0.27315 0.6925 0.76676 0.0
H561 H 0.26738 0.61059 0.73882 0.0
C562 C 0.37286 0.58063 0.76515 0.0
C563 C 0.39387 0.58962 0.77774 0.0
C564 C 0.39199 0.61762 0.78526 0.0
C565 C 0.36955 0.63609 0.78056 0.0
C566 C 0.34899 0.6263 0.76838 0.0
C567 C 0.35037 0.59918 0.76082 0.0
C568 C 0.32401 0.59279 0.7495 0.0
C569 C 0.33226 0.58859 0.72983 0.0
C570 C 0.30752 0.56665 0.75652 0.0
C571 C 0.3072 0.6202 0.75234 0.0
C572 C 0.32224 0.6395 0.76297 0.0
C573 C 0.31057 0.66582 0.76807 0.0
C574 C 0.28254 0.67237 0.76243 0.0
C575 C 0.26637 0.65248 0.75203 0.0
C576 C 0.27918 0.62631 0.7467 0.0
H577 H 0.46982 0.86588 0.02207 0.0
H578 H 0.39493 0.9184 0.03361 0.0
H579 H 0.36317 0.87921 0.023 0.0
H580 H 0.44045 0.8295 0.98226 0.0
H581 H 0.45706 0.79584 0.98767 0.0
H582 H 0.47392 0.82904 0.99452 0.0
H583 H 0.47422 0.81227 0.02729 0.0
H584 H 0.45738 0.77908 0.02056 0.0
H585 H 0.4409 0.80137 0.03745 0.0
H586 H 0.33959 0.83303 0.01362 0.0
H587 H 0.32582 0.7833 0.00594 0.0
H588 H 0.41618 0.76082 0.00072 0.0
C589 C 0.44674 0.86922 0.02225 0.0
C590 C 0.43485 0.89525 0.0286 0.0
C591 C 0.40454 0.89882 0.02853 0.0
C592 C 0.38632 0.87665 0.0226 0.0
C593 C 0.39876 0.85113 0.01668 0.0
C594 C 0.42827 0.84735 0.01637 0.0
C595 C 0.43614 0.81736 0.01025 0.0
C596 C 0.45288 0.81798 0.99263 0.0
C597 C 0.45316 0.8016 0.02475 0.0
C598 C 0.40642 0.80459 0.00761 0.0
C599 C 0.38516 0.82449 0.01123 0.0
C600 C 0.35603 0.81734 0.01055 0.0
C601 C 0.34844 0.789 0.00621 0.0
C602 C 0.36991 0.76815 0.00266 0.0
C603 C 0.39924 0.77628 0.00317 0.0
H604 H 0.10911 0.59226 0.99598 0.0
H605 H 0.07856 0.65288 0.95679 0.0
H606 H 0.11864 0.68513 0.96451 0.0
H607 H 0.14198 0.64464 0.02818 0.0
H608 H 0.17236 0.62154 0.0321 0.0
H609 H 0.13761 0.60629 0.02678 0.0
H610 H 0.16013 0.57804 0.00034 0.0
H611 H 0.19482 0.59313 0.00557 0.0
H612 H 0.17978 0.59718 0.98358 0.0
H613 H 0.16548 0.70771 0.9731 0.0
H614 H 0.21661 0.71692 0.98031 0.0
H615 H 0.21885 0.63979 0.01186 0.0
C616 C 0.11049 0.61245 0.98913 0.0
C617 C 0.09026 0.61991 0.97584 0.0
C618 C 0.09308 0.64676 0.96737 0.0
C619 C 0.11596 0.66529 0.97161 0.0
C620 C 0.13602 0.65674 0.9843 0.0
C621 C 0.13354 0.63089 0.99291 0.0
C622 C 0.16003 0.62477 0.00404 0.0
C623 C 0.15254 0.62429 0.02396 0.0
C624 C 0.17454 0.59663 0.99801 0.0
C625 C 0.17833 0.65059 0.9997 0.0
C626 C 0.16377 0.66919 0.9887 0.0
C627 C 0.17696 0.69354 0.98193 0.0
C628 C 0.20601 0.6986 0.9861 0.0
C629 C 0.22166 0.67907 0.99665 0.0
C630 C 0.20736 0.65521 0.00389 0.0
H631 H 0.4329 0.61662 0.24771 0.0
H632 H 0.36532 0.59512 0.20958 0.0
H633 H 0.33887 0.6385 0.21859 0.0
H634 H 0.38743 0.65311 0.28169 0.0
H635 H 0.41434 0.68029 0.28587 0.0
H636 H 0.42509 0.64464 0.27922 0.0
H637 H 0.45367 0.66549 0.25277 0.0
H638 H 0.44302 0.70108 0.25931 0.0
H639 H 0.43542 0.68807 0.23706 0.0
H640 H 0.32267 0.68702 0.22883 0.0
H641 H 0.31937 0.73771 0.23834 0.0
H642 H 0.39924 0.7291 0.26807 0.0
C643 C 0.41238 0.62074 0.24137 0.0
C644 C 0.40121 0.60213 0.228 0.0
C645 C 0.37414 0.60847 0.22017 0.0
C646 C 0.35894 0.63322 0.22514 0.0
C647 C 0.37107 0.6515 0.23793 0.0
C648 C 0.39721 0.64557 0.24593 0.0
C649 C 0.40731 0.6703 0.25762 0.0
C650 C 0.40861 0.66156 0.27727 0.0
C651 C 0.43657 0.68192 0.2513 0.0
C652 C 0.38331 0.6915 0.25442 0.0
C653 C 0.36226 0.68002 0.24337 0.0
C654 C 0.33881 0.69614 0.23769 0.0
C655 C 0.33714 0.72492 0.24316 0.0
C656 C 0.35906 0.7374 0.25394 0.0
C657 C 0.38206 0.72019 0.25991 0.0
H658 H 0.3929 0.90825 0.47117 0.0
H659 H 0.41599 0.95802 0.51834 0.0
H660 H 0.3747 0.93736 0.53432 0.0
H661 H 0.32033 0.91793 0.47395 0.0
H662 H 0.30991 0.88256 0.46643 0.0
H663 H 0.34387 0.89731 0.45969 0.0
H664 H 0.37045 0.85333 0.47247 0.0
H665 H 0.33644 0.83833 0.47923 0.0
H666 H 0.36488 0.84365 0.49536 0.0
H667 H 0.32709 0.91806 0.54336 0.0
H668 H 0.27694 0.9005 0.545 0.0
H669 H 0.28557 0.86112 0.49267 0.0
C670 C 0.38987 0.914 0.48506 0.0
C671 C 0.40767 0.9347 0.49353 0.0
C672 C 0.40248 0.94235 0.51156 0.0
C673 C 0.37924 0.93054 0.52079 0.0
C674 C 0.36157 0.91083 0.51189 0.0
C675 C 0.36678 0.90234 0.49449 0.0
C676 C 0.34293 0.88305 0.48743 0.0
C677 C 0.32841 0.896 0.47091 0.0
C678 C 0.35436 0.85279 0.48339 0.0
C679 C 0.32286 0.8831 0.50329 0.0
C680 C 0.33421 0.89897 0.51735 0.0
C681 C 0.31829 0.90492 0.53266 0.0
C682 C 0.28984 0.89494 0.53347 0.0
C683 C 0.27769 0.87904 0.51911 0.0
C684 C 0.2947 0.87241 0.50407 0.0
H685 H 0.11934 0.90632 0.71414 0.0
H686 H 0.06503 0.91918 0.76053 0.0
H687 H 0.08616 0.8763 0.77418 0.0
H688 H 0.11406 0.83358 0.71138 0.0
H689 H 0.15084 0.82689 0.70496 0.0
H690 H 0.13429 0.86057 0.69984 0.0
H691 H 0.17532 0.88765 0.71648 0.0
H692 H 0.19217 0.85396 0.7216 0.0
H693 H 0.18345 0.87896 0.73927 0.0
H694 H 0.10715 0.82828 0.78048 0.0
H695 H 0.12873 0.77988 0.77964 0.0
H696 H 0.1725 0.80039 0.73055 0.0
C697 C 0.11255 0.90078 0.72744 0.0
C698 C 0.09039 0.91612 0.7362 0.0
C699 C 0.08162 0.90754 0.75339 0.0
C700 C 0.09372 0.88338 0.76136 0.0
C701 C 0.11497 0.86835 0.75213 0.0
C702 C 0.12466 0.87697 0.73567 0.0
C703 C 0.14624 0.85596 0.72798 0.0
C704 C 0.13571 0.84352 0.70999 0.0
C705 C 0.17607 0.86997 0.72624 0.0
C706 C 0.14623 0.83353 0.74233 0.0
C707 C 0.12817 0.84116 0.75621 0.0
C708 C 0.12199 0.8224 0.76997 0.0
C709 C 0.13423 0.79499 0.76937 0.0
C710 C 0.15265 0.7868 0.75523 0.0
C711 C 0.15923 0.80655 0.7418 0.0
H712 H 0.61395 0.38933 0.79192 0.0
H713 H 0.58637 0.43302 0.74436 0.0
H714 H 0.62585 0.4099 0.72732 0.0
H715 H 0.68589 0.39699 0.78643 0.0
H716 H 0.69632 0.36232 0.79449 0.0
H717 H 0.66326 0.37833 0.80193 0.0
H718 H 0.63492 0.33341 0.79113 0.0
H719 H 0.66804 0.31719 0.78364 0.0
H720 H 0.63833 0.32119 0.76835 0.0
H721 H 0.67364 0.39062 0.71762 0.0
H722 H 0.72402 0.37367 0.71539 0.0
H723 H 0.71806 0.33843 0.76829 0.0
C724 C 0.61581 0.3932 0.77778 0.0
C725 C 0.59731 0.41264 0.7693 0.0
C726 C 0.60033 0.41783 0.75091 0.0
C727 C 0.6226 0.40479 0.74118 0.0
C728 C 0.64107 0.38615 0.75001 0.0
C729 C 0.63752 0.37989 0.76783 0.0
C730 C 0.66158 0.36106 0.77458 0.0
C731 C 0.67771 0.37556 0.79027 0.0
C732 C 0.65002 0.33145 0.77972 0.0
C733 C 0.68016 0.3591 0.75809 0.0
C734 C 0.66789 0.37354 0.744 0.0
C735 C 0.68301 0.37833 0.72829 0.0
C736 C 0.71157 0.3687 0.72713 0.0
C737 C 0.72443 0.35408 0.74146 0.0
C738 C 0.70821 0.34847 0.75686 0.0
H739 H 0.62174 0.11743 0.02776 0.0
H740 H 0.53851 0.12652 0.00212 0.0
H741 H 0.5557 0.17012 0.98715 0.0
H742 H 0.63076 0.18842 0.03816 0.0
H743 H 0.6691 0.1898 0.03451 0.0
H744 H 0.65231 0.15658 0.04043 0.0
H745 H 0.67343 0.13211 0.01218 0.0
H746 H 0.69039 0.16536 0.00617 0.0
H747 H 0.6666 0.14731 0.99064 0.0
H748 H 0.57915 0.21579 0.97854 0.0
H749 H 0.60664 0.26103 0.97757 0.0
H750 H 0.67486 0.2226 0.00881 0.0
C751 C 0.60754 0.12811 0.0185 0.0
C752 C 0.57894 0.1186 0.0159 0.0
C753 C 0.56054 0.13354 0.0042 0.0
C754 C 0.57018 0.15816 0.99557 0.0
C755 C 0.59829 0.16748 0.99876 0.0
C756 C 0.61677 0.15287 0.0099 0.0
C757 C 0.64467 0.16922 0.01276 0.0
C758 C 0.64946 0.17644 0.03264 0.0
C759 C 0.67029 0.1525 0.00497 0.0
C760 C 0.63849 0.19584 0.00211 0.0
C761 C 0.61185 0.19416 0.99386 0.0
C762 C 0.60029 0.21716 0.98463 0.0
C763 C 0.61603 0.24279 0.98419 0.0
C764 C 0.64296 0.24524 0.993 0.0
C765 C 0.65461 0.22117 0.00164 0.0
H766 H 0.90169 0.08296 0.26359 0.0
H767 H 0.92122 0.14222 0.30717 0.0
H768 H 0.87955 0.17153 0.29882 0.0
H769 H 0.87002 0.13505 0.23226 0.0
H770 H 0.84229 0.11021 0.22527 0.0
H771 H 0.87703 0.09708 0.23217 0.0
H772 H 0.85242 0.06505 0.25561 0.0
H773 H 0.81771 0.07803 0.2488 0.0
H774 H 0.82868 0.08122 0.27181 0.0
H775 H 0.83279 0.19149 0.28813 0.0
H776 H 0.78303 0.19842 0.27732 0.0
H777 H 0.79183 0.12386 0.24259 0.0
C778 C 0.8975 0.10222 0.27133 0.0
C779 C 0.91515 0.11025 0.28597 0.0
C780 C 0.90871 0.13583 0.29559 0.0
C781 C 0.88492 0.15265 0.291 0.0
C782 C 0.86759 0.1436 0.27683 0.0
C783 C 0.87352 0.11891 0.26718 0.0
C784 C 0.84959 0.11188 0.25408 0.0
C785 C 0.86038 0.11367 0.2348 0.0
C786 C 0.83632 0.08231 0.25781 0.0
C787 C 0.82877 0.13585 0.25838 0.0
C788 C 0.83987 0.15437 0.27119 0.0
C789 C 0.82398 0.17734 0.27794 0.0
C790 C 0.79575 0.1811 0.27172 0.0
C791 C 0.78357 0.16163 0.25915 0.0
C792 C 0.80058 0.13912 0.25218 0.0
H793 H 0.93703 0.39493 0.50179 0.0
H794 H 0.87094 0.43502 0.53452 0.0
H795 H 0.8379 0.39554 0.52714 0.0
H796 H 0.88873 0.35887 0.46844 0.0
H797 H 0.91074 0.32711 0.46799 0.0
H798 H 0.92703 0.36166 0.47215 0.0
H799 H 0.94907 0.34308 0.50158 0.0
H800 H 0.93296 0.30859 0.49749 0.0
H801 H 0.92572 0.32765 0.51802 0.0
H802 H 0.81428 0.3489 0.52005 0.0
H803 H 0.80354 0.29754 0.51575 0.0
H804 H 0.88615 0.28571 0.48981 0.0
C805 C 0.91553 0.39575 0.50728 0.0
C806 C 0.90676 0.41855 0.51864 0.0
C807 C 0.87821 0.41849 0.52536 0.0
C808 C 0.85918 0.39597 0.52131 0.0
C809 C 0.86891 0.37347 0.51058 0.0
C810 C 0.89647 0.37313 0.5037 0.0
C811 C 0.90307 0.34463 0.49473 0.0
C812 C 0.90766 0.3483 0.47463 0.0
C813 C 0.92923 0.33014 0.50349 0.0
C814 C 0.87541 0.32855 0.49838 0.0
C815 C 0.85566 0.34585 0.50707 0.0
C816 C 0.82937 0.33525 0.513 0.0
C817 C 0.82347 0.30602 0.5105 0.0
C818 C 0.84399 0.28762 0.50242 0.0
C819 C 0.8699 0.29929 0.49583 0.0
H820 H 0.63677 0.11396 0.46508 0.0
H821 H 0.6032 0.07805 0.51372 0.0
H822 H 0.64425 0.09895 0.53063 0.0
H823 H 0.70888 0.10084 0.47313 0.0
H824 H 0.72214 0.13366 0.46379 0.0
H825 H 0.68858 0.11868 0.45604 0.0
H826 H 0.66259 0.16636 0.46368 0.0
H827 H 0.69616 0.18155 0.47145 0.0
H828 H 0.66526 0.18124 0.48591 0.0
H829 H 0.69252 0.11729 0.5411 0.0
H830 H 0.74258 0.13491 0.54477 0.0
H831 H 0.74272 0.16193 0.48977 0.0
C832 C 0.63786 0.111 0.47935 0.0
C833 C 0.61697 0.0945 0.48817 0.0
C834 C 0.61896 0.0909 0.50682 0.0
C835 C 0.64216 0.10264 0.51649 0.0
C836 C 0.66277 0.11837 0.50734 0.0
C837 C 0.66056 0.12298 0.48923 0.0
C838 C 0.68623 0.13948 0.48239 0.0
C839 C 0.70241 0.12212 0.468 0.0
C840 C 0.677 0.16891 0.47545 0.0
C841 C 0.70381 0.14245 0.49933 0.0
C842 C 0.68992 0.13019 0.51359 0.0
C843 C 0.70329 0.12764 0.53016 0.0
C844 C 0.73169 0.1376 0.53212 0.0
C845 C 0.74618 0.15025 0.51766 0.0
C846 C 0.73179 0.15317 0.5012 0.0
H847 H 0.91304 0.14791 0.71272 0.0
H848 H 0.96447 0.13461 0.76033 0.0
H849 H 0.94375 0.17829 0.77389 0.0
H850 H 0.91983 0.22138 0.71121 0.0
H851 H 0.8835 0.22846 0.70396 0.0
H852 H 0.90004 0.19463 0.69864 0.0
H853 H 0.85785 0.16786 0.71364 0.0
H854 H 0.84102 0.20167 0.71893 0.0
H855 H 0.8485 0.17655 0.73636 0.0
H856 H 0.92258 0.22619 0.78061 0.0
H857 H 0.89988 0.27401 0.78081 0.0
H858 H 0.85932 0.25462 0.72992 0.0
C859 C 0.91934 0.15365 0.72621 0.0
C860 C 0.94051 0.13785 0.73542 0.0
C861 C 0.94864 0.14659 0.75288 0.0
C862 C 0.9368 0.17123 0.76077 0.0
C863 C 0.91649 0.18663 0.75116 0.0
C864 C 0.90749 0.17801 0.73436 0.0
C865 C 0.88652 0.19925 0.7265 0.0
C866 C 0.89819 0.21166 0.70905 0.0
C867 C 0.8567 0.18551 0.7237 0.0
C868 C 0.88592 0.22167 0.74126 0.0
C869 C 0.9033 0.21389 0.75539 0.0
C870 C 0.90839 0.23225 0.76984 0.0
C871 C 0.89554 0.25936 0.76981 0.0
C872 C 0.87761 0.26769 0.75551 0.0
C873 C 0.87236 0.24842 0.74122 0.0
H874 H 0.89633 0.43454 0.00053 0.0
H875 H 0.91149 0.38315 0.95282 0.0
H876 H 0.87287 0.35024 0.96158 0.0
H877 H 0.87066 0.37541 0.03019 0.0
H878 H 0.8434 0.39823 0.03982 0.0
H879 H 0.877 0.4134 0.03246 0.0
H880 H 0.84908 0.44855 0.01232 0.0
H881 H 0.81557 0.4336 0.01963 0.0
H882 H 0.82369 0.43448 0.99618 0.0
H883 H 0.82754 0.32774 0.97249 0.0
H884 H 0.77803 0.32008 0.9833 0.0
H885 H 0.79039 0.38782 0.02277 0.0
C886 C 0.89197 0.4161 0.99204 0.0
C887 C 0.90729 0.4115 0.97602 0.0
C888 C 0.90075 0.38695 0.96539 0.0
C889 C 0.87869 0.36806 0.97024 0.0
C890 C 0.86329 0.37392 0.98576 0.0
C891 C 0.86969 0.39737 0.99651 0.0
C892 C 0.84726 0.40155 0.01089 0.0
C893 C 0.86037 0.39686 0.02944 0.0
C894 C 0.83306 0.43129 0.00966 0.0
C895 C 0.82639 0.37779 0.00592 0.0
C896 C 0.83644 0.3615 0.99175 0.0
C897 C 0.81969 0.33999 0.9838 0.0
C898 C 0.79156 0.33575 0.99006 0.0
C899 C 0.78033 0.35336 0.00388 0.0
C900 C 0.79844 0.37385 0.01229 0.0
H901 H 0.55868 0.37804 0.24133 0.0
H902 H 0.62742 0.43173 0.22142 0.0
H903 H 0.66333 0.39682 0.23205 0.0
H904 H 0.59875 0.34813 0.2804 0.0
H905 H 0.5824 0.31342 0.27704 0.0
H906 H 0.56281 0.34534 0.27134 0.0
H907 H 0.55532 0.32543 0.23925 0.0
H908 H 0.57492 0.29363 0.24479 0.0
H909 H 0.58626 0.31499 0.22626 0.0
H910 H 0.69089 0.35255 0.2403 0.0
H911 H 0.70752 0.30304 0.24532 0.0
H912 H 0.62038 0.27818 0.2591 0.0
C913 C 0.58133 0.38276 0.23954 0.0
C914 C 0.59028 0.40758 0.23057 0.0
C915 C 0.6201 0.41304 0.2285 0.0
C916 C 0.64064 0.3933 0.23447 0.0
C917 C 0.63098 0.36843 0.24264 0.0
C918 C 0.60199 0.36329 0.24533 0.0
C919 C 0.59684 0.33363 0.2525 0.0
C920 C 0.58448 0.33524 0.27145 0.0
C921 C 0.57719 0.31589 0.23994 0.0
C922 C 0.6273 0.3223 0.25259 0.0
C923 C 0.64681 0.34283 0.24723 0.0
C924 C 0.6759 0.33648 0.24486 0.0
C925 C 0.68514 0.30829 0.2477 0.0
C926 C 0.66524 0.28681 0.25264 0.0
C927 C 0.63615 0.2942 0.25552 0.0
H928 H 0.09265 0.91432 0.38575 0.0
H929 H 0.16339 0.97039 0.37169 0.0
H930 H 0.19184 0.95197 0.39685 0.0
H931 H 0.09696 0.924 0.43045 0.0
H932 H 0.08887 0.88773 0.43668 0.0
H933 H 0.07596 0.90115 0.41581 0.0
H934 H 0.10104 0.85942 0.39891 0.0
H935 H 0.11382 0.84561 0.41981 0.0
H936 H 0.13899 0.85327 0.40228 0.0
H937 H 0.20851 0.93491 0.42624 0.0
H938 H 0.21385 0.91734 0.457 0.0
H939 H 0.13407 0.86977 0.45142 0.0
C940 C 0.11456 0.92186 0.38753 0.0
C941 C 0.12582 0.94378 0.37676 0.0
C942 C 0.15427 0.95375 0.37986 0.0
C943 C 0.17066 0.94327 0.39404 0.0
C944 C 0.15849 0.9225 0.40484 0.0
C945 C 0.13128 0.9115 0.40159 0.0
C946 C 0.12219 0.8913 0.41619 0.0
C947 C 0.09436 0.90169 0.42531 0.0
C948 C 0.11882 0.86057 0.40886 0.0
C949 C 0.14792 0.8938 0.42859 0.0
C950 C 0.16873 0.91173 0.42168 0.0
C951 C 0.19286 0.92014 0.43156 0.0
C952 C 0.19567 0.9102 0.44899 0.0
C953 C 0.17468 0.89183 0.45625 0.0
C954 C 0.15081 0.88308 0.44584 0.0
H955 H 0.06961 0.58808 0.64029 0.0
H956 H 0.10883 0.63801 0.59854 0.0
H957 H 0.1336 0.66803 0.62144 0.0
H958 H 0.05805 0.64691 0.67125 0.0
H959 H 0.06596 0.62563 0.6905 0.0
H960 H 0.05092 0.60893 0.67079 0.0
H961 H 0.09368 0.5733 0.6697 0.0
H962 H 0.10886 0.58988 0.68939 0.0
H963 H 0.13003 0.58694 0.66937 0.0
H964 H 0.15596 0.69077 0.64918 0.0
H965 H 0.17249 0.70557 0.67932 0.0
H966 H 0.11744 0.64084 0.70244 0.0
C967 C 0.08348 0.60529 0.63595 0.0
C968 C 0.08753 0.61066 0.61768 0.0
C969 C 0.10541 0.63367 0.61251 0.0
C970 C 0.11959 0.65072 0.6254 0.0
C971 C 0.11536 0.64459 0.64334 0.0
C972 C 0.09754 0.62253 0.64858 0.0
C973 C 0.09663 0.62012 0.66863 0.0
C974 C 0.06608 0.62574 0.6757 0.0
C975 C 0.10798 0.59083 0.67462 0.0
C976 C 0.11704 0.64403 0.67391 0.0
C977 C 0.12767 0.65792 0.65918 0.0
C978 C 0.1476 0.68018 0.66081 0.0
C979 C 0.1569 0.68839 0.67796 0.0
C980 C 0.14614 0.67443 0.6932 0.0
C981 C 0.12586 0.65209 0.69106 0.0
H982 H 0.40947 0.61623 0.87355 0.0
H983 H 0.378 0.52955 0.8808 0.0
H984 H 0.3481 0.54622 0.90585 0.0
H985 H 0.41711 0.63347 0.91841 0.0
H986 H 0.40549 0.67017 0.91682 0.0
H987 H 0.42144 0.65247 0.89785 0.0
H988 H 0.37639 0.66411 0.87882 0.0
H989 H 0.36029 0.68197 0.89776 0.0
H990 H 0.34125 0.65334 0.88642 0.0
H991 H 0.3279 0.56999 0.93256 0.0
H992 H 0.31585 0.60064 0.95853 0.0
H993 H 0.35795 0.67278 0.93382 0.0
C994 C 0.39587 0.6009 0.88023 0.0
C995 C 0.39587 0.57163 0.8751 0.0
C996 C 0.37792 0.55217 0.88422 0.0
C997 C 0.36093 0.5614 0.89853 0.0
C998 C 0.36186 0.59023 0.90346 0.0
C999 C 0.37856 0.60982 0.89449 0.0
C1000 C 0.37701 0.63921 0.90331 0.0
C1001 C 0.40704 0.64941 0.90947 0.0
C1002 C 0.36289 0.66094 0.89083 0.0
C1003 C 0.35774 0.63275 0.91902 0.0
C1004 C 0.34919 0.60435 0.91876 0.0
C1005 C 0.33379 0.59243 0.93271 0.0
C1006 C 0.32715 0.60991 0.9474 0.0
C1007 C 0.33556 0.63902 0.94791 0.0
C1008 C 0.35059 0.65075 0.93343 0.0
H1009 H 0.47885 0.9234 0.15083 0.0
H1010 H 0.40852 0.90583 0.1139 0.0
H1011 H 0.38146 0.88255 0.13797 0.0
H1012 H 0.47376 0.85574 0.17431 0.0
H1013 H 0.48291 0.87199 0.19551 0.0
H1014 H 0.49673 0.88691 0.17525 0.0
H1015 H 0.47495 0.93622 0.18393 0.0
H1016 H 0.4609 0.92144 0.20414 0.0
H1017 H 0.437 0.93881 0.18871 0.0
H1018 H 0.36109 0.8634 0.1666 0.0
H1019 H 0.35011 0.84755 0.1971 0.0
H1020 H 0.43514 0.87512 0.21456 0.0
C1021 C 0.45804 0.91417 0.14761 0.0
C1022 C 0.44587 0.91658 0.13039 0.0
C1023 C 0.41819 0.90471 0.12701 0.0
C1024 C 0.40271 0.89126 0.14058 0.0
C1025 C 0.4153 0.88954 0.1574 0.0
C1026 C 0.44246 0.90041 0.1609 0.0
C1027 C 0.45112 0.89598 0.18012 0.0
C1028 C 0.4777 0.87649 0.18136 0.0
C1029 C 0.45628 0.92483 0.18979 0.0
C1030 C 0.42443 0.8812 0.18697 0.0
C1031 C 0.40396 0.87777 0.1737 0.0
C1032 C 0.37707 0.8657 0.17705 0.0
C1033 C 0.37101 0.85685 0.19443 0.0
C1034 C 0.39184 0.85991 0.20818 0.0
C1035 C 0.4189 0.87216 0.2043 0.0
H1036 H 0.05477 0.57972 0.85469 0.0
H1037 H 0.09711 0.63662 0.89264 0.0
H1038 H 0.1249 0.65839 0.86804 0.0
H1039 H 0.11734 0.56631 0.82809 0.0
H1040 H 0.09755 0.56452 0.80739 0.0
H1041 H 0.08026 0.55474 0.82786 0.0
H1042 H 0.03988 0.59178 0.82204 0.0
H1043 H 0.05702 0.60166 0.80154 0.0
H1044 H 0.04936 0.62865 0.81825 0.0
H1045 H 0.14677 0.67455 0.83886 0.0
H1046 H 0.16404 0.68122 0.80804 0.0
H1047 H 0.10954 0.61099 0.7899 0.0
C1048 C 0.06974 0.59696 0.85774 0.0
C1049 C 0.07367 0.60692 0.87539 0.0
C1050 C 0.09381 0.62898 0.8791 0.0
C1051 C 0.10957 0.64141 0.86524 0.0
C1052 C 0.10515 0.6311 0.8479 0.0
C1053 C 0.08595 0.60913 0.84417 0.0
C1054 C 0.08604 0.60098 0.82461 0.0
C1055 C 0.09589 0.56979 0.82183 0.0
C1056 C 0.05631 0.60609 0.81612 0.0
C1057 C 0.10819 0.62188 0.81782 0.0
C1058 C 0.11875 0.63932 0.83139 0.0
C1059 C 0.13882 0.66086 0.82817 0.0
C1060 C 0.14843 0.66454 0.81064 0.0
C1061 C 0.13829 0.64646 0.79665 0.0
C1062 C 0.11795 0.62488 0.80037 0.0
H1063 H 0.41595 0.55109 0.10708 0.0
H1064 H 0.36864 0.60097 0.1462 0.0
H1065 H 0.3469 0.62962 0.12194 0.0
H1066 H 0.43412 0.6096 0.08018 0.0
H1067 H 0.43168 0.58965 0.05951 0.0
H1068 H 0.44077 0.57157 0.07976 0.0
H1069 H 0.39804 0.53646 0.07479 0.0
H1070 H 0.38884 0.5544 0.05446 0.0
H1071 H 0.36224 0.5505 0.07168 0.0
H1072 H 0.33098 0.65293 0.09281 0.0
H1073 H 0.32576 0.67142 0.06211 0.0
H1074 H 0.38687 0.60787 0.0432 0.0
C1075 C 0.40056 0.5677 0.11047 0.0
C1076 C 0.39339 0.57362 0.12834 0.0
C1077 C 0.37399 0.59606 0.13247 0.0
C1078 C 0.36158 0.6123 0.11881 0.0
C1079 C 0.36925 0.606 0.10123 0.0
C1080 C 0.38853 0.58436 0.0971 0.0
C1081 C 0.39515 0.58317 0.07744 0.0
C1082 C 0.42733 0.58885 0.07403 0.0
C1083 C 0.38548 0.55443 0.06911 0.0
C1084 C 0.37669 0.60757 0.07106 0.0
C1085 C 0.3615 0.62027 0.08485 0.0
C1086 C 0.34285 0.64318 0.08194 0.0
C1087 C 0.33997 0.6535 0.06451 0.0
C1088 C 0.35613 0.64122 0.0504 0.0
C1089 C 0.3745 0.61789 0.05379 0.0
H1090 H 0.44283 0.9383 0.36404 0.0
H1091 H 0.3832 0.91193 0.40503 0.0
H1092 H 0.35375 0.88645 0.38211 0.0
H1093 H 0.38974 0.95048 0.32997 0.0
H1094 H 0.41258 0.93743 0.31228 0.0
H1095 H 0.42835 0.9536 0.33194 0.0
H1096 H 0.45897 0.90797 0.33685 0.0
H1097 H 0.44328 0.89164 0.31723 0.0
H1098 H 0.44127 0.87368 0.33828 0.0
H1099 H 0.33208 0.86236 0.35444 0.0
H1100 H 0.31892 0.84365 0.32447 0.0
H1101 H 0.3929 0.8871 0.30215 0.0
C1102 C 0.42365 0.92702 0.36823 0.0
C1103 C 0.41537 0.92678 0.38629 0.0
C1104 C 0.38983 0.91234 0.39122 0.0
C1105 C 0.37309 0.89778 0.37832 0.0
C1106 C 0.38211 0.89819 0.36061 0.0
C1107 C 0.40671 0.91265 0.35559 0.0
C1108 C 0.41182 0.91013 0.33577 0.0
C1109 C 0.41053 0.93967 0.32698 0.0
C1110 C 0.44053 0.89495 0.33181 0.0
C1111 C 0.38639 0.89171 0.33035 0.0
C1112 C 0.36948 0.88496 0.34483 0.0
C1113 C 0.3451 0.86766 0.34302 0.0
C1114 C 0.33783 0.85709 0.32597 0.0
C1115 C 0.35485 0.864 0.31099 0.0
C1116 C 0.37937 0.88157 0.31331 0.0
H1117 H 0.12101 0.92508 0.63416 0.0
H1118 H 0.03089 0.90698 0.62339 0.0
H1119 H 0.0446 0.87785 0.59709 0.0
H1120 H 0.1422 0.93436 0.59064 0.0
H1121 H 0.17683 0.91727 0.59261 0.0
H1122 H 0.16039 0.93354 0.61189 0.0
H1123 H 0.16401 0.88557 0.62869 0.0
H1124 H 0.1807 0.86915 0.60946 0.0
H1125 H 0.14872 0.85353 0.61884 0.0
H1126 H 0.06718 0.85805 0.56953 0.0
H1127 H 0.09786 0.84434 0.54394 0.0
H1128 H 0.17374 0.87186 0.57335 0.0
C1129 C 0.10427 0.91441 0.62647 0.0
C1130 C 0.07492 0.91809 0.63082 0.0
C1131 C 0.05352 0.90403 0.62043 0.0
C1132 C 0.06109 0.88755 0.60543 0.0
C1133 C 0.09018 0.88493 0.60122 0.0
C1134 C 0.1115 0.89749 0.61161 0.0
C1135 C 0.14104 0.89254 0.6036 0.0
C1136 C 0.15598 0.92113 0.59944 0.0
C1137 C 0.15972 0.87409 0.61588 0.0
C1138 C 0.13286 0.87628 0.58672 0.0
C1139 C 0.10339 0.87213 0.58563 0.0
C1140 C 0.09034 0.86042 0.57044 0.0
C1141 C 0.10784 0.85284 0.55597 0.0
C1142 C 0.13804 0.85658 0.55693 0.0
C1143 C 0.15074 0.86803 0.57257 0.0
H1144 H 0.57691 0.4047 0.88597 0.0
H1145 H 0.63941 0.4686 0.87006 0.0
H1146 H 0.67054 0.45555 0.89531 0.0
H1147 H 0.5818 0.41611 0.93097 0.0
H1148 H 0.57908 0.37921 0.93751 0.0
H1149 H 0.56335 0.39044 0.91683 0.0
H1150 H 0.59296 0.35223 0.89958 0.0
H1151 H 0.60855 0.34054 0.92027 0.0
H1152 H 0.63156 0.35125 0.90225 0.0
H1153 H 0.69053 0.4418 0.92466 0.0
H1154 H 0.70112 0.42403 0.95482 0.0
H1155 H 0.62809 0.36623 0.95091 0.0
C1156 C 0.59761 0.41522 0.88742 0.0
C1157 C 0.60563 0.43782 0.8761 0.0
C1158 C 0.63262 0.45151 0.87871 0.0
C1159 C 0.65055 0.44413 0.89295 0.0
C1160 C 0.64146 0.42262 0.90429 0.0
C1161 C 0.61595 0.40789 0.90151 0.0
C1162 C 0.61047 0.38687 0.91635 0.0
C1163 C 0.58199 0.39358 0.92598 0.0
C1164 C 0.61092 0.35588 0.90918 0.0
C1165 C 0.63626 0.393 0.92826 0.0
C1166 C 0.65387 0.41368 0.921 0.0
C1167 C 0.67738 0.42506 0.93028 0.0
C1168 C 0.68311 0.41502 0.94742 0.0
C1169 C 0.66562 0.39358 0.955 0.0
C1170 C 0.64215 0.38217 0.9452 0.0
H1171 H 0.57664 0.09232 0.14498 0.0
H1172 H 0.6306 0.12593 0.10306 0.0
H1173 H 0.65938 0.15263 0.12569 0.0
H1174 H 0.57572 0.15642 0.17269 0.0
H1175 H 0.57665 0.1366 0.19311 0.0
H1176 H 0.56012 0.12107 0.17349 0.0
H1177 H 0.5936 0.07689 0.17594 0.0
H1178 H 0.61033 0.09233 0.1955 0.0
H1179 H 0.63209 0.08204 0.17665 0.0
H1180 H 0.68255 0.17508 0.15332 0.0
H1181 H 0.69838 0.19086 0.18341 0.0
H1182 H 0.62873 0.142 0.20669 0.0
C1183 C 0.59418 0.10569 0.14048 0.0
C1184 C 0.60123 0.10728 0.12224 0.0
C1185 C 0.62488 0.12438 0.11698 0.0
C1186 C 0.64125 0.13968 0.12972 0.0
C1187 C 0.63368 0.13753 0.14762 0.0
C1188 C 0.61068 0.12096 0.15296 0.0
C1189 C 0.60732 0.12153 0.17298 0.0
C1190 C 0.57823 0.1347 0.17838 0.0
C1191 C 0.61107 0.09141 0.18071 0.0
C1192 C 0.63213 0.14095 0.17816 0.0
C1193 C 0.64706 0.15009 0.16338 0.0
C1194 C 0.67097 0.16808 0.16496 0.0
C1195 C 0.6798 0.17692 0.1821 0.0
C1196 C 0.66481 0.16763 0.19738 0.0
C1197 C 0.64067 0.14946 0.19528 0.0
H1198 H 0.93786 0.12437 0.38916 0.0
H1199 H 0.89657 0.0411 0.38379 0.0
H1200 H 0.86513 0.05289 0.40908 0.0
H1201 H 0.94151 0.12499 0.43525 0.0
H1202 H 0.93438 0.16267 0.43832 0.0
H1203 H 0.95063 0.14989 0.41801 0.0
H1204 H 0.90981 0.1733 0.39967 0.0
H1205 H 0.89342 0.18625 0.41996 0.0
H1206 H 0.87279 0.16463 0.40444 0.0
H1207 H 0.84346 0.06996 0.43716 0.0
H1208 H 0.83146 0.09238 0.46611 0.0
H1209 H 0.88563 0.16519 0.45375 0.0
C1210 C 0.92188 0.10881 0.39312 0.0
C1211 C 0.91953 0.08191 0.38431 0.0
C1212 C 0.89839 0.06211 0.38998 0.0
C1213 C 0.88047 0.06855 0.40442 0.0
C1214 C 0.88377 0.09494 0.41303 0.0
C1215 C 0.90375 0.11491 0.40755 0.0
C1216 C 0.90441 0.1407 0.42007 0.0
C1217 C 0.93451 0.14478 0.42841 0.0
C1218 C 0.89451 0.16783 0.41046 0.0
C1219 C 0.88253 0.13151 0.43381 0.0
C1220 C 0.87074 0.10514 0.42934 0.0
C1221 C 0.85204 0.09087 0.44065 0.0
C1222 C 0.84548 0.10369 0.45708 0.0
C1223 C 0.85742 0.13057 0.462 0.0
C1224 C 0.87572 0.14493 0.45008 0.0
H1225 H 0.93543 0.46604 0.63997 0.0
H1226 H 0.88937 0.41214 0.60198 0.0
H1227 H 0.8662 0.38649 0.62692 0.0
H1228 H 0.95048 0.41061 0.67086 0.0
H1229 H 0.94674 0.43354 0.69022 0.0
H1230 H 0.95814 0.44837 0.6694 0.0
H1231 H 0.91607 0.48478 0.67071 0.0
H1232 H 0.90455 0.47008 0.69157 0.0
H1233 H 0.87967 0.4719 0.67313 0.0
H1234 H 0.84761 0.36759 0.65641 0.0
H1235 H 0.83806 0.35442 0.68768 0.0
H1236 H 0.89908 0.41912 0.70583 0.0
C1237 C 0.92019 0.44905 0.63694 0.0
C1238 C 0.91374 0.44122 0.61916 0.0
C1239 C 0.89433 0.41845 0.61559 0.0
C1240 C 0.8811 0.40388 0.62964 0.0
C1241 C 0.88793 0.41217 0.64709 0.0
C1242 C 0.90726 0.43405 0.65074 0.0
C1243 C 0.91211 0.43799 0.67055 0.0
C1244 C 0.94375 0.43227 0.67554 0.0
C1245 C 0.90252 0.46796 0.67686 0.0
C1246 C 0.89243 0.41496 0.67755 0.0
C1247 C 0.87838 0.40048 0.66387 0.0
C1248 C 0.85863 0.37868 0.66721 0.0
C1249 C 0.85329 0.37141 0.68499 0.0
C1250 C 0.86799 0.38561 0.69915 0.0
C1251 C 0.88774 0.40766 0.69529 0.0
H1252 H 0.62139 0.06742 0.37128 0.0
H1253 H 0.56141 0.13639 0.38332 0.0
H1254 H 0.58103 0.16389 0.35843 0.0
H1255 H 0.68108 0.1107 0.35481 0.0
H1256 H 0.68932 0.08537 0.33723 0.0
H1257 H 0.67396 0.0731 0.35777 0.0
H1258 H 0.63228 0.04878 0.34011 0.0
H1259 H 0.64744 0.06101 0.31955 0.0
H1260 H 0.61076 0.06985 0.32517 0.0
H1261 H 0.60493 0.18268 0.33079 0.0
H1262 H 0.62901 0.18969 0.30182 0.0
H1263 H 0.66914 0.10622 0.30624 0.0
C1264 C 0.61227 0.0883 0.36882 0.0
C1265 C 0.58982 0.09959 0.37952 0.0
C1266 C 0.57905 0.12732 0.37576 0.0
C1267 C 0.58993 0.14312 0.3615 0.0
C1268 C 0.61141 0.13089 0.35098 0.0
C1269 C 0.62235 0.10404 0.35442 0.0
C1270 C 0.64332 0.09449 0.34015 0.0
C1271 C 0.67373 0.0907 0.34796 0.0
C1272 C 0.63281 0.06691 0.33069 0.0
C1273 C 0.64202 0.11992 0.32792 0.0
C1274 C 0.62398 0.14098 0.33457 0.0
C1275 C 0.61917 0.16637 0.32548 0.0
C1276 C 0.63293 0.17017 0.30906 0.0
C1277 C 0.65077 0.14843 0.30177 0.0
C1278 C 0.65547 0.12312 0.31144 0.0
H1279 H 0.90511 0.12052 0.63583 0.0
H1280 H 0.99339 0.14663 0.62635 0.0
H1281 H 0.97724 0.17576 0.60105 0.0
H1282 H 0.88563 0.11045 0.59226 0.0
H1283 H 0.84946 0.12411 0.59413 0.0
H1284 H 0.86704 0.10931 0.61328 0.0
H1285 H 0.85848 0.15653 0.631 0.0
H1286 H 0.84065 0.17148 0.6119 0.0
H1287 H 0.87078 0.18998 0.62202 0.0
H1288 H 0.95337 0.19383 0.57379 0.0
H1289 H 0.92237 0.20335 0.54768 0.0
H1290 H 0.84887 0.16855 0.57546 0.0
C1291 C 0.92088 0.13298 0.62868 0.0
C1292 C 0.95046 0.13149 0.63307 0.0
C1293 C 0.97057 0.14787 0.62338 0.0
C1294 C 0.96161 0.1644 0.60896 0.0
C1295 C 0.9324 0.16473 0.60463 0.0
C1296 C 0.91223 0.14988 0.61438 0.0
C1297 C 0.88251 0.15206 0.60609 0.0
C1298 C 0.87048 0.12221 0.60114 0.0
C1299 C 0.86189 0.1685 0.61849 0.0
C1300 C 0.88939 0.1692 0.58967 0.0
C1301 C 0.9183 0.17643 0.58914 0.0
C1302 C 0.93055 0.18915 0.57429 0.0
C1303 C 0.91288 0.19437 0.55953 0.0
C1304 C 0.88329 0.18726 0.55987 0.0
C1305 C 0.87127 0.17506 0.57522 0.0
H1306 H 0.92135 0.45646 0.8551 0.0
H1307 H 0.87327 0.41447 0.89674 0.0
H1308 H 0.84145 0.39205 0.87388 0.0
H1309 H 0.86023 0.47088 0.8263 0.0
H1310 H 0.88039 0.46437 0.80618 0.0
H1311 H 0.89845 0.47777 0.82589 0.0
H1312 H 0.93406 0.43508 0.82446 0.0
H1313 H 0.9162 0.42163 0.80474 0.0
H1314 H 0.92015 0.399 0.82385 0.0
H1315 H 0.8172 0.37183 0.84617 0.0
H1316 H 0.80165 0.35633 0.81598 0.0
H1317 H 0.86497 0.41313 0.79286 0.0
C1318 C 0.90415 0.44248 0.8594 0.0
C1319 C 0.89982 0.43695 0.87763 0.0
C1320 C 0.87683 0.41898 0.88281 0.0
C1321 C 0.85872 0.40618 0.86994 0.0
C1322 C 0.86375 0.41194 0.85204 0.0
C1323 C 0.88581 0.42982 0.8468 0.0
C1324 C 0.88706 0.43225 0.82676 0.0
C1325 C 0.88117 0.46316 0.82095 0.0
C1326 C 0.91608 0.42133 0.81953 0.0
C1327 C 0.86259 0.41248 0.82145 0.0
C1328 C 0.84936 0.40098 0.8362 0.0
C1329 C 0.82717 0.38096 0.83454 0.0
C1330 C 0.81853 0.37227 0.81737 0.0
C1331 C 0.83197 0.38372 0.80212 0.0
C1332 C 0.85398 0.40436 0.80426 0.0
H1333 H 0.57673 0.43937 0.11067 0.0
H1334 H 0.57307 0.3646 0.1441 0.0
H1335 H 0.60145 0.33711 0.12174 0.0
H1336 H 0.56656 0.40131 0.06966 0.0
H1337 H 0.59006 0.42419 0.05712 0.0
H1338 H 0.57144 0.43825 0.07632 0.0
H1339 H 0.62013 0.45444 0.09022 0.0
H1340 H 0.63891 0.44043 0.07105 0.0
H1341 H 0.64854 0.42859 0.09303 0.0
H1342 H 0.63054 0.31823 0.09562 0.0
H1343 H 0.65441 0.30807 0.06679 0.0
H1344 H 0.63577 0.39454 0.04981 0.0
C1345 C 0.58227 0.4173 0.11332 0.0
C1346 C 0.57321 0.40403 0.12909 0.0
C1347 C 0.5801 0.375 0.13206 0.0
C1348 C 0.59621 0.35934 0.11949 0.0
C1349 C 0.6048 0.37304 0.10399 0.0
C1350 C 0.5978 0.40128 0.10079 0.0
C1351 C 0.60805 0.41053 0.08265 0.0
C1352 C 0.5825 0.41906 0.07074 0.0
C1353 C 0.63023 0.43494 0.08435 0.0
C1354 C 0.62192 0.38309 0.07609 0.0
C1355 C 0.6202 0.36181 0.08867 0.0
C1356 C 0.6319 0.3347 0.08565 0.0
C1357 C 0.64546 0.32915 0.06929 0.0
C1358 C 0.64675 0.35048 0.05609 0.0
C1359 C 0.63489 0.37777 0.05962 0.0
loop_
_geom_bond_atom_site_label_1
_geom_bond_atom_site_label_2
_geom_bond_distance
_geom_bond_site_symmetry_2
_ccdc_geom_bond_type
H0 C19 0.949 1_455 S
H1 C20 0.950 . S
H2 C22 0.950 . S
H3 C23 0.950 . S
H4 C25 0.950 . S
H5 C28 0.950 . S
H6 C29 0.950 . S
H7 C31 0.951 . S
H8 C32 0.949 . S
H9 C34 0.949 . S
H10 C35 0.950 . S
H11 C37 0.950 . S
H12 C38 0.950 . S
H13 C40 0.950 . S
H14 C43 0.950 . S
H15 C44 0.950 . S
H16 C46 0.951 . S
H17 C47 0.949 1_545 S
C18 C19 1.376 . S
C18 C23 1.386 . S
C18 C24 1.483 . S
C19 H0 0.949 1_655 S
C19 C18 1.376 . S
C19 C20 1.397 . S
C20 H1 0.950 . S
C20 C19 1.397 . S
C20 C21 1.391 . S
C21 C20 1.391 . S
C21 C22 1.405 . S
C22 H2 0.950 . S
C22 C21 1.405 . S
C22 C23 1.367 . S
C23 H3 0.950 . S
C23 C18 1.386 . S
C23 C22 1.367 . S
C24 C18 1.483 . S
C24 C25 1.382 1_655 S
C24 C26 1.403 . S
C25 H4 0.950 . S
C25 C24 1.382 1_455 S
C25 C41 1.411 1_545 S
C26 C24 1.403 . S
C26 C27 1.489 . S
C26 C40 1.411 1_655 S
C27 C26 1.489 . S
C27 C28 1.383 . S
C27 C32 1.382 . S
C28 H5 0.950 . S
C28 C27 1.383 . S
C28 C29 1.395 . S
C29 H6 0.950 . S
C29 C28 1.395 . S
C29 C30 1.288 . S
C30 C29 1.288 . S
C30 C31 1.392 . S
C31 H7 0.951 . S
C31 C30 1.392 . S
C31 C32 1.392 . S
C32 H8 0.949 . S
C32 C27 1.382 . S
C32 C31 1.392 . S
C33 C34 1.376 . S
C33 C38 1.386 . S
C33 C39 1.483 . S
C34 H9 0.949 . S
C34 C33 1.376 . S
C34 C35 1.397 . S
C35 H10 0.950 . S
C35 C34 1.397 . S
C35 C36 1.391 . S
C36 C35 1.391 . S
C36 C37 1.405 . S
C37 H11 0.950 . S
C37 C36 1.405 . S
C37 C38 1.367 . S
C38 H12 0.950 . S
C38 C33 1.386 . S
C38 C37 1.367 . S
C39 C33 1.483 . S
C39 C40 1.382 1_565 S
C39 C41 1.403 . S
C40 H13 0.950 . S
C40 C26 1.411 1_455 S
C40 C39 1.382 1_545 S
C41 C25 1.411 1_565 S
C41 C39 1.403 . S
C41 C42 1.489 . S
C42 C41 1.489 . S
C42 C43 1.383 . S
C42 C47 1.382 . S
C43 H14 0.950 . S
C43 C42 1.383 . S
C43 C44 1.395 . S
C44 H15 0.950 . S
C44 C43 1.395 . S
C44 C45 1.288 . S
C45 C44 1.288 . S
C45 C46 1.392 . S
C46 H16 0.951 . S
C46 C45 1.392 . S
C46 C47 1.392 . S
C47 H17 0.949 1_565 S
C47 C42 1.382 . S
C47 C46 1.392 . S
H48 C67 0.949 1_455 S
H49 C68 0.950 . S
H50 C70 0.950 . S
H51 C71 0.950 . S
H52 C73 0.950 . S
H53 C76 0.950 . S
H54 C77 0.950 . S
H55 C79 0.951 . S
H56 C80 0.949 . S
H57 C82 0.949 . S
H58 C83 0.950 . S
H59 C85 0.950 . S
H60 C86 0.950 . S
H61 C88 0.950 . S
H62 C91 0.950 . S
H63 C92 0.950 . S
H64 C94 0.951 . S
H65 C95 0.949 . S
C66 C67 1.376 . S
C66 C71 1.386 . S
C66 C72 1.483 . S
C67 H48 0.949 1_655 S
C67 C66 1.376 . S
C67 C68 1.397 . S
C68 H49 0.950 . S
C68 C67 1.397 . S
C68 C69 1.391 . S
C69 C68 1.391 . S
C69 C70 1.405 . S
C70 H50 0.950 . S
C70 C69 1.405 . S
C70 C71 1.367 . S
C71 H51 0.950 . S
C71 C66 1.386 . S
C71 C70 1.367 . S
C72 C66 1.483 . S
C72 C73 1.382 1_655 S
C72 C74 1.403 . S
C73 H52 0.950 . S
C73 C72 1.382 1_455 S
C73 C89 1.411 . S
C74 C72 1.403 . S
C74 C75 1.489 . S
C74 C88 1.411 1_655 S
C75 C74 1.489 . S
C75 C76 1.383 . S
C75 C80 1.382 . S
C76 H53 0.950 . S
C76 C75 1.383 . S
C76 C77 1.395 . S
C77 H54 0.950 . S
C77 C76 1.395 . S
C77 C78 1.288 . S
C78 C77 1.288 . S
C78 C79 1.392 . S
C79 H55 0.951 . S
C79 C78 1.392 . S
C79 C80 1.392 . S
C80 H56 0.949 . S
C80 C75 1.382 . S
C80 C79 1.392 . S
C81 C82 1.376 . S
C81 C86 1.386 . S
C81 C87 1.483 . S
C82 H57 0.949 . S
C82 C81 1.376 . S
C82 C83 1.397 . S
C83 H58 0.950 . S
C83 C82 1.397 . S
C83 C84 1.391 . S
C84 C83 1.391 . S
C84 C85 1.405 . S
C85 H59 0.950 . S
C85 C84 1.405 . S
C85 C86 1.367 . S
C86 H60 0.950 . S
C86 C81 1.386 . S
C86 C85 1.367 . S
C87 C81 1.483 . S
C87 C88 1.382 . S
C87 C89 1.403 . S
C88 H61 0.950 . S
C88 C74 1.411 1_455 S
C88 C87 1.382 . S
C89 C73 1.411 . S
C89 C87 1.403 . S
C89 C90 1.489 . S
C90 C89 1.489 . S
C90 C91 1.383 . S
C90 C95 1.382 . S
C91 H62 0.950 . S
C91 C90 1.383 . S
C91 C92 1.395 . S
C92 H63 0.950 . S
C92 C91 1.395 . S
C92 C93 1.288 . S
C93 C92 1.288 . S
C93 C94 1.392 . S
C94 H64 0.951 . S
C94 C93 1.392 . S
C94 C95 1.392 . S
C95 H65 0.949 . S
C95 C90 1.382 . S
C95 C94 1.392 . S
H96 C115 0.949 . S
H97 C116 0.950 . S
H98 C118 0.950 . S
H99 C119 0.950 . S
H100 C121 0.950 . S
H101 C124 0.950 . S
H102 C125 0.950 . S
H103 C127 0.951 . S
H104 C128 0.949 . S
H105 C130 0.949 . S
H106 C131 0.950 . S
H107 C133 0.950 . S
H108 C134 0.950 . S
H109 C136 0.950 . S
H110 C139 0.950 . S
H111 C140 0.950 . S
H112 C142 0.951 . S
H113 C143 0.949 . S
C114 C115 1.376 . S
C114 C119 1.386 . S
C114 C120 1.483 . S
C115 H96 0.949 . S
C115 C114 1.376 . S
C115 C116 1.397 . S
C116 H97 0.950 . S
C116 C115 1.397 . S
C116 C117 1.391 . S
C117 C116 1.391 . S
C117 C118 1.405 . S
C118 H98 0.950 . S
C118 C117 1.405 . S
C118 C119 1.367 . S
C119 H99 0.950 . S
C119 C114 1.386 . S
C119 C118 1.367 . S
C120 C114 1.483 . S
C120 C121 1.382 . S
C120 C122 1.403 . S
C121 H100 0.950 . S
C121 C120 1.382 . S
C121 C137 1.411 . S
C122 C120 1.403 . S
C122 C123 1.489 . S
C122 C136 1.411 . S
C123 C122 1.489 . S
C123 C124 1.383 . S
C123 C128 1.382 . S
C124 H101 0.950 . S
C124 C123 1.383 . S
C124 C125 1.395 . S
C125 H102 0.950 . S
C125 C124 1.395 . S
C125 C126 1.288 . S
C126 C125 1.288 . S
C126 C127 1.392 . S
C127 H103 0.951 . S
C127 C126 1.392 . S
C127 C128 1.392 . S
C128 H104 0.949 . S
C128 C123 1.382 . S
C128 C127 1.392 . S
C129 C130 1.376 . S
C129 C134 1.386 . S
C129 C135 1.483 . S
C130 H105 0.949 . S
C130 C129 1.376 . S
C130 C131 1.397 . S
C131 H106 0.950 . S
C131 C130 1.397 . S
C131 C132 1.391 . S
C132 C131 1.391 . S
C132 C133 1.405 . S
C133 H107 0.950 . S
C133 C132 1.405 . S
C133 C134 1.367 . S
C134 H108 0.950 . S
C134 C129 1.386 . S
C134 C133 1.367 . S
C135 C129 1.483 . S
C135 C136 1.382 . S
C135 C137 1.403 . S
C136 H109 0.950 . S
C136 C122 1.411 . S
C136 C135 1.382 . S
C137 C121 1.411 . S
C137 C135 1.403 . S
C137 C138 1.489 . S
C138 C137 1.489 . S
C138 C139 1.383 . S
C138 C143 1.382 . S
C139 H110 0.950 . S
C139 C138 1.383 . S
C139 C140 1.395 . S
C140 H111 0.950 . S
C140 C139 1.395 . S
C140 C141 1.288 . S
C141 C140 1.288 . S
C141 C142 1.392 . S
C142 H112 0.951 . S
C142 C141 1.392 . S
C142 C143 1.392 . S
C143 H113 0.949 . S
C143 C138 1.382 . S
C143 C142 1.392 . S
H144 C163 0.949 . S
H145 C164 0.950 . S
H146 C166 0.950 . S
H147 C167 0.950 . S
H148 C169 0.950 . S
H149 C172 0.950 . S
H150 C173 0.950 . S
H151 C175 0.951 . S
H152 C176 0.949 . S
H153 C178 0.949 . S
H154 C179 0.950 . S
H155 C181 0.950 . S
H156 C182 0.950 . S
H157 C184 0.950 . S
H158 C187 0.950 . S
H159 C188 0.950 . S
H160 C190 0.951 . S
H161 C191 0.949 . S
C162 C163 1.376 . S
C162 C167 1.386 . S
C162 C168 1.483 . S
C163 H144 0.949 . S
C163 C162 1.376 . S
C163 C164 1.397 . S
C164 H145 0.950 . S
C164 C163 1.397 . S
C164 C165 1.391 . S
C165 C164 1.391 . S
C165 C166 1.405 . S
C166 H146 0.950 . S
C166 C165 1.405 . S
C166 C167 1.367 . S
C167 H147 0.950 . S
C167 C162 1.386 . S
C167 C166 1.367 . S
C168 C162 1.483 . S
C168 C169 1.382 . S
C168 C170 1.403 . S
C169 H148 0.950 . S
C169 C168 1.382 . S
C169 C185 1.411 1_565 S
C170 C168 1.403 . S
C170 C171 1.489 . S
C170 C184 1.411 1_565 S
C171 C170 1.489 . S
C171 C172 1.383 . S
C171 C176 1.382 . S
C172 H149 0.950 . S
C172 C171 1.383 . S
C172 C173 1.395 . S
C173 H150 0.950 . S
C173 C172 1.395 . S
C173 C174 1.288 . S
C174 C173 1.288 . S
C174 C175 1.392 . S
C175 H151 0.951 . S
C175 C174 1.392 . S
C175 C176 1.392 . S
C176 H152 0.949 . S
C176 C171 1.382 . S
C176 C175 1.392 . S
C177 C178 1.376 . S
C177 C182 1.386 . S
C177 C183 1.483 . S
C178 H153 0.949 . S
C178 C177 1.376 . S
C178 C179 1.397 . S
C179 H154 0.950 . S
C179 C178 1.397 . S
C179 C180 1.391 . S
C180 C179 1.391 . S
C180 C181 1.405 . S
C181 H155 0.950 . S
C181 C180 1.405 . S
C181 C182 1.367 . S
C182 H156 0.950 . S
C182 C177 1.386 . S
C182 C181 1.367 . S
C183 C177 1.483 . S
C183 C184 1.382 . S
C183 C185 1.403 . S
C184 H157 0.950 . S
C184 C170 1.411 1_545 S
C184 C183 1.382 . S
C185 C169 1.411 1_545 S
C185 C183 1.403 . S
C185 C186 1.489 . S
C186 C185 1.489 . S
C186 C187 1.383 . S
C186 C191 1.382 . S
C187 H158 0.950 . S
C187 C186 1.383 . S
C187 C188 1.395 . S
C188 H159 0.950 . S
C188 C187 1.395 . S
C188 C189 1.288 . S
C189 C188 1.288 . S
C189 C190 1.392 . S
C190 H160 0.951 . S
C190 C189 1.392 . S
C190 C191 1.392 . S
C191 H161 0.949 . S
C191 C186 1.382 . S
C191 C190 1.392 . S
H192 C211 0.949 . S
H193 C212 0.950 . S
H194 C214 0.950 . S
H195 C215 0.950 . S
H196 C217 0.950 . S
H197 C220 0.950 . S
H198 C221 0.950 . S
H199 C223 0.951 . S
H200 C224 0.949 . S
H201 C226 0.949 . S
H202 C227 0.950 . S
H203 C229 0.950 . S
H204 C230 0.950 . S
H205 C232 0.950 . S
H206 C235 0.950 . S
H207 C236 0.950 . S
H208 C238 0.951 . S
H209 C239 0.949 . S
C210 C211 1.376 . S
C210 C215 1.386 . S
C210 C216 1.483 . S
C211 H192 0.949 . S
C211 C210 1.376 . S
C211 C212 1.397 . S
C212 H193 0.950 . S
C212 C211 1.397 . S
C212 C213 1.391 . S
C213 C212 1.391 . S
C213 C214 1.405 . S
C214 H194 0.950 . S
C214 C213 1.405 . S
C214 C215 1.367 . S
C215 H195 0.950 . S
C215 C210 1.386 . S
C215 C214 1.367 . S
C216 C210 1.483 . S
C216 C217 1.382 1_455 S
C216 C218 1.403 . S
C217 H196 0.950 . S
C217 C216 1.382 1_655 S
C217 C233 1.411 . S
C218 C216 1.403 . S
C218 C219 1.489 . S
C218 C232 1.411 . S
C219 C218 1.489 . S
C219 C220 1.383 . S
C219 C224 1.382 . S
C220 H197 0.950 . S
C220 C219 1.383 . S
C220 C221 1.395 . S
C221 H198 0.950 . S
C221 C220 1.395 . S
C221 C222 1.288 . S
C222 C221 1.288 . S
C222 C223 1.392 . S
C223 H199 0.951 . S
C223 C222 1.392 . S
C223 C224 1.392 . S
C224 H200 0.949 . S
C224 C219 1.382 . S
C224 C223 1.392 . S
C225 C226 1.376 . S
C225 C230 1.386 . S
C225 C231 1.483 . S
C226 H201 0.949 . S
C226 C225 1.376 . S
C226 C227 1.397 . S
C227 H202 0.950 . S
C227 C226 1.397 . S
C227 C228 1.391 . S
C228 C227 1.391 . S
C228 C229 1.405 . S
C229 H203 0.950 . S
C229 C228 1.405 . S
C229 C230 1.367 . S
C230 H204 0.950 . S
C230 C225 1.386 . S
C230 C229 1.367 . S
C231 C225 1.483 . S
C231 C232 1.382 1_655 S
C231 C233 1.403 . S
C232 H205 0.950 . S
C232 C218 1.411 . S
C232 C231 1.382 1_455 S
C233 C217 1.411 . S
C233 C231 1.403 . S
C233 C234 1.489 . S
C234 C233 1.489 . S
C234 C235 1.383 . S
C234 C239 1.382 . S
C235 H206 0.950 . S
C235 C234 1.383 . S
C235 C236 1.395 . S
C236 H207 0.950 . S
C236 C235 1.395 . S
C236 C237 1.288 . S
C237 C236 1.288 . S
C237 C238 1.392 . S
C238 H208 0.951 . S
C238 C237 1.392 . S
C238 C239 1.392 . S
C239 H209 0.949 . S
C239 C234 1.382 . S
C239 C238 1.392 . S
H240 C259 0.949 . S
H241 C260 0.950 . S
H242 C262 0.950 . S
H243 C263 0.950 . S
H244 C265 0.950 . S
H245 C268 0.950 . S
H246 C269 0.950 . S
H247 C271 0.951 . S
H248 C272 0.949 . S
H249 C274 0.949 . S
H250 C275 0.950 . S
H251 C277 0.950 . S
H252 C278 0.950 . S
H253 C280 0.950 . S
H254 C283 0.950 . S
H255 C284 0.950 . S
H256 C286 0.951 . S
H257 C287 0.949 . S
C258 C259 1.376 . S
C258 C263 1.386 . S
C258 C264 1.483 . S
C259 H240 0.949 . S
C259 C258 1.376 . S
C259 C260 1.397 . S
C260 H241 0.950 . S
C260 C259 1.397 . S
C260 C261 1.391 . S
C261 C260 1.391 . S
C261 C262 1.405 . S
C262 H242 0.950 . S
C262 C261 1.405 . S
C262 C263 1.367 . S
C263 H243 0.950 . S
C263 C258 1.386 . S
C263 C262 1.367 . S
C264 C258 1.483 . S
C264 C265 1.382 . S
C264 C266 1.403 . S
C265 H244 0.950 . S
C265 C264 1.382 . S
C265 C281 1.411 . S
C266 C264 1.403 . S
C266 C267 1.489 . S
C266 C280 1.411 . S
C267 C266 1.489 . S
C267 C268 1.383 . S
C267 C272 1.382 . S
C268 H245 0.950 . S
C268 C267 1.383 . S
C268 C269 1.395 . S
C269 H246 0.950 . S
C269 C268 1.395 . S
C269 C270 1.288 . S
C270 C269 1.288 . S
C270 C271 1.392 . S
C271 H247 0.951 . S
C271 C270 1.392 . S
C271 C272 1.392 . S
C272 H248 0.949 . S
C272 C267 1.382 . S
C272 C271 1.392 . S
C273 C274 1.376 . S
C273 C278 1.386 . S
C273 C279 1.483 . S
C274 H249 0.949 . S
C274 C273 1.376 . S
C274 C275 1.397 . S
C275 H250 0.950 . S
C275 C274 1.397 . S
C275 C276 1.391 . S
C276 C275 1.391 . S
C276 C277 1.405 . S
C277 H251 0.950 . S
C277 C276 1.405 . S
C277 C278 1.367 . S
C278 H252 0.950 . S
C278 C273 1.386 . S
C278 C277 1.367 . S
C279 C273 1.483 . S
C279 C280 1.382 . S
C279 C281 1.403 . S
C280 H253 0.950 . S
C280 C266 1.411 . S
C280 C279 1.382 . S
C281 C265 1.411 . S
C281 C279 1.403 . S
C281 C282 1.489 . S
C282 C281 1.489 . S
C282 C283 1.383 . S
C282 C287 1.382 . S
C283 H254 0.950 . S
C283 C282 1.383 . S
C283 C284 1.395 . S
C284 H255 0.950 . S
C284 C283 1.395 . S
C284 C285 1.288 . S
C285 C284 1.288 . S
C285 C286 1.392 . S
C286 H256 0.951 . S
C286 C285 1.392 . S
C286 C287 1.392 . S
C287 H257 0.949 . S
C287 C282 1.382 . S
C287 C286 1.392 . S
H288 C307 0.949 . S
H289 C308 0.950 . S
H290 C310 0.950 . S
H291 C311 0.950 . S
H292 C313 0.950 . S
H293 C316 0.950 . S
H294 C317 0.950 . S
H295 C319 0.951 . S
H296 C320 0.949 1_545 S
H297 C322 0.949 . S
H298 C323 0.950 . S
H299 C325 0.950 . S
H300 C326 0.950 . S
H301 C328 0.950 . S
H302 C331 0.950 . S
H303 C332 0.950 . S
H304 C334 0.951 . S
H305 C335 0.949 . S
C306 C307 1.376 . S
C306 C311 1.386 . S
C306 C312 1.483 . S
C307 H288 0.949 . S
C307 C306 1.376 . S
C307 C308 1.397 . S
C308 H289 0.950 . S
C308 C307 1.397 . S
C308 C309 1.391 . S
C309 C308 1.391 . S
C309 C310 1.405 . S
C310 H290 0.950 . S
C310 C309 1.405 . S
C310 C311 1.367 . S
C311 H291 0.950 . S
C311 C306 1.386 . S
C311 C310 1.367 . S
C312 C306 1.483 . S
C312 C313 1.382 1_565 S
C312 C314 1.403 . S
C313 H292 0.950 . S
C313 C312 1.382 1_545 S
C313 C329 1.411 . S
C314 C312 1.403 . S
C314 C315 1.489 . S
C314 C328 1.411 1_565 S
C315 C314 1.489 . S
C315 C316 1.383 . S
C315 C320 1.382 . S
C316 H293 0.950 . S
C316 C315 1.383 . S
C316 C317 1.395 . S
C317 H294 0.950 . S
C317 C316 1.395 . S
C317 C318 1.288 . S
C318 C317 1.288 . S
C318 C319 1.392 . S
C319 H295 0.951 . S
C319 C318 1.392 . S
C319 C320 1.392 . S
C320 H296 0.949 1_565 S
C320 C315 1.382 . S
C320 C319 1.392 . S
C321 C322 1.376 . S
C321 C326 1.386 . S
C321 C327 1.483 . S
C322 H297 0.949 . S
C322 C321 1.376 . S
C322 C323 1.397 . S
C323 H298 0.950 . S
C323 C322 1.397 . S
C323 C324 1.391 . S
C324 C323 1.391 . S
C324 C325 1.405 . S
C325 H299 0.950 . S
C325 C324 1.405 . S
C325 C326 1.367 . S
C326 H300 0.950 . S
C326 C321 1.386 . S
C326 C325 1.367 . S
C327 C321 1.483 . S
C327 C328 1.382 . S
C327 C329 1.403 . S
C328 H301 0.950 . S
C328 C314 1.411 1_545 S
C328 C327 1.382 . S
C329 C313 1.411 . S
C329 C327 1.403 . S
C329 C330 1.489 . S
C330 C329 1.489 . S
C330 C331 1.383 . S
C330 C335 1.382 . S
C331 H302 0.950 . S
C331 C330 1.383 . S
C331 C332 1.395 . S
C332 H303 0.950 . S
C332 C331 1.395 . S
C332 C333 1.288 . S
C333 C332 1.288 . S
C333 C334 1.392 . S
C334 H304 0.951 . S
C334 C333 1.392 . S
C334 C335 1.392 . S
C335 H305 0.949 . S
C335 C330 1.382 . S
C335 C334 1.392 . S
H336 C355 0.949 . S
H337 C356 0.950 . S
H338 C358 0.950 . S
H339 C359 0.950 . S
H340 C361 0.950 . S
H341 C364 0.950 1_455 S
H342 C365 0.950 . S
H343 C367 0.951 . S
H344 C368 0.949 . S
H345 C370 0.949 . S
H346 C371 0.950 . S
H347 C373 0.950 . S
H348 C374 0.950 . S
H349 C376 0.950 . S
H350 C379 0.950 . S
H351 C380 0.950 . S
H352 C382 0.951 . S
H353 C383 0.978 . S
C354 C355 1.376 1_655 S
C354 C359 1.386 . S
C354 C360 1.483 1_655 S
C355 H336 0.949 . S
C355 C354 1.376 1_455 S
C355 C356 1.397 1_455 S
C356 H337 0.950 . S
C356 C355 1.397 1_655 S
C356 C357 1.391 . S
C357 C356 1.391 . S
C357 C358 1.405 . S
C358 H338 0.950 . S
C358 C357 1.405 . S
C358 C359 1.367 . S
C359 H339 0.950 . S
C359 C354 1.386 . S
C359 C358 1.367 . S
C360 C354 1.483 1_455 S
C360 C361 1.382 . S
C360 C362 1.403 . S
C361 H340 0.950 . S
C361 C360 1.382 . S
C361 C377 1.411 . S
C362 C360 1.403 . S
C362 C363 1.489 1_455 S
C362 C376 1.411 . S
C363 C362 1.489 1_655 S
C363 C364 1.383 . S
C363 C368 1.382 . S
C364 H341 0.950 1_655 S
C364 C363 1.383 . S
C364 C365 1.395 . S
C365 H342 0.950 . S
C365 C364 1.395 . S
C365 C366 1.288 . S
C366 C365 1.288 . S
C366 C367 1.392 . S
C367 H343 0.951 . S
C367 C366 1.392 . S
C367 C368 1.392 . S
C368 H344 0.949 . S
C368 C363 1.382 . S
C368 C367 1.392 . S
C369 C370 1.376 . S
C369 C374 1.386 . S
C369 C375 1.483 1_565 S
C370 H345 0.949 . S
C370 C369 1.376 . S
C370 C371 1.397 . S
C371 H346 0.950 . S
C371 C370 1.397 . S
C371 C372 1.391 . S
C372 C371 1.391 . S
C372 C373 1.405 . S
C373 H347 0.950 . S
C373 C372 1.405 . S
C373 C374 1.367 . S
C374 H348 0.950 . S
C374 C369 1.386 . S
C374 C373 1.367 . S
C375 C369 1.483 1_545 S
C375 C376 1.382 . S
C375 C377 1.403 . S
C376 H349 0.950 . S
C376 C362 1.411 . S
C376 C375 1.382 . S
C377 C361 1.411 . S
C377 C375 1.403 . S
C377 C378 1.489 1_545 S
C378 C377 1.489 1_565 S
C378 C379 1.383 . S
C378 C383 1.372 1_565 S
C379 H350 0.950 . S
C379 C378 1.383 . S
C379 C380 1.395 . S
C380 H351 0.950 . S
C380 C379 1.395 . S
C380 C381 1.288 . S
C381 C380 1.288 . S
C381 C382 1.392 . S
C382 H352 0.951 . S
C382 C381 1.392 . S
C382 C383 1.372 1_565 S
C383 H353 0.978 . S
C383 C378 1.372 1_545 S
C383 C382 1.372 1_545 S
C384 O385 1.306 . S
C384 O387 1.160 . S
O385 C384 1.306 . S
O385 Cd386 2.228 . S
Cd386 O385 2.228 . S
Cd386 O390 2.273 1_554 S
Cd386 O394 2.277 . S
O387 C384 1.160 . S
O387 Cd388 2.203 . S
Cd388 O387 2.203 . S
Cd388 O390 2.411 1_554 S
Cd388 O391 2.333 1_554 S
Cd388 O392 2.352 . S
Cd388 O396 2.277 . S
Cd388 O397 2.356 1_554 S
C389 O394 1.209 . S
C389 O396 1.226 . S
O390 Cd386 2.273 1_556 S
O390 Cd388 2.411 1_556 S
O390 C393 1.320 . S
O391 Cd388 2.333 1_556 S
O391 C393 1.214 . S
O392 Cd388 2.352 . S
O392 C395 1.255 1_554 S
C393 O390 1.320 . S
C393 O391 1.214 . S
O394 Cd386 2.277 . S
O394 C389 1.209 . S
C395 O392 1.255 1_556 S
C395 O397 1.285 . S
O396 Cd388 2.277 . S
O396 C389 1.226 . S
O397 Cd388 2.356 1_556 S
O397 C395 1.285 . S
C398 O399 1.306 . S
C398 O401 1.160 . S
O399 C398 1.306 . S
O399 Cd400 2.228 . S
Cd400 O399 2.228 . S
Cd400 O404 2.273 . S
Cd400 O408 2.277 . S
O401 C398 1.160 . S
O401 Cd402 2.203 . S
Cd402 O401 2.203 . S
Cd402 O404 2.411 . S
Cd402 O405 2.333 . S
Cd402 O406 2.352 . S
Cd402 O410 2.277 . S
Cd402 O411 2.356 . S
C403 O408 1.209 . S
C403 O410 1.226 . S
O404 Cd400 2.273 . S
O404 Cd402 2.411 . S
O404 C407 1.320 . S
O405 Cd402 2.333 . S
O405 C407 1.214 . S
O406 Cd402 2.352 . S
O406 C409 1.258 . S
C407 O404 1.320 . S
C407 O405 1.214 . S
O408 Cd400 2.277 . S
O408 C403 1.209 . S
C409 O406 1.258 . S
C409 O411 1.282 . S
O410 Cd402 2.277 . S
O410 C403 1.226 . S
O411 Cd402 2.356 . S
O411 C409 1.282 . S
C412 O413 1.306 . S
C412 O415 1.160 . S
O413 C412 1.306 . S
O413 Cd414 2.228 . S
Cd414 O413 2.228 . S
Cd414 O418 2.273 . S
Cd414 O422 2.277 . S
O415 C412 1.160 . S
O415 Cd416 2.203 . S
Cd416 O415 2.203 . S
Cd416 O418 2.411 . S
Cd416 O419 2.333 . S
Cd416 O420 2.352 . S
Cd416 O424 2.277 . S
Cd416 O425 2.356 . S
C417 O422 1.209 . S
C417 O424 1.226 . S
O418 Cd414 2.273 . S
O418 Cd416 2.411 . S
O418 C421 1.320 . S
O419 Cd416 2.333 . S
O419 C421 1.214 . S
O420 Cd416 2.352 . S
O420 C423 1.258 . S
C421 O418 1.320 . S
C421 O419 1.214 . S
O422 Cd414 2.277 . S
O422 C417 1.209 . S
C423 O420 1.258 . S
C423 O425 1.282 . S
O424 Cd416 2.277 . S
O424 C417 1.226 . S
O425 Cd416 2.356 . S
O425 C423 1.282 . S
C426 O427 1.306 . S
C426 O429 1.160 . S
O427 C426 1.306 . S
O427 Cd428 2.228 . S
Cd428 O427 2.228 . S
Cd428 O432 2.273 . S
Cd428 O436 2.277 . S
O429 C426 1.160 . S
O429 Cd430 2.203 . S
Cd430 O429 2.203 . S
Cd430 O432 2.411 . S
Cd430 O433 2.333 . S
Cd430 O434 2.352 . S
Cd430 O438 2.277 . S
Cd430 O439 2.356 . S
C431 O436 1.209 . S
C431 O438 1.226 . S
O432 Cd428 2.273 . S
O432 Cd430 2.411 . S
O432 C435 1.320 . S
O433 Cd430 2.333 . S
O433 C435 1.214 . S
O434 Cd430 2.352 . S
O434 C437 1.258 . S
C435 O432 1.320 . S
C435 O433 1.214 . S
O436 Cd428 2.277 . S
O436 C431 1.209 . S
C437 O434 1.258 . S
C437 O439 1.282 . S
O438 Cd430 2.277 . S
O438 C431 1.226 . S
O439 Cd430 2.356 . S
O439 C437 1.282 . S
C440 O441 1.306 . S
C440 O443 1.160 . S
O441 C440 1.306 . S
O441 Cd442 2.228 . S
Cd442 O441 2.228 . S
Cd442 O446 2.273 . S
Cd442 O450 2.277 . S
O443 C440 1.160 . S
O443 Cd444 2.203 . S
Cd444 O443 2.203 . S
Cd444 O446 2.411 . S
Cd444 O447 2.333 . S
Cd444 O448 2.352 . S
Cd444 O452 2.277 . S
Cd444 O453 2.356 . S
C445 O450 1.209 . S
C445 O452 1.226 . S
O446 Cd442 2.273 . S
O446 Cd444 2.411 . S
O446 C449 1.320 . S
O447 Cd444 2.333 . S
O447 C449 1.214 . S
O448 Cd444 2.352 . S
O448 C451 1.258 . S
C449 O446 1.320 . S
C449 O447 1.214 . S
O450 Cd442 2.277 . S
O450 C445 1.209 . S
C451 O448 1.258 . S
C451 O453 1.282 . S
O452 Cd444 2.277 . S
O452 C445 1.226 . S
O453 Cd444 2.356 . S
O453 C451 1.282 . S
C454 O455 1.306 . S
C454 O457 1.160 . S
O455 C454 1.306 . S
O455 Cd456 2.228 . S
Cd456 O455 2.228 . S
Cd456 O460 2.273 . S
Cd456 O464 2.277 . S
O457 C454 1.160 . S
O457 Cd458 2.203 . S
Cd458 O457 2.203 . S
Cd458 O460 2.411 . S
Cd458 O461 2.333 . S
Cd458 O462 2.352 . S
Cd458 O466 2.277 . S
Cd458 O467 2.356 . S
C459 O464 1.209 . S
C459 O466 1.226 . S
O460 Cd456 2.273 . S
O460 Cd458 2.411 . S
O460 C463 1.320 . S
O461 Cd458 2.333 . S
O461 C463 1.214 . S
O462 Cd458 2.352 . S
O462 C465 1.258 . S
C463 O460 1.320 . S
C463 O461 1.214 . S
O464 Cd456 2.277 . S
O464 C459 1.209 . S
C465 O462 1.258 . S
C465 O467 1.282 . S
O466 Cd458 2.277 . S
O466 C459 1.226 . S
O467 Cd458 2.356 . S
O467 C465 1.282 . S
C468 O469 1.306 . S
C468 O471 1.160 . S
O469 C468 1.306 . S
O469 Cd470 2.268 . S
Cd470 O469 2.268 . S
Cd470 O474 2.240 1_556 S
Cd470 O478 2.282 . S
O471 C468 1.160 . S
O471 Cd472 2.203 1_556 S
Cd472 O471 2.203 1_554 S
Cd472 O474 2.411 . S
Cd472 O475 2.333 . S
Cd472 O476 2.352 . S
Cd472 O480 2.277 1_554 S
Cd472 O481 2.356 . S
C473 O478 1.209 . S
C473 O480 1.226 . S
O474 Cd470 2.240 1_554 S
O474 Cd472 2.411 . S
O474 C477 1.320 . S
O475 Cd472 2.333 . S
O475 C477 1.214 . S
O476 Cd472 2.352 . S
O476 C479 1.258 . S
C477 O474 1.320 . S
C477 O475 1.214 . S
O478 Cd470 2.282 . S
O478 C473 1.209 . S
C479 O476 1.258 . S
C479 O481 1.282 . S
O480 Cd472 2.277 1_556 S
O480 C473 1.226 . S
O481 Cd472 2.356 . S
O481 C479 1.282 . S
C482 O483 1.306 . S
C482 O485 1.160 . S
O483 C482 1.306 . S
O483 Cd484 2.228 . S
Cd484 O483 2.228 . S
Cd484 O488 2.273 . S
Cd484 O492 2.277 . S
O485 C482 1.160 . S
O485 Cd486 2.203 . S
Cd486 O485 2.203 . S
Cd486 O488 2.411 . S
Cd486 O489 2.333 . S
Cd486 O490 2.352 . S
Cd486 O494 2.277 . S
Cd486 O495 2.356 . S
C487 O492 1.209 . S
C487 O494 1.226 . S
O488 Cd484 2.273 . S
O488 Cd486 2.411 . S
O488 C491 1.320 . S
O489 Cd486 2.333 . S
O489 C491 1.214 . S
O490 Cd486 2.352 . S
O490 C493 1.258 . S
C491 O488 1.320 . S
C491 O489 1.214 . S
O492 Cd484 2.277 . S
O492 C487 1.209 . S
C493 O490 1.258 . S
C493 O495 1.282 . S
O494 Cd486 2.277 . S
O494 C487 1.226 . S
O495 Cd486 2.356 . S
O495 C493 1.282 . S
H496 C508 0.930 . S
H497 C510 0.930 . S
H498 C511 0.930 . S
H499 C515 0.959 . S
H500 C515 0.959 . S
H501 C515 0.961 . S
H502 C516 0.960 . S
H503 C516 0.961 . S
H504 C516 0.959 . S
H505 C519 0.929 . S
H506 C520 0.931 . S
H507 C522 0.930 . S
C508 H496 0.930 . S
C508 C509 1.399 . S
C508 C513 1.399 . S
C509 C508 1.399 . S
C509 C510 1.376 . S
C510 H497 0.930 . S
C510 C509 1.376 . S
C510 C511 1.388 . S
C511 H498 0.930 . S
C511 C510 1.388 . S
C511 C512 1.390 . S
C512 C511 1.390 . S
C512 C513 1.394 . S
C512 C518 1.465 . S
C513 C508 1.399 . S
C513 C512 1.394 . S
C513 C514 1.516 . S
C514 C513 1.516 . S
C514 C515 1.502 . S
C514 C516 1.561 . S
C514 C517 1.526 . S
C515 H499 0.959 . S
C515 H500 0.959 . S
C515 H501 0.961 . S
C515 C514 1.502 . S
C516 H502 0.960 . S
C516 H503 0.961 . S
C516 H504 0.959 . S
C516 C514 1.561 . S
C517 C514 1.526 . S
C517 C518 1.396 . S
C517 C522 1.390 . S
C518 C512 1.465 . S
C518 C517 1.396 . S
C518 C519 1.399 . S
C519 H505 0.929 . S
C519 C518 1.399 . S
C519 C520 1.385 . S
C520 H506 0.931 . S
C520 C519 1.385 . S
C520 C521 1.389 . S
C521 C520 1.389 . S
C521 C522 1.387 . S
C522 H507 0.930 . S
C522 C517 1.390 . S
C522 C521 1.387 . S
H523 C535 0.930 . S
H524 C537 0.930 . S
H525 C538 0.930 . S
H526 C542 0.959 . S
H527 C542 0.959 . S
H528 C542 0.961 . S
H529 C543 0.960 . S
H530 C543 0.961 . S
H531 C543 0.959 . S
H532 C546 0.929 . S
H533 C547 0.931 . S
H534 C549 0.930 . S
C535 H523 0.930 . S
C535 C536 1.399 . S
C535 C540 1.399 . S
C536 C535 1.399 . S
C536 C537 1.376 . S
C537 H524 0.930 . S
C537 C536 1.376 . S
C537 C538 1.388 . S
C538 H525 0.930 . S
C538 C537 1.388 . S
C538 C539 1.390 . S
C539 C538 1.390 . S
C539 C540 1.394 . S
C539 C545 1.465 . S
C540 C535 1.399 . S
C540 C539 1.394 . S
C540 C541 1.516 . S
C541 C540 1.516 . S
C541 C542 1.502 . S
C541 C543 1.561 . S
C541 C544 1.526 . S
C542 H526 0.959 . S
C542 H527 0.959 . S
C542 H528 0.961 . S
C542 C541 1.502 . S
C543 H529 0.960 . S
C543 H530 0.961 . S
C543 H531 0.959 . S
C543 C541 1.561 . S
C544 C541 1.526 . S
C544 C545 1.396 . S
C544 C549 1.390 . S
C545 C539 1.465 . S
C545 C544 1.396 . S
C545 C546 1.399 . S
C546 H532 0.929 . S
C546 C545 1.399 . S
C546 C547 1.385 . S
C547 H533 0.931 . S
C547 C546 1.385 . S
C547 C548 1.389 . S
C548 C547 1.389 . S
C548 C549 1.387 . S
C549 H534 0.930 . S
C549 C544 1.390 . S
C549 C548 1.387 . S
H550 C562 0.930 . S
H551 C564 0.930 . S
H552 C565 0.930 . S
H553 C569 0.959 . S
H554 C569 0.959 . S
H555 C569 0.961 . S
H556 C570 0.960 . S
H557 C570 0.961 . S
H558 C570 0.959 . S
H559 C573 0.929 . S
H560 C574 0.931 . S
H561 C576 0.930 . S
C562 H550 0.930 . S
C562 C563 1.399 . S
C562 C567 1.399 . S
C563 C562 1.399 . S
C563 C564 1.376 . S
C564 H551 0.930 . S
C564 C563 1.376 . S
C564 C565 1.388 . S
C565 H552 0.930 . S
C565 C564 1.388 . S
C565 C566 1.390 . S
C566 C565 1.390 . S
C566 C567 1.394 . S
C566 C572 1.465 . S
C567 C562 1.399 . S
C567 C566 1.394 . S
C567 C568 1.516 . S
C568 C567 1.516 . S
C568 C569 1.502 . S
C568 C570 1.561 . S
C568 C571 1.526 . S
C569 H553 0.959 . S
C569 H554 0.959 . S
C569 H555 0.961 . S
C569 C568 1.502 . S
C570 H556 0.960 . S
C570 H557 0.961 . S
C570 H558 0.959 . S
C570 C568 1.561 . S
C571 C568 1.526 . S
C571 C572 1.396 . S
C571 C576 1.390 . S
C572 C566 1.465 . S
C572 C571 1.396 . S
C572 C573 1.399 . S
C573 H559 0.929 . S
C573 C572 1.399 . S
C573 C574 1.385 . S
C574 H560 0.931 . S
C574 C573 1.385 . S
C574 C575 1.389 . S
C575 C574 1.389 . S
C575 C576 1.387 . S
C576 H561 0.930 . S
C576 C571 1.390 . S
C576 C575 1.387 . S
H577 C589 0.930 . S
H578 C591 0.930 . S
H579 C592 0.930 . S
H580 C596 0.959 1_554 S
H581 C596 0.959 . S
H582 C596 0.961 . S
H583 C597 0.960 . S
H584 C597 0.961 . S
H585 C597 0.959 . S
H586 C600 0.929 . S
H587 C601 0.931 . S
H588 C603 0.930 1_556 S
C589 H577 0.930 . S
C589 C590 1.399 . S
C589 C594 1.399 . S
C590 C589 1.399 . S
C590 C591 1.376 . S
C591 H578 0.930 . S
C591 C590 1.376 . S
C591 C592 1.388 . S
C592 H579 0.930 . S
C592 C591 1.388 . S
C592 C593 1.390 . S
C593 C592 1.390 . S
C593 C594 1.394 . S
C593 C599 1.465 . S
C594 C589 1.399 . S
C594 C593 1.394 . S
C594 C595 1.516 . S
C595 C594 1.516 . S
C595 C596 1.502 1_554 S
C595 C597 1.561 1_554 S
C595 C598 1.526 . S
C596 H580 0.959 1_556 S
C596 H581 0.959 . S
C596 H582 0.961 . S
C596 C595 1.502 1_556 S
C597 H583 0.960 . S
C597 H584 0.961 . S
C597 H585 0.959 . S
C597 C595 1.561 1_556 S
C598 C595 1.526 . S
C598 C599 1.396 . S
C598 C603 1.390 . S
C599 C593 1.465 . S
C599 C598 1.396 . S
C599 C600 1.399 . S
C600 H586 0.929 . S
C600 C599 1.399 . S
C600 C601 1.385 . S
C601 H587 0.931 . S
C601 C600 1.385 . S
C601 C602 1.389 . S
C602 C601 1.389 . S
C602 C603 1.387 . S
C603 H588 0.930 1_554 S
C603 C598 1.390 . S
C603 C602 1.387 . S
H604 C616 0.930 1_554 S
H605 C618 0.930 . S
H606 C619 0.930 . S
H607 C623 0.959 . S
H608 C623 0.959 . S
H609 C623 0.961 . S
H610 C624 0.960 . S
H611 C624 0.961 . S
H612 C624 0.959 . S
H613 C627 0.929 . S
H614 C628 0.931 . S
H615 C630 0.930 . S
C616 H604 0.930 1_556 S
C616 C617 1.399 . S
C616 C621 1.399 . S
C617 C616 1.399 . S
C617 C618 1.376 . S
C618 H605 0.930 . S
C618 C617 1.376 . S
C618 C619 1.388 . S
C619 H606 0.930 . S
C619 C618 1.388 . S
C619 C620 1.390 . S
C620 C619 1.390 . S
C620 C621 1.394 . S
C620 C626 1.465 . S
C621 C616 1.399 . S
C621 C620 1.394 . S
C621 C622 1.516 1_556 S
C622 C621 1.516 1_554 S
C622 C623 1.502 . S
C622 C624 1.561 . S
C622 C625 1.528 1_554 S
C623 H607 0.959 . S
C623 H608 0.959 . S
C623 H609 0.961 . S
C623 C622 1.502 . S
C624 H610 0.960 . S
C624 H611 0.961 . S
C624 H612 0.959 . S
C624 C622 1.561 . S
C625 C622 1.528 1_556 S
C625 C626 1.391 . S
C625 C630 1.391 1_556 S
C626 C620 1.465 . S
C626 C625 1.391 . S
C626 C627 1.399 . S
C627 H613 0.929 . S
C627 C626 1.399 . S
C627 C628 1.385 . S
C628 H614 0.931 . S
C628 C627 1.385 . S
C628 C629 1.389 . S
C629 C628 1.389 . S
C629 C630 1.387 1_556 S
C630 H615 0.930 . S
C630 C625 1.391 1_554 S
C630 C629 1.387 1_554 S
H631 C643 0.930 . S
H632 C645 0.930 . S
H633 C646 0.930 . S
H634 C650 0.959 . S
H635 C650 0.959 . S
H636 C650 0.961 . S
H637 C651 0.960 . S
H638 C651 0.961 . S
H639 C651 0.959 . S
H640 C654 0.929 . S
H641 C655 0.931 . S
H642 C657 0.930 . S
C643 H631 0.930 . S
C643 C644 1.399 . S
C643 C648 1.399 . S
C644 C643 1.399 . S
C644 C645 1.376 . S
C645 H632 0.930 . S
C645 C644 1.376 . S
C645 C646 1.388 . S
C646 H633 0.930 . S
C646 C645 1.388 . S
C646 C647 1.390 . S
C647 C646 1.390 . S
C647 C648 1.394 . S
C647 C653 1.465 . S
C648 C643 1.399 . S
C648 C647 1.394 . S
C648 C649 1.516 . S
C649 C648 1.516 . S
C649 C650 1.502 . S
C649 C651 1.561 . S
C649 C652 1.526 . S
C650 H634 0.959 . S
C650 H635 0.959 . S
C650 H636 0.961 . S
C650 C649 1.502 . S
C651 H637 0.960 . S
C651 H638 0.961 . S
C651 H639 0.959 . S
C651 C649 1.561 . S
C652 C649 1.526 . S
C652 C653 1.396 . S
C652 C657 1.390 . S
C653 C647 1.465 . S
C653 C652 1.396 . S
C653 C654 1.399 . S
C654 H640 0.929 . S
C654 C653 1.399 . S
C654 C655 1.385 . S
C655 H641 0.931 . S
C655 C654 1.385 . S
C655 C656 1.389 . S
C656 C655 1.389 . S
C656 C657 1.387 . S
C657 H642 0.930 . S
C657 C652 1.390 . S
C657 C656 1.387 . S
H658 C670 0.930 . S
H659 C672 0.930 . S
H660 C673 0.930 . S
H661 C677 0.959 . S
H662 C677 0.959 . S
H663 C677 0.961 . S
H664 C678 0.960 . S
H665 C678 0.961 . S
H666 C678 0.959 . S
H667 C681 0.929 . S
H668 C682 0.931 . S
H669 C684 0.930 . S
C670 H658 0.930 . S
C670 C671 1.399 . S
C670 C675 1.399 . S
C671 C670 1.399 . S
C671 C672 1.376 . S
C672 H659 0.930 . S
C672 C671 1.376 . S
C672 C673 1.388 . S
C673 H660 0.930 . S
C673 C672 1.388 . S
C673 C674 1.390 . S
C674 C673 1.390 . S
C674 C675 1.394 . S
C674 C680 1.465 . S
C675 C670 1.399 . S
C675 C674 1.394 . S
C675 C676 1.516 . S
C676 C675 1.516 . S
C676 C677 1.502 . S
C676 C678 1.561 . S
C676 C679 1.526 . S
C677 H661 0.959 . S
C677 H662 0.959 . S
C677 H663 0.961 . S
C677 C676 1.502 . S
C678 H664 0.960 . S
C678 H665 0.961 . S
C678 H666 0.959 . S
C678 C676 1.561 . S
C679 C676 1.526 . S
C679 C680 1.396 . S
C679 C684 1.390 . S
C680 C674 1.465 . S
C680 C679 1.396 . S
C680 C681 1.399 . S
C681 H667 0.929 . S
C681 C680 1.399 . S
C681 C682 1.385 . S
C682 H668 0.931 . S
C682 C681 1.385 . S
C682 C683 1.389 . S
C683 C682 1.389 . S
C683 C684 1.387 . S
C684 H669 0.930 . S
C684 C679 1.390 . S
C684 C683 1.387 . S
H685 C697 0.930 . S
H686 C699 0.930 . S
H687 C700 0.930 . S
H688 C704 0.959 . S
H689 C704 0.959 . S
H690 C704 0.961 . S
H691 C705 0.960 . S
H692 C705 0.961 . S
H693 C705 0.959 . S
H694 C708 0.929 . S
H695 C709 0.931 . S
H696 C711 0.930 . S
C697 H685 0.930 . S
C697 C698 1.399 . S
C697 C702 1.399 . S
C698 C697 1.399 . S
C698 C699 1.376 . S
C699 H686 0.930 . S
C699 C698 1.376 . S
C699 C700 1.388 . S
C700 H687 0.930 . S
C700 C699 1.388 . S
C700 C701 1.390 . S
C701 C700 1.390 . S
C701 C702 1.394 . S
C701 C707 1.465 . S
C702 C697 1.399 . S
C702 C701 1.394 . S
C702 C703 1.516 . S
C703 C702 1.516 . S
C703 C704 1.502 . S
C703 C705 1.561 . S
C703 C706 1.526 . S
C704 H688 0.959 . S
C704 H689 0.959 . S
C704 H690 0.961 . S
C704 C703 1.502 . S
C705 H691 0.960 . S
C705 H692 0.961 . S
C705 H693 0.959 . S
C705 C703 1.561 . S
C706 C703 1.526 . S
C706 C707 1.396 . S
C706 C711 1.390 . S
C707 C701 1.465 . S
C707 C706 1.396 . S
C707 C708 1.399 . S
C708 H694 0.929 . S
C708 C707 1.399 . S
C708 C709 1.385 . S
C709 H695 0.931 . S
C709 C708 1.385 . S
C709 C710 1.389 . S
C710 C709 1.389 . S
C710 C711 1.387 . S
C711 H696 0.930 . S
C711 C706 1.390 . S
C711 C710 1.387 . S
H712 C724 0.930 . S
H713 C726 0.930 . S
H714 C727 0.930 . S
H715 C731 0.959 . S
H716 C731 0.959 . S
H717 C731 0.961 . S
H718 C732 0.960 . S
H719 C732 0.961 . S
H720 C732 0.959 . S
H721 C735 0.929 . S
H722 C736 0.931 . S
H723 C738 0.930 . S
C724 H712 0.930 . S
C724 C725 1.399 . S
C724 C729 1.399 . S
C725 C724 1.399 . S
C725 C726 1.376 . S
C726 H713 0.930 . S
C726 C725 1.376 . S
C726 C727 1.388 . S
C727 H714 0.930 . S
C727 C726 1.388 . S
C727 C728 1.390 . S
C728 C727 1.390 . S
C728 C729 1.394 . S
C728 C734 1.465 . S
C729 C724 1.399 . S
C729 C728 1.394 . S
C729 C730 1.516 . S
C730 C729 1.516 . S
C730 C731 1.502 . S
C730 C732 1.561 . S
C730 C733 1.526 . S
C731 H715 0.959 . S
C731 H716 0.959 . S
C731 H717 0.961 . S
C731 C730 1.502 . S
C732 H718 0.960 . S
C732 H719 0.961 . S
C732 H720 0.959 . S
C732 C730 1.561 . S
C733 C730 1.526 . S
C733 C734 1.396 . S
C733 C738 1.390 . S
C734 C728 1.465 . S
C734 C733 1.396 . S
C734 C735 1.399 . S
C735 H721 0.929 . S
C735 C734 1.399 . S
C735 C736 1.385 . S
C736 H722 0.931 . S
C736 C735 1.385 . S
C736 C737 1.389 . S
C737 C736 1.389 . S
C737 C738 1.387 . S
C738 H723 0.930 . S
C738 C733 1.390 . S
C738 C737 1.387 . S
H739 C751 0.930 . S
H740 C753 0.969 . S
H741 C754 0.930 1_556 S
H742 C758 0.959 . S
H743 C758 0.959 . S
H744 C758 0.961 . S
H745 C759 0.960 . S
H746 C759 0.961 . S
H747 C759 0.959 . S
H748 C762 0.929 . S
H749 C763 0.931 . S
H750 C765 0.930 . S
C751 H739 0.930 . S
C751 C752 1.399 . S
C751 C756 1.399 . S
C752 C751 1.399 . S
C752 C753 1.376 . S
C753 H740 0.969 . S
C753 C752 1.376 . S
C753 C754 1.388 . S
C754 H741 0.930 1_554 S
C754 C753 1.388 . S
C754 C755 1.390 . S
C755 C754 1.390 . S
C755 C756 1.394 . S
C755 C761 1.465 . S
C756 C751 1.399 . S
C756 C755 1.394 . S
C756 C757 1.516 . S
C757 C756 1.516 . S
C757 C758 1.502 . S
C757 C759 1.561 . S
C757 C760 1.526 . S
C758 H742 0.959 . S
C758 H743 0.959 . S
C758 H744 0.961 . S
C758 C757 1.502 . S
C759 H745 0.960 . S
C759 H746 0.961 . S
C759 H747 0.959 . S
C759 C757 1.561 . S
C760 C757 1.526 . S
C760 C761 1.396 . S
C760 C765 1.390 . S
C761 C755 1.465 . S
C761 C760 1.396 . S
C761 C762 1.399 1_554 S
C762 H748 0.929 . S
C762 C761 1.399 1_556 S
C762 C763 1.385 . S
C763 H749 0.931 . S
C763 C762 1.385 . S
C763 C764 1.389 1_556 S
C764 C763 1.389 1_554 S
C764 C765 1.387 . S
C765 H750 0.930 . S
C765 C760 1.390 . S
C765 C764 1.387 . S
H766 C778 0.930 . S
H767 C780 0.930 . S
H768 C781 0.930 . S
H769 C785 0.959 . S
H770 C785 0.959 . S
H771 C785 0.961 . S
H772 C786 0.960 . S
H773 C786 0.961 . S
H774 C786 0.959 . S
H775 C789 0.929 . S
H776 C790 0.931 . S
H777 C792 0.930 . S
C778 H766 0.930 . S
C778 C779 1.399 . S
C778 C783 1.399 . S
C779 C778 1.399 . S
C779 C780 1.376 . S
C780 H767 0.930 . S
C780 C779 1.376 . S
C780 C781 1.388 . S
C781 H768 0.930 . S
C781 C780 1.388 . S
C781 C782 1.390 . S
C782 C781 1.390 . S
C782 C783 1.394 . S
C782 C788 1.465 . S
C783 C778 1.399 . S
C783 C782 1.394 . S
C783 C784 1.516 . S
C784 C783 1.516 . S
C784 C785 1.502 . S
C784 C786 1.561 . S
C784 C787 1.526 . S
C785 H769 0.959 . S
C785 H770 0.959 . S
C785 H771 0.961 . S
C785 C784 1.502 . S
C786 H772 0.960 . S
C786 H773 0.961 . S
C786 H774 0.959 . S
C786 C784 1.561 . S
C787 C784 1.526 . S
C787 C788 1.396 . S
C787 C792 1.390 . S
C788 C782 1.465 . S
C788 C787 1.396 . S
C788 C789 1.399 . S
C789 H775 0.929 . S
C789 C788 1.399 . S
C789 C790 1.385 . S
C790 H776 0.931 . S
C790 C789 1.385 . S
C790 C791 1.389 . S
C791 C790 1.389 . S
C791 C792 1.387 . S
C792 H777 0.930 . S
C792 C787 1.390 . S
C792 C791 1.387 . S
H793 C805 0.930 . S
H794 C807 0.930 . S
H795 C808 0.930 . S
H796 C812 0.959 . S
H797 C812 0.959 . S
H798 C812 0.961 . S
H799 C813 0.960 . S
H800 C813 0.961 . S
H801 C813 0.959 . S
H802 C816 0.929 . S
H803 C817 0.931 . S
H804 C819 0.930 . S
C805 H793 0.930 . S
C805 C806 1.399 . S
C805 C810 1.399 . S
C806 C805 1.399 . S
C806 C807 1.376 . S
C807 H794 0.930 . S
C807 C806 1.376 . S
C807 C808 1.388 . S
C808 H795 0.930 . S
C808 C807 1.388 . S
C808 C809 1.390 . S
C809 C808 1.390 . S
C809 C810 1.394 . S
C809 C815 1.465 . S
C810 C805 1.399 . S
C810 C809 1.394 . S
C810 C811 1.516 . S
C811 C810 1.516 . S
C811 C812 1.502 . S
C811 C813 1.561 . S
C811 C814 1.526 . S
C812 H796 0.959 . S
C812 H797 0.959 . S
C812 H798 0.961 . S
C812 C811 1.502 . S
C813 H799 0.960 . S
C813 H800 0.961 . S
C813 H801 0.959 . S
C813 C811 1.561 . S
C814 C811 1.526 . S
C814 C815 1.396 . S
C814 C819 1.390 . S
C815 C809 1.465 . S
C815 C814 1.396 . S
C815 C816 1.399 . S
C816 H802 0.929 . S
C816 C815 1.399 . S
C816 C817 1.385 . S
C817 H803 0.931 . S
C817 C816 1.385 . S
C817 C818 1.389 . S
C818 C817 1.389 . S
C818 C819 1.387 . S
C819 H804 0.930 . S
C819 C814 1.390 . S
C819 C818 1.387 . S
H820 C832 0.930 . S
H821 C834 0.930 . S
H822 C835 0.930 . S
H823 C839 0.959 . S
H824 C839 0.959 . S
H825 C839 0.961 . S
H826 C840 0.960 . S
H827 C840 0.961 . S
H828 C840 0.959 . S
H829 C843 0.929 . S
H830 C844 0.931 . S
H831 C846 0.930 . S
C832 H820 0.930 . S
C832 C833 1.399 . S
C832 C837 1.399 . S
C833 C832 1.399 . S
C833 C834 1.376 . S
C834 H821 0.930 . S
C834 C833 1.376 . S
C834 C835 1.388 . S
C835 H822 0.930 . S
C835 C834 1.388 . S
C835 C836 1.390 . S
C836 C835 1.390 . S
C836 C837 1.394 . S
C836 C842 1.465 . S
C837 C832 1.399 . S
C837 C836 1.394 . S
C837 C838 1.516 . S
C838 C837 1.516 . S
C838 C839 1.502 . S
C838 C840 1.561 . S
C838 C841 1.526 . S
C839 H823 0.959 . S
C839 H824 0.959 . S
C839 H825 0.961 . S
C839 C838 1.502 . S
C840 H826 0.960 . S
C840 H827 0.961 . S
C840 H828 0.959 . S
C840 C838 1.561 . S
C841 C838 1.526 . S
C841 C842 1.396 . S
C841 C846 1.390 . S
C842 C836 1.465 . S
C842 C841 1.396 . S
C842 C843 1.399 . S
C843 H829 0.929 . S
C843 C842 1.399 . S
C843 C844 1.385 . S
C844 H830 0.931 . S
C844 C843 1.385 . S
C844 C845 1.389 . S
C845 C844 1.389 . S
C845 C846 1.387 . S
C846 H831 0.930 . S
C846 C841 1.390 . S
C846 C845 1.387 . S
H847 C859 0.930 . S
H848 C861 0.930 . S
H849 C862 0.930 . S
H850 C866 0.959 . S
H851 C866 0.959 . S
H852 C866 0.961 . S
H853 C867 0.960 . S
H854 C867 0.961 . S
H855 C867 0.959 . S
H856 C870 0.929 . S
H857 C871 0.931 . S
H858 C873 0.930 . S
C859 H847 0.930 . S
C859 C860 1.399 . S
C859 C864 1.399 . S
C860 C859 1.399 . S
C860 C861 1.376 . S
C861 H848 0.930 . S
C861 C860 1.376 . S
C861 C862 1.388 . S
C862 H849 0.930 . S
C862 C861 1.388 . S
C862 C863 1.390 . S
C863 C862 1.390 . S
C863 C864 1.394 . S
C863 C869 1.465 . S
C864 C859 1.399 . S
C864 C863 1.394 . S
C864 C865 1.516 . S
C865 C864 1.516 . S
C865 C866 1.502 . S
C865 C867 1.561 . S
C865 C868 1.526 . S
C866 H850 0.959 . S
C866 H851 0.959 . S
C866 H852 0.961 . S
C866 C865 1.502 . S
C867 H853 0.960 . S
C867 H854 0.961 . S
C867 H855 0.959 . S
C867 C865 1.561 . S
C868 C865 1.526 . S
C868 C869 1.396 . S
C868 C873 1.390 . S
C869 C863 1.465 . S
C869 C868 1.396 . S
C869 C870 1.399 . S
C870 H856 0.929 . S
C870 C869 1.399 . S
C870 C871 1.385 . S
C871 H857 0.931 . S
C871 C870 1.385 . S
C871 C872 1.389 . S
C872 C871 1.389 . S
C872 C873 1.387 . S
C873 H858 0.930 . S
C873 C868 1.390 . S
C873 C872 1.387 . S
H874 C886 0.930 1_554 S
H875 C888 0.930 . S
H876 C889 0.930 . S
H877 C893 0.959 . S
H878 C893 0.959 . S
H879 C893 0.961 . S
H880 C894 0.960 . S
H881 C894 0.961 . S
H882 C894 0.959 . S
H883 C897 0.929 . S
H884 C898 0.931 . S
H885 C900 0.930 . S
C886 H874 0.930 1_556 S
C886 C887 1.399 . S
C886 C891 1.399 . S
C887 C886 1.399 . S
C887 C888 1.376 . S
C888 H875 0.930 . S
C888 C887 1.376 . S
C888 C889 1.388 . S
C889 H876 0.930 . S
C889 C888 1.388 . S
C889 C890 1.390 . S
C890 C889 1.390 . S
C890 C891 1.394 . S
C890 C896 1.465 . S
C891 C886 1.399 . S
C891 C890 1.394 . S
C891 C892 1.516 1_556 S
C892 C891 1.516 1_554 S
C892 C893 1.502 . S
C892 C894 1.561 . S
C892 C895 1.526 1_554 S
C893 H877 0.959 . S
C893 H878 0.959 . S
C893 H879 0.961 . S
C893 C892 1.502 . S
C894 H880 0.960 . S
C894 H881 0.961 . S
C894 H882 0.959 . S
C894 C892 1.561 . S
C895 C892 1.526 1_556 S
C895 C896 1.396 . S
C895 C900 1.390 1_556 S
C896 C890 1.465 . S
C896 C895 1.396 . S
C896 C897 1.399 . S
C897 H883 0.929 . S
C897 C896 1.399 . S
C897 C898 1.385 . S
C898 H884 0.931 . S
C898 C897 1.385 . S
C898 C899 1.389 . S
C899 C898 1.389 . S
C899 C900 1.387 1_556 S
C900 H885 0.930 . S
C900 C895 1.390 1_554 S
C900 C899 1.387 1_554 S
H901 C913 0.930 . S
H902 C915 0.930 . S
H903 C916 0.930 . S
H904 C920 0.959 . S
H905 C920 0.959 . S
H906 C920 0.961 . S
H907 C921 0.960 . S
H908 C921 0.961 . S
H909 C921 0.959 . S
H910 C924 0.929 . S
H911 C925 0.931 . S
H912 C927 0.930 . S
C913 H901 0.930 . S
C913 C914 1.399 . S
C913 C918 1.399 . S
C914 C913 1.399 . S
C914 C915 1.376 . S
C915 H902 0.930 . S
C915 C914 1.376 . S
C915 C916 1.388 . S
C916 H903 0.930 . S
C916 C915 1.388 . S
C916 C917 1.390 . S
C917 C916 1.390 . S
C917 C918 1.394 . S
C917 C923 1.465 . S
C918 C913 1.399 . S
C918 C917 1.394 . S
C918 C919 1.516 . S
C919 C918 1.516 . S
C919 C920 1.502 . S
C919 C921 1.561 . S
C919 C922 1.526 . S
C920 H904 0.959 . S
C920 H905 0.959 . S
C920 H906 0.961 . S
C920 C919 1.502 . S
C921 H907 0.960 . S
C921 H908 0.961 . S
C921 H909 0.959 . S
C921 C919 1.561 . S
C922 C919 1.526 . S
C922 C923 1.396 . S
C922 C927 1.390 . S
C923 C917 1.465 . S
C923 C922 1.396 . S
C923 C924 1.399 . S
C924 H910 0.929 . S
C924 C923 1.399 . S
C924 C925 1.385 . S
C925 H911 0.931 . S
C925 C924 1.385 . S
C925 C926 1.389 . S
C926 C925 1.389 . S
C926 C927 1.387 . S
C927 H912 0.930 . S
C927 C922 1.390 . S
C927 C926 1.387 . S
H928 C940 0.930 . S
H929 C942 0.930 . S
H930 C943 0.930 . S
H931 C947 0.959 . S
H932 C947 0.959 . S
H933 C947 0.961 . S
H934 C948 0.960 . S
H935 C948 0.961 . S
H936 C948 0.959 . S
H937 C951 0.929 . S
H938 C952 0.931 . S
H939 C954 0.930 . S
C940 H928 0.930 . S
C940 C941 1.399 . S
C940 C945 1.399 . S
C941 C940 1.399 . S
C941 C942 1.376 . S
C942 H929 0.930 . S
C942 C941 1.376 . S
C942 C943 1.388 . S
C943 H930 0.930 . S
C943 C942 1.388 . S
C943 C944 1.390 . S
C944 C943 1.390 . S
C944 C945 1.394 . S
C944 C950 1.465 . S
C945 C940 1.399 . S
C945 C944 1.394 . S
C945 C946 1.516 . S
C946 C945 1.516 . S
C946 C947 1.502 . S
C946 C948 1.561 . S
C946 C949 1.526 . S
C947 H931 0.959 . S
C947 H932 0.959 . S
C947 H933 0.961 . S
C947 C946 1.502 . S
C948 H934 0.960 . S
C948 H935 0.961 . S
C948 H936 0.959 . S
C948 C946 1.561 . S
C949 C946 1.526 . S
C949 C950 1.396 . S
C949 C954 1.390 . S
C950 C944 1.465 . S
C950 C949 1.396 . S
C950 C951 1.399 . S
C951 H937 0.929 . S
C951 C950 1.399 . S
C951 C952 1.385 . S
C952 H938 0.931 . S
C952 C951 1.385 . S
C952 C953 1.389 . S
C953 C952 1.389 . S
C953 C954 1.387 . S
C954 H939 0.930 . S
C954 C949 1.390 . S
C954 C953 1.387 . S
H955 C967 0.930 . S
H956 C969 0.930 . S
H957 C970 0.930 . S
H958 C974 0.959 . S
H959 C974 0.959 . S
H960 C974 0.961 . S
H961 C975 0.960 . S
H962 C975 0.961 . S
H963 C975 0.959 . S
H964 C978 0.929 . S
H965 C979 0.931 . S
H966 C981 0.930 . S
C967 H955 0.930 . S
C967 C968 1.399 . S
C967 C972 1.399 . S
C968 C967 1.399 . S
C968 C969 1.376 . S
C969 H956 0.930 . S
C969 C968 1.376 . S
C969 C970 1.388 . S
C970 H957 0.930 . S
C970 C969 1.388 . S
C970 C971 1.390 . S
C971 C970 1.390 . S
C971 C972 1.394 . S
C971 C977 1.465 . S
C972 C967 1.399 . S
C972 C971 1.394 . S
C972 C973 1.516 . S
C973 C972 1.516 . S
C973 C974 1.502 . S
C973 C975 1.561 . S
C973 C976 1.526 . S
C974 H958 0.959 . S
C974 H959 0.959 . S
C974 H960 0.961 . S
C974 C973 1.502 . S
C975 H961 0.960 . S
C975 H962 0.961 . S
C975 H963 0.959 . S
C975 C973 1.561 . S
C976 C973 1.526 . S
C976 C977 1.396 . S
C976 C981 1.390 . S
C977 C971 1.465 . S
C977 C976 1.396 . S
C977 C978 1.399 . S
C978 H964 0.929 . S
C978 C977 1.399 . S
C978 C979 1.385 . S
C979 H965 0.931 . S
C979 C978 1.385 . S
C979 C980 1.389 . S
C980 C979 1.389 . S
C980 C981 1.387 . S
C981 H966 0.930 . S
C981 C976 1.390 . S
C981 C980 1.387 . S
H982 C994 0.930 . S
H983 C996 0.930 . S
H984 C997 0.930 . S
H985 C1001 0.959 . S
H986 C1001 0.959 . S
H987 C1001 0.961 . S
H988 C1002 0.960 . S
H989 C1002 0.961 . S
H990 C1002 0.959 . S
H991 C1005 0.929 . S
H992 C1006 0.931 . S
H993 C1008 0.930 . S
C994 H982 0.930 . S
C994 C995 1.399 . S
C994 C999 1.399 . S
C995 C994 1.399 . S
C995 C996 1.376 . S
C996 H983 0.930 . S
C996 C995 1.376 . S
C996 C997 1.388 . S
C997 H984 0.930 . S
C997 C996 1.388 . S
C997 C998 1.390 . S
C998 C997 1.390 . S
C998 C999 1.394 . S
C998 C1004 1.465 . S
C999 C994 1.399 . S
C999 C998 1.394 . S
C999 C1000 1.516 . S
C1000 C999 1.516 . S
C1000 C1001 1.502 . S
C1000 C1002 1.561 . S
C1000 C1003 1.526 . S
C1001 H985 0.959 . S
C1001 H986 0.959 . S
C1001 H987 0.961 . S
C1001 C1000 1.502 . S
C1002 H988 0.960 . S
C1002 H989 0.961 . S
C1002 H990 0.959 . S
C1002 C1000 1.561 . S
C1003 C1000 1.526 . S
C1003 C1004 1.396 . S
C1003 C1008 1.390 . S
C1004 C998 1.465 . S
C1004 C1003 1.396 . S
C1004 C1005 1.399 . S
C1005 H991 0.929 . S
C1005 C1004 1.399 . S
C1005 C1006 1.385 . S
C1006 H992 0.931 . S
C1006 C1005 1.385 . S
C1006 C1007 1.389 . S
C1007 C1006 1.389 . S
C1007 C1008 1.387 . S
C1008 H993 0.930 . S
C1008 C1003 1.390 . S
C1008 C1007 1.387 . S
H1009 C1021 0.930 . S
H1010 C1023 0.930 . S
H1011 C1024 0.930 . S
H1012 C1028 0.959 . S
H1013 C1028 0.959 . S
H1014 C1028 0.961 . S
H1015 C1029 0.960 . S
H1016 C1029 0.961 . S
H1017 C1029 0.959 . S
H1018 C1032 0.929 . S
H1019 C1033 0.931 . S
H1020 C1035 0.930 . S
C1021 H1009 0.930 . S
C1021 C1022 1.399 . S
C1021 C1026 1.399 . S
C1022 C1021 1.399 . S
C1022 C1023 1.376 . S
C1023 H1010 0.930 . S
C1023 C1022 1.376 . S
C1023 C1024 1.388 . S
C1024 H1011 0.930 . S
C1024 C1023 1.388 . S
C1024 C1025 1.390 . S
C1025 C1024 1.390 . S
C1025 C1026 1.394 . S
C1025 C1031 1.465 . S
C1026 C1021 1.399 . S
C1026 C1025 1.394 . S
C1026 C1027 1.516 . S
C1027 C1026 1.516 . S
C1027 C1028 1.502 . S
C1027 C1029 1.561 . S
C1027 C1030 1.526 . S
C1028 H1012 0.959 . S
C1028 H1013 0.959 . S
C1028 H1014 0.961 . S
C1028 C1027 1.502 . S
C1029 H1015 0.960 . S
C1029 H1016 0.961 . S
C1029 H1017 0.959 . S
C1029 C1027 1.561 . S
C1030 C1027 1.526 . S
C1030 C1031 1.396 . S
C1030 C1035 1.390 . S
C1031 C1025 1.465 . S
C1031 C1030 1.396 . S
C1031 C1032 1.399 . S
C1032 H1018 0.929 . S
C1032 C1031 1.399 . S
C1032 C1033 1.385 . S
C1033 H1019 0.931 . S
C1033 C1032 1.385 . S
C1033 C1034 1.389 . S
C1034 C1033 1.389 . S
C1034 C1035 1.387 . S
C1035 H1020 0.930 . S
C1035 C1030 1.390 . S
C1035 C1034 1.387 . S
H1036 C1048 0.930 . S
H1037 C1050 0.930 . S
H1038 C1051 0.930 . S
H1039 C1055 0.959 . S
H1040 C1055 0.959 . S
H1041 C1055 0.961 . S
H1042 C1056 0.960 . S
H1043 C1056 0.961 . S
H1044 C1056 0.959 . S
H1045 C1059 0.929 . S
H1046 C1060 0.931 . S
H1047 C1062 0.930 . S
C1048 H1036 0.930 . S
C1048 C1049 1.399 . S
C1048 C1053 1.399 . S
C1049 C1048 1.399 . S
C1049 C1050 1.376 . S
C1050 H1037 0.930 . S
C1050 C1049 1.376 . S
C1050 C1051 1.388 . S
C1051 H1038 0.930 . S
C1051 C1050 1.388 . S
C1051 C1052 1.390 . S
C1052 C1051 1.390 . S
C1052 C1053 1.394 . S
C1052 C1058 1.465 . S
C1053 C1048 1.399 . S
C1053 C1052 1.394 . S
C1053 C1054 1.516 . S
C1054 C1053 1.516 . S
C1054 C1055 1.502 . S
C1054 C1056 1.561 . S
C1054 C1057 1.526 . S
C1055 H1039 0.959 . S
C1055 H1040 0.959 . S
C1055 H1041 0.961 . S
C1055 C1054 1.502 . S
C1056 H1042 0.960 . S
C1056 H1043 0.961 . S
C1056 H1044 0.959 . S
C1056 C1054 1.561 . S
C1057 C1054 1.526 . S
C1057 C1058 1.396 . S
C1057 C1062 1.390 . S
C1058 C1052 1.465 . S
C1058 C1057 1.396 . S
C1058 C1059 1.399 . S
C1059 H1045 0.929 . S
C1059 C1058 1.399 . S
C1059 C1060 1.385 . S
C1060 H1046 0.931 . S
C1060 C1059 1.385 . S
C1060 C1061 1.389 . S
C1061 C1060 1.389 . S
C1061 C1062 1.387 . S
C1062 H1047 0.930 . S
C1062 C1057 1.390 . S
C1062 C1061 1.387 . S
H1063 C1075 0.930 . S
H1064 C1077 0.930 . S
H1065 C1078 0.930 . S
H1066 C1082 0.959 . S
H1067 C1082 0.959 . S
H1068 C1082 0.961 . S
H1069 C1083 0.960 . S
H1070 C1083 0.961 . S
H1071 C1083 0.959 . S
H1072 C1086 0.929 . S
H1073 C1087 0.931 . S
H1074 C1089 0.930 . S
C1075 H1063 0.930 . S
C1075 C1076 1.399 . S
C1075 C1080 1.399 . S
C1076 C1075 1.399 . S
C1076 C1077 1.376 . S
C1077 H1064 0.930 . S
C1077 C1076 1.376 . S
C1077 C1078 1.388 . S
C1078 H1065 0.930 . S
C1078 C1077 1.388 . S
C1078 C1079 1.390 . S
C1079 C1078 1.390 . S
C1079 C1080 1.394 . S
C1079 C1085 1.465 . S
C1080 C1075 1.399 . S
C1080 C1079 1.394 . S
C1080 C1081 1.516 . S
C1081 C1080 1.516 . S
C1081 C1082 1.502 . S
C1081 C1083 1.561 . S
C1081 C1084 1.526 . S
C1082 H1066 0.959 . S
C1082 H1067 0.959 . S
C1082 H1068 0.961 . S
C1082 C1081 1.502 . S
C1083 H1069 0.960 . S
C1083 H1070 0.961 . S
C1083 H1071 0.959 . S
C1083 C1081 1.561 . S
C1084 C1081 1.526 . S
C1084 C1085 1.396 . S
C1084 C1089 1.390 . S
C1085 C1079 1.465 . S
C1085 C1084 1.396 . S
C1085 C1086 1.399 . S
C1086 H1072 0.929 . S
C1086 C1085 1.399 . S
C1086 C1087 1.385 . S
C1087 H1073 0.931 . S
C1087 C1086 1.385 . S
C1087 C1088 1.389 . S
C1088 C1087 1.389 . S
C1088 C1089 1.387 . S
C1089 H1074 0.930 . S
C1089 C1084 1.390 . S
C1089 C1088 1.387 . S
H1090 C1102 0.930 . S
H1091 C1104 0.930 . S
H1092 C1105 0.930 . S
H1093 C1109 0.959 . S
H1094 C1109 0.959 . S
H1095 C1109 0.961 . S
H1096 C1110 0.960 . S
H1097 C1110 0.961 . S
H1098 C1110 0.959 . S
H1099 C1113 0.929 . S
H1100 C1114 0.931 . S
H1101 C1116 0.930 . S
C1102 H1090 0.930 . S
C1102 C1103 1.399 . S
C1102 C1107 1.399 . S
C1103 C1102 1.399 . S
C1103 C1104 1.376 . S
C1104 H1091 0.930 . S
C1104 C1103 1.376 . S
C1104 C1105 1.388 . S
C1105 H1092 0.930 . S
C1105 C1104 1.388 . S
C1105 C1106 1.390 . S
C1106 C1105 1.390 . S
C1106 C1107 1.394 . S
C1106 C1112 1.465 . S
C1107 C1102 1.399 . S
C1107 C1106 1.394 . S
C1107 C1108 1.516 . S
C1108 C1107 1.516 . S
C1108 C1109 1.502 . S
C1108 C1110 1.561 . S
C1108 C1111 1.526 . S
C1109 H1093 0.959 . S
C1109 H1094 0.959 . S
C1109 H1095 0.961 . S
C1109 C1108 1.502 . S
C1110 H1096 0.960 . S
C1110 H1097 0.961 . S
C1110 H1098 0.959 . S
C1110 C1108 1.561 . S
C1111 C1108 1.526 . S
C1111 C1112 1.396 . S
C1111 C1116 1.390 . S
C1112 C1106 1.465 . S
C1112 C1111 1.396 . S
C1112 C1113 1.399 . S
C1113 H1099 0.929 . S
C1113 C1112 1.399 . S
C1113 C1114 1.385 . S
C1114 H1100 0.931 . S
C1114 C1113 1.385 . S
C1114 C1115 1.389 . S
C1115 C1114 1.389 . S
C1115 C1116 1.387 . S
C1116 H1101 0.930 . S
C1116 C1111 1.390 . S
C1116 C1115 1.387 . S
H1117 C1129 0.930 . S
H1118 C1131 0.930 . S
H1119 C1132 0.930 . S
H1120 C1136 0.959 . S
H1121 C1136 0.959 . S
H1122 C1136 0.961 . S
H1123 C1137 0.960 . S
H1124 C1137 0.961 . S
H1125 C1137 0.959 . S
H1126 C1140 0.929 . S
H1127 C1141 0.931 . S
H1128 C1143 0.930 . S
C1129 H1117 0.930 . S
C1129 C1130 1.399 . S
C1129 C1134 1.399 . S
C1130 C1129 1.399 . S
C1130 C1131 1.376 . S
C1131 H1118 0.930 . S
C1131 C1130 1.376 . S
C1131 C1132 1.388 . S
C1132 H1119 0.930 . S
C1132 C1131 1.388 . S
C1132 C1133 1.390 . S
C1133 C1132 1.390 . S
C1133 C1134 1.394 . S
C1133 C1139 1.465 . S
C1134 C1129 1.399 . S
C1134 C1133 1.394 . S
C1134 C1135 1.516 . S
C1135 C1134 1.516 . S
C1135 C1136 1.502 . S
C1135 C1137 1.561 . S
C1135 C1138 1.526 . S
C1136 H1120 0.959 . S
C1136 H1121 0.959 . S
C1136 H1122 0.961 . S
C1136 C1135 1.502 . S
C1137 H1123 0.960 . S
C1137 H1124 0.961 . S
C1137 H1125 0.959 . S
C1137 C1135 1.561 . S
C1138 C1135 1.526 . S
C1138 C1139 1.396 . S
C1138 C1143 1.390 . S
C1139 C1133 1.465 . S
C1139 C1138 1.396 . S
C1139 C1140 1.399 . S
C1140 H1126 0.929 . S
C1140 C1139 1.399 . S
C1140 C1141 1.385 . S
C1141 H1127 0.931 . S
C1141 C1140 1.385 . S
C1141 C1142 1.389 . S
C1142 C1141 1.389 . S
C1142 C1143 1.387 . S
C1143 H1128 0.930 . S
C1143 C1138 1.390 . S
C1143 C1142 1.387 . S
H1144 C1156 0.930 . S
H1145 C1158 0.930 . S
H1146 C1159 0.930 . S
H1147 C1163 0.959 . S
H1148 C1163 0.959 . S
H1149 C1163 0.961 . S
H1150 C1164 0.960 . S
H1151 C1164 0.961 . S
H1152 C1164 0.959 . S
H1153 C1167 0.929 . S
H1154 C1168 0.931 . S
H1155 C1170 0.930 . S
C1156 H1144 0.930 . S
C1156 C1157 1.399 . S
C1156 C1161 1.399 . S
C1157 C1156 1.399 . S
C1157 C1158 1.376 . S
C1158 H1145 0.930 . S
C1158 C1157 1.376 . S
C1158 C1159 1.388 . S
C1159 H1146 0.930 . S
C1159 C1158 1.388 . S
C1159 C1160 1.390 . S
C1160 C1159 1.390 . S
C1160 C1161 1.394 . S
C1160 C1166 1.465 . S
C1161 C1156 1.399 . S
C1161 C1160 1.394 . S
C1161 C1162 1.516 . S
C1162 C1161 1.516 . S
C1162 C1163 1.502 . S
C1162 C1164 1.561 . S
C1162 C1165 1.526 . S
C1163 H1147 0.959 . S
C1163 H1148 0.959 . S
C1163 H1149 0.961 . S
C1163 C1162 1.502 . S
C1164 H1150 0.960 . S
C1164 H1151 0.961 . S
C1164 H1152 0.959 . S
C1164 C1162 1.561 . S
C1165 C1162 1.526 . S
C1165 C1166 1.396 . S
C1165 C1170 1.390 . S
C1166 C1160 1.465 . S
C1166 C1165 1.396 . S
C1166 C1167 1.399 . S
C1167 H1153 0.929 . S
C1167 C1166 1.399 . S
C1167 C1168 1.385 . S
C1168 H1154 0.931 . S
C1168 C1167 1.385 . S
C1168 C1169 1.389 . S
C1169 C1168 1.389 . S
C1169 C1170 1.387 . S
C1170 H1155 0.930 . S
C1170 C1165 1.390 . S
C1170 C1169 1.387 . S
H1171 C1183 0.930 . S
H1172 C1185 0.930 . S
H1173 C1186 0.930 . S
H1174 C1190 0.959 . S
H1175 C1190 0.959 . S
H1176 C1190 0.961 . S
H1177 C1191 0.960 . S
H1178 C1191 0.961 . S
H1179 C1191 0.959 . S
H1180 C1194 0.929 . S
H1181 C1195 0.931 . S
H1182 C1197 0.930 . S
C1183 H1171 0.930 . S
C1183 C1184 1.399 . S
C1183 C1188 1.399 . S
C1184 C1183 1.399 . S
C1184 C1185 1.376 . S
C1185 H1172 0.930 . S
C1185 C1184 1.376 . S
C1185 C1186 1.388 . S
C1186 H1173 0.930 . S
C1186 C1185 1.388 . S
C1186 C1187 1.390 . S
C1187 C1186 1.390 . S
C1187 C1188 1.394 . S
C1187 C1193 1.465 . S
C1188 C1183 1.399 . S
C1188 C1187 1.394 . S
C1188 C1189 1.516 . S
C1189 C1188 1.516 . S
C1189 C1190 1.502 . S
C1189 C1191 1.561 . S
C1189 C1192 1.526 . S
C1190 H1174 0.959 . S
C1190 H1175 0.959 . S
C1190 H1176 0.961 . S
C1190 C1189 1.502 . S
C1191 H1177 0.960 . S
C1191 H1178 0.961 . S
C1191 H1179 0.959 . S
C1191 C1189 1.561 . S
C1192 C1189 1.526 . S
C1192 C1193 1.396 . S
C1192 C1197 1.390 . S
C1193 C1187 1.465 . S
C1193 C1192 1.396 . S
C1193 C1194 1.399 . S
C1194 H1180 0.929 . S
C1194 C1193 1.399 . S
C1194 C1195 1.385 . S
C1195 H1181 0.931 . S
C1195 C1194 1.385 . S
C1195 C1196 1.389 . S
C1196 C1195 1.389 . S
C1196 C1197 1.387 . S
C1197 H1182 0.930 . S
C1197 C1192 1.390 . S
C1197 C1196 1.387 . S
H1198 C1210 0.930 . S
H1199 C1212 0.930 . S
H1200 C1213 0.930 . S
H1201 C1217 0.959 . S
H1202 C1217 0.959 . S
H1203 C1217 0.961 . S
H1204 C1218 0.960 . S
H1205 C1218 0.961 . S
H1206 C1218 0.959 . S
H1207 C1221 0.929 . S
H1208 C1222 0.931 . S
H1209 C1224 0.930 . S
C1210 H1198 0.930 . S
C1210 C1211 1.399 . S
C1210 C1215 1.399 . S
C1211 C1210 1.399 . S
C1211 C1212 1.376 . S
C1212 H1199 0.930 . S
C1212 C1211 1.376 . S
C1212 C1213 1.388 . S
C1213 H1200 0.930 . S
C1213 C1212 1.388 . S
C1213 C1214 1.390 . S
C1214 C1213 1.390 . S
C1214 C1215 1.394 . S
C1214 C1220 1.465 . S
C1215 C1210 1.399 . S
C1215 C1214 1.394 . S
C1215 C1216 1.516 . S
C1216 C1215 1.516 . S
C1216 C1217 1.502 . S
C1216 C1218 1.561 . S
C1216 C1219 1.526 . S
C1217 H1201 0.959 . S
C1217 H1202 0.959 . S
C1217 H1203 0.961 . S
C1217 C1216 1.502 . S
C1218 H1204 0.960 . S
C1218 H1205 0.961 . S
C1218 H1206 0.959 . S
C1218 C1216 1.561 . S
C1219 C1216 1.526 . S
C1219 C1220 1.396 . S
C1219 C1224 1.390 . S
C1220 C1214 1.465 . S
C1220 C1219 1.396 . S
C1220 C1221 1.399 . S
C1221 H1207 0.929 . S
C1221 C1220 1.399 . S
C1221 C1222 1.385 . S
C1222 H1208 0.931 . S
C1222 C1221 1.385 . S
C1222 C1223 1.389 . S
C1223 C1222 1.389 . S
C1223 C1224 1.387 . S
C1224 H1209 0.930 . S
C1224 C1219 1.390 . S
C1224 C1223 1.387 . S
H1225 C1237 0.930 . S
H1226 C1239 0.930 . S
H1227 C1240 0.930 . S
H1228 C1244 0.959 . S
H1229 C1244 0.959 . S
H1230 C1244 0.961 . S
H1231 C1245 0.960 . S
H1232 C1245 0.961 . S
H1233 C1245 0.959 . S
H1234 C1248 0.929 . S
H1235 C1249 0.931 . S
H1236 C1251 0.930 . S
C1237 H1225 0.930 . S
C1237 C1238 1.399 . S
C1237 C1242 1.399 . S
C1238 C1237 1.399 . S
C1238 C1239 1.376 . S
C1239 H1226 0.930 . S
C1239 C1238 1.376 . S
C1239 C1240 1.388 . S
C1240 H1227 0.930 . S
C1240 C1239 1.388 . S
C1240 C1241 1.390 . S
C1241 C1240 1.390 . S
C1241 C1242 1.394 . S
C1241 C1247 1.465 . S
C1242 C1237 1.399 . S
C1242 C1241 1.394 . S
C1242 C1243 1.516 . S
C1243 C1242 1.516 . S
C1243 C1244 1.502 . S
C1243 C1245 1.561 . S
C1243 C1246 1.526 . S
C1244 H1228 0.959 . S
C1244 H1229 0.959 . S
C1244 H1230 0.961 . S
C1244 C1243 1.502 . S
C1245 H1231 0.960 . S
C1245 H1232 0.961 . S
C1245 H1233 0.959 . S
C1245 C1243 1.561 . S
C1246 C1243 1.526 . S
C1246 C1247 1.396 . S
C1246 C1251 1.390 . S
C1247 C1241 1.465 . S
C1247 C1246 1.396 . S
C1247 C1248 1.399 . S
C1248 H1234 0.929 . S
C1248 C1247 1.399 . S
C1248 C1249 1.385 . S
C1249 H1235 0.931 . S
C1249 C1248 1.385 . S
C1249 C1250 1.389 . S
C1250 C1249 1.389 . S
C1250 C1251 1.387 . S
C1251 H1236 0.930 . S
C1251 C1246 1.390 . S
C1251 C1250 1.387 . S
H1252 C1264 0.930 . S
H1253 C1266 0.930 . S
H1254 C1267 0.930 . S
H1255 C1271 0.959 . S
H1256 C1271 0.959 . S
H1257 C1271 0.961 . S
H1258 C1272 0.960 . S
H1259 C1272 0.961 . S
H1260 C1272 0.959 . S
H1261 C1275 0.929 . S
H1262 C1276 0.931 . S
H1263 C1278 0.930 . S
C1264 H1252 0.930 . S
C1264 C1265 1.399 . S
C1264 C1269 1.399 . S
C1265 C1264 1.399 . S
C1265 C1266 1.376 . S
C1266 H1253 0.930 . S
C1266 C1265 1.376 . S
C1266 C1267 1.388 . S
C1267 H1254 0.930 . S
C1267 C1266 1.388 . S
C1267 C1268 1.390 . S
C1268 C1267 1.390 . S
C1268 C1269 1.394 . S
C1268 C1274 1.465 . S
C1269 C1264 1.399 . S
C1269 C1268 1.394 . S
C1269 C1270 1.516 . S
C1270 C1269 1.516 . S
C1270 C1271 1.502 . S
C1270 C1272 1.561 . S
C1270 C1273 1.526 . S
C1271 H1255 0.959 . S
C1271 H1256 0.959 . S
C1271 H1257 0.961 . S
C1271 C1270 1.502 . S
C1272 H1258 0.960 . S
C1272 H1259 0.961 . S
C1272 H1260 0.959 . S
C1272 C1270 1.561 . S
C1273 C1270 1.526 . S
C1273 C1274 1.396 . S
C1273 C1278 1.390 . S
C1274 C1268 1.465 . S
C1274 C1273 1.396 . S
C1274 C1275 1.399 . S
C1275 H1261 0.929 . S
C1275 C1274 1.399 . S
C1275 C1276 1.385 . S
C1276 H1262 0.931 . S
C1276 C1275 1.385 . S
C1276 C1277 1.389 . S
C1277 C1276 1.389 . S
C1277 C1278 1.387 . S
C1278 H1263 0.930 . S
C1278 C1273 1.390 . S
C1278 C1277 1.387 . S
H1279 C1291 0.930 . S
H1280 C1293 0.930 . S
H1281 C1294 0.930 . S
H1282 C1298 0.959 . S
H1283 C1298 0.959 . S
H1284 C1298 0.961 . S
H1285 C1299 0.960 . S
H1286 C1299 0.961 . S
H1287 C1299 0.959 . S
H1288 C1302 0.929 . S
H1289 C1303 0.931 . S
H1290 C1305 0.930 . S
C1291 H1279 0.930 . S
C1291 C1292 1.399 . S
C1291 C1296 1.399 . S
C1292 C1291 1.399 . S
C1292 C1293 1.376 . S
C1293 H1280 0.930 . S
C1293 C1292 1.376 . S
C1293 C1294 1.388 . S
C1294 H1281 0.930 . S
C1294 C1293 1.388 . S
C1294 C1295 1.390 . S
C1295 C1294 1.390 . S
C1295 C1296 1.394 . S
C1295 C1301 1.465 . S
C1296 C1291 1.399 . S
C1296 C1295 1.394 . S
C1296 C1297 1.516 . S
C1297 C1296 1.516 . S
C1297 C1298 1.502 . S
C1297 C1299 1.561 . S
C1297 C1300 1.526 . S
C1298 H1282 0.959 . S
C1298 H1283 0.959 . S
C1298 H1284 0.961 . S
C1298 C1297 1.502 . S
C1299 H1285 0.960 . S
C1299 H1286 0.961 . S
C1299 H1287 0.959 . S
C1299 C1297 1.561 . S
C1300 C1297 1.526 . S
C1300 C1301 1.396 . S
C1300 C1305 1.390 . S
C1301 C1295 1.465 . S
C1301 C1300 1.396 . S
C1301 C1302 1.399 . S
C1302 H1288 0.929 . S
C1302 C1301 1.399 . S
C1302 C1303 1.385 . S
C1303 H1289 0.931 . S
C1303 C1302 1.385 . S
C1303 C1304 1.389 . S
C1304 C1303 1.389 . S
C1304 C1305 1.387 . S
C1305 H1290 0.930 . S
C1305 C1300 1.390 . S
C1305 C1304 1.387 . S
H1306 C1318 0.930 . S
H1307 C1320 0.930 . S
H1308 C1321 0.930 . S
H1309 C1325 0.959 . S
H1310 C1325 0.959 . S
H1311 C1325 0.961 . S
H1312 C1326 0.960 . S
H1313 C1326 0.961 . S
H1314 C1326 0.959 . S
H1315 C1329 0.929 . S
H1316 C1330 0.931 . S
H1317 C1332 0.930 . S
C1318 H1306 0.930 . S
C1318 C1319 1.399 . S
C1318 C1323 1.399 . S
C1319 C1318 1.399 . S
C1319 C1320 1.376 . S
C1320 H1307 0.930 . S
C1320 C1319 1.376 . S
C1320 C1321 1.388 . S
C1321 H1308 0.930 . S
C1321 C1320 1.388 . S
C1321 C1322 1.390 . S
C1322 C1321 1.390 . S
C1322 C1323 1.394 . S
C1322 C1328 1.465 . S
C1323 C1318 1.399 . S
C1323 C1322 1.394 . S
C1323 C1324 1.516 . S
C1324 C1323 1.516 . S
C1324 C1325 1.502 . S
C1324 C1326 1.561 . S
C1324 C1327 1.526 . S
C1325 H1309 0.959 . S
C1325 H1310 0.959 . S
C1325 H1311 0.961 . S
C1325 C1324 1.502 . S
C1326 H1312 0.960 . S
C1326 H1313 0.961 . S
C1326 H1314 0.959 . S
C1326 C1324 1.561 . S
C1327 C1324 1.526 . S
C1327 C1328 1.396 . S
C1327 C1332 1.390 . S
C1328 C1322 1.465 . S
C1328 C1327 1.396 . S
C1328 C1329 1.399 . S
C1329 H1315 0.929 . S
C1329 C1328 1.399 . S
C1329 C1330 1.385 . S
C1330 H1316 0.931 . S
C1330 C1329 1.385 . S
C1330 C1331 1.389 . S
C1331 C1330 1.389 . S
C1331 C1332 1.387 . S
C1332 H1317 0.930 . S
C1332 C1327 1.390 . S
C1332 C1331 1.387 . S
H1333 C1345 0.930 . S
H1334 C1347 0.930 . S
H1335 C1348 0.930 . S
H1336 C1352 0.959 . S
H1337 C1352 0.959 . S
H1338 C1352 0.961 . S
H1339 C1353 0.960 . S
H1340 C1353 0.961 . S
H1341 C1353 0.959 . S
H1342 C1356 0.929 . S
H1343 C1357 0.931 . S
H1344 C1359 0.930 . S
C1345 H1333 0.930 . S
C1345 C1346 1.399 . S
C1345 C1350 1.399 . S
C1346 C1345 1.399 . S
C1346 C1347 1.376 . S
C1347 H1334 0.930 . S
C1347 C1346 1.376 . S
C1347 C1348 1.388 . S
C1348 H1335 0.930 . S
C1348 C1347 1.388 . S
C1348 C1349 1.390 . S
C1349 C1348 1.390 . S
C1349 C1350 1.394 . S
C1349 C1355 1.465 . S
C1350 C1345 1.399 . S
C1350 C1349 1.394 . S
C1350 C1351 1.516 . S
C1351 C1350 1.516 . S
C1351 C1352 1.502 . S
C1351 C1353 1.561 . S
C1351 C1354 1.526 . S
C1352 H1336 0.959 . S
C1352 H1337 0.959 . S
C1352 H1338 0.961 . S
C1352 C1351 1.502 . S
C1353 H1339 0.960 . S
C1353 H1340 0.961 . S
C1353 H1341 0.959 . S
C1353 C1351 1.561 . S
C1354 C1351 1.526 . S
C1354 C1355 1.396 . S
C1354 C1359 1.390 . S
C1355 C1349 1.465 . S
C1355 C1354 1.396 . S
C1355 C1356 1.399 . S
C1356 H1342 0.929 . S
C1356 C1355 1.399 . S
C1356 C1357 1.385 . S
C1357 H1343 0.931 . S
C1357 C1356 1.385 . S
C1357 C1358 1.389 . S
C1358 C1357 1.389 . S
C1358 C1359 1.387 . S
C1359 H1344 0.930 . S
C1359 C1354 1.390 . S
C1359 C1358 1.387 . S
C521 C409 1.346 . S
C509 C36 1.336 . S
C548 C423 1.351 . S
C536 C93 1.315 . S
C575 C431 1.372 . S
C563 C126 1.309 . S
C590 C165 1.270 . S
C602 C389 1.320 . S
C617 C222 1.234 . S
C629 C395 1.306 . S
C644 C261 1.232 . S
C656 C403 1.316 . S
C683 C417 1.415 . S
C671 C318 1.413 . S
C710 C437 1.367 . S
C698 C381 1.369 . S
C725 C132 1.319 . S
C737 C465 1.318 . S
C764 C479 1.406 . S
C752 C189 1.395 . S
C779 C30 1.259 . S
C791 C487 1.304 . S
C818 C451 1.260 . S
C806 C69 1.197 . S
C833 C324 1.356 . S
C845 C445 1.363 . S
C860 C357 1.366 . S
C872 C459 1.369 . S
C899 C473 1.357 . S
C887 C228 1.302 . S
C914 C285 1.344 . S
C926 C493 1.385 . S
C953 C412 1.677 . S
C941 C45 1.734 . S
C980 C435 1.712 . S
C968 C84 1.743 . S
C995 C117 1.752 . S
C1007 C393 1.703 . S
C1022 C174 1.729 . S
C1034 C398 1.718 . S
C1049 C213 1.721 . S
C1061 C426 1.670 . S
C1088 C384 1.698 . S
C1076 C270 1.701 . S
C1115 C407 1.735 . S
C1103 C309 1.700 . S
C1142 C421 1.702 . S
C1130 C372 1.721 . S
C1169 C468 1.653 . S
C1157 C141 1.718 . S
C1196 C491 1.715 . S
C1184 C180 1.722 . S
C1211 C21 1.719 . S
C1223 C440 1.636 . S
C1250 C454 1.674 . S
C1238 C78 1.681 . S
C1277 C482 1.741 . S
C1265 C333 1.745 . S
C1292 C366 1.705 . S
C1304 C449 1.743 . S
C1331 C463 1.709 . S
C1319 C237 1.747 . S
C1358 C477 1.710 . S
C1346 C276 1.753 . S
