# Generated by pormake.
# Topology zzz, (3,6)-cn, num edge types: 1
# Building blocks:
#     Node 0, Type 0, BuildingBlock: MIDCAF_clean_linker_0, # of connection points: 3
#     Node 1, Type 0, BuildingBlock: MIDCAF_clean_linker_0, # of connection points: 3
#     Node 2, Type 0, BuildingBlock: MIDCAF_clean_linker_0, # of connection points: 3
#     Node 3, Type 0, BuildingBlock: MIDCAF_clean_linker_0, # of connection points: 3
#     Node 4, Type 0, BuildingBlock: MIDCAF_clean_linker_0, # of connection points: 3
#     Node 5, Type 0, BuildingBlock: MIDCAF_clean_linker_0, # of connection points: 3
#     Node 6, Type 0, BuildingBlock: MIDCAF_clean_linker_0, # of connection points: 3
#     Node 7, Type 0, BuildingBlock: MIDCAF_clean_linker_0, # of connection points: 3
#     Node 8, Type 1, BuildingBlock: HISSIN_clean_sbu_0, # of connection points: 6
#     Node 9, Type 1, BuildingBlock: HISSIN_clean_sbu_0, # of connection points: 6
#     Node 10, Type 1, BuildingBlock: HISSIN_clean_sbu_0, # of connection points: 6
#     Node 11, Type 1, BuildingBlock: HISSIN_clean_sbu_0, # of connection points: 6
#     Edge 12, Type (0, 1), BuildingBlock: XIVTED_clean_linker_0, # of connection points: 2
#     Edge 13, Type (0, 1), BuildingBlock: XIVTED_clean_linker_0, # of connection points: 2
#     Edge 14, Type (0, 1), BuildingBlock: XIVTED_clean_linker_0, # of connection points: 2
#     Edge 15, Type (0, 1), BuildingBlock: XIVTED_clean_linker_0, # of connection points: 2
#     Edge 16, Type (0, 1), BuildingBlock: XIVTED_clean_linker_0, # of connection points: 2
#     Edge 17, Type (0, 1), BuildingBlock: XIVTED_clean_linker_0, # of connection points: 2
#     Edge 18, Type (0, 1), BuildingBlock: XIVTED_clean_linker_0, # of connection points: 2
#     Edge 19, Type (0, 1), BuildingBlock: XIVTED_clean_linker_0, # of connection points: 2
#     Edge 20, Type (0, 1), BuildingBlock: XIVTED_clean_linker_0, # of connection points: 2
#     Edge 21, Type (0, 1), BuildingBlock: XIVTED_clean_linker_0, # of connection points: 2
#     Edge 22, Type (0, 1), BuildingBlock: XIVTED_clean_linker_0, # of connection points: 2
#     Edge 23, Type (0, 1), BuildingBlock: XIVTED_clean_linker_0, # of connection points: 2
#     Edge 24, Type (0, 1), BuildingBlock: XIVTED_clean_linker_0, # of connection points: 2
#     Edge 25, Type (0, 1), BuildingBlock: XIVTED_clean_linker_0, # of connection points: 2
#     Edge 26, Type (0, 1), BuildingBlock: XIVTED_clean_linker_0, # of connection points: 2
#     Edge 27, Type (0, 1), BuildingBlock: XIVTED_clean_linker_0, # of connection points: 2
#     Edge 28, Type (0, 1), BuildingBlock: XIVTED_clean_linker_0, # of connection points: 2
#     Edge 29, Type (0, 1), BuildingBlock: XIVTED_clean_linker_0, # of connection points: 2
#     Edge 30, Type (0, 1), BuildingBlock: XIVTED_clean_linker_0, # of connection points: 2
#     Edge 31, Type (0, 1), BuildingBlock: XIVTED_clean_linker_0, # of connection points: 2
#     Edge 32, Type (0, 1), BuildingBlock: XIVTED_clean_linker_0, # of connection points: 2
#     Edge 33, Type (0, 1), BuildingBlock: XIVTED_clean_linker_0, # of connection points: 2
#     Edge 34, Type (0, 1), BuildingBlock: XIVTED_clean_linker_0, # of connection points: 2
#     Edge 35, Type (0, 1), BuildingBlock: XIVTED_clean_linker_0, # of connection points: 2
# Relax obj value: 0.396
# Max RMSD: 0.224
# Mean RMSD: 0.192
data_MOF--net-zzz--node1-HISSIN_clean_sbu_0--node2-MIDCAF_clean_linker_0--edge1-XIVTED_clean_linker_0
_symmetry_space_group_name_H-M    P1
_symmetry_Int_Tables_number       1
_symmetry_cell_setting            triclinic
loop_
_symmetry_equiv_pos_as_xyz
'x, y, z'
_cell_length_a     56.080296
_cell_length_b     56.590957
_cell_length_c     21.647904
_cell_angle_alpha  89.974235
_cell_angle_beta   91.792157
_cell_angle_gamma 91.822821
loop_
_atom_site_label
_atom_site_type_symbol
_atom_site_fract_x
_atom_site_fract_y
_atom_site_fract_z
_atom_type_partial_charge
C0 C 0.79071 0.55457 0.43357 0.0
C1 C 0.80708 0.53799 0.4141 0.0
C2 C 0.80235 0.52598 0.35801 0.0
C3 C 0.78274 0.53173 0.31996 0.0
H4 H 0.6903 0.59448 0.15848 0.0
H5 H 0.65566 0.58271 0.09439 0.0
H6 H 0.66468 0.50992 0.14799 0.0
H7 H 0.69986 0.5219 0.21229 0.0
H8 H 0.75421 0.58788 0.07719 0.0
H9 H 0.78767 0.59052 1.01048 0.0
H10 H 0.83229 0.61859 0.16175 0.0
H11 H 0.79875 0.6141 0.22997 0.0
H12 H 0.76034 0.57511 0.40799 0.0
H13 H 0.79402 0.56422 0.47633 0.0
H14 H 0.81462 0.51309 0.34194 0.0
H15 H 0.7807 0.5236 0.2747 0.0
N16 N 0.73179 0.55551 0.26754 0.0
N17 N 0.73512 0.58209 0.18423 0.0
N18 N 0.76718 0.57815 0.25426 0.0
C19 C 0.72183 0.56618 0.21657 0.0
C20 C 0.75778 0.58815 0.20266 0.0
C21 C 0.75443 0.56211 0.28722 0.0
C22 C 0.69788 0.55912 0.19031 0.0
C23 C 0.68458 0.57601 0.15783 0.0
C24 C 0.66459 0.56924 0.12116 0.0
C25 C 0.6574 0.54531 0.1154 0.0
C26 C 0.66989 0.52848 0.15077 0.0
C27 C 0.68986 0.53535 0.18822 0.0
C28 C 0.77414 0.59988 0.15933 0.0
C29 C 0.7709 0.59548 0.0958 0.0
C30 C 0.79032 0.59709 0.05719 0.0
C31 C 0.81323 0.60365 0.08123 0.0
C32 C 0.81526 0.61224 0.14229 0.0
C33 C 0.79595 0.60999 0.18135 0.0
C34 C 0.76757 0.54973 0.33689 0.0
C35 C 0.77129 0.56061 0.39485 0.0
C36 C 0.95966 0.80306 0.39299 0.0
C37 C 0.98327 0.81189 0.40035 0.0
C38 C 1.00149 0.79956 0.37207 0.0
C39 C 0.99585 0.78016 0.33273 0.0
H40 H 0.01086 0.71263 0.17624 0.0
H41 H 0.02169 0.67869 0.11333 0.0
H42 H 0.94796 0.65391 0.10774 0.0
H43 H 0.93757 0.68734 0.17069 0.0
H44 H 0.92848 0.74422 0.05425 0.0
H45 H 0.92355 0.7709 0.967 0.0
H46 H 0.92213 0.83001 0.09311 0.0
H47 H 0.92605 0.80348 0.17966 0.0
H48 H 0.93548 0.77863 0.34622 0.0
H49 H 0.94525 0.81183 0.41489 0.0
H50 H 0.01988 0.80593 0.37677 0.0
H51 H 0.00991 0.77231 0.30727 0.0
N52 N 0.97329 0.73715 0.25174 0.0
N53 N 0.94949 0.73653 0.15987 0.0
N54 N 0.94874 0.76892 0.2259 0.0
C55 C 0.96517 0.72578 0.19883 0.0
C56 C 0.94132 0.75815 0.17266 0.0
C57 C 0.96443 0.75875 0.26585 0.0
C58 C 0.97344 0.7024 0.17922 0.0
C59 C 0.99727 0.69931 0.16369 0.0
C60 C 1.00333 0.68008 0.12662 0.0
C61 C 0.98568 0.66354 0.10459 0.0
C62 C 0.96218 0.66595 0.12405 0.0
C63 C 0.95616 0.68514 0.16048 0.0
C64 C 0.92897 0.77191 0.12378 0.0
C65 C 0.92614 0.7628 0.06346 0.0
C66 C 0.92337 0.77812 0.01331 0.0
C67 C 0.92366 0.80271 0.02281 0.0
C68 C 0.92223 0.81124 0.08359 0.0
C69 C 0.92476 0.79593 0.13366 0.0
C70 C 0.97192 0.77274 0.32156 0.0
C71 C 0.95409 0.78382 0.35417 0.0
C72 C 0.73308 0.98044 0.39775 0.0
C73 C 0.71613 0.99641 0.37525 0.0
C74 C 0.7208 0.00831 0.31935 0.0
C75 C 0.741 1.00324 0.2852 0.0
H76 H 0.84715 0.95319 0.18282 0.0
H77 H 0.87799 0.96313 0.10985 0.0
H78 H 0.83917 0.02432 0.05105 0.0
H79 H 0.80799 0.01405 0.12497 0.0
H80 H 0.79192 0.91545 0.10029 0.0
H81 H 0.76373 0.89904 0.0231 0.0
H82 H 0.70751 0.90198 0.15463 0.0
H83 H 0.73567 0.91714 0.23196 0.0
H84 H 0.76463 0.96144 0.37975 0.0
H85 H 0.73014 0.97067 0.43999 0.0
H86 H 0.70835 0.02092 0.30074 0.0
H87 H 0.74311 0.01138 0.24031 0.0
N88 N 0.79164 0.98521 0.23464 0.0
N89 N 0.79692 0.95061 0.17658 0.0
N90 N 0.76562 0.95202 0.24459 0.0
C91 C 0.80435 0.97287 0.19285 0.0
C92 C 0.77748 0.94009 0.20163 0.0
C93 C 0.77245 0.97429 0.26184 0.0
C94 C 0.82533 0.98305 0.16052 0.0
C95 C 0.84557 0.96921 0.15577 0.0
C96 C 0.86327 0.97492 0.1136 0.0
C97 C 0.86118 0.99451 0.07396 0.0
C98 C 0.84133 0.00898 0.08036 0.0
C99 C 0.82365 1.00337 0.12345 0.0
C100 C 0.76554 0.91937 0.17059 0.0
C101 C 0.7738 0.91146 0.11375 0.0
C102 C 0.75757 0.90207 0.06927 0.0
C103 C 0.73302 0.90107 0.08106 0.0
C104 C 0.72609 0.90341 0.14265 0.0
C105 C 0.74235 0.9124 0.18735 0.0
C106 C 0.75697 0.98611 0.30602 0.0
C107 C 0.75305 0.97524 0.36338 0.0
C108 C 0.42447 0.71332 0.09411 0.0
C109 C 0.41799 0.72287 0.03619 0.0
C110 C 0.42587 0.74604 0.0222 0.0
C111 C 0.44208 0.75821 0.06189 0.0
H112 H 0.51161 0.8284 0.17806 0.0
H113 H 0.52297 0.85997 0.10666 0.0
H114 H 0.54338 0.80766 0.97442 0.0
H115 H 0.53113 0.77631 0.04541 0.0
H116 H 0.47893 0.74895 0.33808 0.0
H117 H 0.48597 0.71906 0.41696 0.0
H118 H 0.54771 0.69676 0.32018 0.0
H119 H 0.54119 0.72778 0.24324 0.0
H120 H 0.44637 0.71688 0.17616 0.0
H121 H 0.41888 0.6955 0.10658 0.0
H122 H 0.42074 0.75417 0.97868 0.0
H123 H 0.44904 0.77538 0.04771 0.0
N124 N 0.48563 0.7746 0.12399 0.0
N125 N 0.51516 0.77117 0.20297 0.0
N126 N 0.47997 0.74732 0.20348 0.0
C127 C 0.50696 0.7817 0.15001 0.0
C128 C 0.50135 0.75403 0.23014 0.0
C129 C 0.47197 0.75746 0.15038 0.0
C130 C 0.52091 0.80003 0.11748 0.0
C131 C 0.51943 0.8238 0.13472 0.0
C132 C 0.52585 0.84185 0.09349 0.0
C133 C 0.53379 0.83644 0.0341 0.0
C134 C 0.53687 0.81255 0.01906 0.0
C135 C 0.53028 0.79456 0.06009 0.0
C136 C 0.50963 0.74076 0.28503 0.0
C137 C 0.49451 0.7382 0.33513 0.0
C138 C 0.49836 0.72075 0.37973 0.0
C139 C 0.51705 0.7049 0.37435 0.0
C140 C 0.53319 0.7086 0.3263 0.0
C141 C 0.52955 0.72645 0.2822 0.0
C142 C 0.45057 0.74753 0.11662 0.0
C143 C 0.4405 0.72556 0.13401 0.0
C144 C 0.23426 0.45807 0.8837 0.0
C145 C 0.22509 0.48047 0.89468 0.0
C146 C 0.23627 0.4948 0.94098 0.0
C147 C 0.25453 0.48599 0.97945 0.0
H148 H 0.33635 0.47557 0.08142 0.0
H149 H 0.37356 0.48304 0.1424 0.0
H150 H 0.35147 0.42943 0.27278 0.0
H151 H 0.31572 0.42139 0.21199 0.0
H152 H 0.26411 0.40804 0.22993 0.0
H153 H 0.23224 0.40713 0.30364 0.0
H154 H 0.18118 0.42185 0.15611 0.0
H155 H 0.21265 0.42193 0.08246 0.0
H156 H 0.25707 0.43092 0.91742 0.0
H157 H 0.22601 0.4465 0.84881 0.0
H158 H 0.22979 0.51224 0.95021 0.0
H159 H 0.26108 0.49651 0.01857 0.0
N160 N 0.29315 0.45438 0.05391 0.0
N161 N 0.28261 0.4299 0.13726 0.0
N162 N 0.25487 0.43614 0.05731 0.0
C163 C 0.29924 0.44366 0.10869 0.0
C164 C 0.26042 0.42608 0.11227 0.0
C165 C 0.27093 0.45004 0.0276 0.0
C166 C 0.32284 0.44789 0.14143 0.0
C167 C 0.33971 0.46519 0.12263 0.0
C168 C 0.36096 0.46959 0.15792 0.0
C169 C 0.36578 0.45673 0.21259 0.0
C170 C 0.34894 0.43935 0.23044 0.0
C171 C 0.32804 0.43491 0.19545 0.0
C172 C 0.2411 0.41625 0.15077 0.0
C173 C 0.24595 0.41014 0.21277 0.0
C174 C 0.22767 0.40968 0.25516 0.0
C175 C 0.20436 0.41548 0.23622 0.0
C176 C 0.19896 0.41761 0.17266 0.0
C177 C 0.21717 0.41787 0.13022 0.0
C178 C 0.26177 0.46265 0.97263 0.0
C179 C 0.25226 0.44919 0.92265 0.0
C180 C 0.0295 0.2226 0.97779 0.0
C181 C 0.04497 0.21714 0.93003 0.0
C182 C 0.06515 0.23208 0.92169 0.0
C183 C 0.071 0.25039 0.96344 0.0
H184 H 0.09929 0.32795 0.20465 0.0
H185 H 0.08806 0.36035 0.27064 0.0
H186 H 0.01368 0.3406 0.23959 0.0
H187 H 0.02508 0.30806 0.17206 0.0
H188 H 0.10226 0.2567 0.27391 0.0
H189 H 0.11232 0.21989 0.32334 0.0
H190 H 0.13885 0.1942 0.15122 0.0
H191 H 0.12769 0.23094 0.10108 0.0
H192 H 0.02439 0.24334 0.05936 0.0
H193 H 0.01384 0.21147 0.98589 0.0
H194 H 0.07721 0.22881 0.88475 0.0
H195 H 0.0878 0.26013 0.95888 0.0
N196 N 0.0596 0.28544 0.09766 0.0
N197 N 0.08934 0.28204 0.17653 0.0
N198 N 0.08684 0.25473 0.09578 0.0
C199 C 0.07081 0.29396 0.1507 0.0
C200 C 0.09742 0.26242 0.14928 0.0
C201 C 0.06812 0.2659 0.06956 0.0
C202 C 0.06307 0.31548 0.18294 0.0
C203 C 0.0805 0.33074 0.21095 0.0
C204 C 0.07405 0.34938 0.24873 0.0
C205 C 0.04998 0.35307 0.26068 0.0
C206 C 0.0324 0.33814 0.23157 0.0
C207 C 0.03888 0.31968 0.19246 0.0
C208 C 0.11332 0.24627 0.18316 0.0
C209 C 0.11127 0.24369 0.24723 0.0
C210 C 0.11715 0.22241 0.27571 0.0
C211 C 0.12543 0.20356 0.24053 0.0
C212 C 0.1316 0.20799 0.17905 0.0
C213 C 0.12536 0.22912 0.15038 0.0
C214 C 0.0567 0.25449 0.01424 0.0
C215 C 0.03536 0.24107 0.0196 0.0
C216 C 0.31088 0.03229 0.97301 0.0
C217 C 0.32196 0.04967 0.93569 0.0
C218 C 0.31216 0.07225 0.93366 0.0
C219 C 0.29328 0.07787 0.97122 0.0
H220 H 0.22064 0.02472 0.15809 0.0
H221 H 0.18621 0.01403 0.22115 0.0
H222 H 0.1647 0.08669 0.21525 0.0
H223 H 0.19831 0.09683 0.1517 0.0
H224 H 0.25273 0.11646 0.2538 0.0
H225 H 0.27827 0.12676 0.34322 0.0
H226 H 0.34031 0.12188 0.23084 0.0
H227 H 0.31497 0.11253 0.14179 0.0
H228 H 0.28489 0.02481 0.04248 0.0
H229 H 0.3179 0.01471 0.97599 0.0
H230 H 0.31969 0.08597 0.90457 0.0
H231 H 0.28733 0.09591 0.97123 0.0
N232 N 0.24737 0.06043 0.07951 0.0
N233 N 0.24655 0.08807 0.16087 0.0
N234 N 0.27941 0.08779 0.09784 0.0
C235 C 0.23576 0.07013 0.12792 0.0
C236 C 0.26837 0.09689 0.14671 0.0
C237 C 0.26923 0.06985 0.06368 0.0
C238 C 0.21203 0.06155 0.14919 0.0
C239 C 0.20792 0.03808 0.16825 0.0
C240 C 0.1884 0.03212 0.2055 0.0
C241 C 0.17257 0.04951 0.22438 0.0
C242 C 0.17605 0.07262 0.20159 0.0
C243 C 0.19544 0.0785 0.16482 0.0
C244 C 0.28194 0.11231 0.19153 0.0
C245 C 0.27178 0.11855 0.2476 0.0
C246 C 0.28643 0.12445 0.29903 0.0
C247 C 0.31139 0.12388 0.29515 0.0
C248 C 0.32119 0.12206 0.2363 0.0
C249 C 0.30656 0.11639 0.18485 0.0
C250 C 0.28331 0.0611 1.01166 0.0
C251 C 0.29178 0.03797 1.01077 0.0
C252 C 0.62095 0.29895 0.24024 0.0
C253 C 0.62543 0.28849 0.29827 0.0
C254 C 0.61672 0.26529 0.3084 0.0
C255 C 0.60185 0.25381 0.26407 0.0
H256 H 0.51266 0.23674 0.25214 0.0
H257 H 0.49801 0.20568 0.32093 0.0
H258 H 0.52289 0.15276 0.19668 0.0
H259 H 0.53721 0.1841 0.12748 0.0
H260 H 0.50567 0.26724 0.02653 0.0
H261 H 0.49621 0.2954 0.94378 0.0
H262 H 0.57143 0.31174 0.92553 0.0
H263 H 0.58076 0.28366 1.00663 0.0
H264 H 0.602 0.29669 0.15325 0.0
H265 H 0.62717 0.31685 0.23069 0.0
H266 H 0.62028 0.25648 0.35198 0.0
H267 H 0.59432 0.2365 0.27492 0.0
N268 N 0.56117 0.23804 0.18892 0.0
N269 N 0.53536 0.24193 0.10188 0.0
N270 N 0.57002 0.26627 0.11379 0.0
C271 C 0.54122 0.23095 0.15619 0.0
C272 C 0.55006 0.25959 0.08016 0.0
C273 C 0.57574 0.25561 0.16809 0.0
C274 C 0.52566 0.21274 0.1842 0.0
C275 C 0.514 0.21844 0.23834 0.0
C276 C 0.50595 0.20065 0.2781 0.0
C277 C 0.50965 0.17673 0.2649 0.0
C278 C 0.51962 0.17098 0.20809 0.0
C279 C 0.52769 0.18888 0.1682 0.0
C280 C 0.54395 0.27331 0.02356 0.0
C281 C 0.52015 0.27646 1.00374 0.0
C282 C 0.51475 0.29277 0.95674 0.0
C283 C 0.53305 0.30601 0.92814 0.0
C284 C 0.55685 0.30177 0.94582 0.0
C285 C 0.5622 0.28572 0.99286 0.0
C286 C 0.59554 0.26524 0.20848 0.0
C287 C 0.60626 0.28742 0.19576 0.0
Eu288 Eu 0.9982 0.02846 0.60102 0.0
Eu289 Eu 0.03721 0.00636 0.69652 0.0
C290 C 0.02588 0.06092 0.7034 0.0
C291 C 0.98303 0.0596 0.45891 0.0
C292 C 0.98319 0.08434 0.45409 0.0
C293 C 0.01512 0.05868 0.38576 0.0
C294 C 1.00043 0.09616 0.41948 0.0
C295 C 0.99814 0.04682 0.42129 0.0
C296 C 0.01744 0.0834 0.3882 0.0
C297 C 0.97292 0.04844 0.51439 0.0
O298 O 1.00329 0.00845 0.75041 0.0
O299 O 0.97423 0.01325 0.67446 0.0
C300 C 0.98066 0.00918 0.73249 0.0
O301 O 1.00476 0.99152 0.5666 0.0
O302 O 0.05331 1.00405 0.78946 0.0
O303 O 0.06643 0.98267 0.7161 0.0
O304 O 0.01598 0.97477 0.65824 0.0
C305 C 1.00843 0.97267 0.60052 0.0
O306 O 0.03427 0.03881 0.5628 0.0
O307 O 0.0566 0.00987 0.6067 0.0
O308 O 0.04341 0.04604 0.70268 0.0
O309 O 0.97433 0.02553 0.51913 0.0
O310 O 0.97937 0.05903 0.56595 0.0
O311 O 1.00497 0.05507 0.67797 0.0
C312 C 0.05768 0.9634 0.80973 0.0
C313 C 0.05759 0.94134 0.77971 0.0
C314 C 0.03167 0.9463 0.88676 0.0
C315 C 0.04342 0.92247 0.8007 0.0
C316 C 0.04578 0.96521 0.86565 0.0
C317 C 0.02935 0.92519 0.8526 0.0
C318 C 0.06474 0.98509 0.77574 0.0
C319 C 0.05346 0.02606 0.56405 0.0
H320 H 0.97173 0.09461 0.48236 0.0
H321 H 0.02792 0.04847 0.36157 0.0
H322 H 1.00157 0.1153 0.42083 0.0
H323 H 0.99851 0.02772 0.42379 0.0
H324 H 0.06676 0.93918 0.73687 0.0
H325 H 0.02161 0.94864 0.92811 0.0
H326 H 0.04217 0.90641 0.77346 0.0
H327 H 0.04576 0.98183 0.89045 0.0
Eu328 Eu 0.53161 0.02425 0.70771 0.0
Eu329 Eu 0.50272 0.99214 0.60497 0.0
C330 C 0.52398 0.96845 0.72511 0.0
C331 C 0.57731 0.02689 0.82622 0.0
C332 C 0.57728 1.00293 0.8097 0.0
C333 C 0.61078 0.0204 0.89732 0.0
C334 C 0.59335 0.98774 0.83714 0.0
C335 C 0.59418 0.03568 0.87021 0.0
C336 C 0.61027 0.99624 0.88114 0.0
C337 C 0.55965 0.04171 0.79486 0.0
O338 O 0.47646 1.00061 0.67923 0.0
O339 O 0.4934 0.03471 0.72009 0.0
C340 C 0.47491 0.01996 0.71244 0.0
O341 O 0.5263 0.04958 0.62849 0.0
O342 O 0.47666 0.96357 0.58317 0.0
O343 O 0.49281 0.98344 0.50923 0.0
O344 O 0.49477 0.02982 0.57933 0.0
C345 C 0.50893 0.04865 0.58625 0.0
O346 O 0.55918 1.0041 0.65609 0.0
O347 O 0.53902 0.99865 0.56411 0.0
O348 O 0.52237 0.96591 0.66491 0.0
O349 O 0.56341 0.04531 0.7364 0.0
O350 O 0.53753 0.03514 0.80397 0.0
O351 O 0.52113 0.98921 0.74993 0.0
C352 C 0.45121 0.97929 0.50527 0.0
C353 C 0.43435 0.98467 0.54964 0.0
C354 C 0.4311 0.00518 0.43251 0.0
C355 C 0.41692 1.00114 0.53661 0.0
C356 C 0.44851 0.98863 0.44548 0.0
C357 C 0.41599 0.01249 0.47899 0.0
C358 C 0.47458 0.97023 0.52552 0.0
C359 C 0.55923 1.00054 0.59617 0.0
H360 H 0.56488 0.99589 0.77484 0.0
H361 H 0.62386 0.02733 0.93104 0.0
H362 H 0.59288 0.96938 0.82275 0.0
H363 H 0.59461 0.05418 0.88313 0.0
H364 H 0.43584 0.97782 0.59627 0.0
H365 H 0.43032 0.01321 0.38709 0.0
H366 H 0.40544 0.00631 0.57327 0.0
H367 H 0.46123 0.9848 0.41046 0.0
Eu368 Eu 0.49346 0.50929 0.68424 0.0
Eu369 Eu 0.54138 0.49824 0.60836 0.0
C370 C 0.54513 0.51337 0.75067 0.0
C371 C 0.44136 0.54065 0.75544 0.0
C372 C 0.43605 0.55809 0.71129 0.0
C373 C 0.42371 0.56447 0.83411 0.0
C374 C 0.4248 0.57863 0.72859 0.0
C375 C 0.43475 0.54384 0.81666 0.0
C376 C 0.41886 0.58227 0.79046 0.0
C377 C 0.45411 0.51929 0.73898 0.0
O378 O 0.52878 0.46223 0.64321 0.0
O379 O 0.5035 0.47344 0.71898 0.0
C380 C 0.5159 0.45734 0.69181 0.0
O381 O 0.48309 0.48611 0.60229 0.0
O382 O 0.57968 0.5024 0.5944 0.0
O383 O 0.55728 0.4821 0.52896 0.0
O384 O 0.5106 0.50247 0.5396 0.0
C385 C 0.48989 0.49165 0.54668 0.0
O386 O 0.49985 0.54149 0.62456 0.0
O387 O 0.53976 0.53806 0.60762 0.0
O388 O 0.5524 0.49851 0.70927 0.0
O389 O 0.45514 0.51437 0.68032 0.0
O390 O 0.4743 0.51587 0.76872 0.0
O391 O 0.52483 0.52415 0.74224 0.0
C392 C 0.59628 0.46964 0.54583 0.0
C393 C 0.59788 0.45348 0.59482 0.0
C394 C 0.62282 0.44603 0.48707 0.0
C395 C 0.6115 0.43336 0.58933 0.0
C396 C 0.60935 0.46617 0.49282 0.0
C397 C 0.62345 0.42895 0.53442 0.0
C398 C 0.57902 0.48853 0.54619 0.0
C399 C 0.52033 0.55045 0.60604 0.0
H400 H 0.44089 0.55607 0.66357 0.0
H401 H 0.41984 0.56679 0.88237 0.0
H402 H 0.42108 0.5918 0.6936 0.0
H403 H 0.43864 0.5306 0.8514 0.0
H404 H 0.58778 0.4559 0.63611 0.0
H405 H 0.63138 0.44314 0.4437 0.0
H406 H 0.61184 0.42077 0.62701 0.0
H407 H 0.60815 0.47843 0.45445 0.0
Eu408 Eu 0.02559 0.53285 0.623 0.0
Eu409 Eu 1.00358 0.49309 0.71634 0.0
C410 C 0.06018 0.50359 0.71147 0.0
C411 C 0.06711 0.55376 0.50764 0.0
C412 C 0.08946 0.54903 0.53549 0.0
C413 C 0.0786 0.53281 0.41571 0.0
C414 C 0.1056 0.53526 0.50513 0.0
C415 C 0.06241 0.5466 0.44617 0.0
C416 C 0.09987 0.5261 0.44603 0.0
C417 C 0.04721 0.56072 0.54632 0.0
O418 O 0.99327 0.52841 0.75404 0.0
O419 O 0.02372 0.55111 0.7158 0.0
C420 C 1.00709 0.54755 0.75651 0.0
O421 O 0.98597 0.53857 0.61553 0.0
O422 O 1.00104 0.48018 0.81095 0.0
O423 O 0.98113 0.46198 0.73716 0.0
O424 O 0.97276 0.5025 0.65202 0.0
C425 C 0.96889 0.52245 0.62274 0.0
O426 O 0.02092 0.49947 0.56601 0.0
O427 O 0.0192 0.47095 0.64141 0.0
O428 O 0.04211 0.49964 0.74758 0.0
O429 O 0.02666 0.55014 0.53291 0.0
O430 O 0.05169 0.56133 0.60587 0.0
O431 O 0.05666 0.51108 0.65476 0.0
C432 C 0.96079 0.47191 0.82712 0.0
C433 C 0.94209 0.48161 0.79177 0.0
C434 C 0.94342 0.48705 0.91993 0.0
C435 C 0.92506 0.49502 0.8197 0.0
C436 C 0.96071 0.47382 0.8917 0.0
C437 C 0.92612 0.49881 0.88389 0.0
C438 C 0.98294 0.46599 0.79659 0.0
C439 C 0.02174 0.47723 0.58338 0.0
H440 H 0.09381 0.55433 0.5827 0.0
H441 H 0.07399 0.52652 0.36949 0.0
H442 H 0.1218 0.53043 0.52991 0.0
H443 H 0.04542 0.55011 0.42331 0.0
H444 H 0.94172 0.48057 0.74185 0.0
H445 H 0.94437 0.48903 0.9697 0.0
H446 H 0.91219 0.50383 0.79013 0.0
H447 H 0.97503 0.46663 0.91992 0.0
H448 H 0.12778 0.06844 0.23227 0.0
H449 H 0.09343 1.00036 0.54426 0.0
H450 H 0.17404 0.01912 0.32463 0.0
H451 H 0.05492 0.05955 0.47169 0.0
H452 H 0.12165 0.00504 0.46074 0.0
H453 H 0.09935 0.06306 0.3147 0.0
C454 C 0.13207 0.05645 0.26969 0.0
C455 C 0.15369 0.04438 0.27106 0.0
C456 C 0.10702 0.01701 0.46299 0.0
C457 C 0.12065 0.03793 0.36612 0.0
C458 C 0.09087 0.01439 0.5109 0.0
C459 C 0.07151 0.02947 0.51505 0.0
C460 C 0.10386 0.03477 0.41829 0.0
C461 C 0.06928 0.04729 0.47007 0.0
C462 C 0.11569 0.05337 0.31686 0.0
C463 C 0.15765 0.02867 0.3206 0.0
N464 N 0.08512 0.04937 0.42364 0.0
N465 N 0.14141 0.02598 0.36595 0.0
H466 H 0.4901 0.13148 0.25231 0.0
H467 H 0.52967 0.09314 0.59447 0.0
H468 H 0.52157 0.17987 0.38801 0.0
H469 H 0.48174 0.05004 0.47853 0.0
H470 H 0.52738 0.12483 0.51806 0.0
H471 H 0.48743 0.10093 0.33273 0.0
C472 C 0.49629 0.13573 0.29901 0.0
C473 C 0.50596 0.15834 0.31337 0.0
C474 C 0.5172 0.10851 0.50951 0.0
C475 C 0.50317 0.12345 0.40543 0.0
C476 C 0.51852 0.09038 0.55319 0.0
C477 C 0.50596 0.06882 0.543 0.0
C478 C 0.50347 0.10504 0.45462 0.0
C479 C 0.49174 0.06635 0.4885 0.0
C480 C 0.49468 0.11833 0.34492 0.0
C481 C 0.51364 0.16285 0.37482 0.0
N482 N 0.49108 0.08413 0.44611 0.0
N483 N 0.51226 0.14556 0.41826 0.0
H484 H 0.39222 0.42487 0.27926 0.0
H485 H 0.48678 0.51554 0.43648 0.0
H486 H 0.38957 0.49949 0.23858 0.0
H487 H 0.45618 0.45596 0.53377 0.0
H488 H 0.45852 0.50728 0.34916 0.0
H489 H 0.42354 0.43335 0.3574 0.0
C490 C 0.39816 0.44307 0.2865 0.0
C491 C 0.3876 0.46154 0.25299 0.0
C492 C 0.45814 0.49602 0.3896 0.0
C493 C 0.42427 0.47119 0.34164 0.0
C494 C 0.47429 0.50061 0.43921 0.0
C495 C 0.47378 0.4864 0.49246 0.0
C496 C 0.44188 0.47671 0.39269 0.0
C497 C 0.45711 0.46741 0.49377 0.0
C498 C 0.41617 0.44783 0.33107 0.0
C499 C 0.39701 0.48464 0.26311 0.0
N500 N 0.44197 0.46301 0.4445 0.0
N501 N 0.41474 0.48883 0.30674 0.0
H502 H 0.01882 0.34968 0.35624 0.0
H503 H 0.04094 0.48367 0.46957 0.0
H504 H 0.06721 0.39899 0.26853 0.0
H505 H 0.01158 0.42922 0.58719 0.0
H506 H 0.04671 0.45392 0.39 0.0
H507 H 0.01152 0.37971 0.43482 0.0
C508 C 0.02767 0.36691 0.35302 0.0
C509 C 0.04367 0.37178 0.30562 0.0
C510 C 0.039 0.44845 0.43317 0.0
C511 C 0.03547 0.40623 0.39568 0.0
C512 C 0.03562 0.46546 0.4787 0.0
C513 C 0.02571 0.45899 0.53538 0.0
C514 C 0.0321 0.42473 0.44363 0.0
C515 C 0.01937 0.43503 0.54442 0.0
C516 C 0.02366 0.38396 0.39823 0.0
C517 C 0.05487 0.39436 0.30439 0.0
N518 N 0.02252 0.41882 0.49896 0.0
N519 N 0.05052 0.4107 0.34851 0.0
H520 H 0.90991 0.98975 0.08142 0.0
H521 H 0.93188 0.01543 0.72157 0.0
H522 H 0.85339 0.00846 0.95259 0.0
H523 H 0.98719 0.99713 0.85455 0.0
H524 H 0.90275 0.01299 0.80401 0.0
H525 H 0.93825 0.99294 0.99829 0.0
C526 C 0.90339 0.99457 0.03567 0.0
C527 C 0.87904 0.99871 0.02439 0.0
C528 C 0.92126 0.00949 0.81505 0.0
C529 C 0.91176 1.00248 0.92796 0.0
C530 C 0.93793 0.01078 0.76785 0.0
C531 C 0.96217 0.00654 0.78074 0.0
C532 C 0.92879 1.00387 0.87581 0.0
C533 C 0.96881 1.00067 0.84198 0.0
C534 C 0.91967 0.99645 0.98803 0.0
C535 C 0.87194 0.0053 0.96395 0.0
N536 N 0.95232 0.99955 0.88685 0.0
N537 N 0.88814 0.00685 0.91812 0.0
H538 H 0.55126 0.88232 0.04874 0.0
H539 H 0.52205 0.9207 0.69782 0.0
H540 H 0.522 0.83392 0.90985 0.0
H541 H 0.53598 0.96983 0.8481 0.0
H542 H 0.52755 0.88787 0.77079 0.0
H543 H 0.55147 0.91383 0.97144 0.0
C544 C 0.54497 0.87824 1.00205 0.0
C545 C 0.53648 0.85533 0.98624 0.0
C546 C 0.52951 0.90587 0.78755 0.0
C547 C 0.5368 0.89145 0.89705 0.0
C548 C 0.5264 0.9246 0.74591 0.0
C549 C 0.52834 0.94808 0.76683 0.0
C550 C 0.53483 0.91068 0.85037 0.0
C551 C 0.53408 0.95205 0.82976 0.0
C552 C 0.54515 0.89625 0.95782 0.0
C553 C 0.52899 0.85114 0.92438 0.0
N554 N 0.53708 0.93362 0.86911 0.0
N555 N 0.5292 0.86901 0.88227 0.0
H556 H 0.65676 0.50745 0.03601 0.0
H557 H 0.53888 0.54522 0.84499 0.0
H558 H 0.61515 0.56698 0.08581 0.0
H559 H 0.58561 0.49078 0.78745 0.0
H560 H 0.56441 0.55152 0.93806 0.0
H561 H 0.62827 0.49864 0.95086 0.0
C562 C 0.64142 0.51846 0.0298 0.0
C563 C 0.63849 0.53806 0.0683 0.0
C564 C 0.56902 0.53817 0.90506 0.0
C565 C 0.60587 0.5283 0.96953 0.0
C566 C 0.55444 0.53457 0.85185 0.0
C567 C 0.56011 0.51752 0.80792 0.0
C568 C 0.58936 0.52454 0.91471 0.0
C569 C 0.58053 0.50422 0.81961 0.0
C570 C 0.62525 0.51355 0.98062 0.0
C571 C 0.61837 0.55188 0.05695 0.0
N572 N 0.59434 0.50802 0.87163 0.0
N573 N 0.60294 0.54681 1.00856 0.0
H574 H 0.96728 0.6178 0.09391 0.0
H575 H 0.0312 0.5902 0.77598 0.0
H576 H 0.01578 0.66715 1.00627 0.0
H577 H 0.97698 0.54451 0.85441 0.0
H578 H 0.0274 0.61767 0.86226 0.0
H579 H 0.97257 0.58979 1.00996 0.0
C580 C 0.97912 0.62279 0.05722 0.0
C581 C 0.99097 0.6451 0.05747 0.0
C582 C 0.01631 0.60165 0.86056 0.0
C583 C 0.99724 0.61276 0.96061 0.0
C584 C 0.01844 0.58594 0.81113 0.0
C585 C 1.00436 0.56495 0.80748 0.0
C586 C 1.00006 0.59639 0.90719 0.0
C587 C 0.98819 0.56045 0.85483 0.0
C588 C 0.98216 0.6067 1.00919 0.0
C589 C 1.00643 0.65017 1.00883 0.0
N590 N 0.98653 0.57597 0.90255 0.0
N591 N 1.00901 0.63424 0.96244 0.0
H592 H 0.13117 0.18558 0.35871 0.0
H593 H 0.03853 0.07971 0.27566 0.0
H594 H 0.1095 0.16501 0.17261 0.0
H595 H 0.04667 0.11393 0.45333 0.0
H596 H 0.07387 0.10231 0.24111 0.0
H597 H 0.1107 0.14999 0.39707 0.0
C598 C 0.12269 0.17335 0.32574 0.0
C599 C 0.12142 0.17885 0.26248 0.0
C600 C 0.06801 0.10466 0.28784 0.0
C601 C 0.09798 0.13816 0.30606 0.0
C602 C 0.04785 0.09188 0.30735 0.0
C603 C 0.03929 0.09566 0.36655 0.0
C604 C 0.07975 0.12098 0.32828 0.0
C605 C 0.05224 0.11119 0.40649 0.0
C606 C 0.11098 0.15304 0.34769 0.0
C607 C 0.11082 0.16185 0.22186 0.0
N608 N 0.07168 0.12344 0.38647 0.0
N609 N 0.09903 0.14256 0.24446 0.0
H610 H 0.35845 0.13713 0.32278 0.0
H611 H 0.36983 0.01812 0.51347 0.0
H612 H 0.29898 0.09616 0.39341 0.0
H613 H 0.42828 0.0545 0.42482 0.0
H614 H 0.34519 0.05238 0.49398 0.0
H615 H 0.38554 0.11391 0.38717 0.0
C616 C 0.351 0.12378 0.35308 0.0
C617 C 0.32643 0.11802 0.35053 0.0
C618 C 0.36348 0.05295 0.4793 0.0
C619 C 0.35727 0.09134 0.42389 0.0
C620 C 0.3775 0.03337 0.49024 0.0
C621 C 0.40089 0.03323 0.46921 0.0
C622 C 0.37292 0.0725 0.44705 0.0
C623 C 0.41004 0.05356 0.43988 0.0
C624 C 0.36649 0.11045 0.38967 0.0
C625 C 0.31776 0.1011 0.39259 0.0
N626 N 0.39595 0.07227 0.42906 0.0
N627 N 0.3332 0.08793 0.42625 0.0
H628 H 0.61163 0.28811 0.4185 0.0
H629 H 0.66343 0.41835 0.46985 0.0
H630 H 0.66136 0.32303 0.29742 0.0
H631 H 0.60576 0.38551 0.56989 0.0
H632 H 0.67246 0.37966 0.42777 0.0
H633 H 0.61995 0.31879 0.49517 0.0
C634 C 0.62488 0.3018 0.40853 0.0
C635 C 0.63535 0.30324 0.35046 0.0
C636 C 0.6582 0.38089 0.4601 0.0
C637 C 0.64432 0.33901 0.43788 0.0
C638 C 0.65295 0.40299 0.48396 0.0
C639 C 0.63335 0.40538 0.52216 0.0
C640 C 0.64376 0.36107 0.4746 0.0
C641 C 0.62094 0.38471 0.5404 0.0
C642 C 0.62944 0.31952 0.45236 0.0
C643 C 0.65226 0.32161 0.34069 0.0
N644 N 0.62607 0.36354 0.51554 0.0
N645 N 0.65583 0.33908 0.38337 0.0
H646 H 0.15516 0.41059 0.23782 0.0
H647 H 0.1487 0.5251 0.44837 0.0
H648 H 0.21575 0.44349 0.33579 0.0
H649 H 0.08564 0.48575 0.3831 0.0
H650 H 0.17325 0.49406 0.40921 0.0
H651 H 0.12878 0.4358 0.29494 0.0
C652 C 0.16288 0.42269 0.27224 0.0
C653 C 0.18776 0.42506 0.28136 0.0
C654 C 0.15403 0.49214 0.40357 0.0
C655 C 0.1578 0.45412 0.34598 0.0
C656 C 0.14 0.50991 0.42585 0.0
C657 C 0.11508 0.50813 0.41872 0.0
C658 C 0.14312 0.47245 0.3734 0.0
C659 C 0.10482 0.48811 0.38848 0.0
C660 C 0.14783 0.43711 0.30468 0.0
C661 C 0.19674 0.44083 0.32717 0.0
N662 N 0.1189 0.47109 0.36667 0.0
N663 N 0.18182 0.45499 0.35692 0.0
H664 H 0.95642 0.79461 0.93501 0.0
H665 H 0.98368 0.93204 0.88838 0.0
H666 H 0.9106 0.84871 0.99978 0.0
H667 H 0.03246 0.87689 0.84876 0.0
H668 H 0.95314 0.90187 0.91152 0.0
H669 H 0.97908 0.82442 0.8796 0.0
C670 C 0.95051 0.81262 0.93609 0.0
C671 C 0.93179 0.81915 0.97361 0.0
C672 C 0.97049 0.8964 0.89742 0.0
C673 C 0.95856 0.85366 0.91185 0.0
C674 C 0.98805 0.91358 0.88502 0.0
C675 C 0.01084 0.90698 0.86765 0.0
C676 C 0.9757 0.87241 0.89228 0.0
C677 C 0.01518 0.88282 0.86201 0.0
C678 C 0.96382 0.82977 0.90504 0.0
C679 C 0.92532 0.84294 0.97301 0.0
N680 N 0.99783 0.86643 0.87468 0.0
N681 N 0.93903 0.85944 0.9438 0.0
H682 H 0.7399 0.92841 0.97848 0.0
H683 H 0.60151 0.95246 0.93009 0.0
H684 H 0.68528 0.88679 0.06914 0.0
H685 H 0.65873 1.00211 0.88852 0.0
H686 H 0.63106 0.92369 0.96338 0.0
H687 H 0.70922 0.94885 0.9211 0.0
C688 C 0.72151 0.92283 0.98505 0.0
C689 C 0.71529 0.90615 0.03052 0.0
C690 C 0.63711 0.94087 0.94694 0.0
C691 C 0.67991 0.9305 0.96589 0.0
C692 C 0.62033 0.9573 0.92833 0.0
C693 C 0.6278 0.97973 0.90715 0.0
C694 C 0.66149 0.94684 0.94356 0.0
C695 C 0.65228 0.98515 0.90549 0.0
C696 C 0.70393 0.93497 0.9528 0.0
C697 C 0.69096 0.90003 0.03616 0.0
N698 N 0.66828 0.96878 0.9233 0.0
N699 N 0.67408 0.91261 1.00531 0.0
H700 H 0.38327 0.68746 0.04634 0.0
H701 H 0.4314 0.62662 0.74908 0.0
H702 H 0.42887 0.72177 0.91402 0.0
H703 H 0.38579 0.59073 0.87873 0.0
H704 H 0.42187 0.66418 0.79483 0.0
H705 H 0.3754 0.65513 0.97285 0.0
C706 C 0.3912 0.68849 1.00141 0.0
C707 C 0.40726 0.70712 0.98715 0.0
C708 C 0.41361 0.64815 0.81276 0.0
C709 C 0.39838 0.6702 0.90298 0.0
C710 C 0.41894 0.62659 0.78627 0.0
C711 C 0.4098 0.60532 0.81084 0.0
C712 C 0.39934 0.6485 0.8649 0.0
C713 C 0.39387 0.60661 0.85951 0.0
C714 C 0.38667 0.67004 0.95942 0.0
C715 C 0.41648 0.70781 0.92754 0.0
N716 N 0.3895 0.62779 0.88571 0.0
N717 N 0.41229 0.68939 0.88824 0.0
H718 H 0.85592 0.58894 0.13181 0.0
H719 H 0.87977 0.50929 0.85128 0.0
H720 H 0.82007 0.60069 0.95506 0.0
H721 H 0.93757 0.52969 0.97901 0.0
H722 H 0.85617 0.54075 0.89269 0.0
H723 H 0.88584 0.56704 0.08002 0.0
C724 C 0.85453 0.58765 0.08197 0.0
C725 C 0.83481 0.5964 0.04824 0.0
C726 C 0.8741 0.53838 0.91121 0.0
C727 C 0.86879 0.57012 0.98923 0.0
C728 C 0.8876 0.52037 0.8878 0.0
C729 C 0.91076 0.51665 0.91172 0.0
C730 C 0.88358 0.55249 0.95978 0.0
C731 C 0.91964 0.53141 0.95999 0.0
C732 C 0.87164 0.5748 0.05254 0.0
C733 C 0.83429 0.59357 0.98362 0.0
N734 N 0.90595 0.54853 0.98284 0.0
N735 N 0.85064 0.58011 0.9564 0.0
H736 H 1.00313 0.19614 0.88198 0.0
H737 H 0.06697 0.08107 0.75661 0.0
H738 H 0.07913 0.18651 0.89551 0.0
H739 H 0.99231 0.09421 0.72281 0.0
H740 H 0.07153 0.11925 0.80967 0.0
H741 H 0.99849 0.15849 0.82596 0.0
C742 C 0.01885 0.18619 0.87313 0.0
C743 C 0.04158 0.19476 0.89327 0.0
C744 C 0.05415 0.11381 0.79053 0.0
C745 C 0.03638 0.15144 0.82916 0.0
C746 C 0.05153 0.09195 0.76021 0.0
C747 C 0.02922 0.08429 0.73502 0.0
C748 C 0.0343 0.12818 0.79622 0.0
C749 C 0.00988 0.09929 0.7413 0.0
C750 C 0.01619 0.1647 0.84092 0.0
C751 C 0.06128 0.18099 0.88002 0.0
N752 N 0.01285 0.12039 0.77131 0.0
N753 N 0.05821 0.1601 0.84917 0.0
H754 H 0.36134 0.07933 0.92414 0.0
H755 H 0.4339 0.99189 0.71249 0.0
H756 H 0.33466 0.00962 0.8718 0.0
H757 H 0.46334 0.05803 0.7845 0.0
H758 H 0.39695 0.99871 0.76594 0.0
H759 H 0.39784 0.07243 0.86938 0.0
C760 C 0.36299 0.06259 0.90069 0.0
C761 C 0.34454 0.04514 0.90236 0.0
C762 C 0.41147 0.01175 0.77011 0.0
C763 C 0.38695 0.03698 0.83948 0.0
C764 C 0.43266 0.00791 0.73938 0.0
C765 C 0.452 0.02439 0.7438 0.0
C766 C 0.40932 0.03231 0.80563 0.0
C767 C 0.44906 0.04478 0.77958 0.0
C768 C 0.38404 0.05861 0.86967 0.0
C769 C 0.34828 0.02361 0.87215 0.0
N770 N 0.42822 0.04813 0.80891 0.0
N771 N 0.36893 0.0202 0.84184 0.0
H772 H 0.55628 0.31859 0.82206 0.0
H773 H 0.48686 0.43926 0.78061 0.0
H774 H 0.49781 0.3385 0.93395 0.0
H775 H 0.54494 0.42029 0.66604 0.0
H776 H 0.48872 0.4009 0.83116 0.0
H777 H 0.55045 0.3539 0.75874 0.0
C778 C 0.5421 0.33027 0.83312 0.0
C779 C 0.52764 0.32556 0.88393 0.0
C780 C 0.50099 0.405 0.79473 0.0
C781 C 0.52086 0.36614 0.81128 0.0
C782 C 0.49997 0.42699 0.76573 0.0
C783 C 0.51588 0.43319 0.71907 0.0
C784 C 0.51815 0.38893 0.77748 0.0
C785 C 0.53231 0.41635 0.70173 0.0
C786 C 0.53875 0.35043 0.79677 0.0
C787 C 0.5093 0.3412 0.89515 0.0
N788 N 0.53314 0.39508 0.73125 0.0
N789 N 0.5066 0.36083 0.85957 0.0
H790 H 0.1868 0.49922 0.94971 0.0
H791 H 0.10156 0.50183 0.64666 0.0
H792 H 0.21002 0.47593 0.77231 0.0
H793 H 0.07552 0.49876 0.83211 0.0
H794 H 0.14238 0.49788 0.68895 0.0
H795 H 0.14716 0.50564 0.90398 0.0
C796 C 0.18372 0.49588 0.90081 0.0
C797 C 0.20189 0.48712 0.86479 0.0
C798 C 0.12769 0.49802 0.72025 0.0
C799 C 0.15621 0.49412 0.81219 0.0
C800 C 0.10438 0.50029 0.69621 0.0
C801 C 0.08499 0.5005 0.73586 0.0
C802 C 0.13173 0.4964 0.78447 0.0
C803 C 0.08982 0.49851 0.79968 0.0
C804 C 0.16096 0.49928 0.8749 0.0
C805 C 0.19656 0.48263 0.80187 0.0
N806 N 0.11265 0.49669 0.82193 0.0
N807 N 0.17423 0.48621 0.77754 0.0
H808 H 0.01827 0.8245 0.48875 0.0
H809 H 0.98414 0.96094 0.49258 0.0
H810 H 0.95934 0.85265 0.38268 0.0
H811 H 0.02428 0.92973 0.6433 0.0
H812 H 0.97873 0.92191 0.44508 0.0
H813 H 0.02468 0.86338 0.5393 0.0
C814 C 1.00673 0.83882 0.47603 0.0
C815 C 0.98809 0.8352 0.43179 0.0
C816 C 0.98868 0.92354 0.48862 0.0
C817 C 0.99548 0.87972 0.48876 0.0
C818 C 0.99183 0.94589 0.5158 0.0
C819 C 1.00462 0.94873 0.57226 0.0
C820 C 0.99868 0.90372 0.51734 0.0
C821 C 0.01415 0.92842 0.59996 0.0
C822 C 0.01032 0.86095 0.50507 0.0
C823 C 0.97369 0.85445 0.41713 0.0
N824 N 0.01112 0.90683 0.57209 0.0
N825 N 0.97775 0.87577 0.44517 0.0
H826 H 0.67081 1.00047 0.32368 0.0
H827 H 0.60471 1.00116 0.64824 0.0
H828 H 0.70812 0.99759 0.50072 0.0
H829 H 0.56717 0.99759 0.47128 0.0
H830 H 0.64264 1.00114 0.59521 0.0
H831 H 0.63295 1.0015 0.37675 0.0
C832 C 0.67116 1.00037 0.37372 0.0
C833 C 0.69293 0.99896 0.40747 0.0
C834 C 0.62612 1.00029 0.5679 0.0
C835 C 0.64921 0.99976 0.46897 0.0
C836 C 0.60437 1.00025 0.59823 0.0
C837 C 0.58252 0.99929 0.5644 0.0
C838 C 0.62625 0.99951 0.50296 0.0
C839 C 0.58345 0.99825 0.49955 0.0
C840 C 0.64941 1.00072 0.40406 0.0
C841 C 0.69192 0.99842 0.47242 0.0
N842 N 0.60485 0.99845 0.47111 0.0
N843 N 0.67054 0.99881 0.50083 0.0
H844 H 0.47967 0.67834 0.41974 0.0
H845 H 0.55911 0.57583 0.56272 0.0
H846 H 0.55674 0.6817 0.42028 0.0
H847 H 0.48323 0.58027 0.58644 0.0
H848 H 0.5591 0.61439 0.51118 0.0
H849 H 0.48115 0.64257 0.4814 0.0
C850 C 0.497 0.67187 0.43355 0.0
C851 C 0.51814 0.68345 0.41484 0.0
C852 C 0.5425 0.60698 0.52806 0.0
C853 C 0.51986 0.64156 0.48475 0.0
C854 C 0.54247 0.58493 0.55755 0.0
C855 C 0.52111 0.57463 0.57886 0.0
C856 C 0.52099 0.61879 0.51935 0.0
C857 C 0.50014 0.58737 0.57076 0.0
C858 C 0.49778 0.65118 0.46852 0.0
C859 C 0.53994 0.67342 0.43292 0.0
N860 N 0.50061 0.60863 0.5414 0.0
N861 N 0.54023 0.65304 0.46658 0.0
H862 H 0.81581 0.52844 0.53753 0.0
H863 H 0.9569 0.55028 0.52359 0.0
H864 H 0.85148 0.54243 0.36722 0.0
H865 H 0.92579 0.50329 0.65802 0.0
H866 H 0.91726 0.55438 0.47434 0.0
H867 H 0.85508 0.52541 0.59101 0.0
C868 C 0.83189 0.53083 0.51149 0.0
C869 C 0.83042 0.53542 0.44777 0.0
C870 C 0.91914 0.54324 0.51479 0.0
C871 C 0.87519 0.53259 0.50862 0.0
C872 C 0.94172 0.541 0.54316 0.0
C873 C 0.94474 0.52632 0.59492 0.0
C874 C 0.89927 0.53112 0.53905 0.0
C875 C 0.92437 0.51464 0.61798 0.0
C876 C 0.85423 0.52908 0.5419 0.0
C877 C 0.85181 0.53852 0.4162 0.0
N878 N 0.9025 0.51737 0.59013 0.0
N879 N 0.87326 0.53723 0.44695 0.0
loop_
_geom_bond_atom_site_label_1
_geom_bond_atom_site_label_2
_geom_bond_distance
_geom_bond_site_symmetry_2
_ccdc_geom_bond_type
C0 C1 1.384 . S
C0 H13 0.947 . S
C0 C35 1.382 . S
C1 C0 1.384 . S
C1 C2 1.378 . S
C2 C1 1.378 . S
C2 C3 1.378 . S
C2 H14 0.952 . S
C3 C2 1.378 . S
C3 H15 0.950 . S
C3 C34 1.383 . S
H4 C23 0.947 . S
H5 C24 0.946 . S
H6 C26 0.953 . S
H7 C27 0.945 . S
H8 C29 0.952 . S
H9 C30 0.949 1_556 S
H10 C32 0.950 . S
H11 C33 0.948 . S
H12 C35 0.951 . S
H13 C0 0.947 . S
H14 C2 0.952 . S
H15 C3 0.950 . S
N16 C19 1.382 . S
N16 C21 1.363 . S
N17 C19 1.371 . S
N17 C20 1.372 . S
N18 C20 1.361 . S
N18 C21 1.377 . S
C19 N16 1.382 . S
C19 N17 1.371 . S
C19 C22 1.480 . S
C20 N17 1.372 . S
C20 N18 1.361 . S
C20 C28 1.457 . S
C21 N16 1.363 . S
C21 N18 1.377 . S
C21 C34 1.479 . S
C22 C19 1.480 . S
C22 C23 1.383 . S
C22 C27 1.385 . S
C23 H4 0.947 . S
C23 C22 1.383 . S
C23 C24 1.388 . S
C24 H5 0.946 . S
C24 C23 1.388 . S
C24 C25 1.384 . S
C25 C24 1.384 . S
C25 C26 1.377 . S
C26 H6 0.953 . S
C26 C25 1.377 . S
C26 C27 1.369 . S
C27 H7 0.945 . S
C27 C22 1.385 . S
C27 C26 1.369 . S
C28 C20 1.457 . S
C28 C29 1.372 . S
C28 C33 1.364 . S
C29 H8 0.952 . S
C29 C28 1.372 . S
C29 C30 1.389 . S
C30 H9 0.949 1_554 S
C30 C29 1.389 . S
C30 C31 1.387 . S
C31 C30 1.387 . S
C31 C32 1.372 . S
C32 H10 0.950 . S
C32 C31 1.372 . S
C32 C33 1.379 . S
C33 H11 0.948 . S
C33 C28 1.364 . S
C33 C32 1.379 . S
C34 C3 1.383 . S
C34 C21 1.479 . S
C34 C35 1.398 . S
C35 C0 1.382 . S
C35 H12 0.951 . S
C35 C34 1.398 . S
C36 C37 1.384 . S
C36 H49 0.947 . S
C36 C71 1.382 . S
C37 C36 1.384 . S
C37 C38 1.378 . S
C38 C37 1.378 . S
C38 C39 1.378 . S
C38 H50 0.952 . S
C39 C38 1.378 . S
C39 H51 0.950 . S
C39 C70 1.383 . S
H40 C59 0.947 . S
H41 C60 0.946 . S
H42 C62 0.953 . S
H43 C63 0.945 . S
H44 C65 0.952 . S
H45 C66 0.949 . S
H46 C68 0.950 . S
H47 C69 0.948 . S
H48 C71 0.951 . S
H49 C36 0.947 . S
H50 C38 0.952 . S
H51 C39 0.950 . S
N52 C55 1.382 . S
N52 C57 1.363 . S
N53 C55 1.371 . S
N53 C56 1.372 . S
N54 C56 1.361 . S
N54 C57 1.377 . S
C55 N52 1.382 . S
C55 N53 1.371 . S
C55 C58 1.480 . S
C56 N53 1.372 . S
C56 N54 1.361 . S
C56 C64 1.457 . S
C57 N52 1.363 . S
C57 N54 1.377 . S
C57 C70 1.479 . S
C58 C55 1.480 . S
C58 C59 1.383 . S
C58 C63 1.385 . S
C59 H40 0.947 . S
C59 C58 1.383 . S
C59 C60 1.388 . S
C60 H41 0.946 . S
C60 C59 1.388 . S
C60 C61 1.384 . S
C61 C60 1.384 . S
C61 C62 1.377 . S
C62 H42 0.953 . S
C62 C61 1.377 . S
C62 C63 1.369 . S
C63 H43 0.945 . S
C63 C58 1.385 . S
C63 C62 1.369 . S
C64 C56 1.457 . S
C64 C65 1.372 . S
C64 C69 1.364 . S
C65 H44 0.952 . S
C65 C64 1.372 . S
C65 C66 1.389 . S
C66 H45 0.949 . S
C66 C65 1.389 . S
C66 C67 1.387 . S
C67 C66 1.387 . S
C67 C68 1.372 . S
C68 H46 0.950 . S
C68 C67 1.372 . S
C68 C69 1.379 . S
C69 H47 0.948 . S
C69 C64 1.364 . S
C69 C68 1.379 . S
C70 C39 1.383 . S
C70 C57 1.479 . S
C70 C71 1.398 . S
C71 C36 1.382 . S
C71 H48 0.951 . S
C71 C70 1.398 . S
C72 C73 1.384 . S
C72 H85 0.947 . S
C72 C107 1.382 . S
C73 C72 1.384 . S
C73 C74 1.378 . S
C74 C73 1.378 . S
C74 C75 1.378 . S
C74 H86 0.952 . S
C75 C74 1.378 . S
C75 H87 0.950 . S
C75 C106 1.383 . S
H76 C95 0.947 . S
H77 C96 0.946 . S
H78 C98 0.953 . S
H79 C99 0.945 . S
H80 C101 0.952 . S
H81 C102 0.949 . S
H82 C104 0.950 . S
H83 C105 0.948 . S
H84 C107 0.951 . S
H85 C72 0.947 . S
H86 C74 0.952 . S
H87 C75 0.950 . S
N88 C91 1.382 . S
N88 C93 1.363 . S
N89 C91 1.371 . S
N89 C92 1.372 . S
N90 C92 1.361 . S
N90 C93 1.377 . S
C91 N88 1.382 . S
C91 N89 1.371 . S
C91 C94 1.480 . S
C92 N89 1.372 . S
C92 N90 1.361 . S
C92 C100 1.457 . S
C93 N88 1.363 . S
C93 N90 1.377 . S
C93 C106 1.479 . S
C94 C91 1.480 . S
C94 C95 1.383 . S
C94 C99 1.385 . S
C95 H76 0.947 . S
C95 C94 1.383 . S
C95 C96 1.388 . S
C96 H77 0.946 . S
C96 C95 1.388 . S
C96 C97 1.384 . S
C97 C96 1.384 . S
C97 C98 1.377 . S
C98 H78 0.953 . S
C98 C97 1.377 . S
C98 C99 1.369 . S
C99 H79 0.945 . S
C99 C94 1.385 . S
C99 C98 1.369 . S
C100 C92 1.457 . S
C100 C101 1.372 . S
C100 C105 1.364 . S
C101 H80 0.952 . S
C101 C100 1.372 . S
C101 C102 1.389 . S
C102 H81 0.949 . S
C102 C101 1.389 . S
C102 C103 1.387 . S
C103 C102 1.387 . S
C103 C104 1.372 . S
C104 H82 0.950 . S
C104 C103 1.372 . S
C104 C105 1.379 . S
C105 H83 0.948 . S
C105 C100 1.364 . S
C105 C104 1.379 . S
C106 C75 1.383 . S
C106 C93 1.479 . S
C106 C107 1.398 . S
C107 C72 1.382 . S
C107 H84 0.951 . S
C107 C106 1.398 . S
C108 C109 1.384 . S
C108 H121 0.947 . S
C108 C143 1.382 . S
C109 C108 1.384 . S
C109 C110 1.378 . S
C110 C109 1.378 . S
C110 C111 1.378 . S
C110 H122 0.952 1_554 S
C111 C110 1.378 . S
C111 H123 0.950 . S
C111 C142 1.383 . S
H112 C131 0.947 . S
H113 C132 0.946 . S
H114 C134 0.953 . S
H115 C135 0.945 . S
H116 C137 0.952 . S
H117 C138 0.949 . S
H118 C140 0.950 . S
H119 C141 0.948 . S
H120 C143 0.951 . S
H121 C108 0.947 . S
H122 C110 0.952 1_556 S
H123 C111 0.950 . S
N124 C127 1.382 . S
N124 C129 1.363 . S
N125 C127 1.371 . S
N125 C128 1.372 . S
N126 C128 1.361 . S
N126 C129 1.377 . S
C127 N124 1.382 . S
C127 N125 1.371 . S
C127 C130 1.480 . S
C128 N125 1.372 . S
C128 N126 1.361 . S
C128 C136 1.457 . S
C129 N124 1.363 . S
C129 N126 1.377 . S
C129 C142 1.479 . S
C130 C127 1.480 . S
C130 C131 1.383 . S
C130 C135 1.385 . S
C131 H112 0.947 . S
C131 C130 1.383 . S
C131 C132 1.388 . S
C132 H113 0.946 . S
C132 C131 1.388 . S
C132 C133 1.384 . S
C133 C132 1.384 . S
C133 C134 1.377 . S
C134 H114 0.953 . S
C134 C133 1.377 . S
C134 C135 1.369 . S
C135 H115 0.945 . S
C135 C130 1.385 . S
C135 C134 1.369 . S
C136 C128 1.457 . S
C136 C137 1.372 . S
C136 C141 1.364 . S
C137 H116 0.952 . S
C137 C136 1.372 . S
C137 C138 1.389 . S
C138 H117 0.949 . S
C138 C137 1.389 . S
C138 C139 1.387 . S
C139 C138 1.387 . S
C139 C140 1.372 . S
C140 H118 0.950 . S
C140 C139 1.372 . S
C140 C141 1.379 . S
C141 H119 0.948 . S
C141 C136 1.364 . S
C141 C140 1.379 . S
C142 C111 1.383 . S
C142 C129 1.479 . S
C142 C143 1.398 . S
C143 C108 1.382 . S
C143 H120 0.951 . S
C143 C142 1.398 . S
C144 C145 1.384 . S
C144 H157 0.947 . S
C144 C179 1.382 . S
C145 C144 1.384 . S
C145 C146 1.378 . S
C146 C145 1.378 . S
C146 C147 1.378 . S
C146 H158 0.952 . S
C147 C146 1.378 . S
C147 H159 0.950 . S
C147 C178 1.383 . S
H148 C167 0.947 . S
H149 C168 0.946 . S
H150 C170 0.953 . S
H151 C171 0.945 . S
H152 C173 0.952 . S
H153 C174 0.949 . S
H154 C176 0.950 . S
H155 C177 0.948 . S
H156 C179 0.951 . S
H157 C144 0.947 . S
H158 C146 0.952 . S
H159 C147 0.950 . S
N160 C163 1.382 . S
N160 C165 1.363 . S
N161 C163 1.371 . S
N161 C164 1.372 . S
N162 C164 1.361 . S
N162 C165 1.377 . S
C163 N160 1.382 . S
C163 N161 1.371 . S
C163 C166 1.480 . S
C164 N161 1.372 . S
C164 N162 1.361 . S
C164 C172 1.457 . S
C165 N160 1.363 . S
C165 N162 1.377 . S
C165 C178 1.479 1_554 S
C166 C163 1.480 . S
C166 C167 1.383 . S
C166 C171 1.385 . S
C167 H148 0.947 . S
C167 C166 1.383 . S
C167 C168 1.388 . S
C168 H149 0.946 . S
C168 C167 1.388 . S
C168 C169 1.384 . S
C169 C168 1.384 . S
C169 C170 1.377 . S
C170 H150 0.953 . S
C170 C169 1.377 . S
C170 C171 1.369 . S
C171 H151 0.945 . S
C171 C166 1.385 . S
C171 C170 1.369 . S
C172 C164 1.457 . S
C172 C173 1.372 . S
C172 C177 1.364 . S
C173 H152 0.952 . S
C173 C172 1.372 . S
C173 C174 1.389 . S
C174 H153 0.949 . S
C174 C173 1.389 . S
C174 C175 1.387 . S
C175 C174 1.387 . S
C175 C176 1.372 . S
C176 H154 0.950 . S
C176 C175 1.372 . S
C176 C177 1.379 . S
C177 H155 0.948 . S
C177 C172 1.364 . S
C177 C176 1.379 . S
C178 C147 1.383 . S
C178 C165 1.479 1_556 S
C178 C179 1.398 . S
C179 C144 1.382 . S
C179 H156 0.951 . S
C179 C178 1.398 . S
C180 C181 1.384 . S
C180 H193 0.947 . S
C180 C215 1.382 . S
C181 C180 1.384 . S
C181 C182 1.378 . S
C182 C181 1.378 . S
C182 C183 1.378 . S
C182 H194 0.952 . S
C183 C182 1.378 . S
C183 H195 0.950 . S
C183 C214 1.383 . S
H184 C203 0.947 1_556 S
H185 C204 0.946 . S
H186 C206 0.953 . S
H187 C207 0.945 . S
H188 C209 0.952 . S
H189 C210 0.949 . S
H190 C212 0.950 . S
H191 C213 0.948 . S
H192 C215 0.951 . S
H193 C180 0.947 . S
H194 C182 0.952 . S
H195 C183 0.950 . S
N196 C199 1.382 1_556 S
N196 C201 1.363 . S
N197 C199 1.371 . S
N197 C200 1.372 . S
N198 C200 1.361 . S
N198 C201 1.377 1_554 S
C199 N196 1.382 1_554 S
C199 N197 1.371 . S
C199 C202 1.480 . S
C200 N197 1.372 . S
C200 N198 1.361 . S
C200 C208 1.457 . S
C201 N196 1.363 . S
C201 N198 1.377 1_556 S
C201 C214 1.479 . S
C202 C199 1.480 . S
C202 C203 1.383 . S
C202 C207 1.385 . S
C203 H184 0.947 1_554 S
C203 C202 1.383 . S
C203 C204 1.388 . S
C204 H185 0.946 . S
C204 C203 1.388 . S
C204 C205 1.384 . S
C205 C204 1.384 . S
C205 C206 1.377 . S
C206 H186 0.953 . S
C206 C205 1.377 . S
C206 C207 1.369 . S
C207 H187 0.945 . S
C207 C202 1.385 . S
C207 C206 1.369 . S
C208 C200 1.457 . S
C208 C209 1.372 . S
C208 C213 1.364 . S
C209 H188 0.952 . S
C209 C208 1.372 . S
C209 C210 1.389 . S
C210 H189 0.949 . S
C210 C209 1.389 . S
C210 C211 1.387 . S
C211 C210 1.387 . S
C211 C212 1.372 . S
C212 H190 0.950 . S
C212 C211 1.372 . S
C212 C213 1.379 . S
C213 H191 0.948 . S
C213 C208 1.364 . S
C213 C212 1.379 . S
C214 C183 1.383 . S
C214 C201 1.479 . S
C214 C215 1.398 . S
C215 C180 1.382 . S
C215 H192 0.951 . S
C215 C214 1.398 . S
C216 C217 1.384 . S
C216 H229 0.947 . S
C216 C251 1.382 . S
C217 C216 1.384 . S
C217 C218 1.378 . S
C218 C217 1.378 . S
C218 C219 1.378 . S
C218 H230 0.952 . S
C219 C218 1.378 . S
C219 H231 0.950 . S
C219 C250 1.383 . S
H220 C239 0.947 . S
H221 C240 0.946 1_556 S
H222 C242 0.953 . S
H223 C243 0.945 . S
H224 C245 0.952 . S
H225 C246 0.949 . S
H226 C248 0.950 . S
H227 C249 0.948 . S
H228 C251 0.951 . S
H229 C216 0.947 . S
H230 C218 0.952 . S
H231 C219 0.950 . S
N232 C235 1.382 1_556 S
N232 C237 1.363 . S
N233 C235 1.371 . S
N233 C236 1.372 . S
N234 C236 1.361 . S
N234 C237 1.377 1_554 S
C235 N232 1.382 1_554 S
C235 N233 1.371 . S
C235 C238 1.480 . S
C236 N233 1.372 . S
C236 N234 1.361 . S
C236 C244 1.457 . S
C237 N232 1.363 . S
C237 N234 1.377 1_556 S
C237 C250 1.479 . S
C238 C235 1.480 . S
C238 C239 1.383 1_554 S
C238 C243 1.385 . S
C239 H220 0.947 . S
C239 C238 1.383 1_556 S
C239 C240 1.388 1_556 S
C240 H221 0.946 1_554 S
C240 C239 1.388 1_554 S
C240 C241 1.384 . S
C241 C240 1.384 . S
C241 C242 1.377 . S
C242 H222 0.953 . S
C242 C241 1.377 . S
C242 C243 1.369 . S
C243 H223 0.945 . S
C243 C238 1.385 . S
C243 C242 1.369 . S
C244 C236 1.457 . S
C244 C245 1.372 . S
C244 C249 1.364 . S
C245 H224 0.952 . S
C245 C244 1.372 . S
C245 C246 1.389 . S
C246 H225 0.949 . S
C246 C245 1.389 . S
C246 C247 1.387 . S
C247 C246 1.387 . S
C247 C248 1.372 . S
C248 H226 0.950 . S
C248 C247 1.372 . S
C248 C249 1.379 . S
C249 H227 0.948 . S
C249 C244 1.364 . S
C249 C248 1.379 . S
C250 C219 1.383 . S
C250 C237 1.479 . S
C250 C251 1.398 . S
C251 C216 1.382 . S
C251 H228 0.951 . S
C251 C250 1.398 . S
C252 C253 1.384 . S
C252 H265 0.947 . S
C252 C287 1.382 . S
C253 C252 1.384 . S
C253 C254 1.378 . S
C254 C253 1.378 . S
C254 C255 1.378 . S
C254 H266 0.952 . S
C255 C254 1.378 . S
C255 H267 0.950 . S
C255 C286 1.383 . S
H256 C275 0.947 . S
H257 C276 0.946 . S
H258 C278 0.953 . S
H259 C279 0.945 . S
H260 C281 0.952 . S
H261 C282 0.949 . S
H262 C284 0.950 . S
H263 C285 0.948 . S
H264 C287 0.951 . S
H265 C252 0.947 . S
H266 C254 0.952 . S
H267 C255 0.950 . S
N268 C271 1.382 . S
N268 C273 1.363 . S
N269 C271 1.371 . S
N269 C272 1.372 . S
N270 C272 1.361 . S
N270 C273 1.377 . S
C271 N268 1.382 . S
C271 N269 1.371 . S
C271 C274 1.480 . S
C272 N269 1.372 . S
C272 N270 1.361 . S
C272 C280 1.457 1_554 S
C273 N268 1.363 . S
C273 N270 1.377 . S
C273 C286 1.479 . S
C274 C271 1.480 . S
C274 C275 1.383 . S
C274 C279 1.385 . S
C275 H256 0.947 . S
C275 C274 1.383 . S
C275 C276 1.388 . S
C276 H257 0.946 . S
C276 C275 1.388 . S
C276 C277 1.384 . S
C277 C276 1.384 . S
C277 C278 1.377 . S
C278 H258 0.953 . S
C278 C277 1.377 . S
C278 C279 1.369 . S
C279 H259 0.945 . S
C279 C274 1.385 . S
C279 C278 1.369 . S
C280 C272 1.457 1_556 S
C280 C281 1.372 . S
C280 C285 1.364 . S
C281 H260 0.952 . S
C281 C280 1.372 . S
C281 C282 1.389 . S
C282 H261 0.949 . S
C282 C281 1.389 . S
C282 C283 1.387 . S
C283 C282 1.387 . S
C283 C284 1.372 . S
C284 H262 0.950 . S
C284 C283 1.372 . S
C284 C285 1.379 . S
C285 H263 0.948 . S
C285 C280 1.364 . S
C285 C284 1.379 . S
C286 C255 1.383 . S
C286 C273 1.479 . S
C286 C287 1.398 . S
C287 C252 1.382 . S
C287 H264 0.951 . S
C287 C286 1.398 . S
Eu288 C297 2.828 . S
Eu288 O299 2.392 . S
Eu288 O301 2.418 1_545 S
Eu288 O306 2.373 1_655 S
Eu288 O309 2.488 . S
Eu288 O310 2.471 . S
Eu288 O311 2.349 1_655 S
Eu289 O298 2.373 1_455 S
Eu289 O302 2.488 . S
Eu289 O303 2.471 . S
Eu289 O304 2.349 . S
Eu289 O307 2.392 1_565 S
Eu289 O308 2.418 1_565 S
Eu289 C318 2.828 . S
C290 O308 1.244 . S
C290 O311 1.265 . S
C291 C292 1.379 1_655 S
C291 C295 1.373 . S
C291 C297 1.505 . S
C292 C291 1.379 1_455 S
C292 C294 1.369 . S
C292 H320 0.930 . S
C293 C295 1.383 . S
C293 C296 1.362 1_655 S
C293 H321 0.930 . S
C294 C292 1.369 . S
C294 C296 1.407 . S
C294 H322 0.930 . S
C295 C291 1.373 . S
C295 C293 1.383 . S
C295 H323 0.931 . S
C296 C293 1.362 1_455 S
C296 C294 1.407 . S
C297 Eu288 2.828 . S
C297 C291 1.505 . S
C297 O309 1.249 . S
C297 O310 1.244 . S
O298 Eu289 2.373 1_655 S
O298 C300 1.258 . S
O299 Eu288 2.392 . S
O299 C300 1.242 1_545 S
C300 O298 1.258 . S
C300 O299 1.242 1_565 S
O301 Eu288 2.418 1_565 S
O301 C305 1.244 . S
O302 Eu289 2.488 . S
O302 C318 1.249 . S
O303 Eu289 2.471 . S
O303 C318 1.244 . S
O304 Eu289 2.349 . S
O304 C305 1.265 1_455 S
C305 O301 1.244 . S
C305 O304 1.265 1_655 S
O306 Eu288 2.373 1_455 S
O306 C319 1.258 . S
O307 Eu289 2.392 1_545 S
O307 C319 1.242 . S
O308 Eu289 2.418 1_545 S
O308 C290 1.244 . S
O309 Eu288 2.488 . S
O309 C297 1.249 . S
O310 Eu288 2.471 . S
O310 C297 1.244 . S
O311 Eu288 2.349 1_455 S
O311 C290 1.265 . S
C312 C313 1.379 . S
C312 C316 1.373 . S
C312 C318 1.505 . S
C313 C312 1.379 . S
C313 C315 1.369 . S
C313 H324 0.930 1_455 S
C314 C316 1.383 . S
C314 C317 1.382 . S
C314 H325 0.930 . S
C315 C313 1.369 . S
C315 C317 1.392 . S
C315 H326 0.930 1_455 S
C316 C312 1.373 . S
C316 C314 1.383 . S
C316 H327 0.931 . S
C317 C314 1.382 . S
C317 C315 1.392 . S
C318 Eu289 2.828 . S
C318 O302 1.249 . S
C318 O303 1.244 . S
C318 C312 1.505 . S
C319 O306 1.258 . S
C319 O307 1.242 . S
H320 C292 0.930 . S
H321 C293 0.930 . S
H322 C294 0.930 . S
H323 C295 0.931 . S
H324 C313 0.930 1_655 S
H325 C314 0.930 . S
H326 C315 0.930 1_655 S
H327 C316 0.931 . S
Eu328 C337 2.828 . S
Eu328 O339 2.392 . S
Eu328 O341 2.418 . S
Eu328 O346 2.373 . S
Eu328 O349 2.488 . S
Eu328 O350 2.471 . S
Eu328 O351 2.349 1_545 S
Eu329 O338 2.373 1_565 S
Eu329 O342 2.488 . S
Eu329 O343 2.471 1_565 S
Eu329 O344 2.349 1_565 S
Eu329 O347 2.392 . S
Eu329 O348 2.418 . S
Eu329 C358 2.828 . S
C330 O348 1.244 . S
C330 O351 1.265 . S
C331 C332 1.379 1_545 S
C331 C335 1.373 . S
C331 C337 1.505 . S
C332 C331 1.379 1_565 S
C332 C334 1.369 . S
C332 H360 0.930 . S
C333 C335 1.383 . S
C333 C336 1.382 . S
C333 H361 0.930 . S
C334 C332 1.369 . S
C334 C336 1.392 1_565 S
C334 H362 0.930 . S
C335 C331 1.373 . S
C335 C333 1.383 . S
C335 H363 0.931 . S
C336 C333 1.382 . S
C336 C334 1.392 1_545 S
C337 Eu328 2.828 . S
C337 C331 1.505 . S
C337 O349 1.249 . S
C337 O350 1.244 . S
O338 Eu329 2.373 1_545 S
O338 C340 1.258 . S
O339 Eu328 2.392 . S
O339 C340 1.242 . S
C340 O338 1.258 . S
C340 O339 1.242 . S
O341 Eu328 2.418 . S
O341 C345 1.244 . S
O342 Eu329 2.488 . S
O342 C358 1.249 . S
O343 Eu329 2.471 1_545 S
O343 C358 1.244 1_545 S
O344 Eu329 2.349 1_545 S
O344 C345 1.265 . S
C345 O341 1.244 . S
C345 O344 1.265 . S
O346 Eu328 2.373 . S
O346 C359 1.258 1_545 S
O347 Eu329 2.392 . S
O347 C359 1.242 . S
O348 Eu329 2.418 . S
O348 C330 1.244 . S
O349 Eu328 2.488 . S
O349 C337 1.249 . S
O350 Eu328 2.471 . S
O350 C337 1.244 . S
O351 Eu328 2.349 1_565 S
O351 C330 1.265 . S
C352 C353 1.379 1_565 S
C352 C356 1.373 . S
C352 C358 1.505 . S
C353 C352 1.379 1_545 S
C353 C355 1.369 . S
C353 H364 0.930 . S
C354 C356 1.383 . S
C354 C357 1.382 . S
C354 H365 0.930 . S
C355 C353 1.369 . S
C355 C357 1.392 1_545 S
C355 H366 0.930 . S
C356 C352 1.373 . S
C356 C354 1.383 . S
C356 H367 0.931 . S
C357 C354 1.382 . S
C357 C355 1.392 1_565 S
C358 Eu329 2.828 . S
C358 O342 1.249 . S
C358 O343 1.244 1_565 S
C358 C352 1.505 . S
C359 O346 1.258 1_565 S
C359 O347 1.242 . S
H360 C332 0.930 . S
H361 C333 0.930 . S
H362 C334 0.930 . S
H363 C335 0.931 . S
H364 C353 0.930 . S
H365 C354 0.930 . S
H366 C355 0.930 . S
H367 C356 0.931 . S
Eu368 C377 2.828 . S
Eu368 O379 2.392 . S
Eu368 O381 2.418 . S
Eu368 O386 2.373 . S
Eu368 O389 2.488 . S
Eu368 O390 2.471 . S
Eu368 O391 2.349 . S
Eu369 O378 2.373 . S
Eu369 O382 2.488 . S
Eu369 O383 2.471 . S
Eu369 O384 2.349 . S
Eu369 O387 2.392 . S
Eu369 O388 2.418 . S
Eu369 C398 2.828 . S
C370 O388 1.244 . S
C370 O391 1.265 . S
C371 C372 1.379 . S
C371 C375 1.373 . S
C371 C377 1.505 . S
C372 C371 1.379 . S
C372 C374 1.369 . S
C372 H400 0.930 . S
C373 C375 1.383 . S
C373 C376 1.382 . S
C373 H401 0.930 . S
C374 C372 1.369 . S
C374 C376 1.392 . S
C374 H402 0.930 . S
C375 C371 1.373 . S
C375 C373 1.383 . S
C375 H403 0.931 . S
C376 C373 1.382 . S
C376 C374 1.392 . S
C377 Eu368 2.828 . S
C377 C371 1.505 . S
C377 O389 1.249 . S
C377 O390 1.244 . S
O378 Eu369 2.373 . S
O378 C380 1.258 . S
O379 Eu368 2.392 . S
O379 C380 1.242 . S
C380 O378 1.258 . S
C380 O379 1.242 . S
O381 Eu368 2.418 . S
O381 C385 1.244 . S
O382 Eu369 2.488 . S
O382 C398 1.249 . S
O383 Eu369 2.471 . S
O383 C398 1.244 . S
O384 Eu369 2.349 . S
O384 C385 1.265 . S
C385 O381 1.244 . S
C385 O384 1.265 . S
O386 Eu368 2.373 . S
O386 C399 1.258 . S
O387 Eu369 2.392 . S
O387 C399 1.242 . S
O388 Eu369 2.418 . S
O388 C370 1.244 . S
O389 Eu368 2.488 . S
O389 C377 1.249 . S
O390 Eu368 2.471 . S
O390 C377 1.244 . S
O391 Eu368 2.349 . S
O391 C370 1.265 . S
C392 C393 1.379 . S
C392 C396 1.373 . S
C392 C398 1.505 . S
C393 C392 1.379 . S
C393 C395 1.369 . S
C393 H404 0.930 . S
C394 C396 1.383 . S
C394 C397 1.382 . S
C394 H405 0.930 . S
C395 C393 1.369 . S
C395 C397 1.392 . S
C395 H406 0.930 . S
C396 C392 1.373 . S
C396 C394 1.383 . S
C396 H407 0.931 . S
C397 C394 1.382 . S
C397 C395 1.392 . S
C398 Eu369 2.828 . S
C398 O382 1.249 . S
C398 O383 1.244 . S
C398 C392 1.505 . S
C399 O386 1.258 . S
C399 O387 1.242 . S
H400 C372 0.930 . S
H401 C373 0.930 . S
H402 C374 0.930 . S
H403 C375 0.931 . S
H404 C393 0.930 . S
H405 C394 0.930 . S
H406 C395 0.930 . S
H407 C396 0.931 . S
Eu408 C417 2.828 . S
Eu408 O419 2.392 . S
Eu408 O421 2.418 1_455 S
Eu408 O426 2.373 . S
Eu408 O429 2.488 . S
Eu408 O430 2.471 . S
Eu408 O431 2.349 . S
Eu409 O418 2.373 . S
Eu409 O422 2.488 . S
Eu409 O423 2.471 . S
Eu409 O424 2.349 . S
Eu409 O427 2.392 1_655 S
Eu409 O428 2.418 1_655 S
Eu409 C438 2.828 . S
C410 O428 1.244 . S
C410 O431 1.265 . S
C411 C412 1.379 . S
C411 C415 1.373 . S
C411 C417 1.505 . S
C412 C411 1.379 . S
C412 C414 1.369 . S
C412 H440 0.930 . S
C413 C415 1.383 . S
C413 C416 1.382 . S
C413 H441 0.930 . S
C414 C412 1.369 . S
C414 C416 1.392 . S
C414 H442 0.930 . S
C415 C411 1.373 . S
C415 C413 1.383 . S
C415 H443 0.931 . S
C416 C413 1.382 . S
C416 C414 1.392 . S
C417 Eu408 2.828 . S
C417 C411 1.505 . S
C417 O429 1.249 . S
C417 O430 1.244 . S
O418 Eu409 2.373 . S
O418 C420 1.258 1_655 S
O419 Eu408 2.392 . S
O419 C420 1.242 . S
C420 O418 1.258 1_455 S
C420 O419 1.242 . S
O421 Eu408 2.418 1_655 S
O421 C425 1.244 . S
O422 Eu409 2.488 . S
O422 C438 1.249 . S
O423 Eu409 2.471 . S
O423 C438 1.244 . S
O424 Eu409 2.349 . S
O424 C425 1.265 . S
C425 O421 1.244 . S
C425 O424 1.265 . S
O426 Eu408 2.373 . S
O426 C439 1.258 . S
O427 Eu409 2.392 1_455 S
O427 C439 1.242 . S
O428 Eu409 2.418 1_455 S
O428 C410 1.244 . S
O429 Eu408 2.488 . S
O429 C417 1.249 . S
O430 Eu408 2.471 . S
O430 C417 1.244 . S
O431 Eu408 2.349 . S
O431 C410 1.265 . S
C432 C433 1.379 . S
C432 C436 1.373 . S
C432 C438 1.505 . S
C433 C432 1.379 . S
C433 C435 1.369 . S
C433 H444 0.930 . S
C434 C436 1.383 . S
C434 C437 1.382 . S
C434 H445 0.930 . S
C435 C433 1.369 . S
C435 C437 1.392 . S
C435 H446 0.930 . S
C436 C432 1.373 . S
C436 C434 1.383 . S
C436 H447 0.931 . S
C437 C434 1.382 . S
C437 C435 1.392 . S
C438 Eu409 2.828 . S
C438 O422 1.249 . S
C438 O423 1.244 . S
C438 C432 1.505 . S
C439 O426 1.258 . S
C439 O427 1.242 . S
H440 C412 0.930 . S
H441 C413 0.930 . S
H442 C414 0.930 . S
H443 C415 0.931 . S
H444 C433 0.930 . S
H445 C434 0.930 . S
H446 C435 0.930 . S
H447 C436 0.931 . S
H448 C454 0.930 . S
H449 C458 0.930 1_565 S
H450 C463 0.929 . S
H451 C461 0.929 . S
H452 C456 0.907 1_565 S
H453 C462 0.929 . S
C454 H448 0.930 . S
C454 C455 1.367 . S
C454 C462 1.378 . S
C455 C454 1.367 . S
C455 C463 1.433 . S
C456 H452 0.907 1_545 S
C456 C458 1.378 . S
C456 C460 1.350 . S
C457 C460 1.463 . S
C457 C462 1.350 . S
C457 N465 1.427 . S
C458 H449 0.930 1_545 S
C458 C456 1.378 . S
C458 C459 1.367 . S
C459 C458 1.367 . S
C459 C461 1.433 . S
C460 C456 1.350 . S
C460 C457 1.463 . S
C460 N464 1.427 . S
C461 H451 0.929 . S
C461 C459 1.433 . S
C461 N464 1.384 . S
C462 H453 0.929 . S
C462 C454 1.378 . S
C462 C457 1.350 . S
C463 H450 0.929 . S
C463 C455 1.433 . S
C463 N465 1.384 . S
N464 C460 1.427 . S
N464 C461 1.384 . S
N465 C457 1.427 . S
N465 C463 1.384 . S
H466 C472 0.930 . S
H467 C476 0.930 . S
H468 C481 0.929 . S
H469 C479 0.929 . S
H470 C474 0.929 . S
H471 C480 0.929 . S
C472 H466 0.930 . S
C472 C473 1.367 . S
C472 C480 1.378 . S
C473 C472 1.367 . S
C473 C481 1.433 . S
C474 H470 0.929 . S
C474 C476 1.378 . S
C474 C478 1.350 . S
C475 C478 1.463 . S
C475 C480 1.350 . S
C475 N483 1.427 . S
C476 H467 0.930 . S
C476 C474 1.378 . S
C476 C477 1.367 . S
C477 C476 1.367 . S
C477 C479 1.433 . S
C478 C474 1.350 . S
C478 C475 1.463 . S
C478 N482 1.427 . S
C479 H469 0.929 . S
C479 C477 1.433 . S
C479 N482 1.384 . S
C480 H471 0.929 . S
C480 C472 1.378 . S
C480 C475 1.350 . S
C481 H468 0.929 . S
C481 C473 1.433 . S
C481 N483 1.384 . S
N482 C478 1.427 . S
N482 C479 1.384 . S
N483 C475 1.427 . S
N483 C481 1.384 . S
H484 C490 0.930 . S
H485 C494 0.930 . S
H486 C499 0.929 . S
H487 C497 0.929 . S
H488 C492 0.929 . S
H489 C498 0.929 . S
C490 H484 0.930 . S
C490 C491 1.367 . S
C490 C498 1.378 . S
C491 C490 1.367 . S
C491 C499 1.433 . S
C492 H488 0.929 . S
C492 C494 1.378 . S
C492 C496 1.350 . S
C493 C496 1.463 . S
C493 C498 1.350 . S
C493 N501 1.427 . S
C494 H485 0.930 . S
C494 C492 1.378 . S
C494 C495 1.367 . S
C495 C494 1.367 . S
C495 C497 1.433 . S
C496 C492 1.350 . S
C496 C493 1.463 . S
C496 N500 1.427 . S
C497 H487 0.929 . S
C497 C495 1.433 . S
C497 N500 1.384 . S
C498 H489 0.929 . S
C498 C490 1.378 . S
C498 C493 1.350 . S
C499 H486 0.929 . S
C499 C491 1.433 . S
C499 N501 1.384 . S
N500 C496 1.427 . S
N500 C497 1.384 . S
N501 C493 1.427 . S
N501 C499 1.384 . S
H502 C508 0.930 . S
H503 C512 0.930 . S
H504 C517 0.929 . S
H505 C515 0.929 . S
H506 C510 0.929 . S
H507 C516 0.929 . S
C508 H502 0.930 . S
C508 C509 1.367 . S
C508 C516 1.378 . S
C509 C508 1.367 . S
C509 C517 1.433 . S
C510 H506 0.929 . S
C510 C512 1.378 . S
C510 C514 1.350 . S
C511 C514 1.463 . S
C511 C516 1.350 . S
C511 N519 1.427 . S
C512 H503 0.930 . S
C512 C510 1.378 . S
C512 C513 1.367 . S
C513 C512 1.367 . S
C513 C515 1.433 . S
C514 C510 1.350 . S
C514 C511 1.463 . S
C514 N518 1.427 . S
C515 H505 0.929 . S
C515 C513 1.433 . S
C515 N518 1.384 . S
C516 H507 0.929 . S
C516 C508 1.378 . S
C516 C511 1.350 . S
C517 H504 0.929 . S
C517 C509 1.433 . S
C517 N519 1.384 . S
N518 C514 1.427 . S
N518 C515 1.384 . S
N519 C511 1.427 . S
N519 C517 1.384 . S
H520 C526 0.930 . S
H521 C530 0.930 . S
H522 C535 0.929 . S
H523 C533 0.929 . S
H524 C528 0.929 . S
H525 C534 0.913 1_545 S
C526 H520 0.930 . S
C526 C527 1.367 . S
C526 C534 1.378 . S
C527 C526 1.367 . S
C527 C535 1.433 . S
C528 H524 0.929 . S
C528 C530 1.378 . S
C528 C532 1.350 . S
C529 C532 1.463 1_554 S
C529 C534 1.350 . S
C529 N537 1.427 . S
C530 H521 0.930 . S
C530 C528 1.378 . S
C530 C531 1.367 . S
C531 C530 1.367 . S
C531 C533 1.433 1_565 S
C532 C528 1.350 . S
C532 C529 1.463 1_556 S
C532 N536 1.427 . S
C533 H523 0.929 . S
C533 C531 1.433 1_545 S
C533 N536 1.384 1_545 S
C534 H525 0.913 1_565 S
C534 C526 1.378 . S
C534 C529 1.350 . S
C535 H522 0.929 . S
C535 C527 1.433 . S
C535 N537 1.384 . S
N536 C532 1.427 . S
N536 C533 1.384 1_565 S
N537 C529 1.427 . S
N537 C535 1.384 . S
H538 C544 0.930 . S
H539 C548 0.930 . S
H540 C553 0.929 . S
H541 C551 0.929 . S
H542 C546 0.929 . S
H543 C552 0.929 . S
C544 H538 0.930 . S
C544 C545 1.367 . S
C544 C552 1.378 . S
C545 C544 1.367 . S
C545 C553 1.433 . S
C546 H542 0.929 . S
C546 C548 1.378 . S
C546 C550 1.350 . S
C547 C550 1.463 . S
C547 C552 1.350 1_556 S
C547 N555 1.427 . S
C548 H539 0.930 . S
C548 C546 1.378 . S
C548 C549 1.367 . S
C549 C548 1.367 . S
C549 C551 1.433 . S
C550 C546 1.350 . S
C550 C547 1.463 . S
C550 N554 1.427 . S
C551 H541 0.929 . S
C551 C549 1.433 . S
C551 N554 1.384 . S
C552 H543 0.929 . S
C552 C544 1.378 . S
C552 C547 1.350 1_554 S
C553 H540 0.929 . S
C553 C545 1.433 . S
C553 N555 1.384 1_554 S
N554 C550 1.427 . S
N554 C551 1.384 . S
N555 C547 1.427 . S
N555 C553 1.384 1_556 S
H556 C562 0.930 . S
H557 C566 0.930 . S
H558 C571 0.929 . S
H559 C569 0.929 . S
H560 C564 0.929 . S
H561 C570 0.929 . S
C562 H556 0.930 . S
C562 C563 1.367 . S
C562 C570 1.378 1_554 S
C563 C562 1.367 . S
C563 C571 1.433 . S
C564 H560 0.929 . S
C564 C566 1.378 . S
C564 C568 1.350 . S
C565 C568 1.463 . S
C565 C570 1.350 . S
C565 N573 1.427 1_556 S
C566 H557 0.930 . S
C566 C564 1.378 . S
C566 C567 1.367 . S
C567 C566 1.367 . S
C567 C569 1.433 . S
C568 C564 1.350 . S
C568 C565 1.463 . S
C568 N572 1.427 . S
C569 H559 0.929 . S
C569 C567 1.433 . S
C569 N572 1.384 . S
C570 H561 0.929 . S
C570 C562 1.378 1_556 S
C570 C565 1.350 . S
C571 H558 0.929 . S
C571 C563 1.433 . S
C571 N573 1.384 . S
N572 C568 1.427 . S
N572 C569 1.384 . S
N573 C565 1.427 1_554 S
N573 C571 1.384 . S
H574 C580 0.930 . S
H575 C584 0.914 1_455 S
H576 C589 0.929 . S
H577 C587 0.929 . S
H578 C582 0.932 . S
H579 C588 0.929 . S
C580 H574 0.930 . S
C580 C581 1.367 . S
C580 C588 1.378 . S
C581 C580 1.367 . S
C581 C589 1.433 . S
C582 H578 0.932 . S
C582 C584 1.387 . S
C582 C586 1.350 . S
C583 C586 1.463 . S
C583 C588 1.350 1_556 S
C583 N591 1.427 1_556 S
C584 H575 0.914 1_655 S
C584 C582 1.387 . S
C584 C585 1.376 . S
C585 C584 1.376 . S
C585 C587 1.433 . S
C586 C582 1.350 . S
C586 C583 1.463 . S
C586 N590 1.427 . S
C587 H577 0.929 . S
C587 C585 1.433 . S
C587 N590 1.384 . S
C588 H579 0.929 . S
C588 C580 1.378 . S
C588 C583 1.350 1_554 S
C589 H576 0.929 . S
C589 C581 1.433 . S
C589 N591 1.384 . S
N590 C586 1.427 . S
N590 C587 1.384 . S
N591 C583 1.427 1_554 S
N591 C589 1.384 . S
H592 C598 0.930 . S
H593 C602 0.930 . S
H594 C607 0.929 . S
H595 C605 0.929 . S
H596 C600 0.929 . S
H597 C606 0.929 . S
C598 H592 0.930 . S
C598 C599 1.367 . S
C598 C606 1.378 . S
C599 C598 1.367 . S
C599 C607 1.433 . S
C600 H596 0.929 . S
C600 C602 1.378 1_455 S
C600 C604 1.350 . S
C601 C604 1.463 . S
C601 C606 1.350 . S
C601 N609 1.427 . S
C602 H593 0.930 . S
C602 C600 1.378 1_655 S
C602 C603 1.367 . S
C603 C602 1.367 . S
C603 C605 1.433 1_655 S
C604 C600 1.350 . S
C604 C601 1.463 . S
C604 N608 1.427 . S
C605 H595 0.929 . S
C605 C603 1.433 1_455 S
C605 N608 1.384 . S
C606 H597 0.929 . S
C606 C598 1.378 . S
C606 C601 1.350 . S
C607 H594 0.929 . S
C607 C599 1.433 . S
C607 N609 1.384 . S
N608 C604 1.427 . S
N608 C605 1.384 . S
N609 C601 1.427 . S
N609 C607 1.384 . S
H610 C616 0.930 . S
H611 C620 0.930 . S
H612 C625 0.929 . S
H613 C623 0.929 . S
H614 C618 0.929 . S
H615 C624 0.929 . S
C616 H610 0.930 . S
C616 C617 1.367 . S
C616 C624 1.378 . S
C617 C616 1.367 . S
C617 C625 1.433 . S
C618 H614 0.929 . S
C618 C620 1.378 1_545 S
C618 C622 1.350 . S
C619 C622 1.463 . S
C619 C624 1.350 . S
C619 N627 1.427 . S
C620 H611 0.930 . S
C620 C618 1.378 1_565 S
C620 C621 1.367 . S
C621 C620 1.367 . S
C621 C623 1.433 1_565 S
C622 C618 1.350 . S
C622 C619 1.463 . S
C622 N626 1.427 . S
C623 H613 0.929 . S
C623 C621 1.433 1_545 S
C623 N626 1.384 . S
C624 H615 0.929 . S
C624 C616 1.378 . S
C624 C619 1.350 . S
C625 H612 0.929 . S
C625 C617 1.433 . S
C625 N627 1.384 . S
N626 C622 1.427 . S
N626 C623 1.384 . S
N627 C619 1.427 . S
N627 C625 1.384 . S
H628 C634 0.930 . S
H629 C638 0.930 . S
H630 C643 0.929 . S
H631 C641 0.929 . S
H632 C636 0.929 . S
H633 C642 0.929 . S
C634 H628 0.930 . S
C634 C635 1.367 . S
C634 C642 1.378 . S
C635 C634 1.367 . S
C635 C643 1.433 . S
C636 H632 0.929 . S
C636 C638 1.378 . S
C636 C640 1.350 . S
C637 C640 1.463 . S
C637 C642 1.350 . S
C637 N645 1.427 . S
C638 H629 0.930 . S
C638 C636 1.378 . S
C638 C639 1.367 . S
C639 C638 1.367 . S
C639 C641 1.433 . S
C640 C636 1.350 . S
C640 C637 1.463 . S
C640 N644 1.427 . S
C641 H631 0.929 . S
C641 C639 1.433 . S
C641 N644 1.384 . S
C642 H633 0.929 . S
C642 C634 1.378 . S
C642 C637 1.350 . S
C643 H630 0.929 . S
C643 C635 1.433 . S
C643 N645 1.384 . S
N644 C640 1.427 . S
N644 C641 1.384 . S
N645 C637 1.427 . S
N645 C643 1.384 . S
H646 C652 0.930 . S
H647 C656 0.930 . S
H648 C661 0.929 . S
H649 C659 0.929 . S
H650 C654 0.929 . S
H651 C660 0.929 . S
C652 H646 0.930 . S
C652 C653 1.367 . S
C652 C660 1.378 . S
C653 C652 1.367 . S
C653 C661 1.433 . S
C654 H650 0.929 . S
C654 C656 1.378 . S
C654 C658 1.350 . S
C655 C658 1.463 . S
C655 C660 1.350 . S
C655 N663 1.427 . S
C656 H647 0.930 . S
C656 C654 1.378 . S
C656 C657 1.367 . S
C657 C656 1.367 . S
C657 C659 1.433 . S
C658 C654 1.350 . S
C658 C655 1.463 . S
C658 N662 1.427 . S
C659 H649 0.929 . S
C659 C657 1.433 . S
C659 N662 1.384 . S
C660 H651 0.929 . S
C660 C652 1.378 . S
C660 C655 1.350 . S
C661 H648 0.929 . S
C661 C653 1.433 . S
C661 N663 1.384 . S
N662 C658 1.427 . S
N662 C659 1.384 . S
N663 C655 1.427 . S
N663 C661 1.384 . S
H664 C670 0.930 . S
H665 C674 0.930 . S
H666 C679 0.929 . S
H667 C677 0.929 . S
H668 C672 0.929 . S
H669 C678 0.929 1_455 S
C670 H664 0.930 . S
C670 C671 1.367 . S
C670 C678 1.378 . S
C671 C670 1.367 . S
C671 C679 1.433 . S
C672 H668 0.929 . S
C672 C674 1.378 . S
C672 C676 1.350 . S
C673 C676 1.463 1_554 S
C673 C678 1.350 . S
C673 N681 1.427 . S
C674 H665 0.930 . S
C674 C672 1.378 . S
C674 C675 1.367 1_655 S
C675 C674 1.367 1_455 S
C675 C677 1.433 . S
C676 C672 1.350 . S
C676 C673 1.463 1_556 S
C676 N680 1.427 1_655 S
C677 H667 0.929 . S
C677 C675 1.433 . S
C677 N680 1.384 . S
C678 H669 0.929 1_655 S
C678 C670 1.378 . S
C678 C673 1.350 . S
C679 H666 0.929 . S
C679 C671 1.433 . S
C679 N681 1.384 . S
N680 C676 1.427 1_455 S
N680 C677 1.384 . S
N681 C673 1.427 . S
N681 C679 1.384 . S
H682 C688 0.930 . S
H683 C692 0.930 . S
H684 C697 0.929 . S
H685 C695 0.929 . S
H686 C690 0.929 1_554 S
H687 C696 0.929 . S
C688 H682 0.930 . S
C688 C689 1.367 . S
C688 C696 1.378 1_554 S
C689 C688 1.367 . S
C689 C697 1.433 . S
C690 H686 0.929 1_556 S
C690 C692 1.378 1_565 S
C690 C694 1.350 . S
C691 C694 1.463 . S
C691 C696 1.350 . S
C691 N699 1.427 1_556 S
C692 H683 0.930 . S
C692 C690 1.378 1_545 S
C692 C693 1.367 . S
C693 C692 1.367 . S
C693 C695 1.433 . S
C694 C690 1.350 . S
C694 C691 1.463 . S
C694 N698 1.427 . S
C695 H685 0.929 . S
C695 C693 1.433 . S
C695 N698 1.384 1_545 S
C696 H687 0.929 . S
C696 C688 1.378 1_556 S
C696 C691 1.350 . S
C697 H684 0.929 . S
C697 C689 1.433 . S
C697 N699 1.384 . S
N698 C694 1.427 . S
N698 C695 1.384 1_565 S
N699 C691 1.427 1_554 S
N699 C697 1.384 . S
H700 C706 0.930 . S
H701 C710 0.930 . S
H702 C715 0.929 . S
H703 C713 0.929 . S
H704 C708 0.929 . S
H705 C714 0.929 . S
C706 H700 0.930 . S
C706 C707 1.367 1_556 S
C706 C714 1.378 . S
C707 C706 1.367 1_554 S
C707 C715 1.433 . S
C708 H704 0.929 . S
C708 C710 1.378 . S
C708 C712 1.350 . S
C709 C712 1.463 . S
C709 C714 1.350 . S
C709 N717 1.427 1_556 S
C710 H701 0.930 . S
C710 C708 1.378 . S
C710 C711 1.367 . S
C711 C710 1.367 . S
C711 C713 1.433 . S
C712 C708 1.350 . S
C712 C709 1.463 . S
C712 N716 1.427 . S
C713 H703 0.929 . S
C713 C711 1.433 . S
C713 N716 1.384 . S
C714 H705 0.929 . S
C714 C706 1.378 . S
C714 C709 1.350 . S
C715 H702 0.929 . S
C715 C707 1.433 . S
C715 N717 1.384 . S
N716 C712 1.427 . S
N716 C713 1.384 . S
N717 C709 1.427 1_554 S
N717 C715 1.384 . S
H718 C724 0.930 . S
H719 C728 0.930 . S
H720 C733 0.929 . S
H721 C731 0.929 1_554 S
H722 C726 0.929 . S
H723 C732 0.929 . S
C724 H718 0.930 . S
C724 C725 1.367 . S
C724 C732 1.378 . S
C725 C724 1.367 . S
C725 C733 1.433 1_554 S
C726 H722 0.929 . S
C726 C728 1.378 . S
C726 C730 1.350 . S
C727 C730 1.463 . S
C727 C732 1.350 1_556 S
C727 N735 1.427 . S
C728 H719 0.930 . S
C728 C726 1.378 . S
C728 C729 1.367 . S
C729 C728 1.367 . S
C729 C731 1.433 . S
C730 C726 1.350 . S
C730 C727 1.463 . S
C730 N734 1.427 1_556 S
C731 H721 0.929 1_556 S
C731 C729 1.433 . S
C731 N734 1.384 1_556 S
C732 H723 0.929 . S
C732 C724 1.378 . S
C732 C727 1.350 1_554 S
C733 H720 0.929 . S
C733 C725 1.433 1_556 S
C733 N735 1.384 . S
N734 C730 1.427 1_554 S
N734 C731 1.384 1_554 S
N735 C727 1.427 . S
N735 C733 1.384 . S
H736 C742 0.930 . S
H737 C746 0.930 . S
H738 C751 0.929 . S
H739 C749 0.929 1_655 S
H740 C744 0.929 . S
H741 C750 0.929 . S
C742 H736 0.930 . S
C742 C743 1.367 . S
C742 C750 1.378 . S
C743 C742 1.367 . S
C743 C751 1.433 . S
C744 H740 0.929 . S
C744 C746 1.378 . S
C744 C748 1.350 . S
C745 C748 1.463 . S
C745 C750 1.350 . S
C745 N753 1.427 . S
C746 H737 0.930 . S
C746 C744 1.378 . S
C746 C747 1.367 . S
C747 C746 1.367 . S
C747 C749 1.433 . S
C748 C744 1.350 . S
C748 C745 1.463 . S
C748 N752 1.427 . S
C749 H739 0.929 1_455 S
C749 C747 1.433 . S
C749 N752 1.384 . S
C750 H741 0.929 . S
C750 C742 1.378 . S
C750 C745 1.350 . S
C751 H738 0.929 . S
C751 C743 1.433 . S
C751 N753 1.384 . S
N752 C748 1.427 . S
N752 C749 1.384 . S
N753 C745 1.427 . S
N753 C751 1.384 . S
H754 C760 0.930 . S
H755 C764 0.899 1_565 S
H756 C769 0.929 . S
H757 C767 0.929 . S
H758 C762 0.929 . S
H759 C768 0.929 . S
C760 H754 0.930 . S
C760 C761 1.367 . S
C760 C768 1.378 . S
C761 C760 1.367 . S
C761 C769 1.433 . S
C762 H758 0.929 . S
C762 C764 1.378 . S
C762 C766 1.350 . S
C763 C766 1.463 . S
C763 C768 1.350 . S
C763 N771 1.427 . S
C764 H755 0.899 1_545 S
C764 C762 1.378 . S
C764 C765 1.367 . S
C765 C764 1.367 . S
C765 C767 1.433 . S
C766 C762 1.350 . S
C766 C763 1.463 . S
C766 N770 1.427 . S
C767 H757 0.929 . S
C767 C765 1.433 . S
C767 N770 1.384 . S
C768 H759 0.929 . S
C768 C760 1.378 . S
C768 C763 1.350 . S
C769 H756 0.929 . S
C769 C761 1.433 . S
C769 N771 1.384 . S
N770 C766 1.427 . S
N770 C767 1.384 . S
N771 C763 1.427 . S
N771 C769 1.384 . S
H772 C778 0.930 . S
H773 C782 0.930 . S
H774 C787 0.929 . S
H775 C785 0.929 . S
H776 C780 0.929 . S
H777 C786 0.929 . S
C778 H772 0.930 . S
C778 C779 1.367 . S
C778 C786 1.378 . S
C779 C778 1.367 . S
C779 C787 1.433 . S
C780 H776 0.929 . S
C780 C782 1.378 . S
C780 C784 1.350 . S
C781 C784 1.463 . S
C781 C786 1.350 . S
C781 N789 1.427 . S
C782 H773 0.930 . S
C782 C780 1.378 . S
C782 C783 1.367 . S
C783 C782 1.367 . S
C783 C785 1.433 . S
C784 C780 1.350 . S
C784 C781 1.463 . S
C784 N788 1.427 . S
C785 H775 0.929 . S
C785 C783 1.433 . S
C785 N788 1.384 . S
C786 H777 0.929 . S
C786 C778 1.378 . S
C786 C781 1.350 . S
C787 H774 0.929 . S
C787 C779 1.433 . S
C787 N789 1.384 . S
N788 C784 1.427 . S
N788 C785 1.384 . S
N789 C781 1.427 . S
N789 C787 1.384 . S
H790 C796 0.930 . S
H791 C800 0.930 . S
H792 C805 0.929 . S
H793 C803 0.929 . S
H794 C798 0.929 . S
H795 C804 0.929 . S
C796 H790 0.930 . S
C796 C797 1.367 . S
C796 C804 1.378 . S
C797 C796 1.367 . S
C797 C805 1.433 . S
C798 H794 0.929 . S
C798 C800 1.378 . S
C798 C802 1.350 . S
C799 C802 1.463 . S
C799 C804 1.350 . S
C799 N807 1.427 . S
C800 H791 0.930 . S
C800 C798 1.378 . S
C800 C801 1.367 . S
C801 C800 1.367 . S
C801 C803 1.433 . S
C802 C798 1.350 . S
C802 C799 1.463 . S
C802 N806 1.427 . S
C803 H793 0.929 . S
C803 C801 1.433 . S
C803 N806 1.384 . S
C804 H795 0.929 . S
C804 C796 1.378 . S
C804 C799 1.350 . S
C805 H792 0.929 . S
C805 C797 1.433 . S
C805 N807 1.384 . S
N806 C802 1.427 . S
N806 C803 1.384 . S
N807 C799 1.427 . S
N807 C805 1.384 . S
H808 C814 0.930 . S
H809 C818 0.930 . S
H810 C823 0.929 . S
H811 C821 0.914 1_455 S
H812 C816 0.929 . S
H813 C822 0.929 . S
C814 H808 0.930 . S
C814 C815 1.367 . S
C814 C822 1.378 . S
C815 C814 1.367 . S
C815 C823 1.433 . S
C816 H812 0.929 . S
C816 C818 1.378 . S
C816 C820 1.350 . S
C817 C820 1.463 . S
C817 C822 1.350 . S
C817 N825 1.427 . S
C818 H809 0.930 . S
C818 C816 1.378 . S
C818 C819 1.367 . S
C819 C818 1.367 . S
C819 C821 1.433 . S
C820 C816 1.350 . S
C820 C817 1.463 . S
C820 N824 1.427 . S
C821 H811 0.914 1_655 S
C821 C819 1.433 . S
C821 N824 1.384 . S
C822 H813 0.929 . S
C822 C814 1.378 . S
C822 C817 1.350 . S
C823 H810 0.929 . S
C823 C815 1.433 . S
C823 N825 1.384 . S
N824 C820 1.427 . S
N824 C821 1.384 . S
N825 C817 1.427 . S
N825 C823 1.384 . S
H826 C832 0.930 . S
H827 C836 0.930 . S
H828 C841 0.929 . S
H829 C839 0.929 . S
H830 C834 0.929 . S
H831 C840 0.929 . S
C832 H826 0.930 . S
C832 C833 1.367 . S
C832 C840 1.378 . S
C833 C832 1.367 . S
C833 C841 1.433 . S
C834 H830 0.929 . S
C834 C836 1.378 . S
C834 C838 1.350 . S
C835 C838 1.463 . S
C835 C840 1.350 . S
C835 N843 1.427 . S
C836 H827 0.930 . S
C836 C834 1.378 . S
C836 C837 1.367 . S
C837 C836 1.367 . S
C837 C839 1.433 . S
C838 C834 1.350 . S
C838 C835 1.463 . S
C838 N842 1.427 . S
C839 H829 0.929 . S
C839 C837 1.433 . S
C839 N842 1.384 . S
C840 H831 0.929 . S
C840 C832 1.378 . S
C840 C835 1.350 . S
C841 H828 0.929 . S
C841 C833 1.433 . S
C841 N843 1.384 . S
N842 C838 1.427 . S
N842 C839 1.384 . S
N843 C835 1.427 . S
N843 C841 1.384 . S
H844 C850 0.930 . S
H845 C854 0.930 . S
H846 C859 0.929 . S
H847 C857 0.929 . S
H848 C852 0.929 . S
H849 C858 0.929 . S
C850 H844 0.930 . S
C850 C851 1.367 . S
C850 C858 1.378 . S
C851 C850 1.367 . S
C851 C859 1.433 . S
C852 H848 0.929 . S
C852 C854 1.378 . S
C852 C856 1.350 . S
C853 C856 1.463 . S
C853 C858 1.350 . S
C853 N861 1.427 . S
C854 H845 0.930 . S
C854 C852 1.378 . S
C854 C855 1.367 . S
C855 C854 1.367 . S
C855 C857 1.433 . S
C856 C852 1.350 . S
C856 C853 1.463 . S
C856 N860 1.427 . S
C857 H847 0.929 . S
C857 C855 1.433 . S
C857 N860 1.384 . S
C858 H849 0.929 . S
C858 C850 1.378 . S
C858 C853 1.350 . S
C859 H846 0.929 . S
C859 C851 1.433 . S
C859 N861 1.384 . S
N860 C856 1.427 . S
N860 C857 1.384 . S
N861 C853 1.427 . S
N861 C859 1.384 . S
H862 C868 0.930 . S
H863 C872 0.930 . S
H864 C877 0.929 . S
H865 C875 0.929 . S
H866 C870 0.929 . S
H867 C876 0.929 . S
C868 H862 0.930 . S
C868 C869 1.367 . S
C868 C876 1.378 . S
C869 C868 1.367 . S
C869 C877 1.433 . S
C870 H866 0.929 . S
C870 C872 1.378 . S
C870 C874 1.350 . S
C871 C874 1.463 . S
C871 C876 1.350 . S
C871 N879 1.427 . S
C872 H863 0.930 . S
C872 C870 1.378 . S
C872 C873 1.367 . S
C873 C872 1.367 . S
C873 C875 1.433 . S
C874 C870 1.350 . S
C874 C871 1.463 . S
C874 N878 1.427 . S
C875 H865 0.929 . S
C875 C873 1.433 . S
C875 N878 1.384 . S
C876 H867 0.929 . S
C876 C868 1.378 . S
C876 C871 1.350 . S
C877 H864 0.929 . S
C877 C869 1.433 . S
C877 N879 1.384 . S
N878 C874 1.427 . S
N878 C875 1.384 . S
N879 C871 1.427 . S
N879 C877 1.384 . S
C455 C241 2.685 . S
C459 C319 2.916 . S
C477 C345 2.370 . S
C473 C277 2.195 . S
C495 C385 2.344 . S
C491 C169 2.129 . S
C513 C439 2.853 . S
C509 C205 2.651 . S
C531 C300 2.919 . S
C527 C97 2.652 . S
C545 C133 2.164 . S
C549 C330 2.370 . S
C563 C25 2.087 . S
C567 C370 2.343 . S
C581 C61 2.631 . S
C585 C420 2.859 1_655 S
C603 C296 0.423 1_655 S
C599 C211 0.447 . S
C621 C357 0.668 . S
C617 C247 0.647 . S
C639 C397 0.395 . S
C635 C253 0.336 . S
C653 C175 0.402 . S
C657 C416 0.345 . S
C671 C67 0.504 . S
C675 C317 0.391 . S
C693 C336 0.638 . S
C689 C103 0.660 . S
C711 C376 0.357 . S
C707 C109 0.330 . S
C725 C31 0.516 . S
C729 C437 0.330 . S
C743 C181 2.554 . S
C747 C290 2.876 . S
C761 C217 3.178 . S
C765 C340 3.484 . S
C783 C380 3.215 . S
C779 C283 2.881 . S
C801 C410 2.579 . S
C797 C145 2.291 . S
C815 C37 2.541 . S
C819 C305 2.878 . S
C837 C359 3.485 . S
C833 C73 3.154 . S
C855 C399 3.215 . S
C851 C139 2.838 . S
C869 C1 2.284 . S
C873 C425 2.581 . S
