# Generated by pormake.
# Topology anh, (6,3)-cn, num edge types: 1
# Building blocks:
#     Node 0, Type 0, BuildingBlock: PAMTOO_clean_sbu_0, # of connection points: 6
#     Node 1, Type 0, BuildingBlock: PAMTOO_clean_sbu_0, # of connection points: 6
#     Node 2, Type 0, BuildingBlock: PAMTOO_clean_sbu_0, # of connection points: 6
#     Node 3, Type 1, BuildingBlock: ESEHIV_clean_linker_0, # of connection points: 3
#     Node 4, Type 1, BuildingBlock: ESEHIV_clean_linker_0, # of connection points: 3
#     Node 5, Type 1, BuildingBlock: ESEHIV_clean_linker_0, # of connection points: 3
#     Node 6, Type 1, BuildingBlock: ESEHIV_clean_linker_0, # of connection points: 3
#     Node 7, Type 1, BuildingBlock: ESEHIV_clean_linker_0, # of connection points: 3
#     Node 8, Type 1, BuildingBlock: ESEHIV_clean_linker_0, # of connection points: 3
#     Edge 9, Type (0, 1), BuildingBlock: KIFKEQ_clean_linker_1, # of connection points: 2
#     Edge 10, Type (0, 1), BuildingBlock: KIFKEQ_clean_linker_1, # of connection points: 2
#     Edge 11, Type (0, 1), BuildingBlock: KIFKEQ_clean_linker_1, # of connection points: 2
#     Edge 12, Type (0, 1), BuildingBlock: KIFKEQ_clean_linker_1, # of connection points: 2
#     Edge 13, Type (0, 1), BuildingBlock: KIFKEQ_clean_linker_1, # of connection points: 2
#     Edge 14, Type (0, 1), BuildingBlock: KIFKEQ_clean_linker_1, # of connection points: 2
#     Edge 15, Type (0, 1), BuildingBlock: KIFKEQ_clean_linker_1, # of connection points: 2
#     Edge 16, Type (0, 1), BuildingBlock: KIFKEQ_clean_linker_1, # of connection points: 2
#     Edge 17, Type (0, 1), BuildingBlock: KIFKEQ_clean_linker_1, # of connection points: 2
#     Edge 18, Type (0, 1), BuildingBlock: KIFKEQ_clean_linker_1, # of connection points: 2
#     Edge 19, Type (0, 1), BuildingBlock: KIFKEQ_clean_linker_1, # of connection points: 2
#     Edge 20, Type (0, 1), BuildingBlock: KIFKEQ_clean_linker_1, # of connection points: 2
#     Edge 21, Type (0, 1), BuildingBlock: KIFKEQ_clean_linker_1, # of connection points: 2
#     Edge 22, Type (0, 1), BuildingBlock: KIFKEQ_clean_linker_1, # of connection points: 2
#     Edge 23, Type (0, 1), BuildingBlock: KIFKEQ_clean_linker_1, # of connection points: 2
#     Edge 24, Type (0, 1), BuildingBlock: KIFKEQ_clean_linker_1, # of connection points: 2
#     Edge 25, Type (0, 1), BuildingBlock: KIFKEQ_clean_linker_1, # of connection points: 2
#     Edge 26, Type (0, 1), BuildingBlock: KIFKEQ_clean_linker_1, # of connection points: 2
# Relax obj value: 0.212
# Max RMSD: 0.208
# Mean RMSD: 0.164
data_MOF--net-anh--node1-PAMTOO_clean_sbu_0--node2-ESEHIV_clean_linker_0--edge1-KIFKEQ_clean_linker_1
_symmetry_space_group_name_H-M    P1
_symmetry_Int_Tables_number       1
_symmetry_cell_setting            triclinic
loop_
_symmetry_equiv_pos_as_xyz
'x, y, z'
_cell_length_a     27.964352
_cell_length_b     27.388043
_cell_length_c     53.080892
_cell_angle_alpha  90.825869
_cell_angle_beta   93.635379
_cell_angle_gamma 100.29924
loop_
_atom_site_label
_atom_site_type_symbol
_atom_site_fract_x
_atom_site_fract_y
_atom_site_fract_z
_atom_type_partial_charge
Dy0 Dy 0.1061 0.60907 0.1471 0.0
Dy1 Dy 1.08462 0.48747 0.14169 0.0
C2 C 1.09161 0.5552 0.09449 0.0
O3 O 1.02609 0.58983 0.15322 0.0
O4 O 1.01076 0.50897 0.13787 0.0
O5 O 0.12688 0.67882 0.12903 0.0
O6 O 0.11259 0.67797 0.1687 0.0
O7 O 1.07088 0.50682 0.18118 0.0
O8 O 0.12537 0.57961 0.18459 0.0
O9 O 0.16527 0.50667 0.15095 0.0
O10 O 0.17821 0.58818 0.13927 0.0
O11 O 1.09124 0.415 0.1554 0.0
O12 O 1.05166 0.42194 0.11956 0.0
C13 C 0.99555 0.54886 0.14598 0.0
O14 O 1.07389 0.58654 0.1084 0.0
O15 O 0.10922 0.51864 0.10503 0.0
C16 C 0.17674 0.73878 0.15595 0.0
C17 C 0.26586 0.80383 0.16793 0.0
C18 C 0.26462 0.75955 0.15395 0.0
C19 C 0.22057 0.72725 0.14814 0.0
C20 C 0.17765 0.78288 0.1698 0.0
C21 C 0.2218 0.81509 0.17579 0.0
C22 C 0.13024 0.70463 0.15012 0.0
C23 C 0.09894 0.54187 0.19505 0.0
C24 C 0.19485 0.54758 0.14547 0.0
C25 C 1.01963 0.35721 0.14538 0.0
C26 C 0.93768 0.29143 0.16056 0.0
C27 C 0.94625 0.34177 0.1683 0.0
C28 C 0.98677 0.37434 0.16073 0.0
C29 C 1.01141 0.30722 0.13752 0.0
C30 C 0.97074 0.27451 0.14506 0.0
C31 C 1.06168 0.392 0.13724 0.0
H32 H 0.29765 0.74991 0.14731 0.0
H33 H 0.22082 0.69326 0.13751 0.0
H34 H 0.14426 0.79221 0.17616 0.0
H35 H 0.22144 0.84838 0.18698 0.0
H36 H 0.92205 0.35594 0.18053 0.0
H37 H 0.99257 0.41295 0.16693 0.0
H38 H 1.03629 0.29355 0.1255 0.0
H39 H 0.96491 0.23613 0.13854 0.0
Dy40 Dy 0.57341 0.02723 0.51684 0.0
Dy41 Dy 0.69418 0.04684 0.52105 0.0
C42 C 0.63387 0.03745 0.56871 0.0
O43 O 0.59395 0.10733 0.50854 0.0
O44 O 0.67301 0.12157 0.52571 0.0
O45 O 0.5079 1.00581 0.53631 0.0
O46 O 0.50303 0.0258 0.49701 0.0
O47 O 0.67192 0.06016 0.48108 0.0
O48 O 0.59538 0.01195 0.47837 0.0
O49 O 0.67402 0.96489 0.51404 0.0
O50 O 0.59294 0.95242 0.52268 0.0
O51 O 0.76384 0.04089 0.50714 0.0
O52 O 0.76038 0.07889 0.54289 0.0
C53 C 0.63402 0.13772 0.51652 0.0
O54 O 0.60188 0.05734 0.55524 0.0
O55 O 0.66718 0.0186 0.55765 0.0
C56 C 0.44309 0.96097 0.51006 0.0
C57 C 0.37427 0.87416 0.49723 0.0
C58 C 0.41773 0.87146 0.51158 0.0
C59 C 0.45189 0.91437 0.51782 0.0
C60 C 0.39968 0.96397 0.49597 0.0
C61 C 0.3656 0.921 0.48956 0.0
C62 C 0.47942 1.00631 0.51591 0.0
C63 C 0.63346 0.0362 0.46784 0.0
C64 C 0.63279 0.93546 0.51814 0.0
C65 C 0.82194 0.11275 0.517 0.0
C66 C 0.88614 0.19678 0.50167 0.0
C67 C 0.83623 0.18931 0.49396 0.0
C68 C 0.80443 0.14777 0.50162 0.0
C69 C 0.87151 0.11986 0.52483 0.0
C70 C 0.90343 0.16157 0.51723 0.0
C71 C 0.7881 0.06958 0.52522 0.0
H72 H 0.42538 0.83619 0.5181 0.0
H73 H 0.48525 0.91102 0.52865 0.0
H74 H 0.3924 0.99954 0.48966 0.0
H75 H 0.33296 0.92444 0.47813 0.0
H76 H 0.82176 0.21518 0.48169 0.0
H77 H 0.76612 0.14288 0.49549 0.0
H78 H 0.88546 0.09331 0.53688 0.0
H79 H 0.9415 0.16651 0.52376 0.0
Dy80 Dy 0.63051 0.51501 0.84235 0.0
Dy81 Dy 0.51301 0.49697 0.83151 0.0
C82 C 0.58377 0.50618 0.78732 0.0
O83 O 0.61572 0.59049 0.83275 0.0
O84 O 0.53451 0.57824 0.84032 0.0
O85 O 0.70344 0.5407 0.83143 0.0
O86 O 0.69159 0.50631 0.86773 0.0
O87 O 0.52851 0.48355 0.87253 0.0
O88 O 0.59904 0.54015 0.87658 0.0
O89 O 0.53053 0.42131 0.82616 0.0
O90 O 0.60399 0.43474 0.84927 0.0
O91 O 0.44052 0.49463 0.84371 0.0
O92 O 0.45095 0.4818 0.80424 0.0
C93 C 0.57555 0.60778 0.83613 0.0
O94 O 0.61491 0.48842 0.80239 0.0
O95 O 0.54788 0.52393 0.79649 0.0
C96 C 0.75644 0.48763 0.84586 0.0
C97 C 0.82395 0.42622 0.83583 0.0
C98 C 0.78284 0.42598 0.81913 0.0
C99 C 0.74906 0.45624 0.82422 0.0
C100 C 0.79607 0.48631 0.86302 0.0
C101 C 0.82947 0.45591 0.85811 0.0
C102 C 0.72289 0.5214 0.85104 0.0
C103 C 0.56153 0.51391 0.88661 0.0
C104 C 0.56693 0.40459 0.83783 0.0
C105 C 0.39957 0.53789 0.81352 0.0
C106 C 0.36561 0.62506 0.79872 0.0
C107 C 0.38885 0.62218 0.82279 0.0
C108 C 0.40564 0.57936 0.83006 0.0
C109 C 0.37698 0.54062 0.7893 0.0
C110 C 0.36007 0.58381 0.78196 0.0
C111 C 0.4221 0.49472 0.82048 0.0
H112 H 0.77771 0.40368 0.80183 0.0
H113 H 0.71792 0.45606 0.81096 0.0
H114 H 0.80195 0.50985 0.87993 0.0
H115 H 0.86125 0.45806 0.87114 0.0
H116 H 0.39262 0.65242 0.83657 0.0
H117 H 0.42363 0.57908 0.84873 0.0
H118 H 0.37277 0.50951 0.77601 0.0
H119 H 0.34215 0.5847 0.76332 0.0
H120 H 0.5513 0.9984 0.27277 0.0
H121 H 0.68751 0.10102 0.27418 0.0
H122 H 0.61235 0.04621 0.20336 0.0
C123 C 0.5799 0.02125 0.26317 0.0
C124 C 0.57638 0.02091 0.23671 0.0
C125 C 0.61996 0.04966 0.27711 0.0
C126 C 0.65727 0.07726 0.26388 0.0
C127 C 0.65544 0.07565 0.23731 0.0
C128 C 0.61461 0.04741 0.22382 0.0
H129 H 0.62441 0.60851 0.60055 0.0
H130 H 0.61865 0.45133 0.59432 0.0
H131 H 0.62919 0.53886 0.5275 0.0
C132 C 0.62475 0.57567 0.58895 0.0
C133 C 0.62673 0.57952 0.56261 0.0
C134 C 0.62162 0.52962 0.60042 0.0
C135 C 0.62112 0.48708 0.58547 0.0
C136 C 0.62443 0.49012 0.55927 0.0
C137 C 0.62785 0.53657 0.54782 0.0
H138 H 1.08136 0.53916 0.90214 0.0
H139 H 0.16124 0.68875 0.91016 0.0
H140 H 0.13014 0.61769 0.8365 0.0
C141 C 0.10025 0.57232 0.89367 0.0
C142 C 0.1035 0.57356 0.86745 0.0
C143 C 0.12064 0.61373 0.90913 0.0
C144 C 0.14478 0.65695 0.89823 0.0
C145 C 0.14724 0.65912 0.87189 0.0
C146 C 0.12666 0.61714 0.85673 0.0
H147 H 1.06913 0.45793 0.38784 0.0
H148 H 0.16095 0.60162 0.38907 0.0
H149 H 0.12501 0.531 0.45887 0.0
C150 C 1.09066 0.48931 0.39841 0.0
C151 C 0.09392 0.4894 0.42497 0.0
C152 C 0.1151 0.52942 0.38532 0.0
C153 C 0.14228 0.57033 0.39905 0.0
C154 C 0.14582 0.57127 0.42554 0.0
C155 C 0.1219 0.53053 0.43841 0.0
H156 H 0.5991 0.09156 0.76107 0.0
H157 H 0.59382 0.93367 0.75729 0.0
H158 H 0.57633 1.00575 0.82782 0.0
C159 C 0.59594 0.05602 0.77014 0.0
C160 C 0.58877 0.05388 0.79605 0.0
C161 C 0.59761 0.01299 0.7558 0.0
C162 C 0.59142 0.96721 0.76785 0.0
C163 C 0.58339 0.96414 0.79369 0.0
C164 C 0.58226 1.00773 0.80785 0.0
H165 H 0.50616 0.54052 0.08188 0.0
H166 H 0.65743 0.53207 0.07859 0.0
H167 H 0.5966 0.54161 0.15075 0.0
C168 C 0.54145 0.53929 0.09132 0.0
C169 C 0.54626 0.54084 0.1178 0.0
C170 C 0.58123 0.5364 0.07698 0.0
C171 C 0.62665 0.53523 0.08954 0.0
C172 C 0.63312 0.53733 0.11605 0.0
C173 C 0.59257 0.54075 0.13031 0.0
H174 H 0.26747 0.62111 0.13064 0.0
H175 H 0.24435 0.47405 0.16108 0.0
H176 H 0.35408 0.61937 0.12931 0.0
H177 H 0.33114 0.47283 0.16048 0.0
H178 H 0.47335 0.4626 0.12187 0.0
H179 H 0.38985 0.46493 0.13159 0.0
H180 H 0.43113 0.62108 0.15143 0.0
H181 H 0.51482 0.61841 0.14087 0.0
C182 C 0.28083 0.58855 0.13732 0.0
C183 C 0.24845 0.54756 0.14576 0.0
C184 C 0.33086 0.5877 0.13677 0.0
C185 C 0.35021 0.5459 0.14474 0.0
C186 C 0.31788 0.50542 0.15377 0.0
C187 C 0.26786 0.50619 0.15421 0.0
C188 C 0.46488 0.49696 0.12921 0.0
C189 C 0.50085 0.54005 0.13112 0.0
C190 C 0.41679 0.49847 0.13471 0.0
C191 C 0.40305 0.54332 0.14216 0.0
C192 C 0.43986 0.58598 0.14538 0.0
C193 C 0.48813 0.58437 0.13982 0.0
H194 H 0.97871 0.20105 0.48661 0.0
H195 H 0.87001 0.29212 0.49732 0.0
H196 H 1.03252 0.27233 0.47081 0.0
H197 H 0.92271 0.36264 0.4803 0.0
H198 H 1.04296 0.49174 0.46727 0.0
H199 H 0.99681 0.42179 0.48832 0.0
H200 H 1.03702 0.3208 0.43349 0.0
H201 H 1.08508 0.39041 0.41329 0.0
C202 C 0.9664 0.23634 0.48577 0.0
C203 C 0.91991 0.24075 0.49312 0.0
C204 C 0.99703 0.27708 0.47641 0.0
C205 C 0.98186 0.32318 0.47411 0.0
C206 C 0.93581 0.32786 0.48202 0.0
C207 C 0.90528 0.2872 0.49146 0.0
C208 C 1.04265 0.45454 0.45999 0.0
C209 C 1.06754 0.44671 0.43852 0.0
C210 C 1.0157 0.41446 0.47188 0.0
C211 C 1.01295 0.36564 0.46253 0.0
C212 C 1.03871 0.3578 0.44138 0.0
C213 C 1.06576 0.39782 0.42957 0.0
H214 H 0.49745 0.65525 0.83589 0.0
H215 H 0.65398 0.68307 0.83266 0.0
H216 H 0.4965 0.74309 0.83008 0.0
H217 H 0.65288 0.77122 0.82684 0.0
H218 H 0.63691 0.93403 0.83351 0.0
H219 H 0.63393 0.84864 0.84777 0.0
H220 H 0.51299 0.79798 0.7934 0.0
H221 H 0.51628 0.88283 0.77925 0.0
C222 C 0.53174 0.68009 0.83417 0.0
C223 C 0.57576 0.6619 0.83452 0.0
C224 C 0.53113 0.73049 0.83079 0.0
C225 C 0.57459 0.76408 0.82794 0.0
C226 C 0.61884 0.74631 0.82923 0.0
C227 C 0.61941 0.69573 0.83237 0.0
C228 C 0.60911 0.90465 0.82509 0.0
C229 C 0.57682 0.91477 0.80532 0.0
C230 C 0.60766 0.85584 0.83304 0.0
C231 C 0.57339 0.81658 0.82161 0.0
C232 C 0.53956 0.82738 0.80273 0.0
C233 C 0.54148 0.87588 0.79457 0.0
H234 H 0.92426 0.46666 0.14713 0.0
H235 H 0.94475 0.62654 0.14617 0.0
H236 H 0.83659 0.46191 0.14574 0.0
H237 H 0.85639 0.62192 0.14352 0.0
H238 H 0.69241 0.6025 0.14994 0.0
H239 H 0.77943 0.60497 0.16126 0.0
H240 H 0.77321 0.46981 0.11712 0.0
H241 H 0.68702 0.4667 0.10699 0.0
C242 C 0.91003 0.50095 0.14649 0.0
C243 C 0.94182 0.54699 0.14648 0.0
C244 C 0.85942 0.49824 0.14555 0.0
C245 C 0.8386 0.54146 0.14408 0.0
C246 C 0.87056 0.5877 0.14486 0.0
C247 C 0.92145 0.59042 0.14621 0.0
C248 C 0.70955 0.57262 0.14341 0.0
C249 C 0.68272 0.53434 0.12763 0.0
C250 C 0.75969 0.57438 0.14951 0.0
C251 C 0.78417 0.53783 0.14 0.0
C252 C 0.75629 0.4984 0.12524 0.0
C253 C 0.70655 0.49663 0.11927 0.0
H254 H 0.27439 0.8606 0.49452 0.0
H255 H 0.39362 0.78359 0.48278 0.0
H256 H 0.21652 0.78654 0.4799 0.0
H257 H 0.33566 0.70944 0.46879 0.0
H258 H 0.21577 0.57195 0.46396 0.0
H259 H 0.26918 0.64446 0.48421 0.0
H260 H 0.19584 0.74105 0.43821 0.0
H261 H 0.14238 0.66877 0.41823 0.0
C262 C 0.28831 0.82798 0.48883 0.0
C263 C 0.33875 0.82825 0.48972 0.0
C264 C 0.25513 0.78551 0.48058 0.0
C265 C 0.2716 0.74225 0.47323 0.0
C266 C 0.32188 0.74202 0.4747 0.0
C267 C 0.35508 0.78457 0.48274 0.0
C268 C 0.21068 0.60874 0.45852 0.0
C269 C 0.17519 0.61486 0.43947 0.0
C270 C 0.24142 0.65014 0.46993 0.0
C271 C 0.23676 0.69836 0.46271 0.0
C272 C 0.20005 0.70439 0.44431 0.0
C273 C 0.16973 0.66306 0.43274 0.0
H274 H 0.49632 0.32877 0.81783 0.0
H275 H 0.63952 0.35777 0.85672 0.0
H276 H 0.5016 0.24104 0.81359 0.0
H277 H 0.64437 0.27019 0.85268 0.0
H278 H 0.66014 0.13495 0.80092 0.0
H279 H 0.65336 0.21786 0.81583 0.0
H280 H 0.50681 0.1624 0.8363 0.0
H281 H 0.51391 0.07894 0.82117 0.0
C282 C 0.52861 0.31641 0.82579 0.0
C283 C 0.56766 0.35051 0.83739 0.0
C284 C 0.53145 0.26602 0.82354 0.0
C285 C 0.5735 0.24868 0.83271 0.0
C286 C 0.6117 0.28246 0.84518 0.0
C287 C 0.60879 0.33271 0.84754 0.0
C288 C 0.62698 0.14032 0.80923 0.0
C289 C 0.58759 0.10076 0.80999 0.0
C290 C 0.62307 0.18774 0.81782 0.0
C291 C 0.57942 0.1968 0.82713 0.0
C292 C 0.54074 0.15661 0.82902 0.0
C293 C 0.54491 0.10885 0.82065 0.0
H294 H 0.55246 0.86201 0.5162 0.0
H295 H 0.70977 0.88563 0.52227 0.0
H296 H 0.54934 0.77363 0.52197 0.0
H297 H 0.70661 0.79704 0.52873 0.0
H298 H 0.6846 0.62749 0.52715 0.0
H299 H 0.68507 0.71171 0.51173 0.0
H300 H 0.56559 0.72543 0.55758 0.0
H301 H 0.56437 0.64174 0.57217 0.0
C302 C 0.58645 0.84836 0.5187 0.0
C303 C 0.63137 0.8811 0.51913 0.0
C304 C 0.58465 0.7976 0.52207 0.0
C305 C 0.62772 0.7782 0.52619 0.0
C306 C 0.67273 0.81058 0.52543 0.0
C307 C 0.67453 0.86147 0.52187 0.0
C308 C 0.65801 0.6484 0.53351 0.0
C309 C 0.62479 0.62829 0.55105 0.0
C310 C 0.65852 0.69671 0.52488 0.0
C311 C 0.62545 0.72549 0.53345 0.0
C312 C 0.59121 0.70435 0.55028 0.0
C313 C 0.59084 0.65646 0.5589 0.0
H314 H 0.86257 0.42735 0.78961 0.0
H315 H 0.88076 0.37458 0.86517 0.0
H316 H 0.94933 0.43448 0.78518 0.0
H317 H 0.96745 0.38545 0.86168 0.0
H318 H 0.1051 0.47456 0.87413 0.0
H319 H 1.04846 0.40499 0.85369 0.0
H320 H 0.99065 0.50774 0.80412 0.0
H321 H 1.04743 0.57562 0.82394 0.0
C322 C 0.88464 0.41499 0.8049 0.0
C323 C 0.86571 0.40389 0.82846 0.0
C324 C 0.9347 0.41961 0.80246 0.0
C325 C 0.96593 0.41536 0.82388 0.0
C326 C 0.94518 0.39174 0.84505 0.0
C327 C 0.89508 0.38579 0.84723 0.0
C328 C 1.08098 0.4817 0.85837 0.0
C329 C 1.07926 0.53061 0.85124 0.0
C330 C 1.04868 0.44186 0.84656 0.0
C331 C 1.01328 0.45051 0.8279 0.0
C332 C 1.01674 0.49884 0.81847 0.0
C333 C 1.04928 0.5384 0.83007 0.0
H334 H 0.28438 0.90567 0.16944 0.0
H335 H 0.35426 0.77861 0.18183 0.0
H336 H 0.36052 0.96076 0.18298 0.0
H337 H 0.43051 0.83389 0.1947 0.0
H338 H 0.57001 0.95176 0.19828 0.0
H339 H 0.49556 0.90083 0.17845 0.0
H340 H 0.40876 0.97661 0.22477 0.0
H341 H 0.48277 0.02722 0.2444 0.0
C342 C 0.31588 0.88944 0.17503 0.0
C343 C 0.31297 0.83762 0.17471 0.0
C344 C 0.35954 0.92104 0.18263 0.0
C345 C 0.40139 0.90158 0.18988 0.0
C346 C 0.399 0.84994 0.18887 0.0
C347 C 0.35524 0.81829 0.18148 0.0
C348 C 0.53491 0.95784 0.20388 0.0
C349 C 0.53196 0.9931 0.22291 0.0
C350 C 0.49245 0.92858 0.1927 0.0
C351 C 0.44643 0.93475 0.20012 0.0
C352 C 0.44365 0.97133 0.21851 0.0
C353 C 0.48596 1.00002 0.22986 0.0
H354 H 0.56002 0.18524 0.50014 0.0
H355 H 0.70824 0.21339 0.53284 0.0
H356 H 0.55737 0.27341 0.50374 0.0
H357 H 0.70511 0.30154 0.53684 0.0
H358 H 0.6951 0.46359 0.53141 0.0
H359 H 0.69843 0.3797 0.5154 0.0
H360 H 0.55405 0.32775 0.53989 0.0
H361 H 0.55096 0.41109 0.55549 0.0
C362 C 0.59221 0.2102 0.50793 0.0
C363 C 0.63412 0.19198 0.51655 0.0
C364 C 0.59061 0.26081 0.51002 0.0
C365 C 0.63086 0.29453 0.52076 0.0
C366 C 0.67359 0.27669 0.52826 0.0
C367 C 0.67521 0.226 0.52618 0.0
C368 C 0.66366 0.43437 0.53256 0.0
C369 C 0.62272 0.44353 0.54455 0.0
C370 C 0.6657 0.38633 0.5237 0.0
C371 C 0.62664 0.34691 0.52652 0.0
C372 C 0.58457 0.35718 0.53712 0.0
C373 C 0.58275 0.40488 0.54611 0.0
H374 H 0.27572 0.62255 0.77489 0.0
H375 H 0.39765 0.72436 0.81075 0.0
H376 H 0.22177 0.6773 0.78577 0.0
H377 H 0.34263 0.77925 0.82256 0.0
H378 H 0.23896 0.70621 0.88668 0.0
H379 H 0.2976 0.74174 0.85762 0.0
H380 H 0.18164 0.74345 0.8 0.0
H381 H 0.12253 0.70761 0.82952 0.0
C382 C 0.29161 0.65797 0.7839 0.0
C383 C 0.34038 0.66756 0.79348 0.0
C384 C 0.26039 0.68994 0.79018 0.0
C385 C 0.27748 0.73112 0.80662 0.0
C386 C 0.32809 0.7466 0.81084 0.0
C387 C 0.35952 0.71483 0.80429 0.0
C388 C 0.2256 0.71692 0.86835 0.0
C389 C 0.17666 0.70174 0.85985 0.0
C390 C 0.25939 0.7377 0.8515 0.0
C391 C 0.24446 0.74253 0.82591 0.0
C392 C 0.19437 0.73826 0.81931 0.0
C393 C 0.16053 0.71743 0.83618 0.0
H394 H 0.93348 0.19573 0.17585 0.0
H395 H 0.84494 0.30874 0.1646 0.0
H396 H 0.86434 0.14046 0.19174 0.0
H397 H 0.77656 0.25441 0.18162 0.0
H398 H 0.6501 0.13075 0.19477 0.0
H399 H 0.71731 0.17924 0.17374 0.0
H400 H 0.8199 0.1347 0.22922 0.0
H401 H 0.75304 0.08457 0.24947 0.0
C402 C 0.89918 0.20867 0.17658 0.0
C403 C 0.89487 0.25679 0.16907 0.0
C404 C 0.85969 0.17719 0.18598 0.0
C405 C 0.81497 0.19309 0.18814 0.0
C406 C 0.81031 0.24076 0.18003 0.0
C407 C 0.84975 0.27218 0.17057 0.0
C408 C 0.68706 0.1307 0.20221 0.0
C409 C 0.69618 0.10395 0.22387 0.0
C410 C 0.72555 0.15894 0.19033 0.0
C411 C 0.77403 0.16103 0.19983 0.0
C412 C 0.7831 0.13352 0.22121 0.0
C413 C 0.74469 0.10528 0.23304 0.0
H414 H 1.0411 0.61202 0.06515 0.0
H415 H 0.14971 0.51824 0.06232 0.0
H416 H 1.04889 0.6295 0.02047 0.0
H417 H 0.15772 0.53627 0.0176 0.0
H418 H 0.19417 0.62884 0.9462 0.0
H419 H 0.18723 0.61507 0.99155 0.0
H420 H 1.03079 0.57731 0.97894 0.0
H421 H 1.03785 0.59054 0.93374 0.0
C422 C 1.06655 0.59507 0.05498 0.0
C423 C 0.0947 0.56363 0.0672 0.0
C424 C 1.07093 0.60506 0.02943 0.0
C425 C 0.10408 0.58444 0.01571 0.0
C426 C 0.13226 0.55301 0.02788 0.0
C427 C 0.12733 0.54236 0.05336 0.0
C428 C 0.15839 0.61825 0.95328 0.0
C429 C 0.11652 0.61078 0.93667 0.0
C430 C 0.15443 0.60995 0.97907 0.0
C431 C 0.10849 0.59494 0.98862 0.0
C432 C 1.06658 0.58907 0.97205 0.0
C433 C 1.0706 0.59654 0.94627 0.0
H434 H 0.5631 0.06427 0.43715 0.0
H435 H 0.70079 0.01458 0.43688 0.0
H436 H 0.56146 0.07229 0.39159 0.0
H437 H 0.69749 0.01733 0.39097 0.0
H438 H 0.70161 0.06097 0.31026 0.0
H439 H 0.7055 0.06223 0.35584 0.0
H440 H 0.54793 0.03376 0.35378 0.0
H441 H 0.54432 0.03989 0.3086 0.0
C442 C 0.59257 0.05413 0.42708 0.0
C443 C 0.63195 0.0387 0.44025 0.0
C444 C 0.59158 0.05823 0.40088 0.0
C445 C 0.62914 0.04509 0.38713 0.0
C446 C 0.66835 0.02898 0.40062 0.0
C447 C 0.67013 0.02675 0.42695 0.0
C448 C 0.66772 0.05641 0.31947 0.0
C449 C 0.62262 0.0502 0.30535 0.0
C450 C 0.66993 0.05594 0.34585 0.0
C451 C 0.62706 0.0476 0.35894 0.0
C452 C 0.582 0.04124 0.34477 0.0
C453 C 0.57986 0.0435 0.31849 0.0
H454 H 0.51552 0.51681 0.74993 0.0
H455 H 0.66591 0.50036 0.76294 0.0
H456 H 0.52563 0.52175 0.70464 0.0
H457 H 0.67602 0.50603 0.7175 0.0
H458 H 0.67978 0.58248 0.63829 0.0
H459 H 0.67159 0.57552 0.68392 0.0
H460 H 0.54447 0.46102 0.66982 0.0
H461 H 0.55293 0.46763 0.62432 0.0
C462 C 0.55072 0.51429 0.74311 0.0
C463 C 0.58993 0.50816 0.75994 0.0
C464 C 0.55639 0.51692 0.71721 0.0
C465 C 0.60157 0.51429 0.70769 0.0
C466 C 0.6409 0.50841 0.72447 0.0
C467 C 0.63501 0.50489 0.75038 0.0
C468 C 0.65018 0.55588 0.64504 0.0
C469 C 0.617 0.52554 0.62793 0.0
C470 C 0.64569 0.55168 0.67103 0.0
C471 C 0.60743 0.51773 0.68026 0.0
C472 C 0.57414 0.4876 0.66312 0.0
C473 C 0.57912 0.4912 0.63719 0.0
H474 H 0.66511 0.96964 0.59978 0.0
H475 H 0.59615 0.0988 0.59972 0.0
H476 H 0.6574 0.96305 0.64542 0.0
H477 H 0.58991 0.09287 0.64548 0.0
H478 H 0.65461 0.08723 0.73115 0.0
H479 H 0.66375 0.0939 0.68585 0.0
H480 H 0.57047 0.95138 0.67273 0.0
H481 H 0.55823 0.94563 0.71778 0.0
C482 C 0.64881 0.99686 0.60956 0.0
C483 C 0.6312 0.03474 0.59629 0.0
C484 C 0.64426 0.99292 0.63555 0.0
C485 C 0.62315 0.0275 0.64871 0.0
C486 C 0.60644 0.06595 0.6356 0.0
C487 C 0.60989 0.0692 0.60951 0.0
C488 C 0.63527 0.05757 0.71869 0.0
C489 C 0.60534 0.01599 0.72828 0.0
C490 C 0.64094 0.06134 0.6928 0.0
C491 C 0.61783 0.02312 0.67606 0.0
C492 C 0.58889 0.98109 0.68546 0.0
C493 C 0.58226 0.97776 0.71128 0.0
H494 H 0.51802 0.44405 0.9183 0.0
H495 H 0.59725 0.59434 0.9168 0.0
H496 H 0.52076 0.44971 0.96438 0.0
H497 H 0.59781 0.60125 0.96248 0.0
H498 H 0.64537 0.58013 0.04351 0.0
H499 H 0.63752 0.57372 -0.00217 0.0
H500 H 0.49411 0.48409 0.00072 0.0
H501 H 0.50376 0.48707 0.04662 0.0
C502 C 0.53514 0.47858 0.92784 0.0
C503 C 0.55788 0.51854 0.91409 0.0
C504 C 0.53661 0.48199 0.95423 0.0
C505 C 0.56013 0.52577 0.9673 0.0
C506 C 0.5807 0.56644 0.95323 0.0
C507 C 0.58005 0.56266 0.927 0.0
C508 C 0.61242 0.55839 0.03448 0.0
C509 C 0.57533 0.53398 0.04887 0.0
C510 C 0.6075 0.55542 0.00815 0.0
C511 C 0.56494 0.5287 -0.00458 0.0
C512 C 0.5276 0.5046 0.0098 0.0
C513 C 0.53285 0.50696 0.03619 0.0
H514 H 0.15113 0.60872 0.22963 0.0
H515 H 1.05148 0.4682 0.22351 0.0
H516 H 0.1544 0.6042 0.27541 0.0
H517 H 1.05561 0.46327 0.26942 0.0
H518 H 1.03476 0.50163 0.35261 0.0
H519 H 1.03064 0.50338 0.30654 0.0
H520 H 0.18592 0.55702 0.30885 0.0
H521 H 0.18989 0.55554 0.35481 0.0
C522 C 0.13009 0.57672 0.23803 0.0
C523 C 0.10106 0.53881 0.22289 0.0
C524 C 0.1322 0.574 0.2643 0.0
C525 C 0.10541 0.53329 0.27607 0.0
C526 C 1.07628 0.49539 0.26094 0.0
C527 C 1.07413 0.49811 0.23463 0.0
C528 C 1.06803 0.51334 0.34323 0.0
C529 C 0.1126 0.52874 0.35731 0.0
C530 C 1.0657 0.5143 0.31685 0.0
C531 C 0.10792 0.53061 0.30404 0.0
C532 C 0.15258 0.54519 0.31816 0.0
C533 C 0.15488 0.54431 0.34448 0.0
loop_
_geom_bond_atom_site_label_1
_geom_bond_atom_site_label_2
_geom_bond_distance
_geom_bond_site_symmetry_2
_ccdc_geom_bond_type
Dy0 O3 2.307 1_455 S
Dy0 O5 2.395 . S
Dy0 O6 2.379 . S
Dy0 O8 2.339 . S
Dy0 O10 2.298 . S
Dy0 O14 2.275 . S
Dy0 C22 2.738 . S
Dy1 O4 2.298 . S
Dy1 O7 2.275 1_655 S
Dy1 O9 2.307 1_655 S
Dy1 O11 2.395 . S
Dy1 O12 2.379 . S
Dy1 O15 2.339 . S
Dy1 C31 2.738 . S
C2 O14 1.254 . S
C2 O15 1.257 1_455 S
O3 Dy0 2.307 1_655 S
O3 C13 1.266 . S
O4 Dy1 2.298 . S
O4 C13 1.236 . S
O5 Dy0 2.395 . S
O5 C22 1.255 . S
O6 Dy0 2.379 . S
O6 C22 1.249 . S
O7 Dy1 2.275 1_455 S
O7 C23 1.254 . S
O8 Dy0 2.339 . S
O8 C23 1.257 . S
O9 Dy1 2.307 1_455 S
O9 C24 1.266 . S
O10 Dy0 2.298 . S
O10 C24 1.236 . S
O11 Dy1 2.395 . S
O11 C31 1.255 . S
O12 Dy1 2.379 . S
O12 C31 1.249 . S
C13 O3 1.266 . S
C13 O4 1.236 . S
O14 Dy0 2.275 . S
O14 C2 1.254 . S
O15 Dy1 2.339 . S
O15 C2 1.257 1_655 S
C16 C19 1.344 . S
C16 C20 1.328 . S
C16 C22 1.516 . S
C17 C18 1.304 . S
C17 C21 1.323 . S
C18 C17 1.304 . S
C18 C19 1.371 . S
C18 H32 0.930 . S
C19 C16 1.344 . S
C19 C18 1.371 . S
C19 H33 0.931 . S
C20 C16 1.328 . S
C20 C21 1.433 . S
C20 H34 0.931 . S
C21 C17 1.323 . S
C21 C20 1.433 . S
C21 H35 0.933 . S
C22 Dy0 2.738 . S
C22 O5 1.255 . S
C22 O6 1.249 . S
C22 C16 1.516 . S
C23 O7 1.254 . S
C23 O8 1.257 . S
C24 O9 1.266 . S
C24 O10 1.236 . S
C25 C28 1.344 . S
C25 C29 1.328 . S
C25 C31 1.516 . S
C26 C27 1.304 . S
C26 C30 1.323 . S
C27 C26 1.304 . S
C27 C28 1.371 . S
C27 H36 0.930 . S
C28 C25 1.344 . S
C28 C27 1.371 . S
C28 H37 0.931 . S
C29 C25 1.328 . S
C29 C30 1.433 . S
C29 H38 0.931 . S
C30 C26 1.323 . S
C30 C29 1.433 . S
C30 H39 0.933 . S
C31 Dy1 2.738 . S
C31 O11 1.255 . S
C31 O12 1.249 . S
C31 C25 1.516 . S
H32 C18 0.930 . S
H33 C19 0.931 . S
H34 C20 0.931 . S
H35 C21 0.933 . S
H36 C27 0.930 . S
H37 C28 0.931 . S
H38 C29 0.931 . S
H39 C30 0.933 . S
Dy40 O43 2.307 1_565 S
Dy40 O45 2.395 . S
Dy40 O46 2.379 . S
Dy40 O48 2.339 1_565 S
Dy40 O50 2.298 . S
Dy40 O54 2.275 1_565 S
Dy40 C62 2.738 . S
Dy41 O44 2.298 . S
Dy41 O47 2.275 . S
Dy41 O49 2.307 1_545 S
Dy41 O51 2.395 . S
Dy41 O52 2.379 . S
Dy41 O55 2.339 . S
Dy41 C71 2.738 . S
C42 O54 1.254 . S
C42 O55 1.257 . S
O43 Dy40 2.307 1_545 S
O43 C53 1.266 . S
O44 Dy41 2.298 . S
O44 C53 1.236 . S
O45 Dy40 2.395 . S
O45 C62 1.255 . S
O46 Dy40 2.379 . S
O46 C62 1.249 . S
O47 Dy41 2.275 . S
O47 C63 1.254 . S
O48 Dy40 2.339 1_545 S
O48 C63 1.257 . S
O49 Dy41 2.307 1_565 S
O49 C64 1.266 . S
O50 Dy40 2.298 . S
O50 C64 1.236 . S
O51 Dy41 2.395 . S
O51 C71 1.255 . S
O52 Dy41 2.379 . S
O52 C71 1.249 . S
C53 O43 1.266 . S
C53 O44 1.236 . S
O54 Dy40 2.275 1_545 S
O54 C42 1.254 . S
O55 Dy41 2.339 . S
O55 C42 1.257 . S
C56 C59 1.344 . S
C56 C60 1.328 . S
C56 C62 1.516 . S
C57 C58 1.304 . S
C57 C61 1.323 . S
C58 C57 1.304 . S
C58 C59 1.371 . S
C58 H72 0.930 . S
C59 C56 1.344 . S
C59 C58 1.371 . S
C59 H73 0.931 . S
C60 C56 1.328 . S
C60 C61 1.433 . S
C60 H74 0.931 . S
C61 C57 1.323 . S
C61 C60 1.433 . S
C61 H75 0.933 . S
C62 Dy40 2.738 . S
C62 O45 1.255 . S
C62 O46 1.249 . S
C62 C56 1.516 . S
C63 O47 1.254 . S
C63 O48 1.257 . S
C64 O49 1.266 . S
C64 O50 1.236 . S
C65 C68 1.344 . S
C65 C69 1.328 . S
C65 C71 1.516 . S
C66 C67 1.304 . S
C66 C70 1.323 . S
C67 C66 1.304 . S
C67 C68 1.371 . S
C67 H76 0.930 . S
C68 C65 1.344 . S
C68 C67 1.371 . S
C68 H77 0.931 . S
C69 C65 1.328 . S
C69 C70 1.433 . S
C69 H78 0.931 . S
C70 C66 1.323 . S
C70 C69 1.433 . S
C70 H79 0.933 . S
C71 Dy41 2.738 . S
C71 O51 1.255 . S
C71 O52 1.249 . S
C71 C65 1.516 . S
H72 C58 0.930 . S
H73 C59 0.931 . S
H74 C60 0.931 . S
H75 C61 0.933 . S
H76 C67 0.930 . S
H77 C68 0.931 . S
H78 C69 0.931 . S
H79 C70 0.933 . S
Dy80 O83 2.307 . S
Dy80 O85 2.395 . S
Dy80 O86 2.379 . S
Dy80 O88 2.339 . S
Dy80 O90 2.298 . S
Dy80 O94 2.275 . S
Dy80 C102 2.738 . S
Dy81 O84 2.298 . S
Dy81 O87 2.275 . S
Dy81 O89 2.307 . S
Dy81 O91 2.395 . S
Dy81 O92 2.379 . S
Dy81 O95 2.339 . S
Dy81 C111 2.738 . S
C82 O94 1.254 . S
C82 O95 1.257 . S
O83 Dy80 2.307 . S
O83 C93 1.266 . S
O84 Dy81 2.298 . S
O84 C93 1.236 . S
O85 Dy80 2.395 . S
O85 C102 1.255 . S
O86 Dy80 2.379 . S
O86 C102 1.249 . S
O87 Dy81 2.275 . S
O87 C103 1.254 . S
O88 Dy80 2.339 . S
O88 C103 1.257 . S
O89 Dy81 2.307 . S
O89 C104 1.266 . S
O90 Dy80 2.298 . S
O90 C104 1.236 . S
O91 Dy81 2.395 . S
O91 C111 1.255 . S
O92 Dy81 2.379 . S
O92 C111 1.249 . S
C93 O83 1.266 . S
C93 O84 1.236 . S
O94 Dy80 2.275 . S
O94 C82 1.254 . S
O95 Dy81 2.339 . S
O95 C82 1.257 . S
C96 C99 1.344 . S
C96 C100 1.328 . S
C96 C102 1.516 . S
C97 C98 1.304 . S
C97 C101 1.323 . S
C98 C97 1.304 . S
C98 C99 1.371 . S
C98 H112 0.930 . S
C99 C96 1.344 . S
C99 C98 1.371 . S
C99 H113 0.931 . S
C100 C96 1.328 . S
C100 C101 1.433 . S
C100 H114 0.931 . S
C101 C97 1.323 . S
C101 C100 1.433 . S
C101 H115 0.933 . S
C102 Dy80 2.738 . S
C102 O85 1.255 . S
C102 O86 1.249 . S
C102 C96 1.516 . S
C103 O87 1.254 . S
C103 O88 1.257 . S
C104 O89 1.266 . S
C104 O90 1.236 . S
C105 C108 1.344 . S
C105 C109 1.328 . S
C105 C111 1.516 . S
C106 C107 1.304 . S
C106 C110 1.323 . S
C107 C106 1.304 . S
C107 C108 1.371 . S
C107 H116 0.930 . S
C108 C105 1.344 . S
C108 C107 1.371 . S
C108 H117 0.931 . S
C109 C105 1.328 . S
C109 C110 1.433 . S
C109 H118 0.931 . S
C110 C106 1.323 . S
C110 C109 1.433 . S
C110 H119 0.933 . S
C111 Dy81 2.738 . S
C111 O91 1.255 . S
C111 O92 1.249 . S
C111 C105 1.516 . S
H112 C98 0.930 . S
H113 C99 0.931 . S
H114 C100 0.931 . S
H115 C101 0.933 . S
H116 C107 0.930 . S
H117 C108 0.931 . S
H118 C109 0.931 . S
H119 C110 0.933 . S
H120 C123 0.931 1_565 S
H121 C126 0.928 . S
H122 C128 0.930 . S
C123 H120 0.931 1_545 S
C123 C124 1.413 . S
C123 C125 1.360 . S
C124 C123 1.413 . S
C124 C128 1.429 . S
C125 C123 1.360 . S
C125 C126 1.372 . S
C126 H121 0.928 . S
C126 C125 1.372 . S
C126 C127 1.404 . S
C127 C126 1.404 . S
C127 C128 1.391 . S
C128 H122 0.930 . S
C128 C124 1.429 . S
C128 C127 1.391 . S
H129 C132 0.931 . S
H130 C135 0.928 . S
H131 C137 0.930 . S
C132 H129 0.931 . S
C132 C133 1.413 . S
C132 C134 1.360 . S
C133 C132 1.413 . S
C133 C137 1.429 . S
C134 C132 1.360 . S
C134 C135 1.372 . S
C135 H130 0.928 . S
C135 C134 1.372 . S
C135 C136 1.404 . S
C136 C135 1.404 . S
C136 C137 1.391 . S
C137 H131 0.930 . S
C137 C133 1.429 . S
C137 C136 1.391 . S
H138 C141 0.931 . S
H139 C144 0.928 . S
H140 C146 0.930 . S
C141 H138 0.931 . S
C141 C142 1.413 . S
C141 C143 1.360 1_655 S
C142 C141 1.413 . S
C142 C146 1.429 1_655 S
C143 C141 1.360 1_455 S
C143 C144 1.372 . S
C144 H139 0.928 . S
C144 C143 1.372 . S
C144 C145 1.404 . S
C145 C144 1.404 . S
C145 C146 1.391 . S
C146 H140 0.930 . S
C146 C142 1.429 1_455 S
C146 C145 1.391 . S
H147 C150 0.931 . S
H148 C153 0.928 . S
H149 C155 0.930 . S
C150 H147 0.931 . S
C150 C151 1.413 . S
C150 C152 1.360 1_655 S
C151 C150 1.413 . S
C151 C155 1.429 1_655 S
C152 C150 1.360 1_455 S
C152 C153 1.372 . S
C153 H148 0.928 . S
C153 C152 1.372 . S
C153 C154 1.404 . S
C154 C153 1.404 . S
C154 C155 1.391 . S
C155 H149 0.930 . S
C155 C151 1.429 1_455 S
C155 C154 1.391 . S
H156 C159 0.931 . S
H157 C162 0.928 . S
H158 C164 0.930 . S
C159 H156 0.931 . S
C159 C160 1.413 . S
C159 C161 1.360 . S
C160 C159 1.413 . S
C160 C164 1.429 . S
C161 C159 1.360 . S
C161 C162 1.372 1_545 S
C162 H157 0.928 . S
C162 C161 1.372 1_565 S
C162 C163 1.404 . S
C163 C162 1.404 . S
C163 C164 1.391 1_565 S
C164 H158 0.930 . S
C164 C160 1.429 . S
C164 C163 1.391 1_545 S
H165 C168 0.931 . S
H166 C171 0.928 . S
H167 C173 0.930 . S
C168 H165 0.931 . S
C168 C169 1.413 . S
C168 C170 1.360 . S
C169 C168 1.413 . S
C169 C173 1.429 . S
C170 C168 1.360 . S
C170 C171 1.372 . S
C171 H166 0.928 . S
C171 C170 1.372 . S
C171 C172 1.404 . S
C172 C171 1.404 . S
C172 C173 1.391 . S
C173 H167 0.930 . S
C173 C169 1.429 . S
C173 C172 1.391 . S
H174 C182 0.950 . S
H175 C187 0.950 . S
H176 C184 0.950 . S
H177 C186 0.950 . S
H178 C188 0.950 . S
H179 C190 0.950 . S
H180 C192 0.950 . S
H181 C193 0.950 . S
C182 H174 0.950 . S
C182 C183 1.386 . S
C182 C184 1.391 . S
C183 C182 1.386 . S
C183 C187 1.393 . S
C184 H176 0.950 . S
C184 C182 1.391 . S
C184 C185 1.400 . S
C185 C184 1.400 . S
C185 C186 1.398 . S
C185 C191 1.491 . S
C186 H177 0.950 . S
C186 C185 1.398 . S
C186 C187 1.391 . S
C187 H175 0.950 . S
C187 C183 1.393 . S
C187 C186 1.391 . S
C188 H178 0.950 . S
C188 C189 1.386 . S
C188 C190 1.391 . S
C189 C188 1.386 . S
C189 C193 1.393 . S
C190 H179 0.950 . S
C190 C188 1.391 . S
C190 C191 1.400 . S
C191 C185 1.491 . S
C191 C190 1.400 . S
C191 C192 1.398 . S
C192 H180 0.950 . S
C192 C191 1.398 . S
C192 C193 1.391 . S
C193 H181 0.950 . S
C193 C189 1.393 . S
C193 C192 1.391 . S
H194 C202 0.950 . S
H195 C207 0.950 . S
H196 C204 0.950 . S
H197 C206 0.950 . S
H198 C208 0.950 . S
H199 C210 0.950 . S
H200 C212 0.950 . S
H201 C213 0.950 . S
C202 H194 0.950 . S
C202 C203 1.386 . S
C202 C204 1.391 . S
C203 C202 1.386 . S
C203 C207 1.393 . S
C204 H196 0.950 . S
C204 C202 1.391 . S
C204 C205 1.400 . S
C205 C204 1.400 . S
C205 C206 1.398 . S
C205 C211 1.491 . S
C206 H197 0.950 . S
C206 C205 1.398 . S
C206 C207 1.391 . S
C207 H195 0.950 . S
C207 C203 1.393 . S
C207 C206 1.391 . S
C208 H198 0.950 . S
C208 C209 1.386 . S
C208 C210 1.391 . S
C209 C208 1.386 . S
C209 C213 1.393 . S
C210 H199 0.950 . S
C210 C208 1.391 . S
C210 C211 1.400 . S
C211 C205 1.491 . S
C211 C210 1.400 . S
C211 C212 1.398 . S
C212 H200 0.950 . S
C212 C211 1.398 . S
C212 C213 1.391 . S
C213 H201 0.950 . S
C213 C209 1.393 . S
C213 C212 1.391 . S
H214 C222 0.950 . S
H215 C227 0.950 . S
H216 C224 0.950 . S
H217 C226 0.950 . S
H218 C228 0.950 . S
H219 C230 0.950 . S
H220 C232 0.950 . S
H221 C233 0.950 . S
C222 H214 0.950 . S
C222 C223 1.386 . S
C222 C224 1.391 . S
C223 C222 1.386 . S
C223 C227 1.393 . S
C224 H216 0.950 . S
C224 C222 1.391 . S
C224 C225 1.400 . S
C225 C224 1.400 . S
C225 C226 1.398 . S
C225 C231 1.491 . S
C226 H217 0.950 . S
C226 C225 1.398 . S
C226 C227 1.391 . S
C227 H215 0.950 . S
C227 C223 1.393 . S
C227 C226 1.391 . S
C228 H218 0.950 . S
C228 C229 1.386 . S
C228 C230 1.391 . S
C229 C228 1.386 . S
C229 C233 1.393 . S
C230 H219 0.950 . S
C230 C228 1.391 . S
C230 C231 1.400 . S
C231 C225 1.491 . S
C231 C230 1.400 . S
C231 C232 1.398 . S
C232 H220 0.950 . S
C232 C231 1.398 . S
C232 C233 1.391 . S
C233 H221 0.950 . S
C233 C229 1.393 . S
C233 C232 1.391 . S
H234 C242 0.950 . S
H235 C247 0.950 . S
H236 C244 0.950 . S
H237 C246 0.950 . S
H238 C248 0.950 . S
H239 C250 0.950 . S
H240 C252 0.950 . S
H241 C253 0.950 . S
C242 H234 0.950 . S
C242 C243 1.386 . S
C242 C244 1.391 . S
C243 C242 1.386 . S
C243 C247 1.393 . S
C244 H236 0.950 . S
C244 C242 1.391 . S
C244 C245 1.400 . S
C245 C244 1.400 . S
C245 C246 1.398 . S
C245 C251 1.491 . S
C246 H237 0.950 . S
C246 C245 1.398 . S
C246 C247 1.391 . S
C247 H235 0.950 . S
C247 C243 1.393 . S
C247 C246 1.391 . S
C248 H238 0.950 . S
C248 C249 1.386 . S
C248 C250 1.391 . S
C249 C248 1.386 . S
C249 C253 1.393 . S
C250 H239 0.950 . S
C250 C248 1.391 . S
C250 C251 1.400 . S
C251 C245 1.491 . S
C251 C250 1.400 . S
C251 C252 1.398 . S
C252 H240 0.950 . S
C252 C251 1.398 . S
C252 C253 1.391 . S
C253 H241 0.950 . S
C253 C249 1.393 . S
C253 C252 1.391 . S
H254 C262 0.950 . S
H255 C267 0.950 . S
H256 C264 0.950 . S
H257 C266 0.950 . S
H258 C268 0.950 . S
H259 C270 0.950 . S
H260 C272 0.950 . S
H261 C273 0.950 . S
C262 H254 0.950 . S
C262 C263 1.386 . S
C262 C264 1.391 . S
C263 C262 1.386 . S
C263 C267 1.393 . S
C264 H256 0.950 . S
C264 C262 1.391 . S
C264 C265 1.400 . S
C265 C264 1.400 . S
C265 C266 1.398 . S
C265 C271 1.491 . S
C266 H257 0.950 . S
C266 C265 1.398 . S
C266 C267 1.391 . S
C267 H255 0.950 . S
C267 C263 1.393 . S
C267 C266 1.391 . S
C268 H258 0.950 . S
C268 C269 1.386 . S
C268 C270 1.391 . S
C269 C268 1.386 . S
C269 C273 1.393 . S
C270 H259 0.950 . S
C270 C268 1.391 . S
C270 C271 1.400 . S
C271 C265 1.491 . S
C271 C270 1.400 . S
C271 C272 1.398 . S
C272 H260 0.950 . S
C272 C271 1.398 . S
C272 C273 1.391 . S
C273 H261 0.950 . S
C273 C269 1.393 . S
C273 C272 1.391 . S
H274 C282 0.950 . S
H275 C287 0.950 . S
H276 C284 0.950 . S
H277 C286 0.950 . S
H278 C288 0.950 . S
H279 C290 0.950 . S
H280 C292 0.950 . S
H281 C293 0.950 . S
C282 H274 0.950 . S
C282 C283 1.386 . S
C282 C284 1.391 . S
C283 C282 1.386 . S
C283 C287 1.393 . S
C284 H276 0.950 . S
C284 C282 1.391 . S
C284 C285 1.400 . S
C285 C284 1.400 . S
C285 C286 1.398 . S
C285 C291 1.491 . S
C286 H277 0.950 . S
C286 C285 1.398 . S
C286 C287 1.391 . S
C287 H275 0.950 . S
C287 C283 1.393 . S
C287 C286 1.391 . S
C288 H278 0.950 . S
C288 C289 1.386 . S
C288 C290 1.391 . S
C289 C288 1.386 . S
C289 C293 1.393 . S
C290 H279 0.950 . S
C290 C288 1.391 . S
C290 C291 1.400 . S
C291 C285 1.491 . S
C291 C290 1.400 . S
C291 C292 1.398 . S
C292 H280 0.950 . S
C292 C291 1.398 . S
C292 C293 1.391 . S
C293 H281 0.950 . S
C293 C289 1.393 . S
C293 C292 1.391 . S
H294 C302 0.950 . S
H295 C307 0.950 . S
H296 C304 0.950 . S
H297 C306 0.950 . S
H298 C308 0.950 . S
H299 C310 0.950 . S
H300 C312 0.950 . S
H301 C313 0.950 . S
C302 H294 0.950 . S
C302 C303 1.386 . S
C302 C304 1.391 . S
C303 C302 1.386 . S
C303 C307 1.393 . S
C304 H296 0.950 . S
C304 C302 1.391 . S
C304 C305 1.400 . S
C305 C304 1.400 . S
C305 C306 1.398 . S
C305 C311 1.491 . S
C306 H297 0.950 . S
C306 C305 1.398 . S
C306 C307 1.391 . S
C307 H295 0.950 . S
C307 C303 1.393 . S
C307 C306 1.391 . S
C308 H298 0.950 . S
C308 C309 1.386 . S
C308 C310 1.391 . S
C309 C308 1.386 . S
C309 C313 1.393 . S
C310 H299 0.950 . S
C310 C308 1.391 . S
C310 C311 1.400 . S
C311 C305 1.491 . S
C311 C310 1.400 . S
C311 C312 1.398 . S
C312 H300 0.950 . S
C312 C311 1.398 . S
C312 C313 1.391 . S
C313 H301 0.950 . S
C313 C309 1.393 . S
C313 C312 1.391 . S
H314 C322 0.950 . S
H315 C327 0.950 . S
H316 C324 0.950 . S
H317 C326 0.950 . S
H318 C328 0.950 . S
H319 C330 0.950 . S
H320 C332 0.950 . S
H321 C333 0.950 . S
C322 H314 0.950 . S
C322 C323 1.386 . S
C322 C324 1.391 . S
C323 C322 1.386 . S
C323 C327 1.393 . S
C324 H316 0.950 . S
C324 C322 1.391 . S
C324 C325 1.400 . S
C325 C324 1.400 . S
C325 C326 1.398 . S
C325 C331 1.491 . S
C326 H317 0.950 . S
C326 C325 1.398 . S
C326 C327 1.391 . S
C327 H315 0.950 . S
C327 C323 1.393 . S
C327 C326 1.391 . S
C328 H318 0.950 . S
C328 C329 1.386 . S
C328 C330 1.391 . S
C329 C328 1.386 . S
C329 C333 1.393 . S
C330 H319 0.950 . S
C330 C328 1.391 . S
C330 C331 1.400 . S
C331 C325 1.491 . S
C331 C330 1.400 . S
C331 C332 1.398 . S
C332 H320 0.950 . S
C332 C331 1.398 . S
C332 C333 1.391 . S
C333 H321 0.950 . S
C333 C329 1.393 . S
C333 C332 1.391 . S
H334 C342 0.950 . S
H335 C347 0.950 . S
H336 C344 0.950 . S
H337 C346 0.950 . S
H338 C348 0.950 . S
H339 C350 0.950 . S
H340 C352 0.950 . S
H341 C353 0.950 1_545 S
C342 H334 0.950 . S
C342 C343 1.386 . S
C342 C344 1.391 . S
C343 C342 1.386 . S
C343 C347 1.393 . S
C344 H336 0.950 . S
C344 C342 1.391 . S
C344 C345 1.400 . S
C345 C344 1.400 . S
C345 C346 1.398 . S
C345 C351 1.491 . S
C346 H337 0.950 . S
C346 C345 1.398 . S
C346 C347 1.391 . S
C347 H335 0.950 . S
C347 C343 1.393 . S
C347 C346 1.391 . S
C348 H338 0.950 . S
C348 C349 1.386 . S
C348 C350 1.391 . S
C349 C348 1.386 . S
C349 C353 1.393 . S
C350 H339 0.950 . S
C350 C348 1.391 . S
C350 C351 1.400 . S
C351 C345 1.491 . S
C351 C350 1.400 . S
C351 C352 1.398 . S
C352 H340 0.950 . S
C352 C351 1.398 . S
C352 C353 1.391 . S
C353 H341 0.950 1_565 S
C353 C349 1.393 . S
C353 C352 1.391 . S
H354 C362 0.950 . S
H355 C367 0.950 . S
H356 C364 0.950 . S
H357 C366 0.950 . S
H358 C368 0.950 . S
H359 C370 0.950 . S
H360 C372 0.950 . S
H361 C373 0.950 . S
C362 H354 0.950 . S
C362 C363 1.386 . S
C362 C364 1.391 . S
C363 C362 1.386 . S
C363 C367 1.393 . S
C364 H356 0.950 . S
C364 C362 1.391 . S
C364 C365 1.400 . S
C365 C364 1.400 . S
C365 C366 1.398 . S
C365 C371 1.491 . S
C366 H357 0.950 . S
C366 C365 1.398 . S
C366 C367 1.391 . S
C367 H355 0.950 . S
C367 C363 1.393 . S
C367 C366 1.391 . S
C368 H358 0.950 . S
C368 C369 1.386 . S
C368 C370 1.391 . S
C369 C368 1.386 . S
C369 C373 1.393 . S
C370 H359 0.950 . S
C370 C368 1.391 . S
C370 C371 1.400 . S
C371 C365 1.491 . S
C371 C370 1.400 . S
C371 C372 1.398 . S
C372 H360 0.950 . S
C372 C371 1.398 . S
C372 C373 1.391 . S
C373 H361 0.950 . S
C373 C369 1.393 . S
C373 C372 1.391 . S
H374 C382 0.950 . S
H375 C387 0.950 . S
H376 C384 0.950 . S
H377 C386 0.950 . S
H378 C388 0.950 . S
H379 C390 0.950 . S
H380 C392 0.950 . S
H381 C393 0.950 . S
C382 H374 0.950 . S
C382 C383 1.386 . S
C382 C384 1.391 . S
C383 C382 1.386 . S
C383 C387 1.393 . S
C384 H376 0.950 . S
C384 C382 1.391 . S
C384 C385 1.400 . S
C385 C384 1.400 . S
C385 C386 1.398 . S
C385 C391 1.491 . S
C386 H377 0.950 . S
C386 C385 1.398 . S
C386 C387 1.391 . S
C387 H375 0.950 . S
C387 C383 1.393 . S
C387 C386 1.391 . S
C388 H378 0.950 . S
C388 C389 1.386 . S
C388 C390 1.391 . S
C389 C388 1.386 . S
C389 C393 1.393 . S
C390 H379 0.950 . S
C390 C388 1.391 . S
C390 C391 1.400 . S
C391 C385 1.491 . S
C391 C390 1.400 . S
C391 C392 1.398 . S
C392 H380 0.950 . S
C392 C391 1.398 . S
C392 C393 1.391 . S
C393 H381 0.950 . S
C393 C389 1.393 . S
C393 C392 1.391 . S
H394 C402 0.950 . S
H395 C407 0.950 . S
H396 C404 0.950 . S
H397 C406 0.950 . S
H398 C408 0.950 . S
H399 C410 0.950 . S
H400 C412 0.950 . S
H401 C413 0.950 . S
C402 H394 0.950 . S
C402 C403 1.386 . S
C402 C404 1.391 . S
C403 C402 1.386 . S
C403 C407 1.393 . S
C404 H396 0.950 . S
C404 C402 1.391 . S
C404 C405 1.400 . S
C405 C404 1.400 . S
C405 C406 1.398 . S
C405 C411 1.491 . S
C406 H397 0.950 . S
C406 C405 1.398 . S
C406 C407 1.391 . S
C407 H395 0.950 . S
C407 C403 1.393 . S
C407 C406 1.391 . S
C408 H398 0.950 . S
C408 C409 1.386 . S
C408 C410 1.391 . S
C409 C408 1.386 . S
C409 C413 1.393 . S
C410 H399 0.950 . S
C410 C408 1.391 . S
C410 C411 1.400 . S
C411 C405 1.491 . S
C411 C410 1.400 . S
C411 C412 1.398 . S
C412 H400 0.950 . S
C412 C411 1.398 . S
C412 C413 1.391 . S
C413 H401 0.950 . S
C413 C409 1.393 . S
C413 C412 1.391 . S
H414 C422 0.950 . S
H415 C427 0.950 . S
H416 C424 0.950 . S
H417 C426 0.950 . S
H418 C428 0.950 . S
H419 C430 0.950 . S
H420 C432 0.950 1_554 S
H421 C433 0.950 . S
C422 H414 0.950 . S
C422 C423 1.386 1_655 S
C422 C424 1.391 . S
C423 C422 1.386 1_455 S
C423 C427 1.393 . S
C424 H416 0.950 . S
C424 C422 1.391 . S
C424 C425 1.400 1_655 S
C425 C424 1.400 1_455 S
C425 C426 1.398 . S
C425 C431 1.491 . S
C426 H417 0.950 . S
C426 C425 1.398 . S
C426 C427 1.391 . S
C427 H415 0.950 . S
C427 C423 1.393 . S
C427 C426 1.391 . S
C428 H418 0.950 . S
C428 C429 1.386 . S
C428 C430 1.391 1_556 S
C429 C428 1.386 . S
C429 C433 1.393 1_455 S
C430 H419 0.950 . S
C430 C428 1.391 1_554 S
C430 C431 1.400 . S
C431 C425 1.491 . S
C431 C430 1.400 . S
C431 C432 1.398 1_454 S
C432 H420 0.950 1_556 S
C432 C431 1.398 1_656 S
C432 C433 1.391 . S
C433 H421 0.950 . S
C433 C429 1.393 1_655 S
C433 C432 1.391 . S
H434 C442 0.950 . S
H435 C447 0.950 . S
H436 C444 0.950 . S
H437 C446 0.950 . S
H438 C448 0.950 . S
H439 C450 0.950 . S
H440 C452 0.950 . S
H441 C453 0.950 . S
C442 H434 0.950 . S
C442 C443 1.386 . S
C442 C444 1.391 . S
C443 C442 1.386 . S
C443 C447 1.393 . S
C444 H436 0.950 . S
C444 C442 1.391 . S
C444 C445 1.400 . S
C445 C444 1.400 . S
C445 C446 1.398 . S
C445 C451 1.491 . S
C446 H437 0.950 . S
C446 C445 1.398 . S
C446 C447 1.391 . S
C447 H435 0.950 . S
C447 C443 1.393 . S
C447 C446 1.391 . S
C448 H438 0.950 . S
C448 C449 1.386 . S
C448 C450 1.391 . S
C449 C448 1.386 . S
C449 C453 1.393 . S
C450 H439 0.950 . S
C450 C448 1.391 . S
C450 C451 1.400 . S
C451 C445 1.491 . S
C451 C450 1.400 . S
C451 C452 1.398 . S
C452 H440 0.950 . S
C452 C451 1.398 . S
C452 C453 1.391 . S
C453 H441 0.950 . S
C453 C449 1.393 . S
C453 C452 1.391 . S
H454 C462 0.950 . S
H455 C467 0.950 . S
H456 C464 0.950 . S
H457 C466 0.950 . S
H458 C468 0.950 . S
H459 C470 0.950 . S
H460 C472 0.950 . S
H461 C473 0.950 . S
C462 H454 0.950 . S
C462 C463 1.386 . S
C462 C464 1.391 . S
C463 C462 1.386 . S
C463 C467 1.393 . S
C464 H456 0.950 . S
C464 C462 1.391 . S
C464 C465 1.400 . S
C465 C464 1.400 . S
C465 C466 1.398 . S
C465 C471 1.491 . S
C466 H457 0.950 . S
C466 C465 1.398 . S
C466 C467 1.391 . S
C467 H455 0.950 . S
C467 C463 1.393 . S
C467 C466 1.391 . S
C468 H458 0.950 . S
C468 C469 1.386 . S
C468 C470 1.391 . S
C469 C468 1.386 . S
C469 C473 1.393 . S
C470 H459 0.950 . S
C470 C468 1.391 . S
C470 C471 1.400 . S
C471 C465 1.491 . S
C471 C470 1.400 . S
C471 C472 1.398 . S
C472 H460 0.950 . S
C472 C471 1.398 . S
C472 C473 1.391 . S
C473 H461 0.950 . S
C473 C469 1.393 . S
C473 C472 1.391 . S
H474 C482 0.950 . S
H475 C487 0.950 . S
H476 C484 0.950 . S
H477 C486 0.950 . S
H478 C488 0.950 . S
H479 C490 0.950 . S
H480 C492 0.950 . S
H481 C493 0.950 . S
C482 H474 0.950 . S
C482 C483 1.386 1_565 S
C482 C484 1.391 . S
C483 C482 1.386 1_545 S
C483 C487 1.393 . S
C484 H476 0.950 . S
C484 C482 1.391 . S
C484 C485 1.400 1_565 S
C485 C484 1.400 1_545 S
C485 C486 1.398 . S
C485 C491 1.491 . S
C486 H477 0.950 . S
C486 C485 1.398 . S
C486 C487 1.391 . S
C487 H475 0.950 . S
C487 C483 1.393 . S
C487 C486 1.391 . S
C488 H478 0.950 . S
C488 C489 1.386 . S
C488 C490 1.391 . S
C489 C488 1.386 . S
C489 C493 1.393 1_545 S
C490 H479 0.950 . S
C490 C488 1.391 . S
C490 C491 1.400 . S
C491 C485 1.491 . S
C491 C490 1.400 . S
C491 C492 1.398 1_545 S
C492 H480 0.950 . S
C492 C491 1.398 1_565 S
C492 C493 1.391 . S
C493 H481 0.950 . S
C493 C489 1.393 1_565 S
C493 C492 1.391 . S
H494 C502 0.950 . S
H495 C507 0.950 . S
H496 C504 0.950 . S
H497 C506 0.950 . S
H498 C508 0.950 . S
H499 C510 0.950 1_556 S
H500 C512 0.950 1_556 S
H501 C513 0.950 . S
C502 H494 0.950 . S
C502 C503 1.386 . S
C502 C504 1.391 . S
C503 C502 1.386 . S
C503 C507 1.393 . S
C504 H496 0.950 . S
C504 C502 1.391 . S
C504 C505 1.400 . S
C505 C504 1.400 . S
C505 C506 1.398 . S
C505 C511 1.491 . S
C506 H497 0.950 . S
C506 C505 1.398 . S
C506 C507 1.391 . S
C507 H495 0.950 . S
C507 C503 1.393 . S
C507 C506 1.391 . S
C508 H498 0.950 . S
C508 C509 1.386 . S
C508 C510 1.391 . S
C509 C508 1.386 . S
C509 C513 1.393 . S
C510 H499 0.950 1_554 S
C510 C508 1.391 . S
C510 C511 1.400 1_554 S
C511 C505 1.491 . S
C511 C510 1.400 1_556 S
C511 C512 1.398 1_556 S
C512 H500 0.950 1_554 S
C512 C511 1.398 1_554 S
C512 C513 1.391 . S
C513 H501 0.950 . S
C513 C509 1.393 . S
C513 C512 1.391 . S
H514 C522 0.950 . S
H515 C527 0.950 . S
H516 C524 0.950 . S
H517 C526 0.950 . S
H518 C528 0.950 . S
H519 C530 0.950 . S
H520 C532 0.950 . S
H521 C533 0.950 . S
C522 H514 0.950 . S
C522 C523 1.386 . S
C522 C524 1.391 . S
C523 C522 1.386 . S
C523 C527 1.393 1_455 S
C524 H516 0.950 . S
C524 C522 1.391 . S
C524 C525 1.400 . S
C525 C524 1.400 . S
C525 C526 1.398 1_455 S
C525 C531 1.491 . S
C526 H517 0.950 . S
C526 C525 1.398 1_655 S
C526 C527 1.391 . S
C527 H515 0.950 . S
C527 C523 1.393 1_655 S
C527 C526 1.391 . S
C528 H518 0.950 . S
C528 C529 1.386 1_655 S
C528 C530 1.391 . S
C529 C528 1.386 1_455 S
C529 C533 1.393 . S
C530 H519 0.950 . S
C530 C528 1.391 . S
C530 C531 1.400 1_655 S
C531 C525 1.491 . S
C531 C530 1.400 1_455 S
C531 C532 1.398 . S
C532 H520 0.950 . S
C532 C531 1.398 . S
C532 C533 1.391 . S
C533 H521 0.950 . S
C533 C529 1.393 . S
C533 C532 1.391 . S
C183 C24 2.893 . S
C189 C169 2.869 . S
C203 C66 1.223 . S
C209 C151 1.295 . S
C223 C93 1.726 . S
C229 C163 1.709 . S
C243 C13 2.933 . S
C249 C172 2.916 . S
C269 C154 1.345 . S
C263 C57 1.314 . S
C289 C160 1.807 . S
C283 C104 1.828 . S
C303 C64 1.808 . S
C309 C133 1.776 . S
C323 C97 0.638 . S
C329 C142 0.645 . S
C343 C17 1.371 . S
C349 C124 1.427 1_565 S
C369 C136 1.722 . S
C363 C53 1.721 . S
C389 C145 0.360 . S
C383 C106 0.477 . S
C403 C26 1.221 . S
C409 C127 1.295 . S
C429 C143 1.010 . S
C423 C2 1.015 . S
C443 C63 1.449 . S
C449 C125 1.489 . S
C463 C82 1.348 . S
C469 C134 1.370 . S
C489 C161 1.394 . S
C483 C42 1.367 . S
C509 C170 1.804 . S
C503 C103 1.738 . S
C523 C23 1.449 . S
C529 C152 1.494 . S
