# Generated by pormake.
# Topology pyr, (3,6)-cn, num edge types: 1
# Building blocks:
#     Node 0, Type 0, BuildingBlock: ESEHIV_clean_linker_0, # of connection points: 3
#     Node 1, Type 0, BuildingBlock: ESEHIV_clean_linker_0, # of connection points: 3
#     Node 2, Type 0, BuildingBlock: ESEHIV_clean_linker_0, # of connection points: 3
#     Node 3, Type 0, BuildingBlock: ESEHIV_clean_linker_0, # of connection points: 3
#     Node 4, Type 0, BuildingBlock: ESEHIV_clean_linker_0, # of connection points: 3
#     Node 5, Type 0, BuildingBlock: ESEHIV_clean_linker_0, # of connection points: 3
#     Node 6, Type 0, BuildingBlock: ESEHIV_clean_linker_0, # of connection points: 3
#     Node 7, Type 0, BuildingBlock: ESEHIV_clean_linker_0, # of connection points: 3
#     Node 8, Type 1, BuildingBlock: BETDEL_clean_sbu_0, # of connection points: 6
#     Node 9, Type 1, BuildingBlock: BETDEL_clean_sbu_0, # of connection points: 6
#     Node 10, Type 1, BuildingBlock: BETDEL_clean_sbu_0, # of connection points: 6
#     Node 11, Type 1, BuildingBlock: BETDEL_clean_sbu_0, # of connection points: 6
#     Edge 12, Type (0, 1), BuildingBlock: OJICUG_clean_linker_0, # of connection points: 2
#     Edge 13, Type (0, 1), BuildingBlock: OJICUG_clean_linker_0, # of connection points: 2
#     Edge 14, Type (0, 1), BuildingBlock: OJICUG_clean_linker_0, # of connection points: 2
#     Edge 15, Type (0, 1), BuildingBlock: OJICUG_clean_linker_0, # of connection points: 2
#     Edge 16, Type (0, 1), BuildingBlock: OJICUG_clean_linker_0, # of connection points: 2
#     Edge 17, Type (0, 1), BuildingBlock: OJICUG_clean_linker_0, # of connection points: 2
#     Edge 18, Type (0, 1), BuildingBlock: OJICUG_clean_linker_0, # of connection points: 2
#     Edge 19, Type (0, 1), BuildingBlock: OJICUG_clean_linker_0, # of connection points: 2
#     Edge 20, Type (0, 1), BuildingBlock: OJICUG_clean_linker_0, # of connection points: 2
#     Edge 21, Type (0, 1), BuildingBlock: OJICUG_clean_linker_0, # of connection points: 2
#     Edge 22, Type (0, 1), BuildingBlock: OJICUG_clean_linker_0, # of connection points: 2
#     Edge 23, Type (0, 1), BuildingBlock: OJICUG_clean_linker_0, # of connection points: 2
#     Edge 24, Type (0, 1), BuildingBlock: OJICUG_clean_linker_0, # of connection points: 2
#     Edge 25, Type (0, 1), BuildingBlock: OJICUG_clean_linker_0, # of connection points: 2
#     Edge 26, Type (0, 1), BuildingBlock: OJICUG_clean_linker_0, # of connection points: 2
#     Edge 27, Type (0, 1), BuildingBlock: OJICUG_clean_linker_0, # of connection points: 2
#     Edge 28, Type (0, 1), BuildingBlock: OJICUG_clean_linker_0, # of connection points: 2
#     Edge 29, Type (0, 1), BuildingBlock: OJICUG_clean_linker_0, # of connection points: 2
#     Edge 30, Type (0, 1), BuildingBlock: OJICUG_clean_linker_0, # of connection points: 2
#     Edge 31, Type (0, 1), BuildingBlock: OJICUG_clean_linker_0, # of connection points: 2
#     Edge 32, Type (0, 1), BuildingBlock: OJICUG_clean_linker_0, # of connection points: 2
#     Edge 33, Type (0, 1), BuildingBlock: OJICUG_clean_linker_0, # of connection points: 2
#     Edge 34, Type (0, 1), BuildingBlock: OJICUG_clean_linker_0, # of connection points: 2
#     Edge 35, Type (0, 1), BuildingBlock: OJICUG_clean_linker_0, # of connection points: 2
# Relax obj value: 0.045
# Max RMSD: 0.098
# Mean RMSD: 0.043
data_MOF--net-pyr--node1-BETDEL_clean_sbu_0--node2-ESEHIV_clean_linker_0--edge1-OJICUG_clean_linker_0
_symmetry_space_group_name_H-M    P1
_symmetry_Int_Tables_number       1
_symmetry_cell_setting            triclinic
loop_
_symmetry_equiv_pos_as_xyz
'x, y, z'
_cell_length_a     24.309341
_cell_length_b     25.622893
_cell_length_c     23.915
_cell_angle_alpha  91.477642
_cell_angle_beta   88.705707
_cell_angle_gamma 97.625367
loop_
_atom_site_label
_atom_site_type_symbol
_atom_site_fract_x
_atom_site_fract_y
_atom_site_fract_z
_atom_type_partial_charge
H0 H 0.16439 0.24888 0.21014 0.0
H1 H 0.30911 0.1733 0.23207 0.0
H2 H 0.29569 0.26531 0.08636 0.0
C3 C 0.2058 0.24225 0.19657 0.0
C4 C 0.22721 0.26217 0.14555 0.0
C5 C 0.2348 0.20973 0.22749 0.0
C6 C 0.28775 0.20051 0.20945 0.0
C7 C 0.30986 0.22038 0.15852 0.0
C8 C 0.27997 0.25223 0.12714 0.0
H9 H 0.19135 0.88559 0.73346 0.0
H10 H 0.31802 0.78671 0.75252 0.0
H11 H 0.2343 0.78735 0.5956 0.0
C12 C 0.21449 0.855 0.71702 0.0
C13 C 0.20849 0.83861 0.66102 0.0
C14 C 0.25407 0.83645 0.75015 0.0
C15 C 0.28495 0.7981 0.72789 0.0
C16 C 0.27759 0.77821 0.67279 0.0
C17 C 0.23955 0.79981 0.63895 0.0
H18 H 0.69513 0.29311 0.91884 0.0
H19 H 0.69879 0.42608 0.81159 0.0
H20 H 0.57235 0.29322 0.79179 0.0
C21 C 0.67855 0.3119 0.88408 0.0
C22 C 0.63101 0.28632 0.85729 0.0
C23 C 0.70369 0.36228 0.86817 0.0
C24 C 0.67957 0.38776 0.82503 0.0
C25 C 0.63212 0.36332 0.79719 0.0
C26 C 0.60852 0.31239 0.81336 0.0
H27 H 0.80559 0.71793 0.41901 0.0
H28 H 0.932 0.70989 0.29176 0.0
H29 H 0.80298 0.57856 0.31506 0.0
C30 C 0.82426 0.69595 0.38604 0.0
C31 C 0.79925 0.64483 0.37203 0.0
C32 C 0.87266 0.71964 0.35865 0.0
C33 C 0.89442 0.69235 0.31287 0.0
C34 C 0.86954 0.64121 0.29624 0.0
C35 C 0.822 0.61789 0.32657 0.0
H36 H 0.68852 0.84221 0.77761 0.0
H37 H 0.83671 0.76857 0.77598 0.0
H38 H 0.72043 0.74446 0.91323 0.0
C39 C 0.71283 0.8142 0.79502 0.0
C40 C 0.69804 0.79323 0.84753 0.0
C41 C 0.76373 0.80697 0.76986 0.0
C42 C 0.79597 0.77239 0.79369 0.0
C43 C 0.78004 0.7484 0.84453 0.0
C44 C 0.73105 0.75933 0.87181 0.0
H45 H 0.71109 0.25976 0.25879 0.0
H46 H 0.84241 0.16616 0.27696 0.0
H47 H 0.7841 0.25142 0.4195 0.0
C48 C 0.74223 0.24617 0.28446 0.0
C49 C 0.74646 0.26295 0.34072 0.0
C50 C 0.77484 0.20925 0.26218 0.0
C51 C 0.81542 0.19251 0.29551 0.0
C52 C 0.81787 0.2051 0.35308 0.0
C53 C 0.78395 0.24172 0.37517 0.0
H54 H 0.32418 0.73953 0.10785 0.0
H55 H 0.31541 0.60768 0.21719 0.0
H56 H 0.44939 0.73435 0.23163 0.0
C57 C 0.34055 0.72026 0.14239 0.0
C58 C 0.39001 0.74371 0.16758 0.0
C59 C 0.31317 0.67111 0.15961 0.0
C60 C 0.33651 0.64493 0.20267 0.0
C61 C 0.38571 0.66718 0.22889 0.0
C62 C 0.41183 0.7168 0.21127 0.0
H63 H 0.08975 0.32223 0.74261 0.0
H64 H 0.21465 0.30846 0.61596 0.0
H65 H 0.2353 0.43942 0.73262 0.0
C66 C 0.12955 0.3371 0.72396 0.0
C67 C 0.15932 0.38522 0.74395 0.0
C68 C 0.14949 0.30921 0.67777 0.0
C69 C 0.19998 0.32953 0.65195 0.0
C70 C 0.23158 0.37628 0.67106 0.0
C71 C 0.21073 0.40392 0.71707 0.0
Dy72 Dy 0.0428 0.03287 0.46672 0.0
C73 C 0.89677 0.95814 0.63784 0.0
C74 C 0.09411 0.08077 0.37748 0.0
Dy75 Dy 0.96782 1.00658 0.56155 0.0
O76 O 0.10107 0.03371 0.39266 0.0
O77 O 0.05726 0.09979 0.40904 0.0
O78 O 0.11723 0.02108 0.51617 0.0
O79 O 0.04192 0.97424 0.53194 0.0
C80 C 0.09148 0.98452 0.5472 0.0
C81 C 0.93653 0.08053 0.49623 0.0
O82 O 0.02649 0.06935 0.60491 0.0
O83 O 0.05478 0.10639 0.52105 0.0
O84 O 0.88207 0.97954 0.59316 0.0
O85 O 0.95044 0.96358 0.64157 0.0
O86 O 0.93235 0.08235 0.55031 0.0
O87 O 0.95528 0.03901 0.48004 0.0
O88 O 0.99832 0.95993 0.42549 0.0
O89 O 0.94822 0.93413 0.5059 0.0
C90 C 0.05136 0.10961 0.57627 0.0
C91 C 0.96362 0.92499 0.45323 0.0
Dy92 Dy 0.5651 0.03056 0.04372 0.0
C93 C 0.37384 0.94545 0.92717 0.0
C94 C 0.65513 0.08664 0.09317 0.0
Dy95 Dy 0.46492 0.99532 0.97992 0.0
O96 O 0.63517 0.03848 0.10403 0.0
O97 O 0.62572 0.1045 0.05531 0.0
O98 O 0.56074 0.95211 0.08387 0.0
O99 O 0.48632 0.98079 0.06575 0.0
C100 C 0.50714 0.94149 0.08308 0.0
C101 C 0.52216 0.08526 0.94176 0.0
O102 O 0.4264 0.03793 0.04817 0.0
O103 O 0.50823 0.08709 0.07554 0.0
O104 O 0.39456 0.99417 0.92107 0.0
O105 O 0.40319 0.9234 0.96202 0.0
O106 O 0.46864 0.07456 0.94246 0.0
O107 O 0.54362 0.04571 0.95777 0.0
O108 O 0.60293 0.98202 0.97919 0.0
O109 O 0.51965 0.93745 0.94876 0.0
C110 C 0.45357 0.07933 0.07378 0.0
C111 C 0.57412 0.94223 0.95214 0.0
Dy112 Dy 0.52615 0.46704 0.47548 0.0
C113 C 0.42735 0.6327 0.59275 0.0
C114 C 0.59762 0.40707 0.42419 0.0
Dy115 Dy 0.4961 0.56437 0.55089 0.0
O116 O 0.54482 0.40381 0.41334 0.0
O117 O 0.61116 0.44393 0.46161 0.0
O118 O 0.45104 0.40868 0.5006 0.0
O119 O 0.46157 0.48453 0.53316 0.0
C120 C 0.43027 0.44142 0.53524 0.0
C121 C 0.59901 0.57525 0.50362 0.0
O122 O 0.51644 0.50913 0.61765 0.0
O123 O 0.56307 0.45463 0.55915 0.0
O124 O 0.47219 0.62275 0.61707 0.0
O125 O 0.42038 0.60534 0.54668 0.0
O126 O 0.58644 0.60077 0.54917 0.0
O127 O 0.55496 0.55105 0.48396 0.0
O128 O 0.49085 0.5135 0.40828 0.0
O129 O 0.46605 0.5825 0.4656 0.0
C130 C 0.54833 0.47092 0.60988 0.0
C131 C 0.46864 0.55828 0.4158 0.0
Dy132 Dy 0.02035 0.46585 0.03797 0.0
C133 C 0.94764 0.64435 0.94249 0.0
C134 C 0.08197 0.38654 0.0455 0.0
Dy135 Dy 0.99913 0.56728 0.98531 0.0
O136 O 0.09917 0.43215 0.02479 0.0
O137 O 0.03018 0.38368 0.06223 0.0
O138 O 0.98409 0.47481 0.12511 0.0
O139 O 0.98326 0.53445 0.06759 0.0
C140 C 0.97066 0.52165 0.11755 0.0
C141 C 0.06364 0.50867 0.92329 0.0
O142 O 0.07096 0.60257 0.03701 0.0
O143 O 0.0979 0.52167 0.05647 0.0
O144 O 0.97356 0.61149 0.9136 0.0
O145 O 0.95249 0.63723 0.99562 0.0
O146 O 0.07147 0.55989 0.92615 0.0
O147 O 0.02095 0.49208 0.95217 0.0
O148 O 0.94322 0.4331 0.99268 0.0
O149 O 0.91795 0.51453 0.97219 0.0
C150 C 0.10698 0.57386 0.05755 0.0
C151 C 0.90715 0.46237 0.97318 0.0
C152 C 0.20471 0.12248 0.26965 0.0
C153 C 0.20452 0.1774 0.27103 0.0
H154 H 0.1688 0.04826 0.30229 0.0
C155 C 0.16862 0.19989 0.30839 0.0
H156 H 0.23114 0.104 0.24029 0.0
C157 C 0.13178 0.16793 0.34198 0.0
C158 C 0.13105 0.11308 0.33953 0.0
H159 H 0.16793 0.2421 0.31038 0.0
H160 H 0.10406 0.18628 0.37009 0.0
C161 C 0.1684 0.09051 0.30411 0.0
C162 C 0.28906 0.8358 0.84807 0.0
C163 C 0.27107 0.86377 0.80358 0.0
H164 H 0.33617 0.84023 0.92315 0.0
C165 C 0.27841 0.91911 0.80653 0.0
H166 H 0.28304 0.79314 0.84738 0.0
C167 C 0.30799 0.9458 0.85003 0.0
C168 C 0.33112 0.91768 0.891 0.0
H169 H 0.26558 0.942 0.7729 0.0
H170 H 0.31628 0.98838 0.84914 0.0
C171 C 0.31917 0.86265 0.89148 0.0
C172 C 0.59848 0.36487 0.69805 0.0
C173 C 0.60838 0.39061 0.75019 0.0
H174 H 0.57277 0.36998 0.61338 0.0
C175 C 0.59693 0.44304 0.75637 0.0
H176 H 0.60709 0.32472 0.69161 0.0
C177 C 0.57607 0.46888 0.71163 0.0
C178 C 0.56758 0.44346 0.65905 0.0
H179 H 0.60391 0.46403 0.796 0.0
H180 H 0.56787 0.50917 0.71784 0.0
C181 C 0.57904 0.39105 0.65306 0.0
C182 C 0.91477 0.63538 0.19909 0.0
C183 C 0.89471 0.61102 0.24925 0.0
H184 H 0.95353 0.62662 0.11786 0.0
C185 C 0.8995 0.5572 0.25456 0.0
H186 H 0.91166 0.67663 0.19314 0.0
C187 C 0.92377 0.52886 0.2117 0.0
C188 C 0.94359 0.55299 0.16159 0.0
H189 H 0.88546 0.537 0.29254 0.0
H190 H 0.92711 0.48769 0.218 0.0
C191 C 0.9385 0.60666 0.15568 0.0
C192 C 0.40212 0.18766 0.16143 0.0
C193 C 0.35448 0.19482 0.1318 0.0
H194 H 0.47195 0.14464 0.16579 0.0
C195 C 0.34317 0.16741 0.08103 0.0
H196 H 0.41113 0.20826 0.20097 0.0
C197 C 0.37637 0.13043 0.06227 0.0
C198 C 0.42189 0.12081 0.09347 0.0
H199 H 0.30624 0.17154 0.05787 0.0
H200 H 0.36556 0.1084 0.02388 0.0
C201 C 0.43627 0.15112 0.14183 0.0
C202 C 0.20507 0.90579 0.58847 0.0
C203 C 0.17646 0.8693 0.62512 0.0
H204 H 0.20101 0.97191 0.53641 0.0
C205 C 0.11947 0.87032 0.63542 0.0
H206 H 0.24933 0.90664 0.58113 0.0
C207 C 0.09165 0.90751 0.60968 0.0
C208 C 0.12073 0.94526 0.57455 0.0
H209 H 0.09692 0.84332 0.66461 0.0
H210 H 0.04772 0.90758 0.61833 0.0
C211 C 0.1776 0.94369 0.56377 0.0
C212 C 0.79635 0.35774 0.91321 0.0
C213 C 0.75533 0.3879 0.89648 0.0
H214 H 0.87562 0.35703 0.95058 0.0
C215 C 0.76438 0.4427 0.90685 0.0
H216 H 0.79162 0.3156 0.90529 0.0
C217 C 0.81307 0.46658 0.93237 0.0
C218 C 0.85413 0.4364 0.94869 0.0
H219 H 0.73363 0.46733 0.89561 0.0
H220 H 0.8185 0.50889 0.93915 0.0
C221 C 0.84487 0.38158 0.9391 0.0
C222 C 0.74708 0.63143 0.4645 0.0
C223 C 0.74988 0.62084 0.4063 0.0
H224 H 0.69783 0.6258 0.54027 0.0
C225 C 0.70378 0.5905 0.38155 0.0
H226 H 0.78207 0.65322 0.48576 0.0
C227 C 0.65551 0.57381 0.41351 0.0
C228 C 0.652 0.58731 0.4709 0.0
H229 H 0.70405 0.58146 0.33708 0.0
H230 H 0.62018 0.55199 0.39278 0.0
C231 C 0.69881 0.61536 0.4961 0.0
C232 C 0.13473 0.27022 0.10604 0.0
C233 C 0.19165 0.28909 0.10997 0.0
H234 H 0.05465 0.28697 0.0823 0.0
C235 C 0.21304 0.33579 0.08353 0.0
H236 H 0.11753 0.23317 0.12426 0.0
C237 C 0.1772 0.36562 0.05811 0.0
C238 C 0.11967 0.3493 0.05957 0.0
H239 H 0.25675 0.35087 0.08555 0.0
H240 H 0.19418 0.40319 0.0409 0.0
C241 C 0.09882 0.30051 0.08158 0.0
C242 C 0.63563 0.19469 0.895 0.0
C243 C 0.60397 0.2334 0.87693 0.0
H244 H 0.63527 0.11761 0.92943 0.0
C245 C 0.54581 0.22189 0.87995 0.0
H246 H 0.68053 0.20167 0.89292 0.0
C247 C 0.52017 0.17383 0.90065 0.0
C248 C 0.55163 0.13539 0.91901 0.0
H249 H 0.51979 0.25062 0.86759 0.0
H250 H 0.47524 0.16706 0.90276 0.0
C251 C 0.60979 0.14629 0.91575 0.0
C252 C 0.90157 0.78137 0.43936 0.0
C253 C 0.90051 0.77172 0.3811 0.0
H254 H 0.92109 0.83616 0.50696 0.0
C255 C 0.92347 0.8128 0.34607 0.0
H256 H 0.88607 0.75057 0.46806 0.0
C257 C 0.94483 0.8626 0.36891 0.0
C258 C 0.94326 0.87245 0.42719 0.0
H259 H 0.9235 0.80697 0.30107 0.0
H260 H 0.96134 0.89365 0.34092 0.0
C261 C 0.92196 0.8308 0.46188 0.0
C262 C 0.33028 0.73661 0.59421 0.0
C263 C 0.31349 0.73847 0.65092 0.0
H264 H 0.37907 0.70113 0.53156 0.0
C265 C 0.33417 0.70371 0.68779 0.0
H266 H 0.31637 0.76275 0.56432 0.0
C267 C 0.3726 0.67065 0.66939 0.0
C268 C 0.38929 0.6695 0.61313 0.0
H269 H 0.32091 0.70185 0.73127 0.0
H270 H 0.38814 0.64498 0.69886 0.0
C271 C 0.36698 0.70182 0.57544 0.0
C272 C 0.78594 0.89888 0.7364 0.0
C273 C 0.79 0.84478 0.72855 0.0
H274 H 0.81745 0.97769 0.7132 0.0
C275 C 0.827 0.82876 0.68762 0.0
H276 H 0.7588 0.91281 0.76835 0.0
C277 C 0.86214 0.86621 0.65826 0.0
C278 C 0.85957 0.91984 0.66848 0.0
H279 H 0.83051 0.78744 0.68016 0.0
H280 H 0.89171 0.85338 0.628 0.0
C281 C 0.82016 0.93618 0.70592 0.0
C282 C 0.75435 0.12421 0.20901 0.0
C283 C 0.75781 0.17952 0.20986 0.0
H284 H 0.71943 0.05156 0.17063 0.0
C285 C 0.73543 0.20402 0.16522 0.0
H286 H 0.77043 0.10367 0.24277 0.0
C287 C 0.70532 0.17365 0.12394 0.0
C288 C 0.69741 0.11851 0.12686 0.0
H289 H 0.7382 0.24652 0.16411 0.0
H290 H 0.68515 0.1933 0.09217 0.0
C291 C 0.72452 0.09408 0.16788 0.0
C292 C 0.42457 0.6661 0.32589 0.0
C293 C 0.4087 0.63907 0.27573 0.0
H294 H 0.45493 0.66211 0.40875 0.0
C295 C 0.41359 0.58481 0.27147 0.0
H296 H 0.42101 0.70765 0.33098 0.0
C297 C 0.43388 0.55846 0.31615 0.0
C298 C 0.44865 0.58543 0.36675 0.0
H299 H 0.40201 0.56275 0.23335 0.0
H300 H 0.43706 0.51682 0.31138 0.0
C301 C 0.44373 0.63967 0.37075 0.0
C302 C 0.14694 0.4721 0.79407 0.0
C303 C 0.13623 0.41656 0.79164 0.0
H304 H 0.13348 0.54405 0.83708 0.0
C305 C 0.10235 0.39172 0.8347 0.0
H306 H 0.17161 0.49341 0.76171 0.0
C307 C 0.07934 0.42129 0.87765 0.0
C308 C 0.08999 0.47664 0.87946 0.0
H309 H 0.09359 0.34922 0.8356 0.0
H310 H 0.05304 0.40075 0.90945 0.0
C311 C 0.12459 0.5015 0.83738 0.0
C312 C 0.60762 0.82744 0.862 0.0
C313 C 0.65981 0.82051 0.8822 0.0
H314 H 0.53941 0.87231 0.86831 0.0
C315 C 0.68164 0.85116 0.92798 0.0
H316 H 0.59068 0.80469 0.82607 0.0
C317 C 0.65359 0.89082 0.95069 0.0
C318 C 0.60288 0.8998 0.92851 0.0
H319 H 0.72242 0.8472 0.94344 0.0
H320 H 0.67213 0.91505 0.98489 0.0
C321 C 0.57899 0.86658 0.88546 0.0
C322 C 0.85717 0.122 0.37539 0.0
C323 C 0.85055 0.17463 0.38993 0.0
H324 H 0.89072 0.0522 0.39642 0.0
C325 C 0.87356 0.19616 0.44037 0.0
H326 H 0.83829 0.10252 0.33857 0.0
C327 C 0.90184 0.16572 0.47512 0.0
C328 C 0.90878 0.11374 0.45944 0.0
H329 H 0.86985 0.2364 0.45311 0.0
H330 H 0.9186 0.1829 0.51402 0.0
C331 C 0.8868 0.09249 0.40901 0.0
C332 C 0.25013 0.59207 0.12241 0.0
C333 C 0.26046 0.64681 0.13238 0.0
H334 H 0.19469 0.52662 0.09132 0.0
C335 C 0.21984 0.67779 0.11636 0.0
H336 H 0.28058 0.56686 0.13297 0.0
C337 C 0.17027 0.65457 0.09164 0.0
C338 C 0.15987 0.59973 0.08245 0.0
H339 H 0.22585 0.72 0.12381 0.0
H340 H 0.13986 0.67957 0.08039 0.0
C341 C 0.20069 0.56894 0.09804 0.0
C342 C 0.31903 0.3582 0.61922 0.0
C343 C 0.28583 0.39514 0.64152 0.0
H344 H 0.38897 0.34385 0.56795 0.0
C345 C 0.30335 0.44897 0.63166 0.0
H346 H 0.30866 0.31663 0.62723 0.0
C347 C 0.35118 0.46481 0.59847 0.0
C348 C 0.38188 0.42709 0.57373 0.0
H349 H 0.27914 0.47874 0.64788 0.0
H350 H 0.36301 0.50626 0.59065 0.0
C351 C 0.36559 0.37383 0.5853 0.0
C352 C 0.83367 0.72921 0.92823 0.0
C353 C 0.81982 0.71905 0.87185 0.0
H354 H 0.88635 0.71382 0.99507 0.0
C355 C 0.84898 0.68507 0.83939 0.0
H356 H 0.81251 0.75607 0.95391 0.0
C357 C 0.89219 0.66286 0.86216 0.0
C358 C 0.90633 0.67318 0.91824 0.0
H359 H 0.83887 0.67627 0.79597 0.0
H360 H 0.9138 0.63671 0.83597 0.0
C361 C 0.87652 0.70604 0.95143 0.0
C362 C 0.47789 0.80458 0.14395 0.0
C363 C 0.41951 0.79539 0.14702 0.0
H364 H 0.5506 0.85711 0.12148 0.0
C365 C 0.3899 0.83555 0.12884 0.0
H366 H 0.50243 0.77466 0.15632 0.0
C367 C 0.41783 0.88308 0.10814 0.0
C368 C 0.47611 0.89183 0.10522 0.0
H369 H 0.34498 0.83051 0.13098 0.0
H370 H 0.3938 0.91294 0.09447 0.0
C371 C 0.50564 0.85195 0.12346 0.0
C372 C 0.11277 0.25317 0.59569 0.0
C373 C 0.11817 0.2594 0.65398 0.0
H374 H 0.08836 0.20221 0.52621 0.0
C375 C 0.09833 0.21624 0.68758 0.0
H376 H 0.12667 0.28564 0.56845 0.0
C377 C 0.07589 0.1675 0.66305 0.0
C378 C 0.07287 0.16097 0.60441 0.0
H379 H 0.10205 0.21958 0.73261 0.0
H380 H 0.06209 0.13474 0.68988 0.0
C381 C 0.09077 0.20494 0.57138 0.0
C382 C 0.65187 0.29243 0.34843 0.0
C383 C 0.70809 0.29927 0.36368 0.0
H384 H 0.57318 0.32147 0.35495 0.0
C385 C 0.7275 0.34204 0.39906 0.0
H386 H 0.6352 0.25931 0.32213 0.0
C387 C 0.6917 0.37755 0.41801 0.0
C388 C 0.6358 0.3709 0.40206 0.0
H389 H 0.77055 0.34855 0.41127 0.0
H390 H 0.7078 0.41022 0.44522 0.0
C391 C 0.61621 0.32796 0.36723 0.0
loop_
_geom_bond_atom_site_label_1
_geom_bond_atom_site_label_2
_geom_bond_distance
_geom_bond_site_symmetry_2
_ccdc_geom_bond_type
H0 C3 0.931 . S
H1 C6 0.928 . S
H2 C8 0.930 . S
C3 H0 0.931 . S
C3 C4 1.413 . S
C3 C5 1.360 . S
C4 C3 1.413 . S
C4 C8 1.429 . S
C5 C3 1.360 . S
C5 C6 1.372 . S
C6 H1 0.928 . S
C6 C5 1.372 . S
C6 C7 1.404 . S
C7 C6 1.404 . S
C7 C8 1.391 . S
C8 H2 0.930 . S
C8 C4 1.429 . S
C8 C7 1.391 . S
H9 C12 0.931 . S
H10 C15 0.928 . S
H11 C17 0.930 . S
C12 H9 0.931 . S
C12 C13 1.413 . S
C12 C14 1.360 . S
C13 C12 1.413 . S
C13 C17 1.429 . S
C14 C12 1.360 . S
C14 C15 1.372 . S
C15 H10 0.928 . S
C15 C14 1.372 . S
C15 C16 1.404 . S
C16 C15 1.404 . S
C16 C17 1.391 . S
C17 H11 0.930 . S
C17 C13 1.429 . S
C17 C16 1.391 . S
H18 C21 0.931 . S
H19 C24 0.928 . S
H20 C26 0.930 . S
C21 H18 0.931 . S
C21 C22 1.413 . S
C21 C23 1.360 . S
C22 C21 1.413 . S
C22 C26 1.429 . S
C23 C21 1.360 . S
C23 C24 1.372 . S
C24 H19 0.928 . S
C24 C23 1.372 . S
C24 C25 1.404 . S
C25 C24 1.404 . S
C25 C26 1.391 . S
C26 H20 0.930 . S
C26 C22 1.429 . S
C26 C25 1.391 . S
H27 C30 0.931 . S
H28 C33 0.928 . S
H29 C35 0.930 . S
C30 H27 0.931 . S
C30 C31 1.413 . S
C30 C32 1.360 . S
C31 C30 1.413 . S
C31 C35 1.429 . S
C32 C30 1.360 . S
C32 C33 1.372 . S
C33 H28 0.928 . S
C33 C32 1.372 . S
C33 C34 1.404 . S
C34 C33 1.404 . S
C34 C35 1.391 . S
C35 H29 0.930 . S
C35 C31 1.429 . S
C35 C34 1.391 . S
H36 C39 0.931 . S
H37 C42 0.928 . S
H38 C44 0.930 . S
C39 H36 0.931 . S
C39 C40 1.413 . S
C39 C41 1.360 . S
C40 C39 1.413 . S
C40 C44 1.429 . S
C41 C39 1.360 . S
C41 C42 1.372 . S
C42 H37 0.928 . S
C42 C41 1.372 . S
C42 C43 1.404 . S
C43 C42 1.404 . S
C43 C44 1.391 . S
C44 H38 0.930 . S
C44 C40 1.429 . S
C44 C43 1.391 . S
H45 C48 0.931 . S
H46 C51 0.928 . S
H47 C53 0.930 . S
C48 H45 0.931 . S
C48 C49 1.413 . S
C48 C50 1.360 . S
C49 C48 1.413 . S
C49 C53 1.429 . S
C50 C48 1.360 . S
C50 C51 1.372 . S
C51 H46 0.928 . S
C51 C50 1.372 . S
C51 C52 1.404 . S
C52 C51 1.404 . S
C52 C53 1.391 . S
C53 H47 0.930 . S
C53 C49 1.429 . S
C53 C52 1.391 . S
H54 C57 0.931 . S
H55 C60 0.928 . S
H56 C62 0.930 . S
C57 H54 0.931 . S
C57 C58 1.413 . S
C57 C59 1.360 . S
C58 C57 1.413 . S
C58 C62 1.429 . S
C59 C57 1.360 . S
C59 C60 1.372 . S
C60 H55 0.928 . S
C60 C59 1.372 . S
C60 C61 1.404 . S
C61 C60 1.404 . S
C61 C62 1.391 . S
C62 H56 0.930 . S
C62 C58 1.429 . S
C62 C61 1.391 . S
H63 C66 0.931 . S
H64 C69 0.928 . S
H65 C71 0.930 . S
C66 H63 0.931 . S
C66 C67 1.413 . S
C66 C68 1.360 . S
C67 C66 1.413 . S
C67 C71 1.429 . S
C68 C66 1.360 . S
C68 C69 1.372 . S
C69 H64 0.928 . S
C69 C68 1.372 . S
C69 C70 1.404 . S
C70 C69 1.404 . S
C70 C71 1.391 . S
C71 H65 0.930 . S
C71 C67 1.429 . S
C71 C70 1.391 . S
Dy72 O76 2.398 . S
Dy72 O77 2.491 . S
Dy72 O78 2.403 1_545 S
Dy72 O79 2.664 1_545 S
Dy72 O83 2.326 . S
Dy72 O87 2.310 1_455 S
Dy72 O88 2.351 1_445 S
C73 O84 1.185 . S
C73 O85 1.355 . S
C74 O76 1.185 . S
C74 O77 1.355 . S
Dy75 O79 2.310 1_655 S
Dy75 O82 2.351 1_665 S
Dy75 O84 2.398 . S
Dy75 O85 2.491 . S
Dy75 O86 2.403 1_565 S
Dy75 O87 2.664 1_565 S
Dy75 O89 2.326 . S
O76 Dy72 2.398 . S
O76 C74 1.185 . S
O77 Dy72 2.491 . S
O77 C74 1.355 . S
O78 Dy72 2.403 1_565 S
O78 C80 1.254 . S
O79 Dy72 2.664 1_565 S
O79 Dy75 2.310 1_455 S
O79 C80 1.268 . S
C80 O78 1.254 . S
C80 O79 1.268 . S
C81 O86 1.254 . S
C81 O87 1.268 . S
O82 Dy75 2.351 1_445 S
O82 C90 1.249 . S
O83 Dy72 2.326 . S
O83 C90 1.267 . S
O84 C73 1.185 . S
O84 Dy75 2.398 . S
O85 C73 1.355 . S
O85 Dy75 2.491 . S
O86 Dy75 2.403 1_545 S
O86 C81 1.254 . S
O87 Dy72 2.310 1_655 S
O87 Dy75 2.664 1_545 S
O87 C81 1.268 . S
O88 Dy72 2.351 1_665 S
O88 C91 1.249 . S
O89 Dy75 2.326 . S
O89 C91 1.267 . S
C90 O82 1.249 . S
C90 O83 1.267 . S
C91 O88 1.249 . S
C91 O89 1.267 . S
Dy92 O96 2.398 . S
Dy92 O97 2.491 . S
Dy92 O98 2.403 1_545 S
Dy92 O99 2.664 1_545 S
Dy92 O103 2.326 . S
Dy92 O107 2.310 1_554 S
Dy92 O108 2.351 1_544 S
C93 O104 1.185 . S
C93 O105 1.355 . S
C94 O96 1.185 . S
C94 O97 1.355 . S
Dy95 O99 2.314 1_556 S
Dy95 O102 2.348 1_566 S
Dy95 O104 2.399 . S
Dy95 O105 2.497 . S
Dy95 O106 2.398 1_565 S
Dy95 O107 2.661 1_565 S
Dy95 O109 2.329 . S
O96 Dy92 2.398 . S
O96 C94 1.185 . S
O97 Dy92 2.491 . S
O97 C94 1.355 . S
O98 Dy92 2.403 1_565 S
O98 C100 1.254 . S
O99 Dy92 2.664 1_565 S
O99 Dy95 2.314 1_554 S
O99 C100 1.268 . S
C100 O98 1.254 . S
C100 O99 1.268 . S
C101 O106 1.254 . S
C101 O107 1.268 . S
O102 Dy95 2.348 1_544 S
O102 C110 1.249 . S
O103 Dy92 2.326 . S
O103 C110 1.267 . S
O104 C93 1.185 . S
O104 Dy95 2.399 . S
O105 C93 1.355 . S
O105 Dy95 2.497 . S
O106 Dy95 2.398 1_545 S
O106 C101 1.254 . S
O107 Dy92 2.310 1_556 S
O107 Dy95 2.661 1_545 S
O107 C101 1.268 . S
O108 Dy92 2.351 1_566 S
O108 C111 1.249 . S
O109 Dy95 2.329 . S
O109 C111 1.267 . S
C110 O102 1.249 . S
C110 O103 1.267 . S
C111 O108 1.249 . S
C111 O109 1.267 . S
Dy112 O116 2.398 . S
Dy112 O117 2.491 . S
Dy112 O118 2.403 . S
Dy112 O119 2.664 . S
Dy112 O123 2.326 . S
Dy112 O127 2.310 . S
Dy112 O128 2.351 . S
C113 O124 1.185 . S
C113 O125 1.355 . S
C114 O116 1.185 . S
C114 O117 1.355 . S
Dy115 O119 2.310 . S
Dy115 O122 2.351 . S
Dy115 O124 2.398 . S
Dy115 O125 2.491 . S
Dy115 O126 2.403 . S
Dy115 O127 2.664 . S
Dy115 O129 2.326 . S
O116 Dy112 2.398 . S
O116 C114 1.185 . S
O117 Dy112 2.491 . S
O117 C114 1.355 . S
O118 Dy112 2.403 . S
O118 C120 1.254 . S
O119 Dy112 2.664 . S
O119 Dy115 2.310 . S
O119 C120 1.268 . S
C120 O118 1.254 . S
C120 O119 1.268 . S
C121 O126 1.254 . S
C121 O127 1.268 . S
O122 Dy115 2.351 . S
O122 C130 1.249 . S
O123 Dy112 2.326 . S
O123 C130 1.267 . S
O124 C113 1.185 . S
O124 Dy115 2.398 . S
O125 C113 1.355 . S
O125 Dy115 2.491 . S
O126 Dy115 2.403 . S
O126 C121 1.254 . S
O127 Dy112 2.310 . S
O127 Dy115 2.664 . S
O127 C121 1.268 . S
O128 Dy112 2.351 . S
O128 C131 1.249 . S
O129 Dy115 2.326 . S
O129 C131 1.267 . S
C130 O122 1.249 . S
C130 O123 1.267 . S
C131 O128 1.249 . S
C131 O129 1.267 . S
Dy132 O136 2.398 . S
Dy132 O137 2.491 . S
Dy132 O138 2.403 1_455 S
Dy132 O139 2.664 1_455 S
Dy132 O143 2.326 . S
Dy132 O147 2.310 1_554 S
Dy132 O148 2.351 1_454 S
C133 O144 1.185 . S
C133 O145 1.355 . S
C134 O136 1.185 . S
C134 O137 1.355 . S
Dy135 O139 2.310 1_556 S
Dy135 O142 2.351 1_656 S
Dy135 O144 2.398 . S
Dy135 O145 2.491 . S
Dy135 O146 2.403 1_655 S
Dy135 O147 2.664 1_655 S
Dy135 O149 2.326 . S
O136 Dy132 2.398 . S
O136 C134 1.185 . S
O137 Dy132 2.491 . S
O137 C134 1.355 . S
O138 Dy132 2.403 1_655 S
O138 C140 1.254 . S
O139 Dy132 2.664 1_655 S
O139 Dy135 2.310 1_554 S
O139 C140 1.268 . S
C140 O138 1.254 . S
C140 O139 1.268 . S
C141 O146 1.254 . S
C141 O147 1.268 . S
O142 Dy135 2.351 1_454 S
O142 C150 1.249 . S
O143 Dy132 2.326 . S
O143 C150 1.267 . S
O144 C133 1.185 . S
O144 Dy135 2.398 . S
O145 C133 1.355 . S
O145 Dy135 2.491 . S
O146 Dy135 2.403 1_455 S
O146 C141 1.254 . S
O147 Dy132 2.310 1_556 S
O147 Dy135 2.664 1_455 S
O147 C141 1.268 . S
O148 Dy132 2.351 1_656 S
O148 C151 1.249 . S
O149 Dy135 2.326 . S
O149 C151 1.267 . S
C150 O142 1.249 . S
C150 O143 1.267 . S
C151 O148 1.249 . S
C151 O149 1.267 . S
C152 C153 1.387 . S
C152 H156 0.950 . S
C152 C161 1.390 . S
C153 C152 1.387 . S
C153 C155 1.387 . S
H154 C161 0.950 . S
C155 C153 1.387 . S
C155 C157 1.390 . S
C155 H159 0.950 . S
H156 C152 0.950 . S
C157 C155 1.390 . S
C157 C158 1.387 . S
C157 H160 0.950 . S
C158 C157 1.387 . S
C158 C161 1.387 . S
H159 C155 0.950 . S
H160 C157 0.950 . S
C161 C152 1.390 . S
C161 H154 0.950 . S
C161 C158 1.387 . S
C162 C163 1.387 . S
C162 H166 0.950 . S
C162 C171 1.390 . S
C163 C162 1.387 . S
C163 C165 1.387 . S
H164 C171 0.950 . S
C165 C163 1.387 . S
C165 C167 1.390 . S
C165 H169 0.950 . S
H166 C162 0.950 . S
C167 C165 1.390 . S
C167 C168 1.387 . S
C167 H170 0.950 . S
C168 C167 1.387 . S
C168 C171 1.387 . S
H169 C165 0.950 . S
H170 C167 0.950 . S
C171 C162 1.390 . S
C171 H164 0.950 . S
C171 C168 1.387 . S
C172 C173 1.387 . S
C172 H176 0.950 . S
C172 C181 1.390 . S
C173 C172 1.387 . S
C173 C175 1.387 . S
H174 C181 0.950 . S
C175 C173 1.387 . S
C175 C177 1.390 . S
C175 H179 0.950 . S
H176 C172 0.950 . S
C177 C175 1.390 . S
C177 C178 1.387 . S
C177 H180 0.950 . S
C178 C177 1.387 . S
C178 C181 1.387 . S
H179 C175 0.950 . S
H180 C177 0.950 . S
C181 C172 1.390 . S
C181 H174 0.950 . S
C181 C178 1.387 . S
C182 C183 1.387 . S
C182 H186 0.950 . S
C182 C191 1.390 . S
C183 C182 1.387 . S
C183 C185 1.387 . S
H184 C191 0.950 . S
C185 C183 1.387 . S
C185 C187 1.390 . S
C185 H189 0.950 . S
H186 C182 0.950 . S
C187 C185 1.390 . S
C187 C188 1.387 . S
C187 H190 0.950 . S
C188 C187 1.387 . S
C188 C191 1.387 . S
H189 C185 0.950 . S
H190 C187 0.950 . S
C191 C182 1.390 . S
C191 H184 0.950 . S
C191 C188 1.387 . S
C192 C193 1.387 . S
C192 H196 0.950 . S
C192 C201 1.390 . S
C193 C192 1.387 . S
C193 C195 1.387 . S
H194 C201 0.950 . S
C195 C193 1.387 . S
C195 C197 1.390 . S
C195 H199 0.950 . S
H196 C192 0.950 . S
C197 C195 1.390 . S
C197 C198 1.387 . S
C197 H200 0.950 . S
C198 C197 1.387 . S
C198 C201 1.387 . S
H199 C195 0.950 . S
H200 C197 0.950 . S
C201 C192 1.390 . S
C201 H194 0.950 . S
C201 C198 1.387 . S
C202 C203 1.387 . S
C202 H206 0.950 . S
C202 C211 1.390 . S
C203 C202 1.387 . S
C203 C205 1.387 . S
H204 C211 0.950 . S
C205 C203 1.387 . S
C205 C207 1.390 . S
C205 H209 0.950 . S
H206 C202 0.950 . S
C207 C205 1.390 . S
C207 C208 1.387 . S
C207 H210 0.950 . S
C208 C207 1.387 . S
C208 C211 1.387 . S
H209 C205 0.950 . S
H210 C207 0.950 . S
C211 C202 1.390 . S
C211 H204 0.950 . S
C211 C208 1.387 . S
C212 C213 1.387 . S
C212 H216 0.950 . S
C212 C221 1.390 . S
C213 C212 1.387 . S
C213 C215 1.387 . S
H214 C221 0.950 . S
C215 C213 1.387 . S
C215 C217 1.390 . S
C215 H219 0.950 . S
H216 C212 0.950 . S
C217 C215 1.390 . S
C217 C218 1.387 . S
C217 H220 0.950 . S
C218 C217 1.387 . S
C218 C221 1.387 . S
H219 C215 0.950 . S
H220 C217 0.950 . S
C221 C212 1.390 . S
C221 H214 0.950 . S
C221 C218 1.387 . S
C222 C223 1.387 . S
C222 H226 0.950 . S
C222 C231 1.390 . S
C223 C222 1.387 . S
C223 C225 1.387 . S
H224 C231 0.950 . S
C225 C223 1.387 . S
C225 C227 1.390 . S
C225 H229 0.950 . S
H226 C222 0.950 . S
C227 C225 1.390 . S
C227 C228 1.387 . S
C227 H230 0.950 . S
C228 C227 1.387 . S
C228 C231 1.387 . S
H229 C225 0.950 . S
H230 C227 0.950 . S
C231 C222 1.390 . S
C231 H224 0.950 . S
C231 C228 1.387 . S
C232 C233 1.387 . S
C232 H236 0.950 . S
C232 C241 1.390 . S
C233 C232 1.387 . S
C233 C235 1.387 . S
H234 C241 0.950 . S
C235 C233 1.387 . S
C235 C237 1.390 . S
C235 H239 0.950 . S
H236 C232 0.950 . S
C237 C235 1.390 . S
C237 C238 1.387 . S
C237 H240 0.950 . S
C238 C237 1.387 . S
C238 C241 1.387 . S
H239 C235 0.950 . S
H240 C237 0.950 . S
C241 C232 1.390 . S
C241 H234 0.950 . S
C241 C238 1.387 . S
C242 C243 1.387 . S
C242 H246 0.950 . S
C242 C251 1.390 . S
C243 C242 1.387 . S
C243 C245 1.387 . S
H244 C251 0.950 . S
C245 C243 1.387 . S
C245 C247 1.390 . S
C245 H249 0.950 . S
H246 C242 0.950 . S
C247 C245 1.390 . S
C247 C248 1.387 . S
C247 H250 0.950 . S
C248 C247 1.387 . S
C248 C251 1.387 . S
H249 C245 0.950 . S
H250 C247 0.950 . S
C251 C242 1.390 . S
C251 H244 0.950 . S
C251 C248 1.387 . S
C252 C253 1.387 . S
C252 H256 0.950 . S
C252 C261 1.390 . S
C253 C252 1.387 . S
C253 C255 1.387 . S
H254 C261 0.950 . S
C255 C253 1.387 . S
C255 C257 1.390 . S
C255 H259 0.950 . S
H256 C252 0.950 . S
C257 C255 1.390 . S
C257 C258 1.387 . S
C257 H260 0.950 . S
C258 C257 1.387 . S
C258 C261 1.387 . S
H259 C255 0.950 . S
H260 C257 0.950 . S
C261 C252 1.390 . S
C261 H254 0.950 . S
C261 C258 1.387 . S
C262 C263 1.387 . S
C262 H266 0.950 . S
C262 C271 1.390 . S
C263 C262 1.387 . S
C263 C265 1.387 . S
H264 C271 0.950 . S
C265 C263 1.387 . S
C265 C267 1.390 . S
C265 H269 0.950 . S
H266 C262 0.950 . S
C267 C265 1.390 . S
C267 C268 1.387 . S
C267 H270 0.950 . S
C268 C267 1.387 . S
C268 C271 1.387 . S
H269 C265 0.950 . S
H270 C267 0.950 . S
C271 C262 1.390 . S
C271 H264 0.950 . S
C271 C268 1.387 . S
C272 C273 1.387 . S
C272 H276 0.950 . S
C272 C281 1.390 . S
C273 C272 1.387 . S
C273 C275 1.387 . S
H274 C281 0.950 . S
C275 C273 1.387 . S
C275 C277 1.390 . S
C275 H279 0.950 . S
H276 C272 0.950 . S
C277 C275 1.390 . S
C277 C278 1.387 . S
C277 H280 0.950 . S
C278 C277 1.387 . S
C278 C281 1.387 . S
H279 C275 0.950 . S
H280 C277 0.950 . S
C281 C272 1.390 . S
C281 H274 0.950 . S
C281 C278 1.387 . S
C282 C283 1.387 . S
C282 H286 0.950 . S
C282 C291 1.390 . S
C283 C282 1.387 . S
C283 C285 1.387 . S
H284 C291 0.950 . S
C285 C283 1.387 . S
C285 C287 1.390 . S
C285 H289 0.950 . S
H286 C282 0.950 . S
C287 C285 1.390 . S
C287 C288 1.387 . S
C287 H290 0.950 . S
C288 C287 1.387 . S
C288 C291 1.387 . S
H289 C285 0.950 . S
H290 C287 0.950 . S
C291 C282 1.390 . S
C291 H284 0.950 . S
C291 C288 1.387 . S
C292 C293 1.387 . S
C292 H296 0.950 . S
C292 C301 1.390 . S
C293 C292 1.387 . S
C293 C295 1.387 . S
H294 C301 0.950 . S
C295 C293 1.387 . S
C295 C297 1.390 . S
C295 H299 0.950 . S
H296 C292 0.950 . S
C297 C295 1.390 . S
C297 C298 1.387 . S
C297 H300 0.950 . S
C298 C297 1.387 . S
C298 C301 1.387 . S
H299 C295 0.950 . S
H300 C297 0.950 . S
C301 C292 1.390 . S
C301 H294 0.950 . S
C301 C298 1.387 . S
C302 C303 1.387 . S
C302 H306 0.950 . S
C302 C311 1.390 . S
C303 C302 1.387 . S
C303 C305 1.387 . S
H304 C311 0.950 . S
C305 C303 1.387 . S
C305 C307 1.390 . S
C305 H309 0.950 . S
H306 C302 0.950 . S
C307 C305 1.390 . S
C307 C308 1.387 . S
C307 H310 0.950 . S
C308 C307 1.387 . S
C308 C311 1.387 . S
H309 C305 0.950 . S
H310 C307 0.950 . S
C311 C302 1.390 . S
C311 H304 0.950 . S
C311 C308 1.387 . S
C312 C313 1.387 . S
C312 H316 0.950 . S
C312 C321 1.390 . S
C313 C312 1.387 . S
C313 C315 1.387 . S
H314 C321 0.950 . S
C315 C313 1.387 . S
C315 C317 1.390 . S
C315 H319 0.950 . S
H316 C312 0.950 . S
C317 C315 1.390 . S
C317 C318 1.387 . S
C317 H320 0.950 . S
C318 C317 1.387 . S
C318 C321 1.387 . S
H319 C315 0.950 . S
H320 C317 0.950 . S
C321 C312 1.390 . S
C321 H314 0.950 . S
C321 C318 1.387 . S
C322 C323 1.387 . S
C322 H326 0.950 . S
C322 C331 1.390 . S
C323 C322 1.387 . S
C323 C325 1.387 . S
H324 C331 0.950 . S
C325 C323 1.387 . S
C325 C327 1.390 . S
C325 H329 0.950 . S
H326 C322 0.950 . S
C327 C325 1.390 . S
C327 C328 1.387 . S
C327 H330 0.950 . S
C328 C327 1.387 . S
C328 C331 1.387 . S
H329 C325 0.950 . S
H330 C327 0.950 . S
C331 C322 1.390 . S
C331 H324 0.950 . S
C331 C328 1.387 . S
C332 C333 1.387 . S
C332 H336 0.950 . S
C332 C341 1.390 . S
C333 C332 1.387 . S
C333 C335 1.387 . S
H334 C341 0.950 . S
C335 C333 1.387 . S
C335 C337 1.390 . S
C335 H339 0.950 . S
H336 C332 0.950 . S
C337 C335 1.390 . S
C337 C338 1.387 . S
C337 H340 0.950 . S
C338 C337 1.387 . S
C338 C341 1.387 . S
H339 C335 0.950 . S
H340 C337 0.950 . S
C341 C332 1.390 . S
C341 H334 0.950 . S
C341 C338 1.387 . S
C342 C343 1.387 . S
C342 H346 0.950 . S
C342 C351 1.390 . S
C343 C342 1.387 . S
C343 C345 1.387 . S
H344 C351 0.950 . S
C345 C343 1.387 . S
C345 C347 1.390 . S
C345 H349 0.950 . S
H346 C342 0.950 . S
C347 C345 1.390 . S
C347 C348 1.387 . S
C347 H350 0.950 . S
C348 C347 1.387 . S
C348 C351 1.387 . S
H349 C345 0.950 . S
H350 C347 0.950 . S
C351 C342 1.390 . S
C351 H344 0.950 . S
C351 C348 1.387 . S
C352 C353 1.387 . S
C352 H356 0.950 . S
C352 C361 1.390 . S
C353 C352 1.387 . S
C353 C355 1.387 . S
H354 C361 0.950 . S
C355 C353 1.387 . S
C355 C357 1.390 . S
C355 H359 0.950 . S
H356 C352 0.950 . S
C357 C355 1.390 . S
C357 C358 1.387 . S
C357 H360 0.950 . S
C358 C357 1.387 . S
C358 C361 1.387 . S
H359 C355 0.950 . S
H360 C357 0.950 . S
C361 C352 1.390 . S
C361 H354 0.950 . S
C361 C358 1.387 . S
C362 C363 1.387 . S
C362 H366 0.950 . S
C362 C371 1.390 . S
C363 C362 1.387 . S
C363 C365 1.387 . S
H364 C371 0.950 . S
C365 C363 1.387 . S
C365 C367 1.390 . S
C365 H369 0.950 . S
H366 C362 0.950 . S
C367 C365 1.390 . S
C367 C368 1.387 . S
C367 H370 0.950 . S
C368 C367 1.387 . S
C368 C371 1.387 . S
H369 C365 0.950 . S
H370 C367 0.950 . S
C371 C362 1.390 . S
C371 H364 0.950 . S
C371 C368 1.387 . S
C372 C373 1.387 . S
C372 H376 0.950 . S
C372 C381 1.390 . S
C373 C372 1.387 . S
C373 C375 1.387 . S
H374 C381 0.950 . S
C375 C373 1.387 . S
C375 C377 1.390 . S
C375 H379 0.950 . S
H376 C372 0.950 . S
C377 C375 1.390 . S
C377 C378 1.387 . S
C377 H380 0.950 . S
C378 C377 1.387 . S
C378 C381 1.387 . S
H379 C375 0.950 . S
H380 C377 0.950 . S
C381 C372 1.390 . S
C381 H374 0.950 . S
C381 C378 1.387 . S
C382 C383 1.387 . S
C382 H386 0.950 . S
C382 C391 1.390 . S
C383 C382 1.387 . S
C383 C385 1.387 . S
H384 C391 0.950 . S
C385 C383 1.387 . S
C385 C387 1.390 . S
C385 H389 0.950 . S
H386 C382 0.950 . S
C387 C385 1.390 . S
C387 C388 1.387 . S
C387 H390 0.950 . S
C388 C387 1.387 . S
C388 C391 1.387 . S
H389 C385 0.950 . S
H390 C387 0.950 . S
C391 C382 1.390 . S
C391 H384 0.950 . S
C391 C388 1.387 . S
C153 C5 1.360 . S
C158 C74 1.367 . S
C163 C14 1.302 . S
C168 C93 1.272 . S
C178 C130 1.770 . S
C173 C25 1.804 . S
C183 C34 1.768 . S
C188 C140 1.724 . S
C198 C110 1.728 . S
C193 C7 1.684 . S
C208 C80 1.325 . S
C203 C13 1.389 . S
C218 C151 1.550 . S
C213 C23 1.585 . S
C228 C121 1.500 . S
C223 C31 1.524 . S
C233 C4 1.514 . S
C238 C134 1.535 . S
C248 C101 1.708 . S
C243 C22 1.768 . S
C253 C32 1.750 . S
C258 C91 1.745 . S
C263 C16 1.240 . S
C268 C113 1.237 . S
C278 C73 1.363 . S
C273 C41 1.354 . S
C283 C50 1.306 . S
C288 C94 1.274 . S
C293 C61 1.800 . S
C298 C131 1.769 . S
C303 C67 1.775 . S
C308 C141 1.731 . S
C313 C40 1.696 . S
C318 C111 1.740 . S
C328 C81 1.312 . S
C323 C52 1.371 . S
C338 C150 1.555 . S
C333 C59 1.592 . S
C348 C120 1.501 . S
C343 C70 1.521 . S
C353 C43 1.509 . S
C358 C133 1.534 . S
C368 C100 1.714 . S
C363 C58 1.775 . S
C378 C90 1.734 . S
C373 C68 1.739 . S
C383 C49 1.244 . S
C388 C114 1.240 . S
