# Generated by pormake.
# Topology nom, (4,4)-cn, num edge types: 1
# Building blocks:
#     Node 0, Type 0, BuildingBlock: GIZVER_clean_linker_0, # of connection points: 4
#     Node 1, Type 0, BuildingBlock: GIZVER_clean_linker_0, # of connection points: 4
#     Node 2, Type 0, BuildingBlock: GIZVER_clean_linker_0, # of connection points: 4
#     Node 3, Type 0, BuildingBlock: GIZVER_clean_linker_0, # of connection points: 4
#     Node 4, Type 0, BuildingBlock: GIZVER_clean_linker_0, # of connection points: 4
#     Node 5, Type 0, BuildingBlock: GIZVER_clean_linker_0, # of connection points: 4
#     Node 6, Type 1, BuildingBlock: CEKHIL_clean_sbu_0, # of connection points: 4
#     Node 7, Type 1, BuildingBlock: CEKHIL_clean_sbu_0, # of connection points: 4
#     Node 8, Type 1, BuildingBlock: CEKHIL_clean_sbu_0, # of connection points: 4
#     Node 9, Type 1, BuildingBlock: CEKHIL_clean_sbu_0, # of connection points: 4
#     Node 10, Type 1, BuildingBlock: CEKHIL_clean_sbu_0, # of connection points: 4
#     Node 11, Type 1, BuildingBlock: CEKHIL_clean_sbu_0, # of connection points: 4
#     Edge 12, Type (0, 1), BuildingBlock: EZIPEK_clean_linker_0, # of connection points: 2
#     Edge 13, Type (0, 1), BuildingBlock: EZIPEK_clean_linker_0, # of connection points: 2
#     Edge 14, Type (0, 1), BuildingBlock: EZIPEK_clean_linker_0, # of connection points: 2
#     Edge 15, Type (0, 1), BuildingBlock: EZIPEK_clean_linker_0, # of connection points: 2
#     Edge 16, Type (0, 1), BuildingBlock: EZIPEK_clean_linker_0, # of connection points: 2
#     Edge 17, Type (0, 1), BuildingBlock: EZIPEK_clean_linker_0, # of connection points: 2
#     Edge 18, Type (0, 1), BuildingBlock: EZIPEK_clean_linker_0, # of connection points: 2
#     Edge 19, Type (0, 1), BuildingBlock: EZIPEK_clean_linker_0, # of connection points: 2
#     Edge 20, Type (0, 1), BuildingBlock: EZIPEK_clean_linker_0, # of connection points: 2
#     Edge 21, Type (0, 1), BuildingBlock: EZIPEK_clean_linker_0, # of connection points: 2
#     Edge 22, Type (0, 1), BuildingBlock: EZIPEK_clean_linker_0, # of connection points: 2
#     Edge 23, Type (0, 1), BuildingBlock: EZIPEK_clean_linker_0, # of connection points: 2
#     Edge 24, Type (0, 1), BuildingBlock: EZIPEK_clean_linker_0, # of connection points: 2
#     Edge 25, Type (0, 1), BuildingBlock: EZIPEK_clean_linker_0, # of connection points: 2
#     Edge 26, Type (0, 1), BuildingBlock: EZIPEK_clean_linker_0, # of connection points: 2
#     Edge 27, Type (0, 1), BuildingBlock: EZIPEK_clean_linker_0, # of connection points: 2
#     Edge 28, Type (0, 1), BuildingBlock: EZIPEK_clean_linker_0, # of connection points: 2
#     Edge 29, Type (0, 1), BuildingBlock: EZIPEK_clean_linker_0, # of connection points: 2
#     Edge 30, Type (0, 1), BuildingBlock: EZIPEK_clean_linker_0, # of connection points: 2
#     Edge 31, Type (0, 1), BuildingBlock: EZIPEK_clean_linker_0, # of connection points: 2
#     Edge 32, Type (0, 1), BuildingBlock: EZIPEK_clean_linker_0, # of connection points: 2
#     Edge 33, Type (0, 1), BuildingBlock: EZIPEK_clean_linker_0, # of connection points: 2
#     Edge 34, Type (0, 1), BuildingBlock: EZIPEK_clean_linker_0, # of connection points: 2
#     Edge 35, Type (0, 1), BuildingBlock: EZIPEK_clean_linker_0, # of connection points: 2
# Relax obj value: 0.005
# Max RMSD: 0.073
# Mean RMSD: 0.053
data_MOF--net-nom--node1-CEKHIL_clean_sbu_0--node2-GIZVER_clean_linker_0--edge1-EZIPEK_clean_linker_0
_symmetry_space_group_name_H-M    P1
_symmetry_Int_Tables_number       1
_symmetry_cell_setting            triclinic
loop_
_symmetry_equiv_pos_as_xyz
'x, y, z'
_cell_length_a     34.751721
_cell_length_b     34.363781
_cell_length_c     34.300383
_cell_angle_alpha  90.123809
_cell_angle_beta   90.040456
_cell_angle_gamma 121.14315
loop_
_atom_site_label
_atom_site_type_symbol
_atom_site_fract_x
_atom_site_fract_y
_atom_site_fract_z
_atom_type_partial_charge
H0 H 0.9356 0.55384 0.36918 0.0
H1 H 0.99813 0.57672 0.25611 0.0
H2 H 0.8576 0.47925 0.26922 0.0
H3 H 0.00926 0.61847 0.35951 0.0
H4 H 0.02928 0.63582 0.3113 0.0
H5 H 0.0496 0.59742 0.40068 0.0
H6 H 0.16705 0.60311 0.35521 0.0
H7 H 0.06961 0.59963 0.27643 0.0
C8 C 0.93401 0.54518 0.33858 0.0
C9 C 0.89229 0.51388 0.32175 0.0
C10 C 0.97295 0.56757 0.31521 0.0
C11 C 0.96933 0.55811 0.27499 0.0
C12 C 0.92802 0.52548 0.25868 0.0
C13 C 0.88986 0.50338 0.28219 0.0
C14 C 0.01614 0.60651 0.33166 0.0
C15 C 0.05278 0.59554 0.33769 0.0
C16 C 0.06762 0.59511 0.37586 0.0
C17 C 0.10851 0.59709 0.38207 0.0
C18 C 0.134 0.59827 0.35012 0.0
C19 C 0.12116 0.60113 0.31214 0.0
C20 C 0.07893 0.59639 0.3058 0.0
H21 H 0.4408 0.95302 0.53204 0.0
H22 H 0.44626 0.97846 0.40854 0.0
H23 H 0.42641 0.85199 0.45019 0.0
H24 H 0.41553 1.00322 0.50187 0.0
H25 H 0.42801 0.02016 0.45243 0.0
H26 H 0.4834 0.02932 0.54997 0.0
H27 H 0.57882 0.17114 0.53422 0.0
H28 H 0.48876 0.09439 0.4409 0.0
C29 C 0.44323 0.94379 0.50234 0.0
C30 C 0.43382 0.89949 0.49464 0.0
C31 C 0.44773 0.97286 0.47136 0.0
C32 C 0.44622 0.95811 0.43266 0.0
C33 C 0.43918 0.91471 0.4251 0.0
C34 C 0.43495 0.88661 0.45623 0.0
C35 C 0.44157 0.0128 0.47897 0.0
C36 C 0.48371 0.05552 0.49246 0.0
C37 C 0.49956 0.05844 0.53081 0.0
C38 C 0.53397 0.10014 0.54559 0.0
C39 C 0.55328 0.13868 0.52207 0.0
C40 C 0.53679 0.137 0.48463 0.0
C41 C 0.50252 0.09526 0.46947 0.0
H42 H 0.39251 0.45101 0.59731 0.0
H43 H 0.41643 0.43 0.71692 0.0
H44 H 0.3927 0.53734 0.68794 0.0
H45 H 0.38822 0.38045 0.61643 0.0
H46 H 0.38951 0.36839 0.66676 0.0
H47 H 0.46442 0.44008 0.5863 0.0
H48 H 0.56392 0.40439 0.61328 0.0
H49 H 0.45096 0.36161 0.68751 0.0
C50 C 0.39782 0.4615 0.62762 0.0
C51 C 0.39179 0.49723 0.63962 0.0
C52 C 0.40756 0.43736 0.65542 0.0
C53 C 0.41119 0.44957 0.69509 0.0
C54 C 0.40629 0.48596 0.70672 0.0
C55 C 0.39762 0.50995 0.67875 0.0
C56 C 0.40746 0.39471 0.64397 0.0
C57 C 0.45429 0.40268 0.63824 0.0
C58 C 0.47917 0.42629 0.60502 0.0
C59 C 0.52007 0.42893 0.59545 0.0
C60 C 0.53474 0.40653 0.62045 0.0
C61 C 0.51056 0.38285 0.65345 0.0
C62 C 0.47051 0.38133 0.66267 0.0
H63 H 0.94159 0.3941 0.76917 0.0
H64 H 0.999 0.43558 0.88408 0.0
H65 H 0.8695 0.41644 0.85914 0.0
H66 H 1.00536 0.38939 0.78634 0.0
H67 H 0.0154 0.38793 0.83686 0.0
H68 H 0.04902 0.46403 0.74954 0.0
H69 H 0.18567 0.54339 0.78946 0.0
H70 H 0.08348 0.44944 0.86764 0.0
C71 C 0.94117 0.40696 0.79794 0.0
C72 C 0.90217 0.40616 0.81053 0.0
C73 C 0.97759 0.41975 0.82394 0.0
C74 C 0.97379 0.43076 0.86281 0.0
C75 C 0.93412 0.42811 0.87556 0.0
C76 C 0.90048 0.41958 0.84869 0.0
C77 C 0.01413 0.40982 0.81365 0.0
C78 C 0.0606 0.45164 0.80911 0.0
C79 C 0.07362 0.47363 0.77267 0.0
C80 C 0.11884 0.50657 0.7656 0.0
C81 C 0.15068 0.51805 0.7951 0.0
C82 C 0.1383 0.49883 0.83207 0.0
C83 C 0.09301 0.46555 0.83931 0.0
H84 H 0.61293 0.07465 0.04353 0.0
H85 H 0.58786 0.04048 0.92132 0.0
H86 H 0.63958 0.1779 0.9597 0.0
H87 H 0.62135 0.0142 0.01729 0.0
H88 H 0.62207 0.00733 0.96628 0.0
H89 H 0.5478 0.97325 0.05404 0.0
H90 H 0.46639 0.83828 0.00774 0.0
H91 H 0.55672 0.94687 0.93218 0.0
C92 C 0.61082 0.084 0.01379 0.0
C93 C 0.62555 0.12962 0.00516 0.0
C94 C 0.59893 0.05189 0.9834 0.0
C95 C 0.59681 0.06482 0.94485 0.0
C96 C 0.61185 0.1105 0.93607 0.0
C97 C 0.62619 0.1423 0.96643 0.0
C98 C 0.60188 0.00997 0.9902 0.0
C99 C 0.55741 0.96551 0.99274 0.0
C100 C 0.53656 0.9502 0.02933 0.0
C101 C 0.50343 0.90426 0.0346 0.0
C102 C 0.49102 0.87404 0.00326 0.0
C103 C 0.50908 0.88897 0.96617 0.0
C104 C 0.5415 0.93527 0.96061 0.0
H105 H 0.64943 0.56886 0.1061 0.0
H106 H 0.57365 0.54564 0.2122 0.0
H107 H 0.62542 0.45992 0.18255 0.0
H108 H 0.63772 0.6275 0.13105 0.0
H109 H 0.62277 0.62454 0.18089 0.0
H110 H 0.5767 0.59268 0.07969 0.0
H111 H 0.47162 0.61952 0.1044 0.0
H112 H 0.552 0.61667 0.19812 0.0
C113 C 0.63298 0.54842 0.13161 0.0
C114 C 0.63825 0.51141 0.1405 0.0
C115 C 0.60909 0.56079 0.15727 0.0
C116 C 0.59031 0.53537 0.19148 0.0
C117 C 0.59699 0.49956 0.20086 0.0
C118 C 0.61974 0.48719 0.17485 0.0
C119 C 0.61149 0.60582 0.1527 0.0
C120 C 0.56743 0.60151 0.14073 0.0
C121 C 0.55608 0.59701 0.1009 0.0
C122 C 0.52161 0.60366 0.08798 0.0
C123 C 0.49686 0.6124 0.11487 0.0
C124 C 0.50748 0.6172 0.15449 0.0
C125 C 0.54226 0.61078 0.16767 0.0
Co126 Co 0.63905 0.38873 0.40005 0.0
O127 O 0.68215 0.38555 0.36662 0.0
O128 O 0.69649 0.44429 0.4041 0.0
C129 C 0.61107 0.31879 0.4253 0.0
O130 O 0.60692 0.40626 0.43951 0.0
Co131 Co 0.53621 0.32493 0.39633 0.0
O132 O 0.53486 0.35155 0.44716 0.0
C133 C 0.58176 0.4002 0.33964 0.0
C134 C 0.71104 0.42595 0.37967 0.0
C135 C 0.56913 0.38922 0.45728 0.0
O136 O 0.61998 0.41398 0.35624 0.0
O137 O 0.54497 0.36515 0.35069 0.0
O138 O 0.64783 0.35303 0.43932 0.0
O139 O 0.5932 0.32705 0.39589 0.0
Co140 Co 0.28755 0.64511 0.57151 0.0
O141 O 0.33184 0.64055 0.60259 0.0
O142 O 0.28881 0.59152 0.55698 0.0
C143 C 0.33178 0.7205 0.55714 0.0
O144 O 0.24024 0.63653 0.53141 0.0
Co145 Co 0.24693 0.70342 0.59128 0.0
O146 O 0.20461 0.67317 0.54743 0.0
C147 C 0.21561 0.6187 0.63422 0.0
C148 C 0.31971 0.60325 0.5833 0.0
C149 C 0.20994 0.64666 0.52538 0.0
O150 O 0.24006 0.60933 0.61253 0.0
O151 O 0.21486 0.65528 0.63095 0.0
O152 O 0.33515 0.68993 0.53758 0.0
O153 O 0.30394 0.70534 0.58609 0.0
Co154 Co 0.64797 0.27041 0.73234 0.0
O155 O 0.64191 0.31026 0.69626 0.0
O156 O 0.5928 0.26965 0.74236 0.0
C157 C 0.72134 0.31933 0.74812 0.0
O158 O 0.64086 0.22617 0.77507 0.0
Co159 Co 0.71413 0.23625 0.7208 0.0
O160 O 0.69849 0.21453 0.7753 0.0
C161 C 0.62489 0.18822 0.6816 0.0
C162 C 0.60437 0.29847 0.71397 0.0
C163 C 0.66233 0.20873 0.79021 0.0
O164 O 0.61557 0.21713 0.69574 0.0
O165 O 0.66371 0.19289 0.68559 0.0
O166 O 0.68959 0.32277 0.7647 0.0
O167 O 0.70835 0.28926 0.72076 0.0
Co168 Co 0.39092 0.63459 0.89823 0.0
O169 O 0.33954 0.62707 0.86937 0.0
O170 O 0.33565 0.58588 0.92042 0.0
C171 C 0.42947 0.71222 0.90365 0.0
O172 O 0.43387 0.63161 0.93666 0.0
Co173 Co 0.48577 0.68267 0.86388 0.0
O174 O 0.50392 0.66496 0.91249 0.0
C175 C 0.42021 0.59323 0.83463 0.0
C176 C 0.31484 0.59377 0.89299 0.0
C177 C 0.47535 0.64324 0.93913 0.0
O178 O 0.39405 0.58893 0.86293 0.0
O179 O 0.45657 0.63041 0.82715 0.0
O180 O 0.39632 0.68651 0.92682 0.0
O181 O 0.43536 0.69085 0.87528 0.0
Co182 Co 0.7675 0.38767 0.07034 0.0
O183 O 0.72663 0.39327 0.105 0.0
O184 O 0.75924 0.4368 0.05356 0.0
C185 C 0.7255 0.31014 0.0632 0.0
O186 O 0.81011 0.39264 0.02704 0.0
Co187 Co 0.81501 0.33724 0.09525 0.0
O188 O 0.85051 0.36207 0.04674 0.0
C189 C 0.85084 0.42988 0.12349 0.0
C190 C 0.73257 0.42683 0.08325 0.0
C191 C 0.84154 0.38382 0.02206 0.0
O192 O 0.821 0.43237 0.10323 0.0
O193 O 0.85043 0.39275 0.12745 0.0
O194 O 0.71695 0.33673 0.04296 0.0
O195 O 0.75617 0.33055 0.08973 0.0
Co196 Co 0.37219 0.73297 0.23155 0.0
O197 O 0.37197 0.68683 0.19838 0.0
O198 O 0.42336 0.7272 0.24315 0.0
C199 C 0.29775 0.69201 0.24771 0.0
O200 O 0.38561 0.78117 0.2732 0.0
Co201 Co 0.31946 0.78062 0.2167 0.0
O202 O 0.35325 0.82184 0.26059 0.0
C203 C 0.39923 0.80629 0.16948 0.0
C204 C 0.40901 0.69637 0.21612 0.0
C205 C 0.37872 0.8137 0.28102 0.0
O206 O 0.40809 0.78083 0.19055 0.0
O207 O 0.36438 0.80915 0.17441 0.0
O208 O 0.32699 0.6856 0.26569 0.0
O209 O 0.31352 0.7209 0.21937 0.0
C210 C 0.18039 0.66725 0.27491 0.0
C211 C 0.15759 0.6199 0.28223 0.0
C212 C 0.22329 0.61833 0.2573 0.0
C213 C 0.24879 0.66667 0.25799 0.0
N214 N 0.25197 0.73661 0.27375 0.0
N215 N 0.1558 0.5492 0.27867 0.0
C216 C 0.22718 0.69093 0.2677 0.0
C217 C 0.17849 0.595 0.2723 0.0
N218 N 0.15812 0.69038 0.2761 0.0
N219 N 0.2415 0.59483 0.24165 0.0
H220 H 0.12216 0.53129 0.28732 0.0
H221 H 0.17055 0.52949 0.27679 0.0
H222 H 0.27386 0.61087 0.23003 0.0
H223 H 0.22335 0.55981 0.23715 0.0
H224 H 0.17249 0.72388 0.26668 0.0
H225 H 0.12411 0.67542 0.28213 0.0
H226 H 0.2392 0.7556 0.28557 0.0
H227 H 0.28649 0.75424 0.27185 0.0
C228 C 0.58134 0.19567 0.43314 0.0
C229 C 0.55113 0.18094 0.46502 0.0
C230 C 0.56454 0.25777 0.47336 0.0
C231 C 0.59217 0.27193 0.43986 0.0
N232 N 0.62265 0.25365 0.38434 0.0
N233 N 0.50488 0.19446 0.50869 0.0
C234 C 0.59907 0.24054 0.4185 0.0
C235 C 0.53983 0.21098 0.48293 0.0
N236 N 0.59455 0.16758 0.41805 0.0
N237 N 0.56297 0.28911 0.49679 0.0
H238 H 0.48511 0.15996 0.51533 0.0
H239 H 0.49254 0.214 0.52012 0.0
H240 H 0.58197 0.32388 0.49135 0.0
H241 H 0.54668 0.28112 0.52365 0.0
H242 H 0.62038 0.17805 0.39783 0.0
H243 H 0.58149 0.13427 0.42759 0.0
H244 H 0.62454 0.23109 0.36527 0.0
H245 H 0.63824 0.28685 0.37381 0.0
C246 C 0.40333 0.5644 0.60094 0.0
C247 C 0.374 0.51917 0.61375 0.0
C248 C 0.30911 0.52839 0.60477 0.0
C249 C 0.33838 0.57381 0.59209 0.0
N250 N 0.41168 0.63175 0.56964 0.0
N251 N 0.2989 0.45439 0.6186 0.0
C252 C 0.38507 0.59083 0.58753 0.0
C253 C 0.3268 0.4999 0.61217 0.0
N254 N 0.44874 0.58247 0.60306 0.0
N255 N 0.26496 0.51339 0.61248 0.0
H256 H 0.31085 0.43281 0.62479 0.0
H257 H 0.26429 0.43727 0.6141 0.0
H258 H 0.25069 0.53334 0.60858 0.0
H259 H 0.24325 0.4826 0.62609 0.0
H260 H 0.47232 0.61678 0.59893 0.0
H261 H 0.46275 0.56298 0.61058 0.0
H262 H 0.44506 0.6442 0.56209 0.0
H263 H 0.39931 0.65176 0.55937 0.0
C264 C 0.8229 0.34172 0.80713 0.0
C265 C 0.85843 0.38087 0.78898 0.0
C266 C 0.80442 0.37727 0.74061 0.0
C267 C 0.7684 0.34305 0.76314 0.0
N268 N 0.74446 0.30193 0.82393 0.0
N269 N 0.88294 0.43846 0.73955 0.0
C270 C 0.77791 0.32794 0.79819 0.0
C271 C 0.84931 0.39927 0.75572 0.0
N272 N 0.8323 0.31751 0.83292 0.0
N273 N 0.79573 0.38904 0.70511 0.0
H274 H 0.91607 0.45454 0.74952 0.0
H275 H 0.87754 0.45631 0.71789 0.0
H276 H 0.7632 0.37538 0.69419 0.0
H277 H 0.82085 0.41026 0.68563 0.0
H278 H 0.8076 0.28667 0.84478 0.0
H279 H 0.86513 0.32563 0.83862 0.0
H280 H 0.75053 0.2932 0.85137 0.0
H281 H 0.71149 0.29384 0.81988 0.0
C282 C 0.44769 0.82918 0.92449 0.0
C283 C 0.49387 0.85353 0.93504 0.0
C284 C 0.50125 0.78989 0.91285 0.0
C285 C 0.45383 0.76321 0.90689 0.0
N286 N 0.38528 0.76223 0.89397 0.0
N287 N 0.56725 0.86321 0.92827 0.0
C288 C 0.42814 0.78456 0.90845 0.0
C289 C 0.52157 0.83605 0.9251 0.0
N290 N 0.42229 0.84824 0.93176 0.0
N291 N 0.52663 0.77043 0.90931 0.0
H292 H 0.58323 0.89643 0.93866 0.0
H293 H 0.58983 0.85456 0.91748 0.0
H294 H 0.51354 0.73799 0.89861 0.0
H295 H 0.55981 0.78523 0.91858 0.0
H296 H 0.3874 0.83075 0.92968 0.0
H297 H 0.43661 0.88187 0.94117 0.0
H298 H 0.36558 0.77681 0.89141 0.0
H299 H 0.3708 0.73014 0.88105 0.0
C300 C 0.70896 0.51 0.13624 0.0
C301 C 0.66831 0.50043 0.11814 0.0
C302 C 0.67599 0.45079 0.07105 0.0
C303 C 0.71209 0.45434 0.09355 0.0
N304 N 0.7604 0.48419 0.15005 0.0
N305 N 0.61204 0.46151 0.06863 0.0
C306 C 0.72813 0.48339 0.12667 0.0
C307 C 0.65189 0.47133 0.08513 0.0
N308 N 0.72888 0.54447 0.16295 0.0
N309 N 0.66427 0.42713 0.03671 0.0
H310 H 0.59469 0.47731 0.07747 0.0
H311 H 0.59519 0.43643 0.04754 0.0
H312 H 0.67979 0.41001 0.0265 0.0
H313 H 0.64131 0.42694 0.01708 0.0
H314 H 0.76065 0.55605 0.17473 0.0
H315 H 0.71544 0.56455 0.17029 0.0
H316 H 0.76982 0.50077 0.17691 0.0
H317 H 0.77544 0.46534 0.14416 0.0
C318 C 0.36566 0.84239 0.53088 0.0
C319 C 0.41226 0.86203 0.52376 0.0
C320 C 0.40757 0.79251 0.54863 0.0
C321 C 0.35986 0.77015 0.54806 0.0
N322 N 0.29373 0.77336 0.53352 0.0
N323 N 0.47876 0.85736 0.52738 0.0
C324 C 0.33905 0.79525 0.53864 0.0
C325 C 0.43366 0.83766 0.53369 0.0
N326 N 0.3461 0.86812 0.529 0.0
N327 N 0.42784 0.77095 0.56408 0.0
H328 H 0.49876 0.89124 0.51877 0.0
H329 H 0.49587 0.83995 0.52926 0.0
H330 H 0.40972 0.73823 0.57565 0.0
H331 H 0.46237 0.78673 0.56851 0.0
H332 H 0.31342 0.85644 0.53845 0.0
H333 H 0.36328 0.90244 0.52204 0.0
H334 H 0.27693 0.78838 0.52165 0.0
H335 H 0.27368 0.73867 0.53669 0.0
C336 C 0.55339 0.3736 0.70848 0.0
C337 C 0.52601 0.35553 0.67478 0.0
C338 C 0.54798 0.2984 0.66811 0.0
C339 C 0.57548 0.31647 0.70177 0.0
N340 N 0.59811 0.36504 0.75846 0.0
N341 N 0.4886 0.29489 0.62801 0.0
C342 C 0.57593 0.35195 0.72353 0.0
C343 C 0.52048 0.31586 0.65647 0.0
N344 N 0.55953 0.41271 0.72489 0.0
N345 N 0.54912 0.26541 0.64665 0.0
H346 H 0.46784 0.30686 0.61913 0.0
H347 H 0.47982 0.26364 0.61571 0.0
H348 H 0.56771 0.25078 0.65494 0.0
H349 H 0.53398 0.2544 0.61944 0.0
H350 H 0.58319 0.43094 0.74651 0.0
H351 H 0.54224 0.42832 0.71542 0.0
H352 H 0.596 0.38733 0.7777 0.0
H353 H 0.61632 0.35115 0.76961 0.0
C354 C 0.19341 0.56054 0.87628 0.0
C355 C 0.17495 0.51563 0.86173 0.0
C356 C 0.24564 0.51853 0.87574 0.0
C357 C 0.26528 0.56477 0.88745 0.0
N358 N 0.25557 0.6259 0.90876 0.0
N359 N 0.178 0.44759 0.85739 0.0
C360 C 0.23826 0.58448 0.891 0.0
C361 C 0.19926 0.49311 0.86516 0.0
N362 N 0.16853 0.58089 0.87392 0.0
N363 N 0.27196 0.49986 0.87218 0.0
H364 H 0.14426 0.42865 0.84917 0.0
H365 H 0.19221 0.42782 0.86242 0.0
H366 H 0.30579 0.51689 0.88007 0.0
H367 H 0.26126 0.46847 0.8592 0.0
H368 H 0.18128 0.61527 0.87922 0.0
H369 H 0.13483 0.56309 0.86532 0.0
H370 H 0.23681 0.6408 0.91529 0.0
H371 H 0.28822 0.64393 0.91995 0.0
C372 C 0.62471 0.19171 0.04297 0.0
C373 C 0.6462 0.16707 0.03454 0.0
C374 C 0.71899 0.23344 0.05173 0.0
C375 C 0.69818 0.25932 0.05842 0.0
N376 N 0.62977 0.25836 0.07281 0.0
N377 N 0.7107 0.15944 0.04356 0.0
C378 C 0.65045 0.23686 0.05804 0.0
C379 C 0.69215 0.18611 0.04381 0.0
N380 N 0.57997 0.17239 0.03493 0.0
N381 N 0.7645 0.25452 0.04925 0.0
H382 H 0.69257 0.12499 0.03658 0.0
H383 H 0.74281 0.1703 0.05418 0.0
H384 H 0.78497 0.28916 0.05241 0.0
H385 H 0.78156 0.23872 0.03976 0.0
H386 H 0.56319 0.1902 0.03553 0.0
H387 H 0.56006 0.13852 0.02606 0.0
H388 H 0.59511 0.24252 0.07634 0.0
H389 H 0.64761 0.29072 0.08528 0.0
C390 C 0.50683 0.68457 0.18122 0.0
C391 C 0.4863 0.6366 0.17949 0.0
C392 C 0.41731 0.62795 0.208 0.0
C393 C 0.43576 0.67557 0.20448 0.0
N394 N 0.49631 0.74893 0.1833 0.0
N395 N 0.42199 0.56198 0.19006 0.0
C396 C 0.48031 0.70393 0.19043 0.0
C397 C 0.44159 0.60809 0.19293 0.0
N398 N 0.5517 0.71169 0.17345 0.0
N399 N 0.37716 0.60195 0.22665 0.0
H400 H 0.4398 0.54663 0.18126 0.0
H401 H 0.38792 0.53912 0.19471 0.0
H402 H 0.35864 0.61542 0.23803 0.0
H403 H 0.36388 0.56788 0.23362 0.0
H404 H 0.56977 0.74666 0.17827 0.0
H405 H 0.57195 0.69882 0.16557 0.0
H406 H 0.52633 0.77015 0.16877 0.0
H407 H 0.47781 0.76445 0.18859 0.0
C408 C 0.83022 0.45198 0.36148 0.0
C409 C 0.84942 0.49514 0.34347 0.0
C410 C 0.77785 0.49268 0.34873 0.0
C411 C 0.75889 0.45007 0.36782 0.0
N412 N 0.76907 0.39356 0.39989 0.0
N413 N 0.84536 0.56106 0.32711 0.0
C414 C 0.78568 0.43094 0.37641 0.0
C415 C 0.82443 0.517 0.33963 0.0
N416 N 0.85415 0.43057 0.36319 0.0
N417 N 0.75084 0.50866 0.3372 0.0
H418 H 0.87933 0.57964 0.31966 0.0
H419 H 0.83027 0.58051 0.32744 0.0
H420 H 0.71634 0.49145 0.34253 0.0
H421 H 0.76167 0.5369 0.31935 0.0
H422 H 0.84028 0.3968 0.37151 0.0
H423 H 0.88758 0.44604 0.35423 0.0
H424 H 0.78843 0.38078 0.41048 0.0
H425 H 0.73678 0.37745 0.41165 0.0
C426 C 0.11728 0.5773 0.45125 0.0
C427 C 0.13098 0.60964 0.42077 0.0
C428 C 0.19936 0.66193 0.45674 0.0
C429 C 0.18386 0.63178 0.48878 0.0
N430 N 0.12589 0.56322 0.51922 0.0
N431 N 0.17872 0.6872 0.39913 0.0
C432 C 0.14204 0.59011 0.4869 0.0
C433 C 0.17005 0.65343 0.42504 0.0
N434 N 0.0817 0.53416 0.44566 0.0
N435 N 0.24269 0.69777 0.45586 0.0
H436 H 0.15717 0.68276 0.37609 0.0
H437 H 0.20464 0.72082 0.40293 0.0
H438 H 0.26601 0.7034 0.47759 0.0
H439 H 0.25688 0.7185 0.43155 0.0
H440 H 0.07297 0.50769 0.46516 0.0
H441 H 0.06255 0.52409 0.42014 0.0
H442 H 0.09361 0.53477 0.52099 0.0
H443 H 0.14396 0.57113 0.54528 0.0
C444 C 0.58138 0.10114 0.60091 0.0
C445 C 0.54601 0.10661 0.58741 0.0
C446 C 0.54869 0.14563 0.64805 0.0
C447 C 0.59069 0.14998 0.6565 0.0
N448 N 0.62762 0.10678 0.65598 0.0
N449 N 0.49148 0.12863 0.59935 0.0
C450 C 0.60137 0.11995 0.63757 0.0
C451 C 0.52763 0.12637 0.61181 0.0
N452 N 0.59733 0.08015 0.57784 0.0
N453 N 0.5275 0.15643 0.67575 0.0
H454 H 0.47351 0.11213 0.57417 0.0
H455 H 0.48047 0.14819 0.61307 0.0
H456 H 0.53923 0.16421 0.70439 0.0
H457 H 0.49553 0.1515 0.67218 0.0
H458 H 0.62673 0.08023 0.58395 0.0
H459 H 0.58205 0.06441 0.55152 0.0
H460 H 0.63412 0.08262 0.64467 0.0
H461 H 0.63719 0.11492 0.68511 0.0
C462 C 0.44577 0.52159 0.77003 0.0
C463 C 0.40544 0.4978 0.74822 0.0
C464 C 0.36952 0.52748 0.79012 0.0
C465 C 0.41064 0.55323 0.81073 0.0
N466 N 0.48055 0.56028 0.83062 0.0
N467 N 0.32515 0.46379 0.74663 0.0
C468 C 0.44626 0.54513 0.80421 0.0
C469 C 0.36582 0.49543 0.76197 0.0
N470 N 0.48423 0.52451 0.75683 0.0
N471 N 0.33561 0.53619 0.79463 0.0
H472 H 0.32214 0.44022 0.72572 0.0
H473 H 0.29465 0.4581 0.75744 0.0
H474 H 0.33737 0.56058 0.81378 0.0
H475 H 0.30699 0.52159 0.77707 0.0
H476 H 0.51571 0.54609 0.76921 0.0
H477 H 0.48514 0.50734 0.73211 0.0
H478 H 0.50565 0.55233 0.82889 0.0
H479 H 0.48094 0.57659 0.85648 0.0
C480 C 0.89652 0.37468 0.93035 0.0
C481 C 0.92034 0.42034 0.91714 0.0
C482 C 0.89617 0.44362 0.97539 0.0
C483 C 0.86732 0.39708 0.98519 0.0
N484 N 0.83246 0.31824 0.96663 0.0
N485 N 0.94104 0.49835 0.92522 0.0
C486 C 0.86564 0.36257 0.96135 0.0
C487 C 0.91985 0.45498 0.93927 0.0
N488 N 0.90277 0.34258 0.9129 0.0
N489 N 0.90179 0.47678 0.0009 0.0
H490 H 0.96048 0.50784 0.89991 0.0
H491 H 0.93766 0.52415 0.93753 0.0
H492 H 0.8849 0.46964 0.02747 0.0
H493 H 0.92561 0.5111 -0.00291 0.0
H494 H 0.8894 0.30984 0.92392 0.0
H495 H 0.92482 0.34972 0.88978 0.0
H496 H 0.8268 0.29214 0.94756 0.0
H497 H 0.80714 0.30845 0.98726 0.0
C498 C 0.43216 0.86433 0.07172 0.0
C499 C 0.47955 0.88589 0.07214 0.0
C500 C 0.4759 0.85901 0.13908 0.0
C501 C 0.42828 0.8317 0.13581 0.0
N502 N 0.36338 0.79855 0.09301 0.0
N503 N 0.54668 0.89751 0.10419 0.0
C504 C 0.407 0.83161 0.10041 0.0
C505 C 0.50167 0.8817 0.10532 0.0
N506 N 0.41111 0.87475 0.04357 0.0
N507 N 0.49653 0.86475 0.17431 0.0
H508 H 0.56667 0.91409 0.08005 0.0
H509 H 0.56333 0.89084 0.12604 0.0
H510 H 0.479 0.84986 0.19991 0.0
H511 H 0.53068 0.88779 0.17873 0.0
H512 H 0.37666 0.86234 0.04395 0.0
H513 H 0.42879 0.89951 0.02243 0.0
H514 H 0.34789 0.79519 0.06614 0.0
H515 H 0.34468 0.77115 0.11167 0.0
C516 C 0.60947 0.49953 0.27328 0.0
C517 C 0.58459 0.47655 0.2393 0.0
C518 C 0.55738 0.40332 0.27102 0.0
C519 C 0.58018 0.42621 0.30585 0.0
N520 N 0.61581 0.496 0.34324 0.0
N521 N 0.52488 0.40808 0.21005 0.0
C522 C 0.60237 0.47434 0.30802 0.0
C523 C 0.55479 0.42889 0.23988 0.0
N524 N 0.64183 0.54464 0.27204 0.0
N525 N 0.54135 0.35794 0.26623 0.0
H526 H 0.52239 0.42634 0.18688 0.0
H527 H 0.49975 0.3738 0.21051 0.0
H528 H 0.54549 0.33821 0.28687 0.0
H529 H 0.52842 0.34098 0.23986 0.0
H530 H 0.66432 0.56133 0.29486 0.0
H531 H 0.64877 0.56464 0.24726 0.0
H532 H 0.62866 0.53074 0.34661 0.0
H533 H 0.60943 0.47859 0.36958 0.0
C534 C 0.45553 0.90339 0.35539 0.0
C535 C 0.42434 0.89311 0.38605 0.0
C536 C 0.36703 0.82688 0.35007 0.0
C537 C 0.3964 0.83939 0.31782 0.0
N538 N 0.46683 0.89225 0.28725 0.0
N539 N 0.34718 0.85252 0.408 0.0
C540 C 0.44024 0.87856 0.31967 0.0
C541 C 0.37899 0.85723 0.38183 0.0
N542 N 0.49978 0.9357 0.36086 0.0
N543 N 0.32861 0.78503 0.35119 0.0
H544 H 0.35441 0.87499 0.4312 0.0
H545 H 0.31294 0.82933 0.40428 0.0
H546 H 0.32068 0.7605 0.32973 0.0
H547 H 0.30781 0.77271 0.37555 0.0
H548 H 0.52502 0.94144 0.34123 0.0
H549 H 0.51166 0.95498 0.38636 0.0
H550 H 0.49728 0.92301 0.28547 0.0
H551 H 0.45696 0.87393 0.26116 0.0
C552 C 0.58769 0.45388 0.55273 0.0
C553 C 0.54437 0.44731 0.55704 0.0
C554 C 0.52845 0.4239 0.48894 0.0
C555 C 0.56457 0.41552 0.4895 0.0
N556 N 0.63114 0.42562 0.5225 0.0
N557 N 0.49705 0.46484 0.51982 0.0
C558 C 0.59604 0.43285 0.52092 0.0
C559 C 0.52061 0.44328 0.52244 0.0
N560 N 0.61977 0.47894 0.57994 0.0
N561 N 0.5021 0.41393 0.45653 0.0
H562 H 0.49977 0.48756 0.54145 0.0
H563 H 0.48135 0.46614 0.4944 0.0
H564 H 0.50982 0.40474 0.42996 0.0
H565 H 0.47213 0.41395 0.4564 0.0
H566 H 0.65325 0.48793 0.57724 0.0
H567 H 0.6128 0.49389 0.60332 0.0
H568 H 0.65183 0.43366 0.54689 0.0
H569 H 0.63756 0.40817 0.50115 0.0
C570 C 0.1557 0.58013 0.73097 0.0
C571 C 0.13471 0.53234 0.72854 0.0
C572 C 0.16114 0.53988 0.66109 0.0
C573 C 0.18869 0.58775 0.66653 0.0
N574 N 0.22104 0.6508 0.71225 0.0
N575 N 0.12206 0.4662 0.69261 0.0
C576 C 0.1883 0.60727 0.70299 0.0
C577 C 0.13842 0.51186 0.69386 0.0
N578 N 0.14531 0.5996 0.76072 0.0
N579 N 0.15527 0.5212 0.62479 0.0
H580 H 0.1049 0.44456 0.71581 0.0
H581 H 0.12842 0.45049 0.66959 0.0
H582 H 0.1699 0.54048 0.59984 0.0
H583 H 0.13229 0.48702 0.61895 0.0
H584 H 0.15738 0.63438 0.76204 0.0
H585 H 0.12095 0.58031 0.78158 0.0
H586 H 0.22391 0.66485 0.73985 0.0
H587 H 0.24863 0.6707 0.69437 0.0
C588 C 0.6445 0.12238 0.86778 0.0
C589 C 0.61707 0.12773 0.89531 0.0
C590 C 0.61944 0.18735 0.85465 0.0
C591 C 0.64361 0.17918 0.82543 0.0
N592 N 0.66042 0.12394 0.79929 0.0
N593 N 0.56578 0.15395 0.90727 0.0
C594 C 0.65026 0.14194 0.83034 0.0
C595 C 0.60001 0.15618 0.88592 0.0
N596 N 0.66747 0.1014 0.87751 0.0
N597 N 0.61736 0.22599 0.85469 0.0
H598 H 0.55019 0.13062 0.92985 0.0
H599 H 0.54993 0.17163 0.89964 0.0
H600 H 0.63408 0.2523 0.83481 0.0
H601 H 0.6033 0.23441 0.87762 0.0
H602 H 0.69067 0.10061 0.85875 0.0
H603 H 0.66741 0.08942 0.90536 0.0
H604 H 0.66255 0.09485 0.80166 0.0
H605 H 0.6604 0.13397 0.77062 0.0
C606 C 0.48539 0.57595 0.0223 0.0
C607 C 0.517 0.6119 0.04638 0.0
C608 C 0.52144 0.66807 0.00014 0.0
C609 C 0.49096 0.6323 0.97525 0.0
N610 N 0.45046 0.55262 0.95842 0.0
N611 N 0.5733 0.69123 0.05443 0.0
C612 C 0.47493 0.58624 0.98502 0.0
C613 C 0.53798 0.65765 0.03378 0.0
N614 N 0.46436 0.53228 0.03571 0.0
N615 N 0.5321 0.71169 0.9932 0.0
H616 H 0.5859 0.6849 0.07969 0.0
H617 H 0.59278 0.72456 0.04457 0.0
H618 H 0.51888 0.72037 0.96987 0.0
H619 H 0.55021 0.73844 0.01265 0.0
H620 H 0.43717 0.50503 0.02168 0.0
H621 H 0.47289 0.5237 0.06217 0.0
H622 H 0.44136 0.51888 0.96233 0.0
H623 H 0.44225 0.55908 0.93088 0.0
C624 C 0.89675 0.52783 0.19357 0.0
C625 C 0.92287 0.51536 0.2164 0.0
C626 C 0.92158 0.46763 0.1632 0.0
C627 C 0.8857 0.46998 0.14622 0.0
N628 N 0.86249 0.52302 0.1306 0.0
N629 N 0.96395 0.47639 0.22184 0.0
C630 C 0.88014 0.50657 0.15674 0.0
C631 C 0.93767 0.48726 0.20042 0.0
N632 N 0.88627 0.55829 0.20801 0.0
N633 N 0.9409 0.44791 0.14291 0.0
H634 H 0.97684 0.49037 0.24918 0.0
H635 H 0.97091 0.45153 0.21339 0.0
H636 H 0.93135 0.43646 0.11429 0.0
H637 H 0.96949 0.4481 0.15235 0.0
H638 H 0.8627 0.5644 0.19526 0.0
H639 H 0.90028 0.57637 0.23381 0.0
H640 H 0.8602 0.55164 0.13565 0.0
H641 H 0.85553 0.51151 0.10185 0.0
loop_
_geom_bond_atom_site_label_1
_geom_bond_atom_site_label_2
_geom_bond_distance
_geom_bond_site_symmetry_2
_ccdc_geom_bond_type
H0 C8 0.930 . S
H1 C11 0.930 . S
H2 C13 0.930 . S
H3 C14 0.970 . S
H4 C14 0.970 . S
H5 C16 0.930 . S
H6 C18 0.930 . S
H7 C20 0.930 . S
C8 H0 0.930 . S
C8 C9 1.382 . S
C8 C10 1.426 . S
C9 C8 1.382 . S
C9 C13 1.389 . S
C10 C8 1.426 . S
C10 C11 1.375 . S
C10 C14 1.532 1_655 S
C11 H1 0.930 . S
C11 C10 1.375 . S
C11 C12 1.416 . S
C12 C11 1.416 . S
C12 C13 1.371 . S
C13 H2 0.930 . S
C13 C9 1.389 . S
C13 C12 1.371 . S
C14 H3 0.970 . S
C14 H4 0.970 . S
C14 C10 1.532 1_455 S
C14 C15 1.499 . S
C15 C14 1.499 . S
C15 C16 1.370 . S
C15 C20 1.415 . S
C16 H5 0.930 . S
C16 C15 1.370 . S
C16 C17 1.407 . S
C17 C16 1.407 . S
C17 C18 1.365 . S
C18 H6 0.930 . S
C18 C17 1.365 . S
C18 C19 1.393 . S
C19 C18 1.393 . S
C19 C20 1.387 . S
C20 H7 0.930 . S
C20 C15 1.415 . S
C20 C19 1.387 . S
H21 C29 0.930 . S
H22 C32 0.930 . S
H23 C34 0.930 . S
H24 C35 0.970 . S
H25 C35 0.970 . S
H26 C37 0.930 . S
H27 C39 0.930 . S
H28 C41 0.930 . S
C29 H21 0.930 . S
C29 C30 1.382 . S
C29 C31 1.426 . S
C30 C29 1.382 . S
C30 C34 1.389 . S
C31 C29 1.426 . S
C31 C32 1.375 . S
C31 C35 1.532 1_565 S
C32 H22 0.930 . S
C32 C31 1.375 . S
C32 C33 1.416 . S
C33 C32 1.416 . S
C33 C34 1.371 . S
C34 H23 0.930 . S
C34 C30 1.389 . S
C34 C33 1.371 . S
C35 H24 0.970 . S
C35 H25 0.970 . S
C35 C31 1.532 1_545 S
C35 C36 1.499 . S
C36 C35 1.499 . S
C36 C37 1.370 . S
C36 C41 1.415 . S
C37 H26 0.930 . S
C37 C36 1.370 . S
C37 C38 1.407 . S
C38 C37 1.407 . S
C38 C39 1.365 . S
C39 H27 0.930 . S
C39 C38 1.365 . S
C39 C40 1.393 . S
C40 C39 1.393 . S
C40 C41 1.387 . S
C41 H28 0.930 . S
C41 C36 1.415 . S
C41 C40 1.387 . S
H42 C50 0.930 . S
H43 C53 0.930 . S
H44 C55 0.930 . S
H45 C56 0.970 . S
H46 C56 0.970 . S
H47 C58 0.930 . S
H48 C60 0.930 . S
H49 C62 0.930 . S
C50 H42 0.930 . S
C50 C51 1.382 . S
C50 C52 1.426 . S
C51 C50 1.382 . S
C51 C55 1.389 . S
C52 C50 1.426 . S
C52 C53 1.375 . S
C52 C56 1.532 . S
C53 H43 0.930 . S
C53 C52 1.375 . S
C53 C54 1.416 . S
C54 C53 1.416 . S
C54 C55 1.371 . S
C55 H44 0.930 . S
C55 C51 1.389 . S
C55 C54 1.371 . S
C56 H45 0.970 . S
C56 H46 0.970 . S
C56 C52 1.532 . S
C56 C57 1.499 . S
C57 C56 1.499 . S
C57 C58 1.370 . S
C57 C62 1.415 . S
C58 H47 0.930 . S
C58 C57 1.370 . S
C58 C59 1.407 . S
C59 C58 1.407 . S
C59 C60 1.365 . S
C60 H48 0.930 . S
C60 C59 1.365 . S
C60 C61 1.393 . S
C61 C60 1.393 . S
C61 C62 1.387 . S
C62 H49 0.930 . S
C62 C57 1.415 . S
C62 C61 1.387 . S
H63 C71 0.930 . S
H64 C74 0.930 . S
H65 C76 0.930 . S
H66 C77 0.970 1_655 S
H67 C77 0.970 . S
H68 C79 0.930 . S
H69 C81 0.930 . S
H70 C83 0.930 . S
C71 H63 0.930 . S
C71 C72 1.382 . S
C71 C73 1.426 . S
C72 C71 1.382 . S
C72 C76 1.389 . S
C73 C71 1.426 . S
C73 C74 1.375 . S
C73 C77 1.532 1_655 S
C74 H64 0.930 . S
C74 C73 1.375 . S
C74 C75 1.416 . S
C75 C74 1.416 . S
C75 C76 1.371 . S
C76 H65 0.930 . S
C76 C72 1.389 . S
C76 C75 1.371 . S
C77 H66 0.970 1_455 S
C77 H67 0.970 . S
C77 C73 1.532 1_455 S
C77 C78 1.499 . S
C78 C77 1.499 . S
C78 C79 1.370 . S
C78 C83 1.415 . S
C79 H68 0.930 . S
C79 C78 1.370 . S
C79 C80 1.407 . S
C80 C79 1.407 . S
C80 C81 1.365 . S
C81 H69 0.930 . S
C81 C80 1.365 . S
C81 C82 1.393 . S
C82 C81 1.393 . S
C82 C83 1.387 . S
C83 H70 0.930 . S
C83 C78 1.415 . S
C83 C82 1.387 . S
H84 C92 0.930 . S
H85 C95 0.930 . S
H86 C97 0.930 . S
H87 C98 0.970 1_554 S
H88 C98 0.970 1_565 S
H89 C100 0.930 . S
H90 C102 0.930 . S
H91 C104 0.930 . S
C92 H84 0.930 . S
C92 C93 1.382 . S
C92 C94 1.426 1_554 S
C93 C92 1.382 . S
C93 C97 1.389 1_554 S
C94 C92 1.426 1_556 S
C94 C95 1.375 . S
C94 C98 1.532 . S
C95 H85 0.930 . S
C95 C94 1.375 . S
C95 C96 1.416 . S
C96 C95 1.416 . S
C96 C97 1.371 . S
C97 H86 0.930 . S
C97 C93 1.389 1_556 S
C97 C96 1.371 . S
C98 H87 0.970 1_556 S
C98 H88 0.970 1_545 S
C98 C94 1.532 . S
C98 C99 1.499 1_546 S
C99 C98 1.499 1_564 S
C99 C100 1.370 . S
C99 C104 1.415 1_554 S
C100 H89 0.930 . S
C100 C99 1.370 . S
C100 C101 1.407 . S
C101 C100 1.407 . S
C101 C102 1.365 . S
C102 H90 0.930 . S
C102 C101 1.365 . S
C102 C103 1.393 1_554 S
C103 C102 1.393 1_556 S
C103 C104 1.387 . S
C104 H91 0.930 . S
C104 C99 1.415 1_556 S
C104 C103 1.387 . S
H105 C113 0.930 . S
H106 C116 0.930 . S
H107 C118 0.930 . S
H108 C119 0.970 . S
H109 C119 0.970 . S
H110 C121 0.930 . S
H111 C123 0.930 . S
H112 C125 0.930 . S
C113 H105 0.930 . S
C113 C114 1.382 . S
C113 C115 1.426 . S
C114 C113 1.382 . S
C114 C118 1.389 . S
C115 C113 1.426 . S
C115 C116 1.375 . S
C115 C119 1.532 . S
C116 H106 0.930 . S
C116 C115 1.375 . S
C116 C117 1.416 . S
C117 C116 1.416 . S
C117 C118 1.371 . S
C118 H107 0.930 . S
C118 C114 1.389 . S
C118 C117 1.371 . S
C119 H108 0.970 . S
C119 H109 0.970 . S
C119 C115 1.532 . S
C119 C120 1.499 . S
C120 C119 1.499 . S
C120 C121 1.370 . S
C120 C125 1.415 . S
C121 H110 0.930 . S
C121 C120 1.370 . S
C121 C122 1.407 . S
C122 C121 1.407 . S
C122 C123 1.365 . S
C123 H111 0.930 . S
C123 C122 1.365 . S
C123 C124 1.393 . S
C124 C123 1.393 . S
C124 C125 1.387 . S
C125 H112 0.930 . S
C125 C120 1.415 . S
C125 C124 1.387 . S
Co126 O127 2.216 . S
Co126 O128 2.091 . S
Co126 O130 2.004 . S
Co126 O136 2.021 . S
Co126 O138 2.137 . S
Co126 O139 2.244 . S
O127 Co126 2.216 . S
O127 C134 1.247 . S
O128 Co126 2.091 . S
O128 C134 1.261 . S
C129 O138 1.247 . S
C129 O139 1.272 . S
O130 Co126 2.004 . S
O130 C135 1.259 . S
Co131 O132 2.061 . S
Co131 O137 2.052 . S
Co131 O139 2.135 . S
O132 Co131 2.061 . S
O132 C135 1.235 . S
C133 O136 1.238 . S
C133 O137 1.241 . S
C134 O127 1.247 . S
C134 O128 1.261 . S
C135 O130 1.259 . S
C135 O132 1.235 . S
O136 Co126 2.021 . S
O136 C133 1.238 . S
O137 Co131 2.052 . S
O137 C133 1.241 . S
O138 Co126 2.137 . S
O138 C129 1.247 . S
O139 Co126 2.244 . S
O139 C129 1.272 . S
O139 Co131 2.135 . S
Co140 O141 2.216 . S
Co140 O142 2.091 . S
Co140 O144 2.004 . S
Co140 O150 2.021 . S
Co140 O152 2.137 . S
Co140 O153 2.244 . S
O141 Co140 2.216 . S
O141 C148 1.247 . S
O142 Co140 2.091 . S
O142 C148 1.261 . S
C143 O152 1.247 . S
C143 O153 1.272 . S
O144 Co140 2.004 . S
O144 C149 1.259 . S
Co145 O146 2.061 . S
Co145 O151 2.052 . S
Co145 O153 2.135 . S
O146 Co145 2.061 . S
O146 C149 1.235 . S
C147 O150 1.238 . S
C147 O151 1.241 . S
C148 O141 1.247 . S
C148 O142 1.261 . S
C149 O144 1.259 . S
C149 O146 1.235 . S
O150 Co140 2.021 . S
O150 C147 1.238 . S
O151 Co145 2.052 . S
O151 C147 1.241 . S
O152 Co140 2.137 . S
O152 C143 1.247 . S
O153 Co140 2.244 . S
O153 C143 1.272 . S
O153 Co145 2.135 . S
Co154 O155 2.216 . S
Co154 O156 2.091 . S
Co154 O158 2.004 . S
Co154 O164 2.021 . S
Co154 O166 2.137 . S
Co154 O167 2.244 . S
O155 Co154 2.216 . S
O155 C162 1.247 . S
O156 Co154 2.091 . S
O156 C162 1.261 . S
C157 O166 1.247 . S
C157 O167 1.272 . S
O158 Co154 2.004 . S
O158 C163 1.259 . S
Co159 O160 2.061 . S
Co159 O165 2.052 . S
Co159 O167 2.135 . S
O160 Co159 2.061 . S
O160 C163 1.235 . S
C161 O164 1.238 . S
C161 O165 1.241 . S
C162 O155 1.247 . S
C162 O156 1.261 . S
C163 O158 1.259 . S
C163 O160 1.235 . S
O164 Co154 2.021 . S
O164 C161 1.238 . S
O165 Co159 2.052 . S
O165 C161 1.241 . S
O166 Co154 2.137 . S
O166 C157 1.247 . S
O167 Co154 2.244 . S
O167 C157 1.272 . S
O167 Co159 2.135 . S
Co168 O169 2.216 . S
Co168 O170 2.091 . S
Co168 O172 2.004 . S
Co168 O178 2.021 . S
Co168 O180 2.137 . S
Co168 O181 2.244 . S
O169 Co168 2.216 . S
O169 C176 1.247 . S
O170 Co168 2.091 . S
O170 C176 1.261 . S
C171 O180 1.247 . S
C171 O181 1.272 . S
O172 Co168 2.004 . S
O172 C177 1.259 . S
Co173 O174 2.061 . S
Co173 O179 2.052 . S
Co173 O181 2.135 . S
O174 Co173 2.061 . S
O174 C177 1.235 . S
C175 O178 1.238 . S
C175 O179 1.241 . S
C176 O169 1.247 . S
C176 O170 1.261 . S
C177 O172 1.259 . S
C177 O174 1.235 . S
O178 Co168 2.021 . S
O178 C175 1.238 . S
O179 Co173 2.052 . S
O179 C175 1.241 . S
O180 Co168 2.137 . S
O180 C171 1.247 . S
O181 Co168 2.244 . S
O181 C171 1.272 . S
O181 Co173 2.135 . S
Co182 O183 2.216 . S
Co182 O184 2.091 . S
Co182 O186 2.004 . S
Co182 O192 2.021 . S
Co182 O194 2.137 . S
Co182 O195 2.244 . S
O183 Co182 2.216 . S
O183 C190 1.247 . S
O184 Co182 2.091 . S
O184 C190 1.261 . S
C185 O194 1.247 . S
C185 O195 1.272 . S
O186 Co182 2.004 . S
O186 C191 1.259 . S
Co187 O188 2.061 . S
Co187 O193 2.052 . S
Co187 O195 2.135 . S
O188 Co187 2.061 . S
O188 C191 1.235 . S
C189 O192 1.238 . S
C189 O193 1.241 . S
C190 O183 1.247 . S
C190 O184 1.261 . S
C191 O186 1.259 . S
C191 O188 1.235 . S
O192 Co182 2.021 . S
O192 C189 1.238 . S
O193 Co187 2.052 . S
O193 C189 1.241 . S
O194 Co182 2.137 . S
O194 C185 1.247 . S
O195 Co182 2.244 . S
O195 C185 1.272 . S
O195 Co187 2.135 . S
Co196 O197 2.216 . S
Co196 O198 2.091 . S
Co196 O200 2.004 . S
Co196 O206 2.021 . S
Co196 O208 2.137 . S
Co196 O209 2.244 . S
O197 Co196 2.216 . S
O197 C204 1.247 . S
O198 Co196 2.091 . S
O198 C204 1.261 . S
C199 O208 1.247 . S
C199 O209 1.272 . S
O200 Co196 2.004 . S
O200 C205 1.259 . S
Co201 O202 2.061 . S
Co201 O207 2.052 . S
Co201 O209 2.135 . S
O202 Co201 2.061 . S
O202 C205 1.235 . S
C203 O206 1.238 . S
C203 O207 1.241 . S
C204 O197 1.247 . S
C204 O198 1.261 . S
C205 O200 1.259 . S
C205 O202 1.235 . S
O206 Co196 2.021 . S
O206 C203 1.238 . S
O207 Co201 2.052 . S
O207 C203 1.241 . S
O208 Co196 2.137 . S
O208 C199 1.247 . S
O209 Co196 2.244 . S
O209 C199 1.272 . S
O209 Co201 2.135 . S
C210 C211 1.363 . S
C210 C216 1.379 . S
C210 N218 1.356 . S
C211 C210 1.363 . S
C211 C217 1.363 . S
C212 C213 1.363 . S
C212 C217 1.379 . S
C212 N219 1.356 . S
C213 C212 1.363 . S
C213 C216 1.363 . S
N214 C216 1.356 . S
N214 H226 0.984 . S
N214 H227 0.985 . S
N215 C217 1.356 . S
N215 H220 0.984 . S
N215 H221 0.985 . S
C216 C210 1.379 . S
C216 C213 1.363 . S
C216 N214 1.356 . S
C217 C211 1.363 . S
C217 C212 1.379 . S
C217 N215 1.356 . S
N218 C210 1.356 . S
N218 H224 0.984 . S
N218 H225 0.984 . S
N219 C212 1.356 . S
N219 H222 0.984 . S
N219 H223 0.985 . S
H220 N215 0.984 . S
H221 N215 0.985 . S
H222 N219 0.984 . S
H223 N219 0.985 . S
H224 N218 0.984 . S
H225 N218 0.984 . S
H226 N214 0.984 . S
H227 N214 0.985 . S
C228 C229 1.363 . S
C228 C234 1.379 . S
C228 N236 1.356 . S
C229 C228 1.363 . S
C229 C235 1.363 . S
C230 C231 1.363 . S
C230 C235 1.379 . S
C230 N237 1.356 . S
C231 C230 1.363 . S
C231 C234 1.363 . S
N232 C234 1.356 . S
N232 H244 0.984 . S
N232 H245 0.985 . S
N233 C235 1.356 . S
N233 H238 0.984 . S
N233 H239 0.985 . S
C234 C228 1.379 . S
C234 C231 1.363 . S
C234 N232 1.356 . S
C235 C229 1.363 . S
C235 C230 1.379 . S
C235 N233 1.356 . S
N236 C228 1.356 . S
N236 H242 0.984 . S
N236 H243 0.984 . S
N237 C230 1.356 . S
N237 H240 0.984 . S
N237 H241 0.985 . S
H238 N233 0.984 . S
H239 N233 0.985 . S
H240 N237 0.984 . S
H241 N237 0.985 . S
H242 N236 0.984 . S
H243 N236 0.984 . S
H244 N232 0.984 . S
H245 N232 0.985 . S
C246 C247 1.363 . S
C246 C252 1.379 . S
C246 N254 1.356 . S
C247 C246 1.363 . S
C247 C253 1.363 . S
C248 C249 1.363 . S
C248 C253 1.379 . S
C248 N255 1.356 . S
C249 C248 1.363 . S
C249 C252 1.363 . S
N250 C252 1.356 . S
N250 H262 0.984 . S
N250 H263 0.985 . S
N251 C253 1.356 . S
N251 H256 0.984 . S
N251 H257 0.985 . S
C252 C246 1.379 . S
C252 C249 1.363 . S
C252 N250 1.356 . S
C253 C247 1.363 . S
C253 C248 1.379 . S
C253 N251 1.356 . S
N254 C246 1.356 . S
N254 H260 0.984 . S
N254 H261 0.984 . S
N255 C248 1.356 . S
N255 H258 0.984 . S
N255 H259 0.985 . S
H256 N251 0.984 . S
H257 N251 0.985 . S
H258 N255 0.984 . S
H259 N255 0.985 . S
H260 N254 0.984 . S
H261 N254 0.984 . S
H262 N250 0.984 . S
H263 N250 0.985 . S
C264 C265 1.363 . S
C264 C270 1.379 . S
C264 N272 1.356 . S
C265 C264 1.363 . S
C265 C271 1.363 . S
C266 C267 1.363 . S
C266 C271 1.379 . S
C266 N273 1.356 . S
C267 C266 1.363 . S
C267 C270 1.363 . S
N268 C270 1.356 . S
N268 H280 0.984 . S
N268 H281 0.985 . S
N269 C271 1.356 . S
N269 H274 0.984 . S
N269 H275 0.985 . S
C270 C264 1.379 . S
C270 C267 1.363 . S
C270 N268 1.356 . S
C271 C265 1.363 . S
C271 C266 1.379 . S
C271 N269 1.356 . S
N272 C264 1.356 . S
N272 H278 0.984 . S
N272 H279 0.984 . S
N273 C266 1.356 . S
N273 H276 0.984 . S
N273 H277 0.985 . S
H274 N269 0.984 . S
H275 N269 0.985 . S
H276 N273 0.984 . S
H277 N273 0.985 . S
H278 N272 0.984 . S
H279 N272 0.984 . S
H280 N268 0.984 . S
H281 N268 0.985 . S
C282 C283 1.363 . S
C282 C288 1.379 . S
C282 N290 1.356 . S
C283 C282 1.363 . S
C283 C289 1.363 . S
C284 C285 1.363 . S
C284 C289 1.379 . S
C284 N291 1.356 . S
C285 C284 1.363 . S
C285 C288 1.363 . S
N286 C288 1.356 . S
N286 H298 0.984 . S
N286 H299 0.985 . S
N287 C289 1.356 1_554 S
N287 H292 0.984 . S
N287 H293 0.985 . S
C288 C282 1.379 . S
C288 C285 1.363 . S
C288 N286 1.356 . S
C289 C283 1.363 . S
C289 C284 1.379 . S
C289 N287 1.356 1_556 S
N290 C282 1.356 . S
N290 H296 0.984 . S
N290 H297 0.984 . S
N291 C284 1.356 . S
N291 H294 0.984 . S
N291 H295 0.985 1_556 S
H292 N287 0.984 . S
H293 N287 0.985 . S
H294 N291 0.984 . S
H295 N291 0.985 1_554 S
H296 N290 0.984 . S
H297 N290 0.984 . S
H298 N286 0.984 . S
H299 N286 0.985 . S
C300 C301 1.363 . S
C300 C306 1.379 . S
C300 N308 1.356 . S
C301 C300 1.363 . S
C301 C307 1.363 . S
C302 C303 1.363 . S
C302 C307 1.379 . S
C302 N309 1.356 . S
C303 C302 1.363 . S
C303 C306 1.363 . S
N304 C306 1.356 . S
N304 H316 0.984 . S
N304 H317 0.985 . S
N305 C307 1.356 . S
N305 H310 0.984 . S
N305 H311 0.985 . S
C306 C300 1.379 . S
C306 C303 1.363 . S
C306 N304 1.356 . S
C307 C301 1.363 . S
C307 C302 1.379 . S
C307 N305 1.356 . S
N308 C300 1.356 . S
N308 H314 0.984 . S
N308 H315 0.984 . S
N309 C302 1.356 . S
N309 H312 0.984 . S
N309 H313 0.985 . S
H310 N305 0.984 . S
H311 N305 0.985 . S
H312 N309 0.984 . S
H313 N309 0.985 . S
H314 N308 0.984 . S
H315 N308 0.984 . S
H316 N304 0.984 . S
H317 N304 0.985 . S
C318 C319 1.363 . S
C318 C324 1.379 . S
C318 N326 1.356 . S
C319 C318 1.363 . S
C319 C325 1.363 . S
C320 C321 1.363 . S
C320 C325 1.379 . S
C320 N327 1.356 . S
C321 C320 1.363 . S
C321 C324 1.363 . S
N322 C324 1.356 . S
N322 H334 0.984 . S
N322 H335 0.985 . S
N323 C325 1.356 . S
N323 H328 0.984 . S
N323 H329 0.985 . S
C324 C318 1.379 . S
C324 C321 1.363 . S
C324 N322 1.356 . S
C325 C319 1.363 . S
C325 C320 1.379 . S
C325 N323 1.356 . S
N326 C318 1.356 . S
N326 H332 0.984 . S
N326 H333 0.984 . S
N327 C320 1.356 . S
N327 H330 0.984 . S
N327 H331 0.985 . S
H328 N323 0.984 . S
H329 N323 0.985 . S
H330 N327 0.984 . S
H331 N327 0.985 . S
H332 N326 0.984 . S
H333 N326 0.984 . S
H334 N322 0.984 . S
H335 N322 0.985 . S
C336 C337 1.363 . S
C336 C342 1.379 . S
C336 N344 1.356 . S
C337 C336 1.363 . S
C337 C343 1.363 . S
C338 C339 1.363 . S
C338 C343 1.379 . S
C338 N345 1.356 . S
C339 C338 1.363 . S
C339 C342 1.363 . S
N340 C342 1.356 . S
N340 H352 0.984 . S
N340 H353 0.985 . S
N341 C343 1.356 . S
N341 H346 0.984 . S
N341 H347 0.985 . S
C342 C336 1.379 . S
C342 C339 1.363 . S
C342 N340 1.356 . S
C343 C337 1.363 . S
C343 C338 1.379 . S
C343 N341 1.356 . S
N344 C336 1.356 . S
N344 H350 0.984 . S
N344 H351 0.984 . S
N345 C338 1.356 . S
N345 H348 0.984 . S
N345 H349 0.985 . S
H346 N341 0.984 . S
H347 N341 0.985 . S
H348 N345 0.984 . S
H349 N345 0.985 . S
H350 N344 0.984 . S
H351 N344 0.984 . S
H352 N340 0.984 . S
H353 N340 0.985 . S
C354 C355 1.363 . S
C354 C360 1.379 . S
C354 N362 1.356 . S
C355 C354 1.363 . S
C355 C361 1.363 . S
C356 C357 1.363 . S
C356 C361 1.379 . S
C356 N363 1.356 . S
C357 C356 1.363 . S
C357 C360 1.363 . S
N358 C360 1.356 . S
N358 H370 0.984 . S
N358 H371 0.985 . S
N359 C361 1.356 . S
N359 H364 0.984 . S
N359 H365 0.985 . S
C360 C354 1.379 . S
C360 C357 1.363 . S
C360 N358 1.356 . S
C361 C355 1.363 . S
C361 C356 1.379 . S
C361 N359 1.356 . S
N362 C354 1.356 . S
N362 H368 0.984 . S
N362 H369 0.984 . S
N363 C356 1.356 . S
N363 H366 0.984 . S
N363 H367 0.985 . S
H364 N359 0.984 . S
H365 N359 0.985 . S
H366 N363 0.984 . S
H367 N363 0.985 . S
H368 N362 0.984 . S
H369 N362 0.984 . S
H370 N358 0.984 . S
H371 N358 0.985 . S
C372 C373 1.363 . S
C372 C378 1.379 . S
C372 N380 1.356 . S
C373 C372 1.363 . S
C373 C379 1.363 1_554 S
C374 C375 1.363 . S
C374 C379 1.379 1_554 S
C374 N381 1.356 1_554 S
C375 C374 1.363 . S
C375 C378 1.363 . S
N376 C378 1.356 . S
N376 H388 0.984 . S
N376 H389 0.985 . S
N377 C379 1.356 . S
N377 H382 0.984 . S
N377 H383 0.985 . S
C378 C372 1.379 . S
C378 C375 1.363 . S
C378 N376 1.356 . S
C379 C373 1.363 1_556 S
C379 C374 1.379 1_556 S
C379 N377 1.356 . S
N380 C372 1.356 . S
N380 H386 0.984 . S
N380 H387 0.984 . S
N381 C374 1.356 1_556 S
N381 H384 0.984 1_556 S
N381 H385 0.985 . S
H382 N377 0.984 . S
H383 N377 0.985 . S
H384 N381 0.984 1_554 S
H385 N381 0.985 . S
H386 N380 0.984 . S
H387 N380 0.984 . S
H388 N376 0.984 . S
H389 N376 0.985 . S
C390 C391 1.363 . S
C390 C396 1.379 . S
C390 N398 1.356 . S
C391 C390 1.363 . S
C391 C397 1.363 . S
C392 C393 1.363 . S
C392 C397 1.379 . S
C392 N399 1.356 . S
C393 C392 1.363 . S
C393 C396 1.363 . S
N394 C396 1.356 . S
N394 H406 0.984 . S
N394 H407 0.985 . S
N395 C397 1.356 . S
N395 H400 0.984 . S
N395 H401 0.985 . S
C396 C390 1.379 . S
C396 C393 1.363 . S
C396 N394 1.356 . S
C397 C391 1.363 . S
C397 C392 1.379 . S
C397 N395 1.356 . S
N398 C390 1.356 . S
N398 H404 0.984 . S
N398 H405 0.984 . S
N399 C392 1.356 . S
N399 H402 0.984 . S
N399 H403 0.985 . S
H400 N395 0.984 . S
H401 N395 0.985 . S
H402 N399 0.984 . S
H403 N399 0.985 . S
H404 N398 0.984 . S
H405 N398 0.984 . S
H406 N394 0.984 . S
H407 N394 0.985 . S
C408 C409 1.363 . S
C408 C414 1.379 . S
C408 N416 1.356 . S
C409 C408 1.363 . S
C409 C415 1.363 . S
C410 C411 1.363 . S
C410 C415 1.379 . S
C410 N417 1.356 . S
C411 C410 1.363 . S
C411 C414 1.363 . S
N412 C414 1.356 . S
N412 H424 0.984 . S
N412 H425 0.985 . S
N413 C415 1.356 . S
N413 H418 0.984 . S
N413 H419 0.985 . S
C414 C408 1.379 . S
C414 C411 1.363 . S
C414 N412 1.356 . S
C415 C409 1.363 . S
C415 C410 1.379 . S
C415 N413 1.356 . S
N416 C408 1.356 . S
N416 H422 0.984 . S
N416 H423 0.984 . S
N417 C410 1.356 . S
N417 H420 0.984 . S
N417 H421 0.985 . S
H418 N413 0.984 . S
H419 N413 0.985 . S
H420 N417 0.984 . S
H421 N417 0.985 . S
H422 N416 0.984 . S
H423 N416 0.984 . S
H424 N412 0.984 . S
H425 N412 0.985 . S
C426 C427 1.363 . S
C426 C432 1.379 . S
C426 N434 1.356 . S
C427 C426 1.363 . S
C427 C433 1.363 . S
C428 C429 1.363 . S
C428 C433 1.379 . S
C428 N435 1.356 . S
C429 C428 1.363 . S
C429 C432 1.363 . S
N430 C432 1.356 . S
N430 H442 0.984 . S
N430 H443 0.985 . S
N431 C433 1.356 . S
N431 H436 0.984 . S
N431 H437 0.985 . S
C432 C426 1.379 . S
C432 C429 1.363 . S
C432 N430 1.356 . S
C433 C427 1.363 . S
C433 C428 1.379 . S
C433 N431 1.356 . S
N434 C426 1.356 . S
N434 H440 0.984 . S
N434 H441 0.984 . S
N435 C428 1.356 . S
N435 H438 0.984 . S
N435 H439 0.985 . S
H436 N431 0.984 . S
H437 N431 0.985 . S
H438 N435 0.984 . S
H439 N435 0.985 . S
H440 N434 0.984 . S
H441 N434 0.984 . S
H442 N430 0.984 . S
H443 N430 0.985 . S
C444 C445 1.363 . S
C444 C450 1.379 . S
C444 N452 1.356 . S
C445 C444 1.363 . S
C445 C451 1.363 . S
C446 C447 1.363 . S
C446 C451 1.379 . S
C446 N453 1.356 . S
C447 C446 1.363 . S
C447 C450 1.363 . S
N448 C450 1.356 . S
N448 H460 0.984 . S
N448 H461 0.985 . S
N449 C451 1.356 . S
N449 H454 0.984 . S
N449 H455 0.985 . S
C450 C444 1.379 . S
C450 C447 1.363 . S
C450 N448 1.356 . S
C451 C445 1.363 . S
C451 C446 1.379 . S
C451 N449 1.356 . S
N452 C444 1.356 . S
N452 H458 0.984 . S
N452 H459 0.984 . S
N453 C446 1.356 . S
N453 H456 0.984 . S
N453 H457 0.985 . S
H454 N449 0.984 . S
H455 N449 0.985 . S
H456 N453 0.984 . S
H457 N453 0.985 . S
H458 N452 0.984 . S
H459 N452 0.984 . S
H460 N448 0.984 . S
H461 N448 0.985 . S
C462 C463 1.363 . S
C462 C468 1.379 . S
C462 N470 1.356 . S
C463 C462 1.363 . S
C463 C469 1.363 . S
C464 C465 1.363 . S
C464 C469 1.379 . S
C464 N471 1.356 . S
C465 C464 1.363 . S
C465 C468 1.363 . S
N466 C468 1.356 . S
N466 H478 0.984 . S
N466 H479 0.985 . S
N467 C469 1.356 . S
N467 H472 0.984 . S
N467 H473 0.985 . S
C468 C462 1.379 . S
C468 C465 1.363 . S
C468 N466 1.356 . S
C469 C463 1.363 . S
C469 C464 1.379 . S
C469 N467 1.356 . S
N470 C462 1.356 . S
N470 H476 0.984 . S
N470 H477 0.984 . S
N471 C464 1.356 . S
N471 H474 0.984 . S
N471 H475 0.985 . S
H472 N467 0.984 . S
H473 N467 0.985 . S
H474 N471 0.984 . S
H475 N471 0.985 . S
H476 N470 0.984 . S
H477 N470 0.984 . S
H478 N466 0.984 . S
H479 N466 0.985 . S
C480 C481 1.363 . S
C480 C486 1.379 . S
C480 N488 1.356 . S
C481 C480 1.363 . S
C481 C487 1.363 . S
C482 C483 1.363 . S
C482 C487 1.379 . S
C482 N489 1.356 1_556 S
C483 C482 1.363 . S
C483 C486 1.363 . S
N484 C486 1.356 . S
N484 H496 0.984 . S
N484 H497 0.985 . S
N485 C487 1.356 . S
N485 H490 0.984 . S
N485 H491 0.985 . S
C486 C480 1.379 . S
C486 C483 1.363 . S
C486 N484 1.356 . S
C487 C481 1.363 . S
C487 C482 1.379 . S
C487 N485 1.356 . S
N488 C480 1.356 . S
N488 H494 0.984 . S
N488 H495 0.984 . S
N489 C482 1.356 1_554 S
N489 H492 0.984 . S
N489 H493 0.985 . S
H490 N485 0.984 . S
H491 N485 0.985 . S
H492 N489 0.984 . S
H493 N489 0.985 . S
H494 N488 0.984 . S
H495 N488 0.984 . S
H496 N484 0.984 . S
H497 N484 0.985 . S
C498 C499 1.363 . S
C498 C504 1.379 . S
C498 N506 1.356 . S
C499 C498 1.363 . S
C499 C505 1.363 . S
C500 C501 1.363 . S
C500 C505 1.379 . S
C500 N507 1.356 . S
C501 C500 1.363 . S
C501 C504 1.363 . S
N502 C504 1.356 . S
N502 H514 0.984 . S
N502 H515 0.985 . S
N503 C505 1.356 . S
N503 H508 0.984 . S
N503 H509 0.985 . S
C504 C498 1.379 . S
C504 C501 1.363 . S
C504 N502 1.356 . S
C505 C499 1.363 . S
C505 C500 1.379 . S
C505 N503 1.356 . S
N506 C498 1.356 . S
N506 H512 0.984 . S
N506 H513 0.984 . S
N507 C500 1.356 . S
N507 H510 0.984 . S
N507 H511 0.985 . S
H508 N503 0.984 . S
H509 N503 0.985 . S
H510 N507 0.984 . S
H511 N507 0.985 . S
H512 N506 0.984 . S
H513 N506 0.984 . S
H514 N502 0.984 . S
H515 N502 0.985 . S
C516 C517 1.363 . S
C516 C522 1.379 . S
C516 N524 1.356 . S
C517 C516 1.363 . S
C517 C523 1.363 . S
C518 C519 1.363 . S
C518 C523 1.379 . S
C518 N525 1.356 . S
C519 C518 1.363 . S
C519 C522 1.363 . S
N520 C522 1.356 . S
N520 H532 0.984 . S
N520 H533 0.985 . S
N521 C523 1.356 . S
N521 H526 0.984 . S
N521 H527 0.985 . S
C522 C516 1.379 . S
C522 C519 1.363 . S
C522 N520 1.356 . S
C523 C517 1.363 . S
C523 C518 1.379 . S
C523 N521 1.356 . S
N524 C516 1.356 . S
N524 H530 0.984 . S
N524 H531 0.984 . S
N525 C518 1.356 . S
N525 H528 0.984 . S
N525 H529 0.985 . S
H526 N521 0.984 . S
H527 N521 0.985 . S
H528 N525 0.984 . S
H529 N525 0.985 . S
H530 N524 0.984 . S
H531 N524 0.984 . S
H532 N520 0.984 . S
H533 N520 0.985 . S
C534 C535 1.363 . S
C534 C540 1.379 . S
C534 N542 1.356 . S
C535 C534 1.363 . S
C535 C541 1.363 . S
C536 C537 1.363 . S
C536 C541 1.379 . S
C536 N543 1.356 . S
C537 C536 1.363 . S
C537 C540 1.363 . S
N538 C540 1.356 . S
N538 H550 0.984 . S
N538 H551 0.985 . S
N539 C541 1.356 . S
N539 H544 0.984 . S
N539 H545 0.985 . S
C540 C534 1.379 . S
C540 C537 1.363 . S
C540 N538 1.356 . S
C541 C535 1.363 . S
C541 C536 1.379 . S
C541 N539 1.356 . S
N542 C534 1.356 . S
N542 H548 0.984 . S
N542 H549 0.984 . S
N543 C536 1.356 . S
N543 H546 0.984 . S
N543 H547 0.985 . S
H544 N539 0.984 . S
H545 N539 0.985 . S
H546 N543 0.984 . S
H547 N543 0.985 . S
H548 N542 0.984 . S
H549 N542 0.984 . S
H550 N538 0.984 . S
H551 N538 0.985 . S
C552 C553 1.363 . S
C552 C558 1.379 . S
C552 N560 1.356 . S
C553 C552 1.363 . S
C553 C559 1.363 . S
C554 C555 1.363 . S
C554 C559 1.379 . S
C554 N561 1.356 . S
C555 C554 1.363 . S
C555 C558 1.363 . S
N556 C558 1.356 . S
N556 H568 0.984 . S
N556 H569 0.985 . S
N557 C559 1.356 . S
N557 H562 0.984 . S
N557 H563 0.985 . S
C558 C552 1.379 . S
C558 C555 1.363 . S
C558 N556 1.356 . S
C559 C553 1.363 . S
C559 C554 1.379 . S
C559 N557 1.356 . S
N560 C552 1.356 . S
N560 H566 0.984 . S
N560 H567 0.984 . S
N561 C554 1.356 . S
N561 H564 0.984 . S
N561 H565 0.985 . S
H562 N557 0.984 . S
H563 N557 0.985 . S
H564 N561 0.984 . S
H565 N561 0.985 . S
H566 N560 0.984 . S
H567 N560 0.984 . S
H568 N556 0.984 . S
H569 N556 0.985 . S
C570 C571 1.363 . S
C570 C576 1.379 . S
C570 N578 1.356 . S
C571 C570 1.363 . S
C571 C577 1.363 . S
C572 C573 1.363 . S
C572 C577 1.379 . S
C572 N579 1.356 . S
C573 C572 1.363 . S
C573 C576 1.363 . S
N574 C576 1.356 . S
N574 H586 0.984 . S
N574 H587 0.985 . S
N575 C577 1.356 . S
N575 H580 0.984 . S
N575 H581 0.985 . S
C576 C570 1.379 . S
C576 C573 1.363 . S
C576 N574 1.356 . S
C577 C571 1.363 . S
C577 C572 1.379 . S
C577 N575 1.356 . S
N578 C570 1.356 . S
N578 H584 0.984 . S
N578 H585 0.984 . S
N579 C572 1.356 . S
N579 H582 0.984 . S
N579 H583 0.985 . S
H580 N575 0.984 . S
H581 N575 0.985 . S
H582 N579 0.984 . S
H583 N579 0.985 . S
H584 N578 0.984 . S
H585 N578 0.984 . S
H586 N574 0.984 . S
H587 N574 0.985 . S
C588 C589 1.363 . S
C588 C594 1.379 . S
C588 N596 1.356 . S
C589 C588 1.363 . S
C589 C595 1.363 . S
C590 C591 1.363 . S
C590 C595 1.379 . S
C590 N597 1.356 . S
C591 C590 1.363 . S
C591 C594 1.363 . S
N592 C594 1.356 . S
N592 H604 0.984 . S
N592 H605 0.985 . S
N593 C595 1.356 . S
N593 H598 0.984 . S
N593 H599 0.985 . S
C594 C588 1.379 . S
C594 C591 1.363 . S
C594 N592 1.356 . S
C595 C589 1.363 . S
C595 C590 1.379 . S
C595 N593 1.356 . S
N596 C588 1.356 . S
N596 H602 0.984 . S
N596 H603 0.984 . S
N597 C590 1.356 . S
N597 H600 0.984 . S
N597 H601 0.985 . S
H598 N593 0.984 . S
H599 N593 0.985 . S
H600 N597 0.984 . S
H601 N597 0.985 . S
H602 N596 0.984 . S
H603 N596 0.984 . S
H604 N592 0.984 . S
H605 N592 0.985 . S
C606 C607 1.363 . S
C606 C612 1.379 1_554 S
C606 N614 1.356 . S
C607 C606 1.363 . S
C607 C613 1.363 . S
C608 C609 1.363 . S
C608 C613 1.379 . S
C608 N615 1.356 . S
C609 C608 1.363 . S
C609 C612 1.363 1_554 S
N610 C612 1.356 . S
N610 H622 0.984 . S
N610 H623 0.985 . S
N611 C613 1.356 . S
N611 H616 0.984 . S
N611 H617 0.985 . S
C612 C606 1.379 1_556 S
C612 C609 1.363 1_556 S
C612 N610 1.356 . S
C613 C607 1.363 . S
C613 C608 1.379 . S
C613 N611 1.356 . S
N614 C606 1.356 . S
N614 H620 0.984 . S
N614 H621 0.984 . S
N615 C608 1.356 . S
N615 H618 0.984 . S
N615 H619 0.985 . S
H616 N611 0.984 . S
H617 N611 0.985 . S
H618 N615 0.984 . S
H619 N615 0.985 . S
H620 N614 0.984 . S
H621 N614 0.984 . S
H622 N610 0.984 . S
H623 N610 0.985 . S
C624 C625 1.363 . S
C624 C630 1.379 . S
C624 N632 1.356 . S
C625 C624 1.363 . S
C625 C631 1.363 . S
C626 C627 1.363 . S
C626 C631 1.379 . S
C626 N633 1.356 . S
C627 C626 1.363 . S
C627 C630 1.363 . S
N628 C630 1.356 . S
N628 H640 0.984 . S
N628 H641 0.985 . S
N629 C631 1.356 . S
N629 H634 0.984 . S
N629 H635 0.985 . S
C630 C624 1.379 . S
C630 C627 1.363 . S
C630 N628 1.356 . S
C631 C625 1.363 . S
C631 C626 1.379 . S
C631 N629 1.356 . S
N632 C624 1.356 . S
N632 H638 0.984 . S
N632 H639 0.984 . S
N633 C626 1.356 . S
N633 H636 0.984 . S
N633 H637 0.985 . S
H634 N629 0.984 . S
H635 N629 0.985 . S
H636 N633 0.984 . S
H637 N633 0.985 . S
H638 N632 0.984 . S
H639 N632 0.984 . S
H640 N628 0.984 . S
H641 N628 0.985 . S
C213 C199 1.579 . S
C211 C19 1.481 . S
C229 C40 1.493 . S
C231 C129 1.579 . S
C247 C51 1.483 . S
C249 C148 1.596 . S
C265 C72 1.468 . S
C267 C157 1.583 . S
C285 C171 1.577 . S
C283 C103 1.492 . S
C301 C114 1.477 . S
C303 C190 1.589 . S
C319 C30 1.470 . S
C321 C143 1.576 . S
C337 C61 1.477 . S
C339 C162 1.576 . S
C355 C82 1.484 . S
C357 C176 1.571 . S
C375 C185 1.570 . S
C373 C93 1.465 . S
C393 C204 1.575 . S
C391 C124 1.476 . S
C411 C134 1.576 . S
C409 C9 1.472 . S
C427 C17 1.435 . S
C429 C149 1.508 . S
C445 C38 1.441 . S
C447 C161 1.494 . S
C465 C175 1.482 . S
C463 C54 1.420 . S
C481 C75 1.427 . S
C483 C191 1.507 1_556 S
C501 C203 1.493 . S
C499 C101 1.441 . S
C519 C133 1.482 . S
C517 C117 1.420 . S
C537 C205 1.510 . S
C535 C33 1.433 . S
C553 C59 1.429 . S
C555 C135 1.517 . S
C573 C147 1.496 . S
C571 C80 1.439 . S
C589 C96 1.434 . S
C591 C163 1.512 . S
C607 C122 1.428 . S
C609 C177 1.516 1_554 S
C625 C12 1.432 . S
C627 C189 1.495 . S
