# Generated by pormake.
# Topology ssc, (4,4)-cn, num edge types: 1
# Building blocks:
#     Node 0, Type 0, BuildingBlock: QUQFOY_clean_sbu_3, # of connection points: 4
#     Node 1, Type 0, BuildingBlock: QUQFOY_clean_sbu_3, # of connection points: 4
#     Node 2, Type 0, BuildingBlock: QUQFOY_clean_sbu_3, # of connection points: 4
#     Node 3, Type 0, BuildingBlock: QUQFOY_clean_sbu_3, # of connection points: 4
#     Node 4, Type 0, BuildingBlock: QUQFOY_clean_sbu_3, # of connection points: 4
#     Node 5, Type 0, BuildingBlock: QUQFOY_clean_sbu_3, # of connection points: 4
#     Node 6, Type 0, BuildingBlock: QUQFOY_clean_sbu_3, # of connection points: 4
#     Node 7, Type 0, BuildingBlock: QUQFOY_clean_sbu_3, # of connection points: 4
#     Node 8, Type 0, BuildingBlock: QUQFOY_clean_sbu_3, # of connection points: 4
#     Node 9, Type 0, BuildingBlock: QUQFOY_clean_sbu_3, # of connection points: 4
#     Node 10, Type 0, BuildingBlock: QUQFOY_clean_sbu_3, # of connection points: 4
#     Node 11, Type 0, BuildingBlock: QUQFOY_clean_sbu_3, # of connection points: 4
#     Node 12, Type 1, BuildingBlock: GIZVER_clean_linker_0, # of connection points: 4
#     Node 13, Type 1, BuildingBlock: GIZVER_clean_linker_0, # of connection points: 4
#     Node 14, Type 1, BuildingBlock: GIZVER_clean_linker_0, # of connection points: 4
#     Node 15, Type 1, BuildingBlock: GIZVER_clean_linker_0, # of connection points: 4
#     Node 16, Type 1, BuildingBlock: GIZVER_clean_linker_0, # of connection points: 4
#     Node 17, Type 1, BuildingBlock: GIZVER_clean_linker_0, # of connection points: 4
#     Node 18, Type 1, BuildingBlock: GIZVER_clean_linker_0, # of connection points: 4
#     Node 19, Type 1, BuildingBlock: GIZVER_clean_linker_0, # of connection points: 4
#     Node 20, Type 1, BuildingBlock: GIZVER_clean_linker_0, # of connection points: 4
#     Node 21, Type 1, BuildingBlock: GIZVER_clean_linker_0, # of connection points: 4
#     Node 22, Type 1, BuildingBlock: GIZVER_clean_linker_0, # of connection points: 4
#     Node 23, Type 1, BuildingBlock: GIZVER_clean_linker_0, # of connection points: 4
#     Edge 24, Type (0, 1), BuildingBlock: UVAHIK_clean_linker_0, # of connection points: 2
#     Edge 25, Type (0, 1), BuildingBlock: UVAHIK_clean_linker_0, # of connection points: 2
#     Edge 26, Type (0, 1), BuildingBlock: UVAHIK_clean_linker_0, # of connection points: 2
#     Edge 27, Type (0, 1), BuildingBlock: UVAHIK_clean_linker_0, # of connection points: 2
#     Edge 28, Type (0, 1), BuildingBlock: UVAHIK_clean_linker_0, # of connection points: 2
#     Edge 29, Type (0, 1), BuildingBlock: UVAHIK_clean_linker_0, # of connection points: 2
#     Edge 30, Type (0, 1), BuildingBlock: UVAHIK_clean_linker_0, # of connection points: 2
#     Edge 31, Type (0, 1), BuildingBlock: UVAHIK_clean_linker_0, # of connection points: 2
#     Edge 32, Type (0, 1), BuildingBlock: UVAHIK_clean_linker_0, # of connection points: 2
#     Edge 33, Type (0, 1), BuildingBlock: UVAHIK_clean_linker_0, # of connection points: 2
#     Edge 34, Type (0, 1), BuildingBlock: UVAHIK_clean_linker_0, # of connection points: 2
#     Edge 35, Type (0, 1), BuildingBlock: UVAHIK_clean_linker_0, # of connection points: 2
#     Edge 36, Type (0, 1), BuildingBlock: UVAHIK_clean_linker_0, # of connection points: 2
#     Edge 37, Type (0, 1), BuildingBlock: UVAHIK_clean_linker_0, # of connection points: 2
#     Edge 38, Type (0, 1), BuildingBlock: UVAHIK_clean_linker_0, # of connection points: 2
#     Edge 39, Type (0, 1), BuildingBlock: UVAHIK_clean_linker_0, # of connection points: 2
#     Edge 40, Type (0, 1), BuildingBlock: UVAHIK_clean_linker_0, # of connection points: 2
#     Edge 41, Type (0, 1), BuildingBlock: UVAHIK_clean_linker_0, # of connection points: 2
#     Edge 42, Type (0, 1), BuildingBlock: UVAHIK_clean_linker_0, # of connection points: 2
#     Edge 43, Type (0, 1), BuildingBlock: UVAHIK_clean_linker_0, # of connection points: 2
#     Edge 44, Type (0, 1), BuildingBlock: UVAHIK_clean_linker_0, # of connection points: 2
#     Edge 45, Type (0, 1), BuildingBlock: UVAHIK_clean_linker_0, # of connection points: 2
#     Edge 46, Type (0, 1), BuildingBlock: UVAHIK_clean_linker_0, # of connection points: 2
#     Edge 47, Type (0, 1), BuildingBlock: UVAHIK_clean_linker_0, # of connection points: 2
#     Edge 48, Type (0, 1), BuildingBlock: UVAHIK_clean_linker_0, # of connection points: 2
#     Edge 49, Type (0, 1), BuildingBlock: UVAHIK_clean_linker_0, # of connection points: 2
#     Edge 50, Type (0, 1), BuildingBlock: UVAHIK_clean_linker_0, # of connection points: 2
#     Edge 51, Type (0, 1), BuildingBlock: UVAHIK_clean_linker_0, # of connection points: 2
#     Edge 52, Type (0, 1), BuildingBlock: UVAHIK_clean_linker_0, # of connection points: 2
#     Edge 53, Type (0, 1), BuildingBlock: UVAHIK_clean_linker_0, # of connection points: 2
#     Edge 54, Type (0, 1), BuildingBlock: UVAHIK_clean_linker_0, # of connection points: 2
#     Edge 55, Type (0, 1), BuildingBlock: UVAHIK_clean_linker_0, # of connection points: 2
#     Edge 56, Type (0, 1), BuildingBlock: UVAHIK_clean_linker_0, # of connection points: 2
#     Edge 57, Type (0, 1), BuildingBlock: UVAHIK_clean_linker_0, # of connection points: 2
#     Edge 58, Type (0, 1), BuildingBlock: UVAHIK_clean_linker_0, # of connection points: 2
#     Edge 59, Type (0, 1), BuildingBlock: UVAHIK_clean_linker_0, # of connection points: 2
#     Edge 60, Type (0, 1), BuildingBlock: UVAHIK_clean_linker_0, # of connection points: 2
#     Edge 61, Type (0, 1), BuildingBlock: UVAHIK_clean_linker_0, # of connection points: 2
#     Edge 62, Type (0, 1), BuildingBlock: UVAHIK_clean_linker_0, # of connection points: 2
#     Edge 63, Type (0, 1), BuildingBlock: UVAHIK_clean_linker_0, # of connection points: 2
#     Edge 64, Type (0, 1), BuildingBlock: UVAHIK_clean_linker_0, # of connection points: 2
#     Edge 65, Type (0, 1), BuildingBlock: UVAHIK_clean_linker_0, # of connection points: 2
#     Edge 66, Type (0, 1), BuildingBlock: UVAHIK_clean_linker_0, # of connection points: 2
#     Edge 67, Type (0, 1), BuildingBlock: UVAHIK_clean_linker_0, # of connection points: 2
#     Edge 68, Type (0, 1), BuildingBlock: UVAHIK_clean_linker_0, # of connection points: 2
#     Edge 69, Type (0, 1), BuildingBlock: UVAHIK_clean_linker_0, # of connection points: 2
#     Edge 70, Type (0, 1), BuildingBlock: UVAHIK_clean_linker_0, # of connection points: 2
#     Edge 71, Type (0, 1), BuildingBlock: UVAHIK_clean_linker_0, # of connection points: 2
# Relax obj value: 0.121
# Max RMSD: 0.297
# Mean RMSD: 0.278
data_MOF--net-ssc--node1-QUQFOY_clean_sbu_3--node2-GIZVER_clean_linker_0--edge1-UVAHIK_clean_linker_0
_symmetry_space_group_name_H-M    P1
_symmetry_Int_Tables_number       1
_symmetry_cell_setting            triclinic
loop_
_symmetry_equiv_pos_as_xyz
'x, y, z'
_cell_length_a     40.536678
_cell_length_b     40.714251
_cell_length_c     40.724439
_cell_angle_alpha  92.479134
_cell_angle_beta   90.099306
_cell_angle_gamma 91.251904
loop_
_atom_site_label
_atom_site_type_symbol
_atom_site_fract_x
_atom_site_fract_y
_atom_site_fract_z
_atom_type_partial_charge
C0 C 0.09171 0.23102 0.22536 0.0
O1 O 0.09463 0.20002 0.22345 0.0
Cd2 Cd 0.06111 0.16549 0.18715 0.0
O3 O 0.07122 0.24493 0.20698 0.0
Cd4 Cd 0.03104 0.23061 0.16231 0.0
C5 C 0.98322 0.18743 0.21326 0.0
O6 O 0.06382 0.18798 0.13393 0.0
O7 O 0.01271 0.19061 0.11966 0.0
O8 O 0.05343 0.27828 0.13551 0.0
C9 C 0.04085 0.17851 0.11438 0.0
O10 O 0.00552 0.16597 0.21005 0.0
C11 C 0.02601 0.28973 0.12696 0.0
O12 O 0.98666 0.21523 0.20029 0.0
O13 O 0.0002 0.27443 0.13611 0.0
C14 C 0.09028 0.74383 0.2852 0.0
O15 O 0.09236 0.77484 0.28976 0.0
Cd16 Cd 0.05959 0.80531 0.32781 0.0
O17 O 0.07006 0.72679 0.30191 0.0
Cd18 Cd 0.02931 0.73707 0.34719 0.0
C19 C 0.98195 0.7823 0.29909 0.0
O20 O 0.06443 0.77703 0.37752 0.0
O21 O 0.01352 0.77562 0.39246 0.0
O22 O 0.04904 0.68896 0.37405 0.0
C23 C 0.04286 0.78562 0.39832 0.0
O24 O 0.00453 0.80426 0.3037 0.0
C25 C 0.02087 0.6772 0.38127 0.0
O26 O 0.98486 0.75398 0.31078 0.0
O27 O -0.00393 0.6919 0.37038 0.0
C28 C 0.59276 0.72962 0.71937 0.0
O29 O 0.59739 0.6989 0.71692 0.0
Cd30 Cd 0.56274 0.66259 0.6835 0.0
O31 O 0.57026 0.74243 0.70251 0.0
Cd32 Cd 0.5288 0.72528 0.65988 0.0
C33 C 0.48553 0.68195 0.71357 0.0
O34 O 0.56005 0.68267 0.62944 0.0
O35 O 0.50734 0.68267 0.62177 0.0
O36 O 0.54809 0.77123 0.6286 0.0
C37 C 0.53518 0.67167 0.61319 0.0
O38 O 0.50836 0.66123 0.70907 0.0
C39 C 0.51987 0.78194 0.62169 0.0
O40 O 0.4873 0.70993 0.70073 0.0
O41 O 0.49515 0.76725 0.63403 0.0
C42 C 0.54815 0.26067 0.79897 0.0
O43 O 0.55221 0.29168 0.80158 0.0
Cd44 Cd 0.52418 0.32714 0.83932 0.0
O45 O 0.5278 0.24587 0.81752 0.0
Cd46 Cd 0.4887 0.26121 0.86309 0.0
C47 C 0.44467 0.30897 0.81367 0.0
O48 O 0.52703 0.30071 0.88998 0.0
O49 O 0.47716 0.30186 0.90784 0.0
O50 O 0.50234 0.21134 0.89141 0.0
C51 C 0.50686 0.31189 0.91102 0.0
O52 O 0.46874 0.32947 0.81686 0.0
C53 C 0.47275 0.20283 0.89758 0.0
O54 O 0.44588 0.28097 0.82639 0.0
O55 O 0.45037 0.22052 0.8862 0.0
C56 C 0.10761 0.03815 0.17222 0.0
O57 O 0.11032 0.06473 0.18958 0.0
Cd58 Cd 0.14389 0.07067 0.23808 0.0
O59 O 0.12483 0.01342 0.17879 0.0
Cd60 Cd 0.16928 0.00092 0.21854 0.0
C61 C 0.11553 0.00513 0.28162 0.0
O62 O 0.1983 0.05485 0.2227 0.0
O63 O 0.21106 0.01983 0.25863 0.0
O64 O 0.20019 0.97537 0.17352 0.0
C65 C 0.21703 0.04722 0.246 0.0
O66 O 0.11823 0.03618 0.27923 0.0
C67 C 0.20554 0.94878 0.18762 0.0
O68 O 0.13012 0.9858 0.26128 0.0
O69 O 0.19265 0.9457 0.21575 0.0
C70 C 0.17777 0.88607 0.51212 0.0
O71 O 0.19288 0.87353 0.48754 0.0
Cd72 Cd 0.23732 0.83697 0.49257 0.0
O73 O 0.1843 0.87759 0.54124 0.0
Cd74 Cd 0.21988 0.8369 0.56875 0.0
C75 C 0.28669 0.88212 0.54893 0.0
O76 O 0.2155 0.79445 0.52474 0.0
O77 O 0.25501 0.78843 0.55891 0.0
O78 O 0.17223 0.82557 0.60373 0.0
C79 C 0.23862 0.77683 0.53436 0.0
O80 O 0.28186 0.86965 0.52001 0.0
C81 C 0.1889 0.82146 0.62959 0.0
O82 O 0.26659 0.87606 0.57201 0.0
O83 O 0.21993 0.82572 0.62756 0.0
C84 C 0.39081 0.94012 0.67156 0.0
O85 O 0.38297 0.91424 0.68634 0.0
Cd86 Cd 0.3439 0.91265 0.73049 0.0
O87 O 0.3764 0.96709 0.6785 0.0
Cd88 Cd 0.33156 0.98792 0.71513 0.0
C89 C 0.37913 0.97329 0.7818 0.0
O90 O 0.29568 0.93833 0.71064 0.0
O91 O 0.2805 0.97691 0.74495 0.0
O92 O 0.31336 0.02098 0.67009 0.0
C93 C 0.27432 0.94915 0.73078 0.0
O94 O 0.37252 0.94289 0.77573 0.0
C95 C 0.31169 0.04767 0.68733 0.0
O96 O 0.36811 -0.00504 0.76326 0.0
O97 O 0.32023 0.04673 0.71729 0.0
C98 C 0.20966 0.10086 0.0425 0.0
O99 O 0.22651 0.10721 0.0684 0.0
Cd100 Cd 0.2752 0.14132 0.06984 0.0
O101 O 0.21711 0.11441 0.01568 0.0
Cd102 Cd 0.25775 0.15672 -0.00418 0.0
C103 C 0.32052 0.10483 0.0067 0.0
O104 O 0.25951 0.19147 0.04651 0.0
O105 O 0.29728 0.20122 0.01096 0.0
O106 O 0.2125 0.17971 0.96453 0.0
C107 C 0.28359 0.20944 0.03791 0.0
O108 O 0.31647 0.11105 0.03736 0.0
C109 C 0.22939 0.18441 0.93884 0.0
O110 O 0.30155 0.11702 0.98566 0.0
O111 O 0.25905 0.17506 0.93913 0.0
C112 C 0.69886 0.36241 0.98456 0.0
O113 O 0.71709 0.35124 0.96156 0.0
Cd114 Cd 0.76356 0.31824 0.97043 0.0
O115 O 0.70318 0.3541 0.01415 0.0
Cd116 Cd 0.73886 0.31552 0.04439 0.0
C117 C 0.80333 0.3668 0.03143 0.0
O118 O 0.74209 0.27381 0.00033 0.0
O119 O 0.77876 0.27054 0.03818 0.0
O120 O 0.69022 0.29363 0.07123 0.0
C121 C 0.76504 0.25771 0.01257 0.0
O122 O 0.80196 0.35485 0.00199 0.0
C123 C 0.70234 0.29425 0.10002 0.0
O124 O 0.78226 0.35792 0.05265 0.0
O125 O 0.73121 0.30669 0.10357 0.0
C126 C 0.88722 0.46815 0.16756 0.0
O127 O 0.87925 0.44217 0.18206 0.0
Cd128 Cd 0.84173 0.44221 0.22726 0.0
O129 O 0.87281 0.4951 0.1746 0.0
Cd130 Cd 0.82657 0.51538 0.21001 0.0
C131 C 0.87675 0.50644 0.27502 0.0
O132 O 0.79181 0.4653 0.20865 0.0
O133 O 0.78052 0.50188 0.24651 0.0
O134 O 0.80474 0.54214 0.16252 0.0
C135 C 0.77278 0.47479 0.23164 0.0
O136 O 0.87029 0.47579 0.2705 0.0
C137 C 0.80088 0.57004 0.17699 0.0
O138 O 0.86512 0.52707 0.25566 0.0
O139 O 0.80979 0.57295 0.20692 0.0
C140 C 0.69337 0.61266 0.52875 0.0
O141 O 0.71006 0.62057 0.55441 0.0
Cd142 Cd 0.75669 0.65724 0.5541 0.0
O143 O 0.69943 0.62631 0.50167 0.0
Cd144 Cd 0.73633 0.67059 0.47982 0.0
C145 C 0.80002 0.61991 0.48969 0.0
O146 O 0.73732 0.7057 0.53016 0.0
O147 O 0.77337 0.71768 0.49364 0.0
O148 O 0.68786 0.68748 0.44909 0.0
C149 C 0.75997 0.72509 0.52095 0.0
O150 O 0.79683 0.62689 0.52032 0.0
C151 C 0.70379 0.69505 0.42358 0.0
O152 O 0.78048 0.63161 0.46887 0.0
O153 O 0.73462 0.69021 0.42373 0.0
C154 C 0.61711 0.52095 0.67511 0.0
O155 O 0.62114 0.54633 0.69403 0.0
Cd156 Cd 0.65625 0.54875 0.74131 0.0
O157 O 0.63385 0.49524 0.67922 0.0
Cd158 Cd 0.67985 0.47899 0.71601 0.0
C159 C 0.62905 0.48026 0.78156 0.0
O160 O 0.70905 0.53236 0.72193 0.0
O161 O 0.72345 0.49575 0.75548 0.0
O162 O 0.71051 0.45607 0.66945 0.0
C163 C 0.7287 0.52385 0.74406 0.0
O164 O 0.63165 0.51145 0.7806 0.0
C165 C 0.71452 0.42803 0.68115 0.0
O166 O 0.64288 0.46188 0.75982 0.0
O167 O 0.70092 0.42296 0.70859 0.0
H168 H 0.0864 0.27769 0.52186 0.0
H169 H 0.03062 0.21525 0.45266 0.0
H170 H 0.07948 0.17342 0.53389 0.0
H171 H 0.06622 0.30011 0.47267 0.0
H172 H 0.05177 0.27273 0.43979 0.0
H173 H -0.00183 0.26074 0.51018 0.0
H174 H 0.92709 0.33019 0.48153 0.0
H175 H 0.02204 0.32932 0.43512 0.0
C176 C 0.07648 0.25365 0.51415 0.0
C177 C 0.08477 0.22609 0.53176 0.0
C178 C 0.05625 0.25003 0.48598 0.0
C179 C 0.0449 0.21845 0.47514 0.0
C180 C 0.05277 0.191 0.49293 0.0
C181 C 0.07208 0.19508 0.52136 0.0
C182 C 0.04851 0.27955 0.46632 0.0
C183 C 0.01381 0.29224 0.47083 0.0
C184 C -0.00867 0.27998 0.49412 0.0
C185 C 0.95969 0.29306 0.4972 0.0
C186 C 0.9508 0.31883 0.47756 0.0
C187 C 0.97317 0.33245 0.45552 0.0
C188 C 0.00451 0.31879 0.452 0.0
H189 H 0.05112 0.73744 0.92081 0.0
H190 H 0.03223 0.77532 0.01931 0.0
H191 H 0.04894 0.84174 0.94178 0.0
H192 H 0.0545 0.70164 0.96731 0.0
H193 H 0.04793 0.71779 0.00839 0.0
H194 H -0.00856 0.72019 0.93359 0.0
H195 H 0.92032 0.65394 0.97349 0.0
H196 H 0.01006 0.67707 0.02658 0.0
C197 C 0.04717 0.75811 0.93792 0.0
C198 C 0.04981 0.79028 0.92693 0.0
C199 C 0.03979 0.75243 0.97103 0.0
C200 C 0.03627 0.7794 -0.00651 0.0
C201 C 0.03918 0.81163 0.9828 0.0
C202 C 0.04519 0.81677 0.94953 0.0
C203 C 0.03833 0.71767 0.98277 0.0
C204 C 0.00383 0.70249 0.98147 0.0
C205 C 0.98343 0.70552 0.95372 0.0
C206 C 0.95288 0.68878 0.95127 0.0
C207 C 0.94296 0.66845 0.97648 0.0
C208 C 0.96341 0.66377 0.00361 0.0
C209 C -0.00622 0.68107 0.00606 0.0
H210 H 0.5062 0.66996 0.93108 0.0
H211 H 0.5385 0.74936 -0.00143 0.0
H212 H 0.59756 0.66417 0.98374 0.0
H213 H 0.48797 0.73329 0.92718 0.0
H214 H 0.46607 0.71209 0.95725 0.0
H215 H 0.49845 0.79184 0.93401 0.0
H216 H 0.4608 0.8434 0.01948 0.0
H217 H 0.45936 0.73772 0.01451 0.0
C218 C 0.5243 0.68095 0.94811 0.0
C219 C 0.55285 0.66373 0.95508 0.0
C220 C 0.51879 0.71218 0.9631 0.0
C221 C 0.54224 0.7258 0.98595 0.0
C222 C 0.57069 0.70843 -0.00696 0.0
C223 C 0.57598 0.67786 0.97726 0.0
C224 C 0.48743 0.72927 0.95402 0.0
C225 C 0.48123 0.7612 0.97292 0.0
C226 C 0.48859 0.7914 0.95872 0.0
C227 C 0.48154 0.82101 0.97576 0.0
C228 C 0.46782 0.8204 0.00722 0.0
C229 C 0.45933 0.79056 0.02127 0.0
C230 C 0.46636 0.76092 0.00412 0.0
H231 H 0.55965 0.23978 0.41525 0.0
H232 H 0.53135 0.27745 0.51147 0.0
H233 H 0.54952 0.34366 0.43392 0.0
H234 H 0.55965 0.20421 0.4616 0.0
H235 H 0.5511 0.22061 0.50226 0.0
H236 H 0.49235 0.22806 0.43061 0.0
H237 H 0.42652 0.15273 0.46373 0.0
H238 H 0.51848 0.17159 0.51388 0.0
C239 C 0.55307 0.26025 0.43167 0.0
C240 C 0.55463 0.29233 0.42045 0.0
C241 C 0.5435 0.25455 0.46422 0.0
C242 C 0.5369 0.28145 0.48591 0.0
C243 C 0.53874 0.3136 0.47487 0.0
C244 C 0.54663 0.3187 0.44198 0.0
C245 C 0.54251 0.21993 0.47626 0.0
C246 C 0.50851 0.20369 0.47413 0.0
C247 C 0.48629 0.20998 0.44848 0.0
C248 C 0.45626 0.19234 0.44525 0.0
C249 C 0.44889 0.16764 0.46713 0.0
C250 C 0.47124 0.15994 0.49164 0.0
C251 C 0.50078 0.17825 0.49546 0.0
H252 H 0.44179 0.00837 0.20423 0.0
H253 H 0.51043 0.03984 0.28139 0.0
H254 H 0.49955 0.09727 0.1964 0.0
H255 H 0.44152 0.0 0.27931 0.0
H256 H 0.45267 0.97157 0.24744 0.0
H257 H 0.46791 -0.00198 0.33145 0.0
H258 H 0.55013 0.9349 0.34321 0.0
H259 H 0.51221 0.94961 0.24664 0.0
C260 C 0.46028 0.02565 0.21425 0.0
C261 C 0.46862 0.05368 0.19685 0.0
C262 C 0.47505 0.02029 0.24495 0.0
C263 C 0.49884 0.04327 0.25784 0.0
C264 C 0.50737 0.07119 0.2404 0.0
C265 C 0.49211 0.07615 0.21022 0.0
C266 C 0.46285 -0.00852 0.26435 0.0
C267 C 0.48853 0.97719 0.28631 0.0
C268 C 0.48713 0.98293 0.3207 0.0
C269 C 0.50961 0.968 0.34133 0.0
C270 C 0.53386 0.94789 0.32729 0.0
C271 C 0.5348 0.94083 0.29337 0.0
C272 C 0.51222 0.9557 0.27281 0.0
H273 H 0.21754 0.45858 0.57528 0.0
H274 H 0.27767 0.53168 0.52845 0.0
H275 H 0.32275 0.44876 0.57052 0.0
H276 H 0.19371 0.5102 0.55962 0.0
H277 H 0.219 0.54151 0.54172 0.0
H278 H 0.22549 0.45854 0.50037 0.0
H279 H 0.15716 0.47813 0.42417 0.0
H280 H 0.1667 0.546 0.50768 0.0
C281 C 0.24147 0.46746 0.56722 0.0
C282 C 0.26977 0.44983 0.57416 0.0
C283 C 0.24401 0.49653 0.54976 0.0
C284 C 0.27535 0.5086 0.54064 0.0
C285 C 0.30371 0.49116 0.54788 0.0
C286 C 0.30064 0.46152 0.56385 0.0
C287 C 0.21325 0.51464 0.54109 0.0
C288 C 0.19924 0.50456 0.50746 0.0
C289 C 0.20786 0.47502 0.49037 0.0
C290 C 0.193 0.46601 0.46022 0.0
C291 C 0.16937 0.4861 0.44698 0.0
C292 C 0.15958 0.5149 0.46391 0.0
C293 C 0.17458 0.52402 0.49418 0.0
H294 H 0.04937 -0.00322 0.70503 0.0
H295 H 0.9459 0.98618 0.7271 0.0
H296 H -0.00448 0.909 0.67347 0.0
H297 H 0.02301 0.04118 0.73245 0.0
H298 H 0.98051 0.04382 0.72134 0.0
H299 H 0.03745 0.01306 0.78586 0.0
H300 H 0.9663 0.02735 0.86275 0.0
H301 H 0.93964 0.04476 0.763 0.0
C302 C 0.02682 0.98197 0.7047 0.0
C303 C 0.02616 0.95093 0.68841 0.0
C304 C -0.00197 -0.00537 0.71908 0.0
C305 C 0.96839 0.976 0.71702 0.0
C306 C 0.96757 0.94464 0.70136 0.0
C307 C -0.00335 0.9322 0.68759 0.0
C308 C -0.0016 0.02884 0.73464 0.0
C309 C 0.98914 0.0278 0.77033 0.0
C310 C 0.0125 0.01855 0.79353 0.0
C311 C 0.00399 0.01767 0.82679 0.0
C312 C 0.97201 0.02588 0.83671 0.0
C313 C 0.94884 0.03634 0.81406 0.0
C314 C 0.95736 0.03663 0.78071 0.0
H315 H 0.28921 0.53712 0.04427 0.0
H316 H 0.23026 0.45176 0.01387 0.0
H317 H 0.18336 0.54042 0.04706 0.0
H318 H 0.31271 0.48147 0.04044 0.0
H319 H 0.28878 0.44716 0.0236 0.0
H320 H 0.29006 0.52607 0.97812 0.0
H321 H 0.36295 0.49268 0.90962 0.0
H322 H 0.33885 0.43425 -0.00806 0.0
C323 C 0.26526 0.52567 0.03914 0.0
C324 C 0.23652 0.54326 0.046 0.0
C325 C 0.26325 0.49299 0.02637 0.0
C326 C 0.2321 0.47753 0.02166 0.0
C327 C 0.20335 0.49492 0.02877 0.0
C328 C 0.20573 0.52783 0.03994 0.0
C329 C 0.29441 0.47381 0.02106 0.0
C330 C 0.31078 0.47849 0.98808 0.0
C331 C 0.30666 0.50699 0.96996 0.0
C332 C 0.32522 0.51171 0.94153 0.0
C333 C 0.34778 0.48808 0.93094 0.0
C334 C 0.35287 0.46005 0.9489 0.0
C335 C 0.3343 0.45541 0.97743 0.0
H336 H 0.72112 0.92488 0.08791 0.0
H337 H 0.76519 0.00897 0.04243 0.0
H338 H 0.82588 0.93054 0.07274 0.0
H339 H 0.68681 0.96963 0.07473 0.0
H340 H 0.70635 0.00852 0.06662 0.0
H341 H 0.72177 0.93555 0.00955 0.0
H342 H 0.6588 0.96922 0.93438 0.0
H343 H 0.65761 0.0173 0.03043 0.0
C344 C 0.74262 0.9377 0.07857 0.0
C345 C 0.77383 0.9239 0.08147 0.0
C346 C 0.73916 0.96801 0.06361 0.0
C347 C 0.76749 0.98507 0.05283 0.0
C348 C 0.79874 0.97128 0.0557 0.0
C349 C 0.80155 0.94051 0.06934 0.0
C350 C 0.70524 0.98196 0.05895 0.0
C351 C 0.69316 0.97858 0.02364 0.0
C352 C 0.70424 0.95334 0.00173 0.0
C353 C 0.6925 0.9507 0.9694 0.0
C354 C 0.66884 0.97245 0.95907 0.0
C355 C 0.65569 -0.00384 0.98097 0.0
C356 C 0.66794 -0.00078 0.01328 0.0
H357 H 0.51414 0.54735 0.19426 0.0
H358 H 0.42163 0.50746 0.22848 0.0
H359 H 0.48813 0.44555 0.17415 0.0
H360 H 0.47948 0.58232 0.22632 0.0
H361 H 0.43721 0.57283 0.21612 0.0
H362 H 0.49996 0.54382 0.27734 0.0
H363 H 0.4339 0.55665 0.35877 0.0
H364 H 0.40308 0.58214 0.26226 0.0
C365 C 0.49747 0.52652 0.19724 0.0
C366 C 0.50521 0.49573 0.18282 0.0
C367 C 0.46765 0.53074 0.21436 0.0
C368 C 0.44523 0.50403 0.21645 0.0
C369 C 0.45309 0.47303 0.2028 0.0
C370 C 0.48324 0.46903 0.18658 0.0
C371 C 0.4591 0.56397 0.22935 0.0
C372 C 0.45169 0.56167 0.26546 0.0
C373 C 0.47581 0.55021 0.28672 0.0
C374 C 0.46898 0.54748 0.32015 0.0
C375 C 0.43821 0.55688 0.33249 0.0
C376 C 0.41454 0.5701 0.312 0.0
C377 C 0.42124 0.57198 0.2783 0.0
H378 H 0.76046 0.06662 0.5614 0.0
H379 H 0.73371 0.97238 0.51535 0.0
H380 H 0.65887 0.03538 0.55513 0.0
H381 H 0.80275 0.02988 0.54659 0.0
H382 H 0.79081 0.9874 0.5412 0.0
H383 H 0.77681 0.0594 0.48622 0.0
H384 H 0.83978 0.01992 0.41074 0.0
H385 H 0.82793 0.96927 0.50052 0.0
C386 C 0.74171 0.04925 0.55203 0.0
C387 C 0.70852 0.05457 0.55968 0.0
C388 C 0.75099 0.01994 0.53518 0.0
C389 C 0.72661 -0.00397 0.526 0.0
C390 C 0.69329 0.00195 0.53269 0.0
C391 C 0.68447 0.03167 0.54838 0.0
C392 C 0.78708 0.01221 0.53156 0.0
C393 C 0.79888 0.01282 0.49642 0.0
C394 C 0.79208 0.03961 0.47683 0.0
C395 C 0.80611 0.04143 0.44552 0.0
C396 C 0.82753 0.01701 0.43413 0.0
C397 C 0.83602 -0.0089 0.45388 0.0
C398 C 0.82115 0.9889 0.48484 0.0
H399 H 0.9893 0.49111 0.69516 0.0
H400 H 0.0296 0.53634 0.78506 0.0
H401 H 0.03211 0.58853 0.6959 0.0
H402 H 0.9739 0.48762 0.77343 0.0
H403 H 0.98907 0.45967 0.7428 0.0
H404 H -0.00137 0.49191 0.82702 0.0
H405 H 0.07865 0.42859 0.84799 0.0
H406 H 0.04663 0.43703 0.74835 0.0
C407 C 0.00212 0.51138 0.70818 0.0
C408 C 0.00973 0.54007 0.69155 0.0
C409 C 0.00937 0.50952 0.74202 0.0
C410 C 0.02478 0.53678 0.75892 0.0
C411 C 0.03309 0.5651 0.74207 0.0
C412 C 0.02567 0.56642 0.70865 0.0
C413 C -0.00324 0.48017 0.7603 0.0
C414 C 0.02122 0.46758 0.78463 0.0
C415 C 0.01808 0.47583 0.81848 0.0
C416 C 0.03907 0.46216 0.84146 0.0
C417 C 0.06348 0.4406 0.8303 0.0
C418 C 0.06616 0.43123 0.797 0.0
C419 C 0.04526 0.44499 0.77405 0.0
C420 C 0.05421 0.33356 0.0958 0.0
C421 C 0.02476 0.31776 0.10499 0.0
C422 C 0.05418 0.357 0.07186 0.0
C423 C -0.00069 0.40974 0.02282 0.0
H424 H 0.07456 0.40774 0.96428 0.0
C425 C 0.00223 0.45451 0.88975 0.0
C426 C 0.0328 0.46508 0.87731 0.0
C427 C -0.00057 0.446 0.9226 0.0
C428 C 0.05365 0.40926 0.98076 0.0
H429 H 0.97183 0.31533 0.09731 0.0
H430 H 0.97167 0.35641 0.05535 0.0
H431 H 0.07297 0.37227 0.0101 0.0
H432 H 0.08315 0.47902 0.89017 0.0
H433 H 0.07824 0.46465 0.94747 0.0
H434 H 0.9795 0.44586 -0.00828 0.0
C435 C -0.0051 0.35079 0.06674 0.0
C436 C 0.05268 0.38875 0.00725 0.0
C437 C -0.00504 0.32713 0.09078 0.0
C438 C 0.05937 0.47072 0.89914 0.0
C439 C 0.05658 0.46229 0.93189 0.0
C440 C 0.00015 0.43013 -0.00409 0.0
C441 C 0.02466 0.36556 0.05641 0.0
C442 C 0.02549 0.38847 0.02867 0.0
C443 C 0.02718 0.44796 0.94345 0.0
C444 C 0.02728 0.42989 0.97444 0.0
H445 H 0.07761 0.32717 0.10643 0.0
H446 H 0.0776 0.36811 0.06528 0.0
H447 H 0.97818 0.41075 0.03901 0.0
H448 H 0.98142 0.4497 0.87338 0.0
H449 H 0.97644 0.43501 0.9307 0.0
C450 C 0.95291 0.8194 0.26192 0.0
C451 C 0.95327 0.78963 0.27817 0.0
C452 C 0.92759 0.82581 0.24011 0.0
C453 C 0.84276 0.809 0.21656 0.0
H454 H 0.8732 0.83891 0.13248 0.0
C455 C 0.77195 0.89517 0.13425 0.0
C456 C 0.77909 0.89436 0.10052 0.0
C457 C 0.78622 0.87254 0.15462 0.0
C458 C 0.86401 0.82993 0.15546 0.0
H459 H 0.92633 0.74383 0.28522 0.0
H460 H 0.88143 0.75552 0.24707 0.0
H461 H 0.91273 0.81941 0.17151 0.0
H462 H 0.80329 0.86732 0.06088 0.0
H463 H 0.82729 0.82707 0.09615 0.0
H464 H 0.794 0.82087 0.20081 0.0
C465 C 0.90116 0.77358 0.25126 0.0
C466 C 0.8868 0.81911 0.17798 0.0
C467 C 0.92687 0.76692 0.27297 0.0
C468 C 0.79761 0.86847 0.08689 0.0
C469 C 0.81153 0.84565 0.10714 0.0
C470 C 0.8198 0.82015 0.19399 0.0
C471 C 0.90178 0.80281 0.23414 0.0
C472 C 0.87658 0.80944 0.20906 0.0
C473 C 0.80768 0.84868 0.14146 0.0
C474 C 0.83032 0.83146 0.16345 0.0
H475 H 0.97264 0.8376 0.26539 0.0
H476 H 0.92837 0.84876 0.22759 0.0
H477 H 0.83431 0.80163 0.24042 0.0
H478 H 0.75795 0.91511 0.14532 0.0
H479 H 0.78279 0.87568 0.18093 0.0
C480 C 0.50962 0.63501 0.56936 0.0
C481 C 0.53808 0.64673 0.58606 0.0
C482 C 0.51196 0.61256 0.54278 0.0
C483 C 0.56929 0.58463 0.47859 0.0
H484 H 0.49495 0.52589 0.45825 0.0
C485 C 0.51958 0.56502 0.35042 0.0
C486 C 0.49519 0.54076 0.3438 0.0
C487 C 0.53684 0.56577 0.38009 0.0
C488 C 0.5166 0.54124 0.46348 0.0
H489 H 0.5914 0.6437 0.5884 0.0
H490 H 0.59542 0.60418 0.54172 0.0
H491 H 0.50089 0.55029 0.51294 0.0
H492 H 0.47271 0.49571 0.36014 0.0
H493 H 0.5046 0.49545 0.41106 0.0
H494 H 0.58538 0.57516 0.42924 0.0
C495 C 0.57133 0.61245 0.54926 0.0
C496 C 0.51961 0.55581 0.49495 0.0
C497 C 0.56901 0.63509 0.57595 0.0
C498 C 0.49139 0.51475 0.36501 0.0
C499 C 0.50934 0.51496 0.39435 0.0
C500 C 0.5668 0.56935 0.44727 0.0
C501 C 0.5428 0.60096 0.53235 0.0
C502 C 0.54478 0.57924 0.50224 0.0
C503 C 0.53028 0.54193 0.40347 0.0
C504 C 0.5392 0.54917 0.43863 0.0
H505 H 0.48543 0.64356 0.57645 0.0
H506 H 0.4895 0.60505 0.52983 0.0
H507 H 0.58921 0.60234 0.48342 0.0
H508 H 0.52267 0.58542 0.33439 0.0
H509 H 0.55259 0.58704 0.38586 0.0
C510 C 0.58697 0.25848 0.75124 0.0
C511 C 0.56771 0.24186 0.77428 0.0
C512 C 0.60609 0.24101 0.72832 0.0
C513 C 0.64596 0.16167 0.71427 0.0
H514 H 0.64361 0.1819 0.62207 0.0
C515 C 0.68231 0.06909 0.61302 0.0
C516 C 0.69911 0.07957 0.58511 0.0
C517 C 0.67123 0.09176 0.63673 0.0
C518 C 0.64508 0.17641 0.64781 0.0
H519 H 0.55326 0.19382 0.79108 0.0
H520 H 0.58673 0.16327 0.75097 0.0
H521 H 0.61322 0.21578 0.66221 0.0
H522 H 0.71864 0.12178 0.56046 0.0
H523 H 0.69893 0.16215 0.60243 0.0
H524 H 0.67731 0.12206 0.69997 0.0
C525 C 0.58717 0.18989 0.75092 0.0
C526 C 0.62756 0.19569 0.67075 0.0
C527 C 0.56784 0.20735 0.77373 0.0
C528 C 0.7056 0.11325 0.58178 0.0
C529 C 0.69422 0.1362 0.60562 0.0
C530 C 0.66355 0.14256 0.69143 0.0
C531 C 0.60657 0.20656 0.72807 0.0
C532 C 0.62719 0.18796 0.70408 0.0
C533 C 0.67674 0.12557 0.63324 0.0
C534 C 0.66257 0.14915 0.65784 0.0
H535 H 0.5874 0.28507 0.75092 0.0
H536 H 0.62093 0.25449 0.71112 0.0
H537 H 0.64672 0.15563 0.73991 0.0
H538 H 0.67734 0.04317 0.6163 0.0
H539 H 0.65745 0.08276 0.65739 0.0
C540 C 0.04507 0.64317 0.42422 0.0
C541 C 0.01744 0.65131 0.4056 0.0
C542 C 0.04134 0.62465 0.45202 0.0
C543 C 0.98757 0.56923 0.49794 0.0
H544 H 0.02807 0.61486 0.57381 0.0
C545 C 0.98498 0.57303 0.64804 0.0
C546 C 0.00043 0.54405 0.65669 0.0
C547 C 0.98242 0.581 0.61523 0.0
C548 C 0.01671 0.60179 0.55282 0.0
H549 H 0.96461 0.64368 0.39976 0.0
H550 H 0.95829 0.6101 0.44809 0.0
H551 H 0.03426 0.63746 0.51974 0.0
H552 H 0.02262 0.49925 0.63765 0.0
H553 H 0.01776 0.51321 0.57958 0.0
H554 H 0.97055 0.53316 0.53164 0.0
C555 C 0.9827 0.61879 0.44138 0.0
C556 C 0.02038 0.61461 0.52186 0.0
C557 C 0.98633 0.63801 0.41377 0.0
C558 C 0.01059 0.52171 0.63161 0.0
C559 C 0.00783 0.52967 0.5985 0.0
C560 C 0.98448 0.5559 0.52907 0.0
C561 C 0.01002 0.61317 0.46152 0.0
C562 C 0.00583 0.59858 0.49407 0.0
C563 C -0.00505 0.56004 0.59025 0.0
C564 C -0.00126 0.57239 0.55678 0.0
H565 H 0.06944 0.65275 0.41854 0.0
H566 H 0.06292 0.62019 0.46679 0.0
H567 H 0.97614 0.55648 0.47688 0.0
H568 H 0.97646 0.59045 0.66687 0.0
H569 H 0.97212 0.6044 0.60943 0.0
C570 C 0.60482 0.78354 0.74921 0.0
C571 C 0.61303 0.7506 0.74253 0.0
C572 C 0.6229 0.80303 0.77212 0.0
C573 C 0.67771 0.79728 0.84398 0.0
H574 H 0.68669 0.89107 0.83291 0.0
C575 C 0.71688 0.92913 0.917 0.0
C576 C 0.7013 0.92302 0.94688 0.0
C577 C 0.7171 0.9048 0.89175 0.0
C578 C 0.68526 0.86486 0.83632 0.0
H579 H 0.64732 0.71253 0.75409 0.0
H580 H 0.67935 0.74684 0.79366 0.0
H581 H 0.6662 0.8557 0.7878 0.0
H582 H 0.67554 0.88665 0.97493 0.0
H583 H 0.67473 0.84448 0.9307 0.0
H584 H 0.6971 0.80649 0.8925 0.0
C585 C 0.6585 0.7574 0.78161 0.0
C586 C 0.67286 0.84459 0.8105 0.0
C587 C 0.64021 0.73778 0.75882 0.0
C588 C 0.68808 0.89162 0.95213 0.0
C589 C 0.68771 0.86747 0.9267 0.0
C590 C 0.69054 0.81754 0.86975 0.0
C591 C 0.64989 0.7902 0.78873 0.0
C592 C 0.66778 0.81074 0.8144 0.0
C593 C 0.70089 0.87428 0.89566 0.0
C594 C 0.69342 0.85178 0.86664 0.0
H595 H 0.58393 0.79417 0.73726 0.0
H596 H 0.61508 0.82796 0.77744 0.0
H597 H 0.67413 0.77131 0.8479 0.0
H598 H 0.72713 0.95332 0.91255 0.0
H599 H 0.72831 0.91063 0.86854 0.0
C600 C 0.49448 0.34847 0.95999 0.0
C601 C 0.517 0.33728 0.93616 0.0
C602 C 0.50418 0.37214 0.98404 0.0
C603 C 0.57452 0.4069 0.02951 0.0
H604 H 0.51381 0.47702 0.05008 0.0
C605 C 0.54964 0.4625 0.15617 0.0
C606 C 0.5322 0.49197 0.15849 0.0
C607 C 0.56294 0.45165 0.12614 0.0
C608 C 0.53169 0.45828 0.04429 0.0
H609 H 0.56734 0.34232 0.91862 0.0
H610 H 0.58414 0.38391 0.96086 0.0
H611 H 0.50362 0.44048 0.00264 0.0
H612 H 0.52118 0.53638 0.13346 0.0
H613 H 0.54559 0.51806 0.0815 0.0
H614 H 0.60181 0.42393 0.07234 0.0
C615 C 0.55912 0.37415 0.96087 0.0
C616 C 0.52546 0.43697 0.01726 0.0
C617 C 0.54944 0.3504 0.93675 0.0
C618 C 0.53399 0.51329 0.13231 0.0
C619 C 0.54769 0.50262 0.10237 0.0
C620 C 0.58072 0.4282 0.05685 0.0
C621 C 0.53648 0.38536 0.98456 0.0
C622 C 0.54617 0.41049 0.01022 0.0
C623 C 0.5593 0.47039 0.09821 0.0
C624 C 0.5587 0.45347 0.06516 0.0
H625 H 0.46933 0.33877 0.96023 0.0
H626 H 0.48646 0.37989 0.00252 0.0
H627 H 0.59091 0.38663 0.0245 0.0
H628 H 0.54935 0.44598 0.17633 0.0
H629 H 0.57215 0.42689 0.12404 0.0
C630 C 0.94757 0.14719 0.24216 0.0
C631 C 0.95352 0.17964 0.23295 0.0
C632 C 0.92084 0.13947 0.26205 0.0
C633 C 0.86712 0.17465 0.3255 0.0
H634 H 0.82393 0.08914 0.31329 0.0
C635 C 0.78535 0.06864 0.39631 0.0
C636 C 0.80327 0.07076 0.42581 0.0
C637 C 0.79189 0.09089 0.37178 0.0
C638 C 0.83486 0.11352 0.31697 0.0
H639 H 0.93551 0.22943 0.23702 0.0
H640 H 0.88853 0.21581 0.27226 0.0
H641 H 0.85788 0.11018 0.26982 0.0
H642 H 0.8401 0.09879 0.45411 0.0
H643 H 0.85235 0.13701 0.41133 0.0
H644 H 0.84449 0.17769 0.37301 0.0
C645 C 0.90479 0.19643 0.26393 0.0
C646 C 0.85483 0.12537 0.29206 0.0
C647 C 0.93159 0.20417 0.24367 0.0
C648 C 0.82561 0.09712 0.43169 0.0
C649 C 0.83259 0.11903 0.40702 0.0
C650 C 0.84687 0.16287 0.35045 0.0
C651 C 0.89923 0.16396 0.27342 0.0
C652 C 0.87246 0.1553 0.29665 0.0
C653 C 0.81718 0.11502 0.37601 0.0
C654 C 0.83167 0.13144 0.34711 0.0
H655 H 0.96385 0.12762 0.23434 0.0
H656 H 0.91772 0.11433 0.26936 0.0
H657 H 0.88026 0.1979 0.32975 0.0
H658 H 0.76823 0.04824 0.39121 0.0
H659 H 0.77885 0.08757 0.3486 0.0
C660 C 0.07897 0.01304 0.33063 0.0
C661 C 0.0939 -0.00832 0.30737 0.0
C662 C 0.05621 0.00107 0.35306 0.0
C663 C -0.00391 0.93331 0.36105 0.0
H664 H 0.98172 0.9797 0.4447 0.0
C665 C 0.88982 0.96478 0.4661 0.0
C666 C 0.86415 0.9701 0.44381 0.0
C667 C 0.9203 0.95352 0.45479 0.0
C668 C 0.98548 0.96564 0.42189 0.0
H669 H 0.09782 0.94058 0.29063 0.0
H670 H 0.05803 0.9196 0.33005 0.0
H671 H 0.03343 0.98731 0.41626 0.0
H672 H 0.84887 0.96355 0.3929 0.0
H673 H 0.90201 0.94541 0.37299 0.0
H674 H 0.94783 0.9119 0.36648 0.0
C675 C 0.06369 0.94574 0.33058 0.0
C676 C 0.01515 0.97048 0.4053 0.0
C677 C 0.08659 0.95777 0.30807 0.0
C678 C 0.86842 0.9604 0.41059 0.0
C679 C 0.89895 0.94958 0.39922 0.0
C680 C 0.96646 0.92815 0.37784 0.0
C681 C 0.04774 0.96736 0.35293 0.0
C682 C 0.02011 0.95583 0.37388 0.0
C683 C 0.92585 0.94775 0.42093 0.0
C684 C 0.96005 0.94566 0.40763 0.0
H685 H 0.0841 0.03927 0.33097 0.0
H686 H 0.04413 0.0186 0.3695 0.0
H687 H -0.00094 0.92142 0.33697 0.0
H688 H 0.8874 0.97187 0.4919 0.0
H689 H 0.94015 0.95148 0.47236 0.0
C690 C 0.19091 0.78717 0.67883 0.0
C691 C 0.17328 0.80815 0.6591 0.0
C692 C 0.17451 0.76859 0.70212 0.0
C693 C 0.08999 0.7353 0.71553 0.0
H694 H 0.13388 0.69045 0.78483 0.0
C695 C 0.02861 0.62214 0.76485 0.0
C696 C 0.04833 0.59475 0.75832 0.0
C697 C 0.04281 0.65376 0.76708 0.0
C698 C 0.12117 0.70307 0.76582 0.0
H699 H 0.12561 0.82927 0.65084 0.0
H700 H 0.09732 0.79876 0.69305 0.0
H701 H 0.16026 0.73888 0.76181 0.0
H702 H 0.09831 0.57825 0.75189 0.0
H703 H 0.12335 0.63347 0.75621 0.0
H704 H 0.05125 0.69934 0.71914 0.0
C705 C 0.12342 0.79495 0.68935 0.0
C706 C 0.13638 0.73066 0.75234 0.0
C707 C 0.13965 0.81278 0.66535 0.0
C708 C 0.08274 0.59902 0.7576 0.0
C709 C 0.09701 0.63067 0.75995 0.0
C710 C 0.07463 0.70825 0.72937 0.0
C711 C 0.14021 0.77119 0.70678 0.0
C712 C 0.12159 0.74637 0.72603 0.0
C713 C 0.07696 0.65843 0.76265 0.0
C714 C 0.09051 0.69109 0.75382 0.0
H715 H 0.2169 0.78315 0.67453 0.0
H716 H 0.18852 0.75062 0.71471 0.0
H717 H 0.0778 0.74599 0.69502 0.0
H718 H 0.00196 0.61938 0.76496 0.0
H719 H 0.02679 0.67468 0.76946 0.0
C720 C 0.40751 0.01609 0.8193 0.0
C721 C 0.40261 0.98295 0.80868 0.0
C722 C 0.43248 0.02511 0.84205 0.0
C723 C 0.51331 -0.00262 0.86591 0.0
H724 H 0.50566 0.05231 0.94562 0.0
C725 C 0.62764 0.02942 0.93981 0.0
C726 C 0.62654 0.01417 0.97008 0.0
C727 C 0.59852 0.03581 0.92316 0.0
C728 C 0.50803 0.03719 0.92328 0.0
H729 H 0.41926 0.93325 0.8148 0.0
H730 H 0.46299 0.94908 0.85354 0.0
H731 H 0.45702 0.04189 0.90996 0.0
H732 H 0.59434 -0.00295 0.00841 0.0
H733 H 0.54313 0.00854 0.97927 0.0
H734 H 0.56405 -0.0072 0.87866 0.0
C735 C 0.44756 0.96807 0.84433 0.0
C736 C 0.48034 0.03121 0.90295 0.0
C737 C 0.42234 0.959 0.82225 0.0
C738 C 0.59582 0.0091 0.98524 0.0
C739 C 0.56655 0.01558 0.96854 0.0
C740 C 0.54092 0.00396 0.88564 0.0
C741 C 0.45334 0.00123 0.85399 0.0
C742 C 0.48263 0.01049 0.87452 0.0
C743 C 0.56779 0.02714 0.93653 0.0
C744 C 0.53854 0.02353 0.91473 0.0
H745 H 0.3926 0.03511 0.80943 0.0
H746 H 0.43644 0.05085 0.84912 0.0
H747 H 0.51592 0.98172 0.8439 0.0
H748 H 0.65103 0.03359 0.92766 0.0
H749 H 0.60006 0.04497 0.89862 0.0
C750 C 0.2831 0.24362 0.09063 0.0
C751 C 0.29751 0.23606 0.05992 0.0
C752 C 0.29712 0.26805 0.11184 0.0
C753 C 0.37598 0.31217 0.12895 0.0
H754 H 0.32241 0.37755 0.17423 0.0
C755 C 0.43823 0.41374 0.20846 0.0
C756 C 0.42863 0.44551 0.20107 0.0
C757 C 0.41855 0.38644 0.19887 0.0
C758 C 0.33766 0.35938 0.16185 0.0
H759 H 0.33752 0.24856 0.02711 0.0
H760 H 0.36177 0.29121 0.06392 0.0
H761 H 0.2958 0.33354 0.14022 0.0
H762 H 0.38992 0.47399 0.18022 0.0
H763 H 0.35563 0.42632 0.16305 0.0
H764 H 0.41785 0.33848 0.14918 0.0
C765 C 0.33995 0.27797 0.07186 0.0
C766 C 0.32243 0.33407 0.14257 0.0
C767 C 0.32592 0.25368 0.05066 0.0
C768 C 0.39772 0.44974 0.18646 0.0
C769 C 0.37811 0.42239 0.1766 0.0
C770 C 0.39116 0.33733 0.14818 0.0
C771 C 0.32589 0.28525 0.10279 0.0
C772 C 0.34152 0.31061 0.12539 0.0
C773 C 0.38906 0.39038 0.18138 0.0
C774 C 0.37225 0.36157 0.16446 0.0
H775 H 0.26118 0.23045 0.09844 0.0
H776 H 0.28583 0.27301 0.13558 0.0
H777 H 0.39133 0.29417 0.11643 0.0
H778 H 0.46189 0.40994 0.21996 0.0
H779 H 0.42729 0.36215 0.20362 0.0
C780 C 0.06998 0.06375 0.1324 0.0
C781 C 0.08254 0.03538 0.14575 0.0
C782 C 0.04348 0.0615 0.11042 0.0
C783 C 0.98724 0.00031 0.06398 0.0
H784 H 0.92545 0.07105 0.07571 0.0
C785 C 0.83891 0.01603 0.07117 0.0
C786 C 0.8294 0.99011 0.04924 0.0
C787 C 0.87164 0.02747 0.07228 0.0
C788 C 0.94218 0.05084 0.0723 0.0
H789 H 0.07833 0.98223 0.14518 0.0
H790 H 0.03154 0.97825 0.10801 0.0
H791 H 0.97985 0.07739 0.09906 0.0
H792 H 0.84549 0.95762 0.00934 0.0
H793 H 0.90222 0.97912 0.0094 0.0
H794 H 0.94821 0.97242 0.04039 0.0
C795 C 0.04233 0.00237 0.11364 0.0
C796 C 0.97402 0.05473 0.08524 0.0
C797 C 0.06916 0.00459 0.13533 0.0
C798 C 0.85236 0.97781 0.02636 0.0
C799 C 0.88499 0.9898 0.02687 0.0
C800 C 0.955 -0.00398 0.05198 0.0
C801 C 0.02848 0.03092 0.10142 0.0
C802 C -0.00329 0.029 0.08247 0.0
C803 C 0.89557 0.01359 0.05103 0.0
C804 C 0.93152 0.02073 0.0572 0.0
H805 H 0.0801 0.08786 0.13957 0.0
H806 H 0.03418 0.08401 0.10142 0.0
H807 H 0.00421 0.9804 0.05989 0.0
H808 H 0.82172 0.02543 0.08945 0.0
H809 H 0.87843 0.0454 0.09162 0.0
C810 C 0.28288 0.73764 0.51759 0.0
C811 C 0.25094 0.74943 0.51309 0.0
C812 C 0.29624 0.71508 0.49475 0.0
C813 C 0.27771 0.65384 0.42827 0.0
H814 H 0.36319 0.68103 0.39495 0.0
C815 C 0.36784 0.57142 0.35234 0.0
C816 C 0.38555 0.58634 0.32712 0.0
C817 C 0.34583 0.58961 0.37183 0.0
C818 C 0.33918 0.67326 0.40377 0.0
H819 H 0.20722 0.74528 0.48225 0.0
H820 H 0.2305 0.70536 0.4426 0.0
H821 H 0.33662 0.71467 0.43774 0.0
H822 H 0.39244 0.6313 0.30108 0.0
H823 H 0.35395 0.663 0.33504 0.0
H824 H 0.28077 0.61199 0.39449 0.0
C825 C 0.2452 0.71384 0.46367 0.0
C826 C 0.32418 0.69229 0.42854 0.0
C827 C 0.23197 0.73675 0.4863 0.0
C828 C 0.37898 0.61905 0.32016 0.0
C829 C 0.35722 0.6373 0.33981 0.0
C830 C 0.29302 0.63444 0.40372 0.0
C831 C 0.27778 0.70352 0.46722 0.0
C832 C 0.29339 0.68275 0.44112 0.0
C833 C 0.34143 0.6231 0.36659 0.0
C834 C 0.32388 0.64406 0.39122 0.0
H835 H 0.2981 0.74685 0.538 0.0
H836 H 0.32132 0.7072 0.49821 0.0
H837 H 0.25394 0.64599 0.43759 0.0
H838 H 0.37235 0.54617 0.3581 0.0
H839 H 0.33401 0.57808 0.39235 0.0
C840 C 0.43188 0.96886 0.63612 0.0
C841 C 0.41883 0.9395 0.64822 0.0
C842 C 0.46077 0.96871 0.61744 0.0
C843 C 0.53482 0.91889 0.60148 0.0
H844 H 0.54923 0.98089 0.53325 0.0
C845 C 0.64163 0.97627 0.50958 0.0
C846 C 0.66796 0.97547 0.53185 0.0
C847 C 0.611 0.96209 0.5173 0.0
C848 C 0.54574 0.96273 0.55161 0.0
H849 H 0.425 0.8867 0.64857 0.0
H850 H 0.47492 0.88645 0.61558 0.0
H851 H 0.49591 0.97688 0.55907 0.0
H852 H 0.68419 0.95705 0.57798 0.0
H853 H 0.63114 0.93399 0.5924 0.0
H854 H 0.58445 0.90416 0.59391 0.0
C855 C 0.46327 0.90967 0.62105 0.0
C856 C 0.51504 0.96098 0.56695 0.0
C857 C 0.43449 0.90982 0.63987 0.0
C858 C 0.66431 0.9574 0.56017 0.0
C859 C 0.63353 0.94426 0.56846 0.0
C860 C 0.56555 0.92045 0.58602 0.0
C861 C 0.47713 0.93917 0.61008 0.0
C862 C 0.50923 0.93939 0.59234 0.0
C863 C 0.60585 0.94823 0.54811 0.0
C864 C 0.57175 0.94277 0.56115 0.0
H865 H 0.42044 -0.00782 0.64199 0.0
H866 H 0.47085 -0.00801 0.60975 0.0
H867 H 0.53144 0.90207 0.62113 0.0
H868 H 0.64389 0.99037 0.48771 0.0
H869 H 0.59082 0.96433 0.50017 0.0
C870 C 0.18178 0.20599 0.90759 0.0
C871 C 0.21599 0.20249 0.9112 0.0
C872 C 0.16929 0.22629 0.88387 0.0
C873 C 0.18919 0.30197 0.84641 0.0
H874 H 0.11628 0.28008 0.78718 0.0
C875 C 0.12107 0.40596 0.78807 0.0
C876 C 0.0866 0.40256 0.78857 0.0
C877 C 0.1408 0.37851 0.79164 0.0
C878 C 0.13648 0.28678 0.80372 0.0
H879 H 0.2639 0.21669 0.89213 0.0
H880 H 0.24199 0.25306 0.8514 0.0
H881 H 0.14249 0.2367 0.81681 0.0
H882 H 0.04555 0.36809 0.79147 0.0
H883 H 0.07937 0.32057 0.79886 0.0
H884 H 0.18187 0.35208 0.83597 0.0
C885 C 0.22494 0.23967 0.86662 0.0
C886 C 0.15161 0.26181 0.82048 0.0
C887 C 0.23741 0.21881 0.88986 0.0
C888 C 0.07215 0.3711 0.79029 0.0
C889 C 0.09175 0.34381 0.79459 0.0
C890 C 0.17363 0.32702 0.8303 0.0
C891 C 0.19079 0.24398 0.86377 0.0
C892 C 0.17764 0.2693 0.84248 0.0
C893 C 0.12636 0.34733 0.79691 0.0
C894 C 0.14644 0.31997 0.80931 0.0
H895 H 0.16469 0.19369 0.92365 0.0
H896 H 0.14287 0.22943 0.88235 0.0
H897 H 0.20904 0.30844 0.86349 0.0
H898 H 0.13267 0.43013 0.78723 0.0
H899 H 0.16731 0.3822 0.79222 0.0
C900 C 0.35716 0.08006 0.96279 0.0
C901 C 0.34683 0.08216 -0.00424 0.0
C902 C 0.38115 0.05758 0.95259 0.0
C903 C 0.444 0.0014 0.98468 0.0
H904 H 0.42352 0.94835 0.90586 0.0
C905 C 0.45362 0.85961 0.94062 0.0
C906 C 0.48145 0.85243 0.95918 0.0
C907 C 0.44618 0.89215 0.93486 0.0
C908 C 0.42989 0.96294 0.92786 0.0
H909 H 0.35396 0.06259 0.0439 0.0
H910 H 0.39483 0.02312 0.02614 0.0
H911 H 0.39237 -0.00251 0.91848 0.0
H912 H 0.52539 0.87269 0.98314 0.0
H913 H 0.51408 0.92957 0.97079 0.0
H914 H 0.47959 0.96596 -0.00433 0.0
C915 C 0.38511 0.03921 0.00816 0.0
C916 C 0.41208 -0.0086 0.93498 0.0
C917 C 0.36138 0.06172 0.01834 0.0
C918 C 0.50383 0.87781 0.96863 0.0
C919 C 0.4969 0.91041 0.96204 0.0
C920 C 0.46165 0.97293 0.9777 0.0
C921 C 0.3951 0.03658 0.97511 0.0
C922 C 0.41805 0.01025 0.9642 0.0
C923 C 0.46675 0.91823 0.94719 0.0
C924 C 0.45393 0.95243 0.94988 0.0
H925 H 0.34664 0.09571 0.94484 0.0
H926 H 0.38858 0.05646 0.92704 0.0
H927 H 0.44961 0.01547 0.00717 0.0
H928 H 0.43581 0.84034 0.93354 0.0
H929 H 0.42265 0.89664 0.92352 0.0
C930 C 0.82965 0.40844 0.0716 0.0
C931 C 0.82816 0.39315 0.03995 0.0
C932 C 0.85072 0.43571 0.07814 0.0
C933 C 0.91965 0.48485 0.04133 0.0
H934 H 0.88093 0.55761 0.09092 0.0
C935 C 0.92137 0.63239 0.03552 0.0
C936 C 0.95442 0.63718 0.02612 0.0
C937 C 0.91076 0.60266 0.04824 0.0
C938 C 0.8921 0.53758 0.07692 0.0
H939 H 0.84887 0.39373 -0.00914 0.0
H940 H 0.88447 0.44124 0.00183 0.0
H941 H 0.85394 0.50361 0.09025 0.0
H942 H 0.003 0.61598 0.02633 0.0
H943 H 0.98481 0.56466 0.04992 0.0
H944 H 0.95568 0.51931 0.02504 0.0
C945 C 0.87004 0.43208 0.02196 0.0
C946 C 0.87684 0.50639 0.0769 0.0
C947 C 0.84925 0.40483 0.01551 0.0
C948 C 0.97735 0.61307 0.03323 0.0
C949 C 0.96678 0.58339 0.04629 0.0
C950 C 0.93435 0.51611 0.04061 0.0
C951 C 0.87066 0.44835 0.05316 0.0
C952 C 0.88986 0.47984 0.05822 0.0
C953 C 0.93305 0.57712 0.05223 0.0
C954 C 0.92042 0.54311 0.05781 0.0
H955 H 0.81392 0.39992 0.09109 0.0
H956 H 0.85086 0.44727 0.10259 0.0
H957 H 0.93095 0.46485 0.0274 0.0
H958 H 0.90321 0.65075 0.03082 0.0
H959 H 0.88461 0.59895 0.05245 0.0
C960 C 0.77753 0.62677 0.17718 0.0
C961 C 0.78486 0.59703 0.16016 0.0
C962 C 0.75952 0.65084 0.16187 0.0
C963 C 0.72901 0.67478 0.07988 0.0
H964 H 0.65586 0.71094 0.12966 0.0
C965 C 0.58928 0.70784 0.05076 0.0
C966 C 0.59412 0.71937 0.01917 0.0
C967 C 0.61594 0.70579 0.07231 0.0
C968 C 0.67623 0.70121 0.11539 0.0
H969 H 0.7801 0.56978 0.11339 0.0
H970 H 0.74847 0.61116 0.08702 0.0
H971 H 0.69769 0.68021 0.15749 0.0
H972 H 0.62946 0.74075 0.98619 0.0
H973 H 0.6759 0.73899 0.02442 0.0
H974 H 0.70641 0.69322 0.03738 0.0
C975 C 0.75693 0.61633 0.11198 0.0
C976 C 0.70047 0.68386 0.13146 0.0
C977 C 0.77489 0.59239 0.12722 0.0
C978 C 0.62517 0.73215 0.01066 0.0
C979 C 0.65182 0.73056 0.03239 0.0
C980 C 0.70467 0.6918 0.0638 0.0
C981 C 0.74856 0.64567 0.12921 0.0
C982 C 0.72645 0.66931 0.11362 0.0
C983 C 0.64796 0.71537 0.06263 0.0
C984 C 0.67724 0.70418 0.08109 0.0
H985 H 0.78497 0.63113 0.20258 0.0
H986 H 0.75381 0.67327 0.17575 0.0
H987 H 0.74909 0.66459 0.06551 0.0
H988 H 0.56561 0.69726 0.05751 0.0
H989 H 0.61182 0.69373 0.09516 0.0
C990 C 0.65713 0.57473 0.56044 0.0
C991 C 0.66809 0.58595 0.53006 0.0
C992 C 0.63508 0.54795 0.56171 0.0
C993 C 0.57881 0.49406 0.50865 0.0
H994 H 0.59193 0.43184 0.57649 0.0
C995 C 0.56586 0.3478 0.51925 0.0
C996 C 0.53888 0.34253 0.49797 0.0
C997 C 0.57335 0.37934 0.53242 0.0
C998 C 0.58789 0.44891 0.55731 0.0
H999 H 0.66433 0.57788 0.47722 0.0
H1000 H 0.62713 0.5306 0.47934 0.0
H1001 H 0.623 0.48352 0.57851 0.0
H1002 H 0.49632 0.36473 0.47672 0.0
H1003 H 0.5079 0.41947 0.50157 0.0
H1004 H 0.54586 0.45866 0.48587 0.0
C1005 C 0.63452 0.543 0.50231 0.0
C1006 C 0.60546 0.4789 0.55869 0.0
C1007 C 0.65615 0.57008 0.50102 0.0
C1008 C 0.51728 0.36833 0.49313 0.0
C1009 C 0.52429 0.39975 0.50695 0.0
C1010 C 0.56159 0.46402 0.50701 0.0
C1011 C 0.62364 0.53149 0.53268 0.0
C1012 C 0.60186 0.50152 0.53382 0.0
C1013 C 0.55367 0.40613 0.5249 0.0
C1014 C 0.56666 0.44049 0.53073 0.0
H1015 H 0.66575 0.58652 0.58331 0.0
H1016 H 0.62724 0.54007 0.58551 0.0
H1017 H 0.57496 0.51086 0.48929 0.0
H1018 H 0.58309 0.32831 0.52295 0.0
H1019 H 0.59626 0.38299 0.54591 0.0
C1020 C 0.23681 0.89636 0.19047 0.0
C1021 C 0.22835 0.92422 0.17325 0.0
C1022 C 0.26182 0.87574 0.1788 0.0
C1023 C 0.33686 0.88039 0.12973 0.0
H1024 H 0.33232 0.78509 0.12268 0.0
C1025 C 0.40612 0.77741 0.04882 0.0
C1026 C 0.43803 0.79152 0.05075 0.0
C1027 C 0.38197 0.7872 0.07148 0.0
C1028 C 0.334 0.81169 0.12477 0.0
H1029 H 0.23817 0.95121 0.1294 0.0
H1030 H 0.28158 0.91535 0.10917 0.0
H1031 H 0.28508 0.81568 0.14462 0.0
H1032 H 0.47094 0.82362 0.0799 0.0
H1033 H 0.42912 0.84001 0.12008 0.0
H1034 H 0.38495 0.87696 0.10901 0.0
C1035 C 0.26925 0.90969 0.13189 0.0
C1036 C 0.30704 0.82913 0.13739 0.0
C1037 C 0.24423 0.93012 0.14339 0.0
C1038 C 0.44642 0.81259 0.07781 0.0
C1039 C 0.4224 0.82215 0.1006 0.0
C1040 C 0.36372 0.86308 0.11741 0.0
C1041 C 0.27891 0.88282 0.14988 0.0
C1042 C 0.30799 0.8637 0.13919 0.0
C1043 C 0.38945 0.81113 0.09649 0.0
C1044 C 0.36247 0.82854 0.11419 0.0
H1045 H 0.22496 0.89115 0.21355 0.0
H1046 H 0.26877 0.85517 0.19312 0.0
H1047 H 0.33849 0.90701 0.13133 0.0
H1048 H 0.39896 0.76132 0.02801 0.0
H1049 H 0.35685 0.77826 0.06755 0.0
C1050 C 0.14726 0.93607 0.53111 0.0
C1051 C 0.15337 0.9117 0.50664 0.0
C1052 C 0.12623 0.96182 0.52488 0.0
C1053 C 0.09085 0.00573 0.45571 0.0
H1054 H 0.04543 0.05093 0.52733 0.0
C1055 C 0.02398 0.1367 0.49637 0.0
C1056 C 0.04615 0.15718 0.48002 0.0
C1057 C 0.02603 0.10251 0.49238 0.0
C1058 C 0.05709 0.03839 0.50661 0.0
H1059 H 0.14128 0.89429 0.45692 0.0
H1060 H 0.10326 0.93823 0.44656 0.0
H1061 H 0.06939 -0.00186 0.53595 0.0
H1062 H 0.08619 0.15866 0.44517 0.0
H1063 H 0.09087 0.0995 0.43898 0.0
H1064 H 0.07781 0.04551 0.42608 0.0
C1065 C 0.11557 0.93826 0.47018 0.0
C1066 C 0.07152 0.00823 0.51186 0.0
C1067 C 0.1372 0.91293 0.47618 0.0
C1068 C 0.06846 0.14321 0.45754 0.0
C1069 C 0.07107 0.10911 0.45409 0.0
C1070 C 0.07581 0.03559 0.45025 0.0
C1071 C 0.11023 0.96338 0.49425 0.0
C1072 C 0.08989 -0.00776 0.48694 0.0
C1073 C 0.05107 0.08827 0.47284 0.0
C1074 C 0.06002 0.05313 0.47605 0.0
H1075 H 0.15955 0.93584 0.55474 0.0
H1076 H 0.12334 0.98098 0.54385 0.0
H1077 H 0.10461 -0.00583 0.43576 0.0
H1078 H 0.00677 0.1471 0.51408 0.0
H1079 H 0.00944 0.08737 0.5064 0.0
C1080 C 0.73714 0.42361 0.22627 0.0
C1081 C 0.7454 0.45356 0.24311 0.0
C1082 C 0.7121 0.40301 0.238 0.0
C1083 C 0.64118 0.40244 0.29607 0.0
H1084 H 0.65633 0.30879 0.29677 0.0
C1085 C 0.55348 0.32101 0.36744 0.0
C1086 C 0.56923 0.2996 0.38821 0.0
C1087 C 0.57064 0.33472 0.34144 0.0
C1088 C 0.65168 0.33488 0.29678 0.0
H1089 H 0.73367 0.48551 0.28525 0.0
H1090 H 0.69074 0.44948 0.30607 0.0
H1091 H 0.69521 0.34444 0.26874 0.0
H1092 H 0.61438 0.27393 0.39692 0.0
H1093 H 0.64472 0.29839 0.35225 0.0
H1094 H 0.59906 0.39351 0.32587 0.0
C1095 C 0.70298 0.44206 0.28341 0.0
C1096 C 0.67381 0.35531 0.28036 0.0
C1097 C 0.72783 0.46267 0.27162 0.0
C1098 C 0.60159 0.29013 0.38102 0.0
C1099 C 0.61896 0.30421 0.35533 0.0
C1100 C 0.61929 0.38214 0.31269 0.0
C1101 C 0.69484 0.41189 0.26686 0.0
C1102 C 0.6693 0.3895 0.2806 0.0
C1103 C 0.60415 0.32782 0.33612 0.0
C1104 C 0.62465 0.34818 0.31399 0.0
H1105 H 0.75016 0.41595 0.20413 0.0
H1106 H 0.70626 0.38016 0.22443 0.0
H1107 H 0.63649 0.42853 0.29616 0.0
H1108 H 0.52844 0.32853 0.37244 0.0
H1109 H 0.55812 0.35205 0.3266 0.0
C1110 C 0.75694 0.5793 0.74822 0.0
C1111 C 0.75476 0.5465 0.75767 0.0
C1112 C 0.78101 0.60091 0.76197 0.0
C1113 C 0.86045 0.60285 0.80686 0.0
H1114 H 0.83227 0.68731 0.84303 0.0
C1115 C 0.94743 0.68019 0.89028 0.0
C1116 C 0.93288 0.68833 0.92075 0.0
C1117 C 0.92769 0.6711 0.86304 0.0
C1118 C 0.8406 0.66394 0.8328 0.0
H1119 H 0.77642 0.51049 0.78843 0.0
H1120 H 0.81827 0.5481 0.81242 0.0
H1121 H 0.79399 0.65279 0.80959 0.0
H1122 H 0.88661 0.69682 0.94585 0.0
H1123 H 0.85216 0.68074 0.89862 0.0
H1124 H 0.90633 0.61295 0.83146 0.0
C1125 C 0.8016 0.5571 0.7942 0.0
C1126 C 0.81876 0.64427 0.81347 0.0
C1127 C 0.77745 0.53561 0.78066 0.0
C1128 C 0.8984 0.69036 0.92267 0.0
C1129 C 0.87869 0.68134 0.8955 0.0
C1130 C 0.88227 0.6225 0.82607 0.0
C1131 C 0.80354 0.59003 0.78518 0.0
C1132 C 0.82813 0.61304 0.80124 0.0
C1133 C 0.89309 0.67008 0.86583 0.0
C1134 C 0.87226 0.65281 0.84016 0.0
H1135 H 0.7398 0.58841 0.73051 0.0
H1136 H 0.78202 0.6261 0.75444 0.0
H1137 H 0.86853 0.57911 0.79732 0.0
H1138 H 0.97397 0.67834 0.88811 0.0
H1139 H 0.93951 0.66306 0.84034 0.0
C1140 C 0.4853 0.81716 0.58639 0.0
C1141 C 0.51635 0.80856 0.59834 0.0
C1142 C 0.48278 0.8402 0.56191 0.0
C1143 C 0.53464 0.88133 0.49887 0.0
H1144 H 0.45901 0.93729 0.49199 0.0
C1145 C 0.53256 0.97252 0.3983 0.0
C1146 C 0.50508 0.96777 0.37744 0.0
C1147 C 0.5318 0.96108 0.43014 0.0
C1148 C 0.48033 0.92191 0.49381 0.0
H1149 H 0.56902 0.81796 0.59448 0.0
H1150 H 0.56482 0.85782 0.55269 0.0
H1151 H 0.46213 0.89966 0.5371 0.0
H1152 H 0.45416 0.95067 0.37463 0.0
H1153 H 0.45276 0.93069 0.43034 0.0
H1154 H 0.55297 0.90367 0.45595 0.0
C1155 C 0.5422 0.84673 0.56145 0.0
C1156 C 0.48199 0.89998 0.51939 0.0
C1157 C 0.54468 0.82393 0.58583 0.0
C1158 C 0.47561 0.95487 0.39028 0.0
C1159 C 0.47487 0.9433 0.42218 0.0
C1160 C 0.53321 0.9035 0.47382 0.0
C1161 C 0.51127 0.85526 0.54896 0.0
C1162 C 0.50917 0.87919 0.52218 0.0
C1163 C 0.5036 0.94451 0.44165 0.0
C1164 C 0.50598 0.92389 0.47078 0.0
H1165 H 0.46298 0.80552 0.59534 0.0
H1166 H 0.45851 0.84553 0.55269 0.0
H1167 H 0.55551 0.86524 0.49921 0.0
H1168 H 0.55553 0.98254 0.38901 0.0
H1169 H 0.5541 0.96301 0.44487 0.0
C1170 C 0.41688 0.34722 0.77678 0.0
C1171 C 0.41639 0.31722 0.79265 0.0
C1172 C 0.39277 0.35379 0.75375 0.0
C1173 C 0.31089 0.34067 0.72369 0.0
H1174 H 0.35045 0.35786 0.63932 0.0
C1175 C 0.2839 0.39223 0.58566 0.0
C1176 C 0.26864 0.42156 0.5957 0.0
C1177 C 0.29245 0.36953 0.60878 0.0
C1178 C 0.33865 0.35239 0.66235 0.0
H1179 H 0.38879 0.2715 0.79825 0.0
H1180 H 0.34602 0.28352 0.75787 0.0
H1181 H 0.38447 0.33872 0.68333 0.0
H1182 H 0.24737 0.44887 0.6369 0.0
H1183 H 0.26298 0.40968 0.67753 0.0
H1184 H 0.26523 0.35607 0.70302 0.0
C1185 C 0.3655 0.30158 0.76334 0.0
C1186 C 0.35831 0.34173 0.68765 0.0
C1187 C 0.38998 0.29475 0.78631 0.0
C1188 C 0.25895 0.42627 0.6286 0.0
C1189 C 0.2679 0.40375 0.65185 0.0
C1190 C 0.29109 0.35171 0.69829 0.0
C1191 C 0.36735 0.33077 0.74628 0.0
C1192 C 0.34485 0.3367 0.71874 0.0
C1193 C 0.2865 0.37613 0.64242 0.0
C1194 C 0.305 0.35849 0.66756 0.0
H1195 H 0.43658 0.36528 0.78122 0.0
H1196 H 0.39444 0.37662 0.74104 0.0
H1197 H 0.30008 0.33693 0.74758 0.0
H1198 H 0.29144 0.38807 0.56033 0.0
H1199 H 0.30606 0.34809 0.60063 0.0
C1200 C 0.01965 0.14365 0.06688 0.0
C1201 C 0.04605 0.1536 0.08757 0.0
C1202 C 0.02408 0.12016 0.0415 0.0
C1203 C 0.08671 0.08337 0.98763 0.0
H1204 H 0.01318 0.02417 0.96518 0.0
C1205 C 0.05194 0.04172 0.85732 0.0
C1206 C 0.02927 0.01545 0.85258 0.0
C1207 C 0.06571 0.04869 0.88834 0.0
C1208 C 0.03447 0.03977 0.97128 0.0
H1209 H 0.09794 0.14679 0.09789 0.0
H1210 H 0.10567 0.10533 0.05333 0.0
H1211 H 0.01266 0.05598 0.0166 0.0
H1212 H 0.00724 0.97275 0.87435 0.0
H1213 H 0.03289 0.98363 0.92814 0.0
H1214 H 0.10849 0.06712 0.94206 0.0
C1215 C 0.0816 0.11598 0.05674 0.0
C1216 C 0.03387 0.05847 0.0007 0.0
C1217 C 0.07713 0.13962 0.08226 0.0
C1218 C 0.02459 -0.00674 0.87764 0.0
C1219 C 0.03891 -0.00018 0.9085 0.0
C1220 C 0.08757 0.06426 0.95826 0.0
C1221 C 0.05501 0.1059 0.03621 0.0
C1222 C 0.0592 0.08155 0.00848 0.0
C1223 C 0.05723 0.02919 0.9149 0.0
C1224 C 0.06081 0.0432 0.9491 0.0
H1225 H -0.00455 0.15405 0.0702 0.0
H1226 H 0.00326 0.11353 0.0257 0.0
H1227 H 0.1067 0.10085 -0.00698 0.0
H1228 H 0.05574 0.05925 0.83833 0.0
H1229 H 0.07978 0.07145 0.89213 0.0
C1230 C 0.11017 0.69341 0.25439 0.0
C1231 C 0.11197 0.7276 0.26054 0.0
C1232 C 0.1309 0.67832 0.23119 0.0
C1233 C 0.18093 0.69518 0.15818 0.0
H1234 H 0.21605 0.60967 0.17474 0.0
C1235 C 0.25655 0.57906 0.09358 0.0
C1236 C 0.23766 0.57533 0.06466 0.0
C1237 C 0.25013 0.60451 0.11664 0.0
C1238 C 0.20714 0.63387 0.16987 0.0
H1239 H 0.13715 0.77276 0.2472 0.0
H1240 H 0.17339 0.74634 0.20701 0.0
H1241 H 0.18625 0.63931 0.2179 0.0
H1242 H 0.20041 0.59758 0.03516 0.0
H1243 H 0.18866 0.64147 0.07553 0.0
H1244 H 0.2016 0.6895 0.10995 0.0
C1245 C 0.15572 0.73126 0.21985 0.0
C1246 C 0.18952 0.6506 0.19449 0.0
C1247 C 0.135 0.74635 0.24301 0.0
C1248 C 0.21499 0.59965 0.05751 0.0
C1249 C 0.20844 0.62496 0.08061 0.0
C1250 C 0.19866 0.67845 0.13351 0.0
C1251 C 0.15393 0.69708 0.21369 0.0
C1252 C 0.17546 0.68101 0.18864 0.0
C1253 C 0.22463 0.62653 0.11121 0.0
C1254 C 0.21124 0.64721 0.13881 0.0
H1255 H 0.09268 0.67827 0.26738 0.0
H1256 H 0.12853 0.65197 0.22659 0.0
H1257 H 0.17035 0.71857 0.15288 0.0
H1258 H 0.27422 0.56072 0.0998 0.0
H1259 H 0.26359 0.60557 0.13968 0.0
C1260 C 0.43222 0.16858 0.92883 0.0
C1261 C 0.465 0.17598 0.92003 0.0
C1262 C 0.42538 0.14714 0.95407 0.0
C1263 C 0.4649 0.08862 0.0103 0.0
H1264 H 0.39909 0.12079 0.07188 0.0
C1265 C 0.45493 0.03562 0.13846 0.0
C1266 C 0.45426 0.05978 0.16413 0.0
C1267 C 0.44804 0.04381 0.1061 0.0
C1268 C 0.4176 0.11147 0.05497 0.0
H1269 H 0.51616 0.16494 0.92939 0.0
H1270 H 0.50446 0.1284 0.97354 0.0
H1271 H 0.40433 0.14514 0.01863 0.0
H1272 H 0.44294 0.11055 0.17661 0.0
H1273 H 0.43155 0.12499 0.12056 0.0
H1274 H 0.47981 0.05669 0.04758 0.0
C1275 C 0.48382 0.13864 0.96088 0.0
C1276 C 0.42032 0.12514 0.02413 0.0
C1277 C 0.49062 0.15988 0.93558 0.0
C1278 C 0.44401 0.09151 0.15723 0.0
C1279 C 0.43719 0.0997 0.12504 0.0
C1280 C 0.46242 0.07523 0.04125 0.0
C1281 C 0.45117 0.13275 0.97121 0.0
C1282 C 0.44465 0.11452 0.00168 0.0
C1283 C 0.44031 0.07631 0.09886 0.0
C1284 C 0.43924 0.08696 0.06429 0.0
H1285 H 0.41187 0.18036 0.91713 0.0
H1286 H 0.3999 0.1427 0.96081 0.0
H1287 H 0.48353 0.07935 -0.00642 0.0
H1288 H 0.46275 0.01096 0.14307 0.0
H1289 H 0.45006 0.02503 0.08659 0.0
C1290 C 0.10891 0.2855 0.2514 0.0
C1291 C 0.11193 0.25117 0.24928 0.0
C1292 C 0.12715 0.30456 0.27451 0.0
C1293 C 0.16848 0.30003 0.35426 0.0
H1294 H 0.19907 0.38756 0.33349 0.0
C1295 C 0.22173 0.43185 0.41753 0.0
C1296 C 0.19907 0.43408 0.4434 0.0
C1297 C 0.22122 0.40422 0.39589 0.0
C1298 C 0.19147 0.36295 0.33973 0.0
H1299 H 0.13703 0.20999 0.26949 0.0
H1300 H 0.16905 0.24346 0.30985 0.0
H1301 H 0.17896 0.34991 0.28978 0.0
H1302 H 0.15944 0.40922 0.46844 0.0
H1303 H 0.15796 0.36124 0.43058 0.0
H1304 H 0.18063 0.3133 0.40435 0.0
C1305 C 0.15231 0.25551 0.29374 0.0
C1306 C 0.17943 0.34152 0.31465 0.0
C1307 C 0.13403 0.23638 0.27054 0.0
C1308 C 0.17744 0.40759 0.44882 0.0
C1309 C 0.17672 0.38011 0.42712 0.0
C1310 C 0.1807 0.32146 0.37939 0.0
C1311 C 0.14895 0.28981 0.29606 0.0
C1312 C 0.16667 0.31029 0.32179 0.0
C1313 C 0.19764 0.37873 0.39957 0.0
C1314 C 0.19125 0.3536 0.37258 0.0
H1315 H 0.0921 0.29772 0.23548 0.0
H1316 H 0.12349 0.33085 0.27604 0.0
H1317 H 0.15883 0.27612 0.3606 0.0
H1318 H 0.23838 0.4523 0.41288 0.0
H1319 H 0.23804 0.40368 0.37525 0.0
C1320 C 0.02665 0.822 0.44624 0.0
C1321 C 0.05147 0.80722 0.42717 0.0
C1322 C 0.03487 0.84176 0.474 0.0
C1323 C 0.09793 0.855 0.5372 0.0
H1324 H 0.05056 0.93544 0.55515 0.0
C1325 C 0.06142 0.90695 0.66348 0.0
C1326 C 0.05345 0.94035 0.66654 0.0
C1327 C 0.07596 0.89437 0.6347 0.0
C1328 C 0.06464 0.91345 0.55036 0.0
H1329 H 0.10436 0.80147 0.42205 0.0
H1330 H 0.11864 0.83568 0.47107 0.0
H1331 H 0.04404 0.90644 0.50217 0.0
H1332 H 0.0598 0.98775 0.64475 0.0
H1333 H 0.08599 0.96592 0.59499 0.0
H1334 H 0.11772 0.86166 0.58598 0.0
C1335 C 0.0929 0.8321 0.46434 0.0
C1336 C 0.06044 0.89659 0.52015 0.0
C1337 C 0.0847 0.81266 0.43629 0.0
C1338 C 0.06533 0.96182 0.64297 0.0
C1339 C 0.08006 0.94927 0.61428 0.0
C1340 C 0.10206 0.87189 0.56762 0.0
C1341 C 0.06804 0.84683 0.48341 0.0
C1342 C 0.07623 0.86673 0.51365 0.0
C1343 C 0.08286 0.91513 0.60878 0.0
C1344 C 0.08478 0.90085 0.57479 0.0
H1345 H 0.00086 0.81822 0.4398 0.0
H1346 H 0.01518 0.85251 0.48854 0.0
H1347 H 0.11044 0.83201 0.53273 0.0
H1348 H 0.05309 0.88999 0.68167 0.0
H1349 H 0.07806 0.86796 0.63138 0.0
C1350 C 0.45029 0.6395 0.73951 0.0
C1351 C 0.45697 0.67283 0.73414 0.0
C1352 C 0.42481 0.63023 0.76027 0.0
C1353 C 0.3805 0.65839 0.83282 0.0
H1354 H 0.33086 0.57725 0.81405 0.0
C1355 C 0.30202 0.54685 0.89883 0.0
C1356 C 0.32459 0.54278 0.92435 0.0
C1357 C 0.30714 0.57192 0.87679 0.0
C1358 C 0.3437 0.60041 0.81969 0.0
H1359 H 0.4416 0.72264 0.74582 0.0
H1360 H 0.39703 0.70629 0.78298 0.0
H1361 H 0.36029 0.60349 0.77007 0.0
H1362 H 0.36873 0.56237 0.94852 0.0
H1363 H 0.37806 0.60576 0.91017 0.0
H1364 H 0.36488 0.65461 0.88277 0.0
C1365 C 0.4116 0.68744 0.77077 0.0
C1366 C 0.36092 0.61525 0.79445 0.0
C1367 C 0.43699 0.69676 0.74949 0.0
C1368 C 0.35084 0.56545 0.92914 0.0
C1369 C 0.35604 0.59038 0.90716 0.0
C1370 C 0.36316 0.64355 0.85815 0.0
C1371 C 0.40541 0.65403 0.77648 0.0
C1372 C 0.38082 0.64345 0.80107 0.0
C1373 C 0.33513 0.59301 0.87982 0.0
C1374 C 0.34589 0.6135 0.85218 0.0
H1375 H 0.46507 0.62042 0.72793 0.0
H1376 H 0.42109 0.60434 0.76455 0.0
H1377 H 0.39556 0.68017 0.83867 0.0
H1378 H 0.28178 0.52935 0.89464 0.0
H1379 H 0.2903 0.57355 0.85628 0.0
C1380 C 0.59122 0.48603 0.82977 0.0
C1381 C 0.60832 0.46555 0.80733 0.0
C1382 C 0.56937 0.47271 0.85226 0.0
C1383 C 0.51475 0.40174 0.86162 0.0
H1384 H 0.49741 0.44902 0.94411 0.0
C1385 C 0.40538 0.43287 0.9631 0.0
C1386 C 0.38086 0.43871 0.93982 0.0
C1387 C 0.43616 0.42148 0.95293 0.0
C1388 C 0.50215 0.43456 0.92178 0.0
H1389 H 0.61698 0.41473 0.79207 0.0
H1390 H 0.57884 0.39139 0.83187 0.0
H1391 H 0.54938 0.45791 0.91646 0.0
H1392 H 0.36768 0.43343 0.8883 0.0
H1393 H 0.4212 0.41401 0.87044 0.0
H1394 H 0.46704 0.37891 0.86663 0.0
C1395 C 0.5822 0.41784 0.83164 0.0
C1396 C 0.53193 0.44009 0.90565 0.0
C1397 C 0.60405 0.43124 0.8089 0.0
C1398 C 0.38635 0.42945 0.90671 0.0
C1399 C 0.41706 0.41803 0.89655 0.0
C1400 C 0.48509 0.39576 0.87805 0.0
C1401 C 0.56426 0.43851 0.85326 0.0
C1402 C 0.53769 0.42534 0.87444 0.0
C1403 C 0.44297 0.41569 0.91933 0.0
C1404 C 0.47759 0.41365 0.90733 0.0
H1405 H 0.59383 0.51255 0.82936 0.0
H1406 H 0.55541 0.48944 0.86795 0.0
H1407 H 0.51838 0.38995 0.8376 0.0
H1408 H 0.40185 0.43983 -0.01119 0.0
H1409 H 0.45529 0.41956 0.9712 0.0
C1410 C 0.69867 0.27742 0.15876 0.0
C1411 C 0.68502 0.27772 0.12694 0.0
C1412 C 0.68449 0.25755 0.18251 0.0
C1413 C 0.64424 0.17951 0.18728 0.0
H1414 H 0.5974 0.2073 0.26627 0.0
C1415 C 0.52674 0.1285 0.25397 0.0
C1416 C 0.53368 0.09485 0.25145 0.0
C1417 C 0.55212 0.15206 0.25192 0.0
C1418 C 0.61089 0.19914 0.24459 0.0
H1419 H 0.64488 0.25872 0.09573 0.0
H1420 H 0.62079 0.22383 0.13684 0.0
H1421 H 0.62788 0.24819 0.23471 0.0
H1422 H 0.57254 0.05931 0.2487 0.0
H1423 H 0.61718 0.10052 0.24547 0.0
H1424 H 0.62621 0.13103 0.19559 0.0
C1425 C 0.64233 0.23897 0.14336 0.0
C1426 C 0.62833 0.22249 0.22667 0.0
C1427 C 0.65611 0.25904 0.1199 0.0
C1428 C 0.56665 0.08514 0.25086 0.0
C1429 C 0.59212 0.10873 0.24867 0.0
C1430 C 0.62725 0.15623 0.20526 0.0
C1431 C 0.65681 0.23746 0.17454 0.0
C1432 C 0.64403 0.2129 0.19722 0.0
C1433 C 0.58488 0.14232 0.24705 0.0
C1434 C 0.6093 0.16588 0.23345 0.0
H1435 H 0.72092 0.29159 0.16492 0.0
H1436 H 0.69597 0.25672 0.20649 0.0
H1437 H 0.65628 0.17164 0.16462 0.0
H1438 H 0.50141 0.13648 0.25431 0.0
H1439 H 0.54558 0.17762 0.25067 0.0
C1440 C 0.91366 0.49446 0.32211 0.0
C1441 C 0.90004 0.51756 0.30162 0.0
C1442 C 0.93823 0.50385 0.34482 0.0
C1443 C 0.00409 0.56605 0.35978 0.0
H1444 H 0.01297 0.5187 0.43976 0.0
C1445 C 0.10326 0.53797 0.47101 0.0
C1446 C 0.13104 0.53263 0.45114 0.0
C1447 C 0.07327 0.54638 0.45695 0.0
C1448 C 0.01082 0.53286 0.41798 0.0
H1449 H 0.90058 0.56913 0.29018 0.0
H1450 H 0.94329 0.58568 0.33051 0.0
H1451 H 0.96178 0.51463 0.40896 0.0
H1452 H 0.15026 0.53502 0.40171 0.0
H1453 H 0.09818 0.5496 0.37713 0.0
H1454 H 0.05332 0.58449 0.3688 0.0
C1455 C 0.93525 0.56013 0.32844 0.0
C1456 C 0.98148 0.53006 0.40008 0.0
C1457 C 0.91064 0.55066 0.30548 0.0
C1458 C 0.1291 0.53883 0.41754 0.0
C1459 C 0.09921 0.54738 0.40351 0.0
C1460 C 0.03346 0.56919 0.37792 0.0
C1461 C 0.9497 0.53669 0.34802 0.0
C1462 C 0.97821 0.54539 0.37007 0.0
C1463 C 0.07053 0.54985 0.42278 0.0
C1464 C 0.03762 0.55168 0.40666 0.0
H1465 H 0.90615 0.46876 0.31994 0.0
H1466 H 0.94919 0.48495 0.35895 0.0
H1467 H 0.00246 0.57835 0.33681 0.0
H1468 H 0.10401 0.53322 0.49696 0.0
H1469 H 0.05191 0.54855 0.47267 0.0
C1470 C 0.79907 0.77259 0.53227 0.0
C1471 C 0.77314 0.75223 0.54284 0.0
C1472 C 0.81291 0.79699 0.55349 0.0
C1473 C 0.82511 0.81771 0.64126 0.0
H1474 H 0.85712 0.90056 0.60864 0.0
C1475 C 0.93454 0.89195 0.69783 0.0
C1476 C 0.93602 0.92623 0.69517 0.0
C1477 C 0.90767 0.8735 0.6851 0.0
C1478 C 0.84782 0.87786 0.61845 0.0
H1479 H 0.74076 0.74206 0.58369 0.0
H1480 H 0.76494 0.78485 0.62079 0.0
H1481 H 0.8229 0.86393 0.57346 0.0
H1482 H 0.90934 0.96837 0.67939 0.0
H1483 H 0.86199 0.93619 0.65772 0.0
H1484 H 0.8505 0.83147 0.68611 0.0
C1485 C 0.77474 0.7817 0.59616 0.0
C1486 C 0.82857 0.85665 0.59808 0.0
C1487 C 0.76081 0.7573 0.57486 0.0
C1488 C 0.90885 0.94198 0.68192 0.0
C1489 C 0.88192 0.92351 0.66915 0.0
C1490 C 0.84439 0.83895 0.66167 0.0
C1491 C 0.80117 0.80161 0.5858 0.0
C1492 C 0.81776 0.82594 0.60892 0.0
C1493 C 0.88164 0.88897 0.66945 0.0
C1494 C 0.85671 0.86889 0.65018 0.0
H1495 H 0.80912 0.76931 0.50775 0.0
H1496 H 0.83356 0.81157 0.54487 0.0
H1497 H 0.81729 0.79417 0.65033 0.0
H1498 H 0.95504 0.87921 0.7082 0.0
H1499 H 0.90841 0.84696 0.68563 0.0
C1500 C 0.5818 0.55071 0.63639 0.0
C1501 C 0.59138 0.52098 0.64936 0.0
C1502 C 0.55537 0.55137 0.61442 0.0
C1503 C 0.49402 0.49693 0.56689 0.0
H1504 H 0.43977 0.57357 0.57923 0.0
C1505 C 0.34826 0.52954 0.56742 0.0
C1506 C 0.33707 0.50559 0.54411 0.0
C1507 C 0.38193 0.53672 0.57089 0.0
C1508 C 0.45428 0.55172 0.57568 0.0
H1509 H 0.5813 0.46853 0.64903 0.0
H1510 H 0.53388 0.46983 0.61255 0.0
H1511 H 0.49325 0.57316 0.6049 0.0
H1512 H 0.35149 0.47202 0.50443 0.0
H1513 H 0.41029 0.4863 0.5085 0.0
H1514 H 0.45342 0.47397 0.54099 0.0
C1515 C 0.54743 0.4926 0.61805 0.0
C1516 C 0.48563 0.55177 0.58989 0.0
C1517 C 0.57455 0.49179 0.63927 0.0
C1518 C 0.35971 0.49082 0.52242 0.0
C1519 C 0.39345 0.49864 0.52525 0.0
C1520 C 0.46212 0.4964 0.55367 0.0
C1521 C 0.53708 0.52252 0.60568 0.0
C1522 C 0.5057 0.52405 0.58649 0.0
C1523 C 0.40526 0.52051 0.55064 0.0
C1524 C 0.44127 0.5234 0.55886 0.0
H1525 H 0.59462 0.57358 0.6434 0.0
H1526 H 0.54884 0.57476 0.60503 0.0
H1527 H 0.50893 0.47543 0.56278 0.0
H1528 H 0.3312 0.5407 0.58484 0.0
H1529 H 0.38952 0.55323 0.59115 0.0
C1530 C 0.8107 0.21842 0.00123 0.0
C1531 C 0.77886 0.22916 -0.00576 0.0
C1532 C 0.82503 0.19387 0.98129 0.0
C1533 C 0.80863 0.1264 0.9203 0.0
H1534 H 0.89485 0.15065 0.88671 0.0
C1535 C 0.90057 0.03921 0.85244 0.0
C1536 C 0.91868 0.05251 0.82655 0.0
C1537 C 0.87789 0.05838 0.87005 0.0
C1538 C 0.87065 0.14366 0.89566 0.0
H1539 H 0.73632 0.22138 0.96223 0.0
H1540 H 0.76129 0.17817 0.92769 0.0
H1541 H 0.86749 0.18759 0.9261 0.0
H1542 H 0.9253 0.0953 0.79713 0.0
H1543 H 0.88557 0.12858 0.82772 0.0
H1544 H 0.81221 0.08212 0.88996 0.0
C1545 C 0.77516 0.18888 0.9484 0.0
C1546 C 0.85522 0.16459 0.91852 0.0
C1547 C 0.761 0.21372 0.96805 0.0
C1548 C 0.91158 0.08427 0.81678 0.0
C1549 C 0.88912 0.10346 0.83451 0.0
C1550 C 0.82435 0.10513 0.8977 0.0
C1551 C 0.8076 0.17933 0.95435 0.0
C1552 C 0.82409 0.15621 0.93104 0.0
C1553 C 0.87319 0.09118 0.86216 0.0
C1554 C 0.85542 0.11374 0.88504 0.0
H1555 H 0.825 0.22981 0.0213 0.0
H1556 H 0.85 0.18668 0.98653 0.0
H1557 H 0.78459 0.11942 0.92965 0.0
H1558 H 0.90546 0.01471 0.86033 0.0
H1559 H 0.8659 0.04834 0.89127 0.0
C1560 C 0.93254 0.49675 0.13746 0.0
C1561 C 0.91538 0.46754 0.1445 0.0
C1562 C 0.96161 0.49577 0.11908 0.0
C1563 C 0.02938 0.44018 0.09919 0.0
H1564 H 0.05436 0.50646 0.03797 0.0
C1565 C 0.14505 0.48537 0.01068 0.0
C1566 C 0.17105 0.4781 0.03169 0.0
C1567 C 0.11243 0.47822 0.01952 0.0
C1568 C 0.04777 0.4872 0.0544 0.0
H1569 H 0.91415 0.41456 0.1361 0.0
H1570 H 0.96466 0.41288 0.10367 0.0
H1571 H -0.00026 0.50668 0.06188 0.0
H1572 H 0.184 0.45673 0.07747 0.0
H1573 H 0.12763 0.44549 0.09373 0.0
H1574 H 0.07757 0.42122 0.09277 0.0
C1575 C 0.95603 0.43649 0.11297 0.0
C1576 C 0.01636 0.48764 0.06842 0.0
C1577 C 0.92704 0.43747 0.13144 0.0
C1578 C 0.16425 0.46181 0.06057 0.0
C1579 C 0.13171 0.45544 0.06984 0.0
C1580 C 0.06088 0.43988 0.0854 0.0
C1581 C 0.97408 0.46555 0.10729 0.0
C1582 C 0.00679 0.46418 0.09099 0.0
C1583 C 0.1052 0.46473 0.05007 0.0
C1584 C 0.07065 0.46335 0.06277 0.0
H1585 H 0.9242 0.52032 0.14717 0.0
H1586 H 0.97497 0.5186 0.11524 0.0
H1587 H 0.02304 0.42201 0.11692 0.0
H1588 H 0.14985 0.49837 0.98847 0.0
H1589 H 0.09288 0.48487 0.00314 0.0
C1590 C 0.65393 0.70634 0.38995 0.0
C1591 C 0.68768 0.71149 0.39639 0.0
C1592 C 0.63791 0.72486 0.36684 0.0
C1593 C 0.65256 0.78961 0.30418 0.0
H1594 H 0.56404 0.81366 0.32999 0.0
C1595 C 0.58923 0.91384 0.28848 0.0
C1596 C 0.55522 0.91304 0.28175 0.0
C1597 C 0.60649 0.88457 0.29001 0.0
C1598 C 0.5885 0.80673 0.32198 0.0
H1599 H 0.73145 0.73925 0.3831 0.0
H1600 H 0.70341 0.77299 0.34453 0.0
H1601 H 0.59145 0.77098 0.35834 0.0
H1602 H 0.51319 0.88154 0.2685 0.0
H1603 H 0.54327 0.83028 0.27156 0.0
H1604 H 0.65004 0.82804 0.26971 0.0
C1605 C 0.68922 0.75387 0.35607 0.0
C1606 C 0.60434 0.782 0.3382 0.0
C1607 C 0.7054 0.73464 0.37846 0.0
C1608 C 0.53951 0.88279 0.27324 0.0
C1609 C 0.55662 0.85349 0.27531 0.0
C1610 C 0.6369 0.815 0.28847 0.0
C1611 C 0.65502 0.74983 0.35042 0.0
C1612 C 0.63689 0.7734 0.33006 0.0
C1613 C 0.58981 0.8541 0.28541 0.0
C1614 C 0.60488 0.82407 0.29759 0.0
H1615 H 0.63978 0.68832 0.40318 0.0
H1616 H 0.61187 0.72003 0.36253 0.0
H1617 H 0.67725 0.78332 0.2965 0.0
H1618 H 0.6017 0.93687 0.29559 0.0
H1619 H 0.632 0.88573 0.29805 0.0
C1620 C 0.83241 0.59029 0.4452 0.0
C1621 C 0.82528 0.59606 0.47872 0.0
C1622 C 0.8546 0.56592 0.43516 0.0
C1623 C 0.91785 0.51019 0.46808 0.0
H1624 H 0.89398 0.45422 0.39198 0.0
C1625 C 0.93263 0.36796 0.42824 0.0
C1626 C 0.96467 0.3637 0.44037 0.0
C1627 C 0.92101 0.39944 0.42352 0.0
C1628 C 0.90104 0.46968 0.41324 0.0
H1629 H 0.83632 0.58104 0.52796 0.0
H1630 H 0.87363 0.53824 0.51065 0.0
H1631 H 0.86331 0.50408 0.40416 0.0
H1632 H 0.01093 0.38873 0.45325 0.0
H1633 H -0.00901 0.44371 0.44394 0.0
H1634 H 0.95419 0.47497 0.4784 0.0
C1635 C 0.86308 0.55296 0.49195 0.0
C1636 C 0.8837 0.49853 0.42005 0.0
C1637 C 0.84134 0.57747 0.50195 0.0
C1638 C 0.98609 0.39121 0.44396 0.0
C1639 C 0.97451 0.42275 0.43907 0.0
C1640 C 0.93506 0.48139 0.46139 0.0
C1641 C 0.86985 0.5466 0.45842 0.0
C1642 C 0.89126 0.51867 0.44815 0.0
C1643 C 0.94127 0.42731 0.43065 0.0
C1644 C 0.92641 0.46036 0.4343 0.0
H1645 H 0.8206 0.60433 0.42668 0.0
H1646 H 0.85956 0.56209 0.40918 0.0
H1647 H 0.92476 0.5253 0.48958 0.0
H1648 H 0.91572 0.34711 0.42485 0.0
H1649 H 0.89531 0.40192 0.41697 0.0
C1650 C 0.33851 0.90971 0.53006 0.0
C1651 C 0.31491 0.90548 0.55482 0.0
C1652 C 0.36299 0.9342 0.53352 0.0
C1653 C 0.37661 0.01543 0.57364 0.0
H1654 H 0.46063 0.00771 0.5291 0.0
C1655 C 0.4544 0.13057 0.5421 0.0
C1656 C 0.46517 0.12958 0.50938 0.0
C1657 C 0.44283 0.10173 0.55632 0.0
C1658 C 0.43746 0.0103 0.54201 0.0
H1659 H 0.29982 0.92247 0.60365 0.0
H1660 H 0.34285 0.96547 0.60971 0.0
H1661 H 0.42845 0.95832 0.54039 0.0
H1662 H 0.47371 0.09821 0.46618 0.0
H1663 H 0.45356 0.04823 0.49046 0.0
H1664 H 0.38523 0.06751 0.5745 0.0
C1665 C 0.34203 0.94996 0.58741 0.0
C1666 C 0.41887 0.982 0.54819 0.0
C1667 C 0.31748 0.92525 0.58398 0.0
C1668 C 0.46579 0.09936 0.4916 0.0
C1669 C 0.45436 0.07071 0.50567 0.0
C1670 C 0.39543 0.04381 0.56775 0.0
C1671 C 0.36459 0.95521 0.56184 0.0
C1672 C 0.38751 0.98429 0.56263 0.0
C1673 C 0.44196 0.07157 0.53794 0.0
C1674 C 0.42547 0.04163 0.55061 0.0
H1675 H 0.33749 0.8948 0.50739 0.0
H1676 H 0.37961 0.9377 0.51311 0.0
H1677 H 0.35249 0.01818 0.58469 0.0
H1678 H 0.45349 0.15379 0.55607 0.0
H1679 H 0.43371 0.1032 0.5813 0.0
C1680 C 0.28743 0.07753 0.64096 0.0
C1681 C 0.29799 0.07767 0.67382 0.0
C1682 C 0.27077 0.10431 0.62921 0.0
C1683 C 0.21771 0.17098 0.65897 0.0
H1684 H 0.22158 0.19356 0.56757 0.0
C1685 C 0.14155 0.2419 0.55168 0.0
C1686 C 0.11033 0.22789 0.55791 0.0
C1687 C 0.1686 0.23491 0.57142 0.0
C1688 C 0.22052 0.1883 0.59339 0.0
H1689 H 0.30099 0.1068 0.71966 0.0
H1690 H 0.27212 0.15374 0.699 0.0
H1691 H 0.26386 0.15932 0.58971 0.0
H1692 H 0.08207 0.19888 0.59168 0.0
H1693 H 0.12898 0.18635 0.62579 0.0
H1694 H 0.17396 0.19945 0.66245 0.0
C1695 C 0.27629 0.13269 0.68247 0.0
C1696 C 0.24458 0.1682 0.60596 0.0
C1697 C 0.29298 0.10586 0.69424 0.0
C1698 C 0.10595 0.20977 0.58621 0.0
C1699 C 0.13291 0.20276 0.60588 0.0
C1700 C 0.1937 0.19121 0.64643 0.0
C1701 C 0.26433 0.13193 0.65001 0.0
C1702 C 0.24271 0.15822 0.63851 0.0
C1703 C 0.16486 0.2138 0.5977 0.0
C1704 C 0.19407 0.19904 0.61313 0.0
H1705 H 0.29096 0.05623 0.62458 0.0
H1706 H 0.26156 0.10263 0.6042 0.0
H1707 H 0.21543 0.16376 0.68416 0.0
H1708 H 0.14568 0.2559 0.52999 0.0
H1709 H 0.19277 0.24436 0.56485 0.0
C1710 C 0.17038 0.06059 0.01417 0.0
C1711 C 0.18227 0.07621 0.04335 0.0
C1712 C 0.14689 0.03504 0.01519 0.0
C1713 C 0.11307 0.97293 0.07071 0.0
H1714 H 0.05365 0.95646 -0.00303 0.0
C1715 C 0.02087 0.86722 0.00239 0.0
C1716 C 0.04144 0.84037 0.00621 0.0
C1717 C 0.02927 0.89802 0.01693 0.0
C1718 C 0.0693 0.96078 0.01836 0.0
H1719 H 0.17756 0.07837 0.09647 0.0
H1720 H 0.13575 0.03454 0.09812 0.0
H1721 H 0.0851 0.00737 0.00168 0.0
H1722 H 0.08535 0.82375 0.03005 0.0
H1723 H 0.10084 0.87744 0.05441 0.0
H1724 H 0.09754 0.92584 0.08727 0.0
C1725 C 0.1452 0.04137 0.0745 0.0
C1726 C 0.08777 0.99007 0.02074 0.0
C1727 C 0.16911 0.06661 0.07351 0.0
C1728 C 0.06891 0.84405 0.02711 0.0
C1729 C 0.07772 0.87498 0.0411 0.0
C1730 C 0.09435 0.94357 0.06852 0.0
C1731 C 0.1341 0.0249 0.04536 0.0
C1732 C 0.11077 -0.0039 0.04618 0.0
C1733 C 0.05896 0.90275 0.03473 0.0
C1734 C 0.07316 0.93653 0.04157 0.0
H1735 H 0.18011 0.06723 -0.00945 0.0
H1736 H 0.13962 0.02255 -0.00778 0.0
H1737 H 0.13051 0.9766 0.09077 0.0
H1738 H -0.00046 0.86487 0.98633 0.0
H1739 H 0.01363 0.91856 0.01233 0.0
C1740 C 0.73986 0.37216 0.67709 0.0
C1741 C 0.73665 0.40383 0.66507 0.0
C1742 C 0.76369 0.35088 0.66402 0.0
C1743 C 0.84441 0.35401 0.6262 0.0
H1744 H 0.82617 0.26716 0.58662 0.0
C1745 C 0.94637 0.28998 0.55668 0.0
C1746 C 0.93685 0.28398 0.52378 0.0
C1747 C 0.92241 0.29355 0.58118 0.0
C1748 C 0.8317 0.29116 0.59806 0.0
H1749 H 0.75511 0.43755 0.62921 0.0
H1750 H 0.7968 0.40072 0.60691 0.0
H1751 H 0.78172 0.29759 0.61432 0.0
H1752 H 0.89556 0.27277 0.49116 0.0
H1753 H 0.85376 0.27882 0.53375 0.0
H1754 H 0.89373 0.34868 0.609 0.0
C1755 C 0.78095 0.39238 0.62642 0.0
C1756 C 0.80633 0.30848 0.6139 0.0
C1757 C 0.75693 0.41337 0.63907 0.0
C1758 C 0.90343 0.27745 0.51641 0.0
C1759 C 0.87951 0.28086 0.54087 0.0
C1760 C 0.86974 0.33666 0.61082 0.0
C1761 C 0.78497 0.36123 0.63915 0.0
C1762 C 0.8123 0.34053 0.62702 0.0
C1763 C 0.88864 0.29107 0.57308 0.0
C1764 C 0.86348 0.30548 0.59561 0.0
H1765 H 0.72453 0.36412 0.6971 0.0
H1766 H 0.76632 0.3269 0.67413 0.0
H1767 H 0.84965 0.37859 0.63644 0.0
H1768 H 0.97199 0.29523 0.56295 0.0
H1769 H 0.93018 0.3009 0.60592 0.0
C1770 C 0.66308 0.40955 0.00131 0.0
C1771 C 0.67407 0.38705 0.97686 0.0
C1772 C 0.64319 0.43556 -0.00695 0.0
C1773 C 0.62211 0.48472 0.92223 0.0
H1774 H 0.55871 0.52182 0.98372 0.0
C1775 C 0.53361 0.60515 0.94732 0.0
C1776 C 0.55776 0.62965 0.94224 0.0
C1777 C 0.54148 0.57192 0.94344 0.0
C1778 C 0.57578 0.51148 0.96585 0.0
H1779 H 0.67108 0.37285 0.92496 0.0
H1780 H 0.63522 0.41742 0.9108 0.0
H1781 H 0.58424 0.47015 -0.00507 0.0
H1782 H 0.60774 0.63898 0.92588 0.0
H1783 H 0.62161 0.58128 0.91929 0.0
H1784 H 0.61463 0.52694 0.89379 0.0
C1785 C 0.64298 0.41575 0.93613 0.0
C1786 C 0.5907 0.48194 0.97252 0.0
C1787 C 0.66331 0.39006 0.9443 0.0
C1788 C 0.58879 0.62049 0.93016 0.0
C1789 C 0.59663 0.58738 0.92621 0.0
C1790 C 0.60742 0.51447 0.9157 0.0
C1791 C 0.63326 0.43924 0.96029 0.0
C1792 C 0.61457 0.46854 0.95121 0.0
C1793 C 0.57357 0.56276 0.93431 0.0
C1794 C 0.58463 0.52856 0.93781 0.0
H1795 H 0.67109 0.40799 0.02657 0.0
H1796 H 0.63665 0.45346 0.01224 0.0
H1797 H 0.64056 0.4753 0.90531 0.0
H1798 H 0.50952 0.6116 0.95672 0.0
H1799 H 0.52304 0.55346 0.94933 0.0
C1800 C 0.24514 0.89527 0.73896 0.0
C1801 C 0.24454 0.92973 0.73898 0.0
C1802 C 0.218 0.87733 0.75054 0.0
C1803 C 0.14545 0.89086 0.80486 0.0
H1804 H 0.12671 0.79876 0.78276 0.0
C1805 C 0.04794 0.82315 0.87639 0.0
C1806 C 0.06133 0.79709 0.89321 0.0
C1807 C 0.06401 0.83543 0.84908 0.0
C1808 C 0.13156 0.82454 0.7889 0.0
H1809 H 0.21437 0.97233 0.74812 0.0
H1810 H 0.16638 0.94123 0.76621 0.0
H1811 H 0.16673 0.82925 0.75007 0.0
H1812 H 0.10014 0.76123 0.89241 0.0
H1813 H 0.12803 0.78254 0.84436 0.0
H1814 H 0.11052 0.88624 0.8436 0.0
C1815 C 0.18824 0.92788 0.75915 0.0
C1816 C 0.15465 0.84201 0.7704 0.0
C1817 C 0.21566 0.94579 0.74854 0.0
C1818 C 0.08915 0.78129 0.87997 0.0
C1819 C 0.10516 0.7935 0.85245 0.0
C1820 C 0.1221 0.87366 0.8228 0.0
C1821 C 0.18943 0.8935 0.76165 0.0
C1822 C 0.16238 0.87532 0.77855 0.0
C1823 C 0.09368 0.82177 0.83788 0.0
C1824 C 0.11528 0.84022 0.81545 0.0
H1825 H 0.26719 0.88233 0.73162 0.0
H1826 H 0.22015 0.85101 0.75219 0.0
H1827 H 0.15116 0.91607 0.81278 0.0
H1828 H 0.02616 0.8354 0.88563 0.0
H1829 H 0.05436 0.85694 0.83795 0.0
C1830 C 0.24555 0.10262 0.2502 0.0
C1831 C 0.24378 0.06952 0.25872 0.0
C1832 C 0.27056 0.12369 0.26315 0.0
C1833 C 0.35307 0.12348 0.30117 0.0
H1834 H 0.32782 0.20423 0.34754 0.0
C1835 C 0.44619 0.19229 0.38467 0.0
C1836 C 0.43402 0.19606 0.41684 0.0
C1837 C 0.42441 0.18663 0.35825 0.0
C1838 C 0.33533 0.18198 0.33434 0.0
H1839 H 0.26706 0.03238 0.2869 0.0
H1840 H 0.31069 0.06892 0.30915 0.0
H1841 H 0.28692 0.17261 0.31428 0.0
H1842 H 0.38985 0.20042 0.44636 0.0
H1843 H 0.35185 0.19052 0.40047 0.0
H1844 H 0.40084 0.13161 0.32251 0.0
C1845 C 0.29288 0.07862 0.29245 0.0
C1846 C 0.31199 0.164 0.31517 0.0
C1847 C 0.26773 0.05776 0.27992 0.0
C1848 C 0.3998 0.19739 0.42176 0.0
C1849 C 0.37805 0.19191 0.3954 0.0
C1850 C 0.37641 0.14151 0.3201 0.0
C1851 C 0.29449 0.11182 0.28436 0.0
C1852 C 0.32036 0.13393 0.29946 0.0
C1853 C 0.39014 0.18482 0.3636 0.0
C1854 C 0.3675 0.17032 0.33789 0.0
H1855 H 0.22737 0.11236 0.23393 0.0
H1856 H 0.27126 0.14918 0.25654 0.0
H1857 H 0.36027 0.10058 0.28895 0.0
H1858 H 0.47249 0.19105 0.38024 0.0
H1859 H 0.43443 0.18168 0.33393 0.0
loop_
_geom_bond_atom_site_label_1
_geom_bond_atom_site_label_2
_geom_bond_distance
_geom_bond_site_symmetry_2
_ccdc_geom_bond_type
C0 O1 1.306 . S
C0 O3 1.160 . S
O1 C0 1.306 . S
O1 Cd2 2.228 . S
Cd2 O1 2.228 . S
Cd2 O6 2.273 . S
Cd2 O10 2.277 1_455 S
O3 C0 1.160 . S
O3 Cd4 2.203 1_455 S
Cd4 O3 2.203 1_655 S
Cd4 O6 2.411 1_655 S
Cd4 O7 2.333 . S
Cd4 O8 2.352 1_655 S
Cd4 O12 2.277 . S
Cd4 O13 2.356 . S
C5 O10 1.209 . S
C5 O12 1.226 . S
O6 Cd2 2.273 . S
O6 Cd4 2.411 1_455 S
O6 C9 1.335 . S
O7 Cd4 2.333 . S
O7 C9 1.197 1_655 S
O8 Cd4 2.352 1_455 S
O8 C11 1.258 1_455 S
C9 O6 1.335 . S
C9 O7 1.197 1_455 S
O10 Cd2 2.277 1_655 S
O10 C5 1.209 . S
C11 O8 1.258 1_655 S
C11 O13 1.282 . S
O12 Cd4 2.277 . S
O12 C5 1.226 . S
O13 Cd4 2.356 . S
O13 C11 1.282 . S
C14 O15 1.306 . S
C14 O17 1.160 . S
O15 C14 1.306 . S
O15 Cd16 2.228 . S
Cd16 O15 2.228 . S
Cd16 O20 2.273 . S
Cd16 O24 2.277 1_455 S
O17 C14 1.160 . S
O17 Cd18 2.203 1_455 S
Cd18 O17 2.203 1_655 S
Cd18 O20 2.411 1_655 S
Cd18 O21 2.333 . S
Cd18 O22 2.352 1_655 S
Cd18 O26 2.277 . S
Cd18 O27 2.356 . S
C19 O24 1.209 . S
C19 O26 1.226 . S
O20 Cd16 2.273 . S
O20 Cd18 2.411 1_455 S
O20 C23 1.320 . S
O21 Cd18 2.333 . S
O21 C23 1.214 1_655 S
O22 Cd18 2.352 1_455 S
O22 C25 1.258 1_455 S
C23 O20 1.320 . S
C23 O21 1.214 1_455 S
O24 Cd16 2.277 1_655 S
O24 C19 1.209 . S
C25 O22 1.258 1_655 S
C25 O27 1.282 . S
O26 Cd18 2.277 . S
O26 C19 1.226 . S
O27 Cd18 2.356 . S
O27 C25 1.282 . S
C28 O29 1.306 . S
C28 O31 1.160 . S
O29 C28 1.306 . S
O29 Cd30 2.228 . S
Cd30 O29 2.228 . S
Cd30 O34 2.273 . S
Cd30 O38 2.277 . S
O31 C28 1.160 . S
O31 Cd32 2.203 . S
Cd32 O31 2.203 . S
Cd32 O34 2.411 . S
Cd32 O35 2.333 . S
Cd32 O36 2.352 . S
Cd32 O40 2.277 . S
Cd32 O41 2.356 . S
C33 O38 1.209 . S
C33 O40 1.226 . S
O34 Cd30 2.273 . S
O34 Cd32 2.411 . S
O34 C37 1.320 . S
O35 Cd32 2.333 . S
O35 C37 1.214 . S
O36 Cd32 2.352 . S
O36 C39 1.258 . S
C37 O34 1.320 . S
C37 O35 1.214 . S
O38 Cd30 2.277 . S
O38 C33 1.209 . S
C39 O36 1.258 . S
C39 O41 1.282 . S
O40 Cd32 2.277 . S
O40 C33 1.226 . S
O41 Cd32 2.356 . S
O41 C39 1.282 . S
C42 O43 1.306 . S
C42 O45 1.160 . S
O43 C42 1.306 . S
O43 Cd44 2.228 . S
Cd44 O43 2.228 . S
Cd44 O48 2.273 . S
Cd44 O52 2.277 . S
O45 C42 1.160 . S
O45 Cd46 2.203 . S
Cd46 O45 2.203 . S
Cd46 O48 2.411 . S
Cd46 O49 2.333 . S
Cd46 O50 2.352 . S
Cd46 O54 2.277 . S
Cd46 O55 2.356 . S
C47 O52 1.209 . S
C47 O54 1.226 . S
O48 Cd44 2.273 . S
O48 Cd46 2.411 . S
O48 C51 1.320 . S
O49 Cd46 2.333 . S
O49 C51 1.214 . S
O50 Cd46 2.352 . S
O50 C53 1.258 . S
C51 O48 1.320 . S
C51 O49 1.214 . S
O52 Cd44 2.277 . S
O52 C47 1.209 . S
C53 O50 1.258 . S
C53 O55 1.282 . S
O54 Cd46 2.277 . S
O54 C47 1.226 . S
O55 Cd46 2.356 . S
O55 C53 1.282 . S
C56 O57 1.306 . S
C56 O59 1.160 1_545 S
O57 C56 1.306 . S
O57 Cd58 2.228 . S
Cd58 O57 2.228 . S
Cd58 O62 2.273 . S
Cd58 O66 2.277 . S
O59 C56 1.160 1_565 S
O59 Cd60 2.203 . S
Cd60 O59 2.203 . S
Cd60 O62 2.411 1_565 S
Cd60 O63 2.333 1_565 S
Cd60 O64 2.352 . S
Cd60 O68 2.277 . S
Cd60 O69 2.356 . S
C61 O66 1.209 . S
C61 O68 1.226 1_545 S
O62 Cd58 2.273 . S
O62 Cd60 2.411 1_545 S
O62 C65 1.320 . S
O63 Cd60 2.333 1_545 S
O63 C65 1.214 . S
O64 Cd60 2.352 . S
O64 C67 1.258 . S
C65 O62 1.320 . S
C65 O63 1.214 . S
O66 Cd58 2.277 . S
O66 C61 1.209 . S
C67 O64 1.258 . S
C67 O69 1.282 . S
O68 Cd60 2.277 . S
O68 C61 1.226 1_565 S
O69 Cd60 2.356 . S
O69 C67 1.282 . S
C70 O71 1.306 . S
C70 O73 1.160 . S
O71 C70 1.306 . S
O71 Cd72 2.228 . S
Cd72 O71 2.228 . S
Cd72 O76 2.273 . S
Cd72 O80 2.277 . S
O73 C70 1.160 . S
O73 Cd74 2.203 . S
Cd74 O73 2.203 . S
Cd74 O76 2.411 . S
Cd74 O77 2.333 . S
Cd74 O78 2.352 . S
Cd74 O82 2.277 . S
Cd74 O83 2.356 . S
C75 O80 1.209 . S
C75 O82 1.226 . S
O76 Cd72 2.273 . S
O76 Cd74 2.411 . S
O76 C79 1.320 . S
O77 Cd74 2.333 . S
O77 C79 1.214 . S
O78 Cd74 2.352 . S
O78 C81 1.258 . S
C79 O76 1.320 . S
C79 O77 1.214 . S
O80 Cd72 2.277 . S
O80 C75 1.209 . S
C81 O78 1.258 . S
C81 O83 1.282 . S
O82 Cd74 2.277 . S
O82 C75 1.226 . S
O83 Cd74 2.356 . S
O83 C81 1.282 . S
C84 O85 1.306 . S
C84 O87 1.160 1_565 S
O85 C84 1.306 . S
O85 Cd86 2.228 . S
Cd86 O85 2.228 . S
Cd86 O90 2.273 . S
Cd86 O94 2.277 . S
O87 C84 1.160 1_545 S
O87 Cd88 2.203 . S
Cd88 O87 2.203 . S
Cd88 O90 2.411 1_545 S
Cd88 O91 2.333 1_545 S
Cd88 O92 2.352 . S
Cd88 O96 2.277 . S
Cd88 O97 2.356 . S
C89 O94 1.209 1_545 S
C89 O96 1.226 . S
O90 Cd86 2.273 . S
O90 Cd88 2.411 1_565 S
O90 C93 1.320 . S
O91 Cd88 2.333 1_565 S
O91 C93 1.214 . S
O92 Cd88 2.352 . S
O92 C95 1.258 . S
C93 O90 1.320 . S
C93 O91 1.214 . S
O94 Cd86 2.277 . S
O94 C89 1.209 1_565 S
C95 O92 1.258 . S
C95 O97 1.282 . S
O96 Cd88 2.277 . S
O96 C89 1.226 . S
O97 Cd88 2.356 . S
O97 C95 1.282 . S
C98 O99 1.306 . S
C98 O101 1.160 1_554 S
O99 C98 1.306 . S
O99 Cd100 2.228 . S
Cd100 O99 2.228 . S
Cd100 O104 2.273 . S
Cd100 O108 2.277 . S
O101 C98 1.160 1_556 S
O101 Cd102 2.203 . S
Cd102 O101 2.203 . S
Cd102 O104 2.411 1_556 S
Cd102 O105 2.333 1_556 S
Cd102 O106 2.352 . S
Cd102 O110 2.277 . S
Cd102 O111 2.356 . S
C103 O108 1.181 1_556 S
C103 O110 1.254 . S
O104 Cd100 2.273 . S
O104 Cd102 2.411 1_554 S
O104 C107 1.320 . S
O105 Cd102 2.333 1_554 S
O105 C107 1.214 . S
O106 Cd102 2.352 . S
O106 C109 1.258 . S
C107 O104 1.320 . S
C107 O105 1.214 . S
O108 Cd100 2.277 . S
O108 C103 1.181 1_554 S
C109 O106 1.258 . S
C109 O111 1.282 . S
O110 Cd102 2.277 . S
O110 C103 1.254 . S
O111 Cd102 2.356 . S
O111 C109 1.282 . S
C112 O113 1.306 1_554 S
C112 O115 1.160 . S
O113 C112 1.306 1_556 S
O113 Cd114 2.228 . S
Cd114 O113 2.228 . S
Cd114 O118 2.273 . S
Cd114 O122 2.277 . S
O115 C112 1.160 . S
O115 Cd116 2.203 . S
Cd116 O115 2.203 . S
Cd116 O118 2.411 1_554 S
Cd116 O119 2.333 . S
Cd116 O120 2.352 . S
Cd116 O124 2.277 . S
Cd116 O125 2.356 . S
C117 O122 1.209 1_554 S
C117 O124 1.226 . S
O118 Cd114 2.273 . S
O118 Cd116 2.411 1_556 S
O118 C121 1.320 . S
O119 Cd116 2.333 . S
O119 C121 1.214 1_554 S
O120 Cd116 2.352 . S
O120 C123 1.258 . S
C121 O118 1.320 . S
C121 O119 1.214 1_556 S
O122 Cd114 2.277 . S
O122 C117 1.209 1_556 S
C123 O120 1.258 . S
C123 O125 1.282 . S
O124 Cd116 2.277 . S
O124 C117 1.226 . S
O125 Cd116 2.356 . S
O125 C123 1.282 . S
C126 O127 1.306 . S
C126 O129 1.160 . S
O127 C126 1.306 . S
O127 Cd128 2.228 . S
Cd128 O127 2.228 . S
Cd128 O132 2.273 . S
Cd128 O136 2.277 . S
O129 C126 1.160 . S
O129 Cd130 2.203 . S
Cd130 O129 2.203 . S
Cd130 O132 2.411 . S
Cd130 O133 2.333 . S
Cd130 O134 2.352 . S
Cd130 O138 2.277 . S
Cd130 O139 2.356 . S
C131 O136 1.209 . S
C131 O138 1.226 . S
O132 Cd128 2.273 . S
O132 Cd130 2.411 . S
O132 C135 1.320 . S
O133 Cd130 2.333 . S
O133 C135 1.214 . S
O134 Cd130 2.352 . S
O134 C137 1.258 . S
C135 O132 1.320 . S
C135 O133 1.214 . S
O136 Cd128 2.277 . S
O136 C131 1.209 . S
C137 O134 1.258 . S
C137 O139 1.282 . S
O138 Cd130 2.277 . S
O138 C131 1.226 . S
O139 Cd130 2.356 . S
O139 C137 1.282 . S
C140 O141 1.306 . S
C140 O143 1.160 . S
O141 C140 1.306 . S
O141 Cd142 2.228 . S
Cd142 O141 2.228 . S
Cd142 O146 2.273 . S
Cd142 O150 2.277 . S
O143 C140 1.160 . S
O143 Cd144 2.203 . S
Cd144 O143 2.203 . S
Cd144 O146 2.411 . S
Cd144 O147 2.333 . S
Cd144 O148 2.352 . S
Cd144 O152 2.277 . S
Cd144 O153 2.356 . S
C145 O150 1.209 . S
C145 O152 1.226 . S
O146 Cd142 2.273 . S
O146 Cd144 2.411 . S
O146 C149 1.320 . S
O147 Cd144 2.333 . S
O147 C149 1.214 . S
O148 Cd144 2.352 . S
O148 C151 1.258 . S
C149 O146 1.320 . S
C149 O147 1.214 . S
O150 Cd142 2.277 . S
O150 C145 1.209 . S
C151 O148 1.258 . S
C151 O153 1.282 . S
O152 Cd144 2.277 . S
O152 C145 1.226 . S
O153 Cd144 2.356 . S
O153 C151 1.282 . S
C154 O155 1.306 . S
C154 O157 1.160 . S
O155 C154 1.306 . S
O155 Cd156 2.228 . S
Cd156 O155 2.228 . S
Cd156 O160 2.273 . S
Cd156 O164 2.277 . S
O157 C154 1.160 . S
O157 Cd158 2.203 . S
Cd158 O157 2.203 . S
Cd158 O160 2.411 . S
Cd158 O161 2.333 . S
Cd158 O162 2.352 . S
Cd158 O166 2.277 . S
Cd158 O167 2.356 . S
C159 O164 1.209 . S
C159 O166 1.226 . S
O160 Cd156 2.273 . S
O160 Cd158 2.411 . S
O160 C163 1.320 . S
O161 Cd158 2.333 . S
O161 C163 1.214 . S
O162 Cd158 2.352 . S
O162 C165 1.258 . S
C163 O160 1.320 . S
C163 O161 1.214 . S
O164 Cd156 2.277 . S
O164 C159 1.209 . S
C165 O162 1.258 . S
C165 O167 1.282 . S
O166 Cd158 2.277 . S
O166 C159 1.226 . S
O167 Cd158 2.356 . S
O167 C165 1.282 . S
H168 C176 0.930 . S
H169 C179 0.930 . S
H170 C181 0.930 . S
H171 C182 0.970 . S
H172 C182 0.970 . S
H173 C184 0.919 1_455 S
H174 C186 0.930 . S
H175 C188 0.930 . S
C176 H168 0.930 . S
C176 C177 1.382 . S
C176 C178 1.426 . S
C177 C176 1.382 . S
C177 C181 1.389 . S
C178 C176 1.426 . S
C178 C179 1.375 . S
C178 C182 1.532 . S
C179 H169 0.930 . S
C179 C178 1.375 . S
C179 C180 1.416 . S
C180 C179 1.416 . S
C180 C181 1.371 . S
C181 H170 0.930 . S
C181 C177 1.389 . S
C181 C180 1.371 . S
C182 H171 0.970 . S
C182 H172 0.970 . S
C182 C178 1.532 . S
C182 C183 1.499 . S
C183 C182 1.499 . S
C183 C184 1.355 1_455 S
C183 C188 1.415 . S
C184 H173 0.919 1_655 S
C184 C183 1.355 1_655 S
C184 C185 1.433 . S
C185 C184 1.433 . S
C185 C186 1.365 . S
C186 H174 0.930 . S
C186 C185 1.365 . S
C186 C187 1.393 . S
C187 C186 1.393 . S
C187 C188 1.387 1_655 S
C188 H175 0.930 . S
C188 C183 1.415 . S
C188 C187 1.387 1_455 S
H189 C197 0.930 . S
H190 C200 0.930 1_554 S
H191 C202 0.930 . S
H192 C203 0.970 . S
H193 C203 0.970 . S
H194 C205 0.930 . S
H195 C207 0.930 . S
H196 C209 0.930 1_554 S
C197 H189 0.930 . S
C197 C198 1.382 . S
C197 C199 1.426 . S
C198 C197 1.382 . S
C198 C202 1.389 . S
C199 C197 1.426 . S
C199 C200 1.375 . S
C199 C203 1.532 . S
C200 H190 0.930 1_556 S
C200 C199 1.375 . S
C200 C201 1.416 . S
C201 C200 1.416 . S
C201 C202 1.371 . S
C202 H191 0.930 . S
C202 C198 1.389 . S
C202 C201 1.371 . S
C203 H192 0.970 . S
C203 H193 0.970 . S
C203 C199 1.532 . S
C203 C204 1.499 . S
C204 C203 1.499 . S
C204 C205 1.370 . S
C204 C209 1.415 . S
C205 H194 0.930 . S
C205 C204 1.370 . S
C205 C206 1.407 1_455 S
C206 C205 1.407 1_655 S
C206 C207 1.365 . S
C207 H195 0.930 . S
C207 C206 1.365 . S
C207 C208 1.393 . S
C208 C207 1.393 . S
C208 C209 1.387 1_655 S
C209 H196 0.930 1_556 S
C209 C204 1.415 . S
C209 C208 1.387 1_455 S
H210 C218 0.930 . S
H211 C221 0.930 . S
H212 C223 0.930 . S
H213 C224 0.970 . S
H214 C224 0.970 . S
H215 C226 0.930 . S
H216 C228 0.930 . S
H217 C230 0.930 . S
C218 H210 0.930 . S
C218 C219 1.382 . S
C218 C220 1.426 . S
C219 C218 1.382 . S
C219 C223 1.389 . S
C220 C218 1.426 . S
C220 C221 1.375 . S
C220 C224 1.532 . S
C221 H211 0.930 . S
C221 C220 1.375 . S
C221 C222 1.416 . S
C222 C221 1.416 . S
C222 C223 1.371 . S
C223 H212 0.930 . S
C223 C219 1.389 . S
C223 C222 1.371 . S
C224 H213 0.970 . S
C224 H214 0.970 . S
C224 C220 1.532 . S
C224 C225 1.499 . S
C225 C224 1.499 . S
C225 C226 1.370 . S
C225 C230 1.415 . S
C226 H215 0.930 . S
C226 C225 1.370 . S
C226 C227 1.407 . S
C227 C226 1.407 . S
C227 C228 1.365 . S
C228 H216 0.930 . S
C228 C227 1.365 . S
C228 C229 1.393 . S
C229 C228 1.393 . S
C229 C230 1.387 . S
C230 H217 0.930 . S
C230 C225 1.415 . S
C230 C229 1.387 . S
H231 C239 0.930 . S
H232 C242 0.930 . S
H233 C244 0.930 . S
H234 C245 0.970 . S
H235 C245 0.970 . S
H236 C247 0.930 . S
H237 C249 0.930 . S
H238 C251 0.930 . S
C239 H231 0.930 . S
C239 C240 1.382 . S
C239 C241 1.426 . S
C240 C239 1.382 . S
C240 C244 1.389 . S
C241 C239 1.426 . S
C241 C242 1.375 . S
C241 C245 1.532 . S
C242 H232 0.930 . S
C242 C241 1.375 . S
C242 C243 1.416 . S
C243 C242 1.416 . S
C243 C244 1.371 . S
C244 H233 0.930 . S
C244 C240 1.389 . S
C244 C243 1.371 . S
C245 H234 0.970 . S
C245 H235 0.970 . S
C245 C241 1.532 . S
C245 C246 1.499 . S
C246 C245 1.499 . S
C246 C247 1.370 . S
C246 C251 1.415 . S
C247 H236 0.930 . S
C247 C246 1.370 . S
C247 C248 1.407 . S
C248 C247 1.407 . S
C248 C249 1.365 . S
C249 H237 0.930 . S
C249 C248 1.365 . S
C249 C250 1.393 . S
C250 C249 1.393 . S
C250 C251 1.387 . S
C251 H238 0.930 . S
C251 C246 1.415 . S
C251 C250 1.387 . S
H252 C260 0.930 . S
H253 C263 0.930 . S
H254 C265 0.930 . S
H255 C266 0.970 . S
H256 C266 0.970 . S
H257 C268 0.930 . S
H258 C270 0.930 . S
H259 C272 0.930 . S
C260 H252 0.930 . S
C260 C261 1.382 . S
C260 C262 1.426 . S
C261 C260 1.382 . S
C261 C265 1.389 . S
C262 C260 1.426 . S
C262 C263 1.375 . S
C262 C266 1.532 1_545 S
C263 H253 0.930 . S
C263 C262 1.375 . S
C263 C264 1.416 . S
C264 C263 1.416 . S
C264 C265 1.371 . S
C265 H254 0.930 . S
C265 C261 1.389 . S
C265 C264 1.371 . S
C266 H255 0.970 . S
C266 H256 0.970 . S
C266 C262 1.532 1_565 S
C266 C267 1.499 . S
C267 C266 1.499 . S
C267 C268 1.370 . S
C267 C272 1.415 . S
C268 H257 0.930 . S
C268 C267 1.370 . S
C268 C269 1.407 . S
C269 C268 1.407 . S
C269 C270 1.365 . S
C270 H258 0.930 . S
C270 C269 1.365 . S
C270 C271 1.393 . S
C271 C270 1.393 . S
C271 C272 1.387 . S
C272 H259 0.930 . S
C272 C267 1.415 . S
C272 C271 1.387 . S
H273 C281 0.930 . S
H274 C284 0.930 . S
H275 C286 0.930 . S
H276 C287 0.970 . S
H277 C287 0.970 . S
H278 C289 0.930 . S
H279 C291 0.930 . S
H280 C293 0.930 . S
C281 H273 0.930 . S
C281 C282 1.382 . S
C281 C283 1.426 . S
C282 C281 1.382 . S
C282 C286 1.389 . S
C283 C281 1.426 . S
C283 C284 1.375 . S
C283 C287 1.532 . S
C284 H274 0.930 . S
C284 C283 1.375 . S
C284 C285 1.416 . S
C285 C284 1.416 . S
C285 C286 1.371 . S
C286 H275 0.930 . S
C286 C282 1.389 . S
C286 C285 1.371 . S
C287 H276 0.970 . S
C287 H277 0.970 . S
C287 C283 1.532 . S
C287 C288 1.499 . S
C288 C287 1.499 . S
C288 C289 1.370 . S
C288 C293 1.415 . S
C289 H278 0.930 . S
C289 C288 1.370 . S
C289 C290 1.407 . S
C290 C289 1.407 . S
C290 C291 1.365 . S
C291 H279 0.930 . S
C291 C290 1.365 . S
C291 C292 1.393 . S
C292 C291 1.393 . S
C292 C293 1.387 . S
C293 H280 0.930 . S
C293 C288 1.415 . S
C293 C292 1.387 . S
H294 C302 0.927 1_445 S
H295 C305 0.930 . S
H296 C307 0.930 . S
H297 C308 0.970 . S
H298 C308 0.970 . S
H299 C310 0.930 1_455 S
H300 C312 0.930 . S
H301 C314 0.930 . S
C302 H294 0.927 1_665 S
C302 C303 1.382 . S
C302 C304 1.426 1_565 S
C303 C302 1.382 . S
C303 C307 1.389 . S
C304 C302 1.426 1_545 S
C304 C305 1.375 1_545 S
C304 C308 1.532 . S
C305 H295 0.930 . S
C305 C304 1.375 1_565 S
C305 C306 1.416 . S
C306 C305 1.416 . S
C306 C307 1.371 . S
C307 H296 0.930 . S
C307 C303 1.389 . S
C307 C306 1.371 . S
C308 H297 0.970 . S
C308 H298 0.970 . S
C308 C304 1.532 . S
C308 C309 1.499 . S
C309 C308 1.499 . S
C309 C310 1.370 . S
C309 C314 1.415 . S
C310 H299 0.930 1_655 S
C310 C309 1.370 . S
C310 C311 1.407 . S
C311 C310 1.407 . S
C311 C312 1.365 . S
C312 H300 0.930 . S
C312 C311 1.365 . S
C312 C313 1.393 . S
C313 C312 1.393 . S
C313 C314 1.387 . S
C314 H301 0.930 . S
C314 C309 1.415 . S
C314 C313 1.387 . S
H315 C323 0.930 . S
H316 C326 0.930 . S
H317 C328 0.930 . S
H318 C329 0.970 . S
H319 C329 0.970 . S
H320 C331 0.930 1_554 S
H321 C333 0.930 . S
H322 C335 0.930 1_554 S
C323 H315 0.930 . S
C323 C324 1.382 . S
C323 C325 1.426 . S
C324 C323 1.382 . S
C324 C328 1.389 . S
C325 C323 1.426 . S
C325 C326 1.375 . S
C325 C329 1.532 . S
C326 H316 0.930 . S
C326 C325 1.375 . S
C326 C327 1.416 . S
C327 C326 1.416 . S
C327 C328 1.371 . S
C328 H317 0.930 . S
C328 C324 1.389 . S
C328 C327 1.371 . S
C329 H318 0.970 . S
C329 H319 0.970 . S
C329 C325 1.532 . S
C329 C330 1.499 . S
C330 C329 1.499 . S
C330 C331 1.370 1_554 S
C330 C335 1.415 1_554 S
C331 H320 0.930 1_556 S
C331 C330 1.370 1_556 S
C331 C332 1.407 . S
C332 C331 1.407 . S
C332 C333 1.365 . S
C333 H321 0.930 . S
C333 C332 1.365 . S
C333 C334 1.393 . S
C334 C333 1.393 . S
C334 C335 1.387 . S
C335 H322 0.930 1_556 S
C335 C330 1.415 1_556 S
C335 C334 1.387 . S
H336 C344 0.930 . S
H337 C347 0.930 . S
H338 C349 0.930 . S
H339 C350 0.970 . S
H340 C350 0.970 . S
H341 C352 0.930 . S
H342 C354 0.930 . S
H343 C356 0.930 1_545 S
C344 H336 0.930 . S
C344 C345 1.382 . S
C344 C346 1.426 . S
C345 C344 1.382 . S
C345 C349 1.389 . S
C346 C344 1.426 . S
C346 C347 1.375 . S
C346 C350 1.532 . S
C347 H337 0.930 . S
C347 C346 1.375 . S
C347 C348 1.416 . S
C348 C347 1.416 . S
C348 C349 1.371 . S
C349 H338 0.930 . S
C349 C345 1.389 . S
C349 C348 1.371 . S
C350 H339 0.970 . S
C350 H340 0.970 . S
C350 C346 1.532 . S
C350 C351 1.499 . S
C351 C350 1.499 . S
C351 C352 1.370 . S
C351 C356 1.415 . S
C352 H341 0.930 . S
C352 C351 1.370 . S
C352 C353 1.407 1_554 S
C353 C352 1.407 1_556 S
C353 C354 1.365 . S
C354 H342 0.930 . S
C354 C353 1.365 . S
C354 C355 1.393 . S
C355 C354 1.393 . S
C355 C356 1.387 1_556 S
C356 H343 0.930 1_565 S
C356 C351 1.415 . S
C356 C355 1.387 1_554 S
H357 C365 0.930 . S
H358 C368 0.930 . S
H359 C370 0.930 . S
H360 C371 0.970 . S
H361 C371 0.970 . S
H362 C373 0.930 . S
H363 C375 0.930 . S
H364 C377 0.930 . S
C365 H357 0.930 . S
C365 C366 1.382 . S
C365 C367 1.426 . S
C366 C365 1.382 . S
C366 C370 1.389 . S
C367 C365 1.426 . S
C367 C368 1.375 . S
C367 C371 1.532 . S
C368 H358 0.930 . S
C368 C367 1.375 . S
C368 C369 1.416 . S
C369 C368 1.416 . S
C369 C370 1.371 . S
C370 H359 0.930 . S
C370 C366 1.389 . S
C370 C369 1.371 . S
C371 H360 0.970 . S
C371 H361 0.970 . S
C371 C367 1.532 . S
C371 C372 1.499 . S
C372 C371 1.499 . S
C372 C373 1.370 . S
C372 C377 1.415 . S
C373 H362 0.930 . S
C373 C372 1.370 . S
C373 C374 1.407 . S
C374 C373 1.407 . S
C374 C375 1.365 . S
C375 H363 0.930 . S
C375 C374 1.365 . S
C375 C376 1.393 . S
C376 C375 1.393 . S
C376 C377 1.387 . S
C377 H364 0.930 . S
C377 C372 1.415 . S
C377 C376 1.387 . S
H378 C386 0.930 . S
H379 C389 0.930 . S
H380 C391 0.930 . S
H381 C392 0.970 . S
H382 C392 0.970 . S
H383 C394 0.930 . S
H384 C396 0.930 . S
H385 C398 0.930 . S
C386 H378 0.930 . S
C386 C387 1.382 . S
C386 C388 1.426 . S
C387 C386 1.382 . S
C387 C391 1.389 . S
C388 C386 1.426 . S
C388 C389 1.375 . S
C388 C392 1.532 . S
C389 H379 0.930 . S
C389 C388 1.375 . S
C389 C390 1.416 . S
C390 C389 1.416 . S
C390 C391 1.371 . S
C391 H380 0.930 . S
C391 C387 1.389 . S
C391 C390 1.371 . S
C392 H381 0.970 . S
C392 H382 0.970 . S
C392 C388 1.532 . S
C392 C393 1.499 . S
C393 C392 1.499 . S
C393 C394 1.370 . S
C393 C398 1.415 . S
C394 H383 0.930 . S
C394 C393 1.370 . S
C394 C395 1.407 . S
C395 C394 1.407 . S
C395 C396 1.365 . S
C396 H384 0.930 . S
C396 C395 1.365 . S
C396 C397 1.393 . S
C397 C396 1.393 . S
C397 C398 1.387 . S
C398 H385 0.930 . S
C398 C393 1.415 . S
C398 C397 1.387 . S
H399 C407 0.930 . S
H400 C410 0.930 . S
H401 C412 0.930 . S
H402 C413 0.970 . S
H403 C413 0.970 . S
H404 C415 0.930 . S
H405 C417 0.930 . S
H406 C419 0.930 . S
C407 H399 0.930 . S
C407 C408 1.382 . S
C407 C409 1.426 . S
C408 C407 1.382 . S
C408 C412 1.389 . S
C409 C407 1.426 . S
C409 C410 1.375 . S
C409 C413 1.532 . S
C410 H400 0.930 . S
C410 C409 1.375 . S
C410 C411 1.416 . S
C411 C410 1.416 . S
C411 C412 1.371 . S
C412 H401 0.930 . S
C412 C408 1.389 . S
C412 C411 1.371 . S
C413 H402 0.970 . S
C413 H403 0.970 . S
C413 C409 1.532 . S
C413 C414 1.499 . S
C414 C413 1.499 . S
C414 C415 1.370 . S
C414 C419 1.415 . S
C415 H404 0.930 . S
C415 C414 1.370 . S
C415 C416 1.407 . S
C416 C415 1.407 . S
C416 C417 1.365 . S
C417 H405 0.930 . S
C417 C416 1.365 . S
C417 C418 1.393 . S
C418 C417 1.393 . S
C418 C419 1.387 . S
C419 H406 0.930 . S
C419 C414 1.415 . S
C419 C418 1.387 . S
C420 C421 1.349 1_455 S
C420 C422 1.327 . S
C420 H445 0.950 . S
C421 C420 1.349 1_655 S
C421 C437 1.349 . S
C422 C420 1.327 . S
C422 C441 1.429 . S
C422 H446 0.950 . S
C423 C440 1.573 1_655 S
C423 C442 1.368 1_655 S
C423 H447 0.949 . S
H424 C428 0.949 . S
C425 C426 1.349 . S
C425 C427 1.327 . S
C425 H448 0.950 . S
C426 C425 1.349 . S
C426 C438 1.349 . S
C427 C425 1.327 . S
C427 C443 1.429 . S
C427 H449 0.950 1_455 S
C428 H424 0.949 . S
C428 C436 1.574 . S
C428 C444 1.368 . S
H429 C437 0.950 . S
H430 C435 0.950 . S
H431 C436 0.949 1_554 S
H432 C438 0.950 . S
H433 C439 0.950 . S
H434 C440 0.948 1_655 S
C435 H430 0.950 . S
C435 C437 1.327 . S
C435 C441 1.429 1_655 S
C436 C428 1.574 . S
C436 H431 0.949 1_556 S
C436 C442 1.368 . S
C437 C421 1.349 . S
C437 H429 0.950 . S
C437 C435 1.327 . S
C438 C426 1.349 . S
C438 H432 0.950 . S
C438 C439 1.327 . S
C439 H433 0.950 . S
C439 C438 1.327 . S
C439 C443 1.429 . S
C440 C423 1.573 1_455 S
C440 H434 0.948 1_455 S
C440 C444 1.370 . S
C441 C422 1.429 . S
C441 C435 1.429 1_455 S
C441 C442 1.523 1_554 S
C442 C423 1.368 1_455 S
C442 C436 1.368 . S
C442 C441 1.523 1_556 S
C443 C427 1.429 . S
C443 C439 1.429 . S
C443 C444 1.523 . S
C444 C428 1.368 . S
C444 C440 1.370 . S
C444 C443 1.523 . S
H445 C420 0.950 . S
H446 C422 0.950 . S
H447 C423 0.949 . S
H448 C425 0.950 . S
H449 C427 0.950 1_655 S
C450 C451 1.349 . S
C450 C452 1.327 . S
C450 H475 0.950 . S
C451 C450 1.349 . S
C451 C467 1.349 . S
C452 C450 1.327 . S
C452 C471 1.429 . S
C452 H476 0.950 . S
C453 C470 1.574 . S
C453 C472 1.368 . S
C453 H477 0.949 . S
H454 C458 0.949 . S
C455 C456 1.349 . S
C455 C457 1.327 . S
C455 H478 0.950 . S
C456 C455 1.349 . S
C456 C468 1.349 . S
C457 C455 1.327 . S
C457 C473 1.429 . S
C457 H479 0.950 . S
C458 H454 0.949 . S
C458 C466 1.574 . S
C458 C474 1.368 . S
H459 C467 0.950 . S
H460 C465 0.950 . S
H461 C466 0.949 . S
H462 C468 0.950 . S
H463 C469 0.950 . S
H464 C470 0.949 . S
C465 H460 0.950 . S
C465 C467 1.327 . S
C465 C471 1.429 . S
C466 C458 1.574 . S
C466 H461 0.949 . S
C466 C472 1.368 . S
C467 C451 1.349 . S
C467 H459 0.950 . S
C467 C465 1.327 . S
C468 C456 1.349 . S
C468 H462 0.950 . S
C468 C469 1.327 . S
C469 H463 0.950 . S
C469 C468 1.327 . S
C469 C473 1.429 . S
C470 C453 1.574 . S
C470 H464 0.949 . S
C470 C474 1.368 . S
C471 C452 1.429 . S
C471 C465 1.429 . S
C471 C472 1.523 . S
C472 C453 1.368 . S
C472 C466 1.368 . S
C472 C471 1.523 . S
C473 C457 1.429 . S
C473 C469 1.429 . S
C473 C474 1.523 . S
C474 C458 1.368 . S
C474 C470 1.368 . S
C474 C473 1.523 . S
H475 C450 0.950 . S
H476 C452 0.950 . S
H477 C453 0.949 . S
H478 C455 0.950 . S
H479 C457 0.950 . S
C480 C481 1.349 . S
C480 C482 1.327 . S
C480 H505 0.950 . S
C481 C480 1.349 . S
C481 C497 1.349 . S
C482 C480 1.327 . S
C482 C501 1.429 . S
C482 H506 0.950 . S
C483 C500 1.574 . S
C483 C502 1.368 . S
C483 H507 0.949 . S
H484 C488 0.949 . S
C485 C486 1.349 . S
C485 C487 1.327 . S
C485 H508 0.950 . S
C486 C485 1.349 . S
C486 C498 1.349 . S
C487 C485 1.327 . S
C487 C503 1.429 . S
C487 H509 0.950 . S
C488 H484 0.949 . S
C488 C496 1.574 . S
C488 C504 1.368 . S
H489 C497 0.950 . S
H490 C495 0.950 . S
H491 C496 0.949 . S
H492 C498 0.950 . S
H493 C499 0.950 . S
H494 C500 0.949 . S
C495 H490 0.950 . S
C495 C497 1.327 . S
C495 C501 1.429 . S
C496 C488 1.574 . S
C496 H491 0.949 . S
C496 C502 1.368 . S
C497 C481 1.349 . S
C497 H489 0.950 . S
C497 C495 1.327 . S
C498 C486 1.349 . S
C498 H492 0.950 . S
C498 C499 1.327 . S
C499 H493 0.950 . S
C499 C498 1.327 . S
C499 C503 1.429 . S
C500 C483 1.574 . S
C500 H494 0.949 . S
C500 C504 1.368 . S
C501 C482 1.429 . S
C501 C495 1.429 . S
C501 C502 1.523 . S
C502 C483 1.368 . S
C502 C496 1.368 . S
C502 C501 1.523 . S
C503 C487 1.429 . S
C503 C499 1.429 . S
C503 C504 1.523 . S
C504 C488 1.368 . S
C504 C500 1.368 . S
C504 C503 1.523 . S
H505 C480 0.950 . S
H506 C482 0.950 . S
H507 C483 0.949 . S
H508 C485 0.950 . S
H509 C487 0.950 . S
C510 C511 1.349 . S
C510 C512 1.327 . S
C510 H535 0.950 . S
C511 C510 1.349 . S
C511 C527 1.349 . S
C512 C510 1.327 . S
C512 C531 1.429 . S
C512 H536 0.950 . S
C513 C530 1.574 . S
C513 C532 1.368 . S
C513 H537 0.949 . S
H514 C518 0.949 . S
C515 C516 1.349 . S
C515 C517 1.327 . S
C515 H538 0.950 . S
C516 C515 1.349 . S
C516 C528 1.349 . S
C517 C515 1.327 . S
C517 C533 1.429 . S
C517 H539 0.950 . S
C518 H514 0.949 . S
C518 C526 1.574 . S
C518 C534 1.368 . S
H519 C527 0.950 . S
H520 C525 0.950 . S
H521 C526 0.949 . S
H522 C528 0.950 . S
H523 C529 0.950 . S
H524 C530 0.949 . S
C525 H520 0.950 . S
C525 C527 1.327 . S
C525 C531 1.429 . S
C526 C518 1.574 . S
C526 H521 0.949 . S
C526 C532 1.368 . S
C527 C511 1.349 . S
C527 H519 0.950 . S
C527 C525 1.327 . S
C528 C516 1.349 . S
C528 H522 0.950 . S
C528 C529 1.327 . S
C529 H523 0.950 . S
C529 C528 1.327 . S
C529 C533 1.429 . S
C530 C513 1.574 . S
C530 H524 0.949 . S
C530 C534 1.368 . S
C531 C512 1.429 . S
C531 C525 1.429 . S
C531 C532 1.523 . S
C532 C513 1.368 . S
C532 C526 1.368 . S
C532 C531 1.523 . S
C533 C517 1.429 . S
C533 C529 1.429 . S
C533 C534 1.523 . S
C534 C518 1.368 . S
C534 C530 1.368 . S
C534 C533 1.523 . S
H535 C510 0.950 . S
H536 C512 0.950 . S
H537 C513 0.949 . S
H538 C515 0.950 . S
H539 C517 0.950 . S
C540 C541 1.360 . S
C540 C542 1.327 . S
C540 H565 0.950 . S
C541 C540 1.360 . S
C541 C557 1.339 1_455 S
C542 C540 1.327 . S
C542 C561 1.429 . S
C542 H566 0.950 . S
C543 C560 1.574 . S
C543 C562 1.368 1_655 S
C543 H567 0.949 . S
H544 C548 0.949 . S
C545 C546 1.349 . S
C545 C547 1.327 . S
C545 H568 0.950 1_455 S
C546 C545 1.349 . S
C546 C558 1.349 . S
C547 C545 1.327 . S
C547 C563 1.429 . S
C547 H569 0.950 1_455 S
C548 H544 0.949 . S
C548 C556 1.574 . S
C548 C564 1.368 . S
H549 C557 0.950 . S
H550 C555 0.950 . S
H551 C556 0.949 . S
H552 C558 0.950 . S
H553 C559 0.950 . S
H554 C560 0.949 . S
C555 H550 0.950 . S
C555 C557 1.327 . S
C555 C561 1.429 1_655 S
C556 C548 1.574 . S
C556 H551 0.949 . S
C556 C562 1.368 . S
C557 C541 1.339 1_655 S
C557 H549 0.950 . S
C557 C555 1.327 . S
C558 C546 1.349 . S
C558 H552 0.950 . S
C558 C559 1.327 . S
C559 H553 0.950 . S
C559 C558 1.327 . S
C559 C563 1.429 . S
C560 C543 1.574 . S
C560 H554 0.949 . S
C560 C564 1.368 1_655 S
C561 C542 1.429 . S
C561 C555 1.429 1_455 S
C561 C562 1.523 . S
C562 C543 1.368 1_455 S
C562 C556 1.368 . S
C562 C561 1.523 . S
C563 C547 1.429 . S
C563 C559 1.429 . S
C563 C564 1.523 . S
C564 C548 1.368 . S
C564 C560 1.368 1_455 S
C564 C563 1.523 . S
H565 C540 0.950 . S
H566 C542 0.950 . S
H567 C543 0.949 . S
H568 C545 0.950 1_655 S
H569 C547 0.950 1_655 S
C570 C571 1.349 . S
C570 C572 1.327 . S
C570 H595 0.950 . S
C571 C570 1.349 . S
C571 C587 1.349 . S
C572 C570 1.327 . S
C572 C591 1.429 . S
C572 H596 0.950 . S
C573 C590 1.574 . S
C573 C592 1.368 . S
C573 H597 0.949 . S
H574 C578 0.949 . S
C575 C576 1.349 . S
C575 C577 1.327 . S
C575 H598 0.950 . S
C576 C575 1.349 . S
C576 C588 1.349 . S
C577 C575 1.327 . S
C577 C593 1.429 . S
C577 H599 0.950 . S
C578 H574 0.949 . S
C578 C586 1.574 . S
C578 C594 1.368 . S
H579 C587 0.950 . S
H580 C585 0.950 . S
H581 C586 0.949 . S
H582 C588 0.950 . S
H583 C589 0.950 . S
H584 C590 0.949 . S
C585 H580 0.950 . S
C585 C587 1.327 . S
C585 C591 1.429 . S
C586 C578 1.574 . S
C586 H581 0.949 . S
C586 C592 1.368 . S
C587 C571 1.349 . S
C587 H579 0.950 . S
C587 C585 1.327 . S
C588 C576 1.349 . S
C588 H582 0.950 . S
C588 C589 1.327 . S
C589 H583 0.950 . S
C589 C588 1.327 . S
C589 C593 1.429 . S
C590 C573 1.574 . S
C590 H584 0.949 . S
C590 C594 1.368 . S
C591 C572 1.429 . S
C591 C585 1.429 . S
C591 C592 1.523 . S
C592 C573 1.368 . S
C592 C586 1.368 . S
C592 C591 1.523 . S
C593 C577 1.429 . S
C593 C589 1.429 . S
C593 C594 1.523 . S
C594 C578 1.368 . S
C594 C590 1.368 . S
C594 C593 1.523 . S
H595 C570 0.950 . S
H596 C572 0.950 . S
H597 C573 0.949 . S
H598 C575 0.950 . S
H599 C577 0.950 . S
C600 C601 1.349 . S
C600 C602 1.327 . S
C600 H625 0.950 . S
C601 C600 1.349 . S
C601 C617 1.349 . S
C602 C600 1.327 . S
C602 C621 1.429 1_556 S
C602 H626 0.950 . S
C603 C620 1.574 . S
C603 C622 1.368 . S
C603 H627 0.949 . S
H604 C608 0.949 . S
C605 C606 1.349 . S
C605 C607 1.327 . S
C605 H628 0.950 . S
C606 C605 1.349 . S
C606 C618 1.349 . S
C607 C605 1.327 . S
C607 C623 1.429 . S
C607 H629 0.950 . S
C608 H604 0.949 . S
C608 C616 1.574 . S
C608 C624 1.368 . S
H609 C617 0.950 . S
H610 C615 0.950 1_554 S
H611 C616 0.949 . S
H612 C618 0.950 . S
H613 C619 0.950 . S
H614 C620 0.949 . S
C615 H610 0.950 1_556 S
C615 C617 1.327 . S
C615 C621 1.429 1_556 S
C616 C608 1.574 . S
C616 H611 0.949 . S
C616 C622 1.368 . S
C617 C601 1.349 . S
C617 H609 0.950 . S
C617 C615 1.327 . S
C618 C606 1.349 . S
C618 H612 0.950 . S
C618 C619 1.327 . S
C619 H613 0.950 . S
C619 C618 1.327 . S
C619 C623 1.429 . S
C620 C603 1.574 . S
C620 H614 0.949 . S
C620 C624 1.368 . S
C621 C602 1.429 1_554 S
C621 C615 1.429 1_554 S
C621 C622 1.523 . S
C622 C603 1.368 . S
C622 C616 1.368 . S
C622 C621 1.523 . S
C623 C607 1.429 . S
C623 C619 1.429 . S
C623 C624 1.523 . S
C624 C608 1.368 . S
C624 C620 1.368 . S
C624 C623 1.523 . S
H625 C600 0.950 . S
H626 C602 0.950 . S
H627 C603 0.949 . S
H628 C605 0.950 . S
H629 C607 0.950 . S
C630 C631 1.349 . S
C630 C632 1.327 . S
C630 H655 0.950 . S
C631 C630 1.349 . S
C631 C647 1.349 . S
C632 C630 1.327 . S
C632 C651 1.429 . S
C632 H656 0.950 . S
C633 C650 1.574 . S
C633 C652 1.368 . S
C633 H657 0.949 . S
H634 C638 0.949 . S
C635 C636 1.349 . S
C635 C637 1.327 . S
C635 H658 0.950 . S
C636 C635 1.349 . S
C636 C648 1.349 . S
C637 C635 1.327 . S
C637 C653 1.429 . S
C637 H659 0.950 . S
C638 H634 0.949 . S
C638 C646 1.574 . S
C638 C654 1.368 . S
H639 C647 0.950 . S
H640 C645 0.950 . S
H641 C646 0.949 . S
H642 C648 0.950 . S
H643 C649 0.950 . S
H644 C650 0.949 . S
C645 H640 0.950 . S
C645 C647 1.327 . S
C645 C651 1.429 . S
C646 C638 1.574 . S
C646 H641 0.949 . S
C646 C652 1.368 . S
C647 C631 1.349 . S
C647 H639 0.950 . S
C647 C645 1.327 . S
C648 C636 1.349 . S
C648 H642 0.950 . S
C648 C649 1.327 . S
C649 H643 0.950 . S
C649 C648 1.327 . S
C649 C653 1.429 . S
C650 C633 1.574 . S
C650 H644 0.949 . S
C650 C654 1.368 . S
C651 C632 1.429 . S
C651 C645 1.429 . S
C651 C652 1.523 . S
C652 C633 1.368 . S
C652 C646 1.368 . S
C652 C651 1.523 . S
C653 C637 1.429 . S
C653 C649 1.429 . S
C653 C654 1.523 . S
C654 C638 1.368 . S
C654 C650 1.368 . S
C654 C653 1.523 . S
H655 C630 0.950 . S
H656 C632 0.950 . S
H657 C633 0.949 . S
H658 C635 0.950 . S
H659 C637 0.950 . S
C660 C661 1.349 . S
C660 C662 1.327 . S
C660 H685 0.950 . S
C661 C660 1.349 . S
C661 C677 1.349 1_545 S
C662 C660 1.327 . S
C662 C681 1.429 . S
C662 H686 0.950 . S
C663 C680 1.574 . S
C663 C682 1.368 1_565 S
C663 H687 0.949 1_655 S
H664 C668 0.949 . S
C665 C666 1.349 1_565 S
C665 C667 1.327 . S
C665 H688 0.950 . S
C666 C665 1.349 1_545 S
C666 C678 1.349 . S
C667 C665 1.327 . S
C667 C683 1.429 1_565 S
C667 H689 0.950 . S
C668 H664 0.949 . S
C668 C676 1.574 . S
C668 C684 1.368 . S
H669 C677 0.950 . S
H670 C675 0.950 . S
H671 C676 0.949 . S
H672 C678 0.950 . S
H673 C679 0.950 . S
H674 C680 0.949 . S
C675 H670 0.950 . S
C675 C677 1.327 . S
C675 C681 1.429 1_565 S
C676 C668 1.574 . S
C676 H671 0.949 . S
C676 C682 1.368 . S
C677 C661 1.349 1_565 S
C677 H669 0.950 . S
C677 C675 1.327 . S
C678 C666 1.349 . S
C678 H672 0.950 . S
C678 C679 1.327 . S
C679 H673 0.950 . S
C679 C678 1.327 . S
C679 C683 1.429 . S
C680 C663 1.574 . S
C680 H674 0.949 . S
C680 C684 1.368 1_565 S
C681 C662 1.429 . S
C681 C675 1.429 1_545 S
C681 C682 1.523 1_455 S
C682 C663 1.368 1_545 S
C682 C676 1.368 . S
C682 C681 1.523 1_655 S
C683 C667 1.429 1_545 S
C683 C679 1.429 . S
C683 C684 1.523 . S
C684 C668 1.368 . S
C684 C680 1.368 1_545 S
C684 C683 1.523 . S
H685 C660 0.950 . S
H686 C662 0.950 . S
H687 C663 0.949 1_455 S
H688 C665 0.950 . S
H689 C667 0.950 . S
C690 C691 1.349 . S
C690 C692 1.327 . S
C690 H715 0.950 . S
C691 C690 1.349 . S
C691 C707 1.349 . S
C692 C690 1.327 . S
C692 C711 1.429 . S
C692 H716 0.950 . S
C693 C710 1.574 . S
C693 C712 1.368 . S
C693 H717 0.949 . S
H694 C698 0.949 . S
C695 C696 1.349 . S
C695 C697 1.327 . S
C695 H718 0.950 . S
C696 C695 1.349 . S
C696 C708 1.349 . S
C697 C695 1.327 . S
C697 C713 1.429 . S
C697 H719 0.950 . S
C698 H694 0.949 . S
C698 C706 1.574 . S
C698 C714 1.368 . S
H699 C707 0.950 . S
H700 C705 0.950 . S
H701 C706 0.949 . S
H702 C708 0.950 . S
H703 C709 0.950 . S
H704 C710 0.949 . S
C705 H700 0.950 . S
C705 C707 1.327 . S
C705 C711 1.429 . S
C706 C698 1.574 . S
C706 H701 0.949 . S
C706 C712 1.368 . S
C707 C691 1.349 . S
C707 H699 0.950 . S
C707 C705 1.327 . S
C708 C696 1.349 . S
C708 H702 0.950 . S
C708 C709 1.327 . S
C709 H703 0.950 . S
C709 C708 1.327 . S
C709 C713 1.429 . S
C710 C693 1.574 . S
C710 H704 0.949 . S
C710 C714 1.368 . S
C711 C692 1.429 . S
C711 C705 1.429 . S
C711 C712 1.523 . S
C712 C693 1.368 . S
C712 C706 1.368 . S
C712 C711 1.523 . S
C713 C697 1.429 . S
C713 C709 1.429 . S
C713 C714 1.523 . S
C714 C698 1.368 . S
C714 C710 1.368 . S
C714 C713 1.523 . S
H715 C690 0.950 . S
H716 C692 0.950 . S
H717 C693 0.949 . S
H718 C695 0.950 . S
H719 C697 0.950 . S
C720 C721 1.349 . S
C720 C722 1.327 . S
C720 H745 0.950 . S
C721 C720 1.349 . S
C721 C737 1.349 1_545 S
C722 C720 1.327 . S
C722 C741 1.429 . S
C722 H746 0.950 . S
C723 C740 1.574 . S
C723 C742 1.368 1_565 S
C723 H747 0.949 . S
H724 C728 0.949 . S
C725 C726 1.349 . S
C725 C727 1.327 . S
C725 H748 0.950 . S
C726 C725 1.349 . S
C726 C738 1.349 1_565 S
C727 C725 1.327 . S
C727 C743 1.429 . S
C727 H749 0.950 . S
C728 H724 0.949 . S
C728 C736 1.574 . S
C728 C744 1.340 1_545 S
H729 C737 0.950 . S
H730 C735 0.950 . S
H731 C736 0.949 . S
H732 C738 0.950 . S
H733 C739 0.950 . S
H734 C740 0.949 . S
C735 H730 0.950 . S
C735 C737 1.327 . S
C735 C741 1.429 1_565 S
C736 C728 1.574 . S
C736 H731 0.949 . S
C736 C742 1.368 . S
C737 C721 1.349 1_565 S
C737 H729 0.950 . S
C737 C735 1.327 . S
C738 C726 1.349 1_545 S
C738 H732 0.950 . S
C738 C739 1.327 . S
C739 H733 0.950 . S
C739 C738 1.327 . S
C739 C743 1.429 1_545 S
C740 C723 1.574 . S
C740 H734 0.949 . S
C740 C744 1.395 . S
C741 C722 1.429 . S
C741 C735 1.429 1_545 S
C741 C742 1.523 . S
C742 C723 1.368 1_545 S
C742 C736 1.368 . S
C742 C741 1.523 . S
C743 C727 1.429 . S
C743 C739 1.429 1_565 S
C743 C744 1.526 . S
C744 C728 1.340 1_565 S
C744 C740 1.395 . S
C744 C743 1.526 . S
H745 C720 0.950 . S
H746 C722 0.950 . S
H747 C723 0.949 . S
H748 C725 0.950 . S
H749 C727 0.950 . S
C750 C751 1.349 . S
C750 C752 1.327 . S
C750 H775 0.950 . S
C751 C750 1.349 . S
C751 C767 1.349 . S
C752 C750 1.327 . S
C752 C771 1.429 . S
C752 H776 0.950 . S
C753 C770 1.574 . S
C753 C772 1.368 . S
C753 H777 0.949 . S
H754 C758 0.949 . S
C755 C756 1.349 . S
C755 C757 1.327 . S
C755 H778 0.950 . S
C756 C755 1.349 . S
C756 C768 1.349 . S
C757 C755 1.327 . S
C757 C773 1.429 . S
C757 H779 0.950 . S
C758 H754 0.949 . S
C758 C766 1.574 . S
C758 C774 1.368 . S
H759 C767 0.950 . S
H760 C765 0.950 . S
H761 C766 0.949 . S
H762 C768 0.950 . S
H763 C769 0.950 . S
H764 C770 0.949 . S
C765 H760 0.950 . S
C765 C767 1.327 . S
C765 C771 1.429 . S
C766 C758 1.574 . S
C766 H761 0.949 . S
C766 C772 1.368 . S
C767 C751 1.349 . S
C767 H759 0.950 . S
C767 C765 1.327 . S
C768 C756 1.349 . S
C768 H762 0.950 . S
C768 C769 1.327 . S
C769 H763 0.950 . S
C769 C768 1.327 . S
C769 C773 1.429 . S
C770 C753 1.574 . S
C770 H764 0.949 . S
C770 C774 1.368 . S
C771 C752 1.429 . S
C771 C765 1.429 . S
C771 C772 1.523 . S
C772 C753 1.368 . S
C772 C766 1.368 . S
C772 C771 1.523 . S
C773 C757 1.429 . S
C773 C769 1.429 . S
C773 C774 1.523 . S
C774 C758 1.368 . S
C774 C770 1.368 . S
C774 C773 1.523 . S
H775 C750 0.950 . S
H776 C752 0.950 . S
H777 C753 0.949 . S
H778 C755 0.950 . S
H779 C757 0.950 . S
C780 C781 1.349 . S
C780 C782 1.327 . S
C780 H805 0.950 . S
C781 C780 1.349 . S
C781 C797 1.349 1_545 S
C782 C780 1.327 . S
C782 C801 1.429 . S
C782 H806 0.950 . S
C783 C800 1.574 . S
C783 C802 1.368 1_565 S
C783 H807 0.949 . S
H784 C788 0.949 . S
C785 C786 1.349 . S
C785 C787 1.327 . S
C785 H808 0.950 . S
C786 C785 1.349 . S
C786 C798 1.349 1_565 S
C787 C785 1.327 . S
C787 C803 1.429 . S
C787 H809 0.950 . S
C788 H784 0.949 . S
C788 C796 1.574 . S
C788 C804 1.343 1_545 S
H789 C797 0.950 . S
H790 C795 0.950 . S
H791 C796 0.949 . S
H792 C798 0.950 . S
H793 C799 0.950 . S
H794 C800 0.949 . S
C795 H790 0.950 . S
C795 C797 1.327 . S
C795 C801 1.429 1_565 S
C796 C788 1.574 . S
C796 H791 0.949 . S
C796 C802 1.368 . S
C797 C781 1.349 1_565 S
C797 H789 0.950 . S
C797 C795 1.327 . S
C798 C786 1.349 1_545 S
C798 H792 0.950 . S
C798 C799 1.327 . S
C799 H793 0.950 . S
C799 C798 1.327 . S
C799 C803 1.429 1_545 S
C800 C783 1.574 . S
C800 H794 0.949 . S
C800 C804 1.393 . S
C801 C782 1.429 . S
C801 C795 1.429 1_545 S
C801 C802 1.523 1_455 S
C802 C783 1.368 1_545 S
C802 C796 1.368 . S
C802 C801 1.523 1_655 S
C803 C787 1.429 . S
C803 C799 1.429 1_565 S
C803 C804 1.524 . S
C804 C788 1.343 1_565 S
C804 C800 1.393 . S
C804 C803 1.524 . S
H805 C780 0.950 . S
H806 C782 0.950 . S
H807 C783 0.949 . S
H808 C785 0.950 . S
H809 C787 0.950 . S
C810 C811 1.349 . S
C810 C812 1.327 . S
C810 H835 0.950 . S
C811 C810 1.349 . S
C811 C827 1.349 . S
C812 C810 1.327 . S
C812 C831 1.429 . S
C812 H836 0.950 . S
C813 C830 1.574 . S
C813 C832 1.368 . S
C813 H837 0.949 . S
H814 C818 0.949 . S
C815 C816 1.349 . S
C815 C817 1.327 . S
C815 H838 0.950 . S
C816 C815 1.349 . S
C816 C828 1.349 . S
C817 C815 1.327 . S
C817 C833 1.429 . S
C817 H839 0.950 . S
C818 H814 0.949 . S
C818 C826 1.574 . S
C818 C834 1.368 . S
H819 C827 0.950 . S
H820 C825 0.950 . S
H821 C826 0.949 . S
H822 C828 0.950 . S
H823 C829 0.950 . S
H824 C830 0.949 . S
C825 H820 0.950 . S
C825 C827 1.327 . S
C825 C831 1.429 . S
C826 C818 1.574 . S
C826 H821 0.949 . S
C826 C832 1.368 . S
C827 C811 1.349 . S
C827 H819 0.950 . S
C827 C825 1.327 . S
C828 C816 1.349 . S
C828 H822 0.950 . S
C828 C829 1.327 . S
C829 H823 0.950 . S
C829 C828 1.327 . S
C829 C833 1.429 . S
C830 C813 1.574 . S
C830 H824 0.949 . S
C830 C834 1.368 . S
C831 C812 1.429 . S
C831 C825 1.429 . S
C831 C832 1.523 . S
C832 C813 1.368 . S
C832 C826 1.368 . S
C832 C831 1.523 . S
C833 C817 1.429 . S
C833 C829 1.429 . S
C833 C834 1.523 . S
C834 C818 1.368 . S
C834 C830 1.368 . S
C834 C833 1.523 . S
H835 C810 0.950 . S
H836 C812 0.950 . S
H837 C813 0.949 . S
H838 C815 0.950 . S
H839 C817 0.950 . S
C840 C841 1.349 1_545 S
C840 C842 1.327 . S
C840 H865 0.950 . S
C841 C840 1.349 1_565 S
C841 C857 1.349 . S
C842 C840 1.327 . S
C842 C861 1.429 . S
C842 H866 0.950 . S
C843 C860 1.574 . S
C843 C862 1.368 1_565 S
C843 H867 0.949 . S
H844 C848 0.949 . S
C845 C846 1.349 1_565 S
C845 C847 1.327 . S
C845 H868 0.950 . S
C846 C845 1.349 1_545 S
C846 C858 1.349 . S
C847 C845 1.327 . S
C847 C863 1.429 1_565 S
C847 H869 0.950 . S
C848 H844 0.949 . S
C848 C856 1.574 . S
C848 C864 1.368 . S
H849 C857 0.950 . S
H850 C855 0.950 . S
H851 C856 0.949 . S
H852 C858 0.950 . S
H853 C859 0.950 . S
H854 C860 0.949 . S
C855 H850 0.950 . S
C855 C857 1.327 . S
C855 C861 1.429 1_565 S
C856 C848 1.574 . S
C856 H851 0.949 . S
C856 C862 1.368 . S
C857 C841 1.349 . S
C857 H849 0.950 . S
C857 C855 1.327 . S
C858 C846 1.349 . S
C858 H852 0.950 . S
C858 C859 1.327 . S
C859 H853 0.950 . S
C859 C858 1.327 . S
C859 C863 1.429 . S
C860 C843 1.574 . S
C860 H854 0.949 . S
C860 C864 1.368 1_565 S
C861 C842 1.429 . S
C861 C855 1.429 1_545 S
C861 C862 1.523 . S
C862 C843 1.368 1_545 S
C862 C856 1.368 . S
C862 C861 1.523 . S
C863 C847 1.429 1_545 S
C863 C859 1.429 . S
C863 C864 1.523 . S
C864 C848 1.368 . S
C864 C860 1.368 1_545 S
C864 C863 1.523 . S
H865 C840 0.950 . S
H866 C842 0.950 . S
H867 C843 0.949 . S
H868 C845 0.950 . S
H869 C847 0.950 . S
C870 C871 1.349 . S
C870 C872 1.327 . S
C870 H895 0.950 . S
C871 C870 1.349 . S
C871 C887 1.349 . S
C872 C870 1.327 . S
C872 C891 1.429 . S
C872 H896 0.950 . S
C873 C890 1.574 . S
C873 C892 1.368 . S
C873 H897 0.949 . S
H874 C878 0.949 . S
C875 C876 1.349 . S
C875 C877 1.327 . S
C875 H898 0.950 . S
C876 C875 1.349 . S
C876 C888 1.349 . S
C877 C875 1.327 . S
C877 C893 1.429 . S
C877 H899 0.950 . S
C878 H874 0.949 . S
C878 C886 1.574 . S
C878 C894 1.368 . S
H879 C887 0.950 . S
H880 C885 0.950 . S
H881 C886 0.949 . S
H882 C888 0.950 . S
H883 C889 0.950 . S
H884 C890 0.949 . S
C885 H880 0.950 . S
C885 C887 1.327 . S
C885 C891 1.429 . S
C886 C878 1.574 . S
C886 H881 0.949 . S
C886 C892 1.368 . S
C887 C871 1.349 . S
C887 H879 0.950 . S
C887 C885 1.327 . S
C888 C876 1.349 . S
C888 H882 0.950 . S
C888 C889 1.327 . S
C889 H883 0.950 . S
C889 C888 1.327 . S
C889 C893 1.429 . S
C890 C873 1.574 . S
C890 H884 0.949 . S
C890 C894 1.368 . S
C891 C872 1.429 . S
C891 C885 1.429 . S
C891 C892 1.523 . S
C892 C873 1.368 . S
C892 C886 1.368 . S
C892 C891 1.523 . S
C893 C877 1.429 . S
C893 C889 1.429 . S
C893 C894 1.523 . S
C894 C878 1.368 . S
C894 C890 1.368 . S
C894 C893 1.523 . S
H895 C870 0.950 . S
H896 C872 0.950 . S
H897 C873 0.949 . S
H898 C875 0.950 . S
H899 C877 0.950 . S
C900 C901 1.349 . S
C900 C902 1.327 . S
C900 H925 0.950 . S
C901 C900 1.349 . S
C901 C917 1.349 1_556 S
C902 C900 1.327 . S
C902 C921 1.419 1_556 S
C902 H926 0.950 . S
C903 C920 1.574 . S
C903 C922 1.368 . S
C903 H927 0.949 . S
H904 C908 0.949 . S
C905 C906 1.349 . S
C905 C907 1.327 . S
C905 H928 0.950 . S
C906 C905 1.349 . S
C906 C918 1.349 1_554 S
C907 C905 1.327 . S
C907 C923 1.429 . S
C907 H929 0.950 . S
C908 H904 0.949 . S
C908 C916 1.574 . S
C908 C924 1.368 1_556 S
H909 C917 0.950 . S
H910 C915 0.950 . S
H911 C916 0.949 . S
H912 C918 0.950 . S
H913 C919 0.950 . S
H914 C920 0.949 . S
C915 H910 0.950 . S
C915 C917 1.327 . S
C915 C921 1.437 . S
C916 C908 1.574 . S
C916 H911 0.949 . S
C916 C922 1.368 1_556 S
C917 C901 1.349 1_554 S
C917 H909 0.950 . S
C917 C915 1.327 . S
C918 C906 1.349 1_556 S
C918 H912 0.950 . S
C918 C919 1.327 . S
C919 H913 0.950 . S
C919 C918 1.327 . S
C919 C923 1.429 1_556 S
C920 C903 1.574 . S
C920 H914 0.949 . S
C920 C924 1.368 . S
C921 C902 1.419 1_554 S
C921 C915 1.437 . S
C921 C922 1.524 1_545 S
C922 C903 1.368 . S
C922 C916 1.368 1_554 S
C922 C921 1.524 1_565 S
C923 C907 1.429 . S
C923 C919 1.429 1_554 S
C923 C924 1.523 . S
C924 C908 1.368 1_554 S
C924 C920 1.368 . S
C924 C923 1.523 . S
H925 C900 0.950 . S
H926 C902 0.950 . S
H927 C903 0.949 . S
H928 C905 0.950 . S
H929 C907 0.950 . S
C930 C931 1.349 . S
C930 C932 1.327 . S
C930 H955 0.950 . S
C931 C930 1.349 . S
C931 C947 1.349 1_554 S
C932 C930 1.327 . S
C932 C951 1.429 . S
C932 H956 0.950 . S
C933 C950 1.574 . S
C933 C952 1.368 1_556 S
C933 H957 0.949 . S
H934 C938 0.949 . S
C935 C936 1.349 1_556 S
C935 C937 1.327 . S
C935 H958 0.950 . S
C936 C935 1.349 1_554 S
C936 C948 1.349 . S
C937 C935 1.327 . S
C937 C953 1.429 1_556 S
C937 H959 0.950 . S
C938 H934 0.949 . S
C938 C946 1.574 . S
C938 C954 1.368 . S
H939 C947 0.950 . S
H940 C945 0.950 . S
H941 C946 0.949 . S
H942 C948 0.950 . S
H943 C949 0.950 . S
H944 C950 0.949 . S
C945 H940 0.950 . S
C945 C947 1.327 . S
C945 C951 1.429 1_556 S
C946 C938 1.574 . S
C946 H941 0.949 . S
C946 C952 1.368 . S
C947 C931 1.349 1_556 S
C947 H939 0.950 . S
C947 C945 1.327 . S
C948 C936 1.349 . S
C948 H942 0.950 . S
C948 C949 1.327 . S
C949 H943 0.950 . S
C949 C948 1.327 . S
C949 C953 1.429 . S
C950 C933 1.574 . S
C950 H944 0.949 . S
C950 C954 1.368 1_556 S
C951 C932 1.429 . S
C951 C945 1.429 1_554 S
C951 C952 1.523 . S
C952 C933 1.368 1_554 S
C952 C946 1.368 . S
C952 C951 1.523 . S
C953 C937 1.429 1_554 S
C953 C949 1.429 . S
C953 C954 1.523 . S
C954 C938 1.368 . S
C954 C950 1.368 1_554 S
C954 C953 1.523 . S
H955 C930 0.950 . S
H956 C932 0.950 . S
H957 C933 0.949 . S
H958 C935 0.950 . S
H959 C937 0.950 . S
C960 C961 1.349 . S
C960 C962 1.327 . S
C960 H985 0.950 . S
C961 C960 1.349 . S
C961 C977 1.349 . S
C962 C960 1.327 . S
C962 C981 1.429 . S
C962 H986 0.950 . S
C963 C980 1.574 . S
C963 C982 1.368 . S
C963 H987 0.949 . S
H964 C968 0.949 . S
C965 C966 1.349 . S
C965 C967 1.327 . S
C965 H988 0.950 . S
C966 C965 1.349 . S
C966 C978 1.349 . S
C967 C965 1.327 . S
C967 C983 1.429 . S
C967 H989 0.950 . S
C968 H964 0.949 . S
C968 C976 1.574 . S
C968 C984 1.368 . S
H969 C977 0.950 . S
H970 C975 0.950 . S
H971 C976 0.949 . S
H972 C978 0.950 . S
H973 C979 0.950 . S
H974 C980 0.949 . S
C975 H970 0.950 . S
C975 C977 1.327 . S
C975 C981 1.429 . S
C976 C968 1.574 . S
C976 H971 0.949 . S
C976 C982 1.368 . S
C977 C961 1.349 . S
C977 H969 0.950 . S
C977 C975 1.327 . S
C978 C966 1.349 . S
C978 H972 0.950 . S
C978 C979 1.327 . S
C979 H973 0.950 . S
C979 C978 1.327 . S
C979 C983 1.429 . S
C980 C963 1.574 . S
C980 H974 0.949 . S
C980 C984 1.368 . S
C981 C962 1.429 . S
C981 C975 1.429 . S
C981 C982 1.523 . S
C982 C963 1.368 . S
C982 C976 1.368 . S
C982 C981 1.523 . S
C983 C967 1.429 . S
C983 C979 1.429 . S
C983 C984 1.523 . S
C984 C968 1.368 . S
C984 C980 1.368 . S
C984 C983 1.523 . S
H985 C960 0.950 . S
H986 C962 0.950 . S
H987 C963 0.949 . S
H988 C965 0.950 . S
H989 C967 0.950 . S
C990 C991 1.349 . S
C990 C992 1.327 . S
C990 H1015 0.950 . S
C991 C990 1.349 . S
C991 C1007 1.349 . S
C992 C990 1.327 . S
C992 C1011 1.429 . S
C992 H1016 0.950 . S
C993 C1010 1.574 . S
C993 C1012 1.368 . S
C993 H1017 0.949 . S
H994 C998 0.949 . S
C995 C996 1.349 . S
C995 C997 1.327 . S
C995 H1018 0.950 . S
C996 C995 1.349 . S
C996 C1008 1.349 . S
C997 C995 1.327 . S
C997 C1013 1.429 . S
C997 H1019 0.950 . S
C998 H994 0.949 . S
C998 C1006 1.574 . S
C998 C1014 1.368 . S
H999 C1007 0.950 . S
H1000 C1005 0.950 . S
H1001 C1006 0.949 . S
H1002 C1008 0.950 . S
H1003 C1009 0.950 . S
H1004 C1010 0.949 . S
C1005 H1000 0.950 . S
C1005 C1007 1.327 . S
C1005 C1011 1.429 . S
C1006 C998 1.574 . S
C1006 H1001 0.949 . S
C1006 C1012 1.368 . S
C1007 C991 1.349 . S
C1007 H999 0.950 . S
C1007 C1005 1.327 . S
C1008 C996 1.349 . S
C1008 H1002 0.950 . S
C1008 C1009 1.327 . S
C1009 H1003 0.950 . S
C1009 C1008 1.327 . S
C1009 C1013 1.429 . S
C1010 C993 1.574 . S
C1010 H1004 0.949 . S
C1010 C1014 1.368 . S
C1011 C992 1.429 . S
C1011 C1005 1.429 . S
C1011 C1012 1.523 . S
C1012 C993 1.368 . S
C1012 C1006 1.368 . S
C1012 C1011 1.523 . S
C1013 C997 1.429 . S
C1013 C1009 1.429 . S
C1013 C1014 1.523 . S
C1014 C998 1.368 . S
C1014 C1010 1.368 . S
C1014 C1013 1.523 . S
H1015 C990 0.950 . S
H1016 C992 0.950 . S
H1017 C993 0.949 . S
H1018 C995 0.950 . S
H1019 C997 0.950 . S
C1020 C1021 1.349 . S
C1020 C1022 1.327 . S
C1020 H1045 0.950 . S
C1021 C1020 1.349 . S
C1021 C1037 1.349 . S
C1022 C1020 1.327 . S
C1022 C1041 1.429 . S
C1022 H1046 0.950 . S
C1023 C1040 1.574 . S
C1023 C1042 1.368 . S
C1023 H1047 0.949 . S
H1024 C1028 0.949 . S
C1025 C1026 1.349 . S
C1025 C1027 1.327 . S
C1025 H1048 0.950 . S
C1026 C1025 1.349 . S
C1026 C1038 1.349 . S
C1027 C1025 1.327 . S
C1027 C1043 1.429 . S
C1027 H1049 0.950 . S
C1028 H1024 0.949 . S
C1028 C1036 1.574 . S
C1028 C1044 1.368 . S
H1029 C1037 0.950 . S
H1030 C1035 0.950 . S
H1031 C1036 0.949 . S
H1032 C1038 0.950 . S
H1033 C1039 0.950 . S
H1034 C1040 0.949 . S
C1035 H1030 0.950 . S
C1035 C1037 1.327 . S
C1035 C1041 1.429 . S
C1036 C1028 1.574 . S
C1036 H1031 0.949 . S
C1036 C1042 1.368 . S
C1037 C1021 1.349 . S
C1037 H1029 0.950 . S
C1037 C1035 1.327 . S
C1038 C1026 1.349 . S
C1038 H1032 0.950 . S
C1038 C1039 1.327 . S
C1039 H1033 0.950 . S
C1039 C1038 1.327 . S
C1039 C1043 1.429 . S
C1040 C1023 1.574 . S
C1040 H1034 0.949 . S
C1040 C1044 1.368 . S
C1041 C1022 1.429 . S
C1041 C1035 1.429 . S
C1041 C1042 1.523 . S
C1042 C1023 1.368 . S
C1042 C1036 1.368 . S
C1042 C1041 1.523 . S
C1043 C1027 1.429 . S
C1043 C1039 1.429 . S
C1043 C1044 1.523 . S
C1044 C1028 1.368 . S
C1044 C1040 1.368 . S
C1044 C1043 1.523 . S
H1045 C1020 0.950 . S
H1046 C1022 0.950 . S
H1047 C1023 0.949 . S
H1048 C1025 0.950 . S
H1049 C1027 0.950 . S
C1050 C1051 1.349 . S
C1050 C1052 1.327 . S
C1050 H1075 0.950 . S
C1051 C1050 1.349 . S
C1051 C1067 1.349 . S
C1052 C1050 1.327 . S
C1052 C1071 1.429 . S
C1052 H1076 0.950 1_565 S
C1053 C1070 1.574 . S
C1053 C1072 1.368 . S
C1053 H1077 0.949 . S
H1054 C1058 0.949 . S
C1055 C1056 1.349 . S
C1055 C1057 1.327 . S
C1055 H1078 0.950 . S
C1056 C1055 1.349 . S
C1056 C1068 1.349 . S
C1057 C1055 1.327 . S
C1057 C1073 1.429 . S
C1057 H1079 0.950 . S
C1058 H1054 0.949 . S
C1058 C1066 1.574 . S
C1058 C1074 1.368 . S
H1059 C1067 0.950 . S
H1060 C1065 0.950 . S
H1061 C1066 0.949 . S
H1062 C1068 0.950 . S
H1063 C1069 0.950 . S
H1064 C1070 0.949 . S
C1065 H1060 0.950 . S
C1065 C1067 1.327 . S
C1065 C1071 1.429 . S
C1066 C1058 1.574 . S
C1066 H1061 0.949 . S
C1066 C1072 1.368 . S
C1067 C1051 1.349 . S
C1067 H1059 0.950 . S
C1067 C1065 1.327 . S
C1068 C1056 1.349 . S
C1068 H1062 0.950 . S
C1068 C1069 1.327 . S
C1069 H1063 0.950 . S
C1069 C1068 1.327 . S
C1069 C1073 1.429 . S
C1070 C1053 1.574 . S
C1070 H1064 0.949 . S
C1070 C1074 1.368 . S
C1071 C1052 1.429 . S
C1071 C1065 1.429 . S
C1071 C1072 1.523 1_565 S
C1072 C1053 1.368 . S
C1072 C1066 1.368 . S
C1072 C1071 1.523 1_545 S
C1073 C1057 1.429 . S
C1073 C1069 1.429 . S
C1073 C1074 1.523 . S
C1074 C1058 1.368 . S
C1074 C1070 1.368 . S
C1074 C1073 1.523 . S
H1075 C1050 0.950 . S
H1076 C1052 0.950 1_545 S
H1077 C1053 0.949 . S
H1078 C1055 0.950 . S
H1079 C1057 0.950 . S
C1080 C1081 1.349 . S
C1080 C1082 1.327 . S
C1080 H1105 0.950 . S
C1081 C1080 1.349 . S
C1081 C1097 1.349 . S
C1082 C1080 1.327 . S
C1082 C1101 1.429 . S
C1082 H1106 0.950 . S
C1083 C1100 1.574 . S
C1083 C1102 1.368 . S
C1083 H1107 0.949 . S
H1084 C1088 0.949 . S
C1085 C1086 1.349 . S
C1085 C1087 1.327 . S
C1085 H1108 0.950 . S
C1086 C1085 1.349 . S
C1086 C1098 1.349 . S
C1087 C1085 1.327 . S
C1087 C1103 1.429 . S
C1087 H1109 0.950 . S
C1088 H1084 0.949 . S
C1088 C1096 1.574 . S
C1088 C1104 1.368 . S
H1089 C1097 0.950 . S
H1090 C1095 0.950 . S
H1091 C1096 0.949 . S
H1092 C1098 0.950 . S
H1093 C1099 0.950 . S
H1094 C1100 0.949 . S
C1095 H1090 0.950 . S
C1095 C1097 1.327 . S
C1095 C1101 1.429 . S
C1096 C1088 1.574 . S
C1096 H1091 0.949 . S
C1096 C1102 1.368 . S
C1097 C1081 1.349 . S
C1097 H1089 0.950 . S
C1097 C1095 1.327 . S
C1098 C1086 1.349 . S
C1098 H1092 0.950 . S
C1098 C1099 1.327 . S
C1099 H1093 0.950 . S
C1099 C1098 1.327 . S
C1099 C1103 1.429 . S
C1100 C1083 1.574 . S
C1100 H1094 0.949 . S
C1100 C1104 1.368 . S
C1101 C1082 1.429 . S
C1101 C1095 1.429 . S
C1101 C1102 1.523 . S
C1102 C1083 1.368 . S
C1102 C1096 1.368 . S
C1102 C1101 1.523 . S
C1103 C1087 1.429 . S
C1103 C1099 1.429 . S
C1103 C1104 1.523 . S
C1104 C1088 1.368 . S
C1104 C1100 1.368 . S
C1104 C1103 1.523 . S
H1105 C1080 0.950 . S
H1106 C1082 0.950 . S
H1107 C1083 0.949 . S
H1108 C1085 0.950 . S
H1109 C1087 0.950 . S
C1110 C1111 1.349 . S
C1110 C1112 1.327 . S
C1110 H1135 0.950 . S
C1111 C1110 1.349 . S
C1111 C1127 1.349 . S
C1112 C1110 1.327 . S
C1112 C1131 1.429 . S
C1112 H1136 0.950 . S
C1113 C1130 1.574 . S
C1113 C1132 1.368 . S
C1113 H1137 0.949 . S
H1114 C1118 0.949 . S
C1115 C1116 1.349 . S
C1115 C1117 1.327 . S
C1115 H1138 0.950 . S
C1116 C1115 1.349 . S
C1116 C1128 1.349 . S
C1117 C1115 1.327 . S
C1117 C1133 1.429 . S
C1117 H1139 0.950 . S
C1118 H1114 0.949 . S
C1118 C1126 1.574 . S
C1118 C1134 1.368 . S
H1119 C1127 0.950 . S
H1120 C1125 0.950 . S
H1121 C1126 0.949 . S
H1122 C1128 0.950 . S
H1123 C1129 0.950 . S
H1124 C1130 0.949 . S
C1125 H1120 0.950 . S
C1125 C1127 1.327 . S
C1125 C1131 1.429 . S
C1126 C1118 1.574 . S
C1126 H1121 0.949 . S
C1126 C1132 1.368 . S
C1127 C1111 1.349 . S
C1127 H1119 0.950 . S
C1127 C1125 1.327 . S
C1128 C1116 1.349 . S
C1128 H1122 0.950 . S
C1128 C1129 1.327 . S
C1129 H1123 0.950 . S
C1129 C1128 1.327 . S
C1129 C1133 1.429 . S
C1130 C1113 1.574 . S
C1130 H1124 0.949 . S
C1130 C1134 1.368 . S
C1131 C1112 1.429 . S
C1131 C1125 1.429 . S
C1131 C1132 1.523 . S
C1132 C1113 1.368 . S
C1132 C1126 1.368 . S
C1132 C1131 1.523 . S
C1133 C1117 1.429 . S
C1133 C1129 1.429 . S
C1133 C1134 1.523 . S
C1134 C1118 1.368 . S
C1134 C1130 1.368 . S
C1134 C1133 1.523 . S
H1135 C1110 0.950 . S
H1136 C1112 0.950 . S
H1137 C1113 0.949 . S
H1138 C1115 0.950 . S
H1139 C1117 0.950 . S
C1140 C1141 1.349 . S
C1140 C1142 1.327 . S
C1140 H1165 0.950 . S
C1141 C1140 1.349 . S
C1141 C1157 1.349 . S
C1142 C1140 1.327 . S
C1142 C1161 1.429 . S
C1142 H1166 0.950 . S
C1143 C1160 1.574 . S
C1143 C1162 1.368 . S
C1143 H1167 0.949 . S
H1144 C1148 0.949 . S
C1145 C1146 1.349 . S
C1145 C1147 1.327 . S
C1145 H1168 0.950 . S
C1146 C1145 1.349 . S
C1146 C1158 1.349 . S
C1147 C1145 1.327 . S
C1147 C1163 1.429 . S
C1147 H1169 0.950 . S
C1148 H1144 0.949 . S
C1148 C1156 1.574 . S
C1148 C1164 1.368 . S
H1149 C1157 0.950 . S
H1150 C1155 0.950 . S
H1151 C1156 0.949 . S
H1152 C1158 0.950 . S
H1153 C1159 0.950 . S
H1154 C1160 0.949 . S
C1155 H1150 0.950 . S
C1155 C1157 1.327 . S
C1155 C1161 1.429 . S
C1156 C1148 1.574 . S
C1156 H1151 0.949 . S
C1156 C1162 1.368 . S
C1157 C1141 1.349 . S
C1157 H1149 0.950 . S
C1157 C1155 1.327 . S
C1158 C1146 1.349 . S
C1158 H1152 0.950 . S
C1158 C1159 1.327 . S
C1159 H1153 0.950 . S
C1159 C1158 1.327 . S
C1159 C1163 1.429 . S
C1160 C1143 1.574 . S
C1160 H1154 0.949 . S
C1160 C1164 1.368 . S
C1161 C1142 1.429 . S
C1161 C1155 1.429 . S
C1161 C1162 1.523 . S
C1162 C1143 1.368 . S
C1162 C1156 1.368 . S
C1162 C1161 1.523 . S
C1163 C1147 1.429 . S
C1163 C1159 1.429 . S
C1163 C1164 1.523 . S
C1164 C1148 1.368 . S
C1164 C1160 1.368 . S
C1164 C1163 1.523 . S
H1165 C1140 0.950 . S
H1166 C1142 0.950 . S
H1167 C1143 0.949 . S
H1168 C1145 0.950 . S
H1169 C1147 0.950 . S
C1170 C1171 1.349 . S
C1170 C1172 1.327 . S
C1170 H1195 0.950 . S
C1171 C1170 1.349 . S
C1171 C1187 1.349 . S
C1172 C1170 1.327 . S
C1172 C1191 1.429 . S
C1172 H1196 0.950 . S
C1173 C1190 1.574 . S
C1173 C1192 1.368 . S
C1173 H1197 0.949 . S
H1174 C1178 0.949 . S
C1175 C1176 1.349 . S
C1175 C1177 1.327 . S
C1175 H1198 0.950 . S
C1176 C1175 1.349 . S
C1176 C1188 1.349 . S
C1177 C1175 1.327 . S
C1177 C1193 1.429 . S
C1177 H1199 0.950 . S
C1178 H1174 0.949 . S
C1178 C1186 1.574 . S
C1178 C1194 1.368 . S
H1179 C1187 0.950 . S
H1180 C1185 0.950 . S
H1181 C1186 0.949 . S
H1182 C1188 0.950 . S
H1183 C1189 0.950 . S
H1184 C1190 0.949 . S
C1185 H1180 0.950 . S
C1185 C1187 1.327 . S
C1185 C1191 1.429 . S
C1186 C1178 1.574 . S
C1186 H1181 0.949 . S
C1186 C1192 1.368 . S
C1187 C1171 1.349 . S
C1187 H1179 0.950 . S
C1187 C1185 1.327 . S
C1188 C1176 1.349 . S
C1188 H1182 0.950 . S
C1188 C1189 1.327 . S
C1189 H1183 0.950 . S
C1189 C1188 1.327 . S
C1189 C1193 1.429 . S
C1190 C1173 1.574 . S
C1190 H1184 0.949 . S
C1190 C1194 1.368 . S
C1191 C1172 1.429 . S
C1191 C1185 1.429 . S
C1191 C1192 1.523 . S
C1192 C1173 1.368 . S
C1192 C1186 1.368 . S
C1192 C1191 1.523 . S
C1193 C1177 1.429 . S
C1193 C1189 1.429 . S
C1193 C1194 1.523 . S
C1194 C1178 1.368 . S
C1194 C1190 1.368 . S
C1194 C1193 1.523 . S
H1195 C1170 0.950 . S
H1196 C1172 0.950 . S
H1197 C1173 0.949 . S
H1198 C1175 0.950 . S
H1199 C1177 0.950 . S
C1200 C1201 1.349 1_655 S
C1200 C1202 1.327 . S
C1200 H1225 0.950 . S
C1201 C1200 1.349 1_455 S
C1201 C1217 1.349 . S
C1202 C1200 1.327 . S
C1202 C1221 1.429 1_655 S
C1202 H1226 0.950 . S
C1203 C1220 1.574 . S
C1203 C1222 1.368 . S
C1203 H1227 0.949 . S
H1204 C1208 0.949 . S
C1205 C1206 1.349 . S
C1205 C1207 1.327 . S
C1205 H1228 0.950 . S
C1206 C1205 1.349 . S
C1206 C1218 1.349 1_455 S
C1207 C1205 1.327 . S
C1207 C1223 1.429 . S
C1207 H1229 0.950 . S
C1208 H1204 0.949 . S
C1208 C1216 1.574 . S
C1208 C1224 1.368 1_655 S
H1209 C1217 0.950 . S
H1210 C1215 0.950 . S
H1211 C1216 0.949 1_554 S
H1212 C1218 0.950 . S
H1213 C1219 0.950 . S
H1214 C1220 0.949 . S
C1215 H1210 0.950 . S
C1215 C1217 1.327 . S
C1215 C1221 1.429 . S
C1216 C1208 1.574 . S
C1216 H1211 0.949 1_556 S
C1216 C1222 1.368 1_655 S
C1217 C1201 1.349 . S
C1217 H1209 0.950 . S
C1217 C1215 1.327 . S
C1218 C1206 1.349 1_655 S
C1218 H1212 0.950 . S
C1218 C1219 1.327 . S
C1219 H1213 0.950 . S
C1219 C1218 1.327 . S
C1219 C1223 1.429 1_655 S
C1220 C1203 1.574 . S
C1220 H1214 0.949 . S
C1220 C1224 1.368 . S
C1221 C1202 1.429 1_455 S
C1221 C1215 1.429 . S
C1221 C1222 1.523 1_554 S
C1222 C1203 1.368 . S
C1222 C1216 1.368 1_455 S
C1222 C1221 1.523 1_556 S
C1223 C1207 1.429 . S
C1223 C1219 1.429 1_455 S
C1223 C1224 1.523 . S
C1224 C1208 1.368 1_455 S
C1224 C1220 1.368 . S
C1224 C1223 1.523 . S
H1225 C1200 0.950 . S
H1226 C1202 0.950 . S
H1227 C1203 0.949 . S
H1228 C1205 0.950 . S
H1229 C1207 0.950 . S
C1230 C1231 1.349 . S
C1230 C1232 1.327 . S
C1230 H1255 0.950 . S
C1231 C1230 1.349 . S
C1231 C1247 1.349 . S
C1232 C1230 1.327 . S
C1232 C1251 1.429 . S
C1232 H1256 0.950 . S
C1233 C1250 1.574 . S
C1233 C1252 1.368 . S
C1233 H1257 0.949 . S
H1234 C1238 0.949 . S
C1235 C1236 1.349 . S
C1235 C1237 1.327 . S
C1235 H1258 0.950 . S
C1236 C1235 1.349 . S
C1236 C1248 1.349 . S
C1237 C1235 1.327 . S
C1237 C1253 1.429 . S
C1237 H1259 0.950 . S
C1238 H1234 0.949 . S
C1238 C1246 1.574 . S
C1238 C1254 1.368 . S
H1239 C1247 0.950 . S
H1240 C1245 0.950 . S
H1241 C1246 0.949 . S
H1242 C1248 0.950 . S
H1243 C1249 0.950 . S
H1244 C1250 0.949 . S
C1245 H1240 0.950 . S
C1245 C1247 1.327 . S
C1245 C1251 1.429 . S
C1246 C1238 1.574 . S
C1246 H1241 0.949 . S
C1246 C1252 1.368 . S
C1247 C1231 1.349 . S
C1247 H1239 0.950 . S
C1247 C1245 1.327 . S
C1248 C1236 1.349 . S
C1248 H1242 0.950 . S
C1248 C1249 1.327 . S
C1249 H1243 0.950 . S
C1249 C1248 1.327 . S
C1249 C1253 1.429 . S
C1250 C1233 1.574 . S
C1250 H1244 0.949 . S
C1250 C1254 1.368 . S
C1251 C1232 1.429 . S
C1251 C1245 1.429 . S
C1251 C1252 1.523 . S
C1252 C1233 1.368 . S
C1252 C1246 1.368 . S
C1252 C1251 1.523 . S
C1253 C1237 1.429 . S
C1253 C1249 1.429 . S
C1253 C1254 1.523 . S
C1254 C1238 1.368 . S
C1254 C1250 1.368 . S
C1254 C1253 1.523 . S
H1255 C1230 0.950 . S
H1256 C1232 0.950 . S
H1257 C1233 0.949 . S
H1258 C1235 0.950 . S
H1259 C1237 0.950 . S
C1260 C1261 1.349 . S
C1260 C1262 1.327 1_556 S
C1260 H1285 0.950 . S
C1261 C1260 1.349 . S
C1261 C1277 1.349 . S
C1262 C1260 1.327 1_554 S
C1262 C1281 1.429 . S
C1262 H1286 0.950 . S
C1263 C1280 1.574 . S
C1263 C1282 1.368 . S
C1263 H1287 0.949 . S
H1264 C1268 0.949 . S
C1265 C1266 1.349 . S
C1265 C1267 1.327 . S
C1265 H1288 0.950 . S
C1266 C1265 1.349 . S
C1266 C1278 1.349 . S
C1267 C1265 1.327 . S
C1267 C1283 1.429 . S
C1267 H1289 0.950 . S
C1268 H1264 0.949 . S
C1268 C1276 1.574 . S
C1268 C1284 1.368 . S
H1269 C1277 0.950 . S
H1270 C1275 0.950 . S
H1271 C1276 0.949 . S
H1272 C1278 0.950 . S
H1273 C1279 0.950 . S
H1274 C1280 0.949 . S
C1275 H1270 0.950 . S
C1275 C1277 1.327 . S
C1275 C1281 1.429 1_556 S
C1276 C1268 1.574 . S
C1276 H1271 0.949 . S
C1276 C1282 1.368 . S
C1277 C1261 1.349 . S
C1277 H1269 0.950 . S
C1277 C1275 1.327 . S
C1278 C1266 1.349 . S
C1278 H1272 0.950 . S
C1278 C1279 1.327 . S
C1279 H1273 0.950 . S
C1279 C1278 1.327 . S
C1279 C1283 1.429 . S
C1280 C1263 1.574 . S
C1280 H1274 0.949 . S
C1280 C1284 1.368 . S
C1281 C1262 1.429 . S
C1281 C1275 1.429 1_554 S
C1281 C1282 1.523 . S
C1282 C1263 1.368 . S
C1282 C1276 1.368 . S
C1282 C1281 1.523 . S
C1283 C1267 1.429 . S
C1283 C1279 1.429 . S
C1283 C1284 1.523 . S
C1284 C1268 1.368 . S
C1284 C1280 1.368 . S
C1284 C1283 1.523 . S
H1285 C1260 0.950 . S
H1286 C1262 0.950 . S
H1287 C1263 0.949 . S
H1288 C1265 0.950 . S
H1289 C1267 0.950 . S
C1290 C1291 1.349 . S
C1290 C1292 1.327 . S
C1290 H1315 0.950 . S
C1291 C1290 1.349 . S
C1291 C1307 1.349 . S
C1292 C1290 1.327 . S
C1292 C1311 1.429 . S
C1292 H1316 0.950 . S
C1293 C1310 1.574 . S
C1293 C1312 1.368 . S
C1293 H1317 0.949 . S
H1294 C1298 0.949 . S
C1295 C1296 1.349 . S
C1295 C1297 1.327 . S
C1295 H1318 0.950 . S
C1296 C1295 1.349 . S
C1296 C1308 1.349 . S
C1297 C1295 1.327 . S
C1297 C1313 1.429 . S
C1297 H1319 0.950 . S
C1298 H1294 0.949 . S
C1298 C1306 1.574 . S
C1298 C1314 1.368 . S
H1299 C1307 0.950 . S
H1300 C1305 0.950 . S
H1301 C1306 0.949 . S
H1302 C1308 0.950 . S
H1303 C1309 0.950 . S
H1304 C1310 0.949 . S
C1305 H1300 0.950 . S
C1305 C1307 1.327 . S
C1305 C1311 1.429 . S
C1306 C1298 1.574 . S
C1306 H1301 0.949 . S
C1306 C1312 1.368 . S
C1307 C1291 1.349 . S
C1307 H1299 0.950 . S
C1307 C1305 1.327 . S
C1308 C1296 1.349 . S
C1308 H1302 0.950 . S
C1308 C1309 1.327 . S
C1309 H1303 0.950 . S
C1309 C1308 1.327 . S
C1309 C1313 1.429 . S
C1310 C1293 1.574 . S
C1310 H1304 0.949 . S
C1310 C1314 1.368 . S
C1311 C1292 1.429 . S
C1311 C1305 1.429 . S
C1311 C1312 1.523 . S
C1312 C1293 1.368 . S
C1312 C1306 1.368 . S
C1312 C1311 1.523 . S
C1313 C1297 1.429 . S
C1313 C1309 1.429 . S
C1313 C1314 1.523 . S
C1314 C1298 1.368 . S
C1314 C1310 1.368 . S
C1314 C1313 1.523 . S
H1315 C1290 0.950 . S
H1316 C1292 0.950 . S
H1317 C1293 0.949 . S
H1318 C1295 0.950 . S
H1319 C1297 0.950 . S
C1320 C1321 1.349 1_655 S
C1320 C1322 1.327 . S
C1320 H1345 0.950 . S
C1321 C1320 1.349 1_455 S
C1321 C1337 1.349 . S
C1322 C1320 1.327 . S
C1322 C1341 1.429 1_655 S
C1322 H1346 0.950 . S
C1323 C1340 1.574 . S
C1323 C1342 1.368 . S
C1323 H1347 0.949 . S
H1324 C1328 0.949 . S
C1325 C1326 1.349 . S
C1325 C1327 1.327 . S
C1325 H1348 0.950 . S
C1326 C1325 1.349 . S
C1326 C1338 1.349 1_455 S
C1327 C1325 1.327 . S
C1327 C1343 1.429 . S
C1327 H1349 0.950 . S
C1328 H1324 0.949 . S
C1328 C1336 1.574 . S
C1328 C1344 1.368 1_655 S
H1329 C1337 0.950 . S
H1330 C1335 0.950 . S
H1331 C1336 0.949 . S
H1332 C1338 0.950 . S
H1333 C1339 0.950 . S
H1334 C1340 0.949 . S
C1335 H1330 0.950 . S
C1335 C1337 1.327 . S
C1335 C1341 1.429 . S
C1336 C1328 1.574 . S
C1336 H1331 0.949 . S
C1336 C1342 1.368 1_655 S
C1337 C1321 1.349 . S
C1337 H1329 0.950 . S
C1337 C1335 1.327 . S
C1338 C1326 1.349 1_655 S
C1338 H1332 0.950 . S
C1338 C1339 1.327 . S
C1339 H1333 0.950 . S
C1339 C1338 1.327 . S
C1339 C1343 1.429 1_655 S
C1340 C1323 1.574 . S
C1340 H1334 0.949 . S
C1340 C1344 1.368 . S
C1341 C1322 1.429 1_455 S
C1341 C1335 1.429 . S
C1341 C1342 1.523 . S
C1342 C1323 1.368 . S
C1342 C1336 1.368 1_455 S
C1342 C1341 1.523 . S
C1343 C1327 1.429 . S
C1343 C1339 1.429 1_455 S
C1343 C1344 1.523 . S
C1344 C1328 1.368 1_455 S
C1344 C1340 1.368 . S
C1344 C1343 1.523 . S
H1345 C1320 0.950 . S
H1346 C1322 0.950 . S
H1347 C1323 0.949 . S
H1348 C1325 0.950 . S
H1349 C1327 0.950 . S
C1350 C1351 1.349 . S
C1350 C1352 1.327 . S
C1350 H1375 0.950 . S
C1351 C1350 1.349 . S
C1351 C1367 1.349 . S
C1352 C1350 1.327 . S
C1352 C1371 1.429 . S
C1352 H1376 0.950 . S
C1353 C1370 1.574 . S
C1353 C1372 1.368 . S
C1353 H1377 0.949 . S
H1354 C1358 0.949 . S
C1355 C1356 1.349 . S
C1355 C1357 1.327 . S
C1355 H1378 0.950 . S
C1356 C1355 1.349 . S
C1356 C1368 1.349 . S
C1357 C1355 1.327 . S
C1357 C1373 1.429 . S
C1357 H1379 0.950 . S
C1358 H1354 0.949 . S
C1358 C1366 1.574 . S
C1358 C1374 1.368 . S
H1359 C1367 0.950 . S
H1360 C1365 0.950 . S
H1361 C1366 0.949 . S
H1362 C1368 0.950 . S
H1363 C1369 0.950 . S
H1364 C1370 0.949 . S
C1365 H1360 0.950 . S
C1365 C1367 1.327 . S
C1365 C1371 1.429 . S
C1366 C1358 1.574 . S
C1366 H1361 0.949 . S
C1366 C1372 1.368 . S
C1367 C1351 1.349 . S
C1367 H1359 0.950 . S
C1367 C1365 1.327 . S
C1368 C1356 1.349 . S
C1368 H1362 0.950 . S
C1368 C1369 1.327 . S
C1369 H1363 0.950 . S
C1369 C1368 1.327 . S
C1369 C1373 1.429 . S
C1370 C1353 1.574 . S
C1370 H1364 0.949 . S
C1370 C1374 1.368 . S
C1371 C1352 1.429 . S
C1371 C1365 1.429 . S
C1371 C1372 1.523 . S
C1372 C1353 1.368 . S
C1372 C1366 1.368 . S
C1372 C1371 1.523 . S
C1373 C1357 1.429 . S
C1373 C1369 1.429 . S
C1373 C1374 1.523 . S
C1374 C1358 1.368 . S
C1374 C1370 1.368 . S
C1374 C1373 1.523 . S
H1375 C1350 0.950 . S
H1376 C1352 0.950 . S
H1377 C1353 0.949 . S
H1378 C1355 0.950 . S
H1379 C1357 0.950 . S
C1380 C1381 1.349 . S
C1380 C1382 1.327 . S
C1380 H1405 0.950 . S
C1381 C1380 1.349 . S
C1381 C1397 1.349 . S
C1382 C1380 1.327 . S
C1382 C1401 1.429 . S
C1382 H1406 0.950 . S
C1383 C1400 1.574 . S
C1383 C1402 1.368 . S
C1383 H1407 0.949 . S
H1384 C1388 0.949 . S
C1385 C1386 1.349 . S
C1385 C1387 1.327 . S
C1385 H1408 0.950 . S
C1386 C1385 1.349 . S
C1386 C1398 1.349 . S
C1387 C1385 1.327 . S
C1387 C1403 1.429 . S
C1387 H1409 0.950 . S
C1388 H1384 0.949 . S
C1388 C1396 1.574 . S
C1388 C1404 1.368 . S
H1389 C1397 0.950 . S
H1390 C1395 0.950 . S
H1391 C1396 0.949 . S
H1392 C1398 0.950 . S
H1393 C1399 0.950 . S
H1394 C1400 0.949 . S
C1395 H1390 0.950 . S
C1395 C1397 1.327 . S
C1395 C1401 1.429 . S
C1396 C1388 1.574 . S
C1396 H1391 0.949 . S
C1396 C1402 1.368 . S
C1397 C1381 1.349 . S
C1397 H1389 0.950 . S
C1397 C1395 1.327 . S
C1398 C1386 1.349 . S
C1398 H1392 0.950 . S
C1398 C1399 1.327 . S
C1399 H1393 0.950 . S
C1399 C1398 1.327 . S
C1399 C1403 1.429 . S
C1400 C1383 1.574 . S
C1400 H1394 0.949 . S
C1400 C1404 1.368 . S
C1401 C1382 1.429 . S
C1401 C1395 1.429 . S
C1401 C1402 1.523 . S
C1402 C1383 1.368 . S
C1402 C1396 1.368 . S
C1402 C1401 1.523 . S
C1403 C1387 1.429 . S
C1403 C1399 1.429 . S
C1403 C1404 1.523 . S
C1404 C1388 1.368 . S
C1404 C1400 1.368 . S
C1404 C1403 1.523 . S
H1405 C1380 0.950 . S
H1406 C1382 0.950 . S
H1407 C1383 0.949 . S
H1408 C1385 0.950 . S
H1409 C1387 0.950 . S
C1410 C1411 1.349 . S
C1410 C1412 1.327 . S
C1410 H1435 0.950 . S
C1411 C1410 1.349 . S
C1411 C1427 1.349 . S
C1412 C1410 1.327 . S
C1412 C1431 1.429 . S
C1412 H1436 0.950 . S
C1413 C1430 1.574 . S
C1413 C1432 1.368 . S
C1413 H1437 0.949 . S
H1414 C1418 0.949 . S
C1415 C1416 1.349 . S
C1415 C1417 1.327 . S
C1415 H1438 0.950 . S
C1416 C1415 1.349 . S
C1416 C1428 1.349 . S
C1417 C1415 1.327 . S
C1417 C1433 1.429 . S
C1417 H1439 0.950 . S
C1418 H1414 0.949 . S
C1418 C1426 1.574 . S
C1418 C1434 1.368 . S
H1419 C1427 0.950 . S
H1420 C1425 0.950 . S
H1421 C1426 0.949 . S
H1422 C1428 0.950 . S
H1423 C1429 0.950 . S
H1424 C1430 0.949 . S
C1425 H1420 0.950 . S
C1425 C1427 1.327 . S
C1425 C1431 1.429 . S
C1426 C1418 1.574 . S
C1426 H1421 0.949 . S
C1426 C1432 1.368 . S
C1427 C1411 1.349 . S
C1427 H1419 0.950 . S
C1427 C1425 1.327 . S
C1428 C1416 1.349 . S
C1428 H1422 0.950 . S
C1428 C1429 1.327 . S
C1429 H1423 0.950 . S
C1429 C1428 1.327 . S
C1429 C1433 1.429 . S
C1430 C1413 1.574 . S
C1430 H1424 0.949 . S
C1430 C1434 1.368 . S
C1431 C1412 1.429 . S
C1431 C1425 1.429 . S
C1431 C1432 1.523 . S
C1432 C1413 1.368 . S
C1432 C1426 1.368 . S
C1432 C1431 1.523 . S
C1433 C1417 1.429 . S
C1433 C1429 1.429 . S
C1433 C1434 1.523 . S
C1434 C1418 1.368 . S
C1434 C1430 1.368 . S
C1434 C1433 1.523 . S
H1435 C1410 0.950 . S
H1436 C1412 0.950 . S
H1437 C1413 0.949 . S
H1438 C1415 0.950 . S
H1439 C1417 0.950 . S
C1440 C1441 1.349 . S
C1440 C1442 1.327 . S
C1440 H1465 0.950 . S
C1441 C1440 1.349 . S
C1441 C1457 1.349 . S
C1442 C1440 1.327 . S
C1442 C1461 1.429 1_655 S
C1442 H1466 0.950 1_655 S
C1443 C1460 1.574 . S
C1443 C1462 1.368 . S
C1443 H1467 0.949 . S
H1444 C1448 0.949 . S
C1445 C1446 1.349 . S
C1445 C1447 1.327 . S
C1445 H1468 0.950 . S
C1446 C1445 1.349 . S
C1446 C1458 1.349 . S
C1447 C1445 1.327 . S
C1447 C1463 1.429 . S
C1447 H1469 0.950 . S
C1448 H1444 0.949 . S
C1448 C1456 1.574 . S
C1448 C1464 1.368 . S
H1449 C1457 0.950 . S
H1450 C1455 0.950 . S
H1451 C1456 0.949 . S
H1452 C1458 0.950 . S
H1453 C1459 0.950 . S
H1454 C1460 0.949 . S
C1455 H1450 0.950 . S
C1455 C1457 1.327 . S
C1455 C1461 1.429 1_655 S
C1456 C1448 1.574 . S
C1456 H1451 0.949 . S
C1456 C1462 1.368 . S
C1457 C1441 1.349 . S
C1457 H1449 0.950 . S
C1457 C1455 1.327 . S
C1458 C1446 1.349 . S
C1458 H1452 0.950 . S
C1458 C1459 1.327 . S
C1459 H1453 0.950 . S
C1459 C1458 1.327 . S
C1459 C1463 1.429 . S
C1460 C1443 1.574 . S
C1460 H1454 0.949 . S
C1460 C1464 1.368 . S
C1461 C1442 1.429 1_455 S
C1461 C1455 1.429 1_455 S
C1461 C1462 1.523 . S
C1462 C1443 1.368 . S
C1462 C1456 1.368 . S
C1462 C1461 1.523 . S
C1463 C1447 1.429 . S
C1463 C1459 1.429 . S
C1463 C1464 1.523 . S
C1464 C1448 1.368 . S
C1464 C1460 1.368 . S
C1464 C1463 1.523 . S
H1465 C1440 0.950 . S
H1466 C1442 0.950 1_455 S
H1467 C1443 0.949 . S
H1468 C1445 0.950 . S
H1469 C1447 0.950 . S
C1470 C1471 1.349 . S
C1470 C1472 1.327 . S
C1470 H1495 0.950 . S
C1471 C1470 1.349 . S
C1471 C1487 1.349 . S
C1472 C1470 1.327 . S
C1472 C1491 1.429 . S
C1472 H1496 0.950 . S
C1473 C1490 1.574 . S
C1473 C1492 1.368 . S
C1473 H1497 0.949 . S
H1474 C1478 0.949 . S
C1475 C1476 1.349 . S
C1475 C1477 1.327 . S
C1475 H1498 0.950 . S
C1476 C1475 1.349 . S
C1476 C1488 1.349 . S
C1477 C1475 1.327 . S
C1477 C1493 1.429 . S
C1477 H1499 0.950 . S
C1478 H1474 0.949 . S
C1478 C1486 1.574 . S
C1478 C1494 1.368 . S
H1479 C1487 0.950 . S
H1480 C1485 0.950 . S
H1481 C1486 0.949 . S
H1482 C1488 0.950 . S
H1483 C1489 0.950 . S
H1484 C1490 0.949 . S
C1485 H1480 0.950 . S
C1485 C1487 1.327 . S
C1485 C1491 1.429 . S
C1486 C1478 1.574 . S
C1486 H1481 0.949 . S
C1486 C1492 1.368 . S
C1487 C1471 1.349 . S
C1487 H1479 0.950 . S
C1487 C1485 1.327 . S
C1488 C1476 1.349 . S
C1488 H1482 0.950 . S
C1488 C1489 1.327 . S
C1489 H1483 0.950 . S
C1489 C1488 1.327 . S
C1489 C1493 1.429 . S
C1490 C1473 1.574 . S
C1490 H1484 0.949 . S
C1490 C1494 1.368 . S
C1491 C1472 1.429 . S
C1491 C1485 1.429 . S
C1491 C1492 1.523 . S
C1492 C1473 1.368 . S
C1492 C1486 1.368 . S
C1492 C1491 1.523 . S
C1493 C1477 1.429 . S
C1493 C1489 1.429 . S
C1493 C1494 1.523 . S
C1494 C1478 1.368 . S
C1494 C1490 1.368 . S
C1494 C1493 1.523 . S
H1495 C1470 0.950 . S
H1496 C1472 0.950 . S
H1497 C1473 0.949 . S
H1498 C1475 0.950 . S
H1499 C1477 0.950 . S
C1500 C1501 1.349 . S
C1500 C1502 1.327 . S
C1500 H1525 0.950 . S
C1501 C1500 1.349 . S
C1501 C1517 1.349 . S
C1502 C1500 1.327 . S
C1502 C1521 1.429 . S
C1502 H1526 0.950 . S
C1503 C1520 1.574 . S
C1503 C1522 1.368 . S
C1503 H1527 0.949 . S
H1504 C1508 0.949 . S
C1505 C1506 1.349 . S
C1505 C1507 1.327 . S
C1505 H1528 0.950 . S
C1506 C1505 1.349 . S
C1506 C1518 1.349 . S
C1507 C1505 1.327 . S
C1507 C1523 1.429 . S
C1507 H1529 0.950 . S
C1508 H1504 0.949 . S
C1508 C1516 1.574 . S
C1508 C1524 1.368 . S
H1509 C1517 0.950 . S
H1510 C1515 0.950 . S
H1511 C1516 0.949 . S
H1512 C1518 0.950 . S
H1513 C1519 0.950 . S
H1514 C1520 0.949 . S
C1515 H1510 0.950 . S
C1515 C1517 1.327 . S
C1515 C1521 1.429 . S
C1516 C1508 1.574 . S
C1516 H1511 0.949 . S
C1516 C1522 1.368 . S
C1517 C1501 1.349 . S
C1517 H1509 0.950 . S
C1517 C1515 1.327 . S
C1518 C1506 1.349 . S
C1518 H1512 0.950 . S
C1518 C1519 1.327 . S
C1519 H1513 0.950 . S
C1519 C1518 1.327 . S
C1519 C1523 1.429 . S
C1520 C1503 1.574 . S
C1520 H1514 0.949 . S
C1520 C1524 1.368 . S
C1521 C1502 1.429 . S
C1521 C1515 1.429 . S
C1521 C1522 1.523 . S
C1522 C1503 1.368 . S
C1522 C1516 1.368 . S
C1522 C1521 1.523 . S
C1523 C1507 1.429 . S
C1523 C1519 1.429 . S
C1523 C1524 1.523 . S
C1524 C1508 1.368 . S
C1524 C1520 1.368 . S
C1524 C1523 1.523 . S
H1525 C1500 0.950 . S
H1526 C1502 0.950 . S
H1527 C1503 0.949 . S
H1528 C1505 0.950 . S
H1529 C1507 0.950 . S
C1530 C1531 1.349 . S
C1530 C1532 1.327 . S
C1530 H1555 0.950 . S
C1531 C1530 1.349 . S
C1531 C1547 1.349 . S
C1532 C1530 1.327 . S
C1532 C1551 1.429 . S
C1532 H1556 0.950 . S
C1533 C1550 1.574 . S
C1533 C1552 1.368 . S
C1533 H1557 0.949 . S
H1534 C1538 0.949 . S
C1535 C1536 1.349 . S
C1535 C1537 1.327 . S
C1535 H1558 0.950 . S
C1536 C1535 1.349 . S
C1536 C1548 1.349 . S
C1537 C1535 1.327 . S
C1537 C1553 1.429 . S
C1537 H1559 0.950 . S
C1538 H1534 0.949 . S
C1538 C1546 1.574 . S
C1538 C1554 1.368 . S
H1539 C1547 0.950 . S
H1540 C1545 0.950 . S
H1541 C1546 0.949 . S
H1542 C1548 0.950 . S
H1543 C1549 0.950 . S
H1544 C1550 0.949 . S
C1545 H1540 0.950 . S
C1545 C1547 1.327 . S
C1545 C1551 1.429 . S
C1546 C1538 1.574 . S
C1546 H1541 0.949 . S
C1546 C1552 1.368 . S
C1547 C1531 1.349 . S
C1547 H1539 0.950 . S
C1547 C1545 1.327 . S
C1548 C1536 1.349 . S
C1548 H1542 0.950 . S
C1548 C1549 1.327 . S
C1549 H1543 0.950 . S
C1549 C1548 1.327 . S
C1549 C1553 1.429 . S
C1550 C1533 1.574 . S
C1550 H1544 0.949 . S
C1550 C1554 1.368 . S
C1551 C1532 1.429 . S
C1551 C1545 1.429 . S
C1551 C1552 1.523 . S
C1552 C1533 1.368 . S
C1552 C1546 1.368 . S
C1552 C1551 1.523 . S
C1553 C1537 1.429 . S
C1553 C1549 1.429 . S
C1553 C1554 1.523 . S
C1554 C1538 1.368 . S
C1554 C1550 1.368 . S
C1554 C1553 1.523 . S
H1555 C1530 0.950 . S
H1556 C1532 0.950 . S
H1557 C1533 0.949 . S
H1558 C1535 0.950 . S
H1559 C1537 0.950 . S
C1560 C1561 1.349 . S
C1560 C1562 1.351 . S
C1560 H1585 0.950 . S
C1561 C1560 1.349 . S
C1561 C1577 1.349 . S
C1562 C1560 1.351 . S
C1562 C1581 1.422 1_655 S
C1562 H1586 0.933 1_655 S
C1563 C1580 1.574 . S
C1563 C1582 1.368 . S
C1563 H1587 0.949 . S
H1564 C1568 0.949 . S
C1565 C1566 1.349 . S
C1565 C1567 1.327 . S
C1565 H1588 0.950 . S
C1566 C1565 1.349 . S
C1566 C1578 1.349 . S
C1567 C1565 1.327 . S
C1567 C1583 1.429 . S
C1567 H1589 0.950 . S
C1568 H1564 0.949 . S
C1568 C1576 1.574 . S
C1568 C1584 1.368 . S
H1569 C1577 0.950 . S
H1570 C1575 0.950 . S
H1571 C1576 0.949 . S
H1572 C1578 0.950 . S
H1573 C1579 0.950 . S
H1574 C1580 0.949 . S
C1575 H1570 0.950 . S
C1575 C1577 1.327 . S
C1575 C1581 1.429 1_655 S
C1576 C1568 1.574 . S
C1576 H1571 0.949 . S
C1576 C1582 1.368 . S
C1577 C1561 1.349 . S
C1577 H1569 0.950 . S
C1577 C1575 1.327 . S
C1578 C1566 1.349 . S
C1578 H1572 0.950 . S
C1578 C1579 1.327 . S
C1579 H1573 0.950 . S
C1579 C1578 1.327 . S
C1579 C1583 1.429 . S
C1580 C1563 1.574 . S
C1580 H1574 0.949 . S
C1580 C1584 1.368 . S
C1581 C1562 1.422 1_455 S
C1581 C1575 1.429 1_455 S
C1581 C1582 1.523 . S
C1582 C1563 1.368 . S
C1582 C1576 1.368 . S
C1582 C1581 1.523 . S
C1583 C1567 1.429 . S
C1583 C1579 1.429 . S
C1583 C1584 1.523 . S
C1584 C1568 1.368 . S
C1584 C1580 1.368 . S
C1584 C1583 1.523 . S
H1585 C1560 0.950 . S
H1586 C1562 0.933 1_455 S
H1587 C1563 0.949 . S
H1588 C1565 0.950 . S
H1589 C1567 0.950 . S
C1590 C1591 1.349 . S
C1590 C1592 1.327 . S
C1590 H1615 0.950 . S
C1591 C1590 1.349 . S
C1591 C1607 1.349 . S
C1592 C1590 1.327 . S
C1592 C1611 1.429 . S
C1592 H1616 0.950 . S
C1593 C1610 1.574 . S
C1593 C1612 1.368 . S
C1593 H1617 0.949 . S
H1594 C1598 0.949 . S
C1595 C1596 1.349 . S
C1595 C1597 1.327 . S
C1595 H1618 0.950 . S
C1596 C1595 1.349 . S
C1596 C1608 1.349 . S
C1597 C1595 1.327 . S
C1597 C1613 1.429 . S
C1597 H1619 0.950 . S
C1598 H1594 0.949 . S
C1598 C1606 1.574 . S
C1598 C1614 1.368 . S
H1599 C1607 0.950 . S
H1600 C1605 0.950 . S
H1601 C1606 0.949 . S
H1602 C1608 0.950 . S
H1603 C1609 0.950 . S
H1604 C1610 0.949 . S
C1605 H1600 0.950 . S
C1605 C1607 1.327 . S
C1605 C1611 1.429 . S
C1606 C1598 1.574 . S
C1606 H1601 0.949 . S
C1606 C1612 1.368 . S
C1607 C1591 1.349 . S
C1607 H1599 0.950 . S
C1607 C1605 1.327 . S
C1608 C1596 1.349 . S
C1608 H1602 0.950 . S
C1608 C1609 1.327 . S
C1609 H1603 0.950 . S
C1609 C1608 1.327 . S
C1609 C1613 1.429 . S
C1610 C1593 1.574 . S
C1610 H1604 0.949 . S
C1610 C1614 1.368 . S
C1611 C1592 1.429 . S
C1611 C1605 1.429 . S
C1611 C1612 1.523 . S
C1612 C1593 1.368 . S
C1612 C1606 1.368 . S
C1612 C1611 1.523 . S
C1613 C1597 1.429 . S
C1613 C1609 1.429 . S
C1613 C1614 1.523 . S
C1614 C1598 1.368 . S
C1614 C1610 1.368 . S
C1614 C1613 1.523 . S
H1615 C1590 0.950 . S
H1616 C1592 0.950 . S
H1617 C1593 0.949 . S
H1618 C1595 0.950 . S
H1619 C1597 0.950 . S
C1620 C1621 1.349 . S
C1620 C1622 1.327 . S
C1620 H1645 0.950 . S
C1621 C1620 1.349 . S
C1621 C1637 1.349 . S
C1622 C1620 1.327 . S
C1622 C1641 1.429 . S
C1622 H1646 0.950 . S
C1623 C1640 1.574 . S
C1623 C1642 1.368 . S
C1623 H1647 0.949 . S
H1624 C1628 0.949 . S
C1625 C1626 1.349 . S
C1625 C1627 1.327 . S
C1625 H1648 0.950 . S
C1626 C1625 1.349 . S
C1626 C1638 1.349 . S
C1627 C1625 1.327 . S
C1627 C1643 1.429 . S
C1627 H1649 0.950 . S
C1628 H1624 0.949 . S
C1628 C1636 1.574 . S
C1628 C1644 1.368 . S
H1629 C1637 0.950 . S
H1630 C1635 0.950 . S
H1631 C1636 0.949 . S
H1632 C1638 0.950 . S
H1633 C1639 0.950 . S
H1634 C1640 0.949 . S
C1635 H1630 0.950 . S
C1635 C1637 1.327 . S
C1635 C1641 1.429 . S
C1636 C1628 1.574 . S
C1636 H1631 0.949 . S
C1636 C1642 1.368 . S
C1637 C1621 1.349 . S
C1637 H1629 0.950 . S
C1637 C1635 1.327 . S
C1638 C1626 1.349 . S
C1638 H1632 0.950 . S
C1638 C1639 1.327 . S
C1639 H1633 0.950 . S
C1639 C1638 1.327 . S
C1639 C1643 1.429 . S
C1640 C1623 1.574 . S
C1640 H1634 0.949 . S
C1640 C1644 1.368 . S
C1641 C1622 1.429 . S
C1641 C1635 1.429 . S
C1641 C1642 1.523 . S
C1642 C1623 1.368 . S
C1642 C1636 1.368 . S
C1642 C1641 1.523 . S
C1643 C1627 1.429 . S
C1643 C1639 1.429 . S
C1643 C1644 1.523 . S
C1644 C1628 1.368 . S
C1644 C1640 1.368 . S
C1644 C1643 1.523 . S
H1645 C1620 0.950 . S
H1646 C1622 0.950 . S
H1647 C1623 0.949 . S
H1648 C1625 0.950 . S
H1649 C1627 0.950 . S
C1650 C1651 1.349 . S
C1650 C1652 1.327 . S
C1650 H1675 0.950 . S
C1651 C1650 1.349 . S
C1651 C1667 1.349 . S
C1652 C1650 1.327 . S
C1652 C1671 1.427 1_565 S
C1652 H1676 0.950 . S
C1653 C1670 1.574 . S
C1653 C1672 1.368 . S
C1653 H1677 0.949 . S
H1654 C1658 0.949 . S
C1655 C1656 1.349 . S
C1655 C1657 1.327 . S
C1655 H1678 0.950 . S
C1656 C1655 1.349 . S
C1656 C1668 1.349 . S
C1657 C1655 1.327 . S
C1657 C1673 1.429 . S
C1657 H1679 0.950 . S
C1658 H1654 0.949 . S
C1658 C1666 1.574 . S
C1658 C1674 1.368 . S
H1659 C1667 0.950 . S
H1660 C1665 0.950 1_545 S
H1661 C1666 0.949 . S
H1662 C1668 0.950 . S
H1663 C1669 0.950 . S
H1664 C1670 0.949 . S
C1665 H1660 0.950 1_565 S
C1665 C1667 1.327 . S
C1665 C1671 1.428 1_565 S
C1666 C1658 1.574 . S
C1666 H1661 0.949 . S
C1666 C1672 1.368 . S
C1667 C1651 1.349 . S
C1667 H1659 0.950 . S
C1667 C1665 1.327 . S
C1668 C1656 1.349 . S
C1668 H1662 0.950 . S
C1668 C1669 1.327 . S
C1669 H1663 0.950 . S
C1669 C1668 1.327 . S
C1669 C1673 1.429 . S
C1670 C1653 1.574 . S
C1670 H1664 0.949 . S
C1670 C1674 1.368 . S
C1671 C1652 1.427 1_545 S
C1671 C1665 1.428 1_545 S
C1671 C1672 1.525 . S
C1672 C1653 1.368 . S
C1672 C1666 1.368 . S
C1672 C1671 1.525 . S
C1673 C1657 1.429 . S
C1673 C1669 1.429 . S
C1673 C1674 1.523 . S
C1674 C1658 1.368 . S
C1674 C1670 1.368 . S
C1674 C1673 1.523 . S
H1675 C1650 0.950 . S
H1676 C1652 0.950 . S
H1677 C1653 0.949 . S
H1678 C1655 0.950 . S
H1679 C1657 0.950 . S
C1680 C1681 1.349 . S
C1680 C1682 1.327 . S
C1680 H1705 0.950 . S
C1681 C1680 1.349 . S
C1681 C1697 1.349 . S
C1682 C1680 1.327 . S
C1682 C1701 1.429 . S
C1682 H1706 0.950 . S
C1683 C1700 1.574 . S
C1683 C1702 1.368 . S
C1683 H1707 0.949 . S
H1684 C1688 0.949 . S
C1685 C1686 1.349 . S
C1685 C1687 1.327 . S
C1685 H1708 0.950 . S
C1686 C1685 1.349 . S
C1686 C1698 1.349 . S
C1687 C1685 1.327 . S
C1687 C1703 1.429 . S
C1687 H1709 0.950 . S
C1688 H1684 0.949 . S
C1688 C1696 1.574 . S
C1688 C1704 1.368 . S
H1689 C1697 0.950 . S
H1690 C1695 0.950 . S
H1691 C1696 0.949 . S
H1692 C1698 0.950 . S
H1693 C1699 0.950 . S
H1694 C1700 0.949 . S
C1695 H1690 0.950 . S
C1695 C1697 1.327 . S
C1695 C1701 1.429 . S
C1696 C1688 1.574 . S
C1696 H1691 0.949 . S
C1696 C1702 1.368 . S
C1697 C1681 1.349 . S
C1697 H1689 0.950 . S
C1697 C1695 1.327 . S
C1698 C1686 1.349 . S
C1698 H1692 0.950 . S
C1698 C1699 1.327 . S
C1699 H1693 0.950 . S
C1699 C1698 1.327 . S
C1699 C1703 1.429 . S
C1700 C1683 1.574 . S
C1700 H1694 0.949 . S
C1700 C1704 1.368 . S
C1701 C1682 1.429 . S
C1701 C1695 1.429 . S
C1701 C1702 1.523 . S
C1702 C1683 1.368 . S
C1702 C1696 1.368 . S
C1702 C1701 1.523 . S
C1703 C1687 1.429 . S
C1703 C1699 1.429 . S
C1703 C1704 1.523 . S
C1704 C1688 1.368 . S
C1704 C1700 1.368 . S
C1704 C1703 1.523 . S
H1705 C1680 0.950 . S
H1706 C1682 0.950 . S
H1707 C1683 0.949 . S
H1708 C1685 0.950 . S
H1709 C1687 0.950 . S
C1710 C1711 1.349 1_556 S
C1710 C1712 1.327 . S
C1710 H1735 0.950 . S
C1711 C1710 1.349 1_554 S
C1711 C1727 1.349 . S
C1712 C1710 1.327 . S
C1712 C1731 1.429 1_556 S
C1712 H1736 0.950 . S
C1713 C1730 1.574 . S
C1713 C1732 1.368 . S
C1713 H1737 0.949 . S
H1714 C1718 0.949 . S
C1715 C1716 1.349 1_554 S
C1715 C1717 1.327 . S
C1715 H1738 0.950 . S
C1716 C1715 1.349 1_556 S
C1716 C1728 1.349 . S
C1717 C1715 1.327 . S
C1717 C1733 1.411 1_554 S
C1717 H1739 0.950 . S
C1718 H1714 0.949 . S
C1718 C1726 1.574 . S
C1718 C1734 1.367 1_556 S
H1719 C1727 0.950 . S
H1720 C1725 0.950 . S
H1721 C1726 0.949 . S
H1722 C1728 0.950 . S
H1723 C1729 0.950 . S
H1724 C1730 0.949 . S
C1725 H1720 0.950 . S
C1725 C1727 1.327 . S
C1725 C1731 1.429 . S
C1726 C1718 1.574 . S
C1726 H1721 0.949 . S
C1726 C1732 1.368 1_556 S
C1727 C1711 1.349 . S
C1727 H1719 0.950 . S
C1727 C1725 1.327 . S
C1728 C1716 1.349 . S
C1728 H1722 0.950 . S
C1728 C1729 1.327 . S
C1729 H1723 0.950 . S
C1729 C1728 1.327 . S
C1729 C1733 1.446 . S
C1730 C1713 1.574 . S
C1730 H1724 0.949 . S
C1730 C1734 1.370 . S
C1731 C1712 1.429 1_554 S
C1731 C1725 1.429 . S
C1731 C1732 1.523 1_545 S
C1732 C1713 1.368 . S
C1732 C1726 1.368 1_554 S
C1732 C1731 1.523 1_565 S
C1733 C1717 1.411 1_556 S
C1733 C1729 1.446 . S
C1733 C1734 1.524 1_556 S
C1734 C1718 1.367 1_554 S
C1734 C1730 1.370 . S
C1734 C1733 1.524 1_554 S
H1735 C1710 0.950 . S
H1736 C1712 0.950 . S
H1737 C1713 0.949 . S
H1738 C1715 0.950 . S
H1739 C1717 0.950 . S
C1740 C1741 1.349 . S
C1740 C1742 1.327 . S
C1740 H1765 0.950 . S
C1741 C1740 1.349 . S
C1741 C1757 1.349 . S
C1742 C1740 1.327 . S
C1742 C1761 1.429 . S
C1742 H1766 0.950 . S
C1743 C1760 1.574 . S
C1743 C1762 1.368 . S
C1743 H1767 0.949 . S
H1744 C1748 0.949 . S
C1745 C1746 1.349 . S
C1745 C1747 1.327 . S
C1745 H1768 0.950 . S
C1746 C1745 1.349 . S
C1746 C1758 1.349 . S
C1747 C1745 1.327 . S
C1747 C1763 1.429 . S
C1747 H1769 0.950 . S
C1748 H1744 0.949 . S
C1748 C1756 1.574 . S
C1748 C1764 1.368 . S
H1749 C1757 0.950 . S
H1750 C1755 0.950 . S
H1751 C1756 0.949 . S
H1752 C1758 0.950 . S
H1753 C1759 0.950 . S
H1754 C1760 0.949 . S
C1755 H1750 0.950 . S
C1755 C1757 1.327 . S
C1755 C1761 1.429 . S
C1756 C1748 1.574 . S
C1756 H1751 0.949 . S
C1756 C1762 1.368 . S
C1757 C1741 1.349 . S
C1757 H1749 0.950 . S
C1757 C1755 1.327 . S
C1758 C1746 1.349 . S
C1758 H1752 0.950 . S
C1758 C1759 1.327 . S
C1759 H1753 0.950 . S
C1759 C1758 1.327 . S
C1759 C1763 1.429 . S
C1760 C1743 1.574 . S
C1760 H1754 0.949 . S
C1760 C1764 1.368 . S
C1761 C1742 1.429 . S
C1761 C1755 1.429 . S
C1761 C1762 1.523 . S
C1762 C1743 1.368 . S
C1762 C1756 1.368 . S
C1762 C1761 1.523 . S
C1763 C1747 1.429 . S
C1763 C1759 1.429 . S
C1763 C1764 1.523 . S
C1764 C1748 1.368 . S
C1764 C1760 1.368 . S
C1764 C1763 1.523 . S
H1765 C1740 0.950 . S
H1766 C1742 0.950 . S
H1767 C1743 0.949 . S
H1768 C1745 0.950 . S
H1769 C1747 0.950 . S
C1770 C1771 1.349 . S
C1770 C1772 1.327 . S
C1770 H1795 0.950 . S
C1771 C1770 1.349 . S
C1771 C1787 1.349 1_554 S
C1772 C1770 1.327 . S
C1772 C1791 1.429 . S
C1772 H1796 0.950 . S
C1773 C1790 1.574 . S
C1773 C1792 1.368 1_556 S
C1773 H1797 0.949 . S
H1774 C1778 0.949 . S
C1775 C1776 1.349 1_556 S
C1775 C1777 1.327 . S
C1775 H1798 0.950 . S
C1776 C1775 1.349 1_554 S
C1776 C1788 1.349 . S
C1777 C1775 1.327 . S
C1777 C1793 1.429 1_556 S
C1777 H1799 0.950 . S
C1778 H1774 0.949 . S
C1778 C1786 1.574 . S
C1778 C1794 1.368 . S
H1779 C1787 0.950 . S
H1780 C1785 0.950 . S
H1781 C1786 0.949 . S
H1782 C1788 0.950 . S
H1783 C1789 0.950 . S
H1784 C1790 0.949 . S
C1785 H1780 0.950 . S
C1785 C1787 1.327 . S
C1785 C1791 1.429 1_556 S
C1786 C1778 1.574 . S
C1786 H1781 0.949 . S
C1786 C1792 1.368 . S
C1787 C1771 1.349 1_556 S
C1787 H1779 0.950 . S
C1787 C1785 1.327 . S
C1788 C1776 1.349 . S
C1788 H1782 0.950 . S
C1788 C1789 1.327 . S
C1789 H1783 0.950 . S
C1789 C1788 1.327 . S
C1789 C1793 1.429 . S
C1790 C1773 1.574 . S
C1790 H1784 0.949 . S
C1790 C1794 1.368 1_556 S
C1791 C1772 1.429 . S
C1791 C1785 1.429 1_554 S
C1791 C1792 1.523 . S
C1792 C1773 1.368 1_554 S
C1792 C1786 1.368 . S
C1792 C1791 1.523 . S
C1793 C1777 1.429 1_554 S
C1793 C1789 1.429 . S
C1793 C1794 1.523 . S
C1794 C1778 1.368 . S
C1794 C1790 1.368 1_554 S
C1794 C1793 1.523 . S
H1795 C1770 0.950 . S
H1796 C1772 0.950 . S
H1797 C1773 0.949 . S
H1798 C1775 0.950 . S
H1799 C1777 0.950 . S
C1800 C1801 1.349 . S
C1800 C1802 1.327 . S
C1800 H1825 0.950 . S
C1801 C1800 1.349 . S
C1801 C1817 1.349 . S
C1802 C1800 1.327 . S
C1802 C1821 1.429 . S
C1802 H1826 0.950 . S
C1803 C1820 1.574 . S
C1803 C1822 1.368 . S
C1803 H1827 0.949 . S
H1804 C1808 0.949 . S
C1805 C1806 1.349 . S
C1805 C1807 1.327 . S
C1805 H1828 0.950 . S
C1806 C1805 1.349 . S
C1806 C1818 1.349 . S
C1807 C1805 1.327 . S
C1807 C1823 1.429 . S
C1807 H1829 0.950 . S
C1808 H1804 0.949 . S
C1808 C1816 1.574 . S
C1808 C1824 1.368 . S
H1809 C1817 0.950 . S
H1810 C1815 0.950 . S
H1811 C1816 0.949 . S
H1812 C1818 0.950 . S
H1813 C1819 0.950 . S
H1814 C1820 0.949 . S
C1815 H1810 0.950 . S
C1815 C1817 1.327 . S
C1815 C1821 1.429 . S
C1816 C1808 1.574 . S
C1816 H1811 0.949 . S
C1816 C1822 1.368 . S
C1817 C1801 1.349 . S
C1817 H1809 0.950 . S
C1817 C1815 1.327 . S
C1818 C1806 1.349 . S
C1818 H1812 0.950 . S
C1818 C1819 1.327 . S
C1819 H1813 0.950 . S
C1819 C1818 1.327 . S
C1819 C1823 1.429 . S
C1820 C1803 1.574 . S
C1820 H1814 0.949 . S
C1820 C1824 1.368 . S
C1821 C1802 1.429 . S
C1821 C1815 1.429 . S
C1821 C1822 1.523 . S
C1822 C1803 1.368 . S
C1822 C1816 1.368 . S
C1822 C1821 1.523 . S
C1823 C1807 1.429 . S
C1823 C1819 1.429 . S
C1823 C1824 1.523 . S
C1824 C1808 1.368 . S
C1824 C1820 1.368 . S
C1824 C1823 1.523 . S
H1825 C1800 0.950 . S
H1826 C1802 0.950 . S
H1827 C1803 0.949 . S
H1828 C1805 0.950 . S
H1829 C1807 0.950 . S
C1830 C1831 1.349 . S
C1830 C1832 1.327 . S
C1830 H1855 0.950 . S
C1831 C1830 1.349 . S
C1831 C1847 1.349 . S
C1832 C1830 1.327 . S
C1832 C1851 1.429 . S
C1832 H1856 0.950 . S
C1833 C1850 1.574 . S
C1833 C1852 1.368 . S
C1833 H1857 0.949 . S
H1834 C1838 0.949 . S
C1835 C1836 1.349 . S
C1835 C1837 1.327 . S
C1835 H1858 0.950 . S
C1836 C1835 1.349 . S
C1836 C1848 1.349 . S
C1837 C1835 1.327 . S
C1837 C1853 1.429 . S
C1837 H1859 0.950 . S
C1838 H1834 0.949 . S
C1838 C1846 1.574 . S
C1838 C1854 1.368 . S
H1839 C1847 0.950 . S
H1840 C1845 0.950 . S
H1841 C1846 0.949 . S
H1842 C1848 0.950 . S
H1843 C1849 0.950 . S
H1844 C1850 0.949 . S
C1845 H1840 0.950 . S
C1845 C1847 1.327 . S
C1845 C1851 1.429 . S
C1846 C1838 1.574 . S
C1846 H1841 0.949 . S
C1846 C1852 1.368 . S
C1847 C1831 1.349 . S
C1847 H1839 0.950 . S
C1847 C1845 1.327 . S
C1848 C1836 1.349 . S
C1848 H1842 0.950 . S
C1848 C1849 1.327 . S
C1849 H1843 0.950 . S
C1849 C1848 1.327 . S
C1849 C1853 1.429 . S
C1850 C1833 1.574 . S
C1850 H1844 0.949 . S
C1850 C1854 1.368 . S
C1851 C1832 1.429 . S
C1851 C1845 1.429 . S
C1851 C1852 1.523 . S
C1852 C1833 1.368 . S
C1852 C1846 1.368 . S
C1852 C1851 1.523 . S
C1853 C1837 1.429 . S
C1853 C1849 1.429 . S
C1853 C1854 1.523 . S
C1854 C1838 1.368 . S
C1854 C1850 1.368 . S
C1854 C1853 1.523 . S
H1855 C1830 0.950 . S
H1856 C1832 0.950 . S
H1857 C1833 0.949 . S
H1858 C1835 0.950 . S
H1859 C1837 0.950 . S
C426 C416 0.902 . S
C421 C11 0.968 . S
C451 C19 1.311 . S
C456 C345 1.210 . S
C481 C37 0.981 . S
C486 C374 0.894 . S
C516 C387 1.126 . S
C511 C42 1.237 . S
C541 C25 0.969 1_455 S
C546 C408 0.861 . S
C576 C353 1.147 . S
C571 C28 1.213 . S
C606 C366 0.861 . S
C601 C51 0.993 . S
C636 C395 1.233 . S
C631 C5 1.288 . S
C661 C61 0.979 . S
C666 C397 0.879 . S
C696 C411 1.204 . S
C691 C81 1.269 . S
C726 C355 0.908 . S
C721 C89 1.039 . S
C756 C369 1.175 . S
C751 C107 1.222 . S
C781 C56 0.941 . S
C786 C348 0.887 . S
C811 C79 1.246 . S
C816 C376 1.170 . S
C841 C84 1.005 . S
C846 C390 0.922 . S
C876 C418 1.209 . S
C871 C109 1.310 . S
C906 C227 0.980 . S
C901 C103 1.090 . S
C936 C208 0.897 1_554 S
C931 C117 1.008 . S
C966 C222 1.176 . S
C961 C137 1.242 . S
C996 C243 0.855 . S
C991 C140 0.921 . S
C1021 C67 1.184 . S
C1026 C229 1.100 . S
C1051 C70 1.006 . S
C1056 C180 0.909 . S
C1081 C135 1.313 . S
C1086 C240 1.213 . S
C1111 C163 1.271 . S
C1116 C206 1.234 . S
C1146 C269 0.896 . S
C1141 C39 0.964 . S
C1176 C282 1.207 . S
C1171 C47 1.307 . S
C1201 C9 0.986 . S
C1206 C311 0.896 1_455 S
C1231 C14 1.240 . S
C1236 C324 1.127 . S
C1266 C261 0.867 . S
C1261 C53 0.979 . S
C1296 C290 1.150 . S
C1291 C0 1.213 . S
C1321 C23 1.002 . S
C1326 C303 0.868 1_455 S
C1356 C332 1.232 . S
C1351 C33 1.285 . S
C1381 C159 0.996 . S
C1386 C334 0.892 . S
C1411 C123 1.259 . S
C1416 C264 1.196 . S
C1446 C292 0.916 . S
C1441 C131 1.051 . S
C1471 C149 1.211 . S
C1476 C306 1.163 . S
C1506 C285 0.895 . S
C1501 C154 0.954 . S
C1531 C121 1.238 . S
C1536 C313 1.162 . S
C1566 C327 0.926 . S
C1561 C126 1.014 . S
C1596 C271 1.197 . S
C1591 C151 1.296 . S
C1626 C187 0.952 . S
C1621 C145 1.098 . S
C1656 C250 0.917 . S
C1651 C75 1.037 . S
C1681 C95 1.237 . S
C1686 C177 1.120 . S
C1716 C201 0.874 . S
C1711 C98 0.948 . S
C1746 C185 1.139 . S
C1741 C165 1.195 . S
C1771 C112 1.011 . S
C1776 C219 0.876 . S
C1801 C93 1.286 . S
C1806 C198 1.192 . S
C1831 C65 1.248 . S
C1836 C248 1.215 . S
