# Generated by pormake.
# Topology zzz, (3,6)-cn, num edge types: 1
# Building blocks:
#     Node 0, Type 0, BuildingBlock: CUQRIR_clean_linker_1, # of connection points: 3
#     Node 1, Type 0, BuildingBlock: CUQRIR_clean_linker_1, # of connection points: 3
#     Node 2, Type 0, BuildingBlock: CUQRIR_clean_linker_1, # of connection points: 3
#     Node 3, Type 0, BuildingBlock: CUQRIR_clean_linker_1, # of connection points: 3
#     Node 4, Type 0, BuildingBlock: CUQRIR_clean_linker_1, # of connection points: 3
#     Node 5, Type 0, BuildingBlock: CUQRIR_clean_linker_1, # of connection points: 3
#     Node 6, Type 0, BuildingBlock: CUQRIR_clean_linker_1, # of connection points: 3
#     Node 7, Type 0, BuildingBlock: CUQRIR_clean_linker_1, # of connection points: 3
#     Node 8, Type 1, BuildingBlock: MIFKUJ_clean_sbu_0, # of connection points: 6
#     Node 9, Type 1, BuildingBlock: MIFKUJ_clean_sbu_0, # of connection points: 6
#     Node 10, Type 1, BuildingBlock: MIFKUJ_clean_sbu_0, # of connection points: 6
#     Node 11, Type 1, BuildingBlock: MIFKUJ_clean_sbu_0, # of connection points: 6
#     Edge 12, Type (0, 1), BuildingBlock: CIFDUS_clean_linker_0, # of connection points: 2
#     Edge 13, Type (0, 1), BuildingBlock: CIFDUS_clean_linker_0, # of connection points: 2
#     Edge 14, Type (0, 1), BuildingBlock: CIFDUS_clean_linker_0, # of connection points: 2
#     Edge 15, Type (0, 1), BuildingBlock: CIFDUS_clean_linker_0, # of connection points: 2
#     Edge 16, Type (0, 1), BuildingBlock: CIFDUS_clean_linker_0, # of connection points: 2
#     Edge 17, Type (0, 1), BuildingBlock: CIFDUS_clean_linker_0, # of connection points: 2
#     Edge 18, Type (0, 1), BuildingBlock: CIFDUS_clean_linker_0, # of connection points: 2
#     Edge 19, Type (0, 1), BuildingBlock: CIFDUS_clean_linker_0, # of connection points: 2
#     Edge 20, Type (0, 1), BuildingBlock: CIFDUS_clean_linker_0, # of connection points: 2
#     Edge 21, Type (0, 1), BuildingBlock: CIFDUS_clean_linker_0, # of connection points: 2
#     Edge 22, Type (0, 1), BuildingBlock: CIFDUS_clean_linker_0, # of connection points: 2
#     Edge 23, Type (0, 1), BuildingBlock: CIFDUS_clean_linker_0, # of connection points: 2
#     Edge 24, Type (0, 1), BuildingBlock: CIFDUS_clean_linker_0, # of connection points: 2
#     Edge 25, Type (0, 1), BuildingBlock: CIFDUS_clean_linker_0, # of connection points: 2
#     Edge 26, Type (0, 1), BuildingBlock: CIFDUS_clean_linker_0, # of connection points: 2
#     Edge 27, Type (0, 1), BuildingBlock: CIFDUS_clean_linker_0, # of connection points: 2
#     Edge 28, Type (0, 1), BuildingBlock: CIFDUS_clean_linker_0, # of connection points: 2
#     Edge 29, Type (0, 1), BuildingBlock: CIFDUS_clean_linker_0, # of connection points: 2
#     Edge 30, Type (0, 1), BuildingBlock: CIFDUS_clean_linker_0, # of connection points: 2
#     Edge 31, Type (0, 1), BuildingBlock: CIFDUS_clean_linker_0, # of connection points: 2
#     Edge 32, Type (0, 1), BuildingBlock: CIFDUS_clean_linker_0, # of connection points: 2
#     Edge 33, Type (0, 1), BuildingBlock: CIFDUS_clean_linker_0, # of connection points: 2
#     Edge 34, Type (0, 1), BuildingBlock: CIFDUS_clean_linker_0, # of connection points: 2
#     Edge 35, Type (0, 1), BuildingBlock: CIFDUS_clean_linker_0, # of connection points: 2
# Relax obj value: 0.130
# Max RMSD: 0.123
# Mean RMSD: 0.093
data_MOF--net-zzz--node1-MIFKUJ_clean_sbu_0--node2-CUQRIR_clean_linker_1--edge1-CIFDUS_clean_linker_0
_symmetry_space_group_name_H-M    P1
_symmetry_Int_Tables_number       1
_symmetry_cell_setting            triclinic
loop_
_symmetry_equiv_pos_as_xyz
'x, y, z'
_cell_length_a     41.994232
_cell_length_b     41.766951
_cell_length_c     12.579017
_cell_angle_alpha  90.502116
_cell_angle_beta   90.969501
_cell_angle_gamma 90.139091
loop_
_atom_site_label
_atom_site_type_symbol
_atom_site_fract_x
_atom_site_fract_y
_atom_site_fract_z
_atom_type_partial_charge
C0 C 0.70917 0.52364 0.1248 0.0
N1 N 0.74135 0.52675 0.12517 0.0
N2 N 0.69706 0.52508 0.02344 0.0
C3 C 0.68992 0.51858 0.22252 0.0
C4 C 0.72329 0.52858 0.96308 0.0
N5 N 0.74974 0.5299 0.02492 0.0
C6 C 0.7235 0.5277 0.84313 0.0
H7 H 0.68929 0.49262 0.24034 0.0
H8 H 0.66516 0.52718 0.21031 0.0
H9 H 0.70113 0.53116 0.2917 0.0
H10 H 0.71753 0.55182 0.81258 0.0
H11 H 0.70559 0.51037 0.81143 0.0
H12 H 0.74718 0.5211 0.81228 0.0
C13 C 0.9648 0.70801 0.13832 0.0
N14 N 0.96162 0.74024 0.1383 0.0
N15 N 0.9596 0.69601 0.03896 0.0
C16 C 0.9769 0.68901 0.23104 0.0
C17 C 0.95358 0.72213 0.97914 0.0
N18 N 0.95475 0.74887 0.03946 0.0
C19 C 0.94918 0.72177 0.86029 0.0
H20 H 0.00333 0.68924 0.23102 0.0
H21 H 0.96865 0.66379 0.22487 0.0
H22 H 0.96896 0.69987 0.30692 0.0
H23 H 0.93819 0.6989 0.8328 0.0
H24 H 0.97281 0.72418 0.82297 0.0
H25 H 0.93413 0.74216 0.83431 0.0
C26 C 0.78403 0.97187 0.10325 0.0
N27 N 0.75247 0.97802 0.1107 0.0
N28 N 0.79599 0.98595 0.01534 0.0
C29 C 0.80277 0.9521 0.18081 0.0
C30 C 0.77071 0.00113 0.97109 0.0
N31 N 0.74444 -0.0036 0.02912 0.0
C32 C 0.77153 0.01915 0.86822 0.0
H33 H 0.80256 0.964 0.26002 0.0
H34 H 0.82773 0.94888 0.15531 0.0
H35 H 0.79114 0.92838 0.18905 0.0
H36 H 0.77097 0.00168 0.80124 0.0
H37 H 0.79396 0.03312 0.86325 0.0
H38 H 0.75089 0.03547 0.85954 0.0
C39 C 0.51878 0.799 0.13347 0.0
N40 N 0.51974 0.76652 0.13344 0.0
N41 N 0.52257 0.81036 0.03344 0.0
C42 C 0.51371 0.81959 0.22996 0.0
C43 C 0.52514 0.7836 0.97279 0.0
N44 N 0.52352 0.75721 0.0334 0.0
C45 C 0.52503 0.7833 0.8529 0.0
H46 H 0.48778 0.82301 0.24088 0.0
H47 H 0.52487 0.84347 0.21984 0.0
H48 H 0.5237 0.80793 0.30206 0.0
H49 H 0.54768 0.79374 0.825 0.0
H50 H 0.50528 0.79839 0.82201 0.0
H51 H 0.52258 0.7588 0.81912 0.0
C52 C 0.28779 0.4729 0.04169 0.0
N53 N 0.25578 0.46877 0.03231 0.0
N54 N 0.29778 0.46997 0.14486 0.0
C55 C 0.30907 0.48009 0.95021 0.0
C56 C 0.27042 0.46434 0.1975 0.0
N57 N 0.24521 0.46342 0.12934 0.0
C58 C 0.2677 0.46403 0.31699 0.0
H59 H 0.33373 0.47182 0.96707 0.0
H60 H 0.30954 0.5063 0.93697 0.0
H61 H 0.29973 0.4684 0.87643 0.0
H62 H 0.27692 0.44096 0.34751 0.0
H63 H 0.24275 0.46645 0.34315 0.0
H64 H 0.28219 0.48364 0.35332 0.0
C65 C 0.01216 0.29415 0.0249 0.0
N66 N 0.01172 0.26183 0.03467 0.0
N67 N 0.0154 0.30841 0.12191 0.0
C68 C 0.00923 0.31183 0.92196 0.0
C69 C 0.01601 0.28374 0.19075 0.0
N70 N 0.01385 0.25564 0.13781 0.0
C71 C 0.01521 0.28736 0.31007 0.0
H72 H 0.02152 0.33534 0.92809 0.0
H73 H 0.98365 0.31619 0.90403 0.0
H74 H 0.01928 0.2975 0.85588 0.0
H75 H 0.00055 0.30827 0.33323 0.0
H76 H 0.03982 0.2915 0.34061 0.0
H77 H 0.00554 0.2657 0.3485 0.0
C78 C 0.20909 0.01782 0.05085 0.0
N79 N 0.24118 0.02133 0.04545 0.0
N80 N 0.19928 0.02143 0.15253 0.0
C81 C 0.18784 0.00748 0.95986 0.0
C82 C 0.22664 0.02673 0.20825 0.0
N83 N 0.25207 0.02624 0.144 0.0
C84 C 0.22891 0.02837 0.32768 0.0
H85 H 0.16355 0.01737 0.96968 0.0
H86 H 0.18606 0.98097 0.9592 0.0
H87 H 0.19771 0.0153 0.88299 0.0
H88 H 0.23104 0.00376 0.35952 0.0
H89 H 0.20717 0.03948 0.3607 0.0
H90 H 0.25025 0.04228 0.35372 0.0
C91 C 0.46954 0.20727 0.02207 0.0
N92 N 0.47298 0.23949 0.0293 0.0
N93 N 0.47158 0.19395 0.1202 0.0
C94 C 0.4665 0.18881 0.91969 0.0
C95 C 0.47712 0.21914 0.18634 0.0
N96 N 0.47809 0.24657 0.13106 0.0
C97 C 0.48323 0.21646 0.30434 0.0
H98 H 0.45064 0.20166 0.86306 0.0
H99 H 0.45714 0.16435 0.93345 0.0
H100 H 0.49034 0.18692 0.88351 0.0
H101 H 0.50333 0.19979 0.31918 0.0
H102 H 0.46189 0.20623 0.34232 0.0
H103 H 0.48864 0.2399 0.34252 0.0
Zn104 Zn -0.0082 0.04852 0.5832 0.0
Zn105 Zn 0.00239 0.94786 0.58732 0.0
C106 C 0.98909 0.09777 0.72626 0.0
O107 O 0.96152 0.09788 0.67524 0.0
C108 C 0.01167 0.89625 0.45361 0.0
O109 O 0.04068 0.90434 0.48402 0.0
O110 O 0.98761 0.08202 0.47138 0.0
O111 O 0.024 0.01722 0.52501 0.0
O112 O 0.04045 0.9676 0.51707 0.0
C113 C 0.01458 0.09588 0.46727 0.0
O114 O 0.03821 0.08502 0.52644 0.0
O115 O 0.00813 0.07467 0.70924 0.0
C116 C 0.98917 0.91252 0.76168 0.0
O117 O 0.9612 0.92228 0.72708 0.0
O118 O 0.01397 0.9232 0.7175 0.0
O119 O 0.9675 0.97966 0.62437 0.0
O120 O 0.95014 0.02918 0.62906 0.0
O121 O 0.98824 0.91278 0.48615 0.0
C122 C 0.04363 -0.00339 0.49065 0.0
C123 C 0.9458 -0.00036 0.6473 0.0
Zn124 Zn 0.44843 -2e-05 0.56653 0.0
Zn125 Zn 0.55039 0.01326 0.60048 0.0
C126 C 0.39131 0.00028 0.67945 0.0
O127 O 0.39114 0.97201 0.63276 0.0
C128 C 0.59875 0.97528 0.46057 0.0
O129 O 0.57923 0.95164 0.43595 0.0
O130 O 0.42384 0.99038 0.43272 0.0
O131 O 0.48597 0.02847 0.53833 0.0
O132 O 0.53218 0.05093 0.51904 0.0
C133 C 0.42846 0.00338 0.34344 0.0
O134 O 0.4548 0.0195 0.32824 0.0
O135 O 0.41533 0.01854 0.6666 0.0
C136 C 0.56765 0.01029 0.81979 0.0
O137 O 0.54417 0.9896 0.82307 0.0
O138 O 0.56995 0.02807 0.73903 0.0
O139 O 0.51484 0.98059 0.62872 0.0
O140 O 0.46672 0.95995 0.63299 0.0
O141 O 0.58932 -0.00183 0.51953 0.0
C142 C 0.50239 0.05097 0.49996 0.0
C143 C 0.49639 0.95783 0.65512 0.0
Zn144 Zn 0.49943 0.44933 0.57911 0.0
Zn145 Zn 0.49427 0.553 0.59114 0.0
C146 C 0.50815 0.39445 0.69306 0.0
O147 O 0.53494 0.39974 0.64363 0.0
C148 C 0.49459 0.61098 0.47852 0.0
O149 O 0.46908 0.61359 0.53699 0.0
O150 O 0.50467 0.42573 0.44167 0.0
O151 O 0.46944 0.48723 0.55237 0.0
O152 O 0.45116 0.53608 0.53899 0.0
C153 C 0.47809 0.41364 0.41319 0.0
O154 O 0.45314 0.41944 0.47129 0.0
O155 O 0.48549 0.41448 0.68161 0.0
C156 C 0.51919 0.5906 0.74449 0.0
O157 O 0.54224 0.58336 0.67979 0.0
O158 O 0.49174 0.57878 0.72588 0.0
O159 O 0.52347 0.51502 0.62127 0.0
O160 O 0.54172 0.46639 0.63671 0.0
O161 O 0.51045 0.58497 0.48229 0.0
C162 C 0.44692 0.50609 0.52563 0.0
C163 C 0.54569 0.49627 0.65121 0.0
Zn164 Zn 0.04978 0.51029 0.53844 0.0
Zn165 Zn 0.95274 0.49735 0.58283 0.0
C166 C 0.10476 0.50193 0.66195 0.0
O167 O 0.10473 0.53229 0.63533 0.0
C168 C 0.89987 0.48644 0.44739 0.0
O169 O 0.90759 0.45786 0.48203 0.0
O170 O 0.07714 0.52767 0.42421 0.0
O171 O 0.01226 0.48846 0.46896 0.0
O172 O 0.97516 0.45795 0.52868 0.0
C173 C 0.07725 0.51337 0.33489 0.0
O174 O 0.05483 0.49232 0.31231 0.0
O175 O 0.08114 0.48455 0.63149 0.0
C176 C 0.91178 0.50913 0.73839 0.0
O177 O 0.91633 0.53672 0.69154 0.0
O178 O 0.92707 0.48484 0.70639 0.0
O179 O 0.98171 0.53401 0.64096 0.0
O180 O 0.03315 0.54609 0.62635 0.0
O181 O 0.91756 0.51012 0.47486 0.0
C182 C 0.00184 0.4605 0.48421 0.0
C183 C 0.00562 0.55216 0.66213 0.0
H184 H 0.14394 0.05339 0.16911 0.0
H185 H 0.19065 0.96467 0.24333 0.0
H186 H 0.14625 0.94884 0.35533 0.0
H187 H 0.09634 0.9622 0.44302 0.0
H188 H 0.04732 0.04933 0.36199 0.0
H189 H 0.09024 0.06417 0.24306 0.0
C190 C 0.14378 0.03032 0.20795 0.0
C191 C 0.17022 0.01004 0.19827 0.0
C192 C 0.11821 0.02159 0.27315 0.0
C193 C 0.17023 0.98033 0.24946 0.0
C194 C 0.14506 0.97149 0.31409 0.0
C195 C 0.09501 0.9845 0.39962 0.0
C196 C 0.06935 0.00549 0.41618 0.0
C197 C 0.1193 0.99228 0.32865 0.0
C198 C 0.0677 0.03377 0.35646 0.0
C199 C 0.09199 0.04193 0.28652 0.0
H200 H 0.43323 0.16045 0.24512 0.0
H201 H 0.51968 0.15525 0.06773 0.0
H202 H 0.53627 0.10779 0.16745 0.0
H203 H 0.52997 0.07392 0.32455 0.0
H204 H 0.44366 0.07898 0.5045 0.0
H205 H 0.42305 0.12068 0.38555 0.0
C206 C 0.45509 0.14804 0.22622 0.0
C207 C 0.47534 0.16105 0.14986 0.0
C208 C 0.46486 0.12162 0.2868 0.0
C209 C 0.50372 0.14523 0.12549 0.0
C210 C 0.51338 0.11854 0.1838 0.0
C211 C 0.50658 0.08411 0.33731 0.0
C212 C 0.48865 0.07423 0.42458 0.0
C213 C 0.49486 0.10759 0.26803 0.0
C214 C 0.45803 0.08676 0.43877 0.0
C215 C 0.44626 0.11044 0.37064 0.0
H216 H 0.33017 0.43709 0.29494 0.0
H217 H 0.33319 0.52282 0.10763 0.0
H218 H 0.38053 0.54098 0.20664 0.0
H219 H 0.419 0.53423 0.35499 0.0
H220 H 0.41077 0.4528 0.56047 0.0
H221 H 0.36695 0.4316 0.44904 0.0
C222 C 0.34118 0.45977 0.27615 0.0
C223 C 0.32822 0.47843 0.19331 0.0
C224 C 0.36717 0.47101 0.33813 0.0
C225 C 0.34308 0.50756 0.16876 0.0
C226 C 0.36984 0.51823 0.22681 0.0
C227 C 0.40749 0.5119 0.37555 0.0
C228 C 0.41876 0.49446 0.46378 0.0
C229 C 0.3817 0.50048 0.31302 0.0
C230 C 0.40334 0.46588 0.49039 0.0
C231 C 0.37816 0.45394 0.42718 0.0
H232 H 0.05841 0.34539 0.22195 0.0
H233 H 0.96263 0.34348 0.09599 0.0
H234 H 0.94996 0.39223 0.19655 0.0
H235 H 0.96447 0.43085 0.33802 0.0
H236 H 0.06057 0.4337 0.46342 0.0
H237 H 0.07517 0.38898 0.34576 0.0
C238 C 0.03522 0.35655 0.21395 0.0
C239 C 0.01147 0.34137 0.15164 0.0
C240 C 0.02806 0.38399 0.27416 0.0
C241 C 0.98126 0.35533 0.14222 0.0
C242 C 0.97395 0.38278 0.20105 0.0
C243 C 0.98862 0.42163 0.33927 0.0
C244 C 0.01129 0.43468 0.41093 0.0
C245 C -0.00319 0.3965 0.27041 0.0
C246 C 0.0427 0.4234 0.41012 0.0
C247 C 0.05101 0.39804 0.34267 0.0
H248 H 0.81884 0.95003 0.85647 0.0
H249 H 0.84318 0.02482 0.08036 0.0
H250 H 0.89267 0.03554 0.98568 0.0
H251 H 0.92623 0.02682 0.82943 0.0
H252 H 0.90377 0.95034 0.60858 0.0
H253 H 0.85626 0.93683 0.71089 0.0
C254 C 0.83564 0.96792 0.88579 0.0
C255 C 0.82792 0.98641 0.97571 0.0
C256 C 0.86386 0.97398 0.83012 0.0
C257 C 0.84921 0.01004 0.01251 0.0
C258 C 0.87719 0.01636 0.95759 0.0
C259 C 0.91095 0.0071 0.80409 0.0
C260 C 0.91804 0.98992 0.71072 0.0
C261 C 0.88429 -0.00092 0.86467 0.0
C262 C 0.89855 0.96402 0.6797 0.0
C263 C 0.87147 0.95632 0.73827 0.0
H264 H 0.56126 0.84561 0.91367 0.0
H265 H 0.46904 0.84449 0.05739 0.0
H266 H 0.45293 0.89122 0.95346 0.0
H267 H 0.46324 0.92852 0.80837 0.0
H268 H 0.55534 0.92999 0.66207 0.0
H269 H 0.57336 0.88654 0.77848 0.0
C270 C 0.53794 0.8562 0.92341 0.0
C271 C 0.51633 0.84191 0.99302 0.0
C272 C 0.52863 0.8824 0.86083 0.0
C273 C 0.48614 0.85554 0.00562 0.0
C274 C 0.47681 0.88187 0.94494 0.0
C275 C 0.48724 0.91924 0.80173 0.0
C276 C 0.50776 0.93188 0.72531 0.0
C277 C 0.49749 0.89478 0.86988 0.0
C278 C 0.53903 0.92027 0.71937 0.0
C279 C 0.54934 0.89557 0.78616 0.0
H280 H 0.66544 0.56031 0.87883 0.0
H281 H 0.65708 0.47677 0.07451 0.0
H282 H 0.60764 0.46171 0.98044 0.0
H283 H 0.56996 0.46937 0.82973 0.0
H284 H 0.58472 0.54719 0.61357 0.0
H285 H 0.62899 0.56709 0.72538 0.0
C286 C 0.6527 0.53885 0.90085 0.0
C287 C 0.66499 0.51964 0.98333 0.0
C288 C 0.62574 0.52913 0.84111 0.0
C289 C 0.64791 0.49224 0.01269 0.0
C290 C 0.61995 0.48335 0.95752 0.0
C291 C 0.58287 0.49075 0.80745 0.0
C292 C 0.57328 0.50771 0.71601 0.0
C293 C 0.60921 0.50108 0.86952 0.0
C294 C 0.59059 0.53486 0.68664 0.0
C295 C 0.61613 0.54594 0.74983 0.0
H296 H 0.01068 0.68066 0.92918 0.0
H297 H 0.92363 0.64289 0.05196 0.0
H298 H 0.93035 0.59342 0.94695 0.0
H299 H 0.95938 0.56327 0.80911 0.0
H300 H 0.0453 0.60341 0.68099 0.0
H301 H 0.04094 0.64958 0.79924 0.0
C302 C -0.00625 0.6611 0.93435 0.0
C303 C 0.96694 0.66483 -0.00204 0.0
C304 C -0.00269 0.6336 0.87131 0.0
C305 C 0.94465 0.63995 0.00416 0.0
C306 C 0.94834 0.61201 0.94326 0.0
C307 C 0.97684 0.58231 0.80587 0.0
C308 C 0.00218 0.58016 0.73421 0.0
C309 C 0.97415 0.60899 0.87414 0.0
C310 C 0.02535 0.60454 0.73436 0.0
C311 C 0.02296 0.63096 0.80218 0.0
H312 H 0.05618 0.22466 0.25577 0.0
H313 H 0.9614 0.21869 0.12307 0.0
H314 H 0.95304 0.16694 0.2101 0.0
H315 H 0.97252 0.12487 0.33137 0.0
H316 H 0.06812 0.13192 0.46232 0.0
H317 H 0.07646 0.18175 0.36909 0.0
C318 C 0.03386 0.21173 0.24634 0.0
C319 C 0.00938 0.2249 0.1847 0.0
C320 C 0.0294 0.18242 0.29645 0.0
C321 C 0.98043 0.20847 0.1709 0.0
C322 C 0.97571 0.17912 0.22059 0.0
C323 C -0.0048 0.13724 0.33872 0.0
C324 C 0.01955 0.12481 0.40398 0.0
C325 C -4e-05 0.16604 0.28466 0.0
C326 C 0.04891 0.14098 0.41267 0.0
C327 C 0.05377 0.16954 0.35956 0.0
H328 H 0.30584 0.06121 0.1343 0.0
H329 H 0.26801 0.97015 0.22838 0.0
H330 H 0.32106 0.95275 0.28691 0.0
H331 H 0.37726 0.96499 0.32056 0.0
H332 H 0.41621 0.055 0.21782 0.0
H333 H 0.36405 0.07069 0.14663 0.0
C334 C 0.30954 0.03746 0.16606 0.0
C335 C 0.28344 0.01697 0.1786 0.0
C336 C 0.34023 0.02731 0.19562 0.0
C337 C 0.28803 0.9863 0.22043 0.0
C338 C 0.31824 0.97631 0.2526 0.0
C339 C 0.37445 0.98771 0.28024 0.0
C340 C 0.40033 0.00888 0.27498 0.0
C341 C 0.34443 -0.00325 0.24152 0.0
C342 C 0.3966 0.03818 0.22214 0.0
C343 C 0.3667 0.04738 0.1829 0.0
H344 H 0.43742 0.29487 0.13903 0.0
H345 H 0.53394 0.26775 0.21116 0.0
H346 H 0.54467 0.32073 0.29066 0.0
H347 H 0.52428 0.37218 0.35645 0.0
H348 H 0.42626 0.39757 0.29396 0.0
H349 H 0.41828 0.34822 0.19126 0.0
C350 C 0.46074 0.30099 0.17163 0.0
C351 C 0.48476 0.27794 0.1722 0.0
C352 C 0.46635 0.33106 0.21798 0.0
C353 C 0.51516 0.28547 0.21273 0.0
C354 C 0.52122 0.3156 0.25735 0.0
C355 C 0.50149 0.36728 0.31766 0.0
C356 C 0.47587 0.38824 0.33233 0.0
C357 C 0.49673 0.33831 0.26268 0.0
C358 C 0.44626 0.38157 0.2834 0.0
C359 C 0.44163 0.35334 0.22543 0.0
H360 H 0.21932 0.51802 0.19192 0.0
H361 H 0.19935 0.41863 0.12908 0.0
H362 H 0.14294 0.42699 0.16995 0.0
H363 H 0.10083 0.46195 0.23436 0.0
H364 H 0.12201 0.56027 0.3173 0.0
H365 H 0.17668 0.55346 0.25611 0.0
C366 C 0.20235 0.4984 0.18801 0.0
C367 C 0.21274 0.46783 0.15848 0.0
C368 C 0.17051 0.50338 0.21387 0.0
C369 C 0.19128 0.44222 0.15245 0.0
C370 C 0.15928 0.44709 0.17518 0.0
C371 C 0.11715 0.48213 0.23637 0.0
C372 C 0.10748 0.51171 0.27856 0.0
C373 C 0.14873 0.47753 0.20675 0.0
C374 C 0.12903 0.53743 0.2837 0.0
C375 C 0.16025 0.53345 0.24983 0.0
H376 H 0.00528 0.77523 0.95101 0.0
H377 H 0.90947 0.79381 0.04838 0.0
H378 H 0.91307 0.84891 0.98202 0.0
H379 H 0.94248 0.88977 0.88483 0.0
H380 H 0.03903 0.87129 0.78946 0.0
H381 H 0.03683 0.81832 0.87007 0.0
C382 C 0.98537 0.7916 0.95706 0.0
C383 C 0.9569 0.78095 0.00127 0.0
C384 C 0.98801 0.82305 0.92078 0.0
C385 C 0.93124 0.80191 0.01227 0.0
C386 C 0.93345 0.83321 0.97516 0.0
C387 C 0.96323 0.87435 0.88329 0.0
C388 C 0.99072 0.8842 0.83033 0.0
C389 C 0.96157 0.84383 0.92782 0.0
C390 C 0.01759 0.86423 0.82992 0.0
C391 C 0.01624 0.83383 0.87492 0.0
H392 H 0.70076 0.95645 0.95231 0.0
H393 H 0.71718 0.05452 0.04319 0.0
H394 H 0.6618 0.06804 0.99402 0.0
H395 H 0.60954 0.05147 0.91573 0.0
H396 H 0.59323 0.95178 0.84029 0.0
H397 H 0.64753 0.93885 0.89494 0.0
C398 C 0.69184 0.98061 0.96232 0.0
C399 C 0.71241 0.0046 1e-05 0.0
C400 C 0.66012 0.98766 0.93755 0.0
C401 C 0.70135 0.03599 0.01261 0.0
C402 C 0.66985 0.04354 0.98528 0.0
C403 C 0.61779 0.02688 0.91426 0.0
C404 C 0.59751 0.00253 0.87554 0.0
C405 C 0.64906 0.01955 0.94678 0.0
C406 C 0.60828 0.97074 0.87226 0.0
C407 C 0.63943 0.96339 0.90212 0.0
H408 H 0.56682 0.71358 0.9842 0.0
H409 H 0.46622 0.73092 -0.00187 0.0
H410 H 0.45498 0.67765 0.92145 0.0
H411 H 0.47459 0.62854 0.83557 0.0
H412 H 0.57583 0.61145 0.82404 0.0
H413 H 0.58628 0.66173 0.91804 0.0
C414 C 0.54258 0.70524 0.97099 0.0
C415 C 0.51728 0.72551 0.99465 0.0
C416 C 0.53656 0.67475 0.92845 0.0
C417 C 0.48579 0.71517 0.97893 0.0
C418 C 0.47949 0.68491 0.93573 0.0
C419 C 0.49885 0.63548 0.85607 0.0
C420 C 0.52441 0.6167 0.82179 0.0
C421 C 0.50474 0.66472 0.90832 0.0
C422 C 0.55578 0.62586 0.84862 0.0
C423 C 0.56182 0.65463 0.90183 0.0
H424 H 0.7827 0.47985 0.95743 0.0
H425 H 0.78771 0.58116 0.01747 0.0
H426 H 0.84186 0.583 0.9464 0.0
H427 H 0.88471 0.55632 0.85104 0.0
H428 H 0.87938 0.45468 0.788 0.0
H429 H 0.82855 0.45187 0.87951 0.0
C430 C 0.79606 0.50208 0.95518 0.0
C431 C 0.78182 0.53047 0.98954 0.0
C432 C 0.8268 0.50272 0.91461 0.0
C433 C 0.79869 0.55934 0.98908 0.0
C434 C 0.8294 0.56027 0.94908 0.0
C435 C 0.87263 0.53348 0.8589 0.0
C436 C 0.88531 0.50586 0.81188 0.0
C437 C 0.84331 0.53222 0.90925 0.0
C438 C 0.8699 0.47627 0.82373 0.0
C439 C 0.84077 0.4747 0.87505 0.0
H440 H 0.04821 0.21016 0.00634 0.0
H441 H 0.96467 0.25823 0.88646 0.0
H442 H 0.95081 0.21129 0.77709 0.0
H443 H 0.95969 0.15518 0.73012 0.0
H444 H 0.04179 0.10545 0.85651 0.0
H445 H 0.05855 0.15415 0.95246 0.0
C446 C 0.02729 0.21036 0.95468 0.0
C447 C 0.00751 0.23752 0.95362 0.0
C448 C 0.01878 0.18276 0.89636 0.0
C449 C 0.98049 0.23782 0.88672 0.0
C450 C 0.97232 0.21079 0.82589 0.0
C451 C 0.98123 0.15485 0.77887 0.0
C452 C -0.00075 0.12656 0.78735 0.0
C453 C 0.99077 0.18286 0.83269 0.0
C454 C 0.02735 0.12681 0.8495 0.0
C455 C 0.03702 0.15467 0.9038 0.0
H456 H 0.28301 0.0616 0.96079 0.0
H457 H 0.24643 0.96555 0.93717 0.0
H458 H 0.28931 0.95091 0.81592 0.0
H459 H 0.33997 0.96421 0.73152 0.0
H460 H 0.37977 0.05908 0.77022 0.0
H461 H 0.33366 0.07522 0.87433 0.0
C462 C 0.28442 0.0376 0.92778 0.0
C463 C 0.26167 0.01469 0.95695 0.0
C464 C 0.31018 0.02902 0.86356 0.0
C465 C 0.26335 0.98367 0.91388 0.0
C466 C 0.28816 0.97524 0.84618 0.0
C467 C 0.33859 0.98849 0.76222 0.0
C468 C 0.36346 0.01038 0.74308 0.0
C469 C 0.31218 -0.00251 0.82287 0.0
C470 C 0.36114 0.0417 0.78397 0.0
C471 C 0.33468 0.05098 0.8431 0.0
H472 H 0.52488 0.27047 0.97061 0.0
H473 H 0.42429 0.26221 0.91015 0.0
H474 H 0.42528 0.31096 0.80153 0.0
H475 H 0.45505 0.358 0.73296 0.0
H476 H 0.55602 0.36524 0.79878 0.0
H477 H 0.55468 0.3155 0.89796 0.0
C478 C 0.50346 0.27902 0.93085 0.0
C479 C 0.47472 0.26271 0.94574 0.0
C480 C 0.50421 0.3074 0.87217 0.0
C481 C 0.44677 0.27412 0.89679 0.0
C482 C 0.44732 0.30222 0.8365 0.0
C483 C 0.47662 0.34872 0.76981 0.0
C484 C 0.50555 0.36542 0.75913 0.0
C485 C 0.47585 0.31951 0.82549 0.0
C486 C 0.53344 0.35288 0.80585 0.0
C487 C 0.53278 0.32434 0.86224 0.0
H488 H 0.2112 0.43126 0.93792 0.0
H489 H 0.25219 0.52571 0.9346 0.0
H490 H 0.20931 0.54394 0.81568 0.0
H491 H 0.15788 0.53431 0.72647 0.0
H492 H 0.11433 0.44071 0.73707 0.0
H493 H 0.15995 0.42095 0.84166 0.0
C494 C 0.21087 0.45565 0.90933 0.0
C495 C 0.23502 0.47706 0.94372 0.0
C496 C 0.18528 0.46623 0.84467 0.0
C497 C 0.23441 0.50864 0.90683 0.0
C498 C 0.20957 0.51915 0.84044 0.0
C499 C 0.15826 0.5095 0.75104 0.0
C500 C 0.13244 0.48909 0.7241 0.0
C501 C 0.18449 0.49838 0.81105 0.0
C502 C 0.13368 0.45702 0.75682 0.0
C503 C 0.15985 0.44569 0.8164 0.0
H504 H 0.01572 0.77273 0.16336 0.0
H505 H 0.92256 0.75959 0.29177 0.0
H506 H 0.92928 0.80808 0.40205 0.0
H507 H 0.96036 0.85646 0.45006 0.0
H508 H 0.0532 0.87007 0.3156 0.0
H509 H 0.04774 0.81979 0.21641 0.0
C510 C -0.00257 0.78021 0.21808 0.0
C511 C 0.96898 0.76271 0.22195 0.0
C512 C 0.00105 0.80866 0.27689 0.0
C513 C 0.9449 0.77257 0.29044 0.0
C514 C 0.94856 0.80048 0.35161 0.0
C515 C 0.97924 0.84843 0.3985 0.0
C516 C 0.00699 0.86694 0.38931 0.0
C517 C 0.9762 0.81919 0.34323 0.0
C518 C 0.03157 0.85616 0.32366 0.0
C519 C 0.02857 0.82736 0.26742 0.0
H520 H 0.73375 0.01099 0.28051 0.0
H521 H 0.71932 0.92286 0.10817 0.0
H522 H 0.66979 0.91303 0.204 0.0
H523 H 0.62777 0.93295 0.32392 0.0
H524 H 0.64392 0.02104 0.49931 0.0
H525 H 0.69562 0.02714 0.41768 0.0
C526 C 0.72033 0.98904 0.26768 0.0
C527 C 0.73016 0.96744 0.18893 0.0
C528 C 0.69186 0.98386 0.32248 0.0
C529 C 0.71236 0.93941 0.17027 0.0
C530 C 0.68387 0.93409 0.22396 0.0
C531 C 0.64272 0.95329 0.34512 0.0
C532 C 0.63147 0.97676 0.41646 0.0
C533 C 0.67285 0.95668 0.29811 0.0
C534 C 0.65151 0.00279 0.44357 0.0
C535 C 0.68125 0.00633 0.39707 0.0
H536 H 0.55638 0.71703 0.18958 0.0
H537 H 0.46938 0.76574 0.26487 0.0
H538 H 0.45452 0.72205 0.3834 0.0
H539 H 0.46408 0.66784 0.45172 0.0
H540 H 0.54905 0.61688 0.36277 0.0
H541 H 0.5664 0.663 0.25981 0.0
C542 C 0.53432 0.71807 0.23295 0.0
C543 C 0.51406 0.74456 0.21922 0.0
C544 C 0.52524 0.69208 0.29587 0.0
C545 C 0.48565 0.74595 0.27608 0.0
C546 C 0.47695 0.7207 0.34225 0.0
C547 C 0.48646 0.66675 0.41009 0.0
C548 C 0.50516 0.63875 0.41471 0.0
C549 C 0.49617 0.69328 0.3505 0.0
C550 C 0.53408 0.63795 0.36018 0.0
C551 C 0.5441 0.6644 0.30173 0.0
H552 H 0.77417 0.47383 0.16581 0.0
H553 H 0.76207 0.57145 0.26592 0.0
H554 H 0.8113 0.56863 0.37455 0.0
H555 H 0.86016 0.53883 0.43054 0.0
H556 H 0.87207 0.44146 0.32107 0.0
H557 H 0.8214 0.44385 0.2245 0.0
C558 C 0.78192 0.49404 0.21443 0.0
C559 C 0.76422 0.52248 0.21078 0.0
C560 C 0.81087 0.49255 0.27207 0.0
C561 C 0.77488 0.54903 0.27066 0.0
C562 C 0.80332 0.54754 0.33089 0.0
C563 C 0.85172 0.51829 0.38483 0.0
C564 C 0.8701 0.49006 0.38267 0.0
C565 C 0.82201 0.51961 0.33015 0.0
C566 C 0.85853 0.46348 0.32422 0.0
C567 C 0.82941 0.46473 0.26928 0.0
loop_
_geom_bond_atom_site_label_1
_geom_bond_atom_site_label_2
_geom_bond_distance
_geom_bond_site_symmetry_2
_ccdc_geom_bond_type
C0 N1 1.317 . S
C0 N2 1.348 . S
C0 C3 1.485 . S
N1 C0 1.317 . S
N1 N5 1.370 1_554 S
N2 C0 1.348 . S
N2 C4 1.346 1_554 S
C3 C0 1.485 . S
C3 H7 0.960 . S
C3 H8 0.961 . S
C3 H9 0.960 . S
C4 N2 1.346 1_556 S
C4 N5 1.307 . S
C4 C6 1.486 . S
N5 N1 1.370 1_556 S
N5 C4 1.307 . S
C6 C4 1.486 . S
C6 H10 0.960 . S
C6 H11 0.960 . S
C6 H12 0.959 . S
H7 C3 0.960 . S
H8 C3 0.961 . S
H9 C3 0.960 . S
H10 C6 0.960 . S
H11 C6 0.960 . S
H12 C6 0.959 . S
C13 N14 1.317 . S
C13 N15 1.348 . S
C13 C16 1.485 . S
N14 C13 1.317 . S
N14 N18 1.370 1_554 S
N15 C13 1.348 . S
N15 C17 1.346 1_554 S
C16 C13 1.485 . S
C16 H20 0.960 1_655 S
C16 H21 0.961 . S
C16 H22 0.960 . S
C17 N15 1.346 1_556 S
C17 N18 1.307 . S
C17 C19 1.486 . S
N18 N14 1.370 1_556 S
N18 C17 1.307 . S
C19 C17 1.486 . S
C19 H23 0.960 . S
C19 H24 0.960 1_655 S
C19 H25 0.959 . S
H20 C16 0.960 1_455 S
H21 C16 0.961 . S
H22 C16 0.960 . S
H23 C19 0.960 . S
H24 C19 0.960 1_455 S
H25 C19 0.959 . S
C26 N27 1.317 . S
C26 N28 1.348 . S
C26 C29 1.485 . S
N27 C26 1.317 . S
N27 N31 1.370 1_554 S
N28 C26 1.348 . S
N28 C30 1.346 1_554 S
C29 C26 1.485 . S
C29 H33 0.960 1_565 S
C29 H34 0.961 . S
C29 H35 0.960 . S
C30 N28 1.346 1_556 S
C30 N31 1.307 . S
C30 C32 1.486 . S
N31 N27 1.370 1_556 S
N31 C30 1.307 . S
C32 C30 1.486 . S
C32 H36 0.960 . S
C32 H37 0.960 1_565 S
C32 H38 0.959 . S
H33 C29 0.960 1_545 S
H34 C29 0.961 . S
H35 C29 0.960 . S
H36 C32 0.960 . S
H37 C32 0.960 1_545 S
H38 C32 0.959 . S
C39 N40 1.317 . S
C39 N41 1.348 . S
C39 C42 1.485 . S
N40 C39 1.317 . S
N40 N44 1.370 1_554 S
N41 C39 1.348 . S
N41 C43 1.346 1_554 S
C42 C39 1.485 . S
C42 H46 0.960 . S
C42 H47 0.961 . S
C42 H48 0.960 . S
C43 N41 1.346 1_556 S
C43 N44 1.307 . S
C43 C45 1.486 . S
N44 N40 1.370 1_556 S
N44 C43 1.307 . S
C45 C43 1.486 . S
C45 H49 0.960 . S
C45 H50 0.960 . S
C45 H51 0.959 . S
H46 C42 0.960 . S
H47 C42 0.961 . S
H48 C42 0.960 . S
H49 C45 0.960 . S
H50 C45 0.960 . S
H51 C45 0.959 . S
C52 N53 1.317 . S
C52 N54 1.348 . S
C52 C55 1.485 1_554 S
N53 C52 1.317 . S
N53 N57 1.370 . S
N54 C52 1.348 . S
N54 C56 1.346 . S
C55 C52 1.485 1_556 S
C55 H59 0.960 . S
C55 H60 0.961 . S
C55 H61 0.960 . S
C56 N54 1.346 . S
C56 N57 1.307 . S
C56 C58 1.486 . S
N57 N53 1.370 . S
N57 C56 1.307 . S
C58 C56 1.486 . S
C58 H62 0.960 . S
C58 H63 0.960 . S
C58 H64 0.959 . S
H59 C55 0.960 . S
H60 C55 0.961 . S
H61 C55 0.960 . S
H62 C58 0.960 . S
H63 C58 0.960 . S
H64 C58 0.959 . S
C65 N66 1.317 . S
C65 N67 1.348 . S
C65 C68 1.485 1_554 S
N66 C65 1.317 . S
N66 N70 1.370 . S
N67 C65 1.348 . S
N67 C69 1.346 . S
C68 C65 1.485 1_556 S
C68 H72 0.960 . S
C68 H73 0.961 . S
C68 H74 0.960 . S
C69 N67 1.346 . S
C69 N70 1.307 . S
C69 C71 1.486 . S
N70 N66 1.370 . S
N70 C69 1.307 . S
C71 C69 1.486 . S
C71 H75 0.960 . S
C71 H76 0.960 . S
C71 H77 0.959 . S
H72 C68 0.960 . S
H73 C68 0.961 . S
H74 C68 0.960 . S
H75 C71 0.960 . S
H76 C71 0.960 . S
H77 C71 0.959 . S
C78 N79 1.317 . S
C78 N80 1.348 . S
C78 C81 1.485 1_554 S
N79 C78 1.317 . S
N79 N83 1.370 . S
N80 C78 1.348 . S
N80 C82 1.346 . S
C81 C78 1.485 1_556 S
C81 H85 0.960 . S
C81 H86 0.961 . S
C81 H87 0.960 . S
C82 N80 1.346 . S
C82 N83 1.307 . S
C82 C84 1.486 . S
N83 N79 1.370 . S
N83 C82 1.307 . S
C84 C82 1.486 . S
C84 H88 0.960 . S
C84 H89 0.960 . S
C84 H90 0.959 . S
H85 C81 0.960 . S
H86 C81 0.961 . S
H87 C81 0.960 . S
H88 C84 0.960 . S
H89 C84 0.960 . S
H90 C84 0.959 . S
C91 N92 1.317 . S
C91 N93 1.348 . S
C91 C94 1.485 1_554 S
N92 C91 1.317 . S
N92 N96 1.370 . S
N93 C91 1.348 . S
N93 C95 1.346 . S
C94 C91 1.485 1_556 S
C94 H98 0.960 . S
C94 H99 0.961 . S
C94 H100 0.960 . S
C95 N93 1.346 . S
C95 N96 1.307 . S
C95 C97 1.486 . S
N96 N92 1.370 . S
N96 C95 1.307 . S
C97 C95 1.486 . S
C97 H101 0.960 . S
C97 H102 0.960 . S
C97 H103 0.959 . S
H98 C94 0.960 . S
H99 C94 0.961 . S
H100 C94 0.960 . S
H101 C97 0.960 . S
H102 C97 0.960 . S
H103 C97 0.959 . S
Zn104 O110 1.969 1_455 S
Zn104 O111 1.965 . S
Zn104 O115 2.024 . S
Zn104 O120 1.969 1_455 S
Zn105 O112 1.969 . S
Zn105 O118 1.969 . S
Zn105 O119 1.965 1_455 S
Zn105 O121 2.024 1_455 S
C106 O107 1.229 1_455 S
C106 O115 1.058 . S
O107 C106 1.229 1_655 S
C108 O109 1.229 1_655 S
C108 O121 1.058 . S
O109 C108 1.229 1_455 S
O110 Zn104 1.969 1_655 S
O110 C113 1.267 1_655 S
O111 Zn104 1.965 . S
O111 C122 1.260 . S
O112 Zn105 1.969 . S
O112 C122 1.258 1_565 S
C113 O110 1.267 1_455 S
C113 O114 1.228 . S
O114 C113 1.228 . S
O115 Zn104 2.024 . S
O115 C106 1.058 . S
C116 O117 1.228 1_455 S
C116 O118 1.267 . S
O117 C116 1.228 1_655 S
O118 Zn105 1.969 . S
O118 C116 1.267 . S
O119 Zn105 1.965 1_655 S
O119 C123 1.260 1_565 S
O120 Zn104 1.969 1_655 S
O120 C123 1.258 . S
O121 Zn105 2.024 1_655 S
O121 C108 1.058 . S
C122 O111 1.260 . S
C122 O112 1.258 1_545 S
C123 O119 1.260 1_545 S
C123 O120 1.258 . S
Zn124 O130 1.969 1_545 S
Zn124 O131 1.965 . S
Zn124 O135 2.024 . S
Zn124 O140 1.969 1_545 S
Zn125 O132 1.969 . S
Zn125 O138 1.969 . S
Zn125 O139 1.965 1_545 S
Zn125 O141 2.024 1_545 S
C126 O127 1.229 1_545 S
C126 O135 1.058 . S
O127 C126 1.229 1_565 S
C128 O129 1.229 1_565 S
C128 O141 1.058 . S
O129 C128 1.229 1_545 S
O130 Zn124 1.969 1_565 S
O130 C133 1.267 1_565 S
O131 Zn124 1.965 . S
O131 C142 1.260 . S
O132 Zn125 1.969 . S
O132 C142 1.258 . S
C133 O130 1.267 1_545 S
C133 O134 1.228 . S
O134 C133 1.228 . S
O135 Zn124 2.024 . S
O135 C126 1.058 . S
C136 O137 1.228 1_545 S
C136 O138 1.267 . S
O137 C136 1.228 1_565 S
O138 Zn125 1.969 . S
O138 C136 1.267 . S
O139 Zn125 1.965 1_565 S
O139 C143 1.260 . S
O140 Zn124 1.969 1_565 S
O140 C143 1.258 . S
O141 Zn125 2.024 1_565 S
O141 C128 1.058 . S
C142 O131 1.260 . S
C142 O132 1.258 . S
C143 O139 1.260 . S
C143 O140 1.258 . S
Zn144 O150 1.969 . S
Zn144 O151 1.965 . S
Zn144 O155 2.024 . S
Zn144 O160 1.969 . S
Zn145 O152 1.969 . S
Zn145 O158 1.969 . S
Zn145 O159 1.965 . S
Zn145 O161 2.024 . S
C146 O147 1.229 . S
C146 O155 1.058 . S
O147 C146 1.229 . S
C148 O149 1.229 . S
C148 O161 1.058 . S
O149 C148 1.229 . S
O150 Zn144 1.969 . S
O150 C153 1.267 . S
O151 Zn144 1.965 . S
O151 C162 1.260 . S
O152 Zn145 1.969 . S
O152 C162 1.258 . S
C153 O150 1.267 . S
C153 O154 1.228 . S
O154 C153 1.228 . S
O155 Zn144 2.024 . S
O155 C146 1.058 . S
C156 O157 1.228 . S
C156 O158 1.267 . S
O157 C156 1.228 . S
O158 Zn145 1.969 . S
O158 C156 1.267 . S
O159 Zn145 1.965 . S
O159 C163 1.260 . S
O160 Zn144 1.969 . S
O160 C163 1.258 . S
O161 Zn145 2.024 . S
O161 C148 1.058 . S
C162 O151 1.260 . S
C162 O152 1.258 . S
C163 O159 1.260 . S
C163 O160 1.258 . S
Zn164 O170 1.969 . S
Zn164 O171 1.965 . S
Zn164 O175 2.024 . S
Zn164 O180 1.969 . S
Zn165 O172 1.969 . S
Zn165 O178 1.969 . S
Zn165 O179 1.965 . S
Zn165 O181 2.024 . S
C166 O167 1.229 . S
C166 O175 1.058 . S
O167 C166 1.229 . S
C168 O169 1.229 . S
C168 O181 1.058 . S
O169 C168 1.229 . S
O170 Zn164 1.969 . S
O170 C173 1.267 . S
O171 Zn164 1.965 . S
O171 C182 1.260 . S
O172 Zn165 1.969 . S
O172 C182 1.258 1_655 S
C173 O170 1.267 . S
C173 O174 1.228 . S
O174 C173 1.228 . S
O175 Zn164 2.024 . S
O175 C166 1.058 . S
C176 O177 1.228 . S
C176 O178 1.267 . S
O177 C176 1.228 . S
O178 Zn165 1.969 . S
O178 C176 1.267 . S
O179 Zn165 1.965 . S
O179 C183 1.260 1_655 S
O180 Zn164 1.969 . S
O180 C183 1.258 . S
O181 Zn165 2.024 . S
O181 C168 1.058 . S
C182 O171 1.260 . S
C182 O172 1.258 1_455 S
C183 O179 1.260 1_455 S
C183 O180 1.258 . S
H184 C190 0.930 . S
H185 C193 0.930 . S
H186 C194 0.930 . S
H187 C195 0.930 . S
H188 C198 0.930 . S
H189 C199 0.930 . S
C190 H184 0.930 . S
C190 C191 1.355 . S
C190 C192 1.415 . S
C191 C190 1.355 . S
C191 C193 1.419 . S
C192 C190 1.415 . S
C192 C197 1.425 . S
C192 C199 1.409 . S
C193 H185 0.930 . S
C193 C191 1.419 . S
C193 C194 1.362 . S
C194 H186 0.930 . S
C194 C193 1.362 . S
C194 C197 1.409 . S
C195 H187 0.930 . S
C195 C196 1.355 . S
C195 C197 1.415 . S
C196 C195 1.355 . S
C196 C198 1.419 . S
C197 C192 1.425 . S
C197 C194 1.409 . S
C197 C195 1.415 . S
C198 H188 0.930 . S
C198 C196 1.419 . S
C198 C199 1.362 . S
C199 H189 0.930 . S
C199 C192 1.409 . S
C199 C198 1.362 . S
H200 C206 0.930 . S
H201 C209 0.930 . S
H202 C210 0.930 . S
H203 C211 0.930 . S
H204 C214 0.930 . S
H205 C215 0.930 . S
C206 H200 0.930 . S
C206 C207 1.355 . S
C206 C208 1.415 . S
C207 C206 1.355 . S
C207 C209 1.419 . S
C208 C206 1.415 . S
C208 C213 1.425 . S
C208 C215 1.409 . S
C209 H201 0.930 . S
C209 C207 1.419 . S
C209 C210 1.362 . S
C210 H202 0.930 . S
C210 C209 1.362 . S
C210 C213 1.409 . S
C211 H203 0.930 . S
C211 C212 1.355 . S
C211 C213 1.415 . S
C212 C211 1.355 . S
C212 C214 1.419 . S
C213 C208 1.425 . S
C213 C210 1.409 . S
C213 C211 1.415 . S
C214 H204 0.930 . S
C214 C212 1.419 . S
C214 C215 1.362 . S
C215 H205 0.930 . S
C215 C208 1.409 . S
C215 C214 1.362 . S
H216 C222 0.930 . S
H217 C225 0.930 . S
H218 C226 0.930 . S
H219 C227 0.930 . S
H220 C230 0.930 . S
H221 C231 0.930 . S
C222 H216 0.930 . S
C222 C223 1.355 . S
C222 C224 1.415 . S
C223 C222 1.355 . S
C223 C225 1.419 . S
C224 C222 1.415 . S
C224 C229 1.425 . S
C224 C231 1.409 . S
C225 H217 0.930 . S
C225 C223 1.419 . S
C225 C226 1.362 . S
C226 H218 0.930 . S
C226 C225 1.362 . S
C226 C229 1.409 . S
C227 H219 0.930 . S
C227 C228 1.355 . S
C227 C229 1.415 . S
C228 C227 1.355 . S
C228 C230 1.419 . S
C229 C224 1.425 . S
C229 C226 1.409 . S
C229 C227 1.415 . S
C230 H220 0.930 . S
C230 C228 1.419 . S
C230 C231 1.362 . S
C231 H221 0.930 . S
C231 C224 1.409 . S
C231 C230 1.362 . S
H232 C238 0.930 . S
H233 C241 0.930 . S
H234 C242 0.930 . S
H235 C243 0.930 . S
H236 C246 0.930 . S
H237 C247 0.930 . S
C238 H232 0.930 . S
C238 C239 1.355 . S
C238 C240 1.415 . S
C239 C238 1.355 . S
C239 C241 1.419 1_455 S
C240 C238 1.415 . S
C240 C245 1.425 . S
C240 C247 1.409 . S
C241 H233 0.930 . S
C241 C239 1.419 1_655 S
C241 C242 1.362 . S
C242 H234 0.930 . S
C242 C241 1.362 . S
C242 C245 1.409 1_655 S
C243 H235 0.930 . S
C243 C244 1.355 1_655 S
C243 C245 1.415 1_655 S
C244 C243 1.355 1_455 S
C244 C246 1.419 . S
C245 C240 1.425 . S
C245 C242 1.409 1_455 S
C245 C243 1.415 1_455 S
C246 H236 0.930 . S
C246 C244 1.419 . S
C246 C247 1.362 . S
C247 H237 0.930 . S
C247 C240 1.409 . S
C247 C246 1.362 . S
H248 C254 0.930 . S
H249 C257 0.930 . S
H250 C258 0.930 . S
H251 C259 0.930 . S
H252 C262 0.930 . S
H253 C263 0.930 . S
C254 H248 0.930 . S
C254 C255 1.355 . S
C254 C256 1.415 . S
C255 C254 1.355 . S
C255 C257 1.419 1_566 S
C256 C254 1.415 . S
C256 C261 1.425 1_565 S
C256 C263 1.409 . S
C257 H249 0.930 . S
C257 C255 1.419 1_544 S
C257 C258 1.362 1_554 S
C258 H250 0.930 . S
C258 C257 1.362 1_556 S
C258 C261 1.409 . S
C259 H251 0.930 . S
C259 C260 1.361 . S
C259 C261 1.415 . S
C260 C259 1.361 . S
C260 C262 1.409 1_545 S
C261 C256 1.425 1_545 S
C261 C258 1.409 . S
C261 C259 1.415 . S
C262 H252 0.930 . S
C262 C260 1.409 1_565 S
C262 C263 1.362 . S
C263 H253 0.930 . S
C263 C256 1.409 . S
C263 C262 1.362 . S
H264 C270 0.930 . S
H265 C273 0.930 1_554 S
H266 C274 0.930 . S
H267 C275 0.930 . S
H268 C278 0.930 . S
H269 C279 0.930 . S
C270 H264 0.930 . S
C270 C271 1.355 . S
C270 C272 1.415 . S
C271 C270 1.355 . S
C271 C273 1.419 . S
C272 C270 1.415 . S
C272 C277 1.425 . S
C272 C279 1.409 . S
C273 H265 0.930 1_556 S
C273 C271 1.419 . S
C273 C274 1.362 . S
C274 H266 0.930 . S
C274 C273 1.362 . S
C274 C277 1.409 . S
C275 H267 0.930 . S
C275 C276 1.355 . S
C275 C277 1.415 . S
C276 C275 1.355 . S
C276 C278 1.419 . S
C277 C272 1.425 . S
C277 C274 1.409 . S
C277 C275 1.415 . S
C278 H268 0.930 . S
C278 C276 1.419 . S
C278 C279 1.362 . S
C279 H269 0.930 . S
C279 C272 1.409 . S
C279 C278 1.362 . S
H280 C286 0.930 . S
H281 C289 0.930 . S
H282 C290 0.930 . S
H283 C291 0.930 . S
H284 C294 0.930 . S
H285 C295 0.930 . S
C286 H280 0.930 . S
C286 C287 1.355 . S
C286 C288 1.415 . S
C287 C286 1.355 . S
C287 C289 1.419 1_556 S
C288 C286 1.415 . S
C288 C293 1.425 . S
C288 C295 1.409 . S
C289 H281 0.930 . S
C289 C287 1.419 1_554 S
C289 C290 1.362 1_554 S
C290 H282 0.930 . S
C290 C289 1.362 1_556 S
C290 C293 1.409 . S
C291 H283 0.930 . S
C291 C292 1.355 . S
C291 C293 1.415 . S
C292 C291 1.355 . S
C292 C294 1.419 . S
C293 C288 1.425 . S
C293 C290 1.409 . S
C293 C291 1.415 . S
C294 H284 0.930 . S
C294 C292 1.419 . S
C294 C295 1.362 . S
C295 H285 0.930 . S
C295 C288 1.409 . S
C295 C294 1.362 . S
H296 C302 0.930 . S
H297 C305 0.930 1_554 S
H298 C306 0.930 . S
H299 C307 0.930 . S
H300 C310 0.930 . S
H301 C311 0.930 . S
C302 H296 0.930 . S
C302 C303 1.355 1_455 S
C302 C304 1.415 . S
C303 C302 1.355 1_655 S
C303 C305 1.419 . S
C304 C302 1.415 . S
C304 C309 1.425 1_455 S
C304 C311 1.409 . S
C305 H297 0.930 1_556 S
C305 C303 1.419 . S
C305 C306 1.362 . S
C306 H298 0.930 . S
C306 C305 1.362 . S
C306 C309 1.409 . S
C307 H299 0.930 . S
C307 C308 1.355 1_655 S
C307 C309 1.415 . S
C308 C307 1.355 1_455 S
C308 C310 1.419 . S
C309 C304 1.425 1_655 S
C309 C306 1.409 . S
C309 C307 1.415 . S
C310 H300 0.930 . S
C310 C308 1.419 . S
C310 C311 1.362 . S
C311 H301 0.930 . S
C311 C304 1.409 . S
C311 C310 1.362 . S
H312 C318 0.930 . S
H313 C321 0.930 . S
H314 C322 0.930 1_655 S
H315 C323 0.930 . S
H316 C326 0.930 . S
H317 C327 0.930 . S
C318 H312 0.930 . S
C318 C319 1.355 . S
C318 C320 1.415 . S
C319 C318 1.355 . S
C319 C321 1.419 . S
C320 C318 1.415 . S
C320 C325 1.425 . S
C320 C327 1.409 . S
C321 H313 0.930 . S
C321 C319 1.419 . S
C321 C322 1.362 . S
C322 H314 0.930 1_455 S
C322 C321 1.362 . S
C322 C325 1.409 . S
C323 H315 0.930 . S
C323 C324 1.355 . S
C323 C325 1.415 1_655 S
C324 C323 1.355 . S
C324 C326 1.418 1_655 S
C325 C320 1.425 . S
C325 C322 1.409 . S
C325 C323 1.415 1_455 S
C326 H316 0.930 . S
C326 C324 1.418 1_455 S
C326 C327 1.362 . S
C327 H317 0.930 . S
C327 C320 1.409 . S
C327 C326 1.362 . S
H328 C334 0.930 . S
H329 C337 0.930 . S
H330 C338 0.930 . S
H331 C339 0.930 . S
H332 C342 0.930 . S
H333 C343 0.930 . S
C334 H328 0.930 . S
C334 C335 1.355 . S
C334 C336 1.415 . S
C335 C334 1.355 . S
C335 C337 1.419 1_545 S
C336 C334 1.415 . S
C336 C341 1.395 1_545 S
C336 C343 1.409 . S
C337 H329 0.930 . S
C337 C335 1.419 1_565 S
C337 C338 1.362 . S
C338 H330 0.930 . S
C338 C337 1.362 . S
C338 C341 1.426 . S
C339 H331 0.930 . S
C339 C340 1.355 1_565 S
C339 C341 1.428 . S
C340 C339 1.355 1_545 S
C340 C342 1.419 . S
C341 C336 1.395 1_565 S
C341 C338 1.426 . S
C341 C339 1.428 . S
C342 H332 0.930 . S
C342 C340 1.419 . S
C342 C343 1.362 . S
C343 H333 0.930 . S
C343 C336 1.409 . S
C343 C342 1.362 . S
H344 C350 0.930 . S
H345 C353 0.930 . S
H346 C354 0.930 . S
H347 C355 0.930 . S
H348 C358 0.930 . S
H349 C359 0.930 . S
C350 H344 0.930 . S
C350 C351 1.355 . S
C350 C352 1.415 . S
C351 C350 1.355 . S
C351 C353 1.419 . S
C352 C350 1.415 . S
C352 C357 1.425 . S
C352 C359 1.409 . S
C353 H345 0.930 . S
C353 C351 1.419 . S
C353 C354 1.362 . S
C354 H346 0.930 . S
C354 C353 1.362 . S
C354 C357 1.409 . S
C355 H347 0.930 . S
C355 C356 1.355 . S
C355 C357 1.415 . S
C356 C355 1.355 . S
C356 C358 1.419 . S
C357 C352 1.425 . S
C357 C354 1.409 . S
C357 C355 1.415 . S
C358 H348 0.930 . S
C358 C356 1.419 . S
C358 C359 1.362 . S
C359 H349 0.930 . S
C359 C352 1.409 . S
C359 C358 1.362 . S
H360 C366 0.930 . S
H361 C369 0.930 . S
H362 C370 0.930 . S
H363 C371 0.930 . S
H364 C374 0.930 . S
H365 C375 0.930 . S
C366 H360 0.930 . S
C366 C367 1.355 . S
C366 C368 1.415 . S
C367 C366 1.355 . S
C367 C369 1.419 . S
C368 C366 1.415 . S
C368 C373 1.425 . S
C368 C375 1.409 . S
C369 H361 0.930 . S
C369 C367 1.419 . S
C369 C370 1.362 . S
C370 H362 0.930 . S
C370 C369 1.362 . S
C370 C373 1.409 . S
C371 H363 0.930 . S
C371 C372 1.355 . S
C371 C373 1.415 . S
C372 C371 1.355 . S
C372 C374 1.419 . S
C373 C368 1.425 . S
C373 C370 1.409 . S
C373 C371 1.415 . S
C374 H364 0.930 . S
C374 C372 1.419 . S
C374 C375 1.362 . S
C375 H365 0.930 . S
C375 C368 1.409 . S
C375 C374 1.362 . S
H376 C382 0.930 . S
H377 C385 0.930 1_554 S
H378 C386 0.930 . S
H379 C387 0.930 . S
H380 C390 0.930 . S
H381 C391 0.930 . S
C382 H376 0.930 . S
C382 C383 1.355 1_455 S
C382 C384 1.415 . S
C383 C382 1.355 1_655 S
C383 C385 1.419 . S
C384 C382 1.415 . S
C384 C389 1.425 1_455 S
C384 C391 1.409 . S
C385 H377 0.930 1_556 S
C385 C383 1.419 . S
C385 C386 1.362 . S
C386 H378 0.930 . S
C386 C385 1.362 . S
C386 C389 1.409 . S
C387 H379 0.930 . S
C387 C388 1.355 1_655 S
C387 C389 1.415 . S
C388 C387 1.355 1_455 S
C388 C390 1.419 . S
C389 C384 1.425 1_655 S
C389 C386 1.409 . S
C389 C387 1.415 . S
C390 H380 0.930 . S
C390 C388 1.419 . S
C390 C391 1.362 . S
C391 H381 0.930 . S
C391 C384 1.409 . S
C391 C390 1.362 . S
H392 C398 0.930 . S
H393 C401 0.930 . S
H394 C402 0.930 1_554 S
H395 C403 0.930 . S
H396 C406 0.930 . S
H397 C407 0.930 . S
C398 H392 0.930 . S
C398 C399 1.355 . S
C398 C400 1.415 . S
C399 C398 1.355 . S
C399 C401 1.419 1_566 S
C400 C398 1.415 . S
C400 C405 1.425 1_565 S
C400 C407 1.409 . S
C401 H393 0.930 . S
C401 C399 1.419 1_544 S
C401 C402 1.362 1_554 S
C402 H394 0.930 1_556 S
C402 C401 1.362 1_556 S
C402 C405 1.409 . S
C403 H395 0.930 . S
C403 C404 1.355 . S
C403 C405 1.415 . S
C404 C403 1.355 . S
C404 C406 1.419 1_545 S
C405 C400 1.425 1_545 S
C405 C402 1.409 . S
C405 C403 1.415 . S
C406 H396 0.930 . S
C406 C404 1.419 1_565 S
C406 C407 1.362 . S
C407 H397 0.930 . S
C407 C400 1.409 . S
C407 C406 1.362 . S
H408 C414 0.930 . S
H409 C417 0.930 . S
H410 C418 0.930 . S
H411 C419 0.930 . S
H412 C422 0.930 . S
H413 C423 0.930 . S
C414 H408 0.930 . S
C414 C415 1.355 . S
C414 C416 1.415 . S
C415 C414 1.355 . S
C415 C417 1.419 . S
C416 C414 1.415 . S
C416 C421 1.425 . S
C416 C423 1.409 . S
C417 H409 0.930 . S
C417 C415 1.419 . S
C417 C418 1.362 . S
C418 H410 0.930 . S
C418 C417 1.362 . S
C418 C421 1.409 . S
C419 H411 0.930 . S
C419 C420 1.355 . S
C419 C421 1.415 . S
C420 C419 1.355 . S
C420 C422 1.419 . S
C421 C416 1.425 . S
C421 C418 1.409 . S
C421 C419 1.415 . S
C422 H412 0.930 . S
C422 C420 1.419 . S
C422 C423 1.362 . S
C423 H413 0.930 . S
C423 C416 1.409 . S
C423 C422 1.362 . S
H424 C430 0.930 . S
H425 C433 0.930 . S
H426 C434 0.930 1_554 S
H427 C435 0.930 . S
H428 C438 0.930 . S
H429 C439 0.930 . S
C430 H424 0.930 . S
C430 C431 1.355 . S
C430 C432 1.415 . S
C431 C430 1.355 . S
C431 C433 1.419 1_556 S
C432 C430 1.415 . S
C432 C437 1.425 . S
C432 C439 1.409 . S
C433 H425 0.930 . S
C433 C431 1.419 1_554 S
C433 C434 1.362 1_554 S
C434 H426 0.930 1_556 S
C434 C433 1.362 1_556 S
C434 C437 1.409 . S
C435 H427 0.930 . S
C435 C436 1.355 . S
C435 C437 1.415 . S
C436 C435 1.355 . S
C436 C438 1.419 . S
C437 C432 1.425 . S
C437 C434 1.409 . S
C437 C435 1.415 . S
C438 H428 0.930 . S
C438 C436 1.419 . S
C438 C439 1.362 . S
C439 H429 0.930 . S
C439 C432 1.409 . S
C439 C438 1.362 . S
H440 C446 0.930 1_554 S
H441 C449 0.930 . S
H442 C450 0.930 . S
H443 C451 0.930 1_655 S
H444 C454 0.930 . S
H445 C455 0.930 . S
C446 H440 0.930 1_556 S
C446 C447 1.355 . S
C446 C448 1.415 . S
C447 C446 1.355 . S
C447 C449 1.419 1_455 S
C448 C446 1.415 . S
C448 C453 1.425 . S
C448 C455 1.409 . S
C449 H441 0.930 . S
C449 C447 1.419 1_655 S
C449 C450 1.362 . S
C450 H442 0.930 . S
C450 C449 1.362 . S
C450 C453 1.409 1_655 S
C451 H443 0.930 1_455 S
C451 C452 1.355 . S
C451 C453 1.415 . S
C452 C451 1.355 . S
C452 C454 1.419 . S
C453 C448 1.425 . S
C453 C450 1.409 1_455 S
C453 C451 1.415 . S
C454 H444 0.930 . S
C454 C452 1.419 . S
C454 C455 1.362 . S
C455 H445 0.930 . S
C455 C448 1.409 . S
C455 C454 1.362 . S
H456 C462 0.930 . S
H457 C465 0.930 . S
H458 C466 0.930 . S
H459 C467 0.930 1_565 S
H460 C470 0.930 . S
H461 C471 0.930 . S
C462 H456 0.930 . S
C462 C463 1.355 . S
C462 C464 1.415 . S
C463 C462 1.355 . S
C463 C465 1.419 1_546 S
C464 C462 1.415 . S
C464 C469 1.425 . S
C464 C471 1.409 . S
C465 H457 0.930 . S
C465 C463 1.419 1_564 S
C465 C466 1.362 1_554 S
C466 H458 0.930 . S
C466 C465 1.362 1_556 S
C466 C469 1.409 1_565 S
C467 H459 0.930 1_545 S
C467 C468 1.355 . S
C467 C469 1.415 . S
C468 C467 1.355 . S
C468 C470 1.419 . S
C469 C464 1.425 . S
C469 C466 1.409 1_545 S
C469 C467 1.415 . S
C470 H460 0.930 . S
C470 C468 1.419 . S
C470 C471 1.362 . S
C471 H461 0.930 . S
C471 C464 1.409 . S
C471 C470 1.362 . S
H472 C478 0.930 1_554 S
H473 C481 0.930 . S
H474 C482 0.930 . S
H475 C483 0.930 . S
H476 C486 0.930 . S
H477 C487 0.930 . S
C478 H472 0.930 1_556 S
C478 C479 1.355 . S
C478 C480 1.415 . S
C479 C478 1.355 . S
C479 C481 1.419 . S
C480 C478 1.415 . S
C480 C485 1.425 . S
C480 C487 1.409 . S
C481 H473 0.930 . S
C481 C479 1.419 . S
C481 C482 1.362 . S
C482 H474 0.930 . S
C482 C481 1.362 . S
C482 C485 1.409 . S
C483 H475 0.930 . S
C483 C484 1.355 . S
C483 C485 1.415 . S
C484 C483 1.355 . S
C484 C486 1.419 . S
C485 C480 1.425 . S
C485 C482 1.409 . S
C485 C483 1.415 . S
C486 H476 0.930 . S
C486 C484 1.419 . S
C486 C487 1.362 . S
C487 H477 0.930 . S
C487 C480 1.409 . S
C487 C486 1.362 . S
H488 C494 0.930 . S
H489 C497 0.930 . S
H490 C498 0.930 . S
H491 C499 0.930 . S
H492 C502 0.930 . S
H493 C503 0.930 . S
C494 H488 0.930 . S
C494 C495 1.355 1_556 S
C494 C496 1.415 . S
C495 C494 1.355 1_554 S
C495 C497 1.419 . S
C496 C494 1.415 . S
C496 C501 1.425 . S
C496 C503 1.409 . S
C497 H489 0.930 . S
C497 C495 1.419 . S
C497 C498 1.362 . S
C498 H490 0.930 . S
C498 C497 1.362 . S
C498 C501 1.409 1_554 S
C499 H491 0.930 . S
C499 C500 1.355 . S
C499 C501 1.415 . S
C500 C499 1.355 . S
C500 C502 1.419 . S
C501 C496 1.425 . S
C501 C498 1.409 1_556 S
C501 C499 1.415 . S
C502 H492 0.930 . S
C502 C500 1.419 . S
C502 C503 1.362 . S
C503 H493 0.930 . S
C503 C496 1.409 . S
C503 C502 1.362 . S
H504 C510 0.944 . S
H505 C513 0.930 . S
H506 C514 0.930 . S
H507 C515 0.930 . S
H508 C518 0.930 . S
H509 C519 0.930 . S
C510 H504 0.944 . S
C510 C511 1.344 1_455 S
C510 C512 1.412 1_455 S
C511 C510 1.344 1_655 S
C511 C513 1.419 . S
C512 C510 1.412 1_655 S
C512 C517 1.425 . S
C512 C519 1.409 1_655 S
C513 H505 0.930 . S
C513 C511 1.419 . S
C513 C514 1.362 . S
C514 H506 0.930 . S
C514 C513 1.362 . S
C514 C517 1.409 . S
C515 H507 0.930 . S
C515 C516 1.355 . S
C515 C517 1.415 . S
C516 C515 1.355 . S
C516 C518 1.419 1_655 S
C517 C512 1.425 . S
C517 C514 1.409 . S
C517 C515 1.415 . S
C518 H508 0.930 . S
C518 C516 1.419 1_455 S
C518 C519 1.362 . S
C519 H509 0.930 . S
C519 C512 1.409 1_455 S
C519 C518 1.362 . S
H520 C526 0.930 . S
H521 C529 0.930 . S
H522 C530 0.930 . S
H523 C531 0.930 . S
H524 C534 0.930 . S
H525 C535 0.930 . S
C526 H520 0.930 . S
C526 C527 1.355 . S
C526 C528 1.415 . S
C527 C526 1.355 . S
C527 C529 1.419 . S
C528 C526 1.415 . S
C528 C533 1.425 . S
C528 C535 1.409 . S
C529 H521 0.930 . S
C529 C527 1.419 . S
C529 C530 1.362 . S
C530 H522 0.930 . S
C530 C529 1.362 . S
C530 C533 1.409 . S
C531 H523 0.930 . S
C531 C532 1.355 . S
C531 C533 1.415 . S
C532 C531 1.355 . S
C532 C534 1.419 . S
C533 C528 1.425 . S
C533 C530 1.409 . S
C533 C531 1.415 . S
C534 H524 0.930 . S
C534 C532 1.419 . S
C534 C535 1.362 . S
C535 H525 0.930 . S
C535 C528 1.409 . S
C535 C534 1.362 . S
H536 C542 0.930 . S
H537 C545 0.930 . S
H538 C546 0.930 . S
H539 C547 0.930 . S
H540 C550 0.930 . S
H541 C551 0.930 . S
C542 H536 0.930 . S
C542 C543 1.355 . S
C542 C544 1.415 . S
C543 C542 1.355 . S
C543 C545 1.419 . S
C544 C542 1.415 . S
C544 C549 1.425 . S
C544 C551 1.409 . S
C545 H537 0.930 . S
C545 C543 1.419 . S
C545 C546 1.362 . S
C546 H538 0.930 . S
C546 C545 1.362 . S
C546 C549 1.409 . S
C547 H539 0.930 . S
C547 C548 1.355 . S
C547 C549 1.415 . S
C548 C547 1.355 . S
C548 C550 1.419 . S
C549 C544 1.425 . S
C549 C546 1.409 . S
C549 C547 1.415 . S
C550 H540 0.930 . S
C550 C548 1.419 . S
C550 C551 1.362 . S
C551 H541 0.930 . S
C551 C544 1.409 . S
C551 C550 1.362 . S
H552 C558 0.930 . S
H553 C561 0.930 . S
H554 C562 0.930 . S
H555 C563 0.930 . S
H556 C566 0.930 . S
H557 C567 0.930 . S
C558 H552 0.930 . S
C558 C559 1.355 . S
C558 C560 1.415 . S
C559 C558 1.355 . S
C559 C561 1.419 . S
C560 C558 1.415 . S
C560 C565 1.425 . S
C560 C567 1.409 . S
C561 H553 0.930 . S
C561 C559 1.419 . S
C561 C562 1.362 . S
C562 H554 0.930 . S
C562 C561 1.362 . S
C562 C565 1.409 . S
C563 H555 0.930 . S
C563 C564 1.355 . S
C563 C565 1.415 . S
C564 C563 1.355 . S
C564 C566 1.419 . S
C565 C560 1.425 . S
C565 C562 1.409 . S
C565 C563 1.415 . S
C566 H556 0.930 . S
C566 C564 1.419 . S
C566 C567 1.362 . S
C567 H557 0.930 . S
C567 C560 1.409 . S
C567 C566 1.362 . S
C191 N80 1.510 . S
C196 C122 1.491 . S
C212 C142 1.542 . S
C207 N93 1.531 . S
C228 C162 1.554 . S
C223 N54 1.551 . S
C244 C182 1.529 . S
C239 N67 1.520 . S
C260 C123 1.559 . S
C255 N28 1.566 1_556 S
C271 N41 1.562 1_556 S
C276 C143 1.555 . S
C287 N2 1.564 1_556 S
C292 C163 1.555 . S
C303 N15 1.547 1_556 S
C308 C183 1.513 . S
C324 C113 0.850 1_655 S
C319 N70 0.935 . S
C340 C133 0.827 . S
C335 N83 0.920 . S
C356 C153 0.835 . S
C351 N96 0.927 . S
C367 N57 0.938 . S
C372 C173 0.859 . S
C383 N18 0.951 . S
C388 C116 0.907 . S
C404 C136 0.831 . S
C399 N31 0.916 . S
C420 C156 0.873 . S
C415 N44 0.916 . S
C431 N5 0.943 . S
C436 C176 0.872 . S
C447 N66 1.569 1_556 S
C452 C106 1.489 . S
C463 N79 1.556 1_556 S
C468 C126 1.471 . S
C484 C146 1.416 . S
C479 N92 1.569 1_556 S
C500 C166 1.427 . S
C495 N53 1.538 . S
C511 N14 1.581 . S
C516 C108 1.474 . S
C532 C128 1.385 . S
C527 N27 1.535 . S
C548 C148 1.488 . S
C543 N40 1.579 . S
C559 N1 1.580 . S
C564 C168 1.470 . S
