# Generated by pormake.
# Topology pto, (3,4)-cn, num edge types: 1
# Building blocks:
#     Node 0, Type 0, BuildingBlock: BELTOD_clean_linker_0, # of connection points: 3
#     Node 1, Type 0, BuildingBlock: BELTOD_clean_linker_0, # of connection points: 3
#     Node 2, Type 0, BuildingBlock: BELTOD_clean_linker_0, # of connection points: 3
#     Node 3, Type 0, BuildingBlock: BELTOD_clean_linker_0, # of connection points: 3
#     Node 4, Type 0, BuildingBlock: BELTOD_clean_linker_0, # of connection points: 3
#     Node 5, Type 0, BuildingBlock: BELTOD_clean_linker_0, # of connection points: 3
#     Node 6, Type 0, BuildingBlock: BELTOD_clean_linker_0, # of connection points: 3
#     Node 7, Type 0, BuildingBlock: BELTOD_clean_linker_0, # of connection points: 3
#     Node 8, Type 1, BuildingBlock: KOZSID_clean_sbu_0, # of connection points: 4
#     Node 9, Type 1, BuildingBlock: KOZSID_clean_sbu_0, # of connection points: 4
#     Node 10, Type 1, BuildingBlock: KOZSID_clean_sbu_0, # of connection points: 4
#     Node 11, Type 1, BuildingBlock: KOZSID_clean_sbu_0, # of connection points: 4
#     Node 12, Type 1, BuildingBlock: KOZSID_clean_sbu_0, # of connection points: 4
#     Node 13, Type 1, BuildingBlock: KOZSID_clean_sbu_0, # of connection points: 4
#     Edge 14, Type (0, 1), BuildingBlock: CIFDUS_clean_linker_0, # of connection points: 2
#     Edge 15, Type (0, 1), BuildingBlock: CIFDUS_clean_linker_0, # of connection points: 2
#     Edge 16, Type (0, 1), BuildingBlock: CIFDUS_clean_linker_0, # of connection points: 2
#     Edge 17, Type (0, 1), BuildingBlock: CIFDUS_clean_linker_0, # of connection points: 2
#     Edge 18, Type (0, 1), BuildingBlock: CIFDUS_clean_linker_0, # of connection points: 2
#     Edge 19, Type (0, 1), BuildingBlock: CIFDUS_clean_linker_0, # of connection points: 2
#     Edge 20, Type (0, 1), BuildingBlock: CIFDUS_clean_linker_0, # of connection points: 2
#     Edge 21, Type (0, 1), BuildingBlock: CIFDUS_clean_linker_0, # of connection points: 2
#     Edge 22, Type (0, 1), BuildingBlock: CIFDUS_clean_linker_0, # of connection points: 2
#     Edge 23, Type (0, 1), BuildingBlock: CIFDUS_clean_linker_0, # of connection points: 2
#     Edge 24, Type (0, 1), BuildingBlock: CIFDUS_clean_linker_0, # of connection points: 2
#     Edge 25, Type (0, 1), BuildingBlock: CIFDUS_clean_linker_0, # of connection points: 2
#     Edge 26, Type (0, 1), BuildingBlock: CIFDUS_clean_linker_0, # of connection points: 2
#     Edge 27, Type (0, 1), BuildingBlock: CIFDUS_clean_linker_0, # of connection points: 2
#     Edge 28, Type (0, 1), BuildingBlock: CIFDUS_clean_linker_0, # of connection points: 2
#     Edge 29, Type (0, 1), BuildingBlock: CIFDUS_clean_linker_0, # of connection points: 2
#     Edge 30, Type (0, 1), BuildingBlock: CIFDUS_clean_linker_0, # of connection points: 2
#     Edge 31, Type (0, 1), BuildingBlock: CIFDUS_clean_linker_0, # of connection points: 2
#     Edge 32, Type (0, 1), BuildingBlock: CIFDUS_clean_linker_0, # of connection points: 2
#     Edge 33, Type (0, 1), BuildingBlock: CIFDUS_clean_linker_0, # of connection points: 2
#     Edge 34, Type (0, 1), BuildingBlock: CIFDUS_clean_linker_0, # of connection points: 2
#     Edge 35, Type (0, 1), BuildingBlock: CIFDUS_clean_linker_0, # of connection points: 2
#     Edge 36, Type (0, 1), BuildingBlock: CIFDUS_clean_linker_0, # of connection points: 2
#     Edge 37, Type (0, 1), BuildingBlock: CIFDUS_clean_linker_0, # of connection points: 2
# Relax obj value: 0.000
# Max RMSD: 0.030
# Mean RMSD: 0.011
data_MOF--net-pto--node1-KOZSID_clean_sbu_0--node2-BELTOD_clean_linker_0--edge1-CIFDUS_clean_linker_0
_symmetry_space_group_name_H-M    P1
_symmetry_Int_Tables_number       1
_symmetry_cell_setting            triclinic
loop_
_symmetry_equiv_pos_as_xyz
'x, y, z'
_cell_length_a     39.058242
_cell_length_b     52.936696
_cell_length_c     45.929833
_cell_angle_alpha  86.636527
_cell_angle_beta   88.997243
_cell_angle_gamma 95.534582
loop_
_atom_site_label
_atom_site_type_symbol
_atom_site_fract_x
_atom_site_fract_y
_atom_site_fract_z
_atom_type_partial_charge
P0 P 0.30913 0.28632 0.3391 0.0
H1 H 0.36427 0.31481 0.30385 0.0
H2 H 0.38512 0.31181 0.25385 0.0
H3 H 0.30824 0.24881 0.24331 0.0
H4 H 0.28705 0.25234 0.29312 0.0
H5 H 0.26602 0.30026 0.38654 0.0
H6 H 0.22343 0.33108 0.38948 0.0
H7 H 0.23535 0.34878 0.2966 0.0
H8 H 0.27749 0.31779 0.29376 0.0
H9 H 0.34488 0.25147 0.37636 0.0
H10 H 0.24466 0.25281 0.33873 0.0
O11 O 0.34127 0.29981 0.3581 0.0
H12 H 0.32812 0.20895 0.39868 0.0
H13 H 0.22775 0.20996 0.36086 0.0
C14 C 0.32466 0.28341 0.30243 0.0
C15 C 0.35207 0.30023 0.29085 0.0
C16 C 0.36402 0.29845 0.26226 0.0
C17 C 0.34856 0.27991 0.24464 0.0
C18 C 0.32061 0.26339 0.25622 0.0
C19 C 0.30867 0.26522 0.28483 0.0
C20 C 0.27478 0.30662 0.33998 0.0
C21 C 0.25906 0.31053 0.36676 0.0
C22 C 0.23494 0.32827 0.36843 0.0
C23 C 0.22615 0.34247 0.34328 0.0
C24 C 0.24129 0.33796 0.31631 0.0
C25 C 0.26552 0.32026 0.31469 0.0
C26 C 0.29583 0.2554 0.35627 0.0
C27 C 0.31913 0.2427 0.37313 0.0
C28 C 0.3095 0.21842 0.38593 0.0
C29 C 0.27654 0.20622 0.38167 0.0
C30 C 0.25333 0.2189 0.36446 0.0
C31 C 0.26289 0.24338 0.35194 0.0
P32 P 0.28968 0.75985 0.7029 0.0
H33 H 0.23966 0.73686 0.66286 0.0
H34 H 0.19956 0.6981 0.66731 0.0
H35 H 0.23109 0.68384 0.7559 0.0
H36 H 0.27056 0.72231 0.75158 0.0
H37 H 0.32718 0.8081 0.68569 0.0
H38 H 0.31104 0.84735 0.66137 0.0
H39 H 0.20544 0.81478 0.65987 0.0
H40 H 0.22153 0.77571 0.68516 0.0
H41 H 0.35772 0.75576 0.7276 0.0
H42 H 0.25993 0.77898 0.75498 0.0
O43 O 0.32083 0.75131 0.6813 0.0
H44 H 0.38008 0.76221 0.77618 0.0
H45 H 0.28222 0.78543 0.80393 0.0
C46 C 0.25726 0.73312 0.70717 0.0
C47 C 0.23725 0.72575 0.68348 0.0
C48 C 0.2145 0.70357 0.68598 0.0
C49 C 0.21221 0.68804 0.71198 0.0
C50 C 0.2324 0.69542 0.73558 0.0
C51 C 0.25476 0.71767 0.73317 0.0
C52 C 0.27576 0.78879 0.68665 0.0
C53 C 0.30048 0.80945 0.68036 0.0
C54 C 0.29121 0.83191 0.66661 0.0
C55 C 0.25702 0.83403 0.65865 0.0
C56 C 0.23204 0.8135 0.66555 0.0
C57 C 0.24128 0.79111 0.67983 0.0
C58 C 0.30721 0.76695 0.73776 0.0
C59 C 0.34118 0.76255 0.74397 0.0
C60 C 0.35397 0.76631 0.77174 0.0
C61 C 0.33287 0.77432 0.79382 0.0
C62 C 0.29895 0.77909 0.78737 0.0
C63 C 0.28629 0.77557 0.75945 0.0
P64 P 0.81622 0.78526 0.28867 0.0
H65 H 0.86194 0.8232 0.31606 0.0
H66 H 0.85245 0.85301 0.35333 0.0
H67 H 0.74688 0.82054 0.36436 0.0
H68 H 0.75665 0.79065 0.32693 0.0
H69 H 0.88326 0.76544 0.29159 0.0
H70 H 0.90109 0.72384 0.30681 0.0
H71 H 0.79621 0.69768 0.33272 0.0
H72 H 0.7785 0.73972 0.3177 0.0
H73 H 0.76735 0.82061 0.26971 0.0
H74 H 0.78285 0.74222 0.2582 0.0
O75 O 0.84737 0.79976 0.26656 0.0
H76 H 0.7177 0.81698 0.23832 0.0
H77 H 0.73221 0.73802 0.22796 0.0
C78 C 0.80977 0.80521 0.31827 0.0
C79 C 0.83682 0.82239 0.32661 0.0
C80 C 0.8314 0.83931 0.34805 0.0
C81 C 0.79881 0.83927 0.36158 0.0
C82 C 0.7721 0.82127 0.35397 0.0
C83 C 0.77767 0.80418 0.33267 0.0
C84 C 0.82942 0.75538 0.30278 0.0
C85 C 0.8641 0.75086 0.30074 0.0
C86 C 0.87432 0.72712 0.30964 0.0
C87 C 0.84997 0.70747 0.32072 0.0
C88 C 0.81541 0.71241 0.32391 0.0
C89 C 0.8053 0.73635 0.31538 0.0
C90 C 0.77807 0.78145 0.26725 0.0
C91 C 0.75954 0.80241 0.26103 0.0
C92 C 0.73102 0.80026 0.24313 0.0
C93 C 0.72057 0.77709 0.23087 0.0
C94 C 0.73952 0.75617 0.23693 0.0
C95 C 0.76827 0.75844 0.25464 0.0
P96 P 0.80168 0.2441 0.79583 0.0
H97 H 0.7768 0.21157 0.8469 0.0
H98 H 0.72589 0.21092 0.87877 0.0
H99 H 0.68958 0.27157 0.82408 0.0
H100 H 0.74019 0.27165 0.79197 0.0
H101 H 0.85067 0.21813 0.7633 0.0
H102 H 0.84467 0.18941 0.72364 0.0
H103 H 0.73576 0.19784 0.72139 0.0
H104 H 0.74218 0.22709 0.76073 0.0
H105 H 0.80406 0.28994 0.82761 0.0
H106 H 0.82983 0.27019 0.74066 0.0
O107 O 0.83252 0.2337 0.81677 0.0
H108 H 0.82508 0.33419 0.81497 0.0
H109 H 0.85093 0.3146 0.72782 0.0
C110 C 0.76257 0.24205 0.81751 0.0
C111 C 0.75777 0.22462 0.84171 0.0
C112 C 0.72874 0.22435 0.85997 0.0
C113 C 0.70391 0.24144 0.8542 0.0
C114 C 0.70812 0.25809 0.8291 0.0
C115 C 0.73716 0.2583 0.81084 0.0
C116 C 0.79677 0.22426 0.76538 0.0
C117 C 0.82551 0.21382 0.75426 0.0
C118 C 0.82199 0.19732 0.73166 0.0
C119 C 0.78961 0.19099 0.71967 0.0
C120 C 0.76104 0.20233 0.73013 0.0
C121 C 0.76464 0.21892 0.75277 0.0
C122 C 0.81479 0.27687 0.78495 0.0
C123 C 0.81374 0.29522 0.80563 0.0
C124 C 0.82569 0.32053 0.79836 0.0
C125 C 0.83944 0.32792 0.77033 0.0
C126 C 0.84055 0.30944 0.74961 0.0
C127 C 0.82832 0.28408 0.75688 0.0
P128 P 0.80852 0.78811 0.78039 0.0
H129 H 0.80255 0.78679 0.84391 0.0
H130 H 0.75339 0.78371 0.8777 0.0
H131 H 0.68466 0.77369 0.80556 0.0
H132 H 0.73428 0.77793 0.7717 0.0
H133 H 0.87631 0.77099 0.77161 0.0
H134 H 0.89578 0.7309 0.75776 0.0
H135 H 0.79017 0.69996 0.74952 0.0
H136 H 0.77077 0.74049 0.76316 0.0
H137 H 0.77436 0.83451 0.77654 0.0
H138 H 0.82435 0.78864 0.71735 0.0
O139 O 0.84094 0.80312 0.79776 0.0
H140 H 0.76745 0.86603 0.73659 0.0
H141 H 0.81802 0.82028 0.67736 0.0
C142 C 0.77202 0.78294 0.80528 0.0
C143 C 0.77691 0.78386 0.83535 0.0
C144 C 0.74868 0.78186 0.85472 0.0
C145 C 0.7149 0.77856 0.84443 0.0
C146 C 0.71022 0.77669 0.81425 0.0
C147 C 0.73856 0.7789 0.79486 0.0
C148 C 0.82208 0.7585 0.76919 0.0
C149 C 0.85727 0.75559 0.76696 0.0
C150 C 0.86839 0.73263 0.75905 0.0
C151 C 0.8445 0.71212 0.75297 0.0
C152 C 0.80919 0.71541 0.75408 0.0
C153 C 0.79806 0.73848 0.76211 0.0
C154 C 0.79932 0.80904 0.74985 0.0
C155 C 0.78335 0.83103 0.75483 0.0
C156 C 0.77973 0.84915 0.73204 0.0
C157 C 0.79232 0.84571 0.70382 0.0
C158 C 0.80767 0.82334 0.69876 0.0
C159 C 0.81134 0.80523 0.72165 0.0
P160 P 0.83157 0.24067 0.28383 0.0
H161 H 0.89942 0.25646 0.30437 0.0
H162 H 0.92719 0.29698 0.31854 0.0
H163 H 0.83222 0.3313 0.30465 0.0
H164 H 0.80415 0.29017 0.29231 0.0
H165 H 0.84845 0.18826 0.29305 0.0
H166 H 0.84105 0.15741 0.33473 0.0
H167 H 0.79147 0.21155 0.38367 0.0
H168 H 0.79982 0.24267 0.34182 0.0
H169 H 0.81166 0.27745 0.23879 0.0
H170 H 0.76699 0.20734 0.28255 0.0
O171 O 0.86032 0.23071 0.26091 0.0
H172 H 0.76186 0.27786 0.20719 0.0
H173 H 0.71757 0.20744 0.25062 0.0
C174 C 0.8501 0.27052 0.29632 0.0
C175 C 0.88454 0.2727 0.30456 0.0
C176 C 0.90045 0.29598 0.31247 0.0
C177 C 0.88227 0.3177 0.3121 0.0
C178 C 0.84712 0.31507 0.30521 0.0
C179 C 0.83109 0.29159 0.29771 0.0
C180 C 0.82516 0.21786 0.31455 0.0
C181 C 0.83609 0.19356 0.31276 0.0
C182 C 0.83153 0.17582 0.33657 0.0
C183 C 0.81567 0.18198 0.36261 0.0
C184 C 0.80422 0.20631 0.36411 0.0
C185 C 0.80885 0.22407 0.34021 0.0
C186 C 0.7926 0.24283 0.26371 0.0
C187 C 0.79076 0.2625 0.24213 0.0
C188 C 0.76237 0.26267 0.224 0.0
C189 C 0.73579 0.24273 0.22656 0.0
C190 C 0.73769 0.22305 0.2482 0.0
C191 C 0.76584 0.22311 0.26661 0.0
P192 P 0.29889 0.29017 0.70533 0.0
H193 H 0.27141 0.27853 0.64908 0.0
H194 H 0.25424 0.23876 0.62668 0.0
H195 H 0.27229 0.19689 0.70775 0.0
H196 H 0.29039 0.23687 0.72973 0.0
H197 H 0.30162 0.34531 0.69888 0.0
H198 H 0.25756 0.37494 0.69924 0.0
H199 H 0.1796 0.31201 0.71741 0.0
H200 H 0.22402 0.28236 0.7162 0.0
H201 H 0.36961 0.2851 0.72194 0.0
H202 H 0.27098 0.28497 0.76564 0.0
O203 O 0.32934 0.30349 0.68176 0.0
H204 H 0.39738 0.28165 0.76899 0.0
H205 H 0.29878 0.28159 0.81309 0.0
C206 C 0.28239 0.26064 0.69093 0.0
C207 C 0.27135 0.26078 0.66209 0.0
C208 C 0.26131 0.23799 0.64938 0.0
C209 C 0.26195 0.21453 0.66535 0.0
C210 C 0.27198 0.21456 0.69467 0.0
C211 C 0.28215 0.23744 0.70735 0.0
C212 C 0.26598 0.31165 0.70699 0.0
C213 C 0.27502 0.33788 0.70285 0.0
C214 C 0.24978 0.35483 0.7033 0.0
C215 C 0.21493 0.34589 0.70826 0.0
C216 C 0.20608 0.31952 0.71302 0.0
C217 C 0.23144 0.30255 0.71248 0.0
C218 C 0.31837 0.2859 0.74033 0.0
C219 C 0.35391 0.28437 0.74169 0.0
C220 C 0.36978 0.28244 0.76862 0.0
C221 C 0.35034 0.28171 0.79476 0.0
C222 C 0.31443 0.28212 0.79333 0.0
C223 C 0.29856 0.28421 0.76626 0.0
P224 P 0.30366 0.75042 0.3283 0.0
H225 H 0.35089 0.79051 0.29953 0.0
H226 H 0.37142 0.79898 0.24893 0.0
H227 H 0.30311 0.73533 0.22345 0.0
H228 H 0.28235 0.72732 0.27379 0.0
H229 H 0.30396 0.75964 0.38981 0.0
H230 H 0.29446 0.79671 0.41698 0.0
H231 H 0.27075 0.83764 0.33682 0.0
H232 H 0.27942 0.80005 0.30984 0.0
H233 H 0.30149 0.69646 0.34663 0.0
H234 H 0.22958 0.74933 0.31873 0.0
O235 O 0.3386 0.73994 0.3434 0.0
H236 H 0.255 0.66223 0.35145 0.0
H237 H 0.18274 0.71487 0.32267 0.0
C238 C 0.31468 0.75858 0.29041 0.0
C239 C 0.33986 0.77872 0.28291 0.0
C240 C 0.3518 0.78338 0.25403 0.0
C241 C 0.33896 0.7678 0.23211 0.0
C242 C 0.31318 0.74794 0.23967 0.0
C243 C 0.30129 0.74331 0.26856 0.0
C244 C 0.29333 0.77736 0.34777 0.0
C245 C 0.29655 0.77655 0.3781 0.0
C246 C 0.29125 0.79781 0.39358 0.0
C247 C 0.28249 0.82033 0.37901 0.0
C248 C 0.2775 0.82062 0.3487 0.0
C249 C 0.28275 0.79922 0.33321 0.0
C250 C 0.26888 0.72547 0.33262 0.0
C251 C 0.27562 0.70072 0.34158 0.0
C252 C 0.249 0.68107 0.34407 0.0
C253 C 0.21508 0.68572 0.33736 0.0
C254 C 0.20845 0.71066 0.32839 0.0
C255 C 0.23517 0.73036 0.32602 0.0
C256 C 0.07317 0.54662 0.36567 0.0
C257 C 0.08827 0.55225 0.39196 0.0
C258 C 0.06983 0.53749 0.41324 0.0
C259 C 0.04477 0.52363 0.3988 0.0
N260 N 0.04612 0.52857 0.36953 0.0
Co261 Co 0.01486 0.51233 0.34023 0.0
N262 N 0.98725 0.49106 0.37164 0.0
C263 C 0.99089 0.49211 0.40079 0.0
C264 C 0.96934 0.47434 0.41681 0.0
C265 C 0.95122 0.46088 0.39672 0.0
C266 C 0.96273 0.47132 0.36946 0.0
N267 N 0.98436 0.49547 0.31089 0.0
C268 C 0.9603 0.47527 0.31456 0.0
C269 C 0.94592 0.46872 0.28828 0.0
C270 C 0.96225 0.48487 0.2671 0.0
C271 C 0.98546 0.50032 0.28162 0.0
N272 N 0.04184 0.53398 0.30881 0.0
C273 C 0.03564 0.53493 0.27988 0.0
C274 C 0.05747 0.5524 0.26377 0.0
C275 C 0.07879 0.56347 0.28356 0.0
C276 C 0.06878 0.55195 0.31074 0.0
N277 N 0.04613 0.48524 0.33694 0.0
C278 C 0.08949 0.44595 0.33242 0.0
C279 C 0.07933 0.45955 0.30753 0.0
C280 C 0.05779 0.47893 0.31026 0.0
C281 C 0.0775 0.45243 0.35958 0.0
C282 C 0.05617 0.472 0.36133 0.0
N283 N 0.98356 0.53968 0.34357 0.0
C284 C 0.94943 0.57084 0.32079 0.0
C285 C 0.94616 0.58243 0.34706 0.0
C286 C 0.96037 0.57155 0.37186 0.0
C287 C 0.97842 0.55018 0.36971 0.0
C288 C 0.9681 0.5497 0.31953 0.0
H289 H 0.98851 0.54289 0.38946 0.0
H290 H 0.97028 0.54228 0.29867 0.0
H291 H 0.05083 0.48857 0.29051 0.0
H292 H 0.04793 0.47597 0.38266 0.0
C293 C 0.01832 0.50706 0.41218 0.0
C294 C 0.08511 0.55925 0.33774 0.0
C295 C 0.95171 0.46077 0.34211 0.0
C296 C 0.00951 0.51886 0.26839 0.0
H297 H 0.1101 0.56586 0.39543 0.0
H298 H 0.07383 0.53724 0.43651 0.0
H299 H 0.96838 0.47061 0.44025 0.0
H300 H 0.93271 0.44459 0.40166 0.0
H301 H 0.92631 0.45338 0.28475 0.0
H302 H 0.95837 0.48488 0.24382 0.0
H303 H 0.05776 0.55666 0.24042 0.0
H304 H 0.09918 0.57851 0.27855 0.0
H305 H 0.08824 0.4555 0.28599 0.0
H306 H 0.08411 0.44225 0.37951 0.0
H307 H 0.93882 0.57864 0.30096 0.0
H308 H 0.95789 0.57965 0.39283 0.0
C309 C 0.05916 0.55851 0.74947 0.0
C310 C 0.07173 0.56885 0.77473 0.0
C311 C 0.05661 0.55406 0.79761 0.0
C312 C 0.03551 0.53574 0.78514 0.0
N313 N 0.03656 0.53769 0.75562 0.0
Co314 Co 0.00693 0.51672 0.72901 0.0
N315 N 0.98561 0.4944 0.7627 0.0
C316 C 0.99305 0.496 0.79123 0.0
C317 C 0.97645 0.47686 0.80907 0.0
C318 C 0.9578 0.46177 0.7908 0.0
C319 C 0.96393 0.47279 0.76277 0.0
N320 N 0.9761 0.49664 0.70256 0.0
C321 C 0.95405 0.47555 0.70853 0.0
C322 C 0.93719 0.4677 0.6838 0.0
C323 C 0.94961 0.48416 0.66124 0.0
C324 C 0.97306 0.50111 0.6735 0.0
N325 N 0.02965 0.53795 0.69517 0.0
C326 C 0.02357 0.53529 0.66657 0.0
C327 C 0.04393 0.55199 0.64824 0.0
C328 C 0.06412 0.56633 0.66621 0.0
C329 C 0.05456 0.55766 0.6946 0.0
N330 N 0.04241 0.49258 0.72569 0.0
C331 C 0.09255 0.45791 0.72208 0.0
C332 C 0.07267 0.46377 0.69801 0.0
C333 C 0.048 0.48116 0.70022 0.0
C334 C 0.08671 0.46961 0.74792 0.0
C335 C 0.06176 0.48665 0.74926 0.0
N336 N 0.97163 0.54122 0.7326 0.0
C337 C 0.9445 0.57752 0.71262 0.0
C338 C 0.93402 0.58321 0.74052 0.0
C339 C 0.93961 0.56614 0.76384 0.0
C340 C 0.95801 0.54537 0.75942 0.0
C341 C 0.96293 0.55639 0.70913 0.0
H342 H 0.96184 0.53359 0.77837 0.0
H343 H 0.97092 0.55331 0.6874 0.0
H344 H 0.03376 0.48512 0.68111 0.0
H345 H 0.0585 0.49472 0.7697 0.0
C346 C 0.0155 0.5159 0.80049 0.0
C347 C 0.06865 0.56957 0.72021 0.0
C348 C 0.94968 0.46157 0.73681 0.0
C349 C 0.9963 0.51868 0.65782 0.0
H350 H 0.08967 0.58555 0.77655 0.0
H351 H 0.06043 0.55644 0.82061 0.0
H352 H 0.97814 0.474 0.83251 0.0
H353 H 0.94195 0.44441 0.79738 0.0
H354 H 0.9187 0.45128 0.68211 0.0
H355 H 0.94357 0.48311 0.63841 0.0
H356 H 0.04343 0.55402 0.62466 0.0
H357 H 0.08314 0.58182 0.65921 0.0
H358 H 0.07647 0.4553 0.67744 0.0
H359 H 0.10106 0.46539 0.76729 0.0
H360 H 0.94012 0.58997 0.69377 0.0
H361 H 0.93079 0.56925 0.78572 0.0
C362 C 0.28471 0.98048 0.56162 0.0
C363 C 0.31612 0.97214 0.56955 0.0
C364 C 0.34087 0.9866 0.55309 0.0
C365 C 0.32336 0.00274 0.53591 0.0
N366 N 0.28882 0.9996 0.54049 0.0
Co367 Co 0.25359 0.01781 0.51858 0.0
N368 N 0.29025 0.03941 0.49487 0.0
C369 C 0.32467 0.03832 0.49595 0.0
C370 C 0.34332 0.05645 0.47807 0.0
C371 C 0.31943 0.07042 0.46535 0.0
C372 C 0.28753 0.05995 0.47635 0.0
N373 N 0.21846 0.03584 0.49629 0.0
C374 C 0.22272 0.05673 0.47752 0.0
C375 C 0.19143 0.06405 0.46801 0.0
C376 C 0.16648 0.04739 0.48155 0.0
C377 C 0.18386 0.03096 0.49855 0.0
N378 N 0.21692 0.9967 0.54281 0.0
C379 C 0.18251 0.99769 0.54116 0.0
C380 C 0.16376 0.98129 0.56094 0.0
C381 C 0.18758 0.96896 0.57607 0.0
C382 C 0.21961 0.97845 0.56441 0.0
N383 N 0.25532 0.04408 0.54773 0.0
C384 C 0.25858 0.08342 0.58677 0.0
C385 C 0.22697 0.07281 0.57697 0.0
C386 C 0.22593 0.05331 0.55762 0.0
C387 C 0.28842 0.0736 0.57701 0.0
C388 C 0.28621 0.05407 0.55781 0.0
N389 N 0.25193 0.99129 0.48935 0.0
C390 C 0.22049 0.95721 0.46485 0.0
C391 C 0.25104 0.9496 0.45351 0.0
C392 C 0.28172 0.96411 0.45906 0.0
C393 C 0.28157 0.98463 0.47674 0.0
C394 C 0.22151 0.97801 0.48245 0.0
H395 H 0.30597 0.99444 0.48021 0.0
H396 H 0.19739 0.98257 0.49068 0.0
H397 H 0.20112 0.04613 0.55072 0.0
H398 H 0.30991 0.04759 0.55105 0.0
C399 C 0.3387 0.02097 0.51527 0.0
C400 C 0.25171 0.96908 0.57414 0.0
C401 C 0.25568 0.0712 0.47007 0.0
C402 C 0.16856 0.01348 0.51999 0.0
H403 H 0.3208 0.95692 0.58528 0.0
H404 H 0.36835 0.9853 0.55337 0.0
H405 H 0.37101 0.05968 0.4754 0.0
H406 H 0.32487 0.08695 0.45037 0.0
H407 H 0.18697 0.08033 0.45373 0.0
H408 H 0.13893 0.0481 0.48046 0.0
H409 H 0.13606 0.97842 0.56378 0.0
H410 H 0.18196 0.95442 0.59351 0.0
H411 H 0.20305 0.07946 0.58419 0.0
H412 H 0.3136 0.08134 0.58356 0.0
H413 H 0.19596 0.9467 0.46103 0.0
H414 H 0.30602 0.95951 0.45004 0.0
C415 C 0.46307 0.80239 0.06728 0.0
C416 C 0.45661 0.82627 0.07561 0.0
C417 C 0.47782 0.84347 0.05876 0.0
C418 C 0.49582 0.82916 0.0411 0.0
N419 N 0.48698 0.80386 0.04536 0.0
Co420 Co 0.50713 0.77603 0.02503 0.0
N421 N 0.54312 0.8008 0.0046 0.0
C422 C 0.54779 0.8262 0.00746 0.0
C423 C 0.57541 0.83811 0.99166 0.0
C424 C 0.5893 0.81922 0.97789 0.0
C425 C 0.56904 0.79678 0.98591 0.0
N426 N 0.52651 0.74827 0.00396 0.0
C427 C 0.55308 0.74934 0.98437 0.0
C428 C 0.5567 0.72569 0.97374 0.0
C429 C 0.53175 0.70906 0.98725 0.0
C430 C 0.51421 0.72343 0.00511 0.0
N431 N 0.47211 0.75118 0.04652 0.0
C432 C 0.46757 0.72574 0.04411 0.0
C433 C 0.44339 0.71342 0.06327 0.0
C434 C 0.43232 0.73201 0.0794 0.0
C435 C 0.45036 0.7547 0.06894 0.0
N436 N 0.47524 0.78073 0.99221 0.0
C437 C 0.43751 0.78597 0.94081 0.0
C438 C 0.43538 0.76288 0.95734 0.0
C439 C 0.45424 0.76071 0.9828 0.0
C440 C 0.45707 0.80677 0.95136 0.0
C441 C 0.47527 0.80381 0.977 0.0
N442 N 0.53911 0.77138 0.05744 0.0
C443 C 0.5711 0.74423 0.08862 0.0
C444 C 0.58607 0.76524 0.10242 0.0
C445 C 0.57684 0.78928 0.0936 0.0
C446 C 0.55365 0.79192 0.07116 0.0
C447 C 0.54757 0.74768 0.06649 0.0
H448 H 0.54811 0.81081 0.06511 0.0
H449 H 0.53662 0.73096 0.05691 0.0
H450 H 0.45201 0.74245 0.99396 0.0
H451 H 0.48975 0.82043 0.98359 0.0
C452 C 0.52473 0.83846 0.02398 0.0
C453 C 0.44753 0.77886 0.08204 0.0
C454 C 0.5753 0.77224 0.97496 0.0
C455 C 0.48736 0.71393 0.02435 0.0
H456 H 0.43927 0.83067 0.09284 0.0
H457 H 0.48111 0.86388 0.06035 0.0
H458 H 0.58421 0.85818 0.99011 0.0
H459 H 0.61169 0.82174 0.96342 0.0
H460 H 0.57541 0.72091 0.95783 0.0
H461 H 0.52712 0.68885 0.98455 0.0
H462 H 0.4355 0.69322 0.0658 0.0
H463 H 0.41374 0.72906 0.09732 0.0
H464 H 0.42038 0.74622 0.95008 0.0
H465 H 0.45877 0.82523 0.93963 0.0
H466 H 0.57734 0.72521 0.09499 0.0
H467 H 0.58812 0.80612 0.10349 0.0
C468 C 0.83139 0.98171 0.58261 0.0
C469 C 0.86313 0.97485 0.59165 0.0
C470 C 0.88751 0.98999 0.57547 0.0
C471 C 0.86937 0.00505 0.55742 0.0
N472 N 0.83482 1.0006 0.56119 0.0
Co473 Co 0.79885 0.01721 0.53828 0.0
N474 N 0.83484 0.03973 0.51474 0.0
C475 C 0.86936 0.0408 0.51776 0.0
C476 C 0.88751 0.05835 0.49886 0.0
C477 C 0.86319 0.06928 0.48285 0.0
C478 C 0.83143 0.05773 0.493 0.0
N479 N 0.76295 0.03318 0.51468 0.0
C480 C 0.76637 0.0512 0.49231 0.0
C481 C 0.73464 0.05668 0.48178 0.0
C482 C 0.7103 0.04149 0.49793 0.0
C483 C 0.72845 0.02768 0.51733 0.0
N484 N 0.76288 0.99532 0.56247 0.0
C485 C 0.72835 0.9955 0.56081 0.0
C486 C 0.71017 0.97879 0.58061 0.0
C487 C 0.73449 0.96719 0.5959 0.0
C488 C 0.76625 0.97745 0.58434 0.0
N489 N 0.79795 0.04379 0.56703 0.0
C490 C 0.7972 0.0796 0.61007 0.0
C491 C 0.76682 0.07053 0.59694 0.0
C492 C 0.76775 0.0527 0.57565 0.0
C493 C 0.82796 0.07101 0.60069 0.0
C494 C 0.82777 0.0534 0.57931 0.0
N495 N 0.79989 0.99044 0.5098 0.0
C496 C 0.77154 0.95496 0.4857 0.0
C497 C 0.80296 0.94906 0.47414 0.0
C498 C 0.83247 0.96498 0.47966 0.0
C499 C 0.83038 0.98532 0.49734 0.0
C500 C 0.77057 0.97568 0.50318 0.0
H501 H 0.85394 0.99639 0.50087 0.0
H502 H 0.74591 0.97913 0.51151 0.0
H503 H 0.74371 0.04621 0.56675 0.0
H504 H 0.85214 0.04773 0.57328 0.0
C505 C 0.88404 0.02407 0.5374 0.0
C506 C 0.79879 0.96951 0.59482 0.0
C507 C 0.79891 0.06407 0.48074 0.0
C508 C 0.71379 0.01046 0.53926 0.0
H509 H 0.86817 0.96035 0.60819 0.0
H510 H 0.91516 0.99003 0.57673 0.0
H511 H 0.91516 0.06242 0.49666 0.0
H512 H 0.86831 0.0839 0.46544 0.0
H513 H 0.72957 0.07046 0.46443 0.0
H514 H 0.68265 0.04086 0.49605 0.0
H515 H 0.6825 0.97521 0.58332 0.0
H516 H 0.72942 0.95267 0.61344 0.0
H517 H 0.74233 0.07666 0.60354 0.0
H518 H 0.85227 0.07791 0.6098 0.0
H519 H 0.74788 0.94331 0.48197 0.0
H520 H 0.85729 0.96177 0.47046 0.0
C521 C 0.46395 0.29254 0.07565 0.0
C522 C 0.45932 0.31726 0.08215 0.0
C523 C 0.47955 0.33286 0.06275 0.0
C524 C 0.49529 0.3168 0.04565 0.0
N525 N 0.4857 0.29188 0.05247 0.0
Co526 Co 0.50444 0.26197 0.03519 0.0
N527 N 0.53775 0.28475 0.0094 0.0
C528 C 0.54024 0.31046 0.00652 0.0
C529 C 0.56507 0.3208 0.98669 0.0
C530 C 0.57923 0.3005 0.97617 0.0
C531 C 0.56214 0.27886 0.99028 0.0
N532 N 0.5241 0.232 0.01883 0.0
C533 C 0.55059 0.23114 0.99959 0.0
C534 C 0.55654 0.20629 0.99463 0.0
C535 C 0.53298 0.19089 0.01139 0.0
C536 C 0.51412 0.20713 0.02559 0.0
N537 N 0.47041 0.23926 0.06035 0.0
C538 C 0.46473 0.21364 0.06051 0.0
C539 C 0.4404 0.20335 0.0808 0.0
C540 C 0.43033 0.22355 0.09477 0.0
C541 C 0.44918 0.24508 0.08208 0.0
N542 N 0.47035 0.2624 0.00331 0.0
C543 C 0.42817 0.26325 0.95394 0.0
C544 C 0.43469 0.24028 0.9683 0.0
C545 C 0.4556 0.24029 0.99274 0.0
C546 C 0.44169 0.28576 0.96559 0.0
C547 C 0.46228 0.28491 0.99011 0.0
N548 N 0.53851 0.26158 0.06669 0.0
C549 C 0.56538 0.23949 0.10643 0.0
C550 C 0.58679 0.26143 0.11177 0.0
C551 C 0.58345 0.2834 0.09399 0.0
C552 C 0.55925 0.28311 0.07197 0.0
C553 C 0.5418 0.23993 0.08386 0.0
H554 H 0.55781 0.30055 0.05944 0.0
H555 H 0.52637 0.22257 0.08073 0.0
H556 H 0.45994 0.22213 0.00225 0.0
H557 H 0.47173 0.30279 0.99757 0.0
C558 C 0.5204 0.32442 0.02405 0.0
C559 C 0.44834 0.27032 0.09292 0.0
C560 C 0.57034 0.2532 0.98505 0.0
C561 C 0.48617 0.19965 0.04456 0.0
H562 H 0.44357 0.32332 0.09956 0.0
H563 H 0.48319 0.35342 0.06182 0.0
H564 H 0.57237 0.34073 0.98091 0.0
H565 H 0.59999 0.30151 0.96009 0.0
H566 H 0.57575 0.19997 0.9802 0.0
H567 H 0.52978 0.17031 0.01286 0.0
H568 H 0.43237 0.18342 0.08597 0.0
H569 H 0.41222 0.2224 0.113 0.0
H570 H 0.4247 0.22229 0.96017 0.0
H571 H 0.43663 0.30407 0.95569 0.0
H572 H 0.56645 0.22203 0.11974 0.0
H573 H 0.59972 0.30081 0.09669 0.0
H574 H 0.17399 0.353 0.30713 0.0
H575 H 0.22584 0.37775 0.38418 0.0
H576 H 0.18833 0.41179 0.38754 0.0
H577 H 0.14175 0.4351 0.36812 0.0
H578 H 0.08882 0.41007 0.29165 0.0
H579 H 0.12645 0.37606 0.28809 0.0
C580 C 0.17714 0.36592 0.32457 0.0
C581 C 0.2026 0.36276 0.34543 0.0
C582 C 0.15553 0.38556 0.32634 0.0
C583 C 0.20613 0.3795 0.36809 0.0
C584 C 0.18485 0.3991 0.36992 0.0
C585 C 0.13811 0.42204 0.35085 0.0
C586 C 0.11243 0.42522 0.3302 0.0
C587 C 0.1595 0.40232 0.34916 0.0
C588 C 0.10866 0.40836 0.30763 0.0
C589 C 0.13002 0.38877 0.30569 0.0
H590 H 0.145 0.67995 0.69746 0.0
H591 H 0.22947 0.64169 0.73198 0.0
H592 H 0.19272 0.60157 0.73721 0.0
H593 H 0.13627 0.57733 0.73233 0.0
H594 H 0.05121 0.61562 0.69952 0.0
H595 H 0.08834 0.65573 0.69292 0.0
C596 C 0.15532 0.66276 0.70592 0.0
C597 C 0.18981 0.66373 0.71436 0.0
C598 C 0.13392 0.63981 0.70917 0.0
C599 C 0.20287 0.64142 0.7256 0.0
C600 C 0.18193 0.61848 0.72851 0.0
C601 C 0.12605 0.59455 0.72382 0.0
C602 C 0.0913 0.59378 0.71644 0.0
C603 C 0.1474 0.61747 0.7205 0.0
C604 C 0.07802 0.61599 0.70531 0.0
C605 C 0.09919 0.63883 0.70157 0.0
H606 H 0.90488 0.69439 0.3517 0.0
H607 H 0.81896 0.66265 0.3035 0.0
H608 H 0.84004 0.62062 0.30877 0.0
H609 H 0.8853 0.5936 0.32398 0.0
H610 H 0.9711 0.62546 0.37226 0.0
H611 H 0.94765 0.66667 0.37021 0.0
C612 C 0.89069 0.6782 0.34255 0.0
C613 C 0.86057 0.6816 0.32708 0.0
C614 C 0.90304 0.65416 0.34555 0.0
C615 C 0.84211 0.66045 0.31567 0.0
C616 C 0.85428 0.63647 0.31849 0.0
C617 C 0.8987 0.60957 0.33417 0.0
C618 C 0.92995 0.60657 0.34809 0.0
C619 C 0.88507 0.63321 0.33289 0.0
C620 C 0.94687 0.62728 0.36158 0.0
C621 C 0.93359 0.65087 0.36027 0.0
H622 H 0.89996 0.34448 0.74213 0.0
H623 H 0.81135 0.37128 0.78338 0.0
H624 H 0.83712 0.41516 0.77579 0.0
H625 H 0.88613 0.44586 0.75928 0.0
H626 H 0.97485 0.41912 0.71862 0.0
H627 H 0.94771 0.37527 0.72366 0.0
C628 C 0.88607 0.35996 0.74903 0.0
C629 C 0.85386 0.35463 0.76339 0.0
C630 C 0.90116 0.38511 0.74479 0.0
C631 C 0.83637 0.37488 0.77258 0.0
C632 C 0.85104 0.39996 0.76819 0.0
C633 C 0.89927 0.43032 0.75149 0.0
C634 C 0.93235 0.43535 0.73887 0.0
C635 C 0.88361 0.40528 0.7547 0.0
C636 C 0.94935 0.41539 0.72855 0.0
C637 C 0.93388 0.39043 0.73145 0.0
H638 H 0.28586 0.18857 0.43733 0.0
H639 H 0.24588 0.16538 0.3551 0.0
H640 H 0.23405 0.12158 0.37556 0.0
H641 H 0.23854 0.08933 0.41616 0.0
H642 H 0.27804 0.1128 0.49831 0.0
H643 H 0.28691 0.15703 0.47863 0.0
C644 C 0.2745 0.17391 0.42394 0.0
C645 C 0.26697 0.18012 0.39472 0.0
C646 C 0.26784 0.14884 0.43583 0.0
C647 C 0.25174 0.16106 0.37771 0.0
C648 C 0.24515 0.13601 0.38934 0.0
C649 C 0.24852 0.10429 0.42975 0.0
C650 C 0.25746 0.0981 0.45859 0.0
C651 C 0.2535 0.12962 0.41826 0.0
C652 C 0.27088 0.11738 0.47607 0.0
C653 C 0.276 0.14256 0.46482 0.0
H654 H 0.3943 0.79739 0.80939 0.0
H655 H 0.30086 0.7563 0.84522 0.0
H656 H 0.32432 0.75715 0.89423 0.0
H657 H 0.37271 0.7677 0.92652 0.0
H658 H 0.46616 0.80858 0.89029 0.0
H659 H 0.44139 0.80976 0.84188 0.0
C660 C 0.3791 0.78866 0.82797 0.0
C661 C 0.34603 0.77667 0.82372 0.0
C662 C 0.39278 0.78914 0.85599 0.0
C663 C 0.32633 0.7658 0.84799 0.0
C664 C 0.3398 0.76613 0.87597 0.0
C665 C 0.38757 0.77689 0.908 0.0
C666 C 0.42122 0.78798 0.91196 0.0
C667 C 0.37319 0.77745 0.88017 0.0
C668 C 0.44006 0.80012 0.88786 0.0
C669 C 0.42601 0.80067 0.86014 0.0
H670 H 0.83931 0.85448 0.40604 0.0
H671 H 0.74434 0.86786 0.36393 0.0
H672 H 0.73635 0.90236 0.39577 0.0
H673 H 0.75831 0.93048 0.43349 0.0
H674 H 0.85301 0.91642 0.47593 0.0
H675 H 0.85943 0.88083 0.44566 0.0
C676 C 0.81686 0.86495 0.40387 0.0
C677 C 0.79257 0.85872 0.38257 0.0
C678 C 0.81257 0.88486 0.42207 0.0
C679 C 0.76329 0.87215 0.38032 0.0
C680 C 0.75883 0.89201 0.39838 0.0
C681 C 0.7801 0.91943 0.43642 0.0
C682 C 0.80537 0.92643 0.45672 0.0
C683 C 0.78354 0.89875 0.41908 0.0
C684 C 0.83357 0.91191 0.46001 0.0
C685 C 0.83717 0.8914 0.44285 0.0
H686 H 0.70547 0.23929 0.9134 0.0
H687 H 0.63659 0.24678 0.84162 0.0
H688 H 0.5891 0.25095 0.87583 0.0
H689 H 0.56731 0.25315 0.92635 0.0
H690 H 0.636 0.24521 0.99785 0.0
H691 H 0.68348 0.24014 0.96365 0.0
C692 C 0.67996 0.24144 0.90523 0.0
C693 C 0.67461 0.2427 0.87498 0.0
C694 C 0.65282 0.24378 0.925 0.0
C695 C 0.6415 0.24602 0.86477 0.0
C696 C 0.6143 0.24831 0.88432 0.0
C697 C 0.59274 0.25022 0.93422 0.0
C698 C 0.59858 0.24955 0.96428 0.0
C699 C 0.61971 0.24737 0.91445 0.0
C700 C 0.63132 0.24576 0.97465 0.0
C701 C 0.65831 0.24289 0.95515 0.0
H702 H 0.27302 0.88317 0.67125 0.0
H703 H 0.22181 0.8366 0.60809 0.0
H704 H 0.21377 0.87457 0.57691 0.0
H705 H 0.22584 0.92081 0.56579 0.0
H706 H 0.27569 0.96743 0.62942 0.0
H707 H 0.27992 0.92972 0.66233 0.0
C708 C 0.25983 0.88143 0.65077 0.0
C709 C 0.24824 0.85718 0.64182 0.0
C710 C 0.25538 0.90331 0.633 0.0
C711 C 0.23079 0.8551 0.61546 0.0
C712 C 0.22641 0.87677 0.59755 0.0
C713 C 0.23715 0.92261 0.58706 0.0
C714 C 0.25084 0.9466 0.59522 0.0
C715 C 0.23923 0.90092 0.60583 0.0
C716 C 0.26532 0.94898 0.62278 0.0
C717 C 0.26774 0.92748 0.6415 0.0
H718 H 0.71414 0.75133 0.18115 0.0
H719 H 0.65987 0.79857 0.23595 0.0
H720 H 0.61305 0.79838 0.20151 0.0
H721 H 0.58855 0.78625 0.15487 0.0
H722 H 0.64183 0.73804 0.10081 0.0
H723 H 0.68753 0.73649 0.13644 0.0
C724 C 0.69182 0.7612 0.18591 0.0
C725 C 0.69082 0.77517 0.21103 0.0
C726 C 0.66475 0.76079 0.16618 0.0
C727 C 0.66176 0.78811 0.21651 0.0
C728 C 0.63483 0.78789 0.19692 0.0
C729 C 0.61015 0.77535 0.15099 0.0
C730 C 0.61201 0.76243 0.12522 0.0
C731 C 0.63629 0.7746 0.17149 0.0
C732 C 0.63979 0.74803 0.1206 0.0
C733 C 0.666 0.74727 0.14085 0.0
H734 H 0.81865 0.14657 0.71855 0.0
H735 H 0.75153 0.19271 0.67002 0.0
H736 H 0.74647 0.16173 0.63242 0.0
H737 H 0.76319 0.12222 0.61239 0.0
H738 H 0.83123 0.07694 0.66109 0.0
H739 H 0.83428 0.1071 0.69932 0.0
C740 C 0.80315 0.15 0.69962 0.0
C741 C 0.78576 0.17204 0.697 0.0
C742 C 0.80064 0.13229 0.67804 0.0
C743 C 0.76507 0.17584 0.67267 0.0
C744 C 0.7623 0.15819 0.65109 0.0
C745 C 0.77838 0.11888 0.63152 0.0
C746 C 0.79717 0.09748 0.63379 0.0
C747 C 0.78017 0.13641 0.65345 0.0
C748 C 0.81696 0.09347 0.65861 0.0
C749 C 0.81862 0.11064 0.68054 0.0
H750 H 0.41532 0.28332 0.22566 0.0
H751 H 0.31124 0.2716 0.19561 0.0
H752 H 0.33282 0.26762 0.14601 0.0
H753 H 0.38153 0.26754 0.11096 0.0
H754 H 0.48528 0.2797 0.14098 0.0
H755 H 0.46372 0.28396 0.19075 0.0
C756 C 0.39733 0.28018 0.20822 0.0
C757 C 0.36171 0.27776 0.21439 0.0
C758 C 0.40991 0.27806 0.17974 0.0
C759 C 0.33879 0.27322 0.19157 0.0
C760 C 0.35109 0.2711 0.16315 0.0
C761 C 0.39921 0.27112 0.12854 0.0
C762 C 0.43477 0.27321 0.12273 0.0
C763 C 0.38659 0.27344 0.15699 0.0
C764 C 0.45776 0.278 0.1453 0.0
C765 C 0.44545 0.28039 0.17363 0.0
H766 H 0.89298 0.68798 0.78161 0.0
H767 H 0.82308 0.68022 0.71035 0.0
H768 H 0.84451 0.63959 0.69984 0.0
H769 H 0.88393 0.60636 0.71087 0.0
H770 H 0.95332 0.61513 0.78248 0.0
H771 H 0.93151 0.65532 0.79268 0.0
C772 C 0.88261 0.67752 0.76359 0.0
C773 C 0.8567 0.68721 0.74664 0.0
C774 C 0.89499 0.65431 0.75775 0.0
C775 C 0.84297 0.67311 0.72381 0.0
C776 C 0.85533 0.64995 0.71771 0.0
C777 C 0.89426 0.61716 0.72861 0.0
C778 C 0.92002 0.60765 0.74603 0.0
C779 C 0.88146 0.64038 0.7345 0.0
C780 C 0.93309 0.62179 0.76906 0.0
C781 C 0.92077 0.64486 0.77484 0.0
H782 H 0.85777 0.35671 0.34061 0.0
H783 H 0.94781 0.33617 0.29507 0.0
H784 H 0.97771 0.37764 0.3025 0.0
H785 H 0.97782 0.42061 0.31991 0.0
H786 H 0.88697 0.44277 0.36196 0.0
H787 H 0.85775 0.39999 0.35777 0.0
C788 C 0.88384 0.36132 0.33213 0.0
C789 C 0.90043 0.34307 0.31746 0.0
C790 C 0.90078 0.38557 0.33586 0.0
C791 C 0.93447 0.34945 0.30701 0.0
C792 C 0.9516 0.37332 0.311 0.0
C793 C 0.95171 0.41588 0.32834 0.0
C794 C 0.93461 0.43447 0.34159 0.0
C795 C 0.93496 0.39156 0.3252 0.0
C796 C 0.90069 0.42848 0.35215 0.0
C797 C 0.884 0.40413 0.34957 0.0
H798 H 0.21881 0.39213 0.73168 0.0
H799 H 0.15062 0.3406 0.68497 0.0
H800 H 0.10699 0.37075 0.68458 0.0
H801 H 0.08812 0.4119 0.69766 0.0
H802 H 0.15733 0.46352 0.74335 0.0
H803 H 0.20076 0.43336 0.74355 0.0
C804 C 0.19457 0.38756 0.72111 0.0
C805 C 0.18811 0.36409 0.70835 0.0
C806 C 0.16975 0.40507 0.72071 0.0
C807 C 0.15619 0.35835 0.6953 0.0
C808 C 0.13129 0.37568 0.69487 0.0
C809 C 0.11286 0.41663 0.70736 0.0
C810 C 0.11939 0.4399 0.72057 0.0
C811 C 0.1378 0.39913 0.70748 0.0
C812 C 0.15144 0.44562 0.73337 0.0
C813 C 0.17636 0.42841 0.73343 0.0
H814 H 0.2177 0.63716 0.32137 0.0
H815 H 0.14901 0.68666 0.35815 0.0
H816 H 0.10289 0.65192 0.36168 0.0
H817 H 0.08197 0.60721 0.35436 0.0
H818 H 0.15096 0.55775 0.31856 0.0
H819 H 0.19737 0.59255 0.31508 0.0
C820 C 0.19278 0.64032 0.33049 0.0
C821 C 0.18693 0.66455 0.33949 0.0
C822 C 0.16649 0.6202 0.33273 0.0
C823 C 0.15418 0.66834 0.35069 0.0
C824 C 0.12783 0.64842 0.35292 0.0
C825 C 0.10729 0.60419 0.34597 0.0
C826 C 0.11337 0.58017 0.33674 0.0
C827 C 0.13368 0.62428 0.344 0.0
C828 C 0.14602 0.5762 0.32577 0.0
C829 C 0.1724 0.59606 0.32376 0.0
H830 H 0.80686 0.89661 0.70756 0.0
H831 H 0.77515 0.84021 0.64682 0.0
H832 H 0.77435 0.87354 0.60768 0.0
H833 H 0.78297 0.91895 0.59067 0.0
H834 H 0.81445 0.97506 0.65151 0.0
H835 H 0.81474 0.94171 0.69087 0.0
C836 C 0.79935 0.89163 0.68584 0.0
C837 C 0.79094 0.86596 0.68015 0.0
C838 C 0.79898 0.91086 0.66351 0.0
C839 C 0.78199 0.8598 0.65173 0.0
C840 C 0.7814 0.87885 0.62938 0.0
C841 C 0.78981 0.92369 0.61262 0.0
C842 C 0.79872 0.94918 0.61847 0.0
C843 C 0.78994 0.90443 0.635 0.0
C844 C 0.8076 0.95543 0.64678 0.0
C845 C 0.80773 0.93642 0.66917 0.0
H846 H 0.69607 0.28046 0.21055 0.0
H847 H 0.71184 0.20276 0.19548 0.0
H848 H 0.66692 0.20146 0.15903 0.0
H849 H 0.62498 0.22298 0.13002 0.0
H850 H 0.60685 0.30003 0.14707 0.0
H851 H 0.65128 0.30112 0.18366 0.0
C852 C 0.68957 0.26326 0.19927 0.0
C853 C 0.70725 0.24177 0.20562 0.0
C854 C 0.66354 0.2626 0.17849 0.0
C855 C 0.69838 0.21949 0.19112 0.0
C856 C 0.67283 0.21878 0.17018 0.0
C857 C 0.63022 0.2399 0.14202 0.0
C858 C 0.61263 0.26147 0.13537 0.0
C859 C 0.65539 0.24028 0.16355 0.0
C860 C 0.6204 0.28331 0.15105 0.0
C861 C 0.64568 0.28392 0.17222 0.0
H862 H 0.29453 0.1713 0.67175 0.0
H863 H 0.21162 0.20319 0.62597 0.0
H864 H 0.20252 0.16519 0.59839 0.0
H865 H 0.22038 0.12405 0.58517 0.0
H866 H 0.30181 0.09149 0.63235 0.0
H867 H 0.30899 0.12857 0.66155 0.0
C868 C 0.27399 0.16978 0.65619 0.0
C869 C 0.25402 0.19026 0.65084 0.0
C870 C 0.26879 0.14782 0.64043 0.0
C871 C 0.22784 0.18797 0.63021 0.0
C872 C 0.2225 0.16618 0.61449 0.0
C873 C 0.23928 0.12479 0.60219 0.0
C874 C 0.26074 0.10503 0.60626 0.0
C875 C 0.24318 0.14615 0.61908 0.0
C876 C 0.28539 0.1066 0.62825 0.0
C877 C 0.28941 0.12776 0.64511 0.0
H878 H 0.40633 0.77798 0.2154 0.0
H879 H 0.30456 0.76512 0.18073 0.0
H880 H 0.32901 0.76802 0.13116 0.0
H881 H 0.37971 0.77292 0.09759 0.0
H882 H 0.48112 0.78581 0.13235 0.0
H883 H 0.45652 0.78469 0.18196 0.0
C884 C 0.38941 0.77623 0.197 0.0
C885 C 0.35364 0.7713 0.20184 0.0
C886 C 0.40365 0.77789 0.16857 0.0
C887 C 0.33221 0.76862 0.17769 0.0
C888 C 0.34615 0.77037 0.14931 0.0
C889 C 0.3962 0.77557 0.11615 0.0
C890 C 0.43202 0.77927 0.11169 0.0
C891 C 0.38185 0.77474 0.14451 0.0
C892 C 0.45344 0.78286 0.13558 0.0
C893 C 0.43939 0.78218 0.16382 0.0
H894 H 0.79727 0.13098 0.36258 0.0
H895 H 0.82551 0.19074 0.42016 0.0
H896 H 0.82165 0.1597 0.46188 0.0
H897 H 0.81229 0.11516 0.48189 0.0
H898 H 0.78578 0.05547 0.42418 0.0
H899 H 0.78729 0.08676 0.3825 0.0
C900 C 0.80279 0.13722 0.38422 0.0
C901 C 0.81178 0.16318 0.38815 0.0
C902 C 0.80097 0.11923 0.40806 0.0
C903 C 0.81816 0.17095 0.41649 0.0
C904 C 0.81621 0.15318 0.44036 0.0
C905 C 0.8068 0.10919 0.46012 0.0
C906 C 0.79901 0.08325 0.45581 0.0
C907 C 0.80791 0.12726 0.43638 0.0
C908 C 0.79183 0.07544 0.42774 0.0
C909 C 0.79272 0.09329 0.40402 0.0
H910 H 0.33226 0.25213 0.84453 0.0
H911 H 0.40793 0.3111 0.80882 0.0
H912 H 0.4382 0.31074 0.85481 0.0
H913 H 0.44391 0.29333 0.9048 0.0
H914 H 0.36891 0.23422 0.9411 0.0
H915 H 0.33775 0.2349 0.8953 0.0
C916 C 0.35523 0.26501 0.84695 0.0
C917 C 0.3679 0.28153 0.82322 0.0
C918 C 0.3727 0.26463 0.87351 0.0
C919 C 0.3979 0.29795 0.82659 0.0
C920 C 0.41515 0.29785 0.85293 0.0
C921 C 0.42051 0.2808 0.90284 0.0
C922 C 0.40867 0.26386 0.92641 0.0
C923 C 0.40288 0.28122 0.87648 0.0
C924 C 0.37871 0.24735 0.92324 0.0
C925 C 0.3608 0.2478 0.89709 0.0
H926 H 0.23503 0.85525 0.37408 0.0
H927 H 0.32602 0.83808 0.4204 0.0
H928 H 0.32374 0.87599 0.44762 0.0
H929 H 0.29634 0.91398 0.45839 0.0
H930 H 0.20624 0.93249 0.4118 0.0
H931 H 0.20764 0.89407 0.38474 0.0
C932 C 0.25445 0.85991 0.39001 0.0
C933 C 0.28051 0.84367 0.39529 0.0
C934 C 0.25314 0.88196 0.4056 0.0
C935 C 0.3053 0.84992 0.41622 0.0
C936 C 0.30418 0.87171 0.4317 0.0
C937 C 0.2772 0.90982 0.44207 0.0
C938 C 0.2514 0.92624 0.43699 0.0
C939 C 0.27827 0.88785 0.42656 0.0
C940 C 0.2263 0.92013 0.41628 0.0
C941 C 0.22718 0.89822 0.40069 0.0
H942 H 0.70765 0.75661 0.89986 0.0
H943 H 0.65446 0.79988 0.83545 0.0
H944 H 0.60631 0.80098 0.8697 0.0
H945 H 0.57992 0.79097 0.91873 0.0
H946 H 0.63418 0.7497 0.98377 0.0
H947 H 0.68159 0.74685 0.94875 0.0
C948 C 0.68568 0.76647 0.89333 0.0
C949 C 0.68486 0.77813 0.865 0.0
C950 C 0.65834 0.76753 0.91337 0.0
C951 C 0.65572 0.79036 0.85687 0.0
C952 C 0.62824 0.79122 0.87655 0.0
C953 C 0.60224 0.78142 0.92508 0.0
C954 C 0.6039 0.77061 0.9536 0.0
C955 C 0.62938 0.78007 0.90492 0.0
C956 C 0.63265 0.75815 0.96182 0.0
C957 C 0.65962 0.75653 0.94184 0.0
loop_
_geom_bond_atom_site_label_1
_geom_bond_atom_site_label_2
_geom_bond_distance
_geom_bond_site_symmetry_2
_ccdc_geom_bond_type
P0 O11 1.490 . S
P0 C14 1.812 . S
P0 C20 1.803 . S
P0 C26 1.819 . S
H1 C15 0.941 . S
H2 C16 0.939 . S
H3 C18 0.940 . S
H4 C19 0.940 . S
H5 C21 0.939 . S
H6 C22 0.942 . S
H7 C24 0.940 . S
H8 C25 0.939 . S
H9 C27 0.941 . S
H10 C31 0.939 . S
O11 P0 1.490 . S
H12 C28 0.939 . S
H13 C30 0.940 . S
C14 P0 1.812 . S
C14 C15 1.389 . S
C14 C19 1.391 . S
C15 H1 0.941 . S
C15 C14 1.389 . S
C15 C16 1.397 . S
C16 H2 0.939 . S
C16 C15 1.397 . S
C16 C17 1.378 . S
C17 C16 1.378 . S
C17 C18 1.378 . S
C18 H3 0.940 . S
C18 C17 1.378 . S
C18 C19 1.396 . S
C19 H4 0.940 . S
C19 C14 1.391 . S
C19 C18 1.396 . S
C20 P0 1.803 . S
C20 C21 1.378 . S
C20 C25 1.400 . S
C21 H5 0.939 . S
C21 C20 1.378 . S
C21 C22 1.361 . S
C22 H6 0.942 . S
C22 C21 1.361 . S
C22 C23 1.369 . S
C23 C22 1.369 . S
C23 C24 1.404 . S
C24 H7 0.940 . S
C24 C23 1.404 . S
C24 C25 1.389 . S
C25 H8 0.939 . S
C25 C20 1.400 . S
C25 C24 1.389 . S
C26 P0 1.819 . S
C26 C27 1.391 . S
C26 C31 1.391 . S
C27 H9 0.941 . S
C27 C26 1.391 . S
C27 C28 1.396 . S
C28 H12 0.939 . S
C28 C27 1.396 . S
C28 C29 1.397 . S
C29 C28 1.397 . S
C29 C30 1.385 . S
C30 H13 0.940 . S
C30 C29 1.385 . S
C30 C31 1.388 . S
C31 H10 0.939 . S
C31 C26 1.391 . S
C31 C30 1.388 . S
P32 O43 1.490 . S
P32 C46 1.812 . S
P32 C52 1.803 . S
P32 C58 1.819 . S
H33 C47 0.941 . S
H34 C48 0.939 . S
H35 C50 0.940 . S
H36 C51 0.940 . S
H37 C53 0.939 . S
H38 C54 0.942 . S
H39 C56 0.940 . S
H40 C57 0.939 . S
H41 C59 0.941 . S
H42 C63 0.939 . S
O43 P32 1.490 . S
H44 C60 0.939 . S
H45 C62 0.940 . S
C46 P32 1.812 . S
C46 C47 1.389 . S
C46 C51 1.391 . S
C47 H33 0.941 . S
C47 C46 1.389 . S
C47 C48 1.397 . S
C48 H34 0.939 . S
C48 C47 1.397 . S
C48 C49 1.378 . S
C49 C48 1.378 . S
C49 C50 1.378 . S
C50 H35 0.940 . S
C50 C49 1.378 . S
C50 C51 1.396 . S
C51 H36 0.940 . S
C51 C46 1.391 . S
C51 C50 1.396 . S
C52 P32 1.803 . S
C52 C53 1.378 . S
C52 C57 1.400 . S
C53 H37 0.939 . S
C53 C52 1.378 . S
C53 C54 1.361 . S
C54 H38 0.942 . S
C54 C53 1.361 . S
C54 C55 1.369 . S
C55 C54 1.369 . S
C55 C56 1.404 . S
C56 H39 0.940 . S
C56 C55 1.404 . S
C56 C57 1.389 . S
C57 H40 0.939 . S
C57 C52 1.400 . S
C57 C56 1.389 . S
C58 P32 1.819 . S
C58 C59 1.391 . S
C58 C63 1.391 . S
C59 H41 0.941 . S
C59 C58 1.391 . S
C59 C60 1.396 . S
C60 H44 0.939 . S
C60 C59 1.396 . S
C60 C61 1.397 . S
C61 C60 1.397 . S
C61 C62 1.385 . S
C62 H45 0.940 . S
C62 C61 1.385 . S
C62 C63 1.388 . S
C63 H42 0.939 . S
C63 C58 1.391 . S
C63 C62 1.388 . S
P64 O75 1.490 . S
P64 C78 1.812 . S
P64 C84 1.803 . S
P64 C90 1.819 . S
H65 C79 0.941 . S
H66 C80 0.939 . S
H67 C82 0.940 . S
H68 C83 0.940 . S
H69 C85 0.939 . S
H70 C86 0.942 . S
H71 C88 0.940 . S
H72 C89 0.939 . S
H73 C91 0.941 . S
H74 C95 0.939 . S
O75 P64 1.490 . S
H76 C92 0.939 . S
H77 C94 0.940 . S
C78 P64 1.812 . S
C78 C79 1.389 . S
C78 C83 1.391 . S
C79 H65 0.941 . S
C79 C78 1.389 . S
C79 C80 1.397 . S
C80 H66 0.939 . S
C80 C79 1.397 . S
C80 C81 1.378 . S
C81 C80 1.378 . S
C81 C82 1.378 . S
C82 H67 0.940 . S
C82 C81 1.378 . S
C82 C83 1.396 . S
C83 H68 0.940 . S
C83 C78 1.391 . S
C83 C82 1.396 . S
C84 P64 1.803 . S
C84 C85 1.378 . S
C84 C89 1.400 . S
C85 H69 0.939 . S
C85 C84 1.378 . S
C85 C86 1.361 . S
C86 H70 0.942 . S
C86 C85 1.361 . S
C86 C87 1.369 . S
C87 C86 1.369 . S
C87 C88 1.404 . S
C88 H71 0.940 . S
C88 C87 1.404 . S
C88 C89 1.389 . S
C89 H72 0.939 . S
C89 C84 1.400 . S
C89 C88 1.389 . S
C90 P64 1.819 . S
C90 C91 1.391 . S
C90 C95 1.391 . S
C91 H73 0.941 . S
C91 C90 1.391 . S
C91 C92 1.396 . S
C92 H76 0.939 . S
C92 C91 1.396 . S
C92 C93 1.397 . S
C93 C92 1.397 . S
C93 C94 1.385 . S
C94 H77 0.940 . S
C94 C93 1.385 . S
C94 C95 1.388 . S
C95 H74 0.939 . S
C95 C90 1.391 . S
C95 C94 1.388 . S
P96 O107 1.490 . S
P96 C110 1.812 . S
P96 C116 1.803 . S
P96 C122 1.819 . S
H97 C111 0.941 . S
H98 C112 0.939 . S
H99 C114 0.940 . S
H100 C115 0.940 . S
H101 C117 0.939 . S
H102 C118 0.942 . S
H103 C120 0.940 . S
H104 C121 0.939 . S
H105 C123 0.941 . S
H106 C127 0.939 . S
O107 P96 1.490 . S
H108 C124 0.939 . S
H109 C126 0.940 . S
C110 P96 1.812 . S
C110 C111 1.389 . S
C110 C115 1.391 . S
C111 H97 0.941 . S
C111 C110 1.389 . S
C111 C112 1.397 . S
C112 H98 0.939 . S
C112 C111 1.397 . S
C112 C113 1.378 . S
C113 C112 1.378 . S
C113 C114 1.378 . S
C114 H99 0.940 . S
C114 C113 1.378 . S
C114 C115 1.396 . S
C115 H100 0.940 . S
C115 C110 1.391 . S
C115 C114 1.396 . S
C116 P96 1.803 . S
C116 C117 1.378 . S
C116 C121 1.400 . S
C117 H101 0.939 . S
C117 C116 1.378 . S
C117 C118 1.361 . S
C118 H102 0.942 . S
C118 C117 1.361 . S
C118 C119 1.369 . S
C119 C118 1.369 . S
C119 C120 1.404 . S
C120 H103 0.940 . S
C120 C119 1.404 . S
C120 C121 1.389 . S
C121 H104 0.939 . S
C121 C116 1.400 . S
C121 C120 1.389 . S
C122 P96 1.819 . S
C122 C123 1.391 . S
C122 C127 1.391 . S
C123 H105 0.941 . S
C123 C122 1.391 . S
C123 C124 1.396 . S
C124 H108 0.939 . S
C124 C123 1.396 . S
C124 C125 1.397 . S
C125 C124 1.397 . S
C125 C126 1.385 . S
C126 H109 0.940 . S
C126 C125 1.385 . S
C126 C127 1.388 . S
C127 H106 0.939 . S
C127 C122 1.391 . S
C127 C126 1.388 . S
P128 O139 1.490 . S
P128 C142 1.812 . S
P128 C148 1.803 . S
P128 C154 1.819 . S
H129 C143 0.941 . S
H130 C144 0.939 . S
H131 C146 0.940 . S
H132 C147 0.940 . S
H133 C149 0.939 . S
H134 C150 0.942 . S
H135 C152 0.940 . S
H136 C153 0.939 . S
H137 C155 0.941 . S
H138 C159 0.939 . S
O139 P128 1.490 . S
H140 C156 0.939 . S
H141 C158 0.940 . S
C142 P128 1.812 . S
C142 C143 1.389 . S
C142 C147 1.391 . S
C143 H129 0.941 . S
C143 C142 1.389 . S
C143 C144 1.397 . S
C144 H130 0.939 . S
C144 C143 1.397 . S
C144 C145 1.378 . S
C145 C144 1.378 . S
C145 C146 1.378 . S
C146 H131 0.940 . S
C146 C145 1.378 . S
C146 C147 1.396 . S
C147 H132 0.940 . S
C147 C142 1.391 . S
C147 C146 1.396 . S
C148 P128 1.803 . S
C148 C149 1.378 . S
C148 C153 1.400 . S
C149 H133 0.939 . S
C149 C148 1.378 . S
C149 C150 1.361 . S
C150 H134 0.942 . S
C150 C149 1.361 . S
C150 C151 1.369 . S
C151 C150 1.369 . S
C151 C152 1.404 . S
C152 H135 0.940 . S
C152 C151 1.404 . S
C152 C153 1.389 . S
C153 H136 0.939 . S
C153 C148 1.400 . S
C153 C152 1.389 . S
C154 P128 1.819 . S
C154 C155 1.391 . S
C154 C159 1.391 . S
C155 H137 0.941 . S
C155 C154 1.391 . S
C155 C156 1.396 . S
C156 H140 0.939 . S
C156 C155 1.396 . S
C156 C157 1.397 . S
C157 C156 1.397 . S
C157 C158 1.385 . S
C158 H141 0.940 . S
C158 C157 1.385 . S
C158 C159 1.388 . S
C159 H138 0.939 . S
C159 C154 1.391 . S
C159 C158 1.388 . S
P160 O171 1.490 . S
P160 C174 1.812 . S
P160 C180 1.803 . S
P160 C186 1.819 . S
H161 C175 0.941 . S
H162 C176 0.939 . S
H163 C178 0.940 . S
H164 C179 0.940 . S
H165 C181 0.939 . S
H166 C182 0.942 . S
H167 C184 0.940 . S
H168 C185 0.939 . S
H169 C187 0.941 . S
H170 C191 0.939 . S
O171 P160 1.490 . S
H172 C188 0.939 . S
H173 C190 0.940 . S
C174 P160 1.812 . S
C174 C175 1.389 . S
C174 C179 1.391 . S
C175 H161 0.941 . S
C175 C174 1.389 . S
C175 C176 1.397 . S
C176 H162 0.939 . S
C176 C175 1.397 . S
C176 C177 1.378 . S
C177 C176 1.378 . S
C177 C178 1.378 . S
C178 H163 0.940 . S
C178 C177 1.378 . S
C178 C179 1.396 . S
C179 H164 0.940 . S
C179 C174 1.391 . S
C179 C178 1.396 . S
C180 P160 1.803 . S
C180 C181 1.378 . S
C180 C185 1.400 . S
C181 H165 0.939 . S
C181 C180 1.378 . S
C181 C182 1.361 . S
C182 H166 0.942 . S
C182 C181 1.361 . S
C182 C183 1.369 . S
C183 C182 1.369 . S
C183 C184 1.404 . S
C184 H167 0.940 . S
C184 C183 1.404 . S
C184 C185 1.389 . S
C185 H168 0.939 . S
C185 C180 1.400 . S
C185 C184 1.389 . S
C186 P160 1.819 . S
C186 C187 1.391 . S
C186 C191 1.391 . S
C187 H169 0.941 . S
C187 C186 1.391 . S
C187 C188 1.396 . S
C188 H172 0.939 . S
C188 C187 1.396 . S
C188 C189 1.397 . S
C189 C188 1.397 . S
C189 C190 1.385 . S
C190 H173 0.940 . S
C190 C189 1.385 . S
C190 C191 1.388 . S
C191 H170 0.939 . S
C191 C186 1.391 . S
C191 C190 1.388 . S
P192 O203 1.490 . S
P192 C206 1.812 . S
P192 C212 1.803 . S
P192 C218 1.819 . S
H193 C207 0.941 . S
H194 C208 0.939 . S
H195 C210 0.940 . S
H196 C211 0.940 . S
H197 C213 0.939 . S
H198 C214 0.942 . S
H199 C216 0.940 . S
H200 C217 0.939 . S
H201 C219 0.941 . S
H202 C223 0.939 . S
O203 P192 1.490 . S
H204 C220 0.939 . S
H205 C222 0.940 . S
C206 P192 1.812 . S
C206 C207 1.389 . S
C206 C211 1.391 . S
C207 H193 0.941 . S
C207 C206 1.389 . S
C207 C208 1.397 . S
C208 H194 0.939 . S
C208 C207 1.397 . S
C208 C209 1.378 . S
C209 C208 1.378 . S
C209 C210 1.378 . S
C210 H195 0.940 . S
C210 C209 1.378 . S
C210 C211 1.396 . S
C211 H196 0.940 . S
C211 C206 1.391 . S
C211 C210 1.396 . S
C212 P192 1.803 . S
C212 C213 1.378 . S
C212 C217 1.400 . S
C213 H197 0.939 . S
C213 C212 1.378 . S
C213 C214 1.361 . S
C214 H198 0.942 . S
C214 C213 1.361 . S
C214 C215 1.369 . S
C215 C214 1.369 . S
C215 C216 1.404 . S
C216 H199 0.940 . S
C216 C215 1.404 . S
C216 C217 1.389 . S
C217 H200 0.939 . S
C217 C212 1.400 . S
C217 C216 1.389 . S
C218 P192 1.819 . S
C218 C219 1.391 . S
C218 C223 1.391 . S
C219 H201 0.941 . S
C219 C218 1.391 . S
C219 C220 1.396 . S
C220 H204 0.939 . S
C220 C219 1.396 . S
C220 C221 1.397 . S
C221 C220 1.397 . S
C221 C222 1.385 . S
C222 H205 0.940 . S
C222 C221 1.385 . S
C222 C223 1.388 . S
C223 H202 0.939 . S
C223 C218 1.391 . S
C223 C222 1.388 . S
P224 O235 1.490 . S
P224 C238 1.812 . S
P224 C244 1.803 . S
P224 C250 1.819 . S
H225 C239 0.941 . S
H226 C240 0.939 . S
H227 C242 0.940 . S
H228 C243 0.940 . S
H229 C245 0.939 . S
H230 C246 0.942 . S
H231 C248 0.940 . S
H232 C249 0.939 . S
H233 C251 0.941 . S
H234 C255 0.939 . S
O235 P224 1.490 . S
H236 C252 0.939 . S
H237 C254 0.940 . S
C238 P224 1.812 . S
C238 C239 1.389 . S
C238 C243 1.391 . S
C239 H225 0.941 . S
C239 C238 1.389 . S
C239 C240 1.397 . S
C240 H226 0.939 . S
C240 C239 1.397 . S
C240 C241 1.378 . S
C241 C240 1.378 . S
C241 C242 1.378 . S
C242 H227 0.940 . S
C242 C241 1.378 . S
C242 C243 1.396 . S
C243 H228 0.940 . S
C243 C238 1.391 . S
C243 C242 1.396 . S
C244 P224 1.803 . S
C244 C245 1.378 . S
C244 C249 1.400 . S
C245 H229 0.939 . S
C245 C244 1.378 . S
C245 C246 1.361 . S
C246 H230 0.942 . S
C246 C245 1.361 . S
C246 C247 1.369 . S
C247 C246 1.369 . S
C247 C248 1.404 . S
C248 H231 0.940 . S
C248 C247 1.404 . S
C248 C249 1.389 . S
C249 H232 0.939 . S
C249 C244 1.400 . S
C249 C248 1.389 . S
C250 P224 1.819 . S
C250 C251 1.391 . S
C250 C255 1.391 . S
C251 H233 0.941 . S
C251 C250 1.391 . S
C251 C252 1.396 . S
C252 H236 0.939 . S
C252 C251 1.396 . S
C252 C253 1.397 . S
C253 C252 1.397 . S
C253 C254 1.385 . S
C254 H237 0.940 . S
C254 C253 1.385 . S
C254 C255 1.388 . S
C255 H234 0.939 . S
C255 C250 1.391 . S
C255 C254 1.388 . S
C256 C257 1.443 . S
C256 N260 1.376 . S
C256 C294 1.389 . S
C257 C256 1.443 . S
C257 C258 1.340 . S
C257 H297 0.951 . S
C258 C257 1.340 . S
C258 C259 1.439 . S
C258 H298 0.950 . S
C259 C258 1.439 . S
C259 N260 1.374 . S
C259 C293 1.395 . S
N260 C256 1.376 . S
N260 C259 1.374 . S
N260 Co261 2.008 . S
Co261 N260 2.008 . S
Co261 N262 1.995 . S
Co261 N267 2.008 . S
Co261 N272 1.995 . S
Co261 N277 2.282 . S
Co261 N283 2.282 1_455 S
N262 Co261 1.995 . S
N262 C263 1.376 . S
N262 C266 1.383 1_455 S
C263 N262 1.376 . S
C263 C264 1.446 1_455 S
C263 C293 1.391 . S
C264 C263 1.446 1_655 S
C264 C265 1.339 . S
C264 H299 0.949 . S
C265 C264 1.339 . S
C265 C266 1.439 . S
C265 H300 0.950 . S
C266 N262 1.383 1_655 S
C266 C265 1.439 . S
C266 C295 1.392 . S
N267 Co261 2.008 . S
N267 C268 1.376 1_455 S
N267 C271 1.374 . S
C268 N267 1.376 1_655 S
C268 C269 1.443 . S
C268 C295 1.389 . S
C269 C268 1.443 . S
C269 C270 1.340 1_655 S
C269 H301 0.951 . S
C270 C269 1.340 1_455 S
C270 C271 1.439 . S
C270 H302 0.950 . S
C271 N267 1.374 . S
C271 C270 1.439 . S
C271 C296 1.395 . S
N272 Co261 1.995 . S
N272 C273 1.376 . S
N272 C276 1.383 . S
C273 N272 1.376 . S
C273 C274 1.446 . S
C273 C296 1.391 . S
C274 C273 1.446 . S
C274 C275 1.339 . S
C274 H303 0.949 . S
C275 C274 1.339 . S
C275 C276 1.439 . S
C275 H304 0.950 . S
C276 N272 1.383 . S
C276 C275 1.439 . S
C276 C294 1.392 . S
N277 Co261 2.282 . S
N277 C280 1.332 . S
N277 C282 1.332 . S
C278 C279 1.386 . S
C278 C281 1.388 . S
C279 C278 1.386 . S
C279 C280 1.382 . S
C279 H305 0.950 . S
C280 N277 1.332 . S
C280 C279 1.382 . S
C280 H291 0.952 . S
C281 C278 1.388 . S
C281 C282 1.382 . S
C281 H306 0.950 . S
C282 N277 1.332 . S
C282 C281 1.382 . S
C282 H292 0.948 . S
N283 Co261 2.282 1_655 S
N283 C287 1.332 . S
N283 C288 1.332 . S
C284 C285 1.388 . S
C284 C288 1.382 . S
C284 H307 0.950 . S
C285 C284 1.388 . S
C285 C286 1.386 . S
C286 C285 1.386 . S
C286 C287 1.382 . S
C286 H308 0.950 . S
C287 N283 1.332 . S
C287 C286 1.382 . S
C287 H289 0.952 . S
C288 N283 1.332 . S
C288 C284 1.382 . S
C288 H290 0.948 1_655 S
H289 C287 0.952 . S
H290 C288 0.948 1_455 S
H291 C280 0.952 . S
H292 C282 0.948 . S
C293 C259 1.395 . S
C293 C263 1.391 . S
C294 C256 1.389 . S
C294 C276 1.392 . S
C295 C266 1.392 . S
C295 C268 1.389 . S
C296 C271 1.395 . S
C296 C273 1.391 . S
H297 C257 0.951 . S
H298 C258 0.950 . S
H299 C264 0.949 . S
H300 C265 0.950 . S
H301 C269 0.951 . S
H302 C270 0.950 . S
H303 C274 0.949 . S
H304 C275 0.950 . S
H305 C279 0.950 . S
H306 C281 0.950 . S
H307 C284 0.950 . S
H308 C286 0.950 . S
C309 C310 1.443 . S
C309 N313 1.376 . S
C309 C347 1.389 . S
C310 C309 1.443 . S
C310 C311 1.340 . S
C310 H350 0.951 . S
C311 C310 1.340 . S
C311 C312 1.439 . S
C311 H351 0.950 . S
C312 C311 1.439 . S
C312 N313 1.374 . S
C312 C346 1.395 . S
N313 C309 1.376 . S
N313 C312 1.374 . S
N313 Co314 2.008 . S
Co314 N313 2.008 . S
Co314 N315 1.995 1_455 S
Co314 N320 2.008 1_455 S
Co314 N325 1.995 . S
Co314 N330 2.282 . S
Co314 N336 2.282 1_455 S
N315 Co314 1.995 1_655 S
N315 C316 1.376 . S
N315 C319 1.383 . S
C316 N315 1.376 . S
C316 C317 1.446 . S
C316 C346 1.391 1_655 S
C317 C316 1.446 . S
C317 C318 1.339 . S
C317 H352 0.949 . S
C318 C317 1.339 . S
C318 C319 1.439 . S
C318 H353 0.950 . S
C319 N315 1.383 . S
C319 C318 1.439 . S
C319 C348 1.392 . S
N320 Co314 2.008 1_655 S
N320 C321 1.376 . S
N320 C324 1.374 . S
C321 N320 1.376 . S
C321 C322 1.443 . S
C321 C348 1.389 . S
C322 C321 1.443 . S
C322 C323 1.340 . S
C322 H354 0.951 . S
C323 C322 1.340 . S
C323 C324 1.439 . S
C323 H355 0.950 . S
C324 N320 1.374 . S
C324 C323 1.439 . S
C324 C349 1.395 1_655 S
N325 Co314 1.995 . S
N325 C326 1.376 . S
N325 C329 1.383 . S
C326 N325 1.376 . S
C326 C327 1.446 . S
C326 C349 1.391 . S
C327 C326 1.446 . S
C327 C328 1.339 . S
C327 H356 0.949 . S
C328 C327 1.339 . S
C328 C329 1.439 . S
C328 H357 0.950 . S
C329 N325 1.383 . S
C329 C328 1.439 . S
C329 C347 1.392 . S
N330 Co314 2.282 . S
N330 C333 1.332 . S
N330 C335 1.332 . S
C331 C332 1.386 . S
C331 C334 1.388 . S
C332 C331 1.386 . S
C332 C333 1.382 . S
C332 H358 0.950 . S
C333 N330 1.332 . S
C333 C332 1.382 . S
C333 H344 0.952 . S
C334 C331 1.388 . S
C334 C335 1.382 . S
C334 H359 0.950 . S
C335 N330 1.332 . S
C335 C334 1.382 . S
C335 H345 0.948 . S
N336 Co314 2.282 1_655 S
N336 C340 1.332 . S
N336 C341 1.332 . S
C337 C338 1.388 . S
C337 C341 1.382 . S
C337 H360 0.950 . S
C338 C337 1.388 . S
C338 C339 1.386 . S
C339 C338 1.386 . S
C339 C340 1.382 . S
C339 H361 0.950 . S
C340 N336 1.332 . S
C340 C339 1.382 . S
C340 H342 0.952 . S
C341 N336 1.332 . S
C341 C337 1.382 . S
C341 H343 0.948 . S
H342 C340 0.952 . S
H343 C341 0.948 . S
H344 C333 0.952 . S
H345 C335 0.948 . S
C346 C312 1.395 . S
C346 C316 1.391 1_455 S
C347 C309 1.389 . S
C347 C329 1.392 . S
C348 C319 1.392 . S
C348 C321 1.389 . S
C349 C324 1.395 1_455 S
C349 C326 1.391 . S
H350 C310 0.951 . S
H351 C311 0.950 . S
H352 C317 0.949 . S
H353 C318 0.950 . S
H354 C322 0.951 . S
H355 C323 0.950 . S
H356 C327 0.949 . S
H357 C328 0.950 . S
H358 C332 0.950 . S
H359 C334 0.950 . S
H360 C337 0.950 . S
H361 C339 0.950 . S
C362 C363 1.443 . S
C362 N366 1.376 . S
C362 C400 1.389 . S
C363 C362 1.443 . S
C363 C364 1.340 . S
C363 H403 0.951 . S
C364 C363 1.340 . S
C364 C365 1.475 . S
C364 H404 0.950 . S
C365 C364 1.475 . S
C365 N366 1.374 . S
C365 C399 1.367 1_565 S
N366 C362 1.376 . S
N366 C365 1.374 . S
N366 Co367 2.008 1_565 S
Co367 N366 2.008 1_545 S
Co367 N368 1.995 . S
Co367 N373 2.008 . S
Co367 N378 1.995 1_545 S
Co367 N383 2.282 . S
Co367 N389 2.282 1_545 S
N368 Co367 1.995 . S
N368 C369 1.376 . S
N368 C372 1.383 . S
C369 N368 1.376 . S
C369 C370 1.446 . S
C369 C399 1.391 . S
C370 C369 1.446 . S
C370 C371 1.339 . S
C370 H405 0.949 . S
C371 C370 1.339 . S
C371 C372 1.439 . S
C371 H406 0.950 . S
C372 N368 1.383 . S
C372 C371 1.439 . S
C372 C401 1.392 . S
N373 Co367 2.008 . S
N373 C374 1.376 . S
N373 C377 1.374 . S
C374 N373 1.376 . S
C374 C375 1.443 . S
C374 C401 1.389 . S
C375 C374 1.443 . S
C375 C376 1.340 . S
C375 H407 0.951 . S
C376 C375 1.340 . S
C376 C377 1.439 . S
C376 H408 0.950 . S
C377 N373 1.374 . S
C377 C376 1.439 . S
C377 C402 1.395 . S
N378 Co367 1.995 1_565 S
N378 C379 1.376 . S
N378 C382 1.383 . S
C379 N378 1.376 . S
C379 C380 1.446 . S
C379 C402 1.391 1_565 S
C380 C379 1.446 . S
C380 C381 1.339 . S
C380 H409 0.949 . S
C381 C380 1.339 . S
C381 C382 1.439 . S
C381 H410 0.950 . S
C382 N378 1.383 . S
C382 C381 1.439 . S
C382 C400 1.392 . S
N383 Co367 2.282 . S
N383 C386 1.332 . S
N383 C388 1.332 . S
C384 C385 1.386 . S
C384 C387 1.388 . S
C385 C384 1.386 . S
C385 C386 1.382 . S
C385 H411 0.950 . S
C386 N383 1.332 . S
C386 C385 1.382 . S
C386 H397 0.952 . S
C387 C384 1.388 . S
C387 C388 1.382 . S
C387 H412 0.950 . S
C388 N383 1.332 . S
C388 C387 1.382 . S
C388 H398 0.948 . S
N389 Co367 2.282 1_565 S
N389 C393 1.332 . S
N389 C394 1.332 . S
C390 C391 1.388 . S
C390 C394 1.382 . S
C390 H413 0.950 . S
C391 C390 1.388 . S
C391 C392 1.386 . S
C392 C391 1.386 . S
C392 C393 1.382 . S
C392 H414 0.950 . S
C393 N389 1.332 . S
C393 C392 1.382 . S
C393 H395 0.952 . S
C394 N389 1.332 . S
C394 C390 1.382 . S
C394 H396 0.948 . S
H395 C393 0.952 . S
H396 C394 0.948 . S
H397 C386 0.952 . S
H398 C388 0.948 . S
C399 C365 1.367 1_545 S
C399 C369 1.391 . S
C400 C362 1.389 . S
C400 C382 1.392 . S
C401 C372 1.392 . S
C401 C374 1.389 . S
C402 C377 1.395 . S
C402 C379 1.391 1_545 S
H403 C363 0.951 . S
H404 C364 0.950 . S
H405 C370 0.949 . S
H406 C371 0.950 . S
H407 C375 0.951 . S
H408 C376 0.950 . S
H409 C380 0.949 . S
H410 C381 0.950 . S
H411 C385 0.950 . S
H412 C387 0.950 . S
H413 C390 0.950 . S
H414 C392 0.950 . S
C415 C416 1.443 . S
C415 N419 1.376 . S
C415 C453 1.389 . S
C416 C415 1.443 . S
C416 C417 1.340 . S
C416 H456 0.951 . S
C417 C416 1.340 . S
C417 C418 1.439 . S
C417 H457 0.950 . S
C418 C417 1.439 . S
C418 N419 1.374 . S
C418 C452 1.395 . S
N419 C415 1.376 . S
N419 C418 1.374 . S
N419 Co420 2.008 . S
Co420 N419 2.008 . S
Co420 N421 2.004 . S
Co420 N426 2.010 1_554 S
Co420 N431 1.995 . S
Co420 N436 2.282 1_554 S
Co420 N442 2.282 . S
N421 Co420 2.004 . S
N421 C422 1.379 . S
N421 C425 1.367 1_554 S
C422 N421 1.379 . S
C422 C423 1.446 1_554 S
C422 C452 1.391 . S
C423 C422 1.446 1_556 S
C423 C424 1.339 . S
C423 H458 0.949 . S
C424 C423 1.339 . S
C424 C425 1.439 . S
C424 H459 0.950 . S
C425 N421 1.367 1_556 S
C425 C424 1.439 . S
C425 C454 1.392 . S
N426 Co420 2.010 1_556 S
N426 C427 1.374 . S
N426 C430 1.374 1_556 S
C427 N426 1.374 . S
C427 C428 1.443 . S
C427 C454 1.389 . S
C428 C427 1.443 . S
C428 C429 1.340 . S
C428 H460 0.951 . S
C429 C428 1.340 . S
C429 C430 1.439 1_556 S
C429 H461 0.950 . S
C430 N426 1.374 1_554 S
C430 C429 1.439 1_554 S
C430 C455 1.395 . S
N431 Co420 1.995 . S
N431 C432 1.376 . S
N431 C435 1.383 . S
C432 N431 1.376 . S
C432 C433 1.446 . S
C432 C455 1.391 . S
C433 C432 1.446 . S
C433 C434 1.339 . S
C433 H462 0.949 . S
C434 C433 1.339 . S
C434 C435 1.439 . S
C434 H463 0.950 . S
C435 N431 1.383 . S
C435 C434 1.439 . S
C435 C453 1.392 . S
N436 Co420 2.282 1_556 S
N436 C439 1.332 . S
N436 C441 1.332 . S
C437 C438 1.386 . S
C437 C440 1.388 . S
C438 C437 1.386 . S
C438 C439 1.382 . S
C438 H464 0.950 . S
C439 N436 1.332 . S
C439 C438 1.382 . S
C439 H450 0.952 . S
C440 C437 1.388 . S
C440 C441 1.382 . S
C440 H465 0.950 . S
C441 N436 1.332 . S
C441 C440 1.382 . S
C441 H451 0.948 . S
N442 Co420 2.282 . S
N442 C446 1.332 . S
N442 C447 1.332 . S
C443 C444 1.388 . S
C443 C447 1.382 . S
C443 H466 0.950 . S
C444 C443 1.388 . S
C444 C445 1.386 . S
C445 C444 1.386 . S
C445 C446 1.382 . S
C445 H467 0.950 . S
C446 N442 1.332 . S
C446 C445 1.382 . S
C446 H448 0.952 . S
C447 N442 1.332 . S
C447 C443 1.382 . S
C447 H449 0.948 . S
H448 C446 0.952 . S
H449 C447 0.948 . S
H450 C439 0.952 . S
H451 C441 0.948 . S
C452 C418 1.395 . S
C452 C422 1.391 . S
C453 C415 1.389 . S
C453 C435 1.392 . S
C454 C425 1.392 . S
C454 C427 1.389 . S
C455 C430 1.395 . S
C455 C432 1.391 . S
H456 C416 0.951 . S
H457 C417 0.950 . S
H458 C423 0.949 . S
H459 C424 0.950 . S
H460 C428 0.951 . S
H461 C429 0.950 . S
H462 C433 0.949 . S
H463 C434 0.950 . S
H464 C438 0.950 . S
H465 C440 0.950 . S
H466 C443 0.950 . S
H467 C445 0.950 . S
C468 C469 1.443 . S
C468 N472 1.376 . S
C468 C506 1.389 . S
C469 C468 1.443 . S
C469 C470 1.340 . S
C469 H509 0.951 . S
C470 C469 1.340 . S
C470 C471 1.439 . S
C470 H510 0.950 . S
C471 C470 1.439 . S
C471 N472 1.374 . S
C471 C505 1.395 1_565 S
N472 C468 1.376 . S
N472 C471 1.374 . S
N472 Co473 2.008 1_565 S
Co473 N472 2.008 1_545 S
Co473 N474 1.995 . S
Co473 N479 2.008 . S
Co473 N484 1.995 1_545 S
Co473 N489 2.282 . S
Co473 N495 2.282 1_545 S
N474 Co473 1.995 . S
N474 C475 1.376 . S
N474 C478 1.383 . S
C475 N474 1.376 . S
C475 C476 1.446 . S
C475 C505 1.391 . S
C476 C475 1.446 . S
C476 C477 1.339 . S
C476 H511 0.949 . S
C477 C476 1.339 . S
C477 C478 1.439 . S
C477 H512 0.950 . S
C478 N474 1.383 . S
C478 C477 1.439 . S
C478 C507 1.392 . S
N479 Co473 2.008 . S
N479 C480 1.376 . S
N479 C483 1.374 . S
C480 N479 1.376 . S
C480 C481 1.443 . S
C480 C507 1.389 . S
C481 C480 1.443 . S
C481 C482 1.340 . S
C481 H513 0.951 . S
C482 C481 1.340 . S
C482 C483 1.439 . S
C482 H514 0.950 . S
C483 N479 1.374 . S
C483 C482 1.439 . S
C483 C508 1.395 . S
N484 Co473 1.995 1_565 S
N484 C485 1.376 . S
N484 C488 1.383 . S
C485 N484 1.376 . S
C485 C486 1.446 . S
C485 C508 1.391 1_565 S
C486 C485 1.446 . S
C486 C487 1.339 . S
C486 H515 0.949 . S
C487 C486 1.339 . S
C487 C488 1.439 . S
C487 H516 0.950 . S
C488 N484 1.383 . S
C488 C487 1.439 . S
C488 C506 1.392 . S
N489 Co473 2.282 . S
N489 C492 1.332 . S
N489 C494 1.332 . S
C490 C491 1.386 . S
C490 C493 1.388 . S
C491 C490 1.386 . S
C491 C492 1.382 . S
C491 H517 0.950 . S
C492 N489 1.332 . S
C492 C491 1.382 . S
C492 H503 0.952 . S
C493 C490 1.388 . S
C493 C494 1.382 . S
C493 H518 0.950 . S
C494 N489 1.332 . S
C494 C493 1.382 . S
C494 H504 0.948 . S
N495 Co473 2.282 1_565 S
N495 C499 1.332 . S
N495 C500 1.332 . S
C496 C497 1.388 . S
C496 C500 1.382 . S
C496 H519 0.950 . S
C497 C496 1.388 . S
C497 C498 1.386 . S
C498 C497 1.386 . S
C498 C499 1.382 . S
C498 H520 0.950 . S
C499 N495 1.332 . S
C499 C498 1.382 . S
C499 H501 0.952 . S
C500 N495 1.332 . S
C500 C496 1.382 . S
C500 H502 0.948 . S
H501 C499 0.952 . S
H502 C500 0.948 . S
H503 C492 0.952 . S
H504 C494 0.948 . S
C505 C471 1.395 1_545 S
C505 C475 1.391 . S
C506 C468 1.389 . S
C506 C488 1.392 . S
C507 C478 1.392 . S
C507 C480 1.389 . S
C508 C483 1.395 . S
C508 C485 1.391 1_545 S
H509 C469 0.951 . S
H510 C470 0.950 . S
H511 C476 0.949 . S
H512 C477 0.950 . S
H513 C481 0.951 . S
H514 C482 0.950 . S
H515 C486 0.949 . S
H516 C487 0.950 . S
H517 C491 0.950 . S
H518 C493 0.950 . S
H519 C496 0.950 . S
H520 C498 0.950 . S
C521 C522 1.443 . S
C521 N525 1.376 . S
C521 C559 1.389 . S
C522 C521 1.443 . S
C522 C523 1.340 . S
C522 H562 0.951 . S
C523 C522 1.340 . S
C523 C524 1.439 . S
C523 H563 0.950 . S
C524 C523 1.439 . S
C524 N525 1.374 . S
C524 C558 1.395 . S
N525 C521 1.376 . S
N525 C524 1.374 . S
N525 Co526 2.008 . S
Co526 N525 2.008 . S
Co526 N527 1.995 . S
Co526 N532 2.008 . S
Co526 N537 1.995 . S
Co526 N542 2.282 . S
Co526 N548 2.282 . S
N527 Co526 1.995 . S
N527 C528 1.376 . S
N527 C531 1.383 1_554 S
C528 N527 1.376 . S
C528 C529 1.446 1_554 S
C528 C558 1.391 . S
C529 C528 1.446 1_556 S
C529 C530 1.339 . S
C529 H564 0.949 . S
C530 C529 1.339 . S
C530 C531 1.439 . S
C530 H565 0.950 . S
C531 N527 1.383 1_556 S
C531 C530 1.439 . S
C531 C560 1.392 . S
N532 Co526 2.008 . S
N532 C533 1.376 1_554 S
N532 C536 1.374 . S
C533 N532 1.376 1_556 S
C533 C534 1.443 . S
C533 C560 1.389 . S
C534 C533 1.443 . S
C534 C535 1.340 . S
C534 H566 0.951 . S
C535 C534 1.340 . S
C535 C536 1.439 1_556 S
C535 H567 0.950 . S
C536 N532 1.374 . S
C536 C535 1.439 1_554 S
C536 C561 1.395 . S
N537 Co526 1.995 . S
N537 C538 1.376 . S
N537 C541 1.383 . S
C538 N537 1.376 . S
C538 C539 1.446 . S
C538 C561 1.391 . S
C539 C538 1.446 . S
C539 C540 1.339 . S
C539 H568 0.949 . S
C540 C539 1.339 . S
C540 C541 1.439 . S
C540 H569 0.950 . S
C541 N537 1.383 . S
C541 C540 1.439 . S
C541 C559 1.392 . S
N542 Co526 2.282 . S
N542 C545 1.332 1_554 S
N542 C547 1.332 1_554 S
C543 C544 1.386 . S
C543 C546 1.388 . S
C544 C543 1.386 . S
C544 C545 1.382 . S
C544 H570 0.950 . S
C545 N542 1.332 1_556 S
C545 C544 1.382 . S
C545 H556 0.952 1_556 S
C546 C543 1.388 . S
C546 C547 1.382 . S
C546 H571 0.950 . S
C547 N542 1.332 1_556 S
C547 C546 1.382 . S
C547 H557 0.948 . S
N548 Co526 2.282 . S
N548 C552 1.332 . S
N548 C553 1.332 . S
C549 C550 1.388 . S
C549 C553 1.382 . S
C549 H572 0.950 . S
C550 C549 1.388 . S
C550 C551 1.386 . S
C551 C550 1.386 . S
C551 C552 1.382 . S
C551 H573 0.950 . S
C552 N548 1.332 . S
C552 C551 1.382 . S
C552 H554 0.952 . S
C553 N548 1.332 . S
C553 C549 1.382 . S
C553 H555 0.948 . S
H554 C552 0.952 . S
H555 C553 0.948 . S
H556 C545 0.952 1_554 S
H557 C547 0.948 . S
C558 C524 1.395 . S
C558 C528 1.391 . S
C559 C521 1.389 . S
C559 C541 1.392 . S
C560 C531 1.392 . S
C560 C533 1.389 . S
C561 C536 1.395 . S
C561 C538 1.391 . S
H562 C522 0.951 . S
H563 C523 0.950 . S
H564 C529 0.949 . S
H565 C530 0.950 . S
H566 C534 0.951 . S
H567 C535 0.950 . S
H568 C539 0.949 . S
H569 C540 0.950 . S
H570 C544 0.950 . S
H571 C546 0.950 . S
H572 C549 0.950 . S
H573 C551 0.950 . S
H574 C580 0.930 . S
H575 C583 0.930 . S
H576 C584 0.930 . S
H577 C585 0.930 . S
H578 C588 0.930 . S
H579 C589 0.930 . S
C580 H574 0.930 . S
C580 C581 1.355 . S
C580 C582 1.415 . S
C581 C580 1.355 . S
C581 C583 1.419 . S
C582 C580 1.415 . S
C582 C587 1.425 . S
C582 C589 1.409 . S
C583 H575 0.930 . S
C583 C581 1.419 . S
C583 C584 1.362 . S
C584 H576 0.930 . S
C584 C583 1.362 . S
C584 C587 1.409 . S
C585 H577 0.930 . S
C585 C586 1.355 . S
C585 C587 1.415 . S
C586 C585 1.355 . S
C586 C588 1.419 . S
C587 C582 1.425 . S
C587 C584 1.409 . S
C587 C585 1.415 . S
C588 H578 0.930 . S
C588 C586 1.419 . S
C588 C589 1.362 . S
C589 H579 0.930 . S
C589 C582 1.409 . S
C589 C588 1.362 . S
H590 C596 0.930 . S
H591 C599 0.930 . S
H592 C600 0.930 . S
H593 C601 0.930 . S
H594 C604 0.930 . S
H595 C605 0.930 . S
C596 H590 0.930 . S
C596 C597 1.355 . S
C596 C598 1.415 . S
C597 C596 1.355 . S
C597 C599 1.419 . S
C598 C596 1.415 . S
C598 C603 1.425 . S
C598 C605 1.409 . S
C599 H591 0.930 . S
C599 C597 1.419 . S
C599 C600 1.362 . S
C600 H592 0.930 . S
C600 C599 1.362 . S
C600 C603 1.409 . S
C601 H593 0.930 . S
C601 C602 1.355 . S
C601 C603 1.415 . S
C602 C601 1.355 . S
C602 C604 1.419 . S
C603 C598 1.425 . S
C603 C600 1.409 . S
C603 C601 1.415 . S
C604 H594 0.930 . S
C604 C602 1.419 . S
C604 C605 1.362 . S
C605 H595 0.930 . S
C605 C598 1.409 . S
C605 C604 1.362 . S
H606 C612 0.930 . S
H607 C615 0.930 . S
H608 C616 0.930 . S
H609 C617 0.930 . S
H610 C620 0.930 . S
H611 C621 0.930 . S
C612 H606 0.930 . S
C612 C613 1.355 . S
C612 C614 1.415 . S
C613 C612 1.355 . S
C613 C615 1.419 . S
C614 C612 1.415 . S
C614 C619 1.425 . S
C614 C621 1.409 . S
C615 H607 0.930 . S
C615 C613 1.419 . S
C615 C616 1.362 . S
C616 H608 0.930 . S
C616 C615 1.362 . S
C616 C619 1.409 . S
C617 H609 0.930 . S
C617 C618 1.355 . S
C617 C619 1.415 . S
C618 C617 1.355 . S
C618 C620 1.419 . S
C619 C614 1.425 . S
C619 C616 1.409 . S
C619 C617 1.415 . S
C620 H610 0.930 . S
C620 C618 1.419 . S
C620 C621 1.362 . S
C621 H611 0.930 . S
C621 C614 1.409 . S
C621 C620 1.362 . S
H622 C628 0.930 . S
H623 C631 0.930 . S
H624 C632 0.930 . S
H625 C633 0.930 . S
H626 C636 0.930 . S
H627 C637 0.930 . S
C628 H622 0.930 . S
C628 C629 1.355 . S
C628 C630 1.415 . S
C629 C628 1.355 . S
C629 C631 1.419 . S
C630 C628 1.415 . S
C630 C635 1.425 . S
C630 C637 1.409 . S
C631 H623 0.930 . S
C631 C629 1.419 . S
C631 C632 1.362 . S
C632 H624 0.930 . S
C632 C631 1.362 . S
C632 C635 1.409 . S
C633 H625 0.930 . S
C633 C634 1.355 . S
C633 C635 1.415 . S
C634 C633 1.355 . S
C634 C636 1.419 . S
C635 C630 1.425 . S
C635 C632 1.409 . S
C635 C633 1.415 . S
C636 H626 0.930 . S
C636 C634 1.419 . S
C636 C637 1.362 . S
C637 H627 0.930 . S
C637 C630 1.409 . S
C637 C636 1.362 . S
H638 C644 0.930 . S
H639 C647 0.930 . S
H640 C648 0.930 . S
H641 C649 0.930 . S
H642 C652 0.930 . S
H643 C653 0.930 . S
C644 H638 0.930 . S
C644 C645 1.355 . S
C644 C646 1.415 . S
C645 C644 1.355 . S
C645 C647 1.419 . S
C646 C644 1.415 . S
C646 C651 1.425 . S
C646 C653 1.409 . S
C647 H639 0.930 . S
C647 C645 1.419 . S
C647 C648 1.362 . S
C648 H640 0.930 . S
C648 C647 1.362 . S
C648 C651 1.409 . S
C649 H641 0.930 . S
C649 C650 1.355 . S
C649 C651 1.415 . S
C650 C649 1.355 . S
C650 C652 1.419 . S
C651 C646 1.425 . S
C651 C648 1.409 . S
C651 C649 1.415 . S
C652 H642 0.930 . S
C652 C650 1.419 . S
C652 C653 1.362 . S
C653 H643 0.930 . S
C653 C646 1.409 . S
C653 C652 1.362 . S
H654 C660 0.930 . S
H655 C663 0.930 . S
H656 C664 0.930 . S
H657 C665 0.930 . S
H658 C668 0.930 . S
H659 C669 0.930 . S
C660 H654 0.930 . S
C660 C661 1.355 . S
C660 C662 1.415 . S
C661 C660 1.355 . S
C661 C663 1.419 . S
C662 C660 1.415 . S
C662 C667 1.425 . S
C662 C669 1.409 . S
C663 H655 0.930 . S
C663 C661 1.419 . S
C663 C664 1.362 . S
C664 H656 0.930 . S
C664 C663 1.362 . S
C664 C667 1.409 . S
C665 H657 0.930 . S
C665 C666 1.355 . S
C665 C667 1.415 . S
C666 C665 1.355 . S
C666 C668 1.419 . S
C667 C662 1.425 . S
C667 C664 1.409 . S
C667 C665 1.415 . S
C668 H658 0.930 . S
C668 C666 1.419 . S
C668 C669 1.362 . S
C669 H659 0.930 . S
C669 C662 1.409 . S
C669 C668 1.362 . S
H670 C676 0.930 . S
H671 C679 0.930 . S
H672 C680 0.930 . S
H673 C681 0.930 . S
H674 C684 0.930 . S
H675 C685 0.930 . S
C676 H670 0.930 . S
C676 C677 1.355 . S
C676 C678 1.415 . S
C677 C676 1.355 . S
C677 C679 1.419 . S
C678 C676 1.415 . S
C678 C683 1.425 . S
C678 C685 1.409 . S
C679 H671 0.930 . S
C679 C677 1.419 . S
C679 C680 1.362 . S
C680 H672 0.930 . S
C680 C679 1.362 . S
C680 C683 1.409 . S
C681 H673 0.930 . S
C681 C682 1.355 . S
C681 C683 1.415 . S
C682 C681 1.355 . S
C682 C684 1.419 . S
C683 C678 1.425 . S
C683 C680 1.409 . S
C683 C681 1.415 . S
C684 H674 0.930 . S
C684 C682 1.419 . S
C684 C685 1.362 . S
C685 H675 0.930 . S
C685 C678 1.409 . S
C685 C684 1.362 . S
H686 C692 0.930 . S
H687 C695 0.930 . S
H688 C696 0.930 . S
H689 C697 0.930 . S
H690 C700 0.930 . S
H691 C701 0.930 . S
C692 H686 0.930 . S
C692 C693 1.355 . S
C692 C694 1.415 . S
C693 C692 1.355 . S
C693 C695 1.419 . S
C694 C692 1.415 . S
C694 C699 1.425 . S
C694 C701 1.409 . S
C695 H687 0.930 . S
C695 C693 1.419 . S
C695 C696 1.362 . S
C696 H688 0.930 . S
C696 C695 1.362 . S
C696 C699 1.409 . S
C697 H689 0.930 . S
C697 C698 1.355 . S
C697 C699 1.415 . S
C698 C697 1.355 . S
C698 C700 1.419 . S
C699 C694 1.425 . S
C699 C696 1.409 . S
C699 C697 1.415 . S
C700 H690 0.930 . S
C700 C698 1.419 . S
C700 C701 1.362 . S
C701 H691 0.930 . S
C701 C694 1.409 . S
C701 C700 1.362 . S
H702 C708 0.930 . S
H703 C711 0.930 . S
H704 C712 0.930 . S
H705 C713 0.930 . S
H706 C716 0.930 . S
H707 C717 0.930 . S
C708 H702 0.930 . S
C708 C709 1.355 . S
C708 C710 1.415 . S
C709 C708 1.355 . S
C709 C711 1.419 . S
C710 C708 1.415 . S
C710 C715 1.425 . S
C710 C717 1.409 . S
C711 H703 0.930 . S
C711 C709 1.419 . S
C711 C712 1.362 . S
C712 H704 0.930 . S
C712 C711 1.362 . S
C712 C715 1.409 . S
C713 H705 0.930 . S
C713 C714 1.355 . S
C713 C715 1.415 . S
C714 C713 1.355 . S
C714 C716 1.419 . S
C715 C710 1.425 . S
C715 C712 1.409 . S
C715 C713 1.415 . S
C716 H706 0.930 . S
C716 C714 1.419 . S
C716 C717 1.362 . S
C717 H707 0.930 . S
C717 C710 1.409 . S
C717 C716 1.362 . S
H718 C724 0.930 . S
H719 C727 0.930 . S
H720 C728 0.930 . S
H721 C729 0.930 . S
H722 C732 0.930 . S
H723 C733 0.930 . S
C724 H718 0.930 . S
C724 C725 1.355 . S
C724 C726 1.415 . S
C725 C724 1.355 . S
C725 C727 1.419 . S
C726 C724 1.415 . S
C726 C731 1.425 . S
C726 C733 1.409 . S
C727 H719 0.930 . S
C727 C725 1.419 . S
C727 C728 1.362 . S
C728 H720 0.930 . S
C728 C727 1.362 . S
C728 C731 1.409 . S
C729 H721 0.930 . S
C729 C730 1.355 . S
C729 C731 1.415 . S
C730 C729 1.355 . S
C730 C732 1.419 . S
C731 C726 1.425 . S
C731 C728 1.409 . S
C731 C729 1.415 . S
C732 H722 0.930 . S
C732 C730 1.419 . S
C732 C733 1.362 . S
C733 H723 0.930 . S
C733 C726 1.409 . S
C733 C732 1.362 . S
H734 C740 0.930 . S
H735 C743 0.930 . S
H736 C744 0.930 . S
H737 C745 0.930 . S
H738 C748 0.930 . S
H739 C749 0.930 . S
C740 H734 0.930 . S
C740 C741 1.355 . S
C740 C742 1.415 . S
C741 C740 1.355 . S
C741 C743 1.419 . S
C742 C740 1.415 . S
C742 C747 1.425 . S
C742 C749 1.409 . S
C743 H735 0.930 . S
C743 C741 1.419 . S
C743 C744 1.362 . S
C744 H736 0.930 . S
C744 C743 1.362 . S
C744 C747 1.409 . S
C745 H737 0.930 . S
C745 C746 1.355 . S
C745 C747 1.415 . S
C746 C745 1.355 . S
C746 C748 1.419 . S
C747 C742 1.425 . S
C747 C744 1.409 . S
C747 C745 1.415 . S
C748 H738 0.930 . S
C748 C746 1.419 . S
C748 C749 1.362 . S
C749 H739 0.930 . S
C749 C742 1.409 . S
C749 C748 1.362 . S
H750 C756 0.930 . S
H751 C759 0.930 . S
H752 C760 0.930 . S
H753 C761 0.930 . S
H754 C764 0.930 . S
H755 C765 0.930 . S
C756 H750 0.930 . S
C756 C757 1.355 . S
C756 C758 1.415 . S
C757 C756 1.355 . S
C757 C759 1.419 . S
C758 C756 1.415 . S
C758 C763 1.425 . S
C758 C765 1.409 . S
C759 H751 0.930 . S
C759 C757 1.419 . S
C759 C760 1.362 . S
C760 H752 0.930 . S
C760 C759 1.362 . S
C760 C763 1.409 . S
C761 H753 0.930 . S
C761 C762 1.355 . S
C761 C763 1.415 . S
C762 C761 1.355 . S
C762 C764 1.419 . S
C763 C758 1.425 . S
C763 C760 1.409 . S
C763 C761 1.415 . S
C764 H754 0.930 . S
C764 C762 1.419 . S
C764 C765 1.362 . S
C765 H755 0.930 . S
C765 C758 1.409 . S
C765 C764 1.362 . S
H766 C772 0.930 . S
H767 C775 0.930 . S
H768 C776 0.930 . S
H769 C777 0.930 . S
H770 C780 0.930 . S
H771 C781 0.930 . S
C772 H766 0.930 . S
C772 C773 1.355 . S
C772 C774 1.415 . S
C773 C772 1.355 . S
C773 C775 1.419 . S
C774 C772 1.415 . S
C774 C779 1.425 . S
C774 C781 1.409 . S
C775 H767 0.930 . S
C775 C773 1.419 . S
C775 C776 1.362 . S
C776 H768 0.930 . S
C776 C775 1.362 . S
C776 C779 1.409 . S
C777 H769 0.930 . S
C777 C778 1.355 . S
C777 C779 1.415 . S
C778 C777 1.355 . S
C778 C780 1.419 . S
C779 C774 1.425 . S
C779 C776 1.409 . S
C779 C777 1.415 . S
C780 H770 0.930 . S
C780 C778 1.419 . S
C780 C781 1.362 . S
C781 H771 0.930 . S
C781 C774 1.409 . S
C781 C780 1.362 . S
H782 C788 0.930 . S
H783 C791 0.930 . S
H784 C792 0.930 . S
H785 C793 0.930 . S
H786 C796 0.930 . S
H787 C797 0.930 . S
C788 H782 0.930 . S
C788 C789 1.355 . S
C788 C790 1.415 . S
C789 C788 1.355 . S
C789 C791 1.419 . S
C790 C788 1.415 . S
C790 C795 1.425 . S
C790 C797 1.409 . S
C791 H783 0.930 . S
C791 C789 1.419 . S
C791 C792 1.362 . S
C792 H784 0.930 . S
C792 C791 1.362 . S
C792 C795 1.409 . S
C793 H785 0.930 . S
C793 C794 1.355 . S
C793 C795 1.415 . S
C794 C793 1.355 . S
C794 C796 1.419 . S
C795 C790 1.425 . S
C795 C792 1.409 . S
C795 C793 1.415 . S
C796 H786 0.930 . S
C796 C794 1.419 . S
C796 C797 1.362 . S
C797 H787 0.930 . S
C797 C790 1.409 . S
C797 C796 1.362 . S
H798 C804 0.930 . S
H799 C807 0.930 . S
H800 C808 0.930 . S
H801 C809 0.930 . S
H802 C812 0.930 . S
H803 C813 0.930 . S
C804 H798 0.930 . S
C804 C805 1.355 . S
C804 C806 1.415 . S
C805 C804 1.355 . S
C805 C807 1.419 . S
C806 C804 1.415 . S
C806 C811 1.425 . S
C806 C813 1.409 . S
C807 H799 0.930 . S
C807 C805 1.419 . S
C807 C808 1.362 . S
C808 H800 0.930 . S
C808 C807 1.362 . S
C808 C811 1.409 . S
C809 H801 0.930 . S
C809 C810 1.355 . S
C809 C811 1.415 . S
C810 C809 1.355 . S
C810 C812 1.419 . S
C811 C806 1.425 . S
C811 C808 1.409 . S
C811 C809 1.415 . S
C812 H802 0.930 . S
C812 C810 1.419 . S
C812 C813 1.362 . S
C813 H803 0.930 . S
C813 C806 1.409 . S
C813 C812 1.362 . S
H814 C820 0.930 . S
H815 C823 0.930 . S
H816 C824 0.930 . S
H817 C825 0.930 . S
H818 C828 0.930 . S
H819 C829 0.930 . S
C820 H814 0.930 . S
C820 C821 1.355 . S
C820 C822 1.415 . S
C821 C820 1.355 . S
C821 C823 1.419 . S
C822 C820 1.415 . S
C822 C827 1.425 . S
C822 C829 1.409 . S
C823 H815 0.930 . S
C823 C821 1.419 . S
C823 C824 1.362 . S
C824 H816 0.930 . S
C824 C823 1.362 . S
C824 C827 1.409 . S
C825 H817 0.930 . S
C825 C826 1.355 . S
C825 C827 1.415 . S
C826 C825 1.355 . S
C826 C828 1.419 . S
C827 C822 1.425 . S
C827 C824 1.409 . S
C827 C825 1.415 . S
C828 H818 0.930 . S
C828 C826 1.419 . S
C828 C829 1.362 . S
C829 H819 0.930 . S
C829 C822 1.409 . S
C829 C828 1.362 . S
H830 C836 0.930 . S
H831 C839 0.930 . S
H832 C840 0.930 . S
H833 C841 0.930 . S
H834 C844 0.930 . S
H835 C845 0.930 . S
C836 H830 0.930 . S
C836 C837 1.355 . S
C836 C838 1.415 . S
C837 C836 1.355 . S
C837 C839 1.419 . S
C838 C836 1.415 . S
C838 C843 1.425 . S
C838 C845 1.409 . S
C839 H831 0.930 . S
C839 C837 1.419 . S
C839 C840 1.362 . S
C840 H832 0.930 . S
C840 C839 1.362 . S
C840 C843 1.409 . S
C841 H833 0.930 . S
C841 C842 1.355 . S
C841 C843 1.415 . S
C842 C841 1.355 . S
C842 C844 1.419 . S
C843 C838 1.425 . S
C843 C840 1.409 . S
C843 C841 1.415 . S
C844 H834 0.930 . S
C844 C842 1.419 . S
C844 C845 1.362 . S
C845 H835 0.930 . S
C845 C838 1.409 . S
C845 C844 1.362 . S
H846 C852 0.930 . S
H847 C855 0.930 . S
H848 C856 0.930 . S
H849 C857 0.930 . S
H850 C860 0.930 . S
H851 C861 0.930 . S
C852 H846 0.930 . S
C852 C853 1.355 . S
C852 C854 1.415 . S
C853 C852 1.355 . S
C853 C855 1.419 . S
C854 C852 1.415 . S
C854 C859 1.425 . S
C854 C861 1.409 . S
C855 H847 0.930 . S
C855 C853 1.419 . S
C855 C856 1.362 . S
C856 H848 0.930 . S
C856 C855 1.362 . S
C856 C859 1.409 . S
C857 H849 0.930 . S
C857 C858 1.355 . S
C857 C859 1.415 . S
C858 C857 1.355 . S
C858 C860 1.419 . S
C859 C854 1.425 . S
C859 C856 1.409 . S
C859 C857 1.415 . S
C860 H850 0.930 . S
C860 C858 1.419 . S
C860 C861 1.362 . S
C861 H851 0.930 . S
C861 C854 1.409 . S
C861 C860 1.362 . S
H862 C868 0.930 . S
H863 C871 0.930 . S
H864 C872 0.930 . S
H865 C873 0.930 . S
H866 C876 0.930 . S
H867 C877 0.930 . S
C868 H862 0.930 . S
C868 C869 1.355 . S
C868 C870 1.415 . S
C869 C868 1.355 . S
C869 C871 1.419 . S
C870 C868 1.415 . S
C870 C875 1.425 . S
C870 C877 1.409 . S
C871 H863 0.930 . S
C871 C869 1.419 . S
C871 C872 1.362 . S
C872 H864 0.930 . S
C872 C871 1.362 . S
C872 C875 1.409 . S
C873 H865 0.930 . S
C873 C874 1.355 . S
C873 C875 1.415 . S
C874 C873 1.355 . S
C874 C876 1.419 . S
C875 C870 1.425 . S
C875 C872 1.409 . S
C875 C873 1.415 . S
C876 H866 0.930 . S
C876 C874 1.419 . S
C876 C877 1.362 . S
C877 H867 0.930 . S
C877 C870 1.409 . S
C877 C876 1.362 . S
H878 C884 0.930 . S
H879 C887 0.930 . S
H880 C888 0.930 . S
H881 C889 0.930 . S
H882 C892 0.930 . S
H883 C893 0.930 . S
C884 H878 0.930 . S
C884 C885 1.355 . S
C884 C886 1.415 . S
C885 C884 1.355 . S
C885 C887 1.419 . S
C886 C884 1.415 . S
C886 C891 1.425 . S
C886 C893 1.409 . S
C887 H879 0.930 . S
C887 C885 1.419 . S
C887 C888 1.362 . S
C888 H880 0.930 . S
C888 C887 1.362 . S
C888 C891 1.409 . S
C889 H881 0.930 . S
C889 C890 1.355 . S
C889 C891 1.415 . S
C890 C889 1.355 . S
C890 C892 1.419 . S
C891 C886 1.425 . S
C891 C888 1.409 . S
C891 C889 1.415 . S
C892 H882 0.930 . S
C892 C890 1.419 . S
C892 C893 1.362 . S
C893 H883 0.930 . S
C893 C886 1.409 . S
C893 C892 1.362 . S
H894 C900 0.930 . S
H895 C903 0.930 . S
H896 C904 0.930 . S
H897 C905 0.930 . S
H898 C908 0.930 . S
H899 C909 0.930 . S
C900 H894 0.930 . S
C900 C901 1.355 . S
C900 C902 1.415 . S
C901 C900 1.355 . S
C901 C903 1.419 . S
C902 C900 1.415 . S
C902 C907 1.425 . S
C902 C909 1.409 . S
C903 H895 0.930 . S
C903 C901 1.419 . S
C903 C904 1.362 . S
C904 H896 0.930 . S
C904 C903 1.362 . S
C904 C907 1.409 . S
C905 H897 0.930 . S
C905 C906 1.355 . S
C905 C907 1.415 . S
C906 C905 1.355 . S
C906 C908 1.419 . S
C907 C902 1.425 . S
C907 C904 1.409 . S
C907 C905 1.415 . S
C908 H898 0.930 . S
C908 C906 1.419 . S
C908 C909 1.362 . S
C909 H899 0.930 . S
C909 C902 1.409 . S
C909 C908 1.362 . S
H910 C916 0.930 . S
H911 C919 0.930 . S
H912 C920 0.930 . S
H913 C921 0.930 . S
H914 C924 0.930 . S
H915 C925 0.930 . S
C916 H910 0.930 . S
C916 C917 1.355 . S
C916 C918 1.415 . S
C917 C916 1.355 . S
C917 C919 1.419 . S
C918 C916 1.415 . S
C918 C923 1.425 . S
C918 C925 1.409 . S
C919 H911 0.930 . S
C919 C917 1.419 . S
C919 C920 1.362 . S
C920 H912 0.930 . S
C920 C919 1.362 . S
C920 C923 1.409 . S
C921 H913 0.930 . S
C921 C922 1.355 . S
C921 C923 1.415 . S
C922 C921 1.355 . S
C922 C924 1.419 . S
C923 C918 1.425 . S
C923 C920 1.409 . S
C923 C921 1.415 . S
C924 H914 0.930 . S
C924 C922 1.419 . S
C924 C925 1.362 . S
C925 H915 0.930 . S
C925 C918 1.409 . S
C925 C924 1.362 . S
H926 C932 0.930 . S
H927 C935 0.930 . S
H928 C936 0.930 . S
H929 C937 0.930 . S
H930 C940 0.930 . S
H931 C941 0.930 . S
C932 H926 0.930 . S
C932 C933 1.355 . S
C932 C934 1.415 . S
C933 C932 1.355 . S
C933 C935 1.419 . S
C934 C932 1.415 . S
C934 C939 1.425 . S
C934 C941 1.409 . S
C935 H927 0.930 . S
C935 C933 1.419 . S
C935 C936 1.362 . S
C936 H928 0.930 . S
C936 C935 1.362 . S
C936 C939 1.409 . S
C937 H929 0.930 . S
C937 C938 1.355 . S
C937 C939 1.415 . S
C938 C937 1.355 . S
C938 C940 1.419 . S
C939 C934 1.425 . S
C939 C936 1.409 . S
C939 C937 1.415 . S
C940 H930 0.930 . S
C940 C938 1.419 . S
C940 C941 1.362 . S
C941 H931 0.930 . S
C941 C934 1.409 . S
C941 C940 1.362 . S
H942 C948 0.930 . S
H943 C951 0.930 . S
H944 C952 0.930 . S
H945 C953 0.930 . S
H946 C956 0.930 . S
H947 C957 0.930 . S
C948 H942 0.930 . S
C948 C949 1.355 . S
C948 C950 1.415 . S
C949 C948 1.355 . S
C949 C951 1.419 . S
C950 C948 1.415 . S
C950 C955 1.425 . S
C950 C957 1.409 . S
C951 H943 0.930 . S
C951 C949 1.419 . S
C951 C952 1.362 . S
C952 H944 0.930 . S
C952 C951 1.362 . S
C952 C955 1.409 . S
C953 H945 0.930 . S
C953 C954 1.355 . S
C953 C955 1.415 . S
C954 C953 1.355 . S
C954 C956 1.419 . S
C955 C950 1.425 . S
C955 C952 1.409 . S
C955 C953 1.415 . S
C956 H946 0.930 . S
C956 C954 1.419 . S
C956 C957 1.362 . S
C957 H947 0.930 . S
C957 C950 1.409 . S
C957 C956 1.362 . S
C586 C278 1.541 . S
C581 C23 1.506 . S
C602 C347 1.532 . S
C597 C49 1.506 . S
C618 C285 1.538 . S
C613 C87 1.525 . S
C634 C348 1.546 . S
C629 C125 1.487 . S
C650 C401 1.553 . S
C645 C29 1.562 . S
C666 C437 1.511 . S
C661 C61 1.511 . S
C677 C81 1.519 . S
C682 C497 1.547 . S
C698 C560 1.507 . S
C693 C113 1.493 . S
C714 C400 1.503 . S
C709 C55 1.505 . S
C725 C93 1.460 . S
C730 C444 1.511 . S
C746 C490 1.537 . S
C741 C119 1.522 . S
C762 C559 1.531 . S
C757 C17 1.526 . S
C773 C151 1.536 . S
C778 C338 1.535 . S
C794 C295 1.529 . S
C789 C177 1.480 . S
C805 C215 1.531 . S
C810 C331 1.527 . S
C821 C253 1.515 . S
C826 C294 1.529 . S
C842 C506 1.564 . S
C837 C157 1.528 . S
C858 C550 1.503 . S
C853 C189 1.436 . S
C874 C384 1.520 . S
C869 C209 1.528 . S
C885 C241 1.510 . S
C890 C453 1.508 . S
C906 C507 1.502 . S
C901 C183 1.462 . S
C922 C543 1.528 . S
C917 C221 1.489 . S
C938 C391 1.544 . S
C933 C247 1.515 . S
C949 C145 1.503 . S
C954 C454 1.520 . S
