# Generated by pormake.
# Topology llk, (3,12)-cn, num edge types: 1
# Building blocks:
#     Node 0, Type 0, BuildingBlock: KAKCAD_clean_linker_0, # of connection points: 3
#     Node 1, Type 0, BuildingBlock: KAKCAD_clean_linker_0, # of connection points: 3
#     Node 2, Type 0, BuildingBlock: KAKCAD_clean_linker_0, # of connection points: 3
#     Node 3, Type 0, BuildingBlock: KAKCAD_clean_linker_0, # of connection points: 3
#     Node 4, Type 0, BuildingBlock: KAKCAD_clean_linker_0, # of connection points: 3
#     Node 5, Type 0, BuildingBlock: KAKCAD_clean_linker_0, # of connection points: 3
#     Node 6, Type 0, BuildingBlock: KAKCAD_clean_linker_0, # of connection points: 3
#     Node 7, Type 0, BuildingBlock: KAKCAD_clean_linker_0, # of connection points: 3
#     Node 8, Type 0, BuildingBlock: KAKCAD_clean_linker_0, # of connection points: 3
#     Node 9, Type 0, BuildingBlock: KAKCAD_clean_linker_0, # of connection points: 3
#     Node 10, Type 0, BuildingBlock: KAKCAD_clean_linker_0, # of connection points: 3
#     Node 11, Type 0, BuildingBlock: KAKCAD_clean_linker_0, # of connection points: 3
#     Node 12, Type 0, BuildingBlock: KAKCAD_clean_linker_0, # of connection points: 3
#     Node 13, Type 0, BuildingBlock: KAKCAD_clean_linker_0, # of connection points: 3
#     Node 14, Type 0, BuildingBlock: KAKCAD_clean_linker_0, # of connection points: 3
#     Node 15, Type 0, BuildingBlock: KAKCAD_clean_linker_0, # of connection points: 3
#     Node 16, Type 0, BuildingBlock: KAKCAD_clean_linker_0, # of connection points: 3
#     Node 17, Type 0, BuildingBlock: KAKCAD_clean_linker_0, # of connection points: 3
#     Node 18, Type 0, BuildingBlock: KAKCAD_clean_linker_0, # of connection points: 3
#     Node 19, Type 0, BuildingBlock: KAKCAD_clean_linker_0, # of connection points: 3
#     Node 20, Type 0, BuildingBlock: KAKCAD_clean_linker_0, # of connection points: 3
#     Node 21, Type 0, BuildingBlock: KAKCAD_clean_linker_0, # of connection points: 3
#     Node 22, Type 0, BuildingBlock: KAKCAD_clean_linker_0, # of connection points: 3
#     Node 23, Type 0, BuildingBlock: KAKCAD_clean_linker_0, # of connection points: 3
#     Node 24, Type 1, BuildingBlock: EZIPEK_clean_sbu_0, # of connection points: 12
#     Node 25, Type 1, BuildingBlock: EZIPEK_clean_sbu_0, # of connection points: 12
#     Node 26, Type 1, BuildingBlock: EZIPEK_clean_sbu_0, # of connection points: 12
#     Node 27, Type 1, BuildingBlock: EZIPEK_clean_sbu_0, # of connection points: 12
#     Node 28, Type 1, BuildingBlock: EZIPEK_clean_sbu_0, # of connection points: 12
#     Node 29, Type 1, BuildingBlock: EZIPEK_clean_sbu_0, # of connection points: 12
#     Edge 30, Type (0, 1), BuildingBlock: KIFKEQ_clean_linker_1, # of connection points: 2
#     Edge 31, Type (0, 1), BuildingBlock: KIFKEQ_clean_linker_1, # of connection points: 2
#     Edge 32, Type (0, 1), BuildingBlock: KIFKEQ_clean_linker_1, # of connection points: 2
#     Edge 33, Type (0, 1), BuildingBlock: KIFKEQ_clean_linker_1, # of connection points: 2
#     Edge 34, Type (0, 1), BuildingBlock: KIFKEQ_clean_linker_1, # of connection points: 2
#     Edge 35, Type (0, 1), BuildingBlock: KIFKEQ_clean_linker_1, # of connection points: 2
#     Edge 36, Type (0, 1), BuildingBlock: KIFKEQ_clean_linker_1, # of connection points: 2
#     Edge 37, Type (0, 1), BuildingBlock: KIFKEQ_clean_linker_1, # of connection points: 2
#     Edge 38, Type (0, 1), BuildingBlock: KIFKEQ_clean_linker_1, # of connection points: 2
#     Edge 39, Type (0, 1), BuildingBlock: KIFKEQ_clean_linker_1, # of connection points: 2
#     Edge 40, Type (0, 1), BuildingBlock: KIFKEQ_clean_linker_1, # of connection points: 2
#     Edge 41, Type (0, 1), BuildingBlock: KIFKEQ_clean_linker_1, # of connection points: 2
#     Edge 42, Type (0, 1), BuildingBlock: KIFKEQ_clean_linker_1, # of connection points: 2
#     Edge 43, Type (0, 1), BuildingBlock: KIFKEQ_clean_linker_1, # of connection points: 2
#     Edge 44, Type (0, 1), BuildingBlock: KIFKEQ_clean_linker_1, # of connection points: 2
#     Edge 45, Type (0, 1), BuildingBlock: KIFKEQ_clean_linker_1, # of connection points: 2
#     Edge 46, Type (0, 1), BuildingBlock: KIFKEQ_clean_linker_1, # of connection points: 2
#     Edge 47, Type (0, 1), BuildingBlock: KIFKEQ_clean_linker_1, # of connection points: 2
#     Edge 48, Type (0, 1), BuildingBlock: KIFKEQ_clean_linker_1, # of connection points: 2
#     Edge 49, Type (0, 1), BuildingBlock: KIFKEQ_clean_linker_1, # of connection points: 2
#     Edge 50, Type (0, 1), BuildingBlock: KIFKEQ_clean_linker_1, # of connection points: 2
#     Edge 51, Type (0, 1), BuildingBlock: KIFKEQ_clean_linker_1, # of connection points: 2
#     Edge 52, Type (0, 1), BuildingBlock: KIFKEQ_clean_linker_1, # of connection points: 2
#     Edge 53, Type (0, 1), BuildingBlock: KIFKEQ_clean_linker_1, # of connection points: 2
#     Edge 54, Type (0, 1), BuildingBlock: KIFKEQ_clean_linker_1, # of connection points: 2
#     Edge 55, Type (0, 1), BuildingBlock: KIFKEQ_clean_linker_1, # of connection points: 2
#     Edge 56, Type (0, 1), BuildingBlock: KIFKEQ_clean_linker_1, # of connection points: 2
#     Edge 57, Type (0, 1), BuildingBlock: KIFKEQ_clean_linker_1, # of connection points: 2
#     Edge 58, Type (0, 1), BuildingBlock: KIFKEQ_clean_linker_1, # of connection points: 2
#     Edge 59, Type (0, 1), BuildingBlock: KIFKEQ_clean_linker_1, # of connection points: 2
#     Edge 60, Type (0, 1), BuildingBlock: KIFKEQ_clean_linker_1, # of connection points: 2
#     Edge 61, Type (0, 1), BuildingBlock: KIFKEQ_clean_linker_1, # of connection points: 2
#     Edge 62, Type (0, 1), BuildingBlock: KIFKEQ_clean_linker_1, # of connection points: 2
#     Edge 63, Type (0, 1), BuildingBlock: KIFKEQ_clean_linker_1, # of connection points: 2
#     Edge 64, Type (0, 1), BuildingBlock: KIFKEQ_clean_linker_1, # of connection points: 2
#     Edge 65, Type (0, 1), BuildingBlock: KIFKEQ_clean_linker_1, # of connection points: 2
#     Edge 66, Type (0, 1), BuildingBlock: KIFKEQ_clean_linker_1, # of connection points: 2
#     Edge 67, Type (0, 1), BuildingBlock: KIFKEQ_clean_linker_1, # of connection points: 2
#     Edge 68, Type (0, 1), BuildingBlock: KIFKEQ_clean_linker_1, # of connection points: 2
#     Edge 69, Type (0, 1), BuildingBlock: KIFKEQ_clean_linker_1, # of connection points: 2
#     Edge 70, Type (0, 1), BuildingBlock: KIFKEQ_clean_linker_1, # of connection points: 2
#     Edge 71, Type (0, 1), BuildingBlock: KIFKEQ_clean_linker_1, # of connection points: 2
#     Edge 72, Type (0, 1), BuildingBlock: KIFKEQ_clean_linker_1, # of connection points: 2
#     Edge 73, Type (0, 1), BuildingBlock: KIFKEQ_clean_linker_1, # of connection points: 2
#     Edge 74, Type (0, 1), BuildingBlock: KIFKEQ_clean_linker_1, # of connection points: 2
#     Edge 75, Type (0, 1), BuildingBlock: KIFKEQ_clean_linker_1, # of connection points: 2
#     Edge 76, Type (0, 1), BuildingBlock: KIFKEQ_clean_linker_1, # of connection points: 2
#     Edge 77, Type (0, 1), BuildingBlock: KIFKEQ_clean_linker_1, # of connection points: 2
#     Edge 78, Type (0, 1), BuildingBlock: KIFKEQ_clean_linker_1, # of connection points: 2
#     Edge 79, Type (0, 1), BuildingBlock: KIFKEQ_clean_linker_1, # of connection points: 2
#     Edge 80, Type (0, 1), BuildingBlock: KIFKEQ_clean_linker_1, # of connection points: 2
#     Edge 81, Type (0, 1), BuildingBlock: KIFKEQ_clean_linker_1, # of connection points: 2
#     Edge 82, Type (0, 1), BuildingBlock: KIFKEQ_clean_linker_1, # of connection points: 2
#     Edge 83, Type (0, 1), BuildingBlock: KIFKEQ_clean_linker_1, # of connection points: 2
#     Edge 84, Type (0, 1), BuildingBlock: KIFKEQ_clean_linker_1, # of connection points: 2
#     Edge 85, Type (0, 1), BuildingBlock: KIFKEQ_clean_linker_1, # of connection points: 2
#     Edge 86, Type (0, 1), BuildingBlock: KIFKEQ_clean_linker_1, # of connection points: 2
#     Edge 87, Type (0, 1), BuildingBlock: KIFKEQ_clean_linker_1, # of connection points: 2
#     Edge 88, Type (0, 1), BuildingBlock: KIFKEQ_clean_linker_1, # of connection points: 2
#     Edge 89, Type (0, 1), BuildingBlock: KIFKEQ_clean_linker_1, # of connection points: 2
#     Edge 90, Type (0, 1), BuildingBlock: KIFKEQ_clean_linker_1, # of connection points: 2
#     Edge 91, Type (0, 1), BuildingBlock: KIFKEQ_clean_linker_1, # of connection points: 2
#     Edge 92, Type (0, 1), BuildingBlock: KIFKEQ_clean_linker_1, # of connection points: 2
#     Edge 93, Type (0, 1), BuildingBlock: KIFKEQ_clean_linker_1, # of connection points: 2
#     Edge 94, Type (0, 1), BuildingBlock: KIFKEQ_clean_linker_1, # of connection points: 2
#     Edge 95, Type (0, 1), BuildingBlock: KIFKEQ_clean_linker_1, # of connection points: 2
#     Edge 96, Type (0, 1), BuildingBlock: KIFKEQ_clean_linker_1, # of connection points: 2
#     Edge 97, Type (0, 1), BuildingBlock: KIFKEQ_clean_linker_1, # of connection points: 2
#     Edge 98, Type (0, 1), BuildingBlock: KIFKEQ_clean_linker_1, # of connection points: 2
#     Edge 99, Type (0, 1), BuildingBlock: KIFKEQ_clean_linker_1, # of connection points: 2
#     Edge 100, Type (0, 1), BuildingBlock: KIFKEQ_clean_linker_1, # of connection points: 2
#     Edge 101, Type (0, 1), BuildingBlock: KIFKEQ_clean_linker_1, # of connection points: 2
# Relax obj value: 0.106
# Max RMSD: 0.160
# Mean RMSD: 0.134
data_MOF--net-llk--node1-EZIPEK_clean_sbu_0--node2-KAKCAD_clean_linker_0--edge1-KIFKEQ_clean_linker_1
_symmetry_space_group_name_H-M    P1
_symmetry_Int_Tables_number       1
_symmetry_cell_setting            triclinic
loop_
_symmetry_equiv_pos_as_xyz
'x, y, z'
_cell_length_a     56.834661
_cell_length_b     56.744291
_cell_length_c     56.749738
_cell_angle_alpha  90.002658
_cell_angle_beta   90.000468
_cell_angle_gamma 90.017584
loop_
_atom_site_label
_atom_site_type_symbol
_atom_site_fract_x
_atom_site_fract_y
_atom_site_fract_z
_atom_type_partial_charge
C0 C 0.98789 0.3237 0.30928 0.0
C1 C 1.00605 0.3245 0.32606 0.0
C2 C 0.98808 0.30667 0.29161 0.0
C3 C 1.00632 0.29006 0.29058 0.0
C4 C 0.0244 0.29073 0.30738 0.0
C5 C 0.02432 0.30787 0.32492 0.0
C6 C 1.00652 0.27203 0.27198 0.0
C7 C 1.00343 0.27846 0.24851 0.0
C8 C 1.00382 0.26158 0.23048 0.0
C9 C 0.00734 0.23749 0.23635 0.0
C10 C 0.01041 0.23095 0.26032 0.0
C11 C 0.00995 0.24844 0.27775 0.0
C12 C 0.01359 0.2064 0.26895 0.0
C13 C 0.99409 0.19134 0.2708 0.0
C14 C 0.03369 0.20128 0.28246 0.0
C15 C 0.03344 0.1832 0.29924 0.0
C16 C 0.01316 0.16935 0.30281 0.0
C17 C 1.00107 0.27084 0.20609 0.0
C18 C 0.98101 0.28436 0.20088 0.0
C19 C 0.02076 0.27292 0.1913 0.0
C20 C 0.02106 0.28966 0.173 0.0
C21 C 1.0018 0.305 0.16931 0.0
C22 C 0.9814 0.30127 0.18293 0.0
C23 C 0.99394 0.17289 0.28738 0.0
H24 H 0.97338 0.33606 0.30995 0.0
H25 H 0.97383 0.30627 0.27893 0.0
H26 H 0.03877 0.27821 0.3067 0.0
H27 H 0.03877 0.30832 0.33736 0.0
H28 H 1.00123 0.29696 0.24416 0.0
H29 H 0.01188 0.24357 0.29615 0.0
H30 H 0.00769 0.22421 0.22266 0.0
H31 H 0.9782 0.19506 0.26094 0.0
H32 H 0.04882 0.2129 0.28176 0.0
H33 H 0.04862 0.1815 0.31061 0.0
H34 H 0.96573 0.28347 0.21227 0.0
H35 H 0.03662 0.26305 0.19511 0.0
H36 H 0.97822 0.16223 0.28885 0.0
H37 H 0.96619 0.31258 0.18112 0.0
H38 H 0.03689 0.29128 0.16253 0.0
C39 C 0.71239 1.00595 0.33078 0.0
C40 C 0.69179 0.99286 0.32689 0.0
C41 C 0.72992 1.00678 0.31375 0.0
C42 C 0.72749 0.99417 0.29258 0.0
C43 C 0.70743 0.98007 0.28918 0.0
C44 C 0.68968 0.97949 0.30616 0.0
C45 C 0.74498 0.99745 0.27355 0.0
C46 C 0.76876 1.00037 0.279 0.0
C47 C 0.78498 0.0076 0.26192 0.0
C48 C 0.77744 0.01075 0.23834 0.0
C49 C 0.75354 1.00669 0.2325 0.0
C50 C 0.73763 1.00025 0.25022 0.0
C51 C 0.74343 0.01001 0.20865 0.0
C52 C 0.73242 0.03148 0.20319 0.0
C53 C 0.73777 0.99 0.19525 0.0
C54 C 0.72035 0.99104 0.17779 0.0
C55 C 0.70798 0.01213 0.17346 0.0
C56 C 0.80891 0.01316 0.27072 0.0
C57 C 0.81156 0.03302 0.28528 0.0
C58 C 0.82585 0.99523 0.272 0.0
C59 C 0.84391 0.99624 0.28888 0.0
C60 C 0.84511 0.01497 0.30523 0.0
C61 C 0.82931 0.03389 0.30236 0.0
C62 C 0.71494 0.03255 0.18575 0.0
H63 H 0.71476 0.01603 0.34682 0.0
H64 H 0.74494 0.01811 0.31686 0.0
H65 H 0.70521 0.96991 0.27318 0.0
H66 H 0.67397 0.96927 0.30266 0.0
H67 H 0.77466 0.99788 0.29702 0.0
H68 H 0.71913 0.99847 0.24586 0.0
H69 H 0.78975 0.01657 0.22498 0.0
H70 H 0.73595 0.047 0.21373 0.0
H71 H 0.7454 0.97306 0.19965 0.0
H72 H 0.71543 0.97489 0.16891 0.0
H73 H 0.79834 0.04678 0.28512 0.0
H74 H 0.82394 0.97948 0.26138 0.0
H75 H 0.70614 0.04919 0.18265 0.0
H76 H 0.82929 0.04859 0.31451 0.0
H77 H 0.8561 0.98163 0.2899 0.0
C78 C 0.9951 0.70944 0.32854 0.0
C79 C 0.00806 0.68862 0.32526 0.0
C80 C 0.99511 0.72688 0.3113 0.0
C81 C 0.00828 0.72397 0.29057 0.0
C82 C 0.02139 0.70325 0.28737 0.0
C83 C 0.02119 0.68568 0.3045 0.0
C84 C 0.00817 0.74245 0.27226 0.0
C85 C 0.00911 0.7662 0.27855 0.0
C86 C 0.00847 0.78397 0.26145 0.0
C87 C 0.0073 0.77776 0.23729 0.0
C88 C 0.00663 0.75363 0.23087 0.0
C89 C 0.00689 0.73635 0.24847 0.0
C90 C 1.00589 0.74478 0.2063 0.0
C91 C 0.9846 0.73568 0.19761 0.0
C92 C 0.02701 0.73761 0.19563 0.0
C93 C 0.02697 0.72034 0.17793 0.0
C94 C 1.00579 0.7097 0.1706 0.0
C95 C 0.00855 0.80847 0.27054 0.0
C96 C 0.98718 0.81839 0.27801 0.0
C97 C 0.02965 0.81775 0.2795 0.0
C98 C 0.02934 0.8353 0.29691 0.0
C99 C 0.00788 0.84387 0.30592 0.0
C100 C 0.98683 0.83593 0.29544 0.0
C101 C 0.98452 0.71841 0.17993 0.0
H102 H 0.98507 0.71234 0.3445 0.0
H103 H 0.9846 0.74255 0.31413 0.0
H104 H 0.03193 0.70064 0.27168 0.0
H105 H 0.03112 0.66971 0.30134 0.0
H106 H 0.01039 0.77103 0.29701 0.0
H107 H 1.00585 0.71791 0.24349 0.0
H108 H 0.00689 0.79131 0.22387 0.0
H109 H 0.96811 0.74039 0.20597 0.0
H110 H 0.04371 0.74372 0.20253 0.0
H111 H 0.04372 0.71407 0.17135 0.0
H112 H 0.97065 0.81101 0.27201 0.0
H113 H 0.04634 0.80997 0.27455 0.0
H114 H 0.96783 0.71104 0.17442 0.0
H115 H 0.96994 0.84191 0.30193 0.0
H116 H 0.04592 0.84129 0.30413 0.0
C117 C 0.32827 0.02012 0.30442 0.0
C118 C 0.32515 1.00728 0.32535 0.0
C119 C 0.31094 0.01999 0.2871 0.0
C120 C 0.29026 1.0068 0.29022 0.0
C121 C 0.28719 0.99384 0.31108 0.0
C122 C 0.30441 0.99417 0.32853 0.0
C123 C 0.27193 1.00665 0.27178 0.0
C124 C 0.27819 1.00556 0.24803 0.0
C125 C 0.2611 1.00602 0.23027 0.0
C126 C 0.23699 1.00713 0.23649 0.0
C127 C 0.23059 0.00791 0.26061 0.0
C128 C 0.24817 0.00785 0.27788 0.0
C129 C 0.20605 0.00864 0.2694 0.0
C130 C 0.19731 0.02999 0.27837 0.0
C131 C 0.19535 0.9875 0.27651 0.0
C132 C 0.17753 0.98756 0.29363 0.0
C133 C 0.17014 0.0088 0.30415 0.0
C134 C 0.27013 1.00586 0.20578 0.0
C135 C 0.27745 0.02726 0.19574 0.0
C136 C 0.27921 0.98474 0.19662 0.0
C137 C 0.29662 0.98508 0.17911 0.0
C138 C 0.3055 1.00658 0.17046 0.0
C139 C 0.29488 0.02764 0.17824 0.0
C140 C 0.17952 0.03008 0.29549 0.0
H141 H 0.34419 0.03013 0.30132 0.0
H142 H 0.31367 0.03041 0.27133 0.0
H143 H 0.27155 0.9833 0.31386 0.0
H144 H 0.30137 0.98433 0.34459 0.0
H145 H 0.29662 1.00433 0.24318 0.0
H146 H 0.2432 0.00899 0.29631 0.0
H147 H 0.22358 0.0074 0.22294 0.0
H148 H 0.20569 0.04649 0.27368 0.0
H149 H 0.20228 0.97076 0.27048 0.0
H150 H 0.1709 0.9708 0.29988 0.0
H151 H 0.27135 0.04382 0.20302 0.0
H152 H 0.27436 0.96803 0.2045 0.0
H153 H 0.17396 0.04681 0.30279 0.0
H154 H 0.30127 0.04456 0.17218 0.0
H155 H 0.30397 0.96848 0.17323 0.0
C156 C 0.99582 0.68696 0.7093 0.0
C157 C 0.00876 0.69027 0.68854 0.0
C158 C 0.99567 0.70432 0.72662 0.0
C159 C 0.0087 0.72514 0.72354 0.0
C160 C 0.02175 0.72835 0.70275 0.0
C161 C 0.02166 0.71109 0.68532 0.0
C162 C 0.00862 0.74348 0.74198 0.0
C163 C 0.00975 0.7372 0.76572 0.0
C164 C 0.00914 0.75428 0.78349 0.0
C165 C 0.00781 0.77845 0.77729 0.0
C166 C 0.00697 0.78487 0.75315 0.0
C167 C 0.0072 0.76726 0.73588 0.0
C168 C 1.00604 0.80943 0.74427 0.0
C169 C 0.98471 0.81788 0.73503 0.0
C170 C 0.02709 0.8203 0.73716 0.0
C171 C 0.02696 0.83796 0.71984 0.0
C172 C 1.00576 0.84505 0.70908 0.0
C173 C 0.00938 0.74511 0.80797 0.0
C174 C 0.98809 0.73749 0.81795 0.0
C175 C 0.03054 0.73604 0.81701 0.0
C176 C 0.03035 0.71839 0.83431 0.0
C177 C 0.00896 0.70923 0.8429 0.0
C178 C 0.98785 0.71982 0.83525 0.0
C179 C 0.98455 0.83551 0.7177 0.0
H180 H 0.98553 0.6711 0.71196 0.0
H181 H 0.98511 0.70156 0.74227 0.0
H182 H 0.03224 0.74406 0.70008 0.0
H183 H 0.03194 0.71382 0.66947 0.0
H184 H 0.01114 0.71874 0.77053 0.0
H185 H 1.00605 0.77221 0.71745 0.0
H186 H 0.00742 0.79187 0.79085 0.0
H187 H 0.96829 0.80937 0.73968 0.0
H188 H 0.04382 0.81359 0.74337 0.0
H189 H 0.04367 0.84472 0.71365 0.0
H190 H 0.9715 0.74355 0.81075 0.0
H191 H 0.04718 0.74109 0.80917 0.0
H192 H 0.96785 0.84082 0.71023 0.0
H193 H 0.97101 0.71324 0.84125 0.0
H194 H 0.04698 0.71109 0.84009 0.0
C195 C 0.32799 0.99358 0.70661 0.0
C196 C 0.3277 0.01128 0.68929 0.0
C197 C 0.31061 0.99286 0.72387 0.0
C198 C 0.29254 0.00965 0.72393 0.0
C199 C 0.29214 0.02732 0.70667 0.0
C200 C 0.30966 0.02822 0.68955 0.0
C201 C 0.27403 0.00866 0.74194 0.0
C202 C 0.28 1.00715 0.76569 0.0
C203 C 0.26261 1.00624 0.78313 0.0
C204 C 0.23855 1.0065 0.77647 0.0
C205 C 0.23254 0.00788 0.75224 0.0
C206 C 0.25043 0.00911 0.73534 0.0
C207 C 0.20817 0.00791 0.74289 0.0
C208 C 0.1987 0.98671 0.73432 0.0
C209 C 0.19863 0.02926 0.73481 0.0
C210 C 0.18125 0.02946 0.71726 0.0
C211 C 0.17307 0.00826 0.70722 0.0
C212 C 0.27131 1.00535 0.80775 0.0
C213 C 0.27999 0.98387 0.81648 0.0
C214 C 0.27889 0.02638 0.81838 0.0
C215 C 0.29619 0.02606 0.83602 0.0
C216 C 0.3064 1.00467 0.8434 0.0
C217 C 0.29725 0.98351 0.83415 0.0
C218 C 0.18131 0.98686 0.71675 0.0
H219 H 0.34142 0.98004 0.70661 0.0
H220 H 0.31105 0.97894 0.73694 0.0
H221 H 0.27842 0.04058 0.70662 0.0
H222 H 0.3092 0.04229 0.67667 0.0
H223 H 0.29843 1.00705 0.77072 0.0
H224 H 0.2459 0.01003 0.71678 0.0
H225 H 0.2249 1.00568 0.78976 0.0
H226 H 0.20621 0.97001 0.73971 0.0
H227 H 0.20617 0.04586 0.74049 0.0
H228 H 0.17556 0.04631 0.71036 0.0
H229 H 0.27508 0.96745 0.80806 0.0
H230 H 0.27302 0.04321 0.81154 0.0
H231 H 0.17515 0.97017 0.70986 0.0
H232 H 0.3047 0.96669 0.8392 0.0
H233 H 0.30241 0.04268 0.84303 0.0
C234 C 0.01337 0.30463 0.68286 0.0
C235 C 0.02779 0.32416 0.68729 0.0
C236 C 0.0104 0.28734 0.69997 0.0
C237 C 0.02207 0.28907 0.72174 0.0
C238 C 0.03711 0.30833 0.72586 0.0
C239 C 0.03979 0.32585 0.70882 0.0
C240 C 0.01737 0.27148 0.74043 0.0
C241 C 0.01392 0.24782 0.73461 0.0
C242 C 1.00653 0.23142 0.75149 0.0
C243 C 1.0035 0.23867 0.77515 0.0
C244 C 0.0078 0.26246 0.78131 0.0
C245 C 0.01452 0.27857 0.76384 0.0
C246 C 1.0047 0.27216 0.80534 0.0
C247 C 0.98318 0.28269 0.81138 0.0
C248 C 0.0248 0.27783 0.81856 0.0
C249 C 0.02376 0.29485 0.83642 0.0
C250 C 1.00259 0.30678 0.84134 0.0
C251 C 1.00114 0.20748 0.74256 0.0
C252 C 0.9819 0.20489 0.72725 0.0
C253 C 0.01883 0.19024 0.74235 0.0
C254 C 0.01825 0.17189 0.72575 0.0
C255 C 1.00022 0.17068 0.70866 0.0
C256 C 0.98147 0.18683 0.71046 0.0
C257 C 0.9821 0.29976 0.82923 0.0
H258 H 1.00364 0.3032 0.6665 0.0
H259 H 0.99825 0.27307 0.69639 0.0
H260 H 0.0466 0.30999 0.74233 0.0
H261 H 0.05108 0.3408 0.71249 0.0
H262 H 0.01647 0.24207 0.71655 0.0
H263 H 0.0167 0.29698 0.7685 0.0
H264 H 0.99766 0.2262 0.78837 0.0
H265 H 0.96757 0.27912 0.80101 0.0
H266 H 0.04175 0.27054 0.81374 0.0
H267 H 0.03995 0.29984 0.84515 0.0
H268 H 0.96835 0.21831 0.72663 0.0
H269 H 0.0341 0.1921 0.75362 0.0
H270 H 0.96541 0.30823 0.83279 0.0
H271 H 0.96731 0.18686 0.69771 0.0
H272 H 0.03269 0.15945 0.72552 0.0
C273 C 0.71078 0.99244 0.68474 0.0
C274 C 0.68992 1.00539 0.68759 0.0
C275 C 0.72779 0.99235 0.70241 0.0
C276 C 0.72435 1.0054 0.72316 0.0
C277 C 0.70348 0.01833 0.72601 0.0
C278 C 0.68638 0.01823 0.70845 0.0
C279 C 0.74258 1.00575 0.74169 0.0
C280 C 0.76633 0.00748 0.73566 0.0
C281 C 0.78384 0.00814 0.753 0.0
C282 C 0.77737 0.00738 0.7771 0.0
C283 C 0.75327 1.00571 0.78324 0.0
C284 C 0.73625 1.00472 0.76543 0.0
C285 C 0.7442 1.00544 0.80772 0.0
C286 C 0.73545 0.98419 0.81689 0.0
C287 C 0.73669 0.02673 0.81785 0.0
C288 C 0.71942 0.02684 0.83552 0.0
C289 C 0.70915 1.00563 0.84335 0.0
C290 C 0.80838 0.00945 0.74428 0.0
C291 C 0.8196 0.98854 0.73728 0.0
C292 C 0.81663 0.03096 0.73523 0.0
C293 C 0.83445 0.03142 0.71815 0.0
C294 C 0.84435 0.01033 0.7096 0.0
C295 C 0.83744 0.98896 0.7202 0.0
C296 C 0.71819 0.98426 0.83455 0.0
H297 H 0.71411 0.98258 0.66875 0.0
H298 H 0.74359 0.982 0.69985 0.0
H299 H 0.70046 0.02878 0.74169 0.0
H300 H 0.67033 0.02812 0.7113 0.0
H301 H 0.77134 0.0086 0.71724 0.0
H302 H 0.71783 1.0031 0.77022 0.0
H303 H 0.79073 0.00809 0.79069 0.0
H304 H 0.74045 0.96756 0.80896 0.0
H305 H 0.74255 0.04338 0.81057 0.0
H306 H 0.71288 0.04366 0.8417 0.0
H307 H 0.81305 0.97167 0.74337 0.0
H308 H 0.80785 0.04727 0.73983 0.0
H309 H 0.7111 0.96756 0.84046 0.0
H310 H 0.84448 0.97234 0.71404 0.0
H311 H 0.83962 0.04824 0.71078 0.0
C312 C 0.32666 0.30846 0.98991 0.0
C313 C 0.32651 0.32616 1.00717 0.0
C314 C 0.3094 0.29105 0.98996 0.0
C315 C 0.29162 0.29131 1.00711 0.0
C316 C 0.29137 0.30909 0.02428 0.0
C317 C 0.3088 0.32634 0.02439 0.0
C318 C 0.27336 0.27299 1.00712 0.0
C319 C 0.27966 0.24928 1.0062 0.0
C320 C 0.26251 0.23157 1.00638 0.0
C321 C 0.23838 0.23786 1.00717 0.0
C322 C 0.23204 0.26202 0.00795 0.0
C323 C 0.24968 0.27923 0.00808 0.0
C324 C 0.20754 0.27095 0.00837 0.0
C325 C 0.19742 0.27878 0.98719 0.0
C326 C 0.19838 0.27942 0.02974 0.0
C327 C 0.18073 0.29669 0.0299 0.0
C328 C 0.17195 0.30606 0.00865 0.0
C329 C 0.2715 0.20705 1.006 0.0
C330 C 0.27982 0.19782 0.98459 0.0
C331 C 0.27952 0.19703 0.02715 0.0
C332 C 0.29687 0.17945 0.02696 0.0
C333 C 0.30669 0.17155 1.00557 0.0
C334 C 0.29714 0.18022 0.98436 0.0
C335 C 0.1798 0.29608 0.98732 0.0
H336 H 0.34028 0.30796 0.97656 0.0
H337 H 0.30978 0.27752 0.9765 0.0
H338 H 0.27785 0.30948 0.03773 0.0
H339 H 0.30832 0.33996 0.03777 0.0
H340 H 0.29815 0.24452 1.00572 0.0
H341 H 0.24488 0.29775 0.00854 0.0
H342 H 0.22492 0.22435 1.00719 0.0
H343 H 0.20462 0.27307 0.97046 0.0
H344 H 0.2064 0.27429 0.04628 0.0
H345 H 0.17532 0.30396 0.04669 0.0
H346 H 0.27454 0.20578 0.96806 0.0
H347 H 0.27392 0.20428 0.0439 0.0
H348 H 0.17316 0.30248 0.97062 0.0
H349 H 0.30428 0.17477 0.96754 0.0
H350 H 0.30342 0.17289 0.04363 0.0
C351 C 0.32992 0.71 0.01841 0.0
C352 C 0.32683 0.68919 1.00537 0.0
C353 C 0.31248 0.72721 0.01862 0.0
C354 C 0.29172 0.72408 1.00557 0.0
C355 C 0.2887 0.70337 0.99236 0.0
C356 C 0.30604 0.68604 0.99236 0.0
C357 C 0.2732 0.74233 1.00589 0.0
C358 C 0.27921 0.76616 1.00505 0.0
C359 C 0.26194 0.78372 1.00591 0.0
C360 C 0.2379 0.77723 1.00719 0.0
C361 C 0.23176 0.75303 0.00776 0.0
C362 C 0.24952 0.73595 1.00729 0.0
C363 C 0.20733 0.74397 0.00857 0.0
C364 C 0.19885 0.73459 0.02984 0.0
C365 C 0.19653 0.73706 0.98741 0.0
C366 C 0.17888 0.71977 0.98736 0.0
C367 C 0.17173 0.70887 0.0085 0.0
C368 C 0.2707 0.80831 1.00591 0.0
C369 C 0.27811 0.81823 0.02734 0.0
C370 C 0.27951 0.81775 0.98479 0.0
C371 C 0.29677 0.83541 0.98514 0.0
C372 C 0.30576 0.84393 1.00665 0.0
C373 C 0.29538 0.83589 0.02772 0.0
C374 C 0.1812 0.71732 0.02983 0.0
H375 H 0.34588 0.71309 0.02837 0.0
H376 H 0.31517 0.74287 0.0292 0.0
H377 H 0.27299 0.7006 0.98191 0.0
H378 H 0.30303 0.67006 0.98236 0.0
H379 H 0.29757 0.77122 1.00368 0.0
H380 H 0.24476 0.71745 0.00823 0.0
H381 H 0.22435 0.79063 0.00776 0.0
H382 H 0.20731 0.73912 0.04634 0.0
H383 H 0.20328 0.7434 0.97071 0.0
H384 H 0.17218 0.71371 0.97056 0.0
H385 H 0.27221 0.81074 0.04388 0.0
H386 H 0.27459 0.80998 0.96806 0.0
H387 H 0.17583 0.70973 0.0465 0.0
H388 H 0.30187 0.84186 0.04464 0.0
H389 H 0.30394 0.84149 0.96854 0.0
C390 C 0.70835 0.32814 1.00261 0.0
C391 C 0.69111 0.32716 0.02024 0.0
C392 C 0.72607 0.31128 1.0018 0.0
C393 C 0.72673 0.29308 0.01852 0.0
C394 C 0.70975 0.29232 0.03647 0.0
C395 C 0.69211 0.30942 0.03744 0.0
C396 C 0.74437 0.27426 0.0161 0.0
C397 C 0.76781 0.28 0.01173 0.0
C398 C 0.7843 0.26262 1.00595 0.0
C399 C 0.77708 0.23873 1.00483 0.0
C400 C 0.75335 0.23282 0.00984 0.0
C401 C 0.73736 0.25071 0.01561 0.0
C402 C 0.74339 0.20874 0.00776 0.0
C403 C 0.73413 0.20138 0.98602 0.0
C404 C 0.73618 0.19699 0.02831 0.0
C405 C 0.71899 0.17929 0.02736 0.0
C406 C 0.70836 0.17307 1.00581 0.0
C407 C 0.80828 0.27124 1.00025 0.0
C408 C 0.81106 0.28529 0.98002 0.0
C409 C 0.82519 0.27291 0.01825 0.0
C410 C 0.84333 0.2897 0.01689 0.0
C411 C 0.84458 0.30539 0.99771 0.0
C412 C 0.82889 0.30227 0.97883 0.0
C413 C 0.71684 0.18372 0.98504 0.0
H414 H 0.70796 0.34182 0.98929 0.0
H415 H 0.73883 0.31206 0.98764 0.0
H416 H 0.71001 0.27842 0.04955 0.0
H417 H 0.67887 0.30837 0.05114 0.0
H418 H 0.77319 0.29836 0.01226 0.0
H419 H 0.71899 0.24634 0.01852 0.0
H420 H 0.78951 0.22515 0.99986 0.0
H421 H 0.73886 0.2106 0.96999 0.0
H422 H 0.74244 0.20285 0.04537 0.0
H423 H 0.71286 0.17172 0.04376 0.0
H424 H 0.79795 0.28478 0.96616 0.0
H425 H 0.82307 0.26283 0.03433 0.0
H426 H 0.70938 0.17915 0.96808 0.0
H427 H 0.82955 0.31392 0.96372 0.0
H428 H 0.85514 0.29173 0.03174 0.0
C429 C 0.71095 0.67953 0.99168 0.0
C430 C 0.69157 0.68456 0.97726 0.0
C431 C 0.7279 0.69667 0.99598 0.0
C432 C 0.72605 0.71912 0.98563 0.0
C433 C 0.70716 0.72376 0.97029 0.0
C434 C 0.68994 0.70666 0.9663 0.0
C435 C 0.7428 0.73795 0.99246 0.0
C436 C 0.76631 0.73246 0.99711 0.0
C437 C 0.78154 0.74898 1.00726 0.0
C438 C 0.77338 0.7721 0.01175 0.0
C439 C 0.74988 0.77811 1.00604 0.0
C440 C 0.73487 0.76091 0.99664 0.0
C441 C 0.73936 0.80162 0.01042 0.0
C442 C 0.72773 0.80592 0.03182 0.0
C443 C 0.73469 0.8164 0.99115 0.0
C444 C 0.71776 0.83428 0.9928 0.0
C445 C 0.70487 0.83765 0.01374 0.0
C446 C 0.80507 0.74004 0.01413 0.0
C447 C 0.80633 0.7237 0.03269 0.0
C448 C 0.82371 0.74106 0.99796 0.0
C449 C 0.84228 0.72477 0.99924 0.0
C450 C 0.84235 0.70677 0.01643 0.0
C451 C 0.82463 0.70724 0.0338 0.0
C452 C 0.71072 0.82378 0.03349 0.0
H453 H 0.71234 0.66275 1.00068 0.0
H454 H 0.74184 0.69259 0.00833 0.0
H455 H 0.70542 0.74074 0.96176 0.0
H456 H 0.67512 0.71082 0.95504 0.0
H457 H 0.77277 0.71482 0.99354 0.0
H458 H 0.71656 0.76531 0.99354 0.0
H459 H 0.78492 0.785 0.01977 0.0
H460 H 0.73052 0.79434 0.04674 0.0
H461 H 0.74286 0.81296 0.97424 0.0
H462 H 0.71367 0.84436 0.97712 0.0
H463 H 0.79184 0.72211 0.045 0.0
H464 H 0.82293 0.75312 0.98318 0.0
H465 H 0.70147 0.82607 0.05002 0.0
H466 H 0.8237 0.69375 0.04724 0.0
H467 H 0.85589 0.72556 0.98592 0.0
C468 C 0.5077 0.83044 0.80452 0.0
C469 C 0.5208 0.8265 0.82511 0.0
C470 C 0.50727 0.81366 0.78669 0.0
C471 C 0.52028 0.79272 0.78883 0.0
C472 C 0.53428 0.78925 0.80895 0.0
C473 C 0.53448 0.80597 0.82699 0.0
C474 C 0.51766 0.774 0.77087 0.0
C475 C 0.51505 0.7799 0.74712 0.0
C476 C 0.50868 0.76297 0.73034 0.0
C477 C 0.50605 0.73914 0.73736 0.0
C478 C 0.50971 0.7329 0.76128 0.0
C479 C 0.51533 0.75046 0.77769 0.0
C480 C 0.5068 0.70876 0.77093 0.0
C481 C 0.48529 0.70254 0.78142 0.0
C482 C 0.527 0.69578 0.77686 0.0
C483 C 0.52603 0.67802 0.79402 0.0
C484 C 0.50484 0.67293 0.80589 0.0
C485 C 0.50348 0.77216 0.70639 0.0
C486 C 0.48391 0.78705 0.7037 0.0
C487 C 0.52137 0.77308 0.68938 0.0
C488 C 0.52055 0.78982 0.67113 0.0
C489 C 0.50204 0.80641 0.66977 0.0
C490 C 0.48323 0.80399 0.68577 0.0
C491 C 0.48429 0.6848 0.79864 0.0
H492 H 0.49738 0.84633 0.80233 0.0
H493 H 0.496 0.8168 0.77162 0.0
H494 H 0.54473 0.77342 0.81096 0.0
H495 H 0.54471 0.80243 0.84269 0.0
H496 H 0.5172 0.7981 0.74165 0.0
H497 H 0.51687 0.74577 0.79616 0.0
H498 H 0.5009 0.72588 0.72464 0.0
H499 H 0.4696 0.71272 0.77771 0.0
H500 H 0.54395 0.70076 0.76967 0.0
H501 H 0.54228 0.6695 0.79917 0.0
H502 H 0.47017 0.78717 0.71695 0.0
H503 H 0.53692 0.76221 0.69131 0.0
H504 H 0.46758 0.68113 0.80703 0.0
H505 H 0.46872 0.81632 0.68577 0.0
H506 H 0.53508 0.79047 0.65882 0.0
C507 C 0.2116 0.49862 0.83395 0.0
C508 C 0.19201 0.48431 0.82947 0.0
C509 C 0.22876 0.50177 0.81675 0.0
C510 C 0.22683 0.49038 0.79482 0.0
C511 C 0.20763 0.47528 0.79073 0.0
C512 C 0.19024 0.47242 0.80786 0.0
C513 C 0.24396 0.4957 0.77588 0.0
C514 C 0.26764 0.49951 0.78131 0.0
C515 C 0.28345 0.50787 0.76434 0.0
C516 C 0.2756 0.51154 0.74096 0.0
C517 C 0.25185 0.50676 0.73512 0.0
C518 C 0.23633 0.49907 0.7527 0.0
C519 C 0.24157 0.51032 0.71137 0.0
C520 C 0.23043 0.53178 0.70612 0.0
C521 C 0.23627 0.49048 0.69758 0.0
C522 C 0.21913 0.49167 0.67985 0.0
C523 C 0.20669 0.51273 0.67562 0.0
C524 C 0.3073 0.5139 0.77305 0.0
C525 C 0.30968 0.53393 0.78742 0.0
C526 C 0.3246 0.49625 0.7743 0.0
C527 C 0.34288 0.49779 0.79091 0.0
C528 C 0.34386 0.51677 0.80686 0.0
C529 C 0.32767 0.5353 0.80422 0.0
C530 C 0.21324 0.533 0.6884 0.0
H531 H 0.21311 0.50826 0.85036 0.0
H532 H 0.24299 0.51393 0.82034 0.0
H533 H 0.20582 0.46599 0.77416 0.0
H534 H 0.17527 0.4612 0.80415 0.0
H535 H 0.2738 0.49663 0.79918 0.0
H536 H 0.2179 0.4966 0.74835 0.0
H537 H 0.28759 0.51822 0.72771 0.0
H538 H 0.23371 0.54717 0.71694 0.0
H539 H 0.24402 0.47355 0.70179 0.0
H540 H 0.21452 0.47562 0.67062 0.0
H541 H 0.29624 0.54747 0.78726 0.0
H542 H 0.32277 0.4803 0.76398 0.0
H543 H 0.20438 0.54962 0.6854 0.0
H544 H 0.32809 0.55024 0.8161 0.0
H545 H 0.35504 0.48319 0.79258 0.0
C546 C 0.48918 0.20438 0.82283 0.0
C547 C 0.50724 0.18748 0.82355 0.0
C548 C 0.48942 0.22205 0.80581 0.0
C549 C 0.50759 0.22296 0.78913 0.0
C550 C 0.52554 0.20602 0.78968 0.0
C551 C 0.52543 0.18848 0.80682 0.0
C552 C 0.50787 0.24162 0.77117 0.0
C553 C 0.50504 0.26509 0.77773 0.0
C554 C 0.50546 0.28321 0.76095 0.0
C555 C 0.50881 0.27739 0.73679 0.0
C556 C 0.51164 0.25338 0.73012 0.0
C557 C 0.51111 0.23591 0.74755 0.0
C558 C 0.5148 0.24472 0.70553 0.0
C559 C 0.49526 0.24258 0.69055 0.0
C560 C 0.53499 0.23135 0.70037 0.0
C561 C 0.53485 0.21453 0.68229 0.0
C562 C 0.51459 0.21075 0.66844 0.0
C563 C 0.50283 0.30756 0.77046 0.0
C564 C 0.48273 0.31276 0.78395 0.0
C565 C 0.52261 0.32219 0.7729 0.0
C566 C 0.52292 0.34032 0.78986 0.0
C567 C 0.50357 0.34401 0.80512 0.0
C568 C 0.48312 0.33052 0.80109 0.0
C569 C 0.49523 0.22599 0.67209 0.0
H570 H 0.47474 0.20381 0.83527 0.0
H571 H 0.47526 0.23483 0.80549 0.0
H572 H 0.53986 0.20661 0.77709 0.0
H573 H 0.53978 0.17593 0.80719 0.0
H574 H 0.50297 0.26936 0.79627 0.0
H575 H 0.51287 0.21751 0.7426 0.0
H576 H 0.50921 0.29114 0.72357 0.0
H577 H 0.47928 0.25229 0.69432 0.0
H578 H 0.55014 0.2322 0.71194 0.0
H579 H 0.55014 0.20334 0.68056 0.0
H580 H 0.46738 0.30148 0.78284 0.0
H581 H 0.53852 0.31838 0.76311 0.0
H582 H 0.4795 0.22439 0.66147 0.0
H583 H 0.46784 0.3323 0.8123 0.0
H584 H 0.5388 0.35067 0.79167 0.0
C585 C 0.82617 0.53282 0.8071 0.0
C586 C 0.82384 0.5192 0.82765 0.0
C587 C 0.80859 0.53248 0.78994 0.0
C588 C 0.7885 0.51836 0.79296 0.0
C589 C 0.78593 0.50533 0.81386 0.0
C590 C 0.80329 0.50593 0.83108 0.0
C591 C 0.77095 0.51577 0.77388 0.0
C592 C 0.77821 0.51357 0.75046 0.0
C593 C 0.76211 0.50818 0.73256 0.0
C594 C 0.73811 0.50457 0.7383 0.0
C595 C 0.73069 0.50704 0.762 0.0
C596 C 0.74713 0.5132 0.7793 0.0
C597 C 0.70658 0.50196 0.77064 0.0
C598 C 0.69003 0.52024 0.77197 0.0
C599 C 0.70339 0.48202 0.78498 0.0
C600 C 0.6855 0.48137 0.80192 0.0
C601 C 0.67006 0.50059 0.80486 0.0
C602 C 0.77211 0.50548 0.70858 0.0
C603 C 0.77819 0.52584 0.69588 0.0
C604 C 0.78266 0.48399 0.70232 0.0
C605 C 0.80008 0.48316 0.68482 0.0
C606 C 0.80747 0.50385 0.67325 0.0
C607 C 0.79557 0.52503 0.67835 0.0
C608 C 0.67181 0.51946 0.7887 0.0
H609 H 0.84187 0.54316 0.80392 0.0
H610 H 0.81093 0.54293 0.77415 0.0
H611 H 0.77086 0.49398 0.81664 0.0
H612 H 0.80076 0.49563 0.84695 0.0
H613 H 0.79674 0.5151 0.74613 0.0
H614 H 0.74132 0.51525 0.79739 0.0
H615 H 0.72563 0.49961 0.72476 0.0
H616 H 0.69236 0.53604 0.76152 0.0
H617 H 0.7163 0.46797 0.78478 0.0
H618 H 0.68513 0.46655 0.81391 0.0
H619 H 0.77094 0.54276 0.7009 0.0
H620 H 0.7788 0.46818 0.71231 0.0
H621 H 0.65991 0.53431 0.78975 0.0
H622 H 0.80082 0.54138 0.67004 0.0
H623 H 0.80851 0.46645 0.68111 0.0
C624 C 0.49186 0.18919 0.20703 0.0
C625 C 0.50667 0.1914 0.18733 0.0
C626 C 0.49191 0.20633 0.22459 0.0
C627 C 0.50701 0.22586 0.22297 0.0
C628 C 0.52191 0.22801 0.20334 0.0
C629 C 0.52163 0.21104 0.18563 0.0
C630 C 0.50727 0.24393 0.24173 0.0
C631 C 0.50566 0.23737 0.26537 0.0
C632 C 0.5057 0.25423 0.28341 0.0
C633 C 0.50813 0.27844 0.27753 0.0
C634 C 0.51007 0.28514 0.25351 0.0
C635 C 0.50923 0.26775 0.23601 0.0
C636 C 0.51298 0.30974 0.24493 0.0
C637 C 0.49328 0.32448 0.2427 0.0
C638 C 0.53322 0.31512 0.23176 0.0
C639 C 0.53304 0.33324 0.21502 0.0
C640 C 0.51266 0.34686 0.21114 0.0
C641 C 0.5033 0.24486 0.30778 0.0
C642 C 0.48316 0.23153 0.3132 0.0
C643 C 0.52321 0.24239 0.32219 0.0
C644 C 0.52358 0.22555 0.34039 0.0
C645 C 0.50417 0.21044 0.34431 0.0
C646 C 0.48361 0.2145 0.33103 0.0
C647 C 0.4932 0.34298 0.22619 0.0
H648 H 0.48036 0.1741 0.20903 0.0
H649 H 0.48001 0.20433 0.23936 0.0
H650 H 0.53397 0.2427 0.20174 0.0
H651 H 0.53303 0.21342 0.17052 0.0
H652 H 0.50466 0.21882 0.2699 0.0
H653 H 0.50994 0.27295 0.21762 0.0
H654 H 0.5085 0.29168 0.29127 0.0
H655 H 0.47728 0.3205 0.25227 0.0
H656 H 0.54848 0.3037 0.23269 0.0
H657 H 0.5484 0.33517 0.20393 0.0
H658 H 0.46772 0.23268 0.30204 0.0
H659 H 0.53914 0.25208 0.31817 0.0
H660 H 0.47737 0.35343 0.22446 0.0
H661 H 0.46828 0.20337 0.33301 0.0
H662 H 0.53955 0.22365 0.35059 0.0
C663 C 0.82852 0.49156 0.20901 0.0
C664 C 0.82532 0.50465 0.18825 0.0
C665 C 0.81129 0.49156 0.22646 0.0
C666 C 0.79064 0.50483 0.22357 0.0
C667 C 0.78744 0.5179 0.2028 0.0
C668 C 0.80454 0.5177 0.18526 0.0
C669 C 0.77256 0.50524 0.24224 0.0
C670 C 0.7791 0.50663 0.26591 0.0
C671 C 0.76217 0.50728 0.28381 0.0
C672 C 0.73796 0.50692 0.27783 0.0
C673 C 0.73131 0.50563 0.2538 0.0
C674 C 0.74872 0.50456 0.2364 0.0
C675 C 0.70671 0.5059 0.24515 0.0
C676 C 0.69694 0.48482 0.23661 0.0
C677 C 0.69715 0.52738 0.23746 0.0
C678 C 0.67955 0.52782 0.22013 0.0
C679 C 0.67119 0.50675 0.20999 0.0
C680 C 0.77142 0.5081 0.30822 0.0
C681 C 0.77847 0.48694 0.31892 0.0
C682 C 0.78083 0.52938 0.31666 0.0
C683 C 0.79823 0.52937 0.33417 0.0
C684 C 0.80679 0.50804 0.34355 0.0
C685 C 0.79589 0.48689 0.33643 0.0
C686 C 0.67933 0.48523 0.2193 0.0
H687 H 0.84448 0.48155 0.21195 0.0
H688 H 0.81412 0.48109 0.24216 0.0
H689 H 0.77183 0.52853 0.2002 0.0
H690 H 0.80142 0.5277 0.16931 0.0
H691 H 0.7976 0.50745 0.27055 0.0
H692 H 0.74354 0.5032 0.21804 0.0
H693 H 0.72468 0.50766 0.29149 0.0
H694 H 0.70443 0.46803 0.24175 0.0
H695 H 0.7049 0.54388 0.24314 0.0
H696 H 0.6739 0.54475 0.2134 0.0
H697 H 0.77211 0.47024 0.31219 0.0
H698 H 0.7762 0.54589 0.30825 0.0
H699 H 0.67299 0.46863 0.21234 0.0
H700 H 0.80202 0.47009 0.34305 0.0
H701 H 0.80581 0.54605 0.33952 0.0
C702 C 0.49309 0.80699 0.18836 0.0
C703 C 0.50777 0.82676 0.19084 0.0
C704 C 0.49313 0.78929 0.20534 0.0
C705 C 0.50807 0.79084 0.22498 0.0
C706 C 0.52294 0.81048 0.22734 0.0
C707 C 0.52268 0.82833 0.21052 0.0
C708 C 0.50802 0.77209 0.24306 0.0
C709 C 0.50633 0.74846 0.2365 0.0
C710 C 0.5057 0.73046 0.25339 0.0
C711 C 0.50757 0.73636 0.27764 0.0
C712 C 0.50963 0.76038 0.28434 0.0
C713 C 0.50948 0.77785 0.2669 0.0
C714 C 0.51194 0.76904 0.30896 0.0
C715 C 0.49164 0.77274 0.32265 0.0
C716 C 0.53261 0.7813 0.31502 0.0
C717 C 0.53238 0.79857 0.33264 0.0
C718 C 0.51159 0.80371 0.34498 0.0
C719 C 0.50302 0.70612 0.24397 0.0
C720 C 0.48294 0.70103 0.23044 0.0
C721 C 0.52277 0.69146 0.2416 0.0
C722 C 0.52304 0.67332 0.22468 0.0
C723 C 0.50372 0.66971 0.20938 0.0
C724 C 0.48331 0.68326 0.21332 0.0
C725 C 0.49153 0.78979 0.34067 0.0
H726 H 0.48166 0.80508 0.17321 0.0
H727 H 0.48126 0.77451 0.20318 0.0
H728 H 0.53488 0.81202 0.24214 0.0
H729 H 0.534 0.84347 0.21308 0.0
H730 H 0.50568 0.74391 0.21794 0.0
H731 H 0.51027 0.79624 0.27209 0.0
H732 H 0.50737 0.72265 0.29092 0.0
H733 H 0.4753 0.76411 0.31796 0.0
H734 H 0.54834 0.77924 0.30443 0.0
H735 H 0.54814 0.80888 0.33569 0.0
H736 H 0.46765 0.71239 0.23149 0.0
H737 H 0.53866 0.69523 0.25144 0.0
H738 H 0.47524 0.79342 0.34988 0.0
H739 H 0.46806 0.68154 0.20205 0.0
H740 H 0.53889 0.66291 0.2229 0.0
C741 C 0.20666 0.4912 0.18826 0.0
C742 C 0.18899 0.50845 0.18866 0.0
C743 C 0.22414 0.49113 0.20544 0.0
C744 C 0.22398 0.50813 0.22338 0.0
C745 C 0.20624 0.52531 0.22386 0.0
C746 C 0.18892 0.52556 0.2065 0.0
C747 C 0.24231 0.50792 0.24162 0.0
C748 C 0.26596 0.50707 0.23526 0.0
C749 C 0.28368 0.50696 0.25239 0.0
C750 C 0.27743 0.50736 0.27658 0.0
C751 C 0.25332 0.50806 0.283 0.0
C752 C 0.23611 0.50851 0.26536 0.0
C753 C 0.24445 0.50807 0.30756 0.0
C754 C 0.23645 0.48676 0.31728 0.0
C755 C 0.23623 0.52933 0.3172 0.0
C756 C 0.21905 0.52929 0.33495 0.0
C757 C 0.20952 0.50795 0.34334 0.0
C758 C 0.30814 0.50671 0.24336 0.0
C759 C 0.31745 0.48539 0.23491 0.0
C760 C 0.31807 0.52795 0.23544 0.0
C761 C 0.33566 0.52793 0.2181 0.0
C762 C 0.34367 0.50663 0.20817 0.0
C763 C 0.33507 0.48533 0.2176 0.0
C764 C 0.21924 0.48669 0.335 0.0
H765 H 0.20706 0.47794 0.17452 0.0
H766 H 0.23764 0.47766 0.20489 0.0
H767 H 0.20593 0.53865 0.23752 0.0
H768 H 0.17533 0.53893 0.20716 0.0
H769 H 0.27069 0.50686 0.21672 0.0
H770 H 0.21763 0.50891 0.27021 0.0
H771 H 0.29094 0.50715 0.29004 0.0
H772 H 0.24197 0.47012 0.30971 0.0
H773 H 0.24149 0.54599 0.30949 0.0
H774 H 0.21198 0.54603 0.34074 0.0
H775 H 0.30956 0.46879 0.24009 0.0
H776 H 0.31076 0.54464 0.24114 0.0
H777 H 0.2127 0.46991 0.34132 0.0
H778 H 0.34062 0.46857 0.21036 0.0
H779 H 0.34215 0.54467 0.21164 0.0
C780 C 0.82951 0.80653 0.49985 0.0
C781 C 0.82554 0.82713 0.5129 0.0
C782 C 0.81245 0.78895 0.49903 0.0
C783 C 0.79124 0.79156 0.51148 0.0
C784 C 0.78743 0.81213 0.52475 0.0
C785 C 0.8044 0.82984 0.52533 0.0
C786 C 0.77304 0.77301 0.51032 0.0
C787 C 0.77938 0.74925 0.5109 0.0
C788 C 0.76243 0.73143 0.50907 0.0
C789 C 0.73836 0.73758 0.50702 0.0
C790 C 0.73186 0.76168 0.50678 0.0
C791 C 0.74931 0.77903 0.50824 0.0
C792 C 0.70732 0.77038 0.50522 0.0
C793 C 0.69933 0.77963 0.48371 0.0
C794 C 0.69577 0.77708 0.52605 0.0
C795 C 0.67783 0.79405 0.52557 0.0
C796 C 0.67113 0.80484 0.50424 0.0
C797 C 0.77153 0.70695 0.50892 0.0
C798 C 0.77911 0.69717 0.48749 0.0
C799 C 0.78015 0.69737 0.53005 0.0
C800 C 0.79733 0.67965 0.52974 0.0
C801 C 0.80643 0.67118 0.50826 0.0
C802 C 0.7963 0.67942 0.48715 0.0
C803 C 0.68139 0.79659 0.4832 0.0
H804 H 0.84562 0.80425 0.48989 0.0
H805 H 0.81571 0.7735 0.4883 0.0
H806 H 0.77141 0.81446 0.53482 0.0
H807 H 0.80113 0.84555 0.53568 0.0
H808 H 0.79777 0.74445 0.51279 0.0
H809 H 0.74428 0.79746 0.50748 0.0
H810 H 0.72505 0.72399 0.50568 0.0
H811 H 0.70836 0.77527 0.46747 0.0
H812 H 0.70211 0.77084 0.54294 0.0
H813 H 0.67052 0.79998 0.54217 0.0
H814 H 0.77335 0.70476 0.47095 0.0
H815 H 0.77509 0.70503 0.54679 0.0
H816 H 0.67641 0.80411 0.46638 0.0
H817 H 0.80289 0.67348 0.47026 0.0
H818 H 0.80433 0.67343 0.54636 0.0
C819 C 0.82642 0.20859 0.54969 0.0
C820 C 0.82513 0.1864 0.53889 0.0
C821 C 0.80882 0.2253 0.54572 0.0
C822 C 0.78994 0.22018 0.5305 0.0
C823 C 0.78841 0.19759 0.52041 0.0
C824 C 0.80572 0.18084 0.52473 0.0
C825 C 0.77301 0.23873 0.52335 0.0
C826 C 0.78075 0.26173 0.51902 0.0
C827 C 0.76568 0.27868 0.50928 0.0
C828 C 0.74233 0.27235 0.50331 0.0
C829 C 0.73436 0.24919 0.50792 0.0
C830 C 0.74962 0.23293 0.51845 0.0
C831 C 0.71103 0.23995 0.50083 0.0
C832 C 0.69234 0.24046 0.51696 0.0
C833 C 0.71009 0.22381 0.48208 0.0
C834 C 0.69205 0.20705 0.48073 0.0
C835 C 0.67434 0.20607 0.49808 0.0
C836 C 0.77603 0.30224 0.50487 0.0
C837 C 0.7804 0.3171 0.52417 0.0
C838 C 0.78802 0.30644 0.48365 0.0
C839 C 0.80514 0.32422 0.48222 0.0
C840 C 0.81075 0.33809 0.50206 0.0
C841 C 0.79746 0.33487 0.52277 0.0
C842 C 0.67407 0.22387 0.51548 0.0
H843 H 0.84128 0.21316 0.56075 0.0
H844 H 0.81032 0.24239 0.55409 0.0
H845 H 0.77449 0.19313 0.50817 0.0
H846 H 0.80459 0.16395 0.51588 0.0
H847 H 0.79897 0.26638 0.52228 0.0
H848 H 0.7433 0.21526 0.52211 0.0
H849 H 0.73077 0.28505 0.49501 0.0
H850 H 0.69289 0.25236 0.53188 0.0
H851 H 0.72464 0.22261 0.46978 0.0
H852 H 0.6932 0.19372 0.46714 0.0
H853 H 0.77195 0.31372 0.54095 0.0
H854 H 0.78546 0.29481 0.46874 0.0
H855 H 0.66044 0.22423 0.52879 0.0
H856 H 0.80134 0.34495 0.53849 0.0
H857 H 0.81469 0.32641 0.46586 0.0
C858 C 0.20915 0.83492 0.51754 0.0
C859 C 0.18963 0.83012 0.53184 0.0
C860 C 0.2264 0.81788 0.51412 0.0
C861 C 0.22466 0.7958 0.52522 0.0
C862 C 0.20553 0.79137 0.54032 0.0
C863 C 0.18803 0.80835 0.54344 0.0
C864 C 0.24193 0.77708 0.51959 0.0
C865 C 0.2655 0.7828 0.51561 0.0
C866 C 0.28142 0.76611 0.50689 0.0
C867 C 0.27381 0.74265 0.50315 0.0
C868 C 0.25016 0.73651 0.50809 0.0
C869 C 0.23452 0.75384 0.51608 0.0
C870 C 0.2401 0.71268 0.50439 0.0
C871 C 0.22873 0.70756 0.48302 0.0
C872 C 0.23517 0.69862 0.52414 0.0
C873 C 0.21816 0.68076 0.52298 0.0
C874 C 0.20547 0.67666 0.50204 0.0
C875 C 0.30514 0.77514 0.50081 0.0
C876 C 0.30707 0.79081 0.48174 0.0
C877 C 0.32299 0.77504 0.51789 0.0
C878 C 0.34136 0.79158 0.51691 0.0
C879 C 0.34203 0.80893 0.49907 0.0
C880 C 0.32519 0.80752 0.48089 0.0
C881 C 0.21166 0.68971 0.48183 0.0
H882 H 0.21052 0.85145 0.50809 0.0
H883 H 0.24054 0.82174 0.50193 0.0
H884 H 0.20387 0.77467 0.5494 0.0
H885 H 0.1731 0.80438 0.55462 0.0
H886 H 0.27152 0.8007 0.51866 0.0
H887 H 0.21617 0.74927 0.51866 0.0
H888 H 0.28588 0.7296 0.49626 0.0
H889 H 0.2317 0.71857 0.46771 0.0
H890 H 0.24311 0.70272 0.54101 0.0
H891 H 0.21383 0.67133 0.53898 0.0
H892 H 0.29319 0.79171 0.46868 0.0
H893 H 0.32165 0.76352 0.53305 0.0
H894 H 0.2026 0.68682 0.4653 0.0
H895 H 0.32473 0.82049 0.46693 0.0
H896 H 0.35431 0.79151 0.53089 0.0
C897 C 0.21173 0.18524 0.51507 0.0
C898 C 0.19119 0.18887 0.50189 0.0
C899 C 0.22894 0.20268 0.51609 0.0
C900 C 0.22597 0.22392 0.50371 0.0
C901 C 0.20548 0.22736 0.49027 0.0
C902 C 0.18816 0.21002 0.4895 0.0
C903 C 0.2441 0.24253 0.505 0.0
C904 C 0.26795 0.23669 0.50438 0.0
C905 C 0.28536 0.25407 0.506 0.0
C906 C 0.27872 0.27805 0.50788 0.0
C907 C 0.25453 0.28403 0.50827 0.0
C908 C 0.23758 0.26617 0.50702 0.0
C909 C 0.24535 0.30843 0.50961 0.0
C910 C 0.23573 0.31634 0.53099 0.0
C911 C 0.23866 0.31975 0.48865 0.0
C912 C 0.22137 0.33738 0.48886 0.0
C913 C 0.21025 0.34398 0.51006 0.0
C914 C 0.30998 0.24551 0.50596 0.0
C915 C 0.31986 0.23771 0.52726 0.0
C916 C 0.31964 0.23735 0.48469 0.0
C917 C 0.33749 0.22032 0.48471 0.0
C918 C 0.34601 0.21092 0.50603 0.0
C919 C 0.33774 0.22067 0.52732 0.0
C920 C 0.21845 0.33397 0.53123 0.0
H921 H 0.21425 0.16911 0.52498 0.0
H922 H 0.24436 0.19969 0.5269 0.0
H923 H 0.2029 0.24338 0.48023 0.0
H924 H 0.1725 0.21302 0.47904 0.0
H925 H 0.27313 0.21837 0.50254 0.0
H926 H 0.21908 0.27081 0.50781 0.0
H927 H 0.29201 0.29168 0.509 0.0
H928 H 0.24009 0.30746 0.54731 0.0
H929 H 0.2452 0.31344 0.47186 0.0
H930 H 0.21549 0.3445 0.47217 0.0
H931 H 0.31221 0.24311 0.5439 0.0
H932 H 0.31191 0.24259 0.46804 0.0
H933 H 0.21068 0.33891 0.54794 0.0
H934 H 0.34373 0.21384 0.54409 0.0
H935 H 0.34374 0.21362 0.46798 0.0
C936 C 0.00729 0.95286 0.56529 0.0
C937 C 1.00588 0.95188 0.44942 0.0
C938 C 0.00973 0.06626 0.56394 0.0
C939 C 1.00579 0.06527 0.44849 0.0
C940 C 0.95143 0.06719 0.51074 0.0
C941 C 0.94939 0.95298 0.50809 0.0
C942 C 0.06521 0.06513 0.50467 0.0
C943 C 0.06334 0.95099 0.50932 0.0
C944 C 0.06274 0.00766 0.44791 0.0
C945 C 0.94947 0.00863 0.45033 0.0
C946 C 0.06505 0.00943 0.56376 0.0
C947 C 0.95189 0.00984 0.56591 0.0
Eu948 Eu 0.00661 0.96398 0.50726 0.0
O949 O 0.98549 0.9882 0.487 0.0
O950 O 0.02842 0.98782 0.52722 0.0
Eu951 Eu 0.9623 0.00988 0.50783 0.0
Eu952 Eu 0.05236 0.00825 0.50603 0.0
O953 O 0.98633 0.98851 0.52806 0.0
O954 O 0.02771 0.98734 0.48592 0.0
Eu955 Eu 0.00824 0.00947 0.55063 0.0
Eu956 Eu 1.00631 0.00869 0.46306 0.0
O957 O 0.98713 0.03064 0.5276 0.0
O958 O 0.98591 0.03056 0.48631 0.0
O959 O 0.02827 0.02953 0.48569 0.0
O960 O 0.02916 0.03006 0.52678 0.0
Eu961 Eu 0.00802 0.05412 0.50634 0.0
O962 O 1.00615 0.94475 0.54308 0.0
O963 O 1.0065 0.94409 0.47177 0.0
O964 O 0.00889 0.07396 0.54162 0.0
O965 O 0.00745 0.07332 0.47065 0.0
O966 O 0.94369 0.04499 0.51001 0.0
O967 O 0.94242 0.97544 0.50853 0.0
O968 O 0.07219 0.04269 0.50521 0.0
O969 O 0.07106 0.97315 0.50762 0.0
O970 O 0.04002 0.00845 0.44215 0.0
O971 O 0.97184 1.00713 0.44352 0.0
O972 O 0.04255 0.00941 0.57028 0.0
O973 O 0.97462 0.00999 0.57162 0.0
O974 O 0.04302 0.07282 0.50489 0.0
O975 O 0.97381 0.07414 0.50922 0.0
O976 O 0.04091 0.94407 0.50928 0.0
O977 O 0.97157 0.94531 0.50736 0.0
O978 O 1.00576 0.97447 0.44311 0.0
O979 O 1.00478 0.04263 0.44231 0.0
O980 O 0.00837 0.97555 0.5712 0.0
O981 O 0.00982 0.04376 0.5706 0.0
O982 O 0.94352 0.00977 0.54379 0.0
O983 O 0.94208 0.01064 0.47269 0.0
O984 O 0.0726 0.00895 0.54133 0.0
O985 O 0.07109 0.00735 0.47005 0.0
C986 C 0.50714 0.95155 0.06602 0.0
C987 C 0.50744 0.06566 0.06339 0.0
C988 C 0.50944 0.94881 0.95191 0.0
C989 C 0.50825 0.06304 0.94925 0.0
C990 C 0.56583 1.00655 0.9512 0.0
C991 C 0.56541 0.00916 0.06453 0.0
C992 C 0.45016 1.00503 0.95074 0.0
C993 C 0.44976 0.00907 0.06394 0.0
C994 C 0.45032 0.06415 1.00531 0.0
C995 C 0.56599 0.06365 1.00653 0.0
C996 C 0.44969 0.95091 0.00894 0.0
C997 C 0.56519 0.95021 0.01031 0.0
Eu998 Eu 0.50763 0.00832 0.05274 0.0
O999 O 0.5284 0.02882 0.0284 0.0
O1000 O 0.48712 0.98672 0.02914 0.0
Eu1001 Eu 0.5514 1.00702 0.00784 0.0
Eu1002 Eu 0.46428 0.00746 0.00738 0.0
O1003 O 0.52811 0.98647 0.02934 0.0
O1004 O 0.48735 0.029 0.02815 0.0
Eu1005 Eu 0.50754 0.96213 0.00866 0.0
Eu1006 Eu 0.50811 0.0524 1.00662 0.0
O1007 O 0.52825 0.98556 0.98705 0.0
O1008 O 0.52846 0.02774 0.98612 0.0
O1009 O 0.48753 0.02806 0.98587 0.0
O1010 O 0.48723 0.98563 0.98676 0.0
Eu1011 Eu 0.50794 1.00622 0.96245 0.0
O1012 O 0.50807 0.97402 0.07286 0.0
O1013 O 0.50677 0.0435 0.07122 0.0
O1014 O 0.50865 0.97097 0.94405 0.0
O1015 O 0.50758 0.04056 0.94238 0.0
O1016 O 0.57184 1.00652 0.97389 0.0
O1017 O 0.57157 0.00822 0.04192 0.0
O1018 O 0.444 1.0057 0.97337 0.0
O1019 O 0.4438 0.00902 0.04125 0.0
O1020 O 0.47259 0.07207 1.00588 0.0
O1021 O 0.54378 0.07173 1.00624 0.0
O1022 O 0.47187 0.94278 0.00842 0.0
O1023 O 0.54289 0.94243 0.0103 0.0
O1024 O 0.47242 1.00534 0.9428 0.0
O1025 O 0.54362 1.00636 0.94312 0.0
O1026 O 0.47194 0.0085 0.07207 0.0
O1027 O 0.54313 0.00934 0.07243 0.0
O1028 O 0.50833 0.07251 0.04092 0.0
O1029 O 0.50876 0.07083 0.97143 0.0
O1030 O 0.50642 0.94371 0.04386 0.0
O1031 O 0.50929 0.94197 0.9744 0.0
O1032 O 0.57152 0.9728 0.00926 0.0
O1033 O 0.57195 0.04095 1.0071 0.0
O1034 O 0.44375 0.9736 0.00891 0.0
O1035 O 0.44413 0.04152 1.00562 0.0
C1036 C 0.00866 0.45003 0.0644 0.0
C1037 C 1.0062 0.4489 0.95092 0.0
C1038 C 0.00747 0.56575 0.0631 0.0
C1039 C 0.00751 0.56477 0.94976 0.0
C1040 C 0.95066 0.56468 1.00669 0.0
C1041 C 0.95103 0.4493 0.00766 0.0
C1042 C 0.06392 0.56539 1.00608 0.0
C1043 C 0.06425 0.44956 0.00824 0.0
C1044 C 0.06462 0.50403 0.94997 0.0
C1045 C 0.95074 0.50866 0.94978 0.0
C1046 C 0.06432 0.5082 0.06413 0.0
C1047 C 0.95034 0.50691 0.06386 0.0
Eu1048 Eu 0.00759 0.46344 0.00759 0.0
O1049 O 0.98661 0.48635 0.98597 0.0
O1050 O 0.02857 0.48708 0.02834 0.0
Eu1051 Eu 0.96261 0.50702 1.00689 0.0
Eu1052 Eu 0.05253 0.50746 1.007 0.0
O1053 O 0.98633 0.48669 0.02845 0.0
O1054 O 0.02855 0.4866 0.98623 0.0
Eu1055 Eu 0.00733 0.5077 0.05211 0.0
Eu1056 Eu 0.00765 0.50689 0.96183 0.0
O1057 O 0.98631 0.52802 0.02787 0.0
O1058 O 0.98652 0.52747 0.98568 0.0
O1059 O 0.02875 0.52793 0.98547 0.0
O1060 O 0.02839 0.52808 0.02789 0.0
Eu1061 Eu 0.00736 0.55103 1.00651 0.0
O1062 O 0.00947 0.4434 0.0419 0.0
O1063 O 0.00688 0.44292 0.97362 0.0
O1064 O 0.00746 0.57167 0.04039 0.0
O1065 O 0.00697 0.57102 0.97236 0.0
O1066 O 0.94295 0.54238 0.00774 0.0
O1067 O 0.94321 0.47151 1.0059 0.0
O1068 O 0.07195 0.54313 1.00631 0.0
O1069 O 0.07213 0.47188 0.00816 0.0
O1070 O 0.04232 0.50425 0.94261 0.0
O1071 O 0.97304 0.50852 0.94245 0.0
O1072 O 0.04201 0.50754 0.07143 0.0
O1073 O 0.9726 0.50722 0.07131 0.0
O1074 O 0.04129 0.57144 1.00618 0.0
O1075 O 0.97316 0.57121 1.00575 0.0
O1076 O 0.04168 0.4433 0.0076 0.0
O1077 O 0.97355 0.44296 0.00922 0.0
O1078 O 1.00618 0.4711 0.94276 0.0
O1079 O 0.00835 0.54242 0.94194 0.0
O1080 O 0.00715 0.47236 0.07202 0.0
O1081 O 0.00726 0.54354 0.07128 0.0
O1082 O 0.94312 0.50683 0.0415 0.0
O1083 O 0.94339 0.50786 0.9721 0.0
O1084 O 0.07169 0.50859 0.04181 0.0
O1085 O 0.07191 0.50564 0.97228 0.0
C1086 C 0.50728 0.45154 0.06579 0.0
C1087 C 0.50994 0.56504 0.0641 0.0
C1088 C 0.51007 0.44957 0.95012 0.0
C1089 C 0.5073 0.56313 0.94834 0.0
C1090 C 0.56552 0.5072 0.94987 0.0
C1091 C 0.56485 0.50864 0.0655 0.0
C1092 C 0.45207 0.50634 0.94931 0.0
C1093 C 0.45173 0.50768 0.06493 0.0
C1094 C 0.45158 0.56448 1.00659 0.0
C1095 C 0.56543 0.56423 1.00258 0.0
C1096 C 0.45145 0.45047 0.00754 0.0
C1097 C 0.56531 0.4501 0.01016 0.0
Eu1098 Eu 0.50837 0.50813 0.05106 0.0
O1099 O 0.52967 0.52896 0.02766 0.0
O1100 O 0.4875 0.48671 0.02792 0.0
Eu1101 Eu 0.55354 0.50722 0.00758 0.0
Eu1102 Eu 0.46362 0.50749 1.00706 0.0
O1103 O 0.5294 0.48651 0.02827 0.0
O1104 O 0.48728 0.529 0.02756 0.0
Eu1105 Eu 0.50846 0.4623 0.0078 0.0
Eu1106 Eu 0.5085 0.5524 1.00646 0.0
O1107 O 0.52982 0.48577 0.98689 0.0
O1108 O 0.52941 0.52772 0.98661 0.0
O1109 O 0.48768 0.52805 0.98606 0.0
O1110 O 0.48747 0.48591 0.98671 0.0
Eu1111 Eu 0.50876 0.50649 0.96316 0.0
O1112 O 0.50672 0.47422 0.0719 0.0
O1113 O 0.50992 0.54257 0.07091 0.0
O1114 O 0.51114 0.47203 0.94336 0.0
O1115 O 0.50768 0.54039 0.94245 0.0
O1116 O 0.57318 0.50543 0.97217 0.0
O1117 O 0.57291 0.50884 0.04325 0.0
O1118 O 0.4443 0.50825 0.97154 0.0
O1119 O 0.44391 0.50723 0.0426 0.0
O1120 O 0.47388 0.5718 1.00683 0.0
O1121 O 0.54313 0.57155 1.00321 0.0
O1122 O 0.47372 0.44309 0.00851 0.0
O1123 O 0.54302 0.44286 0.00877 0.0
O1124 O 0.47457 0.50466 0.94289 0.0
O1125 O 0.54306 0.50857 0.94329 0.0
O1126 O 0.47429 0.50861 0.0712 0.0
O1127 O 0.54224 0.50778 0.07154 0.0
O1128 O 0.50913 0.57256 0.04169 0.0
O1129 O 0.5074 0.57134 0.97054 0.0
O1130 O 0.50855 0.44337 0.04364 0.0
O1131 O 0.50824 0.44214 0.97251 0.0
O1132 O 0.5727 0.47243 0.01018 0.0
O1133 O 0.57282 0.54197 1.00457 0.0
O1134 O 0.44423 0.47282 1.00654 0.0
O1135 O 0.44426 0.54215 1.0065 0.0
C1136 C 0.01089 0.45072 0.56539 0.0
C1137 C 0.0087 0.44959 0.45119 0.0
C1138 C 0.00733 0.56485 0.56423 0.0
C1139 C 0.00738 0.56375 0.45007 0.0
C1140 C 0.94964 0.56319 0.50691 0.0
C1141 C 0.95108 0.44979 0.50697 0.0
C1142 C 0.06518 0.56473 0.50626 0.0
C1143 C 0.06661 0.45135 0.50804 0.0
C1144 C 0.06617 0.50788 0.45123 0.0
C1145 C 0.95046 0.50604 0.45101 0.0
C1146 C 0.06568 0.50942 0.56463 0.0
C1147 C 0.95014 0.50626 0.56435 0.0
Eu1148 Eu 0.00867 0.46214 0.50817 0.0
O1149 O 0.98804 0.48575 0.48679 0.0
O1150 O 0.02876 0.48669 0.52905 0.0
Eu1151 Eu 0.96457 0.50666 0.50769 0.0
Eu1152 Eu 0.05172 0.50786 0.50785 0.0
O1153 O 0.98766 0.48585 0.52923 0.0
O1154 O 0.02903 0.48614 0.4868 0.0
Eu1155 Eu 0.00795 0.50764 0.5529 0.0
Eu1156 Eu 0.00832 0.5068 0.46256 0.0
O1157 O 0.98728 0.52838 0.52868 0.0
O1158 O 0.98747 0.52785 0.48636 0.0
O1159 O 0.02841 0.52847 0.48643 0.0
O1160 O 0.02827 0.52886 0.52875 0.0
Eu1161 Eu 0.00755 0.55237 0.50728 0.0
O1162 O 0.00969 0.44315 0.54314 0.0
O1163 O 0.00851 0.44248 0.4736 0.0
O1164 O 0.00801 0.57197 0.54183 0.0
O1165 O 0.00668 0.57129 0.47233 0.0
O1166 O 0.94378 0.54045 0.50705 0.0
O1167 O 0.94469 0.47237 0.507 0.0
O1168 O 0.0716 0.54217 0.50702 0.0
O1169 O 0.07244 0.47408 0.5081 0.0
O1170 O 0.04396 0.50719 0.44317 0.0
O1171 O 0.97271 0.50634 0.44302 0.0
O1172 O 0.0434 0.50922 0.57251 0.0
O1173 O 0.97237 0.50648 0.57238 0.0
O1174 O 0.04283 0.57239 0.50627 0.0
O1175 O 0.97178 0.57142 0.50722 0.0
O1176 O 0.04446 0.44309 0.50804 0.0
O1177 O 0.97341 0.44211 0.5077 0.0
O1178 O 0.00888 0.47185 0.44364 0.0
O1179 O 0.0083 0.54136 0.44294 0.0
O1180 O 0.01055 0.47313 0.5725 0.0
O1181 O 0.00677 0.54259 0.57179 0.0
O1182 O 0.94412 0.50642 0.54166 0.0
O1183 O 0.94435 0.50614 0.47366 0.0
O1184 O 0.07189 0.50884 0.542 0.0
O1185 O 0.07218 0.5081 0.47391 0.0
C1186 C 0.50828 0.95038 0.5632 0.0
C1187 C 0.50515 0.94941 0.44969 0.0
C1188 C 0.50853 0.06607 0.56229 0.0
C1189 C 0.51041 0.06504 0.44875 0.0
C1190 C 0.45301 0.067 0.50589 0.0
C1191 C 0.44984 0.95147 0.50762 0.0
C1192 C 0.56634 0.06375 0.50625 0.0
C1193 C 0.56308 0.9482 0.50546 0.0
C1194 C 0.56445 1.00464 0.44835 0.0
C1195 C 0.45069 0.00853 0.44927 0.0
C1196 C 0.56549 1.00665 0.56242 0.0
C1197 C 0.45158 0.0098 0.56327 0.0
Eu1198 Eu 0.50678 0.96369 0.50635 0.0
O1199 O 0.48631 0.98738 0.48508 0.0
O1200 O 0.52863 0.98667 0.527 0.0
Eu1201 Eu 0.46321 0.00885 0.50616 0.0
Eu1202 Eu 0.55293 1.00636 0.50549 0.0
O1203 O 0.48656 0.98775 0.52744 0.0
O1204 O 0.52826 0.98624 0.48485 0.0
Eu1205 Eu 0.50843 0.00811 0.55095 0.0
Eu1206 Eu 0.50771 1.00731 0.46087 0.0
O1207 O 0.48787 0.02899 0.52686 0.0
O1208 O 0.48747 0.02884 0.48479 0.0
O1209 O 0.52952 0.02764 0.48444 0.0
O1210 O 0.52991 0.02796 0.52669 0.0
Eu1211 Eu 0.50934 0.0517 0.50562 0.0
O1212 O 0.50864 0.94372 0.54069 0.0
O1213 O 0.5042 0.94314 0.47231 0.0
O1214 O 0.50783 0.07235 0.53967 0.0
O1215 O 0.51157 0.07165 0.47126 0.0
O1216 O 0.4446 0.04489 0.50634 0.0
O1217 O 0.44268 0.97392 0.50585 0.0
O1218 O 0.57348 0.04127 0.50464 0.0
O1219 O 0.57151 0.9703 0.50559 0.0
O1220 O 0.54212 1.00528 0.44115 0.0
O1221 O 0.47292 0.00814 0.44174 0.0
O1222 O 0.54328 0.00767 0.56994 0.0
O1223 O 0.47392 0.00986 0.57046 0.0
O1224 O 0.54404 0.07084 0.50747 0.0
O1225 O 0.47574 0.07272 0.50508 0.0
O1226 O 0.54032 0.94254 0.50531 0.0
O1227 O 0.47217 0.94442 0.50876 0.0
O1228 O 0.50703 0.97159 0.4417 0.0
O1229 O 0.50834 0.04275 0.44111 0.0
O1230 O 0.50743 0.97275 0.57084 0.0
O1231 O 0.50961 0.04382 0.57024 0.0
O1232 O 0.44412 0.00912 0.541 0.0
O1233 O 0.44358 0.00879 0.47166 0.0
O1234 O 0.57259 1.00584 0.54003 0.0
O1235 O 0.57193 1.00519 0.47062 0.0
H1236 H 0.14462 0.1949 0.51041 0.0
H1237 H 0.19642 0.14222 0.49251 0.0
H1238 H 0.11408 0.16474 0.51092 0.0
H1239 H 0.16582 0.11205 0.49218 0.0
H1240 H 0.11041 0.0612 0.52002 0.0
H1241 H 0.14091 0.09129 0.51902 0.0
H1242 H 0.09246 0.13939 0.48526 0.0
H1243 H 0.06174 0.10957 0.48704 0.0
C1244 C 0.14933 0.17686 0.50629 0.0
C1245 C 0.17273 0.17074 0.50144 0.0
C1246 C 0.1319 0.15962 0.50649 0.0
C1247 C 0.13755 0.13602 0.50157 0.0
C1248 C 0.16099 0.13001 0.49644 0.0
C1249 C 0.17846 0.14722 0.49652 0.0
C1250 C 0.10633 0.07819 0.51234 0.0
C1251 C 0.08373 0.08313 0.5037 0.0
C1252 C 0.12381 0.09538 0.51166 0.0
C1253 C 0.11908 0.1177 0.50205 0.0
C1254 C 0.09652 0.1225 0.49316 0.0
C1255 C 0.07895 0.10541 0.49411 0.0
H1256 H 0.87089 0.19575 0.52929 0.0
H1257 H 0.82377 0.1398 0.55 0.0
H1258 H 0.90232 0.16717 0.52338 0.0
H1259 H 0.85539 0.11114 0.54495 0.0
H1260 H 0.90437 0.06511 0.5018 0.0
H1261 H 0.87476 0.09445 0.51156 0.0
H1262 H 0.92879 0.13953 0.54072 0.0
H1263 H 0.9585 0.11054 0.53014 0.0
C1264 C 0.86754 0.17738 0.53328 0.0
C1265 C 0.84502 0.16985 0.54 0.0
C1266 C 0.8855 0.161 0.52988 0.0
C1267 C 0.88123 0.13684 0.53335 0.0
C1268 C 0.85904 0.12956 0.54153 0.0
C1269 C 0.84103 0.14592 0.54466 0.0
C1270 C 0.90992 0.08134 0.51018 0.0
C1271 C 0.93373 0.08557 0.51514 0.0
C1272 C 0.89294 0.09806 0.516 0.0
C1273 C 0.89939 0.1192 0.52719 0.0
C1274 C 0.92327 0.12352 0.53192 0.0
C1275 C 0.94029 0.10692 0.52583 0.0
H1276 H 0.81889 0.8737 0.50416 0.0
H1277 H 0.87215 0.82255 0.52222 0.0
H1278 H 0.84878 0.90455 0.50281 0.0
H1279 H 0.902 0.85342 0.52169 0.0
H1280 H 0.95232 0.90781 0.49231 0.0
H1281 H 0.92197 0.87767 0.49371 0.0
H1282 H 0.87469 0.92696 0.52742 0.0
H1283 H 0.90483 0.95738 0.52527 0.0
C1284 C 0.83699 0.86921 0.50815 0.0
C1285 C 0.84337 0.84588 0.51321 0.0
C1286 C 0.85407 0.88681 0.50745 0.0
C1287 C 0.87775 0.88139 0.51206 0.0
C1288 C 0.88397 0.85806 0.51758 0.0
C1289 C 0.86694 0.84043 0.51801 0.0
C1290 C 0.93544 0.91219 0.50003 0.0
C1291 C 0.93091 0.9349 0.5087 0.0
C1292 C 0.9181 0.8949 0.50094 0.0
C1293 C 0.89598 0.8999 0.5108 0.0
C1294 C 0.89145 0.92266 0.51942 0.0
C1295 C 0.90872 0.94006 0.51825 0.0
H1296 H 0.19232 0.87697 0.54147 0.0
H1297 H 0.14344 0.82159 0.52349 0.0
H1298 H 0.161 0.9061 0.53744 0.0
H1299 H 0.11224 0.85065 0.51864 0.0
H1300 H 0.05725 0.90782 0.52941 0.0
H1301 H 0.0873 0.87849 0.53787 0.0
H1302 H 0.13974 0.92313 0.50534 0.0
H1303 H 0.10984 0.9528 0.49762 0.0
C1304 C 0.17478 0.8711 0.53685 0.0
C1305 C 0.17017 0.84717 0.53277 0.0
C1306 C 0.15692 0.88772 0.53433 0.0
C1307 C 0.13423 0.88071 0.52738 0.0
C1308 C 0.12946 0.8566 0.52424 0.0
C1309 C 0.14728 0.83996 0.52702 0.0
C1310 C 0.07517 0.91128 0.5239 0.0
C1311 C 0.08122 0.93258 0.51283 0.0
C1312 C 0.09238 0.89448 0.52876 0.0
C1313 C 0.11592 0.89856 0.52243 0.0
C1314 C 0.12185 0.9197 0.51095 0.0
C1315 C 0.1047 0.93661 0.50633 0.0
H1316 H 0.4688 0.16768 0.1694 0.0
H1317 H 0.54443 0.17396 0.16312 0.0
H1318 H 0.46895 0.13701 0.13928 0.0
H1319 H 0.54425 0.14399 0.13232 0.0
H1320 H 0.52576 0.10983 0.05975 0.0
H1321 H 0.52543 0.14074 0.08975 0.0
H1322 H 0.48794 0.09451 0.13711 0.0
H1323 H 0.48837 0.06347 0.10729 0.0
C1324 C 0.48544 0.16248 0.1617 0.0
C1325 C 0.50662 0.17321 0.16869 0.0
C1326 C 0.48546 0.14505 0.14443 0.0
C1327 C 0.5066 0.13834 0.13363 0.0
C1328 C 0.52773 0.14916 0.14032 0.0
C1329 C 0.52777 0.16634 0.15784 0.0
C1330 C 0.51739 0.10631 0.07654 0.0
C1331 C 0.50711 0.08431 0.08128 0.0
C1332 C 0.51733 0.1239 0.09366 0.0
C1333 C 0.50665 0.11984 0.11556 0.0
C1334 C 0.49615 0.09797 0.12023 0.0
C1335 C 0.49655 0.08025 0.10327 0.0
H1336 H 0.852 0.46764 0.17293 0.0
H1337 H 0.84013 0.54216 0.16203 0.0
H1338 H 0.88268 0.46825 0.14285 0.0
H1339 H 0.87023 0.54243 0.13142 0.0
H1340 H 0.90545 0.52309 0.06012 0.0
H1341 H 0.87494 0.52237 0.09041 0.0
H1342 H 0.92337 0.48912 0.13871 0.0
H1343 H 0.95397 0.48982 0.10851 0.0
C1344 C 0.85601 0.48414 0.16422 0.0
C1345 C 0.84367 0.50486 0.16983 0.0
C1346 C 0.87346 0.48444 0.147 0.0
C1347 C 0.87863 0.50537 0.13495 0.0
C1348 C 0.86627 0.52604 0.14038 0.0
C1349 C 0.84902 0.52582 0.15779 0.0
C1350 C 0.90954 0.51557 0.07718 0.0
C1351 C 0.93201 0.50652 0.08204 0.0
C1352 C 0.89218 0.5153 0.09448 0.0
C1353 C 0.89696 0.50569 0.11673 0.0
C1354 C 0.91934 0.49648 0.12156 0.0
C1355 C 0.93681 0.49705 0.10438 0.0
H1356 H 0.54528 0.85156 0.17362 0.0
H1357 H 0.46968 0.84472 0.1676 0.0
H1358 H 0.54472 0.88269 0.14398 0.0
H1359 H 0.46945 0.87517 0.13728 0.0
H1360 H 0.48822 0.90759 0.06385 0.0
H1361 H 0.48816 0.87767 0.09479 0.0
H1362 H 0.52563 0.92513 0.14095 0.0
H1363 H 0.52561 0.95523 0.11012 0.0
C1364 C 0.52855 0.85679 0.16613 0.0
C1365 C 0.50752 0.84566 0.17293 0.0
C1366 C 0.52829 0.8745 0.14915 0.0
C1367 C 0.50706 0.88112 0.13848 0.0
C1368 C 0.48604 0.87009 0.14519 0.0
C1369 C 0.48623 0.85262 0.16241 0.0
C1370 C 0.49647 0.91162 0.08059 0.0
C1371 C 0.50693 0.93366 0.08466 0.0
C1372 C 0.49629 0.8946 0.09826 0.0
C1373 C 0.50688 0.89927 0.12007 0.0
C1374 C 0.51745 0.92122 0.12415 0.0
C1375 C 0.51731 0.9384 0.10661 0.0
H1376 H 0.17492 0.54553 0.16189 0.0
H1377 H 0.16188 0.47163 0.17469 0.0
H1378 H 0.14435 0.54566 0.1315 0.0
H1379 H 0.13134 0.47175 0.1443 0.0
H1380 H 0.06056 0.49214 0.10918 0.0
H1381 H 0.09093 0.49241 0.13958 0.0
H1382 H 0.13941 0.52507 0.09092 0.0
H1383 H 0.10912 0.52486 0.06041 0.0
C1384 C 0.16542 0.52939 0.15821 0.0
C1385 C 0.17061 0.50857 0.17048 0.0
C1386 C 0.14813 0.52943 0.14081 0.0
C1387 C 0.13565 0.50872 0.13572 0.0
C1388 C 0.14072 0.48794 0.14811 0.0
C1389 C 0.1582 0.48783 0.16529 0.0
C1390 C 0.07767 0.49946 0.10499 0.0
C1391 C 0.08253 0.50847 0.08246 0.0
C1392 C 0.09501 0.49946 0.12231 0.0
C1393 C 0.11735 0.50875 0.11744 0.0
C1394 C 0.1222 0.51796 0.09503 0.0
C1395 C 0.10495 0.51768 0.0776 0.0
H1396 H 0.48168 0.84911 0.84109 0.0
H1397 H 0.55636 0.84183 0.85394 0.0
H1398 H 0.47917 0.87838 0.87232 0.0
H1399 H 0.55351 0.87069 0.88586 0.0
H1400 H 0.52824 0.90489 0.95687 0.0
H1401 H 0.53137 0.87431 0.92664 0.0
H1402 H 0.49734 0.92031 0.87653 0.0
H1403 H 0.49424 0.95091 0.90654 0.0
C1404 C 0.49759 0.85384 0.85049 0.0
C1405 C 0.51931 0.84343 0.84483 0.0
C1406 C 0.49607 0.87046 0.86841 0.0
C1407 C 0.51617 0.87675 0.88125 0.0
C1408 C 0.53778 0.86593 0.87619 0.0
C1409 C 0.53937 0.84944 0.85801 0.0
C1410 C 0.52133 0.9084 0.93942 0.0
C1411 C 0.51094 0.93021 0.934 0.0
C1412 C 0.52329 0.89101 0.92217 0.0
C1413 C 0.51456 0.89509 0.89943 0.0
C1414 C 0.50405 0.9168 0.89406 0.0
C1415 C 0.50239 0.93428 0.91116 0.0
H1416 H 0.19503 0.47538 0.87646 0.0
H1417 H 0.1457 0.49222 0.82113 0.0
H1418 H 0.16365 0.47872 0.90563 0.0
H1419 H 0.11445 0.49641 0.85021 0.0
H1420 H 0.0595 0.48379 0.90677 0.0
H1421 H 0.09001 0.47629 0.87767 0.0
H1422 H 0.14127 0.50967 0.92306 0.0
H1423 H 0.1109 0.51639 0.95252 0.0
C1424 C 0.17739 0.47966 0.87061 0.0
C1425 C 0.17266 0.48352 0.84667 0.0
C1426 C 0.15949 0.48176 0.88725 0.0
C1427 C 0.13662 0.4881 0.88026 0.0
C1428 C 0.1318 0.49123 0.85616 0.0
C1429 C 0.14965 0.48883 0.8395 0.0
C1430 C 0.07727 0.48965 0.91046 0.0
C1431 C 0.08285 0.50072 0.93188 0.0
C1432 C 0.09474 0.48536 0.89378 0.0
C1433 C 0.11808 0.49228 0.89809 0.0
C1434 C 0.12356 0.50364 0.91942 0.0
C1435 C 0.10614 0.50768 0.93622 0.0
H1436 H 0.51842 0.14099 0.81835 0.0
H1437 H 0.49607 0.19231 0.87003 0.0
H1438 H 0.51946 0.1108 0.8488 0.0
H1439 H 0.49576 0.16184 0.90015 0.0
H1440 H 0.5233 0.10846 0.95272 0.0
H1441 H 0.52336 0.13832 0.92202 0.0
H1442 H 0.49298 0.0883 0.87324 0.0
H1443 H 0.49353 0.05818 0.90378 0.0
C1444 C 0.51371 0.1458 0.8362 0.0
C1445 C 0.50722 0.169 0.84184 0.0
C1446 C 0.51401 0.12845 0.85356 0.0
C1447 C 0.50768 0.13397 0.87683 0.0
C1448 C 0.50102 0.15714 0.88242 0.0
C1449 C 0.50089 0.17451 0.86511 0.0
C1450 C 0.5166 0.10385 0.93546 0.0
C1451 C 0.50838 0.08102 0.93063 0.0
C1452 C 0.51655 0.12097 0.91791 0.0
C1453 C 0.50809 0.11566 0.89528 0.0
C1454 C 0.49992 0.0928 0.89044 0.0
C1455 C 0.50016 0.07559 0.90794 0.0
H1456 H 0.85201 0.55512 0.84339 0.0
H1457 H 0.83943 0.48031 0.85104 0.0
H1458 H 0.88358 0.5526 0.87258 0.0
H1459 H 0.8703 0.47813 0.88066 0.0
H1460 H 0.90551 0.49324 0.95264 0.0
H1461 H 0.87504 0.49627 0.92249 0.0
H1462 H 0.92422 0.53074 0.87584 0.0
H1463 H 0.95485 0.52771 0.90593 0.0
C1464 C 0.85603 0.53817 0.85118 0.0
C1465 C 0.8431 0.51796 0.84509 0.0
C1466 C 0.874 0.53677 0.86787 0.0
C1467 C 0.87908 0.51522 0.87884 0.0
C1468 C 0.86637 0.495 0.87263 0.0
C1469 C 0.84865 0.49632 0.85579 0.0
C1470 C 0.90981 0.5015 0.93597 0.0
C1471 C 0.9325 0.51019 0.93155 0.0
C1472 C 0.89245 0.50311 0.91875 0.0
C1473 C 0.89744 0.51373 0.897 0.0
C1474 C 0.92004 0.52261 0.89259 0.0
C1475 C 0.93752 0.52069 0.9097 0.0
H1476 H 0.64533 0.69295 0.98533 0.0
H1477 H 0.69431 0.63776 0.96708 0.0
H1478 H 0.61426 0.6638 0.99025 0.0
H1479 H 0.66307 0.60851 0.9712 0.0
H1480 H 0.61233 0.56213 0.01269 0.0
H1481 H 0.64222 0.59148 1.00359 0.0
H1482 H 0.58918 0.6358 0.97164 0.0
H1483 H 0.55921 0.60686 0.98147 0.0
C1484 C 0.64921 0.67461 0.98169 0.0
C1485 C 0.67211 0.66749 0.9759 0.0
C1486 C 0.63145 0.6579 0.98452 0.0
C1487 C 0.63628 0.6338 0.98139 0.0
C1488 C 0.65894 0.62688 0.97429 0.0
C1489 C 0.67675 0.64358 0.97171 0.0
C1490 C 0.60707 0.57818 1.00379 0.0
C1491 C 0.58344 0.58228 0.99796 0.0
C1492 C 0.62421 0.5949 0.99837 0.0
C1493 C 0.61809 0.61591 0.98674 0.0
C1494 C 0.59443 0.61995 0.98088 0.0
C1495 C 0.57726 0.60336 0.98655 0.0
H1496 H 0.34195 0.66254 0.96824 0.0
H1497 H 0.35315 0.67425 0.04274 0.0
H1498 H 0.37209 0.63193 0.96861 0.0
H1499 H 0.38381 0.6442 0.04277 0.0
H1500 H 0.45508 0.60938 0.02308 0.0
H1501 H 0.42464 0.63974 0.02264 0.0
H1502 H 0.37665 0.59117 0.98911 0.0
H1503 H 0.407 0.56072 0.98951 0.0
C1504 C 0.35073 0.6585 0.98469 0.0
C1505 C 0.34519 0.67079 1.00547 0.0
C1506 C 0.36798 0.64109 0.98485 0.0
C1507 C 0.38015 0.63589 1.0057 0.0
C1508 C 0.37477 0.64818 0.02643 0.0
C1509 C 0.35733 0.66539 0.02636 0.0
C1510 C 0.43806 0.60522 0.01555 0.0
C1511 C 0.43333 0.58275 1.00635 0.0
C1512 C 0.42067 0.62251 0.01544 0.0
C1513 C 0.39846 0.61764 1.00584 0.0
C1514 C 0.39376 0.59527 0.99647 0.0
C1515 C 0.41103 0.57787 0.99686 0.0
H1516 H 0.35341 0.34004 0.04419 0.0
H1517 H 0.34067 0.35314 0.97029 0.0
H1518 H 0.38395 0.37045 0.0443 0.0
H1519 H 0.37125 0.3835 0.97039 0.0
H1520 H 0.40663 0.45431 0.99099 0.0
H1521 H 0.37622 0.42394 0.99094 0.0
H1522 H 0.42444 0.37525 0.0239 0.0
H1523 H 0.45495 0.40552 0.02403 0.0
C1524 C 0.35715 0.34952 0.02804 0.0
C1525 C 0.34483 0.3444 1.00723 0.0
C1526 C 0.37464 0.3667 0.02806 0.0
C1527 C 0.3798 0.37917 0.00735 0.0
C1528 C 0.36739 0.37415 0.98658 0.0
C1529 C 0.3501 0.35676 0.98649 0.0
C1530 C 0.41073 0.43715 0.9983 0.0
C1531 C 0.43312 0.43224 0.00752 0.0
C1532 C 0.3934 0.4198 0.99811 0.0
C1533 C 0.39813 0.39741 0.00741 0.0
C1534 C 0.42043 0.3925 0.01678 0.0
C1535 C 0.43787 0.40975 0.0167 0.0
H1536 H 0.67571 0.35476 0.05638 0.0
H1537 H 0.66291 0.33769 0.98333 0.0
H1538 H 0.64432 0.3844 0.05489 0.0
H1539 H 0.63169 0.36719 0.98182 0.0
H1540 H 0.56159 0.40401 0.99729 0.0
H1541 H 0.59136 0.37333 1.00118 0.0
H1542 H 0.63934 0.42371 0.03193 0.0
H1543 H 0.6096 0.45453 0.02814 0.0
C1544 C 0.66603 0.35727 0.04013 0.0
C1545 C 0.67164 0.34418 0.01993 0.0
C1546 C 0.64828 0.37423 0.03923 0.0
C1547 C 0.63574 0.37797 0.01824 0.0
C1548 C 0.64105 0.36447 0.99823 0.0
C1549 C 0.65894 0.34778 0.99905 0.0
C1550 C 0.57845 0.40855 1.00495 0.0
C1551 C 0.58334 0.43167 0.0123 0.0
C1552 C 0.59545 0.39102 1.0071 0.0
C1553 C 0.6175 0.39627 0.01688 0.0
C1554 C 0.62234 0.41928 0.02452 0.0
C1555 C 0.60543 0.4369 0.02212 0.0
H1556 H 0.01763 0.64366 0.6942 0.0
H1557 H 0.99981 0.69598 0.64193 0.0
H1558 H 0.0176 0.61322 0.66386 0.0
H1559 H 0.99895 0.66551 0.61161 0.0
H1560 H 0.02408 0.60959 0.56013 0.0
H1561 H 0.02485 0.63997 0.59036 0.0
H1562 H 0.99069 0.59234 0.63906 0.0
H1563 H 0.99067 0.56169 0.60908 0.0
C1564 C 0.01351 0.64852 0.6762 0.0
C1565 C 0.00874 0.67201 0.67024 0.0
C1566 C 0.01338 0.63115 0.65888 0.0
C1567 C 0.0082 0.63698 0.63538 0.0
C1568 C 1.00338 0.66055 0.6295 0.0
C1569 C 1.00378 0.67795 0.64679 0.0
C1570 C 0.01667 0.60566 0.57728 0.0
C1571 C 0.00735 0.58331 0.58232 0.0
C1572 C 0.01704 0.62307 0.59455 0.0
C1573 C 0.00783 0.61853 0.61707 0.0
C1574 C 0.9983 0.59622 0.622 0.0
C1575 C 0.9982 0.57871 0.60481 0.0
H1576 H 0.37469 1.00277 0.69439 0.0
H1577 H 0.32201 0.02112 0.64256 0.0
H1578 H 0.40455 1.00217 0.66372 0.0
H1579 H 0.35216 0.02208 0.61218 0.0
H1580 H 0.4063 0.99451 0.56007 0.0
H1581 H 0.37643 0.99515 0.59075 0.0
H1582 H 0.4259 0.02816 0.63836 0.0
H1583 H 0.45601 0.02676 0.60792 0.0
C1584 C 0.36951 1.00673 0.67646 0.0
C1585 C 0.346 0.01189 0.67086 0.0
C1586 C 0.38667 1.00672 0.65896 0.0
C1587 C 0.38069 0.01209 0.63556 0.0
C1588 C 0.35724 0.01756 0.63001 0.0
C1589 C 0.34004 0.01734 0.64747 0.0
C1590 C 0.41075 1.00196 0.57707 0.0
C1591 C 0.43345 0.01054 0.58167 0.0
C1592 C 0.39363 1.00242 0.5946 0.0
C1593 C 0.39882 0.01174 0.61694 0.0
C1594 C 0.4215 0.02051 0.62143 0.0
C1595 C 0.4387 0.01979 0.60399 0.0
H1596 H 0.03719 0.32071 0.64049 0.0
H1597 H 0.02004 0.37065 0.69522 0.0
H1598 H 0.0345 0.35193 0.61105 0.0
H1599 H 0.01647 0.40178 0.66584 0.0
H1600 H 0.03049 0.45616 0.60883 0.0
H1601 H 0.03719 0.42585 0.6384 0.0
H1602 H 1.00394 0.37438 0.59309 0.0
H1603 H 0.99804 0.40452 0.56319 0.0
C1604 C 0.03296 0.33845 0.64614 0.0
C1605 C 0.02882 0.34341 0.66998 0.0
C1606 C 0.03123 0.35626 0.62934 0.0
C1607 C 0.02499 0.37926 0.63608 0.0
C1608 C 0.02158 0.38431 0.6601 0.0
C1609 C 0.0236 0.36654 0.67692 0.0
C1610 C 0.0245 0.43839 0.60526 0.0
C1611 C 0.01373 0.43267 0.58373 0.0
C1612 C 0.02832 0.42104 0.62221 0.0
C1613 C 0.02121 0.39769 0.61805 0.0
C1614 C 0.01011 0.39209 0.59662 0.0
C1615 C 0.00656 0.40938 0.57957 0.0
H1616 H 0.67527 0.96843 0.66041 0.0
H1617 H 0.66394 0.04287 0.67236 0.0
H1618 H 0.64546 0.96893 0.62947 0.0
H1619 H 0.63364 0.04305 0.64194 0.0
H1620 H 0.5624 0.02351 0.60721 0.0
H1621 H 0.59298 0.02319 0.63738 0.0
H1622 H 0.64059 0.98916 0.58881 0.0
H1623 H 0.61007 0.9894 0.55853 0.0
C1624 C 0.66656 0.98491 0.65633 0.0
C1625 C 0.67191 1.00561 0.66883 0.0
C1626 C 0.64949 0.98514 0.63872 0.0
C1627 C 0.63735 1.00601 0.63351 0.0
C1628 C 0.64265 0.0267 0.64592 0.0
C1629 C 0.65988 0.02654 0.66335 0.0
C1630 C 0.57936 0.01589 0.60299 0.0
C1631 C 0.5839 1.00646 0.58057 0.0
C1632 C 0.59684 0.01586 0.62018 0.0
C1633 C 0.619 1.00616 0.61528 0.0
C1634 C 0.62353 0.9966 0.59295 0.0
C1635 C 0.60615 0.99689 0.57565 0.0
H1636 H 0.01767 0.31921 0.37243 0.0
H1637 H 0.99447 0.37095 0.32155 0.0
H1638 H 0.01897 0.34956 0.40268 0.0
H1639 H 0.9944 0.40098 0.35213 0.0
H1640 H 0.02274 0.45346 0.40546 0.0
H1641 H 0.02217 0.42296 0.37535 0.0
H1642 H 0.99291 0.37379 0.42566 0.0
H1643 H 0.99412 0.40408 0.45597 0.0
C1644 C 0.01282 0.33706 0.36773 0.0
C1645 C 1.00605 0.34274 0.34461 0.0
C1646 C 0.01327 0.35436 0.38512 0.0
C1647 C 0.00678 0.37763 0.37976 0.0
C1648 C 0.99979 0.38326 0.3567 0.0
C1649 C 0.99951 0.36599 0.33927 0.0
C1650 C 0.01616 0.43614 0.41007 0.0
C1651 C 0.00849 0.43112 0.43305 0.0
C1652 C 0.01574 0.41872 0.39281 0.0
C1653 C 0.00743 0.39602 0.39814 0.0
C1654 C 0.99974 0.39102 0.42113 0.0
C1655 C 1.00038 0.40839 0.43846 0.0
H1656 H 0.66301 0.95716 0.34207 0.0
H1657 H 0.6761 0.03186 0.34993 0.0
H1658 H 0.63112 0.95992 0.37092 0.0
H1659 H 0.6449 0.03428 0.37917 0.0
H1660 H 0.60983 0.01948 0.45108 0.0
H1661 H 0.64019 0.01606 0.4209 0.0
H1662 H 0.59052 0.98216 0.37433 0.0
H1663 H 0.55997 0.9856 0.4045 0.0
C1664 C 0.65902 0.97413 0.34983 0.0
C1665 C 0.67223 0.99423 0.34397 0.0
C1666 C 0.64086 0.97567 0.36631 0.0
C1667 C 0.63586 0.99726 0.37726 0.0
C1668 C 0.64877 0.01738 0.37116 0.0
C1669 C 0.66668 0.01593 0.35456 0.0
C1670 C 0.60539 0.01127 0.43443 0.0
C1671 C 0.58258 1.00287 0.43004 0.0
C1672 C 0.6227 0.00942 0.41718 0.0
C1673 C 0.61754 0.99888 0.39544 0.0
C1674 C 0.59483 0.99025 0.39108 0.0
C1675 C 0.57739 0.9924 0.40822 0.0
H1676 H 0.97058 0.67342 0.35126 0.0
H1677 H 0.04501 0.66178 0.3403 0.0
H1678 H 0.9704 0.64312 0.38174 0.0
H1679 H 0.04449 0.63094 0.37025 0.0
H1680 H 0.02404 0.55984 0.40525 0.0
H1681 H 0.02405 0.59014 0.37471 0.0
H1682 H 0.99045 0.63868 0.42269 0.0
H1683 H 0.9904 0.60849 0.45332 0.0
C1684 C 0.9869 0.66451 0.35543 0.0
C1685 C 0.00783 0.67001 0.34344 0.0
C1686 C 0.98674 0.64715 0.37277 0.0
C1687 C 0.00742 0.63484 0.37817 0.0
C1688 C 0.02829 0.64011 0.36611 0.0
C1689 C 0.02854 0.65766 0.34896 0.0
C1690 C 0.01657 0.57695 0.40924 0.0
C1691 C 0.00722 0.58186 0.43162 0.0
C1692 C 0.01673 0.59425 0.39185 0.0
C1693 C 0.00726 0.61659 0.3965 0.0
C1694 C 0.99772 0.62147 0.41875 0.0
C1695 C 0.99784 0.60428 0.43626 0.0
H1696 H 0.34026 0.97038 0.35232 0.0
H1697 H 0.35148 0.04479 0.34 0.0
H1698 H 0.3705 0.97096 0.38281 0.0
H1699 H 0.38227 0.04502 0.36994 0.0
H1700 H 0.45393 0.02488 0.40429 0.0
H1701 H 0.42317 0.02464 0.37422 0.0
H1702 H 0.3753 0.99187 0.42341 0.0
H1703 H 0.40594 0.99209 0.45356 0.0
C1704 C 0.34904 0.98687 0.35621 0.0
C1705 C 0.34349 0.00755 0.34377 0.0
C1706 C 0.36637 0.98714 0.37356 0.0
C1707 C 0.37859 0.00802 0.37853 0.0
C1708 C 0.37318 0.02867 0.36613 0.0
C1709 C 0.35566 0.02848 0.34898 0.0
C1710 C 0.43686 0.01758 0.40865 0.0
C1711 C 0.43225 0.00851 0.4312 0.0
C1712 C 0.41929 0.01759 0.39153 0.0
C1713 C 0.39703 0.00824 0.39665 0.0
C1714 C 0.39244 0.99905 0.41912 0.0
C1715 C 0.40989 0.99933 0.43634 0.0
H1716 H 0.97365 0.15723 0.32864 0.0
H1717 H 0.04868 0.14457 0.32558 0.0
H1718 H 0.9712 0.13311 0.36404 0.0
H1719 H 0.04612 0.12181 0.36193 0.0
H1720 H 0.0318 0.10574 0.44253 0.0
H1721 H 0.03354 0.13081 0.40714 0.0
H1722 H 0.97997 0.08813 0.37429 0.0
H1723 H 0.97872 0.06282 0.40915 0.0
C1724 C 0.98963 0.14921 0.33517 0.0
C1725 C 0.0114 0.15311 0.32381 0.0
C1726 C 0.9882 0.13558 0.35575 0.0
C1727 C 0.0085 0.12583 0.36596 0.0
C1728 C 0.03022 0.12947 0.35472 0.0
C1729 C 0.03162 0.14265 0.33382 0.0
C1730 C 0.02021 0.10196 0.42785 0.0
C1731 C 1.00509 0.08236 0.42864 0.0
C1732 C 0.02134 0.11614 0.40754 0.0
C1733 C 0.00693 0.11138 0.3879 0.0
C1734 C 0.99123 0.0923 0.38912 0.0
C1735 C 0.99054 0.07782 0.40909 0.0
H1736 H 0.86668 0.05148 0.32958 0.0
H1737 H 0.85918 0.97561 0.33001 0.0
H1738 H 0.88943 0.04925 0.366 0.0
H1739 H 0.8829 0.97357 0.36562 0.0
H1740 H 0.95129 0.98159 0.41106 0.0
H1741 H 0.92575 0.98297 0.37655 0.0
H1742 H 0.8832 0.03621 0.41018 0.0
H1743 H 0.90875 0.03451 0.44521 0.0
C1744 C 0.86977 0.03432 0.33729 0.0
C1745 C 0.86093 0.01373 0.32648 0.0
C1746 C 0.88286 0.0331 0.35824 0.0
C1747 C 0.88786 0.01125 0.36877 0.0
C1748 C 0.87946 0.99067 0.35787 0.0
C1749 C 0.86604 0.99189 0.33719 0.0
C1750 C 0.9363 0.99339 0.41126 0.0
C1751 C 0.93197 0.0079 0.4309 0.0
C1752 C 0.92165 0.99414 0.39148 0.0
C1753 C 0.90252 0.00977 0.39055 0.0
C1754 C 0.89792 0.02409 0.41033 0.0
C1755 C 0.91236 0.02296 0.43044 0.0
H1756 H 0.97814 0.88097 0.31551 0.0
H1757 H 0.03603 0.84171 0.34532 0.0
H1758 H 0.97626 0.90501 0.35101 0.0
H1759 H 0.0348 0.86647 0.38045 0.0
H1760 H 0.01237 0.90327 0.44982 0.0
H1761 H 0.01218 0.87647 0.41582 0.0
H1762 H 0.99829 0.93534 0.36967 0.0
H1763 H 0.99789 0.96162 0.40302 0.0
C1764 C 0.99053 0.87746 0.32958 0.0
C1765 C 0.00736 0.85943 0.32729 0.0
C1766 C 0.98958 0.89141 0.34995 0.0
C1767 C 1.00545 0.88783 0.36871 0.0
C1768 C 0.02215 0.86967 0.36654 0.0
C1769 C 0.02311 0.8557 0.34614 0.0
C1770 C 0.00912 0.91041 0.43244 0.0
C1771 C 1.00523 0.93472 0.42939 0.0
C1772 C 0.00917 0.89508 0.41288 0.0
C1773 C 1.00513 0.90367 0.38987 0.0
C1774 C 1.00106 0.9279 0.38702 0.0
C1775 C 1.00107 0.9431 0.40636 0.0
H1776 H 0.17321 0.03616 0.344 0.0
H1777 H 0.1317 0.98053 0.31284 0.0
H1778 H 0.14832 0.03527 0.379 0.0
H1779 H 0.10738 0.97904 0.3482 0.0
H1780 H 0.05201 1.00192 0.40133 0.0
H1781 H 0.07802 1.00215 0.36767 0.0
H1782 H 0.13778 0.01176 0.41365 0.0
H1783 H 0.11139 0.01203 0.44787 0.0
C1784 C 0.15868 0.02383 0.34449 0.0
C1785 C 0.15438 0.00859 0.32534 0.0
C1786 C 0.14461 0.02306 0.3648 0.0
C1787 C 0.12578 1.00709 0.36656 0.0
C1788 C 0.12154 0.99178 0.34745 0.0
C1789 C 0.13563 0.99251 0.32717 0.0
C1790 C 0.0707 1.00411 0.40453 0.0
C1791 C 0.07948 1.00705 0.42758 0.0
C1792 C 0.08569 1.00402 0.38503 0.0
C1793 C 0.11008 1.00686 0.38778 0.0
C1794 C 0.11904 0.00972 0.4108 0.0
C1795 C 0.10394 0.00973 0.43049 0.0
H1796 H 0.03373 0.8837 0.70026 0.0
H1797 H 0.97864 0.84157 0.66907 0.0
H1798 H 0.03512 0.90799 0.66487 0.0
H1799 H 0.97943 0.86644 0.63399 0.0
H1800 H 1.00275 0.90404 0.56507 0.0
H1801 H 1.00282 0.87746 0.59924 0.0
H1802 H 0.01168 0.93717 0.64554 0.0
H1803 H 0.01203 0.96332 0.61205 0.0
C1804 C 0.02185 0.87962 0.68591 0.0
C1805 C 1.00594 0.86071 0.68777 0.0
C1806 C 0.02251 0.89369 0.66561 0.0
C1807 C 0.00731 0.88931 0.64647 0.0
C1808 C 0.99154 0.87028 0.64821 0.0
C1809 C 0.99084 0.85623 0.66857 0.0
C1810 C 1.0048 0.91145 0.58254 0.0
C1811 C 0.00741 0.93594 0.58555 0.0
C1812 C 1.00471 0.89622 0.60217 0.0
C1813 C 0.0074 0.9051 0.62526 0.0
C1814 C 0.01 0.92954 0.62813 0.0
C1815 C 0.01002 0.94464 0.60871 0.0
H1816 H 0.17468 0.97913 0.66841 0.0
H1817 H 0.13658 0.03848 0.69693 0.0
H1818 H 0.15002 0.98013 0.63321 0.0
H1819 H 0.1127 0.04011 0.66138 0.0
H1820 H 0.05571 0.01864 0.60997 0.0
H1821 H 0.082 0.01831 0.64326 0.0
H1822 H 0.14035 1.00221 0.59727 0.0
H1823 H 0.11348 1.00194 0.56331 0.0
C1824 C 0.16097 0.99233 0.6673 0.0
C1825 C 0.15755 0.00857 0.68581 0.0
C1826 C 0.14706 0.99314 0.64685 0.0
C1827 C 0.12926 0.01018 0.6443 0.0
C1828 C 0.12599 0.02652 0.66273 0.0
C1829 C 0.13987 0.02571 0.68314 0.0
C1830 C 0.07411 0.01498 0.60666 0.0
C1831 C 0.08231 0.01019 0.58368 0.0
C1832 C 0.08933 0.01503 0.62595 0.0
C1833 C 0.11343 0.01037 0.62314 0.0
C1834 C 0.12185 1.0057 0.60018 0.0
C1835 C 0.10648 1.00571 0.58065 0.0
H1836 H 0.96447 0.14916 0.68333 0.0
H1837 H 0.04027 0.15579 0.68565 0.0
H1838 H 0.96775 0.12624 0.64708 0.0
H1839 H 0.04333 0.13184 0.65021 0.0
H1840 H 0.03535 0.06337 0.6041 0.0
H1841 H 0.03341 0.08881 0.63875 0.0
H1842 H 0.98271 0.13307 0.60347 0.0
H1843 H 0.98503 0.10769 0.56836 0.0
C1844 C 0.98183 0.14582 0.67626 0.0
C1845 C 1.00208 0.15453 0.68774 0.0
C1846 C 0.98366 0.13264 0.65543 0.0
C1847 C 1.00578 0.12738 0.6457 0.0
C1848 C 0.02603 0.13552 0.65734 0.0
C1849 C 0.02422 0.14907 0.67791 0.0
C1850 C 0.02404 0.07874 0.60359 0.0
C1851 C 0.01041 0.08362 0.58348 0.0
C1852 C 0.02295 0.0933 0.62344 0.0
C1853 C 0.00782 0.11286 0.6239 0.0
C1854 C 0.99442 0.11801 0.60365 0.0
C1855 C 0.99591 0.10367 0.5835 0.0
H1856 H 0.88345 0.98297 0.70112 0.0
H1857 H 0.84071 0.03743 0.66961 0.0
H1858 H 0.90785 0.98186 0.66581 0.0
H1859 H 0.86567 0.03693 0.63464 0.0
H1860 H 0.90316 0.01365 0.56589 0.0
H1861 H 0.87679 0.01337 0.60013 0.0
H1862 H 0.93669 1.0056 0.64626 0.0
H1863 H 0.96269 1.0054 0.61262 0.0
C1864 C 0.87928 0.99478 0.68673 0.0
C1865 C 0.86015 0.01042 0.68844 0.0
C1866 C 0.89341 0.99428 0.66648 0.0
C1867 C 0.88884 0.00936 0.64728 0.0
C1868 C 0.86964 0.0249 0.64892 0.0
C1869 C 0.85553 0.02545 0.6692 0.0
C1870 C 0.91066 0.01179 0.58333 0.0
C1871 C 0.93516 0.00957 0.58627 0.0
C1872 C 0.89555 0.01177 0.60301 0.0
C1873 C 0.90456 0.00935 0.62606 0.0
C1874 C 0.92899 1.00709 0.62887 0.0
C1875 C 0.94399 1.00718 0.60938 0.0
H1876 H 0.31504 0.03612 0.13316 0.0
H1877 H 0.34506 0.9788 0.17319 0.0
H1878 H 0.35067 0.03815 0.10939 0.0
H1879 H 0.38033 0.9802 0.14874 0.0
H1880 H 0.44969 1.00327 0.11259 0.0
H1881 H 0.41543 1.00335 0.13899 0.0
H1882 H 0.36984 0.01585 0.07943 0.0
H1883 H 0.40344 0.01632 0.05351 0.0
C1884 C 0.32918 0.02389 0.13689 0.0
C1885 C 0.32692 1.00717 0.15505 0.0
C1886 C 0.34962 0.02492 0.1231 0.0
C1887 C 0.36848 0.00927 0.12701 0.0
C1888 C 0.36633 0.99268 0.1453 0.0
C1889 C 0.34586 0.99163 0.15909 0.0
C1890 C 0.43236 1.0062 0.1052 0.0
C1891 C 0.42954 0.00974 0.08082 0.0
C1892 C 0.41268 1.00609 0.12031 0.0
C1893 C 0.38976 0.00969 0.1114 0.0
C1894 C 0.38712 0.01341 0.08709 0.0
C1895 C 0.40659 0.01346 0.07211 0.0
H1896 H 0.04122 0.33121 0.15768 0.0
H1897 H 0.96638 0.3274 0.1441 0.0
H1898 H 0.04362 0.3666 0.13352 0.0
H1899 H 0.96887 0.36371 0.12128 0.0
H1900 H 0.98224 0.44418 0.10463 0.0
H1901 H 0.9807 0.40901 0.13004 0.0
H1902 H 0.03546 0.37665 0.08854 0.0
H1903 H 0.03652 0.41127 0.0629 0.0
C1904 C 0.02527 0.33758 0.14946 0.0
C1905 C 1.00357 0.32602 0.1531 0.0
C1906 C 0.02668 0.35816 0.1358 0.0
C1907 C 1.00639 0.36814 0.12577 0.0
C1908 C 0.98475 0.35669 0.12917 0.0
C1909 C 0.98338 0.33581 0.14238 0.0
C1910 C 0.99415 0.42967 0.1012 0.0
C1911 C 0.00954 0.4305 0.08183 0.0
C1912 C 0.99313 0.40948 0.11557 0.0
C1913 C 0.00792 0.39003 0.11122 0.0
C1914 C 0.02391 0.39133 0.0924 0.0
C1915 C 0.02449 0.41117 0.07772 0.0
H1916 H 0.70172 0.98879 0.13144 0.0
H1917 H 0.66593 0.03535 0.1798 0.0
H1918 H 0.66668 0.98744 0.10679 0.0
H1919 H 0.6311 0.03471 0.15459 0.0
H1920 H 0.56465 0.00896 0.11357 0.0
H1921 H 0.5986 0.00966 0.14037 0.0
H1922 H 0.64547 0.01267 0.08058 0.0
H1923 H 0.61228 0.01163 0.05419 0.0
C1924 C 0.68642 0.99881 0.13682 0.0
C1925 C 0.68686 0.0123 0.15761 0.0
C1926 C 0.66631 0.9982 0.12255 0.0
C1927 C 0.64596 0.01105 0.12858 0.0
C1928 C 0.64631 0.02444 0.14944 0.0
C1929 C 0.66648 0.02509 0.16372 0.0
C1930 C 0.5822 0.00976 0.10619 0.0
C1931 C 0.58548 0.01006 0.0816 0.0
C1932 C 0.60169 0.01026 0.12155 0.0
C1933 C 0.62489 0.01097 0.11268 0.0
C1934 C 0.62801 0.01158 0.08815 0.0
C1935 C 0.60873 0.01112 0.07293 0.0
H1936 H 0.97834 0.66988 0.17369 0.0
H1937 H 0.03422 0.70072 0.13234 0.0
H1938 H 0.97928 0.63477 0.14888 0.0
H1939 H 0.03578 0.66527 0.10816 0.0
H1940 H 0.01333 0.61236 0.05262 0.0
H1941 H 0.0129 0.64595 0.07866 0.0
H1942 H 1.00248 0.59991 0.13833 0.0
H1943 H 1.00239 0.56568 0.11184 0.0
C1944 C 0.99074 0.66929 0.15921 0.0
C1945 C 1.00603 0.6884 0.15493 0.0
C1946 C 0.99153 0.64892 0.1452 0.0
C1947 C 0.00759 0.64705 0.12643 0.0
C1948 C 0.02296 0.6661 0.12225 0.0
C1949 C 0.0222 0.68644 0.13627 0.0
C1950 C 0.01092 0.60911 0.07127 0.0
C1951 C 0.00782 0.58603 0.07998 0.0
C1952 C 0.01089 0.62858 0.08631 0.0
C1953 C 0.00781 0.62581 0.1107 0.0
C1954 C 1.00473 0.60277 0.1196 0.0
C1955 C 1.00482 0.5831 0.10443 0.0
H1956 H 0.34428 0.03484 0.84265 0.0
H1957 H 0.31739 0.97371 0.87912 0.0
H1958 H 0.37948 0.03406 0.86726 0.0
H1959 H 0.35294 0.97243 0.90312 0.0
H1960 H 0.40439 0.99443 0.96054 0.0
H1961 H 0.37082 0.99424 0.93446 0.0
H1962 H 0.41582 0.01213 0.87582 0.0
H1963 H 0.44995 0.01283 0.90239 0.0
C1964 C 0.34575 0.0213 0.85601 0.0
C1965 C 0.32772 1.00449 0.859 0.0
C1966 C 0.36619 0.02064 0.86989 0.0
C1967 C 0.3692 1.00319 0.88724 0.0
C1968 C 0.35122 0.98631 0.89014 0.0
C1969 C 0.33083 0.98693 0.87623 0.0
C1970 C 0.40738 0.99835 0.9421 0.0
C1971 C 0.4301 1.00378 0.9337 0.0
C1972 C 0.38796 0.99801 0.92702 0.0
C1973 C 0.39045 1.00308 0.90293 0.0
C1974 C 0.41317 0.00833 0.89433 0.0
C1975 C 0.4328 0.00856 0.90952 0.0
H1976 H 0.97876 0.34862 0.836 0.0
H1977 H 0.02647 0.31268 0.88308 0.0
H1978 H 0.97957 0.38321 0.86156 0.0
H1979 H 0.028 0.34753 0.90807 0.0
H1980 H 1.00472 0.40191 0.96141 0.0
H1981 H 1.00343 0.36863 0.93499 0.0
H1982 H 1.00473 0.41567 0.8752 0.0
H1983 H 1.00563 0.44962 0.90198 0.0
C1984 C 0.98929 0.34798 0.85189 0.0
C1985 C 1.00239 0.32764 0.85752 0.0
C1986 C 0.99004 0.36802 0.86636 0.0
C1987 C 1.00384 0.36828 0.88693 0.0
C1988 C 0.01693 0.34795 0.89254 0.0
C1989 C 0.01621 0.32796 0.87808 0.0
C1990 C 1.00477 0.40545 0.94266 0.0
C1991 C 1.00537 0.42873 0.93396 0.0
C1992 C 1.00418 0.38614 0.92742 0.0
C1993 C 1.00419 0.38931 0.90289 0.0
C1994 C 1.00455 0.41254 0.89402 0.0
C1995 C 1.00518 0.43203 0.90938 0.0
H1996 H 0.69977 0.03475 0.88102 0.0
H1997 H 0.66983 0.9775 0.8408 0.0
H1998 H 0.6644 0.03616 0.90527 0.0
H1999 H 0.63482 0.97831 0.86567 0.0
H2000 H 0.56561 1.00089 0.90255 0.0
H2001 H 0.59966 1.00126 0.87591 0.0
H2002 H 0.6457 0.01322 0.93523 0.0
H2003 H 0.61227 0.01337 0.96143 0.0
C2004 C 0.6857 0.0224 0.87735 0.0
C2005 C 0.68789 1.00588 0.85901 0.0
C2006 C 0.66542 0.02308 0.89141 0.0
C2007 C 0.64666 1.00728 0.88755 0.0
C2008 C 0.64875 0.99089 0.86908 0.0
C2009 C 0.66906 0.99018 0.85504 0.0
C2010 C 0.58299 1.00372 0.90985 0.0
C2011 C 0.58598 1.00704 0.93424 0.0
C2012 C 0.60255 1.00379 0.89459 0.0
C2013 C 0.62553 0.00737 0.90336 0.0
C2014 C 0.62836 0.01081 0.92769 0.0
C2015 C 0.609 0.01066 0.94282 0.0
H2016 H 0.97943 0.69911 0.88003 0.0
H2017 H 0.03713 0.66986 0.84008 0.0
H2018 H 0.97777 0.66335 0.90369 0.0
H2019 H 0.03611 0.63445 0.86446 0.0
H2020 H 0.01389 0.56463 0.90107 0.0
H2021 H 0.01361 0.59882 0.87446 0.0
H2022 H 1.00022 0.64465 0.93369 0.0
H2023 H 0.99994 0.61118 0.95976 0.0
C2024 C 0.99182 0.68511 0.87629 0.0
C2025 C 0.00854 0.68764 0.85819 0.0
C2026 C 0.991 0.66458 0.89002 0.0
C2027 C 0.0069 0.6459 0.88615 0.0
C2028 C 0.02346 0.6483 0.86789 0.0
C2029 C 0.02429 0.66886 0.85414 0.0
C2030 C 0.01075 0.58199 0.90833 0.0
C2031 C 0.007 0.5849 0.93268 0.0
C2032 C 0.01073 0.60165 0.8931 0.0
C2033 C 0.00677 0.62462 0.90185 0.0
C2034 C 1.00291 0.62733 0.92612 0.0
C2035 C 1.00299 0.60792 0.9412 0.0
H2036 H 0.13572 0.31665 0.03908 0.0
H2037 H 0.1731 0.34427 0.97885 0.0
H2038 H 0.11166 0.35215 0.04031 0.0
H2039 H 0.14838 0.37942 0.97953 0.0
H2040 H 0.11261 0.44965 1.00086 0.0
H2041 H 0.13928 0.41557 1.00156 0.0
H2042 H 0.08069 0.37007 0.01824 0.0
H2043 H 0.05453 0.40355 0.01807 0.0
C2044 C 0.1388 0.33023 0.02604 0.0
C2045 C 0.15631 0.32735 0.00876 0.0
C2046 C 0.12485 0.3506 0.02663 0.0
C2047 C 0.12796 0.36876 0.00997 0.0
C2048 C 0.14558 0.36598 0.99279 0.0
C2049 C 0.15952 0.34557 0.99217 0.0
C2050 C 0.10551 0.43239 1.00484 0.0
C2051 C 0.08132 0.42952 0.0093 0.0
C2052 C 0.12076 0.4128 1.00508 0.0
C2053 C 0.1122 0.38996 0.01001 0.0
C2054 C 0.08809 0.3873 0.01473 0.0
C2055 C 0.07297 0.40667 0.01439 0.0
H2056 H 0.17495 0.66873 0.03547 0.0
H2057 H 0.13332 0.70031 0.98019 0.0
H2058 H 0.15009 0.6337 0.0343 0.0
H2059 H 0.10911 0.66493 0.97836 0.0
H2060 H 0.05364 0.61208 1.0007 0.0
H2061 H 0.07979 0.64552 1.00129 0.0
H2062 H 0.13923 0.59912 0.0108 0.0
H2063 H 0.11262 0.56501 0.01076 0.0
C2064 C 0.16041 0.66832 0.02315 0.0
C2065 C 0.15606 0.68761 0.00811 0.0
C2066 C 0.14637 0.64799 0.02222 0.0
C2067 C 0.12751 0.64636 1.00626 0.0
C2068 C 0.12327 0.66558 0.99111 0.0
C2069 C 0.1373 0.68588 0.99203 0.0
C2070 C 0.07226 0.60871 1.00292 0.0
C2071 C 0.08088 0.58557 1.00572 0.0
C2072 C 0.08737 0.6281 1.00305 0.0
C2073 C 0.11173 0.62519 1.00593 0.0
C2074 C 0.12053 0.60208 0.00871 0.0
C2075 C 0.10529 0.58249 0.00853 0.0
H2076 H 0.34508 0.17296 0.03507 0.0
H2077 H 0.31716 0.13519 0.97521 0.0
H2078 H 0.38026 0.14834 0.0342 0.0
H2079 H 0.35269 0.11123 0.97378 0.0
H2080 H 0.40433 0.05427 0.9958 0.0
H2081 H 0.37083 0.08037 0.99583 0.0
H2082 H 0.41623 0.13923 0.01194 0.0
H2083 H 0.45033 0.11262 0.01246 0.0
C2084 C 0.34632 0.15931 0.0218 0.0
C2085 C 0.32801 0.15596 1.00537 0.0
C2086 C 0.36675 0.14543 0.02107 0.0
C2087 C 0.36945 0.12772 1.00393 0.0
C2088 C 0.3512 0.12448 0.98743 0.0
C2089 C 0.33082 0.13837 0.98813 0.0
C2090 C 0.40744 0.07275 0.99937 0.0
C2091 C 0.43028 0.0812 1.00424 0.0
C2092 C 0.38805 0.08785 0.99917 0.0
C2093 C 0.39067 0.11201 1.00378 0.0
C2094 C 0.41349 0.12067 0.00849 0.0
C2095 C 0.43309 0.10545 0.00862 0.0
H2096 H 0.89199 0.30746 1.00697 0.0
H2097 H 0.83215 0.35124 0.9909 0.0
H2098 H 0.91695 0.34239 0.00907 0.0
H2099 H 0.85649 0.38633 0.99438 0.0
H2100 H 0.91008 0.44519 0.98221 0.0
H2101 H 0.88478 0.41054 0.97888 0.0
H2102 H 0.92759 0.37455 0.03066 0.0
H2103 H 0.95344 0.40855 0.03264 0.0
C2104 C 0.88417 0.32462 1.00404 0.0
C2105 C 0.86017 0.32655 0.99857 0.0
C2106 C 0.89841 0.3448 1.00547 0.0
C2107 C 0.88893 0.36758 1.00206 0.0
C2108 C 0.86478 0.36933 0.99667 0.0
C2109 C 0.8507 0.34913 0.99476 0.0
C2110 C 0.91387 0.42989 0.99299 0.0
C2111 C 0.93378 0.42959 0.00762 0.0
C2112 C 0.89932 0.40992 0.99116 0.0
C2113 C 0.90404 0.38929 1.00431 0.0
C2114 C 0.92356 0.38956 0.01962 0.0
C2115 C 0.93832 0.40926 0.02102 0.0
H2116 H 0.70096 0.88132 0.99307 0.0
H2117 H 0.66189 0.83149 0.03523 0.0
H2118 H 0.66681 0.90718 0.99193 0.0
H2119 H 0.62795 0.85785 0.03487 0.0
H2120 H 0.56373 0.90134 0.00831 0.0
H2121 H 0.5971 0.87396 0.00946 0.0
H2122 H 0.6448 0.93271 0.01703 0.0
H2123 H 0.61204 0.95977 0.01552 0.0
C2124 C 0.68514 0.87588 1.0022 0.0
C2125 C 0.68437 0.85427 0.01432 0.0
C2126 C 0.66553 0.89085 1.00172 0.0
C2127 C 0.6445 0.88472 0.01337 0.0
C2128 C 0.6437 0.86312 0.02552 0.0
C2129 C 0.66336 0.84814 0.02602 0.0
C2130 C 0.58134 0.90839 0.01024 0.0
C2131 C 0.585 0.93289 0.01162 0.0
C2132 C 0.6005 0.89267 0.011 0.0
C2133 C 0.62378 0.90108 0.01312 0.0
C2134 C 0.62728 0.92552 0.01486 0.0
C2135 C 0.60828 0.94112 0.01411 0.0
H2136 H 0.86115 0.68619 0.97666 0.0
H2137 H 0.86144 0.68011 0.05265 0.0
H2138 H 0.88628 0.65162 0.97389 0.0
H2139 H 0.88568 0.64473 0.04954 0.0
H2140 H 0.90816 0.56747 0.02988 0.0
H2141 H 0.882 0.60193 0.03246 0.0
H2142 H 0.92823 0.64056 0.98612 0.0
H2143 H 0.95436 0.60655 0.98383 0.0
C2144 C 0.86673 0.67781 0.99285 0.0
C2145 C 0.85915 0.68634 0.01492 0.0
C2146 C 0.88099 0.65773 0.99118 0.0
C2147 C 0.8878 0.64529 0.01147 0.0
C2148 C 0.8804 0.65371 0.03354 0.0
C2149 C 0.86645 0.67405 0.03528 0.0
C2150 C 0.91253 0.58325 0.02006 0.0
C2151 C 0.93331 0.58428 1.00666 0.0
C2152 C 0.89771 0.60303 0.0217 0.0
C2153 C 0.90311 0.624 0.00955 0.0
C2154 C 0.92351 0.62468 0.9956 0.0
C2155 C 0.93851 0.60518 0.99436 0.0
H2156 H 0.34516 0.84151 0.97866 0.0
H2157 H 0.31524 0.88118 0.03627 0.0
H2158 H 0.38034 0.86611 0.97997 0.0
H2159 H 0.35078 0.90515 0.03819 0.0
H2160 H 0.40336 0.96128 0.01616 0.0
H2161 H 0.36978 0.93528 0.01575 0.0
H2162 H 0.41548 0.87581 1.0032 0.0
H2163 H 0.44968 0.90228 1.00309 0.0
C2164 C 0.34597 0.85557 0.99153 0.0
C2165 C 0.3271 0.85947 1.00718 0.0
C2166 C 0.36638 0.86945 0.99253 0.0
C2167 C 0.36853 0.88769 0.00917 0.0
C2168 C 0.34972 0.89147 0.02493 0.0
C2169 C 0.32934 0.87758 0.02395 0.0
C2170 C 0.40653 0.94268 0.0133 0.0
C2171 C 0.42949 0.93401 0.00956 0.0
C2172 C 0.38708 0.92766 0.01328 0.0
C2173 C 0.38976 0.90335 0.00957 0.0
C2174 C 0.41269 0.89449 1.00594 0.0
C2175 C 0.43235 0.90963 1.00603 0.0
H2176 H 0.70065 0.13292 0.03187 0.0
H2177 H 0.66812 0.17701 0.97911 0.0
H2178 H 0.66571 0.10808 0.03269 0.0
H2179 H 0.63341 0.15159 0.97932 0.0
H2180 H 0.56538 0.11254 1.00335 0.0
H2181 H 0.59932 0.13934 1.00317 0.0
H2182 H 0.64616 0.07969 0.00842 0.0
H2183 H 0.61289 0.0533 0.00904 0.0
C2184 C 0.6861 0.13731 0.02036 0.0
C2185 C 0.68741 0.15698 1.00533 0.0
C2186 C 0.66605 0.12292 0.02069 0.0
C2187 C 0.64663 0.12771 1.00601 0.0
C2188 C 0.64788 0.14743 0.99102 0.0
C2189 C 0.66799 0.16181 0.99064 0.0
C2190 C 0.58292 0.10519 1.00453 0.0
C2191 C 0.58615 0.08065 1.00629 0.0
C2192 C 0.60242 0.12055 1.00429 0.0
C2193 C 0.62559 0.11174 1.00595 0.0
C2194 C 0.62869 0.08725 0.00757 0.0
C2195 C 0.60939 0.07201 0.00775 0.0
H2196 H 0.48037 0.67787 0.84748 0.0
H2197 H 0.52928 0.63151 0.81227 0.0
H2198 H 0.48095 0.65229 0.88205 0.0
H2199 H 0.53057 0.60649 0.84711 0.0
H2200 H 0.5075 0.55268 0.90128 0.0
H2201 H 0.50653 0.57909 0.86796 0.0
H2202 H 0.50529 0.63887 0.915 0.0
H2203 H 0.50583 0.61209 0.94895 0.0
C2204 C 0.49113 0.66214 0.84698 0.0
C2205 C 0.50462 0.65675 0.82683 0.0
C2206 C 0.49175 0.64764 0.86703 0.0
C2207 C 0.5058 0.62723 0.86753 0.0
C2208 C 0.51929 0.62186 0.84738 0.0
C2209 C 0.51872 0.63637 0.82738 0.0
C2210 C 0.50702 0.57142 0.9048 0.0
C2211 C 0.50676 0.5801 0.9281 0.0
C2212 C 0.50664 0.58667 0.88547 0.0
C2213 C 0.50602 0.61122 0.88859 0.0
C2214 C 0.50559 0.62005 0.91185 0.0
C2215 C 0.50602 0.60469 0.93137 0.0
H2216 H 0.33198 0.52297 0.85294 0.0
H2217 H 0.39142 0.50821 0.80815 0.0
H2218 H 0.35683 0.5194 0.88764 0.0
H2219 H 0.41687 0.50601 0.84271 0.0
H2220 H 0.45433 0.48189 0.90819 0.0
H2221 H 0.4281 0.48406 0.87449 0.0
H2222 H 0.3853 0.53509 0.91154 0.0
H2223 H 0.41098 0.53158 0.94585 0.0
C2224 C 0.35055 0.5194 0.85052 0.0
C2225 C 0.35975 0.51597 0.82778 0.0
C2226 C 0.36492 0.51744 0.87049 0.0
C2227 C 0.3891 0.51237 0.86834 0.0
C2228 C 0.39833 0.50936 0.84541 0.0
C2229 C 0.3838 0.51085 0.82545 0.0
C2230 C 0.43915 0.49339 0.9092 0.0
C2231 C 0.43471 0.50652 0.92972 0.0
C2232 C 0.42417 0.49489 0.88968 0.0
C2233 C 0.40452 0.51003 0.88981 0.0
C2234 C 0.39993 0.52294 0.91062 0.0
C2235 C 0.4147 0.521 0.93039 0.0
H2236 H 0.468 0.36896 0.82771 0.0
H2237 H 0.54292 0.35588 0.83144 0.0
H2238 H 0.47037 0.39184 0.86397 0.0
H2239 H 0.5452 0.38012 0.86679 0.0
H2240 H 0.53811 0.45069 0.91142 0.0
H2241 H 0.5371 0.42488 0.87692 0.0
H2242 H 0.48201 0.38377 0.90923 0.0
H2243 H 0.4835 0.40936 0.94428 0.0
C2244 C 0.485 0.37078 0.83609 0.0
C2245 C 0.50524 0.36017 0.82625 0.0
C2246 C 0.4863 0.38405 0.85696 0.0
C2247 C 0.50793 0.38765 0.86839 0.0
C2248 C 0.52825 0.37771 0.85838 0.0
C2249 C 0.52691 0.36398 0.83782 0.0
C2250 C 0.52602 0.43591 0.91134 0.0
C2251 C 0.51097 0.43198 0.93066 0.0
C2252 C 0.52546 0.42113 0.89157 0.0
C2253 C 0.5094 0.40235 0.89025 0.0
C2254 C 0.4945 0.39818 0.90968 0.0
C2255 C 0.49549 0.41267 0.92982 0.0
H2256 H 0.64782 0.46421 0.8288 0.0
H2257 H 0.65618 0.54 0.82975 0.0
H2258 H 0.62494 0.46648 0.86513 0.0
H2259 H 0.63222 0.54208 0.8652 0.0
H2260 H 0.56332 0.53391 0.91036 0.0
H2261 H 0.58884 0.53254 0.8758 0.0
H2262 H 0.63172 0.47967 0.90957 0.0
H2263 H 0.60627 0.48142 0.94466 0.0
C2264 C 0.6449 0.48136 0.8366 0.0
C2265 C 0.65406 0.50191 0.82597 0.0
C2266 C 0.63171 0.48261 0.85749 0.0
C2267 C 0.62689 0.50444 0.86812 0.0
C2268 C 0.63554 0.52499 0.85737 0.0
C2269 C 0.64909 0.52375 0.83677 0.0
C2270 C 0.57838 0.52219 0.91057 0.0
C2271 C 0.58284 0.50781 0.93028 0.0
C2272 C 0.593 0.52144 0.89077 0.0
C2273 C 0.61222 0.50592 0.88989 0.0
C2274 C 0.61693 0.4917 0.9097 0.0
C2275 C 0.60254 0.49285 0.92984 0.0
H2276 H 0.54838 0.37208 0.18915 0.0
H2277 H 0.47348 0.35895 0.18474 0.0
H2278 H 0.5463 0.39504 0.15292 0.0
H2279 H 0.4715 0.38335 0.14948 0.0
H2280 H 0.48022 0.45443 0.10511 0.0
H2281 H 0.4809 0.429 0.13992 0.0
H2282 H 0.53391 0.38557 0.10719 0.0
H2283 H 0.5327 0.41072 0.07184 0.0
C2284 C 0.53145 0.37393 0.18064 0.0
C2285 C 0.51113 0.36325 0.19023 0.0
C2286 C 0.53032 0.38725 0.15982 0.0
C2287 C 0.50879 0.39083 0.14824 0.0
C2288 C 0.48836 0.38091 0.15804 0.0
C2289 C 0.48953 0.36711 0.17854 0.0
C2290 C 0.49181 0.43926 0.1052 0.0
C2291 C 0.50635 0.43452 0.08569 0.0
C2292 C 0.49216 0.42471 0.12513 0.0
C2293 C 0.50754 0.40538 0.12635 0.0
C2294 C 0.52196 0.40043 0.10677 0.0
C2295 C 0.52114 0.41468 0.08649 0.0
H2296 H 0.67298 0.47797 0.17102 0.0
H2297 H 0.63476 0.5371 0.19983 0.0
H2298 H 0.64858 0.47928 0.1357 0.0
H2299 H 0.61107 0.53905 0.16411 0.0
H2300 H 0.55469 0.51785 0.11153 0.0
H2301 H 0.58051 0.51751 0.14526 0.0
H2302 H 0.63957 0.50173 0.10006 0.0
H2303 H 0.61322 0.50147 0.06574 0.0
C2304 C 0.65928 0.49118 0.16995 0.0
C2305 C 0.65574 0.50726 0.18856 0.0
C2306 C 0.64553 0.49218 0.14943 0.0
C2307 C 0.62778 0.50926 0.14691 0.0
C2308 C 0.62435 0.52544 0.16545 0.0
C2309 C 0.6381 0.52445 0.18595 0.0
C2310 C 0.57316 0.51427 0.10852 0.0
C2311 C 0.58174 0.50954 0.08569 0.0
C2312 C 0.5881 0.51432 0.12805 0.0
C2313 C 0.61224 0.50969 0.12556 0.0
C2314 C 0.62102 0.50516 0.10272 0.0
C2315 C 0.60596 0.50519 0.08299 0.0
H2316 H 0.54309 0.65807 0.18306 0.0
H2317 H 0.46819 0.64479 0.18676 0.0
H2318 H 0.54539 0.63404 0.14758 0.0
H2319 H 0.47058 0.62215 0.15034 0.0
H2320 H 0.48405 0.60565 0.06979 0.0
H2321 H 0.48267 0.63108 0.10496 0.0
H2322 H 0.53682 0.58895 0.13753 0.0
H2323 H 0.53769 0.56329 0.10291 0.0
C2324 C 0.5271 0.64996 0.17665 0.0
C2325 C 0.50541 0.65364 0.18823 0.0
C2326 C 0.52845 0.63638 0.15601 0.0
C2327 C 0.50812 0.62648 0.14597 0.0
C2328 C 0.48649 0.62994 0.15741 0.0
C2329 C 0.48518 0.64305 0.17836 0.0
C2330 C 0.49587 0.60209 0.08434 0.0
C2331 C 0.51103 0.58255 0.08357 0.0
C2332 C 0.49494 0.61648 0.10453 0.0
C2333 C 0.5096 0.61195 0.12405 0.0
C2334 C 0.52538 0.59295 0.1228 0.0
C2335 C 0.52586 0.57827 0.10296 0.0
H2336 H 0.34207 0.53617 0.16979 0.0
H2337 H 0.38034 0.4767 0.19779 0.0
H2338 H 0.36687 0.5357 0.13467 0.0
H2339 H 0.40455 0.47572 0.16235 0.0
H2340 H 0.46151 0.49897 0.11115 0.0
H2341 H 0.43522 0.4986 0.14453 0.0
H2342 H 0.37646 0.51334 0.09863 0.0
H2343 H 0.40324 0.51417 0.06462 0.0
C2344 C 0.35587 0.52307 0.16857 0.0
C2345 C 0.35931 0.50663 0.18689 0.0
C2346 C 0.36986 0.52257 0.14819 0.0
C2347 C 0.38778 0.50569 0.14555 0.0
C2348 C 0.39112 0.48917 0.1638 0.0
C2349 C 0.37709 0.48962 0.18413 0.0
C2350 C 0.44301 0.5022 0.10791 0.0
C2351 C 0.43463 0.50675 0.08496 0.0
C2352 C 0.42782 0.50174 0.12723 0.0
C2353 C 0.40362 0.50583 0.12443 0.0
C2354 C 0.39505 0.5103 0.1015 0.0
C2355 C 0.41036 0.51063 0.08196 0.0
H2356 H 0.84899 0.47948 0.67869 0.0
H2357 H 0.81425 0.52854 0.63207 0.0
H2358 H 0.88379 0.4802 0.65346 0.0
H2359 H 0.84929 0.52995 0.60742 0.0
H2360 H 0.9032 0.50611 0.55391 0.0
H2361 H 0.86995 0.50529 0.58027 0.0
H2362 H 0.91685 0.50485 0.64011 0.0
H2363 H 0.95081 0.50527 0.61335 0.0
C2364 C 0.84866 0.49031 0.66298 0.0
C2365 C 0.82857 0.50378 0.65737 0.0
C2366 C 0.86882 0.491 0.6487 0.0
C2367 C 0.86947 0.50511 0.62832 0.0
C2368 C 0.84942 0.51863 0.62279 0.0
C2369 C 0.82931 0.51798 0.63707 0.0
C2370 C 0.90673 0.50587 0.57266 0.0
C2371 C 0.92999 0.50582 0.58136 0.0
C2372 C 0.88743 0.50557 0.58787 0.0
C2373 C 0.89054 0.50523 0.61241 0.0
C2374 C 0.91374 0.50497 0.62129 0.0
C2375 C 0.93325 0.50533 0.60595 0.0
H2376 H 0.54148 0.83014 0.65392 0.0
H2377 H 0.46554 0.83111 0.64859 0.0
H2378 H 0.54352 0.86522 0.62935 0.0
H2379 H 0.46784 0.86708 0.62516 0.0
H2380 H 0.48419 0.94614 0.60515 0.0
H2381 H 0.48256 0.91131 0.63101 0.0
H2382 H 0.53233 0.87565 0.58605 0.0
H2383 H 0.53353 0.90995 0.5601 0.0
C2384 C 0.52517 0.8375 0.6474 0.0
C2385 C 0.50331 0.82734 0.65342 0.0
C2386 C 0.5264 0.85789 0.63349 0.0
C2387 C 0.50584 0.86909 0.62552 0.0
C2388 C 0.48399 0.85909 0.63138 0.0
C2389 C 0.48274 0.8384 0.64491 0.0
C2390 C 0.49497 0.93095 0.60102 0.0
C2391 C 0.509 0.93081 0.58062 0.0
C2392 C 0.49388 0.91096 0.61567 0.0
C2393 C 0.50727 0.89069 0.61052 0.0
C2394 C 0.52188 0.89096 0.59056 0.0
C2395 C 0.52253 0.91063 0.57569 0.0
H2396 H 0.20146 0.48992 0.63315 0.0
H2397 H 0.16439 0.53564 0.68135 0.0
H2398 H 0.16689 0.48853 0.60785 0.0
H2399 H 0.13006 0.535 0.65548 0.0
H2400 H 0.0645 0.50898 0.61359 0.0
H2401 H 0.09813 0.50985 0.64073 0.0
H2402 H 0.14561 0.51341 0.58145 0.0
H2403 H 0.11265 0.51218 0.55468 0.0
C2404 C 0.18599 0.49977 0.63835 0.0
C2405 C 0.18592 0.51299 0.65932 0.0
C2406 C 0.16615 0.49914 0.6237 0.0
C2407 C 0.14557 0.51173 0.62951 0.0
C2408 C 0.14545 0.52492 0.6505 0.0
C2409 C 0.16533 0.52558 0.66516 0.0
C2410 C 0.08211 0.50994 0.60638 0.0
C2411 C 0.08564 0.51036 0.58183 0.0
C2412 C 0.10143 0.51054 0.62195 0.0
C2413 C 0.12471 0.51149 0.61333 0.0
C2414 C 0.12808 0.51217 0.58883 0.0
C2415 C 0.10895 0.51161 0.57339 0.0
H2416 H 0.5505 0.18823 0.64387 0.0
H2417 H 0.4753 0.18485 0.65544 0.0
H2418 H 0.54833 0.1522 0.62059 0.0
H2419 H 0.47327 0.14981 0.63074 0.0
H2420 H 0.48204 0.10582 0.5597 0.0
H2421 H 0.48298 0.14035 0.58548 0.0
H2422 H 0.53543 0.10663 0.62882 0.0
H2423 H 0.53396 0.07153 0.60328 0.0
C2424 C 0.53348 0.17999 0.64163 0.0
C2425 C 0.5131 0.18985 0.65196 0.0
C2426 C 0.5323 0.15927 0.62813 0.0
C2427 C 0.51067 0.14803 0.62397 0.0
C2428 C 0.49022 0.15808 0.63359 0.0
C2429 C 0.49142 0.17847 0.64758 0.0
C2430 C 0.49357 0.10562 0.5749 0.0
C2431 C 0.50787 0.08588 0.5795 0.0
C2432 C 0.49407 0.12541 0.58968 0.0
C2433 C 0.50935 0.12629 0.60912 0.0
C2434 C 0.52356 0.1065 0.61389 0.0
C2435 C 0.52259 0.08635 0.59941 0.0
H2436 H 0.84675 0.53525 0.34025 0.0
H2437 H 0.81573 0.47954 0.38178 0.0
H2438 H 0.88186 0.53413 0.36496 0.0
H2439 H 0.85118 0.47774 0.4058 0.0
H2440 H 0.90393 0.50001 0.4613 0.0
H2441 H 0.8705 0.5005 0.4352 0.0
H2442 H 0.91662 0.51092 0.37564 0.0
H2443 H 0.95073 0.51102 0.40223 0.0
C2444 C 0.8473 0.52284 0.35473 0.0
C2445 C 0.82813 0.50766 0.35911 0.0
C2446 C 0.86767 0.52194 0.36868 0.0
C2447 C 0.86949 0.50587 0.38746 0.0
C2448 C 0.8504 0.49058 0.39171 0.0
C2449 C 0.83005 0.49147 0.37777 0.0
C2450 C 0.90724 0.50243 0.44266 0.0
C2451 C 0.93031 0.50555 0.43402 0.0
C2452 C 0.88785 0.50249 0.42758 0.0
C2453 C 0.89069 0.50559 0.4032 0.0
C2454 C 0.91371 0.50866 0.39436 0.0
C2455 C 0.93332 0.50856 0.40958 0.0
H2456 H 0.52151 0.84889 0.33245 0.0
H2457 H 0.49836 0.80713 0.39143 0.0
H2458 H 0.5184 0.88453 0.35606 0.0
H2459 H 0.49679 0.84246 0.4159 0.0
H2460 H 0.47758 0.91036 0.45167 0.0
H2461 H 0.47805 0.87609 0.42604 0.0
H2462 H 0.53317 0.9084 0.38446 0.0
H2463 H 0.53121 0.94341 0.40937 0.0
C2464 C 0.51609 0.84735 0.35069 0.0
C2465 C 0.51025 0.8252 0.36011 0.0
C2466 C 0.51444 0.86785 0.36439 0.0
C2467 C 0.50737 0.86683 0.3882 0.0
C2468 C 0.50176 0.84443 0.39761 0.0
C2469 C 0.50287 0.82398 0.38367 0.0
C2470 C 0.48957 0.91021 0.43681 0.0
C2471 C 0.50428 0.92965 0.43248 0.0
C2472 C 0.49011 0.89032 0.42218 0.0
C2473 C 0.50591 0.88887 0.40307 0.0
C2474 C 0.52042 0.90865 0.39861 0.0
C2475 C 0.51941 0.92885 0.41295 0.0
H2476 H 0.17104 0.47859 0.34168 0.0
H2477 H 0.19944 0.53766 0.38035 0.0
H2478 H 0.13601 0.47914 0.36654 0.0
H2479 H 0.16406 0.53877 0.40458 0.0
H2480 H 0.11237 0.51631 0.46128 0.0
H2481 H 0.14585 0.51626 0.43514 0.0
H2482 H 0.10024 0.5015 0.37612 0.0
H2483 H 0.06615 0.50102 0.40273 0.0
C2484 C 0.16993 0.49162 0.35558 0.0
C2485 C 0.18833 0.50793 0.35909 0.0
C2486 C 0.1496 0.49216 0.36961 0.0
C2487 C 0.14707 0.50899 0.38764 0.0
C2488 C 0.16542 0.52536 0.39107 0.0
C2489 C 0.18571 0.52484 0.37702 0.0
C2490 C 0.10921 0.51301 0.44276 0.0
C2491 C 0.08631 0.50857 0.43425 0.0
C2492 C 0.1286 0.5132 0.42765 0.0
C2493 C 0.1259 0.509 0.40342 0.0
C2494 C 0.10303 0.50463 0.39473 0.0
C2495 C 0.08344 0.50451 0.40996 0.0
H2496 H 0.54341 0.1837 0.35531 0.0
H2497 H 0.46882 0.18836 0.36993 0.0
H2498 H 0.54569 0.1482 0.37932 0.0
H2499 H 0.47115 0.15194 0.39257 0.0
H2500 H 0.48373 0.07127 0.40878 0.0
H2501 H 0.48236 0.10651 0.38346 0.0
H2502 H 0.53794 0.13814 0.42444 0.0
H2503 H 0.53883 0.10345 0.45001 0.0
C2504 C 0.52749 0.17749 0.36372 0.0
C2505 C 0.50589 0.18933 0.36041 0.0
C2506 C 0.52882 0.15685 0.3773 0.0
C2507 C 0.50855 0.14708 0.38757 0.0
C2508 C 0.48701 0.1588 0.3845 0.0
C2509 C 0.48573 0.17974 0.37138 0.0
C2510 C 0.49585 0.08563 0.41211 0.0
C2511 C 0.51143 0.08457 0.43132 0.0
C2512 C 0.49493 0.10586 0.39779 0.0
C2513 C 0.51 0.12513 0.40203 0.0
C2514 C 0.52617 0.12359 0.42068 0.0
C2515 C 0.52667 0.10372 0.4353 0.0
H2516 H 0.63173 0.81283 0.53136 0.0
H2517 H 0.67464 0.84507 0.47745 0.0
H2518 H 0.60714 0.84798 0.53264 0.0
H2519 H 0.64947 0.87985 0.47807 0.0
H2520 H 0.61177 0.94826 0.50157 0.0
H2521 H 0.63817 0.91406 0.50165 0.0
H2522 H 0.57831 0.86781 0.50932 0.0
H2523 H 0.55229 0.90145 0.50975 0.0
C2524 C 0.6359 0.82735 0.5197 0.0
C2525 C 0.65515 0.82588 0.50418 0.0
C2526 C 0.62165 0.84751 0.52029 0.0
C2527 C 0.6262 0.86687 0.50541 0.0
C2528 C 0.6455 0.86546 0.48996 0.0
C2529 C 0.65974 0.84527 0.48933 0.0
C2530 C 0.60428 0.9308 0.50336 0.0
C2531 C 0.57979 0.92783 0.50561 0.0
C2532 C 0.61941 0.91114 0.50327 0.0
C2533 C 0.61043 0.88806 0.50558 0.0
C2534 C 0.586 0.88522 0.5079 0.0
C2535 C 0.57097 0.9047 0.50793 0.0
H2536 H 0.6553 0.17976 0.4616 0.0
H2537 H 0.65654 0.18442 0.53766 0.0
H2538 H 0.63138 0.14409 0.46435 0.0
H2539 H 0.6319 0.14948 0.54014 0.0
H2540 H 0.56396 0.10458 0.5309 0.0
H2541 H 0.59024 0.13845 0.52894 0.0
H2542 H 0.63476 0.1011 0.47994 0.0
H2543 H 0.60834 0.06677 0.48213 0.0
C2544 C 0.65056 0.17331 0.47891 0.0
C2545 C 0.65795 0.18531 0.49939 0.0
C2546 C 0.63684 0.15278 0.48044 0.0
C2547 C 0.62982 0.14388 0.50246 0.0
C2548 C 0.63685 0.15598 0.52289 0.0
C2549 C 0.65083 0.17626 0.5214 0.0
C2550 C 0.5795 0.10344 0.51988 0.0
C2551 C 0.5841 0.08296 0.50669 0.0
C2552 C 0.59459 0.12287 0.51881 0.0
C2553 C 0.61453 0.12254 0.50421 0.0
C2554 C 0.61941 0.10194 0.49122 0.0
C2555 C 0.60446 0.08221 0.49265 0.0
H2556 H 0.8457 0.6733 0.53644 0.0
H2557 H 0.8157 0.63376 0.47877 0.0
H2558 H 0.88061 0.64833 0.53542 0.0
H2559 H 0.85097 0.60934 0.47721 0.0
H2560 H 0.90321 0.55287 0.49984 0.0
H2561 H 0.86972 0.57906 0.49997 0.0
H2562 H 0.91571 0.63839 0.51224 0.0
H2563 H 0.94976 0.61179 0.51256 0.0
C2564 C 0.84644 0.65918 0.52362 0.0
C2565 C 0.82762 0.65544 0.50786 0.0
C2566 C 0.8667 0.64508 0.5228 0.0
C2567 C 0.86874 0.62675 0.50625 0.0
C2568 C 0.84998 0.62309 0.4904 0.0
C2569 C 0.82976 0.63724 0.49117 0.0
C2570 C 0.90644 0.57148 0.50259 0.0
C2571 C 0.92944 0.58008 0.50629 0.0
C2572 C 0.88706 0.5866 0.50245 0.0
C2573 C 0.88986 0.61093 0.50601 0.0
C2574 C 0.91282 0.61971 0.50963 0.0
C2575 C 0.93239 0.60448 0.50967 0.0
H2576 H 0.3586 0.8313 0.53888 0.0
H2577 H 0.36254 0.83449 0.46283 0.0
H2578 H 0.38328 0.86623 0.54154 0.0
H2579 H 0.38634 0.8702 0.46574 0.0
H2580 H 0.40823 0.94803 0.48296 0.0
H2581 H 0.38195 0.9136 0.48077 0.0
H2582 H 0.42564 0.87704 0.53107 0.0
H2583 H 0.45188 0.91101 0.53296 0.0
C2584 C 0.36489 0.83913 0.52267 0.0
C2585 C 0.35848 0.82967 0.5006 0.0
C2586 C 0.37888 0.85941 0.52426 0.0
C2587 C 0.3866 0.87113 0.50386 0.0
C2588 C 0.38033 0.8618 0.48179 0.0
C2589 C 0.36664 0.84126 0.48017 0.0
C2590 C 0.41196 0.93275 0.49377 0.0
C2591 C 0.43209 0.93225 0.50816 0.0
C2592 C 0.39708 0.91297 0.49235 0.0
C2593 C 0.40177 0.89255 0.50569 0.0
C2594 C 0.42145 0.89248 0.52066 0.0
C2595 C 0.43651 0.91195 0.5217 0.0
H2596 H 0.20195 0.38315 0.48266 0.0
H2597 H 0.16987 0.33995 0.53647 0.0
H2598 H 0.16659 0.40734 0.48104 0.0
H2599 H 0.13485 0.36477 0.53552 0.0
H2600 H 0.06644 0.4025 0.51174 0.0
H2601 H 0.10062 0.37605 0.51174 0.0
H2602 H 0.14681 0.43604 0.50454 0.0
H2603 H 0.11329 0.46208 0.50403 0.0
C2604 C 0.18742 0.37882 0.49421 0.0
C2605 C 0.189 0.35963 0.50982 0.0
C2606 C 0.16713 0.39284 0.49343 0.0
C2607 C 0.14777 0.38813 0.50822 0.0
C2608 C 0.14926 0.36885 0.52372 0.0
C2609 C 0.16957 0.35483 0.52452 0.0
C2610 C 0.08389 0.41 0.51005 0.0
C2611 C 0.08688 0.43453 0.50787 0.0
C2612 C 0.10352 0.39484 0.51019 0.0
C2613 C 0.12658 0.40385 0.50801 0.0
C2614 C 0.12942 0.42833 0.50582 0.0
C2615 C 0.10999 0.44336 0.50573 0.0
H2616 H 0.34379 0.172 0.47735 0.0
H2617 H 0.38345 0.20128 0.5353 0.0
H2618 H 0.36858 0.13693 0.47796 0.0
H2619 H 0.4077 0.16584 0.53644 0.0
H2620 H 0.4637 0.11334 0.51325 0.0
H2621 H 0.43779 0.14709 0.51342 0.0
H2622 H 0.3782 0.10155 0.50093 0.0
H2623 H 0.4045 0.06726 0.50029 0.0
C2624 C 0.3579 0.17108 0.49014 0.0
C2625 C 0.36173 0.18972 0.50611 0.0
C2626 C 0.37189 0.15073 0.49072 0.0
C2627 C 0.39019 0.14843 0.50724 0.0
C2628 C 0.39396 0.16703 0.52328 0.0
C2629 C 0.37992 0.18734 0.52274 0.0
C2630 C 0.4451 0.11028 0.51047 0.0
C2631 C 0.43632 0.08735 0.50661 0.0
C2632 C 0.43014 0.1298 0.5108 0.0
C2633 C 0.40583 0.12718 0.50728 0.0
C2634 C 0.39688 0.10428 0.50351 0.0
C2635 C 0.41194 0.08458 0.50328 0.0
H2636 H 0.8148 0.38164 0.52294 0.0
H2637 H 0.85401 0.33155 0.48121 0.0
H2638 H 0.8492 0.4071 0.52474 0.0
H2639 H 0.8882 0.35759 0.48217 0.0
H2640 H 0.95243 0.40087 0.50924 0.0
H2641 H 0.91895 0.37356 0.50788 0.0
H2642 H 0.87152 0.43246 0.49992 0.0
H2643 H 0.90429 0.45939 0.5017 0.0
C2644 C 0.83071 0.37606 0.51404 0.0
C2645 C 0.83143 0.35449 0.50184 0.0
C2646 C 0.85046 0.39081 0.5149 0.0
C2647 C 0.87159 0.38452 0.50353 0.0
C2648 C 0.87236 0.36296 0.49132 0.0
C2649 C 0.85256 0.34818 0.49045 0.0
C2650 C 0.93485 0.40795 0.50725 0.0
C2651 C 0.93127 0.43246 0.50582 0.0
C2652 C 0.91563 0.39229 0.50635 0.0
C2653 C 0.89239 0.40077 0.50403 0.0
C2654 C 0.88899 0.42521 0.50227 0.0
C2655 C 0.90801 0.44074 0.50317 0.0
H2656 H 0.16284 0.68232 0.47973 0.0
H2657 H 0.20081 0.63393 0.52447 0.0
H2658 H 0.12867 0.65624 0.48057 0.0
H2659 H 0.16642 0.6084 0.52609 0.0
H2660 H 0.11217 0.55512 0.50281 0.0
H2661 H 0.14493 0.58209 0.50133 0.0
H2662 H 0.09716 0.64105 0.50593 0.0
H2663 H 0.0637 0.6137 0.50704 0.0
C2664 C 0.16402 0.66605 0.48962 0.0
C2665 C 0.1848 0.66022 0.50187 0.0
C2666 C 0.14422 0.65125 0.4904 0.0
C2667 C 0.14465 0.63014 0.50339 0.0
C2668 C 0.16543 0.62434 0.51564 0.0
C2669 C 0.18518 0.63913 0.51489 0.0
C2670 C 0.10836 0.5738 0.50359 0.0
C2671 C 0.08501 0.58208 0.50521 0.0
C2672 C 0.12738 0.58936 0.50287 0.0
C2673 C 0.12388 0.61383 0.50376 0.0
C2674 C 0.10056 0.6223 0.50507 0.0
C2675 C 0.08135 0.60661 0.50582 0.0
loop_
_geom_bond_atom_site_label_1
_geom_bond_atom_site_label_2
_geom_bond_distance
_geom_bond_site_symmetry_2
_ccdc_geom_bond_type
C0 C1 1.386 1_655 S
C0 C2 1.397 . S
C0 H24 0.931 . S
C1 C0 1.386 1_455 S
C1 C5 1.397 . S
C2 C0 1.397 . S
C2 C3 1.384 1_655 S
C2 H25 0.930 . S
C3 C2 1.384 1_455 S
C3 C4 1.377 . S
C3 C6 1.482 . S
C4 C3 1.377 . S
C4 C5 1.389 . S
C4 H26 0.929 . S
C5 C1 1.397 . S
C5 C4 1.389 . S
C5 H27 0.931 . S
C6 C3 1.482 . S
C6 C7 1.386 . S
C6 C11 1.392 . S
C7 C6 1.386 . S
C7 C8 1.400 . S
C7 H28 0.929 1_455 S
C8 C7 1.400 . S
C8 C9 1.376 . S
C8 C17 1.510 1_455 S
C9 C8 1.376 . S
C9 C10 1.393 . S
C9 H30 0.930 1_455 S
C10 C9 1.393 . S
C10 C11 1.361 . S
C10 C12 1.500 . S
C11 C6 1.392 . S
C11 C10 1.361 . S
C11 H29 0.931 . S
C12 C10 1.500 . S
C12 C13 1.371 1_455 S
C12 C14 1.365 . S
C13 C12 1.371 1_655 S
C13 C23 1.386 . S
C13 H31 0.931 . S
C14 C12 1.365 . S
C14 C15 1.409 . S
C14 H32 0.929 . S
C15 C14 1.409 . S
C15 C16 1.380 . S
C15 H33 0.930 . S
C16 C15 1.380 . S
C16 C23 1.357 1_455 S
C17 C8 1.510 1_655 S
C17 C18 1.341 . S
C17 C19 1.371 1_655 S
C18 C17 1.341 . S
C18 C22 1.394 . S
C18 H34 0.930 . S
C19 C17 1.371 1_455 S
C19 C20 1.392 . S
C19 H35 0.931 . S
C20 C19 1.392 . S
C20 C21 1.345 . S
C20 H38 0.932 . S
C21 C20 1.345 . S
C21 C22 1.323 1_455 S
C22 C18 1.394 . S
C22 C21 1.323 1_655 S
C22 H37 0.929 . S
C23 C13 1.386 . S
C23 C16 1.357 1_655 S
C23 H36 0.928 . S
H24 C0 0.931 . S
H25 C2 0.930 . S
H26 C4 0.929 . S
H27 C5 0.931 . S
H28 C7 0.929 1_655 S
H29 C11 0.931 . S
H30 C9 0.930 1_655 S
H31 C13 0.931 . S
H32 C14 0.929 . S
H33 C15 0.930 . S
H34 C18 0.930 . S
H35 C19 0.931 . S
H36 C23 0.928 . S
H37 C22 0.929 . S
H38 C20 0.932 . S
C39 C40 1.395 . S
C39 C41 1.397 . S
C39 H63 0.931 . S
C40 C39 1.395 . S
C40 C44 1.388 1_545 S
C41 C39 1.397 . S
C41 C42 1.389 . S
C41 H64 0.930 . S
C42 C41 1.389 . S
C42 C43 1.372 1_545 S
C42 C45 1.480 . S
C43 C42 1.372 1_565 S
C43 C44 1.389 . S
C43 H65 0.929 . S
C44 C40 1.388 1_565 S
C44 C43 1.389 . S
C44 H66 0.931 . S
C45 C42 1.480 . S
C45 C46 1.388 . S
C45 C50 1.390 . S
C46 C45 1.388 . S
C46 C47 1.402 . S
C46 H67 0.930 . S
C47 C46 1.402 . S
C47 C48 1.376 . S
C47 C56 1.513 . S
C48 C47 1.376 . S
C48 C49 1.392 . S
C48 H69 0.934 . S
C49 C48 1.392 . S
C49 C50 1.361 . S
C49 C51 1.499 1_545 S
C50 C45 1.390 . S
C50 C49 1.361 . S
C50 H68 0.931 . S
C51 C49 1.499 1_565 S
C51 C52 1.362 1_565 S
C51 C53 1.374 . S
C52 C51 1.362 1_545 S
C52 C62 1.386 . S
C52 H70 0.931 . S
C53 C51 1.374 . S
C53 C54 1.409 . S
C53 H71 0.929 . S
C54 C53 1.409 . S
C54 C55 1.379 . S
C54 H72 0.930 . S
C55 C54 1.379 . S
C55 C62 1.359 1_565 S
C56 C47 1.513 . S
C56 C57 1.341 . S
C56 C58 1.371 1_545 S
C57 C56 1.341 . S
C57 C61 1.394 . S
C57 H73 0.930 . S
C58 C56 1.371 1_565 S
C58 C59 1.392 . S
C58 H74 0.931 . S
C59 C58 1.392 . S
C59 C60 1.322 1_565 S
C59 H77 0.932 . S
C60 C59 1.322 1_545 S
C60 C61 1.345 . S
C61 C57 1.394 . S
C61 C60 1.345 . S
C61 H76 0.929 . S
C62 C52 1.386 . S
C62 C55 1.359 1_545 S
C62 H75 0.928 . S
H63 C39 0.931 . S
H64 C41 0.930 . S
H65 C43 0.929 . S
H66 C44 0.931 . S
H67 C46 0.930 . S
H68 C50 0.931 . S
H69 C48 0.934 . S
H70 C52 0.931 . S
H71 C53 0.929 . S
H72 C54 0.930 . S
H73 C57 0.930 . S
H74 C58 0.931 . S
H75 C62 0.928 . S
H76 C61 0.929 . S
H77 C59 0.932 . S
C78 C79 1.386 1_655 S
C78 C80 1.397 . S
C78 H102 0.931 . S
C79 C78 1.386 1_455 S
C79 C83 1.397 . S
C80 C78 1.397 . S
C80 C81 1.384 1_655 S
C80 H103 0.930 . S
C81 C80 1.384 1_455 S
C81 C82 1.377 . S
C81 C84 1.482 . S
C82 C81 1.377 . S
C82 C83 1.389 . S
C82 H104 0.929 . S
C83 C79 1.397 . S
C83 C82 1.389 . S
C83 H105 0.931 . S
C84 C81 1.482 . S
C84 C85 1.386 . S
C84 C89 1.392 . S
C85 C84 1.386 . S
C85 C86 1.400 . S
C85 H106 0.929 1_455 S
C86 C85 1.400 . S
C86 C87 1.376 . S
C86 C95 1.510 1_455 S
C87 C86 1.376 . S
C87 C88 1.393 . S
C87 H108 0.930 1_455 S
C88 C87 1.393 . S
C88 C89 1.361 . S
C88 C90 1.500 . S
C89 C84 1.392 . S
C89 C88 1.361 . S
C89 H107 0.931 . S
C90 C88 1.500 . S
C90 C91 1.371 1_455 S
C90 C92 1.365 . S
C91 C90 1.371 1_655 S
C91 C101 1.386 . S
C91 H109 0.931 . S
C92 C90 1.365 . S
C92 C93 1.409 . S
C92 H110 0.929 . S
C93 C92 1.409 . S
C93 C94 1.380 . S
C93 H111 0.930 . S
C94 C93 1.380 . S
C94 C101 1.357 1_455 S
C95 C86 1.510 1_655 S
C95 C96 1.341 . S
C95 C97 1.371 1_655 S
C96 C95 1.341 . S
C96 C100 1.394 . S
C96 H112 0.930 . S
C97 C95 1.371 1_455 S
C97 C98 1.392 . S
C97 H113 0.931 . S
C98 C97 1.392 . S
C98 C99 1.345 . S
C98 H116 0.932 . S
C99 C98 1.345 . S
C99 C100 1.323 1_455 S
C100 C96 1.394 . S
C100 C99 1.323 1_655 S
C100 H115 0.929 . S
C101 C91 1.386 . S
C101 C94 1.357 1_655 S
C101 H114 0.928 . S
H102 C78 0.931 . S
H103 C80 0.930 . S
H104 C82 0.929 . S
H105 C83 0.931 . S
H106 C85 0.929 1_655 S
H107 C89 0.931 . S
H108 C87 0.930 1_655 S
H109 C91 0.931 . S
H110 C92 0.929 . S
H111 C93 0.930 . S
H112 C96 0.930 . S
H113 C97 0.931 . S
H114 C101 0.928 . S
H115 C100 0.929 . S
H116 C98 0.932 . S
C117 C118 1.395 . S
C117 C119 1.397 . S
C117 H141 0.931 . S
C118 C117 1.395 . S
C118 C122 1.388 1_545 S
C119 C117 1.397 . S
C119 C120 1.389 . S
C119 H142 0.930 . S
C120 C119 1.389 . S
C120 C121 1.372 1_545 S
C120 C123 1.480 . S
C121 C120 1.372 1_565 S
C121 C122 1.389 . S
C121 H143 0.929 . S
C122 C118 1.388 1_565 S
C122 C121 1.389 . S
C122 H144 0.931 . S
C123 C120 1.480 . S
C123 C124 1.388 . S
C123 C128 1.390 . S
C124 C123 1.388 . S
C124 C125 1.402 . S
C124 H145 0.930 . S
C125 C124 1.402 . S
C125 C126 1.376 . S
C125 C134 1.513 . S
C126 C125 1.376 . S
C126 C127 1.392 . S
C126 H147 0.934 . S
C127 C126 1.392 . S
C127 C128 1.361 . S
C127 C129 1.499 1_545 S
C128 C123 1.390 . S
C128 C127 1.361 . S
C128 H146 0.931 . S
C129 C127 1.499 1_565 S
C129 C130 1.362 1_565 S
C129 C131 1.374 . S
C130 C129 1.362 1_545 S
C130 C140 1.386 . S
C130 H148 0.931 . S
C131 C129 1.374 . S
C131 C132 1.409 . S
C131 H149 0.929 . S
C132 C131 1.409 . S
C132 C133 1.379 . S
C132 H150 0.930 . S
C133 C132 1.379 . S
C133 C140 1.359 1_565 S
C134 C125 1.513 . S
C134 C135 1.341 . S
C134 C136 1.371 1_545 S
C135 C134 1.341 . S
C135 C139 1.394 . S
C135 H151 0.930 . S
C136 C134 1.371 1_565 S
C136 C137 1.392 . S
C136 H152 0.931 . S
C137 C136 1.392 . S
C137 C138 1.322 1_565 S
C137 H155 0.932 . S
C138 C137 1.322 1_545 S
C138 C139 1.345 . S
C139 C135 1.394 . S
C139 C138 1.345 . S
C139 H154 0.929 . S
C140 C130 1.386 . S
C140 C133 1.359 1_545 S
C140 H153 0.928 . S
H141 C117 0.931 . S
H142 C119 0.930 . S
H143 C121 0.929 . S
H144 C122 0.931 . S
H145 C124 0.930 . S
H146 C128 0.931 . S
H147 C126 0.934 . S
H148 C130 0.931 . S
H149 C131 0.929 . S
H150 C132 0.930 . S
H151 C135 0.930 . S
H152 C136 0.931 . S
H153 C140 0.928 . S
H154 C139 0.929 . S
H155 C137 0.932 . S
C156 C157 1.386 1_655 S
C156 C158 1.397 . S
C156 H180 0.931 . S
C157 C156 1.386 1_455 S
C157 C161 1.397 . S
C158 C156 1.397 . S
C158 C159 1.384 1_655 S
C158 H181 0.930 . S
C159 C158 1.384 1_455 S
C159 C160 1.377 . S
C159 C162 1.482 . S
C160 C159 1.377 . S
C160 C161 1.389 . S
C160 H182 0.929 . S
C161 C157 1.397 . S
C161 C160 1.389 . S
C161 H183 0.931 . S
C162 C159 1.482 . S
C162 C163 1.386 . S
C162 C167 1.392 . S
C163 C162 1.386 . S
C163 C164 1.400 . S
C163 H184 0.929 1_455 S
C164 C163 1.400 . S
C164 C165 1.376 . S
C164 C173 1.510 1_455 S
C165 C164 1.376 . S
C165 C166 1.393 . S
C165 H186 0.930 1_455 S
C166 C165 1.393 . S
C166 C167 1.361 . S
C166 C168 1.500 . S
C167 C162 1.392 . S
C167 C166 1.361 . S
C167 H185 0.931 . S
C168 C166 1.500 . S
C168 C169 1.371 1_455 S
C168 C170 1.365 . S
C169 C168 1.371 1_655 S
C169 C179 1.386 . S
C169 H187 0.931 . S
C170 C168 1.365 . S
C170 C171 1.409 . S
C170 H188 0.929 . S
C171 C170 1.409 . S
C171 C172 1.380 . S
C171 H189 0.930 . S
C172 C171 1.380 . S
C172 C179 1.357 1_455 S
C173 C164 1.510 1_655 S
C173 C174 1.341 . S
C173 C175 1.371 1_655 S
C174 C173 1.341 . S
C174 C178 1.394 . S
C174 H190 0.930 . S
C175 C173 1.371 1_455 S
C175 C176 1.392 . S
C175 H191 0.931 . S
C176 C175 1.392 . S
C176 C177 1.345 . S
C176 H194 0.932 . S
C177 C176 1.345 . S
C177 C178 1.323 1_455 S
C178 C174 1.394 . S
C178 C177 1.323 1_655 S
C178 H193 0.929 . S
C179 C169 1.386 . S
C179 C172 1.357 1_655 S
C179 H192 0.928 . S
H180 C156 0.931 . S
H181 C158 0.930 . S
H182 C160 0.929 . S
H183 C161 0.931 . S
H184 C163 0.929 1_655 S
H185 C167 0.931 . S
H186 C165 0.930 1_655 S
H187 C169 0.931 . S
H188 C170 0.929 . S
H189 C171 0.930 . S
H190 C174 0.930 . S
H191 C175 0.931 . S
H192 C179 0.928 . S
H193 C178 0.929 . S
H194 C176 0.932 . S
C195 C196 1.388 . S
C195 C197 1.397 . S
C195 H219 0.931 . S
C196 C195 1.388 . S
C196 C200 1.396 1_565 S
C197 C195 1.397 . S
C197 C198 1.382 . S
C197 H220 0.930 . S
C198 C197 1.382 . S
C198 C199 1.379 1_565 S
C198 C201 1.480 . S
C199 C198 1.379 1_545 S
C199 C200 1.389 . S
C199 H221 0.929 . S
C200 C196 1.396 1_545 S
C200 C199 1.389 . S
C200 H222 0.931 . S
C201 C198 1.480 . S
C201 C202 1.388 . S
C201 C206 1.390 . S
C202 C201 1.388 . S
C202 C203 1.402 . S
C202 H223 0.930 . S
C203 C202 1.402 . S
C203 C204 1.376 . S
C203 C212 1.512 . S
C204 C203 1.376 . S
C204 C205 1.392 1_565 S
C204 H225 0.933 . S
C205 C204 1.392 1_545 S
C205 C206 1.361 1_545 S
C205 C207 1.499 . S
C206 C201 1.390 . S
C206 C205 1.361 1_565 S
C206 H224 0.931 . S
C207 C205 1.499 . S
C207 C208 1.357 1_545 S
C207 C209 1.380 . S
C208 C207 1.357 1_565 S
C208 C218 1.386 . S
C208 H226 0.931 . S
C209 C207 1.380 . S
C209 C210 1.409 . S
C209 H227 0.929 . S
C210 C209 1.409 . S
C210 C211 1.384 . S
C210 H228 0.930 . S
C211 C210 1.384 . S
C211 C218 1.353 1_545 S
C212 C203 1.512 . S
C212 C213 1.341 . S
C212 C214 1.371 1_565 S
C213 C212 1.341 . S
C213 C217 1.394 . S
C213 H229 0.930 . S
C214 C212 1.371 1_545 S
C214 C215 1.392 . S
C214 H230 0.931 . S
C215 C214 1.392 . S
C215 C216 1.325 1_545 S
C215 H233 0.932 . S
C216 C215 1.325 1_565 S
C216 C217 1.342 . S
C217 C213 1.394 . S
C217 C216 1.342 . S
C217 H232 0.929 . S
C218 C208 1.386 . S
C218 C211 1.353 1_565 S
C218 H231 0.928 . S
H219 C195 0.931 . S
H220 C197 0.930 . S
H221 C199 0.929 . S
H222 C200 0.931 . S
H223 C202 0.930 . S
H224 C206 0.931 . S
H225 C204 0.933 . S
H226 C208 0.931 . S
H227 C209 0.929 . S
H228 C210 0.930 . S
H229 C213 0.930 . S
H230 C214 0.931 . S
H231 C218 0.928 . S
H232 C217 0.929 . S
H233 C215 0.932 . S
C234 C235 1.386 1_655 S
C234 C236 1.397 . S
C234 H258 0.931 . S
C235 C234 1.386 1_455 S
C235 C239 1.397 . S
C236 C234 1.397 . S
C236 C237 1.384 1_655 S
C236 H259 0.930 . S
C237 C236 1.384 1_455 S
C237 C238 1.377 . S
C237 C240 1.482 . S
C238 C237 1.377 . S
C238 C239 1.389 . S
C238 H260 0.929 . S
C239 C235 1.397 . S
C239 C238 1.389 . S
C239 H261 0.931 . S
C240 C237 1.482 . S
C240 C241 1.386 . S
C240 C245 1.392 . S
C241 C240 1.386 . S
C241 C242 1.400 . S
C241 H262 0.929 1_455 S
C242 C241 1.400 . S
C242 C243 1.376 . S
C242 C251 1.510 1_455 S
C243 C242 1.376 . S
C243 C244 1.393 . S
C243 H264 0.930 1_455 S
C244 C243 1.393 . S
C244 C245 1.361 . S
C244 C246 1.500 . S
C245 C240 1.392 . S
C245 C244 1.361 . S
C245 H263 0.931 . S
C246 C244 1.500 . S
C246 C247 1.371 1_455 S
C246 C248 1.365 . S
C247 C246 1.371 1_655 S
C247 C257 1.386 . S
C247 H265 0.931 . S
C248 C246 1.365 . S
C248 C249 1.409 . S
C248 H266 0.929 . S
C249 C248 1.409 . S
C249 C250 1.380 . S
C249 H267 0.930 . S
C250 C249 1.380 . S
C250 C257 1.357 1_455 S
C251 C242 1.510 1_655 S
C251 C252 1.341 . S
C251 C253 1.371 1_655 S
C252 C251 1.341 . S
C252 C256 1.394 . S
C252 H268 0.930 . S
C253 C251 1.371 1_455 S
C253 C254 1.392 . S
C253 H269 0.931 . S
C254 C253 1.392 . S
C254 C255 1.345 . S
C254 H272 0.932 . S
C255 C254 1.345 . S
C255 C256 1.323 1_455 S
C256 C252 1.394 . S
C256 C255 1.323 1_655 S
C256 H271 0.929 . S
C257 C247 1.386 . S
C257 C250 1.357 1_655 S
C257 H270 0.928 . S
H258 C234 0.931 . S
H259 C236 0.930 . S
H260 C238 0.929 . S
H261 C239 0.931 . S
H262 C241 0.929 1_655 S
H263 C245 0.931 . S
H264 C243 0.930 1_655 S
H265 C247 0.931 . S
H266 C248 0.929 . S
H267 C249 0.930 . S
H268 C252 0.930 . S
H269 C253 0.931 . S
H270 C257 0.928 . S
H271 C256 0.929 . S
H272 C254 0.932 . S
C273 C274 1.388 . S
C273 C275 1.397 . S
C273 H297 0.931 . S
C274 C273 1.388 . S
C274 C278 1.396 1_565 S
C275 C273 1.397 . S
C275 C276 1.382 . S
C275 H298 0.930 . S
C276 C275 1.382 . S
C276 C277 1.379 1_565 S
C276 C279 1.480 . S
C277 C276 1.379 1_545 S
C277 C278 1.389 . S
C277 H299 0.929 . S
C278 C274 1.396 1_545 S
C278 C277 1.389 . S
C278 H300 0.931 . S
C279 C276 1.480 . S
C279 C280 1.388 . S
C279 C284 1.390 . S
C280 C279 1.388 . S
C280 C281 1.402 . S
C280 H301 0.930 . S
C281 C280 1.402 . S
C281 C282 1.376 . S
C281 C290 1.512 . S
C282 C281 1.376 . S
C282 C283 1.392 1_565 S
C282 H303 0.933 . S
C283 C282 1.392 1_545 S
C283 C284 1.361 1_545 S
C283 C285 1.499 . S
C284 C279 1.390 . S
C284 C283 1.361 1_565 S
C284 H302 0.931 . S
C285 C283 1.499 . S
C285 C286 1.357 1_545 S
C285 C287 1.380 . S
C286 C285 1.357 1_565 S
C286 C296 1.386 . S
C286 H304 0.931 . S
C287 C285 1.380 . S
C287 C288 1.409 . S
C287 H305 0.929 . S
C288 C287 1.409 . S
C288 C289 1.384 . S
C288 H306 0.930 . S
C289 C288 1.384 . S
C289 C296 1.353 1_545 S
C290 C281 1.512 . S
C290 C291 1.341 . S
C290 C292 1.371 1_565 S
C291 C290 1.341 . S
C291 C295 1.394 . S
C291 H307 0.930 . S
C292 C290 1.371 1_545 S
C292 C293 1.392 . S
C292 H308 0.931 . S
C293 C292 1.392 . S
C293 C294 1.325 1_545 S
C293 H311 0.932 . S
C294 C293 1.325 1_565 S
C294 C295 1.342 . S
C295 C291 1.394 . S
C295 C294 1.342 . S
C295 H310 0.929 . S
C296 C286 1.386 . S
C296 C289 1.353 1_565 S
C296 H309 0.928 . S
H297 C273 0.931 . S
H298 C275 0.930 . S
H299 C277 0.929 . S
H300 C278 0.931 . S
H301 C280 0.930 . S
H302 C284 0.931 . S
H303 C282 0.933 . S
H304 C286 0.931 . S
H305 C287 0.929 . S
H306 C288 0.930 . S
H307 C291 0.930 . S
H308 C292 0.931 . S
H309 C296 0.928 . S
H310 C295 0.929 . S
H311 C293 0.932 . S
C312 C313 1.388 . S
C312 C314 1.397 . S
C312 H336 0.931 . S
C313 C312 1.388 . S
C313 C317 1.396 1_556 S
C314 C312 1.397 . S
C314 C315 1.382 . S
C314 H337 0.930 . S
C315 C314 1.382 . S
C315 C316 1.379 1_556 S
C315 C318 1.480 . S
C316 C315 1.379 1_554 S
C316 C317 1.389 . S
C316 H338 0.929 . S
C317 C313 1.396 1_554 S
C317 C316 1.389 . S
C317 H339 0.931 . S
C318 C315 1.480 . S
C318 C319 1.388 . S
C318 C323 1.390 . S
C319 C318 1.388 . S
C319 C320 1.402 . S
C319 H340 0.930 . S
C320 C319 1.402 . S
C320 C321 1.376 . S
C320 C329 1.512 . S
C321 C320 1.376 . S
C321 C322 1.392 1_556 S
C321 H342 0.933 . S
C322 C321 1.392 1_554 S
C322 C323 1.361 1_554 S
C322 C324 1.499 . S
C323 C318 1.390 . S
C323 C322 1.361 1_556 S
C323 H341 0.931 . S
C324 C322 1.499 . S
C324 C325 1.357 1_554 S
C324 C326 1.380 . S
C325 C324 1.357 1_556 S
C325 C335 1.386 . S
C325 H343 0.931 . S
C326 C324 1.380 . S
C326 C327 1.409 . S
C326 H344 0.929 . S
C327 C326 1.409 . S
C327 C328 1.384 . S
C327 H345 0.930 . S
C328 C327 1.384 . S
C328 C335 1.353 1_554 S
C329 C320 1.512 . S
C329 C330 1.341 . S
C329 C331 1.371 1_556 S
C330 C329 1.341 . S
C330 C334 1.394 . S
C330 H346 0.930 . S
C331 C329 1.371 1_554 S
C331 C332 1.392 . S
C331 H347 0.931 . S
C332 C331 1.392 . S
C332 C333 1.325 1_554 S
C332 H350 0.932 . S
C333 C332 1.325 1_556 S
C333 C334 1.342 . S
C334 C330 1.394 . S
C334 C333 1.342 . S
C334 H349 0.929 . S
C335 C325 1.386 . S
C335 C328 1.353 1_556 S
C335 H348 0.928 . S
H336 C312 0.931 . S
H337 C314 0.930 . S
H338 C316 0.929 . S
H339 C317 0.931 . S
H340 C319 0.930 . S
H341 C323 0.931 . S
H342 C321 0.933 . S
H343 C325 0.931 . S
H344 C326 0.929 . S
H345 C327 0.930 . S
H346 C330 0.930 . S
H347 C331 0.931 . S
H348 C335 0.928 . S
H349 C334 0.929 . S
H350 C332 0.932 . S
C351 C352 1.395 . S
C351 C353 1.397 . S
C351 H375 0.931 . S
C352 C351 1.395 . S
C352 C356 1.388 1_554 S
C353 C351 1.397 . S
C353 C354 1.389 . S
C353 H376 0.930 . S
C354 C353 1.389 . S
C354 C355 1.372 1_554 S
C354 C357 1.480 . S
C355 C354 1.372 1_556 S
C355 C356 1.389 . S
C355 H377 0.929 . S
C356 C352 1.388 1_556 S
C356 C355 1.389 . S
C356 H378 0.931 . S
C357 C354 1.480 . S
C357 C358 1.388 . S
C357 C362 1.390 . S
C358 C357 1.388 . S
C358 C359 1.402 . S
C358 H379 0.930 . S
C359 C358 1.402 . S
C359 C360 1.376 . S
C359 C368 1.513 . S
C360 C359 1.376 . S
C360 C361 1.392 . S
C360 H381 0.934 . S
C361 C360 1.392 . S
C361 C362 1.361 . S
C361 C363 1.499 1_554 S
C362 C357 1.390 . S
C362 C361 1.361 . S
C362 H380 0.931 . S
C363 C361 1.499 1_556 S
C363 C364 1.362 1_556 S
C363 C365 1.374 . S
C364 C363 1.362 1_554 S
C364 C374 1.386 . S
C364 H382 0.931 . S
C365 C363 1.374 . S
C365 C366 1.409 . S
C365 H383 0.929 . S
C366 C365 1.409 . S
C366 C367 1.379 . S
C366 H384 0.930 . S
C367 C366 1.379 . S
C367 C374 1.359 1_556 S
C368 C359 1.513 . S
C368 C369 1.341 . S
C368 C370 1.371 1_554 S
C369 C368 1.341 . S
C369 C373 1.394 . S
C369 H385 0.930 . S
C370 C368 1.371 1_556 S
C370 C371 1.392 . S
C370 H386 0.931 . S
C371 C370 1.392 . S
C371 C372 1.322 1_556 S
C371 H389 0.932 . S
C372 C371 1.322 1_554 S
C372 C373 1.345 . S
C373 C369 1.394 . S
C373 C372 1.345 . S
C373 H388 0.929 . S
C374 C364 1.386 . S
C374 C367 1.359 1_554 S
C374 H387 0.928 . S
H375 C351 0.931 . S
H376 C353 0.930 . S
H377 C355 0.929 . S
H378 C356 0.931 . S
H379 C358 0.930 . S
H380 C362 0.931 . S
H381 C360 0.934 . S
H382 C364 0.931 . S
H383 C365 0.929 . S
H384 C366 0.930 . S
H385 C369 0.930 . S
H386 C370 0.931 . S
H387 C374 0.928 . S
H388 C373 0.929 . S
H389 C371 0.932 . S
C390 C391 1.388 . S
C390 C392 1.397 . S
C390 H414 0.931 . S
C391 C390 1.388 . S
C391 C395 1.396 1_556 S
C392 C390 1.397 . S
C392 C393 1.382 . S
C392 H415 0.930 . S
C393 C392 1.382 . S
C393 C394 1.379 1_556 S
C393 C396 1.480 . S
C394 C393 1.379 1_554 S
C394 C395 1.389 . S
C394 H416 0.929 . S
C395 C391 1.396 1_554 S
C395 C394 1.389 . S
C395 H417 0.931 . S
C396 C393 1.480 . S
C396 C397 1.388 . S
C396 C401 1.390 . S
C397 C396 1.388 . S
C397 C398 1.402 . S
C397 H418 0.930 . S
C398 C397 1.402 . S
C398 C399 1.376 . S
C398 C407 1.512 . S
C399 C398 1.376 . S
C399 C400 1.392 1_556 S
C399 H420 0.933 . S
C400 C399 1.392 1_554 S
C400 C401 1.361 1_554 S
C400 C402 1.499 . S
C401 C396 1.390 . S
C401 C400 1.361 1_556 S
C401 H419 0.931 . S
C402 C400 1.499 . S
C402 C403 1.357 1_554 S
C402 C404 1.380 . S
C403 C402 1.357 1_556 S
C403 C413 1.386 . S
C403 H421 0.931 . S
C404 C402 1.380 . S
C404 C405 1.409 . S
C404 H422 0.929 . S
C405 C404 1.409 . S
C405 C406 1.384 . S
C405 H423 0.930 . S
C406 C405 1.384 . S
C406 C413 1.353 1_554 S
C407 C398 1.512 . S
C407 C408 1.341 . S
C407 C409 1.371 1_556 S
C408 C407 1.341 . S
C408 C412 1.394 . S
C408 H424 0.930 . S
C409 C407 1.371 1_554 S
C409 C410 1.392 . S
C409 H425 0.931 . S
C410 C409 1.392 . S
C410 C411 1.325 1_554 S
C410 H428 0.932 . S
C411 C410 1.325 1_556 S
C411 C412 1.342 . S
C412 C408 1.394 . S
C412 C411 1.342 . S
C412 H427 0.929 . S
C413 C403 1.386 . S
C413 C406 1.353 1_556 S
C413 H426 0.928 . S
H414 C390 0.931 . S
H415 C392 0.930 . S
H416 C394 0.929 . S
H417 C395 0.931 . S
H418 C397 0.930 . S
H419 C401 0.931 . S
H420 C399 0.933 . S
H421 C403 0.931 . S
H422 C404 0.929 . S
H423 C405 0.930 . S
H424 C408 0.930 . S
H425 C409 0.931 . S
H426 C413 0.928 . S
H427 C412 0.929 . S
H428 C410 0.932 . S
C429 C430 1.395 . S
C429 C431 1.397 . S
C429 H453 0.931 . S
C430 C429 1.395 . S
C430 C434 1.388 1_554 S
C431 C429 1.397 . S
C431 C432 1.389 . S
C431 H454 0.930 . S
C432 C431 1.389 . S
C432 C433 1.372 1_554 S
C432 C435 1.480 . S
C433 C432 1.372 1_556 S
C433 C434 1.389 . S
C433 H455 0.929 . S
C434 C430 1.388 1_556 S
C434 C433 1.389 . S
C434 H456 0.931 . S
C435 C432 1.480 . S
C435 C436 1.388 . S
C435 C440 1.390 . S
C436 C435 1.388 . S
C436 C437 1.402 . S
C436 H457 0.930 . S
C437 C436 1.402 . S
C437 C438 1.376 . S
C437 C446 1.513 . S
C438 C437 1.376 . S
C438 C439 1.392 . S
C438 H459 0.934 . S
C439 C438 1.392 . S
C439 C440 1.361 . S
C439 C441 1.499 1_554 S
C440 C435 1.390 . S
C440 C439 1.361 . S
C440 H458 0.931 . S
C441 C439 1.499 1_556 S
C441 C442 1.362 1_556 S
C441 C443 1.374 . S
C442 C441 1.362 1_554 S
C442 C452 1.386 . S
C442 H460 0.931 . S
C443 C441 1.374 . S
C443 C444 1.409 . S
C443 H461 0.929 . S
C444 C443 1.409 . S
C444 C445 1.379 . S
C444 H462 0.930 . S
C445 C444 1.379 . S
C445 C452 1.359 1_556 S
C446 C437 1.513 . S
C446 C447 1.341 . S
C446 C448 1.371 1_554 S
C447 C446 1.341 . S
C447 C451 1.394 . S
C447 H463 0.930 . S
C448 C446 1.371 1_556 S
C448 C449 1.392 . S
C448 H464 0.931 . S
C449 C448 1.392 . S
C449 C450 1.322 1_556 S
C449 H467 0.932 . S
C450 C449 1.322 1_554 S
C450 C451 1.345 . S
C451 C447 1.394 . S
C451 C450 1.345 . S
C451 H466 0.929 . S
C452 C442 1.386 . S
C452 C445 1.359 1_554 S
C452 H465 0.928 . S
H453 C429 0.931 . S
H454 C431 0.930 . S
H455 C433 0.929 . S
H456 C434 0.931 . S
H457 C436 0.930 . S
H458 C440 0.931 . S
H459 C438 0.934 . S
H460 C442 0.931 . S
H461 C443 0.929 . S
H462 C444 0.930 . S
H463 C447 0.930 . S
H464 C448 0.931 . S
H465 C452 0.928 . S
H466 C451 0.929 . S
H467 C449 0.932 . S
C468 C469 1.386 . S
C468 C470 1.397 . S
C468 H492 0.931 . S
C469 C468 1.386 . S
C469 C473 1.397 . S
C470 C468 1.397 . S
C470 C471 1.384 . S
C470 H493 0.930 . S
C471 C470 1.384 . S
C471 C472 1.377 . S
C471 C474 1.481 . S
C472 C471 1.377 . S
C472 C473 1.389 . S
C472 H494 0.929 . S
C473 C469 1.397 . S
C473 C472 1.389 . S
C473 H495 0.931 . S
C474 C471 1.481 . S
C474 C475 1.387 . S
C474 C479 1.390 . S
C475 C474 1.387 . S
C475 C476 1.401 . S
C475 H496 0.930 . S
C476 C475 1.401 . S
C476 C477 1.376 . S
C476 C485 1.511 . S
C477 C476 1.376 . S
C477 C478 1.392 . S
C477 H498 0.931 . S
C478 C477 1.392 . S
C478 C479 1.361 . S
C478 C480 1.500 . S
C479 C474 1.390 . S
C479 C478 1.361 . S
C479 H497 0.931 . S
C480 C478 1.500 . S
C480 C481 1.371 . S
C480 C482 1.365 . S
C481 C480 1.371 . S
C481 C491 1.386 . S
C481 H499 0.931 . S
C482 C480 1.365 . S
C482 C483 1.409 . S
C482 H500 0.929 . S
C483 C482 1.409 . S
C483 C484 1.380 . S
C483 H501 0.930 . S
C484 C483 1.380 . S
C484 C491 1.357 . S
C485 C476 1.511 . S
C485 C486 1.341 . S
C485 C487 1.371 . S
C486 C485 1.341 . S
C486 C490 1.394 . S
C486 H502 0.930 . S
C487 C485 1.371 . S
C487 C488 1.392 . S
C487 H503 0.931 . S
C488 C487 1.392 . S
C488 C489 1.331 . S
C488 H506 0.932 . S
C489 C488 1.331 . S
C489 C490 1.336 . S
C490 C486 1.394 . S
C490 C489 1.336 . S
C490 H505 0.929 . S
C491 C481 1.386 . S
C491 C484 1.357 . S
C491 H504 0.928 . S
H492 C468 0.931 . S
H493 C470 0.930 . S
H494 C472 0.929 . S
H495 C473 0.931 . S
H496 C475 0.930 . S
H497 C479 0.931 . S
H498 C477 0.931 . S
H499 C481 0.931 . S
H500 C482 0.929 . S
H501 C483 0.930 . S
H502 C486 0.930 . S
H503 C487 0.931 . S
H504 C491 0.928 . S
H505 C490 0.929 . S
H506 C488 0.932 . S
C507 C508 1.386 . S
C507 C509 1.397 . S
C507 H531 0.931 . S
C508 C507 1.386 . S
C508 C512 1.397 . S
C509 C507 1.397 . S
C509 C510 1.384 . S
C509 H532 0.930 . S
C510 C509 1.384 . S
C510 C511 1.377 . S
C510 C513 1.481 . S
C511 C510 1.377 . S
C511 C512 1.389 . S
C511 H533 0.929 . S
C512 C508 1.397 . S
C512 C511 1.389 . S
C512 H534 0.931 . S
C513 C510 1.481 . S
C513 C514 1.387 . S
C513 C518 1.390 . S
C514 C513 1.387 . S
C514 C515 1.401 . S
C514 H535 0.930 . S
C515 C514 1.401 . S
C515 C516 1.376 . S
C515 C524 1.511 . S
C516 C515 1.376 . S
C516 C517 1.392 . S
C516 H537 0.931 . S
C517 C516 1.392 . S
C517 C518 1.361 . S
C517 C519 1.500 . S
C518 C513 1.390 . S
C518 C517 1.361 . S
C518 H536 0.931 . S
C519 C517 1.500 . S
C519 C520 1.371 . S
C519 C521 1.365 . S
C520 C519 1.371 . S
C520 C530 1.386 . S
C520 H538 0.931 . S
C521 C519 1.365 . S
C521 C522 1.409 . S
C521 H539 0.929 . S
C522 C521 1.409 . S
C522 C523 1.380 . S
C522 H540 0.930 . S
C523 C522 1.380 . S
C523 C530 1.357 . S
C524 C515 1.511 . S
C524 C525 1.341 . S
C524 C526 1.371 . S
C525 C524 1.341 . S
C525 C529 1.394 . S
C525 H541 0.930 . S
C526 C524 1.371 . S
C526 C527 1.392 . S
C526 H542 0.931 . S
C527 C526 1.392 . S
C527 C528 1.331 . S
C527 H545 0.932 . S
C528 C527 1.331 . S
C528 C529 1.336 . S
C529 C525 1.394 . S
C529 C528 1.336 . S
C529 H544 0.929 . S
C530 C520 1.386 . S
C530 C523 1.357 . S
C530 H543 0.928 . S
H531 C507 0.931 . S
H532 C509 0.930 . S
H533 C511 0.929 . S
H534 C512 0.931 . S
H535 C514 0.930 . S
H536 C518 0.931 . S
H537 C516 0.931 . S
H538 C520 0.931 . S
H539 C521 0.929 . S
H540 C522 0.930 . S
H541 C525 0.930 . S
H542 C526 0.931 . S
H543 C530 0.928 . S
H544 C529 0.929 . S
H545 C527 0.932 . S
C546 C547 1.386 . S
C546 C548 1.397 . S
C546 H570 0.931 . S
C547 C546 1.386 . S
C547 C551 1.397 . S
C548 C546 1.397 . S
C548 C549 1.384 . S
C548 H571 0.930 . S
C549 C548 1.384 . S
C549 C550 1.377 . S
C549 C552 1.481 . S
C550 C549 1.377 . S
C550 C551 1.389 . S
C550 H572 0.929 . S
C551 C547 1.397 . S
C551 C550 1.389 . S
C551 H573 0.931 . S
C552 C549 1.481 . S
C552 C553 1.387 . S
C552 C557 1.390 . S
C553 C552 1.387 . S
C553 C554 1.401 . S
C553 H574 0.930 . S
C554 C553 1.401 . S
C554 C555 1.376 . S
C554 C563 1.511 . S
C555 C554 1.376 . S
C555 C556 1.392 . S
C555 H576 0.931 . S
C556 C555 1.392 . S
C556 C557 1.361 . S
C556 C558 1.500 . S
C557 C552 1.390 . S
C557 C556 1.361 . S
C557 H575 0.931 . S
C558 C556 1.500 . S
C558 C559 1.371 . S
C558 C560 1.365 . S
C559 C558 1.371 . S
C559 C569 1.386 . S
C559 H577 0.931 . S
C560 C558 1.365 . S
C560 C561 1.409 . S
C560 H578 0.929 . S
C561 C560 1.409 . S
C561 C562 1.380 . S
C561 H579 0.930 . S
C562 C561 1.380 . S
C562 C569 1.357 . S
C563 C554 1.511 . S
C563 C564 1.341 . S
C563 C565 1.371 . S
C564 C563 1.341 . S
C564 C568 1.394 . S
C564 H580 0.930 . S
C565 C563 1.371 . S
C565 C566 1.392 . S
C565 H581 0.931 . S
C566 C565 1.392 . S
C566 C567 1.331 . S
C566 H584 0.932 . S
C567 C566 1.331 . S
C567 C568 1.336 . S
C568 C564 1.394 . S
C568 C567 1.336 . S
C568 H583 0.929 . S
C569 C559 1.386 . S
C569 C562 1.357 . S
C569 H582 0.928 . S
H570 C546 0.931 . S
H571 C548 0.930 . S
H572 C550 0.929 . S
H573 C551 0.931 . S
H574 C553 0.930 . S
H575 C557 0.931 . S
H576 C555 0.931 . S
H577 C559 0.931 . S
H578 C560 0.929 . S
H579 C561 0.930 . S
H580 C564 0.930 . S
H581 C565 0.931 . S
H582 C569 0.928 . S
H583 C568 0.929 . S
H584 C566 0.932 . S
C585 C586 1.386 . S
C585 C587 1.397 . S
C585 H609 0.931 . S
C586 C585 1.386 . S
C586 C590 1.397 . S
C587 C585 1.397 . S
C587 C588 1.384 . S
C587 H610 0.930 . S
C588 C587 1.384 . S
C588 C589 1.377 . S
C588 C591 1.481 . S
C589 C588 1.377 . S
C589 C590 1.389 . S
C589 H611 0.929 . S
C590 C586 1.397 . S
C590 C589 1.389 . S
C590 H612 0.931 . S
C591 C588 1.481 . S
C591 C592 1.387 . S
C591 C596 1.390 . S
C592 C591 1.387 . S
C592 C593 1.401 . S
C592 H613 0.930 . S
C593 C592 1.401 . S
C593 C594 1.376 . S
C593 C602 1.511 . S
C594 C593 1.376 . S
C594 C595 1.392 . S
C594 H615 0.931 . S
C595 C594 1.392 . S
C595 C596 1.361 . S
C595 C597 1.500 . S
C596 C591 1.390 . S
C596 C595 1.361 . S
C596 H614 0.931 . S
C597 C595 1.500 . S
C597 C598 1.371 . S
C597 C599 1.365 . S
C598 C597 1.371 . S
C598 C608 1.386 . S
C598 H616 0.931 . S
C599 C597 1.365 . S
C599 C600 1.409 . S
C599 H617 0.929 . S
C600 C599 1.409 . S
C600 C601 1.380 . S
C600 H618 0.930 . S
C601 C600 1.380 . S
C601 C608 1.357 . S
C602 C593 1.511 . S
C602 C603 1.341 . S
C602 C604 1.371 . S
C603 C602 1.341 . S
C603 C607 1.394 . S
C603 H619 0.930 . S
C604 C602 1.371 . S
C604 C605 1.392 . S
C604 H620 0.931 . S
C605 C604 1.392 . S
C605 C606 1.331 . S
C605 H623 0.932 . S
C606 C605 1.331 . S
C606 C607 1.336 . S
C607 C603 1.394 . S
C607 C606 1.336 . S
C607 H622 0.929 . S
C608 C598 1.386 . S
C608 C601 1.357 . S
C608 H621 0.928 . S
H609 C585 0.931 . S
H610 C587 0.930 . S
H611 C589 0.929 . S
H612 C590 0.931 . S
H613 C592 0.930 . S
H614 C596 0.931 . S
H615 C594 0.931 . S
H616 C598 0.931 . S
H617 C599 0.929 . S
H618 C600 0.930 . S
H619 C603 0.930 . S
H620 C604 0.931 . S
H621 C608 0.928 . S
H622 C607 0.929 . S
H623 C605 0.932 . S
C624 C625 1.386 . S
C624 C626 1.397 . S
C624 H648 0.931 . S
C625 C624 1.386 . S
C625 C629 1.397 . S
C626 C624 1.397 . S
C626 C627 1.384 . S
C626 H649 0.930 . S
C627 C626 1.384 . S
C627 C628 1.377 . S
C627 C630 1.481 . S
C628 C627 1.377 . S
C628 C629 1.389 . S
C628 H650 0.929 . S
C629 C625 1.397 . S
C629 C628 1.389 . S
C629 H651 0.931 . S
C630 C627 1.481 . S
C630 C631 1.387 . S
C630 C635 1.390 . S
C631 C630 1.387 . S
C631 C632 1.401 . S
C631 H652 0.930 . S
C632 C631 1.401 . S
C632 C633 1.376 . S
C632 C641 1.511 . S
C633 C632 1.376 . S
C633 C634 1.392 . S
C633 H654 0.931 . S
C634 C633 1.392 . S
C634 C635 1.361 . S
C634 C636 1.500 . S
C635 C630 1.390 . S
C635 C634 1.361 . S
C635 H653 0.931 . S
C636 C634 1.500 . S
C636 C637 1.371 . S
C636 C638 1.365 . S
C637 C636 1.371 . S
C637 C647 1.386 . S
C637 H655 0.931 . S
C638 C636 1.365 . S
C638 C639 1.409 . S
C638 H656 0.929 . S
C639 C638 1.409 . S
C639 C640 1.380 . S
C639 H657 0.930 . S
C640 C639 1.380 . S
C640 C647 1.357 . S
C641 C632 1.511 . S
C641 C642 1.341 . S
C641 C643 1.371 . S
C642 C641 1.341 . S
C642 C646 1.394 . S
C642 H658 0.930 . S
C643 C641 1.371 . S
C643 C644 1.392 . S
C643 H659 0.931 . S
C644 C643 1.392 . S
C644 C645 1.331 . S
C644 H662 0.932 . S
C645 C644 1.331 . S
C645 C646 1.336 . S
C646 C642 1.394 . S
C646 C645 1.336 . S
C646 H661 0.929 . S
C647 C637 1.386 . S
C647 C640 1.357 . S
C647 H660 0.928 . S
H648 C624 0.931 . S
H649 C626 0.930 . S
H650 C628 0.929 . S
H651 C629 0.931 . S
H652 C631 0.930 . S
H653 C635 0.931 . S
H654 C633 0.931 . S
H655 C637 0.931 . S
H656 C638 0.929 . S
H657 C639 0.930 . S
H658 C642 0.930 . S
H659 C643 0.931 . S
H660 C647 0.928 . S
H661 C646 0.929 . S
H662 C644 0.932 . S
C663 C664 1.386 . S
C663 C665 1.397 . S
C663 H687 0.931 . S
C664 C663 1.386 . S
C664 C668 1.397 . S
C665 C663 1.397 . S
C665 C666 1.384 . S
C665 H688 0.930 . S
C666 C665 1.384 . S
C666 C667 1.377 . S
C666 C669 1.481 . S
C667 C666 1.377 . S
C667 C668 1.389 . S
C667 H689 0.929 . S
C668 C664 1.397 . S
C668 C667 1.389 . S
C668 H690 0.931 . S
C669 C666 1.481 . S
C669 C670 1.387 . S
C669 C674 1.390 . S
C670 C669 1.387 . S
C670 C671 1.401 . S
C670 H691 0.930 . S
C671 C670 1.401 . S
C671 C672 1.376 . S
C671 C680 1.511 . S
C672 C671 1.376 . S
C672 C673 1.392 . S
C672 H693 0.931 . S
C673 C672 1.392 . S
C673 C674 1.361 . S
C673 C675 1.500 . S
C674 C669 1.390 . S
C674 C673 1.361 . S
C674 H692 0.931 . S
C675 C673 1.500 . S
C675 C676 1.371 . S
C675 C677 1.365 . S
C676 C675 1.371 . S
C676 C686 1.386 . S
C676 H694 0.931 . S
C677 C675 1.365 . S
C677 C678 1.409 . S
C677 H695 0.929 . S
C678 C677 1.409 . S
C678 C679 1.380 . S
C678 H696 0.930 . S
C679 C678 1.380 . S
C679 C686 1.357 . S
C680 C671 1.511 . S
C680 C681 1.341 . S
C680 C682 1.371 . S
C681 C680 1.341 . S
C681 C685 1.394 . S
C681 H697 0.930 . S
C682 C680 1.371 . S
C682 C683 1.392 . S
C682 H698 0.931 . S
C683 C682 1.392 . S
C683 C684 1.331 . S
C683 H701 0.932 . S
C684 C683 1.331 . S
C684 C685 1.336 . S
C685 C681 1.394 . S
C685 C684 1.336 . S
C685 H700 0.929 . S
C686 C676 1.386 . S
C686 C679 1.357 . S
C686 H699 0.928 . S
H687 C663 0.931 . S
H688 C665 0.930 . S
H689 C667 0.929 . S
H690 C668 0.931 . S
H691 C670 0.930 . S
H692 C674 0.931 . S
H693 C672 0.931 . S
H694 C676 0.931 . S
H695 C677 0.929 . S
H696 C678 0.930 . S
H697 C681 0.930 . S
H698 C682 0.931 . S
H699 C686 0.928 . S
H700 C685 0.929 . S
H701 C683 0.932 . S
C702 C703 1.386 . S
C702 C704 1.397 . S
C702 H726 0.931 . S
C703 C702 1.386 . S
C703 C707 1.397 . S
C704 C702 1.397 . S
C704 C705 1.384 . S
C704 H727 0.930 . S
C705 C704 1.384 . S
C705 C706 1.377 . S
C705 C708 1.481 . S
C706 C705 1.377 . S
C706 C707 1.389 . S
C706 H728 0.929 . S
C707 C703 1.397 . S
C707 C706 1.389 . S
C707 H729 0.931 . S
C708 C705 1.481 . S
C708 C709 1.387 . S
C708 C713 1.390 . S
C709 C708 1.387 . S
C709 C710 1.401 . S
C709 H730 0.930 . S
C710 C709 1.401 . S
C710 C711 1.376 . S
C710 C719 1.511 . S
C711 C710 1.376 . S
C711 C712 1.392 . S
C711 H732 0.931 . S
C712 C711 1.392 . S
C712 C713 1.361 . S
C712 C714 1.500 . S
C713 C708 1.390 . S
C713 C712 1.361 . S
C713 H731 0.931 . S
C714 C712 1.500 . S
C714 C715 1.371 . S
C714 C716 1.365 . S
C715 C714 1.371 . S
C715 C725 1.386 . S
C715 H733 0.931 . S
C716 C714 1.365 . S
C716 C717 1.409 . S
C716 H734 0.929 . S
C717 C716 1.409 . S
C717 C718 1.380 . S
C717 H735 0.930 . S
C718 C717 1.380 . S
C718 C725 1.357 . S
C719 C710 1.511 . S
C719 C720 1.341 . S
C719 C721 1.371 . S
C720 C719 1.341 . S
C720 C724 1.394 . S
C720 H736 0.930 . S
C721 C719 1.371 . S
C721 C722 1.392 . S
C721 H737 0.931 . S
C722 C721 1.392 . S
C722 C723 1.331 . S
C722 H740 0.932 . S
C723 C722 1.331 . S
C723 C724 1.336 . S
C724 C720 1.394 . S
C724 C723 1.336 . S
C724 H739 0.929 . S
C725 C715 1.386 . S
C725 C718 1.357 . S
C725 H738 0.928 . S
H726 C702 0.931 . S
H727 C704 0.930 . S
H728 C706 0.929 . S
H729 C707 0.931 . S
H730 C709 0.930 . S
H731 C713 0.931 . S
H732 C711 0.931 . S
H733 C715 0.931 . S
H734 C716 0.929 . S
H735 C717 0.930 . S
H736 C720 0.930 . S
H737 C721 0.931 . S
H738 C725 0.928 . S
H739 C724 0.929 . S
H740 C722 0.932 . S
C741 C742 1.386 . S
C741 C743 1.397 . S
C741 H765 0.931 . S
C742 C741 1.386 . S
C742 C746 1.397 . S
C743 C741 1.397 . S
C743 C744 1.384 . S
C743 H766 0.930 . S
C744 C743 1.384 . S
C744 C745 1.377 . S
C744 C747 1.481 . S
C745 C744 1.377 . S
C745 C746 1.389 . S
C745 H767 0.929 . S
C746 C742 1.397 . S
C746 C745 1.389 . S
C746 H768 0.931 . S
C747 C744 1.481 . S
C747 C748 1.387 . S
C747 C752 1.390 . S
C748 C747 1.387 . S
C748 C749 1.401 . S
C748 H769 0.930 . S
C749 C748 1.401 . S
C749 C750 1.376 . S
C749 C758 1.511 . S
C750 C749 1.376 . S
C750 C751 1.392 . S
C750 H771 0.931 . S
C751 C750 1.392 . S
C751 C752 1.361 . S
C751 C753 1.500 . S
C752 C747 1.390 . S
C752 C751 1.361 . S
C752 H770 0.931 . S
C753 C751 1.500 . S
C753 C754 1.371 . S
C753 C755 1.365 . S
C754 C753 1.371 . S
C754 C764 1.386 . S
C754 H772 0.931 . S
C755 C753 1.365 . S
C755 C756 1.409 . S
C755 H773 0.929 . S
C756 C755 1.409 . S
C756 C757 1.380 . S
C756 H774 0.930 . S
C757 C756 1.380 . S
C757 C764 1.357 . S
C758 C749 1.511 . S
C758 C759 1.341 . S
C758 C760 1.371 . S
C759 C758 1.341 . S
C759 C763 1.394 . S
C759 H775 0.930 . S
C760 C758 1.371 . S
C760 C761 1.392 . S
C760 H776 0.931 . S
C761 C760 1.392 . S
C761 C762 1.331 . S
C761 H779 0.932 . S
C762 C761 1.331 . S
C762 C763 1.336 . S
C763 C759 1.394 . S
C763 C762 1.336 . S
C763 H778 0.929 . S
C764 C754 1.386 . S
C764 C757 1.357 . S
C764 H777 0.928 . S
H765 C741 0.931 . S
H766 C743 0.930 . S
H767 C745 0.929 . S
H768 C746 0.931 . S
H769 C748 0.930 . S
H770 C752 0.931 . S
H771 C750 0.931 . S
H772 C754 0.931 . S
H773 C755 0.929 . S
H774 C756 0.930 . S
H775 C759 0.930 . S
H776 C760 0.931 . S
H777 C764 0.928 . S
H778 C763 0.929 . S
H779 C761 0.932 . S
C780 C781 1.386 . S
C780 C782 1.397 . S
C780 H804 0.931 . S
C781 C780 1.386 . S
C781 C785 1.397 . S
C782 C780 1.397 . S
C782 C783 1.384 . S
C782 H805 0.930 . S
C783 C782 1.384 . S
C783 C784 1.377 . S
C783 C786 1.481 . S
C784 C783 1.377 . S
C784 C785 1.389 . S
C784 H806 0.929 . S
C785 C781 1.397 . S
C785 C784 1.389 . S
C785 H807 0.931 . S
C786 C783 1.481 . S
C786 C787 1.387 . S
C786 C791 1.390 . S
C787 C786 1.387 . S
C787 C788 1.401 . S
C787 H808 0.930 . S
C788 C787 1.401 . S
C788 C789 1.376 . S
C788 C797 1.511 . S
C789 C788 1.376 . S
C789 C790 1.392 . S
C789 H810 0.931 . S
C790 C789 1.392 . S
C790 C791 1.361 . S
C790 C792 1.500 . S
C791 C786 1.390 . S
C791 C790 1.361 . S
C791 H809 0.931 . S
C792 C790 1.500 . S
C792 C793 1.371 . S
C792 C794 1.365 . S
C793 C792 1.371 . S
C793 C803 1.386 . S
C793 H811 0.931 . S
C794 C792 1.365 . S
C794 C795 1.409 . S
C794 H812 0.929 . S
C795 C794 1.409 . S
C795 C796 1.380 . S
C795 H813 0.930 . S
C796 C795 1.380 . S
C796 C803 1.357 . S
C797 C788 1.511 . S
C797 C798 1.341 . S
C797 C799 1.371 . S
C798 C797 1.341 . S
C798 C802 1.394 . S
C798 H814 0.930 . S
C799 C797 1.371 . S
C799 C800 1.392 . S
C799 H815 0.931 . S
C800 C799 1.392 . S
C800 C801 1.331 . S
C800 H818 0.932 . S
C801 C800 1.331 . S
C801 C802 1.336 . S
C802 C798 1.394 . S
C802 C801 1.336 . S
C802 H817 0.929 . S
C803 C793 1.386 . S
C803 C796 1.357 . S
C803 H816 0.928 . S
H804 C780 0.931 . S
H805 C782 0.930 . S
H806 C784 0.929 . S
H807 C785 0.931 . S
H808 C787 0.930 . S
H809 C791 0.931 . S
H810 C789 0.931 . S
H811 C793 0.931 . S
H812 C794 0.929 . S
H813 C795 0.930 . S
H814 C798 0.930 . S
H815 C799 0.931 . S
H816 C803 0.928 . S
H817 C802 0.929 . S
H818 C800 0.932 . S
C819 C820 1.386 . S
C819 C821 1.397 . S
C819 H843 0.931 . S
C820 C819 1.386 . S
C820 C824 1.397 . S
C821 C819 1.397 . S
C821 C822 1.384 . S
C821 H844 0.930 . S
C822 C821 1.384 . S
C822 C823 1.377 . S
C822 C825 1.481 . S
C823 C822 1.377 . S
C823 C824 1.389 . S
C823 H845 0.929 . S
C824 C820 1.397 . S
C824 C823 1.389 . S
C824 H846 0.931 . S
C825 C822 1.481 . S
C825 C826 1.387 . S
C825 C830 1.390 . S
C826 C825 1.387 . S
C826 C827 1.401 . S
C826 H847 0.930 . S
C827 C826 1.401 . S
C827 C828 1.376 . S
C827 C836 1.511 . S
C828 C827 1.376 . S
C828 C829 1.392 . S
C828 H849 0.931 . S
C829 C828 1.392 . S
C829 C830 1.361 . S
C829 C831 1.500 . S
C830 C825 1.390 . S
C830 C829 1.361 . S
C830 H848 0.931 . S
C831 C829 1.500 . S
C831 C832 1.371 . S
C831 C833 1.365 . S
C832 C831 1.371 . S
C832 C842 1.386 . S
C832 H850 0.931 . S
C833 C831 1.365 . S
C833 C834 1.409 . S
C833 H851 0.929 . S
C834 C833 1.409 . S
C834 C835 1.380 . S
C834 H852 0.930 . S
C835 C834 1.380 . S
C835 C842 1.357 . S
C836 C827 1.511 . S
C836 C837 1.341 . S
C836 C838 1.371 . S
C837 C836 1.341 . S
C837 C841 1.394 . S
C837 H853 0.930 . S
C838 C836 1.371 . S
C838 C839 1.392 . S
C838 H854 0.931 . S
C839 C838 1.392 . S
C839 C840 1.331 . S
C839 H857 0.932 . S
C840 C839 1.331 . S
C840 C841 1.336 . S
C841 C837 1.394 . S
C841 C840 1.336 . S
C841 H856 0.929 . S
C842 C832 1.386 . S
C842 C835 1.357 . S
C842 H855 0.928 . S
H843 C819 0.931 . S
H844 C821 0.930 . S
H845 C823 0.929 . S
H846 C824 0.931 . S
H847 C826 0.930 . S
H848 C830 0.931 . S
H849 C828 0.931 . S
H850 C832 0.931 . S
H851 C833 0.929 . S
H852 C834 0.930 . S
H853 C837 0.930 . S
H854 C838 0.931 . S
H855 C842 0.928 . S
H856 C841 0.929 . S
H857 C839 0.932 . S
C858 C859 1.386 . S
C858 C860 1.397 . S
C858 H882 0.931 . S
C859 C858 1.386 . S
C859 C863 1.397 . S
C860 C858 1.397 . S
C860 C861 1.384 . S
C860 H883 0.930 . S
C861 C860 1.384 . S
C861 C862 1.377 . S
C861 C864 1.481 . S
C862 C861 1.377 . S
C862 C863 1.389 . S
C862 H884 0.929 . S
C863 C859 1.397 . S
C863 C862 1.389 . S
C863 H885 0.931 . S
C864 C861 1.481 . S
C864 C865 1.387 . S
C864 C869 1.390 . S
C865 C864 1.387 . S
C865 C866 1.401 . S
C865 H886 0.930 . S
C866 C865 1.401 . S
C866 C867 1.376 . S
C866 C875 1.511 . S
C867 C866 1.376 . S
C867 C868 1.392 . S
C867 H888 0.931 . S
C868 C867 1.392 . S
C868 C869 1.361 . S
C868 C870 1.500 . S
C869 C864 1.390 . S
C869 C868 1.361 . S
C869 H887 0.931 . S
C870 C868 1.500 . S
C870 C871 1.371 . S
C870 C872 1.365 . S
C871 C870 1.371 . S
C871 C881 1.386 . S
C871 H889 0.931 . S
C872 C870 1.365 . S
C872 C873 1.409 . S
C872 H890 0.929 . S
C873 C872 1.409 . S
C873 C874 1.380 . S
C873 H891 0.930 . S
C874 C873 1.380 . S
C874 C881 1.357 . S
C875 C866 1.511 . S
C875 C876 1.341 . S
C875 C877 1.371 . S
C876 C875 1.341 . S
C876 C880 1.394 . S
C876 H892 0.930 . S
C877 C875 1.371 . S
C877 C878 1.392 . S
C877 H893 0.931 . S
C878 C877 1.392 . S
C878 C879 1.331 . S
C878 H896 0.932 . S
C879 C878 1.331 . S
C879 C880 1.336 . S
C880 C876 1.394 . S
C880 C879 1.336 . S
C880 H895 0.929 . S
C881 C871 1.386 . S
C881 C874 1.357 . S
C881 H894 0.928 . S
H882 C858 0.931 . S
H883 C860 0.930 . S
H884 C862 0.929 . S
H885 C863 0.931 . S
H886 C865 0.930 . S
H887 C869 0.931 . S
H888 C867 0.931 . S
H889 C871 0.931 . S
H890 C872 0.929 . S
H891 C873 0.930 . S
H892 C876 0.930 . S
H893 C877 0.931 . S
H894 C881 0.928 . S
H895 C880 0.929 . S
H896 C878 0.932 . S
C897 C898 1.386 . S
C897 C899 1.397 . S
C897 H921 0.931 . S
C898 C897 1.386 . S
C898 C902 1.397 . S
C899 C897 1.397 . S
C899 C900 1.384 . S
C899 H922 0.930 . S
C900 C899 1.384 . S
C900 C901 1.377 . S
C900 C903 1.481 . S
C901 C900 1.377 . S
C901 C902 1.389 . S
C901 H923 0.929 . S
C902 C898 1.397 . S
C902 C901 1.389 . S
C902 H924 0.931 . S
C903 C900 1.481 . S
C903 C904 1.387 . S
C903 C908 1.390 . S
C904 C903 1.387 . S
C904 C905 1.401 . S
C904 H925 0.930 . S
C905 C904 1.401 . S
C905 C906 1.376 . S
C905 C914 1.511 . S
C906 C905 1.376 . S
C906 C907 1.392 . S
C906 H927 0.931 . S
C907 C906 1.392 . S
C907 C908 1.361 . S
C907 C909 1.500 . S
C908 C903 1.390 . S
C908 C907 1.361 . S
C908 H926 0.931 . S
C909 C907 1.500 . S
C909 C910 1.371 . S
C909 C911 1.365 . S
C910 C909 1.371 . S
C910 C920 1.386 . S
C910 H928 0.931 . S
C911 C909 1.365 . S
C911 C912 1.409 . S
C911 H929 0.929 . S
C912 C911 1.409 . S
C912 C913 1.380 . S
C912 H930 0.930 . S
C913 C912 1.380 . S
C913 C920 1.357 . S
C914 C905 1.511 . S
C914 C915 1.341 . S
C914 C916 1.371 . S
C915 C914 1.341 . S
C915 C919 1.394 . S
C915 H931 0.930 . S
C916 C914 1.371 . S
C916 C917 1.392 . S
C916 H932 0.931 . S
C917 C916 1.392 . S
C917 C918 1.331 . S
C917 H935 0.932 . S
C918 C917 1.331 . S
C918 C919 1.336 . S
C919 C915 1.394 . S
C919 C918 1.336 . S
C919 H934 0.929 . S
C920 C910 1.386 . S
C920 C913 1.357 . S
C920 H933 0.928 . S
H921 C897 0.931 . S
H922 C899 0.930 . S
H923 C901 0.929 . S
H924 C902 0.931 . S
H925 C904 0.930 . S
H926 C908 0.931 . S
H927 C906 0.931 . S
H928 C910 0.931 . S
H929 C911 0.929 . S
H930 C912 0.930 . S
H931 C915 0.930 . S
H932 C916 0.931 . S
H933 C920 0.928 . S
H934 C919 0.929 . S
H935 C917 0.932 . S
C936 O962 1.283 . S
C936 O980 1.283 . S
C937 O963 1.283 . S
C937 O978 1.283 . S
C938 O964 1.283 . S
C938 O981 1.283 . S
C939 O965 1.283 . S
C939 O979 1.283 . S
C940 O966 1.283 . S
C940 O975 1.283 . S
C941 O967 1.283 . S
C941 O977 1.283 . S
C942 O968 1.283 . S
C942 O974 1.283 . S
C943 O969 1.283 . S
C943 O976 1.283 . S
C944 O970 1.283 . S
C944 O985 1.283 . S
C945 O971 1.283 . S
C945 O983 1.283 . S
C946 O972 1.283 . S
C946 O984 1.283 . S
C947 O973 1.283 . S
C947 O982 1.283 . S
Eu948 O949 2.370 1_455 S
Eu948 O950 2.370 . S
Eu948 O953 2.370 1_455 S
Eu948 O954 2.370 . S
Eu948 O962 2.363 . S
Eu948 O963 2.363 . S
Eu948 O976 2.363 . S
Eu948 O977 2.363 1_455 S
O949 Eu948 2.370 1_655 S
O949 Eu951 2.370 1_565 S
O949 Eu956 2.370 1_665 S
O950 Eu948 2.370 . S
O950 Eu952 2.370 1_565 S
O950 Eu955 2.370 1_565 S
Eu951 O949 2.370 1_545 S
Eu951 O953 2.370 1_545 S
Eu951 O957 2.370 . S
Eu951 O958 2.370 . S
Eu951 O966 2.363 . S
Eu951 O967 2.363 1_545 S
Eu951 O982 2.363 . S
Eu951 O983 2.363 . S
Eu952 O950 2.370 1_545 S
Eu952 O954 2.370 1_545 S
Eu952 O959 2.370 . S
Eu952 O960 2.370 . S
Eu952 O968 2.363 . S
Eu952 O969 2.363 1_545 S
Eu952 O984 2.363 . S
Eu952 O985 2.363 . S
O953 Eu948 2.370 1_655 S
O953 Eu951 2.370 1_565 S
O953 Eu955 2.370 1_665 S
O954 Eu948 2.370 . S
O954 Eu952 2.370 1_565 S
O954 Eu956 2.370 1_565 S
Eu955 O950 2.370 1_545 S
Eu955 O953 2.370 1_445 S
Eu955 O957 2.370 1_455 S
Eu955 O960 2.370 . S
Eu955 O972 2.363 . S
Eu955 O973 2.363 1_455 S
Eu955 O980 2.363 1_545 S
Eu955 O981 2.363 . S
Eu956 O949 2.370 1_445 S
Eu956 O954 2.370 1_545 S
Eu956 O958 2.370 1_455 S
Eu956 O959 2.370 . S
Eu956 O970 2.363 . S
Eu956 O971 2.363 1_455 S
Eu956 O978 2.363 1_545 S
Eu956 O979 2.363 . S
O957 Eu951 2.370 . S
O957 Eu955 2.370 1_655 S
O957 Eu961 2.370 1_655 S
O958 Eu951 2.370 . S
O958 Eu956 2.370 1_655 S
O958 Eu961 2.370 1_655 S
O959 Eu952 2.370 . S
O959 Eu956 2.370 . S
O959 Eu961 2.370 . S
O960 Eu952 2.370 . S
O960 Eu955 2.370 . S
O960 Eu961 2.370 . S
Eu961 O957 2.370 1_455 S
Eu961 O958 2.370 1_455 S
Eu961 O959 2.370 . S
Eu961 O960 2.370 . S
Eu961 O964 2.363 . S
Eu961 O965 2.363 . S
Eu961 O974 2.363 . S
Eu961 O975 2.363 1_455 S
O962 C936 1.283 . S
O962 Eu948 2.363 . S
O963 C937 1.283 . S
O963 Eu948 2.363 . S
O964 C938 1.283 . S
O964 Eu961 2.363 . S
O965 C939 1.283 . S
O965 Eu961 2.363 . S
O966 C940 1.283 . S
O966 Eu951 2.363 . S
O967 C941 1.283 . S
O967 Eu951 2.363 1_565 S
O968 C942 1.283 . S
O968 Eu952 2.363 . S
O969 C943 1.283 . S
O969 Eu952 2.363 1_565 S
O970 C944 1.283 . S
O970 Eu956 2.363 . S
O971 C945 1.283 . S
O971 Eu956 2.363 1_655 S
O972 C946 1.283 . S
O972 Eu955 2.363 . S
O973 C947 1.283 . S
O973 Eu955 2.363 1_655 S
O974 C942 1.283 . S
O974 Eu961 2.363 . S
O975 C940 1.283 . S
O975 Eu961 2.363 1_655 S
O976 C943 1.283 . S
O976 Eu948 2.363 . S
O977 C941 1.283 . S
O977 Eu948 2.363 1_655 S
O978 C937 1.283 . S
O978 Eu956 2.363 1_565 S
O979 C939 1.283 . S
O979 Eu956 2.363 . S
O980 C936 1.283 . S
O980 Eu955 2.363 1_565 S
O981 C938 1.283 . S
O981 Eu955 2.363 . S
O982 C947 1.283 . S
O982 Eu951 2.363 . S
O983 C945 1.283 . S
O983 Eu951 2.363 . S
O984 C946 1.283 . S
O984 Eu952 2.363 . S
O985 C944 1.283 . S
O985 Eu952 2.363 . S
C986 O1012 1.283 . S
C986 O1030 1.283 . S
C987 O1013 1.283 . S
C987 O1028 1.283 . S
C988 O1014 1.283 . S
C988 O1031 1.283 . S
C989 O1015 1.283 . S
C989 O1029 1.283 . S
C990 O1016 1.283 . S
C990 O1025 1.283 . S
C991 O1017 1.283 . S
C991 O1027 1.283 . S
C992 O1018 1.283 . S
C992 O1024 1.283 . S
C993 O1019 1.283 . S
C993 O1026 1.283 . S
C994 O1020 1.283 . S
C994 O1035 1.283 . S
C995 O1021 1.283 . S
C995 O1033 1.283 . S
C996 O1022 1.283 . S
C996 O1034 1.283 . S
C997 O1023 1.283 . S
C997 O1032 1.283 . S
Eu998 O999 2.371 . S
Eu998 O1000 2.369 1_545 S
Eu998 O1003 2.369 1_545 S
Eu998 O1004 2.371 . S
Eu998 O1012 2.361 1_545 S
Eu998 O1013 2.364 . S
Eu998 O1026 2.363 . S
Eu998 O1027 2.363 . S
O999 Eu998 2.371 . S
O999 Eu1001 2.370 . S
O999 Eu1006 2.369 . S
O1000 Eu998 2.369 1_565 S
O1000 Eu1002 2.370 1_565 S
O1000 Eu1005 2.371 . S
Eu1001 O999 2.370 . S
Eu1001 O1003 2.370 1_545 S
Eu1001 O1007 2.370 1_544 S
Eu1001 O1008 2.370 1_554 S
Eu1001 O1016 2.363 1_554 S
Eu1001 O1017 2.363 . S
Eu1001 O1032 2.363 1_545 S
Eu1001 O1033 2.363 . S
Eu1002 O1000 2.370 1_545 S
Eu1002 O1004 2.370 . S
Eu1002 O1009 2.370 1_554 S
Eu1002 O1010 2.370 1_544 S
Eu1002 O1018 2.363 1_554 S
Eu1002 O1019 2.363 . S
Eu1002 O1034 2.363 1_545 S
Eu1002 O1035 2.363 . S
O1003 Eu998 2.369 1_565 S
O1003 Eu1001 2.370 1_565 S
O1003 Eu1005 2.371 . S
O1004 Eu998 2.371 . S
O1004 Eu1002 2.370 . S
O1004 Eu1006 2.369 . S
Eu1005 O1000 2.371 . S
Eu1005 O1003 2.371 . S
Eu1005 O1007 2.369 1_554 S
Eu1005 O1010 2.369 1_554 S
Eu1005 O1022 2.363 . S
Eu1005 O1023 2.363 . S
Eu1005 O1030 2.364 . S
Eu1005 O1031 2.361 1_554 S
Eu1006 O999 2.369 . S
Eu1006 O1004 2.369 . S
Eu1006 O1008 2.371 1_554 S
Eu1006 O1009 2.371 1_554 S
Eu1006 O1020 2.363 . S
Eu1006 O1021 2.363 . S
Eu1006 O1028 2.361 . S
Eu1006 O1029 2.364 1_554 S
O1007 Eu1001 2.370 1_566 S
O1007 Eu1005 2.369 1_556 S
O1007 Eu1011 2.371 1_565 S
O1008 Eu1001 2.370 1_556 S
O1008 Eu1006 2.371 1_556 S
O1008 Eu1011 2.369 . S
O1009 Eu1002 2.370 1_556 S
O1009 Eu1006 2.371 1_556 S
O1009 Eu1011 2.369 . S
O1010 Eu1002 2.370 1_566 S
O1010 Eu1005 2.369 1_556 S
O1010 Eu1011 2.371 1_565 S
Eu1011 O1007 2.371 1_545 S
Eu1011 O1008 2.369 . S
Eu1011 O1009 2.369 . S
Eu1011 O1010 2.371 1_545 S
Eu1011 O1014 2.364 1_545 S
Eu1011 O1015 2.361 . S
Eu1011 O1024 2.363 . S
Eu1011 O1025 2.363 . S
O1012 C986 1.283 . S
O1012 Eu998 2.361 1_565 S
O1013 C987 1.283 . S
O1013 Eu998 2.364 . S
O1014 C988 1.283 . S
O1014 Eu1011 2.364 1_565 S
O1015 C989 1.283 . S
O1015 Eu1011 2.361 . S
O1016 C990 1.283 . S
O1016 Eu1001 2.363 1_556 S
O1017 C991 1.283 . S
O1017 Eu1001 2.363 . S
O1018 C992 1.283 . S
O1018 Eu1002 2.363 1_556 S
O1019 C993 1.283 . S
O1019 Eu1002 2.363 . S
O1020 C994 1.283 . S
O1020 Eu1006 2.363 . S
O1021 C995 1.283 . S
O1021 Eu1006 2.363 . S
O1022 C996 1.283 . S
O1022 Eu1005 2.363 . S
O1023 C997 1.283 . S
O1023 Eu1005 2.363 . S
O1024 C992 1.283 . S
O1024 Eu1011 2.363 . S
O1025 C990 1.283 . S
O1025 Eu1011 2.363 . S
O1026 C993 1.283 . S
O1026 Eu998 2.363 . S
O1027 C991 1.283 . S
O1027 Eu998 2.363 . S
O1028 C987 1.283 . S
O1028 Eu1006 2.361 . S
O1029 C989 1.283 . S
O1029 Eu1006 2.364 1_556 S
O1030 C986 1.283 . S
O1030 Eu1005 2.364 . S
O1031 C988 1.283 . S
O1031 Eu1005 2.361 1_556 S
O1032 C997 1.283 . S
O1032 Eu1001 2.363 1_565 S
O1033 C995 1.283 . S
O1033 Eu1001 2.363 . S
O1034 C996 1.283 . S
O1034 Eu1002 2.363 1_565 S
O1035 C994 1.283 . S
O1035 Eu1002 2.363 . S
C1036 O1062 1.283 . S
C1036 O1080 1.283 . S
C1037 O1063 1.283 . S
C1037 O1078 1.283 . S
C1038 O1064 1.283 . S
C1038 O1081 1.283 . S
C1039 O1065 1.283 . S
C1039 O1079 1.283 . S
C1040 O1066 1.283 . S
C1040 O1075 1.283 . S
C1041 O1067 1.283 . S
C1041 O1077 1.283 . S
C1042 O1068 1.283 . S
C1042 O1074 1.283 . S
C1043 O1069 1.283 . S
C1043 O1076 1.283 . S
C1044 O1070 1.283 . S
C1044 O1085 1.283 . S
C1045 O1071 1.283 . S
C1045 O1083 1.283 . S
C1046 O1072 1.283 . S
C1046 O1084 1.283 . S
C1047 O1073 1.283 . S
C1047 O1082 1.283 . S
Eu1048 O1049 2.370 1_454 S
Eu1048 O1050 2.370 . S
Eu1048 O1053 2.370 1_455 S
Eu1048 O1054 2.370 1_554 S
Eu1048 O1062 2.363 . S
Eu1048 O1063 2.363 1_554 S
Eu1048 O1076 2.363 . S
Eu1048 O1077 2.363 1_455 S
O1049 Eu1048 2.370 1_656 S
O1049 Eu1051 2.370 1_556 S
O1049 Eu1056 2.370 1_655 S
O1050 Eu1048 2.370 . S
O1050 Eu1052 2.370 . S
O1050 Eu1055 2.370 . S
Eu1051 O1049 2.370 1_554 S
Eu1051 O1053 2.370 . S
Eu1051 O1057 2.370 . S
Eu1051 O1058 2.370 1_554 S
Eu1051 O1066 2.363 . S
Eu1051 O1067 2.363 . S
Eu1051 O1082 2.363 . S
Eu1051 O1083 2.363 1_554 S
Eu1052 O1050 2.370 . S
Eu1052 O1054 2.370 1_554 S
Eu1052 O1059 2.370 1_554 S
Eu1052 O1060 2.370 . S
Eu1052 O1068 2.363 . S
Eu1052 O1069 2.363 . S
Eu1052 O1084 2.363 . S
Eu1052 O1085 2.363 1_554 S
O1053 Eu1048 2.370 1_655 S
O1053 Eu1051 2.370 . S
O1053 Eu1055 2.370 1_655 S
O1054 Eu1048 2.370 1_556 S
O1054 Eu1052 2.370 1_556 S
O1054 Eu1056 2.370 . S
Eu1055 O1050 2.370 . S
Eu1055 O1053 2.370 1_455 S
Eu1055 O1057 2.370 1_455 S
Eu1055 O1060 2.370 . S
Eu1055 O1072 2.363 . S
Eu1055 O1073 2.363 1_455 S
Eu1055 O1080 2.363 . S
Eu1055 O1081 2.363 . S
Eu1056 O1049 2.370 1_455 S
Eu1056 O1054 2.370 . S
Eu1056 O1058 2.370 1_455 S
Eu1056 O1059 2.370 . S
Eu1056 O1070 2.363 . S
Eu1056 O1071 2.363 1_455 S
Eu1056 O1078 2.363 . S
Eu1056 O1079 2.363 . S
O1057 Eu1051 2.370 . S
O1057 Eu1055 2.370 1_655 S
O1057 Eu1061 2.370 1_655 S
O1058 Eu1051 2.370 1_556 S
O1058 Eu1056 2.370 1_655 S
O1058 Eu1061 2.370 1_656 S
O1059 Eu1052 2.370 1_556 S
O1059 Eu1056 2.370 . S
O1059 Eu1061 2.370 1_556 S
O1060 Eu1052 2.370 . S
O1060 Eu1055 2.370 . S
O1060 Eu1061 2.370 . S
Eu1061 O1057 2.370 1_455 S
Eu1061 O1058 2.370 1_454 S
Eu1061 O1059 2.370 1_554 S
Eu1061 O1060 2.370 . S
Eu1061 O1064 2.363 . S
Eu1061 O1065 2.363 1_554 S
Eu1061 O1074 2.363 . S
Eu1061 O1075 2.363 1_455 S
O1062 C1036 1.283 . S
O1062 Eu1048 2.363 . S
O1063 C1037 1.283 . S
O1063 Eu1048 2.363 1_556 S
O1064 C1038 1.283 . S
O1064 Eu1061 2.363 . S
O1065 C1039 1.283 . S
O1065 Eu1061 2.363 1_556 S
O1066 C1040 1.283 . S
O1066 Eu1051 2.363 . S
O1067 C1041 1.283 . S
O1067 Eu1051 2.363 . S
O1068 C1042 1.283 . S
O1068 Eu1052 2.363 . S
O1069 C1043 1.283 . S
O1069 Eu1052 2.363 . S
O1070 C1044 1.283 . S
O1070 Eu1056 2.363 . S
O1071 C1045 1.283 . S
O1071 Eu1056 2.363 1_655 S
O1072 C1046 1.283 . S
O1072 Eu1055 2.363 . S
O1073 C1047 1.283 . S
O1073 Eu1055 2.363 1_655 S
O1074 C1042 1.283 . S
O1074 Eu1061 2.363 . S
O1075 C1040 1.283 . S
O1075 Eu1061 2.363 1_655 S
O1076 C1043 1.283 . S
O1076 Eu1048 2.363 . S
O1077 C1041 1.283 . S
O1077 Eu1048 2.363 1_655 S
O1078 C1037 1.283 . S
O1078 Eu1056 2.363 . S
O1079 C1039 1.283 . S
O1079 Eu1056 2.363 . S
O1080 C1036 1.283 . S
O1080 Eu1055 2.363 . S
O1081 C1038 1.283 . S
O1081 Eu1055 2.363 . S
O1082 C1047 1.283 . S
O1082 Eu1051 2.363 . S
O1083 C1045 1.283 . S
O1083 Eu1051 2.363 1_556 S
O1084 C1046 1.283 . S
O1084 Eu1052 2.363 . S
O1085 C1044 1.283 . S
O1085 Eu1052 2.363 1_556 S
C1086 O1112 1.283 . S
C1086 O1130 1.283 . S
C1087 O1113 1.283 . S
C1087 O1128 1.283 . S
C1088 O1114 1.283 . S
C1088 O1131 1.283 . S
C1089 O1115 1.283 . S
C1089 O1129 1.283 . S
C1090 O1116 1.283 . S
C1090 O1125 1.283 . S
C1091 O1117 1.283 . S
C1091 O1127 1.283 . S
C1092 O1118 1.283 . S
C1092 O1124 1.283 . S
C1093 O1119 1.283 . S
C1093 O1126 1.283 . S
C1094 O1120 1.283 . S
C1094 O1135 1.283 . S
C1095 O1121 1.283 . S
C1095 O1133 1.283 . S
C1096 O1122 1.283 . S
C1096 O1134 1.283 . S
C1097 O1123 1.283 . S
C1097 O1132 1.283 . S
Eu1098 O1099 2.370 . S
Eu1098 O1100 2.370 . S
Eu1098 O1103 2.370 . S
Eu1098 O1104 2.370 . S
Eu1098 O1112 2.363 . S
Eu1098 O1113 2.363 . S
Eu1098 O1126 2.363 . S
Eu1098 O1127 2.363 . S
O1099 Eu1098 2.370 . S
O1099 Eu1101 2.370 . S
O1099 Eu1106 2.370 . S
O1100 Eu1098 2.370 . S
O1100 Eu1102 2.370 . S
O1100 Eu1105 2.370 . S
Eu1101 O1099 2.370 . S
Eu1101 O1103 2.370 . S
Eu1101 O1107 2.370 1_554 S
Eu1101 O1108 2.370 1_554 S
Eu1101 O1116 2.363 1_554 S
Eu1101 O1117 2.363 . S
Eu1101 O1132 2.363 . S
Eu1101 O1133 2.363 . S
Eu1102 O1100 2.370 . S
Eu1102 O1104 2.370 . S
Eu1102 O1109 2.370 1_554 S
Eu1102 O1110 2.370 1_554 S
Eu1102 O1118 2.363 1_554 S
Eu1102 O1119 2.363 . S
Eu1102 O1134 2.363 . S
Eu1102 O1135 2.363 . S
O1103 Eu1098 2.370 . S
O1103 Eu1101 2.370 . S
O1103 Eu1105 2.370 . S
O1104 Eu1098 2.370 . S
O1104 Eu1102 2.370 . S
O1104 Eu1106 2.370 . S
Eu1105 O1100 2.370 . S
Eu1105 O1103 2.370 . S
Eu1105 O1107 2.370 1_554 S
Eu1105 O1110 2.370 1_554 S
Eu1105 O1122 2.363 . S
Eu1105 O1123 2.363 . S
Eu1105 O1130 2.363 . S
Eu1105 O1131 2.363 1_554 S
Eu1106 O1099 2.370 . S
Eu1106 O1104 2.370 . S
Eu1106 O1108 2.370 1_554 S
Eu1106 O1109 2.370 1_554 S
Eu1106 O1120 2.363 . S
Eu1106 O1121 2.363 . S
Eu1106 O1128 2.363 . S
Eu1106 O1129 2.363 1_554 S
O1107 Eu1101 2.370 1_556 S
O1107 Eu1105 2.370 1_556 S
O1107 Eu1111 2.370 . S
O1108 Eu1101 2.370 1_556 S
O1108 Eu1106 2.370 1_556 S
O1108 Eu1111 2.370 . S
O1109 Eu1102 2.370 1_556 S
O1109 Eu1106 2.370 1_556 S
O1109 Eu1111 2.370 . S
O1110 Eu1102 2.370 1_556 S
O1110 Eu1105 2.370 1_556 S
O1110 Eu1111 2.370 . S
Eu1111 O1107 2.370 . S
Eu1111 O1108 2.370 . S
Eu1111 O1109 2.370 . S
Eu1111 O1110 2.370 . S
Eu1111 O1114 2.363 . S
Eu1111 O1115 2.363 . S
Eu1111 O1124 2.363 . S
Eu1111 O1125 2.363 . S
O1112 C1086 1.283 . S
O1112 Eu1098 2.363 . S
O1113 C1087 1.283 . S
O1113 Eu1098 2.363 . S
O1114 C1088 1.283 . S
O1114 Eu1111 2.363 . S
O1115 C1089 1.283 . S
O1115 Eu1111 2.363 . S
O1116 C1090 1.283 . S
O1116 Eu1101 2.363 1_556 S
O1117 C1091 1.283 . S
O1117 Eu1101 2.363 . S
O1118 C1092 1.283 . S
O1118 Eu1102 2.363 1_556 S
O1119 C1093 1.283 . S
O1119 Eu1102 2.363 . S
O1120 C1094 1.283 . S
O1120 Eu1106 2.363 . S
O1121 C1095 1.283 . S
O1121 Eu1106 2.363 . S
O1122 C1096 1.283 . S
O1122 Eu1105 2.363 . S
O1123 C1097 1.283 . S
O1123 Eu1105 2.363 . S
O1124 C1092 1.283 . S
O1124 Eu1111 2.363 . S
O1125 C1090 1.283 . S
O1125 Eu1111 2.363 . S
O1126 C1093 1.283 . S
O1126 Eu1098 2.363 . S
O1127 C1091 1.283 . S
O1127 Eu1098 2.363 . S
O1128 C1087 1.283 . S
O1128 Eu1106 2.363 . S
O1129 C1089 1.283 . S
O1129 Eu1106 2.363 1_556 S
O1130 C1086 1.283 . S
O1130 Eu1105 2.363 . S
O1131 C1088 1.283 . S
O1131 Eu1105 2.363 1_556 S
O1132 C1097 1.283 . S
O1132 Eu1101 2.363 . S
O1133 C1095 1.283 . S
O1133 Eu1101 2.363 . S
O1134 C1096 1.283 . S
O1134 Eu1102 2.363 . S
O1135 C1094 1.283 . S
O1135 Eu1102 2.363 . S
C1136 O1162 1.283 . S
C1136 O1180 1.283 . S
C1137 O1163 1.283 . S
C1137 O1178 1.283 . S
C1138 O1164 1.283 . S
C1138 O1181 1.283 . S
C1139 O1165 1.283 . S
C1139 O1179 1.283 . S
C1140 O1166 1.283 . S
C1140 O1175 1.283 . S
C1141 O1167 1.283 . S
C1141 O1177 1.283 . S
C1142 O1168 1.283 . S
C1142 O1174 1.283 . S
C1143 O1169 1.283 . S
C1143 O1176 1.283 . S
C1144 O1170 1.283 . S
C1144 O1185 1.283 . S
C1145 O1171 1.283 . S
C1145 O1183 1.283 . S
C1146 O1172 1.283 . S
C1146 O1184 1.283 . S
C1147 O1173 1.283 . S
C1147 O1182 1.283 . S
Eu1148 O1149 2.370 1_455 S
Eu1148 O1150 2.370 . S
Eu1148 O1153 2.370 1_455 S
Eu1148 O1154 2.370 . S
Eu1148 O1162 2.363 . S
Eu1148 O1163 2.363 . S
Eu1148 O1176 2.363 . S
Eu1148 O1177 2.363 1_455 S
O1149 Eu1148 2.370 1_655 S
O1149 Eu1151 2.370 . S
O1149 Eu1156 2.370 1_655 S
O1150 Eu1148 2.370 . S
O1150 Eu1152 2.370 . S
O1150 Eu1155 2.370 . S
Eu1151 O1149 2.370 . S
Eu1151 O1153 2.370 . S
Eu1151 O1157 2.370 . S
Eu1151 O1158 2.370 . S
Eu1151 O1166 2.363 . S
Eu1151 O1167 2.363 . S
Eu1151 O1182 2.363 . S
Eu1151 O1183 2.363 . S
Eu1152 O1150 2.370 . S
Eu1152 O1154 2.370 . S
Eu1152 O1159 2.370 . S
Eu1152 O1160 2.370 . S
Eu1152 O1168 2.363 . S
Eu1152 O1169 2.363 . S
Eu1152 O1184 2.363 . S
Eu1152 O1185 2.363 . S
O1153 Eu1148 2.370 1_655 S
O1153 Eu1151 2.370 . S
O1153 Eu1155 2.370 1_655 S
O1154 Eu1148 2.370 . S
O1154 Eu1152 2.370 . S
O1154 Eu1156 2.370 . S
Eu1155 O1150 2.370 . S
Eu1155 O1153 2.370 1_455 S
Eu1155 O1157 2.370 1_455 S
Eu1155 O1160 2.370 . S
Eu1155 O1172 2.363 . S
Eu1155 O1173 2.363 1_455 S
Eu1155 O1180 2.363 . S
Eu1155 O1181 2.363 . S
Eu1156 O1149 2.370 1_455 S
Eu1156 O1154 2.370 . S
Eu1156 O1158 2.370 1_455 S
Eu1156 O1159 2.370 . S
Eu1156 O1170 2.363 . S
Eu1156 O1171 2.363 1_455 S
Eu1156 O1178 2.363 . S
Eu1156 O1179 2.363 . S
O1157 Eu1151 2.370 . S
O1157 Eu1155 2.370 1_655 S
O1157 Eu1161 2.370 1_655 S
O1158 Eu1151 2.370 . S
O1158 Eu1156 2.370 1_655 S
O1158 Eu1161 2.370 1_655 S
O1159 Eu1152 2.370 . S
O1159 Eu1156 2.370 . S
O1159 Eu1161 2.370 . S
O1160 Eu1152 2.370 . S
O1160 Eu1155 2.370 . S
O1160 Eu1161 2.370 . S
Eu1161 O1157 2.370 1_455 S
Eu1161 O1158 2.370 1_455 S
Eu1161 O1159 2.370 . S
Eu1161 O1160 2.370 . S
Eu1161 O1164 2.363 . S
Eu1161 O1165 2.363 . S
Eu1161 O1174 2.363 . S
Eu1161 O1175 2.363 1_455 S
O1162 C1136 1.283 . S
O1162 Eu1148 2.363 . S
O1163 C1137 1.283 . S
O1163 Eu1148 2.363 . S
O1164 C1138 1.283 . S
O1164 Eu1161 2.363 . S
O1165 C1139 1.283 . S
O1165 Eu1161 2.363 . S
O1166 C1140 1.283 . S
O1166 Eu1151 2.363 . S
O1167 C1141 1.283 . S
O1167 Eu1151 2.363 . S
O1168 C1142 1.283 . S
O1168 Eu1152 2.363 . S
O1169 C1143 1.283 . S
O1169 Eu1152 2.363 . S
O1170 C1144 1.283 . S
O1170 Eu1156 2.363 . S
O1171 C1145 1.283 . S
O1171 Eu1156 2.363 1_655 S
O1172 C1146 1.283 . S
O1172 Eu1155 2.363 . S
O1173 C1147 1.283 . S
O1173 Eu1155 2.363 1_655 S
O1174 C1142 1.283 . S
O1174 Eu1161 2.363 . S
O1175 C1140 1.283 . S
O1175 Eu1161 2.363 1_655 S
O1176 C1143 1.283 . S
O1176 Eu1148 2.363 . S
O1177 C1141 1.283 . S
O1177 Eu1148 2.363 1_655 S
O1178 C1137 1.283 . S
O1178 Eu1156 2.363 . S
O1179 C1139 1.283 . S
O1179 Eu1156 2.363 . S
O1180 C1136 1.283 . S
O1180 Eu1155 2.363 . S
O1181 C1138 1.283 . S
O1181 Eu1155 2.363 . S
O1182 C1147 1.283 . S
O1182 Eu1151 2.363 . S
O1183 C1145 1.283 . S
O1183 Eu1151 2.363 . S
O1184 C1146 1.283 . S
O1184 Eu1152 2.363 . S
O1185 C1144 1.283 . S
O1185 Eu1152 2.363 . S
C1186 O1212 1.283 . S
C1186 O1230 1.283 . S
C1187 O1213 1.283 . S
C1187 O1228 1.283 . S
C1188 O1214 1.283 . S
C1188 O1231 1.283 . S
C1189 O1215 1.283 . S
C1189 O1229 1.283 . S
C1190 O1216 1.283 . S
C1190 O1225 1.283 . S
C1191 O1217 1.283 . S
C1191 O1227 1.283 . S
C1192 O1218 1.283 . S
C1192 O1224 1.283 . S
C1193 O1219 1.283 . S
C1193 O1226 1.283 . S
C1194 O1220 1.283 . S
C1194 O1235 1.283 . S
C1195 O1221 1.283 . S
C1195 O1233 1.283 . S
C1196 O1222 1.283 . S
C1196 O1234 1.283 . S
C1197 O1223 1.283 . S
C1197 O1232 1.283 . S
Eu1198 O1199 2.370 . S
Eu1198 O1200 2.370 . S
Eu1198 O1203 2.370 . S
Eu1198 O1204 2.370 . S
Eu1198 O1212 2.363 . S
Eu1198 O1213 2.363 . S
Eu1198 O1226 2.363 . S
Eu1198 O1227 2.363 . S
O1199 Eu1198 2.370 . S
O1199 Eu1201 2.370 1_565 S
O1199 Eu1206 2.370 1_565 S
O1200 Eu1198 2.370 . S
O1200 Eu1202 2.370 1_565 S
O1200 Eu1205 2.370 1_565 S
Eu1201 O1199 2.370 1_545 S
Eu1201 O1203 2.370 1_545 S
Eu1201 O1207 2.370 . S
Eu1201 O1208 2.370 . S
Eu1201 O1216 2.363 . S
Eu1201 O1217 2.363 1_545 S
Eu1201 O1232 2.363 . S
Eu1201 O1233 2.363 . S
Eu1202 O1200 2.370 1_545 S
Eu1202 O1204 2.370 1_545 S
Eu1202 O1209 2.370 . S
Eu1202 O1210 2.370 . S
Eu1202 O1218 2.363 . S
Eu1202 O1219 2.363 1_545 S
Eu1202 O1234 2.363 . S
Eu1202 O1235 2.363 . S
O1203 Eu1198 2.370 . S
O1203 Eu1201 2.370 1_565 S
O1203 Eu1205 2.370 1_565 S
O1204 Eu1198 2.370 . S
O1204 Eu1202 2.370 1_565 S
O1204 Eu1206 2.370 1_565 S
Eu1205 O1200 2.370 1_545 S
Eu1205 O1203 2.370 1_545 S
Eu1205 O1207 2.370 . S
Eu1205 O1210 2.370 . S
Eu1205 O1222 2.363 . S
Eu1205 O1223 2.363 . S
Eu1205 O1230 2.363 1_545 S
Eu1205 O1231 2.363 . S
Eu1206 O1199 2.370 1_545 S
Eu1206 O1204 2.370 1_545 S
Eu1206 O1208 2.370 . S
Eu1206 O1209 2.370 . S
Eu1206 O1220 2.363 . S
Eu1206 O1221 2.363 . S
Eu1206 O1228 2.363 1_545 S
Eu1206 O1229 2.363 . S
O1207 Eu1201 2.370 . S
O1207 Eu1205 2.370 . S
O1207 Eu1211 2.370 . S
O1208 Eu1201 2.370 . S
O1208 Eu1206 2.370 . S
O1208 Eu1211 2.370 . S
O1209 Eu1202 2.370 . S
O1209 Eu1206 2.370 . S
O1209 Eu1211 2.370 . S
O1210 Eu1202 2.370 . S
O1210 Eu1205 2.370 . S
O1210 Eu1211 2.370 . S
Eu1211 O1207 2.370 . S
Eu1211 O1208 2.370 . S
Eu1211 O1209 2.370 . S
Eu1211 O1210 2.370 . S
Eu1211 O1214 2.363 . S
Eu1211 O1215 2.363 . S
Eu1211 O1224 2.363 . S
Eu1211 O1225 2.363 . S
O1212 C1186 1.283 . S
O1212 Eu1198 2.363 . S
O1213 C1187 1.283 . S
O1213 Eu1198 2.363 . S
O1214 C1188 1.283 . S
O1214 Eu1211 2.363 . S
O1215 C1189 1.283 . S
O1215 Eu1211 2.363 . S
O1216 C1190 1.283 . S
O1216 Eu1201 2.363 . S
O1217 C1191 1.283 . S
O1217 Eu1201 2.363 1_565 S
O1218 C1192 1.283 . S
O1218 Eu1202 2.363 . S
O1219 C1193 1.283 . S
O1219 Eu1202 2.363 1_565 S
O1220 C1194 1.283 . S
O1220 Eu1206 2.363 . S
O1221 C1195 1.283 . S
O1221 Eu1206 2.363 . S
O1222 C1196 1.283 . S
O1222 Eu1205 2.363 . S
O1223 C1197 1.283 . S
O1223 Eu1205 2.363 . S
O1224 C1192 1.283 . S
O1224 Eu1211 2.363 . S
O1225 C1190 1.283 . S
O1225 Eu1211 2.363 . S
O1226 C1193 1.283 . S
O1226 Eu1198 2.363 . S
O1227 C1191 1.283 . S
O1227 Eu1198 2.363 . S
O1228 C1187 1.283 . S
O1228 Eu1206 2.363 1_565 S
O1229 C1189 1.283 . S
O1229 Eu1206 2.363 . S
O1230 C1186 1.283 . S
O1230 Eu1205 2.363 1_565 S
O1231 C1188 1.283 . S
O1231 Eu1205 2.363 . S
O1232 C1197 1.283 . S
O1232 Eu1201 2.363 . S
O1233 C1195 1.283 . S
O1233 Eu1201 2.363 . S
O1234 C1196 1.283 . S
O1234 Eu1202 2.363 . S
O1235 C1194 1.283 . S
O1235 Eu1202 2.363 . S
H1236 C1244 0.950 . S
H1237 C1249 0.950 . S
H1238 C1246 0.950 . S
H1239 C1248 0.950 . S
H1240 C1250 0.950 . S
H1241 C1252 0.950 . S
H1242 C1254 0.950 . S
H1243 C1255 0.950 . S
C1244 H1236 0.950 . S
C1244 C1245 1.386 . S
C1244 C1246 1.391 . S
C1245 C1244 1.386 . S
C1245 C1249 1.393 . S
C1246 H1238 0.950 . S
C1246 C1244 1.391 . S
C1246 C1247 1.400 . S
C1247 C1246 1.400 . S
C1247 C1248 1.398 . S
C1247 C1253 1.491 . S
C1248 H1239 0.950 . S
C1248 C1247 1.398 . S
C1248 C1249 1.391 . S
C1249 H1237 0.950 . S
C1249 C1245 1.393 . S
C1249 C1248 1.391 . S
C1250 H1240 0.950 . S
C1250 C1251 1.386 . S
C1250 C1252 1.391 . S
C1251 C1250 1.386 . S
C1251 C1255 1.393 . S
C1252 H1241 0.950 . S
C1252 C1250 1.391 . S
C1252 C1253 1.400 . S
C1253 C1247 1.491 . S
C1253 C1252 1.400 . S
C1253 C1254 1.398 . S
C1254 H1242 0.950 . S
C1254 C1253 1.398 . S
C1254 C1255 1.391 . S
C1255 H1243 0.950 . S
C1255 C1251 1.393 . S
C1255 C1254 1.391 . S
H1256 C1264 0.950 . S
H1257 C1269 0.950 . S
H1258 C1266 0.950 . S
H1259 C1268 0.950 . S
H1260 C1270 0.950 . S
H1261 C1272 0.950 . S
H1262 C1274 0.950 . S
H1263 C1275 0.950 . S
C1264 H1256 0.950 . S
C1264 C1265 1.386 . S
C1264 C1266 1.391 . S
C1265 C1264 1.386 . S
C1265 C1269 1.393 . S
C1266 H1258 0.950 . S
C1266 C1264 1.391 . S
C1266 C1267 1.400 . S
C1267 C1266 1.400 . S
C1267 C1268 1.398 . S
C1267 C1273 1.491 . S
C1268 H1259 0.950 . S
C1268 C1267 1.398 . S
C1268 C1269 1.391 . S
C1269 H1257 0.950 . S
C1269 C1265 1.393 . S
C1269 C1268 1.391 . S
C1270 H1260 0.950 . S
C1270 C1271 1.386 . S
C1270 C1272 1.391 . S
C1271 C1270 1.386 . S
C1271 C1275 1.393 . S
C1272 H1261 0.950 . S
C1272 C1270 1.391 . S
C1272 C1273 1.400 . S
C1273 C1267 1.491 . S
C1273 C1272 1.400 . S
C1273 C1274 1.398 . S
C1274 H1262 0.950 . S
C1274 C1273 1.398 . S
C1274 C1275 1.391 . S
C1275 H1263 0.950 . S
C1275 C1271 1.393 . S
C1275 C1274 1.391 . S
H1276 C1284 0.950 . S
H1277 C1289 0.950 . S
H1278 C1286 0.950 . S
H1279 C1288 0.950 . S
H1280 C1290 0.950 . S
H1281 C1292 0.950 . S
H1282 C1294 0.950 . S
H1283 C1295 0.950 . S
C1284 H1276 0.950 . S
C1284 C1285 1.386 . S
C1284 C1286 1.391 . S
C1285 C1284 1.386 . S
C1285 C1289 1.393 . S
C1286 H1278 0.950 . S
C1286 C1284 1.391 . S
C1286 C1287 1.400 . S
C1287 C1286 1.400 . S
C1287 C1288 1.398 . S
C1287 C1293 1.491 . S
C1288 H1279 0.950 . S
C1288 C1287 1.398 . S
C1288 C1289 1.391 . S
C1289 H1277 0.950 . S
C1289 C1285 1.393 . S
C1289 C1288 1.391 . S
C1290 H1280 0.950 . S
C1290 C1291 1.386 . S
C1290 C1292 1.391 . S
C1291 C1290 1.386 . S
C1291 C1295 1.393 . S
C1292 H1281 0.950 . S
C1292 C1290 1.391 . S
C1292 C1293 1.400 . S
C1293 C1287 1.491 . S
C1293 C1292 1.400 . S
C1293 C1294 1.398 . S
C1294 H1282 0.950 . S
C1294 C1293 1.398 . S
C1294 C1295 1.391 . S
C1295 H1283 0.950 . S
C1295 C1291 1.393 . S
C1295 C1294 1.391 . S
H1296 C1304 0.950 . S
H1297 C1309 0.950 . S
H1298 C1306 0.950 . S
H1299 C1308 0.950 . S
H1300 C1310 0.950 . S
H1301 C1312 0.950 . S
H1302 C1314 0.950 . S
H1303 C1315 0.950 . S
C1304 H1296 0.950 . S
C1304 C1305 1.386 . S
C1304 C1306 1.391 . S
C1305 C1304 1.386 . S
C1305 C1309 1.393 . S
C1306 H1298 0.950 . S
C1306 C1304 1.391 . S
C1306 C1307 1.400 . S
C1307 C1306 1.400 . S
C1307 C1308 1.398 . S
C1307 C1313 1.491 . S
C1308 H1299 0.950 . S
C1308 C1307 1.398 . S
C1308 C1309 1.391 . S
C1309 H1297 0.950 . S
C1309 C1305 1.393 . S
C1309 C1308 1.391 . S
C1310 H1300 0.950 . S
C1310 C1311 1.386 . S
C1310 C1312 1.391 . S
C1311 C1310 1.386 . S
C1311 C1315 1.393 . S
C1312 H1301 0.950 . S
C1312 C1310 1.391 . S
C1312 C1313 1.400 . S
C1313 C1307 1.491 . S
C1313 C1312 1.400 . S
C1313 C1314 1.398 . S
C1314 H1302 0.950 . S
C1314 C1313 1.398 . S
C1314 C1315 1.391 . S
C1315 H1303 0.950 . S
C1315 C1311 1.393 . S
C1315 C1314 1.391 . S
H1316 C1324 0.950 . S
H1317 C1329 0.950 . S
H1318 C1326 0.950 . S
H1319 C1328 0.950 . S
H1320 C1330 0.950 . S
H1321 C1332 0.950 . S
H1322 C1334 0.950 . S
H1323 C1335 0.950 . S
C1324 H1316 0.950 . S
C1324 C1325 1.386 . S
C1324 C1326 1.391 . S
C1325 C1324 1.386 . S
C1325 C1329 1.393 . S
C1326 H1318 0.950 . S
C1326 C1324 1.391 . S
C1326 C1327 1.400 . S
C1327 C1326 1.400 . S
C1327 C1328 1.398 . S
C1327 C1333 1.491 . S
C1328 H1319 0.950 . S
C1328 C1327 1.398 . S
C1328 C1329 1.391 . S
C1329 H1317 0.950 . S
C1329 C1325 1.393 . S
C1329 C1328 1.391 . S
C1330 H1320 0.950 . S
C1330 C1331 1.386 . S
C1330 C1332 1.391 . S
C1331 C1330 1.386 . S
C1331 C1335 1.393 . S
C1332 H1321 0.950 . S
C1332 C1330 1.391 . S
C1332 C1333 1.400 . S
C1333 C1327 1.491 . S
C1333 C1332 1.400 . S
C1333 C1334 1.398 . S
C1334 H1322 0.950 . S
C1334 C1333 1.398 . S
C1334 C1335 1.391 . S
C1335 H1323 0.950 . S
C1335 C1331 1.393 . S
C1335 C1334 1.391 . S
H1336 C1344 0.950 . S
H1337 C1349 0.950 . S
H1338 C1346 0.950 . S
H1339 C1348 0.950 . S
H1340 C1350 0.950 . S
H1341 C1352 0.950 . S
H1342 C1354 0.950 . S
H1343 C1355 0.950 . S
C1344 H1336 0.950 . S
C1344 C1345 1.386 . S
C1344 C1346 1.391 . S
C1345 C1344 1.386 . S
C1345 C1349 1.393 . S
C1346 H1338 0.950 . S
C1346 C1344 1.391 . S
C1346 C1347 1.400 . S
C1347 C1346 1.400 . S
C1347 C1348 1.398 . S
C1347 C1353 1.491 . S
C1348 H1339 0.950 . S
C1348 C1347 1.398 . S
C1348 C1349 1.391 . S
C1349 H1337 0.950 . S
C1349 C1345 1.393 . S
C1349 C1348 1.391 . S
C1350 H1340 0.950 . S
C1350 C1351 1.386 . S
C1350 C1352 1.391 . S
C1351 C1350 1.386 . S
C1351 C1355 1.393 . S
C1352 H1341 0.950 . S
C1352 C1350 1.391 . S
C1352 C1353 1.400 . S
C1353 C1347 1.491 . S
C1353 C1352 1.400 . S
C1353 C1354 1.398 . S
C1354 H1342 0.950 . S
C1354 C1353 1.398 . S
C1354 C1355 1.391 . S
C1355 H1343 0.950 . S
C1355 C1351 1.393 . S
C1355 C1354 1.391 . S
H1356 C1364 0.950 . S
H1357 C1369 0.950 . S
H1358 C1366 0.950 . S
H1359 C1368 0.950 . S
H1360 C1370 0.950 . S
H1361 C1372 0.950 . S
H1362 C1374 0.950 . S
H1363 C1375 0.950 . S
C1364 H1356 0.950 . S
C1364 C1365 1.386 . S
C1364 C1366 1.391 . S
C1365 C1364 1.386 . S
C1365 C1369 1.393 . S
C1366 H1358 0.950 . S
C1366 C1364 1.391 . S
C1366 C1367 1.400 . S
C1367 C1366 1.400 . S
C1367 C1368 1.398 . S
C1367 C1373 1.491 . S
C1368 H1359 0.950 . S
C1368 C1367 1.398 . S
C1368 C1369 1.391 . S
C1369 H1357 0.950 . S
C1369 C1365 1.393 . S
C1369 C1368 1.391 . S
C1370 H1360 0.950 . S
C1370 C1371 1.386 . S
C1370 C1372 1.391 . S
C1371 C1370 1.386 . S
C1371 C1375 1.393 . S
C1372 H1361 0.950 . S
C1372 C1370 1.391 . S
C1372 C1373 1.400 . S
C1373 C1367 1.491 . S
C1373 C1372 1.400 . S
C1373 C1374 1.398 . S
C1374 H1362 0.950 . S
C1374 C1373 1.398 . S
C1374 C1375 1.391 . S
C1375 H1363 0.950 . S
C1375 C1371 1.393 . S
C1375 C1374 1.391 . S
H1376 C1384 0.950 . S
H1377 C1389 0.950 . S
H1378 C1386 0.950 . S
H1379 C1388 0.950 . S
H1380 C1390 0.950 . S
H1381 C1392 0.950 . S
H1382 C1394 0.950 . S
H1383 C1395 0.950 . S
C1384 H1376 0.950 . S
C1384 C1385 1.386 . S
C1384 C1386 1.391 . S
C1385 C1384 1.386 . S
C1385 C1389 1.393 . S
C1386 H1378 0.950 . S
C1386 C1384 1.391 . S
C1386 C1387 1.400 . S
C1387 C1386 1.400 . S
C1387 C1388 1.398 . S
C1387 C1393 1.491 . S
C1388 H1379 0.950 . S
C1388 C1387 1.398 . S
C1388 C1389 1.391 . S
C1389 H1377 0.950 . S
C1389 C1385 1.393 . S
C1389 C1388 1.391 . S
C1390 H1380 0.950 . S
C1390 C1391 1.386 . S
C1390 C1392 1.391 . S
C1391 C1390 1.386 . S
C1391 C1395 1.393 . S
C1392 H1381 0.950 . S
C1392 C1390 1.391 . S
C1392 C1393 1.400 . S
C1393 C1387 1.491 . S
C1393 C1392 1.400 . S
C1393 C1394 1.398 . S
C1394 H1382 0.950 . S
C1394 C1393 1.398 . S
C1394 C1395 1.391 . S
C1395 H1383 0.950 . S
C1395 C1391 1.393 . S
C1395 C1394 1.391 . S
H1396 C1404 0.950 . S
H1397 C1409 0.950 . S
H1398 C1406 0.950 . S
H1399 C1408 0.950 . S
H1400 C1410 0.950 . S
H1401 C1412 0.950 . S
H1402 C1414 0.950 . S
H1403 C1415 0.950 . S
C1404 H1396 0.950 . S
C1404 C1405 1.386 . S
C1404 C1406 1.391 . S
C1405 C1404 1.386 . S
C1405 C1409 1.393 . S
C1406 H1398 0.950 . S
C1406 C1404 1.391 . S
C1406 C1407 1.400 . S
C1407 C1406 1.400 . S
C1407 C1408 1.398 . S
C1407 C1413 1.491 . S
C1408 H1399 0.950 . S
C1408 C1407 1.398 . S
C1408 C1409 1.391 . S
C1409 H1397 0.950 . S
C1409 C1405 1.393 . S
C1409 C1408 1.391 . S
C1410 H1400 0.950 . S
C1410 C1411 1.386 . S
C1410 C1412 1.391 . S
C1411 C1410 1.386 . S
C1411 C1415 1.393 . S
C1412 H1401 0.950 . S
C1412 C1410 1.391 . S
C1412 C1413 1.400 . S
C1413 C1407 1.491 . S
C1413 C1412 1.400 . S
C1413 C1414 1.398 . S
C1414 H1402 0.950 . S
C1414 C1413 1.398 . S
C1414 C1415 1.391 . S
C1415 H1403 0.950 . S
C1415 C1411 1.393 . S
C1415 C1414 1.391 . S
H1416 C1424 0.950 . S
H1417 C1429 0.950 . S
H1418 C1426 0.950 . S
H1419 C1428 0.950 . S
H1420 C1430 0.950 . S
H1421 C1432 0.950 . S
H1422 C1434 0.950 . S
H1423 C1435 0.950 . S
C1424 H1416 0.950 . S
C1424 C1425 1.386 . S
C1424 C1426 1.391 . S
C1425 C1424 1.386 . S
C1425 C1429 1.393 . S
C1426 H1418 0.950 . S
C1426 C1424 1.391 . S
C1426 C1427 1.400 . S
C1427 C1426 1.400 . S
C1427 C1428 1.398 . S
C1427 C1433 1.491 . S
C1428 H1419 0.950 . S
C1428 C1427 1.398 . S
C1428 C1429 1.391 . S
C1429 H1417 0.950 . S
C1429 C1425 1.393 . S
C1429 C1428 1.391 . S
C1430 H1420 0.950 . S
C1430 C1431 1.386 . S
C1430 C1432 1.391 . S
C1431 C1430 1.386 . S
C1431 C1435 1.393 . S
C1432 H1421 0.950 . S
C1432 C1430 1.391 . S
C1432 C1433 1.400 . S
C1433 C1427 1.491 . S
C1433 C1432 1.400 . S
C1433 C1434 1.398 . S
C1434 H1422 0.950 . S
C1434 C1433 1.398 . S
C1434 C1435 1.391 . S
C1435 H1423 0.950 . S
C1435 C1431 1.393 . S
C1435 C1434 1.391 . S
H1436 C1444 0.950 . S
H1437 C1449 0.950 . S
H1438 C1446 0.950 . S
H1439 C1448 0.950 . S
H1440 C1450 0.950 . S
H1441 C1452 0.950 . S
H1442 C1454 0.950 . S
H1443 C1455 0.950 . S
C1444 H1436 0.950 . S
C1444 C1445 1.386 . S
C1444 C1446 1.391 . S
C1445 C1444 1.386 . S
C1445 C1449 1.393 . S
C1446 H1438 0.950 . S
C1446 C1444 1.391 . S
C1446 C1447 1.400 . S
C1447 C1446 1.400 . S
C1447 C1448 1.398 . S
C1447 C1453 1.491 . S
C1448 H1439 0.950 . S
C1448 C1447 1.398 . S
C1448 C1449 1.391 . S
C1449 H1437 0.950 . S
C1449 C1445 1.393 . S
C1449 C1448 1.391 . S
C1450 H1440 0.950 . S
C1450 C1451 1.386 . S
C1450 C1452 1.391 . S
C1451 C1450 1.386 . S
C1451 C1455 1.393 . S
C1452 H1441 0.950 . S
C1452 C1450 1.391 . S
C1452 C1453 1.400 . S
C1453 C1447 1.491 . S
C1453 C1452 1.400 . S
C1453 C1454 1.398 . S
C1454 H1442 0.950 . S
C1454 C1453 1.398 . S
C1454 C1455 1.391 . S
C1455 H1443 0.950 . S
C1455 C1451 1.393 . S
C1455 C1454 1.391 . S
H1456 C1464 0.950 . S
H1457 C1469 0.950 . S
H1458 C1466 0.950 . S
H1459 C1468 0.950 . S
H1460 C1470 0.950 . S
H1461 C1472 0.950 . S
H1462 C1474 0.950 . S
H1463 C1475 0.950 . S
C1464 H1456 0.950 . S
C1464 C1465 1.386 . S
C1464 C1466 1.391 . S
C1465 C1464 1.386 . S
C1465 C1469 1.393 . S
C1466 H1458 0.950 . S
C1466 C1464 1.391 . S
C1466 C1467 1.400 . S
C1467 C1466 1.400 . S
C1467 C1468 1.398 . S
C1467 C1473 1.491 . S
C1468 H1459 0.950 . S
C1468 C1467 1.398 . S
C1468 C1469 1.391 . S
C1469 H1457 0.950 . S
C1469 C1465 1.393 . S
C1469 C1468 1.391 . S
C1470 H1460 0.950 . S
C1470 C1471 1.386 . S
C1470 C1472 1.391 . S
C1471 C1470 1.386 . S
C1471 C1475 1.393 . S
C1472 H1461 0.950 . S
C1472 C1470 1.391 . S
C1472 C1473 1.400 . S
C1473 C1467 1.491 . S
C1473 C1472 1.400 . S
C1473 C1474 1.398 . S
C1474 H1462 0.950 . S
C1474 C1473 1.398 . S
C1474 C1475 1.391 . S
C1475 H1463 0.950 . S
C1475 C1471 1.393 . S
C1475 C1474 1.391 . S
H1476 C1484 0.950 . S
H1477 C1489 0.950 . S
H1478 C1486 0.950 . S
H1479 C1488 0.950 . S
H1480 C1490 0.950 . S
H1481 C1492 0.950 . S
H1482 C1494 0.950 . S
H1483 C1495 0.950 . S
C1484 H1476 0.950 . S
C1484 C1485 1.394 . S
C1484 C1486 1.391 . S
C1485 C1484 1.394 . S
C1485 C1489 1.386 1_556 S
C1486 H1478 0.950 . S
C1486 C1484 1.391 . S
C1486 C1487 1.403 . S
C1487 C1486 1.403 . S
C1487 C1488 1.396 1_556 S
C1487 C1493 1.490 1_556 S
C1488 H1479 0.950 . S
C1488 C1487 1.396 1_554 S
C1488 C1489 1.391 . S
C1489 H1477 0.950 . S
C1489 C1485 1.386 1_554 S
C1489 C1488 1.391 . S
C1490 H1480 0.950 . S
C1490 C1491 1.398 . S
C1490 C1492 1.391 . S
C1491 C1490 1.398 . S
C1491 C1495 1.382 1_554 S
C1492 H1481 0.950 . S
C1492 C1490 1.391 . S
C1492 C1493 1.407 . S
C1493 C1487 1.490 1_554 S
C1493 C1492 1.407 . S
C1493 C1494 1.393 1_554 S
C1494 H1482 0.950 . S
C1494 C1493 1.393 1_556 S
C1494 C1495 1.391 . S
C1495 H1483 0.950 . S
C1495 C1491 1.382 1_556 S
C1495 C1494 1.391 . S
H1496 C1504 0.950 . S
H1497 C1509 0.950 . S
H1498 C1506 0.950 . S
H1499 C1508 0.950 . S
H1500 C1510 0.950 . S
H1501 C1512 0.950 . S
H1502 C1514 0.950 . S
H1503 C1515 0.950 . S
C1504 H1496 0.950 . S
C1504 C1505 1.387 1_556 S
C1504 C1506 1.391 . S
C1505 C1504 1.387 1_554 S
C1505 C1509 1.392 . S
C1506 H1498 0.950 . S
C1506 C1504 1.391 . S
C1506 C1507 1.402 1_556 S
C1507 C1506 1.402 1_554 S
C1507 C1508 1.396 . S
C1507 C1513 1.491 . S
C1508 H1499 0.950 . S
C1508 C1507 1.396 . S
C1508 C1509 1.391 . S
C1509 H1497 0.950 . S
C1509 C1505 1.392 . S
C1509 C1508 1.391 . S
C1510 H1500 0.950 . S
C1510 C1511 1.386 . S
C1510 C1512 1.391 . S
C1511 C1510 1.386 . S
C1511 C1515 1.393 1_554 S
C1512 H1501 0.950 . S
C1512 C1510 1.391 . S
C1512 C1513 1.401 . S
C1513 C1507 1.491 . S
C1513 C1512 1.401 . S
C1513 C1514 1.398 1_554 S
C1514 H1502 0.950 . S
C1514 C1513 1.398 1_556 S
C1514 C1515 1.391 . S
C1515 H1503 0.950 . S
C1515 C1511 1.393 1_556 S
C1515 C1514 1.391 . S
H1516 C1524 0.950 . S
H1517 C1529 0.950 . S
H1518 C1526 0.950 . S
H1519 C1528 0.950 . S
H1520 C1530 0.950 . S
H1521 C1532 0.950 . S
H1522 C1534 0.950 . S
H1523 C1535 0.950 . S
C1524 H1516 0.950 . S
C1524 C1525 1.383 1_554 S
C1524 C1526 1.391 . S
C1525 C1524 1.383 1_556 S
C1525 C1529 1.396 . S
C1526 H1518 0.950 . S
C1526 C1524 1.391 . S
C1526 C1527 1.405 1_554 S
C1527 C1526 1.405 1_556 S
C1527 C1528 1.394 . S
C1527 C1533 1.491 1_556 S
C1528 H1519 0.950 . S
C1528 C1527 1.394 . S
C1528 C1529 1.391 . S
C1529 H1517 0.950 . S
C1529 C1525 1.396 . S
C1529 C1528 1.391 . S
C1530 H1520 0.950 . S
C1530 C1531 1.371 1_556 S
C1530 C1532 1.391 . S
C1531 C1530 1.371 1_554 S
C1531 C1535 1.408 . S
C1532 H1521 0.950 . S
C1532 C1530 1.391 . S
C1532 C1533 1.393 1_556 S
C1533 C1527 1.491 1_554 S
C1533 C1532 1.393 1_554 S
C1533 C1534 1.406 . S
C1534 H1522 0.950 . S
C1534 C1533 1.406 . S
C1534 C1535 1.391 . S
C1535 H1523 0.950 . S
C1535 C1531 1.408 . S
C1535 C1534 1.391 . S
H1536 C1544 0.950 . S
H1537 C1549 0.950 . S
H1538 C1546 0.950 . S
H1539 C1548 0.950 . S
H1540 C1550 0.950 . S
H1541 C1552 0.950 . S
H1542 C1554 0.950 . S
H1543 C1555 0.950 . S
C1544 H1536 0.950 . S
C1544 C1545 1.367 1_554 S
C1544 C1546 1.391 . S
C1545 C1544 1.367 1_556 S
C1545 C1549 1.412 . S
C1546 H1538 0.950 . S
C1546 C1544 1.391 . S
C1546 C1547 1.394 1_554 S
C1547 C1546 1.394 1_556 S
C1547 C1548 1.405 . S
C1547 C1553 1.490 1_556 S
C1548 H1539 0.950 . S
C1548 C1547 1.405 . S
C1548 C1549 1.391 . S
C1549 H1537 0.950 . S
C1549 C1545 1.412 . S
C1549 C1548 1.391 . S
C1550 H1540 0.950 . S
C1550 C1551 1.363 1_556 S
C1550 C1552 1.391 . S
C1551 C1550 1.363 1_554 S
C1551 C1555 1.417 . S
C1552 H1541 0.950 . S
C1552 C1550 1.391 . S
C1552 C1553 1.389 1_556 S
C1553 C1547 1.490 1_554 S
C1553 C1552 1.389 1_554 S
C1553 C1554 1.410 . S
C1554 H1542 0.950 . S
C1554 C1553 1.410 . S
C1554 C1555 1.391 . S
C1555 H1543 0.950 . S
C1555 C1551 1.417 . S
C1555 C1554 1.391 . S
H1556 C1564 0.949 1_655 S
H1557 C1569 0.952 . S
H1558 C1566 0.950 . S
H1559 C1568 0.950 . S
H1560 C1570 0.950 . S
H1561 C1572 0.950 . S
H1562 C1574 0.950 . S
H1563 C1575 0.950 . S
C1564 H1556 0.949 1_455 S
C1564 C1565 1.385 . S
C1564 C1566 1.391 . S
C1565 C1564 1.385 . S
C1565 C1569 1.393 . S
C1566 H1558 0.950 . S
C1566 C1564 1.391 . S
C1566 C1567 1.401 . S
C1567 C1566 1.401 . S
C1567 C1568 1.399 . S
C1567 C1573 1.491 . S
C1568 H1559 0.950 . S
C1568 C1567 1.399 . S
C1568 C1569 1.391 . S
C1569 H1557 0.952 . S
C1569 C1565 1.393 . S
C1569 C1568 1.391 . S
C1570 H1560 0.950 . S
C1570 C1571 1.386 . S
C1570 C1572 1.391 . S
C1571 C1570 1.386 . S
C1571 C1575 1.393 . S
C1572 H1561 0.950 . S
C1572 C1570 1.391 . S
C1572 C1573 1.400 . S
C1573 C1567 1.491 . S
C1573 C1572 1.400 . S
C1573 C1574 1.398 . S
C1574 H1562 0.950 . S
C1574 C1573 1.398 . S
C1574 C1575 1.391 . S
C1575 H1563 0.950 . S
C1575 C1571 1.393 . S
C1575 C1574 1.391 . S
H1576 C1584 0.950 . S
H1577 C1589 0.950 . S
H1578 C1586 0.950 . S
H1579 C1588 0.950 . S
H1580 C1590 0.950 . S
H1581 C1592 0.950 . S
H1582 C1594 0.950 . S
H1583 C1595 0.950 . S
C1584 H1576 0.950 . S
C1584 C1585 1.373 1_545 S
C1584 C1586 1.391 . S
C1585 C1584 1.373 1_565 S
C1585 C1589 1.406 . S
C1586 H1578 0.950 . S
C1586 C1584 1.391 . S
C1586 C1587 1.396 1_545 S
C1587 C1586 1.396 1_565 S
C1587 C1588 1.403 . S
C1587 C1593 1.490 1_565 S
C1588 H1579 0.950 . S
C1588 C1587 1.403 . S
C1588 C1589 1.391 . S
C1589 H1577 0.950 . S
C1589 C1585 1.406 . S
C1589 C1588 1.391 . S
C1590 H1580 0.950 . S
C1590 C1591 1.369 1_565 S
C1590 C1592 1.391 . S
C1591 C1590 1.369 1_545 S
C1591 C1595 1.412 . S
C1592 H1581 0.950 . S
C1592 C1590 1.391 . S
C1592 C1593 1.391 1_565 S
C1593 C1587 1.490 1_545 S
C1593 C1592 1.391 1_545 S
C1593 C1594 1.409 . S
C1594 H1582 0.950 . S
C1594 C1593 1.409 . S
C1594 C1595 1.391 . S
C1595 H1583 0.950 . S
C1595 C1591 1.412 . S
C1595 C1594 1.391 . S
H1596 C1604 0.950 . S
H1597 C1609 0.950 . S
H1598 C1606 0.950 . S
H1599 C1608 0.950 . S
H1600 C1610 0.950 . S
H1601 C1612 0.950 . S
H1602 C1614 0.949 . S
H1603 C1615 0.947 1_655 S
C1604 H1596 0.950 . S
C1604 C1605 1.383 1_655 S
C1604 C1606 1.391 . S
C1605 C1604 1.383 1_455 S
C1605 C1609 1.395 . S
C1606 H1598 0.950 . S
C1606 C1604 1.391 . S
C1606 C1607 1.400 1_655 S
C1607 C1606 1.400 1_455 S
C1607 C1608 1.398 . S
C1607 C1613 1.491 . S
C1608 H1599 0.950 . S
C1608 C1607 1.398 . S
C1608 C1609 1.391 . S
C1609 H1597 0.950 . S
C1609 C1605 1.395 . S
C1609 C1608 1.391 . S
C1610 H1600 0.950 . S
C1610 C1611 1.386 . S
C1610 C1612 1.391 . S
C1611 C1610 1.386 . S
C1611 C1615 1.395 . S
C1612 H1601 0.950 . S
C1612 C1610 1.391 . S
C1612 C1613 1.400 . S
C1613 C1607 1.491 . S
C1613 C1612 1.400 . S
C1613 C1614 1.401 . S
C1614 H1602 0.949 . S
C1614 C1613 1.401 . S
C1614 C1615 1.391 . S
C1615 H1603 0.947 1_455 S
C1615 C1611 1.395 . S
C1615 C1614 1.391 . S
H1616 C1624 0.950 . S
H1617 C1629 0.950 . S
H1618 C1626 0.950 . S
H1619 C1628 0.950 . S
H1620 C1630 0.950 . S
H1621 C1632 0.950 . S
H1622 C1634 0.950 . S
H1623 C1635 0.950 . S
C1624 H1616 0.950 . S
C1624 C1625 1.396 . S
C1624 C1626 1.391 . S
C1625 C1624 1.396 . S
C1625 C1629 1.383 1_565 S
C1626 H1618 0.950 . S
C1626 C1624 1.391 . S
C1626 C1627 1.402 . S
C1627 C1626 1.402 . S
C1627 C1628 1.397 1_565 S
C1627 C1633 1.490 1_565 S
C1628 H1619 0.950 . S
C1628 C1627 1.397 1_545 S
C1628 C1629 1.391 . S
C1629 H1617 0.950 . S
C1629 C1625 1.383 1_545 S
C1629 C1628 1.391 . S
C1630 H1620 0.950 . S
C1630 C1631 1.405 . S
C1630 C1632 1.391 . S
C1631 C1630 1.405 . S
C1631 C1635 1.374 1_545 S
C1632 H1621 0.950 . S
C1632 C1630 1.391 . S
C1632 C1633 1.411 . S
C1633 C1627 1.490 1_545 S
C1633 C1632 1.411 . S
C1633 C1634 1.388 1_545 S
C1634 H1622 0.950 . S
C1634 C1633 1.388 1_565 S
C1634 C1635 1.391 . S
C1635 H1623 0.950 . S
C1635 C1631 1.374 1_565 S
C1635 C1634 1.391 . S
H1636 C1644 0.950 . S
H1637 C1649 0.950 . S
H1638 C1646 0.950 . S
H1639 C1648 0.950 . S
H1640 C1650 0.950 . S
H1641 C1652 0.950 . S
H1642 C1654 0.950 . S
H1643 C1655 0.950 . S
C1644 H1636 0.950 . S
C1644 C1645 1.386 1_655 S
C1644 C1646 1.391 . S
C1645 C1644 1.386 1_455 S
C1645 C1649 1.393 . S
C1646 H1638 0.950 . S
C1646 C1644 1.391 . S
C1646 C1647 1.400 1_655 S
C1647 C1646 1.400 1_455 S
C1647 C1648 1.398 . S
C1647 C1653 1.491 . S
C1648 H1639 0.950 . S
C1648 C1647 1.398 . S
C1648 C1649 1.391 . S
C1649 H1637 0.950 . S
C1649 C1645 1.393 . S
C1649 C1648 1.391 . S
C1650 H1640 0.950 . S
C1650 C1651 1.399 . S
C1650 C1652 1.391 . S
C1651 C1650 1.399 . S
C1651 C1655 1.380 1_455 S
C1652 H1641 0.950 . S
C1652 C1650 1.391 . S
C1652 C1653 1.400 . S
C1653 C1647 1.491 . S
C1653 C1652 1.400 . S
C1653 C1654 1.398 1_455 S
C1654 H1642 0.950 . S
C1654 C1653 1.398 1_655 S
C1654 C1655 1.391 . S
C1655 H1643 0.950 . S
C1655 C1651 1.380 1_655 S
C1655 C1654 1.391 . S
H1656 C1664 0.950 . S
H1657 C1669 0.950 . S
H1658 C1666 0.950 . S
H1659 C1668 0.950 . S
H1660 C1670 0.950 . S
H1661 C1672 0.950 . S
H1662 C1674 0.950 . S
H1663 C1675 0.950 . S
C1664 H1656 0.950 . S
C1664 C1665 1.394 . S
C1664 C1666 1.391 . S
C1665 C1664 1.394 . S
C1665 C1669 1.385 1_565 S
C1666 H1658 0.950 . S
C1666 C1664 1.391 . S
C1666 C1667 1.401 . S
C1667 C1666 1.401 . S
C1667 C1668 1.398 1_565 S
C1667 C1673 1.490 1_565 S
C1668 H1659 0.950 . S
C1668 C1667 1.398 1_545 S
C1668 C1669 1.391 . S
C1669 H1657 0.950 . S
C1669 C1665 1.385 1_545 S
C1669 C1668 1.391 . S
C1670 H1660 0.950 . S
C1670 C1671 1.404 . S
C1670 C1672 1.391 . S
C1671 C1670 1.404 . S
C1671 C1675 1.375 1_545 S
C1672 H1661 0.950 . S
C1672 C1670 1.391 . S
C1672 C1673 1.411 . S
C1673 C1667 1.490 1_545 S
C1673 C1672 1.411 . S
C1673 C1674 1.388 1_545 S
C1674 H1662 0.950 . S
C1674 C1673 1.388 1_565 S
C1674 C1675 1.391 . S
C1675 H1663 0.950 . S
C1675 C1671 1.375 1_565 S
C1675 C1674 1.391 . S
H1676 C1684 0.950 . S
H1677 C1689 0.950 . S
H1678 C1686 0.950 . S
H1679 C1688 0.950 . S
H1680 C1690 0.950 . S
H1681 C1692 0.950 . S
H1682 C1694 0.950 . S
H1683 C1695 0.950 . S
C1684 H1676 0.950 . S
C1684 C1685 1.386 1_655 S
C1684 C1686 1.391 . S
C1685 C1684 1.386 1_455 S
C1685 C1689 1.393 . S
C1686 H1678 0.950 . S
C1686 C1684 1.391 . S
C1686 C1687 1.400 1_655 S
C1687 C1686 1.400 1_455 S
C1687 C1688 1.398 . S
C1687 C1693 1.491 . S
C1688 H1679 0.950 . S
C1688 C1687 1.398 . S
C1688 C1689 1.391 . S
C1689 H1677 0.950 . S
C1689 C1685 1.393 . S
C1689 C1688 1.391 . S
C1690 H1680 0.950 . S
C1690 C1691 1.386 . S
C1690 C1692 1.391 . S
C1691 C1690 1.386 . S
C1691 C1695 1.393 1_455 S
C1692 H1681 0.950 . S
C1692 C1690 1.391 . S
C1692 C1693 1.400 . S
C1693 C1687 1.491 . S
C1693 C1692 1.400 . S
C1693 C1694 1.398 1_455 S
C1694 H1682 0.950 . S
C1694 C1693 1.398 1_655 S
C1694 C1695 1.391 . S
C1695 H1683 0.950 . S
C1695 C1691 1.393 1_655 S
C1695 C1694 1.391 . S
H1696 C1704 0.950 . S
H1697 C1709 0.950 . S
H1698 C1706 0.950 . S
H1699 C1708 0.950 . S
H1700 C1710 0.950 . S
H1701 C1712 0.950 . S
H1702 C1714 0.950 . S
H1703 C1715 0.950 . S
C1704 H1696 0.950 . S
C1704 C1705 1.382 . S
C1704 C1706 1.391 . S
C1705 C1704 1.382 . S
C1705 C1709 1.397 1_565 S
C1706 H1698 0.950 . S
C1706 C1704 1.391 . S
C1706 C1707 1.403 1_565 S
C1707 C1706 1.403 1_545 S
C1707 C1708 1.395 . S
C1707 C1713 1.491 . S
C1708 H1699 0.950 . S
C1708 C1707 1.395 . S
C1708 C1709 1.391 . S
C1709 H1697 0.950 . S
C1709 C1705 1.397 1_545 S
C1709 C1708 1.391 . S
C1710 H1700 0.950 . S
C1710 C1711 1.394 . S
C1710 C1712 1.391 . S
C1711 C1710 1.394 . S
C1711 C1715 1.384 1_545 S
C1712 H1701 0.950 . S
C1712 C1710 1.391 . S
C1712 C1713 1.406 . S
C1713 C1707 1.491 . S
C1713 C1712 1.406 . S
C1713 C1714 1.392 1_545 S
C1714 H1702 0.950 . S
C1714 C1713 1.392 1_565 S
C1714 C1715 1.391 . S
C1715 H1703 0.950 . S
C1715 C1711 1.384 1_565 S
C1715 C1714 1.391 . S
H1716 C1724 0.950 . S
H1717 C1729 0.950 . S
H1718 C1726 0.950 . S
H1719 C1728 0.950 . S
H1720 C1730 0.950 . S
H1721 C1732 0.950 . S
H1722 C1734 0.950 . S
H1723 C1735 0.950 . S
C1724 H1716 0.950 . S
C1724 C1725 1.386 1_655 S
C1724 C1726 1.391 . S
C1725 C1724 1.386 1_455 S
C1725 C1729 1.393 . S
C1726 H1718 0.950 . S
C1726 C1724 1.391 . S
C1726 C1727 1.400 1_655 S
C1727 C1726 1.400 1_455 S
C1727 C1728 1.398 . S
C1727 C1733 1.491 . S
C1728 H1719 0.950 . S
C1728 C1727 1.398 . S
C1728 C1729 1.391 . S
C1729 H1717 0.950 . S
C1729 C1725 1.393 . S
C1729 C1728 1.391 . S
C1730 H1720 0.950 . S
C1730 C1731 1.423 . S
C1730 C1732 1.391 . S
C1731 C1730 1.423 . S
C1731 C1735 1.356 1_455 S
C1732 H1721 0.950 . S
C1732 C1730 1.391 . S
C1732 C1733 1.400 . S
C1733 C1727 1.491 . S
C1733 C1732 1.400 . S
C1733 C1734 1.398 1_455 S
C1734 H1722 0.950 . S
C1734 C1733 1.398 1_655 S
C1734 C1735 1.391 . S
C1735 H1723 0.950 . S
C1735 C1731 1.356 1_655 S
C1735 C1734 1.391 . S
H1736 C1744 0.950 . S
H1737 C1749 0.950 . S
H1738 C1746 0.950 . S
H1739 C1748 0.950 . S
H1740 C1750 0.950 . S
H1741 C1752 0.950 . S
H1742 C1754 0.950 . S
H1743 C1755 0.950 . S
C1744 H1736 0.950 . S
C1744 C1745 1.370 1_545 S
C1744 C1746 1.391 . S
C1745 C1744 1.370 1_565 S
C1745 C1749 1.408 . S
C1746 H1738 0.950 . S
C1746 C1744 1.391 . S
C1746 C1747 1.396 1_545 S
C1747 C1746 1.396 1_565 S
C1747 C1748 1.403 . S
C1747 C1753 1.490 1_565 S
C1748 H1739 0.950 . S
C1748 C1747 1.403 . S
C1748 C1749 1.391 . S
C1749 H1737 0.950 . S
C1749 C1745 1.408 . S
C1749 C1748 1.391 . S
C1750 H1740 0.950 . S
C1750 C1751 1.364 1_565 S
C1750 C1752 1.391 . S
C1751 C1750 1.364 1_545 S
C1751 C1755 1.416 . S
C1752 H1741 0.950 . S
C1752 C1750 1.391 . S
C1752 C1753 1.389 1_565 S
C1753 C1747 1.490 1_545 S
C1753 C1752 1.389 1_545 S
C1753 C1754 1.410 . S
C1754 H1742 0.950 . S
C1754 C1753 1.410 . S
C1754 C1755 1.391 . S
C1755 H1743 0.950 . S
C1755 C1751 1.416 . S
C1755 C1754 1.391 . S
H1756 C1764 0.950 . S
H1757 C1769 0.950 . S
H1758 C1766 0.950 . S
H1759 C1768 0.950 . S
H1760 C1770 0.950 . S
H1761 C1772 0.950 . S
H1762 C1774 0.950 . S
H1763 C1775 0.950 . S
C1764 H1756 0.950 . S
C1764 C1765 1.380 1_655 S
C1764 C1766 1.391 . S
C1765 C1764 1.380 1_455 S
C1765 C1769 1.398 . S
C1766 H1758 0.950 . S
C1766 C1764 1.391 . S
C1766 C1767 1.400 1_655 S
C1767 C1766 1.400 1_455 S
C1767 C1768 1.398 . S
C1767 C1773 1.491 . S
C1768 H1759 0.950 . S
C1768 C1767 1.398 . S
C1768 C1769 1.391 . S
C1769 H1757 0.950 . S
C1769 C1765 1.398 . S
C1769 C1768 1.391 . S
C1770 H1760 0.950 . S
C1770 C1771 1.386 . S
C1770 C1772 1.391 . S
C1771 C1770 1.386 . S
C1771 C1775 1.393 1_455 S
C1772 H1761 0.950 . S
C1772 C1770 1.391 . S
C1772 C1773 1.400 . S
C1773 C1767 1.491 . S
C1773 C1772 1.400 . S
C1773 C1774 1.398 1_455 S
C1774 H1762 0.950 . S
C1774 C1773 1.398 1_655 S
C1774 C1775 1.391 . S
C1775 H1763 0.950 . S
C1775 C1771 1.393 1_655 S
C1775 C1774 1.391 . S
H1776 C1784 0.950 . S
H1777 C1789 0.950 . S
H1778 C1786 0.950 . S
H1779 C1788 0.950 . S
H1780 C1790 0.950 . S
H1781 C1792 0.950 . S
H1782 C1794 0.950 . S
H1783 C1795 0.950 . S
C1784 H1776 0.950 . S
C1784 C1785 1.400 . S
C1784 C1786 1.391 . S
C1785 C1784 1.400 . S
C1785 C1789 1.379 1_545 S
C1786 H1778 0.950 . S
C1786 C1784 1.391 . S
C1786 C1787 1.407 . S
C1787 C1786 1.407 . S
C1787 C1788 1.391 1_545 S
C1787 C1793 1.490 1_545 S
C1788 H1779 0.950 . S
C1788 C1787 1.391 1_565 S
C1788 C1789 1.391 . S
C1789 H1777 0.950 . S
C1789 C1785 1.379 1_565 S
C1789 C1788 1.391 . S
C1790 H1780 0.950 . S
C1790 C1791 1.392 . S
C1790 C1792 1.391 . S
C1791 C1790 1.392 . S
C1791 C1795 1.387 1_565 S
C1792 H1781 0.950 . S
C1792 C1790 1.391 . S
C1792 C1793 1.400 . S
C1793 C1787 1.490 1_565 S
C1793 C1792 1.400 . S
C1793 C1794 1.399 1_565 S
C1794 H1782 0.950 . S
C1794 C1793 1.399 1_545 S
C1794 C1795 1.391 . S
C1795 H1783 0.950 . S
C1795 C1791 1.387 1_545 S
C1795 C1794 1.391 . S
H1796 C1804 0.950 . S
H1797 C1809 0.950 . S
H1798 C1806 0.950 . S
H1799 C1808 0.950 . S
H1800 C1810 0.950 . S
H1801 C1812 0.950 . S
H1802 C1814 0.950 . S
H1803 C1815 0.950 . S
C1804 H1796 0.950 . S
C1804 C1805 1.386 . S
C1804 C1806 1.391 . S
C1805 C1804 1.386 . S
C1805 C1809 1.393 1_455 S
C1806 H1798 0.950 . S
C1806 C1804 1.391 . S
C1806 C1807 1.400 . S
C1807 C1806 1.400 . S
C1807 C1808 1.398 1_455 S
C1807 C1813 1.491 . S
C1808 H1799 0.950 . S
C1808 C1807 1.398 1_655 S
C1808 C1809 1.391 . S
C1809 H1797 0.950 . S
C1809 C1805 1.393 1_655 S
C1809 C1808 1.391 . S
C1810 H1800 0.950 . S
C1810 C1811 1.380 1_655 S
C1810 C1812 1.391 . S
C1811 C1810 1.380 1_455 S
C1811 C1815 1.399 . S
C1812 H1801 0.950 . S
C1812 C1810 1.391 . S
C1812 C1813 1.400 1_655 S
C1813 C1807 1.491 . S
C1813 C1812 1.400 1_455 S
C1813 C1814 1.398 . S
C1814 H1802 0.950 . S
C1814 C1813 1.398 . S
C1814 C1815 1.391 . S
C1815 H1803 0.950 . S
C1815 C1811 1.399 . S
C1815 C1814 1.391 . S
H1816 C1824 0.950 . S
H1817 C1829 0.950 . S
H1818 C1826 0.950 . S
H1819 C1828 0.950 . S
H1820 C1830 0.950 . S
H1821 C1832 0.950 . S
H1822 C1834 0.950 . S
H1823 C1835 0.950 . S
C1824 H1816 0.950 . S
C1824 C1825 1.399 . S
C1824 C1826 1.391 . S
C1825 C1824 1.399 . S
C1825 C1829 1.380 1_565 S
C1826 H1818 0.950 . S
C1826 C1824 1.391 . S
C1826 C1827 1.405 . S
C1827 C1826 1.405 . S
C1827 C1828 1.394 1_565 S
C1827 C1833 1.490 1_565 S
C1828 H1819 0.950 . S
C1828 C1827 1.394 1_545 S
C1828 C1829 1.391 . S
C1829 H1817 0.950 . S
C1829 C1825 1.380 1_545 S
C1829 C1828 1.391 . S
C1830 H1820 0.950 . S
C1830 C1831 1.403 . S
C1830 C1832 1.391 . S
C1831 C1830 1.403 . S
C1831 C1835 1.377 1_545 S
C1832 H1821 0.950 . S
C1832 C1830 1.391 . S
C1832 C1833 1.409 . S
C1833 C1827 1.490 1_545 S
C1833 C1832 1.409 . S
C1833 C1834 1.391 1_545 S
C1834 H1822 0.950 . S
C1834 C1833 1.391 1_565 S
C1834 C1835 1.391 . S
C1835 H1823 0.950 . S
C1835 C1831 1.377 1_565 S
C1835 C1834 1.391 . S
H1836 C1844 0.950 . S
H1837 C1849 0.950 . S
H1838 C1846 0.950 . S
H1839 C1848 0.950 . S
H1840 C1850 0.950 . S
H1841 C1852 0.950 . S
H1842 C1854 0.950 . S
H1843 C1855 0.950 . S
C1844 H1836 0.950 . S
C1844 C1845 1.386 1_655 S
C1844 C1846 1.391 . S
C1845 C1844 1.386 1_455 S
C1845 C1849 1.393 . S
C1846 H1838 0.950 . S
C1846 C1844 1.391 . S
C1846 C1847 1.400 1_655 S
C1847 C1846 1.400 1_455 S
C1847 C1848 1.398 . S
C1847 C1853 1.491 . S
C1848 H1839 0.950 . S
C1848 C1847 1.398 . S
C1848 C1849 1.391 . S
C1849 H1837 0.950 . S
C1849 C1845 1.393 . S
C1849 C1848 1.391 . S
C1850 H1840 0.950 . S
C1850 C1851 1.386 . S
C1850 C1852 1.391 . S
C1851 C1850 1.386 . S
C1851 C1855 1.393 1_455 S
C1852 H1841 0.950 . S
C1852 C1850 1.391 . S
C1852 C1853 1.400 . S
C1853 C1847 1.491 . S
C1853 C1852 1.400 . S
C1853 C1854 1.398 1_455 S
C1854 H1842 0.950 . S
C1854 C1853 1.398 1_655 S
C1854 C1855 1.391 . S
C1855 H1843 0.950 . S
C1855 C1851 1.393 1_655 S
C1855 C1854 1.391 . S
H1856 C1864 0.950 . S
H1857 C1869 0.950 . S
H1858 C1866 0.950 . S
H1859 C1868 0.950 . S
H1860 C1870 0.950 . S
H1861 C1872 0.950 . S
H1862 C1874 0.950 . S
H1863 C1875 0.950 . S
C1864 H1856 0.950 . S
C1864 C1865 1.399 . S
C1864 C1866 1.391 . S
C1865 C1864 1.399 . S
C1865 C1869 1.380 1_565 S
C1866 H1858 0.950 . S
C1866 C1864 1.391 . S
C1866 C1867 1.405 . S
C1867 C1866 1.405 . S
C1867 C1868 1.394 1_565 S
C1867 C1873 1.490 1_565 S
C1868 H1859 0.950 . S
C1868 C1867 1.394 1_545 S
C1868 C1869 1.391 . S
C1869 H1857 0.950 . S
C1869 C1865 1.380 1_545 S
C1869 C1868 1.391 . S
C1870 H1860 0.950 . S
C1870 C1871 1.404 . S
C1870 C1872 1.391 . S
C1871 C1870 1.404 . S
C1871 C1875 1.375 1_545 S
C1872 H1861 0.950 . S
C1872 C1870 1.391 . S
C1872 C1873 1.409 . S
C1873 C1867 1.490 1_545 S
C1873 C1872 1.409 . S
C1873 C1874 1.390 1_545 S
C1874 H1862 0.950 . S
C1874 C1873 1.390 1_565 S
C1874 C1875 1.391 . S
C1875 H1863 0.950 . S
C1875 C1871 1.375 1_565 S
C1875 C1874 1.391 . S
H1876 C1884 0.950 . S
H1877 C1889 0.950 . S
H1878 C1886 0.950 . S
H1879 C1888 0.950 . S
H1880 C1890 0.950 . S
H1881 C1892 0.950 . S
H1882 C1894 0.950 . S
H1883 C1895 0.950 . S
C1884 H1876 0.950 . S
C1884 C1885 1.391 . S
C1884 C1886 1.391 . S
C1885 C1884 1.391 . S
C1885 C1889 1.388 1_545 S
C1886 H1878 0.950 . S
C1886 C1884 1.391 . S
C1886 C1887 1.405 . S
C1887 C1886 1.405 . S
C1887 C1888 1.394 1_545 S
C1887 C1893 1.491 . S
C1888 H1879 0.950 . S
C1888 C1887 1.394 1_565 S
C1888 C1889 1.391 . S
C1889 H1877 0.950 . S
C1889 C1885 1.388 1_565 S
C1889 C1888 1.391 . S
C1890 H1880 0.950 . S
C1890 C1891 1.386 1_565 S
C1890 C1892 1.391 . S
C1891 C1890 1.386 1_545 S
C1891 C1895 1.392 . S
C1892 H1881 0.950 . S
C1892 C1890 1.391 . S
C1892 C1893 1.400 1_565 S
C1893 C1887 1.491 . S
C1893 C1892 1.400 1_545 S
C1893 C1894 1.399 . S
C1894 H1882 0.950 . S
C1894 C1893 1.399 . S
C1894 C1895 1.391 . S
C1895 H1883 0.950 . S
C1895 C1891 1.392 . S
C1895 C1894 1.391 . S
H1896 C1904 0.950 . S
H1897 C1909 0.950 . S
H1898 C1906 0.950 . S
H1899 C1908 0.950 . S
H1900 C1910 0.950 . S
H1901 C1912 0.950 . S
H1902 C1914 0.950 . S
H1903 C1915 0.950 . S
C1904 H1896 0.950 . S
C1904 C1905 1.386 . S
C1904 C1906 1.391 . S
C1905 C1904 1.386 . S
C1905 C1909 1.393 1_455 S
C1906 H1898 0.950 . S
C1906 C1904 1.391 . S
C1906 C1907 1.400 . S
C1907 C1906 1.400 . S
C1907 C1908 1.398 1_455 S
C1907 C1913 1.491 . S
C1908 H1899 0.950 . S
C1908 C1907 1.398 1_655 S
C1908 C1909 1.391 . S
C1909 H1897 0.950 . S
C1909 C1905 1.393 1_655 S
C1909 C1908 1.391 . S
C1910 H1900 0.950 . S
C1910 C1911 1.386 1_655 S
C1910 C1912 1.391 . S
C1911 C1910 1.386 1_455 S
C1911 C1915 1.393 . S
C1912 H1901 0.950 . S
C1912 C1910 1.391 . S
C1912 C1913 1.400 1_655 S
C1913 C1907 1.491 . S
C1913 C1912 1.400 1_455 S
C1913 C1914 1.398 . S
C1914 H1902 0.950 . S
C1914 C1913 1.398 . S
C1914 C1915 1.391 . S
C1915 H1903 0.950 . S
C1915 C1911 1.393 . S
C1915 C1914 1.391 . S
H1916 C1924 0.950 . S
H1917 C1929 0.950 . S
H1918 C1926 0.950 . S
H1919 C1928 0.950 . S
H1920 C1930 0.950 . S
H1921 C1932 0.950 . S
H1922 C1934 0.950 . S
H1923 C1935 0.950 . S
C1924 H1916 0.950 . S
C1924 C1925 1.396 . S
C1924 C1926 1.391 . S
C1925 C1924 1.396 . S
C1925 C1929 1.382 1_565 S
C1926 H1918 0.950 . S
C1926 C1924 1.391 . S
C1926 C1927 1.402 . S
C1927 C1926 1.402 . S
C1927 C1928 1.396 1_565 S
C1927 C1933 1.490 1_565 S
C1928 H1919 0.950 . S
C1928 C1927 1.396 1_545 S
C1928 C1929 1.391 . S
C1929 H1917 0.950 . S
C1929 C1925 1.382 1_545 S
C1929 C1928 1.391 . S
C1930 H1920 0.950 . S
C1930 C1931 1.406 . S
C1930 C1932 1.391 . S
C1931 C1930 1.406 . S
C1931 C1935 1.374 1_545 S
C1932 H1921 0.950 . S
C1932 C1930 1.391 . S
C1932 C1933 1.412 . S
C1933 C1927 1.490 1_545 S
C1933 C1932 1.412 . S
C1933 C1934 1.388 1_545 S
C1934 H1922 0.950 . S
C1934 C1933 1.388 1_565 S
C1934 C1935 1.391 . S
C1935 H1923 0.950 . S
C1935 C1931 1.374 1_565 S
C1935 C1934 1.391 . S
H1936 C1944 0.950 . S
H1937 C1949 0.950 . S
H1938 C1946 0.950 . S
H1939 C1948 0.950 . S
H1940 C1950 0.950 . S
H1941 C1952 0.950 . S
H1942 C1954 0.950 . S
H1943 C1955 0.950 . S
C1944 H1936 0.950 . S
C1944 C1945 1.374 1_655 S
C1944 C1946 1.391 . S
C1945 C1944 1.374 1_455 S
C1945 C1949 1.405 . S
C1946 H1938 0.950 . S
C1946 C1944 1.391 . S
C1946 C1947 1.400 1_655 S
C1947 C1946 1.400 1_455 S
C1947 C1948 1.398 . S
C1947 C1953 1.491 . S
C1948 H1939 0.950 . S
C1948 C1947 1.398 . S
C1948 C1949 1.391 . S
C1949 H1937 0.950 . S
C1949 C1945 1.405 . S
C1949 C1948 1.391 . S
C1950 H1940 0.950 . S
C1950 C1951 1.386 . S
C1950 C1952 1.391 . S
C1951 C1950 1.386 . S
C1951 C1955 1.393 1_455 S
C1952 H1941 0.950 . S
C1952 C1950 1.391 . S
C1952 C1953 1.400 . S
C1953 C1947 1.491 . S
C1953 C1952 1.400 . S
C1953 C1954 1.398 1_455 S
C1954 H1942 0.950 . S
C1954 C1953 1.398 1_655 S
C1954 C1955 1.391 . S
C1955 H1943 0.950 . S
C1955 C1951 1.393 1_655 S
C1955 C1954 1.391 . S
H1956 C1964 0.950 . S
H1957 C1969 0.950 . S
H1958 C1966 0.950 . S
H1959 C1968 0.950 . S
H1960 C1970 0.950 . S
H1961 C1972 0.950 . S
H1962 C1974 0.950 . S
H1963 C1975 0.950 . S
C1964 H1956 0.950 . S
C1964 C1965 1.405 . S
C1964 C1966 1.391 . S
C1965 C1964 1.405 . S
C1965 C1969 1.375 1_545 S
C1966 H1958 0.950 . S
C1966 C1964 1.391 . S
C1966 C1967 1.410 . S
C1967 C1966 1.410 . S
C1967 C1968 1.389 1_545 S
C1967 C1973 1.490 1_545 S
C1968 H1959 0.950 . S
C1968 C1967 1.389 1_565 S
C1968 C1969 1.391 . S
C1969 H1957 0.950 . S
C1969 C1965 1.375 1_565 S
C1969 C1968 1.391 . S
C1970 H1960 0.950 . S
C1970 C1971 1.397 . S
C1970 C1972 1.391 . S
C1971 C1970 1.397 . S
C1971 C1975 1.382 1_565 S
C1972 H1961 0.950 . S
C1972 C1970 1.391 . S
C1972 C1973 1.403 . S
C1973 C1967 1.490 1_565 S
C1973 C1972 1.403 . S
C1973 C1974 1.396 1_565 S
C1974 H1962 0.950 . S
C1974 C1973 1.396 1_545 S
C1974 C1975 1.391 . S
C1975 H1963 0.950 . S
C1975 C1971 1.382 1_545 S
C1975 C1974 1.391 . S
H1976 C1984 0.950 . S
H1977 C1989 0.950 . S
H1978 C1986 0.950 . S
H1979 C1988 0.950 . S
H1980 C1990 0.950 . S
H1981 C1992 0.950 . S
H1982 C1994 0.950 . S
H1983 C1995 0.950 . S
C1984 H1976 0.950 . S
C1984 C1985 1.386 1_655 S
C1984 C1986 1.391 . S
C1985 C1984 1.386 1_455 S
C1985 C1989 1.393 . S
C1986 H1978 0.950 . S
C1986 C1984 1.391 . S
C1986 C1987 1.400 1_655 S
C1987 C1986 1.400 1_455 S
C1987 C1988 1.398 . S
C1987 C1993 1.491 . S
C1988 H1979 0.950 . S
C1988 C1987 1.398 . S
C1988 C1989 1.391 . S
C1989 H1977 0.950 . S
C1989 C1985 1.393 . S
C1989 C1988 1.391 . S
C1990 H1980 0.950 . S
C1990 C1991 1.386 . S
C1990 C1992 1.391 . S
C1991 C1990 1.386 . S
C1991 C1995 1.393 1_455 S
C1992 H1981 0.950 . S
C1992 C1990 1.391 . S
C1992 C1993 1.400 . S
C1993 C1987 1.491 . S
C1993 C1992 1.400 . S
C1993 C1994 1.398 1_455 S
C1994 H1982 0.950 . S
C1994 C1993 1.398 1_655 S
C1994 C1995 1.391 . S
C1995 H1983 0.950 . S
C1995 C1991 1.393 1_655 S
C1995 C1994 1.391 . S
H1996 C2004 0.950 . S
H1997 C2009 0.950 . S
H1998 C2006 0.950 . S
H1999 C2008 0.950 . S
H2000 C2010 0.950 . S
H2001 C2012 0.950 . S
H2002 C2014 0.950 . S
H2003 C2015 0.950 . S
C2004 H1996 0.950 . S
C2004 C2005 1.394 . S
C2004 C2006 1.391 . S
C2005 C2004 1.394 . S
C2005 C2009 1.384 1_545 S
C2006 H1998 0.950 . S
C2006 C2004 1.391 . S
C2006 C2007 1.404 . S
C2007 C2006 1.404 . S
C2007 C2008 1.394 1_545 S
C2007 C2013 1.491 1_545 S
C2008 H1999 0.950 . S
C2008 C2007 1.394 1_565 S
C2008 C2009 1.391 . S
C2009 H1997 0.950 . S
C2009 C2005 1.384 1_565 S
C2009 C2008 1.391 . S
C2010 H2000 0.950 . S
C2010 C2011 1.390 . S
C2010 C2012 1.391 . S
C2011 C2010 1.390 . S
C2011 C2015 1.389 1_565 S
C2012 H2001 0.950 . S
C2012 C2010 1.391 . S
C2012 C2013 1.400 . S
C2013 C2007 1.491 1_565 S
C2013 C2012 1.400 . S
C2013 C2014 1.399 1_565 S
C2014 H2002 0.950 . S
C2014 C2013 1.399 1_545 S
C2014 C2015 1.391 . S
C2015 H2003 0.950 . S
C2015 C2011 1.389 1_545 S
C2015 C2014 1.391 . S
H2016 C2024 0.950 . S
H2017 C2029 0.949 . S
H2018 C2026 0.950 . S
H2019 C2028 0.952 . S
H2020 C2030 0.950 . S
H2021 C2032 0.952 . S
H2022 C2034 0.950 . S
H2023 C2035 0.950 . S
C2024 H2016 0.950 . S
C2024 C2025 1.387 . S
C2024 C2026 1.391 . S
C2025 C2024 1.387 . S
C2025 C2029 1.392 1_455 S
C2026 H2018 0.950 . S
C2026 C2024 1.391 . S
C2026 C2027 1.402 . S
C2027 C2026 1.402 . S
C2027 C2028 1.396 1_455 S
C2027 C2033 1.493 . S
C2028 H2019 0.952 . S
C2028 C2027 1.396 1_655 S
C2028 C2029 1.391 . S
C2029 H2017 0.949 . S
C2029 C2025 1.392 1_655 S
C2029 C2028 1.391 . S
C2030 H2020 0.950 . S
C2030 C2031 1.386 . S
C2030 C2032 1.391 . S
C2031 C2030 1.386 . S
C2031 C2035 1.393 . S
C2032 H2021 0.952 . S
C2032 C2030 1.391 . S
C2032 C2033 1.400 . S
C2033 C2027 1.493 . S
C2033 C2032 1.400 . S
C2033 C2034 1.398 . S
C2034 H2022 0.950 . S
C2034 C2033 1.398 . S
C2034 C2035 1.391 . S
C2035 H2023 0.950 . S
C2035 C2031 1.393 . S
C2035 C2034 1.391 . S
H2036 C2044 0.950 . S
H2037 C2049 0.950 . S
H2038 C2046 0.950 . S
H2039 C2048 0.950 . S
H2040 C2050 0.950 . S
H2041 C2052 0.950 . S
H2042 C2054 0.950 . S
H2043 C2055 0.950 . S
C2044 H2036 0.950 . S
C2044 C2045 1.403 . S
C2044 C2046 1.391 . S
C2045 C2044 1.403 . S
C2045 C2049 1.377 1_554 S
C2046 H2038 0.950 . S
C2046 C2044 1.391 . S
C2046 C2047 1.409 . S
C2047 C2046 1.409 . S
C2047 C2048 1.390 1_554 S
C2047 C2053 1.490 1_554 S
C2048 H2039 0.950 . S
C2048 C2047 1.390 1_556 S
C2048 C2049 1.391 . S
C2049 H2037 0.950 . S
C2049 C2045 1.377 1_556 S
C2049 C2048 1.391 . S
C2050 H2040 0.950 . S
C2050 C2051 1.398 . S
C2050 C2052 1.391 . S
C2051 C2050 1.398 . S
C2051 C2055 1.381 1_556 S
C2052 H2041 0.950 . S
C2052 C2050 1.391 . S
C2052 C2053 1.404 . S
C2053 C2047 1.490 1_556 S
C2053 C2052 1.404 . S
C2053 C2054 1.395 1_556 S
C2054 H2042 0.950 . S
C2054 C2053 1.395 1_554 S
C2054 C2055 1.391 . S
C2055 H2043 0.950 . S
C2055 C2051 1.381 1_554 S
C2055 C2054 1.391 . S
H2056 C2064 0.950 . S
H2057 C2069 0.950 . S
H2058 C2066 0.950 . S
H2059 C2068 0.950 . S
H2060 C2070 0.950 . S
H2061 C2072 0.950 . S
H2062 C2074 0.950 . S
H2063 C2075 0.950 . S
C2064 H2056 0.950 . S
C2064 C2065 1.398 . S
C2064 C2066 1.391 . S
C2065 C2064 1.398 . S
C2065 C2069 1.382 1_554 S
C2066 H2058 0.950 . S
C2066 C2064 1.391 . S
C2066 C2067 1.406 . S
C2067 C2066 1.406 . S
C2067 C2068 1.393 1_554 S
C2067 C2073 1.490 1_554 S
C2068 H2059 0.950 . S
C2068 C2067 1.393 1_556 S
C2068 C2069 1.391 . S
C2069 H2057 0.950 . S
C2069 C2065 1.382 1_556 S
C2069 C2068 1.391 . S
C2070 H2060 0.950 . S
C2070 C2071 1.395 . S
C2070 C2072 1.391 . S
C2071 C2070 1.395 . S
C2071 C2075 1.385 1_556 S
C2072 H2061 0.950 . S
C2072 C2070 1.391 . S
C2072 C2073 1.404 . S
C2073 C2067 1.490 1_556 S
C2073 C2072 1.404 . S
C2073 C2074 1.395 1_556 S
C2074 H2062 0.950 . S
C2074 C2073 1.395 1_554 S
C2074 C2075 1.391 . S
C2075 H2063 0.950 . S
C2075 C2071 1.385 1_554 S
C2075 C2074 1.391 . S
H2076 C2084 0.950 . S
H2077 C2089 0.950 . S
H2078 C2086 0.950 . S
H2079 C2088 0.950 . S
H2080 C2090 0.950 . S
H2081 C2092 0.950 . S
H2082 C2094 0.950 . S
H2083 C2095 0.950 . S
C2084 H2076 0.950 . S
C2084 C2085 1.401 . S
C2084 C2086 1.391 . S
C2085 C2084 1.401 . S
C2085 C2089 1.378 1_554 S
C2086 H2078 0.950 . S
C2086 C2084 1.391 . S
C2086 C2087 1.408 . S
C2087 C2086 1.408 . S
C2087 C2088 1.391 1_554 S
C2087 C2093 1.490 1_554 S
C2088 H2079 0.950 . S
C2088 C2087 1.391 1_556 S
C2088 C2089 1.391 . S
C2089 H2077 0.950 . S
C2089 C2085 1.378 1_556 S
C2089 C2088 1.391 . S
C2090 H2080 0.950 . S
C2090 C2091 1.399 . S
C2090 C2092 1.391 . S
C2091 C2090 1.399 . S
C2091 C2095 1.381 1_556 S
C2092 H2081 0.950 . S
C2092 C2090 1.391 . S
C2092 C2093 1.405 . S
C2093 C2087 1.490 1_556 S
C2093 C2092 1.405 . S
C2093 C2094 1.394 1_556 S
C2094 H2082 0.950 . S
C2094 C2093 1.394 1_554 S
C2094 C2095 1.391 . S
C2095 H2083 0.950 . S
C2095 C2091 1.381 1_554 S
C2095 C2094 1.391 . S
H2096 C2104 0.950 . S
H2097 C2109 0.950 . S
H2098 C2106 0.950 . S
H2099 C2108 0.950 . S
H2100 C2110 0.950 . S
H2101 C2112 0.950 . S
H2102 C2114 0.950 . S
H2103 C2115 0.950 . S
C2104 H2096 0.950 . S
C2104 C2105 1.377 1_554 S
C2104 C2106 1.391 . S
C2105 C2104 1.377 1_556 S
C2105 C2109 1.403 . S
C2106 H2098 0.950 . S
C2106 C2104 1.391 . S
C2106 C2107 1.397 1_554 S
C2107 C2106 1.397 1_556 S
C2107 C2108 1.402 . S
C2107 C2113 1.490 1_556 S
C2108 H2099 0.950 . S
C2108 C2107 1.402 . S
C2108 C2109 1.391 . S
C2109 H2097 0.950 . S
C2109 C2105 1.403 . S
C2109 C2108 1.391 . S
C2110 H2100 0.950 . S
C2110 C2111 1.376 1_556 S
C2110 C2112 1.391 . S
C2111 C2110 1.376 1_554 S
C2111 C2115 1.405 . S
C2112 H2101 0.950 . S
C2112 C2110 1.391 . S
C2112 C2113 1.395 1_556 S
C2113 C2107 1.490 1_554 S
C2113 C2112 1.395 1_554 S
C2113 C2114 1.405 . S
C2114 H2102 0.950 . S
C2114 C2113 1.405 . S
C2114 C2115 1.391 . S
C2115 H2103 0.950 . S
C2115 C2111 1.405 . S
C2115 C2114 1.391 . S
H2116 C2124 0.950 . S
H2117 C2129 0.950 . S
H2118 C2126 0.950 . S
H2119 C2128 0.950 . S
H2120 C2130 0.950 . S
H2121 C2132 0.950 . S
H2122 C2134 0.950 . S
H2123 C2135 0.950 . S
C2124 H2116 0.950 . S
C2124 C2125 1.397 . S
C2124 C2126 1.391 . S
C2125 C2124 1.397 . S
C2125 C2129 1.383 1_556 S
C2126 H2118 0.950 . S
C2126 C2124 1.391 . S
C2126 C2127 1.404 . S
C2127 C2126 1.404 . S
C2127 C2128 1.395 1_556 S
C2127 C2133 1.490 1_556 S
C2128 H2119 0.950 . S
C2128 C2127 1.395 1_554 S
C2128 C2129 1.391 . S
C2129 H2117 0.950 . S
C2129 C2125 1.383 1_554 S
C2129 C2128 1.391 . S
C2130 H2120 0.950 . S
C2130 C2131 1.401 . S
C2130 C2132 1.391 . S
C2131 C2130 1.401 . S
C2131 C2135 1.379 1_554 S
C2132 H2121 0.950 . S
C2132 C2130 1.391 . S
C2132 C2133 1.408 . S
C2133 C2127 1.490 1_554 S
C2133 C2132 1.408 . S
C2133 C2134 1.391 1_554 S
C2134 H2122 0.950 . S
C2134 C2133 1.391 1_556 S
C2134 C2135 1.391 . S
C2135 H2123 0.950 . S
C2135 C2131 1.379 1_556 S
C2135 C2134 1.391 . S
H2136 C2144 0.950 . S
H2137 C2149 0.950 . S
H2138 C2146 0.950 . S
H2139 C2148 0.950 . S
H2140 C2150 0.950 . S
H2141 C2152 0.950 . S
H2142 C2154 0.950 . S
H2143 C2155 0.950 . S
C2144 H2136 0.950 . S
C2144 C2145 1.366 1_556 S
C2144 C2146 1.391 . S
C2145 C2144 1.366 1_554 S
C2145 C2149 1.415 . S
C2146 H2138 0.950 . S
C2146 C2144 1.391 . S
C2146 C2147 1.390 1_556 S
C2147 C2146 1.390 1_554 S
C2147 C2148 1.409 . S
C2147 C2153 1.490 1_554 S
C2148 H2139 0.950 . S
C2148 C2147 1.409 . S
C2148 C2149 1.391 . S
C2149 H2137 0.950 . S
C2149 C2145 1.415 . S
C2149 C2148 1.391 . S
C2150 H2140 0.950 . S
C2150 C2151 1.370 1_554 S
C2150 C2152 1.391 . S
C2151 C2150 1.370 1_556 S
C2151 C2155 1.409 . S
C2152 H2141 0.950 . S
C2152 C2150 1.391 . S
C2152 C2153 1.395 1_554 S
C2153 C2147 1.490 1_556 S
C2153 C2152 1.395 1_556 S
C2153 C2154 1.404 . S
C2154 H2142 0.950 . S
C2154 C2153 1.404 . S
C2154 C2155 1.391 . S
C2155 H2143 0.950 . S
C2155 C2151 1.409 . S
C2155 C2154 1.391 . S
H2156 C2164 0.950 . S
H2157 C2169 0.950 . S
H2158 C2166 0.950 . S
H2159 C2168 0.950 . S
H2160 C2170 0.950 . S
H2161 C2172 0.950 . S
H2162 C2174 0.950 . S
H2163 C2175 0.950 . S
C2164 H2156 0.950 . S
C2164 C2165 1.392 . S
C2164 C2166 1.391 . S
C2165 C2164 1.392 . S
C2165 C2169 1.386 1_556 S
C2166 H2158 0.950 . S
C2166 C2164 1.391 . S
C2166 C2167 1.399 . S
C2167 C2166 1.399 . S
C2167 C2168 1.399 1_556 S
C2167 C2173 1.490 1_556 S
C2168 H2159 0.950 . S
C2168 C2167 1.399 1_554 S
C2168 C2169 1.391 . S
C2169 H2157 0.950 . S
C2169 C2165 1.386 1_554 S
C2169 C2168 1.391 . S
C2170 H2160 0.950 . S
C2170 C2171 1.404 . S
C2170 C2172 1.391 . S
C2171 C2170 1.404 . S
C2171 C2175 1.375 1_554 S
C2172 H2161 0.950 . S
C2172 C2170 1.391 . S
C2172 C2173 1.411 . S
C2173 C2167 1.490 1_554 S
C2173 C2172 1.411 . S
C2173 C2174 1.388 1_554 S
C2174 H2162 0.950 . S
C2174 C2173 1.388 1_556 S
C2174 C2175 1.391 . S
C2175 H2163 0.950 . S
C2175 C2171 1.375 1_556 S
C2175 C2174 1.391 . S
H2176 C2184 0.950 . S
H2177 C2189 0.950 . S
H2178 C2186 0.950 . S
H2179 C2188 0.950 . S
H2180 C2190 0.950 . S
H2181 C2192 0.950 . S
H2182 C2194 0.950 . S
H2183 C2195 0.950 . S
C2184 H2176 0.950 . S
C2184 C2185 1.397 . S
C2184 C2186 1.391 . S
C2185 C2184 1.397 . S
C2185 C2189 1.383 1_554 S
C2186 H2178 0.950 . S
C2186 C2184 1.391 . S
C2186 C2187 1.406 . S
C2187 C2186 1.406 . S
C2187 C2188 1.394 1_554 S
C2187 C2193 1.490 1_554 S
C2188 H2179 0.950 . S
C2188 C2187 1.394 1_556 S
C2188 C2189 1.391 . S
C2189 H2177 0.950 . S
C2189 C2185 1.383 1_556 S
C2189 C2188 1.391 . S
C2190 H2180 0.950 . S
C2190 C2191 1.396 . S
C2190 C2192 1.391 . S
C2191 C2190 1.396 . S
C2191 C2195 1.384 1_556 S
C2192 H2181 0.950 . S
C2192 C2190 1.391 . S
C2192 C2193 1.404 . S
C2193 C2187 1.490 1_556 S
C2193 C2192 1.404 . S
C2193 C2194 1.395 1_556 S
C2194 H2182 0.950 . S
C2194 C2193 1.395 1_554 S
C2194 C2195 1.391 . S
C2195 H2183 0.950 . S
C2195 C2191 1.384 1_554 S
C2195 C2194 1.391 . S
H2196 C2204 0.950 . S
H2197 C2209 0.950 . S
H2198 C2206 0.950 . S
H2199 C2208 0.950 . S
H2200 C2210 0.950 . S
H2201 C2212 0.950 . S
H2202 C2214 0.950 . S
H2203 C2215 0.950 . S
C2204 H2196 0.950 . S
C2204 C2205 1.386 . S
C2204 C2206 1.391 . S
C2205 C2204 1.386 . S
C2205 C2209 1.393 . S
C2206 H2198 0.950 . S
C2206 C2204 1.391 . S
C2206 C2207 1.400 . S
C2207 C2206 1.400 . S
C2207 C2208 1.398 . S
C2207 C2213 1.491 . S
C2208 H2199 0.950 . S
C2208 C2207 1.398 . S
C2208 C2209 1.391 . S
C2209 H2197 0.950 . S
C2209 C2205 1.393 . S
C2209 C2208 1.391 . S
C2210 H2200 0.950 . S
C2210 C2211 1.386 . S
C2210 C2212 1.391 . S
C2211 C2210 1.386 . S
C2211 C2215 1.393 . S
C2212 H2201 0.950 . S
C2212 C2210 1.391 . S
C2212 C2213 1.400 . S
C2213 C2207 1.491 . S
C2213 C2212 1.400 . S
C2213 C2214 1.398 . S
C2214 H2202 0.950 . S
C2214 C2213 1.398 . S
C2214 C2215 1.391 . S
C2215 H2203 0.950 . S
C2215 C2211 1.393 . S
C2215 C2214 1.391 . S
H2216 C2224 0.950 . S
H2217 C2229 0.950 . S
H2218 C2226 0.950 . S
H2219 C2228 0.950 . S
H2220 C2230 0.950 . S
H2221 C2232 0.950 . S
H2222 C2234 0.950 . S
H2223 C2235 0.950 . S
C2224 H2216 0.950 . S
C2224 C2225 1.386 . S
C2224 C2226 1.391 . S
C2225 C2224 1.386 . S
C2225 C2229 1.393 . S
C2226 H2218 0.950 . S
C2226 C2224 1.391 . S
C2226 C2227 1.400 . S
C2227 C2226 1.400 . S
C2227 C2228 1.398 . S
C2227 C2233 1.491 . S
C2228 H2219 0.950 . S
C2228 C2227 1.398 . S
C2228 C2229 1.391 . S
C2229 H2217 0.950 . S
C2229 C2225 1.393 . S
C2229 C2228 1.391 . S
C2230 H2220 0.950 . S
C2230 C2231 1.386 . S
C2230 C2232 1.391 . S
C2231 C2230 1.386 . S
C2231 C2235 1.393 . S
C2232 H2221 0.950 . S
C2232 C2230 1.391 . S
C2232 C2233 1.400 . S
C2233 C2227 1.491 . S
C2233 C2232 1.400 . S
C2233 C2234 1.398 . S
C2234 H2222 0.950 . S
C2234 C2233 1.398 . S
C2234 C2235 1.391 . S
C2235 H2223 0.950 . S
C2235 C2231 1.393 . S
C2235 C2234 1.391 . S
H2236 C2244 0.950 . S
H2237 C2249 0.950 . S
H2238 C2246 0.950 . S
H2239 C2248 0.950 . S
H2240 C2250 0.950 . S
H2241 C2252 0.950 . S
H2242 C2254 0.950 . S
H2243 C2255 0.950 . S
C2244 H2236 0.950 . S
C2244 C2245 1.386 . S
C2244 C2246 1.391 . S
C2245 C2244 1.386 . S
C2245 C2249 1.393 . S
C2246 H2238 0.950 . S
C2246 C2244 1.391 . S
C2246 C2247 1.400 . S
C2247 C2246 1.400 . S
C2247 C2248 1.398 . S
C2247 C2253 1.491 . S
C2248 H2239 0.950 . S
C2248 C2247 1.398 . S
C2248 C2249 1.391 . S
C2249 H2237 0.950 . S
C2249 C2245 1.393 . S
C2249 C2248 1.391 . S
C2250 H2240 0.950 . S
C2250 C2251 1.386 . S
C2250 C2252 1.391 . S
C2251 C2250 1.386 . S
C2251 C2255 1.393 . S
C2252 H2241 0.950 . S
C2252 C2250 1.391 . S
C2252 C2253 1.400 . S
C2253 C2247 1.491 . S
C2253 C2252 1.400 . S
C2253 C2254 1.398 . S
C2254 H2242 0.950 . S
C2254 C2253 1.398 . S
C2254 C2255 1.391 . S
C2255 H2243 0.950 . S
C2255 C2251 1.393 . S
C2255 C2254 1.391 . S
H2256 C2264 0.950 . S
H2257 C2269 0.950 . S
H2258 C2266 0.950 . S
H2259 C2268 0.950 . S
H2260 C2270 0.950 . S
H2261 C2272 0.950 . S
H2262 C2274 0.950 . S
H2263 C2275 0.950 . S
C2264 H2256 0.950 . S
C2264 C2265 1.386 . S
C2264 C2266 1.391 . S
C2265 C2264 1.386 . S
C2265 C2269 1.393 . S
C2266 H2258 0.950 . S
C2266 C2264 1.391 . S
C2266 C2267 1.400 . S
C2267 C2266 1.400 . S
C2267 C2268 1.398 . S
C2267 C2273 1.491 . S
C2268 H2259 0.950 . S
C2268 C2267 1.398 . S
C2268 C2269 1.391 . S
C2269 H2257 0.950 . S
C2269 C2265 1.393 . S
C2269 C2268 1.391 . S
C2270 H2260 0.950 . S
C2270 C2271 1.386 . S
C2270 C2272 1.391 . S
C2271 C2270 1.386 . S
C2271 C2275 1.393 . S
C2272 H2261 0.950 . S
C2272 C2270 1.391 . S
C2272 C2273 1.400 . S
C2273 C2267 1.491 . S
C2273 C2272 1.400 . S
C2273 C2274 1.398 . S
C2274 H2262 0.950 . S
C2274 C2273 1.398 . S
C2274 C2275 1.391 . S
C2275 H2263 0.950 . S
C2275 C2271 1.393 . S
C2275 C2274 1.391 . S
H2276 C2284 0.950 . S
H2277 C2289 0.950 . S
H2278 C2286 0.950 . S
H2279 C2288 0.950 . S
H2280 C2290 0.950 . S
H2281 C2292 0.950 . S
H2282 C2294 0.950 . S
H2283 C2295 0.950 . S
C2284 H2276 0.950 . S
C2284 C2285 1.386 . S
C2284 C2286 1.391 . S
C2285 C2284 1.386 . S
C2285 C2289 1.393 . S
C2286 H2278 0.950 . S
C2286 C2284 1.391 . S
C2286 C2287 1.400 . S
C2287 C2286 1.400 . S
C2287 C2288 1.398 . S
C2287 C2293 1.491 . S
C2288 H2279 0.950 . S
C2288 C2287 1.398 . S
C2288 C2289 1.391 . S
C2289 H2277 0.950 . S
C2289 C2285 1.393 . S
C2289 C2288 1.391 . S
C2290 H2280 0.950 . S
C2290 C2291 1.386 . S
C2290 C2292 1.391 . S
C2291 C2290 1.386 . S
C2291 C2295 1.393 . S
C2292 H2281 0.950 . S
C2292 C2290 1.391 . S
C2292 C2293 1.400 . S
C2293 C2287 1.491 . S
C2293 C2292 1.400 . S
C2293 C2294 1.398 . S
C2294 H2282 0.950 . S
C2294 C2293 1.398 . S
C2294 C2295 1.391 . S
C2295 H2283 0.950 . S
C2295 C2291 1.393 . S
C2295 C2294 1.391 . S
H2296 C2304 0.950 . S
H2297 C2309 0.950 . S
H2298 C2306 0.950 . S
H2299 C2308 0.950 . S
H2300 C2310 0.950 . S
H2301 C2312 0.950 . S
H2302 C2314 0.950 . S
H2303 C2315 0.950 . S
C2304 H2296 0.950 . S
C2304 C2305 1.386 . S
C2304 C2306 1.391 . S
C2305 C2304 1.386 . S
C2305 C2309 1.393 . S
C2306 H2298 0.950 . S
C2306 C2304 1.391 . S
C2306 C2307 1.400 . S
C2307 C2306 1.400 . S
C2307 C2308 1.398 . S
C2307 C2313 1.491 . S
C2308 H2299 0.950 . S
C2308 C2307 1.398 . S
C2308 C2309 1.391 . S
C2309 H2297 0.950 . S
C2309 C2305 1.393 . S
C2309 C2308 1.391 . S
C2310 H2300 0.950 . S
C2310 C2311 1.386 . S
C2310 C2312 1.391 . S
C2311 C2310 1.386 . S
C2311 C2315 1.393 . S
C2312 H2301 0.950 . S
C2312 C2310 1.391 . S
C2312 C2313 1.400 . S
C2313 C2307 1.491 . S
C2313 C2312 1.400 . S
C2313 C2314 1.398 . S
C2314 H2302 0.950 . S
C2314 C2313 1.398 . S
C2314 C2315 1.391 . S
C2315 H2303 0.950 . S
C2315 C2311 1.393 . S
C2315 C2314 1.391 . S
H2316 C2324 0.950 . S
H2317 C2329 0.950 . S
H2318 C2326 0.950 . S
H2319 C2328 0.950 . S
H2320 C2330 0.950 . S
H2321 C2332 0.950 . S
H2322 C2334 0.950 . S
H2323 C2335 0.950 . S
C2324 H2316 0.950 . S
C2324 C2325 1.386 . S
C2324 C2326 1.391 . S
C2325 C2324 1.386 . S
C2325 C2329 1.393 . S
C2326 H2318 0.950 . S
C2326 C2324 1.391 . S
C2326 C2327 1.400 . S
C2327 C2326 1.400 . S
C2327 C2328 1.398 . S
C2327 C2333 1.491 . S
C2328 H2319 0.950 . S
C2328 C2327 1.398 . S
C2328 C2329 1.391 . S
C2329 H2317 0.950 . S
C2329 C2325 1.393 . S
C2329 C2328 1.391 . S
C2330 H2320 0.950 . S
C2330 C2331 1.386 . S
C2330 C2332 1.391 . S
C2331 C2330 1.386 . S
C2331 C2335 1.393 . S
C2332 H2321 0.950 . S
C2332 C2330 1.391 . S
C2332 C2333 1.400 . S
C2333 C2327 1.491 . S
C2333 C2332 1.400 . S
C2333 C2334 1.398 . S
C2334 H2322 0.950 . S
C2334 C2333 1.398 . S
C2334 C2335 1.391 . S
C2335 H2323 0.950 . S
C2335 C2331 1.393 . S
C2335 C2334 1.391 . S
H2336 C2344 0.950 . S
H2337 C2349 0.950 . S
H2338 C2346 0.950 . S
H2339 C2348 0.950 . S
H2340 C2350 0.950 . S
H2341 C2352 0.950 . S
H2342 C2354 0.950 . S
H2343 C2355 0.950 . S
C2344 H2336 0.950 . S
C2344 C2345 1.386 . S
C2344 C2346 1.391 . S
C2345 C2344 1.386 . S
C2345 C2349 1.393 . S
C2346 H2338 0.950 . S
C2346 C2344 1.391 . S
C2346 C2347 1.400 . S
C2347 C2346 1.400 . S
C2347 C2348 1.398 . S
C2347 C2353 1.491 . S
C2348 H2339 0.950 . S
C2348 C2347 1.398 . S
C2348 C2349 1.391 . S
C2349 H2337 0.950 . S
C2349 C2345 1.393 . S
C2349 C2348 1.391 . S
C2350 H2340 0.950 . S
C2350 C2351 1.386 . S
C2350 C2352 1.391 . S
C2351 C2350 1.386 . S
C2351 C2355 1.393 . S
C2352 H2341 0.950 . S
C2352 C2350 1.391 . S
C2352 C2353 1.400 . S
C2353 C2347 1.491 . S
C2353 C2352 1.400 . S
C2353 C2354 1.398 . S
C2354 H2342 0.950 . S
C2354 C2353 1.398 . S
C2354 C2355 1.391 . S
C2355 H2343 0.950 . S
C2355 C2351 1.393 . S
C2355 C2354 1.391 . S
H2356 C2364 0.950 . S
H2357 C2369 0.950 . S
H2358 C2366 0.950 . S
H2359 C2368 0.950 . S
H2360 C2370 0.950 . S
H2361 C2372 0.950 . S
H2362 C2374 0.950 . S
H2363 C2375 0.950 . S
C2364 H2356 0.950 . S
C2364 C2365 1.386 . S
C2364 C2366 1.391 . S
C2365 C2364 1.386 . S
C2365 C2369 1.393 . S
C2366 H2358 0.950 . S
C2366 C2364 1.391 . S
C2366 C2367 1.400 . S
C2367 C2366 1.400 . S
C2367 C2368 1.398 . S
C2367 C2373 1.491 . S
C2368 H2359 0.950 . S
C2368 C2367 1.398 . S
C2368 C2369 1.391 . S
C2369 H2357 0.950 . S
C2369 C2365 1.393 . S
C2369 C2368 1.391 . S
C2370 H2360 0.950 . S
C2370 C2371 1.386 . S
C2370 C2372 1.391 . S
C2371 C2370 1.386 . S
C2371 C2375 1.393 . S
C2372 H2361 0.950 . S
C2372 C2370 1.391 . S
C2372 C2373 1.400 . S
C2373 C2367 1.491 . S
C2373 C2372 1.400 . S
C2373 C2374 1.398 . S
C2374 H2362 0.950 . S
C2374 C2373 1.398 . S
C2374 C2375 1.391 . S
C2375 H2363 0.950 . S
C2375 C2371 1.393 . S
C2375 C2374 1.391 . S
H2376 C2384 0.950 . S
H2377 C2389 0.950 . S
H2378 C2386 0.950 . S
H2379 C2388 0.950 . S
H2380 C2390 0.950 . S
H2381 C2392 0.950 . S
H2382 C2394 0.950 . S
H2383 C2395 0.950 . S
C2384 H2376 0.950 . S
C2384 C2385 1.386 . S
C2384 C2386 1.391 . S
C2385 C2384 1.386 . S
C2385 C2389 1.393 . S
C2386 H2378 0.950 . S
C2386 C2384 1.391 . S
C2386 C2387 1.400 . S
C2387 C2386 1.400 . S
C2387 C2388 1.398 . S
C2387 C2393 1.491 . S
C2388 H2379 0.950 . S
C2388 C2387 1.398 . S
C2388 C2389 1.391 . S
C2389 H2377 0.950 . S
C2389 C2385 1.393 . S
C2389 C2388 1.391 . S
C2390 H2380 0.950 . S
C2390 C2391 1.386 . S
C2390 C2392 1.391 . S
C2391 C2390 1.386 . S
C2391 C2395 1.393 . S
C2392 H2381 0.950 . S
C2392 C2390 1.391 . S
C2392 C2393 1.400 . S
C2393 C2387 1.491 . S
C2393 C2392 1.400 . S
C2393 C2394 1.398 . S
C2394 H2382 0.950 . S
C2394 C2393 1.398 . S
C2394 C2395 1.391 . S
C2395 H2383 0.950 . S
C2395 C2391 1.393 . S
C2395 C2394 1.391 . S
H2396 C2404 0.950 . S
H2397 C2409 0.950 . S
H2398 C2406 0.950 . S
H2399 C2408 0.950 . S
H2400 C2410 0.950 . S
H2401 C2412 0.950 . S
H2402 C2414 0.950 . S
H2403 C2415 0.950 . S
C2404 H2396 0.950 . S
C2404 C2405 1.386 . S
C2404 C2406 1.391 . S
C2405 C2404 1.386 . S
C2405 C2409 1.393 . S
C2406 H2398 0.950 . S
C2406 C2404 1.391 . S
C2406 C2407 1.400 . S
C2407 C2406 1.400 . S
C2407 C2408 1.398 . S
C2407 C2413 1.491 . S
C2408 H2399 0.950 . S
C2408 C2407 1.398 . S
C2408 C2409 1.391 . S
C2409 H2397 0.950 . S
C2409 C2405 1.393 . S
C2409 C2408 1.391 . S
C2410 H2400 0.950 . S
C2410 C2411 1.386 . S
C2410 C2412 1.391 . S
C2411 C2410 1.386 . S
C2411 C2415 1.393 . S
C2412 H2401 0.950 . S
C2412 C2410 1.391 . S
C2412 C2413 1.400 . S
C2413 C2407 1.491 . S
C2413 C2412 1.400 . S
C2413 C2414 1.398 . S
C2414 H2402 0.950 . S
C2414 C2413 1.398 . S
C2414 C2415 1.391 . S
C2415 H2403 0.950 . S
C2415 C2411 1.393 . S
C2415 C2414 1.391 . S
H2416 C2424 0.950 . S
H2417 C2429 0.950 . S
H2418 C2426 0.950 . S
H2419 C2428 0.950 . S
H2420 C2430 0.950 . S
H2421 C2432 0.950 . S
H2422 C2434 0.950 . S
H2423 C2435 0.950 . S
C2424 H2416 0.950 . S
C2424 C2425 1.386 . S
C2424 C2426 1.391 . S
C2425 C2424 1.386 . S
C2425 C2429 1.393 . S
C2426 H2418 0.950 . S
C2426 C2424 1.391 . S
C2426 C2427 1.400 . S
C2427 C2426 1.400 . S
C2427 C2428 1.398 . S
C2427 C2433 1.491 . S
C2428 H2419 0.950 . S
C2428 C2427 1.398 . S
C2428 C2429 1.391 . S
C2429 H2417 0.950 . S
C2429 C2425 1.393 . S
C2429 C2428 1.391 . S
C2430 H2420 0.950 . S
C2430 C2431 1.386 . S
C2430 C2432 1.391 . S
C2431 C2430 1.386 . S
C2431 C2435 1.393 . S
C2432 H2421 0.950 . S
C2432 C2430 1.391 . S
C2432 C2433 1.400 . S
C2433 C2427 1.491 . S
C2433 C2432 1.400 . S
C2433 C2434 1.398 . S
C2434 H2422 0.950 . S
C2434 C2433 1.398 . S
C2434 C2435 1.391 . S
C2435 H2423 0.950 . S
C2435 C2431 1.393 . S
C2435 C2434 1.391 . S
H2436 C2444 0.950 . S
H2437 C2449 0.950 . S
H2438 C2446 0.950 . S
H2439 C2448 0.950 . S
H2440 C2450 0.950 . S
H2441 C2452 0.950 . S
H2442 C2454 0.950 . S
H2443 C2455 0.950 . S
C2444 H2436 0.950 . S
C2444 C2445 1.386 . S
C2444 C2446 1.391 . S
C2445 C2444 1.386 . S
C2445 C2449 1.393 . S
C2446 H2438 0.950 . S
C2446 C2444 1.391 . S
C2446 C2447 1.400 . S
C2447 C2446 1.400 . S
C2447 C2448 1.398 . S
C2447 C2453 1.491 . S
C2448 H2439 0.950 . S
C2448 C2447 1.398 . S
C2448 C2449 1.391 . S
C2449 H2437 0.950 . S
C2449 C2445 1.393 . S
C2449 C2448 1.391 . S
C2450 H2440 0.950 . S
C2450 C2451 1.386 . S
C2450 C2452 1.391 . S
C2451 C2450 1.386 . S
C2451 C2455 1.393 . S
C2452 H2441 0.950 . S
C2452 C2450 1.391 . S
C2452 C2453 1.400 . S
C2453 C2447 1.491 . S
C2453 C2452 1.400 . S
C2453 C2454 1.398 . S
C2454 H2442 0.950 . S
C2454 C2453 1.398 . S
C2454 C2455 1.391 . S
C2455 H2443 0.950 . S
C2455 C2451 1.393 . S
C2455 C2454 1.391 . S
H2456 C2464 0.950 . S
H2457 C2469 0.950 . S
H2458 C2466 0.950 . S
H2459 C2468 0.950 . S
H2460 C2470 0.950 . S
H2461 C2472 0.950 . S
H2462 C2474 0.950 . S
H2463 C2475 0.950 . S
C2464 H2456 0.950 . S
C2464 C2465 1.386 . S
C2464 C2466 1.391 . S
C2465 C2464 1.386 . S
C2465 C2469 1.393 . S
C2466 H2458 0.950 . S
C2466 C2464 1.391 . S
C2466 C2467 1.400 . S
C2467 C2466 1.400 . S
C2467 C2468 1.398 . S
C2467 C2473 1.491 . S
C2468 H2459 0.950 . S
C2468 C2467 1.398 . S
C2468 C2469 1.391 . S
C2469 H2457 0.950 . S
C2469 C2465 1.393 . S
C2469 C2468 1.391 . S
C2470 H2460 0.950 . S
C2470 C2471 1.386 . S
C2470 C2472 1.391 . S
C2471 C2470 1.386 . S
C2471 C2475 1.393 . S
C2472 H2461 0.950 . S
C2472 C2470 1.391 . S
C2472 C2473 1.400 . S
C2473 C2467 1.491 . S
C2473 C2472 1.400 . S
C2473 C2474 1.398 . S
C2474 H2462 0.950 . S
C2474 C2473 1.398 . S
C2474 C2475 1.391 . S
C2475 H2463 0.950 . S
C2475 C2471 1.393 . S
C2475 C2474 1.391 . S
H2476 C2484 0.950 . S
H2477 C2489 0.950 . S
H2478 C2486 0.950 . S
H2479 C2488 0.950 . S
H2480 C2490 0.950 . S
H2481 C2492 0.950 . S
H2482 C2494 0.950 . S
H2483 C2495 0.950 . S
C2484 H2476 0.950 . S
C2484 C2485 1.386 . S
C2484 C2486 1.391 . S
C2485 C2484 1.386 . S
C2485 C2489 1.393 . S
C2486 H2478 0.950 . S
C2486 C2484 1.391 . S
C2486 C2487 1.400 . S
C2487 C2486 1.400 . S
C2487 C2488 1.398 . S
C2487 C2493 1.491 . S
C2488 H2479 0.950 . S
C2488 C2487 1.398 . S
C2488 C2489 1.391 . S
C2489 H2477 0.950 . S
C2489 C2485 1.393 . S
C2489 C2488 1.391 . S
C2490 H2480 0.950 . S
C2490 C2491 1.386 . S
C2490 C2492 1.391 . S
C2491 C2490 1.386 . S
C2491 C2495 1.393 . S
C2492 H2481 0.950 . S
C2492 C2490 1.391 . S
C2492 C2493 1.400 . S
C2493 C2487 1.491 . S
C2493 C2492 1.400 . S
C2493 C2494 1.398 . S
C2494 H2482 0.950 . S
C2494 C2493 1.398 . S
C2494 C2495 1.391 . S
C2495 H2483 0.950 . S
C2495 C2491 1.393 . S
C2495 C2494 1.391 . S
H2496 C2504 0.950 . S
H2497 C2509 0.950 . S
H2498 C2506 0.950 . S
H2499 C2508 0.950 . S
H2500 C2510 0.950 . S
H2501 C2512 0.950 . S
H2502 C2514 0.950 . S
H2503 C2515 0.950 . S
C2504 H2496 0.950 . S
C2504 C2505 1.386 . S
C2504 C2506 1.391 . S
C2505 C2504 1.386 . S
C2505 C2509 1.393 . S
C2506 H2498 0.950 . S
C2506 C2504 1.391 . S
C2506 C2507 1.400 . S
C2507 C2506 1.400 . S
C2507 C2508 1.398 . S
C2507 C2513 1.491 . S
C2508 H2499 0.950 . S
C2508 C2507 1.398 . S
C2508 C2509 1.391 . S
C2509 H2497 0.950 . S
C2509 C2505 1.393 . S
C2509 C2508 1.391 . S
C2510 H2500 0.950 . S
C2510 C2511 1.386 . S
C2510 C2512 1.391 . S
C2511 C2510 1.386 . S
C2511 C2515 1.393 . S
C2512 H2501 0.950 . S
C2512 C2510 1.391 . S
C2512 C2513 1.400 . S
C2513 C2507 1.491 . S
C2513 C2512 1.400 . S
C2513 C2514 1.398 . S
C2514 H2502 0.950 . S
C2514 C2513 1.398 . S
C2514 C2515 1.391 . S
C2515 H2503 0.950 . S
C2515 C2511 1.393 . S
C2515 C2514 1.391 . S
H2516 C2524 0.950 . S
H2517 C2529 0.950 . S
H2518 C2526 0.950 . S
H2519 C2528 0.950 . S
H2520 C2530 0.950 . S
H2521 C2532 0.950 . S
H2522 C2534 0.950 . S
H2523 C2535 0.950 . S
C2524 H2516 0.950 . S
C2524 C2525 1.386 . S
C2524 C2526 1.391 . S
C2525 C2524 1.386 . S
C2525 C2529 1.393 . S
C2526 H2518 0.950 . S
C2526 C2524 1.391 . S
C2526 C2527 1.400 . S
C2527 C2526 1.400 . S
C2527 C2528 1.398 . S
C2527 C2533 1.491 . S
C2528 H2519 0.950 . S
C2528 C2527 1.398 . S
C2528 C2529 1.391 . S
C2529 H2517 0.950 . S
C2529 C2525 1.393 . S
C2529 C2528 1.391 . S
C2530 H2520 0.950 . S
C2530 C2531 1.386 . S
C2530 C2532 1.391 . S
C2531 C2530 1.386 . S
C2531 C2535 1.393 . S
C2532 H2521 0.950 . S
C2532 C2530 1.391 . S
C2532 C2533 1.400 . S
C2533 C2527 1.491 . S
C2533 C2532 1.400 . S
C2533 C2534 1.398 . S
C2534 H2522 0.950 . S
C2534 C2533 1.398 . S
C2534 C2535 1.391 . S
C2535 H2523 0.950 . S
C2535 C2531 1.393 . S
C2535 C2534 1.391 . S
H2536 C2544 0.950 . S
H2537 C2549 0.950 . S
H2538 C2546 0.950 . S
H2539 C2548 0.950 . S
H2540 C2550 0.950 . S
H2541 C2552 0.950 . S
H2542 C2554 0.950 . S
H2543 C2555 0.950 . S
C2544 H2536 0.950 . S
C2544 C2545 1.386 . S
C2544 C2546 1.391 . S
C2545 C2544 1.386 . S
C2545 C2549 1.393 . S
C2546 H2538 0.950 . S
C2546 C2544 1.391 . S
C2546 C2547 1.400 . S
C2547 C2546 1.400 . S
C2547 C2548 1.398 . S
C2547 C2553 1.491 . S
C2548 H2539 0.950 . S
C2548 C2547 1.398 . S
C2548 C2549 1.391 . S
C2549 H2537 0.950 . S
C2549 C2545 1.393 . S
C2549 C2548 1.391 . S
C2550 H2540 0.950 . S
C2550 C2551 1.386 . S
C2550 C2552 1.391 . S
C2551 C2550 1.386 . S
C2551 C2555 1.393 . S
C2552 H2541 0.950 . S
C2552 C2550 1.391 . S
C2552 C2553 1.400 . S
C2553 C2547 1.491 . S
C2553 C2552 1.400 . S
C2553 C2554 1.398 . S
C2554 H2542 0.950 . S
C2554 C2553 1.398 . S
C2554 C2555 1.391 . S
C2555 H2543 0.950 . S
C2555 C2551 1.393 . S
C2555 C2554 1.391 . S
H2556 C2564 0.950 . S
H2557 C2569 0.950 . S
H2558 C2566 0.950 . S
H2559 C2568 0.950 . S
H2560 C2570 0.950 . S
H2561 C2572 0.950 . S
H2562 C2574 0.950 . S
H2563 C2575 0.950 . S
C2564 H2556 0.950 . S
C2564 C2565 1.386 . S
C2564 C2566 1.391 . S
C2565 C2564 1.386 . S
C2565 C2569 1.393 . S
C2566 H2558 0.950 . S
C2566 C2564 1.391 . S
C2566 C2567 1.400 . S
C2567 C2566 1.400 . S
C2567 C2568 1.398 . S
C2567 C2573 1.491 . S
C2568 H2559 0.950 . S
C2568 C2567 1.398 . S
C2568 C2569 1.391 . S
C2569 H2557 0.950 . S
C2569 C2565 1.393 . S
C2569 C2568 1.391 . S
C2570 H2560 0.950 . S
C2570 C2571 1.386 . S
C2570 C2572 1.391 . S
C2571 C2570 1.386 . S
C2571 C2575 1.393 . S
C2572 H2561 0.950 . S
C2572 C2570 1.391 . S
C2572 C2573 1.400 . S
C2573 C2567 1.491 . S
C2573 C2572 1.400 . S
C2573 C2574 1.398 . S
C2574 H2562 0.950 . S
C2574 C2573 1.398 . S
C2574 C2575 1.391 . S
C2575 H2563 0.950 . S
C2575 C2571 1.393 . S
C2575 C2574 1.391 . S
H2576 C2584 0.950 . S
H2577 C2589 0.950 . S
H2578 C2586 0.950 . S
H2579 C2588 0.950 . S
H2580 C2590 0.950 . S
H2581 C2592 0.950 . S
H2582 C2594 0.950 . S
H2583 C2595 0.950 . S
C2584 H2576 0.950 . S
C2584 C2585 1.386 . S
C2584 C2586 1.391 . S
C2585 C2584 1.386 . S
C2585 C2589 1.393 . S
C2586 H2578 0.950 . S
C2586 C2584 1.391 . S
C2586 C2587 1.400 . S
C2587 C2586 1.400 . S
C2587 C2588 1.398 . S
C2587 C2593 1.491 . S
C2588 H2579 0.950 . S
C2588 C2587 1.398 . S
C2588 C2589 1.391 . S
C2589 H2577 0.950 . S
C2589 C2585 1.393 . S
C2589 C2588 1.391 . S
C2590 H2580 0.950 . S
C2590 C2591 1.386 . S
C2590 C2592 1.391 . S
C2591 C2590 1.386 . S
C2591 C2595 1.393 . S
C2592 H2581 0.950 . S
C2592 C2590 1.391 . S
C2592 C2593 1.400 . S
C2593 C2587 1.491 . S
C2593 C2592 1.400 . S
C2593 C2594 1.398 . S
C2594 H2582 0.950 . S
C2594 C2593 1.398 . S
C2594 C2595 1.391 . S
C2595 H2583 0.950 . S
C2595 C2591 1.393 . S
C2595 C2594 1.391 . S
H2596 C2604 0.950 . S
H2597 C2609 0.950 . S
H2598 C2606 0.950 . S
H2599 C2608 0.950 . S
H2600 C2610 0.950 . S
H2601 C2612 0.950 . S
H2602 C2614 0.950 . S
H2603 C2615 0.950 . S
C2604 H2596 0.950 . S
C2604 C2605 1.386 . S
C2604 C2606 1.391 . S
C2605 C2604 1.386 . S
C2605 C2609 1.393 . S
C2606 H2598 0.950 . S
C2606 C2604 1.391 . S
C2606 C2607 1.400 . S
C2607 C2606 1.400 . S
C2607 C2608 1.398 . S
C2607 C2613 1.491 . S
C2608 H2599 0.950 . S
C2608 C2607 1.398 . S
C2608 C2609 1.391 . S
C2609 H2597 0.950 . S
C2609 C2605 1.393 . S
C2609 C2608 1.391 . S
C2610 H2600 0.950 . S
C2610 C2611 1.386 . S
C2610 C2612 1.391 . S
C2611 C2610 1.386 . S
C2611 C2615 1.393 . S
C2612 H2601 0.950 . S
C2612 C2610 1.391 . S
C2612 C2613 1.400 . S
C2613 C2607 1.491 . S
C2613 C2612 1.400 . S
C2613 C2614 1.398 . S
C2614 H2602 0.950 . S
C2614 C2613 1.398 . S
C2614 C2615 1.391 . S
C2615 H2603 0.950 . S
C2615 C2611 1.393 . S
C2615 C2614 1.391 . S
H2616 C2624 0.950 . S
H2617 C2629 0.950 . S
H2618 C2626 0.950 . S
H2619 C2628 0.950 . S
H2620 C2630 0.950 . S
H2621 C2632 0.950 . S
H2622 C2634 0.950 . S
H2623 C2635 0.950 . S
C2624 H2616 0.950 . S
C2624 C2625 1.386 . S
C2624 C2626 1.391 . S
C2625 C2624 1.386 . S
C2625 C2629 1.393 . S
C2626 H2618 0.950 . S
C2626 C2624 1.391 . S
C2626 C2627 1.400 . S
C2627 C2626 1.400 . S
C2627 C2628 1.398 . S
C2627 C2633 1.491 . S
C2628 H2619 0.950 . S
C2628 C2627 1.398 . S
C2628 C2629 1.391 . S
C2629 H2617 0.950 . S
C2629 C2625 1.393 . S
C2629 C2628 1.391 . S
C2630 H2620 0.950 . S
C2630 C2631 1.386 . S
C2630 C2632 1.391 . S
C2631 C2630 1.386 . S
C2631 C2635 1.393 . S
C2632 H2621 0.950 . S
C2632 C2630 1.391 . S
C2632 C2633 1.400 . S
C2633 C2627 1.491 . S
C2633 C2632 1.400 . S
C2633 C2634 1.398 . S
C2634 H2622 0.950 . S
C2634 C2633 1.398 . S
C2634 C2635 1.391 . S
C2635 H2623 0.950 . S
C2635 C2631 1.393 . S
C2635 C2634 1.391 . S
H2636 C2644 0.950 . S
H2637 C2649 0.950 . S
H2638 C2646 0.950 . S
H2639 C2648 0.950 . S
H2640 C2650 0.950 . S
H2641 C2652 0.950 . S
H2642 C2654 0.950 . S
H2643 C2655 0.950 . S
C2644 H2636 0.950 . S
C2644 C2645 1.386 . S
C2644 C2646 1.391 . S
C2645 C2644 1.386 . S
C2645 C2649 1.393 . S
C2646 H2638 0.950 . S
C2646 C2644 1.391 . S
C2646 C2647 1.400 . S
C2647 C2646 1.400 . S
C2647 C2648 1.398 . S
C2647 C2653 1.491 . S
C2648 H2639 0.950 . S
C2648 C2647 1.398 . S
C2648 C2649 1.391 . S
C2649 H2637 0.950 . S
C2649 C2645 1.393 . S
C2649 C2648 1.391 . S
C2650 H2640 0.950 . S
C2650 C2651 1.386 . S
C2650 C2652 1.391 . S
C2651 C2650 1.386 . S
C2651 C2655 1.393 . S
C2652 H2641 0.950 . S
C2652 C2650 1.391 . S
C2652 C2653 1.400 . S
C2653 C2647 1.491 . S
C2653 C2652 1.400 . S
C2653 C2654 1.398 . S
C2654 H2642 0.950 . S
C2654 C2653 1.398 . S
C2654 C2655 1.391 . S
C2655 H2643 0.950 . S
C2655 C2651 1.393 . S
C2655 C2654 1.391 . S
H2656 C2664 0.950 . S
H2657 C2669 0.950 . S
H2658 C2666 0.950 . S
H2659 C2668 0.950 . S
H2660 C2670 0.950 . S
H2661 C2672 0.950 . S
H2662 C2674 0.950 . S
H2663 C2675 0.950 . S
C2664 H2656 0.950 . S
C2664 C2665 1.386 . S
C2664 C2666 1.391 . S
C2665 C2664 1.386 . S
C2665 C2669 1.393 . S
C2666 H2658 0.950 . S
C2666 C2664 1.391 . S
C2666 C2667 1.400 . S
C2667 C2666 1.400 . S
C2667 C2668 1.398 . S
C2667 C2673 1.491 . S
C2668 H2659 0.950 . S
C2668 C2667 1.398 . S
C2668 C2669 1.391 . S
C2669 H2657 0.950 . S
C2669 C2665 1.393 . S
C2669 C2668 1.391 . S
C2670 H2660 0.950 . S
C2670 C2671 1.386 . S
C2670 C2672 1.391 . S
C2671 C2670 1.386 . S
C2671 C2675 1.393 . S
C2672 H2661 0.950 . S
C2672 C2670 1.391 . S
C2672 C2673 1.400 . S
C2673 C2667 1.491 . S
C2673 C2672 1.400 . S
C2673 C2674 1.398 . S
C2674 H2662 0.950 . S
C2674 C2673 1.398 . S
C2674 C2675 1.391 . S
C2675 H2663 0.950 . S
C2675 C2671 1.393 . S
C2675 C2674 1.391 . S
C1251 C942 1.039 . S
C1245 C898 1.037 . S
C1265 C820 1.038 . S
C1271 C940 1.037 . S
C1291 C941 1.038 . S
C1285 C781 1.040 . S
C1305 C859 1.039 . S
C1311 C943 1.041 . S
C1331 C987 1.039 . S
C1325 C625 1.036 . S
C1351 C1047 1.038 . S
C1345 C664 1.037 . S
C1365 C703 1.037 . S
C1371 C986 1.038 . S
C1391 C1046 1.039 . S
C1385 C742 1.035 . S
C1405 C469 1.039 . S
C1411 C988 1.042 . S
C1431 C1044 1.039 . S
C1425 C508 1.041 . S
C1445 C547 1.039 . S
C1451 C989 1.039 . S
C1465 C586 1.039 . S
C1471 C1045 1.040 . S
C1491 C1095 1.038 . S
C1485 C430 1.037 1_556 S
C1505 C352 1.036 . S
C1511 C1094 1.038 . S
C1525 C313 1.036 . S
C1531 C1096 1.038 . S
C1551 C1097 1.038 . S
C1545 C391 1.037 . S
C1565 C157 1.039 . S
C1571 C1138 1.038 . S
C1585 C196 1.036 . S
C1591 C1197 1.037 . S
C1605 C235 1.039 . S
C1611 C1136 1.039 . S
C1625 C274 1.039 . S
C1631 C1196 1.039 . S
C1651 C1137 1.041 . S
C1645 C1 1.040 . S
C1671 C1194 1.038 . S
C1665 C40 1.037 1_565 S
C1685 C79 1.040 . S
C1691 C1139 1.039 . S
C1711 C1195 1.038 . S
C1705 C118 1.037 1_565 S
C1731 C939 1.947 . S
C1725 C16 1.835 . S
C1745 C60 1.820 1_565 S
C1751 C945 1.941 . S
C1765 C99 1.828 . S
C1771 C937 1.948 . S
C1785 C133 1.842 1_545 S
C1791 C944 1.950 1_565 S
C1805 C172 1.820 . S
C1811 C936 1.943 . S
C1831 C946 1.948 . S
C1825 C211 1.837 1_565 S
C1845 C255 1.820 . S
C1851 C938 1.941 . S
C1871 C947 1.941 . S
C1865 C294 1.819 . S
C1891 C993 1.941 . S
C1885 C138 1.815 . S
C1905 C21 1.848 . S
C1911 C1036 1.951 . S
C1931 C991 1.940 . S
C1925 C55 1.815 . S
C1951 C1038 1.944 . S
C1945 C94 1.832 . S
C1965 C216 1.841 1_545 S
C1971 C992 1.951 1_565 S
C1991 C1037 1.947 . S
C1985 C250 1.841 . S
C2011 C990 1.939 1_565 S
C2005 C289 1.816 . S
C2031 C1039 1.947 . S
C2025 C177 1.832 . S
C2051 C1043 1.941 1_556 S
C2045 C328 1.818 . S
C2065 C367 1.834 1_554 S
C2071 C1042 1.947 1_556 S
C2091 C994 1.949 1_556 S
C2085 C333 1.837 1_554 S
C2111 C1041 1.945 . S
C2105 C411 1.831 . S
C2125 C445 1.820 . S
C2131 C997 1.942 . S
C2145 C450 1.835 . S
C2151 C1040 1.946 1_556 S
C2171 C996 1.950 . S
C2165 C372 1.845 1_556 S
C2191 C995 1.941 1_556 S
C2185 C406 1.819 . S
C2211 C1089 1.944 . S
C2205 C484 1.834 . S
C2231 C1092 1.945 . S
C2225 C528 1.832 . S
C2245 C567 1.822 . S
C2251 C1088 1.946 . S
C2271 C1090 1.941 . S
C2265 C601 1.819 . S
C2291 C1086 1.940 . S
C2285 C640 1.817 . S
C2305 C679 1.842 . S
C2311 C1091 1.948 . S
C2325 C723 1.845 . S
C2331 C1087 1.950 . S
C2351 C1093 1.945 . S
C2345 C762 1.830 . S
C2371 C1147 1.950 . S
C2365 C606 1.842 . S
C2385 C489 1.845 . S
C2391 C1186 1.954 . S
C2411 C1146 1.939 . S
C2405 C523 1.814 . S
C2431 C1188 1.937 . S
C2425 C562 1.810 . S
C2451 C1145 1.948 . S
C2445 C684 1.838 . S
C2465 C718 1.824 . S
C2471 C1187 1.943 . S
C2491 C1144 1.945 . S
C2485 C757 1.831 . S
C2511 C1189 1.950 . S
C2505 C645 1.838 . S
C2531 C1193 1.942 . S
C2525 C796 1.821 . S
C2545 C835 1.818 . S
C2551 C1192 1.940 . S
C2571 C1140 1.949 . S
C2565 C801 1.841 . S
C2585 C879 1.841 . S
C2591 C1191 1.951 . S
C2611 C1143 1.943 . S
C2605 C913 1.824 . S
C2631 C1190 1.947 . S
C2625 C918 1.835 . S
C2651 C1141 1.946 . S
C2645 C840 1.828 . S
C2665 C874 1.837 . S
C2671 C1142 1.947 . S
