# Generated by pormake.
# Topology nom, (4,4)-cn, num edge types: 1
# Building blocks:
#     Node 0, Type 0, BuildingBlock: MIFKUJ_clean_linker_1, # of connection points: 4
#     Node 1, Type 0, BuildingBlock: MIFKUJ_clean_linker_1, # of connection points: 4
#     Node 2, Type 0, BuildingBlock: MIFKUJ_clean_linker_1, # of connection points: 4
#     Node 3, Type 0, BuildingBlock: MIFKUJ_clean_linker_1, # of connection points: 4
#     Node 4, Type 0, BuildingBlock: MIFKUJ_clean_linker_1, # of connection points: 4
#     Node 5, Type 0, BuildingBlock: MIFKUJ_clean_linker_1, # of connection points: 4
#     Node 6, Type 1, BuildingBlock: TATPOV_clean_sbu_0, # of connection points: 4
#     Node 7, Type 1, BuildingBlock: TATPOV_clean_sbu_0, # of connection points: 4
#     Node 8, Type 1, BuildingBlock: TATPOV_clean_sbu_0, # of connection points: 4
#     Node 9, Type 1, BuildingBlock: TATPOV_clean_sbu_0, # of connection points: 4
#     Node 10, Type 1, BuildingBlock: TATPOV_clean_sbu_0, # of connection points: 4
#     Node 11, Type 1, BuildingBlock: TATPOV_clean_sbu_0, # of connection points: 4
#     Edge 12, Type (0, 1), BuildingBlock: EZIPEK_clean_linker_0, # of connection points: 2
#     Edge 13, Type (0, 1), BuildingBlock: EZIPEK_clean_linker_0, # of connection points: 2
#     Edge 14, Type (0, 1), BuildingBlock: EZIPEK_clean_linker_0, # of connection points: 2
#     Edge 15, Type (0, 1), BuildingBlock: EZIPEK_clean_linker_0, # of connection points: 2
#     Edge 16, Type (0, 1), BuildingBlock: EZIPEK_clean_linker_0, # of connection points: 2
#     Edge 17, Type (0, 1), BuildingBlock: EZIPEK_clean_linker_0, # of connection points: 2
#     Edge 18, Type (0, 1), BuildingBlock: EZIPEK_clean_linker_0, # of connection points: 2
#     Edge 19, Type (0, 1), BuildingBlock: EZIPEK_clean_linker_0, # of connection points: 2
#     Edge 20, Type (0, 1), BuildingBlock: EZIPEK_clean_linker_0, # of connection points: 2
#     Edge 21, Type (0, 1), BuildingBlock: EZIPEK_clean_linker_0, # of connection points: 2
#     Edge 22, Type (0, 1), BuildingBlock: EZIPEK_clean_linker_0, # of connection points: 2
#     Edge 23, Type (0, 1), BuildingBlock: EZIPEK_clean_linker_0, # of connection points: 2
#     Edge 24, Type (0, 1), BuildingBlock: EZIPEK_clean_linker_0, # of connection points: 2
#     Edge 25, Type (0, 1), BuildingBlock: EZIPEK_clean_linker_0, # of connection points: 2
#     Edge 26, Type (0, 1), BuildingBlock: EZIPEK_clean_linker_0, # of connection points: 2
#     Edge 27, Type (0, 1), BuildingBlock: EZIPEK_clean_linker_0, # of connection points: 2
#     Edge 28, Type (0, 1), BuildingBlock: EZIPEK_clean_linker_0, # of connection points: 2
#     Edge 29, Type (0, 1), BuildingBlock: EZIPEK_clean_linker_0, # of connection points: 2
#     Edge 30, Type (0, 1), BuildingBlock: EZIPEK_clean_linker_0, # of connection points: 2
#     Edge 31, Type (0, 1), BuildingBlock: EZIPEK_clean_linker_0, # of connection points: 2
#     Edge 32, Type (0, 1), BuildingBlock: EZIPEK_clean_linker_0, # of connection points: 2
#     Edge 33, Type (0, 1), BuildingBlock: EZIPEK_clean_linker_0, # of connection points: 2
#     Edge 34, Type (0, 1), BuildingBlock: EZIPEK_clean_linker_0, # of connection points: 2
#     Edge 35, Type (0, 1), BuildingBlock: EZIPEK_clean_linker_0, # of connection points: 2
# Relax obj value: 0.019
# Max RMSD: 0.115
# Mean RMSD: 0.105
data_MOF--net-nom--node1-TATPOV_clean_sbu_0--node2-MIFKUJ_clean_linker_1--edge1-EZIPEK_clean_linker_0
_symmetry_space_group_name_H-M    P1
_symmetry_Int_Tables_number       1
_symmetry_cell_setting            triclinic
loop_
_symmetry_equiv_pos_as_xyz
'x, y, z'
_cell_length_a     41.218082
_cell_length_b     41.814955
_cell_length_c     43.36805
_cell_angle_alpha  90.769986
_cell_angle_beta   90.577452
_cell_angle_gamma 120.01508
loop_
_atom_site_label
_atom_site_type_symbol
_atom_site_fract_x
_atom_site_fract_y
_atom_site_fract_z
_atom_type_partial_charge
H0 H 0.97086 0.42086 0.24677 0.0
H1 H 0.92677 0.41207 0.20499 0.0
H2 H 0.87181 0.45299 0.26455 0.0
H3 H 0.91939 0.46734 0.30457 0.0
H4 H 0.02136 0.48127 0.26969 0.0
H5 H 0.9038 0.38172 0.32179 0.0
H6 H 0.84157 0.36759 0.34015 0.0
H7 H 0.89353 0.46643 0.39737 0.0
H8 H 0.95498 0.48097 0.37888 0.0
H9 H 0.04189 0.51438 0.39868 0.0
H10 H 0.09165 0.54041 0.43815 0.0
H11 H 0.15412 0.50076 0.38699 0.0
H12 H 0.10377 0.47401 0.34721 0.0
H13 H 0.99609 0.44927 0.37973 0.0
H14 H 0.08589 0.5576 0.33624 0.0
H15 H 0.14478 0.6074 0.31656 0.0
H16 H 0.14752 0.532 0.24924 0.0
H17 H 0.08832 0.48171 0.2691 0.0
C18 C 0.94814 0.44387 0.27943 0.0
C19 C 0.94946 0.42814 0.25092 0.0
C20 C 0.92407 0.42281 0.2271 0.0
C21 C 0.89571 0.43159 0.23161 0.0
C22 C 0.89333 0.44584 0.26051 0.0
C23 C 0.92016 0.45334 0.28368 0.0
C24 C 0.97823 0.45321 0.30317 0.0
C25 C 0.01565 0.47321 0.29358 0.0
C26 C 0.97122 0.44544 0.33499 0.0
C27 C 0.93398 0.43261 0.34869 0.0
C28 C 0.90176 0.39993 0.33867 0.0
C29 C 0.86643 0.39182 0.34918 0.0
C30 C 0.86325 0.41613 0.37 0.0
C31 C 0.89558 0.44739 0.38139 0.0
C32 C 0.9306 0.45557 0.37084 0.0
C33 C 0.06901 0.49212 0.37 0.0
C34 C 0.06601 0.51081 0.39599 0.0
C35 C 0.0944 0.52579 0.41844 0.0
C36 C 0.12636 0.52242 0.41536 0.0
C37 C 0.12954 0.50353 0.38961 0.0
C38 C 0.10097 0.48847 0.36699 0.0
C39 C 0.0387 0.47719 0.34608 0.0
C40 C 0.00156 0.45581 0.35552 0.0
C41 C 0.04577 0.48684 0.31479 0.0
C42 C 0.08307 0.51578 0.30447 0.0
C43 C 0.09946 0.55148 0.31767 0.0
C44 C 0.13284 0.57995 0.30632 0.0
C45 C 0.15023 0.57328 0.28143 0.0
C46 C 0.13432 0.53753 0.26844 0.0
C47 C 0.10074 0.50897 0.27978 0.0
H48 H 0.44578 0.95613 0.54388 0.0
H49 H 0.40206 0.89429 0.56048 0.0
H50 H 0.42879 0.8485 0.48156 0.0
H51 H 0.47804 0.91031 0.46801 0.0
H52 H 0.51031 0.99788 0.53909 0.0
H53 H 0.41602 0.94088 0.44816 0.0
H54 H 0.3898 0.89589 0.40477 0.0
H55 H 0.50161 0.92978 0.37454 0.0
H56 H 0.52777 0.9747 0.41772 0.0
H57 H 0.56969 0.09838 0.43488 0.0
H58 H 0.58267 0.16078 0.4219 0.0
H59 H 0.50509 0.15437 0.49083 0.0
H60 H 0.4917 0.09201 0.50358 0.0
H61 H 0.50533 0.03307 0.43127 0.0
H62 H 0.59264 0.10634 0.51215 0.0
H63 H 0.61728 0.15268 0.55459 0.0
H64 H 0.51629 0.08714 0.6052 0.0
H65 H 0.49127 0.04143 0.5629 0.0
C66 C 0.46488 0.9387 0.50382 0.0
C67 C 0.44365 0.93304 0.53055 0.0
C68 C 0.41809 0.89755 0.53994 0.0
C69 C 0.41121 0.86668 0.52184 0.0
C70 C 0.43315 0.87191 0.49571 0.0
C71 C 0.46075 0.90747 0.48753 0.0
C72 C 0.48929 0.97734 0.49306 0.0
C73 C 0.50866 0.00536 0.51551 0.0
C74 C 0.49014 0.98782 0.46193 0.0
C75 C 0.47375 0.9608 0.4361 0.0
C76 C 0.43478 0.93851 0.43219 0.0
C77 C 0.41992 0.91288 0.40764 0.0
C78 C 0.4439 0.90954 0.38674 0.0
C79 C 0.48281 0.93194 0.39061 0.0
C80 C 0.49763 0.95756 0.41505 0.0
C81 C 0.53022 0.0908 0.47054 0.0
C82 C 0.5555 0.11041 0.44719 0.0
C83 C 0.56286 0.14586 0.43979 0.0
C84 C 0.54483 0.16199 0.4555 0.0
C85 C 0.51929 0.14231 0.47857 0.0
C86 C 0.51193 0.10693 0.48596 0.0
C87 C 0.52151 0.05284 0.47813 0.0
C88 C 0.50656 0.02538 0.45487 0.0
C89 C 0.52402 0.04281 0.50866 0.0
C90 C 0.54006 0.07045 0.53433 0.0
C91 C 0.5758 0.102 0.53236 0.0
C92 C 0.58992 0.12826 0.55649 0.0
C93 C 0.5685 0.12301 0.58285 0.0
C94 C 0.53315 0.09138 0.58501 0.0
C95 C 0.519 0.06532 0.56095 0.0
H96 H 0.53418 0.57211 0.73405 0.0
H97 H 0.50774 0.5882 0.77767 0.0
H98 H 0.40801 0.55864 0.72339 0.0
H99 H 0.43194 0.53741 0.68137 0.0
H100 H 0.51279 0.50909 0.71259 0.0
H101 H 0.51549 0.61694 0.66233 0.0
H102 H 0.4786 0.64621 0.64782 0.0
H103 H 0.40524 0.55062 0.59147 0.0
H104 H 0.44138 0.52108 0.60626 0.0
H105 H 0.49327 0.46857 0.58277 0.0
H106 H 0.52047 0.44686 0.54322 0.0
H107 H 0.624 0.49416 0.59597 0.0
H108 H 0.59691 0.51587 0.63557 0.0
H109 H 0.51292 0.5368 0.6018 0.0
H110 H 0.49504 0.42863 0.64686 0.0
H111 H 0.50782 0.38099 0.66581 0.0
H112 H 0.58903 0.45946 0.73125 0.0
H113 H 0.57671 0.50757 0.71202 0.0
C114 C 0.48545 0.5539 0.70398 0.0
C115 C 0.50653 0.5689 0.73144 0.0
C116 C 0.49163 0.57846 0.75629 0.0
C117 C 0.45591 0.57471 0.75383 0.0
C118 C 0.43566 0.56181 0.72581 0.0
C119 C 0.44966 0.55021 0.70156 0.0
C120 C 0.49999 0.53934 0.67942 0.0
C121 C 0.51378 0.51619 0.68851 0.0
C122 C 0.49887 0.54614 0.64753 0.0
C123 C 0.48088 0.56667 0.63565 0.0
C124 C 0.49177 0.60253 0.64655 0.0
C125 C 0.47084 0.61917 0.63832 0.0
C126 C 0.4392 0.6003 0.61881 0.0
C127 C 0.42957 0.56543 0.60659 0.0
C128 C 0.4503 0.54875 0.61491 0.0
C129 C 0.54309 0.49392 0.61207 0.0
C130 C 0.52174 0.47412 0.58591 0.0
C131 C 0.53708 0.46148 0.56354 0.0
C132 C 0.57412 0.46881 0.56685 0.0
C133 C 0.59528 0.48801 0.59321 0.0
C134 C 0.57986 0.50045 0.61568 0.0
C135 C 0.52719 0.50822 0.63545 0.0
C136 C 0.51299 0.5309 0.62608 0.0
C137 C 0.52649 0.49995 0.66696 0.0
C138 C 0.53537 0.47175 0.67773 0.0
C139 C 0.51597 0.43579 0.66499 0.0
C140 C 0.52297 0.4086 0.67592 0.0
C141 C 0.54918 0.41692 0.6999 0.0
C142 C 0.56861 0.45274 0.71278 0.0
C143 C 0.56163 0.48003 0.7018 0.0
H144 H 0.03442 0.57479 0.75583 0.0
H145 H 0.07998 0.60184 0.71442 0.0
H146 H 0.1313 0.53857 0.74247 0.0
H147 H 0.08541 0.51105 0.78377 0.0
H148 H 0.98301 0.49894 0.76277 0.0
H149 H 0.09634 0.59649 0.82212 0.0
H150 H 0.16124 0.62027 0.84105 0.0
H151 H 0.12851 0.51475 0.88107 0.0
H152 H 0.0643 0.4909 0.86204 0.0
H153 H 0.96374 0.44593 0.88881 0.0
H154 H 0.91877 0.42707 0.93088 0.0
H155 H 0.86601 0.48224 0.88782 0.0
H156 H 0.91073 0.50091 0.84558 0.0
H157 H 0.01476 0.51338 0.8746 0.0
H158 H 0.92452 0.41199 0.82215 0.0
H159 H 0.86122 0.3648 0.80552 0.0
H160 H 0.85034 0.44581 0.75286 0.0
H161 H 0.91404 0.49346 0.76963 0.0
C162 C 0.05668 0.54113 0.77305 0.0
C163 C 0.0556 0.56688 0.75322 0.0
C164 C 0.08159 0.58239 0.72972 0.0
C165 C 0.10895 0.57224 0.72556 0.0
C166 C 0.11045 0.54683 0.74552 0.0
C167 C 0.08438 0.53126 0.76906 0.0
C168 C 0.02769 0.52368 0.79691 0.0
C169 C 0.98996 0.50279 0.78724 0.0
C170 C 0.03673 0.52603 0.82875 0.0
C171 C 0.07566 0.54187 0.84051 0.0
C172 C 0.10322 0.57857 0.83497 0.0
C173 C 0.13999 0.59215 0.84586 0.0
C174 C 0.14929 0.56912 0.86241 0.0
C175 C 0.12163 0.53282 0.86842 0.0
C176 C 0.08512 0.51931 0.85758 0.0
C177 C 0.94073 0.47501 0.86416 0.0
C178 C 0.9422 0.45355 0.88819 0.0
C179 C 0.91647 0.4426 0.91203 0.0
C180 C 0.8892 0.45336 0.91239 0.0
C181 C 0.88675 0.47356 0.88781 0.0
C182 C 0.91226 0.48421 0.86379 0.0
C183 C 0.97024 0.48981 0.84049 0.0
C184 C 0.00782 0.51016 0.85013 0.0
C185 C 0.96143 0.48449 0.80863 0.0
C186 C 0.92364 0.4563 0.79747 0.0
C187 C 0.90853 0.41969 0.80708 0.0
C188 C 0.87264 0.39277 0.79751 0.0
C189 C 0.85138 0.40203 0.7781 0.0
C190 C 0.8666 0.43837 0.76785 0.0
C191 C 0.90273 0.46541 0.77738 0.0
H192 H 0.59598 0.07778 0.03791 0.0
H193 H 0.63177 0.14226 0.05638 0.0
H194 H 0.54966 0.16405 0.01441 0.0
H195 H 0.51384 0.09945 0.99571 0.0
H196 H 0.51943 0.022 0.04749 0.0
H197 H 0.599 0.0999 0.96266 0.0
H198 H 0.61652 0.14705 0.92294 0.0
H199 H 0.50362 0.08876 0.88578 0.0
H200 H 0.48573 0.04241 0.92578 0.0
H201 H 0.43069 0.91048 0.98647 0.0
H202 H 0.40939 0.84804 0.96556 0.0
H203 H 0.51565 0.88739 0.92141 0.0
H204 H 0.53762 0.94936 0.94331 0.0
H205 H 0.51246 0.9961 0.93497 0.0
H206 H 0.44357 0.96702 0.04902 0.0
H207 H 0.41314 0.91862 0.08724 0.0
H208 H 0.48651 0.87648 0.06426 0.0
H209 H 0.5173 0.9252 0.02585 0.0
C210 C 0.55244 0.084 0.01532 0.0
C211 C 0.58547 0.09633 0.03296 0.0
C212 C 0.60589 0.13301 0.0434 0.0
C213 C 0.59334 0.15777 0.03664 0.0
C214 C 0.55973 0.14524 0.01976 0.0
C215 C 0.53939 0.10855 0.00913 0.0
C216 C 0.53286 0.04583 0.00246 0.0
C217 C 0.51791 0.01629 0.02287 0.0
C218 C 0.52962 0.03837 0.97035 0.0
C219 C 0.54097 0.06775 0.94727 0.0
C220 C 0.57789 0.0976 0.94629 0.0
C221 C 0.58792 0.12436 0.92367 0.0
C222 C 0.56126 0.12113 0.90158 0.0
C223 C 0.52445 0.09155 0.90271 0.0
C224 C 0.51436 0.06512 0.92539 0.0
C225 C 0.48603 0.93447 0.96694 0.0
C226 C 0.44959 0.90562 0.97264 0.0
C227 C 0.43733 0.87014 0.96054 0.0
C228 C 0.46107 0.86326 0.94209 0.0
C229 C 0.49705 0.89225 0.93569 0.0
C230 C 0.50947 0.92751 0.94812 0.0
C231 C 0.50011 0.9722 0.97999 0.0
C232 C 0.514 0.00173 0.95961 0.0
C233 C 0.50077 0.9795 0.01201 0.0
C234 C 0.48266 0.94967 0.03464 0.0
C235 C 0.45312 0.94736 0.05213 0.0
C236 C 0.43561 0.91969 0.07372 0.0
C237 C 0.44751 0.89403 0.0783 0.0
C238 C 0.47688 0.896 0.06076 0.0
C239 C 0.49442 0.92374 0.03901 0.0
H240 H 0.49179 0.46652 0.2454 0.0
H241 H 0.52078 0.44761 0.28506 0.0
H242 H 0.61631 0.4794 0.22725 0.0
H243 H 0.59033 0.50407 0.18989 0.0
H244 H 0.50839 0.52826 0.22724 0.0
H245 H 0.51037 0.42402 0.1675 0.0
H246 H 0.55084 0.40087 0.14758 0.0
H247 H 0.61393 0.50126 0.09724 0.0
H248 H 0.5743 0.52457 0.11729 0.0
H249 H 0.50891 0.60018 0.13919 0.0
H250 H 0.48426 0.62294 0.09827 0.0
H251 H 0.40417 0.51067 0.07109 0.0
H252 H 0.42834 0.48789 0.11203 0.0
H253 H 0.5007 0.50137 0.11496 0.0
H254 H 0.53002 0.59735 0.21981 0.0
H255 H 0.5102 0.63956 0.24065 0.0
H256 H 0.40151 0.57358 0.19698 0.0
H257 H 0.42063 0.53036 0.17716 0.0
C258 C 0.53829 0.48613 0.21403 0.0
C259 C 0.51922 0.46995 0.24128 0.0
C260 C 0.53556 0.45869 0.26383 0.0
C261 C 0.57064 0.46174 0.25911 0.0
C262 C 0.58915 0.47662 0.2314 0.0
C263 C 0.57391 0.49012 0.20973 0.0
C264 C 0.52126 0.5003 0.19134 0.0
C265 C 0.50644 0.52195 0.20272 0.0
C266 C 0.51973 0.49342 0.15904 0.0
C267 C 0.53971 0.47623 0.14422 0.0
C268 C 0.53252 0.44072 0.1518 0.0
C269 C 0.55541 0.42749 0.14038 0.0
C270 C 0.58532 0.44954 0.12108 0.0
C271 C 0.59093 0.48392 0.11205 0.0
C272 C 0.5683 0.49715 0.12349 0.0
C273 C 0.47031 0.54233 0.12867 0.0
C274 C 0.48557 0.58051 0.12482 0.0
C275 C 0.47163 0.59348 0.10154 0.0
C276 C 0.44253 0.56837 0.0818 0.0
C277 C 0.42661 0.53034 0.08622 0.0
C278 C 0.44045 0.51741 0.10943 0.0
C279 C 0.48699 0.52803 0.15114 0.0
C280 C 0.50186 0.50668 0.13964 0.0
C281 C 0.4899 0.53642 0.18307 0.0
C282 C 0.47701 0.56092 0.19652 0.0
C283 C 0.50175 0.59163 0.215 0.0
C284 C 0.49057 0.61578 0.2268 0.0
C285 C 0.45458 0.60979 0.22008 0.0
C286 C 0.42949 0.57871 0.20221 0.0
C287 C 0.4405 0.55426 0.19075 0.0
Zn288 Zn 0.69152 0.4588 0.41506 0.0
Zn289 Zn 0.64759 0.38662 0.41432 0.0
O290 O 0.70064 0.39476 0.41015 0.0
O291 O 0.73769 0.45492 0.40745 0.0
O292 O 0.61969 0.33172 0.41997 0.0
O293 O 0.67595 0.46512 0.4573 0.0
O294 O 0.63281 0.40632 0.45274 0.0
C295 C 0.73303 0.42264 0.40673 0.0
C296 C 0.63705 0.42915 0.36376 0.0
O297 O 0.62963 0.3976 0.37353 0.0
O298 O 0.66016 0.45824 0.3786 0.0
C299 C 0.58481 0.3108 0.42376 0.0
O300 O 0.56217 0.32438 0.42302 0.0
C301 C 0.64698 0.43728 0.46724 0.0
Zn302 Zn 0.21225 0.66338 0.55735 0.0
Zn303 Zn 0.263 0.64272 0.57455 0.0
O304 O 0.294 0.69809 0.56596 0.0
O305 O 0.25477 0.7142 0.54705 0.0
O306 O 0.30199 0.62904 0.58693 0.0
O307 O 0.18979 0.64887 0.60013 0.0
O308 O 0.22836 0.62833 0.61171 0.0
C309 C 0.28797 0.72222 0.55387 0.0
C310 C 0.21083 0.60634 0.51838 0.0
O311 O 0.23791 0.61041 0.53562 0.0
O312 O 0.19463 0.62477 0.5234 0.0
C313 C 0.33667 0.65249 0.59066 0.0
O314 O 0.34897 0.6878 0.58711 0.0
C315 C 0.20112 0.63315 0.61861 0.0
Zn316 Zn 0.54363 0.21843 0.74069 0.0
Zn317 Zn 0.61978 0.2627 0.74487 0.0
O318 O 0.59958 0.29778 0.73918 0.0
O319 O 0.53794 0.26361 0.73708 0.0
O320 O 0.6744 0.29822 0.75094 0.0
O321 O 0.54518 0.19747 0.78233 0.0
O322 O 0.60678 0.23252 0.78406 0.0
C323 C 0.56748 0.29486 0.73625 0.0
C324 C 0.58628 0.20833 0.6915 0.0
O325 O 0.61525 0.23332 0.70572 0.0
O326 O 0.55371 0.19765 0.70151 0.0
C327 C 0.69963 0.28972 0.74704 0.0
O328 O 0.69047 0.25608 0.73802 0.0
C329 C 0.57642 0.20817 0.79584 0.0
Zn330 Zn 0.33955 0.56157 0.91597 0.0
Zn331 Zn 0.37543 0.63557 0.91587 0.0
O332 O 0.32104 0.62196 0.90953 0.0
O333 O 0.29098 0.56107 0.90675 0.0
O334 O 0.40072 0.69053 0.92106 0.0
O335 O 0.35724 0.56089 0.95922 0.0
O336 O 0.39066 0.62155 0.9567 0.0
C337 C 0.29094 0.59128 0.90548 0.0
C338 C 0.3918 0.59437 0.86596 0.0
O339 O 0.39547 0.6247 0.8763 0.0
O340 O 0.37196 0.56463 0.88017 0.0
C341 C 0.40811 0.7133 0.89954 0.0
O342 O 0.40099 0.70148 0.8707 0.0
C343 C 0.38112 0.5918 0.97096 0.0
Zn344 Zn 0.78699 0.45933 0.07668 0.0
Zn345 Zn 0.74778 0.38597 0.07264 0.0
O346 O 0.70742 0.40063 0.07787 0.0
O347 O 0.73978 0.46088 0.08592 0.0
O348 O 0.71731 0.33074 0.06528 0.0
O349 O 0.80618 0.46358 0.03369 0.0
O350 O 0.78058 0.40301 0.03367 0.0
C351 C 0.70868 0.43104 0.08414 0.0
C352 C 0.80539 0.4229 0.1246 0.0
O353 O 0.77746 0.39368 0.11323 0.0
O354 O 0.81641 0.4536 0.11172 0.0
C355 C 0.68431 0.31118 0.07535 0.0
O356 O 0.66981 0.32648 0.0929 0.0
C357 C 0.80095 0.43395 0.02091 0.0
Zn358 Zn 0.32266 0.78274 0.23095 0.0
Zn359 Zn 0.36698 0.75178 0.23452 0.0
O360 O 0.31364 0.70925 0.24033 0.0
O361 O 0.27626 0.73254 0.23625 0.0
O362 O 0.39507 0.72417 0.23226 0.0
O363 O 0.34438 0.80368 0.18928 0.0
O364 O 0.38091 0.77943 0.19384 0.0
C365 C 0.28098 0.70529 0.24085 0.0
C366 C 0.37749 0.80955 0.28229 0.0
O367 O 0.38747 0.78717 0.2719 0.0
O368 O 0.35142 0.81236 0.26917 0.0
C369 C 0.40293 0.71045 0.25512 0.0
O370 O 0.39523 0.71653 0.28318 0.0
C371 C 0.37035 0.79887 0.17913 0.0
C372 C 0.2186 0.61947 0.28668 0.0
C373 C 0.18491 0.60435 0.26894 0.0
C374 C 0.21672 0.65139 0.22988 0.0
C375 C 0.24874 0.66941 0.24967 0.0
N376 N 0.27806 0.67381 0.29941 0.0
N377 N 0.15006 0.60808 0.22541 0.0
C378 C 0.24933 0.65418 0.27866 0.0
C379 C 0.18347 0.62073 0.24088 0.0
N380 N 0.22126 0.60047 0.31106 0.0
N381 N 0.21842 0.66296 0.20031 0.0
H382 H 0.12507 0.58558 0.23259 0.0
H383 H 0.14651 0.62161 0.20682 0.0
H384 H 0.24253 0.68501 0.19136 0.0
H385 H 0.19725 0.64863 0.18382 0.0
H386 H 0.24631 0.60824 0.32292 0.0
H387 H 0.19918 0.57495 0.31761 0.0
H388 H 0.2778 0.66579 0.32208 0.0
H389 H 0.30064 0.69995 0.29514 0.0
C390 C 0.57684 0.22984 0.46814 0.0
C391 C 0.55309 0.19985 0.44808 0.0
C392 C 0.54855 0.2425 0.41229 0.0
C393 C 0.57107 0.27223 0.43297 0.0
N394 N 0.59986 0.29375 0.48333 0.0
N395 N 0.51063 0.17612 0.40421 0.0
C396 C 0.5832 0.26574 0.46175 0.0
C397 C 0.53719 0.20574 0.42106 0.0
N398 N 0.59436 0.22421 0.49269 0.0
N399 N 0.53932 0.24954 0.38381 0.0
H400 H 0.50188 0.14884 0.40984 0.0
H401 H 0.49509 0.17836 0.38616 0.0
H402 H 0.54654 0.27605 0.37687 0.0
H403 H 0.52674 0.22958 0.36631 0.0
H404 H 0.61523 0.24556 0.50612 0.0
H405 H 0.5902 0.19826 0.49832 0.0
H406 H 0.60584 0.28993 0.50591 0.0
H407 H 0.60457 0.32033 0.47957 0.0
C408 C 0.41754 0.63367 0.5842 0.0
C409 C 0.41449 0.6158 0.61245 0.0
C410 C 0.36275 0.62529 0.62767 0.0
C411 C 0.36352 0.64 0.59824 0.0
N412 N 0.38798 0.65413 0.54684 0.0
N413 N 0.38196 0.59042 0.65976 0.0
C414 C 0.39006 0.64329 0.57607 0.0
C415 C 0.38652 0.61052 0.6339 0.0
N416 N 0.4471 0.64198 0.56546 0.0
N417 N 0.3402 0.6266 0.64998 0.0
H418 H 0.39937 0.57987 0.66552 0.0
H419 H 0.35941 0.58192 0.67444 0.0
H420 H 0.32227 0.63708 0.6462 0.0
H421 H 0.34139 0.62015 0.67292 0.0
H422 H 0.45321 0.6584 0.54615 0.0
H423 H 0.46745 0.63487 0.57059 0.0
H424 H 0.40379 0.65319 0.52865 0.0
H425 H 0.3682 0.66135 0.53998 0.0
C426 C 0.78426 0.36255 0.79207 0.0
C427 C 0.81249 0.37359 0.76964 0.0
C428 C 0.7664 0.33037 0.73173 0.0
C429 C 0.73891 0.31728 0.75492 0.0
N430 N 0.72312 0.31534 0.80857 0.0
N431 N 0.83249 0.36448 0.71985 0.0
C432 C 0.74823 0.33184 0.78552 0.0
C433 C 0.80417 0.35649 0.73991 0.0
N434 N 0.79166 0.38203 0.81933 0.0
N435 N 0.75618 0.31903 0.70171 0.0
H436 H 0.86045 0.38383 0.72492 0.0
H437 H 0.82875 0.34993 0.6992 0.0
H438 H 0.72878 0.29991 0.69481 0.0
H439 H 0.77414 0.33071 0.68331 0.0
H440 H 0.77112 0.37773 0.83518 0.0
H441 H 0.81781 0.40475 0.82502 0.0
H442 H 0.72975 0.32229 0.83184 0.0
H443 H 0.69668 0.29218 0.80483 0.0
C444 C 0.41976 0.8095 0.90684 0.0
C445 C 0.44855 0.82547 0.92981 0.0
C446 C 0.45577 0.77085 0.92732 0.0
C447 C 0.42359 0.75288 0.90767 0.0
N448 N 0.37081 0.75303 0.88293 0.0
N449 N 0.48985 0.819 0.96585 0.0
C450 C 0.40453 0.77167 0.89833 0.0
C451 C 0.46553 0.80555 0.94112 0.0
N452 N 0.40749 0.83063 0.89269 0.0
N453 N 0.47765 0.75527 0.93209 0.0
H454 H 0.49725 0.84403 0.97704 0.0
H455 H 0.49992 0.80375 0.97707 0.0
H456 H 0.47201 0.73037 0.92159 0.0
H457 H 0.50341 0.76884 0.94379 0.0
H458 H 0.38936 0.82142 0.87357 0.0
H459 H 0.41814 0.85852 0.8982 0.0
H460 H 0.35387 0.76448 0.87864 0.0
H461 H 0.35792 0.72505 0.87696 0.0
C462 C 0.64278 0.44615 0.13422 0.0
C463 C 0.61361 0.43903 0.11275 0.0
C464 C 0.64563 0.42432 0.07232 0.0
C465 C 0.67443 0.43095 0.094 0.0
N466 N 0.69586 0.4386 0.14699 0.0
N467 N 0.58298 0.41471 0.06351 0.0
C468 C 0.67156 0.4389 0.12542 0.0
C469 C 0.61366 0.4259 0.08242 0.0
N470 N 0.64398 0.4615 0.16257 0.0
N471 N 0.64962 0.41807 0.04195 0.0
H472 H 0.55931 0.41574 0.07037 0.0
H473 H 0.5796 0.40169 0.04213 0.0
H474 H 0.67241 0.41619 0.03396 0.0
H475 H 0.63172 0.41701 0.02437 0.0
H476 H 0.66693 0.47158 0.1777 0.0
H477 H 0.62316 0.46673 0.17022 0.0
H478 H 0.69274 0.44029 0.17065 0.0
H479 H 0.7172 0.4331 0.14146 0.0
C480 C 0.38582 0.79895 0.53278 0.0
C481 C 0.37983 0.82935 0.52972 0.0
C482 C 0.31608 0.79103 0.54822 0.0
C483 C 0.32002 0.75922 0.54628 0.0
N484 N 0.35685 0.73293 0.52661 0.0
N485 N 0.33443 0.84985 0.52559 0.0
C486 C 0.3544 0.76304 0.53574 0.0
C487 C 0.34348 0.82411 0.53473 0.0
N488 N 0.42126 0.80415 0.53381 0.0
N489 N 0.28731 0.79051 0.56399 0.0
H490 H 0.35272 0.87327 0.51345 0.0
H491 H 0.30725 0.84551 0.52679 0.0
H492 H 0.26841 0.76797 0.57669 0.0
H493 H 0.28534 0.81417 0.56769 0.0
H494 H 0.42664 0.78284 0.53855 0.0
H495 H 0.44518 0.83024 0.53346 0.0
H496 H 0.38086 0.73523 0.51672 0.0
H497 H 0.3338 0.70631 0.52496 0.0
C498 C 0.57874 0.37795 0.69292 0.0
C499 C 0.55657 0.38786 0.71098 0.0
C500 C 0.54637 0.34031 0.74821 0.0
C501 C 0.56489 0.32771 0.72829 0.0
N502 N 0.59358 0.33055 0.67926 0.0
N503 N 0.51577 0.37667 0.75394 0.0
C504 C 0.57997 0.3456 0.70006 0.0
C505 C 0.53951 0.36866 0.73823 0.0
N506 N 0.59898 0.39977 0.66915 0.0
N507 N 0.53633 0.32588 0.77694 0.0
H508 H 0.51058 0.39771 0.74762 0.0
H509 H 0.49916 0.36085 0.7719 0.0
H510 H 0.54113 0.30517 0.78499 0.0
H511 H 0.52623 0.3365 0.79375 0.0
H512 H 0.61877 0.39618 0.65724 0.0
H513 H 0.59847 0.42358 0.66306 0.0
H514 H 0.60086 0.33998 0.65689 0.0
H515 H 0.59452 0.30649 0.68321 0.0
C516 C 0.19857 0.5909 0.90404 0.0
C517 C 0.1883 0.58171 0.87247 0.0
C518 C 0.24905 0.5871 0.8621 0.0
C519 C 0.25696 0.59099 0.89428 0.0
N520 N 0.24007 0.59595 0.94636 0.0
N521 N 0.20203 0.56873 0.82138 0.0
C522 C 0.23212 0.59313 0.91543 0.0
C523 C 0.21326 0.57964 0.85135 0.0
N524 N 0.17623 0.59772 0.9229 0.0
N525 N 0.27597 0.59098 0.84185 0.0
H526 H 0.17638 0.56391 0.81236 0.0
H527 H 0.21702 0.56217 0.80585 0.0
H528 H 0.30242 0.59599 0.84892 0.0
H529 H 0.27339 0.59236 0.81807 0.0
H530 H 0.18354 0.6077 0.9455 0.0
H531 H 0.1515 0.59627 0.91505 0.0
H532 H 0.22131 0.59357 0.96329 0.0
H533 H 0.26496 0.59867 0.95528 0.0
C534 C 0.61922 0.20711 0.07828 0.0
C535 C 0.61618 0.19715 0.04654 0.0
C536 C 0.65474 0.26234 0.03353 0.0
C537 C 0.66118 0.27189 0.06546 0.0
N538 N 0.65493 0.25266 0.11834 0.0
N539 N 0.63652 0.21433 0.9943 0.0
C540 C 0.64483 0.24408 0.08792 0.0
C541 C 0.63552 0.2245 0.02423 0.0
N542 N 0.59686 0.18147 0.09911 0.0
N543 N 0.66534 0.28931 0.01209 0.0
H544 H 0.62295 0.18687 0.98652 0.0
H545 H 0.65355 0.23286 0.97782 0.0
H546 H 0.67841 0.31737 0.01786 0.0
H547 H 0.65779 0.2837 0.98881 0.0
H548 H 0.59498 0.18806 0.12203 0.0
H549 H 0.57759 0.15416 0.09288 0.0
H550 H 0.64695 0.23285 0.13531 0.0
H551 H 0.67424 0.27927 0.12626 0.0
C552 C 0.4601 0.67243 0.21862 0.0
C553 C 0.44333 0.63656 0.23114 0.0
C554 C 0.39987 0.64898 0.25998 0.0
C555 C 0.4186 0.68586 0.24935 0.0
N556 N 0.47218 0.7351 0.22466 0.0
N557 N 0.40332 0.59372 0.26909 0.0
C558 C 0.45049 0.69833 0.23053 0.0
C559 C 0.41513 0.6258 0.25356 0.0
N560 N 0.48392 0.68129 0.19442 0.0
N561 N 0.36631 0.6352 0.27445 0.0
H562 H 0.41405 0.57615 0.26511 0.0
H563 H 0.38561 0.58639 0.28787 0.0
H564 H 0.35319 0.65056 0.2787 0.0
H565 H 0.34963 0.60738 0.27959 0.0
H566 H 0.4937 0.70565 0.18228 0.0
H567 H 0.49121 0.66292 0.18457 0.0
H568 H 0.49775 0.7462 0.21355 0.0
H569 H 0.46659 0.75505 0.23373 0.0
C570 C 0.81118 0.39906 0.40716 0.0
C571 C 0.82635 0.41184 0.37767 0.0
C572 C 0.77594 0.42481 0.36576 0.0
C573 C 0.76396 0.41699 0.39669 0.0
N574 N 0.77026 0.39807 0.44755 0.0
N575 N 0.82574 0.44014 0.32965 0.0
C576 C 0.78133 0.40407 0.41756 0.0
C577 C 0.80923 0.42529 0.35703 0.0
N578 N 0.82525 0.38192 0.42496 0.0
N579 N 0.75488 0.43081 0.34452 0.0
H580 H 0.84968 0.4403 0.32196 0.0
H581 H 0.81727 0.45464 0.31549 0.0
H582 H 0.73013 0.4305 0.34994 0.0
H583 H 0.75996 0.43266 0.32095 0.0
H584 H 0.81342 0.36894 0.44551 0.0
H585 H 0.84714 0.378 0.41782 0.0
H586 H 0.78431 0.39244 0.4648 0.0
H587 H 0.74819 0.40107 0.45573 0.0
C588 C 0.18614 0.57634 0.43564 0.0
C589 C 0.15631 0.53971 0.4394 0.0
C590 C 0.17044 0.54349 0.49475 0.0
C591 C 0.19828 0.58097 0.49132 0.0
N592 N 0.24031 0.63003 0.45878 0.0
N593 N 0.12649 0.48492 0.46967 0.0
C594 C 0.20882 0.59627 0.46169 0.0
C595 C 0.15083 0.52205 0.4681 0.0
N596 N 0.19121 0.59268 0.40763 0.0
N597 N 0.16144 0.52923 0.52361 0.0
H598 H 0.1119 0.46883 0.4503 0.0
H599 H 0.12309 0.46956 0.48928 0.0
H600 H 0.17641 0.54399 0.54336 0.0
H601 H 0.13851 0.50351 0.52822 0.0
H602 H 0.20947 0.62063 0.40411 0.0
H603 H 0.1758 0.57845 0.38788 0.0
H604 H 0.25146 0.64173 0.43769 0.0
H605 H 0.25725 0.64496 0.47772 0.0
C606 C 0.59823 0.14509 0.63502 0.0
C607 C 0.58191 0.15084 0.60828 0.0
C608 C 0.57971 0.20198 0.6343 0.0
C609 C 0.59005 0.1921 0.66233 0.0
N610 N 0.60965 0.15505 0.6903 0.0
N611 N 0.55733 0.18448 0.58139 0.0
C612 C 0.60015 0.1643 0.66288 0.0
C613 C 0.57328 0.17966 0.60743 0.0
N614 N 0.61173 0.12117 0.63357 0.0
N615 N 0.57641 0.23291 0.6335 0.0
H616 H 0.55359 0.16957 0.5609 0.0
H617 H 0.54615 0.20192 0.58037 0.0
H618 H 0.581 0.24973 0.65293 0.0
H619 H 0.57233 0.24372 0.61331 0.0
H620 H 0.62693 0.11798 0.65137 0.0
H621 H 0.61041 0.10664 0.6134 0.0
H622 H 0.61309 0.13223 0.693 0.0
H623 H 0.61231 0.16928 0.71097 0.0
C624 C 0.40357 0.55339 0.7918 0.0
C625 C 0.43872 0.58159 0.78137 0.0
C626 C 0.44474 0.61895 0.8275 0.0
C627 C 0.40772 0.59234 0.83584 0.0
N628 N 0.34777 0.54134 0.81846 0.0
N629 N 0.48774 0.64556 0.78538 0.0
C630 C 0.38579 0.56176 0.81566 0.0
C631 C 0.4578 0.61583 0.79798 0.0
N632 N 0.38783 0.51806 0.78029 0.0
N633 N 0.46823 0.64595 0.848 0.0
H634 H 0.49712 0.64472 0.76329 0.0
H635 H 0.5005 0.67193 0.79549 0.0
H636 H 0.46076 0.64823 0.87045 0.0
H637 H 0.49651 0.6637 0.84372 0.0
H638 H 0.36363 0.49626 0.78934 0.0
H639 H 0.40111 0.50966 0.76449 0.0
H640 H 0.33066 0.5205 0.80261 0.0
H641 H 0.33304 0.54832 0.834 0.0
C642 C 0.88348 0.467 0.96781 0.0
C643 C 0.86601 0.44697 0.94014 0.0
C644 C 0.80476 0.41842 0.965 0.0
C645 C 0.82286 0.43632 0.99325 0.0
N646 N 0.88032 0.46968 0.0233 0.0
N647 N 0.8112 0.39922 0.91336 0.0
C648 C 0.86249 0.45829 0.99516 0.0
C649 C 0.82692 0.42131 0.939 0.0
N650 N 0.91977 0.4954 0.96778 0.0
N651 N 0.76652 0.39995 0.96266 0.0
H652 H 0.82663 0.40078 0.89394 0.0
H653 H 0.78367 0.37742 0.91225 0.0
H654 H 0.74947 0.39729 0.98119 0.0
H655 H 0.75176 0.38971 0.94187 0.0
H656 H 0.93246 0.51345 0.98654 0.0
H657 H 0.93613 0.50331 0.94812 0.0
H658 H 0.90932 0.4825 0.02616 0.0
H659 H 0.86612 0.46279 0.0441 0.0
C660 C 0.44672 0.87583 0.13314 0.0
C661 C 0.43038 0.8667 0.10307 0.0
C662 C 0.37554 0.81133 0.12236 0.0
C663 C 0.392 0.8203 0.1524 0.0
N664 N 0.44535 0.85756 0.18612 0.0
N665 N 0.38326 0.82337 0.06742 0.0
C666 C 0.4284 0.85131 0.15763 0.0
C667 C 0.39597 0.83359 0.09718 0.0
N668 N 0.47883 0.90892 0.13852 0.0
N669 N 0.3401 0.78196 0.11811 0.0
H670 H 0.39757 0.83929 0.04859 0.0
H671 H 0.36022 0.79801 0.06103 0.0
H672 H 0.32522 0.76401 0.13575 0.0
H673 H 0.32463 0.77622 0.09763 0.0
H674 H 0.48967 0.91964 0.16043 0.0
H675 H 0.4938 0.92707 0.12104 0.0
H676 H 0.47344 0.87678 0.19047 0.0
H677 H 0.43212 0.84203 0.20537 0.0
C678 C 0.62545 0.47632 0.29472 0.0
C679 C 0.58858 0.45101 0.28389 0.0
C680 C 0.58227 0.40946 0.32573 0.0
C681 C 0.62053 0.43325 0.33437 0.0
N682 N 0.68123 0.48151 0.31791 0.0
N683 N 0.53685 0.38815 0.2836 0.0
C684 C 0.64303 0.46415 0.31588 0.0
C685 C 0.56852 0.41579 0.2976 0.0
N686 N 0.64311 0.51253 0.28651 0.0
N687 N 0.55831 0.38237 0.3448 0.0
H688 H 0.52696 0.39123 0.26225 0.0
H689 H 0.52308 0.36117 0.29152 0.0
H690 H 0.5661 0.37788 0.3665 0.0
H691 H 0.52954 0.36689 0.34035 0.0
H692 H 0.66894 0.53219 0.29609 0.0
H693 H 0.63022 0.52381 0.2733 0.0
H694 H 0.69845 0.50262 0.30319 0.0
H695 H 0.69535 0.47163 0.33135 0.0
C696 C 0.42918 0.89765 0.33018 0.0
C697 C 0.42833 0.88358 0.35992 0.0
C698 C 0.39496 0.82021 0.33875 0.0
C699 C 0.39767 0.83452 0.3088 0.0
N700 N 0.42465 0.88649 0.27495 0.0
N701 N 0.41678 0.83251 0.39212 0.0
C702 C 0.41699 0.87318 0.30422 0.0
C703 C 0.41313 0.8451 0.3641 0.0
N704 N 0.44031 0.93418 0.32688 0.0
N705 N 0.37367 0.78304 0.34316 0.0
H706 H 0.42961 0.84995 0.41125 0.0
H707 H 0.40983 0.80527 0.39582 0.0
H708 H 0.36025 0.76395 0.32513 0.0
H709 H 0.36708 0.77129 0.36485 0.0
H710 H 0.4375 0.94516 0.30628 0.0
H711 H 0.44942 0.9531 0.34535 0.0
H712 H 0.44201 0.91431 0.27019 0.0
H713 H 0.41667 0.86934 0.25533 0.0
C714 C 0.60056 0.47987 0.51386 0.0
C715 C 0.59185 0.45939 0.54133 0.0
C716 C 0.61999 0.42398 0.52068 0.0
C717 C 0.62625 0.44286 0.49249 0.0
N718 N 0.61331 0.48143 0.4595 0.0
N719 N 0.58767 0.40819 0.56952 0.0
C720 C 0.61385 0.46868 0.48828 0.0
C721 C 0.59992 0.43027 0.54437 0.0
N722 N 0.59748 0.51091 0.51253 0.0
N723 N 0.63433 0.40114 0.52521 0.0
H724 H 0.57313 0.41222 0.5873 0.0
H725 H 0.5893 0.38427 0.57169 0.0
H726 H 0.64883 0.39574 0.50825 0.0
H727 H 0.63421 0.38961 0.54636 0.0
H728 H 0.60746 0.52915 0.49429 0.0
H729 H 0.58826 0.52049 0.53088 0.0
H730 H 0.60089 0.49725 0.4546 0.0
H731 H 0.62158 0.47297 0.43981 0.0
C732 C 0.12649 0.56514 0.67167 0.0
C733 C 0.13469 0.58693 0.69911 0.0
C734 C 0.18721 0.63923 0.67397 0.0
C735 C 0.17987 0.61692 0.64699 0.0
N736 N 0.14704 0.5572 0.62136 0.0
N737 N 0.17599 0.64208 0.72859 0.0
C738 C 0.15095 0.57936 0.64628 0.0
C739 C 0.16605 0.62326 0.70091 0.0
N740 N 0.09439 0.53147 0.66941 0.0
N741 N 0.21385 0.67585 0.67355 0.0
H742 H 0.16094 0.63118 0.74867 0.0
H743 H 0.2006 0.66715 0.73234 0.0
H744 H 0.23076 0.68801 0.65459 0.0
H745 H 0.21778 0.69468 0.69116 0.0
H746 H 0.08442 0.51616 0.64891 0.0
H747 H 0.076 0.51981 0.68761 0.0
H748 H 0.12938 0.52868 0.62084 0.0
H749 H 0.16359 0.56687 0.60186 0.0
C750 C 0.56514 0.1778 0.87897 0.0
C751 C 0.57161 0.14761 0.87616 0.0
C752 C 0.58461 0.1594 0.82122 0.0
C753 C 0.57778 0.18938 0.82395 0.0
N754 N 0.56885 0.23201 0.85553 0.0
N755 N 0.59459 0.1138 0.84704 0.0
C756 C 0.57036 0.20015 0.85295 0.0
C757 C 0.58378 0.13985 0.84802 0.0
N758 N 0.55286 0.18424 0.90628 0.0
N759 N 0.59023 0.14866 0.79276 0.0
H760 H 0.59349 0.09836 0.8661 0.0
H761 H 0.60738 0.10938 0.8282 0.0
H762 H 0.59209 0.16293 0.7727 0.0
H763 H 0.59084 0.12442 0.78854 0.0
H764 H 0.54342 0.20297 0.90905 0.0
H765 H 0.55049 0.16946 0.92614 0.0
H766 H 0.56703 0.24346 0.87643 0.0
H767 H 0.57225 0.24868 0.83674 0.0
C768 C 0.4506 0.58954 0.02721 0.0
C769 C 0.43009 0.58127 0.0549 0.0
C770 C 0.37923 0.58471 0.02828 0.0
C771 C 0.39963 0.59271 0.00057 0.0
N772 N 0.4575 0.6104 0.97453 0.0
N773 N 0.37937 0.57852 0.08394 0.0
C774 C 0.43638 0.59789 0.00041 0.0
C775 C 0.39577 0.58132 0.0561 0.0
N776 N 0.48258 0.5873 0.0261 0.0
N777 N 0.34373 0.5795 0.02775 0.0
H778 H 0.39097 0.576 0.10464 0.0
H779 H 0.35611 0.58166 0.08701 0.0
H780 H 0.33166 0.58384 0.00814 0.0
H781 H 0.32556 0.56936 0.04618 0.0
H782 H 0.49625 0.58832 0.00578 0.0
H783 H 0.49437 0.58198 0.04534 0.0
H784 H 0.48588 0.61868 0.97401 0.0
H785 H 0.44753 0.61527 0.95397 0.0
C786 C 0.84993 0.39391 0.18849 0.0
C787 C 0.86995 0.42776 0.20552 0.0
C788 C 0.8382 0.45275 0.1747 0.0
C789 C 0.82472 0.42224 0.15366 0.0
N790 N 0.82495 0.36631 0.13833 0.0
N791 N 0.88974 0.49297 0.20849 0.0
C792 C 0.83229 0.39326 0.15994 0.0
C793 C 0.86596 0.45826 0.19692 0.0
N794 N 0.84695 0.36224 0.19976 0.0
N795 N 0.82378 0.4759 0.17431 0.0
H796 H 0.91264 0.49916 0.22287 0.0
H797 H 0.88928 0.51623 0.2007 0.0
H798 H 0.80104 0.47106 0.16022 0.0
H799 H 0.83121 0.49691 0.19082 0.0
H800 H 0.82997 0.33639 0.18931 0.0
H801 H 0.85794 0.36126 0.22127 0.0
H802 H 0.83327 0.34672 0.14123 0.0
H803 H 0.81461 0.36586 0.11623 0.0
loop_
_geom_bond_atom_site_label_1
_geom_bond_atom_site_label_2
_geom_bond_distance
_geom_bond_site_symmetry_2
_ccdc_geom_bond_type
H0 C19 0.949 . S
H1 C20 0.950 . S
H2 C22 0.950 . S
H3 C23 0.950 . S
H4 C25 0.950 . S
H5 C28 0.950 . S
H6 C29 0.950 . S
H7 C31 0.951 . S
H8 C32 0.949 . S
H9 C34 0.949 . S
H10 C35 0.950 . S
H11 C37 0.950 . S
H12 C38 0.950 . S
H13 C40 0.950 . S
H14 C43 0.950 . S
H15 C44 0.950 . S
H16 C46 0.951 . S
H17 C47 0.949 . S
C18 C19 1.376 . S
C18 C23 1.386 . S
C18 C24 1.483 . S
C19 H0 0.949 . S
C19 C18 1.376 . S
C19 C20 1.397 . S
C20 H1 0.950 . S
C20 C19 1.397 . S
C20 C21 1.391 . S
C21 C20 1.391 . S
C21 C22 1.405 . S
C22 H2 0.950 . S
C22 C21 1.405 . S
C22 C23 1.367 . S
C23 H3 0.950 . S
C23 C18 1.386 . S
C23 C22 1.367 . S
C24 C18 1.483 . S
C24 C25 1.382 1_655 S
C24 C26 1.403 . S
C25 H4 0.950 . S
C25 C24 1.382 1_455 S
C25 C41 1.411 . S
C26 C24 1.403 . S
C26 C27 1.489 . S
C26 C40 1.411 . S
C27 C26 1.489 . S
C27 C28 1.383 . S
C27 C32 1.382 . S
C28 H5 0.950 . S
C28 C27 1.383 . S
C28 C29 1.395 . S
C29 H6 0.950 . S
C29 C28 1.395 . S
C29 C30 1.288 . S
C30 C29 1.288 . S
C30 C31 1.392 . S
C31 H7 0.951 . S
C31 C30 1.392 . S
C31 C32 1.392 . S
C32 H8 0.949 . S
C32 C27 1.382 . S
C32 C31 1.392 . S
C33 C34 1.376 . S
C33 C38 1.386 . S
C33 C39 1.483 . S
C34 H9 0.949 . S
C34 C33 1.376 . S
C34 C35 1.397 . S
C35 H10 0.950 . S
C35 C34 1.397 . S
C35 C36 1.391 . S
C36 C35 1.391 . S
C36 C37 1.405 . S
C37 H11 0.950 . S
C37 C36 1.405 . S
C37 C38 1.367 . S
C38 H12 0.950 . S
C38 C33 1.386 . S
C38 C37 1.367 . S
C39 C33 1.483 . S
C39 C40 1.382 1_455 S
C39 C41 1.403 . S
C40 H13 0.950 . S
C40 C26 1.411 . S
C40 C39 1.382 1_655 S
C41 C25 1.411 . S
C41 C39 1.403 . S
C41 C42 1.489 . S
C42 C41 1.489 . S
C42 C43 1.383 . S
C42 C47 1.382 . S
C43 H14 0.950 . S
C43 C42 1.383 . S
C43 C44 1.395 . S
C44 H15 0.950 . S
C44 C43 1.395 . S
C44 C45 1.288 . S
C45 C44 1.288 . S
C45 C46 1.392 . S
C46 H16 0.951 . S
C46 C45 1.392 . S
C46 C47 1.392 . S
C47 H17 0.949 . S
C47 C42 1.382 . S
C47 C46 1.392 . S
H48 C67 0.949 . S
H49 C68 0.950 . S
H50 C70 0.950 . S
H51 C71 0.950 . S
H52 C73 0.950 . S
H53 C76 0.950 . S
H54 C77 0.950 . S
H55 C79 0.951 . S
H56 C80 0.949 . S
H57 C82 0.949 . S
H58 C83 0.950 . S
H59 C85 0.950 . S
H60 C86 0.950 . S
H61 C88 0.950 . S
H62 C91 0.950 . S
H63 C92 0.950 . S
H64 C94 0.951 . S
H65 C95 0.949 . S
C66 C67 1.376 . S
C66 C71 1.386 . S
C66 C72 1.483 . S
C67 H48 0.949 . S
C67 C66 1.376 . S
C67 C68 1.397 . S
C68 H49 0.950 . S
C68 C67 1.397 . S
C68 C69 1.391 . S
C69 C68 1.391 . S
C69 C70 1.405 . S
C70 H50 0.950 . S
C70 C69 1.405 . S
C70 C71 1.367 . S
C71 H51 0.950 . S
C71 C66 1.386 . S
C71 C70 1.367 . S
C72 C66 1.483 . S
C72 C73 1.382 . S
C72 C74 1.403 . S
C73 H52 0.950 . S
C73 C72 1.382 . S
C73 C89 1.411 1_565 S
C74 C72 1.403 . S
C74 C75 1.489 . S
C74 C88 1.411 1_565 S
C75 C74 1.489 . S
C75 C76 1.383 . S
C75 C80 1.382 . S
C76 H53 0.950 . S
C76 C75 1.383 . S
C76 C77 1.395 . S
C77 H54 0.950 . S
C77 C76 1.395 . S
C77 C78 1.288 . S
C78 C77 1.288 . S
C78 C79 1.392 . S
C79 H55 0.951 . S
C79 C78 1.392 . S
C79 C80 1.392 . S
C80 H56 0.949 . S
C80 C75 1.382 . S
C80 C79 1.392 . S
C81 C82 1.376 . S
C81 C86 1.386 . S
C81 C87 1.483 . S
C82 H57 0.949 . S
C82 C81 1.376 . S
C82 C83 1.397 . S
C83 H58 0.950 . S
C83 C82 1.397 . S
C83 C84 1.391 . S
C84 C83 1.391 . S
C84 C85 1.405 . S
C85 H59 0.950 . S
C85 C84 1.405 . S
C85 C86 1.367 . S
C86 H60 0.950 . S
C86 C81 1.386 . S
C86 C85 1.367 . S
C87 C81 1.483 . S
C87 C88 1.382 . S
C87 C89 1.403 . S
C88 H61 0.950 . S
C88 C74 1.411 1_545 S
C88 C87 1.382 . S
C89 C73 1.411 1_545 S
C89 C87 1.403 . S
C89 C90 1.489 . S
C90 C89 1.489 . S
C90 C91 1.383 . S
C90 C95 1.382 . S
C91 H62 0.950 . S
C91 C90 1.383 . S
C91 C92 1.395 . S
C92 H63 0.950 . S
C92 C91 1.395 . S
C92 C93 1.288 . S
C93 C92 1.288 . S
C93 C94 1.392 . S
C94 H64 0.951 . S
C94 C93 1.392 . S
C94 C95 1.392 . S
C95 H65 0.949 . S
C95 C90 1.382 . S
C95 C94 1.392 . S
H96 C115 0.949 . S
H97 C116 0.950 . S
H98 C118 0.950 . S
H99 C119 0.950 . S
H100 C121 0.950 . S
H101 C124 0.950 . S
H102 C125 0.950 . S
H103 C127 0.951 . S
H104 C128 0.949 . S
H105 C130 0.949 . S
H106 C131 0.950 . S
H107 C133 0.950 . S
H108 C134 0.950 . S
H109 C136 0.950 . S
H110 C139 0.950 . S
H111 C140 0.950 . S
H112 C142 0.951 . S
H113 C143 0.949 . S
C114 C115 1.376 . S
C114 C119 1.386 . S
C114 C120 1.483 . S
C115 H96 0.949 . S
C115 C114 1.376 . S
C115 C116 1.397 . S
C116 H97 0.950 . S
C116 C115 1.397 . S
C116 C117 1.391 . S
C117 C116 1.391 . S
C117 C118 1.405 . S
C118 H98 0.950 . S
C118 C117 1.405 . S
C118 C119 1.367 . S
C119 H99 0.950 . S
C119 C114 1.386 . S
C119 C118 1.367 . S
C120 C114 1.483 . S
C120 C121 1.382 . S
C120 C122 1.403 . S
C121 H100 0.950 . S
C121 C120 1.382 . S
C121 C137 1.411 . S
C122 C120 1.403 . S
C122 C123 1.489 . S
C122 C136 1.411 . S
C123 C122 1.489 . S
C123 C124 1.383 . S
C123 C128 1.382 . S
C124 H101 0.950 . S
C124 C123 1.383 . S
C124 C125 1.395 . S
C125 H102 0.950 . S
C125 C124 1.395 . S
C125 C126 1.288 . S
C126 C125 1.288 . S
C126 C127 1.392 . S
C127 H103 0.951 . S
C127 C126 1.392 . S
C127 C128 1.392 . S
C128 H104 0.949 . S
C128 C123 1.382 . S
C128 C127 1.392 . S
C129 C130 1.376 . S
C129 C134 1.386 . S
C129 C135 1.483 . S
C130 H105 0.949 . S
C130 C129 1.376 . S
C130 C131 1.397 . S
C131 H106 0.950 . S
C131 C130 1.397 . S
C131 C132 1.391 . S
C132 C131 1.391 . S
C132 C133 1.405 . S
C133 H107 0.950 . S
C133 C132 1.405 . S
C133 C134 1.367 . S
C134 H108 0.950 . S
C134 C129 1.386 . S
C134 C133 1.367 . S
C135 C129 1.483 . S
C135 C136 1.382 . S
C135 C137 1.403 . S
C136 H109 0.950 . S
C136 C122 1.411 . S
C136 C135 1.382 . S
C137 C121 1.411 . S
C137 C135 1.403 . S
C137 C138 1.489 . S
C138 C137 1.489 . S
C138 C139 1.383 . S
C138 C143 1.382 . S
C139 H110 0.950 . S
C139 C138 1.383 . S
C139 C140 1.395 . S
C140 H111 0.950 . S
C140 C139 1.395 . S
C140 C141 1.288 . S
C141 C140 1.288 . S
C141 C142 1.392 . S
C142 H112 0.951 . S
C142 C141 1.392 . S
C142 C143 1.392 . S
C143 H113 0.949 . S
C143 C138 1.382 . S
C143 C142 1.392 . S
H144 C163 0.949 . S
H145 C164 0.950 . S
H146 C166 0.950 . S
H147 C167 0.950 . S
H148 C169 0.951 . S
H149 C172 0.950 . S
H150 C173 0.950 . S
H151 C175 0.951 . S
H152 C176 0.949 . S
H153 C178 0.949 . S
H154 C179 0.950 . S
H155 C181 0.950 . S
H156 C182 0.950 . S
H157 C184 0.950 . S
H158 C187 0.950 . S
H159 C188 0.950 . S
H160 C190 0.951 . S
H161 C191 0.949 . S
C162 C163 1.376 . S
C162 C167 1.386 . S
C162 C168 1.483 . S
C163 H144 0.949 . S
C163 C162 1.376 . S
C163 C164 1.397 . S
C164 H145 0.950 . S
C164 C163 1.397 . S
C164 C165 1.391 . S
C165 C164 1.391 . S
C165 C166 1.405 . S
C166 H146 0.950 . S
C166 C165 1.405 . S
C166 C167 1.367 . S
C167 H147 0.950 . S
C167 C162 1.386 . S
C167 C166 1.367 . S
C168 C162 1.483 . S
C168 C169 1.379 1_455 S
C168 C170 1.403 . S
C169 H148 0.951 . S
C169 C168 1.379 1_655 S
C169 C185 1.413 . S
C170 C168 1.403 . S
C170 C171 1.489 . S
C170 C184 1.411 . S
C171 C170 1.489 . S
C171 C172 1.383 . S
C171 C176 1.382 . S
C172 H149 0.950 . S
C172 C171 1.383 . S
C172 C173 1.395 . S
C173 H150 0.950 . S
C173 C172 1.395 . S
C173 C174 1.288 . S
C174 C173 1.288 . S
C174 C175 1.392 . S
C175 H151 0.951 . S
C175 C174 1.392 . S
C175 C176 1.392 . S
C176 H152 0.949 . S
C176 C171 1.382 . S
C176 C175 1.392 . S
C177 C178 1.376 . S
C177 C182 1.386 . S
C177 C183 1.483 . S
C178 H153 0.949 . S
C178 C177 1.376 . S
C178 C179 1.397 . S
C179 H154 0.950 . S
C179 C178 1.397 . S
C179 C180 1.391 . S
C180 C179 1.391 . S
C180 C181 1.405 . S
C181 H155 0.950 . S
C181 C180 1.405 . S
C181 C182 1.367 . S
C182 H156 0.950 . S
C182 C177 1.386 . S
C182 C181 1.367 . S
C183 C177 1.483 . S
C183 C184 1.382 1_655 S
C183 C185 1.403 . S
C184 H157 0.950 . S
C184 C170 1.411 . S
C184 C183 1.382 1_455 S
C185 C169 1.413 . S
C185 C183 1.403 . S
C185 C186 1.489 . S
C186 C185 1.489 . S
C186 C187 1.383 . S
C186 C191 1.382 . S
C187 H158 0.950 . S
C187 C186 1.383 . S
C187 C188 1.395 . S
C188 H159 0.950 . S
C188 C187 1.395 . S
C188 C189 1.288 . S
C189 C188 1.288 . S
C189 C190 1.392 . S
C190 H160 0.951 . S
C190 C189 1.392 . S
C190 C191 1.392 . S
C191 H161 0.949 . S
C191 C186 1.382 . S
C191 C190 1.392 . S
H192 C211 0.949 . S
H193 C212 0.950 . S
H194 C214 0.950 . S
H195 C215 0.966 . S
H196 C217 0.950 . S
H197 C220 0.950 . S
H198 C221 0.950 . S
H199 C223 0.951 . S
H200 C224 0.949 . S
H201 C226 0.949 . S
H202 C227 0.950 . S
H203 C229 0.950 . S
H204 C230 0.950 . S
H205 C232 0.950 . S
H206 C235 0.950 . S
H207 C236 0.950 . S
H208 C238 0.951 . S
H209 C239 0.949 . S
C210 C211 1.376 . S
C210 C215 1.380 1_554 S
C210 C216 1.483 1_554 S
C211 H192 0.949 . S
C211 C210 1.376 . S
C211 C212 1.397 . S
C212 H193 0.950 . S
C212 C211 1.397 . S
C212 C213 1.391 . S
C213 C212 1.391 . S
C213 C214 1.405 . S
C214 H194 0.950 . S
C214 C213 1.405 . S
C214 C215 1.359 1_554 S
C215 H195 0.966 . S
C215 C210 1.380 1_556 S
C215 C214 1.359 1_556 S
C216 C210 1.483 1_556 S
C216 C217 1.382 1_556 S
C216 C218 1.403 . S
C217 H196 0.950 . S
C217 C216 1.382 1_554 S
C217 C233 1.411 1_545 S
C218 C216 1.403 . S
C218 C219 1.489 . S
C218 C232 1.411 1_545 S
C219 C218 1.489 . S
C219 C220 1.383 . S
C219 C224 1.382 . S
C220 H197 0.950 . S
C220 C219 1.383 . S
C220 C221 1.395 . S
C221 H198 0.950 . S
C221 C220 1.395 . S
C221 C222 1.288 . S
C222 C221 1.288 . S
C222 C223 1.392 . S
C223 H199 0.951 . S
C223 C222 1.392 . S
C223 C224 1.392 . S
C224 H200 0.949 . S
C224 C219 1.382 . S
C224 C223 1.392 . S
C225 C226 1.376 . S
C225 C230 1.386 . S
C225 C231 1.483 . S
C226 H201 0.949 . S
C226 C225 1.376 . S
C226 C227 1.397 . S
C227 H202 0.950 . S
C227 C226 1.397 . S
C227 C228 1.391 . S
C228 C227 1.391 . S
C228 C229 1.405 . S
C229 H203 0.950 . S
C229 C228 1.405 . S
C229 C230 1.367 . S
C230 H204 0.950 . S
C230 C225 1.386 . S
C230 C229 1.367 . S
C231 C225 1.483 . S
C231 C232 1.382 . S
C231 C233 1.403 1_556 S
C232 H205 0.950 . S
C232 C218 1.411 1_565 S
C232 C231 1.382 . S
C233 C217 1.411 1_565 S
C233 C231 1.403 1_554 S
C233 C234 1.489 . S
C234 C233 1.489 . S
C234 C235 1.383 . S
C234 C239 1.382 . S
C235 H206 0.950 . S
C235 C234 1.383 . S
C235 C236 1.395 . S
C236 H207 0.950 . S
C236 C235 1.395 . S
C236 C237 1.288 . S
C237 C236 1.288 . S
C237 C238 1.392 . S
C238 H208 0.951 . S
C238 C237 1.392 . S
C238 C239 1.392 . S
C239 H209 0.949 . S
C239 C234 1.382 . S
C239 C238 1.392 . S
H240 C259 0.949 . S
H241 C260 0.950 . S
H242 C262 0.950 . S
H243 C263 0.950 . S
H244 C265 0.950 . S
H245 C268 0.950 . S
H246 C269 0.950 . S
H247 C271 0.951 . S
H248 C272 0.949 . S
H249 C274 0.949 . S
H250 C275 0.950 . S
H251 C277 0.950 . S
H252 C278 0.950 . S
H253 C280 0.950 . S
H254 C283 0.950 . S
H255 C284 0.950 . S
H256 C286 0.951 . S
H257 C287 0.949 . S
C258 C259 1.376 . S
C258 C263 1.386 . S
C258 C264 1.483 . S
C259 H240 0.949 . S
C259 C258 1.376 . S
C259 C260 1.397 . S
C260 H241 0.950 . S
C260 C259 1.397 . S
C260 C261 1.391 . S
C261 C260 1.391 . S
C261 C262 1.405 . S
C262 H242 0.950 . S
C262 C261 1.405 . S
C262 C263 1.367 . S
C263 H243 0.950 . S
C263 C258 1.386 . S
C263 C262 1.367 . S
C264 C258 1.483 . S
C264 C265 1.382 . S
C264 C266 1.403 . S
C265 H244 0.950 . S
C265 C264 1.382 . S
C265 C281 1.411 . S
C266 C264 1.403 . S
C266 C267 1.489 . S
C266 C280 1.411 . S
C267 C266 1.489 . S
C267 C268 1.383 . S
C267 C272 1.382 . S
C268 H245 0.950 . S
C268 C267 1.383 . S
C268 C269 1.395 . S
C269 H246 0.950 . S
C269 C268 1.395 . S
C269 C270 1.288 . S
C270 C269 1.288 . S
C270 C271 1.392 . S
C271 H247 0.951 . S
C271 C270 1.392 . S
C271 C272 1.392 . S
C272 H248 0.949 . S
C272 C267 1.382 . S
C272 C271 1.392 . S
C273 C274 1.376 . S
C273 C278 1.386 . S
C273 C279 1.483 . S
C274 H249 0.949 . S
C274 C273 1.376 . S
C274 C275 1.397 . S
C275 H250 0.950 . S
C275 C274 1.397 . S
C275 C276 1.391 . S
C276 C275 1.391 . S
C276 C277 1.405 . S
C277 H251 0.950 . S
C277 C276 1.405 . S
C277 C278 1.367 . S
C278 H252 0.950 . S
C278 C273 1.386 . S
C278 C277 1.367 . S
C279 C273 1.483 . S
C279 C280 1.382 . S
C279 C281 1.403 . S
C280 H253 0.950 . S
C280 C266 1.411 . S
C280 C279 1.382 . S
C281 C265 1.411 . S
C281 C279 1.403 . S
C281 C282 1.489 . S
C282 C281 1.489 . S
C282 C283 1.383 . S
C282 C287 1.382 . S
C283 H254 0.950 . S
C283 C282 1.383 . S
C283 C284 1.395 . S
C284 H255 0.950 . S
C284 C283 1.395 . S
C284 C285 1.288 . S
C285 C284 1.288 . S
C285 C286 1.392 . S
C286 H256 0.951 . S
C286 C285 1.392 . S
C286 C287 1.392 . S
C287 H257 0.949 . S
C287 C282 1.382 . S
C287 C286 1.392 . S
Zn288 O291 2.031 . S
Zn288 O293 2.049 . S
Zn288 O298 2.067 . S
Zn289 O290 1.962 . S
Zn289 O292 1.986 . S
Zn289 O294 1.996 . S
Zn289 O297 1.943 . S
O290 Zn289 1.962 . S
O290 C295 1.254 . S
O291 Zn288 2.031 . S
O291 C295 1.269 . S
O292 Zn289 1.986 . S
O292 C299 1.262 . S
O293 Zn288 2.049 . S
O293 C301 1.260 . S
O294 Zn289 1.996 . S
O294 C301 1.257 . S
C295 O290 1.254 . S
C295 O291 1.269 . S
C296 O297 1.249 . S
C296 O298 1.270 . S
O297 Zn289 1.943 . S
O297 C296 1.249 . S
O298 Zn288 2.067 . S
O298 C296 1.270 . S
C299 O292 1.262 . S
C299 O300 1.232 . S
O300 C299 1.232 . S
C301 O293 1.260 . S
C301 O294 1.257 . S
Zn302 O305 2.031 . S
Zn302 O307 2.049 . S
Zn302 O312 2.067 . S
Zn303 O304 1.962 . S
Zn303 O306 1.986 . S
Zn303 O308 1.996 . S
Zn303 O311 1.943 . S
O304 Zn303 1.962 . S
O304 C309 1.254 . S
O305 Zn302 2.031 . S
O305 C309 1.269 . S
O306 Zn303 1.986 . S
O306 C313 1.262 . S
O307 Zn302 2.049 . S
O307 C315 1.260 . S
O308 Zn303 1.996 . S
O308 C315 1.257 . S
C309 O304 1.254 . S
C309 O305 1.269 . S
C310 O311 1.249 . S
C310 O312 1.270 . S
O311 Zn303 1.943 . S
O311 C310 1.249 . S
O312 Zn302 2.067 . S
O312 C310 1.270 . S
C313 O306 1.262 . S
C313 O314 1.232 . S
O314 C313 1.232 . S
C315 O307 1.260 . S
C315 O308 1.257 . S
Zn316 O319 2.031 . S
Zn316 O321 2.049 . S
Zn316 O326 2.067 . S
Zn317 O318 1.962 . S
Zn317 O320 1.986 . S
Zn317 O322 1.996 . S
Zn317 O325 1.943 . S
O318 Zn317 1.962 . S
O318 C323 1.254 . S
O319 Zn316 2.031 . S
O319 C323 1.269 . S
O320 Zn317 1.986 . S
O320 C327 1.262 . S
O321 Zn316 2.049 . S
O321 C329 1.260 . S
O322 Zn317 1.996 . S
O322 C329 1.257 . S
C323 O318 1.254 . S
C323 O319 1.269 . S
C324 O325 1.249 . S
C324 O326 1.270 . S
O325 Zn317 1.943 . S
O325 C324 1.249 . S
O326 Zn316 2.067 . S
O326 C324 1.270 . S
C327 O320 1.262 . S
C327 O328 1.232 . S
O328 C327 1.232 . S
C329 O321 1.260 . S
C329 O322 1.257 . S
Zn330 O333 2.031 . S
Zn330 O335 2.049 . S
Zn330 O340 2.067 . S
Zn331 O332 1.962 . S
Zn331 O334 1.986 . S
Zn331 O336 1.996 . S
Zn331 O339 1.943 . S
O332 Zn331 1.962 . S
O332 C337 1.254 . S
O333 Zn330 2.031 . S
O333 C337 1.269 . S
O334 Zn331 1.986 . S
O334 C341 1.262 . S
O335 Zn330 2.049 . S
O335 C343 1.260 . S
O336 Zn331 1.996 . S
O336 C343 1.257 . S
C337 O332 1.254 . S
C337 O333 1.269 . S
C338 O339 1.249 . S
C338 O340 1.270 . S
O339 Zn331 1.943 . S
O339 C338 1.249 . S
O340 Zn330 2.067 . S
O340 C338 1.270 . S
C341 O334 1.262 . S
C341 O342 1.232 . S
O342 C341 1.232 . S
C343 O335 1.260 . S
C343 O336 1.257 . S
Zn344 O347 2.031 . S
Zn344 O349 2.049 . S
Zn344 O354 2.067 . S
Zn345 O346 1.962 . S
Zn345 O348 1.986 . S
Zn345 O350 1.996 . S
Zn345 O353 1.943 . S
O346 Zn345 1.962 . S
O346 C351 1.254 . S
O347 Zn344 2.031 . S
O347 C351 1.269 . S
O348 Zn345 1.986 . S
O348 C355 1.262 . S
O349 Zn344 2.049 . S
O349 C357 1.260 . S
O350 Zn345 1.996 . S
O350 C357 1.257 . S
C351 O346 1.254 . S
C351 O347 1.269 . S
C352 O353 1.249 . S
C352 O354 1.270 . S
O353 Zn345 1.943 . S
O353 C352 1.249 . S
O354 Zn344 2.067 . S
O354 C352 1.270 . S
C355 O348 1.262 . S
C355 O356 1.232 . S
O356 C355 1.232 . S
C357 O349 1.260 . S
C357 O350 1.257 . S
Zn358 O361 2.031 . S
Zn358 O363 2.049 . S
Zn358 O368 2.067 . S
Zn359 O360 1.962 . S
Zn359 O362 1.986 . S
Zn359 O364 1.996 . S
Zn359 O367 1.943 . S
O360 Zn359 1.962 . S
O360 C365 1.254 . S
O361 Zn358 2.031 . S
O361 C365 1.269 . S
O362 Zn359 1.986 . S
O362 C369 1.262 . S
O363 Zn358 2.049 . S
O363 C371 1.260 . S
O364 Zn359 1.996 . S
O364 C371 1.257 . S
C365 O360 1.254 . S
C365 O361 1.269 . S
C366 O367 1.249 . S
C366 O368 1.270 . S
O367 Zn359 1.943 . S
O367 C366 1.249 . S
O368 Zn358 2.067 . S
O368 C366 1.270 . S
C369 O362 1.262 . S
C369 O370 1.232 . S
O370 C369 1.232 . S
C371 O363 1.260 . S
C371 O364 1.257 . S
C372 C373 1.363 . S
C372 C378 1.379 . S
C372 N380 1.356 . S
C373 C372 1.363 . S
C373 C379 1.363 . S
C374 C375 1.363 . S
C374 C379 1.379 . S
C374 N381 1.356 . S
C375 C374 1.363 . S
C375 C378 1.363 . S
N376 C378 1.356 . S
N376 H388 0.984 . S
N376 H389 0.985 . S
N377 C379 1.356 . S
N377 H382 0.984 . S
N377 H383 0.985 . S
C378 C372 1.379 . S
C378 C375 1.363 . S
C378 N376 1.356 . S
C379 C373 1.363 . S
C379 C374 1.379 . S
C379 N377 1.356 . S
N380 C372 1.356 . S
N380 H386 0.984 . S
N380 H387 0.984 . S
N381 C374 1.356 . S
N381 H384 0.984 . S
N381 H385 0.985 . S
H382 N377 0.984 . S
H383 N377 0.985 . S
H384 N381 0.984 . S
H385 N381 0.985 . S
H386 N380 0.984 . S
H387 N380 0.984 . S
H388 N376 0.984 . S
H389 N376 0.985 . S
C390 C391 1.363 . S
C390 C396 1.379 . S
C390 N398 1.356 . S
C391 C390 1.363 . S
C391 C397 1.363 . S
C392 C393 1.363 . S
C392 C397 1.379 . S
C392 N399 1.356 . S
C393 C392 1.363 . S
C393 C396 1.363 . S
N394 C396 1.356 . S
N394 H406 0.984 . S
N394 H407 0.985 . S
N395 C397 1.356 . S
N395 H400 0.984 . S
N395 H401 0.985 . S
C396 C390 1.379 . S
C396 C393 1.363 . S
C396 N394 1.356 . S
C397 C391 1.363 . S
C397 C392 1.379 . S
C397 N395 1.356 . S
N398 C390 1.356 . S
N398 H404 0.984 . S
N398 H405 0.984 . S
N399 C392 1.356 . S
N399 H402 0.984 . S
N399 H403 0.985 . S
H400 N395 0.984 . S
H401 N395 0.985 . S
H402 N399 0.984 . S
H403 N399 0.985 . S
H404 N398 0.984 . S
H405 N398 0.984 . S
H406 N394 0.984 . S
H407 N394 0.985 . S
C408 C409 1.363 . S
C408 C414 1.379 . S
C408 N416 1.356 . S
C409 C408 1.363 . S
C409 C415 1.363 . S
C410 C411 1.363 . S
C410 C415 1.379 . S
C410 N417 1.356 . S
C411 C410 1.363 . S
C411 C414 1.363 . S
N412 C414 1.356 . S
N412 H424 0.984 . S
N412 H425 0.985 . S
N413 C415 1.356 . S
N413 H418 0.984 . S
N413 H419 0.985 . S
C414 C408 1.379 . S
C414 C411 1.363 . S
C414 N412 1.356 . S
C415 C409 1.363 . S
C415 C410 1.379 . S
C415 N413 1.356 . S
N416 C408 1.356 . S
N416 H422 0.984 . S
N416 H423 0.984 . S
N417 C410 1.356 . S
N417 H420 0.984 . S
N417 H421 0.985 . S
H418 N413 0.984 . S
H419 N413 0.985 . S
H420 N417 0.984 . S
H421 N417 0.985 . S
H422 N416 0.984 . S
H423 N416 0.984 . S
H424 N412 0.984 . S
H425 N412 0.985 . S
C426 C427 1.363 . S
C426 C432 1.379 . S
C426 N434 1.356 . S
C427 C426 1.363 . S
C427 C433 1.363 . S
C428 C429 1.363 . S
C428 C433 1.379 . S
C428 N435 1.356 . S
C429 C428 1.363 . S
C429 C432 1.363 . S
N430 C432 1.356 . S
N430 H442 0.984 . S
N430 H443 0.985 . S
N431 C433 1.356 . S
N431 H436 0.984 . S
N431 H437 0.985 . S
C432 C426 1.379 . S
C432 C429 1.363 . S
C432 N430 1.356 . S
C433 C427 1.363 . S
C433 C428 1.379 . S
C433 N431 1.356 . S
N434 C426 1.356 . S
N434 H440 0.984 . S
N434 H441 0.984 . S
N435 C428 1.356 . S
N435 H438 0.984 . S
N435 H439 0.985 . S
H436 N431 0.984 . S
H437 N431 0.985 . S
H438 N435 0.984 . S
H439 N435 0.985 . S
H440 N434 0.984 . S
H441 N434 0.984 . S
H442 N430 0.984 . S
H443 N430 0.985 . S
C444 C445 1.363 . S
C444 C450 1.379 . S
C444 N452 1.356 . S
C445 C444 1.363 . S
C445 C451 1.363 . S
C446 C447 1.363 . S
C446 C451 1.379 . S
C446 N453 1.356 . S
C447 C446 1.363 . S
C447 C450 1.363 . S
N448 C450 1.356 . S
N448 H460 0.984 . S
N448 H461 0.985 . S
N449 C451 1.356 . S
N449 H454 0.984 . S
N449 H455 0.985 . S
C450 C444 1.379 . S
C450 C447 1.363 . S
C450 N448 1.356 . S
C451 C445 1.363 . S
C451 C446 1.379 . S
C451 N449 1.356 . S
N452 C444 1.356 . S
N452 H458 0.984 . S
N452 H459 0.984 . S
N453 C446 1.356 . S
N453 H456 0.984 . S
N453 H457 0.985 . S
H454 N449 0.984 . S
H455 N449 0.985 . S
H456 N453 0.984 . S
H457 N453 0.985 . S
H458 N452 0.984 . S
H459 N452 0.984 . S
H460 N448 0.984 . S
H461 N448 0.985 . S
C462 C463 1.363 . S
C462 C468 1.379 . S
C462 N470 1.356 . S
C463 C462 1.363 . S
C463 C469 1.363 . S
C464 C465 1.363 . S
C464 C469 1.379 . S
C464 N471 1.356 . S
C465 C464 1.363 . S
C465 C468 1.363 . S
N466 C468 1.356 . S
N466 H478 0.984 . S
N466 H479 0.985 . S
N467 C469 1.356 . S
N467 H472 0.984 . S
N467 H473 0.985 . S
C468 C462 1.379 . S
C468 C465 1.363 . S
C468 N466 1.356 . S
C469 C463 1.363 . S
C469 C464 1.379 . S
C469 N467 1.356 . S
N470 C462 1.356 . S
N470 H476 0.984 . S
N470 H477 0.984 . S
N471 C464 1.356 . S
N471 H474 0.984 . S
N471 H475 0.985 . S
H472 N467 0.984 . S
H473 N467 0.985 . S
H474 N471 0.984 . S
H475 N471 0.985 . S
H476 N470 0.984 . S
H477 N470 0.984 . S
H478 N466 0.984 . S
H479 N466 0.985 . S
C480 C481 1.363 . S
C480 C486 1.379 . S
C480 N488 1.356 . S
C481 C480 1.363 . S
C481 C487 1.363 . S
C482 C483 1.363 . S
C482 C487 1.379 . S
C482 N489 1.356 . S
C483 C482 1.363 . S
C483 C486 1.363 . S
N484 C486 1.356 . S
N484 H496 0.984 . S
N484 H497 0.985 . S
N485 C487 1.356 . S
N485 H490 0.984 . S
N485 H491 0.985 . S
C486 C480 1.379 . S
C486 C483 1.363 . S
C486 N484 1.356 . S
C487 C481 1.363 . S
C487 C482 1.379 . S
C487 N485 1.356 . S
N488 C480 1.356 . S
N488 H494 0.984 . S
N488 H495 0.984 . S
N489 C482 1.356 . S
N489 H492 0.984 . S
N489 H493 0.985 . S
H490 N485 0.984 . S
H491 N485 0.985 . S
H492 N489 0.984 . S
H493 N489 0.985 . S
H494 N488 0.984 . S
H495 N488 0.984 . S
H496 N484 0.984 . S
H497 N484 0.985 . S
C498 C499 1.363 . S
C498 C504 1.379 . S
C498 N506 1.356 . S
C499 C498 1.363 . S
C499 C505 1.363 . S
C500 C501 1.363 . S
C500 C505 1.379 . S
C500 N507 1.356 . S
C501 C500 1.363 . S
C501 C504 1.363 . S
N502 C504 1.356 . S
N502 H514 0.984 . S
N502 H515 0.985 . S
N503 C505 1.356 . S
N503 H508 0.984 . S
N503 H509 0.985 . S
C504 C498 1.379 . S
C504 C501 1.363 . S
C504 N502 1.356 . S
C505 C499 1.363 . S
C505 C500 1.379 . S
C505 N503 1.356 . S
N506 C498 1.356 . S
N506 H512 0.984 . S
N506 H513 0.984 . S
N507 C500 1.356 . S
N507 H510 0.984 . S
N507 H511 0.985 . S
H508 N503 0.984 . S
H509 N503 0.985 . S
H510 N507 0.984 . S
H511 N507 0.985 . S
H512 N506 0.984 . S
H513 N506 0.984 . S
H514 N502 0.984 . S
H515 N502 0.985 . S
C516 C517 1.363 . S
C516 C522 1.379 . S
C516 N524 1.356 . S
C517 C516 1.363 . S
C517 C523 1.363 . S
C518 C519 1.363 . S
C518 C523 1.379 . S
C518 N525 1.356 . S
C519 C518 1.363 . S
C519 C522 1.363 . S
N520 C522 1.356 . S
N520 H532 0.984 . S
N520 H533 0.985 . S
N521 C523 1.356 . S
N521 H526 0.984 . S
N521 H527 0.985 . S
C522 C516 1.379 . S
C522 C519 1.363 . S
C522 N520 1.356 . S
C523 C517 1.363 . S
C523 C518 1.379 . S
C523 N521 1.356 . S
N524 C516 1.356 . S
N524 H530 0.984 . S
N524 H531 0.984 . S
N525 C518 1.356 . S
N525 H528 0.984 . S
N525 H529 0.985 . S
H526 N521 0.984 . S
H527 N521 0.985 . S
H528 N525 0.984 . S
H529 N525 0.985 . S
H530 N524 0.984 . S
H531 N524 0.984 . S
H532 N520 0.984 . S
H533 N520 0.985 . S
C534 C535 1.363 . S
C534 C540 1.379 . S
C534 N542 1.356 . S
C535 C534 1.363 . S
C535 C541 1.363 . S
C536 C537 1.363 . S
C536 C541 1.379 . S
C536 N543 1.356 . S
C537 C536 1.363 . S
C537 C540 1.363 . S
N538 C540 1.356 . S
N538 H550 0.984 . S
N538 H551 0.985 . S
N539 C541 1.356 1_556 S
N539 H544 0.984 . S
N539 H545 0.985 . S
C540 C534 1.379 . S
C540 C537 1.363 . S
C540 N538 1.356 . S
C541 C535 1.363 . S
C541 C536 1.379 . S
C541 N539 1.356 1_554 S
N542 C534 1.356 . S
N542 H548 0.984 . S
N542 H549 0.984 . S
N543 C536 1.356 . S
N543 H546 0.984 . S
N543 H547 0.985 1_554 S
H544 N539 0.984 . S
H545 N539 0.985 . S
H546 N543 0.984 . S
H547 N543 0.985 1_556 S
H548 N542 0.984 . S
H549 N542 0.984 . S
H550 N538 0.984 . S
H551 N538 0.985 . S
C552 C553 1.363 . S
C552 C558 1.379 . S
C552 N560 1.356 . S
C553 C552 1.363 . S
C553 C559 1.363 . S
C554 C555 1.363 . S
C554 C559 1.379 . S
C554 N561 1.356 . S
C555 C554 1.363 . S
C555 C558 1.363 . S
N556 C558 1.356 . S
N556 H568 0.984 . S
N556 H569 0.985 . S
N557 C559 1.356 . S
N557 H562 0.984 . S
N557 H563 0.985 . S
C558 C552 1.379 . S
C558 C555 1.363 . S
C558 N556 1.356 . S
C559 C553 1.363 . S
C559 C554 1.379 . S
C559 N557 1.356 . S
N560 C552 1.356 . S
N560 H566 0.984 . S
N560 H567 0.984 . S
N561 C554 1.356 . S
N561 H564 0.984 . S
N561 H565 0.985 . S
H562 N557 0.984 . S
H563 N557 0.985 . S
H564 N561 0.984 . S
H565 N561 0.985 . S
H566 N560 0.984 . S
H567 N560 0.984 . S
H568 N556 0.984 . S
H569 N556 0.985 . S
C570 C571 1.363 . S
C570 C576 1.379 . S
C570 N578 1.356 . S
C571 C570 1.363 . S
C571 C577 1.363 . S
C572 C573 1.363 . S
C572 C577 1.379 . S
C572 N579 1.356 . S
C573 C572 1.363 . S
C573 C576 1.363 . S
N574 C576 1.356 . S
N574 H586 0.984 . S
N574 H587 0.985 . S
N575 C577 1.356 . S
N575 H580 0.984 . S
N575 H581 0.985 . S
C576 C570 1.379 . S
C576 C573 1.363 . S
C576 N574 1.356 . S
C577 C571 1.363 . S
C577 C572 1.379 . S
C577 N575 1.356 . S
N578 C570 1.356 . S
N578 H584 0.984 . S
N578 H585 0.984 . S
N579 C572 1.356 . S
N579 H582 0.984 . S
N579 H583 0.985 . S
H580 N575 0.984 . S
H581 N575 0.985 . S
H582 N579 0.984 . S
H583 N579 0.985 . S
H584 N578 0.984 . S
H585 N578 0.984 . S
H586 N574 0.984 . S
H587 N574 0.985 . S
C588 C589 1.363 . S
C588 C594 1.379 . S
C588 N596 1.356 . S
C589 C588 1.363 . S
C589 C595 1.363 . S
C590 C591 1.363 . S
C590 C595 1.379 . S
C590 N597 1.356 . S
C591 C590 1.363 . S
C591 C594 1.363 . S
N592 C594 1.356 . S
N592 H604 0.984 . S
N592 H605 0.985 . S
N593 C595 1.356 . S
N593 H598 0.984 . S
N593 H599 0.985 . S
C594 C588 1.379 . S
C594 C591 1.363 . S
C594 N592 1.356 . S
C595 C589 1.363 . S
C595 C590 1.379 . S
C595 N593 1.356 . S
N596 C588 1.356 . S
N596 H602 0.984 . S
N596 H603 0.984 . S
N597 C590 1.356 . S
N597 H600 0.984 . S
N597 H601 0.985 . S
H598 N593 0.984 . S
H599 N593 0.985 . S
H600 N597 0.984 . S
H601 N597 0.985 . S
H602 N596 0.984 . S
H603 N596 0.984 . S
H604 N592 0.984 . S
H605 N592 0.985 . S
C606 C607 1.363 . S
C606 C612 1.379 . S
C606 N614 1.356 . S
C607 C606 1.363 . S
C607 C613 1.363 . S
C608 C609 1.363 . S
C608 C613 1.379 . S
C608 N615 1.356 . S
C609 C608 1.363 . S
C609 C612 1.363 . S
N610 C612 1.356 . S
N610 H622 0.984 . S
N610 H623 0.985 . S
N611 C613 1.356 . S
N611 H616 0.984 . S
N611 H617 0.985 . S
C612 C606 1.379 . S
C612 C609 1.363 . S
C612 N610 1.356 . S
C613 C607 1.363 . S
C613 C608 1.379 . S
C613 N611 1.356 . S
N614 C606 1.356 . S
N614 H620 0.984 . S
N614 H621 0.984 . S
N615 C608 1.356 . S
N615 H618 0.984 . S
N615 H619 0.985 . S
H616 N611 0.984 . S
H617 N611 0.985 . S
H618 N615 0.984 . S
H619 N615 0.985 . S
H620 N614 0.984 . S
H621 N614 0.984 . S
H622 N610 0.984 . S
H623 N610 0.985 . S
C624 C625 1.363 . S
C624 C630 1.379 . S
C624 N632 1.356 . S
C625 C624 1.363 . S
C625 C631 1.363 . S
C626 C627 1.363 . S
C626 C631 1.379 . S
C626 N633 1.356 . S
C627 C626 1.363 . S
C627 C630 1.363 . S
N628 C630 1.356 . S
N628 H640 0.984 . S
N628 H641 0.985 . S
N629 C631 1.356 . S
N629 H634 0.984 . S
N629 H635 0.985 . S
C630 C624 1.379 . S
C630 C627 1.363 . S
C630 N628 1.356 . S
C631 C625 1.363 . S
C631 C626 1.379 . S
C631 N629 1.356 . S
N632 C624 1.356 . S
N632 H638 0.984 . S
N632 H639 0.984 . S
N633 C626 1.356 . S
N633 H636 0.984 . S
N633 H637 0.985 . S
H634 N629 0.984 . S
H635 N629 0.985 . S
H636 N633 0.984 . S
H637 N633 0.985 . S
H638 N632 0.984 . S
H639 N632 0.984 . S
H640 N628 0.984 . S
H641 N628 0.985 . S
C642 C643 1.363 . S
C642 C648 1.379 1_556 S
C642 N650 1.356 . S
C643 C642 1.363 . S
C643 C649 1.363 . S
C644 C645 1.370 . S
C644 C649 1.379 . S
C644 N651 1.356 . S
C645 C644 1.370 . S
C645 C648 1.363 1_556 S
N646 C648 1.356 . S
N646 H658 0.984 . S
N646 H659 0.985 . S
N647 C649 1.356 . S
N647 H652 0.984 . S
N647 H653 0.985 . S
C648 C642 1.379 1_554 S
C648 C645 1.363 1_554 S
C648 N646 1.356 . S
C649 C643 1.363 . S
C649 C644 1.379 . S
C649 N647 1.356 . S
N650 C642 1.356 . S
N650 H656 0.984 . S
N650 H657 0.984 . S
N651 C644 1.356 . S
N651 H654 0.990 . S
N651 H655 0.985 . S
H652 N647 0.984 . S
H653 N647 0.985 . S
H654 N651 0.990 . S
H655 N651 0.985 . S
H656 N650 0.984 . S
H657 N650 0.984 . S
H658 N646 0.984 . S
H659 N646 0.985 . S
C660 C661 1.363 . S
C660 C666 1.379 . S
C660 N668 1.356 . S
C661 C660 1.363 . S
C661 C667 1.363 . S
C662 C663 1.363 . S
C662 C667 1.379 . S
C662 N669 1.356 . S
C663 C662 1.363 . S
C663 C666 1.363 . S
N664 C666 1.356 . S
N664 H676 0.984 . S
N664 H677 0.985 . S
N665 C667 1.356 . S
N665 H670 0.984 . S
N665 H671 0.985 . S
C666 C660 1.379 . S
C666 C663 1.363 . S
C666 N664 1.356 . S
C667 C661 1.363 . S
C667 C662 1.379 . S
C667 N665 1.356 . S
N668 C660 1.356 . S
N668 H674 0.984 . S
N668 H675 0.984 . S
N669 C662 1.356 . S
N669 H672 0.984 . S
N669 H673 0.985 . S
H670 N665 0.984 . S
H671 N665 0.985 . S
H672 N669 0.984 . S
H673 N669 0.985 . S
H674 N668 0.984 . S
H675 N668 0.984 . S
H676 N664 0.984 . S
H677 N664 0.985 . S
C678 C679 1.363 . S
C678 C684 1.379 . S
C678 N686 1.356 . S
C679 C678 1.363 . S
C679 C685 1.363 . S
C680 C681 1.363 . S
C680 C685 1.379 . S
C680 N687 1.356 . S
C681 C680 1.363 . S
C681 C684 1.363 . S
N682 C684 1.356 . S
N682 H694 0.984 . S
N682 H695 0.985 . S
N683 C685 1.356 . S
N683 H688 0.984 . S
N683 H689 0.985 . S
C684 C678 1.379 . S
C684 C681 1.363 . S
C684 N682 1.356 . S
C685 C679 1.363 . S
C685 C680 1.379 . S
C685 N683 1.356 . S
N686 C678 1.356 . S
N686 H692 0.984 . S
N686 H693 0.984 . S
N687 C680 1.356 . S
N687 H690 0.984 . S
N687 H691 0.985 . S
H688 N683 0.984 . S
H689 N683 0.985 . S
H690 N687 0.984 . S
H691 N687 0.985 . S
H692 N686 0.984 . S
H693 N686 0.984 . S
H694 N682 0.984 . S
H695 N682 0.985 . S
C696 C697 1.363 . S
C696 C702 1.379 . S
C696 N704 1.356 . S
C697 C696 1.363 . S
C697 C703 1.363 . S
C698 C699 1.363 . S
C698 C703 1.379 . S
C698 N705 1.356 . S
C699 C698 1.363 . S
C699 C702 1.363 . S
N700 C702 1.356 . S
N700 H712 0.984 . S
N700 H713 0.985 . S
N701 C703 1.356 . S
N701 H706 0.984 . S
N701 H707 0.985 . S
C702 C696 1.379 . S
C702 C699 1.363 . S
C702 N700 1.356 . S
C703 C697 1.363 . S
C703 C698 1.379 . S
C703 N701 1.356 . S
N704 C696 1.356 . S
N704 H710 0.984 . S
N704 H711 0.984 . S
N705 C698 1.356 . S
N705 H708 0.984 . S
N705 H709 0.985 . S
H706 N701 0.984 . S
H707 N701 0.985 . S
H708 N705 0.984 . S
H709 N705 0.985 . S
H710 N704 0.984 . S
H711 N704 0.984 . S
H712 N700 0.984 . S
H713 N700 0.985 . S
C714 C715 1.363 . S
C714 C720 1.379 . S
C714 N722 1.356 . S
C715 C714 1.363 . S
C715 C721 1.363 . S
C716 C717 1.363 . S
C716 C721 1.379 . S
C716 N723 1.356 . S
C717 C716 1.363 . S
C717 C720 1.363 . S
N718 C720 1.356 . S
N718 H730 0.984 . S
N718 H731 0.985 . S
N719 C721 1.356 . S
N719 H724 0.984 . S
N719 H725 0.985 . S
C720 C714 1.379 . S
C720 C717 1.363 . S
C720 N718 1.356 . S
C721 C715 1.363 . S
C721 C716 1.379 . S
C721 N719 1.356 . S
N722 C714 1.356 . S
N722 H728 0.984 . S
N722 H729 0.984 . S
N723 C716 1.356 . S
N723 H726 0.984 . S
N723 H727 0.985 . S
H724 N719 0.984 . S
H725 N719 0.985 . S
H726 N723 0.984 . S
H727 N723 0.985 . S
H728 N722 0.984 . S
H729 N722 0.984 . S
H730 N718 0.984 . S
H731 N718 0.985 . S
C732 C733 1.363 . S
C732 C738 1.379 . S
C732 N740 1.356 . S
C733 C732 1.363 . S
C733 C739 1.363 . S
C734 C735 1.363 . S
C734 C739 1.379 . S
C734 N741 1.356 . S
C735 C734 1.363 . S
C735 C738 1.363 . S
N736 C738 1.356 . S
N736 H748 0.984 . S
N736 H749 0.985 . S
N737 C739 1.356 . S
N737 H742 0.984 . S
N737 H743 0.985 . S
C738 C732 1.379 . S
C738 C735 1.363 . S
C738 N736 1.356 . S
C739 C733 1.363 . S
C739 C734 1.379 . S
C739 N737 1.356 . S
N740 C732 1.356 . S
N740 H746 0.984 . S
N740 H747 0.984 . S
N741 C734 1.356 . S
N741 H744 0.984 . S
N741 H745 0.985 . S
H742 N737 0.984 . S
H743 N737 0.985 . S
H744 N741 0.984 . S
H745 N741 0.985 . S
H746 N740 0.984 . S
H747 N740 0.984 . S
H748 N736 0.984 . S
H749 N736 0.985 . S
C750 C751 1.363 . S
C750 C756 1.379 . S
C750 N758 1.356 . S
C751 C750 1.363 . S
C751 C757 1.363 . S
C752 C753 1.363 . S
C752 C757 1.379 . S
C752 N759 1.356 . S
C753 C752 1.363 . S
C753 C756 1.363 . S
N754 C756 1.356 . S
N754 H766 0.984 . S
N754 H767 0.985 . S
N755 C757 1.356 . S
N755 H760 0.984 . S
N755 H761 0.985 . S
C756 C750 1.379 . S
C756 C753 1.363 . S
C756 N754 1.356 . S
C757 C751 1.363 . S
C757 C752 1.379 . S
C757 N755 1.356 . S
N758 C750 1.356 . S
N758 H764 0.984 . S
N758 H765 0.984 . S
N759 C752 1.356 . S
N759 H762 0.984 . S
N759 H763 0.985 . S
H760 N755 0.984 . S
H761 N755 0.985 . S
H762 N759 0.984 . S
H763 N759 0.985 . S
H764 N758 0.984 . S
H765 N758 0.984 . S
H766 N754 0.984 . S
H767 N754 0.985 . S
C768 C769 1.363 . S
C768 C774 1.379 1_554 S
C768 N776 1.356 . S
C769 C768 1.363 . S
C769 C775 1.363 . S
C770 C771 1.363 1_554 S
C770 C775 1.379 . S
C770 N777 1.356 . S
C771 C770 1.363 1_556 S
C771 C774 1.363 . S
N772 C774 1.356 . S
N772 H784 0.984 . S
N772 H785 0.985 . S
N773 C775 1.356 . S
N773 H778 0.984 . S
N773 H779 0.985 . S
C774 C768 1.379 1_556 S
C774 C771 1.363 . S
C774 N772 1.356 . S
C775 C769 1.363 . S
C775 C770 1.379 . S
C775 N773 1.356 . S
N776 C768 1.356 . S
N776 H782 0.984 1_554 S
N776 H783 0.984 . S
N777 C770 1.356 . S
N777 H780 0.984 1_554 S
N777 H781 0.985 . S
H778 N773 0.984 . S
H779 N773 0.985 . S
H780 N777 0.984 1_556 S
H781 N777 0.985 . S
H782 N776 0.984 1_556 S
H783 N776 0.984 . S
H784 N772 0.984 . S
H785 N772 0.985 . S
C786 C787 1.363 . S
C786 C792 1.379 . S
C786 N794 1.356 . S
C787 C786 1.363 . S
C787 C793 1.363 . S
C788 C789 1.363 . S
C788 C793 1.379 . S
C788 N795 1.356 . S
C789 C788 1.363 . S
C789 C792 1.363 . S
N790 C792 1.356 . S
N790 H802 0.984 . S
N790 H803 0.985 . S
N791 C793 1.356 . S
N791 H796 0.984 . S
N791 H797 0.985 . S
C792 C786 1.379 . S
C792 C789 1.363 . S
C792 N790 1.356 . S
C793 C787 1.363 . S
C793 C788 1.379 . S
C793 N791 1.356 . S
N794 C786 1.356 . S
N794 H800 0.984 . S
N794 H801 0.984 . S
N795 C788 1.356 . S
N795 H798 0.984 . S
N795 H799 0.985 . S
H796 N791 0.984 . S
H797 N791 0.985 . S
H798 N795 0.984 . S
H799 N795 0.985 . S
H800 N794 0.984 . S
H801 N794 0.984 . S
H802 N790 0.984 . S
H803 N790 0.985 . S
C375 C365 1.598 . S
C373 C45 1.593 . S
C391 C84 1.521 . S
C393 C299 1.499 . S
C409 C126 1.436 . S
C411 C313 1.454 . S
C427 C189 1.557 . S
C429 C327 1.515 . S
C447 C341 1.569 . S
C445 C228 1.601 . S
C463 C270 1.525 . S
C465 C351 1.596 . S
C481 C69 1.582 . S
C483 C309 1.623 . S
C499 C141 1.688 . S
C501 C323 1.697 . S
C517 C174 1.577 . S
C519 C337 1.654 . S
C537 C355 1.555 . S
C535 C213 1.559 . S
C555 C369 1.545 . S
C553 C285 1.583 . S
C573 C295 1.582 . S
C571 C30 1.532 . S
C589 C36 1.521 . S
C591 C310 1.448 . S
C607 C93 1.582 . S
C609 C324 1.507 . S
C627 C338 1.512 . S
C625 C117 1.574 . S
C643 C180 1.494 . S
C645 C357 1.436 1_556 S
C663 C371 1.404 . S
C661 C237 1.471 . S
C681 C296 1.425 . S
C679 C261 1.489 . S
C699 C366 1.425 . S
C697 C78 1.481 . S
C715 C132 1.414 . S
C717 C301 1.370 . S
C735 C315 1.380 . S
C733 C165 1.410 . S
C751 C222 1.465 . S
C753 C329 1.417 . S
C769 C276 1.498 . S
C771 C343 1.449 . S
C787 C21 1.516 . S
C789 C352 1.454 . S
