# Generated by pormake.
# Topology wbl, (4,4)-cn, num edge types: 1
# Building blocks:
#     Node 0, Type 0, BuildingBlock: NAWXER_clean_linker_0, # of connection points: 4
#     Node 1, Type 0, BuildingBlock: NAWXER_clean_linker_0, # of connection points: 4
#     Node 2, Type 0, BuildingBlock: NAWXER_clean_linker_0, # of connection points: 4
#     Node 3, Type 0, BuildingBlock: NAWXER_clean_linker_0, # of connection points: 4
#     Node 4, Type 0, BuildingBlock: NAWXER_clean_linker_0, # of connection points: 4
#     Node 5, Type 0, BuildingBlock: NAWXER_clean_linker_0, # of connection points: 4
#     Node 6, Type 0, BuildingBlock: NAWXER_clean_linker_0, # of connection points: 4
#     Node 7, Type 0, BuildingBlock: NAWXER_clean_linker_0, # of connection points: 4
#     Node 8, Type 1, BuildingBlock: TATPOV_clean_sbu_0, # of connection points: 4
#     Node 9, Type 1, BuildingBlock: TATPOV_clean_sbu_0, # of connection points: 4
#     Node 10, Type 1, BuildingBlock: TATPOV_clean_sbu_0, # of connection points: 4
#     Node 11, Type 1, BuildingBlock: TATPOV_clean_sbu_0, # of connection points: 4
#     Node 12, Type 1, BuildingBlock: TATPOV_clean_sbu_0, # of connection points: 4
#     Node 13, Type 1, BuildingBlock: TATPOV_clean_sbu_0, # of connection points: 4
#     Node 14, Type 1, BuildingBlock: TATPOV_clean_sbu_0, # of connection points: 4
#     Node 15, Type 1, BuildingBlock: TATPOV_clean_sbu_0, # of connection points: 4
#     Edge 16, Type (0, 1), BuildingBlock: XUDNAN_clean_linker_2, # of connection points: 2
#     Edge 17, Type (0, 1), BuildingBlock: XUDNAN_clean_linker_2, # of connection points: 2
#     Edge 18, Type (0, 1), BuildingBlock: XUDNAN_clean_linker_2, # of connection points: 2
#     Edge 19, Type (0, 1), BuildingBlock: XUDNAN_clean_linker_2, # of connection points: 2
#     Edge 20, Type (0, 1), BuildingBlock: XUDNAN_clean_linker_2, # of connection points: 2
#     Edge 21, Type (0, 1), BuildingBlock: XUDNAN_clean_linker_2, # of connection points: 2
#     Edge 22, Type (0, 1), BuildingBlock: XUDNAN_clean_linker_2, # of connection points: 2
#     Edge 23, Type (0, 1), BuildingBlock: XUDNAN_clean_linker_2, # of connection points: 2
#     Edge 24, Type (0, 1), BuildingBlock: XUDNAN_clean_linker_2, # of connection points: 2
#     Edge 25, Type (0, 1), BuildingBlock: XUDNAN_clean_linker_2, # of connection points: 2
#     Edge 26, Type (0, 1), BuildingBlock: XUDNAN_clean_linker_2, # of connection points: 2
#     Edge 27, Type (0, 1), BuildingBlock: XUDNAN_clean_linker_2, # of connection points: 2
#     Edge 28, Type (0, 1), BuildingBlock: XUDNAN_clean_linker_2, # of connection points: 2
#     Edge 29, Type (0, 1), BuildingBlock: XUDNAN_clean_linker_2, # of connection points: 2
#     Edge 30, Type (0, 1), BuildingBlock: XUDNAN_clean_linker_2, # of connection points: 2
#     Edge 31, Type (0, 1), BuildingBlock: XUDNAN_clean_linker_2, # of connection points: 2
#     Edge 32, Type (0, 1), BuildingBlock: XUDNAN_clean_linker_2, # of connection points: 2
#     Edge 33, Type (0, 1), BuildingBlock: XUDNAN_clean_linker_2, # of connection points: 2
#     Edge 34, Type (0, 1), BuildingBlock: XUDNAN_clean_linker_2, # of connection points: 2
#     Edge 35, Type (0, 1), BuildingBlock: XUDNAN_clean_linker_2, # of connection points: 2
#     Edge 36, Type (0, 1), BuildingBlock: XUDNAN_clean_linker_2, # of connection points: 2
#     Edge 37, Type (0, 1), BuildingBlock: XUDNAN_clean_linker_2, # of connection points: 2
#     Edge 38, Type (0, 1), BuildingBlock: XUDNAN_clean_linker_2, # of connection points: 2
#     Edge 39, Type (0, 1), BuildingBlock: XUDNAN_clean_linker_2, # of connection points: 2
#     Edge 40, Type (0, 1), BuildingBlock: XUDNAN_clean_linker_2, # of connection points: 2
#     Edge 41, Type (0, 1), BuildingBlock: XUDNAN_clean_linker_2, # of connection points: 2
#     Edge 42, Type (0, 1), BuildingBlock: XUDNAN_clean_linker_2, # of connection points: 2
#     Edge 43, Type (0, 1), BuildingBlock: XUDNAN_clean_linker_2, # of connection points: 2
#     Edge 44, Type (0, 1), BuildingBlock: XUDNAN_clean_linker_2, # of connection points: 2
#     Edge 45, Type (0, 1), BuildingBlock: XUDNAN_clean_linker_2, # of connection points: 2
#     Edge 46, Type (0, 1), BuildingBlock: XUDNAN_clean_linker_2, # of connection points: 2
#     Edge 47, Type (0, 1), BuildingBlock: XUDNAN_clean_linker_2, # of connection points: 2
# Relax obj value: 0.173
# Max RMSD: 0.171
# Mean RMSD: 0.138
data_MOF--net-wbl--node1-TATPOV_clean_sbu_0--node2-NAWXER_clean_linker_0--edge1-XUDNAN_clean_linker_2
_symmetry_space_group_name_H-M    P1
_symmetry_Int_Tables_number       1
_symmetry_cell_setting            triclinic
loop_
_symmetry_equiv_pos_as_xyz
'x, y, z'
_cell_length_a     44.723912
_cell_length_b     44.712663
_cell_length_c     76.487227
_cell_angle_alpha  91.38629
_cell_angle_beta   91.458805
_cell_angle_gamma 90.051632
loop_
_atom_site_label
_atom_site_type_symbol
_atom_site_fract_x
_atom_site_fract_y
_atom_site_fract_z
_atom_type_partial_charge
C0 C 0.09439 0.95188 0.38974 0.0
C1 C 0.11159 0.9648 0.4036 0.0
C2 C 0.08157 0.96992 0.37684 0.0
C3 C 0.08627 0.00102 0.37746 0.0
C4 C 0.117 0.99574 0.40384 0.0
C5 C 0.10441 0.01364 0.39094 0.0
C6 C 0.06947 0.02126 0.36579 0.0
C7 C 0.12651 0.96406 0.33085 0.0
C8 C 0.11071 0.94853 0.31734 0.0
C9 C 0.1126 0.98667 0.34061 0.0
C10 C 0.08239 0.99371 0.33733 0.0
C11 C 0.08069 0.95601 0.31383 0.0
C12 C 0.0667 0.97837 0.32372 0.0
C13 C 0.06715 0.01778 0.34737 0.0
C14 C 0.00523 0.13328 0.32854 0.0
C15 C 0.98307 0.12293 0.31653 0.0
C16 C 0.02278 0.11302 0.33788 0.0
C17 C 0.01854 0.08207 0.33533 0.0
C18 C 0.97958 0.09195 0.31355 0.0
C19 C 0.99739 0.07169 0.32276 0.0
C20 C 0.03525 0.06061 0.34626 0.0
C21 C 0.96798 0.1015 0.38246 0.0
C22 C 0.97959 0.11527 0.3979 0.0
C23 C 0.98666 0.08565 0.37123 0.0
C24 C 0.01751 0.08381 0.37496 0.0
C25 C 0.0106 0.11428 0.40134 0.0
C26 C 0.02935 0.09858 0.39001 0.0
C27 C 0.03663 0.06323 0.36468 0.0
H28 H 0.08972 0.9281 0.38933 0.0
H29 H 0.06701 0.95974 0.36684 0.0
H30 H 0.13053 0.00623 0.41422 0.0
H31 H 0.10821 0.03758 0.39175 0.0
H32 H 0.14987 0.95921 0.3336 0.0
H33 H 0.12563 0.99889 0.35054 0.0
H34 H 0.06796 0.94438 0.30352 0.0
H35 H 0.04347 0.98355 0.32081 0.0
H36 H 0.00836 0.15702 0.33112 0.0
H37 H 0.03932 0.12152 0.34734 0.0
H38 H 0.96292 0.08339 0.30419 0.0
H39 H 0.9939 0.0479 0.32053 0.0
H40 H 0.94424 0.1021 0.37933 0.0
H41 H 0.97663 0.07366 0.3601 0.0
H42 H 0.02022 0.12433 0.41322 0.0
H43 H 0.053 0.09713 0.3933 0.0
N44 N 0.054 0.04374 0.37364 0.0
N45 N 0.05017 0.03775 0.33831 0.0
C46 C 0.9433 0.48741 0.63662 0.0
C47 C 0.95359 0.47541 0.65246 0.0
C48 C 0.96308 0.50246 0.62593 0.0
C49 C 0.99368 0.50473 0.63062 0.0
C50 C 0.98395 0.47814 0.65729 0.0
C51 C 0.00377 0.49251 0.64646 0.0
C52 C 0.01536 0.52112 0.61993 0.0
C53 C 0.97493 0.44923 0.58524 0.0
C54 C 0.96034 0.45972 0.57012 0.0
C55 C 0.99392 0.46804 0.59522 0.0
C56 C 0.99779 0.49799 0.59061 0.0
C57 C 0.96539 0.48917 0.56498 0.0
C58 C 0.98393 0.5082 0.57519 0.0
C59 C 0.01691 0.51855 0.60145 0.0
C60 C 0.13389 0.58188 0.59 0.0
C61 C 0.12625 0.60286 0.57725 0.0
C62 C 0.11187 0.56432 0.59732 0.0
C63 C 0.08167 0.56776 0.59229 0.0
C64 C 0.0963 0.60465 0.57126 0.0
C65 C 0.07417 0.58717 0.57872 0.0
C66 C 0.0579 0.55285 0.60207 0.0
C67 C 0.10243 0.62238 0.63633 0.0
C68 C 0.11789 0.61051 0.65079 0.0
C69 C 0.08148 0.60503 0.62681 0.0
C70 C 0.07625 0.57522 0.63129 0.0
C71 C 0.11141 0.58127 0.65586 0.0
C72 C 0.09075 0.56377 0.64617 0.0
C73 C 0.05609 0.55567 0.62045 0.0
H74 H 0.91985 0.4859 0.63279 0.0
H75 H 0.95436 0.51262 0.61415 0.0
H76 H 0.99236 0.46905 0.66946 0.0
H77 H 0.02712 0.49411 0.65052 0.0
H78 H 0.97183 0.42638 0.58923 0.0
H79 H 0.00537 0.45921 0.60662 0.0
H80 H 0.95446 0.49763 0.55331 0.0
H81 H 0.98703 0.53106 0.5712 0.0
H82 H 0.15685 0.57958 0.59462 0.0
H83 H 0.11827 0.54891 0.60747 0.0
H84 H 0.08974 0.62063 0.56147 0.0
H85 H 0.05104 0.58997 0.57454 0.0
H86 H 0.1066 0.64508 0.63238 0.0
H87 H 0.06975 0.61474 0.61577 0.0
H88 H 0.12304 0.57161 0.66695 0.0
H89 H 0.08679 0.54095 0.64999 0.0
N90 N 0.03514 0.53954 0.62862 0.0
N91 N 0.03802 0.53469 0.59324 0.0
C92 C 0.55874 0.39689 0.88616 0.0
C93 C 0.57535 0.40538 0.90136 0.0
C94 C 0.54519 0.41857 0.87569 0.0
C95 C 0.54821 0.44909 0.88019 0.0
C96 C 0.57813 0.43595 0.90582 0.0
C97 C 0.56461 0.45752 0.89539 0.0
C98 C 0.53313 0.47253 0.86988 0.0
C99 C 0.60005 0.43005 0.83352 0.0
C100 C 0.58857 0.42126 0.81692 0.0
C101 C 0.5827 0.4471 0.84496 0.0
C102 C 0.55317 0.45479 0.84023 0.0
C103 C 0.55926 0.42923 0.81207 0.0
C104 C 0.54169 0.44572 0.82365 0.0
C105 C 0.53502 0.47483 0.85147 0.0
C106 C 0.48633 0.59781 0.84045 0.0
C107 C 0.46372 0.59343 0.82757 0.0
C108 C 0.50016 0.57332 0.8482 0.0
C109 C 0.49172 0.54407 0.84313 0.0
C110 C 0.45589 0.56411 0.82216 0.0
C111 C 0.47004 0.53958 0.82976 0.0
C112 C 0.50433 0.51835 0.85252 0.0
C113 C 0.43679 0.56433 0.88388 0.0
C114 C 0.44932 0.5808 0.8981 0.0
C115 C 0.45322 0.54187 0.87563 0.0
C116 C 0.48278 0.53601 0.88115 0.0
C117 C 0.47805 0.57344 0.90448 0.0
C118 C 0.49473 0.55117 0.89602 0.0
C119 C 0.50164 0.51552 0.87072 0.0
H120 H 0.55623 0.37352 0.88235 0.0
H121 H 0.53209 0.41148 0.86422 0.0
H122 H 0.59023 0.44325 0.91761 0.0
H123 H 0.56694 0.48091 0.89924 0.0
H124 H 0.62283 0.42458 0.8374 0.0
H125 H 0.59276 0.45494 0.85725 0.0
H126 H 0.54997 0.4227 0.79932 0.0
H127 H 0.51915 0.45171 0.81956 0.0
H128 H 0.49268 0.62017 0.84489 0.0
H129 H 0.51703 0.57718 0.85843 0.0
H130 H 0.43873 0.56019 0.81211 0.0
H131 H 0.46332 0.51715 0.82568 0.0
H132 H 0.41443 0.56918 0.87896 0.0
H133 H 0.44316 0.52973 0.86455 0.0
H134 H 0.48809 0.58581 0.91548 0.0
H135 H 0.51738 0.54675 0.90059 0.0
N136 N 0.51646 0.49302 0.87877 0.0
N137 N 0.52051 0.49777 0.84355 0.0
C138 C 0.48121 0.93057 0.06345 0.0
C139 C 0.45206 0.93919 0.0678 0.0
C140 C 0.50593 0.94529 0.07114 0.0
C141 C 0.50187 0.96843 0.08352 0.0
C142 C 0.44804 0.96294 0.07986 0.0
C143 C 0.47278 0.97742 0.0877 0.0
C144 C 0.52809 0.98301 0.09211 0.0
C145 C 0.47892 0.97212 0.14717 0.0
C146 C 0.46968 0.9424 0.14386 0.0
C147 C 0.49997 0.98542 0.13658 0.0
C148 C 0.51206 0.9693 0.12247 0.0
C149 C 0.48274 0.92595 0.13015 0.0
C150 C 0.50391 0.93918 0.11967 0.0
C151 C 0.53248 0.98427 0.11046 0.0
C152 C 0.62592 0.08038 0.11978 0.0
C153 C 0.6432 0.06868 0.1336 0.0
C154 C 0.60395 0.0629 0.11121 0.0
C155 C 0.59935 0.03313 0.11598 0.0
C156 C 0.63816 0.03911 0.13863 0.0
C157 C 0.61639 0.02151 0.12989 0.0
C158 C 0.5758 0.01454 0.10717 0.0
C159 C 0.64232 0.03847 0.06692 0.0
C160 C 0.63033 0.05802 0.0544 0.0
C161 C 0.6235 0.02283 0.07783 0.0
C162 C 0.59236 0.02657 0.0765 0.0
C163 C 0.59905 0.06064 0.05265 0.0
C164 C 0.58029 0.04492 0.0635 0.0
C165 C 0.5721 0.01208 0.08875 0.0
H166 H 0.48486 0.91257 0.05401 0.0
H167 H 0.52823 0.93823 0.06769 0.0
H168 H 0.42579 0.96996 0.08342 0.0
H169 H 0.46925 0.99553 0.09708 0.0
H170 H 0.46923 0.98536 0.15762 0.0
H171 H 0.5061 0.00861 0.13906 0.0
H172 H 0.47662 0.90279 0.12754 0.0
H173 H 0.51365 0.92594 0.10923 0.0
H174 H 0.62886 0.10332 0.11591 0.0
H175 H 0.5903 0.07283 0.101 0.0
H176 H 0.65116 0.02957 0.14925 0.0
H177 H 0.61296 0.99874 0.13395 0.0
H178 H 0.66626 0.0355 0.06841 0.0
H179 H 0.63328 0.0082 0.0875 0.0
H180 H 0.58898 0.07576 0.04336 0.0
H181 H 0.55632 0.04802 0.06219 0.0
N182 N 0.54818 0.99666 0.08194 0.0
N183 N 0.55601 0.00027 0.11732 0.0
C184 C 0.05727 0.61887 0.87848 0.0
C185 C 0.07954 0.60505 0.86848 0.0
C186 C 0.03744 0.6015 0.88789 0.0
C187 C 0.03946 0.57011 0.88725 0.0
C188 C 0.08085 0.57368 0.86746 0.0
C189 C 0.06081 0.5564 0.8766 0.0
C190 C 0.02032 0.5511 0.89795 0.0
C191 C 0.08429 0.59973 0.93458 0.0
C192 C 0.07109 0.61603 0.94824 0.0
C193 C 0.06734 0.5796 0.92426 0.0
C194 C 0.03657 0.57627 0.92695 0.0
C195 C 0.04065 0.61197 0.95145 0.0
C196 C 0.02346 0.5923 0.94082 0.0
C197 C 0.01854 0.55434 0.91636 0.0
C198 C 0.96702 0.45889 0.9526 0.0
C199 C 0.93906 0.4474 0.94682 0.0
C200 C 0.98167 0.48046 0.94304 0.0
C201 C 0.96873 0.49115 0.92751 0.0
C202 C 0.92548 0.45922 0.93169 0.0
C203 C 0.94 0.48112 0.92227 0.0
C204 C 0.98592 0.51205 0.91676 0.0
C205 C 0.94406 0.46272 0.86488 0.0
C206 C 0.95093 0.43323 0.86962 0.0
C207 C 0.95672 0.48703 0.87417 0.0
C208 C 0.97604 0.48233 0.88853 0.0
C209 C 0.97094 0.42866 0.88378 0.0
C210 C 0.98345 0.453 0.89313 0.0
C211 C 0.98877 0.50816 0.89849 0.0
H212 H 0.05586 0.64303 0.87945 0.0
H213 H 0.02088 0.61252 0.89588 0.0
H214 H 0.09763 0.56252 0.85969 0.0
H215 H 0.06268 0.53225 0.87584 0.0
H216 H 0.10794 0.60208 0.93216 0.0
H217 H 0.07852 0.56632 0.91439 0.0
H218 H 0.03017 0.6242 0.96205 0.0
H219 H -7e-05 0.58959 0.94341 0.0
H220 H 0.9778 0.45106 0.96446 0.0
H221 H 0.00358 0.48817 0.94755 0.0
H222 H 0.904 0.451 0.92681 0.0
H223 H 0.92897 0.48975 0.91068 0.0
H224 H 0.92844 0.46707 0.8542 0.0
H225 H 0.95091 0.50953 0.87039 0.0
H226 H 0.97714 0.40628 0.88757 0.0
H227 H 0.99889 0.44896 0.90395 0.0
N228 N 0.00555 0.52794 0.88978 0.0
N229 N 0.00116 0.53487 0.92499 0.0
C230 C 0.42836 0.5487 0.1244 0.0
C231 C 0.44079 0.56722 0.11184 0.0
C232 C 0.44677 0.532 0.13549 0.0
C233 C 0.47799 0.53342 0.13426 0.0
C234 C 0.47212 0.56791 0.11036 0.0
C235 C 0.49049 0.55096 0.12137 0.0
C236 C 0.49765 0.51709 0.14659 0.0
C237 C 0.45629 0.5935 0.17451 0.0
C238 C 0.4348 0.58482 0.18649 0.0
C239 C 0.47675 0.57284 0.16802 0.0
C240 C 0.47587 0.54292 0.17313 0.0
C241 C 0.43497 0.55525 0.19235 0.0
C242 C 0.45542 0.53443 0.18572 0.0
C243 C 0.49573 0.52051 0.16491 0.0
C244 C 0.60117 0.44553 0.19008 0.0
C245 C 0.58825 0.43256 0.20473 0.0
C246 C 0.58422 0.46349 0.17889 0.0
C247 C 0.55347 0.46759 0.1814 0.0
C248 C 0.55805 0.43908 0.20805 0.0
C249 C 0.54085 0.45607 0.19645 0.0
C250 C 0.53425 0.48412 0.16875 0.0
C251 C 0.58001 0.41119 0.13778 0.0
C252 C 0.5982 0.42216 0.12464 0.0
C253 C 0.55922 0.4299 0.1459 0.0
C254 C 0.55699 0.46012 0.1414 0.0
C255 C 0.59493 0.45199 0.11962 0.0
C256 C 0.57452 0.47078 0.12792 0.0
C257 C 0.53621 0.48087 0.1503 0.0
H258 H 0.40436 0.54701 0.12565 0.0
H259 H 0.43663 0.5181 0.14513 0.0
H260 H 0.48255 0.58213 0.10101 0.0
H261 H 0.51455 0.55229 0.12019 0.0
H262 H 0.45722 0.61632 0.17012 0.0
H263 H 0.49298 0.58013 0.15874 0.0
H264 H 0.41872 0.54801 0.20162 0.0
H265 H 0.45461 0.51151 0.18996 0.0
H266 H 0.62417 0.44128 0.1868 0.0
H267 H 0.59513 0.47352 0.168 0.0
H268 H 0.54735 0.43083 0.21951 0.0
H269 H 0.51743 0.45968 0.19909 0.0
H270 H 0.58178 0.38812 0.14169 0.0
H271 H 0.54522 0.42089 0.15586 0.0
H272 H 0.60875 0.46104 0.10958 0.0
H273 H 0.57291 0.4939 0.12407 0.0
N274 N 0.51797 0.49766 0.13999 0.0
N275 N 0.51386 0.50374 0.1753 0.0
C276 C 0.48956 0.92243 0.38254 0.0
C277 C 0.47588 0.93666 0.36819 0.0
C278 C 0.51097 0.93761 0.39314 0.0
C279 C 0.51832 0.96752 0.38984 0.0
C280 C 0.48503 0.96577 0.3643 0.0
C281 C 0.50569 0.98103 0.37504 0.0
C282 C 0.53908 0.98564 0.40121 0.0
C283 C 0.46793 0.95096 0.43644 0.0
C284 C 0.47967 0.93422 0.45034 0.0
C285 C 0.4867 0.96865 0.4266 0.0
C286 C 0.51768 0.96921 0.43013 0.0
C287 C 0.51052 0.93565 0.45424 0.0
C288 C 0.52933 0.95299 0.44423 0.0
C289 C 0.53804 0.98743 0.41972 0.0
C290 C 0.5983 0.10552 0.43307 0.0
C291 C 0.61826 0.10031 0.44713 0.0
C292 C 0.58304 0.0818 0.42474 0.0
C293 C 0.5878 0.05234 0.4301 0.0
C294 C 0.62158 0.07102 0.45321 0.0
C295 C 0.60635 0.04718 0.44477 0.0
C296 C 0.5738 0.02715 0.42006 0.0
C297 C 0.64395 0.06717 0.38703 0.0
C298 C 0.63258 0.08083 0.37188 0.0
C299 C 0.62592 0.0483 0.39658 0.0
C300 C 0.596 0.04306 0.39134 0.0
C301 C 0.60295 0.0747 0.36632 0.0
C302 C 0.5849 0.05594 0.37593 0.0
C303 C 0.57611 0.02416 0.40173 0.0
H304 H 0.48328 0.89991 0.38582 0.0
H305 H 0.52132 0.92615 0.40403 0.0
H306 H 0.47603 0.97707 0.35296 0.0
H307 H 0.51134 0.00383 0.37191 0.0
H308 H 0.44415 0.95076 0.43338 0.0
H309 H 0.477 0.98182 0.4162 0.0
H310 H 0.52017 0.923 0.46489 0.0
H311 H 0.55309 0.95346 0.44737 0.0
H312 H 0.59485 0.12793 0.42833 0.0
H313 H 0.56805 0.0864 0.41378 0.0
H314 H 0.63688 0.06639 0.46401 0.0
H315 H 0.60998 0.02463 0.44924 0.0
H316 H 0.66687 0.07095 0.39146 0.0
H317 H 0.63536 0.0379 0.40811 0.0
H318 H 0.59343 0.08502 0.35479 0.0
H319 H 0.56196 0.0521 0.37154 0.0
N320 N 0.55833 0.00389 0.39307 0.0
N321 N 0.55544 0.00824 0.42842 0.0
C322 C 0.16671 0.0008 0.64851 0.0
C323 C 0.15976 0.9836 0.63329 0.0
C324 C 0.14394 0.0147 0.65798 0.0
C325 C 0.11391 0.01151 0.65237 0.0
C326 C 0.12969 0.98073 0.62772 0.0
C327 C 0.10708 0.99462 0.63711 0.0
C328 C 0.08931 0.02668 0.66161 0.0
C329 C 0.12798 0.95967 0.69887 0.0
C330 C 0.13547 0.97093 0.7157 0.0
C331 C 0.1115 0.97701 0.68715 0.0
C332 C 0.10322 0.00641 0.69181 0.0
C333 C 0.12645 -0.00014 0.72063 0.0
C334 C 0.11057 0.01751 0.70874 0.0
C335 C 0.08467 0.02481 0.67984 0.0
C336 C 0.95988 0.07266 0.68386 0.0
C337 C 0.96199 0.09708 0.69573 0.0
C338 C 0.98561 0.0579 0.67844 0.0
C339 C 0.01391 0.06737 0.68473 0.0
C340 C 0.99029 0.1056 0.70264 0.0
C341 C 0.01607 0.0907 0.69725 0.0
C342 C 0.04107 0.05501 0.67674 0.0
C343 C 0.9952 0.11873 0.64277 0.0
C344 C 0.97968 0.10408 0.62886 0.0
C345 C 0.01835 0.10428 0.6517 0.0
C346 C 0.02584 0.07464 0.64718 0.0
C347 C 0.9888 0.07535 0.62341 0.0
C348 C 0.01175 0.06068 0.63255 0.0
C349 C 0.04605 0.05736 0.65871 0.0
H350 H 0.18968 0.00343 0.65311 0.0
H351 H 0.14978 0.02814 0.66953 0.0
H352 H 0.12361 0.96821 0.61586 0.0
H353 H 0.08411 0.99212 0.63243 0.0
H354 H 0.13426 0.93714 0.69495 0.0
H355 H 0.10479 0.96711 0.6746 0.0
H356 H 0.13191 0.00887 0.7336 0.0
H357 H 0.10396 0.03987 0.7128 0.0
H358 H 0.93844 0.06567 0.67825 0.0
H359 H 0.98355 0.03982 0.66879 0.0
H360 H 0.9925 0.12405 0.71203 0.0
H361 H 0.03775 0.09827 0.70223 0.0
H362 H 0.98896 0.14112 0.64698 0.0
H363 H 0.02953 0.11577 0.66265 0.0
H364 H 0.97721 0.06368 0.61267 0.0
H365 H 0.01735 0.03789 0.62879 0.0
N366 N 0.06971 0.04283 0.65177 0.0
N367 N 0.06066 0.03918 0.68669 0.0
Zn368 Zn 0.28853 0.7701 0.97656 0.0
Zn369 Zn 0.30605 0.73185 0.00217 0.0
O370 O 0.26086 0.72402 0.99942 0.0
O371 O 0.24675 0.75356 0.97809 0.0
O372 O 0.31909 0.70511 0.02193 0.0
O373 O 0.30213 0.80526 0.99188 0.0
O374 O 0.31882 0.77344 0.01138 0.0
C375 C 0.24057 0.73388 0.98908 0.0
C376 C 0.33192 0.726 0.96549 0.0
O377 O 0.32932 0.71683 0.98101 0.0
O378 O 0.31752 0.74881 0.9605 0.0
C379 C 0.34418 0.69173 0.02238 0.0
O380 O 0.36255 0.69483 0.00943 0.0
C381 C 0.31552 0.80018 0.00628 0.0
Zn382 Zn 0.30541 0.76987 0.27966 0.0
Zn383 Zn 0.31346 0.80861 0.25215 0.0
O384 O 0.26978 0.81687 0.25636 0.0
O385 O 0.26348 0.78932 0.27959 0.0
O386 O 0.3256 0.83415 0.23189 0.0
O387 O 0.31637 0.73453 0.26359 0.0
O388 O 0.32232 0.76679 0.24266 0.0
C389 C 0.25352 0.80811 0.26866 0.0
C390 C 0.34693 0.816 0.28822 0.0
O391 O 0.33838 0.82415 0.27308 0.0
O392 O 0.33803 0.79147 0.29418 0.0
C393 C 0.34523 0.85477 0.23323 0.0
O394 O 0.35701 0.86184 0.24868 0.0
C395 C 0.32284 0.74005 0.24796 0.0
Zn396 Zn 0.26085 0.7859 0.48849 0.0
Zn397 Zn 0.25762 0.8229 0.51776 0.0
O398 O 0.3007 0.82919 0.51062 0.0
O399 O 0.30435 0.80035 0.48697 0.0
O400 O 0.25213 0.84924 0.5392 0.0
O401 O 0.24777 0.75102 0.5036 0.0
O402 O 0.24744 0.78159 0.52661 0.0
C403 C 0.31583 0.81918 0.49789 0.0
C404 C 0.2184 0.83386 0.4847 0.0
O405 O 0.2273 0.84021 0.50031 0.0
O406 O 0.22903 0.81139 0.47658 0.0
C407 C 0.26707 0.87276 0.54316 0.0
O408 O 0.28859 0.88111 0.53297 0.0
C409 C 0.24374 0.75557 0.5198 0.0
Zn410 Zn 0.29353 0.76531 0.74806 0.0
Zn411 Zn 0.25509 0.74241 0.77069 0.0
O412 O 0.24302 0.78703 0.77074 0.0
O413 O 0.2749 0.80559 0.75237 0.0
O414 O 0.23056 0.72316 0.78918 0.0
O415 O 0.32972 0.75189 0.76191 0.0
O416 O 0.2976 0.73109 0.77922 0.0
C417 C 0.25298 0.80912 0.76237 0.0
C418 C 0.25212 0.72181 0.7324 0.0
O419 O 0.2419 0.72108 0.74779 0.0
O420 O 0.27443 0.73819 0.72931 0.0
C421 C 0.20238 0.72372 0.79102 0.0
O422 O 0.18553 0.73885 0.78004 0.0
C423 C 0.32448 0.73609 0.77498 0.0
Zn424 Zn 0.78839 0.25138 0.54437 0.0
Zn425 Zn 0.82733 0.2312 0.51948 0.0
O426 O 0.84017 0.27466 0.52134 0.0
O427 O 0.80919 0.29177 0.54125 0.0
O428 O 0.85096 0.21142 0.5005 0.0
O429 O 0.75257 0.23741 0.52915 0.0
O430 O 0.78541 0.22456 0.50939 0.0
C431 C 0.8306 0.29599 0.53098 0.0
C432 C 0.82992 0.20683 0.55679 0.0
O433 O 0.83932 0.20791 0.54124 0.0
O434 O 0.80793 0.22279 0.56139 0.0
C435 C 0.8746 0.21949 0.49304 0.0
O436 O 0.88792 0.24462 0.49795 0.0
C437 C 0.75848 0.2271 0.51407 0.0
Zn438 Zn 0.79295 0.26307 0.77294 0.0
Zn439 Zn 0.81251 0.30591 0.75133 0.0
O440 O 0.76796 0.3166 0.7541 0.0
O441 O 0.75271 0.28305 0.77256 0.0
O442 O 0.82902 0.33892 0.73668 0.0
O443 O 0.80383 0.23177 0.75482 0.0
O444 O 0.82316 0.26645 0.73847 0.0
C445 C 0.74754 0.30589 0.76349 0.0
C446 C 0.83903 0.29972 0.78873 0.0
O447 O 0.83656 0.31268 0.77412 0.0
O448 O 0.82336 0.2768 0.79156 0.0
C449 C 0.83372 0.33834 0.72034 0.0
O450 O 0.82672 0.31426 0.71093 0.0
C451 C 0.8178 0.23902 0.74136 0.0
Zn452 Zn 0.78465 0.27421 0.0357 0.0
Zn453 Zn 0.74355 0.29312 0.01158 0.0
O454 O 0.73799 0.24741 0.0115 0.0
O455 O 0.77043 0.23162 0.03135 0.0
O456 O 0.71413 0.30693 0.99301 0.0
O457 O 0.81763 0.29245 0.02156 0.0
O458 O 0.78346 0.30964 0.00319 0.0
C459 C 0.74952 0.22621 0.02023 0.0
C460 C 0.73887 0.31325 0.04991 0.0
O461 O 0.72894 0.31308 0.03414 0.0
O462 O 0.76256 0.2991 0.05386 0.0
C463 C 0.68907 0.29412 0.98993 0.0
O464 O 0.68162 0.2711 0.99925 0.0
C465 C 0.81073 0.30742 0.0082 0.0
Zn466 Zn 0.78241 0.25493 0.2317 0.0
Zn467 Zn 0.75101 0.22107 0.25404 0.0
O468 O 0.72857 0.2611 0.25347 0.0
O469 O 0.75448 0.28986 0.23646 0.0
O470 O 0.73039 0.19832 0.27283 0.0
O471 O 0.82085 0.24906 0.24588 0.0
O472 O 0.79479 0.22004 0.26262 0.0
C473 C 0.73217 0.28602 0.24605 0.0
C474 C 0.75318 0.20126 0.21601 0.0
O475 O 0.74396 0.19704 0.23138 0.0
O476 O 0.76969 0.22359 0.21302 0.0
C477 C 0.7356 0.20723 0.28854 0.0
O478 O 0.75306 0.23058 0.29141 0.0
C479 C 0.81967 0.23158 0.25863 0.0
H480 H 0.14658 0.90304 0.32886 0.0
H481 H 0.10933 0.94185 0.28168 0.0
H482 H 0.13717 0.90513 0.26373 0.0
H483 H 0.21844 0.89142 0.31374 0.0
H484 H 0.22441 0.85644 0.32451 0.0
H485 H 0.19901 0.88354 0.33348 0.0
H486 H 0.15677 0.84375 0.33249 0.0
H487 H 0.18208 0.81651 0.3234 0.0
H488 H 0.14724 0.82453 0.31212 0.0
H489 H 0.17417 0.86886 0.25105 0.0
H490 H 0.21654 0.83511 0.24473 0.0
H491 H 0.22761 0.81815 0.30009 0.0
C492 C 0.14403 0.90355 0.31475 0.0
C493 C 0.12579 0.92521 0.30664 0.0
C494 C 0.12293 0.92519 0.28815 0.0
C495 C 0.13866 0.90445 0.27786 0.0
C496 C 0.15677 0.88359 0.28626 0.0
C497 C 0.15929 0.8828 0.3043 0.0
C498 C 0.18152 0.85931 0.3101 0.0
C499 C 0.20737 0.87353 0.3211 0.0
C500 C 0.16596 0.83455 0.32012 0.0
C501 C 0.19196 0.84775 0.29252 0.0
C502 C 0.17729 0.86189 0.27891 0.0
C503 C 0.18531 0.85711 0.26157 0.0
C504 C 0.20937 0.83792 0.25809 0.0
C505 C 0.22494 0.82359 0.27188 0.0
C506 C 0.21551 0.82803 0.28923 0.0
H507 H 0.13669 0.62043 0.54361 0.0
H508 H 0.16664 0.63445 0.5976 0.0
H509 H 0.20283 0.67224 0.58838 0.0
H510 H 0.21043 0.62998 0.52418 0.0
H511 H 0.19533 0.64915 0.50547 0.0
H512 H 0.17302 0.62174 0.51612 0.0
H513 H 0.13112 0.661 0.52048 0.0
H514 H 0.15325 0.68847 0.50982 0.0
H515 H 0.13991 0.69612 0.53152 0.0
H516 H 0.23218 0.71167 0.57387 0.0
H517 H 0.25429 0.74902 0.55472 0.0
H518 H 0.20737 0.70835 0.50984 0.0
C519 C 0.15107 0.6313 0.55344 0.0
C520 C 0.14902 0.62432 0.57131 0.0
C521 C 0.16818 0.63904 0.58381 0.0
C522 C 0.18873 0.66063 0.57871 0.0
C523 C 0.19011 0.66709 0.56103 0.0
C524 C 0.17199 0.65272 0.54855 0.0
C525 C 0.1774 0.66456 0.53048 0.0
C526 C 0.18979 0.63988 0.51835 0.0
C527 C 0.14871 0.67836 0.52262 0.0
C528 C 0.20086 0.68829 0.53483 0.0
C529 C 0.20784 0.68933 0.55254 0.0
C530 C 0.2273 0.71076 0.55994 0.0
C531 C 0.2397 0.73189 0.54897 0.0
C532 C 0.23288 0.73128 0.53079 0.0
C533 C 0.21355 0.70887 0.52363 0.0
H534 H 0.40335 0.60135 0.8239 0.0
H535 H 0.48843 0.64399 0.81463 0.0
H536 H 0.46185 0.68726 0.80198 0.0
H537 H 0.36598 0.62343 0.78496 0.0
H538 H 0.33043 0.62959 0.79503 0.0
H539 H 0.35627 0.60282 0.80398 0.0
H540 H 0.35464 0.63036 0.83416 0.0
H541 H 0.3289 0.65735 0.82526 0.0
H542 H 0.36341 0.6697 0.83579 0.0
H543 H 0.42606 0.7239 0.78844 0.0
H544 H 0.38365 0.75183 0.77548 0.0
H545 H 0.32193 0.68617 0.79485 0.0
C546 C 0.41633 0.61982 0.81919 0.0
C547 C 0.44789 0.61939 0.82012 0.0
C548 C 0.4642 0.64405 0.81406 0.0
C549 C 0.44932 0.66866 0.80688 0.0
C550 C 0.41815 0.66836 0.8061 0.0
C551 C 0.40184 0.64467 0.8122 0.0
C552 C 0.36857 0.64962 0.80959 0.0
C553 C 0.3545 0.6249 0.79768 0.0
C554 C 0.35297 0.6519 0.82725 0.0
C555 C 0.36872 0.67946 0.80066 0.0
C556 C 0.39752 0.68994 0.79881 0.0
C557 C 0.40338 0.71614 0.79001 0.0
C558 C 0.37918 0.73182 0.78269 0.0
C559 C 0.34951 0.72132 0.78432 0.0
C560 C 0.3443 0.69507 0.79369 0.0
H561 H 0.44309 0.87889 0.06488 0.0
H562 H 0.4026 0.96404 0.05229 0.0
H563 H 0.36047 0.93748 0.0371 0.0
H564 H 0.42598 0.84179 0.02508 0.0
H565 H 0.41824 0.80614 0.03452 0.0
H566 H 0.44369 0.83187 0.04557 0.0
H567 H 0.412 0.83013 0.07344 0.0
H568 H 0.3864 0.80436 0.06245 0.0
H569 H 0.37266 0.83877 0.07201 0.0
H570 H 0.32594 0.90174 0.02069 0.0
H571 H 0.30019 0.85935 0.00537 0.0
H572 H 0.36223 0.7976 0.02987 0.0
C573 C 0.4252 0.89189 0.05904 0.0
C574 C 0.42599 0.92344 0.05968 0.0
C575 C 0.40218 0.93981 0.05202 0.0
C576 C 0.37825 0.92494 0.04337 0.0
C577 C 0.37834 0.89376 0.04277 0.0
C578 C 0.40103 0.87742 0.05056 0.0
C579 C 0.3964 0.84417 0.04753 0.0
C580 C 0.42263 0.83019 0.03758 0.0
C581 C 0.39157 0.82844 0.06489 0.0
C582 C 0.36803 0.84435 0.03635 0.0
C583 C 0.3579 0.87315 0.03379 0.0
C584 C 0.33333 0.87905 0.02285 0.0
C585 C 0.31893 0.85488 0.01417 0.0
C586 C 0.32905 0.82523 0.0166 0.0
C587 C 0.35362 0.81997 0.02806 0.0
H588 H 0.10213 0.66388 0.93738 0.0
H589 H 0.08268 0.6135 0.98338 0.0
H590 H 0.1204 0.64332 0.0006 0.0
H591 H 0.1777 0.66698 0.94322 0.0
H592 H 0.18256 0.70449 0.93564 0.0
H593 H 0.15101 0.6826 0.92793 0.0
H594 H 0.11492 0.72415 0.9386 0.0
H595 H 0.14648 0.74636 0.94628 0.0
H596 H 0.11723 0.7373 0.96106 0.0
H597 H 0.16633 0.67239 0.01097 0.0
H598 H 0.21381 0.70078 0.01422 0.0
H599 H 0.20048 0.73413 0.96181 0.0
C600 C 0.10528 0.65982 0.95122 0.0
C601 C 0.08965 0.63669 0.95919 0.0
C602 C 0.09436 0.63149 0.9772 0.0
C603 C 0.1157 0.64826 0.98702 0.0
C604 C 0.13149 0.67047 0.97864 0.0
C605 C 0.12605 0.67664 0.96121 0.0
C606 C 0.14735 0.70003 0.95488 0.0
C607 C 0.16574 0.68777 0.93952 0.0
C608 C 0.13048 0.72866 0.94992 0.0
C609 C 0.16662 0.70504 0.9712 0.0
C610 C 0.1571 0.68798 0.98484 0.0
C611 C 0.17351 0.68649 0.00056 0.0
C612 C 0.20047 0.70257 0.00227 0.0
C613 C 0.21057 0.71999 0.98837 0.0
C614 C 0.19297 0.72166 0.97285 0.0
H615 H 0.41653 0.5962 0.22007 0.0
H616 H 0.40227 0.62302 0.16635 0.0
H617 H 0.36773 0.66255 0.17622 0.0
H618 H 0.33897 0.61165 0.23456 0.0
H619 H 0.35178 0.62544 0.25579 0.0
H620 H 0.37281 0.59703 0.24437 0.0
H621 H 0.42015 0.63045 0.24694 0.0
H622 H 0.39931 0.65893 0.2583 0.0
H623 H 0.41873 0.6679 0.23873 0.0
H624 H 0.33968 0.70226 0.19186 0.0
H625 H 0.31889 0.73962 0.21242 0.0
H626 H 0.34959 0.68671 0.25617 0.0
C627 C 0.40554 0.60995 0.21038 0.0
C628 C 0.41211 0.60666 0.19246 0.0
C629 C 0.39779 0.62542 0.18017 0.0
C630 C 0.37796 0.64776 0.18563 0.0
C631 C 0.37247 0.65089 0.20341 0.0
C632 C 0.38564 0.63243 0.21562 0.0
C633 C 0.37748 0.64199 0.23405 0.0
C634 C 0.35917 0.61757 0.2427 0.0
C635 C 0.40559 0.65032 0.24515 0.0
C636 C 0.35847 0.66926 0.23029 0.0
C637 C 0.35569 0.67377 0.2125 0.0
C638 C 0.34121 0.69871 0.2058 0.0
C639 C 0.32958 0.71985 0.21758 0.0
C640 C 0.3324 0.71589 0.23586 0.0
C641 C 0.34655 0.68996 0.24225 0.0
H642 H 0.4362 0.89496 0.43846 0.0
H643 H 0.47793 0.93196 0.48602 0.0
H644 H 0.44329 0.90271 0.50366 0.0
H645 H 0.36201 0.89629 0.45276 0.0
H646 H 0.35124 0.8615 0.44197 0.0
H647 H 0.38061 0.88379 0.43327 0.0
H648 H 0.41654 0.83842 0.43476 0.0
H649 H 0.38726 0.816 0.44356 0.0
H650 H 0.42261 0.81999 0.45525 0.0
H651 H 0.40082 0.87345 0.51593 0.0
H652 H 0.35482 0.8451 0.52191 0.0
H653 H 0.34257 0.82502 0.46642 0.0
C654 C 0.43812 0.89674 0.4526 0.0
C655 C 0.45971 0.91571 0.4609 0.0
C656 C 0.46171 0.91735 0.47941 0.0
C657 C 0.44212 0.90086 0.48952 0.0
C658 C 0.42095 0.88251 0.48092 0.0
C659 C 0.41902 0.88015 0.46287 0.0
C660 C 0.39372 0.85953 0.45684 0.0
C661 C 0.37053 0.87628 0.44555 0.0
C662 C 0.40576 0.83184 0.44702 0.0
C663 C 0.38118 0.85129 0.47429 0.0
C664 C 0.39723 0.86473 0.48804 0.0
C665 C 0.38843 0.86234 0.50531 0.0
C666 C 0.36229 0.84621 0.50858 0.0
C667 C 0.34545 0.83243 0.49467 0.0
C668 C 0.35544 0.83459 0.47737 0.0
H669 H 0.19034 0.94668 0.71111 0.0
H670 H 0.11805 0.95221 0.74762 0.0
H671 H 0.14396 0.91541 0.76647 0.0
H672 H 0.20177 0.87115 0.71254 0.0
H673 H 0.24193 0.87256 0.71124 0.0
H674 H 0.21959 0.90205 0.70221 0.0
H675 H 0.24914 0.94115 0.72138 0.0
H676 H 0.27164 0.91166 0.73051 0.0
H677 H 0.25169 0.93691 0.74475 0.0
H678 H 0.17411 0.87194 0.77847 0.0
H679 H 0.2067 0.82793 0.78317 0.0
H680 H 0.26067 0.85429 0.73976 0.0
C681 C 0.1804 0.9406 0.7233 0.0
C682 C 0.15238 0.95209 0.72804 0.0
C683 C 0.13972 0.94367 0.74395 0.0
C684 C 0.15427 0.92286 0.75469 0.0
C685 C 0.18171 0.91135 0.74946 0.0
C686 C 0.19486 0.92038 0.73427 0.0
C687 C 0.22342 0.90344 0.73089 0.0
C688 C 0.22153 0.88629 0.71318 0.0
C689 C 0.25058 0.92455 0.73195 0.0
C690 C 0.22361 0.88242 0.74608 0.0
C691 C 0.19957 0.88735 0.75676 0.0
C692 C 0.19346 0.86838 0.77047 0.0
C693 C 0.21207 0.84342 0.77305 0.0
C694 C 0.23647 0.83782 0.76199 0.0
C695 C 0.24265 0.8582 0.74872 0.0
H696 H 0.61911 0.3696 0.82265 0.0
H697 H 0.60118 0.43606 0.78346 0.0
H698 H 0.63652 0.41057 0.76361 0.0
H699 H 0.69538 0.36277 0.81653 0.0
H700 H 0.6969 0.32296 0.81966 0.0
H701 H 0.6682 0.3449 0.82982 0.0
H702 H 0.62755 0.31088 0.81491 0.0
H703 H 0.65621 0.28882 0.80465 0.0
H704 H 0.62696 0.30544 0.79148 0.0
H705 H 0.67897 0.38141 0.74988 0.0
H706 H 0.72263 0.34959 0.7429 0.0
H707 H 0.70953 0.30059 0.79039 0.0
C708 C 0.62235 0.37846 0.80978 0.0
C709 C 0.60759 0.40469 0.80451 0.0
C710 C 0.61223 0.41579 0.78761 0.0
C711 C 0.63222 0.40149 0.77629 0.0
C712 C 0.64684 0.37582 0.78198 0.0
C713 C 0.64175 0.36418 0.79824 0.0
C714 C 0.66107 0.33712 0.80158 0.0
C715 C 0.6816 0.34227 0.81785 0.0
C716 C 0.64179 0.30889 0.80325 0.0
C717 C 0.67866 0.33597 0.78496 0.0
C718 C 0.67016 0.35837 0.77375 0.0
C719 C 0.68535 0.36334 0.75836 0.0
C720 C 0.71011 0.34522 0.7545 0.0
C721 C 0.71921 0.32232 0.76594 0.0
C722 C 0.70274 0.31738 0.78113 0.0
H723 H 0.68192 0.08643 0.0656 0.0
H724 H 0.62308 0.074 0.02 0.0
H725 H 0.65203 0.11162 0.00444 0.0
H726 H 0.68849 0.162 0.06401 0.0
H727 H 0.72736 0.16417 0.07074 0.0
H728 H 0.70494 0.13321 0.07725 0.0
H729 H 0.74246 0.09603 0.06339 0.0
H730 H 0.76519 0.12696 0.05687 0.0
H731 H 0.75202 0.09959 0.04077 0.0
H732 H 0.68222 0.15611 0.99574 0.0
H733 H 0.71228 0.20242 0.99438 0.0
H734 H 0.75333 0.18327 0.04487 0.0
C735 C 0.67573 0.09072 0.05212 0.0
C736 C 0.65017 0.07721 0.04406 0.0
C737 C 0.64236 0.08429 0.02655 0.0
C738 C 0.65884 0.10544 0.01754 0.0
C739 C 0.6834 0.11896 0.02608 0.0
C740 C 0.69208 0.11155 0.0429 0.0
C741 C 0.7177 0.13104 0.04971 0.0
C742 C 0.70909 0.14864 0.0664 0.0
C743 C 0.74602 0.11228 0.05287 0.0
C744 C 0.72122 0.15146 0.0344 0.0
C745 C 0.70145 0.14399 0.02081 0.0
C746 C 0.69836 0.1617 0.0061 0.0
C747 C 0.71548 0.18798 0.00544 0.0
C748 C 0.7355 0.19621 0.01938 0.0
C749 C 0.73887 0.17718 0.03378 0.0
H750 H 0.92221 0.11991 0.31287 0.0
H751 H 0.9986 0.17438 0.30019 0.0
H752 H 0.96479 0.21011 0.28535 0.0
H753 H 0.8811 0.12901 0.27295 0.0
H754 H 0.84521 0.13049 0.28313 0.0
H755 H 0.87547 0.11001 0.29313 0.0
H756 H 0.86957 0.14116 0.32186 0.0
H757 H 0.83939 0.16189 0.3119 0.0
H758 H 0.8714 0.18141 0.32135 0.0
H759 H 0.92261 0.23829 0.27051 0.0
H760 H 0.87548 0.25695 0.25716 0.0
H761 H 0.82692 0.18461 0.28056 0.0
C762 C 0.93182 0.1393 0.3069 0.0
C763 C 0.96299 0.14437 0.30757 0.0
C764 C 0.97473 0.17022 0.29987 0.0
C765 C 0.95573 0.19057 0.29142 0.0
C766 C 0.92506 0.18489 0.29098 0.0
C767 C 0.91319 0.15994 0.29859 0.0
C768 C 0.87953 0.15875 0.29616 0.0
C769 C 0.86977 0.13039 0.28571 0.0
C770 C 0.86407 0.16094 0.31387 0.0
C771 C 0.87433 0.18662 0.2857 0.0
C772 C 0.90082 0.20146 0.28286 0.0
C773 C 0.90169 0.22703 0.27281 0.0
C774 C 0.87482 0.23746 0.26528 0.0
C775 C 0.84748 0.22239 0.26791 0.0
C776 C 0.84734 0.19691 0.27849 0.0
H777 H 0.91304 0.42887 0.5822 0.0
H778 H 0.9618 0.44556 0.53518 0.0
H779 H 0.92979 0.40873 0.51873 0.0
H780 H 0.90519 0.35218 0.5763 0.0
H781 H 0.86793 0.35012 0.58463 0.0
H782 H 0.89262 0.37982 0.59201 0.0
H783 H 0.85326 0.41903 0.58239 0.0
H784 H 0.82836 0.38939 0.57495 0.0
H785 H 0.83881 0.41817 0.56017 0.0
H786 H 0.89711 0.36517 0.50876 0.0
H787 H 0.86448 0.3205 0.5056 0.0
H788 H 0.83498 0.33513 0.55871 0.0
C789 C 0.91662 0.42502 0.56838 0.0
C790 C 0.93978 0.43982 0.55989 0.0
C791 C 0.94396 0.43444 0.54181 0.0
C792 C 0.92592 0.41363 0.53241 0.0
C793 C 0.90351 0.39897 0.54125 0.0
C794 C 0.89854 0.40477 0.55878 0.0
C795 C 0.87396 0.38518 0.56546 0.0
C796 C 0.88564 0.36567 0.58048 0.0
C797 C 0.847 0.40408 0.57107 0.0
C798 C 0.86662 0.36658 0.54913 0.0
C799 C 0.8838 0.37489 0.53528 0.0
C800 C 0.88301 0.35893 0.51938 0.0
C801 C 0.86449 0.3336 0.51771 0.0
C802 C 0.84685 0.32474 0.5318 0.0
C803 C 0.84755 0.34188 0.54754 0.0
H804 H 0.63054 0.11441 0.48181 0.0
H805 H 0.64896 0.14152 0.42905 0.0
H806 H 0.68254 0.18121 0.44089 0.0
H807 H 0.63308 0.19053 0.50214 0.0
H808 H 0.65099 0.17772 0.52197 0.0
H809 H 0.62604 0.15321 0.50948 0.0
H810 H 0.66782 0.11323 0.50751 0.0
H811 H 0.6928 0.13752 0.52002 0.0
H812 H 0.70347 0.12327 0.49883 0.0
H813 H 0.71857 0.21321 0.45789 0.0
H814 H 0.75399 0.23691 0.47934 0.0
H815 H 0.71087 0.19157 0.52137 0.0
C816 C 0.6414 0.12897 0.4728 0.0
C817 C 0.63699 0.12509 0.45453 0.0
C818 C 0.65163 0.14446 0.4431 0.0
C819 C 0.67078 0.16702 0.4497 0.0
C820 C 0.67481 0.17016 0.46775 0.0
C821 C 0.6604 0.15187 0.47918 0.0
C822 C 0.66993 0.15904 0.49797 0.0
C823 C 0.64343 0.17083 0.50851 0.0
C824 C 0.68437 0.13164 0.50658 0.0
C825 C 0.69271 0.18351 0.49526 0.0
C826 C 0.69502 0.18963 0.4777 0.0
C827 C 0.71651 0.2092 0.4717 0.0
C828 C 0.7365 0.2225 0.48394 0.0
C829 C 0.73458 0.21647 0.50193 0.0
C830 C 0.71205 0.19724 0.50771 0.0
H831 H 0.95519 0.15793 0.69804 0.0
H832 H 0.9075 0.07444 0.7042 0.0
H833 H 0.86241 0.10266 0.71257 0.0
H834 H 0.92656 0.19529 0.73459 0.0
H835 H 0.92409 0.23135 0.72462 0.0
H836 H 0.95131 0.20459 0.71729 0.0
H837 H 0.92995 0.2083 0.68558 0.0
H838 H 0.9024 0.2349 0.69289 0.0
H839 H 0.89076 0.20123 0.68118 0.0
H840 H 0.82478 0.13931 0.72336 0.0
H841 H 0.79755 0.18184 0.73655 0.0
H842 H 0.86899 0.24181 0.7227 0.0
C843 C 0.9352 0.14561 0.70109 0.0
C844 C 0.9348 0.11401 0.70049 0.0
C845 C 0.90817 0.09866 0.70441 0.0
C846 C 0.88247 0.11449 0.70915 0.0
C847 C 0.88366 0.14564 0.70969 0.0
C848 C 0.9093 0.16106 0.70572 0.0
C849 C 0.90529 0.19447 0.70841 0.0
C850 C 0.92816 0.20715 0.72204 0.0
C851 C 0.90721 0.21068 0.69097 0.0
C852 C 0.87379 0.19535 0.7152 0.0
C853 C 0.86158 0.16695 0.71561 0.0
C854 C 0.83383 0.16171 0.72281 0.0
C855 C 0.81854 0.18598 0.73027 0.0
C856 C 0.83103 0.2151 0.73044 0.0
C857 C 0.85857 0.21992 0.72232 0.0
H858 H 0.87886 0.43857 0.95242 0.0
H859 H 0.96646 0.39976 0.96255 0.0
H860 H 0.94308 0.35933 0.97871 0.0
H861 H 0.84712 0.42223 0.99319 0.0
H862 H 0.81063 0.41303 0.98404 0.0
H863 H 0.83421 0.43902 0.97318 0.0
H864 H 0.83006 0.40651 0.94471 0.0
H865 H 0.80645 0.38039 0.95549 0.0
H866 H 0.84009 0.36749 0.94525 0.0
H867 H 0.91057 0.32422 0.99481 0.0
H868 H 0.87078 0.29595 0.00898 0.0
H869 H 0.80407 0.35552 0.98681 0.0
C870 C 0.89317 0.42142 0.95782 0.0
C871 C 0.92464 0.42269 0.95631 0.0
C872 C 0.94242 0.39984 0.96383 0.0
C873 C 0.92932 0.37655 0.97291 0.0
C874 C 0.89834 0.37611 0.97421 0.0
C875 C 0.88045 0.39779 0.96677 0.0
C876 C 0.8477 0.3921 0.97013 0.0
C877 C 0.83413 0.41814 0.98077 0.0
C878 C 0.83004 0.38627 0.95287 0.0
C879 C 0.85004 0.36402 0.98078 0.0
C880 C 0.87947 0.35522 0.98301 0.0
C881 C 0.8874 0.3307 0.99301 0.0
C882 C 0.86466 0.31482 0.00103 0.0
C883 C 0.83433 0.32337 0.99889 0.0
C884 C 0.82701 0.34815 0.98848 0.0
H885 H 0.64977 0.43009 0.21107 0.0
H886 H 0.56677 0.38525 0.22341 0.0
H887 H 0.59529 0.34833 0.24002 0.0
H888 H 0.68688 0.36401 0.20083 0.0
H889 H 0.72305 0.37651 0.209 0.0
H890 H 0.69612 0.40328 0.20131 0.0
H891 H 0.70017 0.43196 0.23114 0.0
H892 H 0.72705 0.40506 0.23897 0.0
H893 H 0.6936 0.41239 0.25102 0.0
H894 H 0.63253 0.31301 0.25283 0.0
H895 H 0.67531 0.27928 0.25775 0.0
H896 H 0.73406 0.34362 0.23437 0.0
C897 C 0.63731 0.41272 0.21727 0.0
C898 C 0.60564 0.41131 0.21595 0.0
C899 C 0.59078 0.38794 0.22455 0.0
C900 C 0.60685 0.36654 0.23401 0.0
C901 C 0.63792 0.36835 0.23466 0.0
C902 C 0.65302 0.39066 0.22636 0.0
C903 C 0.68648 0.38524 0.227 0.0
C904 C 0.69884 0.38206 0.20844 0.0
C905 C 0.70278 0.41015 0.23767 0.0
C906 C 0.68771 0.35585 0.23645 0.0
C907 C 0.65953 0.34696 0.24121 0.0
C908 C 0.65476 0.31986 0.24932 0.0
C909 C 0.67926 0.30086 0.25209 0.0
C910 C 0.70808 0.30876 0.24644 0.0
C911 C 0.71237 0.33702 0.23896 0.0
H912 H 0.14075 0.91066 0.40215 0.0
H913 H 0.1074 0.97818 0.43837 0.0
H914 H 0.12783 0.94981 0.46321 0.0
H915 H 0.1276 0.84575 0.42981 0.0
H916 H 0.16148 0.82723 0.42332 0.0
H917 H 0.14213 0.85157 0.40839 0.0
H918 H 0.19054 0.88269 0.40534 0.0
H919 H 0.21001 0.8585 0.42024 0.0
H920 H 0.20906 0.89825 0.42471 0.0
H921 H 0.15453 0.91632 0.4839 0.0
H922 H 0.1866 0.87999 0.49921 0.0
H923 H 0.20256 0.83371 0.44974 0.0
C924 C 0.13734 0.91914 0.41534 0.0
C925 C 0.12259 0.94662 0.41837 0.0
C926 C 0.11894 0.95731 0.43577 0.0
C927 C 0.13025 0.94126 0.44996 0.0
C928 C 0.14508 0.91449 0.44654 0.0
C929 C 0.14864 0.90342 0.42969 0.0
C930 C 0.16701 0.87496 0.42963 0.0
C931 C 0.14843 0.8483 0.42236 0.0
C932 C 0.19586 0.87885 0.41938 0.0
C933 C 0.17367 0.87214 0.44905 0.0
C934 C 0.16057 0.89504 0.45856 0.0
C935 C 0.16467 0.89808 0.47663 0.0
C936 C 0.18296 0.87735 0.48521 0.0
C937 C 0.197 0.85391 0.47571 0.0
C938 C 0.19186 0.85113 0.45742 0.0
H939 H 0.1254 0.61917 0.68624 0.0
H940 H 0.16324 0.64178 0.63658 0.0
H941 H 0.20298 0.67103 0.6522 0.0
H942 H 0.13833 0.69051 0.70734 0.0
H943 H 0.14718 0.67525 0.72845 0.0
H944 H 0.12235 0.65531 0.71337 0.0
H945 H 0.15629 0.60848 0.7153 0.0
H946 H 0.18129 0.62834 0.73034 0.0
H947 H 0.19542 0.61164 0.71052 0.0
H948 H 0.23834 0.6976 0.67306 0.0
H949 H 0.26555 0.72254 0.69774 0.0
H950 H 0.20417 0.68343 0.73396 0.0
C951 C 0.14221 0.63012 0.67869 0.0
C952 C 0.14137 0.62827 0.66023 0.0
C953 C 0.16342 0.6432 0.65074 0.0
C954 C 0.18614 0.65966 0.65948 0.0
C955 C 0.18637 0.66103 0.6777 0.0
C956 C 0.16489 0.64685 0.68721 0.0
C957 C 0.16966 0.65279 0.70666 0.0
C958 C 0.14278 0.66946 0.7144 0.0
C959 C 0.17605 0.62357 0.71627 0.0
C960 C 0.19713 0.67259 0.70659 0.0
C961 C 0.20652 0.67683 0.68976 0.0
C962 C 0.23124 0.69445 0.68631 0.0
C963 C 0.24657 0.70848 0.70044 0.0
C964 C 0.23701 0.70497 0.71781 0.0
C965 C 0.21209 0.68653 0.72086 0.0
H966 H 0.43709 0.59276 0.93256 0.0
H967 H 0.42433 0.62662 0.88023 0.0
H968 H 0.39538 0.66917 0.8921 0.0
H969 H 0.36399 0.60993 0.94681 0.0
H970 H 0.37558 0.62031 0.96888 0.0
H971 H 0.39722 0.59375 0.95649 0.0
H972 H 0.44448 0.62669 0.96165 0.0
H973 H 0.42293 0.65336 0.97407 0.0
H974 H 0.44356 0.66538 0.95555 0.0
H975 H 0.36675 0.70688 0.90932 0.0
H976 H 0.33802 0.73645 0.93067 0.0
H977 H 0.36805 0.67751 0.97189 0.0
C978 C 0.42849 0.60941 0.92369 0.0
C979 C 0.43289 0.60659 0.90552 0.0
C980 C 0.42098 0.62841 0.8942 0.0
C981 C 0.4047 0.65269 0.90082 0.0
C982 C 0.40046 0.65472 0.91878 0.0
C983 C 0.41188 0.63365 0.93007 0.0
C984 C 0.4026 0.64027 0.94868 0.0
C985 C 0.38372 0.61454 0.95562 0.0
C986 C 0.43003 0.64682 0.9607 0.0
C987 C 0.38395 0.66813 0.94602 0.0
C988 C 0.38331 0.67624 0.9287 0.0
C989 C 0.36715 0.70086 0.92294 0.0
C990 C 0.35091 0.71752 0.93519 0.0
C991 C 0.35074 0.70933 0.95297 0.0
C992 C 0.36775 0.68442 0.95842 0.0
H993 H 0.46429 0.94535 0.17955 0.0
H994 H 0.42217 0.90823 0.1321 0.0
H995 H 0.3837 0.88425 0.1497 0.0
H996 H 0.45372 0.882 0.20555 0.0
H997 H 0.4465 0.90326 0.22532 0.0
H998 H 0.46961 0.91883 0.2089 0.0
H999 H 0.43502 0.96523 0.20739 0.0
H1000 H 0.41174 0.94974 0.22381 0.0
H1001 H 0.39552 0.96014 0.20301 0.0
H1002 H 0.35096 0.86276 0.17256 0.0
H1003 H 0.32747 0.84394 0.19904 0.0
H1004 H 0.3909 0.89544 0.23148 0.0
C1005 C 0.44672 0.93254 0.17285 0.0
C1006 C 0.4462 0.92865 0.15446 0.0
C1007 C 0.42315 0.91124 0.1462 0.0
C1008 C 0.40109 0.89773 0.15606 0.0
C1009 C 0.40234 0.90188 0.17418 0.0
C1010 C 0.42458 0.91882 0.1825 0.0
C1011 C 0.42165 0.91866 0.20217 0.0
C1012 C 0.44952 0.90486 0.211 0.0
C1013 C 0.41562 0.95033 0.20952 0.0
C1014 C 0.39451 0.89869 0.20363 0.0
C1015 C 0.38355 0.88943 0.18734 0.0
C1016 C 0.35921 0.87003 0.18539 0.0
C1017 C 0.346 0.85948 0.20051 0.0
C1018 C 0.35725 0.86826 0.21736 0.0
C1019 C 0.38157 0.88846 0.21883 0.0
H1020 H 0.07077 0.65009 0.84499 0.0
H1021 H 0.13978 0.59967 0.87204 0.0
H1022 H 0.17863 0.62684 0.85638 0.0
H1023 H 0.10559 0.64914 0.80386 0.0
H1024 H 0.09432 0.6864 0.79811 0.0
H1025 H 0.07189 0.66508 0.81255 0.0
H1026 H 0.07585 0.70776 0.83601 0.0
H1027 H 0.09825 0.72928 0.82161 0.0
H1028 H 0.11222 0.72115 0.84329 0.0
H1029 H 0.2097 0.65734 0.83708 0.0
H1030 H 0.23156 0.68855 0.81462 0.0
H1031 H 0.1427 0.71879 0.79908 0.0
C1032 C 0.09411 0.64523 0.84777 0.0
C1033 C 0.10242 0.62293 0.85974 0.0
C1034 C 0.13307 0.61665 0.86287 0.0
C1035 C 0.15524 0.63203 0.8541 0.0
C1036 C 0.14639 0.65355 0.84218 0.0
C1037 C 0.1166 0.66018 0.83894 0.0
C1038 C 0.11325 0.68307 0.82469 0.0
C1039 C 0.0952 0.67014 0.80887 0.0
C1040 C 0.09905 0.71203 0.83183 0.0
C1041 C 0.14577 0.68791 0.82029 0.0
C1042 C 0.16445 0.67086 0.83069 0.0
C1043 C 0.19534 0.67093 0.82891 0.0
C1044 C 0.20753 0.68875 0.81607 0.0
C1045 C 0.18889 0.70618 0.80504 0.0
C1046 C 0.15758 0.70583 0.80732 0.0
H1047 H 0.44787 0.58095 0.07721 0.0
H1048 H 0.38957 0.59698 0.12103 0.0
H1049 H 0.3574 0.6287 0.10256 0.0
H1050 H 0.44475 0.6557 0.06156 0.0
H1051 H 0.44556 0.64429 0.03881 0.0
H1052 H 0.46303 0.62136 0.05517 0.0
H1053 H 0.43098 0.57605 0.04416 0.0
H1054 H 0.41336 0.59887 0.02778 0.0
H1055 H 0.39081 0.57939 0.04306 0.0
H1056 H 0.33189 0.65941 0.07945 0.0
H1057 H 0.31606 0.68831 0.0537 0.0
H1058 H 0.39242 0.65421 0.02552 0.0
C1059 C 0.42845 0.59121 0.083 0.0
C1060 C 0.42122 0.58615 0.10059 0.0
C1061 C 0.39533 0.59988 0.10751 0.0
C1062 C 0.37698 0.61813 0.09715 0.0
C1063 C 0.38485 0.62265 0.07992 0.0
C1064 C 0.41004 0.60971 0.07291 0.0
C1065 C 0.41406 0.61895 0.05419 0.0
C1066 C 0.4436 0.6361 0.05233 0.0
C1067 C 0.41218 0.59169 0.04156 0.0
C1068 C 0.38729 0.63929 0.05181 0.0
C1069 C 0.37058 0.64093 0.06675 0.0
C1070 C 0.3448 0.65831 0.06767 0.0
C1071 C 0.33597 0.67461 0.05297 0.0
C1072 C 0.35303 0.6736 0.03761 0.0
C1073 C 0.37895 0.65556 0.03708 0.0
H1074 H 0.47029 0.87685 0.35801 0.0
H1075 H 0.42622 0.96315 0.35396 0.0
H1076 H 0.38927 0.94117 0.33319 0.0
H1077 H 0.46022 0.85227 0.31427 0.0
H1078 H 0.45161 0.81394 0.31897 0.0
H1079 H 0.47479 0.83584 0.33403 0.0
H1080 H 0.43887 0.82497 0.35914 0.0
H1081 H 0.41574 0.8027 0.34421 0.0
H1082 H 0.39963 0.83338 0.35644 0.0
H1083 H 0.3608 0.91224 0.31071 0.0
H1084 H 0.33634 0.87512 0.29078 0.0
H1085 H 0.3939 0.80555 0.3114 0.0
C1086 C 0.45257 0.89101 0.35302 0.0
C1087 C 0.45178 0.92199 0.3573 0.0
C1088 C 0.4281 0.93964 0.35043 0.0
C1089 C 0.40677 0.92733 0.33872 0.0
C1090 C 0.40883 0.8971 0.33432 0.0
C1091 C 0.43055 0.8789 0.34153 0.0
C1092 C 0.42709 0.84693 0.33463 0.0
C1093 C 0.4551 0.83666 0.3249 0.0
C1094 C 0.4199 0.82574 0.34949 0.0
C1095 C 0.40049 0.85034 0.32213 0.0
C1096 C 0.39066 0.87964 0.32208 0.0
C1097 C 0.36784 0.8891 0.31084 0.0
C1098 C 0.35429 0.86794 0.29949 0.0
C1099 C 0.3632 0.8376 0.2997 0.0
C1100 C 0.38652 0.82861 0.31119 0.0
H1101 H 0.15923 0.92752 0.6182 0.0
H1102 H 0.21351 0.00775 0.62416 0.0
H1103 H 0.25 0.98597 0.60369 0.0
H1104 H 0.22132 0.87372 0.61322 0.0
H1105 H 0.20056 0.85143 0.59715 0.0
H1106 H 0.18112 0.87177 0.61401 0.0
H1107 H 0.14881 0.898 0.59031 0.0
H1108 H 0.1682 0.87791 0.57341 0.0
H1109 H 0.16698 0.91821 0.57344 0.0
H1110 H 0.27739 0.95759 0.57991 0.0
H1111 H 0.29388 0.92467 0.55557 0.0
H1112 H 0.22097 0.86358 0.56526 0.0
C1113 C 0.179 0.94037 0.61539 0.0
C1114 C 0.18354 0.96933 0.62277 0.0
C1115 C 0.20977 0.98536 0.61883 0.0
C1116 C 0.23055 0.97322 0.60717 0.0
C1117 C 0.22487 0.94494 0.59971 0.0
C1118 C 0.19985 0.92863 0.60381 0.0
C1119 C 0.19772 0.89969 0.5932 0.0
C1120 C 0.20035 0.87255 0.60511 0.0
C1121 C 0.16872 0.8984 0.58192 0.0
C1122 C 0.22497 0.90262 0.58207 0.0
C1123 C 0.24056 0.92869 0.5861 0.0
C1124 C 0.26558 0.93692 0.57682 0.0
C1125 C 0.27474 0.91811 0.56298 0.0
C1126 C 0.25879 0.89149 0.55852 0.0
C1127 C 0.23383 0.88361 0.5684 0.0
H1128 H 0.63066 0.40724 0.91772 0.0
H1129 H 0.55079 0.35241 0.91147 0.0
H1130 H 0.57214 0.31659 0.93248 0.0
H1131 H 0.68394 0.3461 0.92262 0.0
H1132 H 0.70651 0.36638 0.93877 0.0
H1133 H 0.68579 0.38636 0.92228 0.0
H1134 H 0.65993 0.41774 0.94648 0.0
H1135 H 0.68045 0.39779 0.96304 0.0
H1136 H 0.64018 0.39891 0.96329 0.0
H1137 H 0.6009 0.28862 0.95576 0.0
H1138 H 0.63544 0.26982 0.97868 0.0
H1139 H 0.69613 0.34344 0.96977 0.0
C1140 C 0.61768 0.38764 0.9207 0.0
C1141 C 0.58904 0.38263 0.91293 0.0
C1142 C 0.57294 0.35653 0.91707 0.0
C1143 C 0.58481 0.33614 0.92907 0.0
C1144 C 0.61287 0.3421 0.93673 0.0
C1145 C 0.62917 0.36712 0.93262 0.0
C1146 C 0.65835 0.36892 0.94307 0.0
C1147 C 0.68523 0.3668 0.93096 0.0
C1148 C 0.65979 0.39753 0.95465 0.0
C1149 C 0.65572 0.34127 0.95394 0.0
C1150 C 0.62939 0.32602 0.95006 0.0
C1151 C 0.62168 0.30025 0.9588 0.0
C1152 C 0.64142 0.28979 0.97184 0.0
C1153 C 0.66853 0.3051 0.97602 0.0
C1154 C 0.67568 0.33112 0.96684 0.0
H1155 H 0.65114 0.07579 0.16902 0.0
H1156 H 0.68508 0.10516 0.11965 0.0
H1157 H 0.72006 0.13961 0.1356 0.0
H1158 H 0.65121 0.14625 0.18986 0.0
H1159 H 0.66233 0.13311 0.21115 0.0
H1160 H 0.64226 0.10865 0.19596 0.0
H1161 H 0.68464 0.06936 0.19842 0.0
H1162 H 0.70484 0.09371 0.21368 0.0
H1163 H 0.72257 0.08013 0.19414 0.0
H1164 H 0.74879 0.17304 0.15679 0.0
H1165 H 0.76836 0.2041 0.1816 0.0
H1166 H 0.71527 0.15304 0.21716 0.0
C1167 C 0.66643 0.08899 0.1616 0.0
C1168 C 0.6656 0.08774 0.14313 0.0
C1169 C 0.68535 0.1059 0.13382 0.0
C1170 C 0.70538 0.12536 0.14275 0.0
C1171 C 0.70535 0.12635 0.16098 0.0
C1172 C 0.68641 0.10863 0.1703 0.0
C1173 C 0.68936 0.11542 0.18976 0.0
C1174 C 0.65952 0.12652 0.19711 0.0
C1175 C 0.70106 0.08802 0.19957 0.0
C1176 C 0.71247 0.14016 0.1899 0.0
C1177 C 0.72166 0.14589 0.17319 0.0
C1178 C 0.74198 0.16859 0.16995 0.0
C1179 C 0.75293 0.18613 0.18415 0.0
C1180 C 0.7434 0.18102 0.20136 0.0
C1181 C 0.72319 0.15742 0.20421 0.0
H1182 H 0.98674 0.16694 0.41818 0.0
H1183 H 0.92646 0.09197 0.40789 0.0
H1184 H 0.89303 0.11136 0.43052 0.0
H1185 H 0.97918 0.16906 0.46467 0.0
H1186 H 0.98044 0.20929 0.46677 0.0
H1187 H -0.00073 0.1905 0.44911 0.0
H1188 H 0.9697 0.22219 0.42665 0.0
H1189 H 0.95084 0.24115 0.44425 0.0
H1190 H 0.92941 0.22255 0.42691 0.0
H1191 H 0.86713 0.13711 0.4547 0.0
H1192 H 0.84913 0.16876 0.47891 0.0
H1193 H 0.92595 0.22741 0.47427 0.0
C1194 C 0.96647 0.15467 0.42067 0.0
C1195 C 0.95909 0.12809 0.41109 0.0
C1196 C 0.93231 0.11272 0.41474 0.0
C1197 C 0.91325 0.12342 0.42767 0.0
C1198 C 0.92125 0.14952 0.4369 0.0
C1199 C 0.94711 0.16506 0.43358 0.0
C1200 C 0.95051 0.1923 0.44569 0.0
C1201 C 0.97904 0.19014 0.45725 0.0
C1202 C 0.95008 0.22126 0.43525 0.0
C1203 C 0.92261 0.18941 0.4564 0.0
C1204 C 0.90614 0.16454 0.45104 0.0
C1205 C 0.87973 0.15673 0.45899 0.0
C1206 C 0.86975 0.17488 0.47278 0.0
C1207 C 0.88609 0.20064 0.47852 0.0
C1208 C 0.91291 0.20794 0.47017 0.0
H1209 H 0.91833 0.42591 0.64589 0.0
H1210 H 0.9432 0.49188 0.68612 0.0
H1211 H 0.91187 0.46593 0.7072 0.0
H1212 H 0.84094 0.4129 0.6599 0.0
H1213 H 0.8426 0.37325 0.65517 0.0
H1214 H 0.86427 0.39876 0.6427 0.0
H1215 H 0.91246 0.3695 0.65067 0.0
H1216 H 0.89101 0.34398 0.66321 0.0
H1217 H 0.92225 0.36381 0.67336 0.0
H1218 H 0.88072 0.43162 0.72428 0.0
H1219 H 0.85285 0.39009 0.73679 0.0
H1220 H 0.84914 0.34476 0.6859 0.0
C1221 C 0.91657 0.43513 0.65905 0.0
C1222 C 0.93282 0.46099 0.66443 0.0
C1223 C 0.93073 0.47214 0.68182 0.0
C1224 C 0.91297 0.45762 0.69383 0.0
C1225 C 0.89758 0.43187 0.68826 0.0
C1226 C 0.8992 0.42062 0.67131 0.0
C1227 C 0.88222 0.3913 0.66914 0.0
C1228 C 0.85595 0.39424 0.65595 0.0
C1229 C 0.90325 0.36564 0.66378 0.0
C1230 C 0.87126 0.38764 0.68758 0.0
C1231 C 0.88009 0.41151 0.69831 0.0
C1232 C 0.87348 0.41289 0.71599 0.0
C1233 C 0.85764 0.38912 0.72298 0.0
C1234 C 0.84874 0.36409 0.71236 0.0
C1235 C 0.85546 0.36359 0.69436 0.0
H1236 H 0.63726 0.08533 0.3362 0.0
H1237 H 0.66988 0.12445 0.38559 0.0
H1238 H 0.70012 0.16046 0.3696 0.0
H1239 H 0.70611 0.09258 0.31295 0.0
H1240 H 0.68763 0.1017 0.29256 0.0
H1241 H 0.66902 0.07854 0.30788 0.0
H1242 H 0.62412 0.11513 0.30806 0.0
H1243 H 0.64261 0.13841 0.29276 0.0
H1244 H 0.63051 0.15417 0.31331 0.0
H1245 H 0.72573 0.19298 0.34838 0.0
H1246 H 0.74603 0.21926 0.32333 0.0
H1247 H 0.69669 0.15929 0.28758 0.0
C1248 C 0.65069 0.10154 0.34366 0.0
C1249 C 0.65127 0.10199 0.36216 0.0
C1250 C 0.6694 0.12336 0.37142 0.0
C1251 C 0.68651 0.14404 0.36246 0.0
C1252 C 0.68531 0.14304 0.34424 0.0
C1253 C 0.66796 0.12231 0.33492 0.0
C1254 C 0.67061 0.12613 0.31538 0.0
C1255 C 0.68416 0.09807 0.30668 0.0
C1256 C 0.64015 0.13393 0.30688 0.0
C1257 C 0.69202 0.1524 0.31517 0.0
C1258 C 0.70019 0.16178 0.33196 0.0
C1259 C 0.71955 0.1858 0.33517 0.0
C1260 C 0.73093 0.20062 0.32082 0.0
C1261 C 0.72298 0.19137 0.30346 0.0
C1262 C 0.70324 0.1669 0.30067 0.0
H1263 H 0.96705 0.11158 0.59397 0.0
H1264 H 0.93242 0.12848 0.64573 0.0
H1265 H 0.88803 0.15304 0.63263 0.0
H1266 H 0.94539 0.1812 0.57665 0.0
H1267 H 0.93591 0.16639 0.55509 0.0
H1268 H 0.96365 0.14798 0.56844 0.0
H1269 H 0.93367 0.09842 0.56524 0.0
H1270 H 0.90575 0.11675 0.55191 0.0
H1271 H 0.89498 0.09774 0.5713 0.0
H1272 H 0.84865 0.17732 0.61414 0.0
H1273 H 0.81827 0.20267 0.59162 0.0
H1274 H 0.87898 0.17097 0.5518 0.0
C1275 C 0.94987 0.12012 0.60247 0.0
C1276 C 0.953 0.11818 0.62082 0.0
C1277 C 0.93042 0.13 0.63163 0.0
C1278 C 0.90509 0.14376 0.62432 0.0
C1279 C 0.90273 0.14553 0.60618 0.0
C1280 C 0.92456 0.1342 0.59539 0.0
C1281 C 0.91749 0.14079 0.5764 0.0
C1282 C 0.94206 0.16025 0.5687 0.0
C1283 C 0.91268 0.11169 0.56558 0.0
C1284 C 0.88852 0.15796 0.57825 0.0
C1285 C 0.88022 0.16009 0.59551 0.0
C1286 C 0.8548 0.17568 0.60056 0.0
C1287 C 0.83767 0.18998 0.58765 0.0
C1288 C 0.8462 0.18882 0.56993 0.0
C1289 C 0.87173 0.17215 0.5652 0.0
H1290 H 0.93959 0.42717 0.83427 0.0
H1291 H 0.92987 0.38119 0.88317 0.0
H1292 H 0.90433 0.33943 0.86724 0.0
H1293 H 0.86793 0.40939 0.81714 0.0
H1294 H 0.87955 0.40507 0.79483 0.0
H1295 H 0.89997 0.42964 0.8098 0.0
H1296 H 0.94888 0.40083 0.80328 0.0
H1297 H 0.92855 0.37609 0.7883 0.0
H1298 H 0.95029 0.36096 0.80617 0.0
H1299 H 0.87653 0.30451 0.84631 0.0
H1300 H 0.84754 0.27979 0.82215 0.0
H1301 H 0.87441 0.34954 0.78722 0.0
C1302 C 0.9322 0.4083 0.84166 0.0
C1303 C 0.93688 0.40743 0.85997 0.0
C1304 C 0.92704 0.38215 0.86909 0.0
C1305 C 0.9124 0.35836 0.86017 0.0
C1306 C 0.90784 0.36017 0.84215 0.0
C1307 C 0.91745 0.3845 0.83299 0.0
C1308 C 0.90814 0.38191 0.81387 0.0
C1309 C 0.88768 0.40805 0.80861 0.0
C1310 C 0.93561 0.37981 0.80222 0.0
C1311 C 0.89119 0.35263 0.81376 0.0
C1312 C 0.89155 0.34024 0.83014 0.0
C1313 C 0.87632 0.31384 0.83339 0.0
C1314 C 0.85991 0.29997 0.81957 0.0
C1315 C 0.85872 0.31268 0.80277 0.0
C1316 C 0.875 0.33911 0.79986 0.0
H1317 H 0.60889 0.41441 0.08973 0.0
H1318 H 0.6393 0.3868 0.14116 0.0
H1319 H 0.67935 0.35666 0.12766 0.0
H1320 H 0.62186 0.34346 0.06756 0.0
H1321 H 0.63377 0.36031 0.04772 0.0
H1322 H 0.60762 0.37958 0.06151 0.0
H1323 H 0.64282 0.42569 0.06344 0.0
H1324 H 0.66917 0.40648 0.04975 0.0
H1325 H 0.68103 0.42114 0.07097 0.0
H1326 H 0.71704 0.33118 0.10862 0.0
H1327 H 0.74741 0.30863 0.08529 0.0
H1328 H 0.69144 0.35183 0.04615 0.0
C1329 C 0.62401 0.40201 0.09812 0.0
C1330 C 0.62112 0.4029 0.11647 0.0
C1331 C 0.64105 0.38616 0.12706 0.0
C1332 C 0.66393 0.36917 0.11952 0.0
C1333 C 0.66636 0.36901 0.10139 0.0
C1334 C 0.64675 0.38472 0.09081 0.0
C1335 C 0.65388 0.38032 0.07166 0.0
C1336 C 0.62773 0.365 0.06152 0.0
C1337 C 0.66223 0.41019 0.06348 0.0
C1338 C 0.68069 0.35982 0.07313 0.0
C1339 C 0.68765 0.35375 0.09039 0.0
C1340 C 0.71173 0.33565 0.09505 0.0
C1341 C 0.72892 0.32305 0.08169 0.0
C1342 C 0.7218 0.32841 0.06387 0.0
C1343 C 0.69743 0.34722 0.05962 0.0
loop_
_geom_bond_atom_site_label_1
_geom_bond_atom_site_label_2
_geom_bond_distance
_geom_bond_site_symmetry_2
_ccdc_geom_bond_type
C0 C1 1.384 . S
C0 C2 1.384 . S
C0 H28 0.931 . S
C1 C0 1.384 . S
C1 C4 1.382 . S
C2 C0 1.384 . S
C2 C3 1.381 . S
C2 H29 0.930 . S
C3 C2 1.381 . S
C3 C5 1.381 1_565 S
C3 C6 1.487 1_565 S
C4 C1 1.382 . S
C4 C5 1.387 1_565 S
C4 H30 0.930 1_565 S
C5 C3 1.381 1_545 S
C5 C4 1.387 1_545 S
C5 H31 0.931 . S
C6 C3 1.487 1_545 S
C6 C13 1.399 . S
C6 N44 1.343 . S
C7 C8 1.384 . S
C7 C9 1.384 . S
C7 H32 0.931 . S
C8 C7 1.384 . S
C8 C11 1.382 . S
C9 C7 1.384 . S
C9 C10 1.381 . S
C9 H33 0.930 1_565 S
C10 C9 1.381 . S
C10 C12 1.381 . S
C10 C13 1.487 1_565 S
C11 C8 1.382 . S
C11 C12 1.387 . S
C11 H34 0.930 . S
C12 C10 1.381 . S
C12 C11 1.387 . S
C12 H35 0.931 . S
C13 C6 1.399 . S
C13 C10 1.487 1_545 S
C13 N45 1.343 . S
C14 C15 1.384 1_455 S
C14 C16 1.384 . S
C14 H36 0.935 . S
C15 C14 1.384 1_655 S
C15 C18 1.382 . S
C16 C14 1.384 . S
C16 C17 1.381 . S
C16 H37 0.930 . S
C17 C16 1.381 . S
C17 C19 1.381 . S
C17 C20 1.487 . S
C18 C15 1.382 . S
C18 C19 1.387 1_655 S
C18 H38 0.930 . S
C19 C17 1.381 . S
C19 C18 1.387 1_455 S
C19 H39 0.931 . S
C20 C17 1.487 . S
C20 C27 1.399 . S
C20 N45 1.343 . S
C21 C22 1.384 . S
C21 C23 1.382 1_655 S
C21 H40 0.931 . S
C22 C21 1.384 . S
C22 C25 1.382 1_655 S
C23 C21 1.382 1_455 S
C23 C24 1.384 . S
C23 H41 0.929 1_455 S
C24 C23 1.384 . S
C24 C26 1.381 . S
C24 C27 1.487 . S
C25 C22 1.382 1_455 S
C25 C26 1.387 . S
C25 H42 0.930 . S
C26 C24 1.381 . S
C26 C25 1.387 . S
C26 H43 0.931 . S
C27 C20 1.399 . S
C27 C24 1.487 . S
C27 N44 1.343 . S
H28 C0 0.931 . S
H29 C2 0.930 . S
H30 C4 0.930 1_545 S
H31 C5 0.931 . S
H32 C7 0.931 . S
H33 C9 0.930 1_545 S
H34 C11 0.930 . S
H35 C12 0.931 . S
H36 C14 0.935 . S
H37 C16 0.930 . S
H38 C18 0.930 . S
H39 C19 0.931 . S
H40 C21 0.931 . S
H41 C23 0.929 1_655 S
H42 C25 0.930 . S
H43 C26 0.931 . S
N44 C6 1.343 . S
N44 C27 1.343 . S
N45 C13 1.343 . S
N45 C20 1.343 . S
C46 C47 1.384 . S
C46 C48 1.384 . S
C46 H74 0.931 . S
C47 C46 1.384 . S
C47 C50 1.382 . S
C48 C46 1.384 . S
C48 C49 1.381 . S
C48 H75 0.930 . S
C49 C48 1.381 . S
C49 C51 1.381 . S
C49 C52 1.487 . S
C50 C47 1.382 . S
C50 C51 1.387 . S
C50 H76 0.930 . S
C51 C49 1.381 . S
C51 C50 1.387 . S
C51 H77 0.931 1_655 S
C52 C49 1.487 . S
C52 C59 1.399 . S
C52 N90 1.343 1_655 S
C53 C54 1.384 . S
C53 C55 1.384 . S
C53 H78 0.931 . S
C54 C53 1.384 . S
C54 C57 1.382 . S
C55 C53 1.384 . S
C55 C56 1.381 . S
C55 H79 0.930 . S
C56 C55 1.381 . S
C56 C58 1.381 . S
C56 C59 1.487 . S
C57 C54 1.382 . S
C57 C58 1.387 . S
C57 H80 0.930 . S
C58 C56 1.381 . S
C58 C57 1.387 . S
C58 H81 0.931 . S
C59 C52 1.399 . S
C59 C56 1.487 . S
C59 N91 1.343 1_655 S
C60 C61 1.384 . S
C60 C62 1.384 . S
C60 H82 0.931 . S
C61 C60 1.384 . S
C61 C64 1.382 . S
C62 C60 1.384 . S
C62 C63 1.381 . S
C62 H83 0.930 . S
C63 C62 1.381 . S
C63 C65 1.381 . S
C63 C66 1.487 . S
C64 C61 1.382 . S
C64 C65 1.387 . S
C64 H84 0.930 . S
C65 C63 1.381 . S
C65 C64 1.387 . S
C65 H85 0.931 . S
C66 C63 1.487 . S
C66 C73 1.399 . S
C66 N91 1.343 . S
C67 C68 1.384 . S
C67 C69 1.384 . S
C67 H86 0.931 . S
C68 C67 1.384 . S
C68 C71 1.382 . S
C69 C67 1.384 . S
C69 C70 1.381 . S
C69 H87 0.930 . S
C70 C69 1.381 . S
C70 C72 1.381 . S
C70 C73 1.487 . S
C71 C68 1.382 . S
C71 C72 1.387 . S
C71 H88 0.930 . S
C72 C70 1.381 . S
C72 C71 1.387 . S
C72 H89 0.931 . S
C73 C66 1.399 . S
C73 C70 1.487 . S
C73 N90 1.343 . S
H74 C46 0.931 . S
H75 C48 0.930 . S
H76 C50 0.930 . S
H77 C51 0.931 1_455 S
H78 C53 0.931 . S
H79 C55 0.930 . S
H80 C57 0.930 . S
H81 C58 0.931 . S
H82 C60 0.931 . S
H83 C62 0.930 . S
H84 C64 0.930 . S
H85 C65 0.931 . S
H86 C67 0.931 . S
H87 C69 0.930 . S
H88 C71 0.930 . S
H89 C72 0.931 . S
N90 C52 1.343 1_455 S
N90 C73 1.343 . S
N91 C59 1.343 1_455 S
N91 C66 1.343 . S
C92 C93 1.384 . S
C92 C94 1.384 . S
C92 H120 0.931 . S
C93 C92 1.384 . S
C93 C96 1.382 . S
C94 C92 1.384 . S
C94 C95 1.381 . S
C94 H121 0.930 . S
C95 C94 1.381 . S
C95 C97 1.381 . S
C95 C98 1.487 . S
C96 C93 1.382 . S
C96 C97 1.387 . S
C96 H122 0.930 . S
C97 C95 1.381 . S
C97 C96 1.387 . S
C97 H123 0.931 . S
C98 C95 1.487 . S
C98 C105 1.399 . S
C98 N136 1.343 . S
C99 C100 1.384 . S
C99 C101 1.384 . S
C99 H124 0.931 . S
C100 C99 1.384 . S
C100 C103 1.382 . S
C101 C99 1.384 . S
C101 C102 1.381 . S
C101 H125 0.930 . S
C102 C101 1.381 . S
C102 C104 1.381 . S
C102 C105 1.487 . S
C103 C100 1.382 . S
C103 C104 1.387 . S
C103 H126 0.930 . S
C104 C102 1.381 . S
C104 C103 1.387 . S
C104 H127 0.931 . S
C105 C98 1.399 . S
C105 C102 1.487 . S
C105 N137 1.343 . S
C106 C107 1.384 . S
C106 C108 1.384 . S
C106 H128 0.931 . S
C107 C106 1.384 . S
C107 C110 1.382 . S
C108 C106 1.384 . S
C108 C109 1.381 . S
C108 H129 0.930 . S
C109 C108 1.381 . S
C109 C111 1.381 . S
C109 C112 1.487 . S
C110 C107 1.382 . S
C110 C111 1.387 . S
C110 H130 0.930 . S
C111 C109 1.381 . S
C111 C110 1.387 . S
C111 H131 0.931 . S
C112 C109 1.487 . S
C112 C119 1.399 . S
C112 N137 1.343 . S
C113 C114 1.384 . S
C113 C115 1.384 . S
C113 H132 0.931 . S
C114 C113 1.384 . S
C114 C117 1.382 . S
C115 C113 1.384 . S
C115 C116 1.381 . S
C115 H133 0.930 . S
C116 C115 1.381 . S
C116 C118 1.381 . S
C116 C119 1.487 . S
C117 C114 1.382 . S
C117 C118 1.387 . S
C117 H134 0.930 . S
C118 C116 1.381 . S
C118 C117 1.387 . S
C118 H135 0.931 . S
C119 C112 1.399 . S
C119 C116 1.487 . S
C119 N136 1.343 . S
H120 C92 0.931 . S
H121 C94 0.930 . S
H122 C96 0.930 . S
H123 C97 0.931 . S
H124 C99 0.931 . S
H125 C101 0.930 . S
H126 C103 0.930 . S
H127 C104 0.931 . S
H128 C106 0.931 . S
H129 C108 0.930 . S
H130 C110 0.930 . S
H131 C111 0.931 . S
H132 C113 0.931 . S
H133 C115 0.930 . S
H134 C117 0.930 . S
H135 C118 0.931 . S
N136 C98 1.343 . S
N136 C119 1.343 . S
N137 C105 1.343 . S
N137 C112 1.343 . S
C138 C139 1.384 . S
C138 C140 1.384 . S
C138 H166 0.931 . S
C139 C138 1.384 . S
C139 C142 1.382 . S
C140 C138 1.384 . S
C140 C141 1.381 . S
C140 H167 0.930 . S
C141 C140 1.381 . S
C141 C143 1.381 . S
C141 C144 1.487 . S
C142 C139 1.382 . S
C142 C143 1.387 . S
C142 H168 0.930 . S
C143 C141 1.381 . S
C143 C142 1.387 . S
C143 H169 0.931 . S
C144 C141 1.487 . S
C144 C151 1.399 . S
C144 N182 1.343 1_565 S
C145 C146 1.384 . S
C145 C147 1.384 . S
C145 H170 0.931 . S
C146 C145 1.384 . S
C146 C149 1.382 . S
C147 C145 1.384 . S
C147 C148 1.381 . S
C147 H171 0.930 . S
C148 C147 1.381 . S
C148 C150 1.381 . S
C148 C151 1.487 . S
C149 C146 1.382 . S
C149 C150 1.387 . S
C149 H172 0.930 . S
C150 C148 1.381 . S
C150 C149 1.387 . S
C150 H173 0.931 . S
C151 C144 1.399 . S
C151 C148 1.487 . S
C151 N183 1.343 . S
C152 C153 1.384 . S
C152 C154 1.384 . S
C152 H174 0.931 . S
C153 C152 1.384 . S
C153 C156 1.382 . S
C154 C152 1.384 . S
C154 C155 1.381 . S
C154 H175 0.930 . S
C155 C154 1.381 . S
C155 C157 1.381 . S
C155 C158 1.487 . S
C156 C153 1.382 . S
C156 C157 1.387 . S
C156 H176 0.930 . S
C157 C155 1.381 . S
C157 C156 1.387 . S
C157 H177 0.931 . S
C158 C155 1.487 . S
C158 C165 1.399 . S
C158 N183 1.343 1_545 S
C159 C160 1.384 . S
C159 C161 1.384 . S
C159 H178 0.931 . S
C160 C159 1.384 . S
C160 C163 1.382 . S
C161 C159 1.384 . S
C161 C162 1.381 . S
C161 H179 0.930 . S
C162 C161 1.381 . S
C162 C164 1.381 . S
C162 C165 1.487 . S
C163 C160 1.382 . S
C163 C164 1.387 . S
C163 H180 0.930 . S
C164 C162 1.381 . S
C164 C163 1.387 . S
C164 H181 0.931 . S
C165 C158 1.399 . S
C165 C162 1.487 . S
C165 N182 1.343 . S
H166 C138 0.931 . S
H167 C140 0.930 . S
H168 C142 0.930 . S
H169 C143 0.931 . S
H170 C145 0.931 . S
H171 C147 0.930 . S
H172 C149 0.930 . S
H173 C150 0.931 . S
H174 C152 0.931 . S
H175 C154 0.930 . S
H176 C156 0.930 . S
H177 C157 0.931 . S
H178 C159 0.931 . S
H179 C161 0.930 . S
H180 C163 0.930 . S
H181 C164 0.931 . S
N182 C144 1.343 1_545 S
N182 C165 1.343 . S
N183 C151 1.343 . S
N183 C158 1.343 1_565 S
C184 C185 1.384 . S
C184 C186 1.384 . S
C184 H212 0.931 . S
C185 C184 1.384 . S
C185 C188 1.382 . S
C186 C184 1.384 . S
C186 C187 1.381 . S
C186 H213 0.930 . S
C187 C186 1.381 . S
C187 C189 1.381 . S
C187 C190 1.487 . S
C188 C185 1.382 . S
C188 C189 1.387 . S
C188 H214 0.930 . S
C189 C187 1.381 . S
C189 C188 1.387 . S
C189 H215 0.931 . S
C190 C187 1.487 . S
C190 C197 1.399 . S
C190 N228 1.368 . S
C191 C192 1.384 . S
C191 C193 1.384 . S
C191 H216 0.931 . S
C192 C191 1.384 . S
C192 C195 1.382 . S
C193 C191 1.384 . S
C193 C194 1.381 . S
C193 H217 0.930 . S
C194 C193 1.381 . S
C194 C196 1.381 . S
C194 C197 1.487 . S
C195 C192 1.382 . S
C195 C196 1.387 . S
C195 H218 0.930 . S
C196 C194 1.381 . S
C196 C195 1.387 . S
C196 H219 0.931 . S
C197 C190 1.399 . S
C197 C194 1.487 . S
C197 N229 1.333 1_455 S
C198 C199 1.384 . S
C198 C200 1.384 . S
C198 H220 0.931 . S
C199 C198 1.384 . S
C199 C202 1.382 . S
C200 C198 1.384 . S
C200 C201 1.381 . S
C200 H221 0.930 . S
C201 C200 1.381 . S
C201 C203 1.381 . S
C201 C204 1.487 . S
C202 C199 1.382 . S
C202 C203 1.387 . S
C202 H222 0.930 . S
C203 C201 1.381 . S
C203 C202 1.387 . S
C203 H223 0.931 . S
C204 C201 1.487 . S
C204 C211 1.399 . S
C204 N229 1.352 . S
C205 C206 1.384 . S
C205 C207 1.384 . S
C205 H224 0.931 . S
C206 C205 1.384 . S
C206 C209 1.382 . S
C207 C205 1.384 . S
C207 C208 1.381 . S
C207 H225 0.930 . S
C208 C207 1.381 . S
C208 C210 1.381 . S
C208 C211 1.487 . S
C209 C206 1.382 . S
C209 C210 1.387 . S
C209 H226 0.930 . S
C210 C208 1.381 . S
C210 C209 1.387 . S
C210 H227 0.931 . S
C211 C204 1.399 . S
C211 C208 1.487 . S
C211 N228 1.316 1_655 S
H212 C184 0.931 . S
H213 C186 0.930 . S
H214 C188 0.930 . S
H215 C189 0.931 . S
H216 C191 0.931 . S
H217 C193 0.930 . S
H218 C195 0.930 . S
H219 C196 0.931 . S
H220 C198 0.931 . S
H221 C200 0.930 . S
H222 C202 0.930 . S
H223 C203 0.931 . S
H224 C205 0.931 . S
H225 C207 0.930 . S
H226 C209 0.930 . S
H227 C210 0.931 . S
N228 C190 1.368 . S
N228 C211 1.316 1_455 S
N229 C197 1.333 1_655 S
N229 C204 1.352 . S
C230 C231 1.384 . S
C230 C232 1.384 . S
C230 H258 0.931 . S
C231 C230 1.384 . S
C231 C234 1.382 . S
C232 C230 1.384 . S
C232 C233 1.381 . S
C232 H259 0.930 . S
C233 C232 1.381 . S
C233 C235 1.381 . S
C233 C236 1.487 . S
C234 C231 1.382 . S
C234 C235 1.387 . S
C234 H260 0.930 . S
C235 C233 1.381 . S
C235 C234 1.387 . S
C235 H261 0.931 . S
C236 C233 1.487 . S
C236 C243 1.399 . S
C236 N274 1.343 . S
C237 C238 1.384 . S
C237 C239 1.384 . S
C237 H262 0.931 . S
C238 C237 1.384 . S
C238 C241 1.382 . S
C239 C237 1.384 . S
C239 C240 1.381 . S
C239 H263 0.930 . S
C240 C239 1.381 . S
C240 C242 1.381 . S
C240 C243 1.487 . S
C241 C238 1.382 . S
C241 C242 1.387 . S
C241 H264 0.930 . S
C242 C240 1.381 . S
C242 C241 1.387 . S
C242 H265 0.931 . S
C243 C236 1.399 . S
C243 C240 1.487 . S
C243 N275 1.343 . S
C244 C245 1.384 . S
C244 C246 1.384 . S
C244 H266 0.931 . S
C245 C244 1.384 . S
C245 C248 1.382 . S
C246 C244 1.384 . S
C246 C247 1.381 . S
C246 H267 0.930 . S
C247 C246 1.381 . S
C247 C249 1.381 . S
C247 C250 1.487 . S
C248 C245 1.382 . S
C248 C249 1.387 . S
C248 H268 0.930 . S
C249 C247 1.381 . S
C249 C248 1.387 . S
C249 H269 0.931 . S
C250 C247 1.487 . S
C250 C257 1.399 . S
C250 N275 1.343 . S
C251 C252 1.384 . S
C251 C253 1.384 . S
C251 H270 0.931 . S
C252 C251 1.384 . S
C252 C255 1.382 . S
C253 C251 1.384 . S
C253 C254 1.381 . S
C253 H271 0.930 . S
C254 C253 1.381 . S
C254 C256 1.381 . S
C254 C257 1.487 . S
C255 C252 1.382 . S
C255 C256 1.387 . S
C255 H272 0.930 . S
C256 C254 1.381 . S
C256 C255 1.387 . S
C256 H273 0.931 . S
C257 C250 1.399 . S
C257 C254 1.487 . S
C257 N274 1.343 . S
H258 C230 0.931 . S
H259 C232 0.930 . S
H260 C234 0.930 . S
H261 C235 0.931 . S
H262 C237 0.931 . S
H263 C239 0.930 . S
H264 C241 0.930 . S
H265 C242 0.931 . S
H266 C244 0.931 . S
H267 C246 0.930 . S
H268 C248 0.930 . S
H269 C249 0.931 . S
H270 C251 0.931 . S
H271 C253 0.930 . S
H272 C255 0.930 . S
H273 C256 0.931 . S
N274 C236 1.343 . S
N274 C257 1.343 . S
N275 C243 1.343 . S
N275 C250 1.343 . S
C276 C277 1.384 . S
C276 C278 1.384 . S
C276 H304 0.931 . S
C277 C276 1.384 . S
C277 C280 1.382 . S
C278 C276 1.384 . S
C278 C279 1.381 . S
C278 H305 0.930 . S
C279 C278 1.381 . S
C279 C281 1.381 . S
C279 C282 1.487 . S
C280 C277 1.382 . S
C280 C281 1.387 . S
C280 H306 0.930 . S
C281 C279 1.381 . S
C281 C280 1.387 . S
C281 H307 0.931 1_565 S
C282 C279 1.487 . S
C282 C289 1.399 . S
C282 N320 1.343 1_565 S
C283 C284 1.384 . S
C283 C285 1.384 . S
C283 H308 0.931 . S
C284 C283 1.384 . S
C284 C287 1.382 . S
C285 C283 1.384 . S
C285 C286 1.381 . S
C285 H309 0.930 . S
C286 C285 1.381 . S
C286 C288 1.381 . S
C286 C289 1.487 . S
C287 C284 1.382 . S
C287 C288 1.387 . S
C287 H310 0.930 . S
C288 C286 1.381 . S
C288 C287 1.387 . S
C288 H311 0.931 . S
C289 C282 1.399 . S
C289 C286 1.487 . S
C289 N321 1.343 1_565 S
C290 C291 1.384 . S
C290 C292 1.384 . S
C290 H312 0.931 . S
C291 C290 1.384 . S
C291 C294 1.382 . S
C292 C290 1.384 . S
C292 C293 1.381 . S
C292 H313 0.930 . S
C293 C292 1.381 . S
C293 C295 1.381 . S
C293 C296 1.487 . S
C294 C291 1.382 . S
C294 C295 1.387 . S
C294 H314 0.930 . S
C295 C293 1.381 . S
C295 C294 1.387 . S
C295 H315 0.931 . S
C296 C293 1.487 . S
C296 C303 1.399 . S
C296 N321 1.343 . S
C297 C298 1.384 . S
C297 C299 1.384 . S
C297 H316 0.931 . S
C298 C297 1.384 . S
C298 C301 1.382 . S
C299 C297 1.384 . S
C299 C300 1.381 . S
C299 H317 0.930 . S
C300 C299 1.381 . S
C300 C302 1.381 . S
C300 C303 1.487 . S
C301 C298 1.382 . S
C301 C302 1.387 . S
C301 H318 0.930 . S
C302 C300 1.381 . S
C302 C301 1.387 . S
C302 H319 0.931 . S
C303 C296 1.399 . S
C303 C300 1.487 . S
C303 N320 1.343 . S
H304 C276 0.931 . S
H305 C278 0.930 . S
H306 C280 0.930 . S
H307 C281 0.931 1_545 S
H308 C283 0.931 . S
H309 C285 0.930 . S
H310 C287 0.930 . S
H311 C288 0.931 . S
H312 C290 0.931 . S
H313 C292 0.930 . S
H314 C294 0.930 . S
H315 C295 0.931 . S
H316 C297 0.931 . S
H317 C299 0.930 . S
H318 C301 0.930 . S
H319 C302 0.931 . S
N320 C282 1.343 1_545 S
N320 C303 1.343 . S
N321 C289 1.343 1_545 S
N321 C296 1.343 . S
C322 C323 1.384 . S
C322 C324 1.384 1_565 S
C322 H350 0.931 . S
C323 C322 1.384 . S
C323 C326 1.382 . S
C324 C322 1.384 1_545 S
C324 C325 1.381 . S
C324 H351 0.930 . S
C325 C324 1.381 . S
C325 C327 1.381 1_545 S
C325 C328 1.487 . S
C326 C323 1.382 . S
C326 C327 1.387 . S
C326 H352 0.930 . S
C327 C325 1.381 1_565 S
C327 C326 1.387 . S
C327 H353 0.931 1_565 S
C328 C325 1.487 . S
C328 C335 1.399 . S
C328 N366 1.343 . S
C329 C330 1.384 . S
C329 C331 1.384 . S
C329 H354 0.931 . S
C330 C329 1.384 . S
C330 C333 1.382 1_565 S
C331 C329 1.384 . S
C331 C332 1.381 1_565 S
C331 H355 0.930 . S
C332 C331 1.381 1_545 S
C332 C334 1.381 . S
C332 C335 1.487 . S
C333 C330 1.382 1_545 S
C333 C334 1.387 . S
C333 H356 0.930 . S
C334 C332 1.381 . S
C334 C333 1.387 . S
C334 H357 0.931 . S
C335 C328 1.399 . S
C335 C332 1.487 . S
C335 N367 1.343 . S
C336 C337 1.384 . S
C336 C338 1.384 . S
C336 H358 0.931 . S
C337 C336 1.384 . S
C337 C340 1.382 1_655 S
C338 C336 1.384 . S
C338 C339 1.381 1_655 S
C338 H359 0.930 . S
C339 C338 1.381 1_455 S
C339 C341 1.381 . S
C339 C342 1.487 . S
C340 C337 1.382 1_455 S
C340 C341 1.387 . S
C340 H360 0.930 . S
C341 C339 1.381 . S
C341 C340 1.387 . S
C341 H361 0.931 . S
C342 C339 1.487 . S
C342 C349 1.399 . S
C342 N367 1.343 . S
C343 C344 1.384 1_455 S
C343 C345 1.384 . S
C343 H362 0.931 . S
C344 C343 1.384 1_655 S
C344 C347 1.382 . S
C345 C343 1.384 . S
C345 C346 1.381 . S
C345 H363 0.930 . S
C346 C345 1.381 . S
C346 C348 1.381 . S
C346 C349 1.487 . S
C347 C344 1.382 . S
C347 C348 1.387 1_655 S
C347 H364 0.930 . S
C348 C346 1.381 . S
C348 C347 1.387 1_455 S
C348 H365 0.931 . S
C349 C342 1.399 . S
C349 C346 1.487 . S
C349 N366 1.343 . S
H350 C322 0.931 . S
H351 C324 0.930 . S
H352 C326 0.930 . S
H353 C327 0.931 1_545 S
H354 C329 0.931 . S
H355 C331 0.930 . S
H356 C333 0.930 . S
H357 C334 0.931 . S
H358 C336 0.931 . S
H359 C338 0.930 . S
H360 C340 0.930 . S
H361 C341 0.931 . S
H362 C343 0.931 . S
H363 C345 0.930 . S
H364 C347 0.930 . S
H365 C348 0.931 . S
N366 C328 1.343 . S
N366 C349 1.343 . S
N367 C335 1.343 . S
N367 C342 1.343 . S
Zn368 O371 2.031 . S
Zn368 O373 2.030 1_556 S
Zn368 O378 2.067 . S
Zn369 O370 1.962 . S
Zn369 O372 1.986 . S
Zn369 O374 1.996 . S
Zn369 O377 1.943 . S
O370 Zn369 1.962 . S
O370 C375 1.254 . S
O371 Zn368 2.031 . S
O371 C375 1.269 1_556 S
O372 Zn369 1.986 . S
O372 C379 1.262 . S
O373 Zn368 2.030 1_554 S
O373 C381 1.312 . S
O374 Zn369 1.996 . S
O374 C381 1.257 . S
C375 O370 1.254 . S
C375 O371 1.269 1_554 S
C376 O377 1.249 1_556 S
C376 O378 1.270 . S
O377 Zn369 1.943 . S
O377 C376 1.249 1_554 S
O378 Zn368 2.067 . S
O378 C376 1.270 . S
C379 O372 1.262 . S
C379 O380 1.232 . S
O380 C379 1.232 . S
C381 O373 1.312 . S
C381 O374 1.257 . S
Zn382 O385 2.031 . S
Zn382 O387 2.049 . S
Zn382 O392 2.067 . S
Zn383 O384 1.962 . S
Zn383 O386 1.986 . S
Zn383 O388 1.996 . S
Zn383 O391 1.943 . S
O384 Zn383 1.962 . S
O384 C389 1.254 . S
O385 Zn382 2.031 . S
O385 C389 1.269 . S
O386 Zn383 1.986 . S
O386 C393 1.262 . S
O387 Zn382 2.049 . S
O387 C395 1.260 . S
O388 Zn383 1.996 . S
O388 C395 1.257 . S
C389 O384 1.254 . S
C389 O385 1.269 . S
C390 O391 1.249 . S
C390 O392 1.270 . S
O391 Zn383 1.943 . S
O391 C390 1.249 . S
O392 Zn382 2.067 . S
O392 C390 1.270 . S
C393 O386 1.262 . S
C393 O394 1.232 . S
O394 C393 1.232 . S
C395 O387 1.260 . S
C395 O388 1.257 . S
Zn396 O399 2.031 . S
Zn396 O401 2.049 . S
Zn396 O406 2.067 . S
Zn397 O398 1.962 . S
Zn397 O400 1.986 . S
Zn397 O402 1.996 . S
Zn397 O405 1.943 . S
O398 Zn397 1.962 . S
O398 C403 1.254 . S
O399 Zn396 2.031 . S
O399 C403 1.269 . S
O400 Zn397 1.986 . S
O400 C407 1.262 . S
O401 Zn396 2.049 . S
O401 C409 1.260 . S
O402 Zn397 1.996 . S
O402 C409 1.257 . S
C403 O398 1.254 . S
C403 O399 1.269 . S
C404 O405 1.249 . S
C404 O406 1.270 . S
O405 Zn397 1.943 . S
O405 C404 1.249 . S
O406 Zn396 2.067 . S
O406 C404 1.270 . S
C407 O400 1.262 . S
C407 O408 1.232 . S
O408 C407 1.232 . S
C409 O401 1.260 . S
C409 O402 1.257 . S
Zn410 O413 2.031 . S
Zn410 O415 2.049 . S
Zn410 O420 2.067 . S
Zn411 O412 1.962 . S
Zn411 O414 1.986 . S
Zn411 O416 1.996 . S
Zn411 O419 1.943 . S
O412 Zn411 1.962 . S
O412 C417 1.254 . S
O413 Zn410 2.031 . S
O413 C417 1.269 . S
O414 Zn411 1.986 . S
O414 C421 1.262 . S
O415 Zn410 2.049 . S
O415 C423 1.260 . S
O416 Zn411 1.996 . S
O416 C423 1.257 . S
C417 O412 1.254 . S
C417 O413 1.269 . S
C418 O419 1.249 . S
C418 O420 1.270 . S
O419 Zn411 1.943 . S
O419 C418 1.249 . S
O420 Zn410 2.067 . S
O420 C418 1.270 . S
C421 O414 1.262 . S
C421 O422 1.232 . S
O422 C421 1.232 . S
C423 O415 1.260 . S
C423 O416 1.257 . S
Zn424 O427 2.031 . S
Zn424 O429 2.049 . S
Zn424 O434 2.067 . S
Zn425 O426 1.962 . S
Zn425 O428 1.986 . S
Zn425 O430 1.996 . S
Zn425 O433 1.943 . S
O426 Zn425 1.962 . S
O426 C431 1.254 . S
O427 Zn424 2.031 . S
O427 C431 1.269 . S
O428 Zn425 1.986 . S
O428 C435 1.262 . S
O429 Zn424 2.049 . S
O429 C437 1.260 . S
O430 Zn425 1.996 . S
O430 C437 1.257 . S
C431 O426 1.254 . S
C431 O427 1.269 . S
C432 O433 1.249 . S
C432 O434 1.270 . S
O433 Zn425 1.943 . S
O433 C432 1.249 . S
O434 Zn424 2.067 . S
O434 C432 1.270 . S
C435 O428 1.262 . S
C435 O436 1.232 . S
O436 C435 1.232 . S
C437 O429 1.260 . S
C437 O430 1.257 . S
Zn438 O441 2.031 . S
Zn438 O443 2.049 . S
Zn438 O448 2.067 . S
Zn439 O440 1.962 . S
Zn439 O442 1.986 . S
Zn439 O444 1.996 . S
Zn439 O447 1.943 . S
O440 Zn439 1.962 . S
O440 C445 1.254 . S
O441 Zn438 2.031 . S
O441 C445 1.269 . S
O442 Zn439 1.986 . S
O442 C449 1.262 . S
O443 Zn438 2.049 . S
O443 C451 1.260 . S
O444 Zn439 1.996 . S
O444 C451 1.257 . S
C445 O440 1.254 . S
C445 O441 1.269 . S
C446 O447 1.249 . S
C446 O448 1.270 . S
O447 Zn439 1.943 . S
O447 C446 1.249 . S
O448 Zn438 2.067 . S
O448 C446 1.270 . S
C449 O442 1.262 . S
C449 O450 1.232 . S
O450 C449 1.232 . S
C451 O443 1.260 . S
C451 O444 1.257 . S
Zn452 O455 2.031 . S
Zn452 O457 2.049 . S
Zn452 O462 2.067 . S
Zn453 O454 1.962 . S
Zn453 O456 1.986 . S
Zn453 O458 1.996 . S
Zn453 O461 1.943 1_556 S
O454 Zn453 1.962 . S
O454 C459 1.254 1_556 S
O455 Zn452 2.031 . S
O455 C459 1.269 . S
O456 Zn453 1.986 . S
O456 C463 1.262 . S
O457 Zn452 2.049 . S
O457 C465 1.299 . S
O458 Zn453 1.996 . S
O458 C465 1.246 1_556 S
C459 O454 1.254 1_554 S
C459 O455 1.269 . S
C460 O461 1.249 . S
C460 O462 1.270 . S
O461 Zn453 1.943 1_554 S
O461 C460 1.249 . S
O462 Zn452 2.067 . S
O462 C460 1.270 . S
C463 O456 1.262 . S
C463 O464 1.232 . S
O464 C463 1.232 . S
C465 O457 1.299 . S
C465 O458 1.246 1_554 S
Zn466 O469 2.031 . S
Zn466 O471 2.049 . S
Zn466 O476 2.067 . S
Zn467 O468 1.962 . S
Zn467 O470 1.986 . S
Zn467 O472 1.996 . S
Zn467 O475 1.943 . S
O468 Zn467 1.962 . S
O468 C473 1.254 . S
O469 Zn466 2.031 . S
O469 C473 1.269 . S
O470 Zn467 1.986 . S
O470 C477 1.262 . S
O471 Zn466 2.049 . S
O471 C479 1.260 . S
O472 Zn467 1.996 . S
O472 C479 1.257 . S
C473 O468 1.254 . S
C473 O469 1.269 . S
C474 O475 1.249 . S
C474 O476 1.270 . S
O475 Zn467 1.943 . S
O475 C474 1.249 . S
O476 Zn466 2.067 . S
O476 C474 1.270 . S
C477 O470 1.262 . S
C477 O478 1.232 . S
O478 C477 1.232 . S
C479 O471 1.260 . S
C479 O472 1.257 . S
H480 C492 0.930 . S
H481 C494 0.930 . S
H482 C495 0.930 . S
H483 C499 0.959 . S
H484 C499 0.959 . S
H485 C499 0.961 . S
H486 C500 0.960 . S
H487 C500 0.961 . S
H488 C500 0.959 . S
H489 C503 0.929 . S
H490 C504 0.931 . S
H491 C506 0.930 . S
C492 H480 0.930 . S
C492 C493 1.399 . S
C492 C497 1.399 . S
C493 C492 1.399 . S
C493 C494 1.376 . S
C494 H481 0.930 . S
C494 C493 1.376 . S
C494 C495 1.388 . S
C495 H482 0.930 . S
C495 C494 1.388 . S
C495 C496 1.390 . S
C496 C495 1.390 . S
C496 C497 1.394 . S
C496 C502 1.465 . S
C497 C492 1.399 . S
C497 C496 1.394 . S
C497 C498 1.516 . S
C498 C497 1.516 . S
C498 C499 1.502 . S
C498 C500 1.561 . S
C498 C501 1.526 . S
C499 H483 0.959 . S
C499 H484 0.959 . S
C499 H485 0.961 . S
C499 C498 1.502 . S
C500 H486 0.960 . S
C500 H487 0.961 . S
C500 H488 0.959 . S
C500 C498 1.561 . S
C501 C498 1.526 . S
C501 C502 1.396 . S
C501 C506 1.390 . S
C502 C496 1.465 . S
C502 C501 1.396 . S
C502 C503 1.399 . S
C503 H489 0.929 . S
C503 C502 1.399 . S
C503 C504 1.385 . S
C504 H490 0.931 . S
C504 C503 1.385 . S
C504 C505 1.389 . S
C505 C504 1.389 . S
C505 C506 1.387 . S
C506 H491 0.930 . S
C506 C501 1.390 . S
C506 C505 1.387 . S
H507 C519 0.930 . S
H508 C521 0.930 . S
H509 C522 0.930 . S
H510 C526 0.959 . S
H511 C526 0.959 . S
H512 C526 0.961 . S
H513 C527 0.960 . S
H514 C527 0.961 . S
H515 C527 0.959 . S
H516 C530 0.929 . S
H517 C531 0.931 . S
H518 C533 0.930 . S
C519 H507 0.930 . S
C519 C520 1.399 . S
C519 C524 1.399 . S
C520 C519 1.399 . S
C520 C521 1.376 . S
C521 H508 0.930 . S
C521 C520 1.376 . S
C521 C522 1.388 . S
C522 H509 0.930 . S
C522 C521 1.388 . S
C522 C523 1.390 . S
C523 C522 1.390 . S
C523 C524 1.394 . S
C523 C529 1.465 . S
C524 C519 1.399 . S
C524 C523 1.394 . S
C524 C525 1.516 . S
C525 C524 1.516 . S
C525 C526 1.502 . S
C525 C527 1.561 . S
C525 C528 1.526 . S
C526 H510 0.959 . S
C526 H511 0.959 . S
C526 H512 0.961 . S
C526 C525 1.502 . S
C527 H513 0.960 . S
C527 H514 0.961 . S
C527 H515 0.959 . S
C527 C525 1.561 . S
C528 C525 1.526 . S
C528 C529 1.396 . S
C528 C533 1.390 . S
C529 C523 1.465 . S
C529 C528 1.396 . S
C529 C530 1.399 . S
C530 H516 0.929 . S
C530 C529 1.399 . S
C530 C531 1.385 . S
C531 H517 0.931 . S
C531 C530 1.385 . S
C531 C532 1.389 . S
C532 C531 1.389 . S
C532 C533 1.387 . S
C533 H518 0.930 . S
C533 C528 1.390 . S
C533 C532 1.387 . S
H534 C546 0.930 . S
H535 C548 0.930 . S
H536 C549 0.930 . S
H537 C553 0.959 . S
H538 C553 0.959 . S
H539 C553 0.961 . S
H540 C554 0.960 . S
H541 C554 0.961 . S
H542 C554 0.959 . S
H543 C557 0.929 . S
H544 C558 0.931 . S
H545 C560 0.930 . S
C546 H534 0.930 . S
C546 C547 1.399 . S
C546 C551 1.399 . S
C547 C546 1.399 . S
C547 C548 1.376 . S
C548 H535 0.930 . S
C548 C547 1.376 . S
C548 C549 1.388 . S
C549 H536 0.930 . S
C549 C548 1.388 . S
C549 C550 1.390 . S
C550 C549 1.390 . S
C550 C551 1.394 . S
C550 C556 1.465 . S
C551 C546 1.399 . S
C551 C550 1.394 . S
C551 C552 1.516 . S
C552 C551 1.516 . S
C552 C553 1.502 . S
C552 C554 1.561 . S
C552 C555 1.526 . S
C553 H537 0.959 . S
C553 H538 0.959 . S
C553 H539 0.961 . S
C553 C552 1.502 . S
C554 H540 0.960 . S
C554 H541 0.961 . S
C554 H542 0.959 . S
C554 C552 1.561 . S
C555 C552 1.526 . S
C555 C556 1.396 . S
C555 C560 1.390 . S
C556 C550 1.465 . S
C556 C555 1.396 . S
C556 C557 1.399 . S
C557 H543 0.929 . S
C557 C556 1.399 . S
C557 C558 1.385 . S
C558 H544 0.931 . S
C558 C557 1.385 . S
C558 C559 1.389 . S
C559 C558 1.389 . S
C559 C560 1.387 . S
C560 H545 0.930 . S
C560 C555 1.390 . S
C560 C559 1.387 . S
H561 C573 0.930 . S
H562 C575 0.930 . S
H563 C576 0.930 . S
H564 C580 0.959 . S
H565 C580 0.959 . S
H566 C580 0.961 . S
H567 C581 0.960 . S
H568 C581 0.961 . S
H569 C581 0.959 . S
H570 C584 0.929 1_556 S
H571 C585 0.931 1_556 S
H572 C587 0.930 . S
C573 H561 0.930 . S
C573 C574 1.399 . S
C573 C578 1.399 . S
C574 C573 1.399 . S
C574 C575 1.376 . S
C575 H562 0.930 . S
C575 C574 1.376 . S
C575 C576 1.388 . S
C576 H563 0.930 . S
C576 C575 1.388 . S
C576 C577 1.390 . S
C577 C576 1.390 . S
C577 C578 1.394 . S
C577 C583 1.465 . S
C578 C573 1.399 . S
C578 C577 1.394 . S
C578 C579 1.516 . S
C579 C578 1.516 . S
C579 C580 1.502 . S
C579 C581 1.561 . S
C579 C582 1.526 . S
C580 H564 0.959 . S
C580 H565 0.959 . S
C580 H566 0.961 . S
C580 C579 1.502 . S
C581 H567 0.960 . S
C581 H568 0.961 . S
C581 H569 0.959 . S
C581 C579 1.561 . S
C582 C579 1.526 . S
C582 C583 1.396 . S
C582 C587 1.390 . S
C583 C577 1.465 . S
C583 C582 1.396 . S
C583 C584 1.399 . S
C584 H570 0.929 1_554 S
C584 C583 1.399 . S
C584 C585 1.385 . S
C585 H571 0.931 1_554 S
C585 C584 1.385 . S
C585 C586 1.389 . S
C586 C585 1.389 . S
C586 C587 1.387 . S
C587 H572 0.930 . S
C587 C582 1.390 . S
C587 C586 1.387 . S
H588 C600 0.930 . S
H589 C602 0.930 . S
H590 C603 0.930 . S
H591 C607 0.959 . S
H592 C607 0.959 . S
H593 C607 0.961 . S
H594 C608 0.960 . S
H595 C608 0.961 . S
H596 C608 0.959 . S
H597 C611 0.929 . S
H598 C612 0.931 . S
H599 C614 0.930 . S
C600 H588 0.930 . S
C600 C601 1.399 . S
C600 C605 1.399 . S
C601 C600 1.399 . S
C601 C602 1.376 1_556 S
C602 H589 0.930 . S
C602 C601 1.376 1_554 S
C602 C603 1.388 . S
C603 H590 0.930 . S
C603 C602 1.388 . S
C603 C604 1.419 . S
C604 C603 1.419 . S
C604 C605 1.349 1_554 S
C604 C610 1.473 . S
C605 C600 1.399 . S
C605 C604 1.349 1_556 S
C605 C606 1.516 . S
C606 C605 1.516 . S
C606 C607 1.502 . S
C606 C608 1.561 . S
C606 C609 1.526 . S
C607 H591 0.959 . S
C607 H592 0.959 . S
C607 H593 0.961 . S
C607 C606 1.502 . S
C608 H594 0.960 . S
C608 H595 0.961 . S
C608 H596 0.959 . S
C608 C606 1.561 . S
C609 C606 1.526 . S
C609 C610 1.396 1_556 S
C609 C614 1.390 . S
C610 C604 1.473 . S
C610 C609 1.396 1_554 S
C610 C611 1.399 . S
C611 H597 0.929 . S
C611 C610 1.399 . S
C611 C612 1.385 . S
C612 H598 0.931 . S
C612 C611 1.385 . S
C612 C613 1.389 . S
C613 C612 1.389 . S
C613 C614 1.387 1_554 S
C614 H599 0.930 . S
C614 C609 1.390 . S
C614 C613 1.387 1_556 S
H615 C627 0.930 . S
H616 C629 0.930 . S
H617 C630 0.930 . S
H618 C634 0.959 . S
H619 C634 0.959 . S
H620 C634 0.961 . S
H621 C635 0.960 . S
H622 C635 0.961 . S
H623 C635 0.959 . S
H624 C638 0.929 . S
H625 C639 0.931 . S
H626 C641 0.930 . S
C627 H615 0.930 . S
C627 C628 1.399 . S
C627 C632 1.399 . S
C628 C627 1.399 . S
C628 C629 1.376 . S
C629 H616 0.930 . S
C629 C628 1.376 . S
C629 C630 1.388 . S
C630 H617 0.930 . S
C630 C629 1.388 . S
C630 C631 1.390 . S
C631 C630 1.390 . S
C631 C632 1.394 . S
C631 C637 1.465 . S
C632 C627 1.399 . S
C632 C631 1.394 . S
C632 C633 1.516 . S
C633 C632 1.516 . S
C633 C634 1.502 . S
C633 C635 1.561 . S
C633 C636 1.526 . S
C634 H618 0.959 . S
C634 H619 0.959 . S
C634 H620 0.961 . S
C634 C633 1.502 . S
C635 H621 0.960 . S
C635 H622 0.961 . S
C635 H623 0.959 . S
C635 C633 1.561 . S
C636 C633 1.526 . S
C636 C637 1.396 . S
C636 C641 1.390 . S
C637 C631 1.465 . S
C637 C636 1.396 . S
C637 C638 1.399 . S
C638 H624 0.929 . S
C638 C637 1.399 . S
C638 C639 1.385 . S
C639 H625 0.931 . S
C639 C638 1.385 . S
C639 C640 1.389 . S
C640 C639 1.389 . S
C640 C641 1.387 . S
C641 H626 0.930 . S
C641 C636 1.390 . S
C641 C640 1.387 . S
H642 C654 0.930 . S
H643 C656 0.930 . S
H644 C657 0.930 . S
H645 C661 0.959 . S
H646 C661 0.959 . S
H647 C661 0.961 . S
H648 C662 0.960 . S
H649 C662 0.961 . S
H650 C662 0.959 . S
H651 C665 0.929 . S
H652 C666 0.931 . S
H653 C668 0.930 . S
C654 H642 0.930 . S
C654 C655 1.399 . S
C654 C659 1.399 . S
C655 C654 1.399 . S
C655 C656 1.376 . S
C656 H643 0.930 . S
C656 C655 1.376 . S
C656 C657 1.388 . S
C657 H644 0.930 . S
C657 C656 1.388 . S
C657 C658 1.390 . S
C658 C657 1.390 . S
C658 C659 1.394 . S
C658 C664 1.465 . S
C659 C654 1.399 . S
C659 C658 1.394 . S
C659 C660 1.516 . S
C660 C659 1.516 . S
C660 C661 1.502 . S
C660 C662 1.561 . S
C660 C663 1.526 . S
C661 H645 0.959 . S
C661 H646 0.959 . S
C661 H647 0.961 . S
C661 C660 1.502 . S
C662 H648 0.960 . S
C662 H649 0.961 . S
C662 H650 0.959 . S
C662 C660 1.561 . S
C663 C660 1.526 . S
C663 C664 1.396 . S
C663 C668 1.390 . S
C664 C658 1.465 . S
C664 C663 1.396 . S
C664 C665 1.399 . S
C665 H651 0.929 . S
C665 C664 1.399 . S
C665 C666 1.385 . S
C666 H652 0.931 . S
C666 C665 1.385 . S
C666 C667 1.389 . S
C667 C666 1.389 . S
C667 C668 1.387 . S
C668 H653 0.930 . S
C668 C663 1.390 . S
C668 C667 1.387 . S
H669 C681 0.930 . S
H670 C683 0.930 . S
H671 C684 0.930 . S
H672 C688 0.959 . S
H673 C688 0.959 . S
H674 C688 0.961 . S
H675 C689 0.960 . S
H676 C689 0.961 . S
H677 C689 0.959 . S
H678 C692 0.929 . S
H679 C693 0.931 . S
H680 C695 0.930 . S
C681 H669 0.930 . S
C681 C682 1.399 . S
C681 C686 1.399 . S
C682 C681 1.399 . S
C682 C683 1.376 . S
C683 H670 0.930 . S
C683 C682 1.376 . S
C683 C684 1.388 . S
C684 H671 0.930 . S
C684 C683 1.388 . S
C684 C685 1.390 . S
C685 C684 1.390 . S
C685 C686 1.394 . S
C685 C691 1.465 . S
C686 C681 1.399 . S
C686 C685 1.394 . S
C686 C687 1.516 . S
C687 C686 1.516 . S
C687 C688 1.502 . S
C687 C689 1.561 . S
C687 C690 1.526 . S
C688 H672 0.959 . S
C688 H673 0.959 . S
C688 H674 0.961 . S
C688 C687 1.502 . S
C689 H675 0.960 . S
C689 H676 0.961 . S
C689 H677 0.959 . S
C689 C687 1.561 . S
C690 C687 1.526 . S
C690 C691 1.396 . S
C690 C695 1.390 . S
C691 C685 1.465 . S
C691 C690 1.396 . S
C691 C692 1.399 . S
C692 H678 0.929 . S
C692 C691 1.399 . S
C692 C693 1.385 . S
C693 H679 0.931 . S
C693 C692 1.385 . S
C693 C694 1.389 . S
C694 C693 1.389 . S
C694 C695 1.387 . S
C695 H680 0.930 . S
C695 C690 1.390 . S
C695 C694 1.387 . S
H696 C708 0.930 . S
H697 C710 0.930 . S
H698 C711 0.930 . S
H699 C715 0.959 . S
H700 C715 0.959 . S
H701 C715 0.961 . S
H702 C716 0.960 . S
H703 C716 0.961 . S
H704 C716 0.959 . S
H705 C719 0.929 . S
H706 C720 0.931 . S
H707 C722 0.930 . S
C708 H696 0.930 . S
C708 C709 1.399 . S
C708 C713 1.399 . S
C709 C708 1.399 . S
C709 C710 1.376 . S
C710 H697 0.930 . S
C710 C709 1.376 . S
C710 C711 1.388 . S
C711 H698 0.930 . S
C711 C710 1.388 . S
C711 C712 1.390 . S
C712 C711 1.390 . S
C712 C713 1.394 . S
C712 C718 1.465 . S
C713 C708 1.399 . S
C713 C712 1.394 . S
C713 C714 1.516 . S
C714 C713 1.516 . S
C714 C715 1.502 . S
C714 C716 1.561 . S
C714 C717 1.526 . S
C715 H699 0.959 . S
C715 H700 0.959 . S
C715 H701 0.961 . S
C715 C714 1.502 . S
C716 H702 0.960 . S
C716 H703 0.961 . S
C716 H704 0.959 . S
C716 C714 1.561 . S
C717 C714 1.526 . S
C717 C718 1.396 . S
C717 C722 1.390 . S
C718 C712 1.465 . S
C718 C717 1.396 . S
C718 C719 1.399 . S
C719 H705 0.929 . S
C719 C718 1.399 . S
C719 C720 1.385 . S
C720 H706 0.931 . S
C720 C719 1.385 . S
C720 C721 1.389 . S
C721 C720 1.389 . S
C721 C722 1.387 . S
C722 H707 0.930 . S
C722 C717 1.390 . S
C722 C721 1.387 . S
H723 C735 0.930 . S
H724 C737 0.930 . S
H725 C738 0.930 1_556 S
H726 C742 0.959 . S
H727 C742 0.959 . S
H728 C742 0.961 . S
H729 C743 0.960 . S
H730 C743 0.961 . S
H731 C743 0.959 . S
H732 C746 0.929 . S
H733 C747 0.931 . S
H734 C749 0.930 . S
C735 H723 0.930 . S
C735 C736 1.399 . S
C735 C740 1.399 . S
C736 C735 1.399 . S
C736 C737 1.376 . S
C737 H724 0.930 . S
C737 C736 1.376 . S
C737 C738 1.388 . S
C738 H725 0.930 1_554 S
C738 C737 1.388 . S
C738 C739 1.390 . S
C739 C738 1.390 . S
C739 C740 1.394 . S
C739 C745 1.465 . S
C740 C735 1.399 . S
C740 C739 1.394 . S
C740 C741 1.516 . S
C741 C740 1.516 . S
C741 C742 1.502 . S
C741 C743 1.561 . S
C741 C744 1.526 . S
C742 H726 0.959 . S
C742 H727 0.959 . S
C742 H728 0.961 . S
C742 C741 1.502 . S
C743 H729 0.960 . S
C743 H730 0.961 . S
C743 H731 0.959 . S
C743 C741 1.561 . S
C744 C741 1.526 . S
C744 C745 1.396 . S
C744 C749 1.390 . S
C745 C739 1.465 . S
C745 C744 1.396 . S
C745 C746 1.399 1_554 S
C746 H732 0.929 . S
C746 C745 1.399 1_556 S
C746 C747 1.385 . S
C747 H733 0.931 . S
C747 C746 1.385 . S
C747 C748 1.389 1_556 S
C748 C747 1.389 1_554 S
C748 C749 1.387 . S
C749 H734 0.930 . S
C749 C744 1.390 . S
C749 C748 1.387 . S
H750 C762 0.930 . S
H751 C764 0.930 . S
H752 C765 0.930 . S
H753 C769 0.959 . S
H754 C769 0.959 . S
H755 C769 0.961 . S
H756 C770 0.960 . S
H757 C770 0.961 . S
H758 C770 0.959 . S
H759 C773 0.929 . S
H760 C774 0.931 . S
H761 C776 0.930 . S
C762 H750 0.930 . S
C762 C763 1.399 . S
C762 C767 1.399 . S
C763 C762 1.399 . S
C763 C764 1.376 . S
C764 H751 0.930 . S
C764 C763 1.376 . S
C764 C765 1.388 . S
C765 H752 0.930 . S
C765 C764 1.388 . S
C765 C766 1.390 . S
C766 C765 1.390 . S
C766 C767 1.394 . S
C766 C772 1.465 . S
C767 C762 1.399 . S
C767 C766 1.394 . S
C767 C768 1.516 . S
C768 C767 1.516 . S
C768 C769 1.502 . S
C768 C770 1.561 . S
C768 C771 1.526 . S
C769 H753 0.959 . S
C769 H754 0.959 . S
C769 H755 0.961 . S
C769 C768 1.502 . S
C770 H756 0.960 . S
C770 H757 0.961 . S
C770 H758 0.959 . S
C770 C768 1.561 . S
C771 C768 1.526 . S
C771 C772 1.396 . S
C771 C776 1.390 . S
C772 C766 1.465 . S
C772 C771 1.396 . S
C772 C773 1.399 . S
C773 H759 0.929 . S
C773 C772 1.399 . S
C773 C774 1.385 . S
C774 H760 0.931 . S
C774 C773 1.385 . S
C774 C775 1.389 . S
C775 C774 1.389 . S
C775 C776 1.387 . S
C776 H761 0.930 . S
C776 C771 1.390 . S
C776 C775 1.387 . S
H777 C789 0.930 . S
H778 C791 0.930 . S
H779 C792 0.930 . S
H780 C796 0.959 . S
H781 C796 0.959 . S
H782 C796 0.961 . S
H783 C797 0.960 . S
H784 C797 0.961 . S
H785 C797 0.959 . S
H786 C800 0.929 . S
H787 C801 0.931 . S
H788 C803 0.930 . S
C789 H777 0.930 . S
C789 C790 1.399 . S
C789 C794 1.399 . S
C790 C789 1.399 . S
C790 C791 1.376 . S
C791 H778 0.930 . S
C791 C790 1.376 . S
C791 C792 1.388 . S
C792 H779 0.930 . S
C792 C791 1.388 . S
C792 C793 1.390 . S
C793 C792 1.390 . S
C793 C794 1.394 . S
C793 C799 1.465 . S
C794 C789 1.399 . S
C794 C793 1.394 . S
C794 C795 1.516 . S
C795 C794 1.516 . S
C795 C796 1.502 . S
C795 C797 1.561 . S
C795 C798 1.526 . S
C796 H780 0.959 . S
C796 H781 0.959 . S
C796 H782 0.961 . S
C796 C795 1.502 . S
C797 H783 0.960 . S
C797 H784 0.961 . S
C797 H785 0.959 . S
C797 C795 1.561 . S
C798 C795 1.526 . S
C798 C799 1.396 . S
C798 C803 1.390 . S
C799 C793 1.465 . S
C799 C798 1.396 . S
C799 C800 1.399 . S
C800 H786 0.929 . S
C800 C799 1.399 . S
C800 C801 1.385 . S
C801 H787 0.931 . S
C801 C800 1.385 . S
C801 C802 1.389 . S
C802 C801 1.389 . S
C802 C803 1.387 . S
C803 H788 0.930 . S
C803 C798 1.390 . S
C803 C802 1.387 . S
H804 C816 0.930 . S
H805 C818 0.930 . S
H806 C819 0.930 . S
H807 C823 0.959 . S
H808 C823 0.959 . S
H809 C823 0.961 . S
H810 C824 0.960 . S
H811 C824 0.961 . S
H812 C824 0.959 . S
H813 C827 0.929 . S
H814 C828 0.931 . S
H815 C830 0.930 . S
C816 H804 0.930 . S
C816 C817 1.399 . S
C816 C821 1.399 . S
C817 C816 1.399 . S
C817 C818 1.376 . S
C818 H805 0.930 . S
C818 C817 1.376 . S
C818 C819 1.388 . S
C819 H806 0.930 . S
C819 C818 1.388 . S
C819 C820 1.390 . S
C820 C819 1.390 . S
C820 C821 1.394 . S
C820 C826 1.465 . S
C821 C816 1.399 . S
C821 C820 1.394 . S
C821 C822 1.516 . S
C822 C821 1.516 . S
C822 C823 1.502 . S
C822 C824 1.561 . S
C822 C825 1.526 . S
C823 H807 0.959 . S
C823 H808 0.959 . S
C823 H809 0.961 . S
C823 C822 1.502 . S
C824 H810 0.960 . S
C824 H811 0.961 . S
C824 H812 0.959 . S
C824 C822 1.561 . S
C825 C822 1.526 . S
C825 C826 1.396 . S
C825 C830 1.390 . S
C826 C820 1.465 . S
C826 C825 1.396 . S
C826 C827 1.399 . S
C827 H813 0.929 . S
C827 C826 1.399 . S
C827 C828 1.385 . S
C828 H814 0.931 . S
C828 C827 1.385 . S
C828 C829 1.389 . S
C829 C828 1.389 . S
C829 C830 1.387 . S
C830 H815 0.930 . S
C830 C825 1.390 . S
C830 C829 1.387 . S
H831 C843 0.930 . S
H832 C845 0.930 . S
H833 C846 0.930 . S
H834 C850 0.959 . S
H835 C850 0.959 . S
H836 C850 0.961 . S
H837 C851 0.960 . S
H838 C851 0.961 . S
H839 C851 0.959 . S
H840 C854 0.929 . S
H841 C855 0.931 . S
H842 C857 0.930 . S
C843 H831 0.930 . S
C843 C844 1.399 . S
C843 C848 1.399 . S
C844 C843 1.399 . S
C844 C845 1.376 . S
C845 H832 0.930 . S
C845 C844 1.376 . S
C845 C846 1.388 . S
C846 H833 0.930 . S
C846 C845 1.388 . S
C846 C847 1.390 . S
C847 C846 1.390 . S
C847 C848 1.394 . S
C847 C853 1.465 . S
C848 C843 1.399 . S
C848 C847 1.394 . S
C848 C849 1.516 . S
C849 C848 1.516 . S
C849 C850 1.502 . S
C849 C851 1.561 . S
C849 C852 1.526 . S
C850 H834 0.959 . S
C850 H835 0.959 . S
C850 H836 0.961 . S
C850 C849 1.502 . S
C851 H837 0.960 . S
C851 H838 0.961 . S
C851 H839 0.959 . S
C851 C849 1.561 . S
C852 C849 1.526 . S
C852 C853 1.396 . S
C852 C857 1.390 . S
C853 C847 1.465 . S
C853 C852 1.396 . S
C853 C854 1.399 . S
C854 H840 0.929 . S
C854 C853 1.399 . S
C854 C855 1.385 . S
C855 H841 0.931 . S
C855 C854 1.385 . S
C855 C856 1.389 . S
C856 C855 1.389 . S
C856 C857 1.387 . S
C857 H842 0.930 . S
C857 C852 1.390 . S
C857 C856 1.387 . S
H858 C870 0.930 . S
H859 C872 0.930 . S
H860 C873 0.930 . S
H861 C877 0.959 . S
H862 C877 0.959 . S
H863 C877 0.961 . S
H864 C878 0.960 . S
H865 C878 0.961 1_554 S
H866 C878 0.959 . S
H867 C881 0.929 . S
H868 C882 0.931 . S
H869 C884 0.891 1_554 S
C870 H858 0.930 . S
C870 C871 1.399 . S
C870 C875 1.399 . S
C871 C870 1.399 . S
C871 C872 1.376 . S
C872 H859 0.930 . S
C872 C871 1.376 . S
C872 C873 1.388 . S
C873 H860 0.930 . S
C873 C872 1.388 . S
C873 C874 1.390 . S
C874 C873 1.390 . S
C874 C875 1.394 . S
C874 C880 1.465 . S
C875 C870 1.399 . S
C875 C874 1.394 . S
C875 C876 1.556 . S
C876 C875 1.556 . S
C876 C877 1.439 1_556 S
C876 C878 1.578 . S
C876 C879 1.544 . S
C877 H861 0.959 . S
C877 H862 0.959 . S
C877 H863 0.961 . S
C877 C876 1.439 1_554 S
C878 H864 0.960 . S
C878 H865 0.961 1_556 S
C878 H866 0.959 . S
C878 C876 1.578 . S
C879 C876 1.544 . S
C879 C880 1.396 . S
C879 C884 1.410 . S
C880 C874 1.465 . S
C880 C879 1.396 . S
C880 C881 1.399 . S
C881 H867 0.929 . S
C881 C880 1.399 . S
C881 C882 1.385 . S
C882 H868 0.931 . S
C882 C881 1.385 . S
C882 C883 1.389 . S
C883 C882 1.389 . S
C883 C884 1.408 . S
C884 H869 0.891 1_556 S
C884 C879 1.410 . S
C884 C883 1.408 . S
H885 C897 0.930 . S
H886 C899 0.930 . S
H887 C900 0.930 . S
H888 C904 0.959 . S
H889 C904 0.959 . S
H890 C904 0.961 . S
H891 C905 0.960 . S
H892 C905 0.961 . S
H893 C905 0.959 . S
H894 C908 0.929 . S
H895 C909 0.931 . S
H896 C911 0.930 . S
C897 H885 0.930 . S
C897 C898 1.399 . S
C897 C902 1.399 . S
C898 C897 1.399 . S
C898 C899 1.376 . S
C899 H886 0.930 . S
C899 C898 1.376 . S
C899 C900 1.388 . S
C900 H887 0.930 . S
C900 C899 1.388 . S
C900 C901 1.390 . S
C901 C900 1.390 . S
C901 C902 1.394 . S
C901 C907 1.465 . S
C902 C897 1.399 . S
C902 C901 1.394 . S
C902 C903 1.516 . S
C903 C902 1.516 . S
C903 C904 1.502 . S
C903 C905 1.561 . S
C903 C906 1.526 . S
C904 H888 0.959 . S
C904 H889 0.959 . S
C904 H890 0.961 . S
C904 C903 1.502 . S
C905 H891 0.960 . S
C905 H892 0.961 . S
C905 H893 0.959 . S
C905 C903 1.561 . S
C906 C903 1.526 . S
C906 C907 1.396 . S
C906 C911 1.390 . S
C907 C901 1.465 . S
C907 C906 1.396 . S
C907 C908 1.399 . S
C908 H894 0.929 . S
C908 C907 1.399 . S
C908 C909 1.385 . S
C909 H895 0.931 . S
C909 C908 1.385 . S
C909 C910 1.389 . S
C910 C909 1.389 . S
C910 C911 1.387 . S
C911 H896 0.930 . S
C911 C906 1.390 . S
C911 C910 1.387 . S
H912 C924 0.930 . S
H913 C926 0.930 . S
H914 C927 0.930 . S
H915 C931 0.959 . S
H916 C931 0.959 . S
H917 C931 0.961 . S
H918 C932 0.960 . S
H919 C932 0.961 . S
H920 C932 0.959 . S
H921 C935 0.929 . S
H922 C936 0.931 . S
H923 C938 0.930 . S
C924 H912 0.930 . S
C924 C925 1.399 . S
C924 C929 1.399 . S
C925 C924 1.399 . S
C925 C926 1.376 . S
C926 H913 0.930 . S
C926 C925 1.376 . S
C926 C927 1.388 . S
C927 H914 0.930 . S
C927 C926 1.388 . S
C927 C928 1.390 . S
C928 C927 1.390 . S
C928 C929 1.394 . S
C928 C934 1.465 . S
C929 C924 1.399 . S
C929 C928 1.394 . S
C929 C930 1.516 . S
C930 C929 1.516 . S
C930 C931 1.502 . S
C930 C932 1.561 . S
C930 C933 1.526 . S
C931 H915 0.959 . S
C931 H916 0.959 . S
C931 H917 0.961 . S
C931 C930 1.502 . S
C932 H918 0.960 . S
C932 H919 0.961 . S
C932 H920 0.959 . S
C932 C930 1.561 . S
C933 C930 1.526 . S
C933 C934 1.396 . S
C933 C938 1.390 . S
C934 C928 1.465 . S
C934 C933 1.396 . S
C934 C935 1.399 . S
C935 H921 0.929 . S
C935 C934 1.399 . S
C935 C936 1.385 . S
C936 H922 0.931 . S
C936 C935 1.385 . S
C936 C937 1.389 . S
C937 C936 1.389 . S
C937 C938 1.387 . S
C938 H923 0.930 . S
C938 C933 1.390 . S
C938 C937 1.387 . S
H939 C951 0.930 . S
H940 C953 0.930 . S
H941 C954 0.930 . S
H942 C958 0.959 . S
H943 C958 0.959 . S
H944 C958 0.961 . S
H945 C959 0.960 . S
H946 C959 0.961 . S
H947 C959 0.959 . S
H948 C962 0.929 . S
H949 C963 0.931 . S
H950 C965 0.930 . S
C951 H939 0.930 . S
C951 C952 1.399 . S
C951 C956 1.399 . S
C952 C951 1.399 . S
C952 C953 1.376 . S
C953 H940 0.930 . S
C953 C952 1.376 . S
C953 C954 1.388 . S
C954 H941 0.930 . S
C954 C953 1.388 . S
C954 C955 1.390 . S
C955 C954 1.390 . S
C955 C956 1.394 . S
C955 C961 1.465 . S
C956 C951 1.399 . S
C956 C955 1.394 . S
C956 C957 1.516 . S
C957 C956 1.516 . S
C957 C958 1.502 . S
C957 C959 1.561 . S
C957 C960 1.526 . S
C958 H942 0.959 . S
C958 H943 0.959 . S
C958 H944 0.961 . S
C958 C957 1.502 . S
C959 H945 0.960 . S
C959 H946 0.961 . S
C959 H947 0.959 . S
C959 C957 1.561 . S
C960 C957 1.526 . S
C960 C961 1.396 . S
C960 C965 1.390 . S
C961 C955 1.465 . S
C961 C960 1.396 . S
C961 C962 1.399 . S
C962 H948 0.929 . S
C962 C961 1.399 . S
C962 C963 1.385 . S
C963 H949 0.931 . S
C963 C962 1.385 . S
C963 C964 1.389 . S
C964 C963 1.389 . S
C964 C965 1.387 . S
C965 H950 0.930 . S
C965 C960 1.390 . S
C965 C964 1.387 . S
H966 C978 0.930 . S
H967 C980 0.930 . S
H968 C981 0.930 . S
H969 C985 0.959 . S
H970 C985 0.959 . S
H971 C985 0.961 . S
H972 C986 0.960 . S
H973 C986 0.961 . S
H974 C986 0.959 . S
H975 C989 0.929 . S
H976 C990 0.931 . S
H977 C992 0.930 . S
C978 H966 0.930 . S
C978 C979 1.399 . S
C978 C983 1.399 . S
C979 C978 1.399 . S
C979 C980 1.376 . S
C980 H967 0.930 . S
C980 C979 1.376 . S
C980 C981 1.388 . S
C981 H968 0.930 . S
C981 C980 1.388 . S
C981 C982 1.390 . S
C982 C981 1.390 . S
C982 C983 1.394 . S
C982 C988 1.465 . S
C983 C978 1.399 . S
C983 C982 1.394 . S
C983 C984 1.516 . S
C984 C983 1.516 . S
C984 C985 1.502 . S
C984 C986 1.561 . S
C984 C987 1.526 . S
C985 H969 0.959 . S
C985 H970 0.959 . S
C985 H971 0.961 . S
C985 C984 1.502 . S
C986 H972 0.960 . S
C986 H973 0.961 . S
C986 H974 0.959 . S
C986 C984 1.561 . S
C987 C984 1.526 . S
C987 C988 1.396 . S
C987 C992 1.390 . S
C988 C982 1.465 . S
C988 C987 1.396 . S
C988 C989 1.399 . S
C989 H975 0.929 . S
C989 C988 1.399 . S
C989 C990 1.385 . S
C990 H976 0.931 . S
C990 C989 1.385 . S
C990 C991 1.389 . S
C991 C990 1.389 . S
C991 C992 1.387 . S
C992 H977 0.930 . S
C992 C987 1.390 . S
C992 C991 1.387 . S
H993 C1005 0.930 . S
H994 C1007 0.930 . S
H995 C1008 0.930 . S
H996 C1012 0.959 . S
H997 C1012 0.959 . S
H998 C1012 0.961 . S
H999 C1013 0.960 . S
H1000 C1013 0.961 . S
H1001 C1013 0.959 . S
H1002 C1016 0.929 . S
H1003 C1017 0.931 . S
H1004 C1019 0.930 . S
C1005 H993 0.930 . S
C1005 C1006 1.399 . S
C1005 C1010 1.399 . S
C1006 C1005 1.399 . S
C1006 C1007 1.376 . S
C1007 H994 0.930 . S
C1007 C1006 1.376 . S
C1007 C1008 1.388 . S
C1008 H995 0.930 . S
C1008 C1007 1.388 . S
C1008 C1009 1.390 . S
C1009 C1008 1.390 . S
C1009 C1010 1.394 . S
C1009 C1015 1.465 . S
C1010 C1005 1.399 . S
C1010 C1009 1.394 . S
C1010 C1011 1.516 . S
C1011 C1010 1.516 . S
C1011 C1012 1.502 . S
C1011 C1013 1.561 . S
C1011 C1014 1.526 . S
C1012 H996 0.959 . S
C1012 H997 0.959 . S
C1012 H998 0.961 . S
C1012 C1011 1.502 . S
C1013 H999 0.960 . S
C1013 H1000 0.961 . S
C1013 H1001 0.959 . S
C1013 C1011 1.561 . S
C1014 C1011 1.526 . S
C1014 C1015 1.396 . S
C1014 C1019 1.390 . S
C1015 C1009 1.465 . S
C1015 C1014 1.396 . S
C1015 C1016 1.399 . S
C1016 H1002 0.929 . S
C1016 C1015 1.399 . S
C1016 C1017 1.385 . S
C1017 H1003 0.931 . S
C1017 C1016 1.385 . S
C1017 C1018 1.389 . S
C1018 C1017 1.389 . S
C1018 C1019 1.387 . S
C1019 H1004 0.930 . S
C1019 C1014 1.390 . S
C1019 C1018 1.387 . S
H1020 C1032 0.930 . S
H1021 C1034 0.930 . S
H1022 C1035 0.930 . S
H1023 C1039 0.959 . S
H1024 C1039 0.959 . S
H1025 C1039 0.961 . S
H1026 C1040 0.960 . S
H1027 C1040 0.961 . S
H1028 C1040 0.959 . S
H1029 C1043 0.929 . S
H1030 C1044 0.931 . S
H1031 C1046 0.930 . S
C1032 H1020 0.930 . S
C1032 C1033 1.399 . S
C1032 C1037 1.399 . S
C1033 C1032 1.399 . S
C1033 C1034 1.376 . S
C1034 H1021 0.930 . S
C1034 C1033 1.376 . S
C1034 C1035 1.388 . S
C1035 H1022 0.930 . S
C1035 C1034 1.388 . S
C1035 C1036 1.390 . S
C1036 C1035 1.390 . S
C1036 C1037 1.394 . S
C1036 C1042 1.465 . S
C1037 C1032 1.399 . S
C1037 C1036 1.394 . S
C1037 C1038 1.516 . S
C1038 C1037 1.516 . S
C1038 C1039 1.502 . S
C1038 C1040 1.561 . S
C1038 C1041 1.526 . S
C1039 H1023 0.959 . S
C1039 H1024 0.959 . S
C1039 H1025 0.961 . S
C1039 C1038 1.502 . S
C1040 H1026 0.960 . S
C1040 H1027 0.961 . S
C1040 H1028 0.959 . S
C1040 C1038 1.561 . S
C1041 C1038 1.526 . S
C1041 C1042 1.396 . S
C1041 C1046 1.390 . S
C1042 C1036 1.465 . S
C1042 C1041 1.396 . S
C1042 C1043 1.399 . S
C1043 H1029 0.929 . S
C1043 C1042 1.399 . S
C1043 C1044 1.385 . S
C1044 H1030 0.931 . S
C1044 C1043 1.385 . S
C1044 C1045 1.389 . S
C1045 C1044 1.389 . S
C1045 C1046 1.387 . S
C1046 H1031 0.930 . S
C1046 C1041 1.390 . S
C1046 C1045 1.387 . S
H1047 C1059 0.930 . S
H1048 C1061 0.930 . S
H1049 C1062 0.930 . S
H1050 C1066 0.959 . S
H1051 C1066 0.959 . S
H1052 C1066 0.961 . S
H1053 C1067 0.960 . S
H1054 C1067 0.961 . S
H1055 C1067 0.959 . S
H1056 C1070 0.929 . S
H1057 C1071 0.931 . S
H1058 C1073 0.930 . S
C1059 H1047 0.930 . S
C1059 C1060 1.399 . S
C1059 C1064 1.399 . S
C1060 C1059 1.399 . S
C1060 C1061 1.376 . S
C1061 H1048 0.930 . S
C1061 C1060 1.376 . S
C1061 C1062 1.388 . S
C1062 H1049 0.930 . S
C1062 C1061 1.388 . S
C1062 C1063 1.390 . S
C1063 C1062 1.390 . S
C1063 C1064 1.394 . S
C1063 C1069 1.465 . S
C1064 C1059 1.399 . S
C1064 C1063 1.394 . S
C1064 C1065 1.516 . S
C1065 C1064 1.516 . S
C1065 C1066 1.502 . S
C1065 C1067 1.561 . S
C1065 C1068 1.526 . S
C1066 H1050 0.959 . S
C1066 H1051 0.959 . S
C1066 H1052 0.961 . S
C1066 C1065 1.502 . S
C1067 H1053 0.960 . S
C1067 H1054 0.961 . S
C1067 H1055 0.959 . S
C1067 C1065 1.561 . S
C1068 C1065 1.526 . S
C1068 C1069 1.396 . S
C1068 C1073 1.390 . S
C1069 C1063 1.465 . S
C1069 C1068 1.396 . S
C1069 C1070 1.399 . S
C1070 H1056 0.929 . S
C1070 C1069 1.399 . S
C1070 C1071 1.385 . S
C1071 H1057 0.931 . S
C1071 C1070 1.385 . S
C1071 C1072 1.389 . S
C1072 C1071 1.389 . S
C1072 C1073 1.387 . S
C1073 H1058 0.930 . S
C1073 C1068 1.390 . S
C1073 C1072 1.387 . S
H1074 C1086 0.930 . S
H1075 C1088 0.930 . S
H1076 C1089 0.930 . S
H1077 C1093 0.959 . S
H1078 C1093 0.959 . S
H1079 C1093 0.961 . S
H1080 C1094 0.960 . S
H1081 C1094 0.961 . S
H1082 C1094 0.959 . S
H1083 C1097 0.929 . S
H1084 C1098 0.931 . S
H1085 C1100 0.930 . S
C1086 H1074 0.930 . S
C1086 C1087 1.399 . S
C1086 C1091 1.399 . S
C1087 C1086 1.399 . S
C1087 C1088 1.376 . S
C1088 H1075 0.930 . S
C1088 C1087 1.376 . S
C1088 C1089 1.388 . S
C1089 H1076 0.930 . S
C1089 C1088 1.388 . S
C1089 C1090 1.390 . S
C1090 C1089 1.390 . S
C1090 C1091 1.394 . S
C1090 C1096 1.465 . S
C1091 C1086 1.399 . S
C1091 C1090 1.394 . S
C1091 C1092 1.516 . S
C1092 C1091 1.516 . S
C1092 C1093 1.502 . S
C1092 C1094 1.561 . S
C1092 C1095 1.526 . S
C1093 H1077 0.959 . S
C1093 H1078 0.959 . S
C1093 H1079 0.961 . S
C1093 C1092 1.502 . S
C1094 H1080 0.960 . S
C1094 H1081 0.961 . S
C1094 H1082 0.959 . S
C1094 C1092 1.561 . S
C1095 C1092 1.526 . S
C1095 C1096 1.396 . S
C1095 C1100 1.390 . S
C1096 C1090 1.465 . S
C1096 C1095 1.396 . S
C1096 C1097 1.399 . S
C1097 H1083 0.929 . S
C1097 C1096 1.399 . S
C1097 C1098 1.385 . S
C1098 H1084 0.931 . S
C1098 C1097 1.385 . S
C1098 C1099 1.389 . S
C1099 C1098 1.389 . S
C1099 C1100 1.387 . S
C1100 H1085 0.930 . S
C1100 C1095 1.390 . S
C1100 C1099 1.387 . S
H1101 C1113 0.930 . S
H1102 C1115 0.930 . S
H1103 C1116 0.930 . S
H1104 C1120 0.959 . S
H1105 C1120 0.959 . S
H1106 C1120 0.961 . S
H1107 C1121 0.960 . S
H1108 C1121 0.961 . S
H1109 C1121 0.959 . S
H1110 C1124 0.929 . S
H1111 C1125 0.931 . S
H1112 C1127 0.930 . S
C1113 H1101 0.930 . S
C1113 C1114 1.399 . S
C1113 C1118 1.399 . S
C1114 C1113 1.399 . S
C1114 C1115 1.376 . S
C1115 H1102 0.930 . S
C1115 C1114 1.376 . S
C1115 C1116 1.388 . S
C1116 H1103 0.930 . S
C1116 C1115 1.388 . S
C1116 C1117 1.390 . S
C1117 C1116 1.390 . S
C1117 C1118 1.394 . S
C1117 C1123 1.465 . S
C1118 C1113 1.399 . S
C1118 C1117 1.394 . S
C1118 C1119 1.516 . S
C1119 C1118 1.516 . S
C1119 C1120 1.502 . S
C1119 C1121 1.561 . S
C1119 C1122 1.526 . S
C1120 H1104 0.959 . S
C1120 H1105 0.959 . S
C1120 H1106 0.961 . S
C1120 C1119 1.502 . S
C1121 H1107 0.960 . S
C1121 H1108 0.961 . S
C1121 H1109 0.959 . S
C1121 C1119 1.561 . S
C1122 C1119 1.526 . S
C1122 C1123 1.396 . S
C1122 C1127 1.390 . S
C1123 C1117 1.465 . S
C1123 C1122 1.396 . S
C1123 C1124 1.399 . S
C1124 H1110 0.929 . S
C1124 C1123 1.399 . S
C1124 C1125 1.385 . S
C1125 H1111 0.931 . S
C1125 C1124 1.385 . S
C1125 C1126 1.389 . S
C1126 C1125 1.389 . S
C1126 C1127 1.387 . S
C1127 H1112 0.930 . S
C1127 C1122 1.390 . S
C1127 C1126 1.387 . S
H1128 C1140 0.930 . S
H1129 C1142 0.930 . S
H1130 C1143 0.930 . S
H1131 C1147 0.959 . S
H1132 C1147 0.959 . S
H1133 C1147 0.961 . S
H1134 C1148 0.960 . S
H1135 C1148 0.961 . S
H1136 C1148 0.959 . S
H1137 C1151 0.929 . S
H1138 C1152 0.931 . S
H1139 C1154 0.930 . S
C1140 H1128 0.930 . S
C1140 C1141 1.399 . S
C1140 C1145 1.399 . S
C1141 C1140 1.399 . S
C1141 C1142 1.376 . S
C1142 H1129 0.930 . S
C1142 C1141 1.376 . S
C1142 C1143 1.388 . S
C1143 H1130 0.930 . S
C1143 C1142 1.388 . S
C1143 C1144 1.390 . S
C1144 C1143 1.390 . S
C1144 C1145 1.394 . S
C1144 C1150 1.465 . S
C1145 C1140 1.399 . S
C1145 C1144 1.394 . S
C1145 C1146 1.516 . S
C1146 C1145 1.516 . S
C1146 C1147 1.502 . S
C1146 C1148 1.561 . S
C1146 C1149 1.526 . S
C1147 H1131 0.959 . S
C1147 H1132 0.959 . S
C1147 H1133 0.961 . S
C1147 C1146 1.502 . S
C1148 H1134 0.960 . S
C1148 H1135 0.961 . S
C1148 H1136 0.959 . S
C1148 C1146 1.561 . S
C1149 C1146 1.526 . S
C1149 C1150 1.396 . S
C1149 C1154 1.390 . S
C1150 C1144 1.465 . S
C1150 C1149 1.396 . S
C1150 C1151 1.399 . S
C1151 H1137 0.929 . S
C1151 C1150 1.399 . S
C1151 C1152 1.385 . S
C1152 H1138 0.931 . S
C1152 C1151 1.385 . S
C1152 C1153 1.389 . S
C1153 C1152 1.389 . S
C1153 C1154 1.387 . S
C1154 H1139 0.930 . S
C1154 C1149 1.390 . S
C1154 C1153 1.387 . S
H1155 C1167 0.930 . S
H1156 C1169 0.930 . S
H1157 C1170 0.930 . S
H1158 C1174 0.959 . S
H1159 C1174 0.959 . S
H1160 C1174 0.961 . S
H1161 C1175 0.960 . S
H1162 C1175 0.961 . S
H1163 C1175 0.959 . S
H1164 C1178 0.929 . S
H1165 C1179 0.931 . S
H1166 C1181 0.930 . S
C1167 H1155 0.930 . S
C1167 C1168 1.399 . S
C1167 C1172 1.399 . S
C1168 C1167 1.399 . S
C1168 C1169 1.376 . S
C1169 H1156 0.930 . S
C1169 C1168 1.376 . S
C1169 C1170 1.388 . S
C1170 H1157 0.930 . S
C1170 C1169 1.388 . S
C1170 C1171 1.390 . S
C1171 C1170 1.390 . S
C1171 C1172 1.394 . S
C1171 C1177 1.465 . S
C1172 C1167 1.399 . S
C1172 C1171 1.394 . S
C1172 C1173 1.516 . S
C1173 C1172 1.516 . S
C1173 C1174 1.502 . S
C1173 C1175 1.561 . S
C1173 C1176 1.526 . S
C1174 H1158 0.959 . S
C1174 H1159 0.959 . S
C1174 H1160 0.961 . S
C1174 C1173 1.502 . S
C1175 H1161 0.960 . S
C1175 H1162 0.961 . S
C1175 H1163 0.959 . S
C1175 C1173 1.561 . S
C1176 C1173 1.526 . S
C1176 C1177 1.396 . S
C1176 C1181 1.390 . S
C1177 C1171 1.465 . S
C1177 C1176 1.396 . S
C1177 C1178 1.399 . S
C1178 H1164 0.929 . S
C1178 C1177 1.399 . S
C1178 C1179 1.385 . S
C1179 H1165 0.931 . S
C1179 C1178 1.385 . S
C1179 C1180 1.389 . S
C1180 C1179 1.389 . S
C1180 C1181 1.387 . S
C1181 H1166 0.930 . S
C1181 C1176 1.390 . S
C1181 C1180 1.387 . S
H1182 C1194 0.930 1_455 S
H1183 C1196 0.930 . S
H1184 C1197 0.930 . S
H1185 C1201 0.955 1_655 S
H1186 C1201 0.964 . S
H1187 C1201 0.984 . S
H1188 C1202 0.960 . S
H1189 C1202 0.961 . S
H1190 C1202 0.959 . S
H1191 C1205 0.929 . S
H1192 C1206 0.931 . S
H1193 C1208 0.930 . S
C1194 H1182 0.930 1_655 S
C1194 C1195 1.399 . S
C1194 C1199 1.399 . S
C1195 C1194 1.399 . S
C1195 C1196 1.376 . S
C1196 H1183 0.930 . S
C1196 C1195 1.376 . S
C1196 C1197 1.388 . S
C1197 H1184 0.930 . S
C1197 C1196 1.388 . S
C1197 C1198 1.390 . S
C1198 C1197 1.390 . S
C1198 C1199 1.394 . S
C1198 C1204 1.465 . S
C1199 C1194 1.399 . S
C1199 C1198 1.394 . S
C1199 C1200 1.516 . S
C1200 C1199 1.516 . S
C1200 C1201 1.479 1_655 S
C1200 C1202 1.561 . S
C1200 C1203 1.526 . S
C1201 H1185 0.955 1_455 S
C1201 H1186 0.964 . S
C1201 H1187 0.984 . S
C1201 C1200 1.479 1_455 S
C1202 H1188 0.960 . S
C1202 H1189 0.961 . S
C1202 H1190 0.959 . S
C1202 C1200 1.561 . S
C1203 C1200 1.526 . S
C1203 C1204 1.396 . S
C1203 C1208 1.390 . S
C1204 C1198 1.465 . S
C1204 C1203 1.396 . S
C1204 C1205 1.399 . S
C1205 H1191 0.929 . S
C1205 C1204 1.399 . S
C1205 C1206 1.385 . S
C1206 H1192 0.931 . S
C1206 C1205 1.385 . S
C1206 C1207 1.389 . S
C1207 C1206 1.389 . S
C1207 C1208 1.387 . S
C1208 H1193 0.930 . S
C1208 C1203 1.390 . S
C1208 C1207 1.387 . S
H1209 C1221 0.930 . S
H1210 C1223 0.930 . S
H1211 C1224 0.930 . S
H1212 C1228 0.959 . S
H1213 C1228 0.959 . S
H1214 C1228 0.961 . S
H1215 C1229 0.960 . S
H1216 C1229 0.961 . S
H1217 C1229 0.959 . S
H1218 C1232 0.929 . S
H1219 C1233 0.931 . S
H1220 C1235 0.930 . S
C1221 H1209 0.930 . S
C1221 C1222 1.399 . S
C1221 C1226 1.399 . S
C1222 C1221 1.399 . S
C1222 C1223 1.376 . S
C1223 H1210 0.930 . S
C1223 C1222 1.376 . S
C1223 C1224 1.388 . S
C1224 H1211 0.930 . S
C1224 C1223 1.388 . S
C1224 C1225 1.390 . S
C1225 C1224 1.390 . S
C1225 C1226 1.394 . S
C1225 C1231 1.465 . S
C1226 C1221 1.399 . S
C1226 C1225 1.394 . S
C1226 C1227 1.516 . S
C1227 C1226 1.516 . S
C1227 C1228 1.502 . S
C1227 C1229 1.561 . S
C1227 C1230 1.526 . S
C1228 H1212 0.959 . S
C1228 H1213 0.959 . S
C1228 H1214 0.961 . S
C1228 C1227 1.502 . S
C1229 H1215 0.960 . S
C1229 H1216 0.961 . S
C1229 H1217 0.959 . S
C1229 C1227 1.561 . S
C1230 C1227 1.526 . S
C1230 C1231 1.396 . S
C1230 C1235 1.390 . S
C1231 C1225 1.465 . S
C1231 C1230 1.396 . S
C1231 C1232 1.399 . S
C1232 H1218 0.929 . S
C1232 C1231 1.399 . S
C1232 C1233 1.385 . S
C1233 H1219 0.931 . S
C1233 C1232 1.385 . S
C1233 C1234 1.389 . S
C1234 C1233 1.389 . S
C1234 C1235 1.387 . S
C1235 H1220 0.930 . S
C1235 C1230 1.390 . S
C1235 C1234 1.387 . S
H1236 C1248 0.930 . S
H1237 C1250 0.930 . S
H1238 C1251 0.930 . S
H1239 C1255 0.959 . S
H1240 C1255 0.959 . S
H1241 C1255 0.961 . S
H1242 C1256 0.960 . S
H1243 C1256 0.961 . S
H1244 C1256 0.959 . S
H1245 C1259 0.929 . S
H1246 C1260 0.931 . S
H1247 C1262 0.930 . S
C1248 H1236 0.930 . S
C1248 C1249 1.399 . S
C1248 C1253 1.399 . S
C1249 C1248 1.399 . S
C1249 C1250 1.376 . S
C1250 H1237 0.930 . S
C1250 C1249 1.376 . S
C1250 C1251 1.388 . S
C1251 H1238 0.930 . S
C1251 C1250 1.388 . S
C1251 C1252 1.390 . S
C1252 C1251 1.390 . S
C1252 C1253 1.394 . S
C1252 C1258 1.465 . S
C1253 C1248 1.399 . S
C1253 C1252 1.394 . S
C1253 C1254 1.516 . S
C1254 C1253 1.516 . S
C1254 C1255 1.502 . S
C1254 C1256 1.561 . S
C1254 C1257 1.526 . S
C1255 H1239 0.959 . S
C1255 H1240 0.959 . S
C1255 H1241 0.961 . S
C1255 C1254 1.502 . S
C1256 H1242 0.960 . S
C1256 H1243 0.961 . S
C1256 H1244 0.959 . S
C1256 C1254 1.561 . S
C1257 C1254 1.526 . S
C1257 C1258 1.396 . S
C1257 C1262 1.390 . S
C1258 C1252 1.465 . S
C1258 C1257 1.396 . S
C1258 C1259 1.399 . S
C1259 H1245 0.929 . S
C1259 C1258 1.399 . S
C1259 C1260 1.385 . S
C1260 H1246 0.931 . S
C1260 C1259 1.385 . S
C1260 C1261 1.389 . S
C1261 C1260 1.389 . S
C1261 C1262 1.387 . S
C1262 H1247 0.930 . S
C1262 C1257 1.390 . S
C1262 C1261 1.387 . S
H1263 C1275 0.930 . S
H1264 C1277 0.930 . S
H1265 C1278 0.930 . S
H1266 C1282 0.959 . S
H1267 C1282 0.959 . S
H1268 C1282 0.961 . S
H1269 C1283 0.960 . S
H1270 C1283 0.961 . S
H1271 C1283 0.959 . S
H1272 C1286 0.929 . S
H1273 C1287 0.931 . S
H1274 C1289 0.930 . S
C1275 H1263 0.930 . S
C1275 C1276 1.399 . S
C1275 C1280 1.399 . S
C1276 C1275 1.399 . S
C1276 C1277 1.376 . S
C1277 H1264 0.930 . S
C1277 C1276 1.376 . S
C1277 C1278 1.388 . S
C1278 H1265 0.930 . S
C1278 C1277 1.388 . S
C1278 C1279 1.390 . S
C1279 C1278 1.390 . S
C1279 C1280 1.394 . S
C1279 C1285 1.465 . S
C1280 C1275 1.399 . S
C1280 C1279 1.394 . S
C1280 C1281 1.516 . S
C1281 C1280 1.516 . S
C1281 C1282 1.502 . S
C1281 C1283 1.561 . S
C1281 C1284 1.526 . S
C1282 H1266 0.959 . S
C1282 H1267 0.959 . S
C1282 H1268 0.961 . S
C1282 C1281 1.502 . S
C1283 H1269 0.960 . S
C1283 H1270 0.961 . S
C1283 H1271 0.959 . S
C1283 C1281 1.561 . S
C1284 C1281 1.526 . S
C1284 C1285 1.396 . S
C1284 C1289 1.390 . S
C1285 C1279 1.465 . S
C1285 C1284 1.396 . S
C1285 C1286 1.399 . S
C1286 H1272 0.929 . S
C1286 C1285 1.399 . S
C1286 C1287 1.385 . S
C1287 H1273 0.931 . S
C1287 C1286 1.385 . S
C1287 C1288 1.389 . S
C1288 C1287 1.389 . S
C1288 C1289 1.387 . S
C1289 H1274 0.930 . S
C1289 C1284 1.390 . S
C1289 C1288 1.387 . S
H1290 C1302 0.930 . S
H1291 C1304 0.930 . S
H1292 C1305 0.930 . S
H1293 C1309 0.959 . S
H1294 C1309 0.959 . S
H1295 C1309 0.961 . S
H1296 C1310 0.960 . S
H1297 C1310 0.961 . S
H1298 C1310 0.959 . S
H1299 C1313 0.929 . S
H1300 C1314 0.931 . S
H1301 C1316 0.930 . S
C1302 H1290 0.930 . S
C1302 C1303 1.399 . S
C1302 C1307 1.399 . S
C1303 C1302 1.399 . S
C1303 C1304 1.376 . S
C1304 H1291 0.930 . S
C1304 C1303 1.376 . S
C1304 C1305 1.388 . S
C1305 H1292 0.930 . S
C1305 C1304 1.388 . S
C1305 C1306 1.390 . S
C1306 C1305 1.390 . S
C1306 C1307 1.394 . S
C1306 C1312 1.465 . S
C1307 C1302 1.399 . S
C1307 C1306 1.394 . S
C1307 C1308 1.516 . S
C1308 C1307 1.516 . S
C1308 C1309 1.502 . S
C1308 C1310 1.561 . S
C1308 C1311 1.526 . S
C1309 H1293 0.959 . S
C1309 H1294 0.959 . S
C1309 H1295 0.961 . S
C1309 C1308 1.502 . S
C1310 H1296 0.960 . S
C1310 H1297 0.961 . S
C1310 H1298 0.959 . S
C1310 C1308 1.561 . S
C1311 C1308 1.526 . S
C1311 C1312 1.396 . S
C1311 C1316 1.390 . S
C1312 C1306 1.465 . S
C1312 C1311 1.396 . S
C1312 C1313 1.399 . S
C1313 H1299 0.929 . S
C1313 C1312 1.399 . S
C1313 C1314 1.385 . S
C1314 H1300 0.931 . S
C1314 C1313 1.385 . S
C1314 C1315 1.389 . S
C1315 C1314 1.389 . S
C1315 C1316 1.387 . S
C1316 H1301 0.930 . S
C1316 C1311 1.390 . S
C1316 C1315 1.387 . S
H1317 C1329 0.930 . S
H1318 C1331 0.930 . S
H1319 C1332 0.930 . S
H1320 C1336 0.959 . S
H1321 C1336 0.959 . S
H1322 C1336 0.961 . S
H1323 C1337 0.960 . S
H1324 C1337 0.961 . S
H1325 C1337 0.959 . S
H1326 C1340 0.929 . S
H1327 C1341 0.931 . S
H1328 C1343 0.930 . S
C1329 H1317 0.930 . S
C1329 C1330 1.399 . S
C1329 C1334 1.399 . S
C1330 C1329 1.399 . S
C1330 C1331 1.376 . S
C1331 H1318 0.930 . S
C1331 C1330 1.376 . S
C1331 C1332 1.388 . S
C1332 H1319 0.930 . S
C1332 C1331 1.388 . S
C1332 C1333 1.390 . S
C1333 C1332 1.390 . S
C1333 C1334 1.394 . S
C1333 C1339 1.465 . S
C1334 C1329 1.399 . S
C1334 C1333 1.394 . S
C1334 C1335 1.516 . S
C1335 C1334 1.516 . S
C1335 C1336 1.502 . S
C1335 C1337 1.561 . S
C1335 C1338 1.526 . S
C1336 H1320 0.959 . S
C1336 H1321 0.959 . S
C1336 H1322 0.961 . S
C1336 C1335 1.502 . S
C1337 H1323 0.960 . S
C1337 H1324 0.961 . S
C1337 H1325 0.959 . S
C1337 C1335 1.561 . S
C1338 C1335 1.526 . S
C1338 C1339 1.396 . S
C1338 C1343 1.390 . S
C1339 C1333 1.465 . S
C1339 C1338 1.396 . S
C1339 C1340 1.399 . S
C1340 H1326 0.929 . S
C1340 C1339 1.399 . S
C1340 C1341 1.385 . S
C1341 H1327 0.931 . S
C1341 C1340 1.385 . S
C1341 C1342 1.389 . S
C1342 C1341 1.389 . S
C1342 C1343 1.387 . S
C1343 H1328 0.930 . S
C1343 C1338 1.390 . S
C1343 C1342 1.387 . S
C505 C389 1.344 . S
C493 C8 1.330 . S
C532 C409 1.413 . S
C520 C61 1.357 . S
C559 C423 1.354 . S
C547 C107 1.432 . S
C574 C139 1.427 . S
C586 C381 1.361 . S
C601 C192 1.437 . S
C613 C375 1.459 . S
C628 C238 1.348 . S
C640 C395 1.419 . S
C667 C403 1.316 . S
C655 C284 1.330 . S
C694 C417 1.407 . S
C682 C330 1.397 . S
C709 C100 1.397 . S
C721 C445 1.407 . S
C748 C459 1.333 . S
C736 C160 1.326 . S
C763 C15 1.402 . S
C775 C479 1.351 . S
C802 C431 1.444 . S
C790 C54 1.381 . S
C817 C291 1.364 . S
C829 C437 1.437 . S
C844 C337 1.431 . S
C856 C451 1.354 . S
C883 C465 1.386 1_556 S
C871 C199 1.349 . S
C898 C245 1.314 . S
C910 C473 1.309 . S
C937 C404 1.724 . S
C925 C1 1.684 . S
C964 C418 1.729 . S
C952 C68 1.722 . S
C979 C114 1.611 . S
C991 C376 1.652 . S
C1006 C146 1.498 . S
C1018 C393 1.497 . S
C1033 C185 1.363 . S
C1045 C421 1.363 . S
C1072 C379 1.352 . S
C1060 C231 1.347 . S
C1099 C390 1.564 . S
C1087 C277 1.559 . S
C1126 C407 1.438 . S
C1114 C323 1.415 . S
C1153 C463 1.440 . S
C1141 C93 1.421 . S
C1180 C474 1.545 . S
C1168 C153 1.560 . S
C1195 C22 1.357 . S
C1207 C435 1.341 . S
C1234 C449 1.365 . S
C1222 C47 1.353 . S
C1261 C477 1.503 . S
C1249 C298 1.461 . S
C1276 C344 1.652 . S
C1288 C432 1.655 . S
C1315 C446 1.728 . S
C1303 C206 1.678 . S
C1342 C460 1.709 . S
C1330 C252 1.701 . S
