# Generated by pormake.
# Topology anh, (6,3)-cn, num edge types: 1
# Building blocks:
#     Node 0, Type 0, BuildingBlock: BETFAJ_clean_sbu_0, # of connection points: 6
#     Node 1, Type 0, BuildingBlock: BETFAJ_clean_sbu_0, # of connection points: 6
#     Node 2, Type 0, BuildingBlock: BETFAJ_clean_sbu_0, # of connection points: 6
#     Node 3, Type 1, BuildingBlock: QEWDON_clean_linker_0, # of connection points: 3
#     Node 4, Type 1, BuildingBlock: QEWDON_clean_linker_0, # of connection points: 3
#     Node 5, Type 1, BuildingBlock: QEWDON_clean_linker_0, # of connection points: 3
#     Node 6, Type 1, BuildingBlock: QEWDON_clean_linker_0, # of connection points: 3
#     Node 7, Type 1, BuildingBlock: QEWDON_clean_linker_0, # of connection points: 3
#     Node 8, Type 1, BuildingBlock: QEWDON_clean_linker_0, # of connection points: 3
#     Edge 9, Type (0, 1), BuildingBlock: AJUNOK_clean_linker_0, # of connection points: 2
#     Edge 10, Type (0, 1), BuildingBlock: AJUNOK_clean_linker_0, # of connection points: 2
#     Edge 11, Type (0, 1), BuildingBlock: AJUNOK_clean_linker_0, # of connection points: 2
#     Edge 12, Type (0, 1), BuildingBlock: AJUNOK_clean_linker_0, # of connection points: 2
#     Edge 13, Type (0, 1), BuildingBlock: AJUNOK_clean_linker_0, # of connection points: 2
#     Edge 14, Type (0, 1), BuildingBlock: AJUNOK_clean_linker_0, # of connection points: 2
#     Edge 15, Type (0, 1), BuildingBlock: AJUNOK_clean_linker_0, # of connection points: 2
#     Edge 16, Type (0, 1), BuildingBlock: AJUNOK_clean_linker_0, # of connection points: 2
#     Edge 17, Type (0, 1), BuildingBlock: AJUNOK_clean_linker_0, # of connection points: 2
#     Edge 18, Type (0, 1), BuildingBlock: AJUNOK_clean_linker_0, # of connection points: 2
#     Edge 19, Type (0, 1), BuildingBlock: AJUNOK_clean_linker_0, # of connection points: 2
#     Edge 20, Type (0, 1), BuildingBlock: AJUNOK_clean_linker_0, # of connection points: 2
#     Edge 21, Type (0, 1), BuildingBlock: AJUNOK_clean_linker_0, # of connection points: 2
#     Edge 22, Type (0, 1), BuildingBlock: AJUNOK_clean_linker_0, # of connection points: 2
#     Edge 23, Type (0, 1), BuildingBlock: AJUNOK_clean_linker_0, # of connection points: 2
#     Edge 24, Type (0, 1), BuildingBlock: AJUNOK_clean_linker_0, # of connection points: 2
#     Edge 25, Type (0, 1), BuildingBlock: AJUNOK_clean_linker_0, # of connection points: 2
#     Edge 26, Type (0, 1), BuildingBlock: AJUNOK_clean_linker_0, # of connection points: 2
# Relax obj value: 0.188
# Max RMSD: 0.201
# Mean RMSD: 0.129
data_MOF--net-anh--node1-BETFAJ_clean_sbu_0--node2-QEWDON_clean_linker_0--edge1-AJUNOK_clean_linker_0
_symmetry_space_group_name_H-M    P1
_symmetry_Int_Tables_number       1
_symmetry_cell_setting            triclinic
loop_
_symmetry_equiv_pos_as_xyz
'x, y, z'
_cell_length_a     24.383973
_cell_length_b     31.177936
_cell_length_c     35.871269
_cell_angle_alpha  95.491049
_cell_angle_beta   91.092754
_cell_angle_gamma 132.28107
loop_
_atom_site_label
_atom_site_type_symbol
_atom_site_fract_x
_atom_site_fract_y
_atom_site_fract_z
_atom_type_partial_charge
Sm0 Sm 0.25851 0.61843 0.14453 0.0
Sm1 Sm 0.16321 0.6375 0.17651 0.0
C2 C 0.31191 0.58235 0.10215 0.0
C3 C 0.29348 0.52677 0.09379 0.0
C4 C 0.33082 0.52129 0.06757 0.0
C5 C 0.31449 0.46876 0.05999 0.0
C6 C 0.26022 0.42083 0.0784 0.0
C7 C 0.22146 0.42609 0.10395 0.0
C8 C 0.23841 0.47889 0.1118 0.0
C9 C 0.26838 0.63077 0.22197 0.0
C10 C 0.33896 0.75299 0.16805 0.0
C11 C 1.08738 0.65701 0.2129 0.0
C12 C 1.00696 0.61377 0.21642 0.0
C13 C 0.97183 0.55585 0.22004 0.0
C14 C 0.8955 0.51002 0.20936 0.0
C15 C 0.85322 0.52148 0.19505 0.0
C16 C 0.88662 0.57994 0.1958 0.0
C17 C 0.96319 0.62586 0.20642 0.0
C18 C 0.14912 0.61792 0.09883 0.0
C19 C 1.08309 0.50214 0.15706 0.0
O20 O 0.34056 0.60944 0.1367 0.0
O21 O 0.26115 0.582 0.08914 0.0
O22 O 0.20927 0.60183 0.19999 0.0
O23 O 0.32526 0.65291 0.20326 0.0
O24 O 0.33898 0.71805 0.14413 0.0
O25 O 0.28188 0.73092 0.18781 0.0
O26 O 0.12808 0.64995 0.23012 0.0
O27 O 1.10319 0.6681 0.17852 0.0
O28 O 0.20969 0.65139 0.12021 0.0
O29 O 1.09289 0.59383 0.11829 0.0
O30 O 1.08074 0.53827 0.17741 0.0
O31 O 0.14192 0.52277 0.13918 0.0
H32 H 0.37334 0.55787 0.0534 0.0
H33 H 0.34587 0.4662 0.04048 0.0
H34 H 0.17868 0.38967 0.11813 0.0
H35 H 0.20911 0.48252 0.13218 0.0
H36 H 1.00416 0.54511 0.22754 0.0
H37 H 0.87093 0.46531 0.20901 0.0
H38 H 0.85543 0.58991 0.18439 0.0
H39 H 0.98921 0.67008 0.2031 0.0
Sm40 Sm 0.80049 0.13243 0.48616 0.0
Sm41 Sm 0.69658 0.14909 0.47006 0.0
C42 C 0.86315 0.09565 0.51219 0.0
C43 C 0.83603 0.0371 0.51332 0.0
C44 C 0.87016 0.0289 0.53983 0.0
C45 C 0.84219 0.97269 0.54196 0.0
C46 C 0.77962 0.92391 0.51755 0.0
C47 C 0.74574 0.9325 0.49102 0.0
C48 C 0.77364 0.98853 0.48893 0.0
C49 C 0.78139 0.13813 0.41149 0.0
C50 C 0.61891 1.01616 0.46619 0.0
C51 C 0.62633 0.18262 0.45054 0.0
C52 C 0.63817 0.23507 0.46212 0.0
C53 C 0.71014 0.28968 0.47414 0.0
C54 C 0.72002 0.33789 0.48887 0.0
C55 C 0.65806 0.33213 0.492 0.0
C56 C 0.58627 0.27771 0.47928 0.0
C57 C 0.57645 0.22959 0.46439 0.0
C58 C 0.71309 0.14002 0.54401 0.0
C59 C 0.87961 0.26584 0.48445 0.0
O60 O 0.83195 0.10883 0.53337 0.0
O61 O 0.87057 0.11125 0.47877 0.0
O62 O 0.72988 0.11023 0.4324 0.0
O63 O 0.84461 0.16042 0.42875 0.0
O64 O 0.68215 0.03936 0.48569 0.0
O65 O 0.61423 0.05 0.44996 0.0
O66 O 0.67634 0.18975 0.43135 0.0
O67 O 0.60642 0.14941 0.47653 0.0
O68 O 0.76625 0.17077 0.52424 0.0
O69 O 0.64981 0.11438 0.52529 0.0
O70 O 0.81319 0.24219 0.46913 0.0
O71 O 0.8888 0.2332 0.49861 0.0
H72 H 0.91785 0.06585 0.55916 0.0
H73 H 0.86856 0.96722 0.56313 0.0
H74 H 0.6976 0.8958 0.47179 0.0
H75 H 0.74617 0.99386 0.46839 0.0
H76 H 0.75856 0.29474 0.47313 0.0
H77 H 0.7758 0.37907 0.49905 0.0
H78 H 0.53766 0.27225 0.48136 0.0
H79 H 0.5205 0.18769 0.45556 0.0
Sm80 Sm 0.72351 0.62789 0.85549 0.0
Sm81 Sm 0.60732 0.4982 0.84344 0.0
C82 C 0.80393 0.74026 0.85086 0.0
C83 C 0.7874 0.77571 0.8412 0.0
C84 C 0.72333 0.75046 0.81705 0.0
C85 C 0.70713 0.78404 0.80867 0.0
C86 C 0.75431 0.8433 0.82454 0.0
C87 C 0.81882 0.86864 0.84838 0.0
C88 C 0.83522 0.83506 0.85662 0.0
C89 C 0.69034 0.57654 0.91957 0.0
C90 C 0.54046 0.56059 0.85242 0.0
C91 C 0.53442 0.38669 0.845 0.0
C92 C 0.55382 0.35207 0.83323 0.0
C93 C 0.53594 0.3092 0.85422 0.0
C94 C 0.55685 0.27785 0.84391 0.0
C95 C 0.59564 0.28863 0.81225 0.0
C96 C 0.61472 0.33248 0.79177 0.0
C97 C 0.59429 0.36404 0.80223 0.0
C98 C 0.63904 0.54611 0.77794 0.0
C99 C 0.79173 0.56606 0.85119 0.0
O100 O 0.79086 0.70274 0.82329 0.0
O101 O 0.7823 0.71863 0.88249 0.0
O102 O 0.64427 0.56328 0.89337 0.0
O103 O 0.75834 0.62022 0.9132 0.0
O104 O 0.61009 0.60776 0.84704 0.0
O105 O 0.5254 0.51176 0.85672 0.0
O106 O 0.57616 0.42712 0.87432 0.0
O107 O 0.5205 0.40471 0.81806 0.0
O108 O 0.68684 0.56242 0.80451 0.0
O109 O 0.57209 0.50206 0.78504 0.0
O110 O 0.71997 0.5171 0.84999 0.0
O111 O 0.80924 0.61664 0.85104 0.0
H112 H 0.68541 0.70462 0.80495 0.0
H113 H 0.65668 0.76331 0.79052 0.0
H114 H 0.85638 0.91434 0.86073 0.0
H115 H 0.88494 0.85531 0.87526 0.0
H116 H 0.50628 0.30028 0.87873 0.0
H117 H 0.54309 0.24543 0.86085 0.0
H118 H 0.64464 0.34189 0.76732 0.0
H119 H 0.61029 0.3979 0.78608 0.0
H120 H 0.76536 0.17307 0.23621 0.0
C121 C 0.71984 0.12716 0.22562 0.0
C122 C 0.69076 0.08629 0.25092 0.0
C123 C 0.6898 0.10917 0.18737 0.0
H124 H 0.60663 0.99533 0.25772 0.0
C125 C 0.63012 0.02668 0.23803 0.0
C126 C 0.5985 1.00678 0.20035 0.0
C127 C 0.62968 0.04803 0.17499 0.0
C128 C 0.71824 0.15409 0.16114 0.0
H129 H 0.6057 0.03205 0.14584 0.0
C130 C 0.79139 0.21125 0.1674 0.0
C131 C 0.81513 0.25264 0.14287 0.0
C132 C 0.67042 0.1407 0.12993 0.0
H133 H 0.61321 0.09934 0.12453 0.0
C134 C 0.69453 0.18115 0.10541 0.0
H135 H 0.83047 0.2239 0.19081 0.0
C136 C 0.76619 0.23653 0.11171 0.0
H137 H 0.78298 0.26752 0.09262 0.0
H138 H 0.65681 0.16978 0.08164 0.0
H139 H 0.65432 0.62137 0.61076 0.0
C140 C 0.66438 0.59461 0.59789 0.0
C141 C 0.6803 0.56925 0.6208 0.0
C142 C 0.65731 0.58276 0.55839 0.0
H143 H 0.69891 0.51076 0.62148 0.0
C144 C 0.68961 0.53227 0.60395 0.0
C145 C 0.6824 0.51992 0.56461 0.0
C146 C 0.66713 0.54583 0.54206 0.0
C147 C 0.63291 0.6042 0.53393 0.0
H148 H 0.65957 0.53515 0.51164 0.0
C149 C 0.66807 0.66348 0.53898 0.0
C150 C 0.64493 0.68319 0.51502 0.0
C151 C 0.57375 0.56477 0.50506 0.0
H152 H 0.54511 0.51878 0.50087 0.0
C153 C 0.55027 0.58406 0.48157 0.0
H154 H 0.71343 0.69413 0.56129 0.0
C155 C 0.58557 0.64286 0.48643 0.0
H156 H 0.56699 0.657 0.46752 0.0
H157 H 0.50465 0.55335 0.45944 0.0
H158 H 0.19788 0.58129 0.92502 0.0
C159 C 0.15484 0.57759 0.91124 0.0
C160 C 1.11106 0.58113 0.93406 0.0
C161 C 0.14419 0.56994 0.8715 0.0
H162 H 1.02186 0.58021 0.93515 0.0
C163 C 1.05436 0.5766 0.91729 0.0
C164 C 1.03899 0.56841 0.87816 0.0
C165 C 1.0841 0.56473 0.85529 0.0
C166 C 0.19813 0.57058 0.84799 0.0
H167 H 1.07104 0.55727 0.82515 0.0
C168 C 0.25042 0.56571 0.86214 0.0
C169 C 0.30216 0.57084 0.83874 0.0
C170 C 0.20028 0.57956 0.8101 0.0
H171 H 0.16577 0.5855 0.79735 0.0
C172 C 0.24863 0.5831 0.78741 0.0
H173 H 0.25214 0.5588 0.8909 0.0
C174 C 0.29847 0.57907 0.80136 0.0
H175 H 0.33511 0.58267 0.78243 0.0
H176 H 0.24822 0.59001 0.75843 0.0
H177 H 0.20609 0.59395 0.40033 0.0
C178 C 0.25134 0.63987 0.41097 0.0
C179 C 0.29752 0.67845 0.38536 0.0
C180 C 0.26261 0.66055 0.44974 0.0
H181 H 0.38961 0.76829 0.3788 0.0
C182 C 0.35513 0.73839 0.39861 0.0
C183 C 0.3688 0.76091 0.43671 0.0
C184 C 0.3235 0.72162 0.46228 0.0
C185 C 0.20887 0.61955 0.47656 0.0
H186 H 0.33536 0.73934 0.49174 0.0
C187 C 0.16412 0.5576 0.46975 0.0
C188 C 1.11349 0.5209 0.49529 0.0
C189 C 0.19963 0.64246 0.50915 0.0
H190 H 0.22861 0.68835 0.51509 0.0
C191 C 0.15089 0.60642 0.5345 0.0
H192 H 0.16865 0.53758 0.44519 0.0
C193 C 1.10844 0.54634 0.52777 0.0
H194 H 1.06998 0.51927 0.54763 0.0
H195 H 0.14506 0.62518 0.55932 0.0
H196 H 0.68401 0.04517 0.70554 0.0
C197 C 0.68371 0.0769 0.72052 0.0
C198 C 0.70345 0.12342 0.70284 0.0
C199 C 0.65837 0.06891 0.75634 0.0
H200 H 0.70866 0.19563 0.70692 0.0
C201 C 0.69805 0.16208 0.72141 0.0
C202 C 0.67141 0.15385 0.75678 0.0
C203 C 0.65399 0.10838 0.77448 0.0
C204 C 0.62682 1.01554 0.77307 0.0
H205 H 0.63371 0.10212 0.80191 0.0
C206 C 0.66679 0.99818 0.77768 0.0
C207 C 0.63676 0.94948 0.79604 0.0
C208 C 0.55573 0.98225 0.78558 0.0
H209 H 0.5233 0.99403 0.78184 0.0
C210 C 0.52555 0.93344 0.80299 0.0
H211 H 0.72172 0.02346 0.76835 0.0
C212 C 0.56593 0.91732 0.80844 0.0
H213 H 0.54181 0.87952 0.82234 0.0
H214 H 0.47087 0.90825 0.81252 0.0
H215 H 0.47568 0.34242 -0.00676 0.0
C216 C 0.51412 0.35311 0.01638 0.0
C217 C 0.59011 0.40437 0.01874 0.0
C218 C 0.48617 0.31775 0.04517 0.0
H219 H 0.69609 0.45949 0.05323 0.0
C220 C 0.63829 0.41843 0.04963 0.0
C221 C 0.61122 0.38291 0.0781 0.0
C222 C 0.53536 0.33248 0.07578 0.0
C223 C 0.40498 0.27401 0.04756 0.0
H224 H 0.51401 0.30733 0.09907 0.0
C225 C 0.36608 0.29234 0.04681 0.0
C226 C 0.29224 0.25597 0.05516 0.0
C227 C 0.36812 0.21739 0.05537 0.0
H228 H 0.39746 0.20259 0.05658 0.0
C229 C 0.2933 0.18001 0.06245 0.0
H230 H 0.39515 0.33692 0.04246 0.0
C231 C 0.25561 0.19949 0.06295 0.0
H232 H 0.19886 0.1712 0.07009 0.0
H233 H 0.26519 0.13653 0.06869 0.0
C234 C 0.24418 0.34388 0.03587 0.0
C235 C 0.24881 0.36745 0.07255 0.0
C236 C 0.25007 0.30213 0.02999 0.0
C237 C 0.25976 0.28204 0.06055 0.0
H238 H 0.24047 0.36042 0.01166 0.0
H239 H 0.25248 0.28863 0.00156 0.0
S240 S 0.26904 0.32575 0.16177 0.0
N241 N 0.25881 0.3645 0.13974 0.0
N242 N 0.26832 0.28503 0.12836 0.0
C243 C 0.25837 0.3015 0.0971 0.0
C244 C 0.25317 0.34448 0.10321 0.0
C245 C 0.94128 0.36105 0.46005 0.0
C246 C 0.94428 0.33036 0.48529 0.0
C247 C 0.99907 0.42226 0.46149 0.0
C248 C 1.06208 0.45557 0.48845 0.0
H249 H 0.89317 0.33776 0.43932 0.0
H250 H 0.9927 0.44404 0.44254 0.0
S251 S 1.09901 0.39752 0.56045 0.0
N252 N 1.01781 0.3388 0.53734 0.0
N253 N 0.12491 0.45345 0.54045 0.0
C254 C 1.06678 0.4255 0.51321 0.0
C255 C 1.00849 0.36312 0.51149 0.0
C256 C 0.71528 0.87864 0.78041 0.0
C257 C 0.73373 0.87737 0.81751 0.0
C258 C 0.68841 0.90562 0.7734 0.0
C259 C 0.67828 0.93149 0.80328 0.0
H260 H 0.72008 0.85746 0.7567 0.0
H261 H 0.67218 0.90382 0.74456 0.0
S262 S 0.72013 0.94157 0.90527 0.0
N263 N 0.74204 0.90607 0.8843 0.0
N264 N 0.69103 0.9562 0.87105 0.0
C265 C 0.69865 0.93213 0.84035 0.0
C266 C 0.7266 0.90526 0.8475 0.0
C267 C 0.78103 0.44233 0.14021 0.0
C268 C 0.78185 0.47426 0.17117 0.0
C269 C 0.72205 0.40852 0.11121 0.0
C270 C 0.66151 0.40471 0.11264 0.0
H271 H 0.82898 0.44722 0.13683 0.0
H272 H 0.72592 0.38821 0.08646 0.0
S273 S 0.63226 0.47346 0.18954 0.0
N274 N 0.71384 0.49541 0.20315 0.0
N275 N 0.60198 0.43081 0.14864 0.0
C276 C 0.65865 0.43244 0.14472 0.0
C277 C 0.7192 0.46756 0.17404 0.0
C278 C 0.49442 0.92478 0.43296 0.0
C279 C 0.55338 0.95135 0.46151 0.0
C280 C 0.43399 0.86378 0.42644 0.0
C281 C 0.4292 0.82613 0.44817 0.0
H282 H 0.49556 0.95111 0.41477 0.0
H283 H 0.39101 0.84575 0.40358 0.0
S284 S 0.56448 0.87378 0.52925 0.0
N285 N 0.59978 0.93537 0.51395 0.0
N286 N 0.48674 0.82073 0.50125 0.0
C287 C 0.48601 0.85222 0.47792 0.0
C288 C 0.54793 0.91462 0.48458 0.0
C289 C 0.68705 0.28176 0.79 0.0
C290 C 0.61518 0.25374 0.80001 0.0
C291 C 0.70545 0.24941 0.77664 0.0
C292 C 0.65277 0.18788 0.77295 0.0
H293 H 0.72939 0.32908 0.79239 0.0
H294 H 0.76119 0.27266 0.76903 0.0
S295 S 0.45546 0.09318 0.79261 0.0
N296 N 0.49021 0.16062 0.8035 0.0
N297 N 0.52483 0.10002 0.77866 0.0
C298 C 0.58075 0.15934 0.78276 0.0
C299 C 0.56198 0.19219 0.79625 0.0
C300 C 0.67077 0.81787 0.52029 0.0
C301 C 0.74811 0.86377 0.51992 0.0
C302 C 0.63838 0.76001 0.51997 0.0
C303 C 0.68204 0.74564 0.51923 0.0
H304 H 0.63473 0.8266 0.52045 0.0
H305 H 0.57842 0.72606 0.51979 0.0
S306 S 0.88704 0.8492 0.51744 0.0
N307 N 0.86768 0.89088 0.51867 0.0
N308 N 0.80661 0.78179 0.51805 0.0
C309 C 0.75966 0.79112 0.51963 0.0
C310 C 0.79274 0.85024 0.51997 0.0
C311 C 0.93034 0.61519 0.85362 0.0
C312 C 0.85382 0.56427 0.854 0.0
C313 C 0.98894 0.61533 0.85848 0.0
C314 C 0.97533 0.56447 0.86371 0.0
H315 H 0.94573 0.65619 0.85043 0.0
H316 H 1.04607 0.65654 0.85961 0.0
S317 S 0.78651 0.41902 0.86763 0.0
N318 N 0.7695 0.46076 0.86009 0.0
N319 N 0.8779 0.46159 0.86954 0.0
C320 C 0.89926 0.5132 0.86374 0.0
C321 C 0.83952 0.51288 0.85868 0.0
C322 C 0.40897 0.85378 0.20351 0.0
C323 C 0.40427 0.81808 0.17376 0.0
C324 C 0.47065 0.91452 0.21095 0.0
C325 C 0.53074 0.9429 0.18894 0.0
H326 H 0.36518 0.83465 0.22184 0.0
H327 H 0.47164 0.93953 0.23457 0.0
S328 S 0.54553 0.87097 0.10653 0.0
N329 N 0.46491 0.81678 0.12105 0.0
N330 N 0.58068 0.93081 0.13533 0.0
C331 C 0.52615 0.90832 0.15843 0.0
C332 C 0.46325 0.84612 0.15086 0.0
C333 C 0.62549 0.37283 0.54024 0.0
C334 C 0.66748 0.38159 0.51057 0.0
C335 C 0.63247 0.4184 0.55824 0.0
C336 C 0.68128 0.47431 0.54703 0.0
H337 H 0.58694 0.33037 0.54967 0.0
H338 H 0.59801 0.40938 0.58051 0.0
S339 S 0.80461 0.52022 0.47126 0.0
N340 N 0.76027 0.45049 0.47104 0.0
N341 N 0.77347 0.53639 0.50501 0.0
C342 C 0.72419 0.48389 0.51767 0.0
C343 C 0.71744 0.43752 0.49948 0.0
C344 C 0.49424 0.61417 0.84621 0.0
C345 C 0.47902 0.5632 0.85317 0.0
C346 C 0.43841 0.61725 0.84462 0.0
C347 C 0.36301 0.57001 0.85038 0.0
H348 H 0.54991 0.65212 0.84082 0.0
H349 H 0.45419 0.65698 0.8374 0.0
S350 S 0.29135 0.42633 0.87097 0.0
N351 N 0.38055 0.4641 0.86714 0.0
N352 N 0.27752 0.47024 0.86406 0.0
C353 C 0.3472 0.51932 0.85849 0.0
C354 C 0.40415 0.5159 0.85992 0.0
C355 C 0.96532 0.41532 0.18082 0.0
C356 C 1.01875 0.43737 0.1549 0.0
C357 C 0.90206 0.35495 0.17835 0.0
C358 C 0.88921 0.31405 0.14973 0.0
H359 H 0.97161 0.445 0.20293 0.0
H360 H 0.86126 0.34044 0.198 0.0
S361 S 1.01185 0.34741 0.07558 0.0
N362 N 1.05471 0.412 0.10035 0.0
N363 N 0.93564 0.29921 0.09563 0.0
C364 C 0.94273 0.33504 0.12426 0.0
C365 C 1.00749 0.39638 0.1269 0.0
C366 C 1.07145 0.56431 0.03649 0.0
C367 C 0.14232 0.60832 0.05699 0.0
C368 C 1.06238 0.55508 -0.00305 0.0
C369 C 1.12375 0.58966 0.97612 0.0
H370 H 1.02228 0.53677 0.05109 0.0
H371 H 1.00655 0.52062 0.98253 0.0
S372 S 0.32147 0.71113 0.0164 0.0
N373 N 0.27533 0.68656 0.0536 0.0
N374 N 0.25819 0.67018 0.97929 0.0
C375 C 0.19519 0.63346 -0.00369 0.0
C376 C 0.20447 0.64259 0.03669 0.0
C377 C 0.7574 0.0862 0.34765 0.0
C378 C 0.76682 0.13037 0.37035 0.0
C379 C 0.73539 0.07375 0.30881 0.0
C380 C 0.72175 0.10492 0.29138 0.0
H381 H 0.76513 0.06007 0.36017 0.0
H382 H 0.72764 0.03866 0.2924 0.0
S383 S 0.74286 0.22713 0.33904 0.0
N384 N 0.76558 0.20766 0.37301 0.0
N385 N 0.72164 0.18328 0.30025 0.0
C386 C 0.73337 0.15054 0.31387 0.0
C387 C 0.75632 0.16336 0.35336 0.0
C388 C 0.59965 0.54657 0.71359 0.0
C389 C 0.65612 0.56163 0.73952 0.0
C390 C 0.60993 0.55299 0.67554 0.0
C391 C 0.67673 0.57399 0.662 0.0
H392 H 0.5461 0.52784 0.72251 0.0
H393 H 0.5638 0.53841 0.65622 0.0
S394 S 0.84432 0.6245 0.71876 0.0
N395 N 0.78352 0.60299 0.74949 0.0
N396 N 0.80207 0.61378 0.67767 0.0
C397 C 0.73493 0.59182 0.68787 0.0
C398 C 0.7249 0.58612 0.72677 0.0
C399 C 0.65919 0.0826 0.59714 0.0
C400 C 0.71961 0.13448 0.58392 0.0
C401 C 0.65738 0.07798 0.63562 0.0
C402 C 0.71534 0.12548 0.6624 0.0
H403 H 0.61166 0.04579 0.57765 0.0
H404 H 0.60812 0.03815 0.64465 0.0
S405 S 0.88894 0.26929 0.64216 0.0
N406 N 0.8416 0.23265 0.60021 0.0
N407 N 0.83718 0.2247 0.67297 0.0
C408 C 0.77776 0.1767 0.64946 0.0
C409 C 0.78027 0.18096 0.61006 0.0
C410 C 0.5995 0.50389 0.95999 0.0
C411 C 0.66932 0.53594 0.9464 0.0
C412 C 0.57417 0.46107 0.98289 0.0
C413 C 0.61695 0.44759 -0.00762 0.0
H414 H 0.56416 0.51212 0.95293 0.0
H415 H 0.521 0.439 -0.00634 0.0
S416 S 0.80101 0.51543 0.96062 0.0
N417 N 0.77984 0.55009 0.94253 0.0
N418 N 0.73088 0.46757 0.98418 0.0
C419 C 0.68642 0.47861 0.97819 0.0
C420 C 0.71294 0.52326 0.95553 0.0
C421 C 0.34167 0.6706 0.28532 0.0
C422 C 0.27216 0.6363 0.26366 0.0
C423 C 0.34835 0.68096 0.32471 0.0
C424 C 0.28595 0.65821 0.34417 0.0
H425 H 0.39181 0.69082 0.27174 0.0
H426 H 0.40345 0.70855 0.34005 0.0
S427 S 1.08995 0.56063 0.30066 0.0
N428 N 0.13831 0.5744 0.26466 0.0
N429 N 0.15143 0.59679 0.33861 0.0
C430 C 0.21549 0.62158 0.32293 0.0
C431 C 0.20852 0.61009 0.28272 0.0
loop_
_geom_bond_atom_site_label_1
_geom_bond_atom_site_label_2
_geom_bond_distance
_geom_bond_site_symmetry_2
_ccdc_geom_bond_type
Sm0 C2 2.846 . S
Sm0 O20 2.543 . S
Sm0 O21 2.450 . S
Sm0 O22 2.681 . S
Sm0 O23 2.464 . S
Sm0 O24 2.396 . S
Sm0 O28 2.386 . S
Sm0 O31 2.408 1_455 S
Sm1 C11 2.846 1_455 S
Sm1 O22 2.386 . S
Sm1 O25 2.408 . S
Sm1 O26 2.543 1_455 S
Sm1 O27 2.450 1_455 S
Sm1 O28 2.681 . S
Sm1 O29 2.464 . S
Sm1 O30 2.396 1_455 S
C2 Sm0 2.846 . S
C2 C3 1.506 . S
C2 O20 1.261 . S
C2 O21 1.242 . S
C3 C2 1.506 . S
C3 C4 1.358 . S
C3 C8 1.382 . S
C4 C3 1.358 . S
C4 C5 1.385 . S
C4 H32 0.930 . S
C5 C4 1.385 . S
C5 C6 1.395 . S
C5 H33 0.929 . S
C6 C5 1.395 . S
C6 C7 1.335 . S
C7 C6 1.335 . S
C7 C8 1.398 . S
C7 H34 0.930 . S
C8 C3 1.382 . S
C8 C7 1.398 . S
C8 H35 0.929 . S
C9 O22 1.271 . S
C9 O23 1.251 . S
C10 O24 1.252 . S
C10 O25 1.272 . S
C11 Sm1 2.846 1_655 S
C11 C12 1.506 . S
C11 O26 1.261 . S
C11 O27 1.242 . S
C12 C11 1.506 . S
C12 C13 1.358 . S
C12 C17 1.382 . S
C13 C12 1.358 . S
C13 C14 1.385 . S
C13 H36 0.930 . S
C14 C13 1.385 . S
C14 C15 1.395 . S
C14 H37 0.929 . S
C15 C14 1.395 . S
C15 C16 1.335 . S
C16 C15 1.335 . S
C16 C17 1.398 . S
C16 H38 0.930 . S
C17 C12 1.382 . S
C17 C16 1.398 . S
C17 H39 0.929 . S
C18 O28 1.271 . S
C18 O29 1.251 . S
C19 O30 1.252 . S
C19 O31 1.272 . S
O20 Sm0 2.543 . S
O20 C2 1.261 . S
O21 Sm0 2.450 . S
O21 C2 1.242 . S
O22 Sm0 2.681 . S
O22 Sm1 2.386 . S
O22 C9 1.271 . S
O23 Sm0 2.464 . S
O23 C9 1.251 . S
O24 Sm0 2.396 . S
O24 C10 1.252 . S
O25 Sm1 2.408 . S
O25 C10 1.272 . S
O26 Sm1 2.543 1_655 S
O26 C11 1.261 . S
O27 Sm1 2.450 1_655 S
O27 C11 1.242 . S
O28 Sm0 2.386 . S
O28 Sm1 2.681 . S
O28 C18 1.271 . S
O29 Sm1 2.464 . S
O29 C18 1.251 . S
O30 Sm1 2.396 1_655 S
O30 C19 1.252 . S
O31 Sm0 2.408 1_655 S
O31 C19 1.272 . S
H32 C4 0.930 . S
H33 C5 0.929 . S
H34 C7 0.930 . S
H35 C8 0.929 . S
H36 C13 0.930 . S
H37 C14 0.929 . S
H38 C16 0.930 . S
H39 C17 0.929 . S
Sm40 C42 2.846 1_545 S
Sm40 O60 2.543 1_545 S
Sm40 O61 2.450 1_545 S
Sm40 O62 2.681 . S
Sm40 O63 2.464 . S
Sm40 O64 2.396 1_545 S
Sm40 O68 2.386 . S
Sm40 O71 2.408 . S
Sm41 C51 2.846 . S
Sm41 O62 2.386 . S
Sm41 O65 2.408 1_545 S
Sm41 O66 2.543 . S
Sm41 O67 2.450 . S
Sm41 O68 2.681 . S
Sm41 O69 2.464 . S
Sm41 O70 2.396 . S
C42 Sm40 2.846 1_565 S
C42 C43 1.506 . S
C42 O60 1.261 . S
C42 O61 1.242 . S
C43 C42 1.506 . S
C43 C44 1.358 . S
C43 C48 1.382 . S
C44 C43 1.358 . S
C44 C45 1.385 . S
C44 H72 0.930 . S
C45 C44 1.385 . S
C45 C46 1.395 . S
C45 H73 0.929 . S
C46 C45 1.395 . S
C46 C47 1.335 . S
C47 C46 1.335 . S
C47 C48 1.398 . S
C47 H74 0.930 . S
C48 C43 1.382 . S
C48 C47 1.398 . S
C48 H75 0.929 . S
C49 O62 1.271 . S
C49 O63 1.251 . S
C50 O64 1.252 . S
C50 O65 1.272 . S
C51 Sm41 2.846 . S
C51 C52 1.506 . S
C51 O66 1.261 . S
C51 O67 1.242 . S
C52 C51 1.506 . S
C52 C53 1.358 . S
C52 C57 1.382 . S
C53 C52 1.358 . S
C53 C54 1.385 . S
C53 H76 0.930 . S
C54 C53 1.385 . S
C54 C55 1.395 . S
C54 H77 0.929 . S
C55 C54 1.395 . S
C55 C56 1.335 . S
C56 C55 1.335 . S
C56 C57 1.398 . S
C56 H78 0.930 . S
C57 C52 1.382 . S
C57 C56 1.398 . S
C57 H79 0.929 . S
C58 O68 1.271 . S
C58 O69 1.251 . S
C59 O70 1.252 . S
C59 O71 1.272 . S
O60 Sm40 2.543 1_565 S
O60 C42 1.261 . S
O61 Sm40 2.450 1_565 S
O61 C42 1.242 . S
O62 Sm40 2.681 . S
O62 Sm41 2.386 . S
O62 C49 1.271 . S
O63 Sm40 2.464 . S
O63 C49 1.251 . S
O64 Sm40 2.396 1_565 S
O64 C50 1.252 . S
O65 Sm41 2.408 1_565 S
O65 C50 1.272 . S
O66 Sm41 2.543 . S
O66 C51 1.261 . S
O67 Sm41 2.450 . S
O67 C51 1.242 . S
O68 Sm40 2.386 . S
O68 Sm41 2.681 . S
O68 C58 1.271 . S
O69 Sm41 2.464 . S
O69 C58 1.251 . S
O70 Sm41 2.396 . S
O70 C59 1.252 . S
O71 Sm40 2.408 . S
O71 C59 1.272 . S
H72 C44 0.930 . S
H73 C45 0.929 . S
H74 C47 0.930 . S
H75 C48 0.929 . S
H76 C53 0.930 . S
H77 C54 0.929 . S
H78 C56 0.930 . S
H79 C57 0.929 . S
Sm80 C82 2.846 . S
Sm80 O100 2.543 . S
Sm80 O101 2.450 . S
Sm80 O102 2.681 . S
Sm80 O103 2.464 . S
Sm80 O104 2.396 . S
Sm80 O108 2.386 . S
Sm80 O111 2.408 . S
Sm81 C91 2.846 . S
Sm81 O102 2.386 . S
Sm81 O105 2.408 . S
Sm81 O106 2.543 . S
Sm81 O107 2.450 . S
Sm81 O108 2.681 . S
Sm81 O109 2.464 . S
Sm81 O110 2.396 . S
C82 Sm80 2.846 . S
C82 C83 1.506 . S
C82 O100 1.261 . S
C82 O101 1.242 . S
C83 C82 1.506 . S
C83 C84 1.358 . S
C83 C88 1.382 . S
C84 C83 1.358 . S
C84 C85 1.385 . S
C84 H112 0.930 . S
C85 C84 1.385 . S
C85 C86 1.395 . S
C85 H113 0.929 . S
C86 C85 1.395 . S
C86 C87 1.335 . S
C87 C86 1.335 . S
C87 C88 1.398 . S
C87 H114 0.930 . S
C88 C83 1.382 . S
C88 C87 1.398 . S
C88 H115 0.929 . S
C89 O102 1.271 . S
C89 O103 1.251 . S
C90 O104 1.252 . S
C90 O105 1.272 . S
C91 Sm81 2.846 . S
C91 C92 1.506 . S
C91 O106 1.261 . S
C91 O107 1.242 . S
C92 C91 1.506 . S
C92 C93 1.358 . S
C92 C97 1.382 . S
C93 C92 1.358 . S
C93 C94 1.385 . S
C93 H116 0.930 . S
C94 C93 1.385 . S
C94 C95 1.395 . S
C94 H117 0.929 . S
C95 C94 1.395 . S
C95 C96 1.335 . S
C96 C95 1.335 . S
C96 C97 1.398 . S
C96 H118 0.930 . S
C97 C92 1.382 . S
C97 C96 1.398 . S
C97 H119 0.929 . S
C98 O108 1.271 . S
C98 O109 1.251 . S
C99 O110 1.252 . S
C99 O111 1.272 . S
O100 Sm80 2.543 . S
O100 C82 1.261 . S
O101 Sm80 2.450 . S
O101 C82 1.242 . S
O102 Sm80 2.681 . S
O102 Sm81 2.386 . S
O102 C89 1.271 . S
O103 Sm80 2.464 . S
O103 C89 1.251 . S
O104 Sm80 2.396 . S
O104 C90 1.252 . S
O105 Sm81 2.408 . S
O105 C90 1.272 . S
O106 Sm81 2.543 . S
O106 C91 1.261 . S
O107 Sm81 2.450 . S
O107 C91 1.242 . S
O108 Sm80 2.386 . S
O108 Sm81 2.681 . S
O108 C98 1.271 . S
O109 Sm81 2.464 . S
O109 C98 1.251 . S
O110 Sm81 2.396 . S
O110 C99 1.252 . S
O111 Sm80 2.408 . S
O111 C99 1.272 . S
H112 C84 0.930 . S
H113 C85 0.929 . S
H114 C87 0.930 . S
H115 C88 0.929 . S
H116 C93 0.930 . S
H117 C94 0.929 . S
H118 C96 0.930 . S
H119 C97 0.929 . S
H120 C121 0.949 . S
C121 H120 0.949 . S
C121 C122 1.395 . S
C121 C123 1.391 . S
C122 C121 1.395 . S
C122 C125 1.390 1_545 S
C123 C121 1.391 . S
C123 C127 1.387 . S
C123 C128 1.491 . S
H124 C125 0.950 . S
C125 C122 1.390 1_565 S
C125 H124 0.950 . S
C125 C126 1.378 . S
C126 C125 1.378 . S
C126 C127 1.409 1_565 S
C127 C123 1.387 . S
C127 C126 1.409 1_545 S
C127 H129 0.951 1_545 S
C128 C123 1.491 . S
C128 C130 1.382 . S
C128 C132 1.404 . S
H129 C127 0.951 1_565 S
C130 C128 1.382 . S
C130 C131 1.390 . S
C130 H135 0.949 . S
C131 C130 1.390 . S
C131 C136 1.399 . S
C132 C128 1.404 . S
C132 H133 0.950 . S
C132 C134 1.375 . S
H133 C132 0.950 . S
C134 C132 1.375 . S
C134 C136 1.382 . S
C134 H138 0.950 . S
H135 C130 0.949 . S
C136 C131 1.399 . S
C136 C134 1.382 . S
C136 H137 0.952 . S
H137 C136 0.952 . S
H138 C134 0.950 . S
H139 C140 0.949 . S
C140 H139 0.949 . S
C140 C141 1.395 . S
C140 C142 1.391 . S
C141 C140 1.395 . S
C141 C144 1.390 . S
C142 C140 1.391 . S
C142 C146 1.387 . S
C142 C147 1.491 . S
H143 C144 0.950 . S
C144 C141 1.390 . S
C144 H143 0.950 . S
C144 C145 1.378 . S
C145 C144 1.378 . S
C145 C146 1.409 . S
C146 C142 1.387 . S
C146 C145 1.409 . S
C146 H148 0.951 . S
C147 C142 1.491 . S
C147 C149 1.382 . S
C147 C151 1.404 . S
H148 C146 0.951 . S
C149 C147 1.382 . S
C149 C150 1.390 . S
C149 H154 0.949 . S
C150 C149 1.390 . S
C150 C155 1.399 . S
C151 C147 1.404 . S
C151 H152 0.950 . S
C151 C153 1.375 . S
H152 C151 0.950 . S
C153 C151 1.375 . S
C153 C155 1.382 . S
C153 H157 0.950 . S
H154 C149 0.949 . S
C155 C150 1.399 . S
C155 C153 1.382 . S
C155 H156 0.952 . S
H156 C155 0.952 . S
H157 C153 0.950 . S
H158 C159 0.949 . S
C159 H158 0.949 . S
C159 C160 1.395 . S
C159 C161 1.391 . S
C160 C159 1.395 . S
C160 C163 1.390 1_455 S
C161 C159 1.391 . S
C161 C165 1.387 . S
C161 C166 1.491 . S
H162 C163 0.950 . S
C163 C160 1.390 1_655 S
C163 H162 0.950 . S
C163 C164 1.378 . S
C164 C163 1.378 . S
C164 C165 1.409 1_655 S
C165 C161 1.387 . S
C165 C164 1.409 1_455 S
C165 H167 0.951 . S
C166 C161 1.491 . S
C166 C168 1.382 . S
C166 C170 1.404 . S
H167 C165 0.951 . S
C168 C166 1.382 . S
C168 C169 1.390 . S
C168 H173 0.949 . S
C169 C168 1.390 . S
C169 C174 1.399 . S
C170 C166 1.404 . S
C170 H171 0.950 . S
C170 C172 1.375 . S
H171 C170 0.950 . S
C172 C170 1.375 . S
C172 C174 1.382 . S
C172 H176 0.950 . S
H173 C168 0.949 . S
C174 C169 1.399 . S
C174 C172 1.382 . S
C174 H175 0.952 . S
H175 C174 0.952 . S
H176 C172 0.950 . S
H177 C178 0.949 1_655 S
C178 H177 0.949 1_455 S
C178 C179 1.395 . S
C178 C180 1.391 . S
C179 C178 1.395 . S
C179 C182 1.390 . S
C180 C178 1.391 . S
C180 C184 1.387 . S
C180 C185 1.491 1_455 S
H181 C182 0.950 . S
C182 C179 1.390 . S
C182 H181 0.950 . S
C182 C183 1.378 . S
C183 C182 1.378 . S
C183 C184 1.409 . S
C184 C180 1.387 . S
C184 C183 1.409 . S
C184 H186 0.951 . S
C185 C180 1.491 1_655 S
C185 C187 1.382 . S
C185 C189 1.404 . S
H186 C184 0.951 . S
C187 C185 1.382 . S
C187 C188 1.390 . S
C187 H192 0.949 . S
C188 C187 1.390 . S
C188 C193 1.399 . S
C189 C185 1.404 . S
C189 H190 0.950 . S
C189 C191 1.375 . S
H190 C189 0.950 . S
C191 C189 1.375 . S
C191 C193 1.382 . S
C191 H195 0.950 . S
H192 C187 0.949 . S
C193 C188 1.399 . S
C193 C191 1.382 . S
C193 H194 0.952 . S
H194 C193 0.952 . S
H195 C191 0.950 . S
H196 C197 0.959 . S
C197 H196 0.959 . S
C197 C198 1.395 . S
C197 C199 1.391 . S
C198 C197 1.395 . S
C198 C201 1.390 . S
C199 C197 1.391 . S
C199 C203 1.387 . S
C199 C204 1.488 1_545 S
H200 C201 0.950 . S
C201 C198 1.390 . S
C201 H200 0.950 . S
C201 C202 1.378 . S
C202 C201 1.378 . S
C202 C203 1.409 . S
C203 C199 1.387 . S
C203 C202 1.409 . S
C203 H205 0.951 . S
C204 C199 1.488 1_565 S
C204 C206 1.385 . S
C204 C208 1.404 . S
H205 C203 0.951 . S
C206 C204 1.385 . S
C206 C207 1.390 . S
C206 H211 0.949 . S
C207 C206 1.390 . S
C207 C212 1.399 . S
C208 C204 1.404 . S
C208 H209 0.950 . S
C208 C210 1.375 . S
H209 C208 0.950 . S
C210 C208 1.375 . S
C210 C212 1.382 . S
C210 H214 0.950 . S
H211 C206 0.949 . S
C212 C207 1.399 . S
C212 C210 1.382 . S
C212 H213 0.952 . S
H213 C212 0.952 . S
H214 C210 0.950 . S
H215 C216 0.949 . S
C216 H215 0.949 . S
C216 C217 1.395 . S
C216 C218 1.391 . S
C217 C216 1.395 . S
C217 C220 1.390 . S
C218 C216 1.391 . S
C218 C222 1.387 . S
C218 C223 1.491 . S
H219 C220 0.950 . S
C220 C217 1.390 . S
C220 H219 0.950 . S
C220 C221 1.378 . S
C221 C220 1.378 . S
C221 C222 1.409 . S
C222 C218 1.387 . S
C222 C221 1.409 . S
C222 H224 0.951 . S
C223 C218 1.491 . S
C223 C225 1.382 . S
C223 C227 1.404 . S
H224 C222 0.951 . S
C225 C223 1.382 . S
C225 C226 1.390 . S
C225 H230 0.949 . S
C226 C225 1.390 . S
C226 C231 1.399 . S
C227 C223 1.404 . S
C227 H228 0.950 . S
C227 C229 1.375 . S
H228 C227 0.950 . S
C229 C227 1.375 . S
C229 C231 1.382 . S
C229 H233 0.950 . S
H230 C225 0.949 . S
C231 C226 1.399 . S
C231 C229 1.382 . S
C231 H232 0.952 . S
H232 C231 0.952 . S
H233 C229 0.950 . S
C234 C235 1.369 . S
C234 C236 1.419 . S
C234 H238 0.930 . S
C235 C234 1.369 . S
C235 C244 1.429 . S
C236 C234 1.419 . S
C236 C237 1.363 . S
C236 H239 0.929 . S
C237 C236 1.363 . S
C237 C243 1.428 . S
H238 C234 0.930 . S
H239 C236 0.929 . S
S240 N241 1.613 . S
S240 N242 1.610 . S
N241 S240 1.613 . S
N241 C244 1.350 . S
N242 S240 1.610 . S
N242 C243 1.351 . S
C243 C237 1.428 . S
C243 N242 1.351 . S
C243 C244 1.434 . S
C244 C235 1.429 . S
C244 N241 1.350 . S
C244 C243 1.434 . S
C245 C246 1.369 . S
C245 C247 1.419 . S
C245 H249 0.930 . S
C246 C245 1.369 . S
C246 C255 1.429 . S
C247 C245 1.419 . S
C247 C248 1.363 . S
C247 H250 0.929 . S
C248 C247 1.363 . S
C248 C254 1.428 . S
H249 C245 0.930 . S
H250 C247 0.929 . S
S251 N252 1.613 . S
S251 N253 1.610 . S
N252 S251 1.613 . S
N252 C255 1.350 . S
N253 S251 1.610 . S
N253 C254 1.351 . S
C254 C248 1.428 . S
C254 N253 1.351 . S
C254 C255 1.434 . S
C255 C246 1.429 . S
C255 N252 1.350 . S
C255 C254 1.434 . S
C256 C257 1.369 . S
C256 C258 1.419 . S
C256 H260 0.930 . S
C257 C256 1.369 . S
C257 C266 1.429 . S
C258 C256 1.419 . S
C258 C259 1.363 . S
C258 H261 0.929 . S
C259 C258 1.363 . S
C259 C265 1.428 . S
H260 C256 0.930 . S
H261 C258 0.929 . S
S262 N263 1.613 . S
S262 N264 1.610 . S
N263 S262 1.613 . S
N263 C266 1.350 . S
N264 S262 1.610 . S
N264 C265 1.351 . S
C265 C259 1.428 . S
C265 N264 1.351 . S
C265 C266 1.434 . S
C266 C257 1.429 . S
C266 N263 1.350 . S
C266 C265 1.434 . S
C267 C268 1.369 . S
C267 C269 1.419 . S
C267 H271 0.930 . S
C268 C267 1.369 . S
C268 C277 1.429 . S
C269 C267 1.419 . S
C269 C270 1.363 . S
C269 H272 0.929 . S
C270 C269 1.363 . S
C270 C276 1.428 . S
H271 C267 0.930 . S
H272 C269 0.929 . S
S273 N274 1.613 . S
S273 N275 1.610 . S
N274 S273 1.613 . S
N274 C277 1.350 . S
N275 S273 1.610 . S
N275 C276 1.351 . S
C276 C270 1.428 . S
C276 N275 1.351 . S
C276 C277 1.434 . S
C277 C268 1.429 . S
C277 N274 1.350 . S
C277 C276 1.434 . S
C278 C279 1.369 . S
C278 C280 1.419 . S
C278 H282 0.930 . S
C279 C278 1.369 . S
C279 C288 1.429 . S
C280 C278 1.419 . S
C280 C281 1.363 . S
C280 H283 0.929 . S
C281 C280 1.363 . S
C281 C287 1.428 . S
H282 C278 0.930 . S
H283 C280 0.929 . S
S284 N285 1.613 . S
S284 N286 1.610 . S
N285 S284 1.613 . S
N285 C288 1.350 . S
N286 S284 1.610 . S
N286 C287 1.351 . S
C287 C281 1.428 . S
C287 N286 1.351 . S
C287 C288 1.434 . S
C288 C279 1.429 . S
C288 N285 1.350 . S
C288 C287 1.434 . S
C289 C290 1.369 . S
C289 C291 1.419 . S
C289 H293 0.930 . S
C290 C289 1.369 . S
C290 C299 1.429 . S
C291 C289 1.419 . S
C291 C292 1.363 . S
C291 H294 0.929 . S
C292 C291 1.363 . S
C292 C298 1.428 . S
H293 C289 0.930 . S
H294 C291 0.929 . S
S295 N296 1.613 . S
S295 N297 1.610 . S
N296 S295 1.613 . S
N296 C299 1.350 . S
N297 S295 1.610 . S
N297 C298 1.351 . S
C298 C292 1.428 . S
C298 N297 1.351 . S
C298 C299 1.434 . S
C299 C290 1.429 . S
C299 N296 1.350 . S
C299 C298 1.434 . S
C300 C301 1.369 . S
C300 C302 1.419 . S
C300 H304 0.930 . S
C301 C300 1.369 . S
C301 C310 1.429 . S
C302 C300 1.419 . S
C302 C303 1.363 . S
C302 H305 0.929 . S
C303 C302 1.363 . S
C303 C309 1.428 . S
H304 C300 0.930 . S
H305 C302 0.929 . S
S306 N307 1.613 . S
S306 N308 1.610 . S
N307 S306 1.613 . S
N307 C310 1.350 . S
N308 S306 1.610 . S
N308 C309 1.351 . S
C309 C303 1.428 . S
C309 N308 1.351 . S
C309 C310 1.434 . S
C310 C301 1.429 . S
C310 N307 1.350 . S
C310 C309 1.434 . S
C311 C312 1.369 . S
C311 C313 1.419 . S
C311 H315 0.930 . S
C312 C311 1.369 . S
C312 C321 1.429 . S
C313 C311 1.419 . S
C313 C314 1.363 . S
C313 H316 0.929 . S
C314 C313 1.363 . S
C314 C320 1.428 . S
H315 C311 0.930 . S
H316 C313 0.929 . S
S317 N318 1.613 . S
S317 N319 1.610 . S
N318 S317 1.613 . S
N318 C321 1.350 . S
N319 S317 1.610 . S
N319 C320 1.351 . S
C320 C314 1.428 . S
C320 N319 1.351 . S
C320 C321 1.434 . S
C321 C312 1.429 . S
C321 N318 1.350 . S
C321 C320 1.434 . S
C322 C323 1.369 . S
C322 C324 1.419 . S
C322 H326 0.930 . S
C323 C322 1.369 . S
C323 C332 1.429 . S
C324 C322 1.419 . S
C324 C325 1.363 . S
C324 H327 0.929 . S
C325 C324 1.363 . S
C325 C331 1.428 . S
H326 C322 0.930 . S
H327 C324 0.929 . S
S328 N329 1.613 . S
S328 N330 1.610 . S
N329 S328 1.613 . S
N329 C332 1.350 . S
N330 S328 1.610 . S
N330 C331 1.351 . S
C331 C325 1.428 . S
C331 N330 1.351 . S
C331 C332 1.434 . S
C332 C323 1.429 . S
C332 N329 1.350 . S
C332 C331 1.434 . S
C333 C334 1.369 . S
C333 C335 1.419 . S
C333 H337 0.930 . S
C334 C333 1.369 . S
C334 C343 1.429 . S
C335 C333 1.419 . S
C335 C336 1.363 . S
C335 H338 0.929 . S
C336 C335 1.363 . S
C336 C342 1.428 . S
H337 C333 0.930 . S
H338 C335 0.929 . S
S339 N340 1.613 . S
S339 N341 1.610 . S
N340 S339 1.613 . S
N340 C343 1.350 . S
N341 S339 1.610 . S
N341 C342 1.351 . S
C342 C336 1.428 . S
C342 N341 1.351 . S
C342 C343 1.434 . S
C343 C334 1.429 . S
C343 N340 1.350 . S
C343 C342 1.434 . S
C344 C345 1.369 . S
C344 C346 1.419 . S
C344 H348 0.930 . S
C345 C344 1.369 . S
C345 C354 1.429 . S
C346 C344 1.419 . S
C346 C347 1.363 . S
C346 H349 0.929 . S
C347 C346 1.363 . S
C347 C353 1.428 . S
H348 C344 0.930 . S
H349 C346 0.929 . S
S350 N351 1.613 . S
S350 N352 1.610 . S
N351 S350 1.613 . S
N351 C354 1.350 . S
N352 S350 1.610 . S
N352 C353 1.351 . S
C353 C347 1.428 . S
C353 N352 1.351 . S
C353 C354 1.434 . S
C354 C345 1.429 . S
C354 N351 1.350 . S
C354 C353 1.434 . S
C355 C356 1.369 . S
C355 C357 1.419 . S
C355 H359 0.930 . S
C356 C355 1.369 . S
C356 C365 1.429 . S
C357 C355 1.419 . S
C357 C358 1.363 . S
C357 H360 0.929 . S
C358 C357 1.363 . S
C358 C364 1.428 . S
H359 C355 0.930 . S
H360 C357 0.929 . S
S361 N362 1.613 . S
S361 N363 1.610 . S
N362 S361 1.613 . S
N362 C365 1.350 . S
N363 S361 1.610 . S
N363 C364 1.351 . S
C364 C358 1.428 . S
C364 N363 1.351 . S
C364 C365 1.434 . S
C365 C356 1.429 . S
C365 N362 1.350 . S
C365 C364 1.434 . S
C366 C367 1.369 . S
C366 C368 1.419 1_554 S
C366 H370 0.930 1_455 S
C367 C366 1.369 . S
C367 C376 1.429 . S
C368 C366 1.419 1_556 S
C368 C369 1.363 . S
C368 H371 0.929 1_455 S
C369 C368 1.363 . S
C369 C375 1.432 . S
H370 C366 0.930 1_655 S
H371 C368 0.929 1_655 S
S372 N373 1.613 . S
S372 N374 1.610 1_554 S
N373 S372 1.613 . S
N373 C376 1.350 . S
N374 S372 1.610 1_556 S
N374 C375 1.355 . S
C375 C369 1.432 . S
C375 N374 1.355 . S
C375 C376 1.426 1_556 S
C376 C367 1.429 . S
C376 N373 1.350 . S
C376 C375 1.426 1_554 S
C377 C378 1.369 1_565 S
C377 C379 1.419 . S
C377 H381 0.930 . S
C378 C377 1.369 1_545 S
C378 C387 1.429 . S
C379 C377 1.419 . S
C379 C380 1.363 1_565 S
C379 H382 0.929 . S
C380 C379 1.363 1_545 S
C380 C386 1.428 . S
H381 C377 0.930 . S
H382 C379 0.929 . S
S383 N384 1.613 . S
S383 N385 1.610 . S
N384 S383 1.613 . S
N384 C387 1.350 . S
N385 S383 1.610 . S
N385 C386 1.351 . S
C386 C380 1.428 . S
C386 N385 1.351 . S
C386 C387 1.434 . S
C387 C378 1.429 . S
C387 N384 1.350 . S
C387 C386 1.434 . S
C388 C389 1.369 . S
C388 C390 1.419 . S
C388 H392 0.930 . S
C389 C388 1.369 . S
C389 C398 1.429 . S
C390 C388 1.419 . S
C390 C391 1.363 . S
C390 H393 0.929 . S
C391 C390 1.363 . S
C391 C397 1.428 . S
H392 C388 0.930 . S
H393 C390 0.929 . S
S394 N395 1.613 . S
S394 N396 1.610 . S
N395 S394 1.613 . S
N395 C398 1.350 . S
N396 S394 1.610 . S
N396 C397 1.351 . S
C397 C391 1.428 . S
C397 N396 1.351 . S
C397 C398 1.434 . S
C398 C389 1.429 . S
C398 N395 1.350 . S
C398 C397 1.434 . S
C399 C400 1.369 . S
C399 C401 1.419 . S
C399 H403 0.930 1_545 S
C400 C399 1.369 . S
C400 C409 1.429 . S
C401 C399 1.419 . S
C401 C402 1.363 . S
C401 H404 0.929 1_545 S
C402 C401 1.363 . S
C402 C408 1.428 . S
H403 C399 0.930 1_565 S
H404 C401 0.929 1_565 S
S405 N406 1.613 . S
S405 N407 1.610 . S
N406 S405 1.613 . S
N406 C409 1.350 . S
N407 S405 1.610 . S
N407 C408 1.351 . S
C408 C402 1.428 . S
C408 N407 1.351 . S
C408 C409 1.434 . S
C409 C400 1.429 . S
C409 N406 1.350 . S
C409 C408 1.434 . S
C410 C411 1.369 . S
C410 C412 1.419 1_556 S
C410 H414 0.930 . S
C411 C410 1.369 . S
C411 C420 1.429 . S
C412 C410 1.419 1_554 S
C412 C413 1.363 . S
C412 H415 0.929 . S
C413 C412 1.363 . S
C413 C419 1.428 . S
H414 C410 0.930 . S
H415 C412 0.929 . S
S416 N417 1.602 1_554 S
S416 N418 1.619 . S
N417 S416 1.602 1_556 S
N417 C420 1.350 . S
N418 S416 1.619 . S
N418 C419 1.351 . S
C419 C413 1.428 . S
C419 N418 1.351 . S
C419 C420 1.434 1_554 S
C420 C411 1.429 . S
C420 N417 1.350 . S
C420 C419 1.434 1_556 S
C421 C422 1.369 . S
C421 C423 1.419 . S
C421 H425 0.930 . S
C422 C421 1.369 . S
C422 C431 1.429 . S
C423 C421 1.419 . S
C423 C424 1.363 . S
C423 H426 0.929 . S
C424 C423 1.363 . S
C424 C430 1.428 . S
H425 C421 0.930 . S
H426 C423 0.929 . S
S427 N428 1.613 . S
S427 N429 1.610 . S
N428 S427 1.613 . S
N428 C431 1.350 . S
N429 S427 1.610 . S
N429 C430 1.351 . S
C430 C424 1.428 . S
C430 N429 1.351 . S
C430 C431 1.434 . S
C431 C422 1.429 . S
C431 N428 1.350 . S
C431 C430 1.434 . S
C235 C6 1.105 . S
C237 C226 0.962 . S
C246 C59 2.006 . S
C248 C188 1.956 . S
C257 C86 1.360 . S
C259 C207 1.297 . S
C268 C15 0.573 . S
C270 C221 0.406 . S
C281 C183 1.887 . S
C279 C50 1.933 . S
C292 C202 1.189 . S
C290 C95 1.195 . S
C301 C46 1.377 . S
C303 C150 1.280 . S
C312 C99 3.103 . S
C314 C164 3.069 . S
C323 C10 1.959 . S
C325 C126 1.938 . S
C336 C145 1.166 . S
C334 C55 1.161 . S
C347 C169 3.082 . S
C345 C90 3.134 . S
C356 C19 2.022 . S
C358 C131 1.983 . S
C369 C160 1.744 . S
C367 C18 1.719 . S
C378 C49 1.441 . S
C380 C122 1.517 . S
C389 C98 1.544 . S
C391 C141 1.559 . S
C402 C198 1.539 . S
C400 C58 1.551 . S
C413 C217 1.298 . S
C411 C89 1.305 . S
C422 C9 1.420 . S
C424 C179 1.463 . S
