# Generated by pormake.
# Topology eea, (3,6)-cn, num edge types: 1
# Building blocks:
#     Node 0, Type 0, BuildingBlock: BELTOD_clean_linker_0, # of connection points: 3
#     Node 1, Type 0, BuildingBlock: BELTOD_clean_linker_0, # of connection points: 3
#     Node 2, Type 0, BuildingBlock: BELTOD_clean_linker_0, # of connection points: 3
#     Node 3, Type 0, BuildingBlock: BELTOD_clean_linker_0, # of connection points: 3
#     Node 4, Type 0, BuildingBlock: BELTOD_clean_linker_0, # of connection points: 3
#     Node 5, Type 0, BuildingBlock: BELTOD_clean_linker_0, # of connection points: 3
#     Node 6, Type 0, BuildingBlock: BELTOD_clean_linker_0, # of connection points: 3
#     Node 7, Type 0, BuildingBlock: BELTOD_clean_linker_0, # of connection points: 3
#     Node 8, Type 0, BuildingBlock: BELTOD_clean_linker_0, # of connection points: 3
#     Node 9, Type 0, BuildingBlock: BELTOD_clean_linker_0, # of connection points: 3
#     Node 10, Type 0, BuildingBlock: BELTOD_clean_linker_0, # of connection points: 3
#     Node 11, Type 0, BuildingBlock: BELTOD_clean_linker_0, # of connection points: 3
#     Node 12, Type 0, BuildingBlock: BELTOD_clean_linker_0, # of connection points: 3
#     Node 13, Type 0, BuildingBlock: BELTOD_clean_linker_0, # of connection points: 3
#     Node 14, Type 0, BuildingBlock: BELTOD_clean_linker_0, # of connection points: 3
#     Node 15, Type 0, BuildingBlock: BELTOD_clean_linker_0, # of connection points: 3
#     Node 16, Type 0, BuildingBlock: BELTOD_clean_linker_0, # of connection points: 3
#     Node 17, Type 0, BuildingBlock: BELTOD_clean_linker_0, # of connection points: 3
#     Node 18, Type 1, BuildingBlock: CIFDUS_clean_sbu_1, # of connection points: 6
#     Node 19, Type 1, BuildingBlock: CIFDUS_clean_sbu_1, # of connection points: 6
#     Node 20, Type 1, BuildingBlock: CIFDUS_clean_sbu_1, # of connection points: 6
#     Node 21, Type 1, BuildingBlock: CIFDUS_clean_sbu_1, # of connection points: 6
#     Node 22, Type 1, BuildingBlock: CIFDUS_clean_sbu_1, # of connection points: 6
#     Node 23, Type 1, BuildingBlock: CIFDUS_clean_sbu_1, # of connection points: 6
#     Node 24, Type 1, BuildingBlock: CIFDUS_clean_sbu_1, # of connection points: 6
#     Node 25, Type 1, BuildingBlock: CIFDUS_clean_sbu_1, # of connection points: 6
#     Node 26, Type 1, BuildingBlock: CIFDUS_clean_sbu_1, # of connection points: 6
#     Edge 27, Type (0, 1), BuildingBlock: ZUJKAS_clean_linker_0, # of connection points: 2
#     Edge 28, Type (0, 1), BuildingBlock: ZUJKAS_clean_linker_0, # of connection points: 2
#     Edge 29, Type (0, 1), BuildingBlock: ZUJKAS_clean_linker_0, # of connection points: 2
#     Edge 30, Type (0, 1), BuildingBlock: ZUJKAS_clean_linker_0, # of connection points: 2
#     Edge 31, Type (0, 1), BuildingBlock: ZUJKAS_clean_linker_0, # of connection points: 2
#     Edge 32, Type (0, 1), BuildingBlock: ZUJKAS_clean_linker_0, # of connection points: 2
#     Edge 33, Type (0, 1), BuildingBlock: ZUJKAS_clean_linker_0, # of connection points: 2
#     Edge 34, Type (0, 1), BuildingBlock: ZUJKAS_clean_linker_0, # of connection points: 2
#     Edge 35, Type (0, 1), BuildingBlock: ZUJKAS_clean_linker_0, # of connection points: 2
#     Edge 36, Type (0, 1), BuildingBlock: ZUJKAS_clean_linker_0, # of connection points: 2
#     Edge 37, Type (0, 1), BuildingBlock: ZUJKAS_clean_linker_0, # of connection points: 2
#     Edge 38, Type (0, 1), BuildingBlock: ZUJKAS_clean_linker_0, # of connection points: 2
#     Edge 39, Type (0, 1), BuildingBlock: ZUJKAS_clean_linker_0, # of connection points: 2
#     Edge 40, Type (0, 1), BuildingBlock: ZUJKAS_clean_linker_0, # of connection points: 2
#     Edge 41, Type (0, 1), BuildingBlock: ZUJKAS_clean_linker_0, # of connection points: 2
#     Edge 42, Type (0, 1), BuildingBlock: ZUJKAS_clean_linker_0, # of connection points: 2
#     Edge 43, Type (0, 1), BuildingBlock: ZUJKAS_clean_linker_0, # of connection points: 2
#     Edge 44, Type (0, 1), BuildingBlock: ZUJKAS_clean_linker_0, # of connection points: 2
#     Edge 45, Type (0, 1), BuildingBlock: ZUJKAS_clean_linker_0, # of connection points: 2
#     Edge 46, Type (0, 1), BuildingBlock: ZUJKAS_clean_linker_0, # of connection points: 2
#     Edge 47, Type (0, 1), BuildingBlock: ZUJKAS_clean_linker_0, # of connection points: 2
#     Edge 48, Type (0, 1), BuildingBlock: ZUJKAS_clean_linker_0, # of connection points: 2
#     Edge 49, Type (0, 1), BuildingBlock: ZUJKAS_clean_linker_0, # of connection points: 2
#     Edge 50, Type (0, 1), BuildingBlock: ZUJKAS_clean_linker_0, # of connection points: 2
#     Edge 51, Type (0, 1), BuildingBlock: ZUJKAS_clean_linker_0, # of connection points: 2
#     Edge 52, Type (0, 1), BuildingBlock: ZUJKAS_clean_linker_0, # of connection points: 2
#     Edge 53, Type (0, 1), BuildingBlock: ZUJKAS_clean_linker_0, # of connection points: 2
#     Edge 54, Type (0, 1), BuildingBlock: ZUJKAS_clean_linker_0, # of connection points: 2
#     Edge 55, Type (0, 1), BuildingBlock: ZUJKAS_clean_linker_0, # of connection points: 2
#     Edge 56, Type (0, 1), BuildingBlock: ZUJKAS_clean_linker_0, # of connection points: 2
#     Edge 57, Type (0, 1), BuildingBlock: ZUJKAS_clean_linker_0, # of connection points: 2
#     Edge 58, Type (0, 1), BuildingBlock: ZUJKAS_clean_linker_0, # of connection points: 2
#     Edge 59, Type (0, 1), BuildingBlock: ZUJKAS_clean_linker_0, # of connection points: 2
#     Edge 60, Type (0, 1), BuildingBlock: ZUJKAS_clean_linker_0, # of connection points: 2
#     Edge 61, Type (0, 1), BuildingBlock: ZUJKAS_clean_linker_0, # of connection points: 2
#     Edge 62, Type (0, 1), BuildingBlock: ZUJKAS_clean_linker_0, # of connection points: 2
#     Edge 63, Type (0, 1), BuildingBlock: ZUJKAS_clean_linker_0, # of connection points: 2
#     Edge 64, Type (0, 1), BuildingBlock: ZUJKAS_clean_linker_0, # of connection points: 2
#     Edge 65, Type (0, 1), BuildingBlock: ZUJKAS_clean_linker_0, # of connection points: 2
#     Edge 66, Type (0, 1), BuildingBlock: ZUJKAS_clean_linker_0, # of connection points: 2
#     Edge 67, Type (0, 1), BuildingBlock: ZUJKAS_clean_linker_0, # of connection points: 2
#     Edge 68, Type (0, 1), BuildingBlock: ZUJKAS_clean_linker_0, # of connection points: 2
#     Edge 69, Type (0, 1), BuildingBlock: ZUJKAS_clean_linker_0, # of connection points: 2
#     Edge 70, Type (0, 1), BuildingBlock: ZUJKAS_clean_linker_0, # of connection points: 2
#     Edge 71, Type (0, 1), BuildingBlock: ZUJKAS_clean_linker_0, # of connection points: 2
#     Edge 72, Type (0, 1), BuildingBlock: ZUJKAS_clean_linker_0, # of connection points: 2
#     Edge 73, Type (0, 1), BuildingBlock: ZUJKAS_clean_linker_0, # of connection points: 2
#     Edge 74, Type (0, 1), BuildingBlock: ZUJKAS_clean_linker_0, # of connection points: 2
#     Edge 75, Type (0, 1), BuildingBlock: ZUJKAS_clean_linker_0, # of connection points: 2
#     Edge 76, Type (0, 1), BuildingBlock: ZUJKAS_clean_linker_0, # of connection points: 2
#     Edge 77, Type (0, 1), BuildingBlock: ZUJKAS_clean_linker_0, # of connection points: 2
#     Edge 78, Type (0, 1), BuildingBlock: ZUJKAS_clean_linker_0, # of connection points: 2
#     Edge 79, Type (0, 1), BuildingBlock: ZUJKAS_clean_linker_0, # of connection points: 2
#     Edge 80, Type (0, 1), BuildingBlock: ZUJKAS_clean_linker_0, # of connection points: 2
# Relax obj value: 0.094
# Max RMSD: 0.176
# Mean RMSD: 0.087
data_MOF--net-eea--node1-CIFDUS_clean_sbu_1--node2-BELTOD_clean_linker_0--edge1-ZUJKAS_clean_linker_0
_symmetry_space_group_name_H-M    P1
_symmetry_Int_Tables_number       1
_symmetry_cell_setting            triclinic
loop_
_symmetry_equiv_pos_as_xyz
'x, y, z'
_cell_length_a     78.573477
_cell_length_b     77.825201
_cell_length_c     77.041687
_cell_angle_alpha  90.545848
_cell_angle_beta   90.141078
_cell_angle_gamma 120.01541
loop_
_atom_site_label
_atom_site_type_symbol
_atom_site_fract_x
_atom_site_fract_y
_atom_site_fract_z
_atom_type_partial_charge
P0 P 0.20485 0.10583 0.41802 0.0
H1 H 0.19071 0.08607 0.38433 0.0
H2 H 0.17632 0.05146 0.37502 0.0
H3 H 0.17366 0.03422 0.42859 0.0
H4 H 0.18686 0.0685 0.43775 0.0
H5 H 0.2126 0.14244 0.43546 0.0
H6 H 0.20021 0.16514 0.4311 0.0
H7 H 0.15965 0.12535 0.39208 0.0
H8 H 0.17156 0.10218 0.39717 0.0
H9 H 0.24132 0.10809 0.42959 0.0
H10 H 0.19057 0.10581 0.45324 0.0
O11 O 0.22347 0.1162 0.4041 0.0
H12 H 0.25529 0.10951 0.45826 0.0
H13 H 0.20434 0.10695 0.48207 0.0
C14 C 0.19007 0.08001 0.41171 0.0
C15 C 0.18649 0.07475 0.39408 0.0
C16 C 0.1785 0.05492 0.38877 0.0
C17 C 0.17417 0.03995 0.401 0.0
C18 C 0.17665 0.04519 0.41875 0.0
C19 C 0.1844 0.06498 0.42404 0.0
C20 C 0.19269 0.1203 0.41699 0.0
C21 C 0.20058 0.13823 0.42637 0.0
C22 C 0.19367 0.15141 0.42365 0.0
C23 C 0.17902 0.14724 0.4111 0.0
C24 C 0.17076 0.12898 0.40201 0.0
C25 C 0.1776 0.11568 0.40489 0.0
C26 C 0.21519 0.10743 0.43931 0.0
C27 C 0.23324 0.10803 0.44097 0.0
C28 C 0.24111 0.1086 0.45739 0.0
C29 C 0.23097 0.10841 0.47247 0.0
C30 C 0.21267 0.10745 0.47072 0.0
C31 C 0.20479 0.10682 0.45427 0.0
P32 P 0.92484 0.07949 0.44224 0.0
H33 H 0.91433 0.03781 0.4398 0.0
H34 H 0.88663 0.00874 0.42627 0.0
H35 H 0.86465 0.04587 0.40662 0.0
H36 H 0.89272 0.07498 0.41993 0.0
H37 H 0.94816 0.12162 0.45094 0.0
H38 H 0.96935 0.1508 0.43381 0.0
H39 H 0.95259 0.11422 0.38736 0.0
H40 H 0.93171 0.08501 0.4047 0.0
H41 H 0.91687 0.06381 0.47726 0.0
H42 H 0.90551 0.10317 0.44673 0.0
O43 O 0.94129 0.07369 0.44965 0.0
H44 H 0.89902 0.06751 0.50154 0.0
H45 H 0.88811 0.10751 0.47117 0.0
C46 C 0.90576 0.05858 0.43054 0.0
C47 C 0.90374 0.03975 0.43233 0.0
C48 C 0.88776 0.02309 0.42475 0.0
C49 C 0.87339 0.02495 0.41538 0.0
C50 C 0.87559 0.04394 0.41353 0.0
C51 C 0.8916 0.0606 0.42112 0.0
C52 C 0.93794 0.10122 0.42905 0.0
C53 C 0.94871 0.11995 0.43701 0.0
C54 C 0.96083 0.13665 0.42717 0.0
C55 C 0.96264 0.13491 0.40916 0.0
C56 C 0.95165 0.11609 0.4012 0.0
C57 C 0.93951 0.09939 0.41108 0.0
C58 C 0.91304 0.08372 0.46043 0.0
C59 C 0.91084 0.07357 0.47592 0.0
C60 C 0.90062 0.0757 0.4898 0.0
C61 C 0.89226 0.08795 0.4884 0.0
C62 C 0.89424 0.09786 0.47268 0.0
C63 C 0.90441 0.09561 0.45877 0.0
P64 P 0.85029 0.71367 0.39315 0.0
H65 H 0.83164 0.71485 0.36069 0.0
H66 H 0.8155 0.73336 0.35191 0.0
H67 H 0.83199 0.76514 0.40098 0.0
H68 H 0.8478 0.74638 0.40975 0.0
H69 H 0.87403 0.69712 0.38041 0.0
H70 H 0.90852 0.71195 0.37261 0.0
H71 H 0.91791 0.7698 0.38751 0.0
H72 H 0.88305 0.75482 0.39462 0.0
H73 H 0.81629 0.68487 0.41232 0.0
H74 H 0.87414 0.73366 0.42435 0.0
O75 O 0.83814 0.6918 0.38281 0.0
H76 H 0.80906 0.67955 0.44322 0.0
H77 H 0.86685 0.72888 0.45532 0.0
C78 C 0.84044 0.72889 0.38603 0.0
C79 C 0.83185 0.72588 0.36951 0.0
C80 C 0.82277 0.73658 0.36446 0.0
C81 C 0.82225 0.75054 0.37585 0.0
C82 C 0.83179 0.7542 0.39207 0.0
C83 C 0.84086 0.7435 0.39708 0.0
C84 C 0.87594 0.72489 0.38788 0.0
C85 C 0.88348 0.71301 0.38191 0.0
C86 C 0.90329 0.72152 0.3776 0.0
C87 C 0.91608 0.74211 0.37943 0.0
C88 C 0.90846 0.75396 0.38565 0.0
C89 C 0.88854 0.7454 0.38982 0.0
C90 C 0.8459 0.70933 0.41604 0.0
C91 C 0.82749 0.69436 0.42164 0.0
C92 C 0.82329 0.69152 0.43933 0.0
C93 C 0.83736 0.7038 0.45181 0.0
C94 C 0.85578 0.71894 0.4461 0.0
C95 C 0.85998 0.7217 0.42837 0.0
P96 P 0.13538 0.28077 0.60827 0.0
H97 H 0.11488 0.28992 0.63495 0.0
H98 H 0.08053 0.2741 0.64359 0.0
H99 H 0.06569 0.22806 0.60488 0.0
H100 H 0.10021 0.24432 0.59607 0.0
H101 H 0.16979 0.29762 0.63128 0.0
H102 H 0.18843 0.28364 0.64435 0.0
H103 H 0.14728 0.22614 0.62247 0.0
H104 H 0.1285 0.24024 0.60958 0.0
H105 H 0.11251 0.28111 0.57831 0.0
H106 H 0.16598 0.2797 0.58746 0.0
O107 O 0.14573 0.30473 0.61381 0.0
H108 H 0.11871 0.28343 0.5471 0.0
H109 H 0.17216 0.28185 0.55631 0.0
C110 C 0.10999 0.26854 0.61461 0.0
C111 C 0.10423 0.27647 0.62827 0.0
C112 C 0.08459 0.26727 0.63332 0.0
C113 C 0.07032 0.24982 0.6249 0.0
C114 C 0.07626 0.24165 0.61145 0.0
C115 C 0.09597 0.25088 0.60643 0.0
C116 C 0.14772 0.26993 0.61953 0.0
C117 C 0.1646 0.28195 0.62948 0.0
C118 C 0.17532 0.27396 0.63686 0.0
C119 C 0.16939 0.25381 0.63436 0.0
C120 C 0.15211 0.24166 0.62479 0.0
C121 C 0.14139 0.2497 0.61738 0.0
C122 C 0.13847 0.27967 0.5852 0.0
C123 C 0.12531 0.28079 0.57359 0.0
C124 C 0.12888 0.28211 0.55574 0.0
C125 C 0.14589 0.28272 0.54921 0.0
C126 C 0.15898 0.28148 0.56092 0.0
C127 C 0.15534 0.28006 0.57874 0.0
P128 P 0.85672 0.92836 0.5594 0.0
H129 H 0.88597 0.96764 0.57274 0.0
H130 H 0.88299 0.99312 0.58883 0.0
H131 H 0.82063 0.95284 0.59426 0.0
H132 H 0.82374 0.9274 0.57791 0.0
H133 H 0.84931 0.89109 0.54392 0.0
H134 H 0.8452 0.86039 0.55599 0.0
H135 H 0.84798 0.88351 0.60781 0.0
H136 H 0.85263 0.91446 0.59552 0.0
H137 H 0.86262 0.95043 0.52751 0.0
H138 H 0.81523 0.89956 0.55217 0.0
O139 O 0.87965 0.93853 0.552 0.0
H140 H 0.84065 0.94716 0.50359 0.0
H141 H 0.79322 0.89588 0.52813 0.0
C142 C 0.85507 0.9456 0.57413 0.0
C143 C 0.8717 0.96412 0.57764 0.0
C144 C 0.86998 0.97871 0.58689 0.0
C145 C 0.85154 0.9751 0.59274 0.0
C146 C 0.835 0.95622 0.58972 0.0
C147 C 0.83677 0.9416 0.58052 0.0
C148 C 0.85092 0.90492 0.5688 0.0
C149 C 0.84872 0.88941 0.55788 0.0
C150 C 0.84632 0.87181 0.56483 0.0
C151 C 0.84621 0.86936 0.58292 0.0
C152 C 0.8482 0.88492 0.59384 0.0
C153 C 0.85065 0.90258 0.58683 0.0
C154 C 0.84068 0.92491 0.54135 0.0
C155 C 0.84754 0.93836 0.52763 0.0
C156 C 0.83496 0.93647 0.51396 0.0
C157 C 0.81519 0.92119 0.51387 0.0
C158 C 0.80831 0.90791 0.52784 0.0
C159 C 0.82093 0.90984 0.5415 0.0
P160 P 0.12752 0.88637 0.60454 0.0
H161 H 0.16409 0.9141 0.62203 0.0
H162 H 0.18043 0.94973 0.62758 0.0
H163 H 0.13182 0.95185 0.60346 0.0
H164 H 0.11541 0.91587 0.59795 0.0
H165 H 0.09695 0.84812 0.59109 0.0
H166 H 0.06266 0.82636 0.59909 0.0
H167 H 0.06687 0.87059 0.63588 0.0
H168 H 0.10118 0.89233 0.62774 0.0
H169 H 0.16192 0.88816 0.58884 0.0
H170 H 0.10759 0.88345 0.57136 0.0
O171 O 0.13789 0.87656 0.6169 0.0
H172 H 0.17167 0.88814 0.55882 0.0
H173 H 0.11687 0.88269 0.54116 0.0
C174 C 0.13832 0.91228 0.60999 0.0
C175 C 0.15678 0.92213 0.61813 0.0
C176 C 0.16623 0.94257 0.62112 0.0
C177 C 0.15744 0.95361 0.61589 0.0
C178 C 0.13886 0.94369 0.60777 0.0
C179 C 0.12946 0.92317 0.60466 0.0
C180 C 0.10146 0.87211 0.60841 0.0
C181 C 0.09036 0.85335 0.60057 0.0
C182 C 0.07082 0.84082 0.6053 0.0
C183 C 0.06204 0.84674 0.61814 0.0
C184 C 0.07311 0.86572 0.62578 0.0
C185 C 0.09273 0.8782 0.62108 0.0
C186 C 0.13377 0.88515 0.5823 0.0
C187 C 0.15192 0.88676 0.5785 0.0
C188 C 0.15747 0.88672 0.5613 0.0
C189 C 0.14498 0.88518 0.54752 0.0
C190 C 0.12692 0.88401 0.55142 0.0
C191 C 0.12145 0.88417 0.56868 0.0
P192 P 0.87049 0.4316 0.75444 0.0
H193 H 0.86301 0.41524 0.71928 0.0
H194 H 0.84794 0.38116 0.70825 0.0
H195 H 0.82878 0.3594 0.76009 0.0
H196 H 0.84317 0.39349 0.77083 0.0
H197 H 0.88989 0.47433 0.75725 0.0
H198 H 0.87958 0.49852 0.75133 0.0
H199 H 0.82106 0.45082 0.73893 0.0
H200 H 0.83154 0.42655 0.74515 0.0
H201 H 0.88806 0.4107 0.77054 0.0
H202 H 0.86676 0.44952 0.78732 0.0
O203 O 0.89146 0.4408 0.74344 0.0
H204 H 0.89843 0.40959 0.80016 0.0
H205 H 0.87797 0.44932 0.81686 0.0
C206 C 0.85463 0.4069 0.74592 0.0
C207 C 0.85513 0.40311 0.72818 0.0
C208 C 0.84668 0.3836 0.72194 0.0
C209 C 0.83762 0.36749 0.73336 0.0
C210 C 0.83568 0.37138 0.75091 0.0
C211 C 0.84402 0.39094 0.7571 0.0
C212 C 0.86155 0.44869 0.75145 0.0
C213 C 0.8748 0.46906 0.75336 0.0
C214 C 0.8689 0.48288 0.7499 0.0
C215 C 0.84955 0.47663 0.74444 0.0
C216 C 0.83604 0.45612 0.74317 0.0
C217 C 0.84202 0.44223 0.74663 0.0
C218 C 0.87674 0.43025 0.7767 0.0
C219 C 0.88561 0.41899 0.78064 0.0
C220 C 0.89166 0.41848 0.79758 0.0
C221 C 0.88923 0.42951 0.81093 0.0
C222 C 0.87989 0.44045 0.80698 0.0
C223 C 0.87363 0.44076 0.79001 0.0
P224 P 0.58813 0.40587 0.78184 0.0
H225 H 0.57354 0.36352 0.78563 0.0
H226 H 0.54647 0.33414 0.77174 0.0
H227 H 0.53597 0.37193 0.7379 0.0
H228 H 0.5628 0.40122 0.75216 0.0
H229 H 0.606 0.44858 0.78838 0.0
H230 H 0.62829 0.4776 0.77159 0.0
H231 H 0.62611 0.4392 0.7297 0.0
H232 H 0.60338 0.41021 0.74648 0.0
H233 H 0.5813 0.39706 0.81884 0.0
H234 H 0.56338 0.42397 0.77955 0.0
O235 O 0.60367 0.40044 0.79187 0.0
H236 H 0.56133 0.40223 0.84022 0.0
H237 H 0.54305 0.42892 0.8008 0.0
C238 C 0.57045 0.38451 0.76963 0.0
C239 C 0.56566 0.36546 0.77497 0.0
C240 C 0.55017 0.34866 0.76702 0.0
C241 C 0.53903 0.35067 0.75372 0.0
C242 C 0.54411 0.36986 0.74824 0.0
C243 C 0.55959 0.38662 0.75623 0.0
C244 C 0.60257 0.42723 0.7685 0.0
C245 C 0.60995 0.44639 0.77543 0.0
C246 C 0.62291 0.463 0.76588 0.0
C247 C 0.62905 0.46078 0.74927 0.0
C248 C 0.62146 0.4415 0.74231 0.0
C249 C 0.60846 0.42489 0.7519 0.0
C250 C 0.57421 0.41062 0.79775 0.0
C251 C 0.57316 0.40421 0.81484 0.0
C252 C 0.56153 0.40695 0.82701 0.0
C253 C 0.55061 0.41602 0.82223 0.0
C254 C 0.5515 0.42215 0.80496 0.0
C255 C 0.56311 0.41935 0.79281 0.0
P256 P 0.51842 0.05006 0.72872 0.0
H257 H 0.49409 0.04338 0.69779 0.0
H258 H 0.47788 0.06068 0.68621 0.0
H259 H 0.50356 0.10439 0.72755 0.0
H260 H 0.52009 0.08722 0.73882 0.0
H261 H 0.54824 0.04256 0.74313 0.0
H262 H 0.58301 0.05571 0.73667 0.0
H263 H 0.58044 0.09545 0.69933 0.0
H264 H 0.54573 0.08237 0.706 0.0
H265 H 0.48498 0.01978 0.74767 0.0
H266 H 0.53858 0.07419 0.75967 0.0
O267 O 0.50811 0.02759 0.7194 0.0
H268 H 0.47632 0.01568 0.77839 0.0
H269 H 0.5301 0.07011 0.79053 0.0
C270 C 0.50797 0.06382 0.71935 0.0
C271 C 0.49634 0.05675 0.7043 0.0
C272 C 0.48703 0.06663 0.69772 0.0
C273 C 0.48925 0.0838 0.70606 0.0
C274 C 0.50163 0.09129 0.72074 0.0
C275 C 0.51095 0.08139 0.7273 0.0
C276 C 0.54449 0.06168 0.72526 0.0
C277 C 0.55525 0.05432 0.73375 0.0
C278 C 0.57507 0.06172 0.72992 0.0
C279 C 0.58447 0.07657 0.71743 0.0
C280 C 0.57369 0.08418 0.70916 0.0
C281 C 0.55382 0.07669 0.71296 0.0
C282 C 0.51263 0.04702 0.75148 0.0
C283 C 0.49499 0.03074 0.75696 0.0
C284 C 0.49006 0.02841 0.77453 0.0
C285 C 0.50259 0.04249 0.78692 0.0
C286 C 0.52009 0.05906 0.7813 0.0
C287 C 0.52504 0.06132 0.7637 0.0
P288 P 0.80099 0.615 0.94253 0.0
H289 H 0.78046 0.61536 0.97361 0.0
H290 H 0.74619 0.5964 0.98246 0.0
H291 H 0.732 0.56159 0.93503 0.0
H292 H 0.76639 0.58108 0.9261 0.0
H293 H 0.84227 0.63668 0.95232 0.0
H294 H 0.8646 0.62634 0.96401 0.0
H295 H 0.81661 0.56581 0.96612 0.0
H296 H 0.79423 0.57641 0.95472 0.0
H297 H 0.79517 0.63674 0.91478 0.0
H298 H 0.81306 0.59283 0.91921 0.0
O299 O 0.80842 0.6383 0.94882 0.0
H300 H 0.80213 0.63931 0.8837 0.0
H301 H 0.82056 0.59568 0.8883 0.0
C302 C 0.77583 0.59989 0.94907 0.0
C303 C 0.76996 0.60363 0.96513 0.0
C304 C 0.75037 0.59262 0.97024 0.0
C305 C 0.73627 0.57748 0.95944 0.0
C306 C 0.7424 0.57335 0.94354 0.0
C307 C 0.76206 0.58444 0.93843 0.0
C308 C 0.81657 0.60738 0.95298 0.0
C309 C 0.83648 0.62124 0.95559 0.0
C310 C 0.84927 0.61527 0.96212 0.0
C311 C 0.84239 0.59523 0.96594 0.0
C312 C 0.8223 0.58139 0.96353 0.0
C313 C 0.8095 0.58742 0.95701 0.0
C314 C 0.80399 0.61493 0.91936 0.0
C315 C 0.80056 0.62762 0.90905 0.0
C316 C 0.80468 0.62917 0.89131 0.0
C317 C 0.81225 0.61796 0.88355 0.0
C318 C 0.81474 0.60451 0.89382 0.0
C319 C 0.81057 0.60297 0.91157 0.0
P320 P 0.52554 0.26343 0.88768 0.0
H321 H 0.55714 0.3044 0.89304 0.0
H322 H 0.5585 0.33278 0.90804 0.0
H323 H 0.49933 0.29516 0.9264 0.0
H324 H 0.49835 0.26662 0.91171 0.0
H325 H 0.50599 0.22219 0.87576 0.0
H326 H 0.50029 0.19158 0.88931 0.0
H327 H 0.52505 0.22366 0.9374 0.0
H328 H 0.53089 0.25439 0.92359 0.0
H329 H 0.53081 0.27959 0.85278 0.0
H330 H 0.48249 0.24114 0.88558 0.0
O331 O 0.54731 0.27031 0.87872 0.0
H332 H 0.50768 0.27649 0.83003 0.0
H333 H 0.4592 0.23764 0.86277 0.0
C334 C 0.5277 0.28333 0.90141 0.0
C335 C 0.5446 0.30212 0.9006 0.0
C336 C 0.54528 0.31844 0.90904 0.0
C337 C 0.52896 0.31636 0.91831 0.0
C338 C 0.51225 0.29731 0.91955 0.0
C339 C 0.51163 0.28096 0.91113 0.0
C340 C 0.51833 0.24049 0.8988 0.0
C341 C 0.50974 0.22258 0.88935 0.0
C342 C 0.50653 0.20504 0.89712 0.0
C343 C 0.51215 0.20508 0.91448 0.0
C344 C 0.52066 0.22309 0.92397 0.0
C345 C 0.52379 0.24064 0.91616 0.0
C346 C 0.50836 0.26018 0.87068 0.0
C347 C 0.5152 0.27026 0.85499 0.0
C348 C 0.50195 0.26847 0.84199 0.0
C349 C 0.48157 0.25673 0.84451 0.0
C350 C 0.47478 0.24694 0.86043 0.0
C351 C 0.48807 0.24875 0.87342 0.0
P352 P 0.78844 0.22551 0.93298 0.0
H353 H 0.81042 0.24661 0.96417 0.0
H354 H 0.82893 0.28174 0.972 0.0
H355 H 0.80927 0.296 0.92465 0.0
H356 H 0.79095 0.26067 0.91678 0.0
H357 H 0.75784 0.18621 0.92189 0.0
H358 H 0.72383 0.16497 0.93082 0.0
H359 H 0.72825 0.2122 0.96394 0.0
H360 H 0.76243 0.23325 0.95512 0.0
H361 H 0.82349 0.23137 0.91541 0.0
H362 H 0.76576 0.22004 0.90079 0.0
O363 O 0.79909 0.21492 0.94389 0.0
H364 H 0.8321 0.23248 0.88489 0.0
H365 H 0.77397 0.22041 0.87011 0.0
C366 C 0.79963 0.2511 0.93976 0.0
C367 C 0.80993 0.25726 0.95554 0.0
C368 C 0.82042 0.27739 0.96005 0.0
C369 C 0.8207 0.29173 0.94888 0.0
C370 C 0.80961 0.28537 0.9334 0.0
C371 C 0.79906 0.26518 0.92893 0.0
C372 C 0.76254 0.21144 0.93755 0.0
C373 C 0.75135 0.19213 0.93079 0.0
C374 C 0.73187 0.18001 0.93591 0.0
C375 C 0.72325 0.18688 0.94808 0.0
C376 C 0.73447 0.20638 0.95465 0.0
C377 C 0.75398 0.21852 0.94948 0.0
C378 C 0.79382 0.22504 0.91034 0.0
C379 C 0.81254 0.22878 0.90559 0.0
C380 C 0.81743 0.22938 0.88812 0.0
C381 C 0.80367 0.22632 0.875 0.0
C382 C 0.78497 0.22293 0.87985 0.0
C383 C 0.78015 0.22245 0.89739 0.0
P384 P 0.52815 0.76491 0.08761 0.0
H385 H 0.50855 0.74449 0.05536 0.0
H386 H 0.49358 0.70976 0.0461 0.0
H387 H 0.49979 0.69376 0.09837 0.0
H388 H 0.51363 0.72805 0.10761 0.0
H389 H 0.54342 0.80613 0.09675 0.0
H390 H 0.53159 0.82928 0.09229 0.0
H391 H 0.47725 0.78164 0.07095 0.0
H392 H 0.48952 0.75853 0.07519 0.0
H393 H 0.56347 0.76485 0.09914 0.0
H394 H 0.51569 0.76858 0.12268 0.0
O395 O 0.54642 0.77387 0.07329 0.0
H396 H 0.57761 0.76651 0.12777 0.0
H397 H 0.52953 0.76985 0.15151 0.0
C398 C 0.51235 0.73899 0.08213 0.0
C399 C 0.50608 0.73338 0.06491 0.0
C400 C 0.49776 0.71351 0.0596 0.0
C401 C 0.49579 0.69888 0.07139 0.0
C402 C 0.50089 0.70445 0.0889 0.0
C403 C 0.509 0.72426 0.09421 0.0
C404 C 0.51733 0.78058 0.08643 0.0
C405 C 0.52881 0.80057 0.09138 0.0
C406 C 0.52195 0.81381 0.08889 0.0
C407 C 0.50339 0.8074 0.0813 0.0
C408 C 0.49168 0.78716 0.07668 0.0
C409 C 0.49862 0.77388 0.0792 0.0
C410 C 0.53885 0.76714 0.1088 0.0
C411 C 0.5561 0.76617 0.1105 0.0
C412 C 0.56402 0.76686 0.12691 0.0
C413 C 0.55471 0.76832 0.14196 0.0
C414 C 0.53723 0.76902 0.14018 0.0
C415 C 0.52931 0.76832 0.12373 0.0
P416 P 0.25512 0.74179 0.11965 0.0
H417 H 0.24606 0.70093 0.11248 0.0
H418 H 0.2183 0.67278 0.09782 0.0
H419 H 0.19366 0.70997 0.08562 0.0
H420 H 0.22155 0.7381 0.10013 0.0
H421 H 0.27815 0.78424 0.12791 0.0
H422 H 0.30015 0.81307 0.11065 0.0
H423 H 0.28561 0.77538 0.06507 0.0
H424 H 0.26385 0.7466 0.08248 0.0
H425 H 0.24884 0.72839 0.15556 0.0
H426 H 0.23466 0.76442 0.12316 0.0
O427 O 0.27079 0.735 0.12719 0.0
H428 H 0.23058 0.73218 0.17946 0.0
H429 H 0.21566 0.76763 0.14671 0.0
C430 C 0.23584 0.7216 0.10739 0.0
C431 C 0.23481 0.7031 0.10649 0.0
C432 C 0.21895 0.68702 0.0981 0.0
C433 C 0.20376 0.68915 0.0907 0.0
C434 C 0.20502 0.70782 0.09142 0.0
C435 C 0.22098 0.72392 0.09964 0.0
C436 C 0.26898 0.76335 0.10641 0.0
C437 C 0.27938 0.78226 0.11413 0.0
C438 C 0.29197 0.79874 0.10423 0.0
C439 C 0.29464 0.79657 0.08644 0.0
C440 C 0.28402 0.77757 0.07874 0.0
C441 C 0.2714 0.76112 0.08866 0.0
C442 C 0.24345 0.74648 0.13772 0.0
C443 C 0.24194 0.73729 0.15365 0.0
C444 C 0.23125 0.73925 0.16724 0.0
C445 C 0.22158 0.7502 0.16507 0.0
C446 C 0.22317 0.75938 0.14901 0.0
C447 C 0.23399 0.75752 0.13547 0.0
P448 P 0.18583 0.38373 0.05743 0.0
H449 H 0.16967 0.38436 0.02347 0.0
H450 H 0.15229 0.40093 0.01278 0.0
H451 H 0.16015 0.42949 0.06298 0.0
H452 H 0.17842 0.41384 0.07307 0.0
H453 H 0.20761 0.37246 0.03367 0.0
H454 H 0.24181 0.38924 0.02444 0.0
H455 H 0.25424 0.43941 0.05747 0.0
H456 H 0.21971 0.42249 0.0666 0.0
H457 H 0.15072 0.36863 0.07823 0.0
H458 H 0.21264 0.39193 0.08749 0.0
O459 O 0.17416 0.36101 0.04856 0.0
H460 H 0.14475 0.36489 0.10941 0.0
H461 H 0.2069 0.38883 0.11873 0.0
C462 C 0.17475 0.3974 0.0492 0.0
C463 C 0.16777 0.39436 0.03207 0.0
C464 C 0.15774 0.40376 0.02603 0.0
C465 C 0.15447 0.41632 0.03708 0.0
C466 C 0.16244 0.42006 0.05401 0.0
C467 C 0.1727 0.41088 0.05992 0.0
C468 C 0.21122 0.39611 0.05105 0.0
C469 C 0.21765 0.38704 0.03898 0.0
C470 C 0.23718 0.39672 0.03359 0.0
C471 C 0.25069 0.41564 0.04022 0.0
C472 C 0.24418 0.42477 0.05226 0.0
C473 C 0.22451 0.41514 0.05748 0.0
C474 C 0.18214 0.38089 0.08054 0.0
C475 C 0.16306 0.37309 0.08701 0.0
C476 C 0.15969 0.3711 0.10485 0.0
C477 C 0.17537 0.37677 0.11662 0.0
C478 C 0.19447 0.38425 0.11004 0.0
C479 C 0.19781 0.38621 0.09214 0.0
P480 P 0.46895 0.94961 0.2794 0.0
H481 H 0.44735 0.9482 0.31036 0.0
H482 H 0.41252 0.92957 0.31781 0.0
H483 H 0.3994 0.89998 0.26775 0.0
H484 H 0.43433 0.91872 0.2604 0.0
H485 H 0.50472 0.96619 0.30064 0.0
H486 H 0.52394 0.95194 0.31193 0.0
H487 H 0.48099 0.89456 0.29106 0.0
H488 H 0.46184 0.90903 0.27967 0.0
H489 H 0.45219 0.96154 0.25145 0.0
H490 H 0.49542 0.94314 0.25658 0.0
O491 O 0.47754 0.97251 0.28742 0.0
H492 H 0.45913 0.96678 0.22042 0.0
H493 H 0.50206 0.94786 0.22561 0.0
C494 C 0.44331 0.93523 0.28468 0.0
C495 C 0.43696 0.93771 0.30099 0.0
C496 C 0.41708 0.92692 0.30529 0.0
C497 C 0.40318 0.91339 0.29332 0.0
C498 C 0.40971 0.91053 0.27713 0.0
C499 C 0.42966 0.92125 0.27291 0.0
C500 C 0.48178 0.9386 0.28948 0.0
C501 C 0.49925 0.95048 0.29875 0.0
C502 C 0.51019 0.94229 0.30526 0.0
C503 C 0.50395 0.92211 0.30243 0.0
C504 C 0.48621 0.91017 0.29337 0.0
C505 C 0.47521 0.91837 0.28696 0.0
C506 C 0.47303 0.95167 0.25631 0.0
C507 C 0.46294 0.95832 0.24585 0.0
C508 C 0.46688 0.96123 0.2281 0.0
C509 C 0.48113 0.95768 0.2205 0.0
C510 C 0.49113 0.9509 0.23106 0.0
C511 C 0.48718 0.94801 0.2488 0.0
P512 P 0.19601 0.60397 0.22035 0.0
H513 H 0.22293 0.64656 0.21889 0.0
H514 H 0.22267 0.67482 0.23256 0.0
H515 H 0.17265 0.63474 0.26316 0.0
H516 H 0.17305 0.60638 0.24937 0.0
H517 H 0.1808 0.56334 0.2085 0.0
H518 H 0.17694 0.5336 0.22236 0.0
H519 H 0.1976 0.56599 0.27091 0.0
H520 H 0.20173 0.59593 0.25674 0.0
H521 H 0.19633 0.62289 0.18785 0.0
H522 H 0.15353 0.57561 0.21942 0.0
O523 O 0.21695 0.61142 0.20963 0.0
H524 H 0.17038 0.61787 0.16728 0.0
H525 H 0.12756 0.57031 0.19875 0.0
C526 C 0.19834 0.62435 0.23346 0.0
C527 C 0.21223 0.64381 0.22889 0.0
C528 C 0.21192 0.65999 0.23655 0.0
C529 C 0.1976 0.65705 0.2489 0.0
C530 C 0.18402 0.63752 0.25385 0.0
C531 C 0.18428 0.62129 0.24605 0.0
C532 C 0.19095 0.58171 0.2317 0.0
C533 C 0.18411 0.56396 0.22223 0.0
C534 C 0.18192 0.54692 0.23019 0.0
C535 C 0.1868 0.54728 0.24783 0.0
C536 C 0.19377 0.56517 0.2573 0.0
C537 C 0.19593 0.58227 0.24927 0.0
C538 C 0.17695 0.59915 0.20481 0.0
C539 C 0.18138 0.61124 0.19022 0.0
C540 C 0.16653 0.6085 0.17858 0.0
C541 C 0.14698 0.59361 0.18137 0.0
C542 C 0.14255 0.58169 0.19615 0.0
C543 C 0.15739 0.58464 0.20791 0.0
P544 P 0.46459 0.55855 0.26977 0.0
H545 H 0.50342 0.58747 0.28254 0.0
H546 H 0.52 0.62332 0.28713 0.0
H547 H 0.46794 0.62368 0.26953 0.0
H548 H 0.4514 0.58758 0.26477 0.0
H549 H 0.43257 0.52079 0.2567 0.0
H550 H 0.39841 0.50024 0.2653 0.0
H551 H 0.4055 0.54539 0.30246 0.0
H552 H 0.43991 0.56557 0.29412 0.0
H553 H 0.49707 0.55616 0.25424 0.0
H554 H 0.44473 0.55565 0.2366 0.0
O555 O 0.475 0.54935 0.28279 0.0
H556 H 0.50543 0.55319 0.22433 0.0
H557 H 0.45255 0.55191 0.20656 0.0
C558 C 0.47599 0.58481 0.27385 0.0
C559 C 0.49549 0.5952 0.2798 0.0
C560 C 0.50502 0.61573 0.28225 0.0
C561 C 0.49525 0.6263 0.2787 0.0
C562 C 0.47573 0.61587 0.27254 0.0
C563 C 0.46627 0.59528 0.26989 0.0
C564 C 0.43863 0.54506 0.27428 0.0
C565 C 0.42666 0.5265 0.26639 0.0
C566 C 0.40706 0.51474 0.27134 0.0
C567 C 0.39907 0.5212 0.28449 0.0
C568 C 0.41115 0.53989 0.29234 0.0
C569 C 0.43079 0.5516 0.28741 0.0
C570 C 0.46997 0.55548 0.24765 0.0
C571 C 0.48719 0.55507 0.24391 0.0
C572 C 0.49193 0.55333 0.22677 0.0
C573 C 0.47956 0.55206 0.21299 0.0
C574 C 0.46249 0.55296 0.21681 0.0
C575 C 0.45785 0.55485 0.23399 0.0
O576 O 0.46422 0.97768 0.00795 0.0
Mn577 Mn 0.49302 -0.0001 0.003 0.0
O578 O 0.45086 0.99122 0.02527 0.0
Mn579 Mn 0.47331 0.01603 0.02832 0.0
O580 O 0.5221 0.0221 0.99832 0.0
O581 O 0.49938 0.97851 0.99702 0.0
Mn582 Mn 0.51275 0.98423 0.97757 0.0
O583 O 0.48558 0.00155 0.97715 0.0
O584 O 0.53576 0.00795 0.98214 0.0
O585 O 0.50033 0.99854 0.029 0.0
O586 O 0.49078 0.01669 0.04486 0.0
O587 O 0.50942 0.9601 0.98455 0.0
O588 O 0.49673 0.98543 0.96054 0.0
C589 C 0.48417 0.03622 0.00686 0.0
C590 C 0.44983 0.97647 0.01685 0.0
C591 C 0.5369 0.02277 0.99049 0.0
C592 C 0.50024 0.96237 0.9975 0.0
C593 C 0.48731 0.99471 0.96241 0.0
C594 C 0.49956 0.00672 0.04336 0.0
O595 O 0.48622 0.02091 0.00871 0.0
O596 O 0.47491 0.03891 0.01948 0.0
O597 O 0.01509 0.49391 0.01231 0.0
Mn598 Mn -6e-05 0.50892 0.00819 0.0
O599 O 0.0035 0.47749 0.03749 0.0
Mn600 Mn 0.98426 0.4844 0.04218 0.0
O601 O 0.98462 0.52388 0.00415 0.0
O602 O 0.02256 0.52965 0.995 0.0
Mn603 Mn 0.01585 0.53465 0.97477 0.0
O604 O 0.98738 0.49238 0.98539 0.0
O605 O 0.99769 0.54267 0.98037 0.0
O606 O 0.01265 0.52556 0.03096 0.0
O607 O 0.9937 0.50864 0.05346 0.0
O608 O 0.04279 0.55198 0.97767 0.0
O609 O 0.00538 0.51066 0.96289 0.0
C610 C 0.96035 0.47293 0.02341 0.0
C611 C 0.01504 0.48262 0.02441 0.0
C612 C 0.98544 0.5364 0.99292 0.0
C613 C 0.04022 0.54379 0.99267 0.0
C614 C 0.99189 0.49447 0.9692 0.0
C615 C 0.0079 0.52427 0.04707 0.0
O616 O 0.97745 0.48819 0.02148 0.0
O617 O 0.95775 0.46558 0.03878 0.0
O618 O 0.52333 0.5061 0.99657 0.0
Mn619 Mn 0.49309 0.49437 -0.00011 0.0
O620 O 0.53342 0.53186 0.97843 0.0
Mn621 Mn 0.50865 0.52787 0.973 0.0
O622 O 0.46298 0.4827 0.00336 0.0
O623 O 0.49075 0.46857 0.00688 0.0
Mn624 Mn 0.47767 0.45982 0.0263 0.0
O625 O 0.49813 0.50484 0.02574 0.0
O626 O 0.45318 0.45725 0.02187 0.0
O627 O 0.48777 0.48333 0.97439 0.0
O628 O 0.49489 0.50844 0.95639 0.0
O629 O 0.48314 0.44049 0.01834 0.0
O630 O 0.49287 0.47914 0.04262 0.0
C631 C 0.49398 0.53615 0.99174 0.0
C632 C 0.53691 0.52079 0.9882 0.0
C633 C 0.44962 0.46836 0.01219 0.0
C634 C 0.49122 0.4523 0.00545 0.0
C635 C 0.49861 0.49748 0.04054 0.0
C636 C 0.48831 0.49008 0.95913 0.0
O637 O 0.49522 0.5202 0.99248 0.0
O638 O 0.50199 0.54687 0.9782 0.0
O639 O 0.13496 0.31714 0.33841 0.0
Mn640 Mn 0.16425 0.3387 0.33429 0.0
O641 O 0.12125 0.33142 0.35428 0.0
Mn642 Mn 0.14433 0.35532 0.35858 0.0
O643 O 0.19365 0.36013 0.33019 0.0
O644 O 0.17014 0.31693 0.32916 0.0
Mn645 Mn 0.18348 0.32134 0.30986 0.0
O646 O 0.15789 0.34036 0.30807 0.0
O647 O 0.20649 0.34537 0.31371 0.0
O648 O 0.17049 0.33686 0.36046 0.0
O649 O 0.15999 0.35429 0.37608 0.0
O650 O 0.18046 0.29791 0.31874 0.0
O651 O 0.16716 0.32172 0.29269 0.0
C652 C 0.15752 0.37658 0.33819 0.0
C653 C 0.12017 0.31649 0.34618 0.0
C654 C 0.20811 0.36037 0.32212 0.0
C655 C 0.17133 0.30115 0.33115 0.0
C656 C 0.15885 0.33217 0.29378 0.0
C657 C 0.16875 0.34426 0.37489 0.0
O658 O 0.15831 0.36048 0.33951 0.0
O659 O 0.14794 0.37926 0.35054 0.0
O660 O 0.68413 0.82797 0.34159 0.0
Mn661 Mn 0.66784 0.84189 0.33751 0.0
O662 O 0.6721 0.81015 0.36605 0.0
Mn663 Mn 0.65295 0.81694 0.37122 0.0
O664 O 0.65143 0.85572 0.33367 0.0
O665 O 0.69006 0.86329 0.32445 0.0
Mn666 Mn 0.68291 0.86816 0.30438 0.0
O667 O 0.65594 0.82533 0.31447 0.0
O668 O 0.66341 0.87438 0.30973 0.0
O669 O 0.68021 0.8586 0.36026 0.0
O670 O 0.66253 0.84092 0.383 0.0
O671 O 0.70929 0.88715 0.30787 0.0
O672 O 0.67407 0.84449 0.29236 0.0
C673 C 0.6283 0.80585 0.35342 0.0
C674 C 0.68413 0.81631 0.35332 0.0
C675 C 0.65132 0.86769 0.32235 0.0
C676 C 0.70719 0.87852 0.32259 0.0
C677 C 0.66091 0.8279 0.29836 0.0
C678 C 0.6762 0.85688 0.37656 0.0
O679 O 0.64558 0.82058 0.35069 0.0
O680 O 0.62632 0.79845 0.36873 0.0
O681 O 0.18959 0.8401 0.33093 0.0
Mn682 Mn 0.15986 0.82869 0.33624 0.0
O683 O 0.19697 0.8618 0.30918 0.0
Mn684 Mn 0.17169 0.8574 0.30548 0.0
O685 O 0.13018 0.81731 0.34162 0.0
O686 O 0.15867 0.80424 0.34575 0.0
Mn687 Mn 0.148 0.79874 0.36644 0.0
O688 O 0.16718 0.84286 0.36075 0.0
O689 O 0.12306 0.79564 0.36341 0.0
O690 O 0.15234 0.81394 0.3122 0.0
O691 O 0.15601 0.83555 0.29158 0.0
O692 O 0.15277 0.77842 0.36038 0.0
O693 O 0.16495 0.82029 0.38005 0.0
C694 C 0.15969 0.86895 0.32409 0.0
C695 C 0.20183 0.85275 0.32015 0.0
C696 C 0.11814 0.80478 0.35258 0.0
C697 C 0.15915 0.78792 0.346 0.0
C698 C 0.16974 0.83799 0.37608 0.0
C699 C 0.15073 0.81799 0.29638 0.0
O700 O 0.16092 0.85312 0.32625 0.0
O701 O 0.16578 0.87726 0.30918 0.0
O702 O 0.79892 0.64265 0.67449 0.0
Mn703 Mn 0.82786 0.66458 0.66934 0.0
O704 O 0.78564 0.65661 0.69137 0.0
Mn705 Mn 0.80883 0.68044 0.6955 0.0
O706 O 0.85683 0.68634 0.6641 0.0
O707 O 0.83394 0.64328 0.66294 0.0
Mn708 Mn 0.84557 0.64769 0.64272 0.0
O709 O 0.81994 0.66645 0.64366 0.0
O710 O 0.86834 0.67229 0.64524 0.0
O711 O 0.83572 0.66258 0.69496 0.0
O712 O 0.82523 0.67899 0.71201 0.0
O713 O 0.84432 0.62489 0.65134 0.0
O714 O 0.82735 0.64712 0.62713 0.0
C715 C 0.8213 0.70227 0.67542 0.0
C716 C 0.78439 0.64178 0.68293 0.0
C717 C 0.87051 0.68705 0.65443 0.0
C718 C 0.83604 0.62799 0.66454 0.0
C719 C 0.81942 0.65782 0.62918 0.0
C720 C 0.83435 0.66944 0.70983 0.0
O721 O 0.82188 0.68601 0.67589 0.0
O722 O 0.81238 0.70473 0.68848 0.0
O723 O 0.34844 0.15889 0.67822 0.0
Mn724 Mn 0.33018 0.17088 0.67496 0.0
O725 O 0.33578 0.13726 0.70026 0.0
Mn726 Mn 0.31559 0.14216 0.70622 0.0
O727 O 0.3118 0.18273 0.67181 0.0
O728 O 0.35218 0.19451 0.66375 0.0
Mn729 Mn 0.34505 0.20065 0.64425 0.0
O730 O 0.32057 0.1562 0.65076 0.0
O731 O 0.3246 0.20507 0.65033 0.0
O732 O 0.34007 0.18593 0.69888 0.0
O733 O 0.32342 0.16446 0.72005 0.0
O734 O 0.37092 0.22022 0.64866 0.0
O735 O 0.33794 0.17863 0.63022 0.0
C736 C 0.29113 0.13193 0.68847 0.0
C737 C 0.34863 0.14602 0.68846 0.0
C738 C 0.31168 0.19591 0.66197 0.0
C739 C 0.369 0.21039 0.66266 0.0
C740 C 0.32592 0.16094 0.63489 0.0
C741 C 0.3356 0.18191 0.71498 0.0
O742 O 0.30817 0.14731 0.68635 0.0
O743 O 0.28936 0.12302 0.70299 0.0
O744 O 0.85687 0.17458 0.66625 0.0
Mn745 Mn 0.82686 0.15984 0.67116 0.0
O746 O 0.86154 0.19372 0.64287 0.0
Mn747 Mn 0.83527 0.18596 0.63828 0.0
O748 O 0.79683 0.1451 0.6761 0.0
O749 O 0.82913 0.13852 0.68334 0.0
Mn750 Mn 0.81864 0.13385 0.70405 0.0
O751 O 0.83177 0.17614 0.69436 0.0
O752 O 0.79242 0.12654 0.69984 0.0
O753 O 0.82231 0.14378 0.64793 0.0
O754 O 0.8216 0.16227 0.62598 0.0
O755 O 0.82743 0.11591 0.70035 0.0
O756 O 0.83297 0.15761 0.71606 0.0
C757 C 0.82114 0.19543 0.65705 0.0
C758 C 0.86802 0.18714 0.65486 0.0
C759 C 0.78581 0.13291 0.68778 0.0
C760 C 0.83233 0.12397 0.68525 0.0
C761 C 0.83504 0.17385 0.71033 0.0
C762 C 0.81979 0.14617 0.6318 0.0
O763 O 0.82447 0.18098 0.65889 0.0
O764 O 0.82612 0.20362 0.642 0.0
H765 H 0.30132 0.83473 0.0874 0.0
H766 H 0.32632 0.86348 0.07173 0.0
H767 H 0.34553 0.82649 0.04653 0.0
H768 H 0.32091 0.79775 0.06248 0.0
H769 H 0.37619 0.86127 0.06095 0.0
H770 H 0.3278 0.8778 0.02052 0.0
H771 H 0.32213 0.87575 0.04323 0.0
H772 H 0.31901 0.85438 0.0313 0.0
C773 C 0.31084 0.83269 0.0785 0.0
C774 C 0.30906 0.8139 0.07618 0.0
C775 C 0.32499 0.8491 0.06941 0.0
C776 C 0.33761 0.84708 0.05775 0.0
C777 C 0.33583 0.82836 0.05534 0.0
H778 H 0.44343 0.93985 0.00608 0.0
H779 H 0.41574 0.90735 0.0136 0.0
C780 C 0.32165 0.81192 0.06439 0.0
C781 C 0.35337 0.86473 0.04887 0.0
H782 H 0.3616 0.90303 0.02235 0.0
C783 C 0.37303 0.87029 0.05232 0.0
C784 C 0.3492 0.87643 0.03762 0.0
C785 C 0.32839 0.87072 0.03279 0.0
C786 C 0.38864 0.88772 0.04547 0.0
C787 C 0.38447 0.89971 0.03454 0.0
C788 C 0.3648 0.89384 0.03071 0.0
C789 C 0.40023 0.91916 0.0281 0.0
C790 C 0.40942 0.89359 0.05067 0.0
C791 C 0.40022 0.93657 0.03294 0.0
C792 C 0.41585 0.95514 0.02848 0.0
C793 C 0.4319 0.95675 0.01904 0.0
C794 C 0.43137 0.93922 0.01338 0.0
C795 C 0.41564 0.9206 0.01783 0.0
H796 H 0.40983 0.88524 0.06213 0.0
H797 H 0.4166 0.89035 0.03974 0.0
H798 H 0.41815 0.90971 0.05373 0.0
H799 H 0.38843 0.93584 0.04076 0.0
H800 H 0.41563 0.96825 0.03299 0.0
H801 H 0.1214 0.3983 0.01649 0.0
H802 H 0.0989 0.41026 0.00956 0.0
H803 H 0.13496 0.46377 0.03932 0.0
H804 H 0.15835 0.45263 0.04523 0.0
H805 H 0.07731 0.41608 0.03142 0.0
H806 H 0.12364 0.48697 0.99815 0.0
H807 H 0.13175 0.46934 0.00194 0.0
H808 H 0.13413 0.4867 0.01875 0.0
C809 C 0.12498 0.41293 0.02109 0.0
C810 C 0.14177 0.42447 0.03146 0.0
C811 C 0.11194 0.41966 0.01723 0.0
C812 C 0.11529 0.43801 0.02375 0.0
C813 C 0.13225 0.44977 0.03378 0.0
H814 H 0.0268 0.46726 0.05048 0.0
H815 H 0.05072 0.45608 0.04897 0.0
C816 C 0.14546 0.44319 0.03742 0.0
C817 C 0.10016 0.44392 0.0215 0.0
H818 H 0.09359 0.48265 0.01059 0.0
C819 C 0.08084 0.43054 0.02663 0.0
C820 C 0.10462 0.46266 0.01499 0.0
C821 C 0.12462 0.47713 0.00797 0.0
C822 C 0.06607 0.43562 0.02602 0.0
C823 C 0.07088 0.45488 0.02072 0.0
C824 C 0.08998 0.468 0.01494 0.0
C825 C 0.05646 0.46186 0.02155 0.0
C826 C 0.04545 0.4202 0.03099 0.0
C827 C 0.05225 0.46955 0.00679 0.0
C828 C 0.03879 0.47631 0.00768 0.0
C829 C 0.02924 0.47541 0.02335 0.0
C830 C 0.03364 0.46786 0.03814 0.0
C831 C 0.04725 0.46136 0.03728 0.0
H832 H 0.04287 0.40493 0.02893 0.0
H833 H 0.04327 0.42194 0.04499 0.0
H834 H 0.03429 0.4218 0.0234 0.0
H835 H 0.05929 0.47021 0.99454 0.0
H836 H 0.03577 0.48208 0.99605 0.0
H837 H 0.50609 0.68839 0.04082 0.0
H838 H 0.50041 0.6559 0.0318 0.0
H839 H 0.46944 0.63076 0.07935 0.0
H840 H 0.47407 0.66313 0.08812 0.0
H841 H 0.51442 0.63519 0.04815 0.0
H842 H 0.433 0.58996 0.04397 0.0
H843 H 0.44587 0.61671 0.04539 0.0
H844 H 0.44261 0.6023 0.06447 0.0
C845 C 0.49751 0.67591 0.04918 0.0
C846 C 0.49048 0.67852 0.06521 0.0
C847 C 0.49447 0.65732 0.04406 0.0
C848 C 0.48441 0.64081 0.05483 0.0
C849 C 0.47698 0.64317 0.07068 0.0
H850 H 0.50426 0.54262 0.02589 0.0
H851 H 0.49886 0.56434 0.04569 0.0
C852 C 0.47986 0.66179 0.07576 0.0
C853 C 0.48298 0.62163 0.04976 0.0
H854 H 0.4507 0.5733 0.03871 0.0
C855 C 0.50048 0.6216 0.04621 0.0
C856 C 0.46479 0.60391 0.04726 0.0
C857 C 0.44546 0.60314 0.05032 0.0
C858 C 0.50035 0.6047 0.03953 0.0
C859 C 0.48215 0.58698 0.03683 0.0
C860 C 0.46463 0.58677 0.04099 0.0
C861 C 0.48102 0.56964 0.02742 0.0
C862 C 0.51971 0.60643 0.03446 0.0
C863 C 0.47139 0.56399 0.01126 0.0
C864 C 0.47391 0.55106 0.00029 0.0
C865 C 0.48595 0.54341 0.00533 0.0
C866 C 0.49426 0.54769 0.02203 0.0
C867 C 0.49157 0.5605 0.03315 0.0
H868 H 0.53177 0.62213 0.03401 0.0
H869 H 0.52387 0.59869 0.04415 0.0
H870 H 0.51854 0.59948 0.02153 0.0
H871 H 0.46317 0.57079 0.00652 0.0
H872 H 0.46765 0.54825 0.98731 0.0
H873 H 0.84403 0.32169 0.92673 0.0
H874 H 0.86792 0.35624 0.93433 0.0
H875 H 0.85055 0.34479 0.9879 0.0
H876 H 0.82642 0.31039 0.98044 0.0
H877 H 0.86376 0.38794 0.95457 0.0
H878 H 0.91116 0.36224 0.98502 0.0
H879 H 0.8919 0.34726 0.96959 0.0
H880 H 0.8859 0.34931 0.99171 0.0
C881 C 0.84495 0.32664 0.94006 0.0
C882 C 0.83344 0.31322 0.95302 0.0
C883 C 0.85866 0.34636 0.94437 0.0
C884 C 0.86109 0.35293 0.96167 0.0
C885 C 0.84898 0.33988 0.97448 0.0
H886 H 0.92165 0.46085 0.01956 0.0
H887 H 0.89821 0.43376 0.00064 0.0
C888 C 0.83529 0.32022 0.97021 0.0
C889 C 0.87725 0.37287 0.96673 0.0
H890 H 0.9196 0.39556 0.99061 0.0
C891 C 0.87611 0.38972 0.9623 0.0
C892 C 0.89349 0.37511 0.97648 0.0
C893 C 0.89588 0.35757 0.98089 0.0
C894 C 0.89041 0.40875 0.96817 0.0
C895 C 0.90607 0.41084 0.9788 0.0
C896 C 0.9076 0.39402 0.98249 0.0
C897 C 0.92035 0.42987 0.98737 0.0
C898 C 0.88851 0.42637 0.96304 0.0
C899 C 0.9406 0.43685 0.98615 0.0
C900 C 0.95393 0.45227 0.99696 0.0
C901 C 0.94727 0.46111 0.00907 0.0
C902 C 0.92714 0.45471 0.00986 0.0
C903 C 0.91377 0.43927 0.99903 0.0
H904 H 0.88065 0.42364 0.95041 0.0
H905 H 0.87983 0.42895 0.973 0.0
H906 H 0.9031 0.44002 0.96206 0.0
H907 H 0.94599 0.42965 0.97745 0.0
H908 H 0.96925 0.45624 0.99674 0.0
H909 H 0.72059 0.56466 0.99176 0.0
H910 H 0.68623 0.55051 0.00036 0.0
H911 H 0.66985 0.55205 0.94719 0.0
H912 H 0.70413 0.56651 0.93851 0.0
H913 H 0.66429 0.56946 0.99593 0.0
H914 H 0.62828 0.49613 0.9626 0.0
H915 H 0.65452 0.51041 0.96634 0.0
H916 H 0.64353 0.51625 0.94852 0.0
C917 C 0.70967 0.5619 0.98187 0.0
C918 C 0.71517 0.56681 0.96444 0.0
C919 C 0.69002 0.55369 0.9868 0.0
C920 C 0.67546 0.55001 0.97439 0.0
C921 C 0.68078 0.55435 0.95693 0.0
H922 H 0.56934 0.55126 0.97331 0.0
H923 H 0.6027 0.5569 0.97295 0.0
C924 C 0.70042 0.56262 0.95198 0.0
C925 C 0.65503 0.54343 0.97983 0.0
H926 H 0.60712 0.50856 0.97168 0.0
C927 C 0.65181 0.55596 0.99087 0.0
C928 C 0.63877 0.52573 0.97338 0.0
C929 C 0.64141 0.51124 0.96218 0.0
C930 C 0.63271 0.55183 0.99481 0.0
C931 C 0.61647 0.5348 0.98745 0.0
C932 C 0.61964 0.52167 0.97722 0.0
C933 C 0.59629 0.53156 0.98872 0.0
C934 C 0.63001 0.56599 0.00641 0.0
C935 C 0.58158 0.5154 0.99776 0.0
C936 C 0.56236 0.51217 0.99815 0.0
C937 C 0.55748 0.52482 0.98918 0.0
C938 C 0.57243 0.54113 0.98034 0.0
C939 C 0.59159 0.54444 0.98013 0.0
H940 H 0.64332 0.57532 0.01447 0.0
H941 H 0.62717 0.57598 0.99826 0.0
H942 H 0.61723 0.55781 0.0151 0.0
H943 H 0.58498 0.50529 0.00446 0.0
H944 H 0.55132 0.49963 0.00527 0.0
H945 H 0.48098 0.16715 0.91095 0.0
H946 H 0.47745 0.13668 0.92326 0.0
H947 H 0.53406 0.17036 0.94832 0.0
H948 H 0.53796 0.2009 0.9357 0.0
H949 H 0.52754 0.1344 0.93124 0.0
H950 H 0.46616 0.12165 0.97483 0.0
H951 H 0.46245 0.12503 0.95238 0.0
H952 H 0.48165 0.14521 0.96464 0.0
C953 C 0.49275 0.1681 0.919 0.0
C954 C 0.50972 0.18654 0.92239 0.0
C955 C 0.49064 0.15066 0.92613 0.0
C956 C 0.5054 0.15125 0.93685 0.0
C957 C 0.52245 0.16956 0.94012 0.0
H958 H 0.51973 0.0684 0.00049 0.0
H959 H 0.52597 0.09537 0.98069 0.0
C960 C 0.52456 0.18704 0.93304 0.0
C961 C 0.50291 0.13282 0.94487 0.0
H962 H 0.47457 0.09653 0.97351 0.0
C963 C 0.51597 0.12609 0.94049 0.0
C964 C 0.48779 0.12198 0.9569 0.0
C965 C 0.47379 0.12886 0.96262 0.0
C966 C 0.51415 0.10868 0.94769 0.0
C967 C 0.49909 0.09793 0.95982 0.0
C968 C 0.48601 0.10466 0.9641 0.0
C969 C 0.49695 0.08016 0.96893 0.0
C970 C 0.52814 0.10178 0.94206 0.0
C971 C 0.47875 0.06242 0.96869 0.0
C972 C 0.47525 0.04705 0.98 0.0
C973 C 0.48994 0.04901 0.99157 0.0
C974 C 0.50849 0.06622 0.99115 0.0
C975 C 0.512 0.08168 0.97989 0.0
H976 H 0.53479 0.108 0.92928 0.0
H977 H 0.54023 0.10687 0.95175 0.0
H978 H 0.52059 0.08533 0.94118 0.0
H979 H 0.46687 0.06092 0.96045 0.0
H980 H 0.46066 0.03413 0.98046 0.0
H981 H 0.69094 0.16009 0.92927 0.0
H982 H 0.65864 0.13579 0.94023 0.0
H983 H 0.67719 0.15874 0.99223 0.0
H984 H 0.70979 0.18268 0.98145 0.0
H985 H 0.66023 0.11863 0.99067 0.0
H986 H 0.61261 0.1413 0.95675 0.0
H987 H 0.62827 0.13773 0.94204 0.0
H988 H 0.63896 0.15713 0.95829 0.0
C989 C 0.68814 0.16004 0.94304 0.0
C990 C 0.703 0.17335 0.95447 0.0
C991 C 0.66957 0.1463 0.94926 0.0
C992 C 0.66536 0.14564 0.96702 0.0
C993 C 0.68004 0.1591 0.97845 0.0
H994 H 0.5454 0.05994 0.00191 0.0
H995 H 0.5766 0.09125 0.99895 0.0
C996 C 0.69864 0.17287 0.97224 0.0
C997 C 0.64623 0.12984 0.97377 0.0
H998 H 0.59656 0.10793 0.9677 0.0
C999 C 0.6463 0.11649 0.98585 0.0
C1000 C 0.62802 0.1272 0.96773 0.0
C1001 C 0.62692 0.14173 0.95562 0.0
C1002 C 0.62874 0.09996 0.99128 0.0
C1003 C 0.61064 0.09652 0.98425 0.0
C1004 C 0.61046 0.11047 0.97295 0.0
C1005 C 0.59203 0.07766 0.98716 0.0
C1006 C 0.62977 0.08611 0.00428 0.0
C1007 C 0.59036 0.05971 0.98149 0.0
C1008 C 0.57264 0.04193 0.98307 0.0
C1009 C 0.55605 0.04164 0.99029 0.0
C1010 C 0.55784 0.05962 0.99627 0.0
C1011 C 0.57565 0.07751 0.99458 0.0
H1012 H 0.64331 0.09385 0.0124 0.0
H1013 H 0.61678 0.07968 0.01292 0.0
H1014 H 0.63009 0.07378 0.99723 0.0
H1015 H 0.60268 0.0595 0.97542 0.0
H1016 H 0.57191 0.02844 0.9783 0.0
H1017 H 0.87902 0.60718 0.95335 0.0
H1018 H 0.90207 0.59656 0.96244 0.0
H1019 H 0.86055 0.55787 0.00029 0.0
H1020 H 0.83733 0.56856 0.99132 0.0
H1021 H 0.9185 0.59924 0.99583 0.0
H1022 H 0.87422 0.52108 0.97213 0.0
H1023 H 0.86915 0.54025 0.96544 0.0
H1024 H 0.86214 0.52972 0.98665 0.0
C1025 C 0.87483 0.59656 0.96374 0.0
C1026 C 0.85635 0.58875 0.97165 0.0
C1027 C 0.88799 0.59045 0.96885 0.0
C1028 C 0.88294 0.57632 0.98192 0.0
C1029 C 0.86459 0.56856 0.98998 0.0
H1030 H 0.95291 0.52225 0.01367 0.0
H1031 H 0.92791 0.53227 0.01378 0.0
C1032 C 0.85136 0.57467 0.98484 0.0
C1033 C 0.89707 0.56989 0.98694 0.0
H1034 H 0.905 0.53061 0.98479 0.0
C1035 C 0.9155 0.58419 0.99357 0.0
C1036 C 0.89304 0.55022 0.98406 0.0
C1037 C 0.87364 0.5344 0.97657 0.0
C1038 C 0.93022 0.57948 0.99699 0.0
C1039 C 0.92648 0.56003 0.99343 0.0
C1040 C 0.90779 0.54551 0.98748 0.0
C1041 C 0.94222 0.55489 0.99437 0.0
C1042 C 0.94973 0.5954 0.0042 0.0
C1043 C 0.9585 0.56428 0.9834 0.0
C1044 C 0.97276 0.5586 0.98326 0.0
C1045 C 0.97101 0.54333 0.99406 0.0
C1046 C 0.9548 0.53415 0.00526 0.0
C1047 C 0.94047 0.5398 0.00532 0.0
H1048 H 0.94831 0.60727 0.01101 0.0
H1049 H 0.95605 0.5891 0.01336 0.0
H1050 H 0.96018 0.60232 0.99336 0.0
H1051 H 0.95992 0.57569 0.9746 0.0
H1052 H 0.98499 0.56599 0.97444 0.0
H1053 H 0.54403 0.35329 0.90413 0.0
H1054 H 0.54334 0.38215 0.91602 0.0
H1055 H 0.51245 0.34841 0.96092 0.0
H1056 H 0.51373 0.31967 0.94945 0.0
H1057 H 0.51164 0.38565 0.92288 0.0
H1058 H 0.55489 0.39929 0.98332 0.0
H1059 H 0.55472 0.38334 0.96607 0.0
H1060 H 0.53512 0.37412 0.98161 0.0
C1061 C 0.53747 0.3521 0.91673 0.0
C1062 C 0.52906 0.33414 0.92589 0.0
C1063 C 0.53698 0.36861 0.92345 0.0
C1064 C 0.52816 0.3676 0.93951 0.0
C1065 C 0.51976 0.34973 0.9487 0.0
H1066 H 0.46927 0.41959 0.98611 0.0
H1067 H 0.48107 0.40314 0.96637 0.0
C1068 C 0.52027 0.3332 0.942 0.0
C1069 C 0.52652 0.38475 0.9461 0.0
H1070 H 0.53405 0.4138 0.98207 0.0
C1071 C 0.51684 0.39201 0.93572 0.0
C1072 C 0.53364 0.39341 0.96269 0.0
C1073 C 0.54536 0.38729 0.97399 0.0
C1074 C 0.51299 0.40674 0.94193 0.0
C1075 C 0.51874 0.41429 0.95902 0.0
C1076 C 0.52952 0.40795 0.96899 0.0
C1077 C 0.51148 0.42654 0.96765 0.0
C1078 C 0.50243 0.41383 0.93029 0.0
C1079 C 0.52455 0.44553 0.97449 0.0
C1080 C 0.51768 0.45519 0.98552 0.0
C1081 C 0.49778 0.44575 0.99013 0.0
C1082 C 0.48465 0.42727 0.98255 0.0
C1083 C 0.49138 0.41786 0.97128 0.0
H1084 H 0.50443 0.41149 0.91636 0.0
H1085 H 0.48647 0.40533 0.93309 0.0
H1086 H 0.50783 0.42982 0.93265 0.0
H1087 H 0.54015 0.45242 0.97198 0.0
H1088 H 0.5281 0.46923 0.99149 0.0
H1089 H 0.20347 0.66204 0.06765 0.0
H1090 H 0.17486 0.63453 0.05313 0.0
H1091 H 0.13651 0.64956 0.08111 0.0
H1092 H 0.16503 0.67727 0.09539 0.0
H1093 H 0.14152 0.60138 0.06543 0.0
H1094 H 0.12163 0.65125 0.03098 0.0
H1095 H 0.14483 0.66037 0.04216 0.0
H1096 H 0.12298 0.65452 0.05413 0.0
C1097 C 0.18892 0.65939 0.07075 0.0
C1098 C 0.18648 0.67195 0.08245 0.0
C1099 C 0.17261 0.64369 0.06246 0.0
C1100 C 0.1536 0.64026 0.06579 0.0
C1101 C 0.15109 0.65228 0.078 0.0
H1102 H 0.03854 0.56349 0.02094 0.0
H1103 H 0.06594 0.58527 0.04024 0.0
C1104 C 0.16738 0.66809 0.08615 0.0
C1105 C 0.13646 0.62448 0.05613 0.0
H1106 H 0.09894 0.61684 0.02892 0.0
C1107 C 0.13224 0.60473 0.05737 0.0
C1108 C 0.1244 0.62891 0.04562 0.0
C1109 C 0.12876 0.64992 0.04297 0.0
C1110 C 0.11597 0.58922 0.04866 0.0
C1111 C 0.10383 0.59367 0.03829 0.0
C1112 C 0.10815 0.61343 0.03701 0.0
C1113 C 0.08671 0.57829 0.02833 0.0
C1114 C 0.11154 0.56818 0.05115 0.0
C1115 C 0.08923 0.56697 0.01535 0.0
C1116 C 0.07356 0.55451 0.00437 0.0
C1117 C 0.05513 0.55298 0.0064 0.0
C1118 C 0.05246 0.56388 0.01961 0.0
C1119 C 0.06815 0.57649 0.03046 0.0
H1120 H 0.11831 0.56668 0.0633 0.0
H1121 H 0.09546 0.55769 0.05154 0.0
H1122 H 0.11768 0.56381 0.04011 0.0
H1123 H 0.10356 0.56859 0.01309 0.0
H1124 H 0.07604 0.54672 0.99383 0.0
H1125 H 0.28341 0.43372 0.06094 0.0
H1126 H 0.3176 0.44668 0.05235 0.0
H1127 H 0.29928 0.43265 0.99877 0.0
H1128 H 0.26501 0.41929 0.00737 0.0
H1129 H 0.32221 0.41847 0.00746 0.0
H1130 H 0.35805 0.49667 0.02963 0.0
H1131 H 0.34479 0.48009 0.04689 0.0
H1132 H 0.33167 0.48118 0.02811 0.0
C1133 C 0.28674 0.43379 0.0473 0.0
C1134 C 0.27156 0.42546 0.03483 0.0
C1135 C 0.3063 0.4413 0.04238 0.0
C1136 C 0.31109 0.44094 0.02487 0.0
C1137 C 0.29597 0.43316 0.01234 0.0
H1138 H 0.43554 0.4903 0.99611 0.0
H1139 H 0.40181 0.48445 0.99663 0.0
C1140 C 0.2764 0.42547 0.01727 0.0
C1141 C 0.33152 0.44678 0.01987 0.0
H1142 H 0.37949 0.48309 0.02518 0.0
C1143 C 0.33469 0.43274 0.0111 0.0
C1144 C 0.34785 0.46551 0.02432 0.0
C1145 C 0.3454 0.48179 0.03258 0.0
C1146 C 0.35372 0.43649 0.00748 0.0
C1147 C 0.37007 0.4546 0.01314 0.0
C1148 C 0.36694 0.4691 0.02106 0.0
C1149 C 0.39038 0.45802 0.01221 0.0
C1150 C 0.35612 0.42089 0.99782 0.0
C1151 C 0.39514 0.44523 0.02092 0.0
C1152 C 0.41425 0.44845 0.0206 0.0
C1153 C 0.42917 0.46469 0.01169 0.0
C1154 C 0.4244 0.47757 0.00298 0.0
C1155 C 0.40516 0.4743 0.00331 0.0
H1156 H 0.34304 0.41138 0.98957 0.0
H1157 H 0.36935 0.4277 0.98948 0.0
H1158 H 0.35774 0.41116 0.00732 0.0
H1159 H 0.38408 0.43285 0.02821 0.0
H1160 H 0.41732 0.43826 0.02756 0.0
H1161 H 0.50897 0.83953 0.10096 0.0
H1162 H 0.50262 0.86603 0.09249 0.0
H1163 H 0.47715 0.83533 0.04418 0.0
H1164 H 0.48381 0.80899 0.05233 0.0
H1165 H 0.51909 0.88905 0.06296 0.0
H1166 H 0.4379 0.85258 0.06038 0.0
H1167 H 0.45069 0.84238 0.07214 0.0
H1168 H 0.44751 0.83906 0.04899 0.0
C1169 C 0.50188 0.8383 0.08857 0.0
C1170 C 0.49704 0.82211 0.07728 0.0
C1171 C 0.49813 0.85342 0.08382 0.0
C1172 C 0.48921 0.85259 0.06779 0.0
C1173 C 0.48365 0.8361 0.05679 0.0
H1174 H 0.47721 0.92298 0.9929 0.0
H1175 H 0.47212 0.89729 0.01357 0.0
C1176 C 0.48748 0.82101 0.06148 0.0
C1177 C 0.48774 0.86988 0.06169 0.0
H1178 H 0.45571 0.8832 0.04501 0.0
C1179 C 0.50521 0.88793 0.05934 0.0
C1180 C 0.46962 0.86836 0.05698 0.0
C1181 C 0.45033 0.8496 0.05989 0.0
C1182 C 0.50522 0.90411 0.05137 0.0
C1183 C 0.48714 0.90238 0.04602 0.0
C1184 C 0.46956 0.8846 0.04916 0.0
C1185 C 0.48651 0.91772 0.03505 0.0
C1186 C 0.52475 0.92238 0.04773 0.0
C1187 C 0.49532 0.93772 0.04045 0.0
C1188 C 0.49833 0.95248 0.02851 0.0
C1189 C 0.49215 0.94736 0.0112 0.0
C1190 C 0.48188 0.92726 0.00626 0.0
C1191 C 0.47899 0.91257 0.01808 0.0
H1192 H 0.53727 0.91971 0.04953 0.0
H1193 H 0.52515 0.9275 0.03426 0.0
H1194 H 0.52694 0.9345 0.05679 0.0
H1195 H 0.50095 0.94205 0.05356 0.0
H1196 H 0.50691 0.96792 0.03241 0.0
H1197 H 0.98739 0.13649 0.38339 0.0
H1198 H 0.01213 0.16576 0.36815 0.0
H1199 H 0.99522 0.20251 0.397 0.0
H1200 H 0.96998 0.17322 0.41192 0.0
H1201 H 0.00182 0.21184 0.36128 0.0
H1202 H 0.06358 0.20712 0.39174 0.0
H1203 H 0.0458 0.18515 0.38031 0.0
H1204 H 0.03869 0.19318 0.39951 0.0
C1205 C 0.98868 0.15073 0.3863 0.0
C1206 C 0.97675 0.15249 0.39899 0.0
C1207 C 0.00299 0.16749 0.3777 0.0
C1208 C 0.00576 0.18636 0.38166 0.0
C1209 C 0.99343 0.1881 0.39384 0.0
H1210 H 0.08617 0.30883 0.36245 0.0
H1211 H 0.05765 0.27659 0.36831 0.0
C1212 C 0.9791 0.17136 0.40244 0.0
C1213 C 0.02189 0.2044 0.37359 0.0
H1214 H 0.07191 0.23266 0.37165 0.0
C1215 C 0.01715 0.21636 0.36347 0.0
C1216 C 0.04188 0.21024 0.37642 0.0
C1217 C 0.04789 0.19838 0.38769 0.0
C1218 C 0.03188 0.23408 0.3562 0.0
C1219 C 0.05187 0.24016 0.35938 0.0
C1220 C 0.05658 0.22794 0.36915 0.0
C1221 C 0.06815 0.25978 0.3539 0.0
C1222 C 0.0259 0.24611 0.34514 0.0
C1223 C 0.08363 0.26115 0.34381 0.0
C1224 C 0.10011 0.27966 0.34044 0.0
C1225 C 0.10155 0.29717 0.34733 0.0
C1226 C 0.08564 0.29574 0.35689 0.0
C1227 C 0.06919 0.27726 0.36019 0.0
H1228 H 0.011 0.2367 0.33942 0.0
H1229 H 0.02551 0.2577 0.35335 0.0
H1230 H 0.0365 0.25354 0.33448 0.0
H1231 H 0.08318 0.24784 0.33888 0.0
H1232 H 0.11199 0.28019 0.33296 0.0
H1233 H 0.79776 0.75647 0.39683 0.0
H1234 H 0.77728 0.7707 0.38921 0.0
H1235 H 0.79985 0.78065 0.33707 0.0
H1236 H 0.82049 0.76635 0.34462 0.0
H1237 H 0.78737 0.80805 0.37678 0.0
H1238 H 0.7402 0.74821 0.32953 0.0
H1239 H 0.75661 0.74582 0.34447 0.0
H1240 H 0.76618 0.76085 0.32551 0.0
C1241 C 0.7986 0.76193 0.3838 0.0
C1242 C 0.81074 0.76027 0.37132 0.0
C1243 C 0.78681 0.76997 0.37944 0.0
C1244 C 0.78686 0.77648 0.36252 0.0
C1245 C 0.79931 0.77534 0.35011 0.0
H1246 H 0.71228 0.8252 0.3284 0.0
H1247 H 0.73863 0.81699 0.32862 0.0
C1248 C 0.81109 0.7672 0.35444 0.0
C1249 C 0.77356 0.78414 0.35807 0.0
H1250 H 0.73223 0.7732 0.33473 0.0
C1251 C 0.77546 0.80058 0.36743 0.0
C1252 C 0.75803 0.77434 0.34585 0.0
C1253 C 0.75494 0.75623 0.33582 0.0
C1254 C 0.76188 0.8071 0.3653 0.0
C1255 C 0.74602 0.79687 0.35358 0.0
C1256 C 0.74452 0.78098 0.34366 0.0
C1257 C 0.72981 0.80123 0.35286 0.0
C1258 C 0.76418 0.82451 0.37596 0.0
C1259 C 0.71606 0.79475 0.36628 0.0
C1260 C 0.70097 0.79925 0.36617 0.0
C1261 C 0.69938 0.81041 0.35264 0.0
C1262 C 0.71305 0.81658 0.33901 0.0
C1263 C 0.72811 0.81194 0.3391 0.0
H1264 H 0.77899 0.83298 0.38208 0.0
H1265 H 0.76163 0.83468 0.36776 0.0
H1266 H 0.75303 0.81903 0.3864 0.0
H1267 H 0.71714 0.78637 0.37695 0.0
H1268 H 0.69077 0.79425 0.37689 0.0
H1269 H 0.1488 0.00427 0.41648 0.0
H1270 H 0.14313 0.97126 0.40859 0.0
H1271 H 0.1808 0.99581 0.36428 0.0
H1272 H 0.18755 0.02886 0.37258 0.0
H1273 H 0.12761 0.94733 0.38081 0.0
H1274 H 0.20537 0.96742 0.38729 0.0
H1275 H 0.19652 0.98352 0.39487 0.0
H1276 H 0.20285 0.98356 0.37238 0.0
C1277 C 0.15605 0.00271 0.40514 0.0
C1278 C 0.16881 0.01941 0.39529 0.0
C1279 C 0.15267 0.98377 0.40058 0.0
C1280 C 0.16194 0.98109 0.38609 0.0
C1281 C 0.17392 0.99754 0.37581 0.0
H1282 H 0.1359 0.8842 0.31963 0.0
H1283 H 0.13385 0.90855 0.33827 0.0
C1284 C 0.17748 0.01647 0.38043 0.0
C1285 C 0.15919 0.96122 0.38157 0.0
H1286 H 0.18479 0.93815 0.37012 0.0
C1287 C 0.14009 0.94522 0.37872 0.0
C1288 C 0.17538 0.95817 0.37939 0.0
C1289 C 0.19615 0.97404 0.38385 0.0
C1290 C 0.13687 0.9267 0.37265 0.0
C1291 C 0.1532 0.92429 0.36884 0.0
C1292 C 0.1722 0.93992 0.37278 0.0
C1293 C 0.15125 0.90666 0.35923 0.0
C1294 C 0.11598 0.91 0.37033 0.0
C1295 C 0.1617 0.8973 0.36465 0.0
C1296 C 0.16313 0.88353 0.35378 0.0
C1297 C 0.15391 0.87868 0.33745 0.0
C1298 C 0.14268 0.88727 0.33241 0.0
C1299 C 0.14141 0.90114 0.34314 0.0
H1300 H 0.10617 0.91124 0.38 0.0
H1301 H 0.11058 0.91091 0.35725 0.0
H1302 H 0.11483 0.89526 0.37165 0.0
H1303 H 0.16971 0.90149 0.37687 0.0
H1304 H 0.17277 0.87801 0.35754 0.0
H1305 H 0.48133 0.64778 0.29561 0.0
H1306 H 0.49984 0.68306 0.30387 0.0
H1307 H 0.5508 0.68891 0.2775 0.0
H1308 H 0.53238 0.65384 0.2691 0.0
H1309 H 0.5342 0.69805 0.32449 0.0
H1310 H 0.54982 0.73931 0.26284 0.0
H1311 H 0.52914 0.71457 0.26548 0.0
H1312 H 0.55326 0.71813 0.26201 0.0
C1313 C 0.49632 0.65674 0.29121 0.0
C1314 C 0.50546 0.64806 0.2818 0.0
C1315 C 0.50687 0.67685 0.29595 0.0
C1316 C 0.5266 0.68865 0.2911 0.0
C1317 C 0.53548 0.68019 0.28108 0.0
H1318 H 0.63209 0.78799 0.32467 0.0
H1319 H 0.60513 0.76186 0.30749 0.0
C1320 C 0.52501 0.6601 0.27647 0.0
C1321 C 0.53877 0.70896 0.29838 0.0
H1322 H 0.57067 0.75695 0.28718 0.0
C1323 C 0.54186 0.71102 0.31639 0.0
C1324 C 0.54876 0.72579 0.28774 0.0
C1325 C 0.545 0.72448 0.26845 0.0
C1326 C 0.55554 0.72924 0.32398 0.0
C1327 C 0.56618 0.74595 0.31328 0.0
C1328 C 0.56252 0.7441 0.29532 0.0
C1329 C 0.58234 0.76478 0.32054 0.0
C1330 C 0.55929 0.7302 0.3433 0.0
C1331 C 0.57851 0.77568 0.33299 0.0
C1332 C 0.59392 0.79062 0.34278 0.0
C1333 C 0.61335 0.79516 0.33994 0.0
C1334 C 0.6173 0.78525 0.32663 0.0
C1335 C 0.60188 0.7702 0.31694 0.0
H1336 H 0.55231 0.71523 0.34917 0.0
H1337 H 0.57531 0.7379 0.34613 0.0
H1338 H 0.55317 0.73875 0.34971 0.0
H1339 H 0.56352 0.77172 0.33594 0.0
H1340 H 0.59055 0.79778 0.35327 0.0
H1341 H 0.37282 0.90796 0.27231 0.0
H1342 H 0.33815 0.89338 0.27986 0.0
H1343 H 0.35068 0.88077 0.3312 0.0
H1344 H 0.38549 0.89553 0.32377 0.0
H1345 H 0.31031 0.8561 0.29107 0.0
H1346 H 0.32475 0.9138 0.34131 0.0
H1347 H 0.34323 0.91623 0.32611 0.0
H1348 H 0.33745 0.90024 0.34448 0.0
C1349 C 0.36816 0.90185 0.28513 0.0
C1350 C 0.38191 0.90303 0.29749 0.0
C1351 C 0.34835 0.89358 0.28945 0.0
C1352 C 0.34189 0.8863 0.30619 0.0
C1353 C 0.35543 0.88672 0.31835 0.0
H1354 H 0.21951 0.83838 0.34201 0.0
H1355 H 0.25325 0.84426 0.34034 0.0
C1356 C 0.37529 0.89512 0.31407 0.0
C1357 C 0.32109 0.87892 0.3109 0.0
H1358 H 0.29175 0.88931 0.3364 0.0
C1359 C 0.30626 0.86321 0.30112 0.0
C1360 C 0.31583 0.88825 0.32402 0.0
C1361 C 0.3311 0.90566 0.33452 0.0
C1362 C 0.28634 0.85697 0.30379 0.0
C1363 C 0.28119 0.86669 0.31651 0.0
C1364 C 0.29588 0.88184 0.32676 0.0
C1365 C 0.26089 0.86299 0.31782 0.0
C1366 C 0.27089 0.84045 0.29266 0.0
C1367 C 0.25427 0.87178 0.30583 0.0
C1368 C 0.23522 0.86866 0.3068 0.0
C1369 C 0.22231 0.85657 0.31979 0.0
C1370 C 0.22906 0.84781 0.33188 0.0
C1371 C 0.24828 0.85109 0.33095 0.0
H1372 H 0.27692 0.83238 0.28528 0.0
H1373 H 0.25855 0.82973 0.30081 0.0
H1374 H 0.26483 0.84677 0.28326 0.0
H1375 H 0.2639 0.88109 0.29567 0.0
H1376 H 0.23059 0.8756 0.29722 0.0
H1377 H 0.21205 0.5447 0.27108 0.0
H1378 H 0.20931 0.51476 0.2839 0.0
H1379 H 0.15523 0.47878 0.25559 0.0
H1380 H 0.15749 0.50862 0.24319 0.0
H1381 H 0.15259 0.46855 0.28976 0.0
H1382 H 0.2195 0.47328 0.26113 0.0
H1383 H 0.2239 0.49517 0.27291 0.0
H1384 H 0.20912 0.48795 0.25346 0.0
C1385 C 0.19948 0.53044 0.26767 0.0
C1386 C 0.18503 0.52913 0.25602 0.0
C1387 C 0.1981 0.51329 0.27482 0.0
C1388 C 0.18229 0.49445 0.27042 0.0
C1389 C 0.1677 0.49311 0.25902 0.0
H1390 H 0.13973 0.37431 0.30753 0.0
H1391 H 0.14716 0.40237 0.28861 0.0
C1392 C 0.16906 0.51022 0.25188 0.0
C1393 C 0.18039 0.47615 0.27829 0.0
H1394 H 0.20328 0.44881 0.28277 0.0
C1395 C 0.16361 0.46417 0.2881 0.0
C1396 C 0.1948 0.47045 0.27619 0.0
C1397 C 0.21277 0.48227 0.26522 0.0
C1398 C 0.161 0.44691 0.29617 0.0
C1399 C 0.17539 0.44117 0.29408 0.0
C1400 C 0.1922 0.45313 0.28426 0.0
C1401 C 0.17344 0.42326 0.30273 0.0
C1402 C 0.1431 0.43528 0.3073 0.0
C1403 C 0.18651 0.42532 0.31613 0.0
C1404 C 0.18246 0.40918 0.3267 0.0
C1405 C 0.16546 0.39071 0.32385 0.0
C1406 C 0.15321 0.38828 0.30966 0.0
C1407 C 0.1573 0.40437 0.29903 0.0
H1408 H 0.13598 0.44407 0.31081 0.0
H1409 H 0.13219 0.42185 0.30004 0.0
H1410 H 0.14702 0.43042 0.31944 0.0
H1411 H 0.19905 0.43973 0.31922 0.0
H1412 H 0.1918 0.41152 0.33788 0.0
H1413 H 0.38516 0.51554 0.31786 0.0
H1414 H 0.35206 0.49207 0.32783 0.0
H1415 H 0.33367 0.47274 0.27501 0.0
H1416 H 0.36643 0.49682 0.26482 0.0
H1417 H 0.30554 0.47605 0.29369 0.0
H1418 H 0.33261 0.43301 0.33016 0.0
H1419 H 0.34358 0.45867 0.33646 0.0
H1420 H 0.34782 0.45216 0.31511 0.0
C1421 C 0.374 0.5066 0.3083 0.0
C1422 C 0.37857 0.50798 0.29052 0.0
C1423 C 0.35512 0.493 0.31407 0.0
C1424 C 0.34049 0.48037 0.30221 0.0
C1425 C 0.34477 0.48225 0.28441 0.0
H1426 H 0.24234 0.36528 0.30876 0.0
H1427 H 0.27363 0.39578 0.30614 0.0
C1428 C 0.36358 0.4959 0.27863 0.0
C1429 C 0.32099 0.46455 0.30824 0.0
H1430 H 0.29868 0.42138 0.33097 0.0
C1431 C 0.304 0.46418 0.30198 0.0
C1432 C 0.31905 0.449 0.31896 0.0
C1433 C 0.33669 0.44804 0.32547 0.0
C1434 C 0.28513 0.44841 0.30575 0.0
C1435 C 0.28322 0.43276 0.3163 0.0
C1436 C 0.30019 0.43348 0.32301 0.0
C1437 C 0.26404 0.41437 0.31878 0.0
C1438 C 0.26746 0.44812 0.2977 0.0
C1439 C 0.2482 0.41457 0.32704 0.0
C1440 C 0.23005 0.39699 0.32852 0.0
C1441 C 0.2275 0.37894 0.32183 0.0
C1442 C 0.24363 0.37884 0.314 0.0
C1443 C 0.26162 0.39631 0.31252 0.0
H1444 H 0.27166 0.45941 0.2874 0.0
H1445 H 0.25725 0.43327 0.29199 0.0
H1446 H 0.25942 0.45131 0.30788 0.0
H1447 H 0.24984 0.42829 0.33224 0.0
H1448 H 0.21798 0.39762 0.33465 0.0
H1449 H 0.52353 0.92807 0.33334 0.0
H1450 H 0.5471 0.9174 0.34096 0.0
H1451 H 0.53682 0.88756 0.29133 0.0
H1452 H 0.51321 0.89804 0.28369 0.0
H1453 H 0.53957 0.86578 0.31845 0.0
H1454 H 0.6018 0.94355 0.3196 0.0
H1455 H 0.58204 0.93865 0.33409 0.0
H1456 H 0.57787 0.9369 0.31103 0.0
C1457 C 0.52625 0.91915 0.32411 0.0
C1458 C 0.51664 0.91401 0.30787 0.0
C1459 C 0.53971 0.9131 0.32846 0.0
C1460 C 0.54395 0.902 0.31658 0.0
C1461 C 0.53377 0.89614 0.30068 0.0
H1462 H 0.64519 0.89137 0.30023 0.0
H1463 H 0.61882 0.89918 0.30094 0.0
C1464 C 0.52023 0.90209 0.29636 0.0
C1465 C 0.55964 0.89724 0.32022 0.0
H1466 H 0.60928 0.91851 0.3258 0.0
C1467 C 0.55481 0.87727 0.32021 0.0
C1468 C 0.57951 0.91232 0.32231 0.0
C1469 C 0.58573 0.93407 0.32163 0.0
C1470 C 0.56937 0.87195 0.3219 0.0
C1471 C 0.58923 0.88704 0.32397 0.0
C1472 C 0.59401 0.90699 0.32435 0.0
C1473 C 0.60549 0.8826 0.32422 0.0
C1474 C 0.56347 0.8503 0.32071 0.0
C1475 C 0.60694 0.87093 0.33727 0.0
C1476 C 0.62202 0.86632 0.33688 0.0
C1477 C 0.63599 0.87345 0.32349 0.0
C1478 C 0.63472 0.88558 0.31073 0.0
C1479 C 0.61964 0.89009 0.3111 0.0
H1480 H 0.54831 0.84101 0.31547 0.0
H1481 H 0.57376 0.84818 0.31231 0.0
H1482 H 0.56401 0.84489 0.33386 0.0
H1483 H 0.59638 0.86532 0.3477 0.0
H1484 H 0.62258 0.85701 0.34697 0.0
H1485 H 0.19187 0.66445 0.28258 0.0
H1486 H 0.18861 0.69225 0.29379 0.0
H1487 H 0.19701 0.71623 0.24229 0.0
H1488 H 0.20019 0.68847 0.23097 0.0
H1489 H 0.21697 0.73641 0.28968 0.0
H1490 H 0.14278 0.70866 0.26009 0.0
H1491 H 0.15286 0.69249 0.26304 0.0
H1492 H 0.16251 0.71108 0.24659 0.0
C1493 C 0.19303 0.67565 0.27365 0.0
C1494 C 0.19629 0.67424 0.2559 0.0
C1495 C 0.19131 0.69159 0.28008 0.0
C1496 C 0.19258 0.7063 0.26887 0.0
C1497 C 0.19601 0.70507 0.25117 0.0
H1498 H 0.18551 0.80629 0.31914 0.0
H1499 H 0.19505 0.78976 0.29686 0.0
C1500 C 0.19791 0.68923 0.24475 0.0
C1501 C 0.18943 0.72234 0.27578 0.0
H1502 H 0.15389 0.73495 0.28006 0.0
C1503 C 0.20342 0.7365 0.28727 0.0
C1504 C 0.17178 0.72243 0.27251 0.0
C1505 C 0.15651 0.70786 0.25994 0.0
C1506 C 0.19977 0.75016 0.29623 0.0
C1507 C 0.18156 0.74941 0.29378 0.0
C1508 C 0.16795 0.73575 0.28175 0.0
C1509 C 0.17502 0.76002 0.30574 0.0
C1510 C 0.21482 0.76441 0.30911 0.0
C1511 C 0.1603 0.74883 0.3177 0.0
C1512 C 0.15498 0.75815 0.33032 0.0
C1513 C 0.16406 0.77894 0.3312 0.0
C1514 C 0.17825 0.79027 0.31876 0.0
C1515 C 0.18377 0.78084 0.30611 0.0
H1516 H 0.2276 0.76207 0.31044 0.0
H1517 H 0.22026 0.77987 0.30485 0.0
H1518 H 0.20801 0.76275 0.32205 0.0
H1519 H 0.15333 0.73278 0.31765 0.0
H1520 H 0.14388 0.74898 0.33963 0.0
H1521 H 0.85618 0.02121 0.3836 0.0
H1522 H 0.82722 0.99216 0.37143 0.0
H1523 H 0.8227 0.95911 0.41748 0.0
H1524 H 0.85133 0.98833 0.43002 0.0
H1525 H 0.82166 0.95437 0.36451 0.0
H1526 H 0.76746 0.95187 0.41223 0.0
H1527 H 0.79197 0.97292 0.41067 0.0
H1528 H 0.78797 0.95072 0.42121 0.0
C1529 C 0.84892 0.00784 0.39123 0.0
C1530 C 0.85603 0.00714 0.40781 0.0
C1531 C 0.83246 0.99121 0.3842 0.0
C1532 C 0.82272 0.97355 0.39362 0.0
C1533 C 0.82986 0.97267 0.41009 0.0
H1534 H 0.73238 0.86763 0.33657 0.0
H1535 H 0.76029 0.88803 0.35626 0.0
C1536 C 0.84635 0.98932 0.41715 0.0
C1537 C 0.80514 0.95616 0.38598 0.0
H1538 H 0.75537 0.92799 0.38982 0.0
C1539 C 0.80717 0.94831 0.37016 0.0
C1540 C 0.78629 0.94842 0.39338 0.0
C1541 C 0.78316 0.95647 0.41024 0.0
C1542 C 0.79078 0.93333 0.36122 0.0
C1543 C 0.77185 0.9258 0.36845 0.0
C1544 C 0.7699 0.93338 0.38449 0.0
C1545 C 0.75378 0.91194 0.35858 0.0
C1546 C 0.7938 0.92658 0.34364 0.0
C1547 C 0.74037 0.91812 0.35411 0.0
C1548 C 0.72449 0.90646 0.34315 0.0
C1549 C 0.72156 0.8883 0.33663 0.0
C1550 C 0.73435 0.88154 0.34165 0.0
C1551 C 0.75035 0.89327 0.35268 0.0
H1552 H 0.80865 0.93677 0.33842 0.0
H1553 H 0.79222 0.91165 0.34477 0.0
H1554 H 0.78266 0.92555 0.33415 0.0
H1555 H 0.74269 0.93241 0.35849 0.0
H1556 H 0.71486 0.91198 0.33922 0.0
H1557 H 0.93997 0.77782 0.36368 0.0
H1558 H 0.9747 0.7921 0.35608 0.0
H1559 H 0.97467 0.74087 0.37684 0.0
H1560 H 0.9403 0.72679 0.38505 0.0
H1561 H 0.00764 0.79872 0.38068 0.0
H1562 H 0.99588 0.74789 0.32504 0.0
H1563 H 0.97691 0.75258 0.33294 0.0
H1564 H 0.98265 0.73615 0.34447 0.0
C1565 C 0.94739 0.76967 0.36681 0.0
C1566 C 0.93724 0.75106 0.3749 0.0
C1567 C 0.96718 0.7778 0.36233 0.0
C1568 C 0.97708 0.76738 0.36568 0.0
C1569 C 0.96713 0.74896 0.37388 0.0
H1570 H 0.09124 0.78619 0.37808 0.0
H1571 H 0.05766 0.77997 0.3795 0.0
C1572 C 0.94745 0.74091 0.37849 0.0
C1573 C 0.99799 0.77579 0.36107 0.0
H1574 H 0.02861 0.76669 0.33621 0.0
C1575 C 0.01226 0.79197 0.37077 0.0
C1576 C 0.00391 0.76701 0.34803 0.0
C1577 C 0.98907 0.75004 0.33688 0.0
C1578 C 0.03237 0.79889 0.36841 0.0
C1579 C 0.03823 0.78936 0.35606 0.0
C1580 C 0.02401 0.77391 0.34569 0.0
C1581 C 0.05883 0.79385 0.35503 0.0
C1582 C 0.04723 0.81592 0.37948 0.0
C1583 C 0.07052 0.80357 0.34066 0.0
C1584 C 0.08989 0.80729 0.3398 0.0
C1585 C 0.09768 0.801 0.35319 0.0
C1586 C 0.08575 0.79114 0.36748 0.0
C1587 C 0.06656 0.78766 0.36839 0.0
H1588 H 0.04081 0.82435 0.38561 0.0
H1589 H 0.05257 0.81004 0.38994 0.0
H1590 H 0.06011 0.82624 0.37162 0.0
H1591 H 0.06469 0.80833 0.33018 0.0
H1592 H 0.09867 0.8149 0.32862 0.0
H1593 H 0.14239 0.14164 0.40277 0.0
H1594 H 0.13414 0.16682 0.39391 0.0
H1595 H 0.19469 0.21242 0.40075 0.0
H1596 H 0.20317 0.18752 0.40923 0.0
H1597 H 0.16592 0.22222 0.41452 0.0
H1598 H 0.15095 0.19456 0.34607 0.0
H1599 H 0.13793 0.17681 0.36276 0.0
H1600 H 0.16408 0.18762 0.36108 0.0
C1601 C 0.15397 0.15702 0.40236 0.0
C1602 C 0.17347 0.16248 0.40672 0.0
C1603 C 0.1492 0.1714 0.39736 0.0
C1604 C 0.16383 0.19148 0.39659 0.0
C1605 C 0.18315 0.19703 0.40136 0.0
H1606 H 0.19402 0.30357 0.35828 0.0
H1607 H 0.18794 0.27639 0.37756 0.0
C1608 C 0.18794 0.18272 0.40629 0.0
C1609 C 0.15947 0.20674 0.38993 0.0
H1610 H 0.14976 0.22336 0.35244 0.0
C1611 C 0.16213 0.22237 0.401 0.0
C1612 C 0.15439 0.20684 0.37233 0.0
C1613 C 0.15176 0.19067 0.35976 0.0
C1614 C 0.16038 0.23837 0.39479 0.0
C1615 C 0.15633 0.23899 0.37697 0.0
C1616 C 0.15279 0.2229 0.36612 0.0
C1617 C 0.15801 0.25701 0.36873 0.0
C1618 C 0.16301 0.25452 0.40735 0.0
C1619 C 0.14309 0.25551 0.3576 0.0
C1620 C 0.14664 0.27112 0.34652 0.0
C1621 C 0.16507 0.2885 0.34653 0.0
C1622 C 0.17949 0.29054 0.35846 0.0
C1623 C 0.17598 0.27497 0.36951 0.0
H1624 H 0.15917 0.24881 0.42078 0.0
H1625 H 0.17863 0.2665 0.40747 0.0
H1626 H 0.15378 0.26099 0.40354 0.0
H1627 H 0.12919 0.24175 0.3566 0.0
H1628 H 0.13559 0.26893 0.33695 0.0
H1629 H 0.63016 0.46833 0.71435 0.0
H1630 H 0.65539 0.49709 0.69871 0.0
H1631 H 0.6866 0.5221 0.74682 0.0
H1632 H 0.66192 0.49326 0.76243 0.0
H1633 H 0.66754 0.53722 0.70277 0.0
H1634 H 0.72929 0.52386 0.71559 0.0
H1635 H 0.70396 0.50516 0.71899 0.0
H1636 H 0.71704 0.52433 0.73507 0.0
C1637 C 0.6425 0.47986 0.72157 0.0
C1638 C 0.644 0.47843 0.73966 0.0
C1639 C 0.65685 0.49633 0.71262 0.0
C1640 C 0.67305 0.51159 0.72155 0.0
C1641 C 0.67443 0.51033 0.73961 0.0
H1642 H 0.75175 0.63341 0.70187 0.0
H1643 H 0.72378 0.60096 0.70809 0.0
C1644 C 0.66014 0.49393 0.74855 0.0
C1645 C 0.68836 0.52909 0.71217 0.0
H1646 H 0.73796 0.55646 0.70613 0.0
C1647 C 0.68291 0.54131 0.7033 0.0
C1648 C 0.70838 0.53424 0.71257 0.0
C1649 C 0.71502 0.5211 0.72091 0.0
C1650 C 0.69707 0.55905 0.69561 0.0
C1651 C 0.71721 0.56486 0.69705 0.0
C1652 C 0.72254 0.55213 0.70514 0.0
C1653 C 0.73311 0.58468 0.69149 0.0
C1654 C 0.6903 0.57146 0.68613 0.0
C1655 C 0.74778 0.58644 0.68004 0.0
C1656 C 0.76396 0.6051 0.67646 0.0
C1657 C 0.76593 0.62235 0.68447 0.0
C1658 C 0.7508 0.62054 0.69541 0.0
C1659 C 0.73466 0.60193 0.69893 0.0
H1660 H 0.67501 0.56222 0.68116 0.0
H1661 H 0.6905 0.5827 0.69524 0.0
H1662 H 0.70006 0.57933 0.67507 0.0
H1663 H 0.74693 0.57332 0.67418 0.0
H1664 H 0.7752 0.60593 0.66785 0.0
H1665 H 0.45084 0.06512 0.69563 0.0
H1666 H 0.43104 0.08011 0.68815 0.0
H1667 H 0.48139 0.13844 0.69605 0.0
H1668 H 0.50144 0.12349 0.70355 0.0
H1669 H 0.44952 0.13364 0.71358 0.0
H1670 H 0.42797 0.10866 0.64561 0.0
H1671 H 0.42291 0.0883 0.6595 0.0
H1672 H 0.44793 0.10771 0.65637 0.0
C1673 C 0.45787 0.08115 0.69536 0.0
C1674 C 0.47775 0.09311 0.70013 0.0
C1675 C 0.44652 0.08971 0.69103 0.0
C1676 C 0.45481 0.1104 0.69122 0.0
C1677 C 0.47474 0.12243 0.69569 0.0
H1678 H 0.37905 0.16055 0.66508 0.0
H1679 H 0.40689 0.15457 0.66455 0.0
C1680 C 0.48613 0.11387 0.70006 0.0
C1681 C 0.44211 0.11921 0.68846 0.0
H1682 H 0.40686 0.11764 0.66137 0.0
C1683 C 0.44047 0.13046 0.70202 0.0
C1684 C 0.4305 0.11533 0.67327 0.0
C1685 C 0.43256 0.10452 0.65779 0.0
C1686 C 0.42666 0.13682 0.70126 0.0
C1687 C 0.41396 0.13153 0.6867 0.0
C1688 C 0.41643 0.12142 0.67264 0.0
C1689 C 0.39704 0.13494 0.68654 0.0
C1690 C 0.42544 0.14877 0.71626 0.0
C1691 C 0.38212 0.12548 0.6988 0.0
C1692 C 0.36627 0.1288 0.69915 0.0
C1693 C 0.36493 0.14164 0.68718 0.0
C1694 C 0.37967 0.15069 0.67457 0.0
C1695 C 0.39558 0.1473 0.67422 0.0
H1696 H 0.43949 0.15647 0.72369 0.0
H1697 H 0.4217 0.15998 0.71169 0.0
H1698 H 0.41377 0.13865 0.72525 0.0
H1699 H 0.38279 0.11555 0.70819 0.0
H1700 H 0.35519 0.12146 0.70899 0.0
H1701 H 0.8052 0.33192 0.74238 0.0
H1702 H 0.79723 0.2984 0.73318 0.0
H1703 H 0.8493 0.32331 0.7017 0.0
H1704 H 0.85753 0.35661 0.71095 0.0
H1705 H 0.81472 0.29465 0.68447 0.0
H1706 H 0.82578 0.26778 0.74789 0.0
H1707 H 0.80969 0.27801 0.74764 0.0
H1708 H 0.83541 0.29381 0.74361 0.0
C1709 C 0.81501 0.33024 0.73358 0.0
C1710 C 0.83195 0.34703 0.72732 0.0
C1711 C 0.81045 0.31108 0.72837 0.0
C1712 C 0.82278 0.30837 0.71689 0.0
C1713 C 0.83957 0.32506 0.71055 0.0
H1714 H 0.84608 0.21875 0.68218 0.0
H1715 H 0.84303 0.24381 0.69924 0.0
C1716 C 0.84414 0.34413 0.71575 0.0
C1717 C 0.81819 0.28829 0.71092 0.0
H1718 H 0.81707 0.24586 0.72393 0.0
C1719 C 0.81496 0.28385 0.69312 0.0
C1720 C 0.81872 0.27435 0.72224 0.0
C1721 C 0.82271 0.27865 0.74141 0.0
C1722 C 0.8128 0.26612 0.68621 0.0
C1723 C 0.81348 0.2522 0.69749 0.0
C1724 C 0.81629 0.25642 0.71537 0.0
C1725 C 0.81336 0.23427 0.69054 0.0
C1726 C 0.81081 0.26293 0.66677 0.0
C1727 C 0.79733 0.21995 0.68073 0.0
C1728 C 0.79912 0.2057 0.67094 0.0
C1729 C 0.81675 0.20527 0.67123 0.0
C1730 C 0.83218 0.21855 0.68211 0.0
C1731 C 0.83048 0.23291 0.69177 0.0
H1732 H 0.81451 0.27677 0.65976 0.0
H1733 H 0.82053 0.25738 0.662 0.0
H1734 H 0.79541 0.25168 0.66344 0.0
H1735 H 0.78393 0.22062 0.67974 0.0
H1736 H 0.78723 0.19586 0.6623 0.0
H1737 H 0.19605 0.98023 0.61004 0.0
H1738 H 0.2142 0.01537 0.61828 0.0
H1739 H 0.16067 0.01158 0.63672 0.0
H1740 H 0.14239 0.97619 0.62874 0.0
H1741 H 0.20886 0.04925 0.60989 0.0
H1742 H 0.19843 0.0285 0.67972 0.0
H1743 H 0.19415 0.01068 0.66269 0.0
H1744 H 0.17679 0.01891 0.66624 0.0
C1745 C 0.18811 0.9869 0.61577 0.0
C1746 C 0.16785 0.9754 0.619 0.0
C1747 C 0.19847 0.007 0.62032 0.0
C1748 C 0.1888 0.01598 0.62825 0.0
C1749 C 0.1684 0.00484 0.63072 0.0
H1750 H 0.25344 0.12353 0.6907 0.0
H1751 H 0.22586 0.09853 0.67326 0.0
C1752 C 0.15798 0.98468 0.62609 0.0
C1753 C 0.20054 0.03645 0.63527 0.0
H1754 H 0.21927 0.06187 0.67331 0.0
C1755 C 0.21091 0.05213 0.62376 0.0
C1756 C 0.20315 0.04014 0.65336 0.0
C1757 C 0.19268 0.02372 0.6663 0.0
C1758 C 0.2243 0.07135 0.62989 0.0
C1759 C 0.22774 0.07479 0.64795 0.0
C1760 C 0.21663 0.05928 0.65945 0.0
C1761 C 0.24414 0.09352 0.65531 0.0
C1762 C 0.23493 0.08767 0.61699 0.0
C1763 C 0.26362 0.0997 0.65058 0.0
C1764 C 0.27935 0.11426 0.66034 0.0
C1765 C 0.27583 0.12272 0.67504 0.0
C1766 C 0.25646 0.11751 0.67914 0.0
C1767 C 0.24073 0.10315 0.66926 0.0
H1768 H 0.22631 0.08465 0.60476 0.0
H1769 H 0.23811 0.10227 0.62239 0.0
H1770 H 0.24907 0.08853 0.61376 0.0
H1771 H 0.2667 0.09213 0.64026 0.0
H1772 H 0.29412 0.11748 0.65736 0.0
H1773 H 0.05502 0.24501 0.65761 0.0
H1774 H 0.02066 0.23227 0.66556 0.0
H1775 H 0.00371 0.2212 0.61155 0.0
H1776 H 0.03802 0.23409 0.60345 0.0
H1777 H 0.99723 0.24777 0.65522 0.0
H1778 H 0.96417 0.16902 0.63448 0.0
H1779 H 0.99035 0.1851 0.63736 0.0
H1780 H 0.97836 0.18626 0.61786 0.0
C1781 C 0.04398 0.23982 0.64741 0.0
C1782 C 0.04929 0.24061 0.62988 0.0
C1783 C 0.02435 0.23245 0.652 0.0
C1784 C 0.00961 0.22557 0.63917 0.0
C1785 C 0.01479 0.22602 0.62169 0.0
H1786 H 0.89729 0.21771 0.63688 0.0
H1787 H 0.93178 0.22682 0.63515 0.0
C1788 C 0.03442 0.2334 0.61708 0.0
C1789 C 0.98904 0.21921 0.64394 0.0
H1790 H 0.94183 0.18081 0.64017 0.0
C1791 C 0.98514 0.23306 0.6521 0.0
C1792 C 0.97331 0.19994 0.64006 0.0
C1793 C 0.97672 0.18414 0.63211 0.0
C1794 C 0.96584 0.22842 0.65586 0.0
C1795 C 0.95004 0.2095 0.65116 0.0
C1796 C 0.95398 0.19537 0.64364 0.0
C1797 C 0.9293 0.20447 0.65307 0.0
C1798 C 0.9625 0.24383 0.66474 0.0
C1799 C 0.9164 0.18874 0.66363 0.0
C1800 C 0.89658 0.18346 0.66468 0.0
C1801 C 0.88929 0.19367 0.65499 0.0
C1802 C 0.90237 0.20954 0.64455 0.0
C1803 C 0.92214 0.21486 0.6436 0.0
H1804 H 0.97591 0.25514 0.67173 0.0
H1805 H 0.95861 0.25158 0.65484 0.0
H1806 H 0.95023 0.23687 0.67411 0.0
H1807 H 0.92164 0.18046 0.67095 0.0
H1808 H 0.8869 0.17106 0.67273 0.0
H1809 H 0.86556 0.86597 0.61127 0.0
H1810 H 0.86337 0.83589 0.62298 0.0
H1811 H 0.82199 0.80096 0.58259 0.0
H1812 H 0.82341 0.83088 0.57122 0.0
H1813 H 0.81016 0.78402 0.6138 0.0
H1814 H 0.88783 0.80447 0.60479 0.0
H1815 H 0.88549 0.82285 0.6171 0.0
H1816 H 0.87733 0.81799 0.59481 0.0
C1817 C 0.85584 0.85189 0.60494 0.0
C1818 C 0.8447 0.85094 0.59024 0.0
C1819 C 0.85486 0.83471 0.61149 0.0
C1820 C 0.8429 0.81617 0.60343 0.0
C1821 C 0.83154 0.81511 0.58891 0.0
H1822 H 0.81187 0.69711 0.64094 0.0
H1823 H 0.81873 0.72362 0.62016 0.0
C1824 C 0.83246 0.83227 0.58237 0.0
C1825 C 0.84148 0.79782 0.61068 0.0
H1826 H 0.869 0.77749 0.62414 0.0
C1827 C 0.82298 0.78244 0.61578 0.0
C1828 C 0.8582 0.79569 0.6132 0.0
C1829 C 0.8783 0.81104 0.60702 0.0
C1830 C 0.82087 0.76552 0.62415 0.0
C1831 C 0.8377 0.76377 0.6273 0.0
C1832 C 0.85612 0.77882 0.62168 0.0
C1833 C 0.83667 0.74758 0.63814 0.0
C1834 C 0.80078 0.7501 0.63034 0.0
C1835 C 0.84537 0.75222 0.65471 0.0
C1836 C 0.84164 0.73714 0.66639 0.0
C1837 C 0.82945 0.71715 0.66163 0.0
C1838 C 0.82183 0.7124 0.64468 0.0
C1839 C 0.82547 0.72754 0.63295 0.0
H1840 H 0.78993 0.75524 0.62939 0.0
H1841 H 0.79534 0.73643 0.62228 0.0
H1842 H 0.80152 0.74617 0.64403 0.0
H1843 H 0.85402 0.76754 0.659 0.0
H1844 H 0.84739 0.74114 0.67952 0.0
H1845 H 0.03218 0.85449 0.62471 0.0
H1846 H 0.99873 0.83108 0.63445 0.0
H1847 H 0.01272 0.78412 0.63463 0.0
H1848 H 0.04609 0.80736 0.62517 0.0
H1849 H 0.97079 0.79549 0.61696 0.0
H1850 H 0.98811 0.78023 0.68282 0.0
H1851 H 0.00512 0.80165 0.67055 0.0
H1852 H 0.00269 0.7778 0.66611 0.0
C1853 C 0.02816 0.83922 0.627 0.0
C1854 C 0.04176 0.83276 0.62412 0.0
C1855 C 0.00906 0.82587 0.63252 0.0
C1856 C 0.00335 0.80595 0.63551 0.0
C1857 C 0.01692 0.79951 0.6327 0.0
H1858 H 0.90074 0.69512 0.63248 0.0
H1859 H 0.93165 0.72603 0.62942 0.0
C1860 C 0.03592 0.81276 0.62708 0.0
C1861 C 0.98294 0.79148 0.64064 0.0
H1862 H 0.95646 0.75652 0.67099 0.0
C1863 C 0.96759 0.78723 0.62893 0.0
C1864 C 0.97875 0.78085 0.65634 0.0
C1865 C 0.99451 0.78547 0.66977 0.0
C1866 C 0.94837 0.77178 0.63201 0.0
C1867 C 0.94448 0.76032 0.64715 0.0
C1868 C 0.95954 0.76531 0.65936 0.0
C1869 C 0.9255 0.74177 0.64942 0.0
C1870 C 0.93246 0.76731 0.61878 0.0
C1871 C 0.91188 0.74032 0.66191 0.0
C1872 C 0.89395 0.72255 0.6637 0.0
C1873 C 0.88957 0.70591 0.65317 0.0
C1874 C 0.90352 0.70751 0.64088 0.0
C1875 C 0.92122 0.72523 0.63902 0.0
H1876 H 0.93663 0.77997 0.60993 0.0
H1877 H 0.92984 0.75422 0.61083 0.0
H1878 H 0.91847 0.76367 0.62528 0.0
H1879 H 0.91502 0.75297 0.67011 0.0
H1880 H 0.88357 0.72186 0.67328 0.0
H1881 H 0.20925 0.27127 0.63265 0.0
H1882 H 0.22998 0.25809 0.64236 0.0
H1883 H 0.17877 0.2052 0.66029 0.0
H1884 H 0.1578 0.21833 0.65048 0.0
H1885 H 0.23503 0.24683 0.67521 0.0
H1886 H 0.20503 0.18309 0.6285 0.0
H1887 H 0.20009 0.20326 0.6264 0.0
H1888 H 0.18752 0.18459 0.64247 0.0
C1889 C 0.20238 0.25692 0.63883 0.0
C1890 C 0.18188 0.24585 0.64082 0.0
C1891 C 0.21425 0.24938 0.64431 0.0
C1892 C 0.20591 0.23059 0.65189 0.0
C1893 C 0.18547 0.21958 0.65418 0.0
H1894 H 0.27549 0.17317 0.6768 0.0
H1895 H 0.24821 0.18007 0.67755 0.0
C1896 C 0.17353 0.2271 0.6486 0.0
C1897 C 0.21886 0.22273 0.65708 0.0
H1898 H 0.23142 0.18787 0.64626 0.0
C1899 C 0.23408 0.23378 0.66905 0.0
C1900 C 0.21752 0.20563 0.64909 0.0
C1901 C 0.20177 0.19348 0.6358 0.0
C1902 C 0.24848 0.22868 0.67271 0.0
C1903 C 0.24769 0.21221 0.66407 0.0
C1904 C 0.2319 0.20048 0.65285 0.0
C1905 C 0.26433 0.20841 0.66485 0.0
C1906 C 0.26476 0.24129 0.6854 0.0
C1907 C 0.2823 0.22204 0.65742 0.0
C1908 C 0.29776 0.21811 0.65683 0.0
C1909 C 0.29559 0.20047 0.66373 0.0
C1910 C 0.27766 0.18697 0.6715 0.0
C1911 C 0.26207 0.19084 0.6719 0.0
H1912 H 0.26045 0.24972 0.69434 0.0
H1913 H 0.26895 0.23202 0.69319 0.0
H1914 H 0.27788 0.25213 0.67811 0.0
H1915 H 0.28421 0.23555 0.65168 0.0
H1916 H 0.31136 0.22884 0.65078 0.0
H1917 H 0.87595 0.00255 0.61697 0.0
H1918 H 0.87312 0.02985 0.62995 0.0
H1919 H 0.82006 0.01188 0.60037 0.0
H1920 H 0.82278 0.98459 0.58732 0.0
H1921 H 0.87219 0.06159 0.61391 0.0
H1922 H 0.80329 0.01461 0.64996 0.0
H1923 H 0.81783 0.00484 0.6407 0.0
H1924 H 0.80178 0.00921 0.62711 0.0
C1925 C 0.86368 0.00441 0.61321 0.0
C1926 C 0.8495 0.99127 0.6012 0.0
C1927 C 0.86208 0.02002 0.62065 0.0
C1928 C 0.84626 0.02277 0.61629 0.0
C1929 C 0.83217 0.00979 0.60421 0.0
H1930 H 0.80915 0.10325 0.65806 0.0
H1931 H 0.81336 0.08029 0.63892 0.0
C1932 C 0.83372 0.99416 0.5968 0.0
C1933 C 0.84457 0.03927 0.62435 0.0
H1934 H 0.81527 0.0491 0.65034 0.0
C1935 C 0.85974 0.05888 0.62186 0.0
C1936 C 0.8283 0.03573 0.63469 0.0
C1937 C 0.81194 0.01497 0.63844 0.0
C1938 C 0.85905 0.07506 0.62939 0.0
C1939 C 0.84287 0.07149 0.6399 0.0
C1940 C 0.8276 0.05188 0.64218 0.0
C1941 C 0.8418 0.0876 0.64948 0.0
C1942 C 0.87567 0.09575 0.62592 0.0
C1943 C 0.8565 0.0996 0.6616 0.0
C1944 C 0.85413 0.11278 0.67242 0.0
C1945 C 0.83714 0.11433 0.67118 0.0
C1946 C 0.82268 0.10277 0.6588 0.0
C1947 C 0.82499 0.08951 0.64803 0.0
H1948 H 0.88229 0.09654 0.61302 0.0
H1949 H 0.87078 0.10687 0.62647 0.0
H1950 H 0.88733 0.09982 0.63589 0.0
H1951 H 0.86931 0.098 0.66337 0.0
H1952 H 0.86511 0.12106 0.68234 0.0
H1953 H 0.53542 0.31467 0.74481 0.0
H1954 H 0.50686 0.28585 0.73148 0.0
H1955 H 0.47504 0.31767 0.73209 0.0
H1956 H 0.50322 0.3463 0.74559 0.0
H1957 H 0.46452 0.2632 0.74272 0.0
H1958 H 0.47719 0.3019 0.67997 0.0
H1959 H 0.49602 0.30957 0.69651 0.0
H1960 H 0.47731 0.31632 0.69837 0.0
C1961 C 0.52226 0.31544 0.74227 0.0
C1962 C 0.5217 0.3329 0.74604 0.0
C1963 C 0.50598 0.29897 0.73467 0.0
C1964 C 0.48897 0.29975 0.73069 0.0
C1965 C 0.48816 0.3169 0.7349 0.0
H1966 H 0.38204 0.24604 0.67729 0.0
H1967 H 0.4108 0.26435 0.69593 0.0
C1968 C 0.50434 0.3333 0.74248 0.0
C1969 C 0.47228 0.28323 0.72129 0.0
H1970 H 0.44571 0.27346 0.68388 0.0
C1971 C 0.46039 0.26525 0.72979 0.0
C1972 C 0.46733 0.28584 0.70428 0.0
C1973 C 0.48022 0.30436 0.69414 0.0
C1974 C 0.44277 0.25034 0.72214 0.0
C1975 C 0.43705 0.25366 0.70564 0.0
C1976 C 0.44979 0.27109 0.69673 0.0
C1977 C 0.41739 0.24052 0.69767 0.0
C1978 C 0.43036 0.23151 0.732 0.0
C1979 C 0.41079 0.22056 0.69319 0.0
C1980 C 0.3938 0.20979 0.68289 0.0
C1981 C 0.38362 0.21909 0.67672 0.0
C1982 C 0.38969 0.23861 0.68193 0.0
C1983 C 0.40617 0.24908 0.69252 0.0
H1984 H 0.434 0.23354 0.74608 0.0
H1985 H 0.41449 0.22617 0.73027 0.0
H1986 H 0.4332 0.21978 0.72695 0.0
H1987 H 0.41932 0.21369 0.69678 0.0
H1988 H 0.38948 0.19482 0.67876 0.0
H1989 H 0.60182 0.05413 0.71191 0.0
H1990 H 0.63611 0.06555 0.70469 0.0
H1991 H 0.64827 0.12606 0.70438 0.0
H1992 H 0.61399 0.11478 0.71194 0.0
H1993 H 0.65861 0.08886 0.67532 0.0
H1994 H 0.68891 0.12585 0.73921 0.0
H1995 H 0.66319 0.10796 0.73596 0.0
H1996 H 0.67313 0.13275 0.72805 0.0
C1997 C 0.61181 0.06989 0.71046 0.0
C1998 C 0.60523 0.08358 0.71268 0.0
C1999 C 0.63135 0.07637 0.70618 0.0
C2000 C 0.64472 0.09664 0.70414 0.0
C2001 C 0.63819 0.11036 0.70606 0.0
H2002 H 0.76588 0.14565 0.66696 0.0
H2003 H 0.73153 0.13744 0.66952 0.0
C2004 C 0.6186 0.10388 0.71027 0.0
C2005 C 0.66559 0.10332 0.70039 0.0
H2006 H 0.71157 0.12748 0.71843 0.0
C2007 C 0.67025 0.09744 0.68465 0.0
C2008 C 0.68065 0.11437 0.71269 0.0
C2009 C 0.67632 0.12053 0.73 0.0
C2010 C 0.68961 0.10217 0.68097 0.0
C2011 C 0.70463 0.11309 0.69333 0.0
C2012 C 0.7 0.11918 0.70896 0.0
C2013 C 0.72504 0.11729 0.69088 0.0
C2014 C 0.69381 0.09491 0.66418 0.0
C2015 C 0.73269 0.10863 0.70199 0.0
C2016 C 0.75222 0.11322 0.70057 0.0
C2017 C 0.76461 0.12672 0.68805 0.0
C2018 C 0.75676 0.13511 0.67667 0.0
C2019 C 0.73713 0.13043 0.6781 0.0
H2020 H 0.68012 0.08403 0.65728 0.0
H2021 H 0.70226 0.10772 0.65553 0.0
H2022 H 0.70289 0.0879 0.66666 0.0
H2023 H 0.72357 0.09844 0.71193 0.0
H2024 H 0.75767 0.10644 0.70956 0.0
H2025 H 0.87078 0.50964 0.72496 0.0
H2026 H 0.86217 0.5345 0.71648 0.0
H2027 H 0.8071 0.50253 0.74336 0.0
H2028 H 0.81571 0.47745 0.7521 0.0
H2029 H 0.82214 0.52289 0.69775 0.0
H2030 H 0.83876 0.56564 0.75997 0.0
H2031 H 0.8515 0.55249 0.7542 0.0
H2032 H 0.82608 0.53885 0.75998 0.0
C2033 C 0.85692 0.50795 0.72927 0.0
C2034 C 0.84399 0.49161 0.73932 0.0
C2035 C 0.852 0.52215 0.72434 0.0
C2036 C 0.8341 0.52043 0.72942 0.0
C2037 C 0.82106 0.50417 0.73943 0.0
H2038 H 0.80057 0.59823 0.67528 0.0
H2039 H 0.79574 0.5713 0.69471 0.0
C2040 C 0.82594 0.48981 0.7443 0.0
C2041 C 0.82906 0.53543 0.72352 0.0
H2042 H 0.83219 0.57935 0.73542 0.0
C2043 C 0.82388 0.53502 0.70604 0.0
C2044 C 0.83155 0.55126 0.73439 0.0
C2045 C 0.83729 0.55229 0.75321 0.0
C2046 C 0.8219 0.55047 0.69893 0.0
C2047 C 0.82503 0.56672 0.70964 0.0
C2048 C 0.82955 0.56678 0.7273 0.0
C2049 C 0.82644 0.58484 0.70201 0.0
C2050 C 0.81768 0.5499 0.67973 0.0
C2051 C 0.84501 0.60189 0.70059 0.0
C2052 C 0.8477 0.61723 0.68963 0.0
C2053 C 0.83181 0.61595 0.68019 0.0
C2054 C 0.81291 0.59977 0.68281 0.0
C2055 C 0.81021 0.5843 0.69374 0.0
H2056 H 0.81841 0.53767 0.67286 0.0
H2057 H 0.80272 0.54771 0.6778 0.0
H2058 H 0.82832 0.56417 0.67365 0.0
H2059 H 0.85774 0.6026 0.70681 0.0
H2060 H 0.86247 0.62941 0.68752 0.0
H2061 H 0.51748 0.97498 0.20539 0.0
H2062 H 0.52543 0.98321 0.17479 0.0
H2063 H 0.46383 0.95789 0.16268 0.0
H2064 H 0.45569 0.94936 0.19318 0.0
H2065 H 0.51219 0.95881 0.14339 0.0
H2066 H 0.49007 0.01626 0.14611 0.0
H2067 H 0.49446 0.00596 0.16536 0.0
H2068 H 0.47166 0.9923 0.15359 0.0
C2069 C 0.50558 0.97088 0.19618 0.0
C2070 C 0.48594 0.96165 0.20177 0.0
C2071 C 0.51018 0.97565 0.17872 0.0
C2072 C 0.49524 0.97138 0.16655 0.0
C2073 C 0.47559 0.96159 0.17195 0.0
H2074 H 0.48771 0.97024 0.05603 0.0
H2075 H 0.49106 0.96217 0.08591 0.0
C2076 C 0.47098 0.9568 0.18938 0.0
C2077 C 0.50015 0.97787 0.14834 0.0
H2078 H 0.49603 0.00738 0.11819 0.0
C2079 C 0.50884 0.96955 0.13786 0.0
C2080 C 0.49609 0.99215 0.14129 0.0
C2081 C 0.48772 0.00235 0.15218 0.0
C2082 C 0.51288 0.97461 0.12027 0.0
C2083 C 0.50791 0.98818 0.11302 0.0
C2084 C 0.49985 0.99697 0.12371 0.0
C2085 C 0.5097 0.99273 0.09421 0.0
C2086 C 0.52241 0.96539 0.10965 0.0
C2087 C 0.51933 0.01256 0.08877 0.0
C2088 C 0.51742 0.01715 0.07163 0.0
C2089 C 0.50607 0.00197 0.05962 0.0
C2090 C 0.49738 0.98212 0.06479 0.0
C2091 C 0.49916 0.97753 0.08195 0.0
H2092 H 0.53099 0.96084 0.118 0.0
H2093 H 0.51082 0.9519 0.10292 0.0
H2094 H 0.53232 0.97579 0.0997 0.0
H2095 H 0.52739 0.02455 0.09803 0.0
H2096 H 0.52389 0.03257 0.06801 0.0
H2097 H 0.13981 0.62139 0.1669 0.0
H2098 H 0.11426 0.61582 0.14558 0.0
H2099 H 0.09407 0.55305 0.14551 0.0
H2100 H 0.1191 0.55849 0.16714 0.0
H2101 H 0.10859 0.60248 0.11369 0.0
H2102 H 0.04292 0.55138 0.15067 0.0
H2103 H 0.06688 0.56523 0.16075 0.0
H2104 H 0.0595 0.54191 0.14981 0.0
C2105 C 0.12978 0.60639 0.1624 0.0
C2106 C 0.13131 0.59034 0.16876 0.0
C2107 C 0.11518 0.60322 0.15026 0.0
C2108 C 0.10191 0.58395 0.14422 0.0
C2109 C 0.10363 0.56796 0.15042 0.0
H2110 H 0.04678 0.53806 0.04882 0.0
H2111 H 0.06932 0.5574 0.07225 0.0
C2112 C 0.11803 0.57109 0.16271 0.0
C2113 C 0.08702 0.58053 0.13064 0.0
H2114 H 0.03921 0.5489 0.11924 0.0
C2115 C 0.09332 0.59105 0.11505 0.0
C2116 C 0.06693 0.56608 0.1325 0.0
C2117 C 0.05865 0.55571 0.14944 0.0
C2118 C 0.08043 0.5864 0.10086 0.0
C2119 C 0.06094 0.57037 0.10209 0.0
C2120 C 0.05425 0.56095 0.11811 0.0
C2121 C 0.04797 0.56161 0.08661 0.0
C2122 C 0.08799 0.59842 0.08457 0.0
C2123 C 0.02831 0.55727 0.08684 0.0
C2124 C 0.01533 0.54603 0.0734 0.0
C2125 C 0.02189 0.53921 0.05944 0.0
C2126 C 0.04162 0.54398 0.05901 0.0
C2127 C 0.05452 0.55503 0.07245 0.0
H2128 H 0.09977 0.61386 0.08759 0.0
H2129 H 0.09445 0.59156 0.07621 0.0
H2130 H 0.07606 0.59886 0.0772 0.0
H2131 H 0.02284 0.56192 0.09774 0.0
H2132 H 3e-05 0.54208 0.0742 0.0
H2133 H 0.49499 0.52942 0.20128 0.0
H2134 H 0.50257 0.5249 0.17149 0.0
H2135 H 0.48151 0.56326 0.15343 0.0
H2136 H 0.47476 0.56868 0.18334 0.0
H2137 H 0.47689 0.50843 0.145 0.0
H2138 H 0.53308 0.5853 0.12786 0.0
H2139 H 0.52555 0.57792 0.14994 0.0
H2140 H 0.51057 0.58308 0.13564 0.0
C2141 C 0.49235 0.53728 0.19105 0.0
C2142 C 0.48434 0.54951 0.19478 0.0
C2143 C 0.49659 0.53456 0.17399 0.0
C2144 C 0.49291 0.54398 0.16024 0.0
C2145 C 0.4849 0.55619 0.16385 0.0
H2146 H 0.48469 0.52192 0.04959 0.0
H2147 H 0.48619 0.5363 0.07834 0.0
C2148 C 0.48075 0.55902 0.18096 0.0
C2149 C 0.49624 0.53986 0.14208 0.0
H2150 H 0.52048 0.56155 0.10462 0.0
C2151 C 0.48654 0.52005 0.13624 0.0
C2152 C 0.50878 0.55505 0.13061 0.0
C2153 C 0.52024 0.57652 0.13635 0.0
C2154 C 0.48886 0.51501 0.11925 0.0
C2155 C 0.50133 0.53017 0.10779 0.0
C2156 C 0.51099 0.55 0.11351 0.0
C2157 C 0.50407 0.52538 0.08976 0.0
C2158 C 0.47772 0.49351 0.11353 0.0
C2159 C 0.5143 0.5152 0.08654 0.0
C2160 C 0.51378 0.50735 0.07003 0.0
C2161 C 0.50317 0.50971 0.05647 0.0
C2162 C 0.49382 0.52081 0.05952 0.0
C2163 C 0.4944 0.52873 0.07602 0.0
H2164 H 0.46623 0.48406 0.12298 0.0
H2165 H 0.47064 0.49195 0.10067 0.0
H2166 H 0.48814 0.48787 0.11222 0.0
H2167 H 0.5218 0.51244 0.09702 0.0
H2168 H 0.52084 0.49858 0.06807 0.0
H2169 H 0.8735 0.43051 0.84259 0.0
H2170 H 0.88896 0.43553 0.87128 0.0
H2171 H 0.93856 0.43504 0.84804 0.0
H2172 H 0.9238 0.43097 0.81937 0.0
H2173 H 0.90401 0.41425 0.89084 0.0
H2174 H 0.96214 0.48977 0.872 0.0
H2175 H 0.9398 0.4756 0.85954 0.0
H2176 H 0.95958 0.4704 0.85751 0.0
C2177 C 0.88772 0.43151 0.84357 0.0
C2178 C 0.89747 0.43053 0.8286 0.0
C2179 C 0.89642 0.43415 0.86 0.0
C2180 C 0.91499 0.43587 0.86173 0.0
C2181 C 0.9243 0.43394 0.84695 0.0
H2182 H 0.00336 0.47999 0.94232 0.0
H2183 H 0.98314 0.46107 0.91731 0.0
C2184 C 0.91572 0.43144 0.83056 0.0
C2185 C 0.92541 0.4413 0.87868 0.0
H2186 H 0.96629 0.47805 0.89886 0.0
C2187 C 0.91764 0.42817 0.89265 0.0
C2188 C 0.94308 0.45955 0.88101 0.0
C2189 C 0.95158 0.47475 0.86679 0.0
C2190 C 0.92739 0.4327 0.90884 0.0
C2191 C 0.9452 0.45087 0.91104 0.0
C2192 C 0.95281 0.46397 0.89707 0.0
C2193 C 0.956 0.45741 0.92781 0.0
C2194 C 0.91867 0.41796 0.92335 0.0
C2195 C 0.94731 0.46092 0.94229 0.0
C2196 C 0.95884 0.47155 0.95665 0.0
C2197 C 0.9792 0.47886 0.95667 0.0
C2198 C 0.98765 0.47427 0.94266 0.0
C2199 C 0.97612 0.46351 0.9284 0.0
H2200 H 0.90859 0.40273 0.9183 0.0
H2201 H 0.93032 0.41774 0.93137 0.0
H2202 H 0.91005 0.42229 0.93187 0.0
H2203 H 0.93197 0.45685 0.94195 0.0
H2204 H 0.95211 0.47544 0.96708 0.0
H2205 H 0.52717 0.391 0.84774 0.0
H2206 H 0.5099 0.3982 0.87064 0.0
H2207 H 0.53005 0.45614 0.8492 0.0
H2208 H 0.54764 0.4493 0.82657 0.0
H2209 H 0.53853 0.45442 0.8859 0.0
H2210 H 0.45966 0.40472 0.86843 0.0
H2211 H 0.47565 0.39434 0.86844 0.0
H2212 H 0.47902 0.41249 0.85261 0.0
C2213 C 0.52784 0.40524 0.84787 0.0
C2214 C 0.53883 0.4196 0.83535 0.0
C2215 C 0.51779 0.40922 0.86083 0.0
C2216 C 0.51853 0.4276 0.86146 0.0
C2217 C 0.52915 0.44179 0.84881 0.0
H2218 H 0.49284 0.5003 0.92491 0.0
H2219 H 0.49592 0.48153 0.90092 0.0
C2220 C 0.53913 0.43782 0.83585 0.0
C2221 C 0.50989 0.43294 0.87613 0.0
H2222 H 0.46655 0.42493 0.89355 0.0
C2223 C 0.5228 0.4479 0.88762 0.0
C2224 C 0.48936 0.42419 0.87843 0.0
C2225 C 0.475 0.40809 0.86632 0.0
C2226 C 0.51576 0.45475 0.9011 0.0
C2227 C 0.49525 0.44665 0.90299 0.0
C2228 C 0.48225 0.43116 0.89193 0.0
C2229 C 0.48764 0.45521 0.91591 0.0
C2230 C 0.53034 0.47083 0.91318 0.0
C2231 C 0.48064 0.44607 0.93196 0.0
C2232 C 0.47914 0.45689 0.9459 0.0
C2233 C 0.4844 0.47689 0.94383 0.0
C2234 C 0.489 0.48506 0.92711 0.0
C2235 C 0.49071 0.47433 0.91331 0.0
H2236 H 0.54515 0.47236 0.91238 0.0
H2237 H 0.53167 0.48523 0.9096 0.0
H2238 H 0.52529 0.46774 0.92684 0.0
H2239 H 0.47766 0.43112 0.93409 0.0
H2240 H 0.4751 0.45001 0.9585 0.0
H2241 H 0.50573 0.07023 0.81094 0.0
H2242 H 0.49802 0.06532 0.84195 0.0
H2243 H 0.48052 0.00346 0.83618 0.0
H2244 H 0.48805 0.0082 0.80527 0.0
H2245 H 0.45459 0.00954 0.85635 0.0
H2246 H 0.53205 0.05857 0.87812 0.0
H2247 H 0.52198 0.06982 0.86435 0.0
H2248 H 0.52569 0.05037 0.85587 0.0
C2249 C 0.50032 0.05561 0.81632 0.0
C2250 C 0.49758 0.03962 0.80566 0.0
C2251 C 0.49592 0.05283 0.83403 0.0
C2252 C 0.48892 0.03407 0.84142 0.0
C2253 C 0.48586 0.01805 0.83074 0.0
H2254 H 0.47276 0.97211 0.93318 0.0
H2255 H 0.46923 0.98332 0.90462 0.0
C2256 C 0.49014 0.02078 0.81307 0.0
C2257 C 0.48523 0.031 0.86032 0.0
H2258 H 0.50862 0.04212 0.89969 0.0
C2259 C 0.46635 0.01683 0.86586 0.0
C2260 C 0.50055 0.04065 0.87274 0.0
C2261 C 0.52125 0.0556 0.86754 0.0
C2262 C 0.46257 0.0115 0.88338 0.0
C2263 C 0.47811 0.02041 0.89563 0.0
C2264 C 0.4967 0.03536 0.89026 0.0
C2265 C 0.47628 0.01266 0.91345 0.0
C2266 C 0.44207 0.99607 0.88857 0.0
C2267 C 0.4811 0.02532 0.928 0.0
C2268 C 0.48306 0.01886 0.94441 0.0
C2269 C 0.48049 -0.00022 0.94642 0.0
C2270 C 0.47466 0.98683 0.93201 0.0
C2271 C 0.47253 0.9932 0.91569 0.0
H2272 H 0.43089 0.99575 0.8795 0.0
H2273 H 0.44079 0.98121 0.88813 0.0
H2274 H 0.43871 0.99884 0.90196 0.0
H2275 H 0.48432 0.04048 0.92652 0.0
H2276 H 0.48809 0.0293 0.95519 0.0
H2277 H 0.12089 0.26506 0.52158 0.0
H2278 H 0.12797 0.27252 0.49077 0.0
H2279 H 0.18821 0.31524 0.5036 0.0
H2280 H 0.18127 0.30777 0.53436 0.0
H2281 H 0.1392 0.30784 0.47675 0.0
H2282 H 0.19539 0.28676 0.46244 0.0
H2283 H 0.18047 0.27875 0.48171 0.0
H2284 H 0.20182 0.30315 0.4809 0.0
C2285 C 0.13569 0.27589 0.51781 0.0
C2286 C 0.15051 0.28583 0.53041 0.0
C2287 C 0.13975 0.28006 0.5002 0.0
C2288 C 0.1587 0.29424 0.49483 0.0
C2289 C 0.17363 0.30385 0.50736 0.0
H2290 H 0.18205 0.3663 0.40461 0.0
H2291 H 0.18224 0.3539 0.43362 0.0
C2292 C 0.1696 0.29962 0.52496 0.0
C2293 C 0.16227 0.30054 0.47644 0.0
H2294 H 0.19227 0.30802 0.4418 0.0
C2295 C 0.1507 0.30769 0.46909 0.0
C2296 C 0.17715 0.30019 0.46636 0.0
C2297 C 0.18929 0.29161 0.47319 0.0
C2298 C 0.1539 0.31499 0.45215 0.0
C2299 C 0.16945 0.31564 0.4424 0.0
C2300 C 0.18064 0.30788 0.44946 0.0
C2301 C 0.17391 0.32423 0.42479 0.0
C2302 C 0.14048 0.32184 0.44481 0.0
C2303 C 0.17055 0.31203 0.41015 0.0
C2304 C 0.1707 0.31918 0.39351 0.0
C2305 C 0.17418 0.3386 0.39135 0.0
C2306 C 0.17924 0.35125 0.40592 0.0
C2307 C 0.17926 0.34416 0.42249 0.0
H2308 H 0.12646 0.31565 0.45207 0.0
H2309 H 0.14789 0.33826 0.44576 0.0
H2310 H 0.13702 0.31746 0.43093 0.0
H2311 H 0.16644 0.29662 0.41168 0.0
H2312 H 0.16641 0.30902 0.38256 0.0
H2313 H 0.77667 0.91205 0.51527 0.0
H2314 H 0.7543 0.90628 0.49088 0.0
H2315 H 0.80126 0.92008 0.45493 0.0
H2316 H 0.82359 0.92533 0.47916 0.0
H2317 H 0.75717 0.93172 0.46154 0.0
H2318 H 0.75719 0.86271 0.44197 0.0
H2319 H 0.76583 0.87434 0.46301 0.0
H2320 H 0.78097 0.88458 0.44423 0.0
C2321 C 0.78223 0.91379 0.50217 0.0
C2322 C 0.80187 0.91894 0.49917 0.0
C2323 C 0.76948 0.91069 0.48827 0.0
C2324 C 0.77611 0.9126 0.47114 0.0
C2325 C 0.79584 0.91839 0.46808 0.0
H2326 H 0.71533 0.87614 0.37275 0.0
H2327 H 0.74027 0.89273 0.39519 0.0
C2328 C 0.8086 0.9215 0.48196 0.0
C2329 C 0.7621 0.90729 0.45645 0.0
H2330 H 0.73954 0.87282 0.42415 0.0
C2331 C 0.75329 0.91886 0.45333 0.0
C2332 C 0.75709 0.89051 0.4458 0.0
C2333 C 0.76561 0.87718 0.44893 0.0
C2334 C 0.73969 0.91413 0.43966 0.0
C2335 C 0.7346 0.89725 0.42912 0.0
C2336 C 0.74352 0.88581 0.43222 0.0
C2337 C 0.71984 0.89075 0.41489 0.0
C2338 C 0.7311 0.92734 0.43644 0.0
C2339 C 0.69999 0.88417 0.41842 0.0
C2340 C 0.68561 0.87445 0.40549 0.0
C2341 C 0.69095 0.87147 0.38881 0.0
C2342 C 0.71092 0.8791 0.38514 0.0
C2343 C 0.72517 0.88841 0.39806 0.0
H2344 H 0.74016 0.94224 0.44254 0.0
H2345 H 0.72976 0.92916 0.42231 0.0
H2346 H 0.71617 0.92044 0.4421 0.0
H2347 H 0.69546 0.88534 0.43144 0.0
H2348 H 0.67026 0.86832 0.40878 0.0
H2349 H 0.16354 0.86602 0.53465 0.0
H2350 H 0.1725 0.8643 0.50467 0.0
H2351 H 0.1474 0.89988 0.48866 0.0
H2352 H 0.13917 0.90248 0.51883 0.0
H2353 H 0.14707 0.84771 0.4778 0.0
H2354 H 0.19976 0.9267 0.46356 0.0
H2355 H 0.19242 0.91784 0.48538 0.0
H2356 H 0.17649 0.92223 0.47165 0.0
C2357 C 0.1603 0.87388 0.52485 0.0
C2358 C 0.15069 0.88446 0.52921 0.0
C2359 C 0.16534 0.87277 0.50768 0.0
C2360 C 0.1609 0.8822 0.49444 0.0
C2361 C 0.15137 0.89285 0.4987 0.0
H2362 H 0.15326 0.86042 0.38394 0.0
H2363 H 0.15422 0.87545 0.41223 0.0
C2364 C 0.14639 0.89405 0.51593 0.0
C2365 C 0.1649 0.87949 0.4761 0.0
H2366 H 0.18931 0.90402 0.43956 0.0
C2367 C 0.15639 0.86004 0.4695 0.0
C2368 C 0.17701 0.8956 0.46525 0.0
C2369 C 0.18711 0.91677 0.47182 0.0
C2370 C 0.15956 0.85624 0.45236 0.0
C2371 C 0.17166 0.8723 0.44153 0.0
C2372 C 0.18009 0.89179 0.44798 0.0
C2373 C 0.17537 0.86864 0.42344 0.0
C2374 C 0.14984 0.83503 0.44584 0.0
C2375 C 0.18768 0.86076 0.42019 0.0
C2376 C 0.18738 0.85246 0.40395 0.0
C2377 C 0.17488 0.85209 0.39071 0.0
C2378 C 0.16371 0.86137 0.39361 0.0
C2379 C 0.16404 0.8697 0.40986 0.0
H2380 H 0.13883 0.82451 0.45511 0.0
H2381 H 0.14245 0.83353 0.43316 0.0
H2382 H 0.1612 0.83072 0.44383 0.0
H2383 H 0.19641 0.85969 0.43059 0.0
H2384 H 0.19584 0.84507 0.40212 0.0
H2385 H 0.5576 0.79223 0.16943 0.0
H2386 H 0.57424 0.79613 0.19725 0.0
H2387 H 0.589 0.75186 0.18166 0.0
H2388 H 0.57184 0.74738 0.15394 0.0
H2389 H 0.57675 0.74918 0.21733 0.0
H2390 H 0.63497 0.82495 0.19939 0.0
H2391 H 0.6105 0.82111 0.19777 0.0
H2392 H 0.61782 0.80741 0.18373 0.0
C2393 C 0.56406 0.78304 0.17201 0.0
C2394 C 0.56355 0.76963 0.15937 0.0
C2395 C 0.57369 0.78541 0.18787 0.0
C2396 C 0.58308 0.7745 0.19138 0.0
C2397 C 0.58193 0.7605 0.17914 0.0
H2398 H 0.67408 0.81642 0.27055 0.0
H2399 H 0.65476 0.79868 0.24474 0.0
C2400 C 0.57228 0.75811 0.16326 0.0
C2401 C 0.59505 0.77861 0.20739 0.0
H2402 H 0.63472 0.8157 0.2287 0.0
C2403 C 0.5895 0.76367 0.21982 0.0
C2404 C 0.61194 0.79737 0.21039 0.0
C2405 C 0.61932 0.81359 0.19706 0.0
C2406 C 0.60001 0.76735 0.23553 0.0
C2407 C 0.61624 0.78643 0.23885 0.0
C2408 C 0.62217 0.80108 0.22615 0.0
C2409 C 0.62686 0.79214 0.25571 0.0
C2410 C 0.59393 0.75087 0.2484 0.0
C2411 C 0.61746 0.79367 0.27063 0.0
C2412 C 0.62848 0.80379 0.28537 0.0
C2413 C 0.64902 0.81241 0.2854 0.0
C2414 C 0.65822 0.80963 0.27091 0.0
C2415 C 0.64722 0.79955 0.25618 0.0
H2416 H 0.58336 0.73616 0.24264 0.0
H2417 H 0.60701 0.75044 0.25331 0.0
H2418 H 0.58691 0.75371 0.25967 0.0
H2419 H 0.60185 0.78853 0.27039 0.0
H2420 H 0.62116 0.8065 0.29604 0.0
H2421 H 0.21853 0.78264 0.17432 0.0
H2422 H 0.1987 0.7853 0.19742 0.0
H2423 H 0.17855 0.72481 0.2119 0.0
H2424 H 0.19782 0.72167 0.18838 0.0
H2425 H 0.1522 0.75279 0.2029 0.0
H2426 H 0.20553 0.76664 0.25657 0.0
H2427 H 0.21435 0.77502 0.23492 0.0
H2428 H 0.20132 0.74902 0.23936 0.0
C2429 C 0.2097 0.76977 0.18222 0.0
C2430 C 0.20977 0.75191 0.17939 0.0
C2431 C 0.19847 0.77137 0.19547 0.0
C2432 C 0.1872 0.75524 0.20627 0.0
C2433 C 0.18721 0.73741 0.20366 0.0
H2434 H 0.14052 0.77896 0.30048 0.0
H2435 H 0.14322 0.75769 0.27847 0.0
C2436 C 0.19836 0.73573 0.1903 0.0
C2437 C 0.17563 0.75742 0.22032 0.0
H2438 H 0.17969 0.77275 0.26246 0.0
C2439 C 0.15791 0.75669 0.21606 0.0
C2440 C 0.18309 0.76234 0.23744 0.0
C2441 C 0.20211 0.76333 0.24252 0.0
C2442 C 0.14792 0.76175 0.22835 0.0
C2443 C 0.15613 0.76805 0.24515 0.0
C2444 C 0.17327 0.76767 0.24964 0.0
C2445 C 0.14916 0.77799 0.25736 0.0
C2446 C 0.12905 0.76096 0.22307 0.0
C2447 C 0.15051 0.79597 0.25262 0.0
C2448 C 0.14896 0.80817 0.26514 0.0
C2449 C 0.14632 0.80274 0.28272 0.0
C2450 C 0.14298 0.7838 0.28713 0.0
C2451 C 0.14454 0.77159 0.27456 0.0
H2452 H 0.12131 0.74965 0.21267 0.0
H2453 H 0.11905 0.75751 0.23429 0.0
H2454 H 0.13248 0.77559 0.2179 0.0
H2455 H 0.15431 0.80135 0.23948 0.0
H2456 H 0.15143 0.82256 0.26119 0.0
H2457 H 0.15032 0.38458 0.1354 0.0
H2458 H 0.14363 0.38008 0.16655 0.0
H2459 H 0.18535 0.35982 0.17199 0.0
H2460 H 0.19192 0.36396 0.14088 0.0
H2461 H 0.12949 0.34493 0.18576 0.0
H2462 H 0.20252 0.40328 0.20972 0.0
H2463 H 0.19444 0.40221 0.18756 0.0
H2464 H 0.20395 0.38656 0.19436 0.0
C2465 C 0.15803 0.37909 0.14321 0.0
C2466 C 0.1717 0.37466 0.13563 0.0
C2467 C 0.15425 0.37664 0.16102 0.0
C2468 C 0.1642 0.3699 0.1716 0.0
C2469 C 0.17783 0.36546 0.1641 0.0
H2470 H 0.1445 0.30876 0.26493 0.0
H2471 H 0.14198 0.31932 0.23579 0.0
C2472 C 0.18159 0.36786 0.14631 0.0
C2473 C 0.15989 0.36675 0.19038 0.0
H2474 H 0.18207 0.37861 0.23024 0.0
C2475 C 0.14089 0.3525 0.19554 0.0
C2476 C 0.17466 0.37694 0.20313 0.0
C2477 C 0.19499 0.39325 0.19846 0.0
C2478 C 0.13661 0.34727 0.21304 0.0
C2479 C 0.15179 0.35638 0.22563 0.0
C2480 C 0.17045 0.37152 0.22058 0.0
C2481 C 0.14942 0.34907 0.24366 0.0
C2482 C 0.11599 0.33178 0.21785 0.0
C2483 C 0.15415 0.36217 0.25787 0.0
C2484 C 0.15563 0.35613 0.27459 0.0
C2485 C 0.1526 0.33698 0.27731 0.0
C2486 C 0.14679 0.32357 0.26322 0.0
C2487 C 0.14522 0.32956 0.24656 0.0
H2488 H 0.10506 0.33141 0.20845 0.0
H2489 H 0.11478 0.31695 0.21759 0.0
H2490 H 0.11221 0.33453 0.23108 0.0
H2491 H 0.15768 0.37736 0.25589 0.0
H2492 H 0.16067 0.3669 0.28509 0.0
H2493 H 0.8069 0.58972 0.85904 0.0
H2494 H 0.81687 0.59498 0.82853 0.0
H2495 H 0.84044 0.65794 0.83558 0.0
H2496 H 0.83125 0.65293 0.86607 0.0
H2497 H 0.80443 0.61036 0.80353 0.0
H2498 H 0.88495 0.65698 0.81038 0.0
H2499 H 0.86945 0.64299 0.82819 0.0
H2500 H 0.87261 0.66692 0.82291 0.0
C2501 C 0.81451 0.60472 0.85415 0.0
C2502 C 0.81823 0.6209 0.86501 0.0
C2503 C 0.82015 0.60768 0.83671 0.0
C2504 C 0.82977 0.62689 0.82985 0.0
C2505 C 0.8335 0.64304 0.84067 0.0
H2506 H 0.84704 0.6904 0.74009 0.0
H2507 H 0.84937 0.67764 0.76828 0.0
C2508 C 0.82791 0.6401 0.85805 0.0
C2509 C 0.83451 0.6301 0.8111 0.0
H2510 H 0.87091 0.65995 0.78321 0.0
C2511 C 0.81906 0.62081 0.799 0.0
C2512 C 0.85365 0.64364 0.8052 0.0
C2513 C 0.87113 0.65303 0.81736 0.0
C2514 C 0.82189 0.62586 0.78138 0.0
C2515 C 0.84075 0.64042 0.77571 0.0
C2516 C 0.85647 0.64882 0.7876 0.0
C2517 C 0.84359 0.64916 0.75822 0.0
C2518 C 0.8044 0.61658 0.7692 0.0
C2519 C 0.84061 0.63774 0.74309 0.0
C2520 C 0.83935 0.64507 0.72689 0.0
C2521 C 0.84101 0.66387 0.72566 0.0
C2522 C 0.84563 0.67584 0.74066 0.0
C2523 C 0.84698 0.66857 0.75678 0.0
H2524 H 0.79036 0.60745 0.77615 0.0
H2525 H 0.80333 0.62823 0.76188 0.0
H2526 H 0.80623 0.60687 0.75965 0.0
H2527 H 0.83815 0.62278 0.74393 0.0
H2528 H 0.83553 0.63544 0.7156 0.0
H2529 H 0.48459 0.25163 0.80968 0.0
H2530 H 0.46056 0.24576 0.78683 0.0
H2531 H 0.42232 0.24979 0.82465 0.0
H2532 H 0.44652 0.25623 0.84755 0.0
H2533 H 0.42286 0.21332 0.78674 0.0
H2534 H 0.42067 0.28342 0.78422 0.0
H2535 H 0.44084 0.28192 0.79395 0.0
H2536 H 0.41834 0.27356 0.80564 0.0
C2537 C 0.47127 0.25173 0.8131 0.0
C2538 C 0.46746 0.25436 0.83047 0.0
C2539 C 0.45754 0.24831 0.80002 0.0
C2540 C 0.43977 0.24759 0.804 0.0
C2541 C 0.43609 0.25067 0.82124 0.0
H2542 H 0.33101 0.17828 0.75019 0.0
H2543 H 0.35597 0.19761 0.77202 0.0
C2544 C 0.44982 0.25405 0.83435 0.0
C2545 C 0.42425 0.24144 0.79049 0.0
H2546 H 0.39468 0.25529 0.76945 0.0
C2547 C 0.4168 0.22257 0.7829 0.0
C2548 C 0.4165 0.2536 0.78537 0.0
C2549 C 0.42459 0.27434 0.79258 0.0
C2550 C 0.40147 0.21528 0.77068 0.0
C2551 C 0.39313 0.22707 0.76608 0.0
C2552 C 0.40094 0.24621 0.77322 0.0
C2553 C 0.37617 0.21923 0.75396 0.0
C2554 C 0.39436 0.19497 0.7627 0.0
C2555 C 0.37865 0.22593 0.73681 0.0
C2556 C 0.36439 0.21477 0.72417 0.0
C2557 C 0.34749 0.19687 0.72856 0.0
C2558 C 0.34403 0.19173 0.7462 0.0
C2559 C 0.35828 0.20279 0.75876 0.0
H2560 H 0.40533 0.19005 0.76429 0.0
H2561 H 0.38061 0.18404 0.76918 0.0
H2562 H 0.39112 0.19482 0.74865 0.0
H2563 H 0.39221 0.23888 0.73294 0.0
H2564 H 0.36728 0.21938 0.71081 0.0
H2565 H 0.7941 0.24203 0.84732 0.0
H2566 H 0.80201 0.24124 0.81666 0.0
H2567 H 0.83304 0.21053 0.82996 0.0
H2568 H 0.82488 0.21079 0.86047 0.0
H2569 H 0.85305 0.24478 0.80556 0.0
H2570 H 0.77626 0.18814 0.787 0.0
H2571 H 0.78015 0.20976 0.79906 0.0
H2572 H 0.78478 0.19186 0.80925 0.0
C2573 C 0.80249 0.23498 0.84371 0.0
C2574 C 0.8088 0.22642 0.85639 0.0
C2575 C 0.80709 0.23467 0.82621 0.0
C2576 C 0.81807 0.2258 0.8211 0.0
C2577 C 0.82466 0.21756 0.8337 0.0
H2578 H 0.85788 0.18425 0.73938 0.0
H2579 H 0.85589 0.20241 0.76454 0.0
C2580 C 0.82002 0.21778 0.85115 0.0
C2581 C 0.82206 0.2242 0.80257 0.0
H2582 H 0.80044 0.19708 0.76586 0.0
C2583 C 0.84154 0.23458 0.79675 0.0
C2584 C 0.80698 0.21107 0.79111 0.0
C2585 C 0.78584 0.19944 0.79682 0.0
C2586 C 0.84644 0.2316 0.7799 0.0
C2587 C 0.83152 0.21747 0.76879 0.0
C2588 C 0.8119 0.20792 0.77434 0.0
C2589 C 0.83598 0.21042 0.75237 0.0
C2590 C 0.86758 0.2434 0.77428 0.0
C2591 C 0.82562 0.20898 0.73702 0.0
C2592 C 0.82658 0.19835 0.72267 0.0
C2593 C 0.83801 0.1891 0.7234 0.0
C2594 C 0.84924 0.19153 0.73838 0.0
C2595 C 0.84821 0.20205 0.75274 0.0
H2596 H 0.87522 0.25814 0.78089 0.0
H2597 H 0.87534 0.23534 0.77797 0.0
H2598 H 0.86875 0.24563 0.76002 0.0
H2599 H 0.81584 0.215 0.73652 0.0
H2600 H 0.81707 0.19593 0.71163 0.0
H2601 H 0.23156 0.13042 0.50061 0.0
H2602 H 0.24745 0.13387 0.52877 0.0
H2603 H 0.26648 0.09324 0.51193 0.0
H2604 H 0.25018 0.08927 0.48381 0.0
H2605 H 0.25141 0.08704 0.54679 0.0
H2606 H 0.30801 0.16533 0.53462 0.0
H2607 H 0.2832 0.16021 0.53179 0.0
H2608 H 0.29272 0.14864 0.51755 0.0
C2609 C 0.23887 0.12198 0.50296 0.0
C2610 C 0.23971 0.10967 0.48991 0.0
C2611 C 0.24809 0.12411 0.51901 0.0
C2612 C 0.25837 0.11403 0.52231 0.0
C2613 C 0.25872 0.10123 0.50957 0.0
H2614 H 0.34279 0.1537 0.60727 0.0
H2615 H 0.32643 0.13781 0.57982 0.0
C2616 C 0.24953 0.09911 0.49348 0.0
C2617 C 0.26926 0.11742 0.53889 0.0
H2618 H 0.30602 0.15383 0.56341 0.0
C2619 C 0.26345 0.1016 0.55041 0.0
C2620 C 0.28521 0.1363 0.5434 0.0
C2621 C 0.29282 0.15357 0.53114 0.0
C2622 C 0.27267 0.1044 0.56668 0.0
C2623 C 0.28797 0.12356 0.57155 0.0
C2624 C 0.29423 0.13915 0.55972 0.0
C2625 C 0.29712 0.12841 0.58908 0.0
C2626 C 0.26582 0.08669 0.57827 0.0
C2627 C 0.28601 0.12776 0.60356 0.0
C2628 C 0.29532 0.1366 0.61933 0.0
C2629 C 0.3159 0.14639 0.62074 0.0
C2630 C 0.32688 0.14594 0.60657 0.0
C2631 C 0.31756 0.13696 0.59088 0.0
H2632 H 0.26462 0.07391 0.57068 0.0
H2633 H 0.27571 0.08949 0.58956 0.0
H2634 H 0.25086 0.08221 0.58298 0.0
H2635 H 0.27033 0.12186 0.60226 0.0
H2636 H 0.28661 0.13746 0.62981 0.0
H2637 H 0.85843 0.09017 0.48791 0.0
H2638 H 0.84224 0.09603 0.51256 0.0
H2639 H 0.88557 0.09657 0.54735 0.0
H2640 H 0.90226 0.09153 0.52284 0.0
H2641 H 0.82624 0.07447 0.54377 0.0
H2642 H 0.889 0.15016 0.55664 0.0
H2643 H 0.88659 0.13666 0.53676 0.0
H2644 H 0.89575 0.13127 0.55616 0.0
C2645 C 0.86461 0.09171 0.50079 0.0
C2646 C 0.88177 0.09056 0.50335 0.0
C2647 C 0.85522 0.09485 0.51487 0.0
C2648 C 0.86286 0.09697 0.53173 0.0
C2649 C 0.8796 0.09524 0.5344 0.0
H2650 H 0.84237 0.12918 0.63251 0.0
H2651 H 0.8492 0.11303 0.60846 0.0
C2652 C 0.88902 0.09218 0.52037 0.0
C2653 C 0.85385 0.10177 0.5465 0.0
H2654 H 0.86406 0.13686 0.57792 0.0
C2655 C 0.83442 0.08815 0.5512 0.0
C2656 C 0.86454 0.11969 0.55607 0.0
C2657 C 0.88506 0.13539 0.55108 0.0
C2658 C 0.82563 0.09178 0.5656 0.0
C2659 C 0.83654 0.10949 0.57536 0.0
C2660 C 0.85581 0.12319 0.57047 0.0
C2661 C 0.82854 0.11439 0.59079 0.0
C2662 C 0.80499 0.07656 0.57059 0.0
C2663 C 0.81409 0.11985 0.58899 0.0
C2664 C 0.80982 0.12873 0.60293 0.0
C2665 C 0.81987 0.13214 0.61884 0.0
C2666 C 0.83358 0.12572 0.62079 0.0
C2667 C 0.83777 0.11681 0.60694 0.0
H2668 H 0.79966 0.0623 0.56341 0.0
H2669 H 0.80422 0.07371 0.58474 0.0
H2670 H 0.79496 0.08235 0.56766 0.0
H2671 H 0.80711 0.11849 0.57652 0.0
H2672 H 0.79956 0.13401 0.60097 0.0
H2673 H 0.86189 0.7063 0.47828 0.0
H2674 H 0.85403 0.69939 0.50897 0.0
H2675 H 0.79474 0.68635 0.49878 0.0
H2676 H 0.80269 0.69409 0.46812 0.0
H2677 H 0.81038 0.70818 0.52943 0.0
H2678 H 0.82082 0.64289 0.52649 0.0
H2679 H 0.84198 0.66523 0.51937 0.0
H2680 H 0.8193 0.65513 0.50727 0.0
C2681 C 0.84726 0.70229 0.48257 0.0
C2682 C 0.83287 0.70056 0.47066 0.0
C2683 C 0.84273 0.69813 0.5001 0.0
C2684 C 0.82369 0.69196 0.50608 0.0
C2685 C 0.80947 0.69091 0.4944 0.0
H2686 H 0.79298 0.63263 0.60535 0.0
H2687 H 0.78918 0.64084 0.5755 0.0
C2688 C 0.81401 0.69515 0.47685 0.0
C2689 C 0.81851 0.68597 0.5244 0.0
H2690 H 0.81862 0.65438 0.55466 0.0
C2691 C 0.81198 0.69629 0.53496 0.0
C2692 C 0.82016 0.67016 0.53147 0.0
C2693 C 0.82574 0.65757 0.52052 0.0
C2694 C 0.80783 0.69173 0.55262 0.0
C2695 C 0.81064 0.67669 0.55993 0.0
C2696 C 0.81649 0.66594 0.54914 0.0
C2697 C 0.80888 0.67247 0.57883 0.0
C2698 C 0.80044 0.70303 0.56321 0.0
C2699 C 0.82048 0.68756 0.59087 0.0
C2700 C 0.82227 0.68289 0.60801 0.0
C2701 C 0.8127 0.66305 0.61331 0.0
C2702 C 0.80022 0.64807 0.6016 0.0
C2703 C 0.79816 0.65276 0.58454 0.0
H2704 H 0.79246 0.70835 0.55492 0.0
H2705 H 0.7905 0.69377 0.5737 0.0
H2706 H 0.81315 0.71626 0.56922 0.0
H2707 H 0.82939 0.70278 0.58674 0.0
H2708 H 0.83261 0.69458 0.6166 0.0
loop_
_geom_bond_atom_site_label_1
_geom_bond_atom_site_label_2
_geom_bond_distance
_geom_bond_site_symmetry_2
_ccdc_geom_bond_type
P0 O11 1.490 . S
P0 C14 1.812 . S
P0 C20 1.803 . S
P0 C26 1.819 . S
H1 C15 0.941 . S
H2 C16 0.939 . S
H3 C18 0.940 . S
H4 C19 0.940 . S
H5 C21 0.939 . S
H6 C22 0.942 . S
H7 C24 0.940 . S
H8 C25 0.939 . S
H9 C27 0.941 . S
H10 C31 0.939 . S
O11 P0 1.490 . S
H12 C28 0.939 . S
H13 C30 0.940 . S
C14 P0 1.812 . S
C14 C15 1.389 . S
C14 C19 1.391 . S
C15 H1 0.941 . S
C15 C14 1.389 . S
C15 C16 1.397 . S
C16 H2 0.939 . S
C16 C15 1.397 . S
C16 C17 1.378 . S
C17 C16 1.378 . S
C17 C18 1.378 . S
C18 H3 0.940 . S
C18 C17 1.378 . S
C18 C19 1.396 . S
C19 H4 0.940 . S
C19 C14 1.391 . S
C19 C18 1.396 . S
C20 P0 1.803 . S
C20 C21 1.378 . S
C20 C25 1.400 . S
C21 H5 0.939 . S
C21 C20 1.378 . S
C21 C22 1.361 . S
C22 H6 0.942 . S
C22 C21 1.361 . S
C22 C23 1.369 . S
C23 C22 1.369 . S
C23 C24 1.404 . S
C24 H7 0.940 . S
C24 C23 1.404 . S
C24 C25 1.389 . S
C25 H8 0.939 . S
C25 C20 1.400 . S
C25 C24 1.389 . S
C26 P0 1.819 . S
C26 C27 1.391 . S
C26 C31 1.391 . S
C27 H9 0.941 . S
C27 C26 1.391 . S
C27 C28 1.396 . S
C28 H12 0.939 . S
C28 C27 1.396 . S
C28 C29 1.397 . S
C29 C28 1.397 . S
C29 C30 1.385 . S
C30 H13 0.940 . S
C30 C29 1.385 . S
C30 C31 1.388 . S
C31 H10 0.939 . S
C31 C26 1.391 . S
C31 C30 1.388 . S
P32 O43 1.490 . S
P32 C46 1.812 . S
P32 C52 1.803 . S
P32 C58 1.819 . S
H33 C47 0.941 . S
H34 C48 0.939 . S
H35 C50 0.940 . S
H36 C51 0.940 . S
H37 C53 0.939 . S
H38 C54 0.942 . S
H39 C56 0.940 . S
H40 C57 0.939 . S
H41 C59 0.941 . S
H42 C63 0.939 . S
O43 P32 1.490 . S
H44 C60 0.939 . S
H45 C62 0.940 . S
C46 P32 1.812 . S
C46 C47 1.389 . S
C46 C51 1.391 . S
C47 H33 0.941 . S
C47 C46 1.389 . S
C47 C48 1.397 . S
C48 H34 0.939 . S
C48 C47 1.397 . S
C48 C49 1.378 . S
C49 C48 1.378 . S
C49 C50 1.378 . S
C50 H35 0.940 . S
C50 C49 1.378 . S
C50 C51 1.396 . S
C51 H36 0.940 . S
C51 C46 1.391 . S
C51 C50 1.396 . S
C52 P32 1.803 . S
C52 C53 1.378 . S
C52 C57 1.400 . S
C53 H37 0.939 . S
C53 C52 1.378 . S
C53 C54 1.361 . S
C54 H38 0.942 . S
C54 C53 1.361 . S
C54 C55 1.369 . S
C55 C54 1.369 . S
C55 C56 1.404 . S
C56 H39 0.940 . S
C56 C55 1.404 . S
C56 C57 1.389 . S
C57 H40 0.939 . S
C57 C52 1.400 . S
C57 C56 1.389 . S
C58 P32 1.819 . S
C58 C59 1.391 . S
C58 C63 1.391 . S
C59 H41 0.941 . S
C59 C58 1.391 . S
C59 C60 1.396 . S
C60 H44 0.939 . S
C60 C59 1.396 . S
C60 C61 1.397 . S
C61 C60 1.397 . S
C61 C62 1.385 . S
C62 H45 0.940 . S
C62 C61 1.385 . S
C62 C63 1.388 . S
C63 H42 0.939 . S
C63 C58 1.391 . S
C63 C62 1.388 . S
P64 O75 1.490 . S
P64 C78 1.812 . S
P64 C84 1.803 . S
P64 C90 1.819 . S
H65 C79 0.941 . S
H66 C80 0.939 . S
H67 C82 0.940 . S
H68 C83 0.940 . S
H69 C85 0.939 . S
H70 C86 0.942 . S
H71 C88 0.940 . S
H72 C89 0.939 . S
H73 C91 0.941 . S
H74 C95 0.939 . S
O75 P64 1.490 . S
H76 C92 0.939 . S
H77 C94 0.940 . S
C78 P64 1.812 . S
C78 C79 1.389 . S
C78 C83 1.391 . S
C79 H65 0.941 . S
C79 C78 1.389 . S
C79 C80 1.397 . S
C80 H66 0.939 . S
C80 C79 1.397 . S
C80 C81 1.378 . S
C81 C80 1.378 . S
C81 C82 1.378 . S
C82 H67 0.940 . S
C82 C81 1.378 . S
C82 C83 1.396 . S
C83 H68 0.940 . S
C83 C78 1.391 . S
C83 C82 1.396 . S
C84 P64 1.803 . S
C84 C85 1.378 . S
C84 C89 1.400 . S
C85 H69 0.939 . S
C85 C84 1.378 . S
C85 C86 1.361 . S
C86 H70 0.942 . S
C86 C85 1.361 . S
C86 C87 1.369 . S
C87 C86 1.369 . S
C87 C88 1.404 . S
C88 H71 0.940 . S
C88 C87 1.404 . S
C88 C89 1.389 . S
C89 H72 0.939 . S
C89 C84 1.400 . S
C89 C88 1.389 . S
C90 P64 1.819 . S
C90 C91 1.391 . S
C90 C95 1.391 . S
C91 H73 0.941 . S
C91 C90 1.391 . S
C91 C92 1.396 . S
C92 H76 0.939 . S
C92 C91 1.396 . S
C92 C93 1.397 . S
C93 C92 1.397 . S
C93 C94 1.385 . S
C94 H77 0.940 . S
C94 C93 1.385 . S
C94 C95 1.388 . S
C95 H74 0.939 . S
C95 C90 1.391 . S
C95 C94 1.388 . S
P96 O107 1.490 . S
P96 C110 1.812 . S
P96 C116 1.803 . S
P96 C122 1.819 . S
H97 C111 0.941 . S
H98 C112 0.939 . S
H99 C114 0.940 . S
H100 C115 0.940 . S
H101 C117 0.939 . S
H102 C118 0.942 . S
H103 C120 0.940 . S
H104 C121 0.939 . S
H105 C123 0.941 . S
H106 C127 0.939 . S
O107 P96 1.490 . S
H108 C124 0.939 . S
H109 C126 0.940 . S
C110 P96 1.812 . S
C110 C111 1.389 . S
C110 C115 1.391 . S
C111 H97 0.941 . S
C111 C110 1.389 . S
C111 C112 1.397 . S
C112 H98 0.939 . S
C112 C111 1.397 . S
C112 C113 1.378 . S
C113 C112 1.378 . S
C113 C114 1.378 . S
C114 H99 0.940 . S
C114 C113 1.378 . S
C114 C115 1.396 . S
C115 H100 0.940 . S
C115 C110 1.391 . S
C115 C114 1.396 . S
C116 P96 1.803 . S
C116 C117 1.378 . S
C116 C121 1.400 . S
C117 H101 0.939 . S
C117 C116 1.378 . S
C117 C118 1.361 . S
C118 H102 0.942 . S
C118 C117 1.361 . S
C118 C119 1.369 . S
C119 C118 1.369 . S
C119 C120 1.404 . S
C120 H103 0.940 . S
C120 C119 1.404 . S
C120 C121 1.389 . S
C121 H104 0.939 . S
C121 C116 1.400 . S
C121 C120 1.389 . S
C122 P96 1.819 . S
C122 C123 1.391 . S
C122 C127 1.391 . S
C123 H105 0.941 . S
C123 C122 1.391 . S
C123 C124 1.396 . S
C124 H108 0.939 . S
C124 C123 1.396 . S
C124 C125 1.397 . S
C125 C124 1.397 . S
C125 C126 1.385 . S
C126 H109 0.940 . S
C126 C125 1.385 . S
C126 C127 1.388 . S
C127 H106 0.939 . S
C127 C122 1.391 . S
C127 C126 1.388 . S
P128 O139 1.490 . S
P128 C142 1.812 . S
P128 C148 1.803 . S
P128 C154 1.819 . S
H129 C143 0.941 . S
H130 C144 0.939 . S
H131 C146 0.940 . S
H132 C147 0.940 . S
H133 C149 0.939 . S
H134 C150 0.942 . S
H135 C152 0.940 . S
H136 C153 0.939 . S
H137 C155 0.941 . S
H138 C159 0.939 . S
O139 P128 1.490 . S
H140 C156 0.939 . S
H141 C158 0.940 . S
C142 P128 1.812 . S
C142 C143 1.389 . S
C142 C147 1.391 . S
C143 H129 0.941 . S
C143 C142 1.389 . S
C143 C144 1.397 . S
C144 H130 0.939 . S
C144 C143 1.397 . S
C144 C145 1.378 . S
C145 C144 1.378 . S
C145 C146 1.378 . S
C146 H131 0.940 . S
C146 C145 1.378 . S
C146 C147 1.396 . S
C147 H132 0.940 . S
C147 C142 1.391 . S
C147 C146 1.396 . S
C148 P128 1.803 . S
C148 C149 1.378 . S
C148 C153 1.400 . S
C149 H133 0.939 . S
C149 C148 1.378 . S
C149 C150 1.361 . S
C150 H134 0.942 . S
C150 C149 1.361 . S
C150 C151 1.369 . S
C151 C150 1.369 . S
C151 C152 1.404 . S
C152 H135 0.940 . S
C152 C151 1.404 . S
C152 C153 1.389 . S
C153 H136 0.939 . S
C153 C148 1.400 . S
C153 C152 1.389 . S
C154 P128 1.819 . S
C154 C155 1.391 . S
C154 C159 1.391 . S
C155 H137 0.941 . S
C155 C154 1.391 . S
C155 C156 1.396 . S
C156 H140 0.939 . S
C156 C155 1.396 . S
C156 C157 1.397 . S
C157 C156 1.397 . S
C157 C158 1.385 . S
C158 H141 0.940 . S
C158 C157 1.385 . S
C158 C159 1.388 . S
C159 H138 0.939 . S
C159 C154 1.391 . S
C159 C158 1.388 . S
P160 O171 1.490 . S
P160 C174 1.812 . S
P160 C180 1.803 . S
P160 C186 1.819 . S
H161 C175 0.941 . S
H162 C176 0.939 . S
H163 C178 0.940 . S
H164 C179 0.940 . S
H165 C181 0.939 . S
H166 C182 0.942 . S
H167 C184 0.940 . S
H168 C185 0.939 . S
H169 C187 0.941 . S
H170 C191 0.939 . S
O171 P160 1.490 . S
H172 C188 0.939 . S
H173 C190 0.940 . S
C174 P160 1.812 . S
C174 C175 1.389 . S
C174 C179 1.391 . S
C175 H161 0.941 . S
C175 C174 1.389 . S
C175 C176 1.397 . S
C176 H162 0.939 . S
C176 C175 1.397 . S
C176 C177 1.378 . S
C177 C176 1.378 . S
C177 C178 1.378 . S
C178 H163 0.940 . S
C178 C177 1.378 . S
C178 C179 1.396 . S
C179 H164 0.940 . S
C179 C174 1.391 . S
C179 C178 1.396 . S
C180 P160 1.803 . S
C180 C181 1.378 . S
C180 C185 1.400 . S
C181 H165 0.939 . S
C181 C180 1.378 . S
C181 C182 1.361 . S
C182 H166 0.942 . S
C182 C181 1.361 . S
C182 C183 1.369 . S
C183 C182 1.369 . S
C183 C184 1.404 . S
C184 H167 0.940 . S
C184 C183 1.404 . S
C184 C185 1.389 . S
C185 H168 0.939 . S
C185 C180 1.400 . S
C185 C184 1.389 . S
C186 P160 1.819 . S
C186 C187 1.391 . S
C186 C191 1.391 . S
C187 H169 0.941 . S
C187 C186 1.391 . S
C187 C188 1.396 . S
C188 H172 0.939 . S
C188 C187 1.396 . S
C188 C189 1.397 . S
C189 C188 1.397 . S
C189 C190 1.385 . S
C190 H173 0.940 . S
C190 C189 1.385 . S
C190 C191 1.388 . S
C191 H170 0.939 . S
C191 C186 1.391 . S
C191 C190 1.388 . S
P192 O203 1.490 . S
P192 C206 1.812 . S
P192 C212 1.803 . S
P192 C218 1.819 . S
H193 C207 0.941 . S
H194 C208 0.939 . S
H195 C210 0.940 . S
H196 C211 0.940 . S
H197 C213 0.939 . S
H198 C214 0.942 . S
H199 C216 0.940 . S
H200 C217 0.939 . S
H201 C219 0.941 . S
H202 C223 0.939 . S
O203 P192 1.490 . S
H204 C220 0.939 . S
H205 C222 0.940 . S
C206 P192 1.812 . S
C206 C207 1.389 . S
C206 C211 1.391 . S
C207 H193 0.941 . S
C207 C206 1.389 . S
C207 C208 1.397 . S
C208 H194 0.939 . S
C208 C207 1.397 . S
C208 C209 1.378 . S
C209 C208 1.378 . S
C209 C210 1.378 . S
C210 H195 0.940 . S
C210 C209 1.378 . S
C210 C211 1.396 . S
C211 H196 0.940 . S
C211 C206 1.391 . S
C211 C210 1.396 . S
C212 P192 1.803 . S
C212 C213 1.378 . S
C212 C217 1.400 . S
C213 H197 0.939 . S
C213 C212 1.378 . S
C213 C214 1.361 . S
C214 H198 0.942 . S
C214 C213 1.361 . S
C214 C215 1.369 . S
C215 C214 1.369 . S
C215 C216 1.404 . S
C216 H199 0.940 . S
C216 C215 1.404 . S
C216 C217 1.389 . S
C217 H200 0.939 . S
C217 C212 1.400 . S
C217 C216 1.389 . S
C218 P192 1.819 . S
C218 C219 1.391 . S
C218 C223 1.391 . S
C219 H201 0.941 . S
C219 C218 1.391 . S
C219 C220 1.396 . S
C220 H204 0.939 . S
C220 C219 1.396 . S
C220 C221 1.397 . S
C221 C220 1.397 . S
C221 C222 1.385 . S
C222 H205 0.940 . S
C222 C221 1.385 . S
C222 C223 1.388 . S
C223 H202 0.939 . S
C223 C218 1.391 . S
C223 C222 1.388 . S
P224 O235 1.490 . S
P224 C238 1.812 . S
P224 C244 1.803 . S
P224 C250 1.819 . S
H225 C239 0.941 . S
H226 C240 0.939 . S
H227 C242 0.940 . S
H228 C243 0.940 . S
H229 C245 0.939 . S
H230 C246 0.942 . S
H231 C248 0.940 . S
H232 C249 0.939 . S
H233 C251 0.941 . S
H234 C255 0.939 . S
O235 P224 1.490 . S
H236 C252 0.939 . S
H237 C254 0.940 . S
C238 P224 1.812 . S
C238 C239 1.389 . S
C238 C243 1.391 . S
C239 H225 0.941 . S
C239 C238 1.389 . S
C239 C240 1.397 . S
C240 H226 0.939 . S
C240 C239 1.397 . S
C240 C241 1.378 . S
C241 C240 1.378 . S
C241 C242 1.378 . S
C242 H227 0.940 . S
C242 C241 1.378 . S
C242 C243 1.396 . S
C243 H228 0.940 . S
C243 C238 1.391 . S
C243 C242 1.396 . S
C244 P224 1.803 . S
C244 C245 1.378 . S
C244 C249 1.400 . S
C245 H229 0.939 . S
C245 C244 1.378 . S
C245 C246 1.361 . S
C246 H230 0.942 . S
C246 C245 1.361 . S
C246 C247 1.369 . S
C247 C246 1.369 . S
C247 C248 1.404 . S
C248 H231 0.940 . S
C248 C247 1.404 . S
C248 C249 1.389 . S
C249 H232 0.939 . S
C249 C244 1.400 . S
C249 C248 1.389 . S
C250 P224 1.819 . S
C250 C251 1.391 . S
C250 C255 1.391 . S
C251 H233 0.941 . S
C251 C250 1.391 . S
C251 C252 1.396 . S
C252 H236 0.939 . S
C252 C251 1.396 . S
C252 C253 1.397 . S
C253 C252 1.397 . S
C253 C254 1.385 . S
C254 H237 0.940 . S
C254 C253 1.385 . S
C254 C255 1.388 . S
C255 H234 0.939 . S
C255 C250 1.391 . S
C255 C254 1.388 . S
P256 O267 1.490 . S
P256 C270 1.812 . S
P256 C276 1.803 . S
P256 C282 1.819 . S
H257 C271 0.941 . S
H258 C272 0.939 . S
H259 C274 0.940 . S
H260 C275 0.940 . S
H261 C277 0.939 . S
H262 C278 0.942 . S
H263 C280 0.940 . S
H264 C281 0.939 . S
H265 C283 0.941 . S
H266 C287 0.939 . S
O267 P256 1.490 . S
H268 C284 0.939 . S
H269 C286 0.940 . S
C270 P256 1.812 . S
C270 C271 1.389 . S
C270 C275 1.391 . S
C271 H257 0.941 . S
C271 C270 1.389 . S
C271 C272 1.397 . S
C272 H258 0.939 . S
C272 C271 1.397 . S
C272 C273 1.378 . S
C273 C272 1.378 . S
C273 C274 1.378 . S
C274 H259 0.940 . S
C274 C273 1.378 . S
C274 C275 1.396 . S
C275 H260 0.940 . S
C275 C270 1.391 . S
C275 C274 1.396 . S
C276 P256 1.803 . S
C276 C277 1.378 . S
C276 C281 1.400 . S
C277 H261 0.939 . S
C277 C276 1.378 . S
C277 C278 1.361 . S
C278 H262 0.942 . S
C278 C277 1.361 . S
C278 C279 1.369 . S
C279 C278 1.369 . S
C279 C280 1.404 . S
C280 H263 0.940 . S
C280 C279 1.404 . S
C280 C281 1.389 . S
C281 H264 0.939 . S
C281 C276 1.400 . S
C281 C280 1.389 . S
C282 P256 1.819 . S
C282 C283 1.391 . S
C282 C287 1.391 . S
C283 H265 0.941 . S
C283 C282 1.391 . S
C283 C284 1.396 . S
C284 H268 0.939 . S
C284 C283 1.396 . S
C284 C285 1.397 . S
C285 C284 1.397 . S
C285 C286 1.385 . S
C286 H269 0.940 . S
C286 C285 1.385 . S
C286 C287 1.388 . S
C287 H266 0.939 . S
C287 C282 1.391 . S
C287 C286 1.388 . S
P288 O299 1.490 . S
P288 C302 1.812 . S
P288 C308 1.803 . S
P288 C314 1.819 . S
H289 C303 0.941 . S
H290 C304 0.939 . S
H291 C306 0.940 . S
H292 C307 0.940 . S
H293 C309 0.939 . S
H294 C310 0.942 . S
H295 C312 0.940 . S
H296 C313 0.939 . S
H297 C315 0.941 . S
H298 C319 0.939 . S
O299 P288 1.490 . S
H300 C316 0.939 . S
H301 C318 0.940 . S
C302 P288 1.812 . S
C302 C303 1.389 . S
C302 C307 1.391 . S
C303 H289 0.941 . S
C303 C302 1.389 . S
C303 C304 1.397 . S
C304 H290 0.939 . S
C304 C303 1.397 . S
C304 C305 1.378 . S
C305 C304 1.378 . S
C305 C306 1.378 . S
C306 H291 0.940 . S
C306 C305 1.378 . S
C306 C307 1.396 . S
C307 H292 0.940 . S
C307 C302 1.391 . S
C307 C306 1.396 . S
C308 P288 1.803 . S
C308 C309 1.378 . S
C308 C313 1.400 . S
C309 H293 0.939 . S
C309 C308 1.378 . S
C309 C310 1.361 . S
C310 H294 0.942 . S
C310 C309 1.361 . S
C310 C311 1.369 . S
C311 C310 1.369 . S
C311 C312 1.404 . S
C312 H295 0.940 . S
C312 C311 1.404 . S
C312 C313 1.389 . S
C313 H296 0.939 . S
C313 C308 1.400 . S
C313 C312 1.389 . S
C314 P288 1.819 . S
C314 C315 1.391 . S
C314 C319 1.391 . S
C315 H297 0.941 . S
C315 C314 1.391 . S
C315 C316 1.396 . S
C316 H300 0.939 . S
C316 C315 1.396 . S
C316 C317 1.397 . S
C317 C316 1.397 . S
C317 C318 1.385 . S
C318 H301 0.940 . S
C318 C317 1.385 . S
C318 C319 1.388 . S
C319 H298 0.939 . S
C319 C314 1.391 . S
C319 C318 1.388 . S
P320 O331 1.490 . S
P320 C334 1.812 . S
P320 C340 1.803 . S
P320 C346 1.819 . S
H321 C335 0.941 . S
H322 C336 0.939 . S
H323 C338 0.940 . S
H324 C339 0.940 . S
H325 C341 0.939 . S
H326 C342 0.942 . S
H327 C344 0.940 . S
H328 C345 0.939 . S
H329 C347 0.941 . S
H330 C351 0.939 . S
O331 P320 1.490 . S
H332 C348 0.939 . S
H333 C350 0.940 . S
C334 P320 1.812 . S
C334 C335 1.389 . S
C334 C339 1.391 . S
C335 H321 0.941 . S
C335 C334 1.389 . S
C335 C336 1.397 . S
C336 H322 0.939 . S
C336 C335 1.397 . S
C336 C337 1.378 . S
C337 C336 1.378 . S
C337 C338 1.378 . S
C338 H323 0.940 . S
C338 C337 1.378 . S
C338 C339 1.396 . S
C339 H324 0.940 . S
C339 C334 1.391 . S
C339 C338 1.396 . S
C340 P320 1.803 . S
C340 C341 1.378 . S
C340 C345 1.400 . S
C341 H325 0.939 . S
C341 C340 1.378 . S
C341 C342 1.361 . S
C342 H326 0.942 . S
C342 C341 1.361 . S
C342 C343 1.369 . S
C343 C342 1.369 . S
C343 C344 1.404 . S
C344 H327 0.940 . S
C344 C343 1.404 . S
C344 C345 1.389 . S
C345 H328 0.939 . S
C345 C340 1.400 . S
C345 C344 1.389 . S
C346 P320 1.819 . S
C346 C347 1.391 . S
C346 C351 1.391 . S
C347 H329 0.941 . S
C347 C346 1.391 . S
C347 C348 1.396 . S
C348 H332 0.939 . S
C348 C347 1.396 . S
C348 C349 1.397 . S
C349 C348 1.397 . S
C349 C350 1.385 . S
C350 H333 0.940 . S
C350 C349 1.385 . S
C350 C351 1.388 . S
C351 H330 0.939 . S
C351 C346 1.391 . S
C351 C350 1.388 . S
P352 O363 1.490 . S
P352 C366 1.812 . S
P352 C372 1.803 . S
P352 C378 1.819 . S
H353 C367 0.941 . S
H354 C368 0.939 . S
H355 C370 0.940 . S
H356 C371 0.940 . S
H357 C373 0.939 . S
H358 C374 0.942 . S
H359 C376 0.940 . S
H360 C377 0.939 . S
H361 C379 0.941 . S
H362 C383 0.939 . S
O363 P352 1.490 . S
H364 C380 0.939 . S
H365 C382 0.940 . S
C366 P352 1.812 . S
C366 C367 1.389 . S
C366 C371 1.391 . S
C367 H353 0.941 . S
C367 C366 1.389 . S
C367 C368 1.397 . S
C368 H354 0.939 . S
C368 C367 1.397 . S
C368 C369 1.378 . S
C369 C368 1.378 . S
C369 C370 1.378 . S
C370 H355 0.940 . S
C370 C369 1.378 . S
C370 C371 1.396 . S
C371 H356 0.940 . S
C371 C366 1.391 . S
C371 C370 1.396 . S
C372 P352 1.803 . S
C372 C373 1.378 . S
C372 C377 1.400 . S
C373 H357 0.939 . S
C373 C372 1.378 . S
C373 C374 1.361 . S
C374 H358 0.942 . S
C374 C373 1.361 . S
C374 C375 1.369 . S
C375 C374 1.369 . S
C375 C376 1.404 . S
C376 H359 0.940 . S
C376 C375 1.404 . S
C376 C377 1.389 . S
C377 H360 0.939 . S
C377 C372 1.400 . S
C377 C376 1.389 . S
C378 P352 1.819 . S
C378 C379 1.391 . S
C378 C383 1.391 . S
C379 H361 0.941 . S
C379 C378 1.391 . S
C379 C380 1.396 . S
C380 H364 0.939 . S
C380 C379 1.396 . S
C380 C381 1.397 . S
C381 C380 1.397 . S
C381 C382 1.385 . S
C382 H365 0.940 . S
C382 C381 1.385 . S
C382 C383 1.388 . S
C383 H362 0.939 . S
C383 C378 1.391 . S
C383 C382 1.388 . S
P384 O395 1.490 . S
P384 C398 1.812 . S
P384 C404 1.803 . S
P384 C410 1.819 . S
H385 C399 0.941 . S
H386 C400 0.939 . S
H387 C402 0.940 . S
H388 C403 0.940 . S
H389 C405 0.939 . S
H390 C406 0.942 . S
H391 C408 0.940 . S
H392 C409 0.939 . S
H393 C411 0.941 . S
H394 C415 0.939 . S
O395 P384 1.490 . S
H396 C412 0.939 . S
H397 C414 0.940 . S
C398 P384 1.812 . S
C398 C399 1.389 . S
C398 C403 1.391 . S
C399 H385 0.941 . S
C399 C398 1.389 . S
C399 C400 1.397 . S
C400 H386 0.939 . S
C400 C399 1.397 . S
C400 C401 1.378 . S
C401 C400 1.378 . S
C401 C402 1.378 . S
C402 H387 0.940 . S
C402 C401 1.378 . S
C402 C403 1.396 . S
C403 H388 0.940 . S
C403 C398 1.391 . S
C403 C402 1.396 . S
C404 P384 1.803 . S
C404 C405 1.378 . S
C404 C409 1.400 . S
C405 H389 0.939 . S
C405 C404 1.378 . S
C405 C406 1.361 . S
C406 H390 0.942 . S
C406 C405 1.361 . S
C406 C407 1.369 . S
C407 C406 1.369 . S
C407 C408 1.404 . S
C408 H391 0.940 . S
C408 C407 1.404 . S
C408 C409 1.389 . S
C409 H392 0.939 . S
C409 C404 1.400 . S
C409 C408 1.389 . S
C410 P384 1.819 . S
C410 C411 1.391 . S
C410 C415 1.391 . S
C411 H393 0.941 . S
C411 C410 1.391 . S
C411 C412 1.396 . S
C412 H396 0.939 . S
C412 C411 1.396 . S
C412 C413 1.397 . S
C413 C412 1.397 . S
C413 C414 1.385 . S
C414 H397 0.940 . S
C414 C413 1.385 . S
C414 C415 1.388 . S
C415 H394 0.939 . S
C415 C410 1.391 . S
C415 C414 1.388 . S
P416 O427 1.490 . S
P416 C430 1.812 . S
P416 C436 1.803 . S
P416 C442 1.819 . S
H417 C431 0.941 . S
H418 C432 0.939 . S
H419 C434 0.940 . S
H420 C435 0.940 . S
H421 C437 0.939 . S
H422 C438 0.942 . S
H423 C440 0.940 . S
H424 C441 0.939 . S
H425 C443 0.941 . S
H426 C447 0.939 . S
O427 P416 1.490 . S
H428 C444 0.939 . S
H429 C446 0.940 . S
C430 P416 1.812 . S
C430 C431 1.389 . S
C430 C435 1.391 . S
C431 H417 0.941 . S
C431 C430 1.389 . S
C431 C432 1.397 . S
C432 H418 0.939 . S
C432 C431 1.397 . S
C432 C433 1.378 . S
C433 C432 1.378 . S
C433 C434 1.378 . S
C434 H419 0.940 . S
C434 C433 1.378 . S
C434 C435 1.396 . S
C435 H420 0.940 . S
C435 C430 1.391 . S
C435 C434 1.396 . S
C436 P416 1.803 . S
C436 C437 1.378 . S
C436 C441 1.400 . S
C437 H421 0.939 . S
C437 C436 1.378 . S
C437 C438 1.361 . S
C438 H422 0.942 . S
C438 C437 1.361 . S
C438 C439 1.369 . S
C439 C438 1.369 . S
C439 C440 1.404 . S
C440 H423 0.940 . S
C440 C439 1.404 . S
C440 C441 1.389 . S
C441 H424 0.939 . S
C441 C436 1.400 . S
C441 C440 1.389 . S
C442 P416 1.819 . S
C442 C443 1.391 . S
C442 C447 1.391 . S
C443 H425 0.941 . S
C443 C442 1.391 . S
C443 C444 1.396 . S
C444 H428 0.939 . S
C444 C443 1.396 . S
C444 C445 1.397 . S
C445 C444 1.397 . S
C445 C446 1.385 . S
C446 H429 0.940 . S
C446 C445 1.385 . S
C446 C447 1.388 . S
C447 H426 0.939 . S
C447 C442 1.391 . S
C447 C446 1.388 . S
P448 O459 1.490 . S
P448 C462 1.812 . S
P448 C468 1.803 . S
P448 C474 1.819 . S
H449 C463 0.941 . S
H450 C464 0.939 . S
H451 C466 0.940 . S
H452 C467 0.940 . S
H453 C469 0.939 . S
H454 C470 0.942 . S
H455 C472 0.940 . S
H456 C473 0.939 . S
H457 C475 0.941 . S
H458 C479 0.939 . S
O459 P448 1.490 . S
H460 C476 0.939 . S
H461 C478 0.940 . S
C462 P448 1.812 . S
C462 C463 1.389 . S
C462 C467 1.391 . S
C463 H449 0.941 . S
C463 C462 1.389 . S
C463 C464 1.397 . S
C464 H450 0.939 . S
C464 C463 1.397 . S
C464 C465 1.378 . S
C465 C464 1.378 . S
C465 C466 1.378 . S
C466 H451 0.940 . S
C466 C465 1.378 . S
C466 C467 1.396 . S
C467 H452 0.940 . S
C467 C462 1.391 . S
C467 C466 1.396 . S
C468 P448 1.803 . S
C468 C469 1.378 . S
C468 C473 1.400 . S
C469 H453 0.939 . S
C469 C468 1.378 . S
C469 C470 1.361 . S
C470 H454 0.942 . S
C470 C469 1.361 . S
C470 C471 1.369 . S
C471 C470 1.369 . S
C471 C472 1.404 . S
C472 H455 0.940 . S
C472 C471 1.404 . S
C472 C473 1.389 . S
C473 H456 0.939 . S
C473 C468 1.400 . S
C473 C472 1.389 . S
C474 P448 1.819 . S
C474 C475 1.391 . S
C474 C479 1.391 . S
C475 H457 0.941 . S
C475 C474 1.391 . S
C475 C476 1.396 . S
C476 H460 0.939 . S
C476 C475 1.396 . S
C476 C477 1.397 . S
C477 C476 1.397 . S
C477 C478 1.385 . S
C478 H461 0.940 . S
C478 C477 1.385 . S
C478 C479 1.388 . S
C479 H458 0.939 . S
C479 C474 1.391 . S
C479 C478 1.388 . S
P480 O491 1.490 . S
P480 C494 1.812 . S
P480 C500 1.803 . S
P480 C506 1.819 . S
H481 C495 0.941 . S
H482 C496 0.939 . S
H483 C498 0.940 . S
H484 C499 0.940 . S
H485 C501 0.939 . S
H486 C502 0.942 . S
H487 C504 0.940 . S
H488 C505 0.939 . S
H489 C507 0.941 . S
H490 C511 0.939 . S
O491 P480 1.490 . S
H492 C508 0.939 . S
H493 C510 0.940 . S
C494 P480 1.812 . S
C494 C495 1.389 . S
C494 C499 1.391 . S
C495 H481 0.941 . S
C495 C494 1.389 . S
C495 C496 1.397 . S
C496 H482 0.939 . S
C496 C495 1.397 . S
C496 C497 1.378 . S
C497 C496 1.378 . S
C497 C498 1.378 . S
C498 H483 0.940 . S
C498 C497 1.378 . S
C498 C499 1.396 . S
C499 H484 0.940 . S
C499 C494 1.391 . S
C499 C498 1.396 . S
C500 P480 1.803 . S
C500 C501 1.378 . S
C500 C505 1.400 . S
C501 H485 0.939 . S
C501 C500 1.378 . S
C501 C502 1.361 . S
C502 H486 0.942 . S
C502 C501 1.361 . S
C502 C503 1.369 . S
C503 C502 1.369 . S
C503 C504 1.404 . S
C504 H487 0.940 . S
C504 C503 1.404 . S
C504 C505 1.389 . S
C505 H488 0.939 . S
C505 C500 1.400 . S
C505 C504 1.389 . S
C506 P480 1.819 . S
C506 C507 1.391 . S
C506 C511 1.391 . S
C507 H489 0.941 . S
C507 C506 1.391 . S
C507 C508 1.396 . S
C508 H492 0.939 . S
C508 C507 1.396 . S
C508 C509 1.397 . S
C509 C508 1.397 . S
C509 C510 1.385 . S
C510 H493 0.940 . S
C510 C509 1.385 . S
C510 C511 1.388 . S
C511 H490 0.939 . S
C511 C506 1.391 . S
C511 C510 1.388 . S
P512 O523 1.490 . S
P512 C526 1.812 . S
P512 C532 1.803 . S
P512 C538 1.819 . S
H513 C527 0.941 . S
H514 C528 0.939 . S
H515 C530 0.940 . S
H516 C531 0.940 . S
H517 C533 0.939 . S
H518 C534 0.942 . S
H519 C536 0.940 . S
H520 C537 0.939 . S
H521 C539 0.941 . S
H522 C543 0.939 . S
O523 P512 1.490 . S
H524 C540 0.939 . S
H525 C542 0.940 . S
C526 P512 1.812 . S
C526 C527 1.389 . S
C526 C531 1.391 . S
C527 H513 0.941 . S
C527 C526 1.389 . S
C527 C528 1.397 . S
C528 H514 0.939 . S
C528 C527 1.397 . S
C528 C529 1.378 . S
C529 C528 1.378 . S
C529 C530 1.378 . S
C530 H515 0.940 . S
C530 C529 1.378 . S
C530 C531 1.396 . S
C531 H516 0.940 . S
C531 C526 1.391 . S
C531 C530 1.396 . S
C532 P512 1.803 . S
C532 C533 1.378 . S
C532 C537 1.400 . S
C533 H517 0.939 . S
C533 C532 1.378 . S
C533 C534 1.361 . S
C534 H518 0.942 . S
C534 C533 1.361 . S
C534 C535 1.369 . S
C535 C534 1.369 . S
C535 C536 1.404 . S
C536 H519 0.940 . S
C536 C535 1.404 . S
C536 C537 1.389 . S
C537 H520 0.939 . S
C537 C532 1.400 . S
C537 C536 1.389 . S
C538 P512 1.819 . S
C538 C539 1.391 . S
C538 C543 1.391 . S
C539 H521 0.941 . S
C539 C538 1.391 . S
C539 C540 1.396 . S
C540 H524 0.939 . S
C540 C539 1.396 . S
C540 C541 1.397 . S
C541 C540 1.397 . S
C541 C542 1.385 . S
C542 H525 0.940 . S
C542 C541 1.385 . S
C542 C543 1.388 . S
C543 H522 0.939 . S
C543 C538 1.391 . S
C543 C542 1.388 . S
P544 O555 1.490 . S
P544 C558 1.812 . S
P544 C564 1.803 . S
P544 C570 1.819 . S
H545 C559 0.941 . S
H546 C560 0.939 . S
H547 C562 0.940 . S
H548 C563 0.940 . S
H549 C565 0.939 . S
H550 C566 0.942 . S
H551 C568 0.940 . S
H552 C569 0.939 . S
H553 C571 0.941 . S
H554 C575 0.939 . S
O555 P544 1.490 . S
H556 C572 0.939 . S
H557 C574 0.940 . S
C558 P544 1.812 . S
C558 C559 1.389 . S
C558 C563 1.391 . S
C559 H545 0.941 . S
C559 C558 1.389 . S
C559 C560 1.397 . S
C560 H546 0.939 . S
C560 C559 1.397 . S
C560 C561 1.378 . S
C561 C560 1.378 . S
C561 C562 1.378 . S
C562 H547 0.940 . S
C562 C561 1.378 . S
C562 C563 1.396 . S
C563 H548 0.940 . S
C563 C558 1.391 . S
C563 C562 1.396 . S
C564 P544 1.803 . S
C564 C565 1.378 . S
C564 C569 1.400 . S
C565 H549 0.939 . S
C565 C564 1.378 . S
C565 C566 1.361 . S
C566 H550 0.942 . S
C566 C565 1.361 . S
C566 C567 1.369 . S
C567 C566 1.369 . S
C567 C568 1.404 . S
C568 H551 0.940 . S
C568 C567 1.404 . S
C568 C569 1.389 . S
C569 H552 0.939 . S
C569 C564 1.400 . S
C569 C568 1.389 . S
C570 P544 1.819 . S
C570 C571 1.391 . S
C570 C575 1.391 . S
C571 H553 0.941 . S
C571 C570 1.391 . S
C571 C572 1.396 . S
C572 H556 0.939 . S
C572 C571 1.396 . S
C572 C573 1.397 . S
C573 C572 1.397 . S
C573 C574 1.385 . S
C574 H557 0.940 . S
C574 C573 1.385 . S
C574 C575 1.388 . S
C575 H554 0.939 . S
C575 C570 1.391 . S
C575 C574 1.388 . S
O576 Mn577 2.163 1_565 S
O576 C590 1.244 . S
Mn577 O576 2.163 1_545 S
Mn577 O580 2.160 . S
Mn577 O581 2.221 1_545 S
Mn577 O583 2.163 1_554 S
Mn577 O585 2.160 . S
Mn577 O595 2.221 . S
O578 Mn579 2.087 1_565 S
O578 C590 1.256 . S
Mn579 O578 2.087 1_545 S
Mn579 O586 2.089 . S
Mn579 O595 2.290 . S
Mn579 O596 2.251 . S
O580 Mn577 2.160 . S
O580 C591 1.239 1_554 S
O581 Mn577 2.221 1_565 S
O581 Mn582 2.290 1_554 S
O581 C592 1.278 . S
Mn582 O581 2.290 1_556 S
Mn582 O584 2.089 1_565 S
Mn582 O587 2.251 . S
Mn582 O588 2.087 . S
O583 Mn577 2.163 1_556 S
O583 C593 1.244 . S
O584 Mn582 2.089 1_545 S
O584 C591 1.256 . S
O585 Mn577 2.160 . S
O585 C594 1.239 . S
O586 Mn579 2.089 . S
O586 C594 1.256 . S
O587 Mn582 2.251 . S
O587 C592 1.241 1_556 S
O588 Mn582 2.087 . S
O588 C593 1.256 1_565 S
C589 O595 1.278 . S
C589 O596 1.241 . S
C590 O576 1.244 . S
C590 O578 1.256 . S
C591 O580 1.239 1_556 S
C591 O584 1.256 . S
C592 O581 1.278 . S
C592 O587 1.241 1_554 S
C593 O583 1.244 . S
C593 O588 1.256 1_545 S
C594 O585 1.239 . S
C594 O586 1.256 . S
O595 Mn577 2.221 . S
O595 Mn579 2.290 . S
O595 C589 1.278 . S
O596 Mn579 2.251 . S
O596 C589 1.241 . S
O597 Mn598 2.121 1_455 S
O597 C611 1.244 . S
Mn598 O597 2.121 1_655 S
Mn598 O601 2.201 . S
Mn598 O602 2.217 1_655 S
Mn598 O604 2.163 1_554 S
Mn598 O606 2.161 . S
Mn598 O616 2.228 . S
O599 Mn600 2.087 1_455 S
O599 C611 1.256 . S
Mn600 O599 2.087 1_655 S
Mn600 O607 2.089 1_655 S
Mn600 O616 2.290 . S
Mn600 O617 2.251 . S
O601 Mn598 2.201 . S
O601 C612 1.210 1_554 S
O602 Mn598 2.217 1_455 S
O602 Mn603 2.290 1_554 S
O602 C613 1.278 . S
Mn603 O602 2.290 1_556 S
Mn603 O605 2.089 1_455 S
Mn603 O608 2.251 . S
Mn603 O609 2.087 . S
O604 Mn598 2.163 1_556 S
O604 C614 1.241 . S
O605 Mn603 2.089 1_655 S
O605 C612 1.293 . S
O606 Mn598 2.161 . S
O606 C615 1.227 1_655 S
O607 Mn600 2.089 1_455 S
O607 C615 1.256 . S
O608 Mn603 2.251 . S
O608 C613 1.241 1_556 S
O609 Mn603 2.087 . S
O609 C614 1.258 1_455 S
C610 O616 1.278 . S
C610 O617 1.241 . S
C611 O597 1.244 . S
C611 O599 1.256 . S
C612 O601 1.210 1_556 S
C612 O605 1.293 . S
C613 O602 1.278 . S
C613 O608 1.241 1_554 S
C614 O604 1.241 . S
C614 O609 1.258 1_655 S
C615 O606 1.227 1_455 S
C615 O607 1.256 . S
O616 Mn598 2.228 . S
O616 Mn600 2.290 . S
O616 C610 1.278 . S
O617 Mn600 2.251 . S
O617 C610 1.241 . S
O618 Mn619 2.163 1_556 S
O618 C632 1.244 . S
Mn619 O618 2.163 1_554 S
Mn619 O622 2.160 . S
Mn619 O623 2.221 . S
Mn619 O625 2.163 . S
Mn619 O627 2.160 1_554 S
Mn619 O637 2.221 1_554 S
O620 Mn621 2.087 . S
O620 C632 1.256 . S
Mn621 O620 2.087 . S
Mn621 O628 2.089 . S
Mn621 O637 2.290 . S
Mn621 O638 2.251 1_556 S
O622 Mn619 2.160 . S
O622 C633 1.239 . S
O623 Mn619 2.221 . S
O623 Mn624 2.290 . S
O623 C634 1.278 . S
Mn624 O623 2.290 . S
Mn624 O626 2.089 . S
Mn624 O629 2.251 . S
Mn624 O630 2.087 . S
O625 Mn619 2.163 . S
O625 C635 1.244 . S
O626 Mn624 2.089 . S
O626 C633 1.256 . S
O627 Mn619 2.160 1_556 S
O627 C636 1.239 . S
O628 Mn621 2.089 . S
O628 C636 1.256 . S
O629 Mn624 2.251 . S
O629 C634 1.241 . S
O630 Mn624 2.087 . S
O630 C635 1.256 . S
C631 O637 1.278 1_554 S
C631 O638 1.241 . S
C632 O618 1.244 . S
C632 O620 1.256 . S
C633 O622 1.239 . S
C633 O626 1.256 . S
C634 O623 1.278 . S
C634 O629 1.241 . S
C635 O625 1.244 . S
C635 O630 1.256 . S
C636 O627 1.239 . S
C636 O628 1.256 . S
O637 Mn619 2.221 1_556 S
O637 Mn621 2.290 . S
O637 C631 1.278 1_556 S
O638 Mn621 2.251 1_554 S
O638 C631 1.241 . S
O639 Mn640 2.163 . S
O639 C653 1.244 . S
Mn640 O639 2.163 . S
Mn640 O643 2.160 . S
Mn640 O644 2.221 . S
Mn640 O646 2.163 . S
Mn640 O648 2.160 . S
Mn640 O658 2.221 . S
O641 Mn642 2.087 . S
O641 C653 1.256 . S
Mn642 O641 2.087 . S
Mn642 O649 2.089 . S
Mn642 O658 2.290 . S
Mn642 O659 2.251 . S
O643 Mn640 2.160 . S
O643 C654 1.239 . S
O644 Mn640 2.221 . S
O644 Mn645 2.290 . S
O644 C655 1.278 . S
Mn645 O644 2.290 . S
Mn645 O647 2.089 . S
Mn645 O650 2.251 . S
Mn645 O651 2.087 . S
O646 Mn640 2.163 . S
O646 C656 1.244 . S
O647 Mn645 2.089 . S
O647 C654 1.256 . S
O648 Mn640 2.160 . S
O648 C657 1.239 . S
O649 Mn642 2.089 . S
O649 C657 1.256 . S
O650 Mn645 2.251 . S
O650 C655 1.241 . S
O651 Mn645 2.087 . S
O651 C656 1.256 . S
C652 O658 1.278 . S
C652 O659 1.241 . S
C653 O639 1.244 . S
C653 O641 1.256 . S
C654 O643 1.239 . S
C654 O647 1.256 . S
C655 O644 1.278 . S
C655 O650 1.241 . S
C656 O646 1.244 . S
C656 O651 1.256 . S
C657 O648 1.239 . S
C657 O649 1.256 . S
O658 Mn640 2.221 . S
O658 Mn642 2.290 . S
O658 C652 1.278 . S
O659 Mn642 2.251 . S
O659 C652 1.241 . S
O660 Mn661 2.163 . S
O660 C674 1.244 . S
Mn661 O660 2.163 . S
Mn661 O664 2.160 . S
Mn661 O665 2.221 . S
Mn661 O667 2.163 . S
Mn661 O669 2.160 . S
Mn661 O679 2.221 . S
O662 Mn663 2.087 . S
O662 C674 1.256 . S
Mn663 O662 2.087 . S
Mn663 O670 2.089 . S
Mn663 O679 2.290 . S
Mn663 O680 2.251 . S
O664 Mn661 2.160 . S
O664 C675 1.239 . S
O665 Mn661 2.221 . S
O665 Mn666 2.290 . S
O665 C676 1.278 . S
Mn666 O665 2.290 . S
Mn666 O668 2.089 . S
Mn666 O671 2.251 . S
Mn666 O672 2.087 . S
O667 Mn661 2.163 . S
O667 C677 1.244 . S
O668 Mn666 2.089 . S
O668 C675 1.256 . S
O669 Mn661 2.160 . S
O669 C678 1.239 . S
O670 Mn663 2.089 . S
O670 C678 1.256 . S
O671 Mn666 2.251 . S
O671 C676 1.241 . S
O672 Mn666 2.087 . S
O672 C677 1.256 . S
C673 O679 1.278 . S
C673 O680 1.241 . S
C674 O660 1.244 . S
C674 O662 1.256 . S
C675 O664 1.239 . S
C675 O668 1.256 . S
C676 O665 1.278 . S
C676 O671 1.241 . S
C677 O667 1.244 . S
C677 O672 1.256 . S
C678 O669 1.239 . S
C678 O670 1.256 . S
O679 Mn661 2.221 . S
O679 Mn663 2.290 . S
O679 C673 1.278 . S
O680 Mn663 2.251 . S
O680 C673 1.241 . S
O681 Mn682 2.163 . S
O681 C695 1.244 . S
Mn682 O681 2.163 . S
Mn682 O685 2.160 . S
Mn682 O686 2.221 . S
Mn682 O688 2.163 . S
Mn682 O690 2.160 . S
Mn682 O700 2.221 . S
O683 Mn684 2.087 . S
O683 C695 1.256 . S
Mn684 O683 2.087 . S
Mn684 O691 2.089 . S
Mn684 O700 2.290 . S
Mn684 O701 2.251 . S
O685 Mn682 2.160 . S
O685 C696 1.239 . S
O686 Mn682 2.221 . S
O686 Mn687 2.290 . S
O686 C697 1.278 . S
Mn687 O686 2.290 . S
Mn687 O689 2.089 . S
Mn687 O692 2.251 . S
Mn687 O693 2.087 . S
O688 Mn682 2.163 . S
O688 C698 1.244 . S
O689 Mn687 2.089 . S
O689 C696 1.256 . S
O690 Mn682 2.160 . S
O690 C699 1.239 . S
O691 Mn684 2.089 . S
O691 C699 1.256 . S
O692 Mn687 2.251 . S
O692 C697 1.241 . S
O693 Mn687 2.087 . S
O693 C698 1.256 . S
C694 O700 1.278 . S
C694 O701 1.241 . S
C695 O681 1.244 . S
C695 O683 1.256 . S
C696 O685 1.239 . S
C696 O689 1.256 . S
C697 O686 1.278 . S
C697 O692 1.241 . S
C698 O688 1.244 . S
C698 O693 1.256 . S
C699 O690 1.239 . S
C699 O691 1.256 . S
O700 Mn682 2.221 . S
O700 Mn684 2.290 . S
O700 C694 1.278 . S
O701 Mn684 2.251 . S
O701 C694 1.241 . S
O702 Mn703 2.163 . S
O702 C716 1.244 . S
Mn703 O702 2.163 . S
Mn703 O706 2.160 . S
Mn703 O707 2.221 . S
Mn703 O709 2.163 . S
Mn703 O711 2.160 . S
Mn703 O721 2.221 . S
O704 Mn705 2.087 . S
O704 C716 1.256 . S
Mn705 O704 2.087 . S
Mn705 O712 2.089 . S
Mn705 O721 2.290 . S
Mn705 O722 2.251 . S
O706 Mn703 2.160 . S
O706 C717 1.239 . S
O707 Mn703 2.221 . S
O707 Mn708 2.290 . S
O707 C718 1.278 . S
Mn708 O707 2.290 . S
Mn708 O710 2.089 . S
Mn708 O713 2.251 . S
Mn708 O714 2.087 . S
O709 Mn703 2.163 . S
O709 C719 1.244 . S
O710 Mn708 2.089 . S
O710 C717 1.256 . S
O711 Mn703 2.160 . S
O711 C720 1.239 . S
O712 Mn705 2.089 . S
O712 C720 1.256 . S
O713 Mn708 2.251 . S
O713 C718 1.241 . S
O714 Mn708 2.087 . S
O714 C719 1.256 . S
C715 O721 1.278 . S
C715 O722 1.241 . S
C716 O702 1.244 . S
C716 O704 1.256 . S
C717 O706 1.239 . S
C717 O710 1.256 . S
C718 O707 1.278 . S
C718 O713 1.241 . S
C719 O709 1.244 . S
C719 O714 1.256 . S
C720 O711 1.239 . S
C720 O712 1.256 . S
O721 Mn703 2.221 . S
O721 Mn705 2.290 . S
O721 C715 1.278 . S
O722 Mn705 2.251 . S
O722 C715 1.241 . S
O723 Mn724 2.163 . S
O723 C737 1.244 . S
Mn724 O723 2.163 . S
Mn724 O727 2.160 . S
Mn724 O728 2.221 . S
Mn724 O730 2.163 . S
Mn724 O732 2.160 . S
Mn724 O742 2.221 . S
O725 Mn726 2.087 . S
O725 C737 1.256 . S
Mn726 O725 2.087 . S
Mn726 O733 2.089 . S
Mn726 O742 2.290 . S
Mn726 O743 2.251 . S
O727 Mn724 2.160 . S
O727 C738 1.239 . S
O728 Mn724 2.221 . S
O728 Mn729 2.290 . S
O728 C739 1.278 . S
Mn729 O728 2.290 . S
Mn729 O731 2.089 . S
Mn729 O734 2.251 . S
Mn729 O735 2.087 . S
O730 Mn724 2.163 . S
O730 C740 1.244 . S
O731 Mn729 2.089 . S
O731 C738 1.256 . S
O732 Mn724 2.160 . S
O732 C741 1.239 . S
O733 Mn726 2.089 . S
O733 C741 1.256 . S
O734 Mn729 2.251 . S
O734 C739 1.241 . S
O735 Mn729 2.087 . S
O735 C740 1.256 . S
C736 O742 1.278 . S
C736 O743 1.241 . S
C737 O723 1.244 . S
C737 O725 1.256 . S
C738 O727 1.239 . S
C738 O731 1.256 . S
C739 O728 1.278 . S
C739 O734 1.241 . S
C740 O730 1.244 . S
C740 O735 1.256 . S
C741 O732 1.239 . S
C741 O733 1.256 . S
O742 Mn724 2.221 . S
O742 Mn726 2.290 . S
O742 C736 1.278 . S
O743 Mn726 2.251 . S
O743 C736 1.241 . S
O744 Mn745 2.163 . S
O744 C758 1.244 . S
Mn745 O744 2.163 . S
Mn745 O748 2.160 . S
Mn745 O749 2.221 . S
Mn745 O751 2.163 . S
Mn745 O753 2.160 . S
Mn745 O763 2.221 . S
O746 Mn747 2.087 . S
O746 C758 1.256 . S
Mn747 O746 2.087 . S
Mn747 O754 2.089 . S
Mn747 O763 2.290 . S
Mn747 O764 2.251 . S
O748 Mn745 2.160 . S
O748 C759 1.239 . S
O749 Mn745 2.221 . S
O749 Mn750 2.290 . S
O749 C760 1.278 . S
Mn750 O749 2.290 . S
Mn750 O752 2.089 . S
Mn750 O755 2.251 . S
Mn750 O756 2.087 . S
O751 Mn745 2.163 . S
O751 C761 1.244 . S
O752 Mn750 2.089 . S
O752 C759 1.256 . S
O753 Mn745 2.160 . S
O753 C762 1.239 . S
O754 Mn747 2.089 . S
O754 C762 1.256 . S
O755 Mn750 2.251 . S
O755 C760 1.241 . S
O756 Mn750 2.087 . S
O756 C761 1.256 . S
C757 O763 1.278 . S
C757 O764 1.241 . S
C758 O744 1.244 . S
C758 O746 1.256 . S
C759 O748 1.239 . S
C759 O752 1.256 . S
C760 O749 1.278 . S
C760 O755 1.241 . S
C761 O751 1.244 . S
C761 O756 1.256 . S
C762 O753 1.239 . S
C762 O754 1.256 . S
O763 Mn745 2.221 . S
O763 Mn747 2.290 . S
O763 C757 1.278 . S
O764 Mn747 2.251 . S
O764 C757 1.241 . S
H765 C773 0.929 . S
H766 C775 0.930 . S
H767 C777 0.930 . S
H768 C780 0.929 . S
H769 C783 0.930 . S
H770 C785 0.960 . S
H771 C785 0.960 . S
H772 C785 0.960 . S
C773 H765 0.929 . S
C773 C774 1.377 . S
C773 C775 1.384 . S
C774 C773 1.377 . S
C774 C780 1.390 . S
C775 H766 0.930 . S
C775 C773 1.384 . S
C775 C776 1.372 . S
C776 C775 1.372 . S
C776 C777 1.400 . S
C776 C781 1.490 . S
C777 H767 0.930 . S
C777 C776 1.400 . S
C777 C780 1.386 . S
H778 C794 0.930 1_556 S
H779 C795 0.931 1_556 S
C780 H768 0.929 . S
C780 C774 1.390 . S
C780 C777 1.386 . S
C781 C776 1.490 . S
C781 C783 1.395 . S
C781 C784 1.403 . S
H782 C788 0.930 . S
C783 H769 0.930 . S
C783 C781 1.395 . S
C783 C786 1.403 . S
C784 C781 1.403 . S
C784 C785 1.524 . S
C784 C788 1.400 . S
C785 H770 0.960 . S
C785 H771 0.960 . S
C785 H772 0.960 . S
C785 C784 1.524 . S
C786 C783 1.403 . S
C786 C787 1.392 . S
C786 C790 1.495 . S
C787 C786 1.392 . S
C787 C788 1.385 . S
C787 C789 1.478 . S
C788 H782 0.930 . S
C788 C784 1.400 . S
C788 C787 1.385 . S
C789 C787 1.478 . S
C789 C791 1.381 . S
C789 C795 1.383 . S
C790 C786 1.495 . S
C790 H796 0.959 . S
C790 H797 0.961 . S
C790 H798 0.960 . S
C791 C789 1.381 . S
C791 C792 1.394 . S
C791 H799 0.930 . S
C792 C791 1.394 . S
C792 C793 1.383 . S
C792 H800 0.929 . S
C793 C792 1.383 . S
C793 C794 1.377 . S
C794 H778 0.930 1_554 S
C794 C793 1.377 . S
C794 C795 1.379 . S
C795 H779 0.931 1_554 S
C795 C789 1.383 . S
C795 C794 1.379 . S
H796 C790 0.959 . S
H797 C790 0.961 . S
H798 C790 0.960 . S
H799 C791 0.930 . S
H800 C792 0.929 . S
H801 C809 0.929 . S
H802 C811 0.930 . S
H803 C813 0.930 . S
H804 C816 0.929 . S
H805 C819 0.930 . S
H806 C821 0.960 . S
H807 C821 0.960 . S
H808 C821 0.960 . S
C809 H801 0.929 . S
C809 C810 1.377 . S
C809 C811 1.384 . S
C810 C809 1.377 . S
C810 C816 1.390 . S
C811 H802 0.930 . S
C811 C809 1.384 . S
C811 C812 1.372 . S
C812 C811 1.372 . S
C812 C813 1.400 . S
C812 C817 1.490 . S
C813 H803 0.930 . S
C813 C812 1.400 . S
C813 C816 1.386 . S
H814 C830 0.930 . S
H815 C831 0.931 . S
C816 H804 0.929 . S
C816 C810 1.390 . S
C816 C813 1.386 . S
C817 C812 1.490 . S
C817 C819 1.395 . S
C817 C820 1.403 . S
H818 C824 0.930 . S
C819 H805 0.930 . S
C819 C817 1.395 . S
C819 C822 1.403 . S
C820 C817 1.403 . S
C820 C821 1.524 . S
C820 C824 1.400 . S
C821 H806 0.960 . S
C821 H807 0.960 . S
C821 H808 0.960 . S
C821 C820 1.524 . S
C822 C819 1.403 . S
C822 C823 1.392 . S
C822 C826 1.495 . S
C823 C822 1.392 . S
C823 C824 1.385 . S
C823 C825 1.478 . S
C824 H818 0.930 . S
C824 C820 1.400 . S
C824 C823 1.385 . S
C825 C823 1.478 . S
C825 C827 1.381 . S
C825 C831 1.383 . S
C826 C822 1.495 . S
C826 H832 0.959 . S
C826 H833 0.961 . S
C826 H834 0.960 . S
C827 C825 1.381 . S
C827 C828 1.394 . S
C827 H835 0.962 . S
C828 C827 1.394 . S
C828 C829 1.383 . S
C828 H836 0.929 1_554 S
C829 C828 1.383 . S
C829 C830 1.377 . S
C830 H814 0.930 . S
C830 C829 1.377 . S
C830 C831 1.379 . S
C831 H815 0.931 . S
C831 C825 1.383 . S
C831 C830 1.379 . S
H832 C826 0.959 . S
H833 C826 0.961 . S
H834 C826 0.960 . S
H835 C827 0.962 . S
H836 C828 0.929 1_556 S
H837 C845 0.929 . S
H838 C847 0.930 . S
H839 C849 0.930 . S
H840 C852 0.929 . S
H841 C855 0.930 . S
H842 C857 0.960 . S
H843 C857 0.960 . S
H844 C857 0.960 . S
C845 H837 0.929 . S
C845 C846 1.377 . S
C845 C847 1.384 . S
C846 C845 1.377 . S
C846 C852 1.390 . S
C847 H838 0.930 . S
C847 C845 1.384 . S
C847 C848 1.372 . S
C848 C847 1.372 . S
C848 C849 1.400 . S
C848 C853 1.490 . S
C849 H839 0.930 . S
C849 C848 1.400 . S
C849 C852 1.386 . S
H850 C866 0.930 . S
H851 C867 0.931 . S
C852 H840 0.929 . S
C852 C846 1.390 . S
C852 C849 1.386 . S
C853 C848 1.490 . S
C853 C855 1.395 . S
C853 C856 1.403 . S
H854 C860 0.930 . S
C855 H841 0.930 . S
C855 C853 1.395 . S
C855 C858 1.403 . S
C856 C853 1.403 . S
C856 C857 1.524 . S
C856 C860 1.400 . S
C857 H842 0.960 . S
C857 H843 0.960 . S
C857 H844 0.960 . S
C857 C856 1.524 . S
C858 C855 1.403 . S
C858 C859 1.392 . S
C858 C862 1.495 . S
C859 C858 1.392 . S
C859 C860 1.385 . S
C859 C861 1.478 . S
C860 H854 0.930 . S
C860 C856 1.400 . S
C860 C859 1.385 . S
C861 C859 1.478 . S
C861 C863 1.381 . S
C861 C867 1.383 . S
C862 C858 1.495 . S
C862 H868 0.959 . S
C862 H869 0.961 . S
C862 H870 0.960 . S
C863 C861 1.381 . S
C863 C864 1.394 . S
C863 H871 0.930 1_554 S
C864 C863 1.394 . S
C864 C865 1.383 . S
C864 H872 0.929 1_554 S
C865 C864 1.383 . S
C865 C866 1.377 . S
C866 H850 0.930 . S
C866 C865 1.377 . S
C866 C867 1.379 . S
C867 H851 0.931 . S
C867 C861 1.383 . S
C867 C866 1.379 . S
H868 C862 0.959 . S
H869 C862 0.961 . S
H870 C862 0.960 . S
H871 C863 0.930 1_556 S
H872 C864 0.929 1_556 S
H873 C881 0.929 . S
H874 C883 0.930 . S
H875 C885 0.930 . S
H876 C888 0.929 . S
H877 C891 0.930 . S
H878 C893 0.960 . S
H879 C893 0.960 . S
H880 C893 0.960 . S
C881 H873 0.929 . S
C881 C882 1.377 . S
C881 C883 1.384 . S
C882 C881 1.377 . S
C882 C888 1.390 . S
C883 H874 0.930 . S
C883 C881 1.384 . S
C883 C884 1.372 . S
C884 C883 1.372 . S
C884 C885 1.400 . S
C884 C889 1.490 . S
C885 H875 0.930 . S
C885 C884 1.400 . S
C885 C888 1.386 . S
H886 C902 0.930 . S
H887 C903 0.931 . S
C888 H876 0.929 . S
C888 C882 1.390 . S
C888 C885 1.386 . S
C889 C884 1.490 . S
C889 C891 1.395 . S
C889 C892 1.403 . S
H890 C896 0.930 . S
C891 H877 0.930 . S
C891 C889 1.395 . S
C891 C894 1.403 . S
C892 C889 1.403 . S
C892 C893 1.524 . S
C892 C896 1.400 . S
C893 H878 0.960 . S
C893 H879 0.960 . S
C893 H880 0.960 . S
C893 C892 1.524 . S
C894 C891 1.403 . S
C894 C895 1.392 . S
C894 C898 1.495 . S
C895 C894 1.392 . S
C895 C896 1.385 . S
C895 C897 1.478 . S
C896 H890 0.930 . S
C896 C892 1.400 . S
C896 C895 1.385 . S
C897 C895 1.478 . S
C897 C899 1.381 . S
C897 C903 1.383 1_556 S
C898 C894 1.495 . S
C898 H904 0.959 . S
C898 H905 0.961 . S
C898 H906 0.960 . S
C899 C897 1.381 . S
C899 C900 1.394 . S
C899 H907 0.930 . S
C900 C899 1.394 . S
C900 C901 1.383 . S
C900 H908 0.929 . S
C901 C900 1.383 . S
C901 C902 1.377 1_556 S
C902 H886 0.930 . S
C902 C901 1.377 1_554 S
C902 C903 1.379 . S
C903 H887 0.931 . S
C903 C897 1.383 1_554 S
C903 C902 1.379 . S
H904 C898 0.959 . S
H905 C898 0.961 . S
H906 C898 0.960 . S
H907 C899 0.930 . S
H908 C900 0.929 . S
H909 C917 0.929 . S
H910 C919 0.894 1_554 S
H911 C921 0.930 . S
H912 C924 0.929 . S
H913 C927 0.930 . S
H914 C929 0.960 . S
H915 C929 0.960 . S
H916 C929 0.960 . S
C917 H909 0.929 . S
C917 C918 1.377 . S
C917 C919 1.384 . S
C918 C917 1.377 . S
C918 C924 1.390 . S
C919 H910 0.894 1_556 S
C919 C917 1.384 . S
C919 C920 1.372 . S
C920 C919 1.372 . S
C920 C921 1.400 . S
C920 C925 1.490 . S
C921 H911 0.930 . S
C921 C920 1.400 . S
C921 C924 1.386 . S
H922 C938 0.930 . S
H923 C939 0.931 . S
C924 H912 0.929 . S
C924 C918 1.390 . S
C924 C921 1.386 . S
C925 C920 1.490 . S
C925 C927 1.395 . S
C925 C928 1.403 . S
H926 C932 0.930 . S
C927 H913 0.930 . S
C927 C925 1.395 . S
C927 C930 1.403 . S
C928 C925 1.403 . S
C928 C929 1.524 . S
C928 C932 1.400 . S
C929 H914 0.960 . S
C929 H915 0.960 . S
C929 H916 0.960 . S
C929 C928 1.524 . S
C930 C927 1.403 . S
C930 C931 1.392 . S
C930 C934 1.495 . S
C931 C930 1.392 . S
C931 C932 1.385 . S
C931 C933 1.478 . S
C932 H926 0.930 . S
C932 C928 1.400 . S
C932 C931 1.385 . S
C933 C931 1.478 . S
C933 C935 1.381 1_556 S
C933 C939 1.383 . S
C934 C930 1.495 . S
C934 H940 0.959 . S
C934 H941 0.961 . S
C934 H942 0.960 1_556 S
C935 C933 1.381 1_554 S
C935 C936 1.394 . S
C935 H943 0.930 . S
C936 C935 1.394 . S
C936 C937 1.383 1_554 S
C936 H944 0.929 . S
C937 C936 1.383 1_556 S
C937 C938 1.377 . S
C938 H922 0.930 . S
C938 C937 1.377 . S
C938 C939 1.379 . S
C939 H923 0.931 . S
C939 C933 1.383 . S
C939 C938 1.379 . S
H940 C934 0.959 . S
H941 C934 0.961 . S
H942 C934 0.960 1_554 S
H943 C935 0.930 . S
H944 C936 0.929 . S
H945 C953 0.929 . S
H946 C955 0.930 . S
H947 C957 0.930 1_554 S
H948 C960 0.932 . S
H949 C963 0.930 . S
H950 C965 0.960 . S
H951 C965 0.960 1_556 S
H952 C965 0.960 . S
C953 H945 0.929 . S
C953 C954 1.377 . S
C953 C955 1.384 . S
C954 C953 1.377 . S
C954 C960 1.390 . S
C955 H946 0.930 . S
C955 C953 1.384 . S
C955 C956 1.372 . S
C956 C955 1.372 . S
C956 C957 1.400 . S
C956 C961 1.490 . S
C957 H947 0.930 1_556 S
C957 C956 1.400 . S
C957 C960 1.386 . S
H958 C974 0.930 . S
H959 C975 0.931 . S
C960 H948 0.932 . S
C960 C954 1.390 . S
C960 C957 1.386 . S
C961 C956 1.490 . S
C961 C963 1.395 . S
C961 C964 1.403 . S
H962 C968 0.930 1_554 S
C963 H949 0.930 . S
C963 C961 1.395 . S
C963 C966 1.403 . S
C964 C961 1.403 . S
C964 C965 1.524 1_556 S
C964 C968 1.400 . S
C965 H950 0.960 . S
C965 H951 0.960 1_554 S
C965 H952 0.960 . S
C965 C964 1.524 1_554 S
C966 C963 1.403 . S
C966 C967 1.392 . S
C966 C970 1.495 . S
C967 C966 1.392 . S
C967 C968 1.385 . S
C967 C969 1.478 . S
C968 H962 0.930 1_556 S
C968 C964 1.400 . S
C968 C967 1.385 . S
C969 C967 1.478 . S
C969 C971 1.381 . S
C969 C975 1.383 1_556 S
C970 C966 1.495 . S
C970 H976 0.959 . S
C970 H977 0.961 . S
C970 H978 0.960 . S
C971 C969 1.381 . S
C971 C972 1.394 . S
C971 H979 0.930 . S
C972 C971 1.394 . S
C972 C973 1.383 . S
C972 H980 0.929 . S
C973 C972 1.383 . S
C973 C974 1.377 1_556 S
C974 H958 0.930 . S
C974 C973 1.377 1_554 S
C974 C975 1.379 . S
C975 H959 0.931 . S
C975 C969 1.383 1_554 S
C975 C974 1.379 . S
H976 C970 0.959 . S
H977 C970 0.961 . S
H978 C970 0.960 . S
H979 C971 0.930 . S
H980 C972 0.929 . S
H981 C989 0.929 . S
H982 C991 0.930 . S
H983 C993 0.870 1_554 S
H984 C996 0.929 . S
H985 C999 0.930 . S
H986 C1001 0.960 . S
H987 C1001 0.960 . S
H988 C1001 0.960 . S
C989 H981 0.929 . S
C989 C990 1.377 . S
C989 C991 1.384 . S
C990 C989 1.377 . S
C990 C996 1.390 . S
C991 H982 0.930 . S
C991 C989 1.384 . S
C991 C992 1.372 . S
C992 C991 1.372 . S
C992 C993 1.400 . S
C992 C997 1.490 . S
C993 H983 0.870 1_556 S
C993 C992 1.400 . S
C993 C996 1.386 . S
H994 C1010 0.930 . S
H995 C1011 0.931 . S
C996 H984 0.929 . S
C996 C990 1.390 . S
C996 C993 1.386 . S
C997 C992 1.490 . S
C997 C999 1.395 . S
C997 C1000 1.403 . S
H998 C1004 0.930 . S
C999 H985 0.930 . S
C999 C997 1.395 . S
C999 C1002 1.403 . S
C1000 C997 1.403 . S
C1000 C1001 1.524 . S
C1000 C1004 1.400 . S
C1001 H986 0.960 . S
C1001 H987 0.960 . S
C1001 H988 0.960 . S
C1001 C1000 1.524 . S
C1002 C999 1.403 . S
C1002 C1003 1.392 . S
C1002 C1006 1.495 . S
C1003 C1002 1.392 . S
C1003 C1004 1.385 . S
C1003 C1005 1.478 . S
C1004 H998 0.930 . S
C1004 C1000 1.400 . S
C1004 C1003 1.385 . S
C1005 C1003 1.478 . S
C1005 C1007 1.381 . S
C1005 C1011 1.383 1_556 S
C1006 C1002 1.495 . S
C1006 H1012 0.959 . S
C1006 H1013 0.961 . S
C1006 H1014 0.960 . S
C1007 C1005 1.381 . S
C1007 C1008 1.394 . S
C1007 H1015 0.930 . S
C1008 C1007 1.394 . S
C1008 C1009 1.383 . S
C1008 H1016 0.929 . S
C1009 C1008 1.383 . S
C1009 C1010 1.377 1_556 S
C1010 H994 0.930 . S
C1010 C1009 1.377 1_554 S
C1010 C1011 1.379 . S
C1011 H995 0.931 . S
C1011 C1005 1.383 1_554 S
C1011 C1010 1.379 . S
H1012 C1006 0.959 . S
H1013 C1006 0.961 . S
H1014 C1006 0.960 . S
H1015 C1007 0.930 . S
H1016 C1008 0.929 . S
H1017 C1025 0.929 . S
H1018 C1027 0.930 . S
H1019 C1029 0.959 . S
H1020 C1032 0.929 . S
H1021 C1035 0.930 . S
H1022 C1037 0.960 . S
H1023 C1037 0.960 . S
H1024 C1037 0.960 . S
C1025 H1017 0.929 . S
C1025 C1026 1.377 . S
C1025 C1027 1.384 . S
C1026 C1025 1.377 . S
C1026 C1032 1.390 . S
C1027 H1018 0.930 . S
C1027 C1025 1.384 . S
C1027 C1028 1.372 . S
C1028 C1027 1.372 . S
C1028 C1029 1.400 . S
C1028 C1033 1.490 . S
C1029 H1019 0.959 . S
C1029 C1028 1.400 . S
C1029 C1032 1.386 . S
H1030 C1046 0.930 . S
H1031 C1047 0.931 . S
C1032 H1020 0.929 . S
C1032 C1026 1.390 . S
C1032 C1029 1.386 . S
C1033 C1028 1.490 . S
C1033 C1035 1.395 . S
C1033 C1036 1.403 . S
H1034 C1040 0.930 . S
C1035 H1021 0.930 . S
C1035 C1033 1.395 . S
C1035 C1038 1.403 . S
C1036 C1033 1.403 . S
C1036 C1037 1.524 . S
C1036 C1040 1.400 . S
C1037 H1022 0.960 . S
C1037 H1023 0.960 . S
C1037 H1024 0.960 . S
C1037 C1036 1.524 . S
C1038 C1035 1.403 . S
C1038 C1039 1.392 . S
C1038 C1042 1.495 . S
C1039 C1038 1.392 . S
C1039 C1040 1.385 . S
C1039 C1041 1.478 . S
C1040 H1034 0.930 . S
C1040 C1036 1.400 . S
C1040 C1039 1.385 . S
C1041 C1039 1.478 . S
C1041 C1043 1.381 . S
C1041 C1047 1.383 1_556 S
C1042 C1038 1.495 . S
C1042 H1048 0.959 . S
C1042 H1049 0.961 1_556 S
C1042 H1050 0.960 . S
C1043 C1041 1.381 . S
C1043 C1044 1.394 . S
C1043 H1051 0.930 . S
C1044 C1043 1.394 . S
C1044 C1045 1.414 . S
C1044 H1052 0.929 . S
C1045 C1044 1.414 . S
C1045 C1046 1.353 1_556 S
C1046 H1030 0.930 . S
C1046 C1045 1.353 1_554 S
C1046 C1047 1.379 . S
C1047 H1031 0.931 . S
C1047 C1041 1.383 1_554 S
C1047 C1046 1.379 . S
H1048 C1042 0.959 . S
H1049 C1042 0.961 1_554 S
H1050 C1042 0.960 . S
H1051 C1043 0.930 . S
H1052 C1044 0.929 . S
H1053 C1061 0.929 . S
H1054 C1063 0.930 . S
H1055 C1065 0.930 . S
H1056 C1068 0.929 . S
H1057 C1071 0.930 . S
H1058 C1073 0.960 . S
H1059 C1073 0.960 . S
H1060 C1073 0.960 . S
C1061 H1053 0.929 . S
C1061 C1062 1.377 . S
C1061 C1063 1.384 . S
C1062 C1061 1.377 . S
C1062 C1068 1.390 . S
C1063 H1054 0.930 . S
C1063 C1061 1.384 . S
C1063 C1064 1.372 . S
C1064 C1063 1.372 . S
C1064 C1065 1.400 . S
C1064 C1069 1.490 . S
C1065 H1055 0.930 . S
C1065 C1064 1.400 . S
C1065 C1068 1.386 . S
H1066 C1082 0.930 . S
H1067 C1083 0.929 1_554 S
C1068 H1056 0.929 . S
C1068 C1062 1.390 . S
C1068 C1065 1.386 . S
C1069 C1064 1.490 . S
C1069 C1071 1.395 . S
C1069 C1072 1.403 . S
H1070 C1076 0.917 1_554 S
C1071 H1057 0.930 . S
C1071 C1069 1.395 . S
C1071 C1074 1.403 . S
C1072 C1069 1.403 . S
C1072 C1073 1.524 1_556 S
C1072 C1076 1.401 . S
C1073 H1058 0.960 . S
C1073 H1059 0.960 . S
C1073 H1060 0.960 . S
C1073 C1072 1.524 1_554 S
C1074 C1071 1.403 . S
C1074 C1075 1.392 . S
C1074 C1078 1.495 . S
C1075 C1074 1.392 . S
C1075 C1076 1.397 . S
C1075 C1077 1.478 . S
C1076 H1070 0.917 1_556 S
C1076 C1072 1.401 . S
C1076 C1075 1.397 . S
C1077 C1075 1.478 . S
C1077 C1079 1.381 . S
C1077 C1083 1.383 . S
C1078 C1074 1.495 . S
C1078 H1084 0.959 . S
C1078 H1085 0.961 . S
C1078 H1086 0.960 . S
C1079 C1077 1.381 . S
C1079 C1080 1.394 . S
C1079 H1087 0.930 . S
C1080 C1079 1.394 . S
C1080 C1081 1.383 . S
C1080 H1088 0.929 . S
C1081 C1080 1.383 . S
C1081 C1082 1.377 1_556 S
C1082 H1066 0.930 . S
C1082 C1081 1.377 1_554 S
C1082 C1083 1.379 1_554 S
C1083 H1067 0.929 1_556 S
C1083 C1077 1.383 . S
C1083 C1082 1.379 1_556 S
H1084 C1078 0.959 . S
H1085 C1078 0.961 . S
H1086 C1078 0.960 . S
H1087 C1079 0.930 . S
H1088 C1080 0.929 . S
H1089 C1097 0.929 . S
H1090 C1099 0.930 . S
H1091 C1101 0.930 . S
H1092 C1104 0.929 . S
H1093 C1107 0.930 . S
H1094 C1109 0.999 . S
H1095 C1109 0.985 . S
H1096 C1109 0.940 1_554 S
C1097 H1089 0.929 . S
C1097 C1098 1.377 . S
C1097 C1099 1.384 . S
C1098 C1097 1.377 . S
C1098 C1104 1.390 . S
C1099 H1090 0.930 . S
C1099 C1097 1.384 . S
C1099 C1100 1.372 . S
C1100 C1099 1.372 . S
C1100 C1101 1.400 . S
C1100 C1105 1.490 . S
C1101 H1091 0.930 . S
C1101 C1100 1.400 . S
C1101 C1104 1.386 . S
H1102 C1118 0.930 . S
H1103 C1119 0.931 . S
C1104 H1092 0.929 . S
C1104 C1098 1.390 . S
C1104 C1101 1.386 . S
C1105 C1100 1.490 . S
C1105 C1107 1.395 . S
C1105 C1108 1.403 . S
H1106 C1112 0.930 . S
C1107 H1093 0.930 . S
C1107 C1105 1.395 . S
C1107 C1110 1.403 . S
C1108 C1105 1.403 . S
C1108 C1109 1.483 1_554 S
C1108 C1112 1.400 . S
C1109 H1094 0.999 . S
C1109 H1095 0.985 . S
C1109 H1096 0.940 1_556 S
C1109 C1108 1.483 1_556 S
C1110 C1107 1.403 . S
C1110 C1111 1.392 . S
C1110 C1114 1.495 . S
C1111 C1110 1.392 . S
C1111 C1112 1.385 . S
C1111 C1113 1.478 . S
C1112 H1106 0.930 . S
C1112 C1108 1.400 . S
C1112 C1111 1.385 . S
C1113 C1111 1.478 . S
C1113 C1115 1.381 . S
C1113 C1119 1.383 . S
C1114 C1110 1.495 . S
C1114 H1120 0.959 . S
C1114 H1121 0.961 . S
C1114 H1122 0.960 . S
C1115 C1113 1.381 . S
C1115 C1116 1.394 . S
C1115 H1123 0.930 . S
C1116 C1115 1.394 . S
C1116 C1117 1.383 . S
C1116 H1124 0.929 . S
C1117 C1116 1.383 . S
C1117 C1118 1.377 . S
C1118 H1102 0.930 . S
C1118 C1117 1.377 . S
C1118 C1119 1.379 . S
C1119 H1103 0.931 . S
C1119 C1113 1.383 . S
C1119 C1118 1.379 . S
H1120 C1114 0.959 . S
H1121 C1114 0.961 . S
H1122 C1114 0.960 . S
H1123 C1115 0.930 . S
H1124 C1116 0.929 . S
H1125 C1133 0.929 . S
H1126 C1135 0.930 . S
H1127 C1137 0.930 . S
H1128 C1140 0.929 . S
H1129 C1143 0.930 . S
H1130 C1145 0.960 . S
H1131 C1145 0.960 . S
H1132 C1145 0.960 . S
C1133 H1125 0.929 . S
C1133 C1134 1.377 . S
C1133 C1135 1.384 . S
C1134 C1133 1.377 . S
C1134 C1140 1.390 . S
C1135 H1126 0.930 . S
C1135 C1133 1.384 . S
C1135 C1136 1.372 . S
C1136 C1135 1.372 . S
C1136 C1137 1.400 . S
C1136 C1141 1.490 . S
C1137 H1127 0.930 . S
C1137 C1136 1.400 . S
C1137 C1140 1.386 . S
H1138 C1154 0.930 . S
H1139 C1155 0.931 1_556 S
C1140 H1128 0.929 . S
C1140 C1134 1.390 . S
C1140 C1137 1.386 . S
C1141 C1136 1.490 . S
C1141 C1143 1.395 . S
C1141 C1144 1.403 . S
H1142 C1148 0.930 . S
C1143 H1129 0.930 . S
C1143 C1141 1.395 . S
C1143 C1146 1.403 . S
C1144 C1141 1.403 . S
C1144 C1145 1.524 . S
C1144 C1148 1.400 . S
C1145 H1130 0.960 . S
C1145 H1131 0.960 . S
C1145 H1132 0.960 . S
C1145 C1144 1.524 . S
C1146 C1143 1.403 . S
C1146 C1147 1.392 . S
C1146 C1150 1.495 . S
C1147 C1146 1.392 . S
C1147 C1148 1.385 . S
C1147 C1149 1.478 . S
C1148 H1142 0.930 . S
C1148 C1144 1.400 . S
C1148 C1147 1.385 . S
C1149 C1147 1.478 . S
C1149 C1151 1.381 . S
C1149 C1155 1.383 . S
C1150 C1146 1.495 . S
C1150 H1156 0.959 . S
C1150 H1157 0.961 . S
C1150 H1158 0.960 . S
C1151 C1149 1.381 . S
C1151 C1152 1.394 . S
C1151 H1159 0.930 . S
C1152 C1151 1.394 . S
C1152 C1153 1.383 . S
C1152 H1160 0.929 . S
C1153 C1152 1.383 . S
C1153 C1154 1.377 1_554 S
C1154 H1138 0.930 . S
C1154 C1153 1.377 1_556 S
C1154 C1155 1.379 1_556 S
C1155 H1139 0.931 1_554 S
C1155 C1149 1.383 . S
C1155 C1154 1.379 1_554 S
H1156 C1150 0.959 . S
H1157 C1150 0.961 . S
H1158 C1150 0.960 . S
H1159 C1151 0.930 . S
H1160 C1152 0.929 . S
H1161 C1169 0.929 . S
H1162 C1171 0.930 . S
H1163 C1173 0.930 . S
H1164 C1176 0.929 . S
H1165 C1179 0.930 . S
H1166 C1181 0.960 . S
H1167 C1181 0.960 . S
H1168 C1181 0.960 . S
C1169 H1161 0.929 . S
C1169 C1170 1.377 . S
C1169 C1171 1.384 . S
C1170 C1169 1.377 . S
C1170 C1176 1.390 . S
C1171 H1162 0.930 . S
C1171 C1169 1.384 . S
C1171 C1172 1.372 . S
C1172 C1171 1.372 . S
C1172 C1173 1.400 . S
C1172 C1177 1.490 . S
C1173 H1163 0.930 . S
C1173 C1172 1.400 . S
C1173 C1176 1.386 . S
H1174 C1190 0.920 1_556 S
H1175 C1191 0.931 1_556 S
C1176 H1164 0.929 . S
C1176 C1170 1.390 . S
C1176 C1173 1.386 . S
C1177 C1172 1.490 . S
C1177 C1179 1.395 . S
C1177 C1180 1.403 . S
H1178 C1184 0.930 . S
C1179 H1165 0.930 . S
C1179 C1177 1.395 . S
C1179 C1182 1.403 . S
C1180 C1177 1.403 . S
C1180 C1181 1.524 . S
C1180 C1184 1.400 . S
C1181 H1166 0.960 . S
C1181 H1167 0.960 . S
C1181 H1168 0.960 . S
C1181 C1180 1.524 . S
C1182 C1179 1.403 . S
C1182 C1183 1.392 . S
C1182 C1186 1.495 . S
C1183 C1182 1.392 . S
C1183 C1184 1.385 . S
C1183 C1185 1.478 . S
C1184 H1178 0.930 . S
C1184 C1180 1.400 . S
C1184 C1183 1.385 . S
C1185 C1183 1.478 . S
C1185 C1187 1.381 . S
C1185 C1191 1.383 . S
C1186 C1182 1.495 . S
C1186 H1192 0.959 . S
C1186 H1193 0.961 1_554 S
C1186 H1194 0.960 . S
C1187 C1185 1.381 . S
C1187 C1188 1.394 . S
C1187 H1195 0.930 . S
C1188 C1187 1.394 . S
C1188 C1189 1.383 . S
C1188 H1196 0.929 . S
C1189 C1188 1.383 . S
C1189 C1190 1.384 . S
C1190 H1174 0.920 1_554 S
C1190 C1189 1.384 . S
C1190 C1191 1.382 . S
C1191 H1175 0.931 1_554 S
C1191 C1185 1.383 . S
C1191 C1190 1.382 . S
H1192 C1186 0.959 . S
H1193 C1186 0.961 1_556 S
H1194 C1186 0.960 . S
H1195 C1187 0.930 . S
H1196 C1188 0.929 . S
H1197 C1205 0.929 . S
H1198 C1207 0.930 . S
H1199 C1209 0.930 . S
H1200 C1212 0.929 . S
H1201 C1215 0.930 . S
H1202 C1217 0.960 . S
H1203 C1217 0.960 . S
H1204 C1217 0.960 . S
C1205 H1197 0.929 . S
C1205 C1206 1.377 . S
C1205 C1207 1.384 . S
C1206 C1205 1.377 . S
C1206 C1212 1.390 . S
C1207 H1198 0.930 . S
C1207 C1205 1.384 . S
C1207 C1208 1.372 . S
C1208 C1207 1.372 . S
C1208 C1209 1.400 . S
C1208 C1213 1.490 1_655 S
C1209 H1199 0.930 . S
C1209 C1208 1.400 . S
C1209 C1212 1.386 . S
H1210 C1226 0.930 . S
H1211 C1227 0.931 . S
C1212 H1200 0.929 . S
C1212 C1206 1.390 . S
C1212 C1209 1.386 . S
C1213 C1208 1.490 1_455 S
C1213 C1215 1.395 . S
C1213 C1216 1.403 . S
H1214 C1220 0.930 . S
C1215 H1201 0.930 . S
C1215 C1213 1.395 . S
C1215 C1218 1.403 . S
C1216 C1213 1.403 . S
C1216 C1217 1.524 . S
C1216 C1220 1.400 . S
C1217 H1202 0.960 . S
C1217 H1203 0.960 . S
C1217 H1204 0.960 . S
C1217 C1216 1.524 . S
C1218 C1215 1.403 . S
C1218 C1219 1.392 . S
C1218 C1222 1.495 . S
C1219 C1218 1.392 . S
C1219 C1220 1.385 . S
C1219 C1221 1.478 . S
C1220 H1214 0.930 . S
C1220 C1216 1.400 . S
C1220 C1219 1.385 . S
C1221 C1219 1.478 . S
C1221 C1223 1.381 . S
C1221 C1227 1.383 . S
C1222 C1218 1.495 . S
C1222 H1228 0.959 . S
C1222 H1229 0.961 . S
C1222 H1230 0.960 . S
C1223 C1221 1.381 . S
C1223 C1224 1.394 . S
C1223 H1231 0.930 . S
C1224 C1223 1.394 . S
C1224 C1225 1.383 . S
C1224 H1232 0.929 . S
C1225 C1224 1.383 . S
C1225 C1226 1.377 . S
C1226 H1210 0.930 . S
C1226 C1225 1.377 . S
C1226 C1227 1.379 . S
C1227 H1211 0.931 . S
C1227 C1221 1.383 . S
C1227 C1226 1.379 . S
H1228 C1222 0.959 . S
H1229 C1222 0.961 . S
H1230 C1222 0.960 . S
H1231 C1223 0.930 . S
H1232 C1224 0.929 . S
H1233 C1241 0.929 . S
H1234 C1243 0.930 . S
H1235 C1245 0.930 . S
H1236 C1248 0.929 . S
H1237 C1251 0.930 . S
H1238 C1253 0.960 . S
H1239 C1253 0.960 . S
H1240 C1253 0.960 . S
C1241 H1233 0.929 . S
C1241 C1242 1.377 . S
C1241 C1243 1.384 . S
C1242 C1241 1.377 . S
C1242 C1248 1.390 . S
C1243 H1234 0.930 . S
C1243 C1241 1.384 . S
C1243 C1244 1.372 . S
C1244 C1243 1.372 . S
C1244 C1245 1.400 . S
C1244 C1249 1.490 . S
C1245 H1235 0.930 . S
C1245 C1244 1.400 . S
C1245 C1248 1.386 . S
H1246 C1262 0.930 . S
H1247 C1263 0.931 . S
C1248 H1236 0.929 . S
C1248 C1242 1.390 . S
C1248 C1245 1.386 . S
C1249 C1244 1.490 . S
C1249 C1251 1.395 . S
C1249 C1252 1.403 . S
H1250 C1256 0.930 . S
C1251 H1237 0.930 . S
C1251 C1249 1.395 . S
C1251 C1254 1.403 . S
C1252 C1249 1.403 . S
C1252 C1253 1.524 . S
C1252 C1256 1.400 . S
C1253 H1238 0.960 . S
C1253 H1239 0.960 . S
C1253 H1240 0.960 . S
C1253 C1252 1.524 . S
C1254 C1251 1.403 . S
C1254 C1255 1.392 . S
C1254 C1258 1.495 . S
C1255 C1254 1.392 . S
C1255 C1256 1.385 . S
C1255 C1257 1.478 . S
C1256 H1250 0.930 . S
C1256 C1252 1.400 . S
C1256 C1255 1.385 . S
C1257 C1255 1.478 . S
C1257 C1259 1.381 . S
C1257 C1263 1.383 . S
C1258 C1254 1.495 . S
C1258 H1264 0.959 . S
C1258 H1265 0.961 . S
C1258 H1266 0.960 . S
C1259 C1257 1.381 . S
C1259 C1260 1.394 . S
C1259 H1267 0.930 . S
C1260 C1259 1.394 . S
C1260 C1261 1.383 . S
C1260 H1268 0.929 . S
C1261 C1260 1.383 . S
C1261 C1262 1.377 . S
C1262 H1246 0.930 . S
C1262 C1261 1.377 . S
C1262 C1263 1.379 . S
C1263 H1247 0.931 . S
C1263 C1257 1.383 . S
C1263 C1262 1.379 . S
H1264 C1258 0.959 . S
H1265 C1258 0.961 . S
H1266 C1258 0.960 . S
H1267 C1259 0.930 . S
H1268 C1260 0.929 . S
H1269 C1277 0.929 . S
H1270 C1279 0.930 . S
H1271 C1281 0.930 . S
H1272 C1284 0.929 . S
H1273 C1287 0.930 . S
H1274 C1289 0.960 . S
H1275 C1289 0.968 . S
H1276 C1289 0.960 1_545 S
C1277 H1269 0.929 . S
C1277 C1278 1.377 . S
C1277 C1279 1.384 . S
C1278 C1277 1.377 . S
C1278 C1284 1.390 . S
C1279 H1270 0.930 . S
C1279 C1277 1.384 . S
C1279 C1280 1.372 . S
C1280 C1279 1.372 . S
C1280 C1281 1.400 . S
C1280 C1285 1.490 1_545 S
C1281 H1271 0.930 . S
C1281 C1280 1.400 . S
C1281 C1284 1.386 . S
H1282 C1298 0.930 . S
H1283 C1299 0.931 . S
C1284 H1272 0.929 . S
C1284 C1278 1.390 . S
C1284 C1281 1.386 . S
C1285 C1280 1.490 1_565 S
C1285 C1287 1.395 . S
C1285 C1288 1.403 . S
H1286 C1292 0.930 . S
C1287 H1273 0.930 . S
C1287 C1285 1.395 . S
C1287 C1290 1.403 . S
C1288 C1285 1.403 . S
C1288 C1289 1.524 . S
C1288 C1292 1.400 . S
C1289 H1274 0.960 . S
C1289 H1275 0.968 . S
C1289 H1276 0.960 1_565 S
C1289 C1288 1.524 . S
C1290 C1287 1.403 . S
C1290 C1291 1.392 . S
C1290 C1294 1.495 . S
C1291 C1290 1.392 . S
C1291 C1292 1.385 . S
C1291 C1293 1.478 . S
C1292 H1286 0.930 . S
C1292 C1288 1.400 . S
C1292 C1291 1.385 . S
C1293 C1291 1.478 . S
C1293 C1295 1.381 . S
C1293 C1299 1.383 . S
C1294 C1290 1.495 . S
C1294 H1300 0.959 . S
C1294 H1301 0.961 . S
C1294 H1302 0.960 . S
C1295 C1293 1.381 . S
C1295 C1296 1.394 . S
C1295 H1303 0.930 . S
C1296 C1295 1.394 . S
C1296 C1297 1.383 . S
C1296 H1304 0.929 . S
C1297 C1296 1.383 . S
C1297 C1298 1.377 . S
C1298 H1282 0.930 . S
C1298 C1297 1.377 . S
C1298 C1299 1.379 . S
C1299 H1283 0.931 . S
C1299 C1293 1.383 . S
C1299 C1298 1.379 . S
H1300 C1294 0.959 . S
H1301 C1294 0.961 . S
H1302 C1294 0.960 . S
H1303 C1295 0.930 . S
H1304 C1296 0.929 . S
H1305 C1313 0.929 . S
H1306 C1315 0.930 . S
H1307 C1317 0.930 . S
H1308 C1320 0.929 . S
H1309 C1323 0.930 . S
H1310 C1325 0.960 . S
H1311 C1325 0.960 . S
H1312 C1325 0.960 . S
C1313 H1305 0.929 . S
C1313 C1314 1.377 . S
C1313 C1315 1.384 . S
C1314 C1313 1.377 . S
C1314 C1320 1.390 . S
C1315 H1306 0.930 . S
C1315 C1313 1.384 . S
C1315 C1316 1.372 . S
C1316 C1315 1.372 . S
C1316 C1317 1.400 . S
C1316 C1321 1.490 . S
C1317 H1307 0.930 . S
C1317 C1316 1.400 . S
C1317 C1320 1.386 . S
H1318 C1334 0.930 . S
H1319 C1335 0.931 . S
C1320 H1308 0.929 . S
C1320 C1314 1.390 . S
C1320 C1317 1.386 . S
C1321 C1316 1.490 . S
C1321 C1323 1.395 . S
C1321 C1324 1.403 . S
H1322 C1328 0.930 . S
C1323 H1309 0.930 . S
C1323 C1321 1.395 . S
C1323 C1326 1.403 . S
C1324 C1321 1.403 . S
C1324 C1325 1.524 . S
C1324 C1328 1.400 . S
C1325 H1310 0.960 . S
C1325 H1311 0.960 . S
C1325 H1312 0.960 . S
C1325 C1324 1.524 . S
C1326 C1323 1.403 . S
C1326 C1327 1.392 . S
C1326 C1330 1.495 . S
C1327 C1326 1.392 . S
C1327 C1328 1.385 . S
C1327 C1329 1.478 . S
C1328 H1322 0.930 . S
C1328 C1324 1.400 . S
C1328 C1327 1.385 . S
C1329 C1327 1.478 . S
C1329 C1331 1.381 . S
C1329 C1335 1.383 . S
C1330 C1326 1.495 . S
C1330 H1336 0.959 . S
C1330 H1337 0.961 . S
C1330 H1338 0.960 . S
C1331 C1329 1.381 . S
C1331 C1332 1.394 . S
C1331 H1339 0.930 . S
C1332 C1331 1.394 . S
C1332 C1333 1.383 . S
C1332 H1340 0.929 . S
C1333 C1332 1.383 . S
C1333 C1334 1.377 . S
C1334 H1318 0.930 . S
C1334 C1333 1.377 . S
C1334 C1335 1.379 . S
C1335 H1319 0.931 . S
C1335 C1329 1.383 . S
C1335 C1334 1.379 . S
H1336 C1330 0.959 . S
H1337 C1330 0.961 . S
H1338 C1330 0.960 . S
H1339 C1331 0.930 . S
H1340 C1332 0.929 . S
H1341 C1349 0.929 . S
H1342 C1351 0.930 . S
H1343 C1353 0.930 . S
H1344 C1356 0.929 . S
H1345 C1359 0.930 . S
H1346 C1361 0.960 . S
H1347 C1361 0.960 . S
H1348 C1361 0.960 . S
C1349 H1341 0.929 . S
C1349 C1350 1.377 . S
C1349 C1351 1.384 . S
C1350 C1349 1.377 . S
C1350 C1356 1.390 . S
C1351 H1342 0.930 . S
C1351 C1349 1.384 . S
C1351 C1352 1.372 . S
C1352 C1351 1.372 . S
C1352 C1353 1.400 . S
C1352 C1357 1.490 . S
C1353 H1343 0.930 . S
C1353 C1352 1.400 . S
C1353 C1356 1.386 . S
H1354 C1370 0.930 . S
H1355 C1371 0.931 . S
C1356 H1344 0.929 . S
C1356 C1350 1.390 . S
C1356 C1353 1.386 . S
C1357 C1352 1.490 . S
C1357 C1359 1.395 . S
C1357 C1360 1.403 . S
H1358 C1364 0.930 . S
C1359 H1345 0.930 . S
C1359 C1357 1.395 . S
C1359 C1362 1.403 . S
C1360 C1357 1.403 . S
C1360 C1361 1.524 . S
C1360 C1364 1.400 . S
C1361 H1346 0.960 . S
C1361 H1347 0.960 . S
C1361 H1348 0.960 . S
C1361 C1360 1.524 . S
C1362 C1359 1.403 . S
C1362 C1363 1.392 . S
C1362 C1366 1.495 . S
C1363 C1362 1.392 . S
C1363 C1364 1.385 . S
C1363 C1365 1.478 . S
C1364 H1358 0.930 . S
C1364 C1360 1.400 . S
C1364 C1363 1.385 . S
C1365 C1363 1.478 . S
C1365 C1367 1.381 . S
C1365 C1371 1.383 . S
C1366 C1362 1.495 . S
C1366 H1372 0.959 . S
C1366 H1373 0.961 . S
C1366 H1374 0.960 . S
C1367 C1365 1.381 . S
C1367 C1368 1.394 . S
C1367 H1375 0.930 . S
C1368 C1367 1.394 . S
C1368 C1369 1.383 . S
C1368 H1376 0.929 . S
C1369 C1368 1.383 . S
C1369 C1370 1.377 . S
C1370 H1354 0.930 . S
C1370 C1369 1.377 . S
C1370 C1371 1.379 . S
C1371 H1355 0.931 . S
C1371 C1365 1.383 . S
C1371 C1370 1.379 . S
H1372 C1366 0.959 . S
H1373 C1366 0.961 . S
H1374 C1366 0.960 . S
H1375 C1367 0.930 . S
H1376 C1368 0.929 . S
H1377 C1385 0.929 . S
H1378 C1387 0.930 . S
H1379 C1389 0.930 . S
H1380 C1392 0.929 . S
H1381 C1395 0.930 . S
H1382 C1397 0.960 . S
H1383 C1397 0.960 . S
H1384 C1397 0.960 . S
C1385 H1377 0.929 . S
C1385 C1386 1.377 . S
C1385 C1387 1.384 . S
C1386 C1385 1.377 . S
C1386 C1392 1.390 . S
C1387 H1378 0.930 . S
C1387 C1385 1.384 . S
C1387 C1388 1.372 . S
C1388 C1387 1.372 . S
C1388 C1389 1.400 . S
C1388 C1393 1.490 . S
C1389 H1379 0.930 . S
C1389 C1388 1.400 . S
C1389 C1392 1.386 . S
H1390 C1406 0.930 . S
H1391 C1407 0.931 . S
C1392 H1380 0.929 . S
C1392 C1386 1.390 . S
C1392 C1389 1.386 . S
C1393 C1388 1.490 . S
C1393 C1395 1.395 . S
C1393 C1396 1.403 . S
H1394 C1400 0.930 . S
C1395 H1381 0.930 . S
C1395 C1393 1.395 . S
C1395 C1398 1.403 . S
C1396 C1393 1.403 . S
C1396 C1397 1.524 . S
C1396 C1400 1.400 . S
C1397 H1382 0.960 . S
C1397 H1383 0.960 . S
C1397 H1384 0.960 . S
C1397 C1396 1.524 . S
C1398 C1395 1.403 . S
C1398 C1399 1.392 . S
C1398 C1402 1.495 . S
C1399 C1398 1.392 . S
C1399 C1400 1.385 . S
C1399 C1401 1.478 . S
C1400 H1394 0.930 . S
C1400 C1396 1.400 . S
C1400 C1399 1.385 . S
C1401 C1399 1.478 . S
C1401 C1403 1.381 . S
C1401 C1407 1.383 . S
C1402 C1398 1.495 . S
C1402 H1408 0.959 . S
C1402 H1409 0.961 . S
C1402 H1410 0.960 . S
C1403 C1401 1.381 . S
C1403 C1404 1.394 . S
C1403 H1411 0.930 . S
C1404 C1403 1.394 . S
C1404 C1405 1.383 . S
C1404 H1412 0.929 . S
C1405 C1404 1.383 . S
C1405 C1406 1.377 . S
C1406 H1390 0.930 . S
C1406 C1405 1.377 . S
C1406 C1407 1.379 . S
C1407 H1391 0.931 . S
C1407 C1401 1.383 . S
C1407 C1406 1.379 . S
H1408 C1402 0.959 . S
H1409 C1402 0.961 . S
H1410 C1402 0.960 . S
H1411 C1403 0.930 . S
H1412 C1404 0.929 . S
H1413 C1421 0.929 . S
H1414 C1423 0.930 . S
H1415 C1425 0.930 . S
H1416 C1428 0.929 . S
H1417 C1431 0.930 . S
H1418 C1433 0.960 . S
H1419 C1433 0.960 . S
H1420 C1433 0.960 . S
C1421 H1413 0.929 . S
C1421 C1422 1.377 . S
C1421 C1423 1.384 . S
C1422 C1421 1.377 . S
C1422 C1428 1.390 . S
C1423 H1414 0.930 . S
C1423 C1421 1.384 . S
C1423 C1424 1.372 . S
C1424 C1423 1.372 . S
C1424 C1425 1.400 . S
C1424 C1429 1.490 . S
C1425 H1415 0.930 . S
C1425 C1424 1.400 . S
C1425 C1428 1.386 . S
H1426 C1442 0.930 . S
H1427 C1443 0.931 . S
C1428 H1416 0.929 . S
C1428 C1422 1.390 . S
C1428 C1425 1.386 . S
C1429 C1424 1.490 . S
C1429 C1431 1.395 . S
C1429 C1432 1.403 . S
H1430 C1436 0.930 . S
C1431 H1417 0.930 . S
C1431 C1429 1.395 . S
C1431 C1434 1.403 . S
C1432 C1429 1.403 . S
C1432 C1433 1.524 . S
C1432 C1436 1.400 . S
C1433 H1418 0.960 . S
C1433 H1419 0.960 . S
C1433 H1420 0.960 . S
C1433 C1432 1.524 . S
C1434 C1431 1.403 . S
C1434 C1435 1.392 . S
C1434 C1438 1.495 . S
C1435 C1434 1.392 . S
C1435 C1436 1.385 . S
C1435 C1437 1.478 . S
C1436 H1430 0.930 . S
C1436 C1432 1.400 . S
C1436 C1435 1.385 . S
C1437 C1435 1.478 . S
C1437 C1439 1.381 . S
C1437 C1443 1.383 . S
C1438 C1434 1.495 . S
C1438 H1444 0.959 . S
C1438 H1445 0.961 . S
C1438 H1446 0.960 . S
C1439 C1437 1.381 . S
C1439 C1440 1.394 . S
C1439 H1447 0.930 . S
C1440 C1439 1.394 . S
C1440 C1441 1.383 . S
C1440 H1448 0.929 . S
C1441 C1440 1.383 . S
C1441 C1442 1.377 . S
C1442 H1426 0.930 . S
C1442 C1441 1.377 . S
C1442 C1443 1.379 . S
C1443 H1427 0.931 . S
C1443 C1437 1.383 . S
C1443 C1442 1.379 . S
H1444 C1438 0.959 . S
H1445 C1438 0.961 . S
H1446 C1438 0.960 . S
H1447 C1439 0.930 . S
H1448 C1440 0.929 . S
H1449 C1457 0.929 . S
H1450 C1459 0.930 . S
H1451 C1461 0.930 . S
H1452 C1464 0.929 . S
H1453 C1467 0.930 . S
H1454 C1469 0.960 . S
H1455 C1469 0.960 . S
H1456 C1469 0.960 . S
C1457 H1449 0.929 . S
C1457 C1458 1.377 . S
C1457 C1459 1.384 . S
C1458 C1457 1.377 . S
C1458 C1464 1.390 . S
C1459 H1450 0.930 . S
C1459 C1457 1.384 . S
C1459 C1460 1.372 . S
C1460 C1459 1.372 . S
C1460 C1461 1.400 . S
C1460 C1465 1.490 . S
C1461 H1451 0.930 . S
C1461 C1460 1.400 . S
C1461 C1464 1.386 . S
H1462 C1478 0.930 . S
H1463 C1479 0.931 . S
C1464 H1452 0.929 . S
C1464 C1458 1.390 . S
C1464 C1461 1.386 . S
C1465 C1460 1.490 . S
C1465 C1467 1.395 . S
C1465 C1468 1.403 . S
H1466 C1472 0.930 . S
C1467 H1453 0.930 . S
C1467 C1465 1.395 . S
C1467 C1470 1.403 . S
C1468 C1465 1.403 . S
C1468 C1469 1.524 . S
C1468 C1472 1.400 . S
C1469 H1454 0.960 . S
C1469 H1455 0.960 . S
C1469 H1456 0.960 . S
C1469 C1468 1.524 . S
C1470 C1467 1.403 . S
C1470 C1471 1.392 . S
C1470 C1474 1.495 . S
C1471 C1470 1.392 . S
C1471 C1472 1.385 . S
C1471 C1473 1.478 . S
C1472 H1466 0.930 . S
C1472 C1468 1.400 . S
C1472 C1471 1.385 . S
C1473 C1471 1.478 . S
C1473 C1475 1.381 . S
C1473 C1479 1.383 . S
C1474 C1470 1.495 . S
C1474 H1480 0.959 . S
C1474 H1481 0.961 . S
C1474 H1482 0.960 . S
C1475 C1473 1.381 . S
C1475 C1476 1.394 . S
C1475 H1483 0.930 . S
C1476 C1475 1.394 . S
C1476 C1477 1.383 . S
C1476 H1484 0.929 . S
C1477 C1476 1.383 . S
C1477 C1478 1.377 . S
C1478 H1462 0.930 . S
C1478 C1477 1.377 . S
C1478 C1479 1.379 . S
C1479 H1463 0.931 . S
C1479 C1473 1.383 . S
C1479 C1478 1.379 . S
H1480 C1474 0.959 . S
H1481 C1474 0.961 . S
H1482 C1474 0.960 . S
H1483 C1475 0.930 . S
H1484 C1476 0.929 . S
H1485 C1493 0.929 . S
H1486 C1495 0.930 . S
H1487 C1497 0.930 . S
H1488 C1500 0.929 . S
H1489 C1503 0.930 . S
H1490 C1505 0.960 . S
H1491 C1505 0.960 . S
H1492 C1505 0.960 . S
C1493 H1485 0.929 . S
C1493 C1494 1.377 . S
C1493 C1495 1.384 . S
C1494 C1493 1.377 . S
C1494 C1500 1.390 . S
C1495 H1486 0.930 . S
C1495 C1493 1.384 . S
C1495 C1496 1.372 . S
C1496 C1495 1.372 . S
C1496 C1497 1.400 . S
C1496 C1501 1.490 . S
C1497 H1487 0.930 . S
C1497 C1496 1.400 . S
C1497 C1500 1.386 . S
H1498 C1514 0.930 . S
H1499 C1515 0.931 . S
C1500 H1488 0.929 . S
C1500 C1494 1.390 . S
C1500 C1497 1.386 . S
C1501 C1496 1.490 . S
C1501 C1503 1.395 . S
C1501 C1504 1.403 . S
H1502 C1508 0.930 . S
C1503 H1489 0.930 . S
C1503 C1501 1.395 . S
C1503 C1506 1.403 . S
C1504 C1501 1.403 . S
C1504 C1505 1.524 . S
C1504 C1508 1.400 . S
C1505 H1490 0.960 . S
C1505 H1491 0.960 . S
C1505 H1492 0.960 . S
C1505 C1504 1.524 . S
C1506 C1503 1.403 . S
C1506 C1507 1.392 . S
C1506 C1510 1.495 . S
C1507 C1506 1.392 . S
C1507 C1508 1.385 . S
C1507 C1509 1.478 . S
C1508 H1502 0.930 . S
C1508 C1504 1.400 . S
C1508 C1507 1.385 . S
C1509 C1507 1.478 . S
C1509 C1511 1.381 . S
C1509 C1515 1.383 . S
C1510 C1506 1.495 . S
C1510 H1516 0.959 . S
C1510 H1517 0.961 . S
C1510 H1518 0.960 . S
C1511 C1509 1.381 . S
C1511 C1512 1.394 . S
C1511 H1519 0.930 . S
C1512 C1511 1.394 . S
C1512 C1513 1.383 . S
C1512 H1520 0.929 . S
C1513 C1512 1.383 . S
C1513 C1514 1.377 . S
C1514 H1498 0.930 . S
C1514 C1513 1.377 . S
C1514 C1515 1.379 . S
C1515 H1499 0.931 . S
C1515 C1509 1.383 . S
C1515 C1514 1.379 . S
H1516 C1510 0.959 . S
H1517 C1510 0.961 . S
H1518 C1510 0.960 . S
H1519 C1511 0.930 . S
H1520 C1512 0.929 . S
H1521 C1529 0.929 . S
H1522 C1531 0.930 . S
H1523 C1533 0.930 . S
H1524 C1536 0.929 . S
H1525 C1539 0.930 . S
H1526 C1541 0.960 . S
H1527 C1541 0.960 . S
H1528 C1541 0.960 . S
C1529 H1521 0.929 . S
C1529 C1530 1.377 . S
C1529 C1531 1.384 . S
C1530 C1529 1.377 . S
C1530 C1536 1.390 . S
C1531 H1522 0.930 . S
C1531 C1529 1.384 . S
C1531 C1532 1.372 . S
C1532 C1531 1.372 . S
C1532 C1533 1.400 . S
C1532 C1537 1.490 1_545 S
C1533 H1523 0.930 . S
C1533 C1532 1.400 . S
C1533 C1536 1.386 . S
H1534 C1550 0.930 . S
H1535 C1551 0.931 . S
C1536 H1524 0.929 . S
C1536 C1530 1.390 . S
C1536 C1533 1.386 . S
C1537 C1532 1.490 1_565 S
C1537 C1539 1.395 . S
C1537 C1540 1.403 . S
H1538 C1544 0.930 . S
C1539 H1525 0.930 . S
C1539 C1537 1.395 . S
C1539 C1542 1.403 . S
C1540 C1537 1.403 . S
C1540 C1541 1.524 . S
C1540 C1544 1.400 . S
C1541 H1526 0.960 . S
C1541 H1527 0.960 . S
C1541 H1528 0.960 . S
C1541 C1540 1.524 . S
C1542 C1539 1.403 . S
C1542 C1543 1.392 . S
C1542 C1546 1.495 . S
C1543 C1542 1.392 . S
C1543 C1544 1.385 . S
C1543 C1545 1.478 . S
C1544 H1538 0.930 . S
C1544 C1540 1.400 . S
C1544 C1543 1.385 . S
C1545 C1543 1.478 . S
C1545 C1547 1.381 . S
C1545 C1551 1.383 . S
C1546 C1542 1.495 . S
C1546 H1552 0.959 . S
C1546 H1553 0.961 . S
C1546 H1554 0.960 . S
C1547 C1545 1.381 . S
C1547 C1548 1.394 . S
C1547 H1555 0.930 . S
C1548 C1547 1.394 . S
C1548 C1549 1.383 . S
C1548 H1556 0.929 . S
C1549 C1548 1.383 . S
C1549 C1550 1.377 . S
C1550 H1534 0.930 . S
C1550 C1549 1.377 . S
C1550 C1551 1.379 . S
C1551 H1535 0.931 . S
C1551 C1545 1.383 . S
C1551 C1550 1.379 . S
H1552 C1546 0.959 . S
H1553 C1546 0.961 . S
H1554 C1546 0.960 . S
H1555 C1547 0.930 . S
H1556 C1548 0.929 . S
H1557 C1565 0.929 . S
H1558 C1567 0.930 . S
H1559 C1569 0.930 . S
H1560 C1572 0.929 . S
H1561 C1575 0.930 . S
H1562 C1577 0.960 . S
H1563 C1577 0.960 1_655 S
H1564 C1577 0.960 1_655 S
C1565 H1557 0.929 . S
C1565 C1566 1.377 . S
C1565 C1567 1.384 . S
C1566 C1565 1.377 . S
C1566 C1572 1.390 . S
C1567 H1558 0.930 . S
C1567 C1565 1.384 . S
C1567 C1568 1.372 . S
C1568 C1567 1.372 . S
C1568 C1569 1.400 . S
C1568 C1573 1.490 1_655 S
C1569 H1559 0.930 . S
C1569 C1568 1.400 . S
C1569 C1572 1.386 . S
H1570 C1586 0.930 . S
H1571 C1587 0.931 . S
C1572 H1560 0.929 . S
C1572 C1566 1.390 . S
C1572 C1569 1.386 . S
C1573 C1568 1.490 1_455 S
C1573 C1575 1.395 . S
C1573 C1576 1.403 . S
H1574 C1580 0.930 . S
C1575 H1561 0.930 . S
C1575 C1573 1.395 . S
C1575 C1578 1.403 . S
C1576 C1573 1.403 . S
C1576 C1577 1.524 . S
C1576 C1580 1.400 . S
C1577 H1562 0.960 . S
C1577 H1563 0.960 1_455 S
C1577 H1564 0.960 1_455 S
C1577 C1576 1.524 . S
C1578 C1575 1.403 . S
C1578 C1579 1.392 . S
C1578 C1582 1.495 . S
C1579 C1578 1.392 . S
C1579 C1580 1.385 . S
C1579 C1581 1.478 . S
C1580 H1574 0.930 . S
C1580 C1576 1.400 . S
C1580 C1579 1.385 . S
C1581 C1579 1.478 . S
C1581 C1583 1.381 . S
C1581 C1587 1.383 . S
C1582 C1578 1.495 . S
C1582 H1588 0.959 . S
C1582 H1589 0.961 . S
C1582 H1590 0.960 . S
C1583 C1581 1.381 . S
C1583 C1584 1.394 . S
C1583 H1591 0.930 . S
C1584 C1583 1.394 . S
C1584 C1585 1.383 . S
C1584 H1592 0.929 . S
C1585 C1584 1.383 . S
C1585 C1586 1.377 . S
C1586 H1570 0.930 . S
C1586 C1585 1.377 . S
C1586 C1587 1.379 . S
C1587 H1571 0.931 . S
C1587 C1581 1.383 . S
C1587 C1586 1.379 . S
H1588 C1582 0.959 . S
H1589 C1582 0.961 . S
H1590 C1582 0.960 . S
H1591 C1583 0.930 . S
H1592 C1584 0.929 . S
H1593 C1601 0.929 . S
H1594 C1603 0.930 . S
H1595 C1605 0.930 . S
H1596 C1608 0.929 . S
H1597 C1611 0.930 . S
H1598 C1613 0.960 . S
H1599 C1613 0.960 . S
H1600 C1613 0.960 . S
C1601 H1593 0.929 . S
C1601 C1602 1.377 . S
C1601 C1603 1.384 . S
C1602 C1601 1.377 . S
C1602 C1608 1.390 . S
C1603 H1594 0.930 . S
C1603 C1601 1.384 . S
C1603 C1604 1.372 . S
C1604 C1603 1.372 . S
C1604 C1605 1.400 . S
C1604 C1609 1.490 . S
C1605 H1595 0.930 . S
C1605 C1604 1.400 . S
C1605 C1608 1.386 . S
H1606 C1622 0.930 . S
H1607 C1623 0.931 . S
C1608 H1596 0.929 . S
C1608 C1602 1.390 . S
C1608 C1605 1.386 . S
C1609 C1604 1.490 . S
C1609 C1611 1.395 . S
C1609 C1612 1.403 . S
H1610 C1616 0.930 . S
C1611 H1597 0.930 . S
C1611 C1609 1.395 . S
C1611 C1614 1.403 . S
C1612 C1609 1.403 . S
C1612 C1613 1.524 . S
C1612 C1616 1.400 . S
C1613 H1598 0.960 . S
C1613 H1599 0.960 . S
C1613 H1600 0.960 . S
C1613 C1612 1.524 . S
C1614 C1611 1.403 . S
C1614 C1615 1.392 . S
C1614 C1618 1.495 . S
C1615 C1614 1.392 . S
C1615 C1616 1.385 . S
C1615 C1617 1.478 . S
C1616 H1610 0.930 . S
C1616 C1612 1.400 . S
C1616 C1615 1.385 . S
C1617 C1615 1.478 . S
C1617 C1619 1.381 . S
C1617 C1623 1.383 . S
C1618 C1614 1.495 . S
C1618 H1624 0.959 . S
C1618 H1625 0.961 . S
C1618 H1626 0.960 . S
C1619 C1617 1.381 . S
C1619 C1620 1.394 . S
C1619 H1627 0.930 . S
C1620 C1619 1.394 . S
C1620 C1621 1.383 . S
C1620 H1628 0.929 . S
C1621 C1620 1.383 . S
C1621 C1622 1.377 . S
C1622 H1606 0.930 . S
C1622 C1621 1.377 . S
C1622 C1623 1.379 . S
C1623 H1607 0.931 . S
C1623 C1617 1.383 . S
C1623 C1622 1.379 . S
H1624 C1618 0.959 . S
H1625 C1618 0.961 . S
H1626 C1618 0.960 . S
H1627 C1619 0.930 . S
H1628 C1620 0.929 . S
H1629 C1637 0.929 . S
H1630 C1639 0.930 . S
H1631 C1641 0.930 . S
H1632 C1644 0.929 . S
H1633 C1647 0.930 . S
H1634 C1649 0.960 . S
H1635 C1649 0.960 . S
H1636 C1649 0.960 . S
C1637 H1629 0.929 . S
C1637 C1638 1.377 . S
C1637 C1639 1.384 . S
C1638 C1637 1.377 . S
C1638 C1644 1.390 . S
C1639 H1630 0.930 . S
C1639 C1637 1.384 . S
C1639 C1640 1.372 . S
C1640 C1639 1.372 . S
C1640 C1641 1.400 . S
C1640 C1645 1.490 . S
C1641 H1631 0.930 . S
C1641 C1640 1.400 . S
C1641 C1644 1.386 . S
H1642 C1658 0.930 . S
H1643 C1659 0.931 . S
C1644 H1632 0.929 . S
C1644 C1638 1.390 . S
C1644 C1641 1.386 . S
C1645 C1640 1.490 . S
C1645 C1647 1.395 . S
C1645 C1648 1.403 . S
H1646 C1652 0.930 . S
C1647 H1633 0.930 . S
C1647 C1645 1.395 . S
C1647 C1650 1.403 . S
C1648 C1645 1.403 . S
C1648 C1649 1.524 . S
C1648 C1652 1.400 . S
C1649 H1634 0.960 . S
C1649 H1635 0.960 . S
C1649 H1636 0.960 . S
C1649 C1648 1.524 . S
C1650 C1647 1.403 . S
C1650 C1651 1.392 . S
C1650 C1654 1.495 . S
C1651 C1650 1.392 . S
C1651 C1652 1.385 . S
C1651 C1653 1.478 . S
C1652 H1646 0.930 . S
C1652 C1648 1.400 . S
C1652 C1651 1.385 . S
C1653 C1651 1.478 . S
C1653 C1655 1.381 . S
C1653 C1659 1.383 . S
C1654 C1650 1.495 . S
C1654 H1660 0.959 . S
C1654 H1661 0.961 . S
C1654 H1662 0.960 . S
C1655 C1653 1.381 . S
C1655 C1656 1.394 . S
C1655 H1663 0.930 . S
C1656 C1655 1.394 . S
C1656 C1657 1.383 . S
C1656 H1664 0.929 . S
C1657 C1656 1.383 . S
C1657 C1658 1.377 . S
C1658 H1642 0.930 . S
C1658 C1657 1.377 . S
C1658 C1659 1.379 . S
C1659 H1643 0.931 . S
C1659 C1653 1.383 . S
C1659 C1658 1.379 . S
H1660 C1654 0.959 . S
H1661 C1654 0.961 . S
H1662 C1654 0.960 . S
H1663 C1655 0.930 . S
H1664 C1656 0.929 . S
H1665 C1673 0.929 . S
H1666 C1675 0.930 . S
H1667 C1677 0.930 . S
H1668 C1680 0.929 . S
H1669 C1683 0.930 . S
H1670 C1685 0.960 . S
H1671 C1685 0.960 . S
H1672 C1685 0.960 . S
C1673 H1665 0.929 . S
C1673 C1674 1.377 . S
C1673 C1675 1.384 . S
C1674 C1673 1.377 . S
C1674 C1680 1.390 . S
C1675 H1666 0.930 . S
C1675 C1673 1.384 . S
C1675 C1676 1.372 . S
C1676 C1675 1.372 . S
C1676 C1677 1.400 . S
C1676 C1681 1.490 . S
C1677 H1667 0.930 . S
C1677 C1676 1.400 . S
C1677 C1680 1.386 . S
H1678 C1694 0.930 . S
H1679 C1695 0.931 . S
C1680 H1668 0.929 . S
C1680 C1674 1.390 . S
C1680 C1677 1.386 . S
C1681 C1676 1.490 . S
C1681 C1683 1.395 . S
C1681 C1684 1.403 . S
H1682 C1688 0.930 . S
C1683 H1669 0.930 . S
C1683 C1681 1.395 . S
C1683 C1686 1.403 . S
C1684 C1681 1.403 . S
C1684 C1685 1.524 . S
C1684 C1688 1.400 . S
C1685 H1670 0.960 . S
C1685 H1671 0.960 . S
C1685 H1672 0.960 . S
C1685 C1684 1.524 . S
C1686 C1683 1.403 . S
C1686 C1687 1.392 . S
C1686 C1690 1.495 . S
C1687 C1686 1.392 . S
C1687 C1688 1.385 . S
C1687 C1689 1.478 . S
C1688 H1682 0.930 . S
C1688 C1684 1.400 . S
C1688 C1687 1.385 . S
C1689 C1687 1.478 . S
C1689 C1691 1.381 . S
C1689 C1695 1.383 . S
C1690 C1686 1.495 . S
C1690 H1696 0.959 . S
C1690 H1697 0.961 . S
C1690 H1698 0.960 . S
C1691 C1689 1.381 . S
C1691 C1692 1.394 . S
C1691 H1699 0.930 . S
C1692 C1691 1.394 . S
C1692 C1693 1.383 . S
C1692 H1700 0.929 . S
C1693 C1692 1.383 . S
C1693 C1694 1.377 . S
C1694 H1678 0.930 . S
C1694 C1693 1.377 . S
C1694 C1695 1.379 . S
C1695 H1679 0.931 . S
C1695 C1689 1.383 . S
C1695 C1694 1.379 . S
H1696 C1690 0.959 . S
H1697 C1690 0.961 . S
H1698 C1690 0.960 . S
H1699 C1691 0.930 . S
H1700 C1692 0.929 . S
H1701 C1709 0.929 . S
H1702 C1711 0.930 . S
H1703 C1713 0.930 . S
H1704 C1716 0.929 . S
H1705 C1719 0.930 . S
H1706 C1721 0.960 . S
H1707 C1721 0.960 . S
H1708 C1721 0.960 . S
C1709 H1701 0.929 . S
C1709 C1710 1.377 . S
C1709 C1711 1.384 . S
C1710 C1709 1.377 . S
C1710 C1716 1.390 . S
C1711 H1702 0.930 . S
C1711 C1709 1.384 . S
C1711 C1712 1.372 . S
C1712 C1711 1.372 . S
C1712 C1713 1.400 . S
C1712 C1717 1.490 . S
C1713 H1703 0.930 . S
C1713 C1712 1.400 . S
C1713 C1716 1.386 . S
H1714 C1730 0.930 . S
H1715 C1731 0.931 . S
C1716 H1704 0.929 . S
C1716 C1710 1.390 . S
C1716 C1713 1.386 . S
C1717 C1712 1.490 . S
C1717 C1719 1.395 . S
C1717 C1720 1.403 . S
H1718 C1724 0.930 . S
C1719 H1705 0.930 . S
C1719 C1717 1.395 . S
C1719 C1722 1.403 . S
C1720 C1717 1.403 . S
C1720 C1721 1.524 . S
C1720 C1724 1.400 . S
C1721 H1706 0.960 . S
C1721 H1707 0.960 . S
C1721 H1708 0.960 . S
C1721 C1720 1.524 . S
C1722 C1719 1.403 . S
C1722 C1723 1.392 . S
C1722 C1726 1.495 . S
C1723 C1722 1.392 . S
C1723 C1724 1.385 . S
C1723 C1725 1.478 . S
C1724 H1718 0.930 . S
C1724 C1720 1.400 . S
C1724 C1723 1.385 . S
C1725 C1723 1.478 . S
C1725 C1727 1.381 . S
C1725 C1731 1.383 . S
C1726 C1722 1.495 . S
C1726 H1732 0.959 . S
C1726 H1733 0.961 . S
C1726 H1734 0.960 . S
C1727 C1725 1.381 . S
C1727 C1728 1.394 . S
C1727 H1735 0.930 . S
C1728 C1727 1.394 . S
C1728 C1729 1.383 . S
C1728 H1736 0.929 . S
C1729 C1728 1.383 . S
C1729 C1730 1.377 . S
C1730 H1714 0.930 . S
C1730 C1729 1.377 . S
C1730 C1731 1.379 . S
C1731 H1715 0.931 . S
C1731 C1725 1.383 . S
C1731 C1730 1.379 . S
H1732 C1726 0.959 . S
H1733 C1726 0.961 . S
H1734 C1726 0.960 . S
H1735 C1727 0.930 . S
H1736 C1728 0.929 . S
H1737 C1745 0.929 . S
H1738 C1747 0.930 . S
H1739 C1749 0.930 . S
H1740 C1752 0.929 . S
H1741 C1755 0.930 . S
H1742 C1757 0.960 . S
H1743 C1757 0.960 1_565 S
H1744 C1757 0.963 . S
C1745 H1737 0.929 . S
C1745 C1746 1.377 . S
C1745 C1747 1.384 . S
C1746 C1745 1.377 . S
C1746 C1752 1.390 . S
C1747 H1738 0.930 . S
C1747 C1745 1.384 . S
C1747 C1748 1.372 . S
C1748 C1747 1.372 . S
C1748 C1749 1.400 . S
C1748 C1753 1.490 1_565 S
C1749 H1739 0.930 . S
C1749 C1748 1.400 . S
C1749 C1752 1.386 . S
H1750 C1766 0.930 . S
H1751 C1767 0.931 . S
C1752 H1740 0.929 . S
C1752 C1746 1.390 . S
C1752 C1749 1.386 . S
C1753 C1748 1.490 1_545 S
C1753 C1755 1.395 . S
C1753 C1756 1.403 . S
H1754 C1760 0.930 . S
C1755 H1741 0.930 . S
C1755 C1753 1.395 . S
C1755 C1758 1.403 . S
C1756 C1753 1.403 . S
C1756 C1757 1.524 . S
C1756 C1760 1.400 . S
C1757 H1742 0.960 . S
C1757 H1743 0.960 1_545 S
C1757 H1744 0.963 . S
C1757 C1756 1.524 . S
C1758 C1755 1.403 . S
C1758 C1759 1.392 . S
C1758 C1762 1.495 . S
C1759 C1758 1.392 . S
C1759 C1760 1.385 . S
C1759 C1761 1.478 . S
C1760 H1754 0.930 . S
C1760 C1756 1.400 . S
C1760 C1759 1.385 . S
C1761 C1759 1.478 . S
C1761 C1763 1.381 . S
C1761 C1767 1.383 . S
C1762 C1758 1.495 . S
C1762 H1768 0.959 . S
C1762 H1769 0.961 . S
C1762 H1770 0.960 . S
C1763 C1761 1.381 . S
C1763 C1764 1.394 . S
C1763 H1771 0.930 . S
C1764 C1763 1.394 . S
C1764 C1765 1.383 . S
C1764 H1772 0.929 . S
C1765 C1764 1.383 . S
C1765 C1766 1.377 . S
C1766 H1750 0.930 . S
C1766 C1765 1.377 . S
C1766 C1767 1.379 . S
C1767 H1751 0.931 . S
C1767 C1761 1.383 . S
C1767 C1766 1.379 . S
H1768 C1762 0.959 . S
H1769 C1762 0.961 . S
H1770 C1762 0.960 . S
H1771 C1763 0.930 . S
H1772 C1764 0.929 . S
H1773 C1781 0.929 . S
H1774 C1783 0.930 . S
H1775 C1785 0.930 . S
H1776 C1788 0.929 . S
H1777 C1791 0.930 1_455 S
H1778 C1793 0.960 . S
H1779 C1793 0.960 . S
H1780 C1793 0.960 . S
C1781 H1773 0.929 . S
C1781 C1782 1.377 . S
C1781 C1783 1.384 . S
C1782 C1781 1.377 . S
C1782 C1788 1.390 . S
C1783 H1774 0.930 . S
C1783 C1781 1.384 . S
C1783 C1784 1.372 . S
C1784 C1783 1.372 . S
C1784 C1785 1.400 . S
C1784 C1789 1.490 1_455 S
C1785 H1775 0.930 . S
C1785 C1784 1.400 . S
C1785 C1788 1.386 . S
H1786 C1802 0.930 . S
H1787 C1803 0.931 . S
C1788 H1776 0.929 . S
C1788 C1782 1.390 . S
C1788 C1785 1.386 . S
C1789 C1784 1.490 1_655 S
C1789 C1791 1.395 . S
C1789 C1792 1.403 . S
H1790 C1796 0.930 . S
C1791 H1777 0.930 1_655 S
C1791 C1789 1.395 . S
C1791 C1794 1.403 . S
C1792 C1789 1.403 . S
C1792 C1793 1.524 . S
C1792 C1796 1.400 . S
C1793 H1778 0.960 . S
C1793 H1779 0.960 . S
C1793 H1780 0.960 . S
C1793 C1792 1.524 . S
C1794 C1791 1.403 . S
C1794 C1795 1.392 . S
C1794 C1798 1.495 . S
C1795 C1794 1.392 . S
C1795 C1796 1.385 . S
C1795 C1797 1.478 . S
C1796 H1790 0.930 . S
C1796 C1792 1.400 . S
C1796 C1795 1.385 . S
C1797 C1795 1.478 . S
C1797 C1799 1.381 . S
C1797 C1803 1.383 . S
C1798 C1794 1.495 . S
C1798 H1804 0.959 . S
C1798 H1805 0.961 . S
C1798 H1806 0.960 . S
C1799 C1797 1.381 . S
C1799 C1800 1.394 . S
C1799 H1807 0.930 . S
C1800 C1799 1.394 . S
C1800 C1801 1.383 . S
C1800 H1808 0.929 . S
C1801 C1800 1.383 . S
C1801 C1802 1.377 . S
C1802 H1786 0.930 . S
C1802 C1801 1.377 . S
C1802 C1803 1.379 . S
C1803 H1787 0.931 . S
C1803 C1797 1.383 . S
C1803 C1802 1.379 . S
H1804 C1798 0.959 . S
H1805 C1798 0.961 . S
H1806 C1798 0.960 . S
H1807 C1799 0.930 . S
H1808 C1800 0.929 . S
H1809 C1817 0.929 . S
H1810 C1819 0.930 . S
H1811 C1821 0.930 . S
H1812 C1824 0.929 . S
H1813 C1827 0.930 . S
H1814 C1829 0.960 . S
H1815 C1829 0.960 . S
H1816 C1829 0.960 . S
C1817 H1809 0.929 . S
C1817 C1818 1.377 . S
C1817 C1819 1.384 . S
C1818 C1817 1.377 . S
C1818 C1824 1.390 . S
C1819 H1810 0.930 . S
C1819 C1817 1.384 . S
C1819 C1820 1.372 . S
C1820 C1819 1.372 . S
C1820 C1821 1.400 . S
C1820 C1825 1.490 . S
C1821 H1811 0.930 . S
C1821 C1820 1.400 . S
C1821 C1824 1.386 . S
H1822 C1838 0.930 . S
H1823 C1839 0.931 . S
C1824 H1812 0.929 . S
C1824 C1818 1.390 . S
C1824 C1821 1.386 . S
C1825 C1820 1.490 . S
C1825 C1827 1.395 . S
C1825 C1828 1.403 . S
H1826 C1832 0.930 . S
C1827 H1813 0.930 . S
C1827 C1825 1.395 . S
C1827 C1830 1.403 . S
C1828 C1825 1.403 . S
C1828 C1829 1.524 . S
C1828 C1832 1.400 . S
C1829 H1814 0.960 . S
C1829 H1815 0.960 . S
C1829 H1816 0.960 . S
C1829 C1828 1.524 . S
C1830 C1827 1.403 . S
C1830 C1831 1.392 . S
C1830 C1834 1.495 . S
C1831 C1830 1.392 . S
C1831 C1832 1.385 . S
C1831 C1833 1.478 . S
C1832 H1826 0.930 . S
C1832 C1828 1.400 . S
C1832 C1831 1.385 . S
C1833 C1831 1.478 . S
C1833 C1835 1.381 . S
C1833 C1839 1.383 . S
C1834 C1830 1.495 . S
C1834 H1840 0.959 . S
C1834 H1841 0.961 . S
C1834 H1842 0.960 . S
C1835 C1833 1.381 . S
C1835 C1836 1.394 . S
C1835 H1843 0.930 . S
C1836 C1835 1.394 . S
C1836 C1837 1.383 . S
C1836 H1844 0.929 . S
C1837 C1836 1.383 . S
C1837 C1838 1.377 . S
C1838 H1822 0.930 . S
C1838 C1837 1.377 . S
C1838 C1839 1.379 . S
C1839 H1823 0.931 . S
C1839 C1833 1.383 . S
C1839 C1838 1.379 . S
H1840 C1834 0.959 . S
H1841 C1834 0.961 . S
H1842 C1834 0.960 . S
H1843 C1835 0.930 . S
H1844 C1836 0.929 . S
H1845 C1853 0.929 . S
H1846 C1855 0.930 . S
H1847 C1857 0.930 . S
H1848 C1860 0.929 . S
H1849 C1863 0.930 . S
H1850 C1865 0.960 1_655 S
H1851 C1865 0.960 . S
H1852 C1865 0.960 . S
C1853 H1845 0.929 . S
C1853 C1854 1.377 . S
C1853 C1855 1.384 . S
C1854 C1853 1.377 . S
C1854 C1860 1.390 . S
C1855 H1846 0.930 . S
C1855 C1853 1.384 . S
C1855 C1856 1.372 . S
C1856 C1855 1.372 . S
C1856 C1857 1.400 . S
C1856 C1861 1.480 1_455 S
C1857 H1847 0.930 . S
C1857 C1856 1.400 . S
C1857 C1860 1.386 . S
H1858 C1874 0.930 . S
H1859 C1875 0.931 . S
C1860 H1848 0.929 . S
C1860 C1854 1.390 . S
C1860 C1857 1.386 . S
C1861 C1856 1.480 1_655 S
C1861 C1863 1.398 . S
C1861 C1864 1.409 . S
H1862 C1868 0.930 . S
C1863 H1849 0.930 . S
C1863 C1861 1.398 . S
C1863 C1866 1.403 . S
C1864 C1861 1.409 . S
C1864 C1865 1.524 1_655 S
C1864 C1868 1.400 . S
C1865 H1850 0.960 1_455 S
C1865 H1851 0.960 . S
C1865 H1852 0.960 . S
C1865 C1864 1.524 1_455 S
C1866 C1863 1.403 . S
C1866 C1867 1.392 . S
C1866 C1870 1.495 . S
C1867 C1866 1.392 . S
C1867 C1868 1.385 . S
C1867 C1869 1.478 . S
C1868 H1862 0.930 . S
C1868 C1864 1.400 . S
C1868 C1867 1.385 . S
C1869 C1867 1.478 . S
C1869 C1871 1.381 . S
C1869 C1875 1.383 . S
C1870 C1866 1.495 . S
C1870 H1876 0.959 . S
C1870 H1877 0.961 . S
C1870 H1878 0.960 . S
C1871 C1869 1.381 . S
C1871 C1872 1.394 . S
C1871 H1879 0.930 . S
C1872 C1871 1.394 . S
C1872 C1873 1.383 . S
C1872 H1880 0.929 . S
C1873 C1872 1.383 . S
C1873 C1874 1.377 . S
C1874 H1858 0.930 . S
C1874 C1873 1.377 . S
C1874 C1875 1.379 . S
C1875 H1859 0.931 . S
C1875 C1869 1.383 . S
C1875 C1874 1.379 . S
H1876 C1870 0.959 . S
H1877 C1870 0.961 . S
H1878 C1870 0.960 . S
H1879 C1871 0.930 . S
H1880 C1872 0.929 . S
H1881 C1889 0.929 . S
H1882 C1891 0.930 . S
H1883 C1893 0.930 . S
H1884 C1896 0.929 . S
H1885 C1899 0.930 . S
H1886 C1901 0.960 . S
H1887 C1901 0.960 . S
H1888 C1901 0.960 . S
C1889 H1881 0.929 . S
C1889 C1890 1.377 . S
C1889 C1891 1.384 . S
C1890 C1889 1.377 . S
C1890 C1896 1.390 . S
C1891 H1882 0.930 . S
C1891 C1889 1.384 . S
C1891 C1892 1.372 . S
C1892 C1891 1.372 . S
C1892 C1893 1.400 . S
C1892 C1897 1.490 . S
C1893 H1883 0.930 . S
C1893 C1892 1.400 . S
C1893 C1896 1.386 . S
H1894 C1910 0.930 . S
H1895 C1911 0.931 . S
C1896 H1884 0.929 . S
C1896 C1890 1.390 . S
C1896 C1893 1.386 . S
C1897 C1892 1.490 . S
C1897 C1899 1.395 . S
C1897 C1900 1.403 . S
H1898 C1904 0.930 . S
C1899 H1885 0.930 . S
C1899 C1897 1.395 . S
C1899 C1902 1.403 . S
C1900 C1897 1.403 . S
C1900 C1901 1.524 . S
C1900 C1904 1.400 . S
C1901 H1886 0.960 . S
C1901 H1887 0.960 . S
C1901 H1888 0.960 . S
C1901 C1900 1.524 . S
C1902 C1899 1.403 . S
C1902 C1903 1.392 . S
C1902 C1906 1.495 . S
C1903 C1902 1.392 . S
C1903 C1904 1.385 . S
C1903 C1905 1.478 . S
C1904 H1898 0.930 . S
C1904 C1900 1.400 . S
C1904 C1903 1.385 . S
C1905 C1903 1.478 . S
C1905 C1907 1.381 . S
C1905 C1911 1.383 . S
C1906 C1902 1.495 . S
C1906 H1912 0.959 . S
C1906 H1913 0.961 . S
C1906 H1914 0.960 . S
C1907 C1905 1.381 . S
C1907 C1908 1.394 . S
C1907 H1915 0.930 . S
C1908 C1907 1.394 . S
C1908 C1909 1.383 . S
C1908 H1916 0.929 . S
C1909 C1908 1.383 . S
C1909 C1910 1.377 . S
C1910 H1894 0.930 . S
C1910 C1909 1.377 . S
C1910 C1911 1.379 . S
C1911 H1895 0.931 . S
C1911 C1905 1.383 . S
C1911 C1910 1.379 . S
H1912 C1906 0.959 . S
H1913 C1906 0.961 . S
H1914 C1906 0.960 . S
H1915 C1907 0.930 . S
H1916 C1908 0.929 . S
H1917 C1925 0.929 . S
H1918 C1927 0.930 . S
H1919 C1929 0.930 . S
H1920 C1932 0.929 . S
H1921 C1935 0.930 . S
H1922 C1937 0.960 . S
H1923 C1937 0.960 1_565 S
H1924 C1937 0.960 1_565 S
C1925 H1917 0.929 . S
C1925 C1926 1.377 . S
C1925 C1927 1.384 . S
C1926 C1925 1.377 . S
C1926 C1932 1.390 . S
C1927 H1918 0.930 . S
C1927 C1925 1.384 . S
C1927 C1928 1.372 . S
C1928 C1927 1.372 . S
C1928 C1929 1.400 . S
C1928 C1933 1.490 1_565 S
C1929 H1919 0.930 . S
C1929 C1928 1.400 . S
C1929 C1932 1.386 . S
H1930 C1946 0.930 . S
H1931 C1947 0.931 . S
C1932 H1920 0.929 . S
C1932 C1926 1.390 . S
C1932 C1929 1.386 . S
C1933 C1928 1.490 1_545 S
C1933 C1935 1.395 . S
C1933 C1936 1.403 . S
H1934 C1940 0.930 . S
C1935 H1921 0.930 . S
C1935 C1933 1.395 . S
C1935 C1938 1.403 . S
C1936 C1933 1.403 . S
C1936 C1937 1.524 . S
C1936 C1940 1.400 . S
C1937 H1922 0.960 . S
C1937 H1923 0.960 1_545 S
C1937 H1924 0.960 1_545 S
C1937 C1936 1.524 . S
C1938 C1935 1.403 . S
C1938 C1939 1.392 . S
C1938 C1942 1.495 . S
C1939 C1938 1.392 . S
C1939 C1940 1.385 . S
C1939 C1941 1.478 . S
C1940 H1934 0.930 . S
C1940 C1936 1.400 . S
C1940 C1939 1.385 . S
C1941 C1939 1.478 . S
C1941 C1943 1.381 . S
C1941 C1947 1.383 . S
C1942 C1938 1.495 . S
C1942 H1948 0.959 . S
C1942 H1949 0.961 . S
C1942 H1950 0.960 . S
C1943 C1941 1.381 . S
C1943 C1944 1.394 . S
C1943 H1951 0.930 . S
C1944 C1943 1.394 . S
C1944 C1945 1.383 . S
C1944 H1952 0.929 . S
C1945 C1944 1.383 . S
C1945 C1946 1.377 . S
C1946 H1930 0.930 . S
C1946 C1945 1.377 . S
C1946 C1947 1.379 . S
C1947 H1931 0.931 . S
C1947 C1941 1.383 . S
C1947 C1946 1.379 . S
H1948 C1942 0.959 . S
H1949 C1942 0.961 . S
H1950 C1942 0.960 . S
H1951 C1943 0.930 . S
H1952 C1944 0.929 . S
H1953 C1961 0.929 . S
H1954 C1963 0.930 . S
H1955 C1965 0.930 . S
H1956 C1968 0.929 . S
H1957 C1971 0.930 . S
H1958 C1973 0.960 . S
H1959 C1973 0.960 . S
H1960 C1973 0.960 . S
C1961 H1953 0.929 . S
C1961 C1962 1.377 . S
C1961 C1963 1.384 . S
C1962 C1961 1.377 . S
C1962 C1968 1.390 . S
C1963 H1954 0.930 . S
C1963 C1961 1.384 . S
C1963 C1964 1.372 . S
C1964 C1963 1.372 . S
C1964 C1965 1.400 . S
C1964 C1969 1.490 . S
C1965 H1955 0.930 . S
C1965 C1964 1.400 . S
C1965 C1968 1.386 . S
H1966 C1982 0.930 . S
H1967 C1983 0.931 . S
C1968 H1956 0.929 . S
C1968 C1962 1.390 . S
C1968 C1965 1.386 . S
C1969 C1964 1.490 . S
C1969 C1971 1.395 . S
C1969 C1972 1.403 . S
H1970 C1976 0.930 . S
C1971 H1957 0.930 . S
C1971 C1969 1.395 . S
C1971 C1974 1.403 . S
C1972 C1969 1.403 . S
C1972 C1973 1.524 . S
C1972 C1976 1.400 . S
C1973 H1958 0.960 . S
C1973 H1959 0.960 . S
C1973 H1960 0.960 . S
C1973 C1972 1.524 . S
C1974 C1971 1.403 . S
C1974 C1975 1.392 . S
C1974 C1978 1.495 . S
C1975 C1974 1.392 . S
C1975 C1976 1.385 . S
C1975 C1977 1.478 . S
C1976 H1970 0.930 . S
C1976 C1972 1.400 . S
C1976 C1975 1.385 . S
C1977 C1975 1.478 . S
C1977 C1979 1.381 . S
C1977 C1983 1.383 . S
C1978 C1974 1.495 . S
C1978 H1984 0.959 . S
C1978 H1985 0.961 . S
C1978 H1986 0.960 . S
C1979 C1977 1.381 . S
C1979 C1980 1.394 . S
C1979 H1987 0.930 . S
C1980 C1979 1.394 . S
C1980 C1981 1.383 . S
C1980 H1988 0.929 . S
C1981 C1980 1.383 . S
C1981 C1982 1.377 . S
C1982 H1966 0.930 . S
C1982 C1981 1.377 . S
C1982 C1983 1.379 . S
C1983 H1967 0.931 . S
C1983 C1977 1.383 . S
C1983 C1982 1.379 . S
H1984 C1978 0.959 . S
H1985 C1978 0.961 . S
H1986 C1978 0.960 . S
H1987 C1979 0.930 . S
H1988 C1980 0.929 . S
H1989 C1997 0.929 . S
H1990 C1999 0.930 . S
H1991 C2001 0.930 . S
H1992 C2004 0.929 . S
H1993 C2007 0.930 . S
H1994 C2009 0.960 . S
H1995 C2009 0.960 . S
H1996 C2009 0.960 . S
C1997 H1989 0.929 . S
C1997 C1998 1.377 . S
C1997 C1999 1.384 . S
C1998 C1997 1.377 . S
C1998 C2004 1.390 . S
C1999 H1990 0.930 . S
C1999 C1997 1.384 . S
C1999 C2000 1.372 . S
C2000 C1999 1.372 . S
C2000 C2001 1.400 . S
C2000 C2005 1.490 . S
C2001 H1991 0.930 . S
C2001 C2000 1.400 . S
C2001 C2004 1.386 . S
H2002 C2018 0.930 . S
H2003 C2019 0.931 . S
C2004 H1992 0.929 . S
C2004 C1998 1.390 . S
C2004 C2001 1.386 . S
C2005 C2000 1.490 . S
C2005 C2007 1.395 . S
C2005 C2008 1.403 . S
H2006 C2012 0.930 . S
C2007 H1993 0.930 . S
C2007 C2005 1.395 . S
C2007 C2010 1.403 . S
C2008 C2005 1.403 . S
C2008 C2009 1.524 . S
C2008 C2012 1.400 . S
C2009 H1994 0.960 . S
C2009 H1995 0.960 . S
C2009 H1996 0.960 . S
C2009 C2008 1.524 . S
C2010 C2007 1.403 . S
C2010 C2011 1.392 . S
C2010 C2014 1.495 . S
C2011 C2010 1.392 . S
C2011 C2012 1.385 . S
C2011 C2013 1.478 . S
C2012 H2006 0.930 . S
C2012 C2008 1.400 . S
C2012 C2011 1.385 . S
C2013 C2011 1.478 . S
C2013 C2015 1.381 . S
C2013 C2019 1.383 . S
C2014 C2010 1.495 . S
C2014 H2020 0.959 . S
C2014 H2021 0.961 . S
C2014 H2022 0.960 . S
C2015 C2013 1.381 . S
C2015 C2016 1.394 . S
C2015 H2023 0.930 . S
C2016 C2015 1.394 . S
C2016 C2017 1.383 . S
C2016 H2024 0.929 . S
C2017 C2016 1.383 . S
C2017 C2018 1.377 . S
C2018 H2002 0.930 . S
C2018 C2017 1.377 . S
C2018 C2019 1.379 . S
C2019 H2003 0.931 . S
C2019 C2013 1.383 . S
C2019 C2018 1.379 . S
H2020 C2014 0.959 . S
H2021 C2014 0.961 . S
H2022 C2014 0.960 . S
H2023 C2015 0.930 . S
H2024 C2016 0.929 . S
H2025 C2033 0.929 . S
H2026 C2035 0.930 . S
H2027 C2037 0.930 . S
H2028 C2040 0.929 . S
H2029 C2043 0.930 . S
H2030 C2045 0.960 . S
H2031 C2045 0.960 . S
H2032 C2045 0.960 . S
C2033 H2025 0.929 . S
C2033 C2034 1.377 . S
C2033 C2035 1.384 . S
C2034 C2033 1.377 . S
C2034 C2040 1.390 . S
C2035 H2026 0.930 . S
C2035 C2033 1.384 . S
C2035 C2036 1.372 . S
C2036 C2035 1.372 . S
C2036 C2037 1.400 . S
C2036 C2041 1.490 . S
C2037 H2027 0.930 . S
C2037 C2036 1.400 . S
C2037 C2040 1.386 . S
H2038 C2054 0.930 . S
H2039 C2055 0.931 . S
C2040 H2028 0.929 . S
C2040 C2034 1.390 . S
C2040 C2037 1.386 . S
C2041 C2036 1.490 . S
C2041 C2043 1.395 . S
C2041 C2044 1.403 . S
H2042 C2048 0.930 . S
C2043 H2029 0.930 . S
C2043 C2041 1.395 . S
C2043 C2046 1.403 . S
C2044 C2041 1.403 . S
C2044 C2045 1.524 . S
C2044 C2048 1.400 . S
C2045 H2030 0.960 . S
C2045 H2031 0.960 . S
C2045 H2032 0.960 . S
C2045 C2044 1.524 . S
C2046 C2043 1.403 . S
C2046 C2047 1.392 . S
C2046 C2050 1.495 . S
C2047 C2046 1.392 . S
C2047 C2048 1.385 . S
C2047 C2049 1.478 . S
C2048 H2042 0.930 . S
C2048 C2044 1.400 . S
C2048 C2047 1.385 . S
C2049 C2047 1.478 . S
C2049 C2051 1.381 . S
C2049 C2055 1.383 . S
C2050 C2046 1.495 . S
C2050 H2056 0.959 . S
C2050 H2057 0.961 . S
C2050 H2058 0.960 . S
C2051 C2049 1.381 . S
C2051 C2052 1.394 . S
C2051 H2059 0.930 . S
C2052 C2051 1.394 . S
C2052 C2053 1.383 . S
C2052 H2060 0.929 . S
C2053 C2052 1.383 . S
C2053 C2054 1.377 . S
C2054 H2038 0.930 . S
C2054 C2053 1.377 . S
C2054 C2055 1.379 . S
C2055 H2039 0.931 . S
C2055 C2049 1.383 . S
C2055 C2054 1.379 . S
H2056 C2050 0.959 . S
H2057 C2050 0.961 . S
H2058 C2050 0.960 . S
H2059 C2051 0.930 . S
H2060 C2052 0.929 . S
H2061 C2069 0.929 . S
H2062 C2071 0.930 . S
H2063 C2073 0.930 . S
H2064 C2076 0.929 . S
H2065 C2079 0.930 . S
H2066 C2081 0.960 . S
H2067 C2081 0.960 . S
H2068 C2081 0.960 . S
C2069 H2061 0.929 . S
C2069 C2070 1.377 . S
C2069 C2071 1.384 . S
C2070 C2069 1.377 . S
C2070 C2076 1.390 . S
C2071 H2062 0.930 . S
C2071 C2069 1.384 . S
C2071 C2072 1.372 . S
C2072 C2071 1.372 . S
C2072 C2073 1.400 . S
C2072 C2077 1.490 . S
C2073 H2063 0.930 . S
C2073 C2072 1.400 . S
C2073 C2076 1.386 . S
H2074 C2090 0.937 . S
H2075 C2091 0.931 . S
C2076 H2064 0.929 . S
C2076 C2070 1.390 . S
C2076 C2073 1.386 . S
C2077 C2072 1.490 . S
C2077 C2079 1.395 . S
C2077 C2080 1.403 . S
H2078 C2084 0.930 1_545 S
C2079 H2065 0.930 . S
C2079 C2077 1.395 . S
C2079 C2082 1.403 . S
C2080 C2077 1.403 . S
C2080 C2081 1.524 1_565 S
C2080 C2084 1.400 . S
C2081 H2066 0.960 . S
C2081 H2067 0.960 . S
C2081 H2068 0.960 . S
C2081 C2080 1.524 1_545 S
C2082 C2079 1.403 . S
C2082 C2083 1.392 . S
C2082 C2086 1.495 . S
C2083 C2082 1.392 . S
C2083 C2084 1.385 . S
C2083 C2085 1.478 . S
C2084 H2078 0.930 1_565 S
C2084 C2080 1.400 . S
C2084 C2083 1.385 . S
C2085 C2083 1.478 . S
C2085 C2087 1.381 . S
C2085 C2091 1.383 . S
C2086 C2082 1.495 . S
C2086 H2092 0.959 . S
C2086 H2093 0.961 . S
C2086 H2094 0.960 . S
C2087 C2085 1.381 . S
C2087 C2088 1.394 . S
C2087 H2095 0.930 . S
C2088 C2087 1.394 . S
C2088 C2089 1.383 . S
C2088 H2096 0.929 . S
C2089 C2088 1.383 . S
C2089 C2090 1.377 . S
C2090 H2074 0.937 . S
C2090 C2089 1.377 . S
C2090 C2091 1.379 . S
C2091 H2075 0.931 . S
C2091 C2085 1.383 . S
C2091 C2090 1.379 . S
H2092 C2086 0.959 . S
H2093 C2086 0.961 . S
H2094 C2086 0.960 . S
H2095 C2087 0.930 . S
H2096 C2088 0.929 . S
H2097 C2105 0.929 . S
H2098 C2107 0.930 . S
H2099 C2109 0.930 . S
H2100 C2112 0.929 . S
H2101 C2115 0.930 . S
H2102 C2117 0.960 . S
H2103 C2117 0.960 . S
H2104 C2117 0.960 1_455 S
C2105 H2097 0.929 . S
C2105 C2106 1.377 . S
C2105 C2107 1.384 . S
C2106 C2105 1.377 . S
C2106 C2112 1.390 . S
C2107 H2098 0.930 . S
C2107 C2105 1.384 . S
C2107 C2108 1.372 . S
C2108 C2107 1.372 . S
C2108 C2109 1.400 . S
C2108 C2113 1.490 . S
C2109 H2099 0.930 . S
C2109 C2108 1.400 . S
C2109 C2112 1.386 . S
H2110 C2126 0.930 . S
H2111 C2127 0.931 . S
C2112 H2100 0.929 . S
C2112 C2106 1.390 . S
C2112 C2109 1.386 . S
C2113 C2108 1.490 . S
C2113 C2115 1.395 . S
C2113 C2116 1.403 . S
H2114 C2120 0.930 1_655 S
C2115 H2101 0.930 . S
C2115 C2113 1.395 . S
C2115 C2118 1.403 . S
C2116 C2113 1.403 . S
C2116 C2117 1.524 1_455 S
C2116 C2120 1.400 . S
C2117 H2102 0.960 . S
C2117 H2103 0.960 . S
C2117 H2104 0.960 1_655 S
C2117 C2116 1.524 1_655 S
C2118 C2115 1.403 . S
C2118 C2119 1.392 . S
C2118 C2122 1.495 . S
C2119 C2118 1.392 . S
C2119 C2120 1.385 . S
C2119 C2121 1.478 . S
C2120 H2114 0.930 1_455 S
C2120 C2116 1.400 . S
C2120 C2119 1.385 . S
C2121 C2119 1.478 . S
C2121 C2123 1.381 . S
C2121 C2127 1.383 . S
C2122 C2118 1.495 . S
C2122 H2128 0.959 . S
C2122 H2129 0.961 . S
C2122 H2130 0.960 . S
C2123 C2121 1.381 . S
C2123 C2124 1.394 . S
C2123 H2131 0.930 . S
C2124 C2123 1.394 . S
C2124 C2125 1.383 . S
C2124 H2132 0.929 . S
C2125 C2124 1.383 . S
C2125 C2126 1.377 . S
C2126 H2110 0.930 . S
C2126 C2125 1.377 . S
C2126 C2127 1.379 . S
C2127 H2111 0.931 . S
C2127 C2121 1.383 . S
C2127 C2126 1.379 . S
H2128 C2122 0.959 . S
H2129 C2122 0.961 . S
H2130 C2122 0.960 . S
H2131 C2123 0.930 . S
H2132 C2124 0.929 . S
H2133 C2141 0.929 . S
H2134 C2143 0.930 . S
H2135 C2145 0.930 . S
H2136 C2148 0.929 . S
H2137 C2151 0.930 . S
H2138 C2153 0.960 . S
H2139 C2153 0.960 . S
H2140 C2153 0.960 . S
C2141 H2133 0.929 . S
C2141 C2142 1.377 . S
C2141 C2143 1.384 . S
C2142 C2141 1.377 . S
C2142 C2148 1.390 . S
C2143 H2134 0.930 . S
C2143 C2141 1.384 . S
C2143 C2144 1.372 . S
C2144 C2143 1.372 . S
C2144 C2145 1.400 . S
C2144 C2149 1.490 . S
C2145 H2135 0.930 . S
C2145 C2144 1.400 . S
C2145 C2148 1.386 . S
H2146 C2162 0.930 . S
H2147 C2163 0.931 . S
C2148 H2136 0.929 . S
C2148 C2142 1.390 . S
C2148 C2145 1.386 . S
C2149 C2144 1.490 . S
C2149 C2151 1.395 . S
C2149 C2152 1.403 . S
H2150 C2156 0.930 . S
C2151 H2137 0.930 . S
C2151 C2149 1.395 . S
C2151 C2154 1.403 . S
C2152 C2149 1.403 . S
C2152 C2153 1.524 . S
C2152 C2156 1.400 . S
C2153 H2138 0.960 . S
C2153 H2139 0.960 . S
C2153 H2140 0.960 . S
C2153 C2152 1.524 . S
C2154 C2151 1.403 . S
C2154 C2155 1.392 . S
C2154 C2158 1.495 . S
C2155 C2154 1.392 . S
C2155 C2156 1.385 . S
C2155 C2157 1.478 . S
C2156 H2150 0.930 . S
C2156 C2152 1.400 . S
C2156 C2155 1.385 . S
C2157 C2155 1.478 . S
C2157 C2159 1.381 . S
C2157 C2163 1.383 . S
C2158 C2154 1.495 . S
C2158 H2164 0.959 . S
C2158 H2165 0.961 . S
C2158 H2166 0.960 . S
C2159 C2157 1.381 . S
C2159 C2160 1.394 . S
C2159 H2167 0.930 . S
C2160 C2159 1.394 . S
C2160 C2161 1.383 . S
C2160 H2168 0.929 . S
C2161 C2160 1.383 . S
C2161 C2162 1.377 . S
C2162 H2146 0.930 . S
C2162 C2161 1.377 . S
C2162 C2163 1.379 . S
C2163 H2147 0.931 . S
C2163 C2157 1.383 . S
C2163 C2162 1.379 . S
H2164 C2158 0.959 . S
H2165 C2158 0.961 . S
H2166 C2158 0.960 . S
H2167 C2159 0.930 . S
H2168 C2160 0.929 . S
H2169 C2177 0.929 . S
H2170 C2179 0.930 . S
H2171 C2181 0.930 . S
H2172 C2184 0.929 . S
H2173 C2187 0.930 . S
H2174 C2189 0.960 . S
H2175 C2189 0.960 . S
H2176 C2189 0.960 . S
C2177 H2169 0.929 . S
C2177 C2178 1.377 . S
C2177 C2179 1.384 . S
C2178 C2177 1.377 . S
C2178 C2184 1.390 . S
C2179 H2170 0.930 . S
C2179 C2177 1.384 . S
C2179 C2180 1.372 . S
C2180 C2179 1.372 . S
C2180 C2181 1.400 . S
C2180 C2185 1.490 . S
C2181 H2171 0.930 . S
C2181 C2180 1.400 . S
C2181 C2184 1.386 . S
H2182 C2198 0.930 . S
H2183 C2199 0.931 . S
C2184 H2172 0.929 . S
C2184 C2178 1.390 . S
C2184 C2181 1.386 . S
C2185 C2180 1.490 . S
C2185 C2187 1.395 . S
C2185 C2188 1.403 . S
H2186 C2192 0.930 . S
C2187 H2173 0.930 . S
C2187 C2185 1.395 . S
C2187 C2190 1.403 . S
C2188 C2185 1.403 . S
C2188 C2189 1.524 . S
C2188 C2192 1.400 . S
C2189 H2174 0.960 . S
C2189 H2175 0.960 . S
C2189 H2176 0.960 . S
C2189 C2188 1.524 . S
C2190 C2187 1.403 . S
C2190 C2191 1.392 . S
C2190 C2194 1.495 . S
C2191 C2190 1.392 . S
C2191 C2192 1.385 . S
C2191 C2193 1.478 . S
C2192 H2186 0.930 . S
C2192 C2188 1.400 . S
C2192 C2191 1.385 . S
C2193 C2191 1.478 . S
C2193 C2195 1.381 . S
C2193 C2199 1.383 1_655 S
C2194 C2190 1.495 . S
C2194 H2200 0.959 . S
C2194 H2201 0.961 . S
C2194 H2202 0.960 . S
C2195 C2193 1.381 . S
C2195 C2196 1.394 . S
C2195 H2203 0.930 . S
C2196 C2195 1.394 . S
C2196 C2197 1.383 . S
C2196 H2204 0.929 . S
C2197 C2196 1.383 . S
C2197 C2198 1.377 1_655 S
C2198 H2182 0.930 . S
C2198 C2197 1.377 1_455 S
C2198 C2199 1.379 . S
C2199 H2183 0.931 . S
C2199 C2193 1.383 1_455 S
C2199 C2198 1.379 . S
H2200 C2194 0.959 . S
H2201 C2194 0.961 . S
H2202 C2194 0.960 . S
H2203 C2195 0.930 . S
H2204 C2196 0.929 . S
H2205 C2213 0.929 . S
H2206 C2215 0.930 . S
H2207 C2217 0.930 . S
H2208 C2220 0.929 . S
H2209 C2223 0.930 . S
H2210 C2225 0.960 . S
H2211 C2225 0.960 . S
H2212 C2225 0.960 . S
C2213 H2205 0.929 . S
C2213 C2214 1.377 . S
C2213 C2215 1.384 . S
C2214 C2213 1.377 . S
C2214 C2220 1.390 . S
C2215 H2206 0.930 . S
C2215 C2213 1.384 . S
C2215 C2216 1.372 . S
C2216 C2215 1.372 . S
C2216 C2217 1.400 . S
C2216 C2221 1.490 . S
C2217 H2207 0.930 . S
C2217 C2216 1.400 . S
C2217 C2220 1.386 . S
H2218 C2234 0.930 . S
H2219 C2235 0.931 . S
C2220 H2208 0.929 . S
C2220 C2214 1.390 . S
C2220 C2217 1.386 . S
C2221 C2216 1.490 . S
C2221 C2223 1.395 . S
C2221 C2224 1.403 . S
H2222 C2228 0.930 . S
C2223 H2209 0.930 . S
C2223 C2221 1.395 . S
C2223 C2226 1.403 . S
C2224 C2221 1.403 . S
C2224 C2225 1.524 . S
C2224 C2228 1.400 . S
C2225 H2210 0.960 . S
C2225 H2211 0.960 . S
C2225 H2212 0.960 . S
C2225 C2224 1.524 . S
C2226 C2223 1.403 . S
C2226 C2227 1.392 . S
C2226 C2230 1.495 . S
C2227 C2226 1.392 . S
C2227 C2228 1.385 . S
C2227 C2229 1.478 . S
C2228 H2222 0.930 . S
C2228 C2224 1.400 . S
C2228 C2227 1.385 . S
C2229 C2227 1.478 . S
C2229 C2231 1.381 . S
C2229 C2235 1.383 . S
C2230 C2226 1.495 . S
C2230 H2236 0.959 . S
C2230 H2237 0.961 . S
C2230 H2238 0.960 . S
C2231 C2229 1.381 . S
C2231 C2232 1.394 . S
C2231 H2239 0.930 . S
C2232 C2231 1.394 . S
C2232 C2233 1.383 . S
C2232 H2240 0.929 . S
C2233 C2232 1.383 . S
C2233 C2234 1.377 . S
C2234 H2218 0.930 . S
C2234 C2233 1.377 . S
C2234 C2235 1.379 . S
C2235 H2219 0.931 . S
C2235 C2229 1.383 . S
C2235 C2234 1.379 . S
H2236 C2230 0.959 . S
H2237 C2230 0.961 . S
H2238 C2230 0.960 . S
H2239 C2231 0.930 . S
H2240 C2232 0.929 . S
H2241 C2249 0.929 . S
H2242 C2251 0.930 . S
H2243 C2253 0.930 . S
H2244 C2256 0.929 . S
H2245 C2259 0.930 . S
H2246 C2261 0.960 . S
H2247 C2261 0.960 . S
H2248 C2261 0.960 . S
C2249 H2241 0.929 . S
C2249 C2250 1.377 . S
C2249 C2251 1.384 . S
C2250 C2249 1.377 . S
C2250 C2256 1.390 . S
C2251 H2242 0.930 . S
C2251 C2249 1.384 . S
C2251 C2252 1.372 . S
C2252 C2251 1.372 . S
C2252 C2253 1.400 . S
C2252 C2257 1.490 . S
C2253 H2243 0.930 . S
C2253 C2252 1.400 . S
C2253 C2256 1.386 . S
H2254 C2270 0.930 . S
H2255 C2271 0.931 . S
C2256 H2244 0.929 . S
C2256 C2250 1.390 . S
C2256 C2253 1.386 . S
C2257 C2252 1.490 . S
C2257 C2259 1.395 . S
C2257 C2260 1.403 . S
H2258 C2264 0.930 . S
C2259 H2245 0.930 . S
C2259 C2257 1.395 . S
C2259 C2262 1.403 . S
C2260 C2257 1.403 . S
C2260 C2261 1.524 . S
C2260 C2264 1.400 . S
C2261 H2246 0.960 . S
C2261 H2247 0.960 . S
C2261 H2248 0.960 . S
C2261 C2260 1.524 . S
C2262 C2259 1.403 . S
C2262 C2263 1.392 . S
C2262 C2266 1.495 . S
C2263 C2262 1.392 . S
C2263 C2264 1.385 . S
C2263 C2265 1.478 . S
C2264 H2258 0.930 . S
C2264 C2260 1.400 . S
C2264 C2263 1.385 . S
C2265 C2263 1.478 . S
C2265 C2267 1.381 . S
C2265 C2271 1.383 1_545 S
C2266 C2262 1.495 . S
C2266 H2272 0.959 . S
C2266 H2273 0.961 . S
C2266 H2274 0.960 . S
C2267 C2265 1.381 . S
C2267 C2268 1.394 . S
C2267 H2275 0.930 . S
C2268 C2267 1.394 . S
C2268 C2269 1.383 . S
C2268 H2276 0.929 . S
C2269 C2268 1.383 . S
C2269 C2270 1.377 1_545 S
C2270 H2254 0.930 . S
C2270 C2269 1.377 1_565 S
C2270 C2271 1.379 . S
C2271 H2255 0.931 . S
C2271 C2265 1.383 1_565 S
C2271 C2270 1.379 . S
H2272 C2266 0.959 . S
H2273 C2266 0.961 . S
H2274 C2266 0.960 . S
H2275 C2267 0.930 . S
H2276 C2268 0.929 . S
H2277 C2285 0.929 . S
H2278 C2287 0.930 . S
H2279 C2289 0.930 . S
H2280 C2292 0.929 . S
H2281 C2295 0.930 . S
H2282 C2297 0.960 . S
H2283 C2297 0.960 . S
H2284 C2297 0.960 . S
C2285 H2277 0.929 . S
C2285 C2286 1.377 . S
C2285 C2287 1.384 . S
C2286 C2285 1.377 . S
C2286 C2292 1.390 . S
C2287 H2278 0.930 . S
C2287 C2285 1.384 . S
C2287 C2288 1.372 . S
C2288 C2287 1.372 . S
C2288 C2289 1.400 . S
C2288 C2293 1.490 . S
C2289 H2279 0.930 . S
C2289 C2288 1.400 . S
C2289 C2292 1.386 . S
H2290 C2306 0.930 . S
H2291 C2307 0.931 . S
C2292 H2280 0.929 . S
C2292 C2286 1.390 . S
C2292 C2289 1.386 . S
C2293 C2288 1.490 . S
C2293 C2295 1.395 . S
C2293 C2296 1.403 . S
H2294 C2300 0.930 . S
C2295 H2281 0.930 . S
C2295 C2293 1.395 . S
C2295 C2298 1.403 . S
C2296 C2293 1.403 . S
C2296 C2297 1.524 . S
C2296 C2300 1.400 . S
C2297 H2282 0.960 . S
C2297 H2283 0.960 . S
C2297 H2284 0.960 . S
C2297 C2296 1.524 . S
C2298 C2295 1.403 . S
C2298 C2299 1.392 . S
C2298 C2302 1.495 . S
C2299 C2298 1.392 . S
C2299 C2300 1.385 . S
C2299 C2301 1.478 . S
C2300 H2294 0.930 . S
C2300 C2296 1.400 . S
C2300 C2299 1.385 . S
C2301 C2299 1.478 . S
C2301 C2303 1.381 . S
C2301 C2307 1.383 . S
C2302 C2298 1.495 . S
C2302 H2308 0.959 . S
C2302 H2309 0.961 . S
C2302 H2310 0.960 . S
C2303 C2301 1.381 . S
C2303 C2304 1.394 . S
C2303 H2311 0.930 . S
C2304 C2303 1.394 . S
C2304 C2305 1.383 . S
C2304 H2312 0.929 . S
C2305 C2304 1.383 . S
C2305 C2306 1.377 . S
C2306 H2290 0.930 . S
C2306 C2305 1.377 . S
C2306 C2307 1.379 . S
C2307 H2291 0.931 . S
C2307 C2301 1.383 . S
C2307 C2306 1.379 . S
H2308 C2302 0.959 . S
H2309 C2302 0.961 . S
H2310 C2302 0.960 . S
H2311 C2303 0.930 . S
H2312 C2304 0.929 . S
H2313 C2321 0.929 . S
H2314 C2323 0.930 . S
H2315 C2325 0.930 . S
H2316 C2328 0.929 . S
H2317 C2331 0.930 . S
H2318 C2333 0.960 . S
H2319 C2333 0.960 . S
H2320 C2333 0.960 . S
C2321 H2313 0.929 . S
C2321 C2322 1.377 . S
C2321 C2323 1.384 . S
C2322 C2321 1.377 . S
C2322 C2328 1.390 . S
C2323 H2314 0.930 . S
C2323 C2321 1.384 . S
C2323 C2324 1.372 . S
C2324 C2323 1.372 . S
C2324 C2325 1.400 . S
C2324 C2329 1.490 . S
C2325 H2315 0.930 . S
C2325 C2324 1.400 . S
C2325 C2328 1.386 . S
H2326 C2342 0.930 . S
H2327 C2343 0.931 . S
C2328 H2316 0.929 . S
C2328 C2322 1.390 . S
C2328 C2325 1.386 . S
C2329 C2324 1.490 . S
C2329 C2331 1.395 . S
C2329 C2332 1.403 . S
H2330 C2336 0.930 . S
C2331 H2317 0.930 . S
C2331 C2329 1.395 . S
C2331 C2334 1.403 . S
C2332 C2329 1.403 . S
C2332 C2333 1.524 . S
C2332 C2336 1.400 . S
C2333 H2318 0.960 . S
C2333 H2319 0.960 . S
C2333 H2320 0.960 . S
C2333 C2332 1.524 . S
C2334 C2331 1.403 . S
C2334 C2335 1.392 . S
C2334 C2338 1.495 . S
C2335 C2334 1.392 . S
C2335 C2336 1.385 . S
C2335 C2337 1.478 . S
C2336 H2330 0.930 . S
C2336 C2332 1.400 . S
C2336 C2335 1.385 . S
C2337 C2335 1.478 . S
C2337 C2339 1.381 . S
C2337 C2343 1.383 . S
C2338 C2334 1.495 . S
C2338 H2344 0.959 . S
C2338 H2345 0.961 . S
C2338 H2346 0.960 . S
C2339 C2337 1.381 . S
C2339 C2340 1.394 . S
C2339 H2347 0.930 . S
C2340 C2339 1.394 . S
C2340 C2341 1.383 . S
C2340 H2348 0.929 . S
C2341 C2340 1.383 . S
C2341 C2342 1.377 . S
C2342 H2326 0.930 . S
C2342 C2341 1.377 . S
C2342 C2343 1.379 . S
C2343 H2327 0.931 . S
C2343 C2337 1.383 . S
C2343 C2342 1.379 . S
H2344 C2338 0.959 . S
H2345 C2338 0.961 . S
H2346 C2338 0.960 . S
H2347 C2339 0.930 . S
H2348 C2340 0.929 . S
H2349 C2357 0.929 . S
H2350 C2359 0.930 . S
H2351 C2361 0.930 . S
H2352 C2364 0.929 . S
H2353 C2367 0.930 . S
H2354 C2369 0.960 . S
H2355 C2369 0.960 . S
H2356 C2369 0.960 . S
C2357 H2349 0.929 . S
C2357 C2358 1.377 . S
C2357 C2359 1.384 . S
C2358 C2357 1.377 . S
C2358 C2364 1.390 . S
C2359 H2350 0.930 . S
C2359 C2357 1.384 . S
C2359 C2360 1.372 . S
C2360 C2359 1.372 . S
C2360 C2361 1.400 . S
C2360 C2365 1.490 . S
C2361 H2351 0.930 . S
C2361 C2360 1.400 . S
C2361 C2364 1.386 . S
H2362 C2378 0.930 . S
H2363 C2379 0.931 . S
C2364 H2352 0.929 . S
C2364 C2358 1.390 . S
C2364 C2361 1.386 . S
C2365 C2360 1.490 . S
C2365 C2367 1.395 . S
C2365 C2368 1.403 . S
H2366 C2372 0.930 . S
C2367 H2353 0.930 . S
C2367 C2365 1.395 . S
C2367 C2370 1.403 . S
C2368 C2365 1.403 . S
C2368 C2369 1.524 . S
C2368 C2372 1.400 . S
C2369 H2354 0.960 . S
C2369 H2355 0.960 . S
C2369 H2356 0.960 . S
C2369 C2368 1.524 . S
C2370 C2367 1.403 . S
C2370 C2371 1.392 . S
C2370 C2374 1.495 . S
C2371 C2370 1.392 . S
C2371 C2372 1.385 . S
C2371 C2373 1.478 . S
C2372 H2366 0.930 . S
C2372 C2368 1.400 . S
C2372 C2371 1.385 . S
C2373 C2371 1.478 . S
C2373 C2375 1.381 . S
C2373 C2379 1.383 . S
C2374 C2370 1.495 . S
C2374 H2380 0.959 . S
C2374 H2381 0.961 . S
C2374 H2382 0.960 . S
C2375 C2373 1.381 . S
C2375 C2376 1.394 . S
C2375 H2383 0.930 . S
C2376 C2375 1.394 . S
C2376 C2377 1.383 . S
C2376 H2384 0.929 . S
C2377 C2376 1.383 . S
C2377 C2378 1.377 . S
C2378 H2362 0.930 . S
C2378 C2377 1.377 . S
C2378 C2379 1.379 . S
C2379 H2363 0.931 . S
C2379 C2373 1.383 . S
C2379 C2378 1.379 . S
H2380 C2374 0.959 . S
H2381 C2374 0.961 . S
H2382 C2374 0.960 . S
H2383 C2375 0.930 . S
H2384 C2376 0.929 . S
H2385 C2393 0.929 . S
H2386 C2395 0.930 . S
H2387 C2397 0.930 . S
H2388 C2400 0.929 . S
H2389 C2403 0.930 . S
H2390 C2405 0.960 . S
H2391 C2405 0.960 . S
H2392 C2405 0.960 . S
C2393 H2385 0.929 . S
C2393 C2394 1.377 . S
C2393 C2395 1.384 . S
C2394 C2393 1.377 . S
C2394 C2400 1.390 . S
C2395 H2386 0.930 . S
C2395 C2393 1.384 . S
C2395 C2396 1.372 . S
C2396 C2395 1.372 . S
C2396 C2397 1.400 . S
C2396 C2401 1.490 . S
C2397 H2387 0.930 . S
C2397 C2396 1.400 . S
C2397 C2400 1.386 . S
H2398 C2414 0.930 . S
H2399 C2415 0.931 . S
C2400 H2388 0.929 . S
C2400 C2394 1.390 . S
C2400 C2397 1.386 . S
C2401 C2396 1.490 . S
C2401 C2403 1.395 . S
C2401 C2404 1.403 . S
H2402 C2408 0.930 . S
C2403 H2389 0.930 . S
C2403 C2401 1.395 . S
C2403 C2406 1.403 . S
C2404 C2401 1.403 . S
C2404 C2405 1.524 . S
C2404 C2408 1.400 . S
C2405 H2390 0.960 . S
C2405 H2391 0.960 . S
C2405 H2392 0.960 . S
C2405 C2404 1.524 . S
C2406 C2403 1.403 . S
C2406 C2407 1.392 . S
C2406 C2410 1.495 . S
C2407 C2406 1.392 . S
C2407 C2408 1.385 . S
C2407 C2409 1.478 . S
C2408 H2402 0.930 . S
C2408 C2404 1.400 . S
C2408 C2407 1.385 . S
C2409 C2407 1.478 . S
C2409 C2411 1.381 . S
C2409 C2415 1.383 . S
C2410 C2406 1.495 . S
C2410 H2416 0.959 . S
C2410 H2417 0.961 . S
C2410 H2418 0.960 . S
C2411 C2409 1.381 . S
C2411 C2412 1.394 . S
C2411 H2419 0.930 . S
C2412 C2411 1.394 . S
C2412 C2413 1.383 . S
C2412 H2420 0.929 . S
C2413 C2412 1.383 . S
C2413 C2414 1.377 . S
C2414 H2398 0.930 . S
C2414 C2413 1.377 . S
C2414 C2415 1.379 . S
C2415 H2399 0.931 . S
C2415 C2409 1.383 . S
C2415 C2414 1.379 . S
H2416 C2410 0.959 . S
H2417 C2410 0.961 . S
H2418 C2410 0.960 . S
H2419 C2411 0.930 . S
H2420 C2412 0.929 . S
H2421 C2429 0.929 . S
H2422 C2431 0.930 . S
H2423 C2433 0.930 . S
H2424 C2436 0.929 . S
H2425 C2439 0.930 . S
H2426 C2441 0.960 . S
H2427 C2441 0.960 . S
H2428 C2441 0.960 . S
C2429 H2421 0.929 . S
C2429 C2430 1.377 . S
C2429 C2431 1.384 . S
C2430 C2429 1.377 . S
C2430 C2436 1.390 . S
C2431 H2422 0.930 . S
C2431 C2429 1.384 . S
C2431 C2432 1.372 . S
C2432 C2431 1.372 . S
C2432 C2433 1.400 . S
C2432 C2437 1.490 . S
C2433 H2423 0.930 . S
C2433 C2432 1.400 . S
C2433 C2436 1.386 . S
H2434 C2450 0.930 . S
H2435 C2451 0.931 . S
C2436 H2424 0.929 . S
C2436 C2430 1.390 . S
C2436 C2433 1.386 . S
C2437 C2432 1.490 . S
C2437 C2439 1.395 . S
C2437 C2440 1.403 . S
H2438 C2444 0.930 . S
C2439 H2425 0.930 . S
C2439 C2437 1.395 . S
C2439 C2442 1.403 . S
C2440 C2437 1.403 . S
C2440 C2441 1.524 . S
C2440 C2444 1.400 . S
C2441 H2426 0.960 . S
C2441 H2427 0.960 . S
C2441 H2428 0.960 . S
C2441 C2440 1.524 . S
C2442 C2439 1.403 . S
C2442 C2443 1.392 . S
C2442 C2446 1.495 . S
C2443 C2442 1.392 . S
C2443 C2444 1.385 . S
C2443 C2445 1.478 . S
C2444 H2438 0.930 . S
C2444 C2440 1.400 . S
C2444 C2443 1.385 . S
C2445 C2443 1.478 . S
C2445 C2447 1.381 . S
C2445 C2451 1.383 . S
C2446 C2442 1.495 . S
C2446 H2452 0.959 . S
C2446 H2453 0.961 . S
C2446 H2454 0.960 . S
C2447 C2445 1.381 . S
C2447 C2448 1.394 . S
C2447 H2455 0.930 . S
C2448 C2447 1.394 . S
C2448 C2449 1.383 . S
C2448 H2456 0.929 . S
C2449 C2448 1.383 . S
C2449 C2450 1.377 . S
C2450 H2434 0.930 . S
C2450 C2449 1.377 . S
C2450 C2451 1.379 . S
C2451 H2435 0.931 . S
C2451 C2445 1.383 . S
C2451 C2450 1.379 . S
H2452 C2446 0.959 . S
H2453 C2446 0.961 . S
H2454 C2446 0.960 . S
H2455 C2447 0.930 . S
H2456 C2448 0.929 . S
H2457 C2465 0.929 . S
H2458 C2467 0.930 . S
H2459 C2469 0.930 . S
H2460 C2472 0.929 . S
H2461 C2475 0.930 . S
H2462 C2477 0.960 . S
H2463 C2477 0.960 . S
H2464 C2477 0.960 . S
C2465 H2457 0.929 . S
C2465 C2466 1.377 . S
C2465 C2467 1.384 . S
C2466 C2465 1.377 . S
C2466 C2472 1.390 . S
C2467 H2458 0.930 . S
C2467 C2465 1.384 . S
C2467 C2468 1.372 . S
C2468 C2467 1.372 . S
C2468 C2469 1.400 . S
C2468 C2473 1.490 . S
C2469 H2459 0.930 . S
C2469 C2468 1.400 . S
C2469 C2472 1.386 . S
H2470 C2486 0.930 . S
H2471 C2487 0.931 . S
C2472 H2460 0.929 . S
C2472 C2466 1.390 . S
C2472 C2469 1.386 . S
C2473 C2468 1.490 . S
C2473 C2475 1.395 . S
C2473 C2476 1.403 . S
H2474 C2480 0.930 . S
C2475 H2461 0.930 . S
C2475 C2473 1.395 . S
C2475 C2478 1.403 . S
C2476 C2473 1.403 . S
C2476 C2477 1.524 . S
C2476 C2480 1.400 . S
C2477 H2462 0.960 . S
C2477 H2463 0.960 . S
C2477 H2464 0.960 . S
C2477 C2476 1.524 . S
C2478 C2475 1.403 . S
C2478 C2479 1.392 . S
C2478 C2482 1.495 . S
C2479 C2478 1.392 . S
C2479 C2480 1.385 . S
C2479 C2481 1.478 . S
C2480 H2474 0.930 . S
C2480 C2476 1.400 . S
C2480 C2479 1.385 . S
C2481 C2479 1.478 . S
C2481 C2483 1.381 . S
C2481 C2487 1.383 . S
C2482 C2478 1.495 . S
C2482 H2488 0.959 . S
C2482 H2489 0.961 . S
C2482 H2490 0.960 . S
C2483 C2481 1.381 . S
C2483 C2484 1.394 . S
C2483 H2491 0.930 . S
C2484 C2483 1.394 . S
C2484 C2485 1.383 . S
C2484 H2492 0.929 . S
C2485 C2484 1.383 . S
C2485 C2486 1.377 . S
C2486 H2470 0.930 . S
C2486 C2485 1.377 . S
C2486 C2487 1.379 . S
C2487 H2471 0.931 . S
C2487 C2481 1.383 . S
C2487 C2486 1.379 . S
H2488 C2482 0.959 . S
H2489 C2482 0.961 . S
H2490 C2482 0.960 . S
H2491 C2483 0.930 . S
H2492 C2484 0.929 . S
H2493 C2501 0.929 . S
H2494 C2503 0.930 . S
H2495 C2505 0.930 . S
H2496 C2508 0.929 . S
H2497 C2511 0.930 . S
H2498 C2513 0.960 . S
H2499 C2513 0.960 . S
H2500 C2513 0.960 . S
C2501 H2493 0.929 . S
C2501 C2502 1.377 . S
C2501 C2503 1.384 . S
C2502 C2501 1.377 . S
C2502 C2508 1.390 . S
C2503 H2494 0.930 . S
C2503 C2501 1.384 . S
C2503 C2504 1.372 . S
C2504 C2503 1.372 . S
C2504 C2505 1.400 . S
C2504 C2509 1.490 . S
C2505 H2495 0.930 . S
C2505 C2504 1.400 . S
C2505 C2508 1.386 . S
H2506 C2522 0.930 . S
H2507 C2523 0.931 . S
C2508 H2496 0.929 . S
C2508 C2502 1.390 . S
C2508 C2505 1.386 . S
C2509 C2504 1.490 . S
C2509 C2511 1.395 . S
C2509 C2512 1.403 . S
H2510 C2516 0.930 . S
C2511 H2497 0.930 . S
C2511 C2509 1.395 . S
C2511 C2514 1.403 . S
C2512 C2509 1.403 . S
C2512 C2513 1.524 . S
C2512 C2516 1.400 . S
C2513 H2498 0.960 . S
C2513 H2499 0.960 . S
C2513 H2500 0.960 . S
C2513 C2512 1.524 . S
C2514 C2511 1.403 . S
C2514 C2515 1.392 . S
C2514 C2518 1.495 . S
C2515 C2514 1.392 . S
C2515 C2516 1.385 . S
C2515 C2517 1.478 . S
C2516 H2510 0.930 . S
C2516 C2512 1.400 . S
C2516 C2515 1.385 . S
C2517 C2515 1.478 . S
C2517 C2519 1.381 . S
C2517 C2523 1.383 . S
C2518 C2514 1.495 . S
C2518 H2524 0.959 . S
C2518 H2525 0.961 . S
C2518 H2526 0.960 . S
C2519 C2517 1.381 . S
C2519 C2520 1.394 . S
C2519 H2527 0.930 . S
C2520 C2519 1.394 . S
C2520 C2521 1.383 . S
C2520 H2528 0.929 . S
C2521 C2520 1.383 . S
C2521 C2522 1.377 . S
C2522 H2506 0.930 . S
C2522 C2521 1.377 . S
C2522 C2523 1.379 . S
C2523 H2507 0.931 . S
C2523 C2517 1.383 . S
C2523 C2522 1.379 . S
H2524 C2518 0.959 . S
H2525 C2518 0.961 . S
H2526 C2518 0.960 . S
H2527 C2519 0.930 . S
H2528 C2520 0.929 . S
H2529 C2537 0.929 . S
H2530 C2539 0.930 . S
H2531 C2541 0.930 . S
H2532 C2544 0.929 . S
H2533 C2547 0.930 . S
H2534 C2549 0.960 . S
H2535 C2549 0.960 . S
H2536 C2549 0.960 . S
C2537 H2529 0.929 . S
C2537 C2538 1.377 . S
C2537 C2539 1.384 . S
C2538 C2537 1.377 . S
C2538 C2544 1.390 . S
C2539 H2530 0.930 . S
C2539 C2537 1.384 . S
C2539 C2540 1.372 . S
C2540 C2539 1.372 . S
C2540 C2541 1.400 . S
C2540 C2545 1.490 . S
C2541 H2531 0.930 . S
C2541 C2540 1.400 . S
C2541 C2544 1.386 . S
H2542 C2558 0.930 . S
H2543 C2559 0.931 . S
C2544 H2532 0.929 . S
C2544 C2538 1.390 . S
C2544 C2541 1.386 . S
C2545 C2540 1.490 . S
C2545 C2547 1.395 . S
C2545 C2548 1.403 . S
H2546 C2552 0.930 . S
C2547 H2533 0.930 . S
C2547 C2545 1.395 . S
C2547 C2550 1.403 . S
C2548 C2545 1.403 . S
C2548 C2549 1.524 . S
C2548 C2552 1.400 . S
C2549 H2534 0.960 . S
C2549 H2535 0.960 . S
C2549 H2536 0.960 . S
C2549 C2548 1.524 . S
C2550 C2547 1.403 . S
C2550 C2551 1.392 . S
C2550 C2554 1.495 . S
C2551 C2550 1.392 . S
C2551 C2552 1.385 . S
C2551 C2553 1.478 . S
C2552 H2546 0.930 . S
C2552 C2548 1.400 . S
C2552 C2551 1.385 . S
C2553 C2551 1.478 . S
C2553 C2555 1.381 . S
C2553 C2559 1.383 . S
C2554 C2550 1.495 . S
C2554 H2560 0.959 . S
C2554 H2561 0.961 . S
C2554 H2562 0.960 . S
C2555 C2553 1.381 . S
C2555 C2556 1.394 . S
C2555 H2563 0.930 . S
C2556 C2555 1.394 . S
C2556 C2557 1.383 . S
C2556 H2564 0.929 . S
C2557 C2556 1.383 . S
C2557 C2558 1.377 . S
C2558 H2542 0.930 . S
C2558 C2557 1.377 . S
C2558 C2559 1.379 . S
C2559 H2543 0.931 . S
C2559 C2553 1.383 . S
C2559 C2558 1.379 . S
H2560 C2554 0.959 . S
H2561 C2554 0.961 . S
H2562 C2554 0.960 . S
H2563 C2555 0.930 . S
H2564 C2556 0.929 . S
H2565 C2573 0.929 . S
H2566 C2575 0.930 . S
H2567 C2577 0.930 . S
H2568 C2580 0.929 . S
H2569 C2583 0.930 . S
H2570 C2585 0.960 . S
H2571 C2585 0.960 . S
H2572 C2585 0.960 . S
C2573 H2565 0.929 . S
C2573 C2574 1.377 . S
C2573 C2575 1.384 . S
C2574 C2573 1.377 . S
C2574 C2580 1.390 . S
C2575 H2566 0.930 . S
C2575 C2573 1.384 . S
C2575 C2576 1.372 . S
C2576 C2575 1.372 . S
C2576 C2577 1.400 . S
C2576 C2581 1.490 . S
C2577 H2567 0.930 . S
C2577 C2576 1.400 . S
C2577 C2580 1.386 . S
H2578 C2594 0.930 . S
H2579 C2595 0.931 . S
C2580 H2568 0.929 . S
C2580 C2574 1.390 . S
C2580 C2577 1.386 . S
C2581 C2576 1.490 . S
C2581 C2583 1.395 . S
C2581 C2584 1.403 . S
H2582 C2588 0.930 . S
C2583 H2569 0.930 . S
C2583 C2581 1.395 . S
C2583 C2586 1.403 . S
C2584 C2581 1.403 . S
C2584 C2585 1.524 . S
C2584 C2588 1.400 . S
C2585 H2570 0.960 . S
C2585 H2571 0.960 . S
C2585 H2572 0.960 . S
C2585 C2584 1.524 . S
C2586 C2583 1.403 . S
C2586 C2587 1.392 . S
C2586 C2590 1.495 . S
C2587 C2586 1.392 . S
C2587 C2588 1.385 . S
C2587 C2589 1.478 . S
C2588 H2582 0.930 . S
C2588 C2584 1.400 . S
C2588 C2587 1.385 . S
C2589 C2587 1.478 . S
C2589 C2591 1.381 . S
C2589 C2595 1.383 . S
C2590 C2586 1.495 . S
C2590 H2596 0.959 . S
C2590 H2597 0.961 . S
C2590 H2598 0.960 . S
C2591 C2589 1.381 . S
C2591 C2592 1.394 . S
C2591 H2599 0.930 . S
C2592 C2591 1.394 . S
C2592 C2593 1.383 . S
C2592 H2600 0.929 . S
C2593 C2592 1.383 . S
C2593 C2594 1.377 . S
C2594 H2578 0.930 . S
C2594 C2593 1.377 . S
C2594 C2595 1.379 . S
C2595 H2579 0.931 . S
C2595 C2589 1.383 . S
C2595 C2594 1.379 . S
H2596 C2590 0.959 . S
H2597 C2590 0.961 . S
H2598 C2590 0.960 . S
H2599 C2591 0.930 . S
H2600 C2592 0.929 . S
H2601 C2609 0.929 . S
H2602 C2611 0.930 . S
H2603 C2613 0.930 . S
H2604 C2616 0.929 . S
H2605 C2619 0.930 . S
H2606 C2621 0.960 . S
H2607 C2621 0.960 . S
H2608 C2621 0.960 . S
C2609 H2601 0.929 . S
C2609 C2610 1.377 . S
C2609 C2611 1.384 . S
C2610 C2609 1.377 . S
C2610 C2616 1.390 . S
C2611 H2602 0.930 . S
C2611 C2609 1.384 . S
C2611 C2612 1.372 . S
C2612 C2611 1.372 . S
C2612 C2613 1.400 . S
C2612 C2617 1.490 . S
C2613 H2603 0.930 . S
C2613 C2612 1.400 . S
C2613 C2616 1.386 . S
H2614 C2630 0.930 . S
H2615 C2631 0.931 . S
C2616 H2604 0.929 . S
C2616 C2610 1.390 . S
C2616 C2613 1.386 . S
C2617 C2612 1.490 . S
C2617 C2619 1.395 . S
C2617 C2620 1.403 . S
H2618 C2624 0.930 . S
C2619 H2605 0.930 . S
C2619 C2617 1.395 . S
C2619 C2622 1.403 . S
C2620 C2617 1.403 . S
C2620 C2621 1.524 . S
C2620 C2624 1.400 . S
C2621 H2606 0.960 . S
C2621 H2607 0.960 . S
C2621 H2608 0.960 . S
C2621 C2620 1.524 . S
C2622 C2619 1.403 . S
C2622 C2623 1.392 . S
C2622 C2626 1.495 . S
C2623 C2622 1.392 . S
C2623 C2624 1.385 . S
C2623 C2625 1.478 . S
C2624 H2618 0.930 . S
C2624 C2620 1.400 . S
C2624 C2623 1.385 . S
C2625 C2623 1.478 . S
C2625 C2627 1.381 . S
C2625 C2631 1.383 . S
C2626 C2622 1.495 . S
C2626 H2632 0.959 . S
C2626 H2633 0.961 . S
C2626 H2634 0.960 . S
C2627 C2625 1.381 . S
C2627 C2628 1.394 . S
C2627 H2635 0.930 . S
C2628 C2627 1.394 . S
C2628 C2629 1.383 . S
C2628 H2636 0.929 . S
C2629 C2628 1.383 . S
C2629 C2630 1.377 . S
C2630 H2614 0.930 . S
C2630 C2629 1.377 . S
C2630 C2631 1.379 . S
C2631 H2615 0.931 . S
C2631 C2625 1.383 . S
C2631 C2630 1.379 . S
H2632 C2626 0.959 . S
H2633 C2626 0.961 . S
H2634 C2626 0.960 . S
H2635 C2627 0.930 . S
H2636 C2628 0.929 . S
H2637 C2645 0.929 . S
H2638 C2647 0.930 . S
H2639 C2649 0.930 . S
H2640 C2652 0.929 . S
H2641 C2655 0.930 . S
H2642 C2657 0.960 . S
H2643 C2657 0.960 . S
H2644 C2657 0.960 . S
C2645 H2637 0.929 . S
C2645 C2646 1.377 . S
C2645 C2647 1.384 . S
C2646 C2645 1.377 . S
C2646 C2652 1.390 . S
C2647 H2638 0.930 . S
C2647 C2645 1.384 . S
C2647 C2648 1.372 . S
C2648 C2647 1.372 . S
C2648 C2649 1.400 . S
C2648 C2653 1.490 . S
C2649 H2639 0.930 . S
C2649 C2648 1.400 . S
C2649 C2652 1.386 . S
H2650 C2666 0.930 . S
H2651 C2667 0.931 . S
C2652 H2640 0.929 . S
C2652 C2646 1.390 . S
C2652 C2649 1.386 . S
C2653 C2648 1.490 . S
C2653 C2655 1.395 . S
C2653 C2656 1.403 . S
H2654 C2660 0.930 . S
C2655 H2641 0.930 . S
C2655 C2653 1.395 . S
C2655 C2658 1.403 . S
C2656 C2653 1.403 . S
C2656 C2657 1.524 . S
C2656 C2660 1.400 . S
C2657 H2642 0.960 . S
C2657 H2643 0.960 . S
C2657 H2644 0.960 . S
C2657 C2656 1.524 . S
C2658 C2655 1.403 . S
C2658 C2659 1.392 . S
C2658 C2662 1.495 . S
C2659 C2658 1.392 . S
C2659 C2660 1.385 . S
C2659 C2661 1.478 . S
C2660 H2654 0.930 . S
C2660 C2656 1.400 . S
C2660 C2659 1.385 . S
C2661 C2659 1.478 . S
C2661 C2663 1.381 . S
C2661 C2667 1.383 . S
C2662 C2658 1.495 . S
C2662 H2668 0.959 . S
C2662 H2669 0.961 . S
C2662 H2670 0.960 . S
C2663 C2661 1.381 . S
C2663 C2664 1.394 . S
C2663 H2671 0.930 . S
C2664 C2663 1.394 . S
C2664 C2665 1.383 . S
C2664 H2672 0.929 . S
C2665 C2664 1.383 . S
C2665 C2666 1.377 . S
C2666 H2650 0.930 . S
C2666 C2665 1.377 . S
C2666 C2667 1.379 . S
C2667 H2651 0.931 . S
C2667 C2661 1.383 . S
C2667 C2666 1.379 . S
H2668 C2662 0.959 . S
H2669 C2662 0.961 . S
H2670 C2662 0.960 . S
H2671 C2663 0.930 . S
H2672 C2664 0.929 . S
H2673 C2681 0.929 . S
H2674 C2683 0.930 . S
H2675 C2685 0.930 . S
H2676 C2688 0.929 . S
H2677 C2691 0.930 . S
H2678 C2693 0.960 . S
H2679 C2693 0.960 . S
H2680 C2693 0.960 . S
C2681 H2673 0.929 . S
C2681 C2682 1.377 . S
C2681 C2683 1.384 . S
C2682 C2681 1.377 . S
C2682 C2688 1.390 . S
C2683 H2674 0.930 . S
C2683 C2681 1.384 . S
C2683 C2684 1.372 . S
C2684 C2683 1.372 . S
C2684 C2685 1.400 . S
C2684 C2689 1.490 . S
C2685 H2675 0.930 . S
C2685 C2684 1.400 . S
C2685 C2688 1.386 . S
H2686 C2702 0.930 . S
H2687 C2703 0.931 . S
C2688 H2676 0.929 . S
C2688 C2682 1.390 . S
C2688 C2685 1.386 . S
C2689 C2684 1.490 . S
C2689 C2691 1.395 . S
C2689 C2692 1.403 . S
H2690 C2696 0.930 . S
C2691 H2677 0.930 . S
C2691 C2689 1.395 . S
C2691 C2694 1.403 . S
C2692 C2689 1.403 . S
C2692 C2693 1.524 . S
C2692 C2696 1.400 . S
C2693 H2678 0.960 . S
C2693 H2679 0.960 . S
C2693 H2680 0.960 . S
C2693 C2692 1.524 . S
C2694 C2691 1.403 . S
C2694 C2695 1.392 . S
C2694 C2698 1.495 . S
C2695 C2694 1.392 . S
C2695 C2696 1.385 . S
C2695 C2697 1.478 . S
C2696 H2690 0.930 . S
C2696 C2692 1.400 . S
C2696 C2695 1.385 . S
C2697 C2695 1.478 . S
C2697 C2699 1.381 . S
C2697 C2703 1.383 . S
C2698 C2694 1.495 . S
C2698 H2704 0.959 . S
C2698 H2705 0.961 . S
C2698 H2706 0.960 . S
C2699 C2697 1.381 . S
C2699 C2700 1.394 . S
C2699 H2707 0.930 . S
C2700 C2699 1.394 . S
C2700 C2701 1.383 . S
C2700 H2708 0.929 . S
C2701 C2700 1.383 . S
C2701 C2702 1.377 . S
C2702 H2686 0.930 . S
C2702 C2701 1.377 . S
C2702 C2703 1.379 . S
C2703 H2687 0.931 . S
C2703 C2697 1.383 . S
C2703 C2702 1.379 . S
H2704 C2698 0.959 . S
H2705 C2698 0.961 . S
H2706 C2698 0.960 . S
H2707 C2699 0.930 . S
H2708 C2700 0.929 . S
C774 C439 1.288 . S
C793 C590 1.312 . S
C810 C465 1.425 . S
C829 C611 1.303 . S
C846 C401 1.308 . S
C865 C631 1.088 . S
C882 C369 1.333 . S
C901 C610 1.174 1_556 S
C937 C632 1.327 . S
C918 C305 1.456 . S
C954 C343 1.250 . S
C973 C589 1.173 1_556 S
C1009 C591 1.207 . S
C990 C375 1.332 . S
C1045 C612 1.218 . S
C1026 C311 1.329 . S
C1062 C337 1.300 . S
C1081 C634 1.187 1_556 S
C1098 C433 1.260 . S
C1117 C613 1.176 . S
C1134 C471 1.296 . S
C1153 C633 1.180 . S
C1189 C592 1.086 . S
C1170 C407 1.345 . S
C1225 C653 1.262 . S
C1206 C55 1.283 . S
C1242 C81 1.424 . S
C1261 C674 1.352 . S
C1278 C17 1.308 . S
C1297 C694 1.120 . S
C1314 C561 1.334 . S
C1333 C673 1.097 . S
C1350 C497 1.455 . S
C1369 C695 1.370 . S
C1386 C535 1.247 . S
C1405 C652 1.062 . S
C1422 C567 1.331 . S
C1441 C654 1.286 . S
C1458 C503 1.328 . S
C1477 C675 1.289 . S
C1513 C697 1.116 . S
C1494 C529 1.308 . S
C1530 C49 1.261 . S
C1549 C676 1.066 . S
C1585 C696 1.254 . S
C1566 C87 1.294 . S
C1602 C23 1.347 . S
C1621 C655 1.176 . S
C1657 C716 1.242 . S
C1638 C247 1.292 . S
C1674 C273 1.425 . S
C1693 C737 1.307 . S
C1729 C757 1.079 . S
C1710 C209 1.309 . S
C1765 C736 1.129 . S
C1746 C177 1.334 . S
C1801 C758 1.356 . S
C1782 C113 1.457 . S
C1818 C151 1.248 . S
C1837 C715 1.067 . S
C1854 C183 1.333 . S
C1873 C717 1.213 . S
C1890 C119 1.328 . S
C1909 C738 1.240 . S
C1945 C760 1.207 . S
C1926 C145 1.309 . S
C1962 C241 1.265 . S
C1981 C739 1.175 . S
C1998 C279 1.293 . S
C2017 C759 1.249 . S
C2034 C215 1.344 . S
C2053 C718 1.112 . S
C2070 C509 1.410 . S
C2089 C594 1.375 1_565 S
C2125 C615 1.372 . S
C2106 C541 1.352 . S
C2142 C573 1.493 . S
C2161 C635 1.441 . S
C2178 C221 1.543 . S
C2197 C614 1.537 . S
C2214 C253 1.375 . S
C2233 C636 1.377 . S
C2269 C593 1.515 . S
C2250 C285 1.523 . S
C2286 C125 1.415 . S
C2305 C657 1.359 . S
C2322 C157 1.347 . S
C2341 C678 1.385 . S
C2358 C189 1.490 . S
C2377 C698 1.440 . S
C2394 C413 1.541 . S
C2413 C677 1.522 . S
C2449 C699 1.381 . S
C2430 C445 1.366 . S
C2466 C477 1.524 . S
C2485 C656 1.502 . S
C2502 C317 1.415 . S
C2521 C720 1.350 . S
C2538 C349 1.342 . S
C2557 C741 1.339 . S
C2593 C761 1.481 . S
C2574 C381 1.493 . S
C2610 C29 1.540 . S
C2629 C740 1.515 . S
C2646 C61 1.371 . S
C2665 C762 1.400 . S
C2682 C93 1.520 . S
C2701 C719 1.495 . S
