# Generated by pormake.
# Topology anh, (6,3)-cn, num edge types: 1
# Building blocks:
#     Node 0, Type 0, BuildingBlock: BETDIP_clean_sbu_0, # of connection points: 6
#     Node 1, Type 0, BuildingBlock: BETDIP_clean_sbu_0, # of connection points: 6
#     Node 2, Type 0, BuildingBlock: BETDIP_clean_sbu_0, # of connection points: 6
#     Node 3, Type 1, BuildingBlock: BELTOD_clean_linker_0, # of connection points: 3
#     Node 4, Type 1, BuildingBlock: BELTOD_clean_linker_0, # of connection points: 3
#     Node 5, Type 1, BuildingBlock: BELTOD_clean_linker_0, # of connection points: 3
#     Node 6, Type 1, BuildingBlock: BELTOD_clean_linker_0, # of connection points: 3
#     Node 7, Type 1, BuildingBlock: BELTOD_clean_linker_0, # of connection points: 3
#     Node 8, Type 1, BuildingBlock: BELTOD_clean_linker_0, # of connection points: 3
#     Edge 9, Type (0, 1), None
#     Edge 10, Type (0, 1), None
#     Edge 11, Type (0, 1), None
#     Edge 12, Type (0, 1), None
#     Edge 13, Type (0, 1), None
#     Edge 14, Type (0, 1), None
#     Edge 15, Type (0, 1), None
#     Edge 16, Type (0, 1), None
#     Edge 17, Type (0, 1), None
#     Edge 18, Type (0, 1), None
#     Edge 19, Type (0, 1), None
#     Edge 20, Type (0, 1), None
#     Edge 21, Type (0, 1), None
#     Edge 22, Type (0, 1), None
#     Edge 23, Type (0, 1), None
#     Edge 24, Type (0, 1), None
#     Edge 25, Type (0, 1), None
#     Edge 26, Type (0, 1), None
# Relax obj value: 0.541
# Max RMSD: 0.222
# Mean RMSD: 0.181
data_MOF--net-anh--node1-BETDIP_clean_sbu_0--node2-BELTOD_clean_linker_0--edge1-none
_symmetry_space_group_name_H-M    P1
_symmetry_Int_Tables_number       1
_symmetry_cell_setting            triclinic
loop_
_symmetry_equiv_pos_as_xyz
'x, y, z'
_cell_length_a     17.017033
_cell_length_b     16.949093
_cell_length_c     32.268087
_cell_angle_alpha  90.597948
_cell_angle_beta   88.045681
_cell_angle_gamma 120.60404
loop_
_atom_site_label
_atom_site_type_symbol
_atom_site_fract_x
_atom_site_fract_y
_atom_site_fract_z
_atom_type_partial_charge
Tb0 Tb 0.33241 0.7554 0.16662 0.0
Tb1 Tb 1.21643 0.56673 0.13091 0.0
C2 C 0.4114 0.88352 0.21684 0.0
C3 C 0.50592 0.93101 0.23091 0.0
C4 C 0.52444 0.96632 0.27097 0.0
C5 C 0.61463 1.02074 0.28297 0.0
C6 C 0.68859 1.04302 0.25474 0.0
C7 C 0.66888 0.99771 0.2163 0.0
C8 C 0.5784 0.94263 0.20443 0.0
C9 C 0.33562 0.74983 0.08615 0.0
C10 C 0.4367 0.65678 0.13024 0.0
C11 C 1.12403 0.42473 0.08964 0.0
C12 C 1.02558 0.3828 0.08137 0.0
C13 C 0.99264 0.43588 0.0639 0.0
C14 C 0.90341 0.41571 0.07322 0.0
C15 C 0.84717 0.34391 0.10105 0.0
C16 C 0.87368 0.27966 0.11016 0.0
C17 C 0.96278 0.29962 0.10083 0.0
C18 C 1.20899 0.57938 0.21305 0.0
C19 C 1.12177 0.68643 0.14112 0.0
O20 O 0.3608 0.79773 0.22837 0.0
O21 O 0.4012 0.89648 0.17792 0.0
O22 O 0.26933 0.70211 0.11045 0.0
O23 O 0.40252 0.81269 0.10707 0.0
O24 O 0.44281 0.72418 0.15413 0.0
O25 O 0.35587 0.59047 0.11744 0.0
O26 O 1.17838 0.50515 0.07258 0.0
O27 O 1.14262 0.42273 0.12862 0.0
O28 O 0.27902 0.6196 0.18927 0.0
O29 O 1.13972 0.52658 0.19082 0.0
O30 O 1.1205 0.61517 0.12317 0.0
O31 O 1.19476 0.74665 0.16256 0.0
H32 H 0.46928 0.95547 0.29237 0.0
H33 H 0.62521 1.05108 0.31335 0.0
H34 H 0.72301 1.00912 0.19421 0.0
H35 H 0.56535 0.91272 0.17379 0.0
H36 H 1.03834 0.49911 0.04734 0.0
H37 H 0.88361 0.46403 0.06359 0.0
H38 H 0.83126 0.22091 0.12984 0.0
H39 H 0.98551 0.25598 0.11358 0.0
Tb40 Tb 0.68774 1.06889 0.45519 0.0
Tb41 Tb 0.61456 1.16299 0.49556 0.0
C42 C 0.73317 0.95511 0.43247 0.0
C43 C 0.81174 0.94372 0.43751 0.0
C44 C 0.79512 0.85525 0.44402 0.0
C45 C 0.86411 0.84211 0.4577 0.0
C46 C 0.95204 0.91752 0.46459 0.0
C47 C 0.97037 1.00607 0.45443 0.0
C48 C 0.90028 1.01923 0.44142 0.0
C49 C 0.64883 1.16252 0.40331 0.0
C50 C 0.47187 0.96608 0.46987 0.0
C51 C 0.60407 0.28923 0.52851 0.0
C52 C 0.68557 0.35769 0.55078 0.0
C53 C 0.74525 0.44211 0.53137 0.0
C54 C 0.83634 0.49324 0.54252 0.0
C55 C 0.87007 0.46202 0.57376 0.0
C56 C 0.80895 0.38134 0.59551 0.0
C57 C 0.71781 0.32943 0.58402 0.0
C58 C 0.66735 1.08286 0.54954 0.0
C59 C 0.82894 0.26833 0.46849 0.0
O60 O 0.74564 1.02352 0.40935 0.0
O61 O 0.68664 0.9473 0.46681 0.0
O62 O 0.59949 1.11678 0.43386 0.0
O63 O 0.71901 1.15292 0.39979 0.0
O64 O 0.54522 0.9585 0.46709 0.0
O65 O 0.48188 1.04836 0.47548 0.0
O66 O 0.61753 0.28777 0.48841 0.0
O67 O 0.56034 0.20648 0.54439 0.0
O68 O 0.71063 1.12564 0.51678 0.0
O69 O 0.58793 1.07492 0.5492 0.0
O70 O 0.7547 0.27401 0.47504 0.0
O71 O 0.82019 0.18659 0.46811 0.0
H72 H 0.72691 0.79643 0.44133 0.0
H73 H 0.84544 0.77285 0.4659 0.0
H74 H 1.03737 1.06557 0.45857 0.0
H75 H 0.91419 1.08836 0.43646 0.0
H76 H 0.72322 0.46547 0.50549 0.0
H77 H 0.88062 0.55739 0.52636 0.0
H78 H 0.83219 0.35706 0.62056 0.0
H79 H 0.67432 0.26435 0.59963 0.0
Tb80 Tb 0.7158 0.63601 0.80028 0.0
Tb81 Tb 0.91446 0.71146 0.79304 0.0
C82 C 0.557 0.58417 0.82354 0.0
C83 C 0.52344 0.64858 0.82977 0.0
C84 C 0.5101 0.67109 0.87019 0.0
C85 C 0.49776 0.74523 0.87734 0.0
C86 C 0.49688 0.79852 0.84417 0.0
C87 C 0.50854 0.77479 0.80355 0.0
C88 C 0.52209 0.70098 0.79642 0.0
C89 C 0.78698 0.68183 0.72465 0.0
C90 C 0.83659 0.85011 0.7923 0.0
C91 C 1.07107 0.76595 0.76148 0.0
C92 C 1.1097 0.70831 0.74917 0.0
C93 C 1.05079 0.61379 0.74234 0.0
C94 C 1.07851 0.55191 0.7528 0.0
C95 C 1.16054 0.58666 0.77372 0.0
C96 C 1.22928 0.67617 0.76182 0.0
C97 C 1.20253 0.74004 0.75374 0.0
C98 C 0.84821 0.67116 0.87105 0.0
C99 C 0.78837 0.49458 0.79082 0.0
O100 O 0.61913 0.59406 0.84954 0.0
O101 O 0.57805 0.57408 0.78517 0.0
O102 O 0.80635 0.64306 0.7522 0.0
O103 O 0.7224 0.69488 0.73873 0.0
O104 O 0.75544 0.78002 0.80294 0.0
O105 O 0.90861 0.83927 0.78702 0.0
O106 O 1.00153 0.75223 0.74033 0.0
O107 O 1.05561 0.76871 0.80145 0.0
O108 O 0.82405 0.70675 0.84338 0.0
O109 O 0.91499 0.66304 0.85547 0.0
O110 O 0.87149 0.56658 0.78763 0.0
O111 O 0.71617 0.50455 0.79714 0.0
H112 H 0.51188 0.63283 0.89649 0.0
H113 H 0.48545 0.75817 0.90913 0.0
H114 H 0.50784 0.81352 0.77724 0.0
H115 H 0.53409 0.68686 0.76477 0.0
H116 H 0.98119 0.58732 0.73346 0.0
H117 H 1.02712 0.47983 0.75527 0.0
H118 H 0.29917 0.70154 0.77001 0.0
H119 H 0.25163 0.81271 0.75546 0.0
P120 P 0.79309 0.38531 0.26717 0.0
H121 H 0.82986 0.28888 0.33507 0.0
H122 H 0.7753 1.12575 0.32843 0.0
H123 H 0.82033 1.16076 0.19613 0.0
H124 H 0.88259 0.32393 0.20366 0.0
H125 H 0.83507 0.52138 0.20258 0.0
H126 H 0.86433 0.50325 0.13054 0.0
H127 H 0.69006 0.21029 0.14275 0.0
H128 H 0.66504 0.22826 0.2153 0.0
H129 H 0.60253 0.2265 0.27554 0.0
H130 H 0.79387 0.44738 0.35159 0.0
O131 O 0.87306 0.49357 0.27664 0.0
H132 H 0.54448 1.12591 0.33594 0.0
H133 H 0.73539 0.34708 0.41161 0.0
C134 C 0.8443 0.31396 0.26879 0.0
C135 C 0.83093 0.26202 0.30468 0.0
C136 C 0.79905 1.16829 0.30083 0.0
C137 C 0.77887 1.12842 0.26123 0.0
C138 C 0.82514 0.18715 0.22709 0.0
C139 C 0.86067 0.28145 0.23132 0.0
C140 C 0.75195 0.37649 0.21525 0.0
C141 C 0.79888 0.4535 0.18943 0.0
C142 C 0.81519 0.44282 0.14765 0.0
C143 C 0.78501 0.35483 0.13144 0.0
C144 C 0.71817 0.27911 0.1547 0.0
C145 C 0.70212 0.2898 0.19667 0.0
C146 C 0.70659 0.34339 0.30839 0.0
C147 C 0.6292 0.25539 0.30526 0.0
C148 C 0.59533 0.19746 0.34003 0.0
C149 C 0.63862 0.22773 0.37784 0.0
C150 C 0.70179 0.32137 0.38262 0.0
C151 C 0.73518 0.37936 0.34799 0.0
P152 P 1.09654 0.8072 0.60257 0.0
H153 H 1.14625 0.70582 0.53953 0.0
H154 H 1.0277 0.54872 0.52443 0.0
H155 H 0.93284 0.51116 0.65241 0.0
H156 H 1.04889 0.66838 0.66589 0.0
H157 H 1.13833 0.9873 0.57628 0.0
H158 H 1.07477 1.03295 0.52169 0.0
H159 H 0.97507 0.76875 0.46382 0.0
H160 H 1.02149 0.71871 0.52182 0.0
H161 H 0.90725 0.6546 0.59945 0.0
H162 H 1.05124 0.91204 0.66307 0.0
O163 O 1.1875 0.88688 0.62717 0.0
H164 H 0.78354 0.59756 0.65235 0.0
H165 H 0.91928 0.86193 0.71093 0.0
C166 C 1.09642 0.70022 0.60247 0.0
C167 C 1.10288 0.66213 0.56479 0.0
C168 C 1.03493 0.57209 0.55616 0.0
C169 C 0.96591 0.5212 0.58644 0.0
C170 C 0.98225 0.55017 0.62781 0.0
C171 C 1.05007 0.64043 0.63587 0.0
C172 C 1.08788 0.85012 0.5532 0.0
C173 C 1.10523 0.94016 0.55113 0.0
C174 C 1.06913 0.96652 0.51947 0.0
C175 C 1.01696 0.9035 0.48873 0.0
C176 C 1.01169 0.81812 0.48775 0.0
C177 C 1.04207 0.78999 0.52075 0.0
C178 C 0.99211 0.78373 0.63004 0.0
C179 C 0.91128 0.6996 0.6243 0.0
C180 C 0.83964 0.66773 0.6539 0.0
C181 C 0.84419 0.72395 0.6869 0.0
C182 C 0.9162 0.81567 0.68703 0.0
C183 C 0.9916 0.84467 0.65951 0.0
P184 P 1.21969 0.78625 0.91784 0.0
H185 H 0.26459 0.84566 0.83098 0.0
H186 H 0.39217 0.84302 0.79623 0.0
H187 H 0.53602 0.91684 0.91039 0.0
H188 H 0.40965 0.92056 0.94469 0.0
H189 H 1.04267 0.64439 0.88664 0.0
H190 H 1.01283 0.54712 0.82694 0.0
H191 H 0.28897 0.59839 0.82741 0.0
H192 H 0.31591 0.69299 0.88862 0.0
H193 H 0.26086 0.89893 -0.00863 0.0
H194 H 1.23878 0.64098 0.95738 0.0
O195 O 1.14046 0.81649 0.91835 0.0
H196 H 0.32078 0.89084 0.05842 0.0
H197 H 0.3002 0.63522 0.02293 0.0
C198 C 0.32319 0.87158 0.89135 0.0
C199 C 0.32584 0.86677 0.84801 0.0
C200 C 0.39863 0.86362 0.82826 0.0
C201 C 0.46721 0.86628 0.85244 0.0
C202 C 0.47892 0.90513 0.89205 0.0
C203 C 0.40582 0.90701 0.91184 0.0
C204 C 1.18365 0.68178 0.88938 0.0
C205 C 1.09545 0.63182 0.8748 0.0
C206 C 1.07852 0.57445 0.84082 0.0
C207 C 1.15196 0.57254 0.81968 0.0
C208 C 1.23242 0.60256 0.84142 0.0
C209 C 1.24879 0.65885 0.87581 0.0
C210 C 1.24567 0.77108 0.96924 0.0
C211 C 0.26862 0.84088 -0.00176 0.0
C212 C 0.30518 0.83771 0.03571 0.0
C213 C 0.3178 0.76412 0.04436 0.0
C214 C 0.29299 0.69355 0.01594 0.0
C215 C 0.25707 0.69688 0.97855 0.0
P216 P 1.1993 0.59398 0.40414 0.0
H217 H 0.26105 0.65683 0.48804 0.0
H218 H 0.37534 0.80702 0.51438 0.0
H219 H 0.37444 0.93358 0.39955 0.0
H220 H 0.26189 0.78273 0.37266 0.0
H221 H 1.13595 0.4043 0.42793 0.0
H222 H 0.99204 0.27673 0.4538 0.0
H223 H 0.87271 0.4486 0.45475 0.0
H224 H 1.01988 0.57861 0.42896 0.0
H225 H 0.34731 0.66803 0.34126 0.0
H226 H 1.05312 0.52413 0.34171 0.0
O227 O 0.27411 0.5608 0.41355 0.0
H228 H 0.35257 0.65749 0.26561 0.0
H229 H 1.05823 0.51614 0.26562 0.0
C230 C 0.25169 0.70732 0.42828 0.0
C231 C 0.28206 0.7171 0.46904 0.0
C232 C 0.34766 0.80339 0.48421 0.0
C233 C 0.38299 0.8829 0.45946 0.0
C234 C 0.3469 0.87431 0.41991 0.0
C235 C 0.28243 0.78751 0.4044 0.0
C236 C 1.09044 0.50262 0.42683 0.0
C237 C 1.0799 0.41604 0.43428 0.0
C238 C 0.9966 0.34216 0.44919 0.0
C239 C 0.91985 0.35146 0.45684 0.0
C240 C 0.93021 0.43854 0.44971 0.0
C241 C 1.0145 0.51321 0.43479 0.0
C242 C 1.19991 0.59752 0.34754 0.0
C243 C 0.28372 0.63578 0.32506 0.0
C244 C 0.28676 0.62997 0.28163 0.0
C245 C 1.20599 0.5872 0.25929 0.0
C246 C 1.12189 0.55006 0.28177 0.0
C247 C 1.11885 0.55511 0.3254 0.0
P248 P 0.84394 0.19079 0.71972 0.0
H249 H 0.88763 0.28511 0.8 0.0
H250 H 0.86791 0.4093 0.82812 0.0
H251 H 0.69512 0.37838 0.72745 0.0
H252 H 0.71612 0.25557 0.69886 0.0
H253 H 0.9844 1.14017 0.72922 0.0
H254 H 0.9831 1.00691 0.75791 0.0
H255 H 0.70195 0.89557 0.79862 0.0
H256 H 0.70366 1.02987 0.76964 0.0
H257 H 0.9194 0.22837 0.63359 0.0
H258 H 0.65507 1.06309 0.6941 0.0
O259 O 0.9537 0.26816 0.70964 0.0
H260 H 0.85034 0.18367 0.56586 0.0
H261 H 0.58526 1.01815 0.62604 0.0
C262 C 0.80185 0.25807 0.74763 0.0
C263 C 0.84221 0.30194 0.78479 0.0
C264 C 0.83138 0.37379 0.8008 0.0
C265 C 0.77873 0.40336 0.78052 0.0
C266 C 0.73384 0.35588 0.74467 0.0
C267 C 0.74603 0.28504 0.72821 0.0
C268 C 0.84429 1.09672 0.74746 0.0
C269 C 0.92266 1.08834 0.74509 0.0
C270 C 0.92211 1.01143 0.76167 0.0
C271 C 0.84257 0.93934 0.78081 0.0
C272 C 0.76481 0.94921 0.78423 0.0
C273 C 0.76549 1.02643 0.76766 0.0
C274 C 0.7924 1.15032 0.66936 0.0
C275 C 0.8465 0.18153 0.6325 0.0
C276 C 0.80699 1.15516 0.59348 0.0
C277 C 0.71214 1.09691 0.59026 0.0
C278 C 0.65861 1.06274 0.62726 0.0
C279 C 0.69833 1.08882 0.6663 0.0
P280 P 0.77951 0.64157 0.06301 0.0
H281 H 0.83014 0.65305 0.15213 0.0
H282 H 0.96763 0.6687 0.18381 0.0
H283 H 1.10769 0.7417 0.06464 0.0
H284 H 0.97469 0.73189 0.03379 0.0
H285 H 0.58878 0.55405 0.04053 0.0
H286 H 0.45368 0.55487 0.06751 0.0
H287 H 0.61811 0.7615 0.15597 0.0
H288 H 0.75457 0.75841 0.12901 0.0
H289 H 0.85926 0.56893 0.00316 0.0
H290 H 0.73809 0.73769 -0.00425 0.0
O291 O 0.73603 0.52953 0.0709 0.0
H292 H 0.88544 0.5794 0.92815 0.0
H293 H 0.76229 0.74643 0.91938 0.0
C294 C 0.88964 0.69096 0.09003 0.0
C295 C 0.89193 0.67758 0.13309 0.0
C296 C 0.97099 0.68604 0.15136 0.0
C297 C 1.04982 0.70693 0.12701 0.0
C298 C 1.04936 0.72672 0.08473 0.0
C299 C 0.97169 0.7201 0.06679 0.0
C300 C 0.68364 0.65678 0.08202 0.0
C301 C 0.59675 0.60033 0.06559 0.0
C302 C 0.5184 0.60023 0.08151 0.0
C303 C 0.52291 0.65743 0.11459 0.0
C304 C 0.61056 0.71578 0.13074 0.0
C305 C 0.68946 0.71471 0.11503 0.0
C306 C 0.79767 0.65337 0.00595 0.0
C307 C 0.83805 0.60846 0.98547 0.0
C308 C 0.85283 0.61428 0.94217 0.0
C309 C 0.82617 0.66376 0.91719 0.0
C310 C 0.78367 0.70745 0.93737 0.0
C311 C 0.77019 0.70284 0.98125 0.0
loop_
_geom_bond_atom_site_label_1
_geom_bond_atom_site_label_2
_geom_bond_distance
_geom_bond_site_symmetry_2
_ccdc_geom_bond_type
Tb0 C2 2.809 . S
Tb0 O20 2.484 . S
Tb0 O21 2.440 . S
Tb0 O22 2.658 . S
Tb0 O23 2.409 . S
Tb0 O24 2.378 . S
Tb0 O28 2.325 . S
Tb0 O31 2.341 1_455 S
Tb1 C11 2.809 . S
Tb1 O22 2.325 1_655 S
Tb1 O25 2.341 1_655 S
Tb1 O26 2.484 . S
Tb1 O27 2.440 . S
Tb1 O28 2.658 1_655 S
Tb1 O29 2.409 . S
Tb1 O30 2.378 . S
C2 Tb0 2.809 . S
C2 C3 1.514 . S
C2 O20 1.248 . S
C2 O21 1.266 . S
C3 C2 1.514 . S
C3 C4 1.359 . S
C3 C8 1.348 . S
C4 C3 1.359 . S
C4 C5 1.380 . S
C4 H32 0.929 . S
C5 C4 1.380 . S
C5 C6 1.347 . S
C5 H33 0.931 . S
C6 C5 1.347 . S
C6 C7 1.369 . S
C7 C6 1.369 . S
C7 C8 1.408 . S
C7 H34 0.930 . S
C8 C3 1.348 . S
C8 C7 1.408 . S
C8 H35 0.930 . S
C9 O22 1.281 . S
C9 O23 1.254 . S
C10 O24 1.236 . S
C10 O25 1.266 . S
C11 Tb1 2.809 . S
C11 C12 1.514 . S
C11 O26 1.248 . S
C11 O27 1.266 . S
C12 C11 1.514 . S
C12 C13 1.359 . S
C12 C17 1.348 . S
C13 C12 1.359 . S
C13 C14 1.380 . S
C13 H36 0.929 . S
C14 C13 1.380 . S
C14 C15 1.347 . S
C14 H37 0.931 . S
C15 C14 1.347 . S
C15 C16 1.369 . S
C16 C15 1.369 . S
C16 C17 1.408 . S
C16 H38 0.930 . S
C17 C12 1.348 . S
C17 C16 1.408 . S
C17 H39 0.930 . S
C18 O28 1.281 . S
C18 O29 1.254 1_455 S
C19 O30 1.236 . S
C19 O31 1.266 . S
O20 Tb0 2.484 . S
O20 C2 1.248 . S
O21 Tb0 2.440 . S
O21 C2 1.266 . S
O22 Tb0 2.658 . S
O22 Tb1 2.325 1_455 S
O22 C9 1.281 . S
O23 Tb0 2.409 . S
O23 C9 1.254 . S
O24 Tb0 2.378 . S
O24 C10 1.236 . S
O25 Tb1 2.341 1_455 S
O25 C10 1.266 . S
O26 Tb1 2.484 . S
O26 C11 1.248 . S
O27 Tb1 2.440 . S
O27 C11 1.266 . S
O28 Tb0 2.325 . S
O28 Tb1 2.658 1_455 S
O28 C18 1.281 . S
O29 Tb1 2.409 . S
O29 C18 1.254 1_655 S
O30 Tb1 2.378 . S
O30 C19 1.236 . S
O31 Tb0 2.341 1_655 S
O31 C19 1.266 . S
H32 C4 0.929 . S
H33 C5 0.931 . S
H34 C7 0.930 . S
H35 C8 0.930 . S
H36 C13 0.929 . S
H37 C14 0.931 . S
H38 C16 0.930 . S
H39 C17 0.930 . S
Tb40 C42 2.809 . S
Tb40 O60 2.484 . S
Tb40 O61 2.440 . S
Tb40 O62 2.658 1_565 S
Tb40 O63 2.409 . S
Tb40 O64 2.378 . S
Tb40 O68 2.325 1_565 S
Tb40 O71 2.341 1_565 S
Tb41 C51 2.809 . S
Tb41 O62 2.325 . S
Tb41 O65 2.341 1_545 S
Tb41 O66 2.484 . S
Tb41 O67 2.440 . S
Tb41 O68 2.658 . S
Tb41 O69 2.409 . S
Tb41 O70 2.378 . S
C42 Tb40 2.809 . S
C42 C43 1.514 . S
C42 O60 1.248 . S
C42 O61 1.266 . S
C43 C42 1.514 . S
C43 C44 1.359 . S
C43 C48 1.348 . S
C44 C43 1.359 . S
C44 C45 1.380 . S
C44 H72 0.929 . S
C45 C44 1.380 . S
C45 C46 1.347 . S
C45 H73 0.931 . S
C46 C45 1.347 . S
C46 C47 1.369 . S
C47 C46 1.369 . S
C47 C48 1.408 . S
C47 H74 0.930 . S
C48 C43 1.348 . S
C48 C47 1.408 . S
C48 H75 0.930 . S
C49 O62 1.281 . S
C49 O63 1.254 1_545 S
C50 O64 1.236 . S
C50 O65 1.266 . S
C51 Tb41 2.809 . S
C51 C52 1.514 . S
C51 O66 1.248 . S
C51 O67 1.266 . S
C52 C51 1.514 . S
C52 C53 1.359 . S
C52 C57 1.348 . S
C53 C52 1.359 . S
C53 C54 1.380 . S
C53 H76 0.929 . S
C54 C53 1.380 . S
C54 C55 1.347 . S
C54 H77 0.931 . S
C55 C54 1.347 . S
C55 C56 1.369 . S
C56 C55 1.369 . S
C56 C57 1.408 . S
C56 H78 0.930 . S
C57 C52 1.348 . S
C57 C56 1.408 . S
C57 H79 0.930 . S
C58 O68 1.281 . S
C58 O69 1.254 . S
C59 O70 1.236 . S
C59 O71 1.266 . S
O60 Tb40 2.484 . S
O60 C42 1.248 . S
O61 Tb40 2.440 . S
O61 C42 1.266 . S
O62 Tb40 2.658 1_545 S
O62 Tb41 2.325 . S
O62 C49 1.281 . S
O63 Tb40 2.409 . S
O63 C49 1.254 1_565 S
O64 Tb40 2.378 . S
O64 C50 1.236 . S
O65 Tb41 2.341 1_565 S
O65 C50 1.266 . S
O66 Tb41 2.484 . S
O66 C51 1.248 . S
O67 Tb41 2.440 . S
O67 C51 1.266 . S
O68 Tb40 2.325 1_545 S
O68 Tb41 2.658 . S
O68 C58 1.281 . S
O69 Tb41 2.409 . S
O69 C58 1.254 . S
O70 Tb41 2.378 . S
O70 C59 1.236 . S
O71 Tb40 2.341 1_545 S
O71 C59 1.266 . S
H72 C44 0.929 . S
H73 C45 0.931 . S
H74 C47 0.930 . S
H75 C48 0.930 . S
H76 C53 0.929 . S
H77 C54 0.931 . S
H78 C56 0.930 . S
H79 C57 0.930 . S
Tb80 C82 2.809 . S
Tb80 O100 2.484 . S
Tb80 O101 2.440 . S
Tb80 O102 2.658 . S
Tb80 O103 2.409 . S
Tb80 O104 2.378 . S
Tb80 O108 2.325 . S
Tb80 O111 2.341 . S
Tb81 C91 2.809 . S
Tb81 O102 2.325 . S
Tb81 O105 2.341 . S
Tb81 O106 2.484 . S
Tb81 O107 2.440 . S
Tb81 O108 2.658 . S
Tb81 O109 2.409 . S
Tb81 O110 2.378 . S
C82 Tb80 2.809 . S
C82 C83 1.514 . S
C82 O100 1.248 . S
C82 O101 1.266 . S
C83 C82 1.514 . S
C83 C84 1.359 . S
C83 C88 1.348 . S
C84 C83 1.359 . S
C84 C85 1.380 . S
C84 H112 0.929 . S
C85 C84 1.380 . S
C85 C86 1.347 . S
C85 H113 0.931 . S
C86 C85 1.347 . S
C86 C87 1.369 . S
C87 C86 1.369 . S
C87 C88 1.408 . S
C87 H114 0.930 . S
C88 C83 1.348 . S
C88 C87 1.408 . S
C88 H115 0.930 . S
C89 O102 1.281 . S
C89 O103 1.254 . S
C90 O104 1.236 . S
C90 O105 1.266 . S
C91 Tb81 2.809 . S
C91 C92 1.514 . S
C91 O106 1.248 . S
C91 O107 1.266 . S
C92 C91 1.514 . S
C92 C93 1.359 . S
C92 C97 1.348 . S
C93 C92 1.359 . S
C93 C94 1.380 . S
C93 H116 0.929 . S
C94 C93 1.380 . S
C94 C95 1.347 . S
C94 H117 0.931 . S
C95 C94 1.347 . S
C95 C96 1.369 . S
C96 C95 1.369 . S
C96 C97 1.408 . S
C96 H118 0.930 . S
C97 C92 1.348 . S
C97 C96 1.408 . S
C97 H119 0.930 . S
C98 O108 1.281 . S
C98 O109 1.254 . S
C99 O110 1.236 . S
C99 O111 1.266 . S
O100 Tb80 2.484 . S
O100 C82 1.248 . S
O101 Tb80 2.440 . S
O101 C82 1.266 . S
O102 Tb80 2.658 . S
O102 Tb81 2.325 . S
O102 C89 1.281 . S
O103 Tb80 2.409 . S
O103 C89 1.254 . S
O104 Tb80 2.378 . S
O104 C90 1.236 . S
O105 Tb81 2.341 . S
O105 C90 1.266 . S
O106 Tb81 2.484 . S
O106 C91 1.248 . S
O107 Tb81 2.440 . S
O107 C91 1.266 . S
O108 Tb80 2.325 . S
O108 Tb81 2.658 . S
O108 C98 1.281 . S
O109 Tb81 2.409 . S
O109 C98 1.254 . S
O110 Tb81 2.378 . S
O110 C99 1.236 . S
O111 Tb80 2.341 . S
O111 C99 1.266 . S
H112 C84 0.929 . S
H113 C85 0.931 . S
H114 C87 0.930 . S
H115 C88 0.930 . S
H116 C93 0.929 . S
H117 C94 0.931 . S
H118 C96 0.930 . S
H119 C97 0.930 . S
P120 O131 1.490 1_545 S
P120 C134 1.812 1_545 S
P120 C140 1.803 . S
P120 C146 1.819 . S
H121 C135 0.941 . S
H122 C136 0.939 . S
H123 C138 0.940 . S
H124 C139 0.940 . S
H125 C141 0.939 . S
H126 C142 0.942 . S
H127 C144 0.940 . S
H128 C145 0.939 . S
H129 C147 0.941 . S
H130 C151 0.939 . S
O131 P120 1.490 1_565 S
H132 C148 0.939 . S
H133 C150 0.940 . S
C134 P120 1.812 1_565 S
C134 C135 1.389 . S
C134 C139 1.391 . S
C135 H121 0.941 . S
C135 C134 1.389 . S
C135 C136 1.397 . S
C136 H122 0.939 . S
C136 C135 1.397 . S
C136 C137 1.378 . S
C137 C136 1.378 . S
C137 C138 1.378 . S
C138 H123 0.940 . S
C138 C137 1.378 . S
C138 C139 1.396 . S
C139 H124 0.940 . S
C139 C134 1.391 . S
C139 C138 1.396 . S
C140 P120 1.803 . S
C140 C141 1.378 . S
C140 C145 1.400 . S
C141 H125 0.939 . S
C141 C140 1.378 . S
C141 C142 1.361 . S
C142 H126 0.942 . S
C142 C141 1.361 . S
C142 C143 1.369 . S
C143 C142 1.369 . S
C143 C144 1.404 . S
C144 H127 0.940 . S
C144 C143 1.404 . S
C144 C145 1.389 . S
C145 H128 0.939 . S
C145 C140 1.400 . S
C145 C144 1.389 . S
C146 P120 1.819 . S
C146 C147 1.391 1_545 S
C146 C151 1.391 . S
C147 H129 0.941 . S
C147 C146 1.391 1_565 S
C147 C148 1.396 . S
C148 H132 0.939 . S
C148 C147 1.396 . S
C148 C149 1.397 1_565 S
C149 C148 1.397 1_545 S
C149 C150 1.385 . S
C150 H133 0.940 . S
C150 C149 1.385 . S
C150 C151 1.388 . S
C151 H130 0.939 . S
C151 C146 1.391 . S
C151 C150 1.388 . S
P152 O163 1.490 . S
P152 C166 1.812 . S
P152 C172 1.803 . S
P152 C178 1.819 . S
H153 C167 0.941 . S
H154 C168 0.939 . S
H155 C170 0.940 . S
H156 C171 0.940 . S
H157 C173 0.939 . S
H158 C174 0.942 . S
H159 C176 0.940 . S
H160 C177 0.939 . S
H161 C179 0.941 . S
H162 C183 0.939 . S
O163 P152 1.490 . S
H164 C180 0.939 . S
H165 C182 0.940 . S
C166 P152 1.812 . S
C166 C167 1.389 . S
C166 C171 1.391 . S
C167 H153 0.941 . S
C167 C166 1.389 . S
C167 C168 1.397 . S
C168 H154 0.939 . S
C168 C167 1.397 . S
C168 C169 1.378 . S
C169 C168 1.378 . S
C169 C170 1.378 . S
C170 H155 0.940 . S
C170 C169 1.378 . S
C170 C171 1.396 . S
C171 H156 0.940 . S
C171 C166 1.391 . S
C171 C170 1.396 . S
C172 P152 1.803 . S
C172 C173 1.378 . S
C172 C177 1.400 . S
C173 H157 0.939 . S
C173 C172 1.378 . S
C173 C174 1.361 . S
C174 H158 0.942 . S
C174 C173 1.361 . S
C174 C175 1.369 . S
C175 C174 1.369 . S
C175 C176 1.404 . S
C176 H159 0.940 . S
C176 C175 1.404 . S
C176 C177 1.389 . S
C177 H160 0.939 . S
C177 C172 1.400 . S
C177 C176 1.389 . S
C178 P152 1.819 . S
C178 C179 1.391 . S
C178 C183 1.391 . S
C179 H161 0.941 . S
C179 C178 1.391 . S
C179 C180 1.396 . S
C180 H164 0.939 . S
C180 C179 1.396 . S
C180 C181 1.397 . S
C181 C180 1.397 . S
C181 C182 1.385 . S
C182 H165 0.940 . S
C182 C181 1.385 . S
C182 C183 1.388 . S
C183 H162 0.939 . S
C183 C178 1.391 . S
C183 C182 1.388 . S
P184 O195 1.490 . S
P184 C198 1.812 . S
P184 C204 1.803 1_455 S
P184 C210 1.819 . S
H185 C199 0.941 . S
H186 C200 0.939 . S
H187 C202 0.940 . S
H188 C203 0.940 . S
H189 C205 0.939 . S
H190 C206 0.942 . S
H191 C208 0.940 . S
H192 C209 0.939 . S
H193 C211 0.941 . S
H194 C215 0.956 . S
O195 P184 1.490 . S
H196 C212 0.939 . S
H197 C214 0.940 . S
C198 P184 1.812 . S
C198 C199 1.389 . S
C198 C203 1.391 . S
C199 H185 0.941 . S
C199 C198 1.389 . S
C199 C200 1.397 . S
C200 H186 0.939 . S
C200 C199 1.397 . S
C200 C201 1.378 . S
C201 C200 1.378 . S
C201 C202 1.378 . S
C202 H187 0.940 . S
C202 C201 1.378 . S
C202 C203 1.396 . S
C203 H188 0.940 . S
C203 C198 1.391 . S
C203 C202 1.396 . S
C204 P184 1.803 1_655 S
C204 C205 1.378 . S
C204 C209 1.400 . S
C205 H189 0.939 . S
C205 C204 1.378 . S
C205 C206 1.361 . S
C206 H190 0.942 . S
C206 C205 1.361 . S
C206 C207 1.369 . S
C207 C206 1.369 . S
C207 C208 1.404 . S
C208 H191 0.940 . S
C208 C207 1.404 . S
C208 C209 1.389 . S
C209 H192 0.939 . S
C209 C204 1.400 . S
C209 C208 1.389 . S
C210 P184 1.819 . S
C210 C211 1.391 1_556 S
C210 C215 1.401 1_455 S
C211 H193 0.941 . S
C211 C210 1.391 1_554 S
C211 C212 1.396 . S
C212 H196 0.939 . S
C212 C211 1.396 . S
C212 C213 1.397 . S
C213 C212 1.397 . S
C213 C214 1.385 1_455 S
C214 H197 0.940 . S
C214 C213 1.385 1_655 S
C214 C215 1.362 1_554 S
C215 H194 0.956 . S
C215 C210 1.401 1_655 S
C215 C214 1.362 1_556 S
P216 O227 1.490 . S
P216 C230 1.812 . S
P216 C236 1.803 . S
P216 C242 1.819 . S
H217 C231 0.941 . S
H218 C232 0.939 . S
H219 C234 0.940 . S
H220 C235 0.940 . S
H221 C237 0.939 . S
H222 C238 0.942 . S
H223 C240 0.940 . S
H224 C241 0.939 . S
H225 C243 0.941 . S
H226 C247 0.939 1_655 S
O227 P216 1.490 . S
H228 C244 0.939 . S
H229 C246 0.940 . S
C230 P216 1.812 . S
C230 C231 1.389 . S
C230 C235 1.391 . S
C231 H217 0.941 . S
C231 C230 1.389 . S
C231 C232 1.397 . S
C232 H218 0.939 . S
C232 C231 1.397 . S
C232 C233 1.378 . S
C233 C232 1.378 . S
C233 C234 1.378 . S
C234 H219 0.940 . S
C234 C233 1.378 . S
C234 C235 1.396 . S
C235 H220 0.940 . S
C235 C230 1.391 . S
C235 C234 1.396 . S
C236 P216 1.803 . S
C236 C237 1.378 1_455 S
C236 C241 1.400 1_455 S
C237 H221 0.939 . S
C237 C236 1.378 1_655 S
C237 C238 1.361 . S
C238 H222 0.942 . S
C238 C237 1.361 . S
C238 C239 1.369 . S
C239 C238 1.369 . S
C239 C240 1.404 . S
C240 H223 0.940 . S
C240 C239 1.404 . S
C240 C241 1.389 . S
C241 H224 0.939 . S
C241 C236 1.400 1_655 S
C241 C240 1.389 . S
C242 P216 1.819 . S
C242 C243 1.391 . S
C242 C247 1.391 . S
C243 H225 0.941 . S
C243 C242 1.391 . S
C243 C244 1.396 . S
C244 H228 0.939 . S
C244 C243 1.396 . S
C244 C245 1.397 . S
C245 C244 1.397 . S
C245 C246 1.385 1_455 S
C246 H229 0.940 . S
C246 C245 1.385 1_655 S
C246 C247 1.388 1_655 S
C247 H226 0.939 1_455 S
C247 C242 1.391 . S
C247 C246 1.388 1_455 S
P248 O259 1.490 . S
P248 C262 1.812 . S
P248 C268 1.803 1_545 S
P248 C274 1.819 . S
H249 C263 0.941 . S
H250 C264 0.939 . S
H251 C266 0.940 . S
H252 C267 0.940 . S
H253 C269 0.939 . S
H254 C270 0.942 . S
H255 C272 0.940 . S
H256 C273 0.939 . S
H257 C275 0.941 . S
H258 C279 0.939 . S
O259 P248 1.490 . S
H260 C276 0.939 . S
H261 C278 0.940 . S
C262 P248 1.812 . S
C262 C263 1.389 . S
C262 C267 1.391 . S
C263 H249 0.941 . S
C263 C262 1.389 . S
C263 C264 1.397 . S
C264 H250 0.939 . S
C264 C263 1.397 . S
C264 C265 1.378 . S
C265 C264 1.378 . S
C265 C266 1.378 . S
C266 H251 0.940 . S
C266 C265 1.378 . S
C266 C267 1.396 . S
C267 H252 0.940 . S
C267 C262 1.391 . S
C267 C266 1.396 . S
C268 P248 1.803 1_565 S
C268 C269 1.378 . S
C268 C273 1.400 . S
C269 H253 0.939 . S
C269 C268 1.378 . S
C269 C270 1.361 . S
C270 H254 0.942 . S
C270 C269 1.361 . S
C270 C271 1.369 . S
C271 C270 1.369 . S
C271 C272 1.404 . S
C272 H255 0.940 . S
C272 C271 1.404 . S
C272 C273 1.389 . S
C273 H256 0.939 . S
C273 C268 1.400 . S
C273 C272 1.389 . S
C274 P248 1.819 . S
C274 C275 1.391 . S
C274 C279 1.391 1_545 S
C275 H257 0.941 . S
C275 C274 1.391 . S
C275 C276 1.396 . S
C276 H260 0.939 . S
C276 C275 1.396 . S
C276 C277 1.397 . S
C277 C276 1.397 . S
C277 C278 1.385 1_545 S
C278 H261 0.940 . S
C278 C277 1.385 1_565 S
C278 C279 1.388 . S
C279 H258 0.939 . S
C279 C274 1.391 1_565 S
C279 C278 1.388 . S
P280 O291 1.490 . S
P280 C294 1.812 . S
P280 C300 1.803 . S
P280 C306 1.819 . S
H281 C295 0.941 . S
H282 C296 0.939 . S
H283 C298 0.940 . S
H284 C299 0.940 . S
H285 C301 0.939 . S
H286 C302 0.942 . S
H287 C304 0.940 . S
H288 C305 0.939 . S
H289 C307 0.941 . S
H290 C311 0.939 . S
O291 P280 1.490 . S
H292 C308 0.939 . S
H293 C310 0.940 . S
C294 P280 1.812 . S
C294 C295 1.389 . S
C294 C299 1.391 . S
C295 H281 0.941 . S
C295 C294 1.389 . S
C295 C296 1.397 . S
C296 H282 0.939 . S
C296 C295 1.397 . S
C296 C297 1.378 . S
C297 C296 1.378 . S
C297 C298 1.378 . S
C298 H283 0.940 . S
C298 C297 1.378 . S
C298 C299 1.396 . S
C299 H284 0.940 . S
C299 C294 1.391 . S
C299 C298 1.396 . S
C300 P280 1.803 . S
C300 C301 1.378 . S
C300 C305 1.400 . S
C301 H285 0.939 . S
C301 C300 1.378 . S
C301 C302 1.361 . S
C302 H286 0.942 . S
C302 C301 1.361 . S
C302 C303 1.369 . S
C303 C302 1.369 . S
C303 C304 1.404 . S
C304 H287 0.940 . S
C304 C303 1.404 . S
C304 C305 1.389 . S
C305 H288 0.939 . S
C305 C300 1.400 . S
C305 C304 1.389 . S
C306 P280 1.819 . S
C306 C307 1.391 . S
C306 C311 1.391 . S
C307 H289 0.941 . S
C307 C306 1.391 . S
C307 C308 1.396 1_554 S
C308 H292 0.939 . S
C308 C307 1.396 1_556 S
C308 C309 1.397 . S
C309 C308 1.397 . S
C309 C310 1.385 . S
C310 H293 0.940 . S
C310 C309 1.385 . S
C310 C311 1.388 1_556 S
C311 H290 0.939 . S
C311 C306 1.391 . S
C311 C310 1.388 1_554 S
C10 C303 4.742 . S
C59 C239 4.827 . S
C90 C271 4.767 . S
C19 C297 4.840 . S
C233 C50 4.750 . S
C265 C99 4.812 . S
C46 C175 2.524 . S
C95 C207 2.355 . S
C6 C137 2.208 . S
C169 C55 2.484 . S
C201 C86 2.253 . S
C15 C143 2.380 . S
C213 C9 0.798 . S
C49 C149 0.691 . S
C89 C181 1.410 . S
C277 C58 2.030 . S
C309 C98 2.015 . S
C18 C245 2.011 . S
