# Generated by pormake.
# Topology ssc, (4,4)-cn, num edge types: 1
# Building blocks:
#     Node 0, Type 0, BuildingBlock: CEKHIL_clean_sbu_0, # of connection points: 4
#     Node 1, Type 0, BuildingBlock: CEKHIL_clean_sbu_0, # of connection points: 4
#     Node 2, Type 0, BuildingBlock: CEKHIL_clean_sbu_0, # of connection points: 4
#     Node 3, Type 0, BuildingBlock: CEKHIL_clean_sbu_0, # of connection points: 4
#     Node 4, Type 0, BuildingBlock: CEKHIL_clean_sbu_0, # of connection points: 4
#     Node 5, Type 0, BuildingBlock: CEKHIL_clean_sbu_0, # of connection points: 4
#     Node 6, Type 0, BuildingBlock: CEKHIL_clean_sbu_0, # of connection points: 4
#     Node 7, Type 0, BuildingBlock: CEKHIL_clean_sbu_0, # of connection points: 4
#     Node 8, Type 0, BuildingBlock: CEKHIL_clean_sbu_0, # of connection points: 4
#     Node 9, Type 0, BuildingBlock: CEKHIL_clean_sbu_0, # of connection points: 4
#     Node 10, Type 0, BuildingBlock: CEKHIL_clean_sbu_0, # of connection points: 4
#     Node 11, Type 0, BuildingBlock: CEKHIL_clean_sbu_0, # of connection points: 4
#     Node 12, Type 1, BuildingBlock: KUFVIS_clean_linker_0, # of connection points: 4
#     Node 13, Type 1, BuildingBlock: KUFVIS_clean_linker_0, # of connection points: 4
#     Node 14, Type 1, BuildingBlock: KUFVIS_clean_linker_0, # of connection points: 4
#     Node 15, Type 1, BuildingBlock: KUFVIS_clean_linker_0, # of connection points: 4
#     Node 16, Type 1, BuildingBlock: KUFVIS_clean_linker_0, # of connection points: 4
#     Node 17, Type 1, BuildingBlock: KUFVIS_clean_linker_0, # of connection points: 4
#     Node 18, Type 1, BuildingBlock: KUFVIS_clean_linker_0, # of connection points: 4
#     Node 19, Type 1, BuildingBlock: KUFVIS_clean_linker_0, # of connection points: 4
#     Node 20, Type 1, BuildingBlock: KUFVIS_clean_linker_0, # of connection points: 4
#     Node 21, Type 1, BuildingBlock: KUFVIS_clean_linker_0, # of connection points: 4
#     Node 22, Type 1, BuildingBlock: KUFVIS_clean_linker_0, # of connection points: 4
#     Node 23, Type 1, BuildingBlock: KUFVIS_clean_linker_0, # of connection points: 4
#     Edge 24, Type (0, 1), BuildingBlock: EZIPEK_clean_linker_0, # of connection points: 2
#     Edge 25, Type (0, 1), BuildingBlock: EZIPEK_clean_linker_0, # of connection points: 2
#     Edge 26, Type (0, 1), BuildingBlock: EZIPEK_clean_linker_0, # of connection points: 2
#     Edge 27, Type (0, 1), BuildingBlock: EZIPEK_clean_linker_0, # of connection points: 2
#     Edge 28, Type (0, 1), BuildingBlock: EZIPEK_clean_linker_0, # of connection points: 2
#     Edge 29, Type (0, 1), BuildingBlock: EZIPEK_clean_linker_0, # of connection points: 2
#     Edge 30, Type (0, 1), BuildingBlock: EZIPEK_clean_linker_0, # of connection points: 2
#     Edge 31, Type (0, 1), BuildingBlock: EZIPEK_clean_linker_0, # of connection points: 2
#     Edge 32, Type (0, 1), BuildingBlock: EZIPEK_clean_linker_0, # of connection points: 2
#     Edge 33, Type (0, 1), BuildingBlock: EZIPEK_clean_linker_0, # of connection points: 2
#     Edge 34, Type (0, 1), BuildingBlock: EZIPEK_clean_linker_0, # of connection points: 2
#     Edge 35, Type (0, 1), BuildingBlock: EZIPEK_clean_linker_0, # of connection points: 2
#     Edge 36, Type (0, 1), BuildingBlock: EZIPEK_clean_linker_0, # of connection points: 2
#     Edge 37, Type (0, 1), BuildingBlock: EZIPEK_clean_linker_0, # of connection points: 2
#     Edge 38, Type (0, 1), BuildingBlock: EZIPEK_clean_linker_0, # of connection points: 2
#     Edge 39, Type (0, 1), BuildingBlock: EZIPEK_clean_linker_0, # of connection points: 2
#     Edge 40, Type (0, 1), BuildingBlock: EZIPEK_clean_linker_0, # of connection points: 2
#     Edge 41, Type (0, 1), BuildingBlock: EZIPEK_clean_linker_0, # of connection points: 2
#     Edge 42, Type (0, 1), BuildingBlock: EZIPEK_clean_linker_0, # of connection points: 2
#     Edge 43, Type (0, 1), BuildingBlock: EZIPEK_clean_linker_0, # of connection points: 2
#     Edge 44, Type (0, 1), BuildingBlock: EZIPEK_clean_linker_0, # of connection points: 2
#     Edge 45, Type (0, 1), BuildingBlock: EZIPEK_clean_linker_0, # of connection points: 2
#     Edge 46, Type (0, 1), BuildingBlock: EZIPEK_clean_linker_0, # of connection points: 2
#     Edge 47, Type (0, 1), BuildingBlock: EZIPEK_clean_linker_0, # of connection points: 2
#     Edge 48, Type (0, 1), BuildingBlock: EZIPEK_clean_linker_0, # of connection points: 2
#     Edge 49, Type (0, 1), BuildingBlock: EZIPEK_clean_linker_0, # of connection points: 2
#     Edge 50, Type (0, 1), BuildingBlock: EZIPEK_clean_linker_0, # of connection points: 2
#     Edge 51, Type (0, 1), BuildingBlock: EZIPEK_clean_linker_0, # of connection points: 2
#     Edge 52, Type (0, 1), BuildingBlock: EZIPEK_clean_linker_0, # of connection points: 2
#     Edge 53, Type (0, 1), BuildingBlock: EZIPEK_clean_linker_0, # of connection points: 2
#     Edge 54, Type (0, 1), BuildingBlock: EZIPEK_clean_linker_0, # of connection points: 2
#     Edge 55, Type (0, 1), BuildingBlock: EZIPEK_clean_linker_0, # of connection points: 2
#     Edge 56, Type (0, 1), BuildingBlock: EZIPEK_clean_linker_0, # of connection points: 2
#     Edge 57, Type (0, 1), BuildingBlock: EZIPEK_clean_linker_0, # of connection points: 2
#     Edge 58, Type (0, 1), BuildingBlock: EZIPEK_clean_linker_0, # of connection points: 2
#     Edge 59, Type (0, 1), BuildingBlock: EZIPEK_clean_linker_0, # of connection points: 2
#     Edge 60, Type (0, 1), BuildingBlock: EZIPEK_clean_linker_0, # of connection points: 2
#     Edge 61, Type (0, 1), BuildingBlock: EZIPEK_clean_linker_0, # of connection points: 2
#     Edge 62, Type (0, 1), BuildingBlock: EZIPEK_clean_linker_0, # of connection points: 2
#     Edge 63, Type (0, 1), BuildingBlock: EZIPEK_clean_linker_0, # of connection points: 2
#     Edge 64, Type (0, 1), BuildingBlock: EZIPEK_clean_linker_0, # of connection points: 2
#     Edge 65, Type (0, 1), BuildingBlock: EZIPEK_clean_linker_0, # of connection points: 2
#     Edge 66, Type (0, 1), BuildingBlock: EZIPEK_clean_linker_0, # of connection points: 2
#     Edge 67, Type (0, 1), BuildingBlock: EZIPEK_clean_linker_0, # of connection points: 2
#     Edge 68, Type (0, 1), BuildingBlock: EZIPEK_clean_linker_0, # of connection points: 2
#     Edge 69, Type (0, 1), BuildingBlock: EZIPEK_clean_linker_0, # of connection points: 2
#     Edge 70, Type (0, 1), BuildingBlock: EZIPEK_clean_linker_0, # of connection points: 2
#     Edge 71, Type (0, 1), BuildingBlock: EZIPEK_clean_linker_0, # of connection points: 2
# Relax obj value: 0.121
# Max RMSD: 0.313
# Mean RMSD: 0.273
data_MOF--net-ssc--node1-CEKHIL_clean_sbu_0--node2-KUFVIS_clean_linker_0--edge1-EZIPEK_clean_linker_0
_symmetry_space_group_name_H-M    P1
_symmetry_Int_Tables_number       1
_symmetry_cell_setting            triclinic
loop_
_symmetry_equiv_pos_as_xyz
'x, y, z'
_cell_length_a     23.422075
_cell_length_b     23.597443
_cell_length_c     23.54317
_cell_angle_alpha  90.911267
_cell_angle_beta   89.614991
_cell_angle_gamma 92.058012
loop_
_atom_site_label
_atom_site_type_symbol
_atom_site_fract_x
_atom_site_fract_y
_atom_site_fract_z
_atom_type_partial_charge
Co0 Co 0.97878 0.24824 0.11717 0.0
O1 O 0.02123 0.28034 0.05395 0.0
O2 O 0.93287 0.30184 0.07596 0.0
C3 C 0.04951 0.25752 0.18349 0.0
O4 O 0.92189 0.22581 0.18136 0.0
Co5 Co 0.00963 0.13633 0.16604 0.0
O6 O 0.95747 0.15462 0.23013 0.0
C7 C 0.96481 0.13581 0.05154 0.0
C8 C 0.97595 0.3073 0.04106 0.0
C9 C 0.92107 0.1927 0.22471 0.0
O10 O 0.94954 0.18644 0.06284 0.0
O11 O -0.00721 0.10714 0.08671 0.0
O12 O 0.01725 0.29936 0.1713 0.0
O13 O 0.0421 0.21269 0.15113 0.0
Co14 Co 0.02877 0.72157 0.40688 0.0
O15 O 0.07624 0.67932 0.45618 0.0
O16 O 0.98165 0.68044 0.46107 0.0
C17 C 0.07198 0.69762 0.32234 0.0
O18 O 0.96309 0.75482 0.36496 0.0
Co19 Co 0.07288 0.82168 0.33729 0.0
O20 O -0.00457 0.82007 0.30402 0.0
C21 C 0.05622 0.8402 0.45944 0.0
C22 C 0.02902 0.66263 0.48118 0.0
C23 C 0.95498 0.78969 0.32512 0.0
O24 O 0.03413 0.78935 0.4617 0.0
O25 O 0.07632 0.86063 0.41338 0.0
O26 O 0.03464 0.66349 0.34634 0.0
O27 O 0.08639 0.74233 0.35233 0.0
Co28 Co 0.5309 0.81075 0.6471 0.0
O29 O 0.58044 0.82784 0.58376 0.0
O30 O 0.50171 0.87282 0.60233 0.0
C31 C 0.60062 0.80105 0.71276 0.0
O32 O 0.47198 0.80392 0.71362 0.0
Co33 Co 0.53003 0.69431 0.69103 0.0
O34 O 0.49742 0.72679 0.76049 0.0
C35 C 0.48195 0.70694 0.58095 0.0
C36 C 0.5435 0.86303 0.56675 0.0
C37 C 0.47091 0.77254 0.75859 0.0
O38 O 0.48541 0.75972 0.59348 0.0
O39 O 0.49863 0.67011 0.61549 0.0
O40 O 0.58124 0.85044 0.70071 0.0
O41 O 0.58181 0.76006 0.67981 0.0
Co42 Co 0.47616 0.25314 0.90142 0.0
O43 O 0.52389 0.23062 0.96249 0.0
O44 O 0.4401 0.19062 0.94492 0.0
C45 C 0.54643 0.25621 0.83521 0.0
O46 O 0.41945 0.26242 0.8337 0.0
Co47 Co 0.49446 0.36938 0.85832 0.0
O48 O 0.44866 0.34262 0.79068 0.0
C49 C 0.45708 0.35859 0.97487 0.0
C50 C 0.48524 0.19352 0.97729 0.0
C51 C 0.41895 0.29628 0.79058 0.0
O52 O 0.43839 0.30957 0.95673 0.0
O53 O 0.49058 0.38776 0.94316 0.0
O54 O 0.5193 0.20912 0.84796 0.0
O55 O 0.53511 0.29931 0.86785 0.0
Co56 Co 0.12408 0.96081 0.30304 0.0
O57 O 0.18 0.92245 0.25948 0.0
O58 O 0.16427 0.90735 0.35046 0.0
C59 C 0.0555 0.94839 0.23588 0.0
O60 O 0.06735 -0.00346 0.36057 0.0
Co61 Co 0.08525 0.07064 0.25731 0.0
O62 O 0.02639 0.06888 0.31807 0.0
C63 C 0.20496 0.05646 0.28902 0.0
C64 C 0.19388 0.8965 0.30472 0.0
C65 C 0.03102 0.0368 0.36028 0.0
O66 O 0.18465 0.01841 0.32153 0.0
O67 O 0.17139 0.0837 0.25765 0.0
O68 O 0.06333 0.91051 0.27404 0.0
O69 O 0.09167 -0.00884 0.23696 0.0
Co70 Co 0.22425 0.87957 0.57406 0.0
O71 O 0.20894 0.93928 0.62835 0.0
O72 O 0.16218 0.92297 0.54809 0.0
C73 C 0.23205 0.80827 0.63732 0.0
O74 O 0.22295 0.81894 0.51013 0.0
Co75 Co 0.3372 0.8272 0.56787 0.0
O76 O 0.29257 0.76197 0.53295 0.0
C77 C 0.33271 0.94484 0.53728 0.0
C78 C 0.16959 0.95399 0.59357 0.0
C79 C 0.24571 0.76999 0.50826 0.0
O80 O 0.27861 0.93467 0.53307 0.0
O81 O 0.36587 0.90767 0.55594 0.0
O82 O 0.18279 0.82384 0.61937 0.0
O83 O 0.27498 0.84047 0.62111 0.0
Co84 Co 0.38789 0.03295 0.79854 0.0
O85 O 0.33286 0.06787 0.75166 0.0
O86 O 0.35118 0.09475 0.8397 0.0
C87 C 0.46008 0.03318 0.73353 0.0
O88 O 0.44431 0.00685 0.8585 0.0
Co89 Co 0.42808 0.91506 0.76215 0.0
O90 O 0.48071 0.9247 0.8271 0.0
C91 C 0.31091 0.92799 0.80211 0.0
C92 C 0.32216 0.10219 0.79352 0.0
C93 C 0.47932 0.966 0.86243 0.0
O94 O 0.32565 0.97676 0.82345 0.0
O95 O 0.3438 0.89969 0.77012 0.0
O96 O 0.45044 0.07764 0.76478 0.0
O97 O 0.42192 -0.00753 0.73758 0.0
Co98 Co 0.24813 0.14086 0.04477 0.0
O99 O 0.26745 0.07296 0.0826 0.0
O100 O 0.30424 0.09639 0.00048 0.0
C101 C 0.25768 0.20478 0.11809 0.0
O102 O 0.23746 0.20999 -0.00395 0.0
Co103 Co 0.13566 0.19784 0.0829 0.0
O104 O 0.17067 0.26115 0.03962 0.0
C105 C 0.13013 0.08951 0.02192 0.0
C106 C 0.30159 0.06049 0.042 0.0
C107 C 0.21379 0.25762 0.00677 0.0
O108 O 0.18285 0.09668 0.00775 0.0
O109 O 0.1051 0.12152 0.05762 0.0
O110 O 0.30188 0.18807 0.08963 0.0
O111 O 0.21084 0.17581 0.1071 0.0
Co112 Co 0.69837 0.36931 -0.00676 0.0
O113 O 0.6656 0.42026 0.04891 0.0
O114 O 0.6339 0.40824 0.96155 0.0
C115 C 0.7071 0.28703 0.04305 0.0
O116 O 0.71965 0.31721 0.92593 0.0
Co117 Co 0.82256 0.3389 0.01036 0.0
O118 O 0.80941 0.29042 0.94211 0.0
C119 C 0.8015 0.45447 -0.01567 0.0
C120 C 0.62989 0.43487 0.01016 0.0
C121 C 0.76252 0.28554 0.91511 0.0
O122 O 0.7517 0.43575 0.96775 0.0
O123 O 0.83546 0.42297 0.01022 0.0
O124 O 0.65777 0.30268 0.02529 0.0
O125 O 0.74556 0.32826 0.04202 0.0
Co126 Co 0.85405 0.51057 0.20717 0.0
O127 O 0.7996 0.54021 0.15445 0.0
O128 O 0.80331 0.56302 0.24539 0.0
C129 C 0.93259 0.52496 0.14996 0.0
O130 O 0.90618 0.49093 0.2747 0.0
Co131 Co 0.91395 0.40242 0.17693 0.0
O132 O 0.94947 0.4097 0.25356 0.0
C133 C 0.79201 0.39535 0.19714 0.0
C134 C 0.77925 0.56965 0.19634 0.0
C135 C 0.94108 0.45158 0.28689 0.0
O136 O 0.79829 0.44398 0.2227 0.0
O137 O 0.83187 0.37601 0.16605 0.0
O138 O 0.91351 0.56535 0.18192 0.0
O139 O 0.90129 0.47854 0.15008 0.0
Co140 Co 0.80162 0.61482 0.49127 0.0
O141 O 0.81934 0.56962 0.5549 0.0
O142 O 0.87093 0.57327 0.47585 0.0
C143 C 0.78735 0.69543 0.54181 0.0
O144 O 0.79487 0.66341 0.41913 0.0
Co145 Co 0.68023 0.65158 0.48589 0.0
O146 O 0.71116 0.70664 0.43033 0.0
C147 C 0.70358 0.53195 0.47152 0.0
C148 C 0.86308 0.55279 0.52662 0.0
C149 C 0.75973 0.70256 0.40652 0.0
O150 O 0.75497 0.54773 0.45942 0.0
O151 O 0.66779 0.56691 0.48984 0.0
O152 O 0.83769 0.68061 0.52547 0.0
O153 O 0.74702 0.65709 0.53379 0.0
Co154 Co 0.62264 0.5002 0.69963 0.0
O155 O 0.68601 0.46403 0.66296 0.0
O156 O 0.66024 0.45152 0.75233 0.0
C157 C 0.553 0.48607 0.63359 0.0
O158 O 0.5576 0.52559 0.75105 0.0
Co159 Co 0.57884 0.60914 0.65127 0.0
O160 O 0.52139 0.60216 0.71376 0.0
C161 C 0.69426 0.61004 0.69244 0.0
C162 C 0.69562 0.44019 0.71127 0.0
C163 C 0.51885 0.56276 0.74984 0.0
O164 O 0.6778 0.56636 0.72155 0.0
O165 O 0.66311 0.62799 0.65294 0.0
O166 O 0.56618 0.44572 0.6675 0.0
O167 O 0.58863 0.52935 0.63423 0.0
H168 H 0.89854 0.42376 0.7114 0.0
H169 H 0.92707 0.24738 0.73242 0.0
H170 H 0.04728 0.35219 0.63674 0.0
H171 H -0.0091 0.18726 0.64311 0.0
H172 H 0.13526 0.1232 0.72919 0.0
H173 H 0.10749 0.3014 0.73498 0.0
C174 C 0.92668 0.38822 0.70654 0.0
C175 C 0.97053 0.39232 0.66739 0.0
C176 C 0.90648 0.33573 0.72369 0.0
C177 C 0.94196 0.28858 0.71757 0.0
C178 C -0.00293 0.29589 0.6919 0.0
C179 C 0.01003 0.34804 0.66407 0.0
C180 C 0.03966 0.24944 0.69437 0.0
C181 C 0.02747 0.19458 0.67051 0.0
C182 C 0.06537 0.15027 0.68011 0.0
C183 C 0.10831 0.15844 0.71955 0.0
C184 C 0.1262 0.21235 0.73648 0.0
C185 C 0.09298 0.25892 0.72251 0.0
H186 H 0.80973 0.65618 0.86104 0.0
H187 H 0.94675 0.71969 0.96644 0.0
H188 H 0.94007 0.76749 0.79037 0.0
H189 H 0.0492 0.76311 0.82061 0.0
H190 H 0.13368 0.88764 0.92815 0.0
H191 H 0.95624 0.84675 0.9552 0.0
C192 C 0.84736 0.68399 0.86691 0.0
C193 C 0.87108 0.71118 0.81999 0.0
C194 C 0.87739 0.68105 0.91709 0.0
C195 C 0.92455 0.71968 0.92636 0.0
C196 C 0.94627 0.75435 0.88144 0.0
C197 C 0.92106 0.74653 0.82685 0.0
C198 C -0.00236 0.79452 0.89103 0.0
C199 C 0.04818 0.79168 0.85688 0.0
C200 C 0.09705 0.82643 0.87102 0.0
C201 C 0.0958 0.86107 0.91828 0.0
C202 C 0.04591 0.87178 0.94648 0.0
C203 C -0.00397 0.83807 0.93374 0.0
H204 H 0.33735 0.88103 0.17691 0.0
H205 H 0.41595 0.72505 0.2164 0.0
H206 H 0.46072 0.81183 0.0622 0.0
H207 H 0.43772 0.66336 0.06991 0.0
H208 H 0.6122 0.61896 0.09148 0.0
H209 H 0.5481 0.75947 0.18641 0.0
C210 C 0.36778 0.84881 0.16582 0.0
C211 C 0.39795 0.85331 0.11527 0.0
C212 C 0.37395 0.80356 0.20199 0.0
C213 C 0.41203 0.76057 0.18824 0.0
C214 C 0.44379 0.76313 0.13711 0.0
C215 C 0.4362 0.80977 0.10064 0.0
C216 C 0.48881 0.72054 0.12515 0.0
C217 C 0.47945 0.67239 0.08814 0.0
C218 C 0.52487 0.63531 0.07672 0.0
C219 C 0.57752 0.64736 0.1007 0.0
C220 C 0.58481 0.68792 0.14321 0.0
C221 C 0.54135 0.72616 0.15468 0.0
H222 H 0.33393 0.13068 0.39266 0.0
H223 H 0.48431 0.2013 0.47065 0.0
H224 H 0.4737 0.18467 0.28926 0.0
H225 H 0.54642 0.23694 0.27968 0.0
H226 H 0.67822 0.33802 0.35631 0.0
H227 H 0.53504 0.28331 0.45799 0.0
C228 C 0.37556 0.15189 0.3886 0.0
C229 C 0.4031 0.15173 0.3361 0.0
C230 C 0.40897 0.15754 0.43651 0.0
C231 C 0.45985 0.19232 0.43281 0.0
C232 C 0.48201 0.20916 0.37855 0.0
C233 C 0.45477 0.18315 0.33046 0.0
C234 C 0.53627 0.2467 0.37212 0.0
C235 C 0.56385 0.25453 0.31822 0.0
C236 C 0.61476 0.28761 0.31299 0.0
C237 C 0.63959 0.31151 0.36115 0.0
C238 C 0.60904 0.31415 0.41173 0.0
C239 C 0.55867 0.27989 0.41853 0.0
H240 H 0.65715 0.85928 0.37687 0.0
H241 H 0.72181 0.92914 0.22126 0.0
H242 H 0.56799 -0.00749 0.29997 0.0
H243 H 0.54505 0.00523 0.20482 0.0
H244 H 0.62221 0.15286 0.1309 0.0
H245 H 0.72799 0.01814 0.17777 0.0
C246 C 0.65345 0.889 0.34231 0.0
C247 C 0.60829 0.92504 0.34286 0.0
C248 C 0.6944 0.88959 0.2998 0.0
C249 C 0.69034 0.9288 0.25475 0.0
C250 C 0.64418 0.96677 0.25298 0.0
C251 C 0.60314 0.96396 0.2983 0.0
C252 C 0.63841 0.01064 0.20631 0.0
C253 C 0.583 0.02876 0.19125 0.0
C254 C 0.57739 0.07766 0.15826 0.0
C255 C 0.62605 0.11105 0.1487 0.0
C256 C 0.67826 0.08615 0.14398 0.0
C257 C 0.68624 0.03606 0.17593 0.0
H258 H 0.07967 0.33964 0.36332 0.0
H259 H 0.15724 0.43426 0.50244 0.0
H260 H 0.25262 0.31159 0.40675 0.0
H261 H 0.23891 0.29568 0.55066 0.0
H262 H 0.406 0.36971 0.58122 0.0
H263 H 0.28908 0.45824 0.47941 0.0
C264 C 0.11555 0.34874 0.39175 0.0
C265 C 0.16659 0.32533 0.37839 0.0
C266 C 0.11203 0.39162 0.43163 0.0
C267 C 0.15903 0.40178 0.46968 0.0
C268 C 0.20918 0.3689 0.46413 0.0
C269 C 0.21341 0.33284 0.41552 0.0
C270 C 0.25924 0.37383 0.50492 0.0
C271 C 0.27068 0.32934 0.54356 0.0
C272 C 0.32367 0.32921 0.57309 0.0
C273 C 0.36481 0.3705 0.56024 0.0
C274 C 0.3502 0.42019 0.53424 0.0
C275 C 0.29826 0.42148 0.50395 0.0
H276 H 0.879 0.15623 0.83648 0.0
H277 H 0.78183 0.05864 0.71324 0.0
H278 H 0.93284 -0.00897 0.78783 0.0
H279 H 0.9588 0.00419 0.68296 0.0
H280 H 0.8859 0.93641 0.53167 0.0
H281 H 0.78719 0.93783 0.68513 0.0
C282 C 0.87442 0.11858 0.80931 0.0
C283 C 0.90718 0.07275 0.82079 0.0
C284 C 0.82499 0.11067 0.77758 0.0
C285 C 0.81855 0.06298 0.7409 0.0
C286 C 0.86146 0.02218 0.73941 0.0
C287 C 0.90355 0.0251 0.78324 0.0
C288 C 0.8688 -0.015 0.68744 0.0
C289 C 0.92273 -0.01379 0.66126 0.0
C290 C 0.92998 0.96288 0.60715 0.0
C291 C 0.88173 0.94665 0.57628 0.0
C292 C 0.83497 0.92508 0.60643 0.0
C293 C 0.82542 0.94915 0.66172 0.0
H294 H 0.4239 0.64512 0.89624 0.0
H295 H 0.27606 0.54433 0.93948 0.0
H296 H 0.28977 0.72013 -0.00721 0.0
H297 H 0.26023 0.67656 0.08684 0.0
H298 H 0.12018 0.56613 0.13432 0.0
H299 H 0.17049 0.57737 0.95882 0.0
C300 C 0.38415 0.64023 0.92016 0.0
C301 C 0.3582 0.68862 0.93979 0.0
C302 C 0.35162 0.59057 0.91245 0.0
C303 C 0.2997 0.58384 0.94345 0.0
C304 C 0.27942 0.62882 0.97901 0.0
C305 C 0.30827 0.68278 0.97411 0.0
C306 C 0.2284 0.6199 0.0192 0.0
C307 C 0.22822 0.64455 0.07503 0.0
C308 C 0.18621 0.62648 0.11535 0.0
C309 C 0.14983 0.58128 0.10167 0.0
C310 C 0.13875 0.56787 0.04528 0.0
C311 C 0.17854 0.587 0.00314 0.0
H312 H 0.63041 0.85265 0.89809 0.0
H313 H 0.70946 0.92042 0.04973 0.0
H314 H 0.79696 0.80025 0.9422 0.0
H315 H 0.74971 0.81679 0.11399 0.0
H316 H 0.92861 0.80101 0.13546 0.0
H317 H 0.86777 0.90058 -6e-05 0.0
C318 C 0.66506 0.85267 0.92858 0.0
C319 C 0.71314 0.82283 0.91517 0.0
C320 C 0.66473 0.89082 0.97378 0.0
C321 C 0.70996 0.89174 0.01335 0.0
C322 C 0.75679 0.85599 0.00389 0.0
C323 C 0.75937 0.82381 0.95279 0.0
C324 C 0.80325 0.85074 0.04606 0.0
C325 C 0.79271 0.82272 0.09803 0.0
C326 C 0.83939 0.80567 0.13033 0.0
C327 C 0.89378 0.81515 0.10957 0.0
C328 C 0.90384 0.85895 0.07213 0.0
C329 C 0.85949 0.87199 0.03474 0.0
H330 H 0.35209 0.62466 0.46622 0.0
H331 H 0.26292 0.52587 0.33985 0.0
H332 H 0.4444 0.55833 0.32282 0.0
H333 H 0.42168 0.5171 0.2304 0.0
H334 H 0.39208 0.3366 0.21582 0.0
H335 H 0.28716 0.4311 0.32525 0.0
C336 C 0.35332 0.59891 0.42755 0.0
C337 C 0.40335 0.59834 0.39525 0.0
C338 C 0.30207 0.58175 0.40319 0.0
C339 C 0.30284 0.54309 0.35669 0.0
C340 C 0.35578 0.52898 0.33073 0.0
C341 C 0.40529 0.56186 0.34694 0.0
C342 C 0.35988 0.47917 0.28974 0.0
C343 C 0.3996 0.47834 0.24326 0.0
C344 C 0.40733 0.42705 0.21182 0.0
C345 C 0.38444 0.37741 0.23576 0.0
C346 C 0.33392 0.38027 0.26581 0.0
C347 C 0.32317 0.43043 0.29653 0.0
H348 H 0.88666 0.17238 0.40378 0.0
H349 H 0.82161 0.11395 0.56437 0.0
H350 H 0.71088 0.19469 0.44624 0.0
H351 H 0.74533 0.22636 0.60884 0.0
H352 H 0.57029 0.17669 0.63495 0.0
H353 H 0.67456 0.07926 0.52171 0.0
C354 C 0.85234 0.16993 0.43512 0.0
C355 C 0.79847 0.18661 0.41951 0.0
C356 C 0.86033 0.13955 0.48418 0.0
C357 C 0.81576 0.13668 0.52534 0.0
C358 C 0.76203 0.15994 0.51326 0.0
C359 C 0.75305 0.18229 0.45867 0.0
C360 C 0.71324 0.15781 0.55459 0.0
C361 C 0.70866 0.19952 0.59823 0.0
C362 C 0.6562 0.20475 0.62777 0.0
C363 C 0.61015 0.17086 0.61187 0.0
C364 C 0.61868 0.12047 0.58254 0.0
C365 C 0.66905 0.11547 0.54966 0.0
H366 H 0.13091 0.34748 0.91356 0.0
H367 H 0.23204 0.45541 0.80478 0.0
H368 H 0.04748 0.45255 0.79573 0.0
H369 H 0.07547 0.46817 0.69584 0.0
H370 H 0.16652 0.61207 0.62995 0.0
H371 H 0.21175 0.55199 0.79156 0.0
C372 C 0.13356 0.37646 0.87823 0.0
C373 C 0.08301 0.39668 0.85663 0.0
C374 C 0.18711 0.39952 0.8616 0.0
C375 C 0.19049 0.43777 0.81707 0.0
C376 C 0.14047 0.45643 0.7914 0.0
C377 C 0.08643 0.43572 0.81173 0.0
C378 C 0.14575 0.50124 0.7473 0.0
C379 C 0.1084 0.50093 0.70033 0.0
C380 C 0.11461 0.5434 0.65926 0.0
C381 C 0.16174 0.57991 0.66131 0.0
C382 C 0.19354 0.5868 0.70987 0.0
C383 C 0.18696 0.54668 0.75314 0.0
C384 C 0.97641 0.30375 0.93485 0.0
C385 C 0.97309 0.33625 -0.01476 0.0
C386 C 0.01085 0.41881 0.93364 0.0
C387 C 0.02931 0.38209 0.88949 0.0
N388 N 0.01194 0.29253 0.84112 0.0
N389 N 0.95641 0.4284 0.02217 0.0
C390 C 0.00605 0.32593 0.88769 0.0
C391 C 0.98017 0.39542 0.98127 0.0
N392 N 0.94942 0.25212 0.93013 0.0
N393 N 0.02508 0.47508 0.93132 0.0
H394 H 0.93615 0.41082 0.05773 0.0
H395 H 0.95098 0.47156 0.01749 0.0
H396 H 0.04984 0.49279 0.89878 0.0
H397 H 0.00953 0.50461 0.95982 0.0
H398 H 0.92342 0.23526 0.96235 0.0
H399 H 0.92342 0.23526 0.96235 0.0
H400 H 0.03191 0.30764 0.80452 0.0
H401 H 0.03191 0.30764 0.80452 0.0
C402 C 0.87847 0.84147 0.27849 0.0
C403 C 0.89915 0.78918 0.29591 0.0
C404 C 0.86123 0.74336 0.21132 0.0
C405 C 0.83973 0.79548 0.19217 0.0
N406 N 0.82929 0.8964 0.21249 0.0
N407 N 0.88698 0.68663 0.2889 0.0
C408 C 0.84654 0.84448 0.22814 0.0
C409 C 0.88056 0.7391 0.26722 0.0
N410 N 0.89077 0.88915 0.30988 0.0
N411 N 0.87447 0.70112 0.17408 0.0
H412 H 0.89916 0.67948 0.33062 0.0
H413 H 0.89916 0.67948 0.33062 0.0
H414 H 0.87483 0.70613 0.13027 0.0
H415 H 0.89329 0.6644 0.18736 0.0
H416 H 0.87762 0.92931 0.29886 0.0
H417 H 0.91157 0.88637 0.3485 0.0
H418 H 0.80748 0.90414 0.17513 0.0
H419 H 0.80748 0.90414 0.17513 0.0
C420 C 0.50988 0.65041 0.49512 0.0
C421 C 0.47209 0.68956 0.52002 0.0
C422 C 0.42851 0.69619 0.42592 0.0
C423 C 0.4482 0.64157 0.41296 0.0
N424 N 0.52755 0.58268 0.41839 0.0
N425 N 0.40865 0.76586 0.49966 0.0
C426 C 0.49563 0.62367 0.44225 0.0
C427 C 0.43565 0.71834 0.48235 0.0
N428 N 0.56213 0.64429 0.51855 0.0
N429 N 0.39778 0.72226 0.38571 0.0
H430 H 0.40926 0.78099 0.54118 0.0
H431 H 0.38425 0.7902 0.47335 0.0
H432 H 0.39476 0.70499 0.34464 0.0
H433 H 0.378 0.76059 0.39161 0.0
H434 H 0.59332 0.62299 0.49757 0.0
H435 H 0.57785 0.66824 0.55299 0.0
H436 H 0.56229 0.56608 0.4382 0.0
H437 H 0.51946 0.5666 0.37769 0.0
C438 C 0.62293 0.20527 0.78391 0.0
C439 C 0.59224 0.25566 0.79056 0.0
C440 C 0.61661 0.2796 0.69188 0.0
C441 C 0.64769 0.22936 0.68551 0.0
N442 N 0.6689 0.13792 0.72653 0.0
N443 N 0.57488 0.3486 0.75226 0.0
C444 C 0.64788 0.19099 0.73167 0.0
C445 C 0.59445 0.29546 0.74578 0.0
N446 N 0.63042 0.16944 0.82772 0.0
N447 N 0.60224 0.30936 0.64521 0.0
H448 H 0.56224 0.36585 0.79112 0.0
H449 H 0.56224 0.36585 0.79112 0.0
H450 H 0.61586 0.2989 0.60418 0.0
H451 H 0.57444 0.34281 0.6476 0.0
H452 H 0.6177 0.17794 0.8694 0.0
H453 H 0.6177 0.17794 0.8694 0.0
H454 H 0.68915 0.12217 0.69028 0.0
H455 H 0.68915 0.12217 0.69028 0.0
C456 C 0.02755 0.64988 0.58667 0.0
C457 C 0.02988 0.62613 0.53152 0.0
C458 C 0.05761 0.53559 0.56949 0.0
C459 C 0.06862 0.56295 0.62204 0.0
N460 N 0.05206 0.64157 0.68609 0.0
N461 N 0.01081 0.5413 0.47822 0.0
C462 C 0.04833 0.61845 0.63262 0.0
C463 C 0.03428 0.56718 0.52481 0.0
N464 N 0.00098 0.69974 0.59533 0.0
N465 N 0.07048 0.48018 0.56224 0.0
H466 H -0.00621 0.56401 0.44501 0.0
H467 H -0.00038 0.49838 0.47791 0.0
H468 H 0.0876 0.45637 0.59448 0.0
H469 H 0.06278 0.45773 0.52486 0.0
H470 H -0.00886 0.71599 0.63543 0.0
H471 H 0.98329 0.72177 0.56205 0.0
H472 H 0.04524 0.68402 0.69566 0.0
H473 H 0.06326 0.61764 0.72097 0.0
C474 C 0.68654 0.84182 0.76595 0.0
C475 C 0.64671 0.79532 0.75675 0.0
C476 C 0.68142 0.7516 0.8437 0.0
C477 C 0.7143 0.80118 0.85611 0.0
N478 N 0.76419 0.88417 0.8225 0.0
N479 N 0.62401 0.6961 0.78076 0.0
C480 C 0.72243 0.84294 0.81445 0.0
C481 C 0.64992 0.74714 0.7928 0.0
N482 N 0.69067 0.88475 0.72793 0.0
N483 N 0.67818 0.70915 0.88231 0.0
H484 H 0.60428 0.68556 0.74252 0.0
H485 H 0.60428 0.68556 0.74252 0.0
H486 H 0.70103 0.71191 0.92014 0.0
H487 H 0.65311 0.67208 0.87622 0.0
H488 H 0.70753 0.92494 0.73834 0.0
H489 H 0.67681 0.87994 0.68609 0.0
H490 H 0.77568 0.91464 0.79264 0.0
H491 H 0.79077 0.88451 0.85795 0.0
C492 C 0.44699 0.34499 0.08214 0.0
C493 C 0.44228 0.38056 0.03472 0.0
C494 C 0.4086 0.45265 0.10444 0.0
C495 C 0.42839 0.42066 0.15081 0.0
N496 N 0.48892 0.34439 0.17474 0.0
N497 N 0.43244 0.47932 0.00894 0.0
C498 C 0.45613 0.37014 0.13618 0.0
C499 C 0.42693 0.43786 0.04794 0.0
N500 N 0.43497 0.2883 0.07887 0.0
N501 N 0.37232 0.49598 0.11268 0.0
H502 H 0.45922 0.47506 0.97431 0.0
H503 H 0.42036 0.52084 0.0167 0.0
H504 H 0.35648 0.50787 0.15224 0.0
H505 H 0.3535 0.51628 0.07889 0.0
H506 H 0.43275 0.26395 0.11558 0.0
H507 H 0.41957 0.2677 0.0425 0.0
H508 H 0.51235 0.30953 0.16357 0.0
H509 H 0.49652 0.36184 0.21502 0.0
C510 C 0.84071 0.14469 0.28146 0.0
C511 C 0.87366 0.19499 0.26802 0.0
C512 C 0.81567 0.24711 0.33771 0.0
C513 C 0.79218 0.19575 0.35777 0.0
N514 N 0.76661 0.0984 0.33624 0.0
N515 N 0.8898 0.29623 0.28688 0.0
C516 C 0.79795 0.14637 0.32411 0.0
C517 C 0.85994 0.24682 0.2963 0.0
N518 N 0.8507 0.09425 0.25491 0.0
N519 N 0.7972 0.29641 0.3606 0.0
H520 H 0.92499 0.29983 0.25966 0.0
H521 H 0.92499 0.29983 0.25966 0.0
H522 H 0.76649 0.29646 0.39299 0.0
H523 H 0.80841 0.33555 0.34318 0.0
H524 H 0.8284 0.05663 0.26517 0.0
H525 H 0.87924 0.09048 0.2212 0.0
H526 H 0.73506 0.09702 0.36782 0.0
H527 H 0.73506 0.09702 0.36782 0.0
C528 C 0.94797 0.02066 0.42798 0.0
C529 C -0.00302 0.05306 0.41206 0.0
C530 C 0.9657 0.13065 0.47556 0.0
C531 C 0.91122 0.1028 0.48102 0.0
N532 N 0.85034 0.02095 0.46074 0.0
N533 N 0.05929 0.13421 0.42949 0.0
C534 C 0.90306 0.04694 0.45852 0.0
C535 C 0.00801 0.10676 0.43898 0.0
N536 N 0.94518 0.9641 0.41588 0.0
N537 N 0.97516 0.1811 0.50377 0.0
H538 H 0.09261 0.11388 0.40896 0.0
H539 H 0.06932 0.17571 0.44233 0.0
H540 H 0.94447 0.19762 0.53121 0.0
H541 H 0.01314 0.20519 0.50232 0.0
H542 H 0.9135 0.93694 0.43263 0.0
H543 H 0.97835 0.94385 0.39498 0.0
H544 H 0.83961 -0.01318 0.43432 0.0
H545 H 0.81691 0.03554 0.48569 0.0
C546 C 0.19181 0.74189 0.71228 0.0
C547 C 0.23645 0.7561 0.67292 0.0
C548 C 0.26552 0.65759 0.67438 0.0
C549 C 0.22212 0.64375 0.71446 0.0
N550 N 0.15572 0.67737 0.78432 0.0
N551 N 0.33022 0.72728 0.63865 0.0
C552 C 0.18959 0.68769 0.73799 0.0
C553 C 0.27799 0.71466 0.66123 0.0
N554 N 0.14992 0.77905 0.72386 0.0
N555 N 0.29434 0.61578 0.64731 0.0
H556 H 0.34672 0.76838 0.63371 0.0
H557 H 0.34672 0.76838 0.63371 0.0
H558 H 0.28762 0.57323 0.65731 0.0
H559 H 0.32433 0.62427 0.61521 0.0
H560 H 0.11123 0.7666 0.74267 0.0
H561 H 0.15301 0.82168 0.71324 0.0
H562 H 0.13468 0.70919 0.80624 0.0
H563 H 0.15391 0.6383 0.80436 0.0
C564 C 0.51675 0.92763 0.95282 0.0
C565 C 0.52286 0.96639 0.90791 0.0
C566 C 0.62572 0.9725 0.92372 0.0
C567 C 0.61991 0.9335 0.96896 0.0
N568 N 0.55897 0.88867 0.03731 0.0
N569 N 0.58092 0.03771 0.86103 0.0
C570 C 0.56484 0.91641 -0.01271 0.0
C571 C 0.57644 -0.00636 0.89775 0.0
N572 N 0.46524 0.90064 0.96184 0.0
N573 N 0.67807 -0.01725 0.89987 0.0
H574 H 0.54545 0.05384 0.8411 0.0
H575 H 0.61909 0.06083 0.85463 0.0
H576 H 0.71574 0.97013 0.91864 0.0
H577 H 0.68249 -0.00148 0.85894 0.0
H578 H 0.45983 0.86767 -0.00994 0.0
H579 H 0.42867 0.91001 0.93924 0.0
H580 H 0.51973 0.884 0.0577 0.0
H581 H 0.59425 0.87898 0.0618 0.0
C582 C 0.25664 0.24497 0.21856 0.0
C583 C 0.26184 0.25406 0.15943 0.0
C584 C 0.27778 0.35426 0.18203 0.0
C585 C 0.28892 0.34235 0.23968 0.0
N586 N 0.30029 0.26996 0.30922 0.0
N587 N 0.3036 0.31805 0.08993 0.0
C588 C 0.28164 0.28551 0.25727 0.0
C589 C 0.27988 0.30901 0.14204 0.0
N590 N 0.229 0.19775 0.23756 0.0
N591 N 0.2749 0.409 0.16497 0.0
H592 H 0.31211 0.28525 0.06154 0.0
H593 H 0.32014 0.3577 0.07783 0.0
H594 H 0.27365 0.44265 0.19419 0.0
H595 H 0.26913 0.41983 0.12272 0.0
H596 H 0.23024 0.18541 0.27964 0.0
H597 H 0.20108 0.17436 0.21128 0.0
H598 H 0.29966 0.22793 0.32218 0.0
H599 H 0.31984 0.29917 0.3373 0.0
C600 C 0.04035 0.88876 0.1472 0.0
C601 C 0.02236 0.93325 0.18372 0.0
C602 C 0.93951 0.94592 0.12301 0.0
C603 C 0.95304 0.89707 0.09025 0.0
N604 N 0.01618 0.82119 0.07125 0.0
N605 N 0.94711 -0.00725 0.21453 0.0
C606 C 0.00485 0.86963 0.10132 0.0
C607 C 0.97049 0.95953 0.17331 0.0
N608 N 0.09077 0.86377 0.15765 0.0
N609 N 0.89495 0.97798 0.10813 0.0
H610 H 0.96806 0.00417 0.25207 0.0
H611 H 0.90385 0.00113 0.21486 0.0
H612 H 0.87139 0.97018 0.07153 0.0
H613 H 0.88532 0.01566 0.12917 0.0
H614 H 0.10659 0.8295 0.13516 0.0
H615 H 0.11983 0.8805 0.18692 0.0
H616 H 0.05038 0.79575 0.07829 0.0
H617 H -0.01061 0.80477 0.03946 0.0
C618 C 0.20833 0.66992 0.49553 0.0
C619 C 0.22306 0.72244 0.47154 0.0
C620 C 0.25797 0.67461 0.38721 0.0
C621 C 0.25581 0.62198 0.41604 0.0
N622 N 0.21947 0.56813 0.495 0.0
N623 N 0.22594 0.76957 0.38358 0.0
C624 C 0.22607 0.61884 0.46862 0.0
C625 C 0.23594 0.72309 0.41387 0.0
N626 N 0.17216 0.66907 0.5405 0.0
N627 N 0.28352 0.67944 0.33541 0.0
H628 H 0.20557 0.80441 0.40128 0.0
H629 H 0.20557 0.80441 0.40128 0.0
H630 H 0.30362 0.64622 0.31488 0.0
H631 H 0.28646 0.71794 0.31475 0.0
H632 H 0.14654 0.63305 0.54761 0.0
H633 H 0.16014 0.70631 0.56126 0.0
H634 H 0.20375 0.56408 0.53633 0.0
H635 H 0.2306 0.53056 0.47466 0.0
C636 C 0.4794 0.07268 0.63897 0.0
C637 C 0.49812 0.03864 0.68307 0.0
C638 C 0.59249 0.03343 0.63743 0.0
C639 C 0.57615 0.07463 0.59804 0.0
N640 N 0.50343 0.12592 0.55389 0.0
N641 N 0.57143 -0.01449 0.72613 0.0
C642 C 0.5182 0.09002 0.59557 0.0
C643 C 0.55406 0.0175 0.68221 0.0
N644 N 0.42475 0.09012 0.64231 0.0
N645 N 0.6448 0.01026 0.63216 0.0
H646 H 0.54352 0.97213 0.75805 0.0
H647 H 0.61352 0.97484 0.73273 0.0
H648 H 0.67253 0.02 0.59876 0.0
H649 H 0.65857 0.97761 0.65717 0.0
H650 H 0.40649 0.11836 0.61492 0.0
H651 H 0.40649 0.11836 0.61492 0.0
H652 H 0.46631 0.14832 0.55386 0.0
H653 H 0.53112 0.13466 0.51993 0.0
C654 C 0.27604 0.30975 0.93428 0.0
C655 C 0.23611 0.31092 0.97972 0.0
C656 C 0.22168 0.40952 0.95769 0.0
C657 C 0.235 0.39578 0.90182 0.0
N658 N 0.32204 0.36866 0.86235 0.0
N659 N 0.19564 0.3779 0.04887 0.0
C660 C 0.27594 0.35491 0.89487 0.0
C661 C 0.21774 0.36577 -0.00296 0.0
N662 N 0.31561 0.26903 0.93122 0.0
N663 N 0.20679 0.46277 0.97098 0.0
H664 H 0.19347 0.34959 0.08212 0.0
H665 H 0.19347 0.34959 0.08212 0.0
H666 H 0.19932 0.49112 0.9386 0.0
H667 H 0.20323 0.47657 0.01312 0.0
H668 H 0.34186 0.26366 0.89632 0.0
H669 H 0.32511 0.2436 0.96542 0.0
H670 H 0.36074 0.34932 0.86749 0.0
H671 H 0.32165 0.40276 0.83455 0.0
C672 C 0.37704 0.011 0.09507 0.0
C673 C 0.33854 0.0104 0.04861 0.0
C674 C 0.34947 0.90722 0.03727 0.0
C675 C 0.38846 0.90729 0.08342 0.0
N676 N 0.43849 0.95914 0.15765 0.0
N677 N 0.28336 0.95687 0.97935 0.0
C678 C 0.40229 0.9596 0.11224 0.0
C679 C 0.32448 0.95846 0.02018 0.0
N680 N 0.38831 0.06117 0.12347 0.0
N681 N 0.33293 0.85806 0.01021 0.0
H682 H 0.2648 -0.00676 0.96431 0.0
H683 H 0.2664 0.91897 0.96238 0.0
H684 H 0.34888 0.81853 0.01944 0.0
H685 H 0.34888 0.81853 0.01944 0.0
H686 H 0.41211 0.06573 0.16036 0.0
H687 H 0.37486 0.09996 0.10887 0.0
H688 H 0.44721 -0.00667 0.18485 0.0
H689 H 0.46157 0.92368 0.16778 0.0
C690 C 0.87233 0.5227 0.93676 0.0
C691 C 0.82242 0.51387 0.97072 0.0
C692 C 0.8122 0.61749 0.97632 0.0
C693 C 0.8657 0.62651 0.9482 0.0
N694 N 0.94766 0.58703 0.90216 0.0
N695 N 0.74645 0.55325 0.02642 0.0
C696 C 0.89637 0.57866 0.92947 0.0
C697 C 0.79283 0.56148 -0.00845 0.0
N698 N 0.89489 0.47769 0.90852 0.0
N699 N 0.77816 0.66245 -0.01476 0.0
H700 H 0.7326 0.51336 0.04029 0.0
H701 H 0.72349 0.58583 0.04463 0.0
H702 H 0.79257 0.70422 0.97887 0.0
H703 H 0.73525 0.65807 -0.00337 0.0
H704 H 0.92332 0.48158 0.87456 0.0
H705 H 0.88172 0.43593 0.91587 0.0
H706 H 0.97167 0.55508 0.88457 0.0
H707 H 0.96815 0.62661 0.8982 0.0
C708 C 0.68069 0.60307 0.22274 0.0
C709 C 0.73064 0.60869 0.18834 0.0
C710 C 0.68878 0.69023 0.14122 0.0
C711 C 0.63895 0.6831 0.17474 0.0
N712 N 0.5935 0.64501 0.25761 0.0
N713 N 0.78111 0.65774 0.11309 0.0
C714 C 0.63741 0.6438 0.21927 0.0
C715 C 0.73452 0.6527 0.14749 0.0
N716 N 0.67291 0.55721 0.25668 0.0
N717 N 0.68797 0.72841 0.09816 0.0
H718 H 0.81268 0.62807 0.11104 0.0
H719 H 0.79013 0.69306 0.08844 0.0
H720 H 0.6558 0.7578 0.0954 0.0
H721 H 0.71708 0.73056 0.06473 0.0
H722 H 0.63306 0.5458 0.2733 0.0
H723 H 0.70383 0.52725 0.26266 0.0
H724 H 0.59181 0.62078 0.29424 0.0
H725 H 0.56176 0.6748 0.25519 0.0
C726 C 0.70117 0.42556 0.48696 0.0
C727 C 0.68154 0.47339 0.45814 0.0
C728 C 0.60068 0.4165 0.42109 0.0
C729 C 0.62249 0.36703 0.44494 0.0
N730 N 0.69855 0.32257 0.49303 0.0
N731 N 0.62674 0.5074 0.38103 0.0
C732 C 0.67417 0.37113 0.4763 0.0
C733 C 0.63535 0.46679 0.42024 0.0
N734 N 0.74534 0.4322 0.52417 0.0
N735 N 0.54842 0.41413 0.3956 0.0
H736 H 0.65295 0.54397 0.37797 0.0
H737 H 0.59646 0.5026 0.34907 0.0
H738 H 0.52094 0.37849 0.39735 0.0
H739 H 0.53056 0.4486 0.37633 0.0
H740 H 0.76351 0.39894 0.54499 0.0
H741 H 0.76363 0.47175 0.53491 0.0
H742 H 0.74077 0.32112 0.50631 0.0
H743 H 0.67699 0.28316 0.48985 0.0
C744 C 0.22736 0.81193 0.25453 0.0
C745 C 0.23684 0.8522 0.29865 0.0
C746 C 0.33873 0.83311 0.29712 0.0
C747 C 0.33024 0.79983 0.24719 0.0
N748 N 0.26771 0.75249 0.18051 0.0
N749 N 0.29939 0.8869 0.37384 0.0
C750 C 0.27435 0.78604 0.22792 0.0
C751 C 0.29148 0.85823 0.32393 0.0
N752 N 0.17286 0.80011 0.23743 0.0
N753 N 0.39262 0.84367 0.31696 0.0
H754 H 0.26577 0.9031 0.39766 0.0
H755 H 0.26577 0.9031 0.39766 0.0
H756 H 0.42798 0.82532 0.29788 0.0
H757 H 0.401 0.86924 0.35274 0.0
H758 H 0.16282 0.77884 0.20004 0.0
H759 H 0.13752 0.81325 0.26075 0.0
H760 H 0.23138 0.75095 0.1555 0.0
H761 H 0.30106 0.72889 0.16414 0.0
C762 C 0.0944 -0.003 0.65309 0.0
C763 C 0.13292 0.00225 0.60728 0.0
C764 C 0.10474 0.10085 0.5947 0.0
C765 C 0.07139 0.09727 0.64562 0.0
N766 N 0.04264 0.04073 0.72699 0.0
N767 N 0.17558 0.05783 0.53239 0.0
C768 C 0.06747 0.04495 0.67478 0.0
C769 C 0.13789 0.05372 0.57689 0.0
N770 N 0.08327 0.94562 0.67717 0.0
N771 N 0.10645 0.15019 0.56506 0.0
H772 H 0.19904 0.02369 0.51793 0.0
H773 H 0.18528 0.09479 0.51041 0.0
H774 H 0.0828 0.18498 0.57694 0.0
H775 H 0.12862 0.15637 0.5272 0.0
H776 H 0.04964 0.93967 0.70596 0.0
H777 H 0.10375 0.90874 0.66511 0.0
H778 H 0.02038 0.07316 0.7465 0.0
H779 H 0.02038 0.07316 0.7465 0.0
C780 C 0.68539 0.38969 0.21247 0.0
C781 C 0.73703 0.36067 0.20597 0.0
C782 C 0.68444 0.27278 0.23504 0.0
C783 C 0.6412 0.30598 0.25808 0.0
N784 N 0.59593 0.39564 0.26417 0.0
N785 N 0.78223 0.26962 0.20346 0.0
C786 C 0.63945 0.36411 0.24379 0.0
C787 C 0.73517 0.30039 0.21326 0.0
N788 N 0.68029 0.44129 0.18805 0.0
N789 N 0.67797 0.21511 0.23779 0.0
H790 H 0.82176 0.28619 0.1911 0.0
H791 H 0.78318 0.22643 0.21007 0.0
H792 H 0.64105 0.19555 0.25455 0.0
H793 H 0.70564 0.1866 0.21934 0.0
H794 H 0.64294 0.46381 0.18928 0.0
H795 H 0.71194 0.45878 0.16156 0.0
H796 H 0.59517 0.43957 0.26102 0.0
H797 H 0.56158 0.37729 0.28651 0.0
C798 C 0.75805 0.70114 0.70825 0.0
C799 C 0.75067 0.64051 0.70643 0.0
C800 C 0.84424 0.63308 0.75163 0.0
C801 C 0.84498 0.69211 0.7647 0.0
N802 N 0.81555 0.78431 0.7411 0.0
N803 N 0.80045 0.55324 0.70007 0.0
C804 C 0.80588 0.72689 0.73808 0.0
C805 C 0.79816 0.60773 0.72012 0.0
N806 N 0.72083 0.73415 0.68077 0.0
N807 N 0.88605 0.60094 0.77318 0.0
H808 H 0.77 0.53602 0.67206 0.0
H809 H 0.83527 0.52767 0.70529 0.0
H810 H 0.92251 0.61946 0.79208 0.0
H811 H 0.88383 0.55681 0.77391 0.0
H812 H 0.72592 0.77772 0.67722 0.0
H813 H 0.68635 0.7193 0.65695 0.0
H814 H 0.79225 0.81401 0.72009 0.0
H815 H 0.85059 0.80277 0.7623 0.0
C816 C 0.54629 0.84233 0.45955 0.0
C817 C 0.54505 0.88204 0.5059 0.0
C818 C 0.57226 0.95692 0.4391 0.0
C819 C 0.56914 0.91813 0.39284 0.0
N820 N 0.53249 0.82772 0.35831 0.0
N821 N 0.52968 0.97919 0.52926 0.0
C822 C 0.54699 0.8626 0.40305 0.0
C823 C 0.54966 0.94 0.4927 0.0
N824 N 0.55136 0.78587 0.46827 0.0
N825 N 0.59797 0.00926 0.43315 0.0
H826 H 0.51064 0.96897 0.56804 0.0
H827 H 0.52422 0.01992 0.51497 0.0
H828 H 0.61461 0.02371 0.39463 0.0
H829 H 0.60327 0.0374 0.46739 0.0
H830 H 0.55823 0.75692 0.43521 0.0
H831 H 0.55491 0.7687 0.50821 0.0
H832 H 0.51332 0.78754 0.36358 0.0
H833 H 0.53477 0.84185 0.31649 0.0
C834 C 0.41432 0.26464 0.68681 0.0
C835 C 0.38532 0.28234 0.73684 0.0
C836 C 0.3064 0.3135 0.67692 0.0
C837 C 0.33622 0.2982 0.62696 0.0
N838 N 0.41859 0.2551 0.58481 0.0
N839 N 0.29347 0.29715 0.77728 0.0
C840 C 0.38949 0.27133 0.63237 0.0
C841 C 0.32835 0.29978 0.73132 0.0
N842 N 0.46551 0.23956 0.68979 0.0
N843 N 0.25855 0.34398 0.67113 0.0
H844 H 0.25128 0.3095 0.77784 0.0
H845 H 0.30554 0.27455 0.81248 0.0
H846 H 0.23583 0.36156 0.70492 0.0
H847 H 0.23583 0.36156 0.70492 0.0
H848 H 0.48489 0.2299 0.72803 0.0
H849 H 0.48489 0.2299 0.72803 0.0
H850 H 0.45971 0.23967 0.5865 0.0
H851 H 0.40156 0.25807 0.54416 0.0
C852 C -0.00907 0.1339 0.94765 0.0
C853 C 0.9555 0.11323 -0.00747 0.0
C854 C 0.90355 0.05079 0.92463 0.0
C855 C 0.93432 0.07586 0.87848 0.0
N856 N 0.00154 0.14866 0.84631 0.0
N857 N 0.8679 0.06543 0.02032 0.0
C858 C 0.977 0.11909 0.89018 0.0
C859 C 0.90937 0.07483 0.98028 0.0
N860 N 0.03625 0.17017 0.95983 0.0
N861 N 0.86704 0.00525 0.9152 0.0
H862 H 0.86942 0.0848 0.06042 0.0
H863 H 0.82944 0.04342 0.01188 0.0
H864 H 0.86127 -0.0138 0.87539 0.0
H865 H 0.8463 -0.01672 0.94782 0.0
H866 H 0.0666 0.18387 0.93021 0.0
H867 H 0.0452 0.18532 0.00067 0.0
H868 H 0.03069 0.18255 0.85125 0.0
H869 H -0.01045 0.14226 0.80422 0.0
C870 C 0.15239 0.64863 0.27098 0.0
C871 C 0.10306 0.68168 0.2685 0.0
C872 C 0.11497 0.68623 0.1647 0.0
C873 C 0.16747 0.65756 0.1679 0.0
N874 N 0.23435 0.60774 0.22266 0.0
N875 N 0.03306 0.72634 0.21208 0.0
C876 C 0.18573 0.63802 0.22096 0.0
C877 C 0.08288 0.69837 0.21494 0.0
N878 N 0.16531 0.62458 0.32104 0.0
N879 N 0.094 0.69856 0.11259 0.0
H880 H 0.00497 0.7281 0.24631 0.0
H881 H 0.01953 0.74742 0.17637 0.0
H882 H 0.11904 0.6975 0.07577 0.0
H883 H 0.05107 0.70562 0.10558 0.0
H884 H 0.19186 0.59054 0.32405 0.0
H885 H 0.14615 0.63634 0.35935 0.0
H886 H 0.24985 0.58897 0.25865 0.0
H887 H 0.26049 0.60214 0.18707 0.0
C888 C 0.48467 0.09887 0.02994 0.0
C889 C 0.49279 0.15919 0.0302 0.0
C890 C 0.51536 0.1537 0.13128 0.0
C891 C 0.52573 0.09593 0.12656 0.0
N892 N 0.51503 0.01084 0.07128 0.0
N893 N 0.54062 0.23812 0.08191 0.0
C894 C 0.50796 0.06744 0.07598 0.0
C895 C 0.51419 0.18561 0.08118 0.0
N896 N 0.45934 0.07155 -0.01536 0.0
N897 N 0.51939 0.17945 0.18305 0.0
H898 H 0.54023 0.26712 0.0493 0.0
H899 H 0.56701 0.2512 0.11555 0.0
H900 H 0.52736 0.15602 0.21919 0.0
H901 H 0.51077 0.22199 0.18915 0.0
H902 H 0.447 0.0288 -0.01573 0.0
H903 H 0.44683 0.09209 0.94829 0.0
H904 H 0.49686 -0.01348 0.03913 0.0
H905 H 0.53509 -0.01244 0.102 0.0
C906 C 0.10722 0.22839 0.26997 0.0
C907 C 0.09809 0.26635 0.22495 0.0
C908 C 0.15851 0.33814 0.27453 0.0
C909 C 0.16587 0.30037 0.32038 0.0
N910 N 0.15889 0.20647 0.35584 0.0
N911 N 0.13122 0.35027 0.17681 0.0
C912 C 0.14403 0.24445 0.31583 0.0
C913 C 0.12953 0.31873 0.22472 0.0
N914 N 0.07846 0.17787 0.27125 0.0
N915 N 0.17392 0.39424 0.28132 0.0
H916 H 0.11167 0.33619 0.13924 0.0
H917 H 0.15606 0.38749 0.17279 0.0
H918 H 0.19424 0.41001 0.3178 0.0
H919 H 0.16284 0.42553 0.25312 0.0
H920 H 0.07346 0.15595 0.30881 0.0
H921 H 0.06018 0.15928 0.2354 0.0
H922 H 0.15206 0.1629 0.35053 0.0
H923 H 0.18539 0.21801 0.38991 0.0
C924 C 0.04914 0.93872 0.50517 0.0
C925 C 0.05035 0.87895 0.51023 0.0
C926 C 0.00246 0.88657 0.60191 0.0
C927 C -0.0147 0.94156 0.58697 0.0
N928 N 0.01101 0.02652 0.53741 0.0
N929 N 0.06177 0.80769 0.58034 0.0
C930 C 0.01445 0.96972 0.54289 0.0
C931 C 0.03796 0.85651 0.5642 0.0
N932 N 0.08543 0.96665 0.4691 0.0
N933 N 0.9831 0.86039 0.64978 0.0
H934 H 0.08972 0.78594 0.5538 0.0
H935 H 0.05794 0.7932 0.6219 0.0
H936 H 0.95609 0.87907 0.6795 0.0
H937 H 0.95609 0.87907 0.6795 0.0
H938 H 0.08811 0.01082 0.46778 0.0
H939 H 0.11771 0.94634 0.447 0.0
H940 H -0.01248 0.05169 0.56524 0.0
H941 H -0.01248 0.05169 0.56524 0.0
C942 C 0.4623 0.78453 0.86381 0.0
C943 C 0.43528 0.78412 0.81004 0.0
C944 C 0.34692 0.74667 0.85322 0.0
C945 C 0.37555 0.73958 0.90567 0.0
N946 N 0.45845 0.75608 0.96302 0.0
N947 N 0.3482 0.7862 0.75878 0.0
C948 C 0.43217 0.76222 0.91209 0.0
C949 C 0.37613 0.77294 0.8069 0.0
N950 N 0.51772 0.8041 0.86732 0.0
N951 N 0.29276 0.72469 0.8462 0.0
H952 H 0.36941 0.80495 0.72454 0.0
H953 H 0.30407 0.78828 0.75703 0.0
H954 H 0.27043 0.70199 0.87712 0.0
H955 H 0.27046 0.72606 0.80844 0.0
H956 H 0.54114 0.80625 0.90461 0.0
H957 H 0.53937 0.82112 0.83223 0.0
H958 H 0.50103 0.76687 0.97128 0.0
H959 H 0.43618 0.7395 -0.00216 0.0
C960 C 0.46133 0.52125 0.83504 0.0
C961 C 0.46513 0.55654 0.78628 0.0
C962 C 0.36745 0.58681 0.80878 0.0
C963 C 0.36819 0.55741 0.86026 0.0
N964 N 0.39415 0.46966 0.89564 0.0
N965 N 0.40945 0.60536 0.71668 0.0
C966 C 0.40864 0.51621 0.86545 0.0
C967 C 0.41423 0.58398 0.76986 0.0
N968 N 0.5078 0.49557 0.85573 0.0
N969 N 0.32175 0.61857 0.79854 0.0
H970 H 0.43118 0.58912 0.68166 0.0
H971 H 0.38125 0.63623 0.70609 0.0
H972 H 0.28517 0.61548 0.82408 0.0
H973 H 0.3223 0.65005 0.76845 0.0
H974 H 0.50584 0.47293 0.89296 0.0
H975 H 0.54946 0.50271 0.84181 0.0
H976 H 0.41746 0.43316 0.89174 0.0
H977 H 0.35576 0.46667 0.91851 0.0
C978 C 0.68226 0.1804 0.02792 0.0
C979 C 0.71781 0.22428 0.05392 0.0
C980 C 0.76034 0.14972 0.11136 0.0
C981 C 0.71469 0.11253 0.09743 0.0
N982 N 0.65706 0.07895 0.02031 0.0
N983 N 0.81357 0.23718 0.09083 0.0
C984 C 0.68563 0.12323 0.04658 0.0
C985 C 0.76421 0.2053 0.08709 0.0
N986 N 0.64654 0.19241 -0.01532 0.0
N987 N 0.80058 0.13045 0.14638 0.0
H988 H 0.81921 0.277 0.07365 0.0
H989 H 0.85122 0.22152 0.10588 0.0
H990 H 0.7988 0.08833 0.15928 0.0
H991 H 0.83565 0.15477 0.15977 0.0
H992 H 0.61349 0.16482 0.97142 0.0
H993 H 0.65114 0.22897 0.96072 0.0
H994 H 0.63666 0.08177 0.98139 0.0
H995 H 0.65818 0.03807 0.03664 0.0
C996 C 0.96291 0.41099 0.38189 0.0
C997 C 0.9748 0.4534 0.34115 0.0
C998 C 0.06713 0.47472 0.38802 0.0
C999 C 0.05998 0.42567 0.42144 0.0
N1000 N -0.00013 0.34771 0.45232 0.0
N1001 N 0.03825 0.52702 0.3055 0.0
C1002 C 0.00614 0.39553 0.42068 0.0
C1003 C 0.02631 0.48669 0.3452 0.0
N1004 N 0.91033 0.38448 0.38184 0.0
N1005 N 0.11268 0.51052 0.3983 0.0
H1006 H 0.00868 0.53826 0.27508 0.0
H1007 H 0.07829 0.54706 0.30107 0.0
H1008 H 0.14274 0.50269 0.42926 0.0
H1009 H 0.11513 0.55111 0.38244 0.0
H1010 H 0.89813 0.35131 0.40833 0.0
H1011 H 0.87745 0.39933 0.3571 0.0
H1012 H 0.02964 0.33781 0.48316 0.0
H1013 H 0.9678 0.31666 0.44592 0.0
C1014 C 0.74238 0.7923 0.56091 0.0
C1015 C 0.78245 0.7501 0.57403 0.0
C1016 C 0.85323 0.82161 0.59114 0.0
C1017 C 0.81415 0.86611 0.58898 0.0
N1018 N 0.71766 0.89211 0.57127 0.0
N1019 N 0.8684 0.73145 0.62657 0.0
C1020 C 0.75675 0.85099 0.57454 0.0
C1021 C 0.8325 0.76805 0.60272 0.0
N1022 N 0.69232 0.77697 0.53516 0.0
N1023 N 0.90344 0.82181 0.56221 0.0
H1024 H 0.85647 0.68921 0.63402 0.0
H1025 H 0.85647 0.68921 0.63402 0.0
H1026 H 0.91536 0.85109 0.53139 0.0
H1027 H 0.91536 0.85109 0.53139 0.0
H1028 H 0.66609 0.80615 0.51671 0.0
H1029 H 0.67817 0.73474 0.53192 0.0
H1030 H 0.67455 0.88361 0.56339 0.0
H1031 H 0.72893 0.93482 0.57825 0.0
C1032 C 0.4911 0.48966 0.54476 0.0
C1033 C 0.4959 0.48627 0.60477 0.0
C1034 C 0.39114 0.47874 0.61101 0.0
C1035 C 0.38789 0.46983 0.55143 0.0
N1036 N 0.4324 0.4791 0.46071 0.0
N1037 N 0.4512 0.46586 0.69343 0.0
C1038 C 0.437 0.48087 0.51824 0.0
C1039 C 0.44556 0.47871 0.63769 0.0
N1040 N 0.53808 0.49535 0.51127 0.0
N1041 N 0.34167 0.47927 0.6418 0.0
H1042 H 0.41736 0.45378 0.72015 0.0
H1043 H 0.41736 0.45378 0.72015 0.0
H1044 H 0.30192 0.4756 0.6219 0.0
H1045 H 0.34017 0.48848 0.68521 0.0
H1046 H 0.57956 0.49982 0.5269 0.0
H1047 H 0.57956 0.49982 0.5269 0.0
H1048 H 0.46712 0.48723 0.43403 0.0
H1049 H 0.39306 0.47184 0.44075 0.0
C1050 C 0.76613 0.17982 0.89635 0.0
C1051 C 0.75647 0.2353 0.87583 0.0
C1052 C 0.76904 0.19811 0.77927 0.0
C1053 C 0.7776 0.14396 0.80053 0.0
N1054 N 0.76197 0.07921 0.87661 0.0
N1055 N 0.72674 0.28802 0.79433 0.0
C1056 C 0.76427 0.13346 0.85786 0.0
C1057 C 0.75011 0.24163 0.81646 0.0
N1058 N 0.78449 0.17132 0.95024 0.0
N1059 N 0.77682 0.20726 0.72303 0.0
H1060 H 0.70885 0.31988 0.81917 0.0
H1061 H 0.70885 0.31988 0.81917 0.0
H1062 H 0.79143 0.17602 0.69514 0.0
H1063 H 0.76288 0.24378 0.70476 0.0
H1064 H 0.79686 0.13218 0.9646 0.0
H1065 H 0.79414 0.20363 0.97897 0.0
H1066 H 0.75074 0.06912 0.91826 0.0
H1067 H 0.7677 0.04491 0.84886 0.0
C1068 C -0.0137 0.57934 0.07145 0.0
C1069 C 0.9828 0.53367 0.11063 0.0
C1070 C 0.06555 0.4938 0.0637 0.0
C1071 C 0.07894 0.54539 0.03644 0.0
N1072 N 0.04568 0.63386 0.00439 0.0
N1073 N 0.02927 0.45432 0.15029 0.0
C1074 C 0.03644 0.5868 0.03649 0.0
C1075 C 0.02533 0.49278 0.10845 0.0
N1076 N 0.94175 0.61458 0.067 0.0
N1077 N 0.09072 0.44571 0.04623 0.0
H1078 H 0.00574 0.45797 0.1874 0.0
H1079 H 0.06165 0.42548 0.15147 0.0
H1080 H 0.11187 0.44471 0.00742 0.0
H1081 H 0.08065 0.40617 0.0636 0.0
H1082 H 0.90351 0.60774 0.08885 0.0
H1083 H 0.94095 0.64818 0.03912 0.0
H1084 H 0.02083 0.66943 0.00663 0.0
H1085 H 0.08028 0.63737 0.97634 0.0
C1086 C 0.74996 0.74374 0.31053 0.0
C1087 C 0.77425 0.748 0.36503 0.0
C1088 C 0.77127 0.85145 0.35962 0.0
C1089 C 0.73923 0.84677 0.30841 0.0
N1090 N 0.70505 0.78521 0.23177 0.0
N1091 N 0.82237 0.80839 0.43436 0.0
C1092 C 0.73198 0.79242 0.28237 0.0
C1093 C 0.79028 0.80232 0.38661 0.0
N1094 N 0.74223 0.69245 0.28495 0.0
N1095 N 0.77911 0.90286 0.38584 0.0
H1096 H 0.83933 0.77415 0.45519 0.0
H1097 H 0.83933 0.77415 0.45519 0.0
H1098 H 0.76791 0.94057 0.36686 0.0
H1099 H 0.79515 0.90625 0.427 0.0
H1100 H 0.75585 0.65514 0.30298 0.0
H1101 H 0.75585 0.65514 0.30298 0.0
H1102 H 0.69061 0.81872 0.20798 0.0
H1103 H 0.69061 0.81872 0.20798 0.0
C1104 C 0.90335 0.45653 0.53771 0.0
C1105 C 0.90256 0.51421 0.55467 0.0
C1106 C 0.95383 0.49322 0.64225 0.0
C1107 C 0.95949 0.43575 0.62329 0.0
N1108 N 0.93178 0.36081 0.55644 0.0
N1109 N 0.92133 0.58778 0.6238 0.0
C1110 C 0.93267 0.41709 0.57146 0.0
C1111 C 0.9266 0.53248 0.60713 0.0
N1112 N 0.87194 0.43894 0.49158 0.0
N1113 N 0.97246 0.50938 0.69533 0.0
H1114 H 0.90939 0.61854 0.59546 0.0
H1115 H 0.93107 0.60475 0.66361 0.0
H1116 H -0.0116 0.48137 0.72437 0.0
H1117 H 0.97259 0.55029 0.71203 0.0
H1118 H 0.85868 0.39719 0.48358 0.0
H1119 H 0.85411 0.4669 0.46341 0.0
H1120 H 0.91029 0.34308 0.52176 0.0
H1121 H 0.9529 0.33004 0.5782 0.0
C1122 C 0.33471 0.05254 0.53787 0.0
C1123 C 0.35751 0.0009 0.5175 0.0
C1124 C 0.42713 0.05638 0.46 0.0
C1125 C 0.39993 0.10765 0.4753 0.0
N1126 N 0.32083 0.15232 0.52121 0.0
N1127 N 0.41981 0.95307 0.45239 0.0
C1128 C 0.35163 0.10496 0.51206 0.0
C1129 C 0.40275 0.00268 0.4771 0.0
N1130 N 0.29895 0.05201 0.58393 0.0
N1131 N 0.47459 0.0591 0.42605 0.0
H1132 H 0.40031 0.91363 0.46039 0.0
H1133 H 0.44996 0.95017 0.42013 0.0
H1134 H 0.49693 0.09648 0.41631 0.0
H1135 H 0.49378 0.02431 0.40825 0.0
H1136 H 0.28429 0.08863 0.6035 0.0
H1137 H 0.28878 0.01522 0.60627 0.0
H1138 H 0.28121 0.15146 0.54156 0.0
H1139 H 0.33317 0.19173 0.50483 0.0
C1140 C 0.24009 0.16442 0.82786 0.0
C1141 C 0.2805 0.14854 0.78538 0.0
C1142 C 0.22766 0.20112 0.71437 0.0
C1143 C 0.18633 0.21472 0.75618 0.0
N1144 N 0.16107 0.22461 0.85401 0.0
N1145 N 0.3213 0.16627 0.69295 0.0
C1146 C 0.19609 0.20221 0.81368 0.0
C1147 C 0.27684 0.17169 0.73009 0.0
N1148 N 0.23995 0.13972 0.87984 0.0
N1149 N 0.21753 0.21375 0.65892 0.0
H1150 H 0.36135 0.15434 0.70643 0.0
H1151 H 0.32097 0.17916 0.65102 0.0
H1152 H 0.18383 0.23881 0.64722 0.0
H1153 H 0.24082 0.19843 0.6246 0.0
H1154 H 0.20776 0.14518 0.90975 0.0
H1155 H 0.26897 0.10995 0.8918 0.0
H1156 H 0.16752 0.22114 0.89747 0.0
H1157 H 0.12845 0.25138 0.84312 0.0
C1158 C 0.07731 0.02605 0.95126 0.0
C1159 C 0.10106 0.03532 0.00582 0.0
C1160 C 0.08901 0.93479 0.02293 0.0
C1161 C 0.05007 0.92798 0.9764 0.0
N1162 N 0.01131 0.96972 0.89271 0.0
N1163 N 0.12827 -0.00271 0.0958 0.0
C1164 C 0.04363 0.97554 0.94065 0.0
C1165 C 0.10448 -0.01034 0.04324 0.0
N1166 N 0.09101 0.06269 0.90861 0.0
N1167 N 0.11967 0.89038 0.04098 0.0
H1168 H 0.14221 0.03671 0.1121 0.0
H1169 H 0.13177 0.96435 0.12426 0.0
H1170 H 0.11353 0.84886 0.02604 0.0
H1171 H 0.15545 0.89623 0.0669 0.0
H1172 H 0.08141 0.05454 0.86607 0.0
H1173 H 0.11693 0.09896 0.91515 0.0
H1174 H 0.00979 0.00033 0.86165 0.0
H1175 H 0.98418 0.93458 0.88477 0.0
C1176 C 0.75979 0.36303 0.67564 0.0
C1177 C 0.74533 0.40258 0.71905 0.0
C1178 C 0.82251 0.36595 0.7772 0.0
C1179 C 0.84326 0.33488 0.73014 0.0
N1180 N 0.83274 0.30637 0.63208 0.0
N1181 N 0.77125 0.44805 0.80869 0.0
C1182 C 0.81172 0.33384 0.67882 0.0
C1183 C 0.77859 0.40554 0.76956 0.0
N1184 N 0.72345 0.35189 0.63169 0.0
N1185 N 0.84667 0.35875 0.82883 0.0
H1186 H 0.74347 0.48092 0.80293 0.0
H1187 H 0.7974 0.45423 0.84398 0.0
H1188 H 0.87977 0.33081 0.83423 0.0
H1189 H 0.82869 0.37459 0.86605 0.0
H1190 H 0.72846 0.31841 0.60331 0.0
H1191 H 0.68628 0.3734 0.62507 0.0
H1192 H 0.8168 0.31112 0.59127 0.0
H1193 H 0.86755 0.28017 0.63414 0.0
C1194 C 0.55932 0.48338 0.07483 0.0
C1195 C 0.58792 0.48099 0.02135 0.0
C1196 C 0.54316 0.57037 -0.00466 0.0
C1197 C 0.5217 0.57674 0.0512 0.0
N1198 N 0.50615 0.53919 0.14406 0.0
N1199 N 0.61539 0.52946 0.93494 0.0
C1200 C 0.5278 0.53215 0.09042 0.0
C1201 C 0.58109 0.52574 -0.01798 0.0
N1202 N 0.56311 0.43911 0.11107 0.0
N1203 N 0.52957 0.60945 0.95606 0.0
H1204 H 0.64658 0.50055 0.92496 0.0
H1205 H 0.61689 0.56436 0.9084 0.0
H1206 H 0.50343 0.64303 0.96656 0.0
H1207 H 0.53953 0.60566 0.91301 0.0
H1208 H 0.54942 0.43988 0.15304 0.0
H1209 H 0.57822 0.39977 0.09858 0.0
H1210 H 0.5143 0.51346 0.17824 0.0
H1211 H 0.47993 0.57272 0.15454 0.0
C1212 C 0.2525 0.8558 0.85614 0.0
C1213 C 0.2549 0.90086 0.81741 0.0
C1214 C 0.15127 0.89014 0.8058 0.0
C1215 C 0.15009 0.83875 0.83729 0.0
N1216 N 0.19936 0.78051 0.90255 0.0
N1217 N 0.20639 0.96361 0.75654 0.0
C1218 C 0.20147 0.82255 0.86329 0.0
C1219 C 0.20424 0.9186 0.79232 0.0
N1220 N 0.29765 0.84584 0.89 0.0
N1221 N 0.10129 0.91599 0.79587 0.0
H1222 H 0.24422 -0.01417 0.74615 0.0
H1223 H 0.17094 0.97802 0.7358 0.0
H1224 H 0.06135 0.8954 0.80025 0.0
H1225 H 0.09989 0.95938 0.78875 0.0
H1226 H 0.33621 0.86947 0.88947 0.0
H1227 H 0.33621 0.86947 0.88947 0.0
H1228 H 0.23298 0.77387 0.93019 0.0
H1229 H 0.16361 0.75331 0.90784 0.0
C1230 C 0.30808 0.04253 0.32429 0.0
C1231 C 0.26895 0.06693 0.28617 0.0
C1232 C 0.34862 0.12619 0.24927 0.0
C1233 C 0.38212 0.10854 0.2937 0.0
N1234 N 0.40748 0.01805 0.32812 0.0
N1235 N 0.27072 0.09909 0.18905 0.0
C1236 C 0.36681 0.05504 0.31544 0.0
C1237 C 0.29466 0.0983 0.2408 0.0
N1238 N 0.29178 0.01355 0.37151 0.0
N1239 N 0.36909 0.16735 0.21434 0.0
H1240 H 0.23392 0.07504 0.1787 0.0
H1241 H 0.23392 0.07504 0.1787 0.0
H1242 H 0.40898 0.18739 0.22016 0.0
H1243 H 0.34677 0.17966 0.17926 0.0
H1244 H 0.32205 -0.00194 0.39878 0.0
H1245 H 0.25062 0.01114 0.38806 0.0
H1246 H 0.39668 0.97683 0.34065 0.0
H1247 H 0.45039 0.02766 0.31882 0.0
loop_
_geom_bond_atom_site_label_1
_geom_bond_atom_site_label_2
_geom_bond_distance
_geom_bond_site_symmetry_2
_ccdc_geom_bond_type
Co0 O1 2.216 . S
Co0 O2 2.091 . S
Co0 O4 2.004 1_455 S
Co0 O10 2.021 1_455 S
Co0 O12 2.137 . S
Co0 O13 2.244 . S
O1 Co0 2.216 . S
O1 C8 1.247 . S
O2 Co0 2.091 . S
O2 C8 1.261 . S
C3 O12 1.247 . S
C3 O13 1.272 . S
O4 Co0 2.004 1_655 S
O4 C9 1.259 . S
Co5 O6 2.061 1_455 S
Co5 O11 2.052 1_455 S
Co5 O13 2.135 . S
O6 Co5 2.061 1_655 S
O6 C9 1.235 . S
C7 O10 1.238 . S
C7 O11 1.241 . S
C8 O1 1.247 . S
C8 O2 1.261 . S
C9 O4 1.259 . S
C9 O6 1.235 . S
O10 Co0 2.021 1_655 S
O10 C7 1.238 . S
O11 Co5 2.052 1_655 S
O11 C7 1.241 . S
O12 Co0 2.137 . S
O12 C3 1.247 . S
O13 Co0 2.244 . S
O13 C3 1.272 . S
O13 Co5 2.135 . S
Co14 O15 2.216 . S
Co14 O16 2.091 1_455 S
Co14 O18 2.004 1_455 S
Co14 O24 2.021 1_455 S
Co14 O26 2.137 . S
Co14 O27 2.244 . S
O15 Co14 2.216 . S
O15 C22 1.247 . S
O16 Co14 2.091 1_655 S
O16 C22 1.261 1_655 S
C17 O26 1.247 . S
C17 O27 1.272 . S
O18 Co14 2.004 1_655 S
O18 C23 1.259 . S
Co19 O20 2.061 1_455 S
Co19 O25 2.052 1_455 S
Co19 O27 2.135 . S
O20 Co19 2.061 1_655 S
O20 C23 1.235 . S
C21 O24 1.238 . S
C21 O25 1.241 . S
C22 O15 1.247 . S
C22 O16 1.261 1_455 S
C23 O18 1.259 . S
C23 O20 1.235 . S
O24 Co14 2.021 1_655 S
O24 C21 1.238 . S
O25 Co19 2.052 1_655 S
O25 C21 1.241 . S
O26 Co14 2.137 . S
O26 C17 1.247 . S
O27 Co14 2.244 . S
O27 C17 1.272 . S
O27 Co19 2.135 . S
Co28 O29 2.216 . S
Co28 O30 2.091 . S
Co28 O32 2.004 . S
Co28 O38 2.021 . S
Co28 O40 2.137 . S
Co28 O41 2.244 . S
O29 Co28 2.216 . S
O29 C36 1.247 . S
O30 Co28 2.091 . S
O30 C36 1.261 . S
C31 O40 1.247 . S
C31 O41 1.272 . S
O32 Co28 2.004 . S
O32 C37 1.259 . S
Co33 O34 2.061 . S
Co33 O39 2.052 . S
Co33 O41 2.135 . S
O34 Co33 2.061 . S
O34 C37 1.235 . S
C35 O38 1.238 . S
C35 O39 1.241 . S
C36 O29 1.247 . S
C36 O30 1.261 . S
C37 O32 1.259 . S
C37 O34 1.235 . S
O38 Co28 2.021 . S
O38 C35 1.238 . S
O39 Co33 2.052 . S
O39 C35 1.241 . S
O40 Co28 2.137 . S
O40 C31 1.247 . S
O41 Co28 2.244 . S
O41 C31 1.272 . S
O41 Co33 2.135 . S
Co42 O43 2.216 . S
Co42 O44 2.091 . S
Co42 O46 2.004 . S
Co42 O52 2.021 . S
Co42 O54 2.137 . S
Co42 O55 2.244 . S
O43 Co42 2.216 . S
O43 C50 1.247 . S
O44 Co42 2.091 . S
O44 C50 1.261 . S
C45 O54 1.247 . S
C45 O55 1.272 . S
O46 Co42 2.004 . S
O46 C51 1.259 . S
Co47 O48 2.061 . S
Co47 O53 2.052 . S
Co47 O55 2.135 . S
O48 Co47 2.061 . S
O48 C51 1.235 . S
C49 O52 1.238 . S
C49 O53 1.241 . S
C50 O43 1.247 . S
C50 O44 1.261 . S
C51 O46 1.259 . S
C51 O48 1.235 . S
O52 Co42 2.021 . S
O52 C49 1.238 . S
O53 Co47 2.052 . S
O53 C49 1.241 . S
O54 Co42 2.137 . S
O54 C45 1.247 . S
O55 Co42 2.244 . S
O55 C45 1.272 . S
O55 Co47 2.135 . S
Co56 O57 2.216 . S
Co56 O58 2.091 . S
Co56 O60 2.004 1_565 S
Co56 O66 2.021 1_565 S
Co56 O68 2.137 . S
Co56 O69 2.244 1_565 S
O57 Co56 2.216 . S
O57 C64 1.247 . S
O58 Co56 2.091 . S
O58 C64 1.261 . S
C59 O68 1.247 . S
C59 O69 1.272 1_565 S
O60 Co56 2.004 1_545 S
O60 C65 1.259 . S
Co61 O62 2.061 . S
Co61 O67 2.052 . S
Co61 O69 2.135 . S
O62 Co61 2.061 . S
O62 C65 1.235 . S
C63 O66 1.238 . S
C63 O67 1.241 . S
C64 O57 1.247 . S
C64 O58 1.261 . S
C65 O60 1.259 . S
C65 O62 1.235 . S
O66 Co56 2.021 1_545 S
O66 C63 1.238 . S
O67 Co61 2.052 . S
O67 C63 1.241 . S
O68 Co56 2.137 . S
O68 C59 1.247 . S
O69 Co56 2.244 1_545 S
O69 C59 1.272 1_545 S
O69 Co61 2.135 . S
Co70 O71 2.216 . S
Co70 O72 2.091 . S
Co70 O74 2.004 . S
Co70 O80 2.021 . S
Co70 O82 2.137 . S
Co70 O83 2.244 . S
O71 Co70 2.216 . S
O71 C78 1.247 . S
O72 Co70 2.091 . S
O72 C78 1.261 . S
C73 O82 1.247 . S
C73 O83 1.272 . S
O74 Co70 2.004 . S
O74 C79 1.259 . S
Co75 O76 2.061 . S
Co75 O81 2.052 . S
Co75 O83 2.135 . S
O76 Co75 2.061 . S
O76 C79 1.235 . S
C77 O80 1.238 . S
C77 O81 1.241 . S
C78 O71 1.247 . S
C78 O72 1.261 . S
C79 O74 1.259 . S
C79 O76 1.235 . S
O80 Co70 2.021 . S
O80 C77 1.238 . S
O81 Co75 2.052 . S
O81 C77 1.241 . S
O82 Co70 2.137 . S
O82 C73 1.247 . S
O83 Co70 2.244 . S
O83 C73 1.272 . S
O83 Co75 2.135 . S
Co84 O85 2.216 . S
Co84 O86 2.091 . S
Co84 O88 2.004 . S
Co84 O94 2.021 1_545 S
Co84 O96 2.137 . S
Co84 O97 2.244 . S
O85 Co84 2.216 . S
O85 C92 1.247 . S
O86 Co84 2.091 . S
O86 C92 1.261 . S
C87 O96 1.247 . S
C87 O97 1.272 . S
O88 Co84 2.004 . S
O88 C93 1.259 1_545 S
Co89 O90 2.061 . S
Co89 O95 2.052 . S
Co89 O97 2.135 1_565 S
O90 Co89 2.061 . S
O90 C93 1.235 . S
C91 O94 1.238 . S
C91 O95 1.241 . S
C92 O85 1.247 . S
C92 O86 1.261 . S
C93 O88 1.259 1_565 S
C93 O90 1.235 . S
O94 Co84 2.021 1_565 S
O94 C91 1.238 . S
O95 Co89 2.052 . S
O95 C91 1.241 . S
O96 Co84 2.137 . S
O96 C87 1.247 . S
O97 Co84 2.244 . S
O97 C87 1.272 . S
O97 Co89 2.135 1_545 S
Co98 O99 2.216 . S
Co98 O100 2.091 1_554 S
Co98 O102 2.004 1_554 S
Co98 O108 2.021 1_554 S
Co98 O110 2.137 . S
Co98 O111 2.244 . S
O99 Co98 2.216 . S
O99 C106 1.247 . S
O100 Co98 2.091 1_556 S
O100 C106 1.261 1_556 S
C101 O110 1.247 . S
C101 O111 1.272 . S
O102 Co98 2.004 1_556 S
O102 C107 1.259 . S
Co103 O104 2.061 1_554 S
Co103 O109 2.052 1_554 S
Co103 O111 2.135 . S
O104 Co103 2.061 1_556 S
O104 C107 1.235 . S
C105 O108 1.238 . S
C105 O109 1.241 . S
C106 O99 1.247 . S
C106 O100 1.261 1_554 S
C107 O102 1.259 . S
C107 O104 1.235 . S
O108 Co98 2.021 1_556 S
O108 C105 1.238 . S
O109 Co103 2.052 1_556 S
O109 C105 1.241 . S
O110 Co98 2.137 . S
O110 C101 1.247 . S
O111 Co98 2.244 . S
O111 C101 1.272 . S
O111 Co103 2.135 . S
Co112 O113 2.216 . S
Co112 O114 2.091 . S
Co112 O116 2.004 1_554 S
Co112 O122 2.021 1_554 S
Co112 O124 2.137 . S
Co112 O125 2.244 . S
O113 Co112 2.216 . S
O113 C120 1.247 . S
O114 Co112 2.091 . S
O114 C120 1.261 . S
C115 O124 1.247 . S
C115 O125 1.272 . S
O116 Co112 2.004 1_556 S
O116 C121 1.259 . S
Co117 O118 2.061 1_554 S
Co117 O123 2.053 . S
Co117 O125 2.135 . S
O118 Co117 2.061 1_556 S
O118 C121 1.235 . S
C119 O122 1.238 . S
C119 O123 1.239 1_556 S
C120 O113 1.247 . S
C120 O114 1.261 . S
C121 O116 1.259 . S
C121 O118 1.235 . S
O122 Co112 2.021 1_556 S
O122 C119 1.238 . S
O123 Co117 2.053 . S
O123 C119 1.239 1_554 S
O124 Co112 2.137 . S
O124 C115 1.247 . S
O125 Co112 2.244 . S
O125 C115 1.272 . S
O125 Co117 2.135 . S
Co126 O127 2.216 . S
Co126 O128 2.091 . S
Co126 O130 2.004 . S
Co126 O136 2.021 . S
Co126 O138 2.137 . S
Co126 O139 2.244 . S
O127 Co126 2.216 . S
O127 C134 1.247 . S
O128 Co126 2.091 . S
O128 C134 1.261 . S
C129 O138 1.247 . S
C129 O139 1.272 . S
O130 Co126 2.004 . S
O130 C135 1.259 . S
Co131 O132 2.061 . S
Co131 O137 2.052 . S
Co131 O139 2.135 . S
O132 Co131 2.061 . S
O132 C135 1.235 . S
C133 O136 1.238 . S
C133 O137 1.241 . S
C134 O127 1.247 . S
C134 O128 1.261 . S
C135 O130 1.259 . S
C135 O132 1.235 . S
O136 Co126 2.021 . S
O136 C133 1.238 . S
O137 Co131 2.052 . S
O137 C133 1.241 . S
O138 Co126 2.137 . S
O138 C129 1.247 . S
O139 Co126 2.244 . S
O139 C129 1.272 . S
O139 Co131 2.135 . S
Co140 O141 2.216 . S
Co140 O142 2.091 . S
Co140 O144 2.004 . S
Co140 O150 2.021 . S
Co140 O152 2.137 . S
Co140 O153 2.244 . S
O141 Co140 2.216 . S
O141 C148 1.247 . S
O142 Co140 2.091 . S
O142 C148 1.261 . S
C143 O152 1.247 . S
C143 O153 1.272 . S
O144 Co140 2.004 . S
O144 C149 1.259 . S
Co145 O146 2.061 . S
Co145 O151 2.052 . S
Co145 O153 2.135 . S
O146 Co145 2.061 . S
O146 C149 1.235 . S
C147 O150 1.238 . S
C147 O151 1.241 . S
C148 O141 1.247 . S
C148 O142 1.261 . S
C149 O144 1.259 . S
C149 O146 1.235 . S
O150 Co140 2.021 . S
O150 C147 1.238 . S
O151 Co145 2.052 . S
O151 C147 1.241 . S
O152 Co140 2.137 . S
O152 C143 1.247 . S
O153 Co140 2.244 . S
O153 C143 1.272 . S
O153 Co145 2.135 . S
Co154 O155 2.216 . S
Co154 O156 2.091 . S
Co154 O158 2.004 . S
Co154 O164 2.021 . S
Co154 O166 2.137 . S
Co154 O167 2.244 . S
O155 Co154 2.216 . S
O155 C162 1.247 . S
O156 Co154 2.091 . S
O156 C162 1.261 . S
C157 O166 1.247 . S
C157 O167 1.272 . S
O158 Co154 2.004 . S
O158 C163 1.259 . S
Co159 O160 2.061 . S
Co159 O165 2.052 . S
Co159 O167 2.135 . S
O160 Co159 2.061 . S
O160 C163 1.235 . S
C161 O164 1.238 . S
C161 O165 1.241 . S
C162 O155 1.247 . S
C162 O156 1.261 . S
C163 O158 1.259 . S
C163 O160 1.235 . S
O164 Co154 2.021 . S
O164 C161 1.238 . S
O165 Co159 2.052 . S
O165 C161 1.241 . S
O166 Co154 2.137 . S
O166 C157 1.247 . S
O167 Co154 2.244 . S
O167 C157 1.272 . S
O167 Co159 2.135 . S
H168 C174 0.930 . S
H169 C177 0.931 . S
H170 C179 0.931 . S
H171 C181 0.930 . S
H172 C183 0.930 . S
H173 C185 0.931 . S
C174 H168 0.930 . S
C174 C175 1.380 . S
C174 C176 1.394 . S
C175 C174 1.380 . S
C175 C179 1.382 . S
C176 C174 1.394 . S
C176 C177 1.400 . S
C177 H169 0.931 . S
C177 C176 1.400 . S
C177 C178 1.375 . S
C178 C177 1.375 . S
C178 C179 1.415 . S
C178 C180 1.501 1_655 S
C179 H170 0.931 . S
C179 C175 1.382 . S
C179 C178 1.415 . S
C180 C178 1.501 1_455 S
C180 C181 1.384 . S
C180 C185 1.408 . S
C181 H171 0.930 . S
C181 C180 1.384 . S
C181 C182 1.389 . S
C182 C181 1.389 . S
C182 C183 1.405 . S
C183 H172 0.930 . S
C183 C182 1.405 . S
C183 C184 1.364 . S
C184 C183 1.364 . S
C184 C185 1.400 . S
C185 H173 0.931 . S
C185 C180 1.408 . S
C185 C184 1.400 . S
H186 C192 0.930 . S
H187 C195 0.931 . S
H188 C197 0.931 . S
H189 C199 0.930 . S
H190 C201 0.930 . S
H191 C203 0.931 . S
C192 H186 0.930 . S
C192 C193 1.380 . S
C192 C194 1.394 . S
C193 C192 1.380 . S
C193 C197 1.382 . S
C194 C192 1.394 . S
C194 C195 1.400 . S
C195 H187 0.931 . S
C195 C194 1.400 . S
C195 C196 1.375 . S
C196 C195 1.375 . S
C196 C197 1.415 . S
C196 C198 1.501 1_655 S
C197 H188 0.931 . S
C197 C193 1.382 . S
C197 C196 1.415 . S
C198 C196 1.501 1_455 S
C198 C199 1.384 . S
C198 C203 1.408 . S
C199 H189 0.930 . S
C199 C198 1.384 . S
C199 C200 1.389 . S
C200 C199 1.389 . S
C200 C201 1.405 . S
C201 H190 0.930 . S
C201 C200 1.405 . S
C201 C202 1.364 . S
C202 C201 1.364 . S
C202 C203 1.400 . S
C203 H191 0.931 . S
C203 C198 1.408 . S
C203 C202 1.400 . S
H204 C210 0.930 . S
H205 C213 0.931 . S
H206 C215 0.931 . S
H207 C217 0.930 . S
H208 C219 0.930 . S
H209 C221 0.931 . S
C210 H204 0.930 . S
C210 C211 1.380 . S
C210 C212 1.394 . S
C211 C210 1.380 . S
C211 C215 1.382 . S
C212 C210 1.394 . S
C212 C213 1.400 . S
C213 H205 0.931 . S
C213 C212 1.400 . S
C213 C214 1.375 . S
C214 C213 1.375 . S
C214 C215 1.415 . S
C214 C216 1.501 . S
C215 H206 0.931 . S
C215 C211 1.382 . S
C215 C214 1.415 . S
C216 C214 1.501 . S
C216 C217 1.384 . S
C216 C221 1.408 . S
C217 H207 0.930 . S
C217 C216 1.384 . S
C217 C218 1.389 . S
C218 C217 1.389 . S
C218 C219 1.405 . S
C219 H208 0.930 . S
C219 C218 1.405 . S
C219 C220 1.364 . S
C220 C219 1.364 . S
C220 C221 1.400 . S
C221 H209 0.931 . S
C221 C216 1.408 . S
C221 C220 1.400 . S
H222 C228 0.930 . S
H223 C231 0.931 . S
H224 C233 0.931 . S
H225 C235 0.930 . S
H226 C237 0.930 . S
H227 C239 0.931 . S
C228 H222 0.930 . S
C228 C229 1.380 . S
C228 C230 1.394 . S
C229 C228 1.380 . S
C229 C233 1.382 . S
C230 C228 1.394 . S
C230 C231 1.400 . S
C231 H223 0.931 . S
C231 C230 1.400 . S
C231 C232 1.375 . S
C232 C231 1.375 . S
C232 C233 1.415 . S
C232 C234 1.501 . S
C233 H224 0.931 . S
C233 C229 1.382 . S
C233 C232 1.415 . S
C234 C232 1.501 . S
C234 C235 1.384 . S
C234 C239 1.408 . S
C235 H225 0.930 . S
C235 C234 1.384 . S
C235 C236 1.389 . S
C236 C235 1.389 . S
C236 C237 1.405 . S
C237 H226 0.930 . S
C237 C236 1.405 . S
C237 C238 1.364 . S
C238 C237 1.364 . S
C238 C239 1.400 . S
C239 H227 0.931 . S
C239 C234 1.408 . S
C239 C238 1.400 . S
H240 C246 0.930 . S
H241 C249 0.931 . S
H242 C251 0.931 1_545 S
H243 C253 0.930 . S
H244 C255 0.930 . S
H245 C257 0.931 . S
C246 H240 0.930 . S
C246 C247 1.380 . S
C246 C248 1.394 . S
C247 C246 1.380 . S
C247 C251 1.382 . S
C248 C246 1.394 . S
C248 C249 1.400 . S
C249 H241 0.931 . S
C249 C248 1.400 . S
C249 C250 1.375 1_565 S
C250 C249 1.375 1_545 S
C250 C251 1.415 1_545 S
C250 C252 1.501 . S
C251 H242 0.931 1_565 S
C251 C247 1.382 . S
C251 C250 1.415 1_565 S
C252 C250 1.501 . S
C252 C253 1.384 . S
C252 C257 1.408 . S
C253 H243 0.930 . S
C253 C252 1.384 . S
C253 C254 1.389 . S
C254 C253 1.389 . S
C254 C255 1.405 . S
C255 H244 0.930 . S
C255 C254 1.405 . S
C255 C256 1.364 . S
C256 C255 1.364 . S
C256 C257 1.400 . S
C257 H245 0.931 . S
C257 C252 1.408 . S
C257 C256 1.400 . S
H258 C264 0.930 . S
H259 C267 0.931 . S
H260 C269 0.931 . S
H261 C271 0.930 . S
H262 C273 0.930 . S
H263 C275 0.931 . S
C264 H258 0.930 . S
C264 C265 1.380 . S
C264 C266 1.394 . S
C265 C264 1.380 . S
C265 C269 1.382 . S
C266 C264 1.394 . S
C266 C267 1.400 . S
C267 H259 0.931 . S
C267 C266 1.400 . S
C267 C268 1.375 . S
C268 C267 1.375 . S
C268 C269 1.415 . S
C268 C270 1.501 . S
C269 H260 0.931 . S
C269 C265 1.382 . S
C269 C268 1.415 . S
C270 C268 1.501 . S
C270 C271 1.384 . S
C270 C275 1.408 . S
C271 H261 0.930 . S
C271 C270 1.384 . S
C271 C272 1.389 . S
C272 C271 1.389 . S
C272 C273 1.405 . S
C273 H262 0.930 . S
C273 C272 1.405 . S
C273 C274 1.364 . S
C274 C273 1.364 . S
C274 C275 1.400 . S
C275 H263 0.931 . S
C275 C270 1.408 . S
C275 C274 1.400 . S
H276 C282 0.930 . S
H277 C285 0.931 . S
H278 C287 0.931 . S
H279 C289 0.930 . S
H280 C291 0.930 . S
H281 C293 0.931 . S
C282 H276 0.930 . S
C282 C283 1.380 . S
C282 C284 1.394 . S
C283 C282 1.380 . S
C283 C287 1.382 . S
C284 C282 1.394 . S
C284 C285 1.400 . S
C285 H277 0.931 . S
C285 C284 1.400 . S
C285 C286 1.375 . S
C286 C285 1.375 . S
C286 C287 1.415 . S
C286 C288 1.501 1_545 S
C287 H278 0.931 . S
C287 C283 1.382 . S
C287 C286 1.415 . S
C288 C286 1.501 1_565 S
C288 C289 1.384 . S
C288 C293 1.408 . S
C289 H279 0.930 . S
C289 C288 1.384 . S
C289 C290 1.389 . S
C290 C289 1.389 . S
C290 C291 1.405 . S
C291 H280 0.930 . S
C291 C290 1.405 . S
C291 C292 1.364 . S
C292 C291 1.364 . S
C292 C293 1.400 . S
C293 H281 0.931 . S
C293 C288 1.408 . S
C293 C292 1.400 . S
H294 C300 0.930 . S
H295 C303 0.931 . S
H296 C305 0.928 1_554 S
H297 C307 0.930 . S
H298 C309 0.930 . S
H299 C311 0.931 . S
C300 H294 0.930 . S
C300 C301 1.380 . S
C300 C302 1.394 . S
C301 C300 1.380 . S
C301 C305 1.382 . S
C302 C300 1.394 . S
C302 C303 1.400 1_556 S
C303 H295 0.931 . S
C303 C302 1.400 1_554 S
C303 C304 1.375 . S
C304 C303 1.375 . S
C304 C305 1.415 1_554 S
C304 C306 1.501 . S
C305 H296 0.928 1_556 S
C305 C301 1.382 . S
C305 C304 1.415 1_556 S
C306 C304 1.501 . S
C306 C307 1.384 . S
C306 C311 1.408 . S
C307 H297 0.930 . S
C307 C306 1.384 . S
C307 C308 1.389 . S
C308 C307 1.389 . S
C308 C309 1.405 . S
C309 H298 0.930 . S
C309 C308 1.405 . S
C309 C310 1.364 . S
C310 C309 1.364 . S
C310 C311 1.400 . S
C311 H299 0.931 . S
C311 C306 1.408 . S
C311 C310 1.400 . S
H312 C318 0.930 . S
H313 C321 0.931 1_554 S
H314 C323 0.931 . S
H315 C325 0.930 . S
H316 C327 0.930 . S
H317 C329 0.931 . S
C318 H312 0.930 . S
C318 C319 1.380 . S
C318 C320 1.394 . S
C319 C318 1.380 . S
C319 C323 1.382 . S
C320 C318 1.394 . S
C320 C321 1.400 . S
C321 H313 0.931 1_556 S
C321 C320 1.400 . S
C321 C322 1.375 1_556 S
C322 C321 1.375 1_554 S
C322 C323 1.415 1_554 S
C322 C324 1.501 . S
C323 H314 0.931 . S
C323 C319 1.382 . S
C323 C322 1.415 1_556 S
C324 C322 1.501 . S
C324 C325 1.384 . S
C324 C329 1.408 . S
C325 H315 0.930 . S
C325 C324 1.384 . S
C325 C326 1.389 . S
C326 C325 1.389 . S
C326 C327 1.405 . S
C327 H316 0.930 . S
C327 C326 1.405 . S
C327 C328 1.364 . S
C328 C327 1.364 . S
C328 C329 1.400 . S
C329 H317 0.931 . S
C329 C324 1.408 . S
C329 C328 1.400 . S
H330 C336 0.930 . S
H331 C339 0.931 . S
H332 C341 0.931 . S
H333 C343 0.930 . S
H334 C345 0.930 . S
H335 C347 0.931 . S
C336 H330 0.930 . S
C336 C337 1.380 . S
C336 C338 1.394 . S
C337 C336 1.380 . S
C337 C341 1.382 . S
C338 C336 1.394 . S
C338 C339 1.400 . S
C339 H331 0.931 . S
C339 C338 1.400 . S
C339 C340 1.375 . S
C340 C339 1.375 . S
C340 C341 1.415 . S
C340 C342 1.501 . S
C341 H332 0.931 . S
C341 C337 1.382 . S
C341 C340 1.415 . S
C342 C340 1.501 . S
C342 C343 1.384 . S
C342 C347 1.408 . S
C343 H333 0.930 . S
C343 C342 1.384 . S
C343 C344 1.389 . S
C344 C343 1.389 . S
C344 C345 1.405 . S
C345 H334 0.930 . S
C345 C344 1.405 . S
C345 C346 1.364 . S
C346 C345 1.364 . S
C346 C347 1.400 . S
C347 H335 0.931 . S
C347 C342 1.408 . S
C347 C346 1.400 . S
H348 C354 0.930 . S
H349 C357 0.931 . S
H350 C359 0.931 . S
H351 C361 0.930 . S
H352 C363 0.930 . S
H353 C365 0.931 . S
C354 H348 0.930 . S
C354 C355 1.380 . S
C354 C356 1.394 . S
C355 C354 1.380 . S
C355 C359 1.382 . S
C356 C354 1.394 . S
C356 C357 1.400 . S
C357 H349 0.931 . S
C357 C356 1.400 . S
C357 C358 1.375 . S
C358 C357 1.375 . S
C358 C359 1.415 . S
C358 C360 1.501 . S
C359 H350 0.931 . S
C359 C355 1.382 . S
C359 C358 1.415 . S
C360 C358 1.501 . S
C360 C361 1.384 . S
C360 C365 1.408 . S
C361 H351 0.930 . S
C361 C360 1.384 . S
C361 C362 1.389 . S
C362 C361 1.389 . S
C362 C363 1.405 . S
C363 H352 0.930 . S
C363 C362 1.405 . S
C363 C364 1.364 . S
C364 C363 1.364 . S
C364 C365 1.400 . S
C365 H353 0.931 . S
C365 C360 1.408 . S
C365 C364 1.400 . S
H366 C372 0.930 . S
H367 C375 0.931 . S
H368 C377 0.931 . S
H369 C379 0.930 . S
H370 C381 0.930 . S
H371 C383 0.931 . S
C372 H366 0.930 . S
C372 C373 1.380 . S
C372 C374 1.394 . S
C373 C372 1.380 . S
C373 C377 1.382 . S
C374 C372 1.394 . S
C374 C375 1.400 . S
C375 H367 0.931 . S
C375 C374 1.400 . S
C375 C376 1.375 . S
C376 C375 1.375 . S
C376 C377 1.415 . S
C376 C378 1.501 . S
C377 H368 0.931 . S
C377 C373 1.382 . S
C377 C376 1.415 . S
C378 C376 1.501 . S
C378 C379 1.384 . S
C378 C383 1.408 . S
C379 H369 0.930 . S
C379 C378 1.384 . S
C379 C380 1.389 . S
C380 C379 1.389 . S
C380 C381 1.405 . S
C381 H370 0.930 . S
C381 C380 1.405 . S
C381 C382 1.364 . S
C382 C381 1.364 . S
C382 C383 1.400 . S
C383 H371 0.931 . S
C383 C378 1.408 . S
C383 C382 1.400 . S
C384 C385 1.363 . S
C384 C390 1.379 1_554 S
C384 N392 1.356 . S
C385 C384 1.363 . S
C385 C391 1.363 1_554 S
C386 C387 1.363 . S
C386 C391 1.379 . S
C386 N393 1.356 . S
C387 C386 1.363 . S
C387 C390 1.363 . S
N388 C390 1.356 . S
N388 H400 0.984 . S
N388 H401 0.985 . S
N389 C391 1.356 1_654 S
N389 H394 0.984 . S
N389 H395 0.985 . S
C390 C384 1.379 1_556 S
C390 C387 1.363 . S
C390 N388 1.356 . S
C391 C385 1.363 1_556 S
C391 C386 1.379 . S
C391 N389 1.356 1_456 S
N392 C384 1.356 . S
N392 H398 0.984 . S
N392 H399 0.984 . S
N393 C386 1.356 . S
N393 H396 0.984 . S
N393 H397 0.985 . S
H394 N389 0.984 . S
H395 N389 0.985 . S
H396 N393 0.984 . S
H397 N393 0.985 . S
H398 N392 0.984 . S
H399 N392 0.984 . S
H400 N388 0.984 . S
H401 N388 0.985 . S
C402 C403 1.363 . S
C402 C408 1.379 . S
C402 N410 1.356 . S
C403 C402 1.363 . S
C403 C409 1.363 . S
C404 C405 1.363 . S
C404 C409 1.379 . S
C404 N411 1.356 . S
C405 C404 1.363 . S
C405 C408 1.363 . S
N406 C408 1.356 . S
N406 H418 0.984 . S
N406 H419 0.985 . S
N407 C409 1.356 . S
N407 H412 0.984 . S
N407 H413 0.985 . S
C408 C402 1.379 . S
C408 C405 1.363 . S
C408 N406 1.356 . S
C409 C403 1.363 . S
C409 C404 1.379 . S
C409 N407 1.356 . S
N410 C402 1.356 . S
N410 H416 0.984 . S
N410 H417 0.984 . S
N411 C404 1.356 . S
N411 H414 0.984 . S
N411 H415 0.985 . S
H412 N407 0.984 . S
H413 N407 0.985 . S
H414 N411 0.984 . S
H415 N411 0.985 . S
H416 N410 0.984 . S
H417 N410 0.984 . S
H418 N406 0.984 . S
H419 N406 0.985 . S
C420 C421 1.363 . S
C420 C426 1.379 . S
C420 N428 1.356 . S
C421 C420 1.363 . S
C421 C427 1.363 . S
C422 C423 1.363 . S
C422 C427 1.379 . S
C422 N429 1.356 . S
C423 C422 1.363 . S
C423 C426 1.363 . S
N424 C426 1.356 . S
N424 H436 0.984 . S
N424 H437 0.985 . S
N425 C427 1.356 . S
N425 H430 0.984 . S
N425 H431 0.985 . S
C426 C420 1.379 . S
C426 C423 1.363 . S
C426 N424 1.356 . S
C427 C421 1.363 . S
C427 C422 1.379 . S
C427 N425 1.356 . S
N428 C420 1.356 . S
N428 H434 0.984 . S
N428 H435 0.984 . S
N429 C422 1.356 . S
N429 H432 0.984 . S
N429 H433 0.985 . S
H430 N425 0.984 . S
H431 N425 0.985 . S
H432 N429 0.984 . S
H433 N429 0.985 . S
H434 N428 0.984 . S
H435 N428 0.984 . S
H436 N424 0.984 . S
H437 N424 0.985 . S
C438 C439 1.363 . S
C438 C444 1.379 . S
C438 N446 1.356 . S
C439 C438 1.363 . S
C439 C445 1.363 . S
C440 C441 1.363 . S
C440 C445 1.379 . S
C440 N447 1.356 . S
C441 C440 1.363 . S
C441 C444 1.363 . S
N442 C444 1.356 . S
N442 H454 0.984 . S
N442 H455 0.985 . S
N443 C445 1.356 . S
N443 H448 0.984 . S
N443 H449 0.985 . S
C444 C438 1.379 . S
C444 C441 1.363 . S
C444 N442 1.356 . S
C445 C439 1.363 . S
C445 C440 1.379 . S
C445 N443 1.356 . S
N446 C438 1.356 . S
N446 H452 0.984 . S
N446 H453 0.984 . S
N447 C440 1.356 . S
N447 H450 0.984 . S
N447 H451 0.985 . S
H448 N443 0.984 . S
H449 N443 0.985 . S
H450 N447 0.984 . S
H451 N447 0.985 . S
H452 N446 0.984 . S
H453 N446 0.984 . S
H454 N442 0.984 . S
H455 N442 0.985 . S
C456 C457 1.363 . S
C456 C462 1.379 . S
C456 N464 1.356 . S
C457 C456 1.363 . S
C457 C463 1.363 . S
C458 C459 1.363 . S
C458 C463 1.379 . S
C458 N465 1.356 . S
C459 C458 1.363 . S
C459 C462 1.363 . S
N460 C462 1.356 . S
N460 H472 0.984 . S
N460 H473 0.985 . S
N461 C463 1.356 . S
N461 H466 0.984 . S
N461 H467 0.985 . S
C462 C456 1.379 . S
C462 C459 1.363 . S
C462 N460 1.356 . S
C463 C457 1.363 . S
C463 C458 1.379 . S
C463 N461 1.356 . S
N464 C456 1.356 . S
N464 H470 0.984 . S
N464 H471 0.984 . S
N465 C458 1.356 . S
N465 H468 0.984 . S
N465 H469 0.985 . S
H466 N461 0.984 . S
H467 N461 0.985 . S
H468 N465 0.984 . S
H469 N465 0.985 . S
H470 N464 0.984 . S
H471 N464 0.984 . S
H472 N460 0.984 . S
H473 N460 0.985 . S
C474 C475 1.363 . S
C474 C480 1.379 . S
C474 N482 1.356 . S
C475 C474 1.363 . S
C475 C481 1.363 . S
C476 C477 1.363 . S
C476 C481 1.379 . S
C476 N483 1.356 . S
C477 C476 1.363 . S
C477 C480 1.363 . S
N478 C480 1.356 . S
N478 H490 0.984 . S
N478 H491 0.985 . S
N479 C481 1.356 . S
N479 H484 0.984 . S
N479 H485 0.985 . S
C480 C474 1.379 . S
C480 C477 1.363 . S
C480 N478 1.356 . S
C481 C475 1.363 . S
C481 C476 1.379 . S
C481 N479 1.356 . S
N482 C474 1.356 . S
N482 H488 0.984 . S
N482 H489 0.984 . S
N483 C476 1.356 . S
N483 H486 0.984 . S
N483 H487 0.985 . S
H484 N479 0.984 . S
H485 N479 0.985 . S
H486 N483 0.984 . S
H487 N483 0.985 . S
H488 N482 0.984 . S
H489 N482 0.984 . S
H490 N478 0.984 . S
H491 N478 0.985 . S
C492 C493 1.363 . S
C492 C498 1.379 . S
C492 N500 1.356 . S
C493 C492 1.363 . S
C493 C499 1.363 . S
C494 C495 1.363 . S
C494 C499 1.379 . S
C494 N501 1.356 . S
C495 C494 1.363 . S
C495 C498 1.363 . S
N496 C498 1.356 . S
N496 H508 0.984 . S
N496 H509 0.985 . S
N497 C499 1.356 . S
N497 H502 0.984 1_554 S
N497 H503 0.985 . S
C498 C492 1.379 . S
C498 C495 1.363 . S
C498 N496 1.356 . S
C499 C493 1.363 . S
C499 C494 1.379 . S
C499 N497 1.356 . S
N500 C492 1.356 . S
N500 H506 0.984 . S
N500 H507 0.984 1_554 S
N501 C494 1.356 . S
N501 H504 0.984 . S
N501 H505 0.985 . S
H502 N497 0.984 1_556 S
H503 N497 0.985 . S
H504 N501 0.984 . S
H505 N501 0.985 . S
H506 N500 0.984 . S
H507 N500 0.984 1_556 S
H508 N496 0.984 . S
H509 N496 0.985 . S
C510 C511 1.363 . S
C510 C516 1.379 . S
C510 N518 1.356 . S
C511 C510 1.363 . S
C511 C517 1.363 . S
C512 C513 1.363 . S
C512 C517 1.379 . S
C512 N519 1.356 . S
C513 C512 1.363 . S
C513 C516 1.363 . S
N514 C516 1.356 . S
N514 H526 0.984 . S
N514 H527 0.985 . S
N515 C517 1.356 . S
N515 H520 0.984 . S
N515 H521 0.985 . S
C516 C510 1.379 . S
C516 C513 1.363 . S
C516 N514 1.356 . S
C517 C511 1.363 . S
C517 C512 1.379 . S
C517 N515 1.356 . S
N518 C510 1.356 . S
N518 H524 0.984 . S
N518 H525 0.984 . S
N519 C512 1.356 . S
N519 H522 0.984 . S
N519 H523 0.985 . S
H520 N515 0.984 . S
H521 N515 0.985 . S
H522 N519 0.984 . S
H523 N519 0.985 . S
H524 N518 0.984 . S
H525 N518 0.984 . S
H526 N514 0.984 . S
H527 N514 0.985 . S
C528 C529 1.363 1_655 S
C528 C534 1.379 . S
C528 N536 1.356 1_545 S
C529 C528 1.363 1_455 S
C529 C535 1.363 1_455 S
C530 C531 1.363 . S
C530 C535 1.379 . S
C530 N537 1.356 . S
C531 C530 1.363 . S
C531 C534 1.363 . S
N532 C534 1.356 . S
N532 H544 0.984 1_545 S
N532 H545 0.985 . S
N533 C535 1.356 1_455 S
N533 H538 0.984 . S
N533 H539 0.985 . S
C534 C528 1.379 . S
C534 C531 1.363 . S
C534 N532 1.356 . S
C535 C529 1.363 1_655 S
C535 C530 1.379 . S
C535 N533 1.356 1_655 S
N536 C528 1.356 1_565 S
N536 H542 0.984 . S
N536 H543 0.984 1_655 S
N537 C530 1.356 . S
N537 H540 0.984 . S
N537 H541 0.985 . S
H538 N533 0.984 . S
H539 N533 0.985 . S
H540 N537 0.984 . S
H541 N537 0.985 . S
H542 N536 0.984 . S
H543 N536 0.984 1_455 S
H544 N532 0.984 1_565 S
H545 N532 0.985 . S
C546 C547 1.363 . S
C546 C552 1.379 . S
C546 N554 1.356 . S
C547 C546 1.363 . S
C547 C553 1.363 . S
C548 C549 1.363 . S
C548 C553 1.379 . S
C548 N555 1.356 . S
C549 C548 1.363 . S
C549 C552 1.363 . S
N550 C552 1.356 . S
N550 H562 0.984 . S
N550 H563 0.985 . S
N551 C553 1.356 . S
N551 H556 0.984 . S
N551 H557 0.985 . S
C552 C546 1.379 . S
C552 C549 1.363 . S
C552 N550 1.356 . S
C553 C547 1.363 . S
C553 C548 1.379 . S
C553 N551 1.356 . S
N554 C546 1.356 . S
N554 H560 0.984 . S
N554 H561 0.984 . S
N555 C548 1.356 . S
N555 H558 0.984 . S
N555 H559 0.985 . S
H556 N551 0.984 . S
H557 N551 0.985 . S
H558 N555 0.984 . S
H559 N555 0.985 . S
H560 N554 0.984 . S
H561 N554 0.984 . S
H562 N550 0.984 . S
H563 N550 0.985 . S
C564 C565 1.363 . S
C564 C570 1.379 . S
C564 N572 1.356 . S
C565 C564 1.363 . S
C565 C571 1.363 1_565 S
C566 C567 1.363 . S
C566 C571 1.379 1_565 S
C566 N573 1.356 1_565 S
C567 C566 1.363 . S
C567 C570 1.363 . S
N568 C570 1.356 . S
N568 H580 0.984 . S
N568 H581 0.985 . S
N569 C571 1.356 . S
N569 H574 0.984 . S
N569 H575 0.985 . S
C570 C564 1.379 . S
C570 C567 1.363 . S
C570 N568 1.356 . S
C571 C565 1.363 1_545 S
C571 C566 1.379 1_545 S
C571 N569 1.356 . S
N572 C564 1.356 . S
N572 H578 0.984 . S
N572 H579 0.984 . S
N573 C566 1.356 1_545 S
N573 H576 0.984 1_545 S
N573 H577 0.985 . S
H574 N569 0.984 . S
H575 N569 0.985 . S
H576 N573 0.984 1_565 S
H577 N573 0.985 . S
H578 N572 0.984 . S
H579 N572 0.984 . S
H580 N568 0.984 . S
H581 N568 0.985 . S
C582 C583 1.363 . S
C582 C588 1.379 . S
C582 N590 1.356 . S
C583 C582 1.363 . S
C583 C589 1.363 . S
C584 C585 1.363 . S
C584 C589 1.379 . S
C584 N591 1.356 . S
C585 C584 1.363 . S
C585 C588 1.363 . S
N586 C588 1.356 . S
N586 H598 0.984 . S
N586 H599 0.985 . S
N587 C589 1.356 . S
N587 H592 0.984 . S
N587 H593 0.985 . S
C588 C582 1.379 . S
C588 C585 1.363 . S
C588 N586 1.356 . S
C589 C583 1.363 . S
C589 C584 1.379 . S
C589 N587 1.356 . S
N590 C582 1.356 . S
N590 H596 0.984 . S
N590 H597 0.984 . S
N591 C584 1.356 . S
N591 H594 0.984 . S
N591 H595 0.985 . S
H592 N587 0.984 . S
H593 N587 0.985 . S
H594 N591 0.984 . S
H595 N591 0.985 . S
H596 N590 0.984 . S
H597 N590 0.984 . S
H598 N586 0.984 . S
H599 N586 0.985 . S
C600 C601 1.363 1_655 S
C600 C606 1.379 . S
C600 N608 1.356 1_655 S
C601 C600 1.363 1_455 S
C601 C607 1.363 1_455 S
C602 C603 1.363 . S
C602 C607 1.379 . S
C602 N609 1.356 . S
C603 C602 1.363 . S
C603 C606 1.363 . S
N604 C606 1.356 . S
N604 H616 0.984 . S
N604 H617 0.985 . S
N605 C607 1.356 1_545 S
N605 H610 0.984 1_655 S
N605 H611 0.985 . S
C606 C600 1.379 . S
C606 C603 1.363 . S
C606 N604 1.356 . S
C607 C601 1.363 1_655 S
C607 C602 1.379 . S
C607 N605 1.356 1_565 S
N608 C600 1.356 1_455 S
N608 H614 0.984 . S
N608 H615 0.984 . S
N609 C602 1.356 . S
N609 H612 0.984 . S
N609 H613 0.985 1_565 S
H610 N605 0.984 1_455 S
H611 N605 0.985 . S
H612 N609 0.984 . S
H613 N609 0.985 1_545 S
H614 N608 0.984 . S
H615 N608 0.984 . S
H616 N604 0.984 . S
H617 N604 0.985 . S
C618 C619 1.363 . S
C618 C624 1.379 . S
C618 N626 1.356 . S
C619 C618 1.363 . S
C619 C625 1.363 . S
C620 C621 1.363 . S
C620 C625 1.379 . S
C620 N627 1.356 . S
C621 C620 1.363 . S
C621 C624 1.363 . S
N622 C624 1.356 . S
N622 H634 0.984 . S
N622 H635 0.985 . S
N623 C625 1.356 . S
N623 H628 0.984 . S
N623 H629 0.985 . S
C624 C618 1.379 . S
C624 C621 1.363 . S
C624 N622 1.356 . S
C625 C619 1.363 . S
C625 C620 1.379 . S
C625 N623 1.356 . S
N626 C618 1.356 . S
N626 H632 0.984 . S
N626 H633 0.984 . S
N627 C620 1.356 . S
N627 H630 0.984 . S
N627 H631 0.985 . S
H628 N623 0.984 . S
H629 N623 0.985 . S
H630 N627 0.984 . S
H631 N627 0.985 . S
H632 N626 0.984 . S
H633 N626 0.984 . S
H634 N622 0.984 . S
H635 N622 0.985 . S
C636 C637 1.363 . S
C636 C642 1.379 . S
C636 N644 1.356 . S
C637 C636 1.363 . S
C637 C643 1.363 . S
C638 C639 1.363 . S
C638 C643 1.379 . S
C638 N645 1.356 . S
C639 C638 1.363 . S
C639 C642 1.363 . S
N640 C642 1.356 . S
N640 H652 0.984 . S
N640 H653 0.985 . S
N641 C643 1.356 . S
N641 H646 0.984 . S
N641 H647 0.985 1_545 S
C642 C636 1.379 . S
C642 C639 1.363 . S
C642 N640 1.356 . S
C643 C637 1.363 . S
C643 C638 1.379 . S
C643 N641 1.356 . S
N644 C636 1.356 . S
N644 H650 0.984 . S
N644 H651 0.984 . S
N645 C638 1.356 . S
N645 H648 0.984 . S
N645 H649 0.980 1_545 S
H646 N641 0.984 . S
H647 N641 0.985 1_565 S
H648 N645 0.984 . S
H649 N645 0.980 1_565 S
H650 N644 0.984 . S
H651 N644 0.984 . S
H652 N640 0.984 . S
H653 N640 0.985 . S
C654 C655 1.363 . S
C654 C660 1.379 . S
C654 N662 1.356 . S
C655 C654 1.363 . S
C655 C661 1.363 . S
C656 C657 1.363 . S
C656 C661 1.379 . S
C656 N663 1.356 . S
C657 C656 1.363 . S
C657 C660 1.363 . S
N658 C660 1.356 . S
N658 H670 0.984 . S
N658 H671 0.985 . S
N659 C661 1.356 . S
N659 H664 0.984 . S
N659 H665 0.985 . S
C660 C654 1.379 . S
C660 C657 1.363 . S
C660 N658 1.356 . S
C661 C655 1.363 . S
C661 C656 1.379 . S
C661 N659 1.356 . S
N662 C654 1.356 . S
N662 H668 0.984 . S
N662 H669 0.984 . S
N663 C656 1.356 . S
N663 H666 0.984 . S
N663 H667 0.985 . S
H664 N659 0.984 . S
H665 N659 0.985 . S
H666 N663 0.984 . S
H667 N663 0.985 . S
H668 N662 0.984 . S
H669 N662 0.984 . S
H670 N658 0.984 . S
H671 N658 0.985 . S
C672 C673 1.363 . S
C672 C678 1.379 1_545 S
C672 N680 1.356 . S
C673 C672 1.363 . S
C673 C679 1.363 1_545 S
C674 C675 1.363 . S
C674 C679 1.379 . S
C674 N681 1.356 . S
C675 C674 1.363 . S
C675 C678 1.363 . S
N676 C678 1.356 . S
N676 H688 0.984 . S
N676 H689 0.985 . S
N677 C679 1.356 1_556 S
N677 H682 0.984 1_565 S
N677 H683 0.985 . S
C678 C672 1.379 1_565 S
C678 C675 1.363 . S
C678 N676 1.356 . S
C679 C673 1.363 1_565 S
C679 C674 1.379 . S
C679 N677 1.356 1_554 S
N680 C672 1.356 . S
N680 H686 0.984 . S
N680 H687 0.984 . S
N681 C674 1.356 . S
N681 H684 0.984 . S
N681 H685 0.985 1_554 S
H682 N677 0.984 1_545 S
H683 N677 0.985 . S
H684 N681 0.984 . S
H685 N681 0.985 1_556 S
H686 N680 0.984 . S
H687 N680 0.984 . S
H688 N676 0.984 . S
H689 N676 0.985 . S
C690 C691 1.363 . S
C690 C696 1.379 . S
C690 N698 1.356 . S
C691 C690 1.363 . S
C691 C697 1.363 . S
C692 C693 1.363 . S
C692 C697 1.379 . S
C692 N699 1.356 . S
C693 C692 1.363 . S
C693 C696 1.363 . S
N694 C696 1.356 . S
N694 H706 0.984 . S
N694 H707 0.985 . S
N695 C697 1.356 1_554 S
N695 H700 0.984 . S
N695 H701 0.985 . S
C696 C690 1.379 . S
C696 C693 1.363 . S
C696 N694 1.356 . S
C697 C691 1.363 . S
C697 C692 1.379 . S
C697 N695 1.356 1_556 S
N698 C690 1.356 . S
N698 H704 0.984 . S
N698 H705 0.984 . S
N699 C692 1.356 . S
N699 H702 0.984 . S
N699 H703 0.985 1_556 S
H700 N695 0.984 . S
H701 N695 0.985 . S
H702 N699 0.984 . S
H703 N699 0.985 1_554 S
H704 N698 0.984 . S
H705 N698 0.984 . S
H706 N694 0.984 . S
H707 N694 0.985 . S
C708 C709 1.363 . S
C708 C714 1.379 . S
C708 N716 1.356 . S
C709 C708 1.363 . S
C709 C715 1.363 . S
C710 C711 1.363 . S
C710 C715 1.379 . S
C710 N717 1.356 . S
C711 C710 1.363 . S
C711 C714 1.363 . S
N712 C714 1.356 . S
N712 H724 0.984 . S
N712 H725 0.985 . S
N713 C715 1.356 . S
N713 H718 0.984 . S
N713 H719 0.985 . S
C714 C708 1.379 . S
C714 C711 1.363 . S
C714 N712 1.356 . S
C715 C709 1.363 . S
C715 C710 1.379 . S
C715 N713 1.356 . S
N716 C708 1.356 . S
N716 H722 0.984 . S
N716 H723 0.984 . S
N717 C710 1.356 . S
N717 H720 0.984 . S
N717 H721 0.985 . S
H718 N713 0.984 . S
H719 N713 0.985 . S
H720 N717 0.984 . S
H721 N717 0.985 . S
H722 N716 0.984 . S
H723 N716 0.984 . S
H724 N712 0.984 . S
H725 N712 0.985 . S
C726 C727 1.363 . S
C726 C732 1.379 . S
C726 N734 1.356 . S
C727 C726 1.363 . S
C727 C733 1.363 . S
C728 C729 1.363 . S
C728 C733 1.379 . S
C728 N735 1.356 . S
C729 C728 1.363 . S
C729 C732 1.363 . S
N730 C732 1.356 . S
N730 H742 0.984 . S
N730 H743 0.985 . S
N731 C733 1.356 . S
N731 H736 0.984 . S
N731 H737 0.985 . S
C732 C726 1.379 . S
C732 C729 1.363 . S
C732 N730 1.356 . S
C733 C727 1.363 . S
C733 C728 1.379 . S
C733 N731 1.356 . S
N734 C726 1.356 . S
N734 H740 0.984 . S
N734 H741 0.984 . S
N735 C728 1.356 . S
N735 H738 0.984 . S
N735 H739 0.985 . S
H736 N731 0.984 . S
H737 N731 0.985 . S
H738 N735 0.984 . S
H739 N735 0.985 . S
H740 N734 0.984 . S
H741 N734 0.984 . S
H742 N730 0.984 . S
H743 N730 0.985 . S
C744 C745 1.363 . S
C744 C750 1.379 . S
C744 N752 1.356 . S
C745 C744 1.363 . S
C745 C751 1.363 . S
C746 C747 1.363 . S
C746 C751 1.379 . S
C746 N753 1.356 . S
C747 C746 1.363 . S
C747 C750 1.363 . S
N748 C750 1.356 . S
N748 H760 0.984 . S
N748 H761 0.985 . S
N749 C751 1.356 . S
N749 H754 0.984 . S
N749 H755 0.985 . S
C750 C744 1.379 . S
C750 C747 1.363 . S
C750 N748 1.356 . S
C751 C745 1.363 . S
C751 C746 1.379 . S
C751 N749 1.356 . S
N752 C744 1.356 . S
N752 H758 0.984 . S
N752 H759 0.984 . S
N753 C746 1.356 . S
N753 H756 0.984 . S
N753 H757 0.985 . S
H754 N749 0.984 . S
H755 N749 0.985 . S
H756 N753 0.984 . S
H757 N753 0.985 . S
H758 N752 0.984 . S
H759 N752 0.984 . S
H760 N748 0.984 . S
H761 N748 0.985 . S
C762 C763 1.363 . S
C762 C768 1.379 . S
C762 N770 1.356 1_545 S
C763 C762 1.363 . S
C763 C769 1.363 . S
C764 C765 1.363 . S
C764 C769 1.379 . S
C764 N771 1.356 . S
C765 C764 1.363 . S
C765 C768 1.363 . S
N766 C768 1.356 . S
N766 H778 0.985 1_455 S
N766 H779 0.985 . S
N767 C769 1.356 . S
N767 H772 0.984 . S
N767 H773 0.985 . S
C768 C762 1.379 . S
C768 C765 1.363 . S
C768 N766 1.356 . S
C769 C763 1.363 . S
C769 C764 1.379 . S
C769 N767 1.356 . S
N770 C762 1.356 1_565 S
N770 H776 0.984 . S
N770 H777 0.984 . S
N771 C764 1.356 . S
N771 H774 0.984 . S
N771 H775 0.985 . S
H772 N767 0.984 . S
H773 N767 0.985 . S
H774 N771 0.984 . S
H775 N771 0.985 . S
H776 N770 0.984 . S
H777 N770 0.984 . S
H778 N766 0.985 1_655 S
H779 N766 0.985 . S
C780 C781 1.363 . S
C780 C786 1.379 . S
C780 N788 1.356 . S
C781 C780 1.363 . S
C781 C787 1.363 . S
C782 C783 1.363 . S
C782 C787 1.379 . S
C782 N789 1.356 . S
C783 C782 1.363 . S
C783 C786 1.363 . S
N784 C786 1.356 . S
N784 H796 0.984 . S
N784 H797 0.985 . S
N785 C787 1.356 . S
N785 H790 0.984 . S
N785 H791 0.985 . S
C786 C780 1.379 . S
C786 C783 1.363 . S
C786 N784 1.356 . S
C787 C781 1.363 . S
C787 C782 1.379 . S
C787 N785 1.356 . S
N788 C780 1.356 . S
N788 H794 0.984 . S
N788 H795 0.984 . S
N789 C782 1.356 . S
N789 H792 0.984 . S
N789 H793 0.985 . S
H790 N785 0.984 . S
H791 N785 0.985 . S
H792 N789 0.984 . S
H793 N789 0.985 . S
H794 N788 0.984 . S
H795 N788 0.984 . S
H796 N784 0.984 . S
H797 N784 0.985 . S
C798 C799 1.363 . S
C798 C804 1.379 . S
C798 N806 1.356 . S
C799 C798 1.363 . S
C799 C805 1.363 . S
C800 C801 1.363 . S
C800 C805 1.379 . S
C800 N807 1.356 . S
C801 C800 1.363 . S
C801 C804 1.363 . S
N802 C804 1.356 . S
N802 H814 0.984 . S
N802 H815 0.985 . S
N803 C805 1.356 . S
N803 H808 0.984 . S
N803 H809 0.985 . S
C804 C798 1.379 . S
C804 C801 1.363 . S
C804 N802 1.356 . S
C805 C799 1.363 . S
C805 C800 1.379 . S
C805 N803 1.356 . S
N806 C798 1.356 . S
N806 H812 0.984 . S
N806 H813 0.984 . S
N807 C800 1.356 . S
N807 H810 0.984 . S
N807 H811 0.985 . S
H808 N803 0.984 . S
H809 N803 0.985 . S
H810 N807 0.984 . S
H811 N807 0.985 . S
H812 N806 0.984 . S
H813 N806 0.984 . S
H814 N802 0.984 . S
H815 N802 0.985 . S
C816 C817 1.363 . S
C816 C822 1.379 . S
C816 N824 1.356 . S
C817 C816 1.363 . S
C817 C823 1.363 . S
C818 C819 1.363 . S
C818 C823 1.379 . S
C818 N825 1.356 1_565 S
C819 C818 1.363 . S
C819 C822 1.363 . S
N820 C822 1.356 . S
N820 H832 0.984 . S
N820 H833 0.985 . S
N821 C823 1.356 . S
N821 H826 0.984 . S
N821 H827 0.985 . S
C822 C816 1.379 . S
C822 C819 1.363 . S
C822 N820 1.356 . S
C823 C817 1.363 . S
C823 C818 1.379 . S
C823 N821 1.356 . S
N824 C816 1.356 . S
N824 H830 0.984 . S
N824 H831 0.984 . S
N825 C818 1.356 1_545 S
N825 H828 0.984 . S
N825 H829 0.985 . S
H826 N821 0.984 . S
H827 N821 0.985 . S
H828 N825 0.984 . S
H829 N825 0.985 . S
H830 N824 0.984 . S
H831 N824 0.984 . S
H832 N820 0.984 . S
H833 N820 0.985 . S
C834 C835 1.363 . S
C834 C840 1.379 . S
C834 N842 1.356 . S
C835 C834 1.363 . S
C835 C841 1.363 . S
C836 C837 1.363 . S
C836 C841 1.379 . S
C836 N843 1.356 . S
C837 C836 1.363 . S
C837 C840 1.363 . S
N838 C840 1.356 . S
N838 H850 0.984 . S
N838 H851 0.985 . S
N839 C841 1.356 . S
N839 H844 0.984 . S
N839 H845 0.985 . S
C840 C834 1.379 . S
C840 C837 1.363 . S
C840 N838 1.356 . S
C841 C835 1.363 . S
C841 C836 1.379 . S
C841 N839 1.356 . S
N842 C834 1.356 . S
N842 H848 0.984 . S
N842 H849 0.984 . S
N843 C836 1.356 . S
N843 H846 0.984 . S
N843 H847 0.985 . S
H844 N839 0.984 . S
H845 N839 0.985 . S
H846 N843 0.984 . S
H847 N843 0.985 . S
H848 N842 0.984 . S
H849 N842 0.984 . S
H850 N838 0.984 . S
H851 N838 0.985 . S
C852 C853 1.363 . S
C852 C858 1.379 1_554 S
C852 N860 1.356 . S
C853 C852 1.363 . S
C853 C859 1.363 . S
C854 C855 1.363 . S
C854 C859 1.379 1_556 S
C854 N861 1.356 . S
C855 C854 1.363 . S
C855 C858 1.363 . S
N856 C858 1.356 . S
N856 H868 0.984 . S
N856 H869 0.985 . S
N857 C859 1.356 1_455 S
N857 H862 0.984 . S
N857 H863 0.985 . S
C858 C852 1.379 1_556 S
C858 C855 1.363 . S
C858 N856 1.356 . S
C859 C853 1.363 . S
C859 C854 1.379 1_554 S
C859 N857 1.356 1_655 S
N860 C852 1.356 . S
N860 H866 0.984 . S
N860 H867 0.984 . S
N861 C854 1.356 . S
N861 H864 0.984 . S
N861 H865 0.985 1_655 S
H862 N857 0.984 . S
H863 N857 0.985 . S
H864 N861 0.984 . S
H865 N861 0.985 1_455 S
H866 N860 0.984 . S
H867 N860 0.984 . S
H868 N856 0.984 . S
H869 N856 0.985 . S
C870 C871 1.363 . S
C870 C876 1.379 . S
C870 N878 1.356 . S
C871 C870 1.363 . S
C871 C877 1.363 . S
C872 C873 1.363 . S
C872 C877 1.379 . S
C872 N879 1.356 . S
C873 C872 1.363 . S
C873 C876 1.363 . S
N874 C876 1.356 . S
N874 H886 0.984 . S
N874 H887 0.985 . S
N875 C877 1.356 . S
N875 H880 0.984 . S
N875 H881 0.985 . S
C876 C870 1.379 . S
C876 C873 1.363 . S
C876 N874 1.356 . S
C877 C871 1.363 . S
C877 C872 1.379 . S
C877 N875 1.356 . S
N878 C870 1.356 . S
N878 H884 0.984 . S
N878 H885 0.984 . S
N879 C872 1.356 . S
N879 H882 0.984 . S
N879 H883 0.985 . S
H880 N875 0.984 . S
H881 N875 0.985 . S
H882 N879 0.984 . S
H883 N879 0.985 . S
H884 N878 0.984 . S
H885 N878 0.984 . S
H886 N874 0.984 . S
H887 N874 0.985 . S
C888 C889 1.363 . S
C888 C894 1.379 . S
C888 N896 1.356 . S
C889 C888 1.363 . S
C889 C895 1.363 . S
C890 C891 1.363 . S
C890 C895 1.379 . S
C890 N897 1.356 . S
C891 C890 1.363 . S
C891 C894 1.363 . S
N892 C894 1.356 . S
N892 H904 0.984 . S
N892 H905 0.985 . S
N893 C895 1.356 . S
N893 H898 0.997 . S
N893 H899 0.985 . S
C894 C888 1.379 . S
C894 C891 1.363 . S
C894 N892 1.356 . S
C895 C889 1.363 . S
C895 C890 1.379 . S
C895 N893 1.356 . S
N896 C888 1.356 . S
N896 H902 0.984 . S
N896 H903 0.984 1_554 S
N897 C890 1.356 . S
N897 H900 0.984 . S
N897 H901 0.985 . S
H898 N893 0.997 . S
H899 N893 0.985 . S
H900 N897 0.984 . S
H901 N897 0.985 . S
H902 N896 0.984 . S
H903 N896 0.984 1_556 S
H904 N892 0.984 . S
H905 N892 0.985 . S
C906 C907 1.363 . S
C906 C912 1.379 . S
C906 N914 1.356 . S
C907 C906 1.363 . S
C907 C913 1.363 . S
C908 C909 1.363 . S
C908 C913 1.379 . S
C908 N915 1.356 . S
C909 C908 1.363 . S
C909 C912 1.363 . S
N910 C912 1.356 . S
N910 H922 0.984 . S
N910 H923 0.985 . S
N911 C913 1.356 . S
N911 H916 0.984 . S
N911 H917 0.985 . S
C912 C906 1.379 . S
C912 C909 1.363 . S
C912 N910 1.356 . S
C913 C907 1.363 . S
C913 C908 1.379 . S
C913 N911 1.356 . S
N914 C906 1.356 . S
N914 H920 0.984 . S
N914 H921 0.984 . S
N915 C908 1.356 . S
N915 H918 0.984 . S
N915 H919 0.985 . S
H916 N911 0.984 . S
H917 N911 0.985 . S
H918 N915 0.984 . S
H919 N915 0.985 . S
H920 N914 0.984 . S
H921 N914 0.984 . S
H922 N910 0.984 . S
H923 N910 0.985 . S
C924 C925 1.363 . S
C924 C930 1.379 . S
C924 N932 1.356 1_655 S
C925 C924 1.363 . S
C925 C931 1.363 . S
C926 C927 1.363 . S
C926 C931 1.379 . S
C926 N933 1.356 . S
C927 C926 1.363 . S
C927 C930 1.363 . S
N928 C930 1.356 . S
N928 H940 0.984 1_565 S
N928 H941 0.985 . S
N929 C931 1.356 . S
N929 H934 0.984 . S
N929 H935 0.985 . S
C930 C924 1.379 . S
C930 C927 1.363 . S
C930 N928 1.356 . S
C931 C925 1.363 . S
C931 C926 1.379 . S
C931 N929 1.356 . S
N932 C924 1.356 1_455 S
N932 H938 0.984 . S
N932 H939 0.984 . S
N933 C926 1.356 . S
N933 H936 0.984 . S
N933 H937 0.985 . S
H934 N929 0.984 . S
H935 N929 0.985 . S
H936 N933 0.984 . S
H937 N933 0.985 . S
H938 N932 0.984 . S
H939 N932 0.984 . S
H940 N928 0.984 1_545 S
H941 N928 0.985 . S
C942 C943 1.363 . S
C942 C948 1.379 . S
C942 N950 1.356 . S
C943 C942 1.363 . S
C943 C949 1.363 . S
C944 C945 1.363 . S
C944 C949 1.379 . S
C944 N951 1.356 . S
C945 C944 1.363 . S
C945 C948 1.363 . S
N946 C948 1.356 . S
N946 H958 0.984 . S
N946 H959 0.985 . S
N947 C949 1.356 . S
N947 H952 0.984 . S
N947 H953 0.985 . S
C948 C942 1.379 . S
C948 C945 1.363 . S
C948 N946 1.356 . S
C949 C943 1.363 . S
C949 C944 1.379 . S
C949 N947 1.356 . S
N950 C942 1.356 . S
N950 H956 0.984 . S
N950 H957 0.984 . S
N951 C944 1.356 . S
N951 H954 0.984 . S
N951 H955 0.985 . S
H952 N947 0.984 . S
H953 N947 0.985 . S
H954 N951 0.984 . S
H955 N951 0.985 . S
H956 N950 0.984 . S
H957 N950 0.984 . S
H958 N946 0.984 . S
H959 N946 0.985 . S
C960 C961 1.363 . S
C960 C966 1.379 . S
C960 N968 1.356 . S
C961 C960 1.363 . S
C961 C967 1.363 . S
C962 C963 1.363 . S
C962 C967 1.379 . S
C962 N969 1.356 . S
C963 C962 1.363 . S
C963 C966 1.363 . S
N964 C966 1.356 1_554 S
N964 H976 0.984 . S
N964 H977 0.985 . S
N965 C967 1.356 . S
N965 H970 0.984 . S
N965 H971 0.985 . S
C966 C960 1.379 . S
C966 C963 1.363 . S
C966 N964 1.356 1_556 S
C967 C961 1.363 . S
C967 C962 1.379 . S
C967 N965 1.356 . S
N968 C960 1.356 . S
N968 H974 0.984 1_556 S
N968 H975 0.984 . S
N969 C962 1.356 . S
N969 H972 0.984 . S
N969 H973 0.985 . S
H970 N965 0.984 . S
H971 N965 0.985 . S
H972 N969 0.984 . S
H973 N969 0.985 . S
H974 N968 0.984 1_554 S
H975 N968 0.984 . S
H976 N964 0.984 . S
H977 N964 0.985 . S
C978 C979 1.363 . S
C978 C984 1.379 . S
C978 N986 1.356 . S
C979 C978 1.363 . S
C979 C985 1.363 . S
C980 C981 1.363 . S
C980 C985 1.379 . S
C980 N987 1.356 . S
C981 C980 1.363 . S
C981 C984 1.363 . S
N982 C984 1.356 . S
N982 H994 0.984 . S
N982 H995 0.985 . S
N983 C985 1.356 . S
N983 H988 0.984 . S
N983 H989 0.985 . S
C984 C978 1.379 . S
C984 C981 1.363 . S
C984 N982 1.356 . S
C985 C979 1.363 . S
C985 C980 1.379 . S
C985 N983 1.356 . S
N986 C978 1.356 . S
N986 H992 0.984 . S
N986 H993 0.984 . S
N987 C980 1.356 . S
N987 H990 0.984 . S
N987 H991 0.985 . S
H988 N983 0.984 . S
H989 N983 0.985 . S
H990 N987 0.984 . S
H991 N987 0.985 . S
H992 N986 0.984 . S
H993 N986 0.984 . S
H994 N982 0.984 . S
H995 N982 0.985 . S
C996 C997 1.363 . S
C996 C1002 1.379 . S
C996 N1004 1.356 1_455 S
C997 C996 1.363 . S
C997 C1003 1.363 . S
C998 C999 1.363 . S
C998 C1003 1.379 . S
C998 N1005 1.356 . S
C999 C998 1.363 . S
C999 C1002 1.363 . S
N1000 C1002 1.356 . S
N1000 H1012 0.984 . S
N1000 H1013 0.985 . S
N1001 C1003 1.356 . S
N1001 H1006 0.984 1_455 S
N1001 H1007 0.985 . S
C1002 C996 1.379 . S
C1002 C999 1.363 . S
C1002 N1000 1.356 . S
C1003 C997 1.363 . S
C1003 C998 1.379 . S
C1003 N1001 1.356 . S
N1004 C996 1.356 1_655 S
N1004 H1010 0.984 . S
N1004 H1011 0.984 . S
N1005 C998 1.356 . S
N1005 H1008 0.984 . S
N1005 H1009 0.985 . S
H1006 N1001 0.984 1_655 S
H1007 N1001 0.985 . S
H1008 N1005 0.984 . S
H1009 N1005 0.985 . S
H1010 N1004 0.984 . S
H1011 N1004 0.984 . S
H1012 N1000 0.984 . S
H1013 N1000 0.985 . S
C1014 C1015 1.363 . S
C1014 C1020 1.379 . S
C1014 N1022 1.356 . S
C1015 C1014 1.363 . S
C1015 C1021 1.363 . S
C1016 C1017 1.363 . S
C1016 C1021 1.379 . S
C1016 N1023 1.356 . S
C1017 C1016 1.363 . S
C1017 C1020 1.363 . S
N1018 C1020 1.356 . S
N1018 H1030 0.984 . S
N1018 H1031 0.985 . S
N1019 C1021 1.356 . S
N1019 H1024 0.984 . S
N1019 H1025 0.985 . S
C1020 C1014 1.379 . S
C1020 C1017 1.363 . S
C1020 N1018 1.356 . S
C1021 C1015 1.363 . S
C1021 C1016 1.379 . S
C1021 N1019 1.356 . S
N1022 C1014 1.356 . S
N1022 H1028 0.984 . S
N1022 H1029 0.984 . S
N1023 C1016 1.356 . S
N1023 H1026 0.984 . S
N1023 H1027 0.985 . S
H1024 N1019 0.984 . S
H1025 N1019 0.985 . S
H1026 N1023 0.984 . S
H1027 N1023 0.985 . S
H1028 N1022 0.984 . S
H1029 N1022 0.984 . S
H1030 N1018 0.984 . S
H1031 N1018 0.985 . S
C1032 C1033 1.363 . S
C1032 C1038 1.379 . S
C1032 N1040 1.356 . S
C1033 C1032 1.363 . S
C1033 C1039 1.363 . S
C1034 C1035 1.363 . S
C1034 C1039 1.379 . S
C1034 N1041 1.356 . S
C1035 C1034 1.363 . S
C1035 C1038 1.363 . S
N1036 C1038 1.356 . S
N1036 H1048 0.984 . S
N1036 H1049 0.985 . S
N1037 C1039 1.356 . S
N1037 H1042 0.984 . S
N1037 H1043 0.985 . S
C1038 C1032 1.379 . S
C1038 C1035 1.363 . S
C1038 N1036 1.356 . S
C1039 C1033 1.363 . S
C1039 C1034 1.379 . S
C1039 N1037 1.356 . S
N1040 C1032 1.356 . S
N1040 H1046 0.984 . S
N1040 H1047 0.984 . S
N1041 C1034 1.356 . S
N1041 H1044 0.984 . S
N1041 H1045 0.985 . S
H1042 N1037 0.984 . S
H1043 N1037 0.985 . S
H1044 N1041 0.984 . S
H1045 N1041 0.985 . S
H1046 N1040 0.984 . S
H1047 N1040 0.984 . S
H1048 N1036 0.984 . S
H1049 N1036 0.985 . S
C1050 C1051 1.363 . S
C1050 C1056 1.379 . S
C1050 N1058 1.356 . S
C1051 C1050 1.363 . S
C1051 C1057 1.363 . S
C1052 C1053 1.363 . S
C1052 C1057 1.379 . S
C1052 N1059 1.356 . S
C1053 C1052 1.363 . S
C1053 C1056 1.363 . S
N1054 C1056 1.356 . S
N1054 H1066 0.984 . S
N1054 H1067 0.985 . S
N1055 C1057 1.356 . S
N1055 H1060 0.984 . S
N1055 H1061 0.985 . S
C1056 C1050 1.379 . S
C1056 C1053 1.363 . S
C1056 N1054 1.356 . S
C1057 C1051 1.363 . S
C1057 C1052 1.379 . S
C1057 N1055 1.356 . S
N1058 C1050 1.356 . S
N1058 H1064 0.984 1_556 S
N1058 H1065 0.984 . S
N1059 C1052 1.356 . S
N1059 H1062 0.984 . S
N1059 H1063 0.985 . S
H1060 N1055 0.984 . S
H1061 N1055 0.985 . S
H1062 N1059 0.984 . S
H1063 N1059 0.985 . S
H1064 N1058 0.984 1_554 S
H1065 N1058 0.984 . S
H1066 N1054 0.984 . S
H1067 N1054 0.985 . S
C1068 C1069 1.363 . S
C1068 C1074 1.379 . S
C1068 N1076 1.356 1_455 S
C1069 C1068 1.363 . S
C1069 C1075 1.363 . S
C1070 C1071 1.363 . S
C1070 C1075 1.379 . S
C1070 N1077 1.356 . S
C1071 C1070 1.363 . S
C1071 C1074 1.363 . S
N1072 C1074 1.356 . S
N1072 H1084 0.984 . S
N1072 H1085 0.985 . S
N1073 C1075 1.356 . S
N1073 H1078 0.984 1_455 S
N1073 H1079 0.985 . S
C1074 C1068 1.379 . S
C1074 C1071 1.363 . S
C1074 N1072 1.356 . S
C1075 C1069 1.363 . S
C1075 C1070 1.379 . S
C1075 N1073 1.356 . S
N1076 C1068 1.356 1_655 S
N1076 H1082 0.984 . S
N1076 H1083 0.984 . S
N1077 C1070 1.356 . S
N1077 H1080 0.984 . S
N1077 H1081 0.985 . S
H1078 N1073 0.984 1_655 S
H1079 N1073 0.985 . S
H1080 N1077 0.984 . S
H1081 N1077 0.985 . S
H1082 N1076 0.984 . S
H1083 N1076 0.984 . S
H1084 N1072 0.984 . S
H1085 N1072 0.985 . S
C1086 C1087 1.363 . S
C1086 C1092 1.379 . S
C1086 N1094 1.356 . S
C1087 C1086 1.363 . S
C1087 C1093 1.363 . S
C1088 C1089 1.363 . S
C1088 C1093 1.379 . S
C1088 N1095 1.356 . S
C1089 C1088 1.363 . S
C1089 C1092 1.363 . S
N1090 C1092 1.356 . S
N1090 H1102 0.984 . S
N1090 H1103 0.985 . S
N1091 C1093 1.356 . S
N1091 H1096 0.984 . S
N1091 H1097 0.985 . S
C1092 C1086 1.379 . S
C1092 C1089 1.363 . S
C1092 N1090 1.356 . S
C1093 C1087 1.363 . S
C1093 C1088 1.379 . S
C1093 N1091 1.356 . S
N1094 C1086 1.356 . S
N1094 H1100 0.984 . S
N1094 H1101 0.984 . S
N1095 C1088 1.356 . S
N1095 H1098 0.984 . S
N1095 H1099 0.985 . S
H1096 N1091 0.984 . S
H1097 N1091 0.985 . S
H1098 N1095 0.984 . S
H1099 N1095 0.985 . S
H1100 N1094 0.984 . S
H1101 N1094 0.984 . S
H1102 N1090 0.984 . S
H1103 N1090 0.985 . S
C1104 C1105 1.363 . S
C1104 C1110 1.379 . S
C1104 N1112 1.356 . S
C1105 C1104 1.363 . S
C1105 C1111 1.363 . S
C1106 C1107 1.363 . S
C1106 C1111 1.379 . S
C1106 N1113 1.356 . S
C1107 C1106 1.363 . S
C1107 C1110 1.363 . S
N1108 C1110 1.356 . S
N1108 H1120 0.984 . S
N1108 H1121 0.985 . S
N1109 C1111 1.356 . S
N1109 H1114 0.984 . S
N1109 H1115 0.985 . S
C1110 C1104 1.379 . S
C1110 C1107 1.363 . S
C1110 N1108 1.356 . S
C1111 C1105 1.363 . S
C1111 C1106 1.379 . S
C1111 N1109 1.356 . S
N1112 C1104 1.356 . S
N1112 H1118 0.984 . S
N1112 H1119 0.984 . S
N1113 C1106 1.356 . S
N1113 H1116 0.984 . S
N1113 H1117 0.985 1_655 S
H1114 N1109 0.984 . S
H1115 N1109 0.985 . S
H1116 N1113 0.984 . S
H1117 N1113 0.985 1_455 S
H1118 N1112 0.984 . S
H1119 N1112 0.984 . S
H1120 N1108 0.984 . S
H1121 N1108 0.985 . S
C1122 C1123 1.363 . S
C1122 C1128 1.379 . S
C1122 N1130 1.356 . S
C1123 C1122 1.363 . S
C1123 C1129 1.363 . S
C1124 C1125 1.363 . S
C1124 C1129 1.379 . S
C1124 N1131 1.356 . S
C1125 C1124 1.363 . S
C1125 C1128 1.363 . S
N1126 C1128 1.356 . S
N1126 H1138 0.984 . S
N1126 H1139 0.985 . S
N1127 C1129 1.356 1_565 S
N1127 H1132 0.984 . S
N1127 H1133 0.985 . S
C1128 C1122 1.379 . S
C1128 C1125 1.363 . S
C1128 N1126 1.356 . S
C1129 C1123 1.363 . S
C1129 C1124 1.379 . S
C1129 N1127 1.356 1_545 S
N1130 C1122 1.356 . S
N1130 H1136 0.984 . S
N1130 H1137 0.984 . S
N1131 C1124 1.356 . S
N1131 H1134 0.984 . S
N1131 H1135 0.985 . S
H1132 N1127 0.984 . S
H1133 N1127 0.985 . S
H1134 N1131 0.984 . S
H1135 N1131 0.985 . S
H1136 N1130 0.984 . S
H1137 N1130 0.984 . S
H1138 N1126 0.984 . S
H1139 N1126 0.985 . S
C1140 C1141 1.363 . S
C1140 C1146 1.379 . S
C1140 N1148 1.356 . S
C1141 C1140 1.363 . S
C1141 C1147 1.363 . S
C1142 C1143 1.363 . S
C1142 C1147 1.379 . S
C1142 N1149 1.356 . S
C1143 C1142 1.363 . S
C1143 C1146 1.363 . S
N1144 C1146 1.356 . S
N1144 H1156 0.984 . S
N1144 H1157 0.985 . S
N1145 C1147 1.356 . S
N1145 H1150 0.984 . S
N1145 H1151 0.985 . S
C1146 C1140 1.379 . S
C1146 C1143 1.363 . S
C1146 N1144 1.356 . S
C1147 C1141 1.363 . S
C1147 C1142 1.379 . S
C1147 N1145 1.356 . S
N1148 C1140 1.356 . S
N1148 H1154 0.984 . S
N1148 H1155 0.984 . S
N1149 C1142 1.356 . S
N1149 H1152 0.984 . S
N1149 H1153 0.985 . S
H1150 N1145 0.984 . S
H1151 N1145 0.985 . S
H1152 N1149 0.984 . S
H1153 N1149 0.985 . S
H1154 N1148 0.984 . S
H1155 N1148 0.984 . S
H1156 N1144 0.984 . S
H1157 N1144 0.985 . S
C1158 C1159 1.358 1_565 S
C1158 C1164 1.395 . S
C1158 N1166 1.341 1_565 S
C1159 C1158 1.358 1_545 S
C1159 C1165 1.363 1_545 S
C1160 C1161 1.363 . S
C1160 C1165 1.379 . S
C1160 N1167 1.356 . S
C1161 C1160 1.363 . S
C1161 C1164 1.363 . S
N1162 C1164 1.356 . S
N1162 H1174 0.984 . S
N1162 H1175 0.985 . S
N1163 C1165 1.356 1_544 S
N1163 H1168 0.984 . S
N1163 H1169 0.985 1_545 S
C1164 C1158 1.395 . S
C1164 C1161 1.363 . S
C1164 N1162 1.356 . S
C1165 C1159 1.363 1_565 S
C1165 C1160 1.379 . S
C1165 N1163 1.356 1_566 S
N1166 C1158 1.341 1_545 S
N1166 H1172 0.984 . S
N1166 H1173 0.984 . S
N1167 C1160 1.356 . S
N1167 H1170 0.984 . S
N1167 H1171 0.985 1_556 S
H1168 N1163 0.984 . S
H1169 N1163 0.985 1_565 S
H1170 N1167 0.984 . S
H1171 N1167 0.985 1_554 S
H1172 N1166 0.984 . S
H1173 N1166 0.984 . S
H1174 N1162 0.984 . S
H1175 N1162 0.985 . S
C1176 C1177 1.363 . S
C1176 C1182 1.379 . S
C1176 N1184 1.356 . S
C1177 C1176 1.363 . S
C1177 C1183 1.363 . S
C1178 C1179 1.363 . S
C1178 C1183 1.379 . S
C1178 N1185 1.356 . S
C1179 C1178 1.363 . S
C1179 C1182 1.363 . S
N1180 C1182 1.356 . S
N1180 H1192 0.984 . S
N1180 H1193 0.985 . S
N1181 C1183 1.356 . S
N1181 H1186 0.984 . S
N1181 H1187 0.985 . S
C1182 C1176 1.379 . S
C1182 C1179 1.363 . S
C1182 N1180 1.356 . S
C1183 C1177 1.363 . S
C1183 C1178 1.379 . S
C1183 N1181 1.356 . S
N1184 C1176 1.356 . S
N1184 H1190 0.984 . S
N1184 H1191 0.984 . S
N1185 C1178 1.356 . S
N1185 H1188 0.984 . S
N1185 H1189 0.985 . S
H1186 N1181 0.984 . S
H1187 N1181 0.985 . S
H1188 N1185 0.984 . S
H1189 N1185 0.985 . S
H1190 N1184 0.984 . S
H1191 N1184 0.984 . S
H1192 N1180 0.984 . S
H1193 N1180 0.985 . S
C1194 C1195 1.363 . S
C1194 C1200 1.379 . S
C1194 N1202 1.356 . S
C1195 C1194 1.363 . S
C1195 C1201 1.363 . S
C1196 C1197 1.363 . S
C1196 C1201 1.379 . S
C1196 N1203 1.356 . S
C1197 C1196 1.363 . S
C1197 C1200 1.363 . S
N1198 C1200 1.356 . S
N1198 H1210 0.984 . S
N1198 H1211 0.985 . S
N1199 C1201 1.356 . S
N1199 H1204 0.984 1_554 S
N1199 H1205 0.985 1_554 S
C1200 C1194 1.379 . S
C1200 C1197 1.363 . S
C1200 N1198 1.356 . S
C1201 C1195 1.363 . S
C1201 C1196 1.379 . S
C1201 N1199 1.356 . S
N1202 C1194 1.356 . S
N1202 H1208 0.984 . S
N1202 H1209 0.984 . S
N1203 C1196 1.356 . S
N1203 H1206 0.984 . S
N1203 H1207 0.985 . S
H1204 N1199 0.984 1_556 S
H1205 N1199 0.985 1_556 S
H1206 N1203 0.984 . S
H1207 N1203 0.985 . S
H1208 N1202 0.984 . S
H1209 N1202 0.984 . S
H1210 N1198 0.984 . S
H1211 N1198 0.985 . S
C1212 C1213 1.363 . S
C1212 C1218 1.379 . S
C1212 N1220 1.356 . S
C1213 C1212 1.363 . S
C1213 C1219 1.363 . S
C1214 C1215 1.363 . S
C1214 C1219 1.379 . S
C1214 N1221 1.356 . S
C1215 C1214 1.363 . S
C1215 C1218 1.363 . S
N1216 C1218 1.356 . S
N1216 H1228 0.984 . S
N1216 H1229 0.985 . S
N1217 C1219 1.356 1_545 S
N1217 H1222 0.984 . S
N1217 H1223 0.985 . S
C1218 C1212 1.379 . S
C1218 C1215 1.363 . S
C1218 N1216 1.356 . S
C1219 C1213 1.363 . S
C1219 C1214 1.379 . S
C1219 N1217 1.356 1_565 S
N1220 C1212 1.356 . S
N1220 H1226 0.984 . S
N1220 H1227 0.984 . S
N1221 C1214 1.356 . S
N1221 H1224 0.984 . S
N1221 H1225 0.985 1_565 S
H1222 N1217 0.984 . S
H1223 N1217 0.985 . S
H1224 N1221 0.984 . S
H1225 N1221 0.985 1_545 S
H1226 N1220 0.984 . S
H1227 N1220 0.984 . S
H1228 N1216 0.984 . S
H1229 N1216 0.985 . S
C1230 C1231 1.363 . S
C1230 C1236 1.379 . S
C1230 N1238 1.356 . S
C1231 C1230 1.363 . S
C1231 C1237 1.363 . S
C1232 C1233 1.363 . S
C1232 C1237 1.379 . S
C1232 N1239 1.356 . S
C1233 C1232 1.363 . S
C1233 C1236 1.363 . S
N1234 C1236 1.356 . S
N1234 H1246 0.984 . S
N1234 H1247 0.985 . S
N1235 C1237 1.356 . S
N1235 H1240 0.984 . S
N1235 H1241 0.985 . S
C1236 C1230 1.379 . S
C1236 C1233 1.363 . S
C1236 N1234 1.356 . S
C1237 C1231 1.363 . S
C1237 C1232 1.379 . S
C1237 N1235 1.356 . S
N1238 C1230 1.356 . S
N1238 H1244 0.984 . S
N1238 H1245 0.984 . S
N1239 C1232 1.356 . S
N1239 H1242 0.984 . S
N1239 H1243 0.985 . S
H1240 N1235 0.984 . S
H1241 N1235 0.985 . S
H1242 N1239 0.984 . S
H1243 N1239 0.985 . S
H1244 N1238 0.984 . S
H1245 N1238 0.984 . S
H1246 N1234 0.984 . S
H1247 N1234 0.985 . S
C387 C373 1.332 . S
C385 C8 1.385 . S
C403 C23 1.376 . S
C405 C326 1.217 . S
C421 C35 1.425 . S
C423 C337 1.350 . S
C441 C362 1.154 . S
C439 C45 1.396 . S
C457 C22 1.444 . S
C459 C380 1.357 . S
C477 C319 1.178 . S
C475 C31 1.323 . S
C495 C344 1.340 . S
C493 C49 1.488 1_554 S
C513 C355 1.208 . S
C511 C9 1.340 . S
C529 C65 1.354 . S
C531 C356 1.377 . S
C549 C382 1.188 . S
C547 C73 1.377 . S
C567 C320 1.426 . S
C565 C93 1.384 . S
C585 C346 1.131 . S
C583 C101 1.376 . S
C601 C59 1.374 . S
C603 C328 1.310 . S
C619 C79 1.360 . S
C621 C338 1.229 . S
C637 C87 1.380 . S
C639 C364 1.305 . S
C657 C374 1.322 . S
C655 C107 1.406 . S
C675 C211 1.449 . S
C673 C106 1.487 . S
C693 C194 1.323 . S
C691 C119 1.414 . S
C711 C220 1.288 . S
C709 C134 1.406 . S
C729 C238 1.293 . S
C727 C147 1.409 . S
C745 C64 1.368 . S
C747 C212 1.240 . S
C763 C78 1.432 1_545 S
C765 C182 1.351 . S
C781 C133 1.498 . S
C783 C236 1.146 . S
C799 C161 1.453 . S
C801 C193 1.173 . S
C819 C247 1.331 . S
C817 C36 1.385 . S
C837 C272 1.217 . S
C835 C51 1.377 . S
C853 C7 1.425 . S
C855 C283 1.350 . S
C871 C17 1.396 . S
C873 C308 1.154 . S
C891 C254 1.357 . S
C889 C50 1.444 1_554 S
C909 C265 1.177 . S
C907 C3 1.322 . S
C925 C21 1.488 . S
C927 C290 1.339 . S
C945 C301 1.208 . S
C943 C37 1.340 . S
C961 C163 1.354 . S
C963 C302 1.378 . S
C979 C115 1.377 . S
C981 C256 1.188 . S
C999 C266 1.426 . S
C997 C135 1.384 1_455 S
C1015 C143 1.378 . S
C1017 C292 1.131 . S
C1035 C274 1.310 . S
C1033 C157 1.374 . S
C1051 C121 1.360 . S
C1053 C284 1.229 . S
C1071 C310 1.305 . S
C1069 C129 1.380 1_455 S
C1089 C248 1.322 . S
C1087 C149 1.405 . S
C1107 C175 1.450 . S
C1105 C148 1.488 . S
C1125 C230 1.323 . S
C1123 C77 1.413 1_545 S
C1141 C92 1.405 . S
C1143 C184 1.288 . S
C1161 C202 1.293 . S
C1159 C105 1.409 . S
C1179 C176 1.240 . S
C1177 C162 1.369 . S
C1195 C120 1.432 . S
C1197 C218 1.352 . S
C1213 C91 1.498 . S
C1215 C200 1.146 . S
C1231 C63 1.453 . S
C1233 C229 1.173 . S
