# Generated by pormake.
# Topology tsx, (6,3)-cn, num edge types: 1
# Building blocks:
#     Node 0, Type 0, BuildingBlock: CIFDUS_clean_sbu_1, # of connection points: 6
#     Node 1, Type 0, BuildingBlock: CIFDUS_clean_sbu_1, # of connection points: 6
#     Node 2, Type 1, BuildingBlock: BETDIP_clean_linker_0, # of connection points: 3
#     Node 3, Type 1, BuildingBlock: BETDIP_clean_linker_0, # of connection points: 3
#     Node 4, Type 1, BuildingBlock: BETDIP_clean_linker_0, # of connection points: 3
#     Node 5, Type 1, BuildingBlock: BETDIP_clean_linker_0, # of connection points: 3
#     Edge 6, Type (0, 1), BuildingBlock: UVAHIK_clean_linker_0, # of connection points: 2
#     Edge 7, Type (0, 1), BuildingBlock: UVAHIK_clean_linker_0, # of connection points: 2
#     Edge 8, Type (0, 1), BuildingBlock: UVAHIK_clean_linker_0, # of connection points: 2
#     Edge 9, Type (0, 1), BuildingBlock: UVAHIK_clean_linker_0, # of connection points: 2
#     Edge 10, Type (0, 1), BuildingBlock: UVAHIK_clean_linker_0, # of connection points: 2
#     Edge 11, Type (0, 1), BuildingBlock: UVAHIK_clean_linker_0, # of connection points: 2
#     Edge 12, Type (0, 1), BuildingBlock: UVAHIK_clean_linker_0, # of connection points: 2
#     Edge 13, Type (0, 1), BuildingBlock: UVAHIK_clean_linker_0, # of connection points: 2
#     Edge 14, Type (0, 1), BuildingBlock: UVAHIK_clean_linker_0, # of connection points: 2
#     Edge 15, Type (0, 1), BuildingBlock: UVAHIK_clean_linker_0, # of connection points: 2
#     Edge 16, Type (0, 1), BuildingBlock: UVAHIK_clean_linker_0, # of connection points: 2
#     Edge 17, Type (0, 1), BuildingBlock: UVAHIK_clean_linker_0, # of connection points: 2
# Relax obj value: 0.094
# Max RMSD: 0.150
# Mean RMSD: 0.112
data_MOF--net-tsx--node1-CIFDUS_clean_sbu_1--node2-BETDIP_clean_linker_0--edge1-UVAHIK_clean_linker_0
_symmetry_space_group_name_H-M    P1
_symmetry_Int_Tables_number       1
_symmetry_cell_setting            triclinic
loop_
_symmetry_equiv_pos_as_xyz
'x, y, z'
_cell_length_a     23.885989
_cell_length_b     29.523014
_cell_length_c     43.927691
_cell_angle_alpha  97.234647
_cell_angle_beta   101.90444
_cell_angle_gamma 91.567747
loop_
_atom_site_label
_atom_site_type_symbol
_atom_site_fract_x
_atom_site_fract_y
_atom_site_fract_z
_atom_type_partial_charge
O0 O 1.01211 0.07339 0.01103 0.0
Mn1 Mn 0.06282 0.01654 0.01153 0.0
O2 O 0.9262 0.05034 0.97983 0.0
Mn3 Mn 0.9487 -0.005 0.96263 0.0
O4 O 0.11401 0.95982 0.01177 0.0
O5 O 0.13199 0.05931 0.02849 0.0
Mn6 Mn 0.1775 0.03912 0.06016 0.0
O7 O 0.05141 0.01059 0.05707 0.0
O8 O 0.19945 0.98345 0.04331 0.0
O9 O 0.07481 0.02257 0.96621 0.0
O10 O 0.99215 -0.00255 0.93247 0.0
O11 O 0.21246 0.09309 0.05431 0.0
O12 O 0.13381 0.03794 0.09032 0.0
C13 C 0.95628 0.93971 0.99014 0.0
C14 C 0.95969 0.08023 0.99904 0.0
C15 C 0.16659 0.95342 0.02383 0.0
C16 C 0.16822 0.09362 0.03176 0.0
C17 C 0.0817 0.02278 0.08491 0.0
C18 C 0.04448 0.01194 0.93828 0.0
O19 O 0.99337 0.97373 0.99428 0.0
O20 O 0.91306 0.94074 0.96705 0.0
O21 O 0.51167 0.57381 0.51113 0.0
Mn22 Mn 0.56228 0.51689 0.51151 0.0
O23 O 0.42559 0.55083 0.48009 0.0
Mn24 Mn 0.44786 0.49544 0.46281 0.0
O25 O 0.61332 0.46009 0.51162 0.0
O26 O 0.63157 0.55957 0.52835 0.0
Mn27 Mn 0.67722 0.53929 0.55993 0.0
O28 O 0.55118 0.51095 0.5571 0.0
O29 O 0.69896 0.48358 0.54299 0.0
O30 O 0.57394 0.52291 0.46612 0.0
O31 O 0.49109 0.49782 0.43254 0.0
O32 O 0.71222 0.59321 0.55405 0.0
O33 O 0.63378 0.53815 0.59021 0.0
C34 C 0.45566 0.44016 0.49034 0.0
C35 C 0.45922 0.5807 0.49924 0.0
C36 C 0.66593 0.45361 0.52357 0.0
C37 C 0.66787 0.59382 0.53158 0.0
C38 C 0.58165 0.52308 0.5849 0.0
C39 C 0.54343 0.51227 0.43824 0.0
O40 O 0.49273 0.47418 0.49438 0.0
O41 O 0.41228 0.44121 0.46735 0.0
H42 H 0.08829 0.97701 0.48984 0.0
H43 H 1.01353 0.0436 0.41101 0.0
H44 H 0.11639 0.92893 0.39746 0.0
H45 H 0.06801 0.10656 0.46228 0.0
C46 C 0.03264 0.09385 0.47155 0.0
C47 C 0.08185 0.97925 0.46494 0.0
C48 C 0.10695 0.94827 0.44529 0.0
C49 C 0.04952 0.01419 0.45272 0.0
C50 C 0.03986 0.01721 0.42044 0.0
C51 C 0.06235 0.98553 0.40023 0.0
C52 C 0.09648 0.95169 0.4129 0.0
N53 N 0.02639 0.04628 0.47292 0.0
H54 H 1.00002 0.00914 0.52522 0.0
H55 H 0.09343 0.07666 0.61461 0.0
H56 H 0.98377 0.95777 0.61071 0.0
H57 H 0.06462 0.14036 0.58464 0.0
C58 C 0.08627 0.12609 0.56642 0.0
C59 C 1.01089 0.01141 0.55057 0.0
C60 C 0.98764 0.97855 0.56577 0.0
C61 C 0.04811 0.04746 0.56812 0.0
C62 C 0.06308 0.04998 0.60105 0.0
C63 C 0.04091 0.01718 0.6165 0.0
C64 C 1.00281 0.98205 0.5987 0.0
N65 N 0.07216 0.07998 0.55247 0.0
H66 H 0.58893 0.47671 0.98986 0.0
H67 H 0.51423 0.54353 0.91114 0.0
H68 H 0.61684 0.42874 0.89742 0.0
H69 H 0.56893 0.60635 0.9625 0.0
C70 C 0.53351 0.59365 0.97175 0.0
C71 C 0.58248 0.47899 0.96497 0.0
C72 C 0.6075 0.44803 0.94527 0.0
C73 C 0.5502 0.514 0.9528 0.0
C74 C 0.54052 0.51709 0.92052 0.0
C75 C 0.56292 0.48541 0.90028 0.0
C76 C 0.597 0.45151 0.91289 0.0
N77 N 0.52714 0.54607 0.97304 0.0
H78 H 0.4992 0.50955 0.02507 0.0
H79 H 0.59228 0.57727 0.11448 0.0
H80 H 0.48265 0.45836 0.11056 0.0
H81 H 0.56371 0.64091 0.08444 0.0
C82 C 0.58538 0.62658 0.06625 0.0
C83 C 0.50997 0.5119 0.05042 0.0
C84 C 0.4867 0.47905 0.06563 0.0
C85 C 0.54711 0.54799 0.06798 0.0
C86 C 0.56198 0.55057 0.10092 0.0
C87 C 0.53976 0.51779 0.11637 0.0
C88 C 0.50172 0.48263 0.09856 0.0
N89 N 0.57124 0.58046 0.05232 0.0
C90 C 0.13494 0.17001 0.02249 0.0
C91 C 0.16276 0.13134 0.01278 0.0
C92 C 0.15118 0.21314 0.01604 0.0
C93 C 0.24134 0.29046 0.03282 0.0
H94 H 0.31335 0.32169 0.96615 0.0
C95 C 0.44995 0.39729 0.05721 0.0
C96 C 0.44565 0.44121 0.04799 0.0
C97 C 0.40632 0.36354 0.04516 0.0
C98 C 0.29267 0.31368 0.98472 0.0
H99 H 0.22493 0.10617 0.98628 0.0
H100 H 0.25322 0.18097 0.97482 0.0
H101 H 0.24339 0.25593 0.95602 0.0
H102 H 0.39412 0.48289 0.01693 0.0
H103 H 0.31776 0.42275 0.99519 0.0
H104 H 0.29306 0.34624 0.06197 0.0
C105 C 0.21844 0.17853 0.98703 0.0
C106 C 0.25285 0.27609 0.97901 0.0
C107 C 0.20209 0.1355 0.99346 0.0
C108 C 0.39868 0.44939 0.02447 0.0
C109 C 0.35497 0.41518 0.01212 0.0
C110 C 0.28133 0.32747 0.03853 0.0
C111 C 0.1961 0.21818 1.00016 0.0
C112 C 0.22793 0.26327 0.00331 0.0
C113 C 0.35775 0.37256 0.02324 0.0
C114 C 0.30852 0.3386 0.01485 0.0
H115 H 0.10541 0.16771 0.03801 0.0
H116 H 0.13238 0.24293 0.02603 0.0
H117 H 0.22405 0.28133 0.0523 0.0
H118 H 0.48614 0.38954 0.07475 0.0
H119 H 0.40956 0.3307 0.0538 0.0
C120 C 0.16222 0.86797 0.00802 0.0
C121 C 0.19257 0.91074 0.01385 0.0
C122 C 0.19003 0.82792 1.00077 0.0
C123 C 0.31107 0.78723 0.96798 0.0
H124 H 0.32763 0.69525 0.02449 0.0
C125 C 0.49934 0.67209 0.97686 0.0
C126 C 0.48991 0.62559 0.97876 0.0
C127 C 0.4567 0.7026 0.97991 0.0
C128 C 0.32264 0.72016 0.00815 0.0
H129 H 0.27452 0.94546 0.01543 0.0
H130 H 0.32197 0.87631 1.00196 0.0
H131 H 0.2601 0.75552 0.02956 0.0
H132 H 0.42942 0.57455 0.98675 0.0
H133 H 0.3542 0.62811 0.99186 0.0
H134 H 0.37389 0.75296 0.94683 0.0
C135 C 0.2773 0.8734 0.00341 0.0
C136 C 0.28391 0.75452 0.01102 0.0
C137 C 0.25018 0.91294 0.01129 0.0
C138 C 0.43774 0.6103 0.98507 0.0
C139 C 0.39474 0.64096 0.98804 0.0
C140 C 0.34928 0.75291 0.96497 0.0
C141 C 0.24784 0.83048 0.99838 0.0
C142 C 0.27926 0.78915 0.99158 0.0
C143 C 0.40333 0.6873 0.98475 0.0
C144 C 0.35711 0.71992 0.98572 0.0
H145 H 0.11779 0.86543 0.00996 0.0
H146 H 0.16651 0.79509 0.99697 0.0
H147 H 0.3078 0.81331 0.9525 0.0
H148 H 0.53944 0.68476 0.97233 0.0
H149 H 0.46543 0.73827 0.97816 0.0
C150 C 0.93439 0.91146 0.03706 0.0
C151 C 0.95761 0.90348 0.01018 0.0
C152 C 0.9094 0.87512 0.04816 0.0
C153 C 0.83222 0.76612 0.01248 0.0
H154 H 0.80872 0.75977 0.09653 0.0
C155 C 0.6661 0.63671 0.0382 0.0
C156 C 0.63332 0.65398 0.05973 0.0
C157 C 0.71336 0.66265 0.03407 0.0
C158 C 0.81465 0.76122 0.07288 0.0
H159 H 0.97823 0.85151 0.97559 0.0
H160 H 0.93717 0.78775 0.9957 0.0
H161 H 0.8844 0.81162 0.0887 0.0
H162 H 0.62339 0.71183 0.09334 0.0
H163 H 0.70493 0.75732 0.08584 0.0
H164 H 0.76147 0.71691 0.99651 0.0
C165 C 0.93681 0.82197 0.00787 0.0
C166 C 0.8582 0.79083 0.06842 0.0
C167 C 0.96133 0.85833 0.9967 0.0
C168 C 0.64808 0.69769 0.07665 0.0
C169 C 0.6952 0.72353 0.07259 0.0
C170 C 0.78876 0.73656 0.01693 0.0
C171 C 0.90718 0.83026 0.03241 0.0
C172 C 0.86688 0.79429 0.03809 0.0
C173 C 0.72878 0.70627 0.05145 0.0
C174 C 0.7786 0.73442 0.0471 0.0
H175 H 0.92974 0.94615 0.04732 0.0
H176 H 0.88697 0.88293 0.06708 0.0
H177 H 0.83665 0.76846 0.98868 0.0
H178 H 0.65575 0.60304 0.02484 0.0
H179 H 0.73838 0.64824 0.01766 0.0
C180 C 0.96622 0.16558 0.00391 0.0
C181 C 0.9365 0.12503 0.00643 0.0
C182 C 0.93902 0.20702 0.00487 0.0
C183 C 0.81456 0.26602 0.02512 0.0
H184 H 0.80641 0.31716 0.94729 0.0
C185 C 0.68497 0.42366 0.98754 0.0
C186 C 0.64652 0.41332 0.95828 0.0
C187 C 0.72506 0.39239 0.99825 0.0
C188 C 0.80884 0.30352 0.96927 0.0
H189 H 0.85705 0.09598 0.01396 0.0
H190 H 0.81013 0.16841 0.01651 0.0
H191 H 0.87291 0.2575 0.96011 0.0
H192 H 0.61825 0.36053 0.91839 0.0
H193 H 0.68967 0.30718 0.93654 0.0
H194 H 0.74931 0.31163 0.0338 0.0
C195 C 0.85411 0.16835 0.01364 0.0
C196 C 0.84716 0.26974 0.97674 0.0
C197 C 0.88079 0.12693 0.01203 0.0
C198 C 0.64809 0.37035 0.94057 0.0
C199 C 0.68877 0.33963 0.95098 0.0
C200 C 0.77692 0.30053 0.01791 0.0
C201 C 0.8822 0.2085 0.009 0.0
C202 C 0.8493 0.24979 0.00431 0.0
C203 C 0.72806 0.35061 0.97967 0.0
C204 C 0.77265 0.31855 0.98949 0.0
H205 H 1.00885 0.16474 0.99908 0.0
H206 H 0.96151 0.23755 1.00117 0.0
H207 H 0.81541 0.25109 0.0465 0.0
H208 H 0.68557 0.45651 1.00171 0.0
H209 H 0.75501 0.40148 0.02049 0.0
C210 C 0.70161 0.63574 0.49327 0.0
C211 C 0.66236 0.6316 0.51263 0.0
C212 C 0.71807 0.67878 0.48689 0.0
C213 C 0.7528 0.77634 0.47905 0.0
H214 H 0.79365 0.84602 0.56215 0.0
C215 C 0.89947 0.94914 0.52465 0.0
C216 C 0.94642 0.94082 0.54814 0.0
C217 C 0.85562 0.91504 0.5123 0.0
C218 C 0.78175 0.82739 0.53868 0.0
H219 H 0.60524 0.66801 0.538 0.0
H220 H 0.63241 0.74325 0.52613 0.0
H221 H 0.72435 0.78129 0.5524 0.0
H222 H 0.98672 0.889 0.57482 0.0
H223 H 0.90989 0.83037 0.55388 0.0
H224 H 0.81341 0.82188 0.46622 0.0
C225 C 0.65105 0.71344 0.51605 0.0
C226 C 0.74159 0.79049 0.53292 0.0
C227 C 0.6347 0.67031 0.52244 0.0
C228 C 0.95055 0.89687 0.55731 0.0
C229 C 0.90677 0.86323 0.54527 0.0
C230 C 0.79279 0.81383 0.4848 0.0
C231 C 0.69591 0.71844 0.50013 0.0
C232 C 0.72794 0.76346 0.50335 0.0
C233 C 0.85823 0.8724 0.52339 0.0
C234 C 0.80887 0.83857 0.51498 0.0
H235 H 0.72432 0.60638 0.48601 0.0
H236 H 0.75279 0.68119 0.47464 0.0
H237 H 0.74315 0.75631 0.45601 0.0
H238 H 0.89504 0.98266 0.51713 0.0
H239 H 0.81844 0.92273 0.4954 0.0
C240 C 0.74919 0.41299 0.5107 0.0
C241 C 0.69171 0.41087 0.51352 0.0
C242 C 0.77617 0.37339 0.5028 0.0
C243 C 0.78297 0.25465 0.51078 0.0
H244 H 0.87209 0.25256 0.44618 0.0
C245 C 0.93689 0.11043 0.48494 0.0
C246 C 0.98892 0.12574 0.47847 0.0
C247 C 0.8938 0.14103 0.48786 0.0
C248 C 0.84772 0.25265 0.46442 0.0
H249 H 0.61702 0.36565 0.51004 0.0
H250 H 0.66552 0.29521 0.497 0.0
H251 H 0.80601 0.31291 0.45185 0.0
H252 H 0.0381 0.18488 0.47168 0.0
H253 H 0.96393 0.23827 0.47741 0.0
H254 H 0.82693 0.19553 0.52435 0.0
C255 C 0.68903 0.32801 0.50062 0.0
C256 C 0.80952 0.28697 0.46744 0.0
C257 C 0.66135 0.36812 0.5079 0.0
C258 C 0.99812 0.17219 0.47635 0.0
C259 C 0.95538 0.20264 0.47933 0.0
C260 C 0.8217 0.22029 0.50791 0.0
C261 C 0.74672 0.3305 0.49799 0.0
C262 C 0.77804 0.2891 0.4912 0.0
C263 C 0.90216 0.18731 0.48435 0.0
C264 C 0.85586 0.21986 0.48532 0.0
H265 H 0.77353 0.44549 0.51468 0.0
H266 H 0.82076 0.37624 0.50116 0.0
H267 H 0.75942 0.25582 0.52944 0.0
H268 H 0.92876 0.07472 0.48679 0.0
H269 H 0.85337 0.12817 0.49182 0.0
C270 C 0.43406 0.41171 0.53725 0.0
C271 C 0.45726 0.40388 0.51036 0.0
C272 C 0.40935 0.37524 0.54836 0.0
C273 C 0.3327 0.26608 0.51267 0.0
H274 H 0.3095 0.25945 0.59674 0.0
C275 C 0.16692 0.13635 0.53835 0.0
C276 C 0.13419 0.15354 0.55993 0.0
C277 C 0.21416 0.16235 0.53424 0.0
C278 C 0.31535 0.26097 0.57308 0.0
H279 H 0.47813 0.35209 0.47574 0.0
H280 H 0.43753 0.28812 0.49584 0.0
H281 H 0.38495 0.31152 0.58889 0.0
H282 H 0.12428 0.21128 0.59363 0.0
H283 H 0.20574 0.25687 0.58614 0.0
H284 H 0.26209 0.21676 0.49671 0.0
C285 C 0.43699 0.3223 0.50803 0.0
C286 C 0.35876 0.29071 0.56862 0.0
C287 C 0.46124 0.35879 0.49685 0.0
C288 C 0.14895 0.19722 0.5769 0.0
C289 C 0.19602 0.22311 0.57285 0.0
C290 C 0.28937 0.23641 0.51713 0.0
C291 C 0.40739 0.33041 0.53259 0.0
C292 C 0.36732 0.29428 0.53828 0.0
C293 C 0.22957 0.20593 0.55166 0.0
C294 C 0.27931 0.23417 0.5473 0.0
H295 H 0.42921 0.44635 0.54752 0.0
H296 H 0.38693 0.38292 0.56729 0.0
H297 H 0.33704 0.2685 0.48886 0.0
H298 H 0.15656 0.10272 0.52495 0.0
H299 H 0.23915 0.14801 0.51778 0.0
C300 C 0.46585 0.66605 0.50411 0.0
C301 C 0.43613 0.62552 0.50668 0.0
C302 C 0.43869 0.70751 0.50507 0.0
C303 C 0.31425 0.76657 0.52536 0.0
H304 H 0.30605 0.81758 0.44747 0.0
C305 C 0.18441 0.92402 0.48761 0.0
C306 C 0.14601 0.91362 0.45834 0.0
C307 C 0.22454 0.8928 0.49836 0.0
C308 C 0.30849 0.80398 0.46947 0.0
H309 H 0.35673 0.59655 0.51432 0.0
H310 H 0.30988 0.669 0.51689 0.0
H311 H 0.3726 0.75797 0.46034 0.0
H312 H 0.11787 0.86076 0.41847 0.0
H313 H 0.18937 0.80752 0.43669 0.0
H314 H 0.24895 0.81215 0.53399 0.0
C315 C 0.35383 0.66892 0.51397 0.0
C316 C 0.34684 0.77023 0.47697 0.0
C317 C 0.38048 0.62747 0.51235 0.0
C318 C 0.14767 0.87064 0.44066 0.0
C319 C 0.18839 0.83997 0.45112 0.0
C320 C 0.27658 0.80105 0.51812 0.0
C321 C 0.3819 0.70903 0.50926 0.0
C322 C 0.34901 0.75032 0.50455 0.0
C323 C 0.22764 0.85102 0.47981 0.0
C324 C 0.27229 0.81901 0.48967 0.0
H325 H 0.50845 0.66517 0.49923 0.0
H326 H 0.46117 0.73801 0.50133 0.0
H327 H 0.31511 0.75167 0.54675 0.0
H328 H 0.18493 0.95688 0.50177 0.0
H329 H 0.25445 0.90194 0.52062 0.0
C330 C 0.02695 0.97905 0.11578 0.0
C331 C 0.05669 0.01926 0.11257 0.0
C332 C 1.01291 0.97341 0.14461 0.0
C333 C 0.99893 0.03524 0.22117 0.0
H334 H 0.06182 0.92868 0.25604 0.0
C335 C 0.05606 0.02971 0.35449 0.0
C336 C 0.05073 0.98782 0.36592 0.0
C337 C 0.04669 0.03155 0.32219 0.0
C338 C 0.04285 0.9582 0.24659 0.0
H339 H 0.09206 0.08598 0.13594 0.0
H340 H 0.06634 0.07674 0.18574 0.0
H341 H 0.05825 0.93517 0.20095 0.0
H342 H 0.02956 0.91525 0.35249 0.0
H343 H 1.01201 0.91847 0.29612 0.0
H344 H 0.98404 0.05868 0.26676 0.0
C345 C 0.05409 0.04945 0.16631 0.0
C346 C 0.0408 0.96184 0.21494 0.0
C347 C 0.06904 0.05468 0.13786 0.0
C348 C 0.03478 0.94794 0.34435 0.0
C349 C 0.02483 0.94981 0.31204 0.0
C350 C 1.00039 0.03141 0.25272 0.0
C351 C 0.02737 0.00831 0.17032 0.0
C352 C 0.0202 0.00094 0.20213 0.0
C353 C 0.03114 0.9916 0.30049 0.0
C354 C 0.0238 0.99341 0.2661 0.0
H355 H 0.01767 0.95107 0.0967 0.0
H356 H 0.99221 0.94137 0.14709 0.0
H357 H 0.98236 0.06559 0.21181 0.0
H358 H 0.06891 0.06093 0.37056 0.0
H359 H 0.05314 0.06423 0.31431 0.0
C360 C 0.08005 0.97544 0.89272 0.0
C361 C 0.0702 0.01555 0.91106 0.0
C362 C 0.09066 0.97702 0.86278 0.0
C363 C 0.11888 0.05411 0.80585 0.0
H364 H 0.02912 0.95839 0.74555 0.0
C365 C 0.05824 0.06055 0.67108 0.0
C366 C 0.05712 0.01913 0.65121 0.0
C367 C 0.06886 0.06128 0.70373 0.0
C368 C 0.05521 0.98499 0.76204 0.0
H369 H 0.06572 0.08892 0.91357 0.0
H370 H 0.08332 0.09192 0.8608 0.0
H371 H 0.03409 0.95751 0.80111 0.0
H372 H 0.07001 0.94658 0.65008 0.0
H373 H 0.08861 0.94784 0.70681 0.0
H374 H 0.13851 0.08209 0.76622 0.0
C375 C 0.08419 0.05929 0.86967 0.0
C376 C 0.05823 0.98444 0.79402 0.0
C377 C 0.07419 0.05769 0.89986 0.0
C378 C 0.06931 0.97887 0.66472 0.0
C379 C 0.07998 0.97961 0.69723 0.0
C380 C 0.11571 0.05472 0.77367 0.0
C381 C 0.09031 0.01869 0.85032 0.0
C382 C 0.09011 0.01889 0.8164 0.0
C383 C 0.07864 0.02061 0.71712 0.0
C384 C 0.08381 0.02009 0.75141 0.0
H385 H 0.07666 0.94256 0.90093 0.0
H386 H 0.09653 0.94524 0.84884 0.0
H387 H 0.14399 0.08107 0.82245 0.0
H388 H 0.04875 0.0921 0.66136 0.0
H389 H 0.06712 0.09337 0.71838 0.0
C390 C 0.56947 0.55491 0.63796 0.0
C391 C 0.55682 0.51957 0.61263 0.0
C392 C 0.55462 0.54968 0.66643 0.0
C393 C 0.54103 0.46205 0.71498 0.0
H394 H 0.48475 0.55897 0.76695 0.0
C395 C 0.53517 0.44795 0.84438 0.0
C396 C 0.55127 0.48778 0.86598 0.0
C397 C 0.52519 0.4499 0.81207 0.0
C398 C 0.50097 0.53168 0.75287 0.0
H399 H 0.5174 0.45152 0.59671 0.0
H400 H 0.49211 0.44181 0.64713 0.0
H401 H 0.48302 0.56598 0.71201 0.0
H402 H 0.5697 0.56087 0.8707 0.0
H403 H 0.55387 0.56429 0.81446 0.0
H404 H 0.56197 0.42876 0.75602 0.0
C405 C 0.51296 0.47379 0.64467 0.0
C406 C 0.49948 0.53557 0.72133 0.0
C407 C 0.52691 0.47943 0.61582 0.0
C408 C 0.55673 0.52969 0.8546 0.0
C409 C 0.54733 0.5316 0.82231 0.0
C410 C 0.54312 0.45835 0.74663 0.0
C411 C 0.52769 0.50862 0.67041 0.0
C412 C 0.52057 0.50123 0.70223 0.0
C413 C 0.53162 0.4917 0.80057 0.0
C414 C 0.52425 0.49359 0.76619 0.0
H415 H 0.59263 0.58615 0.63605 0.0
H416 H 0.56707 0.57691 0.68588 0.0
H417 H 0.55833 0.43534 0.70093 0.0
H418 H 0.52986 0.41525 0.85249 0.0
H419 H 0.51224 0.4186 0.79612 0.0
C420 C 0.57812 0.47566 0.39241 0.0
C421 C 0.56894 0.5158 0.41094 0.0
C422 C 0.5886 0.47728 0.36246 0.0
C423 C 0.61759 0.55446 0.30574 0.0
H424 H 0.52688 0.4594 0.24529 0.0
C425 C 0.55711 0.56121 0.17095 0.0
C426 C 0.5559 0.51976 0.15109 0.0
C427 C 0.56764 0.56195 0.2036 0.0
C428 C 0.55321 0.48581 0.26183 0.0
H429 H 0.56554 0.58927 0.41375 0.0
H430 H 0.58287 0.59236 0.36093 0.0
H431 H 0.53176 0.4584 0.30084 0.0
H432 H 0.56857 0.44718 0.14998 0.0
H433 H 0.58692 0.44846 0.20671 0.0
H434 H 0.63754 0.5824 0.26615 0.0
C435 C 0.58332 0.55965 0.36968 0.0
C436 C 0.55619 0.4852 0.29379 0.0
C437 C 0.57347 0.558 0.3999 0.0
C438 C 0.56792 0.47949 0.16461 0.0
C439 C 0.57847 0.48024 0.19712 0.0
C440 C 0.61444 0.55516 0.27356 0.0
C441 C 0.58877 0.51905 0.35015 0.0
C442 C 0.58846 0.5194 0.31623 0.0
C443 C 0.57721 0.52126 0.21699 0.0
C444 C 0.58222 0.52074 0.25126 0.0
H445 H 0.57433 0.44274 0.40051 0.0
H446 H 0.59398 0.44549 0.34839 0.0
H447 H 0.64301 0.58123 0.32238 0.0
H448 H 0.54777 0.59277 0.16122 0.0
H449 H 0.56599 0.59406 0.21825 0.0
loop_
_geom_bond_atom_site_label_1
_geom_bond_atom_site_label_2
_geom_bond_distance
_geom_bond_site_symmetry_2
_ccdc_geom_bond_type
O0 Mn1 2.163 . S
O0 C14 1.244 1_454 S
Mn1 O0 2.163 . S
Mn1 O4 2.162 1_545 S
Mn1 O5 2.221 . S
Mn1 O7 2.163 . S
Mn1 O9 2.160 1_554 S
Mn1 O19 2.221 1_444 S
O2 Mn3 2.087 1_545 S
O2 C14 1.256 . S
Mn3 O2 2.087 1_565 S
Mn3 O10 2.089 1_565 S
Mn3 O19 2.290 . S
Mn3 O20 2.251 . S
O4 Mn1 2.162 1_565 S
O4 C15 1.255 . S
O5 Mn1 2.221 . S
O5 Mn6 2.290 . S
O5 C16 1.278 . S
Mn6 O5 2.290 . S
Mn6 O8 2.089 1_545 S
Mn6 O11 2.251 . S
Mn6 O12 2.087 . S
O7 Mn1 2.163 . S
O7 C17 1.244 . S
O8 Mn6 2.089 1_565 S
O8 C15 1.256 . S
O9 Mn1 2.160 1_556 S
O9 C18 1.239 . S
O10 Mn3 2.089 1_545 S
O10 C18 1.256 1_655 S
O11 Mn6 2.251 . S
O11 C16 1.241 . S
O12 Mn6 2.087 . S
O12 C17 1.256 . S
C13 O19 1.290 . S
C13 O20 1.244 . S
C14 O0 1.244 1_656 S
C14 O2 1.256 . S
C15 O4 1.255 . S
C15 O8 1.256 . S
C16 O5 1.278 . S
C16 O11 1.241 . S
C17 O7 1.244 . S
C17 O12 1.256 . S
C18 O9 1.239 . S
C18 O10 1.256 1_455 S
O19 Mn1 2.221 1_666 S
O19 Mn3 2.290 . S
O19 C13 1.290 . S
O20 Mn3 2.251 . S
O20 C13 1.244 . S
O21 Mn22 2.163 . S
O21 C35 1.244 . S
Mn22 O21 2.163 . S
Mn22 O25 2.160 . S
Mn22 O26 2.221 . S
Mn22 O28 2.163 . S
Mn22 O30 2.160 . S
Mn22 O40 2.221 . S
O23 Mn24 2.087 . S
O23 C35 1.256 . S
Mn24 O23 2.087 . S
Mn24 O31 2.089 . S
Mn24 O40 2.290 . S
Mn24 O41 2.251 . S
O25 Mn22 2.160 . S
O25 C36 1.239 . S
O26 Mn22 2.221 . S
O26 Mn27 2.290 . S
O26 C37 1.278 . S
Mn27 O26 2.290 . S
Mn27 O29 2.089 . S
Mn27 O32 2.251 . S
Mn27 O33 2.087 . S
O28 Mn22 2.163 . S
O28 C38 1.244 . S
O29 Mn27 2.089 . S
O29 C36 1.256 . S
O30 Mn22 2.160 . S
O30 C39 1.239 . S
O31 Mn24 2.089 . S
O31 C39 1.256 . S
O32 Mn27 2.251 . S
O32 C37 1.241 . S
O33 Mn27 2.087 . S
O33 C38 1.256 . S
C34 O40 1.278 . S
C34 O41 1.241 . S
C35 O21 1.244 . S
C35 O23 1.256 . S
C36 O25 1.239 . S
C36 O29 1.256 . S
C37 O26 1.278 . S
C37 O32 1.241 . S
C38 O28 1.244 . S
C38 O33 1.256 . S
C39 O30 1.239 . S
C39 O31 1.256 . S
O40 Mn22 2.221 . S
O40 Mn24 2.290 . S
O40 C34 1.278 . S
O41 Mn24 2.251 . S
O41 C34 1.241 . S
H42 C47 0.930 . S
H43 C50 0.930 . S
H44 C52 0.930 . S
H45 C46 1.016 . S
C46 H45 1.016 . S
C46 N53 1.286 1_655 S
C47 H42 0.930 . S
C47 C48 1.397 . S
C47 C49 1.361 1_565 S
C48 C47 1.397 . S
C48 C52 1.390 . S
C49 C47 1.361 1_545 S
C49 C50 1.393 . S
C49 N53 1.413 . S
C50 H43 0.930 . S
C50 C49 1.393 . S
C50 C51 1.399 1_545 S
C51 C50 1.399 1_565 S
C51 C52 1.381 . S
C52 H44 0.930 . S
C52 C48 1.390 . S
C52 C51 1.381 . S
N53 C46 1.286 1_455 S
N53 C49 1.413 . S
H54 C59 0.930 . S
H55 C62 0.930 . S
H56 C64 0.930 . S
H57 C58 1.016 . S
C58 H57 1.016 . S
C58 N65 1.286 . S
C59 H54 0.930 . S
C59 C60 1.397 . S
C59 C61 1.361 1_655 S
C60 C59 1.397 . S
C60 C64 1.390 . S
C61 C59 1.361 1_455 S
C61 C62 1.393 . S
C61 N65 1.413 . S
C62 H55 0.930 . S
C62 C61 1.393 . S
C62 C63 1.399 1_455 S
C63 C62 1.399 1_655 S
C63 C64 1.381 . S
C64 H56 0.930 . S
C64 C60 1.390 . S
C64 C63 1.381 . S
N65 C58 1.286 . S
N65 C61 1.413 . S
H66 C71 0.930 . S
H67 C74 0.930 . S
H68 C76 0.930 . S
H69 C70 1.016 . S
C70 H69 1.016 . S
C70 N77 1.286 . S
C71 H66 0.930 . S
C71 C72 1.397 . S
C71 C73 1.361 . S
C72 C71 1.397 . S
C72 C76 1.390 . S
C73 C71 1.361 . S
C73 C74 1.393 . S
C73 N77 1.413 . S
C74 H67 0.930 . S
C74 C73 1.393 . S
C74 C75 1.399 . S
C75 C74 1.399 . S
C75 C76 1.381 . S
C76 H68 0.930 . S
C76 C72 1.390 . S
C76 C75 1.381 . S
N77 C70 1.286 . S
N77 C73 1.413 . S
H78 C83 0.930 . S
H79 C86 0.930 . S
H80 C88 0.930 . S
H81 C82 1.016 . S
C82 H81 1.016 . S
C82 N89 1.286 . S
C83 H78 0.930 . S
C83 C84 1.397 . S
C83 C85 1.361 . S
C84 C83 1.397 . S
C84 C88 1.390 . S
C85 C83 1.361 . S
C85 C86 1.393 . S
C85 N89 1.413 . S
C86 H79 0.930 . S
C86 C85 1.393 . S
C86 C87 1.399 . S
C87 C86 1.399 . S
C87 C88 1.381 . S
C88 H80 0.930 . S
C88 C84 1.390 . S
C88 C87 1.381 . S
N89 C82 1.286 . S
N89 C85 1.413 . S
C90 C91 1.349 1_556 S
C90 C92 1.327 1_556 S
C90 H115 0.950 . S
C91 C90 1.349 1_554 S
C91 C107 1.349 . S
C92 C90 1.327 1_554 S
C92 C111 1.431 . S
C92 H116 0.947 1_554 S
C93 C110 1.574 . S
C93 C112 1.368 . S
C93 H117 0.949 . S
H94 C98 0.949 1_556 S
C95 C96 1.349 . S
C95 C97 1.327 . S
C95 H118 0.950 . S
C96 C95 1.349 . S
C96 C108 1.349 . S
C97 C95 1.327 . S
C97 C113 1.429 . S
C97 H119 0.950 . S
C98 H94 0.949 1_554 S
C98 C106 1.574 . S
C98 C114 1.368 . S
H99 C107 0.950 . S
H100 C105 0.950 . S
H101 C106 0.949 1_556 S
H102 C108 0.950 . S
H103 C109 0.950 . S
H104 C110 0.949 . S
C105 H100 0.950 . S
C105 C107 1.327 . S
C105 C111 1.429 . S
C106 C98 1.574 . S
C106 H101 0.949 1_554 S
C106 C112 1.368 . S
C107 C91 1.349 . S
C107 H99 0.950 . S
C107 C105 1.327 . S
C108 C96 1.349 . S
C108 H102 0.950 . S
C108 C109 1.327 . S
C109 H103 0.950 . S
C109 C108 1.327 . S
C109 C113 1.429 . S
C110 C93 1.574 . S
C110 H104 0.949 . S
C110 C114 1.368 . S
C111 C92 1.431 . S
C111 C105 1.429 . S
C111 C112 1.523 . S
C112 C93 1.368 . S
C112 C106 1.368 . S
C112 C111 1.523 . S
C113 C97 1.429 . S
C113 C109 1.429 . S
C113 C114 1.523 . S
C114 C98 1.368 . S
C114 C110 1.368 . S
C114 C113 1.523 . S
H115 C90 0.950 . S
H116 C92 0.947 1_556 S
H117 C93 0.949 . S
H118 C95 0.950 . S
H119 C97 0.950 . S
C120 C121 1.349 . S
C120 C122 1.327 . S
C120 H145 0.950 . S
C121 C120 1.349 . S
C121 C137 1.349 1_554 S
C122 C120 1.327 . S
C122 C141 1.429 . S
C122 H146 0.950 . S
C123 C140 1.574 . S
C123 C142 1.368 . S
C123 H147 0.949 . S
H124 C128 0.949 . S
C125 C126 1.349 . S
C125 C127 1.327 . S
C125 H148 0.950 . S
C126 C125 1.349 . S
C126 C138 1.352 1_556 S
C127 C125 1.327 . S
C127 C143 1.429 . S
C127 H149 0.950 . S
C128 H124 0.949 . S
C128 C136 1.574 . S
C128 C144 1.368 1_554 S
H129 C137 0.950 . S
H130 C135 0.950 . S
H131 C136 0.949 . S
H132 C138 0.947 . S
H133 C139 0.950 . S
H134 C140 0.949 . S
C135 H130 0.950 . S
C135 C137 1.327 . S
C135 C141 1.429 1_556 S
C136 C128 1.574 . S
C136 H131 0.949 . S
C136 C142 1.368 1_554 S
C137 C121 1.349 1_556 S
C137 H129 0.950 . S
C137 C135 1.327 . S
C138 C126 1.352 1_554 S
C138 H132 0.947 . S
C138 C139 1.326 . S
C139 H133 0.950 . S
C139 C138 1.326 . S
C139 C143 1.429 1_554 S
C140 C123 1.574 . S
C140 H134 0.949 . S
C140 C144 1.368 . S
C141 C122 1.429 . S
C141 C135 1.429 1_554 S
C141 C142 1.523 1_554 S
C142 C123 1.368 . S
C142 C136 1.368 1_556 S
C142 C141 1.523 1_556 S
C143 C127 1.429 . S
C143 C139 1.429 1_556 S
C143 C144 1.523 . S
C144 C128 1.368 1_556 S
C144 C140 1.368 . S
C144 C143 1.523 . S
H145 C120 0.950 . S
H146 C122 0.950 . S
H147 C123 0.949 . S
H148 C125 0.950 . S
H149 C127 0.950 . S
C150 C151 1.349 . S
C150 C152 1.327 . S
C150 H175 0.950 . S
C151 C150 1.349 . S
C151 C167 1.349 1_554 S
C152 C150 1.327 . S
C152 C171 1.429 . S
C152 H176 0.950 . S
C153 C170 1.574 . S
C153 C172 1.368 . S
C153 H177 0.949 1_554 S
H154 C158 0.949 . S
C155 C156 1.349 . S
C155 C157 1.327 . S
C155 H178 0.950 . S
C156 C155 1.349 . S
C156 C168 1.349 . S
C157 C155 1.327 . S
C157 C173 1.429 . S
C157 H179 0.944 1_554 S
C158 H154 0.949 . S
C158 C166 1.574 . S
C158 C174 1.368 . S
H159 C167 0.950 . S
H160 C165 0.950 . S
H161 C166 0.949 . S
H162 C168 0.950 . S
H163 C169 0.950 . S
H164 C170 0.949 1_556 S
C165 H160 0.950 . S
C165 C167 1.327 . S
C165 C171 1.429 1_556 S
C166 C158 1.574 . S
C166 H161 0.949 . S
C166 C172 1.368 . S
C167 C151 1.349 1_556 S
C167 H159 0.950 . S
C167 C165 1.327 . S
C168 C156 1.349 . S
C168 H162 0.950 . S
C168 C169 1.327 . S
C169 H163 0.950 . S
C169 C168 1.327 . S
C169 C173 1.429 . S
C170 C153 1.574 . S
C170 H164 0.949 1_554 S
C170 C174 1.368 . S
C171 C152 1.429 . S
C171 C165 1.429 1_554 S
C171 C172 1.523 . S
C172 C153 1.368 . S
C172 C166 1.368 . S
C172 C171 1.523 . S
C173 C157 1.429 . S
C173 C169 1.429 . S
C173 C174 1.523 . S
C174 C158 1.368 . S
C174 C170 1.368 . S
C174 C173 1.523 . S
H175 C150 0.950 . S
H176 C152 0.950 . S
H177 C153 0.949 1_556 S
H178 C155 0.950 . S
H179 C157 0.944 1_556 S
C180 C181 1.349 . S
C180 C182 1.327 . S
C180 H205 0.950 . S
C181 C180 1.349 . S
C181 C197 1.349 1_556 S
C182 C180 1.327 . S
C182 C201 1.429 . S
C182 H206 0.950 . S
C183 C200 1.571 1_554 S
C183 C202 1.368 1_554 S
C183 H207 0.949 . S
H184 C188 0.949 . S
C185 C186 1.349 . S
C185 C187 1.327 . S
C185 H208 0.950 . S
C186 C185 1.349 . S
C186 C198 1.349 . S
C187 C185 1.327 . S
C187 C203 1.429 . S
C187 H209 0.950 1_556 S
C188 H184 0.949 . S
C188 C196 1.574 . S
C188 C204 1.368 . S
H189 C197 0.950 . S
H190 C195 0.950 . S
H191 C196 0.949 . S
H192 C198 0.950 . S
H193 C199 0.950 . S
H194 C200 0.937 1_554 S
C195 H190 0.950 . S
C195 C197 1.327 . S
C195 C201 1.429 1_554 S
C196 C188 1.574 . S
C196 H191 0.949 . S
C196 C202 1.368 . S
C197 C181 1.349 1_554 S
C197 H189 0.950 . S
C197 C195 1.327 . S
C198 C186 1.349 . S
C198 H192 0.950 . S
C198 C199 1.327 . S
C199 H193 0.950 . S
C199 C198 1.327 . S
C199 C203 1.429 . S
C200 C183 1.571 1_556 S
C200 H194 0.937 1_556 S
C200 C204 1.384 . S
C201 C182 1.429 . S
C201 C195 1.429 1_556 S
C201 C202 1.523 . S
C202 C183 1.368 1_556 S
C202 C196 1.368 . S
C202 C201 1.523 . S
C203 C187 1.429 . S
C203 C199 1.429 . S
C203 C204 1.523 . S
C204 C188 1.368 . S
C204 C200 1.384 . S
C204 C203 1.523 . S
H205 C180 0.950 . S
H206 C182 0.950 . S
H207 C183 0.949 . S
H208 C185 0.950 . S
H209 C187 0.950 1_554 S
C210 C211 1.349 . S
C210 C212 1.327 . S
C210 H235 0.950 . S
C211 C210 1.349 . S
C211 C227 1.349 . S
C212 C210 1.327 . S
C212 C231 1.429 . S
C212 H236 0.950 . S
C213 C230 1.574 . S
C213 C232 1.368 . S
C213 H237 0.949 . S
H214 C218 0.949 . S
C215 C216 1.349 . S
C215 C217 1.327 . S
C215 H238 0.950 . S
C216 C215 1.349 . S
C216 C228 1.349 . S
C217 C215 1.327 . S
C217 C233 1.429 . S
C217 H239 0.950 . S
C218 H214 0.949 . S
C218 C226 1.574 . S
C218 C234 1.368 . S
H219 C227 0.950 . S
H220 C225 0.950 . S
H221 C226 0.949 . S
H222 C228 0.950 . S
H223 C229 0.950 . S
H224 C230 0.949 . S
C225 H220 0.950 . S
C225 C227 1.327 . S
C225 C231 1.429 . S
C226 C218 1.574 . S
C226 H221 0.949 . S
C226 C232 1.368 . S
C227 C211 1.349 . S
C227 H219 0.950 . S
C227 C225 1.327 . S
C228 C216 1.349 . S
C228 H222 0.950 . S
C228 C229 1.327 . S
C229 H223 0.950 . S
C229 C228 1.327 . S
C229 C233 1.429 . S
C230 C213 1.574 . S
C230 H224 0.949 . S
C230 C234 1.368 . S
C231 C212 1.429 . S
C231 C225 1.429 . S
C231 C232 1.523 . S
C232 C213 1.368 . S
C232 C226 1.368 . S
C232 C231 1.523 . S
C233 C217 1.429 . S
C233 C229 1.429 . S
C233 C234 1.523 . S
C234 C218 1.368 . S
C234 C230 1.368 . S
C234 C233 1.523 . S
H235 C210 0.950 . S
H236 C212 0.950 . S
H237 C213 0.949 . S
H238 C215 0.950 . S
H239 C217 0.950 . S
C240 C241 1.349 . S
C240 C242 1.327 . S
C240 H265 0.950 . S
C241 C240 1.349 . S
C241 C257 1.349 . S
C242 C240 1.327 . S
C242 C261 1.429 . S
C242 H266 0.950 . S
C243 C260 1.574 . S
C243 C262 1.368 . S
C243 H267 0.949 . S
H244 C248 0.949 . S
C245 C246 1.349 . S
C245 C247 1.327 . S
C245 H268 0.950 . S
C246 C245 1.349 . S
C246 C258 1.349 . S
C247 C245 1.327 . S
C247 C263 1.429 . S
C247 H269 0.950 . S
C248 H244 0.949 . S
C248 C256 1.574 . S
C248 C264 1.368 . S
H249 C257 0.950 . S
H250 C255 0.950 . S
H251 C256 0.949 . S
H252 C258 0.950 . S
H253 C259 0.950 . S
H254 C260 0.949 . S
C255 H250 0.950 . S
C255 C257 1.327 . S
C255 C261 1.429 . S
C256 C248 1.574 . S
C256 H251 0.949 . S
C256 C262 1.368 . S
C257 C241 1.349 . S
C257 H249 0.950 . S
C257 C255 1.327 . S
C258 C246 1.349 . S
C258 H252 0.950 . S
C258 C259 1.327 . S
C259 H253 0.950 . S
C259 C258 1.327 . S
C259 C263 1.429 . S
C260 C243 1.574 . S
C260 H254 0.949 . S
C260 C264 1.368 . S
C261 C242 1.429 . S
C261 C255 1.429 . S
C261 C262 1.523 . S
C262 C243 1.368 . S
C262 C256 1.368 . S
C262 C261 1.523 . S
C263 C247 1.429 . S
C263 C259 1.429 . S
C263 C264 1.523 . S
C264 C248 1.368 . S
C264 C260 1.368 . S
C264 C263 1.523 . S
H265 C240 0.950 . S
H266 C242 0.950 . S
H267 C243 0.949 . S
H268 C245 0.950 . S
H269 C247 0.950 . S
C270 C271 1.349 . S
C270 C272 1.327 . S
C270 H295 0.950 . S
C271 C270 1.349 . S
C271 C287 1.349 . S
C272 C270 1.327 . S
C272 C291 1.429 . S
C272 H296 0.950 . S
C273 C290 1.574 . S
C273 C292 1.368 . S
C273 H297 0.949 . S
H274 C278 0.949 . S
C275 C276 1.349 . S
C275 C277 1.327 . S
C275 H298 0.950 . S
C276 C275 1.349 . S
C276 C288 1.349 . S
C277 C275 1.327 . S
C277 C293 1.429 . S
C277 H299 0.950 . S
C278 H274 0.949 . S
C278 C286 1.574 . S
C278 C294 1.368 . S
H279 C287 0.950 . S
H280 C285 0.950 . S
H281 C286 0.949 . S
H282 C288 0.950 . S
H283 C289 0.950 . S
H284 C290 0.949 . S
C285 H280 0.950 . S
C285 C287 1.327 . S
C285 C291 1.429 . S
C286 C278 1.574 . S
C286 H281 0.949 . S
C286 C292 1.368 . S
C287 C271 1.349 . S
C287 H279 0.950 . S
C287 C285 1.327 . S
C288 C276 1.349 . S
C288 H282 0.950 . S
C288 C289 1.327 . S
C289 H283 0.950 . S
C289 C288 1.327 . S
C289 C293 1.429 . S
C290 C273 1.574 . S
C290 H284 0.949 . S
C290 C294 1.368 . S
C291 C272 1.429 . S
C291 C285 1.429 . S
C291 C292 1.523 . S
C292 C273 1.368 . S
C292 C286 1.368 . S
C292 C291 1.523 . S
C293 C277 1.429 . S
C293 C289 1.429 . S
C293 C294 1.523 . S
C294 C278 1.368 . S
C294 C290 1.368 . S
C294 C293 1.523 . S
H295 C270 0.950 . S
H296 C272 0.950 . S
H297 C273 0.949 . S
H298 C275 0.950 . S
H299 C277 0.950 . S
C300 C301 1.349 . S
C300 C302 1.327 . S
C300 H325 0.950 . S
C301 C300 1.349 . S
C301 C317 1.349 . S
C302 C300 1.327 . S
C302 C321 1.429 . S
C302 H326 0.950 . S
C303 C320 1.574 . S
C303 C322 1.368 . S
C303 H327 0.949 . S
H304 C308 0.949 . S
C305 C306 1.349 . S
C305 C307 1.327 . S
C305 H328 0.950 . S
C306 C305 1.349 . S
C306 C318 1.349 . S
C307 C305 1.327 . S
C307 C323 1.429 . S
C307 H329 0.950 . S
C308 H304 0.949 . S
C308 C316 1.574 . S
C308 C324 1.368 . S
H309 C317 0.950 . S
H310 C315 0.950 . S
H311 C316 0.949 . S
H312 C318 0.950 . S
H313 C319 0.950 . S
H314 C320 0.949 . S
C315 H310 0.950 . S
C315 C317 1.327 . S
C315 C321 1.429 . S
C316 C308 1.574 . S
C316 H311 0.949 . S
C316 C322 1.368 . S
C317 C301 1.349 . S
C317 H309 0.950 . S
C317 C315 1.327 . S
C318 C306 1.349 . S
C318 H312 0.950 . S
C318 C319 1.327 . S
C319 H313 0.950 . S
C319 C318 1.327 . S
C319 C323 1.429 . S
C320 C303 1.574 . S
C320 H314 0.949 . S
C320 C324 1.368 . S
C321 C302 1.429 . S
C321 C315 1.429 . S
C321 C322 1.523 . S
C322 C303 1.368 . S
C322 C316 1.368 . S
C322 C321 1.523 . S
C323 C307 1.429 . S
C323 C319 1.429 . S
C323 C324 1.523 . S
C324 C308 1.368 . S
C324 C320 1.368 . S
C324 C323 1.523 . S
H325 C300 0.950 . S
H326 C302 0.950 . S
H327 C303 0.949 . S
H328 C305 0.950 . S
H329 C307 0.950 . S
C330 C331 1.349 1_565 S
C330 C332 1.327 . S
C330 H355 0.950 . S
C331 C330 1.349 1_545 S
C331 C347 1.349 . S
C332 C330 1.327 . S
C332 C351 1.430 1_565 S
C332 H356 0.950 . S
C333 C350 1.574 . S
C333 C352 1.368 1_545 S
C333 H357 0.949 . S
H334 C338 0.949 . S
C335 C336 1.349 1_545 S
C335 C337 1.327 . S
C335 H358 0.950 . S
C336 C335 1.349 1_565 S
C336 C348 1.349 . S
C337 C335 1.327 . S
C337 C353 1.429 1_545 S
C337 H359 0.950 . S
C338 H334 0.949 . S
C338 C346 1.574 . S
C338 C354 1.368 . S
H339 C347 0.950 . S
H340 C345 0.950 . S
H341 C346 0.949 . S
H342 C348 0.950 . S
H343 C349 0.950 . S
H344 C350 0.949 . S
C345 H340 0.950 . S
C345 C347 1.327 . S
C345 C351 1.427 . S
C346 C338 1.574 . S
C346 H341 0.949 . S
C346 C352 1.368 . S
C347 C331 1.349 . S
C347 H339 0.950 . S
C347 C345 1.327 . S
C348 C336 1.349 . S
C348 H342 0.950 . S
C348 C349 1.327 . S
C349 H343 0.950 . S
C349 C348 1.327 . S
C349 C353 1.429 . S
C350 C333 1.574 . S
C350 H344 0.949 . S
C350 C354 1.368 1_545 S
C351 C332 1.430 1_545 S
C351 C345 1.427 . S
C351 C352 1.523 1_545 S
C352 C333 1.368 1_565 S
C352 C346 1.368 . S
C352 C351 1.523 1_565 S
C353 C337 1.429 1_565 S
C353 C349 1.429 . S
C353 C354 1.523 . S
C354 C338 1.368 . S
C354 C350 1.368 1_565 S
C354 C353 1.523 . S
H355 C330 0.950 . S
H356 C332 0.950 . S
H357 C333 0.949 . S
H358 C335 0.950 . S
H359 C337 0.950 . S
C360 C361 1.349 1_565 S
C360 C362 1.327 1_455 S
C360 H385 0.950 1_455 S
C361 C360 1.349 1_545 S
C361 C377 1.349 . S
C362 C360 1.327 1_655 S
C362 C381 1.429 1_665 S
C362 H386 0.950 . S
C363 C380 1.574 . S
C363 C382 1.368 . S
C363 H387 0.949 . S
H364 C368 0.949 1_565 S
C365 C366 1.349 1_455 S
C365 C367 1.327 . S
C365 H388 0.950 . S
C366 C365 1.349 1_655 S
C366 C378 1.349 . S
C367 C365 1.327 . S
C367 C383 1.429 . S
C367 H389 0.950 . S
C368 H364 0.949 1_545 S
C368 C376 1.574 . S
C368 C384 1.368 1_655 S
H369 C377 0.950 . S
H370 C375 0.950 . S
H371 C376 0.949 1_565 S
H372 C378 0.950 1_565 S
H373 C379 0.950 1_565 S
H374 C380 0.949 . S
C375 H370 0.950 . S
C375 C377 1.327 . S
C375 C381 1.429 . S
C376 C368 1.574 . S
C376 H371 0.949 1_545 S
C376 C382 1.368 1_655 S
C377 C361 1.349 . S
C377 H369 0.950 . S
C377 C375 1.327 . S
C378 C366 1.349 . S
C378 H372 0.950 1_545 S
C378 C379 1.327 . S
C379 H373 0.950 1_545 S
C379 C378 1.327 . S
C379 C383 1.429 1_655 S
C380 C363 1.574 . S
C380 H374 0.949 . S
C380 C384 1.368 . S
C381 C362 1.429 1_445 S
C381 C375 1.429 . S
C381 C382 1.523 . S
C382 C363 1.368 . S
C382 C376 1.368 1_455 S
C382 C381 1.523 . S
C383 C367 1.429 . S
C383 C379 1.429 1_455 S
C383 C384 1.523 . S
C384 C368 1.368 1_455 S
C384 C380 1.368 . S
C384 C383 1.523 . S
H385 C360 0.950 1_655 S
H386 C362 0.950 . S
H387 C363 0.949 . S
H388 C365 0.950 . S
H389 C367 0.950 . S
C390 C391 1.349 . S
C390 C392 1.327 . S
C390 H415 0.950 . S
C391 C390 1.349 . S
C391 C407 1.349 . S
C392 C390 1.327 . S
C392 C411 1.429 . S
C392 H416 0.950 . S
C393 C410 1.574 . S
C393 C412 1.368 . S
C393 H417 0.949 . S
H394 C398 0.949 . S
C395 C396 1.349 . S
C395 C397 1.327 . S
C395 H418 0.950 . S
C396 C395 1.349 . S
C396 C408 1.349 . S
C397 C395 1.327 . S
C397 C413 1.429 . S
C397 H419 0.950 . S
C398 H394 0.949 . S
C398 C406 1.574 . S
C398 C414 1.368 . S
H399 C407 0.950 . S
H400 C405 0.950 . S
H401 C406 0.949 . S
H402 C408 0.950 . S
H403 C409 0.950 . S
H404 C410 0.949 . S
C405 H400 0.950 . S
C405 C407 1.327 . S
C405 C411 1.429 . S
C406 C398 1.574 . S
C406 H401 0.949 . S
C406 C412 1.368 . S
C407 C391 1.349 . S
C407 H399 0.950 . S
C407 C405 1.327 . S
C408 C396 1.349 . S
C408 H402 0.950 . S
C408 C409 1.327 . S
C409 H403 0.950 . S
C409 C408 1.327 . S
C409 C413 1.429 . S
C410 C393 1.574 . S
C410 H404 0.949 . S
C410 C414 1.368 . S
C411 C392 1.429 . S
C411 C405 1.429 . S
C411 C412 1.523 . S
C412 C393 1.368 . S
C412 C406 1.368 . S
C412 C411 1.523 . S
C413 C397 1.429 . S
C413 C409 1.429 . S
C413 C414 1.523 . S
C414 C398 1.368 . S
C414 C410 1.368 . S
C414 C413 1.523 . S
H415 C390 0.950 . S
H416 C392 0.950 . S
H417 C393 0.949 . S
H418 C395 0.950 . S
H419 C397 0.950 . S
C420 C421 1.349 . S
C420 C422 1.327 . S
C420 H445 0.950 . S
C421 C420 1.349 . S
C421 C437 1.349 . S
C422 C420 1.327 . S
C422 C441 1.429 . S
C422 H446 0.950 . S
C423 C440 1.574 . S
C423 C442 1.368 . S
C423 H447 0.949 . S
H424 C428 0.949 . S
C425 C426 1.349 . S
C425 C427 1.327 . S
C425 H448 0.950 . S
C426 C425 1.349 . S
C426 C438 1.349 . S
C427 C425 1.327 . S
C427 C443 1.429 . S
C427 H449 0.950 . S
C428 H424 0.949 . S
C428 C436 1.574 . S
C428 C444 1.368 . S
H429 C437 0.950 . S
H430 C435 0.950 . S
H431 C436 0.949 . S
H432 C438 0.950 . S
H433 C439 0.950 . S
H434 C440 0.949 . S
C435 H430 0.950 . S
C435 C437 1.327 . S
C435 C441 1.429 . S
C436 C428 1.574 . S
C436 H431 0.949 . S
C436 C442 1.368 . S
C437 C421 1.349 . S
C437 H429 0.950 . S
C437 C435 1.327 . S
C438 C426 1.349 . S
C438 H432 0.950 . S
C438 C439 1.327 . S
C439 H433 0.950 . S
C439 C438 1.327 . S
C439 C443 1.429 . S
C440 C423 1.574 . S
C440 H434 0.949 . S
C440 C444 1.368 . S
C441 C422 1.429 . S
C441 C435 1.429 . S
C441 C442 1.523 . S
C442 C423 1.368 . S
C442 C436 1.368 . S
C442 C441 1.523 . S
C443 C427 1.429 . S
C443 C439 1.429 . S
C443 C444 1.523 . S
C444 C428 1.368 . S
C444 C440 1.368 . S
C444 C443 1.523 . S
H445 C420 0.950 . S
H446 C422 0.950 . S
H447 C423 0.949 . S
H448 C425 0.950 . S
H449 C427 0.950 . S
C96 C84 1.436 . S
C91 C16 1.292 . S
C121 C15 1.383 . S
C126 C70 1.357 . S
C151 C13 1.237 1_554 S
C156 C82 1.389 . S
C181 C14 1.410 . S
C186 C72 1.441 . S
C211 C37 1.292 . S
C216 C60 1.436 1_565 S
C241 C36 1.383 . S
C246 C46 1.358 . S
C276 C58 1.389 . S
C271 C34 1.250 . S
C306 C48 1.441 . S
C301 C35 1.410 . S
C331 C17 1.588 . S
C336 C51 1.627 . S
C361 C18 1.384 . S
C366 C63 1.410 . S
C396 C75 1.627 . S
C391 C38 1.588 . S
C421 C39 1.384 . S
C426 C87 1.411 . S
