# Generated by pormake.
# Topology anh, (6,3)-cn, num edge types: 1
# Building blocks:
#     Node 0, Type 0, BuildingBlock: BETDIP_clean_sbu_0, # of connection points: 6
#     Node 1, Type 0, BuildingBlock: BETDIP_clean_sbu_0, # of connection points: 6
#     Node 2, Type 0, BuildingBlock: BETDIP_clean_sbu_0, # of connection points: 6
#     Node 3, Type 1, BuildingBlock: QEWDON_clean_linker_0, # of connection points: 3
#     Node 4, Type 1, BuildingBlock: QEWDON_clean_linker_0, # of connection points: 3
#     Node 5, Type 1, BuildingBlock: QEWDON_clean_linker_0, # of connection points: 3
#     Node 6, Type 1, BuildingBlock: QEWDON_clean_linker_0, # of connection points: 3
#     Node 7, Type 1, BuildingBlock: QEWDON_clean_linker_0, # of connection points: 3
#     Node 8, Type 1, BuildingBlock: QEWDON_clean_linker_0, # of connection points: 3
#     Edge 9, Type (0, 1), BuildingBlock: EZIPEK_clean_linker_0, # of connection points: 2
#     Edge 10, Type (0, 1), BuildingBlock: EZIPEK_clean_linker_0, # of connection points: 2
#     Edge 11, Type (0, 1), BuildingBlock: EZIPEK_clean_linker_0, # of connection points: 2
#     Edge 12, Type (0, 1), BuildingBlock: EZIPEK_clean_linker_0, # of connection points: 2
#     Edge 13, Type (0, 1), BuildingBlock: EZIPEK_clean_linker_0, # of connection points: 2
#     Edge 14, Type (0, 1), BuildingBlock: EZIPEK_clean_linker_0, # of connection points: 2
#     Edge 15, Type (0, 1), BuildingBlock: EZIPEK_clean_linker_0, # of connection points: 2
#     Edge 16, Type (0, 1), BuildingBlock: EZIPEK_clean_linker_0, # of connection points: 2
#     Edge 17, Type (0, 1), BuildingBlock: EZIPEK_clean_linker_0, # of connection points: 2
#     Edge 18, Type (0, 1), BuildingBlock: EZIPEK_clean_linker_0, # of connection points: 2
#     Edge 19, Type (0, 1), BuildingBlock: EZIPEK_clean_linker_0, # of connection points: 2
#     Edge 20, Type (0, 1), BuildingBlock: EZIPEK_clean_linker_0, # of connection points: 2
#     Edge 21, Type (0, 1), BuildingBlock: EZIPEK_clean_linker_0, # of connection points: 2
#     Edge 22, Type (0, 1), BuildingBlock: EZIPEK_clean_linker_0, # of connection points: 2
#     Edge 23, Type (0, 1), BuildingBlock: EZIPEK_clean_linker_0, # of connection points: 2
#     Edge 24, Type (0, 1), BuildingBlock: EZIPEK_clean_linker_0, # of connection points: 2
#     Edge 25, Type (0, 1), BuildingBlock: EZIPEK_clean_linker_0, # of connection points: 2
#     Edge 26, Type (0, 1), BuildingBlock: EZIPEK_clean_linker_0, # of connection points: 2
# Relax obj value: 0.343
# Max RMSD: 0.152
# Mean RMSD: 0.132
data_MOF--net-anh--node1-BETDIP_clean_sbu_0--node2-QEWDON_clean_linker_0--edge1-EZIPEK_clean_linker_0
_symmetry_space_group_name_H-M    P1
_symmetry_Int_Tables_number       1
_symmetry_cell_setting            triclinic
loop_
_symmetry_equiv_pos_as_xyz
'x, y, z'
_cell_length_a     24.19587
_cell_length_b     24.339089
_cell_length_c     35.672934
_cell_angle_alpha  96.065989
_cell_angle_beta   91.034873
_cell_angle_gamma 119.97456
loop_
_atom_site_label
_atom_site_type_symbol
_atom_site_fract_x
_atom_site_fract_y
_atom_site_fract_z
_atom_type_partial_charge
Tb0 Tb 0.26598 0.72807 0.14335 0.0
Tb1 Tb 0.1976 0.59242 0.133 0.0
C2 C 0.31942 0.84579 0.16222 0.0
C3 C 0.37542 0.90004 0.14995 0.0
C4 C 0.41874 0.94899 0.17738 0.0
C5 C 0.46868 1.00414 0.16643 0.0
C6 C 0.4755 1.01122 0.12787 0.0
C7 C 0.43469 0.96069 0.10026 0.0
C8 C 0.38485 0.90489 0.11128 0.0
C9 C 0.26476 0.67841 0.07342 0.0
C10 C 0.34987 0.65898 0.13943 0.0
C11 C 1.11998 0.47762 0.10867 0.0
C12 C 1.05351 0.45256 0.09366 0.0
C13 C 1.03957 0.49307 0.07514 0.0
C14 C 0.9841 0.49526 0.08211 0.0
C15 C 0.94151 0.45507 0.10618 0.0
C16 C 0.94818 0.40453 0.11679 0.0
C17 C 1.00454 0.40351 0.11072 0.0
C18 C 0.2324 0.64378 0.20593 0.0
C19 C 1.11346 0.66376 0.13209 0.0
O20 O 0.33072 0.80858 0.18109 0.0
O21 O 0.27065 0.81416 0.1369 0.0
O22 O 0.21931 0.65937 0.09435 0.0
O23 O 0.31166 0.73104 0.09042 0.0
O24 O 0.34695 0.70994 0.1546 0.0
O25 O 0.29536 0.60739 0.1246 0.0
O26 O 0.16489 0.51614 0.08875 0.0
O27 O 1.13062 0.50068 0.14455 0.0
O28 O 0.20961 0.66092 0.18056 0.0
O29 O 0.23925 0.59754 0.18963 0.0
O30 O 1.11351 0.60868 0.12954 0.0
O31 O 0.16919 0.71808 0.13821 0.0
H32 H 0.41247 0.94563 0.20722 0.0
H33 H 0.49979 1.04309 0.18813 0.0
H34 H 0.43953 0.96561 0.07049 0.0
H35 H 0.35233 0.86681 0.08962 0.0
H36 H 1.07589 0.53037 0.06082 0.0
H37 H 0.97903 0.53371 0.07304 0.0
H38 H 0.91502 0.37245 0.13497 0.0
H39 H 1.01386 0.37123 0.12474 0.0
Tb40 Tb 0.72345 0.13068 0.46863 0.0
Tb41 Tb 0.65672 0.19567 0.48887 0.0
C42 C 0.76212 1.05246 0.4684 0.0
C43 C 0.72369 0.98475 0.47396 0.0
C44 C 0.74106 0.96317 0.50455 0.0
C45 C 0.69508 0.90888 0.51916 0.0
C46 C 0.63105 0.87707 0.50397 0.0
C47 C 0.61574 0.89422 0.47068 0.0
C48 C 0.66202 0.9469 0.45535 0.0
C49 C 0.69735 0.17415 0.41022 0.0
C50 C 0.56638 1.04441 0.46674 0.0
C51 C 0.60915 0.26725 0.49688 0.0
C52 C 0.61069 0.31822 0.47725 0.0
C53 C 0.55649 0.30508 0.45465 0.0
C54 C 0.55668 0.35192 0.43532 0.0
C55 C 0.60994 0.4148 0.43971 0.0
C56 C 0.66588 0.4261 0.46049 0.0
C57 C 0.66609 0.37856 0.47911 0.0
C58 C 0.6819 0.15096 0.54835 0.0
C59 C 0.81028 0.28128 0.47449 0.0
O60 O 0.76939 1.09256 0.49815 0.0
O61 O 0.74704 1.06816 0.43748 0.0
O62 O 0.66066 0.14946 0.43587 0.0
O63 O 0.74929 0.17207 0.41588 0.0
O64 O 0.62243 1.04607 0.46744 0.0
O65 O 0.5682 0.10027 0.47199 0.0
O66 O 0.58014 0.21024 0.47756 0.0
O67 O 0.66196 0.27955 0.51543 0.0
O68 O 0.71876 0.17637 0.52273 0.0
O69 O 0.63059 0.15269 0.54094 0.0
O70 O 0.75339 0.27799 0.47636 0.0
O71 O 0.81136 0.22717 0.47485 0.0
H72 H 0.78841 0.9914 0.5192 0.0
H73 H 0.70806 0.89534 0.5444 0.0
H74 H 0.56697 0.86948 0.45797 0.0
H75 H 0.64741 0.96142 0.43116 0.0
H76 H 0.51362 0.2583 0.45189 0.0
H77 H 0.51313 0.33907 0.41877 0.0
H78 H 0.70896 0.47254 0.4644 0.0
H79 H 0.70935 0.38963 0.49551 0.0
Tb80 Tb 0.65275 0.55395 0.81158 0.0
Tb81 Tb 0.78278 0.6171 0.81648 0.0
C82 C 0.53427 0.49103 0.81596 0.0
C83 C 0.48563 0.49805 0.79529 0.0
C84 C 0.43723 0.50104 0.81462 0.0
C85 C 0.39725 0.51792 0.7967 0.0
C86 C 0.40568 0.53251 0.75943 0.0
C87 C 0.45287 0.52802 0.73965 0.0
C88 C 0.49217 0.51016 0.75735 0.0
C89 C 0.69475 0.58041 0.74398 0.0
C90 C 0.71594 0.70268 0.80537 0.0
C91 C 0.90195 0.68408 0.82683 0.0
C92 C 0.93852 0.67263 0.85544 0.0
C93 C 0.98511 0.65784 0.84404 0.0
C94 C 0.99668 0.6174 0.86365 0.0
C95 C 0.95898 0.58835 0.89301 0.0
C96 C 0.91941 0.61043 0.90769 0.0
C97 C 0.91223 0.65531 0.89018 0.0
C98 C 0.73554 0.58181 0.88277 0.0
C99 C 0.72088 0.46689 0.80557 0.0
O100 O 0.57281 0.53994 0.84073 0.0
O101 O 0.5651 0.46984 0.79524 0.0
O102 O 0.71737 0.56163 0.76837 0.0
O103 O 0.6477 0.58413 0.75749 0.0
O104 O 0.66376 0.65155 0.81423 0.0
O105 O 0.76707 0.69627 0.79991 0.0
O106 O 0.87296 0.63761 0.79881 0.0
O107 O 0.86381 0.70336 0.84022 0.0
O108 O 0.71783 0.6072 0.85996 0.0
O109 O 0.77782 0.57232 0.86726 0.0
O110 O 0.77292 0.52113 0.80012 0.0
O111 O 0.66961 0.47064 0.81531 0.0
H112 H 0.43186 0.49255 0.8439 0.0
H113 H 0.36086 0.5215 0.81226 0.0
H114 H 0.45986 0.53932 0.71091 0.0
H115 H 0.52882 0.50777 0.7416 0.0
H116 H 1.0072 0.67156 0.81788 0.0
H117 H 1.02971 0.60299 0.85334 0.0
H118 H 0.89027 0.58949 0.9306 0.0
H119 H 0.87878 0.66901 0.90094 0.0
H120 H 0.68963 0.34527 0.29701 0.0
C121 C 0.6626 0.31236 0.27189 0.0
C122 C 0.63838 0.24629 0.27145 0.0
C123 C 0.65557 0.33619 0.23916 0.0
H124 H 0.58857 0.1538 0.23736 0.0
C125 C 0.60651 0.20465 0.23813 0.0
C126 C 0.6014 0.22898 0.20514 0.0
C127 C 0.6247 0.29416 0.20597 0.0
C128 C 0.69337 0.40467 0.23605 0.0
H129 H 0.62251 0.31274 0.17997 0.0
C130 C 0.7388 0.42296 0.20954 0.0
C131 C 0.7765 0.48669 0.20442 0.0
C132 C 0.6855 0.45113 0.25808 0.0
H133 H 0.65044 0.43755 0.27887 0.0
C134 C 0.72283 0.51561 0.2527 0.0
H135 H 0.74625 0.38717 0.19328 0.0
C136 C 0.76857 0.53364 0.22595 0.0
H137 H 0.79823 0.58366 0.22279 0.0
H138 H 0.71681 0.55166 0.26953 0.0
H139 H 0.55081 0.56801 0.64018 0.0
C140 C 0.55346 0.55643 0.61028 0.0
C141 C 0.59837 0.53921 0.59863 0.0
C142 C 0.5164 0.56458 0.58352 0.0
H143 H 0.63781 0.5123 0.55132 0.0
C144 C 0.60329 0.52611 0.56006 0.0
C145 C 0.56567 0.53372 0.53288 0.0
C146 C 0.52357 0.55434 0.54487 0.0
C147 C 0.48159 0.59768 0.59526 0.0
H148 H 0.49758 0.56428 0.52406 0.0
C149 C 0.50072 0.65543 0.58174 0.0
C150 C 0.46547 0.68614 0.58682 0.0
C151 C 0.42953 0.57281 0.61768 0.0
H152 H 0.41466 0.52834 0.62901 0.0
C153 C 0.39519 0.60493 0.62439 0.0
H154 H 0.54225 0.67547 0.56533 0.0
C155 C 0.41222 0.66101 0.60828 0.0
H156 H 0.3841 0.68421 0.61226 0.0
H157 H 0.35447 0.58549 0.64124 0.0
H158 H 0.23243 0.62097 0.8811 0.0
C159 C 0.18791 0.57865 0.88536 0.0
C160 C 0.17416 0.56239 0.92202 0.0
C161 C 1.14178 0.54302 0.85478 0.0
H162 H 1.10581 0.49978 0.95666 0.0
C163 C 1.11541 0.50971 0.92789 0.0
C164 C 1.06624 0.4776 0.89853 0.0
C165 C 1.08226 0.49187 0.86144 0.0
C166 C 1.15242 0.56262 0.81634 0.0
H167 H 1.0471 0.46694 0.83752 0.0
C168 C 0.20663 0.57042 0.79884 0.0
C169 C 0.21462 0.58438 0.76144 0.0
C170 C 1.10662 0.57002 0.79602 0.0
H171 H 1.06295 0.56164 0.80803 0.0
C172 C 1.11633 0.58738 0.75955 0.0
H173 H 0.24102 0.5623 0.81356 0.0
C174 C 0.17037 0.59469 0.74217 0.0
H175 H 0.17643 0.60574 0.71338 0.0
H176 H 1.081 0.59344 0.74438 0.0
H177 H 0.16302 0.62634 0.38135 0.0
C178 C 0.20457 0.66957 0.39496 0.0
C179 C 0.25233 0.70851 0.372 0.0
C180 C 0.20839 0.68679 0.43442 0.0
H181 H 0.34224 0.79521 0.37013 0.0
C182 C 0.30649 0.76643 0.38841 0.0
C183 C 0.31487 0.78905 0.42736 0.0
C184 C 0.26505 0.74787 0.45014 0.0
C185 C 1.15127 0.6435 0.45789 0.0
H186 H 0.2713 0.76407 0.48008 0.0
C187 C 1.101 0.57602 0.44677 0.0
C188 C 1.04871 0.54112 0.47053 0.0
C189 C 1.14515 0.67243 0.49265 0.0
H190 H 0.17793 0.72226 0.50266 0.0
C191 C 1.09568 0.63922 0.51533 0.0
H192 H 1.10253 0.55069 0.42039 0.0
C193 C 1.04888 0.57542 0.50465 0.0
H194 H 1.01167 0.55243 0.52352 0.0
H195 H 1.09325 0.66383 0.54181 0.0
H196 H 0.71539 1.0595 0.71685 0.0
C197 C 0.7187 0.10222 0.73182 0.0
C198 C 0.72463 0.15069 0.7105 0.0
C199 C 0.71282 0.1066 0.77134 0.0
H200 H 0.73573 0.24378 0.71169 0.0
C201 C 0.729 0.20702 0.72884 0.0
C202 C 0.71903 0.21495 0.76741 0.0
C203 C 0.71123 0.16365 0.78838 0.0
C204 C 0.70325 1.04972 0.7935 0.0
H205 H 0.70332 0.16868 0.81785 0.0
C206 C 0.71599 0.99752 0.78077 0.0
C207 C 0.70447 0.94668 0.80385 0.0
C208 C 0.67819 1.04655 0.82908 0.0
H209 H 0.66466 1.0805 0.84053 0.0
C210 C 0.6678 0.99867 0.8511 0.0
H211 H 0.73483 0.99638 0.75364 0.0
C212 C 0.68074 0.9503 0.83895 0.0
H213 H 0.67126 0.91436 0.85735 0.0
H214 H 0.64859 0.99877 0.87827 0.0
H215 H 0.6923 0.62443 0.05866 0.0
C216 C 0.73753 0.6334 0.07116 0.0
C217 C 0.77774 0.6227 0.04733 0.0
C218 C 0.75573 0.6571 0.10973 0.0
H219 H 0.86195 0.6152 0.04352 0.0
C220 C 0.83502 0.62864 0.06252 0.0
C221 C 0.86024 0.65546 0.10043 0.0
C222 C 0.81993 0.672 0.12325 0.0
C223 C 0.70695 0.66444 0.13509 0.0
H224 H 0.83924 0.698 0.15114 0.0
C225 C 0.64781 0.66192 0.12167 0.0
C226 C 0.60305 0.66486 0.14743 0.0
C227 C 0.71779 0.66991 0.17455 0.0
H228 H 0.75869 0.6697 0.18702 0.0
C229 C 0.6754 0.67367 0.19931 0.0
H230 H 0.63595 0.6575 0.09177 0.0
C231 C 0.61947 0.67118 0.18614 0.0
H232 H 0.58804 0.67367 0.20666 0.0
H233 H 0.68573 0.67772 0.22946 0.0
C234 C 0.42046 0.60643 0.14781 0.0
C235 C 0.4151 0.65959 0.13851 0.0
C236 C 0.53357 0.71484 0.13033 0.0
C237 C 0.53758 0.66009 0.13714 0.0
N238 N 0.47941 0.54889 0.145 0.0
N239 N 0.46814 0.7598 0.11267 0.0
C240 C 0.47909 0.60452 0.14339 0.0
C241 C 0.47228 0.71244 0.12753 0.0
N242 N 0.37088 0.55901 0.16358 0.0
N243 N 0.58903 0.77062 0.12774 0.0
H244 H 0.42545 0.7599 0.10925 0.0
H245 H 0.50562 0.79564 0.10028 0.0
H246 H 0.63356 0.77354 0.12795 0.0
H247 H 0.59133 0.81453 0.12786 0.0
H248 H 0.37377 0.52266 0.17482 0.0
H249 H 0.32917 0.55966 0.16938 0.0
H250 H 0.43802 0.50483 0.14543 0.0
H251 H 0.52068 0.54587 0.14195 0.0
C252 C 0.93297 0.36608 0.49165 0.0
C253 C 0.87363 0.34619 0.47024 0.0
C254 C 0.93235 0.45162 0.44379 0.0
C255 C 0.9922 0.46957 0.46356 0.0
N256 N 1.04955 0.43509 0.50094 0.0
N257 N 0.82497 0.3675 0.41837 0.0
C258 C 0.9921 0.42364 0.48559 0.0
C259 C 0.87589 0.38854 0.44427 0.0
N260 N 0.93267 0.33228 0.51993 0.0
N261 N 0.92852 0.4959 0.42514 0.0
H262 H 0.78506 0.32176 0.41632 0.0
H263 H 0.82524 0.39246 0.39633 0.0
H264 H 0.96846 0.54029 0.42264 0.0
H265 H 0.88543 0.49016 0.41429 0.0
H266 H 0.97159 0.34755 0.5395 0.0
H267 H 0.89154 0.29217 0.52642 0.0
H268 H 1.05522 0.40164 0.5139 0.0
H269 H 1.09268 0.47589 0.49721 0.0
C270 C 0.76719 0.82855 0.81783 0.0
C271 C 0.71643 0.76704 0.80058 0.0
C272 C 0.66225 0.82594 0.7792 0.0
C273 C 0.71422 0.88737 0.79494 0.0
N274 N 0.82171 0.94571 0.82358 0.0
N275 N 0.62139 0.71287 0.7573 0.0
C276 C 0.76831 0.88775 0.81224 0.0
C277 C 0.66571 0.7677 0.77922 0.0
N278 N 0.81281 0.83073 0.84205 0.0
N279 N 0.60771 0.82263 0.76505 0.0
H280 H 0.62219 0.67041 0.75574 0.0
H281 H 0.58772 0.71092 0.7378 0.0
H282 H 0.60461 0.86337 0.76261 0.0
H283 H 0.56476 0.77984 0.75774 0.0
H284 H 0.84688 0.87216 0.85894 0.0
H285 H 0.81294 0.78991 0.84821 0.0
H286 H 0.86548 0.95116 0.83274 0.0
H287 H 0.82372 0.98873 0.82017 0.0
C288 C 1.03098 0.67474 0.09043 0.0
C289 C 1.04993 0.66516 0.12606 0.0
C290 C 0.94821 0.657 0.14889 0.0
C291 C 0.92922 0.66668 0.11271 0.0
N292 N 0.9748 0.71704 0.0575 0.0
N293 N 1.03282 0.66378 0.19198 0.0
C294 C 0.97723 0.68478 0.08598 0.0
C295 C 1.0105 0.66196 0.15616 0.0
N296 N 1.06408 0.67379 0.06007 0.0
N297 N 0.90658 0.64152 0.17639 0.0
H298 H 1.07619 0.66556 0.1977 0.0
H299 H 1.01142 0.66808 0.21626 0.0
H300 H 0.85904 0.62842 0.17117 0.0
H301 H 0.91652 0.63518 0.20352 0.0
H302 H 1.04981 0.67537 0.03266 0.0
H303 H 1.10216 0.66528 0.06185 0.0
H304 H 1.01082 0.73635 0.03913 0.0
H305 H 0.94144 0.73209 0.05564 0.0
C306 C 0.4532 0.96958 0.42947 0.0
C307 C 0.50052 0.97902 0.45817 0.0
C308 C 0.42431 0.86456 0.46919 0.0
C309 C 0.37604 0.8564 0.44176 0.0
N310 N 0.34155 0.9111 0.4035 0.0
N311 N 0.5228 0.9346 0.50945 0.0
C312 C 0.39003 0.91201 0.42425 0.0
C313 C 0.48326 0.92612 0.47908 0.0
N314 N 0.4694 1.01434 0.40534 0.0
N315 N 0.41588 0.81234 0.48475 0.0
H316 H 0.5692 0.97326 0.51448 0.0
H317 H 0.50789 0.90508 0.53062 0.0
H318 H 0.37591 0.76692 0.47775 0.0
H319 H 0.45039 0.81312 0.50281 0.0
H320 H 0.44066 1.00762 0.38124 0.0
H321 H 0.51448 1.05537 0.40709 0.0
H322 H 0.34557 0.95125 0.39311 0.0
H323 H 0.29498 0.87209 0.40044 0.0
C324 C 0.74115 0.37654 0.82605 0.0
C325 C 0.71852 0.40086 0.79828 0.0
C326 C 0.68003 0.2958 0.75818 0.0
C327 C 0.71334 0.27584 0.78207 0.0
N328 N 0.78147 0.30572 0.83965 0.0
N329 N 0.68164 0.38528 0.73299 0.0
C330 C 0.745 0.31845 0.81653 0.0
C331 C 0.69227 0.36072 0.76306 0.0
N332 N 0.75936 0.40907 0.86175 0.0
N333 N 0.63386 0.25183 0.73131 0.0
H334 H 0.69632 0.43367 0.73436 0.0
H335 H 0.66684 0.35988 0.70584 0.0
H336 H 0.61914 0.20323 0.72881 0.0
H337 H 0.60499 0.26247 0.71509 0.0
H338 H 0.76996 0.39164 0.88459 0.0
H339 H 0.75935 0.45172 0.86895 0.0
H340 H 0.80837 0.33584 0.86397 0.0
H341 H 0.7898 0.26802 0.83269 0.0
C342 C 0.53432 0.76869 0.50671 0.0
C343 C 0.579 0.83088 0.52494 0.0
C344 C 0.52894 0.80322 0.5845 0.0
C345 C 0.48513 0.74144 0.566 0.0
N346 N 0.43071 0.67354 0.50804 0.0
N347 N 0.60468 0.91337 0.57782 0.0
C348 C 0.48201 0.72785 0.52628 0.0
C349 C 0.57193 0.85024 0.56287 0.0
N350 N 0.54396 0.7469 0.47195 0.0
N351 N 0.53182 0.81573 0.62292 0.0
H352 H 0.63399 0.94986 0.56231 0.0
H353 H 0.59722 0.93022 0.60422 0.0
H354 H 0.49883 0.78283 0.63912 0.0
H355 H 0.56833 0.85722 0.63863 0.0
H356 H 0.51548 0.69986 0.45913 0.0
H357 H 0.58417 0.77373 0.45765 0.0
H358 H 0.42333 0.66301 0.47867 0.0
H359 H 0.39262 0.64277 0.52266 0.0
C360 C 0.93307 0.47552 0.873 0.0
C361 C 0.95312 0.5279 0.90249 0.0
C362 C 0.98627 0.47233 0.94154 0.0
C363 C 0.9972 0.44465 0.90794 0.0
N364 N 0.93673 0.37831 0.85144 0.0
N365 N 0.98802 0.56822 0.96902 0.0
C366 C 0.95213 0.42975 0.8776 0.0
C367 C 0.97441 0.52312 0.93874 0.0
N368 N 0.89985 0.47225 0.84073 0.0
N369 N 0.99111 0.45271 0.97505 0.0
H370 H 0.9819 0.60739 0.96764 0.0
H371 H 1.00876 0.56788 -0.00519 0.0
H372 H 1.00182 0.41625 0.97616 0.0
H373 H 0.97979 0.46936 0.00017 0.0
H374 H 0.88779 0.4379 0.81731 0.0
H375 H 0.88344 0.50408 0.83792 0.0
H376 H 0.90681 0.36571 0.82693 0.0
H377 H 0.95479 0.34808 0.85544 0.0
C378 C 0.5839 0.10129 0.12982 0.0
C379 C 0.51881 1.07571 0.11845 0.0
C380 C 0.51873 0.16844 0.15023 0.0
C381 C 0.57906 0.187 0.16868 0.0
N382 N 0.67951 0.18897 0.16537 0.0
N383 N 0.43819 1.09851 0.09916 0.0
C384 C 0.61574 0.15984 0.15438 0.0
C385 C 0.49217 0.11561 0.12134 0.0
N386 N 0.61152 1.06522 0.12069 0.0
N387 N 0.48483 0.19706 0.16234 0.0
H388 H 0.41826 1.05806 0.07883 0.0
H389 H 0.41749 0.12708 0.09856 0.0
H390 H 0.50251 0.23537 0.18399 0.0
H391 H 0.43781 0.18065 0.15224 0.0
H392 H 0.6571 1.0771 0.13117 0.0
H393 H 0.58663 1.02192 0.10275 0.0
H394 H 0.70944 0.17292 0.15472 0.0
H395 H 0.70333 0.23256 0.18307 0.0
C396 C 0.53994 0.45907 0.43087 0.0
C397 C 0.60235 0.46953 0.42964 0.0
C398 C 0.63717 0.5584 0.47937 0.0
C399 C 0.57455 0.52449 0.49211 0.0
N400 N 0.46166 0.44529 0.4752 0.0
N401 N 0.70691 0.56008 0.42994 0.0
C402 C 0.52344 0.47711 0.46594 0.0
C403 C 0.64997 0.53128 0.44567 0.0
N404 N 0.49698 0.42783 0.40024 0.0
N405 N 0.68338 0.61362 0.50003 0.0
H406 H 0.71447 0.53703 0.40586 0.0
H407 H 0.74411 0.60613 0.43953 0.0
H408 H 0.67303 0.63532 0.52352 0.0
H409 H 0.73095 0.63777 0.49373 0.0
H410 H 0.45083 0.42109 0.39948 0.0
H411 H 0.51057 0.4132 0.37525 0.0
H412 H 0.4253 0.40703 0.45719 0.0
H413 H 0.44741 0.45359 0.50151 0.0
C414 C 0.30707 0.51013 0.72261 0.0
C415 C 0.36618 0.5555 0.74264 0.0
C416 C 0.33007 0.63274 0.75309 0.0
C417 C 0.26709 0.58199 0.74244 0.0
N418 N 0.19456 0.4757 0.71124 0.0
N419 N 0.4403 0.66342 0.77042 0.0
C420 C 0.25556 0.52222 0.72411 0.0
C421 C 0.38024 0.61874 0.75487 0.0
N422 N 0.30013 0.45501 0.70363 0.0
N423 N 0.34042 0.69309 0.76295 0.0
H424 H 0.47802 0.65412 0.77064 0.0
H425 H 0.45271 0.70879 0.78349 0.0
H426 H 0.30312 0.70293 0.76165 0.0
H427 H 0.38549 0.7335 0.7695 0.0
H428 H 0.2596 0.42152 0.68627 0.0
H429 H 0.33763 0.44548 0.7028 0.0
H430 H 0.18121 0.4285 0.70168 0.0
H431 H 0.15645 0.48427 0.71096 0.0
C432 C 0.92705 0.5007 0.1685 0.0
C433 C 0.90512 0.47768 0.12972 0.0
C434 C 0.81261 0.49127 0.13942 0.0
C435 C 0.82798 0.50108 0.17896 0.0
N436 N 0.89925 0.51587 0.23201 0.0
N437 N 0.82968 0.45437 0.07704 0.0
C438 C 0.88562 0.50698 0.19373 0.0
C439 C 0.84919 0.47512 0.11457 0.0
N440 N 0.98793 0.51752 0.18102 0.0
N441 N 0.76259 0.49683 0.12614 0.0
H442 H 0.8559 0.44268 0.05825 0.0
H443 H 0.78619 0.44558 0.06481 0.0
H444 H 0.736 0.50927 0.14423 0.0
H445 H 0.75109 0.49488 0.09763 0.0
H446 H 1.0084 0.53965 0.20823 0.0
H447 H 1.02069 0.5156 0.16317 0.0
H448 H 0.93585 0.51165 0.24466 0.0
H449 H 0.87181 0.52457 0.25136 0.0
C450 C 0.21859 0.68026 0.01069 0.0
C451 C 0.2555 0.66205 0.03176 0.0
C452 C 0.25822 0.59667 0.97535 0.0
C453 C 0.21327 0.60712 0.95603 0.0
N454 N 1.15042 0.65886 0.95409 0.0
N455 N 0.32703 0.62047 0.03253 0.0
C456 C 0.19459 0.65021 0.97307 0.0
C457 C 0.28078 0.62578 0.01348 0.0
N458 N 0.20844 0.72787 0.02641 0.0
N459 N 0.27644 0.55632 0.95764 0.0
H460 H 0.34597 0.64386 0.05977 0.0
H461 H 0.35045 0.59763 0.02075 0.0
H462 H 0.26247 0.53684 0.92927 0.0
H463 H 0.30393 0.54087 0.97081 0.0
H464 H 0.18735 0.74808 0.01147 0.0
H465 H 0.22616 0.75122 0.05385 0.0
H466 H 1.12773 0.68196 0.96669 0.0
H467 H 1.13378 0.64002 0.92589 0.0
C468 C 0.68918 0.16371 0.33867 0.0
C469 C 0.67724 0.18718 0.37394 0.0
C470 C 0.62609 0.23458 0.33996 0.0
C471 C 0.64839 0.22155 0.3058 0.0
N472 N 0.7131 0.18358 0.27427 0.0
N473 N 0.64961 0.26069 0.40679 0.0
C474 C 0.68313 0.18856 0.30543 0.0
C475 C 0.6492 0.22626 0.37425 0.0
N476 N 0.7041 0.11632 0.33649 0.0
N477 N 0.58237 0.25452 0.33995 0.0
H478 H 0.66756 0.25782 0.43259 0.0
H479 H 0.64057 0.29821 0.40648 0.0
H480 H 0.56242 0.25923 0.31518 0.0
H481 H 0.56124 0.25973 0.3643 0.0
H482 H 0.70797 1.09412 0.31084 0.0
H483 H 0.70487 1.09395 0.35968 0.0
H484 H 0.74388 0.16521 0.2741 0.0
H485 H 0.71272 0.2038 0.25001 0.0
C486 C 0.72427 0.60692 0.6796 0.0
C487 C 0.68952 0.55982 0.70313 0.0
C488 C 0.61847 0.48746 0.64855 0.0
C489 C 0.64249 0.53986 0.62795 0.0
N490 N 0.72267 0.6475 0.62047 0.0
N491 N 0.60438 0.45355 0.71046 0.0
C492 C 0.69811 0.59864 0.64206 0.0
C493 C 0.63807 0.49868 0.68751 0.0
N494 N 0.78057 0.66014 0.69384 0.0
N495 N 0.57499 0.42783 0.63099 0.0
H496 H 0.61846 0.45946 0.73899 0.0
H497 H 0.56129 0.4116 0.70168 0.0
H498 H 0.55994 0.41962 0.6023 0.0
H499 H 0.55901 0.38638 0.64367 0.0
H500 H 0.81062 0.695 0.67768 0.0
H501 H 0.79963 0.66627 0.72148 0.0
H502 H 0.75865 0.69396 0.63041 0.0
H503 H 0.70532 0.64149 0.59247 0.0
C504 C 0.64896 1.09835 0.60798 0.0
C505 C 0.69903 0.14385 0.5882 0.0
C506 C 0.77067 0.17863 0.64712 0.0
C507 C 0.71797 0.14079 0.6677 0.0
N508 N 0.60417 1.07024 0.66794 0.0
N509 N 0.8073 0.23475 0.59254 0.0
C510 C 0.65657 0.10161 0.64809 0.0
C511 C 0.76025 0.18542 0.60852 0.0
N512 N 0.59339 1.05127 0.58845 0.0
N513 N 0.83106 0.20849 0.66468 0.0
H514 H 0.80261 0.2442 0.56537 0.0
H515 H 0.84952 0.27058 0.60763 0.0
H516 H 0.83982 0.20467 0.69278 0.0
H517 H 0.8723 0.23138 0.65048 0.0
H518 H 0.55868 1.01238 0.60036 0.0
H519 H 0.58424 1.04778 0.55951 0.0
H520 H 0.55728 1.04817 0.6559 0.0
H521 H 0.60691 1.07052 0.69715 0.0
C522 C 0.76822 0.6554 0.94522 0.0
C523 C 0.73743 0.59238 0.92505 0.0
C524 C 0.73427 0.54883 0.98499 0.0
C525 C 0.76255 0.61139 0.0052 0.0
N526 N 0.79815 0.72344 0.00551 0.0
N527 N 0.68183 0.47854 0.92613 0.0
C528 C 0.77653 0.66425 0.98556 0.0
C529 C 0.71779 0.53897 0.94517 0.0
N530 N 0.79369 0.70738 0.92597 0.0
N531 N 0.72419 0.49895 0.00382 0.0
H532 H 0.66833 0.46978 0.8972 0.0
H533 H 0.66071 0.4373 0.93923 0.0
H534 H 0.73292 0.50407 0.03305 0.0
H535 H 0.71099 0.4535 -0.00954 0.0
H536 H 0.82435 0.75402 0.93873 0.0
H537 H 0.7889 0.70434 0.8967 0.0
H538 H 0.80045 0.76173 -0.00637 0.0
H539 H 0.81004 0.73364 0.03462 0.0
C540 C 0.22864 0.61487 0.27335 0.0
C541 C 0.23116 0.6585 0.24857 0.0
C542 C 0.23343 0.72799 0.30559 0.0
C543 C 0.24393 0.69053 0.32955 0.0
N544 N 0.26151 0.60254 0.33501 0.0
N545 N 0.23837 0.76106 0.24383 0.0
C546 C 0.24476 0.63541 0.31302 0.0
C547 C 0.23405 0.71622 0.26543 0.0
N548 N 0.20531 0.55192 0.25997 0.0
N549 N 0.2198 0.7733 0.32103 0.0
H550 H 0.23228 0.75414 0.2146 0.0
H551 H 0.25115 0.80744 0.25527 0.0
H552 H 0.21738 0.78239 0.35 0.0
H553 H 0.20424 0.79705 0.30494 0.0
H554 H 0.19862 0.5178 0.27751 0.0
H555 H 0.18253 0.53152 0.23299 0.0
H556 H 0.26914 0.56584 0.32367 0.0
H557 H 0.2737 0.61595 0.36405 0.0
loop_
_geom_bond_atom_site_label_1
_geom_bond_atom_site_label_2
_geom_bond_distance
_geom_bond_site_symmetry_2
_ccdc_geom_bond_type
Tb0 C2 2.809 . S
Tb0 O20 2.484 . S
Tb0 O21 2.440 . S
Tb0 O22 2.658 1_455 S
Tb0 O23 2.409 . S
Tb0 O24 2.378 . S
Tb0 O28 2.325 . S
Tb0 O31 2.341 1_455 S
Tb1 C11 2.809 . S
Tb1 O22 2.325 . S
Tb1 O25 2.341 1_655 S
Tb1 O26 2.484 . S
Tb1 O27 2.440 . S
Tb1 O28 2.658 1_655 S
Tb1 O29 2.409 . S
Tb1 O30 2.378 . S
C2 Tb0 2.809 . S
C2 C3 1.514 . S
C2 O20 1.248 . S
C2 O21 1.266 . S
C3 C2 1.514 . S
C3 C4 1.359 . S
C3 C8 1.348 . S
C4 C3 1.359 . S
C4 C5 1.380 . S
C4 H32 0.929 . S
C5 C4 1.380 . S
C5 C6 1.347 . S
C5 H33 0.931 . S
C6 C5 1.347 . S
C6 C7 1.369 . S
C7 C6 1.369 . S
C7 C8 1.408 . S
C7 H34 0.930 . S
C8 C3 1.348 . S
C8 C7 1.408 . S
C8 H35 0.930 . S
C9 O22 1.281 1_455 S
C9 O23 1.254 . S
C10 O24 1.236 . S
C10 O25 1.266 . S
C11 Tb1 2.809 . S
C11 C12 1.514 . S
C11 O26 1.248 . S
C11 O27 1.266 . S
C12 C11 1.514 . S
C12 C13 1.359 . S
C12 C17 1.348 . S
C13 C12 1.359 . S
C13 C14 1.380 . S
C13 H36 0.929 . S
C14 C13 1.380 . S
C14 C15 1.347 . S
C14 H37 0.931 . S
C15 C14 1.347 . S
C15 C16 1.369 . S
C16 C15 1.369 . S
C16 C17 1.408 . S
C16 H38 0.930 . S
C17 C12 1.348 . S
C17 C16 1.408 . S
C17 H39 0.930 . S
C18 O28 1.281 . S
C18 O29 1.254 1_455 S
C19 O30 1.236 . S
C19 O31 1.266 . S
O20 Tb0 2.484 . S
O20 C2 1.248 . S
O21 Tb0 2.440 . S
O21 C2 1.266 . S
O22 Tb0 2.658 1_655 S
O22 Tb1 2.325 . S
O22 C9 1.281 1_655 S
O23 Tb0 2.409 . S
O23 C9 1.254 . S
O24 Tb0 2.378 . S
O24 C10 1.236 . S
O25 Tb1 2.341 1_455 S
O25 C10 1.266 . S
O26 Tb1 2.484 . S
O26 C11 1.248 . S
O27 Tb1 2.440 . S
O27 C11 1.266 . S
O28 Tb0 2.325 . S
O28 Tb1 2.658 1_455 S
O28 C18 1.281 . S
O29 Tb1 2.409 . S
O29 C18 1.254 1_655 S
O30 Tb1 2.378 . S
O30 C19 1.236 . S
O31 Tb0 2.341 1_655 S
O31 C19 1.266 . S
H32 C4 0.929 . S
H33 C5 0.931 . S
H34 C7 0.930 . S
H35 C8 0.930 . S
H36 C13 0.929 . S
H37 C14 0.931 . S
H38 C16 0.930 . S
H39 C17 0.930 . S
Tb40 C42 2.809 1_545 S
Tb40 O60 2.484 1_545 S
Tb40 O61 2.440 1_545 S
Tb40 O62 2.658 . S
Tb40 O63 2.409 . S
Tb40 O64 2.378 1_545 S
Tb40 O68 2.325 . S
Tb40 O71 2.341 . S
Tb41 C51 2.809 . S
Tb41 O62 2.325 . S
Tb41 O65 2.341 1_545 S
Tb41 O66 2.484 . S
Tb41 O67 2.440 . S
Tb41 O68 2.658 . S
Tb41 O69 2.409 . S
Tb41 O70 2.378 . S
C42 Tb40 2.809 1_565 S
C42 C43 1.514 . S
C42 O60 1.248 . S
C42 O61 1.266 . S
C43 C42 1.514 . S
C43 C44 1.359 . S
C43 C48 1.348 . S
C44 C43 1.359 . S
C44 C45 1.380 . S
C44 H72 0.929 . S
C45 C44 1.380 . S
C45 C46 1.347 . S
C45 H73 0.931 . S
C46 C45 1.347 . S
C46 C47 1.369 . S
C47 C46 1.369 . S
C47 C48 1.408 . S
C47 H74 0.930 . S
C48 C43 1.348 . S
C48 C47 1.408 . S
C48 H75 0.930 . S
C49 O62 1.281 . S
C49 O63 1.254 . S
C50 O64 1.236 . S
C50 O65 1.266 . S
C51 Tb41 2.809 . S
C51 C52 1.514 . S
C51 O66 1.248 . S
C51 O67 1.266 . S
C52 C51 1.514 . S
C52 C53 1.359 . S
C52 C57 1.348 . S
C53 C52 1.359 . S
C53 C54 1.380 . S
C53 H76 0.929 . S
C54 C53 1.380 . S
C54 C55 1.347 . S
C54 H77 0.931 . S
C55 C54 1.347 . S
C55 C56 1.369 . S
C56 C55 1.369 . S
C56 C57 1.408 . S
C56 H78 0.930 . S
C57 C52 1.348 . S
C57 C56 1.408 . S
C57 H79 0.930 . S
C58 O68 1.281 . S
C58 O69 1.254 . S
C59 O70 1.236 . S
C59 O71 1.266 . S
O60 Tb40 2.484 1_565 S
O60 C42 1.248 . S
O61 Tb40 2.440 1_565 S
O61 C42 1.266 . S
O62 Tb40 2.658 . S
O62 Tb41 2.325 . S
O62 C49 1.281 . S
O63 Tb40 2.409 . S
O63 C49 1.254 . S
O64 Tb40 2.378 1_565 S
O64 C50 1.236 . S
O65 Tb41 2.341 1_565 S
O65 C50 1.266 . S
O66 Tb41 2.484 . S
O66 C51 1.248 . S
O67 Tb41 2.440 . S
O67 C51 1.266 . S
O68 Tb40 2.325 . S
O68 Tb41 2.658 . S
O68 C58 1.281 . S
O69 Tb41 2.409 . S
O69 C58 1.254 . S
O70 Tb41 2.378 . S
O70 C59 1.236 . S
O71 Tb40 2.341 . S
O71 C59 1.266 . S
H72 C44 0.929 . S
H73 C45 0.931 . S
H74 C47 0.930 . S
H75 C48 0.930 . S
H76 C53 0.929 . S
H77 C54 0.931 . S
H78 C56 0.930 . S
H79 C57 0.930 . S
Tb80 C82 2.809 . S
Tb80 O100 2.484 . S
Tb80 O101 2.440 . S
Tb80 O102 2.658 . S
Tb80 O103 2.409 . S
Tb80 O104 2.378 . S
Tb80 O108 2.325 . S
Tb80 O111 2.341 . S
Tb81 C91 2.809 . S
Tb81 O102 2.325 . S
Tb81 O105 2.341 . S
Tb81 O106 2.484 . S
Tb81 O107 2.440 . S
Tb81 O108 2.658 . S
Tb81 O109 2.409 . S
Tb81 O110 2.378 . S
C82 Tb80 2.809 . S
C82 C83 1.514 . S
C82 O100 1.248 . S
C82 O101 1.266 . S
C83 C82 1.514 . S
C83 C84 1.359 . S
C83 C88 1.348 . S
C84 C83 1.359 . S
C84 C85 1.380 . S
C84 H112 0.929 . S
C85 C84 1.380 . S
C85 C86 1.347 . S
C85 H113 0.931 . S
C86 C85 1.347 . S
C86 C87 1.369 . S
C87 C86 1.369 . S
C87 C88 1.408 . S
C87 H114 0.930 . S
C88 C83 1.348 . S
C88 C87 1.408 . S
C88 H115 0.930 . S
C89 O102 1.281 . S
C89 O103 1.254 . S
C90 O104 1.236 . S
C90 O105 1.266 . S
C91 Tb81 2.809 . S
C91 C92 1.514 . S
C91 O106 1.248 . S
C91 O107 1.266 . S
C92 C91 1.514 . S
C92 C93 1.359 . S
C92 C97 1.348 . S
C93 C92 1.359 . S
C93 C94 1.380 . S
C93 H116 0.929 . S
C94 C93 1.380 . S
C94 C95 1.347 . S
C94 H117 0.931 . S
C95 C94 1.347 . S
C95 C96 1.369 . S
C96 C95 1.369 . S
C96 C97 1.408 . S
C96 H118 0.930 . S
C97 C92 1.348 . S
C97 C96 1.408 . S
C97 H119 0.930 . S
C98 O108 1.281 . S
C98 O109 1.254 . S
C99 O110 1.236 . S
C99 O111 1.266 . S
O100 Tb80 2.484 . S
O100 C82 1.248 . S
O101 Tb80 2.440 . S
O101 C82 1.266 . S
O102 Tb80 2.658 . S
O102 Tb81 2.325 . S
O102 C89 1.281 . S
O103 Tb80 2.409 . S
O103 C89 1.254 . S
O104 Tb80 2.378 . S
O104 C90 1.236 . S
O105 Tb81 2.341 . S
O105 C90 1.266 . S
O106 Tb81 2.484 . S
O106 C91 1.248 . S
O107 Tb81 2.440 . S
O107 C91 1.266 . S
O108 Tb80 2.325 . S
O108 Tb81 2.658 . S
O108 C98 1.281 . S
O109 Tb81 2.409 . S
O109 C98 1.254 . S
O110 Tb81 2.378 . S
O110 C99 1.236 . S
O111 Tb80 2.341 . S
O111 C99 1.266 . S
H112 C84 0.929 . S
H113 C85 0.931 . S
H114 C87 0.930 . S
H115 C88 0.930 . S
H116 C93 0.929 . S
H117 C94 0.931 . S
H118 C96 0.930 . S
H119 C97 0.930 . S
H120 C121 0.949 . S
C121 H120 0.949 . S
C121 C122 1.395 . S
C121 C123 1.391 . S
C122 C121 1.395 . S
C122 C125 1.390 1_545 S
C123 C121 1.391 . S
C123 C127 1.387 . S
C123 C128 1.491 . S
H124 C125 0.950 . S
C125 C122 1.390 1_565 S
C125 H124 0.950 . S
C125 C126 1.378 . S
C126 C125 1.378 . S
C126 C127 1.409 1_565 S
C127 C123 1.387 . S
C127 C126 1.409 1_545 S
C127 H129 0.951 . S
C128 C123 1.491 . S
C128 C130 1.382 . S
C128 C132 1.404 . S
H129 C127 0.951 . S
C130 C128 1.382 . S
C130 C131 1.390 . S
C130 H135 0.949 . S
C131 C130 1.390 . S
C131 C136 1.399 . S
C132 C128 1.404 . S
C132 H133 0.950 . S
C132 C134 1.375 . S
H133 C132 0.950 . S
C134 C132 1.375 . S
C134 C136 1.382 . S
C134 H138 0.950 . S
H135 C130 0.949 . S
C136 C131 1.399 . S
C136 C134 1.382 . S
C136 H137 0.952 . S
H137 C136 0.952 . S
H138 C134 0.950 . S
H139 C140 0.949 . S
C140 H139 0.949 . S
C140 C141 1.395 . S
C140 C142 1.391 . S
C141 C140 1.395 . S
C141 C144 1.390 . S
C142 C140 1.391 . S
C142 C146 1.387 . S
C142 C147 1.491 . S
H143 C144 0.950 . S
C144 C141 1.390 . S
C144 H143 0.950 . S
C144 C145 1.378 . S
C145 C144 1.378 . S
C145 C146 1.409 . S
C146 C142 1.387 . S
C146 C145 1.409 . S
C146 H148 0.951 . S
C147 C142 1.491 . S
C147 C149 1.382 . S
C147 C151 1.404 . S
H148 C146 0.951 . S
C149 C147 1.382 . S
C149 C150 1.390 . S
C149 H154 0.949 . S
C150 C149 1.390 . S
C150 C155 1.399 . S
C151 C147 1.404 . S
C151 H152 0.950 . S
C151 C153 1.375 . S
H152 C151 0.950 . S
C153 C151 1.375 . S
C153 C155 1.382 . S
C153 H157 0.950 . S
H154 C149 0.949 . S
C155 C150 1.399 . S
C155 C153 1.382 . S
C155 H156 0.952 . S
H156 C155 0.952 . S
H157 C153 0.950 . S
H158 C159 0.949 . S
C159 H158 0.949 . S
C159 C160 1.395 1_455 S
C159 C161 1.391 . S
C160 C159 1.395 1_655 S
C160 C163 1.390 . S
C161 C159 1.391 . S
C161 C165 1.387 1_455 S
C161 C166 1.491 . S
H162 C163 0.950 . S
C163 C160 1.390 . S
C163 H162 0.950 . S
C163 C164 1.378 . S
C164 C163 1.378 . S
C164 C165 1.409 . S
C165 C161 1.387 1_655 S
C165 C164 1.409 . S
C165 H167 0.951 . S
C166 C161 1.491 . S
C166 C168 1.382 . S
C166 C170 1.404 . S
H167 C165 0.951 . S
C168 C166 1.382 . S
C168 C169 1.390 . S
C168 H173 0.949 . S
C169 C168 1.390 . S
C169 C174 1.399 . S
C170 C166 1.404 . S
C170 H171 0.950 . S
C170 C172 1.375 . S
H171 C170 0.950 . S
C172 C170 1.375 . S
C172 C174 1.382 . S
C172 H176 0.950 . S
H173 C168 0.949 . S
C174 C169 1.399 . S
C174 C172 1.382 . S
C174 H175 0.952 . S
H175 C174 0.952 . S
H176 C172 0.950 . S
H177 C178 0.949 1_655 S
C178 H177 0.949 1_455 S
C178 C179 1.395 . S
C178 C180 1.391 . S
C179 C178 1.395 . S
C179 C182 1.390 . S
C180 C178 1.391 . S
C180 C184 1.387 . S
C180 C185 1.491 1_455 S
H181 C182 0.950 . S
C182 C179 1.390 . S
C182 H181 0.950 . S
C182 C183 1.378 . S
C183 C182 1.378 . S
C183 C184 1.409 . S
C184 C180 1.387 . S
C184 C183 1.409 . S
C184 H186 0.951 . S
C185 C180 1.491 1_655 S
C185 C187 1.382 . S
C185 C189 1.404 . S
H186 C184 0.951 . S
C187 C185 1.382 . S
C187 C188 1.390 . S
C187 H192 0.949 . S
C188 C187 1.390 . S
C188 C193 1.399 . S
C189 C185 1.404 . S
C189 H190 0.950 . S
C189 C191 1.375 . S
H190 C189 0.950 . S
C191 C189 1.375 . S
C191 C193 1.382 . S
C191 H195 0.950 . S
H192 C187 0.949 . S
C193 C188 1.399 . S
C193 C191 1.382 . S
C193 H194 0.952 . S
H194 C193 0.952 . S
H195 C191 0.950 . S
H196 C197 0.949 1_565 S
C197 H196 0.949 1_545 S
C197 C198 1.395 . S
C197 C199 1.391 . S
C198 C197 1.395 . S
C198 C201 1.390 . S
C199 C197 1.391 . S
C199 C203 1.387 . S
C199 C204 1.491 1_545 S
H200 C201 0.950 . S
C201 C198 1.390 . S
C201 H200 0.950 . S
C201 C202 1.378 . S
C202 C201 1.378 . S
C202 C203 1.409 . S
C203 C199 1.387 . S
C203 C202 1.409 . S
C203 H205 0.951 . S
C204 C199 1.491 1_565 S
C204 C206 1.382 . S
C204 C208 1.404 . S
H205 C203 0.951 . S
C206 C204 1.382 . S
C206 C207 1.390 . S
C206 H211 0.949 . S
C207 C206 1.390 . S
C207 C212 1.399 . S
C208 C204 1.404 . S
C208 H209 0.950 . S
C208 C210 1.375 . S
H209 C208 0.950 . S
C210 C208 1.375 . S
C210 C212 1.382 . S
C210 H214 0.950 . S
H211 C206 0.949 . S
C212 C207 1.399 . S
C212 C210 1.382 . S
C212 H213 0.952 . S
H213 C212 0.952 . S
H214 C210 0.950 . S
H215 C216 0.949 . S
C216 H215 0.949 . S
C216 C217 1.395 . S
C216 C218 1.391 . S
C217 C216 1.395 . S
C217 C220 1.390 . S
C218 C216 1.391 . S
C218 C222 1.387 . S
C218 C223 1.491 . S
H219 C220 0.950 . S
C220 C217 1.390 . S
C220 H219 0.950 . S
C220 C221 1.378 . S
C221 C220 1.378 . S
C221 C222 1.409 . S
C222 C218 1.387 . S
C222 C221 1.409 . S
C222 H224 0.951 . S
C223 C218 1.491 . S
C223 C225 1.382 . S
C223 C227 1.404 . S
H224 C222 0.951 . S
C225 C223 1.382 . S
C225 C226 1.390 . S
C225 H230 0.949 . S
C226 C225 1.390 . S
C226 C231 1.399 . S
C227 C223 1.404 . S
C227 H228 0.950 . S
C227 C229 1.375 . S
H228 C227 0.950 . S
C229 C227 1.375 . S
C229 C231 1.382 . S
C229 H233 0.950 . S
H230 C225 0.949 . S
C231 C226 1.399 . S
C231 C229 1.382 . S
C231 H232 0.952 . S
H232 C231 0.952 . S
H233 C229 0.950 . S
C234 C235 1.363 . S
C234 C240 1.379 . S
C234 N242 1.356 . S
C235 C234 1.363 . S
C235 C241 1.363 . S
C236 C237 1.363 . S
C236 C241 1.379 . S
C236 N243 1.356 . S
C237 C236 1.363 . S
C237 C240 1.363 . S
N238 C240 1.356 . S
N238 H250 0.984 . S
N238 H251 0.985 . S
N239 C241 1.356 . S
N239 H244 0.984 . S
N239 H245 0.985 . S
C240 C234 1.379 . S
C240 C237 1.363 . S
C240 N238 1.356 . S
C241 C235 1.363 . S
C241 C236 1.379 . S
C241 N239 1.356 . S
N242 C234 1.356 . S
N242 H248 0.984 . S
N242 H249 0.984 . S
N243 C236 1.356 . S
N243 H246 0.984 . S
N243 H247 0.985 . S
H244 N239 0.984 . S
H245 N239 0.985 . S
H246 N243 0.984 . S
H247 N243 0.985 . S
H248 N242 0.984 . S
H249 N242 0.984 . S
H250 N238 0.984 . S
H251 N238 0.985 . S
C252 C253 1.363 . S
C252 C258 1.379 . S
C252 N260 1.356 . S
C253 C252 1.363 . S
C253 C259 1.363 . S
C254 C255 1.363 . S
C254 C259 1.379 . S
C254 N261 1.356 . S
C255 C254 1.363 . S
C255 C258 1.363 . S
N256 C258 1.356 . S
N256 H268 0.984 . S
N256 H269 0.985 . S
N257 C259 1.356 . S
N257 H262 0.984 . S
N257 H263 0.985 . S
C258 C252 1.379 . S
C258 C255 1.363 . S
C258 N256 1.356 . S
C259 C253 1.363 . S
C259 C254 1.379 . S
C259 N257 1.356 . S
N260 C252 1.356 . S
N260 H266 0.984 . S
N260 H267 0.984 . S
N261 C254 1.356 . S
N261 H264 0.984 . S
N261 H265 0.985 . S
H262 N257 0.984 . S
H263 N257 0.985 . S
H264 N261 0.984 . S
H265 N261 0.985 . S
H266 N260 0.984 . S
H267 N260 0.984 . S
H268 N256 0.984 . S
H269 N256 0.985 . S
C270 C271 1.363 . S
C270 C276 1.379 . S
C270 N278 1.356 . S
C271 C270 1.363 . S
C271 C277 1.363 . S
C272 C273 1.363 . S
C272 C277 1.379 . S
C272 N279 1.356 . S
C273 C272 1.363 . S
C273 C276 1.363 . S
N274 C276 1.356 . S
N274 H286 0.984 . S
N274 H287 0.985 . S
N275 C277 1.356 . S
N275 H280 0.984 . S
N275 H281 0.985 . S
C276 C270 1.379 . S
C276 C273 1.363 . S
C276 N274 1.356 . S
C277 C271 1.363 . S
C277 C272 1.379 . S
C277 N275 1.356 . S
N278 C270 1.356 . S
N278 H284 0.984 . S
N278 H285 0.984 . S
N279 C272 1.356 . S
N279 H282 0.984 . S
N279 H283 0.985 . S
H280 N275 0.984 . S
H281 N275 0.985 . S
H282 N279 0.984 . S
H283 N279 0.985 . S
H284 N278 0.984 . S
H285 N278 0.984 . S
H286 N274 0.984 . S
H287 N274 0.985 . S
C288 C289 1.363 . S
C288 C294 1.379 . S
C288 N296 1.356 . S
C289 C288 1.363 . S
C289 C295 1.363 . S
C290 C291 1.363 . S
C290 C295 1.379 . S
C290 N297 1.356 . S
C291 C290 1.363 . S
C291 C294 1.363 . S
N292 C294 1.356 . S
N292 H304 0.984 . S
N292 H305 0.985 . S
N293 C295 1.356 . S
N293 H298 0.984 . S
N293 H299 0.985 . S
C294 C288 1.379 . S
C294 C291 1.363 . S
C294 N292 1.356 . S
C295 C289 1.363 . S
C295 C290 1.379 . S
C295 N293 1.356 . S
N296 C288 1.356 . S
N296 H302 0.984 . S
N296 H303 0.984 . S
N297 C290 1.356 . S
N297 H300 0.984 . S
N297 H301 0.985 . S
H298 N293 0.984 . S
H299 N293 0.985 . S
H300 N297 0.984 . S
H301 N297 0.985 . S
H302 N296 0.984 . S
H303 N296 0.984 . S
H304 N292 0.984 . S
H305 N292 0.985 . S
C306 C307 1.363 . S
C306 C312 1.379 . S
C306 N314 1.356 . S
C307 C306 1.363 . S
C307 C313 1.363 . S
C308 C309 1.363 . S
C308 C313 1.379 . S
C308 N315 1.356 . S
C309 C308 1.363 . S
C309 C312 1.363 . S
N310 C312 1.356 . S
N310 H322 0.984 . S
N310 H323 0.985 . S
N311 C313 1.356 . S
N311 H316 0.984 . S
N311 H317 0.985 . S
C312 C306 1.379 . S
C312 C309 1.363 . S
C312 N310 1.356 . S
C313 C307 1.363 . S
C313 C308 1.379 . S
C313 N311 1.356 . S
N314 C306 1.356 . S
N314 H320 0.984 . S
N314 H321 0.984 . S
N315 C308 1.356 . S
N315 H318 0.984 . S
N315 H319 0.985 . S
H316 N311 0.984 . S
H317 N311 0.985 . S
H318 N315 0.984 . S
H319 N315 0.985 . S
H320 N314 0.984 . S
H321 N314 0.984 . S
H322 N310 0.984 . S
H323 N310 0.985 . S
C324 C325 1.363 . S
C324 C330 1.379 . S
C324 N332 1.356 . S
C325 C324 1.363 . S
C325 C331 1.363 . S
C326 C327 1.363 . S
C326 C331 1.379 . S
C326 N333 1.356 . S
C327 C326 1.363 . S
C327 C330 1.363 . S
N328 C330 1.356 . S
N328 H340 0.984 . S
N328 H341 0.985 . S
N329 C331 1.356 . S
N329 H334 0.984 . S
N329 H335 0.985 . S
C330 C324 1.379 . S
C330 C327 1.363 . S
C330 N328 1.356 . S
C331 C325 1.363 . S
C331 C326 1.379 . S
C331 N329 1.356 . S
N332 C324 1.356 . S
N332 H338 0.984 . S
N332 H339 0.984 . S
N333 C326 1.356 . S
N333 H336 0.984 . S
N333 H337 0.985 . S
H334 N329 0.984 . S
H335 N329 0.985 . S
H336 N333 0.984 . S
H337 N333 0.985 . S
H338 N332 0.984 . S
H339 N332 0.984 . S
H340 N328 0.984 . S
H341 N328 0.985 . S
C342 C343 1.363 . S
C342 C348 1.379 . S
C342 N350 1.356 . S
C343 C342 1.363 . S
C343 C349 1.363 . S
C344 C345 1.363 . S
C344 C349 1.379 . S
C344 N351 1.356 . S
C345 C344 1.363 . S
C345 C348 1.363 . S
N346 C348 1.356 . S
N346 H358 0.984 . S
N346 H359 0.985 . S
N347 C349 1.356 . S
N347 H352 0.984 . S
N347 H353 0.985 . S
C348 C342 1.379 . S
C348 C345 1.363 . S
C348 N346 1.356 . S
C349 C343 1.363 . S
C349 C344 1.379 . S
C349 N347 1.356 . S
N350 C342 1.356 . S
N350 H356 0.984 . S
N350 H357 0.984 . S
N351 C344 1.356 . S
N351 H354 0.984 . S
N351 H355 0.985 . S
H352 N347 0.984 . S
H353 N347 0.985 . S
H354 N351 0.984 . S
H355 N351 0.985 . S
H356 N350 0.984 . S
H357 N350 0.984 . S
H358 N346 0.984 . S
H359 N346 0.985 . S
C360 C361 1.363 . S
C360 C366 1.379 . S
C360 N368 1.356 . S
C361 C360 1.363 . S
C361 C367 1.363 . S
C362 C363 1.363 . S
C362 C367 1.379 . S
C362 N369 1.356 . S
C363 C362 1.363 . S
C363 C366 1.363 . S
N364 C366 1.356 . S
N364 H376 0.984 . S
N364 H377 0.985 . S
N365 C367 1.356 . S
N365 H370 0.984 . S
N365 H371 0.985 . S
C366 C360 1.379 . S
C366 C363 1.363 . S
C366 N364 1.356 . S
C367 C361 1.363 . S
C367 C362 1.379 . S
C367 N365 1.356 . S
N368 C360 1.356 . S
N368 H374 0.984 . S
N368 H375 0.984 . S
N369 C362 1.356 . S
N369 H372 0.982 1_655 S
N369 H373 0.985 1_655 S
H370 N365 0.984 . S
H371 N365 0.985 . S
H372 N369 0.982 1_455 S
H373 N369 0.985 1_455 S
H374 N368 0.984 . S
H375 N368 0.984 . S
H376 N364 0.984 . S
H377 N364 0.985 . S
C378 C379 1.363 . S
C378 C384 1.379 . S
C378 N386 1.356 . S
C379 C378 1.363 . S
C379 C385 1.363 . S
C380 C381 1.363 . S
C380 C385 1.379 . S
C380 N387 1.356 . S
C381 C380 1.363 . S
C381 C384 1.363 . S
N382 C384 1.356 . S
N382 H394 0.984 . S
N382 H395 0.985 1_565 S
N383 C385 1.356 . S
N383 H388 0.984 . S
N383 H389 0.985 . S
C384 C378 1.379 . S
C384 C381 1.363 . S
C384 N382 1.356 . S
C385 C379 1.363 . S
C385 C380 1.379 . S
C385 N383 1.356 . S
N386 C378 1.356 . S
N386 H392 0.984 . S
N386 H393 0.984 . S
N387 C380 1.356 . S
N387 H390 0.984 1_565 S
N387 H391 0.985 . S
H388 N383 0.984 . S
H389 N383 0.985 . S
H390 N387 0.984 1_545 S
H391 N387 0.985 . S
H392 N386 0.984 . S
H393 N386 0.984 . S
H394 N382 0.984 . S
H395 N382 0.985 1_545 S
C396 C397 1.363 . S
C396 C402 1.379 . S
C396 N404 1.356 . S
C397 C396 1.363 . S
C397 C403 1.363 . S
C398 C399 1.363 . S
C398 C403 1.379 . S
C398 N405 1.356 . S
C399 C398 1.363 . S
C399 C402 1.363 . S
N400 C402 1.356 . S
N400 H412 0.984 . S
N400 H413 0.985 . S
N401 C403 1.356 . S
N401 H406 0.984 . S
N401 H407 0.985 . S
C402 C396 1.379 . S
C402 C399 1.363 . S
C402 N400 1.356 . S
C403 C397 1.363 . S
C403 C398 1.379 . S
C403 N401 1.356 . S
N404 C396 1.356 . S
N404 H410 0.984 . S
N404 H411 0.984 . S
N405 C398 1.356 . S
N405 H408 0.984 . S
N405 H409 0.985 . S
H406 N401 0.984 . S
H407 N401 0.985 . S
H408 N405 0.984 . S
H409 N405 0.985 . S
H410 N404 0.984 . S
H411 N404 0.984 . S
H412 N400 0.984 . S
H413 N400 0.985 . S
C414 C415 1.363 . S
C414 C420 1.379 . S
C414 N422 1.356 . S
C415 C414 1.363 . S
C415 C421 1.363 . S
C416 C417 1.363 . S
C416 C421 1.379 . S
C416 N423 1.356 . S
C417 C416 1.363 . S
C417 C420 1.363 . S
N418 C420 1.356 . S
N418 H430 0.984 . S
N418 H431 0.985 . S
N419 C421 1.356 . S
N419 H424 0.984 . S
N419 H425 0.985 . S
C420 C414 1.379 . S
C420 C417 1.363 . S
C420 N418 1.356 . S
C421 C415 1.363 . S
C421 C416 1.379 . S
C421 N419 1.356 . S
N422 C414 1.356 . S
N422 H428 0.984 . S
N422 H429 0.984 . S
N423 C416 1.356 . S
N423 H426 0.984 . S
N423 H427 0.985 . S
H424 N419 0.984 . S
H425 N419 0.985 . S
H426 N423 0.984 . S
H427 N423 0.985 . S
H428 N422 0.984 . S
H429 N422 0.984 . S
H430 N418 0.984 . S
H431 N418 0.985 . S
C432 C433 1.363 . S
C432 C438 1.379 . S
C432 N440 1.356 . S
C433 C432 1.363 . S
C433 C439 1.363 . S
C434 C435 1.363 . S
C434 C439 1.379 . S
C434 N441 1.356 . S
C435 C434 1.363 . S
C435 C438 1.363 . S
N436 C438 1.356 . S
N436 H448 0.984 . S
N436 H449 0.985 . S
N437 C439 1.356 . S
N437 H442 0.984 . S
N437 H443 0.985 . S
C438 C432 1.379 . S
C438 C435 1.363 . S
C438 N436 1.356 . S
C439 C433 1.363 . S
C439 C434 1.379 . S
C439 N437 1.356 . S
N440 C432 1.356 . S
N440 H446 0.984 . S
N440 H447 0.984 . S
N441 C434 1.356 . S
N441 H444 0.984 . S
N441 H445 0.985 . S
H442 N437 0.984 . S
H443 N437 0.985 . S
H444 N441 0.984 . S
H445 N441 0.985 . S
H446 N440 0.984 . S
H447 N440 0.984 . S
H448 N436 0.984 . S
H449 N436 0.985 . S
C450 C451 1.363 1_655 S
C450 C456 1.379 1_554 S
C450 N458 1.356 . S
C451 C450 1.363 1_455 S
C451 C457 1.363 . S
C452 C453 1.368 1_554 S
C452 C457 1.384 1_655 S
C452 N459 1.347 1_554 S
C453 C452 1.368 1_556 S
C453 C456 1.363 . S
N454 C456 1.356 . S
N454 H466 0.984 . S
N454 H467 0.985 . S
N455 C457 1.356 . S
N455 H460 0.984 . S
N455 H461 0.985 . S
C456 C450 1.379 1_556 S
C456 C453 1.363 . S
C456 N454 1.356 . S
C457 C451 1.363 . S
C457 C452 1.384 1_455 S
C457 N455 1.356 . S
N458 C450 1.356 . S
N458 H464 0.984 . S
N458 H465 0.987 1_655 S
N459 C452 1.347 1_556 S
N459 H462 0.984 . S
N459 H463 0.975 1_656 S
H460 N455 0.984 . S
H461 N455 0.985 . S
H462 N459 0.984 . S
H463 N459 0.975 1_454 S
H464 N458 0.984 . S
H465 N458 0.987 1_455 S
H466 N454 0.984 . S
H467 N454 0.985 . S
C468 C469 1.363 . S
C468 C474 1.379 . S
C468 N476 1.356 1_545 S
C469 C468 1.363 . S
C469 C475 1.363 . S
C470 C471 1.363 . S
C470 C475 1.379 . S
C470 N477 1.356 . S
C471 C470 1.363 . S
C471 C474 1.363 . S
N472 C474 1.356 1_565 S
N472 H484 0.984 . S
N472 H485 0.985 . S
N473 C475 1.356 . S
N473 H478 0.984 . S
N473 H479 0.985 . S
C474 C468 1.379 . S
C474 C471 1.363 . S
C474 N472 1.356 1_545 S
C475 C469 1.363 . S
C475 C470 1.379 . S
C475 N473 1.356 . S
N476 C468 1.356 1_565 S
N476 H482 0.984 . S
N476 H483 0.984 . S
N477 C470 1.356 . S
N477 H480 0.984 . S
N477 H481 0.985 . S
H478 N473 0.984 . S
H479 N473 0.985 . S
H480 N477 0.984 . S
H481 N477 0.985 . S
H482 N476 0.984 . S
H483 N476 0.984 . S
H484 N472 0.984 . S
H485 N472 0.985 . S
C486 C487 1.363 . S
C486 C492 1.379 . S
C486 N494 1.356 . S
C487 C486 1.363 . S
C487 C493 1.363 . S
C488 C489 1.363 . S
C488 C493 1.379 . S
C488 N495 1.356 . S
C489 C488 1.363 . S
C489 C492 1.363 . S
N490 C492 1.356 . S
N490 H502 0.984 . S
N490 H503 0.985 . S
N491 C493 1.356 . S
N491 H496 0.984 . S
N491 H497 0.985 . S
C492 C486 1.379 . S
C492 C489 1.363 . S
C492 N490 1.356 . S
C493 C487 1.363 . S
C493 C488 1.379 . S
C493 N491 1.356 . S
N494 C486 1.356 . S
N494 H500 0.984 . S
N494 H501 0.984 . S
N495 C488 1.356 . S
N495 H498 0.984 . S
N495 H499 0.985 . S
H496 N491 0.984 . S
H497 N491 0.985 . S
H498 N495 0.984 . S
H499 N495 0.985 . S
H500 N494 0.984 . S
H501 N494 0.984 . S
H502 N490 0.984 . S
H503 N490 0.985 . S
C504 C505 1.363 . S
C504 C510 1.379 . S
C504 N512 1.356 1_545 S
C505 C504 1.363 . S
C505 C511 1.363 . S
C506 C507 1.363 . S
C506 C511 1.379 . S
C506 N513 1.356 . S
C507 C506 1.363 . S
C507 C510 1.363 . S
N508 C510 1.356 1_565 S
N508 H520 0.984 . S
N508 H521 0.985 . S
N509 C511 1.356 . S
N509 H514 0.984 . S
N509 H515 0.985 . S
C510 C504 1.379 . S
C510 C507 1.363 . S
C510 N508 1.356 1_545 S
C511 C505 1.363 . S
C511 C506 1.379 . S
C511 N509 1.356 . S
N512 C504 1.356 1_565 S
N512 H518 0.984 . S
N512 H519 0.984 . S
N513 C506 1.356 . S
N513 H516 0.984 . S
N513 H517 0.985 . S
H514 N509 0.984 . S
H515 N509 0.985 . S
H516 N513 0.984 . S
H517 N513 0.985 . S
H518 N512 0.984 . S
H519 N512 0.984 . S
H520 N508 0.984 . S
H521 N508 0.985 . S
C522 C523 1.363 . S
C522 C528 1.379 1_556 S
C522 N530 1.356 . S
C523 C522 1.363 . S
C523 C529 1.363 . S
C524 C525 1.363 1_556 S
C524 C529 1.379 . S
C524 N531 1.356 1_556 S
C525 C524 1.363 1_554 S
C525 C528 1.363 . S
N526 C528 1.356 . S
N526 H538 0.984 . S
N526 H539 0.985 . S
N527 C529 1.356 . S
N527 H532 0.984 . S
N527 H533 0.985 . S
C528 C522 1.379 1_554 S
C528 C525 1.363 . S
C528 N526 1.356 . S
C529 C523 1.363 . S
C529 C524 1.379 . S
C529 N527 1.356 . S
N530 C522 1.356 . S
N530 H536 0.984 . S
N530 H537 0.984 . S
N531 C524 1.356 1_554 S
N531 H534 0.984 . S
N531 H535 0.985 . S
H532 N527 0.984 . S
H533 N527 0.985 . S
H534 N531 0.984 . S
H535 N531 0.985 . S
H536 N530 0.984 . S
H537 N530 0.984 . S
H538 N526 0.984 . S
H539 N526 0.985 . S
C540 C541 1.363 1_655 S
C540 C546 1.379 . S
C540 N548 1.356 . S
C541 C540 1.363 1_455 S
C541 C547 1.363 . S
C542 C543 1.363 . S
C542 C547 1.379 . S
C542 N549 1.356 . S
C543 C542 1.363 . S
C543 C546 1.363 1_455 S
N544 C546 1.356 . S
N544 H556 0.984 . S
N544 H557 0.985 . S
N545 C547 1.356 . S
N545 H550 0.984 . S
N545 H551 0.985 . S
C546 C540 1.379 . S
C546 C543 1.363 1_655 S
C546 N544 1.356 . S
C547 C541 1.363 . S
C547 C542 1.379 . S
C547 N545 1.356 . S
N548 C540 1.356 . S
N548 H554 0.984 . S
N548 H555 0.984 . S
N549 C542 1.356 . S
N549 H552 0.984 . S
N549 H553 0.985 . S
H550 N545 0.984 . S
H551 N545 0.985 . S
H552 N549 0.984 . S
H553 N549 0.985 . S
H554 N548 0.984 . S
H555 N548 0.984 . S
H556 N544 0.984 . S
H557 N544 0.985 . S
C235 C10 3.152 . S
C237 C226 3.080 . S
C253 C59 3.208 . S
C255 C188 3.136 . S
C271 C90 3.142 . S
C273 C207 3.074 . S
C289 C19 3.066 . S
C291 C221 3.032 . S
C309 C183 2.999 . S
C307 C50 3.034 . S
C327 C202 3.043 . S
C325 C99 3.075 . S
C343 C46 0.838 . S
C345 C150 0.788 . S
C361 C95 0.549 . S
C363 C164 0.437 . S
C379 C6 0.320 . S
C381 C126 0.226 . S
C399 C145 0.504 . S
C397 C55 0.574 . S
C417 C169 0.745 . S
C415 C86 0.738 . S
C433 C15 0.682 . S
C435 C131 0.716 . S
C453 C160 1.328 . S
C451 C9 1.350 . S
C469 C49 1.182 . S
C471 C122 1.241 . S
C487 C89 1.270 . S
C489 C141 1.273 . S
C507 C198 1.755 . S
C505 C58 1.730 . S
C525 C217 1.780 . S
C523 C98 1.719 . S
C541 C18 1.702 . S
C543 C179 1.835 . S
