# Generated by pormake.
# Topology sit, (3,6)-cn, num edge types: 1
# Building blocks:
#     Node 0, Type 0, BuildingBlock: KAKCAD_clean_linker_0, # of connection points: 3
#     Node 1, Type 0, BuildingBlock: KAKCAD_clean_linker_0, # of connection points: 3
#     Node 2, Type 0, BuildingBlock: KAKCAD_clean_linker_0, # of connection points: 3
#     Node 3, Type 0, BuildingBlock: KAKCAD_clean_linker_0, # of connection points: 3
#     Node 4, Type 1, BuildingBlock: MIDCAF_clean_sbu_0, # of connection points: 6
#     Node 5, Type 1, BuildingBlock: MIDCAF_clean_sbu_0, # of connection points: 6
#     Edge 6, Type (0, 1), BuildingBlock: XUDNAN_clean_linker_2, # of connection points: 2
#     Edge 7, Type (0, 1), BuildingBlock: XUDNAN_clean_linker_2, # of connection points: 2
#     Edge 8, Type (0, 1), BuildingBlock: XUDNAN_clean_linker_2, # of connection points: 2
#     Edge 9, Type (0, 1), BuildingBlock: XUDNAN_clean_linker_2, # of connection points: 2
#     Edge 10, Type (0, 1), BuildingBlock: XUDNAN_clean_linker_2, # of connection points: 2
#     Edge 11, Type (0, 1), BuildingBlock: XUDNAN_clean_linker_2, # of connection points: 2
#     Edge 12, Type (0, 1), BuildingBlock: XUDNAN_clean_linker_2, # of connection points: 2
#     Edge 13, Type (0, 1), BuildingBlock: XUDNAN_clean_linker_2, # of connection points: 2
#     Edge 14, Type (0, 1), BuildingBlock: XUDNAN_clean_linker_2, # of connection points: 2
#     Edge 15, Type (0, 1), BuildingBlock: XUDNAN_clean_linker_2, # of connection points: 2
#     Edge 16, Type (0, 1), BuildingBlock: XUDNAN_clean_linker_2, # of connection points: 2
#     Edge 17, Type (0, 1), BuildingBlock: XUDNAN_clean_linker_2, # of connection points: 2
# Relax obj value: 0.110
# Max RMSD: 0.193
# Mean RMSD: 0.106
data_MOF--net-sit--node1-MIDCAF_clean_sbu_0--node2-KAKCAD_clean_linker_0--edge1-XUDNAN_clean_linker_2
_symmetry_space_group_name_H-M    P1
_symmetry_Int_Tables_number       1
_symmetry_cell_setting            triclinic
loop_
_symmetry_equiv_pos_as_xyz
'x, y, z'
_cell_length_a     29.265197
_cell_length_b     37.895074
_cell_length_c     44.111029
_cell_angle_alpha  90.084634
_cell_angle_beta   89.443367
_cell_angle_gamma 81.787245
loop_
_atom_site_label
_atom_site_type_symbol
_atom_site_fract_x
_atom_site_fract_y
_atom_site_fract_z
_atom_type_partial_charge
C0 C 0.26363 0.32889 0.97592 0.0
C1 C 0.2703 0.36353 0.98447 0.0
C2 C 0.22377 0.3152 0.98505 0.0
C3 C 0.18968 0.33624 0.00234 0.0
C4 C 0.19687 0.37051 0.01148 0.0
C5 C 0.23701 0.38393 0.00283 0.0
C6 C 0.14503 0.32385 0.00886 0.0
C7 C 0.1429 0.2916 0.02409 0.0
C8 C 0.09993 0.28092 0.03101 0.0
C9 C 0.05926 0.30207 0.02138 0.0
C10 C 0.06108 0.334 0.00563 0.0
C11 C 0.10411 0.34486 -0.00021 0.0
C12 C 0.01827 0.35569 -0.00534 0.0
C13 C -0.01541 0.33925 0.97989 0.0
C14 C 0.0115 0.39301 -0.0021 0.0
C15 C 0.97215 0.4135 0.98615 0.0
C16 C 0.93908 0.39707 0.97071 0.0
C17 C 0.09692 0.24903 0.04993 0.0
C18 C 0.12415 0.21615 0.04362 0.0
C19 C 0.06656 0.25169 0.07488 0.0
C20 C 0.06331 0.22221 0.09316 0.0
C21 C 0.08987 0.18901 0.08679 0.0
C22 C 0.1205 0.18633 0.0618 0.0
C23 C 0.94549 0.35972 0.96797 0.0
H24 H 0.28899 0.31263 0.96188 0.0
H25 H 0.21872 0.28878 0.97764 0.0
H26 H 0.17097 0.38715 0.02486 0.0
H27 H 0.24122 0.41078 0.00954 0.0
H28 H 0.17448 0.27569 0.03163 0.0
H29 H 0.10594 0.36932 -0.01262 0.0
H30 H 0.02605 0.29382 0.02646 0.0
H31 H -0.01098 0.31058 0.97687 0.0
H32 H 0.03672 0.40636 0.00945 0.0
H33 H 0.96814 0.44224 -0.01147 0.0
H34 H 0.14776 0.21342 0.02442 0.0
H35 H 0.04587 0.27688 0.08066 0.0
H36 H 0.92023 0.3463 0.95653 0.0
H37 H 0.14137 0.1612 0.05616 0.0
H38 H 0.04053 0.2258 0.11276 0.0
C39 C 0.91445 0.68944 0.94239 0.0
C40 C 0.8777 0.6783 0.9588 0.0
C41 C 0.94803 0.70544 0.95718 0.0
C42 C 0.94536 0.71099 -0.01136 0.0
C43 C 0.90703 0.7023 0.00484 0.0
C44 C 0.87342 0.68599 -0.00997 0.0
C45 C -0.01411 0.72052 0.0047 0.0
C46 C -0.01698 0.75064 0.0236 0.0
C47 C 0.02272 0.75878 0.03828 0.0
C48 C 0.06511 0.73666 0.03385 0.0
C49 C 0.068 0.70647 0.01519 0.0
C50 C 0.02831 0.69855 0.00082 0.0
C51 C 0.11269 0.68413 0.0089 0.0
C52 C 0.14983 0.69976 -0.00268 0.0
C53 C 0.11697 0.64683 0.01143 0.0
C54 C 0.15717 0.62542 0.00143 0.0
C55 C 0.1932 0.64103 -0.01173 0.0
C56 C 0.02067 0.79017 0.05842 0.0
C57 C 0.00527 0.82466 0.04772 0.0
C58 C 0.03689 0.78577 0.08815 0.0
C59 C 0.03853 0.8153 0.10676 0.0
C60 C 0.02492 0.85011 0.0959 0.0
C61 C 0.00763 0.85442 0.06624 0.0
C62 C 0.18965 0.67835 -0.01314 0.0
H63 H 0.91806 0.6848 0.91819 0.0
H64 H -0.02277 0.71218 0.94424 0.0
H65 H 0.90458 0.7061 0.02918 0.0
H66 H 0.84554 0.67769 0.00331 0.0
H67 H 0.95022 0.76759 0.02683 0.0
H68 H 0.03056 0.67538 0.98612 0.0
H69 H 0.09592 0.74306 0.04481 0.0
H70 H 0.14715 0.72843 -0.00505 0.0
H71 H 0.08868 0.63427 0.02036 0.0
H72 H 0.15922 0.59668 0.00266 0.0
H73 H -0.0071 0.82862 0.02474 0.0
H74 H 0.04845 0.75936 0.09697 0.0
H75 H 0.21725 0.6909 0.97693 0.0
H76 H -0.00298 0.88075 0.05704 0.0
H77 H 0.05051 0.8107 0.12976 0.0
C78 C 0.64971 0.8866 0.44387 0.0
C79 C 0.68956 0.8946 0.45836 0.0
C80 C 0.61657 0.87103 0.45992 0.0
C81 C 0.62264 0.86278 0.49077 0.0
C82 C 0.66341 0.86903 0.50501 0.0
C83 C 0.69656 0.88494 0.48896 0.0
C84 C 0.58442 0.85092 0.5084 0.0
C85 C 0.59135 0.82044 0.52683 0.0
C86 C 0.55407 0.80965 0.54301 0.0
C87 C 0.50983 0.82945 0.54048 0.0
C88 C 0.50282 0.86 0.52233 0.0
C89 C 0.54021 0.87064 0.50654 0.0
C90 C 0.45617 0.87981 0.51792 0.0
C91 C 0.42106 0.86212 0.50645 0.0
C92 C 0.44797 0.91701 0.52182 0.0
C93 C 0.40587 0.9364 0.5132 0.0
C94 C 0.37192 0.91885 0.50005 0.0
C95 C 0.56087 0.77801 0.56292 0.0
C96 C 0.58087 0.74453 0.55172 0.0
C97 C 0.54572 0.78109 0.59319 0.0
C98 C 0.55039 0.75129 0.612 0.0
C99 C 0.56968 0.71767 0.6008 0.0
C100 C 0.58477 0.71444 0.57047 0.0
C101 C 0.37937 0.88155 0.4973 0.0
H102 H 0.64381 0.89276 0.42014 0.0
H103 H 0.58563 0.86602 0.44836 0.0
H104 H 0.66866 0.86312 0.52885 0.0
H105 H 0.72676 0.89088 0.50085 0.0
H106 H 0.62551 0.8052 0.52857 0.0
H107 H 0.53468 0.89416 0.49231 0.0
H108 H 0.4808 0.82099 0.55252 0.0
H109 H 0.42683 0.8335 0.503 0.0
H110 H 0.4747 0.93113 0.53062 0.0
H111 H 0.40074 0.96518 0.51532 0.0
H112 H 0.59251 0.74155 0.52835 0.0
H113 H 0.53027 0.80664 0.60232 0.0
H114 H 0.35348 0.86762 0.48715 0.0
H115 H 0.59982 0.68877 0.56139 0.0
H116 H 0.53813 0.7544 0.63524 0.0
C117 C 0.32248 0.20414 0.4921 0.0
C118 C 0.31659 0.1684 0.49677 0.0
C119 C 0.36213 0.21686 0.50238 0.0
C120 C 0.39688 0.19384 0.51697 0.0
C121 C 0.39047 0.15833 0.5223 0.0
C122 C 0.35041 0.1458 0.51255 0.0
C123 C 0.44144 0.20595 0.524 0.0
C124 C 0.44309 0.23729 0.54076 0.0
C125 C 0.48553 0.2495 0.54594 0.0
C126 C 0.52612 0.23066 0.53327 0.0
C127 C 0.52471 0.1997 0.51601 0.0
C128 C 0.48241 0.18709 0.51206 0.0
C129 C 0.56625 0.18257 0.49939 0.0
C130 C 0.59131 0.20344 0.48109 0.0
C131 C 0.57873 0.14532 0.4995 0.0
C132 C 0.61487 0.12918 0.48092 0.0
C133 C 0.63828 0.15007 0.46159 0.0
C134 C 0.48782 0.28189 0.56447 0.0
C135 C 0.45695 0.31332 0.55974 0.0
C136 C 0.52134 0.28149 0.58705 0.0
C137 C 0.52389 0.31175 0.60465 0.0
C138 C 0.49331 0.34341 0.59991 0.0
C139 C 0.45979 0.34382 0.57718 0.0
C140 C 0.62676 0.18731 0.46222 0.0
H141 H 0.2967 0.22207 0.48009 0.0
H142 H 0.36653 0.24426 0.49779 0.0
H143 H 0.4169 0.14013 0.5335 0.0
H144 H 0.3467 0.1181 0.51627 0.0
H145 H 0.41148 0.25177 0.55014 0.0
H146 H 0.48091 0.16371 0.49809 0.0
H147 H 0.55879 0.24051 0.53631 0.0
H148 H 0.58211 0.23215 0.48033 0.0
H149 H 0.55993 0.1287 0.51348 0.0
H150 H 0.62326 0.10039 0.4807 0.0
H151 H 0.43105 0.31446 0.54226 0.0
H152 H 0.54515 0.25747 0.59149 0.0
H153 H 0.64459 0.2039 0.44756 0.0
H154 H 0.43597 0.36778 0.57269 0.0
H155 H 0.54933 0.30998 0.62245 0.0
Zn156 Zn 0.00186 0.10829 0.32895 0.0
Zn157 Zn 0.04585 0.96375 0.33864 0.0
Zn158 Zn 0.02123 0.03553 0.33596 0.0
C159 C 0.04817 0.98247 0.2779 0.0
C160 C 0.9536 0.98233 0.36036 0.0
O161 O 0.06607 0.06051 0.36662 0.0
O162 O 0.05024 0.11871 0.35814 0.0
C163 C 0.02945 0.07963 0.27266 0.0
O164 O 0.03683 1.0136 0.28984 0.0
O165 O 0.0549 0.95512 0.29446 0.0
O166 O -0.01416 0.95637 0.35822 0.0
O167 O 0.96017 1.01386 0.35227 0.0
O168 O 0.01457 0.10928 0.2848 0.0
O169 O 0.03393 0.05071 0.28838 0.0
O170 O 0.9492 0.0514 0.35067 0.0
O171 O 0.93664 0.10977 0.34268 0.0
C172 C 0.92244 0.08146 0.35135 0.0
O173 O 0.0788 0.02291 0.36833 0.0
O174 O 0.10073 0.9646 0.36413 0.0
C175 C 0.07265 0.09282 0.37207 0.0
C176 C 0.10588 0.99432 0.3755 0.0
Zn177 Zn 0.53736 0.58817 0.84327 0.0
Zn178 Zn 0.58837 0.45099 0.82952 0.0
Zn179 Zn 0.56059 0.52107 0.83654 0.0
C180 C 0.56239 0.47638 0.77275 0.0
C181 C 0.51058 0.46113 0.86897 0.0
O182 O 0.61876 0.5446 0.85616 0.0
O183 O 0.58715 0.59859 0.87056 0.0
C184 C 0.5508 0.57578 0.78119 0.0
O185 O 0.5528 0.5056 0.78812 0.0
O186 O 0.58136 0.44822 0.78528 0.0
O187 O 0.53801 0.4369 0.85595 0.0
O188 O 0.51356 0.49429 0.8644 0.0
O189 O 0.54616 0.60062 0.80053 0.0
O190 O 0.5524 0.54315 0.78985 0.0
O191 O 0.49698 0.53136 0.86516 0.0
O192 O 0.4742 0.58914 0.8594 0.0
C193 C 0.46714 0.55938 0.86976 0.0
O194 O 0.62955 0.50642 0.85683 0.0
O195 O 0.65054 0.44902 0.8472 0.0
C196 C 0.62192 0.57473 0.86904 0.0
C197 C 0.65884 0.47775 0.85904 0.0
H198 H 0.01241 0.17155 0.11489 0.0
H199 H 0.15984 0.13746 0.10587 0.0
H200 H 0.15555 0.09355 0.14668 0.0
H201 H 0.01216 0.17757 0.19007 0.0
H202 H 0.9569 0.16311 0.19692 0.0
H203 H 0.96835 0.18301 0.16131 0.0
H204 H 0.94868 0.1272 0.13286 0.0
H205 H 0.93699 0.10711 0.16863 0.0
H206 H -0.02165 0.0837 0.14246 0.0
H207 H 0.138 0.06153 0.1946 0.0
H208 H 0.11081 0.04968 0.24655 0.0
H209 H -0.02253 0.10993 0.22691 0.0
C210 C 0.04372 0.15434 0.12099 0.0
C211 C 0.08647 0.15814 0.10716 0.0
C212 C 0.12648 0.1348 0.11572 0.0
C213 C 0.12436 0.1097 0.13894 0.0
C214 C 0.08198 0.10813 0.15329 0.0
C215 C 0.04231 0.12986 0.14448 0.0
C216 C 0.00291 0.12796 0.16658 0.0
C217 C -0.01596 0.16509 0.17948 0.0
C218 C 0.96446 0.11044 0.15174 0.0
C219 C 0.02745 0.10394 0.19043 0.0
C220 C 0.07241 0.09134 0.1818 0.0
C221 C 0.10265 0.07076 0.20132 0.0
C222 C 0.08703 0.06415 0.23073 0.0
C223 C 0.04222 0.07903 0.24037 0.0
C224 C 0.01178 0.09813 0.21974 0.0
H225 H 0.09272 0.85725 0.13696 0.0
H226 H 0.96559 0.91351 0.10047 0.0
H227 H 0.9682 0.9618 0.13776 0.0
H228 H 0.06074 0.86944 0.2105 0.0
H229 H 0.11719 0.87396 0.22469 0.0
H230 H 0.11191 0.84914 0.19055 0.0
H231 H 0.16223 0.88942 0.16169 0.0
H232 H 0.16742 0.91457 0.19591 0.0
H233 H 0.1456 0.9371 0.16195 0.0
H234 H -0.02221 0.99899 0.18407 0.0
H235 H -0.01124 1.01751 0.23697 0.0
H236 H 0.10611 0.93451 0.24494 0.0
C237 C 0.06564 0.87991 0.13644 0.0
C238 C 0.02889 0.8814 0.11572 0.0
C239 C -0.00544 0.91186 0.11573 0.0
C240 C -0.00423 0.9395 0.13687 0.0
C241 C 0.03162 0.93641 0.15775 0.0
C242 C 0.06593 0.90727 0.15763 0.0
C243 C 0.0966 0.90722 0.18503 0.0
C244 C 0.09655 0.87294 0.20379 0.0
C245 C 0.14589 0.9124 0.17557 0.0
C246 C 0.07251 0.93965 0.20164 0.0
C247 C 0.03618 0.95701 0.18506 0.0
C248 C 0.00666 0.986 0.19697 0.0
C249 C 0.01328 0.99649 0.22697 0.0
C250 C 0.04859 0.9776 0.24475 0.0
C251 C 0.07931 0.94964 0.23157 0.0
H252 H 0.60772 0.71174 0.65673 0.0
H253 H 0.53801 0.65394 0.59094 0.0
H254 H 0.53349 0.60584 0.62852 0.0
H255 H 0.6729 0.63176 0.69454 0.0
H256 H 0.66598 0.65317 0.73114 0.0
H257 H 0.66997 0.67949 0.69746 0.0
H258 H 0.59223 0.71803 0.71174 0.0
H259 H 0.58782 0.69177 0.74522 0.0
H260 H 0.54177 0.69661 0.71803 0.0
H261 H 0.52593 0.56913 0.67656 0.0
H262 H 0.51902 0.54724 0.72913 0.0
H263 H 0.59638 0.6284 0.76169 0.0
C264 C 0.59252 0.6885 0.65005 0.0
C265 C 0.57325 0.68635 0.62109 0.0
C266 C 0.55339 0.65575 0.61302 0.0
C267 C 0.55064 0.62841 0.63422 0.0
C268 C 0.56869 0.63192 0.66307 0.0
C269 C 0.58993 0.66103 0.67073 0.0
C270 C 0.60344 0.66023 0.70369 0.0
C271 C 0.65621 0.65589 0.70688 0.0
C272 C 0.57988 0.69362 0.72065 0.0
C273 C 0.58458 0.62708 0.71385 0.0
C274 C 0.56519 0.61066 0.69018 0.0
C275 C 0.54224 0.58122 0.69505 0.0
C276 C 0.53878 0.56862 0.72489 0.0
C277 C 0.55799 0.58549 0.74927 0.0
C278 C 0.58169 0.6147 0.74341 0.0
H279 H 0.57066 0.36722 0.62244 0.0
H280 H 0.4211 0.39081 0.62277 0.0
H281 H 0.42481 0.43833 0.6605 0.0
H282 H 0.58204 0.37018 0.69862 0.0
H283 H 0.6349 0.38947 0.69876 0.0
H284 H 0.62125 0.36392 0.66665 0.0
H285 H 0.62909 0.41748 0.63137 0.0
H286 H 0.64261 0.44331 0.66359 0.0
H287 H 0.59546 0.46024 0.63922 0.0
H288 H 0.44347 0.47515 0.70457 0.0
H289 H 0.47527 0.49547 0.75227 0.0
H290 H 0.61202 0.44639 0.72477 0.0
C291 C 0.53865 0.38276 0.63 0.0
C292 C 0.49559 0.37519 0.6195 0.0
C293 C 0.45461 0.3964 0.62996 0.0
C294 C 0.45636 0.42351 0.65146 0.0
C295 C 0.49935 0.42933 0.66217 0.0
C296 C 0.5398 0.40959 0.65166 0.0
C297 C 0.58098 0.41739 0.66968 0.0
C298 C 0.60622 0.38322 0.68429 0.0
C299 C 0.61398 0.4357 0.64977 0.0
C300 C 0.5571 0.4429 0.69319 0.0
C301 C 0.51018 0.45038 0.68794 0.0
C302 C 0.48029 0.47035 0.70843 0.0
C303 C 0.4986 0.4819 0.73538 0.0
C304 C 0.5462 0.47337 0.74155 0.0
C305 C 0.5758 0.45433 0.71991 0.0
H306 H 0.30005 0.36582 0.92579 0.0
H307 H 0.32994 0.3976 0.01713 0.0
H308 H 0.39479 0.42658 -0.00264 0.0
H309 H 0.41764 0.34734 0.89843 0.0
H310 H 0.40404 0.36529 0.86125 0.0
H311 H 0.36113 0.34624 0.88285 0.0
H312 H 0.30467 0.40519 0.87767 0.0
H313 H 0.34753 0.42446 0.8562 0.0
H314 H 0.3225 0.44649 0.88994 0.0
H315 H 0.45727 0.45071 0.96767 0.0
H316 H 0.51128 0.47041 0.92973 0.0
H317 H 0.43786 0.42572 0.85769 0.0
C318 C 0.3207 0.37848 0.94163 0.0
C319 C 0.3105 0.37925 0.97298 0.0
C320 C 0.33745 0.39674 -0.00698 0.0
C321 C 0.37425 0.41319 0.98202 0.0
C322 C 0.38321 0.41218 0.95091 0.0
C323 C 0.3571 0.39541 0.93099 0.0
C324 C 0.37301 0.39904 0.89852 0.0
C325 C 0.38997 0.36229 0.88444 0.0
C326 C 0.33464 0.42005 0.87947 0.0
C327 C 0.41247 0.42018 0.9033 0.0
C328 C 0.41787 0.42741 0.9337 0.0
C329 C 0.45293 0.44568 0.94379 0.0
C330 C 0.48313 0.45696 0.92218 0.0
C331 C 0.47727 0.45067 0.891 0.0
C332 C 0.44201 0.43163 0.88146 0.0
H333 H 0.78339 0.68303 0.96592 0.0
H334 H 0.90034 0.62457 0.91754 0.0
H335 H 0.84804 0.58953 0.89113 0.0
H336 H 0.71973 0.60706 0.97542 0.0
H337 H 0.66439 0.63393 0.97024 0.0
H338 H 0.71135 0.65341 -0.01362 0.0
H339 H 0.70232 0.70216 0.94481 0.0
H340 H 0.65545 0.6828 0.92856 0.0
H341 H 0.70478 0.68907 0.90545 0.0
H342 H 0.78283 0.56326 0.86775 0.0
H343 H 0.70873 0.54756 0.84939 0.0
H344 H 0.63485 0.62103 0.91453 0.0
C345 C 0.79806 0.66256 0.95007 0.0
C346 C 0.84591 0.65681 0.94361 0.0
C347 C 0.86367 0.62998 0.92243 0.0
C348 C 0.83433 0.60968 0.90751 0.0
C349 C 0.78733 0.61628 0.91417 0.0
C350 C 0.76927 0.64194 0.93503 0.0
C351 C 0.71729 0.64443 0.93734 0.0
C352 C 0.70232 0.63408 0.96925 0.0
C353 C 0.69358 0.68183 0.9285 0.0
C354 C 0.70893 0.61674 0.91407 0.0
C355 C 0.74979 0.6006 0.90111 0.0
C356 C 0.75063 0.57531 0.87805 0.0
C357 C 0.70847 0.56644 0.86787 0.0
C358 C 0.66628 0.58248 0.88103 0.0
C359 C 0.66668 0.60795 0.90439 0.0
H360 H 0.90453 0.38926 0.91429 0.0
H361 H 0.8816 0.45319 -0.0039 0.0
H362 H 0.81069 0.48623 0.97388 0.0
H363 H 0.85971 0.46032 0.86058 0.0
H364 H 0.8342 0.42973 0.83692 0.0
H365 H 0.88565 0.4143 0.85798 0.0
H366 H 0.84447 0.36536 0.88302 0.0
H367 H 0.79307 0.3806 0.86207 0.0
H368 H 0.79043 0.37806 0.90284 0.0
H369 H 0.73747 0.50696 0.94497 0.0
H370 H 0.66917 0.51388 0.91168 0.0
H371 H 0.74191 0.43749 0.84852 0.0
C372 C 0.88479 0.41042 0.92744 0.0
C373 C 0.89836 0.41864 0.95692 0.0
C374 C 0.87192 0.44671 0.97334 0.0
C375 C 0.83165 0.46557 0.96092 0.0
C376 C 0.81879 0.4563 0.93194 0.0
C377 C 0.84486 0.42955 0.91534 0.0
C378 C 0.82237 0.42313 0.88553 0.0
C379 C 0.85227 0.43243 0.85867 0.0
C380 C 0.81196 0.38451 0.88326 0.0
C381 C 0.77861 0.44944 0.88839 0.0
C382 C 0.77732 0.46871 0.91511 0.0
C383 C 0.73861 0.49265 0.92367 0.0
C384 C 0.70012 0.49659 0.90457 0.0
C385 C 0.70096 0.47702 0.87717 0.0
C386 C 0.74084 0.45339 0.86901 0.0
H387 H 0.22327 0.64532 0.93034 0.0
H388 H 0.25218 0.58673 0.01385 0.0
H389 H 0.32188 0.55238 -0.0101 0.0
H390 H 0.26466 0.56976 0.87829 0.0
H391 H 0.28763 0.5988 0.8516 0.0
H392 H 0.2376 0.61531 0.87435 0.0
H393 H 0.27923 0.6666 0.89427 0.0
H394 H 0.32914 0.65037 0.87157 0.0
H395 H 0.33483 0.656 0.91188 0.0
H396 H 0.39445 0.5322 0.95927 0.0
H397 H 0.46163 0.52686 0.92422 0.0
H398 H 0.38144 0.59427 0.85944 0.0
C399 C 0.24404 0.62491 0.9434 0.0
C400 C 0.23293 0.61866 0.97388 0.0
C401 C 0.26042 0.5917 -0.00961 0.0
C402 C 0.29983 0.57209 0.97696 0.0
C403 C 0.31036 0.57935 0.94687 0.0
C404 C 0.28283 0.60483 0.93022 0.0
C405 C 0.30284 0.60924 0.89899 0.0
C406 C 0.2713 0.59757 0.87435 0.0
C407 C 0.31207 0.64782 0.89391 0.0
C408 C 0.3472 0.5836 0.9011 0.0
C409 C 0.35079 0.56621 0.92873 0.0
C410 C 0.39117 0.5444 0.93709 0.0
C411 C 0.4289 0.54079 0.91687 0.0
C412 C 0.42564 0.55823 0.88856 0.0
C413 C 0.38412 0.57957 0.88054 0.0
H414 H 0.78444 0.8833 0.46101 0.0
H415 H 0.66993 0.94971 0.41818 0.0
H416 H 0.72491 0.98032 0.38907 0.0
H417 H 0.85738 0.9535 0.46764 0.0
H418 H 0.90981 0.92336 0.4604 0.0
H419 H 0.86125 0.90728 0.47838 0.0
H420 H 0.86251 0.85891 0.43658 0.0
H421 H 0.91087 0.87496 0.41842 0.0
H422 H 0.85905 0.87217 0.39733 0.0
H423 H 0.79248 1.00203 0.36296 0.0
H424 H 0.8681 1.0136 0.34269 0.0
H425 H 0.93778 0.9352 0.40434 0.0
C426 C 0.77085 0.90456 0.44581 0.0
C427 C 0.72283 0.91381 0.44169 0.0
C428 C 0.70658 0.94159 0.42128 0.0
C429 C 0.73751 0.95934 0.40479 0.0
C430 C 0.78458 0.94925 0.40913 0.0
C431 C 0.80119 0.92271 0.42931 0.0
C432 C 0.8534 0.91675 0.42959 0.0
C433 C 0.87152 0.92577 0.46086 0.0
C434 C 0.87257 0.87842 0.41989 0.0
C435 C 0.86353 0.94355 0.40599 0.0
C436 C 0.82341 0.9622 0.39455 0.0
C437 C 0.82414 0.98785 0.37198 0.0
C438 C 0.86712 0.99456 0.36086 0.0
C439 C 0.9085 0.97595 0.37252 0.0
C440 C 0.90655 0.95003 0.39523 0.0
H441 H 0.28839 0.17298 0.43807 0.0
H442 H 0.25571 0.13115 0.52582 0.0
H443 H 0.18926 0.1069 0.5034 0.0
H444 H 0.17275 0.19853 0.41249 0.0
H445 H 0.18562 0.18477 0.37384 0.0
H446 H 0.2299 0.19906 0.39702 0.0
H447 H 0.28265 0.13919 0.3865 0.0
H448 H 0.2385 0.12473 0.36329 0.0
H449 H 0.2615 0.0978 0.39477 0.0
H450 H 0.12418 0.09012 0.47162 0.0
H451 H 0.06889 0.07792 0.43198 0.0
H452 H 0.14768 0.12702 0.36461 0.0
C453 C 0.26693 0.15896 0.45256 0.0
C454 C 0.27657 0.15421 0.48369 0.0
C455 C 0.24857 0.13509 0.50192 0.0
C456 C 0.21085 0.12133 0.4894 0.0
C457 C 0.20219 0.12655 0.45858 0.0
C458 C 0.22973 0.1446 0.44035 0.0
C459 C 0.21394 0.14567 0.40775 0.0
C460 C 0.1997 0.18431 0.39717 0.0
C461 C 0.25138 0.12565 0.38685 0.0
C462 C 0.17267 0.12596 0.41052 0.0
C463 C 0.16635 0.11524 0.44005 0.0
C464 C 0.12939 0.09772 0.44834 0.0
C465 C 0.09854 0.09056 0.42576 0.0
C466 C 0.1055 0.1002 0.39534 0.0
C467 C 0.14249 0.11865 0.38771 0.0
H468 H 0.34989 0.92038 0.44077 0.0
H469 H 0.30222 0.9631 0.52842 0.0
H470 H 0.23071 0.99393 0.50477 0.0
H471 H 0.30184 1.00015 0.39615 0.0
H472 H 0.28799 0.97314 0.3648 0.0
H473 H 0.3368 0.9579 0.38837 0.0
H474 H 0.30343 0.89923 0.39902 0.0
H475 H 0.2547 0.91427 0.37554 0.0
H476 H 0.24568 0.90149 0.41425 0.0
H477 H 0.15996 1.01153 0.47249 0.0
H478 H 0.09828 1.01735 0.43396 0.0
H479 H 0.19572 0.968 0.36693 0.0
C480 C 0.32455 0.93667 0.45482 0.0
C481 C 0.33088 0.93939 0.48628 0.0
C482 C 0.29753 0.96089 0.5042 0.0
C483 C 0.25709 0.97847 0.49095 0.0
C484 C 0.25143 0.97476 0.45977 0.0
C485 C 0.28467 0.9548 0.4419 0.0
C486 C 0.26968 0.9535 0.40929 0.0
C487 C 0.30094 0.9723 0.38843 0.0
C488 C 0.26827 0.91484 0.39894 0.0
C489 C 0.22185 0.97443 0.41175 0.0
C490 C 0.21195 0.98679 0.44096 0.0
C491 C 0.16796 1.00334 0.4493 0.0
C492 C 0.13332 1.00711 0.42726 0.0
C493 C 0.14324 0.99517 0.39728 0.0
C494 C 0.18799 0.97871 0.38948 0.0
H495 H 0.71913 0.10563 0.47226 0.0
H496 H 0.63491 0.15846 0.40079 0.0
H497 H 0.69526 0.13685 0.36307 0.0
H498 H 0.82193 0.12876 0.44733 0.0
H499 H 0.85782 0.08762 0.45682 0.0
H500 H 0.80481 0.101 0.47734 0.0
H501 H 0.77859 0.04087 0.46416 0.0
H502 H 0.83029 0.02703 0.44208 0.0
H503 H 0.7743 0.02806 0.42512 0.0
H504 H 0.76738 0.11913 0.33503 0.0
H505 H 0.84857 0.10629 0.31788 0.0
H506 H 0.88818 0.06371 0.40639 0.0
C507 C 0.71309 0.11158 0.4485 0.0
C508 C 0.67252 0.13343 0.43919 0.0
C509 C 0.66588 0.14167 0.40817 0.0
C510 C 0.69977 0.12931 0.38662 0.0
C511 C 0.74003 0.10864 0.39649 0.0
C512 C 0.74694 0.09963 0.42664 0.0
C513 C 0.79557 0.08063 0.43154 0.0
C514 C 0.82154 0.10072 0.45461 0.0
C515 C 0.79468 0.04183 0.44131 0.0
C516 C 0.81561 0.08241 0.39982 0.0
C517 C 0.78249 0.09795 0.37988 0.0
C518 C 0.79337 0.10608 0.35014 0.0
C519 C 0.83946 0.09888 0.34064 0.0
C520 C 0.87395 0.08358 0.36074 0.0
C521 C 0.8619 0.07455 0.39049 0.0
loop_
_geom_bond_atom_site_label_1
_geom_bond_atom_site_label_2
_geom_bond_distance
_geom_bond_site_symmetry_2
_ccdc_geom_bond_type
C0 C1 1.386 . S
C0 C2 1.397 . S
C0 H24 0.931 . S
C1 C0 1.386 . S
C1 C5 1.397 . S
C2 C0 1.397 . S
C2 C3 1.384 . S
C2 H25 0.930 . S
C3 C2 1.384 . S
C3 C4 1.377 . S
C3 C6 1.481 1_556 S
C4 C3 1.377 . S
C4 C5 1.389 . S
C4 H26 0.929 . S
C5 C1 1.397 . S
C5 C4 1.389 . S
C5 H27 0.931 . S
C6 C3 1.481 1_554 S
C6 C7 1.387 . S
C6 C11 1.390 1_554 S
C7 C6 1.387 . S
C7 C8 1.401 . S
C7 H28 0.930 . S
C8 C7 1.401 . S
C8 C9 1.376 . S
C8 C17 1.511 . S
C9 C8 1.376 . S
C9 C10 1.392 . S
C9 H30 0.931 . S
C10 C9 1.392 . S
C10 C11 1.361 1_554 S
C10 C12 1.500 1_554 S
C11 C6 1.390 1_556 S
C11 C10 1.361 1_556 S
C11 H29 0.931 . S
C12 C10 1.500 1_556 S
C12 C13 1.371 1_455 S
C12 C14 1.365 . S
C13 C12 1.371 1_655 S
C13 C23 1.386 . S
C13 H31 0.931 1_655 S
C14 C12 1.365 . S
C14 C15 1.409 1_455 S
C14 H32 0.929 . S
C15 C14 1.409 1_655 S
C15 C16 1.380 . S
C15 H33 0.930 . S
C16 C15 1.380 . S
C16 C23 1.357 . S
C17 C8 1.511 . S
C17 C18 1.341 . S
C17 C19 1.371 . S
C18 C17 1.341 . S
C18 C22 1.394 . S
C18 H34 0.930 . S
C19 C17 1.371 . S
C19 C20 1.392 . S
C19 H35 0.931 . S
C20 C19 1.392 . S
C20 C21 1.331 . S
C20 H38 0.932 . S
C21 C20 1.331 . S
C21 C22 1.336 . S
C22 C18 1.394 . S
C22 C21 1.336 . S
C22 H37 0.929 . S
C23 C13 1.386 . S
C23 C16 1.357 . S
C23 H36 0.928 . S
H24 C0 0.931 . S
H25 C2 0.930 . S
H26 C4 0.929 . S
H27 C5 0.931 . S
H28 C7 0.930 . S
H29 C11 0.931 . S
H30 C9 0.931 . S
H31 C13 0.931 1_455 S
H32 C14 0.929 . S
H33 C15 0.930 . S
H34 C18 0.930 . S
H35 C19 0.931 . S
H36 C23 0.928 . S
H37 C22 0.929 . S
H38 C20 0.932 . S
C39 C40 1.386 . S
C39 C41 1.397 . S
C39 H63 0.931 . S
C40 C39 1.386 . S
C40 C44 1.397 . S
C41 C39 1.397 . S
C41 C42 1.384 . S
C41 H64 0.930 . S
C42 C41 1.384 . S
C42 C43 1.377 . S
C42 C45 1.481 1_556 S
C43 C42 1.377 . S
C43 C44 1.389 . S
C43 H65 0.929 . S
C44 C40 1.397 . S
C44 C43 1.389 . S
C44 H66 0.931 . S
C45 C42 1.481 1_554 S
C45 C46 1.387 . S
C45 C50 1.390 1_654 S
C46 C45 1.387 . S
C46 C47 1.401 1_655 S
C46 H67 0.930 . S
C47 C46 1.401 1_455 S
C47 C48 1.376 . S
C47 C56 1.511 . S
C48 C47 1.376 . S
C48 C49 1.392 . S
C48 H69 0.931 . S
C49 C48 1.392 . S
C49 C50 1.361 1_554 S
C49 C51 1.500 1_554 S
C50 C45 1.390 1_456 S
C50 C49 1.361 1_556 S
C50 H68 0.931 . S
C51 C49 1.500 1_556 S
C51 C52 1.371 . S
C51 C53 1.365 . S
C52 C51 1.371 . S
C52 C62 1.386 . S
C52 H70 0.931 . S
C53 C51 1.365 . S
C53 C54 1.409 . S
C53 H71 0.929 . S
C54 C53 1.409 . S
C54 C55 1.380 . S
C54 H72 0.930 . S
C55 C54 1.380 . S
C55 C62 1.357 . S
C56 C47 1.511 . S
C56 C57 1.341 1_455 S
C56 C58 1.371 . S
C57 C56 1.341 1_655 S
C57 C61 1.394 . S
C57 H73 0.930 . S
C58 C56 1.371 . S
C58 C59 1.392 . S
C58 H74 0.931 . S
C59 C58 1.392 . S
C59 C60 1.332 1_455 S
C59 H77 0.932 . S
C60 C59 1.332 1_655 S
C60 C61 1.334 . S
C61 C57 1.394 . S
C61 C60 1.334 . S
C61 H76 0.929 . S
C62 C52 1.386 . S
C62 C55 1.357 . S
C62 H75 0.928 . S
H63 C39 0.931 . S
H64 C41 0.930 . S
H65 C43 0.929 . S
H66 C44 0.931 . S
H67 C46 0.930 . S
H68 C50 0.931 . S
H69 C48 0.931 . S
H70 C52 0.931 . S
H71 C53 0.929 . S
H72 C54 0.930 . S
H73 C57 0.930 . S
H74 C58 0.931 . S
H75 C62 0.928 . S
H76 C61 0.929 . S
H77 C59 0.932 . S
C78 C79 1.386 . S
C78 C80 1.397 . S
C78 H102 0.931 . S
C79 C78 1.386 . S
C79 C83 1.397 . S
C80 C78 1.397 . S
C80 C81 1.384 . S
C80 H103 0.930 . S
C81 C80 1.384 . S
C81 C82 1.377 . S
C81 C84 1.481 . S
C82 C81 1.377 . S
C82 C83 1.389 . S
C82 H104 0.929 . S
C83 C79 1.397 . S
C83 C82 1.389 . S
C83 H105 0.931 . S
C84 C81 1.481 . S
C84 C85 1.387 . S
C84 C89 1.390 . S
C85 C84 1.387 . S
C85 C86 1.401 . S
C85 H106 0.930 . S
C86 C85 1.401 . S
C86 C87 1.376 . S
C86 C95 1.511 . S
C87 C86 1.376 . S
C87 C88 1.392 . S
C87 H108 0.931 . S
C88 C87 1.392 . S
C88 C89 1.361 . S
C88 C90 1.500 . S
C89 C84 1.390 . S
C89 C88 1.361 . S
C89 H107 0.931 . S
C90 C88 1.500 . S
C90 C91 1.371 . S
C90 C92 1.365 . S
C91 C90 1.371 . S
C91 C101 1.386 . S
C91 H109 0.931 . S
C92 C90 1.365 . S
C92 C93 1.409 . S
C92 H110 0.929 . S
C93 C92 1.409 . S
C93 C94 1.380 . S
C93 H111 0.930 . S
C94 C93 1.380 . S
C94 C101 1.357 . S
C95 C86 1.511 . S
C95 C96 1.341 . S
C95 C97 1.371 . S
C96 C95 1.341 . S
C96 C100 1.394 . S
C96 H112 0.930 . S
C97 C95 1.371 . S
C97 C98 1.392 . S
C97 H113 0.931 . S
C98 C97 1.392 . S
C98 C99 1.331 . S
C98 H116 0.932 . S
C99 C98 1.331 . S
C99 C100 1.336 . S
C100 C96 1.394 . S
C100 C99 1.336 . S
C100 H115 0.929 . S
C101 C91 1.386 . S
C101 C94 1.357 . S
C101 H114 0.928 . S
H102 C78 0.931 . S
H103 C80 0.930 . S
H104 C82 0.929 . S
H105 C83 0.931 . S
H106 C85 0.930 . S
H107 C89 0.931 . S
H108 C87 0.931 . S
H109 C91 0.931 . S
H110 C92 0.929 . S
H111 C93 0.930 . S
H112 C96 0.930 . S
H113 C97 0.931 . S
H114 C101 0.928 . S
H115 C100 0.929 . S
H116 C98 0.932 . S
C117 C118 1.386 . S
C117 C119 1.397 . S
C117 H141 0.931 . S
C118 C117 1.386 . S
C118 C122 1.397 . S
C119 C117 1.397 . S
C119 C120 1.384 . S
C119 H142 0.930 . S
C120 C119 1.384 . S
C120 C121 1.377 . S
C120 C123 1.481 . S
C121 C120 1.377 . S
C121 C122 1.389 . S
C121 H143 0.929 . S
C122 C118 1.397 . S
C122 C121 1.389 . S
C122 H144 0.931 . S
C123 C120 1.481 . S
C123 C124 1.387 . S
C123 C128 1.390 . S
C124 C123 1.387 . S
C124 C125 1.401 . S
C124 H145 0.930 . S
C125 C124 1.401 . S
C125 C126 1.376 . S
C125 C134 1.511 . S
C126 C125 1.376 . S
C126 C127 1.392 . S
C126 H147 0.931 . S
C127 C126 1.392 . S
C127 C128 1.361 . S
C127 C129 1.500 . S
C128 C123 1.390 . S
C128 C127 1.361 . S
C128 H146 0.931 . S
C129 C127 1.500 . S
C129 C130 1.371 . S
C129 C131 1.365 . S
C130 C129 1.371 . S
C130 C140 1.386 . S
C130 H148 0.931 . S
C131 C129 1.365 . S
C131 C132 1.409 . S
C131 H149 0.929 . S
C132 C131 1.409 . S
C132 C133 1.380 . S
C132 H150 0.930 . S
C133 C132 1.380 . S
C133 C140 1.357 . S
C134 C125 1.511 . S
C134 C135 1.341 . S
C134 C136 1.371 . S
C135 C134 1.341 . S
C135 C139 1.394 . S
C135 H151 0.930 . S
C136 C134 1.371 . S
C136 C137 1.392 . S
C136 H152 0.931 . S
C137 C136 1.392 . S
C137 C138 1.331 . S
C137 H155 0.932 . S
C138 C137 1.331 . S
C138 C139 1.336 . S
C139 C135 1.394 . S
C139 C138 1.336 . S
C139 H154 0.929 . S
C140 C130 1.386 . S
C140 C133 1.357 . S
C140 H153 0.928 . S
H141 C117 0.931 . S
H142 C119 0.930 . S
H143 C121 0.929 . S
H144 C122 0.931 . S
H145 C124 0.930 . S
H146 C128 0.931 . S
H147 C126 0.931 . S
H148 C130 0.931 . S
H149 C131 0.929 . S
H150 C132 0.930 . S
H151 C135 0.930 . S
H152 C136 0.931 . S
H153 C140 0.928 . S
H154 C139 0.929 . S
H155 C137 0.932 . S
Zn156 O162 1.920 . S
Zn156 O168 1.898 . S
Zn156 O171 1.905 1_455 S
Zn157 O165 1.905 . S
Zn157 O166 1.898 . S
Zn157 O174 1.920 . S
Zn158 O161 2.080 . S
Zn158 O164 2.114 1_545 S
Zn158 O167 2.120 1_545 S
Zn158 O169 2.120 . S
Zn158 O170 2.114 . S
Zn158 O173 2.080 1_545 S
C159 O164 1.166 . S
C159 O165 1.182 . S
C160 O166 1.167 . S
C160 O167 1.299 . S
O161 Zn158 2.080 . S
O161 C175 1.305 . S
O162 Zn156 1.920 . S
O162 C175 1.234 . S
C163 O168 1.167 . S
C163 O169 1.299 . S
O164 Zn158 2.114 1_565 S
O164 C159 1.166 . S
O165 Zn157 1.905 . S
O165 C159 1.182 . S
O166 Zn157 1.898 . S
O166 C160 1.167 . S
O167 Zn158 2.120 1_565 S
O167 C160 1.299 . S
O168 Zn156 1.898 . S
O168 C163 1.167 . S
O169 Zn158 2.120 . S
O169 C163 1.299 . S
O170 Zn158 2.114 . S
O170 C172 1.166 1_455 S
O171 Zn156 1.905 1_655 S
O171 C172 1.182 . S
C172 O170 1.166 1_655 S
C172 O171 1.182 . S
O173 Zn158 2.080 1_565 S
O173 C176 1.305 . S
O174 Zn157 1.920 . S
O174 C176 1.234 . S
C175 O161 1.305 . S
C175 O162 1.234 . S
C176 O173 1.305 . S
C176 O174 1.234 . S
Zn177 O183 1.920 . S
Zn177 O189 1.898 . S
Zn177 O192 1.905 . S
Zn178 O186 1.905 . S
Zn178 O187 1.898 . S
Zn178 O195 1.920 . S
Zn179 O182 2.080 . S
Zn179 O185 2.114 . S
Zn179 O188 2.120 . S
Zn179 O190 2.120 . S
Zn179 O191 2.114 . S
Zn179 O194 2.080 . S
C180 O185 1.166 . S
C180 O186 1.182 . S
C181 O187 1.167 . S
C181 O188 1.299 . S
O182 Zn179 2.080 . S
O182 C196 1.305 . S
O183 Zn177 1.920 . S
O183 C196 1.234 . S
C184 O189 1.167 . S
C184 O190 1.299 . S
O185 Zn179 2.114 . S
O185 C180 1.166 . S
O186 Zn178 1.905 . S
O186 C180 1.182 . S
O187 Zn178 1.898 . S
O187 C181 1.167 . S
O188 Zn179 2.120 . S
O188 C181 1.299 . S
O189 Zn177 1.898 . S
O189 C184 1.167 . S
O190 Zn179 2.120 . S
O190 C184 1.299 . S
O191 Zn179 2.114 . S
O191 C193 1.166 . S
O192 Zn177 1.905 . S
O192 C193 1.182 . S
C193 O191 1.166 . S
C193 O192 1.182 . S
O194 Zn179 2.080 . S
O194 C197 1.305 . S
O195 Zn178 1.920 . S
O195 C197 1.234 . S
C196 O182 1.305 . S
C196 O183 1.234 . S
C197 O194 1.305 . S
C197 O195 1.234 . S
H198 C210 0.930 . S
H199 C212 0.930 . S
H200 C213 0.930 . S
H201 C217 0.959 . S
H202 C217 0.959 . S
H203 C217 0.961 . S
H204 C218 0.960 . S
H205 C218 0.961 . S
H206 C218 0.959 . S
H207 C221 0.929 . S
H208 C222 0.931 . S
H209 C224 0.930 . S
C210 H198 0.930 . S
C210 C211 1.399 . S
C210 C215 1.399 . S
C211 C210 1.399 . S
C211 C212 1.376 . S
C212 H199 0.930 . S
C212 C211 1.376 . S
C212 C213 1.388 . S
C213 H200 0.930 . S
C213 C212 1.388 . S
C213 C214 1.390 . S
C214 C213 1.390 . S
C214 C215 1.394 . S
C214 C220 1.465 . S
C215 C210 1.399 . S
C215 C214 1.394 . S
C215 C216 1.516 . S
C216 C215 1.516 . S
C216 C217 1.502 . S
C216 C218 1.561 . S
C216 C219 1.526 . S
C217 H201 0.959 . S
C217 H202 0.959 . S
C217 H203 0.961 . S
C217 C216 1.502 . S
C218 H204 0.960 . S
C218 H205 0.961 . S
C218 H206 0.959 . S
C218 C216 1.561 . S
C219 C216 1.526 . S
C219 C220 1.396 . S
C219 C224 1.390 . S
C220 C214 1.465 . S
C220 C219 1.396 . S
C220 C221 1.399 . S
C221 H207 0.929 . S
C221 C220 1.399 . S
C221 C222 1.385 . S
C222 H208 0.931 . S
C222 C221 1.385 . S
C222 C223 1.389 . S
C223 C222 1.389 . S
C223 C224 1.387 . S
C224 H209 0.930 . S
C224 C219 1.390 . S
C224 C223 1.387 . S
H225 C237 0.930 . S
H226 C239 0.931 . S
H227 C240 0.930 . S
H228 C244 0.959 . S
H229 C244 0.959 . S
H230 C244 0.961 . S
H231 C245 0.960 . S
H232 C245 0.961 . S
H233 C245 0.959 . S
H234 C248 0.929 . S
H235 C249 0.931 . S
H236 C251 0.930 . S
C237 H225 0.930 . S
C237 C238 1.400 . S
C237 C242 1.399 . S
C238 C237 1.400 . S
C238 C239 1.376 1_455 S
C239 H226 0.931 . S
C239 C238 1.376 1_655 S
C239 C240 1.388 1_655 S
C240 H227 0.930 . S
C240 C239 1.388 1_455 S
C240 C241 1.390 . S
C241 C240 1.390 . S
C241 C242 1.394 . S
C241 C247 1.465 . S
C242 C237 1.399 . S
C242 C241 1.394 . S
C242 C243 1.516 . S
C243 C242 1.516 . S
C243 C244 1.502 . S
C243 C245 1.561 1_455 S
C243 C246 1.526 . S
C244 H228 0.959 . S
C244 H229 0.959 . S
C244 H230 0.961 . S
C244 C243 1.502 . S
C245 H231 0.960 . S
C245 H232 0.961 . S
C245 H233 0.959 . S
C245 C243 1.561 1_655 S
C246 C243 1.526 . S
C246 C247 1.396 . S
C246 C251 1.390 . S
C247 C241 1.465 . S
C247 C246 1.396 . S
C247 C248 1.399 . S
C248 H234 0.929 . S
C248 C247 1.399 . S
C248 C249 1.385 . S
C249 H235 0.931 . S
C249 C248 1.385 . S
C249 C250 1.389 . S
C250 C249 1.389 . S
C250 C251 1.387 . S
C251 H236 0.930 . S
C251 C246 1.390 . S
C251 C250 1.387 . S
H252 C264 0.930 . S
H253 C266 0.930 . S
H254 C267 0.930 . S
H255 C271 0.959 . S
H256 C271 0.959 . S
H257 C271 0.961 . S
H258 C272 0.960 . S
H259 C272 0.961 . S
H260 C272 0.959 . S
H261 C275 0.929 . S
H262 C276 0.931 . S
H263 C278 0.930 . S
C264 H252 0.930 . S
C264 C265 1.399 . S
C264 C269 1.399 . S
C265 C264 1.399 . S
C265 C266 1.376 . S
C266 H253 0.930 . S
C266 C265 1.376 . S
C266 C267 1.388 . S
C267 H254 0.930 . S
C267 C266 1.388 . S
C267 C268 1.390 . S
C268 C267 1.390 . S
C268 C269 1.394 . S
C268 C274 1.465 . S
C269 C264 1.399 . S
C269 C268 1.394 . S
C269 C270 1.516 . S
C270 C269 1.516 . S
C270 C271 1.502 . S
C270 C272 1.561 . S
C270 C273 1.526 . S
C271 H255 0.959 . S
C271 H256 0.959 . S
C271 H257 0.961 . S
C271 C270 1.502 . S
C272 H258 0.960 . S
C272 H259 0.961 . S
C272 H260 0.959 . S
C272 C270 1.561 . S
C273 C270 1.526 . S
C273 C274 1.396 . S
C273 C278 1.390 . S
C274 C268 1.465 . S
C274 C273 1.396 . S
C274 C275 1.399 . S
C275 H261 0.929 . S
C275 C274 1.399 . S
C275 C276 1.385 . S
C276 H262 0.931 . S
C276 C275 1.385 . S
C276 C277 1.389 . S
C277 C276 1.389 . S
C277 C278 1.387 . S
C278 H263 0.930 . S
C278 C273 1.390 . S
C278 C277 1.387 . S
H279 C291 0.930 . S
H280 C293 0.930 . S
H281 C294 0.930 . S
H282 C298 0.959 . S
H283 C298 0.959 . S
H284 C298 0.961 . S
H285 C299 0.960 . S
H286 C299 0.961 . S
H287 C299 0.959 . S
H288 C302 0.929 . S
H289 C303 0.931 . S
H290 C305 0.930 . S
C291 H279 0.930 . S
C291 C292 1.399 . S
C291 C296 1.399 . S
C292 C291 1.399 . S
C292 C293 1.376 . S
C293 H280 0.930 . S
C293 C292 1.376 . S
C293 C294 1.388 . S
C294 H281 0.930 . S
C294 C293 1.388 . S
C294 C295 1.390 . S
C295 C294 1.390 . S
C295 C296 1.394 . S
C295 C301 1.465 . S
C296 C291 1.399 . S
C296 C295 1.394 . S
C296 C297 1.516 . S
C297 C296 1.516 . S
C297 C298 1.502 . S
C297 C299 1.561 . S
C297 C300 1.526 . S
C298 H282 0.959 . S
C298 H283 0.959 . S
C298 H284 0.961 . S
C298 C297 1.502 . S
C299 H285 0.960 . S
C299 H286 0.961 . S
C299 H287 0.959 . S
C299 C297 1.561 . S
C300 C297 1.526 . S
C300 C301 1.396 . S
C300 C305 1.390 . S
C301 C295 1.465 . S
C301 C300 1.396 . S
C301 C302 1.399 . S
C302 H288 0.929 . S
C302 C301 1.399 . S
C302 C303 1.385 . S
C303 H289 0.931 . S
C303 C302 1.385 . S
C303 C304 1.389 . S
C304 C303 1.389 . S
C304 C305 1.387 . S
C305 H290 0.930 . S
C305 C300 1.390 . S
C305 C304 1.387 . S
H306 C318 0.930 . S
H307 C320 0.930 1_554 S
H308 C321 0.903 1_554 S
H309 C325 0.959 . S
H310 C325 0.959 . S
H311 C325 0.961 . S
H312 C326 0.960 . S
H313 C326 0.961 . S
H314 C326 0.959 . S
H315 C329 0.929 . S
H316 C330 0.931 . S
H317 C332 0.930 . S
C318 H306 0.930 . S
C318 C319 1.399 . S
C318 C323 1.399 . S
C319 C318 1.399 . S
C319 C320 1.376 . S
C320 H307 0.930 1_556 S
C320 C319 1.376 . S
C320 C321 1.388 . S
C321 H308 0.903 1_556 S
C321 C320 1.388 . S
C321 C322 1.390 . S
C322 C321 1.390 . S
C322 C323 1.394 . S
C322 C328 1.465 . S
C323 C318 1.399 . S
C323 C322 1.394 . S
C323 C324 1.516 . S
C324 C323 1.516 . S
C324 C325 1.502 . S
C324 C326 1.561 . S
C324 C327 1.526 . S
C325 H309 0.959 . S
C325 H310 0.959 . S
C325 H311 0.961 . S
C325 C324 1.502 . S
C326 H312 0.960 . S
C326 H313 0.961 . S
C326 H314 0.959 . S
C326 C324 1.561 . S
C327 C324 1.526 . S
C327 C328 1.396 . S
C327 C332 1.390 . S
C328 C322 1.465 . S
C328 C327 1.396 . S
C328 C329 1.399 . S
C329 H315 0.929 . S
C329 C328 1.399 . S
C329 C330 1.385 . S
C330 H316 0.931 . S
C330 C329 1.385 . S
C330 C331 1.389 . S
C331 C330 1.389 . S
C331 C332 1.387 . S
C332 H317 0.930 . S
C332 C327 1.390 . S
C332 C331 1.387 . S
H333 C345 0.930 . S
H334 C347 0.930 . S
H335 C348 0.930 . S
H336 C352 0.959 . S
H337 C352 0.959 . S
H338 C352 0.961 . S
H339 C353 0.960 . S
H340 C353 0.961 . S
H341 C353 0.959 . S
H342 C356 0.929 . S
H343 C357 0.931 . S
H344 C359 0.930 . S
C345 H333 0.930 . S
C345 C346 1.399 . S
C345 C350 1.399 . S
C346 C345 1.399 . S
C346 C347 1.376 . S
C347 H334 0.930 . S
C347 C346 1.376 . S
C347 C348 1.388 . S
C348 H335 0.930 . S
C348 C347 1.388 . S
C348 C349 1.390 . S
C349 C348 1.390 . S
C349 C350 1.394 . S
C349 C355 1.465 . S
C350 C345 1.399 . S
C350 C349 1.394 . S
C350 C351 1.516 . S
C351 C350 1.516 . S
C351 C352 1.502 . S
C351 C353 1.561 1_556 S
C351 C354 1.526 . S
C352 H336 0.959 . S
C352 H337 0.959 . S
C352 H338 0.961 . S
C352 C351 1.502 . S
C353 H339 0.960 . S
C353 H340 0.961 . S
C353 H341 0.959 . S
C353 C351 1.561 1_554 S
C354 C351 1.526 . S
C354 C355 1.396 . S
C354 C359 1.390 . S
C355 C349 1.465 . S
C355 C354 1.396 . S
C355 C356 1.399 . S
C356 H342 0.929 . S
C356 C355 1.399 . S
C356 C357 1.385 . S
C357 H343 0.931 . S
C357 C356 1.385 . S
C357 C358 1.389 . S
C358 C357 1.389 . S
C358 C359 1.387 . S
C359 H344 0.930 . S
C359 C354 1.390 . S
C359 C358 1.387 . S
H360 C372 0.930 . S
H361 C374 0.930 . S
H362 C375 0.930 . S
H363 C379 0.959 . S
H364 C379 0.959 . S
H365 C379 0.961 . S
H366 C380 0.960 . S
H367 C380 0.961 . S
H368 C380 0.959 . S
H369 C383 0.929 . S
H370 C384 0.931 . S
H371 C386 0.930 . S
C372 H360 0.930 . S
C372 C373 1.399 . S
C372 C377 1.399 . S
C373 C372 1.399 . S
C373 C374 1.376 . S
C374 H361 0.930 . S
C374 C373 1.376 . S
C374 C375 1.388 . S
C375 H362 0.930 . S
C375 C374 1.388 . S
C375 C376 1.390 . S
C376 C375 1.390 . S
C376 C377 1.394 . S
C376 C382 1.465 . S
C377 C372 1.399 . S
C377 C376 1.394 . S
C377 C378 1.516 . S
C378 C377 1.516 . S
C378 C379 1.502 . S
C378 C380 1.561 . S
C378 C381 1.526 . S
C379 H363 0.959 . S
C379 H364 0.959 . S
C379 H365 0.961 . S
C379 C378 1.502 . S
C380 H366 0.960 . S
C380 H367 0.961 . S
C380 H368 0.959 . S
C380 C378 1.561 . S
C381 C378 1.526 . S
C381 C382 1.396 . S
C381 C386 1.390 . S
C382 C376 1.465 . S
C382 C381 1.396 . S
C382 C383 1.399 . S
C383 H369 0.929 . S
C383 C382 1.399 . S
C383 C384 1.385 . S
C384 H370 0.931 . S
C384 C383 1.385 . S
C384 C385 1.389 . S
C385 C384 1.389 . S
C385 C386 1.387 . S
C386 H371 0.930 . S
C386 C381 1.390 . S
C386 C385 1.387 . S
H387 C399 0.930 . S
H388 C401 0.930 . S
H389 C402 0.930 . S
H390 C406 0.959 . S
H391 C406 0.959 . S
H392 C406 0.961 . S
H393 C407 0.960 . S
H394 C407 0.961 . S
H395 C407 0.959 . S
H396 C410 0.929 . S
H397 C411 0.931 . S
H398 C413 0.930 . S
C399 H387 0.930 . S
C399 C400 1.399 . S
C399 C404 1.399 . S
C400 C399 1.399 . S
C400 C401 1.376 . S
C401 H388 0.930 . S
C401 C400 1.376 . S
C401 C402 1.388 . S
C402 H389 0.930 . S
C402 C401 1.388 . S
C402 C403 1.390 . S
C403 C402 1.390 . S
C403 C404 1.394 . S
C403 C409 1.465 . S
C404 C399 1.399 . S
C404 C403 1.394 . S
C404 C405 1.516 . S
C405 C404 1.516 . S
C405 C406 1.502 . S
C405 C407 1.561 . S
C405 C408 1.526 . S
C406 H390 0.959 . S
C406 H391 0.959 . S
C406 H392 0.961 . S
C406 C405 1.502 . S
C407 H393 0.960 . S
C407 H394 0.961 . S
C407 H395 0.959 . S
C407 C405 1.561 . S
C408 C405 1.526 . S
C408 C409 1.396 . S
C408 C413 1.390 . S
C409 C403 1.465 . S
C409 C408 1.396 . S
C409 C410 1.399 . S
C410 H396 0.929 . S
C410 C409 1.399 . S
C410 C411 1.385 . S
C411 H397 0.931 . S
C411 C410 1.385 . S
C411 C412 1.389 . S
C412 C411 1.389 . S
C412 C413 1.387 . S
C413 H398 0.930 . S
C413 C408 1.390 . S
C413 C412 1.387 . S
H414 C426 0.930 . S
H415 C428 0.930 . S
H416 C429 0.930 . S
H417 C433 0.959 . S
H418 C433 0.959 . S
H419 C433 0.961 . S
H420 C434 0.960 . S
H421 C434 0.961 . S
H422 C434 0.959 . S
H423 C437 0.929 . S
H424 C438 0.931 1_455 S
H425 C440 0.930 . S
C426 H414 0.930 . S
C426 C427 1.399 . S
C426 C431 1.399 . S
C427 C426 1.399 . S
C427 C428 1.376 . S
C428 H415 0.930 . S
C428 C427 1.376 . S
C428 C429 1.388 . S
C429 H416 0.930 . S
C429 C428 1.388 . S
C429 C430 1.390 . S
C430 C429 1.390 . S
C430 C431 1.394 . S
C430 C436 1.465 . S
C431 C426 1.399 . S
C431 C430 1.394 . S
C431 C432 1.516 . S
C432 C431 1.516 . S
C432 C433 1.502 . S
C432 C434 1.561 . S
C432 C435 1.526 . S
C433 H417 0.959 . S
C433 H418 0.959 . S
C433 H419 0.961 . S
C433 C432 1.502 . S
C434 H420 0.960 . S
C434 H421 0.961 . S
C434 H422 0.959 . S
C434 C432 1.561 . S
C435 C432 1.526 . S
C435 C436 1.396 . S
C435 C440 1.390 . S
C436 C430 1.465 . S
C436 C435 1.396 . S
C436 C437 1.399 . S
C437 H423 0.929 . S
C437 C436 1.399 . S
C437 C438 1.385 . S
C438 H424 0.931 1_655 S
C438 C437 1.385 . S
C438 C439 1.389 . S
C439 C438 1.389 . S
C439 C440 1.387 . S
C440 H425 0.930 . S
C440 C435 1.390 . S
C440 C439 1.387 . S
H441 C453 0.930 . S
H442 C455 0.930 . S
H443 C456 0.930 . S
H444 C460 0.959 . S
H445 C460 0.959 . S
H446 C460 0.961 . S
H447 C461 0.960 . S
H448 C461 0.961 . S
H449 C461 0.959 . S
H450 C464 0.929 . S
H451 C465 0.931 . S
H452 C467 0.930 . S
C453 H441 0.930 . S
C453 C454 1.399 . S
C453 C458 1.399 . S
C454 C453 1.399 . S
C454 C455 1.376 . S
C455 H442 0.930 . S
C455 C454 1.376 . S
C455 C456 1.388 . S
C456 H443 0.930 . S
C456 C455 1.388 . S
C456 C457 1.390 . S
C457 C456 1.390 . S
C457 C458 1.394 . S
C457 C463 1.465 . S
C458 C453 1.399 . S
C458 C457 1.394 . S
C458 C459 1.516 . S
C459 C458 1.516 . S
C459 C460 1.502 . S
C459 C461 1.561 . S
C459 C462 1.526 . S
C460 H444 0.959 . S
C460 H445 0.959 . S
C460 H446 0.961 . S
C460 C459 1.502 . S
C461 H447 0.960 . S
C461 H448 0.961 . S
C461 H449 0.959 . S
C461 C459 1.561 . S
C462 C459 1.526 . S
C462 C463 1.396 . S
C462 C467 1.390 . S
C463 C457 1.465 . S
C463 C462 1.396 . S
C463 C464 1.399 . S
C464 H450 0.929 . S
C464 C463 1.399 . S
C464 C465 1.385 . S
C465 H451 0.931 . S
C465 C464 1.385 . S
C465 C466 1.389 . S
C466 C465 1.389 . S
C466 C467 1.387 . S
C467 H452 0.930 . S
C467 C462 1.390 . S
C467 C466 1.387 . S
H468 C480 0.930 . S
H469 C482 0.930 . S
H470 C483 0.930 . S
H471 C487 0.959 . S
H472 C487 0.959 . S
H473 C487 0.961 . S
H474 C488 0.960 . S
H475 C488 0.961 . S
H476 C488 0.959 . S
H477 C491 0.929 . S
H478 C492 0.931 . S
H479 C494 0.930 . S
C480 H468 0.930 . S
C480 C481 1.399 . S
C480 C485 1.399 . S
C481 C480 1.399 . S
C481 C482 1.376 . S
C482 H469 0.930 . S
C482 C481 1.376 . S
C482 C483 1.388 . S
C483 H470 0.930 . S
C483 C482 1.388 . S
C483 C484 1.390 . S
C484 C483 1.390 . S
C484 C485 1.394 . S
C484 C490 1.465 . S
C485 C480 1.399 . S
C485 C484 1.394 . S
C485 C486 1.516 . S
C486 C485 1.516 . S
C486 C487 1.502 . S
C486 C488 1.561 . S
C486 C489 1.526 . S
C487 H471 0.959 . S
C487 H472 0.959 . S
C487 H473 0.961 . S
C487 C486 1.502 . S
C488 H474 0.960 . S
C488 H475 0.961 . S
C488 H476 0.959 . S
C488 C486 1.561 . S
C489 C486 1.526 . S
C489 C490 1.396 . S
C489 C494 1.390 . S
C490 C484 1.465 . S
C490 C489 1.396 . S
C490 C491 1.399 . S
C491 H477 0.929 . S
C491 C490 1.399 . S
C491 C492 1.385 . S
C492 H478 0.931 . S
C492 C491 1.385 . S
C492 C493 1.389 . S
C493 C492 1.389 . S
C493 C494 1.387 . S
C494 H479 0.930 . S
C494 C489 1.390 . S
C494 C493 1.387 . S
H495 C507 0.930 . S
H496 C509 0.930 . S
H497 C510 0.930 . S
H498 C514 0.959 . S
H499 C514 0.959 . S
H500 C514 0.961 . S
H501 C515 0.960 . S
H502 C515 0.961 . S
H503 C515 0.959 . S
H504 C518 0.929 . S
H505 C519 0.931 . S
H506 C521 0.930 . S
C507 H495 0.930 . S
C507 C508 1.399 . S
C507 C512 1.399 . S
C508 C507 1.399 . S
C508 C509 1.376 . S
C509 H496 0.930 . S
C509 C508 1.376 . S
C509 C510 1.388 . S
C510 H497 0.930 . S
C510 C509 1.388 . S
C510 C511 1.390 . S
C511 C510 1.390 . S
C511 C512 1.394 . S
C511 C517 1.465 . S
C512 C507 1.399 . S
C512 C511 1.394 . S
C512 C513 1.516 . S
C513 C512 1.516 . S
C513 C514 1.502 . S
C513 C515 1.561 . S
C513 C516 1.526 . S
C514 H498 0.959 . S
C514 H499 0.959 . S
C514 H500 0.961 . S
C514 C513 1.502 . S
C515 H501 0.960 . S
C515 H502 0.961 . S
C515 H503 0.959 . S
C515 C513 1.561 . S
C516 C513 1.526 . S
C516 C517 1.396 . S
C516 C521 1.390 . S
C517 C511 1.465 . S
C517 C516 1.396 . S
C517 C518 1.399 . S
C518 H504 0.929 . S
C518 C517 1.399 . S
C518 C519 1.385 . S
C519 H505 0.931 . S
C519 C518 1.385 . S
C519 C520 1.389 . S
C520 C519 1.389 . S
C520 C521 1.387 . S
C521 H506 0.930 . S
C521 C516 1.390 . S
C521 C520 1.387 . S
C223 C163 1.387 . S
C211 C21 1.518 . S
C250 C159 1.395 . S
C238 C60 1.518 1_455 S
C277 C184 1.466 . S
C265 C99 1.520 . S
C292 C138 1.528 . S
C304 C180 1.408 . S
C319 C1 1.186 . S
C331 C181 1.155 . S
C358 C196 1.008 . S
C346 C40 1.271 . S
C373 C16 1.705 . S
C385 C197 1.526 . S
C412 C193 1.558 . S
C400 C55 1.710 . S
C439 C160 0.984 1_655 S
C427 C79 1.251 . S
C454 C118 1.208 . S
C466 C175 1.176 . S
C493 C176 1.559 . S
C481 C94 1.695 . S
C520 C172 1.556 . S
C508 C133 1.708 . S
