# Generated by pormake.
# Topology tbo, (3,4)-cn, num edge types: 1
# Building blocks:
#     Node 0, Type 0, BuildingBlock: WUSLED_clean_sbu_0, # of connection points: 3
#     Node 1, Type 0, BuildingBlock: WUSLED_clean_sbu_0, # of connection points: 3
#     Node 2, Type 0, BuildingBlock: WUSLED_clean_sbu_0, # of connection points: 3
#     Node 3, Type 0, BuildingBlock: WUSLED_clean_sbu_0, # of connection points: 3
#     Node 4, Type 0, BuildingBlock: WUSLED_clean_sbu_0, # of connection points: 3
#     Node 5, Type 0, BuildingBlock: WUSLED_clean_sbu_0, # of connection points: 3
#     Node 6, Type 0, BuildingBlock: WUSLED_clean_sbu_0, # of connection points: 3
#     Node 7, Type 0, BuildingBlock: WUSLED_clean_sbu_0, # of connection points: 3
#     Node 8, Type 0, BuildingBlock: WUSLED_clean_sbu_0, # of connection points: 3
#     Node 9, Type 0, BuildingBlock: WUSLED_clean_sbu_0, # of connection points: 3
#     Node 10, Type 0, BuildingBlock: WUSLED_clean_sbu_0, # of connection points: 3
#     Node 11, Type 0, BuildingBlock: WUSLED_clean_sbu_0, # of connection points: 3
#     Node 12, Type 0, BuildingBlock: WUSLED_clean_sbu_0, # of connection points: 3
#     Node 13, Type 0, BuildingBlock: WUSLED_clean_sbu_0, # of connection points: 3
#     Node 14, Type 0, BuildingBlock: WUSLED_clean_sbu_0, # of connection points: 3
#     Node 15, Type 0, BuildingBlock: WUSLED_clean_sbu_0, # of connection points: 3
#     Node 16, Type 0, BuildingBlock: WUSLED_clean_sbu_0, # of connection points: 3
#     Node 17, Type 0, BuildingBlock: WUSLED_clean_sbu_0, # of connection points: 3
#     Node 18, Type 0, BuildingBlock: WUSLED_clean_sbu_0, # of connection points: 3
#     Node 19, Type 0, BuildingBlock: WUSLED_clean_sbu_0, # of connection points: 3
#     Node 20, Type 0, BuildingBlock: WUSLED_clean_sbu_0, # of connection points: 3
#     Node 21, Type 0, BuildingBlock: WUSLED_clean_sbu_0, # of connection points: 3
#     Node 22, Type 0, BuildingBlock: WUSLED_clean_sbu_0, # of connection points: 3
#     Node 23, Type 0, BuildingBlock: WUSLED_clean_sbu_0, # of connection points: 3
#     Node 24, Type 0, BuildingBlock: WUSLED_clean_sbu_0, # of connection points: 3
#     Node 25, Type 0, BuildingBlock: WUSLED_clean_sbu_0, # of connection points: 3
#     Node 26, Type 0, BuildingBlock: WUSLED_clean_sbu_0, # of connection points: 3
#     Node 27, Type 0, BuildingBlock: WUSLED_clean_sbu_0, # of connection points: 3
#     Node 28, Type 0, BuildingBlock: WUSLED_clean_sbu_0, # of connection points: 3
#     Node 29, Type 0, BuildingBlock: WUSLED_clean_sbu_0, # of connection points: 3
#     Node 30, Type 0, BuildingBlock: WUSLED_clean_sbu_0, # of connection points: 3
#     Node 31, Type 0, BuildingBlock: WUSLED_clean_sbu_0, # of connection points: 3
#     Node 32, Type 1, BuildingBlock: MIFKUJ_clean_linker_1, # of connection points: 4
#     Node 33, Type 1, BuildingBlock: MIFKUJ_clean_linker_1, # of connection points: 4
#     Node 34, Type 1, BuildingBlock: MIFKUJ_clean_linker_1, # of connection points: 4
#     Node 35, Type 1, BuildingBlock: MIFKUJ_clean_linker_1, # of connection points: 4
#     Node 36, Type 1, BuildingBlock: MIFKUJ_clean_linker_1, # of connection points: 4
#     Node 37, Type 1, BuildingBlock: MIFKUJ_clean_linker_1, # of connection points: 4
#     Node 38, Type 1, BuildingBlock: MIFKUJ_clean_linker_1, # of connection points: 4
#     Node 39, Type 1, BuildingBlock: MIFKUJ_clean_linker_1, # of connection points: 4
#     Node 40, Type 1, BuildingBlock: MIFKUJ_clean_linker_1, # of connection points: 4
#     Node 41, Type 1, BuildingBlock: MIFKUJ_clean_linker_1, # of connection points: 4
#     Node 42, Type 1, BuildingBlock: MIFKUJ_clean_linker_1, # of connection points: 4
#     Node 43, Type 1, BuildingBlock: MIFKUJ_clean_linker_1, # of connection points: 4
#     Node 44, Type 1, BuildingBlock: MIFKUJ_clean_linker_1, # of connection points: 4
#     Node 45, Type 1, BuildingBlock: MIFKUJ_clean_linker_1, # of connection points: 4
#     Node 46, Type 1, BuildingBlock: MIFKUJ_clean_linker_1, # of connection points: 4
#     Node 47, Type 1, BuildingBlock: MIFKUJ_clean_linker_1, # of connection points: 4
#     Node 48, Type 1, BuildingBlock: MIFKUJ_clean_linker_1, # of connection points: 4
#     Node 49, Type 1, BuildingBlock: MIFKUJ_clean_linker_1, # of connection points: 4
#     Node 50, Type 1, BuildingBlock: MIFKUJ_clean_linker_1, # of connection points: 4
#     Node 51, Type 1, BuildingBlock: MIFKUJ_clean_linker_1, # of connection points: 4
#     Node 52, Type 1, BuildingBlock: MIFKUJ_clean_linker_1, # of connection points: 4
#     Node 53, Type 1, BuildingBlock: MIFKUJ_clean_linker_1, # of connection points: 4
#     Node 54, Type 1, BuildingBlock: MIFKUJ_clean_linker_1, # of connection points: 4
#     Node 55, Type 1, BuildingBlock: MIFKUJ_clean_linker_1, # of connection points: 4
#     Edge 56, Type (0, 1), BuildingBlock: KIFKEQ_clean_linker_1, # of connection points: 2
#     Edge 57, Type (0, 1), BuildingBlock: KIFKEQ_clean_linker_1, # of connection points: 2
#     Edge 58, Type (0, 1), BuildingBlock: KIFKEQ_clean_linker_1, # of connection points: 2
#     Edge 59, Type (0, 1), BuildingBlock: KIFKEQ_clean_linker_1, # of connection points: 2
#     Edge 60, Type (0, 1), BuildingBlock: KIFKEQ_clean_linker_1, # of connection points: 2
#     Edge 61, Type (0, 1), BuildingBlock: KIFKEQ_clean_linker_1, # of connection points: 2
#     Edge 62, Type (0, 1), BuildingBlock: KIFKEQ_clean_linker_1, # of connection points: 2
#     Edge 63, Type (0, 1), BuildingBlock: KIFKEQ_clean_linker_1, # of connection points: 2
#     Edge 64, Type (0, 1), BuildingBlock: KIFKEQ_clean_linker_1, # of connection points: 2
#     Edge 65, Type (0, 1), BuildingBlock: KIFKEQ_clean_linker_1, # of connection points: 2
#     Edge 66, Type (0, 1), BuildingBlock: KIFKEQ_clean_linker_1, # of connection points: 2
#     Edge 67, Type (0, 1), BuildingBlock: KIFKEQ_clean_linker_1, # of connection points: 2
#     Edge 68, Type (0, 1), BuildingBlock: KIFKEQ_clean_linker_1, # of connection points: 2
#     Edge 69, Type (0, 1), BuildingBlock: KIFKEQ_clean_linker_1, # of connection points: 2
#     Edge 70, Type (0, 1), BuildingBlock: KIFKEQ_clean_linker_1, # of connection points: 2
#     Edge 71, Type (0, 1), BuildingBlock: KIFKEQ_clean_linker_1, # of connection points: 2
#     Edge 72, Type (0, 1), BuildingBlock: KIFKEQ_clean_linker_1, # of connection points: 2
#     Edge 73, Type (0, 1), BuildingBlock: KIFKEQ_clean_linker_1, # of connection points: 2
#     Edge 74, Type (0, 1), BuildingBlock: KIFKEQ_clean_linker_1, # of connection points: 2
#     Edge 75, Type (0, 1), BuildingBlock: KIFKEQ_clean_linker_1, # of connection points: 2
#     Edge 76, Type (0, 1), BuildingBlock: KIFKEQ_clean_linker_1, # of connection points: 2
#     Edge 77, Type (0, 1), BuildingBlock: KIFKEQ_clean_linker_1, # of connection points: 2
#     Edge 78, Type (0, 1), BuildingBlock: KIFKEQ_clean_linker_1, # of connection points: 2
#     Edge 79, Type (0, 1), BuildingBlock: KIFKEQ_clean_linker_1, # of connection points: 2
#     Edge 80, Type (0, 1), BuildingBlock: KIFKEQ_clean_linker_1, # of connection points: 2
#     Edge 81, Type (0, 1), BuildingBlock: KIFKEQ_clean_linker_1, # of connection points: 2
#     Edge 82, Type (0, 1), BuildingBlock: KIFKEQ_clean_linker_1, # of connection points: 2
#     Edge 83, Type (0, 1), BuildingBlock: KIFKEQ_clean_linker_1, # of connection points: 2
#     Edge 84, Type (0, 1), BuildingBlock: KIFKEQ_clean_linker_1, # of connection points: 2
#     Edge 85, Type (0, 1), BuildingBlock: KIFKEQ_clean_linker_1, # of connection points: 2
#     Edge 86, Type (0, 1), BuildingBlock: KIFKEQ_clean_linker_1, # of connection points: 2
#     Edge 87, Type (0, 1), BuildingBlock: KIFKEQ_clean_linker_1, # of connection points: 2
#     Edge 88, Type (0, 1), BuildingBlock: KIFKEQ_clean_linker_1, # of connection points: 2
#     Edge 89, Type (0, 1), BuildingBlock: KIFKEQ_clean_linker_1, # of connection points: 2
#     Edge 90, Type (0, 1), BuildingBlock: KIFKEQ_clean_linker_1, # of connection points: 2
#     Edge 91, Type (0, 1), BuildingBlock: KIFKEQ_clean_linker_1, # of connection points: 2
#     Edge 92, Type (0, 1), BuildingBlock: KIFKEQ_clean_linker_1, # of connection points: 2
#     Edge 93, Type (0, 1), BuildingBlock: KIFKEQ_clean_linker_1, # of connection points: 2
#     Edge 94, Type (0, 1), BuildingBlock: KIFKEQ_clean_linker_1, # of connection points: 2
#     Edge 95, Type (0, 1), BuildingBlock: KIFKEQ_clean_linker_1, # of connection points: 2
#     Edge 96, Type (0, 1), BuildingBlock: KIFKEQ_clean_linker_1, # of connection points: 2
#     Edge 97, Type (0, 1), BuildingBlock: KIFKEQ_clean_linker_1, # of connection points: 2
#     Edge 98, Type (0, 1), BuildingBlock: KIFKEQ_clean_linker_1, # of connection points: 2
#     Edge 99, Type (0, 1), BuildingBlock: KIFKEQ_clean_linker_1, # of connection points: 2
#     Edge 100, Type (0, 1), BuildingBlock: KIFKEQ_clean_linker_1, # of connection points: 2
#     Edge 101, Type (0, 1), BuildingBlock: KIFKEQ_clean_linker_1, # of connection points: 2
#     Edge 102, Type (0, 1), BuildingBlock: KIFKEQ_clean_linker_1, # of connection points: 2
#     Edge 103, Type (0, 1), BuildingBlock: KIFKEQ_clean_linker_1, # of connection points: 2
#     Edge 104, Type (0, 1), BuildingBlock: KIFKEQ_clean_linker_1, # of connection points: 2
#     Edge 105, Type (0, 1), BuildingBlock: KIFKEQ_clean_linker_1, # of connection points: 2
#     Edge 106, Type (0, 1), BuildingBlock: KIFKEQ_clean_linker_1, # of connection points: 2
#     Edge 107, Type (0, 1), BuildingBlock: KIFKEQ_clean_linker_1, # of connection points: 2
#     Edge 108, Type (0, 1), BuildingBlock: KIFKEQ_clean_linker_1, # of connection points: 2
#     Edge 109, Type (0, 1), BuildingBlock: KIFKEQ_clean_linker_1, # of connection points: 2
#     Edge 110, Type (0, 1), BuildingBlock: KIFKEQ_clean_linker_1, # of connection points: 2
#     Edge 111, Type (0, 1), BuildingBlock: KIFKEQ_clean_linker_1, # of connection points: 2
#     Edge 112, Type (0, 1), BuildingBlock: KIFKEQ_clean_linker_1, # of connection points: 2
#     Edge 113, Type (0, 1), BuildingBlock: KIFKEQ_clean_linker_1, # of connection points: 2
#     Edge 114, Type (0, 1), BuildingBlock: KIFKEQ_clean_linker_1, # of connection points: 2
#     Edge 115, Type (0, 1), BuildingBlock: KIFKEQ_clean_linker_1, # of connection points: 2
#     Edge 116, Type (0, 1), BuildingBlock: KIFKEQ_clean_linker_1, # of connection points: 2
#     Edge 117, Type (0, 1), BuildingBlock: KIFKEQ_clean_linker_1, # of connection points: 2
#     Edge 118, Type (0, 1), BuildingBlock: KIFKEQ_clean_linker_1, # of connection points: 2
#     Edge 119, Type (0, 1), BuildingBlock: KIFKEQ_clean_linker_1, # of connection points: 2
#     Edge 120, Type (0, 1), BuildingBlock: KIFKEQ_clean_linker_1, # of connection points: 2
#     Edge 121, Type (0, 1), BuildingBlock: KIFKEQ_clean_linker_1, # of connection points: 2
#     Edge 122, Type (0, 1), BuildingBlock: KIFKEQ_clean_linker_1, # of connection points: 2
#     Edge 123, Type (0, 1), BuildingBlock: KIFKEQ_clean_linker_1, # of connection points: 2
#     Edge 124, Type (0, 1), BuildingBlock: KIFKEQ_clean_linker_1, # of connection points: 2
#     Edge 125, Type (0, 1), BuildingBlock: KIFKEQ_clean_linker_1, # of connection points: 2
#     Edge 126, Type (0, 1), BuildingBlock: KIFKEQ_clean_linker_1, # of connection points: 2
#     Edge 127, Type (0, 1), BuildingBlock: KIFKEQ_clean_linker_1, # of connection points: 2
#     Edge 128, Type (0, 1), BuildingBlock: KIFKEQ_clean_linker_1, # of connection points: 2
#     Edge 129, Type (0, 1), BuildingBlock: KIFKEQ_clean_linker_1, # of connection points: 2
#     Edge 130, Type (0, 1), BuildingBlock: KIFKEQ_clean_linker_1, # of connection points: 2
#     Edge 131, Type (0, 1), BuildingBlock: KIFKEQ_clean_linker_1, # of connection points: 2
#     Edge 132, Type (0, 1), BuildingBlock: KIFKEQ_clean_linker_1, # of connection points: 2
#     Edge 133, Type (0, 1), BuildingBlock: KIFKEQ_clean_linker_1, # of connection points: 2
#     Edge 134, Type (0, 1), BuildingBlock: KIFKEQ_clean_linker_1, # of connection points: 2
#     Edge 135, Type (0, 1), BuildingBlock: KIFKEQ_clean_linker_1, # of connection points: 2
#     Edge 136, Type (0, 1), BuildingBlock: KIFKEQ_clean_linker_1, # of connection points: 2
#     Edge 137, Type (0, 1), BuildingBlock: KIFKEQ_clean_linker_1, # of connection points: 2
#     Edge 138, Type (0, 1), BuildingBlock: KIFKEQ_clean_linker_1, # of connection points: 2
#     Edge 139, Type (0, 1), BuildingBlock: KIFKEQ_clean_linker_1, # of connection points: 2
#     Edge 140, Type (0, 1), BuildingBlock: KIFKEQ_clean_linker_1, # of connection points: 2
#     Edge 141, Type (0, 1), BuildingBlock: KIFKEQ_clean_linker_1, # of connection points: 2
#     Edge 142, Type (0, 1), BuildingBlock: KIFKEQ_clean_linker_1, # of connection points: 2
#     Edge 143, Type (0, 1), BuildingBlock: KIFKEQ_clean_linker_1, # of connection points: 2
#     Edge 144, Type (0, 1), BuildingBlock: KIFKEQ_clean_linker_1, # of connection points: 2
#     Edge 145, Type (0, 1), BuildingBlock: KIFKEQ_clean_linker_1, # of connection points: 2
#     Edge 146, Type (0, 1), BuildingBlock: KIFKEQ_clean_linker_1, # of connection points: 2
#     Edge 147, Type (0, 1), BuildingBlock: KIFKEQ_clean_linker_1, # of connection points: 2
#     Edge 148, Type (0, 1), BuildingBlock: KIFKEQ_clean_linker_1, # of connection points: 2
#     Edge 149, Type (0, 1), BuildingBlock: KIFKEQ_clean_linker_1, # of connection points: 2
#     Edge 150, Type (0, 1), BuildingBlock: KIFKEQ_clean_linker_1, # of connection points: 2
#     Edge 151, Type (0, 1), BuildingBlock: KIFKEQ_clean_linker_1, # of connection points: 2
# Relax obj value: 0.000
# Max RMSD: 0.011
# Mean RMSD: 0.006
data_MOF--net-tbo--node1-WUSLED_clean_sbu_0--node2-MIFKUJ_clean_linker_1--edge1-KIFKEQ_clean_linker_1
_symmetry_space_group_name_H-M    P1
_symmetry_Int_Tables_number       1
_symmetry_cell_setting            triclinic
loop_
_symmetry_equiv_pos_as_xyz
'x, y, z'
_cell_length_a     108.94758
_cell_length_b     109.27906
_cell_length_c     109.12627
_cell_angle_alpha  89.670189
_cell_angle_beta   90.289237
_cell_angle_gamma 90.656557
loop_
_atom_site_label
_atom_site_type_symbol
_atom_site_fract_x
_atom_site_fract_y
_atom_site_fract_z
_atom_type_partial_charge
C0 C 0.18728 0.15529 0.20602 0.0
C1 C 0.19704 0.15067 0.19917 0.0
C2 C 0.19969 0.13407 0.21402 0.0
C3 C 0.2032 0.14015 0.20313 0.0
C4 C 0.18994 0.13885 0.22085 0.0
C5 C 0.18381 0.14934 0.21688 0.0
U6 U 0.18198 0.18267 0.18438 0.0
O7 O 0.16462 0.19019 0.17744 0.0
O8 O 0.17679 0.20153 0.18885 0.0
C9 C 0.16609 0.20058 0.1833 0.0
C10 C 0.18059 0.16628 0.20207 0.0
C11 C 0.15543 0.20478 0.19033 0.0
C12 C 0.14 0.20181 0.20616 0.0
C13 C 0.1502 0.19759 0.19969 0.0
C14 C 0.14024 0.22043 0.19401 0.0
C15 C 0.1349 0.2133 0.2034 0.0
C16 C 0.15039 0.2162 0.18755 0.0
C17 C 0.20343 0.18808 0.1569 0.0
C18 C 0.20195 0.20543 0.14292 0.0
C19 C 0.21747 0.19009 0.13976 0.0
C20 C 0.21327 0.18367 0.15006 0.0
C21 C 0.21192 0.20109 0.13606 0.0
C22 C 0.19775 0.19899 0.15326 0.0
C23 C 0.19935 0.18119 0.16781 0.0
O24 O 0.18659 0.17672 0.20314 0.0
O25 O 0.17447 0.16535 0.1917 0.0
O26 O 0.18869 0.17551 0.16685 0.0
O27 O 0.20084 0.18678 0.17836 0.0
H28 H 0.19985 0.15516 0.19074 0.0
H29 H 0.21059 0.13667 0.19759 0.0
H30 H 0.18711 0.13457 0.22937 0.0
H31 H 0.17634 0.15282 0.22232 0.0
H32 H 0.1362 0.19614 0.2134 0.0
H33 H 0.15401 0.18875 0.20199 0.0
H34 H 0.13646 0.22922 0.1915 0.0
H35 H 0.15428 0.22185 0.18033 0.0
H36 H 0.19753 0.21392 0.14042 0.0
H37 H 0.22501 0.18635 0.13461 0.0
H38 H 0.21773 0.17524 0.15271 0.0
H39 H 0.19014 0.20253 0.15845 0.0
C40 C 0.82094 0.1889 0.15889 0.0
C41 C 0.82803 0.19849 0.15391 0.0
C42 C 0.81283 0.20143 0.13771 0.0
C43 C 0.82401 0.20471 0.14341 0.0
C44 C 0.80571 0.1919 0.14287 0.0
C45 C 0.80975 0.18569 0.15335 0.0
U46 U 0.84335 0.18409 0.18548 0.0
O47 O 0.83986 0.17819 0.20446 0.0
O48 O 0.85142 0.16708 0.19257 0.0
C49 C 0.84578 0.16787 0.20315 0.0
C50 C 0.82515 0.18205 0.16972 0.0
C51 C 0.83914 0.15676 0.20711 0.0
C52 C 0.8219 0.14255 0.20537 0.0
C53 C 0.82806 0.1532 0.2015 0.0
C54 C 0.83788 0.13895 0.22045 0.0
C55 C 0.82676 0.13528 0.21488 0.0
C56 C 0.844 0.14959 0.2166 0.0
C57 C 0.87022 0.20644 0.19007 0.0
C58 C 0.886 0.20339 0.20559 0.0
C59 C 0.88642 0.22162 0.19284 0.0
C60 C 0.87578 0.21759 0.18681 0.0
C61 C 0.89171 0.21455 0.20227 0.0
C62 C 0.87534 0.19937 0.19953 0.0
C63 C 0.85916 0.20229 0.18345 0.0
O64 O 0.83566 0.17641 0.16848 0.0
O65 O 0.82419 0.18774 0.18024 0.0
O66 O 0.84881 0.2031 0.18951 0.0
O67 O 0.8602 0.19193 0.17751 0.0
H68 H 0.83672 0.20108 0.15809 0.0
H69 H 0.82977 0.21191 0.13961 0.0
H70 H 0.79697 0.18927 0.13886 0.0
H71 H 0.80414 0.17834 0.15712 0.0
H72 H 0.81343 0.13992 0.20081 0.0
H73 H 0.82421 0.15862 0.19412 0.0
H74 H 0.84178 0.13367 0.22791 0.0
H75 H 0.85253 0.15223 0.22104 0.0
H76 H 0.88989 0.19766 0.21271 0.0
H77 H 0.89044 0.23034 0.19019 0.0
H78 H 0.87191 0.22318 0.17956 0.0
H79 H 0.87114 0.19071 0.20216 0.0
C80 C 0.82307 0.83984 0.1569 0.0
C81 C 0.83019 0.83036 0.15217 0.0
C82 C 0.81475 0.82645 0.13631 0.0
C83 C 0.82608 0.82374 0.14194 0.0
C84 C 0.80769 0.83598 0.14115 0.0
C85 C 0.81182 0.84259 0.15133 0.0
U86 U 0.84497 0.84607 0.18394 0.0
O87 O 0.85224 0.86363 0.19083 0.0
O88 O 0.84074 0.85203 0.20267 0.0
C89 C 0.84646 0.8626 0.20133 0.0
C90 C 0.82716 0.84698 0.16762 0.0
C91 C 0.83964 0.87345 0.20526 0.0
C92 C 0.82223 0.88713 0.20364 0.0
C93 C 0.8286 0.87685 0.19956 0.0
C94 C 0.8379 0.89069 0.21907 0.0
C95 C 0.82677 0.89415 0.21351 0.0
C96 C 0.84425 0.88045 0.21499 0.0
C97 C 0.87215 0.82464 0.18991 0.0
C98 C 0.8858 0.82612 0.20758 0.0
C99 C 0.88951 0.81099 0.19193 0.0
C100 C 0.87925 0.81507 0.1854 0.0
C101 C 0.89289 0.81641 0.20314 0.0
C102 C 0.87551 0.8302 0.20101 0.0
C103 C 0.86125 0.82854 0.18293 0.0
O104 O 0.82605 0.84146 0.17829 0.0
O105 O 0.83764 0.85294 0.16641 0.0
O106 O 0.86237 0.83893 0.17689 0.0
O107 O 0.8507 0.82738 0.18863 0.0
H108 H 0.8389 0.82808 0.15639 0.0
H109 H 0.83169 0.81639 0.13853 0.0
H110 H 0.79903 0.83846 0.13696 0.0
H111 H 0.80622 0.8499 0.15484 0.0
H112 H 0.81364 0.88945 0.19921 0.0
H113 H 0.8249 0.87153 0.19203 0.0
H114 H 0.8418 0.89598 0.22653 0.0
H115 H 0.85278 0.87799 0.21946 0.0
H116 H 0.88806 0.83043 0.21622 0.0
H117 H 0.89486 0.80365 0.18812 0.0
H118 H 0.87683 0.8107 0.17682 0.0
H119 H 0.87012 0.83761 0.20464 0.0
C120 C 0.15502 0.82374 0.18982 0.0
C121 C 0.15343 0.82714 0.2021 0.0
C122 C 0.13365 0.81643 0.20264 0.0
C123 C 0.14286 0.82347 0.20847 0.0
C124 C 0.13526 0.8132 0.19029 0.0
C125 C 0.14585 0.81681 0.18397 0.0
U126 U 0.18345 0.8441 0.18461 0.0
O127 O 0.20219 0.83895 0.17935 0.0
O128 O 0.19143 0.85103 0.16741 0.0
C129 C 0.20151 0.84465 0.16874 0.0
C130 C 0.1662 0.82718 0.18301 0.0
C131 C 0.2053 0.83752 0.15801 0.0
C132 C 0.20069 0.82373 0.14114 0.0
C133 C 0.19688 0.83022 0.15145 0.0
C134 C 0.22138 0.83159 0.14396 0.0
C135 C 0.21299 0.82435 0.13725 0.0
C136 C 0.21756 0.83811 0.15422 0.0
C137 C 0.1899 0.87099 0.20637 0.0
C138 C 0.20592 0.88638 0.20324 0.0
C139 C 0.19405 0.88629 0.22196 0.0
C140 C 0.18738 0.87611 0.21781 0.0
C141 C 0.2034 0.89158 0.21473 0.0
C142 C 0.19924 0.87615 0.19911 0.0
C143 C 0.18258 0.8604 0.20219 0.0
O144 O 0.16578 0.83762 0.177 0.0
O145 O 0.17665 0.82555 0.18884 0.0
O146 O 0.18775 0.84966 0.20353 0.0
O147 O 0.17696 0.86171 0.19159 0.0
H148 H 0.16038 0.83257 0.20677 0.0
H149 H 0.14185 0.82624 0.21792 0.0
H150 H 0.12844 0.80767 0.18557 0.0
H151 H 0.14692 0.81409 0.1745 0.0
H152 H 0.19402 0.81814 0.13626 0.0
H153 H 0.18738 0.82959 0.15429 0.0
H154 H 0.23088 0.8324 0.14114 0.0
H155 H 0.22418 0.8437 0.15916 0.0
H156 H 0.21313 0.89014 0.1975 0.0
H157 H 0.19173 0.89015 0.23075 0.0
H158 H 0.18018 0.87228 0.22351 0.0
H159 H 0.20134 0.87228 0.19025 0.0
C160 C 0.15728 0.82171 0.84113 0.0
C161 C 0.15233 0.82878 0.83158 0.0
C162 C 0.13604 0.81359 0.82851 0.0
C163 C 0.1418 0.82476 0.82532 0.0
C164 C 0.14116 0.80651 0.83803 0.0
C165 C 0.15167 0.81054 0.84427 0.0
U166 U 0.18397 0.84413 0.84601 0.0
O167 O 0.1914 0.85198 0.86303 0.0
O168 O 0.20309 0.84065 0.85149 0.0
C169 C 0.20198 0.84644 0.86194 0.0
C170 C 0.16821 0.82587 0.84794 0.0
C171 C 0.2062 0.83976 0.87287 0.0
C172 C 0.20333 0.82399 0.88843 0.0
C173 C 0.19924 0.83009 0.87788 0.0
C174 C 0.2214 0.83712 0.88898 0.0
C175 C 0.21444 0.82748 0.89415 0.0
C176 C 0.2173 0.84319 0.87845 0.0
C177 C 0.18829 0.87125 0.82413 0.0
C178 C 0.20557 0.88543 0.82572 0.0
C179 C 0.18954 0.88898 0.81068 0.0
C180 C 0.18341 0.87837 0.81462 0.0
C181 C 0.20069 0.89265 0.81618 0.0
C182 C 0.1994 0.87482 0.82968 0.0
C183 C 0.18166 0.86016 0.82815 0.0
O184 O 0.17867 0.82505 0.84207 0.0
O185 O 0.16705 0.83626 0.85381 0.0
O186 O 0.1759 0.86103 0.83865 0.0
O187 O 0.18764 0.84985 0.82701 0.0
H188 H 0.15657 0.83744 0.82903 0.0
H189 H 0.13804 0.8305 0.81813 0.0
H190 H 0.1371 0.79778 0.84059 0.0
H191 H 0.15541 0.80494 0.85158 0.0
H192 H 0.19768 0.8167 0.89223 0.0
H193 H 0.19063 0.82733 0.87367 0.0
H194 H 0.23009 0.83991 0.89301 0.0
H195 H 0.22281 0.85061 0.87467 0.0
H196 H 0.21406 0.88807 0.83023 0.0
H197 H 0.18562 0.89422 0.8032 0.0
H198 H 0.17486 0.87572 0.81022 0.0
H199 H 0.20327 0.86943 0.83708 0.0
C200 C 0.15456 0.1877 0.82435 0.0
C201 C 0.15152 0.19874 0.83001 0.0
C202 C 0.13372 0.20085 0.81649 0.0
C203 C 0.14118 0.20527 0.82612 0.0
C204 C 0.1368 0.1897 0.81096 0.0
C205 C 0.14711 0.18321 0.81485 0.0
U206 U 0.18222 0.18182 0.84551 0.0
O207 O 0.18958 0.16438 0.85231 0.0
O208 O 0.201 0.17634 0.84072 0.0
C209 C 0.19991 0.16566 0.84623 0.0
C210 C 0.1655 0.18077 0.82807 0.0
C211 C 0.20381 0.15499 0.83907 0.0
C212 C 0.19945 0.13811 0.8252 0.0
C213 C 0.19552 0.14839 0.83167 0.0
C214 C 0.22 0.14105 0.8333 0.0
C215 C 0.21174 0.1343 0.82595 0.0
C216 C 0.21606 0.15127 0.83979 0.0
C217 C 0.18822 0.20303 0.87302 0.0
C218 C 0.20441 0.20006 0.88816 0.0
C219 C 0.19119 0.21768 0.88947 0.0
C220 C 0.18488 0.21381 0.87897 0.0
C221 C 0.20099 0.21083 0.89427 0.0
C222 C 0.19806 0.19619 0.87763 0.0
C223 C 0.18122 0.19911 0.86212 0.0
O224 O 0.17608 0.18655 0.82686 0.0
O225 O 0.16461 0.17464 0.83843 0.0
O226 O 0.17534 0.18858 0.86311 0.0
O227 O 0.18679 0.20053 0.85155 0.0
H228 H 0.15718 0.20235 0.83737 0.0
H229 H 0.13916 0.21387 0.83052 0.0
H230 H 0.13117 0.1859 0.80368 0.0
H231 H 0.14929 0.17467 0.81041 0.0
H232 H 0.19288 0.13321 0.81952 0.0
H233 H 0.18603 0.15116 0.83093 0.0
H234 H 0.22948 0.1383 0.83424 0.0
H235 H 0.22258 0.15624 0.84547 0.0
H236 H 0.21183 0.19451 0.89165 0.0
H237 H 0.18844 0.22611 0.89377 0.0
H238 H 0.17735 0.21923 0.87551 0.0
H239 H 0.20077 0.18783 0.87314 0.0
C240 C 0.82275 0.15549 0.84238 0.0
C241 C 0.82608 0.15401 0.83007 0.0
C242 C 0.81504 0.13446 0.82935 0.0
C243 C 0.82222 0.14361 0.8236 0.0
C244 C 0.81183 0.13599 0.84172 0.0
C245 C 0.81563 0.1464 0.84815 0.0
U246 U 0.84395 0.1832 0.84801 0.0
O247 O 0.83949 0.20181 0.85395 0.0
O248 O 0.85139 0.19034 0.8654 0.0
C249 C 0.8453 0.20062 0.86448 0.0
C250 C 0.82655 0.16641 0.84938 0.0
C251 C 0.83848 0.20426 0.87548 0.0
C252 C 0.81977 0.20476 0.88755 0.0
C253 C 0.82609 0.20097 0.87711 0.0
C254 C 0.8382 0.21498 0.89492 0.0
C255 C 0.82575 0.21183 0.89659 0.0
C256 C 0.84447 0.21124 0.88447 0.0
C257 C 0.87089 0.18941 0.8261 0.0
C258 C 0.88479 0.20692 0.82765 0.0
C259 C 0.88802 0.1916 0.81207 0.0
C260 C 0.87774 0.18508 0.81624 0.0
C261 C 0.89168 0.20264 0.81768 0.0
C262 C 0.87448 0.20036 0.83182 0.0
C263 C 0.86008 0.18234 0.83021 0.0
O264 O 0.83706 0.16557 0.85525 0.0
O265 O 0.82513 0.177 0.84381 0.0
O266 O 0.84947 0.18787 0.82917 0.0
O267 O 0.86134 0.1764 0.84064 0.0
H268 H 0.83164 0.1609 0.82547 0.0
H269 H 0.82497 0.14265 0.81413 0.0
H270 H 0.8062 0.12921 0.84639 0.0
H271 H 0.81297 0.14739 0.85764 0.0
H272 H 0.81024 0.20206 0.88861 0.0
H273 H 0.82131 0.1955 0.8703 0.0
H274 H 0.84304 0.22053 0.90161 0.0
H275 H 0.85402 0.21388 0.88337 0.0
H276 H 0.88727 0.21542 0.83212 0.0
H277 H 0.8932 0.1879 0.80453 0.0
H278 H 0.87514 0.17661 0.81175 0.0
H279 H 0.86928 0.20384 0.83946 0.0
C280 C 0.83973 0.87261 0.82377 0.0
C281 C 0.82997 0.87709 0.83074 0.0
C282 C 0.82725 0.89394 0.81619 0.0
C283 C 0.82378 0.88766 0.82697 0.0
C284 C 0.83698 0.88929 0.80924 0.0
C285 C 0.84314 0.87876 0.813 0.0
U286 U 0.84532 0.84484 0.84488 0.0
O287 O 0.85086 0.82618 0.84002 0.0
O288 O 0.86279 0.83747 0.85173 0.0
C289 C 0.8615 0.82717 0.84567 0.0
C290 C 0.84653 0.86163 0.82755 0.0
C291 C 0.87226 0.8232 0.83868 0.0
C292 C 0.8877 0.82645 0.82291 0.0
C293 C 0.87742 0.83049 0.82937 0.0
C294 C 0.88769 0.80778 0.83499 0.0
C295 C 0.89295 0.81501 0.82563 0.0
C296 C 0.87747 0.81184 0.84143 0.0
C297 C 0.82398 0.83825 0.87217 0.0
C298 C 0.82835 0.82433 0.8891 0.0
C299 C 0.80782 0.83218 0.88632 0.0
C300 C 0.81175 0.83878 0.87602 0.0
C301 C 0.81608 0.8249 0.89304 0.0
C302 C 0.83226 0.83091 0.87873 0.0
C303 C 0.82788 0.84553 0.86142 0.0
O304 O 0.85258 0.86243 0.83797 0.0
O305 O 0.84067 0.85113 0.82624 0.0
O306 O 0.82649 0.84019 0.85073 0.0
O307 O 0.83837 0.8515 0.86249 0.0
H308 H 0.82721 0.87245 0.8391 0.0
H309 H 0.81641 0.89103 0.83261 0.0
H310 H 0.83978 0.89374 0.80079 0.0
H311 H 0.85061 0.8754 0.80748 0.0
H312 H 0.89144 0.83219 0.81569 0.0
H313 H 0.8735 0.83929 0.82709 0.0
H314 H 0.89158 0.79903 0.83748 0.0
H315 H 0.87363 0.8061 0.84862 0.0
H316 H 0.83491 0.81871 0.89397 0.0
H317 H 0.79836 0.83297 0.88917 0.0
H318 H 0.80523 0.84441 0.87109 0.0
H319 H 0.84174 0.8303 0.87587 0.0
C320 C 0.1877 0.65554 0.70612 0.0
C321 C 0.19739 0.65083 0.69922 0.0
C322 C 0.2007 0.63489 0.71464 0.0
C323 C 0.20382 0.64056 0.70343 0.0
C324 C 0.19096 0.63969 0.72146 0.0
C325 C 0.18454 0.64991 0.71724 0.0
U326 U 0.18213 0.68253 0.68408 0.0
O327 O 0.16473 0.68963 0.67679 0.0
O328 O 0.1765 0.70134 0.68825 0.0
C329 C 0.16592 0.70012 0.68253 0.0
C330 C 0.1808 0.66632 0.70195 0.0
C331 C 0.15506 0.70424 0.68928 0.0
C332 C 0.13947 0.70135 0.70498 0.0
C333 C 0.14992 0.69724 0.69883 0.0
C334 C 0.13929 0.7195 0.69214 0.0
C335 C 0.13398 0.71251 0.70165 0.0
C336 C 0.1497 0.71539 0.68603 0.0
C337 C 0.20387 0.688 0.65685 0.0
C338 C 0.20241 0.70526 0.64276 0.0
C339 C 0.21792 0.68988 0.6397 0.0
C340 C 0.21371 0.68354 0.65005 0.0
C341 C 0.21237 0.70087 0.63593 0.0
C342 C 0.1982 0.69889 0.65314 0.0
C343 C 0.19977 0.68117 0.6678 0.0
O344 O 0.18655 0.67691 0.70299 0.0
O345 O 0.17486 0.66515 0.69151 0.0
O346 O 0.18924 0.67527 0.66676 0.0
O347 O 0.20099 0.68693 0.67828 0.0
H348 H 0.19999 0.6551 0.69062 0.0
H349 H 0.21134 0.63719 0.698 0.0
H350 H 0.18816 0.63546 0.73002 0.0
H351 H 0.17707 0.6534 0.72266 0.0
H352 H 0.13559 0.69568 0.71218 0.0
H353 H 0.15395 0.6886 0.70148 0.0
H354 H 0.13548 0.72823 0.68947 0.0
H355 H 0.15357 0.72095 0.67872 0.0
H356 H 0.198 0.71374 0.6402 0.0
H357 H 0.22545 0.6861 0.63457 0.0
H358 H 0.21816 0.67512 0.65275 0.0
H359 H 0.19059 0.70247 0.6583 0.0
C360 C 0.82141 0.68983 0.65849 0.0
C361 C 0.82949 0.69784 0.65236 0.0
C362 C 0.8134 0.703 0.63766 0.0
C363 C 0.82553 0.70434 0.642 0.0
C364 C 0.80531 0.69508 0.64397 0.0
C365 C 0.8093 0.68855 0.65427 0.0
U366 U 0.84343 0.68429 0.68526 0.0
O367 O 0.83968 0.67801 0.70407 0.0
O368 O 0.85138 0.66713 0.6921 0.0
C369 C 0.84565 0.66773 0.70264 0.0
C370 C 0.82546 0.68268 0.66921 0.0
C371 C 0.83903 0.65655 0.70642 0.0
C372 C 0.8217 0.64245 0.70468 0.0
C373 C 0.82786 0.65313 0.7009 0.0
C374 C 0.83788 0.6385 0.71946 0.0
C375 C 0.82665 0.63499 0.714 0.0
C376 C 0.84399 0.64918 0.71569 0.0
C377 C 0.87019 0.70653 0.6909 0.0
C378 C 0.88699 0.70233 0.70501 0.0
C379 C 0.88481 0.7226 0.69621 0.0
C380 C 0.87438 0.71864 0.68978 0.0
C381 C 0.89127 0.71449 0.70387 0.0
C382 C 0.8765 0.6984 0.69862 0.0
C383 C 0.85927 0.70255 0.68395 0.0
O384 O 0.83596 0.67702 0.668 0.0
O385 O 0.82433 0.6881 0.67986 0.0
O386 O 0.8488 0.70322 0.68982 0.0
O387 O 0.8604 0.69235 0.67774 0.0
H388 H 0.83886 0.69902 0.65554 0.0
H389 H 0.83194 0.71047 0.63743 0.0
H390 H 0.79596 0.69374 0.64079 0.0
H391 H 0.80294 0.68241 0.6589 0.0
H392 H 0.81314 0.63994 0.70021 0.0
H393 H 0.82392 0.65871 0.69368 0.0
H394 H 0.84186 0.63309 0.72677 0.0
H395 H 0.8526 0.65171 0.72006 0.0
H396 H 0.89167 0.6959 0.71094 0.0
H397 H 0.88794 0.73197 0.69501 0.0
H398 H 0.86961 0.72504 0.68387 0.0
H399 H 0.87334 0.68901 0.69967 0.0
C400 C 0.82326 0.34017 0.65643 0.0
C401 C 0.83035 0.33071 0.65161 0.0
C402 C 0.81522 0.32743 0.63532 0.0
C403 C 0.82636 0.32438 0.64114 0.0
C404 C 0.80813 0.33684 0.64033 0.0
C405 C 0.81212 0.34314 0.65076 0.0
U406 U 0.84471 0.34604 0.68399 0.0
O407 O 0.85217 0.36355 0.69084 0.0
O408 O 0.84017 0.35229 0.70252 0.0
C409 C 0.84603 0.36279 0.70116 0.0
C410 C 0.82731 0.34717 0.66725 0.0
C411 C 0.83923 0.37382 0.70465 0.0
C412 C 0.82056 0.38584 0.70508 0.0
C413 C 0.82687 0.3754 0.70135 0.0
C414 C 0.83895 0.39332 0.71525 0.0
C415 C 0.82653 0.39493 0.7121 0.0
C416 C 0.84522 0.38288 0.71157 0.0
C417 C 0.87139 0.32417 0.69072 0.0
C418 C 0.88657 0.32724 0.70689 0.0
C419 C 0.88688 0.30881 0.69468 0.0
C420 C 0.87672 0.31291 0.68802 0.0
C421 C 0.89194 0.3159 0.70422 0.0
C422 C 0.87635 0.33133 0.70021 0.0
C423 C 0.8607 0.32821 0.68351 0.0
O424 O 0.82586 0.34168 0.6779 0.0
O425 O 0.83792 0.35292 0.66625 0.0
O426 O 0.8621 0.33851 0.67738 0.0
O427 O 0.85003 0.32729 0.68902 0.0
H428 H 0.83899 0.32829 0.65588 0.0
H429 H 0.8321 0.31727 0.63749 0.0
H430 H 0.79941 0.3393 0.63625 0.0
H431 H 0.8065 0.35037 0.65439 0.0
H432 H 0.81105 0.38685 0.70238 0.0
H433 H 0.8221 0.36854 0.69594 0.0
H434 H 0.84379 0.40004 0.72077 0.0
H435 H 0.85475 0.38182 0.71423 0.0
H436 H 0.89015 0.33288 0.71424 0.0
H437 H 0.89089 0.30014 0.69222 0.0
H438 H 0.87304 0.30728 0.6807 0.0
H439 H 0.87232 0.34005 0.70245 0.0
C440 C 0.15607 0.32239 0.68971 0.0
C441 C 0.15148 0.32936 0.6994 0.0
C442 C 0.13478 0.31456 0.70236 0.0
C443 C 0.14093 0.32547 0.70568 0.0
C444 C 0.13952 0.30761 0.69268 0.0
C445 C 0.15004 0.3115 0.68643 0.0
U446 U 0.18347 0.34408 0.68408 0.0
O447 O 0.20238 0.33972 0.67871 0.0
O448 O 0.19095 0.35108 0.66669 0.0
C449 C 0.20138 0.34529 0.66805 0.0
C450 C 0.16707 0.32629 0.68289 0.0
C451 C 0.2055 0.33835 0.65735 0.0
C452 C 0.20226 0.32277 0.64178 0.0
C453 C 0.19824 0.32899 0.6522 0.0
C454 C 0.22087 0.33512 0.64169 0.0
C455 C 0.2136 0.32583 0.63634 0.0
C456 C 0.21685 0.34131 0.65207 0.0
C457 C 0.18904 0.37195 0.70493 0.0
C458 C 0.20758 0.38203 0.71264 0.0
C459 C 0.18908 0.39373 0.70953 0.0
C460 C 0.18296 0.38319 0.70544 0.0
C461 C 0.20144 0.39328 0.71332 0.0
C462 C 0.20146 0.37149 0.70848 0.0
C463 C 0.1821 0.36084 0.70116 0.0
O464 O 0.16613 0.3366 0.6767 0.0
O465 O 0.17754 0.32533 0.68882 0.0
O466 O 0.18752 0.35026 0.70283 0.0
O467 O 0.17617 0.36157 0.69067 0.0
H468 H 0.15604 0.33781 0.70205 0.0
H469 H 0.13748 0.3311 0.71301 0.0
H470 H 0.13517 0.29907 0.69 0.0
H471 H 0.15349 0.30598 0.67901 0.0
H472 H 0.19638 0.31575 0.63786 0.0
H473 H 0.18943 0.32659 0.65617 0.0
H474 H 0.22973 0.33757 0.6379 0.0
H475 H 0.22259 0.34847 0.65596 0.0
H476 H 0.21704 0.38128 0.71561 0.0
H477 H 0.18411 0.40225 0.7097 0.0
H478 H 0.17339 0.3838 0.70276 0.0
H479 H 0.20642 0.36297 0.70823 0.0
C480 C 0.1571 0.32168 0.34107 0.0
C481 C 0.15217 0.32877 0.33152 0.0
C482 C 0.13573 0.31372 0.32857 0.0
C483 C 0.14157 0.32483 0.32532 0.0
C484 C 0.14082 0.30662 0.33809 0.0
C485 C 0.15139 0.31058 0.34427 0.0
U486 U 0.18405 0.34384 0.34582 0.0
O487 O 0.19169 0.35153 0.36283 0.0
O488 O 0.20317 0.34011 0.35114 0.0
C489 C 0.20219 0.34586 0.36163 0.0
C490 C 0.16812 0.32573 0.3478 0.0
C491 C 0.20637 0.33905 0.37251 0.0
C492 C 0.20334 0.3232 0.38796 0.0
C493 C 0.19934 0.32938 0.37741 0.0
C494 C 0.22146 0.33625 0.38869 0.0
C495 C 0.21442 0.32662 0.39377 0.0
C496 C 0.21745 0.3424 0.37817 0.0
C497 C 0.18851 0.37108 0.32411 0.0
C498 C 0.20686 0.38394 0.32403 0.0
C499 C 0.18892 0.39004 0.31241 0.0
C500 C 0.18271 0.37947 0.31632 0.0
C501 C 0.20108 0.3924 0.31619 0.0
C502 C 0.20061 0.37338 0.32799 0.0
C503 C 0.18178 0.36002 0.3281 0.0
O504 O 0.17852 0.32484 0.34183 0.0
O505 O 0.16711 0.33611 0.35371 0.0
O506 O 0.1761 0.36089 0.33865 0.0
O507 O 0.1876 0.34964 0.32683 0.0
H508 H 0.15648 0.33739 0.32894 0.0
H509 H 0.13784 0.33058 0.31814 0.0
H510 H 0.13669 0.29793 0.3407 0.0
H511 H 0.15512 0.30496 0.35158 0.0
H512 H 0.19763 0.31592 0.39168 0.0
H513 H 0.19074 0.32668 0.37314 0.0
H514 H 0.23012 0.33899 0.3928 0.0
H515 H 0.22301 0.34982 0.37447 0.0
H516 H 0.21617 0.38555 0.32722 0.0
H517 H 0.18425 0.39629 0.30627 0.0
H518 H 0.17336 0.37783 0.31324 0.0
H519 H 0.20521 0.36703 0.33409 0.0
C520 C 0.15548 0.68813 0.32316 0.0
C521 C 0.14927 0.6956 0.33145 0.0
C522 C 0.13473 0.70152 0.31544 0.0
C523 C 0.13896 0.70221 0.32764 0.0
C524 C 0.1411 0.69411 0.30716 0.0
C525 C 0.15135 0.68748 0.31099 0.0
U526 U 0.18248 0.68155 0.34482 0.0
O527 O 0.18928 0.66399 0.35192 0.0
O528 O 0.20124 0.67565 0.34057 0.0
C529 C 0.19984 0.66507 0.34621 0.0
C530 C 0.16618 0.68088 0.32699 0.0
C531 C 0.20382 0.65423 0.33939 0.0
C532 C 0.2009 0.63904 0.32337 0.0
C533 C 0.19694 0.6495 0.32955 0.0
C534 C 0.21867 0.63805 0.33675 0.0
C535 C 0.2118 0.63314 0.32695 0.0
C536 C 0.21471 0.64847 0.34289 0.0
C537 C 0.18818 0.7028 0.37237 0.0
C538 C 0.20426 0.69989 0.38764 0.0
C539 C 0.19091 0.71741 0.38887 0.0
C540 C 0.18471 0.71352 0.37832 0.0
C541 C 0.20073 0.71064 0.39372 0.0
C542 C 0.19802 0.696 0.37705 0.0
C543 C 0.18138 0.69894 0.36132 0.0
O544 O 0.17691 0.68641 0.32598 0.0
O545 O 0.16498 0.67467 0.33727 0.0
O546 O 0.17528 0.68853 0.36221 0.0
O547 O 0.18725 0.70019 0.3509 0.0
H548 H 0.15237 0.6963 0.34088 0.0
H549 H 0.13437 0.70793 0.33422 0.0
H550 H 0.13802 0.69324 0.29775 0.0
H551 H 0.15601 0.68175 0.30446 0.0
H552 H 0.19533 0.63546 0.31594 0.0
H553 H 0.18849 0.65384 0.32672 0.0
H554 H 0.22721 0.63391 0.33963 0.0
H555 H 0.22017 0.65203 0.35043 0.0
H556 H 0.2117 0.6944 0.39116 0.0
H557 H 0.18807 0.72583 0.39316 0.0
H558 H 0.17717 0.71892 0.3748 0.0
H559 H 0.20083 0.68768 0.37255 0.0
C560 C 0.82156 0.65619 0.34192 0.0
C561 C 0.82719 0.65312 0.33083 0.0
C562 C 0.81353 0.63538 0.32873 0.0
C563 C 0.82321 0.6428 0.32429 0.0
C564 C 0.80801 0.6385 0.3399 0.0
C565 C 0.81199 0.64881 0.34642 0.0
U566 U 0.84334 0.68338 0.34746 0.0
O567 O 0.83927 0.70218 0.35311 0.0
O568 O 0.85082 0.6906 0.36479 0.0
C569 C 0.84503 0.70103 0.36366 0.0
C570 C 0.82553 0.66703 0.34891 0.0
C571 C 0.83819 0.70499 0.37451 0.0
C572 C 0.82055 0.70351 0.38805 0.0
C573 C 0.82698 0.69945 0.37777 0.0
C574 C 0.83654 0.7186 0.39193 0.0
C575 C 0.82523 0.71319 0.39523 0.0
C576 C 0.84293 0.71454 0.38167 0.0
C577 C 0.87043 0.68882 0.32557 0.0
C578 C 0.88613 0.70457 0.32846 0.0
C579 C 0.88642 0.69181 0.31039 0.0
C580 C 0.8759 0.68563 0.31447 0.0
C581 C 0.89173 0.70132 0.31735 0.0
C582 C 0.87556 0.69836 0.33254 0.0
C583 C 0.85948 0.68199 0.32971 0.0
O584 O 0.836 0.666 0.35483 0.0
O585 O 0.82439 0.67759 0.34322 0.0
O586 O 0.84899 0.68773 0.32857 0.0
O587 O 0.86058 0.67613 0.3402 0.0
H588 H 0.83461 0.65873 0.32722 0.0
H589 H 0.82759 0.64075 0.31567 0.0
H590 H 0.80069 0.6329 0.34371 0.0
H591 H 0.80759 0.65101 0.35499 0.0
H592 H 0.81183 0.69921 0.39025 0.0
H593 H 0.82317 0.69205 0.37233 0.0
H594 H 0.84054 0.72592 0.39734 0.0
H595 H 0.8516 0.71888 0.37932 0.0
H596 H 0.89002 0.71177 0.33411 0.0
H597 H 0.89034 0.6892 0.3017 0.0
H598 H 0.87202 0.67833 0.30895 0.0
H599 H 0.87145 0.70094 0.34116 0.0
C600 C 0.83963 0.37244 0.32339 0.0
C601 C 0.83021 0.3773 0.33054 0.0
C602 C 0.82662 0.3932 0.31515 0.0
C603 C 0.82377 0.38761 0.32648 0.0
C604 C 0.83609 0.38826 0.30806 0.0
C605 C 0.84252 0.37799 0.31215 0.0
U606 U 0.84534 0.34513 0.34501 0.0
O607 O 0.85091 0.32639 0.34051 0.0
O608 O 0.86281 0.3379 0.35203 0.0
C609 C 0.86154 0.3275 0.34614 0.0
C610 C 0.84656 0.36161 0.32739 0.0
C611 C 0.87231 0.32346 0.33919 0.0
C612 C 0.88765 0.32651 0.32328 0.0
C613 C 0.87739 0.33063 0.32974 0.0
C614 C 0.88777 0.30804 0.33565 0.0
C615 C 0.89294 0.31513 0.32614 0.0
C616 C 0.87757 0.31217 0.34209 0.0
C617 C 0.82367 0.33909 0.3722 0.0
C618 C 0.82663 0.32309 0.3875 0.0
C619 C 0.80826 0.33535 0.38783 0.0
C620 C 0.81242 0.34189 0.37758 0.0
C621 C 0.81529 0.32585 0.39293 0.0
C622 C 0.83077 0.32964 0.3772 0.0
C623 C 0.82776 0.34614 0.36138 0.0
O624 O 0.85253 0.36265 0.33783 0.0
O625 O 0.84082 0.35104 0.32621 0.0
O626 O 0.82649 0.34061 0.35079 0.0
O627 O 0.83829 0.35202 0.3625 0.0
H628 H 0.82783 0.37309 0.33924 0.0
H629 H 0.81646 0.3911 0.33211 0.0
H630 H 0.83867 0.39242 0.29941 0.0
H631 H 0.84979 0.3744 0.30651 0.0
H632 H 0.89132 0.33216 0.31595 0.0
H633 H 0.87342 0.33937 0.32734 0.0
H634 H 0.8917 0.29934 0.33824 0.0
H635 H 0.8738 0.30653 0.34939 0.0
H636 H 0.83223 0.31577 0.39111 0.0
H637 H 0.79959 0.33787 0.39187 0.0
H638 H 0.80683 0.34918 0.37387 0.0
H639 H 0.83949 0.32732 0.37312 0.0
C640 C 0.68756 0.15554 0.70594 0.0
C641 C 0.69735 0.15098 0.69909 0.0
C642 C 0.69998 0.13429 0.71383 0.0
C643 C 0.70352 0.14045 0.703 0.0
C644 C 0.6902 0.139 0.72067 0.0
C645 C 0.68406 0.1495 0.71675 0.0
U646 U 0.68219 0.18286 0.68427 0.0
O647 O 0.66481 0.19028 0.67725 0.0
O648 O 0.67689 0.20171 0.68868 0.0
C649 C 0.66621 0.20069 0.6831 0.0
C650 C 0.68082 0.1665 0.702 0.0
C651 C 0.65551 0.20485 0.69009 0.0
C652 C 0.64006 0.20183 0.70589 0.0
C653 C 0.65029 0.19765 0.69945 0.0
C654 C 0.64023 0.22043 0.69371 0.0
C655 C 0.63491 0.2133 0.70311 0.0
C656 C 0.65042 0.21624 0.68728 0.0
C657 C 0.70382 0.18811 0.65682 0.0
C658 C 0.70102 0.20364 0.64101 0.0
C659 C 0.71915 0.19102 0.64095 0.0
C660 C 0.71499 0.18495 0.65147 0.0
C661 C 0.7122 0.20041 0.63552 0.0
C662 C 0.69686 0.19753 0.65157 0.0
C663 C 0.69964 0.18137 0.6678 0.0
O664 O 0.68678 0.17697 0.70306 0.0
O665 O 0.67471 0.16554 0.69162 0.0
O666 O 0.689 0.17565 0.66682 0.0
O667 O 0.70106 0.18707 0.67829 0.0
H668 H 0.70017 0.15553 0.6907 0.0
H669 H 0.71093 0.13703 0.69745 0.0
H670 H 0.68735 0.13465 0.72914 0.0
H671 H 0.67656 0.15292 0.72218 0.0
H672 H 0.63627 0.19615 0.71314 0.0
H673 H 0.65414 0.18883 0.70177 0.0
H674 H 0.63642 0.2292 0.69118 0.0
H675 H 0.6543 0.2219 0.68006 0.0
H676 H 0.69538 0.21074 0.63703 0.0
H677 H 0.7279 0.18843 0.63714 0.0
H678 H 0.72051 0.17774 0.65543 0.0
H679 H 0.68819 0.2001 0.65559 0.0
C680 C 0.32085 0.18893 0.65868 0.0
C681 C 0.32805 0.19836 0.65356 0.0
C682 C 0.31244 0.20186 0.63786 0.0
C683 C 0.32389 0.20476 0.64321 0.0
C684 C 0.30527 0.19242 0.64311 0.0
C685 C 0.30944 0.18602 0.65342 0.0
U686 U 0.34345 0.18393 0.68506 0.0
O687 O 0.34005 0.1783 0.70413 0.0
O688 O 0.35128 0.16685 0.69225 0.0
C689 C 0.34575 0.16785 0.70287 0.0
C690 C 0.32509 0.18203 0.66947 0.0
C691 C 0.3389 0.15694 0.707 0.0
C692 C 0.32133 0.1431 0.70551 0.0
C693 C 0.32777 0.15349 0.70141 0.0
C694 C 0.33712 0.1395 0.72078 0.0
C695 C 0.32591 0.13599 0.71528 0.0
C696 C 0.34353 0.14988 0.71668 0.0
C697 C 0.37055 0.20611 0.68932 0.0
C698 C 0.38633 0.20322 0.70487 0.0
C699 C 0.38669 0.22137 0.692 0.0
C700 C 0.37608 0.21725 0.68598 0.0
C701 C 0.39198 0.21439 0.70149 0.0
C702 C 0.37569 0.19912 0.69882 0.0
C703 C 0.35945 0.20195 0.68278 0.0
O704 O 0.33553 0.17628 0.66814 0.0
O705 O 0.32429 0.18776 0.67999 0.0
O706 O 0.34913 0.20293 0.68886 0.0
O707 O 0.36038 0.1915 0.67697 0.0
H708 H 0.33687 0.20076 0.65756 0.0
H709 H 0.32958 0.21206 0.63949 0.0
H710 H 0.29649 0.18984 0.63913 0.0
H711 H 0.30378 0.17875 0.65725 0.0
H712 H 0.31268 0.14075 0.70115 0.0
H713 H 0.32405 0.15887 0.69391 0.0
H714 H 0.34102 0.13413 0.72818 0.0
H715 H 0.35214 0.15238 0.72106 0.0
H716 H 0.39022 0.19757 0.71204 0.0
H717 H 0.39066 0.2301 0.6893 0.0
H718 H 0.37219 0.22279 0.6787 0.0
H719 H 0.37152 0.19047 0.70152 0.0
C720 C 0.3239 0.8392 0.65553 0.0
C721 C 0.32977 0.82831 0.65235 0.0
C722 C 0.31592 0.82576 0.63484 0.0
C723 C 0.32582 0.82165 0.64208 0.0
C724 C 0.31019 0.83675 0.63806 0.0
C725 C 0.31414 0.84338 0.64829 0.0
U726 U 0.34508 0.84597 0.68313 0.0
O727 O 0.35168 0.8637 0.69014 0.0
O728 O 0.34006 0.8519 0.70171 0.0
C729 C 0.34533 0.86271 0.70033 0.0
C730 C 0.32765 0.84631 0.66637 0.0
C731 C 0.33794 0.87343 0.70393 0.0
C732 C 0.3308 0.89424 0.70044 0.0
C733 C 0.33717 0.88395 0.69647 0.0
C734 C 0.32563 0.88368 0.7193 0.0
C735 C 0.32502 0.89427 0.71194 0.0
C736 C 0.33207 0.87342 0.71536 0.0
C737 C 0.37308 0.82561 0.68963 0.0
C738 C 0.38495 0.82492 0.70858 0.0
C739 C 0.39274 0.81531 0.69029 0.0
C740 C 0.38229 0.81897 0.68381 0.0
C741 C 0.3942 0.8182 0.70277 0.0
C742 C 0.37449 0.82863 0.70205 0.0
C743 C 0.36207 0.82909 0.68256 0.0
O744 O 0.32651 0.84068 0.67699 0.0
O745 O 0.33797 0.85257 0.66539 0.0
O746 O 0.36288 0.83945 0.67642 0.0
O747 O 0.35146 0.82755 0.68807 0.0
H748 H 0.33733 0.82494 0.65785 0.0
H749 H 0.33038 0.81317 0.63994 0.0
H750 H 0.3027 0.84032 0.6326 0.0
H751 H 0.30953 0.8518 0.65058 0.0
H752 H 0.33039 0.9022 0.69449 0.0
H753 H 0.34159 0.8843 0.6876 0.0
H754 H 0.32142 0.88343 0.72827 0.0
H755 H 0.33261 0.8655 0.72136 0.0
H756 H 0.38584 0.82741 0.71814 0.0
H757 H 0.39957 0.81002 0.68557 0.0
H758 H 0.38135 0.81653 0.67424 0.0
H759 H 0.36751 0.83381 0.70671 0.0
C760 C 0.65621 0.82265 0.68986 0.0
C761 C 0.65297 0.82816 0.70095 0.0
C762 C 0.63524 0.8144 0.70278 0.0
C763 C 0.64257 0.82408 0.70736 0.0
C764 C 0.63853 0.80902 0.69159 0.0
C765 C 0.64891 0.81311 0.68522 0.0
U766 U 0.68385 0.84413 0.68453 0.0
O767 O 0.70266 0.83968 0.67898 0.0
O768 O 0.69131 0.85137 0.66721 0.0
C769 C 0.70167 0.84542 0.66841 0.0
C770 C 0.66719 0.82661 0.68302 0.0
C771 C 0.70562 0.8385 0.65762 0.0
C772 C 0.70235 0.82259 0.64241 0.0
C773 C 0.69833 0.82906 0.65267 0.0
C774 C 0.72097 0.83491 0.64202 0.0
C775 C 0.71375 0.82542 0.63698 0.0
C776 C 0.71693 0.84137 0.65223 0.0
C777 C 0.69009 0.87109 0.70615 0.0
C778 C 0.70421 0.88798 0.70189 0.0
C779 C 0.69592 0.88528 0.72229 0.0
C780 C 0.68933 0.87497 0.71834 0.0
C781 C 0.70341 0.89195 0.71411 0.0
C782 C 0.69765 0.87761 0.69796 0.0
C783 C 0.68286 0.86033 0.7022 0.0
O784 O 0.66631 0.8371 0.67715 0.0
O785 O 0.67772 0.82535 0.6888 0.0
O786 O 0.6883 0.84971 0.70343 0.0
O787 O 0.67691 0.86147 0.69175 0.0
H788 H 0.65853 0.83555 0.70467 0.0
H789 H 0.64038 0.82836 0.71599 0.0
H790 H 0.63301 0.80172 0.68767 0.0
H791 H 0.65124 0.80878 0.67664 0.0
H792 H 0.69661 0.81526 0.63884 0.0
H793 H 0.68957 0.82668 0.65676 0.0
H794 H 0.72969 0.83747 0.63798 0.0
H795 H 0.72266 0.84866 0.65592 0.0
H796 H 0.71 0.89283 0.69539 0.0
H797 H 0.69496 0.88816 0.73171 0.0
H798 H 0.68353 0.87006 0.72479 0.0
H799 H 0.69844 0.8747 0.68852 0.0
C800 C 0.65693 0.82154 0.34096 0.0
C801 C 0.65188 0.82857 0.33143 0.0
C802 C 0.63571 0.81322 0.32844 0.0
C803 C 0.64135 0.82444 0.32522 0.0
C804 C 0.64092 0.80621 0.33795 0.0
C805 C 0.65142 0.81034 0.34414 0.0
U806 U 0.68378 0.8439 0.34568 0.0
O807 O 0.69134 0.85164 0.3627 0.0
O808 O 0.70289 0.84024 0.35109 0.0
C809 C 0.70186 0.846 0.36156 0.0
C810 C 0.66791 0.82573 0.34767 0.0
C811 C 0.70601 0.83922 0.37247 0.0
C812 C 0.70296 0.82338 0.38792 0.0
C813 C 0.69899 0.82954 0.37736 0.0
C814 C 0.72107 0.83645 0.38869 0.0
C815 C 0.71402 0.82681 0.39376 0.0
C816 C 0.71708 0.84259 0.37815 0.0
C817 C 0.6883 0.87107 0.32392 0.0
C818 C 0.70665 0.88395 0.3239 0.0
C819 C 0.68876 0.89001 0.31217 0.0
C820 C 0.68254 0.87945 0.31608 0.0
C821 C 0.7009 0.89239 0.31602 0.0
C822 C 0.70038 0.8734 0.32786 0.0
C823 C 0.68156 0.86002 0.32791 0.0
O824 O 0.67833 0.82486 0.34175 0.0
O825 O 0.66682 0.83614 0.35352 0.0
O826 O 0.67584 0.86091 0.33843 0.0
O827 O 0.6874 0.84964 0.32669 0.0
H828 H 0.65604 0.83725 0.32885 0.0
H829 H 0.63752 0.83013 0.31803 0.0
H830 H 0.63696 0.79744 0.34054 0.0
H831 H 0.65525 0.80478 0.35144 0.0
H832 H 0.69725 0.8161 0.39164 0.0
H833 H 0.69039 0.82683 0.37307 0.0
H834 H 0.72972 0.8392 0.39281 0.0
H835 H 0.72264 0.85001 0.37445 0.0
H836 H 0.71594 0.88558 0.32714 0.0
H837 H 0.68412 0.89624 0.30599 0.0
H838 H 0.67321 0.87779 0.31295 0.0
H839 H 0.70495 0.86706 0.33399 0.0
C840 C 0.65549 0.1887 0.32397 0.0
C841 C 0.64931 0.19614 0.33232 0.0
C842 C 0.63476 0.20217 0.31635 0.0
C843 C 0.639 0.20278 0.32855 0.0
C844 C 0.64111 0.19478 0.30802 0.0
C845 C 0.65135 0.18812 0.31181 0.0
U846 U 0.68251 0.18161 0.34556 0.0
O847 O 0.68922 0.16385 0.35223 0.0
O848 O 0.70122 0.17569 0.34111 0.0
C849 C 0.69977 0.165 0.34652 0.0
C850 C 0.66619 0.1814 0.32773 0.0
C851 C 0.70368 0.15427 0.33948 0.0
C852 C 0.70054 0.13929 0.32332 0.0
C853 C 0.69671 0.14972 0.32962 0.0
C854 C 0.71836 0.13799 0.3366 0.0
C855 C 0.71138 0.13323 0.3268 0.0
C856 C 0.71453 0.14838 0.34287 0.0
C857 C 0.68856 0.20191 0.3737 0.0
C858 C 0.70746 0.20263 0.3857 0.0
C859 C 0.68909 0.21211 0.39344 0.0
C860 C 0.68267 0.20846 0.38293 0.0
C861 C 0.70159 0.2093 0.39495 0.0
C862 C 0.70099 0.19893 0.37519 0.0
C863 C 0.6816 0.19849 0.36258 0.0
O864 O 0.67692 0.18694 0.32686 0.0
O865 O 0.66495 0.175 0.3379 0.0
O866 O 0.67537 0.18814 0.36319 0.0
O867 O 0.68733 0.20004 0.35211 0.0
H868 H 0.65241 0.19677 0.34174 0.0
H869 H 0.63443 0.20848 0.33516 0.0
H870 H 0.63802 0.19395 0.29861 0.0
H871 H 0.656 0.18242 0.30524 0.0
H872 H 0.69489 0.13583 0.31589 0.0
H873 H 0.68828 0.15416 0.32689 0.0
H874 H 0.72685 0.13372 0.3394 0.0
H875 H 0.72006 0.1518 0.35042 0.0
H876 H 0.71702 0.20019 0.38662 0.0
H877 H 0.68432 0.21735 0.40029 0.0
H878 H 0.67309 0.21086 0.38195 0.0
H879 H 0.7057 0.1938 0.3682 0.0
C880 C 0.32187 0.15607 0.34182 0.0
C881 C 0.32739 0.15305 0.33067 0.0
C882 C 0.31369 0.13533 0.32861 0.0
C883 C 0.32334 0.14277 0.32411 0.0
C884 C 0.30827 0.13842 0.33985 0.0
C885 C 0.31233 0.14868 0.34637 0.0
U886 U 0.34371 0.18324 0.34729 0.0
O887 O 0.3397 0.20196 0.35328 0.0
O888 O 0.3515 0.19025 0.36458 0.0
C889 C 0.34566 0.20067 0.36371 0.0
C890 C 0.32594 0.16685 0.34885 0.0
C891 C 0.33903 0.20445 0.37476 0.0
C892 C 0.32159 0.20288 0.38854 0.0
C893 C 0.32775 0.19905 0.37801 0.0
C894 C 0.33797 0.21748 0.39267 0.0
C895 C 0.32664 0.21214 0.39601 0.0
C896 C 0.34408 0.21367 0.38215 0.0
C897 C 0.37049 0.18899 0.32514 0.0
C898 C 0.38604 0.2049 0.32798 0.0
C899 C 0.38653 0.192 0.31001 0.0
C900 C 0.37604 0.18576 0.31409 0.0
C901 C 0.39172 0.2016 0.31693 0.0
C902 C 0.37551 0.19863 0.33206 0.0
C903 C 0.35959 0.1821 0.32929 0.0
O904 O 0.33651 0.16578 0.35459 0.0
O905 O 0.32471 0.17747 0.34329 0.0
O906 O 0.34909 0.18785 0.32839 0.0
O907 O 0.36083 0.17608 0.33968 0.0
H908 H 0.33479 0.15867 0.32702 0.0
H909 H 0.32764 0.14075 0.31544 0.0
H910 H 0.30098 0.13281 0.3437 0.0
H911 H 0.30801 0.15085 0.355 0.0
H912 H 0.31296 0.19849 0.3909 0.0
H913 H 0.32373 0.19188 0.37241 0.0
H914 H 0.34204 0.22475 0.39809 0.0
H915 H 0.35277 0.21797 0.37976 0.0
H916 H 0.38984 0.21217 0.33358 0.0
H917 H 0.39052 0.18935 0.30137 0.0
H918 H 0.37226 0.17838 0.30861 0.0
H919 H 0.37133 0.20124 0.34063 0.0
C920 C 0.33965 0.87232 0.32358 0.0
C921 C 0.33015 0.87714 0.33066 0.0
C922 C 0.32668 0.89309 0.31529 0.0
C923 C 0.32374 0.88746 0.32656 0.0
C924 C 0.33623 0.88817 0.30827 0.0
C925 C 0.34263 0.87791 0.31239 0.0
U926 U 0.34538 0.84506 0.34528 0.0
O927 O 0.35118 0.82637 0.34083 0.0
O928 O 0.36284 0.838 0.35248 0.0
C929 C 0.36175 0.82759 0.34657 0.0
C930 C 0.34658 0.86152 0.32764 0.0
C931 C 0.37266 0.8237 0.33976 0.0
C932 C 0.38821 0.82701 0.32411 0.0
C933 C 0.37767 0.83087 0.33027 0.0
C934 C 0.38869 0.80875 0.33678 0.0
C935 C 0.3939 0.81592 0.32734 0.0
C936 C 0.3782 0.81261 0.34291 0.0
C937 C 0.32379 0.83897 0.3725 0.0
C938 C 0.32535 0.82139 0.38618 0.0
C939 C 0.31003 0.8368 0.38985 0.0
C940 C 0.31411 0.84335 0.37957 0.0
C941 C 0.31555 0.8257 0.39328 0.0
C942 C 0.32943 0.82797 0.37587 0.0
C943 C 0.32776 0.84601 0.36163 0.0
O944 O 0.35251 0.86259 0.33811 0.0
O945 O 0.34088 0.85092 0.32647 0.0
O946 O 0.32657 0.8404 0.35106 0.0
O947 O 0.33823 0.85201 0.36273 0.0
H948 H 0.32769 0.87291 0.33933 0.0
H949 H 0.31637 0.89092 0.33214 0.0
H950 H 0.33889 0.89237 0.29966 0.0
H951 H 0.34996 0.87434 0.30682 0.0
H952 H 0.39201 0.83282 0.31697 0.0
H953 H 0.3735 0.83947 0.32771 0.0
H954 H 0.39267 0.80007 0.33938 0.0
H955 H 0.37442 0.80693 0.35016 0.0
H956 H 0.32975 0.81283 0.38847 0.0
H957 H 0.30262 0.84053 0.39519 0.0
H958 H 0.30968 0.85186 0.37714 0.0
H959 H 0.33693 0.82444 0.3705 0.0
C960 C 0.68769 0.65563 0.20607 0.0
C961 C 0.69735 0.65095 0.19912 0.0
C962 C 0.70079 0.63501 0.2145 0.0
C963 C 0.70383 0.64071 0.20328 0.0
C964 C 0.69108 0.63979 0.22139 0.0
C965 C 0.68461 0.64998 0.2172 0.0
U966 U 0.68209 0.6828 0.18428 0.0
O967 O 0.6647 0.68983 0.17687 0.0
O968 O 0.67624 0.7015 0.1886 0.0
C969 C 0.66572 0.70026 0.18276 0.0
C970 C 0.68072 0.66639 0.20195 0.0
C971 C 0.65476 0.70416 0.18948 0.0
C972 C 0.63921 0.70095 0.20516 0.0
C973 C 0.64976 0.69706 0.19903 0.0
C974 C 0.63867 0.71908 0.19231 0.0
C975 C 0.63349 0.712 0.20182 0.0
C976 C 0.64917 0.71519 0.18621 0.0
C977 C 0.70417 0.68877 0.15738 0.0
C978 C 0.70138 0.70458 0.14184 0.0
C979 C 0.71976 0.69232 0.14188 0.0
C980 C 0.71549 0.68591 0.15216 0.0
C981 C 0.71278 0.70175 0.13658 0.0
C982 C 0.69712 0.69815 0.15218 0.0
C983 C 0.69995 0.68181 0.1682 0.0
O984 O 0.68635 0.67701 0.20317 0.0
O985 O 0.67491 0.66527 0.19142 0.0
O986 O 0.68949 0.67583 0.16697 0.0
O987 O 0.70099 0.68747 0.17876 0.0
H988 H 0.69989 0.65524 0.1905 0.0
H989 H 0.71133 0.63736 0.19781 0.0
H990 H 0.68834 0.63554 0.22995 0.0
H991 H 0.67715 0.65345 0.22268 0.0
H992 H 0.63543 0.69521 0.21236 0.0
H993 H 0.65396 0.6885 0.20168 0.0
H994 H 0.63467 0.72773 0.18963 0.0
H995 H 0.65294 0.72082 0.17891 0.0
H996 H 0.69582 0.71185 0.13808 0.0
H997 H 0.72847 0.68976 0.13797 0.0
H998 H 0.72104 0.67867 0.15603 0.0
H999 H 0.68836 0.70051 0.15612 0.0
C1000 C 0.32113 0.68843 0.15836 0.0
C1001 C 0.32814 0.69811 0.15342 0.0
C1002 C 0.31296 0.70089 0.13716 0.0
C1003 C 0.32408 0.70429 0.1429 0.0
C1004 C 0.30594 0.69127 0.14228 0.0
C1005 C 0.31 0.6851 0.15277 0.0
U1006 U 0.34348 0.68385 0.18505 0.0
O1007 O 0.33995 0.678 0.20404 0.0
O1008 O 0.35162 0.66691 0.19224 0.0
C1009 C 0.34593 0.6677 0.20278 0.0
C1010 C 0.32536 0.68164 0.16922 0.0
C1011 C 0.33932 0.65658 0.20675 0.0
C1012 C 0.32206 0.64237 0.20507 0.0
C1013 C 0.3282 0.65303 0.2012 0.0
C1014 C 0.33815 0.63871 0.22003 0.0
C1015 C 0.32699 0.63506 0.21452 0.0
C1016 C 0.34424 0.64937 0.21617 0.0
C1017 C 0.37016 0.70644 0.18968 0.0
C1018 C 0.38592 0.70364 0.20526 0.0
C1019 C 0.38611 0.72187 0.19252 0.0
C1020 C 0.37557 0.71767 0.18644 0.0
C1021 C 0.39147 0.71489 0.20197 0.0
C1022 C 0.37535 0.69945 0.19916 0.0
C1023 C 0.35917 0.70216 0.18303 0.0
O1024 O 0.33592 0.67608 0.16804 0.0
O1025 O 0.32431 0.68735 0.17972 0.0
O1026 O 0.34879 0.70291 0.18903 0.0
O1027 O 0.36033 0.69178 0.17715 0.0
H1028 H 0.33677 0.70079 0.15763 0.0
H1029 H 0.32977 0.71156 0.13914 0.0
H1030 H 0.29724 0.68855 0.13824 0.0
H1031 H 0.30446 0.67769 0.15651 0.0
H1032 H 0.31357 0.63976 0.20056 0.0
H1033 H 0.3243 0.65848 0.19386 0.0
H1034 H 0.34211 0.6334 0.22744 0.0
H1035 H 0.35281 0.65199 0.22056 0.0
H1036 H 0.38986 0.69798 0.21241 0.0
H1037 H 0.39 0.73066 0.18988 0.0
H1038 H 0.37164 0.72321 0.17917 0.0
H1039 H 0.37128 0.69074 0.20178 0.0
C1040 C 0.32386 0.34055 0.15584 0.0
C1041 C 0.32956 0.32962 0.15249 0.0
C1042 C 0.31609 0.32785 0.1346 0.0
C1043 C 0.32569 0.3233 0.14198 0.0
C1044 C 0.31044 0.33882 0.13806 0.0
C1045 C 0.3143 0.34509 0.14856 0.0
U1046 U 0.34538 0.34632 0.1833 0.0
O1047 O 0.35243 0.3638 0.19059 0.0
O1048 O 0.3409 0.35188 0.20209 0.0
C1049 C 0.34654 0.36252 0.20101 0.0
C1050 C 0.32773 0.3474 0.16681 0.0
C1051 C 0.33959 0.37325 0.20505 0.0
C1052 C 0.32217 0.38692 0.20338 0.0
C1053 C 0.32863 0.37671 0.19925 0.0
C1054 C 0.33763 0.3903 0.21907 0.0
C1055 C 0.32658 0.39382 0.21339 0.0
C1056 C 0.34404 0.38012 0.21494 0.0
C1057 C 0.37294 0.32523 0.18887 0.0
C1058 C 0.38672 0.32672 0.20643 0.0
C1059 C 0.39074 0.3121 0.19038 0.0
C1060 C 0.38026 0.31597 0.18408 0.0
C1061 C 0.39414 0.31743 0.20163 0.0
C1062 C 0.37623 0.33061 0.20008 0.0
C1063 C 0.36195 0.32908 0.18199 0.0
O1064 O 0.32661 0.34156 0.17732 0.0
O1065 O 0.33811 0.35355 0.16587 0.0
O1066 O 0.3629 0.33959 0.17614 0.0
O1067 O 0.35142 0.32764 0.18767 0.0
H1068 H 0.337 0.326 0.15799 0.0
H1069 H 0.33032 0.31496 0.13953 0.0
H1070 H 0.30291 0.3425 0.13273 0.0
H1071 H 0.30977 0.3535 0.15102 0.0
H1072 H 0.31365 0.38929 0.19886 0.0
H1073 H 0.32505 0.37149 0.19159 0.0
H1074 H 0.34142 0.39549 0.22665 0.0
H1075 H 0.35253 0.37762 0.21949 0.0
H1076 H 0.38913 0.3311 0.215 0.0
H1077 H 0.39609 0.3048 0.1865 0.0
H1078 H 0.37784 0.31169 0.17545 0.0
H1079 H 0.37069 0.33781 0.2039 0.0
C1080 C 0.65586 0.32271 0.18967 0.0
C1081 C 0.65254 0.32831 0.20069 0.0
C1082 C 0.63487 0.31448 0.20258 0.0
C1083 C 0.64213 0.32423 0.2071 0.0
C1084 C 0.63824 0.30901 0.19146 0.0
C1085 C 0.64862 0.31308 0.18509 0.0
U1086 U 0.68321 0.34448 0.1844 0.0
O1087 O 0.70216 0.34031 0.17907 0.0
O1088 O 0.69074 0.35177 0.16714 0.0
C1089 C 0.70117 0.34597 0.16846 0.0
C1090 C 0.66683 0.3267 0.18285 0.0
C1091 C 0.70529 0.33903 0.15773 0.0
C1092 C 0.70218 0.32318 0.14243 0.0
C1093 C 0.69805 0.32962 0.15267 0.0
C1094 C 0.72082 0.33547 0.14231 0.0
C1095 C 0.71364 0.32602 0.13714 0.0
C1096 C 0.71668 0.3419 0.1525 0.0
C1097 C 0.68843 0.37165 0.20609 0.0
C1098 C 0.70419 0.38733 0.20314 0.0
C1099 C 0.69146 0.38757 0.22128 0.0
C1100 C 0.68527 0.37708 0.21721 0.0
C1101 C 0.70096 0.3929 0.21427 0.0
C1102 C 0.69797 0.3768 0.19908 0.0
C1103 C 0.6816 0.36071 0.20198 0.0
O1104 O 0.66587 0.33711 0.17686 0.0
O1105 O 0.67734 0.32562 0.18872 0.0
O1106 O 0.6873 0.35025 0.2033 0.0
O1107 O 0.67587 0.36174 0.1914 0.0
H1108 H 0.65804 0.33577 0.20437 0.0
H1109 H 0.63989 0.32859 0.21568 0.0
H1110 H 0.63277 0.30164 0.18759 0.0
H1111 H 0.65102 0.30869 0.17656 0.0
H1112 H 0.69647 0.31588 0.13876 0.0
H1113 H 0.68924 0.32725 0.15663 0.0
H1114 H 0.7296 0.33803 0.13838 0.0
H1115 H 0.72237 0.34917 0.15627 0.0
H1116 H 0.71137 0.39124 0.19746 0.0
H1117 H 0.68887 0.39146 0.22998 0.0
H1118 H 0.67797 0.37319 0.22277 0.0
H1119 H 0.70053 0.37271 0.19046 0.0
C1120 C 0.65696 0.32174 0.84089 0.0
C1121 C 0.65206 0.32888 0.83137 0.0
C1122 C 0.63558 0.31387 0.82836 0.0
C1123 C 0.64145 0.32498 0.82515 0.0
C1124 C 0.64065 0.30674 0.83786 0.0
C1125 C 0.65122 0.31065 0.84406 0.0
U1126 U 0.68406 0.34374 0.8459 0.0
O1127 O 0.69179 0.35111 0.863 0.0
O1128 O 0.70316 0.33974 0.85116 0.0
C1129 C 0.70221 0.34529 0.86176 0.0
C1130 C 0.66801 0.32571 0.84763 0.0
C1131 C 0.70626 0.33822 0.87252 0.0
C1132 C 0.70212 0.32385 0.88913 0.0
C1133 C 0.69817 0.33026 0.87871 0.0
C1134 C 0.72234 0.33309 0.8871 0.0
C1135 C 0.71425 0.32522 0.89346 0.0
C1136 C 0.71836 0.33953 0.87674 0.0
C1137 C 0.68874 0.37125 0.82455 0.0
C1138 C 0.70724 0.38392 0.82449 0.0
C1139 C 0.68923 0.39041 0.81318 0.0
C1140 C 0.68295 0.37985 0.81699 0.0
C1141 C 0.70146 0.39257 0.81686 0.0
C1142 C 0.70091 0.37337 0.82834 0.0
C1143 C 0.68194 0.3602 0.82842 0.0
O1144 O 0.67839 0.32484 0.84164 0.0
O1145 O 0.66705 0.33603 0.85366 0.0
O1146 O 0.67627 0.36097 0.83898 0.0
O1147 O 0.68767 0.34978 0.82699 0.0
H1148 H 0.65639 0.33749 0.82881 0.0
H1149 H 0.63774 0.33076 0.81797 0.0
H1150 H 0.6365 0.29805 0.84044 0.0
H1151 H 0.65493 0.305 0.85135 0.0
H1152 H 0.69571 0.31776 0.89373 0.0
H1153 H 0.6888 0.32906 0.87553 0.0
H1154 H 0.73169 0.33445 0.89027 0.0
H1155 H 0.72473 0.34564 0.87207 0.0
H1156 H 0.7166 0.38538 0.82759 0.0
H1157 H 0.68457 0.39681 0.8072 0.0
H1158 H 0.67356 0.37836 0.81398 0.0
H1159 H 0.70551 0.36686 0.83427 0.0
C1160 C 0.65546 0.68836 0.8242 0.0
C1161 C 0.64922 0.69578 0.83252 0.0
C1162 C 0.63466 0.70167 0.8165 0.0
C1163 C 0.63888 0.70234 0.82871 0.0
C1164 C 0.64105 0.69428 0.80822 0.0
C1165 C 0.65133 0.6877 0.81204 0.0
U1166 U 0.68271 0.68176 0.84566 0.0
O1167 O 0.68981 0.66416 0.85232 0.0
O1168 O 0.7015 0.67617 0.84105 0.0
C1169 C 0.70023 0.66542 0.84639 0.0
C1170 C 0.66625 0.6812 0.82796 0.0
C1171 C 0.70411 0.65481 0.83914 0.0
C1172 C 0.6997 0.63801 0.82517 0.0
C1173 C 0.69581 0.64826 0.8317 0.0
C1174 C 0.72027 0.64087 0.83327 0.0
C1175 C 0.71199 0.63417 0.82589 0.0
C1176 C 0.71635 0.65106 0.83982 0.0
C1177 C 0.68852 0.70274 0.87345 0.0
C1178 C 0.70617 0.70148 0.88713 0.0
C1179 C 0.6903 0.7163 0.89094 0.0
C1180 C 0.68386 0.71217 0.88063 0.0
C1181 C 0.70159 0.71108 0.8943 0.0
C1182 C 0.69969 0.69735 0.87677 0.0
C1183 C 0.68163 0.69887 0.86246 0.0
O1184 O 0.67692 0.68685 0.82696 0.0
O1185 O 0.66517 0.67488 0.8382 0.0
O1186 O 0.6757 0.68835 0.86331 0.0
O1187 O 0.68732 0.70034 0.85196 0.0
H1188 H 0.65232 0.69647 0.84194 0.0
H1189 H 0.63426 0.70804 0.83529 0.0
H1190 H 0.63798 0.69342 0.79881 0.0
H1191 H 0.65602 0.68201 0.80549 0.0
H1192 H 0.69312 0.63315 0.81948 0.0
H1193 H 0.68632 0.65105 0.83099 0.0
H1194 H 0.72974 0.6381 0.83418 0.0
H1195 H 0.72289 0.65598 0.84552 0.0
H1196 H 0.71488 0.69731 0.88938 0.0
H1197 H 0.68637 0.72353 0.89635 0.0
H1198 H 0.67521 0.7164 0.87823 0.0
H1199 H 0.70344 0.69005 0.87131 0.0
C1200 C 0.32252 0.65592 0.84228 0.0
C1201 C 0.32786 0.65293 0.83103 0.0
C1202 C 0.31483 0.63467 0.82962 0.0
C1203 C 0.32403 0.6424 0.82473 0.0
C1204 C 0.30952 0.63776 0.8409 0.0
C1205 C 0.31334 0.64828 0.84716 0.0
U1206 U 0.34368 0.68376 0.84735 0.0
O1207 O 0.33916 0.70235 0.85334 0.0
O1208 O 0.35139 0.69103 0.86457 0.0
C1209 C 0.34525 0.70128 0.86371 0.0
C1210 C 0.3264 0.66688 0.84912 0.0
C1211 C 0.33866 0.70496 0.87481 0.0
C1212 C 0.32121 0.70336 0.88858 0.0
C1213 C 0.32735 0.69958 0.87802 0.0
C1214 C 0.33767 0.71783 0.89284 0.0
C1215 C 0.32631 0.71253 0.89613 0.0
C1216 C 0.34377 0.71407 0.88229 0.0
C1217 C 0.37019 0.6905 0.82524 0.0
C1218 C 0.38698 0.70477 0.82938 0.0
C1219 C 0.38436 0.69634 0.80904 0.0
C1220 C 0.37408 0.68969 0.81305 0.0
C1221 C 0.39099 0.70391 0.81716 0.0
C1222 C 0.37665 0.69815 0.83337 0.0
C1223 C 0.35952 0.68316 0.82929 0.0
O1224 O 0.33704 0.66614 0.85477 0.0
O1225 O 0.32483 0.67741 0.84346 0.0
O1226 O 0.34882 0.68853 0.8284 0.0
O1227 O 0.36093 0.67707 0.83962 0.0
H1228 H 0.33501 0.65872 0.82715 0.0
H1229 H 0.32839 0.64023 0.81613 0.0
H1230 H 0.30229 0.63213 0.84485 0.0
H1231 H 0.30909 0.65046 0.85582 0.0
H1232 H 0.31254 0.69901 0.89091 0.0
H1233 H 0.32329 0.69248 0.87236 0.0
H1234 H 0.34179 0.72503 0.89833 0.0
H1235 H 0.35247 0.71835 0.87994 0.0
H1236 H 0.39179 0.71062 0.83583 0.0
H1237 H 0.38726 0.69534 0.79963 0.0
H1238 H 0.36921 0.68382 0.80665 0.0
H1239 H 0.37374 0.69896 0.84281 0.0
C1240 C 0.3398 0.37247 0.82384 0.0
C1241 C 0.3304 0.3774 0.83097 0.0
C1242 C 0.32745 0.39374 0.81589 0.0
C1243 C 0.32426 0.38795 0.82702 0.0
C1244 C 0.33682 0.38863 0.80877 0.0
C1245 C 0.34292 0.37813 0.81272 0.0
U1246 U 0.34558 0.34511 0.8455 0.0
O1247 O 0.35115 0.32637 0.84092 0.0
O1248 O 0.36313 0.33793 0.85233 0.0
C1249 C 0.36184 0.32752 0.84646 0.0
C1250 C 0.34657 0.36153 0.8278 0.0
C1251 C 0.37259 0.32352 0.83946 0.0
C1252 C 0.38803 0.32677 0.82369 0.0
C1253 C 0.37757 0.33068 0.82995 0.0
C1254 C 0.38851 0.30849 0.83632 0.0
C1255 C 0.3937 0.31566 0.82687 0.0
C1256 C 0.37809 0.31239 0.84254 0.0
C1257 C 0.32479 0.33929 0.87339 0.0
C1258 C 0.32406 0.32051 0.88549 0.0
C1259 C 0.31413 0.33873 0.89291 0.0
C1260 C 0.31792 0.34512 0.88243 0.0
C1261 C 0.31711 0.32633 0.89458 0.0
C1262 C 0.32791 0.32695 0.87501 0.0
C1263 C 0.32847 0.34625 0.86235 0.0
O1264 O 0.35277 0.36254 0.83812 0.0
O1265 O 0.34065 0.35103 0.82681 0.0
O1266 O 0.32691 0.34065 0.85181 0.0
O1267 O 0.33898 0.35223 0.86311 0.0
H1268 H 0.32787 0.37315 0.8396 0.0
H1269 H 0.31718 0.39168 0.83279 0.0
H1270 H 0.33938 0.39269 0.80006 0.0
H1271 H 0.35011 0.37441 0.80707 0.0
H1272 H 0.39182 0.33258 0.81655 0.0
H1273 H 0.37344 0.33932 0.82745 0.0
H1274 H 0.39247 0.29979 0.83888 0.0
H1275 H 0.37434 0.30672 0.84982 0.0
H1276 H 0.32663 0.31102 0.88655 0.0
H1277 H 0.30866 0.34346 0.89961 0.0
H1278 H 0.31542 0.35463 0.88133 0.0
H1279 H 0.33327 0.32229 0.86817 0.0
H1280 H 0.23532 0.25793 0.99697 0.0
H1281 H 0.22608 0.24925 0.97849 0.0
H1282 H 0.26197 0.23865 0.966 0.0
H1283 H 0.27118 0.24735 0.98457 0.0
H1284 H 0.24748 0.24754 0.01503 0.0
H1285 H 0.25676 0.27859 0.98486 0.0
H1286 H 0.26523 0.28765 0.96614 0.0
H1287 H 0.30161 0.2769 0.97749 0.0
H1288 H 0.29308 0.26787 0.9962 0.0
H1289 H 0.29311 0.26889 0.03371 0.0
H1290 H 0.30126 0.27869 0.05219 0.0
H1291 H 0.26444 0.28831 0.06273 0.0
H1292 H 0.25642 0.2789 0.04404 0.0
H1293 H 0.28128 0.2783 0.01464 0.0
H1294 H 0.27213 0.24782 0.04505 0.0
H1295 H 0.26378 0.23902 0.06393 0.0
H1296 H 0.22721 0.24869 0.05218 0.0
H1297 H 0.23562 0.25747 0.0333 0.0
C1298 C 0.25397 0.2534 0.99216 0.0
C1299 C 0.24121 0.25372 0.99027 0.0
C1300 C 0.23593 0.2487 0.97971 0.0
C1301 C 0.24327 0.24321 0.97075 0.0
C1302 C 0.25606 0.24294 0.97263 0.0
C1303 C 0.26134 0.24792 0.98325 0.0
C1304 C 0.25942 0.25852 1.00362 0.0
C1305 C 0.25476 0.25439 0.01494 0.0
C1306 C 0.2692 0.26719 1.00351 0.0
C1307 C 0.27426 0.27242 0.99192 0.0
C1308 C 0.26654 0.27804 0.98325 0.0
C1309 C 0.2714 0.28322 0.97253 0.0
C1310 C 0.28411 0.28301 0.97028 0.0
C1311 C 0.29181 0.27737 0.97898 0.0
C1312 C 0.28694 0.27216 0.98967 0.0
C1313 C 0.27413 0.27304 0.0375 0.0
C1314 C 0.2868 0.27312 0.04 0.0
C1315 C 0.29143 0.27864 0.05064 0.0
C1316 C 0.28351 0.28428 0.05899 0.0
C1317 C 0.27083 0.28417 0.05646 0.0
C1318 C 0.26621 0.27866 0.04582 0.0
C1319 C 0.26925 0.26741 0.02604 0.0
C1320 C 0.27402 0.27142 0.01473 0.0
C1321 C 0.25957 0.25864 0.02615 0.0
C1322 C 0.25453 0.25343 0.03776 0.0
C1323 C 0.26232 0.24817 0.04659 0.0
C1324 C 0.25753 0.24315 0.0574 0.0
C1325 C 0.24481 0.24316 0.05961 0.0
C1326 C 0.23702 0.24839 0.05073 0.0
C1327 C 0.24183 0.25345 0.03994 0.0
H1328 H 0.76757 0.2357 0.99744 0.0
H1329 H 0.77645 0.22717 0.97886 0.0
H1330 H 0.78883 0.26331 0.96796 0.0
H1331 H 0.77996 0.27178 0.98657 0.0
H1332 H 0.77795 0.24696 0.01621 0.0
H1333 H 0.74791 0.25763 0.98594 0.0
H1334 H 0.73989 0.26651 0.96693 0.0
H1335 H 0.75198 0.30236 0.97875 0.0
H1336 H 0.76004 0.29342 0.99769 0.0
H1337 H 0.76062 0.29317 0.03438 0.0
H1338 H 0.75262 0.30221 0.05309 0.0
H1339 H 0.73954 0.26659 0.06491 0.0
H1340 H 0.7472 0.25768 0.04594 0.0
H1341 H 0.74926 0.28186 0.01594 0.0
H1342 H 0.77965 0.27078 0.04621 0.0
H1343 H 0.78776 0.26153 0.06501 0.0
H1344 H 0.77457 0.22609 0.05307 0.0
H1345 H 0.76646 0.23539 0.03434 0.0
C1346 C 0.77297 0.25441 0.99338 0.0
C1347 C 0.7722 0.24179 0.99105 0.0
C1348 C 0.77731 0.23692 0.98043 0.0
C1349 C 0.78334 0.24455 0.97189 0.0
C1350 C 0.78408 0.25719 0.97423 0.0
C1351 C 0.77901 0.26205 0.98489 0.0
C1352 C 0.76777 0.25949 1.00486 0.0
C1353 C 0.77152 0.25448 0.01614 0.0
C1354 C 0.75959 0.26948 1.00479 0.0
C1355 C 0.75471 0.27483 0.99321 0.0
C1356 C 0.74895 0.26738 0.98438 0.0
C1357 C 0.74437 0.27247 0.97352 0.0
C1358 C 0.74531 0.28514 0.97132 0.0
C1359 C 0.75098 0.29259 0.98022 0.0
C1360 C 0.75562 0.28749 0.99105 0.0
C1361 C 0.75463 0.27472 0.03878 0.0
C1362 C 0.75599 0.28731 0.04098 0.0
C1363 C 0.7515 0.29245 0.05175 0.0
C1364 C 0.74549 0.28513 0.06057 0.0
C1365 C 0.74403 0.27253 0.05829 0.0
C1366 C 0.74852 0.26739 0.04749 0.0
C1367 C 0.75947 0.26935 0.02728 0.0
C1368 C 0.75565 0.27432 0.016 0.0
C1369 C 0.76755 0.25929 0.02735 0.0
C1370 C 0.77233 0.2538 0.0389 0.0
C1371 C 0.77839 0.26104 0.0477 0.0
C1372 C 0.78302 0.25574 0.05845 0.0
C1373 C 0.78183 0.24306 0.06054 0.0
C1374 C 0.77579 0.23585 0.05168 0.0
C1375 C 0.77111 0.24116 0.04098 0.0
H1376 H 0.76832 0.79208 0.03299 0.0
H1377 H 0.77629 0.80134 0.05177 0.0
H1378 H 0.78838 0.76586 0.0643 0.0
H1379 H 0.78075 0.75672 0.04527 0.0
H1380 H 0.77965 0.78061 0.01497 0.0
H1381 H 0.74855 0.76979 0.04459 0.0
H1382 H 0.74048 0.76087 0.06356 0.0
H1383 H 0.75273 0.72523 0.0522 0.0
H1384 H 0.76114 0.73428 0.03347 0.0
H1385 H 0.75994 0.73455 0.99594 0.0
H1386 H 0.75043 0.72631 0.97733 0.0
H1387 H 0.73972 0.7628 0.96659 0.0
H1388 H 0.7488 0.77089 0.98541 0.0
H1389 H 0.75006 0.7458 0.01483 0.0
H1390 H 0.78042 0.75642 0.98481 0.0
H1391 H 0.78885 0.76536 0.966 0.0
H1392 H 0.77781 0.80122 0.97786 0.0
H1393 H 0.7694 0.79224 0.99663 0.0
C1394 C 0.77381 0.77368 0.03773 0.0
C1395 C 0.77272 0.78629 0.03976 0.0
C1396 C 0.7772 0.79156 0.05057 0.0
C1397 C 0.78293 0.78435 0.05962 0.0
C1398 C 0.78411 0.77171 0.05751 0.0
C1399 C 0.77963 0.76645 0.04668 0.0
C1400 C 0.76901 0.76819 0.02617 0.0
C1401 C 0.77306 0.77309 0.01493 0.0
C1402 C 0.76067 0.75813 0.02613 0.0
C1403 C 0.75561 0.75275 0.03765 0.0
C1404 C 0.74961 0.76007 0.04624 0.0
C1405 C 0.74488 0.75493 0.05704 0.0
C1406 C 0.74598 0.74232 0.05946 0.0
C1407 C 0.75188 0.735 0.05076 0.0
C1408 C 0.75661 0.74015 0.03998 0.0
C1409 C 0.75521 0.75336 0.99206 0.0
C1410 C 0.75553 0.74077 0.98957 0.0
C1411 C 0.75017 0.73608 0.97887 0.0
C1412 C 0.7443 0.74388 0.97042 0.0
C1413 C 0.74402 0.7565 0.97293 0.0
C1414 C 0.74935 0.76117 0.98364 0.0
C1415 C 0.76062 0.7583 1.00361 0.0
C1416 C 0.75669 0.75329 0.01485 0.0
C1417 C 0.76908 0.76826 1.00365 0.0
C1418 C 0.77416 0.77363 0.99212 0.0
C1419 C 0.77971 0.7662 0.98331 0.0
C1420 C 0.78452 0.77132 0.97254 0.0
C1421 C 0.78401 0.78402 0.9704 0.0
C1422 C 0.77852 0.79144 0.97927 0.0
C1423 C 0.77366 0.78631 0.99001 0.0
H1424 H 0.26759 0.73582 0.99654 0.0
H1425 H 0.27705 0.72769 0.97806 0.0
H1426 H 0.28932 0.76414 0.9681 0.0
H1427 H 0.28025 0.77211 0.98681 0.0
H1428 H 0.27782 0.74676 0.01579 0.0
H1429 H 0.24799 0.75802 0.98528 0.0
H1430 H 0.24055 0.76734 0.96625 0.0
H1431 H 0.25251 0.80286 0.97916 0.0
H1432 H 0.26031 0.79343 0.99794 0.0
H1433 H 0.25978 0.79268 0.03431 0.0
H1434 H 0.2515 0.80142 0.05305 0.0
H1435 H 0.23873 0.76555 0.06437 0.0
H1436 H 0.247 0.75685 0.04556 0.0
H1437 H 0.24897 0.78153 0.01575 0.0
H1438 H 0.27917 0.77033 0.04602 0.0
H1439 H 0.28732 0.76101 0.06476 0.0
H1440 H 0.27457 0.72554 0.05248 0.0
H1441 H 0.26643 0.7349 0.0338 0.0
C1442 C 0.27309 0.7546 0.99304 0.0
C1443 C 0.27232 0.74205 0.99038 0.0
C1444 C 0.27765 0.73743 0.97974 0.0
C1445 C 0.28394 0.74525 0.97156 0.0
C1446 C 0.28467 0.75782 0.97425 0.0
C1447 C 0.27936 0.76243 0.98489 0.0
C1448 C 0.2677 0.75942 1.00454 0.0
C1449 C 0.27135 0.75424 0.01577 0.0
C1450 C 0.2595 0.76939 1.00454 0.0
C1451 C 0.25485 0.775 0.99299 0.0
C1452 C 0.24912 0.7678 0.98395 0.0
C1453 C 0.24476 0.77316 0.97312 0.0
C1454 C 0.24596 0.78586 0.97114 0.0
C1455 C 0.2516 0.79304 0.98028 0.0
C1456 C 0.25597 0.78768 0.99108 0.0
C1457 C 0.25413 0.77408 0.03854 0.0
C1458 C 0.25517 0.78669 0.04081 0.0
C1459 C 0.25039 0.79169 0.05152 0.0
C1460 C 0.24444 0.78419 0.06023 0.0
C1461 C 0.2434 0.77156 0.05794 0.0
C1462 C 0.24813 0.76657 0.04718 0.0
C1463 C 0.25913 0.7689 0.02702 0.0
C1464 C 0.2554 0.77401 0.01577 0.0
C1465 C 0.26728 0.75888 0.02702 0.0
C1466 C 0.27207 0.75334 0.03853 0.0
C1467 C 0.27801 0.76056 0.04742 0.0
C1468 C 0.28267 0.75522 0.05814 0.0
C1469 C 0.28161 0.74252 0.06012 0.0
C1470 C 0.27569 0.73532 0.05118 0.0
C1471 C 0.27099 0.74066 0.0405 0.0
H1472 H 0.03256 0.26147 0.2359 0.0
H1473 H 0.05122 0.25327 0.22693 0.0
H1474 H 0.06259 0.24017 0.26261 0.0
H1475 H 0.04368 0.24804 0.27145 0.0
H1476 H 0.01385 0.25037 0.24696 0.0
H1477 H 0.04432 0.28041 0.25858 0.0
H1478 H 0.06314 0.28851 0.26799 0.0
H1479 H 0.05089 0.27535 0.30333 0.0
H1480 H 0.03215 0.26724 0.29388 0.0
H1481 H 0.9955 0.26754 0.29352 0.0
H1482 H 0.97684 0.27571 0.30251 0.0
H1483 H 0.96526 0.28853 0.2668 0.0
H1484 H 0.98418 0.28072 0.25793 0.0
H1485 H 0.01411 0.27853 0.28242 0.0
H1486 H 0.98381 0.24838 0.27099 0.0
H1487 H 0.96494 0.2402 0.26176 0.0
H1488 H 0.97682 0.25335 0.22628 0.0
H1489 H 0.99563 0.26153 0.23556 0.0
C1490 C 0.03673 0.2555 0.25438 0.0
C1491 C 0.03905 0.2568 0.24179 0.0
C1492 C 0.04979 0.25219 0.23669 0.0
C1493 C 0.05847 0.2461 0.24405 0.0
C1494 C 0.05608 0.24471 0.25665 0.0
C1495 C 0.04532 0.24933 0.26175 0.0
C1496 C 0.02522 0.26039 0.25971 0.0
C1497 C 0.01392 0.25667 0.25461 0.0
C1498 C 0.02528 0.26836 0.26991 0.0
C1499 C 0.03685 0.27311 0.2755 0.0
C1500 C 0.04576 0.27914 0.26833 0.0
C1501 C 0.05651 0.28378 0.27372 0.0
C1502 C 0.05851 0.28259 0.28642 0.0
C1503 C 0.04957 0.27656 0.29356 0.0
C1504 C 0.03886 0.27189 0.28816 0.0
C1505 C 0.99123 0.27338 0.27501 0.0
C1506 C 0.98897 0.27215 0.28762 0.0
C1507 C 0.97822 0.27674 0.29274 0.0
C1508 C 0.96948 0.28274 0.28538 0.0
C1509 C 0.97182 0.28406 0.27276 0.0
C1510 C 0.98258 0.27947 0.26765 0.0
C1511 C 1.00274 0.26851 0.26967 0.0
C1512 C 0.01405 0.27224 0.27477 0.0
C1513 C 1.00268 0.26052 0.25949 0.0
C1514 C 0.9911 0.25569 0.25399 0.0
C1515 C 0.98229 0.24962 0.26124 0.0
C1516 C 0.9715 0.24494 0.25596 0.0
C1517 C 0.96937 0.24611 0.24328 0.0
C1518 C 0.97824 0.25215 0.23604 0.0
C1519 C 0.98898 0.25687 0.24134 0.0
H1520 H 0.76866 0.03311 0.2362 0.0
H1521 H 0.77825 0.05194 0.22844 0.0
H1522 H 0.78827 0.06204 0.26543 0.0
H1523 H 0.77908 0.043 0.27306 0.0
H1524 H 0.77883 0.01419 0.24793 0.0
H1525 H 0.74776 0.04386 0.25741 0.0
H1526 H 0.73902 0.06225 0.26645 0.0
H1527 H 0.74928 0.04928 0.3025 0.0
H1528 H 0.75797 0.03095 0.29344 0.0
H1529 H 0.75805 0.99488 0.29295 0.0
H1530 H 0.74917 0.97599 0.30131 0.0
H1531 H 0.73923 0.96449 0.26473 0.0
H1532 H 0.74812 0.98341 0.25642 0.0
H1533 H 0.74772 0.01304 0.28094 0.0
H1534 H 0.77934 0.98442 0.27249 0.0
H1535 H 0.78858 0.96584 0.26456 0.0
H1536 H 0.7789 0.97687 0.2277 0.0
H1537 H 0.76925 0.99525 0.23576 0.0
C1538 C 0.77304 0.03668 0.25522 0.0
C1539 C 0.77293 0.03939 0.24263 0.0
C1540 C 0.77832 0.05021 0.23822 0.0
C1541 C 0.78402 0.05853 0.24631 0.0
C1542 C 0.78408 0.05579 0.25892 0.0
C1543 C 0.77871 0.04496 0.26332 0.0
C1544 C 0.7676 0.025 0.25984 0.0
C1545 C 0.77187 0.01393 0.25501 0.0
C1546 C 0.75879 0.02469 0.26935 0.0
C1547 C 0.75362 0.03602 0.27472 0.0
C1548 C 0.74823 0.04503 0.26725 0.0
C1549 C 0.74324 0.05555 0.27244 0.0
C1550 C 0.74341 0.05725 0.28522 0.0
C1551 C 0.74881 0.0482 0.29265 0.0
C1552 C 0.75382 0.03772 0.28747 0.0
C1553 C 0.75385 0.99055 0.27404 0.0
C1554 C 0.75396 0.98829 0.28672 0.0
C1555 C 0.74885 0.9775 0.2915 0.0
C1556 C 0.74348 0.96872 0.28369 0.0
C1557 C 0.74345 0.97097 0.27098 0.0
C1558 C 0.74852 0.9818 0.26622 0.0
C1559 C 0.75898 1.00223 0.26908 0.0
C1560 C 0.75464 0.0133 0.27383 0.0
C1561 C 0.76781 1.00254 0.25959 0.0
C1562 C 0.77345 0.99119 0.25475 0.0
C1563 C 0.77907 0.98278 0.26271 0.0
C1564 C 0.78448 0.9722 0.25814 0.0
C1565 C 0.78451 0.96983 0.24547 0.0
C1566 C 0.77891 0.9783 0.23751 0.0
C1567 C 0.77348 0.98888 0.2421 0.0
H1568 H 0.03094 0.73535 0.27024 0.0
H1569 H 0.0497 0.72616 0.27827 0.0
H1570 H 0.06275 0.76184 0.28959 0.0
H1571 H 0.04393 0.77099 0.28156 0.0
H1572 H 0.01315 0.74706 0.28101 0.0
H1573 H 0.04251 0.75696 0.2499 0.0
H1574 H 0.06125 0.76537 0.24077 0.0
H1575 H 0.05108 0.80156 0.25245 0.0
H1576 H 0.03236 0.79308 0.26161 0.0
H1577 H 0.99459 0.79308 0.26169 0.0
H1578 H 0.97582 0.80148 0.25275 0.0
H1579 H 0.96474 0.76523 0.24119 0.0
H1580 H 0.98351 0.75691 0.25011 0.0
H1581 H 0.01329 0.78163 0.25139 0.0
H1582 H 0.98304 0.77092 0.28196 0.0
H1583 H 0.96399 0.76177 0.28976 0.0
H1584 H 0.97611 0.72615 0.27821 0.0
H1585 H 0.99489 0.7354 0.27007 0.0
C1586 C 0.03603 0.75389 0.27518 0.0
C1587 C 0.03782 0.7412 0.27449 0.0
C1588 C 0.04855 0.73595 0.27912 0.0
C1589 C 0.05775 0.74326 0.28459 0.0
C1590 C 0.05594 0.75597 0.28529 0.0
C1591 C 0.04517 0.76121 0.2807 0.0
C1592 C 0.02449 0.75935 0.27034 0.0
C1593 C 0.01319 0.75453 0.27442 0.0
C1594 C 0.02452 0.76929 0.26194 0.0
C1595 C 0.03607 0.77435 0.25659 0.0
C1596 C 0.04439 0.76668 0.25065 0.0
C1597 C 0.05511 0.77151 0.24542 0.0
C1598 C 0.05769 0.78414 0.24589 0.0
C1599 C 0.04932 0.79181 0.25181 0.0
C1600 C 0.03862 0.78697 0.25708 0.0
C1601 C 0.99042 0.77433 0.25673 0.0
C1602 C 0.98811 0.78694 0.25723 0.0
C1603 C 0.97739 0.79174 0.25208 0.0
C1604 C 0.96873 0.78403 0.24628 0.0
C1605 C 0.97109 0.77141 0.24577 0.0
C1606 C 0.98184 0.76663 0.25087 0.0
C1607 C 1.00197 0.76929 0.26201 0.0
C1608 C 0.01326 0.7742 0.25803 0.0
C1609 C 1.00194 0.75935 0.27042 0.0
C1610 C 0.99037 0.75387 0.2753 0.0
C1611 C 0.98154 0.76116 0.281 0.0
C1612 C 0.97069 0.75589 0.28557 0.0
C1613 C 0.96847 0.74322 0.28458 0.0
C1614 C 0.9774 0.73596 0.27896 0.0
C1615 C 0.98821 0.74122 0.2744 0.0
H1616 H 0.23457 0.03131 0.26099 0.0
H1617 H 0.22503 0.04976 0.25282 0.0
H1618 H 0.26066 0.06355 0.24181 0.0
H1619 H 0.2701 0.04483 0.2496 0.0
H1620 H 0.24664 0.01373 0.2503 0.0
H1621 H 0.25587 0.04308 0.28135 0.0
H1622 H 0.26374 0.06199 0.29045 0.0
H1623 H 0.30036 0.05291 0.27882 0.0
H1624 H 0.29241 0.034 0.26969 0.0
H1625 H 0.29342 0.99656 0.26856 0.0
H1626 H 0.30273 0.97795 0.27672 0.0
H1627 H 0.26709 0.9652 0.28883 0.0
H1628 H 0.25791 0.98404 0.28102 0.0
H1629 H 0.2815 0.01462 0.27969 0.0
H1630 H 0.27132 0.98458 0.24873 0.0
H1631 H 0.26267 0.96534 0.24098 0.0
H1632 H 0.22678 0.97598 0.25348 0.0
H1633 H 0.23556 0.99498 0.26155 0.0
C1634 C 0.25308 0.03669 0.25603 0.0
C1635 C 0.24033 0.03828 0.25678 0.0
C1636 C 0.2349 0.04891 0.25219 0.0
C1637 C 0.24206 0.05821 0.2467 0.0
C1638 C 0.25483 0.05655 0.24588 0.0
C1639 C 0.26027 0.0459 0.25046 0.0
C1640 C 0.25877 0.02529 0.2609 0.0
C1641 C 0.25417 0.01393 0.25684 0.0
C1642 C 0.26875 0.02554 0.26928 0.0
C1643 C 0.27352 0.03716 0.27468 0.0
C1644 C 0.26557 0.04522 0.28061 0.0
C1645 C 0.27009 0.05605 0.28582 0.0
C1646 C 0.28269 0.059 0.28534 0.0
C1647 C 0.29064 0.05087 0.27947 0.0
C1648 C 0.2861 0.04006 0.27421 0.0
C1649 C 0.27494 0.99167 0.27403 0.0
C1650 C 0.28762 0.98977 0.27301 0.0
C1651 C 0.29291 0.97907 0.2776 0.0
C1652 C 0.28566 0.97001 0.28338 0.0
C1653 C 0.27298 0.972 0.28453 0.0
C1654 C 0.26769 0.98273 0.27994 0.0
C1655 C 0.26937 1.00308 0.26907 0.0
C1656 C 0.274 0.01443 0.27311 0.0
C1657 C 0.25933 1.00283 0.26077 0.0
C1658 C 0.25412 0.99118 0.25586 0.0
C1659 C 0.26161 0.98271 0.2499 0.0
C1660 C 0.25662 0.97177 0.24536 0.0
C1661 C 0.24402 0.96908 0.24664 0.0
C1662 C 0.23655 0.97765 0.2525 0.0
C1663 C 0.24153 0.98858 0.25703 0.0
H1664 H 0.03255 0.76709 0.79366 0.0
H1665 H 0.05133 0.77513 0.8031 0.0
H1666 H 0.06351 0.78839 0.76777 0.0
H1667 H 0.04466 0.78035 0.75837 0.0
H1668 H 0.01455 0.77861 0.78227 0.0
H1669 H 0.04415 0.74812 0.77106 0.0
H1670 H 0.0629 0.74021 0.76191 0.0
H1671 H 0.05082 0.75303 0.72636 0.0
H1672 H 0.03236 0.76131 0.73563 0.0
H1673 H 0.99556 0.76114 0.73565 0.0
H1674 H 0.97655 0.75296 0.72675 0.0
H1675 H 0.96508 0.74045 0.76258 0.0
H1676 H 0.98414 0.74859 0.77142 0.0
H1677 H 0.01392 0.75027 0.74696 0.0
H1678 H 0.98457 0.78085 0.75787 0.0
H1679 H 0.96566 0.78873 0.7667 0.0
H1680 H 0.97718 0.77599 0.80246 0.0
H1681 H 0.99585 0.76778 0.79351 0.0
C1682 C 0.03721 0.77301 0.77529 0.0
C1683 C 0.03925 0.77174 0.78794 0.0
C1684 C 0.04998 0.77638 0.79333 0.0
C1685 C 0.05891 0.78243 0.78619 0.0
C1686 C 0.05689 0.78365 0.7735 0.0
C1687 C 0.04611 0.77905 0.76812 0.0
C1688 C 0.02559 0.76834 0.76973 0.0
C1689 C 0.01441 0.77229 0.77465 0.0
C1690 C 0.02543 0.76034 0.75955 0.0
C1691 C 0.03688 0.75547 0.75407 0.0
C1692 C 0.04561 0.74936 0.76132 0.0
C1693 C 0.05628 0.74471 0.75604 0.0
C1694 C 0.05842 0.746 0.74338 0.0
C1695 C 0.0496 0.75204 0.73616 0.0
C1696 C 0.03897 0.7567 0.74143 0.0
C1697 C 0.99124 0.75561 0.75422 0.0
C1698 C 0.98896 0.75661 0.74158 0.0
C1699 C 0.97811 0.7519 0.7365 0.0
C1700 C 0.96929 0.74606 0.74396 0.0
C1701 C 0.9716 0.74505 0.75661 0.0
C1702 C 0.9825 0.7497 0.76168 0.0
C1703 C 1.00289 0.76051 0.75953 0.0
C1704 C 0.01407 0.75661 0.75457 0.0
C1705 C 1.00306 0.76859 0.76964 0.0
C1706 C 0.99159 0.77357 0.77499 0.0
C1707 C 0.98297 0.77965 0.7676 0.0
C1708 C 0.97221 0.78427 0.77268 0.0
C1709 C 0.96985 0.78297 0.7853 0.0
C1710 C 0.97858 0.777 0.79269 0.0
C1711 C 0.98933 0.77238 0.7876 0.0
H1712 H 0.26858 0.03322 0.73684 0.0
H1713 H 0.27741 0.05231 0.72883 0.0
H1714 H 0.28829 0.06264 0.7655 0.0
H1715 H 0.27945 0.04355 0.77345 0.0
H1716 H 0.27902 0.0145 0.74844 0.0
H1717 H 0.24788 0.04377 0.75813 0.0
H1718 H 0.2393 0.06232 0.76693 0.0
H1719 H 0.25016 0.05009 0.80307 0.0
H1720 H 0.2587 0.03156 0.79421 0.0
H1721 H 0.25864 0.99455 0.79352 0.0
H1722 H 0.24924 0.97572 0.80149 0.0
H1723 H 0.23909 0.96524 0.76465 0.0
H1724 H 0.24811 0.98428 0.75681 0.0
H1725 H 0.2484 0.01328 0.78191 0.0
H1726 H 0.2802 0.98473 0.77256 0.0
H1727 H 0.28932 0.96629 0.76415 0.0
H1728 H 0.27729 0.97702 0.72788 0.0
H1729 H 0.26842 0.99557 0.73636 0.0
C1730 C 0.27322 0.03699 0.75576 0.0
C1731 C 0.27287 0.0396 0.74315 0.0
C1732 C 0.27796 0.0505 0.73858 0.0
C1733 C 0.28353 0.05902 0.74653 0.0
C1734 C 0.28389 0.05638 0.75916 0.0
C1735 C 0.27884 0.04545 0.76371 0.0
C1736 C 0.26798 0.0253 0.76055 0.0
C1737 C 0.27219 0.01424 0.75564 0.0
C1738 C 0.2593 0.02496 0.77019 0.0
C1739 C 0.25406 0.03629 0.77548 0.0
C1740 C 0.24851 0.04513 0.76794 0.0
C1741 C 0.24361 0.05575 0.77299 0.0
C1742 C 0.24404 0.05773 0.78572 0.0
C1743 C 0.24952 0.04881 0.79325 0.0
C1744 C 0.25445 0.03821 0.7882 0.0
C1745 C 0.25418 0.9908 0.77455 0.0
C1746 C 0.25439 0.98819 0.78717 0.0
C1747 C 0.2491 0.97736 0.7917 0.0
C1748 C 0.24341 0.96895 0.78371 0.0
C1749 C 0.24328 0.97157 0.77107 0.0
C1750 C 0.24855 0.9824 0.76655 0.0
C1751 C 0.25945 1.00251 0.76982 0.0
C1752 C 0.25523 0.01356 0.77472 0.0
C1753 C 0.26814 1.00285 0.76021 0.0
C1754 C 0.27354 0.99151 0.75511 0.0
C1755 C 0.27946 0.98306 0.76281 0.0
C1756 C 0.28464 0.97248 0.75797 0.0
C1757 C 0.28405 0.9701 0.74531 0.0
C1758 C 0.2781 0.97861 0.73763 0.0
C1759 C 0.27297 0.98921 0.74248 0.0
H1760 H 0.99512 0.26964 0.7377 0.0
H1761 H 0.97634 0.27778 0.72865 0.0
H1762 H 0.96427 0.28891 0.76451 0.0
H1763 H 0.98329 0.28106 0.77348 0.0
H1764 H 0.01349 0.28033 0.74949 0.0
H1765 H 0.9837 0.24947 0.75867 0.0
H1766 H 0.9647 0.24051 0.76659 0.0
H1767 H 0.97557 0.25068 0.80333 0.0
H1768 H 0.99435 0.26011 0.79524 0.0
H1769 H 0.0326 0.26005 0.7951 0.0
H1770 H 0.05134 0.25077 0.80315 0.0
H1771 H 0.06097 0.23949 0.76659 0.0
H1772 H 0.04224 0.24875 0.75862 0.0
H1773 H 0.01318 0.25015 0.7836 0.0
H1774 H 0.04434 0.28033 0.77303 0.0
H1775 H 0.06341 0.2878 0.76371 0.0
H1776 H 0.04978 0.27701 0.72807 0.0
H1777 H 0.03097 0.2692 0.73748 0.0
C1778 C 0.99061 0.27464 0.7563 0.0
C1779 C 0.98846 0.27389 0.74362 0.0
C1780 C 0.97765 0.27845 0.73846 0.0
C1781 C 0.96874 0.28395 0.74585 0.0
C1782 C 0.97097 0.28482 0.75854 0.0
C1783 C 0.98179 0.28023 0.7637 0.0
C1784 C 1.00212 0.26964 0.76168 0.0
C1785 C 0.01342 0.27365 0.75688 0.0
C1786 C 1.00202 0.26105 0.77147 0.0
C1787 C 0.99041 0.25564 0.77633 0.0
C1788 C 0.98192 0.24994 0.76841 0.0
C1789 C 0.97111 0.24467 0.77299 0.0
C1790 C 0.96858 0.24484 0.78563 0.0
C1791 C 0.97712 0.25052 0.79354 0.0
C1792 C 0.98792 0.25583 0.78894 0.0
C1793 C 0.03606 0.25526 0.77622 0.0
C1794 C 0.03875 0.25557 0.78882 0.0
C1795 C 0.04946 0.25022 0.79342 0.0
C1796 C 0.05771 0.24442 0.78552 0.0
C1797 C 0.05495 0.24407 0.77291 0.0
C1798 C 0.04422 0.24937 0.76833 0.0
C1799 C 0.02457 0.26082 0.77137 0.0
C1800 C 0.01326 0.25693 0.77629 0.0
C1801 C 0.02465 0.26938 0.76155 0.0
C1802 C 0.03624 0.27408 0.75598 0.0
C1803 C 0.04551 0.27947 0.76322 0.0
C1804 C 0.05637 0.28385 0.75786 0.0
C1805 C 0.05817 0.28298 0.74513 0.0
C1806 C 0.04881 0.27766 0.73791 0.0
C1807 C 0.03798 0.27329 0.74327 0.0
H1808 H 0.7343 0.03153 0.761 0.0
H1809 H 0.72489 0.04993 0.75253 0.0
H1810 H 0.76061 0.0633 0.74134 0.0
H1811 H 0.76998 0.04483 0.74982 0.0
H1812 H 0.74639 0.01385 0.75054 0.0
H1813 H 0.75578 0.0436 0.78139 0.0
H1814 H 0.76401 0.06236 0.79054 0.0
H1815 H 0.80048 0.05248 0.77913 0.0
H1816 H 0.79219 0.03374 0.76997 0.0
H1817 H 0.79306 0.99694 0.76958 0.0
H1818 H 0.80243 0.9785 0.77805 0.0
H1819 H 0.76672 0.9654 0.78957 0.0
H1820 H 0.7574 0.98391 0.78111 0.0
H1821 H 0.78101 0.01474 0.78017 0.0
H1822 H 0.77115 0.98451 0.74953 0.0
H1823 H 0.76248 0.96556 0.74113 0.0
H1824 H 0.72638 0.97639 0.7528 0.0
H1825 H 0.73509 0.99527 0.76122 0.0
C1826 C 0.75288 0.0368 0.75617 0.0
C1827 C 0.74012 0.03841 0.75671 0.0
C1828 C 0.73474 0.04893 0.75181 0.0
C1829 C 0.74198 0.05811 0.74622 0.0
C1830 C 0.75477 0.0565 0.74571 0.0
C1831 C 0.76015 0.04593 0.75057 0.0
C1832 C 0.75847 0.02542 0.76118 0.0
C1833 C 0.75386 0.01405 0.75715 0.0
C1834 C 0.76842 0.02566 0.7696 0.0
C1835 C 0.77334 0.03729 0.77486 0.0
C1836 C 0.76553 0.04555 0.7807 0.0
C1837 C 0.77025 0.05629 0.78594 0.0
C1838 C 0.78291 0.05894 0.78557 0.0
C1839 C 0.79071 0.05066 0.77971 0.0
C1840 C 0.78597 0.03995 0.77443 0.0
C1841 C 0.7745 0.9918 0.77458 0.0
C1842 C 0.78724 0.99011 0.77395 0.0
C1843 C 0.79259 0.97957 0.77884 0.0
C1844 C 0.78534 0.97045 0.78451 0.0
C1845 C 0.77257 0.97215 0.78513 0.0
C1846 C 0.76722 0.98274 0.78028 0.0
C1847 C 0.76893 1.00318 0.76953 0.0
C1848 C 0.77356 0.01455 0.77355 0.0
C1849 C 0.75895 1.00293 0.76114 0.0
C1850 C 0.7538 0.9913 0.75613 0.0
C1851 C 0.76139 0.98275 0.7504 0.0
C1852 C 0.75642 0.97191 0.74559 0.0
C1853 C 0.74373 0.96945 0.74628 0.0
C1854 C 0.73616 0.97806 0.75197 0.0
C1855 C 0.74114 0.98885 0.75682 0.0
H1856 H 0.29311 0.76745 0.49534 0.0
H1857 H 0.30129 0.77652 0.47648 0.0
H1858 H 0.26469 0.78725 0.46583 0.0
H1859 H 0.25659 0.77819 0.48469 0.0
H1860 H 0.28153 0.77755 0.51414 0.0
H1861 H 0.27112 0.7469 0.48386 0.0
H1862 H 0.26183 0.73899 0.46499 0.0
H1863 H 0.22602 0.74923 0.47804 0.0
H1864 H 0.2354 0.75752 0.49662 0.0
H1865 H 0.23597 0.75676 0.5329 0.0
H1866 H 0.22761 0.74802 0.55182 0.0
H1867 H 0.26417 0.73801 0.56331 0.0
H1868 H 0.27246 0.74675 0.54438 0.0
H1869 H 0.24767 0.74685 0.51449 0.0
H1870 H 0.25702 0.77786 0.54383 0.0
H1871 H 0.26528 0.78686 0.56262 0.0
H1872 H 0.30187 0.7768 0.55176 0.0
H1873 H 0.29353 0.76779 0.53296 0.0
C1874 C 0.27421 0.77199 0.49141 0.0
C1875 C 0.28685 0.77176 0.48895 0.0
C1876 C 0.29152 0.77699 0.47817 0.0
C1877 C 0.28365 0.78259 0.4696 0.0
C1878 C 0.27099 0.78283 0.47211 0.0
C1879 C 0.26634 0.77765 0.48291 0.0
C1880 C 0.26932 0.76659 0.503 0.0
C1881 C 0.27426 0.77068 0.51421 0.0
C1882 C 0.25955 0.75791 0.5031 0.0
C1883 C 0.25399 0.75295 0.49163 0.0
C1884 C 0.26128 0.74756 0.48259 0.0
C1885 C 0.25594 0.74291 0.47185 0.0
C1886 C 0.24316 0.7435 0.46994 0.0
C1887 C 0.23589 0.7488 0.47908 0.0
C1888 C 0.24124 0.75345 0.48978 0.0
C1889 C 0.25487 0.75254 0.53723 0.0
C1890 C 0.24218 0.75266 0.53948 0.0
C1891 C 0.23741 0.74763 0.5503 0.0
C1892 C 0.24521 0.74233 0.55912 0.0
C1893 C 0.25791 0.74219 0.55683 0.0
C1894 C 0.26267 0.74718 0.54598 0.0
C1895 C 0.25988 0.7578 0.52562 0.0
C1896 C 0.25497 0.75367 0.51441 0.0
C1897 C 0.26958 0.76655 0.52552 0.0
C1898 C 0.27462 0.77199 0.53701 0.0
C1899 C 0.26681 0.77746 0.54554 0.0
C1900 C 0.27155 0.7826 0.55631 0.0
C1901 C 0.28425 0.78252 0.55875 0.0
C1902 C 0.29207 0.77714 0.55013 0.0
C1903 C 0.28731 0.77195 0.53939 0.0
H1904 H 0.76742 0.73563 0.49663 0.0
H1905 H 0.77625 0.72744 0.47784 0.0
H1906 H 0.78832 0.76383 0.46745 0.0
H1907 H 0.77951 0.77194 0.48624 0.0
H1908 H 0.77777 0.74686 0.51558 0.0
H1909 H 0.74747 0.75766 0.48528 0.0
H1910 H 0.73936 0.76689 0.46647 0.0
H1911 H 0.75156 0.80251 0.47887 0.0
H1912 H 0.75966 0.79324 0.49761 0.0
H1913 H 0.75995 0.79279 0.53393 0.0
H1914 H 0.75201 0.80172 0.55272 0.0
H1915 H 0.73947 0.76594 0.56463 0.0
H1916 H 0.74708 0.75713 0.54559 0.0
H1917 H 0.74865 0.7814 0.5156 0.0
H1918 H 0.77927 0.77088 0.54551 0.0
H1919 H 0.78749 0.762 0.56443 0.0
H1920 H 0.77517 0.72617 0.5528 0.0
H1921 H 0.76688 0.73511 0.53395 0.0
C1922 C 0.77265 0.75443 0.49281 0.0
C1923 C 0.77197 0.74184 0.4903 0.0
C1924 C 0.77706 0.73717 0.47957 0.0
C1925 C 0.78297 0.74498 0.47111 0.0
C1926 C 0.78366 0.75758 0.47366 0.0
C1927 C 0.77862 0.76223 0.48441 0.0
C1928 C 0.76741 0.75933 0.50433 0.0
C1929 C 0.77125 0.75429 0.51558 0.0
C1930 C 0.75913 0.76924 0.50435 0.0
C1931 C 0.75427 0.77474 0.49283 0.0
C1932 C 0.7485 0.76744 0.48389 0.0
C1933 C 0.74387 0.77273 0.47314 0.0
C1934 C 0.74479 0.78544 0.47117 0.0
C1935 C 0.75054 0.79272 0.48016 0.0
C1936 C 0.75521 0.78743 0.49088 0.0
C1937 C 0.75422 0.77426 0.53837 0.0
C1938 C 0.75545 0.78687 0.54056 0.0
C1939 C 0.75099 0.79195 0.55138 0.0
C1940 C 0.74516 0.78455 0.56025 0.0
C1941 C 0.74383 0.77193 0.55797 0.0
C1942 C 0.74828 0.76685 0.54714 0.0
C1943 C 0.75905 0.76897 0.52684 0.0
C1944 C 0.75513 0.77393 0.5156 0.0
C1945 C 0.76729 0.75903 0.52683 0.0
C1946 C 0.77231 0.75369 0.53836 0.0
C1947 C 0.77821 0.76114 0.54709 0.0
C1948 C 0.78292 0.75605 0.55791 0.0
C1949 C 0.78197 0.74338 0.56013 0.0
C1950 C 0.77617 0.73594 0.55131 0.0
C1951 C 0.7714 0.74104 0.54054 0.0
H1952 H 0.76794 0.29214 0.53259 0.0
H1953 H 0.776 0.3016 0.55122 0.0
H1954 H 0.78853 0.26633 0.56391 0.0
H1955 H 0.78084 0.25699 0.545 0.0
H1956 H 0.77916 0.28087 0.51459 0.0
H1957 H 0.7486 0.26945 0.5445 0.0
H1958 H 0.74057 0.26034 0.5634 0.0
H1959 H 0.75312 0.22488 0.55181 0.0
H1960 H 0.76153 0.23413 0.53319 0.0
H1961 H 0.76082 0.23423 0.49601 0.0
H1962 H 0.75183 0.22546 0.4774 0.0
H1963 H 0.73945 0.26132 0.46638 0.0
H1964 H 0.74845 0.27001 0.48499 0.0
H1965 H 0.75043 0.24536 0.51469 0.0
H1966 H 0.78064 0.25672 0.48459 0.0
H1967 H 0.78841 0.2658 0.46557 0.0
H1968 H 0.77633 0.30133 0.47741 0.0
H1969 H 0.76822 0.29213 0.4962 0.0
C1970 C 0.77366 0.27382 0.53741 0.0
C1971 C 0.77245 0.28644 0.53937 0.0
C1972 C 0.77698 0.29183 0.55009 0.0
C1973 C 0.78286 0.28474 0.55914 0.0
C1974 C 0.78414 0.2721 0.55712 0.0
C1975 C 0.77962 0.26671 0.54636 0.0
C1976 C 0.76887 0.26822 0.52589 0.0
C1977 C 0.77276 0.27319 0.51461 0.0
C1978 C 0.76076 0.25799 0.52592 0.0
C1979 C 0.75584 0.25252 0.53747 0.0
C1980 C 0.74976 0.25974 0.5461 0.0
C1981 C 0.74504 0.25449 0.55685 0.0
C1982 C 0.74621 0.24186 0.55918 0.0
C1983 C 0.75222 0.23466 0.55045 0.0
C1984 C 0.75695 0.23992 0.53973 0.0
C1985 C 0.75545 0.25281 0.49188 0.0
C1986 C 0.75618 0.24021 0.48958 0.0
C1987 C 0.751 0.2352 0.47895 0.0
C1988 C 0.74492 0.24268 0.47036 0.0
C1989 C 0.74423 0.25531 0.47267 0.0
C1990 C 0.74938 0.26031 0.48334 0.0
C1991 C 0.76066 0.25804 0.50339 0.0
C1992 C 0.75686 0.253 0.51467 0.0
C1993 C 0.76885 0.26822 0.50336 0.0
C1994 C 0.7737 0.2737 0.4918 0.0
C1995 C 0.77956 0.26644 0.48304 0.0
C1996 C 0.78412 0.27168 0.47221 0.0
C1997 C 0.78298 0.28431 0.46992 0.0
C1998 C 0.77721 0.29155 0.47877 0.0
C1999 C 0.77266 0.28632 0.48958 0.0
H2000 H 0.26778 0.23522 0.49641 0.0
H2001 H 0.27732 0.2271 0.47796 0.0
H2002 H 0.28929 0.26361 0.46788 0.0
H2003 H 0.28015 0.27158 0.48655 0.0
H2004 H 0.27779 0.24624 0.51565 0.0
H2005 H 0.24801 0.25731 0.48508 0.0
H2006 H 0.23995 0.26659 0.46627 0.0
H2007 H 0.25211 0.30217 0.4788 0.0
H2008 H 0.26014 0.29286 0.49755 0.0
H2009 H 0.26047 0.29236 0.53378 0.0
H2010 H 0.25254 0.30148 0.55247 0.0
H2011 H 0.23937 0.26594 0.56443 0.0
H2012 H 0.24696 0.25694 0.54547 0.0
H2013 H 0.24905 0.2811 0.51543 0.0
H2014 H 0.27959 0.27006 0.54546 0.0
H2015 H 0.28712 0.26108 0.56461 0.0
H2016 H 0.27395 0.22553 0.55295 0.0
H2017 H 0.26607 0.23465 0.53402 0.0
C2018 C 0.27313 0.25403 0.49285 0.0
C2019 C 0.27247 0.24147 0.49023 0.0
C2020 C 0.27784 0.23686 0.47961 0.0
C2021 C 0.28407 0.2447 0.4714 0.0
C2022 C 0.28469 0.25728 0.47404 0.0
C2023 C 0.27934 0.26188 0.48467 0.0
C2024 C 0.2677 0.25886 0.50432 0.0
C2025 C 0.27136 0.25374 0.51559 0.0
C2026 C 0.2595 0.26884 0.50427 0.0
C2027 C 0.25478 0.27437 0.49271 0.0
C2028 C 0.24905 0.26709 0.48372 0.0
C2029 C 0.24445 0.27241 0.47297 0.0
C2030 C 0.24536 0.28513 0.47104 0.0
C2031 C 0.25109 0.29238 0.48007 0.0
C2032 C 0.25573 0.28706 0.49078 0.0
C2033 C 0.25442 0.27394 0.53824 0.0
C2034 C 0.25583 0.28653 0.54041 0.0
C2035 C 0.25139 0.29172 0.55116 0.0
C2036 C 0.24538 0.28444 0.56002 0.0
C2037 C 0.24387 0.27183 0.55778 0.0
C2038 C 0.24832 0.26665 0.54699 0.0
C2039 C 0.25923 0.26855 0.52675 0.0
C2040 C 0.25545 0.27356 0.51548 0.0
C2041 C 0.26733 0.2585 0.5268 0.0
C2042 C 0.27211 0.25306 0.53837 0.0
C2043 C 0.27822 0.26035 0.54709 0.0
C2044 C 0.28263 0.25518 0.55798 0.0
C2045 C 0.28111 0.24259 0.56035 0.0
C2046 C 0.27512 0.23529 0.55152 0.0
C2047 C 0.27069 0.24047 0.54064 0.0
H2048 H 0.75871 0.53143 0.79391 0.0
H2049 H 0.75023 0.54997 0.80278 0.0
H2050 H 0.73936 0.56226 0.76666 0.0
H2051 H 0.74788 0.54369 0.75784 0.0
H2052 H 0.74842 0.5132 0.78176 0.0
H2053 H 0.77956 0.54314 0.77311 0.0
H2054 H 0.78865 0.56213 0.76522 0.0
H2055 H 0.77789 0.55189 0.72847 0.0
H2056 H 0.76843 0.5331 0.7365 0.0
H2057 H 0.76861 0.49561 0.73601 0.0
H2058 H 0.77766 0.47718 0.72744 0.0
H2059 H 0.78875 0.46577 0.76378 0.0
H2060 H 0.77967 0.4842 0.77228 0.0
H2061 H 0.77876 0.51424 0.74805 0.0
H2062 H 0.74804 0.48368 0.75718 0.0
H2063 H 0.73927 0.46476 0.76562 0.0
H2064 H 0.75024 0.476 0.802 0.0
H2065 H 0.75902 0.49489 0.7935 0.0
C2066 C 0.75406 0.53618 0.77518 0.0
C2067 C 0.75447 0.5381 0.7879 0.0
C2068 C 0.74957 0.5487 0.79297 0.0
C2069 C 0.7441 0.55763 0.78545 0.0
C2070 C 0.74366 0.55567 0.77271 0.0
C2071 C 0.74853 0.54504 0.76765 0.0
C2072 C 0.75922 0.52481 0.76988 0.0
C2073 C 0.75518 0.51343 0.7745 0.0
C2074 C 0.76784 0.52509 0.76019 0.0
C2075 C 0.77318 0.53674 0.75542 0.0
C2076 C 0.77901 0.54506 0.76338 0.0
C2077 C 0.78432 0.55586 0.75883 0.0
C2078 C 0.78402 0.55854 0.7462 0.0
C2079 C 0.77815 0.5502 0.73826 0.0
C2080 C 0.77283 0.5394 0.74282 0.0
C2081 C 0.77332 0.49127 0.75482 0.0
C2082 C 0.77299 0.48914 0.74213 0.0
C2083 C 0.77821 0.47861 0.73724 0.0
C2084 C 0.78393 0.46996 0.74491 0.0
C2085 C 0.78425 0.47212 0.75762 0.0
C2086 C 0.77906 0.48268 0.7625 0.0
C2087 C 0.76797 0.50263 0.75994 0.0
C2088 C 0.77197 0.514 0.75529 0.0
C2089 C 0.75937 0.50235 0.76965 0.0
C2090 C 0.75429 0.49069 0.77469 0.0
C2091 C 0.7487 0.48201 0.76696 0.0
C2092 C 0.74369 0.47118 0.77179 0.0
C2093 C 0.74406 0.46886 0.78449 0.0
C2094 C 0.74968 0.47757 0.7922 0.0
C2095 C 0.75472 0.48836 0.78735 0.0
H2096 H 0.29224 0.53409 0.77016 0.0
H2097 H 0.30029 0.5527 0.77981 0.0
H2098 H 0.26364 0.56186 0.79133 0.0
H2099 H 0.25575 0.54305 0.78207 0.0
H2100 H 0.28139 0.51461 0.78002 0.0
H2101 H 0.27001 0.54476 0.75011 0.0
H2102 H 0.2608 0.56357 0.74227 0.0
H2103 H 0.22504 0.55037 0.75356 0.0
H2104 H 0.23436 0.5318 0.76175 0.0
H2105 H 0.23522 0.49505 0.76319 0.0
H2106 H 0.22612 0.47616 0.75515 0.0
H2107 H 0.26138 0.46589 0.74077 0.0
H2108 H 0.2704 0.48495 0.74865 0.0
H2109 H 0.24611 0.51396 0.75114 0.0
H2110 H 0.2578 0.484 0.78153 0.0
H2111 H 0.26714 0.46522 0.78924 0.0
H2112 H 0.30259 0.47813 0.77673 0.0
H2113 H 0.29311 0.49666 0.76864 0.0
C2114 C 0.27336 0.53719 0.77528 0.0
C2115 C 0.28594 0.54011 0.77477 0.0
C2116 C 0.29052 0.55082 0.7802 0.0
C2117 C 0.28262 0.55881 0.78634 0.0
C2118 C 0.27002 0.55587 0.7868 0.0
C2119 C 0.26546 0.54516 0.78138 0.0
C2120 C 0.26856 0.52562 0.76982 0.0
C2121 C 0.27381 0.51448 0.77355 0.0
C2122 C 0.25849 0.52544 0.76155 0.0
C2123 C 0.25291 0.53689 0.75667 0.0
C2124 C 0.2602 0.54597 0.75101 0.0
C2125 C 0.2549 0.55668 0.74641 0.0
C2126 C 0.24216 0.55853 0.74729 0.0
C2127 C 0.23489 0.54936 0.75287 0.0
C2128 C 0.2402 0.53867 0.75747 0.0
C2129 C 0.25351 0.49138 0.75661 0.0
C2130 C 0.24099 0.48873 0.75829 0.0
C2131 C 0.23582 0.47789 0.75377 0.0
C2132 C 0.24303 0.46949 0.74736 0.0
C2133 C 0.25556 0.4722 0.7456 0.0
C2134 C 0.26075 0.48304 0.75018 0.0
C2135 C 0.25888 0.50298 0.76142 0.0
C2136 C 0.25374 0.51412 0.75757 0.0
C2137 C 0.26907 0.50315 0.76954 0.0
C2138 C 0.27471 0.49171 0.77433 0.0
C2139 C 0.26756 0.48272 0.78031 0.0
C2140 C 0.27295 0.47203 0.78485 0.0
C2141 C 0.28564 0.4701 0.78359 0.0
C2142 C 0.29278 0.47918 0.7777 0.0
C2143 C 0.28738 0.48986 0.77315 0.0
H2144 H 0.26876 0.53298 0.23606 0.0
H2145 H 0.27838 0.55177 0.22823 0.0
H2146 H 0.28888 0.56171 0.26513 0.0
H2147 H 0.27965 0.54272 0.27282 0.0
H2148 H 0.27894 0.51394 0.24773 0.0
H2149 H 0.24811 0.54388 0.2575 0.0
H2150 H 0.24017 0.56259 0.26661 0.0
H2151 H 0.25044 0.54931 0.30255 0.0
H2152 H 0.25872 0.53087 0.29336 0.0
H2153 H 0.25826 0.49482 0.29288 0.0
H2154 H 0.24934 0.47596 0.30129 0.0
H2155 H 0.23916 0.46451 0.26476 0.0
H2156 H 0.24808 0.4834 0.2564 0.0
H2157 H 0.24804 0.51306 0.28094 0.0
H2158 H 0.27932 0.48419 0.27237 0.0
H2159 H 0.28844 0.46555 0.26446 0.0
H2160 H 0.27886 0.47663 0.22759 0.0
H2161 H 0.26931 0.49506 0.23563 0.0
C2162 C 0.27337 0.53648 0.25504 0.0
C2163 C 0.27314 0.53921 0.24246 0.0
C2164 C 0.27856 0.55001 0.23801 0.0
C2165 C 0.28439 0.55828 0.24605 0.0
C2166 C 0.28459 0.55551 0.25866 0.0
C2167 C 0.27919 0.5447 0.26309 0.0
C2168 C 0.26787 0.52485 0.2597 0.0
C2169 C 0.27202 0.51374 0.25485 0.0
C2170 C 0.25913 0.52461 0.26927 0.0
C2171 C 0.25416 0.53599 0.27472 0.0
C2172 C 0.24876 0.54506 0.26733 0.0
C2173 C 0.24411 0.55571 0.27257 0.0
C2174 C 0.2447 0.55751 0.28533 0.0
C2175 C 0.25 0.54835 0.29269 0.0
C2176 C 0.25465 0.53772 0.28745 0.0
C2177 C 0.25393 0.49051 0.274 0.0
C2178 C 0.2541 0.48825 0.28668 0.0
C2179 C 0.24897 0.47748 0.29148 0.0
C2180 C 0.24353 0.46872 0.2837 0.0
C2181 C 0.24343 0.47097 0.27099 0.0
C2182 C 0.24852 0.48178 0.2662 0.0
C2183 C 0.25913 0.50215 0.269 0.0
C2184 C 0.25491 0.51325 0.27377 0.0
C2185 C 0.26791 0.50238 0.25947 0.0
C2186 C 0.27347 0.49099 0.25463 0.0
C2187 C 0.27903 0.48254 0.2626 0.0
C2188 C 0.28438 0.47193 0.25803 0.0
C2189 C 0.28441 0.46955 0.24537 0.0
C2190 C 0.27887 0.47805 0.2374 0.0
C2191 C 0.27349 0.48866 0.24198 0.0
H2192 H 0.73454 0.53182 0.26117 0.0
H2193 H 0.72525 0.55044 0.25304 0.0
H2194 H 0.76102 0.56359 0.24174 0.0
H2195 H 0.7702 0.54474 0.24952 0.0
H2196 H 0.74635 0.51399 0.25045 0.0
H2197 H 0.75584 0.5432 0.28138 0.0
H2198 H 0.76377 0.56209 0.29047 0.0
H2199 H 0.80037 0.55284 0.27894 0.0
H2200 H 0.79236 0.53394 0.26981 0.0
H2201 H 0.79307 0.49648 0.26837 0.0
H2202 H 0.80236 0.47785 0.27648 0.0
H2203 H 0.76678 0.46529 0.28896 0.0
H2204 H 0.75762 0.48416 0.28119 0.0
H2205 H 0.78135 0.51458 0.27968 0.0
H2206 H 0.77058 0.48435 0.24899 0.0
H2207 H 0.7615 0.46528 0.24129 0.0
H2208 H 0.72586 0.47683 0.25366 0.0
H2209 H 0.73506 0.49561 0.26173 0.0
C2210 C 0.7531 0.53689 0.25607 0.0
C2211 C 0.74039 0.53869 0.2569 0.0
C2212 C 0.7351 0.54941 0.25234 0.0
C2213 C 0.74239 0.55858 0.24678 0.0
C2214 C 0.75511 0.5567 0.24586 0.0
C2215 C 0.7604 0.54596 0.25043 0.0
C2216 C 0.75865 0.52544 0.26097 0.0
C2217 C 0.75392 0.51412 0.25695 0.0
C2218 C 0.76865 0.52561 0.26933 0.0
C2219 C 0.77347 0.53719 0.27475 0.0
C2220 C 0.76555 0.5453 0.28066 0.0
C2221 C 0.77011 0.55611 0.28586 0.0
C2222 C 0.78271 0.55902 0.2854 0.0
C2223 C 0.79064 0.55084 0.27956 0.0
C2224 C 0.78607 0.54004 0.27431 0.0
C2225 C 0.77461 0.49169 0.27403 0.0
C2226 C 0.78727 0.48973 0.27288 0.0
C2227 C 0.79256 0.47901 0.27745 0.0
C2228 C 0.78533 0.47 0.28332 0.0
C2229 C 0.77266 0.47206 0.28458 0.0
C2230 C 0.76738 0.48279 0.28002 0.0
C2231 C 0.76907 0.50313 0.26912 0.0
C2232 C 0.77382 0.51446 0.27313 0.0
C2233 C 0.75897 0.50297 0.26088 0.0
C2234 C 0.75354 0.49137 0.25608 0.0
C2235 C 0.76084 0.48271 0.25016 0.0
C2236 C 0.7556 0.47186 0.24565 0.0
C2237 C 0.74294 0.46948 0.24689 0.0
C2238 C 0.73566 0.47824 0.25272 0.0
C2239 C 0.7409 0.48905 0.25724 0.0
H2240 H 0.53241 0.26126 0.73558 0.0
H2241 H 0.55104 0.25303 0.72657 0.0
H2242 H 0.56246 0.23992 0.76223 0.0
H2243 H 0.54358 0.24781 0.77111 0.0
H2244 H 0.51366 0.25035 0.74668 0.0
H2245 H 0.54438 0.28017 0.75823 0.0
H2246 H 0.5632 0.28831 0.76762 0.0
H2247 H 0.55098 0.2752 0.80299 0.0
H2248 H 0.53224 0.26706 0.79356 0.0
H2249 H 0.49573 0.26779 0.79335 0.0
H2250 H 0.47731 0.27632 0.8025 0.0
H2251 H 0.46567 0.28936 0.76689 0.0
H2252 H 0.48417 0.28084 0.75779 0.0
H2253 H 0.51427 0.27848 0.78216 0.0
H2254 H 0.4836 0.24863 0.77071 0.0
H2255 H 0.46447 0.24106 0.76153 0.0
H2256 H 0.4767 0.25381 0.72602 0.0
H2257 H 0.49557 0.26176 0.73533 0.0
C2258 C 0.53662 0.25529 0.75405 0.0
C2259 C 0.53891 0.25658 0.74146 0.0
C2260 C 0.54963 0.25195 0.73633 0.0
C2261 C 0.55832 0.24585 0.74367 0.0
C2262 C 0.55595 0.24446 0.75628 0.0
C2263 C 0.5452 0.2491 0.7614 0.0
C2264 C 0.52515 0.26025 0.75942 0.0
C2265 C 0.5138 0.25663 0.75434 0.0
C2266 C 0.52531 0.26822 0.76961 0.0
C2267 C 0.53693 0.2729 0.77517 0.0
C2268 C 0.54583 0.27892 0.76798 0.0
C2269 C 0.55658 0.28358 0.77336 0.0
C2270 C 0.55858 0.28243 0.78606 0.0
C2271 C 0.54965 0.27639 0.79322 0.0
C2272 C 0.53895 0.27169 0.78783 0.0
C2273 C 0.49133 0.27355 0.77485 0.0
C2274 C 0.48923 0.2725 0.7875 0.0
C2275 C 0.47869 0.27743 0.79273 0.0
C2276 C 0.47 0.28356 0.78544 0.0
C2277 C 0.47209 0.28457 0.77275 0.0
C2278 C 0.48267 0.27968 0.76753 0.0
C2279 C 0.50277 0.26856 0.76945 0.0
C2280 C 0.51412 0.27219 0.77451 0.0
C2281 C 0.50261 0.26058 0.75926 0.0
C2282 C 0.49097 0.25591 0.75374 0.0
C2283 C 0.48209 0.24992 0.76097 0.0
C2284 C 0.47121 0.24548 0.75568 0.0
C2285 C 0.46901 0.24685 0.74303 0.0
C2286 C 0.47798 0.25277 0.73582 0.0
C2287 C 0.48884 0.25723 0.74111 0.0
H2288 H 0.531 0.73534 0.77086 0.0
H2289 H 0.54965 0.72616 0.77914 0.0
H2290 H 0.56293 0.76197 0.78983 0.0
H2291 H 0.54423 0.7711 0.78151 0.0
H2292 H 0.51322 0.74749 0.78124 0.0
H2293 H 0.54265 0.75616 0.75008 0.0
H2294 H 0.56165 0.76383 0.74093 0.0
H2295 H 0.55218 0.80064 0.7513 0.0
H2296 H 0.53339 0.79281 0.76087 0.0
H2297 H 0.49554 0.79352 0.76152 0.0
H2298 H 0.47698 0.80229 0.75255 0.0
H2299 H 0.46519 0.76626 0.74098 0.0
H2300 H 0.48374 0.75756 0.75 0.0
H2301 H 0.514 0.78156 0.75104 0.0
H2302 H 0.48349 0.77188 0.78165 0.0
H2303 H 0.46447 0.76313 0.78994 0.0
H2304 H 0.47585 0.72713 0.77881 0.0
H2305 H 0.49481 0.73592 0.77053 0.0
C2306 C 0.53622 0.75394 0.77544 0.0
C2307 C 0.5379 0.74122 0.77502 0.0
C2308 C 0.54857 0.73598 0.7798 0.0
C2309 C 0.55781 0.74332 0.78516 0.0
C2310 C 0.55609 0.75606 0.78561 0.0
C2311 C 0.54539 0.7613 0.78086 0.0
C2312 C 0.52477 0.75943 0.77041 0.0
C2313 C 0.51339 0.75485 0.77452 0.0
C2314 C 0.52499 0.7692 0.76181 0.0
C2315 C 0.53663 0.77387 0.75632 0.0
C2316 C 0.54473 0.76586 0.75054 0.0
C2317 C 0.55555 0.77029 0.74518 0.0
C2318 C 0.55847 0.78287 0.74535 0.0
C2319 C 0.55032 0.79088 0.75113 0.0
C2320 C 0.53951 0.78643 0.75652 0.0
C2321 C 0.49101 0.77485 0.75657 0.0
C2322 C 0.48895 0.78751 0.75705 0.0
C2323 C 0.47834 0.79252 0.75188 0.0
C2324 C 0.46955 0.78499 0.74604 0.0
C2325 C 0.47164 0.77231 0.74557 0.0
C2326 C 0.48227 0.76731 0.75072 0.0
C2327 C 0.50245 0.76962 0.76187 0.0
C2328 C 0.51383 0.77425 0.7578 0.0
C2329 C 0.50223 0.75979 0.7704 0.0
C2330 C 0.49056 0.75458 0.77536 0.0
C2331 C 0.48183 0.76212 0.78088 0.0
C2332 C 0.47095 0.7571 0.78562 0.0
C2333 C 0.46863 0.74442 0.78505 0.0
C2334 C 0.47741 0.73691 0.77955 0.0
C2335 C 0.48825 0.74193 0.77478 0.0
H2336 H 0.53181 0.7606 0.23557 0.0
H2337 H 0.55011 0.75192 0.22631 0.0
H2338 H 0.56178 0.73867 0.26183 0.0
H2339 H 0.54341 0.74733 0.27104 0.0
H2340 H 0.51316 0.7502 0.24687 0.0
H2341 H 0.54445 0.77957 0.25832 0.0
H2342 H 0.56367 0.78689 0.26754 0.0
H2343 H 0.55132 0.77404 0.30298 0.0
H2344 H 0.53237 0.76635 0.29363 0.0
H2345 H 0.49584 0.76782 0.2937 0.0
H2346 H 0.4775 0.77645 0.30294 0.0
H2347 H 0.46586 0.78969 0.26741 0.0
H2348 H 0.48426 0.78107 0.25822 0.0
H2349 H 0.5145 0.77822 0.28242 0.0
H2350 H 0.48333 0.7488 0.27109 0.0
H2351 H 0.46408 0.74141 0.26201 0.0
H2352 H 0.47617 0.75421 0.22647 0.0
H2353 H 0.49517 0.76197 0.23569 0.0
C2354 C 0.53625 0.75475 0.25404 0.0
C2355 C 0.53829 0.75581 0.24137 0.0
C2356 C 0.54875 0.7508 0.23608 0.0
C2357 C 0.55743 0.74458 0.24332 0.0
C2358 C 0.55538 0.74354 0.25601 0.0
C2359 C 0.54487 0.7485 0.26129 0.0
C2360 C 0.52492 0.7599 0.25952 0.0
C2361 C 0.51347 0.75646 0.25454 0.0
C2362 C 0.52528 0.76783 0.26975 0.0
C2363 C 0.53701 0.77227 0.27525 0.0
C2364 C 0.54595 0.7782 0.26805 0.0
C2365 C 0.55689 0.7825 0.27336 0.0
C2366 C 0.55907 0.78103 0.28601 0.0
C2367 C 0.55005 0.77515 0.29319 0.0
C2368 C 0.53915 0.77084 0.28787 0.0
C2369 C 0.49142 0.77367 0.27524 0.0
C2370 C 0.48936 0.77261 0.28789 0.0
C2371 C 0.47887 0.77758 0.29317 0.0
C2372 C 0.47019 0.78378 0.28592 0.0
C2373 C 0.47226 0.78484 0.27324 0.0
C2374 C 0.48279 0.7799 0.26797 0.0
C2375 C 0.50275 0.76853 0.26975 0.0
C2376 C 0.51419 0.77196 0.27474 0.0
C2377 C 0.50239 0.76058 0.25954 0.0
C2378 C 0.49065 0.75608 0.2541 0.0
C2379 C 0.48176 0.75015 0.26137 0.0
C2380 C 0.47081 0.74581 0.25614 0.0
C2381 C 0.46855 0.74724 0.2435 0.0
C2382 C 0.47751 0.75312 0.23625 0.0
C2383 C 0.48844 0.75747 0.24149 0.0
H2384 H 0.53092 0.23561 0.27111 0.0
H2385 H 0.54963 0.22652 0.27935 0.0
H2386 H 0.56281 0.2624 0.28991 0.0
H2387 H 0.54405 0.27145 0.28163 0.0
H2388 H 0.51312 0.24765 0.28142 0.0
H2389 H 0.54244 0.25636 0.25028 0.0
H2390 H 0.5614 0.26404 0.24105 0.0
H2391 H 0.5518 0.30088 0.25121 0.0
H2392 H 0.53306 0.29304 0.26086 0.0
H2393 H 0.49478 0.29331 0.26122 0.0
H2394 H 0.47635 0.30164 0.25153 0.0
H2395 H 0.46537 0.2652 0.24046 0.0
H2396 H 0.484 0.25701 0.24979 0.0
H2397 H 0.51369 0.28159 0.25107 0.0
H2398 H 0.48293 0.27144 0.28153 0.0
H2399 H 0.4638 0.26233 0.2892 0.0
H2400 H 0.47621 0.22659 0.27833 0.0
H2401 H 0.49507 0.23579 0.27033 0.0
C2402 C 0.53608 0.25423 0.27564 0.0
C2403 C 0.53781 0.24153 0.27524 0.0
C2404 C 0.54851 0.23633 0.28 0.0
C2405 C 0.55774 0.24372 0.28531 0.0
C2406 C 0.55598 0.25645 0.28573 0.0
C2407 C 0.54524 0.26164 0.281 0.0
C2408 C 0.5246 0.25965 0.2706 0.0
C2409 C 0.51325 0.25499 0.27469 0.0
C2410 C 0.52476 0.26939 0.26196 0.0
C2411 C 0.53637 0.27409 0.25643 0.0
C2412 C 0.54449 0.26607 0.25068 0.0
C2413 C 0.55528 0.27051 0.24527 0.0
C2414 C 0.55815 0.2831 0.24536 0.0
C2415 C 0.54998 0.29112 0.2511 0.0
C2416 C 0.5392 0.28666 0.25654 0.0
C2417 C 0.49075 0.27451 0.25636 0.0
C2418 C 0.48839 0.28711 0.25671 0.0
C2419 C 0.47779 0.29185 0.25124 0.0
C2420 C 0.46934 0.2841 0.24521 0.0
C2421 C 0.47172 0.27147 0.2449 0.0
C2422 C 0.48232 0.26674 0.25036 0.0
C2423 C 0.50221 0.26955 0.26188 0.0
C2424 C 0.51357 0.27431 0.25788 0.0
C2425 C 0.50205 0.25976 0.27045 0.0
C2426 C 0.49041 0.25433 0.27522 0.0
C2427 C 0.48147 0.26166 0.28069 0.0
C2428 C 0.47059 0.25642 0.28518 0.0
C2429 C 0.46843 0.24372 0.28435 0.0
C2430 C 0.47746 0.23642 0.27895 0.0
C2431 C 0.48832 0.24166 0.27447 0.0
H2432 H 0.23581 0.20492 0.12916 0.0
H2433 H 0.19858 0.21282 0.11815 0.0
H2434 H 0.24345 0.21527 0.11087 0.0
H2435 H 0.20627 0.22363 0.10006 0.0
H2436 H 0.22404 0.22894 0.06209 0.0
H2437 H 0.21594 0.2194 0.08065 0.0
H2438 H 0.24584 0.2352 0.10161 0.0
H2439 H 0.25396 0.24471 0.08303 0.0
C2440 C 0.22924 0.20887 0.12284 0.0
C2441 C 0.21656 0.20794 0.12512 0.0
C2442 C 0.23364 0.21496 0.11241 0.0
C2443 C 0.2255 0.2203 0.10395 0.0
C2444 C 0.21281 0.2195 0.10629 0.0
C2445 C 0.20841 0.21342 0.11675 0.0
C2446 C 0.22882 0.2305 0.07068 0.0
C2447 C 0.23968 0.23758 0.07103 0.0
C2448 C 0.22416 0.22502 0.08134 0.0
C2449 C 0.23023 0.22649 0.09266 0.0
C2450 C 0.24102 0.23369 0.09303 0.0
C2451 C 0.24569 0.23915 0.08237 0.0
H2452 H 0.80196 0.19127 0.11746 0.0
H2453 H 0.81423 0.22596 0.13216 0.0
H2454 H 0.79466 0.20157 0.09905 0.0
H2455 H 0.80738 0.23624 0.11346 0.0
H2456 H 0.78082 0.25153 0.08412 0.0
H2457 H 0.78864 0.24173 0.1027 0.0
H2458 H 0.80229 0.21189 0.08104 0.0
H2459 H 0.79442 0.22164 0.06252 0.0
C2460 C 0.80309 0.2011 0.11678 0.0
C2461 C 0.80864 0.20778 0.12634 0.0
C2462 C 0.79905 0.207 0.10613 0.0
C2463 C 0.80046 0.21974 0.10474 0.0
C2464 C 0.80604 0.22643 0.11428 0.0
C2465 C 0.81009 0.22052 0.12494 0.0
C2466 C 0.7856 0.24293 0.08332 0.0
C2467 C 0.78692 0.23733 0.07184 0.0
C2468 C 0.79009 0.23732 0.09397 0.0
C2469 C 0.79604 0.22597 0.09339 0.0
C2470 C 0.79755 0.22049 0.08187 0.0
C2471 C 0.79303 0.22609 0.07124 0.0
H2472 H 0.79136 0.81832 0.13145 0.0
H2473 H 0.82798 0.81877 0.11648 0.0
H2474 H 0.78379 0.80774 0.11329 0.0
H2475 H 0.82039 0.8082 0.09826 0.0
H2476 H 0.80438 0.7795 0.072 0.0
H2477 H 0.81205 0.78892 0.0908 0.0
H2478 H 0.78002 0.81182 0.0919 0.0
H2479 H 0.77214 0.80207 0.07343 0.0
C2480 C 0.79779 0.81623 0.12425 0.0
C2481 C 0.81027 0.81948 0.12542 0.0
C2482 C 0.79345 0.81015 0.11382 0.0
C2483 C 0.80145 0.80717 0.10424 0.0
C2484 C 0.81398 0.81022 0.1055 0.0
C2485 C 0.81834 0.81629 0.11596 0.0
C2486 C 0.7989 0.78644 0.07633 0.0
C2487 C 0.78763 0.79002 0.07116 0.0
C2488 C 0.80338 0.79195 0.08705 0.0
C2489 C 0.79668 0.80115 0.0929 0.0
C2490 C 0.78538 0.80467 0.08775 0.0
C2491 C 0.78091 0.79918 0.07705 0.0
H2492 H 0.23421 0.81153 0.13414 0.0
H2493 H 0.20105 0.82208 0.11519 0.0
H2494 H 0.24142 0.80154 0.11563 0.0
H2495 H 0.2081 0.81177 0.09678 0.0
H2496 H 0.23176 0.80554 0.06255 0.0
H2497 H 0.22391 0.8147 0.08121 0.0
H2498 H 0.23731 0.78404 0.10231 0.0
H2499 H 0.2455 0.77503 0.08366 0.0
C2500 C 0.22844 0.81169 0.12603 0.0
C2501 C 0.21707 0.81766 0.12615 0.0
C2502 C 0.23252 0.80584 0.11545 0.0
C2503 C 0.22536 0.80587 0.10469 0.0
C2504 C 0.21391 0.81169 0.10486 0.0
C2505 C 0.2098 0.81749 0.11546 0.0
C2506 C 0.2331 0.80078 0.07117 0.0
C2507 C 0.23931 0.78957 0.0716 0.0
C2508 C 0.22847 0.80597 0.08186 0.0
C2509 C 0.22996 0.80011 0.09327 0.0
C2510 C 0.23609 0.78885 0.0937 0.0
C2511 C 0.24068 0.78363 0.08299 0.0
H2512 H 0.21348 0.80292 0.89964 0.0
H2513 H 0.22514 0.83778 0.91442 0.0
H2514 H 0.22099 0.79267 0.9181 0.0
H2515 H 0.23267 0.82754 0.9328 0.0
H2516 H 0.25688 0.80401 0.9575 0.0
H2517 H 0.24912 0.81384 0.93898 0.0
H2518 H 0.21682 0.79058 0.94011 0.0
H2519 H 0.22457 0.78076 0.9587 0.0
C2520 C 0.21754 0.80842 0.90686 0.0
C2521 C 0.21876 0.82118 0.9055 0.0
C2522 C 0.22186 0.80253 0.91745 0.0
C2523 C 0.2275 0.80927 0.92691 0.0
C2524 C 0.22859 0.82204 0.92559 0.0
C2525 C 0.22427 0.82792 0.91504 0.0
C2526 C 0.24808 0.80105 0.95387 0.0
C2527 C 0.24133 0.79162 0.95964 0.0
C2528 C 0.24363 0.80669 0.94324 0.0
C2529 C 0.23232 0.80305 0.93808 0.0
C2530 C 0.22563 0.79352 0.94375 0.0
C2531 C 0.23008 0.78788 0.95441 0.0
H2532 H 0.19095 0.2205 0.91496 0.0
H2533 H 0.22574 0.21042 0.89938 0.0
H2534 H 0.20145 0.22797 0.9332 0.0
H2535 H 0.23625 0.21747 0.91791 0.0
H2536 H 0.25134 0.24459 0.94697 0.0
H2537 H 0.24147 0.23625 0.92865 0.0
H2538 H 0.21242 0.22096 0.95099 0.0
H2539 H 0.22224 0.22935 0.96924 0.0
C2540 C 0.20085 0.21987 0.91542 0.0
C2541 C 0.20749 0.21492 0.90563 0.0
C2542 C 0.20688 0.22402 0.92597 0.0
C2543 C 0.21972 0.22332 0.92708 0.0
C2544 C 0.22637 0.21827 0.91734 0.0
C2545 C 0.22032 0.2141 0.90676 0.0
C2546 C 0.24291 0.23934 0.94798 0.0
C2547 C 0.23754 0.23773 0.95958 0.0
C2548 C 0.23725 0.23454 0.93747 0.0
C2549 C 0.22609 0.22798 0.9383 0.0
C2550 C 0.22087 0.22617 0.94995 0.0
C2551 C 0.2265 0.23099 0.96043 0.0
H2552 H 0.80247 0.221 0.8979 0.0
H2553 H 0.83394 0.2122 0.92035 0.0
H2554 H 0.79178 0.22839 0.91599 0.0
H2555 H 0.82342 0.21989 0.93835 0.0
H2556 H 0.7966 0.2235 0.97003 0.0
H2557 H 0.80622 0.21508 0.95185 0.0
H2558 H 0.79301 0.24556 0.93034 0.0
H2559 H 0.78306 0.25379 0.94847 0.0
C2560 C 0.80708 0.22057 0.9067 0.0
C2561 C 0.81907 0.21602 0.90766 0.0
C2562 C 0.80101 0.22493 0.91705 0.0
C2563 C 0.80675 0.22477 0.92863 0.0
C2564 C 0.81867 0.22006 0.9296 0.0
C2565 C 0.82476 0.21576 0.91925 0.0
C2566 C 0.79561 0.22833 0.9614 0.0
C2567 C 0.78905 0.23933 0.96072 0.0
C2568 C 0.80125 0.22357 0.95099 0.0
C2569 C 0.80043 0.22966 0.93963 0.0
C2570 C 0.79374 0.24057 0.93892 0.0
C2571 C 0.78815 0.24537 0.94934 0.0
H2572 H 0.79453 0.81213 0.89634 0.0
H2573 H 0.82809 0.82238 0.91505 0.0
H2574 H 0.78716 0.80202 0.91492 0.0
H2575 H 0.82087 0.81194 0.93354 0.0
H2576 H 0.79741 0.80529 0.96799 0.0
H2577 H 0.80537 0.81465 0.94928 0.0
H2578 H 0.79074 0.78443 0.92822 0.0
H2579 H 0.78242 0.77526 0.94691 0.0
C2580 C 0.80036 0.8122 0.90441 0.0
C2581 C 0.81188 0.81813 0.9042 0.0
C2582 C 0.79618 0.80628 0.91503 0.0
C2583 C 0.8034 0.80617 0.92576 0.0
C2584 C 0.81501 0.81196 0.9255 0.0
C2585 C 0.81921 0.81783 0.91485 0.0
C2586 C 0.79581 0.80067 0.95937 0.0
C2587 C 0.78921 0.78954 0.95898 0.0
C2588 C 0.80051 0.80597 0.94864 0.0
C2589 C 0.79871 0.8003 0.93722 0.0
C2590 C 0.7922 0.78912 0.93684 0.0
C2591 C 0.78753 0.78379 0.94758 0.0
H2592 H 0.13079 0.23657 0.21154 0.0
H2593 H 0.11433 0.20044 0.21063 0.0
H2594 H 0.11267 0.24434 0.22174 0.0
H2595 H 0.09615 0.20823 0.22083 0.0
H2596 H 0.06985 0.2243 0.24905 0.0
H2597 H 0.08856 0.21636 0.23998 0.0
H2598 H 0.0915 0.24869 0.21718 0.0
H2599 H 0.07311 0.25683 0.22658 0.0
C2600 C 0.12328 0.23028 0.21346 0.0
C2601 C 0.12402 0.21788 0.21018 0.0
C2602 C 0.11286 0.23475 0.21931 0.0
C2603 C 0.10288 0.22695 0.22205 0.0
C2604 C 0.10371 0.21449 0.21899 0.0
C2605 C 0.11415 0.21001 0.21314 0.0
C2606 C 0.07457 0.22978 0.24221 0.0
C2607 C 0.06994 0.24122 0.23856 0.0
C2608 C 0.08523 0.22516 0.2369 0.0
C2609 C 0.09157 0.23187 0.22783 0.0
C2610 C 0.08696 0.24332 0.22424 0.0
C2611 C 0.07631 0.24793 0.22952 0.0
H2612 H 0.83683 0.11316 0.22071 0.0
H2613 H 0.80207 0.13165 0.21842 0.0
H2614 H 0.82641 0.09472 0.22806 0.0
H2615 H 0.79162 0.11319 0.22583 0.0
H2616 H 0.77597 0.07403 0.22815 0.0
H2617 H 0.78623 0.09233 0.22013 0.0
H2618 H 0.81586 0.08727 0.24607 0.0
H2619 H 0.80587 0.06873 0.25372 0.0
C2620 C 0.82697 0.11332 0.22186 0.0
C2621 C 0.8203 0.12391 0.21903 0.0
C2622 C 0.82099 0.10274 0.22609 0.0
C2623 C 0.80818 0.10247 0.22761 0.0
C2624 C 0.80148 0.11302 0.22462 0.0
C2625 C 0.80747 0.12361 0.22037 0.0
C2626 C 0.78473 0.07676 0.23207 0.0
C2627 C 0.79009 0.06988 0.24158 0.0
C2628 C 0.79055 0.08734 0.22756 0.0
C2629 C 0.80189 0.09128 0.23244 0.0
C2630 C 0.80721 0.08442 0.24198 0.0
C2631 C 0.8014 0.07387 0.24649 0.0
H2632 H 0.90004 0.79266 0.20652 0.0
H2633 H 0.91037 0.82979 0.21566 0.0
H2634 H 0.91817 0.78518 0.21715 0.0
H2635 H 0.92828 0.82225 0.22677 0.0
H2636 H 0.96638 0.80511 0.23274 0.0
H2637 H 0.94796 0.8131 0.22292 0.0
H2638 H 0.9269 0.78252 0.23723 0.0
H2639 H 0.94535 0.77451 0.24698 0.0
C2640 C 0.90617 0.79924 0.21081 0.0
C2641 C 0.90375 0.81185 0.21015 0.0
C2642 C 0.91651 0.79493 0.21706 0.0
C2643 C 0.92472 0.80309 0.22285 0.0
C2644 C 0.92224 0.8157 0.22231 0.0
C2645 C 0.91188 0.82002 0.21605 0.0
C2646 C 0.9578 0.80016 0.23391 0.0
C2647 C 0.95738 0.78913 0.24062 0.0
C2648 C 0.94721 0.80475 0.22828 0.0
C2649 C 0.93592 0.79845 0.22924 0.0
C2650 C 0.93547 0.78752 0.23611 0.0
C2651 C 0.94606 0.78291 0.24171 0.0
H2652 H 0.21206 0.89603 0.2379 0.0
H2653 H 0.2104 0.91199 0.20164 0.0
H2654 H 0.22239 0.91439 0.24548 0.0
H2655 H 0.22073 0.93041 0.20924 0.0
H2656 H 0.24904 0.95748 0.225 0.0
H2657 H 0.24007 0.93844 0.21726 0.0
H2658 H 0.21757 0.93547 0.24964 0.0
H2659 H 0.22685 0.9542 0.25757 0.0
C2660 C 0.21385 0.90348 0.23155 0.0
C2661 C 0.21032 0.90255 0.21917 0.0
C2662 C 0.21977 0.91402 0.2359 0.0
C2663 C 0.22232 0.92394 0.228 0.0
C2664 C 0.21904 0.9229 0.21556 0.0
C2665 C 0.21311 0.91234 0.21119 0.0
C2666 C 0.24228 0.95268 0.23053 0.0
C2667 C 0.23866 0.9574 0.24191 0.0
C2668 C 0.23704 0.94183 0.22603 0.0
C2669 C 0.22808 0.9354 0.23281 0.0
C2670 C 0.22454 0.94008 0.24423 0.0
C2671 C 0.22976 0.95093 0.24871 0.0
H2672 H 0.11568 0.80265 0.83851 0.0
H2673 H 0.13063 0.81498 0.80393 0.0
H2674 H 0.09729 0.79529 0.82804 0.0
H2675 H 0.11195 0.80806 0.79349 0.0
H2676 H 0.08258 0.78151 0.77783 0.0
H2677 H 0.10116 0.78935 0.78781 0.0
H2678 H 0.07932 0.80284 0.81767 0.0
H2679 H 0.06082 0.79494 0.80775 0.0
C2680 C 0.11506 0.80378 0.82867 0.0
C2681 C 0.12468 0.80937 0.82207 0.0
C2682 C 0.10442 0.7997 0.82267 0.0
C2683 C 0.1031 0.80111 0.80992 0.0
C2684 C 0.11271 0.80672 0.80331 0.0
C2685 C 0.12336 0.81082 0.80931 0.0
C2686 C 0.08175 0.78625 0.78647 0.0
C2687 C 0.07022 0.78753 0.79203 0.0
C2688 C 0.0924 0.79076 0.79219 0.0
C2689 C 0.09176 0.79667 0.80359 0.0
C2690 C 0.0802 0.79812 0.80903 0.0
C2691 C 0.06957 0.79359 0.80333 0.0
H2692 H 0.19981 0.11221 0.82334 0.0
H2693 H 0.23328 0.13132 0.8135 0.0
H2694 H 0.20707 0.09391 0.81306 0.0
H2695 H 0.24071 0.11292 0.80357 0.0
H2696 H 0.2456 0.08128 0.77697 0.0
H2697 H 0.23721 0.09977 0.78598 0.0
H2698 H 0.22258 0.07829 0.81599 0.0
H2699 H 0.2306 0.05977 0.80678 0.0
C2700 C 0.20868 0.11254 0.81892 0.0
C2701 C 0.21596 0.12325 0.81929 0.0
C2702 C 0.21291 0.10199 0.81314 0.0
C2703 C 0.22451 0.1019 0.80752 0.0
C2704 C 0.23169 0.11267 0.8077 0.0
C2705 C 0.22749 0.1232 0.81352 0.0
C2706 C 0.24047 0.08048 0.78541 0.0
C2707 C 0.2388 0.06902 0.79115 0.0
C2708 C 0.23577 0.09111 0.79065 0.0
C2709 C 0.22923 0.09055 0.80174 0.0
C2710 C 0.22745 0.07907 0.80739 0.0
C2711 C 0.23219 0.06845 0.80218 0.0
H2712 H 0.89862 0.20647 0.79387 0.0
H2713 H 0.90957 0.21452 0.83109 0.0
H2714 H 0.91698 0.21689 0.78632 0.0
H2715 H 0.92794 0.22504 0.8235 0.0
H2716 H 0.95357 0.25293 0.80401 0.0
H2717 H 0.9349 0.24319 0.81188 0.0
H2718 H 0.93909 0.21366 0.78618 0.0
H2719 H 0.95776 0.22328 0.77839 0.0
C2720 C 0.90497 0.2104 0.80046 0.0
C2721 C 0.90263 0.20955 0.81311 0.0
C2722 C 0.91551 0.21639 0.79612 0.0
C2723 C 0.924 0.22173 0.8043 0.0
C2724 C 0.92154 0.22113 0.81694 0.0
C2725 C 0.91099 0.2151 0.82129 0.0
C2726 C 0.95057 0.2443 0.80011 0.0
C2727 C 0.95717 0.23893 0.79051 0.0
C2728 C 0.93985 0.23873 0.80462 0.0
C2729 C 0.93545 0.22767 0.79963 0.0
C2730 C 0.94208 0.22228 0.79008 0.0
C2731 C 0.9528 0.22783 0.7856 0.0
H2732 H 0.80257 0.89892 0.81691 0.0
H2733 H 0.83747 0.9148 0.80638 0.0
H2734 H 0.79222 0.91745 0.81 0.0
H2735 H 0.82712 0.93304 0.79902 0.0
H2736 H 0.80664 0.96894 0.79784 0.0
H2737 H 0.81642 0.95069 0.80604 0.0
H2738 H 0.78694 0.92833 0.79135 0.0
H2739 H 0.77711 0.94664 0.78321 0.0
C2740 C 0.80805 0.90637 0.81317 0.0
C2741 C 0.82087 0.90532 0.81219 0.0
C2742 C 0.8021 0.91695 0.80906 0.0
C2743 C 0.80881 0.92677 0.80391 0.0
C2744 C 0.82164 0.92574 0.80305 0.0
C2745 C 0.82758 0.91519 0.80714 0.0
C2746 C 0.80227 0.96013 0.7963 0.0
C2747 C 0.79111 0.95927 0.7898 0.0
C2748 C 0.80789 0.94964 0.801 0.0
C2749 C 0.80253 0.93799 0.79932 0.0
C2750 C 0.79127 0.93715 0.79297 0.0
C2751 C 0.78563 0.94766 0.78828 0.0
H2752 H 0.22439 0.12917 0.21349 0.0
H2753 H 0.18951 0.11339 0.22423 0.0
H2754 H 0.23483 0.111 0.2212 0.0
H2755 H 0.19992 0.09531 0.23196 0.0
H2756 H 0.2234 0.07129 0.25686 0.0
H2757 H 0.21341 0.08944 0.24872 0.0
H2758 H 0.23747 0.08912 0.21739 0.0
H2759 H 0.24744 0.07088 0.22552 0.0
C2760 C 0.21893 0.12179 0.21737 0.0
C2761 C 0.2061 0.12281 0.2183 0.0
C2762 C 0.22492 0.11136 0.22181 0.0
C2763 C 0.21824 0.10171 0.22729 0.0
C2764 C 0.2054 0.10266 0.22803 0.0
C2765 C 0.19942 0.11305 0.22359 0.0
C2766 C 0.2265 0.07501 0.24818 0.0
C2767 C 0.2362 0.06954 0.24183 0.0
C2768 C 0.22077 0.08544 0.24351 0.0
C2769 C 0.22457 0.09073 0.23235 0.0
C2770 C 0.23438 0.08538 0.22607 0.0
C2771 C 0.24011 0.07492 0.23074 0.0
H2772 H 0.22537 0.89614 0.81248 0.0
H2773 H 0.19067 0.91476 0.81025 0.0
H2774 H 0.23584 0.91449 0.80482 0.0
H2775 H 0.20111 0.93309 0.80264 0.0
H2776 H 0.22153 0.95867 0.77651 0.0
H2777 H 0.21156 0.94024 0.78444 0.0
H2778 H 0.24134 0.93542 0.81025 0.0
H2779 H 0.25158 0.95363 0.80196 0.0
C2780 C 0.21999 0.90419 0.81048 0.0
C2781 C 0.20717 0.90396 0.81192 0.0
C2782 C 0.226 0.91472 0.80609 0.0
C2783 C 0.21932 0.92526 0.80304 0.0
C2784 C 0.20652 0.92506 0.80466 0.0
C2785 C 0.20053 0.91455 0.80903 0.0
C2786 C 0.22604 0.95361 0.78377 0.0
C2787 C 0.23738 0.95763 0.78857 0.0
C2788 C 0.22024 0.94312 0.78844 0.0
C2789 C 0.22561 0.93637 0.79803 0.0
C2790 C 0.23699 0.94034 0.80279 0.0
C2791 C 0.2428 0.95086 0.79813 0.0
H2792 H 0.12583 0.20429 0.79285 0.0
H2793 H 0.11685 0.21324 0.83022 0.0
H2794 H 0.10764 0.21495 0.78569 0.0
H2795 H 0.09889 0.22438 0.82301 0.0
H2796 H 0.0604 0.23068 0.80647 0.0
H2797 H 0.07884 0.22068 0.81411 0.0
H2798 H 0.09925 0.23506 0.78329 0.0
H2799 H 0.08079 0.24499 0.77562 0.0
C2800 C 0.11998 0.20854 0.79955 0.0
C2801 C 0.1228 0.20782 0.81213 0.0
C2802 C 0.10961 0.2148 0.79543 0.0
C2803 C 0.10176 0.22056 0.80375 0.0
C2804 C 0.10464 0.21995 0.81633 0.0
C2805 C 0.11503 0.21368 0.82047 0.0
C2806 C 0.06885 0.23182 0.80139 0.0
C2807 C 0.06908 0.23861 0.7904 0.0
C2808 C 0.07945 0.22609 0.80578 0.0
C2809 C 0.09056 0.22701 0.79931 0.0
C2810 C 0.09082 0.23395 0.7884 0.0
C2811 C 0.08022 0.23966 0.784 0.0
H2812 H 0.81456 0.11068 0.83738 0.0
H2813 H 0.806 0.13317 0.80588 0.0
H2814 H 0.80696 0.09264 0.82656 0.0
H2815 H 0.79871 0.11504 0.79491 0.0
H2816 H 0.7735 0.08213 0.78523 0.0
H2817 H 0.78153 0.10032 0.79556 0.0
H2818 H 0.81206 0.07942 0.80942 0.0
H2819 H 0.80385 0.06117 0.79942 0.0
C2820 C 0.81106 0.11177 0.82814 0.0
C2821 C 0.81085 0.12339 0.82252 0.0
C2822 C 0.80682 0.1014 0.82188 0.0
C2823 C 0.80222 0.10238 0.80986 0.0
C2824 C 0.80208 0.11398 0.8042 0.0
C2825 C 0.80638 0.12435 0.81044 0.0
C2826 C 0.78189 0.0814 0.79054 0.0
C2827 C 0.78801 0.07017 0.79152 0.0
C2828 C 0.78657 0.09187 0.79635 0.0
C2829 C 0.79744 0.09134 0.80333 0.0
C2830 C 0.8036 0.08013 0.80423 0.0
C2831 C 0.79896 0.06969 0.79838 0.0
H2832 H 0.91338 0.82812 0.81846 0.0
H2833 H 0.89732 0.79183 0.81741 0.0
H2834 H 0.9317 0.82054 0.80833 0.0
H2835 H 0.91558 0.78427 0.80729 0.0
H2836 H 0.95529 0.77219 0.80279 0.0
H2837 H 0.93678 0.78017 0.81208 0.0
H2838 H 0.93948 0.81246 0.78918 0.0
H2839 H 0.9583 0.80466 0.7802 0.0
C2840 C 0.91369 0.81856 0.81594 0.0
C2841 C 0.90389 0.81058 0.81885 0.0
C2842 C 0.9242 0.81421 0.81012 0.0
C2843 C 0.92518 0.80176 0.80706 0.0
C2844 C 0.91527 0.79385 0.80974 0.0
C2845 C 0.90478 0.7982 0.81554 0.0
C2846 C 0.95201 0.78105 0.7998 0.0
C2847 C 0.95834 0.78779 0.79076 0.0
C2848 C 0.94129 0.78557 0.80502 0.0
C2849 C 0.93658 0.79696 0.80136 0.0
C2850 C 0.94289 0.8037 0.7923 0.0
C2851 C 0.95362 0.79917 0.78705 0.0
H2852 H 0.81475 0.91174 0.20007 0.0
H2853 H 0.82337 0.90115 0.2373 0.0
H2854 H 0.80434 0.92986 0.20762 0.0
H2855 H 0.81302 0.91923 0.24482 0.0
H2856 H 0.80613 0.95953 0.25298 0.0
H2857 H 0.81589 0.94124 0.24518 0.0
H2858 H 0.78637 0.93649 0.21902 0.0
H2859 H 0.77655 0.9548 0.22686 0.0
C2860 C 0.81432 0.9132 0.20987 0.0
C2861 C 0.81999 0.905 0.21806 0.0
C2862 C 0.80835 0.9236 0.2142 0.0
C2863 C 0.80791 0.92607 0.22683 0.0
C2864 C 0.81339 0.91776 0.23502 0.0
C2865 C 0.81934 0.90738 0.2307 0.0
C2866 C 0.80163 0.95453 0.24565 0.0
C2867 C 0.7905 0.95865 0.2406 0.0
C2868 C 0.80725 0.94402 0.24117 0.0
C2869 C 0.80191 0.93733 0.23149 0.0
C2870 C 0.79082 0.94149 0.22637 0.0
C2871 C 0.78519 0.952 0.23087 0.0
H2872 H 0.13218 0.8074 0.22609 0.0
H2873 H 0.10983 0.8161 0.1945 0.0
H2874 H 0.11393 0.80013 0.23695 0.0
H2875 H 0.09166 0.80853 0.20521 0.0
H2876 H 0.05991 0.80514 0.23219 0.0
H2877 H 0.07826 0.81346 0.22232 0.0
H2878 H 0.09924 0.78299 0.2361 0.0
H2879 H 0.08097 0.77486 0.24628 0.0
C2880 C 0.12337 0.80783 0.22148 0.0
C2881 C 0.12248 0.81232 0.20941 0.0
C2882 C 0.11292 0.80354 0.22766 0.0
C2883 C 0.10132 0.80371 0.22194 0.0
C2884 C 0.10042 0.80836 0.20993 0.0
C2885 C 0.11087 0.81259 0.20374 0.0
C2886 C 0.06847 0.80029 0.23324 0.0
C2887 C 0.06896 0.78932 0.24003 0.0
C2888 C 0.07896 0.80499 0.22747 0.0
C2889 C 0.09023 0.79888 0.22838 0.0
C2890 C 0.09075 0.78799 0.23529 0.0
C2891 C 0.08024 0.78326 0.24102 0.0
H2892 H 0.91189 0.22543 0.19186 0.0
H2893 H 0.89756 0.21323 0.22674 0.0
H2894 H 0.93044 0.23288 0.20198 0.0
H2895 H 0.91639 0.22024 0.23683 0.0
H2896 H 0.94581 0.24702 0.25191 0.0
H2897 H 0.92714 0.23906 0.24223 0.0
H2898 H 0.94862 0.22552 0.21213 0.0
H2899 H 0.96723 0.23354 0.22176 0.0
C2900 C 0.91269 0.22434 0.2017 0.0
C2901 C 0.90319 0.21878 0.20848 0.0
C2902 C 0.92341 0.22848 0.20749 0.0
C2903 C 0.92494 0.22714 0.22023 0.0
C2904 C 0.91547 0.22153 0.22703 0.0
C2905 C 0.90473 0.21738 0.22122 0.0
C2906 C 0.94655 0.24224 0.24328 0.0
C2907 C 0.95801 0.24098 0.23757 0.0
C2908 C 0.93585 0.23766 0.23773 0.0
C2909 C 0.93635 0.23169 0.22636 0.0
C2910 C 0.94785 0.23027 0.22076 0.0
C2911 C 0.95853 0.23487 0.22629 0.0
H2912 H 0.19905 0.71253 0.61797 0.0
H2913 H 0.23627 0.70457 0.62896 0.0
H2914 H 0.20673 0.7232 0.5998 0.0
H2915 H 0.24391 0.71476 0.61058 0.0
H2916 H 0.25449 0.74392 0.58248 0.0
H2917 H 0.24639 0.73457 0.60115 0.0
H2918 H 0.2163 0.71884 0.58041 0.0
H2919 H 0.22437 0.72824 0.56176 0.0
C2920 C 0.20887 0.71309 0.61655 0.0
C2921 C 0.21702 0.70764 0.62494 0.0
C2922 C 0.21328 0.71909 0.60604 0.0
C2923 C 0.22596 0.71982 0.60367 0.0
C2924 C 0.2341 0.7145 0.61215 0.0
C2925 C 0.2297 0.7085 0.62263 0.0
C2926 C 0.24618 0.73841 0.58189 0.0
C2927 C 0.24011 0.73682 0.57059 0.0
C2928 C 0.24153 0.73304 0.59261 0.0
C2929 C 0.23069 0.72591 0.59232 0.0
C2930 C 0.22456 0.72442 0.58103 0.0
C2931 C 0.2292 0.72981 0.57032 0.0
H2932 H 0.82569 0.70623 0.61605 0.0
H2933 H 0.79162 0.71476 0.63398 0.0
H2934 H 0.81856 0.71656 0.59748 0.0
H2935 H 0.78436 0.72482 0.61532 0.0
H2936 H 0.78024 0.75208 0.58354 0.0
H2937 H 0.78834 0.74296 0.60236 0.0
H2938 H 0.80296 0.71307 0.58145 0.0
H2939 H 0.79514 0.72234 0.56263 0.0
C2940 C 0.81672 0.71039 0.61605 0.0
C2941 C 0.80922 0.70965 0.62649 0.0
C2942 C 0.81258 0.71619 0.60537 0.0
C2943 C 0.80087 0.72148 0.6049 0.0
C2944 C 0.79346 0.72093 0.61541 0.0
C2945 C 0.79757 0.71506 0.62606 0.0
C2946 C 0.78529 0.74363 0.58296 0.0
C2947 C 0.78702 0.73792 0.57159 0.0
C2948 C 0.78983 0.73834 0.59375 0.0
C2949 C 0.79628 0.72728 0.59341 0.0
C2950 C 0.79813 0.72165 0.58202 0.0
C2951 C 0.79353 0.7269 0.57125 0.0
H2952 H 0.81655 0.30289 0.63005 0.0
H2953 H 0.8043 0.33729 0.61493 0.0
H2954 H 0.80891 0.29231 0.61183 0.0
H2955 H 0.79664 0.32674 0.59681 0.0
H2956 H 0.77215 0.30259 0.57285 0.0
H2957 H 0.78021 0.31262 0.5911 0.0
H2958 H 0.81248 0.2901 0.58976 0.0
H2959 H 0.80444 0.28008 0.5714 0.0
C2960 C 0.81234 0.30822 0.62281 0.0
C2961 C 0.81097 0.32094 0.62403 0.0
C2962 C 0.80795 0.30215 0.61235 0.0
C2963 C 0.80206 0.30865 0.60288 0.0
C2964 C 0.80088 0.3214 0.60403 0.0
C2965 C 0.80528 0.32745 0.61445 0.0
C2966 C 0.78101 0.29983 0.57637 0.0
C2967 C 0.78766 0.29056 0.57057 0.0
C2968 C 0.78564 0.30559 0.58686 0.0
C2969 C 0.79704 0.30223 0.59188 0.0
C2970 C 0.80362 0.29283 0.58622 0.0
C2971 C 0.79899 0.28707 0.57569 0.0
H2972 H 0.21173 0.30138 0.63069 0.0
H2973 H 0.22502 0.33599 0.61639 0.0
H2974 H 0.21927 0.29109 0.61243 0.0
H2975 H 0.23257 0.32573 0.59823 0.0
H2976 H 0.25652 0.30195 0.57422 0.0
H2977 H 0.24864 0.31165 0.59257 0.0
H2978 H 0.21577 0.2893 0.59029 0.0
H2979 H 0.22364 0.2796 0.57186 0.0
C2980 C 0.21615 0.30682 0.62361 0.0
C2981 C 0.21784 0.31951 0.62507 0.0
C2982 C 0.22049 0.30091 0.61315 0.0
C2983 C 0.22662 0.30756 0.6039 0.0
C2984 C 0.22812 0.32027 0.60529 0.0
C2985 C 0.22379 0.32617 0.61571 0.0
C2986 C 0.24757 0.29916 0.57756 0.0
C2987 C 0.24069 0.29004 0.57149 0.0
C2988 C 0.24305 0.30472 0.5881 0.0
C2989 C 0.23153 0.30132 0.59287 0.0
C2990 C 0.22473 0.29206 0.58694 0.0
C2991 C 0.22925 0.28649 0.57637 0.0
H2992 H 0.22489 0.33689 0.41416 0.0
H2993 H 0.21335 0.30207 0.39923 0.0
H2994 H 0.23219 0.32663 0.43261 0.0
H2995 H 0.22021 0.29183 0.41795 0.0
H2996 H 0.24684 0.27689 0.4474 0.0
H2997 H 0.23902 0.28667 0.42881 0.0
H2998 H 0.22454 0.31607 0.45052 0.0
H2999 H 0.23239 0.30634 0.46906 0.0
C3000 C 0.22392 0.32704 0.41481 0.0
C3001 C 0.21858 0.32031 0.40517 0.0
C3002 C 0.22796 0.32116 0.42547 0.0
C3003 C 0.22676 0.3084 0.4268 0.0
C3004 C 0.22138 0.30166 0.41719 0.0
C3005 C 0.21732 0.30754 0.40651 0.0
C3006 C 0.24188 0.28538 0.44821 0.0
C3007 C 0.24031 0.29087 0.45972 0.0
C3008 C 0.23739 0.29098 0.43755 0.0
C3009 C 0.2312 0.30219 0.43815 0.0
C3010 C 0.22947 0.30756 0.44969 0.0
C3011 C 0.23397 0.30198 0.46032 0.0
H3012 H 0.22548 0.7104 0.39884 0.0
H3013 H 0.19062 0.72036 0.41437 0.0
H3014 H 0.236 0.71812 0.41711 0.0
H3015 H 0.20111 0.7281 0.43253 0.0
H3016 H 0.22443 0.7534 0.45645 0.0
H3017 H 0.21447 0.74514 0.43822 0.0
H3018 H 0.23884 0.71426 0.43915 0.0
H3019 H 0.2488 0.7225 0.45748 0.0
C3020 C 0.22005 0.71411 0.40619 0.0
C3021 C 0.2072 0.71483 0.40506 0.0
C3022 C 0.22608 0.71855 0.41666 0.0
C3023 C 0.21942 0.72384 0.42626 0.0
C3024 C 0.20656 0.72433 0.42522 0.0
C3025 C 0.20054 0.71989 0.41478 0.0
C3026 C 0.22761 0.7448 0.45285 0.0
C3027 C 0.23738 0.73859 0.45852 0.0
C3028 C 0.22189 0.74005 0.44238 0.0
C3029 C 0.22579 0.72898 0.43725 0.0
C3030 C 0.23569 0.72287 0.44278 0.0
C3031 C 0.2414 0.72761 0.45329 0.0
H3032 H 0.82233 0.7369 0.40262 0.0
H3033 H 0.81263 0.69971 0.41249 0.0
H3034 H 0.81193 0.74428 0.42077 0.0
H3035 H 0.80174 0.70714 0.43041 0.0
H3036 H 0.7963 0.72402 0.4686 0.0
H3037 H 0.80594 0.7162 0.45017 0.0
H3038 H 0.79187 0.74683 0.42943 0.0
H3039 H 0.78229 0.75468 0.4479 0.0
C3040 C 0.81797 0.73028 0.40866 0.0
C3041 C 0.8184 0.71769 0.4061 0.0
C3042 C 0.81185 0.73454 0.419 0.0
C3043 C 0.80597 0.72632 0.42709 0.0
C3044 C 0.80628 0.71373 0.42447 0.0
C3045 C 0.81241 0.70947 0.41411 0.0
C3046 C 0.79514 0.72902 0.46008 0.0
C3047 C 0.78855 0.74 0.45975 0.0
C3048 C 0.80067 0.72452 0.44949 0.0
C3049 C 0.79973 0.73089 0.43829 0.0
C3050 C 0.79298 0.74179 0.43793 0.0
C3051 C 0.78748 0.7463 0.44853 0.0
H3052 H 0.82843 0.31827 0.41309 0.0
H3053 H 0.79187 0.31779 0.39762 0.0
H3054 H 0.82075 0.30785 0.43141 0.0
H3055 H 0.78421 0.30737 0.41587 0.0
H3056 H 0.77234 0.30202 0.45566 0.0
H3057 H 0.78036 0.31164 0.43713 0.0
H3058 H 0.81232 0.28866 0.43913 0.0
H3059 H 0.80451 0.27936 0.45798 0.0
C3060 C 0.81879 0.31581 0.41353 0.0
C3061 C 0.81077 0.31896 0.40389 0.0
C3062 C 0.81437 0.30983 0.42404 0.0
C3063 C 0.80183 0.30683 0.42519 0.0
C3064 C 0.79387 0.30976 0.41544 0.0
C3065 C 0.79827 0.31574 0.40495 0.0
C3066 C 0.78114 0.29909 0.45222 0.0
C3067 C 0.78778 0.28993 0.45837 0.0
C3068 C 0.78567 0.3045 0.44149 0.0
C3069 C 0.79699 0.30092 0.43658 0.0
C3070 C 0.80363 0.29174 0.4427 0.0
C3071 C 0.79908 0.2863 0.45344 0.0
H3072 H 0.12846 0.71128 0.72622 0.0
H3073 H 0.11398 0.7237 0.69144 0.0
H3074 H 0.11037 0.71918 0.73653 0.0
H3075 H 0.09599 0.73162 0.70174 0.0
H3076 H 0.0726 0.75643 0.72536 0.0
H3077 H 0.09067 0.74809 0.71555 0.0
H3078 H 0.08815 0.71597 0.73868 0.0
H3079 H 0.06998 0.72429 0.74847 0.0
C3080 C 0.12138 0.71558 0.72075 0.0
C3081 C 0.12275 0.71692 0.70799 0.0
C3082 C 0.111 0.72013 0.72667 0.0
C3083 C 0.10175 0.72614 0.71999 0.0
C3084 C 0.10305 0.72728 0.70722 0.0
C3085 C 0.11338 0.72273 0.7013 0.0
C3086 C 0.07581 0.74754 0.7283 0.0
C3087 C 0.06974 0.74102 0.73768 0.0
C3088 C 0.0862 0.74275 0.72266 0.0
C3089 C 0.09084 0.73131 0.72626 0.0
C3090 C 0.08491 0.72486 0.73576 0.0
C3091 C 0.07448 0.72965 0.74139 0.0
H3092 H 0.83664 0.61273 0.71938 0.0
H3093 H 0.802 0.63152 0.71791 0.0
H3094 H 0.82623 0.59434 0.72686 0.0
H3095 H 0.79156 0.6131 0.72545 0.0
H3096 H 0.77568 0.57402 0.72817 0.0
H3097 H 0.78589 0.59224 0.71987 0.0
H3098 H 0.81603 0.58705 0.74517 0.0
H3099 H 0.80608 0.56862 0.75311 0.0
C3100 C 0.82681 0.61296 0.72073 0.0
C3101 C 0.82017 0.62363 0.71811 0.0
C3102 C 0.82083 0.60241 0.72503 0.0
C3103 C 0.80806 0.60225 0.72684 0.0
C3104 C 0.80138 0.61286 0.72403 0.0
C3105 C 0.80737 0.62342 0.71971 0.0
C3106 C 0.78454 0.57671 0.73189 0.0
C3107 C 0.79006 0.56983 0.74131 0.0
C3108 C 0.79033 0.58723 0.72722 0.0
C3109 C 0.8018 0.59111 0.73183 0.0
C3110 C 0.80728 0.58426 0.74129 0.0
C3111 C 0.80149 0.57376 0.74596 0.0
H3112 H 0.91213 0.32907 0.712 0.0
H3113 H 0.89642 0.2926 0.71235 0.0
H3114 H 0.93037 0.32147 0.72254 0.0
H3115 H 0.91461 0.28503 0.72286 0.0
H3116 H 0.95451 0.27339 0.72797 0.0
H3117 H 0.93596 0.28132 0.71843 0.0
H3118 H 0.9379 0.31301 0.74187 0.0
H3119 H 0.95675 0.30525 0.75114 0.0
C3120 C 0.91249 0.31947 0.71446 0.0
C3121 C 0.90283 0.31144 0.71123 0.0
C3122 C 0.92296 0.3151 0.7205 0.0
C3123 C 0.92402 0.30261 0.72348 0.0
C3124 C 0.91423 0.29465 0.72049 0.0
C3125 C 0.90379 0.29901 0.71446 0.0
C3126 C 0.95105 0.2821 0.73104 0.0
C3127 C 0.95717 0.28869 0.7403 0.0
C3128 C 0.94031 0.28659 0.72566 0.0
C3129 C 0.93539 0.29781 0.72939 0.0
C3130 C 0.94148 0.3044 0.73869 0.0
C3131 C 0.95222 0.29988 0.7441 0.0
H3132 H 0.22536 0.40082 0.70976 0.0
H3133 H 0.19195 0.41103 0.72805 0.0
H3134 H 0.23575 0.41876 0.71823 0.0
H3135 H 0.20213 0.42927 0.73595 0.0
H3136 H 0.22685 0.45393 0.75879 0.0
H3137 H 0.21718 0.43547 0.75064 0.0
H3138 H 0.23672 0.44067 0.71661 0.0
H3139 H 0.24653 0.45906 0.72487 0.0
C3140 C 0.22021 0.40688 0.71558 0.0
C3141 C 0.20779 0.40442 0.71821 0.0
C3142 C 0.22615 0.41727 0.72032 0.0
C3143 C 0.21981 0.4255 0.7278 0.0
C3144 C 0.20738 0.42307 0.73037 0.0
C3145 C 0.20146 0.41267 0.72568 0.0
C3146 C 0.22905 0.45116 0.74955 0.0
C3147 C 0.23743 0.458 0.74247 0.0
C3148 C 0.22348 0.44057 0.74486 0.0
C3149 C 0.22609 0.43658 0.73292 0.0
C3150 C 0.2346 0.44335 0.72589 0.0
C3151 C 0.24022 0.45392 0.73062 0.0
H3152 H 0.11531 0.30297 0.33866 0.0
H3153 H 0.13029 0.31506 0.304 0.0
H3154 H 0.09687 0.29565 0.32824 0.0
H3155 H 0.11157 0.30819 0.29362 0.0
H3156 H 0.08218 0.2816 0.27809 0.0
H3157 H 0.10076 0.28947 0.28804 0.0
H3158 H 0.07892 0.30313 0.31782 0.0
H3159 H 0.06041 0.2952 0.30793 0.0
C3160 C 0.11468 0.30407 0.3288 0.0
C3161 C 0.12432 0.30957 0.32217 0.0
C3162 C 0.10402 0.3 0.32284 0.0
C3163 C 0.1027 0.30135 0.31008 0.0
C3164 C 0.11232 0.30689 0.30344 0.0
C3165 C 0.123 0.31097 0.30941 0.0
C3166 C 0.08135 0.28639 0.28671 0.0
C3167 C 0.06982 0.2877 0.29226 0.0
C3168 C 0.09199 0.29091 0.29241 0.0
C3169 C 0.09136 0.29689 0.30377 0.0
C3170 C 0.07979 0.29837 0.3092 0.0
C3171 C 0.06917 0.29382 0.30353 0.0
H3172 H 0.21131 0.6281 0.30228 0.0
H3173 H 0.22186 0.61264 0.33724 0.0
H3174 H 0.21906 0.60999 0.29195 0.0
H3175 H 0.2296 0.59463 0.32695 0.0
H3176 H 0.25473 0.57094 0.30406 0.0
H3177 H 0.24649 0.58904 0.31381 0.0
H3178 H 0.21535 0.58802 0.28919 0.0
H3179 H 0.22359 0.56983 0.27942 0.0
C3180 C 0.21516 0.6208 0.30778 0.0
C3181 C 0.21604 0.6219 0.3206 0.0
C3182 C 0.21962 0.61041 0.30185 0.0
C3183 C 0.22507 0.60088 0.3086 0.0
C3184 C 0.22572 0.60189 0.32143 0.0
C3185 C 0.22126 0.61224 0.32734 0.0
C3186 C 0.24607 0.5745 0.30077 0.0
C3187 C 0.2398 0.56885 0.29099 0.0
C3188 C 0.24134 0.5849 0.30638 0.0
C3189 C 0.2302 0.58997 0.30236 0.0
C3190 C 0.22401 0.58445 0.29244 0.0
C3191 C 0.22874 0.57401 0.28684 0.0
H3192 H 0.89743 0.72588 0.31831 0.0
H3193 H 0.91183 0.69121 0.30659 0.0
H3194 H 0.9158 0.73628 0.31054 0.0
H3195 H 0.9301 0.70158 0.29881 0.0
H3196 H 0.95434 0.7252 0.27409 0.0
H3197 H 0.93591 0.71537 0.28222 0.0
H3198 H 0.93795 0.73853 0.31412 0.0
H3199 H 0.95646 0.74836 0.30599 0.0
C3200 C 0.90455 0.72046 0.31419 0.0
C3201 C 0.90309 0.7077 0.31301 0.0
C3202 C 0.91508 0.72642 0.30972 0.0
C3203 C 0.92439 0.71979 0.30395 0.0
C3204 C 0.92301 0.70702 0.30296 0.0
C3205 C 0.91251 0.70107 0.30743 0.0
C3206 C 0.95093 0.72814 0.28289 0.0
C3207 C 0.95695 0.73753 0.28941 0.0
C3208 C 0.94035 0.7225 0.28755 0.0
C3209 C 0.93548 0.72609 0.29888 0.0
C3210 C 0.94137 0.73562 0.30532 0.0
C3211 C 0.95198 0.74126 0.30065 0.0
H3212 H 0.8192 0.4131 0.32837 0.0
H3213 H 0.81861 0.39815 0.29183 0.0
H3214 H 0.80891 0.43141 0.32082 0.0
H3215 H 0.80831 0.41639 0.2843 0.0
H3216 H 0.80308 0.45618 0.27257 0.0
H3217 H 0.81269 0.43772 0.28048 0.0
H3218 H 0.78971 0.43902 0.31258 0.0
H3219 H 0.78043 0.45779 0.30488 0.0
C3220 C 0.81675 0.41365 0.31876 0.0
C3221 C 0.81982 0.40417 0.3107 0.0
C3222 C 0.81084 0.42416 0.31442 0.0
C3223 C 0.80784 0.42545 0.30192 0.0
C3224 C 0.8107 0.41585 0.29393 0.0
C3225 C 0.81661 0.40537 0.29825 0.0
C3226 C 0.80015 0.45261 0.28137 0.0
C3227 C 0.79099 0.45853 0.28809 0.0
C3228 C 0.80556 0.44191 0.28585 0.0
C3229 C 0.80197 0.43682 0.29717 0.0
C3230 C 0.79279 0.44273 0.30388 0.0
C3231 C 0.78736 0.45343 0.29939 0.0
H3232 H 0.20876 0.61515 0.70156 0.0
H3233 H 0.20805 0.62991 0.73817 0.0
H3234 H 0.21909 0.59695 0.70933 0.0
H3235 H 0.21837 0.61178 0.74592 0.0
H3236 H 0.22387 0.57201 0.75759 0.0
H3237 H 0.21421 0.59036 0.7495 0.0
H3238 H 0.23818 0.58963 0.71811 0.0
H3239 H 0.24753 0.57095 0.72598 0.0
C3240 C 0.21093 0.61459 0.71124 0.0
C3241 C 0.20749 0.62398 0.71924 0.0
C3242 C 0.21686 0.60414 0.71571 0.0
C3243 C 0.21951 0.60283 0.72828 0.0
C3244 C 0.21626 0.61234 0.73623 0.0
C3245 C 0.21034 0.62276 0.73178 0.0
C3246 C 0.22702 0.57568 0.7489 0.0
C3247 C 0.23647 0.56995 0.74243 0.0
C3248 C 0.22157 0.58631 0.74433 0.0
C3249 C 0.22542 0.59153 0.73315 0.0
C3250 C 0.23489 0.58581 0.72668 0.0
C3251 C 0.24036 0.57517 0.73127 0.0
H3252 H 0.19223 0.41567 0.31446 0.0
H3253 H 0.22483 0.39452 0.30824 0.0
H3254 H 0.20275 0.43395 0.30678 0.0
H3255 H 0.23548 0.4129 0.30086 0.0
H3256 H 0.24489 0.4453 0.27499 0.0
H3257 H 0.23485 0.4269 0.28312 0.0
H3258 H 0.21935 0.44814 0.31236 0.0
H3259 H 0.22907 0.46658 0.30404 0.0
C3260 C 0.20165 0.41493 0.31146 0.0
C3261 C 0.20767 0.40362 0.31192 0.0
C3262 C 0.20772 0.42543 0.30718 0.0
C3263 C 0.21996 0.42489 0.3032 0.0
C3264 C 0.22602 0.41361 0.30374 0.0
C3265 C 0.21996 0.4031 0.30809 0.0
C3266 C 0.23928 0.44605 0.28312 0.0
C3267 C 0.23776 0.45742 0.28885 0.0
C3268 C 0.23364 0.43548 0.28785 0.0
C3269 C 0.22629 0.43605 0.29839 0.0
C3270 C 0.22485 0.44741 0.30416 0.0
C3271 C 0.23053 0.45795 0.29946 0.0
H3272 H 0.11302 0.70431 0.32768 0.0
H3273 H 0.13129 0.71415 0.29393 0.0
H3274 H 0.09466 0.71494 0.32071 0.0
H3275 H 0.11281 0.72446 0.28682 0.0
H3276 H 0.08148 0.75173 0.28272 0.0
H3277 H 0.10012 0.7423 0.29069 0.0
H3278 H 0.07847 0.71234 0.30539 0.0
H3279 H 0.05983 0.72195 0.29776 0.0
C3280 C 0.11315 0.70881 0.3188 0.0
C3281 C 0.12364 0.70835 0.31136 0.0
C3282 C 0.10257 0.71479 0.31475 0.0
C3283 C 0.10222 0.72052 0.30318 0.0
C3284 C 0.11278 0.72024 0.29582 0.0
C3285 C 0.12334 0.71421 0.29985 0.0
C3286 C 0.08069 0.7432 0.28777 0.0
C3287 C 0.06914 0.7376 0.28957 0.0
C3288 C 0.09139 0.73773 0.29223 0.0
C3289 C 0.09082 0.72654 0.29867 0.0
C3290 C 0.07926 0.72101 0.30058 0.0
C3291 C 0.06857 0.72646 0.29608 0.0
H3292 H 0.78985 0.62733 0.32531 0.0
H3293 H 0.82731 0.61857 0.31638 0.0
H3294 H 0.78271 0.60905 0.31468 0.0
H3295 H 0.82011 0.60054 0.30526 0.0
H3296 H 0.80366 0.562 0.29913 0.0
H3297 H 0.81125 0.58054 0.30908 0.0
H3298 H 0.78035 0.60049 0.29456 0.0
H3299 H 0.77274 0.58192 0.28469 0.0
C3300 C 0.79658 0.62151 0.32107 0.0
C3301 C 0.80917 0.62442 0.32178 0.0
C3302 C 0.79246 0.6111 0.31482 0.0
C3303 C 0.80082 0.60329 0.30908 0.0
C3304 C 0.81342 0.60626 0.30969 0.0
C3305 C 0.81754 0.61669 0.31595 0.0
C3306 C 0.79856 0.57037 0.29795 0.0
C3307 C 0.78756 0.57045 0.29114 0.0
C3308 C 0.80292 0.58103 0.30365 0.0
C3309 C 0.7964 0.59204 0.30267 0.0
C3310 C 0.7855 0.59214 0.29571 0.0
C3311 C 0.78113 0.58148 0.29003 0.0
H3312 H 0.91331 0.32817 0.31865 0.0
H3313 H 0.89726 0.29186 0.31819 0.0
H3314 H 0.93153 0.32048 0.30843 0.0
H3315 H 0.91541 0.28419 0.30796 0.0
H3316 H 0.95502 0.27203 0.30301 0.0
H3317 H 0.93661 0.28009 0.31243 0.0
H3318 H 0.93915 0.31226 0.28935 0.0
H3319 H 0.95789 0.3044 0.28026 0.0
C3320 C 0.91359 0.31858 0.31624 0.0
C3321 C 0.90384 0.31062 0.31934 0.0
C3322 C 0.92405 0.31416 0.31037 0.0
C3323 C 0.92501 0.30168 0.30743 0.0
C3324 C 0.91512 0.2938 0.3103 0.0
C3325 C 0.9047 0.2982 0.31617 0.0
C3326 C 0.95173 0.28088 0.30001 0.0
C3327 C 0.958 0.28757 0.29088 0.0
C3328 C 0.94107 0.28544 0.30531 0.0
C3329 C 0.93634 0.29683 0.30164 0.0
C3330 C 0.94258 0.30351 0.29249 0.0
C3331 C 0.95325 0.29894 0.28717 0.0
H3332 H 0.80313 0.39619 0.72117 0.0
H3333 H 0.8348 0.4187 0.71256 0.0
H3334 H 0.79244 0.41422 0.72855 0.0
H3335 H 0.82428 0.43663 0.72028 0.0
H3336 H 0.79767 0.46827 0.72402 0.0
H3337 H 0.80734 0.45018 0.71557 0.0
H3338 H 0.79336 0.42845 0.74571 0.0
H3339 H 0.78333 0.44647 0.75394 0.0
C3340 C 0.80779 0.40499 0.72078 0.0
C3341 C 0.81984 0.40598 0.71628 0.0
C3342 C 0.80171 0.41531 0.72515 0.0
C3343 C 0.8075 0.42689 0.72506 0.0
C3344 C 0.81949 0.42789 0.72039 0.0
C3345 C 0.82558 0.41757 0.71608 0.0
C3346 C 0.79653 0.45961 0.72877 0.0
C3347 C 0.78971 0.45885 0.73968 0.0
C3348 C 0.80219 0.44925 0.72399 0.0
C3349 C 0.80117 0.43785 0.72997 0.0
C3350 C 0.79425 0.43705 0.7408 0.0
C3351 C 0.78861 0.44742 0.7456 0.0
H3352 H 0.12993 0.31531 0.72704 0.0
H3353 H 0.11394 0.30439 0.69243 0.0
H3354 H 0.11161 0.30781 0.73766 0.0
H3355 H 0.09573 0.29688 0.70302 0.0
H3356 H 0.07132 0.27242 0.72675 0.0
H3357 H 0.08973 0.28027 0.71671 0.0
H3358 H 0.08969 0.31184 0.74033 0.0
H3359 H 0.0712 0.304 0.75037 0.0
C3360 C 0.12247 0.31142 0.72168 0.0
C3361 C 0.12347 0.31038 0.70888 0.0
C3362 C 0.11197 0.30711 0.72777 0.0
C3363 C 0.10222 0.30165 0.72121 0.0
C3364 C 0.10315 0.30079 0.7084 0.0
C3365 C 0.11362 0.30511 0.70232 0.0
C3366 C 0.07517 0.28109 0.72975 0.0
C3367 C 0.06971 0.28761 0.73933 0.0
C3368 C 0.08574 0.28559 0.72399 0.0
C3369 C 0.09116 0.29674 0.72764 0.0
C3370 C 0.08583 0.30317 0.73736 0.0
C3371 C 0.07523 0.29867 0.74313 0.0
H3372 H 0.913 0.70241 0.70662 0.0
H3373 H 0.89502 0.73609 0.71599 0.0
H3374 H 0.93169 0.70958 0.71688 0.0
H3375 H 0.9138 0.74339 0.72595 0.0
H3376 H 0.94591 0.74758 0.7529 0.0
H3377 H 0.92699 0.73943 0.74385 0.0
H3378 H 0.94767 0.72526 0.7135 0.0
H3379 H 0.9666 0.73311 0.72271 0.0
C3380 C 0.91301 0.71131 0.71094 0.0
C3381 C 0.90253 0.71868 0.71046 0.0
C3382 C 0.92376 0.71547 0.7167 0.0
C3383 C 0.92426 0.72708 0.72219 0.0
C3384 C 0.9137 0.73437 0.7219 0.0
C3385 C 0.90298 0.73023 0.71608 0.0
C3386 C 0.94642 0.74262 0.74436 0.0
C3387 C 0.95776 0.74101 0.73852 0.0
C3388 C 0.93557 0.73805 0.73912 0.0
C3389 C 0.93581 0.7317 0.72794 0.0
C3390 C 0.94717 0.72999 0.72217 0.0
C3391 C 0.95801 0.73462 0.72738 0.0
H3392 H 0.72334 0.19017 0.61567 0.0
H3393 H 0.71114 0.22488 0.62956 0.0
H3394 H 0.73139 0.20039 0.59748 0.0
H3395 H 0.71916 0.23512 0.61127 0.0
H3396 H 0.72445 0.24681 0.57072 0.0
H3397 H 0.716 0.23708 0.58907 0.0
H3398 H 0.74802 0.21428 0.59183 0.0
H3399 H 0.75649 0.22403 0.57357 0.0
C3400 C 0.72245 0.2 0.6149 0.0
C3401 C 0.71666 0.20669 0.62416 0.0
C3402 C 0.72707 0.20587 0.60445 0.0
C3403 C 0.72602 0.2186 0.60293 0.0
C3404 C 0.72003 0.22529 0.61207 0.0
C3405 C 0.71542 0.21941 0.62256 0.0
C3406 C 0.72976 0.23982 0.57531 0.0
C3407 C 0.74114 0.23618 0.57059 0.0
C3408 C 0.7249 0.23423 0.58584 0.0
C3409 C 0.73128 0.22483 0.5919 0.0
C3410 C 0.74273 0.22131 0.58727 0.0
C3411 C 0.74759 0.22691 0.57677 0.0
H3412 H 0.28923 0.21002 0.63308 0.0
H3413 H 0.32559 0.2088 0.61758 0.0
H3414 H 0.28175 0.22026 0.61466 0.0
H3415 H 0.3181 0.21901 0.59911 0.0
H3416 H 0.30282 0.24743 0.57233 0.0
H3417 H 0.31035 0.2383 0.59135 0.0
H3418 H 0.27761 0.21571 0.59341 0.0
H3419 H 0.26987 0.22519 0.5747 0.0
C3420 C 0.29562 0.21188 0.62571 0.0
C3421 C 0.308 0.20853 0.62679 0.0
C3422 C 0.29132 0.21775 0.61514 0.0
C3423 C 0.2993 0.22042 0.60536 0.0
C3424 C 0.31173 0.21724 0.60652 0.0
C3425 C 0.31603 0.21138 0.61711 0.0
C3426 C 0.29716 0.24062 0.57692 0.0
C3427 C 0.28573 0.23705 0.57197 0.0
C3428 C 0.30155 0.23528 0.58775 0.0
C3429 C 0.2946 0.22625 0.59392 0.0
C3430 C 0.28315 0.22273 0.58899 0.0
C3431 C 0.27877 0.22806 0.57817 0.0
H3432 H 0.32963 0.81385 0.61761 0.0
H3433 H 0.29218 0.82156 0.62748 0.0
H3434 H 0.3223 0.80268 0.59963 0.0
H3435 H 0.28489 0.81087 0.6093 0.0
H3436 H 0.27491 0.78111 0.582 0.0
H3437 H 0.2828 0.79083 0.60054 0.0
H3438 H 0.31288 0.8065 0.57987 0.0
H3439 H 0.30502 0.79672 0.56135 0.0
C3440 C 0.31984 0.81313 0.61598 0.0
C3441 C 0.31151 0.81866 0.624 0.0
C3442 C 0.31563 0.80684 0.60559 0.0
C3443 C 0.30299 0.80589 0.60297 0.0
C3444 C 0.29468 0.81129 0.61108 0.0
C3445 C 0.29887 0.81757 0.62144 0.0
C3446 C 0.28318 0.78667 0.5814 0.0
C3447 C 0.28929 0.78816 0.57015 0.0
C3448 C 0.28771 0.79226 0.59203 0.0
C3449 C 0.29846 0.79951 0.59172 0.0
C3450 C 0.30467 0.80085 0.58051 0.0
C3451 C 0.30015 0.79525 0.56987 0.0
H3452 H 0.73698 0.81736 0.63243 0.0
H3453 H 0.70048 0.818 0.61684 0.0
H3454 H 0.74444 0.80703 0.61426 0.0
H3455 H 0.70795 0.80768 0.5986 0.0
H3456 H 0.72358 0.77938 0.57222 0.0
H3457 H 0.71597 0.78848 0.59106 0.0
H3458 H 0.74839 0.81153 0.59297 0.0
H3459 H 0.7562 0.80211 0.57447 0.0
C3460 C 0.73055 0.81536 0.62509 0.0
C3461 C 0.71813 0.81859 0.62608 0.0
C3462 C 0.73483 0.80943 0.61465 0.0
C3463 C 0.72683 0.80659 0.6049 0.0
C3464 C 0.71436 0.8096 0.60598 0.0
C3465 C 0.71006 0.81553 0.61645 0.0
C3466 C 0.72915 0.78628 0.57675 0.0
C3467 C 0.7405 0.79001 0.5718 0.0
C3468 C 0.72472 0.79161 0.58748 0.0
C3469 C 0.73155 0.80076 0.59355 0.0
C3470 C 0.74294 0.80442 0.58864 0.0
C3471 C 0.74735 0.79911 0.57792 0.0
H3472 H 0.71295 0.80226 0.39924 0.0
H3473 H 0.72446 0.83711 0.41416 0.0
H3474 H 0.71976 0.79205 0.418 0.0
H3475 H 0.73171 0.82687 0.43264 0.0
H3476 H 0.73182 0.80665 0.46912 0.0
H3477 H 0.72401 0.81634 0.45054 0.0
H3478 H 0.73852 0.78689 0.42893 0.0
H3479 H 0.74629 0.77714 0.44756 0.0
C3480 C 0.71691 0.80775 0.40652 0.0
C3481 C 0.71817 0.82051 0.40517 0.0
C3482 C 0.72094 0.80188 0.41722 0.0
C3483 C 0.7263 0.80863 0.42684 0.0
C3484 C 0.7275 0.82139 0.42549 0.0
C3485 C 0.72349 0.82725 0.41481 0.0
C3486 C 0.73341 0.80227 0.46039 0.0
C3487 C 0.73975 0.79115 0.45982 0.0
C3488 C 0.72894 0.80783 0.44974 0.0
C3489 C 0.73069 0.80244 0.43822 0.0
C3490 C 0.73687 0.79122 0.43766 0.0
C3491 C 0.74134 0.78564 0.44834 0.0
H3492 H 0.72487 0.21907 0.39625 0.0
H3493 H 0.69382 0.20909 0.41879 0.0
H3494 H 0.7358 0.22656 0.41436 0.0
H3495 H 0.70458 0.2169 0.43681 0.0
H3496 H 0.73172 0.22126 0.46845 0.0
H3497 H 0.72192 0.21264 0.45026 0.0
H3498 H 0.73477 0.24351 0.42882 0.0
H3499 H 0.74492 0.25194 0.44694 0.0
C3500 C 0.7204 0.2184 0.40507 0.0
C3501 C 0.70845 0.21349 0.40605 0.0
C3502 C 0.72661 0.22282 0.41544 0.0
C3503 C 0.72106 0.22238 0.42705 0.0
C3504 C 0.70919 0.21729 0.42804 0.0
C3505 C 0.70296 0.21293 0.41768 0.0
C3506 C 0.73259 0.22614 0.45983 0.0
C3507 C 0.73912 0.23731 0.45918 0.0
C3508 C 0.72685 0.22126 0.44942 0.0
C3509 C 0.72751 0.22739 0.43806 0.0
C3510 C 0.73416 0.23848 0.43738 0.0
C3511 C 0.73987 0.24339 0.4478 0.0
H3512 H 0.33661 0.21753 0.41845 0.0
H3513 H 0.30201 0.21619 0.39898 0.0
H3514 H 0.32623 0.2251 0.43656 0.0
H3515 H 0.29161 0.22383 0.41711 0.0
H3516 H 0.27552 0.22683 0.45582 0.0
H3517 H 0.2857 0.21847 0.43789 0.0
H3518 H 0.31628 0.24333 0.44359 0.0
H3519 H 0.30637 0.25131 0.46176 0.0
C3520 C 0.32679 0.21893 0.418 0.0
C3521 C 0.32017 0.21631 0.40722 0.0
C3522 C 0.32083 0.22329 0.4284 0.0
C3523 C 0.30808 0.22517 0.42829 0.0
C3524 C 0.30141 0.22236 0.41757 0.0
C3525 C 0.30738 0.21798 0.40717 0.0
C3526 C 0.28447 0.23043 0.45331 0.0
C3527 C 0.29012 0.23975 0.46027 0.0
C3528 C 0.29025 0.22573 0.44294 0.0
C3529 C 0.30183 0.2302 0.43928 0.0
C3530 C 0.30744 0.23954 0.44621 0.0
C3531 C 0.30167 0.24425 0.45656 0.0
H3532 H 0.29175 0.82205 0.40061 0.0
H3533 H 0.32908 0.8135 0.41071 0.0
H3534 H 0.28435 0.81146 0.41886 0.0
H3535 H 0.32162 0.80243 0.42874 0.0
H3536 H 0.30461 0.79649 0.46696 0.0
H3537 H 0.31246 0.80631 0.44842 0.0
H3538 H 0.28184 0.79146 0.42781 0.0
H3539 H 0.27397 0.7817 0.44636 0.0
C3540 C 0.2984 0.8179 0.40672 0.0
C3541 C 0.31104 0.81871 0.40419 0.0
C3542 C 0.29413 0.81168 0.41712 0.0
C3543 C 0.30237 0.80607 0.42531 0.0
C3544 C 0.31501 0.80676 0.42273 0.0
C3545 C 0.31928 0.81298 0.4123 0.0
C3546 C 0.29962 0.79521 0.45844 0.0
C3547 C 0.28863 0.78832 0.45818 0.0
C3548 C 0.30413 0.80084 0.44779 0.0
C3549 C 0.29778 0.79972 0.43659 0.0
C3550 C 0.28687 0.79271 0.4363 0.0
C3551 C 0.28235 0.7871 0.44695 0.0
H3552 H 0.63069 0.23655 0.7112 0.0
H3553 H 0.61439 0.20036 0.71032 0.0
H3554 H 0.61251 0.24426 0.72137 0.0
H3555 H 0.59615 0.20808 0.72048 0.0
H3556 H 0.56975 0.22408 0.74867 0.0
H3557 H 0.58849 0.21619 0.73961 0.0
H3558 H 0.59134 0.24853 0.7168 0.0
H3559 H 0.57292 0.25661 0.72618 0.0
C3560 C 0.62319 0.23024 0.71312 0.0
C3561 C 0.62399 0.21784 0.70986 0.0
C3562 C 0.61275 0.23467 0.71895 0.0
C3563 C 0.60279 0.22683 0.72169 0.0
C3564 C 0.60368 0.21437 0.71865 0.0
C3565 C 0.61415 0.20993 0.71281 0.0
C3566 C 0.57445 0.22957 0.74182 0.0
C3567 C 0.56979 0.24099 0.73817 0.0
C3568 C 0.58513 0.22498 0.73652 0.0
C3569 C 0.59146 0.2317 0.72745 0.0
C3570 C 0.58681 0.24314 0.72385 0.0
C3571 C 0.57614 0.24772 0.72913 0.0
H3572 H 0.32257 0.12838 0.739 0.0
H3573 H 0.3138 0.11857 0.70164 0.0
H3574 H 0.31211 0.10994 0.74628 0.0
H3575 H 0.30288 0.10037 0.70897 0.0
H3576 H 0.29753 0.06199 0.72592 0.0
H3577 H 0.30723 0.0807 0.71825 0.0
H3578 H 0.29193 0.10084 0.7484 0.0
H3579 H 0.28229 0.08209 0.75611 0.0
C3580 C 0.3184 0.1223 0.73233 0.0
C3581 C 0.31909 0.12495 0.71972 0.0
C3582 C 0.31226 0.11179 0.73652 0.0
C3583 C 0.30664 0.10365 0.72822 0.0
C3584 C 0.30722 0.10636 0.71562 0.0
C3585 C 0.31337 0.11688 0.71142 0.0
C3586 C 0.29612 0.07044 0.73084 0.0
C3587 C 0.28915 0.07053 0.74165 0.0
C3588 C 0.30168 0.08118 0.72643 0.0
C3589 C 0.30039 0.09229 0.73271 0.0
C3590 C 0.2933 0.09241 0.74345 0.0
C3591 C 0.28776 0.08166 0.74787 0.0
H3592 H 0.41809 0.81829 0.69504 0.0
H3593 H 0.39544 0.80867 0.72608 0.0
H3594 H 0.43606 0.81052 0.70579 0.0
H3595 H 0.41352 0.80125 0.73702 0.0
H3596 H 0.44595 0.77591 0.7463 0.0
H3597 H 0.42785 0.78431 0.7362 0.0
H3598 H 0.44964 0.81483 0.72293 0.0
H3599 H 0.46781 0.80621 0.73265 0.0
C3600 C 0.41694 0.81454 0.70418 0.0
C3601 C 0.40528 0.81406 0.70966 0.0
C3602 C 0.42729 0.8102 0.71041 0.0
C3603 C 0.42627 0.80524 0.72228 0.0
C3604 C 0.41463 0.80489 0.72783 0.0
C3605 C 0.40428 0.80927 0.72161 0.0
C3606 C 0.4469 0.78437 0.74116 0.0
C3607 C 0.45837 0.79035 0.74027 0.0
C3608 C 0.43648 0.78927 0.73548 0.0
C3609 C 0.43726 0.80026 0.72873 0.0
C3610 C 0.44871 0.80629 0.72794 0.0
C3611 C 0.45912 0.80141 0.73364 0.0
H3612 H 0.70607 0.91391 0.70209 0.0
H3613 H 0.71595 0.89532 0.73568 0.0
H3614 H 0.71645 0.93245 0.70932 0.0
H3615 H 0.72602 0.91394 0.74305 0.0
H3616 H 0.75278 0.94617 0.74772 0.0
H3617 H 0.74377 0.9274 0.73937 0.0
H3618 H 0.71333 0.94806 0.72493 0.0
H3619 H 0.72251 0.96683 0.73295 0.0
C3620 C 0.71053 0.91375 0.71098 0.0
C3621 C 0.71014 0.90313 0.71831 0.0
C3622 C 0.71637 0.92441 0.71518 0.0
C3623 C 0.72202 0.92471 0.72679 0.0
C3624 C 0.72184 0.91402 0.73403 0.0
C3625 C 0.71595 0.90337 0.72985 0.0
C3626 C 0.74424 0.94672 0.74264 0.0
C3627 C 0.73836 0.95801 0.74104 0.0
C3628 C 0.739 0.93594 0.73796 0.0
C3629 C 0.72781 0.9362 0.73149 0.0
C3630 C 0.72202 0.94752 0.72975 0.0
C3631 C 0.72721 0.95828 0.73448 0.0
H3632 H 0.61549 0.80201 0.33842 0.0
H3633 H 0.63033 0.81451 0.30385 0.0
H3634 H 0.59725 0.79428 0.3279 0.0
H3635 H 0.612 0.80682 0.29332 0.0
H3636 H 0.57131 0.80264 0.2813 0.0
H3637 H 0.58985 0.81054 0.29127 0.0
H3638 H 0.59147 0.77794 0.31375 0.0
H3639 H 0.57301 0.77001 0.30376 0.0
C3640 C 0.61491 0.80303 0.32856 0.0
C3641 C 0.62443 0.80882 0.32198 0.0
C3642 C 0.60444 0.79859 0.32252 0.0
C3643 C 0.60319 0.79986 0.30975 0.0
C3644 C 0.61262 0.8058 0.30318 0.0
C3645 C 0.62312 0.81022 0.30922 0.0
C3646 C 0.5757 0.79709 0.28826 0.0
C3647 C 0.57062 0.78571 0.29176 0.0
C3648 C 0.58633 0.80163 0.29399 0.0
C3649 C 0.59211 0.79491 0.30337 0.0
C3650 C 0.58712 0.78346 0.30673 0.0
C3651 C 0.57653 0.77891 0.301 0.0
H3652 H 0.72108 0.11252 0.33699 0.0
H3653 H 0.71077 0.1283 0.3021 0.0
H3654 H 0.72844 0.09439 0.32664 0.0
H3655 H 0.71773 0.10988 0.29174 0.0
H3656 H 0.74491 0.08108 0.27715 0.0
H3657 H 0.7366 0.09928 0.28683 0.0
H3658 H 0.72119 0.07669 0.31564 0.0
H3659 H 0.7295 0.05856 0.30599 0.0
C3660 C 0.72037 0.11213 0.3271 0.0
C3661 C 0.71539 0.12194 0.32039 0.0
C3662 C 0.72446 0.10164 0.32116 0.0
C3663 C 0.72367 0.10063 0.30834 0.0
C3664 C 0.71859 0.11039 0.30161 0.0
C3665 C 0.71447 0.1209 0.30757 0.0
C3666 C 0.73963 0.07999 0.28548 0.0
C3667 C 0.73796 0.06835 0.29083 0.0
C3668 C 0.73485 0.09043 0.29103 0.0
C3669 C 0.72828 0.08949 0.30207 0.0
C3670 C 0.72641 0.07781 0.30728 0.0
C3671 C 0.73119 0.06739 0.30174 0.0
H3672 H 0.39721 0.22621 0.31768 0.0
H3673 H 0.41198 0.19156 0.3064 0.0
H3674 H 0.41554 0.2367 0.30993 0.0
H3675 H 0.43022 0.20201 0.29865 0.0
H3676 H 0.45449 0.22552 0.27392 0.0
H3677 H 0.43606 0.21566 0.28199 0.0
H3678 H 0.43764 0.2392 0.31363 0.0
H3679 H 0.45615 0.24907 0.30556 0.0
C3680 C 0.4044 0.22082 0.31366 0.0
C3681 C 0.40306 0.20804 0.31259 0.0
C3682 C 0.41492 0.22683 0.30921 0.0
C3683 C 0.42433 0.22022 0.30357 0.0
C3684 C 0.42305 0.20743 0.30269 0.0
C3685 C 0.41257 0.20143 0.30715 0.0
C3686 C 0.45098 0.22855 0.28264 0.0
C3687 C 0.45688 0.23805 0.28911 0.0
C3688 C 0.44039 0.22288 0.28728 0.0
C3689 C 0.4354 0.22656 0.29851 0.0
C3690 C 0.44116 0.23621 0.3049 0.0
C3691 C 0.45177 0.24188 0.30026 0.0
H3692 H 0.31914 0.91293 0.32852 0.0
H3693 H 0.31893 0.89816 0.2919 0.0
H3694 H 0.30894 0.93128 0.32095 0.0
H3695 H 0.30872 0.91644 0.28435 0.0
H3696 H 0.30358 0.95628 0.27276 0.0
H3697 H 0.31313 0.9378 0.28068 0.0
H3698 H 0.28982 0.93891 0.31255 0.0
H3699 H 0.28059 0.95771 0.30484 0.0
C3700 C 0.31679 0.91352 0.31888 0.0
C3701 C 0.31994 0.90408 0.31082 0.0
C3702 C 0.31094 0.92406 0.31454 0.0
C3703 C 0.30807 0.92541 0.30201 0.0
C3704 C 0.31101 0.91585 0.294 0.0
C3705 C 0.31686 0.90534 0.29834 0.0
C3706 C 0.30056 0.95267 0.28152 0.0
C3707 C 0.29132 0.95854 0.28817 0.0
C3708 C 0.30594 0.94196 0.286 0.0
C3709 C 0.30224 0.93681 0.29725 0.0
C3710 C 0.29299 0.94267 0.30391 0.0
C3711 C 0.28759 0.95338 0.29941 0.0
H3712 H 0.68975 0.11351 0.7238 0.0
H3713 H 0.72468 0.12937 0.71334 0.0
H3714 H 0.70011 0.09535 0.73137 0.0
H3715 H 0.73503 0.11093 0.72048 0.0
H3716 H 0.75007 0.08197 0.74753 0.0
H3717 H 0.7402 0.10021 0.73927 0.0
H3718 H 0.71092 0.07768 0.72448 0.0
H3719 H 0.72074 0.0595 0.73278 0.0
C3720 C 0.69965 0.11313 0.7231 0.0
C3721 C 0.70637 0.12297 0.718 0.0
C3722 C 0.70559 0.10263 0.72732 0.0
C3723 C 0.71843 0.10163 0.72654 0.0
C3724 C 0.72515 0.11142 0.72135 0.0
C3725 C 0.7192 0.12195 0.71712 0.0
C3726 C 0.74159 0.0809 0.74241 0.0
C3727 C 0.73617 0.06925 0.74089 0.0
C3728 C 0.73593 0.09137 0.73766 0.0
C3729 C 0.72472 0.09046 0.73124 0.0
C3730 C 0.71941 0.07878 0.72957 0.0
C3731 C 0.72505 0.06833 0.73433 0.0
H3732 H 0.69204 0.91565 0.31418 0.0
H3733 H 0.7247 0.89451 0.30819 0.0
H3734 H 0.70259 0.93393 0.30654 0.0
H3735 H 0.73538 0.9129 0.30085 0.0
H3736 H 0.74492 0.94529 0.27502 0.0
H3737 H 0.73486 0.92688 0.2831 0.0
H3738 H 0.71915 0.94813 0.31222 0.0
H3739 H 0.7289 0.96658 0.30395 0.0
C3740 C 0.70148 0.9149 0.31124 0.0
C3741 C 0.70751 0.90361 0.31176 0.0
C3742 C 0.70757 0.92541 0.30698 0.0
C3743 C 0.71983 0.92488 0.30308 0.0
C3744 C 0.7259 0.9136 0.30367 0.0
C3745 C 0.71982 0.90309 0.308 0.0
C3746 C 0.73927 0.94604 0.28311 0.0
C3747 C 0.7377 0.95741 0.28882 0.0
C3748 C 0.73361 0.93547 0.28781 0.0
C3749 C 0.72619 0.93604 0.2983 0.0
C3750 C 0.7247 0.9474 0.30406 0.0
C3751 C 0.7304 0.95795 0.29939 0.0
H3752 H 0.6313 0.2148 0.29485 0.0
H3753 H 0.61308 0.20503 0.32863 0.0
H3754 H 0.61282 0.22508 0.28774 0.0
H3755 H 0.59471 0.21565 0.32168 0.0
H3756 H 0.55983 0.22259 0.29878 0.0
H3757 H 0.57848 0.21306 0.30649 0.0
H3758 H 0.60012 0.24285 0.29143 0.0
H3759 H 0.58148 0.25218 0.28336 0.0
C3760 C 0.62336 0.21487 0.30078 0.0
C3761 C 0.62368 0.20902 0.3123 0.0
C3762 C 0.6128 0.22089 0.29675 0.0
C3763 C 0.60225 0.22119 0.30412 0.0
C3764 C 0.60262 0.21549 0.31571 0.0
C3765 C 0.6132 0.20951 0.31976 0.0
C3766 C 0.56857 0.22707 0.29704 0.0
C3767 C 0.56914 0.23814 0.29039 0.0
C3768 C 0.57927 0.22168 0.30159 0.0
C3769 C 0.59083 0.22718 0.29959 0.0
C3770 C 0.59139 0.23829 0.29304 0.0
C3771 C 0.58068 0.24372 0.28851 0.0
H3772 H 0.32737 0.11857 0.31612 0.0
H3773 H 0.28998 0.12729 0.32536 0.0
H3774 H 0.3201 0.10054 0.30503 0.0
H3775 H 0.28277 0.10902 0.31476 0.0
H3776 H 0.27263 0.08188 0.28478 0.0
H3777 H 0.28026 0.10045 0.29464 0.0
H3778 H 0.31128 0.08054 0.30894 0.0
H3779 H 0.30368 0.062 0.299 0.0
C3780 C 0.3176 0.11668 0.31575 0.0
C3781 C 0.30928 0.12439 0.32167 0.0
C3782 C 0.31344 0.10625 0.30951 0.0
C3783 C 0.30084 0.10328 0.30901 0.0
C3784 C 0.29252 0.11107 0.31483 0.0
C3785 C 0.29668 0.12148 0.32105 0.0
C3786 C 0.28105 0.08145 0.29007 0.0
C3787 C 0.28752 0.07043 0.29111 0.0
C3788 C 0.28543 0.0921 0.29574 0.0
C3789 C 0.29638 0.09202 0.30263 0.0
C3790 C 0.30292 0.08101 0.30356 0.0
C3791 C 0.29855 0.07036 0.29787 0.0
H3792 H 0.41409 0.80511 0.33758 0.0
H3793 H 0.39952 0.81746 0.30282 0.0
H3794 H 0.43229 0.79766 0.32734 0.0
H3795 H 0.41803 0.81045 0.2926 0.0
H3796 H 0.44649 0.7835 0.27724 0.0
H3797 H 0.42824 0.79175 0.28696 0.0
H3798 H 0.45055 0.80463 0.31718 0.0
H3799 H 0.46873 0.79632 0.30752 0.0
C3800 C 0.41476 0.80625 0.32774 0.0
C3801 C 0.40526 0.81184 0.32103 0.0
C3802 C 0.4253 0.80211 0.32187 0.0
C3803 C 0.42668 0.80346 0.30912 0.0
C3804 C 0.41724 0.80914 0.30241 0.0
C3805 C 0.40667 0.81329 0.3083 0.0
C3806 C 0.44751 0.7882 0.2859 0.0
C3807 C 0.45908 0.78916 0.29163 0.0
C3808 C 0.43704 0.79295 0.29148 0.0
C3809 C 0.43788 0.79882 0.30291 0.0
C3810 C 0.4495 0.79996 0.30851 0.0
C3811 C 0.45994 0.79519 0.30296 0.0
H3812 H 0.30293 0.89555 0.72378 0.0
H3813 H 0.33273 0.91815 0.71027 0.0
H3814 H 0.29275 0.91371 0.73147 0.0
H3815 H 0.3227 0.93629 0.71812 0.0
H3816 H 0.29648 0.96776 0.72362 0.0
H3817 H 0.3057 0.94949 0.71517 0.0
H3818 H 0.29432 0.92882 0.74709 0.0
H3819 H 0.28451 0.94693 0.75522 0.0
C3820 C 0.30734 0.90439 0.72252 0.0
C3821 C 0.31864 0.90538 0.7164 0.0
C3822 C 0.30152 0.91482 0.72696 0.0
C3823 C 0.30688 0.92652 0.72546 0.0
C3824 C 0.31816 0.92749 0.71928 0.0
C3825 C 0.32394 0.91707 0.71478 0.0
C3826 C 0.29578 0.95929 0.72877 0.0
C3827 C 0.28971 0.95887 0.74013 0.0
C3828 C 0.30123 0.94882 0.72399 0.0
C3829 C 0.30083 0.93763 0.73044 0.0
C3830 C 0.29471 0.93721 0.74177 0.0
C3831 C 0.28922 0.94767 0.74653 0.0
H3832 H 0.62751 0.79067 0.70602 0.0
H3833 H 0.61805 0.82782 0.71503 0.0
H3834 H 0.60918 0.78321 0.71648 0.0
H3835 H 0.59969 0.82033 0.72556 0.0
H3836 H 0.5743 0.80088 0.75346 0.0
H3837 H 0.59291 0.80859 0.74355 0.0
H3838 H 0.58702 0.78334 0.71374 0.0
H3839 H 0.56843 0.77569 0.72357 0.0
C3840 C 0.62148 0.79727 0.71016 0.0
C3841 C 0.62424 0.80987 0.70959 0.0
C3842 C 0.61096 0.79298 0.71617 0.0
C3843 C 0.60291 0.80117 0.7218 0.0
C3844 C 0.60576 0.81375 0.72143 0.0
C3845 C 0.61629 0.81805 0.71539 0.0
C3846 C 0.57692 0.79704 0.74474 0.0
C3847 C 0.56986 0.78762 0.73935 0.0
C3848 C 0.5876 0.80146 0.73906 0.0
C3849 C 0.5915 0.79656 0.72786 0.0
C3850 C 0.58442 0.78718 0.72246 0.0
C3851 C 0.57375 0.78278 0.72812 0.0
H3852 H 0.41214 0.22545 0.69119 0.0
H3853 H 0.39765 0.21326 0.72603 0.0
H3854 H 0.43051 0.23321 0.70145 0.0
H3855 H 0.41612 0.22098 0.73629 0.0
H3856 H 0.45688 0.22522 0.74791 0.0
H3857 H 0.43828 0.21723 0.73813 0.0
H3858 H 0.43647 0.24965 0.71541 0.0
H3859 H 0.45498 0.25768 0.72522 0.0
C3860 C 0.41282 0.2245 0.70106 0.0
C3861 C 0.40336 0.21879 0.70778 0.0
C3862 C 0.42337 0.22895 0.70694 0.0
C3863 C 0.42476 0.22779 0.71971 0.0
C3864 C 0.4154 0.22192 0.72643 0.0
C3865 C 0.40481 0.21748 0.72054 0.0
C3866 C 0.45244 0.23071 0.74093 0.0
C3867 C 0.45748 0.24208 0.73732 0.0
C3868 C 0.44178 0.22612 0.73531 0.0
C3869 C 0.43592 0.23276 0.72594 0.0
C3870 C 0.44087 0.24419 0.72244 0.0
C3871 C 0.4515 0.24879 0.72807 0.0
H3872 H 0.73625 0.70975 0.13203 0.0
H3873 H 0.69985 0.70907 0.11618 0.0
H3874 H 0.74411 0.7199 0.11372 0.0
H3875 H 0.70773 0.71922 0.0978 0.0
H3876 H 0.7243 0.74739 0.07106 0.0
H3877 H 0.71626 0.73831 0.08992 0.0
H3878 H 0.74817 0.71533 0.09256 0.0
H3879 H 0.75641 0.72472 0.07402 0.0
C3880 C 0.72992 0.7117 0.12461 0.0
C3881 C 0.71742 0.7085 0.12557 0.0
C3882 C 0.73444 0.71752 0.11408 0.0
C3883 C 0.72659 0.72032 0.10421 0.0
C3884 C 0.71403 0.71734 0.10526 0.0
C3885 C 0.7095 0.71151 0.11582 0.0
C3886 C 0.72967 0.74049 0.07574 0.0
C3887 C 0.74102 0.7368 0.07099 0.0
C3888 C 0.72499 0.73519 0.08649 0.0
C3889 C 0.73155 0.72607 0.09279 0.0
C3890 C 0.74292 0.72242 0.08805 0.0
C3891 C 0.74758 0.7277 0.07731 0.0
H3892 H 0.30226 0.69067 0.11685 0.0
H3893 H 0.31408 0.72545 0.13169 0.0
H3894 H 0.29486 0.70095 0.09847 0.0
H3895 H 0.30713 0.73571 0.11302 0.0
H3896 H 0.28042 0.75081 0.08375 0.0
H3897 H 0.28832 0.741 0.10229 0.0
H3898 H 0.30236 0.71144 0.08049 0.0
H3899 H 0.2944 0.72121 0.06201 0.0
C3900 C 0.30327 0.70052 0.1162 0.0
C3901 C 0.30872 0.70722 0.1258 0.0
C3902 C 0.29917 0.70641 0.10557 0.0
C3903 C 0.30042 0.71917 0.10423 0.0
C3904 C 0.30591 0.72589 0.1138 0.0
C3905 C 0.31003 0.71998 0.12445 0.0
C3906 C 0.2853 0.74228 0.08291 0.0
C3907 C 0.28671 0.73676 0.07141 0.0
C3908 C 0.28984 0.73665 0.09354 0.0
C3909 C 0.29593 0.72539 0.0929 0.0
C3910 C 0.29751 0.71999 0.08136 0.0
C3911 C 0.29295 0.72559 0.07076 0.0
H3912 H 0.30983 0.33766 0.11231 0.0
H3913 H 0.3129 0.30309 0.1314 0.0
H3914 H 0.30226 0.32705 0.09418 0.0
H3915 H 0.30527 0.29245 0.11323 0.0
H3916 H 0.30205 0.27668 0.07433 0.0
H3917 H 0.31039 0.2871 0.09232 0.0
H3918 H 0.28424 0.31612 0.08719 0.0
H3919 H 0.27625 0.30598 0.06897 0.0
C3920 C 0.30881 0.32779 0.11267 0.0
C3921 C 0.31192 0.32125 0.12337 0.0
C3922 C 0.30445 0.3217 0.10226 0.0
C3923 C 0.30305 0.30889 0.10224 0.0
C3924 C 0.30635 0.30231 0.11286 0.0
C3925 C 0.31073 0.30842 0.12329 0.0
C3926 C 0.29815 0.28534 0.07697 0.0
C3927 C 0.28847 0.29048 0.07016 0.0
C3928 C 0.30285 0.29125 0.08738 0.0
C3929 C 0.29802 0.30248 0.09122 0.0
C3930 C 0.28831 0.30758 0.08443 0.0
C3931 C 0.28361 0.30167 0.07405 0.0
H3932 H 0.70053 0.31876 0.11684 0.0
H3933 H 0.7369 0.31795 0.13273 0.0
H3934 H 0.70812 0.3085 0.09862 0.0
H3935 H 0.74448 0.30767 0.11457 0.0
H3936 H 0.75654 0.30263 0.07488 0.0
H3937 H 0.74865 0.31211 0.09332 0.0
H3938 H 0.71607 0.28931 0.09112 0.0
H3939 H 0.72376 0.28016 0.07235 0.0
C3940 C 0.71011 0.31626 0.11652 0.0
C3941 C 0.71812 0.31926 0.12623 0.0
C3942 C 0.71447 0.31037 0.10606 0.0
C3943 C 0.72694 0.30731 0.10507 0.0
C3944 C 0.73488 0.3101 0.1149 0.0
C3945 C 0.73053 0.316 0.12532 0.0
C3946 C 0.74764 0.2997 0.07825 0.0
C3947 C 0.74078 0.29065 0.07207 0.0
C3948 C 0.74318 0.30504 0.08894 0.0
C3949 C 0.73172 0.30147 0.09375 0.0
C3950 C 0.72487 0.29237 0.08761 0.0
C3951 C 0.72935 0.28702 0.07692 0.0
H3952 H 0.70191 0.32213 0.91507 0.0
H3953 H 0.73604 0.31352 0.89729 0.0
H3954 H 0.709 0.31191 0.93371 0.0
H3955 H 0.74326 0.30359 0.91603 0.0
H3956 H 0.74727 0.27644 0.94793 0.0
H3957 H 0.73929 0.28552 0.92904 0.0
H3958 H 0.72449 0.31543 0.94979 0.0
H3959 H 0.73217 0.30619 0.96869 0.0
C3960 C 0.71089 0.31798 0.91512 0.0
C3961 C 0.71842 0.31866 0.9047 0.0
C3962 C 0.71501 0.31224 0.92584 0.0
C3963 C 0.72672 0.30697 0.92638 0.0
C3964 C 0.73416 0.30747 0.91589 0.0
C3965 C 0.73007 0.31327 0.90519 0.0
C3966 C 0.7422 0.28489 0.94846 0.0
C3967 C 0.74037 0.2906 0.95981 0.0
C3968 C 0.73773 0.29016 0.93763 0.0
C3969 C 0.73126 0.30121 0.9379 0.0
C3970 C 0.72933 0.30685 0.94927 0.0
C3971 C 0.73385 0.30163 0.96009 0.0
H3972 H 0.70475 0.73487 0.90148 0.0
H3973 H 0.71417 0.69792 0.91177 0.0
H3974 H 0.71526 0.74258 0.91964 0.0
H3975 H 0.72474 0.70566 0.93 0.0
H3976 H 0.7525 0.72573 0.95524 0.0
H3977 H 0.74261 0.71767 0.9368 0.0
H3978 H 0.71258 0.74261 0.94167 0.0
H3979 H 0.72241 0.75061 0.96008 0.0
C3980 C 0.70899 0.72837 0.90766 0.0
C3981 C 0.70851 0.71575 0.90519 0.0
C3982 C 0.71503 0.7328 0.91809 0.0
C3983 C 0.72078 0.72475 0.92636 0.0
C3984 C 0.72052 0.71214 0.92377 0.0
C3985 C 0.71446 0.7077 0.91332 0.0
C3986 C 0.74374 0.72943 0.95244 0.0
C3987 C 0.7383 0.73888 0.95915 0.0
C3988 C 0.73807 0.7248 0.94185 0.0
C3989 C 0.72682 0.72952 0.9377 0.0
C3990 C 0.72135 0.73891 0.94446 0.0
C3991 C 0.727 0.74352 0.95503 0.0
H3992 H 0.33627 0.71771 0.91863 0.0
H3993 H 0.30171 0.71676 0.89908 0.0
H3994 H 0.32593 0.72531 0.93674 0.0
H3995 H 0.29134 0.72443 0.91722 0.0
H3996 H 0.27523 0.72751 0.95592 0.0
H3997 H 0.28534 0.71909 0.93798 0.0
H3998 H 0.31615 0.74364 0.94377 0.0
H3999 H 0.3063 0.75169 0.96194 0.0
C4000 C 0.32647 0.71919 0.91817 0.0
C4001 C 0.31984 0.71668 0.90735 0.0
C4002 C 0.32053 0.72357 0.92856 0.0
C4003 C 0.3078 0.72558 0.92844 0.0
C4004 C 0.30113 0.72287 0.91769 0.0
C4005 C 0.30708 0.71846 0.90729 0.0
C4006 C 0.28421 0.73104 0.95343 0.0
C4007 C 0.28994 0.74028 0.96041 0.0
C4008 C 0.28995 0.7263 0.94305 0.0
C4009 C 0.30159 0.73066 0.93942 0.0
C4010 C 0.30728 0.73994 0.94637 0.0
C4011 C 0.30154 0.74468 0.95672 0.0
H4012 H 0.30776 0.30293 0.89606 0.0
H4013 H 0.31678 0.33435 0.91831 0.0
H4014 H 0.3003 0.29206 0.91423 0.0
H4015 H 0.30899 0.32365 0.93637 0.0
H4016 H 0.30514 0.29689 0.96831 0.0
H4017 H 0.3136 0.30671 0.95006 0.0
H4018 H 0.2832 0.29268 0.9286 0.0
H4019 H 0.27495 0.28249 0.9468 0.0
C4020 C 0.30821 0.3075 0.90483 0.0
C4021 C 0.31286 0.31953 0.9057 0.0
C4022 C 0.30381 0.30131 0.91523 0.0
C4023 C 0.304 0.30698 0.92678 0.0
C4024 C 0.3088 0.31895 0.92766 0.0
C4025 C 0.31315 0.32514 0.91727 0.0
C4026 C 0.30033 0.29576 0.95968 0.0
C4027 C 0.28935 0.28888 0.95905 0.0
C4028 C 0.30512 0.30152 0.94922 0.0
C4029 C 0.29908 0.30054 0.93784 0.0
C4030 C 0.28817 0.29355 0.93718 0.0
C4031 C 0.28335 0.28782 0.94765 0.0
H4032 H 0.61327 0.72276 0.19157 0.0
H4033 H 0.62796 0.71065 0.22637 0.0
H4034 H 0.59513 0.73033 0.20182 0.0
H4035 H 0.6095 0.71777 0.2366 0.0
H4036 H 0.58116 0.74484 0.25192 0.0
H4037 H 0.59934 0.73649 0.24217 0.0
H4038 H 0.57689 0.72355 0.21208 0.0
H4039 H 0.55878 0.73197 0.22176 0.0
C4040 C 0.61264 0.7217 0.20142 0.0
C4041 C 0.62215 0.71615 0.20813 0.0
C4042 C 0.60213 0.72591 0.2073 0.0
C4043 C 0.6008 0.72466 0.22006 0.0
C4044 C 0.61025 0.71901 0.22678 0.0
C4045 C 0.62079 0.71479 0.22089 0.0
C4046 C 0.58009 0.74011 0.24327 0.0
C4047 C 0.56851 0.73915 0.23759 0.0
C4048 C 0.59053 0.7353 0.23769 0.0
C4049 C 0.58963 0.72938 0.22628 0.0
C4050 C 0.578 0.72825 0.22073 0.0
C4051 C 0.56759 0.73308 0.22629 0.0
H4052 H 0.30233 0.63145 0.21824 0.0
H4053 H 0.33709 0.61291 0.22017 0.0
H4054 H 0.29192 0.61297 0.22567 0.0
H4055 H 0.32671 0.59445 0.22753 0.0
H4056 H 0.30636 0.56838 0.25327 0.0
H4057 H 0.31631 0.58692 0.24558 0.0
H4058 H 0.28644 0.59216 0.21996 0.0
H4059 H 0.27622 0.57385 0.22802 0.0
C4060 C 0.30773 0.62339 0.22013 0.0
C4061 C 0.32055 0.62369 0.21867 0.0
C4062 C 0.30177 0.61279 0.22438 0.0
C4063 C 0.30848 0.60223 0.22727 0.0
C4064 C 0.32128 0.60248 0.22564 0.0
C4065 C 0.32723 0.61308 0.2214 0.0
C4066 C 0.30183 0.57355 0.2461 0.0
C4067 C 0.29046 0.56962 0.24129 0.0
C4068 C 0.30762 0.58411 0.24157 0.0
C4069 C 0.30222 0.59102 0.23211 0.0
C4070 C 0.29082 0.58712 0.22733 0.0
C4071 C 0.28502 0.57654 0.23185 0.0
H4072 H 0.41651 0.3118 0.19197 0.0
H4073 H 0.39718 0.3135 0.22635 0.0
H4074 H 0.43455 0.30405 0.20259 0.0
H4075 H 0.41526 0.30571 0.23702 0.0
H4076 H 0.45415 0.30224 0.2533 0.0
H4077 H 0.43627 0.3108 0.24292 0.0
H4078 H 0.44126 0.28572 0.21294 0.0
H4079 H 0.45936 0.27751 0.22308 0.0
C4080 C 0.41608 0.31045 0.20179 0.0
C4081 C 0.40534 0.3132 0.20828 0.0
C4082 C 0.42644 0.30599 0.2079 0.0
C4083 C 0.42636 0.30415 0.22067 0.0
C4084 C 0.4157 0.30713 0.2272 0.0
C4085 C 0.40532 0.3116 0.22108 0.0
C4086 C 0.45149 0.29863 0.24445 0.0
C4087 C 0.45823 0.28918 0.23904 0.0
C4088 C 0.44115 0.30345 0.23855 0.0
C4089 C 0.4373 0.29898 0.22707 0.0
C4090 C 0.44402 0.28951 0.2217 0.0
C4091 C 0.45433 0.28468 0.22759 0.0
H4092 H 0.69084 0.41287 0.22518 0.0
H4093 H 0.72557 0.39867 0.21311 0.0
H4094 H 0.70126 0.43109 0.23294 0.0
H4095 H 0.736 0.417 0.22084 0.0
H4096 H 0.7479 0.45764 0.22534 0.0
H4097 H 0.73807 0.43917 0.21725 0.0
H4098 H 0.71527 0.43679 0.24946 0.0
H4099 H 0.72512 0.45516 0.25757 0.0
C4100 C 0.70072 0.41358 0.22426 0.0
C4101 C 0.70736 0.40423 0.2186 0.0
C4102 C 0.7067 0.42405 0.22871 0.0
C4103 C 0.71948 0.42548 0.2276 0.0
C4104 C 0.72613 0.41624 0.22175 0.0
C4105 C 0.72014 0.40574 0.2173 0.0
C4106 C 0.74089 0.4531 0.23076 0.0
C4107 C 0.73727 0.45796 0.24208 0.0
C4108 C 0.73524 0.44251 0.22611 0.0
C4109 C 0.72581 0.43653 0.23266 0.0
C4110 C 0.72233 0.44129 0.24406 0.0
C4111 C 0.72798 0.45184 0.24871 0.0
H4112 H 0.6302 0.31525 0.80377 0.0
H4113 H 0.61513 0.30314 0.83839 0.0
H4114 H 0.61152 0.30832 0.79333 0.0
H4115 H 0.59675 0.29577 0.82792 0.0
H4116 H 0.56036 0.29513 0.80753 0.0
H4117 H 0.57881 0.30318 0.81743 0.0
H4118 H 0.60079 0.28954 0.78775 0.0
H4119 H 0.58228 0.28155 0.77778 0.0
C4120 C 0.6229 0.31114 0.80916 0.0
C4121 C 0.62419 0.30974 0.82193 0.0
C4122 C 0.61225 0.30704 0.80316 0.0
C4123 C 0.60262 0.30147 0.80977 0.0
C4124 C 0.6039 0.30014 0.82254 0.0
C4125 C 0.61453 0.30423 0.82853 0.0
C4126 C 0.56914 0.29378 0.80314 0.0
C4127 C 0.56985 0.28762 0.7919 0.0
C4128 C 0.57972 0.2984 0.80883 0.0
C4129 C 0.59131 0.29696 0.80343 0.0
C4130 C 0.59201 0.29096 0.79209 0.0
C4131 C 0.5814 0.28635 0.78638 0.0
H4132 H 0.7 0.61212 0.82323 0.0
H4133 H 0.7335 0.63118 0.81339 0.0
H4134 H 0.70721 0.59383 0.81288 0.0
H4135 H 0.74088 0.61279 0.8034 0.0
H4136 H 0.74567 0.5812 0.77672 0.0
H4137 H 0.73732 0.59969 0.78577 0.0
H4138 H 0.7227 0.57818 0.81577 0.0
H4139 H 0.73068 0.55967 0.80651 0.0
C4140 C 0.70887 0.61244 0.8188 0.0
C4141 C 0.71618 0.62313 0.81918 0.0
C4142 C 0.71307 0.6019 0.81298 0.0
C4143 C 0.72466 0.6018 0.80734 0.0
C4144 C 0.73187 0.61256 0.80754 0.0
C4145 C 0.72769 0.62307 0.8134 0.0
C4146 C 0.74055 0.58039 0.78517 0.0
C4147 C 0.73888 0.56893 0.79089 0.0
C4148 C 0.73587 0.59102 0.79044 0.0
C4149 C 0.72935 0.59045 0.80153 0.0
C4150 C 0.72756 0.57896 0.80717 0.0
C4151 C 0.73227 0.56835 0.80193 0.0
H4152 H 0.41295 0.70681 0.82922 0.0
H4153 H 0.39436 0.71624 0.79548 0.0
H4154 H 0.43149 0.71722 0.82196 0.0
H4155 H 0.41301 0.72633 0.78807 0.0
H4156 H 0.44519 0.75321 0.78331 0.0
H4157 H 0.42638 0.74414 0.7916 0.0
H4158 H 0.44724 0.7141 0.80649 0.0
H4159 H 0.46607 0.72335 0.79854 0.0
C4160 C 0.41279 0.71118 0.82029 0.0
C4161 C 0.40216 0.71066 0.81293 0.0
C4162 C 0.42346 0.71703 0.81607 0.0
C4163 C 0.42377 0.72257 0.8044 0.0
C4164 C 0.41308 0.72225 0.79714 0.0
C4165 C 0.40242 0.71635 0.80133 0.0
C4166 C 0.44578 0.74474 0.78847 0.0
C4167 C 0.45715 0.739 0.79023 0.0
C4168 C 0.43497 0.73947 0.79312 0.0
C4169 C 0.43528 0.72837 0.7997 0.0
C4170 C 0.44667 0.72271 0.80158 0.0
C4171 C 0.45746 0.72795 0.79689 0.0
H4172 H 0.30292 0.39925 0.81728 0.0
H4173 H 0.3377 0.41402 0.80496 0.0
H4174 H 0.29263 0.41755 0.80966 0.0
H4175 H 0.32744 0.43223 0.79734 0.0
H4176 H 0.30365 0.45648 0.77298 0.0
H4177 H 0.31351 0.43821 0.78103 0.0
H4178 H 0.29063 0.43952 0.81319 0.0
H4179 H 0.28078 0.45787 0.80515 0.0
C4180 C 0.30839 0.40644 0.81306 0.0
C4181 C 0.32114 0.40509 0.81166 0.0
C4182 C 0.30249 0.41694 0.80868 0.0
C4183 C 0.30918 0.42634 0.80279 0.0
C4184 C 0.32195 0.42507 0.80158 0.0
C4185 C 0.32784 0.4146 0.80597 0.0
C4186 C 0.30078 0.45296 0.78182 0.0
C4187 C 0.29144 0.45873 0.78843 0.0
C4188 C 0.30644 0.44246 0.78644 0.0
C4189 C 0.30292 0.4374 0.7978 0.0
C4190 C 0.29348 0.44307 0.80435 0.0
C4191 C 0.28782 0.4536 0.79973 0.0
H4192 H 0.70881 0.61531 0.20135 0.0
H4193 H 0.70829 0.63002 0.23799 0.0
H4194 H 0.7192 0.59711 0.20904 0.0
H4195 H 0.71868 0.61189 0.24566 0.0
H4196 H 0.72418 0.57207 0.25721 0.0
H4197 H 0.71452 0.59046 0.24921 0.0
H4198 H 0.73834 0.58977 0.21771 0.0
H4199 H 0.7477 0.57106 0.22549 0.0
C4200 C 0.71104 0.61474 0.21102 0.0
C4201 C 0.70763 0.62412 0.21905 0.0
C4202 C 0.717 0.60429 0.21543 0.0
C4203 C 0.71972 0.60297 0.22799 0.0
C4204 C 0.71652 0.61247 0.23597 0.0
C4205 C 0.71056 0.62288 0.23157 0.0
C4206 C 0.7273 0.57577 0.24852 0.0
C4207 C 0.73671 0.57003 0.24199 0.0
C4208 C 0.72185 0.58642 0.244 0.0
C4209 C 0.72566 0.59166 0.23282 0.0
C4210 C 0.73509 0.58595 0.22629 0.0
C4211 C 0.74056 0.57529 0.23083 0.0
H4212 H 0.72514 0.39455 0.80865 0.0
H4213 H 0.69286 0.41597 0.8156 0.0
H4214 H 0.73589 0.41292 0.80136 0.0
H4215 H 0.70348 0.43424 0.80801 0.0
H4216 H 0.73 0.46665 0.80511 0.0
H4217 H 0.72031 0.44821 0.81346 0.0
H4218 H 0.73513 0.42709 0.78377 0.0
H4219 H 0.74514 0.44548 0.77561 0.0
C4220 C 0.72036 0.40319 0.80868 0.0
C4221 C 0.70813 0.40379 0.81269 0.0
C4222 C 0.72648 0.41368 0.80438 0.0
C4223 C 0.72053 0.42504 0.80407 0.0
C4224 C 0.70836 0.42566 0.80823 0.0
C4225 C 0.70223 0.41516 0.81246 0.0
C4226 C 0.73132 0.45805 0.80044 0.0
C4227 C 0.73835 0.45755 0.78969 0.0
C4228 C 0.72565 0.4475 0.80516 0.0
C4229 C 0.7269 0.43618 0.79927 0.0
C4230 C 0.73406 0.43564 0.7886 0.0
C4231 C 0.73969 0.44621 0.78385 0.0
H4232 H 0.61292 0.70452 0.82869 0.0
H4233 H 0.63128 0.71427 0.79498 0.0
H4234 H 0.59457 0.71513 0.82165 0.0
H4235 H 0.61283 0.72454 0.78778 0.0
H4236 H 0.58157 0.75171 0.7833 0.0
H4237 H 0.60015 0.74233 0.79145 0.0
H4238 H 0.57839 0.71257 0.80637 0.0
H4239 H 0.55979 0.72215 0.79859 0.0
C4240 C 0.61308 0.70899 0.81981 0.0
C4241 C 0.62358 0.7085 0.8124 0.0
C4242 C 0.6025 0.71496 0.81571 0.0
C4243 C 0.60218 0.72066 0.80412 0.0
C4244 C 0.61276 0.72035 0.7968 0.0
C4245 C 0.62331 0.71434 0.80088 0.0
C4246 C 0.58073 0.74324 0.78844 0.0
C4247 C 0.56917 0.73768 0.79026 0.0
C4248 C 0.59141 0.73779 0.79301 0.0
C4249 C 0.59079 0.72667 0.79955 0.0
C4250 C 0.57921 0.72119 0.80148 0.0
C4251 C 0.56855 0.72661 0.79689 0.0
H4252 H 0.31065 0.63177 0.80496 0.0
H4253 H 0.30969 0.61205 0.83936 0.0
H4254 H 0.30312 0.61352 0.79437 0.0
H4255 H 0.30222 0.59384 0.82881 0.0
H4256 H 0.27602 0.56815 0.80856 0.0
H4257 H 0.28392 0.58644 0.81864 0.0
H4258 H 0.30867 0.59292 0.78842 0.0
H4259 H 0.30038 0.57485 0.77809 0.0
C4260 C 0.30897 0.62351 0.81025 0.0
C4261 C 0.31071 0.62341 0.82303 0.0
C4262 C 0.30464 0.61304 0.80417 0.0
C4263 C 0.30197 0.60221 0.81074 0.0
C4264 C 0.30393 0.60208 0.82349 0.0
C4265 C 0.30823 0.61253 0.82955 0.0
C4266 C 0.28304 0.57354 0.80398 0.0
C4267 C 0.28753 0.57002 0.79248 0.0
C4268 C 0.2877 0.58396 0.80984 0.0
C4269 C 0.29699 0.59115 0.80438 0.0
C4270 C 0.30145 0.58767 0.79286 0.0
C4271 C 0.29679 0.57722 0.78699 0.0
H4272 H 0.39926 0.31718 0.80233 0.0
H4273 H 0.4139 0.30484 0.83706 0.0
H4274 H 0.41776 0.31017 0.79208 0.0
H4275 H 0.43209 0.29741 0.8268 0.0
H4276 H 0.46851 0.29618 0.80698 0.0
H4277 H 0.45032 0.30448 0.81662 0.0
H4278 H 0.42803 0.29146 0.78644 0.0
H4279 H 0.44629 0.28322 0.77674 0.0
C4280 C 0.40643 0.31301 0.80779 0.0
C4281 C 0.40504 0.31156 0.82054 0.0
C4282 C 0.41698 0.30886 0.80189 0.0
C4283 C 0.42645 0.3032 0.80859 0.0
C4284 C 0.42508 0.30185 0.82134 0.0
C4285 C 0.41455 0.30598 0.82722 0.0
C4286 C 0.45972 0.29502 0.80242 0.0
C4287 C 0.45887 0.28895 0.79111 0.0
C4288 C 0.44927 0.29978 0.80796 0.0
C4289 C 0.43765 0.29859 0.80237 0.0
C4290 C 0.43683 0.29269 0.79095 0.0
C4291 C 0.44731 0.28794 0.78539 0.0
H4292 H 0.32289 0.40065 0.2372 0.0
H4293 H 0.31474 0.41154 0.19995 0.0
H4294 H 0.31254 0.41872 0.24473 0.0
H4295 H 0.30431 0.42964 0.20752 0.0
H4296 H 0.27646 0.45461 0.22667 0.0
H4297 H 0.28623 0.43627 0.21883 0.0
H4298 H 0.31561 0.44075 0.24519 0.0
H4299 H 0.30592 0.45908 0.25297 0.0
C4300 C 0.31896 0.40693 0.2306 0.0
C4301 C 0.31975 0.40465 0.21795 0.0
C4302 C 0.31302 0.41732 0.23492 0.0
C4303 C 0.30766 0.42571 0.22674 0.0
C4304 C 0.30823 0.42332 0.21409 0.0
C4305 C 0.3142 0.41292 0.20975 0.0
C4306 C 0.28506 0.45175 0.23073 0.0
C4307 C 0.29036 0.45834 0.2405 0.0
C4308 C 0.29066 0.44122 0.22623 0.0
C4309 C 0.30169 0.43698 0.2314 0.0
C4310 C 0.30701 0.4436 0.24113 0.0
C4311 C 0.30143 0.45413 0.24561 0.0
H4312 H 0.6176 0.32796 0.21465 0.0
H4313 H 0.62718 0.29076 0.20599 0.0
H4314 H 0.59925 0.32051 0.22521 0.0
H4315 H 0.60885 0.28335 0.21648 0.0
H4316 H 0.5681 0.27579 0.22362 0.0
H4317 H 0.58667 0.28341 0.21372 0.0
H4318 H 0.59251 0.30891 0.24332 0.0
H4319 H 0.57393 0.30123 0.2533 0.0
C4320 C 0.61587 0.31819 0.2151 0.0
C4321 C 0.62385 0.30998 0.20939 0.0
C4322 C 0.60534 0.31392 0.22116 0.0
C4323 C 0.60252 0.30133 0.22164 0.0
C4324 C 0.6106 0.29312 0.21609 0.0
C4325 C 0.62112 0.29738 0.21006 0.0
C4326 C 0.5734 0.28293 0.22811 0.0
C4327 C 0.56951 0.28785 0.2393 0.0
C4328 C 0.58406 0.28731 0.22241 0.0
C4329 C 0.59113 0.29675 0.22774 0.0
C4330 C 0.58721 0.30174 0.23889 0.0
C4331 C 0.57655 0.29733 0.24461 0.0
H4332 H 0.39716 0.71366 0.2265 0.0
H4333 H 0.41153 0.72617 0.19173 0.0
H4334 H 0.4156 0.7214 0.23679 0.0
H4335 H 0.42988 0.73394 0.20201 0.0
H4336 H 0.45444 0.75821 0.22584 0.0
H4337 H 0.43588 0.75026 0.21606 0.0
H4338 H 0.43774 0.7177 0.23858 0.0
H4339 H 0.45638 0.72562 0.24834 0.0
C4340 C 0.40428 0.71796 0.22103 0.0
C4341 C 0.40281 0.71934 0.20829 0.0
C4342 C 0.41485 0.7224 0.22694 0.0
C4343 C 0.42419 0.72836 0.22024 0.0
C4344 C 0.42276 0.72961 0.20749 0.0
C4345 C 0.41223 0.72516 0.20159 0.0
C4346 C 0.45096 0.74931 0.22865 0.0
C4347 C 0.45696 0.74254 0.23784 0.0
C4348 C 0.4403 0.74475 0.22304 0.0
C4349 C 0.43535 0.73331 0.22648 0.0
C4350 C 0.44123 0.72661 0.23581 0.0
C4351 C 0.45192 0.73116 0.24141 0.0
loop_
_geom_bond_atom_site_label_1
_geom_bond_atom_site_label_2
_geom_bond_distance
_geom_bond_site_symmetry_2
_ccdc_geom_bond_type
C0 C1 1.264 . S
C0 C5 1.479 . S
C0 C10 1.465 . S
C1 C0 1.264 . S
C1 C3 1.339 . S
C1 H28 0.931 . S
C2 C3 1.395 . S
C2 C4 1.320 . S
C3 C1 1.339 . S
C3 C2 1.395 . S
C3 H29 0.929 . S
C4 C2 1.320 . S
C4 C5 1.405 . S
C4 H30 0.930 . S
C5 C0 1.479 . S
C5 C4 1.405 . S
C5 H31 0.931 . S
U6 O7 2.454 . S
U6 O8 2.458 . S
U6 C9 2.984 . S
U6 C10 2.847 . S
U6 C23 2.882 . S
U6 O24 2.441 . S
U6 O25 2.420 . S
U6 O26 2.455 . S
U6 O27 2.449 . S
O7 U6 2.454 . S
O7 C9 1.353 . S
O8 U6 2.458 . S
O8 C9 1.286 . S
C9 U6 2.984 . S
C9 O7 1.353 . S
C9 O8 1.286 . S
C9 C11 1.363 . S
C10 C0 1.465 . S
C10 U6 2.847 . S
C10 O24 1.249 . S
C10 O25 1.202 . S
C11 C9 1.363 . S
C11 C13 1.408 . S
C11 C16 1.342 . S
C12 C13 1.310 . S
C12 C15 1.461 . S
C12 H32 0.932 . S
C13 C11 1.408 . S
C13 C12 1.310 . S
C13 H33 0.930 . S
C14 C15 1.474 . S
C14 C16 1.285 . S
C14 H34 0.929 . S
C15 C12 1.461 . S
C15 C14 1.474 . S
C16 C11 1.342 . S
C16 C14 1.285 . S
C16 H35 0.930 . S
C17 C20 1.424 . S
C17 C22 1.245 . S
C17 C23 1.428 . S
C18 C21 1.260 . S
C18 C22 1.477 . S
C18 H36 0.932 . S
C19 C20 1.384 . S
C19 C21 1.479 . S
C19 H37 0.929 . S
C20 C17 1.424 . S
C20 C19 1.384 . S
C20 H38 0.928 . S
C21 C18 1.260 . S
C21 C19 1.479 . S
C22 C17 1.245 . S
C22 C18 1.477 . S
C22 H39 0.932 . S
C23 U6 2.882 . S
C23 C17 1.428 . S
C23 O26 1.301 . S
C23 O27 1.282 . S
O24 U6 2.441 . S
O24 C10 1.249 . S
O25 U6 2.420 . S
O25 C10 1.202 . S
O26 U6 2.455 . S
O26 C23 1.301 . S
O27 U6 2.449 . S
O27 C23 1.282 . S
H28 C1 0.931 . S
H29 C3 0.929 . S
H30 C4 0.930 . S
H31 C5 0.931 . S
H32 C12 0.932 . S
H33 C13 0.930 . S
H34 C14 0.929 . S
H35 C16 0.930 . S
H36 C18 0.932 . S
H37 C19 0.929 . S
H38 C20 0.928 . S
H39 C22 0.932 . S
C40 C41 1.264 . S
C40 C45 1.479 . S
C40 C50 1.465 . S
C41 C40 1.264 . S
C41 C43 1.339 . S
C41 H68 0.931 . S
C42 C43 1.395 . S
C42 C44 1.320 . S
C43 C41 1.339 . S
C43 C42 1.395 . S
C43 H69 0.929 . S
C44 C42 1.320 . S
C44 C45 1.405 . S
C44 H70 0.930 . S
C45 C40 1.479 . S
C45 C44 1.405 . S
C45 H71 0.931 . S
U46 O47 2.454 . S
U46 O48 2.458 . S
U46 C49 2.984 . S
U46 C50 2.847 . S
U46 C63 2.882 . S
U46 O64 2.441 . S
U46 O65 2.420 . S
U46 O66 2.455 . S
U46 O67 2.449 . S
O47 U46 2.454 . S
O47 C49 1.353 . S
O48 U46 2.458 . S
O48 C49 1.286 . S
C49 U46 2.984 . S
C49 O47 1.353 . S
C49 O48 1.286 . S
C49 C51 1.363 . S
C50 C40 1.465 . S
C50 U46 2.847 . S
C50 O64 1.249 . S
C50 O65 1.202 . S
C51 C49 1.363 . S
C51 C53 1.408 . S
C51 C56 1.342 . S
C52 C53 1.310 . S
C52 C55 1.461 . S
C52 H72 0.932 . S
C53 C51 1.408 . S
C53 C52 1.310 . S
C53 H73 0.930 . S
C54 C55 1.474 . S
C54 C56 1.285 . S
C54 H74 0.929 . S
C55 C52 1.461 . S
C55 C54 1.474 . S
C56 C51 1.342 . S
C56 C54 1.285 . S
C56 H75 0.930 . S
C57 C60 1.424 . S
C57 C62 1.245 . S
C57 C63 1.428 . S
C58 C61 1.260 . S
C58 C62 1.477 . S
C58 H76 0.932 . S
C59 C60 1.384 . S
C59 C61 1.479 . S
C59 H77 0.929 . S
C60 C57 1.424 . S
C60 C59 1.384 . S
C60 H78 0.928 . S
C61 C58 1.260 . S
C61 C59 1.479 . S
C62 C57 1.245 . S
C62 C58 1.477 . S
C62 H79 0.932 . S
C63 U46 2.882 . S
C63 C57 1.428 . S
C63 O66 1.301 . S
C63 O67 1.282 . S
O64 U46 2.441 . S
O64 C50 1.249 . S
O65 U46 2.420 . S
O65 C50 1.202 . S
O66 U46 2.455 . S
O66 C63 1.301 . S
O67 U46 2.449 . S
O67 C63 1.282 . S
H68 C41 0.931 . S
H69 C43 0.929 . S
H70 C44 0.930 . S
H71 C45 0.931 . S
H72 C52 0.932 . S
H73 C53 0.930 . S
H74 C54 0.929 . S
H75 C56 0.930 . S
H76 C58 0.932 . S
H77 C59 0.929 . S
H78 C60 0.928 . S
H79 C62 0.932 . S
C80 C81 1.264 . S
C80 C85 1.479 . S
C80 C90 1.465 . S
C81 C80 1.264 . S
C81 C83 1.339 . S
C81 H108 0.931 . S
C82 C83 1.395 . S
C82 C84 1.320 . S
C83 C81 1.339 . S
C83 C82 1.395 . S
C83 H109 0.929 . S
C84 C82 1.320 . S
C84 C85 1.405 . S
C84 H110 0.930 . S
C85 C80 1.479 . S
C85 C84 1.405 . S
C85 H111 0.931 . S
U86 O87 2.454 . S
U86 O88 2.458 . S
U86 C89 2.984 . S
U86 C90 2.847 . S
U86 C103 2.882 . S
U86 O104 2.441 . S
U86 O105 2.420 . S
U86 O106 2.455 . S
U86 O107 2.449 . S
O87 U86 2.454 . S
O87 C89 1.353 . S
O88 U86 2.458 . S
O88 C89 1.286 . S
C89 U86 2.984 . S
C89 O87 1.353 . S
C89 O88 1.286 . S
C89 C91 1.363 . S
C90 C80 1.465 . S
C90 U86 2.847 . S
C90 O104 1.249 . S
C90 O105 1.202 . S
C91 C89 1.363 . S
C91 C93 1.408 . S
C91 C96 1.342 . S
C92 C93 1.310 . S
C92 C95 1.461 . S
C92 H112 0.932 . S
C93 C91 1.408 . S
C93 C92 1.310 . S
C93 H113 0.930 . S
C94 C95 1.474 . S
C94 C96 1.285 . S
C94 H114 0.929 . S
C95 C92 1.461 . S
C95 C94 1.474 . S
C96 C91 1.342 . S
C96 C94 1.285 . S
C96 H115 0.930 . S
C97 C100 1.424 . S
C97 C102 1.245 . S
C97 C103 1.428 . S
C98 C101 1.260 . S
C98 C102 1.477 . S
C98 H116 0.932 . S
C99 C100 1.384 . S
C99 C101 1.479 . S
C99 H117 0.929 . S
C100 C97 1.424 . S
C100 C99 1.384 . S
C100 H118 0.928 . S
C101 C98 1.260 . S
C101 C99 1.479 . S
C102 C97 1.245 . S
C102 C98 1.477 . S
C102 H119 0.932 . S
C103 U86 2.882 . S
C103 C97 1.428 . S
C103 O106 1.301 . S
C103 O107 1.282 . S
O104 U86 2.441 . S
O104 C90 1.249 . S
O105 U86 2.420 . S
O105 C90 1.202 . S
O106 U86 2.455 . S
O106 C103 1.301 . S
O107 U86 2.449 . S
O107 C103 1.282 . S
H108 C81 0.931 . S
H109 C83 0.929 . S
H110 C84 0.930 . S
H111 C85 0.931 . S
H112 C92 0.932 . S
H113 C93 0.930 . S
H114 C94 0.929 . S
H115 C96 0.930 . S
H116 C98 0.932 . S
H117 C99 0.929 . S
H118 C100 0.928 . S
H119 C102 0.932 . S
C120 C121 1.264 . S
C120 C125 1.479 . S
C120 C130 1.465 . S
C121 C120 1.264 . S
C121 C123 1.339 . S
C121 H148 0.931 . S
C122 C123 1.395 . S
C122 C124 1.320 . S
C123 C121 1.339 . S
C123 C122 1.395 . S
C123 H149 0.929 . S
C124 C122 1.320 . S
C124 C125 1.405 . S
C124 H150 0.930 . S
C125 C120 1.479 . S
C125 C124 1.405 . S
C125 H151 0.931 . S
U126 O127 2.454 . S
U126 O128 2.458 . S
U126 C129 2.984 . S
U126 C130 2.847 . S
U126 C143 2.882 . S
U126 O144 2.441 . S
U126 O145 2.420 . S
U126 O146 2.455 . S
U126 O147 2.449 . S
O127 U126 2.454 . S
O127 C129 1.353 . S
O128 U126 2.458 . S
O128 C129 1.286 . S
C129 U126 2.984 . S
C129 O127 1.353 . S
C129 O128 1.286 . S
C129 C131 1.363 . S
C130 C120 1.465 . S
C130 U126 2.847 . S
C130 O144 1.249 . S
C130 O145 1.202 . S
C131 C129 1.363 . S
C131 C133 1.408 . S
C131 C136 1.342 . S
C132 C133 1.310 . S
C132 C135 1.461 . S
C132 H152 0.932 . S
C133 C131 1.408 . S
C133 C132 1.310 . S
C133 H153 0.930 . S
C134 C135 1.474 . S
C134 C136 1.285 . S
C134 H154 0.929 . S
C135 C132 1.461 . S
C135 C134 1.474 . S
C136 C131 1.342 . S
C136 C134 1.285 . S
C136 H155 0.930 . S
C137 C140 1.424 . S
C137 C142 1.245 . S
C137 C143 1.428 . S
C138 C141 1.260 . S
C138 C142 1.477 . S
C138 H156 0.932 . S
C139 C140 1.384 . S
C139 C141 1.479 . S
C139 H157 0.929 . S
C140 C137 1.424 . S
C140 C139 1.384 . S
C140 H158 0.928 . S
C141 C138 1.260 . S
C141 C139 1.479 . S
C142 C137 1.245 . S
C142 C138 1.477 . S
C142 H159 0.932 . S
C143 U126 2.882 . S
C143 C137 1.428 . S
C143 O146 1.301 . S
C143 O147 1.282 . S
O144 U126 2.441 . S
O144 C130 1.249 . S
O145 U126 2.420 . S
O145 C130 1.202 . S
O146 U126 2.455 . S
O146 C143 1.301 . S
O147 U126 2.449 . S
O147 C143 1.282 . S
H148 C121 0.931 . S
H149 C123 0.929 . S
H150 C124 0.930 . S
H151 C125 0.931 . S
H152 C132 0.932 . S
H153 C133 0.930 . S
H154 C134 0.929 . S
H155 C136 0.930 . S
H156 C138 0.932 . S
H157 C139 0.929 . S
H158 C140 0.928 . S
H159 C142 0.932 . S
C160 C161 1.264 . S
C160 C165 1.479 . S
C160 C170 1.465 . S
C161 C160 1.264 . S
C161 C163 1.339 . S
C161 H188 0.931 . S
C162 C163 1.395 . S
C162 C164 1.320 . S
C163 C161 1.339 . S
C163 C162 1.395 . S
C163 H189 0.929 . S
C164 C162 1.320 . S
C164 C165 1.405 . S
C164 H190 0.930 . S
C165 C160 1.479 . S
C165 C164 1.405 . S
C165 H191 0.931 . S
U166 O167 2.454 . S
U166 O168 2.458 . S
U166 C169 2.984 . S
U166 C170 2.847 . S
U166 C183 2.882 . S
U166 O184 2.441 . S
U166 O185 2.420 . S
U166 O186 2.455 . S
U166 O187 2.449 . S
O167 U166 2.454 . S
O167 C169 1.353 . S
O168 U166 2.458 . S
O168 C169 1.286 . S
C169 U166 2.984 . S
C169 O167 1.353 . S
C169 O168 1.286 . S
C169 C171 1.363 . S
C170 C160 1.465 . S
C170 U166 2.847 . S
C170 O184 1.249 . S
C170 O185 1.202 . S
C171 C169 1.363 . S
C171 C173 1.408 . S
C171 C176 1.342 . S
C172 C173 1.310 . S
C172 C175 1.461 . S
C172 H192 0.932 . S
C173 C171 1.408 . S
C173 C172 1.310 . S
C173 H193 0.930 . S
C174 C175 1.474 . S
C174 C176 1.285 . S
C174 H194 0.929 . S
C175 C172 1.461 . S
C175 C174 1.474 . S
C176 C171 1.342 . S
C176 C174 1.285 . S
C176 H195 0.930 . S
C177 C180 1.424 . S
C177 C182 1.245 . S
C177 C183 1.428 . S
C178 C181 1.260 . S
C178 C182 1.477 . S
C178 H196 0.932 . S
C179 C180 1.384 . S
C179 C181 1.479 . S
C179 H197 0.929 . S
C180 C177 1.424 . S
C180 C179 1.384 . S
C180 H198 0.928 . S
C181 C178 1.260 . S
C181 C179 1.479 . S
C182 C177 1.245 . S
C182 C178 1.477 . S
C182 H199 0.932 . S
C183 U166 2.882 . S
C183 C177 1.428 . S
C183 O186 1.301 . S
C183 O187 1.282 . S
O184 U166 2.441 . S
O184 C170 1.249 . S
O185 U166 2.420 . S
O185 C170 1.202 . S
O186 U166 2.455 . S
O186 C183 1.301 . S
O187 U166 2.449 . S
O187 C183 1.282 . S
H188 C161 0.931 . S
H189 C163 0.929 . S
H190 C164 0.930 . S
H191 C165 0.931 . S
H192 C172 0.932 . S
H193 C173 0.930 . S
H194 C174 0.929 . S
H195 C176 0.930 . S
H196 C178 0.932 . S
H197 C179 0.929 . S
H198 C180 0.928 . S
H199 C182 0.932 . S
C200 C201 1.264 . S
C200 C205 1.479 . S
C200 C210 1.465 . S
C201 C200 1.264 . S
C201 C203 1.339 . S
C201 H228 0.931 . S
C202 C203 1.395 . S
C202 C204 1.320 . S
C203 C201 1.339 . S
C203 C202 1.395 . S
C203 H229 0.929 . S
C204 C202 1.320 . S
C204 C205 1.405 . S
C204 H230 0.930 . S
C205 C200 1.479 . S
C205 C204 1.405 . S
C205 H231 0.931 . S
U206 O207 2.454 . S
U206 O208 2.458 . S
U206 C209 2.984 . S
U206 C210 2.847 . S
U206 C223 2.882 . S
U206 O224 2.441 . S
U206 O225 2.420 . S
U206 O226 2.455 . S
U206 O227 2.449 . S
O207 U206 2.454 . S
O207 C209 1.353 . S
O208 U206 2.458 . S
O208 C209 1.286 . S
C209 U206 2.984 . S
C209 O207 1.353 . S
C209 O208 1.286 . S
C209 C211 1.363 . S
C210 C200 1.465 . S
C210 U206 2.847 . S
C210 O224 1.249 . S
C210 O225 1.202 . S
C211 C209 1.363 . S
C211 C213 1.408 . S
C211 C216 1.342 . S
C212 C213 1.310 . S
C212 C215 1.461 . S
C212 H232 0.932 . S
C213 C211 1.408 . S
C213 C212 1.310 . S
C213 H233 0.930 . S
C214 C215 1.474 . S
C214 C216 1.285 . S
C214 H234 0.929 . S
C215 C212 1.461 . S
C215 C214 1.474 . S
C216 C211 1.342 . S
C216 C214 1.285 . S
C216 H235 0.930 . S
C217 C220 1.424 . S
C217 C222 1.245 . S
C217 C223 1.428 . S
C218 C221 1.260 . S
C218 C222 1.477 . S
C218 H236 0.932 . S
C219 C220 1.384 . S
C219 C221 1.479 . S
C219 H237 0.929 . S
C220 C217 1.424 . S
C220 C219 1.384 . S
C220 H238 0.928 . S
C221 C218 1.260 . S
C221 C219 1.479 . S
C222 C217 1.245 . S
C222 C218 1.477 . S
C222 H239 0.932 . S
C223 U206 2.882 . S
C223 C217 1.428 . S
C223 O226 1.301 . S
C223 O227 1.282 . S
O224 U206 2.441 . S
O224 C210 1.249 . S
O225 U206 2.420 . S
O225 C210 1.202 . S
O226 U206 2.455 . S
O226 C223 1.301 . S
O227 U206 2.449 . S
O227 C223 1.282 . S
H228 C201 0.931 . S
H229 C203 0.929 . S
H230 C204 0.930 . S
H231 C205 0.931 . S
H232 C212 0.932 . S
H233 C213 0.930 . S
H234 C214 0.929 . S
H235 C216 0.930 . S
H236 C218 0.932 . S
H237 C219 0.929 . S
H238 C220 0.928 . S
H239 C222 0.932 . S
C240 C241 1.264 . S
C240 C245 1.479 . S
C240 C250 1.465 . S
C241 C240 1.264 . S
C241 C243 1.339 . S
C241 H268 0.931 . S
C242 C243 1.395 . S
C242 C244 1.320 . S
C243 C241 1.339 . S
C243 C242 1.395 . S
C243 H269 0.929 . S
C244 C242 1.320 . S
C244 C245 1.405 . S
C244 H270 0.930 . S
C245 C240 1.479 . S
C245 C244 1.405 . S
C245 H271 0.931 . S
U246 O247 2.454 . S
U246 O248 2.458 . S
U246 C249 2.984 . S
U246 C250 2.847 . S
U246 C263 2.882 . S
U246 O264 2.441 . S
U246 O265 2.420 . S
U246 O266 2.455 . S
U246 O267 2.449 . S
O247 U246 2.454 . S
O247 C249 1.353 . S
O248 U246 2.458 . S
O248 C249 1.286 . S
C249 U246 2.984 . S
C249 O247 1.353 . S
C249 O248 1.286 . S
C249 C251 1.363 . S
C250 C240 1.465 . S
C250 U246 2.847 . S
C250 O264 1.249 . S
C250 O265 1.202 . S
C251 C249 1.363 . S
C251 C253 1.408 . S
C251 C256 1.342 . S
C252 C253 1.310 . S
C252 C255 1.461 . S
C252 H272 0.932 . S
C253 C251 1.408 . S
C253 C252 1.310 . S
C253 H273 0.930 . S
C254 C255 1.474 . S
C254 C256 1.285 . S
C254 H274 0.929 . S
C255 C252 1.461 . S
C255 C254 1.474 . S
C256 C251 1.342 . S
C256 C254 1.285 . S
C256 H275 0.930 . S
C257 C260 1.424 . S
C257 C262 1.245 . S
C257 C263 1.428 . S
C258 C261 1.260 . S
C258 C262 1.477 . S
C258 H276 0.932 . S
C259 C260 1.384 . S
C259 C261 1.479 . S
C259 H277 0.929 . S
C260 C257 1.424 . S
C260 C259 1.384 . S
C260 H278 0.928 . S
C261 C258 1.260 . S
C261 C259 1.479 . S
C262 C257 1.245 . S
C262 C258 1.477 . S
C262 H279 0.932 . S
C263 U246 2.882 . S
C263 C257 1.428 . S
C263 O266 1.301 . S
C263 O267 1.282 . S
O264 U246 2.441 . S
O264 C250 1.249 . S
O265 U246 2.420 . S
O265 C250 1.202 . S
O266 U246 2.455 . S
O266 C263 1.301 . S
O267 U246 2.449 . S
O267 C263 1.282 . S
H268 C241 0.931 . S
H269 C243 0.929 . S
H270 C244 0.930 . S
H271 C245 0.931 . S
H272 C252 0.932 . S
H273 C253 0.930 . S
H274 C254 0.929 . S
H275 C256 0.930 . S
H276 C258 0.932 . S
H277 C259 0.929 . S
H278 C260 0.928 . S
H279 C262 0.932 . S
C280 C281 1.264 . S
C280 C285 1.479 . S
C280 C290 1.465 . S
C281 C280 1.264 . S
C281 C283 1.339 . S
C281 H308 0.931 . S
C282 C283 1.395 . S
C282 C284 1.320 . S
C283 C281 1.339 . S
C283 C282 1.395 . S
C283 H309 0.929 . S
C284 C282 1.320 . S
C284 C285 1.405 . S
C284 H310 0.930 . S
C285 C280 1.479 . S
C285 C284 1.405 . S
C285 H311 0.931 . S
U286 O287 2.454 . S
U286 O288 2.458 . S
U286 C289 2.984 . S
U286 C290 2.847 . S
U286 C303 2.882 . S
U286 O304 2.441 . S
U286 O305 2.420 . S
U286 O306 2.455 . S
U286 O307 2.449 . S
O287 U286 2.454 . S
O287 C289 1.353 . S
O288 U286 2.458 . S
O288 C289 1.286 . S
C289 U286 2.984 . S
C289 O287 1.353 . S
C289 O288 1.286 . S
C289 C291 1.363 . S
C290 C280 1.465 . S
C290 U286 2.847 . S
C290 O304 1.249 . S
C290 O305 1.202 . S
C291 C289 1.363 . S
C291 C293 1.408 . S
C291 C296 1.342 . S
C292 C293 1.310 . S
C292 C295 1.461 . S
C292 H312 0.932 . S
C293 C291 1.408 . S
C293 C292 1.310 . S
C293 H313 0.930 . S
C294 C295 1.474 . S
C294 C296 1.285 . S
C294 H314 0.929 . S
C295 C292 1.461 . S
C295 C294 1.474 . S
C296 C291 1.342 . S
C296 C294 1.285 . S
C296 H315 0.930 . S
C297 C300 1.424 . S
C297 C302 1.245 . S
C297 C303 1.428 . S
C298 C301 1.260 . S
C298 C302 1.477 . S
C298 H316 0.932 . S
C299 C300 1.384 . S
C299 C301 1.479 . S
C299 H317 0.929 . S
C300 C297 1.424 . S
C300 C299 1.384 . S
C300 H318 0.928 . S
C301 C298 1.260 . S
C301 C299 1.479 . S
C302 C297 1.245 . S
C302 C298 1.477 . S
C302 H319 0.932 . S
C303 U286 2.882 . S
C303 C297 1.428 . S
C303 O306 1.301 . S
C303 O307 1.282 . S
O304 U286 2.441 . S
O304 C290 1.249 . S
O305 U286 2.420 . S
O305 C290 1.202 . S
O306 U286 2.455 . S
O306 C303 1.301 . S
O307 U286 2.449 . S
O307 C303 1.282 . S
H308 C281 0.931 . S
H309 C283 0.929 . S
H310 C284 0.930 . S
H311 C285 0.931 . S
H312 C292 0.932 . S
H313 C293 0.930 . S
H314 C294 0.929 . S
H315 C296 0.930 . S
H316 C298 0.932 . S
H317 C299 0.929 . S
H318 C300 0.928 . S
H319 C302 0.932 . S
C320 C321 1.264 . S
C320 C325 1.479 . S
C320 C330 1.465 . S
C321 C320 1.264 . S
C321 C323 1.339 . S
C321 H348 0.931 . S
C322 C323 1.395 . S
C322 C324 1.320 . S
C323 C321 1.339 . S
C323 C322 1.395 . S
C323 H349 0.929 . S
C324 C322 1.320 . S
C324 C325 1.405 . S
C324 H350 0.930 . S
C325 C320 1.479 . S
C325 C324 1.405 . S
C325 H351 0.931 . S
U326 O327 2.454 . S
U326 O328 2.458 . S
U326 C329 2.984 . S
U326 C330 2.847 . S
U326 C343 2.882 . S
U326 O344 2.441 . S
U326 O345 2.420 . S
U326 O346 2.455 . S
U326 O347 2.449 . S
O327 U326 2.454 . S
O327 C329 1.353 . S
O328 U326 2.458 . S
O328 C329 1.286 . S
C329 U326 2.984 . S
C329 O327 1.353 . S
C329 O328 1.286 . S
C329 C331 1.363 . S
C330 C320 1.465 . S
C330 U326 2.847 . S
C330 O344 1.249 . S
C330 O345 1.202 . S
C331 C329 1.363 . S
C331 C333 1.408 . S
C331 C336 1.342 . S
C332 C333 1.310 . S
C332 C335 1.461 . S
C332 H352 0.932 . S
C333 C331 1.408 . S
C333 C332 1.310 . S
C333 H353 0.930 . S
C334 C335 1.474 . S
C334 C336 1.285 . S
C334 H354 0.929 . S
C335 C332 1.461 . S
C335 C334 1.474 . S
C336 C331 1.342 . S
C336 C334 1.285 . S
C336 H355 0.930 . S
C337 C340 1.424 . S
C337 C342 1.245 . S
C337 C343 1.428 . S
C338 C341 1.260 . S
C338 C342 1.477 . S
C338 H356 0.932 . S
C339 C340 1.384 . S
C339 C341 1.479 . S
C339 H357 0.929 . S
C340 C337 1.424 . S
C340 C339 1.384 . S
C340 H358 0.928 . S
C341 C338 1.260 . S
C341 C339 1.479 . S
C342 C337 1.245 . S
C342 C338 1.477 . S
C342 H359 0.932 . S
C343 U326 2.882 . S
C343 C337 1.428 . S
C343 O346 1.301 . S
C343 O347 1.282 . S
O344 U326 2.441 . S
O344 C330 1.249 . S
O345 U326 2.420 . S
O345 C330 1.202 . S
O346 U326 2.455 . S
O346 C343 1.301 . S
O347 U326 2.449 . S
O347 C343 1.282 . S
H348 C321 0.931 . S
H349 C323 0.929 . S
H350 C324 0.930 . S
H351 C325 0.931 . S
H352 C332 0.932 . S
H353 C333 0.930 . S
H354 C334 0.929 . S
H355 C336 0.930 . S
H356 C338 0.932 . S
H357 C339 0.929 . S
H358 C340 0.928 . S
H359 C342 0.932 . S
C360 C361 1.264 . S
C360 C365 1.479 . S
C360 C370 1.465 . S
C361 C360 1.264 . S
C361 C363 1.339 . S
C361 H388 0.931 . S
C362 C363 1.395 . S
C362 C364 1.320 . S
C363 C361 1.339 . S
C363 C362 1.395 . S
C363 H389 0.929 . S
C364 C362 1.320 . S
C364 C365 1.405 . S
C364 H390 0.930 . S
C365 C360 1.479 . S
C365 C364 1.405 . S
C365 H391 0.931 . S
U366 O367 2.454 . S
U366 O368 2.458 . S
U366 C369 2.984 . S
U366 C370 2.847 . S
U366 C383 2.882 . S
U366 O384 2.441 . S
U366 O385 2.420 . S
U366 O386 2.455 . S
U366 O387 2.449 . S
O367 U366 2.454 . S
O367 C369 1.353 . S
O368 U366 2.458 . S
O368 C369 1.286 . S
C369 U366 2.984 . S
C369 O367 1.353 . S
C369 O368 1.286 . S
C369 C371 1.363 . S
C370 C360 1.465 . S
C370 U366 2.847 . S
C370 O384 1.249 . S
C370 O385 1.202 . S
C371 C369 1.363 . S
C371 C373 1.408 . S
C371 C376 1.342 . S
C372 C373 1.310 . S
C372 C375 1.461 . S
C372 H392 0.932 . S
C373 C371 1.408 . S
C373 C372 1.310 . S
C373 H393 0.930 . S
C374 C375 1.474 . S
C374 C376 1.285 . S
C374 H394 0.929 . S
C375 C372 1.461 . S
C375 C374 1.474 . S
C376 C371 1.342 . S
C376 C374 1.285 . S
C376 H395 0.930 . S
C377 C380 1.424 . S
C377 C382 1.245 . S
C377 C383 1.428 . S
C378 C381 1.260 . S
C378 C382 1.477 . S
C378 H396 0.932 . S
C379 C380 1.384 . S
C379 C381 1.479 . S
C379 H397 0.929 . S
C380 C377 1.424 . S
C380 C379 1.384 . S
C380 H398 0.928 . S
C381 C378 1.260 . S
C381 C379 1.479 . S
C382 C377 1.245 . S
C382 C378 1.477 . S
C382 H399 0.932 . S
C383 U366 2.882 . S
C383 C377 1.428 . S
C383 O386 1.301 . S
C383 O387 1.282 . S
O384 U366 2.441 . S
O384 C370 1.249 . S
O385 U366 2.420 . S
O385 C370 1.202 . S
O386 U366 2.455 . S
O386 C383 1.301 . S
O387 U366 2.449 . S
O387 C383 1.282 . S
H388 C361 0.931 . S
H389 C363 0.929 . S
H390 C364 0.930 . S
H391 C365 0.931 . S
H392 C372 0.932 . S
H393 C373 0.930 . S
H394 C374 0.929 . S
H395 C376 0.930 . S
H396 C378 0.932 . S
H397 C379 0.929 . S
H398 C380 0.928 . S
H399 C382 0.932 . S
C400 C401 1.264 . S
C400 C405 1.479 . S
C400 C410 1.465 . S
C401 C400 1.264 . S
C401 C403 1.339 . S
C401 H428 0.931 . S
C402 C403 1.395 . S
C402 C404 1.320 . S
C403 C401 1.339 . S
C403 C402 1.395 . S
C403 H429 0.929 . S
C404 C402 1.320 . S
C404 C405 1.405 . S
C404 H430 0.930 . S
C405 C400 1.479 . S
C405 C404 1.405 . S
C405 H431 0.931 . S
U406 O407 2.454 . S
U406 O408 2.458 . S
U406 C409 2.984 . S
U406 C410 2.847 . S
U406 C423 2.882 . S
U406 O424 2.441 . S
U406 O425 2.420 . S
U406 O426 2.455 . S
U406 O427 2.449 . S
O407 U406 2.454 . S
O407 C409 1.353 . S
O408 U406 2.458 . S
O408 C409 1.286 . S
C409 U406 2.984 . S
C409 O407 1.353 . S
C409 O408 1.286 . S
C409 C411 1.363 . S
C410 C400 1.465 . S
C410 U406 2.847 . S
C410 O424 1.249 . S
C410 O425 1.202 . S
C411 C409 1.363 . S
C411 C413 1.408 . S
C411 C416 1.342 . S
C412 C413 1.310 . S
C412 C415 1.461 . S
C412 H432 0.932 . S
C413 C411 1.408 . S
C413 C412 1.310 . S
C413 H433 0.930 . S
C414 C415 1.474 . S
C414 C416 1.285 . S
C414 H434 0.929 . S
C415 C412 1.461 . S
C415 C414 1.474 . S
C416 C411 1.342 . S
C416 C414 1.285 . S
C416 H435 0.930 . S
C417 C420 1.424 . S
C417 C422 1.245 . S
C417 C423 1.428 . S
C418 C421 1.260 . S
C418 C422 1.477 . S
C418 H436 0.932 . S
C419 C420 1.384 . S
C419 C421 1.479 . S
C419 H437 0.929 . S
C420 C417 1.424 . S
C420 C419 1.384 . S
C420 H438 0.928 . S
C421 C418 1.260 . S
C421 C419 1.479 . S
C422 C417 1.245 . S
C422 C418 1.477 . S
C422 H439 0.932 . S
C423 U406 2.882 . S
C423 C417 1.428 . S
C423 O426 1.301 . S
C423 O427 1.282 . S
O424 U406 2.441 . S
O424 C410 1.249 . S
O425 U406 2.420 . S
O425 C410 1.202 . S
O426 U406 2.455 . S
O426 C423 1.301 . S
O427 U406 2.449 . S
O427 C423 1.282 . S
H428 C401 0.931 . S
H429 C403 0.929 . S
H430 C404 0.930 . S
H431 C405 0.931 . S
H432 C412 0.932 . S
H433 C413 0.930 . S
H434 C414 0.929 . S
H435 C416 0.930 . S
H436 C418 0.932 . S
H437 C419 0.929 . S
H438 C420 0.928 . S
H439 C422 0.932 . S
C440 C441 1.264 . S
C440 C445 1.479 . S
C440 C450 1.465 . S
C441 C440 1.264 . S
C441 C443 1.339 . S
C441 H468 0.931 . S
C442 C443 1.395 . S
C442 C444 1.320 . S
C443 C441 1.339 . S
C443 C442 1.395 . S
C443 H469 0.929 . S
C444 C442 1.320 . S
C444 C445 1.405 . S
C444 H470 0.930 . S
C445 C440 1.479 . S
C445 C444 1.405 . S
C445 H471 0.931 . S
U446 O447 2.454 . S
U446 O448 2.458 . S
U446 C449 2.984 . S
U446 C450 2.847 . S
U446 C463 2.882 . S
U446 O464 2.441 . S
U446 O465 2.420 . S
U446 O466 2.455 . S
U446 O467 2.449 . S
O447 U446 2.454 . S
O447 C449 1.353 . S
O448 U446 2.458 . S
O448 C449 1.286 . S
C449 U446 2.984 . S
C449 O447 1.353 . S
C449 O448 1.286 . S
C449 C451 1.363 . S
C450 C440 1.465 . S
C450 U446 2.847 . S
C450 O464 1.249 . S
C450 O465 1.202 . S
C451 C449 1.363 . S
C451 C453 1.408 . S
C451 C456 1.342 . S
C452 C453 1.310 . S
C452 C455 1.461 . S
C452 H472 0.932 . S
C453 C451 1.408 . S
C453 C452 1.310 . S
C453 H473 0.930 . S
C454 C455 1.474 . S
C454 C456 1.285 . S
C454 H474 0.929 . S
C455 C452 1.461 . S
C455 C454 1.474 . S
C456 C451 1.342 . S
C456 C454 1.285 . S
C456 H475 0.930 . S
C457 C460 1.424 . S
C457 C462 1.245 . S
C457 C463 1.428 . S
C458 C461 1.260 . S
C458 C462 1.477 . S
C458 H476 0.932 . S
C459 C460 1.384 . S
C459 C461 1.479 . S
C459 H477 0.929 . S
C460 C457 1.424 . S
C460 C459 1.384 . S
C460 H478 0.928 . S
C461 C458 1.260 . S
C461 C459 1.479 . S
C462 C457 1.245 . S
C462 C458 1.477 . S
C462 H479 0.932 . S
C463 U446 2.882 . S
C463 C457 1.428 . S
C463 O466 1.301 . S
C463 O467 1.282 . S
O464 U446 2.441 . S
O464 C450 1.249 . S
O465 U446 2.420 . S
O465 C450 1.202 . S
O466 U446 2.455 . S
O466 C463 1.301 . S
O467 U446 2.449 . S
O467 C463 1.282 . S
H468 C441 0.931 . S
H469 C443 0.929 . S
H470 C444 0.930 . S
H471 C445 0.931 . S
H472 C452 0.932 . S
H473 C453 0.930 . S
H474 C454 0.929 . S
H475 C456 0.930 . S
H476 C458 0.932 . S
H477 C459 0.929 . S
H478 C460 0.928 . S
H479 C462 0.932 . S
C480 C481 1.264 . S
C480 C485 1.479 . S
C480 C490 1.465 . S
C481 C480 1.264 . S
C481 C483 1.339 . S
C481 H508 0.931 . S
C482 C483 1.395 . S
C482 C484 1.320 . S
C483 C481 1.339 . S
C483 C482 1.395 . S
C483 H509 0.929 . S
C484 C482 1.320 . S
C484 C485 1.405 . S
C484 H510 0.930 . S
C485 C480 1.479 . S
C485 C484 1.405 . S
C485 H511 0.931 . S
U486 O487 2.454 . S
U486 O488 2.458 . S
U486 C489 2.984 . S
U486 C490 2.847 . S
U486 C503 2.882 . S
U486 O504 2.441 . S
U486 O505 2.420 . S
U486 O506 2.455 . S
U486 O507 2.449 . S
O487 U486 2.454 . S
O487 C489 1.353 . S
O488 U486 2.458 . S
O488 C489 1.286 . S
C489 U486 2.984 . S
C489 O487 1.353 . S
C489 O488 1.286 . S
C489 C491 1.363 . S
C490 C480 1.465 . S
C490 U486 2.847 . S
C490 O504 1.249 . S
C490 O505 1.202 . S
C491 C489 1.363 . S
C491 C493 1.408 . S
C491 C496 1.342 . S
C492 C493 1.310 . S
C492 C495 1.461 . S
C492 H512 0.932 . S
C493 C491 1.408 . S
C493 C492 1.310 . S
C493 H513 0.930 . S
C494 C495 1.474 . S
C494 C496 1.285 . S
C494 H514 0.929 . S
C495 C492 1.461 . S
C495 C494 1.474 . S
C496 C491 1.342 . S
C496 C494 1.285 . S
C496 H515 0.930 . S
C497 C500 1.424 . S
C497 C502 1.245 . S
C497 C503 1.428 . S
C498 C501 1.260 . S
C498 C502 1.477 . S
C498 H516 0.932 . S
C499 C500 1.384 . S
C499 C501 1.479 . S
C499 H517 0.929 . S
C500 C497 1.424 . S
C500 C499 1.384 . S
C500 H518 0.928 . S
C501 C498 1.260 . S
C501 C499 1.479 . S
C502 C497 1.245 . S
C502 C498 1.477 . S
C502 H519 0.932 . S
C503 U486 2.882 . S
C503 C497 1.428 . S
C503 O506 1.301 . S
C503 O507 1.282 . S
O504 U486 2.441 . S
O504 C490 1.249 . S
O505 U486 2.420 . S
O505 C490 1.202 . S
O506 U486 2.455 . S
O506 C503 1.301 . S
O507 U486 2.449 . S
O507 C503 1.282 . S
H508 C481 0.931 . S
H509 C483 0.929 . S
H510 C484 0.930 . S
H511 C485 0.931 . S
H512 C492 0.932 . S
H513 C493 0.930 . S
H514 C494 0.929 . S
H515 C496 0.930 . S
H516 C498 0.932 . S
H517 C499 0.929 . S
H518 C500 0.928 . S
H519 C502 0.932 . S
C520 C521 1.264 . S
C520 C525 1.479 . S
C520 C530 1.465 . S
C521 C520 1.264 . S
C521 C523 1.339 . S
C521 H548 0.931 . S
C522 C523 1.395 . S
C522 C524 1.320 . S
C523 C521 1.339 . S
C523 C522 1.395 . S
C523 H549 0.929 . S
C524 C522 1.320 . S
C524 C525 1.405 . S
C524 H550 0.930 . S
C525 C520 1.479 . S
C525 C524 1.405 . S
C525 H551 0.931 . S
U526 O527 2.454 . S
U526 O528 2.458 . S
U526 C529 2.984 . S
U526 C530 2.847 . S
U526 C543 2.882 . S
U526 O544 2.441 . S
U526 O545 2.420 . S
U526 O546 2.455 . S
U526 O547 2.449 . S
O527 U526 2.454 . S
O527 C529 1.353 . S
O528 U526 2.458 . S
O528 C529 1.286 . S
C529 U526 2.984 . S
C529 O527 1.353 . S
C529 O528 1.286 . S
C529 C531 1.363 . S
C530 C520 1.465 . S
C530 U526 2.847 . S
C530 O544 1.249 . S
C530 O545 1.202 . S
C531 C529 1.363 . S
C531 C533 1.408 . S
C531 C536 1.342 . S
C532 C533 1.310 . S
C532 C535 1.461 . S
C532 H552 0.932 . S
C533 C531 1.408 . S
C533 C532 1.310 . S
C533 H553 0.930 . S
C534 C535 1.474 . S
C534 C536 1.285 . S
C534 H554 0.929 . S
C535 C532 1.461 . S
C535 C534 1.474 . S
C536 C531 1.342 . S
C536 C534 1.285 . S
C536 H555 0.930 . S
C537 C540 1.424 . S
C537 C542 1.245 . S
C537 C543 1.428 . S
C538 C541 1.260 . S
C538 C542 1.477 . S
C538 H556 0.932 . S
C539 C540 1.384 . S
C539 C541 1.479 . S
C539 H557 0.929 . S
C540 C537 1.424 . S
C540 C539 1.384 . S
C540 H558 0.928 . S
C541 C538 1.260 . S
C541 C539 1.479 . S
C542 C537 1.245 . S
C542 C538 1.477 . S
C542 H559 0.932 . S
C543 U526 2.882 . S
C543 C537 1.428 . S
C543 O546 1.301 . S
C543 O547 1.282 . S
O544 U526 2.441 . S
O544 C530 1.249 . S
O545 U526 2.420 . S
O545 C530 1.202 . S
O546 U526 2.455 . S
O546 C543 1.301 . S
O547 U526 2.449 . S
O547 C543 1.282 . S
H548 C521 0.931 . S
H549 C523 0.929 . S
H550 C524 0.930 . S
H551 C525 0.931 . S
H552 C532 0.932 . S
H553 C533 0.930 . S
H554 C534 0.929 . S
H555 C536 0.930 . S
H556 C538 0.932 . S
H557 C539 0.929 . S
H558 C540 0.928 . S
H559 C542 0.932 . S
C560 C561 1.264 . S
C560 C565 1.479 . S
C560 C570 1.465 . S
C561 C560 1.264 . S
C561 C563 1.339 . S
C561 H588 0.931 . S
C562 C563 1.395 . S
C562 C564 1.320 . S
C563 C561 1.339 . S
C563 C562 1.395 . S
C563 H589 0.929 . S
C564 C562 1.320 . S
C564 C565 1.405 . S
C564 H590 0.930 . S
C565 C560 1.479 . S
C565 C564 1.405 . S
C565 H591 0.931 . S
U566 O567 2.454 . S
U566 O568 2.458 . S
U566 C569 2.984 . S
U566 C570 2.847 . S
U566 C583 2.882 . S
U566 O584 2.441 . S
U566 O585 2.420 . S
U566 O586 2.455 . S
U566 O587 2.449 . S
O567 U566 2.454 . S
O567 C569 1.353 . S
O568 U566 2.458 . S
O568 C569 1.286 . S
C569 U566 2.984 . S
C569 O567 1.353 . S
C569 O568 1.286 . S
C569 C571 1.363 . S
C570 C560 1.465 . S
C570 U566 2.847 . S
C570 O584 1.249 . S
C570 O585 1.202 . S
C571 C569 1.363 . S
C571 C573 1.408 . S
C571 C576 1.342 . S
C572 C573 1.310 . S
C572 C575 1.461 . S
C572 H592 0.932 . S
C573 C571 1.408 . S
C573 C572 1.310 . S
C573 H593 0.930 . S
C574 C575 1.474 . S
C574 C576 1.285 . S
C574 H594 0.929 . S
C575 C572 1.461 . S
C575 C574 1.474 . S
C576 C571 1.342 . S
C576 C574 1.285 . S
C576 H595 0.930 . S
C577 C580 1.424 . S
C577 C582 1.245 . S
C577 C583 1.428 . S
C578 C581 1.260 . S
C578 C582 1.477 . S
C578 H596 0.932 . S
C579 C580 1.384 . S
C579 C581 1.479 . S
C579 H597 0.929 . S
C580 C577 1.424 . S
C580 C579 1.384 . S
C580 H598 0.928 . S
C581 C578 1.260 . S
C581 C579 1.479 . S
C582 C577 1.245 . S
C582 C578 1.477 . S
C582 H599 0.932 . S
C583 U566 2.882 . S
C583 C577 1.428 . S
C583 O586 1.301 . S
C583 O587 1.282 . S
O584 U566 2.441 . S
O584 C570 1.249 . S
O585 U566 2.420 . S
O585 C570 1.202 . S
O586 U566 2.455 . S
O586 C583 1.301 . S
O587 U566 2.449 . S
O587 C583 1.282 . S
H588 C561 0.931 . S
H589 C563 0.929 . S
H590 C564 0.930 . S
H591 C565 0.931 . S
H592 C572 0.932 . S
H593 C573 0.930 . S
H594 C574 0.929 . S
H595 C576 0.930 . S
H596 C578 0.932 . S
H597 C579 0.929 . S
H598 C580 0.928 . S
H599 C582 0.932 . S
C600 C601 1.264 . S
C600 C605 1.479 . S
C600 C610 1.465 . S
C601 C600 1.264 . S
C601 C603 1.339 . S
C601 H628 0.931 . S
C602 C603 1.395 . S
C602 C604 1.320 . S
C603 C601 1.339 . S
C603 C602 1.395 . S
C603 H629 0.929 . S
C604 C602 1.320 . S
C604 C605 1.405 . S
C604 H630 0.930 . S
C605 C600 1.479 . S
C605 C604 1.405 . S
C605 H631 0.931 . S
U606 O607 2.454 . S
U606 O608 2.458 . S
U606 C609 2.984 . S
U606 C610 2.847 . S
U606 C623 2.882 . S
U606 O624 2.441 . S
U606 O625 2.420 . S
U606 O626 2.455 . S
U606 O627 2.449 . S
O607 U606 2.454 . S
O607 C609 1.353 . S
O608 U606 2.458 . S
O608 C609 1.286 . S
C609 U606 2.984 . S
C609 O607 1.353 . S
C609 O608 1.286 . S
C609 C611 1.363 . S
C610 C600 1.465 . S
C610 U606 2.847 . S
C610 O624 1.249 . S
C610 O625 1.202 . S
C611 C609 1.363 . S
C611 C613 1.408 . S
C611 C616 1.342 . S
C612 C613 1.310 . S
C612 C615 1.461 . S
C612 H632 0.932 . S
C613 C611 1.408 . S
C613 C612 1.310 . S
C613 H633 0.930 . S
C614 C615 1.474 . S
C614 C616 1.285 . S
C614 H634 0.929 . S
C615 C612 1.461 . S
C615 C614 1.474 . S
C616 C611 1.342 . S
C616 C614 1.285 . S
C616 H635 0.930 . S
C617 C620 1.424 . S
C617 C622 1.245 . S
C617 C623 1.428 . S
C618 C621 1.260 . S
C618 C622 1.477 . S
C618 H636 0.932 . S
C619 C620 1.384 . S
C619 C621 1.479 . S
C619 H637 0.929 . S
C620 C617 1.424 . S
C620 C619 1.384 . S
C620 H638 0.928 . S
C621 C618 1.260 . S
C621 C619 1.479 . S
C622 C617 1.245 . S
C622 C618 1.477 . S
C622 H639 0.932 . S
C623 U606 2.882 . S
C623 C617 1.428 . S
C623 O626 1.301 . S
C623 O627 1.282 . S
O624 U606 2.441 . S
O624 C610 1.249 . S
O625 U606 2.420 . S
O625 C610 1.202 . S
O626 U606 2.455 . S
O626 C623 1.301 . S
O627 U606 2.449 . S
O627 C623 1.282 . S
H628 C601 0.931 . S
H629 C603 0.929 . S
H630 C604 0.930 . S
H631 C605 0.931 . S
H632 C612 0.932 . S
H633 C613 0.930 . S
H634 C614 0.929 . S
H635 C616 0.930 . S
H636 C618 0.932 . S
H637 C619 0.929 . S
H638 C620 0.928 . S
H639 C622 0.932 . S
C640 C641 1.264 . S
C640 C645 1.479 . S
C640 C650 1.465 . S
C641 C640 1.264 . S
C641 C643 1.339 . S
C641 H668 0.931 . S
C642 C643 1.395 . S
C642 C644 1.320 . S
C643 C641 1.339 . S
C643 C642 1.395 . S
C643 H669 0.929 . S
C644 C642 1.320 . S
C644 C645 1.405 . S
C644 H670 0.930 . S
C645 C640 1.479 . S
C645 C644 1.405 . S
C645 H671 0.931 . S
U646 O647 2.454 . S
U646 O648 2.458 . S
U646 C649 2.984 . S
U646 C650 2.847 . S
U646 C663 2.882 . S
U646 O664 2.441 . S
U646 O665 2.420 . S
U646 O666 2.455 . S
U646 O667 2.449 . S
O647 U646 2.454 . S
O647 C649 1.353 . S
O648 U646 2.458 . S
O648 C649 1.286 . S
C649 U646 2.984 . S
C649 O647 1.353 . S
C649 O648 1.286 . S
C649 C651 1.363 . S
C650 C640 1.465 . S
C650 U646 2.847 . S
C650 O664 1.249 . S
C650 O665 1.202 . S
C651 C649 1.363 . S
C651 C653 1.408 . S
C651 C656 1.342 . S
C652 C653 1.310 . S
C652 C655 1.461 . S
C652 H672 0.932 . S
C653 C651 1.408 . S
C653 C652 1.310 . S
C653 H673 0.930 . S
C654 C655 1.474 . S
C654 C656 1.285 . S
C654 H674 0.929 . S
C655 C652 1.461 . S
C655 C654 1.474 . S
C656 C651 1.342 . S
C656 C654 1.285 . S
C656 H675 0.930 . S
C657 C660 1.424 . S
C657 C662 1.245 . S
C657 C663 1.428 . S
C658 C661 1.260 . S
C658 C662 1.477 . S
C658 H676 0.932 . S
C659 C660 1.384 . S
C659 C661 1.479 . S
C659 H677 0.929 . S
C660 C657 1.424 . S
C660 C659 1.384 . S
C660 H678 0.928 . S
C661 C658 1.260 . S
C661 C659 1.479 . S
C662 C657 1.245 . S
C662 C658 1.477 . S
C662 H679 0.932 . S
C663 U646 2.882 . S
C663 C657 1.428 . S
C663 O666 1.301 . S
C663 O667 1.282 . S
O664 U646 2.441 . S
O664 C650 1.249 . S
O665 U646 2.420 . S
O665 C650 1.202 . S
O666 U646 2.455 . S
O666 C663 1.301 . S
O667 U646 2.449 . S
O667 C663 1.282 . S
H668 C641 0.931 . S
H669 C643 0.929 . S
H670 C644 0.930 . S
H671 C645 0.931 . S
H672 C652 0.932 . S
H673 C653 0.930 . S
H674 C654 0.929 . S
H675 C656 0.930 . S
H676 C658 0.932 . S
H677 C659 0.929 . S
H678 C660 0.928 . S
H679 C662 0.932 . S
C680 C681 1.264 . S
C680 C685 1.479 . S
C680 C690 1.465 . S
C681 C680 1.264 . S
C681 C683 1.339 . S
C681 H708 0.931 . S
C682 C683 1.395 . S
C682 C684 1.320 . S
C683 C681 1.339 . S
C683 C682 1.395 . S
C683 H709 0.929 . S
C684 C682 1.320 . S
C684 C685 1.405 . S
C684 H710 0.930 . S
C685 C680 1.479 . S
C685 C684 1.405 . S
C685 H711 0.931 . S
U686 O687 2.454 . S
U686 O688 2.458 . S
U686 C689 2.984 . S
U686 C690 2.847 . S
U686 C703 2.882 . S
U686 O704 2.441 . S
U686 O705 2.420 . S
U686 O706 2.455 . S
U686 O707 2.449 . S
O687 U686 2.454 . S
O687 C689 1.353 . S
O688 U686 2.458 . S
O688 C689 1.286 . S
C689 U686 2.984 . S
C689 O687 1.353 . S
C689 O688 1.286 . S
C689 C691 1.363 . S
C690 C680 1.465 . S
C690 U686 2.847 . S
C690 O704 1.249 . S
C690 O705 1.202 . S
C691 C689 1.363 . S
C691 C693 1.408 . S
C691 C696 1.342 . S
C692 C693 1.310 . S
C692 C695 1.461 . S
C692 H712 0.932 . S
C693 C691 1.408 . S
C693 C692 1.310 . S
C693 H713 0.930 . S
C694 C695 1.474 . S
C694 C696 1.285 . S
C694 H714 0.929 . S
C695 C692 1.461 . S
C695 C694 1.474 . S
C696 C691 1.342 . S
C696 C694 1.285 . S
C696 H715 0.930 . S
C697 C700 1.424 . S
C697 C702 1.245 . S
C697 C703 1.428 . S
C698 C701 1.260 . S
C698 C702 1.477 . S
C698 H716 0.932 . S
C699 C700 1.384 . S
C699 C701 1.479 . S
C699 H717 0.929 . S
C700 C697 1.424 . S
C700 C699 1.384 . S
C700 H718 0.928 . S
C701 C698 1.260 . S
C701 C699 1.479 . S
C702 C697 1.245 . S
C702 C698 1.477 . S
C702 H719 0.932 . S
C703 U686 2.882 . S
C703 C697 1.428 . S
C703 O706 1.301 . S
C703 O707 1.282 . S
O704 U686 2.441 . S
O704 C690 1.249 . S
O705 U686 2.420 . S
O705 C690 1.202 . S
O706 U686 2.455 . S
O706 C703 1.301 . S
O707 U686 2.449 . S
O707 C703 1.282 . S
H708 C681 0.931 . S
H709 C683 0.929 . S
H710 C684 0.930 . S
H711 C685 0.931 . S
H712 C692 0.932 . S
H713 C693 0.930 . S
H714 C694 0.929 . S
H715 C696 0.930 . S
H716 C698 0.932 . S
H717 C699 0.929 . S
H718 C700 0.928 . S
H719 C702 0.932 . S
C720 C721 1.264 . S
C720 C725 1.479 . S
C720 C730 1.465 . S
C721 C720 1.264 . S
C721 C723 1.339 . S
C721 H748 0.931 . S
C722 C723 1.395 . S
C722 C724 1.320 . S
C723 C721 1.339 . S
C723 C722 1.395 . S
C723 H749 0.929 . S
C724 C722 1.320 . S
C724 C725 1.405 . S
C724 H750 0.930 . S
C725 C720 1.479 . S
C725 C724 1.405 . S
C725 H751 0.931 . S
U726 O727 2.454 . S
U726 O728 2.458 . S
U726 C729 2.984 . S
U726 C730 2.847 . S
U726 C743 2.882 . S
U726 O744 2.441 . S
U726 O745 2.420 . S
U726 O746 2.455 . S
U726 O747 2.449 . S
O727 U726 2.454 . S
O727 C729 1.353 . S
O728 U726 2.458 . S
O728 C729 1.286 . S
C729 U726 2.984 . S
C729 O727 1.353 . S
C729 O728 1.286 . S
C729 C731 1.363 . S
C730 C720 1.465 . S
C730 U726 2.847 . S
C730 O744 1.249 . S
C730 O745 1.202 . S
C731 C729 1.363 . S
C731 C733 1.408 . S
C731 C736 1.342 . S
C732 C733 1.310 . S
C732 C735 1.461 . S
C732 H752 0.932 . S
C733 C731 1.408 . S
C733 C732 1.310 . S
C733 H753 0.930 . S
C734 C735 1.474 . S
C734 C736 1.285 . S
C734 H754 0.929 . S
C735 C732 1.461 . S
C735 C734 1.474 . S
C736 C731 1.342 . S
C736 C734 1.285 . S
C736 H755 0.930 . S
C737 C740 1.424 . S
C737 C742 1.245 . S
C737 C743 1.428 . S
C738 C741 1.260 . S
C738 C742 1.477 . S
C738 H756 0.932 . S
C739 C740 1.384 . S
C739 C741 1.479 . S
C739 H757 0.929 . S
C740 C737 1.424 . S
C740 C739 1.384 . S
C740 H758 0.928 . S
C741 C738 1.260 . S
C741 C739 1.479 . S
C742 C737 1.245 . S
C742 C738 1.477 . S
C742 H759 0.932 . S
C743 U726 2.882 . S
C743 C737 1.428 . S
C743 O746 1.301 . S
C743 O747 1.282 . S
O744 U726 2.441 . S
O744 C730 1.249 . S
O745 U726 2.420 . S
O745 C730 1.202 . S
O746 U726 2.455 . S
O746 C743 1.301 . S
O747 U726 2.449 . S
O747 C743 1.282 . S
H748 C721 0.931 . S
H749 C723 0.929 . S
H750 C724 0.930 . S
H751 C725 0.931 . S
H752 C732 0.932 . S
H753 C733 0.930 . S
H754 C734 0.929 . S
H755 C736 0.930 . S
H756 C738 0.932 . S
H757 C739 0.929 . S
H758 C740 0.928 . S
H759 C742 0.932 . S
C760 C761 1.264 . S
C760 C765 1.479 . S
C760 C770 1.465 . S
C761 C760 1.264 . S
C761 C763 1.339 . S
C761 H788 0.931 . S
C762 C763 1.395 . S
C762 C764 1.320 . S
C763 C761 1.339 . S
C763 C762 1.395 . S
C763 H789 0.929 . S
C764 C762 1.320 . S
C764 C765 1.405 . S
C764 H790 0.930 . S
C765 C760 1.479 . S
C765 C764 1.405 . S
C765 H791 0.931 . S
U766 O767 2.454 . S
U766 O768 2.458 . S
U766 C769 2.984 . S
U766 C770 2.847 . S
U766 C783 2.882 . S
U766 O784 2.441 . S
U766 O785 2.420 . S
U766 O786 2.455 . S
U766 O787 2.449 . S
O767 U766 2.454 . S
O767 C769 1.353 . S
O768 U766 2.458 . S
O768 C769 1.286 . S
C769 U766 2.984 . S
C769 O767 1.353 . S
C769 O768 1.286 . S
C769 C771 1.363 . S
C770 C760 1.465 . S
C770 U766 2.847 . S
C770 O784 1.249 . S
C770 O785 1.202 . S
C771 C769 1.363 . S
C771 C773 1.408 . S
C771 C776 1.342 . S
C772 C773 1.310 . S
C772 C775 1.461 . S
C772 H792 0.932 . S
C773 C771 1.408 . S
C773 C772 1.310 . S
C773 H793 0.930 . S
C774 C775 1.474 . S
C774 C776 1.285 . S
C774 H794 0.929 . S
C775 C772 1.461 . S
C775 C774 1.474 . S
C776 C771 1.342 . S
C776 C774 1.285 . S
C776 H795 0.930 . S
C777 C780 1.424 . S
C777 C782 1.245 . S
C777 C783 1.428 . S
C778 C781 1.260 . S
C778 C782 1.477 . S
C778 H796 0.932 . S
C779 C780 1.384 . S
C779 C781 1.479 . S
C779 H797 0.929 . S
C780 C777 1.424 . S
C780 C779 1.384 . S
C780 H798 0.928 . S
C781 C778 1.260 . S
C781 C779 1.479 . S
C782 C777 1.245 . S
C782 C778 1.477 . S
C782 H799 0.932 . S
C783 U766 2.882 . S
C783 C777 1.428 . S
C783 O786 1.301 . S
C783 O787 1.282 . S
O784 U766 2.441 . S
O784 C770 1.249 . S
O785 U766 2.420 . S
O785 C770 1.202 . S
O786 U766 2.455 . S
O786 C783 1.301 . S
O787 U766 2.449 . S
O787 C783 1.282 . S
H788 C761 0.931 . S
H789 C763 0.929 . S
H790 C764 0.930 . S
H791 C765 0.931 . S
H792 C772 0.932 . S
H793 C773 0.930 . S
H794 C774 0.929 . S
H795 C776 0.930 . S
H796 C778 0.932 . S
H797 C779 0.929 . S
H798 C780 0.928 . S
H799 C782 0.932 . S
C800 C801 1.264 . S
C800 C805 1.479 . S
C800 C810 1.465 . S
C801 C800 1.264 . S
C801 C803 1.339 . S
C801 H828 0.931 . S
C802 C803 1.395 . S
C802 C804 1.320 . S
C803 C801 1.339 . S
C803 C802 1.395 . S
C803 H829 0.929 . S
C804 C802 1.320 . S
C804 C805 1.405 . S
C804 H830 0.930 . S
C805 C800 1.479 . S
C805 C804 1.405 . S
C805 H831 0.931 . S
U806 O807 2.454 . S
U806 O808 2.458 . S
U806 C809 2.984 . S
U806 C810 2.847 . S
U806 C823 2.882 . S
U806 O824 2.441 . S
U806 O825 2.420 . S
U806 O826 2.455 . S
U806 O827 2.449 . S
O807 U806 2.454 . S
O807 C809 1.353 . S
O808 U806 2.458 . S
O808 C809 1.286 . S
C809 U806 2.984 . S
C809 O807 1.353 . S
C809 O808 1.286 . S
C809 C811 1.363 . S
C810 C800 1.465 . S
C810 U806 2.847 . S
C810 O824 1.249 . S
C810 O825 1.202 . S
C811 C809 1.363 . S
C811 C813 1.408 . S
C811 C816 1.342 . S
C812 C813 1.310 . S
C812 C815 1.461 . S
C812 H832 0.932 . S
C813 C811 1.408 . S
C813 C812 1.310 . S
C813 H833 0.930 . S
C814 C815 1.474 . S
C814 C816 1.285 . S
C814 H834 0.929 . S
C815 C812 1.461 . S
C815 C814 1.474 . S
C816 C811 1.342 . S
C816 C814 1.285 . S
C816 H835 0.930 . S
C817 C820 1.424 . S
C817 C822 1.245 . S
C817 C823 1.428 . S
C818 C821 1.260 . S
C818 C822 1.477 . S
C818 H836 0.932 . S
C819 C820 1.384 . S
C819 C821 1.479 . S
C819 H837 0.929 . S
C820 C817 1.424 . S
C820 C819 1.384 . S
C820 H838 0.928 . S
C821 C818 1.260 . S
C821 C819 1.479 . S
C822 C817 1.245 . S
C822 C818 1.477 . S
C822 H839 0.932 . S
C823 U806 2.882 . S
C823 C817 1.428 . S
C823 O826 1.301 . S
C823 O827 1.282 . S
O824 U806 2.441 . S
O824 C810 1.249 . S
O825 U806 2.420 . S
O825 C810 1.202 . S
O826 U806 2.455 . S
O826 C823 1.301 . S
O827 U806 2.449 . S
O827 C823 1.282 . S
H828 C801 0.931 . S
H829 C803 0.929 . S
H830 C804 0.930 . S
H831 C805 0.931 . S
H832 C812 0.932 . S
H833 C813 0.930 . S
H834 C814 0.929 . S
H835 C816 0.930 . S
H836 C818 0.932 . S
H837 C819 0.929 . S
H838 C820 0.928 . S
H839 C822 0.932 . S
C840 C841 1.264 . S
C840 C845 1.479 . S
C840 C850 1.465 . S
C841 C840 1.264 . S
C841 C843 1.339 . S
C841 H868 0.931 . S
C842 C843 1.395 . S
C842 C844 1.320 . S
C843 C841 1.339 . S
C843 C842 1.395 . S
C843 H869 0.929 . S
C844 C842 1.320 . S
C844 C845 1.405 . S
C844 H870 0.930 . S
C845 C840 1.479 . S
C845 C844 1.405 . S
C845 H871 0.931 . S
U846 O847 2.454 . S
U846 O848 2.458 . S
U846 C849 2.984 . S
U846 C850 2.847 . S
U846 C863 2.882 . S
U846 O864 2.441 . S
U846 O865 2.420 . S
U846 O866 2.455 . S
U846 O867 2.449 . S
O847 U846 2.454 . S
O847 C849 1.353 . S
O848 U846 2.458 . S
O848 C849 1.286 . S
C849 U846 2.984 . S
C849 O847 1.353 . S
C849 O848 1.286 . S
C849 C851 1.363 . S
C850 C840 1.465 . S
C850 U846 2.847 . S
C850 O864 1.249 . S
C850 O865 1.202 . S
C851 C849 1.363 . S
C851 C853 1.408 . S
C851 C856 1.342 . S
C852 C853 1.310 . S
C852 C855 1.461 . S
C852 H872 0.932 . S
C853 C851 1.408 . S
C853 C852 1.310 . S
C853 H873 0.930 . S
C854 C855 1.474 . S
C854 C856 1.285 . S
C854 H874 0.929 . S
C855 C852 1.461 . S
C855 C854 1.474 . S
C856 C851 1.342 . S
C856 C854 1.285 . S
C856 H875 0.930 . S
C857 C860 1.424 . S
C857 C862 1.245 . S
C857 C863 1.428 . S
C858 C861 1.260 . S
C858 C862 1.477 . S
C858 H876 0.932 . S
C859 C860 1.384 . S
C859 C861 1.479 . S
C859 H877 0.929 . S
C860 C857 1.424 . S
C860 C859 1.384 . S
C860 H878 0.928 . S
C861 C858 1.260 . S
C861 C859 1.479 . S
C862 C857 1.245 . S
C862 C858 1.477 . S
C862 H879 0.932 . S
C863 U846 2.882 . S
C863 C857 1.428 . S
C863 O866 1.301 . S
C863 O867 1.282 . S
O864 U846 2.441 . S
O864 C850 1.249 . S
O865 U846 2.420 . S
O865 C850 1.202 . S
O866 U846 2.455 . S
O866 C863 1.301 . S
O867 U846 2.449 . S
O867 C863 1.282 . S
H868 C841 0.931 . S
H869 C843 0.929 . S
H870 C844 0.930 . S
H871 C845 0.931 . S
H872 C852 0.932 . S
H873 C853 0.930 . S
H874 C854 0.929 . S
H875 C856 0.930 . S
H876 C858 0.932 . S
H877 C859 0.929 . S
H878 C860 0.928 . S
H879 C862 0.932 . S
C880 C881 1.264 . S
C880 C885 1.479 . S
C880 C890 1.465 . S
C881 C880 1.264 . S
C881 C883 1.339 . S
C881 H908 0.931 . S
C882 C883 1.395 . S
C882 C884 1.320 . S
C883 C881 1.339 . S
C883 C882 1.395 . S
C883 H909 0.929 . S
C884 C882 1.320 . S
C884 C885 1.405 . S
C884 H910 0.930 . S
C885 C880 1.479 . S
C885 C884 1.405 . S
C885 H911 0.931 . S
U886 O887 2.454 . S
U886 O888 2.458 . S
U886 C889 2.984 . S
U886 C890 2.847 . S
U886 C903 2.882 . S
U886 O904 2.441 . S
U886 O905 2.420 . S
U886 O906 2.455 . S
U886 O907 2.449 . S
O887 U886 2.454 . S
O887 C889 1.353 . S
O888 U886 2.458 . S
O888 C889 1.286 . S
C889 U886 2.984 . S
C889 O887 1.353 . S
C889 O888 1.286 . S
C889 C891 1.363 . S
C890 C880 1.465 . S
C890 U886 2.847 . S
C890 O904 1.249 . S
C890 O905 1.202 . S
C891 C889 1.363 . S
C891 C893 1.408 . S
C891 C896 1.342 . S
C892 C893 1.310 . S
C892 C895 1.461 . S
C892 H912 0.932 . S
C893 C891 1.408 . S
C893 C892 1.310 . S
C893 H913 0.930 . S
C894 C895 1.474 . S
C894 C896 1.285 . S
C894 H914 0.929 . S
C895 C892 1.461 . S
C895 C894 1.474 . S
C896 C891 1.342 . S
C896 C894 1.285 . S
C896 H915 0.930 . S
C897 C900 1.424 . S
C897 C902 1.245 . S
C897 C903 1.428 . S
C898 C901 1.260 . S
C898 C902 1.477 . S
C898 H916 0.932 . S
C899 C900 1.384 . S
C899 C901 1.479 . S
C899 H917 0.929 . S
C900 C897 1.424 . S
C900 C899 1.384 . S
C900 H918 0.928 . S
C901 C898 1.260 . S
C901 C899 1.479 . S
C902 C897 1.245 . S
C902 C898 1.477 . S
C902 H919 0.932 . S
C903 U886 2.882 . S
C903 C897 1.428 . S
C903 O906 1.301 . S
C903 O907 1.282 . S
O904 U886 2.441 . S
O904 C890 1.249 . S
O905 U886 2.420 . S
O905 C890 1.202 . S
O906 U886 2.455 . S
O906 C903 1.301 . S
O907 U886 2.449 . S
O907 C903 1.282 . S
H908 C881 0.931 . S
H909 C883 0.929 . S
H910 C884 0.930 . S
H911 C885 0.931 . S
H912 C892 0.932 . S
H913 C893 0.930 . S
H914 C894 0.929 . S
H915 C896 0.930 . S
H916 C898 0.932 . S
H917 C899 0.929 . S
H918 C900 0.928 . S
H919 C902 0.932 . S
C920 C921 1.264 . S
C920 C925 1.479 . S
C920 C930 1.465 . S
C921 C920 1.264 . S
C921 C923 1.339 . S
C921 H948 0.931 . S
C922 C923 1.395 . S
C922 C924 1.320 . S
C923 C921 1.339 . S
C923 C922 1.395 . S
C923 H949 0.929 . S
C924 C922 1.320 . S
C924 C925 1.405 . S
C924 H950 0.930 . S
C925 C920 1.479 . S
C925 C924 1.405 . S
C925 H951 0.931 . S
U926 O927 2.454 . S
U926 O928 2.458 . S
U926 C929 2.984 . S
U926 C930 2.847 . S
U926 C943 2.882 . S
U926 O944 2.441 . S
U926 O945 2.420 . S
U926 O946 2.455 . S
U926 O947 2.449 . S
O927 U926 2.454 . S
O927 C929 1.353 . S
O928 U926 2.458 . S
O928 C929 1.286 . S
C929 U926 2.984 . S
C929 O927 1.353 . S
C929 O928 1.286 . S
C929 C931 1.363 . S
C930 C920 1.465 . S
C930 U926 2.847 . S
C930 O944 1.249 . S
C930 O945 1.202 . S
C931 C929 1.363 . S
C931 C933 1.408 . S
C931 C936 1.342 . S
C932 C933 1.310 . S
C932 C935 1.461 . S
C932 H952 0.932 . S
C933 C931 1.408 . S
C933 C932 1.310 . S
C933 H953 0.930 . S
C934 C935 1.474 . S
C934 C936 1.285 . S
C934 H954 0.929 . S
C935 C932 1.461 . S
C935 C934 1.474 . S
C936 C931 1.342 . S
C936 C934 1.285 . S
C936 H955 0.930 . S
C937 C940 1.424 . S
C937 C942 1.245 . S
C937 C943 1.428 . S
C938 C941 1.260 . S
C938 C942 1.477 . S
C938 H956 0.932 . S
C939 C940 1.384 . S
C939 C941 1.479 . S
C939 H957 0.929 . S
C940 C937 1.424 . S
C940 C939 1.384 . S
C940 H958 0.928 . S
C941 C938 1.260 . S
C941 C939 1.479 . S
C942 C937 1.245 . S
C942 C938 1.477 . S
C942 H959 0.932 . S
C943 U926 2.882 . S
C943 C937 1.428 . S
C943 O946 1.301 . S
C943 O947 1.282 . S
O944 U926 2.441 . S
O944 C930 1.249 . S
O945 U926 2.420 . S
O945 C930 1.202 . S
O946 U926 2.455 . S
O946 C943 1.301 . S
O947 U926 2.449 . S
O947 C943 1.282 . S
H948 C921 0.931 . S
H949 C923 0.929 . S
H950 C924 0.930 . S
H951 C925 0.931 . S
H952 C932 0.932 . S
H953 C933 0.930 . S
H954 C934 0.929 . S
H955 C936 0.930 . S
H956 C938 0.932 . S
H957 C939 0.929 . S
H958 C940 0.928 . S
H959 C942 0.932 . S
C960 C961 1.264 . S
C960 C965 1.479 . S
C960 C970 1.465 . S
C961 C960 1.264 . S
C961 C963 1.339 . S
C961 H988 0.931 . S
C962 C963 1.395 . S
C962 C964 1.320 . S
C963 C961 1.339 . S
C963 C962 1.395 . S
C963 H989 0.929 . S
C964 C962 1.320 . S
C964 C965 1.405 . S
C964 H990 0.930 . S
C965 C960 1.479 . S
C965 C964 1.405 . S
C965 H991 0.931 . S
U966 O967 2.454 . S
U966 O968 2.458 . S
U966 C969 2.984 . S
U966 C970 2.847 . S
U966 C983 2.882 . S
U966 O984 2.441 . S
U966 O985 2.420 . S
U966 O986 2.455 . S
U966 O987 2.449 . S
O967 U966 2.454 . S
O967 C969 1.353 . S
O968 U966 2.458 . S
O968 C969 1.286 . S
C969 U966 2.984 . S
C969 O967 1.353 . S
C969 O968 1.286 . S
C969 C971 1.363 . S
C970 C960 1.465 . S
C970 U966 2.847 . S
C970 O984 1.249 . S
C970 O985 1.202 . S
C971 C969 1.363 . S
C971 C973 1.408 . S
C971 C976 1.342 . S
C972 C973 1.310 . S
C972 C975 1.461 . S
C972 H992 0.932 . S
C973 C971 1.408 . S
C973 C972 1.310 . S
C973 H993 0.930 . S
C974 C975 1.474 . S
C974 C976 1.285 . S
C974 H994 0.929 . S
C975 C972 1.461 . S
C975 C974 1.474 . S
C976 C971 1.342 . S
C976 C974 1.285 . S
C976 H995 0.930 . S
C977 C980 1.424 . S
C977 C982 1.245 . S
C977 C983 1.428 . S
C978 C981 1.260 . S
C978 C982 1.477 . S
C978 H996 0.932 . S
C979 C980 1.384 . S
C979 C981 1.479 . S
C979 H997 0.929 . S
C980 C977 1.424 . S
C980 C979 1.384 . S
C980 H998 0.928 . S
C981 C978 1.260 . S
C981 C979 1.479 . S
C982 C977 1.245 . S
C982 C978 1.477 . S
C982 H999 0.932 . S
C983 U966 2.882 . S
C983 C977 1.428 . S
C983 O986 1.301 . S
C983 O987 1.282 . S
O984 U966 2.441 . S
O984 C970 1.249 . S
O985 U966 2.420 . S
O985 C970 1.202 . S
O986 U966 2.455 . S
O986 C983 1.301 . S
O987 U966 2.449 . S
O987 C983 1.282 . S
H988 C961 0.931 . S
H989 C963 0.929 . S
H990 C964 0.930 . S
H991 C965 0.931 . S
H992 C972 0.932 . S
H993 C973 0.930 . S
H994 C974 0.929 . S
H995 C976 0.930 . S
H996 C978 0.932 . S
H997 C979 0.929 . S
H998 C980 0.928 . S
H999 C982 0.932 . S
C1000 C1001 1.264 . S
C1000 C1005 1.479 . S
C1000 C1010 1.465 . S
C1001 C1000 1.264 . S
C1001 C1003 1.339 . S
C1001 H1028 0.931 . S
C1002 C1003 1.395 . S
C1002 C1004 1.320 . S
C1003 C1001 1.339 . S
C1003 C1002 1.395 . S
C1003 H1029 0.929 . S
C1004 C1002 1.320 . S
C1004 C1005 1.405 . S
C1004 H1030 0.930 . S
C1005 C1000 1.479 . S
C1005 C1004 1.405 . S
C1005 H1031 0.931 . S
U1006 O1007 2.454 . S
U1006 O1008 2.458 . S
U1006 C1009 2.984 . S
U1006 C1010 2.847 . S
U1006 C1023 2.882 . S
U1006 O1024 2.441 . S
U1006 O1025 2.420 . S
U1006 O1026 2.455 . S
U1006 O1027 2.449 . S
O1007 U1006 2.454 . S
O1007 C1009 1.353 . S
O1008 U1006 2.458 . S
O1008 C1009 1.286 . S
C1009 U1006 2.984 . S
C1009 O1007 1.353 . S
C1009 O1008 1.286 . S
C1009 C1011 1.363 . S
C1010 C1000 1.465 . S
C1010 U1006 2.847 . S
C1010 O1024 1.249 . S
C1010 O1025 1.202 . S
C1011 C1009 1.363 . S
C1011 C1013 1.408 . S
C1011 C1016 1.342 . S
C1012 C1013 1.310 . S
C1012 C1015 1.461 . S
C1012 H1032 0.932 . S
C1013 C1011 1.408 . S
C1013 C1012 1.310 . S
C1013 H1033 0.930 . S
C1014 C1015 1.474 . S
C1014 C1016 1.285 . S
C1014 H1034 0.929 . S
C1015 C1012 1.461 . S
C1015 C1014 1.474 . S
C1016 C1011 1.342 . S
C1016 C1014 1.285 . S
C1016 H1035 0.930 . S
C1017 C1020 1.424 . S
C1017 C1022 1.245 . S
C1017 C1023 1.428 . S
C1018 C1021 1.260 . S
C1018 C1022 1.477 . S
C1018 H1036 0.932 . S
C1019 C1020 1.384 . S
C1019 C1021 1.479 . S
C1019 H1037 0.929 . S
C1020 C1017 1.424 . S
C1020 C1019 1.384 . S
C1020 H1038 0.928 . S
C1021 C1018 1.260 . S
C1021 C1019 1.479 . S
C1022 C1017 1.245 . S
C1022 C1018 1.477 . S
C1022 H1039 0.932 . S
C1023 U1006 2.882 . S
C1023 C1017 1.428 . S
C1023 O1026 1.301 . S
C1023 O1027 1.282 . S
O1024 U1006 2.441 . S
O1024 C1010 1.249 . S
O1025 U1006 2.420 . S
O1025 C1010 1.202 . S
O1026 U1006 2.455 . S
O1026 C1023 1.301 . S
O1027 U1006 2.449 . S
O1027 C1023 1.282 . S
H1028 C1001 0.931 . S
H1029 C1003 0.929 . S
H1030 C1004 0.930 . S
H1031 C1005 0.931 . S
H1032 C1012 0.932 . S
H1033 C1013 0.930 . S
H1034 C1014 0.929 . S
H1035 C1016 0.930 . S
H1036 C1018 0.932 . S
H1037 C1019 0.929 . S
H1038 C1020 0.928 . S
H1039 C1022 0.932 . S
C1040 C1041 1.264 . S
C1040 C1045 1.479 . S
C1040 C1050 1.465 . S
C1041 C1040 1.264 . S
C1041 C1043 1.339 . S
C1041 H1068 0.931 . S
C1042 C1043 1.395 . S
C1042 C1044 1.320 . S
C1043 C1041 1.339 . S
C1043 C1042 1.395 . S
C1043 H1069 0.929 . S
C1044 C1042 1.320 . S
C1044 C1045 1.405 . S
C1044 H1070 0.930 . S
C1045 C1040 1.479 . S
C1045 C1044 1.405 . S
C1045 H1071 0.931 . S
U1046 O1047 2.454 . S
U1046 O1048 2.458 . S
U1046 C1049 2.984 . S
U1046 C1050 2.847 . S
U1046 C1063 2.882 . S
U1046 O1064 2.441 . S
U1046 O1065 2.420 . S
U1046 O1066 2.455 . S
U1046 O1067 2.449 . S
O1047 U1046 2.454 . S
O1047 C1049 1.353 . S
O1048 U1046 2.458 . S
O1048 C1049 1.286 . S
C1049 U1046 2.984 . S
C1049 O1047 1.353 . S
C1049 O1048 1.286 . S
C1049 C1051 1.363 . S
C1050 C1040 1.465 . S
C1050 U1046 2.847 . S
C1050 O1064 1.249 . S
C1050 O1065 1.202 . S
C1051 C1049 1.363 . S
C1051 C1053 1.408 . S
C1051 C1056 1.342 . S
C1052 C1053 1.310 . S
C1052 C1055 1.461 . S
C1052 H1072 0.932 . S
C1053 C1051 1.408 . S
C1053 C1052 1.310 . S
C1053 H1073 0.930 . S
C1054 C1055 1.474 . S
C1054 C1056 1.285 . S
C1054 H1074 0.929 . S
C1055 C1052 1.461 . S
C1055 C1054 1.474 . S
C1056 C1051 1.342 . S
C1056 C1054 1.285 . S
C1056 H1075 0.930 . S
C1057 C1060 1.424 . S
C1057 C1062 1.245 . S
C1057 C1063 1.428 . S
C1058 C1061 1.260 . S
C1058 C1062 1.477 . S
C1058 H1076 0.932 . S
C1059 C1060 1.384 . S
C1059 C1061 1.479 . S
C1059 H1077 0.929 . S
C1060 C1057 1.424 . S
C1060 C1059 1.384 . S
C1060 H1078 0.928 . S
C1061 C1058 1.260 . S
C1061 C1059 1.479 . S
C1062 C1057 1.245 . S
C1062 C1058 1.477 . S
C1062 H1079 0.932 . S
C1063 U1046 2.882 . S
C1063 C1057 1.428 . S
C1063 O1066 1.301 . S
C1063 O1067 1.282 . S
O1064 U1046 2.441 . S
O1064 C1050 1.249 . S
O1065 U1046 2.420 . S
O1065 C1050 1.202 . S
O1066 U1046 2.455 . S
O1066 C1063 1.301 . S
O1067 U1046 2.449 . S
O1067 C1063 1.282 . S
H1068 C1041 0.931 . S
H1069 C1043 0.929 . S
H1070 C1044 0.930 . S
H1071 C1045 0.931 . S
H1072 C1052 0.932 . S
H1073 C1053 0.930 . S
H1074 C1054 0.929 . S
H1075 C1056 0.930 . S
H1076 C1058 0.932 . S
H1077 C1059 0.929 . S
H1078 C1060 0.928 . S
H1079 C1062 0.932 . S
C1080 C1081 1.264 . S
C1080 C1085 1.479 . S
C1080 C1090 1.465 . S
C1081 C1080 1.264 . S
C1081 C1083 1.339 . S
C1081 H1108 0.931 . S
C1082 C1083 1.395 . S
C1082 C1084 1.320 . S
C1083 C1081 1.339 . S
C1083 C1082 1.395 . S
C1083 H1109 0.929 . S
C1084 C1082 1.320 . S
C1084 C1085 1.405 . S
C1084 H1110 0.930 . S
C1085 C1080 1.479 . S
C1085 C1084 1.405 . S
C1085 H1111 0.931 . S
U1086 O1087 2.454 . S
U1086 O1088 2.458 . S
U1086 C1089 2.984 . S
U1086 C1090 2.847 . S
U1086 C1103 2.882 . S
U1086 O1104 2.441 . S
U1086 O1105 2.420 . S
U1086 O1106 2.455 . S
U1086 O1107 2.449 . S
O1087 U1086 2.454 . S
O1087 C1089 1.353 . S
O1088 U1086 2.458 . S
O1088 C1089 1.286 . S
C1089 U1086 2.984 . S
C1089 O1087 1.353 . S
C1089 O1088 1.286 . S
C1089 C1091 1.363 . S
C1090 C1080 1.465 . S
C1090 U1086 2.847 . S
C1090 O1104 1.249 . S
C1090 O1105 1.202 . S
C1091 C1089 1.363 . S
C1091 C1093 1.408 . S
C1091 C1096 1.342 . S
C1092 C1093 1.310 . S
C1092 C1095 1.461 . S
C1092 H1112 0.932 . S
C1093 C1091 1.408 . S
C1093 C1092 1.310 . S
C1093 H1113 0.930 . S
C1094 C1095 1.474 . S
C1094 C1096 1.285 . S
C1094 H1114 0.929 . S
C1095 C1092 1.461 . S
C1095 C1094 1.474 . S
C1096 C1091 1.342 . S
C1096 C1094 1.285 . S
C1096 H1115 0.930 . S
C1097 C1100 1.424 . S
C1097 C1102 1.245 . S
C1097 C1103 1.428 . S
C1098 C1101 1.260 . S
C1098 C1102 1.477 . S
C1098 H1116 0.932 . S
C1099 C1100 1.384 . S
C1099 C1101 1.479 . S
C1099 H1117 0.929 . S
C1100 C1097 1.424 . S
C1100 C1099 1.384 . S
C1100 H1118 0.928 . S
C1101 C1098 1.260 . S
C1101 C1099 1.479 . S
C1102 C1097 1.245 . S
C1102 C1098 1.477 . S
C1102 H1119 0.932 . S
C1103 U1086 2.882 . S
C1103 C1097 1.428 . S
C1103 O1106 1.301 . S
C1103 O1107 1.282 . S
O1104 U1086 2.441 . S
O1104 C1090 1.249 . S
O1105 U1086 2.420 . S
O1105 C1090 1.202 . S
O1106 U1086 2.455 . S
O1106 C1103 1.301 . S
O1107 U1086 2.449 . S
O1107 C1103 1.282 . S
H1108 C1081 0.931 . S
H1109 C1083 0.929 . S
H1110 C1084 0.930 . S
H1111 C1085 0.931 . S
H1112 C1092 0.932 . S
H1113 C1093 0.930 . S
H1114 C1094 0.929 . S
H1115 C1096 0.930 . S
H1116 C1098 0.932 . S
H1117 C1099 0.929 . S
H1118 C1100 0.928 . S
H1119 C1102 0.932 . S
C1120 C1121 1.264 . S
C1120 C1125 1.479 . S
C1120 C1130 1.465 . S
C1121 C1120 1.264 . S
C1121 C1123 1.339 . S
C1121 H1148 0.931 . S
C1122 C1123 1.395 . S
C1122 C1124 1.320 . S
C1123 C1121 1.339 . S
C1123 C1122 1.395 . S
C1123 H1149 0.929 . S
C1124 C1122 1.320 . S
C1124 C1125 1.405 . S
C1124 H1150 0.930 . S
C1125 C1120 1.479 . S
C1125 C1124 1.405 . S
C1125 H1151 0.931 . S
U1126 O1127 2.454 . S
U1126 O1128 2.458 . S
U1126 C1129 2.984 . S
U1126 C1130 2.847 . S
U1126 C1143 2.882 . S
U1126 O1144 2.441 . S
U1126 O1145 2.420 . S
U1126 O1146 2.455 . S
U1126 O1147 2.449 . S
O1127 U1126 2.454 . S
O1127 C1129 1.353 . S
O1128 U1126 2.458 . S
O1128 C1129 1.286 . S
C1129 U1126 2.984 . S
C1129 O1127 1.353 . S
C1129 O1128 1.286 . S
C1129 C1131 1.363 . S
C1130 C1120 1.465 . S
C1130 U1126 2.847 . S
C1130 O1144 1.249 . S
C1130 O1145 1.202 . S
C1131 C1129 1.363 . S
C1131 C1133 1.408 . S
C1131 C1136 1.342 . S
C1132 C1133 1.310 . S
C1132 C1135 1.461 . S
C1132 H1152 0.932 . S
C1133 C1131 1.408 . S
C1133 C1132 1.310 . S
C1133 H1153 0.930 . S
C1134 C1135 1.474 . S
C1134 C1136 1.285 . S
C1134 H1154 0.929 . S
C1135 C1132 1.461 . S
C1135 C1134 1.474 . S
C1136 C1131 1.342 . S
C1136 C1134 1.285 . S
C1136 H1155 0.930 . S
C1137 C1140 1.424 . S
C1137 C1142 1.245 . S
C1137 C1143 1.428 . S
C1138 C1141 1.260 . S
C1138 C1142 1.477 . S
C1138 H1156 0.932 . S
C1139 C1140 1.384 . S
C1139 C1141 1.479 . S
C1139 H1157 0.929 . S
C1140 C1137 1.424 . S
C1140 C1139 1.384 . S
C1140 H1158 0.928 . S
C1141 C1138 1.260 . S
C1141 C1139 1.479 . S
C1142 C1137 1.245 . S
C1142 C1138 1.477 . S
C1142 H1159 0.932 . S
C1143 U1126 2.882 . S
C1143 C1137 1.428 . S
C1143 O1146 1.301 . S
C1143 O1147 1.282 . S
O1144 U1126 2.441 . S
O1144 C1130 1.249 . S
O1145 U1126 2.420 . S
O1145 C1130 1.202 . S
O1146 U1126 2.455 . S
O1146 C1143 1.301 . S
O1147 U1126 2.449 . S
O1147 C1143 1.282 . S
H1148 C1121 0.931 . S
H1149 C1123 0.929 . S
H1150 C1124 0.930 . S
H1151 C1125 0.931 . S
H1152 C1132 0.932 . S
H1153 C1133 0.930 . S
H1154 C1134 0.929 . S
H1155 C1136 0.930 . S
H1156 C1138 0.932 . S
H1157 C1139 0.929 . S
H1158 C1140 0.928 . S
H1159 C1142 0.932 . S
C1160 C1161 1.264 . S
C1160 C1165 1.479 . S
C1160 C1170 1.465 . S
C1161 C1160 1.264 . S
C1161 C1163 1.339 . S
C1161 H1188 0.931 . S
C1162 C1163 1.395 . S
C1162 C1164 1.320 . S
C1163 C1161 1.339 . S
C1163 C1162 1.395 . S
C1163 H1189 0.929 . S
C1164 C1162 1.320 . S
C1164 C1165 1.405 . S
C1164 H1190 0.930 . S
C1165 C1160 1.479 . S
C1165 C1164 1.405 . S
C1165 H1191 0.931 . S
U1166 O1167 2.454 . S
U1166 O1168 2.458 . S
U1166 C1169 2.984 . S
U1166 C1170 2.847 . S
U1166 C1183 2.882 . S
U1166 O1184 2.441 . S
U1166 O1185 2.420 . S
U1166 O1186 2.455 . S
U1166 O1187 2.449 . S
O1167 U1166 2.454 . S
O1167 C1169 1.353 . S
O1168 U1166 2.458 . S
O1168 C1169 1.286 . S
C1169 U1166 2.984 . S
C1169 O1167 1.353 . S
C1169 O1168 1.286 . S
C1169 C1171 1.363 . S
C1170 C1160 1.465 . S
C1170 U1166 2.847 . S
C1170 O1184 1.249 . S
C1170 O1185 1.202 . S
C1171 C1169 1.363 . S
C1171 C1173 1.408 . S
C1171 C1176 1.342 . S
C1172 C1173 1.310 . S
C1172 C1175 1.461 . S
C1172 H1192 0.932 . S
C1173 C1171 1.408 . S
C1173 C1172 1.310 . S
C1173 H1193 0.930 . S
C1174 C1175 1.474 . S
C1174 C1176 1.285 . S
C1174 H1194 0.929 . S
C1175 C1172 1.461 . S
C1175 C1174 1.474 . S
C1176 C1171 1.342 . S
C1176 C1174 1.285 . S
C1176 H1195 0.930 . S
C1177 C1180 1.424 . S
C1177 C1182 1.245 . S
C1177 C1183 1.428 . S
C1178 C1181 1.260 . S
C1178 C1182 1.477 . S
C1178 H1196 0.932 . S
C1179 C1180 1.384 . S
C1179 C1181 1.479 . S
C1179 H1197 0.929 . S
C1180 C1177 1.424 . S
C1180 C1179 1.384 . S
C1180 H1198 0.928 . S
C1181 C1178 1.260 . S
C1181 C1179 1.479 . S
C1182 C1177 1.245 . S
C1182 C1178 1.477 . S
C1182 H1199 0.932 . S
C1183 U1166 2.882 . S
C1183 C1177 1.428 . S
C1183 O1186 1.301 . S
C1183 O1187 1.282 . S
O1184 U1166 2.441 . S
O1184 C1170 1.249 . S
O1185 U1166 2.420 . S
O1185 C1170 1.202 . S
O1186 U1166 2.455 . S
O1186 C1183 1.301 . S
O1187 U1166 2.449 . S
O1187 C1183 1.282 . S
H1188 C1161 0.931 . S
H1189 C1163 0.929 . S
H1190 C1164 0.930 . S
H1191 C1165 0.931 . S
H1192 C1172 0.932 . S
H1193 C1173 0.930 . S
H1194 C1174 0.929 . S
H1195 C1176 0.930 . S
H1196 C1178 0.932 . S
H1197 C1179 0.929 . S
H1198 C1180 0.928 . S
H1199 C1182 0.932 . S
C1200 C1201 1.264 . S
C1200 C1205 1.479 . S
C1200 C1210 1.465 . S
C1201 C1200 1.264 . S
C1201 C1203 1.339 . S
C1201 H1228 0.931 . S
C1202 C1203 1.395 . S
C1202 C1204 1.320 . S
C1203 C1201 1.339 . S
C1203 C1202 1.395 . S
C1203 H1229 0.929 . S
C1204 C1202 1.320 . S
C1204 C1205 1.405 . S
C1204 H1230 0.930 . S
C1205 C1200 1.479 . S
C1205 C1204 1.405 . S
C1205 H1231 0.931 . S
U1206 O1207 2.454 . S
U1206 O1208 2.458 . S
U1206 C1209 2.984 . S
U1206 C1210 2.847 . S
U1206 C1223 2.882 . S
U1206 O1224 2.441 . S
U1206 O1225 2.420 . S
U1206 O1226 2.455 . S
U1206 O1227 2.449 . S
O1207 U1206 2.454 . S
O1207 C1209 1.353 . S
O1208 U1206 2.458 . S
O1208 C1209 1.286 . S
C1209 U1206 2.984 . S
C1209 O1207 1.353 . S
C1209 O1208 1.286 . S
C1209 C1211 1.363 . S
C1210 C1200 1.465 . S
C1210 U1206 2.847 . S
C1210 O1224 1.249 . S
C1210 O1225 1.202 . S
C1211 C1209 1.363 . S
C1211 C1213 1.408 . S
C1211 C1216 1.342 . S
C1212 C1213 1.310 . S
C1212 C1215 1.461 . S
C1212 H1232 0.932 . S
C1213 C1211 1.408 . S
C1213 C1212 1.310 . S
C1213 H1233 0.930 . S
C1214 C1215 1.474 . S
C1214 C1216 1.285 . S
C1214 H1234 0.929 . S
C1215 C1212 1.461 . S
C1215 C1214 1.474 . S
C1216 C1211 1.342 . S
C1216 C1214 1.285 . S
C1216 H1235 0.930 . S
C1217 C1220 1.424 . S
C1217 C1222 1.245 . S
C1217 C1223 1.428 . S
C1218 C1221 1.260 . S
C1218 C1222 1.477 . S
C1218 H1236 0.932 . S
C1219 C1220 1.384 . S
C1219 C1221 1.479 . S
C1219 H1237 0.929 . S
C1220 C1217 1.424 . S
C1220 C1219 1.384 . S
C1220 H1238 0.928 . S
C1221 C1218 1.260 . S
C1221 C1219 1.479 . S
C1222 C1217 1.245 . S
C1222 C1218 1.477 . S
C1222 H1239 0.932 . S
C1223 U1206 2.882 . S
C1223 C1217 1.428 . S
C1223 O1226 1.301 . S
C1223 O1227 1.282 . S
O1224 U1206 2.441 . S
O1224 C1210 1.249 . S
O1225 U1206 2.420 . S
O1225 C1210 1.202 . S
O1226 U1206 2.455 . S
O1226 C1223 1.301 . S
O1227 U1206 2.449 . S
O1227 C1223 1.282 . S
H1228 C1201 0.931 . S
H1229 C1203 0.929 . S
H1230 C1204 0.930 . S
H1231 C1205 0.931 . S
H1232 C1212 0.932 . S
H1233 C1213 0.930 . S
H1234 C1214 0.929 . S
H1235 C1216 0.930 . S
H1236 C1218 0.932 . S
H1237 C1219 0.929 . S
H1238 C1220 0.928 . S
H1239 C1222 0.932 . S
C1240 C1241 1.264 . S
C1240 C1245 1.479 . S
C1240 C1250 1.465 . S
C1241 C1240 1.264 . S
C1241 C1243 1.339 . S
C1241 H1268 0.931 . S
C1242 C1243 1.395 . S
C1242 C1244 1.320 . S
C1243 C1241 1.339 . S
C1243 C1242 1.395 . S
C1243 H1269 0.929 . S
C1244 C1242 1.320 . S
C1244 C1245 1.405 . S
C1244 H1270 0.930 . S
C1245 C1240 1.479 . S
C1245 C1244 1.405 . S
C1245 H1271 0.931 . S
U1246 O1247 2.454 . S
U1246 O1248 2.458 . S
U1246 C1249 2.984 . S
U1246 C1250 2.847 . S
U1246 C1263 2.882 . S
U1246 O1264 2.441 . S
U1246 O1265 2.420 . S
U1246 O1266 2.455 . S
U1246 O1267 2.449 . S
O1247 U1246 2.454 . S
O1247 C1249 1.353 . S
O1248 U1246 2.458 . S
O1248 C1249 1.286 . S
C1249 U1246 2.984 . S
C1249 O1247 1.353 . S
C1249 O1248 1.286 . S
C1249 C1251 1.363 . S
C1250 C1240 1.465 . S
C1250 U1246 2.847 . S
C1250 O1264 1.249 . S
C1250 O1265 1.202 . S
C1251 C1249 1.363 . S
C1251 C1253 1.408 . S
C1251 C1256 1.342 . S
C1252 C1253 1.310 . S
C1252 C1255 1.461 . S
C1252 H1272 0.932 . S
C1253 C1251 1.408 . S
C1253 C1252 1.310 . S
C1253 H1273 0.930 . S
C1254 C1255 1.474 . S
C1254 C1256 1.285 . S
C1254 H1274 0.929 . S
C1255 C1252 1.461 . S
C1255 C1254 1.474 . S
C1256 C1251 1.342 . S
C1256 C1254 1.285 . S
C1256 H1275 0.930 . S
C1257 C1260 1.424 . S
C1257 C1262 1.245 . S
C1257 C1263 1.428 . S
C1258 C1261 1.260 . S
C1258 C1262 1.477 . S
C1258 H1276 0.932 . S
C1259 C1260 1.384 . S
C1259 C1261 1.479 . S
C1259 H1277 0.929 . S
C1260 C1257 1.424 . S
C1260 C1259 1.384 . S
C1260 H1278 0.928 . S
C1261 C1258 1.260 . S
C1261 C1259 1.479 . S
C1262 C1257 1.245 . S
C1262 C1258 1.477 . S
C1262 H1279 0.932 . S
C1263 U1246 2.882 . S
C1263 C1257 1.428 . S
C1263 O1266 1.301 . S
C1263 O1267 1.282 . S
O1264 U1246 2.441 . S
O1264 C1250 1.249 . S
O1265 U1246 2.420 . S
O1265 C1250 1.202 . S
O1266 U1246 2.455 . S
O1266 C1263 1.301 . S
O1267 U1246 2.449 . S
O1267 C1263 1.282 . S
H1268 C1241 0.931 . S
H1269 C1243 0.929 . S
H1270 C1244 0.930 . S
H1271 C1245 0.931 . S
H1272 C1252 0.932 . S
H1273 C1253 0.930 . S
H1274 C1254 0.929 . S
H1275 C1256 0.930 . S
H1276 C1258 0.932 . S
H1277 C1259 0.929 . S
H1278 C1260 0.928 . S
H1279 C1262 0.932 . S
H1280 C1299 0.949 . S
H1281 C1300 0.950 . S
H1282 C1302 0.950 . S
H1283 C1303 0.950 . S
H1284 C1305 0.950 . S
H1285 C1308 0.950 . S
H1286 C1309 0.950 . S
H1287 C1311 0.951 . S
H1288 C1312 0.949 . S
H1289 C1314 0.949 . S
H1290 C1315 0.950 . S
H1291 C1317 0.950 . S
H1292 C1318 0.950 . S
H1293 C1320 0.950 . S
H1294 C1323 0.950 . S
H1295 C1324 0.950 . S
H1296 C1326 0.951 . S
H1297 C1327 0.949 . S
C1298 C1299 1.376 . S
C1298 C1303 1.386 . S
C1298 C1304 1.483 . S
C1299 H1280 0.949 . S
C1299 C1298 1.376 . S
C1299 C1300 1.397 . S
C1300 H1281 0.950 . S
C1300 C1299 1.397 . S
C1300 C1301 1.391 . S
C1301 C1300 1.391 . S
C1301 C1302 1.405 . S
C1302 H1282 0.950 . S
C1302 C1301 1.405 . S
C1302 C1303 1.367 . S
C1303 H1283 0.950 . S
C1303 C1298 1.386 . S
C1303 C1302 1.367 . S
C1304 C1298 1.483 . S
C1304 C1305 1.382 1_556 S
C1304 C1306 1.403 . S
C1305 H1284 0.950 . S
C1305 C1304 1.382 1_554 S
C1305 C1321 1.411 . S
C1306 C1304 1.403 . S
C1306 C1307 1.489 . S
C1306 C1320 1.411 1_556 S
C1307 C1306 1.489 . S
C1307 C1308 1.383 . S
C1307 C1312 1.382 . S
C1308 H1285 0.950 . S
C1308 C1307 1.383 . S
C1308 C1309 1.395 . S
C1309 H1286 0.950 . S
C1309 C1308 1.395 . S
C1309 C1310 1.288 . S
C1310 C1309 1.288 . S
C1310 C1311 1.392 . S
C1311 H1287 0.951 . S
C1311 C1310 1.392 . S
C1311 C1312 1.392 . S
C1312 H1288 0.949 . S
C1312 C1307 1.382 . S
C1312 C1311 1.392 . S
C1313 C1314 1.376 . S
C1313 C1318 1.386 . S
C1313 C1319 1.483 . S
C1314 H1289 0.949 . S
C1314 C1313 1.376 . S
C1314 C1315 1.397 . S
C1315 H1290 0.950 . S
C1315 C1314 1.397 . S
C1315 C1316 1.391 . S
C1316 C1315 1.391 . S
C1316 C1317 1.405 . S
C1317 H1291 0.950 . S
C1317 C1316 1.405 . S
C1317 C1318 1.367 . S
C1318 H1292 0.950 . S
C1318 C1313 1.386 . S
C1318 C1317 1.367 . S
C1319 C1313 1.483 . S
C1319 C1320 1.382 . S
C1319 C1321 1.403 . S
C1320 H1293 0.950 . S
C1320 C1306 1.411 1_554 S
C1320 C1319 1.382 . S
C1321 C1305 1.411 . S
C1321 C1319 1.403 . S
C1321 C1322 1.489 . S
C1322 C1321 1.489 . S
C1322 C1323 1.383 . S
C1322 C1327 1.382 . S
C1323 H1294 0.950 . S
C1323 C1322 1.383 . S
C1323 C1324 1.395 . S
C1324 H1295 0.950 . S
C1324 C1323 1.395 . S
C1324 C1325 1.288 . S
C1325 C1324 1.288 . S
C1325 C1326 1.392 . S
C1326 H1296 0.951 . S
C1326 C1325 1.392 . S
C1326 C1327 1.392 . S
C1327 H1297 0.949 . S
C1327 C1322 1.382 . S
C1327 C1326 1.392 . S
H1328 C1347 0.949 . S
H1329 C1348 0.950 . S
H1330 C1350 0.950 . S
H1331 C1351 0.950 . S
H1332 C1353 0.950 . S
H1333 C1356 0.950 . S
H1334 C1357 0.950 . S
H1335 C1359 0.951 . S
H1336 C1360 0.949 . S
H1337 C1362 0.949 . S
H1338 C1363 0.950 . S
H1339 C1365 0.950 . S
H1340 C1366 0.950 . S
H1341 C1368 0.950 . S
H1342 C1371 0.950 . S
H1343 C1372 0.950 . S
H1344 C1374 0.951 . S
H1345 C1375 0.949 . S
C1346 C1347 1.376 . S
C1346 C1351 1.386 . S
C1346 C1352 1.483 . S
C1347 H1328 0.949 . S
C1347 C1346 1.376 . S
C1347 C1348 1.397 . S
C1348 H1329 0.950 . S
C1348 C1347 1.397 . S
C1348 C1349 1.391 . S
C1349 C1348 1.391 . S
C1349 C1350 1.405 . S
C1350 H1330 0.950 . S
C1350 C1349 1.405 . S
C1350 C1351 1.367 . S
C1351 H1331 0.950 . S
C1351 C1346 1.386 . S
C1351 C1350 1.367 . S
C1352 C1346 1.483 . S
C1352 C1353 1.382 1_556 S
C1352 C1354 1.403 . S
C1353 H1332 0.950 . S
C1353 C1352 1.382 1_554 S
C1353 C1369 1.411 . S
C1354 C1352 1.403 . S
C1354 C1355 1.489 . S
C1354 C1368 1.411 1_556 S
C1355 C1354 1.489 . S
C1355 C1356 1.383 . S
C1355 C1360 1.382 . S
C1356 H1333 0.950 . S
C1356 C1355 1.383 . S
C1356 C1357 1.395 . S
C1357 H1334 0.950 . S
C1357 C1356 1.395 . S
C1357 C1358 1.288 . S
C1358 C1357 1.288 . S
C1358 C1359 1.392 . S
C1359 H1335 0.951 . S
C1359 C1358 1.392 . S
C1359 C1360 1.392 . S
C1360 H1336 0.949 . S
C1360 C1355 1.382 . S
C1360 C1359 1.392 . S
C1361 C1362 1.376 . S
C1361 C1366 1.386 . S
C1361 C1367 1.483 . S
C1362 H1337 0.949 . S
C1362 C1361 1.376 . S
C1362 C1363 1.397 . S
C1363 H1338 0.950 . S
C1363 C1362 1.397 . S
C1363 C1364 1.391 . S
C1364 C1363 1.391 . S
C1364 C1365 1.405 . S
C1365 H1339 0.950 . S
C1365 C1364 1.405 . S
C1365 C1366 1.367 . S
C1366 H1340 0.950 . S
C1366 C1361 1.386 . S
C1366 C1365 1.367 . S
C1367 C1361 1.483 . S
C1367 C1368 1.382 . S
C1367 C1369 1.403 . S
C1368 H1341 0.950 . S
C1368 C1354 1.411 1_554 S
C1368 C1367 1.382 . S
C1369 C1353 1.411 . S
C1369 C1367 1.403 . S
C1369 C1370 1.489 . S
C1370 C1369 1.489 . S
C1370 C1371 1.383 . S
C1370 C1375 1.382 . S
C1371 H1342 0.950 . S
C1371 C1370 1.383 . S
C1371 C1372 1.395 . S
C1372 H1343 0.950 . S
C1372 C1371 1.395 . S
C1372 C1373 1.288 . S
C1373 C1372 1.288 . S
C1373 C1374 1.392 . S
C1374 H1344 0.951 . S
C1374 C1373 1.392 . S
C1374 C1375 1.392 . S
C1375 H1345 0.949 . S
C1375 C1370 1.382 . S
C1375 C1374 1.392 . S
H1376 C1395 0.949 . S
H1377 C1396 0.950 . S
H1378 C1398 0.950 . S
H1379 C1399 0.950 . S
H1380 C1401 0.950 . S
H1381 C1404 0.950 . S
H1382 C1405 0.950 . S
H1383 C1407 0.951 . S
H1384 C1408 0.949 . S
H1385 C1410 0.949 . S
H1386 C1411 0.950 . S
H1387 C1413 0.950 . S
H1388 C1414 0.950 . S
H1389 C1416 0.950 . S
H1390 C1419 0.950 . S
H1391 C1420 0.950 . S
H1392 C1422 0.951 . S
H1393 C1423 0.949 . S
C1394 C1395 1.376 . S
C1394 C1399 1.386 . S
C1394 C1400 1.483 . S
C1395 H1376 0.949 . S
C1395 C1394 1.376 . S
C1395 C1396 1.397 . S
C1396 H1377 0.950 . S
C1396 C1395 1.397 . S
C1396 C1397 1.391 . S
C1397 C1396 1.391 . S
C1397 C1398 1.405 . S
C1398 H1378 0.950 . S
C1398 C1397 1.405 . S
C1398 C1399 1.367 . S
C1399 H1379 0.950 . S
C1399 C1394 1.386 . S
C1399 C1398 1.367 . S
C1400 C1394 1.483 . S
C1400 C1401 1.382 . S
C1400 C1402 1.403 . S
C1401 H1380 0.950 . S
C1401 C1400 1.382 . S
C1401 C1417 1.411 1_554 S
C1402 C1400 1.403 . S
C1402 C1403 1.489 . S
C1402 C1416 1.411 . S
C1403 C1402 1.489 . S
C1403 C1404 1.383 . S
C1403 C1408 1.382 . S
C1404 H1381 0.950 . S
C1404 C1403 1.383 . S
C1404 C1405 1.395 . S
C1405 H1382 0.950 . S
C1405 C1404 1.395 . S
C1405 C1406 1.288 . S
C1406 C1405 1.288 . S
C1406 C1407 1.392 . S
C1407 H1383 0.951 . S
C1407 C1406 1.392 . S
C1407 C1408 1.392 . S
C1408 H1384 0.949 . S
C1408 C1403 1.382 . S
C1408 C1407 1.392 . S
C1409 C1410 1.376 . S
C1409 C1414 1.386 . S
C1409 C1415 1.483 . S
C1410 H1385 0.949 . S
C1410 C1409 1.376 . S
C1410 C1411 1.397 . S
C1411 H1386 0.950 . S
C1411 C1410 1.397 . S
C1411 C1412 1.391 . S
C1412 C1411 1.391 . S
C1412 C1413 1.405 . S
C1413 H1387 0.950 . S
C1413 C1412 1.405 . S
C1413 C1414 1.367 . S
C1414 H1388 0.950 . S
C1414 C1409 1.386 . S
C1414 C1413 1.367 . S
C1415 C1409 1.483 . S
C1415 C1416 1.382 1_556 S
C1415 C1417 1.403 . S
C1416 H1389 0.950 . S
C1416 C1402 1.411 . S
C1416 C1415 1.382 1_554 S
C1417 C1401 1.411 1_556 S
C1417 C1415 1.403 . S
C1417 C1418 1.489 . S
C1418 C1417 1.489 . S
C1418 C1419 1.383 . S
C1418 C1423 1.382 . S
C1419 H1390 0.950 . S
C1419 C1418 1.383 . S
C1419 C1420 1.395 . S
C1420 H1391 0.950 . S
C1420 C1419 1.395 . S
C1420 C1421 1.288 . S
C1421 C1420 1.288 . S
C1421 C1422 1.392 . S
C1422 H1392 0.951 . S
C1422 C1421 1.392 . S
C1422 C1423 1.392 . S
C1423 H1393 0.949 . S
C1423 C1418 1.382 . S
C1423 C1422 1.392 . S
H1424 C1443 0.949 . S
H1425 C1444 0.950 . S
H1426 C1446 0.950 . S
H1427 C1447 0.950 . S
H1428 C1449 0.950 . S
H1429 C1452 0.950 . S
H1430 C1453 0.950 . S
H1431 C1455 0.951 . S
H1432 C1456 0.949 . S
H1433 C1458 0.949 . S
H1434 C1459 0.950 . S
H1435 C1461 0.950 . S
H1436 C1462 0.950 . S
H1437 C1464 0.950 . S
H1438 C1467 0.950 . S
H1439 C1468 0.950 . S
H1440 C1470 0.951 . S
H1441 C1471 0.949 . S
C1442 C1443 1.376 . S
C1442 C1447 1.386 . S
C1442 C1448 1.483 . S
C1443 H1424 0.949 . S
C1443 C1442 1.376 . S
C1443 C1444 1.397 . S
C1444 H1425 0.950 . S
C1444 C1443 1.397 . S
C1444 C1445 1.391 . S
C1445 C1444 1.391 . S
C1445 C1446 1.405 . S
C1446 H1426 0.950 . S
C1446 C1445 1.405 . S
C1446 C1447 1.367 . S
C1447 H1427 0.950 . S
C1447 C1442 1.386 . S
C1447 C1446 1.367 . S
C1448 C1442 1.483 . S
C1448 C1449 1.382 1_556 S
C1448 C1450 1.403 . S
C1449 H1428 0.950 . S
C1449 C1448 1.382 1_554 S
C1449 C1465 1.411 . S
C1450 C1448 1.403 . S
C1450 C1451 1.489 . S
C1450 C1464 1.411 1_556 S
C1451 C1450 1.489 . S
C1451 C1452 1.383 . S
C1451 C1456 1.382 . S
C1452 H1429 0.950 . S
C1452 C1451 1.383 . S
C1452 C1453 1.395 . S
C1453 H1430 0.950 . S
C1453 C1452 1.395 . S
C1453 C1454 1.288 . S
C1454 C1453 1.288 . S
C1454 C1455 1.392 . S
C1455 H1431 0.951 . S
C1455 C1454 1.392 . S
C1455 C1456 1.392 . S
C1456 H1432 0.949 . S
C1456 C1451 1.382 . S
C1456 C1455 1.392 . S
C1457 C1458 1.376 . S
C1457 C1462 1.386 . S
C1457 C1463 1.483 . S
C1458 H1433 0.949 . S
C1458 C1457 1.376 . S
C1458 C1459 1.397 . S
C1459 H1434 0.950 . S
C1459 C1458 1.397 . S
C1459 C1460 1.391 . S
C1460 C1459 1.391 . S
C1460 C1461 1.405 . S
C1461 H1435 0.950 . S
C1461 C1460 1.405 . S
C1461 C1462 1.367 . S
C1462 H1436 0.950 . S
C1462 C1457 1.386 . S
C1462 C1461 1.367 . S
C1463 C1457 1.483 . S
C1463 C1464 1.382 . S
C1463 C1465 1.403 . S
C1464 H1437 0.950 . S
C1464 C1450 1.411 1_554 S
C1464 C1463 1.382 . S
C1465 C1449 1.411 . S
C1465 C1463 1.403 . S
C1465 C1466 1.489 . S
C1466 C1465 1.489 . S
C1466 C1467 1.383 . S
C1466 C1471 1.382 . S
C1467 H1438 0.950 . S
C1467 C1466 1.383 . S
C1467 C1468 1.395 . S
C1468 H1439 0.950 . S
C1468 C1467 1.395 . S
C1468 C1469 1.288 . S
C1469 C1468 1.288 . S
C1469 C1470 1.392 . S
C1470 H1440 0.951 . S
C1470 C1469 1.392 . S
C1470 C1471 1.392 . S
C1471 H1441 0.949 . S
C1471 C1466 1.382 . S
C1471 C1470 1.392 . S
H1472 C1491 0.949 . S
H1473 C1492 0.950 . S
H1474 C1494 0.950 . S
H1475 C1495 0.950 . S
H1476 C1497 0.950 . S
H1477 C1500 0.950 . S
H1478 C1501 0.950 . S
H1479 C1503 0.951 . S
H1480 C1504 0.949 . S
H1481 C1506 0.949 . S
H1482 C1507 0.950 . S
H1483 C1509 0.950 . S
H1484 C1510 0.950 . S
H1485 C1512 0.950 . S
H1486 C1515 0.950 . S
H1487 C1516 0.950 . S
H1488 C1518 0.951 . S
H1489 C1519 0.949 . S
C1490 C1491 1.376 . S
C1490 C1495 1.386 . S
C1490 C1496 1.483 . S
C1491 H1472 0.949 . S
C1491 C1490 1.376 . S
C1491 C1492 1.397 . S
C1492 H1473 0.950 . S
C1492 C1491 1.397 . S
C1492 C1493 1.391 . S
C1493 C1492 1.391 . S
C1493 C1494 1.405 . S
C1494 H1474 0.950 . S
C1494 C1493 1.405 . S
C1494 C1495 1.367 . S
C1495 H1475 0.950 . S
C1495 C1490 1.386 . S
C1495 C1494 1.367 . S
C1496 C1490 1.483 . S
C1496 C1497 1.382 . S
C1496 C1498 1.403 . S
C1497 H1476 0.950 . S
C1497 C1496 1.382 . S
C1497 C1513 1.411 1_455 S
C1498 C1496 1.403 . S
C1498 C1499 1.489 . S
C1498 C1512 1.411 . S
C1499 C1498 1.489 . S
C1499 C1500 1.383 . S
C1499 C1504 1.382 . S
C1500 H1477 0.950 . S
C1500 C1499 1.383 . S
C1500 C1501 1.395 . S
C1501 H1478 0.950 . S
C1501 C1500 1.395 . S
C1501 C1502 1.288 . S
C1502 C1501 1.288 . S
C1502 C1503 1.392 . S
C1503 H1479 0.951 . S
C1503 C1502 1.392 . S
C1503 C1504 1.392 . S
C1504 H1480 0.949 . S
C1504 C1499 1.382 . S
C1504 C1503 1.392 . S
C1505 C1506 1.376 . S
C1505 C1510 1.386 . S
C1505 C1511 1.483 . S
C1506 H1481 0.949 . S
C1506 C1505 1.376 . S
C1506 C1507 1.397 . S
C1507 H1482 0.950 . S
C1507 C1506 1.397 . S
C1507 C1508 1.391 . S
C1508 C1507 1.391 . S
C1508 C1509 1.405 . S
C1509 H1483 0.950 . S
C1509 C1508 1.405 . S
C1509 C1510 1.367 . S
C1510 H1484 0.950 . S
C1510 C1505 1.386 . S
C1510 C1509 1.367 . S
C1511 C1505 1.483 . S
C1511 C1512 1.382 1_655 S
C1511 C1513 1.403 . S
C1512 H1485 0.950 . S
C1512 C1498 1.411 . S
C1512 C1511 1.382 1_455 S
C1513 C1497 1.411 1_655 S
C1513 C1511 1.403 . S
C1513 C1514 1.489 . S
C1514 C1513 1.489 . S
C1514 C1515 1.383 . S
C1514 C1519 1.382 . S
C1515 H1486 0.950 . S
C1515 C1514 1.383 . S
C1515 C1516 1.395 . S
C1516 H1487 0.950 . S
C1516 C1515 1.395 . S
C1516 C1517 1.288 . S
C1517 C1516 1.288 . S
C1517 C1518 1.392 . S
C1518 H1488 0.951 . S
C1518 C1517 1.392 . S
C1518 C1519 1.392 . S
C1519 H1489 0.949 . S
C1519 C1514 1.382 . S
C1519 C1518 1.392 . S
H1520 C1539 0.949 . S
H1521 C1540 0.950 . S
H1522 C1542 0.950 . S
H1523 C1543 0.950 . S
H1524 C1545 0.950 . S
H1525 C1548 0.950 . S
H1526 C1549 0.950 . S
H1527 C1551 0.951 . S
H1528 C1552 0.949 . S
H1529 C1554 0.949 . S
H1530 C1555 0.950 . S
H1531 C1557 0.950 . S
H1532 C1558 0.950 . S
H1533 C1560 0.950 1_565 S
H1534 C1563 0.950 . S
H1535 C1564 0.950 . S
H1536 C1566 0.951 . S
H1537 C1567 0.949 . S
C1538 C1539 1.376 . S
C1538 C1543 1.386 . S
C1538 C1544 1.483 . S
C1539 H1520 0.949 . S
C1539 C1538 1.376 . S
C1539 C1540 1.397 . S
C1540 H1521 0.950 . S
C1540 C1539 1.397 . S
C1540 C1541 1.391 . S
C1541 C1540 1.391 . S
C1541 C1542 1.405 . S
C1542 H1522 0.950 . S
C1542 C1541 1.405 . S
C1542 C1543 1.367 . S
C1543 H1523 0.950 . S
C1543 C1538 1.386 . S
C1543 C1542 1.367 . S
C1544 C1538 1.483 . S
C1544 C1545 1.382 . S
C1544 C1546 1.403 . S
C1545 H1524 0.950 . S
C1545 C1544 1.382 . S
C1545 C1561 1.411 1_545 S
C1546 C1544 1.403 . S
C1546 C1547 1.489 . S
C1546 C1560 1.408 . S
C1547 C1546 1.489 . S
C1547 C1548 1.383 . S
C1547 C1552 1.382 . S
C1548 H1525 0.950 . S
C1548 C1547 1.383 . S
C1548 C1549 1.395 . S
C1549 H1526 0.950 . S
C1549 C1548 1.395 . S
C1549 C1550 1.288 . S
C1550 C1549 1.288 . S
C1550 C1551 1.392 . S
C1551 H1527 0.951 . S
C1551 C1550 1.392 . S
C1551 C1552 1.392 . S
C1552 H1528 0.949 . S
C1552 C1547 1.382 . S
C1552 C1551 1.392 . S
C1553 C1554 1.376 . S
C1553 C1558 1.386 . S
C1553 C1559 1.483 . S
C1554 H1529 0.949 . S
C1554 C1553 1.376 . S
C1554 C1555 1.397 . S
C1555 H1530 0.950 . S
C1555 C1554 1.397 . S
C1555 C1556 1.391 . S
C1556 C1555 1.391 . S
C1556 C1557 1.405 . S
C1557 H1531 0.950 . S
C1557 C1556 1.405 . S
C1557 C1558 1.367 . S
C1558 H1532 0.950 . S
C1558 C1553 1.386 . S
C1558 C1557 1.367 . S
C1559 C1553 1.483 . S
C1559 C1560 1.384 1_565 S
C1559 C1561 1.403 . S
C1560 H1533 0.950 1_545 S
C1560 C1546 1.408 . S
C1560 C1559 1.384 1_545 S
C1561 C1545 1.411 1_565 S
C1561 C1559 1.403 . S
C1561 C1562 1.489 . S
C1562 C1561 1.489 . S
C1562 C1563 1.383 . S
C1562 C1567 1.382 . S
C1563 H1534 0.950 . S
C1563 C1562 1.383 . S
C1563 C1564 1.395 . S
C1564 H1535 0.950 . S
C1564 C1563 1.395 . S
C1564 C1565 1.288 . S
C1565 C1564 1.288 . S
C1565 C1566 1.392 . S
C1566 H1536 0.951 . S
C1566 C1565 1.392 . S
C1566 C1567 1.392 . S
C1567 H1537 0.949 . S
C1567 C1562 1.382 . S
C1567 C1566 1.392 . S
H1568 C1587 0.949 . S
H1569 C1588 0.950 . S
H1570 C1590 0.950 . S
H1571 C1591 0.950 . S
H1572 C1593 0.957 . S
H1573 C1596 0.950 . S
H1574 C1597 0.950 . S
H1575 C1599 0.951 . S
H1576 C1600 0.949 . S
H1577 C1602 0.949 . S
H1578 C1603 0.950 . S
H1579 C1605 0.950 . S
H1580 C1606 0.950 . S
H1581 C1608 0.950 . S
H1582 C1611 0.950 . S
H1583 C1612 0.950 . S
H1584 C1614 0.951 . S
H1585 C1615 0.949 . S
C1586 C1587 1.376 . S
C1586 C1591 1.386 . S
C1586 C1592 1.483 . S
C1587 H1568 0.949 . S
C1587 C1586 1.376 . S
C1587 C1588 1.397 . S
C1588 H1569 0.950 . S
C1588 C1587 1.397 . S
C1588 C1589 1.391 . S
C1589 C1588 1.391 . S
C1589 C1590 1.405 . S
C1590 H1570 0.950 . S
C1590 C1589 1.405 . S
C1590 C1591 1.367 . S
C1591 H1571 0.950 . S
C1591 C1586 1.386 . S
C1591 C1590 1.367 . S
C1592 C1586 1.483 . S
C1592 C1593 1.467 . S
C1592 C1594 1.403 . S
C1593 H1572 0.957 . S
C1593 C1592 1.467 . S
C1593 C1609 1.325 1_455 S
C1594 C1592 1.403 . S
C1594 C1595 1.489 . S
C1594 C1608 1.444 . S
C1595 C1594 1.489 . S
C1595 C1596 1.383 . S
C1595 C1600 1.382 . S
C1596 H1573 0.950 . S
C1596 C1595 1.383 . S
C1596 C1597 1.395 . S
C1597 H1574 0.950 . S
C1597 C1596 1.395 . S
C1597 C1598 1.288 . S
C1598 C1597 1.288 . S
C1598 C1599 1.392 . S
C1599 H1575 0.951 . S
C1599 C1598 1.392 . S
C1599 C1600 1.392 . S
C1600 H1576 0.949 . S
C1600 C1595 1.382 . S
C1600 C1599 1.392 . S
C1601 C1602 1.376 . S
C1601 C1606 1.386 . S
C1601 C1607 1.483 . S
C1602 H1577 0.949 . S
C1602 C1601 1.376 . S
C1602 C1603 1.397 . S
C1603 H1578 0.950 . S
C1603 C1602 1.397 . S
C1603 C1604 1.391 . S
C1604 C1603 1.391 . S
C1604 C1605 1.405 . S
C1605 H1579 0.950 . S
C1605 C1604 1.405 . S
C1605 C1606 1.367 . S
C1606 H1580 0.950 . S
C1606 C1601 1.386 . S
C1606 C1605 1.367 . S
C1607 C1601 1.483 . S
C1607 C1608 1.349 1_655 S
C1607 C1609 1.403 . S
C1608 H1581 0.950 . S
C1608 C1594 1.444 . S
C1608 C1607 1.349 1_455 S
C1609 C1593 1.325 1_655 S
C1609 C1607 1.403 . S
C1609 C1610 1.489 . S
C1610 C1609 1.489 . S
C1610 C1611 1.383 . S
C1610 C1615 1.382 . S
C1611 H1582 0.950 . S
C1611 C1610 1.383 . S
C1611 C1612 1.395 . S
C1612 H1583 0.950 . S
C1612 C1611 1.395 . S
C1612 C1613 1.288 . S
C1613 C1612 1.288 . S
C1613 C1614 1.392 . S
C1614 H1584 0.951 . S
C1614 C1613 1.392 . S
C1614 C1615 1.392 . S
C1615 H1585 0.949 . S
C1615 C1610 1.382 . S
C1615 C1614 1.392 . S
H1616 C1635 0.949 . S
H1617 C1636 0.950 . S
H1618 C1638 0.950 . S
H1619 C1639 0.950 . S
H1620 C1641 0.950 . S
H1621 C1644 0.950 . S
H1622 C1645 0.950 . S
H1623 C1647 0.951 . S
H1624 C1648 0.949 . S
H1625 C1650 0.949 . S
H1626 C1651 0.950 . S
H1627 C1653 0.950 . S
H1628 C1654 0.950 . S
H1629 C1656 0.950 . S
H1630 C1659 0.950 . S
H1631 C1660 0.950 . S
H1632 C1662 0.951 . S
H1633 C1663 0.949 . S
C1634 C1635 1.376 . S
C1634 C1639 1.386 . S
C1634 C1640 1.483 . S
C1635 H1616 0.949 . S
C1635 C1634 1.376 . S
C1635 C1636 1.397 . S
C1636 H1617 0.950 . S
C1636 C1635 1.397 . S
C1636 C1637 1.391 . S
C1637 C1636 1.391 . S
C1637 C1638 1.405 . S
C1638 H1618 0.950 . S
C1638 C1637 1.405 . S
C1638 C1639 1.367 . S
C1639 H1619 0.950 . S
C1639 C1634 1.386 . S
C1639 C1638 1.367 . S
C1640 C1634 1.483 . S
C1640 C1641 1.382 . S
C1640 C1642 1.403 . S
C1641 H1620 0.950 . S
C1641 C1640 1.382 . S
C1641 C1657 1.411 1_545 S
C1642 C1640 1.403 . S
C1642 C1643 1.489 . S
C1642 C1656 1.411 . S
C1643 C1642 1.489 . S
C1643 C1644 1.383 . S
C1643 C1648 1.382 . S
C1644 H1621 0.950 . S
C1644 C1643 1.383 . S
C1644 C1645 1.395 . S
C1645 H1622 0.950 . S
C1645 C1644 1.395 . S
C1645 C1646 1.288 . S
C1646 C1645 1.288 . S
C1646 C1647 1.392 . S
C1647 H1623 0.951 . S
C1647 C1646 1.392 . S
C1647 C1648 1.392 . S
C1648 H1624 0.949 . S
C1648 C1643 1.382 . S
C1648 C1647 1.392 . S
C1649 C1650 1.376 . S
C1649 C1654 1.386 . S
C1649 C1655 1.483 . S
C1650 H1625 0.949 . S
C1650 C1649 1.376 . S
C1650 C1651 1.397 . S
C1651 H1626 0.950 . S
C1651 C1650 1.397 . S
C1651 C1652 1.391 . S
C1652 C1651 1.391 . S
C1652 C1653 1.405 . S
C1653 H1627 0.950 . S
C1653 C1652 1.405 . S
C1653 C1654 1.367 . S
C1654 H1628 0.950 . S
C1654 C1649 1.386 . S
C1654 C1653 1.367 . S
C1655 C1649 1.483 . S
C1655 C1656 1.382 1_565 S
C1655 C1657 1.403 . S
C1656 H1629 0.950 . S
C1656 C1642 1.411 . S
C1656 C1655 1.382 1_545 S
C1657 C1641 1.411 1_565 S
C1657 C1655 1.403 . S
C1657 C1658 1.489 . S
C1658 C1657 1.489 . S
C1658 C1659 1.383 . S
C1658 C1663 1.382 . S
C1659 H1630 0.950 . S
C1659 C1658 1.383 . S
C1659 C1660 1.395 . S
C1660 H1631 0.950 . S
C1660 C1659 1.395 . S
C1660 C1661 1.288 . S
C1661 C1660 1.288 . S
C1661 C1662 1.392 . S
C1662 H1632 0.951 . S
C1662 C1661 1.392 . S
C1662 C1663 1.392 . S
C1663 H1633 0.949 . S
C1663 C1658 1.382 . S
C1663 C1662 1.392 . S
H1664 C1683 0.949 . S
H1665 C1684 0.950 . S
H1666 C1686 0.950 . S
H1667 C1687 0.950 . S
H1668 C1689 0.950 . S
H1669 C1692 0.950 . S
H1670 C1693 0.950 . S
H1671 C1695 0.951 . S
H1672 C1696 0.949 . S
H1673 C1698 0.949 . S
H1674 C1699 0.950 . S
H1675 C1701 0.950 . S
H1676 C1702 0.950 . S
H1677 C1704 0.958 . S
H1678 C1707 0.950 . S
H1679 C1708 0.950 . S
H1680 C1710 0.951 . S
H1681 C1711 0.949 . S
C1682 C1683 1.376 . S
C1682 C1687 1.386 . S
C1682 C1688 1.483 . S
C1683 H1664 0.949 . S
C1683 C1682 1.376 . S
C1683 C1684 1.397 . S
C1684 H1665 0.950 . S
C1684 C1683 1.397 . S
C1684 C1685 1.391 . S
C1685 C1684 1.391 . S
C1685 C1686 1.405 . S
C1686 H1666 0.950 . S
C1686 C1685 1.405 . S
C1686 C1687 1.367 . S
C1687 H1667 0.950 . S
C1687 C1682 1.386 . S
C1687 C1686 1.367 . S
C1688 C1682 1.483 . S
C1688 C1689 1.382 . S
C1688 C1690 1.403 . S
C1689 H1668 0.950 . S
C1689 C1688 1.382 . S
C1689 C1705 1.411 1_455 S
C1690 C1688 1.403 . S
C1690 C1691 1.489 . S
C1690 C1704 1.411 . S
C1691 C1690 1.489 . S
C1691 C1692 1.383 . S
C1691 C1696 1.382 . S
C1692 H1669 0.950 . S
C1692 C1691 1.383 . S
C1692 C1693 1.395 . S
C1693 H1670 0.950 . S
C1693 C1692 1.395 . S
C1693 C1694 1.288 . S
C1694 C1693 1.288 . S
C1694 C1695 1.392 . S
C1695 H1671 0.951 . S
C1695 C1694 1.392 . S
C1695 C1696 1.392 . S
C1696 H1672 0.949 . S
C1696 C1691 1.382 . S
C1696 C1695 1.392 . S
C1697 C1698 1.376 . S
C1697 C1702 1.386 . S
C1697 C1703 1.483 . S
C1698 H1673 0.949 . S
C1698 C1697 1.376 . S
C1698 C1699 1.397 . S
C1699 H1674 0.950 . S
C1699 C1698 1.397 . S
C1699 C1700 1.391 . S
C1700 C1699 1.391 . S
C1700 C1701 1.405 . S
C1701 H1675 0.950 . S
C1701 C1700 1.405 . S
C1701 C1702 1.367 . S
C1702 H1676 0.950 . S
C1702 C1697 1.386 . S
C1702 C1701 1.367 . S
C1703 C1697 1.483 . S
C1703 C1704 1.382 1_655 S
C1703 C1705 1.403 . S
C1704 H1677 0.958 . S
C1704 C1690 1.411 . S
C1704 C1703 1.382 1_455 S
C1705 C1689 1.411 1_655 S
C1705 C1703 1.403 . S
C1705 C1706 1.489 . S
C1706 C1705 1.489 . S
C1706 C1707 1.383 . S
C1706 C1711 1.382 . S
C1707 H1678 0.950 . S
C1707 C1706 1.383 . S
C1707 C1708 1.395 . S
C1708 H1679 0.950 . S
C1708 C1707 1.395 . S
C1708 C1709 1.288 . S
C1709 C1708 1.288 . S
C1709 C1710 1.392 . S
C1710 H1680 0.951 . S
C1710 C1709 1.392 . S
C1710 C1711 1.392 . S
C1711 H1681 0.949 . S
C1711 C1706 1.382 . S
C1711 C1710 1.392 . S
H1712 C1731 0.949 . S
H1713 C1732 0.950 . S
H1714 C1734 0.950 . S
H1715 C1735 0.950 . S
H1716 C1737 0.950 . S
H1717 C1740 0.950 . S
H1718 C1741 0.950 . S
H1719 C1743 0.951 . S
H1720 C1744 0.949 . S
H1721 C1746 0.949 . S
H1722 C1747 0.950 . S
H1723 C1749 0.950 . S
H1724 C1750 0.950 . S
H1725 C1752 0.950 1_565 S
H1726 C1755 0.950 . S
H1727 C1756 0.950 . S
H1728 C1758 0.951 . S
H1729 C1759 0.949 . S
C1730 C1731 1.376 . S
C1730 C1735 1.386 . S
C1730 C1736 1.483 . S
C1731 H1712 0.949 . S
C1731 C1730 1.376 . S
C1731 C1732 1.397 . S
C1732 H1713 0.950 . S
C1732 C1731 1.397 . S
C1732 C1733 1.391 . S
C1733 C1732 1.391 . S
C1733 C1734 1.405 . S
C1734 H1714 0.950 . S
C1734 C1733 1.405 . S
C1734 C1735 1.367 . S
C1735 H1715 0.950 . S
C1735 C1730 1.386 . S
C1735 C1734 1.367 . S
C1736 C1730 1.483 . S
C1736 C1737 1.382 . S
C1736 C1738 1.403 . S
C1737 H1716 0.950 . S
C1737 C1736 1.382 . S
C1737 C1753 1.411 1_545 S
C1738 C1736 1.403 . S
C1738 C1739 1.489 . S
C1738 C1752 1.410 . S
C1739 C1738 1.489 . S
C1739 C1740 1.383 . S
C1739 C1744 1.382 . S
C1740 H1717 0.950 . S
C1740 C1739 1.383 . S
C1740 C1741 1.395 . S
C1741 H1718 0.950 . S
C1741 C1740 1.395 . S
C1741 C1742 1.288 . S
C1742 C1741 1.288 . S
C1742 C1743 1.392 . S
C1743 H1719 0.951 . S
C1743 C1742 1.392 . S
C1743 C1744 1.392 . S
C1744 H1720 0.949 . S
C1744 C1739 1.382 . S
C1744 C1743 1.392 . S
C1745 C1746 1.376 . S
C1745 C1750 1.386 . S
C1745 C1751 1.483 . S
C1746 H1721 0.949 . S
C1746 C1745 1.376 . S
C1746 C1747 1.397 . S
C1747 H1722 0.950 . S
C1747 C1746 1.397 . S
C1747 C1748 1.391 . S
C1748 C1747 1.391 . S
C1748 C1749 1.405 . S
C1749 H1723 0.950 . S
C1749 C1748 1.405 . S
C1749 C1750 1.367 . S
C1750 H1724 0.950 . S
C1750 C1745 1.386 . S
C1750 C1749 1.367 . S
C1751 C1745 1.483 . S
C1751 C1752 1.382 1_565 S
C1751 C1753 1.403 . S
C1752 H1725 0.950 1_545 S
C1752 C1738 1.410 . S
C1752 C1751 1.382 1_545 S
C1753 C1737 1.411 1_565 S
C1753 C1751 1.403 . S
C1753 C1754 1.489 . S
C1754 C1753 1.489 . S
C1754 C1755 1.383 . S
C1754 C1759 1.382 . S
C1755 H1726 0.950 . S
C1755 C1754 1.383 . S
C1755 C1756 1.395 . S
C1756 H1727 0.950 . S
C1756 C1755 1.395 . S
C1756 C1757 1.288 . S
C1757 C1756 1.288 . S
C1757 C1758 1.392 . S
C1758 H1728 0.951 . S
C1758 C1757 1.392 . S
C1758 C1759 1.392 . S
C1759 H1729 0.949 . S
C1759 C1754 1.382 . S
C1759 C1758 1.392 . S
H1760 C1779 0.949 . S
H1761 C1780 0.950 . S
H1762 C1782 0.950 . S
H1763 C1783 0.950 . S
H1764 C1785 0.950 . S
H1765 C1788 0.950 . S
H1766 C1789 0.950 . S
H1767 C1791 0.951 . S
H1768 C1792 0.949 . S
H1769 C1794 0.949 . S
H1770 C1795 0.950 . S
H1771 C1797 0.950 . S
H1772 C1798 0.950 . S
H1773 C1800 0.950 . S
H1774 C1803 0.950 . S
H1775 C1804 0.950 . S
H1776 C1806 0.951 . S
H1777 C1807 0.949 . S
C1778 C1779 1.376 . S
C1778 C1783 1.386 . S
C1778 C1784 1.483 . S
C1779 H1760 0.949 . S
C1779 C1778 1.376 . S
C1779 C1780 1.397 . S
C1780 H1761 0.950 . S
C1780 C1779 1.397 . S
C1780 C1781 1.391 . S
C1781 C1780 1.391 . S
C1781 C1782 1.405 . S
C1782 H1762 0.950 . S
C1782 C1781 1.405 . S
C1782 C1783 1.367 . S
C1783 H1763 0.950 . S
C1783 C1778 1.386 . S
C1783 C1782 1.367 . S
C1784 C1778 1.483 . S
C1784 C1785 1.353 1_655 S
C1784 C1786 1.403 . S
C1785 H1764 0.950 . S
C1785 C1784 1.353 1_455 S
C1785 C1801 1.441 . S
C1786 C1784 1.403 . S
C1786 C1787 1.489 . S
C1786 C1800 1.411 1_655 S
C1787 C1786 1.489 . S
C1787 C1788 1.383 . S
C1787 C1792 1.382 . S
C1788 H1765 0.950 . S
C1788 C1787 1.383 . S
C1788 C1789 1.395 . S
C1789 H1766 0.950 . S
C1789 C1788 1.395 . S
C1789 C1790 1.288 . S
C1790 C1789 1.288 . S
C1790 C1791 1.392 . S
C1791 H1767 0.951 . S
C1791 C1790 1.392 . S
C1791 C1792 1.392 . S
C1792 H1768 0.949 . S
C1792 C1787 1.382 . S
C1792 C1791 1.392 . S
C1793 C1794 1.376 . S
C1793 C1798 1.386 . S
C1793 C1799 1.483 . S
C1794 H1769 0.949 . S
C1794 C1793 1.376 . S
C1794 C1795 1.397 . S
C1795 H1770 0.950 . S
C1795 C1794 1.397 . S
C1795 C1796 1.391 . S
C1796 C1795 1.391 . S
C1796 C1797 1.405 . S
C1797 H1771 0.950 . S
C1797 C1796 1.405 . S
C1797 C1798 1.367 . S
C1798 H1772 0.950 . S
C1798 C1793 1.386 . S
C1798 C1797 1.367 . S
C1799 C1793 1.483 . S
C1799 C1800 1.382 . S
C1799 C1801 1.403 . S
C1800 H1773 0.950 . S
C1800 C1786 1.411 1_455 S
C1800 C1799 1.382 . S
C1801 C1785 1.441 . S
C1801 C1799 1.403 . S
C1801 C1802 1.489 . S
C1802 C1801 1.489 . S
C1802 C1803 1.383 . S
C1802 C1807 1.382 . S
C1803 H1774 0.950 . S
C1803 C1802 1.383 . S
C1803 C1804 1.395 . S
C1804 H1775 0.950 . S
C1804 C1803 1.395 . S
C1804 C1805 1.288 . S
C1805 C1804 1.288 . S
C1805 C1806 1.392 . S
C1806 H1776 0.951 . S
C1806 C1805 1.392 . S
C1806 C1807 1.392 . S
C1807 H1777 0.949 . S
C1807 C1802 1.382 . S
C1807 C1806 1.392 . S
H1808 C1827 0.949 . S
H1809 C1828 0.950 . S
H1810 C1830 0.950 . S
H1811 C1831 0.950 . S
H1812 C1833 0.950 . S
H1813 C1836 0.950 . S
H1814 C1837 0.950 . S
H1815 C1839 0.951 . S
H1816 C1840 0.949 . S
H1817 C1842 0.949 . S
H1818 C1843 0.950 . S
H1819 C1845 0.950 . S
H1820 C1846 0.950 . S
H1821 C1848 0.950 . S
H1822 C1851 0.950 . S
H1823 C1852 0.950 . S
H1824 C1854 0.951 . S
H1825 C1855 0.949 . S
C1826 C1827 1.376 . S
C1826 C1831 1.386 . S
C1826 C1832 1.483 . S
C1827 H1808 0.949 . S
C1827 C1826 1.376 . S
C1827 C1828 1.397 . S
C1828 H1809 0.950 . S
C1828 C1827 1.397 . S
C1828 C1829 1.391 . S
C1829 C1828 1.391 . S
C1829 C1830 1.405 . S
C1830 H1810 0.950 . S
C1830 C1829 1.405 . S
C1830 C1831 1.367 . S
C1831 H1811 0.950 . S
C1831 C1826 1.386 . S
C1831 C1830 1.367 . S
C1832 C1826 1.483 . S
C1832 C1833 1.382 . S
C1832 C1834 1.403 . S
C1833 H1812 0.950 . S
C1833 C1832 1.382 . S
C1833 C1849 1.411 1_545 S
C1834 C1832 1.403 . S
C1834 C1835 1.489 . S
C1834 C1848 1.411 . S
C1835 C1834 1.489 . S
C1835 C1836 1.383 . S
C1835 C1840 1.382 . S
C1836 H1813 0.950 . S
C1836 C1835 1.383 . S
C1836 C1837 1.395 . S
C1837 H1814 0.950 . S
C1837 C1836 1.395 . S
C1837 C1838 1.288 . S
C1838 C1837 1.288 . S
C1838 C1839 1.392 . S
C1839 H1815 0.951 . S
C1839 C1838 1.392 . S
C1839 C1840 1.392 . S
C1840 H1816 0.949 . S
C1840 C1835 1.382 . S
C1840 C1839 1.392 . S
C1841 C1842 1.376 . S
C1841 C1846 1.386 . S
C1841 C1847 1.483 . S
C1842 H1817 0.949 . S
C1842 C1841 1.376 . S
C1842 C1843 1.397 . S
C1843 H1818 0.950 . S
C1843 C1842 1.397 . S
C1843 C1844 1.391 . S
C1844 C1843 1.391 . S
C1844 C1845 1.405 . S
C1845 H1819 0.950 . S
C1845 C1844 1.405 . S
C1845 C1846 1.367 . S
C1846 H1820 0.950 . S
C1846 C1841 1.386 . S
C1846 C1845 1.367 . S
C1847 C1841 1.483 . S
C1847 C1848 1.382 1_565 S
C1847 C1849 1.403 . S
C1848 H1821 0.950 . S
C1848 C1834 1.411 . S
C1848 C1847 1.382 1_545 S
C1849 C1833 1.411 1_565 S
C1849 C1847 1.403 . S
C1849 C1850 1.489 . S
C1850 C1849 1.489 . S
C1850 C1851 1.383 . S
C1850 C1855 1.382 . S
C1851 H1822 0.950 . S
C1851 C1850 1.383 . S
C1851 C1852 1.395 . S
C1852 H1823 0.950 . S
C1852 C1851 1.395 . S
C1852 C1853 1.288 . S
C1853 C1852 1.288 . S
C1853 C1854 1.392 . S
C1854 H1824 0.951 . S
C1854 C1853 1.392 . S
C1854 C1855 1.392 . S
C1855 H1825 0.949 . S
C1855 C1850 1.382 . S
C1855 C1854 1.392 . S
H1856 C1875 0.949 . S
H1857 C1876 0.950 . S
H1858 C1878 0.950 . S
H1859 C1879 0.950 . S
H1860 C1881 0.950 . S
H1861 C1884 0.950 . S
H1862 C1885 0.950 . S
H1863 C1887 0.951 . S
H1864 C1888 0.949 . S
H1865 C1890 0.949 . S
H1866 C1891 0.950 . S
H1867 C1893 0.950 . S
H1868 C1894 0.950 . S
H1869 C1896 0.950 . S
H1870 C1899 0.950 . S
H1871 C1900 0.950 . S
H1872 C1902 0.951 . S
H1873 C1903 0.949 . S
C1874 C1875 1.376 . S
C1874 C1879 1.386 . S
C1874 C1880 1.483 . S
C1875 H1856 0.949 . S
C1875 C1874 1.376 . S
C1875 C1876 1.397 . S
C1876 H1857 0.950 . S
C1876 C1875 1.397 . S
C1876 C1877 1.391 . S
C1877 C1876 1.391 . S
C1877 C1878 1.405 . S
C1878 H1858 0.950 . S
C1878 C1877 1.405 . S
C1878 C1879 1.367 . S
C1879 H1859 0.950 . S
C1879 C1874 1.386 . S
C1879 C1878 1.367 . S
C1880 C1874 1.483 . S
C1880 C1881 1.382 . S
C1880 C1882 1.403 . S
C1881 H1860 0.950 . S
C1881 C1880 1.382 . S
C1881 C1897 1.411 . S
C1882 C1880 1.403 . S
C1882 C1883 1.489 . S
C1882 C1896 1.411 . S
C1883 C1882 1.489 . S
C1883 C1884 1.383 . S
C1883 C1888 1.382 . S
C1884 H1861 0.950 . S
C1884 C1883 1.383 . S
C1884 C1885 1.395 . S
C1885 H1862 0.950 . S
C1885 C1884 1.395 . S
C1885 C1886 1.288 . S
C1886 C1885 1.288 . S
C1886 C1887 1.392 . S
C1887 H1863 0.951 . S
C1887 C1886 1.392 . S
C1887 C1888 1.392 . S
C1888 H1864 0.949 . S
C1888 C1883 1.382 . S
C1888 C1887 1.392 . S
C1889 C1890 1.376 . S
C1889 C1894 1.386 . S
C1889 C1895 1.483 . S
C1890 H1865 0.949 . S
C1890 C1889 1.376 . S
C1890 C1891 1.397 . S
C1891 H1866 0.950 . S
C1891 C1890 1.397 . S
C1891 C1892 1.391 . S
C1892 C1891 1.391 . S
C1892 C1893 1.405 . S
C1893 H1867 0.950 . S
C1893 C1892 1.405 . S
C1893 C1894 1.367 . S
C1894 H1868 0.950 . S
C1894 C1889 1.386 . S
C1894 C1893 1.367 . S
C1895 C1889 1.483 . S
C1895 C1896 1.382 . S
C1895 C1897 1.403 . S
C1896 H1869 0.950 . S
C1896 C1882 1.411 . S
C1896 C1895 1.382 . S
C1897 C1881 1.411 . S
C1897 C1895 1.403 . S
C1897 C1898 1.489 . S
C1898 C1897 1.489 . S
C1898 C1899 1.383 . S
C1898 C1903 1.382 . S
C1899 H1870 0.950 . S
C1899 C1898 1.383 . S
C1899 C1900 1.395 . S
C1900 H1871 0.950 . S
C1900 C1899 1.395 . S
C1900 C1901 1.288 . S
C1901 C1900 1.288 . S
C1901 C1902 1.392 . S
C1902 H1872 0.951 . S
C1902 C1901 1.392 . S
C1902 C1903 1.392 . S
C1903 H1873 0.949 . S
C1903 C1898 1.382 . S
C1903 C1902 1.392 . S
H1904 C1923 0.949 . S
H1905 C1924 0.950 . S
H1906 C1926 0.950 . S
H1907 C1927 0.950 . S
H1908 C1929 0.950 . S
H1909 C1932 0.950 . S
H1910 C1933 0.950 . S
H1911 C1935 0.951 . S
H1912 C1936 0.949 . S
H1913 C1938 0.949 . S
H1914 C1939 0.950 . S
H1915 C1941 0.950 . S
H1916 C1942 0.950 . S
H1917 C1944 0.950 . S
H1918 C1947 0.950 . S
H1919 C1948 0.950 . S
H1920 C1950 0.951 . S
H1921 C1951 0.949 . S
C1922 C1923 1.376 . S
C1922 C1927 1.386 . S
C1922 C1928 1.483 . S
C1923 H1904 0.949 . S
C1923 C1922 1.376 . S
C1923 C1924 1.397 . S
C1924 H1905 0.950 . S
C1924 C1923 1.397 . S
C1924 C1925 1.391 . S
C1925 C1924 1.391 . S
C1925 C1926 1.405 . S
C1926 H1906 0.950 . S
C1926 C1925 1.405 . S
C1926 C1927 1.367 . S
C1927 H1907 0.950 . S
C1927 C1922 1.386 . S
C1927 C1926 1.367 . S
C1928 C1922 1.483 . S
C1928 C1929 1.382 . S
C1928 C1930 1.403 . S
C1929 H1908 0.950 . S
C1929 C1928 1.382 . S
C1929 C1945 1.411 . S
C1930 C1928 1.403 . S
C1930 C1931 1.489 . S
C1930 C1944 1.411 . S
C1931 C1930 1.489 . S
C1931 C1932 1.383 . S
C1931 C1936 1.382 . S
C1932 H1909 0.950 . S
C1932 C1931 1.383 . S
C1932 C1933 1.395 . S
C1933 H1910 0.950 . S
C1933 C1932 1.395 . S
C1933 C1934 1.288 . S
C1934 C1933 1.288 . S
C1934 C1935 1.392 . S
C1935 H1911 0.951 . S
C1935 C1934 1.392 . S
C1935 C1936 1.392 . S
C1936 H1912 0.949 . S
C1936 C1931 1.382 . S
C1936 C1935 1.392 . S
C1937 C1938 1.376 . S
C1937 C1942 1.386 . S
C1937 C1943 1.483 . S
C1938 H1913 0.949 . S
C1938 C1937 1.376 . S
C1938 C1939 1.397 . S
C1939 H1914 0.950 . S
C1939 C1938 1.397 . S
C1939 C1940 1.391 . S
C1940 C1939 1.391 . S
C1940 C1941 1.405 . S
C1941 H1915 0.950 . S
C1941 C1940 1.405 . S
C1941 C1942 1.367 . S
C1942 H1916 0.950 . S
C1942 C1937 1.386 . S
C1942 C1941 1.367 . S
C1943 C1937 1.483 . S
C1943 C1944 1.382 . S
C1943 C1945 1.403 . S
C1944 H1917 0.950 . S
C1944 C1930 1.411 . S
C1944 C1943 1.382 . S
C1945 C1929 1.411 . S
C1945 C1943 1.403 . S
C1945 C1946 1.489 . S
C1946 C1945 1.489 . S
C1946 C1947 1.383 . S
C1946 C1951 1.382 . S
C1947 H1918 0.950 . S
C1947 C1946 1.383 . S
C1947 C1948 1.395 . S
C1948 H1919 0.950 . S
C1948 C1947 1.395 . S
C1948 C1949 1.288 . S
C1949 C1948 1.288 . S
C1949 C1950 1.392 . S
C1950 H1920 0.951 . S
C1950 C1949 1.392 . S
C1950 C1951 1.392 . S
C1951 H1921 0.949 . S
C1951 C1946 1.382 . S
C1951 C1950 1.392 . S
H1952 C1971 0.949 . S
H1953 C1972 0.950 . S
H1954 C1974 0.950 . S
H1955 C1975 0.950 . S
H1956 C1977 0.950 . S
H1957 C1980 0.950 . S
H1958 C1981 0.950 . S
H1959 C1983 0.951 . S
H1960 C1984 0.949 . S
H1961 C1986 0.949 . S
H1962 C1987 0.950 . S
H1963 C1989 0.950 . S
H1964 C1990 0.950 . S
H1965 C1992 0.950 . S
H1966 C1995 0.950 . S
H1967 C1996 0.950 . S
H1968 C1998 0.951 . S
H1969 C1999 0.949 . S
C1970 C1971 1.376 . S
C1970 C1975 1.386 . S
C1970 C1976 1.483 . S
C1971 H1952 0.949 . S
C1971 C1970 1.376 . S
C1971 C1972 1.397 . S
C1972 H1953 0.950 . S
C1972 C1971 1.397 . S
C1972 C1973 1.391 . S
C1973 C1972 1.391 . S
C1973 C1974 1.405 . S
C1974 H1954 0.950 . S
C1974 C1973 1.405 . S
C1974 C1975 1.367 . S
C1975 H1955 0.950 . S
C1975 C1970 1.386 . S
C1975 C1974 1.367 . S
C1976 C1970 1.483 . S
C1976 C1977 1.382 . S
C1976 C1978 1.403 . S
C1977 H1956 0.950 . S
C1977 C1976 1.382 . S
C1977 C1993 1.411 . S
C1978 C1976 1.403 . S
C1978 C1979 1.489 . S
C1978 C1992 1.411 . S
C1979 C1978 1.489 . S
C1979 C1980 1.383 . S
C1979 C1984 1.382 . S
C1980 H1957 0.950 . S
C1980 C1979 1.383 . S
C1980 C1981 1.395 . S
C1981 H1958 0.950 . S
C1981 C1980 1.395 . S
C1981 C1982 1.288 . S
C1982 C1981 1.288 . S
C1982 C1983 1.392 . S
C1983 H1959 0.951 . S
C1983 C1982 1.392 . S
C1983 C1984 1.392 . S
C1984 H1960 0.949 . S
C1984 C1979 1.382 . S
C1984 C1983 1.392 . S
C1985 C1986 1.376 . S
C1985 C1990 1.386 . S
C1985 C1991 1.483 . S
C1986 H1961 0.949 . S
C1986 C1985 1.376 . S
C1986 C1987 1.397 . S
C1987 H1962 0.950 . S
C1987 C1986 1.397 . S
C1987 C1988 1.391 . S
C1988 C1987 1.391 . S
C1988 C1989 1.405 . S
C1989 H1963 0.950 . S
C1989 C1988 1.405 . S
C1989 C1990 1.367 . S
C1990 H1964 0.950 . S
C1990 C1985 1.386 . S
C1990 C1989 1.367 . S
C1991 C1985 1.483 . S
C1991 C1992 1.382 . S
C1991 C1993 1.403 . S
C1992 H1965 0.950 . S
C1992 C1978 1.411 . S
C1992 C1991 1.382 . S
C1993 C1977 1.411 . S
C1993 C1991 1.403 . S
C1993 C1994 1.489 . S
C1994 C1993 1.489 . S
C1994 C1995 1.383 . S
C1994 C1999 1.382 . S
C1995 H1966 0.950 . S
C1995 C1994 1.383 . S
C1995 C1996 1.395 . S
C1996 H1967 0.950 . S
C1996 C1995 1.395 . S
C1996 C1997 1.288 . S
C1997 C1996 1.288 . S
C1997 C1998 1.392 . S
C1998 H1968 0.951 . S
C1998 C1997 1.392 . S
C1998 C1999 1.392 . S
C1999 H1969 0.949 . S
C1999 C1994 1.382 . S
C1999 C1998 1.392 . S
H2000 C2019 0.949 . S
H2001 C2020 0.950 . S
H2002 C2022 0.950 . S
H2003 C2023 0.950 . S
H2004 C2025 0.950 . S
H2005 C2028 0.950 . S
H2006 C2029 0.950 . S
H2007 C2031 0.951 . S
H2008 C2032 0.949 . S
H2009 C2034 0.949 . S
H2010 C2035 0.950 . S
H2011 C2037 0.950 . S
H2012 C2038 0.950 . S
H2013 C2040 0.950 . S
H2014 C2043 0.950 . S
H2015 C2044 0.950 . S
H2016 C2046 0.951 . S
H2017 C2047 0.949 . S
C2018 C2019 1.376 . S
C2018 C2023 1.386 . S
C2018 C2024 1.483 . S
C2019 H2000 0.949 . S
C2019 C2018 1.376 . S
C2019 C2020 1.397 . S
C2020 H2001 0.950 . S
C2020 C2019 1.397 . S
C2020 C2021 1.391 . S
C2021 C2020 1.391 . S
C2021 C2022 1.405 . S
C2022 H2002 0.950 . S
C2022 C2021 1.405 . S
C2022 C2023 1.367 . S
C2023 H2003 0.950 . S
C2023 C2018 1.386 . S
C2023 C2022 1.367 . S
C2024 C2018 1.483 . S
C2024 C2025 1.382 . S
C2024 C2026 1.403 . S
C2025 H2004 0.950 . S
C2025 C2024 1.382 . S
C2025 C2041 1.411 . S
C2026 C2024 1.403 . S
C2026 C2027 1.489 . S
C2026 C2040 1.411 . S
C2027 C2026 1.489 . S
C2027 C2028 1.383 . S
C2027 C2032 1.382 . S
C2028 H2005 0.950 . S
C2028 C2027 1.383 . S
C2028 C2029 1.395 . S
C2029 H2006 0.950 . S
C2029 C2028 1.395 . S
C2029 C2030 1.288 . S
C2030 C2029 1.288 . S
C2030 C2031 1.392 . S
C2031 H2007 0.951 . S
C2031 C2030 1.392 . S
C2031 C2032 1.392 . S
C2032 H2008 0.949 . S
C2032 C2027 1.382 . S
C2032 C2031 1.392 . S
C2033 C2034 1.376 . S
C2033 C2038 1.386 . S
C2033 C2039 1.483 . S
C2034 H2009 0.949 . S
C2034 C2033 1.376 . S
C2034 C2035 1.397 . S
C2035 H2010 0.950 . S
C2035 C2034 1.397 . S
C2035 C2036 1.391 . S
C2036 C2035 1.391 . S
C2036 C2037 1.405 . S
C2037 H2011 0.950 . S
C2037 C2036 1.405 . S
C2037 C2038 1.367 . S
C2038 H2012 0.950 . S
C2038 C2033 1.386 . S
C2038 C2037 1.367 . S
C2039 C2033 1.483 . S
C2039 C2040 1.382 . S
C2039 C2041 1.403 . S
C2040 H2013 0.950 . S
C2040 C2026 1.411 . S
C2040 C2039 1.382 . S
C2041 C2025 1.411 . S
C2041 C2039 1.403 . S
C2041 C2042 1.489 . S
C2042 C2041 1.489 . S
C2042 C2043 1.383 . S
C2042 C2047 1.382 . S
C2043 H2014 0.950 . S
C2043 C2042 1.383 . S
C2043 C2044 1.395 . S
C2044 H2015 0.950 . S
C2044 C2043 1.395 . S
C2044 C2045 1.288 . S
C2045 C2044 1.288 . S
C2045 C2046 1.392 . S
C2046 H2016 0.951 . S
C2046 C2045 1.392 . S
C2046 C2047 1.392 . S
C2047 H2017 0.949 . S
C2047 C2042 1.382 . S
C2047 C2046 1.392 . S
H2048 C2067 0.949 . S
H2049 C2068 0.950 . S
H2050 C2070 0.950 . S
H2051 C2071 0.950 . S
H2052 C2073 0.950 . S
H2053 C2076 0.950 . S
H2054 C2077 0.950 . S
H2055 C2079 0.951 . S
H2056 C2080 0.949 . S
H2057 C2082 0.949 . S
H2058 C2083 0.950 . S
H2059 C2085 0.950 . S
H2060 C2086 0.950 . S
H2061 C2088 0.950 . S
H2062 C2091 0.950 . S
H2063 C2092 0.950 . S
H2064 C2094 0.951 . S
H2065 C2095 0.949 . S
C2066 C2067 1.376 . S
C2066 C2071 1.386 . S
C2066 C2072 1.483 . S
C2067 H2048 0.949 . S
C2067 C2066 1.376 . S
C2067 C2068 1.397 . S
C2068 H2049 0.950 . S
C2068 C2067 1.397 . S
C2068 C2069 1.391 . S
C2069 C2068 1.391 . S
C2069 C2070 1.405 . S
C2070 H2050 0.950 . S
C2070 C2069 1.405 . S
C2070 C2071 1.367 . S
C2071 H2051 0.950 . S
C2071 C2066 1.386 . S
C2071 C2070 1.367 . S
C2072 C2066 1.483 . S
C2072 C2073 1.382 . S
C2072 C2074 1.403 . S
C2073 H2052 0.950 . S
C2073 C2072 1.382 . S
C2073 C2089 1.411 . S
C2074 C2072 1.403 . S
C2074 C2075 1.489 . S
C2074 C2088 1.411 . S
C2075 C2074 1.489 . S
C2075 C2076 1.383 . S
C2075 C2080 1.382 . S
C2076 H2053 0.950 . S
C2076 C2075 1.383 . S
C2076 C2077 1.395 . S
C2077 H2054 0.950 . S
C2077 C2076 1.395 . S
C2077 C2078 1.288 . S
C2078 C2077 1.288 . S
C2078 C2079 1.392 . S
C2079 H2055 0.951 . S
C2079 C2078 1.392 . S
C2079 C2080 1.392 . S
C2080 H2056 0.949 . S
C2080 C2075 1.382 . S
C2080 C2079 1.392 . S
C2081 C2082 1.376 . S
C2081 C2086 1.386 . S
C2081 C2087 1.483 . S
C2082 H2057 0.949 . S
C2082 C2081 1.376 . S
C2082 C2083 1.397 . S
C2083 H2058 0.950 . S
C2083 C2082 1.397 . S
C2083 C2084 1.391 . S
C2084 C2083 1.391 . S
C2084 C2085 1.405 . S
C2085 H2059 0.950 . S
C2085 C2084 1.405 . S
C2085 C2086 1.367 . S
C2086 H2060 0.950 . S
C2086 C2081 1.386 . S
C2086 C2085 1.367 . S
C2087 C2081 1.483 . S
C2087 C2088 1.382 . S
C2087 C2089 1.403 . S
C2088 H2061 0.950 . S
C2088 C2074 1.411 . S
C2088 C2087 1.382 . S
C2089 C2073 1.411 . S
C2089 C2087 1.403 . S
C2089 C2090 1.489 . S
C2090 C2089 1.489 . S
C2090 C2091 1.383 . S
C2090 C2095 1.382 . S
C2091 H2062 0.950 . S
C2091 C2090 1.383 . S
C2091 C2092 1.395 . S
C2092 H2063 0.950 . S
C2092 C2091 1.395 . S
C2092 C2093 1.288 . S
C2093 C2092 1.288 . S
C2093 C2094 1.392 . S
C2094 H2064 0.951 . S
C2094 C2093 1.392 . S
C2094 C2095 1.392 . S
C2095 H2065 0.949 . S
C2095 C2090 1.382 . S
C2095 C2094 1.392 . S
H2096 C2115 0.949 . S
H2097 C2116 0.950 . S
H2098 C2118 0.950 . S
H2099 C2119 0.950 . S
H2100 C2121 0.950 . S
H2101 C2124 0.950 . S
H2102 C2125 0.950 . S
H2103 C2127 0.951 . S
H2104 C2128 0.949 . S
H2105 C2130 0.949 . S
H2106 C2131 0.950 . S
H2107 C2133 0.950 . S
H2108 C2134 0.950 . S
H2109 C2136 0.950 . S
H2110 C2139 0.950 . S
H2111 C2140 0.950 . S
H2112 C2142 0.951 . S
H2113 C2143 0.949 . S
C2114 C2115 1.376 . S
C2114 C2119 1.386 . S
C2114 C2120 1.483 . S
C2115 H2096 0.949 . S
C2115 C2114 1.376 . S
C2115 C2116 1.397 . S
C2116 H2097 0.950 . S
C2116 C2115 1.397 . S
C2116 C2117 1.391 . S
C2117 C2116 1.391 . S
C2117 C2118 1.405 . S
C2118 H2098 0.950 . S
C2118 C2117 1.405 . S
C2118 C2119 1.367 . S
C2119 H2099 0.950 . S
C2119 C2114 1.386 . S
C2119 C2118 1.367 . S
C2120 C2114 1.483 . S
C2120 C2121 1.382 . S
C2120 C2122 1.403 . S
C2121 H2100 0.950 . S
C2121 C2120 1.382 . S
C2121 C2137 1.411 . S
C2122 C2120 1.403 . S
C2122 C2123 1.489 . S
C2122 C2136 1.411 . S
C2123 C2122 1.489 . S
C2123 C2124 1.383 . S
C2123 C2128 1.382 . S
C2124 H2101 0.950 . S
C2124 C2123 1.383 . S
C2124 C2125 1.395 . S
C2125 H2102 0.950 . S
C2125 C2124 1.395 . S
C2125 C2126 1.288 . S
C2126 C2125 1.288 . S
C2126 C2127 1.392 . S
C2127 H2103 0.951 . S
C2127 C2126 1.392 . S
C2127 C2128 1.392 . S
C2128 H2104 0.949 . S
C2128 C2123 1.382 . S
C2128 C2127 1.392 . S
C2129 C2130 1.376 . S
C2129 C2134 1.386 . S
C2129 C2135 1.483 . S
C2130 H2105 0.949 . S
C2130 C2129 1.376 . S
C2130 C2131 1.397 . S
C2131 H2106 0.950 . S
C2131 C2130 1.397 . S
C2131 C2132 1.391 . S
C2132 C2131 1.391 . S
C2132 C2133 1.405 . S
C2133 H2107 0.950 . S
C2133 C2132 1.405 . S
C2133 C2134 1.367 . S
C2134 H2108 0.950 . S
C2134 C2129 1.386 . S
C2134 C2133 1.367 . S
C2135 C2129 1.483 . S
C2135 C2136 1.382 . S
C2135 C2137 1.403 . S
C2136 H2109 0.950 . S
C2136 C2122 1.411 . S
C2136 C2135 1.382 . S
C2137 C2121 1.411 . S
C2137 C2135 1.403 . S
C2137 C2138 1.489 . S
C2138 C2137 1.489 . S
C2138 C2139 1.383 . S
C2138 C2143 1.382 . S
C2139 H2110 0.950 . S
C2139 C2138 1.383 . S
C2139 C2140 1.395 . S
C2140 H2111 0.950 . S
C2140 C2139 1.395 . S
C2140 C2141 1.288 . S
C2141 C2140 1.288 . S
C2141 C2142 1.392 . S
C2142 H2112 0.951 . S
C2142 C2141 1.392 . S
C2142 C2143 1.392 . S
C2143 H2113 0.949 . S
C2143 C2138 1.382 . S
C2143 C2142 1.392 . S
H2144 C2163 0.949 . S
H2145 C2164 0.950 . S
H2146 C2166 0.950 . S
H2147 C2167 0.950 . S
H2148 C2169 0.950 . S
H2149 C2172 0.950 . S
H2150 C2173 0.950 . S
H2151 C2175 0.951 . S
H2152 C2176 0.949 . S
H2153 C2178 0.949 . S
H2154 C2179 0.950 . S
H2155 C2181 0.950 . S
H2156 C2182 0.950 . S
H2157 C2184 0.950 . S
H2158 C2187 0.950 . S
H2159 C2188 0.950 . S
H2160 C2190 0.951 . S
H2161 C2191 0.949 . S
C2162 C2163 1.376 . S
C2162 C2167 1.386 . S
C2162 C2168 1.483 . S
C2163 H2144 0.949 . S
C2163 C2162 1.376 . S
C2163 C2164 1.397 . S
C2164 H2145 0.950 . S
C2164 C2163 1.397 . S
C2164 C2165 1.391 . S
C2165 C2164 1.391 . S
C2165 C2166 1.405 . S
C2166 H2146 0.950 . S
C2166 C2165 1.405 . S
C2166 C2167 1.367 . S
C2167 H2147 0.950 . S
C2167 C2162 1.386 . S
C2167 C2166 1.367 . S
C2168 C2162 1.483 . S
C2168 C2169 1.382 . S
C2168 C2170 1.403 . S
C2169 H2148 0.950 . S
C2169 C2168 1.382 . S
C2169 C2185 1.411 . S
C2170 C2168 1.403 . S
C2170 C2171 1.489 . S
C2170 C2184 1.411 . S
C2171 C2170 1.489 . S
C2171 C2172 1.383 . S
C2171 C2176 1.382 . S
C2172 H2149 0.950 . S
C2172 C2171 1.383 . S
C2172 C2173 1.395 . S
C2173 H2150 0.950 . S
C2173 C2172 1.395 . S
C2173 C2174 1.288 . S
C2174 C2173 1.288 . S
C2174 C2175 1.392 . S
C2175 H2151 0.951 . S
C2175 C2174 1.392 . S
C2175 C2176 1.392 . S
C2176 H2152 0.949 . S
C2176 C2171 1.382 . S
C2176 C2175 1.392 . S
C2177 C2178 1.376 . S
C2177 C2182 1.386 . S
C2177 C2183 1.483 . S
C2178 H2153 0.949 . S
C2178 C2177 1.376 . S
C2178 C2179 1.397 . S
C2179 H2154 0.950 . S
C2179 C2178 1.397 . S
C2179 C2180 1.391 . S
C2180 C2179 1.391 . S
C2180 C2181 1.405 . S
C2181 H2155 0.950 . S
C2181 C2180 1.405 . S
C2181 C2182 1.367 . S
C2182 H2156 0.950 . S
C2182 C2177 1.386 . S
C2182 C2181 1.367 . S
C2183 C2177 1.483 . S
C2183 C2184 1.382 . S
C2183 C2185 1.403 . S
C2184 H2157 0.950 . S
C2184 C2170 1.411 . S
C2184 C2183 1.382 . S
C2185 C2169 1.411 . S
C2185 C2183 1.403 . S
C2185 C2186 1.489 . S
C2186 C2185 1.489 . S
C2186 C2187 1.383 . S
C2186 C2191 1.382 . S
C2187 H2158 0.950 . S
C2187 C2186 1.383 . S
C2187 C2188 1.395 . S
C2188 H2159 0.950 . S
C2188 C2187 1.395 . S
C2188 C2189 1.288 . S
C2189 C2188 1.288 . S
C2189 C2190 1.392 . S
C2190 H2160 0.951 . S
C2190 C2189 1.392 . S
C2190 C2191 1.392 . S
C2191 H2161 0.949 . S
C2191 C2186 1.382 . S
C2191 C2190 1.392 . S
H2192 C2211 0.949 . S
H2193 C2212 0.950 . S
H2194 C2214 0.950 . S
H2195 C2215 0.950 . S
H2196 C2217 0.950 . S
H2197 C2220 0.950 . S
H2198 C2221 0.950 . S
H2199 C2223 0.951 . S
H2200 C2224 0.949 . S
H2201 C2226 0.949 . S
H2202 C2227 0.950 . S
H2203 C2229 0.950 . S
H2204 C2230 0.950 . S
H2205 C2232 0.950 . S
H2206 C2235 0.950 . S
H2207 C2236 0.950 . S
H2208 C2238 0.951 . S
H2209 C2239 0.949 . S
C2210 C2211 1.376 . S
C2210 C2215 1.386 . S
C2210 C2216 1.483 . S
C2211 H2192 0.949 . S
C2211 C2210 1.376 . S
C2211 C2212 1.397 . S
C2212 H2193 0.950 . S
C2212 C2211 1.397 . S
C2212 C2213 1.391 . S
C2213 C2212 1.391 . S
C2213 C2214 1.405 . S
C2214 H2194 0.950 . S
C2214 C2213 1.405 . S
C2214 C2215 1.367 . S
C2215 H2195 0.950 . S
C2215 C2210 1.386 . S
C2215 C2214 1.367 . S
C2216 C2210 1.483 . S
C2216 C2217 1.382 . S
C2216 C2218 1.403 . S
C2217 H2196 0.950 . S
C2217 C2216 1.382 . S
C2217 C2233 1.411 . S
C2218 C2216 1.403 . S
C2218 C2219 1.489 . S
C2218 C2232 1.411 . S
C2219 C2218 1.489 . S
C2219 C2220 1.383 . S
C2219 C2224 1.382 . S
C2220 H2197 0.950 . S
C2220 C2219 1.383 . S
C2220 C2221 1.395 . S
C2221 H2198 0.950 . S
C2221 C2220 1.395 . S
C2221 C2222 1.288 . S
C2222 C2221 1.288 . S
C2222 C2223 1.392 . S
C2223 H2199 0.951 . S
C2223 C2222 1.392 . S
C2223 C2224 1.392 . S
C2224 H2200 0.949 . S
C2224 C2219 1.382 . S
C2224 C2223 1.392 . S
C2225 C2226 1.376 . S
C2225 C2230 1.386 . S
C2225 C2231 1.483 . S
C2226 H2201 0.949 . S
C2226 C2225 1.376 . S
C2226 C2227 1.397 . S
C2227 H2202 0.950 . S
C2227 C2226 1.397 . S
C2227 C2228 1.391 . S
C2228 C2227 1.391 . S
C2228 C2229 1.405 . S
C2229 H2203 0.950 . S
C2229 C2228 1.405 . S
C2229 C2230 1.367 . S
C2230 H2204 0.950 . S
C2230 C2225 1.386 . S
C2230 C2229 1.367 . S
C2231 C2225 1.483 . S
C2231 C2232 1.382 . S
C2231 C2233 1.403 . S
C2232 H2205 0.950 . S
C2232 C2218 1.411 . S
C2232 C2231 1.382 . S
C2233 C2217 1.411 . S
C2233 C2231 1.403 . S
C2233 C2234 1.489 . S
C2234 C2233 1.489 . S
C2234 C2235 1.383 . S
C2234 C2239 1.382 . S
C2235 H2206 0.950 . S
C2235 C2234 1.383 . S
C2235 C2236 1.395 . S
C2236 H2207 0.950 . S
C2236 C2235 1.395 . S
C2236 C2237 1.288 . S
C2237 C2236 1.288 . S
C2237 C2238 1.392 . S
C2238 H2208 0.951 . S
C2238 C2237 1.392 . S
C2238 C2239 1.392 . S
C2239 H2209 0.949 . S
C2239 C2234 1.382 . S
C2239 C2238 1.392 . S
H2240 C2259 0.949 . S
H2241 C2260 0.950 . S
H2242 C2262 0.950 . S
H2243 C2263 0.950 . S
H2244 C2265 0.950 . S
H2245 C2268 0.950 . S
H2246 C2269 0.950 . S
H2247 C2271 0.951 . S
H2248 C2272 0.949 . S
H2249 C2274 0.949 . S
H2250 C2275 0.950 . S
H2251 C2277 0.950 . S
H2252 C2278 0.950 . S
H2253 C2280 0.950 . S
H2254 C2283 0.950 . S
H2255 C2284 0.950 . S
H2256 C2286 0.951 . S
H2257 C2287 0.949 . S
C2258 C2259 1.376 . S
C2258 C2263 1.386 . S
C2258 C2264 1.483 . S
C2259 H2240 0.949 . S
C2259 C2258 1.376 . S
C2259 C2260 1.397 . S
C2260 H2241 0.950 . S
C2260 C2259 1.397 . S
C2260 C2261 1.391 . S
C2261 C2260 1.391 . S
C2261 C2262 1.405 . S
C2262 H2242 0.950 . S
C2262 C2261 1.405 . S
C2262 C2263 1.367 . S
C2263 H2243 0.950 . S
C2263 C2258 1.386 . S
C2263 C2262 1.367 . S
C2264 C2258 1.483 . S
C2264 C2265 1.382 . S
C2264 C2266 1.403 . S
C2265 H2244 0.950 . S
C2265 C2264 1.382 . S
C2265 C2281 1.411 . S
C2266 C2264 1.403 . S
C2266 C2267 1.489 . S
C2266 C2280 1.411 . S
C2267 C2266 1.489 . S
C2267 C2268 1.383 . S
C2267 C2272 1.382 . S
C2268 H2245 0.950 . S
C2268 C2267 1.383 . S
C2268 C2269 1.395 . S
C2269 H2246 0.950 . S
C2269 C2268 1.395 . S
C2269 C2270 1.288 . S
C2270 C2269 1.288 . S
C2270 C2271 1.392 . S
C2271 H2247 0.951 . S
C2271 C2270 1.392 . S
C2271 C2272 1.392 . S
C2272 H2248 0.949 . S
C2272 C2267 1.382 . S
C2272 C2271 1.392 . S
C2273 C2274 1.376 . S
C2273 C2278 1.386 . S
C2273 C2279 1.483 . S
C2274 H2249 0.949 . S
C2274 C2273 1.376 . S
C2274 C2275 1.397 . S
C2275 H2250 0.950 . S
C2275 C2274 1.397 . S
C2275 C2276 1.391 . S
C2276 C2275 1.391 . S
C2276 C2277 1.405 . S
C2277 H2251 0.950 . S
C2277 C2276 1.405 . S
C2277 C2278 1.367 . S
C2278 H2252 0.950 . S
C2278 C2273 1.386 . S
C2278 C2277 1.367 . S
C2279 C2273 1.483 . S
C2279 C2280 1.382 . S
C2279 C2281 1.403 . S
C2280 H2253 0.950 . S
C2280 C2266 1.411 . S
C2280 C2279 1.382 . S
C2281 C2265 1.411 . S
C2281 C2279 1.403 . S
C2281 C2282 1.489 . S
C2282 C2281 1.489 . S
C2282 C2283 1.383 . S
C2282 C2287 1.382 . S
C2283 H2254 0.950 . S
C2283 C2282 1.383 . S
C2283 C2284 1.395 . S
C2284 H2255 0.950 . S
C2284 C2283 1.395 . S
C2284 C2285 1.288 . S
C2285 C2284 1.288 . S
C2285 C2286 1.392 . S
C2286 H2256 0.951 . S
C2286 C2285 1.392 . S
C2286 C2287 1.392 . S
C2287 H2257 0.949 . S
C2287 C2282 1.382 . S
C2287 C2286 1.392 . S
H2288 C2307 0.949 . S
H2289 C2308 0.950 . S
H2290 C2310 0.950 . S
H2291 C2311 0.950 . S
H2292 C2313 0.950 . S
H2293 C2316 0.950 . S
H2294 C2317 0.950 . S
H2295 C2319 0.951 . S
H2296 C2320 0.949 . S
H2297 C2322 0.949 . S
H2298 C2323 0.950 . S
H2299 C2325 0.950 . S
H2300 C2326 0.950 . S
H2301 C2328 0.950 . S
H2302 C2331 0.950 . S
H2303 C2332 0.950 . S
H2304 C2334 0.951 . S
H2305 C2335 0.949 . S
C2306 C2307 1.376 . S
C2306 C2311 1.386 . S
C2306 C2312 1.483 . S
C2307 H2288 0.949 . S
C2307 C2306 1.376 . S
C2307 C2308 1.397 . S
C2308 H2289 0.950 . S
C2308 C2307 1.397 . S
C2308 C2309 1.391 . S
C2309 C2308 1.391 . S
C2309 C2310 1.405 . S
C2310 H2290 0.950 . S
C2310 C2309 1.405 . S
C2310 C2311 1.367 . S
C2311 H2291 0.950 . S
C2311 C2306 1.386 . S
C2311 C2310 1.367 . S
C2312 C2306 1.483 . S
C2312 C2313 1.382 . S
C2312 C2314 1.403 . S
C2313 H2292 0.950 . S
C2313 C2312 1.382 . S
C2313 C2329 1.411 . S
C2314 C2312 1.403 . S
C2314 C2315 1.489 . S
C2314 C2328 1.411 . S
C2315 C2314 1.489 . S
C2315 C2316 1.383 . S
C2315 C2320 1.382 . S
C2316 H2293 0.950 . S
C2316 C2315 1.383 . S
C2316 C2317 1.395 . S
C2317 H2294 0.950 . S
C2317 C2316 1.395 . S
C2317 C2318 1.288 . S
C2318 C2317 1.288 . S
C2318 C2319 1.392 . S
C2319 H2295 0.951 . S
C2319 C2318 1.392 . S
C2319 C2320 1.392 . S
C2320 H2296 0.949 . S
C2320 C2315 1.382 . S
C2320 C2319 1.392 . S
C2321 C2322 1.376 . S
C2321 C2326 1.386 . S
C2321 C2327 1.483 . S
C2322 H2297 0.949 . S
C2322 C2321 1.376 . S
C2322 C2323 1.397 . S
C2323 H2298 0.950 . S
C2323 C2322 1.397 . S
C2323 C2324 1.391 . S
C2324 C2323 1.391 . S
C2324 C2325 1.405 . S
C2325 H2299 0.950 . S
C2325 C2324 1.405 . S
C2325 C2326 1.367 . S
C2326 H2300 0.950 . S
C2326 C2321 1.386 . S
C2326 C2325 1.367 . S
C2327 C2321 1.483 . S
C2327 C2328 1.382 . S
C2327 C2329 1.403 . S
C2328 H2301 0.950 . S
C2328 C2314 1.411 . S
C2328 C2327 1.382 . S
C2329 C2313 1.411 . S
C2329 C2327 1.403 . S
C2329 C2330 1.489 . S
C2330 C2329 1.489 . S
C2330 C2331 1.383 . S
C2330 C2335 1.382 . S
C2331 H2302 0.950 . S
C2331 C2330 1.383 . S
C2331 C2332 1.395 . S
C2332 H2303 0.950 . S
C2332 C2331 1.395 . S
C2332 C2333 1.288 . S
C2333 C2332 1.288 . S
C2333 C2334 1.392 . S
C2334 H2304 0.951 . S
C2334 C2333 1.392 . S
C2334 C2335 1.392 . S
C2335 H2305 0.949 . S
C2335 C2330 1.382 . S
C2335 C2334 1.392 . S
H2336 C2355 0.949 . S
H2337 C2356 0.950 . S
H2338 C2358 0.950 . S
H2339 C2359 0.950 . S
H2340 C2361 0.950 . S
H2341 C2364 0.950 . S
H2342 C2365 0.950 . S
H2343 C2367 0.951 . S
H2344 C2368 0.949 . S
H2345 C2370 0.949 . S
H2346 C2371 0.950 . S
H2347 C2373 0.950 . S
H2348 C2374 0.950 . S
H2349 C2376 0.950 . S
H2350 C2379 0.950 . S
H2351 C2380 0.950 . S
H2352 C2382 0.951 . S
H2353 C2383 0.949 . S
C2354 C2355 1.376 . S
C2354 C2359 1.386 . S
C2354 C2360 1.483 . S
C2355 H2336 0.949 . S
C2355 C2354 1.376 . S
C2355 C2356 1.397 . S
C2356 H2337 0.950 . S
C2356 C2355 1.397 . S
C2356 C2357 1.391 . S
C2357 C2356 1.391 . S
C2357 C2358 1.405 . S
C2358 H2338 0.950 . S
C2358 C2357 1.405 . S
C2358 C2359 1.367 . S
C2359 H2339 0.950 . S
C2359 C2354 1.386 . S
C2359 C2358 1.367 . S
C2360 C2354 1.483 . S
C2360 C2361 1.382 . S
C2360 C2362 1.403 . S
C2361 H2340 0.950 . S
C2361 C2360 1.382 . S
C2361 C2377 1.411 . S
C2362 C2360 1.403 . S
C2362 C2363 1.489 . S
C2362 C2376 1.411 . S
C2363 C2362 1.489 . S
C2363 C2364 1.383 . S
C2363 C2368 1.382 . S
C2364 H2341 0.950 . S
C2364 C2363 1.383 . S
C2364 C2365 1.395 . S
C2365 H2342 0.950 . S
C2365 C2364 1.395 . S
C2365 C2366 1.288 . S
C2366 C2365 1.288 . S
C2366 C2367 1.392 . S
C2367 H2343 0.951 . S
C2367 C2366 1.392 . S
C2367 C2368 1.392 . S
C2368 H2344 0.949 . S
C2368 C2363 1.382 . S
C2368 C2367 1.392 . S
C2369 C2370 1.376 . S
C2369 C2374 1.386 . S
C2369 C2375 1.483 . S
C2370 H2345 0.949 . S
C2370 C2369 1.376 . S
C2370 C2371 1.397 . S
C2371 H2346 0.950 . S
C2371 C2370 1.397 . S
C2371 C2372 1.391 . S
C2372 C2371 1.391 . S
C2372 C2373 1.405 . S
C2373 H2347 0.950 . S
C2373 C2372 1.405 . S
C2373 C2374 1.367 . S
C2374 H2348 0.950 . S
C2374 C2369 1.386 . S
C2374 C2373 1.367 . S
C2375 C2369 1.483 . S
C2375 C2376 1.382 . S
C2375 C2377 1.403 . S
C2376 H2349 0.950 . S
C2376 C2362 1.411 . S
C2376 C2375 1.382 . S
C2377 C2361 1.411 . S
C2377 C2375 1.403 . S
C2377 C2378 1.489 . S
C2378 C2377 1.489 . S
C2378 C2379 1.383 . S
C2378 C2383 1.382 . S
C2379 H2350 0.950 . S
C2379 C2378 1.383 . S
C2379 C2380 1.395 . S
C2380 H2351 0.950 . S
C2380 C2379 1.395 . S
C2380 C2381 1.288 . S
C2381 C2380 1.288 . S
C2381 C2382 1.392 . S
C2382 H2352 0.951 . S
C2382 C2381 1.392 . S
C2382 C2383 1.392 . S
C2383 H2353 0.949 . S
C2383 C2378 1.382 . S
C2383 C2382 1.392 . S
H2384 C2403 0.949 . S
H2385 C2404 0.950 . S
H2386 C2406 0.950 . S
H2387 C2407 0.950 . S
H2388 C2409 0.950 . S
H2389 C2412 0.950 . S
H2390 C2413 0.950 . S
H2391 C2415 0.951 . S
H2392 C2416 0.949 . S
H2393 C2418 0.949 . S
H2394 C2419 0.950 . S
H2395 C2421 0.950 . S
H2396 C2422 0.950 . S
H2397 C2424 0.950 . S
H2398 C2427 0.950 . S
H2399 C2428 0.950 . S
H2400 C2430 0.951 . S
H2401 C2431 0.949 . S
C2402 C2403 1.376 . S
C2402 C2407 1.386 . S
C2402 C2408 1.483 . S
C2403 H2384 0.949 . S
C2403 C2402 1.376 . S
C2403 C2404 1.397 . S
C2404 H2385 0.950 . S
C2404 C2403 1.397 . S
C2404 C2405 1.391 . S
C2405 C2404 1.391 . S
C2405 C2406 1.405 . S
C2406 H2386 0.950 . S
C2406 C2405 1.405 . S
C2406 C2407 1.367 . S
C2407 H2387 0.950 . S
C2407 C2402 1.386 . S
C2407 C2406 1.367 . S
C2408 C2402 1.483 . S
C2408 C2409 1.382 . S
C2408 C2410 1.403 . S
C2409 H2388 0.950 . S
C2409 C2408 1.382 . S
C2409 C2425 1.411 . S
C2410 C2408 1.403 . S
C2410 C2411 1.489 . S
C2410 C2424 1.411 . S
C2411 C2410 1.489 . S
C2411 C2412 1.383 . S
C2411 C2416 1.382 . S
C2412 H2389 0.950 . S
C2412 C2411 1.383 . S
C2412 C2413 1.395 . S
C2413 H2390 0.950 . S
C2413 C2412 1.395 . S
C2413 C2414 1.288 . S
C2414 C2413 1.288 . S
C2414 C2415 1.392 . S
C2415 H2391 0.951 . S
C2415 C2414 1.392 . S
C2415 C2416 1.392 . S
C2416 H2392 0.949 . S
C2416 C2411 1.382 . S
C2416 C2415 1.392 . S
C2417 C2418 1.376 . S
C2417 C2422 1.386 . S
C2417 C2423 1.483 . S
C2418 H2393 0.949 . S
C2418 C2417 1.376 . S
C2418 C2419 1.397 . S
C2419 H2394 0.950 . S
C2419 C2418 1.397 . S
C2419 C2420 1.391 . S
C2420 C2419 1.391 . S
C2420 C2421 1.405 . S
C2421 H2395 0.950 . S
C2421 C2420 1.405 . S
C2421 C2422 1.367 . S
C2422 H2396 0.950 . S
C2422 C2417 1.386 . S
C2422 C2421 1.367 . S
C2423 C2417 1.483 . S
C2423 C2424 1.382 . S
C2423 C2425 1.403 . S
C2424 H2397 0.950 . S
C2424 C2410 1.411 . S
C2424 C2423 1.382 . S
C2425 C2409 1.411 . S
C2425 C2423 1.403 . S
C2425 C2426 1.489 . S
C2426 C2425 1.489 . S
C2426 C2427 1.383 . S
C2426 C2431 1.382 . S
C2427 H2398 0.950 . S
C2427 C2426 1.383 . S
C2427 C2428 1.395 . S
C2428 H2399 0.950 . S
C2428 C2427 1.395 . S
C2428 C2429 1.288 . S
C2429 C2428 1.288 . S
C2429 C2430 1.392 . S
C2430 H2400 0.951 . S
C2430 C2429 1.392 . S
C2430 C2431 1.392 . S
C2431 H2401 0.949 . S
C2431 C2426 1.382 . S
C2431 C2430 1.392 . S
H2432 C2440 0.950 . S
H2433 C2445 0.950 . S
H2434 C2442 0.950 . S
H2435 C2444 0.950 . S
H2436 C2446 0.950 . S
H2437 C2448 0.950 . S
H2438 C2450 0.950 . S
H2439 C2451 0.950 . S
C2440 H2432 0.950 . S
C2440 C2441 1.386 . S
C2440 C2442 1.391 . S
C2441 C2440 1.386 . S
C2441 C2445 1.393 . S
C2442 H2434 0.950 . S
C2442 C2440 1.391 . S
C2442 C2443 1.400 . S
C2443 C2442 1.400 . S
C2443 C2444 1.398 . S
C2443 C2449 1.491 . S
C2444 H2435 0.950 . S
C2444 C2443 1.398 . S
C2444 C2445 1.391 . S
C2445 H2433 0.950 . S
C2445 C2441 1.393 . S
C2445 C2444 1.391 . S
C2446 H2436 0.950 . S
C2446 C2447 1.386 . S
C2446 C2448 1.391 . S
C2447 C2446 1.386 . S
C2447 C2451 1.393 . S
C2448 H2437 0.950 . S
C2448 C2446 1.391 . S
C2448 C2449 1.400 . S
C2449 C2443 1.491 . S
C2449 C2448 1.400 . S
C2449 C2450 1.398 . S
C2450 H2438 0.950 . S
C2450 C2449 1.398 . S
C2450 C2451 1.391 . S
C2451 H2439 0.950 . S
C2451 C2447 1.393 . S
C2451 C2450 1.391 . S
H2452 C2460 0.950 . S
H2453 C2465 0.950 . S
H2454 C2462 0.950 . S
H2455 C2464 0.950 . S
H2456 C2466 0.950 . S
H2457 C2468 0.950 . S
H2458 C2470 0.950 . S
H2459 C2471 0.950 . S
C2460 H2452 0.950 . S
C2460 C2461 1.386 . S
C2460 C2462 1.391 . S
C2461 C2460 1.386 . S
C2461 C2465 1.393 . S
C2462 H2454 0.950 . S
C2462 C2460 1.391 . S
C2462 C2463 1.400 . S
C2463 C2462 1.400 . S
C2463 C2464 1.398 . S
C2463 C2469 1.491 . S
C2464 H2455 0.950 . S
C2464 C2463 1.398 . S
C2464 C2465 1.391 . S
C2465 H2453 0.950 . S
C2465 C2461 1.393 . S
C2465 C2464 1.391 . S
C2466 H2456 0.950 . S
C2466 C2467 1.386 . S
C2466 C2468 1.391 . S
C2467 C2466 1.386 . S
C2467 C2471 1.393 . S
C2468 H2457 0.950 . S
C2468 C2466 1.391 . S
C2468 C2469 1.400 . S
C2469 C2463 1.491 . S
C2469 C2468 1.400 . S
C2469 C2470 1.398 . S
C2470 H2458 0.950 . S
C2470 C2469 1.398 . S
C2470 C2471 1.391 . S
C2471 H2459 0.950 . S
C2471 C2467 1.393 . S
C2471 C2470 1.391 . S
H2472 C2480 0.950 . S
H2473 C2485 0.950 . S
H2474 C2482 0.950 . S
H2475 C2484 0.950 . S
H2476 C2486 0.950 . S
H2477 C2488 0.950 . S
H2478 C2490 0.950 . S
H2479 C2491 0.950 . S
C2480 H2472 0.950 . S
C2480 C2481 1.386 . S
C2480 C2482 1.391 . S
C2481 C2480 1.386 . S
C2481 C2485 1.393 . S
C2482 H2474 0.950 . S
C2482 C2480 1.391 . S
C2482 C2483 1.400 . S
C2483 C2482 1.400 . S
C2483 C2484 1.398 . S
C2483 C2489 1.491 . S
C2484 H2475 0.950 . S
C2484 C2483 1.398 . S
C2484 C2485 1.391 . S
C2485 H2473 0.950 . S
C2485 C2481 1.393 . S
C2485 C2484 1.391 . S
C2486 H2476 0.950 . S
C2486 C2487 1.386 . S
C2486 C2488 1.391 . S
C2487 C2486 1.386 . S
C2487 C2491 1.393 . S
C2488 H2477 0.950 . S
C2488 C2486 1.391 . S
C2488 C2489 1.400 . S
C2489 C2483 1.491 . S
C2489 C2488 1.400 . S
C2489 C2490 1.398 . S
C2490 H2478 0.950 . S
C2490 C2489 1.398 . S
C2490 C2491 1.391 . S
C2491 H2479 0.950 . S
C2491 C2487 1.393 . S
C2491 C2490 1.391 . S
H2492 C2500 0.950 . S
H2493 C2505 0.950 . S
H2494 C2502 0.950 . S
H2495 C2504 0.950 . S
H2496 C2506 0.950 . S
H2497 C2508 0.950 . S
H2498 C2510 0.950 . S
H2499 C2511 0.950 . S
C2500 H2492 0.950 . S
C2500 C2501 1.386 . S
C2500 C2502 1.391 . S
C2501 C2500 1.386 . S
C2501 C2505 1.393 . S
C2502 H2494 0.950 . S
C2502 C2500 1.391 . S
C2502 C2503 1.400 . S
C2503 C2502 1.400 . S
C2503 C2504 1.398 . S
C2503 C2509 1.491 . S
C2504 H2495 0.950 . S
C2504 C2503 1.398 . S
C2504 C2505 1.391 . S
C2505 H2493 0.950 . S
C2505 C2501 1.393 . S
C2505 C2504 1.391 . S
C2506 H2496 0.950 . S
C2506 C2507 1.386 . S
C2506 C2508 1.391 . S
C2507 C2506 1.386 . S
C2507 C2511 1.393 . S
C2508 H2497 0.950 . S
C2508 C2506 1.391 . S
C2508 C2509 1.400 . S
C2509 C2503 1.491 . S
C2509 C2508 1.400 . S
C2509 C2510 1.398 . S
C2510 H2498 0.950 . S
C2510 C2509 1.398 . S
C2510 C2511 1.391 . S
C2511 H2499 0.950 . S
C2511 C2507 1.393 . S
C2511 C2510 1.391 . S
H2512 C2520 0.950 . S
H2513 C2525 0.950 . S
H2514 C2522 0.950 . S
H2515 C2524 0.950 . S
H2516 C2526 0.950 . S
H2517 C2528 0.950 . S
H2518 C2530 0.950 . S
H2519 C2531 0.950 . S
C2520 H2512 0.950 . S
C2520 C2521 1.386 . S
C2520 C2522 1.391 . S
C2521 C2520 1.386 . S
C2521 C2525 1.393 . S
C2522 H2514 0.950 . S
C2522 C2520 1.391 . S
C2522 C2523 1.400 . S
C2523 C2522 1.400 . S
C2523 C2524 1.398 . S
C2523 C2529 1.491 . S
C2524 H2515 0.950 . S
C2524 C2523 1.398 . S
C2524 C2525 1.391 . S
C2525 H2513 0.950 . S
C2525 C2521 1.393 . S
C2525 C2524 1.391 . S
C2526 H2516 0.950 . S
C2526 C2527 1.386 . S
C2526 C2528 1.391 . S
C2527 C2526 1.386 . S
C2527 C2531 1.393 . S
C2528 H2517 0.950 . S
C2528 C2526 1.391 . S
C2528 C2529 1.400 . S
C2529 C2523 1.491 . S
C2529 C2528 1.400 . S
C2529 C2530 1.398 . S
C2530 H2518 0.950 . S
C2530 C2529 1.398 . S
C2530 C2531 1.391 . S
C2531 H2519 0.950 . S
C2531 C2527 1.393 . S
C2531 C2530 1.391 . S
H2532 C2540 0.950 . S
H2533 C2545 0.950 . S
H2534 C2542 0.950 . S
H2535 C2544 0.950 . S
H2536 C2546 0.950 . S
H2537 C2548 0.950 . S
H2538 C2550 0.950 . S
H2539 C2551 0.950 . S
C2540 H2532 0.950 . S
C2540 C2541 1.386 . S
C2540 C2542 1.391 . S
C2541 C2540 1.386 . S
C2541 C2545 1.393 . S
C2542 H2534 0.950 . S
C2542 C2540 1.391 . S
C2542 C2543 1.400 . S
C2543 C2542 1.400 . S
C2543 C2544 1.398 . S
C2543 C2549 1.491 . S
C2544 H2535 0.950 . S
C2544 C2543 1.398 . S
C2544 C2545 1.391 . S
C2545 H2533 0.950 . S
C2545 C2541 1.393 . S
C2545 C2544 1.391 . S
C2546 H2536 0.950 . S
C2546 C2547 1.386 . S
C2546 C2548 1.391 . S
C2547 C2546 1.386 . S
C2547 C2551 1.393 . S
C2548 H2537 0.950 . S
C2548 C2546 1.391 . S
C2548 C2549 1.400 . S
C2549 C2543 1.491 . S
C2549 C2548 1.400 . S
C2549 C2550 1.398 . S
C2550 H2538 0.950 . S
C2550 C2549 1.398 . S
C2550 C2551 1.391 . S
C2551 H2539 0.950 . S
C2551 C2547 1.393 . S
C2551 C2550 1.391 . S
H2552 C2560 0.950 . S
H2553 C2565 0.950 . S
H2554 C2562 0.950 . S
H2555 C2564 0.950 . S
H2556 C2566 0.950 . S
H2557 C2568 0.950 . S
H2558 C2570 0.950 . S
H2559 C2571 0.950 . S
C2560 H2552 0.950 . S
C2560 C2561 1.386 . S
C2560 C2562 1.391 . S
C2561 C2560 1.386 . S
C2561 C2565 1.393 . S
C2562 H2554 0.950 . S
C2562 C2560 1.391 . S
C2562 C2563 1.400 . S
C2563 C2562 1.400 . S
C2563 C2564 1.398 . S
C2563 C2569 1.491 . S
C2564 H2555 0.950 . S
C2564 C2563 1.398 . S
C2564 C2565 1.391 . S
C2565 H2553 0.950 . S
C2565 C2561 1.393 . S
C2565 C2564 1.391 . S
C2566 H2556 0.950 . S
C2566 C2567 1.386 . S
C2566 C2568 1.391 . S
C2567 C2566 1.386 . S
C2567 C2571 1.393 . S
C2568 H2557 0.950 . S
C2568 C2566 1.391 . S
C2568 C2569 1.400 . S
C2569 C2563 1.491 . S
C2569 C2568 1.400 . S
C2569 C2570 1.398 . S
C2570 H2558 0.950 . S
C2570 C2569 1.398 . S
C2570 C2571 1.391 . S
C2571 H2559 0.950 . S
C2571 C2567 1.393 . S
C2571 C2570 1.391 . S
H2572 C2580 0.950 . S
H2573 C2585 0.950 . S
H2574 C2582 0.950 . S
H2575 C2584 0.950 . S
H2576 C2586 0.950 . S
H2577 C2588 0.950 . S
H2578 C2590 0.950 . S
H2579 C2591 0.950 . S
C2580 H2572 0.950 . S
C2580 C2581 1.386 . S
C2580 C2582 1.391 . S
C2581 C2580 1.386 . S
C2581 C2585 1.393 . S
C2582 H2574 0.950 . S
C2582 C2580 1.391 . S
C2582 C2583 1.400 . S
C2583 C2582 1.400 . S
C2583 C2584 1.398 . S
C2583 C2589 1.491 . S
C2584 H2575 0.950 . S
C2584 C2583 1.398 . S
C2584 C2585 1.391 . S
C2585 H2573 0.950 . S
C2585 C2581 1.393 . S
C2585 C2584 1.391 . S
C2586 H2576 0.950 . S
C2586 C2587 1.386 . S
C2586 C2588 1.391 . S
C2587 C2586 1.386 . S
C2587 C2591 1.393 . S
C2588 H2577 0.950 . S
C2588 C2586 1.391 . S
C2588 C2589 1.400 . S
C2589 C2583 1.491 . S
C2589 C2588 1.400 . S
C2589 C2590 1.398 . S
C2590 H2578 0.950 . S
C2590 C2589 1.398 . S
C2590 C2591 1.391 . S
C2591 H2579 0.950 . S
C2591 C2587 1.393 . S
C2591 C2590 1.391 . S
H2592 C2600 0.950 . S
H2593 C2605 0.950 . S
H2594 C2602 0.950 . S
H2595 C2604 0.950 . S
H2596 C2606 0.950 . S
H2597 C2608 0.950 . S
H2598 C2610 0.950 . S
H2599 C2611 0.950 . S
C2600 H2592 0.950 . S
C2600 C2601 1.386 . S
C2600 C2602 1.391 . S
C2601 C2600 1.386 . S
C2601 C2605 1.393 . S
C2602 H2594 0.950 . S
C2602 C2600 1.391 . S
C2602 C2603 1.400 . S
C2603 C2602 1.400 . S
C2603 C2604 1.398 . S
C2603 C2609 1.491 . S
C2604 H2595 0.950 . S
C2604 C2603 1.398 . S
C2604 C2605 1.391 . S
C2605 H2593 0.950 . S
C2605 C2601 1.393 . S
C2605 C2604 1.391 . S
C2606 H2596 0.950 . S
C2606 C2607 1.386 . S
C2606 C2608 1.391 . S
C2607 C2606 1.386 . S
C2607 C2611 1.393 . S
C2608 H2597 0.950 . S
C2608 C2606 1.391 . S
C2608 C2609 1.400 . S
C2609 C2603 1.491 . S
C2609 C2608 1.400 . S
C2609 C2610 1.398 . S
C2610 H2598 0.950 . S
C2610 C2609 1.398 . S
C2610 C2611 1.391 . S
C2611 H2599 0.950 . S
C2611 C2607 1.393 . S
C2611 C2610 1.391 . S
H2612 C2620 0.950 . S
H2613 C2625 0.950 . S
H2614 C2622 0.950 . S
H2615 C2624 0.950 . S
H2616 C2626 0.950 . S
H2617 C2628 0.950 . S
H2618 C2630 0.950 . S
H2619 C2631 0.950 . S
C2620 H2612 0.950 . S
C2620 C2621 1.386 . S
C2620 C2622 1.391 . S
C2621 C2620 1.386 . S
C2621 C2625 1.393 . S
C2622 H2614 0.950 . S
C2622 C2620 1.391 . S
C2622 C2623 1.400 . S
C2623 C2622 1.400 . S
C2623 C2624 1.398 . S
C2623 C2629 1.491 . S
C2624 H2615 0.950 . S
C2624 C2623 1.398 . S
C2624 C2625 1.391 . S
C2625 H2613 0.950 . S
C2625 C2621 1.393 . S
C2625 C2624 1.391 . S
C2626 H2616 0.950 . S
C2626 C2627 1.386 . S
C2626 C2628 1.391 . S
C2627 C2626 1.386 . S
C2627 C2631 1.393 . S
C2628 H2617 0.950 . S
C2628 C2626 1.391 . S
C2628 C2629 1.400 . S
C2629 C2623 1.491 . S
C2629 C2628 1.400 . S
C2629 C2630 1.398 . S
C2630 H2618 0.950 . S
C2630 C2629 1.398 . S
C2630 C2631 1.391 . S
C2631 H2619 0.950 . S
C2631 C2627 1.393 . S
C2631 C2630 1.391 . S
H2632 C2640 0.950 . S
H2633 C2645 0.950 . S
H2634 C2642 0.950 . S
H2635 C2644 0.950 . S
H2636 C2646 0.950 . S
H2637 C2648 0.950 . S
H2638 C2650 0.950 . S
H2639 C2651 0.950 . S
C2640 H2632 0.950 . S
C2640 C2641 1.386 . S
C2640 C2642 1.391 . S
C2641 C2640 1.386 . S
C2641 C2645 1.393 . S
C2642 H2634 0.950 . S
C2642 C2640 1.391 . S
C2642 C2643 1.400 . S
C2643 C2642 1.400 . S
C2643 C2644 1.398 . S
C2643 C2649 1.491 . S
C2644 H2635 0.950 . S
C2644 C2643 1.398 . S
C2644 C2645 1.391 . S
C2645 H2633 0.950 . S
C2645 C2641 1.393 . S
C2645 C2644 1.391 . S
C2646 H2636 0.950 . S
C2646 C2647 1.386 . S
C2646 C2648 1.391 . S
C2647 C2646 1.386 . S
C2647 C2651 1.393 . S
C2648 H2637 0.950 . S
C2648 C2646 1.391 . S
C2648 C2649 1.400 . S
C2649 C2643 1.491 . S
C2649 C2648 1.400 . S
C2649 C2650 1.398 . S
C2650 H2638 0.950 . S
C2650 C2649 1.398 . S
C2650 C2651 1.391 . S
C2651 H2639 0.950 . S
C2651 C2647 1.393 . S
C2651 C2650 1.391 . S
H2652 C2660 0.950 . S
H2653 C2665 0.950 . S
H2654 C2662 0.950 . S
H2655 C2664 0.950 . S
H2656 C2666 0.950 . S
H2657 C2668 0.950 . S
H2658 C2670 0.950 . S
H2659 C2671 0.950 . S
C2660 H2652 0.950 . S
C2660 C2661 1.386 . S
C2660 C2662 1.391 . S
C2661 C2660 1.386 . S
C2661 C2665 1.393 . S
C2662 H2654 0.950 . S
C2662 C2660 1.391 . S
C2662 C2663 1.400 . S
C2663 C2662 1.400 . S
C2663 C2664 1.398 . S
C2663 C2669 1.491 . S
C2664 H2655 0.950 . S
C2664 C2663 1.398 . S
C2664 C2665 1.391 . S
C2665 H2653 0.950 . S
C2665 C2661 1.393 . S
C2665 C2664 1.391 . S
C2666 H2656 0.950 . S
C2666 C2667 1.386 . S
C2666 C2668 1.391 . S
C2667 C2666 1.386 . S
C2667 C2671 1.393 . S
C2668 H2657 0.950 . S
C2668 C2666 1.391 . S
C2668 C2669 1.400 . S
C2669 C2663 1.491 . S
C2669 C2668 1.400 . S
C2669 C2670 1.398 . S
C2670 H2658 0.950 . S
C2670 C2669 1.398 . S
C2670 C2671 1.391 . S
C2671 H2659 0.950 . S
C2671 C2667 1.393 . S
C2671 C2670 1.391 . S
H2672 C2680 0.950 . S
H2673 C2685 0.950 . S
H2674 C2682 0.950 . S
H2675 C2684 0.950 . S
H2676 C2686 0.950 . S
H2677 C2688 0.950 . S
H2678 C2690 0.950 . S
H2679 C2691 0.950 . S
C2680 H2672 0.950 . S
C2680 C2681 1.386 . S
C2680 C2682 1.391 . S
C2681 C2680 1.386 . S
C2681 C2685 1.393 . S
C2682 H2674 0.950 . S
C2682 C2680 1.391 . S
C2682 C2683 1.400 . S
C2683 C2682 1.400 . S
C2683 C2684 1.398 . S
C2683 C2689 1.491 . S
C2684 H2675 0.950 . S
C2684 C2683 1.398 . S
C2684 C2685 1.391 . S
C2685 H2673 0.950 . S
C2685 C2681 1.393 . S
C2685 C2684 1.391 . S
C2686 H2676 0.950 . S
C2686 C2687 1.386 . S
C2686 C2688 1.391 . S
C2687 C2686 1.386 . S
C2687 C2691 1.393 . S
C2688 H2677 0.950 . S
C2688 C2686 1.391 . S
C2688 C2689 1.400 . S
C2689 C2683 1.491 . S
C2689 C2688 1.400 . S
C2689 C2690 1.398 . S
C2690 H2678 0.950 . S
C2690 C2689 1.398 . S
C2690 C2691 1.391 . S
C2691 H2679 0.950 . S
C2691 C2687 1.393 . S
C2691 C2690 1.391 . S
H2692 C2700 0.950 . S
H2693 C2705 0.950 . S
H2694 C2702 0.950 . S
H2695 C2704 0.950 . S
H2696 C2706 0.950 . S
H2697 C2708 0.950 . S
H2698 C2710 0.950 . S
H2699 C2711 0.950 . S
C2700 H2692 0.950 . S
C2700 C2701 1.386 . S
C2700 C2702 1.391 . S
C2701 C2700 1.386 . S
C2701 C2705 1.393 . S
C2702 H2694 0.950 . S
C2702 C2700 1.391 . S
C2702 C2703 1.400 . S
C2703 C2702 1.400 . S
C2703 C2704 1.398 . S
C2703 C2709 1.491 . S
C2704 H2695 0.950 . S
C2704 C2703 1.398 . S
C2704 C2705 1.391 . S
C2705 H2693 0.950 . S
C2705 C2701 1.393 . S
C2705 C2704 1.391 . S
C2706 H2696 0.950 . S
C2706 C2707 1.386 . S
C2706 C2708 1.391 . S
C2707 C2706 1.386 . S
C2707 C2711 1.393 . S
C2708 H2697 0.950 . S
C2708 C2706 1.391 . S
C2708 C2709 1.400 . S
C2709 C2703 1.491 . S
C2709 C2708 1.400 . S
C2709 C2710 1.398 . S
C2710 H2698 0.950 . S
C2710 C2709 1.398 . S
C2710 C2711 1.391 . S
C2711 H2699 0.950 . S
C2711 C2707 1.393 . S
C2711 C2710 1.391 . S
H2712 C2720 0.950 . S
H2713 C2725 0.950 . S
H2714 C2722 0.950 . S
H2715 C2724 0.950 . S
H2716 C2726 0.950 . S
H2717 C2728 0.950 . S
H2718 C2730 0.950 . S
H2719 C2731 0.950 . S
C2720 H2712 0.950 . S
C2720 C2721 1.386 . S
C2720 C2722 1.391 . S
C2721 C2720 1.386 . S
C2721 C2725 1.393 . S
C2722 H2714 0.950 . S
C2722 C2720 1.391 . S
C2722 C2723 1.400 . S
C2723 C2722 1.400 . S
C2723 C2724 1.398 . S
C2723 C2729 1.491 . S
C2724 H2715 0.950 . S
C2724 C2723 1.398 . S
C2724 C2725 1.391 . S
C2725 H2713 0.950 . S
C2725 C2721 1.393 . S
C2725 C2724 1.391 . S
C2726 H2716 0.950 . S
C2726 C2727 1.386 . S
C2726 C2728 1.391 . S
C2727 C2726 1.386 . S
C2727 C2731 1.393 . S
C2728 H2717 0.950 . S
C2728 C2726 1.391 . S
C2728 C2729 1.400 . S
C2729 C2723 1.491 . S
C2729 C2728 1.400 . S
C2729 C2730 1.398 . S
C2730 H2718 0.950 . S
C2730 C2729 1.398 . S
C2730 C2731 1.391 . S
C2731 H2719 0.950 . S
C2731 C2727 1.393 . S
C2731 C2730 1.391 . S
H2732 C2740 0.950 . S
H2733 C2745 0.950 . S
H2734 C2742 0.950 . S
H2735 C2744 0.950 . S
H2736 C2746 0.950 . S
H2737 C2748 0.950 . S
H2738 C2750 0.950 . S
H2739 C2751 0.950 . S
C2740 H2732 0.950 . S
C2740 C2741 1.386 . S
C2740 C2742 1.391 . S
C2741 C2740 1.386 . S
C2741 C2745 1.393 . S
C2742 H2734 0.950 . S
C2742 C2740 1.391 . S
C2742 C2743 1.400 . S
C2743 C2742 1.400 . S
C2743 C2744 1.398 . S
C2743 C2749 1.491 . S
C2744 H2735 0.950 . S
C2744 C2743 1.398 . S
C2744 C2745 1.391 . S
C2745 H2733 0.950 . S
C2745 C2741 1.393 . S
C2745 C2744 1.391 . S
C2746 H2736 0.950 . S
C2746 C2747 1.386 . S
C2746 C2748 1.391 . S
C2747 C2746 1.386 . S
C2747 C2751 1.393 . S
C2748 H2737 0.950 . S
C2748 C2746 1.391 . S
C2748 C2749 1.400 . S
C2749 C2743 1.491 . S
C2749 C2748 1.400 . S
C2749 C2750 1.398 . S
C2750 H2738 0.950 . S
C2750 C2749 1.398 . S
C2750 C2751 1.391 . S
C2751 H2739 0.950 . S
C2751 C2747 1.393 . S
C2751 C2750 1.391 . S
H2752 C2760 0.950 . S
H2753 C2765 0.950 . S
H2754 C2762 0.950 . S
H2755 C2764 0.950 . S
H2756 C2766 0.950 . S
H2757 C2768 0.950 . S
H2758 C2770 0.950 . S
H2759 C2771 0.950 . S
C2760 H2752 0.950 . S
C2760 C2761 1.386 . S
C2760 C2762 1.391 . S
C2761 C2760 1.386 . S
C2761 C2765 1.393 . S
C2762 H2754 0.950 . S
C2762 C2760 1.391 . S
C2762 C2763 1.400 . S
C2763 C2762 1.400 . S
C2763 C2764 1.398 . S
C2763 C2769 1.491 . S
C2764 H2755 0.950 . S
C2764 C2763 1.398 . S
C2764 C2765 1.391 . S
C2765 H2753 0.950 . S
C2765 C2761 1.393 . S
C2765 C2764 1.391 . S
C2766 H2756 0.950 . S
C2766 C2767 1.386 . S
C2766 C2768 1.391 . S
C2767 C2766 1.386 . S
C2767 C2771 1.393 . S
C2768 H2757 0.950 . S
C2768 C2766 1.391 . S
C2768 C2769 1.400 . S
C2769 C2763 1.491 . S
C2769 C2768 1.400 . S
C2769 C2770 1.398 . S
C2770 H2758 0.950 . S
C2770 C2769 1.398 . S
C2770 C2771 1.391 . S
C2771 H2759 0.950 . S
C2771 C2767 1.393 . S
C2771 C2770 1.391 . S
H2772 C2780 0.950 . S
H2773 C2785 0.950 . S
H2774 C2782 0.950 . S
H2775 C2784 0.950 . S
H2776 C2786 0.950 . S
H2777 C2788 0.950 . S
H2778 C2790 0.950 . S
H2779 C2791 0.950 . S
C2780 H2772 0.950 . S
C2780 C2781 1.386 . S
C2780 C2782 1.391 . S
C2781 C2780 1.386 . S
C2781 C2785 1.393 . S
C2782 H2774 0.950 . S
C2782 C2780 1.391 . S
C2782 C2783 1.400 . S
C2783 C2782 1.400 . S
C2783 C2784 1.398 . S
C2783 C2789 1.491 . S
C2784 H2775 0.950 . S
C2784 C2783 1.398 . S
C2784 C2785 1.391 . S
C2785 H2773 0.950 . S
C2785 C2781 1.393 . S
C2785 C2784 1.391 . S
C2786 H2776 0.950 . S
C2786 C2787 1.386 . S
C2786 C2788 1.391 . S
C2787 C2786 1.386 . S
C2787 C2791 1.393 . S
C2788 H2777 0.950 . S
C2788 C2786 1.391 . S
C2788 C2789 1.400 . S
C2789 C2783 1.491 . S
C2789 C2788 1.400 . S
C2789 C2790 1.398 . S
C2790 H2778 0.950 . S
C2790 C2789 1.398 . S
C2790 C2791 1.391 . S
C2791 H2779 0.950 . S
C2791 C2787 1.393 . S
C2791 C2790 1.391 . S
H2792 C2800 0.950 . S
H2793 C2805 0.950 . S
H2794 C2802 0.950 . S
H2795 C2804 0.950 . S
H2796 C2806 0.950 . S
H2797 C2808 0.950 . S
H2798 C2810 0.950 . S
H2799 C2811 0.950 . S
C2800 H2792 0.950 . S
C2800 C2801 1.386 . S
C2800 C2802 1.391 . S
C2801 C2800 1.386 . S
C2801 C2805 1.393 . S
C2802 H2794 0.950 . S
C2802 C2800 1.391 . S
C2802 C2803 1.400 . S
C2803 C2802 1.400 . S
C2803 C2804 1.398 . S
C2803 C2809 1.491 . S
C2804 H2795 0.950 . S
C2804 C2803 1.398 . S
C2804 C2805 1.391 . S
C2805 H2793 0.950 . S
C2805 C2801 1.393 . S
C2805 C2804 1.391 . S
C2806 H2796 0.950 . S
C2806 C2807 1.386 . S
C2806 C2808 1.391 . S
C2807 C2806 1.386 . S
C2807 C2811 1.393 . S
C2808 H2797 0.950 . S
C2808 C2806 1.391 . S
C2808 C2809 1.400 . S
C2809 C2803 1.491 . S
C2809 C2808 1.400 . S
C2809 C2810 1.398 . S
C2810 H2798 0.950 . S
C2810 C2809 1.398 . S
C2810 C2811 1.391 . S
C2811 H2799 0.950 . S
C2811 C2807 1.393 . S
C2811 C2810 1.391 . S
H2812 C2820 0.950 . S
H2813 C2825 0.950 . S
H2814 C2822 0.950 . S
H2815 C2824 0.950 . S
H2816 C2826 0.950 . S
H2817 C2828 0.950 . S
H2818 C2830 0.950 . S
H2819 C2831 0.950 . S
C2820 H2812 0.950 . S
C2820 C2821 1.386 . S
C2820 C2822 1.391 . S
C2821 C2820 1.386 . S
C2821 C2825 1.393 . S
C2822 H2814 0.950 . S
C2822 C2820 1.391 . S
C2822 C2823 1.400 . S
C2823 C2822 1.400 . S
C2823 C2824 1.398 . S
C2823 C2829 1.491 . S
C2824 H2815 0.950 . S
C2824 C2823 1.398 . S
C2824 C2825 1.391 . S
C2825 H2813 0.950 . S
C2825 C2821 1.393 . S
C2825 C2824 1.391 . S
C2826 H2816 0.950 . S
C2826 C2827 1.386 . S
C2826 C2828 1.391 . S
C2827 C2826 1.386 . S
C2827 C2831 1.393 . S
C2828 H2817 0.950 . S
C2828 C2826 1.391 . S
C2828 C2829 1.400 . S
C2829 C2823 1.491 . S
C2829 C2828 1.400 . S
C2829 C2830 1.398 . S
C2830 H2818 0.950 . S
C2830 C2829 1.398 . S
C2830 C2831 1.391 . S
C2831 H2819 0.950 . S
C2831 C2827 1.393 . S
C2831 C2830 1.391 . S
H2832 C2840 0.950 . S
H2833 C2845 0.950 . S
H2834 C2842 0.950 . S
H2835 C2844 0.950 . S
H2836 C2846 0.950 . S
H2837 C2848 0.950 . S
H2838 C2850 0.950 . S
H2839 C2851 0.950 . S
C2840 H2832 0.950 . S
C2840 C2841 1.386 . S
C2840 C2842 1.391 . S
C2841 C2840 1.386 . S
C2841 C2845 1.393 . S
C2842 H2834 0.950 . S
C2842 C2840 1.391 . S
C2842 C2843 1.400 . S
C2843 C2842 1.400 . S
C2843 C2844 1.398 . S
C2843 C2849 1.491 . S
C2844 H2835 0.950 . S
C2844 C2843 1.398 . S
C2844 C2845 1.391 . S
C2845 H2833 0.950 . S
C2845 C2841 1.393 . S
C2845 C2844 1.391 . S
C2846 H2836 0.950 . S
C2846 C2847 1.386 . S
C2846 C2848 1.391 . S
C2847 C2846 1.386 . S
C2847 C2851 1.393 . S
C2848 H2837 0.950 . S
C2848 C2846 1.391 . S
C2848 C2849 1.400 . S
C2849 C2843 1.491 . S
C2849 C2848 1.400 . S
C2849 C2850 1.398 . S
C2850 H2838 0.950 . S
C2850 C2849 1.398 . S
C2850 C2851 1.391 . S
C2851 H2839 0.950 . S
C2851 C2847 1.393 . S
C2851 C2850 1.391 . S
H2852 C2860 0.950 . S
H2853 C2865 0.950 . S
H2854 C2862 0.950 . S
H2855 C2864 0.950 . S
H2856 C2866 0.950 . S
H2857 C2868 0.950 . S
H2858 C2870 0.950 . S
H2859 C2871 0.950 . S
C2860 H2852 0.950 . S
C2860 C2861 1.386 . S
C2860 C2862 1.391 . S
C2861 C2860 1.386 . S
C2861 C2865 1.393 . S
C2862 H2854 0.950 . S
C2862 C2860 1.391 . S
C2862 C2863 1.400 . S
C2863 C2862 1.400 . S
C2863 C2864 1.398 . S
C2863 C2869 1.491 . S
C2864 H2855 0.950 . S
C2864 C2863 1.398 . S
C2864 C2865 1.391 . S
C2865 H2853 0.950 . S
C2865 C2861 1.393 . S
C2865 C2864 1.391 . S
C2866 H2856 0.950 . S
C2866 C2867 1.386 . S
C2866 C2868 1.391 . S
C2867 C2866 1.386 . S
C2867 C2871 1.393 . S
C2868 H2857 0.950 . S
C2868 C2866 1.391 . S
C2868 C2869 1.400 . S
C2869 C2863 1.491 . S
C2869 C2868 1.400 . S
C2869 C2870 1.398 . S
C2870 H2858 0.950 . S
C2870 C2869 1.398 . S
C2870 C2871 1.391 . S
C2871 H2859 0.950 . S
C2871 C2867 1.393 . S
C2871 C2870 1.391 . S
H2872 C2880 0.950 . S
H2873 C2885 0.950 . S
H2874 C2882 0.950 . S
H2875 C2884 0.950 . S
H2876 C2886 0.950 . S
H2877 C2888 0.950 . S
H2878 C2890 0.950 . S
H2879 C2891 0.950 . S
C2880 H2872 0.950 . S
C2880 C2881 1.386 . S
C2880 C2882 1.391 . S
C2881 C2880 1.386 . S
C2881 C2885 1.393 . S
C2882 H2874 0.950 . S
C2882 C2880 1.391 . S
C2882 C2883 1.400 . S
C2883 C2882 1.400 . S
C2883 C2884 1.398 . S
C2883 C2889 1.491 . S
C2884 H2875 0.950 . S
C2884 C2883 1.398 . S
C2884 C2885 1.391 . S
C2885 H2873 0.950 . S
C2885 C2881 1.393 . S
C2885 C2884 1.391 . S
C2886 H2876 0.950 . S
C2886 C2887 1.386 . S
C2886 C2888 1.391 . S
C2887 C2886 1.386 . S
C2887 C2891 1.393 . S
C2888 H2877 0.950 . S
C2888 C2886 1.391 . S
C2888 C2889 1.400 . S
C2889 C2883 1.491 . S
C2889 C2888 1.400 . S
C2889 C2890 1.398 . S
C2890 H2878 0.950 . S
C2890 C2889 1.398 . S
C2890 C2891 1.391 . S
C2891 H2879 0.950 . S
C2891 C2887 1.393 . S
C2891 C2890 1.391 . S
H2892 C2900 0.950 . S
H2893 C2905 0.950 . S
H2894 C2902 0.950 . S
H2895 C2904 0.950 . S
H2896 C2906 0.950 . S
H2897 C2908 0.950 . S
H2898 C2910 0.950 . S
H2899 C2911 0.950 . S
C2900 H2892 0.950 . S
C2900 C2901 1.386 . S
C2900 C2902 1.391 . S
C2901 C2900 1.386 . S
C2901 C2905 1.393 . S
C2902 H2894 0.950 . S
C2902 C2900 1.391 . S
C2902 C2903 1.400 . S
C2903 C2902 1.400 . S
C2903 C2904 1.398 . S
C2903 C2909 1.491 . S
C2904 H2895 0.950 . S
C2904 C2903 1.398 . S
C2904 C2905 1.391 . S
C2905 H2893 0.950 . S
C2905 C2901 1.393 . S
C2905 C2904 1.391 . S
C2906 H2896 0.950 . S
C2906 C2907 1.386 . S
C2906 C2908 1.391 . S
C2907 C2906 1.386 . S
C2907 C2911 1.393 . S
C2908 H2897 0.950 . S
C2908 C2906 1.391 . S
C2908 C2909 1.400 . S
C2909 C2903 1.491 . S
C2909 C2908 1.400 . S
C2909 C2910 1.398 . S
C2910 H2898 0.950 . S
C2910 C2909 1.398 . S
C2910 C2911 1.391 . S
C2911 H2899 0.950 . S
C2911 C2907 1.393 . S
C2911 C2910 1.391 . S
H2912 C2920 0.950 . S
H2913 C2925 0.950 . S
H2914 C2922 0.950 . S
H2915 C2924 0.950 . S
H2916 C2926 0.950 . S
H2917 C2928 0.950 . S
H2918 C2930 0.950 . S
H2919 C2931 0.950 . S
C2920 H2912 0.950 . S
C2920 C2921 1.386 . S
C2920 C2922 1.391 . S
C2921 C2920 1.386 . S
C2921 C2925 1.393 . S
C2922 H2914 0.950 . S
C2922 C2920 1.391 . S
C2922 C2923 1.400 . S
C2923 C2922 1.400 . S
C2923 C2924 1.398 . S
C2923 C2929 1.491 . S
C2924 H2915 0.950 . S
C2924 C2923 1.398 . S
C2924 C2925 1.391 . S
C2925 H2913 0.950 . S
C2925 C2921 1.393 . S
C2925 C2924 1.391 . S
C2926 H2916 0.950 . S
C2926 C2927 1.386 . S
C2926 C2928 1.391 . S
C2927 C2926 1.386 . S
C2927 C2931 1.393 . S
C2928 H2917 0.950 . S
C2928 C2926 1.391 . S
C2928 C2929 1.400 . S
C2929 C2923 1.491 . S
C2929 C2928 1.400 . S
C2929 C2930 1.398 . S
C2930 H2918 0.950 . S
C2930 C2929 1.398 . S
C2930 C2931 1.391 . S
C2931 H2919 0.950 . S
C2931 C2927 1.393 . S
C2931 C2930 1.391 . S
H2932 C2940 0.950 . S
H2933 C2945 0.950 . S
H2934 C2942 0.950 . S
H2935 C2944 0.950 . S
H2936 C2946 0.950 . S
H2937 C2948 0.950 . S
H2938 C2950 0.950 . S
H2939 C2951 0.950 . S
C2940 H2932 0.950 . S
C2940 C2941 1.386 . S
C2940 C2942 1.391 . S
C2941 C2940 1.386 . S
C2941 C2945 1.393 . S
C2942 H2934 0.950 . S
C2942 C2940 1.391 . S
C2942 C2943 1.400 . S
C2943 C2942 1.400 . S
C2943 C2944 1.398 . S
C2943 C2949 1.491 . S
C2944 H2935 0.950 . S
C2944 C2943 1.398 . S
C2944 C2945 1.391 . S
C2945 H2933 0.950 . S
C2945 C2941 1.393 . S
C2945 C2944 1.391 . S
C2946 H2936 0.950 . S
C2946 C2947 1.386 . S
C2946 C2948 1.391 . S
C2947 C2946 1.386 . S
C2947 C2951 1.393 . S
C2948 H2937 0.950 . S
C2948 C2946 1.391 . S
C2948 C2949 1.400 . S
C2949 C2943 1.491 . S
C2949 C2948 1.400 . S
C2949 C2950 1.398 . S
C2950 H2938 0.950 . S
C2950 C2949 1.398 . S
C2950 C2951 1.391 . S
C2951 H2939 0.950 . S
C2951 C2947 1.393 . S
C2951 C2950 1.391 . S
H2952 C2960 0.950 . S
H2953 C2965 0.950 . S
H2954 C2962 0.950 . S
H2955 C2964 0.950 . S
H2956 C2966 0.950 . S
H2957 C2968 0.950 . S
H2958 C2970 0.950 . S
H2959 C2971 0.950 . S
C2960 H2952 0.950 . S
C2960 C2961 1.386 . S
C2960 C2962 1.391 . S
C2961 C2960 1.386 . S
C2961 C2965 1.393 . S
C2962 H2954 0.950 . S
C2962 C2960 1.391 . S
C2962 C2963 1.400 . S
C2963 C2962 1.400 . S
C2963 C2964 1.398 . S
C2963 C2969 1.491 . S
C2964 H2955 0.950 . S
C2964 C2963 1.398 . S
C2964 C2965 1.391 . S
C2965 H2953 0.950 . S
C2965 C2961 1.393 . S
C2965 C2964 1.391 . S
C2966 H2956 0.950 . S
C2966 C2967 1.386 . S
C2966 C2968 1.391 . S
C2967 C2966 1.386 . S
C2967 C2971 1.393 . S
C2968 H2957 0.950 . S
C2968 C2966 1.391 . S
C2968 C2969 1.400 . S
C2969 C2963 1.491 . S
C2969 C2968 1.400 . S
C2969 C2970 1.398 . S
C2970 H2958 0.950 . S
C2970 C2969 1.398 . S
C2970 C2971 1.391 . S
C2971 H2959 0.950 . S
C2971 C2967 1.393 . S
C2971 C2970 1.391 . S
H2972 C2980 0.950 . S
H2973 C2985 0.950 . S
H2974 C2982 0.950 . S
H2975 C2984 0.950 . S
H2976 C2986 0.950 . S
H2977 C2988 0.950 . S
H2978 C2990 0.950 . S
H2979 C2991 0.950 . S
C2980 H2972 0.950 . S
C2980 C2981 1.386 . S
C2980 C2982 1.391 . S
C2981 C2980 1.386 . S
C2981 C2985 1.393 . S
C2982 H2974 0.950 . S
C2982 C2980 1.391 . S
C2982 C2983 1.400 . S
C2983 C2982 1.400 . S
C2983 C2984 1.398 . S
C2983 C2989 1.491 . S
C2984 H2975 0.950 . S
C2984 C2983 1.398 . S
C2984 C2985 1.391 . S
C2985 H2973 0.950 . S
C2985 C2981 1.393 . S
C2985 C2984 1.391 . S
C2986 H2976 0.950 . S
C2986 C2987 1.386 . S
C2986 C2988 1.391 . S
C2987 C2986 1.386 . S
C2987 C2991 1.393 . S
C2988 H2977 0.950 . S
C2988 C2986 1.391 . S
C2988 C2989 1.400 . S
C2989 C2983 1.491 . S
C2989 C2988 1.400 . S
C2989 C2990 1.398 . S
C2990 H2978 0.950 . S
C2990 C2989 1.398 . S
C2990 C2991 1.391 . S
C2991 H2979 0.950 . S
C2991 C2987 1.393 . S
C2991 C2990 1.391 . S
H2992 C3000 0.950 . S
H2993 C3005 0.950 . S
H2994 C3002 0.950 . S
H2995 C3004 0.950 . S
H2996 C3006 0.950 . S
H2997 C3008 0.950 . S
H2998 C3010 0.950 . S
H2999 C3011 0.950 . S
C3000 H2992 0.950 . S
C3000 C3001 1.386 . S
C3000 C3002 1.391 . S
C3001 C3000 1.386 . S
C3001 C3005 1.393 . S
C3002 H2994 0.950 . S
C3002 C3000 1.391 . S
C3002 C3003 1.400 . S
C3003 C3002 1.400 . S
C3003 C3004 1.398 . S
C3003 C3009 1.491 . S
C3004 H2995 0.950 . S
C3004 C3003 1.398 . S
C3004 C3005 1.391 . S
C3005 H2993 0.950 . S
C3005 C3001 1.393 . S
C3005 C3004 1.391 . S
C3006 H2996 0.950 . S
C3006 C3007 1.386 . S
C3006 C3008 1.391 . S
C3007 C3006 1.386 . S
C3007 C3011 1.393 . S
C3008 H2997 0.950 . S
C3008 C3006 1.391 . S
C3008 C3009 1.400 . S
C3009 C3003 1.491 . S
C3009 C3008 1.400 . S
C3009 C3010 1.398 . S
C3010 H2998 0.950 . S
C3010 C3009 1.398 . S
C3010 C3011 1.391 . S
C3011 H2999 0.950 . S
C3011 C3007 1.393 . S
C3011 C3010 1.391 . S
H3012 C3020 0.950 . S
H3013 C3025 0.950 . S
H3014 C3022 0.950 . S
H3015 C3024 0.950 . S
H3016 C3026 0.950 . S
H3017 C3028 0.950 . S
H3018 C3030 0.950 . S
H3019 C3031 0.950 . S
C3020 H3012 0.950 . S
C3020 C3021 1.386 . S
C3020 C3022 1.391 . S
C3021 C3020 1.386 . S
C3021 C3025 1.393 . S
C3022 H3014 0.950 . S
C3022 C3020 1.391 . S
C3022 C3023 1.400 . S
C3023 C3022 1.400 . S
C3023 C3024 1.398 . S
C3023 C3029 1.491 . S
C3024 H3015 0.950 . S
C3024 C3023 1.398 . S
C3024 C3025 1.391 . S
C3025 H3013 0.950 . S
C3025 C3021 1.393 . S
C3025 C3024 1.391 . S
C3026 H3016 0.950 . S
C3026 C3027 1.386 . S
C3026 C3028 1.391 . S
C3027 C3026 1.386 . S
C3027 C3031 1.393 . S
C3028 H3017 0.950 . S
C3028 C3026 1.391 . S
C3028 C3029 1.400 . S
C3029 C3023 1.491 . S
C3029 C3028 1.400 . S
C3029 C3030 1.398 . S
C3030 H3018 0.950 . S
C3030 C3029 1.398 . S
C3030 C3031 1.391 . S
C3031 H3019 0.950 . S
C3031 C3027 1.393 . S
C3031 C3030 1.391 . S
H3032 C3040 0.950 . S
H3033 C3045 0.950 . S
H3034 C3042 0.950 . S
H3035 C3044 0.950 . S
H3036 C3046 0.950 . S
H3037 C3048 0.950 . S
H3038 C3050 0.950 . S
H3039 C3051 0.950 . S
C3040 H3032 0.950 . S
C3040 C3041 1.386 . S
C3040 C3042 1.391 . S
C3041 C3040 1.386 . S
C3041 C3045 1.393 . S
C3042 H3034 0.950 . S
C3042 C3040 1.391 . S
C3042 C3043 1.400 . S
C3043 C3042 1.400 . S
C3043 C3044 1.398 . S
C3043 C3049 1.491 . S
C3044 H3035 0.950 . S
C3044 C3043 1.398 . S
C3044 C3045 1.391 . S
C3045 H3033 0.950 . S
C3045 C3041 1.393 . S
C3045 C3044 1.391 . S
C3046 H3036 0.950 . S
C3046 C3047 1.386 . S
C3046 C3048 1.391 . S
C3047 C3046 1.386 . S
C3047 C3051 1.393 . S
C3048 H3037 0.950 . S
C3048 C3046 1.391 . S
C3048 C3049 1.400 . S
C3049 C3043 1.491 . S
C3049 C3048 1.400 . S
C3049 C3050 1.398 . S
C3050 H3038 0.950 . S
C3050 C3049 1.398 . S
C3050 C3051 1.391 . S
C3051 H3039 0.950 . S
C3051 C3047 1.393 . S
C3051 C3050 1.391 . S
H3052 C3060 0.950 . S
H3053 C3065 0.950 . S
H3054 C3062 0.950 . S
H3055 C3064 0.950 . S
H3056 C3066 0.950 . S
H3057 C3068 0.950 . S
H3058 C3070 0.950 . S
H3059 C3071 0.950 . S
C3060 H3052 0.950 . S
C3060 C3061 1.386 . S
C3060 C3062 1.391 . S
C3061 C3060 1.386 . S
C3061 C3065 1.393 . S
C3062 H3054 0.950 . S
C3062 C3060 1.391 . S
C3062 C3063 1.400 . S
C3063 C3062 1.400 . S
C3063 C3064 1.398 . S
C3063 C3069 1.491 . S
C3064 H3055 0.950 . S
C3064 C3063 1.398 . S
C3064 C3065 1.391 . S
C3065 H3053 0.950 . S
C3065 C3061 1.393 . S
C3065 C3064 1.391 . S
C3066 H3056 0.950 . S
C3066 C3067 1.386 . S
C3066 C3068 1.391 . S
C3067 C3066 1.386 . S
C3067 C3071 1.393 . S
C3068 H3057 0.950 . S
C3068 C3066 1.391 . S
C3068 C3069 1.400 . S
C3069 C3063 1.491 . S
C3069 C3068 1.400 . S
C3069 C3070 1.398 . S
C3070 H3058 0.950 . S
C3070 C3069 1.398 . S
C3070 C3071 1.391 . S
C3071 H3059 0.950 . S
C3071 C3067 1.393 . S
C3071 C3070 1.391 . S
H3072 C3080 0.950 . S
H3073 C3085 0.950 . S
H3074 C3082 0.950 . S
H3075 C3084 0.950 . S
H3076 C3086 0.950 . S
H3077 C3088 0.950 . S
H3078 C3090 0.950 . S
H3079 C3091 0.950 . S
C3080 H3072 0.950 . S
C3080 C3081 1.386 . S
C3080 C3082 1.391 . S
C3081 C3080 1.386 . S
C3081 C3085 1.393 . S
C3082 H3074 0.950 . S
C3082 C3080 1.391 . S
C3082 C3083 1.400 . S
C3083 C3082 1.400 . S
C3083 C3084 1.398 . S
C3083 C3089 1.491 . S
C3084 H3075 0.950 . S
C3084 C3083 1.398 . S
C3084 C3085 1.391 . S
C3085 H3073 0.950 . S
C3085 C3081 1.393 . S
C3085 C3084 1.391 . S
C3086 H3076 0.950 . S
C3086 C3087 1.386 . S
C3086 C3088 1.391 . S
C3087 C3086 1.386 . S
C3087 C3091 1.393 . S
C3088 H3077 0.950 . S
C3088 C3086 1.391 . S
C3088 C3089 1.400 . S
C3089 C3083 1.491 . S
C3089 C3088 1.400 . S
C3089 C3090 1.398 . S
C3090 H3078 0.950 . S
C3090 C3089 1.398 . S
C3090 C3091 1.391 . S
C3091 H3079 0.950 . S
C3091 C3087 1.393 . S
C3091 C3090 1.391 . S
H3092 C3100 0.950 . S
H3093 C3105 0.950 . S
H3094 C3102 0.950 . S
H3095 C3104 0.950 . S
H3096 C3106 0.950 . S
H3097 C3108 0.950 . S
H3098 C3110 0.950 . S
H3099 C3111 0.950 . S
C3100 H3092 0.950 . S
C3100 C3101 1.386 . S
C3100 C3102 1.391 . S
C3101 C3100 1.386 . S
C3101 C3105 1.393 . S
C3102 H3094 0.950 . S
C3102 C3100 1.391 . S
C3102 C3103 1.400 . S
C3103 C3102 1.400 . S
C3103 C3104 1.398 . S
C3103 C3109 1.491 . S
C3104 H3095 0.950 . S
C3104 C3103 1.398 . S
C3104 C3105 1.391 . S
C3105 H3093 0.950 . S
C3105 C3101 1.393 . S
C3105 C3104 1.391 . S
C3106 H3096 0.950 . S
C3106 C3107 1.386 . S
C3106 C3108 1.391 . S
C3107 C3106 1.386 . S
C3107 C3111 1.393 . S
C3108 H3097 0.950 . S
C3108 C3106 1.391 . S
C3108 C3109 1.400 . S
C3109 C3103 1.491 . S
C3109 C3108 1.400 . S
C3109 C3110 1.398 . S
C3110 H3098 0.950 . S
C3110 C3109 1.398 . S
C3110 C3111 1.391 . S
C3111 H3099 0.950 . S
C3111 C3107 1.393 . S
C3111 C3110 1.391 . S
H3112 C3120 0.950 . S
H3113 C3125 0.950 . S
H3114 C3122 0.950 . S
H3115 C3124 0.950 . S
H3116 C3126 0.950 . S
H3117 C3128 0.950 . S
H3118 C3130 0.950 . S
H3119 C3131 0.950 . S
C3120 H3112 0.950 . S
C3120 C3121 1.386 . S
C3120 C3122 1.391 . S
C3121 C3120 1.386 . S
C3121 C3125 1.393 . S
C3122 H3114 0.950 . S
C3122 C3120 1.391 . S
C3122 C3123 1.400 . S
C3123 C3122 1.400 . S
C3123 C3124 1.398 . S
C3123 C3129 1.491 . S
C3124 H3115 0.950 . S
C3124 C3123 1.398 . S
C3124 C3125 1.391 . S
C3125 H3113 0.950 . S
C3125 C3121 1.393 . S
C3125 C3124 1.391 . S
C3126 H3116 0.950 . S
C3126 C3127 1.386 . S
C3126 C3128 1.391 . S
C3127 C3126 1.386 . S
C3127 C3131 1.393 . S
C3128 H3117 0.950 . S
C3128 C3126 1.391 . S
C3128 C3129 1.400 . S
C3129 C3123 1.491 . S
C3129 C3128 1.400 . S
C3129 C3130 1.398 . S
C3130 H3118 0.950 . S
C3130 C3129 1.398 . S
C3130 C3131 1.391 . S
C3131 H3119 0.950 . S
C3131 C3127 1.393 . S
C3131 C3130 1.391 . S
H3132 C3140 0.950 . S
H3133 C3145 0.950 . S
H3134 C3142 0.950 . S
H3135 C3144 0.950 . S
H3136 C3146 0.950 . S
H3137 C3148 0.950 . S
H3138 C3150 0.950 . S
H3139 C3151 0.950 . S
C3140 H3132 0.950 . S
C3140 C3141 1.386 . S
C3140 C3142 1.391 . S
C3141 C3140 1.386 . S
C3141 C3145 1.393 . S
C3142 H3134 0.950 . S
C3142 C3140 1.391 . S
C3142 C3143 1.400 . S
C3143 C3142 1.400 . S
C3143 C3144 1.398 . S
C3143 C3149 1.491 . S
C3144 H3135 0.950 . S
C3144 C3143 1.398 . S
C3144 C3145 1.391 . S
C3145 H3133 0.950 . S
C3145 C3141 1.393 . S
C3145 C3144 1.391 . S
C3146 H3136 0.950 . S
C3146 C3147 1.386 . S
C3146 C3148 1.391 . S
C3147 C3146 1.386 . S
C3147 C3151 1.393 . S
C3148 H3137 0.950 . S
C3148 C3146 1.391 . S
C3148 C3149 1.400 . S
C3149 C3143 1.491 . S
C3149 C3148 1.400 . S
C3149 C3150 1.398 . S
C3150 H3138 0.950 . S
C3150 C3149 1.398 . S
C3150 C3151 1.391 . S
C3151 H3139 0.950 . S
C3151 C3147 1.393 . S
C3151 C3150 1.391 . S
H3152 C3160 0.950 . S
H3153 C3165 0.950 . S
H3154 C3162 0.950 . S
H3155 C3164 0.950 . S
H3156 C3166 0.950 . S
H3157 C3168 0.950 . S
H3158 C3170 0.950 . S
H3159 C3171 0.950 . S
C3160 H3152 0.950 . S
C3160 C3161 1.386 . S
C3160 C3162 1.391 . S
C3161 C3160 1.386 . S
C3161 C3165 1.393 . S
C3162 H3154 0.950 . S
C3162 C3160 1.391 . S
C3162 C3163 1.400 . S
C3163 C3162 1.400 . S
C3163 C3164 1.398 . S
C3163 C3169 1.491 . S
C3164 H3155 0.950 . S
C3164 C3163 1.398 . S
C3164 C3165 1.391 . S
C3165 H3153 0.950 . S
C3165 C3161 1.393 . S
C3165 C3164 1.391 . S
C3166 H3156 0.950 . S
C3166 C3167 1.386 . S
C3166 C3168 1.391 . S
C3167 C3166 1.386 . S
C3167 C3171 1.393 . S
C3168 H3157 0.950 . S
C3168 C3166 1.391 . S
C3168 C3169 1.400 . S
C3169 C3163 1.491 . S
C3169 C3168 1.400 . S
C3169 C3170 1.398 . S
C3170 H3158 0.950 . S
C3170 C3169 1.398 . S
C3170 C3171 1.391 . S
C3171 H3159 0.950 . S
C3171 C3167 1.393 . S
C3171 C3170 1.391 . S
H3172 C3180 0.950 . S
H3173 C3185 0.950 . S
H3174 C3182 0.950 . S
H3175 C3184 0.950 . S
H3176 C3186 0.950 . S
H3177 C3188 0.950 . S
H3178 C3190 0.950 . S
H3179 C3191 0.950 . S
C3180 H3172 0.950 . S
C3180 C3181 1.386 . S
C3180 C3182 1.391 . S
C3181 C3180 1.386 . S
C3181 C3185 1.393 . S
C3182 H3174 0.950 . S
C3182 C3180 1.391 . S
C3182 C3183 1.400 . S
C3183 C3182 1.400 . S
C3183 C3184 1.398 . S
C3183 C3189 1.491 . S
C3184 H3175 0.950 . S
C3184 C3183 1.398 . S
C3184 C3185 1.391 . S
C3185 H3173 0.950 . S
C3185 C3181 1.393 . S
C3185 C3184 1.391 . S
C3186 H3176 0.950 . S
C3186 C3187 1.386 . S
C3186 C3188 1.391 . S
C3187 C3186 1.386 . S
C3187 C3191 1.393 . S
C3188 H3177 0.950 . S
C3188 C3186 1.391 . S
C3188 C3189 1.400 . S
C3189 C3183 1.491 . S
C3189 C3188 1.400 . S
C3189 C3190 1.398 . S
C3190 H3178 0.950 . S
C3190 C3189 1.398 . S
C3190 C3191 1.391 . S
C3191 H3179 0.950 . S
C3191 C3187 1.393 . S
C3191 C3190 1.391 . S
H3192 C3200 0.950 . S
H3193 C3205 0.950 . S
H3194 C3202 0.950 . S
H3195 C3204 0.950 . S
H3196 C3206 0.950 . S
H3197 C3208 0.950 . S
H3198 C3210 0.950 . S
H3199 C3211 0.950 . S
C3200 H3192 0.950 . S
C3200 C3201 1.386 . S
C3200 C3202 1.391 . S
C3201 C3200 1.386 . S
C3201 C3205 1.393 . S
C3202 H3194 0.950 . S
C3202 C3200 1.391 . S
C3202 C3203 1.400 . S
C3203 C3202 1.400 . S
C3203 C3204 1.398 . S
C3203 C3209 1.491 . S
C3204 H3195 0.950 . S
C3204 C3203 1.398 . S
C3204 C3205 1.391 . S
C3205 H3193 0.950 . S
C3205 C3201 1.393 . S
C3205 C3204 1.391 . S
C3206 H3196 0.950 . S
C3206 C3207 1.386 . S
C3206 C3208 1.391 . S
C3207 C3206 1.386 . S
C3207 C3211 1.393 . S
C3208 H3197 0.950 . S
C3208 C3206 1.391 . S
C3208 C3209 1.400 . S
C3209 C3203 1.491 . S
C3209 C3208 1.400 . S
C3209 C3210 1.398 . S
C3210 H3198 0.950 . S
C3210 C3209 1.398 . S
C3210 C3211 1.391 . S
C3211 H3199 0.950 . S
C3211 C3207 1.393 . S
C3211 C3210 1.391 . S
H3212 C3220 0.950 . S
H3213 C3225 0.950 . S
H3214 C3222 0.950 . S
H3215 C3224 0.950 . S
H3216 C3226 0.950 . S
H3217 C3228 0.950 . S
H3218 C3230 0.950 . S
H3219 C3231 0.950 . S
C3220 H3212 0.950 . S
C3220 C3221 1.386 . S
C3220 C3222 1.391 . S
C3221 C3220 1.386 . S
C3221 C3225 1.393 . S
C3222 H3214 0.950 . S
C3222 C3220 1.391 . S
C3222 C3223 1.400 . S
C3223 C3222 1.400 . S
C3223 C3224 1.398 . S
C3223 C3229 1.491 . S
C3224 H3215 0.950 . S
C3224 C3223 1.398 . S
C3224 C3225 1.391 . S
C3225 H3213 0.950 . S
C3225 C3221 1.393 . S
C3225 C3224 1.391 . S
C3226 H3216 0.950 . S
C3226 C3227 1.386 . S
C3226 C3228 1.391 . S
C3227 C3226 1.386 . S
C3227 C3231 1.393 . S
C3228 H3217 0.950 . S
C3228 C3226 1.391 . S
C3228 C3229 1.400 . S
C3229 C3223 1.491 . S
C3229 C3228 1.400 . S
C3229 C3230 1.398 . S
C3230 H3218 0.950 . S
C3230 C3229 1.398 . S
C3230 C3231 1.391 . S
C3231 H3219 0.950 . S
C3231 C3227 1.393 . S
C3231 C3230 1.391 . S
H3232 C3240 0.950 . S
H3233 C3245 0.950 . S
H3234 C3242 0.950 . S
H3235 C3244 0.950 . S
H3236 C3246 0.950 . S
H3237 C3248 0.950 . S
H3238 C3250 0.950 . S
H3239 C3251 0.950 . S
C3240 H3232 0.950 . S
C3240 C3241 1.386 . S
C3240 C3242 1.391 . S
C3241 C3240 1.386 . S
C3241 C3245 1.393 . S
C3242 H3234 0.950 . S
C3242 C3240 1.391 . S
C3242 C3243 1.400 . S
C3243 C3242 1.400 . S
C3243 C3244 1.398 . S
C3243 C3249 1.491 . S
C3244 H3235 0.950 . S
C3244 C3243 1.398 . S
C3244 C3245 1.391 . S
C3245 H3233 0.950 . S
C3245 C3241 1.393 . S
C3245 C3244 1.391 . S
C3246 H3236 0.950 . S
C3246 C3247 1.386 . S
C3246 C3248 1.391 . S
C3247 C3246 1.386 . S
C3247 C3251 1.393 . S
C3248 H3237 0.950 . S
C3248 C3246 1.391 . S
C3248 C3249 1.400 . S
C3249 C3243 1.491 . S
C3249 C3248 1.400 . S
C3249 C3250 1.398 . S
C3250 H3238 0.950 . S
C3250 C3249 1.398 . S
C3250 C3251 1.391 . S
C3251 H3239 0.950 . S
C3251 C3247 1.393 . S
C3251 C3250 1.391 . S
H3252 C3260 0.950 . S
H3253 C3265 0.950 . S
H3254 C3262 0.950 . S
H3255 C3264 0.950 . S
H3256 C3266 0.950 . S
H3257 C3268 0.950 . S
H3258 C3270 0.950 . S
H3259 C3271 0.950 . S
C3260 H3252 0.950 . S
C3260 C3261 1.386 . S
C3260 C3262 1.391 . S
C3261 C3260 1.386 . S
C3261 C3265 1.393 . S
C3262 H3254 0.950 . S
C3262 C3260 1.391 . S
C3262 C3263 1.400 . S
C3263 C3262 1.400 . S
C3263 C3264 1.398 . S
C3263 C3269 1.491 . S
C3264 H3255 0.950 . S
C3264 C3263 1.398 . S
C3264 C3265 1.391 . S
C3265 H3253 0.950 . S
C3265 C3261 1.393 . S
C3265 C3264 1.391 . S
C3266 H3256 0.950 . S
C3266 C3267 1.386 . S
C3266 C3268 1.391 . S
C3267 C3266 1.386 . S
C3267 C3271 1.393 . S
C3268 H3257 0.950 . S
C3268 C3266 1.391 . S
C3268 C3269 1.400 . S
C3269 C3263 1.491 . S
C3269 C3268 1.400 . S
C3269 C3270 1.398 . S
C3270 H3258 0.950 . S
C3270 C3269 1.398 . S
C3270 C3271 1.391 . S
C3271 H3259 0.950 . S
C3271 C3267 1.393 . S
C3271 C3270 1.391 . S
H3272 C3280 0.950 . S
H3273 C3285 0.950 . S
H3274 C3282 0.950 . S
H3275 C3284 0.950 . S
H3276 C3286 0.950 . S
H3277 C3288 0.950 . S
H3278 C3290 0.950 . S
H3279 C3291 0.950 . S
C3280 H3272 0.950 . S
C3280 C3281 1.386 . S
C3280 C3282 1.391 . S
C3281 C3280 1.386 . S
C3281 C3285 1.393 . S
C3282 H3274 0.950 . S
C3282 C3280 1.391 . S
C3282 C3283 1.400 . S
C3283 C3282 1.400 . S
C3283 C3284 1.398 . S
C3283 C3289 1.491 . S
C3284 H3275 0.950 . S
C3284 C3283 1.398 . S
C3284 C3285 1.391 . S
C3285 H3273 0.950 . S
C3285 C3281 1.393 . S
C3285 C3284 1.391 . S
C3286 H3276 0.950 . S
C3286 C3287 1.386 . S
C3286 C3288 1.391 . S
C3287 C3286 1.386 . S
C3287 C3291 1.393 . S
C3288 H3277 0.950 . S
C3288 C3286 1.391 . S
C3288 C3289 1.400 . S
C3289 C3283 1.491 . S
C3289 C3288 1.400 . S
C3289 C3290 1.398 . S
C3290 H3278 0.950 . S
C3290 C3289 1.398 . S
C3290 C3291 1.391 . S
C3291 H3279 0.950 . S
C3291 C3287 1.393 . S
C3291 C3290 1.391 . S
H3292 C3300 0.950 . S
H3293 C3305 0.950 . S
H3294 C3302 0.950 . S
H3295 C3304 0.950 . S
H3296 C3306 0.950 . S
H3297 C3308 0.950 . S
H3298 C3310 0.950 . S
H3299 C3311 0.950 . S
C3300 H3292 0.950 . S
C3300 C3301 1.386 . S
C3300 C3302 1.391 . S
C3301 C3300 1.386 . S
C3301 C3305 1.393 . S
C3302 H3294 0.950 . S
C3302 C3300 1.391 . S
C3302 C3303 1.400 . S
C3303 C3302 1.400 . S
C3303 C3304 1.398 . S
C3303 C3309 1.491 . S
C3304 H3295 0.950 . S
C3304 C3303 1.398 . S
C3304 C3305 1.391 . S
C3305 H3293 0.950 . S
C3305 C3301 1.393 . S
C3305 C3304 1.391 . S
C3306 H3296 0.950 . S
C3306 C3307 1.386 . S
C3306 C3308 1.391 . S
C3307 C3306 1.386 . S
C3307 C3311 1.393 . S
C3308 H3297 0.950 . S
C3308 C3306 1.391 . S
C3308 C3309 1.400 . S
C3309 C3303 1.491 . S
C3309 C3308 1.400 . S
C3309 C3310 1.398 . S
C3310 H3298 0.950 . S
C3310 C3309 1.398 . S
C3310 C3311 1.391 . S
C3311 H3299 0.950 . S
C3311 C3307 1.393 . S
C3311 C3310 1.391 . S
H3312 C3320 0.950 . S
H3313 C3325 0.950 . S
H3314 C3322 0.950 . S
H3315 C3324 0.950 . S
H3316 C3326 0.950 . S
H3317 C3328 0.950 . S
H3318 C3330 0.950 . S
H3319 C3331 0.950 . S
C3320 H3312 0.950 . S
C3320 C3321 1.386 . S
C3320 C3322 1.391 . S
C3321 C3320 1.386 . S
C3321 C3325 1.393 . S
C3322 H3314 0.950 . S
C3322 C3320 1.391 . S
C3322 C3323 1.400 . S
C3323 C3322 1.400 . S
C3323 C3324 1.398 . S
C3323 C3329 1.491 . S
C3324 H3315 0.950 . S
C3324 C3323 1.398 . S
C3324 C3325 1.391 . S
C3325 H3313 0.950 . S
C3325 C3321 1.393 . S
C3325 C3324 1.391 . S
C3326 H3316 0.950 . S
C3326 C3327 1.386 . S
C3326 C3328 1.391 . S
C3327 C3326 1.386 . S
C3327 C3331 1.393 . S
C3328 H3317 0.950 . S
C3328 C3326 1.391 . S
C3328 C3329 1.400 . S
C3329 C3323 1.491 . S
C3329 C3328 1.400 . S
C3329 C3330 1.398 . S
C3330 H3318 0.950 . S
C3330 C3329 1.398 . S
C3330 C3331 1.391 . S
C3331 H3319 0.950 . S
C3331 C3327 1.393 . S
C3331 C3330 1.391 . S
H3332 C3340 0.950 . S
H3333 C3345 0.950 . S
H3334 C3342 0.950 . S
H3335 C3344 0.950 . S
H3336 C3346 0.950 . S
H3337 C3348 0.950 . S
H3338 C3350 0.950 . S
H3339 C3351 0.950 . S
C3340 H3332 0.950 . S
C3340 C3341 1.386 . S
C3340 C3342 1.391 . S
C3341 C3340 1.386 . S
C3341 C3345 1.393 . S
C3342 H3334 0.950 . S
C3342 C3340 1.391 . S
C3342 C3343 1.400 . S
C3343 C3342 1.400 . S
C3343 C3344 1.398 . S
C3343 C3349 1.491 . S
C3344 H3335 0.950 . S
C3344 C3343 1.398 . S
C3344 C3345 1.391 . S
C3345 H3333 0.950 . S
C3345 C3341 1.393 . S
C3345 C3344 1.391 . S
C3346 H3336 0.950 . S
C3346 C3347 1.386 . S
C3346 C3348 1.391 . S
C3347 C3346 1.386 . S
C3347 C3351 1.393 . S
C3348 H3337 0.950 . S
C3348 C3346 1.391 . S
C3348 C3349 1.400 . S
C3349 C3343 1.491 . S
C3349 C3348 1.400 . S
C3349 C3350 1.398 . S
C3350 H3338 0.950 . S
C3350 C3349 1.398 . S
C3350 C3351 1.391 . S
C3351 H3339 0.950 . S
C3351 C3347 1.393 . S
C3351 C3350 1.391 . S
H3352 C3360 0.950 . S
H3353 C3365 0.950 . S
H3354 C3362 0.950 . S
H3355 C3364 0.950 . S
H3356 C3366 0.950 . S
H3357 C3368 0.950 . S
H3358 C3370 0.950 . S
H3359 C3371 0.950 . S
C3360 H3352 0.950 . S
C3360 C3361 1.386 . S
C3360 C3362 1.391 . S
C3361 C3360 1.386 . S
C3361 C3365 1.393 . S
C3362 H3354 0.950 . S
C3362 C3360 1.391 . S
C3362 C3363 1.400 . S
C3363 C3362 1.400 . S
C3363 C3364 1.398 . S
C3363 C3369 1.491 . S
C3364 H3355 0.950 . S
C3364 C3363 1.398 . S
C3364 C3365 1.391 . S
C3365 H3353 0.950 . S
C3365 C3361 1.393 . S
C3365 C3364 1.391 . S
C3366 H3356 0.950 . S
C3366 C3367 1.386 . S
C3366 C3368 1.391 . S
C3367 C3366 1.386 . S
C3367 C3371 1.393 . S
C3368 H3357 0.950 . S
C3368 C3366 1.391 . S
C3368 C3369 1.400 . S
C3369 C3363 1.491 . S
C3369 C3368 1.400 . S
C3369 C3370 1.398 . S
C3370 H3358 0.950 . S
C3370 C3369 1.398 . S
C3370 C3371 1.391 . S
C3371 H3359 0.950 . S
C3371 C3367 1.393 . S
C3371 C3370 1.391 . S
H3372 C3380 0.950 . S
H3373 C3385 0.950 . S
H3374 C3382 0.950 . S
H3375 C3384 0.950 . S
H3376 C3386 0.950 . S
H3377 C3388 0.950 . S
H3378 C3390 0.950 . S
H3379 C3391 0.950 . S
C3380 H3372 0.950 . S
C3380 C3381 1.386 . S
C3380 C3382 1.391 . S
C3381 C3380 1.386 . S
C3381 C3385 1.393 . S
C3382 H3374 0.950 . S
C3382 C3380 1.391 . S
C3382 C3383 1.400 . S
C3383 C3382 1.400 . S
C3383 C3384 1.398 . S
C3383 C3389 1.491 . S
C3384 H3375 0.950 . S
C3384 C3383 1.398 . S
C3384 C3385 1.391 . S
C3385 H3373 0.950 . S
C3385 C3381 1.393 . S
C3385 C3384 1.391 . S
C3386 H3376 0.950 . S
C3386 C3387 1.386 . S
C3386 C3388 1.391 . S
C3387 C3386 1.386 . S
C3387 C3391 1.393 . S
C3388 H3377 0.950 . S
C3388 C3386 1.391 . S
C3388 C3389 1.400 . S
C3389 C3383 1.491 . S
C3389 C3388 1.400 . S
C3389 C3390 1.398 . S
C3390 H3378 0.950 . S
C3390 C3389 1.398 . S
C3390 C3391 1.391 . S
C3391 H3379 0.950 . S
C3391 C3387 1.393 . S
C3391 C3390 1.391 . S
H3392 C3400 0.950 . S
H3393 C3405 0.950 . S
H3394 C3402 0.950 . S
H3395 C3404 0.950 . S
H3396 C3406 0.950 . S
H3397 C3408 0.950 . S
H3398 C3410 0.950 . S
H3399 C3411 0.950 . S
C3400 H3392 0.950 . S
C3400 C3401 1.386 . S
C3400 C3402 1.391 . S
C3401 C3400 1.386 . S
C3401 C3405 1.393 . S
C3402 H3394 0.950 . S
C3402 C3400 1.391 . S
C3402 C3403 1.400 . S
C3403 C3402 1.400 . S
C3403 C3404 1.398 . S
C3403 C3409 1.491 . S
C3404 H3395 0.950 . S
C3404 C3403 1.398 . S
C3404 C3405 1.391 . S
C3405 H3393 0.950 . S
C3405 C3401 1.393 . S
C3405 C3404 1.391 . S
C3406 H3396 0.950 . S
C3406 C3407 1.386 . S
C3406 C3408 1.391 . S
C3407 C3406 1.386 . S
C3407 C3411 1.393 . S
C3408 H3397 0.950 . S
C3408 C3406 1.391 . S
C3408 C3409 1.400 . S
C3409 C3403 1.491 . S
C3409 C3408 1.400 . S
C3409 C3410 1.398 . S
C3410 H3398 0.950 . S
C3410 C3409 1.398 . S
C3410 C3411 1.391 . S
C3411 H3399 0.950 . S
C3411 C3407 1.393 . S
C3411 C3410 1.391 . S
H3412 C3420 0.950 . S
H3413 C3425 0.950 . S
H3414 C3422 0.950 . S
H3415 C3424 0.950 . S
H3416 C3426 0.950 . S
H3417 C3428 0.950 . S
H3418 C3430 0.950 . S
H3419 C3431 0.950 . S
C3420 H3412 0.950 . S
C3420 C3421 1.386 . S
C3420 C3422 1.391 . S
C3421 C3420 1.386 . S
C3421 C3425 1.393 . S
C3422 H3414 0.950 . S
C3422 C3420 1.391 . S
C3422 C3423 1.400 . S
C3423 C3422 1.400 . S
C3423 C3424 1.398 . S
C3423 C3429 1.491 . S
C3424 H3415 0.950 . S
C3424 C3423 1.398 . S
C3424 C3425 1.391 . S
C3425 H3413 0.950 . S
C3425 C3421 1.393 . S
C3425 C3424 1.391 . S
C3426 H3416 0.950 . S
C3426 C3427 1.386 . S
C3426 C3428 1.391 . S
C3427 C3426 1.386 . S
C3427 C3431 1.393 . S
C3428 H3417 0.950 . S
C3428 C3426 1.391 . S
C3428 C3429 1.400 . S
C3429 C3423 1.491 . S
C3429 C3428 1.400 . S
C3429 C3430 1.398 . S
C3430 H3418 0.950 . S
C3430 C3429 1.398 . S
C3430 C3431 1.391 . S
C3431 H3419 0.950 . S
C3431 C3427 1.393 . S
C3431 C3430 1.391 . S
H3432 C3440 0.950 . S
H3433 C3445 0.950 . S
H3434 C3442 0.950 . S
H3435 C3444 0.950 . S
H3436 C3446 0.950 . S
H3437 C3448 0.950 . S
H3438 C3450 0.950 . S
H3439 C3451 0.950 . S
C3440 H3432 0.950 . S
C3440 C3441 1.386 . S
C3440 C3442 1.391 . S
C3441 C3440 1.386 . S
C3441 C3445 1.393 . S
C3442 H3434 0.950 . S
C3442 C3440 1.391 . S
C3442 C3443 1.400 . S
C3443 C3442 1.400 . S
C3443 C3444 1.398 . S
C3443 C3449 1.491 . S
C3444 H3435 0.950 . S
C3444 C3443 1.398 . S
C3444 C3445 1.391 . S
C3445 H3433 0.950 . S
C3445 C3441 1.393 . S
C3445 C3444 1.391 . S
C3446 H3436 0.950 . S
C3446 C3447 1.386 . S
C3446 C3448 1.391 . S
C3447 C3446 1.386 . S
C3447 C3451 1.393 . S
C3448 H3437 0.950 . S
C3448 C3446 1.391 . S
C3448 C3449 1.400 . S
C3449 C3443 1.491 . S
C3449 C3448 1.400 . S
C3449 C3450 1.398 . S
C3450 H3438 0.950 . S
C3450 C3449 1.398 . S
C3450 C3451 1.391 . S
C3451 H3439 0.950 . S
C3451 C3447 1.393 . S
C3451 C3450 1.391 . S
H3452 C3460 0.950 . S
H3453 C3465 0.950 . S
H3454 C3462 0.950 . S
H3455 C3464 0.950 . S
H3456 C3466 0.950 . S
H3457 C3468 0.950 . S
H3458 C3470 0.950 . S
H3459 C3471 0.950 . S
C3460 H3452 0.950 . S
C3460 C3461 1.386 . S
C3460 C3462 1.391 . S
C3461 C3460 1.386 . S
C3461 C3465 1.393 . S
C3462 H3454 0.950 . S
C3462 C3460 1.391 . S
C3462 C3463 1.400 . S
C3463 C3462 1.400 . S
C3463 C3464 1.398 . S
C3463 C3469 1.491 . S
C3464 H3455 0.950 . S
C3464 C3463 1.398 . S
C3464 C3465 1.391 . S
C3465 H3453 0.950 . S
C3465 C3461 1.393 . S
C3465 C3464 1.391 . S
C3466 H3456 0.950 . S
C3466 C3467 1.386 . S
C3466 C3468 1.391 . S
C3467 C3466 1.386 . S
C3467 C3471 1.393 . S
C3468 H3457 0.950 . S
C3468 C3466 1.391 . S
C3468 C3469 1.400 . S
C3469 C3463 1.491 . S
C3469 C3468 1.400 . S
C3469 C3470 1.398 . S
C3470 H3458 0.950 . S
C3470 C3469 1.398 . S
C3470 C3471 1.391 . S
C3471 H3459 0.950 . S
C3471 C3467 1.393 . S
C3471 C3470 1.391 . S
H3472 C3480 0.950 . S
H3473 C3485 0.950 . S
H3474 C3482 0.950 . S
H3475 C3484 0.950 . S
H3476 C3486 0.950 . S
H3477 C3488 0.950 . S
H3478 C3490 0.950 . S
H3479 C3491 0.950 . S
C3480 H3472 0.950 . S
C3480 C3481 1.386 . S
C3480 C3482 1.391 . S
C3481 C3480 1.386 . S
C3481 C3485 1.393 . S
C3482 H3474 0.950 . S
C3482 C3480 1.391 . S
C3482 C3483 1.400 . S
C3483 C3482 1.400 . S
C3483 C3484 1.398 . S
C3483 C3489 1.491 . S
C3484 H3475 0.950 . S
C3484 C3483 1.398 . S
C3484 C3485 1.391 . S
C3485 H3473 0.950 . S
C3485 C3481 1.393 . S
C3485 C3484 1.391 . S
C3486 H3476 0.950 . S
C3486 C3487 1.386 . S
C3486 C3488 1.391 . S
C3487 C3486 1.386 . S
C3487 C3491 1.393 . S
C3488 H3477 0.950 . S
C3488 C3486 1.391 . S
C3488 C3489 1.400 . S
C3489 C3483 1.491 . S
C3489 C3488 1.400 . S
C3489 C3490 1.398 . S
C3490 H3478 0.950 . S
C3490 C3489 1.398 . S
C3490 C3491 1.391 . S
C3491 H3479 0.950 . S
C3491 C3487 1.393 . S
C3491 C3490 1.391 . S
H3492 C3500 0.950 . S
H3493 C3505 0.950 . S
H3494 C3502 0.950 . S
H3495 C3504 0.950 . S
H3496 C3506 0.950 . S
H3497 C3508 0.950 . S
H3498 C3510 0.950 . S
H3499 C3511 0.950 . S
C3500 H3492 0.950 . S
C3500 C3501 1.386 . S
C3500 C3502 1.391 . S
C3501 C3500 1.386 . S
C3501 C3505 1.393 . S
C3502 H3494 0.950 . S
C3502 C3500 1.391 . S
C3502 C3503 1.400 . S
C3503 C3502 1.400 . S
C3503 C3504 1.398 . S
C3503 C3509 1.491 . S
C3504 H3495 0.950 . S
C3504 C3503 1.398 . S
C3504 C3505 1.391 . S
C3505 H3493 0.950 . S
C3505 C3501 1.393 . S
C3505 C3504 1.391 . S
C3506 H3496 0.950 . S
C3506 C3507 1.386 . S
C3506 C3508 1.391 . S
C3507 C3506 1.386 . S
C3507 C3511 1.393 . S
C3508 H3497 0.950 . S
C3508 C3506 1.391 . S
C3508 C3509 1.400 . S
C3509 C3503 1.491 . S
C3509 C3508 1.400 . S
C3509 C3510 1.398 . S
C3510 H3498 0.950 . S
C3510 C3509 1.398 . S
C3510 C3511 1.391 . S
C3511 H3499 0.950 . S
C3511 C3507 1.393 . S
C3511 C3510 1.391 . S
H3512 C3520 0.950 . S
H3513 C3525 0.950 . S
H3514 C3522 0.950 . S
H3515 C3524 0.950 . S
H3516 C3526 0.950 . S
H3517 C3528 0.950 . S
H3518 C3530 0.950 . S
H3519 C3531 0.950 . S
C3520 H3512 0.950 . S
C3520 C3521 1.386 . S
C3520 C3522 1.391 . S
C3521 C3520 1.386 . S
C3521 C3525 1.393 . S
C3522 H3514 0.950 . S
C3522 C3520 1.391 . S
C3522 C3523 1.400 . S
C3523 C3522 1.400 . S
C3523 C3524 1.398 . S
C3523 C3529 1.491 . S
C3524 H3515 0.950 . S
C3524 C3523 1.398 . S
C3524 C3525 1.391 . S
C3525 H3513 0.950 . S
C3525 C3521 1.393 . S
C3525 C3524 1.391 . S
C3526 H3516 0.950 . S
C3526 C3527 1.386 . S
C3526 C3528 1.391 . S
C3527 C3526 1.386 . S
C3527 C3531 1.393 . S
C3528 H3517 0.950 . S
C3528 C3526 1.391 . S
C3528 C3529 1.400 . S
C3529 C3523 1.491 . S
C3529 C3528 1.400 . S
C3529 C3530 1.398 . S
C3530 H3518 0.950 . S
C3530 C3529 1.398 . S
C3530 C3531 1.391 . S
C3531 H3519 0.950 . S
C3531 C3527 1.393 . S
C3531 C3530 1.391 . S
H3532 C3540 0.950 . S
H3533 C3545 0.950 . S
H3534 C3542 0.950 . S
H3535 C3544 0.950 . S
H3536 C3546 0.950 . S
H3537 C3548 0.950 . S
H3538 C3550 0.950 . S
H3539 C3551 0.950 . S
C3540 H3532 0.950 . S
C3540 C3541 1.386 . S
C3540 C3542 1.391 . S
C3541 C3540 1.386 . S
C3541 C3545 1.393 . S
C3542 H3534 0.950 . S
C3542 C3540 1.391 . S
C3542 C3543 1.400 . S
C3543 C3542 1.400 . S
C3543 C3544 1.398 . S
C3543 C3549 1.491 . S
C3544 H3535 0.950 . S
C3544 C3543 1.398 . S
C3544 C3545 1.391 . S
C3545 H3533 0.950 . S
C3545 C3541 1.393 . S
C3545 C3544 1.391 . S
C3546 H3536 0.950 . S
C3546 C3547 1.386 . S
C3546 C3548 1.391 . S
C3547 C3546 1.386 . S
C3547 C3551 1.393 . S
C3548 H3537 0.950 . S
C3548 C3546 1.391 . S
C3548 C3549 1.400 . S
C3549 C3543 1.491 . S
C3549 C3548 1.400 . S
C3549 C3550 1.398 . S
C3550 H3538 0.950 . S
C3550 C3549 1.398 . S
C3550 C3551 1.391 . S
C3551 H3539 0.950 . S
C3551 C3547 1.393 . S
C3551 C3550 1.391 . S
H3552 C3560 0.950 . S
H3553 C3565 0.950 . S
H3554 C3562 0.950 . S
H3555 C3564 0.950 . S
H3556 C3566 0.950 . S
H3557 C3568 0.950 . S
H3558 C3570 0.950 . S
H3559 C3571 0.950 . S
C3560 H3552 0.950 . S
C3560 C3561 1.386 . S
C3560 C3562 1.391 . S
C3561 C3560 1.386 . S
C3561 C3565 1.393 . S
C3562 H3554 0.950 . S
C3562 C3560 1.391 . S
C3562 C3563 1.400 . S
C3563 C3562 1.400 . S
C3563 C3564 1.398 . S
C3563 C3569 1.491 . S
C3564 H3555 0.950 . S
C3564 C3563 1.398 . S
C3564 C3565 1.391 . S
C3565 H3553 0.950 . S
C3565 C3561 1.393 . S
C3565 C3564 1.391 . S
C3566 H3556 0.950 . S
C3566 C3567 1.386 . S
C3566 C3568 1.391 . S
C3567 C3566 1.386 . S
C3567 C3571 1.393 . S
C3568 H3557 0.950 . S
C3568 C3566 1.391 . S
C3568 C3569 1.400 . S
C3569 C3563 1.491 . S
C3569 C3568 1.400 . S
C3569 C3570 1.398 . S
C3570 H3558 0.950 . S
C3570 C3569 1.398 . S
C3570 C3571 1.391 . S
C3571 H3559 0.950 . S
C3571 C3567 1.393 . S
C3571 C3570 1.391 . S
H3572 C3580 0.950 . S
H3573 C3585 0.950 . S
H3574 C3582 0.950 . S
H3575 C3584 0.950 . S
H3576 C3586 0.950 . S
H3577 C3588 0.950 . S
H3578 C3590 0.950 . S
H3579 C3591 0.950 . S
C3580 H3572 0.950 . S
C3580 C3581 1.386 . S
C3580 C3582 1.391 . S
C3581 C3580 1.386 . S
C3581 C3585 1.393 . S
C3582 H3574 0.950 . S
C3582 C3580 1.391 . S
C3582 C3583 1.400 . S
C3583 C3582 1.400 . S
C3583 C3584 1.398 . S
C3583 C3589 1.491 . S
C3584 H3575 0.950 . S
C3584 C3583 1.398 . S
C3584 C3585 1.391 . S
C3585 H3573 0.950 . S
C3585 C3581 1.393 . S
C3585 C3584 1.391 . S
C3586 H3576 0.950 . S
C3586 C3587 1.386 . S
C3586 C3588 1.391 . S
C3587 C3586 1.386 . S
C3587 C3591 1.393 . S
C3588 H3577 0.950 . S
C3588 C3586 1.391 . S
C3588 C3589 1.400 . S
C3589 C3583 1.491 . S
C3589 C3588 1.400 . S
C3589 C3590 1.398 . S
C3590 H3578 0.950 . S
C3590 C3589 1.398 . S
C3590 C3591 1.391 . S
C3591 H3579 0.950 . S
C3591 C3587 1.393 . S
C3591 C3590 1.391 . S
H3592 C3600 0.950 . S
H3593 C3605 0.950 . S
H3594 C3602 0.950 . S
H3595 C3604 0.950 . S
H3596 C3606 0.950 . S
H3597 C3608 0.950 . S
H3598 C3610 0.950 . S
H3599 C3611 0.950 . S
C3600 H3592 0.950 . S
C3600 C3601 1.386 . S
C3600 C3602 1.391 . S
C3601 C3600 1.386 . S
C3601 C3605 1.393 . S
C3602 H3594 0.950 . S
C3602 C3600 1.391 . S
C3602 C3603 1.400 . S
C3603 C3602 1.400 . S
C3603 C3604 1.398 . S
C3603 C3609 1.491 . S
C3604 H3595 0.950 . S
C3604 C3603 1.398 . S
C3604 C3605 1.391 . S
C3605 H3593 0.950 . S
C3605 C3601 1.393 . S
C3605 C3604 1.391 . S
C3606 H3596 0.950 . S
C3606 C3607 1.386 . S
C3606 C3608 1.391 . S
C3607 C3606 1.386 . S
C3607 C3611 1.393 . S
C3608 H3597 0.950 . S
C3608 C3606 1.391 . S
C3608 C3609 1.400 . S
C3609 C3603 1.491 . S
C3609 C3608 1.400 . S
C3609 C3610 1.398 . S
C3610 H3598 0.950 . S
C3610 C3609 1.398 . S
C3610 C3611 1.391 . S
C3611 H3599 0.950 . S
C3611 C3607 1.393 . S
C3611 C3610 1.391 . S
H3612 C3620 0.950 . S
H3613 C3625 0.950 . S
H3614 C3622 0.950 . S
H3615 C3624 0.950 . S
H3616 C3626 0.950 . S
H3617 C3628 0.950 . S
H3618 C3630 0.950 . S
H3619 C3631 0.950 . S
C3620 H3612 0.950 . S
C3620 C3621 1.386 . S
C3620 C3622 1.391 . S
C3621 C3620 1.386 . S
C3621 C3625 1.393 . S
C3622 H3614 0.950 . S
C3622 C3620 1.391 . S
C3622 C3623 1.400 . S
C3623 C3622 1.400 . S
C3623 C3624 1.398 . S
C3623 C3629 1.491 . S
C3624 H3615 0.950 . S
C3624 C3623 1.398 . S
C3624 C3625 1.391 . S
C3625 H3613 0.950 . S
C3625 C3621 1.393 . S
C3625 C3624 1.391 . S
C3626 H3616 0.950 . S
C3626 C3627 1.386 . S
C3626 C3628 1.391 . S
C3627 C3626 1.386 . S
C3627 C3631 1.393 . S
C3628 H3617 0.950 . S
C3628 C3626 1.391 . S
C3628 C3629 1.400 . S
C3629 C3623 1.491 . S
C3629 C3628 1.400 . S
C3629 C3630 1.398 . S
C3630 H3618 0.950 . S
C3630 C3629 1.398 . S
C3630 C3631 1.391 . S
C3631 H3619 0.950 . S
C3631 C3627 1.393 . S
C3631 C3630 1.391 . S
H3632 C3640 0.950 . S
H3633 C3645 0.950 . S
H3634 C3642 0.950 . S
H3635 C3644 0.950 . S
H3636 C3646 0.950 . S
H3637 C3648 0.950 . S
H3638 C3650 0.950 . S
H3639 C3651 0.950 . S
C3640 H3632 0.950 . S
C3640 C3641 1.386 . S
C3640 C3642 1.391 . S
C3641 C3640 1.386 . S
C3641 C3645 1.393 . S
C3642 H3634 0.950 . S
C3642 C3640 1.391 . S
C3642 C3643 1.400 . S
C3643 C3642 1.400 . S
C3643 C3644 1.398 . S
C3643 C3649 1.491 . S
C3644 H3635 0.950 . S
C3644 C3643 1.398 . S
C3644 C3645 1.391 . S
C3645 H3633 0.950 . S
C3645 C3641 1.393 . S
C3645 C3644 1.391 . S
C3646 H3636 0.950 . S
C3646 C3647 1.386 . S
C3646 C3648 1.391 . S
C3647 C3646 1.386 . S
C3647 C3651 1.393 . S
C3648 H3637 0.950 . S
C3648 C3646 1.391 . S
C3648 C3649 1.400 . S
C3649 C3643 1.491 . S
C3649 C3648 1.400 . S
C3649 C3650 1.398 . S
C3650 H3638 0.950 . S
C3650 C3649 1.398 . S
C3650 C3651 1.391 . S
C3651 H3639 0.950 . S
C3651 C3647 1.393 . S
C3651 C3650 1.391 . S
H3652 C3660 0.950 . S
H3653 C3665 0.950 . S
H3654 C3662 0.950 . S
H3655 C3664 0.950 . S
H3656 C3666 0.950 . S
H3657 C3668 0.950 . S
H3658 C3670 0.950 . S
H3659 C3671 0.950 . S
C3660 H3652 0.950 . S
C3660 C3661 1.386 . S
C3660 C3662 1.391 . S
C3661 C3660 1.386 . S
C3661 C3665 1.393 . S
C3662 H3654 0.950 . S
C3662 C3660 1.391 . S
C3662 C3663 1.400 . S
C3663 C3662 1.400 . S
C3663 C3664 1.398 . S
C3663 C3669 1.491 . S
C3664 H3655 0.950 . S
C3664 C3663 1.398 . S
C3664 C3665 1.391 . S
C3665 H3653 0.950 . S
C3665 C3661 1.393 . S
C3665 C3664 1.391 . S
C3666 H3656 0.950 . S
C3666 C3667 1.386 . S
C3666 C3668 1.391 . S
C3667 C3666 1.386 . S
C3667 C3671 1.393 . S
C3668 H3657 0.950 . S
C3668 C3666 1.391 . S
C3668 C3669 1.400 . S
C3669 C3663 1.491 . S
C3669 C3668 1.400 . S
C3669 C3670 1.398 . S
C3670 H3658 0.950 . S
C3670 C3669 1.398 . S
C3670 C3671 1.391 . S
C3671 H3659 0.950 . S
C3671 C3667 1.393 . S
C3671 C3670 1.391 . S
H3672 C3680 0.950 . S
H3673 C3685 0.950 . S
H3674 C3682 0.950 . S
H3675 C3684 0.950 . S
H3676 C3686 0.950 . S
H3677 C3688 0.950 . S
H3678 C3690 0.950 . S
H3679 C3691 0.950 . S
C3680 H3672 0.950 . S
C3680 C3681 1.386 . S
C3680 C3682 1.391 . S
C3681 C3680 1.386 . S
C3681 C3685 1.393 . S
C3682 H3674 0.950 . S
C3682 C3680 1.391 . S
C3682 C3683 1.400 . S
C3683 C3682 1.400 . S
C3683 C3684 1.398 . S
C3683 C3689 1.491 . S
C3684 H3675 0.950 . S
C3684 C3683 1.398 . S
C3684 C3685 1.391 . S
C3685 H3673 0.950 . S
C3685 C3681 1.393 . S
C3685 C3684 1.391 . S
C3686 H3676 0.950 . S
C3686 C3687 1.386 . S
C3686 C3688 1.391 . S
C3687 C3686 1.386 . S
C3687 C3691 1.393 . S
C3688 H3677 0.950 . S
C3688 C3686 1.391 . S
C3688 C3689 1.400 . S
C3689 C3683 1.491 . S
C3689 C3688 1.400 . S
C3689 C3690 1.398 . S
C3690 H3678 0.950 . S
C3690 C3689 1.398 . S
C3690 C3691 1.391 . S
C3691 H3679 0.950 . S
C3691 C3687 1.393 . S
C3691 C3690 1.391 . S
H3692 C3700 0.950 . S
H3693 C3705 0.950 . S
H3694 C3702 0.950 . S
H3695 C3704 0.950 . S
H3696 C3706 0.950 . S
H3697 C3708 0.950 . S
H3698 C3710 0.950 . S
H3699 C3711 0.950 . S
C3700 H3692 0.950 . S
C3700 C3701 1.386 . S
C3700 C3702 1.391 . S
C3701 C3700 1.386 . S
C3701 C3705 1.393 . S
C3702 H3694 0.950 . S
C3702 C3700 1.391 . S
C3702 C3703 1.400 . S
C3703 C3702 1.400 . S
C3703 C3704 1.398 . S
C3703 C3709 1.491 . S
C3704 H3695 0.950 . S
C3704 C3703 1.398 . S
C3704 C3705 1.391 . S
C3705 H3693 0.950 . S
C3705 C3701 1.393 . S
C3705 C3704 1.391 . S
C3706 H3696 0.950 . S
C3706 C3707 1.386 . S
C3706 C3708 1.391 . S
C3707 C3706 1.386 . S
C3707 C3711 1.393 . S
C3708 H3697 0.950 . S
C3708 C3706 1.391 . S
C3708 C3709 1.400 . S
C3709 C3703 1.491 . S
C3709 C3708 1.400 . S
C3709 C3710 1.398 . S
C3710 H3698 0.950 . S
C3710 C3709 1.398 . S
C3710 C3711 1.391 . S
C3711 H3699 0.950 . S
C3711 C3707 1.393 . S
C3711 C3710 1.391 . S
H3712 C3720 0.950 . S
H3713 C3725 0.950 . S
H3714 C3722 0.950 . S
H3715 C3724 0.950 . S
H3716 C3726 0.950 . S
H3717 C3728 0.950 . S
H3718 C3730 0.950 . S
H3719 C3731 0.950 . S
C3720 H3712 0.950 . S
C3720 C3721 1.386 . S
C3720 C3722 1.391 . S
C3721 C3720 1.386 . S
C3721 C3725 1.393 . S
C3722 H3714 0.950 . S
C3722 C3720 1.391 . S
C3722 C3723 1.400 . S
C3723 C3722 1.400 . S
C3723 C3724 1.398 . S
C3723 C3729 1.491 . S
C3724 H3715 0.950 . S
C3724 C3723 1.398 . S
C3724 C3725 1.391 . S
C3725 H3713 0.950 . S
C3725 C3721 1.393 . S
C3725 C3724 1.391 . S
C3726 H3716 0.950 . S
C3726 C3727 1.386 . S
C3726 C3728 1.391 . S
C3727 C3726 1.386 . S
C3727 C3731 1.393 . S
C3728 H3717 0.950 . S
C3728 C3726 1.391 . S
C3728 C3729 1.400 . S
C3729 C3723 1.491 . S
C3729 C3728 1.400 . S
C3729 C3730 1.398 . S
C3730 H3718 0.950 . S
C3730 C3729 1.398 . S
C3730 C3731 1.391 . S
C3731 H3719 0.950 . S
C3731 C3727 1.393 . S
C3731 C3730 1.391 . S
H3732 C3740 0.950 . S
H3733 C3745 0.950 . S
H3734 C3742 0.950 . S
H3735 C3744 0.950 . S
H3736 C3746 0.950 . S
H3737 C3748 0.950 . S
H3738 C3750 0.950 . S
H3739 C3751 0.950 . S
C3740 H3732 0.950 . S
C3740 C3741 1.386 . S
C3740 C3742 1.391 . S
C3741 C3740 1.386 . S
C3741 C3745 1.393 . S
C3742 H3734 0.950 . S
C3742 C3740 1.391 . S
C3742 C3743 1.400 . S
C3743 C3742 1.400 . S
C3743 C3744 1.398 . S
C3743 C3749 1.491 . S
C3744 H3735 0.950 . S
C3744 C3743 1.398 . S
C3744 C3745 1.391 . S
C3745 H3733 0.950 . S
C3745 C3741 1.393 . S
C3745 C3744 1.391 . S
C3746 H3736 0.950 . S
C3746 C3747 1.386 . S
C3746 C3748 1.391 . S
C3747 C3746 1.386 . S
C3747 C3751 1.393 . S
C3748 H3737 0.950 . S
C3748 C3746 1.391 . S
C3748 C3749 1.400 . S
C3749 C3743 1.491 . S
C3749 C3748 1.400 . S
C3749 C3750 1.398 . S
C3750 H3738 0.950 . S
C3750 C3749 1.398 . S
C3750 C3751 1.391 . S
C3751 H3739 0.950 . S
C3751 C3747 1.393 . S
C3751 C3750 1.391 . S
H3752 C3760 0.950 . S
H3753 C3765 0.950 . S
H3754 C3762 0.950 . S
H3755 C3764 0.950 . S
H3756 C3766 0.950 . S
H3757 C3768 0.950 . S
H3758 C3770 0.950 . S
H3759 C3771 0.950 . S
C3760 H3752 0.950 . S
C3760 C3761 1.386 . S
C3760 C3762 1.391 . S
C3761 C3760 1.386 . S
C3761 C3765 1.393 . S
C3762 H3754 0.950 . S
C3762 C3760 1.391 . S
C3762 C3763 1.400 . S
C3763 C3762 1.400 . S
C3763 C3764 1.398 . S
C3763 C3769 1.491 . S
C3764 H3755 0.950 . S
C3764 C3763 1.398 . S
C3764 C3765 1.391 . S
C3765 H3753 0.950 . S
C3765 C3761 1.393 . S
C3765 C3764 1.391 . S
C3766 H3756 0.950 . S
C3766 C3767 1.386 . S
C3766 C3768 1.391 . S
C3767 C3766 1.386 . S
C3767 C3771 1.393 . S
C3768 H3757 0.950 . S
C3768 C3766 1.391 . S
C3768 C3769 1.400 . S
C3769 C3763 1.491 . S
C3769 C3768 1.400 . S
C3769 C3770 1.398 . S
C3770 H3758 0.950 . S
C3770 C3769 1.398 . S
C3770 C3771 1.391 . S
C3771 H3759 0.950 . S
C3771 C3767 1.393 . S
C3771 C3770 1.391 . S
H3772 C3780 0.950 . S
H3773 C3785 0.950 . S
H3774 C3782 0.950 . S
H3775 C3784 0.950 . S
H3776 C3786 0.950 . S
H3777 C3788 0.950 . S
H3778 C3790 0.950 . S
H3779 C3791 0.950 . S
C3780 H3772 0.950 . S
C3780 C3781 1.386 . S
C3780 C3782 1.391 . S
C3781 C3780 1.386 . S
C3781 C3785 1.393 . S
C3782 H3774 0.950 . S
C3782 C3780 1.391 . S
C3782 C3783 1.400 . S
C3783 C3782 1.400 . S
C3783 C3784 1.398 . S
C3783 C3789 1.491 . S
C3784 H3775 0.950 . S
C3784 C3783 1.398 . S
C3784 C3785 1.391 . S
C3785 H3773 0.950 . S
C3785 C3781 1.393 . S
C3785 C3784 1.391 . S
C3786 H3776 0.950 . S
C3786 C3787 1.386 . S
C3786 C3788 1.391 . S
C3787 C3786 1.386 . S
C3787 C3791 1.393 . S
C3788 H3777 0.950 . S
C3788 C3786 1.391 . S
C3788 C3789 1.400 . S
C3789 C3783 1.491 . S
C3789 C3788 1.400 . S
C3789 C3790 1.398 . S
C3790 H3778 0.950 . S
C3790 C3789 1.398 . S
C3790 C3791 1.391 . S
C3791 H3779 0.950 . S
C3791 C3787 1.393 . S
C3791 C3790 1.391 . S
H3792 C3800 0.950 . S
H3793 C3805 0.950 . S
H3794 C3802 0.950 . S
H3795 C3804 0.950 . S
H3796 C3806 0.950 . S
H3797 C3808 0.950 . S
H3798 C3810 0.950 . S
H3799 C3811 0.950 . S
C3800 H3792 0.950 . S
C3800 C3801 1.386 . S
C3800 C3802 1.391 . S
C3801 C3800 1.386 . S
C3801 C3805 1.393 . S
C3802 H3794 0.950 . S
C3802 C3800 1.391 . S
C3802 C3803 1.400 . S
C3803 C3802 1.400 . S
C3803 C3804 1.398 . S
C3803 C3809 1.491 . S
C3804 H3795 0.950 . S
C3804 C3803 1.398 . S
C3804 C3805 1.391 . S
C3805 H3793 0.950 . S
C3805 C3801 1.393 . S
C3805 C3804 1.391 . S
C3806 H3796 0.950 . S
C3806 C3807 1.386 . S
C3806 C3808 1.391 . S
C3807 C3806 1.386 . S
C3807 C3811 1.393 . S
C3808 H3797 0.950 . S
C3808 C3806 1.391 . S
C3808 C3809 1.400 . S
C3809 C3803 1.491 . S
C3809 C3808 1.400 . S
C3809 C3810 1.398 . S
C3810 H3798 0.950 . S
C3810 C3809 1.398 . S
C3810 C3811 1.391 . S
C3811 H3799 0.950 . S
C3811 C3807 1.393 . S
C3811 C3810 1.391 . S
H3812 C3820 0.950 . S
H3813 C3825 0.950 . S
H3814 C3822 0.950 . S
H3815 C3824 0.950 . S
H3816 C3826 0.950 . S
H3817 C3828 0.950 . S
H3818 C3830 0.950 . S
H3819 C3831 0.950 . S
C3820 H3812 0.950 . S
C3820 C3821 1.386 . S
C3820 C3822 1.391 . S
C3821 C3820 1.386 . S
C3821 C3825 1.393 . S
C3822 H3814 0.950 . S
C3822 C3820 1.391 . S
C3822 C3823 1.400 . S
C3823 C3822 1.400 . S
C3823 C3824 1.398 . S
C3823 C3829 1.491 . S
C3824 H3815 0.950 . S
C3824 C3823 1.398 . S
C3824 C3825 1.391 . S
C3825 H3813 0.950 . S
C3825 C3821 1.393 . S
C3825 C3824 1.391 . S
C3826 H3816 0.950 . S
C3826 C3827 1.386 . S
C3826 C3828 1.391 . S
C3827 C3826 1.386 . S
C3827 C3831 1.393 . S
C3828 H3817 0.950 . S
C3828 C3826 1.391 . S
C3828 C3829 1.400 . S
C3829 C3823 1.491 . S
C3829 C3828 1.400 . S
C3829 C3830 1.398 . S
C3830 H3818 0.950 . S
C3830 C3829 1.398 . S
C3830 C3831 1.391 . S
C3831 H3819 0.950 . S
C3831 C3827 1.393 . S
C3831 C3830 1.391 . S
H3832 C3840 0.950 . S
H3833 C3845 0.950 . S
H3834 C3842 0.950 . S
H3835 C3844 0.950 . S
H3836 C3846 0.950 . S
H3837 C3848 0.950 . S
H3838 C3850 0.950 . S
H3839 C3851 0.950 . S
C3840 H3832 0.950 . S
C3840 C3841 1.386 . S
C3840 C3842 1.391 . S
C3841 C3840 1.386 . S
C3841 C3845 1.393 . S
C3842 H3834 0.950 . S
C3842 C3840 1.391 . S
C3842 C3843 1.400 . S
C3843 C3842 1.400 . S
C3843 C3844 1.398 . S
C3843 C3849 1.491 . S
C3844 H3835 0.950 . S
C3844 C3843 1.398 . S
C3844 C3845 1.391 . S
C3845 H3833 0.950 . S
C3845 C3841 1.393 . S
C3845 C3844 1.391 . S
C3846 H3836 0.950 . S
C3846 C3847 1.386 . S
C3846 C3848 1.391 . S
C3847 C3846 1.386 . S
C3847 C3851 1.393 . S
C3848 H3837 0.950 . S
C3848 C3846 1.391 . S
C3848 C3849 1.400 . S
C3849 C3843 1.491 . S
C3849 C3848 1.400 . S
C3849 C3850 1.398 . S
C3850 H3838 0.950 . S
C3850 C3849 1.398 . S
C3850 C3851 1.391 . S
C3851 H3839 0.950 . S
C3851 C3847 1.393 . S
C3851 C3850 1.391 . S
H3852 C3860 0.950 . S
H3853 C3865 0.950 . S
H3854 C3862 0.950 . S
H3855 C3864 0.950 . S
H3856 C3866 0.950 . S
H3857 C3868 0.950 . S
H3858 C3870 0.950 . S
H3859 C3871 0.950 . S
C3860 H3852 0.950 . S
C3860 C3861 1.386 . S
C3860 C3862 1.391 . S
C3861 C3860 1.386 . S
C3861 C3865 1.393 . S
C3862 H3854 0.950 . S
C3862 C3860 1.391 . S
C3862 C3863 1.400 . S
C3863 C3862 1.400 . S
C3863 C3864 1.398 . S
C3863 C3869 1.491 . S
C3864 H3855 0.950 . S
C3864 C3863 1.398 . S
C3864 C3865 1.391 . S
C3865 H3853 0.950 . S
C3865 C3861 1.393 . S
C3865 C3864 1.391 . S
C3866 H3856 0.950 . S
C3866 C3867 1.386 . S
C3866 C3868 1.391 . S
C3867 C3866 1.386 . S
C3867 C3871 1.393 . S
C3868 H3857 0.950 . S
C3868 C3866 1.391 . S
C3868 C3869 1.400 . S
C3869 C3863 1.491 . S
C3869 C3868 1.400 . S
C3869 C3870 1.398 . S
C3870 H3858 0.950 . S
C3870 C3869 1.398 . S
C3870 C3871 1.391 . S
C3871 H3859 0.950 . S
C3871 C3867 1.393 . S
C3871 C3870 1.391 . S
H3872 C3880 0.950 . S
H3873 C3885 0.950 . S
H3874 C3882 0.950 . S
H3875 C3884 0.950 . S
H3876 C3886 0.950 . S
H3877 C3888 0.950 . S
H3878 C3890 0.950 . S
H3879 C3891 0.950 . S
C3880 H3872 0.950 . S
C3880 C3881 1.386 . S
C3880 C3882 1.391 . S
C3881 C3880 1.386 . S
C3881 C3885 1.393 . S
C3882 H3874 0.950 . S
C3882 C3880 1.391 . S
C3882 C3883 1.400 . S
C3883 C3882 1.400 . S
C3883 C3884 1.398 . S
C3883 C3889 1.491 . S
C3884 H3875 0.950 . S
C3884 C3883 1.398 . S
C3884 C3885 1.391 . S
C3885 H3873 0.950 . S
C3885 C3881 1.393 . S
C3885 C3884 1.391 . S
C3886 H3876 0.950 . S
C3886 C3887 1.386 . S
C3886 C3888 1.391 . S
C3887 C3886 1.386 . S
C3887 C3891 1.393 . S
C3888 H3877 0.950 . S
C3888 C3886 1.391 . S
C3888 C3889 1.400 . S
C3889 C3883 1.491 . S
C3889 C3888 1.400 . S
C3889 C3890 1.398 . S
C3890 H3878 0.950 . S
C3890 C3889 1.398 . S
C3890 C3891 1.391 . S
C3891 H3879 0.950 . S
C3891 C3887 1.393 . S
C3891 C3890 1.391 . S
H3892 C3900 0.950 . S
H3893 C3905 0.950 . S
H3894 C3902 0.950 . S
H3895 C3904 0.950 . S
H3896 C3906 0.950 . S
H3897 C3908 0.950 . S
H3898 C3910 0.950 . S
H3899 C3911 0.950 . S
C3900 H3892 0.950 . S
C3900 C3901 1.386 . S
C3900 C3902 1.391 . S
C3901 C3900 1.386 . S
C3901 C3905 1.393 . S
C3902 H3894 0.950 . S
C3902 C3900 1.391 . S
C3902 C3903 1.400 . S
C3903 C3902 1.400 . S
C3903 C3904 1.398 . S
C3903 C3909 1.491 . S
C3904 H3895 0.950 . S
C3904 C3903 1.398 . S
C3904 C3905 1.391 . S
C3905 H3893 0.950 . S
C3905 C3901 1.393 . S
C3905 C3904 1.391 . S
C3906 H3896 0.950 . S
C3906 C3907 1.386 . S
C3906 C3908 1.391 . S
C3907 C3906 1.386 . S
C3907 C3911 1.393 . S
C3908 H3897 0.950 . S
C3908 C3906 1.391 . S
C3908 C3909 1.400 . S
C3909 C3903 1.491 . S
C3909 C3908 1.400 . S
C3909 C3910 1.398 . S
C3910 H3898 0.950 . S
C3910 C3909 1.398 . S
C3910 C3911 1.391 . S
C3911 H3899 0.950 . S
C3911 C3907 1.393 . S
C3911 C3910 1.391 . S
H3912 C3920 0.950 . S
H3913 C3925 0.950 . S
H3914 C3922 0.950 . S
H3915 C3924 0.950 . S
H3916 C3926 0.950 . S
H3917 C3928 0.950 . S
H3918 C3930 0.950 . S
H3919 C3931 0.950 . S
C3920 H3912 0.950 . S
C3920 C3921 1.386 . S
C3920 C3922 1.391 . S
C3921 C3920 1.386 . S
C3921 C3925 1.393 . S
C3922 H3914 0.950 . S
C3922 C3920 1.391 . S
C3922 C3923 1.400 . S
C3923 C3922 1.400 . S
C3923 C3924 1.398 . S
C3923 C3929 1.491 . S
C3924 H3915 0.950 . S
C3924 C3923 1.398 . S
C3924 C3925 1.391 . S
C3925 H3913 0.950 . S
C3925 C3921 1.393 . S
C3925 C3924 1.391 . S
C3926 H3916 0.950 . S
C3926 C3927 1.386 . S
C3926 C3928 1.391 . S
C3927 C3926 1.386 . S
C3927 C3931 1.393 . S
C3928 H3917 0.950 . S
C3928 C3926 1.391 . S
C3928 C3929 1.400 . S
C3929 C3923 1.491 . S
C3929 C3928 1.400 . S
C3929 C3930 1.398 . S
C3930 H3918 0.950 . S
C3930 C3929 1.398 . S
C3930 C3931 1.391 . S
C3931 H3919 0.950 . S
C3931 C3927 1.393 . S
C3931 C3930 1.391 . S
H3932 C3940 0.950 . S
H3933 C3945 0.950 . S
H3934 C3942 0.950 . S
H3935 C3944 0.950 . S
H3936 C3946 0.950 . S
H3937 C3948 0.950 . S
H3938 C3950 0.950 . S
H3939 C3951 0.950 . S
C3940 H3932 0.950 . S
C3940 C3941 1.386 . S
C3940 C3942 1.391 . S
C3941 C3940 1.386 . S
C3941 C3945 1.393 . S
C3942 H3934 0.950 . S
C3942 C3940 1.391 . S
C3942 C3943 1.400 . S
C3943 C3942 1.400 . S
C3943 C3944 1.398 . S
C3943 C3949 1.491 . S
C3944 H3935 0.950 . S
C3944 C3943 1.398 . S
C3944 C3945 1.391 . S
C3945 H3933 0.950 . S
C3945 C3941 1.393 . S
C3945 C3944 1.391 . S
C3946 H3936 0.950 . S
C3946 C3947 1.386 . S
C3946 C3948 1.391 . S
C3947 C3946 1.386 . S
C3947 C3951 1.393 . S
C3948 H3937 0.950 . S
C3948 C3946 1.391 . S
C3948 C3949 1.400 . S
C3949 C3943 1.491 . S
C3949 C3948 1.400 . S
C3949 C3950 1.398 . S
C3950 H3938 0.950 . S
C3950 C3949 1.398 . S
C3950 C3951 1.391 . S
C3951 H3939 0.950 . S
C3951 C3947 1.393 . S
C3951 C3950 1.391 . S
H3952 C3960 0.950 . S
H3953 C3965 0.950 . S
H3954 C3962 0.950 . S
H3955 C3964 0.950 . S
H3956 C3966 0.950 . S
H3957 C3968 0.950 . S
H3958 C3970 0.950 . S
H3959 C3971 0.950 . S
C3960 H3952 0.950 . S
C3960 C3961 1.386 . S
C3960 C3962 1.391 . S
C3961 C3960 1.386 . S
C3961 C3965 1.393 . S
C3962 H3954 0.950 . S
C3962 C3960 1.391 . S
C3962 C3963 1.400 . S
C3963 C3962 1.400 . S
C3963 C3964 1.398 . S
C3963 C3969 1.491 . S
C3964 H3955 0.950 . S
C3964 C3963 1.398 . S
C3964 C3965 1.391 . S
C3965 H3953 0.950 . S
C3965 C3961 1.393 . S
C3965 C3964 1.391 . S
C3966 H3956 0.950 . S
C3966 C3967 1.386 . S
C3966 C3968 1.391 . S
C3967 C3966 1.386 . S
C3967 C3971 1.393 . S
C3968 H3957 0.950 . S
C3968 C3966 1.391 . S
C3968 C3969 1.400 . S
C3969 C3963 1.491 . S
C3969 C3968 1.400 . S
C3969 C3970 1.398 . S
C3970 H3958 0.950 . S
C3970 C3969 1.398 . S
C3970 C3971 1.391 . S
C3971 H3959 0.950 . S
C3971 C3967 1.393 . S
C3971 C3970 1.391 . S
H3972 C3980 0.950 . S
H3973 C3985 0.950 . S
H3974 C3982 0.950 . S
H3975 C3984 0.950 . S
H3976 C3986 0.950 . S
H3977 C3988 0.950 . S
H3978 C3990 0.950 . S
H3979 C3991 0.950 . S
C3980 H3972 0.950 . S
C3980 C3981 1.386 . S
C3980 C3982 1.391 . S
C3981 C3980 1.386 . S
C3981 C3985 1.393 . S
C3982 H3974 0.950 . S
C3982 C3980 1.391 . S
C3982 C3983 1.400 . S
C3983 C3982 1.400 . S
C3983 C3984 1.398 . S
C3983 C3989 1.491 . S
C3984 H3975 0.950 . S
C3984 C3983 1.398 . S
C3984 C3985 1.391 . S
C3985 H3973 0.950 . S
C3985 C3981 1.393 . S
C3985 C3984 1.391 . S
C3986 H3976 0.950 . S
C3986 C3987 1.386 . S
C3986 C3988 1.391 . S
C3987 C3986 1.386 . S
C3987 C3991 1.393 . S
C3988 H3977 0.950 . S
C3988 C3986 1.391 . S
C3988 C3989 1.400 . S
C3989 C3983 1.491 . S
C3989 C3988 1.400 . S
C3989 C3990 1.398 . S
C3990 H3978 0.950 . S
C3990 C3989 1.398 . S
C3990 C3991 1.391 . S
C3991 H3979 0.950 . S
C3991 C3987 1.393 . S
C3991 C3990 1.391 . S
H3992 C4000 0.950 . S
H3993 C4005 0.950 . S
H3994 C4002 0.950 . S
H3995 C4004 0.950 . S
H3996 C4006 0.950 . S
H3997 C4008 0.950 . S
H3998 C4010 0.950 . S
H3999 C4011 0.950 . S
C4000 H3992 0.950 . S
C4000 C4001 1.386 . S
C4000 C4002 1.391 . S
C4001 C4000 1.386 . S
C4001 C4005 1.393 . S
C4002 H3994 0.950 . S
C4002 C4000 1.391 . S
C4002 C4003 1.400 . S
C4003 C4002 1.400 . S
C4003 C4004 1.398 . S
C4003 C4009 1.491 . S
C4004 H3995 0.950 . S
C4004 C4003 1.398 . S
C4004 C4005 1.391 . S
C4005 H3993 0.950 . S
C4005 C4001 1.393 . S
C4005 C4004 1.391 . S
C4006 H3996 0.950 . S
C4006 C4007 1.386 . S
C4006 C4008 1.391 . S
C4007 C4006 1.386 . S
C4007 C4011 1.393 . S
C4008 H3997 0.950 . S
C4008 C4006 1.391 . S
C4008 C4009 1.400 . S
C4009 C4003 1.491 . S
C4009 C4008 1.400 . S
C4009 C4010 1.398 . S
C4010 H3998 0.950 . S
C4010 C4009 1.398 . S
C4010 C4011 1.391 . S
C4011 H3999 0.950 . S
C4011 C4007 1.393 . S
C4011 C4010 1.391 . S
H4012 C4020 0.950 . S
H4013 C4025 0.950 . S
H4014 C4022 0.950 . S
H4015 C4024 0.950 . S
H4016 C4026 0.950 . S
H4017 C4028 0.950 . S
H4018 C4030 0.950 . S
H4019 C4031 0.950 . S
C4020 H4012 0.950 . S
C4020 C4021 1.386 . S
C4020 C4022 1.391 . S
C4021 C4020 1.386 . S
C4021 C4025 1.393 . S
C4022 H4014 0.950 . S
C4022 C4020 1.391 . S
C4022 C4023 1.400 . S
C4023 C4022 1.400 . S
C4023 C4024 1.398 . S
C4023 C4029 1.491 . S
C4024 H4015 0.950 . S
C4024 C4023 1.398 . S
C4024 C4025 1.391 . S
C4025 H4013 0.950 . S
C4025 C4021 1.393 . S
C4025 C4024 1.391 . S
C4026 H4016 0.950 . S
C4026 C4027 1.386 . S
C4026 C4028 1.391 . S
C4027 C4026 1.386 . S
C4027 C4031 1.393 . S
C4028 H4017 0.950 . S
C4028 C4026 1.391 . S
C4028 C4029 1.400 . S
C4029 C4023 1.491 . S
C4029 C4028 1.400 . S
C4029 C4030 1.398 . S
C4030 H4018 0.950 . S
C4030 C4029 1.398 . S
C4030 C4031 1.391 . S
C4031 H4019 0.950 . S
C4031 C4027 1.393 . S
C4031 C4030 1.391 . S
H4032 C4040 0.950 . S
H4033 C4045 0.950 . S
H4034 C4042 0.950 . S
H4035 C4044 0.950 . S
H4036 C4046 0.950 . S
H4037 C4048 0.950 . S
H4038 C4050 0.950 . S
H4039 C4051 0.950 . S
C4040 H4032 0.950 . S
C4040 C4041 1.386 . S
C4040 C4042 1.391 . S
C4041 C4040 1.386 . S
C4041 C4045 1.393 . S
C4042 H4034 0.950 . S
C4042 C4040 1.391 . S
C4042 C4043 1.400 . S
C4043 C4042 1.400 . S
C4043 C4044 1.398 . S
C4043 C4049 1.491 . S
C4044 H4035 0.950 . S
C4044 C4043 1.398 . S
C4044 C4045 1.391 . S
C4045 H4033 0.950 . S
C4045 C4041 1.393 . S
C4045 C4044 1.391 . S
C4046 H4036 0.950 . S
C4046 C4047 1.386 . S
C4046 C4048 1.391 . S
C4047 C4046 1.386 . S
C4047 C4051 1.393 . S
C4048 H4037 0.950 . S
C4048 C4046 1.391 . S
C4048 C4049 1.400 . S
C4049 C4043 1.491 . S
C4049 C4048 1.400 . S
C4049 C4050 1.398 . S
C4050 H4038 0.950 . S
C4050 C4049 1.398 . S
C4050 C4051 1.391 . S
C4051 H4039 0.950 . S
C4051 C4047 1.393 . S
C4051 C4050 1.391 . S
H4052 C4060 0.950 . S
H4053 C4065 0.950 . S
H4054 C4062 0.950 . S
H4055 C4064 0.950 . S
H4056 C4066 0.950 . S
H4057 C4068 0.950 . S
H4058 C4070 0.950 . S
H4059 C4071 0.950 . S
C4060 H4052 0.950 . S
C4060 C4061 1.386 . S
C4060 C4062 1.391 . S
C4061 C4060 1.386 . S
C4061 C4065 1.393 . S
C4062 H4054 0.950 . S
C4062 C4060 1.391 . S
C4062 C4063 1.400 . S
C4063 C4062 1.400 . S
C4063 C4064 1.398 . S
C4063 C4069 1.491 . S
C4064 H4055 0.950 . S
C4064 C4063 1.398 . S
C4064 C4065 1.391 . S
C4065 H4053 0.950 . S
C4065 C4061 1.393 . S
C4065 C4064 1.391 . S
C4066 H4056 0.950 . S
C4066 C4067 1.386 . S
C4066 C4068 1.391 . S
C4067 C4066 1.386 . S
C4067 C4071 1.393 . S
C4068 H4057 0.950 . S
C4068 C4066 1.391 . S
C4068 C4069 1.400 . S
C4069 C4063 1.491 . S
C4069 C4068 1.400 . S
C4069 C4070 1.398 . S
C4070 H4058 0.950 . S
C4070 C4069 1.398 . S
C4070 C4071 1.391 . S
C4071 H4059 0.950 . S
C4071 C4067 1.393 . S
C4071 C4070 1.391 . S
H4072 C4080 0.950 . S
H4073 C4085 0.950 . S
H4074 C4082 0.950 . S
H4075 C4084 0.950 . S
H4076 C4086 0.950 . S
H4077 C4088 0.950 . S
H4078 C4090 0.950 . S
H4079 C4091 0.950 . S
C4080 H4072 0.950 . S
C4080 C4081 1.386 . S
C4080 C4082 1.391 . S
C4081 C4080 1.386 . S
C4081 C4085 1.393 . S
C4082 H4074 0.950 . S
C4082 C4080 1.391 . S
C4082 C4083 1.400 . S
C4083 C4082 1.400 . S
C4083 C4084 1.398 . S
C4083 C4089 1.491 . S
C4084 H4075 0.950 . S
C4084 C4083 1.398 . S
C4084 C4085 1.391 . S
C4085 H4073 0.950 . S
C4085 C4081 1.393 . S
C4085 C4084 1.391 . S
C4086 H4076 0.950 . S
C4086 C4087 1.386 . S
C4086 C4088 1.391 . S
C4087 C4086 1.386 . S
C4087 C4091 1.393 . S
C4088 H4077 0.950 . S
C4088 C4086 1.391 . S
C4088 C4089 1.400 . S
C4089 C4083 1.491 . S
C4089 C4088 1.400 . S
C4089 C4090 1.398 . S
C4090 H4078 0.950 . S
C4090 C4089 1.398 . S
C4090 C4091 1.391 . S
C4091 H4079 0.950 . S
C4091 C4087 1.393 . S
C4091 C4090 1.391 . S
H4092 C4100 0.950 . S
H4093 C4105 0.950 . S
H4094 C4102 0.950 . S
H4095 C4104 0.950 . S
H4096 C4106 0.950 . S
H4097 C4108 0.950 . S
H4098 C4110 0.950 . S
H4099 C4111 0.950 . S
C4100 H4092 0.950 . S
C4100 C4101 1.386 . S
C4100 C4102 1.391 . S
C4101 C4100 1.386 . S
C4101 C4105 1.393 . S
C4102 H4094 0.950 . S
C4102 C4100 1.391 . S
C4102 C4103 1.400 . S
C4103 C4102 1.400 . S
C4103 C4104 1.398 . S
C4103 C4109 1.491 . S
C4104 H4095 0.950 . S
C4104 C4103 1.398 . S
C4104 C4105 1.391 . S
C4105 H4093 0.950 . S
C4105 C4101 1.393 . S
C4105 C4104 1.391 . S
C4106 H4096 0.950 . S
C4106 C4107 1.386 . S
C4106 C4108 1.391 . S
C4107 C4106 1.386 . S
C4107 C4111 1.393 . S
C4108 H4097 0.950 . S
C4108 C4106 1.391 . S
C4108 C4109 1.400 . S
C4109 C4103 1.491 . S
C4109 C4108 1.400 . S
C4109 C4110 1.398 . S
C4110 H4098 0.950 . S
C4110 C4109 1.398 . S
C4110 C4111 1.391 . S
C4111 H4099 0.950 . S
C4111 C4107 1.393 . S
C4111 C4110 1.391 . S
H4112 C4120 0.950 . S
H4113 C4125 0.950 . S
H4114 C4122 0.950 . S
H4115 C4124 0.950 . S
H4116 C4126 0.950 . S
H4117 C4128 0.950 . S
H4118 C4130 0.950 . S
H4119 C4131 0.950 . S
C4120 H4112 0.950 . S
C4120 C4121 1.386 . S
C4120 C4122 1.391 . S
C4121 C4120 1.386 . S
C4121 C4125 1.393 . S
C4122 H4114 0.950 . S
C4122 C4120 1.391 . S
C4122 C4123 1.400 . S
C4123 C4122 1.400 . S
C4123 C4124 1.398 . S
C4123 C4129 1.491 . S
C4124 H4115 0.950 . S
C4124 C4123 1.398 . S
C4124 C4125 1.391 . S
C4125 H4113 0.950 . S
C4125 C4121 1.393 . S
C4125 C4124 1.391 . S
C4126 H4116 0.950 . S
C4126 C4127 1.386 . S
C4126 C4128 1.391 . S
C4127 C4126 1.386 . S
C4127 C4131 1.393 . S
C4128 H4117 0.950 . S
C4128 C4126 1.391 . S
C4128 C4129 1.400 . S
C4129 C4123 1.491 . S
C4129 C4128 1.400 . S
C4129 C4130 1.398 . S
C4130 H4118 0.950 . S
C4130 C4129 1.398 . S
C4130 C4131 1.391 . S
C4131 H4119 0.950 . S
C4131 C4127 1.393 . S
C4131 C4130 1.391 . S
H4132 C4140 0.950 . S
H4133 C4145 0.950 . S
H4134 C4142 0.950 . S
H4135 C4144 0.950 . S
H4136 C4146 0.950 . S
H4137 C4148 0.950 . S
H4138 C4150 0.950 . S
H4139 C4151 0.950 . S
C4140 H4132 0.950 . S
C4140 C4141 1.386 . S
C4140 C4142 1.391 . S
C4141 C4140 1.386 . S
C4141 C4145 1.393 . S
C4142 H4134 0.950 . S
C4142 C4140 1.391 . S
C4142 C4143 1.400 . S
C4143 C4142 1.400 . S
C4143 C4144 1.398 . S
C4143 C4149 1.491 . S
C4144 H4135 0.950 . S
C4144 C4143 1.398 . S
C4144 C4145 1.391 . S
C4145 H4133 0.950 . S
C4145 C4141 1.393 . S
C4145 C4144 1.391 . S
C4146 H4136 0.950 . S
C4146 C4147 1.386 . S
C4146 C4148 1.391 . S
C4147 C4146 1.386 . S
C4147 C4151 1.393 . S
C4148 H4137 0.950 . S
C4148 C4146 1.391 . S
C4148 C4149 1.400 . S
C4149 C4143 1.491 . S
C4149 C4148 1.400 . S
C4149 C4150 1.398 . S
C4150 H4138 0.950 . S
C4150 C4149 1.398 . S
C4150 C4151 1.391 . S
C4151 H4139 0.950 . S
C4151 C4147 1.393 . S
C4151 C4150 1.391 . S
H4152 C4160 0.950 . S
H4153 C4165 0.950 . S
H4154 C4162 0.950 . S
H4155 C4164 0.950 . S
H4156 C4166 0.950 . S
H4157 C4168 0.950 . S
H4158 C4170 0.950 . S
H4159 C4171 0.950 . S
C4160 H4152 0.950 . S
C4160 C4161 1.386 . S
C4160 C4162 1.391 . S
C4161 C4160 1.386 . S
C4161 C4165 1.393 . S
C4162 H4154 0.950 . S
C4162 C4160 1.391 . S
C4162 C4163 1.400 . S
C4163 C4162 1.400 . S
C4163 C4164 1.398 . S
C4163 C4169 1.491 . S
C4164 H4155 0.950 . S
C4164 C4163 1.398 . S
C4164 C4165 1.391 . S
C4165 H4153 0.950 . S
C4165 C4161 1.393 . S
C4165 C4164 1.391 . S
C4166 H4156 0.950 . S
C4166 C4167 1.386 . S
C4166 C4168 1.391 . S
C4167 C4166 1.386 . S
C4167 C4171 1.393 . S
C4168 H4157 0.950 . S
C4168 C4166 1.391 . S
C4168 C4169 1.400 . S
C4169 C4163 1.491 . S
C4169 C4168 1.400 . S
C4169 C4170 1.398 . S
C4170 H4158 0.950 . S
C4170 C4169 1.398 . S
C4170 C4171 1.391 . S
C4171 H4159 0.950 . S
C4171 C4167 1.393 . S
C4171 C4170 1.391 . S
H4172 C4180 0.950 . S
H4173 C4185 0.950 . S
H4174 C4182 0.950 . S
H4175 C4184 0.950 . S
H4176 C4186 0.950 . S
H4177 C4188 0.950 . S
H4178 C4190 0.950 . S
H4179 C4191 0.950 . S
C4180 H4172 0.950 . S
C4180 C4181 1.386 . S
C4180 C4182 1.391 . S
C4181 C4180 1.386 . S
C4181 C4185 1.393 . S
C4182 H4174 0.950 . S
C4182 C4180 1.391 . S
C4182 C4183 1.400 . S
C4183 C4182 1.400 . S
C4183 C4184 1.398 . S
C4183 C4189 1.491 . S
C4184 H4175 0.950 . S
C4184 C4183 1.398 . S
C4184 C4185 1.391 . S
C4185 H4173 0.950 . S
C4185 C4181 1.393 . S
C4185 C4184 1.391 . S
C4186 H4176 0.950 . S
C4186 C4187 1.386 . S
C4186 C4188 1.391 . S
C4187 C4186 1.386 . S
C4187 C4191 1.393 . S
C4188 H4177 0.950 . S
C4188 C4186 1.391 . S
C4188 C4189 1.400 . S
C4189 C4183 1.491 . S
C4189 C4188 1.400 . S
C4189 C4190 1.398 . S
C4190 H4178 0.950 . S
C4190 C4189 1.398 . S
C4190 C4191 1.391 . S
C4191 H4179 0.950 . S
C4191 C4187 1.393 . S
C4191 C4190 1.391 . S
H4192 C4200 0.950 . S
H4193 C4205 0.950 . S
H4194 C4202 0.950 . S
H4195 C4204 0.950 . S
H4196 C4206 0.950 . S
H4197 C4208 0.950 . S
H4198 C4210 0.950 . S
H4199 C4211 0.950 . S
C4200 H4192 0.950 . S
C4200 C4201 1.386 . S
C4200 C4202 1.391 . S
C4201 C4200 1.386 . S
C4201 C4205 1.393 . S
C4202 H4194 0.950 . S
C4202 C4200 1.391 . S
C4202 C4203 1.400 . S
C4203 C4202 1.400 . S
C4203 C4204 1.398 . S
C4203 C4209 1.491 . S
C4204 H4195 0.950 . S
C4204 C4203 1.398 . S
C4204 C4205 1.391 . S
C4205 H4193 0.950 . S
C4205 C4201 1.393 . S
C4205 C4204 1.391 . S
C4206 H4196 0.950 . S
C4206 C4207 1.386 . S
C4206 C4208 1.391 . S
C4207 C4206 1.386 . S
C4207 C4211 1.393 . S
C4208 H4197 0.950 . S
C4208 C4206 1.391 . S
C4208 C4209 1.400 . S
C4209 C4203 1.491 . S
C4209 C4208 1.400 . S
C4209 C4210 1.398 . S
C4210 H4198 0.950 . S
C4210 C4209 1.398 . S
C4210 C4211 1.391 . S
C4211 H4199 0.950 . S
C4211 C4207 1.393 . S
C4211 C4210 1.391 . S
H4212 C4220 0.950 . S
H4213 C4225 0.950 . S
H4214 C4222 0.950 . S
H4215 C4224 0.950 . S
H4216 C4226 0.950 . S
H4217 C4228 0.950 . S
H4218 C4230 0.950 . S
H4219 C4231 0.950 . S
C4220 H4212 0.950 . S
C4220 C4221 1.386 . S
C4220 C4222 1.391 . S
C4221 C4220 1.386 . S
C4221 C4225 1.393 . S
C4222 H4214 0.950 . S
C4222 C4220 1.391 . S
C4222 C4223 1.400 . S
C4223 C4222 1.400 . S
C4223 C4224 1.398 . S
C4223 C4229 1.491 . S
C4224 H4215 0.950 . S
C4224 C4223 1.398 . S
C4224 C4225 1.391 . S
C4225 H4213 0.950 . S
C4225 C4221 1.393 . S
C4225 C4224 1.391 . S
C4226 H4216 0.950 . S
C4226 C4227 1.386 . S
C4226 C4228 1.391 . S
C4227 C4226 1.386 . S
C4227 C4231 1.393 . S
C4228 H4217 0.950 . S
C4228 C4226 1.391 . S
C4228 C4229 1.400 . S
C4229 C4223 1.491 . S
C4229 C4228 1.400 . S
C4229 C4230 1.398 . S
C4230 H4218 0.950 . S
C4230 C4229 1.398 . S
C4230 C4231 1.391 . S
C4231 H4219 0.950 . S
C4231 C4227 1.393 . S
C4231 C4230 1.391 . S
H4232 C4240 0.950 . S
H4233 C4245 0.950 . S
H4234 C4242 0.950 . S
H4235 C4244 0.950 . S
H4236 C4246 0.950 . S
H4237 C4248 0.950 . S
H4238 C4250 0.950 . S
H4239 C4251 0.950 . S
C4240 H4232 0.950 . S
C4240 C4241 1.386 . S
C4240 C4242 1.391 . S
C4241 C4240 1.386 . S
C4241 C4245 1.393 . S
C4242 H4234 0.950 . S
C4242 C4240 1.391 . S
C4242 C4243 1.400 . S
C4243 C4242 1.400 . S
C4243 C4244 1.398 . S
C4243 C4249 1.491 . S
C4244 H4235 0.950 . S
C4244 C4243 1.398 . S
C4244 C4245 1.391 . S
C4245 H4233 0.950 . S
C4245 C4241 1.393 . S
C4245 C4244 1.391 . S
C4246 H4236 0.950 . S
C4246 C4247 1.386 . S
C4246 C4248 1.391 . S
C4247 C4246 1.386 . S
C4247 C4251 1.393 . S
C4248 H4237 0.950 . S
C4248 C4246 1.391 . S
C4248 C4249 1.400 . S
C4249 C4243 1.491 . S
C4249 C4248 1.400 . S
C4249 C4250 1.398 . S
C4250 H4238 0.950 . S
C4250 C4249 1.398 . S
C4250 C4251 1.391 . S
C4251 H4239 0.950 . S
C4251 C4247 1.393 . S
C4251 C4250 1.391 . S
H4252 C4260 0.950 . S
H4253 C4265 0.950 . S
H4254 C4262 0.950 . S
H4255 C4264 0.950 . S
H4256 C4266 0.950 . S
H4257 C4268 0.950 . S
H4258 C4270 0.950 . S
H4259 C4271 0.950 . S
C4260 H4252 0.950 . S
C4260 C4261 1.386 . S
C4260 C4262 1.391 . S
C4261 C4260 1.386 . S
C4261 C4265 1.393 . S
C4262 H4254 0.950 . S
C4262 C4260 1.391 . S
C4262 C4263 1.400 . S
C4263 C4262 1.400 . S
C4263 C4264 1.398 . S
C4263 C4269 1.491 . S
C4264 H4255 0.950 . S
C4264 C4263 1.398 . S
C4264 C4265 1.391 . S
C4265 H4253 0.950 . S
C4265 C4261 1.393 . S
C4265 C4264 1.391 . S
C4266 H4256 0.950 . S
C4266 C4267 1.386 . S
C4266 C4268 1.391 . S
C4267 C4266 1.386 . S
C4267 C4271 1.393 . S
C4268 H4257 0.950 . S
C4268 C4266 1.391 . S
C4268 C4269 1.400 . S
C4269 C4263 1.491 . S
C4269 C4268 1.400 . S
C4269 C4270 1.398 . S
C4270 H4258 0.950 . S
C4270 C4269 1.398 . S
C4270 C4271 1.391 . S
C4271 H4259 0.950 . S
C4271 C4267 1.393 . S
C4271 C4270 1.391 . S
H4272 C4280 0.950 . S
H4273 C4285 0.950 . S
H4274 C4282 0.950 . S
H4275 C4284 0.950 . S
H4276 C4286 0.950 . S
H4277 C4288 0.950 . S
H4278 C4290 0.950 . S
H4279 C4291 0.950 . S
C4280 H4272 0.950 . S
C4280 C4281 1.386 . S
C4280 C4282 1.391 . S
C4281 C4280 1.386 . S
C4281 C4285 1.393 . S
C4282 H4274 0.950 . S
C4282 C4280 1.391 . S
C4282 C4283 1.400 . S
C4283 C4282 1.400 . S
C4283 C4284 1.398 . S
C4283 C4289 1.491 . S
C4284 H4275 0.950 . S
C4284 C4283 1.398 . S
C4284 C4285 1.391 . S
C4285 H4273 0.950 . S
C4285 C4281 1.393 . S
C4285 C4284 1.391 . S
C4286 H4276 0.950 . S
C4286 C4287 1.386 . S
C4286 C4288 1.391 . S
C4287 C4286 1.386 . S
C4287 C4291 1.393 . S
C4288 H4277 0.950 . S
C4288 C4286 1.391 . S
C4288 C4289 1.400 . S
C4289 C4283 1.491 . S
C4289 C4288 1.400 . S
C4289 C4290 1.398 . S
C4290 H4278 0.950 . S
C4290 C4289 1.398 . S
C4290 C4291 1.391 . S
C4291 H4279 0.950 . S
C4291 C4287 1.393 . S
C4291 C4290 1.391 . S
H4292 C4300 0.950 . S
H4293 C4305 0.950 . S
H4294 C4302 0.950 . S
H4295 C4304 0.950 . S
H4296 C4306 0.950 . S
H4297 C4308 0.950 . S
H4298 C4310 0.950 . S
H4299 C4311 0.950 . S
C4300 H4292 0.950 . S
C4300 C4301 1.386 . S
C4300 C4302 1.391 . S
C4301 C4300 1.386 . S
C4301 C4305 1.393 . S
C4302 H4294 0.950 . S
C4302 C4300 1.391 . S
C4302 C4303 1.400 . S
C4303 C4302 1.400 . S
C4303 C4304 1.398 . S
C4303 C4309 1.491 . S
C4304 H4295 0.950 . S
C4304 C4303 1.398 . S
C4304 C4305 1.391 . S
C4305 H4293 0.950 . S
C4305 C4301 1.393 . S
C4305 C4304 1.391 . S
C4306 H4296 0.950 . S
C4306 C4307 1.386 . S
C4306 C4308 1.391 . S
C4307 C4306 1.386 . S
C4307 C4311 1.393 . S
C4308 H4297 0.950 . S
C4308 C4306 1.391 . S
C4308 C4309 1.400 . S
C4309 C4303 1.491 . S
C4309 C4308 1.400 . S
C4309 C4310 1.398 . S
C4310 H4298 0.950 . S
C4310 C4309 1.398 . S
C4310 C4311 1.391 . S
C4311 H4299 0.950 . S
C4311 C4307 1.393 . S
C4311 C4310 1.391 . S
H4312 C4320 0.950 . S
H4313 C4325 0.950 . S
H4314 C4322 0.950 . S
H4315 C4324 0.950 . S
H4316 C4326 0.950 . S
H4317 C4328 0.950 . S
H4318 C4330 0.950 . S
H4319 C4331 0.950 . S
C4320 H4312 0.950 . S
C4320 C4321 1.386 . S
C4320 C4322 1.391 . S
C4321 C4320 1.386 . S
C4321 C4325 1.393 . S
C4322 H4314 0.950 . S
C4322 C4320 1.391 . S
C4322 C4323 1.400 . S
C4323 C4322 1.400 . S
C4323 C4324 1.398 . S
C4323 C4329 1.491 . S
C4324 H4315 0.950 . S
C4324 C4323 1.398 . S
C4324 C4325 1.391 . S
C4325 H4313 0.950 . S
C4325 C4321 1.393 . S
C4325 C4324 1.391 . S
C4326 H4316 0.950 . S
C4326 C4327 1.386 . S
C4326 C4328 1.391 . S
C4327 C4326 1.386 . S
C4327 C4331 1.393 . S
C4328 H4317 0.950 . S
C4328 C4326 1.391 . S
C4328 C4329 1.400 . S
C4329 C4323 1.491 . S
C4329 C4328 1.400 . S
C4329 C4330 1.398 . S
C4330 H4318 0.950 . S
C4330 C4329 1.398 . S
C4330 C4331 1.391 . S
C4331 H4319 0.950 . S
C4331 C4327 1.393 . S
C4331 C4330 1.391 . S
H4332 C4340 0.950 . S
H4333 C4345 0.950 . S
H4334 C4342 0.950 . S
H4335 C4344 0.950 . S
H4336 C4346 0.950 . S
H4337 C4348 0.950 . S
H4338 C4350 0.950 . S
H4339 C4351 0.950 . S
C4340 H4332 0.950 . S
C4340 C4341 1.386 . S
C4340 C4342 1.391 . S
C4341 C4340 1.386 . S
C4341 C4345 1.393 . S
C4342 H4334 0.950 . S
C4342 C4340 1.391 . S
C4342 C4343 1.400 . S
C4343 C4342 1.400 . S
C4343 C4344 1.398 . S
C4343 C4349 1.491 . S
C4344 H4335 0.950 . S
C4344 C4343 1.398 . S
C4344 C4345 1.391 . S
C4345 H4333 0.950 . S
C4345 C4341 1.393 . S
C4345 C4344 1.391 . S
C4346 H4336 0.950 . S
C4346 C4347 1.386 . S
C4346 C4348 1.391 . S
C4347 C4346 1.386 . S
C4347 C4351 1.393 . S
C4348 H4337 0.950 . S
C4348 C4346 1.391 . S
C4348 C4349 1.400 . S
C4349 C4343 1.491 . S
C4349 C4348 1.400 . S
C4349 C4350 1.398 . S
C4350 H4338 0.950 . S
C4350 C4349 1.398 . S
C4350 C4351 1.391 . S
C4351 H4339 0.950 . S
C4351 C4347 1.393 . S
C4351 C4350 1.391 . S
C2447 C1325 1.541 . S
C2441 C21 1.531 . S
C2467 C1373 1.436 . S
C2461 C42 1.427 . S
C2481 C82 1.507 . S
C2487 C1397 1.526 . S
C2507 C1460 1.494 . S
C2501 C135 1.496 . S
C2521 C175 1.430 . S
C2527 C1454 1.429 . S
C2541 C221 1.527 . S
C2547 C1301 1.539 . S
C2561 C255 1.485 . S
C2567 C1349 1.481 . S
C2587 C1421 1.551 . S
C2581 C301 1.552 . S
C2607 C1493 1.516 . S
C2601 C15 1.518 . S
C2621 C55 1.441 . S
C2627 C1541 1.440 . S
C2641 C101 1.535 . S
C2647 C1604 1.550 . S
C2667 C1661 1.498 . S
C2661 C141 1.494 . S
C2681 C162 1.440 . S
C2687 C1685 1.456 . S
C2707 C1742 1.509 . S
C2701 C215 1.517 . S
C2721 C261 1.496 . S
C2727 C1790 1.504 . S
C2747 C1844 1.520 . S
C2741 C282 1.518 . S
C2761 C2 1.519 . S
C2767 C1637 1.533 . S
C2781 C181 1.433 . S
C2787 C1748 1.444 . S
C2807 C1796 1.543 . S
C2801 C202 1.525 . S
C2821 C242 1.495 . S
C2827 C1838 1.502 . S
C2847 C1709 1.508 . S
C2841 C295 1.512 . S
C2867 C1565 1.516 . S
C2861 C95 1.522 . S
C2881 C122 1.495 . S
C2887 C1598 1.499 . S
C2907 C1517 1.453 . S
C2901 C61 1.444 . S
C2927 C1892 1.549 . S
C2921 C341 1.537 . S
C2941 C362 1.432 . S
C2947 C1949 1.437 . S
C2961 C402 1.519 . S
C2967 C1973 1.532 . S
C2987 C2036 1.492 . S
C2981 C455 1.495 . S
C3001 C495 1.426 . S
C3007 C2030 1.424 . S
C3021 C541 1.533 . S
C3027 C1886 1.539 . S
C3041 C575 1.485 . S
C3047 C1925 1.484 . S
C3061 C621 1.558 . S
C3067 C1997 1.558 . S
C3087 C1694 1.514 . S
C3081 C335 1.518 . S
C3101 C375 1.441 . S
C3107 C2078 1.435 . S
C3127 C1781 1.552 . S
C3121 C421 1.545 . S
C3141 C461 1.500 . S
C3147 C2132 1.503 . S
C3161 C482 1.445 . S
C3167 C1502 1.451 . S
C3187 C2174 1.512 . S
C3181 C535 1.517 . S
C3201 C581 1.504 . S
C3207 C1613 1.502 . S
C3227 C2228 1.523 . S
C3221 C602 1.514 . S
C3241 C322 1.520 . S
C3247 C2126 1.526 . S
C3267 C2180 1.443 . S
C3261 C501 1.427 . S
C3281 C522 1.535 . S
C3287 C1589 1.543 . S
C3307 C2222 1.509 . S
C3301 C562 1.503 . S
C3321 C615 1.513 . S
C3327 C1508 1.508 . S
C3341 C415 1.522 . S
C3347 C2084 1.518 . S
C3361 C442 1.497 . S
C3367 C1805 1.496 . S
C3381 C381 1.449 . S
C3387 C1700 1.453 . S
C3401 C661 1.528 . S
C3407 C1982 1.546 . S
C3427 C2045 1.429 . S
C3421 C682 1.434 . S
C3441 C722 1.519 . S
C3447 C1901 1.528 . S
C3461 C775 1.496 . S
C3467 C1940 1.495 . S
C3481 C815 1.429 . S
C3487 C1934 1.429 . S
C3501 C861 1.531 . S
C3507 C1988 1.543 . S
C3527 C2021 1.484 . S
C3521 C895 1.486 . S
C3541 C941 1.551 . S
C3547 C1877 1.563 . S
C3567 C2261 1.515 . S
C3561 C655 1.516 . S
C3581 C695 1.441 . S
C3587 C1733 1.440 . S
C3607 C2324 1.553 . S
C3601 C741 1.539 . S
C3621 C781 1.497 . S
C3627 C1853 1.504 . S
C3641 C802 1.439 . S
C3647 C2366 1.454 . S
C3661 C855 1.516 . S
C3667 C1550 1.510 . S
C3687 C2429 1.500 . S
C3681 C901 1.504 . S
C3701 C922 1.516 . S
C3707 C1652 1.522 . S
C3727 C1829 1.528 . S
C3721 C642 1.515 . S
C3747 C1556 1.441 . S
C3741 C821 1.423 . S
C3761 C842 1.525 . S
C3767 C2405 1.545 . S
C3781 C882 1.502 . S
C3787 C1646 1.503 . S
C3807 C2372 1.513 . S
C3801 C935 1.514 . S
C3827 C1757 1.511 . S
C3821 C735 1.520 . S
C3847 C2318 1.498 . S
C3841 C762 1.489 . S
C3867 C2285 1.452 . S
C3861 C701 1.444 . S
C3881 C981 1.528 . S
C3887 C1406 1.547 . S
C3901 C1002 1.428 . S
C3907 C1469 1.437 . S
C3927 C1316 1.527 . S
C3921 C1042 1.509 . S
C3947 C1364 1.492 . S
C3941 C1095 1.495 . S
C3967 C1358 1.423 . S
C3961 C1135 1.429 . S
C3987 C1412 1.541 . S
C3981 C1181 1.523 . S
C4007 C1445 1.483 . S
C4001 C1215 1.486 . S
C4021 C1261 1.557 . S
C4027 C1310 1.561 . S
C4041 C975 1.518 . S
C4047 C2357 1.516 . S
C4067 C2165 1.435 . S
C4061 C1015 1.439 . S
C4087 C2420 1.552 . S
C4081 C1061 1.536 . S
C4107 C2237 1.501 . S
C4101 C1101 1.492 . S
C4121 C1122 1.444 . S
C4127 C2270 1.460 . S
C4147 C2069 1.516 . S
C4141 C1175 1.518 . S
C4167 C2333 1.506 . S
C4161 C1221 1.502 . S
C4181 C1242 1.518 . S
C4187 C2141 1.519 . S
C4207 C2213 1.532 . S
C4201 C962 1.522 . S
C4227 C2093 1.436 . S
C4221 C1141 1.428 . S
C4247 C2309 1.543 . S
C4241 C1162 1.533 . S
C4261 C1202 1.507 . S
C4267 C2117 1.508 . S
C4281 C1255 1.511 . S
C4287 C2276 1.506 . S
C4301 C1055 1.519 . S
C4307 C2189 1.513 . S
C4321 C1082 1.493 . S
C4327 C2414 1.493 . S
C4347 C2381 1.452 . S
C4341 C1021 1.454 . S
