# Generated by pormake.
# Topology rtl, (3,6)-cn, num edge types: 1
# Building blocks:
#     Node 0, Type 0, BuildingBlock: VETTIZ_charged_linker_0, # of connection points: 3
#     Node 1, Type 0, BuildingBlock: VETTIZ_charged_linker_0, # of connection points: 3
#     Node 2, Type 0, BuildingBlock: VETTIZ_charged_linker_0, # of connection points: 3
#     Node 3, Type 0, BuildingBlock: VETTIZ_charged_linker_0, # of connection points: 3
#     Node 4, Type 1, BuildingBlock: FUNLAD_clean_sbu_0, # of connection points: 6
#     Node 5, Type 1, BuildingBlock: FUNLAD_clean_sbu_0, # of connection points: 6
#     Edge 6, Type (0, 1), BuildingBlock: TEMPAE_clean_linker_10, # of connection points: 2
#     Edge 7, Type (0, 1), BuildingBlock: TEMPAE_clean_linker_10, # of connection points: 2
#     Edge 8, Type (0, 1), BuildingBlock: TEMPAE_clean_linker_10, # of connection points: 2
#     Edge 9, Type (0, 1), BuildingBlock: TEMPAE_clean_linker_10, # of connection points: 2
#     Edge 10, Type (0, 1), BuildingBlock: TEMPAE_clean_linker_10, # of connection points: 2
#     Edge 11, Type (0, 1), BuildingBlock: TEMPAE_clean_linker_10, # of connection points: 2
#     Edge 12, Type (0, 1), BuildingBlock: TEMPAE_clean_linker_10, # of connection points: 2
#     Edge 13, Type (0, 1), BuildingBlock: TEMPAE_clean_linker_10, # of connection points: 2
#     Edge 14, Type (0, 1), BuildingBlock: TEMPAE_clean_linker_10, # of connection points: 2
#     Edge 15, Type (0, 1), BuildingBlock: TEMPAE_clean_linker_10, # of connection points: 2
#     Edge 16, Type (0, 1), BuildingBlock: TEMPAE_clean_linker_10, # of connection points: 2
#     Edge 17, Type (0, 1), BuildingBlock: TEMPAE_clean_linker_10, # of connection points: 2
# Relax obj value: 0.029
# Max RMSD: 0.096
# Mean RMSD: 0.081
data_MOF--net-rtl--node1-FUNLAD_clean_sbu_0--node2-VETTIZ_charged_linker_0--edge1-TEMPAE_clean_linker_10
_symmetry_space_group_name_H-M    P1
_symmetry_Int_Tables_number       1
_symmetry_cell_setting            triclinic
loop_
_symmetry_equiv_pos_as_xyz
'x, y, z'
_cell_length_a     49.11231
_cell_length_b     39.868134
_cell_length_c     28.569647
_cell_angle_alpha  90.011019
_cell_angle_beta   90.917796
_cell_angle_gamma 90.592467
loop_
_atom_site_label
_atom_site_type_symbol
_atom_site_fract_x
_atom_site_fract_y
_atom_site_fract_z
_atom_type_partial_charge
C0 C 0.10095 0.79868 0.872 0.0
C1 C 0.08256 0.82563 0.8699 0.0
C2 C 0.07286 0.83894 0.9122 0.0
C3 C 0.09906 0.79876 0.95685 0.0
C4 C 0.1091 0.78595 0.91576 0.0
C5 C 0.12991 0.75909 0.9248 0.0
H6 H 0.20781 0.67393 0.08147 0.0
C7 C 0.11174 0.78057 0.9963 0.0
C8 C 0.13 0.7574 0.97802 0.0
H9 H 0.2116 0.67233 0.93037 0.0
H10 H 0.17224 0.70787 0.92504 0.0
H11 H 0.19597 0.75321 0.09258 0.0
H12 H 0.14179 0.66739 0.08546 0.0
H13 H 0.12794 0.69609 0.12494 0.0
H14 H 0.16066 0.67765 0.13792 0.0
H15 H 0.19538 0.72076 0.13623 0.0
H16 H 0.17228 0.75528 0.13828 0.0
C17 C 0.15758 0.77165 0.90562 0.0
C18 C 0.11926 0.72601 0.90247 0.0
C19 C 0.08508 0.81039 0.16119 0.0
C20 C 0.09184 0.79759 0.20567 0.0
C21 C 0.11025 0.77064 0.20877 0.0
C22 C 0.1218 0.75708 0.16829 0.0
C23 C 0.11484 0.77051 0.12421 0.0
C24 C 0.09637 0.79631 0.12139 0.0
C25 C 0.09032 0.80682 0.07198 0.0
C26 C 0.10828 0.78313 0.04529 0.0
C27 C 0.12297 0.76226 0.07588 0.0
C28 C 0.0995 0.84398 0.06634 0.0
C29 C 0.05963 0.80003 0.06179 0.0
C30 C 0.20014 0.68131 0.04728 0.0
C31 C 0.213 0.67062 0.00632 0.0
C32 C 0.20202 0.6801 0.96244 0.0
C33 C 0.17933 0.70104 0.9594 0.0
C34 C 0.16751 0.71281 0.00065 0.0
C35 C 0.17751 0.70232 0.04366 0.0
C36 C 0.1621 0.7171 0.08372 0.0
C37 C 0.14215 0.73946 0.05767 0.0
C38 C 0.14546 0.73687 0.00898 0.0
C39 C 0.18237 0.7376 0.1147 0.0
C40 C 0.14744 0.68822 0.1098 0.0
H41 H 0.0726 0.83698 0.98595 0.0
H42 H 0.10897 0.78776 0.84046 0.0
H43 H 0.09704 0.72284 0.90831 0.0
H44 H 0.12875 0.70353 0.91799 0.0
H45 H 0.12253 0.72588 0.86409 0.0
H46 H 0.15939 0.79946 0.90783 0.0
H47 H 0.1599 0.76452 0.86832 0.0
H48 H 0.17524 0.76242 0.92606 0.0
H49 H 0.07156 0.8315 0.15709 0.0
H50 H 0.11566 0.75993 0.24242 0.0
H51 H 0.13579 0.73679 0.17285 0.0
H52 H 0.11686 0.85029 0.09038 0.0
H53 H 0.08269 0.8614 0.07429 0.0
H54 H 0.10724 0.84961 0.03103 0.0
H55 H 0.05257 0.77688 0.0799 0.0
H56 H 0.05496 0.7954 0.0244 0.0
H57 H 0.047 0.82111 0.07419 0.0
H58 H 0.0595 0.86037 0.91223 0.0
C59 C 0.08078 0.82554 0.95536 0.0
C60 C 0.59667 0.70459 0.65603 0.0
C61 C 0.57482 0.68145 0.65716 0.0
C62 C 0.55945 0.67546 0.61585 0.0
C63 C 0.58925 0.7123 0.57256 0.0
C64 C 0.60341 0.71979 0.61344 0.0
C65 C 0.6264 0.74431 0.60535 0.0
H66 H 0.70606 0.82774 0.45223 0.0
C67 C 0.60246 0.73024 0.53382 0.0
C68 C 0.62396 0.74956 0.55271 0.0
H69 H 0.71275 0.82619 0.60331 0.0
H70 H 0.67143 0.79317 0.60744 0.0
H71 H 0.68891 0.74909 0.44042 0.0
H72 H 0.64152 0.83938 0.44689 0.0
H73 H 0.6254 0.81257 0.406 0.0
H74 H 0.65945 0.82795 0.39512 0.0
H75 H 0.68986 0.78113 0.39627 0.0
H76 H 0.66443 0.74846 0.39474 0.0
C77 C 0.6534 0.72699 0.61952 0.0
C78 C 0.62057 0.77686 0.63293 0.0
C79 C 0.57483 0.70106 0.36727 0.0
C80 C 0.58389 0.71163 0.32315 0.0
C81 C 0.60351 0.73774 0.32118 0.0
C82 C 0.61464 0.75188 0.36236 0.0
C83 C 0.60608 0.73988 0.40606 0.0
C84 C 0.58587 0.71564 0.40782 0.0
C85 C 0.57839 0.70663 0.45699 0.0
C86 C 0.59812 0.72871 0.48469 0.0
C87 C 0.61458 0.74777 0.45479 0.0
C88 C 0.5842 0.66879 0.46418 0.0
C89 C 0.54832 0.71667 0.46458 0.0
C90 C 0.69862 0.82019 0.48617 0.0
C91 C 0.7128 0.82932 0.52747 0.0
C92 C 0.70214 0.81962 0.571 0.0
C93 C 0.67826 0.80022 0.57332 0.0
C94 C 0.66491 0.7902 0.53168 0.0
C95 C 0.67481 0.80074 0.48908 0.0
C96 C 0.65779 0.78795 0.44849 0.0
C97 C 0.63623 0.76767 0.47378 0.0
C98 C 0.64071 0.76879 0.5225 0.0
C99 C 0.67605 0.76558 0.41799 0.0
C100 C 0.64546 0.81838 0.42233 0.0
H101 H 0.55433 0.68454 0.54344 0.0
H102 H 0.60881 0.70991 0.68717 0.0
H103 H 0.59829 0.78098 0.63598 0.0
H104 H 0.62831 0.79961 0.61519 0.0
H105 H 0.62934 0.77575 0.66897 0.0
H106 H 0.65336 0.70051 0.6072 0.0
H107 H 0.65625 0.72676 0.65817 0.0
H108 H 0.67149 0.7387 0.6038 0.0
H109 H 0.56008 0.68089 0.37065 0.0
H110 H 0.61049 0.74708 0.28783 0.0
H111 H 0.62978 0.77125 0.35861 0.0
H112 H 0.60386 0.66195 0.44807 0.0
H113 H 0.56794 0.65303 0.44764 0.0
H114 H 0.58627 0.66149 0.50123 0.0
H115 H 0.54177 0.73671 0.43988 0.0
H116 H 0.54511 0.72747 0.49977 0.0
H117 H 0.53428 0.69494 0.45926 0.0
H118 H 0.54203 0.65857 0.61598 0.0
C119 C 0.56652 0.69074 0.57371 0.0
C120 C 0.91215 0.19571 0.15607 0.0
C121 C 0.93373 0.17273 0.15814 0.0
C122 C 0.94853 0.16638 0.11726 0.0
C123 C 0.91903 0.20311 0.07274 0.0
C124 C 0.90525 0.21065 0.1131 0.0
C125 C 0.8826 0.23514 0.10411 0.0
H126 H 0.80391 0.31964 0.94843 0.0
C127 C 0.90596 0.22118 0.03351 0.0
C128 C 0.88482 0.24039 0.05155 0.0
H129 H 0.79879 0.31846 0.09948 0.0
H130 H 0.83866 0.28397 0.10458 0.0
H131 H 0.86967 0.33062 0.94679 0.0
H132 H 0.8195 0.24134 0.93564 0.0
H133 H 0.84418 0.2407 0.89159 0.0
H134 H 0.81951 0.27367 0.89184 0.0
H135 H 0.85035 0.32089 0.89457 0.0
H136 H 0.88402 0.30429 0.90466 0.0
C137 C 0.88911 0.26771 0.13195 0.0
C138 C 0.85541 0.21777 0.11722 0.0
C139 C 0.93514 0.1955 0.86854 0.0
C140 C 0.92665 0.20657 0.82397 0.0
C141 C 0.90645 0.2315 0.82098 0.0
C142 C 0.89454 0.24436 0.86158 0.0
C143 C 0.9029 0.23225 0.90571 0.0
C144 C 0.92332 0.20877 0.90847 0.0
C145 C 0.93032 0.19912 0.95789 0.0
C146 C 0.91034 0.2202 0.98463 0.0
C147 C 0.89407 0.2393 0.95405 0.0
C148 C 0.96029 0.20984 0.9683 0.0
C149 C 0.92444 0.16101 0.96334 0.0
C150 C 0.81155 0.31227 0.98263 0.0
C151 C 0.79787 0.32145 0.02357 0.0
C152 C 0.80852 0.31115 0.06734 0.0
C153 C 0.83178 0.29121 0.07028 0.0
C154 C 0.84463 0.2813 0.02906 0.0
C155 C 0.83484 0.29233 0.9862 0.0
C156 C 0.85155 0.27973 0.94621 0.0
C157 C 0.87272 0.25901 0.9722 0.0
C158 C 0.86834 0.25977 0.02071 0.0
C159 C 0.86452 0.31032 0.92131 0.0
C160 C 0.83285 0.25782 0.91426 0.0
H161 H 0.95315 0.175 0.04491 0.0
H162 H 0.90041 0.20126 0.18683 0.0
H163 H 0.85494 0.19132 0.10475 0.0
H164 H 0.83741 0.22953 0.10092 0.0
H165 H 0.85281 0.21743 0.15577 0.0
H166 H 0.91146 0.2716 0.13656 0.0
H167 H 0.88012 0.26683 0.16737 0.0
H168 H 0.88204 0.2905 0.11354 0.0
H169 H 0.95017 0.17601 0.87264 0.0
H170 H 0.89974 0.24099 0.78726 0.0
H171 H 0.87908 0.26297 0.85703 0.0
H172 H 0.9667 0.2312 0.9458 0.0
H173 H 0.9745 0.18889 0.96194 0.0
H174 H 0.96339 0.21916 0.00452 0.0
H175 H 0.90542 0.1537 0.94406 0.0
H176 H 0.92101 0.15326 -0.00018 0.0
H177 H 0.94129 0.14592 0.94908 0.0
H178 H 0.96571 0.14955 0.11808 0.0
C179 C 0.94132 0.18139 0.07474 0.0
C180 C 0.42294 0.2916 0.35948 0.0
C181 C 0.44162 0.3187 0.35837 0.0
C182 C 0.45188 0.33169 0.40118 0.0
C183 C 0.42502 0.29149 0.44441 0.0
C184 C 0.41474 0.27872 0.40276 0.0
C185 C 0.39336 0.252 0.41057 0.0
H186 H 0.31132 0.17084 0.56221 0.0
C187 C 0.41175 0.27359 0.48313 0.0
C188 C 0.39307 0.25047 0.46377 0.0
H189 H 0.30994 0.16572 0.41096 0.0
H190 H 0.35037 0.20049 0.40825 0.0
H191 H 0.37695 0.16162 0.57263 0.0
H192 H 0.326 0.24907 0.57221 0.0
H193 H 0.3491 0.25116 0.62013 0.0
H194 H 0.32491 0.21722 0.61668 0.0
H195 H 0.35846 0.17378 0.62343 0.0
H196 H 0.39194 0.1907 0.61165 0.0
C197 C 0.40341 0.2188 0.38909 0.0
C198 C 0.36604 0.2647 0.38952 0.0
C199 C 0.43617 0.30612 0.64976 0.0
C200 C 0.42831 0.2941 0.69386 0.0
C201 C 0.40977 0.26682 0.69576 0.0
C202 C 0.39893 0.25239 0.65451 0.0
C203 C 0.40677 0.26525 0.61086 0.0
C204 C 0.42558 0.29115 0.60921 0.0
C205 C 0.43258 0.30091 0.56015 0.0
C206 C 0.41471 0.27673 0.53234 0.0
C207 C 0.39924 0.2563 0.56204 0.0
C208 C 0.46331 0.29406 0.55327 0.0
C209 C 0.42408 0.33794 0.55249 0.0
C210 C 0.31994 0.17678 0.52853 0.0
C211 C 0.30711 0.16597 0.48671 0.0
C212 C 0.31904 0.17437 0.44363 0.0
C213 C 0.34253 0.19454 0.44211 0.0
C214 C 0.3542 0.20666 0.48409 0.0
C215 C 0.34336 0.19701 0.52642 0.0
C216 C 0.35874 0.21201 0.56747 0.0
C217 C 0.37971 0.23353 0.54266 0.0
C218 C 0.37686 0.23038 0.49379 0.0
C219 C 0.37214 0.1832 0.59567 0.0
C220 C 0.33877 0.23343 0.596 0.0
H221 H 0.45242 0.32941 0.47497 0.0
H222 H 0.41458 0.28082 0.32752 0.0
H223 H 0.3646 0.29246 0.39246 0.0
H224 H 0.34806 0.2551 0.40813 0.0
H225 H 0.364 0.25815 0.35183 0.0
H226 H 0.42564 0.21577 0.39567 0.0
H227 H 0.39983 0.21832 0.35061 0.0
H228 H 0.39377 0.1964 0.40474 0.0
H229 H 0.44988 0.3274 0.64645 0.0
H230 H 0.40361 0.25657 0.72909 0.0
H231 H 0.38472 0.23198 0.65816 0.0
H232 H 0.4698 0.27142 0.57313 0.0
H233 H 0.47604 0.31551 0.56588 0.0
H234 H 0.46839 0.28853 0.51657 0.0
H235 H 0.4062 0.34438 0.57406 0.0
H236 H 0.41736 0.34316 0.51613 0.0
H237 H 0.44089 0.35555 0.56231 0.0
H238 H 0.46558 0.35314 0.40198 0.0
C239 C 0.44392 0.31809 0.44391 0.0
C240 C 0.02526 0.95265 0.45362 0.0
N241 N 0.06745 0.03445 0.51229 0.0
C242 C 0.08922 0.01368 0.5152 0.0
C243 C 0.11566 0.0266 0.51291 0.0
C244 C 0.11978 0.06127 0.5077 0.0
C245 C 0.09696 0.0822 0.50518 0.0
C246 C 0.07083 0.06818 0.50747 0.0
Zn247 Zn 0.02932 0.01371 0.51443 0.0
C248 C 0.99213 0.04116 0.44271 0.0
N249 N 0.95079 0.96729 0.51927 0.0
C250 C 0.9478 0.93337 0.52143 0.0
C251 C 0.92878 0.98774 0.51826 0.0
C252 C 0.90248 0.97422 0.51944 0.0
C253 C 0.89875 0.93928 0.52155 0.0
C254 C 0.92186 0.91877 0.52254 0.0
Zn255 Zn 0.98884 0.98827 0.51718 0.0
O256 O 0.04142 0.97585 0.46727 0.0
C257 C 0.02601 0.96074 0.58859 0.0
O258 O 0.00101 0.95176 0.46836 0.0
H259 H 0.93161 0.01465 0.51658 0.0
H260 H 0.08609 0.98695 0.51919 0.0
H261 H 0.96557 0.91757 0.5221 0.0
O262 O 0.04149 0.98356 0.57243 0.0
O263 O 0.0022 0.95666 0.57149 0.0
H264 H 0.05323 0.08421 0.50507 0.0
O265 O 0.97739 0.02487 0.56699 0.0
O266 O 0.01652 0.05158 0.56062 0.0
O267 O 0.97599 0.02031 0.46182 0.0
O268 O 0.01665 0.04332 0.45733 0.0
C269 C 0.99294 0.04939 0.57804 0.0
H270 H 0.1327 0.00964 0.51558 0.0
H271 H 0.09927 0.10905 0.50069 0.0
H272 H 0.88528 0.99099 0.51922 0.0
H273 H 0.91993 0.8917 0.52354 0.0
C274 C 0.49011 0.45323 0.94611 0.0
N275 N 0.56605 0.46894 0.01115 0.0
C276 C 0.56838 0.43497 0.01187 0.0
C277 C 0.594 0.42018 0.01131 0.0
C278 C 0.6175 0.44051 0.01019 0.0
C279 C 0.61452 0.47551 0.00984 0.0
C280 C 0.58847 0.48927 0.01019 0.0
Zn281 Zn 0.52807 0.48951 0.01043 0.0
C282 C 0.52284 0.54284 0.93709 0.0
N283 N 0.449 0.53323 0.00712 0.0
C284 C 0.42694 0.51244 0.00987 0.0
C285 C 0.4461 0.56706 0.00417 0.0
C286 C 0.42021 0.58121 0.0041 0.0
C287 C 0.39704 0.56035 0.00696 0.0
C288 C 0.40068 0.52551 0.00978 0.0
Zn289 Zn 0.48707 0.51296 0.00796 0.0
O290 O 0.51461 0.45339 0.96093 0.0
C291 C 0.49233 0.45963 0.08108 0.0
O292 O 0.47382 0.47553 0.95999 0.0
H293 H 0.46391 0.58315 0.00209 0.0
H294 H 0.55032 0.41925 0.0128 0.0
H295 H 0.4297 0.48561 0.01215 0.0
O296 O 0.51593 0.45695 0.0641 0.0
O297 O 0.47616 0.48173 0.0652 0.0
H298 H 0.58616 0.51621 0.00943 0.0
O299 O 0.50101 0.55036 0.05496 0.0
O300 O 0.54077 0.52574 0.06093 0.0
O301 O 0.49856 0.54364 0.95165 0.0
O302 O 0.53964 0.52257 0.95575 0.0
C303 C 0.52495 0.54932 0.07231 0.0
H304 H 0.59541 0.39309 0.01227 0.0
H305 H 0.63212 0.49207 0.00859 0.0
H306 H 0.41839 0.60824 0.00251 0.0
H307 H 0.38342 0.50845 0.0114 0.0
C308 C 0.27549 0.12334 0.5219 0.0
C309 C 0.2805 0.14795 0.48794 0.0
C310 C 0.24976 0.10793 0.52528 0.0
C311 C 0.2286 0.11731 0.49385 0.0
C312 C 0.23369 0.1416 0.45888 0.0
C313 C 0.25954 0.15668 0.45643 0.0
C314 C 0.24508 0.08205 0.56297 0.0
C315 C 0.21164 0.15222 0.42469 0.0
C316 C 0.16719 0.05973 0.47682 0.0
C317 C 0.14776 0.07543 0.50459 0.0
C318 C 0.19368 0.07291 0.47331 0.0
C319 C 0.20089 0.10244 0.49825 0.0
C320 C 0.18143 0.11827 0.5266 0.0
C321 C 0.15507 0.1046 0.52936 0.0
C322 C 0.21383 0.05549 0.44247 0.0
C323 C 0.18843 0.14972 0.5539 0.0
H324 H 0.29168 0.1162 0.54601 0.0
H325 H 0.26308 0.17608 0.4306 0.0
H326 H 0.22911 0.09082 0.58698 0.0
H327 H 0.23764 0.05821 0.54709 0.0
H328 H 0.26386 0.07692 0.58385 0.0
H329 H 0.21925 0.17036 0.3983 0.0
H330 H 0.20304 0.13 0.4061 0.0
H331 H 0.19476 0.164 0.44388 0.0
H332 H 0.16154 0.0374 0.45716 0.0
H333 H 0.14022 0.11657 0.55133 0.0
H334 H 0.2323 0.04882 0.46315 0.0
H335 H 0.22039 0.07267 0.41417 0.0
H336 H 0.20519 0.03229 0.42628 0.0
H337 H 0.20603 0.14508 0.57778 0.0
H338 H 0.17111 0.15861 0.57496 0.0
H339 H 0.19454 0.17004 0.52957 0.0
C340 C 0.24323 0.62442 0.97906 0.0
C341 C 0.23877 0.65154 0.00915 0.0
C342 C 0.26832 0.60784 0.97923 0.0
C343 C 0.28946 0.61881 0.01003 0.0
C344 C 0.28487 0.64569 0.0412 0.0
C345 C 0.25957 0.66169 0.04043 0.0
C346 C 0.27239 0.57905 0.9458 0.0
C347 C 0.30695 0.65822 0.0744 0.0
C348 C 0.34929 0.5619 0.03695 0.0
C349 C 0.36926 0.57487 0.00715 0.0
C350 C 0.3231 0.57564 0.03783 0.0
C351 C 0.31677 0.60312 0.00841 0.0
C352 C 0.33676 0.6162 0.97806 0.0
C353 C 0.36272 0.60187 0.97771 0.0
C354 C 0.3023 0.56101 0.07063 0.0
C355 C 0.33078 0.64552 0.94617 0.0
H356 H 0.22711 0.61627 0.95518 0.0
H357 H 0.25637 0.68293 0.06331 0.0
H358 H 0.28858 0.58564 0.92067 0.0
H359 H 0.27924 0.55652 0.96529 0.0
H360 H 0.2535 0.57256 0.92573 0.0
H361 H 0.29971 0.67839 0.09782 0.0
H362 H 0.31467 0.63729 0.09628 0.0
H363 H 0.32437 0.66811 0.05415 0.0
H364 H 0.35426 0.54133 0.06025 0.0
H365 H 0.37788 0.61168 0.95404 0.0
H366 H 0.28367 0.55339 0.05072 0.0
H367 H 0.29623 0.58028 0.09636 0.0
H368 H 0.31013 0.53888 0.09003 0.0
H369 H 0.31326 0.63935 0.92261 0.0
H370 H 0.34849 0.65254 0.92441 0.0
H371 H 0.325 0.66763 0.96726 0.0
C372 C 0.74533 0.87402 0.55589 0.0
C373 C 0.73927 0.84745 0.52517 0.0
C374 C 0.77082 0.89027 0.55533 0.0
C375 C 0.79071 0.87953 0.52345 0.0
C376 C 0.78458 0.853 0.49196 0.0
C377 C 0.75892 0.83731 0.49316 0.0
C378 C 0.77657 0.91866 0.58917 0.0
C379 C 0.80533 0.84072 0.45764 0.0
C380 C 0.84998 0.93727 0.49409 0.0
C381 C 0.87092 0.92432 0.52256 0.0
C382 C 0.82368 0.92321 0.49443 0.0
C383 C 0.81822 0.89542 0.52375 0.0
C384 C 0.8392 0.88232 0.55273 0.0
C385 C 0.86527 0.89697 0.55186 0.0
C386 C 0.80181 0.93785 0.46305 0.0
C387 C 0.83414 0.85269 0.58446 0.0
H388 H 0.73009 0.88215 0.58034 0.0
H389 H 0.75447 0.81647 0.4698 0.0
H390 H 0.7938 0.91202 0.61287 0.0
H391 H 0.78272 0.94155 0.56976 0.0
H392 H 0.75864 0.92462 0.61077 0.0
H393 H 0.79707 0.82046 0.4346 0.0
H394 H 0.8124 0.86176 0.43537 0.0
H395 H 0.8234 0.83105 0.47691 0.0
H396 H 0.85427 0.95811 0.47089 0.0
H397 H 0.88122 0.88716 0.57448 0.0
H398 H 0.78406 0.94523 0.48413 0.0
H399 H 0.79451 0.91866 0.43752 0.0
H400 H 0.80915 0.96014 0.44343 0.0
H401 H 0.8176 0.85848 0.60911 0.0
H402 H 0.8526 0.84567 0.60505 0.0
H403 H 0.82732 0.83069 0.56339 0.0
C404 C 0.76901 0.36723 0.98903 0.0
C405 C 0.77209 0.34065 0.02082 0.0
C406 C 0.7445 0.385 0.98576 0.0
C407 C 0.72262 0.37604 0.01508 0.0
C408 C 0.72567 0.34941 0.04742 0.0
C409 C 0.7503 0.33199 0.04976 0.0
C410 C 0.74196 0.41325 0.95082 0.0
C411 C 0.7028 0.33907 0.07926 0.0
C412 C 0.66596 0.43766 0.03871 0.0
C413 C 0.64491 0.42517 0.00967 0.0
C414 C 0.69159 0.42237 0.04009 0.0
C415 C 0.69628 0.39402 0.01158 0.0
C416 C 0.67531 0.38181 0.98135 0.0
C417 C 0.64987 0.39749 0.98084 0.0
C418 C 0.71339 0.43598 0.07298 0.0
C419 C 0.6796 0.3518 0.95016 0.0
H420 H 0.78584 0.37431 0.96692 0.0
H421 H 0.75232 0.31111 0.07382 0.0
H422 H 0.72498 0.40782 0.92578 0.0
H423 H 0.73702 0.43691 0.96912 0.0
H424 H 0.76091 0.41721 0.93076 0.0
H425 H 0.70871 0.31841 0.10331 0.0
H426 H 0.69637 0.36081 0.10051 0.0
H427 H 0.68487 0.33073 0.05803 0.0
H428 H 0.66216 0.45887 0.06136 0.0
H429 H 0.63379 0.38806 0.95781 0.0
H430 H 0.73229 0.44147 0.05353 0.0
H431 H 0.71846 0.41685 0.09985 0.0
H432 H 0.70697 0.45922 0.09101 0.0
H433 H 0.69764 0.356 0.92796 0.0
H434 H 0.66166 0.34643 0.92708 0.0
H435 H 0.68369 0.32931 0.97192 0.0
C436 C 0.05397 0.82686 0.24641 0.0
C437 C 0.08034 0.81352 0.2481 0.0
C438 C 0.04444 0.84709 0.28257 0.0
C439 C 0.06119 0.85299 0.32249 0.0
C440 C 0.08684 0.83725 0.3264 0.0
C441 C 0.09631 0.8181 0.28884 0.0
C442 C 0.01715 0.86386 0.27661 0.0
C443 C 0.10485 0.84199 0.36925 0.0
C444 C 0.05254 0.93591 0.38517 0.0
C445 C 0.03472 0.92696 0.42089 0.0
C446 C 0.06133 0.91199 0.35296 0.0
C447 C 0.05287 0.87809 0.3578 0.0
C448 C 0.03557 0.86874 0.39486 0.0
C449 C 0.02623 0.89349 0.4255 0.0
C450 C 0.07908 0.92317 0.31306 0.0
C451 C 0.02698 0.83268 0.40215 0.0
H452 H 0.04103 0.82251 0.21589 0.0
H453 H 0.1167 0.80803 0.29071 0.0
H454 H 0.00415 0.85866 0.30717 0.0
H455 H 0.02016 0.89146 0.2747 0.0
H456 H 0.00608 0.85545 0.2444 0.0
H457 H 0.12195 0.82395 0.37016 0.0
H458 H 0.11353 0.86778 0.3695 0.0
H459 H 0.09286 0.83892 0.40159 0.0
H460 H 0.05899 0.96187 0.38165 0.0
H461 H 0.0127 0.88659 0.45363 0.0
H462 H 0.06894 0.9169 0.27913 0.0
H463 H 0.0987 0.90967 0.31437 0.0
H464 H 0.08343 0.95057 0.31391 0.0
H465 H 0.01431 0.82389 0.37202 0.0
H466 H 0.01515 0.82924 0.43465 0.0
H467 H 0.04519 0.81644 0.40403 0.0
C468 C 0.56915 0.67816 0.74435 0.0
C469 C 0.56853 0.66245 0.7004 0.0
C470 C 0.56271 0.6602 0.78506 0.0
C471 C 0.55537 0.62584 0.78156 0.0
C472 C 0.55503 0.60979 0.73741 0.0
C473 C 0.56178 0.62822 0.69748 0.0
C474 C 0.56344 0.67803 0.83169 0.0
C475 C 0.54728 0.57318 0.73224 0.0
C476 C 0.55889 0.56747 0.88623 0.0
C477 C 0.53143 0.56525 0.89871 0.0
C478 C 0.56715 0.58805 0.84914 0.0
C479 C 0.54742 0.60658 0.82374 0.0
C480 C 0.51976 0.60495 0.83674 0.0
C481 C 0.5121 0.58439 0.8742 0.0
C482 C 0.59688 0.58941 0.83648 0.0
C483 C 0.49811 0.62415 0.81021 0.0
H484 H 0.57419 0.70464 0.74681 0.0
H485 H 0.56187 0.6157 0.6638 0.0
H486 H 0.54279 0.67791 0.84687 0.0
H487 H 0.57703 0.66464 0.85663 0.0
H488 H 0.57064 0.70444 0.82869 0.0
H489 H 0.54813 0.56446 0.69536 0.0
H490 H 0.56113 0.55752 0.75388 0.0
H491 H 0.52633 0.56891 0.74509 0.0
H492 H 0.57398 0.55297 0.90528 0.0
H493 H 0.49085 0.58288 0.88371 0.0
H494 H 0.60416 0.61582 0.8353 0.0
H495 H 0.59955 0.57863 0.80106 0.0
H496 H 0.60988 0.57533 0.86169 0.0
H497 H 0.50363 0.65117 0.80882 0.0
H498 H 0.47775 0.6215 0.82625 0.0
H499 H 0.49671 0.61495 0.77358 0.0
C500 C 0.94715 0.12041 0.20037 0.0
C501 C 0.94054 0.15454 0.20208 0.0
C502 C 0.95474 0.10292 0.24092 0.0
C503 C 0.95542 0.11982 0.28446 0.0
C504 C 0.94812 0.15404 0.28675 0.0
C505 C 0.94083 0.17106 0.24544 0.0
C506 C 0.96241 0.06642 0.23703 0.0
C507 C 0.94843 0.17276 0.3327 0.0
C508 C 0.95474 0.06359 0.39154 0.0
C509 C 0.98252 0.06253 0.40365 0.0
C510 C 0.94548 0.08308 0.35375 0.0
C511 C 0.96449 0.10166 0.32722 0.0
C512 C 0.99248 0.10119 0.3398 0.0
C513 C 0.00114 0.08174 0.37801 0.0
C514 C 0.91545 0.08324 0.3416 0.0
C515 C 0.01338 0.12045 0.31208 0.0
H516 H 0.94636 0.10727 0.16716 0.0
H517 H 0.93591 0.19747 0.24698 0.0
H518 H 0.98371 0.063 0.24952 0.0
H519 H 0.94918 0.05084 0.25963 0.0
H520 H 0.96059 0.05692 0.20055 0.0
H521 H 0.94092 0.19882 0.32885 0.0
H522 H 0.93561 0.15936 0.35845 0.0
H523 H 0.96947 0.17374 0.3474 0.0
H524 H 0.9402 0.04903 0.41145 0.0
H525 H 0.02263 0.08109 0.3872 0.0
H526 H 0.91194 0.07163 0.30669 0.0
H527 H 0.90802 0.10939 0.33949 0.0
H528 H 0.90314 0.0693 0.36761 0.0
H529 H 0.01387 0.11056 0.27579 0.0
H530 H 0.03416 0.11872 0.32777 0.0
H531 H 0.00776 0.14728 0.30976 0.0
C532 C 0.42177 0.31578 0.77565 0.0
C533 C 0.43869 0.31123 0.73704 0.0
C534 C 0.43025 0.33571 0.81383 0.0
C535 C 0.45583 0.35234 0.81262 0.0
C536 C 0.47347 0.34669 0.77486 0.0
C537 C 0.46494 0.32561 0.73815 0.0
C538 C 0.41133 0.34013 0.85444 0.0
C539 C 0.50073 0.36442 0.7718 0.0
C540 C 0.46326 0.43564 0.87577 0.0
C541 C 0.48061 0.42722 0.91313 0.0
C542 C 0.45495 0.41139 0.84285 0.0
C543 C 0.46336 0.37773 0.84871 0.0
C544 C 0.48004 0.3689 0.88756 0.0
C545 C 0.48897 0.39397 0.91885 0.0
C546 C 0.4379 0.422 0.80106 0.0
C547 C 0.48849 0.33307 0.89597 0.0
H548 H 0.40144 0.30498 0.77534 0.0
H549 H 0.47861 0.32133 0.70942 0.0
H550 H 0.42263 0.33757 0.88818 0.0
H551 H 0.40261 0.36568 0.85343 0.0
H552 H 0.39427 0.32161 0.85355 0.0
H553 H 0.51234 0.35655 0.74067 0.0
H554 H 0.4976 0.39192 0.76987 0.0
H555 H 0.51326 0.35948 0.80361 0.0
H556 H 0.45695 0.46145 0.87144 0.0
H557 H 0.50214 0.38753 0.94825 0.0
H558 H 0.41836 0.40783 0.80015 0.0
H559 H 0.44871 0.41612 0.76829 0.0
H560 H 0.43338 0.44925 0.80147 0.0
H561 H 0.47033 0.31627 0.89532 0.0
H562 H 0.49942 0.32996 0.93002 0.0
H563 H 0.50202 0.32473 0.86763 0.0
C564 C 0.54758 0.68013 0.27784 0.0
C565 C 0.57406 0.69378 0.28012 0.0
C566 C 0.5395 0.65835 0.2416 0.0
C567 C 0.55792 0.65118 0.20547 0.0
C568 C 0.58386 0.66695 0.20537 0.0
C569 C 0.59181 0.68761 0.24308 0.0
C570 C 0.51181 0.64158 0.24344 0.0
C571 C 0.60367 0.66089 0.16647 0.0
C572 C 0.55029 0.56706 0.14433 0.0
C573 C 0.53425 0.57548 0.10527 0.0
C574 C 0.55815 0.59154 0.17726 0.0
C575 C 0.55065 0.62538 0.16977 0.0
C576 C 0.53531 0.63415 0.12932 0.0
C577 C 0.5268 0.60892 0.09798 0.0
C578 C 0.57377 0.58103 0.2207 0.0
C579 C 0.52787 0.67012 0.11923 0.0
H580 H 0.53331 0.68558 0.30528 0.0
H581 H 0.61236 0.69772 0.24433 0.0
H582 H 0.50015 0.64623 0.21058 0.0
H583 H 0.51428 0.61403 0.24672 0.0
H584 H 0.49965 0.65051 0.27335 0.0
H585 H 0.62121 0.6787 0.16795 0.0
H586 H 0.61161 0.63501 0.1691 0.0
H587 H 0.59331 0.66325 0.13183 0.0
H588 H 0.55588 0.54111 0.14993 0.0
H589 H 0.51463 0.61537 0.06734 0.0
H590 H 0.56221 0.58787 0.25232 0.0
H591 H 0.59361 0.59451 0.22279 0.0
H592 H 0.57763 0.55362 0.22152 0.0
H593 H 0.51394 0.67942 0.14636 0.0
H594 H 0.51778 0.67303 0.08441 0.0
H595 H 0.5464 0.68628 0.12053 0.0
C596 C 0.96489 0.17903 0.7817 0.0
C597 C 0.9379 0.19044 0.78143 0.0
C598 C 0.97439 0.15835 0.74597 0.0
C599 C 0.95689 0.15001 0.70784 0.0
C600 C 0.93047 0.16382 0.70514 0.0
C601 C 0.92112 0.18345 0.7423 0.0
C602 C 0.00256 0.14371 0.75063 0.0
C603 C 0.91157 0.15649 0.66413 0.0
C604 C 0.99043 0.10902 0.60372 0.0
C605 C 0.98353 0.07522 0.61065 0.0
C606 C 0.98108 0.13392 0.63411 0.0
C607 C 0.96542 0.12448 0.67325 0.0
C608 C 0.95865 0.09026 0.68051 0.0
C609 C 0.96736 0.0661 0.64856 0.0
C610 C 0.9878 0.17024 0.62425 0.0
C611 C 0.94271 0.07905 0.72261 0.0
H612 H 0.97839 0.18521 0.81087 0.0
H613 H 0.90024 0.19194 0.74154 0.0
H614 H 0.0009 0.11606 0.75457 0.0
H615 H 0.01441 0.1487 0.71865 0.0
H616 H 0.01408 0.15396 0.78129 0.0
H617 H 0.89362 0.17322 0.66361 0.0
H618 H 0.92249 0.15939 0.63064 0.0
H619 H 0.90418 0.13015 0.66609 0.0
H620 H 0.00267 0.11603 0.57395 0.0
H621 H 0.96215 0.03989 0.6539 0.0
H622 H 0.00069 0.18078 0.653 0.0
H623 H 0.96883 0.18511 0.62272 0.0
H624 H 0.99872 0.17352 0.59078 0.0
H625 H 0.95349 0.08708 0.75522 0.0
H626 H 0.93973 0.0514 0.72369 0.0
H627 H 0.92243 0.09103 0.72231 0.0
C628 C 0.47554 0.3491 0.30856 0.0
C629 C 0.44948 0.33477 0.31339 0.0
C630 C 0.4822 0.3681 0.26907 0.0
C631 C 0.46276 0.37171 0.23243 0.0
C632 C 0.43706 0.35556 0.23551 0.0
C633 C 0.43054 0.33777 0.27628 0.0
C634 C 0.50968 0.38544 0.26747 0.0
C635 C 0.41616 0.3579 0.19634 0.0
C636 C 0.46852 0.44907 0.15586 0.0
C637 C 0.48376 0.43694 0.11868 0.0
C638 C 0.46146 0.42801 0.19315 0.0
C639 C 0.46895 0.39379 0.19207 0.0
C640 C 0.48342 0.38117 0.15353 0.0
C641 C 0.49115 0.40312 0.11766 0.0
C642 C 0.44677 0.44262 0.23435 0.0
C643 C 0.49084 0.34459 0.1503 0.0
H644 H 0.49069 0.3461 0.33618 0.0
H645 H 0.41026 0.32718 0.27952 0.0
H646 H 0.52082 0.37748 0.23597 0.0
H647 H 0.5069 0.41298 0.26491 0.0
H648 H 0.5225 0.38007 0.29892 0.0
H649 H 0.3986 0.34059 0.20164 0.0
H650 H 0.40839 0.38388 0.19407 0.0
H651 H 0.42555 0.35201 0.16228 0.0
H652 H 0.46296 0.47532 0.15654 0.0
H653 H 0.50269 0.39376 0.08844 0.0
H654 H 0.45922 0.43928 0.26676 0.0
H655 H 0.42717 0.42917 0.23951 0.0
H656 H 0.44256 0.46977 0.22981 0.0
H657 H 0.50558 0.33818 0.17862 0.0
H658 H 0.50001 0.33829 0.11615 0.0
H659 H 0.47247 0.32859 0.15517 0.0
C660 C 0.09245 0.84383 0.78737 0.0
C661 C 0.07411 0.84096 0.82442 0.0
C662 C 0.08526 0.86081 0.74598 0.0
C663 C 0.05948 0.87621 0.74219 0.0
C664 C 0.04064 0.8727 0.77882 0.0
C665 C 0.04796 0.85453 0.81894 0.0
C666 C 0.10551 0.86304 0.70688 0.0
C667 C 0.0131 0.88924 0.77647 0.0
C668 C 0.05167 0.95211 0.66329 0.0
C669 C 0.03564 0.93889 0.62667 0.0
C670 C 0.05978 0.93185 0.70103 0.0
C671 C 0.05252 0.89736 0.70103 0.0
C672 C 0.03729 0.88364 0.66301 0.0
C673 C 0.02854 0.90478 0.62666 0.0
C674 C 0.07527 0.94761 0.74164 0.0
C675 C 0.03005 0.84676 0.66093 0.0
H676 H 0.11276 0.83376 0.79109 0.0
H677 H 0.03324 0.85156 0.84651 0.0
H678 H 0.09558 0.85621 0.67299 0.0
H679 H 0.11315 0.8892 0.7037 0.0
H680 H 0.12321 0.84637 0.71291 0.0
H681 H 0.00086 0.8842 0.80812 0.0
H682 H 0.01577 0.91678 0.77272 0.0
H683 H 0.00141 0.88025 0.74533 0.0
H684 H 0.05702 0.97856 0.6632 0.0
H685 H 0.01641 0.89456 0.59787 0.0
H686 H 0.09495 0.93474 0.74729 0.0
H687 H 0.06342 0.94461 0.77416 0.0
H688 H 0.0794 0.97476 0.73607 0.0
H689 H 0.04857 0.83147 0.66656 0.0
H690 H 0.02042 0.83956 0.62689 0.0
H691 H 0.01574 0.84037 0.68928 0.0
loop_
_geom_bond_atom_site_label_1
_geom_bond_atom_site_label_2
_geom_bond_distance
_geom_bond_site_symmetry_2
_ccdc_geom_bond_type
C0 C1 1.391 . S
C0 C4 1.391 . S
C0 H42 0.948 . S
C1 C0 1.391 . S
C1 C2 1.391 . S
C2 C1 1.391 . S
C2 H58 0.947 . S
C2 C59 1.392 . S
C3 C4 1.391 . S
C3 C7 1.397 . S
C3 C59 1.419 . S
C4 C0 1.391 . S
C4 C3 1.391 . S
C4 C5 1.399 . S
C5 C4 1.399 . S
C5 C8 1.396 . S
C5 C17 1.453 . S
C5 C18 1.684 . S
H6 C30 0.948 . S
C7 C3 1.397 . S
C7 C8 1.394 . S
C7 C26 1.723 1_556 S
C8 C5 1.396 . S
C8 C7 1.394 . S
C8 C38 1.723 1_556 S
H9 C32 0.947 . S
H10 C33 0.948 . S
H11 C39 0.982 . S
H12 C40 0.979 . S
H13 C40 0.980 . S
H14 C40 0.983 . S
H15 C39 0.979 . S
H16 C39 0.977 . S
C17 C5 1.453 . S
C17 H46 0.982 . S
C17 H47 0.979 . S
C17 H48 0.977 . S
C18 C5 1.684 . S
C18 H43 0.979 . S
C18 H44 0.980 . S
C18 H45 0.983 . S
C19 C20 1.391 . S
C19 C24 1.391 . S
C19 H49 0.948 . S
C20 C19 1.391 . S
C20 C21 1.391 . S
C21 C20 1.391 . S
C21 C22 1.392 . S
C21 H50 0.947 . S
C22 C21 1.392 . S
C22 C23 1.419 . S
C22 H51 0.948 . S
C23 C22 1.419 . S
C23 C24 1.391 . S
C23 C27 1.397 . S
C24 C19 1.391 . S
C24 C23 1.391 . S
C24 C25 1.399 . S
C25 C24 1.399 . S
C25 C26 1.396 . S
C25 C28 1.453 . S
C25 C29 1.684 . S
C26 C7 1.723 1_554 S
C26 C25 1.396 . S
C26 C27 1.394 . S
C27 C23 1.397 . S
C27 C26 1.394 . S
C27 C37 1.723 . S
C28 C25 1.453 . S
C28 H52 0.982 . S
C28 H53 0.979 . S
C28 H54 0.977 . S
C29 C25 1.684 . S
C29 H55 0.979 . S
C29 H56 0.980 . S
C29 H57 0.983 . S
C30 H6 0.948 . S
C30 C31 1.391 . S
C30 C35 1.391 . S
C31 C30 1.391 . S
C31 C32 1.391 1_554 S
C32 H9 0.947 . S
C32 C31 1.391 1_556 S
C32 C33 1.392 . S
C33 H10 0.948 . S
C33 C32 1.392 . S
C33 C34 1.419 1_556 S
C34 C33 1.419 1_554 S
C34 C35 1.391 . S
C34 C38 1.397 . S
C35 C30 1.391 . S
C35 C34 1.391 . S
C35 C36 1.399 . S
C36 C35 1.399 . S
C36 C37 1.396 . S
C36 C39 1.453 . S
C36 C40 1.684 . S
C37 C27 1.723 . S
C37 C36 1.396 . S
C37 C38 1.394 . S
C38 C8 1.723 1_554 S
C38 C34 1.397 . S
C38 C37 1.394 . S
C39 H11 0.982 . S
C39 H15 0.979 . S
C39 H16 0.977 . S
C39 C36 1.453 . S
C40 H12 0.979 . S
C40 H13 0.980 . S
C40 H14 0.983 . S
C40 C36 1.684 . S
H41 C59 0.948 . S
H42 C0 0.948 . S
H43 C18 0.979 . S
H44 C18 0.980 . S
H45 C18 0.983 . S
H46 C17 0.982 . S
H47 C17 0.979 . S
H48 C17 0.977 . S
H49 C19 0.948 . S
H50 C21 0.947 . S
H51 C22 0.948 . S
H52 C28 0.982 . S
H53 C28 0.979 . S
H54 C28 0.977 . S
H55 C29 0.979 . S
H56 C29 0.980 . S
H57 C29 0.983 . S
H58 C2 0.947 . S
C59 C2 1.392 . S
C59 C3 1.419 . S
C59 H41 0.948 . S
C60 C61 1.391 . S
C60 C64 1.391 . S
C60 H102 0.948 . S
C61 C60 1.391 . S
C61 C62 1.391 . S
C62 C61 1.391 . S
C62 H118 0.947 . S
C62 C119 1.392 . S
C63 C64 1.391 . S
C63 C67 1.397 . S
C63 C119 1.419 . S
C64 C60 1.391 . S
C64 C63 1.391 . S
C64 C65 1.399 . S
C65 C64 1.399 . S
C65 C68 1.396 . S
C65 C77 1.453 . S
C65 C78 1.684 . S
H66 C90 0.948 . S
C67 C63 1.397 . S
C67 C68 1.394 . S
C67 C86 1.723 . S
C68 C65 1.396 . S
C68 C67 1.394 . S
C68 C98 1.723 . S
H69 C92 0.947 . S
H70 C93 0.948 . S
H71 C99 0.982 . S
H72 C100 0.979 . S
H73 C100 0.980 . S
H74 C100 0.983 . S
H75 C99 0.979 . S
H76 C99 0.977 . S
C77 C65 1.453 . S
C77 H106 0.982 . S
C77 H107 0.979 . S
C77 H108 0.977 . S
C78 C65 1.684 . S
C78 H103 0.979 . S
C78 H104 0.980 . S
C78 H105 0.983 . S
C79 C80 1.391 . S
C79 C84 1.391 . S
C79 H109 0.948 . S
C80 C79 1.391 . S
C80 C81 1.391 . S
C81 C80 1.391 . S
C81 C82 1.392 . S
C81 H110 0.947 . S
C82 C81 1.392 . S
C82 C83 1.419 . S
C82 H111 0.948 . S
C83 C82 1.419 . S
C83 C84 1.391 . S
C83 C87 1.397 . S
C84 C79 1.391 . S
C84 C83 1.391 . S
C84 C85 1.399 . S
C85 C84 1.399 . S
C85 C86 1.396 . S
C85 C88 1.453 . S
C85 C89 1.684 . S
C86 C67 1.723 . S
C86 C85 1.396 . S
C86 C87 1.394 . S
C87 C83 1.397 . S
C87 C86 1.394 . S
C87 C97 1.723 . S
C88 C85 1.453 . S
C88 H112 0.982 . S
C88 H113 0.979 . S
C88 H114 0.977 . S
C89 C85 1.684 . S
C89 H115 0.979 . S
C89 H116 0.980 . S
C89 H117 0.983 . S
C90 H66 0.948 . S
C90 C91 1.391 . S
C90 C95 1.391 . S
C91 C90 1.391 . S
C91 C92 1.391 . S
C92 H69 0.947 . S
C92 C91 1.391 . S
C92 C93 1.392 . S
C93 H70 0.948 . S
C93 C92 1.392 . S
C93 C94 1.419 . S
C94 C93 1.419 . S
C94 C95 1.391 . S
C94 C98 1.397 . S
C95 C90 1.391 . S
C95 C94 1.391 . S
C95 C96 1.399 . S
C96 C95 1.399 . S
C96 C97 1.396 . S
C96 C99 1.453 . S
C96 C100 1.684 . S
C97 C87 1.723 . S
C97 C96 1.396 . S
C97 C98 1.394 . S
C98 C68 1.723 . S
C98 C94 1.397 . S
C98 C97 1.394 . S
C99 H71 0.982 . S
C99 H75 0.979 . S
C99 H76 0.977 . S
C99 C96 1.453 . S
C100 H72 0.979 . S
C100 H73 0.980 . S
C100 H74 0.983 . S
C100 C96 1.684 . S
H101 C119 0.948 . S
H102 C60 0.948 . S
H103 C78 0.979 . S
H104 C78 0.980 . S
H105 C78 0.983 . S
H106 C77 0.982 . S
H107 C77 0.979 . S
H108 C77 0.977 . S
H109 C79 0.948 . S
H110 C81 0.947 . S
H111 C82 0.948 . S
H112 C88 0.982 . S
H113 C88 0.979 . S
H114 C88 0.977 . S
H115 C89 0.979 . S
H116 C89 0.980 . S
H117 C89 0.983 . S
H118 C62 0.947 . S
C119 C62 1.392 . S
C119 C63 1.419 . S
C119 H101 0.948 . S
C120 C121 1.391 . S
C120 C124 1.391 . S
C120 H162 0.948 . S
C121 C120 1.391 . S
C121 C122 1.391 . S
C122 C121 1.391 . S
C122 H178 0.947 . S
C122 C179 1.392 . S
C123 C124 1.391 . S
C123 C127 1.397 . S
C123 C179 1.419 . S
C124 C120 1.391 . S
C124 C123 1.391 . S
C124 C125 1.399 . S
C125 C124 1.399 . S
C125 C128 1.396 . S
C125 C137 1.453 . S
C125 C138 1.684 . S
H126 C150 0.948 . S
C127 C123 1.397 . S
C127 C128 1.394 . S
C127 C146 1.723 1_554 S
C128 C125 1.396 . S
C128 C127 1.394 . S
C128 C158 1.723 . S
H129 C152 0.947 . S
H130 C153 0.948 . S
H131 C159 0.982 . S
H132 C160 0.979 . S
H133 C160 0.980 . S
H134 C160 0.983 . S
H135 C159 0.979 . S
H136 C159 0.977 . S
C137 C125 1.453 . S
C137 H166 0.982 . S
C137 H167 0.979 . S
C137 H168 0.977 . S
C138 C125 1.684 . S
C138 H163 0.979 . S
C138 H164 0.980 . S
C138 H165 0.983 . S
C139 C140 1.391 . S
C139 C144 1.391 . S
C139 H169 0.948 . S
C140 C139 1.391 . S
C140 C141 1.391 . S
C141 C140 1.391 . S
C141 C142 1.392 . S
C141 H170 0.947 . S
C142 C141 1.392 . S
C142 C143 1.419 . S
C142 H171 0.948 . S
C143 C142 1.419 . S
C143 C144 1.391 . S
C143 C147 1.397 . S
C144 C139 1.391 . S
C144 C143 1.391 . S
C144 C145 1.399 . S
C145 C144 1.399 . S
C145 C146 1.396 . S
C145 C148 1.453 . S
C145 C149 1.684 . S
C146 C127 1.723 1_556 S
C146 C145 1.396 . S
C146 C147 1.394 . S
C147 C143 1.397 . S
C147 C146 1.394 . S
C147 C157 1.723 . S
C148 C145 1.453 . S
C148 H172 0.982 . S
C148 H173 0.979 . S
C148 H174 0.977 1_556 S
C149 C145 1.684 . S
C149 H175 0.979 . S
C149 H176 0.980 1_556 S
C149 H177 0.983 . S
C150 H126 0.948 . S
C150 C151 1.391 1_556 S
C150 C155 1.391 . S
C151 C150 1.391 1_554 S
C151 C152 1.391 . S
C152 H129 0.947 . S
C152 C151 1.391 . S
C152 C153 1.392 . S
C153 H130 0.948 . S
C153 C152 1.392 . S
C153 C154 1.419 . S
C154 C153 1.419 . S
C154 C155 1.391 1_554 S
C154 C158 1.397 . S
C155 C150 1.391 . S
C155 C154 1.391 1_556 S
C155 C156 1.399 . S
C156 C155 1.399 . S
C156 C157 1.396 . S
C156 C159 1.453 . S
C156 C160 1.684 . S
C157 C147 1.723 . S
C157 C156 1.396 . S
C157 C158 1.394 1_556 S
C158 C128 1.723 . S
C158 C154 1.397 . S
C158 C157 1.394 1_554 S
C159 H131 0.982 . S
C159 H135 0.979 . S
C159 H136 0.977 . S
C159 C156 1.453 . S
C160 H132 0.979 . S
C160 H133 0.980 . S
C160 H134 0.983 . S
C160 C156 1.684 . S
H161 C179 0.948 . S
H162 C120 0.948 . S
H163 C138 0.979 . S
H164 C138 0.980 . S
H165 C138 0.983 . S
H166 C137 0.982 . S
H167 C137 0.979 . S
H168 C137 0.977 . S
H169 C139 0.948 . S
H170 C141 0.947 . S
H171 C142 0.948 . S
H172 C148 0.982 . S
H173 C148 0.979 . S
H174 C148 0.977 1_554 S
H175 C149 0.979 . S
H176 C149 0.980 1_554 S
H177 C149 0.983 . S
H178 C122 0.947 . S
C179 C122 1.392 . S
C179 C123 1.419 . S
C179 H161 0.948 . S
C180 C181 1.391 . S
C180 C184 1.391 . S
C180 H222 0.948 . S
C181 C180 1.391 . S
C181 C182 1.391 . S
C182 C181 1.391 . S
C182 H238 0.947 . S
C182 C239 1.392 . S
C183 C184 1.391 . S
C183 C187 1.397 . S
C183 C239 1.419 . S
C184 C180 1.391 . S
C184 C183 1.391 . S
C184 C185 1.399 . S
C185 C184 1.399 . S
C185 C188 1.396 . S
C185 C197 1.453 . S
C185 C198 1.684 . S
H186 C210 0.948 . S
C187 C183 1.397 . S
C187 C188 1.394 . S
C187 C206 1.723 . S
C188 C185 1.396 . S
C188 C187 1.394 . S
C188 C218 1.723 . S
H189 C212 0.947 . S
H190 C213 0.948 . S
H191 C219 0.982 . S
H192 C220 0.979 . S
H193 C220 0.980 . S
H194 C220 0.983 . S
H195 C219 0.979 . S
H196 C219 0.977 . S
C197 C185 1.453 . S
C197 H226 0.982 . S
C197 H227 0.979 . S
C197 H228 0.977 . S
C198 C185 1.684 . S
C198 H223 0.979 . S
C198 H224 0.980 . S
C198 H225 0.983 . S
C199 C200 1.391 . S
C199 C204 1.391 . S
C199 H229 0.948 . S
C200 C199 1.391 . S
C200 C201 1.391 . S
C201 C200 1.391 . S
C201 C202 1.392 . S
C201 H230 0.947 . S
C202 C201 1.392 . S
C202 C203 1.419 . S
C202 H231 0.948 . S
C203 C202 1.419 . S
C203 C204 1.391 . S
C203 C207 1.397 . S
C204 C199 1.391 . S
C204 C203 1.391 . S
C204 C205 1.399 . S
C205 C204 1.399 . S
C205 C206 1.396 . S
C205 C208 1.453 . S
C205 C209 1.684 . S
C206 C187 1.723 . S
C206 C205 1.396 . S
C206 C207 1.394 . S
C207 C203 1.397 . S
C207 C206 1.394 . S
C207 C217 1.723 . S
C208 C205 1.453 . S
C208 H232 0.982 . S
C208 H233 0.979 . S
C208 H234 0.977 . S
C209 C205 1.684 . S
C209 H235 0.979 . S
C209 H236 0.980 . S
C209 H237 0.983 . S
C210 H186 0.948 . S
C210 C211 1.391 . S
C210 C215 1.391 . S
C211 C210 1.391 . S
C211 C212 1.391 . S
C212 H189 0.947 . S
C212 C211 1.391 . S
C212 C213 1.392 . S
C213 H190 0.948 . S
C213 C212 1.392 . S
C213 C214 1.419 . S
C214 C213 1.419 . S
C214 C215 1.391 . S
C214 C218 1.397 . S
C215 C210 1.391 . S
C215 C214 1.391 . S
C215 C216 1.399 . S
C216 C215 1.399 . S
C216 C217 1.396 . S
C216 C219 1.453 . S
C216 C220 1.684 . S
C217 C207 1.723 . S
C217 C216 1.396 . S
C217 C218 1.394 . S
C218 C188 1.723 . S
C218 C214 1.397 . S
C218 C217 1.394 . S
C219 H191 0.982 . S
C219 H195 0.979 . S
C219 H196 0.977 . S
C219 C216 1.453 . S
C220 H192 0.979 . S
C220 H193 0.980 . S
C220 H194 0.983 . S
C220 C216 1.684 . S
H221 C239 0.948 . S
H222 C180 0.948 . S
H223 C198 0.979 . S
H224 C198 0.980 . S
H225 C198 0.983 . S
H226 C197 0.982 . S
H227 C197 0.979 . S
H228 C197 0.977 . S
H229 C199 0.948 . S
H230 C201 0.947 . S
H231 C202 0.948 . S
H232 C208 0.982 . S
H233 C208 0.979 . S
H234 C208 0.977 . S
H235 C209 0.979 . S
H236 C209 0.980 . S
H237 C209 0.983 . S
H238 C182 0.947 . S
C239 C182 1.392 . S
C239 C183 1.419 . S
C239 H221 0.948 . S
C240 O256 1.251 . S
C240 O258 1.254 . S
N241 C242 1.333 . S
N241 C246 1.307 . S
N241 Zn247 2.020 . S
C242 N241 1.333 . S
C242 C243 1.379 . S
C242 H260 0.952 . S
C243 C242 1.379 . S
C243 C244 1.390 . S
C243 H270 0.949 . S
C244 C243 1.390 . S
C244 C245 1.357 . S
C245 C244 1.357 . S
C245 C246 1.370 . S
C245 H271 0.950 . S
C246 N241 1.307 . S
C246 C245 1.370 . S
C246 H264 0.948 . S
Zn247 N241 2.020 . S
Zn247 O256 2.039 1_545 S
Zn247 O262 2.034 1_545 S
Zn247 O266 2.025 . S
Zn247 O268 2.024 . S
C248 O267 1.246 . S
C248 O268 1.249 1_655 S
N249 C250 1.307 . S
N249 C251 1.333 . S
N249 Zn255 2.020 . S
C250 N249 1.307 . S
C250 C254 1.370 . S
C250 H261 0.948 . S
C251 N249 1.333 . S
C251 C252 1.379 . S
C251 H259 0.952 . S
C252 C251 1.379 . S
C252 C253 1.390 . S
C252 H272 0.949 . S
C253 C252 1.390 . S
C253 C254 1.357 . S
C254 C250 1.370 . S
C254 C253 1.357 . S
C254 H273 0.950 . S
Zn255 N249 2.020 . S
Zn255 O258 2.025 1_655 S
Zn255 O263 2.024 1_655 S
Zn255 O265 2.039 1_565 S
Zn255 O267 2.034 1_565 S
O256 C240 1.251 . S
O256 Zn247 2.039 1_565 S
C257 O262 1.246 . S
C257 O263 1.249 . S
O258 C240 1.254 . S
O258 Zn255 2.025 1_455 S
H259 C251 0.952 . S
H260 C242 0.952 . S
H261 C250 0.948 . S
O262 Zn247 2.034 1_565 S
O262 C257 1.246 . S
O263 Zn255 2.024 1_455 S
O263 C257 1.249 . S
H264 C246 0.948 . S
O265 Zn255 2.039 1_545 S
O265 C269 1.251 . S
O266 Zn247 2.025 . S
O266 C269 1.254 1_455 S
O267 C248 1.246 . S
O267 Zn255 2.034 1_545 S
O268 Zn247 2.024 . S
O268 C248 1.249 1_455 S
C269 O265 1.251 . S
C269 O266 1.254 1_655 S
H270 C243 0.949 . S
H271 C245 0.950 . S
H272 C252 0.949 . S
H273 C254 0.950 . S
C274 O290 1.251 . S
C274 O292 1.254 . S
N275 C276 1.336 . S
N275 C280 1.307 . S
N275 Zn281 2.020 . S
C276 N275 1.336 . S
C276 C277 1.379 1_554 S
C276 H294 0.949 1_554 S
C277 C276 1.379 1_556 S
C277 C278 1.384 1_556 S
C277 H304 0.956 . S
C278 C277 1.384 1_554 S
C278 C279 1.357 . S
C279 C278 1.357 . S
C279 C280 1.370 . S
C279 H305 0.950 . S
C280 N275 1.307 . S
C280 C279 1.370 . S
C280 H298 0.948 . S
Zn281 N275 2.020 . S
Zn281 O290 2.039 1_554 S
Zn281 O296 2.034 . S
Zn281 O300 2.025 . S
Zn281 O302 2.024 1_554 S
C282 O301 1.246 . S
C282 O302 1.249 . S
N283 C284 1.307 . S
N283 C285 1.333 . S
N283 Zn289 2.020 . S
C284 N283 1.307 . S
C284 C288 1.370 . S
C284 H295 0.948 1_554 S
C285 N283 1.333 . S
C285 C286 1.379 . S
C285 H293 0.952 . S
C286 C285 1.379 . S
C286 C287 1.390 . S
C286 H306 0.949 . S
C287 C286 1.390 . S
C287 C288 1.357 . S
C288 C284 1.370 . S
C288 C287 1.357 . S
C288 H307 0.950 1_554 S
Zn289 N283 2.020 . S
Zn289 O292 2.025 1_554 S
Zn289 O297 2.024 . S
Zn289 O299 2.039 . S
Zn289 O301 2.034 1_554 S
O290 C274 1.251 . S
O290 Zn281 2.039 1_556 S
C291 O296 1.246 . S
C291 O297 1.249 . S
O292 C274 1.254 . S
O292 Zn289 2.025 1_556 S
H293 C285 0.952 . S
H294 C276 0.949 1_556 S
H295 C284 0.948 1_556 S
O296 Zn281 2.034 . S
O296 C291 1.246 . S
O297 Zn289 2.024 . S
O297 C291 1.249 . S
H298 C280 0.948 . S
O299 Zn289 2.039 . S
O299 C303 1.251 . S
O300 Zn281 2.025 . S
O300 C303 1.254 . S
O301 C282 1.246 . S
O301 Zn289 2.034 1_556 S
O302 Zn281 2.024 1_556 S
O302 C282 1.249 . S
C303 O299 1.251 . S
C303 O300 1.254 . S
H304 C277 0.956 . S
H305 C279 0.950 . S
H306 C286 0.949 . S
H307 C288 0.950 1_556 S
C308 C309 1.391 . S
C308 C310 1.394 . S
C308 H324 0.931 . S
C309 C308 1.391 . S
C309 C313 1.376 . S
C310 C308 1.394 . S
C310 C311 1.369 . S
C310 C314 1.531 . S
C311 C310 1.369 . S
C311 C312 1.410 . S
C311 C319 1.503 . S
C312 C311 1.410 . S
C312 C313 1.392 . S
C312 C315 1.511 . S
C313 C309 1.376 . S
C313 C312 1.392 . S
C313 H325 0.929 . S
C314 C310 1.531 . S
C314 H326 0.960 . S
C314 H327 0.962 . S
C314 H328 0.960 . S
C315 C312 1.511 . S
C315 H329 0.961 . S
C315 H330 0.961 . S
C315 H331 0.961 . S
C316 C317 1.370 . S
C316 C318 1.363 . S
C316 H332 0.931 . S
C317 C316 1.370 . S
C317 C321 1.408 . S
C318 C316 1.363 . S
C318 C319 1.370 . S
C318 C322 1.524 . S
C319 C311 1.503 . S
C319 C318 1.370 . S
C319 C320 1.403 . S
C320 C319 1.403 . S
C320 C321 1.404 . S
C320 C323 1.539 . S
C321 C317 1.408 . S
C321 C320 1.404 . S
C321 H333 0.930 . S
C322 C318 1.524 . S
C322 H334 0.956 . S
C322 H335 0.961 . S
C322 H336 0.961 . S
C323 C320 1.539 . S
C323 H337 0.958 . S
C323 H338 0.961 . S
C323 H339 0.960 . S
H324 C308 0.931 . S
H325 C313 0.929 . S
H326 C314 0.960 . S
H327 C314 0.962 . S
H328 C314 0.960 . S
H329 C315 0.961 . S
H330 C315 0.961 . S
H331 C315 0.961 . S
H332 C316 0.931 . S
H333 C321 0.930 . S
H334 C322 0.956 . S
H335 C322 0.961 . S
H336 C322 0.961 . S
H337 C323 0.958 . S
H338 C323 0.961 . S
H339 C323 0.960 . S
C340 C341 1.391 1_556 S
C340 C342 1.394 . S
C340 H356 0.931 . S
C341 C340 1.391 1_554 S
C341 C345 1.376 . S
C342 C340 1.394 . S
C342 C343 1.369 1_556 S
C342 C346 1.531 . S
C343 C342 1.369 1_554 S
C343 C344 1.410 . S
C343 C351 1.503 . S
C344 C343 1.410 . S
C344 C345 1.392 . S
C344 C347 1.511 . S
C345 C341 1.376 . S
C345 C344 1.392 . S
C345 H357 0.929 . S
C346 C342 1.531 . S
C346 H358 0.960 . S
C346 H359 0.962 . S
C346 H360 0.960 . S
C347 C344 1.511 . S
C347 H361 0.961 . S
C347 H362 0.961 . S
C347 H363 0.961 . S
C348 C349 1.370 . S
C348 C350 1.363 . S
C348 H364 0.931 . S
C349 C348 1.370 . S
C349 C353 1.408 1_554 S
C350 C348 1.363 . S
C350 C351 1.370 . S
C350 C354 1.524 . S
C351 C343 1.503 . S
C351 C350 1.370 . S
C351 C352 1.403 1_554 S
C352 C351 1.403 1_556 S
C352 C353 1.404 . S
C352 C355 1.539 . S
C353 C349 1.408 1_556 S
C353 C352 1.404 . S
C353 H365 0.930 . S
C354 C350 1.524 . S
C354 H366 0.956 . S
C354 H367 0.961 . S
C354 H368 0.961 . S
C355 C352 1.539 . S
C355 H369 0.958 . S
C355 H370 0.961 . S
C355 H371 0.960 . S
H356 C340 0.931 . S
H357 C345 0.929 . S
H358 C346 0.960 . S
H359 C346 0.962 . S
H360 C346 0.960 . S
H361 C347 0.961 . S
H362 C347 0.961 . S
H363 C347 0.961 . S
H364 C348 0.931 . S
H365 C353 0.930 . S
H366 C354 0.956 . S
H367 C354 0.961 . S
H368 C354 0.961 . S
H369 C355 0.958 . S
H370 C355 0.961 . S
H371 C355 0.960 . S
C372 C373 1.391 . S
C372 C374 1.394 . S
C372 H388 0.931 . S
C373 C372 1.391 . S
C373 C377 1.376 . S
C374 C372 1.394 . S
C374 C375 1.369 . S
C374 C378 1.531 . S
C375 C374 1.369 . S
C375 C376 1.410 . S
C375 C383 1.503 . S
C376 C375 1.410 . S
C376 C377 1.392 . S
C376 C379 1.511 . S
C377 C373 1.376 . S
C377 C376 1.392 . S
C377 H389 0.929 . S
C378 C374 1.531 . S
C378 H390 0.960 . S
C378 H391 0.962 . S
C378 H392 0.960 . S
C379 C376 1.511 . S
C379 H393 0.961 . S
C379 H394 0.961 . S
C379 H395 0.961 . S
C380 C381 1.370 . S
C380 C382 1.363 . S
C380 H396 0.931 . S
C381 C380 1.370 . S
C381 C385 1.408 . S
C382 C380 1.363 . S
C382 C383 1.370 . S
C382 C386 1.524 . S
C383 C375 1.503 . S
C383 C382 1.370 . S
C383 C384 1.403 . S
C384 C383 1.403 . S
C384 C385 1.404 . S
C384 C387 1.539 . S
C385 C381 1.408 . S
C385 C384 1.404 . S
C385 H397 0.930 . S
C386 C382 1.524 . S
C386 H398 0.956 . S
C386 H399 0.961 . S
C386 H400 0.961 . S
C387 C384 1.539 . S
C387 H401 0.958 . S
C387 H402 0.961 . S
C387 H403 0.960 . S
H388 C372 0.931 . S
H389 C377 0.929 . S
H390 C378 0.960 . S
H391 C378 0.962 . S
H392 C378 0.960 . S
H393 C379 0.961 . S
H394 C379 0.961 . S
H395 C379 0.961 . S
H396 C380 0.931 . S
H397 C385 0.930 . S
H398 C386 0.956 . S
H399 C386 0.961 . S
H400 C386 0.961 . S
H401 C387 0.958 . S
H402 C387 0.961 . S
H403 C387 0.960 . S
C404 C405 1.391 . S
C404 C406 1.394 . S
C404 H420 0.931 . S
C405 C404 1.391 . S
C405 C409 1.376 . S
C406 C404 1.394 . S
C406 C407 1.368 1_554 S
C406 C410 1.531 . S
C407 C406 1.368 1_556 S
C407 C408 1.410 . S
C407 C415 1.502 1_556 S
C408 C407 1.410 . S
C408 C409 1.392 1_556 S
C408 C411 1.511 . S
C409 C405 1.376 . S
C409 C408 1.392 1_554 S
C409 H421 0.929 . S
C410 C406 1.531 . S
C410 H422 0.960 1_554 S
C410 H423 0.962 . S
C410 H424 0.960 1_554 S
C411 C408 1.511 . S
C411 H425 0.961 1_556 S
C411 H426 0.961 1_556 S
C411 H427 0.961 . S
C412 C413 1.370 . S
C412 C414 1.363 . S
C412 H428 0.931 . S
C413 C412 1.370 . S
C413 C417 1.408 1_554 S
C414 C412 1.363 . S
C414 C415 1.370 . S
C414 C418 1.524 . S
C415 C407 1.502 1_554 S
C415 C414 1.370 . S
C415 C416 1.403 1_554 S
C416 C415 1.403 1_556 S
C416 C417 1.404 . S
C416 C419 1.539 . S
C417 C413 1.408 1_556 S
C417 C416 1.404 . S
C417 H429 0.930 . S
C418 C414 1.524 . S
C418 H430 0.956 . S
C418 H431 0.961 . S
C418 H432 0.961 . S
C419 C416 1.539 . S
C419 H433 0.958 . S
C419 H434 0.961 . S
C419 H435 0.960 . S
H420 C404 0.931 . S
H421 C409 0.929 . S
H422 C410 0.960 1_556 S
H423 C410 0.962 . S
H424 C410 0.960 1_556 S
H425 C411 0.961 1_554 S
H426 C411 0.961 1_554 S
H427 C411 0.961 . S
H428 C412 0.931 . S
H429 C417 0.930 . S
H430 C418 0.956 . S
H431 C418 0.961 . S
H432 C418 0.961 . S
H433 C419 0.958 . S
H434 C419 0.961 . S
H435 C419 0.960 . S
C436 C437 1.391 . S
C436 C438 1.394 . S
C436 H452 0.931 . S
C437 C436 1.391 . S
C437 C441 1.376 . S
C438 C436 1.394 . S
C438 C439 1.369 . S
C438 C442 1.531 . S
C439 C438 1.369 . S
C439 C440 1.410 . S
C439 C447 1.503 . S
C440 C439 1.410 . S
C440 C441 1.392 . S
C440 C443 1.511 . S
C441 C437 1.376 . S
C441 C440 1.392 . S
C441 H453 0.929 . S
C442 C438 1.531 . S
C442 H454 0.955 1_455 S
C442 H455 0.962 . S
C442 H456 0.960 1_455 S
C443 C440 1.511 . S
C443 H457 0.961 . S
C443 H458 0.961 . S
C443 H459 0.961 . S
C444 C445 1.370 . S
C444 C446 1.363 . S
C444 H460 0.931 . S
C445 C444 1.370 . S
C445 C449 1.408 . S
C446 C444 1.363 . S
C446 C447 1.370 . S
C446 C450 1.524 . S
C447 C439 1.503 . S
C447 C446 1.370 . S
C447 C448 1.403 . S
C448 C447 1.403 . S
C448 C449 1.404 . S
C448 C451 1.539 . S
C449 C445 1.408 . S
C449 C448 1.404 . S
C449 H461 0.930 . S
C450 C446 1.524 . S
C450 H462 0.956 . S
C450 H463 0.961 . S
C450 H464 0.961 . S
C451 C448 1.539 . S
C451 H465 0.958 . S
C451 H466 0.961 . S
C451 H467 0.960 . S
H452 C436 0.931 . S
H453 C441 0.929 . S
H454 C442 0.955 1_655 S
H455 C442 0.962 . S
H456 C442 0.960 1_655 S
H457 C443 0.961 . S
H458 C443 0.961 . S
H459 C443 0.961 . S
H460 C444 0.931 . S
H461 C449 0.930 . S
H462 C450 0.956 . S
H463 C450 0.961 . S
H464 C450 0.961 . S
H465 C451 0.958 . S
H466 C451 0.961 . S
H467 C451 0.960 . S
C468 C469 1.391 . S
C468 C470 1.394 . S
C468 H484 0.931 . S
C469 C468 1.391 . S
C469 C473 1.376 . S
C470 C468 1.394 . S
C470 C471 1.369 . S
C470 C474 1.531 . S
C471 C470 1.369 . S
C471 C472 1.410 . S
C471 C479 1.503 . S
C472 C471 1.410 . S
C472 C473 1.392 . S
C472 C475 1.511 . S
C473 C469 1.376 . S
C473 C472 1.392 . S
C473 H485 0.929 . S
C474 C470 1.531 . S
C474 H486 0.960 . S
C474 H487 0.962 . S
C474 H488 0.960 . S
C475 C472 1.511 . S
C475 H489 0.961 . S
C475 H490 0.961 . S
C475 H491 0.961 . S
C476 C477 1.370 . S
C476 C478 1.363 . S
C476 H492 0.931 . S
C477 C476 1.370 . S
C477 C481 1.408 . S
C478 C476 1.363 . S
C478 C479 1.370 . S
C478 C482 1.524 . S
C479 C471 1.503 . S
C479 C478 1.370 . S
C479 C480 1.403 . S
C480 C479 1.403 . S
C480 C481 1.404 . S
C480 C483 1.539 . S
C481 C477 1.408 . S
C481 C480 1.404 . S
C481 H493 0.930 . S
C482 C478 1.524 . S
C482 H494 0.956 . S
C482 H495 0.961 . S
C482 H496 0.961 . S
C483 C480 1.539 . S
C483 H497 0.958 . S
C483 H498 0.961 . S
C483 H499 0.960 . S
H484 C468 0.931 . S
H485 C473 0.929 . S
H486 C474 0.960 . S
H487 C474 0.962 . S
H488 C474 0.960 . S
H489 C475 0.961 . S
H490 C475 0.961 . S
H491 C475 0.961 . S
H492 C476 0.931 . S
H493 C481 0.930 . S
H494 C482 0.956 . S
H495 C482 0.961 . S
H496 C482 0.961 . S
H497 C483 0.958 . S
H498 C483 0.961 . S
H499 C483 0.960 . S
C500 C501 1.391 . S
C500 C502 1.394 . S
C500 H516 0.931 . S
C501 C500 1.391 . S
C501 C505 1.376 . S
C502 C500 1.394 . S
C502 C503 1.369 . S
C502 C506 1.531 . S
C503 C502 1.369 . S
C503 C504 1.410 . S
C503 C511 1.503 . S
C504 C503 1.410 . S
C504 C505 1.392 . S
C504 C507 1.511 . S
C505 C501 1.376 . S
C505 C504 1.392 . S
C505 H517 0.929 . S
C506 C502 1.531 . S
C506 H518 0.960 . S
C506 H519 0.962 . S
C506 H520 0.960 . S
C507 C504 1.511 . S
C507 H521 0.961 . S
C507 H522 0.961 . S
C507 H523 0.932 1_655 S
C508 C509 1.370 . S
C508 C510 1.363 . S
C508 H524 0.931 . S
C509 C508 1.370 . S
C509 C513 1.408 1_655 S
C510 C508 1.363 . S
C510 C511 1.370 . S
C510 C514 1.524 . S
C511 C503 1.503 . S
C511 C510 1.370 . S
C511 C512 1.403 1_655 S
C512 C511 1.403 1_455 S
C512 C513 1.404 . S
C512 C515 1.539 . S
C513 C509 1.408 1_455 S
C513 C512 1.404 . S
C513 H525 0.930 . S
C514 C510 1.524 . S
C514 H526 0.956 . S
C514 H527 0.961 . S
C514 H528 0.961 . S
C515 C512 1.539 . S
C515 H529 0.958 . S
C515 H530 0.961 . S
C515 H531 0.960 . S
H516 C500 0.931 . S
H517 C505 0.929 . S
H518 C506 0.960 . S
H519 C506 0.962 . S
H520 C506 0.960 . S
H521 C507 0.961 . S
H522 C507 0.961 . S
H523 C507 0.932 1_455 S
H524 C508 0.931 . S
H525 C513 0.930 . S
H526 C514 0.956 . S
H527 C514 0.961 . S
H528 C514 0.961 . S
H529 C515 0.958 . S
H530 C515 0.961 . S
H531 C515 0.960 . S
C532 C533 1.391 . S
C532 C534 1.394 . S
C532 H548 0.931 . S
C533 C532 1.391 . S
C533 C537 1.376 . S
C534 C532 1.394 . S
C534 C535 1.369 . S
C534 C538 1.531 . S
C535 C534 1.369 . S
C535 C536 1.410 . S
C535 C543 1.503 . S
C536 C535 1.410 . S
C536 C537 1.392 . S
C536 C539 1.511 . S
C537 C533 1.376 . S
C537 C536 1.392 . S
C537 H549 0.929 . S
C538 C534 1.531 . S
C538 H550 0.960 . S
C538 H551 0.962 . S
C538 H552 0.960 . S
C539 C536 1.511 . S
C539 H553 0.961 . S
C539 H554 0.961 . S
C539 H555 0.961 . S
C540 C541 1.370 . S
C540 C542 1.363 . S
C540 H556 0.931 . S
C541 C540 1.370 . S
C541 C545 1.408 . S
C542 C540 1.363 . S
C542 C543 1.370 . S
C542 C546 1.524 . S
C543 C535 1.503 . S
C543 C542 1.370 . S
C543 C544 1.403 . S
C544 C543 1.403 . S
C544 C545 1.404 . S
C544 C547 1.539 . S
C545 C541 1.408 . S
C545 C544 1.404 . S
C545 H557 0.930 . S
C546 C542 1.524 . S
C546 H558 0.956 . S
C546 H559 0.961 . S
C546 H560 0.961 . S
C547 C544 1.539 . S
C547 H561 0.958 . S
C547 H562 0.961 . S
C547 H563 0.960 . S
H548 C532 0.931 . S
H549 C537 0.929 . S
H550 C538 0.960 . S
H551 C538 0.962 . S
H552 C538 0.960 . S
H553 C539 0.961 . S
H554 C539 0.961 . S
H555 C539 0.961 . S
H556 C540 0.931 . S
H557 C545 0.930 . S
H558 C546 0.956 . S
H559 C546 0.961 . S
H560 C546 0.961 . S
H561 C547 0.958 . S
H562 C547 0.961 . S
H563 C547 0.960 . S
C564 C565 1.391 . S
C564 C566 1.394 . S
C564 H580 0.931 . S
C565 C564 1.391 . S
C565 C569 1.376 . S
C566 C564 1.394 . S
C566 C567 1.369 . S
C566 C570 1.531 . S
C567 C566 1.369 . S
C567 C568 1.410 . S
C567 C575 1.503 . S
C568 C567 1.410 . S
C568 C569 1.392 . S
C568 C571 1.511 . S
C569 C565 1.376 . S
C569 C568 1.392 . S
C569 H581 0.929 . S
C570 C566 1.531 . S
C570 H582 0.960 . S
C570 H583 0.962 . S
C570 H584 0.960 . S
C571 C568 1.511 . S
C571 H585 0.961 . S
C571 H586 0.961 . S
C571 H587 0.961 . S
C572 C573 1.370 . S
C572 C574 1.363 . S
C572 H588 0.931 . S
C573 C572 1.370 . S
C573 C577 1.408 . S
C574 C572 1.363 . S
C574 C575 1.370 . S
C574 C578 1.524 . S
C575 C567 1.503 . S
C575 C574 1.370 . S
C575 C576 1.403 . S
C576 C575 1.403 . S
C576 C577 1.404 . S
C576 C579 1.539 . S
C577 C573 1.408 . S
C577 C576 1.404 . S
C577 H589 0.930 . S
C578 C574 1.524 . S
C578 H590 0.956 . S
C578 H591 0.961 . S
C578 H592 0.961 . S
C579 C576 1.539 . S
C579 H593 0.958 . S
C579 H594 0.961 . S
C579 H595 0.960 . S
H580 C564 0.931 . S
H581 C569 0.929 . S
H582 C570 0.960 . S
H583 C570 0.962 . S
H584 C570 0.960 . S
H585 C571 0.961 . S
H586 C571 0.961 . S
H587 C571 0.961 . S
H588 C572 0.931 . S
H589 C577 0.930 . S
H590 C578 0.956 . S
H591 C578 0.961 . S
H592 C578 0.961 . S
H593 C579 0.958 . S
H594 C579 0.961 . S
H595 C579 0.960 . S
C596 C597 1.391 . S
C596 C598 1.394 . S
C596 H612 0.931 . S
C597 C596 1.391 . S
C597 C601 1.376 . S
C598 C596 1.394 . S
C598 C599 1.369 . S
C598 C602 1.531 1_655 S
C599 C598 1.369 . S
C599 C600 1.410 . S
C599 C607 1.503 . S
C600 C599 1.410 . S
C600 C601 1.392 . S
C600 C603 1.511 . S
C601 C597 1.376 . S
C601 C600 1.392 . S
C601 H613 0.929 . S
C602 C598 1.531 1_455 S
C602 H614 0.960 . S
C602 H615 0.962 . S
C602 H616 0.960 . S
C603 C600 1.511 . S
C603 H617 0.961 . S
C603 H618 0.961 . S
C603 H619 0.961 . S
C604 C605 1.370 . S
C604 C606 1.363 . S
C604 H620 0.931 . S
C605 C604 1.370 . S
C605 C609 1.408 . S
C606 C604 1.363 . S
C606 C607 1.370 . S
C606 C610 1.524 . S
C607 C599 1.503 . S
C607 C606 1.370 . S
C607 C608 1.403 . S
C608 C607 1.403 . S
C608 C609 1.404 . S
C608 C611 1.539 . S
C609 C605 1.408 . S
C609 C608 1.404 . S
C609 H621 0.930 . S
C610 C606 1.524 . S
C610 H622 0.956 . S
C610 H623 0.961 . S
C610 H624 0.961 . S
C611 C608 1.539 . S
C611 H625 0.958 . S
C611 H626 0.961 . S
C611 H627 0.960 . S
H612 C596 0.931 . S
H613 C601 0.929 . S
H614 C602 0.960 . S
H615 C602 0.962 . S
H616 C602 0.960 . S
H617 C603 0.961 . S
H618 C603 0.961 . S
H619 C603 0.961 . S
H620 C604 0.931 . S
H621 C609 0.930 . S
H622 C610 0.956 . S
H623 C610 0.961 . S
H624 C610 0.961 . S
H625 C611 0.958 . S
H626 C611 0.961 . S
H627 C611 0.960 . S
C628 C629 1.391 . S
C628 C630 1.394 . S
C628 H644 0.931 . S
C629 C628 1.391 . S
C629 C633 1.376 . S
C630 C628 1.394 . S
C630 C631 1.369 . S
C630 C634 1.531 . S
C631 C630 1.369 . S
C631 C632 1.410 . S
C631 C639 1.503 . S
C632 C631 1.410 . S
C632 C633 1.392 . S
C632 C635 1.511 . S
C633 C629 1.376 . S
C633 C632 1.392 . S
C633 H645 0.929 . S
C634 C630 1.531 . S
C634 H646 0.960 . S
C634 H647 0.962 . S
C634 H648 0.960 . S
C635 C632 1.511 . S
C635 H649 0.961 . S
C635 H650 0.961 . S
C635 H651 0.961 . S
C636 C637 1.370 . S
C636 C638 1.363 . S
C636 H652 0.931 . S
C637 C636 1.370 . S
C637 C641 1.408 . S
C638 C636 1.363 . S
C638 C639 1.370 . S
C638 C642 1.524 . S
C639 C631 1.503 . S
C639 C638 1.370 . S
C639 C640 1.403 . S
C640 C639 1.403 . S
C640 C641 1.404 . S
C640 C643 1.539 . S
C641 C637 1.408 . S
C641 C640 1.404 . S
C641 H653 0.930 . S
C642 C638 1.524 . S
C642 H654 0.956 . S
C642 H655 0.961 . S
C642 H656 0.961 . S
C643 C640 1.539 . S
C643 H657 0.958 . S
C643 H658 0.961 . S
C643 H659 0.960 . S
H644 C628 0.931 . S
H645 C633 0.929 . S
H646 C634 0.960 . S
H647 C634 0.962 . S
H648 C634 0.960 . S
H649 C635 0.961 . S
H650 C635 0.961 . S
H651 C635 0.961 . S
H652 C636 0.931 . S
H653 C641 0.930 . S
H654 C642 0.956 . S
H655 C642 0.961 . S
H656 C642 0.961 . S
H657 C643 0.958 . S
H658 C643 0.961 . S
H659 C643 0.960 . S
C660 C661 1.391 . S
C660 C662 1.394 . S
C660 H676 0.931 . S
C661 C660 1.391 . S
C661 C665 1.376 . S
C662 C660 1.394 . S
C662 C663 1.369 . S
C662 C666 1.531 . S
C663 C662 1.369 . S
C663 C664 1.410 . S
C663 C671 1.503 . S
C664 C663 1.410 . S
C664 C665 1.392 . S
C664 C667 1.511 . S
C665 C661 1.376 . S
C665 C664 1.392 . S
C665 H677 0.929 . S
C666 C662 1.531 . S
C666 H678 0.960 . S
C666 H679 0.962 . S
C666 H680 0.960 . S
C667 C664 1.511 . S
C667 H681 0.961 1_455 S
C667 H682 0.961 . S
C667 H683 0.961 1_455 S
C668 C669 1.370 . S
C668 C670 1.363 . S
C668 H684 0.931 . S
C669 C668 1.370 . S
C669 C673 1.408 . S
C670 C668 1.363 . S
C670 C671 1.370 . S
C670 C674 1.524 . S
C671 C663 1.503 . S
C671 C670 1.370 . S
C671 C672 1.403 . S
C672 C671 1.403 . S
C672 C673 1.404 . S
C672 C675 1.539 . S
C673 C669 1.408 . S
C673 C672 1.404 . S
C673 H685 0.930 . S
C674 C670 1.524 . S
C674 H686 0.956 . S
C674 H687 0.961 . S
C674 H688 0.961 . S
C675 C672 1.539 . S
C675 H689 0.958 . S
C675 H690 0.961 . S
C675 H691 0.960 . S
H676 C660 0.931 . S
H677 C665 0.929 . S
H678 C666 0.960 . S
H679 C666 0.962 . S
H680 C666 0.960 . S
H681 C667 0.961 1_655 S
H682 C667 0.961 . S
H683 C667 0.961 1_655 S
H684 C668 0.931 . S
H685 C673 0.930 . S
H686 C674 0.956 . S
H687 C674 0.961 . S
H688 C674 0.961 . S
H689 C675 0.958 . S
H690 C675 0.961 . S
H691 C675 0.960 . S
C317 C244 1.650 . S
C309 C211 1.576 . S
C341 C31 1.536 . S
C349 C287 1.575 . S
C373 C91 1.607 . S
C381 C253 1.654 . S
C405 C151 1.526 . S
C413 C278 1.576 . S
C445 C240 1.637 . S
C437 C20 1.634 . S
C477 C282 1.732 . S
C469 C61 1.687 . S
C501 C121 1.529 . S
C509 C248 1.625 . S
C533 C200 1.656 . S
C541 C274 1.725 . S
C573 C303 1.727 . S
C565 C80 1.703 . S
C605 C269 1.643 . S
C597 C140 1.559 . S
C637 C291 1.731 . S
C629 C181 1.640 . S
C661 C1 1.605 . S
C669 C257 1.623 . S
