# Generated by pormake.
# Topology tsx, (6,3)-cn, num edge types: 1
# Building blocks:
#     Node 0, Type 0, BuildingBlock: JUFBIX_clean_sbu_0, # of connection points: 6
#     Node 1, Type 0, BuildingBlock: JUFBIX_clean_sbu_0, # of connection points: 6
#     Node 2, Type 1, BuildingBlock: INOVEN_clean_linker_0, # of connection points: 3
#     Node 3, Type 1, BuildingBlock: INOVEN_clean_linker_0, # of connection points: 3
#     Node 4, Type 1, BuildingBlock: INOVEN_clean_linker_0, # of connection points: 3
#     Node 5, Type 1, BuildingBlock: INOVEN_clean_linker_0, # of connection points: 3
#     Edge 6, Type (0, 1), BuildingBlock: CIFDUS_clean_linker_0, # of connection points: 2
#     Edge 7, Type (0, 1), BuildingBlock: CIFDUS_clean_linker_0, # of connection points: 2
#     Edge 8, Type (0, 1), BuildingBlock: CIFDUS_clean_linker_0, # of connection points: 2
#     Edge 9, Type (0, 1), BuildingBlock: CIFDUS_clean_linker_0, # of connection points: 2
#     Edge 10, Type (0, 1), BuildingBlock: CIFDUS_clean_linker_0, # of connection points: 2
#     Edge 11, Type (0, 1), BuildingBlock: CIFDUS_clean_linker_0, # of connection points: 2
#     Edge 12, Type (0, 1), BuildingBlock: CIFDUS_clean_linker_0, # of connection points: 2
#     Edge 13, Type (0, 1), BuildingBlock: CIFDUS_clean_linker_0, # of connection points: 2
#     Edge 14, Type (0, 1), BuildingBlock: CIFDUS_clean_linker_0, # of connection points: 2
#     Edge 15, Type (0, 1), BuildingBlock: CIFDUS_clean_linker_0, # of connection points: 2
#     Edge 16, Type (0, 1), BuildingBlock: CIFDUS_clean_linker_0, # of connection points: 2
#     Edge 17, Type (0, 1), BuildingBlock: CIFDUS_clean_linker_0, # of connection points: 2
# Relax obj value: 0.097
# Max RMSD: 0.123
# Mean RMSD: 0.110
data_MOF--net-tsx--node1-JUFBIX_clean_sbu_0--node2-INOVEN_clean_linker_0--edge1-CIFDUS_clean_linker_0
_symmetry_space_group_name_H-M    P1
_symmetry_Int_Tables_number       1
_symmetry_cell_setting            triclinic
loop_
_symmetry_equiv_pos_as_xyz
'x, y, z'
_cell_length_a     17.820151
_cell_length_b     20.837881
_cell_length_c     28.741256
_cell_angle_alpha  91.193725
_cell_angle_beta   98.997044
_cell_angle_gamma 101.32681
loop_
_atom_site_label
_atom_site_type_symbol
_atom_site_fract_x
_atom_site_fract_y
_atom_site_fract_z
_atom_type_partial_charge
Co0 Co 0.98954 0.92384 0.98572 0.0
C1 C 0.92241 0.96178 0.89845 0.0
Co2 Co 0.91843 0.99955 -0.01084 0.0
C3 C 0.11986 0.85503 -0.01018 0.0
C4 C 1.01098 0.79875 0.95531 0.0
N5 N 0.04395 0.8575 0.97768 0.0
N6 N 0.13454 0.79661 0.97646 0.0
C7 C 0.06602 0.76135 0.95482 0.0
H8 H 0.16348 0.89527 0.00766 0.0
H9 H 0.95082 0.78426 0.93908 0.0
C10 C 0.98871 0.96181 0.07645 0.0
N11 N 0.86086 0.063 -0.00321 0.0
C12 C 0.85186 0.11559 0.97138 0.0
C13 C 0.8153 0.06364 0.03002 0.0
N14 N 0.80243 0.149 -0.01242 0.0
C15 C 0.7795 0.11622 0.02451 0.0
C16 C 0.83342 0.87391 -0.00966 0.0
O17 O 1.01463 0.92267 0.05169 0.0
O18 O 0.94674 0.9993 0.05624 0.0
O19 O 0.8288 0.93384 -0.00877 0.0
O20 O 0.89829 0.859 -0.01253 0.0
O21 O 0.89305 0.99971 0.92223 0.0
H22 H 0.80744 0.02733 0.05614 0.0
H23 H 0.88096 0.12891 0.94159 0.0
O24 O 0.96417 0.9251 0.91969 0.0
O25 O 0.0804 0.9912 0.98482 0.0
O26 O 1.00703 0.06451 0.98696 0.0
C27 C 0.07297 0.05089 0.98508 0.0
H28 H 0.05698 0.71288 0.93795 0.0
H29 H 0.73793 0.1281 0.04529 0.0
Co30 Co 0.62885 0.5298 0.49766 0.0
C31 C 0.53523 0.54352 0.4139 0.0
Co32 Co 0.53895 0.58703 0.50558 0.0
C33 C 0.72166 0.42765 0.50547 0.0
C34 C 0.76364 0.50656 0.46372 0.0
N35 N 0.70682 0.48507 0.48911 0.0
N36 N 0.78628 0.41372 0.49194 0.0
C37 C 0.81261 0.46325 0.46571 0.0
H38 H 0.68597 0.39668 0.52675 0.0
H39 H 0.76876 0.55051 0.44414 0.0
C40 C 0.63225 0.56946 0.5896 0.0
N41 N 0.46325 0.63407 0.513 0.0
C42 C 0.44881 0.68585 0.48831 0.0
C43 C 0.41273 0.6265 0.54372 0.0
N44 N 0.39143 0.71152 0.50226 0.0
C45 C 0.36843 0.67389 0.53717 0.0
C46 C 0.49058 0.45279 0.51371 0.0
O47 O 0.66349 0.53755 0.56266 0.0
O48 O 0.57738 0.59716 0.572 0.0
O49 O 0.47184 0.50847 0.51513 0.0
O50 O 0.55792 0.44912 0.50535 0.0
O51 O 0.50149 0.57566 0.43926 0.0
H52 H 0.40863 0.58918 0.56933 0.0
H53 H 0.48123 0.70482 0.46107 0.0
O54 O 0.59324 0.52105 0.43276 0.0
O55 O 0.69797 0.61181 0.49055 0.0
O56 O 0.60567 0.66511 0.49619 0.0
C57 C 0.67449 0.66556 0.49012 0.0
H58 H 0.86212 0.4665 0.44767 0.0
H59 H 0.32259 0.67952 0.55657 0.0
H60 H 0.18301 0.06324 0.48999 0.0
H61 H 0.16991 0.9612 0.35619 0.0
H62 H 0.04188 0.11405 0.36723 0.0
N63 N 0.08529 0.14002 0.45899 0.0
N64 N 1.01558 0.14411 0.45328 0.0
C65 C 0.16083 0.05532 0.45258 0.0
C66 C 0.17982 1.005 0.42613 0.0
C67 C 0.10951 0.09315 0.4315 0.0
C68 C 0.08172 0.08442 0.38296 0.0
C69 C 0.10562 0.03881 0.35486 0.0
C70 C 0.15359 0.9984 0.37705 0.0
H71 H 0.06098 0.02641 0.51558 0.0
H72 H 0.91271 0.94774 0.61283 0.0
H73 H 0.08043 0.12692 0.65091 0.0
N74 N 0.13412 0.13432 0.56783 0.0
N75 N 0.14979 0.18983 0.5883 0.0
C76 C 0.04283 0.02992 0.54945 0.0
C77 C 0.98372 0.98122 0.56102 0.0
C78 C 0.0764 0.08388 0.58108 0.0
C79 C 0.05232 0.08699 0.62551 0.0
C80 C 0.99451 0.03706 0.63786 0.0
C81 C 0.95907 0.9857 0.60457 0.0
H82 H 0.53422 0.45568 0.9628 0.0
H83 H 0.70886 0.48681 0.87351 0.0
H84 H 0.53786 0.60791 0.86588 0.0
N85 N 0.47517 0.55962 0.93916 0.0
N86 N 0.46749 0.61782 0.93697 0.0
C87 C 0.56216 0.48323 0.93667 0.0
C88 C 0.62593 0.46457 0.92084 0.0
C89 C 0.53479 0.53809 0.91946 0.0
C90 C 0.56494 0.56983 0.88186 0.0
C91 C 0.62484 0.54915 0.86284 0.0
C92 C 0.65842 0.49953 0.88502 0.0
H93 H 0.45138 0.38758 0.01074 0.0
H94 H 0.38758 0.32102 0.14265 0.0
H95 H 0.51733 0.51623 0.13575 0.0
N96 N 0.53212 0.5054 0.04512 0.0
N97 N 0.54615 0.56494 0.05732 0.0
C98 C 0.45071 0.39687 0.04788 0.0
C99 C 0.41402 0.34722 0.07394 0.0
C100 C 0.48748 0.45822 0.07001 0.0
C101 C 0.48655 0.46986 0.11816 0.0
C102 C 0.45181 0.42025 0.14462 0.0
C103 C 0.4155 0.35919 0.12232 0.0
H104 H 0.22018 0.06081 0.03183 0.0
H105 H 0.07349 0.16436 0.9413 0.0
H106 H 0.17385 0.26416 0.95454 0.0
H107 H 0.29442 0.32607 0.0014 0.0
H108 H 0.43581 0.22572 0.09793 0.0
H109 H 0.34781 0.12082 0.07261 0.0
C110 C 0.21136 0.10483 0.01408 0.0
C111 C 0.13978 0.10555 0.98581 0.0
C112 C 0.26818 0.16292 0.02346 0.0
C113 C 0.12823 0.16298 0.96345 0.0
C114 C 0.18544 0.22008 0.9711 0.0
C115 C 0.30691 0.28086 0.01576 0.0
C116 C 0.3711 0.28327 0.05137 0.0
C117 C 0.2544 0.22131 0.00243 0.0
C118 C 0.38641 0.22471 0.07045 0.0
C119 C 0.33597 0.16488 0.05615 0.0
H120 H 0.16104 0.67587 -0.0092 0.0
H121 H 0.27256 0.87242 0.96673 0.0
H122 H 0.39059 0.83384 0.95627 0.0
H123 H 0.45582 0.74144 0.94468 0.0
H124 H 0.34257 0.54511 0.96807 0.0
H125 H 0.23131 0.58587 -0.01197 0.0
C126 C 0.2116 0.71026 0.98378 0.0
C127 C 0.20794 0.77668 0.97889 0.0
C128 C 0.27839 0.68749 0.97713 0.0
C129 C 0.27416 0.82114 0.97075 0.0
C130 C 0.34128 0.79895 0.96435 0.0
C131 C 0.40692 0.70807 0.95477 0.0
C132 C 0.40661 0.64069 0.9543 0.0
C133 C 0.34311 0.73193 0.96602 0.0
C134 C 0.3438 0.59726 0.96784 0.0
C135 C 0.28017 0.62054 0.97918 0.0
H136 H 0.82062 0.74201 0.98172 0.0
H137 H 0.69512 0.89038 0.01359 0.0
H138 H 0.59137 0.80599 0.03419 0.0
H139 H 0.54237 0.69055 0.05047 0.0
H140 H 0.66965 0.54374 0.01994 0.0
H141 H 0.76612 0.62643 -0.00893 0.0
C142 C 0.77022 0.7559 -0.00731 0.0
C143 C 0.76617 0.82247 -0.00331 0.0
C144 C 0.71117 0.70727 0.0049 0.0
C145 C 0.69996 0.83952 0.01044 0.0
C146 C 0.64072 0.79132 0.02244 0.0
C147 C 0.59091 0.67707 0.03688 0.0
C148 C 0.59845 0.61143 0.03648 0.0
C149 C 0.6467 0.72524 0.02098 0.0
C150 C 0.66164 0.59381 0.01933 0.0
C151 C 0.7172 0.64121 0.00329 0.0
H152 H 0.7504 0.23987 0.03479 0.0
H153 H 0.79447 0.18624 0.89729 0.0
H154 H 0.74397 0.27944 0.86455 0.0
H155 H 0.68283 0.37346 0.8744 0.0
H156 H 0.6392 0.42674 0.01235 0.0
H157 H 0.69122 0.33473 0.04494 0.0
C158 C 0.74851 0.24817 -0.00241 0.0
C159 C 0.77599 0.20574 0.96858 0.0
C160 C 0.71864 0.3014 0.97891 0.0
C161 C 0.77454 0.2183 0.9206 0.0
C162 C 0.74507 0.27136 0.90176 0.0
C163 C 0.68578 0.36584 0.91178 0.0
C164 C 0.65759 0.40792 0.94079 0.0
C165 C 0.71659 0.31301 0.93055 0.0
C166 C 0.65996 0.39549 -0.0111 0.0
C167 C 0.69017 0.34289 0.00774 0.0
H168 H 0.83313 0.69278 0.50075 0.0
H169 H 0.63238 0.78138 0.47048 0.0
H170 H 0.71527 0.88991 0.47917 0.0
H171 H 0.84122 0.95939 0.51023 0.0
H172 H 0.04187 0.87311 0.54518 0.0
H173 H 0.96368 0.76434 0.51851 0.0
C174 C 0.80784 0.73581 0.49498 0.0
C175 C 0.72668 0.72908 0.48616 0.0
C176 C 0.85596 0.79863 0.501 0.0
C177 C 0.69464 0.78524 0.47833 0.0
C178 C 0.74197 0.84745 0.4832 0.0
C179 C 0.86812 0.91697 0.51 0.0
C180 C 0.94658 0.92357 0.52933 0.0
C181 C 0.82223 0.85477 0.49661 0.0
C182 C 0.98144 0.86873 0.5298 0.0
C183 C 0.93648 0.80657 0.51524 0.0
H184 H 0.93596 0.40721 0.51252 0.0
H185 H 0.70521 0.28916 0.48327 0.0
H186 H 0.75861 0.1905 0.47465 0.0
H187 H 0.87075 0.1419 0.46294 0.0
H188 H 0.10101 0.26105 0.49108 0.0
H189 H 0.04896 0.35522 0.51348 0.0
C190 C 0.89774 0.35951 0.50533 0.0
C191 C 0.81701 0.35512 0.4979 0.0
C192 C 0.92895 0.3036 0.49986 0.0
C193 C 0.76754 0.29336 0.48919 0.0
C194 C 0.79809 0.23722 0.48384 0.0
C195 C 0.90921 0.18823 0.47521 0.0
C196 C 0.98906 0.19484 0.47542 0.0
C197 C 0.87855 0.24227 0.48723 0.0
C198 C 0.03928 0.25475 0.49116 0.0
C199 C 1.00942 0.30872 0.5035 0.0
H200 H 0.36963 0.45191 0.55932 0.0
H201 H 0.48473 0.32248 0.49061 0.0
H202 H 0.38693 0.22782 0.5059 0.0
H203 H 0.26762 0.18239 0.53932 0.0
H204 H 0.16022 0.31382 0.6117 0.0
H205 H 0.25582 0.40766 0.59412 0.0
C206 C 0.37345 0.40305 0.54747 0.0
C207 C 0.43405 0.39431 0.52351 0.0
C208 C 0.31816 0.34935 0.55701 0.0
C209 C 0.43863 0.3305 0.50914 0.0
C210 C 0.38261 0.27647 0.51778 0.0
C211 C 0.26537 0.23165 0.55104 0.0
C212 C 0.2069 0.24191 0.57661 0.0
C213 C 0.32193 0.28531 0.54168 0.0
C214 C 0.20492 0.30553 0.59206 0.0
C215 C 0.25938 0.35891 0.582 0.0
H216 H 0.30148 0.78121 0.54181 0.0
H217 H 0.41445 0.76965 0.42011 0.0
H218 H 0.36629 0.86361 0.38906 0.0
H219 H 0.28836 0.94687 0.39423 0.0
H220 H 0.16415 0.95188 0.51138 0.0
H221 H 0.22175 0.86381 0.54651 0.0
C222 C 0.31532 0.79857 0.50834 0.0
C223 C 0.36211 0.76755 0.48376 0.0
C224 C 0.2858 0.85218 0.48979 0.0
C225 C 0.37982 0.79227 0.44062 0.0
C226 C 0.35185 0.84618 0.42246 0.0
C227 C 0.27334 0.92857 0.4273 0.0
C228 C 0.22159 0.95617 0.44984 0.0
C229 C 0.30431 0.87616 0.44652 0.0
C230 C 0.20465 0.93259 0.49339 0.0
C231 C 0.23691 0.88154 0.51333 0.0
H232 H 1.00816 0.06782 0.13605 0.0
H233 H 1.01369 0.86188 0.13247 0.0
H234 H 0.04636 0.8665 0.21861 0.0
H235 H 0.07306 0.92921 0.29452 0.0
H236 H 0.08334 0.13836 0.29662 0.0
H237 H 0.0426 0.1318 0.21167 0.0
C238 C 1.01622 0.02396 0.15426 0.0
C239 C 1.00811 0.96455 0.12825 0.0
C240 C 0.03723 0.02744 0.2035 0.0
C241 C 0.01982 0.9082 0.15195 0.0
C242 C 0.03833 0.91081 0.20112 0.0
C243 C 0.06779 0.97372 0.27659 0.0
C244 C 0.08089 0.0341 0.30259 0.0
C245 C 0.04754 0.97029 0.22724 0.0
C246 C 0.07183 0.09075 0.27816 0.0
C247 C 0.04928 0.08731 0.22931 0.0
H248 H 0.92335 0.06884 0.84566 0.0
H249 H 0.91402 0.8604 0.83689 0.0
H250 H 0.93332 0.86569 0.75484 0.0
H251 H 0.96646 0.93026 0.68917 0.0
H252 H 0.97757 0.13909 0.69557 0.0
H253 H 0.94653 0.13337 0.77575 0.0
C254 C 0.92341 0.0245 0.82521 0.0
C255 C 0.91688 0.96423 0.84696 0.0
C256 C 0.93708 0.02825 0.77831 0.0
C257 C 0.91869 0.90721 0.82066 0.0
C258 C 0.93032 0.91029 0.77394 0.0
C259 C 0.96033 0.97453 0.70745 0.0
C260 C 0.97392 0.03497 0.68613 0.0
C261 C 0.94173 0.97071 0.75292 0.0
C262 C 0.96818 0.09198 0.71126 0.0
C263 C 0.94979 0.08863 0.75694 0.0
H264 H 0.61953 0.65617 0.65928 0.0
H265 H 0.6888 0.47269 0.63493 0.0
H266 H 0.7013 0.45383 0.71866 0.0
H267 H 0.67427 0.48115 0.79549 0.0
H268 H 0.61856 0.66948 0.82409 0.0
H269 H 0.61851 0.69423 0.74158 0.0
C270 C 0.63862 0.61273 0.6726 0.0
C271 C 0.65198 0.56544 0.64099 0.0
C272 C 0.6469 0.6024 0.72117 0.0
C273 C 0.67791 0.50978 0.65855 0.0
C274 C 0.68477 0.49873 0.70643 0.0
C275 C 0.665 0.5289 0.78482 0.0
C276 C 0.64405 0.57226 0.81639 0.0
C277 C 0.66708 0.54371 0.73776 0.0
C278 C 0.63162 0.63352 0.80053 0.0
C279 C 0.63211 0.64811 0.75326 0.0
H280 H 0.54185 0.43511 0.36477 0.0
H281 H 0.46253 0.61741 0.35054 0.0
H282 H 0.42495 0.59356 0.265 0.0
H283 H 0.42319 0.52329 0.19405 0.0
H284 H 0.50081 0.34027 0.21065 0.0
H285 H 0.5297 0.3615 0.29597 0.0
C286 C 0.51613 0.46958 0.34292 0.0
C287 C 0.50608 0.52837 0.3634 0.0
C288 C 0.49431 0.45524 0.29445 0.0
C289 C 0.47107 0.57199 0.33519 0.0
C290 C 0.44987 0.55841 0.28645 0.0
C291 C 0.44584 0.48801 0.21656 0.0
C292 C 0.46024 0.43049 0.19632 0.0
C293 C 0.46249 0.50063 0.26564 0.0
C294 C 0.48873 0.3846 0.22558 0.0
C295 C 0.50577 0.39691 0.27426 0.0
loop_
_geom_bond_atom_site_label_1
_geom_bond_atom_site_label_2
_geom_bond_distance
_geom_bond_site_symmetry_2
_ccdc_geom_bond_type
Co0 N5 2.057 . S
Co0 O17 2.021 . S
Co0 O20 2.062 1_455 S
Co0 O24 2.117 1_554 S
Co0 O25 2.020 1_565 S
C1 O21 1.259 1_455 S
C1 O24 1.258 1_545 S
Co2 N11 2.057 . S
Co2 O18 2.117 . S
Co2 O19 2.020 1_545 S
Co2 O21 2.021 1_554 S
Co2 O26 2.062 1_655 S
C3 N5 1.316 . S
C3 N6 1.347 . S
C3 H8 0.931 . S
C4 N5 1.375 1_556 S
C4 C7 1.350 . S
C4 H9 0.930 . S
N5 Co0 2.057 . S
N5 C3 1.316 . S
N5 C4 1.375 1_554 S
N6 C3 1.347 . S
N6 C7 1.373 1_554 S
C7 C4 1.350 . S
C7 N6 1.373 1_556 S
C7 H28 0.931 . S
H8 C3 0.931 . S
H9 C4 0.930 . S
C10 O17 1.257 1_545 S
C10 O18 1.261 1_455 S
N11 Co2 2.057 . S
N11 C12 1.316 1_554 S
N11 C13 1.375 . S
C12 N11 1.316 1_556 S
C12 N14 1.347 1_556 S
C12 H23 0.931 . S
C13 N11 1.375 . S
C13 C15 1.350 . S
C13 H22 0.930 . S
N14 C12 1.347 1_554 S
N14 C15 1.373 . S
C15 C13 1.350 . S
C15 N14 1.373 . S
C15 H29 0.931 . S
C16 O19 1.256 . S
C16 O20 1.255 . S
O17 Co0 2.021 . S
O17 C10 1.257 1_565 S
O18 Co2 2.117 . S
O18 C10 1.261 1_655 S
O19 Co2 2.020 1_565 S
O19 C16 1.256 . S
O20 Co0 2.062 1_655 S
O20 C16 1.255 . S
O21 C1 1.259 1_655 S
O21 Co2 2.021 1_556 S
H22 C13 0.930 . S
H23 C12 0.931 . S
O24 Co0 2.117 1_556 S
O24 C1 1.258 1_565 S
O25 Co0 2.020 1_545 S
O25 C27 1.256 . S
O26 Co2 2.062 1_455 S
O26 C27 1.255 . S
C27 O25 1.256 . S
C27 O26 1.255 . S
H28 C7 0.931 . S
H29 C15 0.931 . S
Co30 N35 2.057 . S
Co30 O47 2.021 . S
Co30 O50 2.062 . S
Co30 O54 2.117 . S
Co30 O55 2.020 . S
C31 O51 1.259 . S
C31 O54 1.258 . S
Co32 N41 2.057 . S
Co32 O48 2.117 . S
Co32 O49 2.020 . S
Co32 O51 2.021 . S
Co32 O56 2.062 . S
C33 N35 1.316 . S
C33 N36 1.347 . S
C33 H38 0.931 . S
C34 N35 1.375 . S
C34 C37 1.350 . S
C34 H39 0.930 . S
N35 Co30 2.057 . S
N35 C33 1.316 . S
N35 C34 1.375 . S
N36 C33 1.347 . S
N36 C37 1.373 . S
C37 C34 1.350 . S
C37 N36 1.373 . S
C37 H58 0.931 . S
H38 C33 0.931 . S
H39 C34 0.930 . S
C40 O47 1.259 . S
C40 O48 1.258 . S
N41 Co32 2.057 . S
N41 C42 1.316 . S
N41 C43 1.375 . S
C42 N41 1.316 . S
C42 N44 1.347 . S
C42 H53 0.931 . S
C43 N41 1.375 . S
C43 C45 1.350 . S
C43 H52 0.930 . S
N44 C42 1.347 . S
N44 C45 1.373 . S
C45 C43 1.350 . S
C45 N44 1.373 . S
C45 H59 0.931 . S
C46 O49 1.256 . S
C46 O50 1.255 . S
O47 Co30 2.021 . S
O47 C40 1.259 . S
O48 Co32 2.117 . S
O48 C40 1.258 . S
O49 Co32 2.020 . S
O49 C46 1.256 . S
O50 Co30 2.062 . S
O50 C46 1.255 . S
O51 C31 1.259 . S
O51 Co32 2.021 . S
H52 C43 0.930 . S
H53 C42 0.931 . S
O54 Co30 2.117 . S
O54 C31 1.258 . S
O55 Co30 2.020 . S
O55 C57 1.256 . S
O56 Co32 2.062 . S
O56 C57 1.255 . S
C57 O55 1.256 . S
C57 O56 1.255 . S
H58 C37 0.931 . S
H59 C45 0.931 . S
H60 C65 0.929 . S
H61 C70 0.931 . S
H62 C68 0.930 1_655 S
N63 N64 1.234 . S
N63 C67 1.453 1_655 S
N64 N63 1.234 . S
C65 H60 0.929 . S
C65 C66 1.373 . S
C65 C67 1.368 1_565 S
C66 C65 1.373 . S
C66 C70 1.397 . S
C67 N63 1.453 1_455 S
C67 C65 1.368 1_545 S
C67 C68 1.373 . S
C68 H62 0.930 1_455 S
C68 C67 1.373 . S
C68 C69 1.371 1_545 S
C69 C68 1.371 1_565 S
C69 C70 1.383 . S
C70 H61 0.931 . S
C70 C66 1.397 . S
C70 C69 1.383 . S
H71 C76 0.929 . S
H72 C81 0.931 . S
H73 C79 0.930 . S
N74 N75 1.234 . S
N74 C78 1.453 . S
N75 N74 1.234 . S
C76 H71 0.929 . S
C76 C77 1.373 . S
C76 C78 1.368 1_665 S
C77 C76 1.373 . S
C77 C81 1.397 . S
C78 N74 1.453 . S
C78 C76 1.368 1_445 S
C78 C79 1.373 . S
C79 H73 0.930 . S
C79 C78 1.373 . S
C79 C80 1.371 1_445 S
C80 C79 1.371 1_665 S
C80 C81 1.383 . S
C81 H72 0.931 . S
C81 C77 1.397 . S
C81 C80 1.383 . S
H82 C87 0.929 1_554 S
H83 C92 0.931 . S
H84 C90 0.930 . S
N85 N86 1.234 . S
N85 C89 1.453 . S
N86 N85 1.234 . S
C87 H82 0.929 1_556 S
C87 C88 1.373 . S
C87 C89 1.368 . S
C88 C87 1.373 . S
C88 C92 1.397 . S
C89 N85 1.453 . S
C89 C87 1.368 . S
C89 C90 1.373 . S
C90 H84 0.930 . S
C90 C89 1.373 . S
C90 C91 1.371 . S
C91 C90 1.371 . S
C91 C92 1.383 . S
C92 H83 0.931 . S
C92 C88 1.397 . S
C92 C91 1.383 . S
H93 C98 0.929 1_556 S
H94 C103 0.931 . S
H95 C101 0.930 . S
N96 N97 1.234 . S
N96 C100 1.453 . S
N97 N96 1.234 . S
C98 H93 0.929 1_554 S
C98 C99 1.373 . S
C98 C100 1.368 . S
C99 C98 1.373 . S
C99 C103 1.397 . S
C100 N96 1.453 . S
C100 C98 1.368 . S
C100 C101 1.373 . S
C101 H95 0.930 . S
C101 C100 1.373 . S
C101 C102 1.371 . S
C102 C101 1.371 . S
C102 C103 1.383 . S
C103 H94 0.931 . S
C103 C99 1.397 . S
C103 C102 1.383 . S
H104 C110 0.930 . S
H105 C113 0.930 . S
H106 C114 0.930 . S
H107 C115 0.930 1_556 S
H108 C118 0.930 . S
H109 C119 0.930 . S
C110 H104 0.930 . S
C110 C111 1.355 . S
C110 C112 1.415 . S
C111 C110 1.355 . S
C111 C113 1.419 1_554 S
C112 C110 1.415 . S
C112 C117 1.425 . S
C112 C119 1.409 . S
C113 H105 0.930 . S
C113 C111 1.419 1_556 S
C113 C114 1.362 . S
C114 H106 0.930 . S
C114 C113 1.362 . S
C114 C117 1.409 1_556 S
C115 H107 0.930 1_554 S
C115 C116 1.355 . S
C115 C117 1.415 . S
C116 C115 1.355 . S
C116 C118 1.419 . S
C117 C112 1.425 . S
C117 C114 1.409 1_554 S
C117 C115 1.415 . S
C118 H108 0.930 . S
C118 C116 1.419 . S
C118 C119 1.362 . S
C119 H109 0.930 . S
C119 C112 1.409 . S
C119 C118 1.362 . S
H120 C126 0.930 1_556 S
H121 C129 0.930 . S
H122 C130 0.930 . S
H123 C131 0.930 . S
H124 C134 0.930 . S
H125 C135 0.930 . S
C126 H120 0.930 1_554 S
C126 C127 1.355 . S
C126 C128 1.415 1_554 S
C127 C126 1.355 . S
C127 C129 1.419 . S
C128 C126 1.415 1_556 S
C128 C133 1.425 1_556 S
C128 C135 1.409 . S
C129 H121 0.930 . S
C129 C127 1.419 . S
C129 C130 1.362 . S
C130 H122 0.930 . S
C130 C129 1.362 . S
C130 C133 1.409 . S
C131 H123 0.930 . S
C131 C132 1.355 1_554 S
C131 C133 1.415 . S
C132 C131 1.355 1_556 S
C132 C134 1.419 . S
C133 C128 1.425 1_554 S
C133 C130 1.409 . S
C133 C131 1.415 . S
C134 H124 0.930 . S
C134 C132 1.419 . S
C134 C135 1.362 . S
C135 H125 0.930 . S
C135 C128 1.409 . S
C135 C134 1.362 . S
H136 C142 0.930 . S
H137 C145 0.930 . S
H138 C146 0.930 . S
H139 C147 0.930 . S
H140 C150 0.930 . S
H141 C151 0.930 . S
C142 H136 0.930 . S
C142 C143 1.355 1_556 S
C142 C144 1.415 . S
C143 C142 1.355 1_554 S
C143 C145 1.419 . S
C144 C142 1.415 . S
C144 C149 1.425 1_556 S
C144 C151 1.409 . S
C145 H137 0.930 . S
C145 C143 1.419 . S
C145 C146 1.362 . S
C146 H138 0.930 . S
C146 C145 1.362 . S
C146 C149 1.409 . S
C147 H139 0.930 . S
C147 C148 1.355 . S
C147 C149 1.415 . S
C148 C147 1.355 . S
C148 C150 1.419 1_554 S
C149 C144 1.425 1_554 S
C149 C146 1.409 . S
C149 C147 1.415 . S
C150 H140 0.930 . S
C150 C148 1.419 1_556 S
C150 C151 1.362 . S
C151 H141 0.930 . S
C151 C144 1.409 . S
C151 C150 1.362 . S
H152 C158 0.930 . S
H153 C161 0.930 . S
H154 C162 0.930 . S
H155 C163 0.930 1_554 S
H156 C166 0.930 . S
H157 C167 0.930 . S
C158 H152 0.930 . S
C158 C159 1.355 . S
C158 C160 1.415 . S
C159 C158 1.355 . S
C159 C161 1.419 1_556 S
C160 C158 1.415 . S
C160 C165 1.428 . S
C160 C167 1.409 . S
C161 H153 0.930 . S
C161 C159 1.419 1_554 S
C161 C162 1.362 . S
C162 H154 0.930 . S
C162 C161 1.362 . S
C162 C165 1.407 1_554 S
C163 H155 0.930 1_556 S
C163 C164 1.355 . S
C163 C165 1.414 . S
C164 C163 1.355 . S
C164 C166 1.419 . S
C165 C160 1.428 . S
C165 C162 1.407 1_556 S
C165 C163 1.414 . S
C166 H156 0.930 . S
C166 C164 1.419 . S
C166 C167 1.362 . S
C167 H157 0.930 . S
C167 C160 1.409 . S
C167 C166 1.362 . S
H168 C174 0.930 . S
H169 C177 0.930 . S
H170 C178 0.930 . S
H171 C179 0.930 . S
H172 C182 0.930 . S
H173 C183 0.930 . S
C174 H168 0.930 . S
C174 C175 1.355 . S
C174 C176 1.415 . S
C175 C174 1.355 . S
C175 C177 1.419 . S
C176 C174 1.415 . S
C176 C181 1.425 . S
C176 C183 1.409 . S
C177 H169 0.930 . S
C177 C175 1.419 . S
C177 C178 1.362 . S
C178 H170 0.930 . S
C178 C177 1.362 . S
C178 C181 1.409 . S
C179 H171 0.930 . S
C179 C180 1.355 . S
C179 C181 1.415 . S
C180 C179 1.355 . S
C180 C182 1.419 . S
C181 C176 1.425 . S
C181 C178 1.409 . S
C181 C179 1.415 . S
C182 H172 0.930 . S
C182 C180 1.419 . S
C182 C183 1.362 . S
C183 H173 0.930 . S
C183 C176 1.409 . S
C183 C182 1.362 . S
H184 C190 0.930 . S
H185 C193 0.930 . S
H186 C194 0.930 . S
H187 C195 0.930 . S
H188 C198 0.930 1_455 S
H189 C199 0.930 . S
C190 H184 0.930 . S
C190 C191 1.355 . S
C190 C192 1.415 . S
C191 C190 1.355 . S
C191 C193 1.419 . S
C192 C190 1.415 . S
C192 C197 1.425 . S
C192 C199 1.409 . S
C193 H185 0.930 . S
C193 C191 1.419 . S
C193 C194 1.362 . S
C194 H186 0.930 . S
C194 C193 1.362 . S
C194 C197 1.409 . S
C195 H187 0.930 . S
C195 C196 1.355 . S
C195 C197 1.415 . S
C196 C195 1.355 . S
C196 C198 1.419 . S
C197 C192 1.425 . S
C197 C194 1.409 . S
C197 C195 1.415 . S
C198 H188 0.930 1_655 S
C198 C196 1.419 . S
C198 C199 1.362 . S
C199 H189 0.930 . S
C199 C192 1.409 . S
C199 C198 1.362 . S
H200 C206 0.930 . S
H201 C209 0.930 . S
H202 C210 0.930 . S
H203 C211 0.930 . S
H204 C214 0.930 . S
H205 C215 0.930 . S
C206 H200 0.930 . S
C206 C207 1.355 . S
C206 C208 1.415 . S
C207 C206 1.355 . S
C207 C209 1.419 . S
C208 C206 1.415 . S
C208 C213 1.425 . S
C208 C215 1.409 . S
C209 H201 0.930 . S
C209 C207 1.419 . S
C209 C210 1.362 . S
C210 H202 0.930 . S
C210 C209 1.362 . S
C210 C213 1.409 . S
C211 H203 0.930 . S
C211 C212 1.355 . S
C211 C213 1.415 . S
C212 C211 1.355 . S
C212 C214 1.419 . S
C213 C208 1.425 . S
C213 C210 1.409 . S
C213 C211 1.415 . S
C214 H204 0.930 . S
C214 C212 1.419 . S
C214 C215 1.362 . S
C215 H205 0.930 . S
C215 C208 1.409 . S
C215 C214 1.362 . S
H216 C222 0.930 . S
H217 C225 0.930 . S
H218 C226 0.930 . S
H219 C227 0.930 . S
H220 C230 0.930 . S
H221 C231 0.930 . S
C222 H216 0.930 . S
C222 C223 1.355 . S
C222 C224 1.415 . S
C223 C222 1.355 . S
C223 C225 1.419 . S
C224 C222 1.415 . S
C224 C229 1.425 . S
C224 C231 1.409 . S
C225 H217 0.930 . S
C225 C223 1.419 . S
C225 C226 1.362 . S
C226 H218 0.930 . S
C226 C225 1.362 . S
C226 C229 1.409 . S
C227 H219 0.930 . S
C227 C228 1.355 . S
C227 C229 1.415 . S
C228 C227 1.355 . S
C228 C230 1.419 . S
C229 C224 1.425 . S
C229 C226 1.409 . S
C229 C227 1.415 . S
C230 H220 0.930 . S
C230 C228 1.419 . S
C230 C231 1.362 . S
C231 H221 0.930 . S
C231 C224 1.409 . S
C231 C230 1.362 . S
H232 C238 0.930 . S
H233 C241 0.930 . S
H234 C242 0.930 . S
H235 C243 0.930 . S
H236 C246 0.930 1_655 S
H237 C247 0.930 1_655 S
C238 H232 0.930 . S
C238 C239 1.355 1_545 S
C238 C240 1.415 . S
C239 C238 1.355 1_565 S
C239 C241 1.419 . S
C240 C238 1.415 . S
C240 C245 1.425 1_545 S
C240 C247 1.409 . S
C241 H233 0.930 . S
C241 C239 1.419 . S
C241 C242 1.362 . S
C242 H234 0.930 . S
C242 C241 1.362 . S
C242 C245 1.409 . S
C243 H235 0.930 . S
C243 C244 1.355 . S
C243 C245 1.415 . S
C244 C243 1.355 . S
C244 C246 1.419 1_565 S
C245 C240 1.425 1_565 S
C245 C242 1.409 . S
C245 C243 1.415 . S
C246 H236 0.930 1_455 S
C246 C244 1.419 1_545 S
C246 C247 1.362 . S
C247 H237 0.930 1_455 S
C247 C240 1.409 . S
C247 C246 1.362 . S
H248 C254 0.930 . S
H249 C257 0.930 . S
H250 C258 0.930 . S
H251 C259 0.930 . S
H252 C262 0.930 . S
H253 C263 0.930 . S
C254 H248 0.930 . S
C254 C255 1.355 1_665 S
C254 C256 1.415 . S
C255 C254 1.355 1_445 S
C255 C257 1.419 . S
C256 C254 1.415 . S
C256 C261 1.425 1_665 S
C256 C263 1.409 . S
C257 H249 0.930 . S
C257 C255 1.419 . S
C257 C258 1.362 . S
C258 H250 0.930 . S
C258 C257 1.362 . S
C258 C261 1.409 . S
C259 H251 0.930 . S
C259 C260 1.355 1_445 S
C259 C261 1.415 . S
C260 C259 1.355 1_665 S
C260 C262 1.418 . S
C261 C256 1.425 1_445 S
C261 C258 1.409 . S
C261 C259 1.415 . S
C262 H252 0.930 . S
C262 C260 1.418 . S
C262 C263 1.362 . S
C263 H253 0.930 . S
C263 C256 1.409 . S
C263 C262 1.362 . S
H264 C270 0.930 . S
H265 C273 0.930 . S
H266 C274 0.930 . S
H267 C275 0.930 . S
H268 C278 0.930 . S
H269 C279 0.930 . S
C270 H264 0.930 . S
C270 C271 1.355 . S
C270 C272 1.415 . S
C271 C270 1.355 . S
C271 C273 1.419 . S
C272 C270 1.415 . S
C272 C277 1.425 . S
C272 C279 1.409 . S
C273 H265 0.930 . S
C273 C271 1.419 . S
C273 C274 1.362 . S
C274 H266 0.930 . S
C274 C273 1.362 . S
C274 C277 1.409 . S
C275 H267 0.930 . S
C275 C276 1.355 . S
C275 C277 1.415 . S
C276 C275 1.355 . S
C276 C278 1.419 . S
C277 C272 1.425 . S
C277 C274 1.409 . S
C277 C275 1.415 . S
C278 H268 0.930 . S
C278 C276 1.419 . S
C278 C279 1.362 . S
C279 H269 0.930 . S
C279 C272 1.409 . S
C279 C278 1.362 . S
H280 C286 0.930 . S
H281 C289 0.930 . S
H282 C290 0.930 . S
H283 C291 0.930 . S
H284 C294 0.930 . S
H285 C295 0.930 . S
C286 H280 0.930 . S
C286 C287 1.355 . S
C286 C288 1.415 . S
C287 C286 1.355 . S
C287 C289 1.419 . S
C288 C286 1.415 . S
C288 C293 1.425 . S
C288 C295 1.409 . S
C289 H281 0.930 . S
C289 C287 1.419 . S
C289 C290 1.362 . S
C290 H282 0.930 . S
C290 C289 1.362 . S
C290 C293 1.409 . S
C291 H283 0.930 . S
C291 C292 1.355 . S
C291 C293 1.415 . S
C292 C291 1.355 . S
C292 C294 1.419 . S
C293 C288 1.425 . S
C293 C290 1.409 . S
C293 C291 1.415 . S
C294 H284 0.930 . S
C294 C292 1.419 . S
C294 C295 1.362 . S
C295 H285 0.930 . S
C295 C288 1.409 . S
C295 C294 1.362 . S
C116 C99 1.433 . S
C111 C27 1.483 . S
C127 N6 1.382 . S
C132 N86 1.367 . S
C143 C16 1.434 . S
C148 N97 1.413 . S
C159 N14 1.411 1_556 S
C164 C88 1.419 . S
C175 C57 1.485 . S
C180 C77 1.431 . S
C191 N36 1.368 . S
C196 N64 1.399 . S
C212 N75 1.370 . S
C207 C46 1.454 . S
C228 C66 1.440 . S
C223 N44 1.455 . S
C239 C10 1.459 1_565 S
C244 C69 1.473 . S
C255 C1 1.542 . S
C260 C80 1.526 . S
C276 C91 1.473 . S
C271 C40 1.460 . S
C287 C31 1.538 . S
C292 C102 1.520 . S
