# Generated by pormake.
# Topology anh, (6,3)-cn, num edge types: 1
# Building blocks:
#     Node 0, Type 0, BuildingBlock: BETDIP_clean_sbu_0, # of connection points: 6
#     Node 1, Type 0, BuildingBlock: BETDIP_clean_sbu_0, # of connection points: 6
#     Node 2, Type 0, BuildingBlock: BETDIP_clean_sbu_0, # of connection points: 6
#     Node 3, Type 1, BuildingBlock: KAKCAD_clean_linker_0, # of connection points: 3
#     Node 4, Type 1, BuildingBlock: KAKCAD_clean_linker_0, # of connection points: 3
#     Node 5, Type 1, BuildingBlock: KAKCAD_clean_linker_0, # of connection points: 3
#     Node 6, Type 1, BuildingBlock: KAKCAD_clean_linker_0, # of connection points: 3
#     Node 7, Type 1, BuildingBlock: KAKCAD_clean_linker_0, # of connection points: 3
#     Node 8, Type 1, BuildingBlock: KAKCAD_clean_linker_0, # of connection points: 3
#     Edge 9, Type (0, 1), BuildingBlock: ZUJKAS_clean_linker_0, # of connection points: 2
#     Edge 10, Type (0, 1), BuildingBlock: ZUJKAS_clean_linker_0, # of connection points: 2
#     Edge 11, Type (0, 1), BuildingBlock: ZUJKAS_clean_linker_0, # of connection points: 2
#     Edge 12, Type (0, 1), BuildingBlock: ZUJKAS_clean_linker_0, # of connection points: 2
#     Edge 13, Type (0, 1), BuildingBlock: ZUJKAS_clean_linker_0, # of connection points: 2
#     Edge 14, Type (0, 1), BuildingBlock: ZUJKAS_clean_linker_0, # of connection points: 2
#     Edge 15, Type (0, 1), BuildingBlock: ZUJKAS_clean_linker_0, # of connection points: 2
#     Edge 16, Type (0, 1), BuildingBlock: ZUJKAS_clean_linker_0, # of connection points: 2
#     Edge 17, Type (0, 1), BuildingBlock: ZUJKAS_clean_linker_0, # of connection points: 2
#     Edge 18, Type (0, 1), BuildingBlock: ZUJKAS_clean_linker_0, # of connection points: 2
#     Edge 19, Type (0, 1), BuildingBlock: ZUJKAS_clean_linker_0, # of connection points: 2
#     Edge 20, Type (0, 1), BuildingBlock: ZUJKAS_clean_linker_0, # of connection points: 2
#     Edge 21, Type (0, 1), BuildingBlock: ZUJKAS_clean_linker_0, # of connection points: 2
#     Edge 22, Type (0, 1), BuildingBlock: ZUJKAS_clean_linker_0, # of connection points: 2
#     Edge 23, Type (0, 1), BuildingBlock: ZUJKAS_clean_linker_0, # of connection points: 2
#     Edge 24, Type (0, 1), BuildingBlock: ZUJKAS_clean_linker_0, # of connection points: 2
#     Edge 25, Type (0, 1), BuildingBlock: ZUJKAS_clean_linker_0, # of connection points: 2
#     Edge 26, Type (0, 1), BuildingBlock: ZUJKAS_clean_linker_0, # of connection points: 2
# Relax obj value: 0.206
# Max RMSD: 0.179
# Mean RMSD: 0.149
data_MOF--net-anh--node1-BETDIP_clean_sbu_0--node2-KAKCAD_clean_linker_0--edge1-ZUJKAS_clean_linker_0
_symmetry_space_group_name_H-M    P1
_symmetry_Int_Tables_number       1
_symmetry_cell_setting            triclinic
loop_
_symmetry_equiv_pos_as_xyz
'x, y, z'
_cell_length_a     45.873485
_cell_length_b     45.854095
_cell_length_c     81.486706
_cell_angle_alpha  89.861129
_cell_angle_beta   89.960357
_cell_angle_gamma 120.00529
loop_
_atom_site_label
_atom_site_type_symbol
_atom_site_fract_x
_atom_site_fract_y
_atom_site_fract_z
_atom_type_partial_charge
Tb0 Tb 0.11337 0.59379 0.17592 0.0
Tb1 Tb 0.07836 0.52143 0.17032 0.0
C2 C 0.15398 0.65106 0.18655 0.0
C3 C 0.19072 0.67168 0.18407 0.0
C4 C 0.21305 0.66325 0.19171 0.0
C5 C 0.24734 0.68089 0.18787 0.0
C6 C 0.25979 0.707 0.17623 0.0
C7 C 0.2376 0.71571 0.16878 0.0
C8 C 0.20346 0.69838 0.17274 0.0
C9 C 0.09963 0.57669 0.14514 0.0
C10 C 0.15725 0.55594 0.16984 0.0
C11 C 1.03758 0.46358 0.15995 0.0
C12 C 1.00091 0.44739 0.15803 0.0
C13 C 0.98458 0.4251 0.14504 0.0
C14 C 0.95024 0.41272 0.14225 0.0
C15 C 0.93216 0.4231 0.15225 0.0
C16 C 0.94846 0.44486 0.16542 0.0
C17 C 0.98245 0.45675 0.16834 0.0
C18 C 0.0915 0.53895 0.20154 0.0
C19 C 1.03575 0.56087 0.17244 0.0
O20 O 0.14318 0.6236 0.19539 0.0
O21 O 0.13585 0.64604 0.17335 0.0
O22 O 0.10987 0.56347 0.15546 0.0
O23 O 0.09875 0.60198 0.15159 0.0
O24 O 0.15639 0.5834 0.17456 0.0
O25 O 0.12876 0.52814 0.16612 0.0
O26 O 1.05495 0.48941 0.15029 0.0
O27 O 1.04864 0.46969 0.17505 0.0
O28 O 0.08127 0.55197 0.19099 0.0
O29 O 0.09332 0.51435 0.19482 0.0
O30 O 1.03779 0.53457 0.16704 0.0
O31 O 1.06255 0.58658 0.17919 0.0
H32 H 0.20405 0.6427 0.20045 0.0
H33 H 0.26407 0.67395 0.19387 0.0
H34 H 0.24676 0.73637 0.16009 0.0
H35 H 0.1869 0.70552 0.16671 0.0
H36 H 0.99852 0.41783 0.13689 0.0
H37 H 0.93802 0.39576 0.13208 0.0
H38 H 0.93488 0.45275 0.17346 0.0
H39 H 0.99444 0.47389 0.17847 0.0
Tb40 Tb 0.60039 0.05221 0.50952 0.0
Tb41 Tb 0.5614 0.08673 0.5043 0.0
C42 C 0.62005 1.01395 0.52056 0.0
C43 C 0.60793 0.97768 0.51892 0.0
C44 C 0.57462 0.95319 0.52284 0.0
C45 C 0.56343 0.91904 0.52034 0.0
C46 C 0.58525 0.90893 0.5137 0.0
C47 C 0.61851 0.93347 0.50984 0.0
C48 C 0.62976 0.96749 0.51249 0.0
C49 C 0.59699 0.06751 0.47892 0.0
C50 C 0.51848 1.00748 0.5038 0.0
C51 C 0.54391 0.12666 0.49328 0.0
C52 C 0.56552 0.16155 0.48746 0.0
C53 C 0.59132 0.16941 0.47592 0.0
C54 C 0.61691 0.20274 0.47361 0.0
C55 C 0.61735 0.22862 0.48297 0.0
C56 C 0.5899 0.22103 0.49334 0.0
C57 C 0.56421 0.18779 0.49555 0.0
C58 C 0.56539 0.07175 0.53521 0.0
C59 C 0.64327 0.13054 0.50621 0.0
O60 O 0.60122 1.02263 0.52898 0.0
O61 O 0.63173 1.03148 0.50704 0.0
O62 O 0.57379 0.05691 0.48939 0.0
O63 O 0.62286 0.06717 0.48505 0.0
O64 O 0.54743 1.00856 0.50751 0.0
O65 O 0.51799 1.03583 0.50115 0.0
O66 O 0.54407 0.10297 0.48443 0.0
O67 O 0.54623 0.12215 0.50899 0.0
O68 O 0.58884 0.08274 0.52472 0.0
O69 O 0.53903 0.07053 0.52864 0.0
O70 O 0.61466 0.12806 0.50093 0.0
O71 O 0.64299 0.10376 0.51264 0.0
H72 H 0.55713 0.96036 0.52771 0.0
H73 H 0.53767 0.90058 0.52341 0.0
H74 H 0.63603 0.9263 0.505 0.0
H75 H 0.65551 0.98593 0.50937 0.0
H76 H 0.5931 0.14971 0.46948 0.0
H77 H 0.63769 0.20781 0.46553 0.0
H78 H 0.58913 0.24065 0.50038 0.0
H79 H 0.54452 0.18238 0.50443 0.0
Tb80 Tb 0.57185 0.55913 0.84382 0.0
Tb81 Tb 0.64465 0.59784 0.83609 0.0
C82 C 0.51624 0.53936 0.85778 0.0
C83 C 0.49134 0.55054 0.85798 0.0
C84 C 0.50117 0.58471 0.85622 0.0
C85 C 0.47697 0.59452 0.85468 0.0
C86 C 0.44259 0.5703 0.85515 0.0
C87 C 0.43285 0.53621 0.85744 0.0
C88 C 0.45707 0.52642 0.85875 0.0
C89 C 0.58581 0.56158 0.81256 0.0
C90 C 0.60856 0.64084 0.83673 0.0
C91 C 0.7013 0.61537 0.82394 0.0
C92 C 0.71602 0.59437 0.81953 0.0
C93 C 0.73229 0.59882 0.80436 0.0
C94 C 0.74279 0.57629 0.79938 0.0
C95 C 0.73664 0.54896 0.80946 0.0
C96 C 0.72092 0.54486 0.8247 0.0
C97 C 0.71068 0.56734 0.82971 0.0
C98 C 0.6294 0.59387 0.86762 0.0
C99 C 0.60672 0.5161 0.83845 0.0
O100 O 0.54531 0.55931 0.86473 0.0
O101 O 0.5195 0.52765 0.8437 0.0
O102 O 0.60033 0.58508 0.82276 0.0
O103 O 0.56029 0.53612 0.81948 0.0
O104 O 0.58137 0.61228 0.84166 0.0
O105 O 0.63665 0.64086 0.83277 0.0
O106 O 0.67528 0.61001 0.81515 0.0
O107 O 0.69643 0.61754 0.83962 0.0
O108 O 0.61592 0.57048 0.85722 0.0
O109 O 0.65337 0.62042 0.86054 0.0
O110 O 0.63207 0.54455 0.83248 0.0
O111 O 0.58138 0.51665 0.84605 0.0
H112 H 0.52748 0.60375 0.85585 0.0
H113 H 0.48507 0.62097 0.85311 0.0
H114 H 0.40647 0.51703 0.85771 0.0
H115 H 0.44904 0.49992 0.86002 0.0
H116 H 0.73627 0.61927 0.79627 0.0
H117 H 0.75528 0.57991 0.78764 0.0
H118 H 0.71632 0.52402 0.83268 0.0
H119 H 0.69782 0.563 0.84138 0.0
C120 C 0.55135 0.15383 0.30361 0.0
C121 C 0.55857 0.13017 0.3107 0.0
C122 C 0.54573 0.1534 0.28668 0.0
C123 C 0.54734 0.12935 0.27664 0.0
C124 C 0.55619 0.10687 0.2837 0.0
C125 C 0.56162 0.1072 0.30051 0.0
C126 C 0.53868 0.12647 0.25896 0.0
C127 C 0.55243 0.155 0.24867 0.0
C128 C 0.54632 0.15153 0.23162 0.0
C129 C 0.52498 0.11917 0.22526 0.0
C130 C 0.51328 0.09048 0.23515 0.0
C131 C 0.51905 0.09438 0.25206 0.0
C132 C 0.501 0.05718 0.22734 0.0
C133 C 0.4799 0.04766 0.21353 0.0
C134 C 0.51426 1.03678 0.23234 0.0
C135 C 0.50752 1.00817 0.22343 0.0
C136 C 0.48752 0.99942 0.20928 0.0
C137 C 0.5661 0.1802 0.22009 0.0
C138 C 0.57785 0.2139 0.22463 0.0
C139 C 0.57568 0.17392 0.20465 0.0
C140 C 0.59682 0.20018 0.19433 0.0
C141 C 0.61054 0.23373 0.19934 0.0
C142 C 0.60008 0.24044 0.2144 0.0
C143 C 0.4733 1.01909 0.20456 0.0
H144 H 0.54891 0.17184 0.31121 0.0
H145 H 0.53903 0.17106 0.28154 0.0
H146 H 0.55862 0.08869 0.27622 0.0
H147 H 0.56799 0.08924 0.30558 0.0
H148 H 0.56967 0.1794 0.25384 0.0
H149 H 0.50922 0.07216 0.25979 0.0
H150 H 0.51972 0.11594 0.21224 0.0
H151 H 0.46911 0.06272 0.20946 0.0
H152 H 0.53122 0.04377 0.2427 0.0
H153 H 0.51889 0.99351 0.22731 0.0
H154 H 0.57069 0.21987 0.23626 0.0
H155 H 0.56837 0.14872 0.20064 0.0
H156 H 0.45712 1.01244 0.19391 0.0
H157 H 0.6102 0.26607 0.21863 0.0
H158 H 0.60361 0.19403 0.18263 0.0
C159 C 0.64696 0.54862 0.63389 0.0
C160 C 0.67505 0.56026 0.64426 0.0
C161 C 0.65107 0.55161 0.61689 0.0
C162 C 0.68334 0.5661 0.60986 0.0
C163 C 0.71137 0.57662 0.62016 0.0
C164 C 0.70728 0.57392 0.63722 0.0
C165 C 0.68769 0.57197 0.59191 0.0
C166 C 0.67111 0.58659 0.58384 0.0
C167 C 0.67465 0.59239 0.56687 0.0
C168 C 0.69545 0.58379 0.55799 0.0
C169 C 0.7117 0.56832 0.56572 0.0
C170 C 0.70792 0.56285 0.5828 0.0
C171 C 0.73061 0.55602 0.55569 0.0
C172 C 0.71943 0.54341 0.5398 0.0
C173 C 0.75895 0.55545 0.56197 0.0
C174 C 0.77484 0.54154 0.55279 0.0
C175 C 0.76321 0.52876 0.53703 0.0
C176 C 0.65614 0.60687 0.55836 0.0
C177 C 0.62259 0.59648 0.5626 0.0
C178 C 0.67179 0.63105 0.54589 0.0
C179 C 0.65446 0.64483 0.53798 0.0
C180 C 0.62117 0.6349 0.54244 0.0
C181 C 0.60534 0.61046 0.55476 0.0
C182 C 0.73575 0.53036 0.53054 0.0
H183 H 0.62184 0.53827 0.63894 0.0
H184 H 0.62901 0.54303 0.60922 0.0
H185 H 0.73652 0.58799 0.61504 0.0
H186 H 0.72934 0.58285 0.64492 0.0
H187 H 0.65587 0.59406 0.59088 0.0
H188 H 0.71953 0.55032 0.58899 0.0
H189 H 0.69838 0.58856 0.54491 0.0
H190 H 0.69717 0.54228 0.53463 0.0
H191 H 0.76863 0.56532 0.57405 0.0
H192 H 0.79583 0.54027 0.55809 0.0
H193 H 0.6096 0.57743 0.57194 0.0
H194 H 0.69773 0.63995 0.54248 0.0
H195 H 0.72567 0.51979 0.5186 0.0
H196 H 0.57962 0.6022 0.55836 0.0
H197 H 0.66753 0.66411 0.52875 0.0
C198 C 1.05916 0.51709 0.9617 0.0
C199 C 1.03459 0.49625 0.97322 0.0
C200 C 1.05399 0.5107 0.94493 0.0
C201 C 1.02471 0.48234 0.93903 0.0
C202 C 1.00023 0.46123 0.95052 0.0
C203 C 1.00484 0.46837 0.96731 0.0
C204 C 1.02001 0.47505 0.92102 0.0
C205 C 1.04816 0.48557 0.91067 0.0
C206 C 1.04451 0.4813 0.8936 0.0
C207 C 1.01213 0.46378 0.8869 0.0
C208 C 0.98367 0.45216 0.89698 0.0
C209 C 0.98768 0.4585 0.91392 0.0
C210 C 0.95 0.436 0.88937 0.0
C211 C 0.92927 0.45004 0.89145 0.0
C212 C 0.93991 0.40866 0.87868 0.0
C213 C 0.91015 0.39641 0.86968 0.0
C214 C 0.89027 0.41178 0.87095 0.0
C215 C 0.07458 0.497 0.88276 0.0
C216 C 0.10107 0.52963 0.88612 0.0
C217 C 0.07695 0.47995 0.86897 0.0
C218 C 0.10572 0.49486 0.85906 0.0
C219 C 0.13267 0.52711 0.86274 0.0
C220 C 0.12979 0.54446 0.87626 0.0
C221 C 0.89989 0.43828 0.88225 0.0
H222 H 0.08281 0.53838 0.96552 0.0
H223 H 0.07318 0.52835 0.93664 0.0
H224 H 0.97749 0.43889 0.94665 0.0
H225 H 0.98482 0.45195 0.97558 0.0
H226 H 0.07324 0.49728 0.9158 0.0
H227 H 0.9655 0.45089 0.92141 0.0
H228 H 1.00896 0.46064 0.87372 0.0
H229 H 0.9368 0.47143 0.89948 0.0
H230 H 0.95553 0.39734 0.87699 0.0
H231 H 0.9033 0.37557 0.86139 0.0
H232 H 0.09972 0.54374 0.89644 0.0
H233 H 1.05694 0.45478 0.86606 0.0
H234 H 0.88584 0.45137 0.88339 0.0
H235 H 0.15022 0.5691 0.87962 0.0
H236 H 0.10708 0.48093 0.84865 0.0
C237 C 1.05713 0.55442 0.38734 0.0
C238 C 0.08745 0.5642 0.37891 0.0
C239 C 1.05621 0.55502 0.40455 0.0
C240 C 0.08556 0.56518 0.41391 0.0
C241 C 0.11588 0.57485 0.40545 0.0
C242 C 0.11683 0.57449 0.38823 0.0
C243 C 0.08454 0.56575 0.43237 0.0
C244 C 1.05667 0.54071 0.44106 0.0
C245 C 1.05454 0.54064 0.45835 0.0
C246 C 0.08236 0.56703 0.46713 0.0
C247 C 0.11125 0.59273 0.45855 0.0
C248 C 0.11137 0.59136 0.44127 0.0
C249 C 0.14224 0.62164 0.46665 0.0
C250 C 0.14059 0.64622 0.47637 0.0
C251 C 0.17472 0.62811 0.46218 0.0
C252 C 0.20417 0.65805 0.46677 0.0
C253 C 0.20277 0.68338 0.47599 0.0
C254 C 1.02251 0.51233 0.46622 0.0
C255 C 0.99071 0.5036 0.45957 0.0
C256 C 1.02293 0.49067 0.47845 0.0
C257 C 0.99293 0.4609 0.48328 0.0
C258 C 0.9612 0.45162 0.47618 0.0
C259 C 0.96094 0.47415 0.46439 0.0
C260 C 0.17022 0.67651 0.48089 0.0
H261 H 1.03408 0.54682 0.38061 0.0
H262 H 1.03247 0.54798 0.4105 0.0
H263 H 0.13894 0.58227 0.41212 0.0
H264 H 0.14056 0.58173 0.38221 0.0
H265 H 1.03646 0.52042 0.43425 0.0
H266 H 0.13253 0.61112 0.43461 0.0
H267 H 0.08155 0.56758 0.4804 0.0
H268 H 0.11628 0.64277 0.47986 0.0
H269 H 0.17736 0.61027 0.45453 0.0
H270 H 0.22812 0.66181 0.46243 0.0
H271 H 0.98892 0.51925 0.4501 0.0
H272 H 1.04666 0.49594 0.4838 0.0
H273 H 0.16748 0.69474 0.48814 0.0
H274 H 0.93777 0.46852 0.45829 0.0
H275 H 0.99481 0.44499 0.49256 0.0
C276 C 0.57534 1.04105 0.72187 0.0
C277 C 0.59409 0.07044 0.71243 0.0
C278 C 0.57693 0.0421 0.73908 0.0
C279 C 0.59753 0.07256 0.74739 0.0
C280 C 0.61649 0.10188 0.7379 0.0
C281 C 0.61468 0.10085 0.72071 0.0
C282 C 0.59936 0.07383 0.76582 0.0
C283 C 0.5986 0.04734 0.77488 0.0
C284 C 0.60064 0.04795 0.79215 0.0
C285 C 0.60417 0.07709 0.80053 0.0
C286 C 0.60513 0.1046 0.79157 0.0
C287 C 0.60212 0.10176 0.77432 0.0
C288 C 0.60935 0.137 0.79918 0.0
C289 C 0.59019 0.13732 0.81267 0.0
C290 C 0.63008 0.16828 0.79134 0.0
C291 C 0.63047 0.19803 0.7961 0.0
C292 C 0.61052 0.19852 0.8092 0.0
C293 C 0.59878 1.01718 0.80042 0.0
C294 C 0.57229 0.98466 0.79643 0.0
C295 C 0.6256 1.01894 0.80967 0.0
C296 C 0.62635 0.98933 0.8142 0.0
C297 C 0.6002 0.95673 0.80974 0.0
C298 C 0.57289 0.95524 0.80101 0.0
C299 C 0.59075 0.16742 0.81758 0.0
H300 H 0.55886 1.01724 0.71595 0.0
H301 H 0.56152 1.01906 0.74587 0.0
H302 H 0.63319 0.1257 0.74373 0.0
H303 H 0.6299 0.1239 0.71388 0.0
H304 H 0.59709 1.02604 0.76837 0.0
H305 H 0.60132 0.12149 0.76734 0.0
H306 H 0.60616 0.07832 0.81377 0.0
H307 H 0.57371 0.11405 0.81907 0.0
H308 H 0.64559 0.16969 0.781 0.0
H309 H 0.64582 0.22048 0.78893 0.0
H310 H 0.55137 0.98197 0.78912 0.0
H311 H 0.64682 0.04329 0.81276 0.0
H312 H 0.57532 0.16604 0.82792 0.0
H313 H 0.55232 0.93124 0.79702 0.0
H314 H 0.64778 0.99213 0.82107 0.0
C315 C 0.61099 0.54867 0.05356 0.0
C316 C 0.60317 0.57066 0.04508 0.0
C317 C 0.61044 0.54737 0.07077 0.0
C318 C 0.60177 0.56782 0.08004 0.0
C319 C 0.59378 0.5897 0.07156 0.0
C320 C 0.59464 0.59123 0.05434 0.0
C321 C 0.60084 0.56608 0.09843 0.0
C322 C 0.62651 0.56469 0.10716 0.0
C323 C 0.62614 0.56206 0.12443 0.0
C324 C 0.59858 0.56156 0.13313 0.0
C325 C 0.5717 0.56235 0.12444 0.0
C326 C 0.57391 0.565 0.10717 0.0
C327 C 0.53986 0.55895 0.13229 0.0
C328 C 0.508 0.53547 0.12587 0.0
C329 C 0.54045 0.58181 0.14404 0.0
C330 C 0.5105 0.58182 0.14868 0.0
C331 C 0.47867 0.55886 0.14183 0.0
C332 C 0.65469 0.55879 0.1323 0.0
C333 C 0.66513 0.53749 0.12507 0.0
C334 C 0.67474 0.57947 0.14526 0.0
C335 C 0.70464 0.57968 0.15025 0.0
C336 C 0.71571 0.55915 0.14252 0.0
C337 C 0.69477 0.53776 0.12995 0.0
C338 C 0.47829 0.53539 0.13049 0.0
H339 H 0.61797 0.53267 0.04689 0.0
H340 H 0.61643 0.52998 0.07684 0.0
H341 H 0.5872 0.60597 0.07827 0.0
H342 H 0.58819 0.60827 0.04827 0.0
H343 H 0.64746 0.56608 0.10033 0.0
H344 H 0.55395 0.56564 0.10036 0.0
H345 H 0.59735 0.55917 0.14637 0.0
H346 H 0.50615 0.51755 0.1167 0.0
H347 H 0.56427 0.60066 0.14915 0.0
H348 H 0.51247 0.60017 0.1576 0.0
H349 H 0.65069 0.52101 0.11509 0.0
H350 H 0.66809 0.5965 0.15114 0.0
H351 H 0.45507 0.51747 0.12456 0.0
H352 H 0.70171 0.52176 0.1233 0.0
H353 H 0.71918 0.59628 0.16014 0.0
H354 H 0.22257 0.61008 0.17299 0.0
H355 H 0.27632 0.61162 0.1686 0.0
H356 H 0.22264 0.50555 0.15774 0.0
H357 H 0.16908 0.50411 0.16171 0.0
H358 H 0.3091 0.58397 0.18245 0.0
H359 H 0.28318 0.53557 0.11904 0.0
H360 H 0.25635 0.54764 0.12963 0.0
H361 H 0.25189 0.50676 0.13309 0.0
C362 C 0.22206 0.58701 0.16962 0.0
C363 C 0.19084 0.557 0.16764 0.0
C364 C 0.25313 0.58791 0.16709 0.0
C365 C 0.2544 0.55889 0.16238 0.0
C366 C 0.22319 0.52877 0.16079 0.0
H367 H 0.41205 0.50598 0.14258 0.0
H368 H 0.36031 0.5074 0.14758 0.0
C369 C 0.19218 0.52789 0.16325 0.0
C370 C 0.28796 0.55994 0.15939 0.0
H371 H 0.33054 0.53738 0.13202 0.0
C372 C 0.31368 0.57395 0.17132 0.0
C373 C 0.29493 0.54709 0.14492 0.0
C374 C 0.27029 0.53375 0.13087 0.0
C375 C 0.34488 0.57453 0.16947 0.0
C376 C 0.3516 0.56124 0.1551 0.0
C377 C 0.326 0.54748 0.14312 0.0
C378 C 0.38448 0.56086 0.15228 0.0
C379 C 0.36996 0.58847 0.18331 0.0
C380 C 0.41642 0.59039 0.15302 0.0
C381 C 0.44659 0.58975 0.14999 0.0
C382 C 0.44627 0.55956 0.14595 0.0
C383 C 0.41418 0.53005 0.1453 0.0
C384 C 0.38411 0.53075 0.14829 0.0
H385 H 0.35775 0.58849 0.19508 0.0
H386 H 0.38295 0.57373 0.18499 0.0
H387 H 0.38919 0.61489 0.18042 0.0
H388 H 0.41814 0.61433 0.15562 0.0
H389 H 0.4702 0.61331 0.15039 0.0
H390 H 0.70929 0.14392 0.50933 0.0
H391 H 0.76206 0.19737 0.50517 0.0
H392 H 0.70543 0.2466 0.49392 0.0
H393 H 0.65289 0.19361 0.49864 0.0
H394 H 0.79009 0.23831 0.47902 0.0
H395 H 0.77007 0.31389 0.52579 0.0
H396 H 0.745 0.26852 0.52516 0.0
H397 H 0.73611 0.29385 0.51146 0.0
C398 C 0.70793 0.16615 0.50616 0.0
C399 C 0.67622 0.16386 0.50432 0.0
C400 C 0.73842 0.19698 0.50367 0.0
C401 C 0.73857 0.22698 0.49943 0.0
C402 C 0.70684 0.22464 0.49757 0.0
H403 H 0.8944 0.43751 0.47643 0.0
H404 H 0.84273 0.38421 0.48156 0.0
C405 C 0.67643 0.19386 0.50005 0.0
C406 C 0.77157 0.26012 0.49657 0.0
H407 H 0.81593 0.3438 0.50761 0.0
C408 C 0.79564 0.26124 0.4854 0.0
C409 C 0.77964 0.29072 0.5047 0.0
C410 C 0.75657 0.2918 0.51757 0.0
C411 C 0.82636 0.29142 0.48189 0.0
C412 C 0.83442 0.32205 0.49 0.0
C413 C 0.81038 0.3209 0.50121 0.0
C414 C 0.86714 0.35536 0.4869 0.0
C415 C 0.8494 0.29026 0.46903 0.0
C416 C 0.8992 0.35824 0.48829 0.0
C417 C 0.92929 0.38905 0.48511 0.0
C418 C 0.92881 0.4186 0.48049 0.0
C419 C 0.89663 0.41577 0.47954 0.0
C420 C 0.86661 0.38496 0.48269 0.0
H421 H 0.83563 0.26859 0.46059 0.0
H422 H 0.8616 0.31378 0.46163 0.0
H423 H 0.86936 0.28728 0.47515 0.0
H424 H 0.90114 0.33655 0.49191 0.0
H425 H 0.95299 0.38938 0.48599 0.0
H426 H 0.6607 0.70555 0.8306 0.0
H427 H 0.65885 0.75763 0.82689 0.0
H428 H 0.55129 0.70243 0.83357 0.0
H429 H 0.55313 0.65042 0.83753 0.0
H430 H 0.63223 0.77961 0.80509 0.0
H431 H 0.57127 0.77771 0.86391 0.0
H432 H 0.58667 0.74918 0.85978 0.0
H433 H 0.54639 0.74056 0.85199 0.0
C434 C 0.63656 0.70433 0.83143 0.0
C435 C 0.60713 0.6732 0.83467 0.0
C436 C 0.63552 0.73446 0.82925 0.0
C437 C 0.60503 0.73496 0.83025 0.0
C438 C 0.5755 0.70375 0.83323 0.0
H439 H 0.54766 0.89189 0.81669 0.0
H440 H 0.54946 0.84007 0.82123 0.0
C441 C 0.57655 0.67359 0.83547 0.0
C442 C 0.60425 0.76771 0.82769 0.0
H443 H 0.57612 0.81832 0.84426 0.0
C444 C 0.62008 0.788 0.81378 0.0
C445 C 0.58846 0.77947 0.83882 0.0
C446 C 0.57253 0.7608 0.85454 0.0
C447 C 0.61999 0.81849 0.81058 0.0
C448 C 0.6042 0.83022 0.8217 0.0
C449 C 0.58831 0.80994 0.8356 0.0
C450 C 0.60351 0.86298 0.81908 0.0
C451 C 0.63605 0.83729 0.79491 0.0
C452 C 0.63322 0.89426 0.8166 0.0
C453 C 0.63227 0.92435 0.81389 0.0
C454 C 0.60155 0.92461 0.81357 0.0
C455 C 0.57193 0.89333 0.81645 0.0
C456 C 0.57292 0.86332 0.81921 0.0
H457 H 0.63787 0.82062 0.7856 0.0
H458 H 0.62164 0.84853 0.78957 0.0
H459 H 0.66197 0.85789 0.79758 0.0
H460 H 0.65743 0.89557 0.81681 0.0
H461 H 0.6558 0.94737 0.81169 0.0
H462 H 1.01883 0.60792 0.1837 0.0
H463 H 0.96618 0.60901 0.17966 0.0
H464 H 0.92593 0.51788 0.15155 0.0
H465 H 0.97808 0.51629 0.15562 0.0
H466 H 0.93193 0.61036 0.15008 0.0
H467 H 0.85041 0.49432 0.18553 0.0
H468 H 0.8957 0.51662 0.18726 0.0
H469 H 0.87564 0.4896 0.17003 0.0
C470 C 0.99872 0.58782 0.17677 0.0
C471 C 1.00307 0.56163 0.1703 0.0
C472 C 0.9684 0.58853 0.17441 0.0
C473 C 0.94111 0.56299 0.16558 0.0
C474 C 0.9457 0.53724 0.15889 0.0
H475 H 0.73284 0.50866 0.14003 0.0
H476 H 0.78639 0.5114 0.14527 0.0
C477 C 0.9759 0.53648 0.16122 0.0
C478 C 0.90818 0.56326 0.16312 0.0
H479 H 0.82275 0.51705 0.17005 0.0
C480 C 0.90813 0.59002 0.15457 0.0
C481 C 0.87659 0.5368 0.16876 0.0
C482 C 0.87438 0.50779 0.17853 0.0
C483 C 0.87794 0.59058 0.15116 0.0
C484 C 0.8462 0.56415 0.15687 0.0
C485 C 0.84645 0.53752 0.16555 0.0
C486 C 0.81263 0.56302 0.15368 0.0
C487 C 0.88052 0.61903 0.14076 0.0
C488 C 0.80793 0.59074 0.1568 0.0
C489 C 0.77695 0.58949 0.15344 0.0
C490 C 0.74889 0.56026 0.14701 0.0
C491 C 0.75341 0.53219 0.14447 0.0
C492 C 0.78442 0.53357 0.14769 0.0
H493 H 0.90367 0.63051 0.13308 0.0
H494 H 0.85843 0.61034 0.13254 0.0
H495 H 0.8818 0.63903 0.14888 0.0
H496 H 0.82826 0.61361 0.16194 0.0
H497 H 0.77536 0.61191 0.15566 0.0
H498 H 0.45373 0.99487 0.49771 0.0
H499 H 0.4018 0.94095 0.49392 0.0
H500 H 0.45708 0.88863 0.50041 0.0
H501 H 0.50895 0.9425 0.50464 0.0
H502 H 0.37963 0.89306 0.47219 0.0
H503 H 0.38173 0.83188 0.53031 0.0
H504 H 0.41038 0.87592 0.5264 0.0
H505 H 0.41883 0.84439 0.51824 0.0
C506 C 0.455 0.97195 0.49849 0.0
C507 C 0.48613 0.97369 0.50168 0.0
C508 C 0.42494 0.94077 0.49625 0.0
C509 C 0.42447 0.90976 0.49714 0.0
C510 C 0.45569 0.91149 0.50012 0.0
H511 H 0.26781 0.69565 0.48216 0.0
H512 H 0.31957 0.74916 0.48689 0.0
C513 C 0.48578 0.94271 0.50244 0.0
C514 C 0.39174 0.8762 0.49449 0.0
H515 H 0.34133 0.79668 0.51056 0.0
C516 C 0.37136 0.8722 0.48072 0.0
C517 C 0.38005 0.84818 0.50539 0.0
C518 C 0.39868 0.85033 0.52099 0.0
C519 C 0.34088 0.84169 0.47745 0.0
C520 C 0.32925 0.81369 0.48833 0.0
C521 C 0.34963 0.81761 0.50207 0.0
C522 C 0.29651 0.78028 0.4856 0.0
C523 C 0.32193 0.83955 0.46196 0.0
C524 C 0.26514 0.77867 0.48352 0.0
C525 C 0.23507 0.74769 0.48073 0.0
C526 C 0.2349 0.71677 0.47989 0.0
C527 C 0.26628 0.71844 0.48234 0.0
C528 C 0.29627 0.74938 0.48521 0.0
H529 H 0.33845 0.85853 0.45273 0.0
H530 H 0.31081 0.81415 0.45637 0.0
H531 H 0.30122 0.84453 0.46495 0.0
H532 H 0.26374 0.80151 0.48412 0.0
H533 H 0.21197 0.7482 0.47888 0.0
H534 H 0.56275 0.4522 0.85105 0.0
H535 H 0.56338 0.39937 0.84694 0.0
H536 H 0.65096 0.45154 0.81612 0.0
H537 H 0.65019 0.50405 0.81999 0.0
H538 H 0.5581 0.3623 0.81886 0.0
H539 H 0.68301 0.40358 0.84657 0.0
H540 H 0.66072 0.42632 0.84964 0.0
H541 H 0.68299 0.43093 0.83078 0.0
C542 C 0.58234 0.45262 0.84346 0.0
C543 C 0.60688 0.48316 0.83618 0.0
C544 C 0.58267 0.42212 0.84108 0.0
C545 C 0.60771 0.42093 0.83147 0.0
C546 C 0.63188 0.45133 0.82401 0.0
H547 H 0.66016 0.26602 0.80433 0.0
H548 H 0.65783 0.31706 0.80926 0.0
C549 C 0.63143 0.48169 0.82628 0.0
C550 C 0.60806 0.38806 0.82888 0.0
H551 H 0.65698 0.35103 0.83312 0.0
C552 C 0.57973 0.3599 0.82209 0.0
C553 C 0.63624 0.38431 0.83279 0.0
C554 C 0.6674 0.41272 0.84047 0.0
C555 C 0.57903 0.32907 0.81878 0.0
C556 C 0.60701 0.32501 0.82295 0.0
C557 C 0.6353 0.35327 0.82982 0.0
C558 C 0.60793 0.29239 0.81997 0.0
C559 C 0.54859 0.30175 0.8101 0.0
C560 C 0.58111 0.26028 0.82449 0.0
C561 C 0.58196 0.23032 0.82123 0.0
C562 C 0.61001 0.23095 0.81357 0.0
C563 C 0.63739 0.26333 0.80971 0.0
C564 C 0.6363 0.29316 0.81277 0.0
H565 H 0.5354 0.31231 0.80293 0.0
H566 H 0.55555 0.2873 0.80162 0.0
H567 H 0.53053 0.2842 0.81934 0.0
H568 H 0.55924 0.25814 0.83066 0.0
H569 H 0.56012 0.20656 0.82452 0.0
H570 H 0.59415 0.87897 0.4868 0.0
H571 H 0.58515 0.82177 0.48503 0.0
H572 H 0.54397 0.8011 0.53408 0.0
H573 H 0.55236 0.85797 0.53576 0.0
H574 H 0.61909 0.80383 0.50496 0.0
H575 H 0.4838 0.7119 0.51235 0.0
H576 H 0.49903 0.75532 0.50673 0.0
H577 H 0.4982 0.74363 0.52793 0.0
C578 C 0.5824 0.86187 0.49703 0.0
C579 C 0.57423 0.87288 0.51148 0.0
C580 C 0.57709 0.82919 0.49597 0.0
C581 C 0.56361 0.80704 0.50936 0.0
C582 C 0.55357 0.8174 0.52343 0.0
H583 H 0.58575 0.65953 0.55826 0.0
H584 H 0.56603 0.69591 0.54685 0.0
C585 C 0.5586 0.84999 0.52444 0.0
C586 C 0.56581 0.77592 0.50986 0.0
H587 H 0.52251 0.69293 0.52087 0.0
C588 C 0.59779 0.77936 0.508 0.0
C589 C 0.53804 0.74409 0.51392 0.0
C590 C 0.50279 0.73845 0.51518 0.0
C591 C 0.60327 0.75249 0.51118 0.0
C592 C 0.57582 0.72108 0.51607 0.0
C593 C 0.54347 0.71707 0.51712 0.0
C594 C 0.58131 0.6937 0.52196 0.0
C595 C 0.63883 0.75864 0.51036 0.0
C596 C 0.59512 0.67934 0.5116 0.0
C597 C 0.60668 0.65877 0.51812 0.0
C598 C 0.60416 0.65195 0.53505 0.0
C599 C 0.5879 0.66424 0.54516 0.0
C600 C 0.57661 0.685 0.53866 0.0
H601 H 0.65778 0.78584 0.50926 0.0
H602 H 0.64473 0.74847 0.52146 0.0
H603 H 0.64143 0.7456 0.49949 0.0
H604 H 0.59843 0.68536 0.49863 0.0
H605 H 0.61859 0.64911 0.51002 0.0
H606 H 0.79901 0.55829 0.8126 0.0
H607 H 0.81466 0.51484 0.8121 0.0
H608 H 0.71444 0.44203 0.79601 0.0
H609 H 0.69854 0.48582 0.79727 0.0
H610 H 0.72763 0.41684 0.81996 0.0
H611 H 0.84012 0.46515 0.78201 0.0
H612 H 0.84795 0.49924 0.79529 0.0
H613 H 0.81326 0.48343 0.78095 0.0
C614 C 0.78083 0.53331 0.80835 0.0
C615 C 0.74781 0.52521 0.80483 0.0
C616 C 0.78977 0.50842 0.80791 0.0
C617 C 0.76599 0.47509 0.80364 0.0
C618 C 0.73335 0.46753 0.79917 0.0
H619 H 0.88482 0.3924 0.83862 0.0
H620 H 0.84444 0.38982 0.81854 0.0
C621 C 0.72429 0.49245 0.79984 0.0
C622 C 0.77403 0.44796 0.80677 0.0
H623 H 0.84329 0.43935 0.80894 0.0
C624 C 0.75254 0.42109 0.81709 0.0
C625 C 0.80554 0.4517 0.80238 0.0
C626 C 0.82769 0.47626 0.78936 0.0
C627 C 0.76391 0.40153 0.8251 0.0
C628 C 0.79801 0.41018 0.82331 0.0
C629 C 0.81752 0.43337 0.811 0.0
C630 C 0.81572 0.40116 0.83588 0.0
C631 C 0.73962 0.37293 0.83594 0.0
C632 C 0.81204 0.40637 0.85257 0.0
C633 C 0.83441 0.40664 0.86422 0.0
C634 C 0.86187 0.40302 0.85941 0.0
C635 C 0.86402 0.39521 0.8429 0.0
C636 C 0.84101 0.39401 0.8313 0.0
H637 H 0.71493 0.35845 0.82969 0.0
H638 H 0.74892 0.35544 0.83908 0.0
H639 H 0.73521 0.38324 0.84739 0.0
H640 H 0.79344 0.41279 0.85656 0.0
H641 H 0.83129 0.41173 0.87688 0.0
H642 H 0.31032 0.73513 0.19848 0.0
H643 H 0.36765 0.78033 0.19335 0.0
H644 H 0.3492 0.7701 0.14118 0.0
H645 H 0.29112 0.72524 0.14634 0.0
H646 H 0.42601 0.79733 0.17481 0.0
H647 H 0.35695 0.86033 0.15106 0.0
H648 H 0.33475 0.81967 0.16083 0.0
H649 H 0.35197 0.82373 0.14058 0.0
C650 C 0.3188 0.74171 0.1859 0.0
C651 C 0.29621 0.72738 0.17282 0.0
C652 C 0.35163 0.76747 0.18295 0.0
C653 C 0.36235 0.77909 0.1669 0.0
C654 C 0.34111 0.76197 0.15368 0.0
H655 H 0.4895 0.99414 0.17592 0.0
H656 H 0.47211 0.94276 0.16001 0.0
C657 C 0.30802 0.73647 0.15663 0.0
C658 C 0.39237 0.81277 0.16477 0.0
H659 H 0.41039 0.89412 0.16132 0.0
C660 C 0.42309 0.81859 0.17134 0.0
C661 C 0.38874 0.84049 0.15994 0.0
C662 C 0.35639 0.836 0.15275 0.0
C663 C 0.44879 0.85135 0.17501 0.0
C664 C 0.44319 0.8786 0.17226 0.0
C665 C 0.41446 0.87311 0.16363 0.0
C666 C 0.46188 0.91072 0.1813 0.0
C667 C 0.48071 0.85619 0.18279 0.0
C668 C 0.46241 0.90987 0.19853 0.0
C669 C 0.4721 0.93902 0.20759 0.0
C670 C 0.48105 0.96952 0.19961 0.0
C671 C 0.48218 0.97079 0.18237 0.0
C672 C 0.47268 0.9416 0.17328 0.0
H673 H 0.4878 0.83826 0.17752 0.0
H674 H 0.50194 0.88227 0.18104 0.0
H675 H 0.47647 0.85081 0.19613 0.0
H676 H 0.45305 0.88623 0.20505 0.0
H677 H 0.4707 0.93724 0.22086 0.0
H678 H 0.64754 0.2663 0.50992 0.0
H679 H 0.69552 0.32322 0.51107 0.0
H680 H 0.70585 0.32414 0.45844 0.0
H681 H 0.65675 0.26696 0.45712 0.0
H682 H 0.76532 0.35435 0.49856 0.0
H683 H 0.68714 0.40215 0.46934 0.0
H684 H 0.66786 0.35995 0.47752 0.0
H685 H 0.69259 0.37045 0.45911 0.0
C686 C 0.65979 0.27863 0.49855 0.0
C687 C 0.64776 0.26256 0.48338 0.0
C688 C 0.68758 0.31094 0.49925 0.0
C689 C 0.70412 0.32787 0.48485 0.0
C690 C 0.6933 0.31144 0.46969 0.0
H691 H 0.78494 0.53708 0.50525 0.0
H692 H 0.7878 0.49443 0.48841 0.0
C693 C 0.66529 0.2789 0.46896 0.0
C694 C 0.72965 0.36397 0.48601 0.0
H695 H 0.73285 0.43963 0.48498 0.0
C696 C 0.75892 0.37334 0.49518 0.0
C697 C 0.72161 0.38877 0.48129 0.0
C698 C 0.69062 0.38009 0.47129 0.0
C699 C 0.77843 0.40624 0.5012 0.0
C700 C 0.76783 0.42994 0.49825 0.0
C701 C 0.74093 0.4215 0.48742 0.0
C702 C 0.7788 0.46023 0.50865 0.0
C703 C 0.80906 0.41466 0.51138 0.0
C704 C 0.77501 0.45626 0.52578 0.0
C705 C 0.77394 0.48083 0.53541 0.0
C706 C 0.77597 0.50945 0.52803 0.0
C707 C 0.7832 0.51509 0.51118 0.0
C708 C 0.78485 0.49075 0.50157 0.0
H709 H 0.82254 0.40224 0.50629 0.0
H710 H 0.82677 0.44222 0.51194 0.0
H711 H 0.80103 0.40483 0.52402 0.0
H712 H 0.76939 0.43273 0.53156 0.0
H713 H 0.76797 0.47574 0.54834 0.0
H714 H 0.43964 0.61033 0.83109 0.0
H715 H 0.39354 0.62187 0.82592 0.0
H716 H 0.34135 0.56335 0.86872 0.0
H717 H 0.38708 0.55186 0.87391 0.0
H718 H 0.3254 0.56996 0.82051 0.0
H719 H 0.33505 0.64987 0.87316 0.0
H720 H 0.37011 0.64563 0.86606 0.0
H721 H 0.33882 0.61439 0.87949 0.0
C722 C 0.41859 0.60057 0.83954 0.0
C723 C 0.41675 0.58017 0.85288 0.0
C724 C 0.39235 0.60709 0.83656 0.0
C725 C 0.36438 0.59385 0.84707 0.0
C726 C 0.36306 0.57433 0.86065 0.0
H727 H 0.16449 0.49391 0.8521 0.0
H728 H 0.22206 0.51855 0.84235 0.0
C729 C 0.38899 0.56752 0.86352 0.0
C730 C 0.33468 0.59708 0.84326 0.0
H731 H 0.27855 0.61335 0.86252 0.0
C732 C 0.3155 0.58038 0.8294 0.0
C733 C 0.32221 0.6114 0.85462 0.0
C734 C 0.34283 0.63166 0.86908 0.0
C735 C 0.28248 0.57422 0.82765 0.0
C736 C 0.26845 0.58466 0.8402 0.0
C737 C 0.28909 0.60485 0.853 0.0
C738 C 0.23164 0.56984 0.84211 0.0
C739 C 0.26233 0.55494 0.81289 0.0
C740 C 0.21759 0.59039 0.84499 0.0
C741 C 0.18444 0.57627 0.85062 0.0
C742 C 0.165 0.54141 0.85364 0.0
C743 C 0.1785 0.52074 0.8497 0.0
C744 C 0.21151 0.53484 0.84404 0.0
H745 H 0.27887 0.5607 0.80197 0.0
H746 H 0.25053 0.52753 0.81538 0.0
H747 H 0.24218 0.56084 0.81 0.0
H748 H 0.23277 0.61749 0.84367 0.0
H749 H 0.17455 0.5928 0.8533 0.0
H750 H 0.90211 0.46085 0.14891 0.0
H751 H 0.84157 0.44106 0.1493 0.0
H752 H 0.8208 0.33832 0.15022 0.0
H753 H 0.88129 0.35819 0.14949 0.0
H754 H 0.77433 0.34842 0.13121 0.0
H755 H 0.79469 0.40552 0.19357 0.0
H756 H 0.81664 0.4329 0.17661 0.0
H757 H 0.82733 0.40195 0.18303 0.0
C758 C 0.88448 0.43411 0.1489 0.0
C759 C 0.89613 0.41103 0.14943 0.0
C760 C 0.85004 0.42284 0.14914 0.0
C761 C 0.82684 0.3883 0.15015 0.0
C762 C 0.8384 0.36513 0.14947 0.0
H763 H 0.66145 0.23075 0.18389 0.0
H764 H 0.70774 0.27428 0.16836 0.0
C765 C 0.87286 0.37643 0.14905 0.0
C766 C 0.79101 0.37594 0.15388 0.0
H767 H 0.73964 0.36658 0.18617 0.0
C768 C 0.7666 0.35306 0.14304 0.0
C769 C 0.78097 0.38247 0.16924 0.0
C770 C 0.80616 0.40689 0.18138 0.0
C771 C 0.73274 0.3343 0.14776 0.0
C772 C 0.72337 0.33822 0.16378 0.0
C773 C 0.74706 0.36363 0.17392 0.0
C774 C 0.69235 0.31147 0.17153 0.0
C775 C 0.70765 0.30875 0.13601 0.0
C776 C 0.6686 0.31818 0.17884 0.0
C777 C 0.64147 0.29289 0.18771 0.0
C778 C 0.63814 0.26082 0.18953 0.0
C779 C 0.66236 0.25464 0.18227 0.0
C780 C 0.68897 0.27957 0.17335 0.0
H781 H 0.71482 0.31705 0.12308 0.0
H782 H 0.7073 0.28453 0.13759 0.0
H783 H 0.68188 0.30433 0.1383 0.0
H784 H 0.67129 0.34297 0.17783 0.0
H785 H 0.62327 0.29845 0.19317 0.0
H786 H 0.13428 0.55876 0.12444 0.0
H787 H 0.12337 0.54542 0.0952 0.0
H788 H 1.03416 0.55437 0.09873 0.0
H789 H 1.0471 0.57088 0.12752 0.0
H790 H 0.07937 0.49935 0.07854 0.0
H791 H 0.07372 0.61256 0.06066 0.0
H792 H 0.08623 0.60759 0.08092 0.0
H793 H 1.04221 0.58915 0.07578 0.0
C794 C 0.11257 0.55813 0.11883 0.0
C795 C 0.09183 0.56638 0.12796 0.0
C796 C 0.10623 0.55043 0.10216 0.0
C797 C 0.07844 0.54985 0.09452 0.0
C798 C 1.05663 0.5562 0.10404 0.0
H799 H 1.0091 0.45166 0.99938 0.0
H800 H 1.01782 0.46422 0.02845 0.0
C801 C 0.06377 0.56525 0.12052 0.0
C802 C 0.07218 0.54225 0.07668 0.0
H803 H 1.05188 0.56768 0.04124 0.0
C804 C 0.07377 0.51459 0.07036 0.0
C805 C 0.06554 0.56242 0.06582 0.0
C806 C 0.06723 0.59477 0.07113 0.0
C807 C 0.06884 0.50649 0.05361 0.0
C808 C 1.05983 0.52523 0.04298 0.0
C809 C 1.0583 0.55291 0.04932 0.0
C810 C 1.05295 0.51748 0.02518 0.0
C811 C 0.07469 0.47876 0.04751 0.0
C812 C 0.06787 0.54347 0.01351 0.0
C813 C 1.06118 0.53675 0.99682 0.0
C814 C 1.04022 0.50358 0.99121 0.0
C815 C 1.0251 0.47761 1.00299 0.0
C816 C 1.03078 0.48462 0.01975 0.0
H817 H 0.09257 0.47574 0.05556 0.0
H818 H 1.05053 0.45453 0.04771 0.0
H819 H 0.08489 0.48374 0.03482 0.0
H820 H 0.08481 0.56917 0.01729 0.0
H821 H 0.07247 0.55784 0.98841 0.0
H822 H 0.54062 0.05603 0.46252 0.0
H823 H 0.53704 0.07306 0.43443 0.0
H824 H 0.64495 0.12057 0.42961 0.0
H825 H 0.64862 0.10333 0.45769 0.0
H826 H 0.56685 0.13688 0.41918 0.0
H827 H 0.60932 0.05374 0.39138 0.0
H828 H 0.59664 0.05017 0.41259 0.0
H829 H 0.63753 0.08314 0.40625 0.0
C830 C 0.56357 0.07031 0.45549 0.0
C831 C 0.59487 0.07827 0.46217 0.0
C832 C 0.5615 0.08004 0.43948 0.0
C833 C 0.59069 0.09773 0.42991 0.0
C834 C 0.62209 0.10644 0.43672 0.0
H835 H 0.59524 0.18183 0.33214 0.0
H836 H 0.60392 0.17704 0.36157 0.0
C837 C 0.62415 0.0966 0.45272 0.0
C838 C 0.58793 0.1058 0.4126 0.0
H839 H 0.59943 0.08801 0.37331 0.0
C840 C 0.5741 0.12638 0.40911 0.0
C841 C 0.59715 0.09174 0.39955 0.0
C842 C 0.61072 0.06823 0.40255 0.0
C843 C 0.5689 0.13301 0.39286 0.0
C844 C 0.57822 0.119 0.37984 0.0
C845 C 0.59249 0.09884 0.38335 0.0
C846 C 0.57145 0.1229 0.36246 0.0
C847 C 0.55246 0.15392 0.38976 0.0
C848 C 0.5504 0.09412 0.35328 0.0
C849 C 0.54565 0.09676 0.33658 0.0
C850 C 0.56191 0.12827 0.32869 0.0
C851 C 0.58224 0.15728 0.33797 0.0
C852 C 0.58716 0.15458 0.35474 0.0
H853 H 0.54055 0.15692 0.40103 0.0
H854 H 0.57179 0.17936 0.38548 0.0
H855 H 0.533 0.14238 0.38005 0.0
H856 H 0.53796 0.06946 0.35902 0.0
H857 H 0.52943 0.07404 0.32978 0.0
H858 H 0.5649 0.50854 0.79182 0.0
H859 H 0.58431 0.50918 0.76376 0.0
H860 H 0.65176 0.61641 0.76707 0.0
H861 H 0.63162 0.61603 0.795 0.0
H862 H 0.6156 0.59776 0.73846 0.0
H863 H 0.6735 0.51839 0.74929 0.0
H864 H 0.63055 0.49905 0.75606 0.0
H865 H 0.66209 0.53693 0.76581 0.0
C866 C 0.58385 0.53223 0.78654 0.0
C867 C 0.59708 0.56219 0.79558 0.0
C868 C 0.59517 0.53251 0.77059 0.0
C869 C 0.62004 0.56272 0.76348 0.0
C870 C 0.63285 0.59278 0.77242 0.0
H871 H 0.71169 0.61076 0.66601 0.0
H872 H 0.70085 0.61191 0.69539 0.0
C873 C 0.62144 0.59251 0.78835 0.0
C874 C 0.63156 0.56315 0.74645 0.0
H875 H 0.66561 0.52845 0.72128 0.0
C876 C 0.62686 0.5829 0.73473 0.0
C877 C 0.64632 0.54377 0.74165 0.0
C878 C 0.65375 0.52359 0.75389 0.0
C879 C 0.6356 0.58301 0.71823 0.0
C880 C 0.6496 0.56303 0.71337 0.0
C881 C 0.65476 0.54363 0.72509 0.0
C882 C 0.65807 0.56136 0.69604 0.0
C883 C 0.62902 0.60376 0.70597 0.0
C884 C 0.63812 0.53221 0.68687 0.0
C885 C 0.64423 0.53146 0.67012 0.0
C886 C 0.67062 0.55977 0.66231 0.0
C887 C 0.69138 0.58847 0.67171 0.0
C888 C 0.6851 0.58927 0.68844 0.0
H889 H 0.6133 0.61363 0.71123 0.0
H890 H 0.65335 0.62548 0.70195 0.0
H891 H 0.61621 0.58854 0.69494 0.0
H892 H 0.61721 0.51041 0.69257 0.0
H893 H 0.62804 0.50889 0.66321 0.0
H894 H 0.51904 0.05845 0.55922 0.0
H895 H 0.52602 0.05737 0.5889 0.0
H896 H 0.62756 0.07737 0.58172 0.0
H897 H 0.62096 0.07953 0.5519 0.0
H898 H 0.53812 1.01842 0.60858 0.0
H899 H 0.64359 0.14968 0.61421 0.0
H900 H 0.61977 0.13377 0.59553 0.0
H901 H 0.65239 0.12438 0.60057 0.0
C902 C 0.54291 0.06268 0.56394 0.0
C903 C 0.56954 0.06935 0.55319 0.0
C904 C 0.54686 0.06199 0.58096 0.0
C905 C 0.57753 0.06791 0.5877 0.0
C906 C 0.60392 0.07362 0.57693 0.0
H907 H 0.5935 1.02315 0.6915 0.0
H908 H 0.59033 1.02184 0.6615 0.0
C909 C 0.60004 0.07455 0.55986 0.0
C910 C 0.58147 0.06791 0.60596 0.0
H911 H 0.62841 0.11611 0.63826 0.0
C912 C 0.55792 1.0398 0.61505 0.0
C913 C 0.60697 0.09594 0.61454 0.0
C914 C 0.63193 0.12779 0.60575 0.0
C915 C 0.55908 1.03892 0.63231 0.0
C916 C 0.58508 0.06661 0.64086 0.0
C917 C 0.60864 0.09472 0.63178 0.0
C918 C 0.58762 0.06747 0.65921 0.0
C919 C 0.53168 1.00871 0.64122 0.0
C920 C 0.58828 0.09409 0.66806 0.0
C921 C 0.59048 0.09509 0.68524 0.0
C922 C 0.59204 0.06946 0.69407 0.0
C923 C 0.59172 0.043 0.68517 0.0
C924 C 0.58981 0.04217 0.66797 0.0
H925 H 0.50892 0.99466 0.63347 0.0
H926 H 0.54101 0.99128 0.64443 0.0
H927 H 0.52429 1.01626 0.65273 0.0
H928 H 0.58669 0.11399 0.66167 0.0
H929 H 0.59038 0.11572 0.69164 0.0
H930 H 0.65626 0.64306 0.89083 0.0
H931 H 0.64887 0.63703 0.92068 0.0
H932 H 0.58218 0.53021 0.91518 0.0
H933 H 0.58937 0.53615 0.88522 0.0
H934 H 0.58635 0.60821 0.93988 0.0
H935 H 0.65625 0.53912 0.94822 0.0
H936 H 0.66039 0.56327 0.92994 0.0
H937 H 0.62349 0.52288 0.93301 0.0
C938 C 0.63994 0.61828 0.89596 0.0
C939 C 0.62354 0.59006 0.88566 0.0
C940 C 0.63572 0.61488 0.91304 0.0
C941 C 0.61531 0.58312 0.92024 0.0
C942 C 0.59843 0.55492 0.90996 0.0
H943 H 0.58006 0.51816 0.0232 0.0
H944 H 0.58147 0.52072 0.99317 0.0
C945 C 0.60243 0.55835 0.89283 0.0
C946 C 0.6119 0.57973 0.93849 0.0
H947 H 0.63211 0.54796 0.97185 0.0
C948 C 0.59632 0.59501 0.94688 0.0
C949 C 0.62473 0.56236 0.94764 0.0
C950 C 0.64239 0.54611 0.93933 0.0
C951 C 0.59296 0.59317 0.96412 0.0
C952 C 0.6065 0.57645 0.97335 0.0
C953 C 0.62179 0.56087 0.96489 0.0
C954 C 0.60535 0.57503 0.99175 0.0
C955 C 0.57417 0.60851 0.97217 0.0
C956 C 0.61868 0.60466 1.00114 0.0
C957 C 0.61773 0.60323 0.01836 0.0
C958 C 0.60394 0.57216 0.02668 0.0
C959 C 0.59111 0.54256 0.01726 0.0
C960 C 0.5918 0.54399 1.00004 0.0
H961 H 0.55652 0.61037 0.96348 0.0
H962 H 0.55966 0.59358 0.98301 0.0
H963 H 0.59247 0.63439 0.97628 0.0
H964 H 0.63027 0.62904 0.99517 0.0
H965 H 0.62844 0.62659 0.02516 0.0
H966 H 0.0827 0.58595 0.21839 0.0
H967 H 0.08422 0.59405 0.24826 0.0
H968 H 0.10415 0.51238 0.25521 0.0
H969 H 0.10354 0.50487 0.22552 0.0
H970 H 1.04554 0.55292 0.27242 0.0
H971 H 0.17652 0.58294 0.2834 0.0
H972 H 0.16052 0.58195 0.26306 0.0
H973 H 0.15256 0.54352 0.27301 0.0
C974 C 0.08774 0.56998 0.22631 0.0
C975 C 0.0932 0.5449 0.21956 0.0
C976 C 0.08853 0.57456 0.2434 0.0
C977 C 0.09491 0.55425 0.25411 0.0
C978 C 0.1001 0.52905 0.24732 0.0
H979 H 1.04192 0.51606 0.35795 0.0
H980 H 1.04371 0.51498 0.32797 0.0
C981 C 0.0995 0.5246 0.23028 0.0
C982 C 0.09498 0.55846 0.27236 0.0
H983 H 0.14094 0.5681 0.30707 0.0
C984 C 0.06654 0.55651 0.27997 0.0
C985 C 0.12253 0.56371 0.28232 0.0
C986 C 0.15489 0.56852 0.27502 0.0
C987 C 0.06448 0.55866 0.29715 0.0
C988 C 0.09127 0.56205 0.30718 0.0
C989 C 0.12012 0.565 0.29952 0.0
C990 C 0.09002 0.56271 0.32556 0.0
C991 C 1.03375 0.55783 0.30434 0.0
C992 C 0.11596 0.58929 0.33444 0.0
C993 C 0.11518 0.58976 0.35166 0.0
C994 C 0.08841 0.56366 0.3605 0.0
C995 C 1.06261 0.53693 0.3516 0.0
C996 C 0.06354 0.53635 0.33438 0.0
H997 H 1.0212 0.56592 0.29521 0.0
H998 H 1.01536 0.53166 0.30811 0.0
H999 H 1.04027 0.57433 0.31527 0.0
H1000 H 0.13678 0.60991 0.32802 0.0
H1001 H 0.13537 0.61089 0.35804 0.0
loop_
_geom_bond_atom_site_label_1
_geom_bond_atom_site_label_2
_geom_bond_distance
_geom_bond_site_symmetry_2
_ccdc_geom_bond_type
Tb0 C2 2.809 . S
Tb0 O20 2.484 . S
Tb0 O21 2.440 . S
Tb0 O22 2.658 . S
Tb0 O23 2.409 . S
Tb0 O24 2.378 . S
Tb0 O28 2.325 . S
Tb0 O31 2.341 1_455 S
Tb1 C11 2.809 1_455 S
Tb1 O22 2.325 . S
Tb1 O25 2.341 . S
Tb1 O26 2.484 1_455 S
Tb1 O27 2.440 1_455 S
Tb1 O28 2.658 . S
Tb1 O29 2.409 . S
Tb1 O30 2.378 1_455 S
C2 Tb0 2.809 . S
C2 C3 1.514 . S
C2 O20 1.248 . S
C2 O21 1.266 . S
C3 C2 1.514 . S
C3 C4 1.359 . S
C3 C8 1.348 . S
C4 C3 1.359 . S
C4 C5 1.380 . S
C4 H32 0.929 . S
C5 C4 1.380 . S
C5 C6 1.347 . S
C5 H33 0.931 . S
C6 C5 1.347 . S
C6 C7 1.369 . S
C7 C6 1.369 . S
C7 C8 1.408 . S
C7 H34 0.930 . S
C8 C3 1.348 . S
C8 C7 1.408 . S
C8 H35 0.930 . S
C9 O22 1.281 . S
C9 O23 1.254 . S
C10 O24 1.236 . S
C10 O25 1.266 . S
C11 Tb1 2.809 1_655 S
C11 C12 1.514 . S
C11 O26 1.248 . S
C11 O27 1.266 . S
C12 C11 1.514 . S
C12 C13 1.359 . S
C12 C17 1.348 . S
C13 C12 1.359 . S
C13 C14 1.380 . S
C13 H36 0.929 . S
C14 C13 1.380 . S
C14 C15 1.347 . S
C14 H37 0.931 . S
C15 C14 1.347 . S
C15 C16 1.369 . S
C16 C15 1.369 . S
C16 C17 1.408 . S
C16 H38 0.930 . S
C17 C12 1.348 . S
C17 C16 1.408 . S
C17 H39 0.930 . S
C18 O28 1.281 . S
C18 O29 1.254 . S
C19 O30 1.236 . S
C19 O31 1.266 . S
O20 Tb0 2.484 . S
O20 C2 1.248 . S
O21 Tb0 2.440 . S
O21 C2 1.266 . S
O22 Tb0 2.658 . S
O22 Tb1 2.325 . S
O22 C9 1.281 . S
O23 Tb0 2.409 . S
O23 C9 1.254 . S
O24 Tb0 2.378 . S
O24 C10 1.236 . S
O25 Tb1 2.341 . S
O25 C10 1.266 . S
O26 Tb1 2.484 1_655 S
O26 C11 1.248 . S
O27 Tb1 2.440 1_655 S
O27 C11 1.266 . S
O28 Tb0 2.325 . S
O28 Tb1 2.658 . S
O28 C18 1.281 . S
O29 Tb1 2.409 . S
O29 C18 1.254 . S
O30 Tb1 2.378 1_655 S
O30 C19 1.236 . S
O31 Tb0 2.341 1_655 S
O31 C19 1.266 . S
H32 C4 0.929 . S
H33 C5 0.931 . S
H34 C7 0.930 . S
H35 C8 0.930 . S
H36 C13 0.929 . S
H37 C14 0.931 . S
H38 C16 0.930 . S
H39 C17 0.930 . S
Tb40 C42 2.809 1_545 S
Tb40 O60 2.484 1_545 S
Tb40 O61 2.440 1_545 S
Tb40 O62 2.658 . S
Tb40 O63 2.409 . S
Tb40 O64 2.378 1_545 S
Tb40 O68 2.325 . S
Tb40 O71 2.341 . S
Tb41 C51 2.809 . S
Tb41 O62 2.325 . S
Tb41 O65 2.341 1_545 S
Tb41 O66 2.484 . S
Tb41 O67 2.440 . S
Tb41 O68 2.658 . S
Tb41 O69 2.409 . S
Tb41 O70 2.378 . S
C42 Tb40 2.809 1_565 S
C42 C43 1.514 . S
C42 O60 1.248 . S
C42 O61 1.266 . S
C43 C42 1.514 . S
C43 C44 1.359 . S
C43 C48 1.348 . S
C44 C43 1.359 . S
C44 C45 1.380 . S
C44 H72 0.929 . S
C45 C44 1.380 . S
C45 C46 1.347 . S
C45 H73 0.931 . S
C46 C45 1.347 . S
C46 C47 1.369 . S
C47 C46 1.369 . S
C47 C48 1.408 . S
C47 H74 0.930 . S
C48 C43 1.348 . S
C48 C47 1.408 . S
C48 H75 0.930 . S
C49 O62 1.281 . S
C49 O63 1.254 . S
C50 O64 1.236 . S
C50 O65 1.266 . S
C51 Tb41 2.809 . S
C51 C52 1.514 . S
C51 O66 1.248 . S
C51 O67 1.266 . S
C52 C51 1.514 . S
C52 C53 1.359 . S
C52 C57 1.348 . S
C53 C52 1.359 . S
C53 C54 1.380 . S
C53 H76 0.929 . S
C54 C53 1.380 . S
C54 C55 1.347 . S
C54 H77 0.931 . S
C55 C54 1.347 . S
C55 C56 1.369 . S
C56 C55 1.369 . S
C56 C57 1.408 . S
C56 H78 0.930 . S
C57 C52 1.348 . S
C57 C56 1.408 . S
C57 H79 0.930 . S
C58 O68 1.281 . S
C58 O69 1.254 . S
C59 O70 1.236 . S
C59 O71 1.266 . S
O60 Tb40 2.484 1_565 S
O60 C42 1.248 . S
O61 Tb40 2.440 1_565 S
O61 C42 1.266 . S
O62 Tb40 2.658 . S
O62 Tb41 2.325 . S
O62 C49 1.281 . S
O63 Tb40 2.409 . S
O63 C49 1.254 . S
O64 Tb40 2.378 1_565 S
O64 C50 1.236 . S
O65 Tb41 2.341 1_565 S
O65 C50 1.266 . S
O66 Tb41 2.484 . S
O66 C51 1.248 . S
O67 Tb41 2.440 . S
O67 C51 1.266 . S
O68 Tb40 2.325 . S
O68 Tb41 2.658 . S
O68 C58 1.281 . S
O69 Tb41 2.409 . S
O69 C58 1.254 . S
O70 Tb41 2.378 . S
O70 C59 1.236 . S
O71 Tb40 2.341 . S
O71 C59 1.266 . S
H72 C44 0.929 . S
H73 C45 0.931 . S
H74 C47 0.930 . S
H75 C48 0.930 . S
H76 C53 0.929 . S
H77 C54 0.931 . S
H78 C56 0.930 . S
H79 C57 0.930 . S
Tb80 C82 2.809 . S
Tb80 O100 2.484 . S
Tb80 O101 2.440 . S
Tb80 O102 2.658 . S
Tb80 O103 2.409 . S
Tb80 O104 2.378 . S
Tb80 O108 2.325 . S
Tb80 O111 2.341 . S
Tb81 C91 2.809 . S
Tb81 O102 2.325 . S
Tb81 O105 2.341 . S
Tb81 O106 2.484 . S
Tb81 O107 2.440 . S
Tb81 O108 2.658 . S
Tb81 O109 2.409 . S
Tb81 O110 2.378 . S
C82 Tb80 2.809 . S
C82 C83 1.514 . S
C82 O100 1.248 . S
C82 O101 1.266 . S
C83 C82 1.514 . S
C83 C84 1.359 . S
C83 C88 1.348 . S
C84 C83 1.359 . S
C84 C85 1.380 . S
C84 H112 0.929 . S
C85 C84 1.380 . S
C85 C86 1.347 . S
C85 H113 0.931 . S
C86 C85 1.347 . S
C86 C87 1.369 . S
C87 C86 1.369 . S
C87 C88 1.408 . S
C87 H114 0.930 . S
C88 C83 1.348 . S
C88 C87 1.408 . S
C88 H115 0.930 . S
C89 O102 1.281 . S
C89 O103 1.254 . S
C90 O104 1.236 . S
C90 O105 1.266 . S
C91 Tb81 2.809 . S
C91 C92 1.514 . S
C91 O106 1.248 . S
C91 O107 1.266 . S
C92 C91 1.514 . S
C92 C93 1.359 . S
C92 C97 1.348 . S
C93 C92 1.359 . S
C93 C94 1.380 . S
C93 H116 0.929 . S
C94 C93 1.380 . S
C94 C95 1.347 . S
C94 H117 0.931 . S
C95 C94 1.347 . S
C95 C96 1.369 . S
C96 C95 1.369 . S
C96 C97 1.408 . S
C96 H118 0.930 . S
C97 C92 1.348 . S
C97 C96 1.408 . S
C97 H119 0.930 . S
C98 O108 1.281 . S
C98 O109 1.254 . S
C99 O110 1.236 . S
C99 O111 1.266 . S
O100 Tb80 2.484 . S
O100 C82 1.248 . S
O101 Tb80 2.440 . S
O101 C82 1.266 . S
O102 Tb80 2.658 . S
O102 Tb81 2.325 . S
O102 C89 1.281 . S
O103 Tb80 2.409 . S
O103 C89 1.254 . S
O104 Tb80 2.378 . S
O104 C90 1.236 . S
O105 Tb81 2.341 . S
O105 C90 1.266 . S
O106 Tb81 2.484 . S
O106 C91 1.248 . S
O107 Tb81 2.440 . S
O107 C91 1.266 . S
O108 Tb80 2.325 . S
O108 Tb81 2.658 . S
O108 C98 1.281 . S
O109 Tb81 2.409 . S
O109 C98 1.254 . S
O110 Tb81 2.378 . S
O110 C99 1.236 . S
O111 Tb80 2.341 . S
O111 C99 1.266 . S
H112 C84 0.929 . S
H113 C85 0.931 . S
H114 C87 0.930 . S
H115 C88 0.930 . S
H116 C93 0.929 . S
H117 C94 0.931 . S
H118 C96 0.930 . S
H119 C97 0.930 . S
C120 C121 1.386 . S
C120 C122 1.397 . S
C120 H144 0.931 . S
C121 C120 1.386 . S
C121 C125 1.397 . S
C122 C120 1.397 . S
C122 C123 1.384 . S
C122 H145 0.930 . S
C123 C122 1.384 . S
C123 C124 1.377 . S
C123 C126 1.481 . S
C124 C123 1.377 . S
C124 C125 1.389 . S
C124 H146 0.929 . S
C125 C121 1.397 . S
C125 C124 1.389 . S
C125 H147 0.939 . S
C126 C123 1.481 . S
C126 C127 1.387 . S
C126 C131 1.390 . S
C127 C126 1.387 . S
C127 C128 1.401 . S
C127 H148 0.930 . S
C128 C127 1.401 . S
C128 C129 1.376 . S
C128 C137 1.511 . S
C129 C128 1.376 . S
C129 C130 1.392 . S
C129 H150 0.931 . S
C130 C129 1.392 . S
C130 C131 1.361 . S
C130 C132 1.500 1_545 S
C131 C126 1.390 . S
C131 C130 1.361 . S
C131 H149 0.931 . S
C132 C130 1.500 1_565 S
C132 C133 1.371 1_565 S
C132 C134 1.365 . S
C133 C132 1.371 1_545 S
C133 C143 1.386 1_545 S
C133 H151 0.931 . S
C134 C132 1.365 . S
C134 C135 1.409 . S
C134 H152 0.929 . S
C135 C134 1.409 . S
C135 C136 1.380 . S
C135 H153 0.930 . S
C136 C135 1.380 . S
C136 C143 1.357 . S
C137 C128 1.511 . S
C137 C138 1.341 . S
C137 C139 1.371 . S
C138 C137 1.341 . S
C138 C142 1.394 . S
C138 H154 0.930 . S
C139 C137 1.371 . S
C139 C140 1.392 . S
C139 H155 0.931 . S
C140 C139 1.392 . S
C140 C141 1.331 . S
C140 H158 0.932 . S
C141 C140 1.331 . S
C141 C142 1.336 . S
C142 C138 1.394 . S
C142 C141 1.336 . S
C142 H157 0.929 . S
C143 C133 1.386 1_565 S
C143 C136 1.357 . S
C143 H156 0.928 . S
H144 C120 0.931 . S
H145 C122 0.930 . S
H146 C124 0.929 . S
H147 C125 0.939 . S
H148 C127 0.930 . S
H149 C131 0.931 . S
H150 C129 0.931 . S
H151 C133 0.931 . S
H152 C134 0.929 . S
H153 C135 0.930 . S
H154 C138 0.930 . S
H155 C139 0.931 . S
H156 C143 0.928 . S
H157 C142 0.929 . S
H158 C140 0.932 . S
C159 C160 1.386 . S
C159 C161 1.397 . S
C159 H183 0.931 . S
C160 C159 1.386 . S
C160 C164 1.397 . S
C161 C159 1.397 . S
C161 C162 1.384 . S
C161 H184 0.930 . S
C162 C161 1.384 . S
C162 C163 1.377 . S
C162 C165 1.481 . S
C163 C162 1.377 . S
C163 C164 1.389 . S
C163 H185 0.929 . S
C164 C160 1.397 . S
C164 C163 1.389 . S
C164 H186 0.931 . S
C165 C162 1.481 . S
C165 C166 1.387 . S
C165 C170 1.390 . S
C166 C165 1.387 . S
C166 C167 1.401 . S
C166 H187 0.930 . S
C167 C166 1.401 . S
C167 C168 1.376 . S
C167 C176 1.511 . S
C168 C167 1.376 . S
C168 C169 1.392 . S
C168 H189 0.931 . S
C169 C168 1.392 . S
C169 C170 1.361 . S
C169 C171 1.500 . S
C170 C165 1.390 . S
C170 C169 1.361 . S
C170 H188 0.931 . S
C171 C169 1.500 . S
C171 C172 1.371 . S
C171 C173 1.365 . S
C172 C171 1.371 . S
C172 C182 1.386 . S
C172 H190 0.931 . S
C173 C171 1.365 . S
C173 C174 1.409 . S
C173 H191 0.929 . S
C174 C173 1.409 . S
C174 C175 1.380 . S
C174 H192 0.930 . S
C175 C174 1.380 . S
C175 C182 1.357 . S
C176 C167 1.511 . S
C176 C177 1.341 . S
C176 C178 1.371 . S
C177 C176 1.341 . S
C177 C181 1.394 . S
C177 H193 0.930 . S
C178 C176 1.371 . S
C178 C179 1.392 . S
C178 H194 0.931 . S
C179 C178 1.392 . S
C179 C180 1.331 . S
C179 H197 0.932 . S
C180 C179 1.331 . S
C180 C181 1.336 . S
C181 C177 1.394 . S
C181 C180 1.336 . S
C181 H196 0.929 . S
C182 C172 1.386 . S
C182 C175 1.357 . S
C182 H195 0.928 . S
H183 C159 0.931 . S
H184 C161 0.930 . S
H185 C163 0.929 . S
H186 C164 0.931 . S
H187 C166 0.930 . S
H188 C170 0.931 . S
H189 C168 0.931 . S
H190 C172 0.931 . S
H191 C173 0.929 . S
H192 C174 0.930 . S
H193 C177 0.930 . S
H194 C178 0.931 . S
H195 C182 0.928 . S
H196 C181 0.929 . S
H197 C179 0.932 . S
C198 C199 1.386 . S
C198 C200 1.397 . S
C198 H222 0.931 . S
C199 C198 1.386 . S
C199 C203 1.397 1_455 S
C200 C198 1.397 . S
C200 C201 1.384 . S
C200 H223 0.930 . S
C201 C200 1.384 . S
C201 C202 1.377 1_455 S
C201 C204 1.481 . S
C202 C201 1.377 1_655 S
C202 C203 1.389 . S
C202 H224 0.929 . S
C203 C199 1.397 1_655 S
C203 C202 1.389 . S
C203 H225 0.931 . S
C204 C201 1.481 . S
C204 C205 1.387 . S
C204 C209 1.390 1_455 S
C205 C204 1.387 . S
C205 C206 1.401 . S
C205 H226 0.930 . S
C206 C205 1.401 . S
C206 C207 1.376 . S
C206 C215 1.511 . S
C207 C206 1.376 . S
C207 C208 1.392 1_455 S
C207 H228 0.931 . S
C208 C207 1.392 1_655 S
C208 C209 1.361 . S
C208 C210 1.500 . S
C209 C204 1.390 1_655 S
C209 C208 1.361 . S
C209 H227 0.931 . S
C210 C208 1.500 . S
C210 C211 1.371 . S
C210 C212 1.365 . S
C211 C210 1.371 . S
C211 C221 1.386 . S
C211 H229 0.931 . S
C212 C210 1.365 . S
C212 C213 1.409 . S
C212 H230 0.929 . S
C213 C212 1.409 . S
C213 C214 1.380 . S
C213 H231 0.930 . S
C214 C213 1.380 . S
C214 C221 1.357 . S
C215 C206 1.511 . S
C215 C216 1.341 . S
C215 C217 1.371 . S
C216 C215 1.341 . S
C216 C220 1.394 . S
C216 H232 0.930 . S
C217 C215 1.371 . S
C217 C218 1.392 . S
C217 H233 0.931 . S
C218 C217 1.392 . S
C218 C219 1.331 . S
C218 H236 0.932 . S
C219 C218 1.331 . S
C219 C220 1.336 . S
C220 C216 1.394 . S
C220 C219 1.336 . S
C220 H235 0.929 . S
C221 C211 1.386 . S
C221 C214 1.357 . S
C221 H234 0.928 . S
H222 C198 0.931 . S
H223 C200 0.930 . S
H224 C202 0.929 . S
H225 C203 0.931 . S
H226 C205 0.930 . S
H227 C209 0.931 . S
H228 C207 0.931 . S
H229 C211 0.931 . S
H230 C212 0.929 . S
H231 C213 0.930 . S
H232 C216 0.930 . S
H233 C217 0.931 . S
H234 C221 0.928 . S
H235 C220 0.929 . S
H236 C218 0.932 . S
C237 C238 1.386 . S
C237 C239 1.397 . S
C237 H261 0.931 1_455 S
C238 C237 1.386 . S
C238 C242 1.397 . S
C239 C237 1.397 . S
C239 C240 1.384 . S
C239 H262 0.930 1_455 S
C240 C239 1.384 . S
C240 C241 1.377 . S
C240 C243 1.481 . S
C241 C240 1.377 . S
C241 C242 1.389 . S
C241 H263 0.929 . S
C242 C238 1.397 . S
C242 C241 1.389 . S
C242 H264 0.931 . S
C243 C240 1.481 . S
C243 C244 1.387 . S
C243 C248 1.390 . S
C244 C243 1.387 . S
C244 C245 1.401 . S
C244 H265 0.930 . S
C245 C244 1.401 . S
C245 C246 1.376 . S
C245 C254 1.511 1_455 S
C246 C245 1.376 . S
C246 C247 1.392 . S
C246 H267 0.931 . S
C247 C246 1.392 . S
C247 C248 1.361 . S
C247 C249 1.500 . S
C248 C243 1.390 . S
C248 C247 1.361 . S
C248 H266 0.931 . S
C249 C247 1.500 . S
C249 C250 1.371 . S
C249 C251 1.365 . S
C250 C249 1.371 . S
C250 C260 1.386 . S
C250 H268 0.931 . S
C251 C249 1.365 . S
C251 C252 1.409 . S
C251 H269 0.929 . S
C252 C251 1.409 . S
C252 C253 1.380 . S
C252 H270 0.930 . S
C253 C252 1.380 . S
C253 C260 1.357 . S
C254 C245 1.511 1_655 S
C254 C255 1.341 . S
C254 C256 1.373 . S
C255 C254 1.341 . S
C255 C259 1.394 . S
C255 H271 0.930 . S
C256 C254 1.373 . S
C256 C257 1.396 . S
C256 H272 0.926 1_655 S
C257 C256 1.396 . S
C257 C258 1.331 . S
C257 H275 0.932 . S
C258 C257 1.331 . S
C258 C259 1.336 . S
C259 C255 1.394 . S
C259 C258 1.336 . S
C259 H274 0.929 . S
C260 C250 1.386 . S
C260 C253 1.357 . S
C260 H273 0.928 . S
H261 C237 0.931 1_655 S
H262 C239 0.930 1_655 S
H263 C241 0.929 . S
H264 C242 0.931 . S
H265 C244 0.930 . S
H266 C248 0.931 . S
H267 C246 0.931 . S
H268 C250 0.931 . S
H269 C251 0.929 . S
H270 C252 0.930 . S
H271 C255 0.930 . S
H272 C256 0.926 1_455 S
H273 C260 0.928 . S
H274 C259 0.929 . S
H275 C257 0.932 . S
C276 C277 1.386 1_565 S
C276 C278 1.397 . S
C276 H300 0.931 . S
C277 C276 1.386 1_545 S
C277 C281 1.397 . S
C278 C276 1.397 . S
C278 C279 1.384 1_565 S
C278 H301 0.930 . S
C279 C278 1.384 1_545 S
C279 C280 1.377 . S
C279 C282 1.481 . S
C280 C279 1.377 . S
C280 C281 1.389 . S
C280 H302 0.929 . S
C281 C277 1.397 . S
C281 C280 1.389 . S
C281 H303 0.931 . S
C282 C279 1.481 . S
C282 C283 1.387 1_545 S
C282 C287 1.390 . S
C283 C282 1.387 1_565 S
C283 C284 1.401 . S
C283 H304 0.930 . S
C284 C283 1.401 . S
C284 C285 1.376 1_565 S
C284 C293 1.511 . S
C285 C284 1.376 1_545 S
C285 C286 1.392 . S
C285 H306 0.931 . S
C286 C285 1.392 . S
C286 C287 1.361 . S
C286 C288 1.500 . S
C287 C282 1.390 . S
C287 C286 1.361 . S
C287 H305 0.931 . S
C288 C286 1.500 . S
C288 C289 1.371 . S
C288 C290 1.365 . S
C289 C288 1.371 . S
C289 C299 1.386 . S
C289 H307 0.931 . S
C290 C288 1.365 . S
C290 C291 1.409 . S
C290 H308 0.929 . S
C291 C290 1.409 . S
C291 C292 1.380 . S
C291 H309 0.930 . S
C292 C291 1.380 . S
C292 C299 1.357 . S
C293 C284 1.511 . S
C293 C294 1.341 . S
C293 C295 1.371 . S
C294 C293 1.341 . S
C294 C298 1.394 . S
C294 H310 0.930 . S
C295 C293 1.371 . S
C295 C296 1.392 . S
C295 H311 0.931 . S
C296 C295 1.392 . S
C296 C297 1.331 . S
C296 H314 0.932 . S
C297 C296 1.331 . S
C297 C298 1.336 . S
C298 C294 1.394 . S
C298 C297 1.336 . S
C298 H313 0.929 . S
C299 C289 1.386 . S
C299 C292 1.357 . S
C299 H312 0.928 . S
H300 C276 0.931 . S
H301 C278 0.930 . S
H302 C280 0.929 . S
H303 C281 0.931 . S
H304 C283 0.930 . S
H305 C287 0.931 . S
H306 C285 0.931 . S
H307 C289 0.931 . S
H308 C290 0.929 . S
H309 C291 0.930 . S
H310 C294 0.930 . S
H311 C295 0.931 . S
H312 C299 0.928 . S
H313 C298 0.929 . S
H314 C296 0.932 . S
C315 C316 1.386 . S
C315 C317 1.397 . S
C315 H339 0.931 . S
C316 C315 1.386 . S
C316 C320 1.397 . S
C317 C315 1.397 . S
C317 C318 1.384 . S
C317 H340 0.930 . S
C318 C317 1.384 . S
C318 C319 1.377 . S
C318 C321 1.481 . S
C319 C318 1.377 . S
C319 C320 1.389 . S
C319 H341 0.929 . S
C320 C316 1.397 . S
C320 C319 1.389 . S
C320 H342 0.931 . S
C321 C318 1.481 . S
C321 C322 1.387 . S
C321 C326 1.390 . S
C322 C321 1.387 . S
C322 C323 1.401 . S
C322 H343 0.930 . S
C323 C322 1.401 . S
C323 C324 1.376 . S
C323 C332 1.511 . S
C324 C323 1.376 . S
C324 C325 1.392 . S
C324 H345 0.931 . S
C325 C324 1.392 . S
C325 C326 1.361 . S
C325 C327 1.500 . S
C326 C321 1.390 . S
C326 C325 1.361 . S
C326 H344 0.931 . S
C327 C325 1.500 . S
C327 C328 1.371 . S
C327 C329 1.365 . S
C328 C327 1.371 . S
C328 C338 1.386 . S
C328 H346 0.931 . S
C329 C327 1.365 . S
C329 C330 1.409 . S
C329 H347 0.929 . S
C330 C329 1.409 . S
C330 C331 1.380 . S
C330 H348 0.930 . S
C331 C330 1.380 . S
C331 C338 1.357 . S
C332 C323 1.511 . S
C332 C333 1.341 . S
C332 C334 1.371 . S
C333 C332 1.341 . S
C333 C337 1.394 . S
C333 H349 0.930 . S
C334 C332 1.371 . S
C334 C335 1.392 . S
C334 H350 0.931 . S
C335 C334 1.392 . S
C335 C336 1.331 . S
C335 H353 0.932 . S
C336 C335 1.331 . S
C336 C337 1.336 . S
C337 C333 1.394 . S
C337 C336 1.336 . S
C337 H352 0.929 . S
C338 C328 1.386 . S
C338 C331 1.357 . S
C338 H351 0.928 . S
H339 C315 0.931 . S
H340 C317 0.930 . S
H341 C319 0.929 . S
H342 C320 0.931 . S
H343 C322 0.930 . S
H344 C326 0.931 . S
H345 C324 0.931 . S
H346 C328 0.931 . S
H347 C329 0.929 . S
H348 C330 0.930 . S
H349 C333 0.930 . S
H350 C334 0.931 . S
H351 C338 0.928 . S
H352 C337 0.929 . S
H353 C335 0.932 . S
H354 C362 0.929 . S
H355 C364 0.930 . S
H356 C366 0.930 . S
H357 C369 0.929 . S
H358 C372 0.930 . S
H359 C374 0.960 . S
H360 C374 0.960 . S
H361 C374 0.960 . S
C362 H354 0.929 . S
C362 C363 1.377 . S
C362 C364 1.384 . S
C363 C362 1.377 . S
C363 C369 1.390 . S
C364 H355 0.930 . S
C364 C362 1.384 . S
C364 C365 1.372 . S
C365 C364 1.372 . S
C365 C366 1.400 . S
C365 C370 1.490 . S
C366 H356 0.930 . S
C366 C365 1.400 . S
C366 C369 1.386 . S
H367 C383 0.930 . S
H368 C384 0.931 . S
C369 H357 0.929 . S
C369 C363 1.390 . S
C369 C366 1.386 . S
C370 C365 1.490 . S
C370 C372 1.395 . S
C370 C373 1.403 . S
H371 C377 0.930 . S
C372 H358 0.930 . S
C372 C370 1.395 . S
C372 C375 1.403 . S
C373 C370 1.403 . S
C373 C374 1.524 . S
C373 C377 1.400 . S
C374 H359 0.960 . S
C374 H360 0.960 . S
C374 H361 0.960 . S
C374 C373 1.524 . S
C375 C372 1.403 . S
C375 C376 1.392 . S
C375 C379 1.495 . S
C376 C375 1.392 . S
C376 C377 1.385 . S
C376 C378 1.478 . S
C377 H371 0.930 . S
C377 C373 1.400 . S
C377 C376 1.385 . S
C378 C376 1.478 . S
C378 C380 1.381 . S
C378 C384 1.383 . S
C379 C375 1.495 . S
C379 H385 0.959 . S
C379 H386 0.961 . S
C379 H387 0.960 . S
C380 C378 1.381 . S
C380 C381 1.394 . S
C380 H388 0.930 . S
C381 C380 1.394 . S
C381 C382 1.383 . S
C381 H389 0.929 . S
C382 C381 1.383 . S
C382 C383 1.377 . S
C383 H367 0.930 . S
C383 C382 1.377 . S
C383 C384 1.379 . S
C384 H368 0.931 . S
C384 C378 1.383 . S
C384 C383 1.379 . S
H385 C379 0.959 . S
H386 C379 0.961 . S
H387 C379 0.960 . S
H388 C380 0.930 . S
H389 C381 0.929 . S
H390 C398 0.929 . S
H391 C400 0.930 . S
H392 C402 0.930 . S
H393 C405 0.929 . S
H394 C408 0.930 . S
H395 C410 0.960 . S
H396 C410 0.960 . S
H397 C410 0.960 . S
C398 H390 0.929 . S
C398 C399 1.377 . S
C398 C400 1.384 . S
C399 C398 1.377 . S
C399 C405 1.390 . S
C400 H391 0.930 . S
C400 C398 1.384 . S
C400 C401 1.372 . S
C401 C400 1.372 . S
C401 C402 1.400 . S
C401 C406 1.490 . S
C402 H392 0.930 . S
C402 C401 1.400 . S
C402 C405 1.386 . S
H403 C419 0.930 . S
H404 C420 0.931 . S
C405 H393 0.929 . S
C405 C399 1.390 . S
C405 C402 1.386 . S
C406 C401 1.490 . S
C406 C408 1.395 . S
C406 C409 1.403 . S
H407 C413 0.930 . S
C408 H394 0.930 . S
C408 C406 1.395 . S
C408 C411 1.403 . S
C409 C406 1.403 . S
C409 C410 1.524 . S
C409 C413 1.400 . S
C410 H395 0.960 . S
C410 H396 0.960 . S
C410 H397 0.960 . S
C410 C409 1.524 . S
C411 C408 1.403 . S
C411 C412 1.392 . S
C411 C415 1.495 . S
C412 C411 1.392 . S
C412 C413 1.385 . S
C412 C414 1.478 . S
C413 H407 0.930 . S
C413 C409 1.400 . S
C413 C412 1.385 . S
C414 C412 1.478 . S
C414 C416 1.381 . S
C414 C420 1.383 . S
C415 C411 1.495 . S
C415 H421 0.959 . S
C415 H422 0.961 . S
C415 H423 0.960 . S
C416 C414 1.381 . S
C416 C417 1.394 . S
C416 H424 0.930 . S
C417 C416 1.394 . S
C417 C418 1.383 . S
C417 H425 0.929 . S
C418 C417 1.383 . S
C418 C419 1.377 . S
C419 H403 0.930 . S
C419 C418 1.377 . S
C419 C420 1.379 . S
C420 H404 0.931 . S
C420 C414 1.383 . S
C420 C419 1.379 . S
H421 C415 0.959 . S
H422 C415 0.961 . S
H423 C415 0.960 . S
H424 C416 0.930 . S
H425 C417 0.929 . S
H426 C434 0.929 . S
H427 C436 0.930 . S
H428 C438 0.930 . S
H429 C441 0.929 . S
H430 C444 0.930 . S
H431 C446 0.960 . S
H432 C446 0.960 . S
H433 C446 0.960 . S
C434 H426 0.929 . S
C434 C435 1.377 . S
C434 C436 1.384 . S
C435 C434 1.377 . S
C435 C441 1.390 . S
C436 H427 0.930 . S
C436 C434 1.384 . S
C436 C437 1.372 . S
C437 C436 1.372 . S
C437 C438 1.400 . S
C437 C442 1.490 . S
C438 H428 0.930 . S
C438 C437 1.400 . S
C438 C441 1.386 . S
H439 C455 0.930 . S
H440 C456 0.931 . S
C441 H429 0.929 . S
C441 C435 1.390 . S
C441 C438 1.386 . S
C442 C437 1.490 . S
C442 C444 1.395 . S
C442 C445 1.403 . S
H443 C449 0.930 . S
C444 H430 0.930 . S
C444 C442 1.395 . S
C444 C447 1.403 . S
C445 C442 1.403 . S
C445 C446 1.524 . S
C445 C449 1.400 . S
C446 H431 0.960 . S
C446 H432 0.960 . S
C446 H433 0.960 . S
C446 C445 1.524 . S
C447 C444 1.403 . S
C447 C448 1.392 . S
C447 C451 1.495 . S
C448 C447 1.392 . S
C448 C449 1.385 . S
C448 C450 1.478 . S
C449 H443 0.930 . S
C449 C445 1.400 . S
C449 C448 1.385 . S
C450 C448 1.478 . S
C450 C452 1.381 . S
C450 C456 1.383 . S
C451 C447 1.495 . S
C451 H457 0.959 . S
C451 H458 0.961 . S
C451 H459 0.960 . S
C452 C450 1.381 . S
C452 C453 1.394 . S
C452 H460 0.930 . S
C453 C452 1.394 . S
C453 C454 1.383 . S
C453 H461 0.929 . S
C454 C453 1.383 . S
C454 C455 1.377 . S
C455 H439 0.930 . S
C455 C454 1.377 . S
C455 C456 1.379 . S
C456 H440 0.931 . S
C456 C450 1.383 . S
C456 C455 1.379 . S
H457 C451 0.959 . S
H458 C451 0.961 . S
H459 C451 0.960 . S
H460 C452 0.930 . S
H461 C453 0.929 . S
H462 C470 0.929 . S
H463 C472 0.930 . S
H464 C474 0.930 . S
H465 C477 0.929 . S
H466 C480 0.930 . S
H467 C482 0.960 . S
H468 C482 0.960 . S
H469 C482 0.960 . S
C470 H462 0.929 . S
C470 C471 1.377 . S
C470 C472 1.384 . S
C471 C470 1.377 . S
C471 C477 1.390 . S
C472 H463 0.930 . S
C472 C470 1.384 . S
C472 C473 1.372 . S
C473 C472 1.372 . S
C473 C474 1.400 . S
C473 C478 1.490 . S
C474 H464 0.930 . S
C474 C473 1.400 . S
C474 C477 1.386 . S
H475 C491 0.930 . S
H476 C492 0.931 . S
C477 H465 0.929 . S
C477 C471 1.390 . S
C477 C474 1.386 . S
C478 C473 1.490 . S
C478 C480 1.395 . S
C478 C481 1.403 . S
H479 C485 0.930 . S
C480 H466 0.930 . S
C480 C478 1.395 . S
C480 C483 1.403 . S
C481 C478 1.403 . S
C481 C482 1.524 . S
C481 C485 1.400 . S
C482 H467 0.960 . S
C482 H468 0.960 . S
C482 H469 0.960 . S
C482 C481 1.524 . S
C483 C480 1.403 . S
C483 C484 1.392 . S
C483 C487 1.495 . S
C484 C483 1.392 . S
C484 C485 1.385 . S
C484 C486 1.478 . S
C485 H479 0.930 . S
C485 C481 1.400 . S
C485 C484 1.385 . S
C486 C484 1.478 . S
C486 C488 1.381 . S
C486 C492 1.383 . S
C487 C483 1.495 . S
C487 H493 0.959 . S
C487 H494 0.961 . S
C487 H495 0.960 . S
C488 C486 1.381 . S
C488 C489 1.394 . S
C488 H496 0.930 . S
C489 C488 1.394 . S
C489 C490 1.383 . S
C489 H497 0.929 . S
C490 C489 1.383 . S
C490 C491 1.377 . S
C491 H475 0.930 . S
C491 C490 1.377 . S
C491 C492 1.379 . S
C492 H476 0.931 . S
C492 C486 1.383 . S
C492 C491 1.379 . S
H493 C487 0.959 . S
H494 C487 0.961 . S
H495 C487 0.960 . S
H496 C488 0.930 . S
H497 C489 0.929 . S
H498 C506 0.929 . S
H499 C508 0.930 . S
H500 C510 0.930 . S
H501 C513 0.929 . S
H502 C516 0.930 . S
H503 C518 0.960 . S
H504 C518 0.960 . S
H505 C518 0.960 . S
C506 H498 0.929 . S
C506 C507 1.377 . S
C506 C508 1.384 . S
C507 C506 1.377 . S
C507 C513 1.390 . S
C508 H499 0.930 . S
C508 C506 1.384 . S
C508 C509 1.372 . S
C509 C508 1.372 . S
C509 C510 1.400 . S
C509 C514 1.490 . S
C510 H500 0.930 . S
C510 C509 1.400 . S
C510 C513 1.386 . S
H511 C527 0.930 . S
H512 C528 0.931 . S
C513 H501 0.929 . S
C513 C507 1.390 . S
C513 C510 1.386 . S
C514 C509 1.490 . S
C514 C516 1.395 . S
C514 C517 1.403 . S
H515 C521 0.930 . S
C516 H502 0.930 . S
C516 C514 1.395 . S
C516 C519 1.403 . S
C517 C514 1.403 . S
C517 C518 1.524 . S
C517 C521 1.400 . S
C518 H503 0.960 . S
C518 H504 0.960 . S
C518 H505 0.960 . S
C518 C517 1.524 . S
C519 C516 1.403 . S
C519 C520 1.392 . S
C519 C523 1.495 . S
C520 C519 1.392 . S
C520 C521 1.385 . S
C520 C522 1.478 . S
C521 H515 0.930 . S
C521 C517 1.400 . S
C521 C520 1.385 . S
C522 C520 1.478 . S
C522 C524 1.381 . S
C522 C528 1.383 . S
C523 C519 1.495 . S
C523 H529 0.959 . S
C523 H530 0.961 . S
C523 H531 0.960 . S
C524 C522 1.381 . S
C524 C525 1.394 . S
C524 H532 0.930 . S
C525 C524 1.394 . S
C525 C526 1.383 . S
C525 H533 0.929 . S
C526 C525 1.383 . S
C526 C527 1.377 . S
C527 H511 0.930 . S
C527 C526 1.377 . S
C527 C528 1.379 . S
C528 H512 0.931 . S
C528 C522 1.383 . S
C528 C527 1.379 . S
H529 C523 0.959 . S
H530 C523 0.961 . S
H531 C523 0.960 . S
H532 C524 0.930 . S
H533 C525 0.929 . S
H534 C542 0.929 . S
H535 C544 0.930 . S
H536 C546 0.930 . S
H537 C549 0.929 . S
H538 C552 0.930 . S
H539 C554 0.960 . S
H540 C554 0.960 . S
H541 C554 0.960 . S
C542 H534 0.929 . S
C542 C543 1.377 . S
C542 C544 1.384 . S
C543 C542 1.377 . S
C543 C549 1.390 . S
C544 H535 0.930 . S
C544 C542 1.384 . S
C544 C545 1.372 . S
C545 C544 1.372 . S
C545 C546 1.400 . S
C545 C550 1.490 . S
C546 H536 0.930 . S
C546 C545 1.400 . S
C546 C549 1.386 . S
H547 C563 0.930 . S
H548 C564 0.931 . S
C549 H537 0.929 . S
C549 C543 1.390 . S
C549 C546 1.386 . S
C550 C545 1.490 . S
C550 C552 1.395 . S
C550 C553 1.403 . S
H551 C557 0.930 . S
C552 H538 0.930 . S
C552 C550 1.395 . S
C552 C555 1.403 . S
C553 C550 1.403 . S
C553 C554 1.524 . S
C553 C557 1.400 . S
C554 H539 0.960 . S
C554 H540 0.960 . S
C554 H541 0.960 . S
C554 C553 1.524 . S
C555 C552 1.403 . S
C555 C556 1.392 . S
C555 C559 1.495 . S
C556 C555 1.392 . S
C556 C557 1.385 . S
C556 C558 1.478 . S
C557 H551 0.930 . S
C557 C553 1.400 . S
C557 C556 1.385 . S
C558 C556 1.478 . S
C558 C560 1.381 . S
C558 C564 1.383 . S
C559 C555 1.495 . S
C559 H565 0.959 . S
C559 H566 0.961 . S
C559 H567 0.960 . S
C560 C558 1.381 . S
C560 C561 1.394 . S
C560 H568 0.930 . S
C561 C560 1.394 . S
C561 C562 1.383 . S
C561 H569 0.929 . S
C562 C561 1.383 . S
C562 C563 1.377 . S
C563 H547 0.930 . S
C563 C562 1.377 . S
C563 C564 1.379 . S
C564 H548 0.931 . S
C564 C558 1.383 . S
C564 C563 1.379 . S
H565 C559 0.959 . S
H566 C559 0.961 . S
H567 C559 0.960 . S
H568 C560 0.930 . S
H569 C561 0.929 . S
H570 C578 0.929 . S
H571 C580 0.930 . S
H572 C582 0.930 . S
H573 C585 0.929 . S
H574 C588 0.930 . S
H575 C590 0.960 . S
H576 C590 0.960 . S
H577 C590 0.960 . S
C578 H570 0.929 . S
C578 C579 1.377 . S
C578 C580 1.384 . S
C579 C578 1.377 . S
C579 C585 1.390 . S
C580 H571 0.930 . S
C580 C578 1.384 . S
C580 C581 1.372 . S
C581 C580 1.372 . S
C581 C582 1.400 . S
C581 C586 1.490 . S
C582 H572 0.930 . S
C582 C581 1.400 . S
C582 C585 1.386 . S
H583 C599 0.930 . S
H584 C600 0.931 . S
C585 H573 0.929 . S
C585 C579 1.390 . S
C585 C582 1.386 . S
C586 C581 1.490 . S
C586 C588 1.395 . S
C586 C589 1.403 . S
H587 C593 0.930 . S
C588 H574 0.930 . S
C588 C586 1.395 . S
C588 C591 1.403 . S
C589 C586 1.403 . S
C589 C590 1.524 . S
C589 C593 1.400 . S
C590 H575 0.960 . S
C590 H576 0.960 . S
C590 H577 0.960 . S
C590 C589 1.524 . S
C591 C588 1.403 . S
C591 C592 1.392 . S
C591 C595 1.495 . S
C592 C591 1.392 . S
C592 C593 1.385 . S
C592 C594 1.478 . S
C593 H587 0.930 . S
C593 C589 1.400 . S
C593 C592 1.385 . S
C594 C592 1.478 . S
C594 C596 1.381 . S
C594 C600 1.383 . S
C595 C591 1.495 . S
C595 H601 0.959 . S
C595 H602 0.961 . S
C595 H603 0.960 . S
C596 C594 1.381 . S
C596 C597 1.394 . S
C596 H604 0.930 . S
C597 C596 1.394 . S
C597 C598 1.383 . S
C597 H605 0.929 . S
C598 C597 1.383 . S
C598 C599 1.377 . S
C599 H583 0.930 . S
C599 C598 1.377 . S
C599 C600 1.379 . S
C600 H584 0.931 . S
C600 C594 1.383 . S
C600 C599 1.379 . S
H601 C595 0.959 . S
H602 C595 0.961 . S
H603 C595 0.960 . S
H604 C596 0.930 . S
H605 C597 0.929 . S
H606 C614 0.929 . S
H607 C616 0.930 . S
H608 C618 0.930 . S
H609 C621 0.929 . S
H610 C624 0.930 . S
H611 C626 0.960 . S
H612 C626 0.960 . S
H613 C626 0.960 . S
C614 H606 0.929 . S
C614 C615 1.377 . S
C614 C616 1.384 . S
C615 C614 1.377 . S
C615 C621 1.390 . S
C616 H607 0.930 . S
C616 C614 1.384 . S
C616 C617 1.372 . S
C617 C616 1.372 . S
C617 C618 1.400 . S
C617 C622 1.490 . S
C618 H608 0.930 . S
C618 C617 1.400 . S
C618 C621 1.386 . S
H619 C635 0.930 . S
H620 C636 0.931 . S
C621 H609 0.929 . S
C621 C615 1.390 . S
C621 C618 1.386 . S
C622 C617 1.490 . S
C622 C624 1.395 . S
C622 C625 1.403 . S
H623 C629 0.930 . S
C624 H610 0.930 . S
C624 C622 1.395 . S
C624 C627 1.403 . S
C625 C622 1.403 . S
C625 C626 1.524 . S
C625 C629 1.400 . S
C626 H611 0.960 . S
C626 H612 0.960 . S
C626 H613 0.960 . S
C626 C625 1.524 . S
C627 C624 1.403 . S
C627 C628 1.392 . S
C627 C631 1.495 . S
C628 C627 1.392 . S
C628 C629 1.385 . S
C628 C630 1.478 . S
C629 H623 0.930 . S
C629 C625 1.400 . S
C629 C628 1.385 . S
C630 C628 1.478 . S
C630 C632 1.381 . S
C630 C636 1.383 . S
C631 C627 1.495 . S
C631 H637 0.959 . S
C631 H638 0.961 . S
C631 H639 0.960 . S
C632 C630 1.381 . S
C632 C633 1.394 . S
C632 H640 0.930 . S
C633 C632 1.394 . S
C633 C634 1.383 . S
C633 H641 0.929 . S
C634 C633 1.383 . S
C634 C635 1.377 . S
C635 H619 0.930 . S
C635 C634 1.377 . S
C635 C636 1.379 . S
C636 H620 0.931 . S
C636 C630 1.383 . S
C636 C635 1.379 . S
H637 C631 0.959 . S
H638 C631 0.961 . S
H639 C631 0.960 . S
H640 C632 0.930 . S
H641 C633 0.929 . S
H642 C650 0.929 . S
H643 C652 0.930 . S
H644 C654 0.930 . S
H645 C657 0.929 . S
H646 C660 0.930 . S
H647 C662 0.960 . S
H648 C662 0.960 . S
H649 C662 0.960 . S
C650 H642 0.929 . S
C650 C651 1.377 . S
C650 C652 1.384 . S
C651 C650 1.377 . S
C651 C657 1.390 . S
C652 H643 0.930 . S
C652 C650 1.384 . S
C652 C653 1.372 . S
C653 C652 1.372 . S
C653 C654 1.400 . S
C653 C658 1.490 . S
C654 H644 0.930 . S
C654 C653 1.400 . S
C654 C657 1.386 . S
H655 C671 0.930 . S
H656 C672 0.931 . S
C657 H645 0.929 . S
C657 C651 1.390 . S
C657 C654 1.386 . S
C658 C653 1.490 . S
C658 C660 1.395 . S
C658 C661 1.403 . S
H659 C665 0.930 . S
C660 H646 0.930 . S
C660 C658 1.395 . S
C660 C663 1.403 . S
C661 C658 1.403 . S
C661 C662 1.524 . S
C661 C665 1.400 . S
C662 H647 0.960 . S
C662 H648 0.960 . S
C662 H649 0.960 . S
C662 C661 1.524 . S
C663 C660 1.403 . S
C663 C664 1.392 . S
C663 C667 1.495 . S
C664 C663 1.392 . S
C664 C665 1.385 . S
C664 C666 1.478 . S
C665 H659 0.930 . S
C665 C661 1.400 . S
C665 C664 1.385 . S
C666 C664 1.478 . S
C666 C668 1.381 . S
C666 C672 1.383 . S
C667 C663 1.495 . S
C667 H673 0.959 . S
C667 H674 0.961 . S
C667 H675 0.960 . S
C668 C666 1.381 . S
C668 C669 1.394 . S
C668 H676 0.930 . S
C669 C668 1.394 . S
C669 C670 1.383 . S
C669 H677 0.929 . S
C670 C669 1.383 . S
C670 C671 1.377 . S
C671 H655 0.930 . S
C671 C670 1.377 . S
C671 C672 1.379 . S
C672 H656 0.931 . S
C672 C666 1.383 . S
C672 C671 1.379 . S
H673 C667 0.959 . S
H674 C667 0.961 . S
H675 C667 0.960 . S
H676 C668 0.930 . S
H677 C669 0.929 . S
H678 C686 0.929 . S
H679 C688 0.930 . S
H680 C690 0.930 . S
H681 C693 0.929 . S
H682 C696 0.930 . S
H683 C698 0.960 . S
H684 C698 0.960 . S
H685 C698 0.960 . S
C686 H678 0.929 . S
C686 C687 1.377 . S
C686 C688 1.384 . S
C687 C686 1.377 . S
C687 C693 1.390 . S
C688 H679 0.930 . S
C688 C686 1.384 . S
C688 C689 1.372 . S
C689 C688 1.372 . S
C689 C690 1.400 . S
C689 C694 1.490 . S
C690 H680 0.930 . S
C690 C689 1.400 . S
C690 C693 1.386 . S
H691 C707 0.930 . S
H692 C708 0.931 . S
C693 H681 0.929 . S
C693 C687 1.390 . S
C693 C690 1.386 . S
C694 C689 1.490 . S
C694 C696 1.395 . S
C694 C697 1.403 . S
H695 C701 0.930 . S
C696 H682 0.930 . S
C696 C694 1.395 . S
C696 C699 1.403 . S
C697 C694 1.403 . S
C697 C698 1.524 . S
C697 C701 1.400 . S
C698 H683 0.960 . S
C698 H684 0.960 . S
C698 H685 0.960 . S
C698 C697 1.524 . S
C699 C696 1.403 . S
C699 C700 1.392 . S
C699 C703 1.495 . S
C700 C699 1.392 . S
C700 C701 1.385 . S
C700 C702 1.478 . S
C701 H695 0.930 . S
C701 C697 1.400 . S
C701 C700 1.385 . S
C702 C700 1.478 . S
C702 C704 1.381 . S
C702 C708 1.383 . S
C703 C699 1.495 . S
C703 H709 0.959 . S
C703 H710 0.961 . S
C703 H711 0.960 . S
C704 C702 1.381 . S
C704 C705 1.394 . S
C704 H712 0.930 . S
C705 C704 1.394 . S
C705 C706 1.383 . S
C705 H713 0.929 . S
C706 C705 1.383 . S
C706 C707 1.377 . S
C707 H691 0.930 . S
C707 C706 1.377 . S
C707 C708 1.379 . S
C708 H692 0.931 . S
C708 C702 1.383 . S
C708 C707 1.379 . S
H709 C703 0.959 . S
H710 C703 0.961 . S
H711 C703 0.960 . S
H712 C704 0.930 . S
H713 C705 0.929 . S
H714 C722 0.929 . S
H715 C724 0.930 . S
H716 C726 0.930 . S
H717 C729 0.929 . S
H718 C732 0.930 . S
H719 C734 0.960 . S
H720 C734 0.960 . S
H721 C734 0.960 . S
C722 H714 0.929 . S
C722 C723 1.377 . S
C722 C724 1.384 . S
C723 C722 1.377 . S
C723 C729 1.390 . S
C724 H715 0.930 . S
C724 C722 1.384 . S
C724 C725 1.372 . S
C725 C724 1.372 . S
C725 C726 1.400 . S
C725 C730 1.490 . S
C726 H716 0.930 . S
C726 C725 1.400 . S
C726 C729 1.386 . S
H727 C743 0.930 . S
H728 C744 0.931 . S
C729 H717 0.929 . S
C729 C723 1.390 . S
C729 C726 1.386 . S
C730 C725 1.490 . S
C730 C732 1.395 . S
C730 C733 1.403 . S
H731 C737 0.930 . S
C732 H718 0.930 . S
C732 C730 1.395 . S
C732 C735 1.403 . S
C733 C730 1.403 . S
C733 C734 1.524 . S
C733 C737 1.400 . S
C734 H719 0.960 . S
C734 H720 0.960 . S
C734 H721 0.960 . S
C734 C733 1.524 . S
C735 C732 1.403 . S
C735 C736 1.392 . S
C735 C739 1.495 . S
C736 C735 1.392 . S
C736 C737 1.385 . S
C736 C738 1.478 . S
C737 H731 0.930 . S
C737 C733 1.400 . S
C737 C736 1.385 . S
C738 C736 1.478 . S
C738 C740 1.381 . S
C738 C744 1.383 . S
C739 C735 1.495 . S
C739 H745 0.959 . S
C739 H746 0.961 . S
C739 H747 0.960 . S
C740 C738 1.381 . S
C740 C741 1.394 . S
C740 H748 0.930 . S
C741 C740 1.394 . S
C741 C742 1.383 . S
C741 H749 0.929 . S
C742 C741 1.383 . S
C742 C743 1.377 . S
C743 H727 0.930 . S
C743 C742 1.377 . S
C743 C744 1.379 . S
C744 H728 0.931 . S
C744 C738 1.383 . S
C744 C743 1.379 . S
H745 C739 0.959 . S
H746 C739 0.961 . S
H747 C739 0.960 . S
H748 C740 0.930 . S
H749 C741 0.929 . S
H750 C758 0.929 . S
H751 C760 0.930 . S
H752 C762 0.930 . S
H753 C765 0.929 . S
H754 C768 0.930 . S
H755 C770 0.960 . S
H756 C770 0.960 . S
H757 C770 0.960 . S
C758 H750 0.929 . S
C758 C759 1.377 . S
C758 C760 1.384 . S
C759 C758 1.377 . S
C759 C765 1.390 . S
C760 H751 0.930 . S
C760 C758 1.384 . S
C760 C761 1.372 . S
C761 C760 1.372 . S
C761 C762 1.400 . S
C761 C766 1.490 . S
C762 H752 0.930 . S
C762 C761 1.400 . S
C762 C765 1.386 . S
H763 C779 0.930 . S
H764 C780 0.931 . S
C765 H753 0.929 . S
C765 C759 1.390 . S
C765 C762 1.386 . S
C766 C761 1.490 . S
C766 C768 1.395 . S
C766 C769 1.403 . S
H767 C773 0.930 . S
C768 H754 0.930 . S
C768 C766 1.395 . S
C768 C771 1.403 . S
C769 C766 1.403 . S
C769 C770 1.524 . S
C769 C773 1.400 . S
C770 H755 0.960 . S
C770 H756 0.960 . S
C770 H757 0.960 . S
C770 C769 1.524 . S
C771 C768 1.403 . S
C771 C772 1.392 . S
C771 C775 1.495 . S
C772 C771 1.392 . S
C772 C773 1.385 . S
C772 C774 1.478 . S
C773 H767 0.930 . S
C773 C769 1.400 . S
C773 C772 1.385 . S
C774 C772 1.478 . S
C774 C776 1.381 . S
C774 C780 1.383 . S
C775 C771 1.495 . S
C775 H781 0.959 . S
C775 H782 0.961 . S
C775 H783 0.960 . S
C776 C774 1.381 . S
C776 C777 1.394 . S
C776 H784 0.930 . S
C777 C776 1.394 . S
C777 C778 1.383 . S
C777 H785 0.929 . S
C778 C777 1.383 . S
C778 C779 1.377 . S
C779 H763 0.930 . S
C779 C778 1.377 . S
C779 C780 1.379 . S
C780 H764 0.931 . S
C780 C774 1.383 . S
C780 C779 1.379 . S
H781 C775 0.959 . S
H782 C775 0.961 . S
H783 C775 0.960 . S
H784 C776 0.930 . S
H785 C777 0.929 . S
H786 C794 0.929 . S
H787 C796 0.930 . S
H788 C798 0.930 . S
H789 C801 0.929 . S
H790 C804 0.930 . S
H791 C806 0.960 . S
H792 C806 0.960 . S
H793 C806 0.960 . S
C794 H786 0.929 . S
C794 C795 1.377 . S
C794 C796 1.384 . S
C795 C794 1.377 . S
C795 C801 1.390 1_455 S
C796 H787 0.930 . S
C796 C794 1.384 . S
C796 C797 1.372 . S
C797 C796 1.372 . S
C797 C798 1.400 1_455 S
C797 C802 1.490 . S
C798 H788 0.930 . S
C798 C797 1.400 1_655 S
C798 C801 1.386 . S
H799 C815 0.930 . S
H800 C816 0.931 . S
C801 H789 0.929 . S
C801 C795 1.390 1_655 S
C801 C798 1.386 . S
C802 C797 1.490 . S
C802 C804 1.395 . S
C802 C805 1.403 . S
H803 C809 0.930 1_655 S
C804 H790 0.930 . S
C804 C802 1.395 . S
C804 C807 1.403 . S
C805 C802 1.403 . S
C805 C806 1.524 1_455 S
C805 C809 1.400 . S
C806 H791 0.960 . S
C806 H792 0.960 . S
C806 H793 0.960 . S
C806 C805 1.524 1_655 S
C807 C804 1.403 . S
C807 C808 1.392 . S
C807 C811 1.495 . S
C808 C807 1.392 . S
C808 C809 1.385 . S
C808 C810 1.478 . S
C809 H803 0.930 1_455 S
C809 C805 1.400 . S
C809 C808 1.385 . S
C810 C808 1.478 . S
C810 C812 1.381 . S
C810 C816 1.383 1_455 S
C811 C807 1.495 . S
C811 H817 0.959 . S
C811 H818 0.961 . S
C811 H819 0.960 . S
C812 C810 1.381 . S
C812 C813 1.394 1_554 S
C812 H820 0.930 . S
C813 C812 1.394 1_556 S
C813 C814 1.383 . S
C813 H821 0.929 . S
C814 C813 1.383 . S
C814 C815 1.377 1_455 S
C815 H799 0.930 . S
C815 C814 1.377 1_655 S
C815 C816 1.379 1_556 S
C816 H800 0.931 . S
C816 C810 1.383 1_655 S
C816 C815 1.379 1_554 S
H817 C811 0.959 . S
H818 C811 0.961 . S
H819 C811 0.960 . S
H820 C812 0.930 . S
H821 C813 0.929 . S
H822 C830 0.929 . S
H823 C832 0.930 . S
H824 C834 0.930 . S
H825 C837 0.929 . S
H826 C840 0.930 . S
H827 C842 0.960 . S
H828 C842 0.960 . S
H829 C842 0.960 1_545 S
C830 H822 0.929 . S
C830 C831 1.377 . S
C830 C832 1.384 . S
C831 C830 1.377 . S
C831 C837 1.390 . S
C832 H823 0.930 . S
C832 C830 1.384 . S
C832 C833 1.372 . S
C833 C832 1.372 . S
C833 C834 1.400 . S
C833 C838 1.490 . S
C834 H824 0.930 . S
C834 C833 1.400 . S
C834 C837 1.386 . S
H835 C851 0.930 . S
H836 C852 0.931 . S
C837 H825 0.929 . S
C837 C831 1.390 . S
C837 C834 1.386 . S
C838 C833 1.490 . S
C838 C840 1.395 . S
C838 C841 1.403 . S
H839 C845 0.930 . S
C840 H826 0.930 . S
C840 C838 1.395 . S
C840 C843 1.403 . S
C841 C838 1.403 . S
C841 C842 1.524 1_545 S
C841 C845 1.400 . S
C842 H827 0.960 . S
C842 H828 0.960 . S
C842 H829 0.960 1_565 S
C842 C841 1.524 1_565 S
C843 C840 1.403 . S
C843 C844 1.392 . S
C843 C847 1.495 . S
C844 C843 1.392 . S
C844 C845 1.385 . S
C844 C846 1.478 . S
C845 H839 0.930 . S
C845 C841 1.400 . S
C845 C844 1.385 . S
C846 C844 1.478 . S
C846 C848 1.381 . S
C846 C852 1.383 . S
C847 C843 1.495 . S
C847 H853 0.959 . S
C847 H854 0.961 . S
C847 H855 0.960 . S
C848 C846 1.381 . S
C848 C849 1.394 . S
C848 H856 0.930 . S
C849 C848 1.394 . S
C849 C850 1.383 . S
C849 H857 0.929 . S
C850 C849 1.383 . S
C850 C851 1.377 . S
C851 H835 0.930 . S
C851 C850 1.377 . S
C851 C852 1.379 . S
C852 H836 0.931 . S
C852 C846 1.383 . S
C852 C851 1.379 . S
H853 C847 0.959 . S
H854 C847 0.961 . S
H855 C847 0.960 . S
H856 C848 0.930 . S
H857 C849 0.929 . S
H858 C866 0.929 . S
H859 C868 0.930 . S
H860 C870 0.930 . S
H861 C873 0.929 . S
H862 C876 0.930 . S
H863 C878 0.960 . S
H864 C878 0.960 . S
H865 C878 0.960 . S
C866 H858 0.929 . S
C866 C867 1.377 . S
C866 C868 1.384 . S
C867 C866 1.377 . S
C867 C873 1.390 . S
C868 H859 0.930 . S
C868 C866 1.384 . S
C868 C869 1.372 . S
C869 C868 1.372 . S
C869 C870 1.400 . S
C869 C874 1.490 . S
C870 H860 0.930 . S
C870 C869 1.400 . S
C870 C873 1.386 . S
H871 C887 0.930 . S
H872 C888 0.931 . S
C873 H861 0.929 . S
C873 C867 1.390 . S
C873 C870 1.386 . S
C874 C869 1.490 . S
C874 C876 1.395 . S
C874 C877 1.403 . S
H875 C881 0.930 . S
C876 H862 0.930 . S
C876 C874 1.395 . S
C876 C879 1.403 . S
C877 C874 1.403 . S
C877 C878 1.524 . S
C877 C881 1.400 . S
C878 H863 0.960 . S
C878 H864 0.960 . S
C878 H865 0.960 . S
C878 C877 1.524 . S
C879 C876 1.403 . S
C879 C880 1.392 . S
C879 C883 1.495 . S
C880 C879 1.392 . S
C880 C881 1.385 . S
C880 C882 1.478 . S
C881 H875 0.930 . S
C881 C877 1.400 . S
C881 C880 1.385 . S
C882 C880 1.478 . S
C882 C884 1.381 . S
C882 C888 1.383 . S
C883 C879 1.495 . S
C883 H889 0.959 . S
C883 H890 0.961 . S
C883 H891 0.960 . S
C884 C882 1.381 . S
C884 C885 1.394 . S
C884 H892 0.930 . S
C885 C884 1.394 . S
C885 C886 1.383 . S
C885 H893 0.929 . S
C886 C885 1.383 . S
C886 C887 1.377 . S
C887 H871 0.930 . S
C887 C886 1.377 . S
C887 C888 1.379 . S
C888 H872 0.931 . S
C888 C882 1.383 . S
C888 C887 1.379 . S
H889 C883 0.959 . S
H890 C883 0.961 . S
H891 C883 0.960 . S
H892 C884 0.930 . S
H893 C885 0.929 . S
H894 C902 0.929 . S
H895 C904 0.930 . S
H896 C906 0.930 . S
H897 C909 0.929 . S
H898 C912 0.937 . S
H899 C914 0.960 . S
H900 C914 0.960 . S
H901 C914 0.960 . S
C902 H894 0.929 . S
C902 C903 1.377 . S
C902 C904 1.384 . S
C903 C902 1.377 . S
C903 C909 1.390 . S
C904 H895 0.930 . S
C904 C902 1.384 . S
C904 C905 1.372 . S
C905 C904 1.372 . S
C905 C906 1.400 . S
C905 C910 1.490 . S
C906 H896 0.930 . S
C906 C905 1.400 . S
C906 C909 1.386 . S
H907 C923 0.938 . S
H908 C924 0.940 . S
C909 H897 0.929 . S
C909 C903 1.390 . S
C909 C906 1.386 . S
C910 C905 1.490 . S
C910 C912 1.387 1_545 S
C910 C913 1.403 . S
H911 C917 0.930 . S
C912 H898 0.937 . S
C912 C910 1.387 1_565 S
C912 C915 1.406 . S
C913 C910 1.403 . S
C913 C914 1.524 . S
C913 C917 1.400 . S
C914 H899 0.960 . S
C914 H900 0.960 . S
C914 H901 0.960 . S
C914 C913 1.524 . S
C915 C912 1.406 . S
C915 C916 1.392 1_565 S
C915 C919 1.495 . S
C916 C915 1.392 1_545 S
C916 C917 1.385 . S
C916 C918 1.478 . S
C917 H911 0.930 . S
C917 C913 1.400 . S
C917 C916 1.385 . S
C918 C916 1.478 . S
C918 C920 1.381 . S
C918 C924 1.374 1_545 S
C919 C915 1.495 . S
C919 H925 0.959 . S
C919 H926 0.961 . S
C919 H927 0.960 . S
C920 C918 1.381 . S
C920 C921 1.394 . S
C920 H928 0.930 . S
C921 C920 1.394 . S
C921 C922 1.383 . S
C921 H929 0.929 . S
C922 C921 1.383 . S
C922 C923 1.369 1_545 S
C923 H907 0.938 . S
C923 C922 1.369 1_565 S
C923 C924 1.379 . S
C924 H908 0.940 . S
C924 C918 1.374 1_565 S
C924 C923 1.379 . S
H925 C919 0.959 . S
H926 C919 0.961 . S
H927 C919 0.960 . S
H928 C920 0.930 . S
H929 C921 0.929 . S
H930 C938 0.929 . S
H931 C940 0.930 . S
H932 C942 0.930 . S
H933 C945 0.929 . S
H934 C948 0.930 . S
H935 C950 0.960 . S
H936 C950 0.960 . S
H937 C950 0.960 . S
C938 H930 0.929 . S
C938 C939 1.377 . S
C938 C940 1.384 . S
C939 C938 1.377 . S
C939 C945 1.390 . S
C940 H931 0.930 . S
C940 C938 1.384 . S
C940 C941 1.372 . S
C941 C940 1.372 . S
C941 C942 1.400 . S
C941 C946 1.490 . S
C942 H932 0.930 . S
C942 C941 1.400 . S
C942 C945 1.386 . S
H943 C959 0.930 . S
H944 C960 0.931 . S
C945 H933 0.929 . S
C945 C939 1.390 . S
C945 C942 1.386 . S
C946 C941 1.490 . S
C946 C948 1.395 . S
C946 C949 1.403 . S
H947 C953 0.930 . S
C948 H934 0.930 . S
C948 C946 1.395 . S
C948 C951 1.403 . S
C949 C946 1.403 . S
C949 C950 1.524 . S
C949 C953 1.400 . S
C950 H935 0.960 . S
C950 H936 0.960 . S
C950 H937 0.960 . S
C950 C949 1.524 . S
C951 C948 1.403 . S
C951 C952 1.392 . S
C951 C955 1.495 . S
C952 C951 1.392 . S
C952 C953 1.385 . S
C952 C954 1.478 . S
C953 H947 0.930 . S
C953 C949 1.400 . S
C953 C952 1.385 . S
C954 C952 1.478 . S
C954 C956 1.381 . S
C954 C960 1.383 . S
C955 C951 1.495 . S
C955 H961 0.959 . S
C955 H962 0.961 . S
C955 H963 0.960 . S
C956 C954 1.381 . S
C956 C957 1.394 1_556 S
C956 H964 0.930 . S
C957 C956 1.394 1_554 S
C957 C958 1.383 . S
C957 H965 0.929 . S
C958 C957 1.383 . S
C958 C959 1.377 . S
C959 H943 0.930 . S
C959 C958 1.377 . S
C959 C960 1.379 1_554 S
C960 H944 0.931 . S
C960 C954 1.383 . S
C960 C959 1.379 1_556 S
H961 C955 0.959 . S
H962 C955 0.961 . S
H963 C955 0.960 . S
H964 C956 0.930 . S
H965 C957 0.929 . S
H966 C974 0.929 . S
H967 C976 0.930 . S
H968 C978 0.930 1_655 S
H969 C981 0.929 1_655 S
H970 C984 0.930 . S
H971 C986 0.960 . S
H972 C986 0.960 . S
H973 C986 0.960 1_655 S
C974 H966 0.929 . S
C974 C975 1.377 . S
C974 C976 1.384 . S
C975 C974 1.377 . S
C975 C981 1.390 . S
C976 H967 0.930 . S
C976 C974 1.384 . S
C976 C977 1.372 . S
C977 C976 1.372 . S
C977 C978 1.400 . S
C977 C982 1.490 . S
C978 H968 0.930 1_455 S
C978 C977 1.400 . S
C978 C981 1.386 . S
H979 C995 0.930 1_655 S
H980 C996 0.931 1_655 S
C981 H969 0.929 1_455 S
C981 C975 1.390 . S
C981 C978 1.386 . S
C982 C977 1.490 . S
C982 C984 1.395 . S
C982 C985 1.403 . S
H983 C989 0.930 . S
C984 H970 0.930 . S
C984 C982 1.395 . S
C984 C987 1.403 . S
C985 C982 1.403 . S
C985 C986 1.524 . S
C985 C989 1.400 . S
C986 H971 0.960 . S
C986 H972 0.960 . S
C986 H973 0.960 1_455 S
C986 C985 1.524 . S
C987 C984 1.403 . S
C987 C988 1.392 . S
C987 C991 1.495 . S
C988 C987 1.392 . S
C988 C989 1.385 . S
C988 C990 1.478 . S
C989 H983 0.930 . S
C989 C985 1.400 . S
C989 C988 1.385 . S
C990 C988 1.478 . S
C990 C992 1.381 . S
C990 C996 1.383 . S
C991 C987 1.495 . S
C991 H997 0.959 . S
C991 H998 0.961 . S
C991 H999 0.960 . S
C992 C990 1.381 . S
C992 C993 1.394 . S
C992 H1000 0.930 . S
C993 C992 1.394 . S
C993 C994 1.383 . S
C993 H1001 0.929 . S
C994 C993 1.383 . S
C994 C995 1.377 . S
C995 H979 0.930 1_455 S
C995 C994 1.377 . S
C995 C996 1.379 . S
C996 H980 0.931 1_455 S
C996 C990 1.383 . S
C996 C995 1.379 . S
H997 C991 0.959 . S
H998 C991 0.961 . S
H999 C991 0.960 . S
H1000 C992 0.930 . S
H1001 C993 0.929 . S
C363 C10 2.958 . S
C382 C331 2.944 . S
C399 C59 3.046 . S
C418 C258 3.003 . S
C435 C90 2.953 . S
C454 C297 2.928 . S
C471 C19 3.027 . S
C490 C336 2.971 . S
C526 C253 2.918 . S
C507 C50 2.940 . S
C562 C292 2.982 . S
C543 C99 3.033 . S
C579 C46 0.370 . S
C598 C180 0.420 . S
C615 C95 0.310 . S
C634 C214 0.205 . S
C651 C6 0.323 . S
C670 C136 0.281 . S
C706 C175 0.242 . S
C687 C55 0.283 . S
C742 C219 0.402 . S
C723 C86 0.340 . S
C759 C15 0.289 . S
C778 C141 0.281 . S
C814 C199 1.102 . S
C795 C9 1.072 . S
C831 C49 1.076 . S
C850 C121 1.102 . S
C867 C89 1.075 . S
C886 C160 1.101 . S
C922 C277 1.772 . S
C903 C58 1.694 . S
C958 C316 1.777 . S
C939 C98 1.695 . S
C975 C18 1.696 . S
C994 C238 1.776 . S
