# Generated by pormake.
# Topology pts, (4,4)-cn, num edge types: 1
# Building blocks:
#     Node 0, Type 0, BuildingBlock: GIZVER_clean_linker_0, # of connection points: 4
#     Node 1, Type 0, BuildingBlock: GIZVER_clean_linker_0, # of connection points: 4
#     Node 2, Type 1, BuildingBlock: QUQFOY_clean_sbu_1, # of connection points: 4
#     Node 3, Type 1, BuildingBlock: QUQFOY_clean_sbu_1, # of connection points: 4
#     Edge 4, Type (0, 1), BuildingBlock: XUDNAN_clean_linker_2, # of connection points: 2
#     Edge 5, Type (0, 1), BuildingBlock: XUDNAN_clean_linker_2, # of connection points: 2
#     Edge 6, Type (0, 1), BuildingBlock: XUDNAN_clean_linker_2, # of connection points: 2
#     Edge 7, Type (0, 1), BuildingBlock: XUDNAN_clean_linker_2, # of connection points: 2
#     Edge 8, Type (0, 1), BuildingBlock: XUDNAN_clean_linker_2, # of connection points: 2
#     Edge 9, Type (0, 1), BuildingBlock: XUDNAN_clean_linker_2, # of connection points: 2
#     Edge 10, Type (0, 1), BuildingBlock: XUDNAN_clean_linker_2, # of connection points: 2
#     Edge 11, Type (0, 1), BuildingBlock: XUDNAN_clean_linker_2, # of connection points: 2
# Relax obj value: 0.104
# Max RMSD: 0.276
# Mean RMSD: 0.184
data_MOF--net-pts--node1-QUQFOY_clean_sbu_1--node2-GIZVER_clean_linker_0--edge1-XUDNAN_clean_linker_2
_symmetry_space_group_name_H-M    P1
_symmetry_Int_Tables_number       1
_symmetry_cell_setting            triclinic
loop_
_symmetry_equiv_pos_as_xyz
'x, y, z'
_cell_length_a     24.850669
_cell_length_b     27.099639
_cell_length_c     36.579357
_cell_angle_alpha  89.711128
_cell_angle_beta   89.374747
_cell_angle_gamma 89.96791
loop_
_atom_site_label
_atom_site_type_symbol
_atom_site_fract_x
_atom_site_fract_y
_atom_site_fract_z
_atom_type_partial_charge
H0 H 0.55594 0.10282 0.0457 0.0
H1 H 0.55755 0.09939 0.92817 0.0
H2 H 0.69134 0.04073 0.98722 0.0
H3 H 0.49975 0.16074 0.00933 0.0
H4 H 0.49625 0.15468 0.96081 0.0
H5 H 0.45046 0.1041 0.04998 0.0
H6 H 0.32146 0.02168 0.00145 0.0
H7 H 0.44212 0.08905 0.9332 0.0
C8 C 0.57584 0.09257 0.02036 0.0
C9 C 0.62658 0.0695 0.02101 0.0
C10 C 0.55099 0.1039 0.98704 0.0
C11 C 0.57614 0.09035 0.95404 0.0
C12 C 0.62624 0.0668 0.95437 0.0
C13 C 0.65134 0.05672 0.98765 0.0
C14 C 0.49962 0.13334 0.98676 0.0
C15 C 0.45162 0.09992 -0.00879 0.0
C16 C 0.4307 0.08916 0.02621 0.0
C17 C 0.38348 0.06095 0.03049 0.0
C18 C 0.35911 0.04166 -0.00087 0.0
C19 C 0.3803 0.05136 0.96419 0.0
C20 C 0.42646 0.08055 0.96029 0.0
H21 H 0.04808 0.57492 0.42508 0.0
H22 H 0.08152 0.58158 0.54038 0.0
H23 H 0.98754 0.6953 0.4895 0.0
H24 H 0.12297 0.52696 0.45251 0.0
H25 H 0.13429 0.52807 0.5005 0.0
H26 H 0.06164 0.46849 0.42614 0.0
H27 H 0.9974 0.35373 0.49518 0.0
H28 H 0.07979 0.47641 0.54295 0.0
C29 C 0.04291 0.5927 0.45137 0.0
C30 C 0.01385 0.6371 0.45378 0.0
C31 C 0.06651 0.57187 0.48278 0.0
C32 C 0.06152 0.59638 0.51652 0.0
C33 C 0.03384 0.64147 0.51894 0.0
C34 C 0.00902 0.66054 0.48771 0.0
C35 C 0.10212 0.52685 0.47959 0.0
C36 C 0.07065 0.47946 0.48421 0.0
C37 C 0.05315 0.45366 0.45316 0.0
C38 C 0.02852 0.40722 0.4569 0.0
C39 C 0.01858 0.38848 0.49206 0.0
C40 C 0.03887 0.41168 0.52313 0.0
C41 C 0.06349 0.45815 0.51922 0.0
O42 O 0.9317 0.97484 0.19681 0.0
Cd43 Cd 0.9993 0.95481 0.2256 0.0
Cd44 Cd 0.99719 0.06282 0.24734 0.0
O45 O 0.92606 0.04958 0.22059 0.0
O46 O 0.99947 0.88195 0.23418 0.0
O47 O 0.98671 0.93711 0.27816 0.0
C48 C 0.98998 0.8915 0.26816 0.0
C49 C 0.99371 0.13538 0.28217 0.0
C50 C 0.90671 1.01539 0.20105 0.0
C51 C 0.09617 0.01707 0.20795 0.0
O52 O 0.07145 0.05306 0.22263 0.0
O53 O 0.07449 0.9747 0.20614 0.0
O54 O 0.9938 0.13646 0.24707 0.0
O55 O 0.9955 0.09275 0.298 0.0
O56 O 0.93968 0.06887 0.7722 0.0
Cd57 Cd 0.01406 0.08352 0.74894 0.0
Cd58 Cd 0.00721 0.97131 0.74176 0.0
O59 O 0.93279 0.9883 0.7638 0.0
O60 O 0.01696 0.1573 0.74837 0.0
O61 O 0.02024 0.11238 0.69817 0.0
C62 C 0.02027 0.1554 0.71325 0.0
C63 C 0.01018 0.90028 0.70534 0.0
C64 C 0.91325 0.02886 0.77511 0.0
C65 C 0.10018 0.01942 0.78319 0.0
O66 O 0.07547 0.98126 0.77233 0.0
O67 O 0.08256 0.06246 0.77623 0.0
O68 O 0.00358 0.89775 0.74021 0.0
O69 O 0.01453 0.94358 0.69071 0.0
H70 H 0.32464 0.98222 0.05757 0.0
H71 H 0.37686 0.13042 0.08479 0.0
H72 H 0.31896 0.1286 0.13958 0.0
H73 H 0.19166 1.00328 0.07549 0.0
H74 H 0.17628 0.94305 0.09393 0.0
H75 H 0.23101 0.95043 0.06185 0.0
H76 H 0.29663 0.91079 0.10809 0.0
H77 H 0.24188 0.90292 0.14034 0.0
H78 H 0.30155 0.93588 0.15348 0.0
H79 H 0.24506 0.11739 0.18482 0.0
H80 H 0.16081 0.09729 0.21759 0.0
H81 H 0.15222 0.95798 0.1598 0.0
C82 C 0.32482 1.01397 0.07539 0.0
C83 C 0.35586 0.05633 0.06673 0.0
C84 C 0.35475 0.09697 0.09101 0.0
C85 C 0.32161 0.09644 0.12224 0.0
C86 C 0.28978 0.05503 0.12896 0.0
C87 C 0.29132 1.01435 0.10638 0.0
C88 C 0.24823 0.97724 0.11704 0.0
C89 C 0.20952 0.968 0.08519 0.0
C90 C 0.2736 0.92884 0.13055 0.0
C91 C 0.22062 1.00449 0.14805 0.0
C92 C 0.24596 0.04883 0.15493 0.0
C93 C 0.22545 0.08237 0.18019 0.0
C94 C 0.17734 0.07069 0.19852 0.0
C95 C 0.14992 0.02596 0.19135 0.0
C96 C 0.17263 0.99206 0.16631 0.0
H97 H 0.06241 0.3143 0.53211 0.0
H98 H 0.01682 0.44489 0.59326 0.0
H99 H 0.01129 0.39411 0.64994 0.0
H100 H 0.97095 0.23365 0.5756 0.0
H101 H 0.01559 0.18124 0.57416 0.0
H102 H 0.02121 0.22887 0.53988 0.0
H103 H 0.12173 0.24105 0.55564 0.0
H104 H 0.11659 0.19327 0.58991 0.0
H105 H 0.14032 0.25375 0.60215 0.0
H106 H 0.00657 0.32667 0.6992 0.0
H107 H 0.00242 0.25015 0.73622 0.0
H108 H 0.04589 0.16444 0.64046 0.0
C109 C 0.05106 0.33247 0.55735 0.0
C110 C 0.03928 0.38355 0.55818 0.0
C111 C 0.02607 0.40588 0.59201 0.0
C112 C 0.02266 0.37726 0.62423 0.0
C113 C 0.0328 0.32659 0.62201 0.0
C114 C 0.04685 0.30459 0.58933 0.0
C115 C 0.05325 0.24934 0.59336 0.0
C116 C 0.01284 0.22167 0.56933 0.0
C117 C 0.11143 0.23344 0.58476 0.0
C118 C 0.03996 0.24319 0.6335 0.0
C119 C 0.02885 0.28813 0.64973 0.0
C120 C 0.01533 0.29141 0.68671 0.0
C121 C 0.01307 0.24771 0.7075 0.0
C122 C 0.02368 0.20128 0.69119 0.0
C123 C 0.03734 0.19927 0.6537 0.0
H124 H 0.69482 0.99351 0.04045 0.0
H125 H 0.62724 0.13139 0.08022 0.0
H126 H 0.68347 0.1254 0.13485 0.0
H127 H 0.71617 0.93366 0.13091 0.0
H128 H 0.77948 0.90724 0.11652 0.0
H129 H 0.72689 0.91714 0.08371 0.0
H130 H 0.79248 0.96885 0.04349 0.0
H131 H 0.84509 0.95931 0.07614 0.0
H132 H 0.8262 0.02113 0.06314 0.0
H133 H 0.75417 0.11108 0.18069 0.0
H134 H 0.83561 0.08972 0.21486 0.0
H135 H 0.86163 0.96301 0.14456 0.0
C136 C 0.69122 0.02218 0.06083 0.0
C137 C 0.65597 0.06271 0.05596 0.0
C138 C 0.65265 0.09926 0.0835 0.0
C139 C 0.68476 0.09637 0.11465 0.0
C140 C 0.7201 0.05677 0.11797 0.0
C141 C 0.7235 0.02021 0.0919 0.0
C142 C 0.76872 0.98439 0.10022 0.0
C143 C 0.74647 0.93253 0.10833 0.0
C144 C 0.81059 0.9834 0.06889 0.0
C145 C 0.79145 1.00766 0.13431 0.0
C146 C 0.76212 0.04889 0.14434 0.0
C147 C 0.77704 0.0785 0.17345 0.0
C148 C 0.8236 0.06613 0.19257 0.0
C149 C 0.85507 0.02463 0.18242 0.0
C150 C 0.8381 0.99456 0.15327 0.0
H151 H 0.04991 0.74078 0.52479 0.0
H152 H 0.01698 0.60967 0.58984 0.0
H153 H 0.01007 0.66151 0.64538 0.0
H154 H 0.12753 0.8067 0.59191 0.0
H155 H 0.09967 0.86577 0.57939 0.0
H156 H 0.1057 0.81772 0.54574 0.0
H157 H 0.00374 0.82489 0.53247 0.0
H158 H 0.9973 0.87276 0.56619 0.0
H159 H 0.95583 0.81833 0.56954 0.0
H160 H 0.0023 0.72889 0.69301 0.0
H161 H 0.99629 0.80531 0.72924 0.0
H162 H 0.0314 0.89199 0.63174 0.0
C163 C 0.04112 0.72282 0.55069 0.0
C164 C 0.03346 0.67117 0.55298 0.0
C165 C 0.02324 0.64911 0.58752 0.0
C166 C 0.01901 0.67829 0.61911 0.0
C167 C 0.02535 0.7293 0.61558 0.0
C168 C 0.03645 0.75126 0.58222 0.0
C169 C 0.03989 0.80684 0.58531 0.0
C170 C 0.09658 0.82533 0.57499 0.0
C171 C 0.99661 0.83218 0.562 0.0
C172 C 0.02843 0.81302 0.62568 0.0
C173 C 0.02042 0.76788 0.64273 0.0
C174 C 0.00871 0.76436 0.67995 0.0
C175 C 0.0053 0.80804 0.70026 0.0
C176 C 0.01333 0.85469 0.68331 0.0
C177 C 0.02499 0.85698 0.64549 0.0
H178 H 0.33503 0.10983 0.91251 0.0
H179 H 0.35463 0.95721 0.94545 0.0
H180 H 0.29229 0.93131 0.89678 0.0
H181 H 0.19831 0.10331 0.90068 0.0
H182 H 0.19515 0.14461 0.86198 0.0
H183 H 0.24881 0.15041 0.89424 0.0
H184 H 0.31935 0.14122 0.84202 0.0
H185 H 0.26581 0.13588 0.80942 0.0
H186 H 0.3165 0.08845 0.81229 0.0
H187 H 0.22091 0.92324 0.84971 0.0
H188 H 0.14348 0.93312 0.80881 0.0
H189 H 0.1673 0.09193 0.80843 0.0
C190 C 0.3276 0.07087 0.90844 0.0
C191 C 0.35018 0.03523 0.93191 0.0
C192 C 0.33812 0.98473 0.92714 0.0
C193 C 0.30294 0.9698 0.89962 0.0
C194 C 0.28007 1.00598 0.87743 0.0
C195 C 0.29194 0.0555 0.8815 0.0
C196 C 0.25723 0.08739 0.85716 0.0
C197 C 0.22285 0.12353 0.87988 0.0
C198 C 0.29179 0.11485 0.82852 0.0
C199 C 0.22285 0.04823 0.83959 0.0
C200 C 0.23734 1.00149 0.85114 0.0
C201 C 0.20961 0.95959 0.8401 0.0
C202 C 0.16556 0.96565 0.81693 0.0
C203 C 0.14921 1.01333 0.80539 0.0
C204 C 0.17885 0.05498 0.81659 0.0
H205 H 0.0464 0.30798 0.45279 0.0
H206 H 0.99074 0.43259 0.38834 0.0
H207 H 0.97508 0.37634 0.33622 0.0
H208 H 0.113 0.24285 0.38183 0.0
H209 H 0.0927 0.18299 0.39866 0.0
H210 H 0.10046 0.23341 0.43 0.0
H211 H 0.00261 0.22078 0.45336 0.0
H212 H 0.99442 0.17027 0.4221 0.0
H213 H 0.94817 0.22152 0.42118 0.0
H214 H 0.96677 0.30546 0.2912 0.0
H215 H 0.96522 0.22683 0.25734 0.0
H216 H 0.02082 0.14916 0.35384 0.0
C217 C 0.02997 0.32367 0.42802 0.0
C218 C 0.01899 0.37478 0.4249 0.0
C219 C 0.99949 0.39365 0.39139 0.0
C220 C 0.99024 0.36194 0.36176 0.0
C221 C 1.00058 0.3116 0.36624 0.0
C222 C 0.01987 0.29271 0.39864 0.0
C223 C 0.0275 0.23738 0.39695 0.0
C224 C 0.08694 0.22336 0.40216 0.0
C225 C 0.99099 0.21095 0.42506 0.0
C226 C 0.00958 0.22774 0.35832 0.0
C227 C 0.99451 0.271 0.34093 0.0
C228 C 0.97815 0.27142 0.30466 0.0
C229 C 0.97747 0.22658 0.28567 0.0
C230 C 0.99259 0.18187 0.30308 0.0
C231 C 0.00842 0.18261 0.33996 0.0
H232 H 0.69973 0.12536 0.92076 0.0
H233 H 0.62035 0.98377 0.91309 0.0
H234 H 0.67962 0.9616 0.86061 0.0
H235 H 0.72578 0.14346 0.82058 0.0
H236 H 0.79034 0.17141 0.82868 0.0
H237 H 0.73649 0.17842 0.86167 0.0
H238 H 0.79793 0.14286 0.9122 0.0
H239 H 0.85171 0.1354 0.87944 0.0
H240 H 0.82855 0.08313 0.90588 0.0
H241 H 0.75497 0.95136 0.81481 0.0
H242 H 0.83908 0.95395 0.77831 0.0
H243 H 0.86842 0.10325 0.81571 0.0
C244 C 0.69395 0.09039 0.90712 0.0
C245 C 0.65533 0.05641 0.92009 0.0
C246 C 0.64937 1.01034 0.90276 0.0
C247 C 0.68278 0.99758 0.87309 0.0
C248 C 0.72147 0.03157 0.86124 0.0
C249 C 0.72682 0.07726 0.87752 0.0
C250 C 0.77432 0.10543 0.86179 0.0
C251 C 0.7556 0.15246 0.84199 0.0
C252 C 0.81555 0.11737 0.8916 0.0
C253 C 0.7961 0.06783 0.83503 0.0
C254 C 0.76479 0.02568 0.83481 0.0
C255 C 0.77925 0.9845 0.81426 0.0
C256 C 0.82722 0.98627 0.79372 0.0
C257 C 0.86023 0.02892 0.79396 0.0
C258 C 0.84373 0.0704 0.81445 0.0
H259 H 0.06784 0.65875 0.38985 0.0
H260 H 0.9142 0.67727 0.44539 0.0
H261 H 0.88826 0.74036 0.40009 0.0
H262 H 0.09216 0.77909 0.37186 0.0
H263 H 0.12119 0.77239 0.32678 0.0
H264 H 0.12467 0.72216 0.35898 0.0
H265 H 0.07788 0.66394 0.31334 0.0
H266 H 0.0754 0.71368 0.28048 0.0
H267 H 0.01451 0.68186 0.29372 0.0
H268 H 0.88747 0.81297 0.35828 0.0
H269 H 0.90478 0.88111 0.31438 0.0
H270 H 0.05494 0.81214 0.28165 0.0
C271 C 0.02776 0.67437 0.39136 0.0
C272 C 0.99297 0.66318 0.42108 0.0
C273 C 0.94141 0.68543 0.42282 0.0
C274 C 0.92637 0.72134 0.39726 0.0
C275 C 0.96285 0.73384 0.36959 0.0
C276 C 0.01182 0.71003 0.3657 0.0
C277 C 0.04496 0.73296 0.33493 0.0
C278 C 0.09891 0.75282 0.349 0.0
C279 C 0.05368 0.6959 0.30376 0.0
C280 C 0.00802 0.77466 0.32338 0.0
C281 C 0.96095 0.77456 0.34387 0.0
C282 C 0.92333 0.81259 0.34123 0.0
C283 C 0.93365 0.8513 0.31657 0.0
C284 C 0.98068 0.85119 0.29454 0.0
C285 C 0.01812 0.81226 0.29776 0.0
loop_
_geom_bond_atom_site_label_1
_geom_bond_atom_site_label_2
_geom_bond_distance
_geom_bond_site_symmetry_2
_ccdc_geom_bond_type
H0 C8 0.930 . S
H1 C11 0.930 . S
H2 C13 0.930 1_565 S
H3 C14 0.970 . S
H4 C14 0.970 1_556 S
H5 C16 0.930 . S
H6 C18 0.930 1_565 S
H7 C20 0.930 . S
C8 H0 0.930 . S
C8 C9 1.382 . S
C8 C10 1.426 . S
C9 C8 1.382 . S
C9 C13 1.389 . S
C10 C8 1.426 . S
C10 C11 1.375 1_554 S
C10 C14 1.532 . S
C11 H1 0.930 . S
C11 C10 1.375 1_556 S
C11 C12 1.416 . S
C12 C11 1.416 . S
C12 C13 1.371 1_556 S
C13 H2 0.930 1_545 S
C13 C9 1.389 . S
C13 C12 1.371 1_554 S
C14 H3 0.970 . S
C14 H4 0.970 1_554 S
C14 C10 1.532 . S
C14 C15 1.500 . S
C15 C14 1.500 . S
C15 C16 1.394 . S
C15 C20 1.392 1_554 S
C16 H5 0.930 . S
C16 C15 1.394 . S
C16 C17 1.407 . S
C17 C16 1.407 . S
C17 C18 1.388 . S
C18 H6 0.930 1_545 S
C18 C17 1.388 . S
C18 C19 1.370 1_554 S
C19 C18 1.370 1_556 S
C19 C20 1.387 . S
C20 H7 0.930 . S
C20 C15 1.392 1_556 S
C20 C19 1.387 . S
H21 C29 0.930 . S
H22 C32 0.930 . S
H23 C34 0.930 1_655 S
H24 C35 0.970 . S
H25 C35 0.970 . S
H26 C37 0.930 . S
H27 C39 0.930 . S
H28 C41 0.930 . S
C29 H21 0.930 . S
C29 C30 1.382 . S
C29 C31 1.426 . S
C30 C29 1.382 . S
C30 C34 1.389 . S
C31 C29 1.426 . S
C31 C32 1.375 . S
C31 C35 1.532 . S
C32 H22 0.930 . S
C32 C31 1.375 . S
C32 C33 1.416 . S
C33 C32 1.416 . S
C33 C34 1.371 . S
C34 H23 0.930 1_455 S
C34 C30 1.389 . S
C34 C33 1.371 . S
C35 H24 0.970 . S
C35 H25 0.970 . S
C35 C31 1.532 . S
C35 C36 1.499 . S
C36 C35 1.499 . S
C36 C37 1.370 . S
C36 C41 1.415 . S
C37 H26 0.930 . S
C37 C36 1.370 . S
C37 C38 1.407 . S
C38 C37 1.407 . S
C38 C39 1.365 1_455 S
C39 H27 0.930 . S
C39 C38 1.365 1_655 S
C39 C40 1.393 1_655 S
C40 C39 1.393 1_455 S
C40 C41 1.387 . S
C41 H28 0.930 . S
C41 C36 1.415 . S
C41 C40 1.387 . S
O42 Cd43 2.223 1_655 S
O42 C50 1.315 . S
Cd43 O42 2.223 1_455 S
Cd43 O46 2.297 1_455 S
Cd43 O47 2.439 1_455 S
Cd43 O53 2.240 1_565 S
Cd44 O45 2.240 . S
Cd44 O52 2.223 1_655 S
Cd44 O54 2.297 1_655 S
Cd44 O55 2.439 1_655 S
O45 Cd44 2.240 . S
O45 C50 1.279 1_545 S
O46 Cd43 2.297 1_655 S
O46 C48 1.247 . S
O47 Cd43 2.439 1_655 S
O47 C48 1.208 . S
C48 O46 1.247 . S
C48 O47 1.208 . S
C49 O54 1.247 . S
C49 O55 1.208 . S
C50 O42 1.315 . S
C50 O45 1.279 1_565 S
C51 O52 1.315 . S
C51 O53 1.279 . S
O52 Cd44 2.223 1_455 S
O52 C51 1.315 . S
O53 Cd43 2.240 1_545 S
O53 C51 1.279 . S
O54 Cd44 2.297 1_455 S
O54 C49 1.247 . S
O55 Cd44 2.439 1_455 S
O55 C49 1.208 . S
O56 Cd57 2.223 1_655 S
O56 C64 1.315 . S
Cd57 O56 2.223 1_455 S
Cd57 O60 2.297 1_455 S
Cd57 O61 2.439 1_455 S
Cd57 O67 2.240 . S
Cd58 O59 2.240 1_565 S
Cd58 O66 2.223 1_655 S
Cd58 O68 2.297 1_655 S
Cd58 O69 2.439 1_655 S
O59 Cd58 2.240 1_545 S
O59 C64 1.279 . S
O60 Cd57 2.297 1_655 S
O60 C62 1.247 . S
O61 Cd57 2.439 1_655 S
O61 C62 1.208 . S
C62 O60 1.247 . S
C62 O61 1.208 . S
C63 O68 1.247 . S
C63 O69 1.208 . S
C64 O56 1.315 . S
C64 O59 1.279 . S
C65 O66 1.315 . S
C65 O67 1.279 1_565 S
O66 Cd58 2.223 1_455 S
O66 C65 1.315 . S
O67 Cd57 2.240 . S
O67 C65 1.279 1_545 S
O68 Cd58 2.297 1_455 S
O68 C63 1.247 . S
O69 Cd58 2.439 1_455 S
O69 C63 1.208 . S
H70 C82 0.930 . S
H71 C84 0.930 . S
H72 C85 0.930 . S
H73 C89 0.959 . S
H74 C89 0.959 . S
H75 C89 0.961 . S
H76 C90 0.960 . S
H77 C90 0.961 . S
H78 C90 0.959 . S
H79 C93 0.929 . S
H80 C94 0.931 . S
H81 C96 0.930 1_565 S
C82 H70 0.930 . S
C82 C83 1.399 1_565 S
C82 C87 1.399 . S
C83 C82 1.399 1_545 S
C83 C84 1.376 . S
C84 H71 0.930 . S
C84 C83 1.376 . S
C84 C85 1.388 . S
C85 H72 0.930 . S
C85 C84 1.388 . S
C85 C86 1.390 . S
C86 C85 1.390 . S
C86 C87 1.394 1_545 S
C86 C92 1.465 . S
C87 C82 1.399 . S
C87 C86 1.394 1_565 S
C87 C88 1.516 . S
C88 C87 1.516 . S
C88 C89 1.502 . S
C88 C90 1.561 . S
C88 C91 1.526 1_565 S
C89 H73 0.959 . S
C89 H74 0.959 . S
C89 H75 0.961 . S
C89 C88 1.502 . S
C90 H76 0.960 . S
C90 H77 0.961 . S
C90 H78 0.959 . S
C90 C88 1.561 . S
C91 C88 1.526 1_545 S
C91 C92 1.396 . S
C91 C96 1.390 . S
C92 C86 1.465 . S
C92 C91 1.396 . S
C92 C93 1.399 . S
C93 H79 0.929 . S
C93 C92 1.399 . S
C93 C94 1.385 . S
C94 H80 0.931 . S
C94 C93 1.385 . S
C94 C95 1.389 . S
C95 C94 1.389 . S
C95 C96 1.387 . S
C96 H81 0.930 1_545 S
C96 C91 1.390 . S
C96 C95 1.387 . S
H97 C109 0.930 . S
H98 C111 0.930 . S
H99 C112 0.930 . S
H100 C116 0.959 . S
H101 C116 0.959 . S
H102 C116 0.961 . S
H103 C117 0.960 . S
H104 C117 0.961 . S
H105 C117 0.959 . S
H106 C120 0.929 1_455 S
H107 C121 0.931 . S
H108 C123 0.930 . S
C109 H97 0.930 . S
C109 C110 1.398 1_655 S
C109 C114 1.399 . S
C110 C109 1.398 1_455 S
C110 C111 1.376 . S
C111 H98 0.930 . S
C111 C110 1.376 . S
C111 C112 1.388 . S
C112 H99 0.930 . S
C112 C111 1.388 . S
C112 C113 1.390 . S
C113 C112 1.390 . S
C113 C114 1.394 1_455 S
C113 C119 1.465 1_455 S
C114 C109 1.399 . S
C114 C113 1.394 1_655 S
C114 C115 1.516 . S
C115 C114 1.516 . S
C115 C116 1.502 . S
C115 C117 1.561 1_655 S
C115 C118 1.526 . S
C116 H100 0.959 . S
C116 H101 0.959 . S
C116 H102 0.961 . S
C116 C115 1.502 . S
C117 H103 0.960 . S
C117 H104 0.961 . S
C117 H105 0.959 . S
C117 C115 1.561 1_455 S
C118 C115 1.526 . S
C118 C119 1.396 . S
C118 C123 1.390 . S
C119 C113 1.465 1_655 S
C119 C118 1.396 . S
C119 C120 1.399 . S
C120 H106 0.929 1_655 S
C120 C119 1.399 . S
C120 C121 1.385 . S
C121 H107 0.931 . S
C121 C120 1.385 . S
C121 C122 1.389 . S
C122 C121 1.389 . S
C122 C123 1.387 . S
C123 H108 0.930 . S
C123 C118 1.390 . S
C123 C122 1.387 . S
H124 C136 0.930 . S
H125 C138 0.930 . S
H126 C139 0.930 . S
H127 C143 0.959 . S
H128 C143 0.959 . S
H129 C143 0.961 . S
H130 C144 0.960 . S
H131 C144 0.961 . S
H132 C144 0.959 . S
H133 C147 0.929 . S
H134 C148 0.931 . S
H135 C150 0.930 . S
C136 H124 0.930 . S
C136 C137 1.399 1_565 S
C136 C141 1.399 . S
C137 C136 1.399 1_545 S
C137 C138 1.376 . S
C138 H125 0.930 . S
C138 C137 1.376 . S
C138 C139 1.388 . S
C139 H126 0.930 . S
C139 C138 1.388 . S
C139 C140 1.390 . S
C140 C139 1.390 . S
C140 C141 1.394 1_545 S
C140 C146 1.465 . S
C141 C136 1.399 . S
C141 C140 1.394 1_565 S
C141 C142 1.516 . S
C142 C141 1.516 . S
C142 C143 1.502 . S
C142 C144 1.561 . S
C142 C145 1.526 . S
C143 H127 0.959 . S
C143 H128 0.959 . S
C143 H129 0.961 . S
C143 C142 1.502 . S
C144 H130 0.960 . S
C144 H131 0.961 . S
C144 H132 0.959 . S
C144 C142 1.561 . S
C145 C142 1.526 . S
C145 C146 1.396 1_565 S
C145 C150 1.390 . S
C146 C140 1.465 . S
C146 C145 1.396 1_545 S
C146 C147 1.399 . S
C147 H133 0.929 . S
C147 C146 1.399 . S
C147 C148 1.385 . S
C148 H134 0.931 . S
C148 C147 1.385 . S
C148 C149 1.389 1_545 S
C149 C148 1.389 1_565 S
C149 C150 1.387 . S
C150 H135 0.930 . S
C150 C145 1.390 . S
C150 C149 1.387 . S
H151 C163 0.930 . S
H152 C165 0.930 . S
H153 C166 0.930 . S
H154 C170 0.959 . S
H155 C170 0.959 . S
H156 C170 0.961 . S
H157 C171 0.960 . S
H158 C171 0.961 1_455 S
H159 C171 0.959 . S
H160 C174 0.929 1_655 S
H161 C175 0.931 . S
H162 C177 0.930 . S
C163 H151 0.930 . S
C163 C164 1.399 . S
C163 C168 1.399 . S
C164 C163 1.399 . S
C164 C165 1.376 1_455 S
C165 H152 0.930 . S
C165 C164 1.376 1_655 S
C165 C166 1.388 . S
C166 H153 0.930 . S
C166 C165 1.388 . S
C166 C167 1.390 1_655 S
C167 C166 1.390 1_455 S
C167 C168 1.394 . S
C167 C173 1.465 . S
C168 C163 1.399 . S
C168 C167 1.394 . S
C168 C169 1.516 . S
C169 C168 1.516 . S
C169 C170 1.502 . S
C169 C171 1.561 1_455 S
C169 C172 1.526 . S
C170 H154 0.959 . S
C170 H155 0.959 . S
C170 H156 0.961 . S
C170 C169 1.502 . S
C171 H157 0.960 . S
C171 H158 0.961 1_655 S
C171 H159 0.959 . S
C171 C169 1.561 1_655 S
C172 C169 1.526 . S
C172 C173 1.396 . S
C172 C177 1.390 . S
C173 C167 1.465 . S
C173 C172 1.396 . S
C173 C174 1.399 . S
C174 H160 0.929 1_455 S
C174 C173 1.399 . S
C174 C175 1.385 . S
C175 H161 0.931 . S
C175 C174 1.385 . S
C175 C176 1.389 . S
C176 C175 1.389 . S
C176 C177 1.387 . S
C177 H162 0.930 . S
C177 C172 1.390 . S
C177 C176 1.387 . S
H178 C190 0.930 . S
H179 C192 0.930 . S
H180 C193 0.930 . S
H181 C197 0.959 . S
H182 C197 0.959 . S
H183 C197 0.961 . S
H184 C198 0.960 . S
H185 C198 0.961 . S
H186 C198 0.959 . S
H187 C201 0.929 . S
H188 C202 0.931 . S
H189 C204 0.930 . S
C190 H178 0.930 . S
C190 C191 1.399 . S
C190 C195 1.399 . S
C191 C190 1.399 . S
C191 C192 1.376 1_545 S
C192 H179 0.930 . S
C192 C191 1.376 1_565 S
C192 C193 1.388 . S
C193 H180 0.930 . S
C193 C192 1.388 . S
C193 C194 1.390 . S
C194 C193 1.390 . S
C194 C195 1.394 1_565 S
C194 C200 1.465 . S
C195 C190 1.399 . S
C195 C194 1.394 1_545 S
C195 C196 1.516 . S
C196 C195 1.516 . S
C196 C197 1.502 . S
C196 C198 1.561 . S
C196 C199 1.526 . S
C197 H181 0.959 . S
C197 H182 0.959 . S
C197 H183 0.961 . S
C197 C196 1.502 . S
C198 H184 0.960 . S
C198 H185 0.961 . S
C198 H186 0.959 . S
C198 C196 1.561 . S
C199 C196 1.526 . S
C199 C200 1.396 1_545 S
C199 C204 1.390 . S
C200 C194 1.465 . S
C200 C199 1.396 1_565 S
C200 C201 1.399 . S
C201 H187 0.929 . S
C201 C200 1.399 . S
C201 C202 1.385 . S
C202 H188 0.931 . S
C202 C201 1.385 . S
C202 C203 1.389 . S
C203 C202 1.389 . S
C203 C204 1.387 1_565 S
C204 H189 0.930 . S
C204 C199 1.390 . S
C204 C203 1.387 1_545 S
H205 C217 0.930 . S
H206 C219 0.930 . S
H207 C220 0.930 . S
H208 C224 0.959 . S
H209 C224 0.959 . S
H210 C224 0.961 . S
H211 C225 0.960 . S
H212 C225 0.961 . S
H213 C225 0.959 . S
H214 C228 0.929 . S
H215 C229 0.931 . S
H216 C231 0.930 . S
C217 H205 0.930 . S
C217 C218 1.399 . S
C217 C222 1.399 . S
C218 C217 1.399 . S
C218 C219 1.376 1_455 S
C219 H206 0.930 . S
C219 C218 1.376 1_655 S
C219 C220 1.388 . S
C220 H207 0.930 . S
C220 C219 1.388 . S
C220 C221 1.390 . S
C221 C220 1.390 . S
C221 C222 1.394 1_655 S
C221 C227 1.465 1_655 S
C222 C217 1.399 . S
C222 C221 1.394 1_455 S
C222 C223 1.516 . S
C223 C222 1.516 . S
C223 C224 1.502 . S
C223 C225 1.561 . S
C223 C226 1.526 . S
C224 H208 0.959 . S
C224 H209 0.959 . S
C224 H210 0.961 . S
C224 C223 1.502 . S
C225 H211 0.960 . S
C225 H212 0.961 . S
C225 H213 0.959 . S
C225 C223 1.561 . S
C226 C223 1.526 . S
C226 C227 1.396 . S
C226 C231 1.390 . S
C227 C221 1.465 1_455 S
C227 C226 1.396 . S
C227 C228 1.399 1_455 S
C228 H214 0.929 . S
C228 C227 1.399 1_655 S
C228 C229 1.385 . S
C229 H215 0.931 . S
C229 C228 1.385 . S
C229 C230 1.389 1_655 S
C230 C229 1.389 1_455 S
C230 C231 1.387 . S
C231 H216 0.930 . S
C231 C226 1.390 . S
C231 C230 1.387 . S
H232 C244 0.930 . S
H233 C246 0.930 . S
H234 C247 0.930 . S
H235 C251 0.959 . S
H236 C251 0.959 . S
H237 C251 0.961 . S
H238 C252 0.960 . S
H239 C252 0.961 . S
H240 C252 0.959 . S
H241 C255 0.929 . S
H242 C256 0.931 . S
H243 C258 0.930 . S
C244 H232 0.930 . S
C244 C245 1.399 . S
C244 C249 1.399 . S
C245 C244 1.399 . S
C245 C246 1.376 1_545 S
C246 H233 0.930 . S
C246 C245 1.376 1_565 S
C246 C247 1.388 . S
C247 H234 0.930 . S
C247 C246 1.388 . S
C247 C248 1.390 . S
C248 C247 1.390 . S
C248 C249 1.394 1_565 S
C248 C254 1.465 1_565 S
C249 C244 1.399 . S
C249 C248 1.394 1_545 S
C249 C250 1.516 . S
C250 C249 1.516 . S
C250 C251 1.502 . S
C250 C252 1.561 . S
C250 C253 1.526 . S
C251 H235 0.959 . S
C251 H236 0.959 . S
C251 H237 0.961 . S
C251 C250 1.502 . S
C252 H238 0.960 . S
C252 H239 0.961 . S
C252 H240 0.959 . S
C252 C250 1.561 . S
C253 C250 1.526 . S
C253 C254 1.396 . S
C253 C258 1.390 . S
C254 C248 1.465 1_545 S
C254 C253 1.396 . S
C254 C255 1.399 1_545 S
C255 H241 0.929 . S
C255 C254 1.399 1_565 S
C255 C256 1.385 . S
C256 H242 0.931 . S
C256 C255 1.385 . S
C256 C257 1.389 1_565 S
C257 C256 1.389 1_545 S
C257 C258 1.387 . S
C258 H243 0.930 . S
C258 C253 1.390 . S
C258 C257 1.387 . S
H259 C271 0.930 . S
H260 C273 0.930 . S
H261 C274 0.930 . S
H262 C278 0.959 . S
H263 C278 0.959 . S
H264 C278 0.961 . S
H265 C279 0.960 . S
H266 C279 0.961 . S
H267 C279 0.959 . S
H268 C282 0.929 . S
H269 C283 0.931 . S
H270 C285 0.930 . S
C271 H259 0.930 . S
C271 C272 1.399 . S
C271 C276 1.399 . S
C272 C271 1.399 . S
C272 C273 1.376 1_455 S
C273 H260 0.930 . S
C273 C272 1.376 1_655 S
C273 C274 1.388 . S
C274 H261 0.930 . S
C274 C273 1.388 . S
C274 C275 1.390 . S
C275 C274 1.390 . S
C275 C276 1.394 1_655 S
C275 C281 1.465 . S
C276 C271 1.399 . S
C276 C275 1.394 1_455 S
C276 C277 1.516 . S
C277 C276 1.516 . S
C277 C278 1.502 . S
C277 C279 1.561 . S
C277 C280 1.526 . S
C278 H262 0.959 . S
C278 H263 0.959 . S
C278 H264 0.961 . S
C278 C277 1.502 . S
C279 H265 0.960 . S
C279 H266 0.961 . S
C279 H267 0.959 . S
C279 C277 1.561 . S
C280 C277 1.526 . S
C280 C281 1.396 1_455 S
C280 C285 1.390 . S
C281 C275 1.465 . S
C281 C280 1.396 1_655 S
C281 C282 1.399 . S
C282 H268 0.929 . S
C282 C281 1.399 . S
C282 C283 1.385 . S
C283 H269 0.931 . S
C283 C282 1.385 . S
C283 C284 1.389 . S
C284 C283 1.389 . S
C284 C285 1.387 1_655 S
C285 H270 0.930 . S
C285 C280 1.390 . S
C285 C284 1.387 1_455 S
C95 C51 1.665 . S
C83 C17 1.573 . S
C122 C62 1.522 . S
C110 C40 1.601 . S
C149 C50 1.673 . S
C137 C9 1.582 . S
C176 C63 1.523 . S
C164 C33 1.570 . S
C203 C65 1.657 . S
C191 C19 1.629 . S
C230 C49 1.525 . S
C218 C38 1.578 . S
C257 C64 1.667 . S
C245 C12 1.580 . S
C272 C30 1.606 . S
C284 C48 1.597 . S
