# Generated by pormake.
# Topology zzz, (3,6)-cn, num edge types: 1
# Building blocks:
#     Node 0, Type 0, BuildingBlock: QEWDON_clean_linker_0, # of connection points: 3
#     Node 1, Type 0, BuildingBlock: QEWDON_clean_linker_0, # of connection points: 3
#     Node 2, Type 0, BuildingBlock: QEWDON_clean_linker_0, # of connection points: 3
#     Node 3, Type 0, BuildingBlock: QEWDON_clean_linker_0, # of connection points: 3
#     Node 4, Type 0, BuildingBlock: QEWDON_clean_linker_0, # of connection points: 3
#     Node 5, Type 0, BuildingBlock: QEWDON_clean_linker_0, # of connection points: 3
#     Node 6, Type 0, BuildingBlock: QEWDON_clean_linker_0, # of connection points: 3
#     Node 7, Type 0, BuildingBlock: QEWDON_clean_linker_0, # of connection points: 3
#     Node 8, Type 1, BuildingBlock: KUMBUR_clean_sbu_0, # of connection points: 6
#     Node 9, Type 1, BuildingBlock: KUMBUR_clean_sbu_0, # of connection points: 6
#     Node 10, Type 1, BuildingBlock: KUMBUR_clean_sbu_0, # of connection points: 6
#     Node 11, Type 1, BuildingBlock: KUMBUR_clean_sbu_0, # of connection points: 6
#     Edge 12, Type (0, 1), BuildingBlock: AJUNOK_clean_linker_0, # of connection points: 2
#     Edge 13, Type (0, 1), BuildingBlock: AJUNOK_clean_linker_0, # of connection points: 2
#     Edge 14, Type (0, 1), BuildingBlock: AJUNOK_clean_linker_0, # of connection points: 2
#     Edge 15, Type (0, 1), BuildingBlock: AJUNOK_clean_linker_0, # of connection points: 2
#     Edge 16, Type (0, 1), BuildingBlock: AJUNOK_clean_linker_0, # of connection points: 2
#     Edge 17, Type (0, 1), BuildingBlock: AJUNOK_clean_linker_0, # of connection points: 2
#     Edge 18, Type (0, 1), BuildingBlock: AJUNOK_clean_linker_0, # of connection points: 2
#     Edge 19, Type (0, 1), BuildingBlock: AJUNOK_clean_linker_0, # of connection points: 2
#     Edge 20, Type (0, 1), BuildingBlock: AJUNOK_clean_linker_0, # of connection points: 2
#     Edge 21, Type (0, 1), BuildingBlock: AJUNOK_clean_linker_0, # of connection points: 2
#     Edge 22, Type (0, 1), BuildingBlock: AJUNOK_clean_linker_0, # of connection points: 2
#     Edge 23, Type (0, 1), BuildingBlock: AJUNOK_clean_linker_0, # of connection points: 2
#     Edge 24, Type (0, 1), BuildingBlock: AJUNOK_clean_linker_0, # of connection points: 2
#     Edge 25, Type (0, 1), BuildingBlock: AJUNOK_clean_linker_0, # of connection points: 2
#     Edge 26, Type (0, 1), BuildingBlock: AJUNOK_clean_linker_0, # of connection points: 2
#     Edge 27, Type (0, 1), BuildingBlock: AJUNOK_clean_linker_0, # of connection points: 2
#     Edge 28, Type (0, 1), BuildingBlock: AJUNOK_clean_linker_0, # of connection points: 2
#     Edge 29, Type (0, 1), BuildingBlock: AJUNOK_clean_linker_0, # of connection points: 2
#     Edge 30, Type (0, 1), BuildingBlock: AJUNOK_clean_linker_0, # of connection points: 2
#     Edge 31, Type (0, 1), BuildingBlock: AJUNOK_clean_linker_0, # of connection points: 2
#     Edge 32, Type (0, 1), BuildingBlock: AJUNOK_clean_linker_0, # of connection points: 2
#     Edge 33, Type (0, 1), BuildingBlock: AJUNOK_clean_linker_0, # of connection points: 2
#     Edge 34, Type (0, 1), BuildingBlock: AJUNOK_clean_linker_0, # of connection points: 2
#     Edge 35, Type (0, 1), BuildingBlock: AJUNOK_clean_linker_0, # of connection points: 2
# Relax obj value: 0.154
# Max RMSD: 0.165
# Mean RMSD: 0.078
data_MOF--net-zzz--node1-KUMBUR_clean_sbu_0--node2-QEWDON_clean_linker_0--edge1-AJUNOK_clean_linker_0
_symmetry_space_group_name_H-M    P1
_symmetry_Int_Tables_number       1
_symmetry_cell_setting            triclinic
loop_
_symmetry_equiv_pos_as_xyz
'x, y, z'
_cell_length_a     40.155015
_cell_length_b     40.115458
_cell_length_c     10.944719
_cell_angle_alpha  91.965562
_cell_angle_beta   89.804986
_cell_angle_gamma 89.91566
loop_
_atom_site_label
_atom_site_type_symbol
_atom_site_fract_x
_atom_site_fract_y
_atom_site_fract_z
_atom_type_partial_charge
H0 H 0.77035 0.50113 0.16731 0.0
C1 C 0.78893 0.51144 0.22839 0.0
C2 C 0.81612 0.49104 0.25573 0.0
C3 C 0.78697 0.54497 0.27095 0.0
H4 H 0.86289 0.48798 0.35145 0.0
C5 C 0.84126 0.50333 0.33409 0.0
C6 C 0.84092 0.53582 0.38348 0.0
C7 C 0.81344 0.55674 0.35217 0.0
C8 C 0.7593 0.56749 0.2198 0.0
H9 H 0.81351 0.58196 0.38965 0.0
C10 C 0.73063 0.5554 0.15018 0.0
C11 C 0.70729 0.57764 0.09526 0.0
C12 C 0.76262 0.60235 0.23356 0.0
H13 H 0.78348 0.61369 0.28067 0.0
C14 C 0.73937 0.62398 0.185 0.0
H15 H 0.72613 0.52903 0.13702 0.0
C16 C 0.71222 0.61199 0.11821 0.0
H17 H 0.69445 0.63011 0.08715 0.0
H18 H 0.74245 0.65063 0.1995 0.0
H19 H 0.05986 0.78799 0.12685 0.0
C20 C 0.05687 0.80644 0.20062 0.0
C21 C 0.07257 0.83703 0.18926 0.0
C22 C 0.03566 0.80061 0.29976 0.0
H23 H 0.0784 0.88699 0.25735 0.0
C24 C 0.06759 0.8629 0.27593 0.0
C25 C 0.04967 0.85879 0.38456 0.0
C26 C 0.03243 0.82724 0.39427 0.0
C27 C 1.0144 0.76869 0.2898 0.0
H28 H 1.01699 0.82341 0.47375 0.0
C29 C 1.02431 0.73819 0.22267 0.0
C30 C 1.00086 0.71201 0.19165 0.0
C31 C 0.98132 0.77071 0.33062 0.0
H32 H 0.97227 0.79281 0.37967 0.0
C33 C 0.95854 0.74552 0.30128 0.0
H34 H 0.04975 0.73523 0.1912 0.0
C35 C 0.96787 0.71722 0.23153 0.0
H36 H 0.9488 0.69897 0.21014 0.0
H37 H 0.93293 0.74825 0.33127 0.0
H38 H 0.80058 0.98649 0.15352 0.0
C39 C 0.78123 0.99574 0.215 0.0
C40 C 0.74835 0.98951 0.18214 0.0
C41 C 0.78915 1.01691 0.31474 0.0
H42 H 0.69754 0.99159 0.24301 0.0
C43 C 0.72278 0.99772 0.26592 0.0
C44 C 0.72841 1.01717 0.37241 0.0
C45 C 0.76219 0.02767 0.39553 0.0
C46 C 0.82586 1.02617 0.32889 0.0
H47 H 0.76726 0.04406 0.47382 0.0
C48 C 0.84853 0.02789 0.22602 0.0
C49 C 0.88384 0.03018 0.24178 0.0
C50 C 0.83948 0.02924 0.44623 0.0
H51 H 0.82374 0.02783 0.5264 0.0
C52 C 0.87382 0.03217 0.46237 0.0
H53 H 0.83897 1.0265 0.13369 0.0
C54 C 0.89568 0.03206 0.36235 0.0
H55 H 0.92213 0.03372 0.37943 0.0
H56 H 0.88357 0.03371 0.55426 0.0
H57 H 0.50198 0.81046 0.16774 0.0
C58 C 0.51301 0.79008 0.21544 0.0
C59 C 0.49245 0.76317 0.24191 0.0
C60 C 0.54702 0.79029 0.24698 0.0
H61 H 0.48939 0.71488 0.32211 0.0
C62 C 0.50525 0.73613 0.30528 0.0
C63 C 0.53868 0.73458 0.33903 0.0
C64 C 0.55973 0.76175 0.3091 0.0
C65 C 0.56834 0.82043 0.21577 0.0
H66 H 0.58582 0.76002 0.33202 0.0
C67 C 0.55934 0.84385 0.12419 0.0
C68 C 0.57852 0.87316 0.10481 0.0
C69 C 0.59745 0.82717 0.2834 0.0
H70 H 0.60518 0.81137 0.35615 0.0
C71 C 0.61692 0.85509 0.26156 0.0
H72 H 0.53738 0.83995 0.06895 0.0
C73 C 0.60764 0.87772 0.17412 0.0
H74 H 0.62342 0.89916 0.16123 0.0
H75 H 0.63924 0.85959 0.31478 0.0
H76 H 0.29041 0.48254 0.33147 0.0
C77 C 0.27276 0.49221 0.26703 0.0
C78 C 0.24045 0.49779 0.30752 0.0
C79 C 0.28322 0.50225 0.15263 0.0
H80 H 0.19025 0.51095 0.25807 0.0
C81 C 0.2155 0.50703 0.22509 0.0
C82 C 0.22295 0.51279 0.10208 0.0
C83 C 0.25757 0.51142 0.06665 0.0
C84 C 0.32086 0.50245 0.1302 0.0
H85 H 0.26424 0.51809 0.97485 0.0
C86 C 0.34521 0.5051 0.22827 0.0
C87 C 0.38027 0.5013 0.20688 0.0
C88 C 0.33287 0.49797 0.01068 0.0
H89 H 0.31602 0.49565 0.93397 0.0
C90 C 0.36689 0.49549 0.98776 0.0
H91 H 0.33713 0.50991 0.32141 0.0
C92 C 0.38994 0.49674 0.08295 0.0
H93 H 0.41577 0.49571 0.05596 0.0
H94 H 0.37562 0.49245 0.89433 0.0
H95 H 1.00054 0.30617 0.31335 0.0
C96 C 1.00652 0.28792 0.24164 0.0
C97 C 0.99032 0.25761 0.24479 0.0
C98 C 0.03192 0.29341 0.1568 0.0
H99 H 0.98898 0.20727 0.18579 0.0
C100 C 0.99925 0.23126 0.16475 0.0
C101 C 1.02153 0.23458 0.06623 0.0
C102 C 0.03883 0.26653 0.06537 0.0
C103 C 0.05277 0.32532 0.18024 0.0
H104 H 0.0575 0.27051 0.99625 0.0
C105 C 0.041 0.35463 0.25071 0.0
C106 C 0.06318 0.38053 0.29529 0.0
C107 C 0.08663 0.32452 0.149 0.0
H108 H 0.09714 0.30346 0.09788 0.0
C109 C 0.1082 0.34975 0.18972 0.0
H110 H 1.01496 0.35692 0.27446 0.0
C111 C 0.09694 0.37667 0.26309 0.0
H112 H 0.1151 0.39513 0.29261 0.0
H113 H 0.13436 0.3481 0.16591 0.0
H114 H 0.28485 1.01848 0.21862 0.0
C115 C 0.3032 1.02553 0.15164 0.0
C116 C 0.3346 1.01163 0.16017 0.0
C117 C 0.29485 0.04639 0.05675 0.0
H118 H 0.38385 1.00746 0.08816 0.0
C119 C 0.35928 1.01784 0.07382 0.0
C120 C 0.35296 0.03644 0.97001 0.0
C121 C 0.32022 0.05159 0.96317 0.0
C122 C 0.25849 0.05849 0.05517 0.0
H123 H 0.31455 0.06658 0.88565 0.0
C124 C 0.2375 0.06084 0.16377 0.0
C125 C 0.20219 0.06649 0.15799 0.0
C126 C 0.24312 0.06375 0.9428 0.0
H127 H 0.25713 0.06163 0.85827 0.0
C128 C 0.20899 0.07002 0.93624 0.0
H129 H 0.2485 0.05846 0.253 0.0
C130 C 0.18889 0.07118 0.04103 0.0
H131 H 0.16245 0.07502 0.02943 0.0
H132 H 0.1978 0.07294 0.84759 0.0
H133 H 0.46535 0.28248 0.22343 0.0
C134 C 0.47591 0.30263 0.17329 0.0
C135 C 0.47056 0.33486 0.22106 0.0
C136 C 0.49985 0.29649 0.08161 0.0
H137 H 0.47392 0.38711 0.18308 0.0
C138 C 0.47906 0.36204 0.1492 0.0
C139 C 0.4975 0.35762 0.04036 0.0
C140 C 0.50987 0.32472 0.0113 0.0
C141 C 0.51544 0.26149 0.07113 0.0
H142 H 0.52718 0.3217 0.93599 0.0
C143 C 0.51197 0.23718 0.16516 0.0
C144 C 0.52756 0.2053 0.15595 0.0
C145 C 0.53549 0.25231 0.96979 0.0
H146 H 0.53907 0.26888 0.89517 0.0
C147 C 0.55164 0.2214 0.96237 0.0
H148 H 0.49851 0.24278 0.24875 0.0
C149 C 0.54749 0.19809 0.0531 0.0
H150 H 0.56012 0.17425 0.04308 0.0
H151 H 0.56738 0.21526 0.88426 0.0
Tb152 Tb 0.07203 0.04279 0.82187 0.0
C153 C 0.98672 0.98822 0.47196 0.0
C154 C 1.02316 0.96996 0.30548 0.0
C155 C 0.97363 0.93807 0.34797 0.0
C156 C 1.01491 0.99319 0.40172 0.0
C157 C 0.96547 0.9608 0.44363 0.0
C158 C 1.00267 0.94236 0.28031 0.0
C159 C 0.92883 0.98002 0.60462 0.0
N160 N 0.97971 1.01028 0.56612 0.0
C161 C 0.94987 1.00716 0.62735 0.0
C162 C 0.93671 0.95662 0.51291 0.0
Tb163 Tb 1.01636 0.05511 0.59089 0.0
N164 N 0.03357 1.02108 0.42421 0.0
C165 C 0.05743 0.02872 0.33938 0.0
C166 C 0.05139 0.97549 0.23476 0.0
C167 C 0.06841 1.00531 0.25119 0.0
H168 H 0.94036 1.02612 0.68974 0.0
H169 H 0.0888 1.01132 0.19121 0.0
H170 H 1.00878 0.92448 0.20711 0.0
H171 H 0.90577 0.97788 0.6553 0.0
H172 H 0.06733 0.05333 0.33219 0.0
H173 H 1.0033 0.07451 0.24026 0.0
H174 H 0.05897 0.95793 0.16248 0.0
H175 H 0.14274 0.07989 0.71111 0.0
H176 H 1.02573 0.03666 0.08558 0.0
H177 H 0.17425 0.12996 0.74917 0.0
H178 H 0.95777 0.91686 0.32637 0.0
H179 H 0.0283 0.13043 0.27338 0.0
H180 H 0.074 0.16953 0.2232 0.0
H181 H 0.92001 0.93588 0.49435 0.0
H182 H 0.12198 0.18323 0.09514 0.0
N183 N 0.05497 0.07337 0.99606 0.0
C184 C 0.03357 0.06221 0.08368 0.0
C185 C 0.03632 0.11452 0.19682 0.0
C186 C 0.06253 0.12374 0.12138 0.0
C187 C 1.02197 0.08333 0.17816 0.0
C188 C 0.07124 0.10258 0.01974 0.0
H189 H 0.15947 0.16858 0.92052 0.0
N190 N 0.10455 0.09072 0.84559 0.0
C191 C 0.15223 0.12541 0.8034 0.0
C192 C 0.09733 0.11103 0.94446 0.0
C193 C 0.13282 0.09713 0.77882 0.0
C194 C 0.14411 0.14687 0.90099 0.0
C195 C 0.11656 0.13983 0.97336 0.0
O196 O 0.11884 0.03687 0.90245 0.0
O197 O 0.03874 1.01486 0.69335 0.0
O198 O 0.98564 0.05316 0.75836 0.0
O199 O 1.02153 1.02582 0.88404 0.0
O200 O 0.08737 1.00023 0.70492 0.0
O201 O 0.07864 1.00423 0.94574 0.0
O202 O 0.97403 0.05964 0.4815 0.0
O203 O 0.04875 0.08288 0.72237 0.0
O204 O 0.10267 0.04352 0.65352 0.0
O205 O 0.06696 0.07119 0.52746 0.0
O206 O 0.99924 0.09592 0.71378 0.0
O207 O 1.00994 0.09877 0.48969 0.0
C208 C 0.05935 0.99197 0.65589 0.0
C209 C 0.13213 0.97999 0.91297 0.0
C210 C 0.13954 0.91982 0.89184 0.0
C211 C 0.12089 0.94767 0.93238 0.0
C212 C 0.17013 0.92428 0.83293 0.0
C213 C 0.16281 0.98426 0.85247 0.0
C214 C 0.18159 0.95651 0.81267 0.0
C215 C 0.99127 0.0377 0.86083 0.0
C216 C 0.11078 1.00879 0.94914 0.0
C217 C 0.10781 0.16085 0.07341 0.0
C218 C 0.08052 0.15308 0.14619 0.0
C219 C 0.02727 0.10471 0.76222 0.0
C220 C 0.95272 0.11395 0.50427 0.0
C221 C 0.95605 0.14798 0.48593 0.0
C222 C 0.93155 0.1706 0.5286 0.0
C223 C 0.90311 0.15908 0.58785 0.0
C224 C 0.92443 0.10268 0.56723 0.0
C225 C 0.89966 0.12506 0.60726 0.0
C226 C 0.0972 0.05924 0.55129 0.0
C227 C 0.97941 0.09073 0.46267 0.0
H228 H 0.09762 0.94407 0.98081 0.0
H229 H 0.18511 0.90297 0.80375 0.0
H230 H 0.1722 1.00892 0.8348 0.0
H231 H 0.20514 0.96004 0.76649 0.0
H232 H 0.9776 0.15693 0.43672 0.0
H233 H 0.88367 0.17626 0.61786 0.0
H234 H 0.92151 0.07666 0.58648 0.0
H235 H 0.87774 0.11599 0.65317 0.0
Tb236 Tb 0.54863 0.06513 0.75798 0.0
C237 C 0.58652 1.00822 0.33036 0.0
C238 C 0.58434 0.0561 0.20562 0.0
C239 C 0.63236 1.01968 0.19409 0.0
C240 C 0.56987 0.03496 0.29019 0.0
C241 C 0.61667 0.99809 0.27502 0.0
C242 C 0.6171 0.04999 0.1667 0.0
C243 C 0.61235 0.94732 0.38563 0.0
N244 N 0.57174 0.99091 0.41886 0.0
C245 C 0.58388 0.96009 0.44513 0.0
C246 C 0.62948 0.96685 0.30297 0.0
Tb247 Tb 0.5248 1.01401 0.51177 0.0
N248 N 0.53796 0.03814 0.32593 0.0
C249 C 0.51698 0.05593 0.2533 0.0
C250 C 0.56468 0.0814 0.15951 0.0
C251 C 0.53037 0.08003 0.17742 0.0
H252 H 0.57228 0.94524 0.51322 0.0
H253 H 0.5146 0.09861 0.13849 0.0
H254 H 0.62982 0.06727 0.10934 0.0
H255 H 0.62179 0.92296 0.40733 0.0
H256 H 0.49045 0.05604 0.27091 0.0
H257 H 0.46768 1.00304 0.0791 0.0
H258 H 0.57514 0.10078 0.10517 0.0
H259 H 0.55471 0.14787 0.70765 0.0
H260 H 0.51453 1.00788 0.94194 0.0
H261 H 0.52009 0.19774 0.73459 0.0
H262 H 0.6558 1.0134 0.15104 0.0
H263 H 0.43108 0.05144 0.12367 0.0
H264 H 0.41819 0.11154 0.09396 0.0
H265 H 0.6521 0.95734 0.26113 0.0
H266 H 0.43172 0.1642 0.99669 0.0
N267 N 0.50548 0.05863 0.89776 0.0
C268 C 0.49938 0.02948 0.95603 0.0
C269 C 0.45177 0.05375 0.06076 0.0
C270 C 0.45859 0.08389 0.0061 0.0
C271 C 0.47237 1.02645 0.03586 0.0
C272 C 0.48574 0.08547 0.92348 0.0
H273 H 0.46888 0.19624 0.85965 0.0
N274 N 0.52029 0.11537 0.79517 0.0
C275 C 0.51201 0.17453 0.77254 0.0
C276 C 0.49317 0.11477 0.869 0.0
C277 C 0.5312 0.14569 0.75521 0.0
C278 C 0.48314 0.17358 0.84281 0.0
C279 C 0.47396 0.14375 0.89541 0.0
O280 O 0.57818 0.10127 0.8512 0.0
O281 O 0.5689 0.03175 0.61125 0.0
O282 O 0.5369 0.98053 0.66476 0.0
O283 O 0.56082 1.01455 0.81598 0.0
O284 O 0.5876 0.07863 0.62656 0.0
O285 O 0.58217 0.04986 0.89201 0.0
O286 O 0.51527 0.96343 0.53006 0.0
O287 O 0.50697 0.0351 0.68684 0.0
O288 O 0.5452 0.09714 0.60097 0.0
O289 O 0.51048 0.06697 0.47548 0.0
O290 O 0.4742 0.03364 0.54606 0.0
O291 O 0.49096 0.98961 0.38994 0.0
C292 C 0.59245 0.0502 0.57179 0.0
C293 C 0.63226 0.07771 0.85218 0.0
C294 C 0.68259 0.0442 0.81806 0.0
C295 C 0.65138 0.0494 0.87369 0.0
C296 C 0.69435 0.0683 0.7378 0.0
C297 C 0.64523 0.10221 0.77663 0.0
C298 C 0.67601 0.0973 0.71912 0.0
C299 C 0.55212 0.98461 0.77198 0.0
C300 C 0.59721 0.07844 0.89393 0.0
C301 C 0.44671 0.14225 0.97561 0.0
C302 C 0.43911 0.11237 0.03133 0.0
C303 C 0.47671 0.0429 0.65966 0.0
C304 C 0.46323 0.94326 0.47918 0.0
C305 C 0.43173 0.95656 0.46018 0.0
C306 C 0.40313 0.93814 0.48687 0.0
C307 C 0.40598 0.90664 0.53706 0.0
C308 C 0.46603 0.91167 0.53032 0.0
C309 C 0.43752 0.89369 0.56064 0.0
C310 C 0.52577 0.09522 0.5056 0.0
C311 C 0.49343 0.96142 0.44471 0.0
H312 H 0.64161 0.03167 0.93613 0.0
H313 H 0.71795 0.06513 0.69076 0.0
H314 H 0.631 0.12438 0.75745 0.0
H315 H 0.68547 0.11579 0.65824 0.0
H316 H 0.42932 0.98049 0.4177 0.0
H317 H 0.38402 0.89186 0.55435 0.0
H318 H 0.49025 0.90072 0.54524 0.0
H319 H 0.43993 0.86928 0.59892 0.0
Tb320 Tb 0.56335 0.52473 0.58022 0.0
C321 C 0.44147 0.56722 0.89847 0.0
C322 C 0.40764 0.59761 0.75716 0.0
C323 C 0.38613 0.58662 0.95904 0.0
C324 C 0.43782 0.5816 0.78658 0.0
C325 C 0.4166 0.57187 0.98887 0.0
C326 C 0.38138 0.59881 0.84219 0.0
C327 C 0.45518 0.55057 0.13484 0.0
N328 N 0.47113 0.55285 0.92453 0.0
C329 C 0.47765 0.54311 0.04034 0.0
C330 C 0.42437 0.56462 0.10919 0.0
Tb331 Tb 0.51381 0.565 0.79708 0.0
N332 N 0.46484 0.58268 0.71173 0.0
C333 C 0.4631 0.60007 0.60611 0.0
C334 C 0.40544 0.61381 0.64658 0.0
C335 C 0.43336 0.61524 0.57122 0.0
H336 H 0.50196 0.53353 0.06289 0.0
H337 H 0.43203 0.62842 0.48698 0.0
H338 H 0.35805 0.61091 0.82108 0.0
H339 H 0.46251 0.54753 0.22817 0.0
H340 H 0.48424 0.60202 0.54643 0.0
H341 H 0.67566 0.48972 0.81788 0.0
H342 H 0.3827 0.62625 0.62052 0.0
H343 H 0.55949 0.5459 0.28223 0.0
H344 H 0.61564 0.48701 0.76814 0.0
H345 H 0.59186 0.58305 0.15272 0.0
H346 H 0.36656 0.58976 0.02691 0.0
H347 H 0.71235 0.52894 0.71108 0.0
H348 H 0.71919 0.57055 0.54469 0.0
H349 H 0.40712 0.5705 0.1832 0.0
H350 H 0.69527 0.59794 0.36729 0.0
N351 N 0.61838 0.52456 0.6357 0.0
C352 C 0.63156 0.50388 0.72002 0.0
C353 C 0.68617 0.52749 0.68785 0.0
C354 C 0.67303 0.54635 0.59413 0.0
C355 C 0.66555 0.5053 0.74821 0.0
C356 C 0.63887 0.54326 0.56704 0.0
H357 H 0.64689 0.60378 0.22141 0.0
N358 N 0.59449 0.54848 0.42927 0.0
C359 C 0.60191 0.57552 0.23917 0.0
C360 C 0.62625 0.55636 0.4617 0.0
C361 C 0.58358 0.5545 0.31325 0.0
C362 C 0.63297 0.58726 0.27844 0.0
C363 C 0.64646 0.57582 0.38697 0.0
O364 O 0.54316 0.48333 0.48812 0.0
O365 O 0.51079 0.53208 0.63122 0.0
O366 O 0.5024 0.51169 0.82019 0.0
O367 O 0.55219 0.49142 0.73799 0.0
O368 O 0.52325 0.53606 0.45281 0.0
O369 O 0.59484 0.48458 0.52161 0.0
O370 O 0.52862 0.5865 0.96564 0.0
O371 O 0.5655 0.55499 0.7471 0.0
O372 O 0.56354 0.5778 0.52474 0.0
O373 O 0.53178 0.60381 0.67627 0.0
O374 O 0.55203 0.54686 0.92331 0.0
O375 O 0.50433 0.61609 0.83119 0.0
C376 C 0.49762 0.53588 0.52456 0.0
C377 C 0.5666 0.43357 0.55127 0.0
C378 C 0.53025 0.38727 0.60326 0.0
C379 C 0.53659 0.41623 0.53847 0.0
C380 C 0.55523 0.37522 0.67997 0.0
C381 C 0.59141 0.42103 0.62746 0.0
C382 C 0.58567 0.39195 0.69121 0.0
C383 C 0.52423 0.48691 0.80247 0.0
C384 C 0.56999 0.46579 0.49099 0.0
C385 C 0.67954 0.58235 0.42154 0.0
C386 C 0.69307 0.56698 0.52337 0.0
C387 C 0.5773 0.54709 0.85073 0.0
C388 C 0.49108 0.62755 0.04043 0.0
C389 C 0.46591 0.65061 0.01395 0.0
C390 C 0.44661 0.66599 0.10849 0.0
C391 C 0.45018 0.65364 0.2276 0.0
C392 C 0.49521 0.61767 0.16097 0.0
C393 C 0.47411 0.62974 0.25261 0.0
C394 C 0.55003 0.605 0.57628 0.0
C395 C 0.51409 0.6147 0.94447 0.0
H396 H 0.5185 0.42502 0.47377 0.0
H397 H 0.55148 0.35256 0.72922 0.0
H398 H 0.61501 0.43375 0.63879 0.0
H399 H 0.60481 0.38244 0.75014 0.0
H400 H 0.46303 0.65804 0.92055 0.0
H401 H 0.43665 0.66392 0.3053 0.0
H402 H 0.51445 0.60007 0.18437 0.0
H403 H 0.47746 0.62161 0.34476 0.0
Tb404 Tb 0.04582 0.57424 0.65754 0.0
C405 C 0.06028 0.44824 0.91152 0.0
C406 C 0.04296 0.40459 0.76796 0.0
C407 C 0.08764 0.39423 0.91123 0.0
C408 C 0.04114 0.43791 0.81285 0.0
C409 C 0.0835 0.42652 0.96291 0.0
C410 C 0.06708 0.38312 0.81489 0.0
C411 C 0.09406 0.46894 0.12027 0.0
N412 N 0.05489 0.47936 0.96061 0.0
C413 C 0.07006 0.48927 0.06791 0.0
C414 C 0.10144 0.43783 0.06551 0.0
Tb415 Tb 1.01851 0.51228 0.8565 0.0
N416 N 1.0182 0.45947 0.77012 0.0
C417 C 0.99359 0.44797 0.69367 0.0
C418 C 1.0194 0.39345 0.68212 0.0
C419 C 0.99406 0.41499 0.64742 0.0
H420 H 0.06494 0.51358 0.10923 0.0
H421 H 0.97506 0.40635 0.58404 0.0
H422 H 0.06936 0.35762 0.77987 0.0
H423 H 0.10718 0.47746 0.20172 0.0
H424 H 0.97391 0.46425 0.66516 0.0
H425 H 0.07855 0.68403 0.93158 0.0
H426 H 1.0198 0.368 0.64566 0.0
H427 H 1.01594 0.57364 0.36762 0.0
H428 H 0.08274 0.62508 0.86262 0.0
H429 H 0.97553 0.60675 0.25539 0.0
H430 H 0.1058 0.37731 0.94774 0.0
H431 H 0.03571 0.72049 0.84383 0.0
H432 H 0.9901 0.72775 0.68934 0.0
H433 H 0.12081 0.42264 0.10366 0.0
H434 H 0.95994 0.70536 0.5092 0.0
N435 N 0.04251 0.62773 0.73691 0.0
C436 C 0.06412 0.64067 0.82245 0.0
C437 C 0.03769 0.69468 0.81201 0.0
C438 C 1.01725 0.68195 0.71835 0.0
C439 C 0.0619 0.67418 0.86171 0.0
C440 C 1.02116 0.64828 0.67952 0.0
H441 H 0.95319 0.65904 0.3487 0.0
N442 N 1.01476 0.60575 0.52799 0.0
C443 C 0.9838 0.6153 0.34512 0.0
C444 C 1.00611 0.63657 0.57313 0.0
C445 C 1.00666 0.59648 0.40984 0.0
C446 C 0.97153 0.64507 0.39735 0.0
C447 C 0.98434 0.65714 0.5089 0.0
O448 O 0.08797 0.55837 0.55668 0.0
O449 O 0.04181 0.52067 0.68267 0.0
O450 O 0.07359 0.51037 0.83909 0.0
O451 O 0.08308 0.56575 0.8077 0.0
O452 O 0.03709 0.53611 0.50922 0.0
O453 O 0.07933 0.61023 0.59354 0.0
O454 O 0.99886 0.49717 0.02473 0.0
O455 O 1.02149 0.56605 0.83215 0.0
O456 O 0.99163 0.57082 0.62236 0.0
O457 O 0.97686 0.52316 0.72621 0.0
O458 O 1.02435 0.5513 0.00547 0.0
O459 O 0.96756 0.5009 0.86578 0.0
C460 C 0.03636 0.50975 0.57345 0.0
C461 C 0.13395 0.59039 0.62139 0.0
C462 C 0.18396 0.56059 0.68108 0.0
C463 C 0.15551 0.56338 0.6078 0.0
C464 C 0.1914 0.58649 0.76626 0.0
C465 C 0.14233 0.61675 0.70356 0.0
C466 C 0.17084 0.61464 0.77598 0.0
C467 C 0.09387 0.53633 0.84498 0.0
C468 C 0.10118 0.58793 0.56123 0.0
C469 C 0.97721 0.68943 0.55556 0.0
C470 C 0.99422 0.7021 0.65866 0.0
C471 C 1.02483 0.57759 0.94166 0.0
C472 C 0.95608 0.45649 0.99363 0.0
C473 C 0.92155 0.453 1.00029 0.0
C474 C 0.90691 0.42177 0.0207 0.0
C475 C 0.92729 0.39356 0.02967 0.0
C476 C 0.97618 0.42807 0.00466 0.0
C477 C 0.96184 0.39673 0.02015 0.0
C478 C 0.96967 0.54761 0.65051 0.0
C479 C 0.96999 0.49011 0.97616 0.0
H480 H 0.1497 0.54434 0.53851 0.0
H481 H 0.21303 0.58515 0.82459 0.0
H482 H 0.12663 0.63859 0.71387 0.0
H483 H 0.17681 0.63469 0.84086 0.0
H484 H 0.90611 0.47518 0.99696 0.0
H485 H 0.91657 0.36951 0.04857 0.0
H486 H 1.00284 0.43011 0.0072 0.0
H487 H 0.97765 0.3751 0.03 0.0
C488 C 0.14984 0.08806 0.27377 0.0
C489 C 0.17808 0.06661 0.2686 0.0
C490 C 0.12479 0.08628 0.36561 0.0
C491 C 0.12599 0.06282 0.45907 0.0
H492 H 0.14672 0.10651 0.20488 0.0
H493 H 0.10386 0.10326 0.36183 0.0
S494 S 0.19492 1.00166 0.49527 0.0
N495 N 0.20563 1.0216 0.37163 0.0
N496 N 0.15949 1.01859 0.54302 0.0
C497 C 0.15468 0.04206 0.45829 0.0
C498 C 0.18025 0.04383 0.36425 0.0
C499 C 0.49616 0.16201 0.28024 0.0
C500 C 0.52566 0.17985 0.25537 0.0
C501 C 0.49582 0.13503 0.36176 0.0
C502 C 0.52493 0.12489 0.42305 0.0
H503 H 0.47342 0.16816 0.23308 0.0
H504 H 0.47276 0.12168 0.37525 0.0
S505 S 0.60847 0.16358 0.39065 0.0
N506 N 0.58448 0.1852 0.30015 0.0
N507 N 0.58392 0.13576 0.45226 0.0
C508 C 0.55422 0.14321 0.40067 0.0
C509 C 0.5546 0.17015 0.31719 0.0
C510 C 0.40465 0.52448 0.41482 0.0
C511 C 0.4074 0.50354 0.30804 0.0
C512 C 0.4323 0.53137 0.4945 0.0
C513 C 0.46522 0.51994 0.46891 0.0
H514 H 0.38121 0.53682 0.43547 0.0
H515 H 0.42739 0.54668 0.57423 0.0
S516 S 0.48452 0.45721 0.21762 0.0
N517 N 0.44428 0.46372 0.2036 0.0
N518 N 0.49614 0.48164 0.33327 0.0
C519 C 0.46713 0.4964 0.36847 0.0
C520 C 0.4386 0.48727 0.29366 0.0
C521 C 0.07529 0.42457 0.46805 0.0
C522 C 0.05328 0.41156 0.37611 0.0
C523 C 0.06944 0.45521 0.53464 0.0
C524 C 0.04107 0.47497 0.51417 0.0
H525 H 0.09776 0.411 0.48902 0.0
H526 H 0.08774 0.46381 0.60094 0.0
S527 S 0.97315 0.45226 0.29827 0.0
N528 N 0.99996 0.42119 0.27902 0.0
N529 N 0.98973 0.47838 0.40046 0.0
C530 C 1.01854 0.46227 0.42525 0.0
C531 C 1.02416 0.43076 0.35876 0.0
C532 C 0.93762 1.00931 0.13623 0.0
C533 C 0.90915 0.0303 0.13649 0.0
C534 C 0.96328 1.01105 0.04659 0.0
C535 C 0.96251 0.03443 0.95269 0.0
H536 H 0.94024 0.99131 0.20702 0.0
H537 H 0.98415 0.99405 0.05216 0.0
S538 S 0.89452 0.09655 0.91455 0.0
N539 N 0.88244 0.07565 0.03418 0.0
N540 N 0.93021 0.07971 0.86929 0.0
C541 C 0.93403 0.05549 0.9518 0.0
C542 C 0.9077 0.0533 0.0422 0.0
C543 C 0.57156 0.93418 0.05665 0.0
C544 C 0.56878 0.90034 0.01792 0.0
C545 C 0.56668 0.96058 0.97675 0.0
C546 C 0.5578 0.95499 0.85289 0.0
H547 H 0.57786 0.94046 0.15053 0.0
H548 H 0.56975 0.98577 0.01381 0.0
S549 S 0.54651 0.87103 0.7033 0.0
N550 N 0.55652 0.86281 0.84542 0.0
N551 N 0.54588 0.9121 0.69657 0.0
C552 C 0.55402 0.92122 0.81314 0.0
C553 C 0.55965 0.89414 0.89488 0.0
C554 C 0.65611 0.53998 0.05303 0.0
C555 C 0.67673 0.56669 0.0189 0.0
C556 C 0.62456 0.53383 0.99743 0.0
C557 C 0.61207 0.55341 0.90228 0.0
H558 H 0.6634 0.52484 0.12846 0.0
H559 H 0.60947 0.5137 0.03081 0.0
S560 S 0.65723 0.62356 0.76533 0.0
N561 N 0.68295 0.61049 0.87104 0.0
N562 N 0.624 0.59954 0.77245 0.0
C563 C 0.63289 0.57914 0.86338 0.0
C564 C 0.665 0.58541 0.91928 0.0
C565 C 0.03526 0.65781 0.1512 0.0
C566 C 1.00887 0.67918 0.11851 0.0
C567 C 0.03999 0.62545 0.09447 0.0
C568 C 1.01931 0.61273 0.99864 0.0
H569 H 0.05183 0.66564 0.22453 0.0
H570 H 0.06039 0.61026 0.12549 0.0
S571 S 0.94545 0.65687 0.88067 0.0
N572 N 0.96103 0.6836 0.98342 0.0
N573 N 0.96998 0.6238 0.88035 0.0
C574 C 0.99262 0.63347 0.96632 0.0
C575 C 0.98755 0.66621 0.02447 0.0
C576 C 0.97962 0.24499 0.45983 0.0
C577 C 0.96672 0.2507 0.3434 0.0
C578 C 0.96389 0.22249 0.53573 0.0
C579 C 0.93513 0.20547 0.49588 0.0
H580 H 1.00419 0.25401 0.48469 0.0
H581 H 0.97689 0.21469 0.61659 0.0
S582 S 0.88706 0.2198 0.21512 0.0
N583 N 0.92004 0.24412 0.20461 0.0
N584 N 0.89038 0.20162 0.34772 0.0
C585 C 0.91897 0.21578 0.39049 0.0
C586 C 0.93498 0.23856 0.31328 0.0
C587 C 0.34902 0.95573 0.23207 0.0
C588 C 0.3417 0.98933 0.2597 0.0
C589 C 0.36356 0.93594 0.31968 0.0
C590 C 0.37194 0.94977 0.43507 0.0
H591 H 0.34594 0.94556 0.13978 0.0
H592 H 0.37253 0.91136 0.29129 0.0
S593 S 0.35102 0.03424 0.55813 0.0
N594 N 0.33784 0.0338 0.41525 0.0
N595 N 0.3664 0.99667 0.57966 0.0
C596 C 0.3605 0.98184 0.46844 0.0
C597 C 0.34532 1.00186 0.37983 0.0
C598 C 0.49176 0.32003 0.4249 0.0
C599 C 0.4695 0.33945 0.35682 0.0
C600 C 0.50741 0.33351 0.52874 0.0
C601 C 0.50103 0.3666 0.56712 0.0
H602 H 0.50163 0.29663 0.38822 0.0
H603 H 0.52848 0.32003 0.56406 0.0
S604 S 0.42983 0.41798 0.46983 0.0
N605 N 0.43121 0.38649 0.36841 0.0
N606 N 0.45999 0.41129 0.56843 0.0
C607 C 0.47206 0.38177 0.52258 0.0
C608 C 0.45658 0.36846 0.41463 0.0
C609 C 0.20666 0.48841 0.49421 0.0
C610 C 0.23495 0.50198 0.44021 0.0
C611 C 0.19384 0.5029 0.6022 0.0
C612 C 0.20742 0.53297 0.65085 0.0
H613 H 0.19238 0.46923 0.446 0.0
H614 H 0.16936 0.49499 0.63023 0.0
S615 S 0.28993 0.56786 0.57502 0.0
N616 N 0.28308 0.53851 0.46888 0.0
N617 N 0.25744 0.5669 0.66745 0.0
C618 C 0.23981 0.54129 0.61519 0.0
C619 C 0.2536 0.52594 0.50782 0.0
C620 C 0.1272 0.85052 0.10041 0.0
C621 C 0.09316 0.84412 0.08224 0.0
C622 C 0.14451 0.87151 0.02303 0.0
C623 C 0.12794 0.88678 0.92701 0.0
H624 H 0.13935 0.84257 0.18277 0.0
H625 H 0.16948 0.87924 0.04829 0.0
S626 S 0.04118 0.87182 0.82684 0.0
N627 N 0.04528 0.84951 0.94998 0.0
N628 N 0.07783 0.88925 0.80417 0.0
C629 C 0.0954 0.87664 0.89792 0.0
C630 C 0.07787 0.85518 0.97627 0.0
C631 C 0.75619 1.00928 0.97296 0.0
C632 C 0.74034 0.9866 0.04979 0.0
C633 C 0.7385 1.02455 0.88101 0.0
C634 C 0.70466 1.01719 0.86198 0.0
H635 H 0.7803 1.01977 0.99585 0.0
H636 H 0.75029 0.04552 0.83897 0.0
S637 S 0.65991 0.9448 0.98855 0.0
N638 N 0.69538 0.94665 0.06429 0.0
N639 N 0.66125 0.9755 0.89219 0.0
C640 C 0.69186 0.98838 0.91652 0.0
C641 C 0.71016 0.97276 0.00988 0.0
C642 C 0.46311 0.74935 0.05284 0.0
C643 C 0.46046 0.75836 0.17771 0.0
C644 C 0.44714 0.72045 0.00773 0.0
C645 C 0.43076 0.69964 0.0906 0.0
H646 H 0.48223 0.76031 0.99681 0.0
H647 H 0.45415 0.71144 0.91706 0.0
S648 S 0.39353 0.73032 0.38256 0.0
N649 N 0.42361 0.75712 0.35405 0.0
N650 N 0.39231 0.7038 0.2635 0.0
C651 C 0.41679 0.71663 0.19332 0.0
C652 C 0.43321 0.7456 0.24132 0.0
C653 C 0.8399 0.43364 0.2434 0.0
C654 C 0.82282 0.45934 0.18502 0.0
C655 C 0.86453 0.41512 0.18065 0.0
C656 C 0.87154 0.42125 0.05765 0.0
H657 H 0.83845 0.43187 0.34186 0.0
H658 H 0.88144 0.40028 0.23344 0.0
S659 S 0.82091 0.47123 0.85017 0.0
N660 N 0.80558 0.48001 0.98773 0.0
N661 N 0.85072 0.44355 0.86965 0.0
C662 C 0.84841 0.43971 0.99226 0.0
C663 C 0.82404 0.45933 0.05632 0.0
C664 C 1.00011 0.17759 0.97737 0.0
C665 C 1.02496 0.20312 0.97619 0.0
C666 C 1.00294 0.14644 0.91401 0.0
C667 C 0.02974 0.13808 0.83596 0.0
H668 H 0.97688 0.18124 0.02578 0.0
H669 H 0.98295 0.12863 0.92485 0.0
S670 S 0.09483 0.19921 0.75066 0.0
N671 N 0.07426 0.21916 0.86211 0.0
N672 N 0.07698 0.16225 0.73179 0.0
C673 C 0.05268 0.16449 0.81805 0.0
C674 C 0.05082 0.19626 0.8892 0.0
C675 C 0.39289 0.0678 0.82363 0.0
C676 C 0.38171 0.03786 0.87525 0.0
C677 C 0.42328 0.06938 0.75468 0.0
C678 C 0.4452 0.04165 0.73899 0.0
H679 H 0.37867 0.09048 0.83968 0.0
H680 H 0.43031 0.09298 0.71705 0.0
S681 S 0.42466 0.95571 0.82758 0.0
N682 N 0.39294 0.97815 0.88058 0.0
N683 N 0.44998 0.98218 0.76234 0.0
C684 C 0.43312 1.01128 0.7817 0.0
C685 C 0.40185 1.00925 0.8474 0.0
C686 C 0.5375 0.40157 0.95526 0.0
C687 C 0.50496 0.38865 0.96764 0.0
C688 C 0.54362 0.43298 0.90191 0.0
C689 C 0.51755 0.45331 0.85911 0.0
H690 H 0.55842 0.38764 0.98938 0.0
H691 H 0.56908 0.44165 0.89598 0.0
S692 S 0.42776 0.43134 0.87001 0.0
N693 N 0.4464 0.39929 0.93153 0.0
N694 N 0.45769 0.45743 0.83378 0.0
C695 C 0.48498 0.44064 0.87154 0.0
C696 C 0.47881 0.40874 0.92473 0.0
C697 C 0.17545 0.55113 0.03323 0.0
C698 C 0.19358 0.52083 0.01833 0.0
C699 C 0.14426 0.55656 0.97433 0.0
C700 C 0.12875 0.53167 0.89955 0.0
H701 H 0.18513 0.57068 0.09374 0.0
H702 H 0.13168 0.58019 0.9909 0.0
S703 S 0.16415 0.44693 0.83609 0.0
N704 N 0.19239 0.46533 0.92449 0.0
N705 N 0.1344 0.47481 0.81813 0.0
C706 C 0.14648 0.50116 0.88532 0.0
C707 C 0.17847 0.49596 0.94309 0.0
C708 C 1.02381 0.90395 0.53978 0.0
C709 C 0.05153 0.88884 0.4785 0.0
C710 C 1.02595 0.93625 0.60187 0.0
C711 C 0.05508 0.95641 0.59769 0.0
H712 H 1.00003 0.89129 0.53713 0.0
H713 H 1.00433 0.94575 0.65092 0.0
S714 S 0.13725 0.9246 0.48564 0.0
N715 N 0.11151 0.89362 0.45333 0.0
N716 N 0.11401 0.95444 0.54862 0.0
C717 C 0.0834 0.93999 0.54707 0.0
C718 C 0.08191 0.90666 0.49277 0.0
C719 C 0.68002 0.05757 0.42013 0.0
C720 C 0.69712 0.02776 0.44533 0.0
C721 C 0.64681 0.06402 0.46163 0.0
C722 C 0.62811 0.04096 0.52949 0.0
H723 H 0.69189 0.07561 0.36295 0.0
H724 H 0.63527 0.08724 0.43715 0.0
S725 S 0.66132 0.95913 0.62283 0.0
N726 N 0.69213 0.97477 0.54292 0.0
N727 N 0.63146 0.98763 0.62745 0.0
C728 C 0.64542 1.01158 0.55946 0.0
C729 C 0.6791 1.0048 0.51527 0.0
C730 C 0.55321 0.67278 0.33249 0.0
C731 C 0.54993 0.70319 0.40079 0.0
C732 C 0.55512 0.64151 0.38931 0.0
C733 C 0.5532 0.63876 0.51741 0.0
H734 H 0.55252 0.67299 0.23358 0.0
H735 H 0.55585 0.61921 0.33165 0.0
S736 S 0.54484 0.7108 0.73912 0.0
N737 N 0.54528 0.72825 0.60457 0.0
N738 N 0.54886 0.67028 0.71075 0.0
C739 C 0.55077 0.66916 0.58673 0.0
C740 C 0.5491 0.70096 0.52888 0.0
C741 C 0.90319 0.54748 0.39408 0.0
C742 C 0.87207 0.54645 0.45533 0.0
C743 C 0.93404 0.54844 0.45738 0.0
C744 C 0.93594 0.54789 0.5862 0.0
H745 H 0.90376 0.54598 0.29507 0.0
H746 H 0.95675 0.54799 0.40398 0.0
S747 S 0.86251 0.54681 0.79323 0.0
N748 N 0.84579 0.54597 0.65525 0.0
N749 N 0.9033 0.5477 0.77298 0.0
C750 C 0.90514 0.54751 0.64913 0.0
C751 C 0.87357 0.54685 0.5845 0.0
loop_
_geom_bond_atom_site_label_1
_geom_bond_atom_site_label_2
_geom_bond_distance
_geom_bond_site_symmetry_2
_ccdc_geom_bond_type
H0 C1 0.949 . S
C1 H0 0.949 . S
C1 C2 1.395 . S
C1 C3 1.391 . S
C2 C1 1.395 . S
C2 C5 1.390 . S
C3 C1 1.391 . S
C3 C7 1.387 . S
C3 C8 1.491 . S
H4 C5 0.950 . S
C5 C2 1.390 . S
C5 H4 0.950 . S
C5 C6 1.378 . S
C6 C5 1.378 . S
C6 C7 1.409 . S
C7 C3 1.387 . S
C7 C6 1.409 . S
C7 H9 0.951 . S
C8 C3 1.491 . S
C8 C10 1.382 . S
C8 C12 1.404 . S
H9 C7 0.951 . S
C10 C8 1.382 . S
C10 C11 1.390 . S
C10 H15 0.949 . S
C11 C10 1.390 . S
C11 C16 1.399 . S
C12 C8 1.404 . S
C12 H13 0.950 . S
C12 C14 1.375 . S
H13 C12 0.950 . S
C14 C12 1.375 . S
C14 C16 1.382 . S
C14 H18 0.950 . S
H15 C10 0.949 . S
C16 C11 1.399 . S
C16 C14 1.382 . S
C16 H17 0.952 . S
H17 C16 0.952 . S
H18 C14 0.950 . S
H19 C20 0.949 . S
C20 H19 0.949 . S
C20 C21 1.395 . S
C20 C22 1.391 . S
C21 C20 1.395 . S
C21 C24 1.390 . S
C22 C20 1.391 . S
C22 C26 1.387 . S
C22 C27 1.491 . S
H23 C24 0.950 . S
C24 C21 1.390 . S
C24 H23 0.950 . S
C24 C25 1.378 . S
C25 C24 1.378 . S
C25 C26 1.409 . S
C26 C22 1.387 . S
C26 C25 1.409 . S
C26 H28 0.951 . S
C27 C22 1.491 . S
C27 C29 1.382 . S
C27 C31 1.404 . S
H28 C26 0.951 . S
C29 C27 1.382 . S
C29 C30 1.390 . S
C29 H34 0.949 . S
C30 C29 1.390 . S
C30 C35 1.399 . S
C31 C27 1.404 . S
C31 H32 0.950 . S
C31 C33 1.375 . S
H32 C31 0.950 . S
C33 C31 1.375 . S
C33 C35 1.382 . S
C33 H37 0.950 . S
H34 C29 0.949 . S
C35 C30 1.399 . S
C35 C33 1.382 . S
C35 H36 0.952 . S
H36 C35 0.952 . S
H37 C33 0.950 . S
H38 C39 0.949 . S
C39 H38 0.949 . S
C39 C40 1.395 . S
C39 C41 1.391 . S
C40 C39 1.395 . S
C40 C43 1.390 . S
C41 C39 1.391 . S
C41 C45 1.387 . S
C41 C46 1.491 . S
H42 C43 0.950 . S
C43 C40 1.390 . S
C43 H42 0.950 . S
C43 C44 1.378 . S
C44 C43 1.378 . S
C44 C45 1.409 . S
C45 C41 1.387 . S
C45 C44 1.409 . S
C45 H47 0.951 . S
C46 C41 1.491 . S
C46 C48 1.382 . S
C46 C50 1.404 . S
H47 C45 0.951 . S
C48 C46 1.382 . S
C48 C49 1.390 . S
C48 H53 0.949 . S
C49 C48 1.390 . S
C49 C54 1.399 . S
C50 C46 1.404 . S
C50 H51 0.950 . S
C50 C52 1.375 . S
H51 C50 0.950 . S
C52 C50 1.375 . S
C52 C54 1.382 . S
C52 H56 0.950 . S
H53 C48 0.949 . S
C54 C49 1.399 . S
C54 C52 1.382 . S
C54 H55 0.952 . S
H55 C54 0.952 . S
H56 C52 0.950 . S
H57 C58 0.949 . S
C58 H57 0.949 . S
C58 C59 1.395 . S
C58 C60 1.391 . S
C59 C58 1.395 . S
C59 C62 1.390 . S
C60 C58 1.391 . S
C60 C64 1.387 . S
C60 C65 1.491 . S
H61 C62 0.950 . S
C62 C59 1.390 . S
C62 H61 0.950 . S
C62 C63 1.378 . S
C63 C62 1.378 . S
C63 C64 1.409 . S
C64 C60 1.387 . S
C64 C63 1.409 . S
C64 H66 0.951 . S
C65 C60 1.491 . S
C65 C67 1.382 . S
C65 C69 1.404 . S
H66 C64 0.951 . S
C67 C65 1.382 . S
C67 C68 1.390 . S
C67 H72 0.949 . S
C68 C67 1.390 . S
C68 C73 1.399 . S
C69 C65 1.404 . S
C69 H70 0.950 . S
C69 C71 1.375 . S
H70 C69 0.950 . S
C71 C69 1.375 . S
C71 C73 1.382 . S
C71 H75 0.950 . S
H72 C67 0.949 . S
C73 C68 1.399 . S
C73 C71 1.382 . S
C73 H74 0.952 . S
H74 C73 0.952 . S
H75 C71 0.950 . S
H76 C77 0.949 . S
C77 H76 0.949 . S
C77 C78 1.395 . S
C77 C79 1.391 1_554 S
C78 C77 1.395 . S
C78 C81 1.390 1_554 S
C79 C77 1.391 1_556 S
C79 C83 1.387 . S
C79 C84 1.491 . S
H80 C81 0.950 . S
C81 C78 1.390 1_556 S
C81 H80 0.950 . S
C81 C82 1.378 . S
C82 C81 1.378 . S
C82 C83 1.409 . S
C83 C79 1.387 . S
C83 C82 1.409 . S
C83 H85 0.951 . S
C84 C79 1.491 . S
C84 C86 1.382 1_556 S
C84 C88 1.404 . S
H85 C83 0.951 . S
C86 C84 1.382 1_554 S
C86 C87 1.390 . S
C86 H91 0.949 . S
C87 C86 1.390 . S
C87 C92 1.399 1_554 S
C88 C84 1.404 . S
C88 H89 0.950 . S
C88 C90 1.375 . S
H89 C88 0.950 . S
C90 C88 1.375 . S
C90 C92 1.382 . S
C90 H94 0.950 . S
H91 C86 0.949 . S
C92 C87 1.399 1_556 S
C92 C90 1.382 . S
C92 H93 0.952 . S
H93 C92 0.952 . S
H94 C90 0.950 . S
H95 C96 0.949 . S
C96 H95 0.949 . S
C96 C97 1.395 . S
C96 C98 1.391 1_554 S
C97 C96 1.395 . S
C97 C100 1.390 1_554 S
C98 C96 1.391 1_556 S
C98 C102 1.387 . S
C98 C103 1.491 . S
H99 C100 0.950 . S
C100 C97 1.390 1_556 S
C100 H99 0.950 . S
C100 C101 1.378 . S
C101 C100 1.378 . S
C101 C102 1.409 . S
C102 C98 1.387 . S
C102 C101 1.409 . S
C102 H104 0.951 . S
C103 C98 1.491 . S
C103 C105 1.382 1_556 S
C103 C107 1.404 . S
H104 C102 0.951 . S
C105 C103 1.382 1_554 S
C105 C106 1.390 . S
C105 H110 0.949 . S
C106 C105 1.390 . S
C106 C111 1.399 1_554 S
C107 C103 1.404 . S
C107 H108 0.950 . S
C107 C109 1.375 . S
H108 C107 0.950 . S
C109 C107 1.375 . S
C109 C111 1.382 . S
C109 H113 0.950 1_455 S
H110 C105 0.949 . S
C111 C106 1.399 1_556 S
C111 C109 1.382 . S
C111 H112 0.952 . S
H112 C111 0.952 . S
H113 C109 0.950 1_655 S
H114 C115 0.949 . S
C115 H114 0.949 . S
C115 C116 1.395 . S
C115 C117 1.391 1_554 S
C116 C115 1.395 . S
C116 C119 1.390 1_554 S
C117 C115 1.391 1_556 S
C117 C121 1.387 . S
C117 C122 1.491 . S
H118 C119 0.950 . S
C119 C116 1.390 1_556 S
C119 H118 0.950 . S
C119 C120 1.378 . S
C120 C119 1.378 . S
C120 C121 1.409 . S
C121 C117 1.387 . S
C121 C120 1.409 . S
C121 H123 0.951 . S
C122 C117 1.491 . S
C122 C124 1.382 1_556 S
C122 C126 1.404 . S
H123 C121 0.951 . S
C124 C122 1.382 1_554 S
C124 C125 1.390 . S
C124 H129 0.949 . S
C125 C124 1.390 . S
C125 C130 1.399 1_554 S
C126 C122 1.404 . S
C126 H127 0.950 . S
C126 C128 1.375 . S
H127 C126 0.950 . S
C128 C126 1.375 . S
C128 C130 1.382 . S
C128 H132 0.950 1_545 S
H129 C124 0.949 . S
C130 C125 1.399 1_556 S
C130 C128 1.382 . S
C130 H131 0.952 . S
H131 C130 0.952 . S
H132 C128 0.950 1_565 S
H133 C134 0.949 . S
C134 H133 0.949 . S
C134 C135 1.395 . S
C134 C136 1.391 1_554 S
C135 C134 1.395 . S
C135 C138 1.390 1_554 S
C136 C134 1.391 1_556 S
C136 C140 1.387 . S
C136 C141 1.491 . S
H137 C138 0.950 . S
C138 C135 1.390 1_556 S
C138 H137 0.950 . S
C138 C139 1.378 . S
C139 C138 1.378 . S
C139 C140 1.409 . S
C140 C136 1.387 . S
C140 C139 1.409 . S
C140 H142 0.951 . S
C141 C136 1.491 . S
C141 C143 1.382 1_556 S
C141 C145 1.404 . S
H142 C140 0.951 . S
C143 C141 1.382 1_554 S
C143 C144 1.390 . S
C143 H148 0.949 . S
C144 C143 1.390 . S
C144 C149 1.399 1_554 S
C145 C141 1.404 . S
C145 H146 0.950 . S
C145 C147 1.375 . S
H146 C145 0.950 . S
C147 C145 1.375 . S
C147 C149 1.382 . S
C147 H151 0.950 . S
H148 C143 0.949 . S
C149 C144 1.399 1_556 S
C149 C147 1.382 . S
C149 H150 0.952 . S
H150 C149 0.952 . S
H151 C147 0.950 . S
Tb152 N183 2.660 1_566 S
Tb152 N190 2.600 1_565 S
Tb152 O196 2.546 . S
Tb152 O197 2.610 1_455 S
Tb152 O199 2.320 1_455 S
Tb152 O200 2.552 . S
Tb152 O201 2.413 . S
Tb152 O203 2.362 1_565 S
Tb152 O204 2.421 . S
Tb152 C216 2.833 . S
C153 C156 1.428 1_545 S
C153 C157 1.412 1_545 S
C153 N160 1.365 . S
C154 C156 1.417 . S
C154 C158 1.432 . S
C154 C166 1.410 . S
C155 C157 1.444 . S
C155 C158 1.317 . S
C155 H178 0.929 . S
C156 C153 1.428 1_565 S
C156 C154 1.417 . S
C156 N164 1.360 . S
C157 C153 1.412 1_565 S
C157 C155 1.444 . S
C157 C162 1.385 1_565 S
C158 C154 1.432 . S
C158 C155 1.317 . S
C158 H170 0.930 . S
C159 C161 1.392 . S
C159 C162 1.370 . S
C159 H171 0.931 . S
N160 C153 1.365 . S
N160 C161 1.327 . S
N160 Tb163 2.600 . S
C161 C159 1.392 . S
C161 N160 1.327 . S
C161 H168 0.930 . S
C162 C157 1.385 1_545 S
C162 C159 1.370 . S
C162 H181 0.930 . S
Tb163 N160 2.600 . S
Tb163 N164 2.660 1_545 S
Tb163 O197 2.362 1_545 S
Tb163 O198 2.421 . S
Tb163 O202 2.546 . S
Tb163 O203 2.610 1_655 S
Tb163 O205 2.320 1_655 S
Tb163 O206 2.552 1_655 S
Tb163 O207 2.413 . S
Tb163 C227 2.833 . S
N164 C156 1.360 . S
N164 Tb163 2.660 1_565 S
N164 C165 1.305 1_655 S
C165 N164 1.305 1_455 S
C165 C167 1.407 . S
C165 H172 0.930 . S
C166 C154 1.410 . S
C166 C167 1.345 1_655 S
C166 H174 0.930 . S
C167 C165 1.407 . S
C167 C166 1.345 1_455 S
C167 H169 0.930 . S
H168 C161 0.930 . S
H169 C167 0.930 . S
H170 C158 0.930 . S
H171 C159 0.931 . S
H172 C165 0.930 . S
H173 C187 0.930 1_655 S
H174 C166 0.930 . S
H175 C193 0.930 . S
H176 C184 0.930 1_655 S
H177 C191 0.931 . S
H178 C155 0.929 . S
H179 C185 0.930 . S
H180 C218 0.930 . S
H181 C162 0.930 . S
H182 C217 0.929 . S
N183 Tb152 2.660 1_544 S
N183 C184 1.305 . S
N183 C188 1.360 . S
C184 H176 0.930 1_455 S
C184 N183 1.305 . S
C184 C187 1.407 . S
C185 H179 0.930 . S
C185 C186 1.410 . S
C185 C187 1.345 . S
C186 C185 1.410 . S
C186 C188 1.417 . S
C186 C218 1.432 . S
C187 H173 0.930 1_455 S
C187 C184 1.407 . S
C187 C185 1.345 . S
C188 N183 1.360 . S
C188 C186 1.417 . S
C188 C192 1.432 . S
H189 C194 0.930 . S
N190 Tb152 2.600 1_545 S
N190 C192 1.359 1_556 S
N190 C193 1.327 1_545 S
C191 H177 0.931 . S
C191 C193 1.392 . S
C191 C194 1.370 1_566 S
C192 C188 1.432 . S
C192 N190 1.359 1_554 S
C192 C195 1.414 . S
C193 H175 0.930 . S
C193 N190 1.327 1_565 S
C193 C191 1.392 . S
C194 H189 0.930 . S
C194 C191 1.370 1_544 S
C194 C195 1.385 . S
C195 C192 1.414 . S
C195 C194 1.385 . S
C195 C217 1.444 . S
O196 Tb152 2.546 . S
O196 C216 1.251 . S
O197 Tb152 2.610 1_655 S
O197 Tb163 2.362 1_565 S
O197 C208 1.283 . S
O198 Tb163 2.421 . S
O198 C215 1.262 . S
O199 Tb152 2.320 1_655 S
O199 C215 1.260 1_565 S
O200 Tb152 2.552 . S
O200 C208 1.243 1_455 S
O201 Tb152 2.413 . S
O201 C216 1.256 . S
O202 Tb163 2.546 . S
O202 C227 1.251 . S
O203 Tb152 2.362 1_545 S
O203 Tb163 2.610 1_455 S
O203 C219 1.283 . S
O204 Tb152 2.421 . S
O204 C226 1.262 1_565 S
O205 Tb163 2.320 1_455 S
O205 C226 1.260 . S
O206 Tb163 2.552 1_455 S
O206 C219 1.243 . S
O207 Tb163 2.413 . S
O207 C227 1.256 . S
C208 O197 1.283 . S
C208 O200 1.243 1_655 S
C209 C211 1.382 . S
C209 C213 1.393 . S
C209 C216 1.500 1_554 S
C210 C211 1.400 . S
C210 C212 1.384 . S
C211 C209 1.382 . S
C211 C210 1.400 . S
C211 H228 0.930 . S
C212 C210 1.384 . S
C212 C214 1.392 . S
C212 H229 0.931 . S
C213 C209 1.393 . S
C213 C214 1.401 . S
C213 H230 0.930 . S
C214 C212 1.392 . S
C214 C213 1.401 . S
C214 H231 0.930 . S
C215 O198 1.262 . S
C215 O199 1.260 1_545 S
C216 Tb152 2.833 . S
C216 O196 1.251 . S
C216 O201 1.256 . S
C216 C209 1.500 1_556 S
C217 H182 0.929 . S
C217 C195 1.444 . S
C217 C218 1.317 . S
C218 H180 0.930 . S
C218 C186 1.432 . S
C218 C217 1.317 . S
C219 O203 1.283 . S
C219 O206 1.243 . S
C220 C221 1.382 . S
C220 C224 1.393 . S
C220 C227 1.500 . S
C221 C220 1.382 . S
C221 C222 1.400 . S
C221 H232 0.930 1_655 S
C222 C221 1.400 . S
C222 C223 1.384 . S
C223 C222 1.384 . S
C223 C225 1.392 . S
C223 H233 0.931 . S
C224 C220 1.393 . S
C224 C225 1.401 . S
C224 H234 0.930 . S
C225 C223 1.392 . S
C225 C224 1.401 . S
C225 H235 0.930 . S
C226 O204 1.262 1_545 S
C226 O205 1.260 . S
C227 Tb163 2.833 . S
C227 O202 1.251 . S
C227 O207 1.256 . S
C227 C220 1.500 . S
H228 C211 0.930 . S
H229 C212 0.931 . S
H230 C213 0.930 . S
H231 C214 0.930 . S
H232 C221 0.930 1_455 S
H233 C223 0.931 . S
H234 C224 0.930 . S
H235 C225 0.930 . S
Tb236 N267 2.660 1_556 S
Tb236 N274 2.600 . S
Tb236 O280 2.546 . S
Tb236 O281 2.610 1_545 S
Tb236 O283 2.320 1_545 S
Tb236 O284 2.552 . S
Tb236 O285 2.413 . S
Tb236 O287 2.362 . S
Tb236 O288 2.421 . S
Tb236 C300 2.833 . S
C237 C240 1.432 . S
C237 C241 1.414 . S
C237 N244 1.359 . S
C238 C240 1.417 . S
C238 C242 1.432 . S
C238 C250 1.410 . S
C239 C241 1.444 . S
C239 C242 1.317 . S
C239 H262 0.929 . S
C240 C237 1.432 . S
C240 C238 1.417 . S
C240 N248 1.360 . S
C241 C237 1.414 . S
C241 C239 1.444 . S
C241 C246 1.385 . S
C242 C238 1.432 . S
C242 C239 1.317 . S
C242 H254 0.930 . S
C243 C245 1.392 . S
C243 C246 1.370 . S
C243 H255 0.931 . S
N244 C237 1.359 . S
N244 C245 1.327 . S
N244 Tb247 2.600 . S
C245 C243 1.392 . S
C245 N244 1.327 . S
C245 H252 0.930 . S
C246 C241 1.385 . S
C246 C243 1.370 . S
C246 H265 0.930 . S
Tb247 N244 2.600 . S
Tb247 N248 2.660 . S
Tb247 O281 2.362 . S
Tb247 O282 2.421 . S
Tb247 O286 2.546 . S
Tb247 O287 2.610 1_565 S
Tb247 O289 2.320 1_565 S
Tb247 O290 2.552 1_565 S
Tb247 O291 2.413 . S
Tb247 C311 2.833 . S
N248 C240 1.360 . S
N248 Tb247 2.660 . S
N248 C249 1.305 1_565 S
C249 N248 1.305 1_545 S
C249 C251 1.407 . S
C249 H256 0.930 . S
C250 C238 1.410 . S
C250 C251 1.345 1_565 S
C250 H258 0.930 . S
C251 C249 1.407 . S
C251 C250 1.345 1_545 S
C251 H253 0.930 . S
H252 C245 0.930 . S
H253 C251 0.930 . S
H254 C242 0.930 . S
H255 C243 0.931 . S
H256 C249 0.930 . S
H257 C271 0.930 1_565 S
H258 C250 0.930 . S
H259 C277 0.930 . S
H260 C268 0.930 1_565 S
H261 C275 0.931 . S
H262 C239 0.929 . S
H263 C269 0.930 . S
H264 C302 0.930 . S
H265 C246 0.930 . S
H266 C301 0.929 . S
N267 Tb236 2.660 1_554 S
N267 C268 1.305 . S
N267 C272 1.360 . S
C268 H260 0.930 1_545 S
C268 N267 1.305 . S
C268 C271 1.407 . S
C269 H263 0.930 . S
C269 C270 1.410 . S
C269 C271 1.345 . S
C270 C269 1.410 . S
C270 C272 1.417 . S
C270 C302 1.432 . S
C271 H257 0.930 1_545 S
C271 C268 1.407 . S
C271 C269 1.345 . S
C272 N267 1.360 . S
C272 C270 1.417 . S
C272 C276 1.432 . S
H273 C278 0.930 . S
N274 Tb236 2.600 . S
N274 C276 1.359 1_556 S
N274 C277 1.327 . S
C275 H261 0.931 . S
C275 C277 1.392 . S
C275 C278 1.370 1_556 S
C276 C272 1.432 . S
C276 N274 1.359 1_554 S
C276 C279 1.414 . S
C277 H259 0.930 . S
C277 N274 1.327 . S
C277 C275 1.392 . S
C278 H273 0.930 . S
C278 C275 1.370 1_554 S
C278 C279 1.385 . S
C279 C276 1.414 . S
C279 C278 1.385 . S
C279 C301 1.444 . S
O280 Tb236 2.546 . S
O280 C300 1.251 . S
O281 Tb236 2.610 1_565 S
O281 Tb247 2.362 . S
O281 C292 1.283 . S
O282 Tb247 2.421 . S
O282 C299 1.262 . S
O283 Tb236 2.320 1_565 S
O283 C299 1.260 . S
O284 Tb236 2.552 . S
O284 C292 1.244 1_545 S
O285 Tb236 2.413 . S
O285 C300 1.256 . S
O286 Tb247 2.546 . S
O286 C311 1.251 . S
O287 Tb236 2.362 . S
O287 Tb247 2.610 1_545 S
O287 C303 1.283 . S
O288 Tb236 2.421 . S
O288 C310 1.262 . S
O289 Tb247 2.320 1_545 S
O289 C310 1.260 . S
O290 Tb247 2.552 1_545 S
O290 C303 1.243 . S
O291 Tb247 2.413 . S
O291 C311 1.256 . S
C292 O281 1.283 . S
C292 O284 1.244 1_565 S
C293 C295 1.382 . S
C293 C297 1.393 . S
C293 C300 1.500 1_554 S
C294 C295 1.400 . S
C294 C296 1.384 . S
C295 C293 1.382 . S
C295 C294 1.400 . S
C295 H312 0.930 . S
C296 C294 1.384 . S
C296 C298 1.392 . S
C296 H313 0.931 . S
C297 C293 1.393 . S
C297 C298 1.401 . S
C297 H314 0.930 . S
C298 C296 1.392 . S
C298 C297 1.401 . S
C298 H315 0.930 . S
C299 O282 1.262 . S
C299 O283 1.260 . S
C300 Tb236 2.833 . S
C300 O280 1.251 . S
C300 O285 1.256 . S
C300 C293 1.500 1_556 S
C301 H266 0.929 . S
C301 C279 1.444 . S
C301 C302 1.317 . S
C302 H264 0.930 . S
C302 C270 1.432 . S
C302 C301 1.317 . S
C303 O287 1.283 . S
C303 O290 1.243 . S
C304 C305 1.382 . S
C304 C308 1.393 . S
C304 C311 1.500 . S
C305 C304 1.382 . S
C305 C306 1.400 . S
C305 H316 0.930 1_565 S
C306 C305 1.400 . S
C306 C307 1.384 . S
C307 C306 1.384 . S
C307 C309 1.392 . S
C307 H317 0.931 . S
C308 C304 1.393 . S
C308 C309 1.401 . S
C308 H318 0.930 . S
C309 C307 1.392 . S
C309 C308 1.401 . S
C309 H319 0.930 . S
C310 O288 1.262 . S
C310 O289 1.260 . S
C311 Tb247 2.833 . S
C311 O286 1.251 . S
C311 O291 1.256 . S
C311 C304 1.500 . S
H312 C295 0.930 . S
H313 C296 0.931 . S
H314 C297 0.930 . S
H315 C298 0.930 . S
H316 C305 0.930 1_545 S
H317 C307 0.931 . S
H318 C308 0.930 . S
H319 C309 0.930 . S
Tb320 N351 2.660 . S
Tb320 N358 2.600 . S
Tb320 O364 2.546 . S
Tb320 O365 2.610 . S
Tb320 O367 2.320 . S
Tb320 O368 2.552 . S
Tb320 O369 2.413 . S
Tb320 O371 2.362 . S
Tb320 O372 2.421 . S
Tb320 C384 2.833 . S
C321 C324 1.432 . S
C321 C325 1.414 . S
C321 N328 1.359 . S
C322 C324 1.417 . S
C322 C326 1.432 . S
C322 C334 1.410 . S
C323 C325 1.444 . S
C323 C326 1.317 . S
C323 H346 0.929 . S
C324 C321 1.432 . S
C324 C322 1.417 . S
C324 N332 1.360 . S
C325 C321 1.414 . S
C325 C323 1.444 . S
C325 C330 1.385 1_556 S
C326 C322 1.432 . S
C326 C323 1.317 . S
C326 H338 0.930 . S
C327 C329 1.392 . S
C327 C330 1.370 . S
C327 H339 0.931 . S
N328 C321 1.359 . S
N328 C329 1.327 1_556 S
N328 Tb331 2.600 . S
C329 C327 1.392 . S
C329 N328 1.327 1_554 S
C329 H336 0.930 . S
C330 C325 1.385 1_554 S
C330 C327 1.370 . S
C330 H349 0.930 . S
Tb331 N328 2.600 . S
Tb331 N332 2.660 . S
Tb331 O365 2.362 . S
Tb331 O366 2.421 . S
Tb331 O370 2.546 1_556 S
Tb331 O371 2.610 . S
Tb331 O373 2.320 . S
Tb331 O374 2.552 . S
Tb331 O375 2.413 . S
Tb331 C395 2.833 1_556 S
N332 C324 1.360 . S
N332 Tb331 2.660 . S
N332 C333 1.305 . S
C333 N332 1.305 . S
C333 C335 1.407 . S
C333 H340 0.930 . S
C334 C322 1.410 . S
C334 C335 1.345 . S
C334 H342 0.930 . S
C335 C333 1.407 . S
C335 C334 1.345 . S
C335 H337 0.930 . S
H336 C329 0.930 . S
H337 C335 0.930 . S
H338 C326 0.930 . S
H339 C327 0.931 . S
H340 C333 0.930 . S
H341 C355 0.930 . S
H342 C334 0.930 . S
H343 C361 0.930 . S
H344 C352 0.930 . S
H345 C359 0.931 . S
H346 C323 0.929 . S
H347 C353 0.930 . S
H348 C386 0.930 . S
H349 C330 0.930 . S
H350 C385 0.929 . S
N351 Tb320 2.660 . S
N351 C352 1.305 . S
N351 C356 1.360 . S
C352 H344 0.930 . S
C352 N351 1.305 . S
C352 C355 1.407 . S
C353 H347 0.930 . S
C353 C354 1.410 . S
C353 C355 1.345 . S
C354 C353 1.410 . S
C354 C356 1.417 . S
C354 C386 1.432 . S
C355 H341 0.930 . S
C355 C352 1.407 . S
C355 C353 1.345 . S
C356 N351 1.360 . S
C356 C354 1.417 . S
C356 C360 1.432 . S
H357 C362 0.930 . S
N358 Tb320 2.600 . S
N358 C360 1.359 . S
N358 C361 1.327 . S
C359 H345 0.931 . S
C359 C361 1.392 . S
C359 C362 1.370 . S
C360 C356 1.432 . S
C360 N358 1.359 . S
C360 C363 1.414 . S
C361 H343 0.930 . S
C361 N358 1.327 . S
C361 C359 1.392 . S
C362 H357 0.930 . S
C362 C359 1.370 . S
C362 C363 1.385 . S
C363 C360 1.414 . S
C363 C362 1.385 . S
C363 C385 1.444 . S
O364 Tb320 2.546 . S
O364 C384 1.251 . S
O365 Tb320 2.610 . S
O365 Tb331 2.362 . S
O365 C376 1.283 . S
O366 Tb331 2.421 . S
O366 C383 1.262 . S
O367 Tb320 2.320 . S
O367 C383 1.260 . S
O368 Tb320 2.552 . S
O368 C376 1.243 . S
O369 Tb320 2.413 . S
O369 C384 1.256 . S
O370 Tb331 2.546 1_554 S
O370 C395 1.251 . S
O371 Tb320 2.362 . S
O371 Tb331 2.610 . S
O371 C387 1.283 . S
O372 Tb320 2.421 . S
O372 C394 1.262 . S
O373 Tb331 2.320 . S
O373 C394 1.260 . S
O374 Tb331 2.552 . S
O374 C387 1.243 . S
O375 Tb331 2.413 . S
O375 C395 1.256 1_556 S
C376 O365 1.283 . S
C376 O368 1.243 . S
C377 C379 1.382 . S
C377 C381 1.393 . S
C377 C384 1.500 . S
C378 C379 1.400 . S
C378 C380 1.384 . S
C379 C377 1.382 . S
C379 C378 1.400 . S
C379 H396 0.930 . S
C380 C378 1.384 . S
C380 C382 1.392 . S
C380 H397 0.931 . S
C381 C377 1.393 . S
C381 C382 1.401 . S
C381 H398 0.930 . S
C382 C380 1.392 . S
C382 C381 1.401 . S
C382 H399 0.930 1_554 S
C383 O366 1.262 . S
C383 O367 1.260 . S
C384 Tb320 2.833 . S
C384 O364 1.251 . S
C384 O369 1.256 . S
C384 C377 1.500 . S
C385 H350 0.929 . S
C385 C363 1.444 . S
C385 C386 1.317 . S
C386 H348 0.930 . S
C386 C354 1.432 . S
C386 C385 1.317 . S
C387 O371 1.283 . S
C387 O374 1.243 . S
C388 C389 1.382 . S
C388 C392 1.393 . S
C388 C395 1.500 . S
C389 C388 1.382 . S
C389 C390 1.400 . S
C389 H400 0.930 . S
C390 C389 1.400 . S
C390 C391 1.384 . S
C391 C390 1.384 . S
C391 C393 1.392 . S
C391 H401 0.931 . S
C392 C388 1.393 . S
C392 C393 1.401 . S
C392 H402 0.930 . S
C393 C391 1.392 . S
C393 C392 1.401 . S
C393 H403 0.930 . S
C394 O372 1.262 . S
C394 O373 1.260 . S
C395 Tb331 2.833 1_554 S
C395 O370 1.251 . S
C395 O375 1.256 1_554 S
C395 C388 1.500 . S
H396 C379 0.930 . S
H397 C380 0.931 . S
H398 C381 0.930 . S
H399 C382 0.930 1_556 S
H400 C389 0.930 . S
H401 C391 0.931 . S
H402 C392 0.930 . S
H403 C393 0.930 . S
Tb404 N435 2.660 . S
Tb404 N442 2.600 . S
Tb404 O448 2.546 . S
Tb404 O449 2.610 . S
Tb404 O451 2.320 . S
Tb404 O452 2.552 . S
Tb404 O453 2.413 . S
Tb404 O455 2.362 . S
Tb404 O456 2.421 1_455 S
Tb404 C468 2.833 . S
C405 C408 1.432 . S
C405 C409 1.414 . S
C405 N412 1.356 1_655 S
C406 C408 1.417 . S
C406 C410 1.432 . S
C406 C418 1.410 . S
C407 C409 1.444 . S
C407 C410 1.317 . S
C407 H430 0.929 . S
C408 C405 1.432 . S
C408 C406 1.417 . S
C408 N416 1.360 . S
C409 C405 1.414 . S
C409 C407 1.444 . S
C409 C414 1.385 1_656 S
C410 C406 1.432 . S
C410 C407 1.317 . S
C410 H422 0.930 . S
C411 C413 1.392 . S
C411 C414 1.370 . S
C411 H423 0.931 . S
N412 C405 1.356 1_455 S
N412 C413 1.331 1_556 S
N412 Tb415 2.599 1_455 S
C413 C411 1.392 . S
C413 N412 1.331 1_554 S
C413 H420 0.930 . S
C414 C409 1.385 1_454 S
C414 C411 1.370 . S
C414 H433 0.930 . S
Tb415 N412 2.599 1_655 S
Tb415 N416 2.660 . S
Tb415 O449 2.362 1_655 S
Tb415 O450 2.421 1_655 S
Tb415 O454 2.546 1_556 S
Tb415 O455 2.610 1_655 S
Tb415 O457 2.320 . S
Tb415 O458 2.552 . S
Tb415 O459 2.413 . S
Tb415 C479 2.833 1_556 S
N416 C408 1.360 . S
N416 Tb415 2.660 . S
N416 C417 1.305 . S
C417 N416 1.305 . S
C417 C419 1.407 . S
C417 H424 0.930 . S
C418 C406 1.410 . S
C418 C419 1.345 . S
C418 H426 0.930 . S
C419 C417 1.407 . S
C419 C418 1.345 . S
C419 H421 0.930 . S
H420 C413 0.930 . S
H421 C419 0.930 . S
H422 C410 0.930 . S
H423 C411 0.931 . S
H424 C417 0.930 . S
H425 C439 0.930 . S
H426 C418 0.930 . S
H427 C445 0.930 . S
H428 C436 0.930 . S
H429 C443 0.931 . S
H430 C407 0.929 . S
H431 C437 0.930 . S
H432 C470 0.930 . S
H433 C414 0.930 . S
H434 C469 0.929 . S
N435 Tb404 2.660 . S
N435 C436 1.305 . S
N435 C440 1.360 . S
C436 H428 0.930 . S
C436 N435 1.305 . S
C436 C439 1.407 . S
C437 H431 0.930 . S
C437 C438 1.410 . S
C437 C439 1.345 . S
C438 C437 1.410 . S
C438 C440 1.417 . S
C438 C470 1.432 . S
C439 H425 0.930 . S
C439 C436 1.407 . S
C439 C437 1.345 . S
C440 N435 1.360 . S
C440 C438 1.417 . S
C440 C444 1.432 . S
H441 C446 0.930 . S
N442 Tb404 2.600 . S
N442 C444 1.359 . S
N442 C445 1.327 1_455 S
C443 H429 0.931 . S
C443 C445 1.392 . S
C443 C446 1.370 1_655 S
C444 C440 1.432 . S
C444 N442 1.359 . S
C444 C447 1.414 . S
C445 H427 0.930 . S
C445 N442 1.327 1_655 S
C445 C443 1.392 . S
C446 H441 0.930 . S
C446 C443 1.370 1_455 S
C446 C447 1.385 . S
C447 C444 1.414 . S
C447 C446 1.385 . S
C447 C469 1.444 . S
O448 Tb404 2.546 . S
O448 C468 1.251 . S
O449 Tb404 2.610 . S
O449 Tb415 2.362 1_455 S
O449 C460 1.283 . S
O450 Tb415 2.421 1_455 S
O450 C467 1.262 . S
O451 Tb404 2.320 . S
O451 C467 1.260 . S
O452 Tb404 2.552 . S
O452 C460 1.243 . S
O453 Tb404 2.413 . S
O453 C468 1.256 . S
O454 Tb415 2.546 1_554 S
O454 C479 1.251 . S
O455 Tb404 2.362 . S
O455 Tb415 2.610 1_455 S
O455 C471 1.283 1_455 S
O456 Tb404 2.421 1_655 S
O456 C478 1.262 . S
O457 Tb415 2.320 . S
O457 C478 1.260 . S
O458 Tb415 2.552 . S
O458 C471 1.243 . S
O459 Tb415 2.413 . S
O459 C479 1.256 1_556 S
C460 O449 1.283 . S
C460 O452 1.243 . S
C461 C463 1.382 . S
C461 C465 1.393 . S
C461 C468 1.500 . S
C462 C463 1.400 . S
C462 C464 1.384 . S
C463 C461 1.382 . S
C463 C462 1.400 . S
C463 H480 0.930 . S
C464 C462 1.384 . S
C464 C466 1.392 . S
C464 H481 0.931 . S
C465 C461 1.393 . S
C465 C466 1.401 . S
C465 H482 0.930 . S
C466 C464 1.392 . S
C466 C465 1.401 . S
C466 H483 0.930 1_554 S
C467 O450 1.262 . S
C467 O451 1.260 . S
C468 Tb404 2.833 . S
C468 O448 1.251 . S
C468 O453 1.256 . S
C468 C461 1.500 . S
C469 H434 0.929 . S
C469 C447 1.444 . S
C469 C470 1.317 . S
C470 H432 0.930 . S
C470 C438 1.432 . S
C470 C469 1.317 . S
C471 O455 1.283 1_655 S
C471 O458 1.243 . S
C472 C473 1.382 . S
C472 C476 1.393 . S
C472 C479 1.500 . S
C473 C472 1.382 . S
C473 C474 1.400 . S
C473 H484 0.930 . S
C474 C473 1.400 . S
C474 C475 1.384 . S
C475 C474 1.384 . S
C475 C477 1.392 . S
C475 H485 0.931 . S
C476 C472 1.393 . S
C476 C477 1.401 . S
C476 H486 0.930 . S
C477 C475 1.392 . S
C477 C476 1.401 . S
C477 H487 0.930 . S
C478 O456 1.262 . S
C478 O457 1.260 . S
C479 Tb415 2.833 1_554 S
C479 O454 1.251 . S
C479 O459 1.256 1_554 S
C479 C472 1.500 . S
H480 C463 0.930 . S
H481 C464 0.931 . S
H482 C465 0.930 . S
H483 C466 0.930 1_556 S
H484 C473 0.930 . S
H485 C475 0.931 . S
H486 C476 0.930 . S
H487 C477 0.930 . S
C488 C489 1.369 . S
C488 C490 1.419 . S
C488 H492 0.930 . S
C489 C488 1.369 . S
C489 C498 1.429 . S
C490 C488 1.419 . S
C490 C491 1.363 . S
C490 H493 0.929 . S
C491 C490 1.363 . S
C491 C497 1.428 . S
H492 C488 0.930 . S
H493 C490 0.929 . S
S494 N495 1.613 . S
S494 N496 1.610 . S
N495 S494 1.613 . S
N495 C498 1.350 1_565 S
N496 S494 1.610 . S
N496 C497 1.351 1_565 S
C497 C491 1.428 . S
C497 N496 1.351 1_545 S
C497 C498 1.434 . S
C498 C489 1.429 . S
C498 N495 1.350 1_545 S
C498 C497 1.434 . S
C499 C500 1.369 . S
C499 C501 1.419 . S
C499 H503 0.930 . S
C500 C499 1.369 . S
C500 C509 1.429 . S
C501 C499 1.419 . S
C501 C502 1.363 . S
C501 H504 0.929 . S
C502 C501 1.363 . S
C502 C508 1.428 . S
H503 C499 0.930 . S
H504 C501 0.929 . S
S505 N506 1.613 . S
S505 N507 1.610 . S
N506 S505 1.613 . S
N506 C509 1.350 . S
N507 S505 1.610 . S
N507 C508 1.351 . S
C508 C502 1.428 . S
C508 N507 1.351 . S
C508 C509 1.434 . S
C509 C500 1.429 . S
C509 N506 1.350 . S
C509 C508 1.434 . S
C510 C511 1.369 . S
C510 C512 1.419 . S
C510 H514 0.930 . S
C511 C510 1.369 . S
C511 C520 1.429 . S
C512 C510 1.419 . S
C512 C513 1.363 . S
C512 H515 0.929 . S
C513 C512 1.363 . S
C513 C519 1.428 . S
H514 C510 0.930 . S
H515 C512 0.929 . S
S516 N517 1.613 . S
S516 N518 1.610 . S
N517 S516 1.613 . S
N517 C520 1.350 . S
N518 S516 1.610 . S
N518 C519 1.351 . S
C519 C513 1.428 . S
C519 N518 1.351 . S
C519 C520 1.434 . S
C520 C511 1.429 . S
C520 N517 1.350 . S
C520 C519 1.434 . S
C521 C522 1.369 . S
C521 C523 1.419 . S
C521 H525 0.930 . S
C522 C521 1.369 . S
C522 C531 1.429 . S
C523 C521 1.419 . S
C523 C524 1.363 . S
C523 H526 0.929 . S
C524 C523 1.363 . S
C524 C530 1.428 . S
H525 C521 0.930 . S
H526 C523 0.929 . S
S527 N528 1.613 . S
S527 N529 1.610 . S
N528 S527 1.613 . S
N528 C531 1.350 . S
N529 S527 1.610 . S
N529 C530 1.351 . S
C530 C524 1.428 . S
C530 N529 1.351 . S
C530 C531 1.434 . S
C531 C522 1.429 . S
C531 N528 1.350 . S
C531 C530 1.434 . S
C532 C533 1.369 . S
C532 C534 1.419 1_554 S
C532 H536 0.930 . S
C533 C532 1.369 . S
C533 C542 1.429 1_565 S
C534 C532 1.419 1_556 S
C534 C535 1.363 . S
C534 H537 0.929 . S
C535 C534 1.363 . S
C535 C541 1.428 1_566 S
H536 C532 0.930 . S
H537 C534 0.929 . S
S538 N539 1.613 . S
S538 N540 1.610 . S
N539 S538 1.613 . S
N539 C542 1.350 . S
N540 S538 1.610 . S
N540 C541 1.351 . S
C541 C535 1.428 1_544 S
C541 N540 1.351 . S
C541 C542 1.434 . S
C542 C533 1.429 1_545 S
C542 N539 1.350 . S
C542 C541 1.434 . S
C543 C544 1.369 . S
C543 C545 1.419 . S
C543 H547 0.930 . S
C544 C543 1.369 . S
C544 C553 1.429 . S
C545 C543 1.419 . S
C545 C546 1.363 1_554 S
C545 H548 0.929 . S
C546 C545 1.363 1_556 S
C546 C552 1.428 . S
H547 C543 0.930 . S
H548 C545 0.929 . S
S549 N550 1.613 1_556 S
S549 N551 1.610 . S
N550 S549 1.613 1_554 S
N550 C553 1.350 . S
N551 S549 1.610 . S
N551 C552 1.351 . S
C552 C546 1.428 . S
C552 N551 1.351 . S
C552 C553 1.434 1_556 S
C553 C544 1.429 . S
C553 N550 1.350 . S
C553 C552 1.434 1_554 S
C554 C555 1.369 . S
C554 C556 1.419 . S
C554 H558 0.930 . S
C555 C554 1.369 . S
C555 C564 1.429 . S
C556 C554 1.419 . S
C556 C557 1.363 1_554 S
C556 H559 0.929 . S
C557 C556 1.363 1_556 S
C557 C563 1.428 . S
H558 C554 0.930 . S
H559 C556 0.929 . S
S560 N561 1.613 1_556 S
S560 N562 1.610 . S
N561 S560 1.613 1_554 S
N561 C564 1.350 . S
N562 S560 1.610 . S
N562 C563 1.351 . S
C563 C557 1.428 . S
C563 N562 1.351 . S
C563 C564 1.434 1_556 S
C564 C555 1.429 . S
C564 N561 1.350 . S
C564 C563 1.434 1_554 S
C565 C566 1.369 . S
C565 C567 1.419 1_554 S
C565 H569 0.930 1_655 S
C566 C565 1.369 . S
C566 C575 1.429 . S
C567 C565 1.419 1_556 S
C567 C568 1.363 . S
C567 H570 0.929 1_655 S
C568 C567 1.363 . S
C568 C574 1.428 1_556 S
H569 C565 0.930 1_455 S
H570 C567 0.929 1_455 S
S571 N572 1.613 . S
S571 N573 1.610 . S
N572 S571 1.613 . S
N572 C575 1.350 . S
N573 S571 1.610 . S
N573 C574 1.351 . S
C574 C568 1.428 1_554 S
C574 N573 1.351 . S
C574 C575 1.434 . S
C575 C566 1.429 . S
C575 N572 1.350 . S
C575 C574 1.434 . S
C576 C577 1.369 . S
C576 C578 1.419 . S
C576 H580 0.930 . S
C577 C576 1.369 . S
C577 C586 1.429 . S
C578 C576 1.419 . S
C578 C579 1.363 . S
C578 H581 0.929 . S
C579 C578 1.363 . S
C579 C585 1.428 . S
H580 C576 0.930 . S
H581 C578 0.929 . S
S582 N583 1.613 1_655 S
S582 N584 1.610 . S
N583 S582 1.613 1_455 S
N583 C586 1.350 1_556 S
N584 S582 1.610 . S
N584 C585 1.351 1_656 S
C585 C579 1.428 . S
C585 N584 1.351 1_454 S
C585 C586 1.434 . S
C586 C577 1.429 . S
C586 N583 1.350 1_554 S
C586 C585 1.434 . S
C587 C588 1.369 . S
C587 C589 1.419 . S
C587 H591 0.930 1_554 S
C588 C587 1.369 . S
C588 C597 1.429 . S
C589 C587 1.419 . S
C589 C590 1.363 . S
C589 H592 0.929 1_545 S
C590 C589 1.363 . S
C590 C596 1.428 . S
H591 C587 0.930 1_556 S
H592 C589 0.929 1_565 S
S593 N594 1.613 . S
S593 N595 1.610 . S
N594 S593 1.613 . S
N594 C597 1.350 . S
N595 S593 1.610 . S
N595 C596 1.351 . S
C596 C590 1.428 . S
C596 N595 1.351 . S
C596 C597 1.434 . S
C597 C588 1.429 . S
C597 N594 1.350 . S
C597 C596 1.434 . S
C598 C599 1.369 . S
C598 C600 1.419 . S
C598 H602 0.930 . S
C599 C598 1.369 . S
C599 C608 1.429 . S
C600 C598 1.419 . S
C600 C601 1.363 . S
C600 H603 0.929 . S
C601 C600 1.363 . S
C601 C607 1.428 . S
H602 C598 0.930 . S
H603 C600 0.929 . S
S604 N605 1.613 . S
S604 N606 1.610 . S
N605 S604 1.613 . S
N605 C608 1.350 . S
N606 S604 1.610 . S
N606 C607 1.351 . S
C607 C601 1.428 . S
C607 N606 1.351 . S
C607 C608 1.434 . S
C608 C599 1.429 . S
C608 N605 1.350 . S
C608 C607 1.434 . S
C609 C610 1.369 . S
C609 C611 1.419 . S
C609 H613 0.930 . S
C610 C609 1.369 . S
C610 C619 1.429 . S
C611 C609 1.419 . S
C611 C612 1.363 . S
C611 H614 0.929 . S
C612 C611 1.363 . S
C612 C618 1.428 . S
H613 C609 0.930 . S
H614 C611 0.929 . S
S615 N616 1.613 . S
S615 N617 1.610 . S
N616 S615 1.613 . S
N616 C619 1.350 . S
N617 S615 1.610 . S
N617 C618 1.351 . S
C618 C612 1.428 . S
C618 N617 1.351 . S
C618 C619 1.434 . S
C619 C610 1.429 . S
C619 N616 1.350 . S
C619 C618 1.434 . S
C620 C621 1.369 . S
C620 C622 1.426 . S
C620 H624 0.930 . S
C621 C620 1.369 . S
C621 C630 1.429 . S
C622 C620 1.426 . S
C622 C623 1.360 1_655 S
C622 H625 0.925 1_655 S
C623 C622 1.360 1_455 S
C623 C629 1.428 1_455 S
H624 C620 0.930 . S
H625 C622 0.925 1_455 S
S626 N627 1.613 . S
S626 N628 1.610 . S
N627 S626 1.613 . S
N627 C630 1.350 . S
N628 S626 1.610 . S
N628 C629 1.351 . S
C629 C623 1.428 1_655 S
C629 N628 1.351 . S
C629 C630 1.434 . S
C630 C621 1.429 . S
C630 N627 1.350 . S
C630 C629 1.434 . S
C631 C632 1.370 . S
C631 C633 1.418 1_565 S
C631 H635 0.930 1_565 S
C632 C631 1.370 . S
C632 C641 1.429 . S
C633 C631 1.418 1_545 S
C633 C634 1.363 . S
C633 H636 0.929 . S
C634 C633 1.363 . S
C634 C640 1.428 1_545 S
H635 C631 0.930 1_545 S
H636 C633 0.929 . S
S637 N638 1.613 . S
S637 N639 1.610 . S
N638 S637 1.613 . S
N638 C641 1.350 . S
N639 S637 1.610 . S
N639 C640 1.351 . S
C640 C634 1.428 1_565 S
C640 N639 1.351 . S
C640 C641 1.434 . S
C641 C632 1.429 . S
C641 N638 1.350 . S
C641 C640 1.434 . S
C642 C643 1.369 . S
C642 C644 1.419 . S
C642 H646 0.930 . S
C643 C642 1.369 . S
C643 C652 1.429 . S
C644 C642 1.419 . S
C644 C645 1.363 . S
C644 H647 0.929 . S
C645 C644 1.363 . S
C645 C651 1.428 . S
H646 C642 0.930 . S
H647 C644 0.929 . S
S648 N649 1.613 . S
S648 N650 1.610 . S
N649 S648 1.613 . S
N649 C652 1.350 . S
N650 S648 1.610 . S
N650 C651 1.351 . S
C651 C645 1.428 . S
C651 N650 1.351 . S
C651 C652 1.434 . S
C652 C643 1.429 . S
C652 N649 1.350 . S
C652 C651 1.434 . S
C653 C654 1.369 . S
C653 C655 1.419 . S
C653 H657 0.930 . S
C654 C653 1.369 . S
C654 C663 1.429 . S
C655 C653 1.419 . S
C655 C656 1.363 . S
C655 H658 0.929 . S
C656 C655 1.363 . S
C656 C662 1.428 . S
H657 C653 0.930 . S
H658 C655 0.929 . S
S659 N660 1.613 . S
S659 N661 1.610 . S
N660 S659 1.613 . S
N660 C663 1.350 . S
N661 S659 1.610 . S
N661 C662 1.351 . S
C662 C656 1.428 . S
C662 N661 1.351 . S
C662 C663 1.434 . S
C663 C654 1.429 . S
C663 N660 1.350 . S
C663 C662 1.434 . S
C664 C665 1.369 . S
C664 C666 1.419 . S
C664 H668 0.930 . S
C665 C664 1.369 . S
C665 C674 1.429 . S
C666 C664 1.419 . S
C666 C667 1.363 . S
C666 H669 0.929 . S
C667 C666 1.363 . S
C667 C673 1.428 . S
H668 C664 0.930 . S
H669 C666 0.929 . S
S670 N671 1.613 . S
S670 N672 1.610 . S
N671 S670 1.613 . S
N671 C674 1.350 . S
N672 S670 1.610 . S
N672 C673 1.351 . S
C673 C667 1.428 . S
C673 N672 1.351 . S
C673 C674 1.434 . S
C674 C665 1.429 . S
C674 N671 1.350 . S
C674 C673 1.434 . S
C675 C676 1.369 . S
C675 C677 1.419 . S
C675 H679 0.930 . S
C676 C675 1.369 . S
C676 C685 1.429 . S
C677 C675 1.419 . S
C677 C678 1.363 . S
C677 H680 0.929 . S
C678 C677 1.363 . S
C678 C684 1.428 . S
H679 C675 0.930 . S
H680 C677 0.929 . S
S681 N682 1.613 1_565 S
S681 N683 1.610 . S
N682 S681 1.613 1_545 S
N682 C685 1.350 . S
N683 S681 1.610 . S
N683 C684 1.351 1_565 S
C684 C678 1.428 . S
C684 N683 1.351 1_545 S
C684 C685 1.434 . S
C685 C676 1.429 . S
C685 N682 1.350 . S
C685 C684 1.434 . S
C686 C687 1.369 . S
C686 C688 1.419 . S
C686 H690 0.930 . S
C687 C686 1.369 . S
C687 C696 1.429 . S
C688 C686 1.419 . S
C688 C689 1.363 . S
C688 H691 0.929 . S
C689 C688 1.363 . S
C689 C695 1.428 . S
H690 C686 0.930 . S
H691 C688 0.929 . S
S692 N693 1.613 . S
S692 N694 1.610 . S
N693 S692 1.613 . S
N693 C696 1.350 . S
N694 S692 1.610 . S
N694 C695 1.351 . S
C695 C689 1.428 . S
C695 N694 1.351 . S
C695 C696 1.434 . S
C696 C687 1.429 . S
C696 N693 1.350 . S
C696 C695 1.434 . S
C697 C698 1.369 . S
C697 C699 1.419 . S
C697 H701 0.930 . S
C698 C697 1.369 . S
C698 C707 1.429 . S
C699 C697 1.419 . S
C699 C700 1.363 . S
C699 H702 0.929 . S
C700 C699 1.363 . S
C700 C706 1.428 . S
H701 C697 0.930 . S
H702 C699 0.929 . S
S703 N704 1.613 . S
S703 N705 1.610 . S
N704 S703 1.613 . S
N704 C707 1.350 1_554 S
N705 S703 1.610 . S
N705 C706 1.351 1_554 S
C706 C700 1.428 . S
C706 N705 1.351 1_556 S
C706 C707 1.434 . S
C707 C698 1.429 . S
C707 N704 1.350 1_556 S
C707 C706 1.434 . S
C708 C709 1.369 . S
C708 C710 1.419 . S
C708 H712 0.930 . S
C709 C708 1.369 . S
C709 C718 1.429 . S
C710 C708 1.419 . S
C710 C711 1.363 . S
C710 H713 0.929 . S
C711 C710 1.363 . S
C711 C717 1.428 1_655 S
H712 C708 0.930 . S
H713 C710 0.929 . S
S714 N715 1.613 . S
S714 N716 1.610 . S
N715 S714 1.613 . S
N715 C718 1.350 1_455 S
N716 S714 1.610 . S
N716 C717 1.351 . S
C717 C711 1.428 1_455 S
C717 N716 1.351 . S
C717 C718 1.434 1_455 S
C718 C709 1.429 . S
C718 N715 1.350 1_655 S
C718 C717 1.434 1_655 S
C719 C720 1.369 . S
C719 C721 1.419 . S
C719 H723 0.930 1_565 S
C720 C719 1.369 . S
C720 C729 1.429 . S
C721 C719 1.419 . S
C721 C722 1.363 . S
C721 H724 0.929 1_565 S
C722 C721 1.363 . S
C722 C728 1.428 . S
H723 C719 0.930 1_545 S
H724 C721 0.929 1_545 S
S725 N726 1.613 . S
S725 N727 1.610 . S
N726 S725 1.613 . S
N726 C729 1.350 . S
N727 S725 1.610 . S
N727 C728 1.351 . S
C728 C722 1.428 . S
C728 N727 1.351 . S
C728 C729 1.434 . S
C729 C720 1.429 . S
C729 N726 1.350 . S
C729 C728 1.434 . S
C730 C731 1.369 . S
C730 C732 1.419 . S
C730 H734 0.930 . S
C731 C730 1.369 . S
C731 C740 1.429 . S
C732 C730 1.419 . S
C732 C733 1.363 . S
C732 H735 0.929 . S
C733 C732 1.363 . S
C733 C739 1.428 . S
H734 C730 0.930 . S
H735 C732 0.929 . S
S736 N737 1.613 . S
S736 N738 1.610 . S
N737 S736 1.613 . S
N737 C740 1.350 . S
N738 S736 1.610 . S
N738 C739 1.351 . S
C739 C733 1.428 . S
C739 N738 1.351 . S
C739 C740 1.434 . S
C740 C731 1.429 . S
C740 N737 1.350 . S
C740 C739 1.434 . S
C741 C742 1.369 . S
C741 C743 1.419 . S
C741 H745 0.930 . S
C742 C741 1.369 . S
C742 C751 1.429 . S
C743 C741 1.419 . S
C743 C744 1.363 . S
C743 H746 0.929 . S
C744 C743 1.363 . S
C744 C750 1.428 . S
H745 C741 0.930 . S
H746 C743 0.929 . S
S747 N748 1.613 . S
S747 N749 1.610 . S
N748 S747 1.613 . S
N748 C751 1.350 . S
N749 S747 1.610 . S
N749 C750 1.351 . S
C750 C744 1.428 . S
C750 N749 1.351 . S
C750 C751 1.434 . S
C751 C742 1.429 . S
C751 N748 1.350 . S
C751 C750 1.434 . S
C489 C125 2.066 . S
C491 C226 2.061 . S
C502 C310 2.072 . S
C500 C144 2.067 . S
C513 C376 1.981 . S
C511 C87 2.132 . S
C524 C460 1.979 . S
C522 C106 2.128 . S
C535 C215 2.060 1_565 S
C533 C49 2.161 . S
C544 C68 2.169 . S
C546 C299 2.079 . S
C555 C11 2.241 . S
C557 C387 1.986 . S
C566 C30 2.233 . S
C568 C471 1.971 . S
C579 C222 0.935 1_455 S
C577 C97 0.874 . S
C590 C306 0.903 1_545 S
C588 C116 0.869 . S
C601 C378 0.891 . S
C599 C135 0.846 . S
C610 C78 0.877 . S
C612 C462 0.931 . S
C621 C21 0.883 . S
C623 C210 0.939 . S
C634 C294 0.903 . S
C632 C40 0.865 . S
C645 C390 0.889 . S
C643 C59 0.835 . S
C654 C2 0.882 . S
C656 C474 0.930 . S
C665 C101 2.115 . S
C667 C219 2.185 . S
C676 C120 2.088 . S
C678 C303 2.160 . S
C689 C383 2.277 . S
C687 C139 2.019 . S
C700 C467 2.302 . S
C698 C82 2.032 . S
C709 C25 2.115 . S
C711 C208 2.185 . S
C722 C292 2.166 . S
C720 C44 2.085 . S
C733 C394 2.275 . S
C731 C63 2.018 . S
C742 C6 2.039 . S
C744 C478 2.299 . S
