# Generated by pormake.
# Topology sit, (3,6)-cn, num edge types: 1
# Building blocks:
#     Node 0, Type 0, BuildingBlock: MIDCAF_clean_linker_0, # of connection points: 3
#     Node 1, Type 0, BuildingBlock: MIDCAF_clean_linker_0, # of connection points: 3
#     Node 2, Type 0, BuildingBlock: MIDCAF_clean_linker_0, # of connection points: 3
#     Node 3, Type 0, BuildingBlock: MIDCAF_clean_linker_0, # of connection points: 3
#     Node 4, Type 1, BuildingBlock: MIDCAF_clean_sbu_0, # of connection points: 6
#     Node 5, Type 1, BuildingBlock: MIDCAF_clean_sbu_0, # of connection points: 6
#     Edge 6, Type (0, 1), BuildingBlock: TEMPAE_clean_linker_10, # of connection points: 2
#     Edge 7, Type (0, 1), BuildingBlock: TEMPAE_clean_linker_10, # of connection points: 2
#     Edge 8, Type (0, 1), BuildingBlock: TEMPAE_clean_linker_10, # of connection points: 2
#     Edge 9, Type (0, 1), BuildingBlock: TEMPAE_clean_linker_10, # of connection points: 2
#     Edge 10, Type (0, 1), BuildingBlock: TEMPAE_clean_linker_10, # of connection points: 2
#     Edge 11, Type (0, 1), BuildingBlock: TEMPAE_clean_linker_10, # of connection points: 2
#     Edge 12, Type (0, 1), BuildingBlock: TEMPAE_clean_linker_10, # of connection points: 2
#     Edge 13, Type (0, 1), BuildingBlock: TEMPAE_clean_linker_10, # of connection points: 2
#     Edge 14, Type (0, 1), BuildingBlock: TEMPAE_clean_linker_10, # of connection points: 2
#     Edge 15, Type (0, 1), BuildingBlock: TEMPAE_clean_linker_10, # of connection points: 2
#     Edge 16, Type (0, 1), BuildingBlock: TEMPAE_clean_linker_10, # of connection points: 2
#     Edge 17, Type (0, 1), BuildingBlock: TEMPAE_clean_linker_10, # of connection points: 2
# Relax obj value: 0.111
# Max RMSD: 0.194
# Mean RMSD: 0.108
data_MOF--net-sit--node1-MIDCAF_clean_sbu_0--node2-MIDCAF_clean_linker_0--edge1-TEMPAE_clean_linker_10
_symmetry_space_group_name_H-M    P1
_symmetry_Int_Tables_number       1
_symmetry_cell_setting            triclinic
loop_
_symmetry_equiv_pos_as_xyz
'x, y, z'
_cell_length_a     28.453785
_cell_length_b     39.203863
_cell_length_c     43.125044
_cell_angle_alpha  90.214215
_cell_angle_beta   89.184717
_cell_angle_gamma 84.051937
loop_
_atom_site_label
_atom_site_type_symbol
_atom_site_fract_x
_atom_site_fract_y
_atom_site_fract_z
_atom_type_partial_charge
C0 C 0.9531 0.41891 0.01331 0.0
C1 C 0.90953 0.4135 0.02717 0.0
C2 C 0.90753 0.38527 0.04707 0.0
C3 C 0.94757 0.36196 0.05151 0.0
H4 H 0.12409 0.22608 0.04755 0.0
H5 H 0.1238 0.17435 0.07914 0.0
H6 H 0.00793 0.22335 0.1341 0.0
H7 H 0.00754 0.27491 0.10249 0.0
H8 H 0.20127 0.29983 0.03757 0.0
H9 H 0.27345 0.31518 0.01165 0.0
H10 H 0.18913 0.37274 0.94353 0.0
H11 H 0.11702 0.35833 0.9697 0.0
H12 H 0.0254 0.40045 0.00585 0.0
H13 H 0.95598 0.43997 -0.00256 0.0
H14 H 0.87465 0.38058 0.05843 0.0
H15 H 0.94445 0.33991 0.06616 0.0
N16 N 0.02999 0.31094 0.05439 0.0
N17 N 0.10805 0.29228 0.03899 0.0
N18 N 0.07205 0.34519 0.022 0.0
C19 C 0.06794 0.28672 0.05484 0.0
C20 C 0.11018 0.32147 0.0225 0.0
C21 C 0.0319 0.34033 0.03796 0.0
C22 C 0.06607 0.25473 0.0727 0.0
C23 C 0.09833 0.22576 0.06625 0.0
C24 C 0.09803 0.19608 0.08411 0.0
C25 C 0.06602 0.1951 0.10901 0.0
C26 C 0.03312 0.22367 0.11505 0.0
C27 C 0.03287 0.25311 0.09692 0.0
C28 C 0.15369 0.32803 0.00566 0.0
C29 C 0.19823 0.31546 0.01689 0.0
C30 C 0.23936 0.3243 0.00224 0.0
C31 C 0.23638 0.34502 0.97575 0.0
C32 C 0.192 0.35659 0.96389 0.0
C33 C 0.15094 0.34846 0.97892 0.0
C34 C 0.99045 0.36649 0.03623 0.0
C35 C 0.99299 0.39583 0.01785 0.0
C36 C 0.91525 0.6575 0.96986 0.0
C37 C 0.87136 0.66931 0.98318 0.0
C38 C 0.86943 0.68994 0.00992 0.0
C39 C 0.91118 0.69879 0.02311 0.0
H40 H 0.97092 0.774 0.07645 0.0
H41 H 0.97535 0.82674 0.10598 0.0
H42 H 0.12706 0.81569 0.0947 0.0
H43 H 0.12306 0.76254 0.06535 0.0
H44 H 0.1686 0.67811 0.05924 0.0
H45 H 0.23797 0.63709 0.04953 0.0
H46 H 0.15537 0.57849 0.98979 0.0
H47 H 0.08643 0.61829 0.00019 0.0
H48 H 0.99032 0.65584 0.97277 0.0
H49 H 0.91734 0.6414 0.9493 0.0
H50 H 0.83573 0.69923 0.02048 0.0
H51 H 0.90905 0.71464 0.04381 0.0
N52 N 0.00238 0.72369 0.04011 0.0
N53 N 0.08289 0.70764 0.04935 0.0
N54 N 0.03854 0.67108 0.02161 0.0
C55 C 0.04402 0.7309 0.05238 0.0
C56 C 0.08018 0.67747 0.03413 0.0
C57 C -0.00038 0.6939 0.02451 0.0
C58 C 0.04672 0.76384 0.06882 0.0
C59 C 0.00525 0.78291 0.07993 0.0
C60 C 0.00767 0.81313 0.09676 0.0
C61 C 0.05148 0.82523 0.10239 0.0
C62 C 0.09282 0.80702 0.0903 0.0
C63 C 0.09051 0.77644 0.07385 0.0
C64 C 0.12199 0.65183 0.03023 0.0
C65 C 0.1652 0.65623 0.04434 0.0
C66 C 0.20495 0.63271 0.03878 0.0
C67 C 0.20237 0.60445 0.01883 0.0
C68 C 0.15866 0.59948 0.00575 0.0
C69 C 0.11904 0.62273 0.01145 0.0
C70 C 0.95523 0.6863 0.01012 0.0
C71 C 0.95685 0.66563 0.98338 0.0
C72 C 0.46128 0.9162 0.50996 0.0
C73 C 0.41736 0.91104 0.52343 0.0
C74 C 0.41474 0.88311 0.5436 0.0
C75 C 0.4546 0.85986 0.54876 0.0
H76 H 0.51199 0.77357 0.60107 0.0
H77 H 0.51065 0.72244 0.63305 0.0
H78 H 0.63002 0.67306 0.58152 0.0
H79 H 0.63198 0.72435 0.54953 0.0
H80 H 0.70879 0.79855 0.539 0.0
H81 H 0.78147 0.81373 0.51355 0.0
H82 H 0.69855 0.86809 0.44288 0.0
H83 H 0.62599 0.85388 0.46856 0.0
H84 H 0.53375 0.89758 0.50352 0.0
H85 H 0.46462 0.93702 0.49392 0.0
H86 H 0.38154 0.87863 0.55466 0.0
H87 H 0.45104 0.83805 0.56363 0.0
N88 N 0.53693 0.809 0.55338 0.0
N89 N 0.61544 0.79011 0.53924 0.0
N90 N 0.5799 0.8426 0.52096 0.0
C91 C 0.57487 0.78484 0.55469 0.0
C92 C 0.61802 0.81895 0.52229 0.0
C93 C 0.5393 0.83804 0.53652 0.0
C94 C 0.57235 0.75317 0.57294 0.0
C95 C 0.53777 0.75179 0.59634 0.0
C96 C 0.53703 0.72259 0.61469 0.0
C97 C 0.57036 0.69401 0.60972 0.0
C98 C 0.60389 0.69478 0.58566 0.0
C99 C 0.60513 0.72423 0.56758 0.0
C100 C 0.66191 0.82519 0.50577 0.0
C101 C 0.70621 0.81342 0.51787 0.0
C102 C 0.7476 0.82216 0.50347 0.0
C103 C 0.74515 0.84196 0.4764 0.0
C104 C 0.70104 0.85266 0.4637 0.0
C105 C 0.65971 0.84465 0.47844 0.0
C106 C 0.49791 0.86414 0.53393 0.0
C107 C 0.501 0.89316 0.5152 0.0
C108 C 0.42069 0.15842 0.46786 0.0
C109 C 0.37684 0.16939 0.48167 0.0
C110 C 0.37491 0.18943 0.50878 0.0
C111 C 0.4166 0.19841 0.52192 0.0
H112 H 0.47605 0.27349 0.57565 0.0
H113 H 0.48029 0.3257 0.60596 0.0
H114 H 0.63215 0.31434 0.59581 0.0
H115 H 0.62834 0.2617 0.56565 0.0
H116 H 0.67391 0.17782 0.55785 0.0
H117 H 0.74307 0.13658 0.54826 0.0
H118 H 0.66009 0.07791 0.48886 0.0
H119 H 0.59133 0.11798 0.49909 0.0
H120 H 0.49574 0.15745 0.47041 0.0
H121 H 0.42279 0.14278 0.44701 0.0
H122 H 0.34123 0.19806 0.5197 0.0
H123 H 0.41448 0.21372 0.54295 0.0
N124 N 0.50773 0.2236 0.53901 0.0
N125 N 0.58811 0.20725 0.54844 0.0
N126 N 0.54386 0.1712 0.52002 0.0
C127 C 0.5493 0.23055 0.55156 0.0
C128 C 0.58541 0.1773 0.53283 0.0
C129 C 0.50501 0.19405 0.52302 0.0
C130 C 0.55193 0.2632 0.5685 0.0
C131 C 0.51038 0.28221 0.57955 0.0
C132 C 0.51269 0.31214 0.59684 0.0
C133 C 0.55649 0.32399 0.60301 0.0
C134 C 0.59794 0.30584 0.59101 0.0
C135 C 0.59573 0.27556 0.57408 0.0
C136 C 0.62711 0.15155 0.52897 0.0
C137 C 0.67036 0.15588 0.54305 0.0
C138 C 0.71 0.13223 0.53756 0.0
C139 C 0.70724 0.10389 0.51775 0.0
C140 C 0.66349 0.09898 0.50471 0.0
C141 C 0.624 0.12238 0.51031 0.0
C142 C 0.46064 0.18665 0.50851 0.0
C143 C 0.46227 0.16667 0.48133 0.0
Zn144 Zn 0.02215 0.06675 0.3472 0.0
Zn145 Zn 0.11244 0.94109 0.34817 0.0
Zn146 Zn 0.06764 0.00399 0.34836 0.0
C147 C 0.10139 0.95952 0.28656 0.0
C148 C 0.02267 0.93777 0.37508 0.0
O149 O 0.11258 0.03791 0.37171 0.0
O150 O 0.07221 0.08922 0.36893 0.0
C151 C 0.0398 0.04777 0.28613 0.0
O152 O 0.07939 0.9864 0.29952 0.0
O153 O 0.12152 0.93594 0.30301 0.0
O154 O 0.06004 0.9188 0.36824 0.0
O155 O 0.01974 0.97025 0.36978 0.0
O156 O 0.01719 0.07131 0.30195 0.0
O157 O 0.0613 0.02137 0.29954 0.0
O158 O -0.00026 0.00448 0.37459 0.0
O159 O 0.96563 0.05769 0.3709 0.0
C160 C 0.96534 0.02759 0.38102 0.0
O161 O 0.13266 0.00378 0.37637 0.0
O162 O 0.16668 0.95042 0.37331 0.0
C163 C 0.10865 0.07044 0.37712 0.0
C164 C 0.16621 0.98063 0.38353 0.0
Zn165 Zn 0.51768 0.56706 0.84698 0.0
Zn166 Zn 0.60754 0.4413 0.85033 0.0
Zn167 Zn 0.5631 0.50425 0.84937 0.0
C168 C 0.59923 0.45908 0.78843 0.0
C169 C 0.51657 0.43846 0.87556 0.0
O170 O 0.60753 0.53838 0.87278 0.0
O171 O 0.56772 0.58976 0.8686 0.0
C172 C 0.53688 0.54703 0.78634 0.0
O173 O 0.57648 0.48601 0.80084 0.0
O174 O 0.61892 0.43579 0.80538 0.0
O175 O 0.55399 0.4193 0.86925 0.0
O176 O 0.51421 0.47093 0.8703 0.0
O177 O 0.51344 0.57066 0.80159 0.0
O178 O 0.5583 0.521 0.80032 0.0
O179 O 0.49467 0.50532 0.87506 0.0
O180 O 0.46088 0.55854 0.87068 0.0
C181 C 0.46034 0.52861 0.88115 0.0
O182 O 0.62715 0.50433 0.87826 0.0
O183 O 0.66049 0.45073 0.87665 0.0
C184 C 0.60376 0.57103 0.87753 0.0
C185 C 0.66005 0.48113 0.88638 0.0
C186 C 0.0734 0.1708 0.16189 0.0
C187 C 0.06859 0.16537 0.13009 0.0
C188 C 0.07271 0.14378 0.18289 0.0
C189 C 0.06636 0.11049 0.17183 0.0
C190 C 0.06361 0.10448 0.13954 0.0
C191 C 0.06498 0.13211 0.11892 0.0
C192 C 0.07669 0.1513 0.21711 0.0
C193 C 0.05674 0.06945 0.12684 0.0
C194 C 0.08877 0.04885 0.23792 0.0
C195 C 0.04431 0.05312 0.25256 0.0
C196 C 0.09584 0.06406 0.20901 0.0
C197 C 0.05746 0.08367 0.1948 0.0
C198 C 0.01138 0.08375 0.20761 0.0
C199 C 0.00545 0.06876 0.23659 0.0
C200 C 0.14528 0.06253 0.19566 0.0
C201 C 0.96917 0.10333 0.19272 0.0
H202 H 0.07706 0.19645 0.17037 0.0
H203 H 0.06142 0.12799 0.09423 0.0
H204 H 0.04277 0.14784 0.22911 0.0
H205 H 0.10449 0.13317 0.22756 0.0
H206 H 0.08527 0.17788 0.22157 0.0
H207 H 0.06706 0.06704 0.10192 0.0
H208 H 0.0774 0.04889 0.13998 0.0
H209 H 0.0189 0.06522 0.12909 0.0
H210 H 0.11876 0.03645 0.25025 0.0
H211 H 0.9709 0.07146 0.24781 0.0
H212 H 0.16105 0.08621 0.20225 0.0
H213 H 0.14508 0.0611 0.16996 0.0
H214 H 0.16813 0.04015 0.20465 0.0
H215 H 0.97009 0.13119 0.19699 0.0
H216 H 0.93534 0.09576 0.20229 0.0
H217 H 0.97 0.09913 0.16727 0.0
C218 C 0.03523 0.8528 0.15376 0.0
C219 C 0.05455 0.85435 0.12386 0.0
C220 C 0.04273 0.87748 0.17615 0.0
C221 C 0.06935 0.9049 0.1682 0.0
C222 C 0.08601 0.90798 0.13734 0.0
C223 C 0.07923 0.88218 0.1156 0.0
C224 C 0.02472 0.87288 0.20886 0.0
C225 C 0.11268 0.93757 0.12757 0.0
C226 C 0.06046 0.96669 0.23559 0.0
C227 C 0.09961 0.95354 0.25278 0.0
C228 C 0.05324 0.95429 0.20562 0.0
C229 C 0.08461 0.92696 0.19346 0.0
C230 C 0.12643 0.91593 0.20954 0.0
C231 C 0.13366 0.92971 0.23885 0.0
C232 C 0.00976 0.96827 0.18836 0.0
C233 C 0.16095 0.88686 0.19752 0.0
H234 H 0.01637 0.83114 0.16013 0.0
H235 H 0.09375 0.8835 0.0923 0.0
H236 H 0.05498 0.86888 0.22487 0.0
H237 H 0.00237 0.89626 0.21668 0.0
H238 H 0.00361 0.85066 0.21092 0.0
H239 H 0.11066 0.94178 0.10214 0.0
H240 H 0.09883 0.96163 0.13972 0.0
H241 H 0.15046 0.93191 0.13353 0.0
H242 H 0.03351 0.9846 0.24632 0.0
H243 H 0.16437 0.91981 0.25191 0.0
H244 H 0.98091 0.95191 0.19297 0.0
H245 H 0.01666 0.96824 0.16296 0.0
H246 H -0.00261 0.99483 0.19602 0.0
H247 H 0.14423 0.86252 0.19863 0.0
H248 H 0.19389 0.88374 0.21121 0.0
H249 H 0.17048 0.89112 0.17294 0.0
C250 C 0.56962 0.631 0.61972 0.0
C251 C 0.57157 0.66444 0.63096 0.0
C252 C 0.56727 0.60344 0.64031 0.0
C253 C 0.56734 0.6097 0.67267 0.0
C254 C 0.5718 0.64324 0.6839 0.0
C255 C 0.57352 0.67017 0.6629 0.0
C256 C 0.56235 0.56817 0.62743 0.0
C257 C 0.57288 0.65105 0.71823 0.0
C258 C 0.50451 0.5669 0.73591 0.0
C259 C 0.54287 0.55206 0.75282 0.0
C260 C 0.5115 0.58188 0.70704 0.0
C261 C 0.55811 0.5827 0.69538 0.0
C262 C 0.59625 0.56386 0.71054 0.0
C263 C 0.5881 0.54853 0.73925 0.0
C264 C 0.4696 0.60055 0.69106 0.0
C265 C 0.64631 0.56338 0.69849 0.0
H266 H 0.56821 0.62664 0.59493 0.0
H267 H 0.57589 0.69597 0.67148 0.0
H268 H 0.5828 0.54798 0.64111 0.0
H269 H 0.52467 0.56327 0.62872 0.0
H270 H 0.5742 0.56581 0.60279 0.0
H271 H 0.58013 0.67787 0.72296 0.0
H272 H 0.53835 0.64699 0.72913 0.0
H273 H 0.6004 0.63345 0.7296 0.0
H274 H 0.46938 0.56904 0.74631 0.0
H275 H 0.61772 0.53677 0.75233 0.0
H276 H 0.47224 0.59642 0.66562 0.0
H277 H 0.46897 0.6285 0.69551 0.0
H278 H 0.43569 0.59211 0.69966 0.0
H279 H 0.64776 0.56171 0.67281 0.0
H280 H 0.6695 0.54158 0.70818 0.0
H281 H 0.66052 0.58757 0.70538 0.0
C282 C 0.58422 0.38071 0.61708 0.0
C283 C 0.5593 0.35283 0.62484 0.0
C284 C 0.59031 0.40641 0.63908 0.0
C285 C 0.57264 0.4032 0.66968 0.0
C286 C 0.54597 0.37567 0.67713 0.0
C287 C 0.53921 0.35107 0.6545 0.0
C288 C 0.61719 0.43609 0.62986 0.0
C289 C 0.52693 0.37093 0.70957 0.0
C290 C 0.63361 0.42885 0.74146 0.0
C291 C 0.59885 0.4527 0.75466 0.0
C292 C 0.62773 0.41477 0.71208 0.0
C293 C 0.58656 0.42548 0.6952 0.0
C294 C 0.55447 0.45276 0.7067 0.0
C295 C 0.56036 0.46551 0.73672 0.0
C296 C 0.66294 0.38572 0.70081 0.0
C297 C 0.51157 0.46631 0.68865 0.0
H298 H 0.59936 0.38218 0.59397 0.0
H299 H 0.52019 0.32937 0.66048 0.0
H300 H 0.60211 0.46021 0.6414 0.0
H301 H 0.65448 0.43087 0.63708 0.0
H302 H 0.61698 0.43995 0.60435 0.0
H303 H 0.50597 0.34861 0.71125 0.0
H304 H 0.55665 0.36704 0.72601 0.0
H305 H 0.50416 0.39422 0.71713 0.0
H306 H 0.6638 0.41919 0.75511 0.0
H307 H 0.53287 0.48341 0.74688 0.0
H308 H 0.67321 0.38966 0.67631 0.0
H309 H 0.64648 0.36128 0.70197 0.0
H310 H 0.69541 0.38303 0.71498 0.0
H311 H 0.51952 0.46627 0.66338 0.0
H312 H 0.49842 0.49281 0.69608 0.0
H313 H 0.48288 0.44966 0.69272 0.0
C314 C 0.29062 0.34742 0.93026 0.0
C315 C 0.27929 0.35604 0.96117 0.0
C316 C 0.33017 0.35918 0.91568 0.0
C317 C 0.35795 0.38081 0.93225 0.0
C318 C 0.34647 0.38957 0.96353 0.0
C319 C 0.30752 0.37664 0.97778 0.0
C320 C 0.34203 0.34872 0.88252 0.0
C321 C 0.37509 0.41272 0.9819 0.0
C322 C 0.48277 0.39233 0.90565 0.0
C323 C 0.47581 0.42322 0.88925 0.0
C324 C 0.44452 0.37776 0.91917 0.0
C325 C 0.39847 0.39487 0.91669 0.0
C326 C 0.39117 0.42577 0.89975 0.0
C327 C 0.42989 0.43912 0.88563 0.0
C328 C 0.45341 0.34422 0.93627 0.0
C329 C 0.34274 0.44527 0.89729 0.0
H330 H 0.26854 0.33141 0.9176 0.0
H331 H 0.29826 0.38338 0.00167 0.0
H332 H 0.33903 0.37168 0.86745 0.0
H333 H 0.37912 0.33686 0.8807 0.0
H334 H 0.31838 0.33025 0.87352 0.0
H335 H 0.35673 0.42197 0.00372 0.0
H336 H 0.40945 0.39853 0.98795 0.0
H337 H 0.38274 0.43522 0.96791 0.0
H338 H 0.51821 0.37966 0.90814 0.0
H339 H 0.42414 0.46192 0.87159 0.0
H340 H 0.43029 0.32545 0.92724 0.0
H341 H 0.44455 0.34824 0.96123 0.0
H342 H 0.49079 0.33296 0.9341 0.0
H343 H 0.31666 0.42815 0.88928 0.0
H344 H 0.34247 0.46731 0.88117 0.0
H345 H 0.33087 0.45511 0.92055 0.0
C346 C 0.79921 0.63863 0.98606 0.0
C347 C 0.82798 0.65908 0.96933 0.0
C348 C 0.76105 0.62523 0.97184 0.0
C349 C 0.75104 0.63332 0.94048 0.0
C350 C 0.77888 0.65526 0.92398 0.0
C351 C 0.81752 0.66753 0.93853 0.0
C352 C 0.7321 0.60195 0.99018 0.0
C353 C 0.76858 0.66506 0.89074 0.0
C354 C 0.68813 0.57198 0.89193 0.0
C355 C 0.64138 0.58701 0.89356 0.0
C356 C 0.72402 0.58646 0.90761 0.0
C357 C 0.71304 0.61745 0.92437 0.0
C358 C 0.66611 0.63335 0.92534 0.0
C359 C 0.6307 0.61779 0.91005 0.0
C360 C 0.77354 0.56841 0.90653 0.0
C361 C 0.65337 0.66682 0.94238 0.0
H362 H 0.80773 0.63206 0.00988 0.0
H363 H 0.83998 0.68346 0.92577 0.0
H364 H 0.69708 0.61577 0.99599 0.0
H365 H 0.72588 0.57904 0.97627 0.0
H366 H 0.74942 0.59335 0.01214 0.0
H367 H 0.79121 0.68455 0.8821 0.0
H368 H 0.77457 0.64201 0.87564 0.0
H369 H 0.73098 0.67538 0.88849 0.0
H370 H 0.69682 0.54912 0.87801 0.0
H371 H 0.59456 0.62967 0.9111 0.0
H372 H 0.7847 0.56131 0.93037 0.0
H373 H 0.79866 0.58578 0.89725 0.0
H374 H 0.77631 0.5448 0.89201 0.0
H375 H 0.66062 0.66342 0.96743 0.0
H376 H 0.61558 0.6766 0.93972 0.0
H377 H 0.67555 0.68651 0.93368 0.0
C378 C 0.82569 0.41824 0.00992 0.0
C379 C 0.86581 0.43447 0.01718 0.0
C380 C 0.78872 0.43529 0.99306 0.0
C381 C 0.79213 0.46931 0.98296 0.0
C382 C 0.82985 0.48709 0.99323 0.0
C383 C 0.86629 0.46945 0.0103 0.0
C384 C 0.74855 0.41551 0.98324 0.0
C385 C 0.8341 0.52367 0.98388 0.0
C386 C 0.74312 0.47517 0.90269 0.0
C387 C 0.69633 0.48828 0.90871 0.0
C388 C 0.77642 0.47267 0.92631 0.0
C389 C 0.76205 0.4827 0.95689 0.0
C390 C 0.71599 0.49924 0.96238 0.0
C391 C 0.68349 0.50201 0.93801 0.0
C392 C 0.82558 0.45589 0.9191 0.0
C393 C 0.69939 0.51077 0.99445 0.0
H394 H 0.82478 0.39128 0.01505 0.0
H395 H 0.89653 0.48252 0.01666 0.0
H396 H 0.71415 0.43127 0.98651 0.0
H397 H 0.75266 0.40896 0.95821 0.0
H398 H 0.74758 0.39132 0.99646 0.0
H399 H 0.85784 0.53625 -0.00047 0.0
H400 H 0.84894 0.52406 0.95997 0.0
H401 H 0.79901 0.53882 0.98401 0.0
H402 H 0.75295 0.46491 0.87984 0.0
H403 H 0.64713 0.5122 0.94256 0.0
H404 H 0.82973 0.42969 0.92905 0.0
H405 H 0.85252 0.47061 0.9297 0.0
H406 H 0.8328 0.45378 0.89374 0.0
H407 H 0.6864 0.48882 0.00695 0.0
H408 H 0.66984 0.5316 0.99342 0.0
H409 H 0.72849 0.51985 0.00808 0.0
C410 C 0.24405 0.54761 0.00169 0.0
C411 C 0.24562 0.58259 0.00838 0.0
C412 C 0.2807 0.5289 0.9848 0.0
C413 C 0.31982 0.54557 0.97459 0.0
C414 C 0.32395 0.57971 0.98427 0.0
C415 C 0.28672 0.59784 0.0009 0.0
C416 C 0.27545 0.49232 0.97569 0.0
C417 C 0.36556 0.59834 0.97441 0.0
C418 C 0.43124 0.50934 0.93224 0.0
C419 C 0.42159 0.52242 0.90257 0.0
C420 C 0.39655 0.51343 0.95589 0.0
C421 C 0.35156 0.53063 0.94928 0.0
C422 C 0.34028 0.53983 0.91833 0.0
C423 C 0.3757 0.53601 0.89543 0.0
C424 C 0.40981 0.5027 0.98841 0.0
C425 C 0.2923 0.55722 0.90997 0.0
H426 H 0.21298 0.5353 0.00818 0.0
H427 H 0.28843 0.6248 0.00584 0.0
H428 H 0.26173 0.49174 0.95176 0.0
H429 H 0.31 0.47646 0.97593 0.0
H430 H 0.25037 0.48061 0.99138 0.0
H431 H 0.36649 0.62295 0.98714 0.0
H432 H 0.39925 0.58213 0.97833 0.0
H433 H 0.36341 0.60395 0.94923 0.0
H434 H 0.46688 0.49874 0.93767 0.0
H435 H 0.36833 0.54571 0.87229 0.0
H436 H 0.37919 0.49425 0.00142 0.0
H437 H 0.42184 0.52489 0.00099 0.0
H438 H 0.43912 0.48164 0.98829 0.0
H439 H 0.26382 0.54359 0.9205 0.0
H440 H 0.28729 0.55831 0.88447 0.0
H441 H 0.28839 0.58384 0.9192 0.0
C442 C 0.81561 0.87432 0.47861 0.0
C443 C 0.78822 0.85305 0.46207 0.0
C444 C 0.85434 0.88763 0.46441 0.0
C445 C 0.86644 0.87858 0.43328 0.0
C446 C 0.83959 0.85623 0.41681 0.0
C447 C 0.80026 0.84408 0.43133 0.0
C448 C 0.88192 0.9116 0.4826 0.0
C449 C 0.85206 0.84554 0.38379 0.0
C450 C 0.93633 0.93758 0.38593 0.0
C451 C 0.98259 0.92228 0.3894 0.0
C452 C 0.89818 0.92387 0.40042 0.0
C453 C 0.90645 0.89324 0.41766 0.0
C454 C 0.95289 0.87683 0.42017 0.0
C455 C 0.99053 0.89172 0.40619 0.0
C456 C 0.84928 0.94261 0.39789 0.0
C457 C 0.96284 0.84364 0.43767 0.0
H458 H 0.80579 0.88137 0.50234 0.0
H459 H 0.77881 0.82758 0.41871 0.0
H460 H 0.91692 0.89828 0.48848 0.0
H461 H 0.88826 0.93432 0.46851 0.0
H462 H 0.86344 0.92048 0.50449 0.0
H463 H 0.82925 0.82643 0.37492 0.0
H464 H 0.84828 0.86831 0.36848 0.0
H465 H 0.88949 0.83438 0.38216 0.0
H466 H 0.92985 0.96015 0.37164 0.0
H467 H 0.02626 0.87955 0.40861 0.0
H468 H 0.83701 0.95229 0.42114 0.0
H469 H 0.82387 0.925 0.38983 0.0
H470 H 0.84836 0.96469 0.38177 0.0
H471 H 0.95336 0.8478 0.46253 0.0
H472 H 0.00057 0.83313 0.43588 0.0
H473 H 0.94073 0.8242 0.42866 0.0
C474 C 0.32208 0.16769 0.43748 0.0
C475 C 0.33354 0.15874 0.46803 0.0
C476 C 0.28346 0.15515 0.42313 0.0
C477 C 0.25668 0.13245 0.43955 0.0
C478 C 0.26778 0.12378 0.47064 0.0
C479 C 0.30586 0.13746 0.48469 0.0
C480 C 0.27197 0.16557 0.39019 0.0
C481 C 0.24004 0.09965 0.48887 0.0
C482 C 0.13581 0.11654 0.41031 0.0
C483 C 0.14647 0.08625 0.39309 0.0
C484 C 0.17139 0.13203 0.42549 0.0
C485 C 0.2185 0.11656 0.42365 0.0
C486 C 0.22944 0.08603 0.40621 0.0
C487 C 0.19335 0.07163 0.39065 0.0
C488 C 0.15863 0.16499 0.44331 0.0
C489 C 0.27917 0.06841 0.40423 0.0
H490 H 0.34371 0.18424 0.42478 0.0
H491 H 0.31518 0.1305 0.5083 0.0
H492 H 0.27783 0.14286 0.37466 0.0
H493 H 0.23417 0.17562 0.38857 0.0
H494 H 0.29397 0.18545 0.38158 0.0
H495 H 0.25824 0.09073 0.51044 0.0
H496 H 0.20493 0.11289 0.49535 0.0
H497 H 0.23398 0.07696 0.47462 0.0
H498 H 0.09956 0.1281 0.41201 0.0
H499 H 0.20197 0.04918 0.37619 0.0
H500 H 0.18003 0.18516 0.43464 0.0
H501 H 0.16691 0.16106 0.46817 0.0
H502 H 0.1206 0.17443 0.44141 0.0
H503 H 0.30356 0.08614 0.39464 0.0
H504 H 0.28178 0.04494 0.38954 0.0
H505 H 0.2914 0.06119 0.42782 0.0
C506 C 0.37468 0.96699 0.50607 0.0
C507 C 0.37398 0.93203 0.51293 0.0
C508 C 0.33835 0.98477 0.489 0.0
C509 C 0.30053 0.96712 0.47866 0.0
C510 C 0.29711 0.93301 0.48849 0.0
C511 C 0.33394 0.91585 0.50539 0.0
C512 C 0.34262 0.02142 0.47987 0.0
C513 C 0.25691 0.91334 0.47849 0.0
C514 C 0.19094 0.00068 0.43513 0.0
C515 C 0.20308 0.98748 0.40554 0.0
C516 C 0.22401 0.99747 0.45915 0.0
C517 C 0.26993 0.98101 0.45302 0.0
C518 C 0.28359 0.97152 0.4222 0.0
C519 C 0.24975 0.97448 0.39892 0.0
C520 C 0.20812 0.00837 0.49152 0.0
C521 C 0.33255 0.95477 0.41435 0.0
H522 H 0.40492 0.97998 0.51258 0.0
H523 H 0.33293 0.88888 0.51045 0.0
H524 H 0.35628 0.02206 0.45568 0.0
H525 H 0.30765 0.03673 0.48082 0.0
H526 H 0.36723 0.03366 0.49512 0.0
H527 H 0.25615 0.88888 0.49132 0.0
H528 H 0.22251 0.92899 0.48212 0.0
H529 H 0.26077 0.9073 0.45335 0.0
H530 H 0.15468 0.01077 0.44015 0.0
H531 H 0.25903 0.96461 0.37586 0.0
H532 H 0.23751 0.01726 0.50499 0.0
H533 H 0.19555 0.98616 0.50382 0.0
H534 H 0.17847 0.02916 0.49106 0.0
H535 H 0.3598 0.96916 0.42502 0.0
H536 H 0.33926 0.95323 0.38891 0.0
H537 H 0.33674 0.92836 0.42381 0.0
C538 C 0.79144 0.09704 0.49963 0.0
C539 C 0.75039 0.08189 0.50738 0.0
C540 C 0.82863 0.0787 0.48314 0.0
C541 C 0.82454 0.04441 0.47392 0.0
C542 C 0.78544 0.02787 0.48438 0.0
C543 C 0.74877 0.04682 0.50107 0.0
C544 C 0.87016 0.09724 0.47293 0.0
C545 C 0.78032 0.99111 0.47579 0.0
C546 C 0.88062 0.034 0.39494 0.0
C547 C 0.92665 0.02096 0.40231 0.0
C548 C 0.84505 0.03777 0.41775 0.0
C549 C 0.85634 0.02908 0.44881 0.0
C550 C 0.9015 0.01231 0.45564 0.0
C551 C 0.93635 0.00827 0.43209 0.0
C552 C 0.79695 0.05474 0.40914 0.0
C553 C 0.91475 0.00208 0.48829 0.0
H554 H 0.79314 0.12407 0.50426 0.0
H555 H 0.7177 0.03462 0.50774 0.0
H556 H 0.9039 0.08122 0.47714 0.0
H557 H 0.86807 0.10228 0.44765 0.0
H558 H 0.87093 0.12214 0.4852 0.0
H559 H 0.75486 0.97974 0.49144 0.0
H560 H 0.76722 0.99003 0.45174 0.0
H561 H 0.81484 0.97525 0.4766 0.0
H562 H 0.87324 0.04341 0.3717 0.0
H563 H 0.97211 0.99809 0.43768 0.0
H564 H 0.79277 0.08154 0.41797 0.0
H565 H 0.7686 0.04116 0.4199 0.0
H566 H 0.79198 0.05532 0.38364 0.0
H567 H 0.92659 0.02449 0.50061 0.0
H568 H 0.9442 0.98113 0.48839 0.0
H569 H 0.88418 0.99367 0.50138 0.0
loop_
_geom_bond_atom_site_label_1
_geom_bond_atom_site_label_2
_geom_bond_distance
_geom_bond_site_symmetry_2
_ccdc_geom_bond_type
C0 C1 1.384 . S
C0 H13 0.947 . S
C0 C35 1.382 1_655 S
C1 C0 1.384 . S
C1 C2 1.389 . S
C2 C1 1.389 . S
C2 C3 1.372 1_556 S
C2 H14 0.948 1_556 S
C3 C2 1.372 1_554 S
C3 H15 0.950 . S
C3 C34 1.383 1_655 S
H4 C23 0.947 . S
H5 C24 0.946 . S
H6 C26 0.953 . S
H7 C27 0.945 . S
H8 C29 0.952 . S
H9 C30 0.946 1_554 S
H10 C32 0.950 . S
H11 C33 0.948 . S
H12 C35 0.951 . S
H13 C0 0.947 . S
H14 C2 0.948 1_554 S
H15 C3 0.950 . S
N16 C19 1.382 . S
N16 C21 1.363 . S
N17 C19 1.371 . S
N17 C20 1.372 . S
N18 C20 1.361 . S
N18 C21 1.377 . S
C19 N16 1.382 . S
C19 N17 1.371 . S
C19 C22 1.480 . S
C20 N17 1.372 . S
C20 N18 1.361 . S
C20 C28 1.457 . S
C21 N16 1.363 . S
C21 N18 1.377 . S
C21 C34 1.479 . S
C22 C19 1.480 . S
C22 C23 1.383 . S
C22 C27 1.385 . S
C23 H4 0.947 . S
C23 C22 1.383 . S
C23 C24 1.388 . S
C24 H5 0.946 . S
C24 C23 1.388 . S
C24 C25 1.384 . S
C25 C24 1.384 . S
C25 C26 1.377 . S
C26 H6 0.953 . S
C26 C25 1.377 . S
C26 C27 1.369 . S
C27 H7 0.945 . S
C27 C22 1.385 . S
C27 C26 1.369 . S
C28 C20 1.457 . S
C28 C29 1.372 . S
C28 C33 1.364 1_554 S
C29 H8 0.952 . S
C29 C28 1.372 . S
C29 C30 1.385 1_554 S
C30 H9 0.946 1_556 S
C30 C29 1.385 1_556 S
C30 C31 1.393 . S
C31 C30 1.393 . S
C31 C32 1.372 . S
C32 H10 0.950 . S
C32 C31 1.372 . S
C32 C33 1.379 . S
C33 H11 0.948 . S
C33 C28 1.364 1_556 S
C33 C32 1.379 . S
C34 C3 1.383 1_455 S
C34 C21 1.479 . S
C34 C35 1.398 1_554 S
C35 C0 1.382 1_455 S
C35 H12 0.951 . S
C35 C34 1.398 1_556 S
C36 C37 1.384 . S
C36 H49 0.947 . S
C36 C71 1.382 . S
C37 C36 1.384 . S
C37 C38 1.371 1_556 S
C38 C37 1.371 1_554 S
C38 C39 1.381 . S
C38 H50 0.956 . S
C39 C38 1.381 . S
C39 H51 0.950 . S
C39 C70 1.391 . S
H40 C59 0.947 . S
H41 C60 0.946 . S
H42 C62 0.953 . S
H43 C63 0.945 . S
H44 C65 0.952 . S
H45 C66 0.949 1_554 S
H46 C68 0.950 . S
H47 C69 0.948 . S
H48 C71 0.951 . S
H49 C36 0.947 . S
H50 C38 0.956 . S
H51 C39 0.950 . S
N52 C55 1.382 1_655 S
N52 C57 1.363 . S
N53 C55 1.371 . S
N53 C56 1.372 . S
N54 C56 1.361 1_556 S
N54 C57 1.377 1_456 S
C55 N52 1.382 1_455 S
C55 N53 1.371 . S
C55 C58 1.480 . S
C56 N53 1.372 . S
C56 N54 1.361 1_554 S
C56 C64 1.457 1_554 S
C57 N52 1.363 . S
C57 N54 1.377 1_654 S
C57 C70 1.486 . S
C58 C55 1.480 . S
C58 C59 1.383 1_455 S
C58 C63 1.385 . S
C59 H40 0.947 . S
C59 C58 1.383 1_655 S
C59 C60 1.388 . S
C60 H41 0.946 . S
C60 C59 1.388 . S
C60 C61 1.384 1_655 S
C61 C60 1.384 1_455 S
C61 C62 1.377 . S
C62 H42 0.953 . S
C62 C61 1.377 . S
C62 C63 1.369 . S
C63 H43 0.945 . S
C63 C58 1.385 . S
C63 C62 1.369 . S
C64 C56 1.457 1_556 S
C64 C65 1.372 1_556 S
C64 C69 1.364 . S
C65 H44 0.952 . S
C65 C64 1.372 1_554 S
C65 C66 1.389 1_554 S
C66 H45 0.949 1_556 S
C66 C65 1.389 1_556 S
C66 C67 1.387 . S
C67 C66 1.387 . S
C67 C68 1.372 . S
C68 H46 0.950 . S
C68 C67 1.372 . S
C68 C69 1.379 . S
C69 H47 0.948 . S
C69 C64 1.364 . S
C69 C68 1.379 . S
C70 C39 1.391 . S
C70 C57 1.486 . S
C70 C71 1.381 1_554 S
C71 C36 1.382 . S
C71 H48 0.951 . S
C71 C70 1.381 1_556 S
C72 C73 1.384 . S
C72 H85 0.947 . S
C72 C107 1.382 . S
C73 C72 1.384 . S
C73 C74 1.378 . S
C74 C73 1.378 . S
C74 C75 1.378 . S
C74 H86 0.952 . S
C75 C74 1.378 . S
C75 H87 0.950 . S
C75 C106 1.383 . S
H76 C95 0.947 . S
H77 C96 0.946 . S
H78 C98 0.953 . S
H79 C99 0.945 . S
H80 C101 0.952 . S
H81 C102 0.949 . S
H82 C104 0.950 . S
H83 C105 0.948 . S
H84 C107 0.951 . S
H85 C72 0.947 . S
H86 C74 0.952 . S
H87 C75 0.950 . S
N88 C91 1.382 . S
N88 C93 1.363 . S
N89 C91 1.371 . S
N89 C92 1.372 . S
N90 C92 1.361 . S
N90 C93 1.377 . S
C91 N88 1.382 . S
C91 N89 1.371 . S
C91 C94 1.480 . S
C92 N89 1.372 . S
C92 N90 1.361 . S
C92 C100 1.457 . S
C93 N88 1.363 . S
C93 N90 1.377 . S
C93 C106 1.479 . S
C94 C91 1.480 . S
C94 C95 1.383 . S
C94 C99 1.385 . S
C95 H76 0.947 . S
C95 C94 1.383 . S
C95 C96 1.388 . S
C96 H77 0.946 . S
C96 C95 1.388 . S
C96 C97 1.384 . S
C97 C96 1.384 . S
C97 C98 1.377 . S
C98 H78 0.953 . S
C98 C97 1.377 . S
C98 C99 1.369 . S
C99 H79 0.945 . S
C99 C94 1.385 . S
C99 C98 1.369 . S
C100 C92 1.457 . S
C100 C101 1.372 . S
C100 C105 1.364 . S
C101 H80 0.952 . S
C101 C100 1.372 . S
C101 C102 1.389 . S
C102 H81 0.949 . S
C102 C101 1.389 . S
C102 C103 1.387 . S
C103 C102 1.387 . S
C103 C104 1.372 . S
C104 H82 0.950 . S
C104 C103 1.372 . S
C104 C105 1.379 . S
C105 H83 0.948 . S
C105 C100 1.364 . S
C105 C104 1.379 . S
C106 C75 1.383 . S
C106 C93 1.479 . S
C106 C107 1.398 . S
C107 C72 1.382 . S
C107 H84 0.951 . S
C107 C106 1.398 . S
C108 C109 1.384 . S
C108 H121 0.947 . S
C108 C143 1.382 . S
C109 C108 1.384 . S
C109 C110 1.378 . S
C110 C109 1.378 . S
C110 C111 1.378 . S
C110 H122 0.952 . S
C111 C110 1.378 . S
C111 H123 0.950 . S
C111 C142 1.383 . S
H112 C131 0.947 . S
H113 C132 0.946 . S
H114 C134 0.953 . S
H115 C135 0.945 . S
H116 C137 0.952 . S
H117 C138 0.949 . S
H118 C140 0.950 . S
H119 C141 0.948 . S
H120 C143 0.951 . S
H121 C108 0.947 . S
H122 C110 0.952 . S
H123 C111 0.950 . S
N124 C127 1.382 . S
N124 C129 1.363 . S
N125 C127 1.371 . S
N125 C128 1.372 . S
N126 C128 1.361 . S
N126 C129 1.377 . S
C127 N124 1.382 . S
C127 N125 1.371 . S
C127 C130 1.480 . S
C128 N125 1.372 . S
C128 N126 1.361 . S
C128 C136 1.457 . S
C129 N124 1.363 . S
C129 N126 1.377 . S
C129 C142 1.479 . S
C130 C127 1.480 . S
C130 C131 1.383 . S
C130 C135 1.385 . S
C131 H112 0.947 . S
C131 C130 1.383 . S
C131 C132 1.388 . S
C132 H113 0.946 . S
C132 C131 1.388 . S
C132 C133 1.384 . S
C133 C132 1.384 . S
C133 C134 1.377 . S
C134 H114 0.953 . S
C134 C133 1.377 . S
C134 C135 1.369 . S
C135 H115 0.945 . S
C135 C130 1.385 . S
C135 C134 1.369 . S
C136 C128 1.457 . S
C136 C137 1.372 . S
C136 C141 1.364 . S
C137 H116 0.952 . S
C137 C136 1.372 . S
C137 C138 1.389 . S
C138 H117 0.949 . S
C138 C137 1.389 . S
C138 C139 1.387 . S
C139 C138 1.387 . S
C139 C140 1.372 . S
C140 H118 0.950 . S
C140 C139 1.372 . S
C140 C141 1.379 . S
C141 H119 0.948 . S
C141 C136 1.364 . S
C141 C140 1.379 . S
C142 C111 1.383 . S
C142 C129 1.479 . S
C142 C143 1.398 . S
C143 C108 1.382 . S
C143 H120 0.951 . S
C143 C142 1.398 . S
Zn144 O150 1.920 . S
Zn144 O156 1.898 . S
Zn144 O159 1.905 1_455 S
Zn145 O153 1.905 . S
Zn145 O154 1.898 . S
Zn145 O162 1.920 . S
Zn146 O149 2.080 . S
Zn146 O152 2.114 1_545 S
Zn146 O155 2.120 1_545 S
Zn146 O157 2.120 . S
Zn146 O158 2.114 . S
Zn146 O161 2.080 1_545 S
C147 O152 1.166 . S
C147 O153 1.182 . S
C148 O154 1.167 . S
C148 O155 1.299 . S
O149 Zn146 2.080 . S
O149 C163 1.305 . S
O150 Zn144 1.920 . S
O150 C163 1.234 . S
C151 O156 1.167 . S
C151 O157 1.299 . S
O152 Zn146 2.114 1_565 S
O152 C147 1.166 . S
O153 Zn145 1.905 . S
O153 C147 1.182 . S
O154 Zn145 1.898 . S
O154 C148 1.167 . S
O155 Zn146 2.120 1_565 S
O155 C148 1.299 . S
O156 Zn144 1.898 . S
O156 C151 1.167 . S
O157 Zn146 2.120 . S
O157 C151 1.299 . S
O158 Zn146 2.114 . S
O158 C160 1.166 1_455 S
O159 Zn144 1.905 1_655 S
O159 C160 1.182 . S
C160 O158 1.166 1_655 S
C160 O159 1.182 . S
O161 Zn146 2.080 1_565 S
O161 C164 1.305 . S
O162 Zn145 1.920 . S
O162 C164 1.234 . S
C163 O149 1.305 . S
C163 O150 1.234 . S
C164 O161 1.305 . S
C164 O162 1.234 . S
Zn165 O171 1.920 . S
Zn165 O177 1.898 . S
Zn165 O180 1.905 . S
Zn166 O174 1.905 . S
Zn166 O175 1.898 . S
Zn166 O183 1.920 . S
Zn167 O170 2.080 . S
Zn167 O173 2.114 . S
Zn167 O176 2.120 . S
Zn167 O178 2.120 . S
Zn167 O179 2.114 . S
Zn167 O182 2.080 . S
C168 O173 1.166 . S
C168 O174 1.182 . S
C169 O175 1.167 . S
C169 O176 1.299 . S
O170 Zn167 2.080 . S
O170 C184 1.305 . S
O171 Zn165 1.920 . S
O171 C184 1.234 . S
C172 O177 1.167 . S
C172 O178 1.299 . S
O173 Zn167 2.114 . S
O173 C168 1.166 . S
O174 Zn166 1.905 . S
O174 C168 1.182 . S
O175 Zn166 1.898 . S
O175 C169 1.167 . S
O176 Zn167 2.120 . S
O176 C169 1.299 . S
O177 Zn165 1.898 . S
O177 C172 1.167 . S
O178 Zn167 2.120 . S
O178 C172 1.299 . S
O179 Zn167 2.114 . S
O179 C181 1.166 . S
O180 Zn165 1.905 . S
O180 C181 1.182 . S
C181 O179 1.166 . S
C181 O180 1.182 . S
O182 Zn167 2.080 . S
O182 C185 1.305 . S
O183 Zn166 1.920 . S
O183 C185 1.234 . S
C184 O170 1.305 . S
C184 O171 1.234 . S
C185 O182 1.305 . S
C185 O183 1.234 . S
C186 C187 1.391 . S
C186 C188 1.394 . S
C186 H202 0.931 . S
C187 C186 1.391 . S
C187 C191 1.376 . S
C188 C186 1.394 . S
C188 C189 1.369 . S
C188 C192 1.531 . S
C189 C188 1.369 . S
C189 C190 1.410 . S
C189 C197 1.503 . S
C190 C189 1.410 . S
C190 C191 1.392 . S
C190 C193 1.511 . S
C191 C187 1.376 . S
C191 C190 1.392 . S
C191 H203 0.929 . S
C192 C188 1.531 . S
C192 H204 0.960 . S
C192 H205 0.962 . S
C192 H206 0.960 . S
C193 C190 1.511 . S
C193 H207 0.961 . S
C193 H208 0.961 . S
C193 H209 0.961 . S
C194 C195 1.370 . S
C194 C196 1.363 . S
C194 H210 0.931 . S
C195 C194 1.370 . S
C195 C199 1.408 . S
C196 C194 1.363 . S
C196 C197 1.370 . S
C196 C200 1.524 . S
C197 C189 1.503 . S
C197 C196 1.370 . S
C197 C198 1.403 . S
C198 C197 1.403 . S
C198 C199 1.404 . S
C198 C201 1.539 . S
C199 C195 1.408 . S
C199 C198 1.404 . S
C199 H211 0.930 . S
C200 C196 1.524 . S
C200 H212 0.956 . S
C200 H213 0.961 . S
C200 H214 0.961 . S
C201 C198 1.539 . S
C201 H215 0.958 . S
C201 H216 0.961 . S
C201 H217 0.960 . S
H202 C186 0.931 . S
H203 C191 0.929 . S
H204 C192 0.960 . S
H205 C192 0.962 . S
H206 C192 0.960 . S
H207 C193 0.961 . S
H208 C193 0.961 . S
H209 C193 0.961 . S
H210 C194 0.931 . S
H211 C199 0.930 . S
H212 C200 0.956 . S
H213 C200 0.961 . S
H214 C200 0.961 . S
H215 C201 0.958 . S
H216 C201 0.961 . S
H217 C201 0.960 . S
C218 C219 1.391 1_655 S
C218 C220 1.394 . S
C218 H234 0.931 . S
C219 C218 1.391 1_455 S
C219 C223 1.376 . S
C220 C218 1.394 . S
C220 C221 1.369 1_655 S
C220 C224 1.531 . S
C221 C220 1.369 1_455 S
C221 C222 1.410 . S
C221 C229 1.503 . S
C222 C221 1.410 . S
C222 C223 1.392 . S
C222 C225 1.511 . S
C223 C219 1.376 . S
C223 C222 1.392 . S
C223 H235 0.929 . S
C224 C220 1.531 . S
C224 H236 0.960 . S
C224 H237 0.962 . S
C224 H238 0.960 . S
C225 C222 1.511 . S
C225 H239 0.961 . S
C225 H240 0.961 . S
C225 H241 0.961 . S
C226 C227 1.370 . S
C226 C228 1.363 . S
C226 H242 0.931 1_455 S
C227 C226 1.370 . S
C227 C231 1.408 . S
C228 C226 1.363 . S
C228 C229 1.370 . S
C228 C232 1.524 1_455 S
C229 C221 1.503 . S
C229 C228 1.370 . S
C229 C230 1.403 . S
C230 C229 1.403 . S
C230 C231 1.404 . S
C230 C233 1.539 . S
C231 C227 1.408 . S
C231 C230 1.404 . S
C231 H243 0.930 . S
C232 C228 1.524 1_655 S
C232 H244 0.956 . S
C232 H245 0.961 . S
C232 H246 0.961 . S
C233 C230 1.539 . S
C233 H247 0.958 . S
C233 H248 0.961 . S
C233 H249 0.960 . S
H234 C218 0.931 . S
H235 C223 0.929 . S
H236 C224 0.960 . S
H237 C224 0.962 . S
H238 C224 0.960 . S
H239 C225 0.961 . S
H240 C225 0.961 . S
H241 C225 0.961 . S
H242 C226 0.931 1_655 S
H243 C231 0.930 . S
H244 C232 0.956 . S
H245 C232 0.961 . S
H246 C232 0.961 . S
H247 C233 0.958 . S
H248 C233 0.961 . S
H249 C233 0.960 . S
C250 C251 1.391 . S
C250 C252 1.394 . S
C250 H266 0.931 . S
C251 C250 1.391 . S
C251 C255 1.376 . S
C252 C250 1.394 . S
C252 C253 1.369 . S
C252 C256 1.531 . S
C253 C252 1.369 . S
C253 C254 1.410 . S
C253 C261 1.503 . S
C254 C253 1.410 . S
C254 C255 1.392 . S
C254 C257 1.511 . S
C255 C251 1.376 . S
C255 C254 1.392 . S
C255 H267 0.929 . S
C256 C252 1.531 . S
C256 H268 0.960 . S
C256 H269 0.962 . S
C256 H270 0.960 . S
C257 C254 1.511 . S
C257 H271 0.961 . S
C257 H272 0.961 . S
C257 H273 0.961 . S
C258 C259 1.370 . S
C258 C260 1.363 . S
C258 H274 0.931 . S
C259 C258 1.370 . S
C259 C263 1.408 . S
C260 C258 1.363 . S
C260 C261 1.370 . S
C260 C264 1.524 . S
C261 C253 1.503 . S
C261 C260 1.370 . S
C261 C262 1.403 . S
C262 C261 1.403 . S
C262 C263 1.404 . S
C262 C265 1.539 . S
C263 C259 1.408 . S
C263 C262 1.404 . S
C263 H275 0.930 . S
C264 C260 1.524 . S
C264 H276 0.956 . S
C264 H277 0.961 . S
C264 H278 0.961 . S
C265 C262 1.539 . S
C265 H279 0.958 . S
C265 H280 0.961 . S
C265 H281 0.960 . S
H266 C250 0.931 . S
H267 C255 0.929 . S
H268 C256 0.960 . S
H269 C256 0.962 . S
H270 C256 0.960 . S
H271 C257 0.961 . S
H272 C257 0.961 . S
H273 C257 0.961 . S
H274 C258 0.931 . S
H275 C263 0.930 . S
H276 C264 0.956 . S
H277 C264 0.961 . S
H278 C264 0.961 . S
H279 C265 0.958 . S
H280 C265 0.961 . S
H281 C265 0.960 . S
C282 C283 1.391 . S
C282 C284 1.394 . S
C282 H298 0.931 . S
C283 C282 1.391 . S
C283 C287 1.376 . S
C284 C282 1.394 . S
C284 C285 1.369 . S
C284 C288 1.531 . S
C285 C284 1.369 . S
C285 C286 1.410 . S
C285 C293 1.503 . S
C286 C285 1.410 . S
C286 C287 1.392 . S
C286 C289 1.511 . S
C287 C283 1.376 . S
C287 C286 1.392 . S
C287 H299 0.929 . S
C288 C284 1.531 . S
C288 H300 0.960 . S
C288 H301 0.962 . S
C288 H302 0.960 . S
C289 C286 1.511 . S
C289 H303 0.961 . S
C289 H304 0.961 . S
C289 H305 0.961 . S
C290 C291 1.370 . S
C290 C292 1.363 . S
C290 H306 0.931 . S
C291 C290 1.370 . S
C291 C295 1.408 . S
C292 C290 1.363 . S
C292 C293 1.370 . S
C292 C296 1.524 . S
C293 C285 1.503 . S
C293 C292 1.370 . S
C293 C294 1.403 . S
C294 C293 1.403 . S
C294 C295 1.404 . S
C294 C297 1.539 . S
C295 C291 1.408 . S
C295 C294 1.404 . S
C295 H307 0.930 . S
C296 C292 1.524 . S
C296 H308 0.956 . S
C296 H309 0.961 . S
C296 H310 0.961 . S
C297 C294 1.539 . S
C297 H311 0.958 . S
C297 H312 0.961 . S
C297 H313 0.960 . S
H298 C282 0.931 . S
H299 C287 0.929 . S
H300 C288 0.960 . S
H301 C288 0.962 . S
H302 C288 0.960 . S
H303 C289 0.961 . S
H304 C289 0.961 . S
H305 C289 0.961 . S
H306 C290 0.931 . S
H307 C295 0.930 . S
H308 C296 0.956 . S
H309 C296 0.961 . S
H310 C296 0.961 . S
H311 C297 0.958 . S
H312 C297 0.961 . S
H313 C297 0.960 . S
C314 C315 1.391 . S
C314 C316 1.394 . S
C314 H330 0.931 . S
C315 C314 1.391 . S
C315 C319 1.376 . S
C316 C314 1.394 . S
C316 C317 1.369 . S
C316 C320 1.531 . S
C317 C316 1.369 . S
C317 C318 1.410 . S
C317 C325 1.503 . S
C318 C317 1.410 . S
C318 C319 1.392 . S
C318 C321 1.511 1_556 S
C319 C315 1.376 . S
C319 C318 1.392 . S
C319 H331 0.929 1_556 S
C320 C316 1.531 . S
C320 H332 0.960 . S
C320 H333 0.962 . S
C320 H334 0.960 . S
C321 C318 1.511 1_554 S
C321 H335 0.961 . S
C321 H336 0.961 1_554 S
C321 H337 0.961 . S
C322 C323 1.370 . S
C322 C324 1.363 . S
C322 H338 0.931 . S
C323 C322 1.370 . S
C323 C327 1.408 . S
C324 C322 1.363 . S
C324 C325 1.370 . S
C324 C328 1.524 . S
C325 C317 1.503 . S
C325 C324 1.370 . S
C325 C326 1.403 . S
C326 C325 1.403 . S
C326 C327 1.404 . S
C326 C329 1.539 . S
C327 C323 1.408 . S
C327 C326 1.404 . S
C327 H339 0.930 . S
C328 C324 1.524 . S
C328 H340 0.956 . S
C328 H341 0.961 . S
C328 H342 0.961 . S
C329 C326 1.539 . S
C329 H343 0.958 . S
C329 H344 0.961 . S
C329 H345 0.960 . S
H330 C314 0.931 . S
H331 C319 0.929 1_554 S
H332 C320 0.960 . S
H333 C320 0.962 . S
H334 C320 0.960 . S
H335 C321 0.961 . S
H336 C321 0.961 1_556 S
H337 C321 0.961 . S
H338 C322 0.931 . S
H339 C327 0.930 . S
H340 C328 0.956 . S
H341 C328 0.961 . S
H342 C328 0.961 . S
H343 C329 0.958 . S
H344 C329 0.961 . S
H345 C329 0.960 . S
C346 C347 1.391 . S
C346 C348 1.394 . S
C346 H362 0.931 1_556 S
C347 C346 1.391 . S
C347 C351 1.376 . S
C348 C346 1.394 . S
C348 C349 1.369 . S
C348 C352 1.531 . S
C349 C348 1.369 . S
C349 C350 1.410 . S
C349 C357 1.503 . S
C350 C349 1.410 . S
C350 C351 1.392 . S
C350 C353 1.511 . S
C351 C347 1.376 . S
C351 C350 1.392 . S
C351 H363 0.929 . S
C352 C348 1.531 . S
C352 H364 0.960 . S
C352 H365 0.962 1_556 S
C352 H366 0.960 1_556 S
C353 C350 1.511 . S
C353 H367 0.961 . S
C353 H368 0.961 . S
C353 H369 0.961 . S
C354 C355 1.370 . S
C354 C356 1.363 . S
C354 H370 0.931 . S
C355 C354 1.370 . S
C355 C359 1.408 . S
C356 C354 1.363 . S
C356 C357 1.370 . S
C356 C360 1.524 . S
C357 C349 1.503 . S
C357 C356 1.370 . S
C357 C358 1.403 . S
C358 C357 1.403 . S
C358 C359 1.404 . S
C358 C361 1.539 . S
C359 C355 1.408 . S
C359 C358 1.404 . S
C359 H371 0.930 . S
C360 C356 1.524 . S
C360 H372 0.956 . S
C360 H373 0.961 . S
C360 H374 0.961 . S
C361 C358 1.539 . S
C361 H375 0.958 . S
C361 H376 0.961 . S
C361 H377 0.960 . S
H362 C346 0.931 1_554 S
H363 C351 0.929 . S
H364 C352 0.960 . S
H365 C352 0.962 1_554 S
H366 C352 0.960 1_554 S
H367 C353 0.961 . S
H368 C353 0.961 . S
H369 C353 0.961 . S
H370 C354 0.931 . S
H371 C359 0.930 . S
H372 C360 0.956 . S
H373 C360 0.961 . S
H374 C360 0.961 . S
H375 C361 0.958 . S
H376 C361 0.961 . S
H377 C361 0.960 . S
C378 C379 1.391 . S
C378 C380 1.394 . S
C378 H394 0.931 . S
C379 C378 1.391 . S
C379 C383 1.376 . S
C380 C378 1.394 . S
C380 C381 1.369 . S
C380 C384 1.531 . S
C381 C380 1.369 . S
C381 C382 1.410 . S
C381 C389 1.503 . S
C382 C381 1.410 . S
C382 C383 1.392 . S
C382 C385 1.511 . S
C383 C379 1.376 . S
C383 C382 1.392 . S
C383 H395 0.929 . S
C384 C380 1.531 . S
C384 H396 0.960 . S
C384 H397 0.962 . S
C384 H398 0.960 . S
C385 C382 1.511 . S
C385 H399 0.961 . S
C385 H400 0.961 . S
C385 H401 0.961 . S
C386 C387 1.370 . S
C386 C388 1.363 . S
C386 H402 0.931 . S
C387 C386 1.370 . S
C387 C391 1.408 . S
C388 C386 1.363 . S
C388 C389 1.370 . S
C388 C392 1.524 . S
C389 C381 1.503 . S
C389 C388 1.370 . S
C389 C390 1.403 . S
C390 C389 1.403 . S
C390 C391 1.404 . S
C390 C393 1.539 . S
C391 C387 1.408 . S
C391 C390 1.404 . S
C391 H403 0.930 . S
C392 C388 1.524 . S
C392 H404 0.956 . S
C392 H405 0.961 . S
C392 H406 0.961 . S
C393 C390 1.539 . S
C393 H407 0.958 . S
C393 H408 0.961 . S
C393 H409 0.960 . S
H394 C378 0.931 . S
H395 C383 0.929 . S
H396 C384 0.960 . S
H397 C384 0.962 . S
H398 C384 0.960 . S
H399 C385 0.961 . S
H400 C385 0.961 . S
H401 C385 0.961 . S
H402 C386 0.931 . S
H403 C391 0.930 . S
H404 C392 0.956 . S
H405 C392 0.961 . S
H406 C392 0.961 . S
H407 C393 0.958 . S
H408 C393 0.961 . S
H409 C393 0.960 . S
C410 C411 1.391 . S
C410 C412 1.394 . S
C410 H426 0.931 . S
C411 C410 1.391 . S
C411 C415 1.376 . S
C412 C410 1.394 . S
C412 C413 1.369 . S
C412 C416 1.531 . S
C413 C412 1.369 . S
C413 C414 1.410 . S
C413 C421 1.503 . S
C414 C413 1.410 . S
C414 C415 1.392 . S
C414 C417 1.511 . S
C415 C411 1.376 . S
C415 C414 1.392 . S
C415 H427 0.929 . S
C416 C412 1.531 . S
C416 H428 0.960 . S
C416 H429 0.962 . S
C416 H430 0.960 . S
C417 C414 1.511 . S
C417 H431 0.961 . S
C417 H432 0.961 . S
C417 H433 0.961 . S
C418 C419 1.370 . S
C418 C420 1.363 . S
C418 H434 0.931 . S
C419 C418 1.370 . S
C419 C423 1.408 . S
C420 C418 1.363 . S
C420 C421 1.370 . S
C420 C424 1.524 . S
C421 C413 1.503 . S
C421 C420 1.370 . S
C421 C422 1.403 . S
C422 C421 1.403 . S
C422 C423 1.404 . S
C422 C425 1.539 . S
C423 C419 1.408 . S
C423 C422 1.404 . S
C423 H435 0.930 . S
C424 C420 1.524 . S
C424 H436 0.956 . S
C424 H437 0.961 . S
C424 H438 0.961 . S
C425 C422 1.539 . S
C425 H439 0.958 . S
C425 H440 0.961 . S
C425 H441 0.960 . S
H426 C410 0.931 . S
H427 C415 0.929 . S
H428 C416 0.960 . S
H429 C416 0.962 . S
H430 C416 0.960 . S
H431 C417 0.961 . S
H432 C417 0.961 . S
H433 C417 0.961 . S
H434 C418 0.931 . S
H435 C423 0.930 . S
H436 C424 0.956 . S
H437 C424 0.961 . S
H438 C424 0.961 . S
H439 C425 0.958 . S
H440 C425 0.961 . S
H441 C425 0.960 . S
C442 C443 1.391 . S
C442 C444 1.394 . S
C442 H458 0.931 . S
C443 C442 1.391 . S
C443 C447 1.376 . S
C444 C442 1.394 . S
C444 C445 1.369 . S
C444 C448 1.531 . S
C445 C444 1.369 . S
C445 C446 1.410 . S
C445 C453 1.503 . S
C446 C445 1.410 . S
C446 C447 1.392 . S
C446 C449 1.511 . S
C447 C443 1.376 . S
C447 C446 1.392 . S
C447 H459 0.929 . S
C448 C444 1.531 . S
C448 H460 0.960 . S
C448 H461 0.962 . S
C448 H462 0.960 . S
C449 C446 1.511 . S
C449 H463 0.961 . S
C449 H464 0.961 . S
C449 H465 0.961 . S
C450 C451 1.370 . S
C450 C452 1.363 . S
C450 H466 0.931 . S
C451 C450 1.370 . S
C451 C455 1.408 . S
C452 C450 1.363 . S
C452 C453 1.370 . S
C452 C456 1.524 . S
C453 C445 1.503 . S
C453 C452 1.370 . S
C453 C454 1.403 . S
C454 C453 1.403 . S
C454 C455 1.404 . S
C454 C457 1.539 . S
C455 C451 1.408 . S
C455 C454 1.404 . S
C455 H467 0.930 . S
C456 C452 1.524 . S
C456 H468 0.956 . S
C456 H469 0.961 . S
C456 H470 0.961 . S
C457 C454 1.539 . S
C457 H471 0.958 . S
C457 H472 0.961 . S
C457 H473 0.960 . S
H458 C442 0.931 . S
H459 C447 0.929 . S
H460 C448 0.960 . S
H461 C448 0.962 . S
H462 C448 0.960 . S
H463 C449 0.961 . S
H464 C449 0.961 . S
H465 C449 0.961 . S
H466 C450 0.931 . S
H467 C455 0.930 . S
H468 C456 0.956 . S
H469 C456 0.961 . S
H470 C456 0.961 . S
H471 C457 0.958 . S
H472 C457 0.961 . S
H473 C457 0.960 . S
C474 C475 1.391 . S
C474 C476 1.394 . S
C474 H490 0.931 . S
C475 C474 1.391 . S
C475 C479 1.376 . S
C476 C474 1.394 . S
C476 C477 1.369 . S
C476 C480 1.531 . S
C477 C476 1.369 . S
C477 C478 1.410 . S
C477 C485 1.503 . S
C478 C477 1.410 . S
C478 C479 1.392 . S
C478 C481 1.511 . S
C479 C475 1.376 . S
C479 C478 1.392 . S
C479 H491 0.929 . S
C480 C476 1.531 . S
C480 H492 0.960 . S
C480 H493 0.962 . S
C480 H494 0.960 . S
C481 C478 1.511 . S
C481 H495 0.961 . S
C481 H496 0.961 . S
C481 H497 0.961 . S
C482 C483 1.370 . S
C482 C484 1.363 . S
C482 H498 0.931 . S
C483 C482 1.370 . S
C483 C487 1.408 . S
C484 C482 1.363 . S
C484 C485 1.370 . S
C484 C488 1.524 . S
C485 C477 1.503 . S
C485 C484 1.370 . S
C485 C486 1.403 . S
C486 C485 1.403 . S
C486 C487 1.404 . S
C486 C489 1.539 . S
C487 C483 1.408 . S
C487 C486 1.404 . S
C487 H499 0.930 . S
C488 C484 1.524 . S
C488 H500 0.956 . S
C488 H501 0.961 . S
C488 H502 0.961 . S
C489 C486 1.539 . S
C489 H503 0.958 . S
C489 H504 0.961 . S
C489 H505 0.960 . S
H490 C474 0.931 . S
H491 C479 0.929 . S
H492 C480 0.960 . S
H493 C480 0.962 . S
H494 C480 0.960 . S
H495 C481 0.961 . S
H496 C481 0.961 . S
H497 C481 0.961 . S
H498 C482 0.931 . S
H499 C487 0.930 . S
H500 C488 0.956 . S
H501 C488 0.961 . S
H502 C488 0.961 . S
H503 C489 0.958 . S
H504 C489 0.961 . S
H505 C489 0.960 . S
C506 C507 1.391 . S
C506 C508 1.394 . S
C506 H522 0.931 . S
C507 C506 1.391 . S
C507 C511 1.376 . S
C508 C506 1.394 . S
C508 C509 1.369 . S
C508 C512 1.531 . S
C509 C508 1.369 . S
C509 C510 1.410 . S
C509 C517 1.503 . S
C510 C509 1.410 . S
C510 C511 1.392 . S
C510 C513 1.511 . S
C511 C507 1.376 . S
C511 C510 1.392 . S
C511 H523 0.929 . S
C512 C508 1.531 . S
C512 H524 0.960 . S
C512 H525 0.962 . S
C512 H526 0.960 . S
C513 C510 1.511 . S
C513 H527 0.961 . S
C513 H528 0.961 . S
C513 H529 0.961 . S
C514 C515 1.370 . S
C514 C516 1.363 . S
C514 H530 0.931 . S
C515 C514 1.370 . S
C515 C519 1.408 . S
C516 C514 1.363 . S
C516 C517 1.370 . S
C516 C520 1.524 . S
C517 C509 1.503 . S
C517 C516 1.370 . S
C517 C518 1.403 . S
C518 C517 1.403 . S
C518 C519 1.404 . S
C518 C521 1.539 . S
C519 C515 1.408 . S
C519 C518 1.404 . S
C519 H531 0.930 . S
C520 C516 1.524 . S
C520 H532 0.956 . S
C520 H533 0.961 . S
C520 H534 0.961 . S
C521 C518 1.539 . S
C521 H535 0.958 . S
C521 H536 0.961 . S
C521 H537 0.960 . S
H522 C506 0.931 . S
H523 C511 0.929 . S
H524 C512 0.960 . S
H525 C512 0.962 . S
H526 C512 0.960 . S
H527 C513 0.961 . S
H528 C513 0.961 . S
H529 C513 0.961 . S
H530 C514 0.931 . S
H531 C519 0.930 . S
H532 C520 0.956 . S
H533 C520 0.961 . S
H534 C520 0.961 . S
H535 C521 0.958 . S
H536 C521 0.961 . S
H537 C521 0.960 . S
C538 C539 1.391 . S
C538 C540 1.394 . S
C538 H554 0.931 . S
C539 C538 1.391 . S
C539 C543 1.376 . S
C540 C538 1.394 . S
C540 C541 1.369 . S
C540 C544 1.531 . S
C541 C540 1.369 . S
C541 C542 1.410 . S
C541 C549 1.503 . S
C542 C541 1.410 . S
C542 C543 1.392 . S
C542 C545 1.511 . S
C543 C539 1.376 . S
C543 C542 1.392 . S
C543 H555 0.929 . S
C544 C540 1.531 . S
C544 H556 0.960 . S
C544 H557 0.962 . S
C544 H558 0.960 . S
C545 C542 1.511 . S
C545 H559 0.961 . S
C545 H560 0.961 . S
C545 H561 0.961 . S
C546 C547 1.370 . S
C546 C548 1.363 . S
C546 H562 0.931 . S
C547 C546 1.370 . S
C547 C551 1.408 . S
C548 C546 1.363 . S
C548 C549 1.370 . S
C548 C552 1.524 . S
C549 C541 1.503 . S
C549 C548 1.370 . S
C549 C550 1.403 . S
C550 C549 1.403 . S
C550 C551 1.404 . S
C550 C553 1.539 . S
C551 C547 1.408 . S
C551 C550 1.404 . S
C551 H563 0.930 . S
C552 C548 1.524 . S
C552 H564 0.956 . S
C552 H565 0.961 . S
C552 H566 0.961 . S
C553 C550 1.539 . S
C553 H567 0.958 . S
C553 H568 0.961 . S
C553 H569 0.960 . S
H554 C538 0.931 . S
H555 C543 0.929 . S
H556 C544 0.960 . S
H557 C544 0.962 . S
H558 C544 0.960 . S
H559 C545 0.961 . S
H560 C545 0.961 . S
H561 C545 0.961 . S
H562 C546 0.931 . S
H563 C551 0.930 . S
H564 C552 0.956 . S
H565 C552 0.961 . S
H566 C552 0.961 . S
H567 C553 0.958 . S
H568 C553 0.961 . S
H569 C553 0.960 . S
C195 C151 1.419 . S
C187 C25 1.486 . S
C227 C147 1.429 . S
C219 C61 1.511 . S
C259 C172 1.428 . S
C251 C97 1.502 . S
C283 C133 1.537 . S
C291 C168 1.450 . S
C315 C31 1.156 . S
C323 C169 1.104 . S
C355 C184 1.065 . S
C347 C37 1.263 . S
C379 C1 1.676 . S
C387 C185 1.567 . S
C419 C181 1.572 . S
C411 C67 1.708 . S
C451 C148 1.091 1_655 S
C443 C103 1.178 . S
C475 C109 1.228 . S
C483 C163 1.111 . S
C515 C164 1.567 . S
C507 C73 1.688 . S
C547 C160 1.575 . S
C539 C139 1.718 . S
