# Generated by pormake.
# Topology zzz, (3,6)-cn, num edge types: 1
# Building blocks:
#     Node 0, Type 0, BuildingBlock: KAKCAD_clean_linker_0, # of connection points: 3
#     Node 1, Type 0, BuildingBlock: KAKCAD_clean_linker_0, # of connection points: 3
#     Node 2, Type 0, BuildingBlock: KAKCAD_clean_linker_0, # of connection points: 3
#     Node 3, Type 0, BuildingBlock: KAKCAD_clean_linker_0, # of connection points: 3
#     Node 4, Type 0, BuildingBlock: KAKCAD_clean_linker_0, # of connection points: 3
#     Node 5, Type 0, BuildingBlock: KAKCAD_clean_linker_0, # of connection points: 3
#     Node 6, Type 0, BuildingBlock: KAKCAD_clean_linker_0, # of connection points: 3
#     Node 7, Type 0, BuildingBlock: KAKCAD_clean_linker_0, # of connection points: 3
#     Node 8, Type 1, BuildingBlock: HISSIN_clean_sbu_0, # of connection points: 6
#     Node 9, Type 1, BuildingBlock: HISSIN_clean_sbu_0, # of connection points: 6
#     Node 10, Type 1, BuildingBlock: HISSIN_clean_sbu_0, # of connection points: 6
#     Node 11, Type 1, BuildingBlock: HISSIN_clean_sbu_0, # of connection points: 6
#     Edge 12, Type (0, 1), BuildingBlock: XIVTED_clean_linker_0, # of connection points: 2
#     Edge 13, Type (0, 1), BuildingBlock: XIVTED_clean_linker_0, # of connection points: 2
#     Edge 14, Type (0, 1), BuildingBlock: XIVTED_clean_linker_0, # of connection points: 2
#     Edge 15, Type (0, 1), BuildingBlock: XIVTED_clean_linker_0, # of connection points: 2
#     Edge 16, Type (0, 1), BuildingBlock: XIVTED_clean_linker_0, # of connection points: 2
#     Edge 17, Type (0, 1), BuildingBlock: XIVTED_clean_linker_0, # of connection points: 2
#     Edge 18, Type (0, 1), BuildingBlock: XIVTED_clean_linker_0, # of connection points: 2
#     Edge 19, Type (0, 1), BuildingBlock: XIVTED_clean_linker_0, # of connection points: 2
#     Edge 20, Type (0, 1), BuildingBlock: XIVTED_clean_linker_0, # of connection points: 2
#     Edge 21, Type (0, 1), BuildingBlock: XIVTED_clean_linker_0, # of connection points: 2
#     Edge 22, Type (0, 1), BuildingBlock: XIVTED_clean_linker_0, # of connection points: 2
#     Edge 23, Type (0, 1), BuildingBlock: XIVTED_clean_linker_0, # of connection points: 2
#     Edge 24, Type (0, 1), BuildingBlock: XIVTED_clean_linker_0, # of connection points: 2
#     Edge 25, Type (0, 1), BuildingBlock: XIVTED_clean_linker_0, # of connection points: 2
#     Edge 26, Type (0, 1), BuildingBlock: XIVTED_clean_linker_0, # of connection points: 2
#     Edge 27, Type (0, 1), BuildingBlock: XIVTED_clean_linker_0, # of connection points: 2
#     Edge 28, Type (0, 1), BuildingBlock: XIVTED_clean_linker_0, # of connection points: 2
#     Edge 29, Type (0, 1), BuildingBlock: XIVTED_clean_linker_0, # of connection points: 2
#     Edge 30, Type (0, 1), BuildingBlock: XIVTED_clean_linker_0, # of connection points: 2
#     Edge 31, Type (0, 1), BuildingBlock: XIVTED_clean_linker_0, # of connection points: 2
#     Edge 32, Type (0, 1), BuildingBlock: XIVTED_clean_linker_0, # of connection points: 2
#     Edge 33, Type (0, 1), BuildingBlock: XIVTED_clean_linker_0, # of connection points: 2
#     Edge 34, Type (0, 1), BuildingBlock: XIVTED_clean_linker_0, # of connection points: 2
#     Edge 35, Type (0, 1), BuildingBlock: XIVTED_clean_linker_0, # of connection points: 2
# Relax obj value: 0.391
# Max RMSD: 0.222
# Mean RMSD: 0.190
data_MOF--net-zzz--node1-HISSIN_clean_sbu_0--node2-KAKCAD_clean_linker_0--edge1-XIVTED_clean_linker_0
_symmetry_space_group_name_H-M    P1
_symmetry_Int_Tables_number       1
_symmetry_cell_setting            triclinic
loop_
_symmetry_equiv_pos_as_xyz
'x, y, z'
_cell_length_a     56.697787
_cell_length_b     57.101206
_cell_length_c     21.838189
_cell_angle_alpha  89.844612
_cell_angle_beta   92.099176
_cell_angle_gamma 91.615696
loop_
_atom_site_label
_atom_site_type_symbol
_atom_site_fract_x
_atom_site_fract_y
_atom_site_fract_z
_atom_type_partial_charge
C0 C 0.8018 0.59292 0.04967 0.0
C1 C 0.82373 0.58243 0.05845 0.0
C2 C 0.78563 0.59243 0.09663 0.0
C3 C 0.79087 0.58072 0.15223 0.0
C4 C 0.81335 0.57115 0.16117 0.0
C5 C 0.82963 0.57228 0.11524 0.0
C6 C 0.77252 0.57612 0.19827 0.0
C7 C 0.74886 0.57203 0.17975 0.0
C8 C 0.73192 0.56438 0.22144 0.0
C9 C 0.73936 0.55915 0.28249 0.0
C10 C 0.76315 0.56364 0.30175 0.0
C11 C 0.77906 0.57304 0.26009 0.0
C12 C 0.77352 0.55688 0.36238 0.0
C13 C 0.78224 0.57462 0.40224 0.0
C14 C 0.78242 0.53428 0.36935 0.0
C15 C 0.8013 0.53008 0.41095 0.0
C16 C 0.81171 0.54845 0.4465 0.0
C17 C 0.70695 0.56172 0.19771 0.0
C18 C 0.69754 0.57958 0.16063 0.0
C19 C 0.69388 0.54058 0.20284 0.0
C20 C 0.67264 0.53693 0.16819 0.0
C21 C 0.66412 0.55428 0.12732 0.0
C22 C 0.67672 0.57587 0.12559 0.0
C23 C 0.80103 0.57044 0.44402 0.0
H24 H 0.79691 0.60076 1.00598 0.0
H25 H 0.76875 0.60048 0.0884 0.0
H26 H 0.81807 0.56137 0.20211 0.0
H27 H 0.84624 0.56358 0.12264 0.0
H28 H 0.74357 0.57384 0.13184 0.0
H29 H 0.79714 0.57675 0.27578 0.0
H30 H 0.72688 0.55204 0.31451 0.0
H31 H 0.77607 0.59232 0.39695 0.0
H32 H 0.77651 0.52046 0.33803 0.0
H33 H 0.809 0.51295 0.41116 0.0
H34 H 0.70711 0.59615 0.15591 0.0
H35 H 0.70069 0.52645 0.2309 0.0
H36 H 0.80813 0.58489 0.47162 0.0
H37 H 0.67139 0.5897 0.09458 0.0
H38 H 0.66332 0.52024 0.17231 0.0
C39 C 0.92534 0.77099 0.01004 0.0
C40 C 0.92938 0.79534 0.01044 0.0
C41 C 0.93138 0.75763 0.06184 0.0
C42 C 0.94246 0.76833 0.11396 0.0
C43 C 0.94427 0.79297 0.11568 0.0
C44 C 0.9375 0.80625 0.06498 0.0
C45 C 0.95534 0.75428 0.16174 0.0
C46 C 0.96586 0.7333 0.14605 0.0
C47 C 0.98162 0.72208 0.18665 0.0
C48 C 0.98796 0.73272 0.24368 0.0
C49 C 0.97694 0.75356 0.26101 0.0
C50 C 0.96008 0.76341 0.22065 0.0
C51 C 0.9835 0.76715 0.31783 0.0
C52 C 0.9655 0.77435 0.35569 0.0
C53 C 1.006 0.778 0.32543 0.0
C54 C 0.00982 0.79688 0.3664 0.0
C55 C 0.99114 0.80541 0.40012 0.0
C56 C 0.99109 0.69957 0.16534 0.0
C57 C 0.97559 0.68001 0.15902 0.0
C58 C 0.01256 0.69936 0.13531 0.0
C59 C 0.0178 0.68055 0.09707 0.0
C60 C 1.00156 0.66158 0.08741 0.0
C61 C 0.98075 0.66128 0.12083 0.0
C62 C 0.96923 0.79323 0.39603 0.0
H63 H 0.91896 0.76219 0.96852 0.0
H64 H 0.92871 0.73881 0.05933 0.0
H65 H 0.95291 0.80222 0.15376 0.0
H66 H 0.94115 0.82498 0.06654 0.0
H67 H 0.96277 0.72591 0.10074 0.0
H68 H 0.95156 0.77919 0.23439 0.0
H69 H 1.00095 0.72481 0.27423 0.0
H70 H 0.94793 0.76646 0.35066 0.0
H71 H 0.02009 0.77319 0.29616 0.0
H72 H 0.02692 0.80584 0.36836 0.0
H73 H 0.95859 0.68002 0.18015 0.0
H74 H 0.02455 0.71446 0.13803 0.0
H75 H 0.95457 0.79899 0.42207 0.0
H76 H 0.96758 0.64732 0.11447 0.0
H77 H 0.03421 0.68134 0.07322 0.0
C78 C 0.73985 0.90016 0.02897 0.0
C79 C 0.7155 0.90404 0.02572 0.0
C80 C 0.75401 0.91001 0.07662 0.0
C81 C 0.74415 0.92467 0.12031 0.0
C82 C 0.71937 0.92571 0.12106 0.0
C83 C 0.70525 0.91522 0.07492 0.0
C84 C 0.75915 0.94194 0.15692 0.0
C85 C 0.78006 0.95132 0.13316 0.0
C86 C 0.79228 0.97065 0.16022 0.0
C87 C 0.78215 0.98194 0.2105 0.0
C88 C 0.76127 0.97231 0.2359 0.0
C89 C 0.75085 0.95183 0.21046 0.0
C90 C 0.74788 0.98364 0.28495 0.0
C91 C 0.74572 0.97231 0.34186 0.0
C92 C 0.73153 1.00087 0.26874 0.0
C93 C 0.71266 0.00556 0.30659 0.0
C94 C 0.70959 0.99315 0.36184 0.0
C95 C 0.81505 0.97826 0.13205 0.0
C96 C 0.83138 0.96103 0.11833 0.0
C97 C 0.81885 1.00099 0.10853 0.0
C98 C 0.83764 0.00583 0.06913 0.0
C99 C 0.85275 0.98794 0.0519 0.0
C100 C 0.84973 0.96571 0.07852 0.0
C101 C 0.72699 0.97712 0.37998 0.0
H102 H 0.74816 0.89132 0.99197 0.0
H103 H 0.77287 0.90764 0.07607 0.0
H104 H 0.71067 0.93665 0.1531 0.0
H105 H 0.68654 0.91864 0.07384 0.0
H106 H 0.78652 0.94438 0.09106 0.0
H107 H 0.73518 0.94445 0.23091 0.0
H108 H 0.79049 0.99764 0.22999 0.0
H109 H 0.75754 0.95841 0.35476 0.0
H110 H 0.73226 0.0094 0.22445 0.0
H111 H 0.6999 0.01827 0.29125 0.0
H112 H 0.82914 0.94336 0.13585 0.0
H113 H 0.80652 0.0146 0.1175 0.0
H114 H 0.72527 0.96703 0.4217 0.0
H115 H 0.86124 0.95166 0.06716 0.0
H116 H 0.83956 0.02318 0.04951 0.0
C117 C 0.49559 0.7227 0.38305 0.0
C118 C 0.51722 0.71118 0.38346 0.0
C119 C 0.49003 0.73925 0.33778 0.0
C120 C 0.50581 0.74469 0.2912 0.0
C121 C 0.52817 0.73465 0.29421 0.0
C122 C 0.53382 0.71812 0.33983 0.0
C123 C 0.4972 0.75688 0.2344 0.0
C124 C 0.51063 0.77451 0.20476 0.0
C125 C 0.50258 0.78354 0.1477 0.0
C126 C 0.48151 0.77454 0.12016 0.0
C127 C 0.468 0.75705 0.14878 0.0
C128 C 0.47573 0.74883 0.20651 0.0
C129 C 0.44725 0.74572 0.11561 0.0
C130 C 0.43275 0.75851 0.07457 0.0
C131 C 0.44306 0.72141 0.12077 0.0
C132 C 0.42569 0.71007 0.08415 0.0
C133 C 0.41229 0.7226 0.04055 0.0
C134 C 0.51568 0.80201 0.11382 0.0
C135 C 0.51447 0.82558 0.13117 0.0
C136 C 0.52457 0.79672 0.05644 0.0
C137 C 0.53079 0.81461 0.01566 0.0
C138 C 0.52802 0.83828 0.03094 0.0
C139 C 0.52061 0.84355 0.0902 0.0
C140 C 0.41563 0.74701 0.03685 0.0
H141 H 0.48222 0.71794 0.4153 0.0
H142 H 0.4727 0.7468 0.33703 0.0
H143 H 0.5407 0.73837 0.25896 0.0
H144 H 0.5509 0.71012 0.33937 0.0
H145 H 0.52725 0.7809 0.22536 0.0
H146 H 0.46545 0.73526 0.2289 0.0
H147 H 0.47609 0.78083 0.07508 0.0
H148 H 0.43509 0.77731 0.07017 0.0
H149 H 0.45408 0.71076 0.1505 0.0
H150 H 0.4239 0.69116 0.08711 0.0
H151 H 0.50718 0.8301 0.17461 0.0
H152 H 0.52539 0.77866 0.04174 0.0
H153 H 0.4055 0.75706 1.00355 0.0
H154 H 0.51807 0.86152 0.10361 0.0
H155 H 0.53692 0.80982 0.97113 0.0
C156 C 0.24504 0.44472 0.26459 0.0
C157 C 0.22452 0.43249 0.24321 0.0
C158 C 0.26441 0.44732 0.22748 0.0
C159 C 0.26368 0.43771 0.16824 0.0
C160 C 0.24452 0.42276 0.15041 0.0
C161 C 0.22506 0.4202 0.18759 0.0
C162 C 0.2798 0.4476 0.12206 0.0
C163 C 0.30324 0.45389 0.13844 0.0
C164 C 0.31639 0.4693 0.10192 0.0
C165 C 0.30604 0.47814 0.047 0.0
C166 C 0.28294 0.47066 0.02819 0.0
C167 C 0.27021 0.45533 0.06575 0.0
C168 C 0.26984 0.48051 0.97442 0.0
C169 C 0.2594 0.50238 0.97962 0.0
C170 C 0.26199 0.46551 0.92649 0.0
C171 C 0.24299 0.47154 0.88721 0.0
C172 C 0.23114 0.49253 0.89576 0.0
C173 C 0.33963 0.4778 0.12754 0.0
C174 C 0.34077 0.49779 0.1648 0.0
C175 C 0.35902 0.46305 0.128 0.0
C176 C 0.3788 0.46766 0.16703 0.0
C177 C 0.37942 0.48687 0.2076 0.0
C178 C 0.36038 0.50228 0.2044 0.0
C179 C 0.2402 0.50831 0.94081 0.0
H180 H 0.24531 0.45449 0.30705 0.0
H181 H 0.27878 0.45902 0.24284 0.0
H182 H 0.24372 0.41466 0.10557 0.0
H183 H 0.20972 0.41015 0.17058 0.0
H184 H 0.31081 0.44805 0.182 0.0
H185 H 0.25187 0.4512 0.05332 0.0
H186 H 0.31564 0.49087 0.01991 0.0
H187 H 0.26472 0.51402 0.01705 0.0
H188 H 0.26935 0.4483 0.92251 0.0
H189 H 0.23642 0.45889 0.85341 0.0
H190 H 0.32573 0.50903 0.16658 0.0
H191 H 0.35831 0.44725 0.10058 0.0
H192 H 0.23164 0.52473 0.94823 0.0
H193 H 0.35982 0.51705 0.2352 0.0
H194 H 0.39321 0.45564 0.16688 0.0
C195 C 0.10167 0.2384 0.32404 0.0
C196 C 0.11653 0.21999 0.30995 0.0
C197 C 0.09499 0.25454 0.27934 0.0
C198 C 0.10313 0.25279 0.21959 0.0
C199 C 0.12074 0.23666 0.20816 0.0
C200 C 0.12744 0.2204 0.25309 0.0
C201 C 0.08984 0.26428 0.16844 0.0
C202 C 0.08022 0.28626 0.17667 0.0
C203 C 0.06259 0.29461 0.1363 0.0
C204 C 0.05527 0.28108 0.08426 0.0
C205 C 0.06622 0.25953 0.07275 0.0
C206 C 0.08314 0.25138 0.11586 0.0
C207 C 0.05989 0.24397 0.019 0.0
C208 C 0.03641 0.23698 1.00402 0.0
C209 C 0.07802 0.23288 0.98878 0.0
C210 C 0.0731 0.21416 0.94873 0.0
C211 C 0.04974 0.20604 0.93604 0.0
C212 C 0.05121 0.31646 0.15523 0.0
C213 C 0.03134 0.31479 0.19178 0.0
C214 C 0.06429 0.33775 0.15461 0.0
C215 C 0.05859 0.35638 0.19267 0.0
C216 C 0.03985 0.35408 0.23307 0.0
C217 C 0.02572 0.33336 0.23022 0.0
C218 C 0.0314 0.21832 0.96289 0.0
H219 H 0.09282 0.23885 0.36708 0.0
H220 H 0.08142 0.26668 0.29015 0.0
H221 H 0.12791 0.23537 0.16303 0.0
H222 H 0.13952 0.2069 0.24136 0.0
H223 H 0.08539 0.29641 0.21715 0.0
H224 H 0.08995 0.234 0.11034 0.0
H225 H 0.04146 0.28726 0.05323 0.0
H226 H 0.022 0.24504 0.02651 0.0
H227 H 0.09633 0.23789 0.99882 0.0
H228 H 0.08794 0.20538 0.93042 0.0
H229 H 0.02135 0.2984 0.19453 0.0
H230 H 0.08012 0.33927 0.1284 0.0
H231 H 0.0131 0.21322 0.95351 0.0
H232 H 0.01094 0.33104 0.25989 0.0
H233 H 0.07001 0.3719 0.1937 0.0
C234 C 0.29583 0.10724 0.29488 0.0
C235 C 0.31365 0.12102 0.26794 0.0
C236 C 0.27847 0.0958 0.2585 0.0
C237 C 0.27835 0.09809 0.19442 0.0
C238 C 0.29352 0.11508 0.16871 0.0
C239 C 0.31107 0.12647 0.20524 0.0
C240 C 0.26653 0.07946 0.15579 0.0
C241 C 0.24547 0.06849 0.17363 0.0
C242 C 0.23744 0.04712 0.14782 0.0
C243 C 0.25047 0.03692 0.1008 0.0
C244 C 0.27102 0.04869 0.07944 0.0
C245 C 0.27871 0.06974 0.10769 0.0
C246 C 0.2862 0.03962 0.03045 0.0
C247 C 0.29975 0.01958 0.04 0.0
C248 C 0.29151 0.05432 0.98064 0.0
C249 C 0.31068 0.05003 0.94386 0.0
C250 C 0.32527 0.03086 0.95552 0.0
C251 C 0.21645 0.03572 0.17601 0.0
C252 C 0.21963 0.02211 0.22924 0.0
C253 C 0.19375 0.04387 0.16152 0.0
C254 C 0.17493 0.03933 0.20052 0.0
C255 C 0.17834 0.02682 0.25586 0.0
C256 C 0.20089 0.01768 0.2685 0.0
C257 C 0.319 0.01518 1.00278 0.0
H258 H 0.29694 0.10262 0.34299 0.0
H259 H 0.26706 0.08304 0.28039 0.0
H260 H 0.29329 0.11795 0.11964 0.0
H261 H 0.32404 0.13763 0.18333 0.0
H262 H 0.23579 0.07598 0.21044 0.0
H263 H 0.29536 0.07771 0.09455 0.0
H264 H 0.2447 0.02024 0.08117 0.0
H265 H 0.29651 0.00821 0.07875 0.0
H266 H 0.2816 0.07004 0.97239 0.0
H267 H 0.31451 0.06223 0.90726 0.0
H268 H 0.23709 0.01632 0.24285 0.0
H269 H 0.19089 0.05497 0.12179 0.0
H270 H 0.32978 1.00025 0.01339 0.0
H271 H 0.20457 0.00826 0.31068 0.0
H272 H 0.15787 0.04633 0.18809 0.0
C273 C 0.49256 0.32024 0.01376 0.0
C274 C 0.49907 0.31785 0.95254 0.0
C275 C 0.49562 0.30189 0.05575 0.0
C276 C 0.50495 0.28058 0.03753 0.0
C277 C 0.51002 0.27754 0.97565 0.0
C278 C 0.50716 0.29599 0.9336 0.0
C279 C 0.51453 0.26428 0.08479 0.0
C280 C 0.50514 0.24141 0.09385 0.0
C281 C 0.51578 0.2267 0.13834 0.0
C282 C 0.53588 0.23483 0.1721 0.0
C283 C 0.54466 0.25788 0.16595 0.0
C284 C 0.53379 0.2724 0.12186 0.0
C285 C 0.56366 0.26743 0.20897 0.0
C286 C 0.56563 0.25928 0.26984 0.0
C287 C 0.57872 0.28608 0.19145 0.0
C288 C 0.59335 0.29783 0.23486 0.0
C289 C 0.59393 0.29076 0.29672 0.0
C290 C 0.50567 0.2035 0.15609 0.0
C291 C 0.48602 0.2024 0.1935 0.0
C292 C 0.51966 0.18369 0.15205 0.0
C293 C 0.51552 0.16409 0.18915 0.0
C294 C 0.49736 0.16389 0.23141 0.0
C295 C 0.48184 0.18272 0.23076 0.0
C296 C 0.58092 0.27045 0.31263 0.0
H297 H 0.48651 0.3368 0.03034 0.0
H298 H 0.49202 0.30484 0.10347 0.0
H299 H 0.51766 0.26144 0.96069 0.0
H300 H 0.51208 0.29341 0.8867 0.0
H301 H 0.48971 0.23526 0.06723 0.0
H302 H 0.53993 0.2904 0.11666 0.0
H303 H 0.54414 0.22317 0.20513 0.0
H304 H 0.55447 0.24507 0.28601 0.0
H305 H 0.57857 0.29236 0.14464 0.0
H306 H 0.60303 0.3133 0.2201 0.0
H307 H 0.47527 0.21762 0.19845 0.0
H308 H 0.5351 0.18421 0.12422 0.0
H309 H 0.58151 0.26379 0.35908 0.0
H310 H 0.46773 0.18316 0.26281 0.0
H311 H 0.52755 0.14971 0.18767 0.0
Eu312 Eu 0.99838 0.01911 0.61081 0.0
Eu313 Eu 0.0355 0.9968 0.70765 0.0
C314 C 0.02752 0.05147 0.71085 0.0
C315 C 0.98209 0.06618 0.51044 0.0
C316 C 0.99127 0.08273 0.55328 0.0
C317 C 1.00368 0.08634 0.43107 0.0
C318 C 1.00757 0.09996 0.53594 0.0
C319 C 0.98744 0.06893 0.44858 0.0
C320 C 0.01486 0.10121 0.47525 0.0
C321 C 0.97369 0.04311 0.5325 0.0
O322 O 1.00175 1.00286 0.75818 0.0
O323 O 0.97473 1.00066 0.6782 0.0
C324 C 0.97975 1.00033 0.73744 0.0
O325 O 1.00061 0.98176 0.57798 0.0
O326 O 0.04763 0.99113 0.80253 0.0
O327 O 0.06575 0.97499 0.72932 0.0
O328 O 0.01553 0.9653 0.66645 0.0
C329 C 1.00624 0.96323 0.6106 0.0
O330 O 0.03475 0.02917 0.57652 0.0
O331 O 0.05512 0.99914 0.61945 0.0
O332 O 0.04408 0.03579 0.71334 0.0
O333 O 0.98663 0.02581 0.51625 0.0
O334 O 0.96866 0.04182 0.59032 0.0
O335 O 1.00691 0.04649 0.68394 0.0
C336 C 0.0541 0.95073 0.81123 0.0
C337 C 0.05368 0.93108 0.77225 0.0
C338 C 0.0272 0.92985 0.87751 0.0
C339 C 0.03891 0.91172 0.7837 0.0
C340 C 0.04201 0.94918 0.86616 0.0
C341 C 0.02447 0.91161 0.8345 0.0
C342 C 0.06109 0.97408 0.78731 0.0
C343 C 0.05309 0.01558 0.57769 0.0
H344 H 0.98768 0.08112 0.60151 0.0
H345 H 1.00841 0.08732 0.38351 0.0
H346 H 0.01577 0.11104 0.57129 0.0
H347 H 0.98072 0.05634 0.41476 0.0
H348 H 0.06302 0.93148 0.72985 0.0
H349 H 0.01683 0.92981 0.9182 0.0
H350 H 0.03739 0.89776 0.75016 0.0
H351 H 0.04222 0.96387 0.89753 0.0
Eu352 Eu 0.53045 0.02586 0.69967 0.0
Eu353 Eu 0.50073 0.99289 0.60338 0.0
C354 C 0.52537 0.96927 0.72094 0.0
C355 C 0.5812 0.03831 0.79926 0.0
C356 C 0.582 0.02683 0.85622 0.0
C357 C 0.6161 0.01759 0.77077 0.0
C358 C 0.59869 0.00977 0.86854 0.0
C359 C 0.5994 0.03461 0.75838 0.0
C360 C 0.61502 1.00406 0.82437 0.0
C361 C 0.5587 0.04819 0.77628 0.0
O362 O 0.47704 0.99806 0.68345 0.0
O363 O 0.49215 0.03315 0.71908 0.0
C364 C 0.47502 0.01705 0.71653 0.0
O365 O 0.52537 0.04756 0.61402 0.0
O366 O 0.47215 0.96772 0.57843 0.0
O367 O 0.49286 0.98374 0.50767 0.0
O368 O 0.49064 0.03015 0.58234 0.0
C369 C 0.50614 0.04749 0.57892 0.0
O370 O 0.55817 0.00577 0.65108 0.0
O371 O 0.5368 0.99836 0.56254 0.0
O372 O 0.5191 0.96603 0.66287 0.0
O373 O 0.5574 0.0533 0.718 0.0
O374 O 0.53972 0.03687 0.79342 0.0
O375 O 0.52721 0.99036 0.74492 0.0
C376 C 0.45217 0.98664 0.49625 0.0
C377 C 0.4393 0.99997 0.53683 0.0
C378 C 0.43648 0.0099 0.41165 0.0
C379 C 0.42617 0.01873 0.5155 0.0
C380 C 0.44989 0.99117 0.4332 0.0
C381 C 0.42533 0.02453 0.45293 0.0
C382 C 0.47266 0.97388 0.52083 0.0
C383 C 0.55728 1.00067 0.59244 0.0
H384 H 0.5684 0.02945 0.8889 0.0
H385 H 0.62865 0.01383 0.73616 0.0
H386 H 0.59799 1.00018 0.91134 0.0
H387 H 0.59953 0.04327 0.71419 0.0
H388 H 0.44099 0.99729 0.58591 0.0
H389 H 0.43568 0.01347 0.36292 0.0
H390 H 0.41807 0.02962 0.54888 0.0
H391 H 0.45992 0.9814 0.40113 0.0
Eu392 Eu 0.49441 0.52432 0.715 0.0
Eu393 Eu 0.54125 0.50895 0.64462 0.0
C394 C 0.54492 0.52691 0.78056 0.0
C395 C 0.44055 0.55643 0.76897 0.0
C396 C 0.44827 0.57917 0.75371 0.0
C397 C 0.4024 0.57137 0.79364 0.0
C398 C 0.43352 0.59804 0.7611 0.0
C399 C 0.41729 0.55252 0.78682 0.0
C400 C 0.41068 0.59448 0.7834 0.0
C401 C 0.45704 0.53704 0.77124 0.0
O402 O 0.53167 0.47734 0.70244 0.0
O403 O 0.49288 0.48478 0.71909 0.0
C404 C 0.51075 0.47059 0.7211 0.0
O405 O 0.48487 0.52419 0.61399 0.0
O406 O 0.57805 0.49903 0.65285 0.0
O407 O 0.56117 0.50256 0.56296 0.0
O408 O 0.5098 0.49579 0.58567 0.0
C409 C 0.49095 0.50828 0.57477 0.0
O410 O 0.50983 0.55881 0.67991 0.0
O411 O 0.534 0.54485 0.60679 0.0
O412 O 0.55258 0.53157 0.7259 0.0
O413 O 0.45613 0.5227 0.72475 0.0
O414 O 0.47866 0.54231 0.79015 0.0
O415 O 0.52358 0.51801 0.78615 0.0
C416 C 0.58945 0.47357 0.5764 0.0
C417 C 0.57614 0.45281 0.58396 0.0
C418 C 0.62089 0.45136 0.53433 0.0
C419 C 0.58502 0.43146 0.56619 0.0
C420 C 0.61194 0.47277 0.55212 0.0
C421 C 0.60743 0.43047 0.54073 0.0
C422 C 0.57991 0.496 0.59414 0.0
C423 C 0.52286 0.56211 0.63164 0.0
H424 H 0.46612 0.58252 0.73914 0.0
H425 H 0.38479 0.56792 0.80966 0.0
H426 H 0.44069 0.61552 0.7533 0.0
H427 H 0.41095 0.535 0.798 0.0
H428 H 0.55873 0.45318 0.60282 0.0
H429 H 0.63825 0.45116 0.51526 0.0
H430 H 0.57395 0.41582 0.57062 0.0
H431 H 0.62247 0.48871 0.54649 0.0
Eu432 Eu 0.03186 0.53025 0.60869 0.0
Eu433 Eu 0.01297 0.48966 0.69996 0.0
C434 C 0.06823 0.50278 0.6972 0.0
C435 C 0.06627 0.55067 0.48007 0.0
C436 C 0.09061 0.55535 0.48869 0.0
C437 C 0.0746 0.52173 0.40277 0.0
C438 C 0.1068 0.54236 0.45726 0.0
C439 C 0.05843 0.53466 0.43424 0.0
C440 C 0.0989 0.52463 0.4163 0.0
C441 C 0.05001 0.55792 0.52748 0.0
O442 O 1.00427 0.52374 0.74644 0.0
O443 O 0.03053 0.5487 0.69993 0.0
C444 C 0.01628 0.54381 0.74472 0.0
O445 O 0.99287 0.53705 0.61394 0.0
O446 O 0.00993 0.4742 0.79088 0.0
O447 O 0.99284 0.45692 0.71263 0.0
O448 O 0.98144 0.49979 0.64026 0.0
C449 C 0.97633 0.52065 0.61905 0.0
O450 O 0.02436 0.49795 0.55061 0.0
O451 O 0.02992 0.46998 0.62394 0.0
O452 O 0.05063 0.497 0.73203 0.0
O453 O 0.02843 0.54938 0.5223 0.0
O454 O 0.05848 0.55661 0.58376 0.0
O455 O 0.06428 0.51061 0.64124 0.0
C456 C 0.97049 0.46224 0.80049 0.0
C457 C 0.95041 0.46717 0.76332 0.0
C458 C 0.95152 0.4788 0.88746 0.0
C459 C 0.93181 0.47923 0.78719 0.0
C460 C 0.97013 0.46668 0.8636 0.0
C461 C 0.93297 0.48645 0.84858 0.0
C462 C 0.99341 0.45926 0.77211 0.0
C463 C 0.02842 0.47615 0.56597 0.0
H464 H 0.09717 0.56769 0.52333 0.0
H465 H 0.06797 0.50824 0.37134 0.0
H466 H 0.12548 0.54536 0.46738 0.0
H467 H 0.0398 0.53067 0.42601 0.0
H468 H 0.94999 0.46383 0.7145 0.0
H469 H 0.95249 0.48366 0.93543 0.0
H470 H 0.91765 0.48476 0.75624 0.0
H471 H 0.98531 0.46295 0.89326 0.0
H472 H 0.16871 0.99029 0.33607 0.0
H473 H 0.05756 0.04946 0.48742 0.0
H474 H 0.14369 0.05829 0.28213 0.0
H475 H 0.09072 0.98748 0.55883 0.0
H476 H 0.08738 0.0522 0.40864 0.0
H477 H 0.13882 0.98811 0.41384 0.0
C478 C 0.15705 0.00484 0.34036 0.0
C479 C 0.15906 0.02455 0.30177 0.0
C480 C 0.08815 0.03803 0.44164 0.0
C481 C 0.12416 0.02194 0.3914 0.0
C482 C 0.0711 0.03645 0.4868 0.0
C483 C 0.07152 0.01822 0.53035 0.0
C484 C 0.10575 0.02114 0.43931 0.0
C485 C 0.08959 1.00191 0.52669 0.0
C486 C 0.13982 1.0035 0.3849 0.0
C487 C 0.14284 0.04253 0.30961 0.0
N488 N 0.1058 1.00371 0.48214 0.0
N489 N 0.12621 0.04079 0.35325 0.0
H490 H 0.45908 0.13941 0.27849 0.0
H491 H 0.53747 0.08263 0.54976 0.0
H492 H 0.53475 0.14814 0.30003 0.0
H493 H 0.46813 0.05443 0.49845 0.0
H494 H 0.53421 0.1107 0.46596 0.0
H495 H 0.45975 0.11156 0.36506 0.0
C496 C 0.4758 0.13541 0.30112 0.0
C497 C 0.49693 0.14595 0.28135 0.0
C498 C 0.51964 0.09844 0.47303 0.0
C499 C 0.49775 0.11454 0.38083 0.0
C500 C 0.52142 0.08244 0.52126 0.0
C501 C 0.50309 0.066 0.53133 0.0
C502 C 0.49928 0.09829 0.43434 0.0
C503 C 0.48274 0.06672 0.49243 0.0
C504 C 0.47617 0.11951 0.35039 0.0
C505 C 0.51807 0.14016 0.31264 0.0
N506 N 0.48138 0.08258 0.44561 0.0
N507 N 0.5179 0.12503 0.36074 0.0
H508 H 0.40416 0.45264 0.27022 0.0
H509 H 0.46097 0.53952 0.5217 0.0
H510 H 0.39884 0.52785 0.25774 0.0
H511 H 0.48772 0.47038 0.496 0.0
H512 H 0.43606 0.53454 0.42895 0.0
H513 H 0.43317 0.45779 0.35489 0.0
C514 C 0.40925 0.47027 0.28432 0.0
C515 C 0.39873 0.48983 0.25621 0.0
C516 C 0.44744 0.52047 0.44329 0.0
C517 C 0.43167 0.49571 0.35516 0.0
C518 C 0.46162 0.52324 0.49655 0.0
C519 C 0.47645 0.50529 0.51699 0.0
C520 C 0.44765 0.49942 0.4103 0.0
C521 C 0.47661 0.48469 0.48196 0.0
C522 C 0.42577 0.47314 0.33321 0.0
C523 C 0.40591 0.51215 0.27829 0.0
N524 N 0.46225 0.48221 0.43067 0.0
N525 N 0.42168 0.51443 0.32659 0.0
H526 H 0.0292 0.34712 0.35382 0.0
H527 H 0.03276 0.48359 0.44252 0.0
H528 H 0.04361 0.40239 0.22425 0.0
H529 H 0.02869 0.42796 0.57612 0.0
H530 H 0.03489 0.45432 0.36154 0.0
H531 H 0.0264 0.37649 0.43428 0.0
C532 C 0.03147 0.36544 0.34191 0.0
C533 C 0.03655 0.37216 0.28164 0.0
C534 C 0.03355 0.44847 0.40853 0.0
C535 C 0.03371 0.40611 0.37462 0.0
C536 C 0.03232 0.46522 0.45499 0.0
C537 C 0.03051 0.45833 0.51659 0.0
C538 C 0.03276 0.42449 0.42328 0.0
C539 C 0.03012 0.43418 0.5295 0.0
C540 C 0.0301 0.38224 0.38823 0.0
C541 C 0.03983 0.39626 0.26988 0.0
N542 N 0.03113 0.4182 0.48337 0.0
N543 N 0.03832 0.41228 0.31573 0.0
H544 H 0.88857 0.02169 0.04631 0.0
H545 H 0.9344 0.982 0.72029 0.0
H546 H 0.85802 0.96228 0.94794 0.0
H547 H 0.9807 0.01532 0.85691 0.0
H548 H 0.90305 0.97989 0.79528 0.0
H549 H 0.91925 0.0252 0.96927 0.0
C550 C 0.88818 0.00954 1.00826 0.0
C551 C 0.87075 0.99159 1.00383 0.0
C552 C 0.92008 0.98768 0.80876 0.0
C553 C 0.90561 0.99566 0.91505 0.0
C554 C 0.93799 0.98892 0.76591 0.0
C555 C 0.96036 0.99872 0.7822 0.0
C556 C 0.92428 0.99681 0.8681 0.0
C557 C 0.96386 0.00742 0.84226 0.0
C558 C 0.90576 0.01146 0.96452 0.0
C559 C 0.87121 0.97627 0.95351 0.0
N560 N 0.94605 0.00643 0.88268 0.0
N561 N 0.8882 0.97872 0.91111 0.0
H562 H 0.54668 0.88326 0.04548 0.0
H563 H 0.51505 0.92243 0.69898 0.0
H564 H 0.51539 0.83658 0.90816 0.0
H565 H 0.54397 0.96952 0.83852 0.0
H566 H 0.51806 0.89 0.77244 0.0
H567 H 0.54843 0.91438 0.96832 0.0
C568 C 0.54023 0.87948 0.99917 0.0
C569 C 0.53087 0.85713 0.98367 0.0
C570 C 0.52387 0.90742 0.78685 0.0
C571 C 0.5329 0.89283 0.89458 0.0
C572 C 0.52223 0.92595 0.74477 0.0
C573 C 0.52904 0.94885 0.76253 0.0
C574 C 0.53243 0.91175 0.8472 0.0
C575 C 0.53822 0.95226 0.82272 0.0
C576 C 0.54132 0.89727 0.95497 0.0
C577 C 0.52309 0.85333 0.92242 0.0
N578 N 0.53952 0.93401 0.86277 0.0
N579 N 0.52417 0.87096 0.88041 0.0
H580 H 0.63238 0.58587 0.07756 0.0
H581 H 0.54844 0.4998 0.88386 0.0
H582 H 0.64788 0.51215 0.07543 0.0
H583 H 0.57748 0.56247 0.80172 0.0
H584 H 0.57607 0.50564 0.97271 0.0
H585 H 0.60307 0.5791 0.9946 0.0
C586 C 0.62982 0.56825 0.06006 0.0
C587 C 0.64341 0.54969 0.08335 0.0
C588 C 0.57623 0.51811 0.93525 0.0
C589 C 0.60865 0.54183 0.98971 0.0
C590 C 0.56046 0.5149 0.88485 0.0
C591 C 0.56073 0.53069 0.83544 0.0
C592 C 0.59176 0.53769 0.93709 0.0
C593 C 0.57678 0.54985 0.83876 0.0
C594 C 0.61285 0.56446 0.01284 0.0
C595 C 0.63802 0.5271 0.05983 0.0
N596 N 0.59147 0.55298 0.88902 0.0
N597 N 0.62108 0.52381 0.01443 0.0
H598 H 0.98874 0.61434 0.08816 0.0
H599 H 0.03543 0.58853 0.75273 0.0
H600 H 0.0223 0.66682 0.97542 0.0
H601 H 0.9922 0.53916 0.85206 0.0
H602 H 0.0327 0.61654 0.83641 0.0
H603 H 0.99191 0.58589 1.00551 0.0
C604 C 0.99679 0.61999 0.04623 0.0
C605 C 1.0052 0.64327 0.03936 0.0
C606 C 0.02376 0.59961 0.83996 0.0
C607 C 0.00911 0.61036 0.94403 0.0
C608 C 0.0253 0.58353 0.79202 0.0
C609 C 0.01402 0.56132 0.79492 0.0
C610 C 0.01096 0.59355 0.8919 0.0
C611 C 1.00117 0.55602 0.84742 0.0
C612 C 0.99865 0.60362 0.99897 0.0
C613 C 0.01586 0.64913 0.98386 0.0
N614 N 1.00007 0.57194 0.89372 0.0
N615 N 0.01744 0.63289 0.93863 0.0
H616 H 0.11492 0.17468 0.26845 0.0
H617 H 0.02674 0.14526 0.51883 0.0
H618 H 0.11392 0.21493 0.43551 0.0
H619 H 0.05035 0.09173 0.39768 0.0
H620 H 0.06089 0.16973 0.49333 0.0
H621 H 0.09625 0.14194 0.32027 0.0
C622 C 0.11168 0.17647 0.31673 0.0
C623 C 0.11516 0.1981 0.34686 0.0
C624 C 0.05876 0.1525 0.47293 0.0
C625 C 0.09274 0.16076 0.40561 0.0
C626 C 0.03917 0.13854 0.48722 0.0
C627 C 0.03536 0.11653 0.45955 0.0
C628 C 0.07449 0.14461 0.42985 0.0
C629 C 0.05208 0.10889 0.41859 0.0
C630 C 0.10067 0.1577 0.34618 0.0
C631 C 0.11058 0.19897 0.40962 0.0
N632 N 0.07073 0.12304 0.40431 0.0
N633 N 0.0988 0.18086 0.4364 0.0
H634 H 0.32396 0.12948 0.39079 0.0
H635 H 0.43923 0.05497 0.3622 0.0
H636 H 0.35732 0.11653 0.21998 0.0
H637 H 0.38579 0.04462 0.49659 0.0
H638 H 0.41885 0.08977 0.32505 0.0
H639 H 0.35798 0.11293 0.44566 0.0
C640 C 0.33876 0.124 0.36483 0.0
C641 C 0.33712 0.12319 0.3005 0.0
C642 C 0.41194 0.08003 0.36341 0.0
C643 C 0.37601 0.10459 0.36287 0.0
C644 C 0.42327 0.05993 0.38398 0.0
C645 C 0.41392 0.04639 0.4317 0.0
C646 C 0.39132 0.08682 0.39129 0.0
C647 C 0.39373 0.05436 0.45973 0.0
C648 C 0.35811 0.11449 0.39622 0.0
C649 C 0.35733 0.1169 0.2695 0.0
N650 N 0.38302 0.07391 0.43875 0.0
N651 N 0.37566 0.10713 0.30092 0.0
H652 H 0.58017 0.29652 0.41522 0.0
H653 H 0.63045 0.4228 0.43453 0.0
H654 H 0.63287 0.32119 0.29006 0.0
H655 H 0.60292 0.38669 0.59168 0.0
H656 H 0.63612 0.38506 0.38593 0.0
H657 H 0.59264 0.32718 0.48572 0.0
C658 C 0.59483 0.30786 0.40277 0.0
C659 C 0.60504 0.3063 0.34521 0.0
C660 C 0.62937 0.38537 0.43166 0.0
C661 C 0.61872 0.34255 0.42599 0.0
C662 C 0.62617 0.40695 0.45958 0.0
C663 C 0.61561 0.40794 0.51666 0.0
C664 C 0.62161 0.36473 0.46065 0.0
C665 C 0.61037 0.38677 0.54674 0.0
C666 C 0.60184 0.32565 0.44338 0.0
C667 C 0.62373 0.32213 0.33255 0.0
N668 N 0.61295 0.36605 0.51783 0.0
N669 N 0.62955 0.33997 0.37187 0.0
H670 H 0.18199 0.44084 0.18556 0.0
H671 H 0.13482 0.50349 0.47962 0.0
H672 H 0.21532 0.43573 0.36592 0.0
H673 H 0.10045 0.50644 0.30023 0.0
H674 H 0.16185 0.47493 0.4414 0.0
H675 H 0.1485 0.45918 0.23013 0.0
C676 C 0.182 0.44286 0.23485 0.0
C677 C 0.20176 0.43704 0.27192 0.0
C678 C 0.14835 0.48173 0.41039 0.0
C679 C 0.16369 0.45894 0.32296 0.0
C680 C 0.13311 0.49828 0.43196 0.0
C681 C 0.11564 0.50769 0.39269 0.0
C682 C 0.14622 0.47457 0.34896 0.0
C683 C 0.11373 0.49972 0.33197 0.0
C684 C 0.16293 0.45368 0.26019 0.0
C685 C 0.20072 0.44043 0.33541 0.0
N686 N 0.12897 0.48375 0.31182 0.0
N687 N 0.18221 0.45155 0.35881 0.0
H688 H 0.9531 0.78367 0.90963 0.0
H689 H 0.97891 0.91885 0.86349 0.0
H690 H 0.91127 0.83824 0.98242 0.0
H691 H 0.02571 0.86415 0.81478 0.0
H692 H 0.94764 0.88936 0.87823 0.0
H693 H 0.97145 0.81224 0.84181 0.0
C694 C 0.94692 0.80145 0.90926 0.0
C695 C 0.93117 0.80882 0.9529 0.0
C696 C 0.96466 0.8838 0.86365 0.0
C697 C 0.95268 0.84165 0.87725 0.0
C698 C 0.98261 0.90058 0.85604 0.0
C699 C 1.00516 0.89382 0.83987 0.0
C700 C 0.9693 0.86003 0.85548 0.0
C701 C 1.00869 0.87006 0.82824 0.0
C702 C 0.9577 0.81786 0.87115 0.0
C703 C 0.9238 0.83204 0.95034 0.0
N704 N 0.99105 0.85395 0.83728 0.0
N705 N 0.93514 0.84784 0.91449 0.0
H706 H 0.67032 0.88708 1.00045 0.0
H707 H 0.66141 0.99869 0.79595 0.0
H708 H 0.7297 0.92137 0.91668 0.0
H709 H 0.60141 0.96106 0.8681 0.0
H710 H 0.68536 0.96443 0.81556 0.0
H711 H 0.64393 0.90557 0.92519 0.0
C712 C 0.67788 0.89763 0.9644 0.0
C713 C 0.70209 0.9035 0.9663 0.0
C714 C 0.66687 0.96352 0.82636 0.0
C715 C 0.67213 0.92536 0.88179 0.0
C716 C 0.65321 0.98315 0.81537 0.0
C717 C 0.62958 0.98302 0.8323 0.0
C718 C 0.65689 0.94371 0.85504 0.0
C719 C 0.61983 0.96228 0.85669 0.0
C720 C 0.6628 0.90846 0.92184 0.0
C721 C 0.71106 0.91684 0.91789 0.0
N722 N 0.63361 0.94362 0.86826 0.0
N723 N 0.69599 0.92808 0.87891 0.0
H724 H 0.37992 0.68701 0.05833 0.0
H725 H 0.40734 0.63863 0.73225 0.0
H726 H 0.41265 0.72765 0.91633 0.0
H727 H 0.38407 0.59703 0.88529 0.0
H728 H 0.39565 0.67388 0.78527 0.0
H729 H 0.3671 0.65766 0.98204 0.0
C730 C 0.38377 0.69006 0.01069 0.0
C731 C 0.39785 0.70942 0.99374 0.0
C732 C 0.39254 0.65695 0.80643 0.0
C733 C 0.38381 0.67575 0.90661 0.0
C734 C 0.39932 0.63681 0.77633 0.0
C735 C 0.39746 0.61482 0.80514 0.0
C736 C 0.3839 0.65508 0.86576 0.0
C737 C 0.38615 0.61351 0.86128 0.0
C738 C 0.37652 0.6733 0.96716 0.0
C739 C 0.40204 0.71281 0.93138 0.0
N740 N 0.38029 0.63339 0.89028 0.0
N741 N 0.39561 0.69579 0.89022 0.0
H742 H 0.81157 0.56141 0.94996 0.0
H743 H 0.94482 0.52577 0.91385 0.0
H744 H 0.8709 0.59236 0.05243 0.0
H745 H 0.88498 0.48885 0.82791 0.0
H746 H 0.91866 0.55593 0.94738 0.0
H747 H 0.83892 0.54189 0.88412 0.0
C748 C 0.83037 0.56484 0.95695 0.0
C749 C 0.83912 0.57818 1.00699 0.0
C750 C 0.91122 0.54129 0.92103 0.0
C751 C 0.87034 0.55546 0.93358 0.0
C752 C 0.92609 0.5239 0.90263 0.0
C753 C 0.91691 0.50446 0.86959 0.0
C754 C 0.88693 0.53923 0.90655 0.0
C755 C 0.89269 0.50342 0.85403 0.0
C756 C 0.84597 0.55344 0.91997 0.0
C757 C 0.86356 0.58194 0.01461 0.0
N758 N 0.87845 0.52045 0.8733 0.0
N759 N 0.87837 0.57024 0.97902 0.0
H760 H 0.01266 0.17327 0.94227 0.0
H761 H 0.06931 0.07578 0.73908 0.0
H762 H 0.07593 0.18791 0.84261 0.0
H763 H 0.99391 0.07998 0.75397 0.0
H764 H 0.07416 0.11407 0.79047 0.0
H765 H 1.00704 0.13659 0.88559 0.0
C766 C 0.0253 0.16913 0.90828 0.0
C767 C 0.04497 0.18413 0.89823 0.0
C768 C 0.05657 0.10657 0.78232 0.0
C769 C 0.03891 0.1412 0.83446 0.0
C770 C 0.0538 0.08468 0.75326 0.0
C771 C 0.03117 0.07461 0.74199 0.0
C772 C 0.03662 0.11822 0.80175 0.0
C773 C 0.0117 0.08707 0.76131 0.0
C774 C 0.02212 0.14793 0.87623 0.0
C775 C 0.06084 0.17697 0.85395 0.0
N776 N 0.01487 0.10802 0.79068 0.0
N777 N 0.05762 0.15603 0.82448 0.0
H778 H 0.34452 0.99053 0.91049 0.0
H779 H 0.46044 0.05556 0.78064 0.0
H780 H 0.35732 0.06523 0.92157 0.0
H781 H 0.43943 0.98436 0.735 0.0
H782 H 0.42443 0.05882 0.83897 0.0
H783 H 0.38084 0.98721 0.85348 0.0
C784 C 0.35494 0.00624 0.90119 0.0
C785 C 0.34754 0.02822 0.92072 0.0
C786 C 0.4277 0.04248 0.81615 0.0
C787 C 0.38948 0.02453 0.85526 0.0
C788 C 0.44834 0.0406 0.78282 0.0
C789 C 0.45315 0.01967 0.75248 0.0
C790 C 0.41172 0.02322 0.82 0.0
C791 C 0.43661 1.0009 0.75726 0.0
C792 C 0.37567 1.00435 0.86828 0.0
C793 C 0.36193 0.04793 0.90674 0.0
N794 N 0.41682 1.0031 0.79034 0.0
N795 N 0.38209 0.04561 0.87526 0.0
H796 H 0.5327 0.33109 0.87066 0.0
H797 H 0.47184 0.45199 0.77731 0.0
H798 H 0.46632 0.35254 0.93955 0.0
H799 H 0.54233 0.43477 0.72817 0.0
H800 H 0.46784 0.41396 0.82808 0.0
H801 H 0.53461 0.36694 0.80925 0.0
C802 C 0.51832 0.34313 0.87226 0.0
C803 C 0.4993 0.33866 0.91061 0.0
C804 C 0.48415 0.41843 0.80597 0.0
C805 C 0.50159 0.38014 0.84064 0.0
C806 C 0.48645 0.44018 0.77671 0.0
C807 C 0.50752 0.44678 0.74844 0.0
C808 C 0.503 0.40296 0.807 0.0
C809 C 0.52579 0.43059 0.74947 0.0
C810 C 0.51955 0.36375 0.8375 0.0
C811 C 0.48145 0.35527 0.91132 0.0
N812 N 0.52312 0.40953 0.77833 0.0
N813 N 0.48306 0.37521 0.8771 0.0
H814 H 0.19067 0.50767 0.94505 0.0
H815 H 0.11017 0.50403 0.63626 0.0
H816 H 0.21817 0.4856 0.77357 0.0
H817 H 0.08254 0.49859 0.81744 0.0
H818 H 0.15044 0.50267 0.68211 0.0
H819 H 0.15165 0.51072 0.89506 0.0
C820 C 0.18862 0.50383 0.89658 0.0
C821 C 0.20785 0.49646 0.8635 0.0
C822 C 0.1355 0.50172 0.71162 0.0
C823 C 0.16287 0.49969 0.80585 0.0
C824 C 0.11252 0.50251 0.68555 0.0
C825 C 0.09285 0.5013 0.72296 0.0
C826 C 0.13885 0.50019 0.77562 0.0
C827 C 0.09706 0.4994 0.7866 0.0
C828 C 0.16622 0.50533 0.86819 0.0
C829 C 0.20385 0.49126 0.80094 0.0
N830 N 0.11949 0.49906 0.81077 0.0
N831 N 0.18184 0.49303 0.77409 0.0
H832 H 0.02734 0.82113 0.4797 0.0
H833 H 0.97758 0.95012 0.51176 0.0
H834 H 0.96065 0.84173 0.39828 0.0
H835 H 0.02749 0.9221 0.64449 0.0
H836 H 0.97383 0.91158 0.4629 0.0
H837 H 0.0306 0.85901 0.5336 0.0
C838 C 0.01339 0.83357 0.47318 0.0
C839 C 0.99359 0.82807 0.43469 0.0
C840 C 0.98552 0.91381 0.50292 0.0
C841 C 0.99736 0.8716 0.49562 0.0
C842 C 0.9877 0.93586 0.53087 0.0
C843 C 1.0028 0.93945 0.58265 0.0
C844 C 0.99887 0.89513 0.52593 0.0
C845 C 0.01547 0.92017 0.60508 0.0
C846 C 0.01521 0.85514 0.50416 0.0
C847 C 0.97606 0.84496 0.4281 0.0
N848 N 0.01339 0.89895 0.57635 0.0
N849 N 0.97844 0.8659 0.45775 0.0
H850 H 0.7047 0.99329 0.48774 0.0
H851 H 0.56272 0.99593 0.46832 0.0
H852 H 0.66366 0.99764 0.31804 0.0
H853 H 0.60333 1.00124 0.63883 0.0
H854 H 0.5995 0.9947 0.41331 0.0
H855 H 0.6681 0.99469 0.54411 0.0
C856 C 0.68806 0.99457 0.46217 0.0
C857 C 0.68751 0.99543 0.39766 0.0
C858 C 0.60042 0.99611 0.46278 0.0
C859 C 0.64521 0.99693 0.46249 0.0
C860 C 0.57934 0.99671 0.49442 0.0
C861 C 0.57973 0.99868 0.55866 0.0
C862 C 0.62232 0.99736 0.49525 0.0
C863 C 0.60201 0.99974 0.58945 0.0
C864 C 0.66711 0.99544 0.49454 0.0
C865 C 0.66522 0.99729 0.36757 0.0
N866 N 0.6223 0.99904 0.55763 0.0
N867 N 0.64512 0.99786 0.40003 0.0
H868 H 0.54063 0.67075 0.35995 0.0
H869 H 0.50097 0.60295 0.66256 0.0
H870 H 0.50277 0.70411 0.50231 0.0
H871 H 0.54759 0.57489 0.53089 0.0
H872 H 0.50166 0.64031 0.60658 0.0
H873 H 0.54401 0.63601 0.42407 0.0
C874 C 0.53333 0.67104 0.40505 0.0
C875 C 0.52135 0.69065 0.42526 0.0
C876 C 0.51186 0.626 0.59029 0.0
C877 C 0.52465 0.65018 0.49898 0.0
C878 C 0.5115 0.60464 0.6223 0.0
C879 C 0.52419 0.58558 0.60153 0.0
C880 C 0.52489 0.62834 0.53688 0.0
C881 C 0.53744 0.58893 0.54883 0.0
C882 C 0.5351 0.65097 0.44159 0.0
C883 C 0.51183 0.68941 0.48397 0.0
N884 N 0.53732 0.60973 0.51836 0.0
N885 N 0.51354 0.66953 0.51844 0.0
H886 H 0.84913 0.58005 0.45672 0.0
H887 H 0.93732 0.49121 0.62557 0.0
H888 H 0.82826 0.50992 0.51058 0.0
H889 H 0.95831 0.56069 0.56671 0.0
H890 H 0.89691 0.49848 0.58937 0.0
H891 H 0.88828 0.57413 0.50304 0.0
C892 C 0.85256 0.56351 0.47918 0.0
C893 C 0.83508 0.54551 0.47974 0.0
C894 C 0.91031 0.51218 0.58447 0.0
C895 C 0.88053 0.53841 0.53208 0.0
C896 C 0.93349 0.50805 0.60519 0.0
C897 C 0.95144 0.52532 0.59903 0.0
C898 C 0.90486 0.53376 0.55716 0.0
C899 C 0.94517 0.5468 0.57237 0.0
C900 C 0.87512 0.56006 0.50517 0.0
C901 C 0.84108 0.52426 0.50836 0.0
N902 N 0.9225 0.55036 0.5523 0.0
N903 N 0.86324 0.52131 0.53313 0.0
loop_
_geom_bond_atom_site_label_1
_geom_bond_atom_site_label_2
_geom_bond_distance
_geom_bond_site_symmetry_2
_ccdc_geom_bond_type
C0 C1 1.386 . S
C0 C2 1.397 . S
C0 H24 0.931 1_554 S
C1 C0 1.386 . S
C1 C5 1.397 . S
C2 C0 1.397 . S
C2 C3 1.384 . S
C2 H25 0.930 . S
C3 C2 1.384 . S
C3 C4 1.377 . S
C3 C6 1.481 . S
C4 C3 1.377 . S
C4 C5 1.389 . S
C4 H26 0.929 . S
C5 C1 1.397 . S
C5 C4 1.389 . S
C5 H27 0.931 . S
C6 C3 1.481 . S
C6 C7 1.387 . S
C6 C11 1.390 . S
C7 C6 1.387 . S
C7 C8 1.401 . S
C7 H28 0.930 . S
C8 C7 1.401 . S
C8 C9 1.376 . S
C8 C17 1.511 . S
C9 C8 1.376 . S
C9 C10 1.392 . S
C9 H30 0.931 . S
C10 C9 1.392 . S
C10 C11 1.361 . S
C10 C12 1.500 . S
C11 C6 1.390 . S
C11 C10 1.361 . S
C11 H29 0.931 . S
C12 C10 1.500 . S
C12 C13 1.371 . S
C12 C14 1.365 . S
C13 C12 1.371 . S
C13 C23 1.386 . S
C13 H31 0.931 . S
C14 C12 1.365 . S
C14 C15 1.409 . S
C14 H32 0.929 . S
C15 C14 1.409 . S
C15 C16 1.380 . S
C15 H33 0.930 . S
C16 C15 1.380 . S
C16 C23 1.357 . S
C17 C8 1.511 . S
C17 C18 1.341 . S
C17 C19 1.371 . S
C18 C17 1.341 . S
C18 C22 1.394 . S
C18 H34 0.930 . S
C19 C17 1.371 . S
C19 C20 1.392 . S
C19 H35 0.931 . S
C20 C19 1.392 . S
C20 C21 1.331 . S
C20 H38 0.932 . S
C21 C20 1.331 . S
C21 C22 1.336 . S
C22 C18 1.394 . S
C22 C21 1.336 . S
C22 H37 0.929 . S
C23 C13 1.386 . S
C23 C16 1.357 . S
C23 H36 0.928 . S
H24 C0 0.931 1_556 S
H25 C2 0.930 . S
H26 C4 0.929 . S
H27 C5 0.931 . S
H28 C7 0.930 . S
H29 C11 0.931 . S
H30 C9 0.931 . S
H31 C13 0.931 . S
H32 C14 0.929 . S
H33 C15 0.930 . S
H34 C18 0.930 . S
H35 C19 0.931 . S
H36 C23 0.928 . S
H37 C22 0.929 . S
H38 C20 0.932 . S
C39 C40 1.386 . S
C39 C41 1.397 . S
C39 H63 0.931 . S
C40 C39 1.386 . S
C40 C44 1.397 . S
C41 C39 1.397 . S
C41 C42 1.384 . S
C41 H64 0.930 . S
C42 C41 1.384 . S
C42 C43 1.377 . S
C42 C45 1.481 . S
C43 C42 1.377 . S
C43 C44 1.389 . S
C43 H65 0.929 . S
C44 C40 1.397 . S
C44 C43 1.389 . S
C44 H66 0.931 . S
C45 C42 1.481 . S
C45 C46 1.387 . S
C45 C50 1.390 . S
C46 C45 1.387 . S
C46 C47 1.401 . S
C46 H67 0.930 . S
C47 C46 1.401 . S
C47 C48 1.376 . S
C47 C56 1.511 . S
C48 C47 1.376 . S
C48 C49 1.392 . S
C48 H69 0.931 . S
C49 C48 1.392 . S
C49 C50 1.361 . S
C49 C51 1.500 . S
C50 C45 1.390 . S
C50 C49 1.361 . S
C50 H68 0.931 . S
C51 C49 1.500 . S
C51 C52 1.371 . S
C51 C53 1.365 . S
C52 C51 1.371 . S
C52 C62 1.386 . S
C52 H70 0.931 . S
C53 C51 1.365 . S
C53 C54 1.409 . S
C53 H71 0.929 . S
C54 C53 1.409 . S
C54 C55 1.380 . S
C54 H72 0.930 . S
C55 C54 1.380 . S
C55 C62 1.357 . S
C56 C47 1.511 . S
C56 C57 1.341 . S
C56 C58 1.371 . S
C57 C56 1.341 . S
C57 C61 1.394 . S
C57 H73 0.930 . S
C58 C56 1.371 . S
C58 C59 1.392 . S
C58 H74 0.931 . S
C59 C58 1.392 . S
C59 C60 1.331 . S
C59 H77 0.932 . S
C60 C59 1.331 . S
C60 C61 1.336 . S
C61 C57 1.394 . S
C61 C60 1.336 . S
C61 H76 0.929 . S
C62 C52 1.386 . S
C62 C55 1.357 . S
C62 H75 0.928 . S
H63 C39 0.931 . S
H64 C41 0.930 . S
H65 C43 0.929 . S
H66 C44 0.931 . S
H67 C46 0.930 . S
H68 C50 0.931 . S
H69 C48 0.931 . S
H70 C52 0.931 . S
H71 C53 0.929 . S
H72 C54 0.930 . S
H73 C57 0.930 . S
H74 C58 0.931 . S
H75 C62 0.928 . S
H76 C61 0.929 . S
H77 C59 0.932 . S
C78 C79 1.386 . S
C78 C80 1.397 . S
C78 H102 0.931 . S
C79 C78 1.386 . S
C79 C83 1.397 . S
C80 C78 1.397 . S
C80 C81 1.384 . S
C80 H103 0.930 . S
C81 C80 1.384 . S
C81 C82 1.377 . S
C81 C84 1.481 . S
C82 C81 1.377 . S
C82 C83 1.389 . S
C82 H104 0.929 . S
C83 C79 1.397 . S
C83 C82 1.389 . S
C83 H105 0.931 . S
C84 C81 1.481 . S
C84 C85 1.387 . S
C84 C89 1.390 . S
C85 C84 1.387 . S
C85 C86 1.401 . S
C85 H106 0.930 . S
C86 C85 1.401 . S
C86 C87 1.376 . S
C86 C95 1.511 . S
C87 C86 1.376 . S
C87 C88 1.392 . S
C87 H108 0.931 . S
C88 C87 1.392 . S
C88 C89 1.361 . S
C88 C90 1.500 . S
C89 C84 1.390 . S
C89 C88 1.361 . S
C89 H107 0.931 . S
C90 C88 1.500 . S
C90 C91 1.371 . S
C90 C92 1.365 . S
C91 C90 1.371 . S
C91 C101 1.386 . S
C91 H109 0.931 . S
C92 C90 1.365 . S
C92 C93 1.409 . S
C92 H110 0.929 . S
C93 C92 1.409 . S
C93 C94 1.380 . S
C93 H111 0.930 . S
C94 C93 1.380 . S
C94 C101 1.357 . S
C95 C86 1.511 . S
C95 C96 1.341 . S
C95 C97 1.371 . S
C96 C95 1.341 . S
C96 C100 1.394 . S
C96 H112 0.930 . S
C97 C95 1.371 . S
C97 C98 1.392 . S
C97 H113 0.931 . S
C98 C97 1.392 . S
C98 C99 1.331 . S
C98 H116 0.932 . S
C99 C98 1.331 . S
C99 C100 1.336 . S
C100 C96 1.394 . S
C100 C99 1.336 . S
C100 H115 0.929 . S
C101 C91 1.386 . S
C101 C94 1.357 . S
C101 H114 0.928 . S
H102 C78 0.931 . S
H103 C80 0.930 . S
H104 C82 0.929 . S
H105 C83 0.931 . S
H106 C85 0.930 . S
H107 C89 0.931 . S
H108 C87 0.931 . S
H109 C91 0.931 . S
H110 C92 0.929 . S
H111 C93 0.930 . S
H112 C96 0.930 . S
H113 C97 0.931 . S
H114 C101 0.928 . S
H115 C100 0.929 . S
H116 C98 0.932 . S
C117 C118 1.386 . S
C117 C119 1.397 . S
C117 H141 0.931 . S
C118 C117 1.386 . S
C118 C122 1.397 . S
C119 C117 1.397 . S
C119 C120 1.384 . S
C119 H142 0.930 . S
C120 C119 1.384 . S
C120 C121 1.377 . S
C120 C123 1.481 . S
C121 C120 1.377 . S
C121 C122 1.389 . S
C121 H143 0.929 . S
C122 C118 1.397 . S
C122 C121 1.389 . S
C122 H144 0.931 . S
C123 C120 1.481 . S
C123 C124 1.387 . S
C123 C128 1.390 . S
C124 C123 1.387 . S
C124 C125 1.401 . S
C124 H145 0.930 . S
C125 C124 1.401 . S
C125 C126 1.376 . S
C125 C134 1.511 . S
C126 C125 1.376 . S
C126 C127 1.392 . S
C126 H147 0.931 . S
C127 C126 1.392 . S
C127 C128 1.361 . S
C127 C129 1.500 . S
C128 C123 1.390 . S
C128 C127 1.361 . S
C128 H146 0.931 . S
C129 C127 1.500 . S
C129 C130 1.371 . S
C129 C131 1.365 . S
C130 C129 1.371 . S
C130 C140 1.386 . S
C130 H148 0.931 . S
C131 C129 1.365 . S
C131 C132 1.409 . S
C131 H149 0.929 . S
C132 C131 1.409 . S
C132 C133 1.380 . S
C132 H150 0.930 . S
C133 C132 1.380 . S
C133 C140 1.357 . S
C134 C125 1.511 . S
C134 C135 1.341 . S
C134 C136 1.371 . S
C135 C134 1.341 . S
C135 C139 1.394 . S
C135 H151 0.930 . S
C136 C134 1.371 . S
C136 C137 1.392 . S
C136 H152 0.931 . S
C137 C136 1.392 . S
C137 C138 1.331 . S
C137 H155 0.932 . S
C138 C137 1.331 . S
C138 C139 1.336 . S
C139 C135 1.394 . S
C139 C138 1.336 . S
C139 H154 0.929 . S
C140 C130 1.386 . S
C140 C133 1.357 . S
C140 H153 0.928 1_554 S
H141 C117 0.931 . S
H142 C119 0.930 . S
H143 C121 0.929 . S
H144 C122 0.931 . S
H145 C124 0.930 . S
H146 C128 0.931 . S
H147 C126 0.931 . S
H148 C130 0.931 . S
H149 C131 0.929 . S
H150 C132 0.930 . S
H151 C135 0.930 . S
H152 C136 0.931 . S
H153 C140 0.928 1_556 S
H154 C139 0.929 . S
H155 C137 0.932 . S
C156 C157 1.386 . S
C156 C158 1.397 . S
C156 H180 0.931 . S
C157 C156 1.386 . S
C157 C161 1.397 . S
C158 C156 1.397 . S
C158 C159 1.384 . S
C158 H181 0.930 . S
C159 C158 1.384 . S
C159 C160 1.377 . S
C159 C162 1.481 . S
C160 C159 1.377 . S
C160 C161 1.389 . S
C160 H182 0.929 . S
C161 C157 1.397 . S
C161 C160 1.389 . S
C161 H183 0.931 . S
C162 C159 1.481 . S
C162 C163 1.387 . S
C162 C167 1.390 . S
C163 C162 1.387 . S
C163 C164 1.401 . S
C163 H184 0.930 . S
C164 C163 1.401 . S
C164 C165 1.376 . S
C164 C173 1.511 . S
C165 C164 1.376 . S
C165 C166 1.392 . S
C165 H186 0.931 . S
C166 C165 1.392 . S
C166 C167 1.361 . S
C166 C168 1.500 1_554 S
C167 C162 1.390 . S
C167 C166 1.361 . S
C167 H185 0.931 . S
C168 C166 1.500 1_556 S
C168 C169 1.371 . S
C168 C170 1.365 . S
C169 C168 1.371 . S
C169 C179 1.386 . S
C169 H187 0.931 . S
C170 C168 1.365 . S
C170 C171 1.409 . S
C170 H188 0.929 . S
C171 C170 1.409 . S
C171 C172 1.380 . S
C171 H189 0.930 . S
C172 C171 1.380 . S
C172 C179 1.357 . S
C173 C164 1.511 . S
C173 C174 1.341 . S
C173 C175 1.371 . S
C174 C173 1.341 . S
C174 C178 1.394 . S
C174 H190 0.930 . S
C175 C173 1.371 . S
C175 C176 1.392 . S
C175 H191 0.931 . S
C176 C175 1.392 . S
C176 C177 1.331 . S
C176 H194 0.932 . S
C177 C176 1.331 . S
C177 C178 1.336 . S
C178 C174 1.394 . S
C178 C177 1.336 . S
C178 H193 0.929 . S
C179 C169 1.386 . S
C179 C172 1.357 . S
C179 H192 0.928 . S
H180 C156 0.931 . S
H181 C158 0.930 . S
H182 C160 0.929 . S
H183 C161 0.931 . S
H184 C163 0.930 . S
H185 C167 0.931 . S
H186 C165 0.931 . S
H187 C169 0.931 . S
H188 C170 0.929 . S
H189 C171 0.930 . S
H190 C174 0.930 . S
H191 C175 0.931 . S
H192 C179 0.928 . S
H193 C178 0.929 . S
H194 C176 0.932 . S
C195 C196 1.386 . S
C195 C197 1.397 . S
C195 H219 0.931 . S
C196 C195 1.386 . S
C196 C200 1.397 . S
C197 C195 1.397 . S
C197 C198 1.384 . S
C197 H220 0.930 . S
C198 C197 1.384 . S
C198 C199 1.377 . S
C198 C201 1.481 . S
C199 C198 1.377 . S
C199 C200 1.389 . S
C199 H221 0.929 . S
C200 C196 1.397 . S
C200 C199 1.389 . S
C200 H222 0.931 . S
C201 C198 1.481 . S
C201 C202 1.387 . S
C201 C206 1.390 . S
C202 C201 1.387 . S
C202 C203 1.401 . S
C202 H223 0.930 . S
C203 C202 1.401 . S
C203 C204 1.376 1_554 S
C203 C212 1.511 . S
C204 C203 1.376 1_556 S
C204 C205 1.392 . S
C204 H225 0.931 . S
C205 C204 1.392 . S
C205 C206 1.361 1_556 S
C205 C207 1.500 . S
C206 C201 1.390 . S
C206 C205 1.361 1_554 S
C206 H224 0.931 . S
C207 C205 1.500 . S
C207 C208 1.371 . S
C207 C209 1.365 . S
C208 C207 1.371 . S
C208 C218 1.386 . S
C208 H226 0.931 . S
C209 C207 1.365 . S
C209 C210 1.409 . S
C209 H227 0.929 . S
C210 C209 1.409 . S
C210 C211 1.380 . S
C210 H228 0.930 . S
C211 C210 1.380 . S
C211 C218 1.357 . S
C212 C203 1.511 . S
C212 C213 1.341 . S
C212 C214 1.371 . S
C213 C212 1.341 . S
C213 C217 1.394 . S
C213 H229 0.930 . S
C214 C212 1.371 . S
C214 C215 1.392 . S
C214 H230 0.931 1_554 S
C215 C214 1.392 . S
C215 C216 1.331 . S
C215 H233 0.932 . S
C216 C215 1.331 . S
C216 C217 1.336 . S
C217 C213 1.394 . S
C217 C216 1.336 . S
C217 H232 0.929 . S
C218 C208 1.386 . S
C218 C211 1.357 . S
C218 H231 0.928 . S
H219 C195 0.931 . S
H220 C197 0.930 . S
H221 C199 0.929 . S
H222 C200 0.931 . S
H223 C202 0.930 . S
H224 C206 0.931 . S
H225 C204 0.931 . S
H226 C208 0.931 . S
H227 C209 0.929 . S
H228 C210 0.930 . S
H229 C213 0.930 . S
H230 C214 0.931 1_556 S
H231 C218 0.928 . S
H232 C217 0.929 . S
H233 C215 0.932 . S
C234 C235 1.386 . S
C234 C236 1.397 . S
C234 H258 0.931 . S
C235 C234 1.386 . S
C235 C239 1.397 . S
C236 C234 1.397 . S
C236 C237 1.384 . S
C236 H259 0.930 . S
C237 C236 1.384 . S
C237 C238 1.377 . S
C237 C240 1.481 . S
C238 C237 1.377 . S
C238 C239 1.389 . S
C238 H260 0.929 . S
C239 C235 1.397 . S
C239 C238 1.389 . S
C239 H261 0.931 . S
C240 C237 1.481 . S
C240 C241 1.387 . S
C240 C245 1.403 . S
C241 C240 1.387 . S
C241 C242 1.401 . S
C241 H262 0.930 . S
C242 C241 1.401 . S
C242 C243 1.376 1_554 S
C242 C251 1.511 . S
C243 C242 1.376 1_556 S
C243 C244 1.392 . S
C243 H264 0.931 . S
C244 C243 1.392 . S
C244 C245 1.352 1_556 S
C244 C246 1.500 . S
C245 C240 1.403 . S
C245 C244 1.352 1_554 S
C245 H263 0.928 1_554 S
C246 C244 1.500 . S
C246 C247 1.371 . S
C246 C248 1.365 . S
C247 C246 1.371 . S
C247 C257 1.386 . S
C247 H265 0.931 . S
C248 C246 1.365 . S
C248 C249 1.409 . S
C248 H266 0.929 . S
C249 C248 1.409 . S
C249 C250 1.380 . S
C249 H267 0.930 . S
C250 C249 1.380 . S
C250 C257 1.357 . S
C251 C242 1.511 . S
C251 C252 1.341 . S
C251 C253 1.361 1_554 S
C252 C251 1.341 . S
C252 C256 1.394 . S
C252 H268 0.930 . S
C253 C251 1.361 1_556 S
C253 C254 1.388 1_556 S
C253 H269 0.947 . S
C254 C253 1.388 1_554 S
C254 C255 1.331 . S
C254 H272 0.932 1_554 S
C255 C254 1.331 . S
C255 C256 1.336 . S
C256 C252 1.394 . S
C256 C255 1.336 . S
C256 H271 0.929 . S
C257 C247 1.386 . S
C257 C250 1.357 . S
C257 H270 0.928 . S
H258 C234 0.931 . S
H259 C236 0.930 . S
H260 C238 0.929 . S
H261 C239 0.931 . S
H262 C241 0.930 . S
H263 C245 0.928 1_556 S
H264 C243 0.931 . S
H265 C247 0.931 . S
H266 C248 0.929 . S
H267 C249 0.930 . S
H268 C252 0.930 . S
H269 C253 0.947 . S
H270 C257 0.928 . S
H271 C256 0.929 . S
H272 C254 0.932 1_556 S
C273 C274 1.386 . S
C273 C275 1.397 . S
C273 H297 0.931 . S
C274 C273 1.386 . S
C274 C278 1.397 . S
C275 C273 1.397 . S
C275 C276 1.384 . S
C275 H298 0.930 . S
C276 C275 1.384 . S
C276 C277 1.377 . S
C276 C279 1.481 1_556 S
C277 C276 1.377 . S
C277 C278 1.389 . S
C277 H299 0.929 . S
C278 C274 1.397 . S
C278 C277 1.389 . S
C278 H300 0.931 . S
C279 C276 1.481 1_554 S
C279 C280 1.387 . S
C279 C284 1.390 . S
C280 C279 1.387 . S
C280 C281 1.401 . S
C280 H301 0.930 1_554 S
C281 C280 1.401 . S
C281 C282 1.376 . S
C281 C290 1.511 . S
C282 C281 1.376 . S
C282 C283 1.392 . S
C282 H303 0.931 . S
C283 C282 1.392 . S
C283 C284 1.361 . S
C283 C285 1.500 . S
C284 C279 1.390 . S
C284 C283 1.361 . S
C284 H302 0.931 . S
C285 C283 1.500 . S
C285 C286 1.371 . S
C285 C287 1.365 . S
C286 C285 1.371 . S
C286 C296 1.386 . S
C286 H304 0.931 . S
C287 C285 1.365 . S
C287 C288 1.409 . S
C287 H305 0.929 . S
C288 C287 1.409 . S
C288 C289 1.380 . S
C288 H306 0.930 . S
C289 C288 1.380 . S
C289 C296 1.357 . S
C290 C281 1.511 . S
C290 C291 1.341 . S
C290 C292 1.371 . S
C291 C290 1.341 . S
C291 C295 1.394 . S
C291 H307 0.930 . S
C292 C290 1.371 . S
C292 C293 1.392 . S
C292 H308 0.931 . S
C293 C292 1.392 . S
C293 C294 1.331 . S
C293 H311 0.932 . S
C294 C293 1.331 . S
C294 C295 1.336 . S
C295 C291 1.394 . S
C295 C294 1.336 . S
C295 H310 0.929 . S
C296 C286 1.386 . S
C296 C289 1.357 . S
C296 H309 0.928 . S
H297 C273 0.931 . S
H298 C275 0.930 . S
H299 C277 0.929 . S
H300 C278 0.931 . S
H301 C280 0.930 1_556 S
H302 C284 0.931 . S
H303 C282 0.931 . S
H304 C286 0.931 . S
H305 C287 0.929 . S
H306 C288 0.930 . S
H307 C291 0.930 . S
H308 C292 0.931 . S
H309 C296 0.928 . S
H310 C295 0.929 . S
H311 C293 0.932 . S
Eu312 C321 2.828 . S
Eu312 O323 2.392 . S
Eu312 O325 2.418 1_545 S
Eu312 O330 2.373 1_655 S
Eu312 O333 2.488 . S
Eu312 O334 2.471 . S
Eu312 O335 2.349 1_655 S
Eu313 O322 2.373 1_455 S
Eu313 O326 2.488 . S
Eu313 O327 2.471 . S
Eu313 O328 2.349 . S
Eu313 O331 2.392 1_565 S
Eu313 O332 2.418 1_565 S
Eu313 C342 2.828 . S
C314 O332 1.244 . S
C314 O335 1.265 . S
C315 C316 1.379 1_655 S
C315 C319 1.373 . S
C315 C321 1.505 . S
C316 C315 1.379 1_455 S
C316 C318 1.369 . S
C316 H344 0.930 . S
C317 C319 1.383 . S
C317 C320 1.382 1_655 S
C317 H345 0.930 . S
C318 C316 1.369 . S
C318 C320 1.392 . S
C318 H346 0.930 . S
C319 C315 1.373 . S
C319 C317 1.383 . S
C319 H347 0.931 . S
C320 C317 1.382 1_455 S
C320 C318 1.392 . S
C321 Eu312 2.828 . S
C321 C315 1.505 . S
C321 O333 1.249 . S
C321 O334 1.244 . S
O322 Eu313 2.373 1_655 S
O322 C324 1.258 . S
O323 Eu312 2.392 . S
O323 C324 1.242 1_545 S
C324 O322 1.258 . S
C324 O323 1.242 1_565 S
O325 Eu312 2.418 1_565 S
O325 C329 1.244 . S
O326 Eu313 2.488 . S
O326 C342 1.249 . S
O327 Eu313 2.471 . S
O327 C342 1.244 . S
O328 Eu313 2.349 . S
O328 C329 1.265 1_455 S
C329 O325 1.244 . S
C329 O328 1.265 1_655 S
O330 Eu312 2.373 1_455 S
O330 C343 1.258 . S
O331 Eu313 2.392 1_545 S
O331 C343 1.242 . S
O332 Eu313 2.418 1_545 S
O332 C314 1.244 . S
O333 Eu312 2.488 . S
O333 C321 1.249 . S
O334 Eu312 2.471 . S
O334 C321 1.244 . S
O335 Eu312 2.349 1_455 S
O335 C314 1.265 . S
C336 C337 1.379 . S
C336 C340 1.373 . S
C336 C342 1.505 . S
C337 C336 1.379 . S
C337 C339 1.369 . S
C337 H348 0.930 1_455 S
C338 C340 1.383 . S
C338 C341 1.382 . S
C338 H349 0.930 . S
C339 C337 1.369 . S
C339 C341 1.392 . S
C339 H350 0.930 1_455 S
C340 C336 1.373 . S
C340 C338 1.383 . S
C340 H351 0.931 . S
C341 C338 1.382 . S
C341 C339 1.392 . S
C342 Eu313 2.828 . S
C342 O326 1.249 . S
C342 O327 1.244 . S
C342 C336 1.505 . S
C343 O330 1.258 . S
C343 O331 1.242 . S
H344 C316 0.930 . S
H345 C317 0.930 . S
H346 C318 0.930 . S
H347 C319 0.931 . S
H348 C337 0.930 1_655 S
H349 C338 0.930 . S
H350 C339 0.930 1_655 S
H351 C340 0.931 . S
Eu352 C361 2.828 . S
Eu352 O363 2.392 . S
Eu352 O365 2.418 . S
Eu352 O370 2.373 . S
Eu352 O373 2.488 . S
Eu352 O374 2.471 . S
Eu352 O375 2.349 1_545 S
Eu353 O362 2.373 1_565 S
Eu353 O366 2.488 . S
Eu353 O367 2.471 1_565 S
Eu353 O368 2.349 1_565 S
Eu353 O371 2.392 . S
Eu353 O372 2.418 . S
Eu353 C382 2.828 . S
C354 O372 1.244 . S
C354 O375 1.265 . S
C355 C356 1.379 1_545 S
C355 C359 1.373 . S
C355 C361 1.505 . S
C356 C355 1.379 1_565 S
C356 C358 1.369 . S
C356 H384 0.930 . S
C357 C359 1.383 . S
C357 C360 1.382 . S
C357 H385 0.930 . S
C358 C356 1.369 . S
C358 C360 1.392 1_565 S
C358 H386 0.930 . S
C359 C355 1.373 . S
C359 C357 1.383 . S
C359 H387 0.931 . S
C360 C357 1.382 . S
C360 C358 1.392 1_545 S
C361 Eu352 2.828 . S
C361 C355 1.505 . S
C361 O373 1.249 . S
C361 O374 1.244 . S
O362 Eu353 2.373 1_545 S
O362 C364 1.258 . S
O363 Eu352 2.392 . S
O363 C364 1.242 . S
C364 O362 1.258 . S
C364 O363 1.242 . S
O365 Eu352 2.418 . S
O365 C369 1.244 . S
O366 Eu353 2.488 . S
O366 C382 1.249 . S
O367 Eu353 2.471 1_545 S
O367 C382 1.244 1_545 S
O368 Eu353 2.349 1_545 S
O368 C369 1.265 . S
C369 O365 1.244 . S
C369 O368 1.265 . S
O370 Eu352 2.373 . S
O370 C383 1.258 1_545 S
O371 Eu353 2.392 . S
O371 C383 1.242 . S
O372 Eu353 2.418 . S
O372 C354 1.244 . S
O373 Eu352 2.488 . S
O373 C361 1.249 . S
O374 Eu352 2.471 . S
O374 C361 1.244 . S
O375 Eu352 2.349 1_565 S
O375 C354 1.265 . S
C376 C377 1.379 1_565 S
C376 C380 1.373 . S
C376 C382 1.505 . S
C377 C376 1.379 1_545 S
C377 C379 1.369 . S
C377 H388 0.930 . S
C378 C380 1.383 . S
C378 C381 1.382 . S
C378 H389 0.930 . S
C379 C377 1.369 . S
C379 C381 1.392 1_545 S
C379 H390 0.930 . S
C380 C376 1.373 . S
C380 C378 1.383 . S
C380 H391 0.931 . S
C381 C378 1.382 . S
C381 C379 1.392 1_565 S
C382 Eu353 2.828 . S
C382 O366 1.249 . S
C382 O367 1.244 1_565 S
C382 C376 1.505 . S
C383 O370 1.258 1_565 S
C383 O371 1.242 . S
H384 C356 0.930 . S
H385 C357 0.930 . S
H386 C358 0.930 . S
H387 C359 0.931 . S
H388 C377 0.930 . S
H389 C378 0.930 . S
H390 C379 0.930 . S
H391 C380 0.931 . S
Eu392 C401 2.828 . S
Eu392 O403 2.392 . S
Eu392 O405 2.418 . S
Eu392 O410 2.373 . S
Eu392 O413 2.488 . S
Eu392 O414 2.471 . S
Eu392 O415 2.349 . S
Eu393 O402 2.373 . S
Eu393 O406 2.488 . S
Eu393 O407 2.471 . S
Eu393 O408 2.349 . S
Eu393 O411 2.392 . S
Eu393 O412 2.418 . S
Eu393 C422 2.828 . S
C394 O412 1.244 . S
C394 O415 1.265 . S
C395 C396 1.379 . S
C395 C399 1.373 . S
C395 C401 1.505 . S
C396 C395 1.379 . S
C396 C398 1.369 . S
C396 H424 0.930 . S
C397 C399 1.383 . S
C397 C400 1.382 . S
C397 H425 0.930 . S
C398 C396 1.369 . S
C398 C400 1.392 . S
C398 H426 0.930 . S
C399 C395 1.373 . S
C399 C397 1.383 . S
C399 H427 0.931 . S
C400 C397 1.382 . S
C400 C398 1.392 . S
C401 Eu392 2.828 . S
C401 C395 1.505 . S
C401 O413 1.249 . S
C401 O414 1.244 . S
O402 Eu393 2.373 . S
O402 C404 1.258 . S
O403 Eu392 2.392 . S
O403 C404 1.242 . S
C404 O402 1.258 . S
C404 O403 1.242 . S
O405 Eu392 2.418 . S
O405 C409 1.244 . S
O406 Eu393 2.488 . S
O406 C422 1.249 . S
O407 Eu393 2.471 . S
O407 C422 1.244 . S
O408 Eu393 2.349 . S
O408 C409 1.265 . S
C409 O405 1.244 . S
C409 O408 1.265 . S
O410 Eu392 2.373 . S
O410 C423 1.258 . S
O411 Eu393 2.392 . S
O411 C423 1.242 . S
O412 Eu393 2.418 . S
O412 C394 1.244 . S
O413 Eu392 2.488 . S
O413 C401 1.249 . S
O414 Eu392 2.471 . S
O414 C401 1.244 . S
O415 Eu392 2.349 . S
O415 C394 1.265 . S
C416 C417 1.379 . S
C416 C420 1.373 . S
C416 C422 1.505 . S
C417 C416 1.379 . S
C417 C419 1.369 . S
C417 H428 0.930 . S
C418 C420 1.383 . S
C418 C421 1.382 . S
C418 H429 0.930 . S
C419 C417 1.369 . S
C419 C421 1.392 . S
C419 H430 0.930 . S
C420 C416 1.373 . S
C420 C418 1.383 . S
C420 H431 0.931 . S
C421 C418 1.382 . S
C421 C419 1.392 . S
C422 Eu393 2.828 . S
C422 O406 1.249 . S
C422 O407 1.244 . S
C422 C416 1.505 . S
C423 O410 1.258 . S
C423 O411 1.242 . S
H424 C396 0.930 . S
H425 C397 0.930 . S
H426 C398 0.930 . S
H427 C399 0.931 . S
H428 C417 0.930 . S
H429 C418 0.930 . S
H430 C419 0.930 . S
H431 C420 0.931 . S
Eu432 C441 2.828 . S
Eu432 O443 2.392 . S
Eu432 O445 2.418 1_455 S
Eu432 O450 2.373 . S
Eu432 O453 2.488 . S
Eu432 O454 2.471 . S
Eu432 O455 2.349 . S
Eu433 O442 2.373 . S
Eu433 O446 2.488 . S
Eu433 O447 2.471 . S
Eu433 O448 2.349 . S
Eu433 O451 2.392 1_655 S
Eu433 O452 2.418 1_655 S
Eu433 C462 2.828 . S
C434 O452 1.244 . S
C434 O455 1.265 . S
C435 C436 1.379 . S
C435 C439 1.373 . S
C435 C441 1.505 . S
C436 C435 1.379 . S
C436 C438 1.369 . S
C436 H464 0.930 . S
C437 C439 1.383 . S
C437 C440 1.382 . S
C437 H465 0.930 . S
C438 C436 1.369 . S
C438 C440 1.392 . S
C438 H466 0.930 . S
C439 C435 1.373 . S
C439 C437 1.383 . S
C439 H467 0.931 . S
C440 C437 1.382 . S
C440 C438 1.392 . S
C441 Eu432 2.828 . S
C441 C435 1.505 . S
C441 O453 1.249 . S
C441 O454 1.244 . S
O442 Eu433 2.373 . S
O442 C444 1.258 1_655 S
O443 Eu432 2.392 . S
O443 C444 1.242 . S
C444 O442 1.258 1_455 S
C444 O443 1.242 . S
O445 Eu432 2.418 1_655 S
O445 C449 1.244 . S
O446 Eu433 2.488 . S
O446 C462 1.249 . S
O447 Eu433 2.471 . S
O447 C462 1.244 . S
O448 Eu433 2.349 . S
O448 C449 1.265 . S
C449 O445 1.244 . S
C449 O448 1.265 . S
O450 Eu432 2.373 . S
O450 C463 1.258 . S
O451 Eu433 2.392 1_455 S
O451 C463 1.242 . S
O452 Eu433 2.418 1_455 S
O452 C434 1.244 . S
O453 Eu432 2.488 . S
O453 C441 1.249 . S
O454 Eu432 2.471 . S
O454 C441 1.244 . S
O455 Eu432 2.349 . S
O455 C434 1.265 . S
C456 C457 1.379 . S
C456 C460 1.373 . S
C456 C462 1.505 . S
C457 C456 1.379 . S
C457 C459 1.369 . S
C457 H468 0.930 . S
C458 C460 1.383 . S
C458 C461 1.382 . S
C458 H469 0.930 . S
C459 C457 1.369 . S
C459 C461 1.392 . S
C459 H470 0.930 . S
C460 C456 1.373 . S
C460 C458 1.383 . S
C460 H471 0.931 . S
C461 C458 1.382 . S
C461 C459 1.392 . S
C462 Eu433 2.828 . S
C462 O446 1.249 . S
C462 O447 1.244 . S
C462 C456 1.505 . S
C463 O450 1.258 . S
C463 O451 1.242 . S
H464 C436 0.930 . S
H465 C437 0.930 . S
H466 C438 0.930 . S
H467 C439 0.931 . S
H468 C457 0.930 . S
H469 C458 0.930 . S
H470 C459 0.930 . S
H471 C460 0.931 . S
H472 C478 0.930 . S
H473 C482 0.930 . S
H474 C487 0.929 . S
H475 C485 0.929 1_565 S
H476 C480 0.929 . S
H477 C486 0.929 . S
C478 H472 0.930 . S
C478 C479 1.367 . S
C478 C486 1.378 . S
C479 C478 1.367 . S
C479 C487 1.433 . S
C480 H476 0.929 . S
C480 C482 1.378 . S
C480 C484 1.350 . S
C481 C484 1.463 . S
C481 C486 1.350 . S
C481 N489 1.427 . S
C482 H473 0.930 . S
C482 C480 1.378 . S
C482 C483 1.367 . S
C483 C482 1.367 . S
C483 C485 1.433 . S
C484 C480 1.350 . S
C484 C481 1.463 . S
C484 N488 1.427 . S
C485 H475 0.929 1_545 S
C485 C483 1.433 . S
C485 N488 1.384 . S
C486 H477 0.929 . S
C486 C478 1.378 . S
C486 C481 1.350 . S
C487 H474 0.929 . S
C487 C479 1.433 . S
C487 N489 1.384 . S
N488 C484 1.427 . S
N488 C485 1.384 . S
N489 C481 1.427 . S
N489 C487 1.384 . S
H490 C496 0.930 . S
H491 C500 0.930 . S
H492 C505 0.929 . S
H493 C503 0.929 . S
H494 C498 0.929 . S
H495 C504 0.929 . S
C496 H490 0.930 . S
C496 C497 1.367 . S
C496 C504 1.378 . S
C497 C496 1.367 . S
C497 C505 1.433 . S
C498 H494 0.929 . S
C498 C500 1.378 . S
C498 C502 1.350 . S
C499 C502 1.463 . S
C499 C504 1.350 . S
C499 N507 1.427 . S
C500 H491 0.930 . S
C500 C498 1.378 . S
C500 C501 1.367 . S
C501 C500 1.367 . S
C501 C503 1.433 . S
C502 C498 1.350 . S
C502 C499 1.463 . S
C502 N506 1.427 . S
C503 H493 0.929 . S
C503 C501 1.433 . S
C503 N506 1.384 . S
C504 H495 0.929 . S
C504 C496 1.378 . S
C504 C499 1.350 . S
C505 H492 0.929 . S
C505 C497 1.433 . S
C505 N507 1.384 . S
N506 C502 1.427 . S
N506 C503 1.384 . S
N507 C499 1.427 . S
N507 C505 1.384 . S
H508 C514 0.930 . S
H509 C518 0.930 . S
H510 C523 0.929 . S
H511 C521 0.929 . S
H512 C516 0.929 . S
H513 C522 0.929 . S
C514 H508 0.930 . S
C514 C515 1.367 . S
C514 C522 1.378 . S
C515 C514 1.367 . S
C515 C523 1.433 . S
C516 H512 0.929 . S
C516 C518 1.378 . S
C516 C520 1.350 . S
C517 C520 1.463 . S
C517 C522 1.350 . S
C517 N525 1.427 . S
C518 H509 0.930 . S
C518 C516 1.378 . S
C518 C519 1.367 . S
C519 C518 1.367 . S
C519 C521 1.433 . S
C520 C516 1.350 . S
C520 C517 1.463 . S
C520 N524 1.427 . S
C521 H511 0.929 . S
C521 C519 1.433 . S
C521 N524 1.384 . S
C522 H513 0.929 . S
C522 C514 1.378 . S
C522 C517 1.350 . S
C523 H510 0.929 . S
C523 C515 1.433 . S
C523 N525 1.384 . S
N524 C520 1.427 . S
N524 C521 1.384 . S
N525 C517 1.427 . S
N525 C523 1.384 . S
H526 C532 0.930 . S
H527 C536 0.930 . S
H528 C541 0.929 . S
H529 C539 0.929 . S
H530 C534 0.929 . S
H531 C540 0.929 . S
C532 H526 0.930 . S
C532 C533 1.367 . S
C532 C540 1.378 . S
C533 C532 1.367 . S
C533 C541 1.433 . S
C534 H530 0.929 . S
C534 C536 1.378 . S
C534 C538 1.350 . S
C535 C538 1.463 . S
C535 C540 1.350 . S
C535 N543 1.427 . S
C536 H527 0.930 . S
C536 C534 1.378 . S
C536 C537 1.367 . S
C537 C536 1.367 . S
C537 C539 1.433 . S
C538 C534 1.350 . S
C538 C535 1.463 . S
C538 N542 1.427 . S
C539 H529 0.929 . S
C539 C537 1.433 . S
C539 N542 1.384 . S
C540 H531 0.929 . S
C540 C532 1.378 . S
C540 C535 1.350 . S
C541 H528 0.929 . S
C541 C533 1.433 . S
C541 N543 1.384 . S
N542 C538 1.427 . S
N542 C539 1.384 . S
N543 C535 1.427 . S
N543 C541 1.384 . S
H544 C550 0.930 . S
H545 C554 0.930 . S
H546 C559 0.929 . S
H547 C557 0.896 1_545 S
H548 C552 0.929 . S
H549 C558 0.929 . S
C550 H544 0.930 . S
C550 C551 1.367 . S
C550 C558 1.378 . S
C551 C550 1.367 . S
C551 C559 1.433 . S
C552 H548 0.929 . S
C552 C554 1.378 . S
C552 C556 1.350 . S
C553 C556 1.463 1_554 S
C553 C558 1.350 . S
C553 N561 1.427 . S
C554 H545 0.930 . S
C554 C552 1.378 . S
C554 C555 1.367 . S
C555 C554 1.367 . S
C555 C557 1.460 . S
C556 C552 1.350 . S
C556 C553 1.463 1_556 S
C556 N560 1.427 . S
C557 H547 0.896 1_565 S
C557 C555 1.460 . S
C557 N560 1.394 . S
C558 H549 0.929 . S
C558 C550 1.378 . S
C558 C553 1.350 . S
C559 H546 0.929 . S
C559 C551 1.433 . S
C559 N561 1.384 . S
N560 C556 1.427 . S
N560 C557 1.394 . S
N561 C553 1.427 . S
N561 C559 1.384 . S
H562 C568 0.930 . S
H563 C572 0.930 . S
H564 C577 0.929 . S
H565 C575 0.929 . S
H566 C570 0.929 . S
H567 C576 0.929 . S
C568 H562 0.930 . S
C568 C569 1.367 . S
C568 C576 1.378 . S
C569 C568 1.367 . S
C569 C577 1.433 . S
C570 H566 0.929 . S
C570 C572 1.378 . S
C570 C574 1.350 . S
C571 C574 1.463 . S
C571 C576 1.350 1_556 S
C571 N579 1.427 . S
C572 H563 0.930 . S
C572 C570 1.378 . S
C572 C573 1.367 . S
C573 C572 1.367 . S
C573 C575 1.433 . S
C574 C570 1.350 . S
C574 C571 1.463 . S
C574 N578 1.427 . S
C575 H565 0.929 . S
C575 C573 1.433 . S
C575 N578 1.384 . S
C576 H567 0.929 . S
C576 C568 1.378 . S
C576 C571 1.350 1_554 S
C577 H564 0.929 . S
C577 C569 1.433 . S
C577 N579 1.384 1_554 S
N578 C574 1.427 . S
N578 C575 1.384 . S
N579 C571 1.427 . S
N579 C577 1.384 1_556 S
H580 C586 0.930 . S
H581 C590 0.930 . S
H582 C595 0.929 . S
H583 C593 0.929 . S
H584 C588 0.929 . S
H585 C594 0.929 . S
C586 H580 0.930 . S
C586 C587 1.367 . S
C586 C594 1.378 1_554 S
C587 C586 1.367 . S
C587 C595 1.433 . S
C588 H584 0.929 . S
C588 C590 1.378 . S
C588 C592 1.350 . S
C589 C592 1.463 . S
C589 C594 1.350 . S
C589 N597 1.427 1_556 S
C590 H581 0.930 . S
C590 C588 1.378 . S
C590 C591 1.367 . S
C591 C590 1.367 . S
C591 C593 1.433 . S
C592 C588 1.350 . S
C592 C589 1.463 . S
C592 N596 1.427 . S
C593 H583 0.929 . S
C593 C591 1.433 . S
C593 N596 1.384 . S
C594 H585 0.929 . S
C594 C586 1.378 1_556 S
C594 C589 1.350 . S
C595 H582 0.929 . S
C595 C587 1.433 . S
C595 N597 1.384 . S
N596 C592 1.427 . S
N596 C593 1.384 . S
N597 C589 1.427 1_554 S
N597 C595 1.384 . S
H598 C604 0.930 . S
H599 C608 0.930 . S
H600 C613 0.929 1_455 S
H601 C611 0.929 . S
H602 C606 0.929 . S
H603 C612 0.929 1_556 S
C604 H598 0.930 . S
C604 C605 1.367 . S
C604 C612 1.378 . S
C605 C604 1.367 . S
C605 C613 1.433 . S
C606 H602 0.929 . S
C606 C608 1.378 . S
C606 C610 1.350 1_455 S
C607 C610 1.463 . S
C607 C612 1.350 1_556 S
C607 N615 1.427 1_556 S
C608 H599 0.930 . S
C608 C606 1.378 . S
C608 C609 1.367 1_455 S
C609 C608 1.367 1_655 S
C609 C611 1.433 . S
C610 C606 1.350 1_655 S
C610 C607 1.463 . S
C610 N614 1.427 . S
C611 H601 0.929 . S
C611 C609 1.433 . S
C611 N614 1.384 . S
C612 H603 0.929 1_554 S
C612 C604 1.378 . S
C612 C607 1.350 1_554 S
C613 H600 0.929 1_655 S
C613 C605 1.433 . S
C613 N615 1.384 . S
N614 C610 1.427 . S
N614 C611 1.384 . S
N615 C607 1.427 1_554 S
N615 C613 1.384 . S
H616 C622 0.930 . S
H617 C626 0.930 . S
H618 C631 0.929 . S
H619 C629 0.929 . S
H620 C624 0.929 1_655 S
H621 C630 0.929 . S
C622 H616 0.930 . S
C622 C623 1.367 . S
C622 C630 1.378 . S
C623 C622 1.367 . S
C623 C631 1.433 . S
C624 H620 0.929 1_455 S
C624 C626 1.378 1_455 S
C624 C628 1.350 . S
C625 C628 1.463 . S
C625 C630 1.350 . S
C625 N633 1.427 . S
C626 H617 0.930 . S
C626 C624 1.378 1_655 S
C626 C627 1.367 . S
C627 C626 1.367 . S
C627 C629 1.433 1_655 S
C628 C624 1.350 . S
C628 C625 1.463 . S
C628 N632 1.427 . S
C629 H619 0.929 . S
C629 C627 1.433 1_455 S
C629 N632 1.384 . S
C630 H621 0.929 . S
C630 C622 1.378 . S
C630 C625 1.350 . S
C631 H618 0.929 . S
C631 C623 1.433 . S
C631 N633 1.384 . S
N632 C628 1.427 . S
N632 C629 1.384 . S
N633 C625 1.427 . S
N633 C631 1.384 . S
H634 C640 0.930 . S
H635 C644 0.930 . S
H636 C649 0.929 . S
H637 C647 0.929 . S
H638 C642 0.911 1_565 S
H639 C648 0.929 . S
C640 H634 0.930 . S
C640 C641 1.367 . S
C640 C648 1.378 . S
C641 C640 1.367 . S
C641 C649 1.433 . S
C642 H638 0.911 1_545 S
C642 C644 1.353 1_545 S
C642 C646 1.394 . S
C643 C646 1.463 . S
C643 C648 1.350 . S
C643 N651 1.427 . S
C644 H635 0.930 . S
C644 C642 1.353 1_565 S
C644 C645 1.367 . S
C645 C644 1.367 . S
C645 C647 1.433 1_565 S
C646 C642 1.394 . S
C646 C643 1.463 . S
C646 N650 1.427 . S
C647 H637 0.929 . S
C647 C645 1.433 1_545 S
C647 N650 1.384 . S
C648 H639 0.929 . S
C648 C640 1.378 . S
C648 C643 1.350 . S
C649 H636 0.929 . S
C649 C641 1.433 . S
C649 N651 1.384 . S
N650 C646 1.427 . S
N650 C647 1.384 . S
N651 C643 1.427 . S
N651 C649 1.384 . S
H652 C658 0.930 . S
H653 C662 0.930 . S
H654 C667 0.929 . S
H655 C665 0.929 . S
H656 C660 0.929 . S
H657 C666 0.929 . S
C658 H652 0.930 . S
C658 C659 1.367 . S
C658 C666 1.378 . S
C659 C658 1.367 . S
C659 C667 1.433 . S
C660 H656 0.929 . S
C660 C662 1.378 . S
C660 C664 1.350 . S
C661 C664 1.463 . S
C661 C666 1.350 . S
C661 N669 1.427 . S
C662 H653 0.930 . S
C662 C660 1.378 . S
C662 C663 1.367 . S
C663 C662 1.367 . S
C663 C665 1.433 . S
C664 C660 1.350 . S
C664 C661 1.463 . S
C664 N668 1.427 . S
C665 H655 0.929 . S
C665 C663 1.433 . S
C665 N668 1.384 . S
C666 H657 0.929 . S
C666 C658 1.378 . S
C666 C661 1.350 . S
C667 H654 0.929 . S
C667 C659 1.433 . S
C667 N669 1.384 . S
N668 C664 1.427 . S
N668 C665 1.384 . S
N669 C661 1.427 . S
N669 C667 1.384 . S
H670 C676 0.930 . S
H671 C680 0.930 . S
H672 C685 0.929 . S
H673 C683 0.929 . S
H674 C678 0.929 . S
H675 C684 0.929 . S
C676 H670 0.930 . S
C676 C677 1.367 . S
C676 C684 1.378 . S
C677 C676 1.367 . S
C677 C685 1.433 . S
C678 H674 0.929 . S
C678 C680 1.378 . S
C678 C682 1.350 . S
C679 C682 1.463 . S
C679 C684 1.350 . S
C679 N687 1.427 . S
C680 H671 0.930 . S
C680 C678 1.378 . S
C680 C681 1.367 . S
C681 C680 1.367 . S
C681 C683 1.433 . S
C682 C678 1.350 . S
C682 C679 1.463 . S
C682 N686 1.427 . S
C683 H673 0.929 . S
C683 C681 1.433 . S
C683 N686 1.384 . S
C684 H675 0.929 . S
C684 C676 1.378 . S
C684 C679 1.350 . S
C685 H672 0.929 . S
C685 C677 1.433 . S
C685 N687 1.384 . S
N686 C682 1.427 . S
N686 C683 1.384 . S
N687 C679 1.427 . S
N687 C685 1.384 . S
H688 C694 0.930 . S
H689 C698 0.930 . S
H690 C703 0.929 . S
H691 C701 0.929 . S
H692 C696 0.930 1_655 S
H693 C702 0.929 . S
C694 H688 0.930 . S
C694 C695 1.367 1_556 S
C694 C702 1.378 . S
C695 C694 1.367 1_554 S
C695 C703 1.433 . S
C696 H692 0.930 1_455 S
C696 C698 1.376 . S
C696 C700 1.351 1_454 S
C697 C700 1.463 1_554 S
C697 C702 1.350 1_554 S
C697 N705 1.427 . S
C698 H689 0.930 . S
C698 C696 1.376 . S
C698 C699 1.367 1_554 S
C699 C698 1.367 1_556 S
C699 C701 1.433 . S
C700 C696 1.351 1_656 S
C700 C697 1.463 1_556 S
C700 N704 1.441 . S
C701 H691 0.929 . S
C701 C699 1.433 . S
C701 N704 1.360 1_455 S
C702 H693 0.929 . S
C702 C694 1.378 . S
C702 C697 1.350 1_556 S
C703 H690 0.929 . S
C703 C695 1.433 . S
C703 N705 1.384 . S
N704 C700 1.441 . S
N704 C701 1.360 1_655 S
N705 C697 1.427 . S
N705 C703 1.384 . S
H706 C712 0.930 . S
H707 C716 0.930 . S
H708 C721 0.929 . S
H709 C719 0.929 . S
H710 C714 0.929 . S
H711 C720 0.929 1_556 S
C712 H706 0.930 . S
C712 C713 1.367 . S
C712 C720 1.378 . S
C713 C712 1.367 . S
C713 C721 1.433 . S
C714 H710 0.929 . S
C714 C716 1.378 . S
C714 C718 1.350 1_545 S
C715 C718 1.463 . S
C715 C720 1.350 1_556 S
C715 N723 1.427 1_556 S
C716 H707 0.930 . S
C716 C714 1.378 . S
C716 C717 1.367 . S
C717 C716 1.367 . S
C717 C719 1.433 1_545 S
C718 C714 1.350 1_565 S
C718 C715 1.463 . S
C718 N722 1.427 . S
C719 H709 0.929 . S
C719 C717 1.433 1_565 S
C719 N722 1.384 . S
C720 H711 0.929 1_554 S
C720 C712 1.378 . S
C720 C715 1.350 1_554 S
C721 H708 0.929 . S
C721 C713 1.433 . S
C721 N723 1.384 . S
N722 C718 1.427 . S
N722 C719 1.384 . S
N723 C715 1.427 1_554 S
N723 C721 1.384 . S
H724 C730 0.930 . S
H725 C734 0.930 . S
H726 C739 0.929 . S
H727 C737 0.929 . S
H728 C732 0.929 . S
H729 C738 0.929 . S
C730 H724 0.930 . S
C730 C731 1.367 . S
C730 C738 1.378 . S
C731 C730 1.367 . S
C731 C739 1.433 1_554 S
C732 H728 0.929 . S
C732 C734 1.378 . S
C732 C736 1.350 . S
C733 C736 1.463 . S
C733 C738 1.350 1_556 S
C733 N741 1.427 . S
C734 H725 0.930 . S
C734 C732 1.378 . S
C734 C735 1.367 . S
C735 C734 1.367 . S
C735 C737 1.433 . S
C736 C732 1.350 . S
C736 C733 1.463 . S
C736 N740 1.427 . S
C737 H727 0.929 . S
C737 C735 1.433 . S
C737 N740 1.384 . S
C738 H729 0.929 . S
C738 C730 1.378 . S
C738 C733 1.350 1_554 S
C739 H726 0.929 . S
C739 C731 1.433 1_556 S
C739 N741 1.384 . S
N740 C736 1.427 . S
N740 C737 1.384 . S
N741 C733 1.427 . S
N741 C739 1.384 . S
H742 C748 0.930 . S
H743 C752 0.930 . S
H744 C757 0.929 . S
H745 C755 0.929 . S
H746 C750 0.929 . S
H747 C756 0.929 . S
C748 H742 0.930 . S
C748 C749 1.367 1_556 S
C748 C756 1.378 . S
C749 C748 1.367 1_554 S
C749 C757 1.433 . S
C750 H746 0.929 . S
C750 C752 1.378 . S
C750 C754 1.350 . S
C751 C754 1.463 . S
C751 C756 1.350 . S
C751 N759 1.427 1_556 S
C752 H743 0.930 . S
C752 C750 1.378 . S
C752 C753 1.367 . S
C753 C752 1.367 . S
C753 C755 1.433 . S
C754 C750 1.350 . S
C754 C751 1.463 . S
C754 N758 1.427 . S
C755 H745 0.929 . S
C755 C753 1.433 . S
C755 N758 1.384 . S
C756 H747 0.929 . S
C756 C748 1.378 . S
C756 C751 1.350 . S
C757 H744 0.929 . S
C757 C749 1.433 . S
C757 N759 1.384 . S
N758 C754 1.427 . S
N758 C755 1.384 . S
N759 C751 1.427 1_554 S
N759 C757 1.384 . S
H760 C766 0.930 . S
H761 C770 0.930 . S
H762 C775 0.929 . S
H763 C773 0.929 . S
H764 C768 0.929 . S
H765 C774 0.929 . S
C766 H760 0.930 . S
C766 C767 1.367 . S
C766 C774 1.378 . S
C767 C766 1.367 . S
C767 C775 1.433 . S
C768 H764 0.929 . S
C768 C770 1.378 . S
C768 C772 1.350 . S
C769 C772 1.463 . S
C769 C774 1.350 . S
C769 N777 1.427 . S
C770 H761 0.930 . S
C770 C768 1.378 . S
C770 C771 1.367 . S
C771 C770 1.367 . S
C771 C773 1.433 . S
C772 C768 1.350 . S
C772 C769 1.463 . S
C772 N776 1.427 . S
C773 H763 0.929 . S
C773 C771 1.433 . S
C773 N776 1.384 . S
C774 H765 0.929 . S
C774 C766 1.378 . S
C774 C769 1.350 . S
C775 H762 0.929 . S
C775 C767 1.433 . S
C775 N777 1.384 . S
N776 C772 1.427 . S
N776 C773 1.384 . S
N777 C769 1.427 . S
N777 C775 1.384 . S
H778 C784 0.930 . S
H779 C788 0.930 . S
H780 C793 0.929 . S
H781 C791 0.929 . S
H782 C786 0.929 . S
H783 C792 0.929 . S
C784 H778 0.930 . S
C784 C785 1.367 . S
C784 C792 1.378 . S
C785 C784 1.367 . S
C785 C793 1.433 . S
C786 H782 0.929 . S
C786 C788 1.378 . S
C786 C790 1.350 . S
C787 C790 1.463 . S
C787 C792 1.350 . S
C787 N795 1.427 . S
C788 H779 0.930 . S
C788 C786 1.378 . S
C788 C789 1.367 . S
C789 C788 1.367 . S
C789 C791 1.433 . S
C790 C786 1.350 . S
C790 C787 1.463 . S
C790 N794 1.427 . S
C791 H781 0.929 . S
C791 C789 1.433 . S
C791 N794 1.384 . S
C792 H783 0.929 . S
C792 C784 1.378 . S
C792 C787 1.350 . S
C793 H780 0.929 . S
C793 C785 1.433 . S
C793 N795 1.384 . S
N794 C790 1.427 . S
N794 C791 1.384 . S
N795 C787 1.427 . S
N795 C793 1.384 . S
H796 C802 0.930 . S
H797 C806 0.930 . S
H798 C811 0.929 . S
H799 C809 0.929 . S
H800 C804 0.929 . S
H801 C810 0.929 . S
C802 H796 0.930 . S
C802 C803 1.367 . S
C802 C810 1.378 . S
C803 C802 1.367 . S
C803 C811 1.433 . S
C804 H800 0.929 . S
C804 C806 1.378 . S
C804 C808 1.350 . S
C805 C808 1.463 . S
C805 C810 1.350 . S
C805 N813 1.427 . S
C806 H797 0.930 . S
C806 C804 1.378 . S
C806 C807 1.367 . S
C807 C806 1.367 . S
C807 C809 1.433 . S
C808 C804 1.350 . S
C808 C805 1.463 . S
C808 N812 1.427 . S
C809 H799 0.929 . S
C809 C807 1.433 . S
C809 N812 1.384 . S
C810 H801 0.929 . S
C810 C802 1.378 . S
C810 C805 1.350 . S
C811 H798 0.929 . S
C811 C803 1.433 . S
C811 N813 1.384 . S
N812 C808 1.427 . S
N812 C809 1.384 . S
N813 C805 1.427 . S
N813 C811 1.384 . S
H814 C820 0.930 . S
H815 C824 0.930 . S
H816 C829 0.929 . S
H817 C827 0.929 . S
H818 C822 0.929 . S
H819 C828 0.929 . S
C820 H814 0.930 . S
C820 C821 1.367 . S
C820 C828 1.378 . S
C821 C820 1.367 . S
C821 C829 1.433 . S
C822 H818 0.929 . S
C822 C824 1.378 . S
C822 C826 1.350 . S
C823 C826 1.463 . S
C823 C828 1.350 . S
C823 N831 1.427 . S
C824 H815 0.930 . S
C824 C822 1.378 . S
C824 C825 1.367 . S
C825 C824 1.367 . S
C825 C827 1.433 . S
C826 C822 1.350 . S
C826 C823 1.463 . S
C826 N830 1.427 . S
C827 H817 0.929 . S
C827 C825 1.433 . S
C827 N830 1.384 . S
C828 H819 0.929 . S
C828 C820 1.378 . S
C828 C823 1.350 . S
C829 H816 0.929 . S
C829 C821 1.433 . S
C829 N831 1.384 . S
N830 C826 1.427 . S
N830 C827 1.384 . S
N831 C823 1.427 . S
N831 C829 1.384 . S
H832 C838 0.930 . S
H833 C842 0.930 . S
H834 C847 0.929 . S
H835 C845 0.929 1_455 S
H836 C840 0.929 . S
H837 C846 0.929 . S
C838 H832 0.930 . S
C838 C839 1.367 . S
C838 C846 1.378 . S
C839 C838 1.367 . S
C839 C847 1.433 . S
C840 H836 0.929 . S
C840 C842 1.378 . S
C840 C844 1.350 . S
C841 C844 1.463 . S
C841 C846 1.350 . S
C841 N849 1.427 . S
C842 H833 0.930 . S
C842 C840 1.378 . S
C842 C843 1.367 . S
C843 C842 1.367 . S
C843 C845 1.433 . S
C844 C840 1.350 . S
C844 C841 1.463 . S
C844 N848 1.427 . S
C845 H835 0.929 1_655 S
C845 C843 1.433 . S
C845 N848 1.384 . S
C846 H837 0.929 . S
C846 C838 1.378 . S
C846 C841 1.350 . S
C847 H834 0.929 . S
C847 C839 1.433 . S
C847 N849 1.384 . S
N848 C844 1.427 . S
N848 C845 1.384 . S
N849 C841 1.427 . S
N849 C847 1.384 . S
H850 C856 0.930 . S
H851 C860 0.930 . S
H852 C865 0.929 . S
H853 C863 0.929 . S
H854 C858 0.929 . S
H855 C864 0.929 . S
C856 H850 0.930 . S
C856 C857 1.367 . S
C856 C864 1.378 . S
C857 C856 1.367 . S
C857 C865 1.433 . S
C858 H854 0.929 . S
C858 C860 1.378 . S
C858 C862 1.350 . S
C859 C862 1.463 . S
C859 C864 1.350 . S
C859 N867 1.427 . S
C860 H851 0.930 . S
C860 C858 1.378 . S
C860 C861 1.367 . S
C861 C860 1.367 . S
C861 C863 1.433 . S
C862 C858 1.350 . S
C862 C859 1.463 . S
C862 N866 1.427 . S
C863 H853 0.929 . S
C863 C861 1.433 . S
C863 N866 1.384 . S
C864 H855 0.929 . S
C864 C856 1.378 . S
C864 C859 1.350 . S
C865 H852 0.929 . S
C865 C857 1.433 . S
C865 N867 1.384 . S
N866 C862 1.427 . S
N866 C863 1.384 . S
N867 C859 1.427 . S
N867 C865 1.384 . S
H868 C874 0.930 . S
H869 C878 0.930 . S
H870 C883 0.929 . S
H871 C881 0.929 . S
H872 C876 0.929 . S
H873 C882 0.929 . S
C874 H868 0.930 . S
C874 C875 1.367 . S
C874 C882 1.378 . S
C875 C874 1.367 . S
C875 C883 1.433 . S
C876 H872 0.929 . S
C876 C878 1.378 . S
C876 C880 1.350 . S
C877 C880 1.463 . S
C877 C882 1.350 . S
C877 N885 1.427 . S
C878 H869 0.930 . S
C878 C876 1.378 . S
C878 C879 1.367 . S
C879 C878 1.367 . S
C879 C881 1.433 . S
C880 C876 1.350 . S
C880 C877 1.463 . S
C880 N884 1.427 . S
C881 H871 0.929 . S
C881 C879 1.433 . S
C881 N884 1.384 . S
C882 H873 0.929 . S
C882 C874 1.378 . S
C882 C877 1.350 . S
C883 H870 0.929 . S
C883 C875 1.433 . S
C883 N885 1.384 . S
N884 C880 1.427 . S
N884 C881 1.384 . S
N885 C877 1.427 . S
N885 C883 1.384 . S
H886 C892 0.930 . S
H887 C896 0.930 . S
H888 C901 0.929 . S
H889 C899 0.929 . S
H890 C894 0.929 . S
H891 C900 0.929 . S
C892 H886 0.930 . S
C892 C893 1.367 . S
C892 C900 1.378 . S
C893 C892 1.367 . S
C893 C901 1.433 . S
C894 H890 0.929 . S
C894 C896 1.378 . S
C894 C898 1.350 . S
C895 C898 1.463 . S
C895 C900 1.350 . S
C895 N903 1.427 . S
C896 H887 0.930 . S
C896 C894 1.378 . S
C896 C897 1.367 . S
C897 C896 1.367 . S
C897 C899 1.433 . S
C898 C894 1.350 . S
C898 C895 1.463 . S
C898 N902 1.427 . S
C899 H889 0.929 . S
C899 C897 1.433 . S
C899 N902 1.384 . S
C900 H891 0.929 . S
C900 C892 1.378 . S
C900 C895 1.350 . S
C901 H888 0.929 . S
C901 C893 1.433 . S
C901 N903 1.384 . S
N902 C898 1.427 . S
N902 C899 1.384 . S
N903 C895 1.427 . S
N903 C901 1.384 . S
C479 C255 2.736 . S
C483 C343 2.939 . S
C501 C369 2.379 . S
C497 C294 2.140 . S
C519 C409 2.361 . S
C515 C177 2.173 . S
C537 C463 2.870 . S
C533 C216 2.699 . S
C555 C324 2.942 . S
C551 C99 2.753 . S
C569 C138 2.151 . S
C573 C354 2.380 . S
C587 C21 2.172 . S
C591 C394 2.360 . S
C605 C60 2.716 . S
C609 C444 2.874 1_655 S
C627 C320 0.407 1_655 S
C623 C196 0.469 . S
C645 C381 0.652 . S
C641 C235 0.662 . S
C663 C421 0.377 . S
C659 C289 0.331 . S
C677 C157 0.431 . S
C681 C440 0.330 . S
C695 C40 0.460 . S
C699 C341 0.425 . S
C717 C360 0.663 . S
C713 C79 0.661 . S
C735 C400 0.383 . S
C731 C133 0.317 . S
C749 C1 0.431 . S
C753 C461 0.357 . S
C767 C211 2.522 . S
C771 C314 2.894 . S
C785 C250 3.154 . S
C789 C364 3.509 . S
C807 C404 3.228 . S
C803 C274 2.905 . S
C825 C434 2.595 . S
C821 C172 2.266 . S
C839 C55 2.534 . S
C843 C329 2.896 . S
C861 C383 3.509 . S
C857 C94 3.162 . S
C879 C423 3.226 . S
C875 C118 2.910 . S
C893 C16 2.267 . S
C897 C449 2.598 . S
