# Generated by pormake.
# Topology zzz, (3,6)-cn, num edge types: 1
# Building blocks:
#     Node 0, Type 0, BuildingBlock: BETDAH_clean_linker_0, # of connection points: 3
#     Node 1, Type 0, BuildingBlock: BETDAH_clean_linker_0, # of connection points: 3
#     Node 2, Type 0, BuildingBlock: BETDAH_clean_linker_0, # of connection points: 3
#     Node 3, Type 0, BuildingBlock: BETDAH_clean_linker_0, # of connection points: 3
#     Node 4, Type 0, BuildingBlock: BETDAH_clean_linker_0, # of connection points: 3
#     Node 5, Type 0, BuildingBlock: BETDAH_clean_linker_0, # of connection points: 3
#     Node 6, Type 0, BuildingBlock: BETDAH_clean_linker_0, # of connection points: 3
#     Node 7, Type 0, BuildingBlock: BETDAH_clean_linker_0, # of connection points: 3
#     Node 8, Type 1, BuildingBlock: PAMTUU_clean_sbu_0, # of connection points: 6
#     Node 9, Type 1, BuildingBlock: PAMTUU_clean_sbu_0, # of connection points: 6
#     Node 10, Type 1, BuildingBlock: PAMTUU_clean_sbu_0, # of connection points: 6
#     Node 11, Type 1, BuildingBlock: PAMTUU_clean_sbu_0, # of connection points: 6
#     Edge 12, Type (0, 1), BuildingBlock: AJUNOK_clean_linker_0, # of connection points: 2
#     Edge 13, Type (0, 1), BuildingBlock: AJUNOK_clean_linker_0, # of connection points: 2
#     Edge 14, Type (0, 1), BuildingBlock: AJUNOK_clean_linker_0, # of connection points: 2
#     Edge 15, Type (0, 1), BuildingBlock: AJUNOK_clean_linker_0, # of connection points: 2
#     Edge 16, Type (0, 1), BuildingBlock: AJUNOK_clean_linker_0, # of connection points: 2
#     Edge 17, Type (0, 1), BuildingBlock: AJUNOK_clean_linker_0, # of connection points: 2
#     Edge 18, Type (0, 1), BuildingBlock: AJUNOK_clean_linker_0, # of connection points: 2
#     Edge 19, Type (0, 1), BuildingBlock: AJUNOK_clean_linker_0, # of connection points: 2
#     Edge 20, Type (0, 1), BuildingBlock: AJUNOK_clean_linker_0, # of connection points: 2
#     Edge 21, Type (0, 1), BuildingBlock: AJUNOK_clean_linker_0, # of connection points: 2
#     Edge 22, Type (0, 1), BuildingBlock: AJUNOK_clean_linker_0, # of connection points: 2
#     Edge 23, Type (0, 1), BuildingBlock: AJUNOK_clean_linker_0, # of connection points: 2
#     Edge 24, Type (0, 1), BuildingBlock: AJUNOK_clean_linker_0, # of connection points: 2
#     Edge 25, Type (0, 1), BuildingBlock: AJUNOK_clean_linker_0, # of connection points: 2
#     Edge 26, Type (0, 1), BuildingBlock: AJUNOK_clean_linker_0, # of connection points: 2
#     Edge 27, Type (0, 1), BuildingBlock: AJUNOK_clean_linker_0, # of connection points: 2
#     Edge 28, Type (0, 1), BuildingBlock: AJUNOK_clean_linker_0, # of connection points: 2
#     Edge 29, Type (0, 1), BuildingBlock: AJUNOK_clean_linker_0, # of connection points: 2
#     Edge 30, Type (0, 1), BuildingBlock: AJUNOK_clean_linker_0, # of connection points: 2
#     Edge 31, Type (0, 1), BuildingBlock: AJUNOK_clean_linker_0, # of connection points: 2
#     Edge 32, Type (0, 1), BuildingBlock: AJUNOK_clean_linker_0, # of connection points: 2
#     Edge 33, Type (0, 1), BuildingBlock: AJUNOK_clean_linker_0, # of connection points: 2
#     Edge 34, Type (0, 1), BuildingBlock: AJUNOK_clean_linker_0, # of connection points: 2
#     Edge 35, Type (0, 1), BuildingBlock: AJUNOK_clean_linker_0, # of connection points: 2
# Relax obj value: 0.278
# Max RMSD: 0.252
# Mean RMSD: 0.116
data_MOF--net-zzz--node1-PAMTUU_clean_sbu_0--node2-BETDAH_clean_linker_0--edge1-AJUNOK_clean_linker_0
_symmetry_space_group_name_H-M    P1
_symmetry_Int_Tables_number       1
_symmetry_cell_setting            triclinic
loop_
_symmetry_equiv_pos_as_xyz
'x, y, z'
_cell_length_a     36.037517
_cell_length_b     40.155572
_cell_length_c     12.111358
_cell_angle_alpha  103.45775
_cell_angle_beta   90.444653
_cell_angle_gamma 89.023305
loop_
_atom_site_label
_atom_site_type_symbol
_atom_site_fract_x
_atom_site_fract_y
_atom_site_fract_z
_atom_type_partial_charge
H0 H 0.85595 0.46058 0.46943 0.0
H1 H 0.75163 0.483 0.32906 0.0
H2 H 0.79193 0.54852 0.64064 0.0
C3 C 0.8305 0.4758 0.47761 0.0
C4 C 0.8272 0.50474 0.56742 0.0
C5 C 0.80354 0.46812 0.39176 0.0
C6 C 0.77174 0.48884 0.39751 0.0
C7 C 0.76676 0.51764 0.48801 0.0
C8 C 0.79495 0.52581 0.57245 0.0
N9 N 0.73446 0.53916 0.49304 0.0
C10 C 0.70661 0.53451 0.40922 0.0
H11 H 1.03435 0.84011 0.42949 0.0
H12 H 1.03693 0.73116 0.30596 0.0
H13 H 0.98512 0.77693 0.62816 0.0
C14 C 1.02669 0.81494 0.43961 0.0
C15 C 1.00781 0.81208 0.53691 0.0
C16 C 1.03757 0.786 0.3576 0.0
C17 C 1.02846 0.75336 0.37054 0.0
C18 C 1.00889 0.74984 0.46798 0.0
C19 C 0.99925 0.77941 0.55191 0.0
N20 N 0.99903 0.71718 0.48484 0.0
C21 C 1.00555 0.68644 0.40566 0.0
H22 H 0.73317 0.06809 0.60848 0.0
H23 H 0.83936 0.05835 0.44188 0.0
H24 H 0.79839 0.97682 0.5833 0.0
C25 C 0.75932 0.05461 0.5862 0.0
C26 C 0.76327 0.0223 0.60975 0.0
C27 C 0.78626 0.06799 0.52525 0.0
C28 C 0.81856 0.0484 0.48911 0.0
C29 C 0.82325 0.01534 0.50837 0.0
C30 C 0.79536 1.0024 0.56932 0.0
N31 N 0.8548 0.99427 0.46414 0.0
C32 C 0.88179 1.00167 0.38987 0.0
H33 H 0.54972 0.68497 0.27199 0.0
H34 H 0.54441 0.75423 0.04851 0.0
H35 H 0.61544 0.77498 0.34451 0.0
C36 C 0.55647 0.70934 0.25326 0.0
C37 C 0.58275 0.7295 0.32111 0.0
C38 C 0.54278 0.71729 0.15394 0.0
C39 C 0.55364 0.74826 0.12711 0.0
C40 C 0.57878 0.77014 0.19935 0.0
C41 C 0.59411 0.75979 0.29386 0.0
N42 N 0.59369 0.79993 0.17217 0.0
C43 C 0.57527 0.82407 0.124 0.0
H44 H 0.22814 0.58536 0.27898 0.0
H45 H 0.327 0.56376 0.45118 0.0
H46 H 0.28881 0.49147 0.15186 0.0
C47 C 0.25268 0.56951 0.28128 0.0
C48 C 0.25589 0.53819 0.20137 0.0
C49 C 0.27785 0.5786 0.37219 0.0
C50 C 0.30818 0.5569 0.37959 0.0
C51 C 0.31273 0.52551 0.29999 0.0
C52 C 0.28622 0.51613 0.2113 0.0
N53 N 0.34235 0.50229 0.31103 0.0
C54 C 0.36843 0.50755 0.40004 0.0
H55 H 1.04494 0.18915 0.34425 0.0
H56 H 1.03595 0.29859 0.4409 0.0
H57 H 0.09368 0.24872 0.13286 0.0
C58 C 0.05142 0.2139 0.328 0.0
C59 C 0.07173 0.21529 0.23179 0.0
C60 C 1.03817 0.24357 0.40228 0.0
C61 C 1.04612 0.27569 0.38231 0.0
C62 C 0.06652 0.27774 0.28473 0.0
C63 C 0.07857 0.24734 0.20861 0.0
N64 N 0.07503 0.30977 0.26039 0.0
C65 C 0.07182 0.34094 0.33962 0.0
H66 H 0.36205 0.9464 0.19207 0.0
H67 H 0.25998 0.96629 0.37761 0.0
H68 H 0.30011 0.03891 0.19454 0.0
C69 C 0.33725 0.96214 0.21501 0.0
C70 C 0.33427 0.99313 0.18135 0.0
C71 C 0.31074 0.9524 0.2854 0.0
C72 C 0.27977 0.97366 0.32112 0.0
C73 C 0.2752 1.00481 0.28803 0.0
C74 C 0.30294 0.01467 0.21879 0.0
N75 N 0.24373 0.02684 0.32562 0.0
C76 C 0.21572 0.02097 0.39934 0.0
H77 H 0.56498 0.32986 0.52312 0.0
H78 H 0.54518 0.26549 0.75384 0.0
H79 H 0.50291 0.23816 0.412 0.0
C80 C 0.55595 0.30554 0.53756 0.0
C81 C 0.53489 0.2843 0.45367 0.0
C82 C 0.5587 0.3001 0.64703 0.0
C83 C 0.54476 0.26942 0.66834 0.0
C84 C 0.5268 0.24554 0.58023 0.0
C85 C 0.52036 0.25423 0.47521 0.0
N86 N 0.50797 0.21665 0.60088 0.0
C87 C 0.52297 0.19072 0.6482 0.0
Tb88 Tb 1.01585 0.02781 0.81989 0.0
Tb89 Tb 0.07927 0.9966 0.96336 0.0
C90 C 0.99723 1.00957 0.05645 0.0
C91 C 0.97375 0.09093 0.68417 0.0
C92 C 0.98433 0.15669 0.64565 0.0
C93 C 0.94867 0.14621 0.66791 0.0
C94 C 0.94347 0.11359 0.6877 0.0
C95 C 1.00921 0.10114 0.66005 0.0
C96 C 1.01438 0.13353 0.64009 0.0
C97 C 0.96952 0.05899 0.72179 0.0
O98 O 0.05439 0.06873 0.88334 0.0
O99 O 0.07701 0.05148 0.03823 0.0
O100 O 0.10962 0.01455 0.83313 0.0
O101 O 0.06301 0.01306 0.70257 0.0
O102 O 0.10107 0.98783 0.11603 0.0
O103 O 0.12973 0.96943 0.95765 0.0
O104 O 0.05644 0.95321 0.84167 0.0
O105 O 1.00028 0.97457 0.79582 0.0
O106 O 0.99165 0.03021 0.98766 0.0
O107 O 1.0271 0.9898 0.0469 0.0
C108 C 0.07069 0.07556 0.98281 0.0
O109 O 0.98912 0.03251 0.66877 0.0
O110 O 0.97171 0.06305 0.83127 0.0
C111 C 0.09869 0.01391 0.72876 0.0
C112 C 0.12706 0.93223 0.082 0.0
C113 C 0.11328 0.86763 0.12551 0.0
C114 C 0.12308 0.89548 0.21444 0.0
C115 C 0.12988 0.92753 0.19284 0.0
C116 C 0.11986 0.90379 0.99206 0.0
C117 C 0.1131 0.87176 0.01368 0.0
C118 C 0.12686 0.96721 0.06281 0.0
C119 C 1.02276 0.94873 0.79918 0.0
H120 H 0.92496 0.16335 0.67107 0.0
H121 H 0.916 0.10632 0.70819 0.0
H122 H 1.03309 0.08426 0.65861 0.0
H123 H 1.04197 0.14028 0.61885 0.0
H124 H 0.12308 0.89308 0.30171 0.0
H125 H 0.1353 0.94905 0.26342 0.0
H126 H 0.11756 0.90655 0.90542 0.0
H127 H 0.10596 0.85066 0.94363 0.0
Tb128 Tb 0.53435 0.98337 0.75794 0.0
Tb129 Tb 0.55996 0.02958 1.00109 0.0
C130 C 0.55264 0.94927 0.96436 0.0
C131 C 0.48611 0.92084 0.52951 0.0
C132 C 0.41814 0.88963 0.45938 0.0
C133 C 0.4304 0.89321 0.57207 0.0
C134 C 0.46411 0.90913 0.60737 0.0
C135 C 0.47659 0.9128 0.4145 0.0
C136 C 0.44295 0.89719 0.37942 0.0
C137 C 0.51446 0.94662 0.56851 0.0
O138 O 0.48624 0.98344 0.86811 0.0
O139 O 0.49877 0.03175 1.00545 0.0
O140 O 0.56643 0.06152 0.88029 0.0
O141 O 0.52247 0.03693 0.75357 0.0
O142 O 0.58406 0.03541 0.16201 0.0
O143 O 0.56122 0.07912 0.10828 0.0
O144 O 0.61256 1.01061 0.91444 0.0
O145 O 0.59148 0.99703 0.73048 0.0
O146 O 0.55302 0.94639 0.85406 0.0
O147 O 0.54979 0.97942 0.03538 0.0
C148 C 0.47553 1.0077 0.95593 0.0
O149 O 0.50152 0.97733 0.61145 0.0
O150 O 0.54149 0.93843 0.62934 0.0
C151 C 0.54323 0.06333 0.79831 0.0
C152 C 0.61746 0.08648 0.2106 0.0
C153 C 0.68635 0.11592 0.28679 0.0
C154 C 0.65293 0.13455 0.31668 0.0
C155 C 0.61868 0.11967 0.2802 0.0
C156 C 0.65066 0.06966 0.16988 0.0
C157 C 0.68453 0.08396 0.20803 0.0
C158 C 0.58205 0.06875 0.18239 0.0
C159 C 0.61905 1.0027 0.80402 0.0
H160 H 0.41216 0.88718 0.63503 0.0
H161 H 0.47137 0.91495 0.69672 0.0
H162 H 0.49326 0.92166 0.35334 0.0
H163 H 0.4346 0.89532 0.29215 0.0
H164 H 0.65292 0.15992 0.37194 0.0
H165 H 0.59322 0.13357 0.30937 0.0
H166 H 0.65057 0.04441 0.11337 0.0
H167 H 0.70904 0.06827 0.18173 0.0
Tb168 Tb 0.50995 0.50336 0.98449 0.0
Tb169 Tb 0.57133 0.51744 0.80415 0.0
C170 C 0.48441 0.51172 0.74268 0.0
C171 C 0.47589 0.4493 0.15825 0.0
C172 C 0.49006 0.38596 0.21753 0.0
C173 C 0.46552 0.41065 0.28245 0.0
C174 C 0.45814 0.44189 0.2521 0.0
C175 C 0.50026 0.42483 0.09459 0.0
C176 C 0.50617 0.39318 0.12072 0.0
C177 C 0.47051 0.48225 0.12498 0.0
O178 O 0.52176 0.4561 0.86043 0.0
O179 O 0.58156 0.4644 0.81772 0.0
O180 O 0.59429 0.5349 0.97453 0.0
O181 O 0.56544 0.49645 0.05256 0.0
O182 O 0.59212 0.51174 0.63847 0.0
O183 O 0.62159 0.54092 0.7829 0.0
O184 O 0.53922 0.56474 0.85027 0.0
O185 O 0.51277 0.55942 0.01811 0.0
O186 O 0.4754 0.51614 0.85058 0.0
O187 O 0.51919 0.50655 0.70796 0.0
C188 C 0.55483 0.44363 0.82976 0.0
O189 O 0.49717 0.50409 0.15451 0.0
O190 O 0.46124 0.4795 0.01907 0.0
C191 C 0.59277 0.51772 0.05382 0.0
C192 C 0.61869 0.56423 0.62342 0.0
C193 C 0.61803 0.62675 0.55384 0.0
C194 C 0.65144 0.61314 0.58678 0.0
C195 C 0.6517 0.58219 0.62175 0.0
C196 C 0.58543 0.57777 0.59006 0.0
C197 C 0.58512 0.60852 0.55513 0.0
C198 C 0.6182 0.53396 0.6731 0.0
C199 C 0.52244 0.57815 0.94665 0.0
H200 H 0.4527 0.40624 0.35823 0.0
H201 H 0.43924 0.46036 0.30287 0.0
H202 H 0.51523 0.43045 0.02489 0.0
H203 H 0.52394 0.37466 0.06545 0.0
H204 H 0.67717 0.62676 0.5879 0.0
H205 H 0.67751 0.57269 0.65017 0.0
H206 H 0.55948 0.56498 0.59352 0.0
H207 H 0.55898 0.61808 0.52906 0.0
Tb208 Tb 0.05465 0.54353 0.79173 0.0
Tb209 Tb 1.03411 0.48755 0.93382 0.0
C210 C 1.03181 0.5657 0.04567 0.0
C211 C 0.10083 0.61125 0.68317 0.0
C212 C 0.17021 0.63912 0.65686 0.0
C213 C 0.16004 0.63306 0.76246 0.0
C214 C 0.1257 0.61868 0.775 0.0
C215 C 0.10863 0.62179 0.58391 0.0
C216 C 0.14304 0.63558 0.57058 0.0
C217 C 0.07055 0.58731 0.68106 0.0
O218 O 0.10863 0.5305 0.86041 0.0
O219 O 0.0893 0.50337 0.99809 0.0
O220 O 0.07107 0.46547 0.79572 0.0
O221 O 0.04692 0.494 0.67278 0.0
O222 O 1.02101 0.47047 0.08028 0.0
O223 O 1.0263 0.4351 0.91672 0.0
O224 O 0.98502 0.49103 0.82837 0.0
O225 O 0.99392 0.5438 0.79284 0.0
O226 O 0.05603 0.56946 0.96956 0.0
O227 O 1.01377 0.53687 0.03419 0.0
C228 C 0.1156 0.51721 0.94909 0.0
O229 O 0.0804 0.55506 0.65117 0.0
O230 O 0.04837 0.59354 0.76815 0.0
C231 C 0.06231 0.4661 0.69176 0.0
C232 C 0.9796 0.42458 0.03739 0.0
C233 C 0.90687 0.40842 0.08579 0.0
C234 C 0.93557 0.40933 0.16611 0.0
C235 C 0.97162 0.41729 0.14188 0.0
C236 C 0.9518 0.42095 0.95343 0.0
C237 C 0.91571 0.41277 0.97735 0.0
C238 C 1.01562 0.43927 0.02153 0.0
C239 C 0.97225 0.51789 0.79408 0.0
H240 H 0.18009 0.63588 0.831 0.0
H241 H 0.11992 0.61077 0.85272 0.0
H242 H 0.0896 0.61628 0.51242 0.0
H243 H 0.1496 0.63933 0.48732 0.0
H244 H 0.92971 0.4071 0.25163 0.0
H245 H 0.99268 0.42004 0.20755 0.0
H246 H 0.95738 0.42633 0.87163 0.0
H247 H 0.89418 0.41241 0.91417 0.0
C248 C 0.19387 1.01015 0.58314 0.0
C249 C 0.1857 0.01777 0.47793 0.0
C250 C 0.16567 1.00875 0.66237 0.0
C251 C 0.12782 0.01477 0.64014 0.0
H252 H 0.22241 1.00557 0.60513 0.0
H253 H 0.17378 1.00292 0.74217 0.0
S254 S 0.09194 0.03627 0.37609 0.0
N255 N 0.13721 0.03172 0.35542 0.0
N256 N 0.08432 0.02887 0.5025 0.0
C257 C 0.11939 0.02213 0.53408 0.0
C258 C 0.14823 0.02372 0.45375 0.0
C259 C 0.5081 0.13029 0.64082 0.0
C260 C 0.53023 0.15893 0.68438 0.0
C261 C 0.51286 0.0995 0.67654 0.0
C262 C 0.53998 0.09598 0.75785 0.0
H263 H 0.48654 0.13179 0.57921 0.0
H264 H 0.49472 0.07844 0.64095 0.0
S265 S 0.60616 0.16365 0.89474 0.0
N266 N 0.58083 0.18191 0.81028 0.0
N267 N 0.59022 0.12446 0.87811 0.0
C268 C 0.56277 0.12457 0.80062 0.0
C269 C 0.5578 0.1559 0.76384 0.0
C270 C 0.39044 0.49938 0.58809 0.0
C271 C 0.39696 0.5107 0.48848 0.0
C272 C 0.4185 0.50043 0.67099 0.0
C273 C 0.45441 0.51222 0.65639 0.0
H274 H 0.36359 0.4893 0.60162 0.0
H275 H 0.41226 0.49112 0.74574 0.0
S276 S 0.48449 0.54706 0.41358 0.0
N277 N 0.44098 0.53603 0.38303 0.0
N278 N 0.49379 0.53712 0.53583 0.0
C279 C 0.46084 0.52409 0.55751 0.0
C280 C 0.43212 0.52359 0.47448 0.0
C281 C 0.05502 0.40252 0.40424 0.0
C282 C 0.0704 0.37242 0.42672 0.0
C283 C 0.0532 0.43303 0.48956 0.0
C284 C 0.06681 0.43435 0.60001 0.0
H285 H 1.04414 0.40243 0.32058 0.0
H286 H 1.04058 0.45553 0.46909 0.0
S287 S 0.11095 0.36172 0.698 0.0
N288 N 0.10013 0.3454 0.56387 0.0
N289 N 0.09728 0.40224 0.72436 0.0
C290 C 0.08289 0.40416 0.62187 0.0
C291 C 0.08453 0.37329 0.53511 0.0
C292 C 0.90405 0.01928 0.21646 0.0
C293 C 0.91147 1.00522 0.31059 0.0
C294 C 0.93191 0.02098 0.13623 0.0
C295 C 0.96842 1.00833 0.14562 0.0
H296 H 0.87637 0.02874 0.20392 0.0
H297 H 0.92447 0.03181 0.06496 0.0
S298 S 1.00243 0.97062 0.38133 0.0
N299 N 0.95825 0.97975 0.41163 0.0
N300 N 1.01023 0.98241 0.26176 0.0
C301 C 0.97614 0.99463 0.24093 0.0
C302 C 0.94783 0.99323 0.32294 0.0
C303 C 0.55773 0.8542 0.97231 0.0
C304 C 0.56503 0.85515 0.08705 0.0
C305 C 0.55307 0.88465 0.93405 0.0
C306 C 0.55575 0.91734 0.00891 0.0
H307 H 0.55655 0.82981 0.91109 0.0
H308 H 0.54789 0.88245 0.84445 0.0
S309 S 0.5751 0.93312 0.31869 0.0
N310 N 0.57483 0.89097 0.27539 0.0
N311 N 0.56618 0.94799 0.20494 0.0
C312 C 0.56247 0.91833 0.12464 0.0
C313 C 0.56715 0.88732 0.16318 0.0
C314 C 0.64576 0.51207 0.3261 0.0
C315 C 0.67812 0.53071 0.32059 0.0
C316 C 0.61839 0.50793 0.23991 0.0
C317 C 0.62221 0.52242 0.14489 0.0
H318 H 0.64156 0.50052 0.39737 0.0
H319 H 0.594 0.49333 0.24823 0.0
S320 S 0.70241 0.57383 0.09252 0.0
N321 N 0.71262 0.56384 0.21411 0.0
N322 N 0.66178 0.55649 0.05297 0.0
C323 C 0.65461 0.54139 0.13979 0.0
C324 C 0.68237 0.54541 0.22731 0.0
C325 C 1.04367 0.65213 0.25151 0.0
C326 C 1.01242 0.65499 0.32124 0.0
C327 C 0.04991 0.62282 0.16454 0.0
C328 C 1.0252 0.59511 0.14431 0.0
H329 H 0.06325 0.67284 0.26312 0.0
H330 H 0.07426 0.62213 0.11214 0.0
S331 S 0.94002 0.5899 0.30975 0.0
N332 N 0.95714 0.62781 0.36917 0.0
N333 N 0.96877 0.57236 0.20602 0.0
C334 C 0.99431 0.59741 0.21644 0.0
C335 C 0.98792 0.62748 0.30482 0.0
C336 C 0.98124 0.22302 0.47214 0.0
C337 C 1.01591 0.23856 0.49837 0.0
C338 C 0.96865 0.19894 0.52986 0.0
C339 C 0.99024 0.1901 0.61625 0.0
H340 H 0.96646 0.22569 0.39631 0.0
H341 H 0.94417 0.18447 0.49778 0.0
S342 S 0.0769 0.23193 0.73961 0.0
N343 N 0.06723 0.24939 0.63174 0.0
N344 N 1.04295 0.20512 0.74385 0.0
C345 C 1.02167 0.20981 0.65542 0.0
C346 C 1.03457 0.23406 0.59589 0.0
C347 C 0.3276 0.93251 0.45705 0.0
C348 C 0.32074 0.92405 0.33965 0.0
C349 C 0.35578 0.91555 0.50345 0.0
C350 C 0.37779 0.88991 0.43316 0.0
H351 H 0.31558 0.95563 0.51001 0.0
H352 H 0.3641 0.92667 0.59003 0.0
S353 S 0.3584 0.84862 0.13236 0.0
N354 N 0.32876 0.88128 0.16296 0.0
N355 N 0.38152 0.8489 0.25096 0.0
C356 C 0.3649 0.8761 0.3224 0.0
C357 C 0.33637 0.8935 0.27497 0.0
C358 C 0.53205 0.34897 0.78536 0.0
C359 C 0.56436 0.33197 0.73643 0.0
C360 C 0.5298 0.38481 0.81676 0.0
C361 C 0.56023 0.4055 0.80539 0.0
H362 H 0.5068 0.33474 0.78617 0.0
H363 H 0.503 0.39622 0.84406 0.0
S364 S 0.65356 0.37299 0.70096 0.0
N365 N 0.62889 0.33805 0.68992 0.0
N366 N 0.62548 0.40551 0.75563 0.0
C367 C 0.594 0.38865 0.76805 0.0
C368 C 0.596 0.35195 0.73348 0.0
C369 C 0.26009 0.59545 0.57417 0.0
C370 C 0.26619 0.60548 0.47223 0.0
C371 C 0.2324 0.61143 0.64907 0.0
C372 C 0.21 0.63782 0.62367 0.0
H373 H 0.27264 0.57206 0.58825 0.0
H374 H 0.22506 0.59933 0.71681 0.0
S375 S 0.22727 0.68299 0.39533 0.0
N376 N 0.25676 0.65016 0.36942 0.0
N377 N 0.20509 0.68096 0.51246 0.0
C378 C 0.22182 0.65285 0.53624 0.0
C379 C 0.24981 0.63633 0.45926 0.0
C380 C 0.09797 0.79911 0.28582 0.0
C381 C 0.06024 0.79193 0.26365 0.0
C382 C 0.11658 0.82116 0.23155 0.0
C383 C 0.09804 0.83647 0.15297 0.0
H384 H 0.11186 0.79092 0.3549 0.0
H385 H 0.1446 0.82859 0.25835 0.0
S386 S 1.00093 0.82101 0.05265 0.0
N387 N 1.00647 0.79789 0.1481 0.0
N388 N 1.04131 0.83912 0.04472 0.0
C389 C 0.06164 0.82614 0.12042 0.0
C390 C 1.04275 0.80381 0.17612 0.0
C391 C 0.78151 0.09644 0.36278 0.0
C392 C 0.77595 0.09834 0.47906 0.0
C393 C 0.75533 0.11083 0.30072 0.0
C394 C 0.72174 0.1249 0.35175 0.0
H395 H 0.80272 0.07975 0.31557 0.0
H396 H 0.7583 0.10524 0.20926 0.0
S397 S 0.70748 0.15454 0.66316 0.0
N398 N 0.74617 0.13137 0.65018 0.0
N399 N 0.69378 0.15402 0.53237 0.0
C400 C 0.72146 0.13505 0.47135 0.0
C401 C 0.74958 0.12251 0.53528 0.0
C402 C 0.54521 0.6719 0.97589 0.0
C403 C 0.52491 0.68837 0.07234 0.0
C404 C 0.54186 0.63655 0.9298 0.0
C405 C 0.51833 0.61625 0.97918 0.0
H406 H 0.56693 0.68543 0.94398 0.0
H407 H 0.56036 0.62469 0.86127 0.0
S408 S 0.4523 0.649 0.21409 0.0
N409 N 0.4749 0.68325 0.20038 0.0
N410 N 0.46923 0.61676 0.11594 0.0
C411 C 0.49452 0.63325 0.06625 0.0
C412 C 0.49739 0.66937 0.11142 0.0
C413 C 0.82052 0.45636 0.18989 0.0
C414 C 0.8137 0.44335 0.28573 0.0
C415 C 0.84741 0.441 0.11095 0.0
C416 C 0.86798 0.41223 0.12611 0.0
H417 H 0.8092 0.48111 0.18451 0.0
H418 H 0.8556 0.45467 0.04801 0.0
S419 S 0.84946 0.3615 0.33825 0.0
N420 N 0.82136 0.3952 0.37375 0.0
N421 N 0.87149 0.36566 0.22316 0.0
C422 C 0.85583 0.39533 0.20826 0.0
C423 C 0.82869 0.41114 0.28913 0.0
C424 C 0.06587 0.17279 0.04663 0.0
C425 C 0.08235 0.1822 0.15448 0.0
C426 C 0.06442 0.13826 0.98816 0.0
C427 C 0.07918 0.11192 0.03603 0.0
H428 H 0.05131 0.1918 0.01144 0.0
H429 H 0.04944 0.13217 0.9083 0.0
S430 S 0.13152 0.12441 0.30735 0.0
N431 N 0.11851 0.16343 0.29949 0.0
N432 N 0.11566 0.09858 0.19061 0.0
C433 C 0.09881 0.12149 0.13901 0.0
C434 C 0.10051 0.15663 0.19789 0.0
C435 C 0.39105 0.02781 0.15793 0.0
C436 C 0.36577 1.00178 0.11162 0.0
C437 C 0.42566 0.03035 0.1054 0.0
C438 C 0.43681 1.00687 1.00419 0.0
H439 H 0.38498 0.04521 0.23869 0.0
H440 H 0.4444 0.05019 0.14717 0.0
S441 S 0.37917 0.93534 0.84485 0.0
N442 N 0.35348 0.95328 0.95557 0.0
N443 N 0.41751 0.95784 0.85707 0.0
C444 C 0.41081 0.98169 0.95481 0.0
C445 C 0.37575 0.97921 0.00828 0.0
C446 C 0.48474 0.30974 0.35546 0.0
C447 C 0.52211 0.29926 0.35845 0.0
C448 C 0.4742 0.33647 0.30399 0.0
C449 C 0.50068 0.35395 0.25452 0.0
H450 H 0.46403 0.29944 0.40218 0.0
H451 H 0.44534 0.34462 0.30817 0.0
S452 S 0.60181 0.33306 0.22984 0.0
N453 N 0.5848 0.3051 0.29571 0.0
N454 N 0.56599 0.35649 0.20538 0.0
C455 C 0.53777 0.34166 0.24934 0.0
C456 C 0.54815 0.31392 0.29906 0.0
C457 C 0.21221 0.5503 0.0504 0.0
C458 C 0.22432 0.52815 0.11896 0.0
C459 C 0.17808 0.54563 0.99101 0.0
C460 C 0.15402 0.51903 0.99963 0.0
H461 H 0.22866 0.57231 0.04623 0.0
H462 H 0.16971 0.56407 0.94268 0.0
S463 S 0.17355 0.45269 0.16234 0.0
N464 N 0.2102 0.47752 0.18656 0.0
N465 N 0.14627 0.46882 0.07703 0.0
C466 C 0.16653 0.49591 0.0643 0.0
C467 C 0.20153 0.5004 0.12319 0.0
C468 C 1.02446 0.85157 0.71982 0.0
C469 C 1.00112 0.84407 0.62424 0.0
C470 C 1.02945 0.8855 0.78046 0.0
C471 C 1.01125 0.9131 0.74774 0.0
H472 H 1.04139 0.83149 0.74189 0.0
H473 H 0.04921 0.89024 0.84993 0.0
S474 S 0.94288 0.90595 0.51304 0.0
N475 N 0.95647 0.86609 0.50711 0.0
N476 N 0.96542 0.92987 0.62141 0.0
C477 C 0.98517 0.9055 0.65876 0.0
C478 C 0.98024 0.87095 0.59689 0.0
C479 C 0.72119 0.02672 0.77899 0.0
C480 C 0.73092 1.00991 0.66679 0.0
C481 C 0.68595 0.0228 0.82495 0.0
C482 C 0.65824 1.00261 0.75983 0.0
H483 H 0.74041 0.04446 0.82993 0.0
H484 H 0.67973 0.0373 0.91011 0.0
S485 S 0.67013 0.95184 0.46302 0.0
N486 N 0.71033 0.97104 0.49395 0.0
N487 N 0.64439 0.9639 0.57812 0.0
C488 C 0.6682 0.98466 0.64885 0.0
C489 C 0.7043 0.98826 0.60303 0.0
C490 C 0.58059 0.71052 0.50134 0.0
C491 C 0.60134 0.71421 0.40729 0.0
C492 C 0.58825 0.68371 0.55491 0.0
C493 C 0.61672 0.65944 0.5156 0.0
H494 H 0.55606 0.72637 0.52645 0.0
H495 H 0.57008 0.68055 0.62247 0.0
S496 S 0.68173 0.66051 0.28068 0.0
N497 N 0.65386 0.69385 0.28484 0.0
N498 N 0.66811 0.64313 0.38419 0.0
C499 C 0.63985 0.66483 0.42858 0.0
C500 C 0.63219 0.69235 0.3748 0.0
C501 C 0.87414 0.48752 0.69963 0.0
C502 C 0.85983 0.51285 0.64675 0.0
C503 C 0.90961 0.49009 0.75052 0.0
C504 C 0.93288 0.51799 0.75036 0.0
H505 H 0.85839 0.4646 0.69691 0.0
H506 H 0.91929 0.46925 0.78667 0.0
S507 S 0.90774 0.59234 0.62823 0.0
N508 N 0.87109 0.56755 0.60181 0.0
N509 N 0.93745 0.57273 0.69727 0.0
C510 C 0.91813 0.54437 0.70229 0.0
C511 C 0.88181 0.54172 0.65079 0.0
loop_
_geom_bond_atom_site_label_1
_geom_bond_atom_site_label_2
_geom_bond_distance
_geom_bond_site_symmetry_2
_ccdc_geom_bond_type
H0 C3 0.929 . S
H1 C6 0.929 . S
H2 C8 0.930 . S
C3 H0 0.929 . S
C3 C4 1.398 . S
C3 C5 1.396 . S
C4 C3 1.398 . S
C4 C8 1.407 . S
C5 C3 1.396 . S
C5 C6 1.394 . S
C6 H1 0.929 . S
C6 C5 1.394 . S
C6 C7 1.382 . S
C7 C6 1.382 . S
C7 C8 1.392 . S
C7 N9 1.420 . S
C8 H2 0.930 . S
C8 C4 1.407 . S
C8 C7 1.392 . S
N9 C7 1.420 . S
N9 C10 1.244 . S
C10 N9 1.244 . S
H11 C14 0.929 . S
H12 C17 0.929 . S
H13 C19 0.930 . S
C14 H11 0.929 . S
C14 C15 1.395 1_655 S
C14 C16 1.394 1_655 S
C15 C14 1.395 1_455 S
C15 C19 1.414 . S
C16 C14 1.394 1_455 S
C16 C17 1.397 . S
C17 H12 0.929 . S
C17 C16 1.397 . S
C17 C18 1.382 . S
C18 C17 1.382 . S
C18 C19 1.392 . S
C18 N20 1.420 . S
C19 H13 0.930 . S
C19 C15 1.414 . S
C19 C18 1.392 . S
N20 C18 1.420 . S
N20 C21 1.232 1_455 S
C21 N20 1.232 1_655 S
H22 C25 0.929 . S
H23 C28 0.929 . S
H24 C30 0.930 . S
C25 H22 0.929 . S
C25 C26 1.403 1_565 S
C25 C27 1.390 1_565 S
C26 C25 1.403 1_545 S
C26 C30 1.415 . S
C27 C25 1.390 1_545 S
C27 C28 1.398 . S
C28 H23 0.929 . S
C28 C27 1.398 . S
C28 C29 1.382 . S
C29 C28 1.382 . S
C29 C30 1.392 . S
C29 N31 1.420 . S
C30 H24 0.930 . S
C30 C26 1.415 . S
C30 C29 1.392 . S
N31 C29 1.420 . S
N31 C32 1.238 1_545 S
C32 N31 1.238 1_565 S
H33 C36 0.929 . S
H34 C39 0.929 . S
H35 C41 0.930 . S
C36 H33 0.929 . S
C36 C37 1.398 . S
C36 C38 1.396 1_554 S
C37 C36 1.398 . S
C37 C41 1.407 . S
C38 C36 1.396 1_556 S
C38 C39 1.394 . S
C39 H34 0.929 . S
C39 C38 1.394 . S
C39 C40 1.382 1_556 S
C40 C39 1.382 1_554 S
C40 C41 1.392 . S
C40 N42 1.420 . S
C41 H35 0.930 . S
C41 C37 1.407 . S
C41 C40 1.392 . S
N42 C40 1.420 . S
N42 C43 1.244 1_554 S
C43 N42 1.244 1_556 S
H44 C47 0.929 . S
H45 C50 0.929 . S
H46 C52 0.930 . S
C47 H44 0.929 . S
C47 C48 1.398 . S
C47 C49 1.396 . S
C48 C47 1.398 . S
C48 C52 1.407 . S
C49 C47 1.396 . S
C49 C50 1.394 . S
C50 H45 0.929 . S
C50 C49 1.394 . S
C50 C51 1.382 . S
C51 C50 1.382 . S
C51 C52 1.392 . S
C51 N53 1.420 . S
C52 H46 0.930 . S
C52 C48 1.407 . S
C52 C51 1.392 . S
N53 C51 1.420 . S
N53 C54 1.244 . S
C54 N53 1.244 . S
H55 C58 0.929 . S
H56 C61 0.929 . S
H57 C63 0.930 . S
C58 H55 0.929 . S
C58 C59 1.398 1_655 S
C58 C60 1.394 1_655 S
C59 C58 1.398 1_455 S
C59 C63 1.407 . S
C60 C58 1.394 1_455 S
C60 C61 1.399 . S
C61 H56 0.929 . S
C61 C60 1.399 . S
C61 C62 1.382 . S
C62 C61 1.382 . S
C62 C63 1.392 . S
C62 N64 1.420 . S
C63 H57 0.930 . S
C63 C59 1.407 . S
C63 C62 1.392 . S
N64 C62 1.420 . S
N64 C65 1.235 1_455 S
C65 N64 1.235 1_655 S
H66 C69 0.929 . S
H67 C72 0.929 . S
H68 C74 0.930 . S
C69 H66 0.929 . S
C69 C70 1.398 1_565 S
C69 C71 1.400 1_565 S
C70 C69 1.398 1_545 S
C70 C74 1.407 . S
C71 C69 1.400 1_545 S
C71 C72 1.398 . S
C72 H67 0.929 . S
C72 C71 1.398 . S
C72 C73 1.382 . S
C73 C72 1.382 . S
C73 C74 1.392 . S
C73 N75 1.420 . S
C74 H68 0.930 . S
C74 C70 1.407 . S
C74 C73 1.392 . S
N75 C73 1.420 . S
N75 C76 1.231 1_545 S
C76 N75 1.231 1_565 S
H77 C80 0.929 . S
H78 C83 0.929 . S
H79 C85 0.930 . S
C80 H77 0.929 . S
C80 C81 1.398 . S
C80 C82 1.396 . S
C81 C80 1.398 . S
C81 C85 1.407 . S
C82 C80 1.396 . S
C82 C83 1.394 . S
C83 H78 0.929 . S
C83 C82 1.394 . S
C83 C84 1.382 . S
C84 C83 1.382 . S
C84 C85 1.392 . S
C84 N86 1.420 . S
C85 H79 0.930 . S
C85 C81 1.407 . S
C85 C84 1.392 . S
N86 C84 1.420 . S
N86 C87 1.244 . S
C87 N86 1.244 . S
Tb88 C97 2.764 . S
Tb88 O98 2.325 . S
Tb88 O101 2.303 1_655 S
Tb88 O105 2.322 1_545 S
Tb88 O106 2.349 . S
Tb88 O109 2.415 . S
Tb88 O110 2.399 . S
Tb89 O99 2.322 1_566 S
Tb89 O100 2.349 . S
Tb89 O102 2.415 1_556 S
Tb89 O103 2.399 1_556 S
Tb89 O104 2.325 . S
Tb89 O107 2.303 1_455 S
Tb89 C118 2.764 1_556 S
C90 O106 1.261 . S
C90 O107 1.257 1_545 S
C91 C94 1.358 . S
C91 C95 1.332 . S
C91 C97 1.504 . S
C92 C93 1.373 . S
C92 C96 1.308 . S
C93 C92 1.373 . S
C93 C94 1.429 . S
C93 H120 0.932 . S
C94 C91 1.358 . S
C94 C93 1.429 . S
C94 H121 0.930 . S
C95 C91 1.332 . S
C95 C96 1.394 . S
C95 H122 0.932 1_655 S
C96 C92 1.308 . S
C96 C95 1.394 . S
C96 H123 0.929 . S
C97 Tb88 2.764 . S
C97 C91 1.504 . S
C97 O109 1.239 . S
C97 O110 1.263 . S
O98 Tb88 2.325 . S
O98 C108 1.236 1_655 S
O99 Tb89 2.322 1_544 S
O99 C108 1.257 1_554 S
O100 Tb89 2.349 . S
O100 C111 1.261 . S
O101 Tb88 2.303 1_455 S
O101 C111 1.257 1_545 S
O102 Tb89 2.415 1_554 S
O102 C118 1.239 . S
O103 Tb89 2.399 1_554 S
O103 C118 1.263 . S
O104 Tb89 2.325 . S
O104 C119 1.236 1_455 S
O105 Tb88 2.322 1_565 S
O105 C119 1.257 . S
O106 Tb88 2.349 . S
O106 C90 1.261 . S
O107 Tb89 2.303 1_655 S
O107 C90 1.257 1_565 S
C108 O98 1.236 1_455 S
C108 O99 1.257 1_556 S
O109 Tb88 2.415 . S
O109 C97 1.239 . S
O110 Tb88 2.399 . S
O110 C97 1.263 . S
C111 O100 1.261 . S
C111 O101 1.257 1_565 S
C112 C115 1.358 . S
C112 C116 1.332 . S
C112 C118 1.504 . S
C113 C114 1.373 . S
C113 C117 1.308 . S
C114 C113 1.373 . S
C114 C115 1.429 . S
C114 H124 0.932 . S
C115 C112 1.358 . S
C115 C114 1.429 . S
C115 H125 0.930 . S
C116 C112 1.332 . S
C116 C117 1.394 . S
C116 H126 0.932 1_455 S
C117 C113 1.308 . S
C117 C116 1.394 . S
C117 H127 0.929 . S
C118 Tb89 2.764 1_554 S
C118 O102 1.239 . S
C118 O103 1.263 . S
C118 C112 1.504 . S
C119 O104 1.236 1_655 S
C119 O105 1.257 . S
H120 C93 0.932 . S
H121 C94 0.930 . S
H122 C95 0.932 1_455 S
H123 C96 0.929 . S
H124 C114 0.932 . S
H125 C115 0.930 . S
H126 C116 0.932 1_655 S
H127 C117 0.929 . S
Tb128 C137 2.764 . S
Tb128 O138 2.325 . S
Tb128 O141 2.303 1_565 S
Tb128 O145 2.322 . S
Tb128 O146 2.349 . S
Tb128 O149 2.415 1_565 S
Tb128 O150 2.399 . S
Tb129 O139 2.322 . S
Tb129 O140 2.349 1_554 S
Tb129 O142 2.415 1_545 S
Tb129 O143 2.399 . S
Tb129 O144 2.325 1_554 S
Tb129 O147 2.303 1_544 S
Tb129 C158 2.764 . S
C130 O146 1.261 . S
C130 O147 1.257 . S
C131 C134 1.358 . S
C131 C135 1.332 1_565 S
C131 C137 1.504 . S
C132 C133 1.373 . S
C132 C136 1.308 1_565 S
C133 C132 1.373 . S
C133 C134 1.429 . S
C133 H160 0.932 . S
C134 C131 1.358 . S
C134 C133 1.429 . S
C134 H161 0.930 . S
C135 C131 1.332 1_545 S
C135 C136 1.394 . S
C135 H162 0.932 . S
C136 C132 1.308 1_545 S
C136 C135 1.394 . S
C136 H163 0.929 . S
C137 Tb128 2.764 . S
C137 C131 1.504 . S
C137 O149 1.239 1_565 S
C137 O150 1.263 . S
O138 Tb128 2.325 . S
O138 C148 1.236 1_565 S
O139 Tb129 2.322 . S
O139 C148 1.257 1_554 S
O140 Tb129 2.349 1_556 S
O140 C151 1.261 . S
O141 Tb128 2.303 1_545 S
O141 C151 1.257 . S
O142 Tb129 2.415 1_565 S
O142 C158 1.239 1_565 S
O143 Tb129 2.399 . S
O143 C158 1.263 . S
O144 Tb129 2.325 1_556 S
O144 C159 1.236 1_545 S
O145 Tb128 2.322 . S
O145 C159 1.257 . S
O146 Tb128 2.349 . S
O146 C130 1.261 . S
O147 Tb129 2.303 1_566 S
O147 C130 1.257 . S
C148 O138 1.236 1_545 S
C148 O139 1.257 1_556 S
O149 Tb128 2.415 1_545 S
O149 C137 1.239 1_545 S
O150 Tb128 2.399 . S
O150 C137 1.263 . S
C151 O140 1.261 . S
C151 O141 1.257 . S
C152 C155 1.358 . S
C152 C156 1.332 1_545 S
C152 C158 1.504 . S
C153 C154 1.373 . S
C153 C157 1.308 1_545 S
C154 C153 1.373 . S
C154 C155 1.429 . S
C154 H164 0.932 . S
C155 C152 1.358 . S
C155 C154 1.429 . S
C155 H165 0.930 . S
C156 C152 1.332 1_565 S
C156 C157 1.394 . S
C156 H166 0.932 . S
C157 C153 1.308 1_565 S
C157 C156 1.394 . S
C157 H167 0.929 . S
C158 Tb129 2.764 . S
C158 O142 1.239 1_545 S
C158 O143 1.263 . S
C158 C152 1.504 . S
C159 O144 1.236 1_565 S
C159 O145 1.257 . S
H160 C133 0.932 . S
H161 C134 0.930 . S
H162 C135 0.932 . S
H163 C136 0.929 . S
H164 C154 0.932 . S
H165 C155 0.930 . S
H166 C156 0.932 . S
H167 C157 0.929 . S
Tb168 C177 2.764 . S
Tb168 O178 2.325 1_554 S
Tb168 O181 2.303 1_554 S
Tb168 O185 2.322 1_554 S
Tb168 O186 2.349 1_554 S
Tb168 O189 2.415 . S
Tb168 O190 2.399 . S
Tb169 O179 2.322 . S
Tb169 O180 2.349 . S
Tb169 O182 2.415 . S
Tb169 O183 2.399 . S
Tb169 O184 2.325 . S
Tb169 O187 2.303 . S
Tb169 C198 2.764 . S
C170 O186 1.261 . S
C170 O187 1.257 . S
C171 C174 1.358 . S
C171 C175 1.332 . S
C171 C177 1.504 . S
C172 C173 1.373 . S
C172 C176 1.308 . S
C173 C172 1.373 . S
C173 C174 1.429 . S
C173 H200 0.932 . S
C174 C171 1.358 . S
C174 C173 1.429 . S
C174 H201 0.930 . S
C175 C171 1.332 . S
C175 C176 1.394 . S
C175 H202 0.932 . S
C176 C172 1.308 . S
C176 C175 1.394 . S
C176 H203 0.929 . S
C177 Tb168 2.764 . S
C177 C171 1.504 . S
C177 O189 1.239 . S
C177 O190 1.263 . S
O178 Tb168 2.325 1_556 S
O178 C188 1.236 . S
O179 Tb169 2.322 . S
O179 C188 1.257 . S
O180 Tb169 2.349 . S
O180 C191 1.261 . S
O181 Tb168 2.303 1_556 S
O181 C191 1.257 . S
O182 Tb169 2.415 . S
O182 C198 1.239 . S
O183 Tb169 2.399 . S
O183 C198 1.263 . S
O184 Tb169 2.325 . S
O184 C199 1.236 . S
O185 Tb168 2.322 1_556 S
O185 C199 1.257 . S
O186 Tb168 2.349 1_556 S
O186 C170 1.261 . S
O187 Tb169 2.303 . S
O187 C170 1.257 . S
C188 O178 1.236 . S
C188 O179 1.257 . S
O189 Tb168 2.415 . S
O189 C177 1.239 . S
O190 Tb168 2.399 . S
O190 C177 1.263 . S
C191 O180 1.261 . S
C191 O181 1.257 . S
C192 C195 1.358 . S
C192 C196 1.332 . S
C192 C198 1.504 . S
C193 C194 1.373 . S
C193 C197 1.308 . S
C194 C193 1.373 . S
C194 C195 1.429 . S
C194 H204 0.932 . S
C195 C192 1.358 . S
C195 C194 1.429 . S
C195 H205 0.930 . S
C196 C192 1.332 . S
C196 C197 1.394 . S
C196 H206 0.932 . S
C197 C193 1.308 . S
C197 C196 1.394 . S
C197 H207 0.929 . S
C198 Tb169 2.764 . S
C198 O182 1.239 . S
C198 O183 1.263 . S
C198 C192 1.504 . S
C199 O184 1.236 . S
C199 O185 1.257 . S
H200 C173 0.932 . S
H201 C174 0.930 . S
H202 C175 0.932 . S
H203 C176 0.929 . S
H204 C194 0.932 . S
H205 C195 0.930 . S
H206 C196 0.932 . S
H207 C197 0.929 . S
Tb208 C217 2.764 . S
Tb208 O218 2.325 . S
Tb208 O221 2.303 . S
Tb208 O225 2.322 1_455 S
Tb208 O226 2.349 . S
Tb208 O229 2.415 . S
Tb208 O230 2.399 . S
Tb209 O219 2.322 1_655 S
Tb209 O220 2.349 . S
Tb209 O222 2.415 1_556 S
Tb209 O223 2.399 1_556 S
Tb209 O224 2.325 . S
Tb209 O227 2.303 . S
Tb209 C238 2.764 1_556 S
C210 O226 1.261 . S
C210 O227 1.257 1_455 S
C211 C214 1.358 . S
C211 C215 1.332 . S
C211 C217 1.504 . S
C212 C213 1.373 . S
C212 C216 1.308 . S
C213 C212 1.373 . S
C213 C214 1.429 . S
C213 H240 0.932 . S
C214 C211 1.358 . S
C214 C213 1.429 . S
C214 H241 0.930 . S
C215 C211 1.332 . S
C215 C216 1.394 . S
C215 H242 0.932 . S
C216 C212 1.308 . S
C216 C215 1.394 . S
C216 H243 0.929 . S
C217 Tb208 2.764 . S
C217 C211 1.504 . S
C217 O229 1.239 . S
C217 O230 1.263 . S
O218 Tb208 2.325 . S
O218 C228 1.236 . S
O219 Tb209 2.322 1_455 S
O219 C228 1.257 . S
O220 Tb209 2.349 . S
O220 C231 1.261 . S
O221 Tb208 2.303 . S
O221 C231 1.257 1_455 S
O222 Tb209 2.415 1_554 S
O222 C238 1.239 . S
O223 Tb209 2.399 1_554 S
O223 C238 1.263 . S
O224 Tb209 2.325 . S
O224 C239 1.236 . S
O225 Tb208 2.322 1_655 S
O225 C239 1.257 . S
O226 Tb208 2.349 . S
O226 C210 1.261 . S
O227 Tb209 2.303 . S
O227 C210 1.257 1_655 S
C228 O218 1.236 . S
C228 O219 1.257 . S
O229 Tb208 2.415 . S
O229 C217 1.239 . S
O230 Tb208 2.399 . S
O230 C217 1.263 . S
C231 O220 1.261 . S
C231 O221 1.257 1_655 S
C232 C235 1.358 . S
C232 C236 1.332 . S
C232 C238 1.504 . S
C233 C234 1.373 . S
C233 C237 1.308 . S
C234 C233 1.373 . S
C234 C235 1.429 . S
C234 H244 0.932 . S
C235 C232 1.358 . S
C235 C234 1.429 . S
C235 H245 0.930 . S
C236 C232 1.332 . S
C236 C237 1.394 . S
C236 H246 0.932 . S
C237 C233 1.308 . S
C237 C236 1.394 . S
C237 H247 0.929 . S
C238 Tb209 2.764 1_554 S
C238 O222 1.239 . S
C238 O223 1.263 . S
C238 C232 1.504 . S
C239 O224 1.236 . S
C239 O225 1.257 . S
H240 C213 0.932 . S
H241 C214 0.930 . S
H242 C215 0.932 . S
H243 C216 0.929 . S
H244 C234 0.932 . S
H245 C235 0.930 . S
H246 C236 0.932 . S
H247 C237 0.929 . S
C248 C249 1.364 . S
C248 C250 1.419 . S
C248 H252 0.930 . S
C249 C248 1.364 . S
C249 C258 1.427 . S
C250 C248 1.419 . S
C250 C251 1.363 . S
C250 H253 0.929 . S
C251 C250 1.363 . S
C251 C257 1.424 . S
H252 C248 0.930 . S
H253 C250 0.929 . S
S254 N255 1.611 . S
S254 N256 1.610 . S
N255 S254 1.611 . S
N255 C258 1.348 . S
N256 S254 1.610 . S
N256 C257 1.351 . S
C257 C251 1.424 . S
C257 N256 1.351 . S
C257 C258 1.439 . S
C258 C249 1.427 . S
C258 N255 1.348 . S
C258 C257 1.439 . S
C259 C260 1.369 . S
C259 C261 1.419 . S
C259 H263 0.930 . S
C260 C259 1.369 . S
C260 C269 1.429 . S
C261 C259 1.419 . S
C261 C262 1.363 . S
C261 H264 0.929 . S
C262 C261 1.363 . S
C262 C268 1.428 . S
H263 C259 0.930 . S
H264 C261 0.929 . S
S265 N266 1.613 . S
S265 N267 1.610 . S
N266 S265 1.613 . S
N266 C269 1.350 . S
N267 S265 1.610 . S
N267 C268 1.351 . S
C268 C262 1.428 . S
C268 N267 1.351 . S
C268 C269 1.434 . S
C269 C260 1.429 . S
C269 N266 1.350 . S
C269 C268 1.434 . S
C270 C271 1.369 . S
C270 C272 1.419 . S
C270 H274 0.930 . S
C271 C270 1.369 . S
C271 C280 1.429 . S
C272 C270 1.419 . S
C272 C273 1.363 . S
C272 H275 0.929 . S
C273 C272 1.363 . S
C273 C279 1.428 . S
H274 C270 0.930 . S
H275 C272 0.929 . S
S276 N277 1.613 . S
S276 N278 1.610 . S
N277 S276 1.613 . S
N277 C280 1.350 . S
N278 S276 1.610 . S
N278 C279 1.351 . S
C279 C273 1.428 . S
C279 N278 1.351 . S
C279 C280 1.434 . S
C280 C271 1.429 . S
C280 N277 1.350 . S
C280 C279 1.434 . S
C281 C282 1.366 1_655 S
C281 C283 1.419 . S
C281 H285 0.930 . S
C282 C281 1.366 1_455 S
C282 C291 1.431 . S
C283 C281 1.419 . S
C283 C284 1.351 1_655 S
C283 H286 0.929 . S
C284 C283 1.351 1_455 S
C284 C290 1.441 . S
H285 C281 0.930 . S
H286 C283 0.929 . S
S287 N288 1.613 . S
S287 N289 1.610 . S
N288 S287 1.613 . S
N288 C291 1.350 . S
N289 S287 1.610 . S
N289 C290 1.351 . S
C290 C284 1.441 . S
C290 N289 1.351 . S
C290 C291 1.434 . S
C291 C282 1.431 . S
C291 N288 1.350 . S
C291 C290 1.434 . S
C292 C293 1.357 1_545 S
C292 C294 1.419 . S
C292 H296 0.930 . S
C293 C292 1.357 1_565 S
C293 C302 1.436 . S
C294 C292 1.419 . S
C294 C295 1.363 1_545 S
C294 H297 0.929 . S
C295 C294 1.363 1_565 S
C295 C301 1.428 . S
H296 C292 0.930 . S
H297 C294 0.929 . S
S298 N299 1.613 . S
S298 N300 1.610 . S
N299 S298 1.613 . S
N299 C302 1.350 . S
N300 S298 1.610 . S
N300 C301 1.351 . S
C301 C295 1.428 . S
C301 N300 1.351 . S
C301 C302 1.434 . S
C302 C293 1.436 . S
C302 N299 1.350 . S
C302 C301 1.434 . S
C303 C304 1.369 . S
C303 C305 1.419 . S
C303 H307 0.930 . S
C304 C303 1.369 . S
C304 C313 1.429 1_556 S
C305 C303 1.419 . S
C305 C306 1.363 . S
C305 H308 0.929 . S
C306 C305 1.363 . S
C306 C312 1.428 1_556 S
H307 C303 0.930 . S
H308 C305 0.929 . S
S309 N310 1.613 . S
S309 N311 1.610 . S
N310 S309 1.613 . S
N310 C313 1.350 . S
N311 S309 1.610 . S
N311 C312 1.351 . S
C312 C306 1.428 1_554 S
C312 N311 1.351 . S
C312 C313 1.434 . S
C313 C304 1.429 1_554 S
C313 N310 1.350 . S
C313 C312 1.434 . S
C314 C315 1.369 . S
C314 C316 1.419 . S
C314 H318 0.930 . S
C315 C314 1.369 . S
C315 C324 1.429 . S
C316 C314 1.419 . S
C316 C317 1.363 . S
C316 H319 0.929 . S
C317 C316 1.363 . S
C317 C323 1.428 . S
H318 C314 0.930 . S
H319 C316 0.929 . S
S320 N321 1.613 . S
S320 N322 1.610 . S
N321 S320 1.613 . S
N321 C324 1.350 . S
N322 S320 1.610 . S
N322 C323 1.351 . S
C323 C317 1.428 . S
C323 N322 1.351 . S
C323 C324 1.434 . S
C324 C315 1.429 . S
C324 N321 1.350 . S
C324 C323 1.434 . S
C325 C326 1.351 1_455 S
C325 C327 1.419 . S
C325 H329 0.930 . S
C326 C325 1.351 1_655 S
C326 C335 1.447 . S
C327 C325 1.419 . S
C327 C328 1.363 1_455 S
C327 H330 0.929 . S
C328 C327 1.363 1_655 S
C328 C334 1.428 . S
H329 C325 0.930 . S
H330 C327 0.929 . S
S331 N332 1.613 . S
S331 N333 1.610 . S
N332 S331 1.613 . S
N332 C335 1.350 . S
N333 S331 1.610 . S
N333 C334 1.351 . S
C334 C328 1.428 . S
C334 N333 1.351 . S
C334 C335 1.434 . S
C335 C326 1.447 . S
C335 N332 1.350 . S
C335 C334 1.434 . S
C336 C337 1.369 . S
C336 C338 1.419 . S
C336 H340 0.930 . S
C337 C336 1.369 . S
C337 C346 1.429 . S
C338 C336 1.419 . S
C338 C339 1.363 . S
C338 H341 0.929 . S
C339 C338 1.363 . S
C339 C345 1.428 . S
H340 C336 0.930 . S
H341 C338 0.929 . S
S342 N343 1.613 1_655 S
S342 N344 1.610 . S
N343 S342 1.613 1_455 S
N343 C346 1.350 1_455 S
N344 S342 1.610 . S
N344 C345 1.351 . S
C345 C339 1.428 . S
C345 N344 1.351 . S
C345 C346 1.434 . S
C346 C337 1.429 . S
C346 N343 1.350 1_655 S
C346 C345 1.434 . S
C347 C348 1.369 1_565 S
C347 C349 1.419 . S
C347 H351 0.921 1_565 S
C348 C347 1.369 1_545 S
C348 C357 1.429 1_545 S
C349 C347 1.419 . S
C349 C350 1.363 . S
C349 H352 0.929 . S
C350 C349 1.363 . S
C350 C356 1.428 . S
H351 C347 0.921 1_545 S
H352 C349 0.929 . S
S353 N354 1.613 1_565 S
S353 N355 1.610 . S
N354 S353 1.613 1_545 S
N354 C357 1.350 1_545 S
N355 S353 1.610 . S
N355 C356 1.351 . S
C356 C350 1.428 . S
C356 N355 1.351 . S
C356 C357 1.434 . S
C357 C348 1.429 1_565 S
C357 N354 1.350 1_565 S
C357 C356 1.434 . S
C358 C359 1.369 . S
C358 C360 1.419 . S
C358 H362 0.930 . S
C359 C358 1.369 . S
C359 C368 1.429 . S
C360 C358 1.419 . S
C360 C361 1.363 . S
C360 H363 0.929 . S
C361 C360 1.363 . S
C361 C367 1.428 . S
H362 C358 0.930 . S
H363 C360 0.929 . S
S364 N365 1.613 . S
S364 N366 1.610 . S
N365 S364 1.613 . S
N365 C368 1.350 1_554 S
N366 S364 1.610 . S
N366 C367 1.351 1_554 S
C367 C361 1.428 . S
C367 N366 1.351 1_556 S
C367 C368 1.434 . S
C368 C359 1.429 . S
C368 N365 1.350 1_556 S
C368 C367 1.434 . S
C369 C370 1.369 . S
C369 C371 1.419 . S
C369 H373 0.930 . S
C370 C369 1.369 . S
C370 C379 1.429 . S
C371 C369 1.419 . S
C371 C372 1.363 . S
C371 H374 0.929 . S
C372 C371 1.363 . S
C372 C378 1.428 . S
H373 C369 0.930 . S
H374 C371 0.929 . S
S375 N376 1.613 . S
S375 N377 1.610 . S
N376 S375 1.613 . S
N376 C379 1.350 . S
N377 S375 1.610 . S
N377 C378 1.351 . S
C378 C372 1.428 . S
C378 N377 1.351 . S
C378 C379 1.434 . S
C379 C370 1.429 . S
C379 N376 1.350 . S
C379 C378 1.434 . S
C380 C381 1.369 . S
C380 C382 1.419 . S
C380 H384 0.930 . S
C381 C380 1.369 . S
C381 C390 1.429 1_455 S
C382 C380 1.419 . S
C382 C383 1.363 . S
C382 H385 0.929 . S
C383 C382 1.363 . S
C383 C389 1.428 . S
H384 C380 0.930 . S
H385 C382 0.929 . S
S386 N387 1.613 . S
S386 N388 1.610 1_655 S
N387 S386 1.613 . S
N387 C390 1.350 . S
N388 S386 1.610 1_455 S
N388 C389 1.351 . S
C389 C383 1.428 . S
C389 N388 1.351 . S
C389 C390 1.434 1_455 S
C390 C381 1.429 1_655 S
C390 N387 1.350 . S
C390 C389 1.434 1_655 S
C391 C392 1.369 . S
C391 C393 1.419 1_565 S
C391 H395 0.930 . S
C392 C391 1.369 . S
C392 C401 1.429 1_565 S
C393 C391 1.419 1_545 S
C393 C394 1.363 . S
C393 H396 0.929 1_545 S
C394 C393 1.363 . S
C394 C400 1.428 . S
H395 C391 0.930 . S
H396 C393 0.929 1_565 S
S397 N398 1.613 . S
S397 N399 1.610 . S
N398 S397 1.613 . S
N398 C401 1.350 . S
N399 S397 1.610 . S
N399 C400 1.351 . S
C400 C394 1.428 . S
C400 N399 1.351 . S
C400 C401 1.434 . S
C401 C392 1.429 1_545 S
C401 N398 1.350 . S
C401 C400 1.434 . S
C402 C403 1.369 . S
C402 C404 1.419 . S
C402 H406 0.930 . S
C403 C402 1.369 . S
C403 C412 1.429 . S
C404 C402 1.419 . S
C404 C405 1.363 . S
C404 H407 0.929 . S
C405 C404 1.363 . S
C405 C411 1.428 1_556 S
H406 C402 0.930 . S
H407 C404 0.929 . S
S408 N409 1.613 . S
S408 N410 1.610 . S
N409 S408 1.613 . S
N409 C412 1.350 1_554 S
N410 S408 1.610 . S
N410 C411 1.351 . S
C411 C405 1.428 1_554 S
C411 N410 1.351 . S
C411 C412 1.434 1_554 S
C412 C403 1.429 . S
C412 N409 1.350 1_556 S
C412 C411 1.434 1_556 S
C413 C414 1.369 . S
C413 C415 1.419 . S
C413 H417 0.930 . S
C414 C413 1.369 . S
C414 C423 1.429 . S
C415 C413 1.419 . S
C415 C416 1.363 . S
C415 H418 0.929 . S
C416 C415 1.363 . S
C416 C422 1.428 . S
H417 C413 0.930 . S
H418 C415 0.929 . S
S419 N420 1.613 . S
S419 N421 1.610 . S
N420 S419 1.613 . S
N420 C423 1.350 . S
N421 S419 1.610 . S
N421 C422 1.351 . S
C422 C416 1.428 . S
C422 N421 1.351 . S
C422 C423 1.434 . S
C423 C414 1.429 . S
C423 N420 1.350 . S
C423 C422 1.434 . S
C424 C425 1.369 1_655 S
C424 C426 1.419 1_655 S
C424 H428 0.930 . S
C425 C424 1.369 1_455 S
C425 C434 1.429 1_554 S
C426 C424 1.419 1_455 S
C426 C427 1.363 . S
C426 H429 0.929 1_455 S
C427 C426 1.363 . S
C427 C433 1.428 1_554 S
H428 C424 0.930 . S
H429 C426 0.929 1_655 S
S430 N431 1.613 . S
S430 N432 1.610 . S
N431 S430 1.613 . S
N431 C434 1.350 . S
N432 S430 1.610 . S
N432 C433 1.351 . S
C433 C427 1.428 1_556 S
C433 N432 1.351 . S
C433 C434 1.434 . S
C434 C425 1.429 1_556 S
C434 N431 1.350 . S
C434 C433 1.434 . S
C435 C436 1.369 . S
C435 C437 1.419 . S
C435 H439 0.930 . S
C436 C435 1.369 . S
C436 C445 1.429 1_544 S
C437 C435 1.419 . S
C437 C438 1.363 1_554 S
C437 H440 0.929 . S
C438 C437 1.363 1_556 S
C438 C444 1.428 1_545 S
H439 C435 0.930 . S
H440 C437 0.929 . S
S441 N442 1.613 . S
S441 N443 1.610 . S
N442 S441 1.613 . S
N442 C445 1.350 . S
N443 S441 1.610 . S
N443 C444 1.351 . S
C444 C438 1.428 1_565 S
C444 N443 1.351 . S
C444 C445 1.434 . S
C445 C436 1.429 1_566 S
C445 N442 1.350 . S
C445 C444 1.434 . S
C446 C447 1.369 . S
C446 C448 1.419 . S
C446 H450 0.930 . S
C447 C446 1.369 . S
C447 C456 1.429 . S
C448 C446 1.419 . S
C448 C449 1.363 . S
C448 H451 0.929 . S
C449 C448 1.363 . S
C449 C455 1.428 . S
H450 C446 0.930 . S
H451 C448 0.929 . S
S452 N453 1.613 . S
S452 N454 1.610 . S
N453 S452 1.613 . S
N453 C456 1.350 . S
N454 S452 1.610 . S
N454 C455 1.351 . S
C455 C449 1.428 . S
C455 N454 1.351 . S
C455 C456 1.434 . S
C456 C447 1.429 . S
C456 N453 1.350 . S
C456 C455 1.434 . S
C457 C458 1.369 . S
C457 C459 1.419 . S
C457 H461 0.930 . S
C458 C457 1.369 . S
C458 C467 1.429 1_556 S
C459 C457 1.419 . S
C459 C460 1.363 . S
C459 H462 0.929 . S
C460 C459 1.363 . S
C460 C466 1.428 1_556 S
H461 C457 0.930 . S
H462 C459 0.929 . S
S463 N464 1.613 . S
S463 N465 1.610 . S
N464 S463 1.613 . S
N464 C467 1.350 . S
N465 S463 1.610 . S
N465 C466 1.351 . S
C466 C460 1.428 1_554 S
C466 N465 1.351 . S
C466 C467 1.434 . S
C467 C458 1.429 1_554 S
C467 N464 1.350 . S
C467 C466 1.434 . S
C468 C469 1.369 1_455 S
C468 C470 1.419 . S
C468 H472 0.930 . S
C469 C468 1.369 1_655 S
C469 C478 1.429 . S
C470 C468 1.419 . S
C470 C471 1.363 1_455 S
C470 H473 0.929 . S
C471 C470 1.363 1_655 S
C471 C477 1.428 . S
H472 C468 0.930 . S
H473 C470 0.929 . S
S474 N475 1.613 . S
S474 N476 1.610 . S
N475 S474 1.613 . S
N475 C478 1.350 . S
N476 S474 1.610 . S
N476 C477 1.351 . S
C477 C471 1.428 . S
C477 N476 1.351 . S
C477 C478 1.434 . S
C478 C469 1.429 . S
C478 N475 1.350 . S
C478 C477 1.434 . S
C479 C480 1.369 1_545 S
C479 C481 1.419 . S
C479 H483 0.930 . S
C480 C479 1.369 1_565 S
C480 C489 1.429 . S
C481 C479 1.419 . S
C481 C482 1.363 1_545 S
C481 H484 0.929 . S
C482 C481 1.363 1_565 S
C482 C488 1.428 . S
H483 C479 0.930 . S
H484 C481 0.929 . S
S485 N486 1.613 . S
S485 N487 1.610 . S
N486 S485 1.613 . S
N486 C489 1.350 . S
N487 S485 1.610 . S
N487 C488 1.351 . S
C488 C482 1.428 . S
C488 N487 1.351 . S
C488 C489 1.434 . S
C489 C480 1.429 . S
C489 N486 1.350 . S
C489 C488 1.434 . S
C490 C491 1.369 . S
C490 C492 1.419 . S
C490 H494 0.930 . S
C491 C490 1.369 . S
C491 C500 1.429 . S
C492 C490 1.419 . S
C492 C493 1.363 . S
C492 H495 0.929 . S
C493 C492 1.363 . S
C493 C499 1.428 . S
H494 C490 0.930 . S
H495 C492 0.929 . S
S496 N497 1.613 . S
S496 N498 1.610 . S
N497 S496 1.613 . S
N497 C500 1.350 . S
N498 S496 1.610 . S
N498 C499 1.351 . S
C499 C493 1.428 . S
C499 N498 1.351 . S
C499 C500 1.434 . S
C500 C491 1.429 . S
C500 N497 1.350 . S
C500 C499 1.434 . S
C501 C502 1.369 . S
C501 C503 1.419 . S
C501 H505 0.930 . S
C502 C501 1.369 . S
C502 C511 1.429 . S
C503 C501 1.419 . S
C503 C504 1.363 . S
C503 H506 0.929 . S
C504 C503 1.363 . S
C504 C510 1.428 . S
H505 C501 0.930 . S
H506 C503 0.929 . S
S507 N508 1.613 . S
S507 N509 1.610 . S
N508 S507 1.613 . S
N508 C511 1.350 . S
N509 S507 1.610 . S
N509 C510 1.351 . S
C510 C504 1.428 . S
C510 N509 1.351 . S
C510 C511 1.434 . S
C511 C502 1.429 . S
C511 N508 1.350 . S
C511 C510 1.434 . S
C249 C76 2.026 1_545 S
C251 C111 2.262 1_545 S
C262 C151 1.808 . S
C260 C87 1.798 . S
C273 C170 2.276 . S
C271 C54 2.025 . S
C284 C231 1.564 1_455 S
C282 C65 1.395 1_455 S
C295 C90 2.263 1_564 S
C293 C32 2.018 . S
C304 C43 1.811 . S
C306 C130 1.813 . S
C315 C10 2.033 . S
C317 C191 2.273 1_554 S
C326 C21 1.407 . S
C328 C210 1.568 1_654 S
C339 C92 1.136 . S
C337 C60 1.203 1_655 S
C350 C132 0.576 . S
C348 C71 0.583 . S
C361 C188 1.350 . S
C359 C82 1.185 . S
C370 C49 0.687 . S
C372 C212 0.712 . S
C381 C16 1.204 . S
C383 C113 1.137 . S
C394 C153 0.592 . S
C392 C27 0.574 1_565 S
C405 C199 1.350 . S
C403 C38 1.156 . S
C414 C5 0.695 . S
C416 C233 0.715 . S
C425 C59 1.634 . S
C427 C108 1.848 1_554 S
C436 C70 2.306 . S
C438 C148 2.582 . S
C449 C172 1.635 . S
C447 C81 1.653 . S
C460 C228 2.575 . S
C458 C48 2.302 1_556 S
C469 C15 1.625 1_655 S
C471 C119 1.859 . S
C482 C159 2.583 . S
C480 C26 2.300 1_565 S
C493 C193 1.640 . S
C491 C37 1.670 . S
C502 C4 2.300 . S
C504 C239 2.578 . S
