# Generated by pormake.
# Topology zzz, (3,6)-cn, num edge types: 1
# Building blocks:
#     Node 0, Type 0, BuildingBlock: ESEHIV_clean_linker_0, # of connection points: 3
#     Node 1, Type 0, BuildingBlock: ESEHIV_clean_linker_0, # of connection points: 3
#     Node 2, Type 0, BuildingBlock: ESEHIV_clean_linker_0, # of connection points: 3
#     Node 3, Type 0, BuildingBlock: ESEHIV_clean_linker_0, # of connection points: 3
#     Node 4, Type 0, BuildingBlock: ESEHIV_clean_linker_0, # of connection points: 3
#     Node 5, Type 0, BuildingBlock: ESEHIV_clean_linker_0, # of connection points: 3
#     Node 6, Type 0, BuildingBlock: ESEHIV_clean_linker_0, # of connection points: 3
#     Node 7, Type 0, BuildingBlock: ESEHIV_clean_linker_0, # of connection points: 3
#     Node 8, Type 1, BuildingBlock: PAMTUU_clean_sbu_0, # of connection points: 6
#     Node 9, Type 1, BuildingBlock: PAMTUU_clean_sbu_0, # of connection points: 6
#     Node 10, Type 1, BuildingBlock: PAMTUU_clean_sbu_0, # of connection points: 6
#     Node 11, Type 1, BuildingBlock: PAMTUU_clean_sbu_0, # of connection points: 6
#     Edge 12, Type (0, 1), BuildingBlock: OJICUG_clean_linker_0, # of connection points: 2
#     Edge 13, Type (0, 1), BuildingBlock: OJICUG_clean_linker_0, # of connection points: 2
#     Edge 14, Type (0, 1), BuildingBlock: OJICUG_clean_linker_0, # of connection points: 2
#     Edge 15, Type (0, 1), BuildingBlock: OJICUG_clean_linker_0, # of connection points: 2
#     Edge 16, Type (0, 1), BuildingBlock: OJICUG_clean_linker_0, # of connection points: 2
#     Edge 17, Type (0, 1), BuildingBlock: OJICUG_clean_linker_0, # of connection points: 2
#     Edge 18, Type (0, 1), BuildingBlock: OJICUG_clean_linker_0, # of connection points: 2
#     Edge 19, Type (0, 1), BuildingBlock: OJICUG_clean_linker_0, # of connection points: 2
#     Edge 20, Type (0, 1), BuildingBlock: OJICUG_clean_linker_0, # of connection points: 2
#     Edge 21, Type (0, 1), BuildingBlock: OJICUG_clean_linker_0, # of connection points: 2
#     Edge 22, Type (0, 1), BuildingBlock: OJICUG_clean_linker_0, # of connection points: 2
#     Edge 23, Type (0, 1), BuildingBlock: OJICUG_clean_linker_0, # of connection points: 2
#     Edge 24, Type (0, 1), BuildingBlock: OJICUG_clean_linker_0, # of connection points: 2
#     Edge 25, Type (0, 1), BuildingBlock: OJICUG_clean_linker_0, # of connection points: 2
#     Edge 26, Type (0, 1), BuildingBlock: OJICUG_clean_linker_0, # of connection points: 2
#     Edge 27, Type (0, 1), BuildingBlock: OJICUG_clean_linker_0, # of connection points: 2
#     Edge 28, Type (0, 1), BuildingBlock: OJICUG_clean_linker_0, # of connection points: 2
#     Edge 29, Type (0, 1), BuildingBlock: OJICUG_clean_linker_0, # of connection points: 2
#     Edge 30, Type (0, 1), BuildingBlock: OJICUG_clean_linker_0, # of connection points: 2
#     Edge 31, Type (0, 1), BuildingBlock: OJICUG_clean_linker_0, # of connection points: 2
#     Edge 32, Type (0, 1), BuildingBlock: OJICUG_clean_linker_0, # of connection points: 2
#     Edge 33, Type (0, 1), BuildingBlock: OJICUG_clean_linker_0, # of connection points: 2
#     Edge 34, Type (0, 1), BuildingBlock: OJICUG_clean_linker_0, # of connection points: 2
#     Edge 35, Type (0, 1), BuildingBlock: OJICUG_clean_linker_0, # of connection points: 2
# Relax obj value: 0.512
# Max RMSD: 0.326
# Mean RMSD: 0.214
data_MOF--net-zzz--node1-PAMTUU_clean_sbu_0--node2-ESEHIV_clean_linker_0--edge1-OJICUG_clean_linker_0
_symmetry_space_group_name_H-M    P1
_symmetry_Int_Tables_number       1
_symmetry_cell_setting            triclinic
loop_
_symmetry_equiv_pos_as_xyz
'x, y, z'
_cell_length_a     29.537976
_cell_length_b     34.495683
_cell_length_c     11.840534
_cell_angle_alpha  103.71183
_cell_angle_beta   89.615024
_cell_angle_gamma 86.524256
loop_
_atom_site_label
_atom_site_type_symbol
_atom_site_fract_x
_atom_site_fract_y
_atom_site_fract_z
_atom_type_partial_charge
H0 H 0.85815 0.38413 0.43718 0.0
H1 H 0.74299 0.39603 0.22711 0.0
H2 H 0.77453 0.49434 0.50944 0.0
C3 C 0.82762 0.40102 0.42169 0.0
C4 C 0.81821 0.4398 0.49174 0.0
C5 C 0.80168 0.38557 0.32424 0.0
C6 C 0.7633 0.40808 0.30178 0.0
C7 C 0.75321 0.44738 0.36593 0.0
C8 C 0.78132 0.46372 0.46073 0.0
H9 H 0.13085 0.7871 0.50732 0.0
H10 H 0.14136 0.67095 0.27294 0.0
H11 H 1.0304 0.70368 0.523 0.0
C12 C 0.11966 0.75699 0.47971 0.0
C13 C 0.07989 0.74805 0.53023 0.0
C14 C 0.14125 0.73005 0.38452 0.0
C15 C 0.12511 0.69184 0.34731 0.0
C16 C 0.08557 0.68165 0.39752 0.0
C17 C 0.06213 0.71038 0.48767 0.0
H18 H 0.74302 0.08169 0.59412 0.0
H19 H 0.85812 0.07482 0.36599 0.0
H20 H 0.82363 0.9706 0.4827 0.0
C21 C 0.77274 0.06501 0.54873 0.0
C22 C 0.78075 0.02479 0.55247 0.0
C23 C 0.79979 0.08304 0.4804 0.0
C24 C 0.83719 0.06093 0.41889 0.0
C25 C 0.84645 0.0205 0.41839 0.0
C26 C 0.81745 0.00196 0.48398 0.0
H27 H 0.54438 0.70014 0.3165 0.0
H28 H 0.59171 0.81689 0.34476 0.0
H29 H 0.51108 0.76212 0.0524 0.0
C30 C 0.54422 0.72715 0.28444 0.0
C31 C 0.52332 0.72811 0.17988 0.0
C32 C 0.56942 0.7584 0.3428 0.0
C33 C 0.57219 0.79271 0.29874 0.0
C34 C 0.54958 0.79526 0.19504 0.0
C35 C 0.52603 0.76218 0.13568 0.0
H36 H 0.26565 0.58741 0.31118 0.0
H37 H 0.38217 0.5773 0.51838 0.0
H38 H 0.34848 0.47696 0.24534 0.0
C39 C 0.29641 0.57082 0.32665 0.0
C40 C 0.30552 0.53167 0.25879 0.0
C41 C 0.32267 0.58684 0.42298 0.0
C42 C 0.36159 0.56481 0.44465 0.0
C43 C 0.3711 0.52506 0.3836 0.0
C44 C 0.34242 0.50802 0.29087 0.0
H45 H 0.97214 0.18538 0.29155 0.0
H46 H 0.97492 0.30152 0.52298 0.0
H47 H 0.07421 0.26385 0.24309 0.0
C48 C 0.98574 0.21468 0.31495 0.0
C49 C 1.02358 0.22175 0.25268 0.0
C50 C 0.96856 0.24275 0.41385 0.0
C51 C 0.98765 0.27985 0.44557 0.0
C52 C 1.02533 0.28807 0.38382 0.0
C53 C 1.04415 0.25843 0.28846 0.0
H54 H 0.30562 0.08791 0.22433 0.0
H55 H 0.20577 0.09273 0.49084 0.0
H56 H 0.25124 0.97964 0.26704 0.0
C57 C 0.28125 0.07338 0.26627 0.0
C58 C 0.28117 0.03169 0.23103 0.0
C59 C 0.26193 0.09349 0.37474 0.0
C60 C 0.22511 0.07605 0.41484 0.0
C61 C 0.21968 0.03478 0.3753 0.0
C62 C 0.25068 0.01191 0.28854 0.0
H63 H 0.58356 0.28792 0.4809 0.0
H64 H 0.50303 0.19075 0.49685 0.0
H65 H 0.60892 0.22383 0.74575 0.0
C66 C 0.57793 0.26279 0.5185 0.0
C67 C 0.60015 0.25929 0.61999 0.0
C68 C 0.54313 0.23833 0.47411 0.0
C69 C 0.53158 0.2082 0.52849 0.0
C70 C 0.55582 0.20188 0.62601 0.0
C71 C 0.59052 0.22744 0.66976 0.0
Tb72 Tb 0.99767 0.99467 0.81566 0.0
Tb73 Tb 0.08703 0.97539 0.95737 0.0
C74 C 0.98708 0.97875 0.06153 0.0
C75 C 0.92324 0.05867 0.69403 0.0
C76 C 0.91432 0.13621 0.65618 0.0
C77 C 0.8757 0.11716 0.67839 0.0
C78 C 0.88018 0.07858 0.69822 0.0
C79 C 0.96173 0.07834 0.67487 0.0
C80 C 0.95731 0.11657 0.65581 0.0
C81 C 0.92944 0.01932 0.72131 0.0
O82 O 1.01336 0.05065 0.93412 0.0
O83 O 0.08824 0.03969 0.97499 0.0
O84 O 0.11139 0.97299 0.78008 0.0
O85 O 0.0546 0.0114 0.72199 0.0
O86 O 0.12037 0.97587 0.11428 0.0
O87 O 0.15365 0.94982 0.94978 0.0
O88 O 0.05629 0.91842 0.89514 0.0
O89 O 1.01587 0.93138 0.74182 0.0
O90 O 0.97293 0.96909 0.95429 0.0
O91 O 1.029 0.98929 0.08204 0.0
C92 C 0.05238 0.06402 0.9734 0.0
O93 O 0.96187 0.99521 0.66303 0.0
O94 O 0.93113 0.02086 0.83208 0.0
C95 C 0.09583 0.99411 0.70805 0.0
C96 C 0.16546 0.91611 0.0963 0.0
C97 C 0.18466 0.84164 0.14939 0.0
C98 C 0.21953 0.86751 0.14806 0.0
C99 C 0.21004 0.90437 0.11981 0.0
C100 C 0.13077 0.89033 0.098 0.0
C101 C 0.14027 0.85346 0.12379 0.0
C102 C 0.15506 0.95366 0.06144 0.0
C103 C 1.03559 0.90598 0.79631 0.0
H104 H 0.84234 0.13205 0.68002 0.0
H105 H 0.85025 0.06437 0.71689 0.0
H106 H 0.99542 0.06413 0.67425 0.0
H107 H 0.98763 0.1304 0.63747 0.0
H108 H 0.25392 0.85916 0.16834 0.0
H109 H 0.23742 0.92349 0.1156 0.0
H110 H 0.0962 0.89873 0.07934 0.0
H111 H 0.11246 0.83462 0.12698 0.0
Tb112 Tb 0.52222 0.97454 0.78618 0.0
Tb113 Tb 0.55713 0.02424 0.03419 0.0
C114 C 0.55456 0.93054 0.98123 0.0
C115 C 0.45488 0.97259 0.54372 0.0
C116 C 0.39796 0.03999 0.52782 0.0
C117 C 0.38 0.00682 0.55846 0.0
C118 C 0.40809 0.9736 0.56637 0.0
C119 C 0.47183 0.0034 0.49913 0.0
C120 C 0.44372 0.0368 0.49176 0.0
C121 C 0.48614 0.94691 0.59654 0.0
O122 O 0.46305 0.00567 0.88964 0.0
O123 O 0.49149 1.00153 0.06296 0.0
O124 O 0.53568 0.07107 0.94654 0.0
O125 O 0.52982 0.03359 0.76012 0.0
O126 O 0.60343 0.0358 0.16933 0.0
O127 O 0.53822 0.06908 0.18311 0.0
O128 O 0.61332 0.02267 0.90996 0.0
O129 O 0.59658 0.96695 0.7706 0.0
O130 O 0.5291 0.93042 0.89036 0.0
O131 O 0.57547 0.96214 0.03441 0.0
C132 C 0.45628 0.00351 0.99761 0.0
O133 O 0.52831 0.95623 0.60367 0.0
O134 O 0.47161 0.94043 0.69434 0.0
C135 C 0.53154 0.06812 0.83455 0.0
C136 C 0.59938 0.10188 0.28099 0.0
C137 C 0.66281 0.15803 0.36952 0.0
C138 C 0.64643 0.15461 0.25616 0.0
C139 C 0.61517 0.1262 0.21149 0.0
C140 C 0.61008 0.10964 0.39828 0.0
C141 C 0.64045 0.13827 0.44336 0.0
C142 C 0.57723 0.06511 0.23121 0.0
C143 C 0.62485 0.99449 0.81559 0.0
H144 H 0.34428 0.00675 0.57942 0.0
H145 H 0.3937 0.95009 0.59889 0.0
H146 H 0.50764 0.0034 0.4788 0.0
H147 H 0.45871 0.06092 0.4639 0.0
H148 H 0.66186 0.17014 0.1978 0.0
H149 H 0.60649 0.12087 0.12057 0.0
H150 H 0.5982 0.09099 0.45275 0.0
H151 H 0.65094 0.14019 0.53182 0.0
Tb152 Tb 0.51801 0.47562 0.95979 0.0
Tb153 Tb 0.59838 0.50991 0.81719 0.0
C154 C 0.50332 0.48701 0.70108 0.0
C155 C 0.46525 0.40954 0.11302 0.0
C156 C 0.47688 0.33989 0.19911 0.0
C157 C 0.43331 0.35851 0.19472 0.0
C158 C 0.42755 0.39302 0.15159 0.0
C159 C 0.50861 0.39116 0.11756 0.0
C160 C 0.5144 0.35681 0.16004 0.0
C161 C 0.45997 0.44484 0.06345 0.0
O162 O 0.55955 0.42405 0.86654 0.0
O163 O 0.62319 0.44805 0.79726 0.0
O164 O 0.62417 0.51246 0.99342 0.0
O165 O 0.57868 0.4705 0.06026 0.0
O166 O 0.63687 0.51463 0.6708 0.0
O167 O 0.64378 0.5553 0.83776 0.0
O168 O 0.542 0.55414 0.8587 0.0
O169 O 0.514 0.54023 1.02347 0.0
O170 O 0.48555 0.48756 0.80415 0.0
O171 O 0.54737 0.48922 0.68556 0.0
C172 C 0.60072 0.41896 0.82019 0.0
O173 O 0.48252 0.47534 0.11423 0.0
O174 O 0.46489 0.43723 0.95073 0.0
C175 C 0.61511 0.49099 0.06861 0.0
C176 C 0.64715 0.58283 0.67637 0.0
C177 C 0.63318 0.65549 0.60611 0.0
C178 C 0.67719 0.64116 0.62729 0.0
C179 C 0.68404 0.60526 0.66288 0.0
C180 C 0.60337 0.5966 0.65316 0.0
C181 C 0.59644 0.63251 0.61858 0.0
C182 C 0.65359 0.54779 0.72704 0.0
C183 C 0.51996 0.56539 0.95811 0.0
H184 H 0.40371 0.34634 0.22417 0.0
H185 H 0.39376 0.40671 0.1481 0.0
H186 H 0.53814 0.40352 0.08851 0.0
H187 H 0.54858 0.34413 0.16488 0.0
H188 H 0.7062 0.65801 0.61821 0.0
H189 H 0.71805 0.59537 0.68187 0.0
H190 H 0.57438 0.57987 0.66358 0.0
H191 H 0.56222 0.64202 0.60022 0.0
Tb192 Tb 0.06611 0.52247 0.81739 0.0
Tb193 Tb 0.05569 0.44743 0.9409 0.0
C194 C 1.04223 0.53774 0.08039 0.0
C195 C 0.10749 0.61356 0.7398 0.0
C196 C 0.18394 0.6556 0.71482 0.0
C197 C 0.17592 0.64368 0.81913 0.0
C198 C 0.1386 0.62157 0.82985 0.0
C199 C 0.11026 0.63245 0.64835 0.0
C200 C 0.14811 0.65336 0.63566 0.0
C201 C 0.07679 0.58121 0.72903 0.0
O202 O 0.13228 0.5152 0.90134 0.0
O203 O 0.12343 0.464 0.99342 0.0
O204 O 0.09181 0.4243 0.77663 0.0
O205 O 0.06203 0.46837 0.67774 0.0
O206 O 1.02715 0.42372 0.07035 0.0
O207 O 0.0726 0.38716 0.93841 0.0
O208 O 0.98976 0.45411 0.85487 0.0
O209 O 0.99763 0.50708 0.76931 0.0
O210 O 1.03145 0.54707 0.98293 0.0
O211 O 0.0578 0.5014 0.08183 0.0
C212 C 0.14772 0.49166 0.96842 0.0
O213 O 0.0953 0.5453 0.68699 0.0
O214 O 1.04978 0.58259 0.81737 0.0
C215 C 0.07864 0.43237 0.67926 0.0
C216 C 1.016 0.35526 1.01749 0.0
C217 C 0.93981 0.31272 0.04045 0.0
C218 C 0.97415 0.31699 0.12404 0.0
C219 C 1.01182 0.33824 0.11255 0.0
C220 C 0.98657 0.34513 0.9242 0.0
C221 C 0.94936 0.32281 0.93422 0.0
C222 C 1.04609 0.38803 1.02734 0.0
C223 C 0.97381 0.47863 0.79115 0.0
H224 H 0.20077 0.64736 0.88692 0.0
H225 H 0.13604 0.60822 0.90359 0.0
H226 H 0.08536 0.62768 0.58059 0.0
H227 H 0.15129 0.663 0.55591 0.0
H228 H 0.96957 0.30896 0.20591 0.0
H229 H 1.03521 0.34484 0.18363 0.0
H230 H 0.99018 0.3571 0.8481 0.0
H231 H 0.92547 0.31774 0.86414 0.0
C232 C 0.14084 0.03318 0.45484 0.0
C233 C 0.18606 0.01702 0.44098 0.0
H234 H 0.07728 0.0387 0.54771 0.0
C235 C 0.20031 0.99046 0.5093 0.0
H236 H 0.12888 0.05409 0.40461 0.0
C237 C 0.17078 0.98202 0.59339 0.0
C238 C 0.12614 0.99983 0.61125 0.0
H239 H 0.23511 0.97814 0.50273 0.0
H240 H 0.18354 0.96259 0.64721 0.0
C241 C 0.11132 0.0246 0.53802 0.0
C242 C 0.53077 0.13289 0.61713 0.0
C243 C 0.54453 0.1694 0.68377 0.0
H244 H 0.51764 0.07256 0.61136 0.0
C245 C 0.54933 0.17365 0.80467 0.0
H246 H 0.52605 0.12829 0.52448 0.0
C247 C 0.54322 0.14145 0.85561 0.0
C248 C 0.5323 0.10424 0.78677 0.0
H249 H 0.55827 0.20172 0.86025 0.0
H250 H 0.54852 0.14537 0.94797 0.0
C251 C 0.5255 0.10073 0.66745 0.0
C252 C 0.45297 0.50966 0.42405 0.0
C253 C 0.40695 0.50221 0.43511 0.0
H254 H 0.51951 0.51026 0.49707 0.0
C255 C 0.39449 0.48492 0.52618 0.0
H256 H 0.46349 0.52425 0.35754 0.0
C257 C 0.42626 0.47801 0.60856 0.0
C258 C 0.47169 0.4879 0.60214 0.0
H259 H 0.35918 0.48003 0.5398 0.0
H260 H 0.41455 0.46676 0.68087 0.0
C261 C 0.485 0.50216 0.50548 0.0
C262 C 0.08681 0.32678 0.49185 0.0
C263 C 1.0464 0.32644 0.43008 0.0
H264 H 0.12901 0.36106 0.61988 0.0
C265 C 1.02107 0.36278 0.43644 0.0
H266 H 0.10637 0.29905 0.49026 0.0
C267 C 1.03443 0.39841 0.50864 0.0
C268 C 0.07262 0.39815 0.57874 0.0
H269 H 0.98925 0.36313 0.39158 0.0
H270 H 1.01252 0.42535 0.5174 0.0
C271 C 0.09959 0.36225 0.5664 0.0
C272 C 0.92936 0.0109 0.36245 0.0
C273 C 0.88478 0.99919 0.33978 0.0
H274 H 0.99653 0.01326 0.29466 0.0
C275 C 0.87575 0.97662 0.22776 0.0
H276 H 0.93718 0.0294 0.44643 0.0
C277 C 0.90958 0.96812 0.13922 0.0
C278 C 0.95355 0.98185 0.16017 0.0
H279 H 0.84156 0.96821 0.20613 0.0
H280 H 0.90053 0.95243 0.05268 0.0
C281 C 0.96334 0.00203 0.27451 0.0
C282 C 0.51434 0.84197 0.081 0.0
C283 C 0.55129 0.83109 0.14426 0.0
H284 H 0.48712 0.88065 0.97808 0.0
C285 C 0.58982 0.85379 0.15379 0.0
H286 H 0.48334 0.82645 0.07459 0.0
C287 C 0.59132 0.88604 0.10046 0.0
C288 C 0.55484 0.89565 0.03421 0.0
H289 H 0.61916 0.84634 0.20055 0.0
H290 H 0.62125 0.90309 0.10973 0.0
C291 C 0.51639 0.87327 1.02545 0.0
C292 C 0.72511 0.49332 0.24127 0.0
C293 C 0.71539 0.47005 0.32039 0.0
H294 H 0.7016 0.51835 0.10045 0.0
C295 C 0.67085 0.45799 0.32466 0.0
H296 H 0.75938 0.50197 0.23278 0.0
C297 C 0.63787 0.46668 0.24749 0.0
C298 C 0.64833 0.48758 0.16262 0.0
H299 H 0.66248 0.43909 0.382 0.0
H300 H 0.60472 0.45511 0.25066 0.0
C301 C 0.69201 0.50214 0.16389 0.0
C302 C 1.02729 0.64129 0.27925 0.0
C303 C 0.06732 0.64254 0.3429 0.0
H304 H 0.98777 0.60666 0.14497 0.0
C305 C 0.09473 0.60702 0.33275 0.0
H306 H 1.0061 0.66839 0.28363 0.0
C307 C 0.08368 0.57149 0.25588 0.0
C308 C 1.04584 0.57111 0.18448 0.0
H309 H 0.12631 0.60735 0.37885 0.0
H310 H 0.10707 0.54535 0.24479 0.0
C311 C 1.01694 0.60601 0.19964 0.0
C312 C 0.90459 0.20284 0.4517 0.0
C313 C 0.93856 0.22893 0.49537 0.0
H314 H 0.86996 0.15204 0.47101 0.0
C315 C 0.9525 0.23217 0.61036 0.0
H316 H 0.8927 0.20023 0.364 0.0
C317 C 0.93896 0.20487 0.67206 0.0
C318 C 0.91118 0.17431 0.6197 0.0
H319 H 0.97843 0.25208 0.64698 0.0
H320 H 0.95449 0.20467 0.75461 0.0
C321 C 0.89119 0.17544 0.51336 0.0
C322 C 0.33632 0.12317 0.42133 0.0
C323 C 0.29297 0.11712 0.46243 0.0
H324 H 0.40361 0.09575 0.39158 0.0
C325 C 0.29249 0.10866 0.57322 0.0
H326 H 0.33955 0.1368 0.34841 0.0
C327 C 0.32939 0.08608 0.60314 0.0
C328 C 0.36791 0.07643 0.52856 0.0
H329 H 0.26112 0.11063 0.62258 0.0
H330 H 0.32582 0.07299 0.67706 0.0
C331 C 0.37332 0.09931 0.44584 0.0
C332 C 0.64342 0.32063 0.63015 0.0
C333 C 0.62212 0.29498 0.68792 0.0
H334 H 0.6526 0.38167 0.62697 0.0
C335 C 0.60856 0.30997 0.80489 0.0
H336 H 0.6558 0.30965 0.54128 0.0
C337 C 0.6074 0.35089 0.85393 0.0
C338 C 0.61992 0.37734 0.78722 0.0
H339 H 0.59276 0.29132 0.85359 0.0
H340 H 0.59191 0.36215 0.93953 0.0
C341 C 0.64175 0.36188 0.67908 0.0
C342 C 0.30141 0.61512 0.63113 0.0
C343 C 0.30238 0.62018 0.51681 0.0
H344 H 0.26386 0.624 0.78818 0.0
C345 C 0.27414 0.65102 0.49069 0.0
H346 H 0.3233 0.59247 0.65659 0.0
C347 C 0.23948 0.67018 0.56905 0.0
C348 C 0.23151 0.65723 0.67159 0.0
H349 H 0.27555 0.65718 0.40521 0.0
H350 H 0.21569 0.69111 0.54175 0.0
C351 C 0.26647 0.63363 0.70809 0.0
C352 C 0.16064 0.74106 0.19056 0.0
C353 C 0.17143 0.74627 0.30849 0.0
H354 H 0.15756 0.76781 0.04512 0.0
C355 C 0.20043 0.77638 0.35801 0.0
H356 H 0.13885 0.71796 0.14877 0.0
C357 C 0.2104 0.80552 0.29885 0.0
C358 C 0.19214 0.80423 0.18901 0.0
H359 H 0.21032 0.78044 0.44781 0.0
H360 H 0.22744 0.8314 0.34474 0.0
C361 C 0.17095 0.76992 0.13122 0.0
C362 C 0.77904 0.12428 0.34016 0.0
C363 C 0.78314 0.12176 0.45638 0.0
H364 H 0.73651 0.14365 0.21814 0.0
C365 C 0.75962 0.15126 0.54307 0.0
H366 H 0.79803 0.10336 0.27085 0.0
C367 C 0.72437 0.17535 0.51191 0.0
C368 C 0.71088 0.16735 0.39526 0.0
H369 H 0.76381 0.15169 0.63415 0.0
H370 H 0.70186 0.19297 0.5801 0.0
C371 C 0.74346 0.14801 0.3098 0.0
C372 C 0.52182 0.67635 0.99359 0.0
C373 C 0.50678 0.69031 0.10956 0.0
H374 H 0.53691 0.62563 0.85363 0.0
C375 C 0.48573 0.66391 0.16465 0.0
H376 H 0.53805 0.69578 0.94825 0.0
C377 C 0.48645 0.62313 0.11164 0.0
C378 C 0.50722 0.60845 1.00169 0.0
H379 H 0.47269 0.67414 0.25316 0.0
H380 H 0.47387 0.60294 0.16026 0.0
C381 C 0.52174 0.6358 0.93985 0.0
C382 C 0.84791 0.32003 0.26009 0.0
C383 C 0.82134 0.35147 0.23188 0.0
H384 H 0.90527 0.27834 0.21228 0.0
C385 C 0.82336 0.35587 0.11699 0.0
H386 H 0.84557 0.31443 0.34612 0.0
C387 C 0.85805 0.33591 0.04137 0.0
C388 C 0.89172 0.31168 0.08021 0.0
H389 H 0.80267 0.37895 0.09012 0.0
H390 H 0.86193 0.34499 0.96069 0.0
C391 C 0.88233 0.29949 0.18317 0.0
C392 C 1.01465 0.17403 0.06236 0.0
C393 C 1.04195 0.18782 0.1584 0.0
H394 H 0.99682 0.12424 0.92829 0.0
C395 C 0.07788 0.16226 0.18117 0.0
H396 H 0.98622 0.19284 0.04424 0.0
C397 C 0.08387 0.12254 0.11513 0.0
C398 C 0.05359 0.10768 1.02627 0.0
H399 H 0.09865 0.1718 0.25653 0.0
H400 H 0.10981 0.10274 0.13979 0.0
C401 C 1.02036 0.13447 0.99718 0.0
C402 C 0.32706 0.01831 0.04411 0.0
C403 C 0.32108 0.01164 0.15616 0.0
H404 H 0.37371 0.02083 0.90592 0.0
C405 C 0.35946 0.99855 0.20999 0.0
H406 H 0.29858 0.02974 1.00178 0.0
C407 C 0.40284 0.99478 0.15698 0.0
C408 C 0.40925 0.00363 0.04771 0.0
H409 H 0.35653 0.9945 0.29765 0.0
H410 H 0.43168 0.98644 0.20415 0.0
C411 C 0.3704 0.01394 0.99009 0.0
C412 C 0.53438 0.24851 0.27489 0.0
C413 C 0.51495 0.25089 0.38495 0.0
H414 H 0.53651 0.27414 0.12728 0.0
C415 C 0.47679 0.27726 0.42207 0.0
H416 H 0.56428 0.2288 0.24536 0.0
C417 C 0.46165 0.30415 0.35642 0.0
C418 C 0.48441 0.30495 0.25228 0.0
H419 H 0.46195 0.28023 0.50789 0.0
H420 H 0.43499 0.32668 0.39291 0.0
C421 C 0.519 0.27508 0.20866 0.0
C422 C 0.24909 0.48149 0.16434 0.0
C423 C 0.27186 0.51622 0.16566 0.0
H424 H 0.19269 0.44654 0.10224 0.0
C425 C 0.2561 0.54042 0.09106 0.0
H426 H 0.25956 0.46241 0.22133 0.0
C427 C 0.2174 0.5316 1.02299 0.0
C428 C 0.19287 0.49822 1.0271 0.0
H429 H 0.27261 0.5675 0.08957 0.0
H430 H 0.20561 0.55202 0.97113 0.0
C431 C 0.21022 0.4727 0.09648 0.0
C432 C 1.02498 0.8075 0.57316 0.0
C433 C 0.05571 0.78173 0.61495 0.0
H434 H 0.99442 0.86698 0.59719 0.0
C435 C 0.07434 0.79555 0.72492 0.0
H436 H 1.01119 0.79798 0.48716 0.0
C437 C 0.06514 0.83519 0.78784 0.0
C438 C 1.03761 0.86216 0.74131 0.0
H439 H 0.09912 0.7767 0.75766 0.0
H440 H 0.08226 0.84532 0.86912 0.0
C441 C 1.01602 0.84728 0.63556 0.0
C442 C 0.71763 0.97988 0.57571 0.0
C443 C 0.74798 0.00877 0.62586 0.0
H444 H 0.6553 0.95246 0.59523 0.0
C445 C 0.73984 0.02938 0.74284 0.0
H446 H 0.72209 0.9641 0.4853 0.0
C447 C 0.70135 0.02323 0.80543 0.0
C448 C 0.66939 0.99613 0.75365 0.0
H449 H 0.76206 0.05221 0.7841 0.0
H450 H 0.69574 0.04112 0.89336 0.0
C451 C 0.67896 0.97355 0.63881 0.0
C452 C 0.63817 0.72859 0.41358 0.0
C453 C 0.59605 0.75019 0.44074 0.0
H454 H 0.68273 0.68086 0.44348 0.0
C455 C 0.57207 0.74709 0.54073 0.0
H456 H 0.65682 0.72979 0.33549 0.0
C457 C 0.58647 0.71862 0.6018 0.0
C458 C 0.6252 0.69282 0.56411 0.0
H459 H 0.53917 0.76292 0.56247 0.0
H460 H 0.56523 0.71459 0.67257 0.0
C461 C 0.6526 0.70002 0.47454 0.0
C462 C 0.873 0.49013 0.59486 0.0
C463 C 0.85118 0.45454 0.58741 0.0
H464 H 0.92812 0.52565 0.66401 0.0
C465 C 0.86713 0.42922 0.65875 0.0
H466 H 0.86234 0.51014 0.54072 0.0
C467 C 0.90526 0.43784 0.72921 0.0
C468 C 0.92893 0.47216 0.73102 0.0
H469 H 0.85129 0.4015 0.65582 0.0
H470 H 0.91734 0.41657 0.7781 0.0
C471 C 0.91125 0.49874 0.6652 0.0
loop_
_geom_bond_atom_site_label_1
_geom_bond_atom_site_label_2
_geom_bond_distance
_geom_bond_site_symmetry_2
_ccdc_geom_bond_type
H0 C3 0.931 . S
H1 C6 0.928 . S
H2 C8 0.930 . S
C3 H0 0.931 . S
C3 C4 1.413 . S
C3 C5 1.360 . S
C4 C3 1.413 . S
C4 C8 1.429 . S
C5 C3 1.360 . S
C5 C6 1.372 . S
C6 H1 0.928 . S
C6 C5 1.372 . S
C6 C7 1.404 . S
C7 C6 1.404 . S
C7 C8 1.391 . S
C8 H2 0.930 . S
C8 C4 1.429 . S
C8 C7 1.391 . S
H9 C12 0.931 . S
H10 C15 0.928 . S
H11 C17 0.931 . S
C12 H9 0.931 . S
C12 C13 1.414 . S
C12 C14 1.360 . S
C13 C12 1.414 . S
C13 C17 1.430 1_655 S
C14 C12 1.360 . S
C14 C15 1.374 . S
C15 H10 0.928 . S
C15 C14 1.374 . S
C15 C16 1.404 . S
C16 C15 1.404 . S
C16 C17 1.390 1_655 S
C17 H11 0.931 . S
C17 C13 1.430 1_455 S
C17 C16 1.390 1_455 S
H18 C21 0.930 . S
H19 C24 0.928 . S
H20 C26 0.934 . S
C21 H18 0.930 . S
C21 C22 1.415 . S
C21 C23 1.360 . S
C22 C21 1.415 . S
C22 C26 1.428 1_565 S
C23 C21 1.360 . S
C23 C24 1.370 . S
C24 H19 0.928 . S
C24 C23 1.370 . S
C24 C25 1.402 . S
C25 C24 1.402 . S
C25 C26 1.395 1_565 S
C26 H20 0.934 . S
C26 C22 1.428 1_545 S
C26 C25 1.395 1_545 S
H27 C30 0.931 . S
H28 C33 0.928 . S
H29 C35 0.930 . S
C30 H27 0.931 . S
C30 C31 1.413 1_554 S
C30 C32 1.360 . S
C31 C30 1.413 1_556 S
C31 C35 1.429 . S
C32 C30 1.360 . S
C32 C33 1.372 . S
C33 H28 0.928 . S
C33 C32 1.372 . S
C33 C34 1.404 1_554 S
C34 C33 1.404 1_556 S
C34 C35 1.391 . S
C35 H29 0.930 . S
C35 C31 1.429 . S
C35 C34 1.391 . S
H36 C39 0.931 . S
H37 C42 0.928 . S
H38 C44 0.930 . S
C39 H36 0.931 . S
C39 C40 1.413 . S
C39 C41 1.360 . S
C40 C39 1.413 . S
C40 C44 1.429 . S
C41 C39 1.360 . S
C41 C42 1.372 . S
C42 H37 0.928 . S
C42 C41 1.372 . S
C42 C43 1.404 . S
C43 C42 1.404 . S
C43 C44 1.391 . S
C44 H38 0.930 . S
C44 C40 1.429 . S
C44 C43 1.391 . S
H45 C48 0.930 . S
H46 C51 0.928 . S
H47 C53 0.931 . S
C48 H45 0.930 . S
C48 C49 1.413 . S
C48 C50 1.360 . S
C49 C48 1.413 . S
C49 C53 1.428 1_655 S
C50 C48 1.360 . S
C50 C51 1.371 . S
C51 H46 0.928 . S
C51 C50 1.371 . S
C51 C52 1.404 . S
C52 C51 1.404 . S
C52 C53 1.391 1_655 S
C53 H47 0.931 . S
C53 C49 1.428 1_455 S
C53 C52 1.391 1_455 S
H54 C57 0.931 . S
H55 C60 0.928 . S
H56 C62 0.932 . S
C57 H54 0.931 . S
C57 C58 1.412 . S
C57 C59 1.360 . S
C58 C57 1.412 . S
C58 C62 1.431 1_565 S
C59 C57 1.360 . S
C59 C60 1.374 . S
C60 H55 0.928 . S
C60 C59 1.374 . S
C60 C61 1.405 . S
C61 C60 1.405 . S
C61 C62 1.386 1_565 S
C62 H56 0.932 . S
C62 C58 1.431 1_545 S
C62 C61 1.386 1_545 S
H63 C66 0.931 . S
H64 C69 0.928 . S
H65 C71 0.930 . S
C66 H63 0.931 . S
C66 C67 1.413 . S
C66 C68 1.360 . S
C67 C66 1.413 . S
C67 C71 1.429 . S
C68 C66 1.360 . S
C68 C69 1.372 . S
C69 H64 0.928 . S
C69 C68 1.372 . S
C69 C70 1.404 . S
C70 C69 1.404 . S
C70 C71 1.391 . S
C71 H65 0.930 . S
C71 C67 1.429 . S
C71 C70 1.391 . S
Tb72 C81 2.764 . S
Tb72 O82 2.325 . S
Tb72 O85 2.303 1_655 S
Tb72 O89 2.322 1_545 S
Tb72 O90 2.349 . S
Tb72 O93 2.415 . S
Tb72 O94 2.399 . S
Tb73 O83 2.322 1_565 S
Tb73 O84 2.349 . S
Tb73 O86 2.415 1_556 S
Tb73 O87 2.399 . S
Tb73 O88 2.325 . S
Tb73 O91 2.303 1_455 S
Tb73 C102 2.764 1_556 S
C74 O90 1.261 . S
C74 O91 1.257 1_545 S
C75 C78 1.358 . S
C75 C79 1.332 . S
C75 C81 1.504 . S
C76 C77 1.373 . S
C76 C80 1.308 . S
C77 C76 1.373 . S
C77 C78 1.429 . S
C77 H104 0.932 . S
C78 C75 1.358 . S
C78 C77 1.429 . S
C78 H105 0.930 . S
C79 C75 1.332 . S
C79 C80 1.394 . S
C79 H106 0.932 . S
C80 C76 1.308 . S
C80 C79 1.394 . S
C80 H107 0.929 . S
C81 Tb72 2.764 . S
C81 C75 1.504 . S
C81 O93 1.239 . S
C81 O94 1.263 . S
O82 Tb72 2.325 . S
O82 C92 1.236 1_655 S
O83 Tb73 2.322 1_545 S
O83 C92 1.257 . S
O84 Tb73 2.349 . S
O84 C95 1.261 . S
O85 Tb72 2.303 1_455 S
O85 C95 1.257 1_545 S
O86 Tb73 2.415 1_554 S
O86 C102 1.239 . S
O87 Tb73 2.399 . S
O87 C102 1.263 1_556 S
O88 Tb73 2.325 . S
O88 C103 1.236 1_455 S
O89 Tb72 2.322 1_565 S
O89 C103 1.257 . S
O90 Tb72 2.349 . S
O90 C74 1.261 . S
O91 Tb73 2.303 1_655 S
O91 C74 1.257 1_565 S
C92 O82 1.236 1_455 S
C92 O83 1.257 . S
O93 Tb72 2.415 . S
O93 C81 1.239 . S
O94 Tb72 2.399 . S
O94 C81 1.263 . S
C95 O84 1.261 . S
C95 O85 1.257 1_565 S
C96 C99 1.358 . S
C96 C100 1.332 . S
C96 C102 1.504 . S
C97 C98 1.373 . S
C97 C101 1.308 . S
C98 C97 1.373 . S
C98 C99 1.429 . S
C98 H108 0.932 . S
C99 C96 1.358 . S
C99 C98 1.429 . S
C99 H109 0.930 . S
C100 C96 1.332 . S
C100 C101 1.394 . S
C100 H110 0.932 . S
C101 C97 1.308 . S
C101 C100 1.394 . S
C101 H111 0.929 . S
C102 Tb73 2.764 1_554 S
C102 O86 1.239 . S
C102 O87 1.263 1_554 S
C102 C96 1.504 . S
C103 O88 1.236 1_655 S
C103 O89 1.257 . S
H104 C77 0.932 . S
H105 C78 0.930 . S
H106 C79 0.932 . S
H107 C80 0.929 . S
H108 C98 0.932 . S
H109 C99 0.930 . S
H110 C100 0.932 . S
H111 C101 0.929 . S
Tb112 C121 2.764 . S
Tb112 O122 2.325 . S
Tb112 O125 2.303 1_565 S
Tb112 O129 2.322 . S
Tb112 O130 2.349 . S
Tb112 O133 2.415 1_565 S
Tb112 O134 2.399 . S
Tb113 O123 2.322 . S
Tb113 O124 2.349 1_554 S
Tb113 O126 2.415 1_545 S
Tb113 O127 2.399 . S
Tb113 O128 2.325 1_554 S
Tb113 O131 2.303 1_544 S
Tb113 C142 2.764 . S
C114 O130 1.261 . S
C114 O131 1.257 . S
C115 C118 1.358 . S
C115 C119 1.342 . S
C115 C121 1.504 . S
C116 C117 1.373 . S
C116 C120 1.308 . S
C117 C116 1.373 . S
C117 C118 1.429 . S
C117 H144 0.932 . S
C118 C115 1.358 . S
C118 C117 1.429 . S
C118 H145 0.930 . S
C119 C115 1.342 . S
C119 C120 1.394 . S
C119 H146 0.922 1_565 S
C120 C116 1.308 . S
C120 C119 1.394 . S
C120 H147 0.929 1_565 S
C121 Tb112 2.764 . S
C121 C115 1.504 . S
C121 O133 1.239 1_565 S
C121 O134 1.263 . S
O122 Tb112 2.325 . S
O122 C132 1.236 1_565 S
O123 Tb113 2.322 . S
O123 C132 1.257 1_554 S
O124 Tb113 2.349 1_556 S
O124 C135 1.261 . S
O125 Tb112 2.303 1_545 S
O125 C135 1.257 . S
O126 Tb113 2.415 1_565 S
O126 C142 1.239 1_565 S
O127 Tb113 2.399 . S
O127 C142 1.263 . S
O128 Tb113 2.325 1_556 S
O128 C143 1.236 1_545 S
O129 Tb112 2.322 . S
O129 C143 1.257 . S
O130 Tb112 2.349 . S
O130 C114 1.261 . S
O131 Tb113 2.303 1_566 S
O131 C114 1.257 . S
C132 O122 1.236 1_545 S
C132 O123 1.257 1_556 S
O133 Tb112 2.415 1_545 S
O133 C121 1.239 1_545 S
O134 Tb112 2.399 . S
O134 C121 1.263 . S
C135 O124 1.261 . S
C135 O125 1.257 . S
C136 C139 1.358 . S
C136 C140 1.347 . S
C136 C142 1.504 . S
C137 C138 1.373 . S
C137 C141 1.308 . S
C138 C137 1.373 . S
C138 C139 1.429 . S
C138 H148 0.932 . S
C139 C136 1.358 . S
C139 C138 1.429 . S
C139 H149 0.930 . S
C140 C136 1.347 . S
C140 C141 1.394 . S
C140 H150 0.917 1_545 S
C141 C137 1.308 . S
C141 C140 1.394 . S
C141 H151 0.929 1_545 S
C142 Tb113 2.764 . S
C142 O126 1.239 1_545 S
C142 O127 1.263 . S
C142 C136 1.504 . S
C143 O128 1.236 1_565 S
C143 O129 1.257 . S
H144 C117 0.932 . S
H145 C118 0.930 . S
H146 C119 0.922 1_545 S
H147 C120 0.929 1_545 S
H148 C138 0.932 . S
H149 C139 0.930 . S
H150 C140 0.917 1_565 S
H151 C141 0.929 1_565 S
Tb152 C161 2.764 1_556 S
Tb152 O162 2.325 . S
Tb152 O165 2.303 . S
Tb152 O169 2.322 . S
Tb152 O170 2.349 . S
Tb152 O173 2.415 1_556 S
Tb152 O174 2.399 1_556 S
Tb153 O163 2.322 . S
Tb153 O164 2.349 . S
Tb153 O166 2.415 . S
Tb153 O167 2.399 . S
Tb153 O168 2.325 . S
Tb153 O171 2.303 . S
Tb153 C182 2.764 . S
C154 O170 1.261 . S
C154 O171 1.257 . S
C155 C158 1.358 . S
C155 C159 1.332 . S
C155 C161 1.504 . S
C156 C157 1.373 . S
C156 C160 1.308 . S
C157 C156 1.373 . S
C157 C158 1.429 . S
C157 H184 0.932 . S
C158 C155 1.358 . S
C158 C157 1.429 . S
C158 H185 0.930 . S
C159 C155 1.332 . S
C159 C160 1.394 . S
C159 H186 0.932 . S
C160 C156 1.308 . S
C160 C159 1.394 . S
C160 H187 0.929 . S
C161 Tb152 2.764 1_554 S
C161 C155 1.504 . S
C161 O173 1.239 . S
C161 O174 1.263 . S
O162 Tb152 2.325 . S
O162 C172 1.236 . S
O163 Tb153 2.322 . S
O163 C172 1.257 . S
O164 Tb153 2.349 . S
O164 C175 1.261 . S
O165 Tb152 2.303 . S
O165 C175 1.257 . S
O166 Tb153 2.415 . S
O166 C182 1.239 . S
O167 Tb153 2.399 . S
O167 C182 1.263 . S
O168 Tb153 2.325 . S
O168 C183 1.236 . S
O169 Tb152 2.322 . S
O169 C183 1.257 . S
O170 Tb152 2.349 . S
O170 C154 1.261 . S
O171 Tb153 2.303 . S
O171 C154 1.257 . S
C172 O162 1.236 . S
C172 O163 1.257 . S
O173 Tb152 2.415 1_554 S
O173 C161 1.239 . S
O174 Tb152 2.399 1_554 S
O174 C161 1.263 . S
C175 O164 1.261 . S
C175 O165 1.257 . S
C176 C179 1.358 . S
C176 C180 1.332 . S
C176 C182 1.504 . S
C177 C178 1.373 . S
C177 C181 1.308 . S
C178 C177 1.373 . S
C178 C179 1.429 . S
C178 H188 0.932 . S
C179 C176 1.358 . S
C179 C178 1.429 . S
C179 H189 0.930 . S
C180 C176 1.332 . S
C180 C181 1.394 . S
C180 H190 0.932 . S
C181 C177 1.308 . S
C181 C180 1.394 . S
C181 H191 0.929 . S
C182 Tb153 2.764 . S
C182 O166 1.239 . S
C182 O167 1.263 . S
C182 C176 1.504 . S
C183 O168 1.236 . S
C183 O169 1.257 . S
H184 C157 0.932 . S
H185 C158 0.930 . S
H186 C159 0.932 . S
H187 C160 0.929 . S
H188 C178 0.932 . S
H189 C179 0.930 . S
H190 C180 0.932 . S
H191 C181 0.929 . S
Tb192 C201 2.764 . S
Tb192 O202 2.325 . S
Tb192 O205 2.303 . S
Tb192 O209 2.322 1_455 S
Tb192 O210 2.349 . S
Tb192 O213 2.415 . S
Tb192 O214 2.399 . S
Tb193 O203 2.322 1_655 S
Tb193 O204 2.349 . S
Tb193 O206 2.415 1_556 S
Tb193 O207 2.399 1_556 S
Tb193 O208 2.325 . S
Tb193 O211 2.303 . S
Tb193 C222 2.764 1_556 S
C194 O210 1.261 . S
C194 O211 1.257 1_455 S
C195 C198 1.358 . S
C195 C199 1.332 . S
C195 C201 1.504 . S
C196 C197 1.373 . S
C196 C200 1.308 . S
C197 C196 1.373 . S
C197 C198 1.429 . S
C197 H224 0.932 . S
C198 C195 1.358 . S
C198 C197 1.429 . S
C198 H225 0.930 . S
C199 C195 1.332 . S
C199 C200 1.394 . S
C199 H226 0.932 . S
C200 C196 1.308 . S
C200 C199 1.394 . S
C200 H227 0.929 . S
C201 Tb192 2.764 . S
C201 C195 1.504 . S
C201 O213 1.239 . S
C201 O214 1.263 . S
O202 Tb192 2.325 . S
O202 C212 1.236 . S
O203 Tb193 2.322 1_455 S
O203 C212 1.257 . S
O204 Tb193 2.349 . S
O204 C215 1.261 . S
O205 Tb192 2.303 . S
O205 C215 1.257 1_455 S
O206 Tb193 2.415 1_554 S
O206 C222 1.239 . S
O207 Tb193 2.399 1_554 S
O207 C222 1.263 . S
O208 Tb193 2.325 . S
O208 C223 1.236 . S
O209 Tb192 2.322 1_655 S
O209 C223 1.257 . S
O210 Tb192 2.349 . S
O210 C194 1.261 . S
O211 Tb193 2.303 . S
O211 C194 1.257 1_655 S
C212 O202 1.236 . S
C212 O203 1.257 . S
O213 Tb192 2.415 . S
O213 C201 1.239 . S
O214 Tb192 2.399 . S
O214 C201 1.263 . S
C215 O204 1.261 . S
C215 O205 1.257 1_655 S
C216 C219 1.358 . S
C216 C220 1.332 . S
C216 C222 1.504 . S
C217 C218 1.373 . S
C217 C221 1.308 . S
C218 C217 1.373 . S
C218 C219 1.429 . S
C218 H228 0.932 . S
C219 C216 1.358 . S
C219 C218 1.429 . S
C219 H229 0.930 . S
C220 C216 1.332 . S
C220 C221 1.394 . S
C220 H230 0.932 . S
C221 C217 1.308 . S
C221 C220 1.394 . S
C221 H231 0.929 . S
C222 Tb193 2.764 1_554 S
C222 O206 1.239 . S
C222 O207 1.263 . S
C222 C216 1.504 . S
C223 O208 1.236 . S
C223 O209 1.257 . S
H224 C197 0.932 . S
H225 C198 0.930 . S
H226 C199 0.932 . S
H227 C200 0.929 . S
H228 C218 0.932 . S
H229 C219 0.930 . S
H230 C220 0.932 . S
H231 C221 0.929 . S
C232 C233 1.386 . S
C232 H236 0.950 . S
C232 C241 1.390 . S
C233 C232 1.386 . S
C233 C235 1.389 1_545 S
H234 C241 0.950 . S
C235 C233 1.389 1_565 S
C235 C237 1.390 . S
C235 H239 0.950 . S
H236 C232 0.950 . S
C237 C235 1.390 . S
C237 C238 1.390 . S
C237 H240 0.950 . S
C238 C237 1.390 . S
C238 C241 1.384 1_565 S
H239 C235 0.950 . S
H240 C237 0.950 . S
C241 C232 1.390 . S
C241 H234 0.950 . S
C241 C238 1.384 1_545 S
C242 C243 1.387 . S
C242 H246 0.950 . S
C242 C251 1.390 . S
C243 C242 1.387 . S
C243 C245 1.387 . S
H244 C251 0.950 . S
C245 C243 1.387 . S
C245 C247 1.390 . S
C245 H249 0.950 . S
H246 C242 0.950 . S
C247 C245 1.390 . S
C247 C248 1.387 . S
C247 H250 0.950 . S
C248 C247 1.387 . S
C248 C251 1.387 . S
H249 C245 0.950 . S
H250 C247 0.950 . S
C251 C242 1.390 . S
C251 H244 0.950 . S
C251 C248 1.387 . S
C252 C253 1.387 . S
C252 H256 0.950 . S
C252 C261 1.390 . S
C253 C252 1.387 . S
C253 C255 1.387 . S
H254 C261 0.950 . S
C255 C253 1.387 . S
C255 C257 1.390 . S
C255 H259 0.950 . S
H256 C252 0.950 . S
C257 C255 1.390 . S
C257 C258 1.387 . S
C257 H260 0.950 . S
C258 C257 1.387 . S
C258 C261 1.387 . S
H259 C255 0.950 . S
H260 C257 0.950 . S
C261 C252 1.390 . S
C261 H254 0.950 . S
C261 C258 1.387 . S
C262 C263 1.402 . S
C262 H266 0.950 . S
C262 C271 1.390 . S
C263 C262 1.402 . S
C263 C265 1.373 1_455 S
H264 C271 0.950 . S
C265 C263 1.373 1_655 S
C265 C267 1.390 . S
C265 H269 0.950 . S
H266 C262 0.950 . S
C267 C265 1.390 . S
C267 C268 1.387 1_655 S
C267 H270 0.950 . S
C268 C267 1.387 1_455 S
C268 C271 1.387 . S
H269 C265 0.950 . S
H270 C267 0.950 . S
C271 C262 1.390 . S
C271 H264 0.950 . S
C271 C268 1.387 . S
C272 C273 1.388 . S
C272 H276 0.950 . S
C272 C281 1.390 . S
C273 C272 1.388 . S
C273 C275 1.387 1_545 S
H274 C281 0.950 . S
C275 C273 1.387 1_565 S
C275 C277 1.390 . S
C275 H279 0.950 . S
H276 C272 0.950 . S
C277 C275 1.390 . S
C277 C278 1.378 1_565 S
C277 H280 0.950 . S
C278 C277 1.378 1_545 S
C278 C281 1.394 . S
H279 C275 0.950 . S
H280 C277 0.950 . S
C281 C272 1.390 . S
C281 H274 0.950 . S
C281 C278 1.394 . S
C282 C283 1.387 . S
C282 H286 0.950 . S
C282 C291 1.390 . S
C283 C282 1.387 . S
C283 C285 1.387 1_556 S
H284 C291 0.950 . S
C285 C283 1.387 1_554 S
C285 C287 1.390 1_554 S
C285 H289 0.950 . S
H286 C282 0.950 . S
C287 C285 1.390 1_556 S
C287 C288 1.387 . S
C287 H290 0.950 1_556 S
C288 C287 1.387 . S
C288 C291 1.387 . S
H289 C285 0.950 . S
H290 C287 0.950 1_554 S
C291 C282 1.390 . S
C291 H284 0.950 . S
C291 C288 1.387 . S
C292 C293 1.387 . S
C292 H296 0.950 . S
C292 C301 1.390 . S
C293 C292 1.387 . S
C293 C295 1.387 . S
H294 C301 0.950 . S
C295 C293 1.387 . S
C295 C297 1.390 . S
C295 H299 0.950 . S
H296 C292 0.950 . S
C297 C295 1.390 . S
C297 C298 1.387 . S
C297 H300 0.950 . S
C298 C297 1.387 . S
C298 C301 1.387 . S
H299 C295 0.950 . S
H300 C297 0.950 . S
C301 C292 1.390 . S
C301 H294 0.950 . S
C301 C298 1.387 . S
C302 C303 1.402 . S
C302 H306 0.950 . S
C302 C311 1.390 . S
C303 C302 1.402 . S
C303 C305 1.373 1_655 S
H304 C311 0.950 . S
C305 C303 1.373 1_455 S
C305 C307 1.390 . S
C305 H309 0.950 . S
H306 C302 0.950 . S
C307 C305 1.390 . S
C307 C308 1.387 1_455 S
C307 H310 0.950 . S
C308 C307 1.387 1_655 S
C308 C311 1.387 . S
H309 C305 0.950 . S
H310 C307 0.950 . S
C311 C302 1.390 . S
C311 H304 0.950 . S
C311 C308 1.387 . S
C312 C313 1.387 . S
C312 H316 0.950 . S
C312 C321 1.390 . S
C313 C312 1.387 . S
C313 C315 1.387 . S
H314 C321 0.950 . S
C315 C313 1.387 . S
C315 C317 1.390 . S
C315 H319 0.950 . S
H316 C312 0.950 . S
C317 C315 1.390 . S
C317 C318 1.387 . S
C317 H320 0.950 . S
C318 C317 1.387 . S
C318 C321 1.387 . S
H319 C315 0.950 . S
H320 C317 0.950 . S
C321 C312 1.390 . S
C321 H314 0.950 . S
C321 C318 1.387 . S
C322 C323 1.387 1_565 S
C322 H326 0.950 . S
C322 C331 1.390 . S
C323 C322 1.387 1_545 S
C323 C325 1.387 1_545 S
H324 C331 0.950 . S
C325 C323 1.387 1_565 S
C325 C327 1.390 . S
C325 H329 0.950 1_565 S
H326 C322 0.950 . S
C327 C325 1.390 . S
C327 C328 1.387 . S
C327 H330 0.950 . S
C328 C327 1.387 . S
C328 C331 1.387 . S
H329 C325 0.950 1_545 S
H330 C327 0.950 . S
C331 C322 1.390 . S
C331 H324 0.950 . S
C331 C328 1.387 . S
C332 C333 1.387 . S
C332 H336 0.950 . S
C332 C341 1.390 . S
C333 C332 1.387 . S
C333 C335 1.387 . S
H334 C341 0.950 . S
C335 C333 1.387 . S
C335 C337 1.390 . S
C335 H339 0.950 1_556 S
H336 C332 0.950 . S
C337 C335 1.390 . S
C337 C338 1.387 . S
C337 H340 0.950 . S
C338 C337 1.387 . S
C338 C341 1.387 . S
H339 C335 0.950 1_554 S
H340 C337 0.950 . S
C341 C332 1.390 . S
C341 H334 0.950 . S
C341 C338 1.387 . S
C342 C343 1.387 . S
C342 H346 0.950 . S
C342 C351 1.390 . S
C343 C342 1.387 . S
C343 C345 1.387 . S
H344 C351 0.950 . S
C345 C343 1.387 . S
C345 C347 1.390 . S
C345 H349 0.950 . S
H346 C342 0.950 . S
C347 C345 1.390 . S
C347 C348 1.387 . S
C347 H350 0.950 . S
C348 C347 1.387 . S
C348 C351 1.387 . S
H349 C345 0.950 . S
H350 C347 0.950 . S
C351 C342 1.390 . S
C351 H344 0.950 . S
C351 C348 1.387 . S
C352 C353 1.387 . S
C352 H356 0.950 . S
C352 C361 1.390 . S
C353 C352 1.387 . S
C353 C355 1.387 . S
H354 C361 0.950 . S
C355 C353 1.387 . S
C355 C357 1.390 . S
C355 H359 0.950 . S
H356 C352 0.950 . S
C357 C355 1.390 . S
C357 C358 1.387 . S
C357 H360 0.950 . S
C358 C357 1.387 . S
C358 C361 1.387 . S
H359 C355 0.950 . S
H360 C357 0.950 . S
C361 C352 1.390 . S
C361 H354 0.950 . S
C361 C358 1.387 . S
C362 C363 1.387 . S
C362 H366 0.950 . S
C362 C371 1.390 1_565 S
C363 C362 1.387 . S
C363 C365 1.387 1_565 S
H364 C371 0.950 1_565 S
C365 C363 1.387 1_545 S
C365 C367 1.390 . S
C365 H369 0.950 . S
H366 C362 0.950 . S
C367 C365 1.390 . S
C367 C368 1.387 . S
C367 H370 0.950 . S
C368 C367 1.387 . S
C368 C371 1.387 . S
H369 C365 0.950 . S
H370 C367 0.950 . S
C371 C362 1.390 1_545 S
C371 H364 0.950 1_545 S
C371 C368 1.387 . S
C372 C373 1.387 . S
C372 H376 0.950 . S
C372 C381 1.390 . S
C373 C372 1.387 . S
C373 C375 1.387 . S
H374 C381 0.950 . S
C375 C373 1.387 . S
C375 C377 1.390 . S
C375 H379 0.950 1_556 S
H376 C372 0.950 . S
C377 C375 1.390 . S
C377 C378 1.387 . S
C377 H380 0.950 1_556 S
C378 C377 1.387 . S
C378 C381 1.387 . S
H379 C375 0.950 1_554 S
H380 C377 0.950 1_554 S
C381 C372 1.390 . S
C381 H374 0.950 . S
C381 C378 1.387 . S
C382 C383 1.387 . S
C382 H386 0.950 . S
C382 C391 1.390 . S
C383 C382 1.387 . S
C383 C385 1.387 . S
H384 C391 0.950 . S
C385 C383 1.387 . S
C385 C387 1.390 . S
C385 H389 0.950 . S
H386 C382 0.950 . S
C387 C385 1.390 . S
C387 C388 1.387 . S
C387 H390 0.950 . S
C388 C387 1.387 . S
C388 C391 1.387 . S
H389 C385 0.950 . S
H390 C387 0.950 . S
C391 C382 1.390 . S
C391 H384 0.950 . S
C391 C388 1.387 . S
C392 C393 1.387 1_556 S
C392 H396 0.950 1_455 S
C392 C401 1.390 . S
C393 C392 1.387 1_554 S
C393 C395 1.387 . S
H394 C401 0.950 . S
C395 C393 1.387 . S
C395 C397 1.390 . S
C395 H399 0.950 . S
H396 C392 0.950 1_655 S
C397 C395 1.390 . S
C397 C398 1.387 . S
C397 H400 0.950 . S
C398 C397 1.387 . S
C398 C401 1.387 1_554 S
H399 C395 0.950 . S
H400 C397 0.950 . S
C401 C392 1.390 . S
C401 H394 0.950 . S
C401 C398 1.387 1_556 S
C402 C403 1.387 . S
C402 H406 0.950 . S
C402 C411 1.390 1_554 S
C403 C402 1.387 . S
C403 C405 1.387 1_545 S
H404 C411 0.950 . S
C405 C403 1.387 1_565 S
C405 C407 1.390 . S
C405 H409 0.950 . S
H406 C402 0.950 . S
C407 C405 1.390 . S
C407 C408 1.387 1_564 S
C407 H410 0.950 1_554 S
C408 C407 1.387 1_546 S
C408 C411 1.387 . S
H409 C405 0.950 . S
H410 C407 0.950 1_556 S
C411 C402 1.390 1_556 S
C411 H404 0.950 . S
C411 C408 1.387 . S
C412 C413 1.387 . S
C412 H416 0.950 . S
C412 C421 1.390 . S
C413 C412 1.387 . S
C413 C415 1.387 . S
H414 C421 0.950 . S
C415 C413 1.387 . S
C415 C417 1.390 . S
C415 H419 0.950 . S
H416 C412 0.950 . S
C417 C415 1.390 . S
C417 C418 1.387 . S
C417 H420 0.950 . S
C418 C417 1.387 . S
C418 C421 1.387 . S
H419 C415 0.950 . S
H420 C417 0.950 . S
C421 C412 1.390 . S
C421 H414 0.950 . S
C421 C418 1.387 . S
C422 C423 1.387 . S
C422 H426 0.950 . S
C422 C431 1.390 . S
C423 C422 1.387 . S
C423 C425 1.387 1_556 S
H424 C431 0.950 . S
C425 C423 1.387 1_554 S
C425 C427 1.390 1_554 S
C425 H429 0.950 . S
H426 C422 0.950 . S
C427 C425 1.390 1_556 S
C427 C428 1.387 . S
C427 H430 0.950 1_556 S
C428 C427 1.387 . S
C428 C431 1.387 . S
H429 C425 0.950 . S
H430 C427 0.950 1_554 S
C431 C422 1.390 . S
C431 H424 0.950 . S
C431 C428 1.387 . S
C432 C433 1.387 . S
C432 H436 0.950 . S
C432 C441 1.390 . S
C433 C432 1.387 . S
C433 C435 1.387 . S
H434 C441 0.950 . S
C435 C433 1.387 . S
C435 C437 1.390 . S
C435 H439 0.950 1_655 S
H436 C432 0.950 . S
C437 C435 1.390 . S
C437 C438 1.387 . S
C437 H440 0.950 . S
C438 C437 1.387 . S
C438 C441 1.387 . S
H439 C435 0.950 1_455 S
H440 C437 0.950 . S
C441 C432 1.390 . S
C441 H434 0.950 . S
C441 C438 1.387 . S
C442 C443 1.387 . S
C442 H446 0.950 . S
C442 C451 1.390 . S
C443 C442 1.387 . S
C443 C445 1.387 1_565 S
H444 C451 0.950 . S
C445 C443 1.387 1_545 S
C445 C447 1.390 . S
C445 H449 0.950 . S
H446 C442 0.950 . S
C447 C445 1.390 . S
C447 C448 1.387 1_545 S
C447 H450 0.950 . S
C448 C447 1.387 1_565 S
C448 C451 1.387 . S
H449 C445 0.950 . S
H450 C447 0.950 . S
C451 C442 1.390 . S
C451 H444 0.950 . S
C451 C448 1.387 . S
C452 C453 1.387 . S
C452 H456 0.950 . S
C452 C461 1.390 . S
C453 C452 1.387 . S
C453 C455 1.387 . S
H454 C461 0.950 . S
C455 C453 1.387 . S
C455 C457 1.390 . S
C455 H459 0.950 . S
H456 C452 0.950 . S
C457 C455 1.390 . S
C457 C458 1.387 . S
C457 H460 0.950 . S
C458 C457 1.387 . S
C458 C461 1.387 . S
H459 C455 0.950 . S
H460 C457 0.950 . S
C461 C452 1.390 . S
C461 H454 0.950 . S
C461 C458 1.387 . S
C462 C463 1.387 . S
C462 H466 0.950 . S
C462 C471 1.390 . S
C463 C462 1.387 . S
C463 C465 1.387 . S
H464 C471 0.950 . S
C465 C463 1.387 . S
C465 C467 1.390 . S
C465 H469 0.950 . S
H466 C462 0.950 . S
C467 C465 1.390 . S
C467 C468 1.387 . S
C467 H470 0.950 . S
C468 C467 1.387 . S
C468 C471 1.387 . S
H469 C465 0.950 . S
H470 C467 0.950 . S
C471 C462 1.390 . S
C471 H464 0.950 . S
C471 C468 1.387 . S
C233 C61 2.070 1_545 S
C238 C95 2.344 . S
C248 C135 1.736 . S
C243 C70 1.713 . S
C258 C154 2.375 . S
C253 C43 2.115 . S
C268 C215 1.615 1_455 S
C263 C52 1.426 1_455 S
C278 C74 2.348 1_554 S
C273 C25 2.068 1_545 S
C283 C34 1.710 . S
C288 C114 1.739 . S
C293 C7 2.121 . S
C298 C175 2.374 1_554 S
C303 C16 1.432 . S
C308 C194 1.617 1_654 S
C318 C76 1.232 . S
C313 C50 1.369 . S
C328 C116 0.600 . S
C323 C59 0.562 1_545 S
C338 C172 1.157 . S
C333 C67 1.063 . S
C343 C41 0.792 . S
C348 C196 0.784 . S
C353 C14 1.373 1_455 S
C358 C97 1.236 . S
C368 C137 0.605 . S
C363 C23 0.559 . S
C378 C183 1.157 . S
C373 C31 1.056 . S
C383 C5 0.794 . S
C388 C217 0.787 . S
C393 C49 1.756 1_455 S
C398 C92 1.974 1_554 S
C403 C58 2.368 1_545 S
C408 C132 2.654 . S
C418 C156 1.855 . S
C413 C68 1.938 . S
C428 C212 2.626 . S
C423 C40 2.365 1_556 S
C433 C13 1.754 . S
C438 C103 1.980 . S
C448 C143 2.653 . S
C443 C22 2.366 . S
C458 C177 1.853 . S
C453 C32 1.947 . S
C463 C4 2.365 . S
C468 C223 2.628 . S
