# Generated by pormake.
# Topology tsx, (6,3)-cn, num edge types: 1
# Building blocks:
#     Node 0, Type 0, BuildingBlock: CIFDUS_clean_sbu_1, # of connection points: 6
#     Node 1, Type 0, BuildingBlock: CIFDUS_clean_sbu_1, # of connection points: 6
#     Node 2, Type 1, BuildingBlock: ESEHIV_clean_linker_0, # of connection points: 3
#     Node 3, Type 1, BuildingBlock: ESEHIV_clean_linker_0, # of connection points: 3
#     Node 4, Type 1, BuildingBlock: ESEHIV_clean_linker_0, # of connection points: 3
#     Node 5, Type 1, BuildingBlock: ESEHIV_clean_linker_0, # of connection points: 3
#     Edge 6, Type (0, 1), BuildingBlock: EZIPEK_clean_linker_0, # of connection points: 2
#     Edge 7, Type (0, 1), BuildingBlock: EZIPEK_clean_linker_0, # of connection points: 2
#     Edge 8, Type (0, 1), BuildingBlock: EZIPEK_clean_linker_0, # of connection points: 2
#     Edge 9, Type (0, 1), BuildingBlock: EZIPEK_clean_linker_0, # of connection points: 2
#     Edge 10, Type (0, 1), BuildingBlock: EZIPEK_clean_linker_0, # of connection points: 2
#     Edge 11, Type (0, 1), BuildingBlock: EZIPEK_clean_linker_0, # of connection points: 2
#     Edge 12, Type (0, 1), BuildingBlock: EZIPEK_clean_linker_0, # of connection points: 2
#     Edge 13, Type (0, 1), BuildingBlock: EZIPEK_clean_linker_0, # of connection points: 2
#     Edge 14, Type (0, 1), BuildingBlock: EZIPEK_clean_linker_0, # of connection points: 2
#     Edge 15, Type (0, 1), BuildingBlock: EZIPEK_clean_linker_0, # of connection points: 2
#     Edge 16, Type (0, 1), BuildingBlock: EZIPEK_clean_linker_0, # of connection points: 2
#     Edge 17, Type (0, 1), BuildingBlock: EZIPEK_clean_linker_0, # of connection points: 2
# Relax obj value: 0.128
# Max RMSD: 0.155
# Mean RMSD: 0.117
data_MOF--net-tsx--node1-CIFDUS_clean_sbu_1--node2-ESEHIV_clean_linker_0--edge1-EZIPEK_clean_linker_0
_symmetry_space_group_name_H-M    P1
_symmetry_Int_Tables_number       1
_symmetry_cell_setting            triclinic
loop_
_symmetry_equiv_pos_as_xyz
'x, y, z'
_cell_length_a     12.270744
_cell_length_b     14.637076
_cell_length_c     25.7707
_cell_angle_alpha  97.014586
_cell_angle_beta   90.417252
_cell_angle_gamma 91.541505
loop_
_atom_site_label
_atom_site_type_symbol
_atom_site_fract_x
_atom_site_fract_y
_atom_site_fract_z
_atom_type_partial_charge
O0 O 0.93719 0.0928 0.9779 0.0
Mn1 Mn 0.05047 0.98315 0.98221 0.0
O2 O 0.79526 0.02712 0.93017 0.0
Mn3 Mn 0.86145 0.91736 0.91098 0.0
O4 O 0.14495 0.86134 0.98002 0.0
O5 O 0.17079 0.09231 0.00218 0.0
Mn6 Mn 0.2522 0.99966 0.01975 0.0
O7 O 0.02444 0.98435 0.06153 0.0
O8 O 0.30667 0.91318 0.96871 0.0
O9 O 0.08837 0.98764 0.90376 0.0
O10 O 0.95244 0.91955 0.85425 0.0
O11 O 0.34461 0.09318 0.03365 0.0
O12 O 0.19654 0.96144 0.08099 0.0
C13 C 0.85918 0.81121 0.95984 0.0
C14 C 0.84192 0.09713 0.95578 0.0
C15 C 0.24119 0.8457 0.96346 0.0
C16 C 0.26224 0.13793 0.0195 0.0
C17 C 0.09719 0.96818 0.09489 0.0
C18 C 0.04482 0.96101 0.85903 0.0
O19 O 0.93012 0.88097 0.96571 0.0
O20 O 0.78928 0.81256 0.92196 0.0
O21 O 0.42166 0.72115 0.50894 0.0
Mn22 Mn 0.52596 0.60657 0.49936 0.0
O23 O 0.27928 0.67513 0.455 0.0
Mn24 Mn 0.32115 0.55521 0.43476 0.0
O25 O 0.62484 0.4866 0.48342 0.0
O26 O 0.65333 0.70144 0.5174 0.0
Mn27 Mn 0.75566 0.6276 0.53506 0.0
O28 O 0.5219 0.5853 0.57633 0.0
O29 O 0.79184 0.54406 0.47917 0.0
O30 O 0.54218 0.62774 0.42187 0.0
O31 O 0.41025 0.54336 0.37752 0.0
O32 O 0.82255 0.74019 0.54309 0.0
O33 O 0.70239 0.57602 0.59273 0.0
C34 C 0.31351 0.45545 0.48772 0.0
C35 C 0.33201 0.73711 0.48499 0.0
C36 C 0.72542 0.47651 0.47004 0.0
C37 C 0.72844 0.76671 0.52861 0.0
C38 C 0.60225 0.56599 0.6048 0.0
C39 C 0.49887 0.59022 0.37918 0.0
O40 O 0.39262 0.51743 0.48767 0.0
O41 O 0.23992 0.45738 0.45168 0.0
H42 H 0.94128 0.16418 0.31259 0.0
H43 H 0.13978 0.93515 0.33699 0.0
H44 H 0.02893 0.11384 0.46876 0.0
C45 C 0.98114 0.12343 0.33919 0.0
C46 C 0.97054 0.14679 0.3935 0.0
C47 C 0.0407 0.0467 0.31873 0.0
C48 C 0.09435 0.99455 0.35289 0.0
C49 C 0.09436 0.01992 0.40702 0.0
C50 C 0.0305 0.09524 0.42715 0.0
H51 H 0.93614 0.9854 0.65107 0.0
H52 H 0.21261 0.16895 0.65459 0.0
H53 H 0.95877 0.18766 0.54181 0.0
C54 C 0.97742 0.04103 0.63429 0.0
C55 C 0.93015 0.07874 0.59186 0.0
C56 C 0.07462 0.07645 0.65831 0.0
C57 C 0.13633 0.143 0.63616 0.0
C58 C 0.09631 0.18141 0.59292 0.0
C59 C 0.99122 0.15166 0.57203 0.0
H60 H 0.40022 0.54088 0.80617 0.0
H61 H 0.61679 0.3145 0.79814 0.0
H62 H 0.49207 0.43003 0.94608 0.0
C63 C 0.43937 0.48865 0.82574 0.0
C64 C 0.43393 0.49357 0.8798 0.0
C65 C 0.50735 0.42676 0.79716 0.0
C66 C 0.56337 0.36081 0.82128 0.0
C67 C 0.56249 0.36286 0.87587 0.0
C68 C 0.49427 0.42843 0.90467 0.0
H69 H 0.45315 0.46515 0.17794 0.0
H70 H 0.66873 0.68057 0.14759 0.0
H71 H 0.53814 0.49182 0.02038 0.0
C72 C 0.48921 0.50241 0.1486 0.0
C73 C 0.46817 0.47837 0.09503 0.0
C74 C 0.55835 0.57656 0.16636 0.0
C75 C 0.62155 0.6198 0.13194 0.0
C76 C 0.63148 0.58044 0.07997 0.0
C77 C 0.54567 0.51505 0.06083 0.0
C78 C 0.27745 0.26663 0.09303 0.0
C79 C 0.26775 0.23898 0.03836 0.0
C80 C 0.33394 0.39433 0.02465 0.0
C81 C 0.37532 0.40793 0.07655 0.0
N82 N 0.27602 0.40061 0.15657 0.0
N83 N 0.25707 0.28736 0.95287 0.0
C84 C 0.31647 0.357 0.11132 0.0
C85 C 0.2853 0.30673 0.00426 0.0
N86 N 0.24833 0.20747 0.12782 0.0
N87 N 0.32164 0.46911 -0.00085 0.0
H88 H 0.2201 0.22447 0.93822 0.0
H89 H 0.27447 0.33184 0.9252 0.0
H90 H 0.34719 0.535 0.01564 0.0
H91 H 0.27116 0.46638 0.96646 0.0
H92 H 0.26403 0.22252 0.16786 0.0
H93 H 0.21145 0.14318 0.1162 0.0
H94 H 0.22475 0.3676 0.18098 0.0
H95 H 0.27944 0.47232 0.16465 0.0
C96 C 0.3885 0.72683 0.96312 0.0
C97 C 0.28189 0.74912 0.94773 0.0
C98 C 0.26562 0.59233 0.89873 0.0
C99 C 0.37848 0.5775 0.90764 0.0
N100 N 0.5514 0.65216 0.93232 0.0
N101 N 0.12308 0.7031 0.89366 0.0
C102 C 0.44097 0.6503 0.93577 0.0
C103 C 0.22084 0.68142 0.91393 0.0
N104 N 0.44009 0.77708 0.00471 0.0
N105 N 0.20088 0.52099 0.87592 0.0
H106 H 0.08817 0.76709 0.90231 0.0
H107 H 0.0814 0.66049 0.86431 0.0
H108 H 0.23084 0.45562 0.8645 0.0
H109 H 0.11635 0.52409 0.87318 0.0
H110 H 0.51524 0.75866 0.01894 0.0
H111 H 0.40191 0.82888 0.0288 0.0
H112 H 0.5986 0.70978 0.94737 0.0
H113 H 0.59301 0.60248 0.90851 0.0
C114 C 0.80682 0.64603 0.96484 0.0
C115 C 0.85239 0.72941 -0.00967 0.0
C116 C 0.81595 0.66991 0.07326 0.0
C117 C 0.72772 0.61488 0.04854 0.0
N118 N 0.69989 0.50618 0.97418 0.0
N119 N 0.95336 0.78988 0.06664 0.0
C120 C 0.742 0.58859 -0.00532 0.0
C121 C 0.87267 0.73339 0.04444 0.0
N122 N 0.82793 0.62321 0.91293 0.0
N123 N 0.8563 0.65005 0.11998 0.0
H124 H 0.00975 0.81821 0.04301 0.0
H125 H 0.9675 0.80209 0.10677 0.0
H126 H 0.82799 0.59263 0.13673 0.0
H127 H 0.92498 0.68241 0.13864 0.0
H128 H 0.79888 0.56458 0.88987 0.0
H129 H 0.88173 0.66288 0.89312 0.0
H130 H 0.70723 0.48044 0.93523 0.0
H131 H 0.70723 0.48044 0.93523 0.0
C132 C 0.66742 0.18287 0.96187 0.0
C133 C 0.78151 0.18519 0.9533 0.0
C134 C 0.75594 0.30772 0.89683 0.0
C135 C 0.63945 0.30155 0.90266 0.0
N136 N 0.48719 0.21418 0.93067 0.0
N137 N 0.9358 0.27265 0.92845 0.0
C138 C 0.59614 0.23527 0.93352 0.0
C139 C 0.82613 0.25437 0.92537 0.0
N140 N 0.62754 0.12977 -0.00221 0.0
N141 N 0.80059 0.36299 0.86307 0.0
H142 H 0.98731 0.23871 0.95156 0.0
H143 H 0.97379 0.3284 0.91375 0.0
H144 H 0.75657 0.41024 0.84518 0.0
H145 H 0.88129 0.35937 0.85095 0.0
H146 H 0.54721 0.13149 0.01041 0.0
H147 H 0.67868 0.09176 0.01905 0.0
H148 H 0.45122 0.15982 0.94744 0.0
H149 H 0.43516 0.24337 0.90559 0.0
C150 C 0.69668 0.90851 0.5897 0.0
C151 C 0.70918 0.86762 0.53746 0.0
C152 C 0.79542 0.01209 0.51738 0.0
C153 C 0.81951 0.03613 0.57126 0.0
N154 N 0.73456 0.04145 0.65498 0.0
N155 N 0.74062 0.88951 0.44836 0.0
C156 C 0.749 0.99586 0.60624 0.0
C157 C 0.74712 0.92333 0.50003 0.0
N158 N 0.64172 0.86029 0.62375 0.0
N159 N 0.80477 0.07707 0.48438 0.0
H160 H 0.7028 0.82567 0.43597 0.0
H161 H 0.77437 0.92311 0.41865 0.0
H162 H 0.81678 0.14619 0.49865 0.0
H163 H 0.78121 0.06469 0.44532 0.0
H164 H 0.63796 0.8806 0.66381 0.0
H165 H 0.59988 0.79851 0.6108 0.0
H166 H 0.68108 0.01926 0.68229 0.0
H167 H 0.77171 0.10606 0.66605 0.0
C168 C 0.87418 0.36426 0.47784 0.0
C169 C 0.77415 0.38345 0.45403 0.0
C170 C 0.79058 0.23643 0.39654 0.0
C171 C 0.90062 0.22771 0.41425 0.0
N172 N 0.05302 0.30481 0.46195 0.0
N173 N 0.64074 0.33877 0.38597 0.0
C174 C 0.94381 0.29741 0.45229 0.0
C175 C 0.73286 0.31956 0.41208 0.0
N176 N 0.90226 0.40845 0.52595 0.0
N177 N 0.73897 0.16424 0.36686 0.0
H178 H 0.59557 0.39717 0.39684 0.0
H179 H 0.6139 0.30019 0.35136 0.0
H180 H 0.77507 0.10094 0.35735 0.0
H181 H 0.65643 0.16354 0.35701 0.0
H182 H 0.97064 0.39151 0.54634 0.0
H183 H 0.85025 0.45274 0.548 0.0
H184 H 0.08695 0.36123 0.48541 0.0
H185 H 0.1096 0.26288 0.44146 0.0
C186 C 0.31478 0.29664 0.51447 0.0
C187 C 0.29414 0.39136 0.52807 0.0
C188 C 0.15701 0.34996 0.59177 0.0
C189 C 0.16565 0.2554 0.57188 0.0
N190 N 0.27812 0.13826 0.53252 0.0
N191 N 0.20791 0.51034 0.58405 0.0
C192 C 0.25312 0.22888 0.53844 0.0
C193 C 0.22107 0.41847 0.56931 0.0
N194 N 0.38922 0.27218 0.47651 0.0
N195 N 0.08789 0.3738 0.6322 0.0
H196 H 0.25744 0.56043 0.56963 0.0
H197 H 0.1484 0.53738 0.60955 0.0
H198 H 0.03657 0.32589 0.64731 0.0
H199 H 0.08334 0.43979 0.65206 0.0
H200 H 0.40013 0.20498 0.45949 0.0
H201 H 0.43873 0.3211 0.46102 0.0
H202 H 0.34749 0.11179 0.51382 0.0
H203 H 0.34749 0.11179 0.51382 0.0
C204 C 0.3406 0.8939 0.4535 0.0
C205 C 0.28952 0.83241 0.48514 0.0
C206 C 0.11442 0.90582 0.47405 0.0
C207 C 0.16342 0.96569 0.44092 0.0
N208 N 0.32832 0.03131 0.40933 0.0
N209 N 0.13855 0.80032 0.53895 0.0
C210 C 0.27855 0.96448 0.43418 0.0
C211 C 0.18021 0.84659 0.50036 0.0
N212 N 0.44675 0.88133 0.43941 0.0
N213 N 0.00391 0.89837 0.47626 0.0
H214 H 0.186 0.75621 0.55806 0.0
H215 H 0.06231 0.81313 0.55541 0.0
H216 H 0.95384 0.93594 0.45466 0.0
H217 H 0.96291 0.84864 0.49489 0.0
H218 H 0.48547 0.91494 0.41103 0.0
H219 H 0.49543 0.83389 0.45493 0.0
H220 H 0.41245 0.0394 0.40629 0.0
H221 H 0.28541 0.08501 0.39645 0.0
C222 C 0.16018 0.96237 0.1873 0.0
C223 C 0.07132 0.96643 0.15201 0.0
C224 C 0.95479 0.99958 0.22922 0.0
C225 C 0.04932 0.02064 0.26108 0.0
N226 N 0.24578 0.04017 0.26511 0.0
N227 N 0.87474 0.98207 0.14272 0.0
C228 C 0.15328 0.00785 0.23849 0.0
C229 C 0.96557 0.9834 0.17373 0.0
N230 N 0.24871 0.91078 0.17343 0.0
N231 N 0.85569 0.98875 0.25186 0.0
H232 H 0.87076 0.95286 0.10394 0.0
H233 H 0.80128 0.0094 0.15644 0.0
H234 H 0.84608 0.99316 0.29221 0.0
H235 H 0.78576 0.96471 0.23077 0.0
H236 H 0.3133 0.90503 0.19922 0.0
H237 H 0.24906 0.86306 0.13985 0.0
H238 H 0.32253 0.03659 0.24792 0.0
H239 H 0.24412 0.07963 0.30161 0.0
C240 C 0.08733 0.08915 0.80613 0.0
C241 C 0.09161 0.99387 0.81144 0.0
C242 C 0.1285 0.96101 0.7176 0.0
C243 C 0.10075 0.05245 0.71126 0.0
N244 N 0.04093 0.20182 0.74949 0.0
N245 N 0.12355 0.83866 0.77353 0.0
C246 C 0.07925 0.11677 0.75555 0.0
C247 C 0.11588 0.92968 0.76752 0.0
N248 N 0.0873 0.15368 0.84911 0.0
N249 N 0.16571 0.90462 0.67568 0.0
H250 H 0.12134 0.8154 0.81021 0.0
H251 H 0.1287 0.78637 0.7425 0.0
H252 H 0.17592 0.92699 0.63902 0.0
H253 H 0.19478 0.8391 0.67805 0.0
H254 H 0.09806 0.22396 0.84687 0.0
H255 H 0.08774 0.13769 0.88723 0.0
H256 H 0.00973 0.24628 0.78014 0.0
H257 H 0.03039 0.22541 0.71338 0.0
C258 C 0.52467 0.44041 0.6518 0.0
C259 C 0.57967 0.52739 0.65339 0.0
C260 C 0.61202 0.53138 0.74672 0.0
C261 C 0.54311 0.45179 0.74643 0.0
N262 N 0.42451 0.33473 0.70046 0.0
N263 N 0.66419 0.66192 0.70272 0.0
C264 C 0.49695 0.40701 0.69943 0.0
C265 C 0.62093 0.57443 0.70091 0.0
N266 N 0.50378 0.38792 0.60505 0.0
N267 N 0.66856 0.5659 0.79102 0.0
H268 H 0.67174 0.6964 0.66982 0.0
H269 H 0.6838 0.70354 0.73742 0.0
H270 H 0.66181 0.53755 0.82599 0.0
H271 H 0.72904 0.61741 0.79197 0.0
H272 H 0.4748 0.31991 0.60216 0.0
H273 H 0.52491 0.40918 0.56919 0.0
H274 H 0.37849 0.30655 0.66797 0.0
H275 H 0.40544 0.30688 0.73479 0.0
C276 C 0.47674 0.67048 0.30105 0.0
C277 C 0.54092 0.61481 0.32974 0.0
C278 C 0.64122 0.55748 0.25233 0.0
C279 C 0.56888 0.60481 0.22264 0.0
N280 N 0.4401 0.72452 0.2174 0.0
N281 N 0.70726 0.53503 0.33855 0.0
C282 C 0.49464 0.66847 0.24678 0.0
C283 C 0.63174 0.56861 0.30728 0.0
N284 N 0.39624 0.72157 0.32567 0.0
N285 N 0.71372 0.49784 0.22774 0.0
H286 H 0.70218 0.5457 0.37908 0.0
H287 H 0.7796 0.50565 0.32498 0.0
H288 H 0.72413 0.48962 0.18733 0.0
H289 H 0.75962 0.45316 0.2469 0.0
H290 H 0.33858 0.75669 0.30664 0.0
H291 H 0.38609 0.72748 0.36608 0.0
H292 H 0.38921 0.77626 0.23296 0.0
H293 H 0.45177 0.72339 0.17727 0.0
loop_
_geom_bond_atom_site_label_1
_geom_bond_atom_site_label_2
_geom_bond_distance
_geom_bond_site_symmetry_2
_ccdc_geom_bond_type
O0 Mn1 2.163 1_654 S
O0 C14 1.244 1_554 S
Mn1 O0 2.163 1_456 S
Mn1 O4 2.160 1_545 S
Mn1 O5 2.220 1_556 S
Mn1 O7 2.154 1_556 S
Mn1 O9 2.169 . S
Mn1 O19 2.222 1_445 S
O2 Mn3 2.087 1_545 S
O2 C14 1.256 . S
Mn3 O2 2.087 1_565 S
Mn3 O10 2.089 1_565 S
Mn3 O19 2.290 . S
Mn3 O20 2.251 . S
O4 Mn1 2.160 1_565 S
O4 C15 1.239 1_556 S
O5 Mn1 2.220 1_554 S
O5 Mn6 2.290 . S
O5 C16 1.278 . S
Mn6 O5 2.290 . S
Mn6 O8 2.089 1_545 S
Mn6 O11 2.251 . S
Mn6 O12 2.087 . S
O7 Mn1 2.154 1_554 S
O7 C17 1.244 . S
O8 Mn6 2.089 1_565 S
O8 C15 1.256 . S
O9 Mn1 2.169 . S
O9 C18 1.239 . S
O10 Mn3 2.089 1_545 S
O10 C18 1.256 1_655 S
O11 Mn6 2.251 . S
O11 C16 1.241 . S
O12 Mn6 2.087 . S
O12 C17 1.256 . S
C13 O19 1.278 1_554 S
C13 O20 1.241 1_554 S
C14 O0 1.244 1_556 S
C14 O2 1.256 . S
C15 O4 1.239 1_554 S
C15 O8 1.256 . S
C16 O5 1.278 . S
C16 O11 1.241 . S
C17 O7 1.244 . S
C17 O12 1.256 . S
C18 O9 1.239 . S
C18 O10 1.256 1_455 S
O19 Mn1 2.222 1_665 S
O19 Mn3 2.290 . S
O19 C13 1.278 1_556 S
O20 Mn3 2.251 . S
O20 C13 1.241 1_556 S
O21 Mn22 2.163 . S
O21 C35 1.244 . S
Mn22 O21 2.163 . S
Mn22 O25 2.160 . S
Mn22 O26 2.221 . S
Mn22 O28 2.163 . S
Mn22 O30 2.160 . S
Mn22 O40 2.221 . S
O23 Mn24 2.087 . S
O23 C35 1.256 . S
Mn24 O23 2.087 . S
Mn24 O31 2.089 . S
Mn24 O40 2.290 . S
Mn24 O41 2.251 . S
O25 Mn22 2.160 . S
O25 C36 1.239 . S
O26 Mn22 2.221 . S
O26 Mn27 2.290 . S
O26 C37 1.278 . S
Mn27 O26 2.290 . S
Mn27 O29 2.089 . S
Mn27 O32 2.251 . S
Mn27 O33 2.087 . S
O28 Mn22 2.163 . S
O28 C38 1.244 . S
O29 Mn27 2.089 . S
O29 C36 1.256 . S
O30 Mn22 2.160 . S
O30 C39 1.239 . S
O31 Mn24 2.089 . S
O31 C39 1.256 . S
O32 Mn27 2.251 . S
O32 C37 1.241 . S
O33 Mn27 2.087 . S
O33 C38 1.256 . S
C34 O40 1.278 . S
C34 O41 1.241 . S
C35 O21 1.244 . S
C35 O23 1.256 . S
C36 O25 1.239 . S
C36 O29 1.256 . S
C37 O26 1.278 . S
C37 O32 1.241 . S
C38 O28 1.244 . S
C38 O33 1.256 . S
C39 O30 1.239 . S
C39 O31 1.256 . S
O40 Mn22 2.221 . S
O40 Mn24 2.290 . S
O40 C34 1.278 . S
O41 Mn24 2.251 . S
O41 C34 1.241 . S
H42 C45 0.931 . S
H43 C48 0.928 . S
H44 C50 0.930 . S
C45 H42 0.931 . S
C45 C46 1.413 . S
C45 C47 1.360 1_645 S
C46 C45 1.413 . S
C46 C50 1.429 1_655 S
C47 C45 1.360 1_465 S
C47 C48 1.372 . S
C48 H43 0.928 . S
C48 C47 1.372 . S
C48 C49 1.404 . S
C49 C48 1.404 . S
C49 C50 1.391 1_565 S
C50 H44 0.930 . S
C50 C46 1.429 1_455 S
C50 C49 1.391 1_545 S
H51 C54 0.931 1_565 S
H52 C57 0.928 . S
H53 C59 0.930 . S
C54 H51 0.931 1_545 S
C54 C55 1.413 . S
C54 C56 1.360 1_655 S
C55 C54 1.413 . S
C55 C59 1.429 . S
C56 C54 1.360 1_455 S
C56 C57 1.372 . S
C57 H52 0.928 . S
C57 C56 1.372 . S
C57 C58 1.404 . S
C58 C57 1.404 . S
C58 C59 1.391 1_455 S
C59 H53 0.930 . S
C59 C55 1.429 . S
C59 C58 1.391 1_655 S
H60 C63 0.931 . S
H61 C66 0.928 . S
H62 C68 0.930 1_554 S
C63 H60 0.931 . S
C63 C64 1.413 . S
C63 C65 1.360 . S
C64 C63 1.413 . S
C64 C68 1.429 . S
C65 C63 1.360 . S
C65 C66 1.372 . S
C66 H61 0.928 . S
C66 C65 1.372 . S
C66 C67 1.404 . S
C67 C66 1.404 . S
C67 C68 1.391 . S
C68 H62 0.930 1_556 S
C68 C64 1.429 . S
C68 C67 1.391 . S
H69 C72 0.931 . S
H70 C75 0.928 . S
H71 C77 0.930 . S
C72 H69 0.931 . S
C72 C73 1.413 . S
C72 C74 1.360 . S
C73 C72 1.413 . S
C73 C77 1.429 . S
C74 C72 1.360 . S
C74 C75 1.372 . S
C75 H70 0.928 . S
C75 C74 1.372 . S
C75 C76 1.404 . S
C76 C75 1.404 . S
C76 C77 1.391 . S
C77 H71 0.930 . S
C77 C73 1.429 . S
C77 C76 1.391 . S
C78 C79 1.363 . S
C78 C84 1.379 . S
C78 N86 1.356 . S
C79 C78 1.363 . S
C79 C85 1.363 1_554 S
C80 C81 1.363 1_556 S
C80 C85 1.379 . S
C80 N87 1.356 . S
C81 C80 1.363 1_554 S
C81 C84 1.363 . S
N82 C84 1.356 . S
N82 H94 0.984 . S
N82 H95 0.985 . S
N83 C85 1.356 . S
N83 H88 0.984 . S
N83 H89 0.985 . S
C84 C78 1.379 . S
C84 C81 1.363 . S
C84 N82 1.356 . S
C85 C79 1.363 1_556 S
C85 C80 1.379 . S
C85 N83 1.356 . S
N86 C78 1.356 . S
N86 H92 0.984 . S
N86 H93 0.984 . S
N87 C80 1.356 . S
N87 H90 0.984 . S
N87 H91 0.985 . S
H88 N83 0.984 . S
H89 N83 0.985 . S
H90 N87 0.984 . S
H91 N87 0.985 . S
H92 N86 0.984 . S
H93 N86 0.984 . S
H94 N82 0.984 . S
H95 N82 0.985 . S
C96 C97 1.363 1_554 S
C96 C102 1.379 . S
C96 N104 1.356 . S
C97 C96 1.363 1_556 S
C97 C103 1.363 . S
C98 C99 1.363 . S
C98 C103 1.379 . S
C98 N105 1.356 . S
C99 C98 1.363 . S
C99 C102 1.363 1_556 S
N100 C102 1.356 . S
N100 H112 0.984 . S
N100 H113 0.985 . S
N101 C103 1.356 . S
N101 H106 0.984 . S
N101 H107 0.985 . S
C102 C96 1.379 . S
C102 C99 1.363 1_554 S
C102 N100 1.356 . S
C103 C97 1.363 . S
C103 C98 1.379 . S
C103 N101 1.356 . S
N104 C96 1.356 . S
N104 H110 0.984 . S
N104 H111 0.984 . S
N105 C98 1.356 . S
N105 H108 0.984 . S
N105 H109 0.985 . S
H106 N101 0.984 . S
H107 N101 0.985 . S
H108 N105 0.984 . S
H109 N105 0.985 . S
H110 N104 0.984 . S
H111 N104 0.984 . S
H112 N100 0.984 . S
H113 N100 0.985 . S
C114 C115 1.363 1_556 S
C114 C120 1.379 1_556 S
C114 N122 1.356 . S
C115 C114 1.363 1_554 S
C115 C121 1.363 . S
C116 C117 1.363 . S
C116 C121 1.379 . S
C116 N123 1.356 . S
C117 C116 1.363 . S
C117 C120 1.363 . S
N118 C120 1.356 1_556 S
N118 H130 0.984 . S
N118 H131 0.985 1_556 S
N119 C121 1.356 . S
N119 H124 0.984 . S
N119 H125 0.985 . S
C120 C114 1.379 1_554 S
C120 C117 1.363 . S
C120 N118 1.356 1_554 S
C121 C115 1.363 . S
C121 C116 1.379 . S
C121 N119 1.356 . S
N122 C114 1.356 . S
N122 H128 0.984 . S
N122 H129 0.984 . S
N123 C116 1.356 . S
N123 H126 0.984 . S
N123 H127 0.985 . S
H124 N119 0.984 . S
H125 N119 0.985 . S
H126 N123 0.984 . S
H127 N123 0.985 . S
H128 N122 0.984 . S
H129 N122 0.984 . S
H130 N118 0.984 . S
H131 N118 0.985 1_554 S
C132 C133 1.363 . S
C132 C138 1.379 . S
C132 N140 1.356 1_556 S
C133 C132 1.363 . S
C133 C139 1.363 . S
C134 C135 1.363 . S
C134 C139 1.379 . S
C134 N141 1.356 . S
C135 C134 1.363 . S
C135 C138 1.363 . S
N136 C138 1.356 . S
N136 H148 0.984 . S
N136 H149 0.985 . S
N137 C139 1.356 . S
N137 H142 0.984 1_556 S
N137 H143 0.985 1_655 S
C138 C132 1.379 . S
C138 C135 1.363 . S
C138 N136 1.356 . S
C139 C133 1.363 . S
C139 C134 1.379 . S
C139 N137 1.356 . S
N140 C132 1.356 1_554 S
N140 H146 0.984 . S
N140 H147 0.984 . S
N141 C134 1.356 . S
N141 H144 0.984 . S
N141 H145 0.985 . S
H142 N137 0.984 1_554 S
H143 N137 0.985 1_455 S
H144 N141 0.984 . S
H145 N141 0.985 . S
H146 N140 0.984 . S
H147 N140 0.984 . S
H148 N136 0.984 . S
H149 N136 0.985 . S
C150 C151 1.363 . S
C150 C156 1.379 . S
C150 N158 1.356 . S
C151 C150 1.363 . S
C151 C157 1.363 . S
C152 C153 1.363 . S
C152 C157 1.379 . S
C152 N159 1.356 . S
C153 C152 1.363 . S
C153 C156 1.363 . S
N154 C156 1.356 . S
N154 H166 0.984 . S
N154 H167 0.985 1_565 S
N155 C157 1.356 . S
N155 H160 0.984 . S
N155 H161 0.985 . S
C156 C150 1.379 . S
C156 C153 1.363 . S
C156 N154 1.356 . S
C157 C151 1.363 . S
C157 C152 1.379 . S
C157 N155 1.356 . S
N158 C150 1.356 . S
N158 H164 0.984 . S
N158 H165 0.984 . S
N159 C152 1.356 . S
N159 H162 0.984 . S
N159 H163 0.985 . S
H160 N155 0.984 . S
H161 N155 0.985 . S
H162 N159 0.984 . S
H163 N159 0.985 . S
H164 N158 0.984 . S
H165 N158 0.984 . S
H166 N154 0.984 . S
H167 N154 0.985 1_545 S
C168 C169 1.363 . S
C168 C174 1.379 . S
C168 N176 1.356 . S
C169 C168 1.363 . S
C169 C175 1.363 . S
C170 C171 1.363 . S
C170 C175 1.379 . S
C170 N177 1.356 . S
C171 C170 1.363 . S
C171 C174 1.363 . S
N172 C174 1.356 1_455 S
N172 H184 0.984 . S
N172 H185 0.985 . S
N173 C175 1.356 . S
N173 H178 0.984 . S
N173 H179 0.985 . S
C174 C168 1.379 . S
C174 C171 1.363 . S
C174 N172 1.356 1_655 S
C175 C169 1.363 . S
C175 C170 1.379 . S
C175 N173 1.356 . S
N176 C168 1.356 . S
N176 H182 0.984 . S
N176 H183 0.984 . S
N177 C170 1.356 . S
N177 H180 0.984 . S
N177 H181 0.985 . S
H178 N173 0.984 . S
H179 N173 0.985 . S
H180 N177 0.984 . S
H181 N177 0.985 . S
H182 N176 0.984 . S
H183 N176 0.984 . S
H184 N172 0.984 . S
H185 N172 0.985 . S
C186 C187 1.363 . S
C186 C192 1.379 . S
C186 N194 1.356 . S
C187 C186 1.363 . S
C187 C193 1.363 . S
C188 C189 1.363 . S
C188 C193 1.379 . S
C188 N195 1.356 . S
C189 C188 1.363 . S
C189 C192 1.363 . S
N190 C192 1.356 . S
N190 H202 0.984 . S
N190 H203 0.985 . S
N191 C193 1.356 . S
N191 H196 0.984 . S
N191 H197 0.985 . S
C192 C186 1.379 . S
C192 C189 1.363 . S
C192 N190 1.356 . S
C193 C187 1.363 . S
C193 C188 1.379 . S
C193 N191 1.356 . S
N194 C186 1.356 . S
N194 H200 0.984 . S
N194 H201 0.984 . S
N195 C188 1.356 . S
N195 H198 0.984 . S
N195 H199 0.985 . S
H196 N191 0.984 . S
H197 N191 0.985 . S
H198 N195 0.984 . S
H199 N195 0.985 . S
H200 N194 0.984 . S
H201 N194 0.984 . S
H202 N190 0.984 . S
H203 N190 0.985 . S
C204 C205 1.363 . S
C204 C210 1.379 . S
C204 N212 1.356 . S
C205 C204 1.363 . S
C205 C211 1.363 . S
C206 C207 1.363 . S
C206 C211 1.379 . S
C206 N213 1.356 . S
C207 C206 1.363 . S
C207 C210 1.363 . S
N208 C210 1.356 . S
N208 H220 0.984 . S
N208 H221 0.985 . S
N209 C211 1.356 . S
N209 H214 0.984 . S
N209 H215 0.985 . S
C210 C204 1.379 . S
C210 C207 1.363 . S
C210 N208 1.356 . S
C211 C205 1.363 . S
C211 C206 1.379 . S
C211 N209 1.356 . S
N212 C204 1.356 . S
N212 H218 0.984 . S
N212 H219 0.984 . S
N213 C206 1.356 . S
N213 H216 0.984 . S
N213 H217 0.985 1_455 S
H214 N209 0.984 . S
H215 N209 0.985 . S
H216 N213 0.984 . S
H217 N213 0.985 1_655 S
H218 N212 0.984 . S
H219 N212 0.984 . S
H220 N208 0.984 . S
H221 N208 0.985 . S
C222 C223 1.363 . S
C222 C228 1.379 . S
C222 N230 1.356 . S
C223 C222 1.363 . S
C223 C229 1.360 1_445 S
C224 C225 1.370 1_655 S
C224 C229 1.379 . S
C224 N231 1.356 . S
C225 C224 1.370 1_455 S
C225 C228 1.354 1_565 S
N226 C228 1.356 . S
N226 H238 0.984 . S
N226 H239 0.985 . S
N227 C229 1.358 . S
N227 H232 0.984 . S
N227 H233 0.985 . S
C228 C222 1.379 . S
C228 C225 1.354 1_545 S
C228 N226 1.356 . S
C229 C223 1.360 1_665 S
C229 C224 1.379 . S
C229 N227 1.358 . S
N230 C222 1.356 . S
N230 H236 0.984 . S
N230 H237 0.984 . S
N231 C224 1.356 . S
N231 H234 0.984 . S
N231 H235 0.985 . S
H232 N227 0.984 . S
H233 N227 0.985 . S
H234 N231 0.984 . S
H235 N231 0.985 . S
H236 N230 0.984 . S
H237 N230 0.984 . S
H238 N226 0.984 . S
H239 N226 0.985 . S
C240 C241 1.363 . S
C240 C246 1.379 1_455 S
C240 N248 1.356 1_455 S
C241 C240 1.363 . S
C241 C247 1.363 1_545 S
C242 C243 1.363 . S
C242 C247 1.379 1_545 S
C242 N249 1.356 1_545 S
C243 C242 1.363 . S
C243 C246 1.363 1_455 S
N244 C246 1.356 . S
N244 H256 0.984 . S
N244 H257 0.985 . S
N245 C247 1.356 . S
N245 H250 0.984 . S
N245 H251 0.985 . S
C246 C240 1.379 1_655 S
C246 C243 1.363 1_655 S
C246 N244 1.356 . S
C247 C241 1.363 1_565 S
C247 C242 1.379 1_565 S
C247 N245 1.356 . S
N248 C240 1.356 1_655 S
N248 H254 0.984 . S
N248 H255 0.984 1_655 S
N249 C242 1.356 1_565 S
N249 H252 0.984 . S
N249 H253 0.985 . S
H250 N245 0.984 . S
H251 N245 0.985 . S
H252 N249 0.984 . S
H253 N249 0.985 . S
H254 N248 0.984 . S
H255 N248 0.984 1_455 S
H256 N244 0.984 . S
H257 N244 0.985 . S
C258 C259 1.363 . S
C258 C264 1.379 . S
C258 N266 1.356 . S
C259 C258 1.363 . S
C259 C265 1.363 . S
C260 C261 1.363 . S
C260 C265 1.379 . S
C260 N267 1.356 . S
C261 C260 1.363 . S
C261 C264 1.363 . S
N262 C264 1.356 . S
N262 H274 0.984 . S
N262 H275 0.985 . S
N263 C265 1.356 . S
N263 H268 0.984 . S
N263 H269 0.985 . S
C264 C258 1.379 . S
C264 C261 1.363 . S
C264 N262 1.356 . S
C265 C259 1.363 . S
C265 C260 1.379 . S
C265 N263 1.356 . S
N266 C258 1.356 . S
N266 H272 0.984 . S
N266 H273 0.984 . S
N267 C260 1.356 . S
N267 H270 0.984 . S
N267 H271 0.985 . S
H268 N263 0.984 . S
H269 N263 0.985 . S
H270 N267 0.984 . S
H271 N267 0.985 . S
H272 N266 0.984 . S
H273 N266 0.984 . S
H274 N262 0.984 . S
H275 N262 0.985 . S
C276 C277 1.363 . S
C276 C282 1.379 . S
C276 N284 1.356 . S
C277 C276 1.363 . S
C277 C283 1.363 . S
C278 C279 1.363 . S
C278 C283 1.379 . S
C278 N285 1.356 . S
C279 C278 1.363 . S
C279 C282 1.363 . S
N280 C282 1.356 . S
N280 H292 0.984 . S
N280 H293 0.985 . S
N281 C283 1.356 . S
N281 H286 0.984 . S
N281 H287 0.985 . S
C282 C276 1.379 . S
C282 C279 1.363 . S
C282 N280 1.356 . S
C283 C277 1.363 . S
C283 C278 1.379 . S
C283 N281 1.356 . S
N284 C276 1.356 . S
N284 H290 0.984 . S
N284 H291 0.984 . S
N285 C278 1.356 . S
N285 H288 0.984 . S
N285 H289 0.985 . S
H286 N281 0.984 . S
H287 N281 0.985 . S
H288 N285 0.984 . S
H289 N285 0.985 . S
H290 N284 0.984 . S
H291 N284 0.984 . S
H292 N280 0.984 . S
H293 N280 0.985 . S
C81 C73 1.431 . S
C79 C16 1.243 . S
C97 C15 1.483 1_556 S
C99 C64 1.485 . S
C115 C13 1.287 . S
C117 C76 1.451 . S
C133 C14 1.351 . S
C135 C67 1.419 . S
C151 C37 1.243 . S
C153 C55 1.432 1_565 S
C169 C36 1.483 . S
C171 C46 1.485 . S
C189 C58 1.450 . S
C187 C34 1.287 . S
C207 C49 1.419 . S
C205 C35 1.351 . S
C223 C17 1.503 . S
C225 C47 1.550 . S
C241 C18 1.388 . S
C243 C56 1.442 . S
C261 C65 1.549 . S
C259 C38 1.503 . S
C277 C39 1.388 . S
C279 C74 1.442 . S
