# Generated by pormake.
# Topology pyr, (3,6)-cn, num edge types: 1
# Building blocks:
#     Node 0, Type 0, BuildingBlock: KAKCAD_clean_linker_0, # of connection points: 3
#     Node 1, Type 0, BuildingBlock: KAKCAD_clean_linker_0, # of connection points: 3
#     Node 2, Type 0, BuildingBlock: KAKCAD_clean_linker_0, # of connection points: 3
#     Node 3, Type 0, BuildingBlock: KAKCAD_clean_linker_0, # of connection points: 3
#     Node 4, Type 0, BuildingBlock: KAKCAD_clean_linker_0, # of connection points: 3
#     Node 5, Type 0, BuildingBlock: KAKCAD_clean_linker_0, # of connection points: 3
#     Node 6, Type 0, BuildingBlock: KAKCAD_clean_linker_0, # of connection points: 3
#     Node 7, Type 0, BuildingBlock: KAKCAD_clean_linker_0, # of connection points: 3
#     Node 8, Type 1, BuildingBlock: BETDAH_clean_sbu_0, # of connection points: 6
#     Node 9, Type 1, BuildingBlock: BETDAH_clean_sbu_0, # of connection points: 6
#     Node 10, Type 1, BuildingBlock: BETDAH_clean_sbu_0, # of connection points: 6
#     Node 11, Type 1, BuildingBlock: BETDAH_clean_sbu_0, # of connection points: 6
#     Edge 12, Type (0, 1), BuildingBlock: XUDNAN_clean_linker_2, # of connection points: 2
#     Edge 13, Type (0, 1), BuildingBlock: XUDNAN_clean_linker_2, # of connection points: 2
#     Edge 14, Type (0, 1), BuildingBlock: XUDNAN_clean_linker_2, # of connection points: 2
#     Edge 15, Type (0, 1), BuildingBlock: XUDNAN_clean_linker_2, # of connection points: 2
#     Edge 16, Type (0, 1), BuildingBlock: XUDNAN_clean_linker_2, # of connection points: 2
#     Edge 17, Type (0, 1), BuildingBlock: XUDNAN_clean_linker_2, # of connection points: 2
#     Edge 18, Type (0, 1), BuildingBlock: XUDNAN_clean_linker_2, # of connection points: 2
#     Edge 19, Type (0, 1), BuildingBlock: XUDNAN_clean_linker_2, # of connection points: 2
#     Edge 20, Type (0, 1), BuildingBlock: XUDNAN_clean_linker_2, # of connection points: 2
#     Edge 21, Type (0, 1), BuildingBlock: XUDNAN_clean_linker_2, # of connection points: 2
#     Edge 22, Type (0, 1), BuildingBlock: XUDNAN_clean_linker_2, # of connection points: 2
#     Edge 23, Type (0, 1), BuildingBlock: XUDNAN_clean_linker_2, # of connection points: 2
#     Edge 24, Type (0, 1), BuildingBlock: XUDNAN_clean_linker_2, # of connection points: 2
#     Edge 25, Type (0, 1), BuildingBlock: XUDNAN_clean_linker_2, # of connection points: 2
#     Edge 26, Type (0, 1), BuildingBlock: XUDNAN_clean_linker_2, # of connection points: 2
#     Edge 27, Type (0, 1), BuildingBlock: XUDNAN_clean_linker_2, # of connection points: 2
#     Edge 28, Type (0, 1), BuildingBlock: XUDNAN_clean_linker_2, # of connection points: 2
#     Edge 29, Type (0, 1), BuildingBlock: XUDNAN_clean_linker_2, # of connection points: 2
#     Edge 30, Type (0, 1), BuildingBlock: XUDNAN_clean_linker_2, # of connection points: 2
#     Edge 31, Type (0, 1), BuildingBlock: XUDNAN_clean_linker_2, # of connection points: 2
#     Edge 32, Type (0, 1), BuildingBlock: XUDNAN_clean_linker_2, # of connection points: 2
#     Edge 33, Type (0, 1), BuildingBlock: XUDNAN_clean_linker_2, # of connection points: 2
#     Edge 34, Type (0, 1), BuildingBlock: XUDNAN_clean_linker_2, # of connection points: 2
#     Edge 35, Type (0, 1), BuildingBlock: XUDNAN_clean_linker_2, # of connection points: 2
# Relax obj value: 0.093
# Max RMSD: 0.123
# Mean RMSD: 0.058
data_MOF--net-pyr--node1-BETDAH_clean_sbu_0--node2-KAKCAD_clean_linker_0--edge1-XUDNAN_clean_linker_2
_symmetry_space_group_name_H-M    P1
_symmetry_Int_Tables_number       1
_symmetry_cell_setting            triclinic
loop_
_symmetry_equiv_pos_as_xyz
'x, y, z'
_cell_length_a     46.117649
_cell_length_b     49.015956
_cell_length_c     44.336076
_cell_angle_alpha  90.944026
_cell_angle_beta   88.761363
_cell_angle_gamma 100.73451
loop_
_atom_site_label
_atom_site_type_symbol
_atom_site_fract_x
_atom_site_fract_y
_atom_site_fract_z
_atom_type_partial_charge
C0 C 0.25489 0.28692 0.30453 0.0
C1 C 0.2619 0.26955 0.32701 0.0
C2 C 0.2746 0.29515 0.28074 0.0
C3 C 0.30205 0.28652 0.27892 0.0
C4 C 0.30965 0.27014 0.30218 0.0
C5 C 0.2897 0.26164 0.32595 0.0
C6 C 0.32097 0.29256 0.25132 0.0
C7 C 0.32201 0.31761 0.23619 0.0
C8 C 0.33332 0.32111 0.20662 0.0
C9 C 0.34586 0.29996 0.19282 0.0
C10 C 0.34661 0.27524 0.20827 0.0
C11 C 0.33415 0.27178 0.23755 0.0
C12 C 0.35761 0.25193 0.19278 0.0
C13 C 0.38372 0.25675 0.17516 0.0
C14 C 0.34162 0.22465 0.1951 0.0
C15 C 0.35146 0.2027 0.18017 0.0
C16 C 0.37748 0.20747 0.16244 0.0
C17 C 0.32594 0.34418 0.18899 0.0
C18 C 0.30814 0.33799 0.1636 0.0
C19 C 0.33034 0.37119 0.20131 0.0
C20 C 0.31466 0.39068 0.19053 0.0
C21 C 0.29407 0.3834 0.16746 0.0
C22 C 0.29225 0.35738 0.15297 0.0
C23 C 0.39361 0.23472 0.16021 0.0
H24 H 0.23343 0.29287 0.30434 0.0
H25 H 0.26749 0.30709 0.26292 0.0
H26 H 0.3307 0.26336 0.30166 0.0
H27 H 0.29571 0.24835 0.34312 0.0
H28 H 0.31164 0.33366 0.24651 0.0
H29 H 0.33336 0.25228 0.24895 0.0
H30 H 0.3536 0.30219 0.16957 0.0
H31 H 0.39656 0.27753 0.17302 0.0
H32 H 0.32116 0.22025 0.20809 0.0
H33 H 0.33868 0.18193 0.18262 0.0
H34 H 0.30411 0.31723 0.15387 0.0
H35 H 0.34411 0.37648 0.22083 0.0
H36 H 0.41361 0.23912 0.14649 0.0
H37 H 0.27656 0.35094 0.13525 0.0
H38 H 0.31715 0.4108 0.20166 0.0
C39 C 0.28402 0.83734 0.75922 0.0
C40 C 0.31305 0.83289 0.76216 0.0
C41 C 0.27109 0.83565 0.73089 0.0
C42 C 0.28687 0.82924 0.70511 0.0
C43 C 0.31527 0.82326 0.70834 0.0
C44 C 0.32828 0.82517 0.7366 0.0
C45 C 0.27471 0.83066 0.67468 0.0
C46 C 0.26232 0.85357 0.66673 0.0
C47 C 0.25311 0.85623 0.63715 0.0
C48 C 0.25536 0.83539 0.61564 0.0
C49 C 0.26742 0.81241 0.62345 0.0
C50 C 0.27722 0.81017 0.65285 0.0
C51 C 0.27122 0.79117 0.60072 0.0
C52 C 0.24666 0.77364 0.58838 0.0
C53 C 0.29969 0.78696 0.59325 0.0
C54 C 0.30364 0.76461 0.57492 0.0
C55 C 0.27913 0.74584 0.56401 0.0
C56 C 0.24192 0.88116 0.62841 0.0
C57 C 0.21864 0.88944 0.64484 0.0
C58 C 0.25402 0.89639 0.60311 0.0
C59 C 0.24243 0.91916 0.59384 0.0
C60 C 0.2183 0.92666 0.60949 0.0
C61 C 0.20672 0.9119 0.63527 0.0
C62 C 0.25059 0.75089 0.5703 0.0
H63 H 0.27191 0.84361 0.77852 0.0
H64 H 0.24905 0.84008 0.72903 0.0
H65 H 0.32801 0.81843 0.68881 0.0
H66 H 0.35066 0.82159 0.73832 0.0
H67 H 0.2611 0.87 0.68313 0.0
H68 H 0.28678 0.7924 0.65871 0.0
H69 H 0.24818 0.83725 0.59275 0.0
H70 H 0.22451 0.77669 0.59403 0.0
H71 H 0.31885 0.80037 0.60259 0.0
H72 H 0.3259 0.761 0.57103 0.0
H73 H 0.20903 0.87795 0.66442 0.0
H74 H 0.27221 0.89047 0.59033 0.0
H75 H 0.23138 0.73663 0.5623 0.0
H76 H 0.18805 0.91741 0.64759 0.0
H77 H 0.25146 0.93014 0.57374 0.0
C78 C 0.75659 0.43644 0.8949 0.0
C79 C 0.77604 0.41928 0.90411 0.0
C80 C 0.73085 0.42531 0.87884 0.0
C81 C 0.7239 0.39673 0.87149 0.0
C82 C 0.74422 0.38 0.87942 0.0
C83 C 0.76974 0.39105 0.8954 0.0
C84 C 0.69505 0.38385 0.85719 0.0
C85 C 0.68258 0.39729 0.83416 0.0
C86 C 0.65522 0.38532 0.82108 0.0
C87 C 0.64029 0.35921 0.83197 0.0
C88 C 0.65245 0.34521 0.85492 0.0
C89 C 0.67972 0.35782 0.86709 0.0
C90 C 0.63686 0.3178 0.86742 0.0
C91 C 0.60759 0.31426 0.87853 0.0
C92 C 0.65219 0.29572 0.87101 0.0
C93 C 0.63898 0.2712 0.88586 0.0
C94 C 0.61018 0.26815 0.89819 0.0
C95 C 0.6424 0.40049 0.7965 0.0
C96 C 0.64566 0.42967 0.79736 0.0
C97 C 0.6272 0.38636 0.77177 0.0
C98 C 0.6157 0.40092 0.74891 0.0
C99 C 0.61871 0.4301 0.75014 0.0
C100 C 0.63414 0.44412 0.77472 0.0
C101 C 0.59457 0.28994 0.89394 0.0
H102 H 0.76058 0.45824 0.9012 0.0
H103 H 0.71582 0.43892 0.87326 0.0
H104 H 0.74026 0.35811 0.87355 0.0
H105 H 0.78445 0.37723 0.90133 0.0
H106 H 0.69465 0.41692 0.82592 0.0
H107 H 0.68859 0.34758 0.88529 0.0
H108 H 0.61915 0.34981 0.82276 0.0
H109 H 0.59517 0.33081 0.87644 0.0
H110 H 0.67476 0.29765 0.86278 0.0
H111 H 0.65181 0.25507 0.88877 0.0
H112 H 0.65682 0.44156 0.81592 0.0
H113 H 0.62439 0.36398 0.76988 0.0
H114 H 0.57229 0.28834 0.90289 0.0
H115 H 0.63745 0.46653 0.77656 0.0
H116 H 0.60389 0.38922 0.7306 0.0
C117 C 0.88099 0.64919 0.24496 0.0
C118 C 0.911 0.64702 0.24222 0.0
C119 C 0.86993 0.661 0.2709 0.0
C120 C 0.8886 0.67158 0.29476 0.0
C121 C 0.91866 0.66959 0.29198 0.0
C122 C 0.92962 0.65722 0.26626 0.0
C123 C 0.87666 0.68416 0.32257 0.0
C124 C 0.85049 0.67047 0.33703 0.0
C125 C 0.83975 0.68126 0.36383 0.0
C126 C 0.85524 0.70647 0.37583 0.0
C127 C 0.88066 0.72162 0.36126 0.0
C128 C 0.89132 0.70981 0.33474 0.0
C129 C 0.89544 0.74978 0.3736 0.0
C130 C 0.87918 0.76676 0.39052 0.0
C131 C 0.9258 0.76028 0.36853 0.0
C132 C 0.93908 0.78672 0.37939 0.0
C133 C 0.92271 0.80328 0.39638 0.0
C134 C 0.81245 0.66628 0.37974 0.0
C135 C 0.78605 0.65713 0.36414 0.0
C136 C 0.81239 0.66175 0.41101 0.0
C137 C 0.7868 0.64834 0.42623 0.0
C138 C 0.76028 0.63945 0.41077 0.0
C139 C 0.76021 0.64416 0.37951 0.0
C140 C 0.89268 0.79283 0.40205 0.0
H141 H 0.86591 0.64147 0.22706 0.0
H142 H 0.84672 0.6622 0.27211 0.0
H143 H 0.93369 0.67729 0.30994 0.0
H144 H 0.95285 0.6561 0.26495 0.0
H145 H 0.83899 0.65083 0.32799 0.0
H146 H 0.91056 0.72086 0.32281 0.0
H147 H 0.8471 0.71428 0.3967 0.0
H148 H 0.85569 0.7604 0.39443 0.0
H149 H 0.93958 0.74811 0.35629 0.0
H150 H 0.96231 0.79422 0.37463 0.0
H151 H 0.78524 0.66045 0.3401 0.0
H152 H 0.83231 0.66841 0.42374 0.0
H153 H 0.87934 0.80527 0.41459 0.0
H154 H 0.74027 0.63744 0.36685 0.0
H155 H 0.78768 0.64524 0.4503 0.0
C156 C 0.78976 0.79431 0.76106 0.0
C157 C 0.80892 0.81933 0.76776 0.0
C158 C 0.76346 0.78656 0.77778 0.0
C159 C 0.75583 0.80405 0.80092 0.0
C160 C 0.7744 0.82976 0.80629 0.0
C161 C 0.80074 0.83724 0.78999 0.0
C162 C 0.73114 0.7944 0.82242 0.0
C163 C 0.72975 0.76908 0.83702 0.0
C164 C 0.71228 0.76286 0.86324 0.0
C165 C 0.69529 0.78203 0.87431 0.0
C166 C 0.69586 0.80728 0.8594 0.0
C167 C 0.71319 0.81279 0.83294 0.0
C168 C 0.68215 0.82965 0.87358 0.0
C169 C 0.65432 0.82386 0.88816 0.0
C170 C 0.69775 0.85719 0.87355 0.0
C171 C 0.686 0.87835 0.8877 0.0
C172 C 0.65848 0.87262 0.90274 0.0
C173 C 0.71692 0.7391 0.88161 0.0
C174 C 0.71786 0.71325 0.86779 0.0
C175 C 0.72601 0.74368 0.9116 0.0
C176 C 0.73837 0.72382 0.92647 0.0
C177 C 0.74164 0.69895 0.9117 0.0
C178 C 0.73 0.69328 0.88277 0.0
C179 C 0.64255 0.84518 0.90254 0.0
H180 H 0.79577 0.78026 0.74391 0.0
H181 H 0.74956 0.7666 0.7733 0.0
H182 H 0.76941 0.84348 0.8243 0.0
H183 H 0.8152 0.85672 0.79534 0.0
H184 H 0.74472 0.75548 0.82985 0.0
H185 H 0.71426 0.83232 0.82146 0.0
H186 H 0.68316 0.77802 0.89548 0.0
H187 H 0.64172 0.80289 0.88852 0.0
H188 H 0.71951 0.86244 0.86317 0.0
H189 H 0.69868 0.8993 0.88696 0.0
H190 H 0.71097 0.70923 0.84468 0.0
H191 H 0.72582 0.7635 0.92272 0.0
H192 H 0.62133 0.84008 0.91408 0.0
H193 H 0.73233 0.67434 0.87079 0.0
H194 H 0.74694 0.72857 0.94889 0.0
C195 C 0.71175 0.13779 0.37344 0.0
C196 C 0.71508 0.15788 0.35086 0.0
C197 C 0.71756 0.14564 0.40343 0.0
C198 C 0.7274 0.17373 0.41132 0.0
C199 C 0.73068 0.19378 0.38847 0.0
C200 C 0.72426 0.18594 0.35859 0.0
C201 C 0.73491 0.18202 0.44305 0.0
C202 C 0.7483 0.16498 0.46139 0.0
C203 C 0.75664 0.17326 0.49094 0.0
C204 C 0.75153 0.19889 0.50218 0.0
C205 C 0.73884 0.21636 0.48398 0.0
C206 C 0.73005 0.20762 0.45475 0.0
C207 C 0.73609 0.2444 0.49478 0.0
C208 C 0.72322 0.24838 0.52311 0.0
C209 C 0.74594 0.26738 0.47631 0.0
C210 C 0.74178 0.29373 0.48537 0.0
C211 C 0.72754 0.29756 0.513 0.0
C212 C 0.77325 0.15634 0.50884 0.0
C213 C 0.76529 0.12724 0.50894 0.0
C214 C 0.79861 0.16922 0.52415 0.0
C215 C 0.81635 0.15333 0.53815 0.0
C216 C 0.80916 0.1242 0.53712 0.0
C217 C 0.78312 0.11129 0.52296 0.0
C218 C 0.7188 0.27477 0.53209 0.0
H219 H 0.70439 0.11602 0.36788 0.0
H220 H 0.71421 0.12968 0.42041 0.0
H221 H 0.73883 0.21551 0.39345 0.0
H222 H 0.72716 0.20171 0.34138 0.0
H223 H 0.75364 0.14587 0.45221 0.0
H224 H 0.71941 0.22092 0.44116 0.0
H225 H 0.75834 0.20569 0.52475 0.0
H226 H 0.71556 0.23093 0.53776 0.0
H227 H 0.75636 0.26486 0.45456 0.0
H228 H 0.74834 0.31083 0.47001 0.0
H229 H 0.74564 0.1168 0.49763 0.0
H230 H 0.80561 0.19158 0.52403 0.0
H231 H 0.70775 0.27724 0.5535 0.0
H232 H 0.77692 0.08887 0.52208 0.0
H233 H 0.83657 0.1639 0.54835 0.0
C234 C 0.25766 0.65555 0.17756 0.0
C235 C 0.25871 0.65042 0.14621 0.0
C236 C 0.28277 0.66982 0.19269 0.0
C237 C 0.30927 0.67986 0.1767 0.0
C238 C 0.30999 0.67504 0.14533 0.0
C239 C 0.28526 0.66036 0.13041 0.0
C240 C 0.33611 0.69589 0.19196 0.0
C241 C 0.34837 0.68543 0.21725 0.0
C242 C 0.37541 0.69929 0.22947 0.0
C243 C 0.38976 0.72453 0.21598 0.0
C244 C 0.37761 0.73573 0.19086 0.0
C245 C 0.35065 0.72111 0.17954 0.0
C246 C 0.39294 0.76199 0.17525 0.0
C247 C 0.40833 0.78524 0.1912 0.0
C248 C 0.39128 0.76431 0.1437 0.0
C249 C 0.40369 0.78885 0.12876 0.0
C250 C 0.41902 0.81221 0.14448 0.0
C251 C 0.38935 0.68634 0.25499 0.0
C252 C 0.37224 0.67322 0.27935 0.0
C253 C 0.41979 0.68573 0.25451 0.0
C254 C 0.43244 0.67176 0.27686 0.0
C255 C 0.41527 0.65813 0.30084 0.0
C256 C 0.38503 0.65957 0.30202 0.0
C257 C 0.42111 0.80994 0.17608 0.0
H258 H 0.23766 0.64795 0.19045 0.0
H259 H 0.28138 0.67329 0.21683 0.0
H260 H 0.32999 0.68232 0.13227 0.0
H261 H 0.2869 0.65676 0.10631 0.0
H262 H 0.33756 0.66571 0.22645 0.0
H263 H 0.34061 0.72941 0.16074 0.0
H264 H 0.4106 0.73522 0.22477 0.0
H265 H 0.41009 0.78456 0.21547 0.0
H266 H 0.3803 0.74699 0.13019 0.0
H267 H 0.40081 0.78945 0.10464 0.0
H268 H 0.3488 0.67333 0.28082 0.0
H269 H 0.43381 0.69527 0.23621 0.0
H270 H 0.43286 0.82716 0.1892 0.0
H271 H 0.37097 0.64929 0.31991 0.0
H272 H 0.45582 0.6714 0.27514 0.0
C273 C 0.1575 0.27392 0.65754 0.0
C274 C 0.12785 0.26197 0.66336 0.0
C275 C 0.16938 0.30074 0.66835 0.0
C276 C 0.1518 0.3169 0.68469 0.0
C277 C 0.12184 0.30484 0.6899 0.0
C278 C 0.11021 0.27772 0.67977 0.0
C279 C 0.16464 0.34595 0.69609 0.0
C280 C 0.18894 0.3623 0.68098 0.0
C281 C 0.20198 0.38901 0.69152 0.0
C282 C 0.18928 0.40009 0.71717 0.0
C283 C 0.16448 0.38478 0.73261 0.0
C284 C 0.15287 0.35755 0.72206 0.0
C285 C 0.15055 0.39714 0.75961 0.0
C286 C 0.16759 0.41544 0.78023 0.0
C287 C 0.11979 0.39084 0.76498 0.0
C288 C 0.10667 0.40187 0.79015 0.0
C289 C 0.1237 0.41983 0.81094 0.0
C290 C 0.22884 0.40513 0.67546 0.0
C291 C 0.25075 0.39149 0.66296 0.0
C292 C 0.2328 0.43414 0.67208 0.0
C293 C 0.25755 0.44886 0.65642 0.0
C294 C 0.27921 0.43513 0.64349 0.0
C295 C 0.2754 0.40618 0.64722 0.0
C296 C 0.15437 0.42667 0.80536 0.0
H297 H 0.17179 0.26215 0.64539 0.0
H298 H 0.19266 0.30841 0.6643 0.0
H299 H 0.10707 0.31633 0.70164 0.0
H300 H 0.08724 0.26908 0.6846 0.0
H301 H 0.19752 0.35451 0.66033 0.0
H302 H 0.13496 0.34513 0.73466 0.0
H303 H 0.19874 0.42076 0.7251 0.0
H304 H 0.19133 0.4207 0.7774 0.0
H305 H 0.10559 0.37752 0.7495 0.0
H306 H 0.08294 0.39645 0.79316 0.0
H307 H 0.24897 0.36929 0.66538 0.0
H308 H 0.2165 0.44553 0.68106 0.0
H309 H 0.16836 0.44016 0.8209 0.0
H310 H 0.29121 0.39461 0.63748 0.0
H311 H 0.25969 0.47114 0.6546 0.0
Ho312 Ho 0.03299 0.04935 0.50402 0.0
Ho313 Ho 0.0255 1.01242 0.55907 0.0
C314 C 0.05436 0.07882 0.56597 0.0
C315 C 0.03246 0.079 0.45667 0.0
C316 C 0.05448 0.1026 0.44573 0.0
C317 C 0.04579 0.12468 0.43082 0.0
C318 C 0.067 0.14736 0.42127 0.0
C319 C 0.09714 0.14813 0.4265 0.0
C320 C 0.10559 0.1261 0.44179 0.0
C321 C 0.08452 0.10363 0.4513 0.0
C322 C 0.08195 1.03147 0.52089 0.0
C323 C 1.00262 0.98345 0.49714 0.0
C324 C 0.02963 0.98402 0.60684 0.0
C325 C 1.01105 0.96001 0.62128 0.0
C326 C 0.02417 0.94109 0.63701 0.0
C327 C 1.00661 0.91905 0.65228 0.0
C328 C 0.97562 0.91574 0.65222 0.0
C329 C 0.96264 0.93433 0.63552 0.0
C330 C 0.98019 0.95612 0.62004 0.0
C331 C 0.97613 1.03072 0.54344 0.0
O332 O 0.04521 0.08301 0.53873 0.0
O333 O 0.05254 0.0533 0.57654 0.0
O334 O 0.0411 0.05504 0.45624 0.0
O335 O 0.01852 0.08342 0.48178 0.0
O336 O 0.08245 0.05582 0.50992 0.0
O337 O 0.05618 1.01772 0.52075 0.0
O338 O 1.01161 0.97891 0.52441 0.0
O339 O 1.00507 1.00904 0.48658 0.0
O340 O 0.01887 1.00689 0.60702 0.0
O341 O 0.04173 0.97917 0.58087 0.0
O342 O 0.97631 1.00657 0.5548 0.0
O343 O 1.00209 0.04437 0.54284 0.0
H344 H 0.02269 0.12437 0.42657 0.0
H345 H 0.0599 0.16402 0.40938 0.0
H346 H 0.12857 0.12631 0.4466 0.0
H347 H 0.09183 0.08702 0.46301 0.0
H348 H 0.04798 0.94363 0.63792 0.0
H349 H 1.01733 0.90487 0.66448 0.0
H350 H 0.93892 0.93277 0.63529 0.0
H351 H 0.96959 0.97037 0.60776 0.0
Ho352 Ho 0.53692 0.04839 0.05018 0.0
Ho353 Ho 0.49662 0.03599 1.00258 0.0
C354 C 0.47951 0.07185 0.06022 0.0
C355 C 0.58361 0.0617 0.08253 0.0
C356 C 0.59972 0.0812 0.10458 0.0
C357 C 0.63014 0.09008 0.09987 0.0
C358 C 0.64764 0.10325 0.12304 0.0
C359 C 0.63497 0.10769 0.15135 0.0
C360 C 0.60413 0.10083 0.15527 0.0
C361 C 0.58659 0.08759 0.13203 0.0
C362 C 0.49798 0.99952 0.05944 0.0
C363 C 0.55378 1.01196 0.9937 0.0
C364 C 0.45157 1.01955 0.96881 0.0
C365 C 0.43905 0.99386 0.9526 0.0
C366 C 0.43772 0.96763 0.96552 0.0
C367 C 0.4255 0.94354 0.94955 0.0
C368 C 0.41494 0.94539 0.92032 0.0
C369 C 0.41662 0.97166 0.90743 0.0
C370 C 0.4285 0.99567 0.92348 0.0
C371 C 0.53528 0.08495 0.99316 0.0
O372 O 0.50772 0.07707 0.06664 0.0
O373 O 0.46966 0.05375 0.03869 0.0
O374 O 0.55948 0.04539 0.09171 0.0
O375 O 0.5821 0.0702 0.05498 0.0
O376 O 0.50598 1.01837 0.07992 0.0
O377 O 0.51096 1.00759 0.03487 0.0
O378 O 0.52534 1.00579 0.98865 0.0
O379 O 0.56375 1.03158 1.0135 0.0
O380 O 0.47693 0.0328 0.95848 0.0
O381 O 0.45029 1.01871 0.99825 0.0
O382 O 0.52725 0.06602 0.97283 0.0
O383 O 0.52236 0.07695 1.01782 0.0
H384 H 0.64067 0.08533 0.07884 0.0
H385 H 0.67129 0.1087 0.1193 0.0
H386 H 0.5938 0.10391 0.17692 0.0
H387 H 0.56312 0.08095 0.13617 0.0
H388 H 0.44605 0.96575 0.98791 0.0
H389 H 0.42454 0.92351 0.95987 0.0
H390 H 0.40826 0.97365 0.88508 0.0
H391 H 0.42939 1.01572 0.91318 0.0
Ho392 Ho 0.52196 0.51627 0.50769 0.0
Ho393 Ho 0.51172 0.5657 0.5382 0.0
C394 C 0.54099 0.52064 0.5759 0.0
C395 C 0.54097 0.48057 0.47289 0.0
C396 C 0.56639 0.46709 0.47687 0.0
C397 C 0.5905 0.48061 0.49363 0.0
C398 C 0.61345 0.46697 0.5003 0.0
C399 C 0.61239 0.43942 0.4907 0.0
C400 C 0.58847 0.42604 0.47348 0.0
C401 C 0.56559 0.43984 0.46658 0.0
C402 C 0.46891 0.50866 0.53746 0.0
C403 C 0.49167 0.56084 0.47056 0.0
C404 C 0.49218 0.60081 0.57332 0.0
C405 C 0.46322 0.6093 0.57298 0.0
C406 C 0.43721 0.58918 0.57147 0.0
C407 C 0.41026 0.59686 0.5658 0.0
C408 C 0.40871 0.62489 0.56182 0.0
C409 C 0.43455 0.64515 0.56485 0.0
C410 C 0.4616 0.63738 0.57022 0.0
C411 C 0.56532 0.57263 0.50933 0.0
O412 O 0.54659 0.50955 0.54959 0.0
O413 O 0.52578 0.54112 0.57695 0.0
O414 O 0.51953 0.47369 0.49261 0.0
O415 O 0.5473 0.50733 0.46845 0.0
O416 O 0.48619 0.49071 0.53614 0.0
O417 O 0.47991 0.52954 0.5218 0.0
O418 O 0.48541 0.57101 0.4971 0.0
O419 O 0.50785 0.54112 0.46911 0.0
O420 O 0.50927 0.60833 0.54988 0.0
O421 O 0.49193 0.57509 0.58079 0.0
O422 O 0.54858 0.59104 0.51047 0.0
O423 O 0.55361 0.552 0.52488 0.0
H424 H 0.59117 0.50148 0.50228 0.0
H425 H 0.63147 0.47761 0.51386 0.0
H426 H 0.58734 0.40483 0.46561 0.0
H427 H 0.54699 0.42904 0.4539 0.0
H428 H 0.4378 0.56737 0.5737 0.0
H429 H 0.39085 0.58075 0.56359 0.0
H430 H 0.43398 0.66702 0.56278 0.0
H431 H 0.48138 0.65323 0.5713 0.0
Ho432 Ho 0.02025 0.50401 0.04487 0.0
Ho433 Ho 1.01513 0.55862 1.00934 0.0
C434 C 0.07357 0.55832 0.04765 0.0
C435 C 0.03857 0.45913 0.0577 0.0
C436 C 0.0656 0.45415 0.07231 0.0
C437 C 0.09371 0.46462 0.05978 0.0
C438 C 0.11915 0.46037 0.07401 0.0
C439 C 0.1171 0.44582 0.10119 0.0
C440 C 0.08907 0.43542 0.11381 0.0
C441 C 0.06353 0.43943 0.09939 0.0
C442 C 0.99817 0.54128 0.08174 0.0
C443 C 0.95981 0.50442 1.0098 0.0
C444 C 0.9964 0.60099 0.98893 0.0
C445 C 0.96678 0.60659 0.98241 0.0
C446 C 0.95666 0.62848 0.99751 0.0
C447 C 0.92849 0.6338 0.99215 0.0
C448 C 0.90989 0.61745 0.97136 0.0
C449 C 0.92007 0.59545 0.95633 0.0
C450 C 0.94814 0.58999 0.96188 0.0
C451 C 0.04382 0.52204 0.97991 0.0
O452 O 0.06539 0.53096 0.04912 0.0
O453 O 0.05646 0.57441 0.03611 0.0
O454 O 0.0196 0.46932 0.07488 0.0
O455 O 0.04239 0.47074 1.03119 0.0
O456 O 1.00275 0.51735 0.09064 0.0
O457 O 1.00609 0.54311 0.05438 0.0
O458 O 0.96969 0.531 1.00302 0.0
O459 O 0.97575 0.48947 1.02488 0.0
O460 O 1.00633 0.58282 0.97149 0.0
O461 O 1.00195 0.59827 1.01744 0.0
O462 O 0.05102 0.54891 0.97742 0.0
O463 O 0.02121 0.51639 0.99705 0.0
H464 H 0.09619 0.4763 0.03906 0.0
H465 H 0.14049 0.46886 0.06398 0.0
H466 H 0.0869 0.42391 0.13464 0.0
H467 H 0.04215 0.43117 0.10948 0.0
H468 H 0.97051 0.64141 1.01362 0.0
H469 H 0.92123 0.65063 1.00451 0.0
H470 H 0.90658 0.58271 0.93983 0.0
H471 H 0.9552 0.57281 0.94999 0.0
H472 H 0.24707 0.21531 0.34336 0.0
H473 H 0.22363 0.29609 0.35926 0.0
H474 H 0.17976 0.2741 0.38905 0.0
H475 H 0.17662 0.17949 0.33135 0.0
H476 H 0.18105 0.14805 0.34976 0.0
H477 H 0.21262 0.17033 0.33329 0.0
H478 H 0.23923 0.17418 0.38451 0.0
H479 H 0.2079 0.15148 0.40108 0.0
H480 H 0.2211 0.18517 0.41775 0.0
H481 H 0.13562 0.24252 0.41229 0.0
H482 H 0.09655 0.20407 0.43002 0.0
H483 H 0.14937 0.1445 0.39813 0.0
C484 C 0.23332 0.2285 0.35401 0.0
C485 C 0.23882 0.2574 0.34921 0.0
C486 C 0.21974 0.27387 0.36269 0.0
C487 C 0.19484 0.26158 0.37967 0.0
C488 C 0.18947 0.23286 0.38304 0.0
C489 C 0.2084 0.21659 0.3709 0.0
C490 C 0.1967 0.18607 0.37595 0.0
C491 C 0.19143 0.17006 0.34579 0.0
C492 C 0.21747 0.17349 0.39603 0.0
C493 C 0.16793 0.18765 0.39224 0.0
C494 C 0.16415 0.21478 0.39629 0.0
C495 C 0.13852 0.2212 0.40959 0.0
C496 C 0.11636 0.19928 0.41932 0.0
C497 C 0.12006 0.17137 0.41563 0.0
C498 C 0.14617 0.16565 0.40181 0.0
H499 H 0.36669 0.86561 0.76928 0.0
H500 H 0.29348 0.81767 0.81953 0.0
H501 H 0.31671 0.836 0.86739 0.0
H502 H 0.42614 0.86247 0.82542 0.0
H503 H 0.44338 0.89785 0.81776 0.0
H504 H 0.42429 0.87639 0.78827 0.0
H505 H 0.39183 0.91334 0.77978 0.0
H506 H 0.41053 0.93474 0.8093 0.0
H507 H 0.37095 0.92426 0.8111 0.0
H508 H 0.34423 0.86467 0.90889 0.0
H509 H 0.37216 0.90267 0.94001 0.0
H510 H 0.42649 0.93227 0.86199 0.0
C511 C 0.35618 0.85805 0.79039 0.0
C512 C 0.32861 0.8399 0.79085 0.0
C513 C 0.31479 0.83141 0.81883 0.0
C514 C 0.3279 0.84158 0.84606 0.0
C515 C 0.35477 0.86016 0.84478 0.0
C516 C 0.36879 0.86822 0.8176 0.0
C517 C 0.39521 0.89124 0.82189 0.0
C518 C 0.42396 0.88138 0.8128 0.0
C519 C 0.3919 0.91742 0.8045 0.0
C520 C 0.39316 0.89576 0.85558 0.0
C521 C 0.37017 0.87723 0.86856 0.0
C522 C 0.36264 0.87893 0.89909 0.0
C523 C 0.37861 0.9005 0.91658 0.0
C524 C 0.40141 0.92025 0.90329 0.0
C525 C 0.40918 0.91734 0.87265 0.0
H526 H 0.61448 0.42253 0.68706 0.0
H527 H 0.59085 0.47416 0.76072 0.0
H528 H 0.56972 0.50216 0.72458 0.0
H529 H 0.63434 0.47775 0.63277 0.0
H530 H 0.61884 0.4573 0.60084 0.0
H531 H 0.63218 0.44064 0.63226 0.0
H532 H 0.5813 0.40832 0.63822 0.0
H533 H 0.56788 0.42485 0.60674 0.0
H534 H 0.54856 0.42328 0.64264 0.0
H535 H 0.5511 0.5253 0.681 0.0
H536 H 0.53561 0.54164 0.63283 0.0
H537 H 0.57019 0.47604 0.58529 0.0
C538 C 0.60469 0.43961 0.69563 0.0
C539 C 0.60488 0.44611 0.72713 0.0
C540 C 0.5918 0.46884 0.73697 0.0
C541 C 0.57947 0.48489 0.71651 0.0
C542 C 0.58005 0.47824 0.68584 0.0
C543 C 0.59222 0.45611 0.67529 0.0
C544 C 0.58986 0.45377 0.64092 0.0
C545 C 0.62064 0.45759 0.62581 0.0
C546 C 0.57076 0.42589 0.63158 0.0
C547 C 0.57456 0.47803 0.63398 0.0
C548 C 0.56915 0.49174 0.66038 0.0
C549 C 0.55524 0.51469 0.6602 0.0
C550 C 0.5465 0.52387 0.63252 0.0
C551 C 0.55157 0.51037 0.60486 0.0
C552 C 0.56597 0.48704 0.60582 0.0
H553 H 0.94741 0.60781 0.2371 0.0
H554 H 0.90102 0.65839 0.18336 0.0
H555 H 0.91951 0.63849 0.13674 0.0
H556 H 1.01192 0.61086 0.18761 0.0
H557 H 1.01497 0.57522 0.19358 0.0
H558 H 0.99917 0.59431 0.22272 0.0
H559 H 0.95184 0.55643 0.22365 0.0
H560 H 0.96751 0.53722 0.19459 0.0
H561 H 0.93222 0.54701 0.18917 0.0
H562 H 0.94358 0.61276 0.09517 0.0
H563 H 0.968 0.58135 0.06325 0.0
H564 H 0.9971 0.54601 0.14356 0.0
C565 C 0.94135 0.61487 0.21552 0.0
C566 C 0.92275 0.63486 0.21408 0.0
C567 C 0.91504 0.64308 0.18524 0.0
C568 C 0.92559 0.63196 0.15854 0.0
C569 C 0.94374 0.61226 0.16074 0.0
C570 C 0.95135 0.6036 0.18854 0.0
C571 C 0.97009 0.58124 0.18465 0.0
C572 C 1.00086 0.591 0.19793 0.0
C573 C 0.95448 0.55385 0.19886 0.0
C574 C 0.97184 0.57867 0.15042 0.0
C575 C 0.95679 0.59697 0.13699 0.0
C576 C 0.95549 0.59844 0.10557 0.0
C577 C 0.96968 0.58069 0.0875 0.0
C578 C 0.98484 0.56145 0.10074 0.0
C579 C 0.98579 0.56055 0.13268 0.0
H580 H 0.43398 0.19715 0.15613 0.0
H581 H 0.34334 0.16497 0.13137 0.0
H582 H 0.35938 0.12575 0.10445 0.0
H583 H 0.46716 0.18036 0.08592 0.0
H584 H 0.49894 0.17109 0.10319 0.0
H585 H 0.4802 0.19623 0.12128 0.0
H586 H 0.47317 0.1668 0.16985 0.0
H587 H 0.49178 0.1415 0.15184 0.0
H588 H 0.45517 0.13089 0.16771 0.0
H589 H 0.38524 0.09078 0.07912 0.0
H590 H 0.41936 0.06259 0.05654 0.0
H591 H 0.49329 0.11748 0.0976 0.0
C592 C 0.41753 0.18194 0.14491 0.0
C593 C 0.38737 0.18407 0.146 0.0
C594 C 0.3665 0.16355 0.13126 0.0
C595 C 0.3754 0.14126 0.1158 0.0
C596 C 0.40525 0.13973 0.11528 0.0
C597 C 0.42602 0.1595 0.1294 0.0
C598 C 0.45678 0.15317 0.12502 0.0
C599 C 0.47695 0.1766 0.10783 0.0
C600 C 0.46999 0.14777 0.15542 0.0
C601 C 0.45004 0.12686 0.10604 0.0
C602 C 0.42018 0.11945 0.10074 0.0
C603 C 0.40866 0.09629 0.0832 0.0
C604 C 0.42824 0.08042 0.07047 0.0
C605 C 0.45898 0.08776 0.07537 0.0
C606 C 0.46989 0.11117 0.09364 0.0
H607 H 0.16082 0.91977 0.59519 0.0
H608 H 0.2422 0.98045 0.59491 0.0
H609 H 0.21622 1.0149 0.57208 0.0
H610 H 0.13695 0.93791 0.52362 0.0
H611 H 0.09841 0.93161 0.53445 0.0
H612 H 0.12321 0.91267 0.5521 0.0
H613 H 0.10832 0.92971 0.60527 0.0
H614 H 0.08275 0.94738 0.5872 0.0
H615 H 0.11011 0.96637 0.61194 0.0
H616 H 0.18039 0.0425 0.54956 0.0
H617 H 0.13843 0.06024 0.52782 0.0
H618 H 0.08259 0.97954 0.54018 0.0
C619 C 0.17302 0.94047 0.59071 0.0
C620 C 0.20323 0.94782 0.59713 0.0
C621 C 0.21888 0.97472 0.59026 0.0
C622 C 0.20434 0.9943 0.57737 0.0
C623 C 0.17439 0.98633 0.5712 0.0
C624 C 0.15904 0.95995 0.57749 0.0
C625 C 0.12744 0.95592 0.56757 0.0
C626 C 0.12115 0.93319 0.54297 0.0
C627 C 0.10591 0.94951 0.59462 0.0
C628 C 0.12718 0.98428 0.55501 0.0
C629 C 0.15435 1.00166 0.55737 0.0
C630 C 0.15905 1.02905 0.54753 0.0
C631 C 0.13522 0.03891 0.53519 0.0
C632 C 0.10735 1.02127 0.53273 0.0
C633 C 0.10353 0.9936 0.54238 0.0
H634 H 0.81745 0.46914 0.90184 0.0
H635 H 0.79264 0.3933 0.953 0.0
H636 H 0.83501 0.40809 0.98596 0.0
H637 H 0.89584 0.47242 0.90464 0.0
H638 H 0.90512 0.50964 0.90904 0.0
H639 H 0.87201 0.49403 0.88979 0.0
H640 H 0.8411 0.51911 0.92661 0.0
H641 H 0.87416 0.53461 0.94606 0.0
H642 H 0.84362 0.51455 0.96669 0.0
H643 H 0.88066 0.42942 1.01248 0.0
H644 H 0.92748 0.45606 1.03102 0.0
H645 H 0.92467 0.51942 0.96434 0.0
C646 C 0.82078 0.4558 0.92018 0.0
C647 C 0.8016 0.42977 0.92446 0.0
C648 C 0.80708 0.41299 0.94869 0.0
C649 C 0.83107 0.42133 0.96778 0.0
C650 C 0.8497 0.44672 0.96272 0.0
C651 C 0.84495 0.46384 0.93961 0.0
C652 C 0.8692 0.48975 0.93893 0.0
C653 C 0.88657 0.49156 0.90881 0.0
C654 C 0.85622 0.51606 0.94493 0.0
C655 C 0.88833 0.48424 0.96501 0.0
C656 C 0.87641 0.45929 0.97838 0.0
C657 C 0.89014 0.44906 1.00228 0.0
C658 C 0.91689 0.46442 1.01265 0.0
C659 C 0.93005 0.48999 0.99934 0.0
C660 C 0.9152 0.50014 0.97532 0.0
H661 H 0.70296 0.6491 0.40835 0.0
H662 H 0.75617 0.59704 0.451 0.0
H663 H 0.71221 0.57352 0.47958 0.0
H664 H 0.65896 0.65848 0.47414 0.0
H665 H 0.62542 0.6578 0.45377 0.0
H666 H 0.66068 0.66959 0.43547 0.0
H667 H 0.64687 0.63305 0.39282 0.0
H668 H 0.61155 0.62115 0.41099 0.0
H669 H 0.63564 0.59694 0.4023 0.0
H670 H 0.66203 0.5555 0.50397 0.0
H671 H 0.61059 0.54637 0.52385 0.0
H672 H 0.58991 0.61094 0.46694 0.0
C673 C 0.70527 0.63255 0.42347 0.0
C674 C 0.73315 0.6249 0.42729 0.0
C675 C 0.73521 0.60342 0.44774 0.0
C676 C 0.71028 0.58983 0.46401 0.0
C677 C 0.68323 0.59799 0.45992 0.0
C678 C 0.6806 0.61897 0.44026 0.0
C679 C 0.6492 0.62449 0.44097 0.0
C680 C 0.64854 0.65436 0.45173 0.0
C681 C 0.63498 0.61855 0.40992 0.0
C682 C 0.63464 0.60344 0.46409 0.0
C683 C 0.6546 0.58815 0.47453 0.0
C684 C 0.64626 0.56736 0.49588 0.0
C685 C 0.61691 0.56217 0.50694 0.0
C686 C 0.59614 0.57776 0.49686 0.0
C687 C 0.60528 0.59868 0.47514 0.0
H688 H 0.26976 0.39345 0.11331 0.0
H689 H 0.26556 0.41072 0.20954 0.0
H690 H 0.22225 0.43231 0.20226 0.0
H691 H 0.24295 0.4564 0.08801 0.0
H692 H 0.22191 0.43747 0.05803 0.0
H693 H 0.25538 0.42726 0.07005 0.0
H694 H 0.22645 0.37743 0.07951 0.0
H695 H 0.19288 0.38753 0.06788 0.0
H696 H 0.19457 0.37248 0.10448 0.0
H697 H 0.1755 0.44592 0.18602 0.0
H698 H 0.13054 0.45394 0.16083 0.0
H699 H 0.16453 0.42752 0.07541 0.0
C700 C 0.26013 0.40231 0.13276 0.0
C701 C 0.27138 0.40059 0.16194 0.0
C702 C 0.25795 0.41233 0.18682 0.0
C703 C 0.23311 0.42447 0.18298 0.0
C704 C 0.22199 0.4249 0.15411 0.0
C705 C 0.23526 0.41448 0.12933 0.0
C706 C 0.21767 0.41575 0.1011 0.0
C707 C 0.23555 0.4354 0.07793 0.0
C708 C 0.20728 0.38656 0.08746 0.0
C709 C 0.19199 0.42767 0.11409 0.0
C710 C 0.19498 0.43294 0.14468 0.0
C711 C 0.17312 0.44232 0.16198 0.0
C712 C 0.1476 0.44659 0.14757 0.0
C713 C 0.14422 0.44149 0.11621 0.0
C714 C 0.16682 0.43206 0.09932 0.0
H715 H 0.60962 0.21199 0.88626 0.0
H716 H 0.58148 0.2677 0.95306 0.0
H717 H 0.56133 0.22763 0.98522 0.0
H718 H 0.5454 0.15734 0.89467 0.0
H719 H 0.56574 0.12955 0.88929 0.0
H720 H 0.57886 0.16267 0.87201 0.0
H721 H 0.62915 0.16581 0.89795 0.0
H722 H 0.61611 0.13275 0.91545 0.0
H723 H 0.63012 0.16283 0.93837 0.0
H724 H 0.54521 0.18094 1.01129 0.0
H725 H 0.53024 0.1318 1.0263 0.0
H726 H 0.56594 0.10564 0.94166 0.0
C727 C 0.59929 0.21577 0.90769 0.0
C728 C 0.59724 0.24325 0.917 0.0
C729 C 0.58318 0.24702 0.94515 0.0
C730 C 0.57181 0.22431 0.96374 0.0
C731 C 0.57422 0.19759 0.95396 0.0
C732 C 0.5873 0.19317 0.92639 0.0
C733 C 0.58597 0.16222 0.92069 0.0
C734 C 0.56791 0.15237 0.89249 0.0
C735 C 0.6172 0.15552 0.91795 0.0
C736 C 0.57013 0.14993 0.94927 0.0
C737 C 0.56392 0.17074 0.96837 0.0
C738 C 0.54986 0.16455 0.99636 0.0
C739 C 0.54153 0.1365 1.0048 0.0
C740 C 0.54678 0.11471 0.98523 0.0
C741 C 0.5615 0.12174 0.95716 0.0
H742 H 0.9275 0.82537 0.45449 0.0
H743 H 0.94879 0.84622 0.36101 0.0
H744 H 0.96986 0.89451 0.37642 0.0
H745 H 0.90865 0.89072 0.47878 0.0
H746 H 0.92588 0.89132 0.51495 0.0
H747 H 0.91157 0.85862 0.49669 0.0
H748 H 0.96271 0.84436 0.49993 0.0
H749 H 0.9771 0.87697 0.51834 0.0
H750 H 0.99482 0.86681 0.48443 0.0
H751 H 0.9866 0.9413 0.40181 0.0
H752 H 1.00316 0.98159 0.43548 0.0
H753 H 0.97531 0.93015 0.51337 0.0
C754 C 0.93662 0.84017 0.43733 0.0
C755 C 0.93638 0.83205 0.40645 0.0
C756 C 0.9488 0.85193 0.38472 0.0
C757 C 0.96069 0.87945 0.39328 0.0
C758 C 0.96054 0.88685 0.42382 0.0
C759 C 0.94928 0.86768 0.44561 0.0
C760 C 0.95312 0.88084 0.477 0.0
C761 C 0.92301 0.88034 0.49278 0.0
C762 C 0.97313 0.86638 0.49604 0.0
C763 C 0.96807 0.91039 0.46945 0.0
C764 C 0.97171 0.91347 0.43859 0.0
C765 C 0.98407 0.93902 0.42601 0.0
C766 C 0.99331 0.96189 0.44537 0.0
C767 C 0.99073 0.95919 0.47715 0.0
C768 C 0.97783 0.93295 0.48922 0.0
H769 H 0.31974 0.73754 0.52107 0.0
H770 H 0.25092 0.69417 0.58 0.0
H771 H 0.27145 0.65159 0.57392 0.0
H772 H 0.3337 0.67143 0.47435 0.0
H773 H 0.37266 0.68572 0.47368 0.0
H774 H 0.34616 0.70843 0.47169 0.0
H775 H 0.37052 0.73626 0.51755 0.0
H776 H 0.39639 0.71343 0.5204 0.0
H777 H 0.37316 0.71853 0.55244 0.0
H778 H 0.30762 0.62111 0.57719 0.0
H779 H 0.3535 0.6035 0.58472 0.0
H780 H 0.39992 0.66529 0.52313 0.0
C781 C 0.30811 0.71854 0.53116 0.0
C782 C 0.28387 0.71904 0.55095 0.0
C783 C 0.26927 0.69411 0.56434 0.0
C784 C 0.2809 0.66979 0.56108 0.0
C785 C 0.30678 0.67069 0.54396 0.0
C786 C 0.31976 0.69424 0.52834 0.0
C787 C 0.3503 0.69189 0.5166 0.0
C788 C 0.35071 0.6892 0.48202 0.0
C789 C 0.37394 0.71646 0.52743 0.0
C790 C 0.35375 0.66498 0.53099 0.0
C791 C 0.32809 0.65255 0.54579 0.0
C792 C 0.32745 0.62996 0.56466 0.0
C793 C 0.3537 0.62014 0.56891 0.0
C794 C 0.38032 0.63306 0.55452 0.0
C795 C 0.37993 0.65508 0.53453 0.0
H796 H 0.82203 0.82858 0.70789 0.0
H797 H 0.86154 0.82736 0.79549 0.0
H798 H 0.91075 0.84532 0.77304 0.0
H799 H 0.88654 0.8123 0.6614 0.0
H800 H 0.88099 0.83597 0.63231 0.0
H801 H 0.84987 0.81797 0.65391 0.0
H802 H 0.8354 0.8651 0.66871 0.0
H803 H 0.86647 0.88319 0.64737 0.0
H804 H 0.86213 0.89153 0.68676 0.0
H805 H 0.95357 0.86965 0.74344 0.0
H806 H 0.98726 0.89966 0.7089 0.0
H807 H 0.92084 0.88484 0.63954 0.0
C808 C 0.84128 0.83124 0.72197 0.0
C809 C 0.83834 0.82638 0.75323 0.0
C810 C 0.86364 0.83086 0.77141 0.0
C811 C 0.8916 0.8409 0.75885 0.0
C812 C 0.89381 0.84629 0.72806 0.0
C813 C 0.86939 0.84153 0.70977 0.0
C814 C 0.87734 0.85221 0.67822 0.0
C815 C 0.87346 0.82817 0.65509 0.0
C816 C 0.85927 0.87432 0.66979 0.0
C817 C 0.90965 0.8648 0.68208 0.0
C818 C 0.91882 0.86067 0.71082 0.0
C819 C 0.94692 0.87246 0.72061 0.0
C820 C 0.966 0.88941 0.70071 0.0
C821 C 0.95686 0.89454 0.67135 0.0
C822 C 0.92853 0.8814 0.66181 0.0
H823 H 0.67611 0.17505 0.31334 0.0
H824 H 0.74078 0.12147 0.31768 0.0
H825 H 0.73053 0.10636 0.26481 0.0
H826 H 0.62387 0.12775 0.27247 0.0
H827 H 0.61147 0.1537 0.25029 0.0
H828 H 0.6262 0.16259 0.28716 0.0
H829 H 0.66482 0.20247 0.2642 0.0
H830 H 0.65023 0.19364 0.22719 0.0
H831 H 0.68888 0.1949 0.23386 0.0
H832 H 0.71191 0.09567 0.21296 0.0
H833 H 0.68319 0.08671 0.16648 0.0
H834 H 0.62898 0.14592 0.19615 0.0
C835 C 0.68837 0.16047 0.30287 0.0
C836 C 0.70938 0.1495 0.31918 0.0
C837 C 0.72464 0.13002 0.30529 0.0
C838 C 0.71909 0.12151 0.27533 0.0
C839 C 0.69809 0.13257 0.25983 0.0
C840 C 0.68276 0.15143 0.27314 0.0
C841 C 0.65958 0.1583 0.25232 0.0
C842 C 0.62844 0.15008 0.2664 0.0
C843 C 0.66629 0.18916 0.24389 0.0
C844 C 0.66392 0.13994 0.22544 0.0
C845 C 0.68662 0.1257 0.23007 0.0
C846 C 0.69428 0.10688 0.20891 0.0
C847 C 0.67795 0.10207 0.18251 0.0
C848 C 0.65405 0.11583 0.17763 0.0
C849 C 0.64721 0.13523 0.19928 0.0
H850 H 0.40864 0.65508 0.36401 0.0
H851 H 0.45234 0.62182 0.28799 0.0
H852 H 0.47498 0.59338 0.3226 0.0
H853 H 0.46978 0.65934 0.41545 0.0
H854 H 0.44675 0.64954 0.44832 0.0
H855 H 0.43302 0.66696 0.41772 0.0
H856 H 0.38807 0.62684 0.41354 0.0
H857 H 0.40172 0.60931 0.4441 0.0
H858 H 0.39399 0.59172 0.40833 0.0
H859 H 0.49287 0.56777 0.36506 0.0
H860 H 0.50681 0.54871 0.41252 0.0
H861 H 0.4537 0.59878 0.463 0.0
C862 C 0.42286 0.64171 0.35465 0.0
C863 C 0.42866 0.64096 0.32295 0.0
C864 C 0.44769 0.62324 0.31196 0.0
C865 C 0.4606 0.60678 0.33152 0.0
C866 C 0.45464 0.60812 0.36245 0.0
C867 C 0.4364 0.62525 0.3741 0.0
C868 C 0.43455 0.62319 0.40851 0.0
C869 C 0.44676 0.65144 0.42337 0.0
C870 C 0.40268 0.6121 0.41924 0.0
C871 C 0.45448 0.6022 0.41424 0.0
C872 C 0.4656 0.59371 0.38721 0.0
C873 C 0.4843 0.57435 0.38633 0.0
C874 C 0.49208 0.56353 0.4136 0.0
C875 C 0.4815 0.57201 0.44187 0.0
C876 C 0.46229 0.59169 0.44196 0.0
H877 H 0.13497 0.47265 0.83785 0.0
H878 H 0.07987 0.3911 0.84728 0.0
H879 H 0.05512 0.40781 0.89184 0.0
H880 H 0.14348 0.48798 0.91856 0.0
H881 H 0.14169 0.52419 0.91484 0.0
H882 H 0.15587 0.50578 0.88404 0.0
H883 H 0.11751 0.51987 0.84851 0.0
H884 H 0.10325 0.53834 0.87919 0.0
H885 H 0.07884 0.51173 0.85873 0.0
H886 H 0.03526 0.43351 0.93532 0.0
H887 H 0.0212 0.46655 0.97313 0.0
H888 H 0.08873 0.53185 0.93659 0.0
C889 C 0.1179 0.45821 0.84944 0.0
C890 C 0.10942 0.43043 0.83864 0.0
C891 C 0.08664 0.4125 0.85453 0.0
C892 C 0.07251 0.42178 0.88012 0.0
C893 C 0.08119 0.44921 0.88996 0.0
C894 C 0.10334 0.46722 0.8751 0.0
C895 C 0.1078 0.49592 0.89 0.0
C896 C 0.13907 0.50394 0.9026 0.0
C897 C 0.10147 0.51775 0.86778 0.0
C898 C 0.08464 0.49125 0.91538 0.0
C899 C 0.06967 0.46407 0.91501 0.0
C900 C 0.04699 0.45479 0.93587 0.0
C901 C 0.03921 0.47374 0.95743 0.0
C902 C 0.05395 0.50181 0.9582 0.0
C903 C 0.07712 0.51051 0.93685 0.0
H904 H 0.60151 0.88291 0.90544 0.0
H905 H 0.69009 0.91361 0.93756 0.0
H906 H 0.67303 0.95322 0.96226 0.0
H907 H 0.58273 0.94901 0.89068 0.0
H908 H 0.54505 0.93965 0.90405 0.0
H909 H 0.56388 0.91336 0.8886 0.0
H910 H 0.55274 0.88509 0.93774 0.0
H911 H 0.53363 0.91117 0.9532 0.0
H912 H 0.56359 0.90156 0.97345 0.0
H913 H 0.64734 0.9898 0.98249 0.0
H914 H 0.61335 1.01991 1.00061 0.0
H915 H 0.54057 0.96538 0.95717 0.0
C916 C 0.61722 0.89781 0.91793 0.0
C917 C 0.64726 0.89533 0.91916 0.0
C918 C 0.66714 0.91538 0.93567 0.0
C919 C 0.65765 0.9379 0.94992 0.0
C920 C 0.62813 0.94004 0.94773 0.0
C921 C 0.60807 0.92046 0.93249 0.0
C922 C 0.57747 0.92768 0.93411 0.0
C923 C 0.56666 0.93273 0.90247 0.0
C924 C 0.55557 0.90503 0.95061 0.0
C925 C 0.58361 0.9544 0.95256 0.0
C926 C 0.61303 0.96113 0.96 0.0
C927 C 0.62421 0.98475 0.97693 0.0
C928 C 0.60469 1.00176 0.98705 0.0
C929 C 0.57427 0.99503 0.98033 0.0
C930 C 0.56371 0.97116 0.96256 0.0
H931 H 0.82648 0.0799 0.50871 0.0
H932 H 0.84114 0.13221 0.58892 0.0
H933 H 0.88358 0.11066 0.60142 0.0
H934 H 0.84964 1.01722 0.54209 0.0
H935 H 0.8665 1.00903 0.50686 0.0
H936 H 0.83462 1.02546 0.50689 0.0
H937 H 0.8638 0.06496 0.47409 0.0
H938 H 0.89591 0.04905 0.47443 0.0
H939 H 0.89833 0.08444 0.4874 0.0
H940 H 0.92847 0.08961 0.60054 0.0
H941 H 0.97069 0.06626 0.58926 0.0
H942 H 0.92582 1.02582 0.51112 0.0
C943 C 0.83785 0.08602 0.52956 0.0
C944 C 0.83055 0.10769 0.54789 0.0
C945 C 0.84654 0.11575 0.5745 0.0
C946 C 0.87055 0.10356 0.58184 0.0
C947 C 0.87794 0.0831 0.56256 0.0
C948 C 0.86175 0.07395 0.53729 0.0
C949 C 0.87571 0.0532 0.51909 0.0
C950 C 0.85541 1.02452 0.51873 0.0
C951 C 0.88392 0.06355 0.48686 0.0
C952 C 0.90292 0.05298 0.53743 0.0
C953 C 0.90368 0.07031 0.56249 0.0
C954 C 0.92782 0.07548 0.58144 0.0
C955 C 0.9517 0.06239 0.57476 0.0
C956 C 0.95105 0.04436 0.5495 0.0
C957 C 0.92639 0.03935 0.53074 0.0
H958 H 0.20018 0.6578 0.14365 0.0
H959 H 0.25973 0.60443 0.11147 0.0
H960 H 0.21937 0.5763 0.08261 0.0
H961 H 0.13415 0.60394 0.15035 0.0
H962 H 0.10954 0.62545 0.13694 0.0
H963 H 0.14274 0.64105 0.15608 0.0
H964 H 0.15867 0.67289 0.11037 0.0
H965 H 0.1256 0.65727 0.09102 0.0
H966 H 0.16124 0.65758 0.07338 0.0
H967 H 0.1727 0.55293 0.05835 0.0
H968 H 0.1229 0.53671 0.03835 0.0
H969 H 0.09262 0.60627 0.08233 0.0
C970 C 0.20457 0.64005 0.13069 0.0
C971 C 0.23324 0.63327 0.12995 0.0
C972 C 0.23811 0.61009 0.11237 0.0
C973 C 0.21526 0.59395 0.0959 0.0
C974 C 0.18745 0.60128 0.09677 0.0
C975 C 0.18193 0.62385 0.11353 0.0
C976 C 0.15003 0.6274 0.10969 0.0
C977 C 0.13311 0.62427 0.14007 0.0
C978 C 0.14882 0.65546 0.09525 0.0
C979 C 0.13855 0.6033 0.08827 0.0
C980 C 0.1606 0.58843 0.08144 0.0
C981 C 0.15538 0.5646 0.06329 0.0
C982 C 0.12696 0.55554 0.05199 0.0
C983 C 0.10388 0.57038 0.05827 0.0
C984 C 0.10992 0.59481 0.07651 0.0
H985 H 0.33686 0.4256 0.63972 0.0
H986 H 0.28091 0.48013 0.60632 0.0
H987 H 0.32307 0.5055 0.57682 0.0
H988 H 0.40357 0.47713 0.6455 0.0
H989 H 0.42738 0.45375 0.633 0.0
H990 H 0.39302 0.44043 0.65231 0.0
H991 H 0.37723 0.40676 0.6075 0.0
H992 H 0.41155 0.41996 0.58808 0.0
H993 H 0.377 0.42043 0.57002 0.0
H994 H 0.37197 0.52477 0.54955 0.0
H995 H 0.42262 0.53547 0.52741 0.0
H996 H 0.44619 0.4679 0.57757 0.0
C997 C 0.33326 0.44274 0.6261 0.0
C998 C 0.3052 0.45075 0.62574 0.0
C999 C 0.30204 0.47369 0.6077 0.0
C1000 C 0.32592 0.4882 0.59058 0.0
C1001 C 0.35311 0.47967 0.59144 0.0
C1002 C 0.35686 0.45743 0.60875 0.0
C1003 C 0.38824 0.45217 0.60546 0.0
C1004 C 0.40398 0.45611 0.63588 0.0
C1005 C 0.38851 0.42311 0.59196 0.0
C1006 C 0.40152 0.47478 0.58349 0.0
C1007 C 0.38096 0.49053 0.57571 0.0
C1008 C 0.38819 0.51255 0.5556 0.0
C1009 C 0.41705 0.51855 0.54315 0.0
C1010 C 0.43846 0.5027 0.55086 0.0
C1011 C 0.43037 0.48048 0.57125 0.0
H1012 H 0.79637 0.71575 0.93446 0.0
H1013 H 0.73106 0.64195 0.91574 0.0
H1014 H 0.76613 0.61259 0.93192 0.0
H1015 H 0.85688 0.68969 0.90544 0.0
H1016 H 0.88253 0.70678 0.93296 0.0
H1017 H 0.85125 0.72171 0.92315 0.0
H1018 H 0.83466 0.72177 0.97939 0.0
H1019 H 0.86603 0.70698 0.98943 0.0
H1020 H 0.82931 0.68988 1.00023 0.0
H1021 H 0.80977 0.59156 0.94777 0.0
H1022 H 0.85806 0.58062 0.96097 0.0
H1023 H 0.89482 0.66875 0.96655 0.0
C1024 C 0.78911 0.69343 0.9346 0.0
C1025 C 0.76085 0.68107 0.9244 0.0
C1026 C 0.75257 0.65177 0.92376 0.0
C1027 C 0.7723 0.63499 0.93294 0.0
C1028 C 0.80022 0.6479 0.94246 0.0
C1029 C 0.80856 0.67648 0.94332 0.0
C1030 C 0.84043 0.68533 0.95227 0.0
C1031 C 0.85884 0.70184 0.92694 0.0
C1032 C 0.84273 0.70197 0.98211 0.0
C1033 C 0.84888 0.65727 0.95613 0.0
C1034 C 0.82539 0.63591 0.95063 0.0
C1035 C 0.82826 0.60816 0.95218 0.0
C1036 C 0.85587 0.60215 0.95945 0.0
C1037 C 0.88035 0.6238 0.96481 0.0
C1038 C 0.87654 0.65167 0.96318 0.0
H1039 H 0.42692 0.86832 0.16294 0.0
H1040 H 0.44362 0.81578 0.08706 0.0
H1041 H 0.46295 0.8572 0.05733 0.0
H1042 H 0.40583 0.92311 0.12016 0.0
H1043 H 0.42455 0.9509 0.14375 0.0
H1044 H 0.41116 0.91713 0.15949 0.0
H1045 H 0.46355 0.91515 0.17802 0.0
H1046 H 0.47704 0.94901 0.16254 0.0
H1047 H 0.49415 0.92011 0.15143 0.0
H1048 H 0.47942 0.90458 0.0344 0.0
H1049 H 0.49603 0.95412 1.02217 0.0
H1050 H 0.47244 0.97714 0.11307 0.0
C1051 C 0.43485 0.86539 0.14019 0.0
C1052 C 0.43283 0.83822 0.12747 0.0
C1053 C 0.44368 0.83593 0.09742 0.0
C1054 C 0.45505 0.85951 0.08022 0.0
C1055 C 0.45608 0.88576 0.09317 0.0
C1056 C 0.44669 0.8889 0.12262 0.0
C1057 C 0.4511 0.91966 0.13121 0.0
C1058 C 0.42139 0.9282 0.13912 0.0
C1059 C 0.47275 0.92637 0.15735 0.0
C1060 C 0.46436 0.93318 0.10203 0.0
C1061 C 0.46675 0.91316 0.0803 0.0
C1062 C 0.47783 0.9204 0.05136 0.0
C1063 C 0.48716 0.94869 0.04455 0.0
C1064 C 0.48575 0.96971 0.06658 0.0
C1065 C 0.47394 0.96166 0.09569 0.0
H1066 H 0.12365 0.23887 0.60572 0.0
H1067 H 0.10471 0.21876 0.69975 0.0
H1068 H 0.08577 0.16975 0.68534 0.0
H1069 H 0.05756 0.19456 0.57738 0.0
H1070 H 0.07532 0.18473 0.54335 0.0
H1071 H 0.08861 0.21789 0.56112 0.0
H1072 H 0.14084 0.2059 0.56378 0.0
H1073 H 0.12763 0.17266 0.54614 0.0
H1074 H 0.14556 0.17447 0.58203 0.0
H1075 H 0.07048 0.12224 0.66074 0.0
H1076 H 0.05483 0.08124 0.62772 0.0
H1077 H 0.07958 0.13233 0.54896 0.0
C1078 C 0.11556 0.22407 0.62321 0.0
C1079 C 0.11583 0.23261 0.65396 0.0
C1080 C 0.10471 0.2127 0.67614 0.0
C1081 C 0.09402 0.18478 0.66814 0.0
C1082 C 0.09407 0.17698 0.63771 0.0
C1083 C 0.10413 0.19612 0.61551 0.0
C1084 C 0.10035 0.18248 0.58437 0.0
C1085 C 0.0792 0.1957 0.56544 0.0
C1086 C 0.13039 0.18397 0.56813 0.0
C1087 C 0.08678 0.15271 0.59252 0.0
C1088 C 0.08377 0.14993 0.62346 0.0
C1089 C 0.07256 0.12428 0.63648 0.0
C1090 C 0.06384 0.10101 0.61751 0.0
C1091 C 0.06581 0.1034 0.58568 0.0
C1092 C 0.07756 0.12974 0.57317 0.0
H1093 H 0.67294 0.30496 0.53058 0.0
H1094 H 0.76044 0.35004 0.50758 0.0
H1095 H 0.74112 0.39381 0.50683 0.0
H1096 H 0.63679 0.33602 0.48175 0.0
H1097 H 0.60431 0.33745 0.50463 0.0
H1098 H 0.62572 0.31117 0.51129 0.0
H1099 H 0.63252 0.32714 0.56712 0.0
H1100 H 0.61045 0.35319 0.56089 0.0
H1101 H 0.64698 0.36308 0.57586 0.0
H1102 H 0.71088 0.43045 0.49944 0.0
H1103 H 0.67225 0.45719 0.48711 0.0
H1104 H 0.60465 0.38761 0.51413 0.0
C1105 C 0.68831 0.32424 0.52691 0.0
C1106 C 0.71818 0.32429 0.5195 0.0
C1107 C 0.73747 0.34972 0.5135 0.0
C1108 C 0.72672 0.37464 0.51315 0.0
C1109 C 0.69674 0.37367 0.51906 0.0
C1110 C 0.67787 0.34915 0.52625 0.0
C1111 C 0.64603 0.3528 0.5275 0.0
C1112 C 0.62714 0.33321 0.50494 0.0
C1113 C 0.63325 0.34882 0.55977 0.0
C1114 C 0.64976 0.38273 0.51815 0.0
C1115 C 0.67916 0.39467 0.51409 0.0
C1116 C 0.68782 0.42154 0.5032 0.0
C1117 C 0.6658 0.43651 0.49617 0.0
C1118 C 0.63561 0.42431 0.49961 0.0
C1119 C 0.62761 0.3973 0.51117 0.0
loop_
_geom_bond_atom_site_label_1
_geom_bond_atom_site_label_2
_geom_bond_distance
_geom_bond_site_symmetry_2
_ccdc_geom_bond_type
C0 C1 1.386 . S
C0 C2 1.397 . S
C0 H24 0.931 . S
C1 C0 1.386 . S
C1 C5 1.397 . S
C2 C0 1.397 . S
C2 C3 1.384 . S
C2 H25 0.930 . S
C3 C2 1.384 . S
C3 C4 1.377 . S
C3 C6 1.481 . S
C4 C3 1.377 . S
C4 C5 1.389 . S
C4 H26 0.929 . S
C5 C1 1.397 . S
C5 C4 1.389 . S
C5 H27 0.931 . S
C6 C3 1.481 . S
C6 C7 1.387 . S
C6 C11 1.390 . S
C7 C6 1.387 . S
C7 C8 1.401 . S
C7 H28 0.930 . S
C8 C7 1.401 . S
C8 C9 1.376 . S
C8 C17 1.511 . S
C9 C8 1.376 . S
C9 C10 1.392 . S
C9 H30 0.931 . S
C10 C9 1.392 . S
C10 C11 1.361 . S
C10 C12 1.500 . S
C11 C6 1.390 . S
C11 C10 1.361 . S
C11 H29 0.931 . S
C12 C10 1.500 . S
C12 C13 1.371 . S
C12 C14 1.365 . S
C13 C12 1.371 . S
C13 C23 1.386 . S
C13 H31 0.931 . S
C14 C12 1.365 . S
C14 C15 1.409 . S
C14 H32 0.929 . S
C15 C14 1.409 . S
C15 C16 1.380 . S
C15 H33 0.930 . S
C16 C15 1.380 . S
C16 C23 1.357 . S
C17 C8 1.511 . S
C17 C18 1.341 . S
C17 C19 1.371 . S
C18 C17 1.341 . S
C18 C22 1.394 . S
C18 H34 0.930 . S
C19 C17 1.371 . S
C19 C20 1.392 . S
C19 H35 0.931 . S
C20 C19 1.392 . S
C20 C21 1.331 . S
C20 H38 0.932 . S
C21 C20 1.331 . S
C21 C22 1.336 . S
C22 C18 1.394 . S
C22 C21 1.336 . S
C22 H37 0.929 . S
C23 C13 1.386 . S
C23 C16 1.357 . S
C23 H36 0.928 . S
H24 C0 0.931 . S
H25 C2 0.930 . S
H26 C4 0.929 . S
H27 C5 0.931 . S
H28 C7 0.930 . S
H29 C11 0.931 . S
H30 C9 0.931 . S
H31 C13 0.931 . S
H32 C14 0.929 . S
H33 C15 0.930 . S
H34 C18 0.930 . S
H35 C19 0.931 . S
H36 C23 0.928 . S
H37 C22 0.929 . S
H38 C20 0.932 . S
C39 C40 1.386 . S
C39 C41 1.397 . S
C39 H63 0.931 . S
C40 C39 1.386 . S
C40 C44 1.397 . S
C41 C39 1.397 . S
C41 C42 1.384 . S
C41 H64 0.930 . S
C42 C41 1.384 . S
C42 C43 1.377 . S
C42 C45 1.481 . S
C43 C42 1.377 . S
C43 C44 1.389 . S
C43 H65 0.929 . S
C44 C40 1.397 . S
C44 C43 1.389 . S
C44 H66 0.931 . S
C45 C42 1.481 . S
C45 C46 1.387 . S
C45 C50 1.390 . S
C46 C45 1.387 . S
C46 C47 1.401 . S
C46 H67 0.930 . S
C47 C46 1.401 . S
C47 C48 1.376 . S
C47 C56 1.511 . S
C48 C47 1.376 . S
C48 C49 1.392 . S
C48 H69 0.931 . S
C49 C48 1.392 . S
C49 C50 1.361 . S
C49 C51 1.500 . S
C50 C45 1.390 . S
C50 C49 1.361 . S
C50 H68 0.931 . S
C51 C49 1.500 . S
C51 C52 1.371 . S
C51 C53 1.365 . S
C52 C51 1.371 . S
C52 C62 1.386 . S
C52 H70 0.931 . S
C53 C51 1.365 . S
C53 C54 1.409 . S
C53 H71 0.929 . S
C54 C53 1.409 . S
C54 C55 1.380 . S
C54 H72 0.930 . S
C55 C54 1.380 . S
C55 C62 1.357 . S
C56 C47 1.511 . S
C56 C57 1.341 . S
C56 C58 1.371 . S
C57 C56 1.341 . S
C57 C61 1.394 . S
C57 H73 0.930 . S
C58 C56 1.371 . S
C58 C59 1.392 . S
C58 H74 0.931 . S
C59 C58 1.392 . S
C59 C60 1.331 . S
C59 H77 0.932 . S
C60 C59 1.331 . S
C60 C61 1.336 . S
C61 C57 1.394 . S
C61 C60 1.336 . S
C61 H76 0.929 . S
C62 C52 1.386 . S
C62 C55 1.357 . S
C62 H75 0.928 . S
H63 C39 0.931 . S
H64 C41 0.930 . S
H65 C43 0.929 . S
H66 C44 0.931 . S
H67 C46 0.930 . S
H68 C50 0.931 . S
H69 C48 0.931 . S
H70 C52 0.931 . S
H71 C53 0.929 . S
H72 C54 0.930 . S
H73 C57 0.930 . S
H74 C58 0.931 . S
H75 C62 0.928 . S
H76 C61 0.929 . S
H77 C59 0.932 . S
C78 C79 1.386 . S
C78 C80 1.397 . S
C78 H102 0.931 . S
C79 C78 1.386 . S
C79 C83 1.397 . S
C80 C78 1.397 . S
C80 C81 1.384 . S
C80 H103 0.930 . S
C81 C80 1.384 . S
C81 C82 1.377 . S
C81 C84 1.481 . S
C82 C81 1.377 . S
C82 C83 1.389 . S
C82 H104 0.929 . S
C83 C79 1.397 . S
C83 C82 1.389 . S
C83 H105 0.931 . S
C84 C81 1.481 . S
C84 C85 1.387 . S
C84 C89 1.390 . S
C85 C84 1.387 . S
C85 C86 1.401 . S
C85 H106 0.930 . S
C86 C85 1.401 . S
C86 C87 1.376 . S
C86 C95 1.511 . S
C87 C86 1.376 . S
C87 C88 1.392 . S
C87 H108 0.931 . S
C88 C87 1.392 . S
C88 C89 1.361 . S
C88 C90 1.500 . S
C89 C84 1.390 . S
C89 C88 1.361 . S
C89 H107 0.931 . S
C90 C88 1.500 . S
C90 C91 1.371 . S
C90 C92 1.365 . S
C91 C90 1.371 . S
C91 C101 1.386 . S
C91 H109 0.931 . S
C92 C90 1.365 . S
C92 C93 1.409 . S
C92 H110 0.929 . S
C93 C92 1.409 . S
C93 C94 1.380 . S
C93 H111 0.930 . S
C94 C93 1.380 . S
C94 C101 1.357 . S
C95 C86 1.511 . S
C95 C96 1.341 . S
C95 C97 1.371 . S
C96 C95 1.341 . S
C96 C100 1.394 . S
C96 H112 0.930 . S
C97 C95 1.371 . S
C97 C98 1.392 . S
C97 H113 0.931 . S
C98 C97 1.392 . S
C98 C99 1.331 . S
C98 H116 0.932 . S
C99 C98 1.331 . S
C99 C100 1.336 . S
C100 C96 1.394 . S
C100 C99 1.336 . S
C100 H115 0.929 . S
C101 C91 1.386 . S
C101 C94 1.357 . S
C101 H114 0.928 . S
H102 C78 0.931 . S
H103 C80 0.930 . S
H104 C82 0.929 . S
H105 C83 0.931 . S
H106 C85 0.930 . S
H107 C89 0.931 . S
H108 C87 0.931 . S
H109 C91 0.931 . S
H110 C92 0.929 . S
H111 C93 0.930 . S
H112 C96 0.930 . S
H113 C97 0.931 . S
H114 C101 0.928 . S
H115 C100 0.929 . S
H116 C98 0.932 . S
C117 C118 1.386 . S
C117 C119 1.397 . S
C117 H141 0.931 . S
C118 C117 1.386 . S
C118 C122 1.397 . S
C119 C117 1.397 . S
C119 C120 1.384 . S
C119 H142 0.930 . S
C120 C119 1.384 . S
C120 C121 1.377 . S
C120 C123 1.481 . S
C121 C120 1.377 . S
C121 C122 1.389 . S
C121 H143 0.929 . S
C122 C118 1.397 . S
C122 C121 1.389 . S
C122 H144 0.931 . S
C123 C120 1.481 . S
C123 C124 1.387 . S
C123 C128 1.390 . S
C124 C123 1.387 . S
C124 C125 1.401 . S
C124 H145 0.930 . S
C125 C124 1.401 . S
C125 C126 1.376 . S
C125 C134 1.511 . S
C126 C125 1.376 . S
C126 C127 1.392 . S
C126 H147 0.931 . S
C127 C126 1.392 . S
C127 C128 1.361 . S
C127 C129 1.500 . S
C128 C123 1.390 . S
C128 C127 1.361 . S
C128 H146 0.931 . S
C129 C127 1.500 . S
C129 C130 1.371 . S
C129 C131 1.365 . S
C130 C129 1.371 . S
C130 C140 1.386 . S
C130 H148 0.931 . S
C131 C129 1.365 . S
C131 C132 1.409 . S
C131 H149 0.929 . S
C132 C131 1.409 . S
C132 C133 1.380 . S
C132 H150 0.930 . S
C133 C132 1.380 . S
C133 C140 1.357 . S
C134 C125 1.511 . S
C134 C135 1.341 . S
C134 C136 1.371 . S
C135 C134 1.341 . S
C135 C139 1.394 . S
C135 H151 0.930 . S
C136 C134 1.371 . S
C136 C137 1.392 . S
C136 H152 0.931 . S
C137 C136 1.392 . S
C137 C138 1.331 . S
C137 H155 0.932 . S
C138 C137 1.331 . S
C138 C139 1.336 . S
C139 C135 1.394 . S
C139 C138 1.336 . S
C139 H154 0.929 . S
C140 C130 1.386 . S
C140 C133 1.357 . S
C140 H153 0.928 . S
H141 C117 0.931 . S
H142 C119 0.930 . S
H143 C121 0.929 . S
H144 C122 0.931 . S
H145 C124 0.930 . S
H146 C128 0.931 . S
H147 C126 0.931 . S
H148 C130 0.931 . S
H149 C131 0.929 . S
H150 C132 0.930 . S
H151 C135 0.930 . S
H152 C136 0.931 . S
H153 C140 0.928 . S
H154 C139 0.929 . S
H155 C137 0.932 . S
C156 C157 1.386 . S
C156 C158 1.397 . S
C156 H180 0.931 . S
C157 C156 1.386 . S
C157 C161 1.397 . S
C158 C156 1.397 . S
C158 C159 1.384 . S
C158 H181 0.930 . S
C159 C158 1.384 . S
C159 C160 1.377 . S
C159 C162 1.481 . S
C160 C159 1.377 . S
C160 C161 1.389 . S
C160 H182 0.929 . S
C161 C157 1.397 . S
C161 C160 1.389 . S
C161 H183 0.931 . S
C162 C159 1.481 . S
C162 C163 1.387 . S
C162 C167 1.390 . S
C163 C162 1.387 . S
C163 C164 1.401 . S
C163 H184 0.930 . S
C164 C163 1.401 . S
C164 C165 1.376 . S
C164 C173 1.511 . S
C165 C164 1.376 . S
C165 C166 1.392 . S
C165 H186 0.931 . S
C166 C165 1.392 . S
C166 C167 1.361 . S
C166 C168 1.500 . S
C167 C162 1.390 . S
C167 C166 1.361 . S
C167 H185 0.931 . S
C168 C166 1.500 . S
C168 C169 1.371 . S
C168 C170 1.365 . S
C169 C168 1.371 . S
C169 C179 1.386 . S
C169 H187 0.931 . S
C170 C168 1.365 . S
C170 C171 1.409 . S
C170 H188 0.929 . S
C171 C170 1.409 . S
C171 C172 1.380 . S
C171 H189 0.930 . S
C172 C171 1.380 . S
C172 C179 1.357 . S
C173 C164 1.511 . S
C173 C174 1.341 . S
C173 C175 1.371 . S
C174 C173 1.341 . S
C174 C178 1.394 . S
C174 H190 0.930 . S
C175 C173 1.371 . S
C175 C176 1.392 . S
C175 H191 0.931 . S
C176 C175 1.392 . S
C176 C177 1.331 . S
C176 H194 0.932 . S
C177 C176 1.331 . S
C177 C178 1.336 . S
C178 C174 1.394 . S
C178 C177 1.336 . S
C178 H193 0.929 . S
C179 C169 1.386 . S
C179 C172 1.357 . S
C179 H192 0.928 . S
H180 C156 0.931 . S
H181 C158 0.930 . S
H182 C160 0.929 . S
H183 C161 0.931 . S
H184 C163 0.930 . S
H185 C167 0.931 . S
H186 C165 0.931 . S
H187 C169 0.931 . S
H188 C170 0.929 . S
H189 C171 0.930 . S
H190 C174 0.930 . S
H191 C175 0.931 . S
H192 C179 0.928 . S
H193 C178 0.929 . S
H194 C176 0.932 . S
C195 C196 1.386 . S
C195 C197 1.397 . S
C195 H219 0.931 . S
C196 C195 1.386 . S
C196 C200 1.397 . S
C197 C195 1.397 . S
C197 C198 1.384 . S
C197 H220 0.930 . S
C198 C197 1.384 . S
C198 C199 1.377 . S
C198 C201 1.481 . S
C199 C198 1.377 . S
C199 C200 1.389 . S
C199 H221 0.929 . S
C200 C196 1.397 . S
C200 C199 1.389 . S
C200 H222 0.931 . S
C201 C198 1.481 . S
C201 C202 1.387 . S
C201 C206 1.390 . S
C202 C201 1.387 . S
C202 C203 1.401 . S
C202 H223 0.930 . S
C203 C202 1.401 . S
C203 C204 1.376 . S
C203 C212 1.511 . S
C204 C203 1.376 . S
C204 C205 1.392 . S
C204 H225 0.931 . S
C205 C204 1.392 . S
C205 C206 1.361 . S
C205 C207 1.500 . S
C206 C201 1.390 . S
C206 C205 1.361 . S
C206 H224 0.931 . S
C207 C205 1.500 . S
C207 C208 1.371 . S
C207 C209 1.365 . S
C208 C207 1.371 . S
C208 C218 1.386 . S
C208 H226 0.931 . S
C209 C207 1.365 . S
C209 C210 1.409 . S
C209 H227 0.929 . S
C210 C209 1.409 . S
C210 C211 1.380 . S
C210 H228 0.930 . S
C211 C210 1.380 . S
C211 C218 1.357 . S
C212 C203 1.511 . S
C212 C213 1.341 . S
C212 C214 1.371 . S
C213 C212 1.341 . S
C213 C217 1.394 . S
C213 H229 0.930 . S
C214 C212 1.371 . S
C214 C215 1.392 . S
C214 H230 0.931 . S
C215 C214 1.392 . S
C215 C216 1.331 . S
C215 H233 0.932 . S
C216 C215 1.331 . S
C216 C217 1.336 . S
C217 C213 1.394 . S
C217 C216 1.336 . S
C217 H232 0.929 . S
C218 C208 1.386 . S
C218 C211 1.357 . S
C218 H231 0.928 . S
H219 C195 0.931 . S
H220 C197 0.930 . S
H221 C199 0.929 . S
H222 C200 0.931 . S
H223 C202 0.930 . S
H224 C206 0.931 . S
H225 C204 0.931 . S
H226 C208 0.931 . S
H227 C209 0.929 . S
H228 C210 0.930 . S
H229 C213 0.930 . S
H230 C214 0.931 . S
H231 C218 0.928 . S
H232 C217 0.929 . S
H233 C215 0.932 . S
C234 C235 1.386 . S
C234 C236 1.397 . S
C234 H258 0.931 . S
C235 C234 1.386 . S
C235 C239 1.397 . S
C236 C234 1.397 . S
C236 C237 1.384 . S
C236 H259 0.930 . S
C237 C236 1.384 . S
C237 C238 1.377 . S
C237 C240 1.481 . S
C238 C237 1.377 . S
C238 C239 1.389 . S
C238 H260 0.929 . S
C239 C235 1.397 . S
C239 C238 1.389 . S
C239 H261 0.931 . S
C240 C237 1.481 . S
C240 C241 1.387 . S
C240 C245 1.390 . S
C241 C240 1.387 . S
C241 C242 1.401 . S
C241 H262 0.930 . S
C242 C241 1.401 . S
C242 C243 1.376 . S
C242 C251 1.511 . S
C243 C242 1.376 . S
C243 C244 1.392 . S
C243 H264 0.931 . S
C244 C243 1.392 . S
C244 C245 1.361 . S
C244 C246 1.500 . S
C245 C240 1.390 . S
C245 C244 1.361 . S
C245 H263 0.931 . S
C246 C244 1.500 . S
C246 C247 1.371 . S
C246 C248 1.365 . S
C247 C246 1.371 . S
C247 C257 1.386 . S
C247 H265 0.931 . S
C248 C246 1.365 . S
C248 C249 1.409 . S
C248 H266 0.929 . S
C249 C248 1.409 . S
C249 C250 1.380 . S
C249 H267 0.930 . S
C250 C249 1.380 . S
C250 C257 1.357 . S
C251 C242 1.511 . S
C251 C252 1.341 . S
C251 C253 1.371 . S
C252 C251 1.341 . S
C252 C256 1.394 . S
C252 H268 0.930 . S
C253 C251 1.371 . S
C253 C254 1.392 . S
C253 H269 0.931 . S
C254 C253 1.392 . S
C254 C255 1.331 . S
C254 H272 0.932 . S
C255 C254 1.331 . S
C255 C256 1.336 . S
C256 C252 1.394 . S
C256 C255 1.336 . S
C256 H271 0.929 . S
C257 C247 1.386 . S
C257 C250 1.357 . S
C257 H270 0.928 . S
H258 C234 0.931 . S
H259 C236 0.930 . S
H260 C238 0.929 . S
H261 C239 0.931 . S
H262 C241 0.930 . S
H263 C245 0.931 . S
H264 C243 0.931 . S
H265 C247 0.931 . S
H266 C248 0.929 . S
H267 C249 0.930 . S
H268 C252 0.930 . S
H269 C253 0.931 . S
H270 C257 0.928 . S
H271 C256 0.929 . S
H272 C254 0.932 . S
C273 C274 1.386 . S
C273 C275 1.397 . S
C273 H297 0.931 . S
C274 C273 1.386 . S
C274 C278 1.397 . S
C275 C273 1.397 . S
C275 C276 1.384 . S
C275 H298 0.930 . S
C276 C275 1.384 . S
C276 C277 1.377 . S
C276 C279 1.481 . S
C277 C276 1.377 . S
C277 C278 1.389 . S
C277 H299 0.929 . S
C278 C274 1.397 . S
C278 C277 1.389 . S
C278 H300 0.931 . S
C279 C276 1.481 . S
C279 C280 1.387 . S
C279 C284 1.390 . S
C280 C279 1.387 . S
C280 C281 1.401 . S
C280 H301 0.930 . S
C281 C280 1.401 . S
C281 C282 1.376 . S
C281 C290 1.511 . S
C282 C281 1.376 . S
C282 C283 1.392 . S
C282 H303 0.931 . S
C283 C282 1.392 . S
C283 C284 1.361 . S
C283 C285 1.500 . S
C284 C279 1.390 . S
C284 C283 1.361 . S
C284 H302 0.931 . S
C285 C283 1.500 . S
C285 C286 1.371 . S
C285 C287 1.365 . S
C286 C285 1.371 . S
C286 C296 1.386 . S
C286 H304 0.931 . S
C287 C285 1.365 . S
C287 C288 1.409 . S
C287 H305 0.929 . S
C288 C287 1.409 . S
C288 C289 1.380 . S
C288 H306 0.930 . S
C289 C288 1.380 . S
C289 C296 1.357 . S
C290 C281 1.511 . S
C290 C291 1.341 . S
C290 C292 1.371 . S
C291 C290 1.341 . S
C291 C295 1.394 . S
C291 H307 0.930 . S
C292 C290 1.371 . S
C292 C293 1.392 . S
C292 H308 0.931 . S
C293 C292 1.392 . S
C293 C294 1.331 . S
C293 H311 0.932 . S
C294 C293 1.331 . S
C294 C295 1.336 . S
C295 C291 1.394 . S
C295 C294 1.336 . S
C295 H310 0.929 . S
C296 C286 1.386 . S
C296 C289 1.357 . S
C296 H309 0.928 . S
H297 C273 0.931 . S
H298 C275 0.930 . S
H299 C277 0.929 . S
H300 C278 0.931 . S
H301 C280 0.930 . S
H302 C284 0.931 . S
H303 C282 0.931 . S
H304 C286 0.931 . S
H305 C287 0.929 . S
H306 C288 0.930 . S
H307 C291 0.930 . S
H308 C292 0.931 . S
H309 C296 0.928 . S
H310 C295 0.929 . S
H311 C293 0.932 . S
Ho312 C315 2.811 . S
Ho312 O332 2.322 . S
Ho312 O334 2.378 . S
Ho312 O335 2.524 . S
Ho312 O336 2.381 1_545 S
Ho312 O337 2.669 1_545 S
Ho312 O339 2.346 1_445 S
Ho312 O343 2.305 1_455 S
Ho313 C324 2.811 . S
Ho313 O333 2.346 1_665 S
Ho313 O337 2.305 1_655 S
Ho313 O338 2.322 . S
Ho313 O340 2.378 . S
Ho313 O341 2.524 . S
Ho313 O342 2.381 1_565 S
Ho313 O343 2.669 1_565 S
C314 O332 1.259 . S
C314 O333 1.268 . S
C315 Ho312 2.811 . S
C315 C316 1.488 . S
C315 O334 1.215 . S
C315 O335 1.289 . S
C316 C315 1.488 . S
C316 C317 1.348 . S
C316 C321 1.413 . S
C317 C316 1.348 . S
C317 C318 1.442 . S
C317 H344 0.930 . S
C318 C317 1.442 . S
C318 C319 1.381 . S
C318 H345 0.931 . S
C319 C318 1.381 . S
C319 C320 1.321 . S
C320 C319 1.321 . S
C320 C321 1.403 . S
C320 H346 0.934 . S
C321 C316 1.413 . S
C321 C320 1.403 . S
C321 H347 0.930 . S
C322 O336 1.275 . S
C322 O337 1.256 . S
C323 O338 1.259 . S
C323 O339 1.268 . S
C324 Ho313 2.811 . S
C324 C325 1.488 . S
C324 O340 1.215 . S
C324 O341 1.289 . S
C325 C324 1.488 . S
C325 C326 1.348 . S
C325 C330 1.413 . S
C326 C325 1.348 . S
C326 C327 1.442 . S
C326 H348 0.930 . S
C327 C326 1.442 . S
C327 C328 1.381 . S
C327 H349 0.931 . S
C328 C327 1.381 . S
C328 C329 1.321 . S
C329 C328 1.321 . S
C329 C330 1.403 . S
C329 H350 0.934 . S
C330 C325 1.413 . S
C330 C329 1.403 . S
C330 H351 0.930 . S
C331 O342 1.275 . S
C331 O343 1.256 . S
O332 Ho312 2.322 . S
O332 C314 1.259 . S
O333 Ho313 2.346 1_445 S
O333 C314 1.268 . S
O334 Ho312 2.378 . S
O334 C315 1.215 . S
O335 Ho312 2.524 . S
O335 C315 1.289 . S
O336 Ho312 2.381 1_565 S
O336 C322 1.275 . S
O337 Ho312 2.669 1_565 S
O337 Ho313 2.305 1_455 S
O337 C322 1.256 . S
O338 Ho313 2.322 . S
O338 C323 1.259 . S
O339 Ho312 2.346 1_665 S
O339 C323 1.268 . S
O340 Ho313 2.378 . S
O340 C324 1.215 . S
O341 Ho313 2.524 . S
O341 C324 1.289 . S
O342 Ho313 2.381 1_545 S
O342 C331 1.275 . S
O343 Ho312 2.305 1_655 S
O343 Ho313 2.669 1_545 S
O343 C331 1.256 . S
H344 C317 0.930 . S
H345 C318 0.931 . S
H346 C320 0.934 . S
H347 C321 0.930 . S
H348 C326 0.930 . S
H349 C327 0.931 . S
H350 C329 0.934 . S
H351 C330 0.930 . S
Ho352 C355 2.811 1_565 S
Ho352 O372 2.322 1_565 S
Ho352 O374 2.378 1_565 S
Ho352 O375 2.523 1_565 S
Ho352 O376 2.381 . S
Ho352 O377 2.669 . S
Ho352 O379 2.346 1_554 S
Ho352 O383 2.304 1_564 S
Ho353 C364 2.811 1_545 S
Ho353 O373 2.346 1_556 S
Ho353 O377 2.305 1_546 S
Ho353 O378 2.322 1_545 S
Ho353 O380 2.378 1_545 S
Ho353 O381 2.524 1_545 S
Ho353 O382 2.381 . S
Ho353 O383 2.669 . S
C354 O372 1.259 . S
C354 O373 1.268 . S
C355 Ho352 2.811 1_545 S
C355 C356 1.488 . S
C355 O374 1.215 . S
C355 O375 1.289 . S
C356 C355 1.488 . S
C356 C357 1.348 . S
C356 C361 1.413 . S
C357 C356 1.348 . S
C357 C358 1.442 . S
C357 H384 0.930 . S
C358 C357 1.442 . S
C358 C359 1.381 . S
C358 H385 0.931 . S
C359 C358 1.381 . S
C359 C360 1.321 . S
C360 C359 1.321 . S
C360 C361 1.403 . S
C360 H386 0.934 . S
C361 C356 1.413 . S
C361 C360 1.403 . S
C361 H387 0.930 . S
C362 O376 1.275 . S
C362 O377 1.256 . S
C363 O378 1.259 . S
C363 O379 1.268 . S
C364 Ho353 2.811 1_565 S
C364 C365 1.488 . S
C364 O380 1.215 . S
C364 O381 1.289 . S
C365 C364 1.488 . S
C365 C366 1.348 . S
C365 C370 1.413 . S
C366 C365 1.348 . S
C366 C367 1.442 . S
C366 H388 0.930 . S
C367 C366 1.442 . S
C367 C368 1.381 . S
C367 H389 0.931 . S
C368 C367 1.381 . S
C368 C369 1.321 . S
C369 C368 1.321 . S
C369 C370 1.403 . S
C369 H390 0.934 . S
C370 C365 1.413 . S
C370 C369 1.403 . S
C370 H391 0.930 . S
C371 O382 1.275 . S
C371 O383 1.256 . S
O372 Ho352 2.322 1_545 S
O372 C354 1.259 . S
O373 Ho353 2.346 1_554 S
O373 C354 1.268 . S
O374 Ho352 2.378 1_545 S
O374 C355 1.215 . S
O375 Ho352 2.523 1_545 S
O375 C355 1.289 . S
O376 Ho352 2.381 . S
O376 C362 1.275 . S
O377 Ho352 2.669 . S
O377 Ho353 2.305 1_564 S
O377 C362 1.256 . S
O378 Ho353 2.322 1_565 S
O378 C363 1.259 . S
O379 Ho352 2.346 1_556 S
O379 C363 1.268 . S
O380 Ho353 2.378 1_565 S
O380 C364 1.215 . S
O381 Ho353 2.524 1_565 S
O381 C364 1.289 . S
O382 Ho353 2.381 . S
O382 C371 1.275 . S
O383 Ho352 2.304 1_546 S
O383 Ho353 2.669 . S
O383 C371 1.256 . S
H384 C357 0.930 . S
H385 C358 0.931 . S
H386 C360 0.934 . S
H387 C361 0.930 . S
H388 C366 0.930 . S
H389 C367 0.931 . S
H390 C369 0.934 . S
H391 C370 0.930 . S
Ho392 C395 2.811 . S
Ho392 O412 2.322 . S
Ho392 O414 2.378 . S
Ho392 O415 2.524 . S
Ho392 O416 2.381 . S
Ho392 O417 2.669 . S
Ho392 O419 2.346 . S
Ho392 O423 2.305 . S
Ho393 C404 2.811 . S
Ho393 O413 2.346 . S
Ho393 O417 2.305 . S
Ho393 O418 2.322 . S
Ho393 O420 2.378 . S
Ho393 O421 2.524 . S
Ho393 O422 2.381 . S
Ho393 O423 2.669 . S
C394 O412 1.259 . S
C394 O413 1.268 . S
C395 Ho392 2.811 . S
C395 C396 1.488 . S
C395 O414 1.215 . S
C395 O415 1.289 . S
C396 C395 1.488 . S
C396 C397 1.348 . S
C396 C401 1.413 . S
C397 C396 1.348 . S
C397 C398 1.442 . S
C397 H424 0.930 . S
C398 C397 1.442 . S
C398 C399 1.381 . S
C398 H425 0.931 . S
C399 C398 1.381 . S
C399 C400 1.321 . S
C400 C399 1.321 . S
C400 C401 1.403 . S
C400 H426 0.934 . S
C401 C396 1.413 . S
C401 C400 1.403 . S
C401 H427 0.930 . S
C402 O416 1.275 . S
C402 O417 1.256 . S
C403 O418 1.259 . S
C403 O419 1.268 . S
C404 Ho393 2.811 . S
C404 C405 1.488 . S
C404 O420 1.215 . S
C404 O421 1.289 . S
C405 C404 1.488 . S
C405 C406 1.348 . S
C405 C410 1.413 . S
C406 C405 1.348 . S
C406 C407 1.442 . S
C406 H428 0.930 . S
C407 C406 1.442 . S
C407 C408 1.381 . S
C407 H429 0.931 . S
C408 C407 1.381 . S
C408 C409 1.321 . S
C409 C408 1.321 . S
C409 C410 1.403 . S
C409 H430 0.934 . S
C410 C405 1.413 . S
C410 C409 1.403 . S
C410 H431 0.930 . S
C411 O422 1.275 . S
C411 O423 1.256 . S
O412 Ho392 2.322 . S
O412 C394 1.259 . S
O413 Ho393 2.346 . S
O413 C394 1.268 . S
O414 Ho392 2.378 . S
O414 C395 1.215 . S
O415 Ho392 2.524 . S
O415 C395 1.289 . S
O416 Ho392 2.381 . S
O416 C402 1.275 . S
O417 Ho392 2.669 . S
O417 Ho393 2.305 . S
O417 C402 1.256 . S
O418 Ho393 2.322 . S
O418 C403 1.259 . S
O419 Ho392 2.346 . S
O419 C403 1.268 . S
O420 Ho393 2.378 . S
O420 C404 1.215 . S
O421 Ho393 2.524 . S
O421 C404 1.289 . S
O422 Ho393 2.381 . S
O422 C411 1.275 . S
O423 Ho392 2.305 . S
O423 Ho393 2.669 . S
O423 C411 1.256 . S
H424 C397 0.930 . S
H425 C398 0.931 . S
H426 C400 0.934 . S
H427 C401 0.930 . S
H428 C406 0.930 . S
H429 C407 0.931 . S
H430 C409 0.934 . S
H431 C410 0.930 . S
Ho432 C435 2.811 . S
Ho432 O452 2.322 . S
Ho432 O454 2.378 . S
Ho432 O455 2.524 . S
Ho432 O456 2.381 1_455 S
Ho432 O457 2.669 1_455 S
Ho432 O459 2.346 1_454 S
Ho432 O463 2.305 1_554 S
Ho433 C444 2.811 . S
Ho433 O453 2.346 1_656 S
Ho433 O457 2.305 1_556 S
Ho433 O458 2.322 . S
Ho433 O460 2.378 . S
Ho433 O461 2.524 . S
Ho433 O462 2.381 1_655 S
Ho433 O463 2.669 1_655 S
C434 O452 1.259 . S
C434 O453 1.268 . S
C435 Ho432 2.811 . S
C435 C436 1.488 . S
C435 O454 1.215 . S
C435 O455 1.289 . S
C436 C435 1.488 . S
C436 C437 1.348 . S
C436 C441 1.413 . S
C437 C436 1.348 . S
C437 C438 1.442 . S
C437 H464 0.930 . S
C438 C437 1.442 . S
C438 C439 1.381 . S
C438 H465 0.931 . S
C439 C438 1.381 . S
C439 C440 1.321 . S
C440 C439 1.321 . S
C440 C441 1.403 . S
C440 H466 0.934 . S
C441 C436 1.413 . S
C441 C440 1.403 . S
C441 H467 0.930 . S
C442 O456 1.275 . S
C442 O457 1.256 . S
C443 O458 1.259 . S
C443 O459 1.268 . S
C444 Ho433 2.811 . S
C444 C445 1.488 . S
C444 O460 1.215 . S
C444 O461 1.289 . S
C445 C444 1.488 . S
C445 C446 1.348 . S
C445 C450 1.413 . S
C446 C445 1.348 . S
C446 C447 1.442 . S
C446 H468 0.930 . S
C447 C446 1.442 . S
C447 C448 1.381 . S
C447 H469 0.931 . S
C448 C447 1.381 . S
C448 C449 1.321 . S
C449 C448 1.321 . S
C449 C450 1.403 . S
C449 H470 0.934 . S
C450 C445 1.413 . S
C450 C449 1.403 . S
C450 H471 0.930 . S
C451 O462 1.275 . S
C451 O463 1.256 . S
O452 Ho432 2.322 . S
O452 C434 1.259 . S
O453 Ho433 2.346 1_454 S
O453 C434 1.268 . S
O454 Ho432 2.378 . S
O454 C435 1.215 . S
O455 Ho432 2.524 . S
O455 C435 1.289 . S
O456 Ho432 2.381 1_655 S
O456 C442 1.275 . S
O457 Ho432 2.669 1_655 S
O457 Ho433 2.305 1_554 S
O457 C442 1.256 . S
O458 Ho433 2.322 . S
O458 C443 1.259 . S
O459 Ho432 2.346 1_656 S
O459 C443 1.268 . S
O460 Ho433 2.378 . S
O460 C444 1.215 . S
O461 Ho433 2.524 . S
O461 C444 1.289 . S
O462 Ho433 2.381 1_455 S
O462 C451 1.275 . S
O463 Ho432 2.305 1_556 S
O463 Ho433 2.669 1_455 S
O463 C451 1.256 . S
H464 C437 0.930 . S
H465 C438 0.931 . S
H466 C440 0.934 . S
H467 C441 0.930 . S
H468 C446 0.930 . S
H469 C447 0.931 . S
H470 C449 0.934 . S
H471 C450 0.930 . S
H472 C484 0.930 . S
H473 C486 0.930 . S
H474 C487 0.930 . S
H475 C491 0.959 . S
H476 C491 0.959 . S
H477 C491 0.961 . S
H478 C492 0.960 . S
H479 C492 0.961 . S
H480 C492 0.959 . S
H481 C495 0.929 . S
H482 C496 0.931 . S
H483 C498 0.930 . S
C484 H472 0.930 . S
C484 C485 1.399 . S
C484 C489 1.399 . S
C485 C484 1.399 . S
C485 C486 1.376 . S
C486 H473 0.930 . S
C486 C485 1.376 . S
C486 C487 1.388 . S
C487 H474 0.930 . S
C487 C486 1.388 . S
C487 C488 1.390 . S
C488 C487 1.390 . S
C488 C489 1.394 . S
C488 C494 1.465 . S
C489 C484 1.399 . S
C489 C488 1.394 . S
C489 C490 1.516 . S
C490 C489 1.516 . S
C490 C491 1.502 . S
C490 C492 1.561 . S
C490 C493 1.526 . S
C491 H475 0.959 . S
C491 H476 0.959 . S
C491 H477 0.961 . S
C491 C490 1.502 . S
C492 H478 0.960 . S
C492 H479 0.961 . S
C492 H480 0.959 . S
C492 C490 1.561 . S
C493 C490 1.526 . S
C493 C494 1.396 . S
C493 C498 1.390 . S
C494 C488 1.465 . S
C494 C493 1.396 . S
C494 C495 1.399 . S
C495 H481 0.929 . S
C495 C494 1.399 . S
C495 C496 1.385 . S
C496 H482 0.931 . S
C496 C495 1.385 . S
C496 C497 1.389 . S
C497 C496 1.389 . S
C497 C498 1.387 . S
C498 H483 0.930 . S
C498 C493 1.390 . S
C498 C497 1.387 . S
H499 C511 0.930 . S
H500 C513 0.930 . S
H501 C514 0.930 . S
H502 C518 0.959 . S
H503 C518 0.959 . S
H504 C518 0.961 . S
H505 C519 0.960 . S
H506 C519 0.961 . S
H507 C519 0.959 . S
H508 C522 0.929 . S
H509 C523 0.931 . S
H510 C525 0.930 . S
C511 H499 0.930 . S
C511 C512 1.399 . S
C511 C516 1.399 . S
C512 C511 1.399 . S
C512 C513 1.376 . S
C513 H500 0.930 . S
C513 C512 1.376 . S
C513 C514 1.388 . S
C514 H501 0.930 . S
C514 C513 1.388 . S
C514 C515 1.390 . S
C515 C514 1.390 . S
C515 C516 1.394 . S
C515 C521 1.465 . S
C516 C511 1.399 . S
C516 C515 1.394 . S
C516 C517 1.516 . S
C517 C516 1.516 . S
C517 C518 1.502 . S
C517 C519 1.561 . S
C517 C520 1.526 . S
C518 H502 0.959 . S
C518 H503 0.959 . S
C518 H504 0.961 . S
C518 C517 1.502 . S
C519 H505 0.960 . S
C519 H506 0.961 . S
C519 H507 0.959 . S
C519 C517 1.561 . S
C520 C517 1.526 . S
C520 C521 1.396 . S
C520 C525 1.390 . S
C521 C515 1.465 . S
C521 C520 1.396 . S
C521 C522 1.399 . S
C522 H508 0.929 . S
C522 C521 1.399 . S
C522 C523 1.385 . S
C523 H509 0.931 . S
C523 C522 1.385 . S
C523 C524 1.389 . S
C524 C523 1.389 . S
C524 C525 1.387 . S
C525 H510 0.930 . S
C525 C520 1.390 . S
C525 C524 1.387 . S
H526 C538 0.930 . S
H527 C540 0.930 . S
H528 C541 0.930 . S
H529 C545 0.959 . S
H530 C545 0.959 . S
H531 C545 0.961 . S
H532 C546 0.960 . S
H533 C546 0.961 . S
H534 C546 0.959 . S
H535 C549 0.929 . S
H536 C550 0.931 . S
H537 C552 0.930 . S
C538 H526 0.930 . S
C538 C539 1.399 . S
C538 C543 1.399 . S
C539 C538 1.399 . S
C539 C540 1.376 . S
C540 H527 0.930 . S
C540 C539 1.376 . S
C540 C541 1.388 . S
C541 H528 0.930 . S
C541 C540 1.388 . S
C541 C542 1.390 . S
C542 C541 1.390 . S
C542 C543 1.394 . S
C542 C548 1.465 . S
C543 C538 1.399 . S
C543 C542 1.394 . S
C543 C544 1.516 . S
C544 C543 1.516 . S
C544 C545 1.502 . S
C544 C546 1.561 . S
C544 C547 1.526 . S
C545 H529 0.959 . S
C545 H530 0.959 . S
C545 H531 0.961 . S
C545 C544 1.502 . S
C546 H532 0.960 . S
C546 H533 0.961 . S
C546 H534 0.959 . S
C546 C544 1.561 . S
C547 C544 1.526 . S
C547 C548 1.396 . S
C547 C552 1.390 . S
C548 C542 1.465 . S
C548 C547 1.396 . S
C548 C549 1.399 . S
C549 H535 0.929 . S
C549 C548 1.399 . S
C549 C550 1.385 . S
C550 H536 0.931 . S
C550 C549 1.385 . S
C550 C551 1.389 . S
C551 C550 1.389 . S
C551 C552 1.387 . S
C552 H537 0.930 . S
C552 C547 1.390 . S
C552 C551 1.387 . S
H553 C565 0.930 . S
H554 C567 0.930 . S
H555 C568 0.930 . S
H556 C572 0.959 . S
H557 C572 0.959 . S
H558 C572 0.961 . S
H559 C573 0.960 . S
H560 C573 0.961 1_455 S
H561 C573 0.959 . S
H562 C576 0.929 . S
H563 C577 0.931 . S
H564 C579 0.930 . S
C565 H553 0.930 . S
C565 C566 1.399 . S
C565 C570 1.399 . S
C566 C565 1.399 . S
C566 C567 1.376 . S
C567 H554 0.930 . S
C567 C566 1.376 . S
C567 C568 1.388 . S
C568 H555 0.930 . S
C568 C567 1.388 . S
C568 C569 1.390 . S
C569 C568 1.390 . S
C569 C570 1.394 . S
C569 C575 1.465 . S
C570 C565 1.399 . S
C570 C569 1.394 . S
C570 C571 1.516 . S
C571 C570 1.516 . S
C571 C572 1.502 . S
C571 C573 1.561 . S
C571 C574 1.526 . S
C572 H556 0.959 . S
C572 H557 0.959 . S
C572 H558 0.961 . S
C572 C571 1.502 . S
C573 H559 0.960 . S
C573 H560 0.961 1_655 S
C573 H561 0.959 . S
C573 C571 1.561 . S
C574 C571 1.526 . S
C574 C575 1.396 . S
C574 C579 1.390 . S
C575 C569 1.465 . S
C575 C574 1.396 . S
C575 C576 1.399 . S
C576 H562 0.929 . S
C576 C575 1.399 . S
C576 C577 1.385 . S
C577 H563 0.931 . S
C577 C576 1.385 . S
C577 C578 1.389 . S
C578 C577 1.389 . S
C578 C579 1.387 . S
C579 H564 0.930 . S
C579 C574 1.390 . S
C579 C578 1.387 . S
H580 C592 0.930 . S
H581 C594 0.930 . S
H582 C595 0.930 . S
H583 C599 0.959 . S
H584 C599 0.959 . S
H585 C599 0.961 . S
H586 C600 0.960 . S
H587 C600 0.961 . S
H588 C600 0.959 . S
H589 C603 0.929 . S
H590 C604 0.931 . S
H591 C606 0.930 . S
C592 H580 0.930 . S
C592 C593 1.399 . S
C592 C597 1.399 . S
C593 C592 1.399 . S
C593 C594 1.376 . S
C594 H581 0.930 . S
C594 C593 1.376 . S
C594 C595 1.388 . S
C595 H582 0.930 . S
C595 C594 1.388 . S
C595 C596 1.390 . S
C596 C595 1.390 . S
C596 C597 1.394 . S
C596 C602 1.465 . S
C597 C592 1.399 . S
C597 C596 1.394 . S
C597 C598 1.516 . S
C598 C597 1.516 . S
C598 C599 1.502 . S
C598 C600 1.561 . S
C598 C601 1.526 . S
C599 H583 0.959 . S
C599 H584 0.959 . S
C599 H585 0.961 . S
C599 C598 1.502 . S
C600 H586 0.960 . S
C600 H587 0.961 . S
C600 H588 0.959 . S
C600 C598 1.561 . S
C601 C598 1.526 . S
C601 C602 1.396 . S
C601 C606 1.390 . S
C602 C596 1.465 . S
C602 C601 1.396 . S
C602 C603 1.399 . S
C603 H589 0.929 . S
C603 C602 1.399 . S
C603 C604 1.385 . S
C604 H590 0.931 . S
C604 C603 1.385 . S
C604 C605 1.389 . S
C605 C604 1.389 . S
C605 C606 1.387 . S
C606 H591 0.930 . S
C606 C601 1.390 . S
C606 C605 1.387 . S
H607 C619 0.930 . S
H608 C621 0.930 . S
H609 C622 0.930 . S
H610 C626 0.959 . S
H611 C626 0.959 . S
H612 C626 0.961 . S
H613 C627 0.960 . S
H614 C627 0.961 . S
H615 C627 0.959 . S
H616 C630 0.929 . S
H617 C631 0.931 . S
H618 C633 0.930 . S
C619 H607 0.930 . S
C619 C620 1.399 . S
C619 C624 1.399 . S
C620 C619 1.399 . S
C620 C621 1.376 . S
C621 H608 0.930 . S
C621 C620 1.376 . S
C621 C622 1.388 . S
C622 H609 0.930 . S
C622 C621 1.388 . S
C622 C623 1.390 . S
C623 C622 1.390 . S
C623 C624 1.394 . S
C623 C629 1.465 . S
C624 C619 1.399 . S
C624 C623 1.394 . S
C624 C625 1.516 . S
C625 C624 1.516 . S
C625 C626 1.502 . S
C625 C627 1.561 . S
C625 C628 1.526 . S
C626 H610 0.959 . S
C626 H611 0.959 . S
C626 H612 0.961 . S
C626 C625 1.502 . S
C627 H613 0.960 . S
C627 H614 0.961 . S
C627 H615 0.959 . S
C627 C625 1.561 . S
C628 C625 1.526 . S
C628 C629 1.396 . S
C628 C633 1.390 . S
C629 C623 1.465 . S
C629 C628 1.396 . S
C629 C630 1.399 . S
C630 H616 0.929 . S
C630 C629 1.399 . S
C630 C631 1.385 . S
C631 H617 0.931 . S
C631 C630 1.385 . S
C631 C632 1.389 . S
C632 C631 1.389 . S
C632 C633 1.387 . S
C633 H618 0.930 . S
C633 C628 1.390 . S
C633 C632 1.387 . S
H634 C646 0.930 . S
H635 C648 0.930 . S
H636 C649 0.930 . S
H637 C653 0.959 . S
H638 C653 0.959 . S
H639 C653 0.961 . S
H640 C654 0.960 . S
H641 C654 0.961 . S
H642 C654 0.959 . S
H643 C657 0.929 . S
H644 C658 0.931 . S
H645 C660 0.930 . S
C646 H634 0.930 . S
C646 C647 1.399 . S
C646 C651 1.399 . S
C647 C646 1.399 . S
C647 C648 1.376 . S
C648 H635 0.930 . S
C648 C647 1.376 . S
C648 C649 1.388 . S
C649 H636 0.930 . S
C649 C648 1.388 . S
C649 C650 1.390 . S
C650 C649 1.390 . S
C650 C651 1.394 . S
C650 C656 1.465 . S
C651 C646 1.399 . S
C651 C650 1.394 . S
C651 C652 1.516 . S
C652 C651 1.516 . S
C652 C653 1.502 . S
C652 C654 1.561 . S
C652 C655 1.526 . S
C653 H637 0.959 . S
C653 H638 0.959 . S
C653 H639 0.961 . S
C653 C652 1.502 . S
C654 H640 0.960 . S
C654 H641 0.961 . S
C654 H642 0.959 . S
C654 C652 1.561 . S
C655 C652 1.526 . S
C655 C656 1.396 . S
C655 C660 1.390 . S
C656 C650 1.465 . S
C656 C655 1.396 . S
C656 C657 1.399 . S
C657 H643 0.929 . S
C657 C656 1.399 . S
C657 C658 1.385 . S
C658 H644 0.931 . S
C658 C657 1.385 . S
C658 C659 1.389 . S
C659 C658 1.389 . S
C659 C660 1.387 . S
C660 H645 0.930 . S
C660 C655 1.390 . S
C660 C659 1.387 . S
H661 C673 0.930 . S
H662 C675 0.930 . S
H663 C676 0.930 . S
H664 C680 0.959 . S
H665 C680 0.959 . S
H666 C680 0.961 . S
H667 C681 0.960 . S
H668 C681 0.961 . S
H669 C681 0.959 . S
H670 C684 0.929 . S
H671 C685 0.931 . S
H672 C687 0.930 . S
C673 H661 0.930 . S
C673 C674 1.399 . S
C673 C678 1.399 . S
C674 C673 1.399 . S
C674 C675 1.376 . S
C675 H662 0.930 . S
C675 C674 1.376 . S
C675 C676 1.388 . S
C676 H663 0.930 . S
C676 C675 1.388 . S
C676 C677 1.390 . S
C677 C676 1.390 . S
C677 C678 1.394 . S
C677 C683 1.465 . S
C678 C673 1.399 . S
C678 C677 1.394 . S
C678 C679 1.516 . S
C679 C678 1.516 . S
C679 C680 1.502 . S
C679 C681 1.561 . S
C679 C682 1.526 . S
C680 H664 0.959 . S
C680 H665 0.959 . S
C680 H666 0.961 . S
C680 C679 1.502 . S
C681 H667 0.960 . S
C681 H668 0.961 . S
C681 H669 0.959 . S
C681 C679 1.561 . S
C682 C679 1.526 . S
C682 C683 1.396 . S
C682 C687 1.390 . S
C683 C677 1.465 . S
C683 C682 1.396 . S
C683 C684 1.399 . S
C684 H670 0.929 . S
C684 C683 1.399 . S
C684 C685 1.385 . S
C685 H671 0.931 . S
C685 C684 1.385 . S
C685 C686 1.389 . S
C686 C685 1.389 . S
C686 C687 1.387 . S
C687 H672 0.930 . S
C687 C682 1.390 . S
C687 C686 1.387 . S
H688 C700 0.930 . S
H689 C702 0.930 . S
H690 C703 0.930 . S
H691 C707 0.959 . S
H692 C707 0.959 . S
H693 C707 0.961 . S
H694 C708 0.960 . S
H695 C708 0.961 . S
H696 C708 0.959 . S
H697 C711 0.929 . S
H698 C712 0.931 . S
H699 C714 0.930 . S
C700 H688 0.930 . S
C700 C701 1.399 . S
C700 C705 1.399 . S
C701 C700 1.399 . S
C701 C702 1.376 . S
C702 H689 0.930 . S
C702 C701 1.376 . S
C702 C703 1.388 . S
C703 H690 0.930 . S
C703 C702 1.388 . S
C703 C704 1.390 . S
C704 C703 1.390 . S
C704 C705 1.394 . S
C704 C710 1.465 . S
C705 C700 1.399 . S
C705 C704 1.394 . S
C705 C706 1.516 . S
C706 C705 1.516 . S
C706 C707 1.502 . S
C706 C708 1.561 . S
C706 C709 1.526 . S
C707 H691 0.959 . S
C707 H692 0.959 . S
C707 H693 0.961 . S
C707 C706 1.502 . S
C708 H694 0.960 . S
C708 H695 0.961 . S
C708 H696 0.959 . S
C708 C706 1.561 . S
C709 C706 1.526 . S
C709 C710 1.396 . S
C709 C714 1.390 . S
C710 C704 1.465 . S
C710 C709 1.396 . S
C710 C711 1.399 . S
C711 H697 0.929 . S
C711 C710 1.399 . S
C711 C712 1.385 . S
C712 H698 0.931 . S
C712 C711 1.385 . S
C712 C713 1.389 . S
C713 C712 1.389 . S
C713 C714 1.387 . S
C714 H699 0.930 . S
C714 C709 1.390 . S
C714 C713 1.387 . S
H715 C727 0.930 . S
H716 C729 0.930 . S
H717 C730 0.930 . S
H718 C734 0.959 . S
H719 C734 0.959 . S
H720 C734 0.961 . S
H721 C735 0.960 . S
H722 C735 0.961 . S
H723 C735 0.959 . S
H724 C738 0.929 . S
H725 C739 0.931 . S
H726 C741 0.930 . S
C727 H715 0.930 . S
C727 C728 1.399 . S
C727 C732 1.399 . S
C728 C727 1.399 . S
C728 C729 1.376 . S
C729 H716 0.930 . S
C729 C728 1.376 . S
C729 C730 1.388 . S
C730 H717 0.930 . S
C730 C729 1.388 . S
C730 C731 1.390 . S
C731 C730 1.390 . S
C731 C732 1.394 . S
C731 C737 1.465 . S
C732 C727 1.399 . S
C732 C731 1.394 . S
C732 C733 1.516 . S
C733 C732 1.516 . S
C733 C734 1.502 . S
C733 C735 1.561 . S
C733 C736 1.526 . S
C734 H718 0.959 . S
C734 H719 0.959 . S
C734 H720 0.961 . S
C734 C733 1.502 . S
C735 H721 0.960 . S
C735 H722 0.961 . S
C735 H723 0.959 . S
C735 C733 1.561 . S
C736 C733 1.526 . S
C736 C737 1.396 . S
C736 C741 1.390 . S
C737 C731 1.465 . S
C737 C736 1.396 . S
C737 C738 1.399 . S
C738 H724 0.929 . S
C738 C737 1.399 . S
C738 C739 1.385 . S
C739 H725 0.931 . S
C739 C738 1.385 . S
C739 C740 1.389 . S
C740 C739 1.389 . S
C740 C741 1.387 . S
C741 H726 0.930 . S
C741 C736 1.390 . S
C741 C740 1.387 . S
H742 C754 0.930 . S
H743 C756 0.930 . S
H744 C757 0.930 . S
H745 C761 0.959 . S
H746 C761 0.959 . S
H747 C761 0.961 . S
H748 C762 0.960 . S
H749 C762 0.961 . S
H750 C762 0.959 . S
H751 C765 0.929 . S
H752 C766 0.931 . S
H753 C768 0.930 . S
C754 H742 0.930 . S
C754 C755 1.399 . S
C754 C759 1.399 . S
C755 C754 1.399 . S
C755 C756 1.376 . S
C756 H743 0.930 . S
C756 C755 1.376 . S
C756 C757 1.388 . S
C757 H744 0.930 . S
C757 C756 1.388 . S
C757 C758 1.390 . S
C758 C757 1.390 . S
C758 C759 1.394 . S
C758 C764 1.465 . S
C759 C754 1.399 . S
C759 C758 1.394 . S
C759 C760 1.516 . S
C760 C759 1.516 . S
C760 C761 1.502 . S
C760 C762 1.561 . S
C760 C763 1.526 . S
C761 H745 0.959 . S
C761 H746 0.959 . S
C761 H747 0.961 . S
C761 C760 1.502 . S
C762 H748 0.960 . S
C762 H749 0.961 . S
C762 H750 0.959 . S
C762 C760 1.561 . S
C763 C760 1.526 . S
C763 C764 1.396 . S
C763 C768 1.390 . S
C764 C758 1.465 . S
C764 C763 1.396 . S
C764 C765 1.399 . S
C765 H751 0.929 . S
C765 C764 1.399 . S
C765 C766 1.385 . S
C766 H752 0.931 . S
C766 C765 1.385 . S
C766 C767 1.389 . S
C767 C766 1.389 . S
C767 C768 1.387 . S
C768 H753 0.930 . S
C768 C763 1.390 . S
C768 C767 1.387 . S
H769 C781 0.930 . S
H770 C783 0.930 . S
H771 C784 0.930 . S
H772 C788 0.959 . S
H773 C788 0.959 . S
H774 C788 0.961 . S
H775 C789 0.960 . S
H776 C789 0.961 . S
H777 C789 0.959 . S
H778 C792 0.929 . S
H779 C793 0.931 . S
H780 C795 0.930 . S
C781 H769 0.930 . S
C781 C782 1.399 . S
C781 C786 1.399 . S
C782 C781 1.399 . S
C782 C783 1.376 . S
C783 H770 0.930 . S
C783 C782 1.376 . S
C783 C784 1.388 . S
C784 H771 0.930 . S
C784 C783 1.388 . S
C784 C785 1.390 . S
C785 C784 1.390 . S
C785 C786 1.394 . S
C785 C791 1.465 . S
C786 C781 1.399 . S
C786 C785 1.394 . S
C786 C787 1.516 . S
C787 C786 1.516 . S
C787 C788 1.502 . S
C787 C789 1.561 . S
C787 C790 1.526 . S
C788 H772 0.959 . S
C788 H773 0.959 . S
C788 H774 0.961 . S
C788 C787 1.502 . S
C789 H775 0.960 . S
C789 H776 0.961 . S
C789 H777 0.959 . S
C789 C787 1.561 . S
C790 C787 1.526 . S
C790 C791 1.396 . S
C790 C795 1.390 . S
C791 C785 1.465 . S
C791 C790 1.396 . S
C791 C792 1.399 . S
C792 H778 0.929 . S
C792 C791 1.399 . S
C792 C793 1.385 . S
C793 H779 0.931 . S
C793 C792 1.385 . S
C793 C794 1.389 . S
C794 C793 1.389 . S
C794 C795 1.387 . S
C795 H780 0.930 . S
C795 C790 1.390 . S
C795 C794 1.387 . S
H796 C808 0.930 . S
H797 C810 0.930 . S
H798 C811 0.930 . S
H799 C815 0.959 . S
H800 C815 0.959 . S
H801 C815 0.961 . S
H802 C816 0.960 . S
H803 C816 0.961 . S
H804 C816 0.959 . S
H805 C819 0.929 . S
H806 C820 0.931 . S
H807 C822 0.930 . S
C808 H796 0.930 . S
C808 C809 1.399 . S
C808 C813 1.399 . S
C809 C808 1.399 . S
C809 C810 1.376 . S
C810 H797 0.930 . S
C810 C809 1.376 . S
C810 C811 1.388 . S
C811 H798 0.930 . S
C811 C810 1.388 . S
C811 C812 1.390 . S
C812 C811 1.390 . S
C812 C813 1.394 . S
C812 C818 1.465 . S
C813 C808 1.399 . S
C813 C812 1.394 . S
C813 C814 1.516 . S
C814 C813 1.516 . S
C814 C815 1.502 . S
C814 C816 1.561 . S
C814 C817 1.526 . S
C815 H799 0.959 . S
C815 H800 0.959 . S
C815 H801 0.961 . S
C815 C814 1.502 . S
C816 H802 0.960 . S
C816 H803 0.961 . S
C816 H804 0.959 . S
C816 C814 1.561 . S
C817 C814 1.526 . S
C817 C818 1.396 . S
C817 C822 1.390 . S
C818 C812 1.465 . S
C818 C817 1.396 . S
C818 C819 1.399 . S
C819 H805 0.929 . S
C819 C818 1.399 . S
C819 C820 1.385 . S
C820 H806 0.931 . S
C820 C819 1.385 . S
C820 C821 1.389 . S
C821 C820 1.389 . S
C821 C822 1.387 . S
C822 H807 0.930 . S
C822 C817 1.390 . S
C822 C821 1.387 . S
H823 C835 0.930 . S
H824 C837 0.930 . S
H825 C838 0.930 . S
H826 C842 0.959 . S
H827 C842 0.959 . S
H828 C842 0.961 . S
H829 C843 0.960 . S
H830 C843 0.961 . S
H831 C843 0.959 . S
H832 C846 0.929 . S
H833 C847 0.931 . S
H834 C849 0.930 . S
C835 H823 0.930 . S
C835 C836 1.399 . S
C835 C840 1.399 . S
C836 C835 1.399 . S
C836 C837 1.376 . S
C837 H824 0.930 . S
C837 C836 1.376 . S
C837 C838 1.388 . S
C838 H825 0.930 . S
C838 C837 1.388 . S
C838 C839 1.390 . S
C839 C838 1.390 . S
C839 C840 1.394 . S
C839 C845 1.465 . S
C840 C835 1.399 . S
C840 C839 1.394 . S
C840 C841 1.516 . S
C841 C840 1.516 . S
C841 C842 1.502 . S
C841 C843 1.561 . S
C841 C844 1.526 . S
C842 H826 0.959 . S
C842 H827 0.959 . S
C842 H828 0.961 . S
C842 C841 1.502 . S
C843 H829 0.960 . S
C843 H830 0.961 . S
C843 H831 0.959 . S
C843 C841 1.561 . S
C844 C841 1.526 . S
C844 C845 1.396 . S
C844 C849 1.390 . S
C845 C839 1.465 . S
C845 C844 1.396 . S
C845 C846 1.399 . S
C846 H832 0.929 . S
C846 C845 1.399 . S
C846 C847 1.385 . S
C847 H833 0.931 . S
C847 C846 1.385 . S
C847 C848 1.389 . S
C848 C847 1.389 . S
C848 C849 1.387 . S
C849 H834 0.930 . S
C849 C844 1.390 . S
C849 C848 1.387 . S
H850 C862 0.930 . S
H851 C864 0.930 . S
H852 C865 0.930 . S
H853 C869 0.959 . S
H854 C869 0.959 . S
H855 C869 0.961 . S
H856 C870 0.960 . S
H857 C870 0.961 . S
H858 C870 0.959 . S
H859 C873 0.929 . S
H860 C874 0.931 . S
H861 C876 0.930 . S
C862 H850 0.930 . S
C862 C863 1.399 . S
C862 C867 1.399 . S
C863 C862 1.399 . S
C863 C864 1.376 . S
C864 H851 0.930 . S
C864 C863 1.376 . S
C864 C865 1.388 . S
C865 H852 0.930 . S
C865 C864 1.388 . S
C865 C866 1.390 . S
C866 C865 1.390 . S
C866 C867 1.394 . S
C866 C872 1.465 . S
C867 C862 1.399 . S
C867 C866 1.394 . S
C867 C868 1.516 . S
C868 C867 1.516 . S
C868 C869 1.502 . S
C868 C870 1.561 . S
C868 C871 1.526 . S
C869 H853 0.959 . S
C869 H854 0.959 . S
C869 H855 0.961 . S
C869 C868 1.502 . S
C870 H856 0.960 . S
C870 H857 0.961 . S
C870 H858 0.959 . S
C870 C868 1.561 . S
C871 C868 1.526 . S
C871 C872 1.396 . S
C871 C876 1.390 . S
C872 C866 1.465 . S
C872 C871 1.396 . S
C872 C873 1.399 . S
C873 H859 0.929 . S
C873 C872 1.399 . S
C873 C874 1.385 . S
C874 H860 0.931 . S
C874 C873 1.385 . S
C874 C875 1.389 . S
C875 C874 1.389 . S
C875 C876 1.387 . S
C876 H861 0.930 . S
C876 C871 1.390 . S
C876 C875 1.387 . S
H877 C889 0.930 . S
H878 C891 0.930 . S
H879 C892 0.930 . S
H880 C896 0.959 . S
H881 C896 0.959 . S
H882 C896 0.961 . S
H883 C897 0.960 . S
H884 C897 0.961 . S
H885 C897 0.959 . S
H886 C900 0.929 . S
H887 C901 0.931 . S
H888 C903 0.930 . S
C889 H877 0.930 . S
C889 C890 1.399 . S
C889 C894 1.399 . S
C890 C889 1.399 . S
C890 C891 1.376 . S
C891 H878 0.930 . S
C891 C890 1.376 . S
C891 C892 1.388 . S
C892 H879 0.930 . S
C892 C891 1.388 . S
C892 C893 1.390 . S
C893 C892 1.390 . S
C893 C894 1.394 . S
C893 C899 1.465 . S
C894 C889 1.399 . S
C894 C893 1.394 . S
C894 C895 1.516 . S
C895 C894 1.516 . S
C895 C896 1.502 . S
C895 C897 1.561 . S
C895 C898 1.526 . S
C896 H880 0.959 . S
C896 H881 0.959 . S
C896 H882 0.961 . S
C896 C895 1.502 . S
C897 H883 0.960 . S
C897 H884 0.961 . S
C897 H885 0.959 . S
C897 C895 1.561 . S
C898 C895 1.526 . S
C898 C899 1.396 . S
C898 C903 1.390 . S
C899 C893 1.465 . S
C899 C898 1.396 . S
C899 C900 1.399 . S
C900 H886 0.929 . S
C900 C899 1.399 . S
C900 C901 1.385 . S
C901 H887 0.931 . S
C901 C900 1.385 . S
C901 C902 1.389 . S
C902 C901 1.389 . S
C902 C903 1.387 . S
C903 H888 0.930 . S
C903 C898 1.390 . S
C903 C902 1.387 . S
H904 C916 0.930 . S
H905 C918 0.930 . S
H906 C919 0.930 . S
H907 C923 0.959 . S
H908 C923 0.959 . S
H909 C923 0.961 . S
H910 C924 0.960 . S
H911 C924 0.961 . S
H912 C924 0.959 . S
H913 C927 0.929 . S
H914 C928 0.931 . S
H915 C930 0.930 . S
C916 H904 0.930 . S
C916 C917 1.399 . S
C916 C921 1.399 . S
C917 C916 1.399 . S
C917 C918 1.376 . S
C918 H905 0.930 . S
C918 C917 1.376 . S
C918 C919 1.388 . S
C919 H906 0.930 . S
C919 C918 1.388 . S
C919 C920 1.390 . S
C920 C919 1.390 . S
C920 C921 1.394 . S
C920 C926 1.465 . S
C921 C916 1.399 . S
C921 C920 1.394 . S
C921 C922 1.516 . S
C922 C921 1.516 . S
C922 C923 1.502 . S
C922 C924 1.561 . S
C922 C925 1.526 . S
C923 H907 0.959 . S
C923 H908 0.959 . S
C923 H909 0.961 . S
C923 C922 1.502 . S
C924 H910 0.960 . S
C924 H911 0.961 . S
C924 H912 0.959 . S
C924 C922 1.561 . S
C925 C922 1.526 . S
C925 C926 1.396 . S
C925 C930 1.390 . S
C926 C920 1.465 . S
C926 C925 1.396 . S
C926 C927 1.399 . S
C927 H913 0.929 . S
C927 C926 1.399 . S
C927 C928 1.385 . S
C928 H914 0.931 . S
C928 C927 1.385 . S
C928 C929 1.389 . S
C929 C928 1.389 . S
C929 C930 1.387 . S
C930 H915 0.930 . S
C930 C925 1.390 . S
C930 C929 1.387 . S
H931 C943 0.930 . S
H932 C945 0.930 . S
H933 C946 0.930 . S
H934 C950 0.959 . S
H935 C950 0.959 . S
H936 C950 0.961 . S
H937 C951 0.960 . S
H938 C951 0.961 . S
H939 C951 0.959 . S
H940 C954 0.929 . S
H941 C955 0.931 . S
H942 C957 0.930 . S
C943 H931 0.930 . S
C943 C944 1.399 . S
C943 C948 1.399 . S
C944 C943 1.399 . S
C944 C945 1.376 . S
C945 H932 0.930 . S
C945 C944 1.376 . S
C945 C946 1.388 . S
C946 H933 0.930 . S
C946 C945 1.388 . S
C946 C947 1.390 . S
C947 C946 1.390 . S
C947 C948 1.394 . S
C947 C953 1.465 . S
C948 C943 1.399 . S
C948 C947 1.394 . S
C948 C949 1.516 . S
C949 C948 1.516 . S
C949 C950 1.502 . S
C949 C951 1.561 . S
C949 C952 1.526 . S
C950 H934 0.959 . S
C950 H935 0.959 . S
C950 H936 0.961 . S
C950 C949 1.502 . S
C951 H937 0.960 . S
C951 H938 0.961 . S
C951 H939 0.959 . S
C951 C949 1.561 . S
C952 C949 1.526 . S
C952 C953 1.396 . S
C952 C957 1.390 . S
C953 C947 1.465 . S
C953 C952 1.396 . S
C953 C954 1.399 . S
C954 H940 0.929 . S
C954 C953 1.399 . S
C954 C955 1.385 . S
C955 H941 0.931 . S
C955 C954 1.385 . S
C955 C956 1.389 . S
C956 C955 1.389 . S
C956 C957 1.387 . S
C957 H942 0.930 . S
C957 C952 1.390 . S
C957 C956 1.387 . S
H958 C970 0.930 . S
H959 C972 0.930 . S
H960 C973 0.930 . S
H961 C977 0.959 . S
H962 C977 0.959 . S
H963 C977 0.961 . S
H964 C978 0.960 . S
H965 C978 0.961 . S
H966 C978 0.959 . S
H967 C981 0.929 . S
H968 C982 0.931 . S
H969 C984 0.930 . S
C970 H958 0.930 . S
C970 C971 1.399 . S
C970 C975 1.399 . S
C971 C970 1.399 . S
C971 C972 1.376 . S
C972 H959 0.930 . S
C972 C971 1.376 . S
C972 C973 1.388 . S
C973 H960 0.930 . S
C973 C972 1.388 . S
C973 C974 1.390 . S
C974 C973 1.390 . S
C974 C975 1.394 . S
C974 C980 1.465 . S
C975 C970 1.399 . S
C975 C974 1.394 . S
C975 C976 1.516 . S
C976 C975 1.516 . S
C976 C977 1.502 . S
C976 C978 1.561 . S
C976 C979 1.526 . S
C977 H961 0.959 . S
C977 H962 0.959 . S
C977 H963 0.961 . S
C977 C976 1.502 . S
C978 H964 0.960 . S
C978 H965 0.961 . S
C978 H966 0.959 . S
C978 C976 1.561 . S
C979 C976 1.526 . S
C979 C980 1.396 . S
C979 C984 1.390 . S
C980 C974 1.465 . S
C980 C979 1.396 . S
C980 C981 1.399 . S
C981 H967 0.929 . S
C981 C980 1.399 . S
C981 C982 1.385 . S
C982 H968 0.931 . S
C982 C981 1.385 . S
C982 C983 1.389 . S
C983 C982 1.389 . S
C983 C984 1.387 . S
C984 H969 0.930 . S
C984 C979 1.390 . S
C984 C983 1.387 . S
H985 C997 0.930 . S
H986 C999 0.930 . S
H987 C1000 0.930 . S
H988 C1004 0.959 . S
H989 C1004 0.959 . S
H990 C1004 0.961 . S
H991 C1005 0.960 . S
H992 C1005 0.961 . S
H993 C1005 0.959 . S
H994 C1008 0.929 . S
H995 C1009 0.931 . S
H996 C1011 0.930 . S
C997 H985 0.930 . S
C997 C998 1.399 . S
C997 C1002 1.399 . S
C998 C997 1.399 . S
C998 C999 1.376 . S
C999 H986 0.930 . S
C999 C998 1.376 . S
C999 C1000 1.388 . S
C1000 H987 0.930 . S
C1000 C999 1.388 . S
C1000 C1001 1.390 . S
C1001 C1000 1.390 . S
C1001 C1002 1.394 . S
C1001 C1007 1.465 . S
C1002 C997 1.399 . S
C1002 C1001 1.394 . S
C1002 C1003 1.516 . S
C1003 C1002 1.516 . S
C1003 C1004 1.502 . S
C1003 C1005 1.561 . S
C1003 C1006 1.526 . S
C1004 H988 0.959 . S
C1004 H989 0.959 . S
C1004 H990 0.961 . S
C1004 C1003 1.502 . S
C1005 H991 0.960 . S
C1005 H992 0.961 . S
C1005 H993 0.959 . S
C1005 C1003 1.561 . S
C1006 C1003 1.526 . S
C1006 C1007 1.396 . S
C1006 C1011 1.390 . S
C1007 C1001 1.465 . S
C1007 C1006 1.396 . S
C1007 C1008 1.399 . S
C1008 H994 0.929 . S
C1008 C1007 1.399 . S
C1008 C1009 1.385 . S
C1009 H995 0.931 . S
C1009 C1008 1.385 . S
C1009 C1010 1.389 . S
C1010 C1009 1.389 . S
C1010 C1011 1.387 . S
C1011 H996 0.930 . S
C1011 C1006 1.390 . S
C1011 C1010 1.387 . S
H1012 C1024 0.930 . S
H1013 C1026 0.930 . S
H1014 C1027 0.930 . S
H1015 C1031 0.959 . S
H1016 C1031 0.959 . S
H1017 C1031 0.961 . S
H1018 C1032 0.960 . S
H1019 C1032 0.961 . S
H1020 C1032 0.959 . S
H1021 C1035 0.929 . S
H1022 C1036 0.931 . S
H1023 C1038 0.930 . S
C1024 H1012 0.930 . S
C1024 C1025 1.399 . S
C1024 C1029 1.399 . S
C1025 C1024 1.399 . S
C1025 C1026 1.376 . S
C1026 H1013 0.930 . S
C1026 C1025 1.376 . S
C1026 C1027 1.388 . S
C1027 H1014 0.930 . S
C1027 C1026 1.388 . S
C1027 C1028 1.390 . S
C1028 C1027 1.390 . S
C1028 C1029 1.394 . S
C1028 C1034 1.465 . S
C1029 C1024 1.399 . S
C1029 C1028 1.394 . S
C1029 C1030 1.516 . S
C1030 C1029 1.516 . S
C1030 C1031 1.502 . S
C1030 C1032 1.561 . S
C1030 C1033 1.526 . S
C1031 H1015 0.959 . S
C1031 H1016 0.959 . S
C1031 H1017 0.961 . S
C1031 C1030 1.502 . S
C1032 H1018 0.960 . S
C1032 H1019 0.961 . S
C1032 H1020 0.959 . S
C1032 C1030 1.561 . S
C1033 C1030 1.526 . S
C1033 C1034 1.396 . S
C1033 C1038 1.390 . S
C1034 C1028 1.465 . S
C1034 C1033 1.396 . S
C1034 C1035 1.399 . S
C1035 H1021 0.929 . S
C1035 C1034 1.399 . S
C1035 C1036 1.385 . S
C1036 H1022 0.931 . S
C1036 C1035 1.385 . S
C1036 C1037 1.389 . S
C1037 C1036 1.389 . S
C1037 C1038 1.387 . S
C1038 H1023 0.930 . S
C1038 C1033 1.390 . S
C1038 C1037 1.387 . S
H1039 C1051 0.930 . S
H1040 C1053 0.930 . S
H1041 C1054 0.930 . S
H1042 C1058 0.959 . S
H1043 C1058 0.959 . S
H1044 C1058 0.961 . S
H1045 C1059 0.960 . S
H1046 C1059 0.961 . S
H1047 C1059 0.959 . S
H1048 C1062 0.929 . S
H1049 C1063 0.931 . S
H1050 C1065 0.930 . S
C1051 H1039 0.930 . S
C1051 C1052 1.399 . S
C1051 C1056 1.399 . S
C1052 C1051 1.399 . S
C1052 C1053 1.376 . S
C1053 H1040 0.930 . S
C1053 C1052 1.376 . S
C1053 C1054 1.388 . S
C1054 H1041 0.930 . S
C1054 C1053 1.388 . S
C1054 C1055 1.390 . S
C1055 C1054 1.390 . S
C1055 C1056 1.394 . S
C1055 C1061 1.465 . S
C1056 C1051 1.399 . S
C1056 C1055 1.394 . S
C1056 C1057 1.516 . S
C1057 C1056 1.516 . S
C1057 C1058 1.502 . S
C1057 C1059 1.561 . S
C1057 C1060 1.526 . S
C1058 H1042 0.959 . S
C1058 H1043 0.959 . S
C1058 H1044 0.961 . S
C1058 C1057 1.502 . S
C1059 H1045 0.960 . S
C1059 H1046 0.961 . S
C1059 H1047 0.959 . S
C1059 C1057 1.561 . S
C1060 C1057 1.526 . S
C1060 C1061 1.396 . S
C1060 C1065 1.390 . S
C1061 C1055 1.465 . S
C1061 C1060 1.396 . S
C1061 C1062 1.399 . S
C1062 H1048 0.929 . S
C1062 C1061 1.399 . S
C1062 C1063 1.385 . S
C1063 H1049 0.931 . S
C1063 C1062 1.385 . S
C1063 C1064 1.389 . S
C1064 C1063 1.389 . S
C1064 C1065 1.387 . S
C1065 H1050 0.930 . S
C1065 C1060 1.390 . S
C1065 C1064 1.387 . S
H1066 C1078 0.930 . S
H1067 C1080 0.930 . S
H1068 C1081 0.930 . S
H1069 C1085 0.959 . S
H1070 C1085 0.959 . S
H1071 C1085 0.961 . S
H1072 C1086 0.960 . S
H1073 C1086 0.961 . S
H1074 C1086 0.959 . S
H1075 C1089 0.929 . S
H1076 C1090 0.931 . S
H1077 C1092 0.930 . S
C1078 H1066 0.930 . S
C1078 C1079 1.399 . S
C1078 C1083 1.399 . S
C1079 C1078 1.399 . S
C1079 C1080 1.376 . S
C1080 H1067 0.930 . S
C1080 C1079 1.376 . S
C1080 C1081 1.388 . S
C1081 H1068 0.930 . S
C1081 C1080 1.388 . S
C1081 C1082 1.390 . S
C1082 C1081 1.390 . S
C1082 C1083 1.394 . S
C1082 C1088 1.465 . S
C1083 C1078 1.399 . S
C1083 C1082 1.394 . S
C1083 C1084 1.516 . S
C1084 C1083 1.516 . S
C1084 C1085 1.502 . S
C1084 C1086 1.561 . S
C1084 C1087 1.526 . S
C1085 H1069 0.959 . S
C1085 H1070 0.959 . S
C1085 H1071 0.961 . S
C1085 C1084 1.502 . S
C1086 H1072 0.960 . S
C1086 H1073 0.961 . S
C1086 H1074 0.959 . S
C1086 C1084 1.561 . S
C1087 C1084 1.526 . S
C1087 C1088 1.396 . S
C1087 C1092 1.390 . S
C1088 C1082 1.465 . S
C1088 C1087 1.396 . S
C1088 C1089 1.399 . S
C1089 H1075 0.929 . S
C1089 C1088 1.399 . S
C1089 C1090 1.385 . S
C1090 H1076 0.931 . S
C1090 C1089 1.385 . S
C1090 C1091 1.389 . S
C1091 C1090 1.389 . S
C1091 C1092 1.387 . S
C1092 H1077 0.930 . S
C1092 C1087 1.390 . S
C1092 C1091 1.387 . S
H1093 C1105 0.930 . S
H1094 C1107 0.930 . S
H1095 C1108 0.930 . S
H1096 C1112 0.959 . S
H1097 C1112 0.959 . S
H1098 C1112 0.961 . S
H1099 C1113 0.960 . S
H1100 C1113 0.961 . S
H1101 C1113 0.959 . S
H1102 C1116 0.929 . S
H1103 C1117 0.931 . S
H1104 C1119 0.930 . S
C1105 H1093 0.930 . S
C1105 C1106 1.399 . S
C1105 C1110 1.399 . S
C1106 C1105 1.399 . S
C1106 C1107 1.376 . S
C1107 H1094 0.930 . S
C1107 C1106 1.376 . S
C1107 C1108 1.388 . S
C1108 H1095 0.930 . S
C1108 C1107 1.388 . S
C1108 C1109 1.390 . S
C1109 C1108 1.390 . S
C1109 C1110 1.394 . S
C1109 C1115 1.465 . S
C1110 C1105 1.399 . S
C1110 C1109 1.394 . S
C1110 C1111 1.516 . S
C1111 C1110 1.516 . S
C1111 C1112 1.502 . S
C1111 C1113 1.561 . S
C1111 C1114 1.526 . S
C1112 H1096 0.959 . S
C1112 H1097 0.959 . S
C1112 H1098 0.961 . S
C1112 C1111 1.502 . S
C1113 H1099 0.960 . S
C1113 H1100 0.961 . S
C1113 H1101 0.959 . S
C1113 C1111 1.561 . S
C1114 C1111 1.526 . S
C1114 C1115 1.396 . S
C1114 C1119 1.390 . S
C1115 C1109 1.465 . S
C1115 C1114 1.396 . S
C1115 C1116 1.399 . S
C1116 H1102 0.929 . S
C1116 C1115 1.399 . S
C1116 C1117 1.385 . S
C1117 H1103 0.931 . S
C1117 C1116 1.385 . S
C1117 C1118 1.389 . S
C1118 C1117 1.389 . S
C1118 C1119 1.387 . S
C1119 H1104 0.930 . S
C1119 C1114 1.390 . S
C1119 C1118 1.387 . S
C485 C1 1.281 . S
C497 C319 1.301 . S
C512 C40 0.987 . S
C524 C368 0.985 . S
C551 C394 2.445 . S
C539 C99 2.498 . S
C566 C118 2.365 . S
C578 C442 2.318 . S
C605 C354 2.511 . S
C593 C16 2.368 . S
C632 C322 0.785 . S
C620 C60 0.900 . S
C659 C443 1.898 . S
C647 C79 1.937 . S
C686 C411 1.585 . S
C674 C138 1.596 . S
C701 C21 1.683 . S
C713 C439 1.755 . S
C740 C371 2.349 . S
C728 C94 2.402 . S
C755 C133 2.320 . S
C767 C323 2.300 . S
C782 C55 0.840 . S
C794 C408 0.828 . S
C821 C328 1.291 . S
C809 C157 1.247 . S
C836 C196 1.015 . S
C848 C359 0.937 . S
C863 C255 2.495 . S
C875 C403 2.460 . S
C890 C289 2.368 . S
C902 C451 2.314 . S
C917 C172 2.350 . S
C929 C363 2.511 . S
C956 C331 0.814 . S
C944 C216 0.914 . S
C983 C434 1.922 . S
C971 C235 1.938 . S
C1010 C402 1.564 . S
C998 C294 1.591 . S
C1025 C177 1.720 . S
C1037 C448 1.752 . S
C1064 C362 2.340 . S
C1052 C250 2.406 . S
C1091 C314 2.304 . S
C1079 C274 2.319 . S
C1106 C211 0.867 . S
C1118 C399 0.827 . S
