# Generated by pormake.
# Topology zzz, (3,6)-cn, num edge types: 1
# Building blocks:
#     Node 0, Type 0, BuildingBlock: KAKCAD_clean_linker_0, # of connection points: 3
#     Node 1, Type 0, BuildingBlock: KAKCAD_clean_linker_0, # of connection points: 3
#     Node 2, Type 0, BuildingBlock: KAKCAD_clean_linker_0, # of connection points: 3
#     Node 3, Type 0, BuildingBlock: KAKCAD_clean_linker_0, # of connection points: 3
#     Node 4, Type 0, BuildingBlock: KAKCAD_clean_linker_0, # of connection points: 3
#     Node 5, Type 0, BuildingBlock: KAKCAD_clean_linker_0, # of connection points: 3
#     Node 6, Type 0, BuildingBlock: KAKCAD_clean_linker_0, # of connection points: 3
#     Node 7, Type 0, BuildingBlock: KAKCAD_clean_linker_0, # of connection points: 3
#     Node 8, Type 1, BuildingBlock: NUHQIS_clean_sbu_0, # of connection points: 6
#     Node 9, Type 1, BuildingBlock: NUHQIS_clean_sbu_0, # of connection points: 6
#     Node 10, Type 1, BuildingBlock: NUHQIS_clean_sbu_0, # of connection points: 6
#     Node 11, Type 1, BuildingBlock: NUHQIS_clean_sbu_0, # of connection points: 6
#     Edge 12, Type (0, 1), BuildingBlock: AJUNOK_clean_linker_0, # of connection points: 2
#     Edge 13, Type (0, 1), BuildingBlock: AJUNOK_clean_linker_0, # of connection points: 2
#     Edge 14, Type (0, 1), BuildingBlock: AJUNOK_clean_linker_0, # of connection points: 2
#     Edge 15, Type (0, 1), BuildingBlock: AJUNOK_clean_linker_0, # of connection points: 2
#     Edge 16, Type (0, 1), BuildingBlock: AJUNOK_clean_linker_0, # of connection points: 2
#     Edge 17, Type (0, 1), BuildingBlock: AJUNOK_clean_linker_0, # of connection points: 2
#     Edge 18, Type (0, 1), BuildingBlock: AJUNOK_clean_linker_0, # of connection points: 2
#     Edge 19, Type (0, 1), BuildingBlock: AJUNOK_clean_linker_0, # of connection points: 2
#     Edge 20, Type (0, 1), BuildingBlock: AJUNOK_clean_linker_0, # of connection points: 2
#     Edge 21, Type (0, 1), BuildingBlock: AJUNOK_clean_linker_0, # of connection points: 2
#     Edge 22, Type (0, 1), BuildingBlock: AJUNOK_clean_linker_0, # of connection points: 2
#     Edge 23, Type (0, 1), BuildingBlock: AJUNOK_clean_linker_0, # of connection points: 2
#     Edge 24, Type (0, 1), BuildingBlock: AJUNOK_clean_linker_0, # of connection points: 2
#     Edge 25, Type (0, 1), BuildingBlock: AJUNOK_clean_linker_0, # of connection points: 2
#     Edge 26, Type (0, 1), BuildingBlock: AJUNOK_clean_linker_0, # of connection points: 2
#     Edge 27, Type (0, 1), BuildingBlock: AJUNOK_clean_linker_0, # of connection points: 2
#     Edge 28, Type (0, 1), BuildingBlock: AJUNOK_clean_linker_0, # of connection points: 2
#     Edge 29, Type (0, 1), BuildingBlock: AJUNOK_clean_linker_0, # of connection points: 2
#     Edge 30, Type (0, 1), BuildingBlock: AJUNOK_clean_linker_0, # of connection points: 2
#     Edge 31, Type (0, 1), BuildingBlock: AJUNOK_clean_linker_0, # of connection points: 2
#     Edge 32, Type (0, 1), BuildingBlock: AJUNOK_clean_linker_0, # of connection points: 2
#     Edge 33, Type (0, 1), BuildingBlock: AJUNOK_clean_linker_0, # of connection points: 2
#     Edge 34, Type (0, 1), BuildingBlock: AJUNOK_clean_linker_0, # of connection points: 2
#     Edge 35, Type (0, 1), BuildingBlock: AJUNOK_clean_linker_0, # of connection points: 2
# Relax obj value: 0.470
# Max RMSD: 0.250
# Mean RMSD: 0.233
data_MOF--net-zzz--node1-NUHQIS_clean_sbu_0--node2-KAKCAD_clean_linker_0--edge1-AJUNOK_clean_linker_0
_symmetry_space_group_name_H-M    P1
_symmetry_Int_Tables_number       1
_symmetry_cell_setting            triclinic
loop_
_symmetry_equiv_pos_as_xyz
'x, y, z'
_cell_length_a     46.225926
_cell_length_b     46.537924
_cell_length_c     14.910239
_cell_angle_alpha  90.078581
_cell_angle_beta   89.727872
_cell_angle_gamma 90.078052
loop_
_atom_site_label
_atom_site_type_symbol
_atom_site_fract_x
_atom_site_fract_y
_atom_site_fract_z
_atom_type_partial_charge
C0 C 0.80303 0.40191 0.07917 0.0
C1 C 0.81876 0.38097 0.12617 0.0
C2 C 0.78138 0.4176 0.12235 0.0
C3 C 0.77523 0.41271 0.21332 0.0
C4 C 0.78798 0.38905 0.25626 0.0
C5 C 0.80943 0.37307 0.21256 0.0
C6 C 0.76162 0.43597 0.26657 0.0
C7 C 0.73701 0.4502 0.23557 0.0
C8 C 0.72798 0.47629 0.27407 0.0
C9 C 0.74425 0.4883 0.34561 0.0
C10 C 0.76894 0.47366 0.37876 0.0
C11 C 0.77686 0.44743 0.33916 0.0
C12 C 0.78937 0.48581 0.44687 0.0
C13 C 0.80388 0.51191 0.4312 0.0
C14 C 0.79965 0.46794 0.51596 0.0
C15 C 0.825 0.4747 0.56282 0.0
C16 C 0.84076 0.49984 0.54324 0.0
C17 C 0.70303 0.4911 0.23103 0.0
C18 C 0.70521 0.49884 0.14016 0.0
C19 C 0.67566 0.492 0.27248 0.0
C20 C 0.6509 0.49955 0.22291 0.0
C21 C 0.65299 0.50638 0.13082 0.0
C22 C 0.68064 0.50626 0.09082 0.0
C23 C 0.82924 0.51883 0.47879 0.0
H24 H 0.80958 0.40847 1.01241 0.0
H25 H 0.77193 0.43569 0.08749 0.0
H26 H 0.78322 0.38458 0.32608 0.0
H27 H 0.8206 0.35643 0.24937 0.0
H28 H 0.72546 0.44148 0.17848 0.0
H29 H 0.79671 0.43705 0.36007 0.0
H30 H 0.73821 0.50896 0.37345 0.0
H31 H 0.7969 0.52594 0.37762 0.0
H32 H 0.78921 0.44751 0.52913 0.0
H33 H 0.83322 0.4591 0.61 0.0
H34 H 0.72589 0.49761 0.10582 0.0
H35 H 0.67318 0.48539 0.34173 0.0
H36 H 0.84055 0.53852 0.46221 0.0
H37 H 0.68325 0.5104 0.01981 0.0
H38 H 0.63001 0.49929 0.2561 0.0
C39 C 0.13139 0.76673 0.0755 0.0
C40 C 0.14204 0.79339 0.10492 0.0
C41 C 0.11496 0.74959 0.13341 0.0
C42 C 0.11058 0.75791 0.22354 0.0
C43 C 0.12739 0.78079 0.25675 0.0
C44 C 0.14234 0.7988 0.19779 0.0
C45 C 0.08522 0.74676 0.27626 0.0
C46 C 0.07235 0.72028 0.2553 0.0
C47 C 0.04487 0.71275 0.2885 0.0
C48 C 0.03054 0.73156 0.34892 0.0
C49 C 0.04429 0.75726 0.37683 0.0
C50 C 0.07108 0.76466 0.33871 0.0
C51 C 0.03146 0.77812 0.44224 0.0
C52 C 1.00729 0.79483 0.41949 0.0
C53 C 0.04751 0.78603 0.51846 0.0
C54 C 0.04059 0.81078 0.56786 0.0
C55 C 0.01739 0.82851 0.54252 0.0
C56 C 0.03163 0.68593 0.25195 0.0
C57 C 1.00835 0.68739 0.1919 0.0
C58 C 0.04683 0.6599 0.25888 0.0
C59 C 0.04027 0.6365 0.20331 0.0
C60 C 0.01814 0.6384 0.13906 0.0
C61 C 1.00171 0.66391 0.13598 0.0
C62 C 1.00037 0.81976 0.46891 0.0
H63 H 0.13283 0.76065 1.00551 0.0
H64 H 0.10362 0.73159 0.10416 0.0
H65 H 0.12679 0.78665 0.32697 0.0
H66 H 0.15131 0.81851 0.2245 0.0
H67 H 0.08302 0.70576 0.20911 0.0
H68 H 0.07993 0.78556 0.35492 0.0
H69 H 1.0093 0.72608 0.37474 0.0
H70 H 0.99491 0.78971 0.36006 0.0
H71 H 0.06663 0.77395 0.53656 0.0
H72 H 0.05462 0.81696 0.62256 0.0
H73 H 0.99664 0.70735 0.18353 0.0
H74 H 0.06521 0.65841 0.30314 0.0
H75 H 0.9823 0.83279 0.44745 0.0
H76 H 0.98444 0.66614 0.08767 0.0
H77 H 0.05388 0.61762 0.20682 0.0
C78 C 0.72552 0.10871 0.14934 0.0
C79 C 0.70879 0.12638 0.20587 0.0
C80 C 0.74745 0.09169 0.18479 0.0
C81 C 0.75285 0.09194 0.27738 0.0
C82 C 0.73949 0.11308 0.33081 0.0
C83 C 0.71758 0.13023 0.2952 0.0
C84 C 0.76538 0.06591 0.31925 0.0
C85 C 0.78898 0.05177 0.28016 0.0
C86 C 0.79618 0.0235 0.30468 0.0
C87 C 0.77916 1.00925 0.37067 0.0
C88 C 0.75564 0.02375 0.41214 0.0
C89 C 0.74955 0.05206 0.38683 0.0
C90 C 0.73417 1.00988 0.47351 0.0
C91 C 0.71233 0.99231 0.43759 0.0
C92 C 0.7301 0.02114 0.56028 0.0
C93 C 0.70423 0.01634 0.60783 0.0
C94 C 0.68152 1.00031 0.56974 0.0
C95 C 0.82 1.00925 0.25329 0.0
C96 C 0.81801 1.00746 0.15935 0.0
C97 C 0.84658 1.00258 0.29373 0.0
C98 C 0.8709 0.99544 0.24079 0.0
C99 C 0.86911 0.99462 0.14633 0.0
C100 C 0.84213 1.00031 0.10675 0.0
C101 C 0.68633 0.98763 0.48493 0.0
H102 H 0.71928 0.105 0.08036 0.0
H103 H 0.75735 0.0757 0.14165 0.0
H104 H 0.7437 0.11411 0.40216 0.0
H105 H 0.70533 0.14402 0.33994 0.0
H106 H 0.80109 0.06241 0.22725 0.0
H107 H 0.73047 0.0624 0.41457 0.0
H108 H 0.78361 0.98706 0.38746 0.0
H109 H 0.71432 0.98422 0.36968 0.0
H110 H 0.74616 0.03542 0.58878 0.0
H111 H 0.70153 0.02629 0.67303 0.0
H112 H 0.79799 1.01302 0.12613 0.0
H113 H 0.84894 1.00438 0.36575 0.0
H114 H 0.66925 0.9757 0.45216 0.0
H115 H 0.83992 1.00069 0.0345 0.0
H116 H 0.8913 0.99123 0.27363 0.0
C117 C 0.50145 0.70632 0.58539 0.0
C118 C 0.51143 0.68068 0.54535 0.0
C119 C 0.49646 0.73106 0.53342 0.0
C120 C 0.50179 0.73095 0.44049 0.0
C121 C 0.51358 0.70602 0.40164 0.0
C122 C 0.51841 0.68131 0.45324 0.0
C123 C 0.48698 0.75216 0.38161 0.0
C124 C 0.4991 0.77873 0.35447 0.0
C125 C 0.48351 0.797 0.29588 0.0
C126 C 0.45618 0.7882 0.2648 0.0
C127 C 0.44465 0.76125 0.28766 0.0
C128 C 0.46015 0.74379 0.34727 0.0
C129 C 0.41919 0.74893 0.23956 0.0
C130 C 0.41535 0.75409 0.14738 0.0
C131 C 0.40218 0.72749 0.28039 0.0
C132 C 0.38665 0.70801 0.22813 0.0
C133 C 0.38651 0.7105 0.13407 0.0
C134 C 0.4957 0.82424 0.25848 0.0
C135 C 0.48003 0.85002 0.26693 0.0
C136 C 0.51937 0.82353 0.19896 0.0
C137 C 0.52611 0.84751 0.14535 0.0
C138 C 0.50959 0.8729 0.15092 0.0
C139 C 0.48698 0.87407 0.21433 0.0
C140 C 0.39862 0.7354 0.09558 0.0
H141 H 0.49652 0.70703 0.65641 0.0
H142 H 0.48664 0.74967 0.56485 0.0
H143 H 0.51704 0.70497 0.32978 0.0
H144 H 0.52599 0.66209 0.41953 0.0
H145 H 0.52037 0.78496 0.37776 0.0
H146 H 0.45221 0.72253 0.36397 0.0
H147 H 0.44452 0.80195 0.2189 0.0
H148 H 0.42751 0.77065 0.11292 0.0
H149 H 0.40327 0.72378 0.35198 0.0
H150 H 0.37768 0.68937 0.26145 0.0
H151 H 0.46135 0.85104 0.31098 0.0
H152 H 0.53145 0.80382 0.18952 0.0
H153 H 0.39801 0.73866 0.0237 0.0
H154 H 0.47347 0.893 0.21949 0.0
H155 H 0.54363 0.84587 0.09712 0.0
C156 C 0.23398 0.64376 0.30739 0.0
C157 C 0.21969 0.63415 0.38564 0.0
C158 C 0.25208 0.62518 0.25899 0.0
C159 C 0.25774 0.59749 0.29134 0.0
C160 C 0.24671 0.58929 0.3749 0.0
C161 C 0.22765 0.60717 0.42096 0.0
C162 C 0.27046 0.57511 0.23351 0.0
C163 C 0.2958 0.56112 0.25929 0.0
C164 C 0.30429 0.53529 0.21829 0.0
C165 C 0.28644 0.52307 0.15089 0.0
C166 C 0.26106 0.53764 0.12287 0.0
C167 C 0.25376 0.5638 0.16388 0.0
C168 C 0.23982 0.5256 0.05759 0.0
C169 C 0.23588 0.53915 0.9743 0.0
C170 C 0.21869 0.50592 0.08675 0.0
C171 C 0.19367 0.50081 0.03564 0.0
C172 C 0.18912 0.51515 0.95352 0.0
C173 C 0.33078 0.5212 0.25407 0.0
C174 C 0.35814 0.53307 0.23516 0.0
C175 C 0.32839 0.50132 0.32456 0.0
C176 C 0.35247 0.4946 0.37781 0.0
C177 C 0.37961 0.50751 0.36174 0.0
C178 C 0.38231 0.52616 0.28782 0.0
C179 C 0.21104 0.53385 0.92273 0.0
H180 H 0.23002 0.66493 0.28043 0.0
H181 H 0.26052 0.63192 0.1945 0.0
H182 H 0.25069 0.5679 0.40073 0.0
H183 H 0.21734 0.59846 0.48029 0.0
H184 H 0.30829 0.5697 0.31468 0.0
H185 H 0.23362 0.57431 0.14624 0.0
H186 H 0.29208 0.50256 0.12129 0.0
H187 H 0.25136 0.55503 0.95121 0.0
H188 H 0.22057 0.49598 0.15212 0.0
H189 H 0.17712 0.48689 0.06335 0.0
H190 H 0.36038 0.54913 0.18313 0.0
H191 H 0.30744 0.4925 0.34241 0.0
H192 H 0.20855 0.5452 0.8599 0.0
H193 H 0.40264 0.53695 0.27429 0.0
H194 H 0.34958 0.4802 0.43415 0.0
C195 C 0.9943 0.24125 0.51752 0.0
C196 C 1.00264 0.21254 0.52917 0.0
C197 C 1.00558 0.25717 0.44632 0.0
C198 C 0.02557 0.2446 0.38662 0.0
C199 C 0.03699 0.21749 0.40645 0.0
C200 C 0.02537 0.20143 0.4764 0.0
C201 C 0.02945 0.25683 0.29601 0.0
C202 C 0.03153 0.2864 0.28439 0.0
C203 C 0.02856 0.29891 0.19958 0.0
C204 C 0.02423 0.28092 0.12337 0.0
C205 C 0.02322 0.25053 0.13443 0.0
C206 C 0.02609 0.23912 0.22089 0.0
C207 C 0.01729 0.22916 0.06141 0.0
C208 C 0.99307 0.21095 0.07032 0.0
C209 C 0.03905 0.22116 1.00012 0.0
C210 C 0.03749 0.19472 0.95379 0.0
C211 C 1.01447 0.17524 0.96918 0.0
C212 C 0.02716 0.33089 0.20023 0.0
C213 C 1.0001 0.34395 0.21449 0.0
C214 C 0.05211 0.34614 0.22609 0.0
C215 C 0.04992 0.37185 0.27511 0.0
C216 C 0.0227 0.38298 0.29947 0.0
C217 C 0.99789 0.36974 0.2633 0.0
C218 C 0.99172 0.18446 0.02541 0.0
H219 H 0.97702 0.25039 0.55774 0.0
H220 H 0.99639 0.27811 0.43291 0.0
H221 H 0.05281 0.20757 0.36246 0.0
H222 H 0.03209 0.17923 0.48211 0.0
H223 H 0.0339 0.30004 0.34304 0.0
H224 H 0.02397 0.21609 0.23014 0.0
H225 H 0.02106 0.29032 0.05778 0.0
H226 H 0.97616 0.21617 0.11818 0.0
H227 H 0.0582 0.23439 0.99261 0.0
H228 H 0.05492 0.18914 0.90833 0.0
H229 H 0.98044 0.33257 0.19709 0.0
H230 H 0.07323 0.33637 0.21808 0.0
H231 H 0.97358 0.17042 0.03953 0.0
H232 H 0.97659 0.37818 0.27827 0.0
H233 H 0.06952 0.38149 0.30105 0.0
C234 C 0.31691 0.08071 0.41365 0.0
C235 C 0.33895 0.0942 0.36373 0.0
C236 C 0.28886 0.0795 0.38019 0.0
C237 C 0.28271 0.09154 0.29613 0.0
C238 C 0.30292 0.11067 0.25803 0.0
C239 C 0.33107 0.11199 0.29183 0.0
C240 C 0.26219 0.07582 0.23752 0.0
C241 C 0.23585 0.06549 0.27124 0.0
C242 C 0.22129 0.04255 0.2294 0.0
C243 C 0.23361 0.02993 0.15116 0.0
C244 C 0.25974 0.04107 0.11477 0.0
C245 C 0.27304 0.0644 0.15726 0.0
C246 C 0.27724 0.02697 0.04262 0.0
C247 C 0.29384 1.00262 0.06374 0.0
C248 C 0.28522 0.04311 0.96656 0.0
C249 C 0.3104 0.03656 0.91753 0.0
C250 C 0.32841 0.01365 0.94318 0.0
C251 C 0.19518 0.03076 0.2762 0.0
C252 C 0.19759 0.02175 0.36588 0.0
C253 C 0.16738 0.03303 0.23898 0.0
C254 C 0.14255 0.02768 0.29183 0.0
C255 C 0.14501 0.01998 0.38307 0.0
C256 C 0.17296 0.01637 0.41832 0.0
C257 C 0.31911 0.99607 1.01479 0.0
H258 H 0.32201 0.06735 0.47088 0.0
H259 H 0.27365 0.06511 0.41269 0.0
H260 H 0.29837 0.12107 0.19469 0.0
H261 H 0.34739 0.12376 0.25462 0.0
H262 H 0.22759 0.07414 0.33391 0.0
H263 H 0.29407 0.07137 0.13293 0.0
H264 H 0.22362 1.0112 0.12116 0.0
H265 H 0.28886 0.99024 0.12334 0.0
H266 H 0.27345 0.06252 0.9502 0.0
H267 H 0.31696 0.05097 0.86419 0.0
H268 H 0.21869 0.02007 0.39676 0.0
H269 H 0.16481 0.04025 0.17046 0.0
H270 H 0.33229 0.97817 0.03636 0.0
H271 H 0.17586 1.01056 0.48801 0.0
H272 H 0.12144 0.03006 0.26166 0.0
C273 C 0.49871 0.33259 0.05651 0.0
C274 C 0.50699 0.33453 0.96562 0.0
C275 C 0.50257 0.30694 0.10481 0.0
C276 C 0.51455 0.28249 0.0634 0.0
C277 C 0.52067 0.28375 0.971 0.0
C278 C 0.51671 0.30933 0.92258 0.0
C279 C 0.52986 0.26093 0.11969 0.0
C280 C 0.51667 0.23656 0.15983 0.0
C281 C 0.53303 0.21846 0.21728 0.0
C282 C 0.56184 0.22604 0.23694 0.0
C283 C 0.57461 0.25049 0.19918 0.0
C284 C 0.55878 0.26712 0.13882 0.0
C285 C 0.60152 0.2629 0.23601 0.0
C286 C 0.60208 0.27002 0.32741 0.0
C287 C 0.62213 0.27527 0.17814 0.0
C288 C 0.6395 0.29791 0.20809 0.0
C289 C 0.63587 0.30872 0.29549 0.0
C290 C 0.52085 0.1924 0.26271 0.0
C291 C 0.49616 0.19401 0.318 0.0
C292 C 0.53683 0.16666 0.26218 0.0
C293 C 0.5294 0.14381 0.31887 0.0
C294 C 0.50575 0.14591 0.37834 0.0
C295 C 0.48869 0.17103 0.37519 0.0
C296 C 0.61908 0.29288 0.35695 0.0
H297 H 0.49117 0.35147 0.09208 0.0
H298 H 0.49855 0.30698 0.17646 0.0
H299 H 0.53065 0.26556 0.9377 0.0
H300 H 0.5226 0.30972 0.85221 0.0
H301 H 0.49417 0.23174 0.14651 0.0
H302 H 0.56832 0.28662 0.11173 0.0
H303 H 0.57402 0.21362 0.28526 0.0
H304 H 0.58651 0.26074 0.37361 0.0
H305 H 0.62242 0.26973 0.10754 0.0
H306 H 0.65317 0.30903 0.16018 0.0
H307 H 0.48351 0.21357 0.32049 0.0
H308 H 0.55597 0.16466 0.22035 0.0
H309 H 0.61602 0.30037 0.42516 0.0
H310 H 0.4699 0.17319 0.41826 0.0
H311 H 0.54309 0.12494 0.31895 0.0
Tb312 Tb 0.03285 0.99101 0.84039 0.0
Eu313 Eu 0.98263 1.00802 0.70148 0.0
C314 C 0.04927 1.00768 0.6426 0.0
C315 C 1.01112 0.05566 0.83226 0.0
C316 C 0.09431 0.95409 0.94845 0.0
C317 C 0.11873 0.91445 0.8741 0.0
C318 C 0.10161 0.93914 0.86968 0.0
C319 C 0.10583 0.9453 0.03049 0.0
C320 C 0.1227 0.92052 0.03506 0.0
C321 C 0.12824 0.90413 0.95751 0.0
C322 C 0.07243 0.97683 0.94747 0.0
O323 O 0.99356 0.99911 0.91993 0.0
O324 O 0.96291 0.98241 0.81456 0.0
O325 O 0.99622 0.96415 0.65434 0.0
O326 O 0.01845 0.94944 0.78402 0.0
C327 C 0.96806 0.9888 0.89844 0.0
O328 O 0.93624 1.01195 0.67719 0.0
O329 O 0.9666 0.02369 0.57303 0.0
O330 O 0.02506 0.02243 0.63832 0.0
O331 O 0.05333 0.98933 0.70821 0.0
O332 O 0.03326 0.03818 0.84165 0.0
O333 O 0.98738 0.04684 0.79253 0.0
C334 C 1.00765 0.94381 0.70381 0.0
O335 O 0.07543 0.9964 0.88567 0.0
O336 O 0.04572 0.96799 0.95427 0.0
C337 C 0.92898 0.05579 0.60212 0.0
C338 C 0.93358 0.1156 0.60742 0.0
C339 C 0.92794 0.10044 0.68647 0.0
C340 C 0.92557 0.07062 0.68395 0.0
C341 C 0.93008 0.07142 0.52187 0.0
C342 C 0.9324 0.10132 0.52454 0.0
C343 C 0.94017 0.02623 0.60302 0.0
H344 H 0.12301 0.90245 0.81317 0.0
H345 H 0.0929 0.94573 0.80557 0.0
H346 H 0.10041 0.95666 0.0918 0.0
H347 H 0.1295 0.91301 0.10039 0.0
H348 H 0.92862 0.11129 0.75075 0.0
H349 H 0.92455 0.05919 0.74713 0.0
H350 H 0.93275 0.06045 0.45822 0.0
H351 H 0.93682 0.11282 0.46282 0.0
Tb352 Tb 0.51241 0.03168 0.83241 0.0
Eu353 Eu 0.49817 0.98455 0.67985 0.0
C354 C 0.49792 0.05135 0.63857 0.0
C355 C 0.44809 1.01085 0.80545 0.0
C356 C 0.54788 0.0851 0.9883 0.0
C357 C 0.57587 0.12789 0.0242 0.0
C358 C 0.55213 0.11496 0.9827 0.0
C359 C 0.56736 0.06837 0.03756 0.0
C360 C 0.59091 0.08131 0.07961 0.0
C361 C 0.59552 0.11109 0.07251 0.0
C362 C 0.52321 0.07209 0.94136 0.0
O363 O 0.52392 0.99098 0.89795 0.0
O364 O 0.50057 0.95836 0.80657 0.0
O365 O 0.5459 0.9796 0.70352 0.0
O366 O 0.5535 0.02483 0.75924 0.0
C367 C 0.51355 0.96494 0.88233 0.0
O368 O 0.47043 0.95166 0.62033 0.0
O369 O 0.50804 0.96656 0.54773 0.0
O370 O 0.50769 0.02655 0.61106 0.0
O371 O 0.49053 0.05439 0.72309 0.0
O372 O 0.46829 0.01789 0.86311 0.0
O373 O 0.45504 1.00381 0.7227 0.0
C374 C 0.5634 1.00108 0.72129 0.0
O375 O 0.52329 0.0749 0.85467 0.0
O376 O 0.51504 0.04643 0.96552 0.0
C377 C 0.46326 0.96856 0.47298 0.0
C378 C 0.42898 1.01339 0.40631 0.0
C379 C 0.4163 0.99104 0.45585 0.0
C380 C 0.4332 0.96855 0.48787 0.0
C381 C 0.47497 0.98868 0.41194 0.0
C382 C 0.4579 1.01108 0.37908 0.0
C383 C 0.48224 0.95533 0.5413 0.0
H384 H 0.57898 0.15089 1.0183 0.0
H385 H 0.53721 0.12823 0.94524 0.0
H386 H 0.56463 0.04531 0.04271 0.0
H387 H 0.60602 0.06791 0.11587 0.0
H388 H 0.39368 0.99204 0.47503 0.0
H389 H 0.4233 0.95313 0.53297 0.0
H390 H 0.49796 0.98906 0.3975 0.0
H391 H 0.46785 0.02781 0.33895 0.0
Tb392 Tb 0.48923 0.51467 0.8315 0.0
Eu393 Eu 0.5403 0.50119 0.68477 0.0
C394 C 0.47314 0.50291 0.62802 0.0
C395 C 0.51076 0.4503 0.80469 0.0
C396 C 0.42888 0.54836 0.95757 0.0
C397 C 0.40236 0.57991 0.05768 0.0
C398 C 0.41875 0.55512 0.04366 0.0
C399 C 0.42067 0.5654 0.88442 0.0
C400 C 0.40409 0.59009 0.89834 0.0
C401 C 0.39579 0.59818 0.98558 0.0
C402 C 0.45064 0.52575 0.94675 0.0
O403 O 0.52902 0.50461 0.90482 0.0
O404 O 0.55959 0.52432 0.80348 0.0
O405 O 0.52944 0.54734 0.65904 0.0
O406 O 0.50099 0.55792 0.78212 0.0
C407 C 0.55436 0.51579 0.88554 0.0
O408 O 0.58517 0.48825 0.66335 0.0
O409 O 0.55885 0.50074 0.55008 0.0
O410 O 0.49812 0.48984 0.6151 0.0
O411 O 0.46805 0.51782 0.70146 0.0
O412 O 0.48919 0.46773 0.82376 0.0
O413 O 0.53369 0.45936 0.76018 0.0
C414 C 0.51513 0.5658 0.70878 0.0
O415 O 0.44699 0.50813 0.87968 0.0
O416 O 0.47741 0.53442 0.95273 0.0
C417 C 0.59663 0.46723 0.52392 0.0
C418 C 0.62209 0.42165 0.42824 0.0
C419 C 0.63936 0.44015 0.4795 0.0
C420 C 0.6267 0.46294 0.52655 0.0
C421 C 0.57939 0.44876 0.47244 0.0
C422 C 0.59204 0.42621 0.42488 0.0
C423 C 0.58376 0.49072 0.57644 0.0
H424 H 0.39692 0.58596 0.12587 0.0
H425 H 0.42501 0.54223 0.10082 0.0
H426 H 0.42839 0.56048 0.8174 0.0
H427 H 0.39933 0.60385 0.84181 0.0
H428 H 0.66251 0.43684 0.48353 0.0
H429 H 0.64033 0.47702 0.56604 0.0
H430 H 0.55613 0.45147 0.46997 0.0
H431 H 0.5782 0.41175 0.38747 0.0
Tb432 Tb 1.01145 0.4844 0.79424 0.0
Eu433 Eu 0.02516 0.53521 0.65047 0.0
C434 C 0.02027 0.46922 0.58989 0.0
C435 C 0.07514 0.50944 0.77635 0.0
C436 C 0.97825 0.42291 0.91629 0.0
C437 C 0.95836 0.38334 1.00257 0.0
C438 C 0.98201 0.40022 0.97676 0.0
C439 C 0.95121 0.42717 0.87635 0.0
C440 C 0.92753 0.41061 0.90297 0.0
C441 C 0.93059 0.38941 0.96946 0.0
C442 C 1.00156 0.44385 0.90268 0.0
O443 O 0.01948 0.52253 0.87683 0.0
O444 O 1.00889 0.55768 0.77534 0.0
O445 O 0.97951 0.52101 0.62078 0.0
O446 O 0.96822 0.49963 0.75504 0.0
C447 C 1.01305 0.54941 0.85848 0.0
O448 O 0.01785 0.57846 0.59797 0.0
O449 O 0.04714 0.54951 0.52917 0.0
O450 O 0.0355 0.49292 0.58149 0.0
O451 O 1.00473 0.46483 0.66256 0.0
O452 O 0.05882 0.48633 0.78395 0.0
O453 O 0.0651 0.53273 0.73755 0.0
C454 C 0.96032 0.51025 0.67679 0.0
O455 O 0.01698 0.44099 0.82987 0.0
O456 O 0.99441 0.47055 0.91704 0.0
C457 C 0.05769 0.5986 0.51814 0.0
C458 C 0.10488 0.63587 0.48822 0.0
C459 C 0.09159 0.63445 0.57331 0.0
C460 C 0.06826 0.61576 0.58839 0.0
C461 C 0.06964 0.60136 0.43235 0.0
C462 C 0.09318 0.61941 0.41777 0.0
C463 C 0.03663 0.57544 0.53313 0.0
H464 H 0.96145 0.36672 0.05239 0.0
H465 H 1.00287 0.39648 1.00745 0.0
H466 H 0.94805 0.44444 0.82879 0.0
H467 H 0.90643 0.41592 0.8764 0.0
H468 H 0.10015 0.64665 0.62912 0.0
H469 H 0.05938 0.61381 0.65548 0.0
H470 H 0.06188 0.58817 0.37747 0.0
H471 H 0.10332 0.61884 0.35221 0.0
C472 C 0.11763 0.99326 0.50401 0.0
C473 C 0.11901 0.01642 0.4433 0.0
C474 C 0.09495 0.99058 0.56675 0.0
C475 C 0.07237 1.01089 0.57209 0.0
H476 H 0.13441 0.97703 0.50356 0.0
H477 H 0.09531 0.97236 0.61186 0.0
S478 S 0.06573 0.07596 0.42961 0.0
N479 N 0.09569 0.06038 0.39358 0.0
N480 N 0.05296 0.05514 0.51023 0.0
C481 C 0.07315 0.03396 0.51085 0.0
C482 C 0.0964 0.03674 0.44692 0.0
C483 C 0.50237 0.09329 0.41862 0.0
C484 C 0.50016 0.12229 0.44519 0.0
C485 C 0.50074 0.07074 0.48116 0.0
C486 C 0.49658 0.07592 0.57357 0.0
H487 H 0.50597 0.08792 0.34874 0.0
H488 H 0.50343 0.049 0.45668 0.0
S489 S 0.48888 0.14788 0.67898 0.0
N490 N 0.49328 0.15485 0.5712 0.0
N491 N 0.48953 0.11253 0.68804 0.0
C492 C 0.49333 0.10475 0.60093 0.0
C493 C 0.49522 0.12783 0.5371 0.0
C494 C 0.39855 0.50877 0.51976 0.0
C495 C 0.40386 0.50416 0.42777 0.0
C496 C 0.42096 0.50786 0.58322 0.0
C497 C 0.44982 0.50187 0.55827 0.0
H498 H 0.37693 0.51396 0.54287 0.0
H499 H 0.41552 0.5121 0.65274 0.0
S500 S 0.47525 0.48693 0.32616 0.0
N501 N 0.44017 0.4926 0.31509 0.0
N502 N 0.4822 0.49048 0.43422 0.0
C503 C 0.45537 0.49649 0.46667 0.0
C504 C 0.43251 0.49782 0.40163 0.0
C505 C 0.03827 0.43037 0.36888 0.0
C506 C 0.02037 0.40582 0.37075 0.0
C507 C 0.0379 0.45078 0.43903 0.0
C508 C 0.01988 0.44745 0.51509 0.0
H509 H 0.05281 0.43381 0.31272 0.0
H510 H 0.05218 0.46918 0.43383 0.0
S511 S 0.9693 0.38644 0.55428 0.0
N512 N 0.98445 0.37915 0.45644 0.0
N513 N 0.98355 0.41722 0.58701 0.0
C514 C 1.00178 0.42299 0.5175 0.0
C515 C 1.00206 0.40234 0.44589 0.0
C516 C 0.92127 1.00523 0.10501 0.0
C517 C 0.89542 0.99002 0.08828 0.0
C518 C 0.94503 1.00388 0.04536 0.0
C519 C 0.94399 0.98735 0.96608 0.0
H520 H 0.92278 0.01924 0.16287 0.0
H521 H 0.96395 0.0168 0.05996 0.0
S522 S 0.88299 0.94028 0.89723 0.0
N523 N 0.8716 0.95543 0.99112 0.0
N524 N 0.91573 0.95327 0.87892 0.0
C525 C 0.91879 0.97099 0.9508 0.0
C526 C 0.89471 0.97224 1.01171 0.0
C527 C 0.51414 0.89076 0.99209 0.0
C528 C 0.51378 0.89684 0.08468 0.0
C529 C 0.51486 0.91284 0.92767 0.0
C530 C 0.51575 0.94207 0.95265 0.0
H531 H 0.51274 0.86872 0.96899 0.0
H532 H 0.51429 0.90688 0.85744 0.0
S533 S 0.51691 0.96961 0.18661 0.0
N534 N 0.51554 0.93433 0.19811 0.0
N535 N 0.5173 0.97573 0.0775 0.0
C536 C 0.51647 0.94844 0.04511 0.0
C537 C 0.51531 0.92591 0.11082 0.0
C538 C 0.60217 0.49326 0.08229 0.0
C539 C 0.62653 0.51142 0.07441 0.0
C540 C 0.5785 0.49549 0.02329 0.0
C541 C 0.57821 0.5158 0.9532 0.0
H542 H 0.60182 0.47639 0.13227 0.0
H543 H 0.56079 0.48039 0.03064 0.0
S544 S 0.63456 0.57112 0.91076 0.0
N545 N 0.6471 0.55262 0.99658 0.0
N546 N 0.6033 0.55615 0.88474 0.0
C547 C 0.60182 0.53486 0.9469 0.0
C548 C 0.62573 0.53284 1.00756 0.0
C549 C 1.01194 0.62225 0.97853 0.0
C550 C 1.0143 0.61512 0.07006 0.0
C551 C 1.01098 0.60097 0.91137 0.0
C552 C 1.01236 0.57143 0.93228 0.0
H553 H 1.01177 0.64457 0.95807 0.0
H554 H 1.00981 0.60788 0.84216 0.0
S555 S 1.01588 0.54108 0.16259 0.0
N556 N 1.01588 0.5762 0.17841 0.0
N557 N 1.01442 0.5363 0.05295 0.0
C558 C 1.01386 0.56396 0.0239 0.0
C559 C 1.01477 0.58569 0.09234 0.0
C560 C 0.95372 0.19216 0.55721 0.0
C561 C 0.98351 0.19231 0.57776 0.0
C562 C 0.93662 0.16789 0.57375 0.0
C563 C 0.94875 0.14328 0.61204 0.0
H564 H 0.94416 0.2097 0.52011 0.0
H565 H 0.91442 0.16761 0.55073 0.0
S566 S 0.02463 0.13377 0.68566 0.0
N567 N 0.02329 0.16708 0.64828 0.0
N568 N 0.99159 0.12078 0.67414 0.0
C569 C 0.97779 0.14396 0.63942 0.0
C570 C 0.99503 0.16878 0.62406 0.0
C571 C 0.37999 0.07598 0.45586 0.0
C572 C 0.36872 0.0824 0.37074 0.0
C573 C 0.40139 0.05503 0.46605 0.0
C574 C 0.41237 0.03998 0.39155 0.0
H575 H 0.37039 0.08534 0.51556 0.0
H576 H 0.40812 0.04925 0.53311 0.0
S577 S 0.39534 0.05316 0.1533 0.0
N578 N 0.3739 0.0752 0.20926 0.0
N579 N 0.41454 0.03615 0.22967 0.0
C580 C 0.40413 0.04862 0.30567 0.0
C581 C 0.38221 0.06988 0.29493 0.0
C582 C 0.65193 0.34689 0.40298 0.0
C583 C 0.6423 0.33929 0.31664 0.0
C584 C 0.64803 0.37482 0.43633 0.0
C585 C 0.63443 0.39596 0.38423 0.0
H586 H 0.66019 0.33055 0.44774 0.0
H587 H 0.65329 0.37912 0.50581 0.0
S588 S 0.61083 0.38907 0.14835 0.0
N589 N 0.62246 0.35672 0.17542 0.0
N590 N 0.61599 0.40919 0.2381 0.0
C591 C 0.62795 0.38967 0.29462 0.0
C592 C 0.63177 0.36131 0.26062 0.0
C593 C 0.18495 0.64396 0.51191 0.0
C594 C 0.193 0.64848 0.42157 0.0
C595 C 0.1558 0.64367 0.53798 0.0
C596 C 0.13385 0.64937 0.47552 0.0
H597 H 0.20087 0.63712 0.56048 0.0
H598 H 0.15055 0.6357 0.60427 0.0
S599 S 0.14421 0.67706 0.24483 0.0
N600 N 0.17696 0.66802 0.278 0.0
N601 N 0.12273 0.67055 0.3311 0.0
C602 C 0.14213 0.66073 0.39199 0.0
C603 C 0.17166 0.65969 0.36381 0.0
C604 C 0.16522 0.84031 0.06162 0.0
C605 C 0.14566 0.81798 0.04143 0.0
C606 C 0.16152 0.86797 0.02628 0.0
C607 C 0.13852 0.87413 0.96802 0.0
H608 H 0.18196 0.83709 0.11118 0.0
H609 H 0.17533 0.88515 0.05023 0.0
S610 S 0.08539 0.82202 0.87713 0.0
N611 N 0.10528 0.80315 0.94696 0.0
N612 N 0.09905 0.85474 0.87945 0.0
C613 C 0.12135 0.85121 0.93761 0.0
C614 C 0.1248 0.82316 0.97437 0.0
C615 C 0.65608 0.12278 0.23562 0.0
C616 C 0.67856 0.13281 0.1796 0.0
C617 C 0.62826 0.11821 0.20224 0.0
C618 C 0.62186 0.12374 0.11203 0.0
H619 H 0.66057 0.11561 0.30322 0.0
H620 H 0.61221 0.10829 0.2455 0.0
S621 S 0.67115 0.15603 0.94318 0.0
N622 N 0.6912 0.15275 0.03401 0.0
N623 N 0.63871 0.14387 0.9708 0.0
C624 C 0.64307 0.13688 0.05813 0.0
C625 C 0.67151 0.1415 0.09212 0.0
C626 C 0.40145 0.67822 1.00866 0.0
C627 C 0.3814 0.68448 0.07756 0.0
C628 C 0.40385 0.65062 0.97274 0.0
C629 C 0.38647 0.62803 1.00437 0.0
H630 H 0.41749 0.69384 0.98787 0.0
H631 H 0.42138 0.64646 0.92607 0.0
S632 S 0.32582 0.63418 0.16633 0.0
N633 N 0.33977 0.66686 0.16212 0.0
N634 N 0.34524 0.61444 0.09641 0.0
C635 C 0.36428 0.63445 0.06576 0.0
C636 C 0.36148 0.66281 0.10171 0.0
C637 C 0.85257 0.36735 1.00141 0.0
C638 C 0.8481 0.37322 0.09306 0.0
C639 C 0.88017 0.36968 0.96261 0.0
C640 C 0.90424 0.37792 1.01415 0.0
H641 H 0.83429 0.36315 0.95813 0.0
H642 H 0.88231 0.36711 0.89066 0.0
S643 S 0.90474 0.39191 0.25931 0.0
N644 N 0.87068 0.38452 0.23607 0.0
N645 N 0.92233 0.38882 0.16332 0.0
C646 C 0.90054 0.38094 0.1074 0.0
C647 C 0.87249 0.37859 0.14687 0.0
C648 C 0.98856 0.13193 0.90272 0.0
C649 C 1.01452 0.14495 0.93173 0.0
C650 C 0.98769 0.10321 0.87222 0.0
C651 C 1.01277 0.08602 0.86748 0.0
H652 H 0.9686 0.14406 0.90295 0.0
H653 H 0.96706 0.0945 0.85156 0.0
S654 S 0.08614 0.10871 0.94052 0.0
N655 N 0.0658 0.13726 0.95878 0.0
N656 N 0.06437 0.08413 0.89804 0.0
C657 C 0.03885 0.09859 0.89717 0.0
C658 C 0.0397 0.12776 0.92942 0.0
C659 C 0.38224 1.0073 0.96144 0.0
C660 C 0.35837 1.01058 0.90396 0.0
C661 C 0.41086 1.0075 0.92883 0.0
C662 C 0.41714 1.01025 0.83658 0.0
H663 H 0.37886 1.00532 0.03303 0.0
H664 H 0.42825 1.00541 0.97683 0.0
S665 S 0.3625 0.01666 0.65583 0.0
N666 N 0.34303 0.01504 0.74888 0.0
N667 N 0.39665 0.0146 0.68732 0.0
C668 C 0.39346 1.01236 0.77763 0.0
C669 C 0.36423 1.01275 0.81124 0.0
C670 C 0.48424 0.38244 0.92651 0.0
C671 C 0.5076 0.36317 0.91859 0.0
C672 C 0.48516 0.41004 0.88755 0.0
C673 C 0.50959 0.41988 0.8391 0.0
H674 H 0.46504 0.37621 0.96364 0.0
H675 H 0.46661 0.42392 0.89694 0.0
S676 S 0.57706 0.37807 0.80087 0.0
N677 N 0.55624 0.35625 0.85989 0.0
N678 N 0.55793 0.4076 0.78625 0.0
C679 C 0.53303 0.40065 0.83 0.0
C680 C 0.53205 0.37254 0.86968 0.0
C681 C 0.1473 0.53726 0.86868 0.0
C682 C 0.16082 0.51256 0.90384 0.0
C683 C 0.12018 0.53589 0.82599 0.0
C684 C 0.10501 0.50974 0.81635 0.0
H685 H 0.1574 0.55813 0.87624 0.0
H686 H 0.11076 0.55575 0.80221 0.0
S687 S 0.13172 0.43822 0.88975 0.0
N688 N 0.15752 0.4607 0.92034 0.0
N689 N 0.10659 0.45814 0.84211 0.0
C690 C 0.11855 0.48473 0.84938 0.0
C691 C 0.14629 0.48613 0.89255 0.0
C692 C 1.00882 0.88203 0.53398 0.0
C693 C 1.01292 0.85729 0.58684 0.0
C694 C 1.00683 0.90959 0.57255 0.0
C695 C 1.00896 0.91391 0.666 0.0
H696 H 1.00794 0.88023 0.46161 0.0
H697 H 1.0042 0.92778 0.52809 0.0
S698 S 1.01648 0.85616 0.83573 0.0
N699 N 1.01669 0.83888 0.73889 0.0
N700 N 1.01342 0.89059 0.81094 0.0
C701 C 1.01236 0.88933 0.71999 0.0
C702 C 1.01422 0.86116 0.68067 0.0
C703 C 0.63984 0.02437 0.65103 0.0
C704 C 0.65221 0.99919 0.61447 0.0
C705 C 0.61168 0.02455 0.68781 0.0
C706 C 0.59436 0.99958 0.68981 0.0
H707 H 0.65168 0.04445 0.64879 0.0
H708 H 0.60317 0.04474 0.71259 0.0
S709 S 0.61747 0.92721 0.6111 0.0
N710 N 0.64554 0.94806 0.58913 0.0
N711 N 0.59279 0.94833 0.6568 0.0
C712 C 0.60683 0.97401 0.65607 0.0
C713 C 0.63556 0.97384 0.61876 0.0
C714 C 0.53667 0.63409 0.58298 0.0
C715 C 0.51316 0.65285 0.59677 0.0
C716 C 0.53746 0.60661 0.62215 0.0
C717 C 0.5149 0.59646 0.67781 0.0
H718 H 0.55453 0.64049 0.54014 0.0
H719 H 0.55586 0.59299 0.60731 0.0
S720 S 0.44825 0.63681 0.7363 0.0
N721 N 0.46652 0.65899 0.67075 0.0
N722 N 0.46844 0.60774 0.7458 0.0
C723 C 0.49166 0.61526 0.69479 0.0
C724 C 0.49069 0.64327 0.65408 0.0
C725 C 0.89339 0.51364 0.52655 0.0
C726 C 0.87046 0.50453 0.58234 0.0
C727 C 0.92194 0.51584 0.55829 0.0
C728 C 0.92921 0.50896 0.64759 0.0
H729 H 0.8895 0.51828 0.45649 0.0
H730 H 0.93856 0.52246 0.5112 0.0
S731 S 0.87702 0.48615 0.82405 0.0
N732 N 0.85688 0.49034 0.73383 0.0
N733 N 0.91043 0.49395 0.79281 0.0
C734 C 0.90641 0.50045 0.70495 0.0
C735 C 0.8772 0.49835 0.67262 0.0
loop_
_geom_bond_atom_site_label_1
_geom_bond_atom_site_label_2
_geom_bond_distance
_geom_bond_site_symmetry_2
_ccdc_geom_bond_type
C0 C1 1.386 . S
C0 C2 1.397 . S
C0 H24 0.931 . S
C1 C0 1.386 . S
C1 C5 1.397 . S
C2 C0 1.397 . S
C2 C3 1.384 . S
C2 H25 0.930 . S
C3 C2 1.384 . S
C3 C4 1.377 . S
C3 C6 1.481 . S
C4 C3 1.377 . S
C4 C5 1.389 . S
C4 H26 0.929 . S
C5 C1 1.397 . S
C5 C4 1.389 . S
C5 H27 0.931 . S
C6 C3 1.481 . S
C6 C7 1.387 . S
C6 C11 1.390 . S
C7 C6 1.387 . S
C7 C8 1.401 . S
C7 H28 0.930 . S
C8 C7 1.401 . S
C8 C9 1.376 . S
C8 C17 1.511 . S
C9 C8 1.376 . S
C9 C10 1.392 . S
C9 H30 0.931 . S
C10 C9 1.392 . S
C10 C11 1.361 . S
C10 C12 1.500 . S
C11 C6 1.390 . S
C11 C10 1.361 . S
C11 H29 0.931 . S
C12 C10 1.500 . S
C12 C13 1.371 . S
C12 C14 1.365 . S
C13 C12 1.371 . S
C13 C23 1.386 . S
C13 H31 0.931 . S
C14 C12 1.365 . S
C14 C15 1.409 . S
C14 H32 0.929 . S
C15 C14 1.409 . S
C15 C16 1.380 . S
C15 H33 0.930 . S
C16 C15 1.380 . S
C16 C23 1.357 . S
C17 C8 1.511 . S
C17 C18 1.341 . S
C17 C19 1.371 . S
C18 C17 1.341 . S
C18 C22 1.394 . S
C18 H34 0.930 . S
C19 C17 1.371 . S
C19 C20 1.392 . S
C19 H35 0.931 . S
C20 C19 1.392 . S
C20 C21 1.331 . S
C20 H38 0.932 . S
C21 C20 1.331 . S
C21 C22 1.336 . S
C22 C18 1.394 . S
C22 C21 1.336 . S
C22 H37 0.929 . S
C23 C13 1.386 . S
C23 C16 1.357 . S
C23 H36 0.928 . S
H24 C0 0.931 . S
H25 C2 0.930 . S
H26 C4 0.929 . S
H27 C5 0.931 . S
H28 C7 0.930 . S
H29 C11 0.931 . S
H30 C9 0.931 . S
H31 C13 0.931 . S
H32 C14 0.929 . S
H33 C15 0.930 . S
H34 C18 0.930 . S
H35 C19 0.931 . S
H36 C23 0.928 . S
H37 C22 0.929 . S
H38 C20 0.932 . S
C39 C40 1.394 . S
C39 C41 1.397 . S
C39 H63 0.931 . S
C40 C39 1.394 . S
C40 C44 1.389 1_655 S
C41 C39 1.397 . S
C41 C42 1.389 . S
C41 H64 0.930 . S
C42 C41 1.389 . S
C42 C43 1.373 1_655 S
C42 C45 1.480 . S
C43 C42 1.373 1_455 S
C43 C44 1.389 . S
C43 H65 0.929 . S
C44 C40 1.389 1_455 S
C44 C43 1.389 . S
C44 H66 0.931 . S
C45 C42 1.480 . S
C45 C46 1.388 . S
C45 C50 1.390 . S
C46 C45 1.388 . S
C46 C47 1.402 . S
C46 H67 0.930 . S
C47 C46 1.402 . S
C47 C48 1.377 . S
C47 C56 1.513 . S
C48 C47 1.377 . S
C48 C49 1.392 . S
C48 H69 0.931 . S
C49 C48 1.392 . S
C49 C50 1.361 . S
C49 C51 1.499 1_655 S
C50 C45 1.390 . S
C50 C49 1.361 . S
C50 H68 0.931 . S
C51 C49 1.499 1_455 S
C51 C52 1.361 1_455 S
C51 C53 1.376 . S
C52 C51 1.361 1_655 S
C52 C62 1.386 . S
C52 H70 0.931 . S
C53 C51 1.376 . S
C53 C54 1.409 . S
C53 H71 0.929 . S
C54 C53 1.409 . S
C54 C55 1.380 . S
C54 H72 0.930 . S
C55 C54 1.380 . S
C55 C62 1.357 1_455 S
C56 C47 1.513 . S
C56 C57 1.341 . S
C56 C58 1.371 1_655 S
C57 C56 1.341 . S
C57 C61 1.394 . S
C57 H73 0.930 . S
C58 C56 1.371 1_455 S
C58 C59 1.392 . S
C58 H74 0.931 . S
C59 C58 1.392 . S
C59 C60 1.322 1_455 S
C59 H77 0.932 . S
C60 C59 1.322 1_655 S
C60 C61 1.345 . S
C61 C57 1.394 . S
C61 C60 1.345 . S
C61 H76 0.929 . S
C62 C52 1.386 . S
C62 C55 1.357 1_655 S
C62 H75 0.928 . S
H63 C39 0.931 . S
H64 C41 0.930 . S
H65 C43 0.929 . S
H66 C44 0.931 . S
H67 C46 0.930 . S
H68 C50 0.931 . S
H69 C48 0.931 . S
H70 C52 0.931 . S
H71 C53 0.929 . S
H72 C54 0.930 . S
H73 C57 0.930 . S
H74 C58 0.931 . S
H75 C62 0.928 . S
H76 C61 0.929 . S
H77 C59 0.932 . S
C78 C79 1.394 . S
C78 C80 1.397 . S
C78 H102 0.931 . S
C79 C78 1.394 . S
C79 C83 1.389 1_565 S
C80 C78 1.397 . S
C80 C81 1.389 . S
C80 H103 0.930 . S
C81 C80 1.389 . S
C81 C82 1.373 1_565 S
C81 C84 1.481 . S
C82 C81 1.373 1_545 S
C82 C83 1.389 . S
C82 H104 0.929 . S
C83 C79 1.389 1_545 S
C83 C82 1.389 . S
C83 H105 0.931 . S
C84 C81 1.481 . S
C84 C85 1.389 . S
C84 C89 1.390 . S
C85 C84 1.389 . S
C85 C86 1.403 . S
C85 H106 0.930 . S
C86 C85 1.403 . S
C86 C87 1.377 . S
C86 C95 1.513 . S
C87 C86 1.377 . S
C87 C88 1.392 . S
C87 H108 0.931 . S
C88 C87 1.392 . S
C88 C89 1.361 . S
C88 C90 1.499 1_565 S
C89 C84 1.390 . S
C89 C88 1.361 . S
C89 H107 0.931 . S
C90 C88 1.499 1_545 S
C90 C91 1.361 1_545 S
C90 C92 1.376 . S
C91 C90 1.361 1_565 S
C91 C101 1.386 . S
C91 H109 0.931 . S
C92 C90 1.376 . S
C92 C93 1.409 . S
C92 H110 0.929 . S
C93 C92 1.409 . S
C93 C94 1.380 . S
C93 H111 0.930 . S
C94 C93 1.380 . S
C94 C101 1.357 1_545 S
C95 C86 1.513 . S
C95 C96 1.341 . S
C95 C97 1.371 1_565 S
C96 C95 1.341 . S
C96 C100 1.394 . S
C96 H112 0.930 . S
C97 C95 1.371 1_545 S
C97 C98 1.392 . S
C97 H113 0.931 . S
C98 C97 1.392 . S
C98 C99 1.322 1_545 S
C98 H116 0.932 . S
C99 C98 1.322 1_565 S
C99 C100 1.345 . S
C100 C96 1.394 . S
C100 C99 1.345 . S
C100 H115 0.929 . S
C101 C91 1.386 . S
C101 C94 1.357 1_565 S
C101 H114 0.928 . S
H102 C78 0.931 . S
H103 C80 0.930 . S
H104 C82 0.929 . S
H105 C83 0.931 . S
H106 C85 0.930 . S
H107 C89 0.931 . S
H108 C87 0.931 . S
H109 C91 0.931 . S
H110 C92 0.929 . S
H111 C93 0.930 . S
H112 C96 0.930 . S
H113 C97 0.931 . S
H114 C101 0.928 . S
H115 C100 0.929 . S
H116 C98 0.932 . S
C117 C118 1.386 . S
C117 C119 1.397 . S
C117 H141 0.931 . S
C118 C117 1.386 . S
C118 C122 1.397 . S
C119 C117 1.397 . S
C119 C120 1.384 . S
C119 H142 0.930 . S
C120 C119 1.384 . S
C120 C121 1.377 . S
C120 C123 1.481 . S
C121 C120 1.377 . S
C121 C122 1.389 . S
C121 H143 0.929 . S
C122 C118 1.397 . S
C122 C121 1.389 . S
C122 H144 0.931 . S
C123 C120 1.481 . S
C123 C124 1.387 . S
C123 C128 1.390 . S
C124 C123 1.387 . S
C124 C125 1.401 . S
C124 H145 0.930 . S
C125 C124 1.401 . S
C125 C126 1.376 . S
C125 C134 1.511 . S
C126 C125 1.376 . S
C126 C127 1.392 . S
C126 H147 0.931 . S
C127 C126 1.392 . S
C127 C128 1.361 . S
C127 C129 1.500 . S
C128 C123 1.390 . S
C128 C127 1.361 . S
C128 H146 0.931 . S
C129 C127 1.500 . S
C129 C130 1.371 . S
C129 C131 1.365 . S
C130 C129 1.371 . S
C130 C140 1.386 . S
C130 H148 0.931 . S
C131 C129 1.365 . S
C131 C132 1.409 . S
C131 H149 0.929 . S
C132 C131 1.409 . S
C132 C133 1.380 . S
C132 H150 0.930 . S
C133 C132 1.380 . S
C133 C140 1.357 . S
C134 C125 1.511 . S
C134 C135 1.341 . S
C134 C136 1.371 . S
C135 C134 1.341 . S
C135 C139 1.394 . S
C135 H151 0.930 . S
C136 C134 1.371 . S
C136 C137 1.392 . S
C136 H152 0.931 . S
C137 C136 1.392 . S
C137 C138 1.331 . S
C137 H155 0.932 . S
C138 C137 1.331 . S
C138 C139 1.336 . S
C139 C135 1.394 . S
C139 C138 1.336 . S
C139 H154 0.929 . S
C140 C130 1.386 . S
C140 C133 1.357 . S
C140 H153 0.928 . S
H141 C117 0.931 . S
H142 C119 0.930 . S
H143 C121 0.929 . S
H144 C122 0.931 . S
H145 C124 0.930 . S
H146 C128 0.931 . S
H147 C126 0.931 . S
H148 C130 0.931 . S
H149 C131 0.929 . S
H150 C132 0.930 . S
H151 C135 0.930 . S
H152 C136 0.931 . S
H153 C140 0.928 . S
H154 C139 0.929 . S
H155 C137 0.932 . S
C156 C157 1.386 . S
C156 C158 1.397 . S
C156 H180 0.931 . S
C157 C156 1.386 . S
C157 C161 1.397 . S
C158 C156 1.397 . S
C158 C159 1.384 . S
C158 H181 0.930 . S
C159 C158 1.384 . S
C159 C160 1.377 . S
C159 C162 1.481 . S
C160 C159 1.377 . S
C160 C161 1.389 . S
C160 H182 0.929 . S
C161 C157 1.397 . S
C161 C160 1.389 . S
C161 H183 0.931 . S
C162 C159 1.481 . S
C162 C163 1.387 . S
C162 C167 1.390 . S
C163 C162 1.387 . S
C163 C164 1.401 . S
C163 H184 0.930 . S
C164 C163 1.401 . S
C164 C165 1.376 1_554 S
C164 C173 1.511 . S
C165 C164 1.376 1_556 S
C165 C166 1.392 . S
C165 H186 0.931 . S
C166 C165 1.392 . S
C166 C167 1.361 1_556 S
C166 C168 1.500 . S
C167 C162 1.390 . S
C167 C166 1.361 1_554 S
C167 H185 0.931 . S
C168 C166 1.500 . S
C168 C169 1.371 . S
C168 C170 1.365 . S
C169 C168 1.371 . S
C169 C179 1.386 . S
C169 H187 0.931 . S
C170 C168 1.365 . S
C170 C171 1.409 . S
C170 H188 0.929 . S
C171 C170 1.409 . S
C171 C172 1.380 . S
C171 H189 0.930 . S
C172 C171 1.380 . S
C172 C179 1.357 . S
C173 C164 1.511 . S
C173 C174 1.341 . S
C173 C175 1.371 . S
C174 C173 1.341 . S
C174 C178 1.394 . S
C174 H190 0.930 . S
C175 C173 1.371 . S
C175 C176 1.392 . S
C175 H191 0.931 1_554 S
C176 C175 1.392 . S
C176 C177 1.331 . S
C176 H194 0.932 . S
C177 C176 1.331 . S
C177 C178 1.336 . S
C178 C174 1.394 . S
C178 C177 1.336 . S
C178 H193 0.929 . S
C179 C169 1.386 . S
C179 C172 1.357 . S
C179 H192 0.928 . S
H180 C156 0.931 . S
H181 C158 0.930 . S
H182 C160 0.929 . S
H183 C161 0.931 . S
H184 C163 0.930 . S
H185 C167 0.931 . S
H186 C165 0.931 . S
H187 C169 0.931 . S
H188 C170 0.929 . S
H189 C171 0.930 . S
H190 C174 0.930 . S
H191 C175 0.931 1_556 S
H192 C179 0.928 . S
H193 C178 0.929 . S
H194 C176 0.932 . S
C195 C196 1.389 . S
C195 C197 1.397 . S
C195 H219 0.931 . S
C196 C195 1.389 . S
C196 C200 1.394 1_655 S
C197 C195 1.397 . S
C197 C198 1.383 . S
C197 H220 0.930 . S
C198 C197 1.383 . S
C198 C199 1.378 1_655 S
C198 C201 1.480 . S
C199 C198 1.378 1_455 S
C199 C200 1.389 . S
C199 H221 0.929 . S
C200 C196 1.394 1_455 S
C200 C199 1.389 . S
C200 H222 0.931 . S
C201 C198 1.480 . S
C201 C202 1.388 . S
C201 C206 1.390 . S
C202 C201 1.388 . S
C202 C203 1.402 . S
C202 H223 0.930 . S
C203 C202 1.402 . S
C203 C204 1.376 1_554 S
C203 C212 1.512 . S
C204 C203 1.376 1_556 S
C204 C205 1.392 1_655 S
C204 H225 0.934 . S
C205 C204 1.392 1_455 S
C205 C206 1.361 1_456 S
C205 C207 1.499 . S
C206 C201 1.390 . S
C206 C205 1.361 1_654 S
C206 H224 0.931 . S
C207 C205 1.499 . S
C207 C208 1.357 1_455 S
C207 C209 1.380 . S
C208 C207 1.357 1_655 S
C208 C218 1.386 . S
C208 H226 0.931 . S
C209 C207 1.380 . S
C209 C210 1.409 . S
C209 H227 0.929 . S
C210 C209 1.409 . S
C210 C211 1.384 . S
C210 H228 0.930 . S
C211 C210 1.384 . S
C211 C218 1.353 1_455 S
C212 C203 1.512 . S
C212 C213 1.341 . S
C212 C214 1.371 1_655 S
C213 C212 1.341 . S
C213 C217 1.394 . S
C213 H229 0.930 . S
C214 C212 1.371 1_455 S
C214 C215 1.392 . S
C214 H230 0.931 1_554 S
C215 C214 1.392 . S
C215 C216 1.325 1_455 S
C215 H233 0.932 . S
C216 C215 1.325 1_655 S
C216 C217 1.342 . S
C217 C213 1.394 . S
C217 C216 1.342 . S
C217 H232 0.929 . S
C218 C208 1.386 . S
C218 C211 1.353 1_655 S
C218 H231 0.928 . S
H219 C195 0.931 . S
H220 C197 0.930 . S
H221 C199 0.929 . S
H222 C200 0.931 . S
H223 C202 0.930 . S
H224 C206 0.931 . S
H225 C204 0.934 . S
H226 C208 0.931 . S
H227 C209 0.929 . S
H228 C210 0.930 . S
H229 C213 0.930 . S
H230 C214 0.931 1_556 S
H231 C218 0.928 . S
H232 C217 0.929 . S
H233 C215 0.932 . S
C234 C235 1.389 . S
C234 C236 1.397 . S
C234 H258 0.931 . S
C235 C234 1.389 . S
C235 C239 1.394 1_565 S
C236 C234 1.397 . S
C236 C237 1.383 . S
C236 H259 0.930 . S
C237 C236 1.383 . S
C237 C238 1.378 1_565 S
C237 C240 1.480 . S
C238 C237 1.378 1_545 S
C238 C239 1.389 . S
C238 H260 0.929 . S
C239 C235 1.394 1_545 S
C239 C238 1.389 . S
C239 H261 0.931 . S
C240 C237 1.480 . S
C240 C241 1.388 . S
C240 C245 1.390 . S
C241 C240 1.388 . S
C241 C242 1.402 . S
C241 H262 0.930 . S
C242 C241 1.402 . S
C242 C243 1.376 1_554 S
C242 C251 1.512 . S
C243 C242 1.376 1_556 S
C243 C244 1.392 1_565 S
C243 H264 0.934 . S
C244 C243 1.392 1_545 S
C244 C245 1.361 1_546 S
C244 C246 1.499 . S
C245 C240 1.390 . S
C245 C244 1.361 1_564 S
C245 H263 0.931 . S
C246 C244 1.499 . S
C246 C247 1.357 1_545 S
C246 C248 1.380 . S
C247 C246 1.357 1_565 S
C247 C257 1.386 . S
C247 H265 0.931 . S
C248 C246 1.380 . S
C248 C249 1.409 . S
C248 H266 0.929 . S
C249 C248 1.409 . S
C249 C250 1.384 . S
C249 H267 0.930 . S
C250 C249 1.384 . S
C250 C257 1.353 1_545 S
C251 C242 1.512 . S
C251 C252 1.341 . S
C251 C253 1.371 1_565 S
C252 C251 1.341 . S
C252 C256 1.394 . S
C252 H268 0.930 . S
C253 C251 1.371 1_545 S
C253 C254 1.392 . S
C253 H269 0.931 1_554 S
C254 C253 1.392 . S
C254 C255 1.325 1_545 S
C254 H272 0.932 . S
C255 C254 1.325 1_565 S
C255 C256 1.342 . S
C256 C252 1.394 . S
C256 C255 1.342 . S
C256 H271 0.929 . S
C257 C247 1.386 . S
C257 C250 1.353 1_565 S
C257 H270 0.928 . S
H258 C234 0.931 . S
H259 C236 0.930 . S
H260 C238 0.929 . S
H261 C239 0.931 . S
H262 C241 0.930 . S
H263 C245 0.931 . S
H264 C243 0.934 . S
H265 C247 0.931 . S
H266 C248 0.929 . S
H267 C249 0.930 . S
H268 C252 0.930 . S
H269 C253 0.931 1_556 S
H270 C257 0.928 . S
H271 C256 0.929 . S
H272 C254 0.932 . S
C273 C274 1.386 . S
C273 C275 1.397 . S
C273 H297 0.931 . S
C274 C273 1.386 . S
C274 C278 1.397 . S
C275 C273 1.397 . S
C275 C276 1.384 . S
C275 H298 0.930 . S
C276 C275 1.384 . S
C276 C277 1.377 . S
C276 C279 1.481 . S
C277 C276 1.377 . S
C277 C278 1.389 . S
C277 H299 0.929 . S
C278 C274 1.397 . S
C278 C277 1.389 . S
C278 H300 0.931 . S
C279 C276 1.481 . S
C279 C280 1.387 . S
C279 C284 1.390 1_556 S
C280 C279 1.387 . S
C280 C281 1.401 1_556 S
C280 H301 0.930 . S
C281 C280 1.401 1_554 S
C281 C282 1.376 . S
C281 C290 1.511 . S
C282 C281 1.376 . S
C282 C283 1.392 . S
C282 H303 0.931 . S
C283 C282 1.392 . S
C283 C284 1.361 . S
C283 C285 1.500 . S
C284 C279 1.390 1_554 S
C284 C283 1.361 . S
C284 H302 0.931 . S
C285 C283 1.500 . S
C285 C286 1.371 . S
C285 C287 1.365 . S
C286 C285 1.371 . S
C286 C296 1.386 . S
C286 H304 0.931 . S
C287 C285 1.365 . S
C287 C288 1.409 . S
C287 H305 0.929 . S
C288 C287 1.409 . S
C288 C289 1.380 . S
C288 H306 0.930 . S
C289 C288 1.380 . S
C289 C296 1.357 . S
C290 C281 1.511 . S
C290 C291 1.341 . S
C290 C292 1.371 . S
C291 C290 1.341 . S
C291 C295 1.394 . S
C291 H307 0.930 1_554 S
C292 C290 1.371 . S
C292 C293 1.392 . S
C292 H308 0.931 . S
C293 C292 1.392 . S
C293 C294 1.331 . S
C293 H311 0.932 . S
C294 C293 1.331 . S
C294 C295 1.336 . S
C295 C291 1.394 . S
C295 C294 1.336 . S
C295 H310 0.929 . S
C296 C286 1.386 . S
C296 C289 1.357 . S
C296 H309 0.928 . S
H297 C273 0.931 . S
H298 C275 0.930 . S
H299 C277 0.929 . S
H300 C278 0.931 . S
H301 C280 0.930 . S
H302 C284 0.931 . S
H303 C282 0.931 . S
H304 C286 0.931 . S
H305 C287 0.929 . S
H306 C288 0.930 . S
H307 C291 0.930 1_556 S
H308 C292 0.931 . S
H309 C296 0.928 . S
H310 C295 0.929 . S
H311 C293 0.932 . S
Tb312 C322 2.825 . S
Tb312 O323 2.347 1_455 S
Tb312 O326 2.366 . S
Tb312 O331 2.418 . S
Tb312 O332 2.384 1_565 S
Tb312 O335 2.479 . S
Tb312 O336 2.471 . S
Eu313 O324 2.418 . S
Eu313 O325 2.384 1_545 S
Eu313 O328 2.479 . S
Eu313 O329 2.471 . S
Eu313 O330 2.347 1_655 S
Eu313 O333 2.366 . S
Eu313 C343 2.825 . S
C314 O330 1.259 1_565 S
C314 O331 1.265 . S
C315 O332 1.255 . S
C315 O333 1.265 1_455 S
C316 C318 1.380 . S
C316 C319 1.374 . S
C316 C322 1.507 . S
C317 C318 1.384 1_554 S
C317 C321 1.387 . S
C317 H344 0.930 . S
C318 C316 1.380 . S
C318 C317 1.384 1_556 S
C318 H345 0.931 . S
C319 C316 1.374 . S
C319 C320 1.390 1_556 S
C319 H346 0.930 1_455 S
C320 C319 1.390 1_554 S
C320 C321 1.391 . S
C320 H347 0.930 1_455 S
C321 C317 1.387 . S
C321 C320 1.391 . S
C322 Tb312 2.825 . S
C322 C316 1.507 . S
C322 O335 1.238 . S
C322 O336 1.247 . S
O323 Tb312 2.347 1_655 S
O323 C327 1.259 1_565 S
O324 Eu313 2.418 . S
O324 C327 1.265 . S
O325 Eu313 2.384 1_565 S
O325 C334 1.255 . S
O326 Tb312 2.366 . S
O326 C334 1.265 1_455 S
C327 O323 1.259 1_545 S
C327 O324 1.265 . S
O328 Eu313 2.479 . S
O328 C343 1.238 . S
O329 Eu313 2.471 . S
O329 C343 1.247 . S
O330 Eu313 2.347 1_455 S
O330 C314 1.259 1_545 S
O331 Tb312 2.418 . S
O331 C314 1.265 . S
O332 Tb312 2.384 1_545 S
O332 C315 1.255 . S
O333 Eu313 2.366 . S
O333 C315 1.265 1_655 S
C334 O325 1.255 . S
C334 O326 1.265 1_655 S
O335 Tb312 2.479 . S
O335 C322 1.238 . S
O336 Tb312 2.471 . S
O336 C322 1.247 . S
C337 C340 1.380 . S
C337 C341 1.374 . S
C337 C343 1.507 . S
C338 C339 1.387 . S
C338 C342 1.391 . S
C339 C338 1.387 . S
C339 C340 1.384 . S
C339 H348 0.930 . S
C340 C337 1.380 . S
C340 C339 1.384 . S
C340 H349 0.931 . S
C341 C337 1.374 . S
C341 C342 1.390 . S
C341 H350 0.930 1_655 S
C342 C338 1.391 . S
C342 C341 1.390 . S
C342 H351 0.930 1_655 S
C343 Eu313 2.825 . S
C343 O328 1.238 . S
C343 O329 1.247 . S
C343 C337 1.507 . S
H344 C317 0.930 . S
H345 C318 0.931 . S
H346 C319 0.930 1_655 S
H347 C320 0.930 1_655 S
H348 C339 0.930 . S
H349 C340 0.931 . S
H350 C341 0.930 1_455 S
H351 C342 0.930 1_455 S
Tb352 C362 2.825 . S
Tb352 O363 2.347 1_545 S
Tb352 O366 2.366 . S
Tb352 O371 2.418 . S
Tb352 O372 2.384 . S
Tb352 O375 2.479 . S
Tb352 O376 2.471 . S
Eu353 O364 2.418 . S
Eu353 O365 2.384 . S
Eu353 O368 2.479 . S
Eu353 O369 2.471 . S
Eu353 O370 2.347 1_565 S
Eu353 O373 2.366 . S
Eu353 C383 2.825 . S
C354 O370 1.259 . S
C354 O371 1.265 . S
C355 O372 1.255 . S
C355 O373 1.265 1_545 S
C356 C358 1.380 . S
C356 C359 1.374 . S
C356 C362 1.507 . S
C357 C358 1.384 1_554 S
C357 C361 1.387 . S
C357 H384 0.930 . S
C358 C356 1.380 . S
C358 C357 1.384 1_556 S
C358 H385 0.931 . S
C359 C356 1.374 . S
C359 C360 1.390 1_556 S
C359 H386 0.930 1_545 S
C360 C359 1.390 1_554 S
C360 C361 1.391 . S
C360 H387 0.930 1_545 S
C361 C357 1.387 . S
C361 C360 1.391 . S
C362 Tb352 2.825 . S
C362 C356 1.507 . S
C362 O375 1.238 . S
C362 O376 1.247 . S
O363 Tb352 2.347 1_565 S
O363 C367 1.259 . S
O364 Eu353 2.418 . S
O364 C367 1.265 . S
O365 Eu353 2.384 . S
O365 C374 1.255 . S
O366 Tb352 2.366 . S
O366 C374 1.265 1_545 S
C367 O363 1.259 . S
C367 O364 1.265 . S
O368 Eu353 2.479 . S
O368 C383 1.238 . S
O369 Eu353 2.471 . S
O369 C383 1.247 . S
O370 Eu353 2.347 1_545 S
O370 C354 1.259 . S
O371 Tb352 2.418 . S
O371 C354 1.265 . S
O372 Tb352 2.384 . S
O372 C355 1.255 . S
O373 Eu353 2.366 . S
O373 C355 1.265 1_565 S
C374 O365 1.255 . S
C374 O366 1.265 1_565 S
O375 Tb352 2.479 . S
O375 C362 1.238 . S
O376 Tb352 2.471 . S
O376 C362 1.247 . S
C377 C380 1.380 . S
C377 C381 1.374 . S
C377 C383 1.507 . S
C378 C379 1.387 . S
C378 C382 1.391 . S
C379 C378 1.387 . S
C379 C380 1.384 . S
C379 H388 0.930 . S
C380 C377 1.380 . S
C380 C379 1.384 . S
C380 H389 0.931 . S
C381 C377 1.374 . S
C381 C382 1.390 . S
C381 H390 0.930 1_565 S
C382 C378 1.391 . S
C382 C381 1.390 . S
C382 H391 0.930 1_565 S
C383 Eu353 2.825 . S
C383 O368 1.238 . S
C383 O369 1.247 . S
C383 C377 1.507 . S
H384 C357 0.930 . S
H385 C358 0.931 . S
H386 C359 0.930 1_565 S
H387 C360 0.930 1_565 S
H388 C379 0.930 . S
H389 C380 0.931 . S
H390 C381 0.930 1_545 S
H391 C382 0.930 1_545 S
Tb392 C402 2.825 . S
Tb392 O403 2.347 . S
Tb392 O406 2.366 . S
Tb392 O411 2.418 . S
Tb392 O412 2.384 . S
Tb392 O415 2.479 . S
Tb392 O416 2.471 . S
Eu393 O404 2.418 . S
Eu393 O405 2.384 . S
Eu393 O408 2.479 . S
Eu393 O409 2.471 . S
Eu393 O410 2.347 . S
Eu393 O413 2.366 . S
Eu393 C423 2.825 . S
C394 O410 1.259 . S
C394 O411 1.265 . S
C395 O412 1.255 . S
C395 O413 1.265 . S
C396 C398 1.380 . S
C396 C399 1.374 . S
C396 C402 1.507 . S
C397 C398 1.384 1_554 S
C397 C401 1.387 . S
C397 H424 0.930 . S
C398 C396 1.380 . S
C398 C397 1.384 1_556 S
C398 H425 0.931 . S
C399 C396 1.374 . S
C399 C400 1.390 1_556 S
C399 H426 0.930 . S
C400 C399 1.390 1_554 S
C400 C401 1.391 . S
C400 H427 0.930 . S
C401 C397 1.387 . S
C401 C400 1.391 . S
C402 Tb392 2.825 . S
C402 C396 1.507 . S
C402 O415 1.238 . S
C402 O416 1.247 . S
O403 Tb392 2.347 . S
O403 C407 1.259 . S
O404 Eu393 2.418 . S
O404 C407 1.265 . S
O405 Eu393 2.384 . S
O405 C414 1.255 . S
O406 Tb392 2.366 . S
O406 C414 1.265 . S
C407 O403 1.259 . S
C407 O404 1.265 . S
O408 Eu393 2.479 . S
O408 C423 1.238 . S
O409 Eu393 2.471 . S
O409 C423 1.247 . S
O410 Eu393 2.347 . S
O410 C394 1.259 . S
O411 Tb392 2.418 . S
O411 C394 1.265 . S
O412 Tb392 2.384 . S
O412 C395 1.255 . S
O413 Eu393 2.366 . S
O413 C395 1.265 . S
C414 O405 1.255 . S
C414 O406 1.265 . S
O415 Tb392 2.479 . S
O415 C402 1.238 . S
O416 Tb392 2.471 . S
O416 C402 1.247 . S
C417 C420 1.380 . S
C417 C421 1.374 . S
C417 C423 1.507 . S
C418 C419 1.387 . S
C418 C422 1.391 . S
C419 C418 1.387 . S
C419 C420 1.384 . S
C419 H428 0.930 . S
C420 C417 1.380 . S
C420 C419 1.384 . S
C420 H429 0.931 . S
C421 C417 1.374 . S
C421 C422 1.390 . S
C421 H430 0.930 . S
C422 C418 1.391 . S
C422 C421 1.390 . S
C422 H431 0.930 . S
C423 Eu393 2.825 . S
C423 O408 1.238 . S
C423 O409 1.247 . S
C423 C417 1.507 . S
H424 C397 0.930 . S
H425 C398 0.931 . S
H426 C399 0.930 . S
H427 C400 0.930 . S
H428 C419 0.930 . S
H429 C420 0.931 . S
H430 C421 0.930 . S
H431 C422 0.930 . S
Tb432 C442 2.825 . S
Tb432 O443 2.347 . S
Tb432 O446 2.366 . S
Tb432 O451 2.418 . S
Tb432 O452 2.384 1_655 S
Tb432 O455 2.479 . S
Tb432 O456 2.471 . S
Eu433 O444 2.418 . S
Eu433 O445 2.384 1_455 S
Eu433 O448 2.479 . S
Eu433 O449 2.471 . S
Eu433 O450 2.347 . S
Eu433 O453 2.366 . S
Eu433 C463 2.825 . S
C434 O450 1.259 1_655 S
C434 O451 1.265 . S
C435 O452 1.255 . S
C435 O453 1.265 . S
C436 C438 1.380 . S
C436 C439 1.374 . S
C436 C442 1.507 . S
C437 C438 1.384 1_554 S
C437 C441 1.387 . S
C437 H464 0.930 . S
C438 C436 1.380 . S
C438 C437 1.384 1_556 S
C438 H465 0.931 . S
C439 C436 1.374 . S
C439 C440 1.390 1_556 S
C439 H466 0.930 . S
C440 C439 1.390 1_554 S
C440 C441 1.391 . S
C440 H467 0.930 . S
C441 C437 1.387 . S
C441 C440 1.391 . S
C442 Tb432 2.825 . S
C442 C436 1.507 . S
C442 O455 1.238 . S
C442 O456 1.247 . S
O443 Tb432 2.347 . S
O443 C447 1.259 1_655 S
O444 Eu433 2.418 . S
O444 C447 1.265 . S
O445 Eu433 2.384 1_655 S
O445 C454 1.255 . S
O446 Tb432 2.366 . S
O446 C454 1.265 . S
C447 O443 1.259 1_455 S
C447 O444 1.265 . S
O448 Eu433 2.479 . S
O448 C463 1.238 . S
O449 Eu433 2.471 . S
O449 C463 1.247 . S
O450 Eu433 2.347 . S
O450 C434 1.259 1_455 S
O451 Tb432 2.418 . S
O451 C434 1.265 . S
O452 Tb432 2.384 1_455 S
O452 C435 1.255 . S
O453 Eu433 2.366 . S
O453 C435 1.265 . S
C454 O445 1.255 . S
C454 O446 1.265 . S
O455 Tb432 2.479 . S
O455 C442 1.238 . S
O456 Tb432 2.471 . S
O456 C442 1.247 . S
C457 C460 1.380 . S
C457 C461 1.374 . S
C457 C463 1.507 . S
C458 C459 1.387 . S
C458 C462 1.391 . S
C459 C458 1.387 . S
C459 C460 1.384 . S
C459 H468 0.930 . S
C460 C457 1.380 . S
C460 C459 1.384 . S
C460 H469 0.931 . S
C461 C457 1.374 . S
C461 C462 1.390 . S
C461 H470 0.930 . S
C462 C458 1.391 . S
C462 C461 1.390 . S
C462 H471 0.930 . S
C463 Eu433 2.825 . S
C463 O448 1.238 . S
C463 O449 1.247 . S
C463 C457 1.507 . S
H464 C437 0.930 . S
H465 C438 0.931 . S
H466 C439 0.930 . S
H467 C440 0.930 . S
H468 C459 0.930 . S
H469 C460 0.931 . S
H470 C461 0.930 . S
H471 C462 0.930 . S
C472 C473 1.355 1_565 S
C472 C474 1.419 . S
C472 H476 0.930 . S
C473 C472 1.355 1_545 S
C473 C482 1.443 . S
C474 C472 1.419 . S
C474 C475 1.351 1_565 S
C474 H477 0.929 . S
C475 C474 1.351 1_545 S
C475 C481 1.440 . S
H476 C472 0.930 . S
H477 C474 0.929 . S
S478 N479 1.613 . S
S478 N480 1.610 . S
N479 S478 1.613 . S
N479 C482 1.350 . S
N480 S478 1.610 . S
N480 C481 1.351 . S
C481 C475 1.440 . S
C481 N480 1.351 . S
C481 C482 1.434 . S
C482 C473 1.443 . S
C482 N479 1.350 . S
C482 C481 1.434 . S
C483 C484 1.369 . S
C483 C485 1.419 . S
C483 H487 0.930 . S
C484 C483 1.369 . S
C484 C493 1.429 . S
C485 C483 1.419 . S
C485 C486 1.363 . S
C485 H488 0.929 . S
C486 C485 1.363 . S
C486 C492 1.428 . S
H487 C483 0.930 . S
H488 C485 0.929 . S
S489 N490 1.613 . S
S489 N491 1.610 . S
N490 S489 1.613 . S
N490 C493 1.350 . S
N491 S489 1.610 . S
N491 C492 1.351 . S
C492 C486 1.428 . S
C492 N491 1.351 . S
C492 C493 1.434 . S
C493 C484 1.429 . S
C493 N490 1.350 . S
C493 C492 1.434 . S
C494 C495 1.369 . S
C494 C496 1.419 . S
C494 H498 0.930 . S
C495 C494 1.369 . S
C495 C504 1.429 . S
C496 C494 1.419 . S
C496 C497 1.363 . S
C496 H499 0.929 . S
C497 C496 1.363 . S
C497 C503 1.428 . S
H498 C494 0.930 . S
H499 C496 0.929 . S
S500 N501 1.613 . S
S500 N502 1.610 . S
N501 S500 1.613 . S
N501 C504 1.350 . S
N502 S500 1.610 . S
N502 C503 1.351 . S
C503 C497 1.428 . S
C503 N502 1.351 . S
C503 C504 1.434 . S
C504 C495 1.429 . S
C504 N501 1.350 . S
C504 C503 1.434 . S
C505 C506 1.365 1_655 S
C505 C507 1.419 . S
C505 H509 0.930 . S
C506 C505 1.365 1_455 S
C506 C515 1.433 . S
C507 C505 1.419 . S
C507 C508 1.363 1_655 S
C507 H510 0.929 . S
C508 C507 1.363 1_455 S
C508 C514 1.428 . S
H509 C505 0.930 . S
H510 C507 0.929 . S
S511 N512 1.613 . S
S511 N513 1.610 . S
N512 S511 1.613 . S
N512 C515 1.350 . S
N513 S511 1.610 . S
N513 C514 1.351 . S
C514 C508 1.428 . S
C514 N513 1.351 . S
C514 C515 1.434 . S
C515 C506 1.433 . S
C515 N512 1.350 . S
C515 C514 1.434 . S
C516 C517 1.365 1_545 S
C516 C518 1.419 . S
C516 H520 0.930 . S
C517 C516 1.365 1_565 S
C517 C526 1.433 . S
C518 C516 1.419 . S
C518 C519 1.361 1_544 S
C518 H521 0.929 . S
C519 C518 1.361 1_566 S
C519 C525 1.430 1_556 S
H520 C516 0.930 . S
H521 C518 0.929 . S
S522 N523 1.613 . S
S522 N524 1.610 1_554 S
N523 S522 1.613 . S
N523 C526 1.350 . S
N524 S522 1.610 1_556 S
N524 C525 1.351 1_556 S
C525 C519 1.430 1_554 S
C525 N524 1.351 1_554 S
C525 C526 1.434 . S
C526 C517 1.433 . S
C526 N523 1.350 . S
C526 C525 1.434 . S
C527 C528 1.369 . S
C527 C529 1.419 . S
C527 H531 0.930 . S
C528 C527 1.369 . S
C528 C537 1.429 . S
C529 C527 1.419 . S
C529 C530 1.363 1_554 S
C529 H532 0.929 . S
C530 C529 1.363 1_556 S
C530 C536 1.428 1_556 S
H531 C527 0.930 . S
H532 C529 0.929 . S
S533 N534 1.613 1_545 S
S533 N535 1.610 1_545 S
N534 S533 1.613 1_565 S
N534 C537 1.350 . S
N535 S533 1.610 1_565 S
N535 C536 1.351 . S
C536 C530 1.428 1_554 S
C536 N535 1.351 . S
C536 C537 1.434 . S
C537 C528 1.429 . S
C537 N534 1.350 . S
C537 C536 1.434 . S
C538 C539 1.369 . S
C538 C540 1.419 . S
C538 H542 0.930 . S
C539 C538 1.369 . S
C539 C548 1.429 . S
C540 C538 1.419 . S
C540 C541 1.363 1_554 S
C540 H543 0.929 . S
C541 C540 1.363 1_556 S
C541 C547 1.428 1_556 S
H542 C538 0.930 . S
H543 C540 0.929 . S
S544 N545 1.613 . S
S544 N546 1.610 . S
N545 S544 1.613 . S
N545 C548 1.350 . S
N546 S544 1.610 . S
N546 C547 1.351 . S
C547 C541 1.428 1_554 S
C547 N546 1.351 . S
C547 C548 1.434 . S
C548 C539 1.429 . S
C548 N545 1.350 . S
C548 C547 1.434 . S
C549 C550 1.366 1_455 S
C549 C551 1.419 . S
C549 H553 0.930 . S
C550 C549 1.366 1_655 S
C550 C559 1.432 . S
C551 C549 1.419 . S
C551 C552 1.363 1_454 S
C551 H554 0.929 1_554 S
C552 C551 1.363 1_656 S
C552 C558 1.428 1_556 S
H553 C549 0.930 . S
H554 C551 0.929 1_556 S
S555 N556 1.613 . S
S555 N557 1.610 . S
N556 S555 1.613 . S
N556 C559 1.350 . S
N557 S555 1.610 . S
N557 C558 1.351 . S
C558 C552 1.428 1_554 S
C558 N557 1.351 . S
C558 C559 1.434 . S
C559 C550 1.432 . S
C559 N556 1.350 . S
C559 C558 1.434 . S
C560 C561 1.338 1_655 S
C560 C562 1.419 . S
C560 H564 0.930 . S
C561 C560 1.338 1_455 S
C561 C570 1.433 . S
C562 C560 1.419 . S
C562 C563 1.363 . S
C562 H565 0.929 . S
C563 C562 1.363 . S
C563 C569 1.428 . S
H564 C560 0.930 . S
H565 C562 0.929 . S
S566 N567 1.613 . S
S566 N568 1.610 1_455 S
N567 S566 1.613 . S
N567 C570 1.350 . S
N568 S566 1.610 1_655 S
N568 C569 1.351 . S
C569 C563 1.428 . S
C569 N568 1.351 . S
C569 C570 1.434 1_655 S
C570 C561 1.433 . S
C570 N567 1.350 . S
C570 C569 1.434 1_455 S
C571 C572 1.346 1_565 S
C571 C573 1.419 . S
C571 H575 0.930 . S
C572 C571 1.346 1_545 S
C572 C581 1.430 . S
C573 C571 1.419 . S
C573 C574 1.363 . S
C573 H576 0.929 . S
C574 C573 1.363 . S
C574 C580 1.428 . S
H575 C571 0.930 . S
H576 C573 0.929 . S
S577 N578 1.613 . S
S577 N579 1.610 1_545 S
N578 S577 1.613 . S
N578 C581 1.350 . S
N579 S577 1.610 1_565 S
N579 C580 1.351 . S
C580 C574 1.428 . S
C580 N579 1.351 . S
C580 C581 1.434 1_565 S
C581 C572 1.430 . S
C581 N578 1.350 . S
C581 C580 1.434 1_545 S
C582 C583 1.369 . S
C582 C584 1.419 . S
C582 H586 0.930 . S
C583 C582 1.369 . S
C583 C592 1.429 . S
C584 C582 1.419 . S
C584 C585 1.363 . S
C584 H587 0.929 . S
C585 C584 1.363 . S
C585 C591 1.428 . S
H586 C582 0.930 . S
H587 C584 0.929 . S
S588 N589 1.613 . S
S588 N590 1.610 . S
N589 S588 1.613 . S
N589 C592 1.350 . S
N590 S588 1.610 . S
N590 C591 1.351 . S
C591 C585 1.428 . S
C591 N590 1.351 . S
C591 C592 1.434 . S
C592 C583 1.429 . S
C592 N589 1.350 . S
C592 C591 1.434 . S
C593 C594 1.369 . S
C593 C595 1.419 . S
C593 H597 0.930 . S
C594 C593 1.369 . S
C594 C603 1.429 . S
C595 C593 1.419 . S
C595 C596 1.363 . S
C595 H598 0.929 . S
C596 C595 1.363 . S
C596 C602 1.428 . S
H597 C593 0.930 . S
H598 C595 0.929 . S
S599 N600 1.613 . S
S599 N601 1.610 . S
N600 S599 1.613 . S
N600 C603 1.350 . S
N601 S599 1.610 . S
N601 C602 1.351 . S
C602 C596 1.428 . S
C602 N601 1.351 . S
C602 C603 1.434 . S
C603 C594 1.429 . S
C603 N600 1.350 . S
C603 C602 1.434 . S
C604 C605 1.334 1_455 S
C604 C606 1.419 . S
C604 H608 0.930 . S
C605 C604 1.334 1_655 S
C605 C614 1.438 . S
C606 C604 1.419 . S
C606 C607 1.363 . S
C606 H609 0.929 . S
C607 C606 1.363 . S
C607 C613 1.428 . S
H608 C604 0.930 . S
H609 C606 0.929 . S
S610 N611 1.613 . S
S610 N612 1.610 1_655 S
N611 S610 1.613 . S
N611 C614 1.350 . S
N612 S610 1.610 1_455 S
N612 C613 1.351 . S
C613 C607 1.428 . S
C613 N612 1.351 . S
C613 C614 1.434 1_455 S
C614 C605 1.438 . S
C614 N611 1.350 . S
C614 C613 1.434 1_655 S
C615 C616 1.356 1_545 S
C615 C617 1.419 . S
C615 H619 0.930 . S
C616 C615 1.356 1_565 S
C616 C625 1.428 1_565 S
C617 C615 1.419 . S
C617 C618 1.363 . S
C617 H620 0.929 . S
C618 C617 1.363 . S
C618 C624 1.433 . S
H619 C615 0.930 . S
H620 C617 0.929 . S
S621 N622 1.613 . S
S621 N623 1.610 1_565 S
N622 S621 1.613 . S
N622 C625 1.335 1_566 S
N623 S621 1.610 1_545 S
N623 C624 1.344 1_556 S
C624 C618 1.433 . S
C624 N623 1.344 1_554 S
C624 C625 1.454 . S
C625 C616 1.428 1_545 S
C625 N622 1.335 1_544 S
C625 C624 1.454 . S
C626 C627 1.369 . S
C626 C628 1.419 . S
C626 H630 0.930 . S
C627 C626 1.369 . S
C627 C636 1.429 . S
C628 C626 1.419 . S
C628 C629 1.363 . S
C628 H631 0.929 . S
C629 C628 1.363 . S
C629 C635 1.428 . S
H630 C626 0.930 . S
H631 C628 0.929 . S
S632 N633 1.613 . S
S632 N634 1.610 . S
N633 S632 1.613 . S
N633 C636 1.350 . S
N634 S632 1.610 . S
N634 C635 1.351 . S
C635 C629 1.428 . S
C635 N634 1.351 . S
C635 C636 1.434 . S
C636 C627 1.429 . S
C636 N633 1.350 . S
C636 C635 1.434 . S
C637 C638 1.369 . S
C637 C639 1.419 . S
C637 H641 0.932 . S
C638 C637 1.369 . S
C638 C647 1.429 . S
C639 C637 1.419 . S
C639 C640 1.363 . S
C639 H642 0.929 1_554 S
C640 C639 1.363 . S
C640 C646 1.428 . S
H641 C637 0.932 . S
H642 C639 0.929 1_556 S
S643 N644 1.613 . S
S643 N645 1.610 . S
N644 S643 1.613 . S
N644 C647 1.350 . S
N645 S643 1.610 . S
N645 C646 1.351 . S
C646 C640 1.428 . S
C646 N645 1.351 . S
C646 C647 1.434 . S
C647 C638 1.429 . S
C647 N644 1.350 . S
C647 C646 1.434 . S
C648 C649 1.369 . S
C648 C650 1.419 . S
C648 H652 0.930 . S
C649 C648 1.369 . S
C649 C658 1.429 . S
C650 C648 1.419 . S
C650 C651 1.363 . S
C650 H653 0.929 . S
C651 C650 1.363 . S
C651 C657 1.428 . S
H652 C648 0.930 . S
H653 C650 0.929 . S
S654 N655 1.613 . S
S654 N656 1.610 . S
N655 S654 1.613 . S
N655 C658 1.350 . S
N656 S654 1.610 . S
N656 C657 1.351 . S
C657 C651 1.428 . S
C657 N656 1.351 . S
C657 C658 1.434 . S
C658 C649 1.429 . S
C658 N655 1.350 . S
C658 C657 1.434 . S
C659 C660 1.369 1_565 S
C659 C661 1.419 . S
C659 H663 0.930 . S
C660 C659 1.369 1_545 S
C660 C669 1.429 . S
C661 C659 1.419 . S
C661 C662 1.363 1_565 S
C661 H664 0.929 . S
C662 C661 1.363 1_545 S
C662 C668 1.428 . S
H663 C659 0.930 . S
H664 C661 0.929 . S
S665 N666 1.613 . S
S665 N667 1.610 . S
N666 S665 1.613 . S
N666 C669 1.350 . S
N667 S665 1.610 . S
N667 C668 1.351 . S
C668 C662 1.428 . S
C668 N667 1.351 . S
C668 C669 1.434 . S
C669 C660 1.429 . S
C669 N666 1.350 . S
C669 C668 1.434 . S
C670 C671 1.369 . S
C670 C672 1.419 . S
C670 H674 0.930 . S
C671 C670 1.369 . S
C671 C680 1.429 . S
C672 C670 1.419 . S
C672 C673 1.363 . S
C672 H675 0.929 . S
C673 C672 1.363 . S
C673 C679 1.428 . S
H674 C670 0.930 . S
H675 C672 0.929 . S
S676 N677 1.613 . S
S676 N678 1.610 . S
N677 S676 1.613 . S
N677 C680 1.350 . S
N678 S676 1.610 . S
N678 C679 1.351 . S
C679 C673 1.428 . S
C679 N678 1.351 . S
C679 C680 1.434 . S
C680 C671 1.429 . S
C680 N677 1.350 . S
C680 C679 1.434 . S
C681 C682 1.369 . S
C681 C683 1.419 . S
C681 H685 0.930 . S
C682 C681 1.369 . S
C682 C691 1.429 . S
C683 C681 1.419 . S
C683 C684 1.363 . S
C683 H686 0.929 . S
C684 C683 1.363 . S
C684 C690 1.428 . S
H685 C681 0.930 . S
H686 C683 0.929 . S
S687 N688 1.613 . S
S687 N689 1.610 . S
N688 S687 1.613 . S
N688 C691 1.350 . S
N689 S687 1.610 . S
N689 C690 1.351 . S
C690 C684 1.428 . S
C690 N689 1.351 . S
C690 C691 1.434 . S
C691 C682 1.429 . S
C691 N688 1.350 . S
C691 C690 1.434 . S
C692 C693 1.369 . S
C692 C694 1.419 . S
C692 H696 0.930 . S
C693 C692 1.369 . S
C693 C702 1.429 1_655 S
C694 C692 1.419 . S
C694 C695 1.363 . S
C694 H697 0.929 . S
C695 C694 1.363 . S
C695 C701 1.428 1_655 S
H696 C692 0.930 . S
H697 C694 0.929 . S
S698 N699 1.613 . S
S698 N700 1.610 . S
N699 S698 1.613 . S
N699 C702 1.350 . S
N700 S698 1.610 . S
N700 C701 1.351 . S
C701 C695 1.428 1_455 S
C701 N700 1.351 . S
C701 C702 1.434 . S
C702 C693 1.429 1_455 S
C702 N699 1.350 . S
C702 C701 1.434 . S
C703 C704 1.369 1_545 S
C703 C705 1.419 1_545 S
C703 H707 0.930 . S
C704 C703 1.369 1_565 S
C704 C713 1.429 . S
C705 C703 1.419 1_565 S
C705 C706 1.363 . S
C705 H708 0.929 1_565 S
C706 C705 1.363 . S
C706 C712 1.428 . S
H707 C703 0.930 . S
H708 C705 0.929 1_545 S
S709 N710 1.613 . S
S709 N711 1.610 . S
N710 S709 1.613 . S
N710 C713 1.350 . S
N711 S709 1.610 . S
N711 C712 1.351 . S
C712 C706 1.428 . S
C712 N711 1.351 . S
C712 C713 1.434 . S
C713 C704 1.429 . S
C713 N710 1.350 . S
C713 C712 1.434 . S
C714 C715 1.369 . S
C714 C716 1.419 . S
C714 H718 0.930 . S
C715 C714 1.369 . S
C715 C724 1.429 . S
C716 C714 1.419 . S
C716 C717 1.363 . S
C716 H719 0.929 . S
C717 C716 1.363 . S
C717 C723 1.428 . S
H718 C714 0.930 . S
H719 C716 0.929 . S
S720 N721 1.613 . S
S720 N722 1.610 . S
N721 S720 1.613 . S
N721 C724 1.350 . S
N722 S720 1.610 . S
N722 C723 1.351 . S
C723 C717 1.428 . S
C723 N722 1.351 . S
C723 C724 1.434 . S
C724 C715 1.429 . S
C724 N721 1.350 . S
C724 C723 1.434 . S
C725 C726 1.369 . S
C725 C727 1.419 . S
C725 H729 0.930 . S
C726 C725 1.369 . S
C726 C735 1.429 . S
C727 C725 1.419 . S
C727 C728 1.363 . S
C727 H730 0.929 . S
C728 C727 1.363 . S
C728 C734 1.428 . S
H729 C725 0.930 . S
H730 C727 0.929 . S
S731 N732 1.613 . S
S731 N733 1.610 . S
N732 S731 1.613 . S
N732 C735 1.350 . S
N733 S731 1.610 . S
N733 C734 1.351 . S
C734 C728 1.428 . S
C734 N733 1.351 . S
C734 C735 1.434 . S
C735 C726 1.429 . S
C735 N732 1.350 . S
C735 C734 1.434 . S
C473 C255 2.527 1_545 S
C475 C314 2.841 1_545 S
C486 C354 2.875 . S
C484 C294 2.518 . S
C497 C394 2.865 . S
C495 C177 2.560 . S
C508 C434 2.853 1_455 S
C506 C216 2.536 1_455 S
C519 C327 2.843 1_565 S
C517 C99 2.529 . S
C528 C138 2.533 . S
C530 C367 2.874 . S
C539 C21 2.554 . S
C541 C407 2.867 . S
C550 C60 2.545 . S
C552 C447 2.850 1_655 S
C563 C338 0.717 . S
C561 C196 0.736 1_455 S
C574 C378 0.721 . S
C572 C235 0.717 1_545 S
C585 C418 0.676 . S
C583 C289 0.676 . S
C594 C157 0.676 . S
C596 C458 0.693 . S
C605 C40 0.740 . S
C607 C321 0.720 . S
C618 C361 0.719 . S
C616 C79 0.732 . S
C629 C401 0.688 . S
C627 C133 0.668 . S
C638 C1 0.686 . S
C640 C441 0.686 . S
C649 C211 3.193 . S
C651 C315 3.699 . S
C660 C250 3.155 . S
C662 C355 3.663 . S
C673 C395 3.661 . S
C671 C274 3.150 . S
C684 C435 3.689 . S
C682 C172 3.177 . S
C693 C55 3.201 1_655 S
C695 C334 3.705 . S
C706 C374 3.662 . S
C704 C94 3.157 1_565 S
C717 C414 3.659 . S
C715 C118 3.158 . S
C726 C16 3.185 . S
C728 C454 3.692 . S
