# Generated by pormake.
# Topology cml, (3,6)-cn, num edge types: 1
# Building blocks:
#     Node 0, Type 0, BuildingBlock: ESEHIV_clean_linker_0, # of connection points: 3
#     Node 1, Type 0, BuildingBlock: ESEHIV_clean_linker_0, # of connection points: 3
#     Node 2, Type 0, BuildingBlock: ESEHIV_clean_linker_0, # of connection points: 3
#     Node 3, Type 0, BuildingBlock: ESEHIV_clean_linker_0, # of connection points: 3
#     Node 4, Type 0, BuildingBlock: ESEHIV_clean_linker_0, # of connection points: 3
#     Node 5, Type 0, BuildingBlock: ESEHIV_clean_linker_0, # of connection points: 3
#     Node 6, Type 0, BuildingBlock: ESEHIV_clean_linker_0, # of connection points: 3
#     Node 7, Type 0, BuildingBlock: ESEHIV_clean_linker_0, # of connection points: 3
#     Node 8, Type 1, BuildingBlock: OJICUG_clean_sbu_0, # of connection points: 6
#     Node 9, Type 1, BuildingBlock: OJICUG_clean_sbu_0, # of connection points: 6
#     Node 10, Type 1, BuildingBlock: OJICUG_clean_sbu_0, # of connection points: 6
#     Node 11, Type 1, BuildingBlock: OJICUG_clean_sbu_0, # of connection points: 6
#     Edge 12, Type (0, 1), BuildingBlock: AJUNOK_clean_linker_0, # of connection points: 2
#     Edge 13, Type (0, 1), BuildingBlock: AJUNOK_clean_linker_0, # of connection points: 2
#     Edge 14, Type (0, 1), BuildingBlock: AJUNOK_clean_linker_0, # of connection points: 2
#     Edge 15, Type (0, 1), BuildingBlock: AJUNOK_clean_linker_0, # of connection points: 2
#     Edge 16, Type (0, 1), BuildingBlock: AJUNOK_clean_linker_0, # of connection points: 2
#     Edge 17, Type (0, 1), BuildingBlock: AJUNOK_clean_linker_0, # of connection points: 2
#     Edge 18, Type (0, 1), BuildingBlock: AJUNOK_clean_linker_0, # of connection points: 2
#     Edge 19, Type (0, 1), BuildingBlock: AJUNOK_clean_linker_0, # of connection points: 2
#     Edge 20, Type (0, 1), BuildingBlock: AJUNOK_clean_linker_0, # of connection points: 2
#     Edge 21, Type (0, 1), BuildingBlock: AJUNOK_clean_linker_0, # of connection points: 2
#     Edge 22, Type (0, 1), BuildingBlock: AJUNOK_clean_linker_0, # of connection points: 2
#     Edge 23, Type (0, 1), BuildingBlock: AJUNOK_clean_linker_0, # of connection points: 2
#     Edge 24, Type (0, 1), BuildingBlock: AJUNOK_clean_linker_0, # of connection points: 2
#     Edge 25, Type (0, 1), BuildingBlock: AJUNOK_clean_linker_0, # of connection points: 2
#     Edge 26, Type (0, 1), BuildingBlock: AJUNOK_clean_linker_0, # of connection points: 2
#     Edge 27, Type (0, 1), BuildingBlock: AJUNOK_clean_linker_0, # of connection points: 2
#     Edge 28, Type (0, 1), BuildingBlock: AJUNOK_clean_linker_0, # of connection points: 2
#     Edge 29, Type (0, 1), BuildingBlock: AJUNOK_clean_linker_0, # of connection points: 2
#     Edge 30, Type (0, 1), BuildingBlock: AJUNOK_clean_linker_0, # of connection points: 2
#     Edge 31, Type (0, 1), BuildingBlock: AJUNOK_clean_linker_0, # of connection points: 2
#     Edge 32, Type (0, 1), BuildingBlock: AJUNOK_clean_linker_0, # of connection points: 2
#     Edge 33, Type (0, 1), BuildingBlock: AJUNOK_clean_linker_0, # of connection points: 2
#     Edge 34, Type (0, 1), BuildingBlock: AJUNOK_clean_linker_0, # of connection points: 2
#     Edge 35, Type (0, 1), BuildingBlock: AJUNOK_clean_linker_0, # of connection points: 2
# Relax obj value: 0.072
# Max RMSD: 0.084
# Mean RMSD: 0.079
data_MOF--net-cml--node1-OJICUG_clean_sbu_0--node2-ESEHIV_clean_linker_0--edge1-AJUNOK_clean_linker_0
_symmetry_space_group_name_H-M    P1
_symmetry_Int_Tables_number       1
_symmetry_cell_setting            triclinic
loop_
_symmetry_equiv_pos_as_xyz
'x, y, z'
_cell_length_a     26.898631
_cell_length_b     27.168133
_cell_length_c     25.560407
_cell_angle_alpha  90.040655
_cell_angle_beta   89.994755
_cell_angle_gamma 90.037721
loop_
_atom_site_label
_atom_site_type_symbol
_atom_site_fract_x
_atom_site_fract_y
_atom_site_fract_z
_atom_type_partial_charge
H0 H 0.33923 0.42521 0.04528 0.0
H1 H 0.24085 0.40359 0.91519 0.0
H2 H 0.23603 0.30491 0.04771 0.0
C3 C 0.30873 0.40529 0.02721 0.0
C4 C 0.28941 0.36363 0.05202 0.0
C5 C 0.29108 0.42011 0.97828 0.0
C6 C 0.25365 0.3927 0.9537 0.0
C7 C 0.23332 0.35093 0.97827 0.0
C8 C 0.25151 0.33657 0.02775 0.0
H9 H 0.64478 0.56326 0.53986 0.0
H10 H 0.75903 0.57575 0.42321 0.0
H11 H 0.75037 0.68122 0.54936 0.0
C12 C 0.6775 0.58167 0.52455 0.0
C13 C 0.69606 0.62309 0.55058 0.0
C14 C 0.69931 0.56489 0.47812 0.0
C15 C 0.74117 0.5894 0.45835 0.0
C16 C 0.76023 0.63127 0.48389 0.0
C17 C 0.73693 0.6484 0.52982 0.0
H18 H 0.64969 0.42505 0.04309 0.0
H19 H 0.75608 0.30759 0.04527 0.0
H20 H 0.74743 0.4053 0.91218 0.0
C21 C 0.68048 0.40581 0.02479 0.0
C22 C 0.69749 0.42091 0.97566 0.0
C23 C 0.70102 0.36472 0.04954 0.0
C24 C 0.73983 0.33895 0.02543 0.0
C25 C 0.75795 0.35409 0.97621 0.0
C26 C 0.73562 0.39452 0.95105 0.0
H27 H 0.34182 0.56336 0.54757 0.0
H28 H 0.25367 0.58946 0.41006 0.0
H29 H 0.23366 0.67894 0.54804 0.0
C30 C 0.31246 0.58334 0.52771 0.0
C31 C 0.28956 0.62278 0.55323 0.0
C32 C 0.30026 0.57115 0.47602 0.0
C33 C 0.26254 0.5976 0.4505 0.0
C34 C 0.23814 0.63655 0.47623 0.0
C35 C 0.25193 0.64894 0.52775 0.0
H36 H 0.84951 0.91401 0.03913 0.0
H37 H 0.74232 0.90456 0.91471 0.0
H38 H 0.74016 0.7992 0.04112 0.0
C39 C 0.81759 0.89622 0.02131 0.0
C40 C 0.79653 0.85502 0.04546 0.0
C41 C 0.7985 0.91402 0.97399 0.0
C42 C 0.7576 0.89041 0.95095 0.0
C43 C 0.73554 0.84956 0.97551 0.0
C44 C 0.75597 0.83138 0.02235 0.0
H45 H 0.14058 0.06773 0.52878 0.0
H46 H 0.24206 0.09235 0.40169 0.0
H47 H 0.24612 0.18565 0.53858 0.0
C48 C 0.17127 0.08814 0.51177 0.0
C49 C 0.19128 0.12816 0.53903 0.0
C50 C 0.18928 0.07503 0.46232 0.0
C51 C 0.22807 0.10241 0.44 0.0
C52 C 0.24876 0.14275 0.46695 0.0
C53 C 0.23 0.15544 0.51668 0.0
H54 H 0.13999 0.92468 0.03248 0.0
H55 H 0.23969 0.8015 0.03928 0.0
H56 H 0.25785 0.91281 0.92028 0.0
C57 C 0.17243 0.90536 0.01783 0.0
C58 C 0.19744 0.92375 0.97408 0.0
C59 C 0.18732 0.86136 0.04157 0.0
C60 C 0.22887 0.83627 0.02195 0.0
C61 C 0.25504 0.85495 0.97847 0.0
C62 C 0.23864 0.89848 0.95432 0.0
H63 H 0.841 0.05834 0.54129 0.0
H64 H 0.73566 0.07312 0.41631 0.0
H65 H 0.73829 0.1791 0.54244 0.0
C66 C 0.80972 0.07743 0.5238 0.0
C67 C 0.79104 0.11979 0.54793 0.0
C68 C 0.79028 0.06074 0.47625 0.0
C69 C 0.7512 0.08664 0.4527 0.0
C70 C 0.73197 0.12946 0.47627 0.0
C71 C 0.75232 0.14595 0.52402 0.0
Sc72 Sc 0.99391 0.75946 0.29394 0.0
Sc73 Sc 0.98942 0.88893 0.28748 0.0
Sc74 Sc -0.00169 0.83096 0.40893 0.0
O75 O 0.99402 0.82635 0.33001 0.0
C76 C 0.92594 0.73866 0.39263 0.0
C77 C 0.91394 0.82025 0.22718 0.0
C78 C 0.9193 0.9141 0.38512 0.0
C79 C 0.06106 0.82143 0.2174 0.0
C80 C 0.07475 0.74573 0.38486 0.0
C81 C 0.0672 0.92136 0.37312 0.0
O82 O 0.93603 0.73223 0.3445 0.0
O83 O 0.927 0.86185 0.24503 0.0
O84 O 0.93553 0.87957 0.41389 0.0
O85 O 0.05145 0.78079 0.23976 0.0
O86 O 0.06134 0.7833 0.41075 0.0
O87 O 0.05162 0.92254 0.32626 0.0
O88 O 0.05169 0.73033 0.34451 0.0
O89 O 0.03968 0.86175 0.22874 0.0
O90 O 0.04949 0.89204 0.40713 0.0
O91 O 0.93662 0.78041 0.23818 0.0
O92 O 0.94772 0.77056 0.42088 0.0
O93 O 0.93759 0.92345 0.34034 0.0
Sc94 Sc -0.00456 0.22259 0.78959 0.0
Sc95 Sc -0.00445 0.09228 0.78953 0.0
Sc96 Sc -0.00537 0.15567 0.90839 0.0
O97 O -0.00488 0.157 0.82906 0.0
C98 C 0.06998 0.24334 0.884 0.0
C99 C 0.06942 0.15772 0.72051 0.0
C100 C 0.07137 0.06991 0.88197 0.0
C101 C 0.91986 0.1572 0.72239 0.0
C102 C 0.92038 0.24365 0.88392 0.0
C103 C 0.92195 0.06615 0.88336 0.0
O104 O 0.05363 0.25305 0.83845 0.0
O105 O 0.05167 0.11721 0.73659 0.0
O106 O 0.05274 0.1019 0.91238 0.0
O107 O 0.93729 0.19882 0.73632 0.0
O108 O 0.93647 0.2091 0.91264 0.0
O109 O 0.93938 0.05877 0.83786 0.0
O110 O 0.93835 0.2538 0.83915 0.0
O111 O 0.93715 0.11651 0.73883 0.0
O112 O 0.93807 0.10007 0.913 0.0
O113 O 0.05279 0.19931 0.73529 0.0
O114 O 0.05173 0.21021 0.91318 0.0
O115 O 0.05448 0.06187 0.83633 0.0
Sc116 Sc 0.49652 0.2651 0.29063 0.0
Sc117 Sc 0.49738 0.39482 0.2899 0.0
Sc118 Sc 0.49759 0.33235 0.40908 0.0
O119 O 0.49717 0.33061 0.32979 0.0
C120 C 0.41908 0.24871 0.3845 0.0
C121 C 0.42174 0.3294 0.22286 0.0
C122 C 0.42628 0.42303 0.38244 0.0
C123 C 0.57283 0.3297 0.22363 0.0
C124 C 0.56863 0.24061 0.3853 0.0
C125 C 0.57419 0.41699 0.38292 0.0
O126 O 0.43988 0.23498 0.34209 0.0
O127 O 0.44173 0.36979 0.2363 0.0
O128 O 0.44714 0.39377 0.41426 0.0
O129 O 0.5532 0.28842 0.23522 0.0
O130 O 0.54844 0.27165 0.41576 0.0
O131 O 0.55273 0.42753 0.34004 0.0
O132 O 0.55584 0.23546 0.33776 0.0
O133 O 0.55676 0.37039 0.24114 0.0
O134 O 0.56056 0.38112 0.41152 0.0
O135 O 0.43699 0.28776 0.23893 0.0
O136 O 0.43443 0.28458 0.41202 0.0
O137 O 0.43792 0.42601 0.33458 0.0
Sc138 Sc 0.49224 0.72261 0.79502 0.0
Sc139 Sc 0.49265 0.59264 0.79423 0.0
Sc140 Sc 0.49402 0.65558 0.91371 0.0
O141 O 0.49301 0.65711 0.83428 0.0
C142 C 0.56734 0.74465 0.88863 0.0
C143 C 0.56584 0.65817 0.72485 0.0
C144 C 0.56863 0.56821 0.88612 0.0
C145 C 0.41606 0.658 0.7286 0.0
C146 C 0.42015 0.74431 0.89197 0.0
C147 C 0.41934 0.56754 0.88807 0.0
O148 O 0.55144 0.75272 0.84255 0.0
O149 O 0.54935 0.61743 0.74188 0.0
O150 O 0.55193 0.60128 0.91651 0.0
O151 O 0.4329 0.69952 0.74334 0.0
O152 O 0.43705 0.70978 0.92014 0.0
O153 O 0.43585 0.56044 0.84217 0.0
O154 O 0.43593 0.75339 0.84602 0.0
O155 O 0.43455 0.61735 0.74347 0.0
O156 O 0.43708 0.60017 0.9184 0.0
O157 O 0.54848 0.69956 0.73932 0.0
O158 O 0.5501 0.71118 0.91813 0.0
O159 O 0.55063 0.56048 0.84092 0.0
C160 C 0.1532 0.34774 0.92806 0.0
C161 C 0.19309 0.32271 0.95202 0.0
C162 C 0.11409 0.32195 0.90421 0.0
C163 C 0.11328 0.27033 0.90428 0.0
H164 H 0.15159 0.38757 0.92875 0.0
H165 H 0.08354 0.34244 0.88725 0.0
S166 S 0.21094 0.1873 0.95582 0.0
N167 N 0.23135 0.24321 0.96934 0.0
N168 N 0.1568 0.19491 0.92652 0.0
C169 C 0.15335 0.24484 0.92671 0.0
C170 C 0.1935 0.27097 0.95015 0.0
C171 C 0.80528 0.66792 0.40759 0.0
C172 C 0.80367 0.65758 0.46153 0.0
C173 C 0.84552 0.69314 0.38544 0.0
C174 C 0.88547 0.7094 0.41646 0.0
H175 H 0.77476 0.65719 0.38238 0.0
H176 H 0.84467 0.70102 0.3439 0.0
S177 S 0.9014 0.68772 0.55885 0.0
N178 N 0.84724 0.66236 0.54472 0.0
N179 N 0.92235 0.7109 0.50337 0.0
C180 C 0.88479 0.69854 0.47029 0.0
C181 C 0.84402 0.67242 0.49275 0.0
C182 C 0.79983 0.27516 0.95169 0.0
C183 C 0.7993 0.32695 0.95068 0.0
C184 C 0.83893 0.24859 0.92928 0.0
C185 C 0.87844 0.27273 0.90409 0.0
H186 H 0.76978 0.2549 0.96992 0.0
H187 H 0.83817 0.20875 0.93154 0.0
S188 S 0.89631 0.40741 0.89232 0.0
N189 N 0.8433 0.40135 0.9243 0.0
N190 N 0.91564 0.35089 0.88003 0.0
C191 C 0.87828 0.32428 0.902 0.0
C192 C 0.83897 0.35152 0.9258 0.0
C193 C 0.15985 0.6406 0.42329 0.0
C194 C 0.19897 0.6651 0.44904 0.0
C195 C 0.12045 0.66695 0.40077 0.0
C196 C 0.11876 0.71859 0.40368 0.0
H197 H 0.15888 0.60075 0.42198 0.0
H198 H 0.09026 0.64668 0.38275 0.0
S199 S 0.21575 0.8003 0.45968 0.0
N200 N 0.23643 0.74404 0.47061 0.0
N201 N 0.16193 0.79347 0.4295 0.0
C202 C 0.15876 0.74355 0.42719 0.0
C203 C 0.19898 0.71683 0.44959 0.0
C204 C 0.68944 0.81337 0.8994 0.0
C205 C 0.69077 0.82614 0.95278 0.0
C206 C 0.64845 0.78847 0.87811 0.0
C207 C 0.60785 0.77523 0.90971 0.0
H208 H 0.72086 0.82141 0.87429 0.0
H209 H 0.64936 0.77794 0.83723 0.0
S210 S 0.59005 0.8065 0.04973 0.0
N211 N 0.64549 0.82868 0.03511 0.0
N212 N 0.56918 0.78078 0.99547 0.0
C213 C 0.60785 0.78961 0.96251 0.0
C214 C 0.64916 0.81534 0.98397 0.0
C215 C 0.33103 0.14538 0.42086 0.0
C216 C 0.29074 0.1707 0.44366 0.0
C217 C 0.37202 0.17084 0.40042 0.0
C218 C 0.37442 0.22242 0.4028 0.0
H219 H 0.33144 0.10553 0.41985 0.0
H220 H 0.40265 0.14998 0.38412 0.0
S221 S 0.27645 0.30634 0.45245 0.0
N222 N 0.25394 0.25058 0.46249 0.0
N223 N 0.33174 0.29824 0.42578 0.0
C224 C 0.33394 0.24826 0.4241 0.0
C225 C 0.29193 0.22245 0.44415 0.0
C226 C 0.30218 0.81969 0.90275 0.0
C227 C 0.29843 0.8282 0.95697 0.0
C228 C 0.34239 0.7936 0.88166 0.0
C229 C 0.37992 0.77473 0.91415 0.0
H230 H 0.27332 0.83243 0.8765 0.0
H231 H 0.34334 0.787 0.83986 0.0
S232 S 0.39017 0.79149 0.05793 0.0
N233 N 0.33774 0.81926 0.04205 0.0
N234 N 0.41276 0.76929 0.0027 0.0
C235 C 0.37725 0.78405 0.96826 0.0
C236 C 0.33661 0.81096 0.98961 0.0
C237 C 0.6498 0.17217 0.48213 0.0
C238 C 0.69033 0.15674 0.45149 0.0
C239 C 0.61034 0.19859 0.46015 0.0
C240 C 0.60956 0.21022 0.40651 0.0
H241 H 0.64844 0.16361 0.5235 0.0
H242 H 0.5801 0.2099 0.48544 0.0
S243 S 0.70776 0.18044 0.30962 0.0
N244 N 0.72825 0.15677 0.36504 0.0
N245 N 0.65333 0.20534 0.32343 0.0
C246 C 0.64963 0.19474 0.37525 0.0
C247 C 0.69018 0.16829 0.39779 0.0
C248 C 0.33814 0.45427 0.90271 0.0
C249 C 0.31561 0.46172 0.95159 0.0
C250 C 0.36985 0.4898 0.88131 0.0
C251 C 0.38024 0.53401 0.90813 0.0
H252 H 0.33347 0.41963 0.88226 0.0
H253 H 0.38811 0.48136 0.84461 0.0
S254 S 0.32329 0.57399 0.0336 0.0
N255 N 0.30055 0.51835 0.02335 0.0
N256 N 0.36007 0.58551 0.98335 0.0
C257 C 0.35498 0.5432 0.95543 0.0
C258 C 0.32271 0.50695 0.97711 0.0
C259 C 0.66122 0.48109 0.47759 0.0
C260 C 0.67593 0.52327 0.44977 0.0
C261 C 0.63072 0.44541 0.4546 0.0
C262 C 0.61352 0.45057 0.40285 0.0
H263 H 0.67172 0.47663 0.51824 0.0
H264 H 0.61871 0.41481 0.47863 0.0
S265 S 0.64736 0.55127 0.31101 0.0
N266 N 0.67513 0.56616 0.36638 0.0
N267 N 0.61867 0.49865 0.32246 0.0
C268 C 0.63116 0.49084 0.37332 0.0
C269 C 0.66218 0.52727 0.39693 0.0
C270 C 0.64964 0.45478 0.90041 0.0
C271 C 0.67235 0.46225 0.94919 0.0
C272 C 0.61802 0.4904 0.87901 0.0
C273 C 0.608 0.53473 0.90573 0.0
H274 H 0.65417 0.4201 0.87999 0.0
H275 H 0.59957 0.48196 0.84242 0.0
S276 S 0.66566 0.57473 0.03092 0.0
N277 N 0.68798 0.51896 0.02073 0.0
N278 N 0.6288 0.58631 0.98076 0.0
C279 C 0.63352 0.54391 0.95291 0.0
C280 C 0.6656 0.50755 0.9746 0.0
C281 C 0.38292 0.53531 0.45442 0.0
C282 C 0.33085 0.53387 0.4484 0.0
C283 C 0.41325 0.49892 0.43293 0.0
C284 C 0.3928 0.46035 0.40369 0.0
H285 H 0.4005 0.56469 0.47635 0.0
H286 H 0.45307 0.50104 0.43909 0.0
S287 S 0.25975 0.43989 0.3741 0.0
N288 N 0.26042 0.49042 0.41019 0.0
N289 N 0.31841 0.42281 0.36776 0.0
C290 C 0.3413 0.4589 0.39559 0.0
C291 C 0.31004 0.49563 0.41831 0.0
C292 C 0.8424 0.95135 0.89777 0.0
C293 C 0.82287 0.95639 0.94839 0.0
C294 C 0.87256 0.98811 0.87604 0.0
C295 C 0.88418 0.03131 0.90418 0.0
H296 H 0.83637 0.91773 0.87583 0.0
H297 H 0.88846 0.98153 0.83774 0.0
S298 S 0.83498 0.06484 0.03543 0.0
N299 N 0.8121 0.0095 0.02389 0.0
N300 N 0.86838 0.07902 0.98337 0.0
C301 C 0.86188 0.038 0.95364 0.0
C302 C 0.83139 0.00042 0.97568 0.0
C303 C 0.15853 0.98851 0.46045 0.0
C304 C 0.1657 0.03342 0.43428 0.0
C305 C 0.1288 0.95143 0.43894 0.0
C306 C 0.10489 0.95785 0.39041 0.0
H307 H 0.1746 0.98271 0.49884 0.0
H308 H 0.12316 0.91816 0.46153 0.0
S309 S 0.11535 0.0676 0.30435 0.0
N310 N 0.14942 0.0814 0.35605 0.0
N311 N 0.09369 0.01162 0.31499 0.0
C312 C 0.11431 0.00155 0.36233 0.0
C313 C 0.14467 0.03938 0.38443 0.0
C314 C 0.15809 0.96083 0.8956 0.0
C315 C 0.17633 0.96658 0.94665 0.0
C316 C 0.12642 -0.00395 0.8736 0.0
C317 C 0.11186 0.0381 0.9021 0.0
H318 H 0.1655 0.92732 0.87394 0.0
H319 H 0.11111 0.98871 0.83519 0.0
S320 S 0.15809 0.0739 0.03386 0.0
N321 N 0.18395 0.01989 0.02236 0.0
N322 N 0.12465 0.08658 0.98142 0.0
C323 C 0.13374 0.04617 0.95153 0.0
C324 C 0.1659 0.01023 0.97374 0.0
C325 C 0.83489 0.02528 0.39962 0.0
C326 C 0.81454 0.01877 0.44969 0.0
C327 C 0.86691 0.99007 0.37803 0.0
C328 C 0.87977 0.94704 0.40577 0.0
H329 H 0.82836 0.0591 0.37825 0.0
H330 H 0.88335 -0.00211 0.34025 0.0
S331 S 0.82882 0.90943 0.53494 0.0
N332 N 0.804 0.96398 0.52382 0.0
N333 N 0.86398 0.89742 0.48354 0.0
C334 C 0.85648 0.93858 0.45438 0.0
C335 C 0.82396 0.97456 0.47627 0.0
C336 C 0.34164 0.30533 0.10359 0.0
C337 C 0.31214 0.34802 0.10187 0.0
C338 C 0.37493 0.29732 0.14511 0.0
C339 C 0.37978 0.33206 0.18566 0.0
H340 H 0.34164 0.27994 0.07088 0.0
H341 H 0.39937 0.26568 0.14349 0.0
S342 S 0.30382 0.44484 0.20353 0.0
N343 N 0.28477 0.42162 0.14726 0.0
N344 N 0.34688 0.40672 0.22534 0.0
C345 C 0.34717 0.37253 0.18645 0.0
C346 C 0.31342 0.38049 0.14448 0.0
C347 C 0.66814 0.6052 0.64091 0.0
C348 C 0.67141 0.63881 0.59941 0.0
C349 C 0.63607 0.61357 0.68294 0.0
C350 C 0.60578 0.6558 0.68501 0.0
H351 H 0.68873 0.57095 0.63952 0.0
H352 H 0.63349 0.58556 0.71298 0.0
S353 S 0.60413 0.75717 0.58779 0.0
N354 N 0.64491 0.71748 0.56421 0.0
N355 N 0.58422 0.73358 0.64357 0.0
C356 C 0.61125 0.6914 0.6454 0.0
C357 C 0.64415 0.68276 0.60242 0.0
C358 C 0.64891 0.30655 0.10133 0.0
C359 C 0.67927 0.34865 0.09963 0.0
C360 C 0.61686 0.29821 0.14383 0.0
C361 C 0.61417 0.33201 0.18551 0.0
H362 H 0.64727 0.28196 0.06798 0.0
H363 H 0.5916 0.26718 0.14215 0.0
S364 S 0.69316 0.44301 0.20313 0.0
N365 N 0.70967 0.42073 0.14557 0.0
N366 N 0.65025 0.4051 0.22577 0.0
C367 C 0.64783 0.37178 0.18612 0.0
C368 C 0.68017 0.38014 0.14301 0.0
C369 C 0.31471 0.60368 0.6444 0.0
C370 C 0.30978 0.63856 0.60428 0.0
C371 C 0.34659 0.61206 0.68663 0.0
C372 C 0.37488 0.65559 0.69022 0.0
H373 H 0.29636 0.56827 0.64126 0.0
H374 H 0.35109 0.58295 0.7152 0.0
S375 S 0.36996 0.76115 0.59833 0.0
N376 N 0.33142 0.7202 0.57303 0.0
N377 N 0.39143 0.73634 0.65281 0.0
C378 C 0.36682 0.69265 0.65272 0.0
C379 C 0.33421 0.684 0.60958 0.0
C380 C 0.8508 0.79896 0.09732 0.0
C381 C 0.81695 0.83826 0.09575 0.0
C382 C 0.87925 0.78998 0.14237 0.0
C383 C 0.87476 0.82042 0.18672 0.0
H384 H 0.85762 0.77721 0.06251 0.0
H385 H 0.90755 0.76166 0.14089 0.0
S386 S 0.78511 0.92293 0.20409 0.0
N387 N 0.77599 0.90382 0.14349 0.0
N388 N 0.82895 0.88704 0.22836 0.0
C389 C 0.83783 0.85709 0.18676 0.0
C390 C 0.80908 0.8661 0.14108 0.0
C391 C 0.14219 0.18442 0.59659 0.0
C392 C 0.17002 0.14102 0.59049 0.0
C393 C 0.11204 0.19152 0.64088 0.0
C394 C 0.10879 0.15525 0.68008 0.0
H395 H 0.14121 0.21146 0.56547 0.0
H396 H 0.08876 0.224 0.64266 0.0
S397 S 0.18171 0.03933 0.68601 0.0
N398 N 0.19762 0.06453 0.62968 0.0
N399 N 0.14168 0.07772 0.71308 0.0
C400 C 0.13984 0.11367 0.67614 0.0
C401 C 0.17026 0.10656 0.63123 0.0
C402 C 0.10507 0.84001 0.07979 0.0
C403 C 0.15711 0.84167 0.08526 0.0
C404 C 0.07435 0.83069 0.12268 0.0
C405 C 0.0946 0.82183 0.1723 0.0
H406 H 0.08785 0.84816 0.04246 0.0
H407 H 0.03439 0.83226 0.11744 0.0
S408 S 0.2281 0.8179 0.20697 0.0
N409 N 0.22758 0.83082 0.14378 0.0
N410 N 0.16924 0.81205 0.22454 0.0
C411 C 0.14641 0.82024 0.17797 0.0
C412 C 0.1779 0.83028 0.13425 0.0
C413 C 0.81778 0.10294 0.63905 0.0
C414 C 0.8143 0.13631 0.59731 0.0
C415 C 0.84959 0.11189 0.68119 0.0
C416 C 0.87937 0.15452 0.68317 0.0
H417 H 0.79778 0.06831 0.63764 0.0
H418 H 0.85261 0.08394 0.71124 0.0
S419 S 0.87972 0.25583 0.58587 0.0
N420 N 0.83968 0.21542 0.56218 0.0
N421 N 0.89974 0.23265 0.64177 0.0
C422 C 0.87334 0.19003 0.64357 0.0
C423 C 0.84075 0.18079 0.60047 0.0
loop_
_geom_bond_atom_site_label_1
_geom_bond_atom_site_label_2
_geom_bond_distance
_geom_bond_site_symmetry_2
_ccdc_geom_bond_type
H0 C3 0.931 . S
H1 C6 0.928 . S
H2 C8 0.930 . S
C3 H0 0.931 . S
C3 C4 1.413 . S
C3 C5 1.360 1_554 S
C4 C3 1.413 . S
C4 C8 1.429 . S
C5 C3 1.360 1_556 S
C5 C6 1.372 . S
C6 H1 0.928 . S
C6 C5 1.372 . S
C6 C7 1.404 . S
C7 C6 1.404 . S
C7 C8 1.391 1_556 S
C8 H2 0.930 . S
C8 C4 1.429 . S
C8 C7 1.391 1_554 S
H9 C12 0.931 . S
H10 C15 0.928 . S
H11 C17 0.930 . S
C12 H9 0.931 . S
C12 C13 1.413 . S
C12 C14 1.360 . S
C13 C12 1.413 . S
C13 C17 1.429 . S
C14 C12 1.360 . S
C14 C15 1.372 . S
C15 H10 0.928 . S
C15 C14 1.372 . S
C15 C16 1.404 . S
C16 C15 1.404 . S
C16 C17 1.391 . S
C17 H11 0.930 . S
C17 C13 1.429 . S
C17 C16 1.391 . S
H18 C21 0.931 . S
H19 C24 0.928 . S
H20 C26 0.930 . S
C21 H18 0.931 . S
C21 C22 1.413 1_554 S
C21 C23 1.360 . S
C22 C21 1.413 1_556 S
C22 C26 1.429 . S
C23 C21 1.360 . S
C23 C24 1.372 . S
C24 H19 0.928 . S
C24 C23 1.372 . S
C24 C25 1.404 1_554 S
C25 C24 1.404 1_556 S
C25 C26 1.391 . S
C26 H20 0.930 . S
C26 C22 1.429 . S
C26 C25 1.391 . S
H27 C30 0.931 . S
H28 C33 0.928 . S
H29 C35 0.930 . S
C30 H27 0.931 . S
C30 C31 1.413 . S
C30 C32 1.360 . S
C31 C30 1.413 . S
C31 C35 1.429 . S
C32 C30 1.360 . S
C32 C33 1.372 . S
C33 H28 0.928 . S
C33 C32 1.372 . S
C33 C34 1.404 . S
C34 C33 1.404 . S
C34 C35 1.391 . S
C35 H29 0.930 . S
C35 C31 1.429 . S
C35 C34 1.391 . S
H36 C39 0.931 . S
H37 C42 0.928 . S
H38 C44 0.930 . S
C39 H36 0.931 . S
C39 C40 1.413 . S
C39 C41 1.360 1_554 S
C40 C39 1.413 . S
C40 C44 1.429 . S
C41 C39 1.360 1_556 S
C41 C42 1.372 . S
C42 H37 0.928 . S
C42 C41 1.372 . S
C42 C43 1.404 . S
C43 C42 1.404 . S
C43 C44 1.391 1_556 S
C44 H38 0.930 . S
C44 C40 1.429 . S
C44 C43 1.391 1_554 S
H45 C48 0.931 . S
H46 C51 0.928 . S
H47 C53 0.930 . S
C48 H45 0.931 . S
C48 C49 1.413 . S
C48 C50 1.360 . S
C49 C48 1.413 . S
C49 C53 1.429 . S
C50 C48 1.360 . S
C50 C51 1.372 . S
C51 H46 0.928 . S
C51 C50 1.372 . S
C51 C52 1.404 . S
C52 C51 1.404 . S
C52 C53 1.391 . S
C53 H47 0.930 . S
C53 C49 1.429 . S
C53 C52 1.391 . S
H54 C57 0.931 . S
H55 C60 0.928 . S
H56 C62 0.930 . S
C57 H54 0.931 . S
C57 C58 1.413 1_554 S
C57 C59 1.360 . S
C58 C57 1.413 1_556 S
C58 C62 1.429 . S
C59 C57 1.360 . S
C59 C60 1.372 . S
C60 H55 0.928 . S
C60 C59 1.372 . S
C60 C61 1.404 1_554 S
C61 C60 1.404 1_556 S
C61 C62 1.391 . S
C62 H56 0.930 . S
C62 C58 1.429 . S
C62 C61 1.391 . S
H63 C66 0.931 . S
H64 C69 0.928 . S
H65 C71 0.930 . S
C66 H63 0.931 . S
C66 C67 1.413 . S
C66 C68 1.360 . S
C67 C66 1.413 . S
C67 C71 1.429 . S
C68 C66 1.360 . S
C68 C69 1.372 . S
C69 H64 0.928 . S
C69 C68 1.372 . S
C69 C70 1.404 . S
C70 C69 1.404 . S
C70 C71 1.391 . S
C71 H65 0.930 . S
C71 C67 1.429 . S
C71 C70 1.391 . S
Sc72 O75 2.025 . S
Sc72 O82 2.090 1_455 S
Sc72 O85 2.120 . S
Sc72 O88 2.120 . S
Sc72 O91 2.090 1_455 S
Sc73 O75 2.025 . S
Sc73 O83 2.090 1_455 S
Sc73 O87 2.120 . S
Sc73 O89 2.120 . S
Sc73 O93 2.090 1_455 S
Sc74 O75 2.025 . S
Sc74 O84 2.090 1_455 S
Sc74 O86 2.119 . S
Sc74 O90 2.119 . S
Sc74 O92 2.090 1_455 S
O75 Sc72 2.025 . S
O75 Sc73 2.025 . S
O75 Sc74 2.025 . S
C76 O82 1.268 . S
C76 O92 1.268 . S
C77 O83 1.268 . S
C77 O91 1.268 . S
C78 O84 1.268 . S
C78 O93 1.268 . S
C79 O85 1.268 . S
C79 O89 1.268 . S
C80 O86 1.268 . S
C80 O88 1.268 . S
C81 O87 1.268 . S
C81 O90 1.268 . S
O82 Sc72 2.090 1_655 S
O82 C76 1.268 . S
O83 Sc73 2.090 1_655 S
O83 C77 1.268 . S
O84 Sc74 2.090 1_655 S
O84 C78 1.268 . S
O85 Sc72 2.120 . S
O85 C79 1.268 . S
O86 Sc74 2.119 . S
O86 C80 1.268 . S
O87 Sc73 2.120 . S
O87 C81 1.268 . S
O88 Sc72 2.120 . S
O88 C80 1.268 . S
O89 Sc73 2.120 . S
O89 C79 1.268 . S
O90 Sc74 2.119 . S
O90 C81 1.268 . S
O91 Sc72 2.090 1_655 S
O91 C77 1.268 . S
O92 Sc74 2.090 1_655 S
O92 C76 1.268 . S
O93 Sc73 2.090 1_655 S
O93 C78 1.268 . S
Sc94 O97 2.025 . S
Sc94 O104 2.116 . S
Sc94 O107 2.094 1_455 S
Sc94 O110 2.094 1_455 S
Sc94 O113 2.116 . S
Sc95 O97 2.025 . S
Sc95 O105 2.115 . S
Sc95 O109 2.095 1_455 S
Sc95 O111 2.095 1_455 S
Sc95 O115 2.115 . S
Sc96 O97 2.025 . S
Sc96 O106 2.115 . S
Sc96 O108 2.095 1_455 S
Sc96 O112 2.095 1_455 S
Sc96 O114 2.115 . S
O97 Sc94 2.025 . S
O97 Sc95 2.025 . S
O97 Sc96 2.025 . S
C98 O104 1.268 . S
C98 O114 1.268 . S
C99 O105 1.268 . S
C99 O113 1.268 . S
C100 O106 1.268 . S
C100 O115 1.268 . S
C101 O107 1.268 . S
C101 O111 1.268 . S
C102 O108 1.268 . S
C102 O110 1.268 . S
C103 O109 1.268 . S
C103 O112 1.268 . S
O104 Sc94 2.116 . S
O104 C98 1.268 . S
O105 Sc95 2.115 . S
O105 C99 1.268 . S
O106 Sc96 2.115 . S
O106 C100 1.268 . S
O107 Sc94 2.094 1_655 S
O107 C101 1.268 . S
O108 Sc96 2.095 1_655 S
O108 C102 1.268 . S
O109 Sc95 2.095 1_655 S
O109 C103 1.268 . S
O110 Sc94 2.094 1_655 S
O110 C102 1.268 . S
O111 Sc95 2.095 1_655 S
O111 C101 1.268 . S
O112 Sc96 2.095 1_655 S
O112 C103 1.268 . S
O113 Sc94 2.116 . S
O113 C99 1.268 . S
O114 Sc96 2.115 . S
O114 C98 1.268 . S
O115 Sc95 2.115 . S
O115 C100 1.268 . S
Sc116 O119 2.025 . S
Sc116 O126 2.105 . S
Sc116 O129 2.105 . S
Sc116 O132 2.105 . S
Sc116 O135 2.105 . S
Sc117 O119 2.025 . S
Sc117 O127 2.105 . S
Sc117 O131 2.105 . S
Sc117 O133 2.105 . S
Sc117 O137 2.105 . S
Sc118 O119 2.025 . S
Sc118 O128 2.105 . S
Sc118 O130 2.105 . S
Sc118 O134 2.105 . S
Sc118 O136 2.105 . S
O119 Sc116 2.025 . S
O119 Sc117 2.025 . S
O119 Sc118 2.025 . S
C120 O126 1.268 . S
C120 O136 1.268 . S
C121 O127 1.268 . S
C121 O135 1.268 . S
C122 O128 1.268 . S
C122 O137 1.268 . S
C123 O129 1.268 . S
C123 O133 1.268 . S
C124 O130 1.268 . S
C124 O132 1.268 . S
C125 O131 1.268 . S
C125 O134 1.268 . S
O126 Sc116 2.105 . S
O126 C120 1.268 . S
O127 Sc117 2.105 . S
O127 C121 1.268 . S
O128 Sc118 2.105 . S
O128 C122 1.268 . S
O129 Sc116 2.105 . S
O129 C123 1.268 . S
O130 Sc118 2.105 . S
O130 C124 1.268 . S
O131 Sc117 2.105 . S
O131 C125 1.268 . S
O132 Sc116 2.105 . S
O132 C124 1.268 . S
O133 Sc117 2.105 . S
O133 C123 1.268 . S
O134 Sc118 2.105 . S
O134 C125 1.268 . S
O135 Sc116 2.105 . S
O135 C121 1.268 . S
O136 Sc118 2.105 . S
O136 C120 1.268 . S
O137 Sc117 2.105 . S
O137 C122 1.268 . S
Sc138 O141 2.025 . S
Sc138 O148 2.105 . S
Sc138 O151 2.105 . S
Sc138 O154 2.105 . S
Sc138 O157 2.105 . S
Sc139 O141 2.025 . S
Sc139 O149 2.105 . S
Sc139 O153 2.105 . S
Sc139 O155 2.105 . S
Sc139 O159 2.105 . S
Sc140 O141 2.025 . S
Sc140 O150 2.105 . S
Sc140 O152 2.105 . S
Sc140 O156 2.105 . S
Sc140 O158 2.105 . S
O141 Sc138 2.025 . S
O141 Sc139 2.025 . S
O141 Sc140 2.025 . S
C142 O148 1.268 . S
C142 O158 1.268 . S
C143 O149 1.268 . S
C143 O157 1.268 . S
C144 O150 1.268 . S
C144 O159 1.268 . S
C145 O151 1.268 . S
C145 O155 1.268 . S
C146 O152 1.268 . S
C146 O154 1.268 . S
C147 O153 1.268 . S
C147 O156 1.268 . S
O148 Sc138 2.105 . S
O148 C142 1.268 . S
O149 Sc139 2.105 . S
O149 C143 1.268 . S
O150 Sc140 2.105 . S
O150 C144 1.268 . S
O151 Sc138 2.105 . S
O151 C145 1.268 . S
O152 Sc140 2.105 . S
O152 C146 1.268 . S
O153 Sc139 2.105 . S
O153 C147 1.268 . S
O154 Sc138 2.105 . S
O154 C146 1.268 . S
O155 Sc139 2.105 . S
O155 C145 1.268 . S
O156 Sc140 2.105 . S
O156 C147 1.268 . S
O157 Sc138 2.105 . S
O157 C143 1.268 . S
O158 Sc140 2.105 . S
O158 C142 1.268 . S
O159 Sc139 2.105 . S
O159 C144 1.268 . S
C160 C161 1.369 . S
C160 C162 1.419 . S
C160 H164 0.930 . S
C161 C160 1.369 . S
C161 C170 1.429 . S
C162 C160 1.419 . S
C162 C163 1.363 . S
C162 H165 0.929 . S
C163 C162 1.363 . S
C163 C169 1.428 . S
H164 C160 0.930 . S
H165 C162 0.929 . S
S166 N167 1.613 . S
S166 N168 1.610 . S
N167 S166 1.613 . S
N167 C170 1.350 . S
N168 S166 1.610 . S
N168 C169 1.351 . S
C169 C163 1.428 . S
C169 N168 1.351 . S
C169 C170 1.434 . S
C170 C161 1.429 . S
C170 N167 1.350 . S
C170 C169 1.434 . S
C171 C172 1.369 . S
C171 C173 1.419 . S
C171 H175 0.930 . S
C172 C171 1.369 . S
C172 C181 1.429 . S
C173 C171 1.419 . S
C173 C174 1.363 . S
C173 H176 0.929 . S
C174 C173 1.363 . S
C174 C180 1.428 . S
H175 C171 0.930 . S
H176 C173 0.929 . S
S177 N178 1.613 . S
S177 N179 1.610 . S
N178 S177 1.613 . S
N178 C181 1.350 . S
N179 S177 1.610 . S
N179 C180 1.351 . S
C180 C174 1.428 . S
C180 N179 1.351 . S
C180 C181 1.434 . S
C181 C172 1.429 . S
C181 N178 1.350 . S
C181 C180 1.434 . S
C182 C183 1.369 . S
C182 C184 1.419 . S
C182 H186 0.930 . S
C183 C182 1.369 . S
C183 C192 1.429 . S
C184 C182 1.419 . S
C184 C185 1.363 . S
C184 H187 0.929 . S
C185 C184 1.363 . S
C185 C191 1.428 . S
H186 C182 0.930 . S
H187 C184 0.929 . S
S188 N189 1.613 . S
S188 N190 1.610 . S
N189 S188 1.613 . S
N189 C192 1.350 . S
N190 S188 1.610 . S
N190 C191 1.351 . S
C191 C185 1.428 . S
C191 N190 1.351 . S
C191 C192 1.434 . S
C192 C183 1.429 . S
C192 N189 1.350 . S
C192 C191 1.434 . S
C193 C194 1.369 . S
C193 C195 1.419 . S
C193 H197 0.930 . S
C194 C193 1.369 . S
C194 C203 1.429 . S
C195 C193 1.419 . S
C195 C196 1.363 . S
C195 H198 0.929 . S
C196 C195 1.363 . S
C196 C202 1.428 . S
H197 C193 0.930 . S
H198 C195 0.929 . S
S199 N200 1.613 . S
S199 N201 1.610 . S
N200 S199 1.613 . S
N200 C203 1.350 . S
N201 S199 1.610 . S
N201 C202 1.351 . S
C202 C196 1.428 . S
C202 N201 1.351 . S
C202 C203 1.434 . S
C203 C194 1.429 . S
C203 N200 1.350 . S
C203 C202 1.434 . S
C204 C205 1.369 . S
C204 C206 1.419 . S
C204 H208 0.930 . S
C205 C204 1.369 . S
C205 C214 1.429 . S
C206 C204 1.419 . S
C206 C207 1.363 . S
C206 H209 0.929 . S
C207 C206 1.363 . S
C207 C213 1.428 . S
H208 C204 0.930 . S
H209 C206 0.929 . S
S210 N211 1.613 . S
S210 N212 1.610 1_554 S
N211 S210 1.613 . S
N211 C214 1.350 1_554 S
N212 S210 1.610 1_556 S
N212 C213 1.351 . S
C213 C207 1.428 . S
C213 N212 1.351 . S
C213 C214 1.434 . S
C214 C205 1.429 . S
C214 N211 1.350 1_556 S
C214 C213 1.434 . S
C215 C216 1.369 . S
C215 C217 1.419 . S
C215 H219 0.930 . S
C216 C215 1.369 . S
C216 C225 1.429 . S
C217 C215 1.419 . S
C217 C218 1.363 . S
C217 H220 0.929 . S
C218 C217 1.363 . S
C218 C224 1.428 . S
H219 C215 0.930 . S
H220 C217 0.929 . S
S221 N222 1.613 . S
S221 N223 1.610 . S
N222 S221 1.613 . S
N222 C225 1.350 . S
N223 S221 1.610 . S
N223 C224 1.351 . S
C224 C218 1.428 . S
C224 N223 1.351 . S
C224 C225 1.434 . S
C225 C216 1.429 . S
C225 N222 1.350 . S
C225 C224 1.434 . S
C226 C227 1.369 . S
C226 C228 1.419 . S
C226 H230 0.930 . S
C227 C226 1.369 . S
C227 C236 1.429 . S
C228 C226 1.419 . S
C228 C229 1.363 . S
C228 H231 0.929 . S
C229 C228 1.363 . S
C229 C235 1.428 . S
H230 C226 0.930 . S
H231 C228 0.929 . S
S232 N233 1.613 . S
S232 N234 1.610 1_554 S
N233 S232 1.613 . S
N233 C236 1.350 1_554 S
N234 S232 1.610 1_556 S
N234 C235 1.351 . S
C235 C229 1.428 . S
C235 N234 1.351 . S
C235 C236 1.434 . S
C236 C227 1.429 . S
C236 N233 1.350 1_556 S
C236 C235 1.434 . S
C237 C238 1.369 . S
C237 C239 1.419 . S
C237 H241 0.930 . S
C238 C237 1.369 . S
C238 C247 1.429 . S
C239 C237 1.419 . S
C239 C240 1.363 . S
C239 H242 0.929 . S
C240 C239 1.363 . S
C240 C246 1.428 . S
H241 C237 0.930 . S
H242 C239 0.929 . S
S243 N244 1.613 . S
S243 N245 1.610 . S
N244 S243 1.613 . S
N244 C247 1.350 . S
N245 S243 1.610 . S
N245 C246 1.351 . S
C246 C240 1.428 . S
C246 N245 1.351 . S
C246 C247 1.434 . S
C247 C238 1.429 . S
C247 N244 1.350 . S
C247 C246 1.434 . S
C248 C249 1.369 . S
C248 C250 1.419 . S
C248 H252 0.930 1_556 S
C249 C248 1.369 . S
C249 C258 1.429 . S
C250 C248 1.419 . S
C250 C251 1.363 . S
C250 H253 0.929 . S
C251 C250 1.363 . S
C251 C257 1.428 . S
H252 C248 0.930 1_554 S
H253 C250 0.929 . S
S254 N255 1.613 . S
S254 N256 1.610 . S
N255 S254 1.613 . S
N255 C258 1.350 . S
N256 S254 1.610 . S
N256 C257 1.351 . S
C257 C251 1.428 . S
C257 N256 1.351 . S
C257 C258 1.434 . S
C258 C249 1.429 . S
C258 N255 1.350 . S
C258 C257 1.434 . S
C259 C260 1.369 . S
C259 C261 1.419 . S
C259 H263 0.930 . S
C260 C259 1.369 . S
C260 C269 1.429 . S
C261 C259 1.419 . S
C261 C262 1.363 . S
C261 H264 0.929 . S
C262 C261 1.363 . S
C262 C268 1.428 . S
H263 C259 0.930 . S
H264 C261 0.929 . S
S265 N266 1.613 . S
S265 N267 1.610 . S
N266 S265 1.613 . S
N266 C269 1.350 . S
N267 S265 1.610 . S
N267 C268 1.351 . S
C268 C262 1.428 . S
C268 N267 1.351 . S
C268 C269 1.434 . S
C269 C260 1.429 . S
C269 N266 1.350 . S
C269 C268 1.434 . S
C270 C271 1.369 . S
C270 C272 1.419 . S
C270 H274 0.930 . S
C271 C270 1.369 . S
C271 C280 1.429 . S
C272 C270 1.419 . S
C272 C273 1.363 . S
C272 H275 0.929 . S
C273 C272 1.363 . S
C273 C279 1.428 . S
H274 C270 0.930 . S
H275 C272 0.929 . S
S276 N277 1.613 . S
S276 N278 1.610 . S
N277 S276 1.613 . S
N277 C280 1.350 . S
N278 S276 1.610 . S
N278 C279 1.351 . S
C279 C273 1.428 . S
C279 N278 1.351 . S
C279 C280 1.434 . S
C280 C271 1.429 . S
C280 N277 1.350 . S
C280 C279 1.434 . S
C281 C282 1.369 . S
C281 C283 1.419 . S
C281 H285 0.930 . S
C282 C281 1.369 . S
C282 C291 1.429 . S
C283 C281 1.419 . S
C283 C284 1.363 . S
C283 H286 0.929 . S
C284 C283 1.363 . S
C284 C290 1.428 . S
H285 C281 0.930 . S
H286 C283 0.929 . S
S287 N288 1.613 . S
S287 N289 1.610 . S
N288 S287 1.613 . S
N288 C291 1.350 . S
N289 S287 1.610 . S
N289 C290 1.351 . S
C290 C284 1.428 . S
C290 N289 1.351 . S
C290 C291 1.434 . S
C291 C282 1.429 . S
C291 N288 1.350 . S
C291 C290 1.434 . S
C292 C293 1.369 . S
C292 C294 1.419 1_565 S
C292 H296 0.930 . S
C293 C292 1.369 . S
C293 C302 1.429 1_565 S
C294 C292 1.419 1_545 S
C294 C295 1.363 . S
C294 H297 0.929 . S
C295 C294 1.363 . S
C295 C301 1.428 . S
H296 C292 0.930 . S
H297 C294 0.929 . S
S298 N299 1.613 . S
S298 N300 1.610 1_554 S
N299 S298 1.613 . S
N299 C302 1.350 1_554 S
N300 S298 1.610 1_556 S
N300 C301 1.351 . S
C301 C295 1.428 . S
C301 N300 1.351 . S
C301 C302 1.434 . S
C302 C293 1.429 1_545 S
C302 N299 1.350 1_556 S
C302 C301 1.434 . S
C303 C304 1.369 1_565 S
C303 C305 1.419 . S
C303 H307 0.930 . S
C304 C303 1.369 1_545 S
C304 C313 1.429 . S
C305 C303 1.419 . S
C305 C306 1.363 . S
C305 H308 0.929 . S
C306 C305 1.363 . S
C306 C312 1.428 . S
H307 C303 0.930 . S
H308 C305 0.929 . S
S309 N310 1.613 . S
S309 N311 1.610 1_545 S
N310 S309 1.613 . S
N310 C313 1.350 . S
N311 S309 1.610 1_565 S
N311 C312 1.351 . S
C312 C306 1.428 . S
C312 N311 1.351 . S
C312 C313 1.434 1_565 S
C313 C304 1.429 . S
C313 N310 1.350 . S
C313 C312 1.434 1_545 S
C314 C315 1.369 . S
C314 C316 1.419 1_565 S
C314 H318 0.930 . S
C315 C314 1.369 . S
C315 C324 1.429 1_565 S
C316 C314 1.419 1_545 S
C316 C317 1.363 . S
C316 H319 0.929 1_545 S
C317 C316 1.363 . S
C317 C323 1.428 . S
H318 C314 0.930 . S
H319 C316 0.929 1_565 S
S320 N321 1.613 . S
S320 N322 1.610 . S
N321 S320 1.613 . S
N321 C324 1.350 . S
N322 S320 1.610 . S
N322 C323 1.351 . S
C323 C317 1.428 . S
C323 N322 1.351 . S
C323 C324 1.434 . S
C324 C315 1.429 1_545 S
C324 N321 1.350 . S
C324 C323 1.434 . S
C325 C326 1.369 . S
C325 C327 1.419 1_545 S
C325 H329 0.930 . S
C326 C325 1.369 . S
C326 C335 1.429 1_545 S
C327 C325 1.419 1_565 S
C327 C328 1.363 . S
C327 H330 0.929 . S
C328 C327 1.363 . S
C328 C334 1.428 . S
H329 C325 0.930 . S
H330 C327 0.929 . S
S331 N332 1.613 . S
S331 N333 1.610 . S
N332 S331 1.613 . S
N332 C335 1.350 . S
N333 S331 1.610 . S
N333 C334 1.351 . S
C334 C328 1.428 . S
C334 N333 1.351 . S
C334 C335 1.434 . S
C335 C326 1.429 1_565 S
C335 N332 1.350 . S
C335 C334 1.434 . S
C336 C337 1.369 . S
C336 C338 1.419 . S
C336 H340 0.930 . S
C337 C336 1.369 . S
C337 C346 1.429 . S
C338 C336 1.419 . S
C338 C339 1.363 . S
C338 H341 0.929 . S
C339 C338 1.363 . S
C339 C345 1.428 . S
H340 C336 0.930 . S
H341 C338 0.929 . S
S342 N343 1.613 . S
S342 N344 1.610 . S
N343 S342 1.613 . S
N343 C346 1.350 . S
N344 S342 1.610 . S
N344 C345 1.351 . S
C345 C339 1.428 . S
C345 N344 1.351 . S
C345 C346 1.434 . S
C346 C337 1.429 . S
C346 N343 1.350 . S
C346 C345 1.434 . S
C347 C348 1.369 . S
C347 C349 1.419 . S
C347 H351 0.930 . S
C348 C347 1.369 . S
C348 C357 1.429 . S
C349 C347 1.419 . S
C349 C350 1.363 . S
C349 H352 0.929 . S
C350 C349 1.363 . S
C350 C356 1.428 . S
H351 C347 0.930 . S
H352 C349 0.929 . S
S353 N354 1.613 . S
S353 N355 1.610 . S
N354 S353 1.613 . S
N354 C357 1.350 . S
N355 S353 1.610 . S
N355 C356 1.351 . S
C356 C350 1.428 . S
C356 N355 1.351 . S
C356 C357 1.434 . S
C357 C348 1.429 . S
C357 N354 1.350 . S
C357 C356 1.434 . S
C358 C359 1.369 . S
C358 C360 1.419 . S
C358 H362 0.930 . S
C359 C358 1.369 . S
C359 C368 1.429 . S
C360 C358 1.419 . S
C360 C361 1.363 . S
C360 H363 0.929 . S
C361 C360 1.363 . S
C361 C367 1.428 . S
H362 C358 0.930 . S
H363 C360 0.929 . S
S364 N365 1.613 . S
S364 N366 1.610 . S
N365 S364 1.613 . S
N365 C368 1.350 . S
N366 S364 1.610 . S
N366 C367 1.351 . S
C367 C361 1.428 . S
C367 N366 1.351 . S
C367 C368 1.434 . S
C368 C359 1.429 . S
C368 N365 1.350 . S
C368 C367 1.434 . S
C369 C370 1.369 . S
C369 C371 1.419 . S
C369 H373 0.930 . S
C370 C369 1.369 . S
C370 C379 1.429 . S
C371 C369 1.419 . S
C371 C372 1.363 . S
C371 H374 0.929 . S
C372 C371 1.363 . S
C372 C378 1.428 . S
H373 C369 0.930 . S
H374 C371 0.929 . S
S375 N376 1.613 . S
S375 N377 1.610 . S
N376 S375 1.613 . S
N376 C379 1.350 . S
N377 S375 1.610 . S
N377 C378 1.351 . S
C378 C372 1.428 . S
C378 N377 1.351 . S
C378 C379 1.434 . S
C379 C370 1.429 . S
C379 N376 1.350 . S
C379 C378 1.434 . S
C380 C381 1.369 . S
C380 C382 1.419 . S
C380 H384 0.930 . S
C381 C380 1.369 . S
C381 C390 1.429 . S
C382 C380 1.419 . S
C382 C383 1.363 . S
C382 H385 0.929 . S
C383 C382 1.363 . S
C383 C389 1.428 . S
H384 C380 0.930 . S
H385 C382 0.929 . S
S386 N387 1.613 . S
S386 N388 1.610 . S
N387 S386 1.613 . S
N387 C390 1.350 . S
N388 S386 1.610 . S
N388 C389 1.351 . S
C389 C383 1.428 . S
C389 N388 1.351 . S
C389 C390 1.434 . S
C390 C381 1.429 . S
C390 N387 1.350 . S
C390 C389 1.434 . S
C391 C392 1.369 . S
C391 C393 1.419 . S
C391 H395 0.930 . S
C392 C391 1.369 . S
C392 C401 1.429 . S
C393 C391 1.419 . S
C393 C394 1.363 . S
C393 H396 0.929 . S
C394 C393 1.363 . S
C394 C400 1.428 . S
H395 C391 0.930 . S
H396 C393 0.929 . S
S397 N398 1.613 . S
S397 N399 1.610 . S
N398 S397 1.613 . S
N398 C401 1.350 . S
N399 S397 1.610 . S
N399 C400 1.351 . S
C400 C394 1.428 . S
C400 N399 1.351 . S
C400 C401 1.434 . S
C401 C392 1.429 . S
C401 N398 1.350 . S
C401 C400 1.434 . S
C402 C403 1.369 . S
C402 C404 1.419 . S
C402 H406 0.930 . S
C403 C402 1.369 . S
C403 C412 1.429 . S
C404 C402 1.419 . S
C404 C405 1.363 . S
C404 H407 0.929 . S
C405 C404 1.363 . S
C405 C411 1.428 . S
H406 C402 0.930 . S
H407 C404 0.929 . S
S408 N409 1.613 . S
S408 N410 1.610 . S
N409 S408 1.613 . S
N409 C412 1.350 . S
N410 S408 1.610 . S
N410 C411 1.351 . S
C411 C405 1.428 . S
C411 N410 1.351 . S
C411 C412 1.434 . S
C412 C403 1.429 . S
C412 N409 1.350 . S
C412 C411 1.434 . S
C413 C414 1.369 . S
C413 C415 1.419 . S
C413 H417 0.930 . S
C414 C413 1.369 . S
C414 C423 1.429 . S
C415 C413 1.419 . S
C415 C416 1.363 . S
C415 H418 0.929 . S
C416 C415 1.363 . S
C416 C422 1.428 . S
H417 C413 0.930 . S
H418 C415 0.929 . S
S419 N420 1.613 . S
S419 N421 1.610 . S
N420 S419 1.613 . S
N420 C423 1.350 . S
N421 S419 1.610 . S
N421 C422 1.351 . S
C422 C416 1.428 . S
C422 N421 1.351 . S
C422 C423 1.434 . S
C423 C414 1.429 . S
C423 N420 1.350 . S
C423 C422 1.434 . S
C161 C7 1.520 . S
C163 C98 1.498 . S
C174 C76 1.493 . S
C172 C16 1.523 . S
C185 C102 1.493 . S
C183 C25 1.523 . S
C196 C80 1.498 . S
C194 C34 1.519 . S
C207 C142 1.494 . S
C205 C43 1.523 . S
C218 C120 1.496 . S
C216 C52 1.521 . S
C227 C61 1.525 . S
C229 C146 1.491 . S
C240 C124 1.499 . S
C238 C70 1.518 . S
C249 C5 1.494 . S
C251 C147 1.481 . S
C262 C125 1.477 . S
C260 C14 1.490 . S
C271 C22 1.491 . S
C273 C144 1.480 . S
C282 C32 1.492 . S
C284 C122 1.483 . S
C295 C103 1.481 . S
C293 C41 1.493 . S
C304 C50 1.491 . S
C306 C81 1.478 . S
C317 C100 1.479 . S
C315 C58 1.490 . S
C328 C78 1.480 . S
C326 C68 1.489 . S
C339 C121 1.477 . S
C337 C4 1.495 . S
C350 C143 1.473 . S
C348 C13 1.491 . S
C359 C23 1.496 . S
C361 C123 1.474 . S
C372 C145 1.472 . S
C370 C31 1.488 . S
C383 C77 1.475 . S
C381 C40 1.495 . S
C392 C49 1.495 . S
C394 C99 1.478 . S
C403 C59 1.495 . S
C405 C79 1.477 . S
C414 C67 1.488 . S
C416 C101 1.475 . S
