# Generated by pormake.
# Topology ctn, (3,4)-cn, num edge types: 1
# Building blocks:
#     Node 0, Type 0, BuildingBlock: VETTIZ_charged_linker_0, # of connection points: 3
#     Node 1, Type 0, BuildingBlock: VETTIZ_charged_linker_0, # of connection points: 3
#     Node 2, Type 0, BuildingBlock: VETTIZ_charged_linker_0, # of connection points: 3
#     Node 3, Type 0, BuildingBlock: VETTIZ_charged_linker_0, # of connection points: 3
#     Node 4, Type 0, BuildingBlock: VETTIZ_charged_linker_0, # of connection points: 3
#     Node 5, Type 0, BuildingBlock: VETTIZ_charged_linker_0, # of connection points: 3
#     Node 6, Type 0, BuildingBlock: VETTIZ_charged_linker_0, # of connection points: 3
#     Node 7, Type 0, BuildingBlock: VETTIZ_charged_linker_0, # of connection points: 3
#     Node 8, Type 0, BuildingBlock: VETTIZ_charged_linker_0, # of connection points: 3
#     Node 9, Type 0, BuildingBlock: VETTIZ_charged_linker_0, # of connection points: 3
#     Node 10, Type 0, BuildingBlock: VETTIZ_charged_linker_0, # of connection points: 3
#     Node 11, Type 0, BuildingBlock: VETTIZ_charged_linker_0, # of connection points: 3
#     Node 12, Type 0, BuildingBlock: VETTIZ_charged_linker_0, # of connection points: 3
#     Node 13, Type 0, BuildingBlock: VETTIZ_charged_linker_0, # of connection points: 3
#     Node 14, Type 0, BuildingBlock: VETTIZ_charged_linker_0, # of connection points: 3
#     Node 15, Type 0, BuildingBlock: VETTIZ_charged_linker_0, # of connection points: 3
#     Node 16, Type 1, BuildingBlock: KUFVIS_clean_sbu_0, # of connection points: 4
#     Node 17, Type 1, BuildingBlock: KUFVIS_clean_sbu_0, # of connection points: 4
#     Node 18, Type 1, BuildingBlock: KUFVIS_clean_sbu_0, # of connection points: 4
#     Node 19, Type 1, BuildingBlock: KUFVIS_clean_sbu_0, # of connection points: 4
#     Node 20, Type 1, BuildingBlock: KUFVIS_clean_sbu_0, # of connection points: 4
#     Node 21, Type 1, BuildingBlock: KUFVIS_clean_sbu_0, # of connection points: 4
#     Node 22, Type 1, BuildingBlock: KUFVIS_clean_sbu_0, # of connection points: 4
#     Node 23, Type 1, BuildingBlock: KUFVIS_clean_sbu_0, # of connection points: 4
#     Node 24, Type 1, BuildingBlock: KUFVIS_clean_sbu_0, # of connection points: 4
#     Node 25, Type 1, BuildingBlock: KUFVIS_clean_sbu_0, # of connection points: 4
#     Node 26, Type 1, BuildingBlock: KUFVIS_clean_sbu_0, # of connection points: 4
#     Node 27, Type 1, BuildingBlock: KUFVIS_clean_sbu_0, # of connection points: 4
#     Edge 28, Type (0, 1), BuildingBlock: CIFDUS_clean_linker_0, # of connection points: 2
#     Edge 29, Type (0, 1), BuildingBlock: CIFDUS_clean_linker_0, # of connection points: 2
#     Edge 30, Type (0, 1), BuildingBlock: CIFDUS_clean_linker_0, # of connection points: 2
#     Edge 31, Type (0, 1), BuildingBlock: CIFDUS_clean_linker_0, # of connection points: 2
#     Edge 32, Type (0, 1), BuildingBlock: CIFDUS_clean_linker_0, # of connection points: 2
#     Edge 33, Type (0, 1), BuildingBlock: CIFDUS_clean_linker_0, # of connection points: 2
#     Edge 34, Type (0, 1), BuildingBlock: CIFDUS_clean_linker_0, # of connection points: 2
#     Edge 35, Type (0, 1), BuildingBlock: CIFDUS_clean_linker_0, # of connection points: 2
#     Edge 36, Type (0, 1), BuildingBlock: CIFDUS_clean_linker_0, # of connection points: 2
#     Edge 37, Type (0, 1), BuildingBlock: CIFDUS_clean_linker_0, # of connection points: 2
#     Edge 38, Type (0, 1), BuildingBlock: CIFDUS_clean_linker_0, # of connection points: 2
#     Edge 39, Type (0, 1), BuildingBlock: CIFDUS_clean_linker_0, # of connection points: 2
#     Edge 40, Type (0, 1), BuildingBlock: CIFDUS_clean_linker_0, # of connection points: 2
#     Edge 41, Type (0, 1), BuildingBlock: CIFDUS_clean_linker_0, # of connection points: 2
#     Edge 42, Type (0, 1), BuildingBlock: CIFDUS_clean_linker_0, # of connection points: 2
#     Edge 43, Type (0, 1), BuildingBlock: CIFDUS_clean_linker_0, # of connection points: 2
#     Edge 44, Type (0, 1), BuildingBlock: CIFDUS_clean_linker_0, # of connection points: 2
#     Edge 45, Type (0, 1), BuildingBlock: CIFDUS_clean_linker_0, # of connection points: 2
#     Edge 46, Type (0, 1), BuildingBlock: CIFDUS_clean_linker_0, # of connection points: 2
#     Edge 47, Type (0, 1), BuildingBlock: CIFDUS_clean_linker_0, # of connection points: 2
#     Edge 48, Type (0, 1), BuildingBlock: CIFDUS_clean_linker_0, # of connection points: 2
#     Edge 49, Type (0, 1), BuildingBlock: CIFDUS_clean_linker_0, # of connection points: 2
#     Edge 50, Type (0, 1), BuildingBlock: CIFDUS_clean_linker_0, # of connection points: 2
#     Edge 51, Type (0, 1), BuildingBlock: CIFDUS_clean_linker_0, # of connection points: 2
#     Edge 52, Type (0, 1), BuildingBlock: CIFDUS_clean_linker_0, # of connection points: 2
#     Edge 53, Type (0, 1), BuildingBlock: CIFDUS_clean_linker_0, # of connection points: 2
#     Edge 54, Type (0, 1), BuildingBlock: CIFDUS_clean_linker_0, # of connection points: 2
#     Edge 55, Type (0, 1), BuildingBlock: CIFDUS_clean_linker_0, # of connection points: 2
#     Edge 56, Type (0, 1), BuildingBlock: CIFDUS_clean_linker_0, # of connection points: 2
#     Edge 57, Type (0, 1), BuildingBlock: CIFDUS_clean_linker_0, # of connection points: 2
#     Edge 58, Type (0, 1), BuildingBlock: CIFDUS_clean_linker_0, # of connection points: 2
#     Edge 59, Type (0, 1), BuildingBlock: CIFDUS_clean_linker_0, # of connection points: 2
#     Edge 60, Type (0, 1), BuildingBlock: CIFDUS_clean_linker_0, # of connection points: 2
#     Edge 61, Type (0, 1), BuildingBlock: CIFDUS_clean_linker_0, # of connection points: 2
#     Edge 62, Type (0, 1), BuildingBlock: CIFDUS_clean_linker_0, # of connection points: 2
#     Edge 63, Type (0, 1), BuildingBlock: CIFDUS_clean_linker_0, # of connection points: 2
#     Edge 64, Type (0, 1), BuildingBlock: CIFDUS_clean_linker_0, # of connection points: 2
#     Edge 65, Type (0, 1), BuildingBlock: CIFDUS_clean_linker_0, # of connection points: 2
#     Edge 66, Type (0, 1), BuildingBlock: CIFDUS_clean_linker_0, # of connection points: 2
#     Edge 67, Type (0, 1), BuildingBlock: CIFDUS_clean_linker_0, # of connection points: 2
#     Edge 68, Type (0, 1), BuildingBlock: CIFDUS_clean_linker_0, # of connection points: 2
#     Edge 69, Type (0, 1), BuildingBlock: CIFDUS_clean_linker_0, # of connection points: 2
#     Edge 70, Type (0, 1), BuildingBlock: CIFDUS_clean_linker_0, # of connection points: 2
#     Edge 71, Type (0, 1), BuildingBlock: CIFDUS_clean_linker_0, # of connection points: 2
#     Edge 72, Type (0, 1), BuildingBlock: CIFDUS_clean_linker_0, # of connection points: 2
#     Edge 73, Type (0, 1), BuildingBlock: CIFDUS_clean_linker_0, # of connection points: 2
#     Edge 74, Type (0, 1), BuildingBlock: CIFDUS_clean_linker_0, # of connection points: 2
#     Edge 75, Type (0, 1), BuildingBlock: CIFDUS_clean_linker_0, # of connection points: 2
# Relax obj value: 0.012
# Max RMSD: 0.063
# Mean RMSD: 0.029
data_MOF--net-ctn--node1-KUFVIS_clean_sbu_0--node2-VETTIZ_charged_linker_0--edge1-CIFDUS_clean_linker_0
_symmetry_space_group_name_H-M    P1
_symmetry_Int_Tables_number       1
_symmetry_cell_setting            triclinic
loop_
_symmetry_equiv_pos_as_xyz
'x, y, z'
_cell_length_a     59.373237
_cell_length_b     59.234703
_cell_length_c     59.541516
_cell_angle_alpha  91.010723
_cell_angle_beta   90.280034
_cell_angle_gamma 91.502548
loop_
_atom_site_label
_atom_site_type_symbol
_atom_site_fract_x
_atom_site_fract_y
_atom_site_fract_z
_atom_type_partial_charge
C0 C 0.03048 0.10142 0.99645 0.0
C1 C 0.01211 0.11524 1.00145 0.0
C2 C 0.9996 0.1109 0.02109 0.0
C3 C 0.02296 0.07912 0.02968 0.0
C4 C 0.03557 0.08357 0.01074 0.0
C5 C 0.05436 0.06716 0.00779 0.0
H6 H 0.1069 0.97313 0.04167 0.0
C7 C 0.03227 0.05908 0.04064 0.0
C8 C 0.05077 0.05203 0.02793 0.0
H9 H 0.12395 0.01605 0.98584 0.0
H10 H 0.09368 0.04053 0.9955 0.0
H11 H 0.09971 0.01429 0.07673 0.0
H12 H 0.05267 0.97472 0.036 0.0
H13 H 0.04144 0.97749 0.06317 0.0
H14 H 0.06764 0.96332 0.05931 0.0
H15 H 0.09159 0.98587 0.08364 0.0
H16 H 0.07544 0.00967 0.09291 0.0
C17 C 0.07709 0.0806 0.0093 0.0
C18 C 0.05042 0.05412 0.98528 0.0
C19 C 0.99415 0.0272 0.11023 0.0
C20 C 0.99856 0.00867 0.12399 0.0
C21 C 0.01739 0.99543 0.11892 0.0
C22 C 0.03124 1.00027 0.10047 0.0
C23 C 0.02641 0.01863 0.08678 0.0
C24 C 0.00824 0.03187 0.0919 0.0
C25 C 0.00585 0.0509 0.07568 0.0
C26 C 0.02549 0.04685 0.05995 0.0
C27 C 0.03743 0.02782 0.06644 0.0
C28 C 0.00879 0.07353 0.08898 0.0
C29 C 0.98284 0.04768 0.0635 0.0
C30 C 0.1043 0.98789 0.03161 0.0
C31 C 0.11785 0.99231 0.0127 0.0
C32 C 0.11357 0.01176 1.00012 0.0
C33 C 0.09601 0.02614 0.00587 0.0
C34 C 0.08243 0.02126 0.0245 0.0
C35 C 0.08685 1.00255 0.0372 0.0
C36 C 0.07098 1.00036 0.05677 0.0
C37 C 0.05616 0.02064 0.05354 0.0
C38 C 0.06288 0.03276 0.0345 0.0
C39 C 0.08501 1.00247 0.07875 0.0
C40 C 0.05748 0.97776 0.05391 0.0
H41 H 0.99459 0.09063 0.0497 0.0
H42 H 0.04043 0.10409 0.98149 0.0
H43 H 0.0322 0.04987 0.98279 0.0
H44 H 0.05887 0.03777 0.98456 0.0
H45 H 0.05608 0.0644 0.97084 0.0
H46 H 0.07594 0.0953 0.0211 0.0
H47 H 0.0821 0.08718 0.99266 0.0
H48 H 0.09088 0.07055 0.01612 0.0
H49 H 0.9798 0.03769 0.11337 0.0
H50 H 0.0216 0.98134 0.12935 0.0
H51 H 0.0452 0.98946 0.09757 0.0
H52 H 0.02091 0.07193 0.10314 0.0
H53 H 0.99253 0.07894 0.09619 0.0
H54 H 0.016 0.08727 0.07873 0.0
H55 H 0.97917 0.02948 0.05974 0.0
H56 H 0.98232 0.05593 0.04705 0.0
H57 H 0.96892 0.05406 0.07406 0.0
H58 H 0.9857 0.12146 0.02574 0.0
C59 C 1.00488 0.093 0.03514 0.0
C60 C 0.27054 0.6382 0.2196 0.0
C61 C 0.2521 0.63271 0.20532 0.0
C62 C 0.24679 0.64772 0.18805 0.0
C63 C 0.27813 0.67268 0.19904 0.0
C64 C 0.28331 0.65815 0.21611 0.0
C65 C 0.30361 0.66646 0.2295 0.0
H66 H 0.38865 0.74427 0.24451 0.0
C67 C 0.29495 0.69158 0.1995 0.0
C68 C 0.31008 0.68797 0.21722 0.0
H69 H 0.37215 0.68709 0.28616 0.0
H70 H 0.34126 0.67648 0.26136 0.0
H71 H 0.33673 0.75943 0.23909 0.0
H72 H 0.38044 0.72012 0.19719 0.0
H73 H 0.36426 0.73653 0.17924 0.0
H74 H 0.38321 0.75033 0.1993 0.0
H75 H 0.36091 0.77133 0.22518 0.0
H76 H 0.33398 0.76858 0.2113 0.0
C77 C 0.29597 0.67145 0.25389 0.0
C78 C 0.32203 0.64854 0.2275 0.0
C79 C 0.28857 0.75519 0.14361 0.0
C80 C 0.30232 0.77421 0.13894 0.0
C81 C 0.32271 0.77759 0.15085 0.0
C82 C 0.32896 0.76267 0.16772 0.0
C83 C 0.31475 0.74402 0.17263 0.0
C84 C 0.29521 0.74025 0.16026 0.0
C85 C 0.28294 0.7188 0.16676 0.0
C86 C 0.29784 0.71079 0.1857 0.0
C87 C 0.31629 0.72577 0.18926 0.0
C88 C 0.25925 0.725 0.17527 0.0
C89 C 0.28278 0.70229 0.14622 0.0
C90 C 0.37834 0.72955 0.2485 0.0
C91 C 0.38308 0.71656 0.26748 0.0
C92 C 0.36928 0.69728 0.27156 0.0
C93 C 0.35114 0.69124 0.25723 0.0
C94 C 0.34648 0.70466 0.2386 0.0
C95 C 0.35999 0.72349 0.23456 0.0
C96 C 0.35212 0.73632 0.21452 0.0
C97 C 0.33162 0.72215 0.20719 0.0
C98 C 0.32845 0.7035 0.22124 0.0
C99 C 0.34568 0.76025 0.22273 0.0
C100 C 0.37094 0.73605 0.19658 0.0
H101 H 0.25462 0.67823 0.17145 0.0
H102 H 0.27518 0.62706 0.23299 0.0
H103 H 0.32293 0.6418 0.20997 0.0
H104 H 0.33908 0.6554 0.23139 0.0
H105 H 0.31835 0.63409 0.23867 0.0
H106 H 0.27846 0.67771 0.2542 0.0
H107 H 0.2963 0.65601 0.26419 0.0
H108 H 0.30623 0.68498 0.26227 0.0
H109 H 0.273 0.75198 0.13439 0.0
H110 H 0.33354 0.79213 0.14747 0.0
H111 H 0.34452 0.76634 0.17643 0.0
H112 H 0.26026 0.74046 0.18616 0.0
H113 H 0.24777 0.72841 0.16101 0.0
H114 H 0.25138 0.71182 0.18575 0.0
H115 H 0.29744 0.7056 0.13507 0.0
H116 H 0.2844 0.68447 0.15109 0.0
H117 H 0.26727 0.70392 0.13594 0.0
H118 H 0.23246 0.64422 0.17709 0.0
C119 C 0.25964 0.66757 0.18485 0.0
C120 C 0.98715 0.40255 0.00892 0.0
C121 C 0.97371 0.39552 0.99041 0.0
C122 C 0.95692 0.40989 0.98266 0.0
C123 C 0.96607 0.43719 0.01233 0.0
C124 C 0.98292 0.42336 0.0197 0.0
C125 C 0.99444 0.43293 0.04056 0.0
H126 H 0.00575 0.51786 0.1182 0.0
C127 C 0.96508 0.457 0.02779 0.0
C128 C 0.9817 0.45465 0.04441 0.0
H129 H 0.04178 0.4552 0.11483 0.0
H130 H 0.02081 0.44385 0.08177 0.0
H131 H 0.95854 0.49383 0.11091 0.0
H132 H 1.00253 0.52756 0.06421 0.0
H133 H 0.97485 0.53697 0.06035 0.0
H134 H 0.98871 0.54173 0.08701 0.0
H135 H 0.95982 0.52402 0.10909 0.0
H136 H 0.94112 0.50686 0.09143 0.0
C137 C 0.99066 0.41607 0.05988 0.0
C138 C 0.01949 0.43771 0.03488 0.0
C139 C 0.90563 0.51614 0.0155 0.0
C140 C 0.89935 0.5356 0.02772 0.0
C141 C 0.91213 0.54196 0.04703 0.0
C142 C 0.9305 0.5293 0.05401 0.0
C143 C 0.93622 0.50976 0.04182 0.0
C144 C 0.92381 0.50347 0.02293 0.0
C145 C 0.93169 0.48171 0.01257 0.0
C146 C 0.95083 0.47595 0.02835 0.0
C147 C 0.95353 0.49253 0.04539 0.0
C148 C 0.91195 0.46407 0.01345 0.0
C149 C 0.9403 0.48674 0.9886 0.0
C150 C 0.00914 0.50158 0.11062 0.0
C151 C 0.02599 0.48773 0.11936 0.0
C152 C 0.02958 0.46674 0.10841 0.0
C153 C 0.01715 0.45996 0.0892 0.0
C154 C 1.00051 0.47403 0.0808 0.0
C155 C 0.99652 0.49431 0.0917 0.0
C156 C 0.97715 0.50641 0.08132 0.0
C157 C 0.97064 0.4904 0.062 0.0
C158 C 0.98452 0.47151 0.06164 0.0
C159 C 0.95814 0.5081 0.09902 0.0
C160 C 0.98609 0.52949 0.07283 0.0
H161 H 0.93992 0.44062 0.98673 0.0
H162 H 0.99997 0.39169 0.0154 0.0
H163 H 0.02106 0.44563 0.01813 0.0
H164 H 0.0279 0.4497 0.04678 0.0
H165 H 0.02902 0.42182 0.03438 0.0
H166 H 0.97413 0.40692 0.05803 0.0
H167 H 1.00397 0.40324 0.06008 0.0
H168 H 0.98994 0.42449 0.07655 0.0
H169 H 0.89658 0.51069 1.00046 0.0
H170 H 0.90765 0.55647 0.0572 0.0
H171 H 0.93939 0.53508 0.06884 0.0
H172 H 0.90141 0.46682 0.02862 0.0
H173 H 0.90079 0.46518 0.99851 0.0
H174 H 0.91766 0.44656 0.01489 0.0
H175 H 0.94916 0.50352 0.98819 0.0
H176 H 0.95284 0.47462 0.98261 0.0
H177 H 0.92613 0.48698 0.97637 0.0
H178 H 0.94643 0.40481 0.96841 0.0
C179 C 0.95312 0.43065 0.99339 0.0
C180 C 0.64738 0.81712 0.26468 0.0
C181 C 0.63346 0.79768 0.26646 0.0
C182 C 0.63672 0.77928 0.25164 0.0
C183 C 0.667 0.79997 0.23316 0.0
C184 C 0.6642 0.81777 0.24815 0.0
C185 C 0.6814 0.83654 0.24474 0.0
H186 H 0.77239 0.87745 0.18843 0.0
C187 C 0.68571 0.80612 0.21783 0.0
C188 C 0.69435 0.82748 0.22469 0.0
H189 H 0.7396 0.90709 0.24615 0.0
H190 H 0.71204 0.87647 0.24588 0.0
H191 H 0.72784 0.86563 0.16186 0.0
H192 H 0.76875 0.82513 0.20421 0.0
H193 H 0.76237 0.80976 0.17923 0.0
H194 H 0.77771 0.83624 0.17773 0.0
H195 H 0.7522 0.85187 0.15119 0.0
H196 H 0.72476 0.83791 0.15118 0.0
C197 C 0.66877 0.85824 0.23898 0.0
C198 C 0.69632 0.83867 0.26617 0.0
C199 C 0.70565 0.75351 0.15251 0.0
C200 C 0.72067 0.75584 0.13445 0.0
C201 C 0.73416 0.77565 0.133 0.0
C202 C 0.733 0.7928 0.14945 0.0
C203 C 0.71796 0.7903 0.16746 0.0
C204 C 0.70433 0.77107 0.1686 0.0
C205 C 0.68839 0.77206 0.1882 0.0
C206 C 0.69485 0.79495 0.1987 0.0
C207 C 0.71243 0.80536 0.18665 0.0
C208 C 0.66402 0.77145 0.17879 0.0
C209 C 0.69369 0.75242 0.20407 0.0
C210 C 0.75917 0.8775 0.20089 0.0
C211 C 0.75846 0.89469 0.2175 0.0
C212 C 0.74093 0.89388 0.23344 0.0
C213 C 0.72485 0.87609 0.23323 0.0
C214 C 0.72616 0.85876 0.21691 0.0
C215 C 0.74296 0.85981 0.20093 0.0
C216 C 0.74154 0.84009 0.18465 0.0
C217 C 0.72168 0.82661 0.19401 0.0
C218 C 0.71269 0.83764 0.21289 0.0
C219 C 0.73647 0.84919 0.16092 0.0
C220 C 0.76375 0.82707 0.18633 0.0
H221 H 0.65484 0.76583 0.22409 0.0
H222 H 0.64546 0.83132 0.27617 0.0
H223 H 0.69807 0.82201 0.27426 0.0
H224 H 0.71379 0.84432 0.2626 0.0
H225 H 0.68894 0.85036 0.27876 0.0
H226 H 0.65453 0.85426 0.22723 0.0
H227 H 0.66173 0.86623 0.25433 0.0
H228 H 0.67948 0.87082 0.23031 0.0
H229 H 0.6949 0.73853 0.15384 0.0
H230 H 0.74586 0.7777 0.11923 0.0
H231 H 0.7439 0.80735 0.14751 0.0
H232 H 0.66291 0.78175 0.16339 0.0
H233 H 0.65842 0.75391 0.17425 0.0
H234 H 0.65173 0.77876 0.19049 0.0
H235 H 0.71206 0.74916 0.20433 0.0
H236 H 0.6894 0.75617 0.22175 0.0
H237 H 0.68479 0.73654 0.19854 0.0
H238 H 0.6262 0.76413 0.25284 0.0
C239 C 0.6533 0.78035 0.23494 0.0
C240 C 0.04132 0.91135 0.53789 0.0
C241 C 0.02546 0.89337 0.53496 0.0
C242 C 0.01095 0.89369 0.51605 0.0
C243 C 0.02878 0.92867 0.50343 0.0
C244 C 0.04292 0.92839 0.52191 0.0
C245 C 0.06029 0.94732 0.5218 0.0
H246 H 0.11001 0.03533 0.46885 0.0
C247 C 0.03547 0.94847 0.48974 0.0
C248 C 0.05408 0.95928 0.5004 0.0
H249 H 0.12999 1.00486 0.53107 0.0
H250 H 0.09743 0.97971 0.52919 0.0
H251 H 0.0573 0.03673 0.48081 0.0
H252 H 0.0953 0.98877 0.44234 0.0
H253 H 0.07069 0.99501 0.42724 0.0
H254 H 0.09104 0.01724 0.43366 0.0
H255 H 0.06607 0.04228 0.45261 0.0
H256 H 0.03999 0.02715 0.45844 0.0
C257 C 0.05672 0.96246 0.5429 0.0
C258 C 0.08391 0.93675 0.52033 0.0
C259 C 0.99254 0.96584 0.41793 0.0
C260 C 0.9949 0.98288 0.40178 0.0
C261 C 0.01183 0.99978 0.40508 0.0
C262 C 0.02644 0.9994 0.42371 0.0
C263 C 0.02418 0.98196 0.43936 0.0
C264 C 0.00722 0.96573 0.43648 0.0
C265 C 0.00719 0.94859 0.45491 0.0
C266 C 0.02681 0.95727 0.46941 0.0
C267 C 0.03689 0.97671 0.46007 0.0
C268 C 0.9845 0.94986 0.46748 0.0
C269 C 0.01177 0.92513 0.44423 0.0
C270 C 0.10741 0.02313 0.48199 0.0
C271 C 0.12278 0.02194 0.50003 0.0
C272 C 0.11843 0.00622 0.51706 0.0
C273 C 0.09957 0.99148 0.51583 0.0
C274 C 0.08479 0.99236 0.49734 0.0
C275 C 0.08859 0.00828 0.48101 0.0
C276 C 0.07076 0.00704 0.46288 0.0
C277 C 0.05614 0.9872 0.47059 0.0
C278 C 0.06452 0.97864 0.49074 0.0
C279 C 0.05786 0.02945 0.46347 0.0
C280 C 0.08241 1.00188 0.44023 0.0
H281 H 1.00103 0.91033 0.48638 0.0
H282 H 0.05258 0.91216 0.55224 0.0
H283 H 0.08317 0.92043 0.51076 0.0
H284 H 0.09624 0.94728 0.51111 0.0
H285 H 0.09074 0.93334 0.5373 0.0
H286 H 0.03845 0.96406 0.54649 0.0
H287 H 0.06476 0.95523 0.55794 0.0
H288 H 0.06314 0.97997 0.54082 0.0
H289 H 0.97955 0.95274 0.41613 0.0
H290 H 0.01422 0.01297 0.39289 0.0
H291 H 0.03917 0.01255 0.42503 0.0
H292 H 0.97973 0.96775 0.47012 0.0
H293 H 0.97076 0.94113 0.4577 0.0
H294 H 0.98512 0.94263 0.4844 0.0
H295 H 0.02351 0.92669 0.42979 0.0
H296 H 0.02017 0.91373 0.45591 0.0
H297 H 0.99594 0.91681 0.4379 0.0
H298 H 0.99879 0.88006 0.5129 0.0
C299 C 0.01243 0.91123 0.50044 0.0
C300 C 0.26742 0.64283 0.81292 0.0
C301 C 0.26663 0.62587 0.79607 0.0
C302 C 0.25016 0.62684 0.77901 0.0
C303 C 0.23539 0.66098 0.79581 0.0
C304 C 0.2515 0.66 0.81263 0.0
C305 C 0.24888 0.6785 0.83006 0.0
H306 H 0.19174 0.76904 0.86866 0.0
C307 C 0.22092 0.68046 0.80073 0.0
C308 C 0.22859 0.69065 0.82096 0.0
H309 H 0.24957 0.7383 0.89875 0.0
H310 H 0.25052 0.71092 0.86831 0.0
H311 H 0.16564 0.72356 0.85591 0.0
H312 H 0.21005 0.76624 0.81745 0.0
H313 H 0.18693 0.75842 0.80021 0.0
H314 H 0.18233 0.7743 0.82578 0.0
H315 H 0.15649 0.74949 0.84418 0.0
H316 H 0.15485 0.72315 0.82842 0.0
C317 C 0.24382 0.66736 0.85291 0.0
C318 C 0.27047 0.69372 0.82996 0.0
C319 C 0.15774 0.70004 0.74653 0.0
C320 C 0.14076 0.71615 0.74754 0.0
C321 C 0.13984 0.73088 0.7663 0.0
C322 C 0.15573 0.72983 0.78372 0.0
C323 C 0.17263 0.71366 0.78258 0.0
C324 C 0.1733 0.69893 0.76433 0.0
C325 C 0.19159 0.68193 0.76678 0.0
C326 C 0.2022 0.68939 0.78913 0.0
C327 C 0.19109 0.70808 0.79819 0.0
C328 C 0.18034 0.65805 0.76795 0.0
C329 C 0.20822 0.68492 0.74707 0.0
C330 C 0.20447 0.75627 0.86884 0.0
C331 C 0.22059 0.75592 0.88622 0.0
C332 C 0.23709 0.73918 0.88549 0.0
C333 C 0.23755 0.72318 0.86783 0.0
C334 C 0.22134 0.7238 0.85058 0.0
C335 C 0.20519 0.74019 0.85128 0.0
C336 C 0.18941 0.73844 0.83145 0.0
C337 C 0.19868 0.71826 0.81876 0.0
C338 C 0.21738 0.7097 0.83003 0.0
C339 C 0.16527 0.73357 0.84027 0.0
C340 C 0.19207 0.76048 0.81797 0.0
H341 H 0.22263 0.6441 0.76522 0.0
H342 H 0.27972 0.64234 0.82639 0.0
H343 H 0.27663 0.69605 0.81251 0.0
H344 H 0.26769 0.71095 0.83654 0.0
H345 H 0.28421 0.68609 0.83976 0.0
H346 H 0.23323 0.65171 0.85054 0.0
H347 H 0.25961 0.66265 0.86151 0.0
H348 H 0.23401 0.67817 0.86432 0.0
H349 H 0.15854 0.68824 0.73246 0.0
H350 H 0.12686 0.74337 0.76738 0.0
H351 H 0.15414 0.74162 0.79747 0.0
H352 H 0.16296 0.65878 0.7748 0.0
H353 H 0.17914 0.64985 0.75105 0.0
H354 H 0.18926 0.64686 0.77949 0.0
H355 H 0.21214 0.70315 0.74441 0.0
H356 H 0.22459 0.6771 0.7501 0.0
H357 H 0.2009 0.67774 0.73121 0.0
H358 H 0.24931 0.614 0.76582 0.0
C359 C 0.23468 0.64433 0.7787 0.0
C360 C 0.91286 0.49484 0.49315 0.0
C361 C 0.90773 0.47475 0.48099 0.0
C362 C 0.92157 0.46883 0.46269 0.0
C363 C 0.94478 0.50274 0.46874 0.0
C364 C 0.93139 0.50844 0.4868 0.0
C365 C 0.93909 0.53032 0.49794 0.0
H366 H 0.01064 0.62139 0.50177 0.0
C367 C 0.96247 0.52065 0.4664 0.0
C368 C 0.95927 0.53679 0.4836 0.0
H369 H 0.95419 0.60643 0.54508 0.0
H370 H 0.94686 0.57129 0.52505 0.0
H371 H 0.98594 0.60705 0.45711 0.0
H372 H 0.02981 0.56967 0.49951 0.0
H373 H 0.03741 0.56401 0.4715 0.0
H374 H 0.03963 0.59257 0.48246 0.0
H375 H 0.01592 0.61164 0.45711 0.0
H376 H 1.0023 0.5905 0.43916 0.0
C377 C 0.91984 0.54736 0.49581 0.0
C378 C 0.94608 0.5253 0.52242 0.0
C379 C 0.0174 0.51828 0.40071 0.0
C380 C 0.03427 0.5336 0.39355 0.0
C381 C 0.03984 0.55264 0.40719 0.0
C382 C 0.02835 0.55685 0.42724 0.0
C383 C 0.01082 0.54202 0.43374 0.0
C384 C 0.00579 0.52292 0.42077 0.0
C385 C 0.98624 0.50943 0.43021 0.0
C386 C 0.9802 0.52381 0.45065 0.0
C387 C 0.99469 0.5429 0.45258 0.0
C388 C 0.96708 0.50848 0.41244 0.0
C389 C 0.99485 0.48604 0.43694 0.0
C390 C 0.99687 0.61038 0.50702 0.0
C391 C 0.98289 0.61673 0.52493 0.0
C392 C 0.96499 0.60205 0.53113 0.0
C393 C 0.9608 0.5816 0.51951 0.0
C394 C 0.97456 0.57567 0.50132 0.0
C395 C 0.9923 0.58991 0.49539 0.0
C396 C 1.00465 0.5811 0.47516 0.0
C397 C 0.99151 0.55919 0.47006 0.0
C398 C 0.97392 0.55612 0.48547 0.0
C399 C 1.00233 0.59841 0.45609 0.0
C400 C 0.02924 0.57669 0.48231 0.0
H401 H 0.94971 0.47723 0.44239 0.0
H402 H 0.90279 0.49981 0.50743 0.0
H403 H 0.95419 0.50861 0.52339 0.0
H404 H 0.95879 0.53753 0.52929 0.0
H405 H 0.93122 0.52489 0.53368 0.0
H406 H 0.91059 0.54479 0.47963 0.0
H407 H 0.90745 0.54535 0.50959 0.0
H408 H 0.92599 0.56511 0.49556 0.0
H409 H 0.01265 0.50363 0.39043 0.0
H410 H 0.05287 0.56458 0.40203 0.0
H411 H 0.03323 0.57181 0.43664 0.0
H412 H 0.9659 0.52494 0.40385 0.0
H413 H 0.97012 0.49529 0.39939 0.0
H414 H 0.95027 0.5054 0.41976 0.0
H415 H 0.0124 0.48748 0.44356 0.0
H416 H 0.98499 0.47837 0.45066 0.0
H417 H 0.99485 0.47417 0.42229 0.0
H418 H 0.91789 0.45365 0.45279 0.0
C419 C 0.94 0.48264 0.45654 0.0
C420 C 0.81186 0.76593 0.86795 0.0
C421 C 0.79249 0.76624 0.88143 0.0
C422 C 0.77756 0.78422 0.87944 0.0
C423 C 0.79968 0.79966 0.84902 0.0
C424 C 0.81504 0.78273 0.85175 0.0
C425 C 0.83358 0.78404 0.83457 0.0
H426 H 0.87247 0.82519 0.73629 0.0
C427 C 0.80625 0.81282 0.82909 0.0
C428 C 0.82617 0.80382 0.82054 0.0
H429 H 0.90346 0.77694 0.7797 0.0
H430 H 0.87433 0.78214 0.80707 0.0
H431 H 0.86127 0.86112 0.77817 0.0
H432 H 0.822 0.80919 0.74325 0.0
H433 H 0.80459 0.83236 0.74761 0.0
H434 H 0.82942 0.83559 0.73052 0.0
H435 H 0.85195 0.86396 0.74966 0.0
H436 H 0.83435 0.87163 0.77303 0.0
C437 C 0.85616 0.78931 0.84702 0.0
C438 C 0.83312 0.7616 0.8208 0.0
C439 C 0.75449 0.87353 0.80089 0.0
C440 C 0.75419 0.8862 0.78117 0.0
C441 C 0.77169 0.88368 0.76548 0.0
C442 C 0.78923 0.86878 0.76934 0.0
C443 C 0.78918 0.85595 0.78899 0.0
C444 C 0.77194 0.85839 0.80432 0.0
C445 C 0.77379 0.8423 0.82347 0.0
C446 C 0.79533 0.83029 0.81748 0.0
C447 C 0.80434 0.83841 0.7973 0.0
C448 C 0.77651 0.85635 0.84554 0.0
C449 C 0.7528 0.82607 0.82275 0.0
C450 C 0.87315 0.81596 0.7518 0.0
C451 C 0.8901 0.80019 0.75547 0.0
C452 C 0.8903 0.78867 0.77604 0.0
C453 C 0.87339 0.79175 0.79202 0.0
C454 C 0.85595 0.80657 0.7876 0.0
C455 C 0.85636 0.81893 0.76811 0.0
C456 C 0.83683 0.83462 0.76687 0.0
C457 C 0.82457 0.82937 0.78864 0.0
C458 C 0.83567 0.81258 0.80049 0.0
C459 C 0.84642 0.85918 0.76676 0.0
C460 C 0.82243 0.82783 0.74593 0.0
H461 H 0.76883 0.81386 0.86247 0.0
H462 H 0.82351 0.75222 0.86908 0.0
H463 H 0.81553 0.75664 0.81597 0.0
H464 H 0.84251 0.76265 0.80492 0.0
H465 H 0.84011 0.7477 0.83075 0.0
H466 H 0.85344 0.79821 0.86336 0.0
H467 H 0.86526 0.77361 0.85058 0.0
H468 H 0.86735 0.80092 0.83754 0.0
H469 H 0.74103 0.87481 0.81303 0.0
H470 H 0.77179 0.89332 0.75018 0.0
H471 H 0.80201 0.86761 0.75672 0.0
H472 H 0.78796 0.87126 0.84302 0.0
H473 H 0.76003 0.86267 0.85131 0.0
H474 H 0.78426 0.84685 0.85923 0.0
H475 H 0.74587 0.82407 0.80541 0.0
H476 H 0.75668 0.8087 0.82768 0.0
H477 H 0.73912 0.83248 0.83359 0.0
H478 H 0.76262 0.78482 0.88978 0.0
C479 C 0.78112 0.80096 0.86346 0.0
C480 C 0.31933 0.25723 0.37668 0.0
C481 C 0.3003 0.25667 0.3906 0.0
C482 C 0.28382 0.27315 0.38802 0.0
C483 C 0.30512 0.29012 0.35771 0.0
C484 C 0.32124 0.27389 0.36024 0.0
C485 C 0.33951 0.27588 0.34291 0.0
H486 H 0.38357 0.32786 0.25204 0.0
C487 C 0.31188 0.30463 0.33873 0.0
C488 C 0.33198 0.29626 0.32992 0.0
H489 H 0.40708 0.26867 0.28567 0.0
H490 H 0.37737 0.27155 0.31265 0.0
H491 H 0.37378 0.35625 0.29608 0.0
H492 H 0.32935 0.31406 0.25509 0.0
H493 H 0.31623 0.33988 0.26084 0.0
H494 H 0.34233 0.33991 0.24564 0.0
H495 H 0.36205 0.36612 0.27035 0.0
H496 H 0.34733 0.36877 0.29671 0.0
C497 C 0.36214 0.2807 0.35534 0.0
C498 C 0.33886 0.25398 0.32819 0.0
C499 C 0.26441 0.3717 0.31762 0.0
C500 C 0.26747 0.38903 0.30197 0.0
C501 C 0.28655 0.38882 0.28797 0.0
C502 C 0.30225 0.37161 0.28938 0.0
C503 C 0.29906 0.35444 0.30513 0.0
C504 C 0.28052 0.3548 0.3191 0.0
C505 C 0.28057 0.3358 0.3356 0.0
C506 C 0.30209 0.32397 0.32916 0.0
C507 C 0.31269 0.33479 0.31107 0.0
C508 C 0.28199 0.34627 0.35961 0.0
C509 C 0.25936 0.32057 0.33112 0.0
C510 C 0.38223 0.31547 0.26515 0.0
C511 C 0.39792 0.29809 0.26669 0.0
C512 C 0.3956 0.28249 0.28424 0.0
C513 C 0.37814 0.28405 0.29984 0.0
C514 C 0.36255 0.30133 0.29801 0.0
C515 C 0.36475 0.31676 0.28096 0.0
C516 C 0.34656 0.33404 0.28186 0.0
C517 C 0.33283 0.32604 0.30187 0.0
C518 C 0.34236 0.30688 0.31126 0.0
C519 C 0.35786 0.3576 0.28632 0.0
C520 C 0.33286 0.3321 0.25969 0.0
H521 H 0.27298 0.30188 0.37061 0.0
H522 H 0.332 0.24449 0.37799 0.0
H523 H 0.32156 0.2463 0.32728 0.0
H524 H 0.34334 0.25704 0.31049 0.0
H525 H 0.35014 0.24111 0.33509 0.0
H526 H 0.35983 0.29268 0.3697 0.0
H527 H 0.36901 0.26494 0.36214 0.0
H528 H 0.37502 0.28887 0.34467 0.0
H529 H 0.25005 0.37158 0.32878 0.0
H530 H 0.28918 0.40193 0.27572 0.0
H531 H 0.31631 0.37237 0.27816 0.0
H532 H 0.29326 0.36158 0.35999 0.0
H533 H 0.26513 0.35139 0.36553 0.0
H534 H 0.28933 0.33488 0.37198 0.0
H535 H 0.25548 0.31936 0.31283 0.0
H536 H 0.26154 0.30295 0.33629 0.0
H537 H 0.24438 0.32746 0.33969 0.0
H538 H 0.26899 0.27295 0.39855 0.0
C539 C 0.28617 0.2899 0.37177 0.0
C540 C 0.49245 0.9103 0.49631 0.0
C541 C 0.47961 0.90535 0.47679 0.0
C542 C 0.4614 0.91935 0.47176 0.0
C543 C 0.4692 0.94258 0.50505 0.0
C544 C 0.48696 0.92886 0.5101 0.0
C545 C 0.49896 0.93641 0.53137 0.0
H546 H 0.50764 0.0081 0.62118 0.0
C547 C 0.4679 0.96034 0.52288 0.0
C548 C 0.48531 0.95669 0.53841 0.0
H549 H 0.55117 0.95323 0.60318 0.0
H550 H 0.52843 0.94469 0.57045 0.0
H551 H 0.46137 0.98313 0.60923 0.0
H552 H 0.50408 0.02704 0.57022 0.0
H553 H 0.47612 0.03512 0.56612 0.0
H554 H 0.48823 0.0368 0.59391 0.0
H555 H 0.46243 0.01315 0.61384 0.0
H556 H 0.44349 0.99993 0.59342 0.0
C557 C 0.49684 0.91707 0.54846 0.0
C558 C 0.52354 0.9433 0.52534 0.0
C559 C 0.4086 0.02139 0.51881 0.0
C560 C 0.40315 0.03957 0.53331 0.0
C561 C 0.41516 0.04213 0.5538 0.0
C562 C 0.43257 0.02769 0.55937 0.0
C563 C 0.4382 0.01012 0.54448 0.0
C564 C 0.42604 0.00689 0.52478 0.0
C565 C 0.43387 0.98656 0.51159 0.0
C566 C 0.45309 0.97865 0.52632 0.0
C567 C 0.45562 0.99267 0.54551 0.0
C568 C 0.41413 0.96895 0.51026 0.0
C569 C 0.44236 0.99462 0.48848 0.0
C570 C 0.51245 0.99436 0.61013 0.0
C571 C 0.53131 0.98128 0.6151 0.0
C572 C 0.53658 0.96337 0.60021 0.0
C573 C 0.52341 0.95852 0.581 0.0
C574 C 0.50469 0.97173 0.57632 0.0
C575 C 0.49956 0.98938 0.59072 0.0
C576 C 0.47936 1.00195 0.58277 0.0
C577 C 0.47323 0.98893 0.56124 0.0
C578 C 0.48807 0.97115 0.55762 0.0
C579 C 0.46064 0.99967 0.60071 0.0
C580 C 0.48712 0.02659 0.5781 0.0
H581 H 0.44215 0.94776 0.48084 0.0
H582 H 0.50669 0.90016 0.50065 0.0
H583 H 0.5245 0.95042 0.50819 0.0
H584 H 0.53064 0.95683 0.53648 0.0
H585 H 0.53469 0.92854 0.52573 0.0
H586 H 0.47974 0.90892 0.54758 0.0
H587 H 0.50929 0.90381 0.54492 0.0
H588 H 0.49886 0.92295 0.56605 0.0
H589 H 0.3998 0.01866 0.50299 0.0
H590 H 0.41102 0.05531 0.5658 0.0
H591 H 0.44099 0.0308 0.57514 0.0
H592 H 0.40382 0.96948 0.52581 0.0
H593 H 0.40278 0.97224 0.49586 0.0
H594 H 0.41988 0.9514 0.50902 0.0
H595 H 0.4524 0.01067 0.49038 0.0
H596 H 0.4537 0.98261 0.48024 0.0
H597 H 0.42802 0.99774 0.47698 0.0
H598 H 0.4509 0.91583 0.45712 0.0
C599 C 0.45618 0.93785 0.48569 0.0
C600 C 0.14339 0.31074 0.76482 0.0
C601 C 0.12686 0.29342 0.76232 0.0
C602 C 0.12873 0.27766 0.74445 0.0
C603 C 0.16327 0.29637 0.73211 0.0
C604 C 0.16121 0.31203 0.74943 0.0
C605 C 0.17964 0.32997 0.74904 0.0
H606 H 0.27643 0.37163 0.70406 0.0
C607 C 0.18366 0.30257 0.71905 0.0
C608 C 0.19313 0.32244 0.72872 0.0
H609 H 0.23842 0.39825 0.75991 0.0
H610 H 0.21024 0.36877 0.7547 0.0
H611 H 0.2331 0.36185 0.672 0.0
H612 H 0.26906 0.31815 0.71599 0.0
H613 H 0.26472 0.30434 0.68979 0.0
H614 H 0.28126 0.33018 0.69121 0.0
H615 H 0.25976 0.3505 0.66431 0.0
H616 H 0.23359 0.33508 0.65891 0.0
C617 C 0.16866 0.35311 0.74538 0.0
C618 C 0.19338 0.32848 0.77112 0.0
C619 C 0.20882 0.25148 0.65472 0.0
C620 C 0.22632 0.25325 0.639 0.0
C621 C 0.24093 0.27237 0.6398 0.0
C622 C 0.23844 0.28931 0.65637 0.0
C623 C 0.22098 0.28726 0.67216 0.0
C624 C 0.20629 0.26875 0.6709 0.0
C625 C 0.18782 0.27012 0.68808 0.0
C626 C 0.19421 0.29212 0.7003 0.0
C627 C 0.21382 0.302 0.69108 0.0
C628 C 0.16496 0.27153 0.67552 0.0
C629 C 0.18955 0.24956 0.70362 0.0
C630 C 0.2619 0.37121 0.71498 0.0
C631 C 0.2599 0.38719 0.73266 0.0
C632 C 0.24069 0.38594 0.74649 0.0
C633 C 0.22424 0.3688 0.7434 0.0
C634 C 0.22682 0.35254 0.72623 0.0
C635 C 0.2452 0.35407 0.71212 0.0
C636 C 0.24479 0.33534 0.6946 0.0
C637 C 0.22338 0.32222 0.70083 0.0
C638 C 0.21301 0.33237 0.71946 0.0
C639 C 0.24287 0.34609 0.67115 0.0
C640 C 0.26609 0.32122 0.69784 0.0
H641 H 0.14741 0.26634 0.71633 0.0
H642 H 0.14222 0.32327 0.77821 0.0
H643 H 0.19571 0.31054 0.77566 0.0
H644 H 0.21058 0.33582 0.76989 0.0
H645 H 0.18458 0.33687 0.78529 0.0
H646 H 0.15279 0.35114 0.73543 0.0
H647 H 0.16444 0.36141 0.76164 0.0
H648 H 0.17937 0.36476 0.73549 0.0
H649 H 0.19712 0.23713 0.65417 0.0
H650 H 0.25445 0.27404 0.62775 0.0
H651 H 0.25022 0.30335 0.65625 0.0
H652 H 0.16709 0.27933 0.65877 0.0
H653 H 0.15704 0.2545 0.67277 0.0
H654 H 0.15296 0.28248 0.6844 0.0
H655 H 0.2074 0.24689 0.70842 0.0
H656 H 0.18044 0.25171 0.71958 0.0
H657 H 0.18305 0.23389 0.69503 0.0
H658 H 0.11626 0.26411 0.74226 0.0
C659 C 0.14686 0.27896 0.72944 0.0
C660 C 0.76723 0.14628 0.72002 0.0
C661 C 0.74877 0.14172 0.7055 0.0
C662 C 0.74441 0.15705 0.68824 0.0
C663 C 0.77632 0.18081 0.70009 0.0
C664 C 0.78074 0.16583 0.717 0.0
C665 C 0.801 0.1733 0.73088 0.0
H666 H 0.88561 0.2505 0.75112 0.0
C667 C 0.79321 0.19961 0.70164 0.0
C668 C 0.80778 0.19533 0.71967 0.0
H669 H 0.87092 0.18919 0.78731 0.0
H670 H 0.83946 0.18061 0.76247 0.0
H671 H 0.83601 0.26588 0.74899 0.0
H672 H 0.87532 0.22978 0.7003 0.0
H673 H 0.86132 0.25158 0.68663 0.0
H674 H 0.88115 0.25861 0.70876 0.0
H675 H 0.85606 0.28018 0.73144 0.0
H676 H 0.82725 0.27486 0.7225 0.0
C677 C 0.79323 0.17722 0.75539 0.0
C678 C 0.81923 0.15526 0.72812 0.0
C679 C 0.78955 0.26428 0.64662 0.0
C680 C 0.80161 0.2849 0.645 0.0
C681 C 0.81912 0.29003 0.66042 0.0
C682 C 0.82477 0.27468 0.67712 0.0
C683 C 0.81252 0.25409 0.67864 0.0
C684 C 0.79508 0.24932 0.66368 0.0
C685 C 0.783 0.22733 0.6687 0.0
C686 C 0.79628 0.21952 0.6889 0.0
C687 C 0.81371 0.23512 0.69449 0.0
C688 C 0.75826 0.2325 0.67478 0.0
C689 C 0.78561 0.21125 0.64814 0.0
C690 C 0.87561 0.23526 0.75385 0.0
C691 C 0.88097 0.22053 0.77131 0.0
C692 C 0.86752 0.20072 0.77386 0.0
C693 C 0.84909 0.19584 0.7595 0.0
C694 C 0.84386 0.21092 0.74236 0.0
C695 C 0.85708 0.23024 0.73979 0.0
C696 C 0.8488 0.24469 0.72108 0.0
C697 C 0.82862 0.23072 0.71257 0.0
C698 C 0.82575 0.21092 0.72507 0.0
C699 C 0.84177 0.2677 0.73134 0.0
C700 C 0.86758 0.24648 0.70321 0.0
H701 H 0.75369 0.18738 0.67202 0.0
H702 H 0.77124 0.1348 0.73333 0.0
H703 H 0.81934 0.14835 0.71063 0.0
H704 H 0.83648 0.16212 0.73105 0.0
H705 H 0.81606 0.14091 0.73955 0.0
H706 H 0.77642 0.18509 0.75578 0.0
H707 H 0.79182 0.16103 0.76447 0.0
H708 H 0.80447 0.18903 0.76497 0.0
H709 H 0.77575 0.26015 0.63516 0.0
H710 H 0.82853 0.3059 0.65943 0.0
H711 H 0.83837 0.27949 0.68827 0.0
H712 H 0.75702 0.24949 0.68289 0.0
H713 H 0.74733 0.2322 0.65958 0.0
H714 H 0.75105 0.22077 0.68723 0.0
H715 H 0.80283 0.213 0.64097 0.0
H716 H 0.78364 0.19325 0.65238 0.0
H717 H 0.77337 0.21515 0.63467 0.0
H718 H 0.73015 0.15424 0.67702 0.0
C719 C 0.75803 0.17645 0.68545 0.0
C720 C 0.54181 0.60541 0.49358 0.0
C721 C 0.52584 0.62223 0.49767 0.0
C722 C 0.51259 0.62069 0.51726 0.0
C723 C 0.5307 0.58607 0.52767 0.0
C724 C 0.54402 0.58768 0.50877 0.0
C725 C 0.56046 0.56874 0.50714 0.0
H726 H 0.60553 0.47604 0.55328 0.0
C727 C 0.53697 0.56551 0.53986 0.0
C728 C 0.55454 0.55533 0.52796 0.0
H729 H 0.62409 0.50801 0.49093 0.0
H730 H 0.59521 0.53522 0.49647 0.0
H731 H 0.59482 0.5217 0.58323 0.0
H732 H 0.55462 0.47521 0.5427 0.0
H733 H 0.53644 0.48546 0.56342 0.0
H734 H 0.56069 0.46962 0.57155 0.0
H735 H 0.58998 0.4924 0.58943 0.0
H736 H 0.57049 0.51341 0.59829 0.0
C737 C 0.58459 0.57925 0.50853 0.0
C738 C 0.55537 0.55499 0.48526 0.0
C739 C 0.49424 0.54277 0.61043 0.0
C740 C 0.49471 0.52356 0.62417 0.0
C741 C 0.5107 0.50693 0.61916 0.0
C742 C 0.52584 0.50943 0.6013 0.0
C743 C 0.52493 0.52856 0.58776 0.0
C744 C 0.50913 0.5447 0.59225 0.0
C745 C 0.50967 0.56317 0.57515 0.0
C746 C 0.52839 0.55542 0.5597 0.0
C747 C 0.53751 0.53531 0.5674 0.0
C748 C 0.516 0.58574 0.58741 0.0
C749 C 0.48651 0.56294 0.563 0.0
C750 C 0.60343 0.48872 0.54065 0.0
C751 C 0.61772 0.48981 0.52179 0.0
C752 C 0.61404 0.50692 0.506 0.0
C753 C 0.59702 0.52271 0.50912 0.0
C754 C 0.58315 0.52144 0.52814 0.0
C755 C 0.58626 0.50441 0.54331 0.0
C756 C 0.56904 0.50473 0.5618 0.0
C757 C 0.55572 0.52536 0.55576 0.0
C758 C 0.56411 0.5352 0.53607 0.0
C759 C 0.58161 0.50812 0.58449 0.0
C760 C 0.55447 0.48262 0.56 0.0
H761 H 0.50427 0.60271 0.54668 0.0
H762 H 0.55225 0.60581 0.47873 0.0
H763 H 0.53693 0.55394 0.48183 0.0
H764 H 0.56056 0.53727 0.48622 0.0
H765 H 0.56362 0.56297 0.47058 0.0
H766 H 0.58543 0.59348 0.52098 0.0
H767 H 0.58992 0.58598 0.49203 0.0
H768 H 0.59723 0.5673 0.51432 0.0
H769 H 0.48253 0.55614 0.61359 0.0
H770 H 0.51133 0.49159 0.6287 0.0
H771 H 0.53754 0.49619 0.59857 0.0
H772 H 0.52837 0.58304 0.60114 0.0
H773 H 0.50094 0.59347 0.59505 0.0
H774 H 0.52437 0.59811 0.57634 0.0
H775 H 0.47985 0.54533 0.56049 0.0
H776 H 0.48736 0.56992 0.54596 0.0
H777 H 0.47392 0.57233 0.57295 0.0
H778 H 0.50055 0.63354 0.52131 0.0
C779 C 0.51488 0.60279 0.53215 0.0
C780 C 0.54294 0.41721 0.03232 0.0
C781 C 0.52718 0.39947 0.02802 0.0
C782 C 0.51261 0.40117 0.0093 0.0
C783 C 0.53028 0.43719 0.99944 0.0
C784 C 0.54439 0.43551 0.01781 0.0
C785 C 0.56137 0.45469 0.01952 0.0
H786 H 0.61039 0.54828 0.97619 0.0
C787 C 0.53683 0.45819 0.9875 0.0
C788 C 0.55518 0.46831 0.99917 0.0
H789 H 0.62754 0.51368 0.037 0.0
H790 H 0.59661 0.48723 0.03092 0.0
H791 H 0.55713 0.54699 0.98595 0.0
H792 H 0.5972 0.50301 0.94481 0.0
H793 H 0.57299 0.51052 0.92967 0.0
H794 H 0.59308 0.53218 0.93856 0.0
H795 H 0.56721 0.55533 0.95889 0.0
H796 H 0.54111 0.53937 0.96202 0.0
C797 C 0.55721 0.46788 0.04179 0.0
C798 C 0.58519 0.44468 0.01738 0.0
C799 C 0.4935 0.48167 0.91796 0.0
C800 C 0.49569 0.50006 0.90332 0.0
C801 C 0.51308 0.51633 0.90752 0.0
C802 C 0.52806 0.5142 0.92569 0.0
C803 C 0.52571 0.49564 0.93999 0.0
C804 C 0.50856 0.47981 0.93605 0.0
C805 C 0.5086 0.46115 0.95293 0.0
C806 C 0.52831 0.46858 0.96792 0.0
C807 C 0.53843 0.48875 0.96016 0.0
C808 C 0.48599 0.46133 0.96574 0.0
C809 C 0.5131 0.43865 0.9403 0.0
C810 C 0.60747 0.53484 0.98802 0.0
C811 C 0.62151 0.53289 0.00703 0.0
C812 C 0.61694 0.51554 0.02232 0.0
C813 C 0.59899 0.50013 0.01868 0.0
C814 C 0.58523 0.50204 0.99957 0.0
C815 C 0.58929 0.51938 0.98477 0.0
C816 C 0.57196 0.51931 0.9661 0.0
C817 C 0.55744 0.4986 0.97175 0.0
C818 C 0.56551 0.48853 0.99127 0.0
C819 C 0.55867 0.54141 0.96809 0.0
C820 C 0.58432 0.51623 0.94348 0.0
H821 H 0.50257 0.42011 0.98108 0.0
H822 H 0.55417 0.41692 0.04668 0.0
H823 H 0.58496 0.42985 0.00563 0.0
H824 H 0.59774 0.45654 0.01022 0.0
H825 H 0.59143 0.43893 0.03388 0.0
H826 H 0.53904 0.46735 0.04628 0.0
H827 H 0.56667 0.4606 0.05596 0.0
H828 H 0.56162 0.48608 0.04069 0.0
H829 H 0.48024 0.46895 0.91547 0.0
H830 H 0.51542 0.5305 0.89645 0.0
H831 H 0.54104 0.52702 0.92778 0.0
H832 H 0.48129 0.47895 0.96999 0.0
H833 H 0.47217 0.45351 0.95536 0.0
H834 H 0.48669 0.45258 0.98191 0.0
H835 H 0.5248 0.44142 0.926 0.0
H836 H 0.52151 0.42627 0.95091 0.0
H837 H 0.49724 0.43091 0.93338 0.0
H838 H 0.50043 0.38777 0.00528 0.0
C839 C 0.51402 0.41992 0.99509 0.0
C840 C 0.76172 0.14837 0.31001 0.0
C841 C 0.76095 0.13124 0.29335 0.0
C842 C 0.74431 0.13184 0.27641 0.0
C843 C 0.72949 0.16613 0.29287 0.0
C844 C 0.74571 0.16542 0.30961 0.0
C845 C 0.74317 0.18407 0.32685 0.0
H846 H 0.68809 0.27642 0.36363 0.0
C847 C 0.71511 0.18574 0.29757 0.0
C848 C 0.72292 0.19616 0.31764 0.0
H849 H 0.74412 0.2438 0.39515 0.0
H850 H 0.74456 0.21609 0.3651 0.0
H851 H 0.66067 0.23164 0.35215 0.0
H852 H 0.70621 0.27174 0.31237 0.0
H853 H 0.68266 0.26434 0.29552 0.0
H854 H 0.6789 0.28093 0.3208 0.0
H855 H 0.6521 0.25721 0.3393 0.0
H856 H 0.64999 0.23027 0.32463 0.0
C857 C 0.73811 0.17319 0.34984 0.0
C858 C 0.76481 0.19922 0.32654 0.0
C859 C 0.65185 0.20514 0.24334 0.0
C860 C 0.63515 0.22158 0.24412 0.0
C861 C 0.63477 0.23685 0.26251 0.0
C862 C 0.65079 0.23593 0.2798 0.0
C863 C 0.66733 0.21938 0.27892 0.0
C864 C 0.66757 0.20419 0.26102 0.0
C865 C 0.68564 0.18699 0.2637 0.0
C866 C 0.6965 0.19474 0.28584 0.0
C867 C 0.68575 0.21381 0.29456 0.0
C868 C 0.67409 0.16331 0.26541 0.0
C869 C 0.70216 0.18935 0.24382 0.0
C870 C 0.70033 0.2632 0.36422 0.0
C871 C 0.71619 0.26254 0.38185 0.0
C872 C 0.73196 0.24508 0.38165 0.0
C873 C 0.7321 0.22884 0.36422 0.0
C874 C 0.71623 0.22984 0.34671 0.0
C875 C 0.70064 0.24676 0.34697 0.0
C876 C 0.68482 0.24498 0.32716 0.0
C877 C 0.69354 0.22426 0.31493 0.0
C878 C 0.712 0.21549 0.3264 0.0
C879 C 0.66057 0.24097 0.33609 0.0
C880 C 0.68807 0.26662 0.31318 0.0
H881 H 0.71654 0.14876 0.26261 0.0
H882 H 0.77412 0.14813 0.3234 0.0
H883 H 0.77058 0.20181 0.309 0.0
H884 H 0.76228 0.21634 0.33351 0.0
H885 H 0.77871 0.19135 0.3359 0.0
H886 H 0.72844 0.15694 0.34765 0.0
H887 H 0.75391 0.1696 0.35902 0.0
H888 H 0.72735 0.18368 0.36067 0.0
H889 H 0.65228 0.19297 0.22957 0.0
H890 H 0.62208 0.24965 0.2634 0.0
H891 H 0.64959 0.24811 0.29325 0.0
H892 H 0.65701 0.16441 0.27291 0.0
H893 H 0.67212 0.15505 0.2486 0.0
H894 H 0.68325 0.15202 0.27665 0.0
H895 H 0.70624 0.20747 0.24072 0.0
H896 H 0.71847 0.18144 0.24692 0.0
H897 H 0.69466 0.18189 0.22816 0.0
H898 H 0.74347 0.11884 0.26338 0.0
C899 C 0.72871 0.14923 0.27599 0.0
C900 C 0.40523 1.00486 0.986 0.0
C901 C 0.39732 0.98781 0.971 0.0
C902 C 0.41095 0.9815 0.95272 0.0
C903 C 0.43944 0.00957 0.96395 0.0
C904 C 0.4262 0.01561 0.98204 0.0
C905 C 0.43655 0.03511 0.99538 0.0
H906 H 0.52137 0.11309 0.00975 0.0
C907 C 0.4599 0.02442 0.96415 0.0
C908 C 0.4583 0.03945 0.98256 0.0
H909 H 0.46029 0.10558 0.04841 0.0
H910 H 0.44873 0.0732 0.02559 0.0
H911 H 0.49746 0.10382 0.96105 0.0
H912 H 0.53232 0.06099 0.00656 0.0
H913 H 0.5391 0.05173 0.97932 0.0
H914 H 0.54723 0.08005 0.98847 0.0
H915 H 0.5271 0.10667 0.96694 0.0
H916 H 0.5164 0.08752 0.94542 0.0
C917 C 0.42049 0.05529 0.99406 0.0
C918 C 0.44115 0.02701 0.0195 0.0
C919 C 0.51913 0.01584 0.90297 0.0
C920 C 0.54033 0.02638 0.89956 0.0
C921 C 0.54821 0.04292 0.91522 0.0
C922 C 0.53512 0.04917 0.93373 0.0
C923 C 0.51388 0.03869 0.93683 0.0
C924 C 0.50637 0.02203 0.92182 0.0
C925 C 0.48388 0.01195 0.92854 0.0
C926 C 0.47897 0.02561 0.94977 0.0
C927 C 0.49648 0.04145 0.95435 0.0
C928 C 0.46671 0.01641 0.90957 0.0
C929 C 0.48707 0.98663 0.93351 0.0
C930 C 0.5056 0.10433 0.01339 0.0
C931 C 0.49168 0.11197 0.03086 0.0
C932 C 0.47117 0.10022 0.03488 0.0
C933 C 0.46452 0.08136 0.02164 0.0
C934 C 0.47841 0.07417 1.004 0.0
C935 C 0.49859 0.08559 1.00014 0.0
C936 C 0.51098 0.07581 0.98039 0.0
C937 C 0.49481 0.05679 0.97289 0.0
C938 C 0.47579 0.05586 0.98684 0.0
C939 C 0.51333 0.09433 0.96245 0.0
C940 C 0.53368 0.06677 0.98893 0.0
H941 H 0.44135 0.98669 0.93485 0.0
H942 H 0.39496 0.01028 0.99998 0.0
H943 H 0.44787 0.00964 0.01913 0.0
H944 H 0.45402 0.0375 0.02851 0.0
H945 H 0.42543 0.0266 0.02955 0.0
H946 H 0.41103 0.05501 0.97787 0.0
H947 H 0.40794 0.05484 0.00782 0.0
H948 H 0.42953 0.07183 0.99447 0.0
H949 H 0.51278 1.00286 0.89137 0.0
H950 H 0.56443 0.05136 0.91289 0.0
H951 H 0.54201 0.06203 0.94487 0.0
H952 H 0.46965 0.03351 0.90253 0.0
H953 H 0.46821 1.00389 0.89559 0.0
H954 H 0.4491 0.01628 0.91544 0.0
H955 H 0.504 0.98386 0.9409 0.0
H956 H 0.4751 0.98006 0.9461 0.0
H957 H 0.48555 0.97612 0.91792 0.0
H958 H 0.40523 0.96834 0.94101 0.0
C959 C 0.43193 0.99218 0.94918 0.0
Mn960 Mn 0.25696 0.87524 0.00934 0.0
Mn961 Mn 0.25182 0.89453 0.95658 0.0
C962 C 0.24208 0.85206 0.98059 0.0
C963 C 0.27599 0.85669 0.03785 0.0
C964 C 0.22144 0.90893 0.99485 0.0
O965 O 0.27935 0.90234 0.00929 0.0
O966 O 0.27571 0.91227 0.97299 0.0
C967 C 0.29626 0.882 0.9385 0.0
N968 N 0.27334 0.88053 0.93743 0.0
C969 C 0.27447 0.85612 0.90472 0.0
C970 C 0.29808 0.85746 0.90543 0.0
C971 C 0.30901 0.87043 0.9224 0.0
C972 C 0.26265 0.8681 0.92115 0.0
H973 H 0.30475 0.89187 0.95156 0.0
C974 C 0.28506 0.91441 0.99243 0.0
O975 O 0.26016 0.87075 0.04224 0.0
O976 O 0.28164 0.85422 0.01692 0.0
N977 N 0.22954 0.87806 0.93911 0.0
C978 C 0.20673 0.8774 0.9416 0.0
C979 C 0.19331 0.86464 0.92631 0.0
C980 C 0.20345 0.85274 0.9086 0.0
C981 C 0.22695 0.85371 0.90635 0.0
C982 C 0.23945 0.86685 0.92199 0.0
H983 H 0.19884 0.88644 0.95522 0.0
O984 O 0.23694 0.84816 1.00135 0.0
O985 O 0.25493 0.86969 0.97745 0.0
O986 O 0.23017 0.89635 0.0095 0.0
O987 O 0.22845 0.90978 0.97463 0.0
C988 C 0.23848 0.84178 0.88947 0.0
C989 C 0.26223 0.84297 0.88867 0.0
H990 H 0.30798 0.84844 0.89313 0.0
H991 H 0.32722 0.87146 0.92311 0.0
H992 H 0.17519 0.86389 0.92823 0.0
H993 H 0.19306 0.84272 0.89699 0.0
H994 H 0.22927 0.83136 0.87724 0.0
H995 H 0.27091 0.83345 0.87582 0.0
Mn996 Mn 0.14865 0.50087 0.25572 0.0
Mn997 Mn 0.12711 0.55301 0.25242 0.0
C998 C 0.16994 0.53055 0.24086 0.0
C999 C 0.16856 0.47266 0.27371 0.0
C1000 C 0.11309 0.51422 0.22106 0.0
O1001 O 0.1226 0.49971 0.27842 0.0
O1002 O 0.1112 0.53563 0.27595 0.0
C1003 C 0.14128 0.57143 0.29699 0.0
N1004 N 0.14136 0.57281 0.27418 0.0
C1005 C 0.16362 0.60736 0.27588 0.0
C1006 C 0.16368 0.60635 0.29939 0.0
C1007 C 0.1525 0.58829 0.30998 0.0
C1008 C 0.15211 0.5901 0.26382 0.0
H1009 H 0.13272 0.55757 0.30521 0.0
C1010 C 0.11009 0.51598 0.28465 0.0
O1011 O 0.15369 0.46791 0.25823 0.0
O1012 O 0.17128 0.49381 0.27954 0.0
N1013 N 0.14148 0.57163 0.23046 0.0
C1014 C 0.14082 0.56947 0.20764 0.0
C1015 C 0.15167 0.5859 0.1945 0.0
C1016 C 0.16296 0.60443 0.20494 0.0
C1017 C 0.16329 0.60636 0.22845 0.0
C1018 C 0.15207 0.58954 0.24066 0.0
H1019 H 0.13215 0.55529 0.19951 0.0
O1020 O 0.17435 0.50981 0.23546 0.0
O1021 O 0.15306 0.53321 0.2543 0.0
O1022 O 0.12661 0.50007 0.22912 0.0
O1023 O 0.11137 0.5343 0.22889 0.0
C1024 C 0.17466 0.6241 0.24024 0.0
C1025 C 0.17486 0.62458 0.26394 0.0
H1026 H 0.1724 0.61927 0.30947 0.0
H1027 H 0.15255 0.58735 0.32812 0.0
H1028 H 0.1514 0.58425 0.17637 0.0
H1029 H 0.1715 0.61695 0.19476 0.0
H1030 H 0.18359 0.63728 0.23124 0.0
H1031 H 0.18393 0.63813 0.27281 0.0
Mn1032 Mn 0.76287 0.63775 0.00859 0.0
Mn1033 Mn 0.71494 0.65353 0.98282 0.0
C1034 C 0.7305 0.61466 0.00953 0.0
C1035 C 0.79787 0.62024 0.00902 0.0
C1036 C 0.73214 0.67447 0.02674 0.0
O1037 O 0.774 0.66247 0.98697 0.0
O1038 O 0.74132 0.66859 0.96887 0.0
C1039 C 0.72189 0.63257 0.93797 0.0
N1040 N 0.70904 0.63512 0.95668 0.0
C1041 C 0.67979 0.61053 0.9412 0.0
C1042 C 0.69265 0.60774 0.9217 0.0
C1043 C 0.71383 0.61874 0.92013 0.0
C1044 C 0.68873 0.62447 0.95845 0.0
H1045 H 0.73815 0.64104 0.93669 0.0
C1046 C 0.76258 0.67188 0.97155 0.0
O1047 O 0.79309 0.63636 0.02305 0.0
O1048 O 0.78255 0.61461 0.99414 0.0
N1049 N 0.68796 0.64 0.9946 0.0
C1050 C 0.67812 0.64367 0.01492 0.0
C1051 C 0.65701 0.63352 0.0194 0.0
C1052 C 0.64611 0.61994 1.00286 0.0
C1053 C 0.65645 0.6166 0.98199 0.0
C1054 C 0.67747 0.62721 0.97847 0.0
H1055 H 0.68632 0.65424 0.02763 0.0
O1056 O 0.7462 0.61271 0.02457 0.0
O1057 O 0.73418 0.62994 0.99457 0.0
O1058 O 0.74874 0.66153 0.02916 0.0
O1059 O 0.71903 0.6735 0.00967 0.0
C1060 C 0.6469 0.60288 0.96468 0.0
C1061 C 0.65861 0.59977 0.94433 0.0
H1062 H 0.68651 0.59706 0.90792 0.0
H1063 H 0.7239 0.61659 0.90517 0.0
H1064 H 0.64915 0.63615 0.03556 0.0
H1065 H 0.62992 0.61199 0.00645 0.0
H1066 H 0.63074 0.59434 0.96697 0.0
H1067 H 0.65126 0.58889 0.93128 0.0
Mn1068 Mn 0.87952 0.01434 0.26275 0.0
Mn1069 Mn 0.89657 0.96042 0.25952 0.0
C1070 C 0.85661 0.98604 0.24628 0.0
C1071 C 0.86027 0.04422 0.27949 0.0
C1072 C 0.91529 0.99739 0.22973 0.0
O1073 O 0.90415 0.01376 0.28717 0.0
O1074 O 0.91335 0.97707 0.28392 0.0
C1075 C 0.87983 0.94444 0.30341 0.0
N1076 N 0.88008 0.94253 0.28058 0.0
C1077 C 0.85412 0.91064 0.28111 0.0
C1078 C 0.85369 0.9122 0.30463 0.0
C1079 C 0.86658 0.9292 0.31581 0.0
C1080 C 0.86774 0.92623 0.26965 0.0
H1081 H 0.88962 0.95753 0.3121 0.0
C1082 C 0.91535 0.99668 0.29339 0.0
O1083 O 0.87659 0.04773 0.26549 0.0
O1084 O 0.85602 0.02341 0.28491 0.0
N1085 N 0.88102 0.94262 0.23686 0.0
C1086 C 0.88221 0.94427 0.2141 0.0
C1087 C 0.86977 0.92889 0.20041 0.0
C1088 C 0.85629 0.91196 0.21025 0.0
C1089 C 0.85539 0.91055 0.23371 0.0
C1090 C 0.86829 0.92623 0.2465 0.0
H1091 H 0.89245 0.95731 0.20643 0.0
O1092 O 0.85443 0.00694 0.24061 0.0
O1093 O 0.87258 0.98244 0.26057 0.0
O1094 O 0.9033 0.01299 0.23796 0.0
O1095 O 0.91426 0.9771 0.23664 0.0
C1096 C 0.84183 0.89449 0.2449 0.0
C1097 C 0.84118 0.89454 0.26859 0.0
H1098 H 0.84338 0.90057 0.31426 0.0
H1099 H 0.86625 0.93058 0.33396 0.0
H1100 H 0.87047 0.93016 0.18232 0.0
H1101 H 0.84653 0.90028 0.19964 0.0
H1102 H 0.83156 0.88224 0.23546 0.0
H1103 H 0.83044 0.88232 0.27699 0.0
Mn1104 Mn 0.25907 0.12996 0.51173 0.0
Mn1105 Mn 0.20796 0.14655 0.49385 0.0
C1106 C 0.22661 0.10849 0.5195 0.0
C1107 C 0.2924 0.10974 0.50716 0.0
C1108 C 0.23346 0.16909 0.53289 0.0
O1109 O 0.26707 0.15298 0.48706 0.0
O1110 O 0.23186 0.1595 0.47466 0.0
C1111 C 0.20576 0.12303 0.44956 0.0
N1112 N 0.19667 0.12721 0.47012 0.0
C1113 C 0.16375 0.10421 0.46108 0.0
C1114 C 0.17265 0.09984 0.43971 0.0
C1115 C 0.19381 0.10917 0.43399 0.0
C1116 C 0.17649 0.11804 0.47592 0.0
H1117 H 0.222 0.13021 0.4451 0.0
C1118 C 0.25331 0.16198 0.47334 0.0
O1119 O 0.29132 0.12698 0.52081 0.0
O1120 O 0.27449 0.10495 0.49523 0.0
N1121 N 0.18321 0.1349 0.51099 0.0
C1122 C 0.17773 0.13959 0.53274 0.0
C1123 C 0.15756 0.1306 0.54151 0.0
C1124 C 0.14312 0.11714 0.52777 0.0
C1125 C 0.14901 0.11275 0.50537 0.0
C1126 C 0.16934 0.12214 0.49757 0.0
H1127 H 0.18868 0.15006 0.54332 0.0
O1128 O 0.24458 0.10667 0.53176 0.0
O1129 O 0.22812 0.12279 0.50333 0.0
O1130 O 0.24982 0.15558 0.53325 0.0
O1131 O 0.21754 0.16766 0.51842 0.0
C1132 C 0.13566 0.09919 0.49056 0.0
C1133 C 0.14299 0.09497 0.46841 0.0
H1134 H 0.1635 0.08912 0.42768 0.0
H1135 H 0.20086 0.10573 0.41759 0.0
H1136 H 0.15313 0.13406 0.55882 0.0
H1137 H 0.12763 0.11017 0.53462 0.0
H1138 H 0.11988 0.09164 0.49613 0.0
H1139 H 0.13277 0.08419 0.45731 0.0
Mn1140 Mn 0.38252 0.50689 0.76241 0.0
Mn1141 Mn 0.39731 0.45228 0.75752 0.0
C1142 C 0.3594 0.48053 0.74317 0.0
C1143 C 0.36384 0.53673 0.78002 0.0
C1144 C 0.41918 0.48992 0.73068 0.0
O1145 O 0.40627 0.50408 0.78773 0.0
O1146 O 0.41283 0.46688 0.78368 0.0
C1147 C 0.37674 0.4345 0.79905 0.0
N1148 N 0.37875 0.43378 0.77628 0.0
C1149 C 0.35295 0.40184 0.77325 0.0
C1150 C 0.35068 0.40218 0.79668 0.0
C1151 C 0.36257 0.41863 0.80962 0.0
C1152 C 0.3673 0.41809 0.76366 0.0
H1153 H 0.38588 0.4471 0.80907 0.0
C1154 C 0.41586 0.48598 0.79387 0.0
O1155 O 0.38082 0.54028 0.76681 0.0
O1156 O 0.35857 0.51581 0.78418 0.0
N1157 N 0.38303 0.43624 0.73291 0.0
C1158 C 0.38602 0.4391 0.71045 0.0
C1159 C 0.37463 0.42452 0.69511 0.0
C1160 C 0.36042 0.40709 0.70301 0.0
C1161 C 0.35774 0.40439 0.7262 0.0
C1162 C 0.36959 0.41937 0.74068 0.0
H1163 H 0.39694 0.45245 0.70429 0.0
O1164 O 0.35821 0.50188 0.73892 0.0
O1165 O 0.37424 0.47532 0.75813 0.0
O1166 O 0.40701 0.50571 0.73823 0.0
O1167 O 0.41735 0.46953 0.73717 0.0
C1168 C 0.34349 0.38764 0.73549 0.0
C1169 C 0.34113 0.38634 0.75901 0.0
H1170 H 0.33968 0.39003 0.80489 0.0
H1171 H 0.36082 0.41907 0.82771 0.0
H1172 H 0.37675 0.42675 0.67724 0.0
H1173 H 0.35154 0.39599 0.69112 0.0
H1174 H 0.33402 0.37589 0.72471 0.0
H1175 H 0.32985 0.37363 0.76594 0.0
Mn1176 Mn 0.755 0.37754 0.50817 0.0
Mn1177 Mn 0.75715 0.39825 0.45574 0.0
C1178 C 0.74058 0.35638 0.47786 0.0
C1179 C 0.77093 0.35685 0.53715 0.0
C1180 C 0.72513 0.41521 0.49164 0.0
O1181 O 0.77939 0.40272 0.51059 0.0
O1182 O 0.78169 0.41273 0.47409 0.0
C1183 C 0.80067 0.38035 0.44043 0.0
N1184 N 0.77796 0.38184 0.43778 0.0
C1185 C 0.77836 0.35798 0.40465 0.0
C1186 C 0.80177 0.35629 0.40697 0.0
C1187 C 0.81295 0.3675 0.42496 0.0
C1188 C 0.76703 0.37116 0.42051 0.0
H1189 H 0.80932 0.38886 0.45428 0.0
C1190 C 0.78834 0.41396 0.4946 0.0
O1191 O 0.75596 0.37196 0.54122 0.0
O1192 O 0.7772 0.35439 0.51644 0.0
N1193 N 0.73432 0.38493 0.4365 0.0
C1194 C 0.71154 0.38691 0.43761 0.0
C1195 C 0.69777 0.37597 0.42132 0.0
C1196 C 0.70755 0.36315 0.40404 0.0
C1197 C 0.73103 0.36138 0.40321 0.0
C1198 C 0.74391 0.37279 0.41982 0.0
H1199 H 0.70392 0.39666 0.4509 0.0
O1200 O 0.73353 0.35239 0.49806 0.0
O1201 O 0.75521 0.37286 0.47621 0.0
O1202 O 0.72997 0.40086 0.50654 0.0
O1203 O 0.7349 0.41616 0.4726 0.0
C1204 C 0.74212 0.34832 0.38687 0.0
C1205 C 0.76577 0.34663 0.38758 0.0
H1206 H 0.81129 0.34624 0.39518 0.0
H1207 H 0.831 0.36617 0.42693 0.0
H1208 H 0.67965 0.37732 0.42214 0.0
H1209 H 0.69685 0.35453 0.39165 0.0
H1210 H 0.73258 0.33921 0.3739 0.0
H1211 H 0.77406 0.33625 0.37514 0.0
Mn1212 Mn 0.64227 0.01117 0.75297 0.0
Mn1213 Mn 0.62065 0.06341 0.7544 0.0
C1214 C 0.66305 0.04194 0.73989 0.0
C1215 C 0.66332 0.98224 0.76822 0.0
C1216 C 0.60629 0.02751 0.71995 0.0
O1217 O 0.61709 0.00794 0.77617 0.0
O1218 O 0.60409 0.04349 0.77567 0.0
C1219 C 0.63413 0.07671 0.80082 0.0
N1220 N 0.63451 0.08069 0.77836 0.0
C1221 C 0.6571 0.11465 0.78414 0.0
C1222 C 0.65682 0.11099 0.80734 0.0
C1223 C 0.64532 0.09191 0.8157 0.0
C1224 C 0.64556 0.09898 0.77013 0.0
H1225 H 0.6254 0.06202 0.80733 0.0
C1226 C 0.60374 0.02323 0.78292 0.0
O1227 O 0.64832 0.97821 0.75265 0.0
O1228 O 0.66536 1.0029 0.77573 0.0
N1229 N 0.63532 0.08444 0.73487 0.0
C1230 C 0.63502 0.08485 0.71199 0.0
C1231 C 0.64629 0.10255 0.70092 0.0
C1232 C 0.65761 0.11968 0.71346 0.0
C1233 C 0.65752 0.11901 0.73698 0.0
C1234 C 0.64586 0.10105 0.7471 0.0
H1235 H 0.62643 0.07168 0.70226 0.0
O1236 O 0.66714 0.02168 0.73264 0.0
O1237 O 0.64665 0.04363 0.75413 0.0
O1238 O 0.61905 0.0122 0.72722 0.0
O1239 O 0.60568 0.04726 0.72884 0.0
C1240 C 0.66892 0.13519 0.75078 0.0
C1241 C 0.66874 0.133 0.77433 0.0
H1242 H 0.66553 0.1226 0.81887 0.0
H1243 H 0.64513 0.0889 0.83358 0.0
H1244 H 0.64635 0.1029 0.68275 0.0
H1245 H 0.66652 0.13315 0.70485 0.0
H1246 H 0.67818 0.1492 0.74343 0.0
H1247 H 0.67784 0.14538 0.78474 0.0
Mn1248 Mn 0.01035 0.25217 0.88123 0.0
Mn1249 Mn 0.95729 0.2469 0.90125 0.0
C1250 C 0.98228 0.23324 0.86027 0.0
C1251 C 0.03907 0.27007 0.86076 0.0
C1252 C 0.99582 0.21901 0.91801 0.0
O1253 O 0.00968 0.27734 0.90541 0.0
O1254 O 0.97378 0.27232 0.91689 0.0
C1255 C 0.93937 0.29006 0.88541 0.0
N1256 N 0.93807 0.26709 0.88601 0.0
C1257 C 0.90414 0.26601 0.86368 0.0
C1258 C 0.90506 0.28966 0.86291 0.0
C1259 C 0.9228 0.30172 0.87376 0.0
C1260 C 0.92114 0.25531 0.87552 0.0
H1261 H 0.95293 0.29942 0.89375 0.0
C1262 C 0.99295 0.28285 0.91767 0.0
O1263 O 0.04341 0.25646 0.87693 0.0
O1264 O 0.01801 0.2742 0.85707 0.0
N1265 N 0.93939 0.22323 0.88722 0.0
C1266 C 0.94166 0.20045 0.88847 0.0
C1267 C 0.92574 0.18593 0.87776 0.0
C1268 C 0.90755 0.19496 0.86606 0.0
C1269 C 0.90545 0.21845 0.86518 0.0
C1270 C 0.9218 0.23208 0.87621 0.0
H1271 H 0.9556 0.19342 0.89744 0.0
O1272 O 1.00333 0.22877 0.85712 0.0
O1273 O 0.97829 0.24816 0.87588 0.0
O1274 O 0.01073 0.22792 0.90539 0.0
O1275 O 0.97529 0.22489 0.91787 0.0
C1276 C 0.88795 0.22886 0.8535 0.0
C1277 C 0.88726 0.25263 0.8528 0.0
H1278 H 0.89236 0.29872 0.85388 0.0
H1279 H 0.92368 0.31998 0.87316 0.0
H1280 H 0.9275 0.16782 0.87849 0.0
H1281 H 0.89539 0.18371 0.85769 0.0
H1282 H 0.87511 0.21875 0.84472 0.0
H1283 H 0.87392 0.26043 0.84347 0.0
Mn1284 Mn 0.51079 0.75268 0.3798 0.0
Mn1285 Mn 0.45654 0.7548 0.39687 0.0
C1286 C 0.4821 0.7356 0.35824 0.0
C1287 C 0.54245 0.76625 0.36025 0.0
C1288 C 0.49056 0.72353 0.41728 0.0
O1289 O 0.51175 0.77883 0.40294 0.0
O1290 O 0.47475 0.77954 0.41175 0.0
C1291 C 0.44433 0.79828 0.37685 0.0
N1292 N 0.44042 0.77569 0.37916 0.0
C1293 C 0.40749 0.77654 0.35548 0.0
C1294 C 0.4111 0.79984 0.35295 0.0
C1295 C 0.42966 0.81073 0.36361 0.0
C1296 C 0.42272 0.76501 0.36883 0.0
H1297 H 0.45852 0.80672 0.38506 0.0
C1298 C 0.49507 0.78726 0.41341 0.0
O1299 O 0.54416 0.75276 0.37704 0.0
O1300 O 0.52234 0.77292 0.35544 0.0
N1301 N 0.43685 0.73211 0.38361 0.0
C1302 C 0.43646 0.70936 0.38672 0.0
C1303 C 0.41941 0.69584 0.37648 0.0
C1304 C 0.4028 0.70585 0.36337 0.0
C1305 C 0.40337 0.72932 0.36065 0.0
C1306 C 0.42076 0.74194 0.37128 0.0
H1307 H 0.44915 0.70156 0.39681 0.0
O1308 O 0.5027 0.72901 0.35642 0.0
O1309 O 0.47881 0.7519 0.37267 0.0
O1310 O 0.50699 0.72946 0.40481 0.0
O1311 O 0.47118 0.73229 0.41594 0.0
C1312 C 0.38757 0.74065 0.34753 0.0
C1313 C 0.38961 0.76425 0.34497 0.0
H1314 H 0.39985 0.8095 0.34272 0.0
H1315 H 0.43261 0.8287 0.36166 0.0
H1316 H 0.41909 0.67774 0.37866 0.0
H1317 H 0.38976 0.69535 0.35538 0.0
H1318 H 0.37398 0.73133 0.33904 0.0
H1319 H 0.37757 0.77271 0.33454 0.0
Mn1320 Mn 0.0104 0.75098 0.63103 0.0
Mn1321 Mn 0.99112 0.69954 0.64715 0.0
C1322 C 0.01457 0.71941 0.60768 0.0
C1323 C 0.00565 0.78545 0.61302 0.0
C1324 C 0.03344 0.72251 0.66641 0.0
O1325 O 0.98849 0.7587 0.65676 0.0
O1326 O 0.97492 0.72351 0.6633 0.0
C1327 C 0.94467 0.70045 0.62898 0.0
N1328 N 0.96497 0.69035 0.6302 0.0
C1329 C 0.95163 0.6591 0.60696 0.0
C1330 C 0.93055 0.66912 0.6055 0.0
C1331 C 0.9271 0.68995 0.61646 0.0
C1332 C 0.96855 0.67046 0.61949 0.0
H1333 H 0.94193 0.71635 0.63756 0.0
C1334 C 0.97522 0.74489 0.66696 0.0
O1335 O 0.02111 0.78302 0.6282 0.0
O1336 O 0.99221 0.76819 0.60904 0.0
N1337 N 0.0054 0.67466 0.63268 0.0
C1338 C 0.02702 0.66782 0.63491 0.0
C1339 C 0.0335 0.64765 0.6243 0.0
C1340 C 0.01763 0.63459 0.61182 0.0
C1341 C 0.9954 0.64183 0.61002 0.0
C1342 C 0.98995 0.6621 0.62088 0.0
H1343 H 0.03922 0.67768 0.64467 0.0
O1344 O 0.02749 0.73719 0.60532 0.0
O1345 O 0.99969 0.72063 0.6235 0.0
O1346 O 0.03359 0.73967 0.65376 0.0
O1347 O 0.01809 0.70703 0.66567 0.0
C1348 C 0.9785 0.62984 0.59769 0.0
C1349 C 0.95662 0.63845 0.5962 0.0
H1350 H 0.91695 0.66107 0.59588 0.0
H1351 H 0.9109 0.69782 0.61535 0.0
H1352 H 0.05067 0.64216 0.62579 0.0
H1353 H 0.0227 0.61908 0.60361 0.0
H1354 H 0.98223 0.61415 0.58904 0.0
H1355 H 0.94387 0.62926 0.58639 0.0
Mn1356 Mn 0.50713 0.25829 0.12638 0.0
Mn1357 Mn 0.48066 0.21332 0.14961 0.0
C1358 C 0.50478 0.22399 0.10693 0.0
C1359 C 0.50589 0.29116 0.10511 0.0
C1360 C 0.52686 0.23132 0.16464 0.0
O1361 O 0.48857 0.27232 0.15179 0.0
O1362 O 0.46861 0.24145 0.16294 0.0
C1363 C 0.43449 0.21891 0.13201 0.0
N1364 N 0.45306 0.2061 0.13417 0.0
C1365 C 0.43534 0.17525 0.11334 0.0
C1366 C 0.41596 0.18807 0.111 0.0
C1367 C 0.41557 0.21001 0.12033 0.0
C1368 C 0.45365 0.185 0.12521 0.0
H1369 H 0.43415 0.2358 0.13913 0.0
C1370 C 0.47328 0.26269 0.1636 0.0
O1371 O 0.52205 0.28792 0.11936 0.0
O1372 O 0.49018 0.27555 0.10355 0.0
N1373 N 0.49075 0.18501 0.13799 0.0
C1374 C 0.51121 0.17545 0.14055 0.0
C1375 C 0.51467 0.15375 0.13154 0.0
C1376 C 0.49704 0.14205 0.12016 0.0
C1377 C 0.47608 0.15217 0.11789 0.0
C1378 C 0.47358 0.17378 0.12732 0.0
H1379 H 0.52481 0.18434 0.14931 0.0
O1380 O 0.52007 0.23904 0.10174 0.0
O1381 O 0.4914 0.22955 0.12318 0.0
O1382 O 0.52949 0.24598 0.14935 0.0
O1383 O 0.50899 0.21905 0.16665 0.0
C1384 C 0.45772 0.14185 0.10625 0.0
C1385 C 0.43737 0.1534 0.10394 0.0
H1386 H 0.40137 0.18131 0.10191 0.0
H1387 H 0.40072 0.22004 0.11849 0.0
H1388 H 0.53091 0.14608 0.1333 0.0
H1389 H 0.49985 0.12541 0.11304 0.0
H1390 H 0.4592 0.1252 0.09867 0.0
H1391 H 0.4235 0.14544 0.09464 0.0
H1392 H 0.25666 0.77832 0.90516 0.0
H1393 H 0.18423 0.77245 0.90898 0.0
H1394 H 0.18421 0.80103 0.93917 0.0
H1395 H 0.20501 0.82825 0.96446 0.0
H1396 H 0.2773 0.83409 0.95948 0.0
H1397 H 0.27723 0.80454 0.93042 0.0
C1398 C 0.24087 0.78301 0.9128 0.0
C1399 C 0.22051 0.77312 0.90484 0.0
C1400 C 0.24098 0.79939 0.93015 0.0
C1401 C 0.20017 0.77989 0.91462 0.0
C1402 C 0.20015 0.79613 0.93202 0.0
C1403 C 0.22066 0.82289 0.95701 0.0
C1404 C 0.24108 0.83355 0.96368 0.0
C1405 C 0.22046 0.80607 0.93992 0.0
C1406 C 0.26134 0.82636 0.95421 0.0
C1407 C 0.26132 0.80944 0.93765 0.0
H1408 H 0.05823 0.4983 0.37609 0.0
H1409 H 0.03376 0.56421 0.36072 0.0
H1410 H 0.05323 0.56337 0.32478 0.0
H1411 H 0.07909 0.54554 0.29914 0.0
H1412 H 0.10602 0.48049 0.31418 0.0
H1413 H 0.08344 0.47917 0.34858 0.0
C1414 C 0.05702 0.51229 0.36467 0.0
C1415 C 0.04473 0.53139 0.37106 0.0
C1416 C 0.06873 0.51189 0.34406 0.0
C1417 C 0.04331 0.54947 0.35623 0.0
C1418 C 0.05441 0.54898 0.33568 0.0
C1419 C 0.08002 0.5309 0.30975 0.0
C1420 C 0.09447 0.51322 0.30403 0.0
C1421 C 0.0675 0.53052 0.32964 0.0
C1422 C 0.09509 0.49437 0.31807 0.0
C1423 C 0.08226 0.49367 0.33784 0.0
H1424 H 0.81553 0.74743 0.9165 0.0
H1425 H 0.75443 0.7411 0.87713 0.0
H1426 H 0.74091 0.7103 0.90048 0.0
H1427 H 0.74513 0.68686 0.93284 0.0
H1428 H 0.80484 0.69297 0.97436 0.0
H1429 H 0.8204 0.72192 0.94926 0.0
C1430 C 0.79937 0.7391 0.91305 0.0
C1431 C 0.78584 0.74663 0.89529 0.0
C1432 C 0.79144 0.72149 0.92691 0.0
C1433 C 0.76495 0.73577 0.89089 0.0
C1434 C 0.75724 0.71814 0.90419 0.0
C1435 C 0.7616 0.69441 0.93656 0.0
C1436 C 0.77364 0.68786 0.95572 0.0
C1437 C 0.77013 0.71116 0.92242 0.0
C1438 C 0.79514 0.69768 0.95981 0.0
C1439 C 0.80399 0.71431 0.94549 0.0
H1440 H 0.97489 0.01829 0.38072 0.0
H1441 H 0.9828 0.94611 0.37594 0.0
H1442 H 0.95955 0.94436 0.34213 0.0
H1443 H 0.93693 0.96285 0.31412 0.0
H1444 H 0.92805 0.03492 0.31815 0.0
H1445 H 0.95198 0.03716 0.35184 0.0
C1446 C 0.97163 1.0022 0.37219 0.0
C1447 C 0.98052 0.98232 0.38108 0.0
C1448 C 0.95815 1.00128 0.35256 0.0
C1449 C 0.97591 0.96162 0.36984 0.0
C1450 C 0.96272 0.96061 0.35036 0.0
C1451 C 0.94024 0.97917 0.32216 0.0
C1452 C 0.93064 0.99872 0.31337 0.0
C1453 C 0.95373 0.98028 0.34161 0.0
C1454 C 0.93516 0.01958 0.32438 0.0
C1455 C 0.94884 0.02086 0.34371 0.0
H1456 H 0.22228 0.25662 0.59381 0.0
H1457 H 0.23675 0.2095 0.64587 0.0
H1458 H 0.24177 0.17945 0.61759 0.0
H1459 H 0.24127 0.1664 0.57786 0.0
H1460 H 0.22316 0.2128 0.52625 0.0
H1461 H 0.22043 0.24328 0.55431 0.0
C1462 C 0.22661 0.23976 0.59885 0.0
C1463 C 0.22932 0.23521 0.62178 0.0
C1464 C 0.22883 0.22247 0.58254 0.0
C1465 C 0.23463 0.2133 0.62826 0.0
C1466 C 0.23752 0.19616 0.61211 0.0
C1467 C 0.23691 0.18325 0.57282 0.0
C1468 C 0.23263 0.18745 0.55003 0.0
C1469 C 0.2346 0.20052 0.58918 0.0
C1470 C 0.22655 0.20921 0.54371 0.0
C1471 C 0.22499 0.22663 0.55974 0.0
H1472 H 0.50058 0.50087 0.66371 0.0
H1473 H 0.45133 0.53906 0.62775 0.0
H1474 H 0.42473 0.53378 0.65821 0.0
H1475 H 0.41443 0.51682 0.69448 0.0
H1476 H 0.46178 0.47453 0.72768 0.0
H1477 H 0.48977 0.48237 0.6986 0.0
C1478 C 0.48395 0.50779 0.66215 0.0
C1479 C 0.47834 0.52049 0.64314 0.0
C1480 C 0.46819 0.50381 0.67931 0.0
C1481 C 0.45668 0.52969 0.64218 0.0
C1482 C 0.44121 0.52646 0.65957 0.0
C1483 C 0.43096 0.50948 0.69538 0.0
C1484 C 0.43614 0.49527 0.71327 0.0
C1485 C 0.4467 0.51344 0.67816 0.0
C1486 C 0.45743 0.48552 0.71405 0.0
C1487 C 0.47343 0.49002 0.69745 0.0
H1488 H 0.80539 0.27976 0.59991 0.0
H1489 H 0.78453 0.32662 0.65135 0.0
H1490 H 0.77328 0.35337 0.62263 0.0
H1491 H 0.76862 0.36296 0.58268 0.0
H1492 H 0.79179 0.31685 0.53141 0.0
H1493 H 0.80307 0.29043 0.56012 0.0
C1494 C 0.79842 0.29588 0.60472 0.0
C1495 C 0.7956 0.30126 0.62758 0.0
C1496 C 0.79247 0.31131 0.58814 0.0
C1497 C 0.7868 0.32222 0.63378 0.0
C1498 C 0.78037 0.33746 0.61739 0.0
C1499 C 0.77625 0.34719 0.57782 0.0
C1500 C 0.77925 0.34187 0.55491 0.0
C1501 C 0.78302 0.33214 0.59448 0.0
C1502 C 0.78934 0.32142 0.54891 0.0
C1503 C 0.79572 0.30623 0.56532 0.0
H1504 H 0.54299 0.02257 0.63394 0.0
H1505 H 0.55176 0.9511 0.64259 0.0
H1506 H 0.57603 0.95899 0.67507 0.0
H1507 H 0.59483 0.98613 0.70131 0.0
H1508 H 0.58444 0.05747 0.69366 0.0
H1509 H 0.56056 0.04956 0.66091 0.0
C1510 C 0.54992 0.00865 0.64305 0.0
C1511 C 0.54554 0.98624 0.63554 0.0
C1512 C 0.56365 0.01326 0.66204 0.0
C1513 C 0.5551 0.96855 0.64755 0.0
C1514 C 0.5689 0.97303 0.6663 0.0
C1515 C 0.58739 0.99997 0.69247 0.0
C1516 C 0.59159 0.02238 0.70003 0.0
C1517 C 0.57338 0.99532 0.67367 0.0
C1518 C 0.58156 0.04004 0.68838 0.0
C1519 C 0.56787 0.03555 0.66956 0.0
H1520 H 0.91112 0.19198 0.79052 0.0
H1521 H 0.89356 0.26223 0.78819 0.0
H1522 H 0.92426 0.27221 0.81395 0.0
H1523 H 0.95496 0.2611 0.83869 0.0
H1524 H 0.97232 0.19118 0.84255 0.0
H1525 H 0.94277 0.1809 0.81485 0.0
C1526 C 0.91386 0.20945 0.79577 0.0
C1527 C 0.89995 0.22629 0.78719 0.0
C1528 C 0.93143 0.21513 0.81102 0.0
C1529 C 0.90414 0.2489 0.79401 0.0
C1530 C 0.92167 0.25466 0.8089 0.0
C1531 C 0.95215 0.24359 0.83351 0.0
C1532 C 0.96516 0.22677 0.8431 0.0
C1533 C 0.93522 0.23793 0.81771 0.0
C1534 C 0.96211 0.2043 0.83566 0.0
C1535 C 0.94523 0.19847 0.81988 0.0
H1536 H 0.49312 0.8631 0.48851 0.0
H1537 H 0.47834 0.90341 0.43082 0.0
H1538 H 0.48416 0.87095 0.406 0.0
H1539 H 0.49086 0.83035 0.40067 0.0
H1540 H 0.50507 0.78971 0.45798 0.0
H1541 H 0.5028 0.82308 0.48286 0.0
C1542 C 0.49154 0.86493 0.4705 0.0
C1543 C 0.48496 0.88574 0.46168 0.0
C1544 C 0.49499 0.8461 0.45619 0.0
C1545 C 0.48283 0.88757 0.43822 0.0
C1546 C 0.48634 0.86902 0.42394 0.0
C1547 C 0.49398 0.82899 0.41856 0.0
C1548 C 0.4985 0.80779 0.42753 0.0
C1549 C 0.49206 0.84811 0.43273 0.0
C1550 C 0.50203 0.80601 0.45074 0.0
C1551 C 0.50049 0.82503 0.46494 0.0
H1552 H 0.1286 0.29273 0.80798 0.0
H1553 H 0.0821 0.28988 0.75213 0.0
H1554 H 0.05044 0.28498 0.77793 0.0
H1555 H 0.03617 0.27906 0.81627 0.0
H1556 H 0.08305 0.27857 0.87175 0.0
H1557 H 0.11424 0.28754 0.84642 0.0
C1558 C 0.11149 0.29129 0.80154 0.0
C1559 C 0.10766 0.29166 0.77821 0.0
C1560 C 0.09342 0.28789 0.81645 0.0
C1561 C 0.08546 0.28949 0.77002 0.0
C1562 C 0.06735 0.28674 0.78477 0.0
C1563 C 0.05317 0.28135 0.82283 0.0
C1564 C 0.05729 0.27836 0.84587 0.0
C1565 C 0.07114 0.28561 0.80801 0.0
C1566 C 0.07946 0.28087 0.85409 0.0
C1567 C 0.0973 0.28591 0.8396 0.0
H1568 H 0.4869 0.64301 0.48588 0.0
H1569 H 0.55853 0.64484 0.47358 0.0
H1570 H 0.55401 0.67591 0.44773 0.0
H1571 H 0.52979 0.70294 0.42872 0.0
H1572 H 0.4584 0.70192 0.44243 0.0
H1573 H 0.46297 0.67065 0.46794 0.0
C1574 C 0.50163 0.65033 0.47784 0.0
C1575 C 0.52305 0.64136 0.48181 0.0
C1576 C 0.499 0.66854 0.46324 0.0
C1577 C 0.54177 0.65097 0.47069 0.0
C1578 C 0.53923 0.66894 0.45599 0.0
C1579 C 0.51521 0.69596 0.43731 0.0
C1580 C 0.49376 0.70495 0.43353 0.0
C1581 C 0.51793 0.67789 0.45212 0.0
C1582 C 0.47514 0.69556 0.44496 0.0
C1583 C 0.47771 0.67755 0.45955 0.0
H1584 H 0.90426 0.75869 0.74392 0.0
H1585 H 0.91291 0.82867 0.72646 0.0
H1586 H 0.94024 0.81825 0.69748 0.0
H1587 H 0.96206 0.78865 0.67718 0.0
H1588 H 0.95241 0.71906 0.69672 0.0
H1589 H 0.92566 0.73011 0.72489 0.0
C1590 C 0.91234 0.7718 0.73408 0.0
C1591 C 0.9067 0.79445 0.73764 0.0
C1592 C 0.92803 0.76574 0.7177 0.0
C1593 C 0.91687 0.81106 0.72409 0.0
C1594 C 0.9326 0.8051 0.70757 0.0
C1595 C 0.95416 0.77597 0.68767 0.0
C1596 C 0.95936 0.753 0.68452 0.0
C1597 C 0.9384 0.78242 0.70422 0.0
C1598 C 0.94881 0.73684 0.69837 0.0
C1599 C 0.93341 0.7431 0.71466 0.0
H1600 H 0.98898 0.8668 0.54792 0.0
H1601 H 0.06087 0.87563 0.55809 0.0
H1602 H 0.06039 0.845 0.58455 0.0
H1603 H 0.04022 0.81448 0.6039 0.0
H1604 H 0.96946 0.80227 0.59076 0.0
H1605 H 0.96897 0.83508 0.56622 0.0
C1606 C 1.00464 0.86196 0.55567 0.0
C1607 C 0.02486 0.87407 0.55102 0.0
C1608 C 1.00449 0.84356 0.57042 0.0
C1609 C 0.04483 0.86739 0.56164 0.0
C1610 C 0.04468 0.84958 0.57671 0.0
C1611 C 0.02462 0.81915 0.59587 0.0
C1612 C 1.00485 0.80612 0.59935 0.0
C1613 C 0.02466 0.83752 0.5812 0.0
C1614 C 0.98489 0.81211 0.58843 0.0
C1615 C 0.98463 0.83084 0.57436 0.0
H1616 H 0.09562 0.71094 0.75154 0.0
H1617 H 0.1477 0.72431 0.70312 0.0
H1618 H 0.11913 0.72853 0.67362 0.0
H1619 H 0.07896 0.72872 0.66177 0.0
H1620 H 0.02745 0.71205 0.70993 0.0
H1621 H 0.05598 0.70892 0.73936 0.0
C1622 C 0.10063 0.71473 0.73449 0.0
C1623 C 0.12362 0.71746 0.72944 0.0
C1624 C 0.08418 0.71663 0.71762 0.0
C1625 C 0.13005 0.72211 0.7073 0.0
C1626 C 0.11373 0.72459 0.69049 0.0
C1627 C 0.07409 0.72448 0.67874 0.0
C1628 C 0.05117 0.7208 0.68378 0.0
C1629 C 0.0907 0.722 0.69547 0.0
C1630 C 0.04501 0.71494 0.70571 0.0
C1631 C 0.0613 0.71317 0.72253 0.0
H1632 H 0.02211 0.63503 0.54235 0.0
H1633 H 0.95133 0.64777 0.53446 0.0
H1634 H 0.9555 0.68199 0.5577 0.0
H1635 H 0.97827 0.70598 0.58352 0.0
H1636 H 0.04891 0.6938 0.592 0.0
H1637 H 0.04598 0.66182 0.56516 0.0
C1638 C 0.00772 0.64552 0.54547 0.0
C1639 C 0.98637 0.63871 0.53701 0.0
C1640 C 0.01018 0.66509 0.55914 0.0
C1641 C 0.96785 0.65247 0.54112 0.0
C1642 C 0.97023 0.67208 0.55431 0.0
C1643 C 0.993 0.69633 0.57935 0.0
C1644 C 0.01356 0.70149 0.59021 0.0
C1645 C 0.99112 0.67812 0.56401 0.0
C1646 C 0.0328 0.68962 0.58414 0.0
C1647 C 0.0311 0.6714 0.56884 0.0
H1648 H 0.77859 0.91299 0.25494 0.0
H1649 H 0.77873 0.91738 0.1827 0.0
H1650 H 0.8086 0.9466 0.18493 0.0
H1651 H 0.83531 0.97079 0.20769 0.0
H1652 H 0.83454 0.96565 0.27978 0.0
H1653 H 0.80383 0.93755 0.27738 0.0
C1654 C 0.78481 0.92058 0.23966 0.0
C1655 C 0.77625 0.91299 0.2187 0.0
C1656 C 0.80185 0.93745 0.24106 0.0
C1657 C 0.78508 0.92269 0.19908 0.0
C1658 C 0.80208 0.93955 0.20034 0.0
C1659 C 0.82826 0.96352 0.22277 0.0
C1660 C 0.83743 0.96981 0.24384 0.0
C1661 C 0.81068 0.94704 0.22125 0.0
C1662 C 0.82802 0.96063 0.26336 0.0
C1663 C 0.81043 0.94462 0.26201 0.0
H1664 H 0.80681 0.13416 0.2936 0.0
H1665 H 0.75096 0.08623 0.29365 0.0
H1666 H 0.77702 0.0549 0.29224 0.0
H1667 H 0.81558 0.04115 0.28833 0.0
H1668 H 0.87129 0.08903 0.28452 0.0
H1669 H 0.84563 0.12029 0.29038 0.0
C1670 C 0.80045 0.11683 0.29354 0.0
C1671 C 0.77704 0.11246 0.29372 0.0
C1672 C 0.81555 0.0989 0.29208 0.0
C1673 C 0.76892 0.08996 0.29339 0.0
C1674 C 0.78381 0.07207 0.29263 0.0
C1675 C 0.82214 0.05841 0.28925 0.0
C1676 C 0.84532 0.06277 0.28625 0.0
C1677 C 0.80715 0.07632 0.29165 0.0
C1678 C 0.85352 0.08525 0.28692 0.0
C1679 C 0.83884 0.10312 0.29017 0.0
H1680 H 0.37836 0.96748 0.00771 0.0
H1681 H 0.3649 0.98502 0.93903 0.0
H1682 H 0.32809 0.96591 0.94061 0.0
H1683 H 0.30105 0.94226 0.96023 0.0
H1684 H 0.3143 0.92213 0.02828 0.0
H1685 H 0.34962 0.94456 0.02838 0.0
C1686 C 0.36719 0.96727 0.99324 0.0
C1687 C 0.37439 0.97747 0.97319 0.0
C1688 C 0.34606 0.9558 0.99413 0.0
C1689 C 0.35985 0.97704 0.95451 0.0
C1690 C 0.33878 0.96618 0.95543 0.0
C1691 C 0.31144 0.94284 0.97527 0.0
C1692 C 0.30492 0.93031 0.99419 0.0
C1693 C 0.33191 0.95517 0.97498 0.0
C1694 C 0.31877 0.93155 0.01345 0.0
C1695 C 0.33907 0.94429 0.01347 0.0
H1696 H 0.22205 0.38496 0.29594 0.0
H1697 H 0.27626 0.43435 0.30357 0.0
H1698 H 0.2499 0.46489 0.29807 0.0
H1699 H 0.21186 0.47744 0.28844 0.0
H1700 H 0.15832 0.42785 0.27753 0.0
H1701 H 0.18373 0.39762 0.28724 0.0
C1702 C 0.22797 0.40244 0.29667 0.0
C1703 C 0.25104 0.40743 0.30014 0.0
C1704 C 0.2128 0.41989 0.29287 0.0
C1705 C 0.25859 0.43012 0.30077 0.0
C1706 C 0.24352 0.44757 0.29767 0.0
C1707 C 0.20568 0.46005 0.28861 0.0
C1708 C 0.18321 0.45489 0.28244 0.0
C1709 C 0.22064 0.44266 0.29336 0.0
C1710 C 0.17554 0.43224 0.28227 0.0
C1711 C 0.19009 0.41494 0.28775 0.0
H1712 H 0.1414 0.04513 0.53604 0.0
H1713 H 0.1514 0.03089 0.4655 0.0
H1714 H 0.18538 0.05497 0.4659 0.0
H1715 H 0.21097 0.08194 0.48561 0.0
H1716 H 0.20156 0.09645 0.55598 0.0
H1717 H 0.16885 0.07014 0.55652 0.0
C1718 C 0.15113 0.04717 0.52081 0.0
C1719 C 0.14367 0.03643 0.50069 0.0
C1720 C 0.17069 0.06113 0.52114 0.0
C1721 C 0.15647 0.03929 0.4811 0.0
C1722 C 0.17604 0.05289 0.48135 0.0
C1723 C 0.20171 0.07926 0.50105 0.0
C1724 C 0.20801 0.09156 0.52055 0.0
C1725 C 0.18303 0.06424 0.50114 0.0
C1726 C 0.19659 0.08743 0.54068 0.0
C1727 C 0.17792 0.07245 0.54095 0.0
H1728 H 0.73305 0.12377 0.74455 0.0
H1729 H 0.73076 0.11374 0.6726 0.0
H1730 H 0.70451 0.0817 0.67678 0.0
H1731 H 0.68121 0.05695 0.70088 0.0
H1732 H 0.68372 0.06696 0.77266 0.0
H1733 H 0.7113 0.09802 0.76864 0.0
C1734 C 0.72711 0.11437 0.72979 0.0
C1735 C 0.73385 0.1213 0.70829 0.0
C1736 C 0.71204 0.09587 0.73229 0.0
C1737 C 0.72562 0.10906 0.68935 0.0
C1738 C 0.7107 0.09061 0.69171 0.0
C1739 C 0.68788 0.066 0.71556 0.0
C1740 C 0.67997 0.06032 0.73696 0.0
C1741 C 0.70361 0.08398 0.71308 0.0
C1742 C 0.68908 0.07164 0.75597 0.0
C1743 C 0.70493 0.08928 0.75368 0.0
H1744 H 0.36303 0.0316 0.5104 0.0
H1745 H 0.40291 0.08504 0.54267 0.0
H1746 H 0.37279 0.11134 0.53686 0.0
H1747 H 0.33427 0.11905 0.52443 0.0
H1748 H 0.29497 0.06665 0.49018 0.0
H1749 H 0.32583 0.04045 0.49441 0.0
C1750 C 0.36536 0.04906 0.51586 0.0
C1751 C 0.38522 0.05597 0.52751 0.0
C1752 C 0.348 0.06444 0.51206 0.0
C1753 C 0.38765 0.07881 0.53438 0.0
C1754 C 0.37045 0.09404 0.53088 0.0
C1755 C 0.33254 0.10198 0.51766 0.0
C1756 C 0.31224 0.09485 0.50712 0.0
C1757 C 0.3504 0.08698 0.52009 0.0
C1758 C 0.31039 0.07267 0.49832 0.0
C1759 C 0.32802 0.0576 0.50085 0.0
H1760 H 0.65885 0.49642 0.50153 0.0
H1761 H 0.61842 0.44518 0.53442 0.0
H1762 H 0.64848 0.4184 0.52964 0.0
H1763 H 0.68604 0.40883 0.51503 0.0
H1764 H 0.72437 0.45888 0.47861 0.0
H1765 H 0.69519 0.48647 0.48541 0.0
C1766 C 0.65629 0.47933 0.50738 0.0
C1767 C 0.63615 0.47316 0.51849 0.0
C1768 C 0.67337 0.46362 0.50386 0.0
C1769 C 0.63375 0.45088 0.52629 0.0
C1770 C 0.65093 0.43535 0.52337 0.0
C1771 C 0.68802 0.42583 0.50872 0.0
C1772 C 0.70742 0.43183 0.49645 0.0
C1773 C 0.67081 0.44149 0.51214 0.0
C1774 C 0.70959 0.45381 0.48807 0.0
C1775 C 0.69291 0.46962 0.49197 0.0
H1776 H 0.7529 0.28243 0.4023 0.0
H1777 H 0.68022 0.28228 0.4027 0.0
H1778 H 0.68104 0.3111 0.43262 0.0
H1779 H 0.70265 0.33651 0.45904 0.0
H1780 H 0.77518 0.33558 0.45846 0.0
H1781 H 0.77416 0.30647 0.42895 0.0
C1782 C 0.73718 0.28837 0.40913 0.0
C1783 C 0.71655 0.28003 0.40023 0.0
C1784 C 0.73775 0.30468 0.42653 0.0
C1785 C 0.6964 0.28851 0.409 0.0
C1786 C 0.69683 0.30488 0.42627 0.0
C1787 C 0.71813 0.32982 0.45239 0.0
C1788 C 0.73897 0.33848 0.46038 0.0
C1789 C 0.71742 0.31312 0.4352 0.0
C1790 C 0.75897 0.32948 0.45207 0.0
C1791 C 0.7584 0.3128 0.43527 0.0
H1792 H 0.52754 0.02582 0.85563 0.0
H1793 H 0.58441 0.01475 0.89892 0.0
H1794 H 0.60855 0.00929 0.86617 0.0
H1795 H 0.61433 0.01147 0.82523 0.0
H1796 H 0.55831 0.02631 0.78226 0.0
H1797 H 0.5329 0.02605 0.81458 0.0
C1798 C 0.54513 0.02181 0.85782 0.0
C1799 C 0.55421 0.0207 0.87963 0.0
C1800 C 0.55905 0.01936 0.83889 0.0
C1801 C 0.5771 0.01582 0.88228 0.0
C1802 C 0.59089 0.01267 0.86357 0.0
C1803 C 0.59643 0.01397 0.82297 0.0
C1804 C 0.58802 0.01846 0.80145 0.0
C1805 C 0.58218 0.01488 0.84179 0.0
C1806 C 0.56499 0.02248 0.79869 0.0
C1807 C 0.55053 0.02251 0.81717 0.0
H1808 H 0.26465 0.22792 0.39225 0.0
H1809 H 0.32803 0.2439 0.42492 0.0
H1810 H 0.32029 0.21471 0.45296 0.0
H1811 H 0.2938 0.18608 0.46953 0.0
H1812 H 0.23099 0.17055 0.4349 0.0
H1813 H 0.24033 0.19772 0.40637 0.0
C1814 C 0.27678 0.22494 0.4055 0.0
C1815 C 0.29667 0.23817 0.40679 0.0
C1816 C 0.27231 0.20812 0.42127 0.0
C1817 C 0.31251 0.23392 0.42373 0.0
C1818 C 0.30806 0.21727 0.43974 0.0
C1819 C 0.28238 0.18842 0.45555 0.0
C1820 C 0.26155 0.17641 0.45471 0.0
C1821 C 0.2878 0.20441 0.43889 0.0
C1822 C 0.24698 0.17969 0.43635 0.0
C1823 C 0.25226 0.19531 0.4199 0.0
H1824 H 0.48081 0.46617 0.87525 0.0
H1825 H 0.47631 0.53803 0.8863 0.0
H1826 H 0.45145 0.54051 0.8535 0.0
H1827 H 0.43049 0.52188 0.82149 0.0
H1828 H 0.43575 0.44965 0.81196 0.0
H1829 H 0.4603 0.4479 0.84425 0.0
C1830 C 0.47421 0.48238 0.87072 0.0
C1831 C 0.48039 0.50182 0.88341 0.0
C1832 C 0.4599 0.48369 0.85193 0.0
C1833 C 0.47201 0.52275 0.8768 0.0
C1834 C 0.45767 0.52418 0.85806 0.0
C1835 C 0.43701 0.50579 0.82647 0.0
C1836 C 0.43109 0.48601 0.81398 0.0
C1837 C 0.45145 0.50471 0.84543 0.0
C1838 C 0.43985 0.4653 0.82091 0.0
C1839 C 0.454 0.46417 0.83954 0.0
H1840 H 0.71308 0.75889 0.08971 0.0
H1841 H 0.73255 0.71234 0.1406 0.0
H1842 H 0.73821 0.68296 0.11177 0.0
H1843 H 0.73853 0.67092 0.07184 0.0
H1844 H 0.71629 0.71672 0.0213 0.0
H1845 H 0.71075 0.74597 0.05011 0.0
C1846 C 0.71846 0.74225 0.0944 0.0
C1847 C 0.72254 0.73772 0.11713 0.0
C1848 C 0.72124 0.72538 0.07779 0.0
C1849 C 0.72928 0.7161 0.12316 0.0
C1850 C 0.73259 0.69938 0.10669 0.0
C1851 C 0.73247 0.68732 0.06718 0.0
C1852 C 0.72804 0.69174 0.04445 0.0
C1853 C 0.7288 0.70388 0.08392 0.0
C1854 C 0.71982 0.71291 0.03867 0.0
C1855 C 0.7167 0.72966 0.05513 0.0
H1856 H 0.97761 0.03758 0.1532 0.0
H1857 H 0.98539 0.96661 0.13836 0.0
H1858 H 0.96127 0.95693 0.16996 0.0
H1859 H 0.93734 0.96843 0.20156 0.0
H1860 H 0.92829 0.0394 0.21541 0.0
H1861 H 0.95316 0.04909 0.18436 0.0
C1862 C 0.97388 0.01998 0.15668 0.0
C1863 C 0.98353 1.00291 0.14332 0.0
C1864 C 0.95966 0.01445 0.17477 0.0
C1865 C 0.97865 0.98019 0.14848 0.0
C1866 C 0.96467 0.97459 0.16651 0.0
C1867 C 0.94085 0.98603 0.19788 0.0
C1868 C 0.93088 1.00311 0.21096 0.0
C1869 C 0.95507 0.99156 0.17979 0.0
C1870 C 0.9356 0.02583 0.2057 0.0
C1871 C 0.94988 0.03143 0.1879 0.0
H1872 H 0.32502 0.7892 0.10213 0.0
H1873 H 0.26301 0.79644 0.13859 0.0
H1874 H 0.25022 0.82394 0.11148 0.0
H1875 H 0.25611 0.84506 0.07686 0.0
H1876 H 0.31652 0.83568 0.03831 0.0
H1877 H 0.33063 0.81007 0.06676 0.0
C1878 C 0.30877 0.79693 0.1041 0.0
C1879 C 0.29495 0.79088 0.1223 0.0
C1880 C 0.30129 0.81235 0.08811 0.0
C1881 C 0.27384 0.80077 0.12462 0.0
C1882 C 0.26657 0.81653 0.10918 0.0
C1883 C 0.2725 0.83762 0.07481 0.0
C1884 C 0.28538 0.84244 0.05564 0.0
C1885 C 0.28009 0.82236 0.09081 0.0
C1886 C 0.30635 0.8323 0.05298 0.0
C1887 C 0.31438 0.81763 0.06922 0.0
H1888 H 0.06959 0.47719 0.13025 0.0
H1889 H 0.01308 0.51454 0.1553 0.0
H1890 H 0.03521 0.52695 0.1879 0.0
H1891 H 0.07054 0.52681 0.21004 0.0
H1892 H 0.12514 0.48589 0.18704 0.0
H1893 H 0.10356 0.47481 0.1534 0.0
C1894 C 0.06178 0.48769 0.14292 0.0
C1895 C 0.03951 0.49494 0.13982 0.0
C1896 C 0.0743 0.4941 0.16225 0.0
C1897 C 0.03026 0.50903 0.15655 0.0
C1898 C 0.04286 0.51601 0.17548 0.0
C1899 C 0.07767 0.51547 0.19764 0.0
C1900 C 0.09945 0.50725 0.20103 0.0
C1901 C 0.06491 0.50866 0.17854 0.0
C1902 C 0.10838 0.49237 0.18492 0.0
C1903 C 0.09607 0.48608 0.16563 0.0
H1904 H 0.41161 0.68956 0.29086 0.0
H1905 H 0.39675 0.75956 0.27999 0.0
H1906 H 0.42698 0.77137 0.30562 0.0
H1907 H 0.4565 0.76209 0.33275 0.0
H1908 H 0.47063 0.6925 0.34517 0.0
H1909 H 0.4417 0.68026 0.31762 0.0
C1910 C 0.41478 0.7074 0.29424 0.0
C1911 C 0.40179 0.72356 0.28327 0.0
C1912 C 0.43197 0.71419 0.30949 0.0
C1913 C 0.40662 0.74664 0.28767 0.0
C1914 C 0.42387 0.75348 0.3025 0.0
C1915 C 0.45305 0.74425 0.3295 0.0
C1916 C 0.46496 0.72815 0.34146 0.0
C1917 C 0.43644 0.73743 0.31372 0.0
C1918 C 0.4612 0.70512 0.33647 0.0
C1919 C 0.44469 0.69817 0.32075 0.0
H1920 H 0.01024 0.37641 0.97004 0.0
H1921 H 0.94077 0.36347 0.98754 0.0
H1922 H 0.94126 0.3269 0.96808 0.0
H1923 H 0.9603 0.29983 0.94435 0.0
H1924 H 0.0293 0.31245 0.92458 0.0
H1925 H 0.03019 0.34774 0.94677 0.0
C1926 C 0.99537 0.36538 0.96976 0.0
C1927 C 0.97545 0.3726 0.98013 0.0
C1928 C 0.99563 0.34441 0.95804 0.0
C1929 C 0.95621 0.3583 0.97955 0.0
C1930 C 0.95649 0.3374 0.96843 0.0
C1931 C 0.9757 0.31009 0.94493 0.0
C1932 C 0.9947 0.30335 0.93263 0.0
C1933 C 0.97595 0.33047 0.95732 0.0
C1934 C 0.01439 0.3171 0.9338 0.0
C1935 C 0.01489 0.33736 0.94646 0.0
H1936 H 0.63063 0.76895 0.30122 0.0
H1937 H 0.59624 0.82339 0.27007 0.0
H1938 H 0.56505 0.81921 0.29674 0.0
H1939 H 0.54676 0.79857 0.32793 0.0
H1940 H 0.58271 0.74553 0.36015 0.0
H1941 H 0.61404 0.75076 0.33435 0.0
C1942 C 0.61634 0.77997 0.30045 0.0
C1943 C 0.61555 0.79633 0.2837 0.0
C1944 C 0.59873 0.77769 0.31605 0.0
C1945 C 0.59713 0.81069 0.28289 0.0
C1946 C 0.57931 0.80824 0.29808 0.0
C1947 C 0.56155 0.78834 0.32943 0.0
C1948 C 0.56225 0.77158 0.34591 0.0
C1949 C 0.57979 0.7916 0.3146 0.0
C1950 C 0.58165 0.75857 0.34769 0.0
C1951 C 0.5996 0.76147 0.33285 0.0
H1952 H 0.03975 0.14458 0.97845 0.0
H1953 H 0.96959 0.12774 0.98985 0.0
H1954 H 0.95849 0.1585 0.9659 0.0
H1955 H 0.96847 0.19009 0.94142 0.0
H1956 H 0.03855 0.20625 0.9288 0.0
H1957 H 0.04975 0.17579 0.95321 0.0
C1958 C 0.02203 0.14747 0.97555 0.0
C1959 C 0.00559 0.13384 0.98621 0.0
C1960 C 0.01567 0.16514 0.96147 0.0
C1961 C 0.98269 0.13813 0.98233 0.0
C1962 C 0.97628 0.15568 0.96847 0.0
C1963 C 0.98621 0.18706 0.94404 0.0
C1964 C 1.00258 0.20062 0.93324 0.0
C1965 C 0.9926 0.16934 0.958 0.0
C1966 C 0.0255 0.19617 0.9368 0.0
C1967 C 0.03197 0.17871 0.9508 0.0
H1968 H 0.39572 0.30325 0.2211 0.0
H1969 H 0.44161 0.28697 0.27453 0.0
H1970 H 0.47018 0.27704 0.24708 0.0
H1971 H 0.48065 0.2689 0.20786 0.0
H1972 H 0.43514 0.28494 0.15435 0.0
H1973 H 0.40813 0.29957 0.18171 0.0
C1974 C 0.41214 0.29804 0.22676 0.0
C1975 C 0.41629 0.29546 0.2499 0.0
C1976 C 0.4286 0.29231 0.21082 0.0
C1977 C 0.43769 0.28856 0.25685 0.0
C1978 C 0.45413 0.28298 0.24116 0.0
C1979 C 0.4651 0.27627 0.20227 0.0
C1980 C 0.4599 0.27625 0.17926 0.0
C1981 C 0.44956 0.28419 0.21811 0.0
C1982 C 0.43955 0.28526 0.17204 0.0
C1983 C 0.42406 0.29339 0.18768 0.0
H1984 H 0.49048 0.37338 0.04076 0.0
H1985 H 0.56284 0.37929 0.04821 0.0
H1986 H 0.56234 0.34761 0.07356 0.0
H1987 H 0.54168 0.31779 0.09353 0.0
H1988 H 0.46994 0.30935 0.08381 0.0
H1989 H 0.46996 0.34213 0.05929 0.0
C1990 C 0.50619 0.36763 0.04767 0.0
C1991 C 0.5266 0.37919 0.04271 0.0
C1992 C 0.50594 0.34885 0.06192 0.0
C1993 C 0.54673 0.37136 0.05211 0.0
C1994 C 0.54654 0.35303 0.06653 0.0
C1995 C 0.52603 0.32321 0.08615 0.0
C1996 C 0.50582 0.31128 0.09065 0.0
C1997 C 0.52626 0.34171 0.07165 0.0
C1998 C 0.48573 0.31828 0.08065 0.0
C1999 C 0.48574 0.33702 0.06661 0.0
H2000 H 0.58993 0.21972 0.24915 0.0
H2001 H 0.64162 0.22615 0.19901 0.0
H2002 H 0.61281 0.23048 0.16978 0.0
H2003 H 0.57258 0.23309 0.1587 0.0
H2004 H 0.52125 0.22386 0.20896 0.0
H2005 H 0.5501 0.22008 0.2379 0.0
C2006 C 0.59482 0.22202 0.2318 0.0
C2007 C 0.61779 0.22277 0.2262 0.0
C2008 C 0.5782 0.2241 0.21513 0.0
C2009 C 0.62399 0.22547 0.20365 0.0
C2010 C 0.60754 0.22804 0.18699 0.0
C2011 C 0.5678 0.23029 0.176 0.0
C2012 C 0.54483 0.22889 0.18172 0.0
C2013 C 0.58455 0.22753 0.19255 0.0
C2014 C 0.53882 0.22493 0.20414 0.0
C2015 C 0.5553 0.22281 0.22071 0.0
H2016 H 0.46544 0.14706 0.04265 0.0
H2017 H 0.53278 0.12255 0.04985 0.0
H2018 H 0.54331 0.15562 0.07322 0.0
H2019 H 0.53285 0.19109 0.09281 0.0
H2020 H 0.46539 0.21504 0.08557 0.0
H2021 H 0.45549 0.18293 0.06075 0.0
C2022 C 0.4824 0.14893 0.04939 0.0
C2023 C 0.49826 0.1323 0.04464 0.0
C2024 C 0.48834 0.16799 0.06271 0.0
C2025 C 0.52029 0.13517 0.05317 0.0
C2026 C 0.52631 0.15405 0.06657 0.0
C2027 C 0.51604 0.18917 0.08571 0.0
C2028 C 0.4996 0.20482 0.0915 0.0
C2029 C 0.51043 0.1705 0.07159 0.0
C2030 C 0.47805 0.20269 0.08181 0.0
C2031 C 0.47243 0.18443 0.06757 0.0
H2032 H 0.28402 0.4135 0.70309 0.0
H2033 H 0.27678 0.39961 0.77368 0.0
H2034 H 0.3057 0.42813 0.78292 0.0
H2035 H 0.33403 0.4561 0.77122 0.0
H2036 H 0.34231 0.47061 0.70114 0.0
H2037 H 0.31208 0.44288 0.69136 0.0
C2038 C 0.28888 0.41665 0.72046 0.0
C2039 C 0.27805 0.40446 0.73766 0.0
C2040 C 0.30575 0.43316 0.72574 0.0
C2041 C 0.28446 0.40896 0.76011 0.0
C2042 C 0.30108 0.42524 0.76545 0.0
C2043 C 0.32921 0.4531 0.75379 0.0
C2044 C 0.34072 0.46472 0.73683 0.0
C2045 C 0.31193 0.4373 0.74844 0.0
C2046 C 0.33388 0.46144 0.7144 0.0
C2047 C 0.31666 0.44559 0.70885 0.0
H2048 H 0.31259 0.62781 0.79618 0.0
H2049 H 0.25573 0.5811 0.79625 0.0
H2050 H 0.28103 0.54919 0.79411 0.0
H2051 H 0.31915 0.5346 0.78936 0.0
H2052 H 0.3759 0.58127 0.78574 0.0
H2053 H 0.35106 0.61304 0.79241 0.0
C2054 C 0.30584 0.61061 0.796 0.0
C2055 C 0.28236 0.60676 0.79637 0.0
C2056 C 0.32052 0.59233 0.7941 0.0
C2057 C 0.27375 0.58443 0.79586 0.0
C2058 C 0.28821 0.5662 0.79467 0.0
C2059 C 0.32613 0.5517 0.79049 0.0
C2060 C 0.34937 0.55555 0.78726 0.0
C2061 C 0.31161 0.56993 0.79341 0.0
C2062 C 0.35808 0.57785 0.78827 0.0
C2063 C 0.34386 0.59603 0.79198 0.0
H2064 H 0.86559 0.48793 0.493 0.0
H2065 H 0.90517 0.42864 0.48232 0.0
H2066 H 0.87197 0.40446 0.48858 0.0
H2067 H 0.83097 0.40015 0.49373 0.0
H2068 H 0.79104 0.45914 0.50301 0.0
H2069 H 0.82509 0.48347 0.50136 0.0
C2070 C 0.86706 0.46972 0.49247 0.0
C2071 C 0.88786 0.46016 0.48693 0.0
C2072 C 0.84781 0.45586 0.49598 0.0
C2073 C 0.88933 0.43649 0.48609 0.0
C2074 C 0.87036 0.42262 0.48981 0.0
C2075 C 0.82993 0.4183 0.49607 0.0
C2076 C 0.80877 0.42794 0.49897 0.0
C2077 C 0.84944 0.43211 0.49433 0.0
C2078 C 0.80732 0.45145 0.50127 0.0
C2079 C 0.82673 0.46532 0.50007 0.0
H2080 H 0.73871 0.92034 0.80767 0.0
H2081 H 0.72753 0.88605 0.74399 0.0
H2082 H 0.697 0.91148 0.73529 0.0
H2083 H 0.67466 0.94453 0.74498 0.0
H2084 H 0.68771 0.98094 0.80722 0.0
H2085 H 0.71609 0.9536 0.81745 0.0
C2086 C 0.72943 0.91841 0.79198 0.0
C2087 C 0.73533 0.90141 0.77646 0.0
C2088 C 0.71224 0.93347 0.78687 0.0
C2089 C 0.72338 0.89915 0.75609 0.0
C2090 C 0.70589 0.91363 0.75115 0.0
C2091 C 0.6835 0.9463 0.76092 0.0
C2092 C 0.67897 0.96463 0.7754 0.0
C2093 C 0.70032 0.93098 0.76631 0.0
C2094 C 0.69085 0.96694 0.79581 0.0
C2095 C 0.70712 0.95134 0.80164 0.0
H2096 H 0.65531 0.5438 0.97826 0.0
H2097 H 0.63151 0.55689 0.04537 0.0
H2098 H 0.66415 0.58201 0.05297 0.0
H2099 H 0.699 0.60139 0.03997 0.0
H2100 H 0.72246 0.58842 0.97278 0.0
H2101 H 0.69104 0.56158 0.96597 0.0
C2102 C 0.65729 0.55223 0.9945 0.0
C2103 C 0.64098 0.54868 0.01117 0.0
C2104 C 0.67627 0.56638 0.99885 0.0
C2105 C 0.64387 0.55942 0.03227 0.0
C2106 C 0.66256 0.5737 0.03665 0.0
C2107 C 0.69722 0.5925 0.02396 0.0
C2108 C 0.7125 0.59723 0.00666 0.0
C2109 C 0.67883 0.57741 0.02004 0.0
C2110 C 0.71046 0.58536 0.98611 0.0
C2111 C 0.69254 0.57003 0.98222 0.0
H2112 H 0.2375 0.61429 0.24454 0.0
H2113 H 0.23542 0.60361 0.1727 0.0
H2114 H 0.21087 0.57029 0.1772 0.0
H2115 H 0.18847 0.54489 0.2016 0.0
H2116 H 0.19006 0.55632 0.27321 0.0
H2117 H 0.21681 0.58801 0.26888 0.0
C2118 C 0.23201 0.60447 0.22988 0.0
C2119 C 0.23826 0.61159 0.20832 0.0
C2120 C 0.21784 0.58531 0.23258 0.0
C2121 C 0.23062 0.59877 0.1895 0.0
C2122 C 0.21669 0.57959 0.19205 0.0
C2123 C 0.19485 0.55431 0.21617 0.0
C2124 C 0.18695 0.5488 0.23761 0.0
C2125 C 0.20994 0.57283 0.21349 0.0
C2126 C 0.19556 0.56073 0.25649 0.0
C2127 C 0.21089 0.57878 0.25403 0.0
H2128 H 0.89304 0.5813 0.03198 0.0
H2129 H 0.85978 0.51965 0.00807 0.0
H2130 H 0.82668 0.54068 0.99791 0.0
H2131 H 0.80589 0.57629 0.99793 0.0
H2132 H 0.83778 0.63693 0.02548 0.0
H2133 H 0.87236 0.61658 0.03233 0.0
C2134 C 0.87853 0.5723 0.02478 0.0
C2135 C 0.87922 0.54875 0.02087 0.0
C2136 C 0.8591 0.58439 0.01964 0.0
C2137 C 0.8602 0.53774 0.01098 0.0
C2138 C 0.84104 0.54976 0.00531 0.0
C2139 C 0.82054 0.58507 0.00515 0.0
C2140 C 0.81932 0.60812 0.01106 0.0
C2141 C 0.84019 0.57305 0.00976 0.0
C2142 C 0.83829 0.6192 0.02076 0.0
C2143 C 0.85807 0.60755 0.02473 0.0
H2144 H 0.14647 0.96898 0.03971 0.0
H2145 H 0.1306 0.98024 0.97001 0.0
H2146 H 0.16115 0.95605 0.95845 0.0
H2147 H 0.19255 0.93163 0.9679 0.0
H2148 H 0.20741 0.91898 0.03754 0.0
H2149 H 0.17692 0.94333 0.04916 0.0
C2150 C 0.14946 0.96597 0.02198 0.0
C2151 C 0.13621 0.97675 0.00584 0.0
C2152 C 0.16693 0.95167 0.01534 0.0
C2153 C 0.14071 0.9727 0.98292 0.0
C2154 C 0.15813 0.95867 0.97623 0.0
C2155 C 0.18917 0.93418 0.98563 0.0
C2156 C 0.20244 0.92345 1.00176 0.0
C2157 C 0.17143 0.94814 0.99228 0.0
C2158 C 0.19754 0.9269 0.02467 0.0
C2159 C 0.18009 0.9409 0.03138 0.0
loop_
_geom_bond_atom_site_label_1
_geom_bond_atom_site_label_2
_geom_bond_distance
_geom_bond_site_symmetry_2
_ccdc_geom_bond_type
C0 C1 1.391 . S
C0 C4 1.391 . S
C0 H42 0.948 . S
C1 C0 1.391 . S
C1 C2 1.391 . S
C2 C1 1.391 . S
C2 H58 0.947 1_455 S
C2 C59 1.392 1_556 S
C3 C4 1.391 1_554 S
C3 C7 1.397 . S
C3 C59 1.419 . S
C4 C0 1.391 . S
C4 C3 1.391 1_556 S
C4 C5 1.399 . S
C5 C4 1.399 . S
C5 C8 1.396 1_556 S
C5 C17 1.453 . S
C5 C18 1.684 . S
H6 C30 0.948 . S
C7 C3 1.397 . S
C7 C8 1.394 . S
C7 C26 1.723 . S
C8 C5 1.396 1_554 S
C8 C7 1.394 . S
C8 C38 1.723 . S
H9 C32 0.947 1_556 S
H10 C33 0.948 1_556 S
H11 C39 0.982 1_545 S
H12 C40 0.979 . S
H13 C40 0.980 . S
H14 C40 0.983 . S
H15 C39 0.979 . S
H16 C39 0.977 . S
C17 C5 1.453 . S
C17 H46 0.982 1_556 S
C17 H47 0.979 . S
C17 H48 0.977 . S
C18 C5 1.684 . S
C18 H43 0.979 . S
C18 H44 0.980 . S
C18 H45 0.983 . S
C19 C20 1.391 . S
C19 C24 1.391 . S
C19 H49 0.948 . S
C20 C19 1.391 . S
C20 C21 1.391 . S
C21 C20 1.391 . S
C21 C22 1.392 1_655 S
C21 H50 0.947 1_545 S
C22 C21 1.392 1_455 S
C22 C23 1.419 . S
C22 H51 0.948 1_545 S
C23 C22 1.419 . S
C23 C24 1.391 1_455 S
C23 C27 1.397 . S
C24 C19 1.391 . S
C24 C23 1.391 1_655 S
C24 C25 1.399 . S
C25 C24 1.399 . S
C25 C26 1.396 1_655 S
C25 C28 1.453 . S
C25 C29 1.684 . S
C26 C7 1.723 . S
C26 C25 1.396 1_455 S
C26 C27 1.394 . S
C27 C23 1.397 . S
C27 C26 1.394 . S
C27 C37 1.723 . S
C28 C25 1.453 . S
C28 H52 0.982 1_655 S
C28 H53 0.979 . S
C28 H54 0.977 . S
C29 C25 1.684 . S
C29 H55 0.979 . S
C29 H56 0.980 . S
C29 H57 0.983 . S
C30 H6 0.948 . S
C30 C31 1.391 . S
C30 C35 1.391 . S
C31 C30 1.391 . S
C31 C32 1.391 . S
C32 H9 0.947 1_554 S
C32 C31 1.391 . S
C32 C33 1.392 1_565 S
C33 H10 0.948 1_554 S
C33 C32 1.392 1_545 S
C33 C34 1.419 . S
C34 C33 1.419 . S
C34 C35 1.391 1_545 S
C34 C38 1.397 . S
C35 C30 1.391 . S
C35 C34 1.391 1_565 S
C35 C36 1.399 . S
C36 C35 1.399 . S
C36 C37 1.396 1_565 S
C36 C39 1.453 . S
C36 C40 1.684 . S
C37 C27 1.723 . S
C37 C36 1.396 1_545 S
C37 C38 1.394 . S
C38 C8 1.723 . S
C38 C34 1.397 . S
C38 C37 1.394 . S
C39 H11 0.982 1_565 S
C39 H15 0.979 . S
C39 H16 0.977 . S
C39 C36 1.453 . S
C40 H12 0.979 . S
C40 H13 0.980 . S
C40 H14 0.983 . S
C40 C36 1.684 . S
H41 C59 0.948 1_655 S
H42 C0 0.948 . S
H43 C18 0.979 . S
H44 C18 0.980 . S
H45 C18 0.983 . S
H46 C17 0.982 1_554 S
H47 C17 0.979 . S
H48 C17 0.977 . S
H49 C19 0.948 . S
H50 C21 0.947 1_565 S
H51 C22 0.948 1_565 S
H52 C28 0.982 1_455 S
H53 C28 0.979 . S
H54 C28 0.977 . S
H55 C29 0.979 . S
H56 C29 0.980 . S
H57 C29 0.983 . S
H58 C2 0.947 1_655 S
C59 C2 1.392 1_554 S
C59 C3 1.419 . S
C59 H41 0.948 1_455 S
C60 C61 1.391 . S
C60 C64 1.391 . S
C60 H102 0.948 . S
C61 C60 1.391 . S
C61 C62 1.391 . S
C62 C61 1.391 . S
C62 H118 0.947 . S
C62 C119 1.392 . S
C63 C64 1.391 . S
C63 C67 1.397 . S
C63 C119 1.419 . S
C64 C60 1.391 . S
C64 C63 1.391 . S
C64 C65 1.399 . S
C65 C64 1.399 . S
C65 C68 1.396 . S
C65 C77 1.453 . S
C65 C78 1.684 . S
H66 C90 0.948 . S
C67 C63 1.397 . S
C67 C68 1.394 . S
C67 C86 1.723 . S
C68 C65 1.396 . S
C68 C67 1.394 . S
C68 C98 1.723 . S
H69 C92 0.947 . S
H70 C93 0.948 . S
H71 C99 0.982 . S
H72 C100 0.979 . S
H73 C100 0.980 . S
H74 C100 0.983 . S
H75 C99 0.979 . S
H76 C99 0.977 . S
C77 C65 1.453 . S
C77 H106 0.982 . S
C77 H107 0.979 . S
C77 H108 0.977 . S
C78 C65 1.684 . S
C78 H103 0.979 . S
C78 H104 0.980 . S
C78 H105 0.983 . S
C79 C80 1.391 . S
C79 C84 1.391 . S
C79 H109 0.948 . S
C80 C79 1.391 . S
C80 C81 1.391 . S
C81 C80 1.391 . S
C81 C82 1.392 . S
C81 H110 0.947 . S
C82 C81 1.392 . S
C82 C83 1.419 . S
C82 H111 0.948 . S
C83 C82 1.419 . S
C83 C84 1.391 . S
C83 C87 1.397 . S
C84 C79 1.391 . S
C84 C83 1.391 . S
C84 C85 1.399 . S
C85 C84 1.399 . S
C85 C86 1.396 . S
C85 C88 1.453 . S
C85 C89 1.684 . S
C86 C67 1.723 . S
C86 C85 1.396 . S
C86 C87 1.394 . S
C87 C83 1.397 . S
C87 C86 1.394 . S
C87 C97 1.723 . S
C88 C85 1.453 . S
C88 H112 0.982 . S
C88 H113 0.979 . S
C88 H114 0.977 . S
C89 C85 1.684 . S
C89 H115 0.979 . S
C89 H116 0.980 . S
C89 H117 0.983 . S
C90 H66 0.948 . S
C90 C91 1.391 . S
C90 C95 1.391 . S
C91 C90 1.391 . S
C91 C92 1.391 . S
C92 H69 0.947 . S
C92 C91 1.391 . S
C92 C93 1.392 . S
C93 H70 0.948 . S
C93 C92 1.392 . S
C93 C94 1.419 . S
C94 C93 1.419 . S
C94 C95 1.391 . S
C94 C98 1.397 . S
C95 C90 1.391 . S
C95 C94 1.391 . S
C95 C96 1.399 . S
C96 C95 1.399 . S
C96 C97 1.396 . S
C96 C99 1.453 . S
C96 C100 1.684 . S
C97 C87 1.723 . S
C97 C96 1.396 . S
C97 C98 1.394 . S
C98 C68 1.723 . S
C98 C94 1.397 . S
C98 C97 1.394 . S
C99 H71 0.982 . S
C99 H75 0.979 . S
C99 H76 0.977 . S
C99 C96 1.453 . S
C100 H72 0.979 . S
C100 H73 0.980 . S
C100 H74 0.983 . S
C100 C96 1.684 . S
H101 C119 0.948 . S
H102 C60 0.948 . S
H103 C78 0.979 . S
H104 C78 0.980 . S
H105 C78 0.983 . S
H106 C77 0.982 . S
H107 C77 0.979 . S
H108 C77 0.977 . S
H109 C79 0.948 . S
H110 C81 0.947 . S
H111 C82 0.948 . S
H112 C88 0.982 . S
H113 C88 0.979 . S
H114 C88 0.977 . S
H115 C89 0.979 . S
H116 C89 0.980 . S
H117 C89 0.983 . S
H118 C62 0.947 . S
C119 C62 1.392 . S
C119 C63 1.419 . S
C119 H101 0.948 . S
C120 C121 1.391 . S
C120 C124 1.391 1_556 S
C120 H162 0.948 1_655 S
C121 C120 1.391 . S
C121 C122 1.391 . S
C122 C121 1.391 . S
C122 H178 0.947 . S
C122 C179 1.392 . S
C123 C124 1.391 . S
C123 C127 1.396 . S
C123 C179 1.419 1_554 S
C124 C120 1.391 1_554 S
C124 C123 1.391 . S
C124 C125 1.417 . S
C125 C124 1.417 . S
C125 C128 1.422 . S
C125 C137 1.450 1_655 S
C125 C138 1.643 1_655 S
H126 C150 0.948 . S
C127 C123 1.396 . S
C127 C128 1.394 . S
C127 C146 1.723 . S
C128 C125 1.422 . S
C128 C127 1.394 . S
C128 C158 1.723 . S
H129 C152 0.947 . S
H130 C153 0.948 . S
H131 C159 0.982 . S
H132 C160 0.979 . S
H133 C160 0.980 . S
H134 C160 0.983 . S
H135 C159 0.979 . S
H136 C159 0.977 . S
C137 C125 1.450 1_455 S
C137 H166 0.982 1_455 S
C137 H167 0.979 . S
C137 H168 0.977 . S
C138 C125 1.643 1_455 S
C138 H163 0.979 . S
C138 H164 0.980 . S
C138 H165 0.983 . S
C139 C140 1.391 . S
C139 C144 1.391 . S
C139 H169 0.948 1_554 S
C140 C139 1.391 . S
C140 C141 1.391 . S
C141 C140 1.391 . S
C141 C142 1.392 . S
C141 H170 0.947 . S
C142 C141 1.392 . S
C142 C143 1.419 . S
C142 H171 0.948 . S
C143 C142 1.419 . S
C143 C144 1.391 . S
C143 C147 1.397 . S
C144 C139 1.391 . S
C144 C143 1.391 . S
C144 C145 1.399 . S
C145 C144 1.399 . S
C145 C146 1.396 . S
C145 C148 1.450 1_554 S
C145 C149 1.684 1_554 S
C146 C127 1.723 . S
C146 C145 1.396 . S
C146 C147 1.394 . S
C147 C143 1.397 . S
C147 C146 1.394 . S
C147 C157 1.723 . S
C148 C145 1.450 1_556 S
C148 H172 0.960 1_556 S
C148 H173 0.994 . S
C148 H174 0.988 . S
C149 C145 1.684 1_556 S
C149 H175 0.979 . S
C149 H176 0.980 . S
C149 H177 0.983 . S
C150 H126 0.948 . S
C150 C151 1.391 . S
C150 C155 1.367 1_455 S
C151 C150 1.391 . S
C151 C152 1.391 . S
C152 H129 0.947 . S
C152 C151 1.391 . S
C152 C153 1.392 . S
C153 H130 0.948 . S
C153 C152 1.392 . S
C153 C154 1.419 . S
C154 C153 1.419 . S
C154 C155 1.385 1_455 S
C154 C158 1.397 1_455 S
C155 C150 1.367 1_655 S
C155 C154 1.385 1_655 S
C155 C156 1.438 . S
C156 C155 1.438 . S
C156 C157 1.396 . S
C156 C159 1.453 . S
C156 C160 1.684 . S
C157 C147 1.723 . S
C157 C156 1.396 . S
C157 C158 1.394 . S
C158 C128 1.723 . S
C158 C154 1.397 1_655 S
C158 C157 1.394 . S
C159 H131 0.982 . S
C159 H135 0.979 . S
C159 H136 0.977 . S
C159 C156 1.453 . S
C160 H132 0.979 . S
C160 H133 0.980 . S
C160 H134 0.983 . S
C160 C156 1.684 . S
H161 C179 0.948 . S
H162 C120 0.948 1_455 S
H163 C138 0.979 . S
H164 C138 0.980 . S
H165 C138 0.983 . S
H166 C137 0.982 1_655 S
H167 C137 0.979 . S
H168 C137 0.977 . S
H169 C139 0.948 1_556 S
H170 C141 0.947 . S
H171 C142 0.948 . S
H172 C148 0.960 1_554 S
H173 C148 0.994 . S
H174 C148 0.988 . S
H175 C149 0.979 . S
H176 C149 0.980 . S
H177 C149 0.983 . S
H178 C122 0.947 . S
C179 C122 1.392 . S
C179 C123 1.419 1_556 S
C179 H161 0.948 . S
C180 C181 1.391 . S
C180 C184 1.391 . S
C180 H222 0.948 . S
C181 C180 1.391 . S
C181 C182 1.391 . S
C182 C181 1.391 . S
C182 H238 0.947 . S
C182 C239 1.392 . S
C183 C184 1.391 . S
C183 C187 1.397 . S
C183 C239 1.419 . S
C184 C180 1.391 . S
C184 C183 1.391 . S
C184 C185 1.399 . S
C185 C184 1.399 . S
C185 C188 1.396 . S
C185 C197 1.453 . S
C185 C198 1.684 . S
H186 C210 0.948 . S
C187 C183 1.397 . S
C187 C188 1.394 . S
C187 C206 1.723 . S
C188 C185 1.396 . S
C188 C187 1.394 . S
C188 C218 1.723 . S
H189 C212 0.947 . S
H190 C213 0.948 . S
H191 C219 0.982 . S
H192 C220 0.979 . S
H193 C220 0.980 . S
H194 C220 0.983 . S
H195 C219 0.979 . S
H196 C219 0.977 . S
C197 C185 1.453 . S
C197 H226 0.982 . S
C197 H227 0.979 . S
C197 H228 0.977 . S
C198 C185 1.684 . S
C198 H223 0.979 . S
C198 H224 0.980 . S
C198 H225 0.983 . S
C199 C200 1.391 . S
C199 C204 1.391 . S
C199 H229 0.948 . S
C200 C199 1.391 . S
C200 C201 1.391 . S
C201 C200 1.391 . S
C201 C202 1.392 . S
C201 H230 0.947 . S
C202 C201 1.392 . S
C202 C203 1.419 . S
C202 H231 0.948 . S
C203 C202 1.419 . S
C203 C204 1.391 . S
C203 C207 1.397 . S
C204 C199 1.391 . S
C204 C203 1.391 . S
C204 C205 1.399 . S
C205 C204 1.399 . S
C205 C206 1.396 . S
C205 C208 1.453 . S
C205 C209 1.684 . S
C206 C187 1.723 . S
C206 C205 1.396 . S
C206 C207 1.394 . S
C207 C203 1.397 . S
C207 C206 1.394 . S
C207 C217 1.723 . S
C208 C205 1.453 . S
C208 H232 0.982 . S
C208 H233 0.979 . S
C208 H234 0.977 . S
C209 C205 1.684 . S
C209 H235 0.979 . S
C209 H236 0.980 . S
C209 H237 0.983 . S
C210 H186 0.948 . S
C210 C211 1.391 . S
C210 C215 1.391 . S
C211 C210 1.391 . S
C211 C212 1.391 . S
C212 H189 0.947 . S
C212 C211 1.391 . S
C212 C213 1.392 . S
C213 H190 0.948 . S
C213 C212 1.392 . S
C213 C214 1.419 . S
C214 C213 1.419 . S
C214 C215 1.391 . S
C214 C218 1.397 . S
C215 C210 1.391 . S
C215 C214 1.391 . S
C215 C216 1.399 . S
C216 C215 1.399 . S
C216 C217 1.396 . S
C216 C219 1.453 . S
C216 C220 1.684 . S
C217 C207 1.723 . S
C217 C216 1.396 . S
C217 C218 1.394 . S
C218 C188 1.723 . S
C218 C214 1.397 . S
C218 C217 1.394 . S
C219 H191 0.982 . S
C219 H195 0.979 . S
C219 H196 0.977 . S
C219 C216 1.453 . S
C220 H192 0.979 . S
C220 H193 0.980 . S
C220 H194 0.983 . S
C220 C216 1.684 . S
H221 C239 0.948 . S
H222 C180 0.948 . S
H223 C198 0.979 . S
H224 C198 0.980 . S
H225 C198 0.983 . S
H226 C197 0.982 . S
H227 C197 0.979 . S
H228 C197 0.977 . S
H229 C199 0.948 . S
H230 C201 0.947 . S
H231 C202 0.948 . S
H232 C208 0.982 . S
H233 C208 0.979 . S
H234 C208 0.977 . S
H235 C209 0.979 . S
H236 C209 0.980 . S
H237 C209 0.983 . S
H238 C182 0.947 . S
C239 C182 1.392 . S
C239 C183 1.419 . S
C239 H221 0.948 . S
C240 C241 1.391 . S
C240 C244 1.391 . S
C240 H282 0.948 . S
C241 C240 1.391 . S
C241 C242 1.391 . S
C242 C241 1.391 . S
C242 H298 0.947 1_455 S
C242 C299 1.392 . S
C243 C244 1.391 . S
C243 C247 1.397 . S
C243 C299 1.419 . S
C244 C240 1.391 . S
C244 C243 1.391 . S
C244 C245 1.399 . S
C245 C244 1.399 . S
C245 C248 1.396 . S
C245 C257 1.453 . S
C245 C258 1.684 . S
H246 C270 0.948 . S
C247 C243 1.397 . S
C247 C248 1.394 . S
C247 C266 1.723 . S
C248 C245 1.396 . S
C248 C247 1.394 . S
C248 C278 1.723 . S
H249 C272 0.947 . S
H250 C273 0.948 . S
H251 C279 0.982 . S
H252 C280 0.979 . S
H253 C280 0.980 . S
H254 C280 0.983 . S
H255 C279 0.979 . S
H256 C279 0.977 . S
C257 C245 1.453 . S
C257 H286 0.982 . S
C257 H287 0.979 . S
C257 H288 0.977 . S
C258 C245 1.684 . S
C258 H283 0.979 . S
C258 H284 0.980 . S
C258 H285 0.983 . S
C259 C260 1.391 . S
C259 C264 1.391 . S
C259 H289 0.948 . S
C260 C259 1.391 . S
C260 C261 1.394 1_665 S
C261 C260 1.394 1_445 S
C261 C262 1.389 . S
C261 H290 0.947 . S
C262 C261 1.389 . S
C262 C263 1.418 1_545 S
C262 H291 0.948 . S
C263 C262 1.418 1_565 S
C263 C264 1.391 1_455 S
C263 C267 1.397 . S
C264 C259 1.391 . S
C264 C263 1.391 1_655 S
C264 C265 1.399 . S
C265 C264 1.399 . S
C265 C266 1.396 1_655 S
C265 C268 1.453 . S
C265 C269 1.684 . S
C266 C247 1.723 . S
C266 C265 1.396 1_455 S
C266 C267 1.394 . S
C267 C263 1.397 . S
C267 C266 1.394 . S
C267 C277 1.723 . S
C268 C265 1.453 . S
C268 H292 0.982 . S
C268 H293 0.979 . S
C268 H294 0.977 . S
C269 C265 1.684 . S
C269 H295 0.979 1_655 S
C269 H296 0.980 . S
C269 H297 0.983 . S
C270 H246 0.948 . S
C270 C271 1.391 . S
C270 C275 1.391 . S
C271 C270 1.391 . S
C271 C272 1.391 . S
C272 H249 0.947 . S
C272 C271 1.391 . S
C272 C273 1.392 1_545 S
C273 H250 0.948 . S
C273 C272 1.392 1_565 S
C273 C274 1.419 . S
C274 C273 1.419 . S
C274 C275 1.391 1_565 S
C274 C278 1.397 . S
C275 C270 1.391 . S
C275 C274 1.391 1_545 S
C275 C276 1.399 . S
C276 C275 1.399 . S
C276 C277 1.396 1_545 S
C276 C279 1.453 . S
C276 C280 1.684 . S
C277 C267 1.723 . S
C277 C276 1.396 1_565 S
C277 C278 1.394 . S
C278 C248 1.723 . S
C278 C274 1.397 . S
C278 C277 1.394 . S
C279 H251 0.982 . S
C279 H255 0.979 . S
C279 H256 0.977 . S
C279 C276 1.453 . S
C280 H252 0.979 . S
C280 H253 0.980 . S
C280 H254 0.983 . S
C280 C276 1.684 . S
H281 C299 0.934 1_655 S
H282 C240 0.948 . S
H283 C258 0.979 . S
H284 C258 0.980 . S
H285 C258 0.983 . S
H286 C257 0.982 . S
H287 C257 0.979 . S
H288 C257 0.977 . S
H289 C259 0.948 . S
H290 C261 0.947 . S
H291 C262 0.948 . S
H292 C268 0.982 . S
H293 C268 0.979 . S
H294 C268 0.977 . S
H295 C269 0.979 1_455 S
H296 C269 0.980 . S
H297 C269 0.983 . S
H298 C242 0.947 1_655 S
C299 C242 1.392 . S
C299 C243 1.419 . S
C299 H281 0.934 1_455 S
C300 C301 1.391 . S
C300 C304 1.391 . S
C300 H342 0.948 . S
C301 C300 1.391 . S
C301 C302 1.391 . S
C302 C301 1.391 . S
C302 H358 0.947 . S
C302 C359 1.392 . S
C303 C304 1.391 . S
C303 C307 1.397 . S
C303 C359 1.419 . S
C304 C300 1.391 . S
C304 C303 1.391 . S
C304 C305 1.399 . S
C305 C304 1.399 . S
C305 C308 1.396 . S
C305 C317 1.453 . S
C305 C318 1.684 . S
H306 C330 0.948 . S
C307 C303 1.397 . S
C307 C308 1.394 . S
C307 C326 1.723 . S
C308 C305 1.396 . S
C308 C307 1.394 . S
C308 C338 1.723 . S
H309 C332 0.947 . S
H310 C333 0.948 . S
H311 C339 0.982 . S
H312 C340 0.979 . S
H313 C340 0.980 . S
H314 C340 0.983 . S
H315 C339 0.979 . S
H316 C339 0.977 . S
C317 C305 1.453 . S
C317 H346 0.982 . S
C317 H347 0.979 . S
C317 H348 0.977 . S
C318 C305 1.684 . S
C318 H343 0.979 . S
C318 H344 0.980 . S
C318 H345 0.983 . S
C319 C320 1.391 . S
C319 C324 1.391 . S
C319 H349 0.948 . S
C320 C319 1.391 . S
C320 C321 1.391 . S
C321 C320 1.391 . S
C321 C322 1.392 . S
C321 H350 0.947 . S
C322 C321 1.392 . S
C322 C323 1.419 . S
C322 H351 0.948 . S
C323 C322 1.419 . S
C323 C324 1.391 . S
C323 C327 1.397 . S
C324 C319 1.391 . S
C324 C323 1.391 . S
C324 C325 1.399 . S
C325 C324 1.399 . S
C325 C326 1.396 . S
C325 C328 1.453 . S
C325 C329 1.684 . S
C326 C307 1.723 . S
C326 C325 1.396 . S
C326 C327 1.394 . S
C327 C323 1.397 . S
C327 C326 1.394 . S
C327 C337 1.723 . S
C328 C325 1.453 . S
C328 H352 0.982 . S
C328 H353 0.979 . S
C328 H354 0.977 . S
C329 C325 1.684 . S
C329 H355 0.979 . S
C329 H356 0.980 . S
C329 H357 0.983 . S
C330 H306 0.948 . S
C330 C331 1.391 . S
C330 C335 1.391 . S
C331 C330 1.391 . S
C331 C332 1.391 . S
C332 H309 0.947 . S
C332 C331 1.391 . S
C332 C333 1.392 . S
C333 H310 0.948 . S
C333 C332 1.392 . S
C333 C334 1.419 . S
C334 C333 1.419 . S
C334 C335 1.391 . S
C334 C338 1.397 . S
C335 C330 1.391 . S
C335 C334 1.391 . S
C335 C336 1.399 . S
C336 C335 1.399 . S
C336 C337 1.396 . S
C336 C339 1.453 . S
C336 C340 1.684 . S
C337 C327 1.723 . S
C337 C336 1.396 . S
C337 C338 1.394 . S
C338 C308 1.723 . S
C338 C334 1.397 . S
C338 C337 1.394 . S
C339 H311 0.982 . S
C339 H315 0.979 . S
C339 H316 0.977 . S
C339 C336 1.453 . S
C340 H312 0.979 . S
C340 H313 0.980 . S
C340 H314 0.983 . S
C340 C336 1.684 . S
H341 C359 0.948 . S
H342 C300 0.948 . S
H343 C318 0.979 . S
H344 C318 0.980 . S
H345 C318 0.983 . S
H346 C317 0.982 . S
H347 C317 0.979 . S
H348 C317 0.977 . S
H349 C319 0.948 . S
H350 C321 0.947 . S
H351 C322 0.948 . S
H352 C328 0.982 . S
H353 C328 0.979 . S
H354 C328 0.977 . S
H355 C329 0.979 . S
H356 C329 0.980 . S
H357 C329 0.983 . S
H358 C302 0.947 . S
C359 C302 1.392 . S
C359 C303 1.419 . S
C359 H341 0.948 . S
C360 C361 1.391 . S
C360 C364 1.391 . S
C360 H402 0.948 . S
C361 C360 1.391 . S
C361 C362 1.391 . S
C362 C361 1.391 . S
C362 H418 0.947 . S
C362 C419 1.392 . S
C363 C364 1.391 . S
C363 C367 1.397 . S
C363 C419 1.419 . S
C364 C360 1.391 . S
C364 C363 1.391 . S
C364 C365 1.399 . S
C365 C364 1.399 . S
C365 C368 1.396 . S
C365 C377 1.453 . S
C365 C378 1.684 . S
H366 C390 0.910 1_455 S
C367 C363 1.397 . S
C367 C368 1.394 . S
C367 C386 1.723 . S
C368 C365 1.396 . S
C368 C367 1.394 . S
C368 C398 1.723 . S
H369 C392 0.947 . S
H370 C393 0.948 . S
H371 C399 0.982 1_655 S
H372 C400 0.979 . S
H373 C400 0.980 . S
H374 C400 0.983 . S
H375 C399 0.979 . S
H376 C399 0.977 . S
C377 C365 1.453 . S
C377 H406 0.982 . S
C377 H407 0.979 . S
C377 H408 0.977 . S
C378 C365 1.684 . S
C378 H403 0.979 . S
C378 H404 0.980 . S
C378 H405 0.983 . S
C379 C380 1.391 . S
C379 C384 1.391 . S
C379 H409 0.948 . S
C380 C379 1.391 . S
C380 C381 1.391 . S
C381 C380 1.391 . S
C381 C382 1.392 . S
C381 H410 0.947 . S
C382 C381 1.392 . S
C382 C383 1.419 . S
C382 H411 0.948 . S
C383 C382 1.419 . S
C383 C384 1.391 . S
C383 C387 1.397 1_455 S
C384 C379 1.391 . S
C384 C383 1.391 . S
C384 C385 1.399 1_455 S
C385 C384 1.399 1_655 S
C385 C386 1.396 . S
C385 C388 1.453 . S
C385 C389 1.684 . S
C386 C367 1.723 . S
C386 C385 1.396 . S
C386 C387 1.394 . S
C387 C383 1.397 1_655 S
C387 C386 1.394 . S
C387 C397 1.723 . S
C388 C385 1.453 . S
C388 H412 0.982 . S
C388 H413 0.979 . S
C388 H414 0.977 . S
C389 C385 1.684 . S
C389 H415 0.979 . S
C389 H416 0.980 . S
C389 H417 0.983 . S
C390 H366 0.910 1_655 S
C390 C391 1.421 . S
C390 C395 1.401 . S
C391 C390 1.421 . S
C391 C392 1.391 . S
C392 H369 0.947 . S
C392 C391 1.391 . S
C392 C393 1.392 . S
C393 H370 0.948 . S
C393 C392 1.392 . S
C393 C394 1.419 . S
C394 C393 1.419 . S
C394 C395 1.391 . S
C394 C398 1.397 . S
C395 C390 1.401 . S
C395 C394 1.391 . S
C395 C396 1.399 1_655 S
C396 C395 1.399 1_455 S
C396 C397 1.396 1_455 S
C396 C399 1.453 . S
C396 C400 1.684 . S
C397 C387 1.723 . S
C397 C396 1.396 1_655 S
C397 C398 1.394 . S
C398 C368 1.723 . S
C398 C394 1.397 . S
C398 C397 1.394 . S
C399 H371 0.982 1_455 S
C399 H375 0.979 . S
C399 H376 0.977 . S
C399 C396 1.453 . S
C400 H372 0.979 . S
C400 H373 0.980 . S
C400 H374 0.983 . S
C400 C396 1.684 . S
H401 C419 0.948 . S
H402 C360 0.948 . S
H403 C378 0.979 . S
H404 C378 0.980 . S
H405 C378 0.983 . S
H406 C377 0.982 . S
H407 C377 0.979 . S
H408 C377 0.977 . S
H409 C379 0.948 . S
H410 C381 0.947 . S
H411 C382 0.948 . S
H412 C388 0.982 . S
H413 C388 0.979 . S
H414 C388 0.977 . S
H415 C389 0.979 . S
H416 C389 0.980 . S
H417 C389 0.983 . S
H418 C362 0.947 . S
C419 C362 1.392 . S
C419 C363 1.419 . S
C419 H401 0.948 . S
C420 C421 1.391 . S
C420 C424 1.391 . S
C420 H462 0.948 . S
C421 C420 1.391 . S
C421 C422 1.391 . S
C422 C421 1.391 . S
C422 H478 0.947 . S
C422 C479 1.392 . S
C423 C424 1.391 . S
C423 C427 1.397 . S
C423 C479 1.419 . S
C424 C420 1.391 . S
C424 C423 1.391 . S
C424 C425 1.399 . S
C425 C424 1.399 . S
C425 C428 1.396 . S
C425 C437 1.453 . S
C425 C438 1.684 . S
H426 C450 0.948 . S
C427 C423 1.397 . S
C427 C428 1.394 . S
C427 C446 1.723 . S
C428 C425 1.396 . S
C428 C427 1.394 . S
C428 C458 1.723 . S
H429 C452 0.947 . S
H430 C453 0.948 . S
H431 C459 0.982 . S
H432 C460 0.979 . S
H433 C460 0.980 . S
H434 C460 0.983 . S
H435 C459 0.979 . S
H436 C459 0.977 . S
C437 C425 1.453 . S
C437 H466 0.982 . S
C437 H467 0.979 . S
C437 H468 0.977 . S
C438 C425 1.684 . S
C438 H463 0.979 . S
C438 H464 0.980 . S
C438 H465 0.983 . S
C439 C440 1.391 . S
C439 C444 1.391 . S
C439 H469 0.948 . S
C440 C439 1.391 . S
C440 C441 1.391 . S
C441 C440 1.391 . S
C441 C442 1.392 . S
C441 H470 0.947 . S
C442 C441 1.392 . S
C442 C443 1.419 . S
C442 H471 0.948 . S
C443 C442 1.419 . S
C443 C444 1.391 . S
C443 C447 1.397 . S
C444 C439 1.391 . S
C444 C443 1.391 . S
C444 C445 1.399 . S
C445 C444 1.399 . S
C445 C446 1.396 . S
C445 C448 1.453 . S
C445 C449 1.684 . S
C446 C427 1.723 . S
C446 C445 1.396 . S
C446 C447 1.394 . S
C447 C443 1.397 . S
C447 C446 1.394 . S
C447 C457 1.723 . S
C448 C445 1.453 . S
C448 H472 0.982 . S
C448 H473 0.979 . S
C448 H474 0.977 . S
C449 C445 1.684 . S
C449 H475 0.979 . S
C449 H476 0.980 . S
C449 H477 0.983 . S
C450 H426 0.948 . S
C450 C451 1.391 . S
C450 C455 1.391 . S
C451 C450 1.391 . S
C451 C452 1.391 . S
C452 H429 0.947 . S
C452 C451 1.391 . S
C452 C453 1.392 . S
C453 H430 0.948 . S
C453 C452 1.392 . S
C453 C454 1.419 . S
C454 C453 1.419 . S
C454 C455 1.391 . S
C454 C458 1.397 . S
C455 C450 1.391 . S
C455 C454 1.391 . S
C455 C456 1.399 . S
C456 C455 1.399 . S
C456 C457 1.396 . S
C456 C459 1.453 . S
C456 C460 1.684 . S
C457 C447 1.723 . S
C457 C456 1.396 . S
C457 C458 1.394 . S
C458 C428 1.723 . S
C458 C454 1.397 . S
C458 C457 1.394 . S
C459 H431 0.982 . S
C459 H435 0.979 . S
C459 H436 0.977 . S
C459 C456 1.453 . S
C460 H432 0.979 . S
C460 H433 0.980 . S
C460 H434 0.983 . S
C460 C456 1.684 . S
H461 C479 0.948 . S
H462 C420 0.948 . S
H463 C438 0.979 . S
H464 C438 0.980 . S
H465 C438 0.983 . S
H466 C437 0.982 . S
H467 C437 0.979 . S
H468 C437 0.977 . S
H469 C439 0.948 . S
H470 C441 0.947 . S
H471 C442 0.948 . S
H472 C448 0.982 . S
H473 C448 0.979 . S
H474 C448 0.977 . S
H475 C449 0.979 . S
H476 C449 0.980 . S
H477 C449 0.983 . S
H478 C422 0.947 . S
C479 C422 1.392 . S
C479 C423 1.419 . S
C479 H461 0.948 . S
C480 C481 1.391 . S
C480 C484 1.391 . S
C480 H522 0.948 . S
C481 C480 1.391 . S
C481 C482 1.391 . S
C482 C481 1.391 . S
C482 H538 0.947 . S
C482 C539 1.392 . S
C483 C484 1.391 . S
C483 C487 1.397 . S
C483 C539 1.419 . S
C484 C480 1.391 . S
C484 C483 1.391 . S
C484 C485 1.399 . S
C485 C484 1.399 . S
C485 C488 1.396 . S
C485 C497 1.453 . S
C485 C498 1.684 . S
H486 C510 0.948 . S
C487 C483 1.397 . S
C487 C488 1.394 . S
C487 C506 1.723 . S
C488 C485 1.396 . S
C488 C487 1.394 . S
C488 C518 1.723 . S
H489 C512 0.947 . S
H490 C513 0.948 . S
H491 C519 0.982 . S
H492 C520 0.979 . S
H493 C520 0.980 . S
H494 C520 0.983 . S
H495 C519 0.979 . S
H496 C519 0.977 . S
C497 C485 1.453 . S
C497 H526 0.982 . S
C497 H527 0.979 . S
C497 H528 0.977 . S
C498 C485 1.684 . S
C498 H523 0.979 . S
C498 H524 0.980 . S
C498 H525 0.983 . S
C499 C500 1.391 . S
C499 C504 1.391 . S
C499 H529 0.948 . S
C500 C499 1.391 . S
C500 C501 1.391 . S
C501 C500 1.391 . S
C501 C502 1.392 . S
C501 H530 0.947 . S
C502 C501 1.392 . S
C502 C503 1.419 . S
C502 H531 0.948 . S
C503 C502 1.419 . S
C503 C504 1.391 . S
C503 C507 1.397 . S
C504 C499 1.391 . S
C504 C503 1.391 . S
C504 C505 1.399 . S
C505 C504 1.399 . S
C505 C506 1.396 . S
C505 C508 1.453 . S
C505 C509 1.684 . S
C506 C487 1.723 . S
C506 C505 1.396 . S
C506 C507 1.394 . S
C507 C503 1.397 . S
C507 C506 1.394 . S
C507 C517 1.723 . S
C508 C505 1.453 . S
C508 H532 0.982 . S
C508 H533 0.979 . S
C508 H534 0.977 . S
C509 C505 1.684 . S
C509 H535 0.979 . S
C509 H536 0.980 . S
C509 H537 0.983 . S
C510 H486 0.948 . S
C510 C511 1.391 . S
C510 C515 1.391 . S
C511 C510 1.391 . S
C511 C512 1.391 . S
C512 H489 0.947 . S
C512 C511 1.391 . S
C512 C513 1.392 . S
C513 H490 0.948 . S
C513 C512 1.392 . S
C513 C514 1.419 . S
C514 C513 1.419 . S
C514 C515 1.391 . S
C514 C518 1.397 . S
C515 C510 1.391 . S
C515 C514 1.391 . S
C515 C516 1.399 . S
C516 C515 1.399 . S
C516 C517 1.396 . S
C516 C519 1.453 . S
C516 C520 1.684 . S
C517 C507 1.723 . S
C517 C516 1.396 . S
C517 C518 1.394 . S
C518 C488 1.723 . S
C518 C514 1.397 . S
C518 C517 1.394 . S
C519 H491 0.982 . S
C519 H495 0.979 . S
C519 H496 0.977 . S
C519 C516 1.453 . S
C520 H492 0.979 . S
C520 H493 0.980 . S
C520 H494 0.983 . S
C520 C516 1.684 . S
H521 C539 0.948 . S
H522 C480 0.948 . S
H523 C498 0.979 . S
H524 C498 0.980 . S
H525 C498 0.983 . S
H526 C497 0.982 . S
H527 C497 0.979 . S
H528 C497 0.977 . S
H529 C499 0.948 . S
H530 C501 0.947 . S
H531 C502 0.948 . S
H532 C508 0.982 . S
H533 C508 0.979 . S
H534 C508 0.977 . S
H535 C509 0.979 . S
H536 C509 0.980 . S
H537 C509 0.983 . S
H538 C482 0.947 . S
C539 C482 1.392 . S
C539 C483 1.419 . S
C539 H521 0.948 . S
C540 C541 1.391 . S
C540 C544 1.391 . S
C540 H582 0.948 . S
C541 C540 1.391 . S
C541 C542 1.391 . S
C542 C541 1.391 . S
C542 H598 0.947 . S
C542 C599 1.392 . S
C543 C544 1.391 . S
C543 C547 1.397 . S
C543 C599 1.419 . S
C544 C540 1.391 . S
C544 C543 1.391 . S
C544 C545 1.399 . S
C545 C544 1.399 . S
C545 C548 1.396 . S
C545 C557 1.453 . S
C545 C558 1.684 . S
H546 C570 0.948 1_545 S
C547 C543 1.397 . S
C547 C548 1.394 . S
C547 C566 1.723 . S
C548 C545 1.396 . S
C548 C547 1.394 . S
C548 C578 1.723 . S
H549 C572 0.947 . S
H550 C573 0.948 . S
H551 C579 0.982 1_565 S
H552 C580 0.979 . S
H553 C580 0.980 . S
H554 C580 0.983 . S
H555 C579 0.979 . S
H556 C579 0.977 . S
C557 C545 1.453 . S
C557 H586 0.982 . S
C557 H587 0.979 . S
C557 H588 0.977 . S
C558 C545 1.684 . S
C558 H583 0.979 . S
C558 H584 0.980 . S
C558 H585 0.983 . S
C559 C560 1.391 . S
C559 C564 1.391 1_545 S
C559 H589 0.948 . S
C560 C559 1.391 . S
C560 C561 1.391 . S
C561 C560 1.391 . S
C561 C562 1.392 . S
C561 H590 0.947 . S
C562 C561 1.392 . S
C562 C563 1.419 . S
C562 H591 0.948 . S
C563 C562 1.419 . S
C563 C564 1.391 1_545 S
C563 C567 1.397 1_545 S
C564 C559 1.391 1_565 S
C564 C563 1.391 1_565 S
C564 C565 1.399 . S
C565 C564 1.399 . S
C565 C566 1.396 . S
C565 C568 1.453 . S
C565 C569 1.684 . S
C566 C547 1.723 . S
C566 C565 1.396 . S
C566 C567 1.394 . S
C567 C563 1.397 1_565 S
C567 C566 1.394 . S
C567 C577 1.723 . S
C568 C565 1.453 . S
C568 H592 0.982 . S
C568 H593 0.979 . S
C568 H594 0.977 . S
C569 C565 1.684 . S
C569 H595 0.979 . S
C569 H596 0.980 . S
C569 H597 0.983 . S
C570 H546 0.948 1_565 S
C570 C571 1.391 . S
C570 C575 1.391 . S
C571 C570 1.391 . S
C571 C572 1.391 . S
C572 H549 0.947 . S
C572 C571 1.391 . S
C572 C573 1.392 . S
C573 H550 0.948 . S
C573 C572 1.392 . S
C573 C574 1.419 . S
C574 C573 1.419 . S
C574 C575 1.391 . S
C574 C578 1.397 . S
C575 C570 1.391 . S
C575 C574 1.391 . S
C575 C576 1.410 . S
C576 C575 1.410 . S
C576 C577 1.410 . S
C576 C579 1.451 1_565 S
C576 C580 1.661 1_565 S
C577 C567 1.723 . S
C577 C576 1.410 . S
C577 C578 1.394 . S
C578 C548 1.723 . S
C578 C574 1.397 . S
C578 C577 1.394 . S
C579 H551 0.982 1_545 S
C579 H555 0.979 . S
C579 H556 0.977 . S
C579 C576 1.451 1_545 S
C580 H552 0.979 . S
C580 H553 0.980 . S
C580 H554 0.983 . S
C580 C576 1.661 1_545 S
H581 C599 0.948 . S
H582 C540 0.948 . S
H583 C558 0.979 . S
H584 C558 0.980 . S
H585 C558 0.983 . S
H586 C557 0.982 . S
H587 C557 0.979 . S
H588 C557 0.977 . S
H589 C559 0.948 . S
H590 C561 0.947 . S
H591 C562 0.948 . S
H592 C568 0.982 . S
H593 C568 0.979 . S
H594 C568 0.977 . S
H595 C569 0.979 . S
H596 C569 0.980 . S
H597 C569 0.983 . S
H598 C542 0.947 . S
C599 C542 1.392 . S
C599 C543 1.419 . S
C599 H581 0.948 . S
C600 C601 1.391 . S
C600 C604 1.391 . S
C600 H642 0.948 . S
C601 C600 1.391 . S
C601 C602 1.391 . S
C602 C601 1.391 . S
C602 H658 0.947 . S
C602 C659 1.392 . S
C603 C604 1.391 . S
C603 C607 1.397 . S
C603 C659 1.419 . S
C604 C600 1.391 . S
C604 C603 1.391 . S
C604 C605 1.399 . S
C605 C604 1.399 . S
C605 C608 1.396 . S
C605 C617 1.453 . S
C605 C618 1.684 . S
H606 C630 0.948 . S
C607 C603 1.397 . S
C607 C608 1.394 . S
C607 C626 1.723 . S
C608 C605 1.396 . S
C608 C607 1.394 . S
C608 C638 1.723 . S
H609 C632 0.947 . S
H610 C633 0.948 . S
H611 C639 0.982 . S
H612 C640 0.979 . S
H613 C640 0.980 . S
H614 C640 0.983 . S
H615 C639 0.979 . S
H616 C639 0.977 . S
C617 C605 1.453 . S
C617 H646 0.982 . S
C617 H647 0.979 . S
C617 H648 0.977 . S
C618 C605 1.684 . S
C618 H643 0.979 . S
C618 H644 0.980 . S
C618 H645 0.983 . S
C619 C620 1.391 . S
C619 C624 1.391 . S
C619 H649 0.948 . S
C620 C619 1.391 . S
C620 C621 1.391 . S
C621 C620 1.391 . S
C621 C622 1.392 . S
C621 H650 0.947 . S
C622 C621 1.392 . S
C622 C623 1.419 . S
C622 H651 0.948 . S
C623 C622 1.419 . S
C623 C624 1.391 . S
C623 C627 1.397 . S
C624 C619 1.391 . S
C624 C623 1.391 . S
C624 C625 1.399 . S
C625 C624 1.399 . S
C625 C626 1.396 . S
C625 C628 1.453 . S
C625 C629 1.684 . S
C626 C607 1.723 . S
C626 C625 1.396 . S
C626 C627 1.394 . S
C627 C623 1.397 . S
C627 C626 1.394 . S
C627 C637 1.723 . S
C628 C625 1.453 . S
C628 H652 0.982 . S
C628 H653 0.979 . S
C628 H654 0.977 . S
C629 C625 1.684 . S
C629 H655 0.979 . S
C629 H656 0.980 . S
C629 H657 0.983 . S
C630 H606 0.948 . S
C630 C631 1.391 . S
C630 C635 1.391 . S
C631 C630 1.391 . S
C631 C632 1.391 . S
C632 H609 0.947 . S
C632 C631 1.391 . S
C632 C633 1.392 . S
C633 H610 0.948 . S
C633 C632 1.392 . S
C633 C634 1.419 . S
C634 C633 1.419 . S
C634 C635 1.391 . S
C634 C638 1.397 . S
C635 C630 1.391 . S
C635 C634 1.391 . S
C635 C636 1.399 . S
C636 C635 1.399 . S
C636 C637 1.396 . S
C636 C639 1.453 . S
C636 C640 1.684 . S
C637 C627 1.723 . S
C637 C636 1.396 . S
C637 C638 1.394 . S
C638 C608 1.723 . S
C638 C634 1.397 . S
C638 C637 1.394 . S
C639 H611 0.982 . S
C639 H615 0.979 . S
C639 H616 0.977 . S
C639 C636 1.453 . S
C640 H612 0.979 . S
C640 H613 0.980 . S
C640 H614 0.983 . S
C640 C636 1.684 . S
H641 C659 0.948 . S
H642 C600 0.948 . S
H643 C618 0.979 . S
H644 C618 0.980 . S
H645 C618 0.983 . S
H646 C617 0.982 . S
H647 C617 0.979 . S
H648 C617 0.977 . S
H649 C619 0.948 . S
H650 C621 0.947 . S
H651 C622 0.948 . S
H652 C628 0.982 . S
H653 C628 0.979 . S
H654 C628 0.977 . S
H655 C629 0.979 . S
H656 C629 0.980 . S
H657 C629 0.983 . S
H658 C602 0.947 . S
C659 C602 1.392 . S
C659 C603 1.419 . S
C659 H641 0.948 . S
C660 C661 1.391 . S
C660 C664 1.391 . S
C660 H702 0.948 . S
C661 C660 1.391 . S
C661 C662 1.391 . S
C662 C661 1.391 . S
C662 H718 0.947 . S
C662 C719 1.392 . S
C663 C664 1.391 . S
C663 C667 1.397 . S
C663 C719 1.419 . S
C664 C660 1.391 . S
C664 C663 1.391 . S
C664 C665 1.399 . S
C665 C664 1.399 . S
C665 C668 1.396 . S
C665 C677 1.453 . S
C665 C678 1.684 . S
H666 C690 0.948 . S
C667 C663 1.397 . S
C667 C668 1.394 . S
C667 C686 1.723 . S
C668 C665 1.396 . S
C668 C667 1.394 . S
C668 C698 1.723 . S
H669 C692 0.947 . S
H670 C693 0.948 . S
H671 C699 0.982 . S
H672 C700 0.979 . S
H673 C700 0.980 . S
H674 C700 0.983 . S
H675 C699 0.979 . S
H676 C699 0.977 . S
C677 C665 1.453 . S
C677 H706 0.982 . S
C677 H707 0.979 . S
C677 H708 0.977 . S
C678 C665 1.684 . S
C678 H703 0.979 . S
C678 H704 0.980 . S
C678 H705 0.983 . S
C679 C680 1.391 . S
C679 C684 1.391 . S
C679 H709 0.948 . S
C680 C679 1.391 . S
C680 C681 1.391 . S
C681 C680 1.391 . S
C681 C682 1.392 . S
C681 H710 0.947 . S
C682 C681 1.392 . S
C682 C683 1.419 . S
C682 H711 0.948 . S
C683 C682 1.419 . S
C683 C684 1.391 . S
C683 C687 1.397 . S
C684 C679 1.391 . S
C684 C683 1.391 . S
C684 C685 1.399 . S
C685 C684 1.399 . S
C685 C686 1.396 . S
C685 C688 1.453 . S
C685 C689 1.684 . S
C686 C667 1.723 . S
C686 C685 1.396 . S
C686 C687 1.394 . S
C687 C683 1.397 . S
C687 C686 1.394 . S
C687 C697 1.723 . S
C688 C685 1.453 . S
C688 H712 0.982 . S
C688 H713 0.979 . S
C688 H714 0.977 . S
C689 C685 1.684 . S
C689 H715 0.979 . S
C689 H716 0.980 . S
C689 H717 0.983 . S
C690 H666 0.948 . S
C690 C691 1.391 . S
C690 C695 1.391 . S
C691 C690 1.391 . S
C691 C692 1.391 . S
C692 H669 0.947 . S
C692 C691 1.391 . S
C692 C693 1.392 . S
C693 H670 0.948 . S
C693 C692 1.392 . S
C693 C694 1.419 . S
C694 C693 1.419 . S
C694 C695 1.391 . S
C694 C698 1.397 . S
C695 C690 1.391 . S
C695 C694 1.391 . S
C695 C696 1.399 . S
C696 C695 1.399 . S
C696 C697 1.396 . S
C696 C699 1.453 . S
C696 C700 1.684 . S
C697 C687 1.723 . S
C697 C696 1.396 . S
C697 C698 1.394 . S
C698 C668 1.723 . S
C698 C694 1.397 . S
C698 C697 1.394 . S
C699 H671 0.982 . S
C699 H675 0.979 . S
C699 H676 0.977 . S
C699 C696 1.453 . S
C700 H672 0.979 . S
C700 H673 0.980 . S
C700 H674 0.983 . S
C700 C696 1.684 . S
H701 C719 0.948 . S
H702 C660 0.948 . S
H703 C678 0.979 . S
H704 C678 0.980 . S
H705 C678 0.983 . S
H706 C677 0.982 . S
H707 C677 0.979 . S
H708 C677 0.977 . S
H709 C679 0.948 . S
H710 C681 0.947 . S
H711 C682 0.948 . S
H712 C688 0.982 . S
H713 C688 0.979 . S
H714 C688 0.977 . S
H715 C689 0.979 . S
H716 C689 0.980 . S
H717 C689 0.983 . S
H718 C662 0.947 . S
C719 C662 1.392 . S
C719 C663 1.419 . S
C719 H701 0.948 . S
C720 C721 1.391 . S
C720 C724 1.391 . S
C720 H762 0.948 . S
C721 C720 1.391 . S
C721 C722 1.391 . S
C722 C721 1.391 . S
C722 H778 0.947 . S
C722 C779 1.392 . S
C723 C724 1.391 . S
C723 C727 1.397 . S
C723 C779 1.419 . S
C724 C720 1.391 . S
C724 C723 1.391 . S
C724 C725 1.399 . S
C725 C724 1.399 . S
C725 C728 1.396 . S
C725 C737 1.453 . S
C725 C738 1.684 . S
H726 C750 0.948 . S
C727 C723 1.397 . S
C727 C728 1.394 . S
C727 C746 1.723 . S
C728 C725 1.396 . S
C728 C727 1.394 . S
C728 C758 1.723 . S
H729 C752 0.947 . S
H730 C753 0.948 . S
H731 C759 0.982 . S
H732 C760 0.979 . S
H733 C760 0.980 . S
H734 C760 0.983 . S
H735 C759 0.979 . S
H736 C759 0.977 . S
C737 C725 1.453 . S
C737 H766 0.982 . S
C737 H767 0.979 . S
C737 H768 0.977 . S
C738 C725 1.684 . S
C738 H763 0.979 . S
C738 H764 0.980 . S
C738 H765 0.983 . S
C739 C740 1.391 . S
C739 C744 1.391 . S
C739 H769 0.948 . S
C740 C739 1.391 . S
C740 C741 1.391 . S
C741 C740 1.391 . S
C741 C742 1.392 . S
C741 H770 0.947 . S
C742 C741 1.392 . S
C742 C743 1.419 . S
C742 H771 0.948 . S
C743 C742 1.419 . S
C743 C744 1.391 . S
C743 C747 1.397 . S
C744 C739 1.391 . S
C744 C743 1.391 . S
C744 C745 1.399 . S
C745 C744 1.399 . S
C745 C746 1.396 . S
C745 C748 1.453 . S
C745 C749 1.684 . S
C746 C727 1.723 . S
C746 C745 1.396 . S
C746 C747 1.394 . S
C747 C743 1.397 . S
C747 C746 1.394 . S
C747 C757 1.723 . S
C748 C745 1.453 . S
C748 H772 0.982 . S
C748 H773 0.979 . S
C748 H774 0.977 . S
C749 C745 1.684 . S
C749 H775 0.979 . S
C749 H776 0.980 . S
C749 H777 0.983 . S
C750 H726 0.948 . S
C750 C751 1.391 . S
C750 C755 1.391 . S
C751 C750 1.391 . S
C751 C752 1.391 . S
C752 H729 0.947 . S
C752 C751 1.391 . S
C752 C753 1.392 . S
C753 H730 0.948 . S
C753 C752 1.392 . S
C753 C754 1.419 . S
C754 C753 1.419 . S
C754 C755 1.391 . S
C754 C758 1.397 . S
C755 C750 1.391 . S
C755 C754 1.391 . S
C755 C756 1.399 . S
C756 C755 1.399 . S
C756 C757 1.396 . S
C756 C759 1.453 . S
C756 C760 1.684 . S
C757 C747 1.723 . S
C757 C756 1.396 . S
C757 C758 1.394 . S
C758 C728 1.723 . S
C758 C754 1.397 . S
C758 C757 1.394 . S
C759 H731 0.982 . S
C759 H735 0.979 . S
C759 H736 0.977 . S
C759 C756 1.453 . S
C760 H732 0.979 . S
C760 H733 0.980 . S
C760 H734 0.983 . S
C760 C756 1.684 . S
H761 C779 0.948 . S
H762 C720 0.948 . S
H763 C738 0.979 . S
H764 C738 0.980 . S
H765 C738 0.983 . S
H766 C737 0.982 . S
H767 C737 0.979 . S
H768 C737 0.977 . S
H769 C739 0.948 . S
H770 C741 0.947 . S
H771 C742 0.948 . S
H772 C748 0.982 . S
H773 C748 0.979 . S
H774 C748 0.977 . S
H775 C749 0.979 . S
H776 C749 0.980 . S
H777 C749 0.983 . S
H778 C722 0.947 . S
C779 C722 1.392 . S
C779 C723 1.419 . S
C779 H761 0.948 . S
C780 C781 1.391 . S
C780 C784 1.391 . S
C780 H822 0.948 . S
C781 C780 1.391 . S
C781 C782 1.391 . S
C782 C781 1.391 . S
C782 H838 0.947 . S
C782 C839 1.392 1_554 S
C783 C784 1.391 1_556 S
C783 C787 1.397 . S
C783 C839 1.419 . S
C784 C780 1.391 . S
C784 C783 1.391 1_554 S
C784 C785 1.399 . S
C785 C784 1.399 . S
C785 C788 1.396 1_554 S
C785 C797 1.453 . S
C785 C798 1.684 . S
H786 C810 0.948 . S
C787 C783 1.397 . S
C787 C788 1.394 . S
C787 C806 1.723 . S
C788 C785 1.396 1_556 S
C788 C787 1.394 . S
C788 C818 1.723 . S
H789 C812 0.947 1_554 S
H790 C813 0.948 1_554 S
H791 C819 0.982 . S
H792 C820 0.979 . S
H793 C820 0.980 . S
H794 C820 0.983 . S
H795 C819 0.979 . S
H796 C819 0.977 . S
C797 C785 1.453 . S
C797 H826 0.982 . S
C797 H827 0.979 . S
C797 H828 0.977 . S
C798 C785 1.684 . S
C798 H823 0.979 1_554 S
C798 H824 0.980 . S
C798 H825 0.983 . S
C799 C800 1.391 . S
C799 C804 1.391 . S
C799 H829 0.948 . S
C800 C799 1.391 . S
C800 C801 1.391 . S
C801 C800 1.391 . S
C801 C802 1.392 . S
C801 H830 0.947 . S
C802 C801 1.392 . S
C802 C803 1.419 . S
C802 H831 0.948 . S
C803 C802 1.419 . S
C803 C804 1.391 . S
C803 C807 1.397 . S
C804 C799 1.391 . S
C804 C803 1.391 . S
C804 C805 1.399 . S
C805 C804 1.399 . S
C805 C806 1.396 . S
C805 C808 1.453 . S
C805 C809 1.684 . S
C806 C787 1.723 . S
C806 C805 1.396 . S
C806 C807 1.394 . S
C807 C803 1.397 . S
C807 C806 1.394 . S
C807 C817 1.723 . S
C808 C805 1.453 . S
C808 H832 0.982 . S
C808 H833 0.979 . S
C808 H834 0.977 . S
C809 C805 1.684 . S
C809 H835 0.979 . S
C809 H836 0.980 . S
C809 H837 0.983 . S
C810 H786 0.948 . S
C810 C811 1.391 . S
C810 C815 1.391 . S
C811 C810 1.391 . S
C811 C812 1.391 . S
C812 H789 0.947 1_556 S
C812 C811 1.391 . S
C812 C813 1.392 . S
C813 H790 0.948 1_556 S
C813 C812 1.392 . S
C813 C814 1.419 . S
C814 C813 1.419 . S
C814 C815 1.391 . S
C814 C818 1.397 . S
C815 C810 1.391 . S
C815 C814 1.391 . S
C815 C816 1.399 . S
C816 C815 1.399 . S
C816 C817 1.396 . S
C816 C819 1.453 . S
C816 C820 1.684 . S
C817 C807 1.723 . S
C817 C816 1.396 . S
C817 C818 1.394 . S
C818 C788 1.723 . S
C818 C814 1.397 . S
C818 C817 1.394 . S
C819 H791 0.982 . S
C819 H795 0.979 . S
C819 H796 0.977 . S
C819 C816 1.453 . S
C820 H792 0.979 . S
C820 H793 0.980 . S
C820 H794 0.983 . S
C820 C816 1.684 . S
H821 C839 0.948 . S
H822 C780 0.948 . S
H823 C798 0.979 1_556 S
H824 C798 0.980 . S
H825 C798 0.983 . S
H826 C797 0.982 . S
H827 C797 0.979 . S
H828 C797 0.977 . S
H829 C799 0.948 . S
H830 C801 0.947 . S
H831 C802 0.948 . S
H832 C808 0.982 . S
H833 C808 0.979 . S
H834 C808 0.977 . S
H835 C809 0.979 . S
H836 C809 0.980 . S
H837 C809 0.983 . S
H838 C782 0.947 . S
C839 C782 1.392 1_556 S
C839 C783 1.419 . S
C839 H821 0.948 . S
C840 C841 1.391 . S
C840 C844 1.391 . S
C840 H882 0.948 . S
C841 C840 1.391 . S
C841 C842 1.391 . S
C842 C841 1.391 . S
C842 H898 0.947 . S
C842 C899 1.392 . S
C843 C844 1.391 . S
C843 C847 1.397 . S
C843 C899 1.419 . S
C844 C840 1.391 . S
C844 C843 1.391 . S
C844 C845 1.399 . S
C845 C844 1.399 . S
C845 C848 1.396 . S
C845 C857 1.453 . S
C845 C858 1.684 . S
H846 C870 0.948 . S
C847 C843 1.397 . S
C847 C848 1.394 . S
C847 C866 1.723 . S
C848 C845 1.396 . S
C848 C847 1.394 . S
C848 C878 1.723 . S
H849 C872 0.947 . S
H850 C873 0.948 . S
H851 C879 0.982 . S
H852 C880 0.979 . S
H853 C880 0.980 . S
H854 C880 0.983 . S
H855 C879 0.979 . S
H856 C879 0.977 . S
C857 C845 1.453 . S
C857 H886 0.982 . S
C857 H887 0.979 . S
C857 H888 0.977 . S
C858 C845 1.684 . S
C858 H883 0.979 . S
C858 H884 0.980 . S
C858 H885 0.983 . S
C859 C860 1.391 . S
C859 C864 1.391 . S
C859 H889 0.948 . S
C860 C859 1.391 . S
C860 C861 1.391 . S
C861 C860 1.391 . S
C861 C862 1.392 . S
C861 H890 0.947 . S
C862 C861 1.392 . S
C862 C863 1.419 . S
C862 H891 0.948 . S
C863 C862 1.419 . S
C863 C864 1.391 . S
C863 C867 1.397 . S
C864 C859 1.391 . S
C864 C863 1.391 . S
C864 C865 1.399 . S
C865 C864 1.399 . S
C865 C866 1.396 . S
C865 C868 1.453 . S
C865 C869 1.684 . S
C866 C847 1.723 . S
C866 C865 1.396 . S
C866 C867 1.394 . S
C867 C863 1.397 . S
C867 C866 1.394 . S
C867 C877 1.723 . S
C868 C865 1.453 . S
C868 H892 0.982 . S
C868 H893 0.979 . S
C868 H894 0.977 . S
C869 C865 1.684 . S
C869 H895 0.979 . S
C869 H896 0.980 . S
C869 H897 0.983 . S
C870 H846 0.948 . S
C870 C871 1.391 . S
C870 C875 1.391 . S
C871 C870 1.391 . S
C871 C872 1.391 . S
C872 H849 0.947 . S
C872 C871 1.391 . S
C872 C873 1.392 . S
C873 H850 0.948 . S
C873 C872 1.392 . S
C873 C874 1.419 . S
C874 C873 1.419 . S
C874 C875 1.391 . S
C874 C878 1.397 . S
C875 C870 1.391 . S
C875 C874 1.391 . S
C875 C876 1.399 . S
C876 C875 1.399 . S
C876 C877 1.396 . S
C876 C879 1.453 . S
C876 C880 1.684 . S
C877 C867 1.723 . S
C877 C876 1.396 . S
C877 C878 1.394 . S
C878 C848 1.723 . S
C878 C874 1.397 . S
C878 C877 1.394 . S
C879 H851 0.982 . S
C879 H855 0.979 . S
C879 H856 0.977 . S
C879 C876 1.453 . S
C880 H852 0.979 . S
C880 H853 0.980 . S
C880 H854 0.983 . S
C880 C876 1.684 . S
H881 C899 0.948 . S
H882 C840 0.948 . S
H883 C858 0.979 . S
H884 C858 0.980 . S
H885 C858 0.983 . S
H886 C857 0.982 . S
H887 C857 0.979 . S
H888 C857 0.977 . S
H889 C859 0.948 . S
H890 C861 0.947 . S
H891 C862 0.948 . S
H892 C868 0.982 . S
H893 C868 0.979 . S
H894 C868 0.977 . S
H895 C869 0.979 . S
H896 C869 0.980 . S
H897 C869 0.983 . S
H898 C842 0.947 . S
C899 C842 1.392 . S
C899 C843 1.419 . S
C899 H881 0.948 . S
C900 C901 1.391 . S
C900 C904 1.391 1_565 S
C900 H942 0.948 1_556 S
C901 C900 1.391 . S
C901 C902 1.391 . S
C902 C901 1.391 . S
C902 H958 0.947 . S
C902 C959 1.392 . S
C903 C904 1.391 . S
C903 C907 1.397 . S
C903 C959 1.419 1_545 S
C904 C900 1.391 1_545 S
C904 C903 1.391 . S
C904 C905 1.399 1_556 S
C905 C904 1.399 1_554 S
C905 C908 1.396 1_554 S
C905 C917 1.453 . S
C905 C918 1.684 . S
H906 C930 0.948 . S
C907 C903 1.397 . S
C907 C908 1.394 . S
C907 C926 1.723 . S
C908 C905 1.396 1_556 S
C908 C907 1.394 . S
C908 C938 1.723 . S
H909 C932 0.947 . S
H910 C933 0.948 . S
H911 C939 0.982 . S
H912 C940 0.979 . S
H913 C940 0.980 . S
H914 C940 0.983 . S
H915 C939 0.979 . S
H916 C939 0.977 . S
C917 C905 1.453 . S
C917 H946 0.982 1_554 S
C917 H947 0.979 . S
C917 H948 0.977 . S
C918 C905 1.684 . S
C918 H943 0.979 . S
C918 H944 0.980 . S
C918 H945 0.983 . S
C919 C920 1.391 . S
C919 C924 1.391 . S
C919 H949 0.948 1_545 S
C920 C919 1.391 . S
C920 C921 1.391 . S
C921 C920 1.391 . S
C921 C922 1.392 . S
C921 H950 0.947 . S
C922 C921 1.392 . S
C922 C923 1.419 . S
C922 H951 0.948 . S
C923 C922 1.419 . S
C923 C924 1.391 . S
C923 C927 1.397 . S
C924 C919 1.391 . S
C924 C923 1.391 . S
C924 C925 1.399 . S
C925 C924 1.399 . S
C925 C926 1.396 . S
C925 C928 1.453 . S
C925 C929 1.684 1_545 S
C926 C907 1.723 . S
C926 C925 1.396 . S
C926 C927 1.394 . S
C927 C923 1.397 . S
C927 C926 1.394 . S
C927 C937 1.723 . S
C928 C925 1.453 . S
C928 H952 0.982 . S
C928 H953 0.979 1_545 S
C928 H954 0.977 1_545 S
C929 C925 1.684 1_565 S
C929 H955 0.979 . S
C929 H956 0.980 . S
C929 H957 0.983 . S
C930 H906 0.948 . S
C930 C931 1.391 . S
C930 C935 1.391 . S
C931 C930 1.391 . S
C931 C932 1.391 . S
C932 H909 0.947 . S
C932 C931 1.391 . S
C932 C933 1.392 . S
C933 H910 0.948 . S
C933 C932 1.392 . S
C933 C934 1.419 . S
C934 C933 1.419 . S
C934 C935 1.391 . S
C934 C938 1.397 1_554 S
C935 C930 1.391 . S
C935 C934 1.391 . S
C935 C936 1.399 1_554 S
C936 C935 1.399 1_556 S
C936 C937 1.396 . S
C936 C939 1.453 . S
C936 C940 1.684 . S
C937 C927 1.723 . S
C937 C936 1.396 . S
C937 C938 1.394 . S
C938 C908 1.723 . S
C938 C934 1.397 1_556 S
C938 C937 1.394 . S
C939 H911 0.982 . S
C939 H915 0.979 . S
C939 H916 0.977 . S
C939 C936 1.453 . S
C940 H912 0.979 . S
C940 H913 0.980 . S
C940 H914 0.983 . S
C940 C936 1.684 . S
H941 C959 0.948 . S
H942 C900 0.948 1_554 S
H943 C918 0.979 . S
H944 C918 0.980 . S
H945 C918 0.983 . S
H946 C917 0.982 1_556 S
H947 C917 0.979 . S
H948 C917 0.977 . S
H949 C919 0.948 1_565 S
H950 C921 0.947 . S
H951 C922 0.948 . S
H952 C928 0.982 . S
H953 C928 0.979 1_565 S
H954 C928 0.977 1_565 S
H955 C929 0.979 . S
H956 C929 0.980 . S
H957 C929 0.983 . S
H958 C902 0.947 . S
C959 C902 1.392 . S
C959 C903 1.419 1_565 S
C959 H941 0.948 . S
Mn960 O965 2.095 . S
Mn960 O975 2.162 . S
Mn960 O976 2.297 . S
Mn960 O984 2.374 1_554 S
Mn960 O985 2.209 1_554 S
Mn960 O986 2.094 . S
Mn961 O966 2.121 . S
Mn961 N968 2.257 . S
Mn961 N977 2.282 . S
Mn961 O985 2.215 . S
Mn961 O987 2.117 . S
C962 O984 1.255 . S
C962 O985 1.283 . S
C963 O975 1.281 . S
C963 O976 1.236 . S
C964 O986 1.240 . S
C964 O987 1.264 1_554 S
O965 Mn960 2.095 . S
O965 C974 1.250 . S
O966 Mn961 2.121 . S
O966 C974 1.258 1_556 S
C967 N968 1.326 . S
C967 C971 1.460 . S
C967 H973 0.929 . S
N968 Mn961 2.257 . S
N968 C967 1.326 . S
N968 C972 1.362 . S
C969 C970 1.258 . S
C969 C972 1.431 . S
C969 C989 1.449 . S
C970 C969 1.258 . S
C970 C971 1.477 . S
C970 H990 0.931 . S
C971 C967 1.460 . S
C971 C970 1.477 . S
C971 H991 0.930 . S
C972 N968 1.362 . S
C972 C969 1.431 . S
C972 C982 1.476 . S
H973 C967 0.929 . S
C974 O965 1.250 . S
C974 O966 1.258 1_554 S
O975 Mn960 2.162 . S
O975 C963 1.281 . S
O976 Mn960 2.297 . S
O976 C963 1.236 . S
N977 Mn961 2.282 . S
N977 C978 1.328 . S
N977 C982 1.318 . S
C978 N977 1.328 . S
C978 C979 1.457 . S
C978 H983 0.929 . S
C979 C978 1.457 . S
C979 C980 1.291 . S
C979 H992 0.931 . S
C980 C979 1.291 . S
C980 C981 1.373 . S
C980 H993 0.929 . S
C981 C980 1.373 . S
C981 C982 1.396 . S
C981 C988 1.403 . S
C982 C972 1.476 . S
C982 N977 1.318 . S
C982 C981 1.396 . S
H983 C978 0.929 . S
O984 Mn960 2.374 1_556 S
O984 C962 1.255 . S
O985 Mn960 2.209 1_556 S
O985 Mn961 2.215 . S
O985 C962 1.283 . S
O986 Mn960 2.094 . S
O986 C964 1.240 . S
O987 Mn961 2.117 . S
O987 C964 1.264 1_556 S
C988 C981 1.403 . S
C988 C989 1.399 . S
C988 H994 0.929 . S
C989 C969 1.449 . S
C989 C988 1.399 . S
C989 H995 0.930 . S
H990 C970 0.931 . S
H991 C971 0.930 . S
H992 C979 0.931 . S
H993 C980 0.929 . S
H994 C988 0.929 . S
H995 C989 0.930 . S
Mn996 O1001 2.095 . S
Mn996 O1011 2.162 . S
Mn996 O1012 2.297 . S
Mn996 O1020 2.385 . S
Mn996 O1021 2.209 . S
Mn996 O1022 2.094 . S
Mn997 O1002 2.121 . S
Mn997 N1004 2.257 . S
Mn997 N1013 2.282 . S
Mn997 O1021 2.215 . S
Mn997 O1023 2.117 . S
C998 O1020 1.234 . S
C998 O1021 1.283 . S
C999 O1011 1.281 . S
C999 O1012 1.236 . S
C1000 O1022 1.240 . S
C1000 O1023 1.264 . S
O1001 Mn996 2.095 . S
O1001 C1010 1.250 . S
O1002 Mn997 2.121 . S
O1002 C1010 1.258 . S
C1003 N1004 1.326 . S
C1003 C1007 1.460 . S
C1003 H1009 0.929 . S
N1004 Mn997 2.257 . S
N1004 C1003 1.326 . S
N1004 C1008 1.362 . S
C1005 C1006 1.258 . S
C1005 C1008 1.431 . S
C1005 C1025 1.449 . S
C1006 C1005 1.258 . S
C1006 C1007 1.477 . S
C1006 H1026 0.931 . S
C1007 C1003 1.460 . S
C1007 C1006 1.477 . S
C1007 H1027 0.930 . S
C1008 N1004 1.362 . S
C1008 C1005 1.431 . S
C1008 C1018 1.476 . S
H1009 C1003 0.929 . S
C1010 O1001 1.250 . S
C1010 O1002 1.258 . S
O1011 Mn996 2.162 . S
O1011 C999 1.281 . S
O1012 Mn996 2.297 . S
O1012 C999 1.236 . S
N1013 Mn997 2.282 . S
N1013 C1014 1.328 . S
N1013 C1018 1.318 . S
C1014 N1013 1.328 . S
C1014 C1015 1.457 . S
C1014 H1019 0.929 . S
C1015 C1014 1.457 . S
C1015 C1016 1.291 . S
C1015 H1028 0.931 . S
C1016 C1015 1.291 . S
C1016 C1017 1.373 . S
C1016 H1029 0.929 . S
C1017 C1016 1.373 . S
C1017 C1018 1.396 . S
C1017 C1024 1.403 . S
C1018 C1008 1.476 . S
C1018 N1013 1.318 . S
C1018 C1017 1.396 . S
H1019 C1014 0.929 . S
O1020 Mn996 2.385 . S
O1020 C998 1.234 . S
O1021 Mn996 2.209 . S
O1021 Mn997 2.215 . S
O1021 C998 1.283 . S
O1022 Mn996 2.094 . S
O1022 C1000 1.240 . S
O1023 Mn997 2.117 . S
O1023 C1000 1.264 . S
C1024 C1017 1.403 . S
C1024 C1025 1.399 . S
C1024 H1030 0.929 . S
C1025 C1005 1.449 . S
C1025 C1024 1.399 . S
C1025 H1031 0.930 . S
H1026 C1006 0.931 . S
H1027 C1007 0.930 . S
H1028 C1015 0.931 . S
H1029 C1016 0.929 . S
H1030 C1024 0.929 . S
H1031 C1025 0.930 . S
Mn1032 O1037 2.095 1_554 S
Mn1032 O1047 2.162 . S
Mn1032 O1048 2.297 1_554 S
Mn1032 O1056 2.385 . S
Mn1032 O1057 2.209 1_554 S
Mn1032 O1058 2.094 . S
Mn1033 O1038 2.121 . S
Mn1033 N1040 2.257 . S
Mn1033 N1049 2.282 . S
Mn1033 O1057 2.215 . S
Mn1033 O1059 2.117 1_556 S
C1034 O1056 1.241 . S
C1034 O1057 1.278 1_554 S
C1035 O1047 1.281 . S
C1035 O1048 1.236 1_554 S
C1036 O1058 1.240 . S
C1036 O1059 1.264 . S
O1037 Mn1032 2.095 1_556 S
O1037 C1046 1.250 . S
O1038 Mn1033 2.121 . S
O1038 C1046 1.258 . S
C1039 N1040 1.326 . S
C1039 C1043 1.460 . S
C1039 H1045 0.929 . S
N1040 Mn1033 2.257 . S
N1040 C1039 1.326 . S
N1040 C1044 1.362 . S
C1041 C1042 1.258 . S
C1041 C1044 1.431 . S
C1041 C1061 1.449 . S
C1042 C1041 1.258 . S
C1042 C1043 1.477 . S
C1042 H1062 0.931 . S
C1043 C1039 1.460 . S
C1043 C1042 1.477 . S
C1043 H1063 0.930 . S
C1044 N1040 1.362 . S
C1044 C1041 1.431 . S
C1044 C1054 1.476 . S
H1045 C1039 0.929 . S
C1046 O1037 1.250 . S
C1046 O1038 1.258 . S
O1047 Mn1032 2.162 . S
O1047 C1035 1.281 . S
O1048 Mn1032 2.297 1_556 S
O1048 C1035 1.236 1_556 S
N1049 Mn1033 2.282 . S
N1049 C1050 1.328 1_556 S
N1049 C1054 1.318 . S
C1050 N1049 1.328 1_554 S
C1050 C1051 1.457 . S
C1050 H1055 0.929 . S
C1051 C1050 1.457 . S
C1051 C1052 1.291 . S
C1051 H1064 0.931 . S
C1052 C1051 1.291 . S
C1052 C1053 1.373 1_554 S
C1052 H1065 0.929 . S
C1053 C1052 1.373 1_556 S
C1053 C1054 1.396 . S
C1053 C1060 1.403 . S
C1054 C1044 1.476 . S
C1054 N1049 1.318 . S
C1054 C1053 1.396 . S
H1055 C1050 0.929 . S
O1056 Mn1032 2.385 . S
O1056 C1034 1.241 . S
O1057 Mn1032 2.209 1_556 S
O1057 Mn1033 2.215 . S
O1057 C1034 1.278 1_556 S
O1058 Mn1032 2.094 . S
O1058 C1036 1.240 . S
O1059 Mn1033 2.117 1_554 S
O1059 C1036 1.264 . S
C1060 C1053 1.403 . S
C1060 C1061 1.399 . S
C1060 H1066 0.929 . S
C1061 C1041 1.449 . S
C1061 C1060 1.399 . S
C1061 H1067 0.930 . S
H1062 C1042 0.931 . S
H1063 C1043 0.930 . S
H1064 C1051 0.931 . S
H1065 C1052 0.929 . S
H1066 C1060 0.929 . S
H1067 C1061 0.930 . S
Mn1068 O1073 2.095 . S
Mn1068 O1083 2.162 . S
Mn1068 O1084 2.297 . S
Mn1068 O1092 2.385 1_545 S
Mn1068 O1093 2.209 1_545 S
Mn1068 O1094 2.094 . S
Mn1069 O1074 2.121 . S
Mn1069 N1076 2.257 . S
Mn1069 N1085 2.282 . S
Mn1069 O1093 2.215 . S
Mn1069 O1095 2.117 . S
C1070 O1092 1.234 . S
C1070 O1093 1.283 . S
C1071 O1083 1.281 . S
C1071 O1084 1.236 . S
C1072 O1094 1.240 . S
C1072 O1095 1.264 1_545 S
O1073 Mn1068 2.095 . S
O1073 C1082 1.250 1_545 S
O1074 Mn1069 2.121 . S
O1074 C1082 1.258 . S
C1075 N1076 1.326 . S
C1075 C1079 1.460 . S
C1075 H1081 0.929 . S
N1076 Mn1069 2.257 . S
N1076 C1075 1.326 . S
N1076 C1080 1.362 . S
C1077 C1078 1.258 . S
C1077 C1080 1.431 . S
C1077 C1097 1.449 . S
C1078 C1077 1.258 . S
C1078 C1079 1.477 . S
C1078 H1098 0.931 . S
C1079 C1075 1.460 . S
C1079 C1078 1.477 . S
C1079 H1099 0.930 . S
C1080 N1076 1.362 . S
C1080 C1077 1.431 . S
C1080 C1090 1.476 . S
H1081 C1075 0.929 . S
C1082 O1073 1.250 1_565 S
C1082 O1074 1.258 . S
O1083 Mn1068 2.162 . S
O1083 C1071 1.281 . S
O1084 Mn1068 2.297 . S
O1084 C1071 1.236 . S
N1085 Mn1069 2.282 . S
N1085 C1086 1.328 . S
N1085 C1090 1.318 . S
C1086 N1085 1.328 . S
C1086 C1087 1.457 . S
C1086 H1091 0.929 . S
C1087 C1086 1.457 . S
C1087 C1088 1.291 . S
C1087 H1100 0.931 . S
C1088 C1087 1.291 . S
C1088 C1089 1.373 . S
C1088 H1101 0.929 . S
C1089 C1088 1.373 . S
C1089 C1090 1.396 . S
C1089 C1096 1.403 . S
C1090 C1080 1.476 . S
C1090 N1085 1.318 . S
C1090 C1089 1.396 . S
H1091 C1086 0.929 . S
O1092 Mn1068 2.385 1_565 S
O1092 C1070 1.234 . S
O1093 Mn1068 2.209 1_565 S
O1093 Mn1069 2.215 . S
O1093 C1070 1.283 . S
O1094 Mn1068 2.094 . S
O1094 C1072 1.240 . S
O1095 Mn1069 2.117 . S
O1095 C1072 1.264 1_565 S
C1096 C1089 1.403 . S
C1096 C1097 1.399 . S
C1096 H1102 0.929 . S
C1097 C1077 1.449 . S
C1097 C1096 1.399 . S
C1097 H1103 0.930 . S
H1098 C1078 0.931 . S
H1099 C1079 0.930 . S
H1100 C1087 0.931 . S
H1101 C1088 0.929 . S
H1102 C1096 0.929 . S
H1103 C1097 0.930 . S
Mn1104 O1109 2.095 . S
Mn1104 O1119 2.162 . S
Mn1104 O1120 2.297 . S
Mn1104 O1128 2.385 . S
Mn1104 O1129 2.209 . S
Mn1104 O1130 2.094 . S
Mn1105 O1110 2.121 . S
Mn1105 N1112 2.257 . S
Mn1105 N1121 2.282 . S
Mn1105 O1129 2.215 . S
Mn1105 O1131 2.117 . S
C1106 O1128 1.234 . S
C1106 O1129 1.283 . S
C1107 O1119 1.281 . S
C1107 O1120 1.236 . S
C1108 O1130 1.240 . S
C1108 O1131 1.264 . S
O1109 Mn1104 2.095 . S
O1109 C1118 1.250 . S
O1110 Mn1105 2.121 . S
O1110 C1118 1.258 . S
C1111 N1112 1.326 . S
C1111 C1115 1.460 . S
C1111 H1117 0.929 . S
N1112 Mn1105 2.257 . S
N1112 C1111 1.326 . S
N1112 C1116 1.362 . S
C1113 C1114 1.258 . S
C1113 C1116 1.431 . S
C1113 C1133 1.449 . S
C1114 C1113 1.258 . S
C1114 C1115 1.477 . S
C1114 H1134 0.931 . S
C1115 C1111 1.460 . S
C1115 C1114 1.477 . S
C1115 H1135 0.930 . S
C1116 N1112 1.362 . S
C1116 C1113 1.431 . S
C1116 C1126 1.476 . S
H1117 C1111 0.929 . S
C1118 O1109 1.250 . S
C1118 O1110 1.258 . S
O1119 Mn1104 2.162 . S
O1119 C1107 1.281 . S
O1120 Mn1104 2.297 . S
O1120 C1107 1.236 . S
N1121 Mn1105 2.282 . S
N1121 C1122 1.328 . S
N1121 C1126 1.318 . S
C1122 N1121 1.328 . S
C1122 C1123 1.457 . S
C1122 H1127 0.929 . S
C1123 C1122 1.457 . S
C1123 C1124 1.291 . S
C1123 H1136 0.931 . S
C1124 C1123 1.291 . S
C1124 C1125 1.373 . S
C1124 H1137 0.929 . S
C1125 C1124 1.373 . S
C1125 C1126 1.396 . S
C1125 C1132 1.403 . S
C1126 C1116 1.476 . S
C1126 N1121 1.318 . S
C1126 C1125 1.396 . S
H1127 C1122 0.929 . S
O1128 Mn1104 2.385 . S
O1128 C1106 1.234 . S
O1129 Mn1104 2.209 . S
O1129 Mn1105 2.215 . S
O1129 C1106 1.283 . S
O1130 Mn1104 2.094 . S
O1130 C1108 1.240 . S
O1131 Mn1105 2.117 . S
O1131 C1108 1.264 . S
C1132 C1125 1.403 . S
C1132 C1133 1.399 . S
C1132 H1138 0.929 . S
C1133 C1113 1.449 . S
C1133 C1132 1.399 . S
C1133 H1139 0.930 . S
H1134 C1114 0.931 . S
H1135 C1115 0.930 . S
H1136 C1123 0.931 . S
H1137 C1124 0.929 . S
H1138 C1132 0.929 . S
H1139 C1133 0.930 . S
Mn1140 O1145 2.095 . S
Mn1140 O1155 2.162 . S
Mn1140 O1156 2.297 . S
Mn1140 O1164 2.385 . S
Mn1140 O1165 2.209 . S
Mn1140 O1166 2.094 . S
Mn1141 O1146 2.121 . S
Mn1141 N1148 2.257 . S
Mn1141 N1157 2.282 . S
Mn1141 O1165 2.215 . S
Mn1141 O1167 2.117 . S
C1142 O1164 1.234 . S
C1142 O1165 1.283 . S
C1143 O1155 1.281 . S
C1143 O1156 1.236 . S
C1144 O1166 1.240 . S
C1144 O1167 1.264 . S
O1145 Mn1140 2.095 . S
O1145 C1154 1.250 . S
O1146 Mn1141 2.121 . S
O1146 C1154 1.258 . S
C1147 N1148 1.326 . S
C1147 C1151 1.460 . S
C1147 H1153 0.929 . S
N1148 Mn1141 2.257 . S
N1148 C1147 1.326 . S
N1148 C1152 1.362 . S
C1149 C1150 1.258 . S
C1149 C1152 1.431 . S
C1149 C1169 1.449 . S
C1150 C1149 1.258 . S
C1150 C1151 1.477 . S
C1150 H1170 0.931 . S
C1151 C1147 1.460 . S
C1151 C1150 1.477 . S
C1151 H1171 0.930 . S
C1152 N1148 1.362 . S
C1152 C1149 1.431 . S
C1152 C1162 1.476 . S
H1153 C1147 0.929 . S
C1154 O1145 1.250 . S
C1154 O1146 1.258 . S
O1155 Mn1140 2.162 . S
O1155 C1143 1.281 . S
O1156 Mn1140 2.297 . S
O1156 C1143 1.236 . S
N1157 Mn1141 2.282 . S
N1157 C1158 1.328 . S
N1157 C1162 1.318 . S
C1158 N1157 1.328 . S
C1158 C1159 1.457 . S
C1158 H1163 0.929 . S
C1159 C1158 1.457 . S
C1159 C1160 1.291 . S
C1159 H1172 0.931 . S
C1160 C1159 1.291 . S
C1160 C1161 1.373 . S
C1160 H1173 0.929 . S
C1161 C1160 1.373 . S
C1161 C1162 1.396 . S
C1161 C1168 1.403 . S
C1162 C1152 1.476 . S
C1162 N1157 1.318 . S
C1162 C1161 1.396 . S
H1163 C1158 0.929 . S
O1164 Mn1140 2.385 . S
O1164 C1142 1.234 . S
O1165 Mn1140 2.209 . S
O1165 Mn1141 2.215 . S
O1165 C1142 1.283 . S
O1166 Mn1140 2.094 . S
O1166 C1144 1.240 . S
O1167 Mn1141 2.117 . S
O1167 C1144 1.264 . S
C1168 C1161 1.403 . S
C1168 C1169 1.399 . S
C1168 H1174 0.929 . S
C1169 C1149 1.449 . S
C1169 C1168 1.399 . S
C1169 H1175 0.930 . S
H1170 C1150 0.931 . S
H1171 C1151 0.930 . S
H1172 C1159 0.931 . S
H1173 C1160 0.929 . S
H1174 C1168 0.929 . S
H1175 C1169 0.930 . S
Mn1176 O1181 2.095 . S
Mn1176 O1191 2.162 . S
Mn1176 O1192 2.297 . S
Mn1176 O1200 2.385 . S
Mn1176 O1201 2.209 . S
Mn1176 O1202 2.094 . S
Mn1177 O1182 2.121 . S
Mn1177 N1184 2.257 . S
Mn1177 N1193 2.282 . S
Mn1177 O1201 2.215 . S
Mn1177 O1203 2.117 . S
C1178 O1200 1.234 . S
C1178 O1201 1.283 . S
C1179 O1191 1.281 . S
C1179 O1192 1.236 . S
C1180 O1202 1.240 . S
C1180 O1203 1.264 . S
O1181 Mn1176 2.095 . S
O1181 C1190 1.250 . S
O1182 Mn1177 2.121 . S
O1182 C1190 1.258 . S
C1183 N1184 1.326 . S
C1183 C1187 1.460 . S
C1183 H1189 0.929 . S
N1184 Mn1177 2.257 . S
N1184 C1183 1.326 . S
N1184 C1188 1.362 . S
C1185 C1186 1.258 . S
C1185 C1188 1.431 . S
C1185 C1205 1.449 . S
C1186 C1185 1.258 . S
C1186 C1187 1.477 . S
C1186 H1206 0.931 . S
C1187 C1183 1.460 . S
C1187 C1186 1.477 . S
C1187 H1207 0.930 . S
C1188 N1184 1.362 . S
C1188 C1185 1.431 . S
C1188 C1198 1.476 . S
H1189 C1183 0.929 . S
C1190 O1181 1.250 . S
C1190 O1182 1.258 . S
O1191 Mn1176 2.162 . S
O1191 C1179 1.281 . S
O1192 Mn1176 2.297 . S
O1192 C1179 1.236 . S
N1193 Mn1177 2.282 . S
N1193 C1194 1.328 . S
N1193 C1198 1.318 . S
C1194 N1193 1.328 . S
C1194 C1195 1.457 . S
C1194 H1199 0.929 . S
C1195 C1194 1.457 . S
C1195 C1196 1.291 . S
C1195 H1208 0.931 . S
C1196 C1195 1.291 . S
C1196 C1197 1.373 . S
C1196 H1209 0.929 . S
C1197 C1196 1.373 . S
C1197 C1198 1.396 . S
C1197 C1204 1.403 . S
C1198 C1188 1.476 . S
C1198 N1193 1.318 . S
C1198 C1197 1.396 . S
H1199 C1194 0.929 . S
O1200 Mn1176 2.385 . S
O1200 C1178 1.234 . S
O1201 Mn1176 2.209 . S
O1201 Mn1177 2.215 . S
O1201 C1178 1.283 . S
O1202 Mn1176 2.094 . S
O1202 C1180 1.240 . S
O1203 Mn1177 2.117 . S
O1203 C1180 1.264 . S
C1204 C1197 1.403 . S
C1204 C1205 1.399 . S
C1204 H1210 0.929 . S
C1205 C1185 1.449 . S
C1205 C1204 1.399 . S
C1205 H1211 0.930 . S
H1206 C1186 0.931 . S
H1207 C1187 0.930 . S
H1208 C1195 0.931 . S
H1209 C1196 0.929 . S
H1210 C1204 0.929 . S
H1211 C1205 0.930 . S
Mn1212 O1217 2.095 . S
Mn1212 O1227 2.162 . S
Mn1212 O1228 2.297 . S
Mn1212 O1236 2.385 1_565 S
Mn1212 O1237 2.209 1_565 S
Mn1212 O1238 2.094 . S
Mn1213 O1218 2.121 . S
Mn1213 N1220 2.257 . S
Mn1213 N1229 2.282 . S
Mn1213 O1237 2.215 . S
Mn1213 O1239 2.117 . S
C1214 O1236 1.234 . S
C1214 O1237 1.283 . S
C1215 O1227 1.281 . S
C1215 O1228 1.236 . S
C1216 O1238 1.218 1_545 S
C1216 O1239 1.292 . S
O1217 Mn1212 2.095 . S
O1217 C1226 1.250 1_565 S
O1218 Mn1213 2.121 . S
O1218 C1226 1.258 . S
C1219 N1220 1.326 . S
C1219 C1223 1.460 . S
C1219 H1225 0.929 . S
N1220 Mn1213 2.257 . S
N1220 C1219 1.326 . S
N1220 C1224 1.362 . S
C1221 C1222 1.258 . S
C1221 C1224 1.431 . S
C1221 C1241 1.449 . S
C1222 C1221 1.258 . S
C1222 C1223 1.477 . S
C1222 H1242 0.931 . S
C1223 C1219 1.460 . S
C1223 C1222 1.477 . S
C1223 H1243 0.930 . S
C1224 N1220 1.362 . S
C1224 C1221 1.431 . S
C1224 C1234 1.476 . S
H1225 C1219 0.929 . S
C1226 O1217 1.250 1_545 S
C1226 O1218 1.258 . S
O1227 Mn1212 2.162 . S
O1227 C1215 1.281 . S
O1228 Mn1212 2.297 . S
O1228 C1215 1.236 . S
N1229 Mn1213 2.282 . S
N1229 C1230 1.328 . S
N1229 C1234 1.318 . S
C1230 N1229 1.328 . S
C1230 C1231 1.457 . S
C1230 H1235 0.929 . S
C1231 C1230 1.457 . S
C1231 C1232 1.291 . S
C1231 H1244 0.931 . S
C1232 C1231 1.291 . S
C1232 C1233 1.373 . S
C1232 H1245 0.929 . S
C1233 C1232 1.373 . S
C1233 C1234 1.396 . S
C1233 C1240 1.403 . S
C1234 C1224 1.476 . S
C1234 N1229 1.318 . S
C1234 C1233 1.396 . S
H1235 C1230 0.929 . S
O1236 Mn1212 2.385 1_545 S
O1236 C1214 1.234 . S
O1237 Mn1212 2.209 1_545 S
O1237 Mn1213 2.215 . S
O1237 C1214 1.283 . S
O1238 Mn1212 2.094 . S
O1238 C1216 1.218 1_565 S
O1239 Mn1213 2.117 . S
O1239 C1216 1.292 . S
C1240 C1233 1.403 . S
C1240 C1241 1.399 . S
C1240 H1246 0.929 . S
C1241 C1221 1.449 . S
C1241 C1240 1.399 . S
C1241 H1247 0.930 . S
H1242 C1222 0.931 . S
H1243 C1223 0.930 . S
H1244 C1231 0.931 . S
H1245 C1232 0.929 . S
H1246 C1240 0.929 . S
H1247 C1241 0.930 . S
Mn1248 O1253 2.095 . S
Mn1248 O1263 2.162 . S
Mn1248 O1264 2.297 . S
Mn1248 O1272 2.385 1_455 S
Mn1248 O1273 2.209 1_455 S
Mn1248 O1274 2.094 . S
Mn1249 O1254 2.121 . S
Mn1249 N1256 2.257 . S
Mn1249 N1265 2.282 . S
Mn1249 O1273 2.215 . S
Mn1249 O1275 2.117 . S
C1250 O1272 1.234 . S
C1250 O1273 1.283 . S
C1251 O1263 1.281 . S
C1251 O1264 1.236 . S
C1252 O1274 1.240 . S
C1252 O1275 1.264 1_455 S
O1253 Mn1248 2.095 . S
O1253 C1262 1.250 1_455 S
O1254 Mn1249 2.121 . S
O1254 C1262 1.258 . S
C1255 N1256 1.326 . S
C1255 C1259 1.460 . S
C1255 H1261 0.929 . S
N1256 Mn1249 2.257 . S
N1256 C1255 1.326 . S
N1256 C1260 1.362 . S
C1257 C1258 1.258 . S
C1257 C1260 1.431 . S
C1257 C1277 1.449 . S
C1258 C1257 1.258 . S
C1258 C1259 1.477 . S
C1258 H1278 0.931 . S
C1259 C1255 1.460 . S
C1259 C1258 1.477 . S
C1259 H1279 0.930 . S
C1260 N1256 1.362 . S
C1260 C1257 1.431 . S
C1260 C1270 1.476 . S
H1261 C1255 0.929 . S
C1262 O1253 1.250 1_655 S
C1262 O1254 1.258 . S
O1263 Mn1248 2.162 . S
O1263 C1251 1.281 . S
O1264 Mn1248 2.297 . S
O1264 C1251 1.236 . S
N1265 Mn1249 2.282 . S
N1265 C1266 1.328 . S
N1265 C1270 1.318 . S
C1266 N1265 1.328 . S
C1266 C1267 1.457 . S
C1266 H1271 0.929 . S
C1267 C1266 1.457 . S
C1267 C1268 1.291 . S
C1267 H1280 0.931 . S
C1268 C1267 1.291 . S
C1268 C1269 1.373 . S
C1268 H1281 0.929 . S
C1269 C1268 1.373 . S
C1269 C1270 1.396 . S
C1269 C1276 1.403 . S
C1270 C1260 1.476 . S
C1270 N1265 1.318 . S
C1270 C1269 1.396 . S
H1271 C1266 0.929 . S
O1272 Mn1248 2.385 1_655 S
O1272 C1250 1.234 . S
O1273 Mn1248 2.209 1_655 S
O1273 Mn1249 2.215 . S
O1273 C1250 1.283 . S
O1274 Mn1248 2.094 . S
O1274 C1252 1.240 . S
O1275 Mn1249 2.117 . S
O1275 C1252 1.264 1_655 S
C1276 C1269 1.403 . S
C1276 C1277 1.399 . S
C1276 H1282 0.929 . S
C1277 C1257 1.449 . S
C1277 C1276 1.399 . S
C1277 H1283 0.930 . S
H1278 C1258 0.931 . S
H1279 C1259 0.930 . S
H1280 C1267 0.931 . S
H1281 C1268 0.929 . S
H1282 C1276 0.929 . S
H1283 C1277 0.930 . S
Mn1284 O1289 2.095 . S
Mn1284 O1299 2.162 . S
Mn1284 O1300 2.297 . S
Mn1284 O1308 2.385 . S
Mn1284 O1309 2.209 . S
Mn1284 O1310 2.094 . S
Mn1285 O1290 2.121 . S
Mn1285 N1292 2.257 . S
Mn1285 N1301 2.282 . S
Mn1285 O1309 2.215 . S
Mn1285 O1311 2.117 . S
C1286 O1308 1.234 . S
C1286 O1309 1.283 . S
C1287 O1299 1.281 . S
C1287 O1300 1.236 . S
C1288 O1310 1.240 . S
C1288 O1311 1.264 . S
O1289 Mn1284 2.095 . S
O1289 C1298 1.250 . S
O1290 Mn1285 2.121 . S
O1290 C1298 1.258 . S
C1291 N1292 1.326 . S
C1291 C1295 1.460 . S
C1291 H1297 0.929 . S
N1292 Mn1285 2.257 . S
N1292 C1291 1.326 . S
N1292 C1296 1.362 . S
C1293 C1294 1.258 . S
C1293 C1296 1.431 . S
C1293 C1313 1.449 . S
C1294 C1293 1.258 . S
C1294 C1295 1.477 . S
C1294 H1314 0.931 . S
C1295 C1291 1.460 . S
C1295 C1294 1.477 . S
C1295 H1315 0.930 . S
C1296 N1292 1.362 . S
C1296 C1293 1.431 . S
C1296 C1306 1.476 . S
H1297 C1291 0.929 . S
C1298 O1289 1.250 . S
C1298 O1290 1.258 . S
O1299 Mn1284 2.162 . S
O1299 C1287 1.281 . S
O1300 Mn1284 2.297 . S
O1300 C1287 1.236 . S
N1301 Mn1285 2.282 . S
N1301 C1302 1.328 . S
N1301 C1306 1.318 . S
C1302 N1301 1.328 . S
C1302 C1303 1.457 . S
C1302 H1307 0.929 . S
C1303 C1302 1.457 . S
C1303 C1304 1.291 . S
C1303 H1316 0.931 . S
C1304 C1303 1.291 . S
C1304 C1305 1.373 . S
C1304 H1317 0.929 . S
C1305 C1304 1.373 . S
C1305 C1306 1.396 . S
C1305 C1312 1.403 . S
C1306 C1296 1.476 . S
C1306 N1301 1.318 . S
C1306 C1305 1.396 . S
H1307 C1302 0.929 . S
O1308 Mn1284 2.385 . S
O1308 C1286 1.234 . S
O1309 Mn1284 2.209 . S
O1309 Mn1285 2.215 . S
O1309 C1286 1.283 . S
O1310 Mn1284 2.094 . S
O1310 C1288 1.240 . S
O1311 Mn1285 2.117 . S
O1311 C1288 1.264 . S
C1312 C1305 1.403 . S
C1312 C1313 1.399 . S
C1312 H1318 0.929 . S
C1313 C1293 1.449 . S
C1313 C1312 1.399 . S
C1313 H1319 0.930 . S
H1314 C1294 0.931 . S
H1315 C1295 0.930 . S
H1316 C1303 0.931 . S
H1317 C1304 0.929 . S
H1318 C1312 0.929 . S
H1319 C1313 0.930 . S
Mn1320 O1325 2.095 1_455 S
Mn1320 O1335 2.162 . S
Mn1320 O1336 2.297 1_455 S
Mn1320 O1344 2.385 . S
Mn1320 O1345 2.209 1_455 S
Mn1320 O1346 2.094 . S
Mn1321 O1326 2.121 . S
Mn1321 N1328 2.257 . S
Mn1321 N1337 2.282 1_655 S
Mn1321 O1345 2.215 . S
Mn1321 O1347 2.117 1_655 S
C1322 O1344 1.234 . S
C1322 O1345 1.283 1_455 S
C1323 O1335 1.281 . S
C1323 O1336 1.236 1_455 S
C1324 O1346 1.240 . S
C1324 O1347 1.264 . S
O1325 Mn1320 2.095 1_655 S
O1325 C1334 1.250 . S
O1326 Mn1321 2.121 . S
O1326 C1334 1.258 . S
C1327 N1328 1.326 . S
C1327 C1331 1.460 . S
C1327 H1333 0.929 . S
N1328 Mn1321 2.257 . S
N1328 C1327 1.326 . S
N1328 C1332 1.362 . S
C1329 C1330 1.258 . S
C1329 C1332 1.431 . S
C1329 C1349 1.449 . S
C1330 C1329 1.258 . S
C1330 C1331 1.477 . S
C1330 H1350 0.931 . S
C1331 C1327 1.460 . S
C1331 C1330 1.477 . S
C1331 H1351 0.930 . S
C1332 N1328 1.362 . S
C1332 C1329 1.431 . S
C1332 C1342 1.476 . S
H1333 C1327 0.929 . S
C1334 O1325 1.250 . S
C1334 O1326 1.258 . S
O1335 Mn1320 2.162 . S
O1335 C1323 1.281 . S
O1336 Mn1320 2.297 1_655 S
O1336 C1323 1.236 1_655 S
N1337 Mn1321 2.282 1_455 S
N1337 C1338 1.328 . S
N1337 C1342 1.318 1_455 S
C1338 N1337 1.328 . S
C1338 C1339 1.457 . S
C1338 H1343 0.929 . S
C1339 C1338 1.457 . S
C1339 C1340 1.291 . S
C1339 H1352 0.931 . S
C1340 C1339 1.291 . S
C1340 C1341 1.373 1_455 S
C1340 H1353 0.929 . S
C1341 C1340 1.373 1_655 S
C1341 C1342 1.396 . S
C1341 C1348 1.403 . S
C1342 C1332 1.476 . S
C1342 N1337 1.318 1_655 S
C1342 C1341 1.396 . S
H1343 C1338 0.929 . S
O1344 Mn1320 2.385 . S
O1344 C1322 1.234 . S
O1345 Mn1320 2.209 1_655 S
O1345 Mn1321 2.215 . S
O1345 C1322 1.283 1_655 S
O1346 Mn1320 2.094 . S
O1346 C1324 1.240 . S
O1347 Mn1321 2.117 1_455 S
O1347 C1324 1.264 . S
C1348 C1341 1.403 . S
C1348 C1349 1.399 . S
C1348 H1354 0.929 . S
C1349 C1329 1.449 . S
C1349 C1348 1.399 . S
C1349 H1355 0.930 . S
H1350 C1330 0.931 . S
H1351 C1331 0.930 . S
H1352 C1339 0.931 . S
H1353 C1340 0.929 . S
H1354 C1348 0.929 . S
H1355 C1349 0.930 . S
Mn1356 O1361 2.095 . S
Mn1356 O1371 2.162 . S
Mn1356 O1372 2.297 . S
Mn1356 O1380 2.385 . S
Mn1356 O1381 2.209 . S
Mn1356 O1382 2.094 . S
Mn1357 O1362 2.121 . S
Mn1357 N1364 2.257 . S
Mn1357 N1373 2.282 . S
Mn1357 O1381 2.215 . S
Mn1357 O1383 2.117 . S
C1358 O1380 1.234 . S
C1358 O1381 1.283 . S
C1359 O1371 1.281 . S
C1359 O1372 1.236 . S
C1360 O1382 1.240 . S
C1360 O1383 1.264 . S
O1361 Mn1356 2.095 . S
O1361 C1370 1.250 . S
O1362 Mn1357 2.121 . S
O1362 C1370 1.258 . S
C1363 N1364 1.326 . S
C1363 C1367 1.460 . S
C1363 H1369 0.929 . S
N1364 Mn1357 2.257 . S
N1364 C1363 1.326 . S
N1364 C1368 1.362 . S
C1365 C1366 1.258 . S
C1365 C1368 1.431 . S
C1365 C1385 1.449 . S
C1366 C1365 1.258 . S
C1366 C1367 1.477 . S
C1366 H1386 0.931 . S
C1367 C1363 1.460 . S
C1367 C1366 1.477 . S
C1367 H1387 0.930 . S
C1368 N1364 1.362 . S
C1368 C1365 1.431 . S
C1368 C1378 1.476 . S
H1369 C1363 0.929 . S
C1370 O1361 1.250 . S
C1370 O1362 1.258 . S
O1371 Mn1356 2.162 . S
O1371 C1359 1.281 . S
O1372 Mn1356 2.297 . S
O1372 C1359 1.236 . S
N1373 Mn1357 2.282 . S
N1373 C1374 1.328 . S
N1373 C1378 1.318 . S
C1374 N1373 1.328 . S
C1374 C1375 1.457 . S
C1374 H1379 0.929 . S
C1375 C1374 1.457 . S
C1375 C1376 1.291 . S
C1375 H1388 0.931 . S
C1376 C1375 1.291 . S
C1376 C1377 1.373 . S
C1376 H1389 0.929 . S
C1377 C1376 1.373 . S
C1377 C1378 1.396 . S
C1377 C1384 1.403 . S
C1378 C1368 1.476 . S
C1378 N1373 1.318 . S
C1378 C1377 1.396 . S
H1379 C1374 0.929 . S
O1380 Mn1356 2.385 . S
O1380 C1358 1.234 . S
O1381 Mn1356 2.209 . S
O1381 Mn1357 2.215 . S
O1381 C1358 1.283 . S
O1382 Mn1356 2.094 . S
O1382 C1360 1.240 . S
O1383 Mn1357 2.117 . S
O1383 C1360 1.264 . S
C1384 C1377 1.403 . S
C1384 C1385 1.399 . S
C1384 H1390 0.929 . S
C1385 C1365 1.449 . S
C1385 C1384 1.399 . S
C1385 H1391 0.930 . S
H1386 C1366 0.931 . S
H1387 C1367 0.930 . S
H1388 C1375 0.931 . S
H1389 C1376 0.929 . S
H1390 C1384 0.929 . S
H1391 C1385 0.930 . S
H1392 C1398 0.930 . S
H1393 C1401 0.930 . S
H1394 C1402 0.930 . S
H1395 C1403 0.930 . S
H1396 C1406 0.930 . S
H1397 C1407 0.930 . S
C1398 H1392 0.930 . S
C1398 C1399 1.355 . S
C1398 C1400 1.415 . S
C1399 C1398 1.355 . S
C1399 C1401 1.419 . S
C1400 C1398 1.415 . S
C1400 C1405 1.425 . S
C1400 C1407 1.409 . S
C1401 H1393 0.930 . S
C1401 C1399 1.419 . S
C1401 C1402 1.362 . S
C1402 H1394 0.930 . S
C1402 C1401 1.362 . S
C1402 C1405 1.409 . S
C1403 H1395 0.930 . S
C1403 C1404 1.355 . S
C1403 C1405 1.415 . S
C1404 C1403 1.355 . S
C1404 C1406 1.419 . S
C1405 C1400 1.425 . S
C1405 C1402 1.409 . S
C1405 C1403 1.415 . S
C1406 H1396 0.930 . S
C1406 C1404 1.419 . S
C1406 C1407 1.362 . S
C1407 H1397 0.930 . S
C1407 C1400 1.409 . S
C1407 C1406 1.362 . S
H1408 C1414 0.930 . S
H1409 C1417 0.930 . S
H1410 C1418 0.930 . S
H1411 C1419 0.930 . S
H1412 C1422 0.930 . S
H1413 C1423 0.930 . S
C1414 H1408 0.930 . S
C1414 C1415 1.355 . S
C1414 C1416 1.415 . S
C1415 C1414 1.355 . S
C1415 C1417 1.419 . S
C1416 C1414 1.415 . S
C1416 C1421 1.425 . S
C1416 C1423 1.409 . S
C1417 H1409 0.930 . S
C1417 C1415 1.419 . S
C1417 C1418 1.362 . S
C1418 H1410 0.930 . S
C1418 C1417 1.362 . S
C1418 C1421 1.409 . S
C1419 H1411 0.930 . S
C1419 C1420 1.355 . S
C1419 C1421 1.415 . S
C1420 C1419 1.355 . S
C1420 C1422 1.419 . S
C1421 C1416 1.425 . S
C1421 C1418 1.409 . S
C1421 C1419 1.415 . S
C1422 H1412 0.930 . S
C1422 C1420 1.419 . S
C1422 C1423 1.362 . S
C1423 H1413 0.930 . S
C1423 C1416 1.409 . S
C1423 C1422 1.362 . S
H1424 C1430 0.930 . S
H1425 C1433 0.930 . S
H1426 C1434 0.930 . S
H1427 C1435 0.930 . S
H1428 C1438 0.930 . S
H1429 C1439 0.930 . S
C1430 H1424 0.930 . S
C1430 C1431 1.355 . S
C1430 C1432 1.415 . S
C1431 C1430 1.355 . S
C1431 C1433 1.419 . S
C1432 C1430 1.415 . S
C1432 C1437 1.425 . S
C1432 C1439 1.409 . S
C1433 H1425 0.930 . S
C1433 C1431 1.419 . S
C1433 C1434 1.362 . S
C1434 H1426 0.930 . S
C1434 C1433 1.362 . S
C1434 C1437 1.409 . S
C1435 H1427 0.930 . S
C1435 C1436 1.355 . S
C1435 C1437 1.415 . S
C1436 C1435 1.355 . S
C1436 C1438 1.419 . S
C1437 C1432 1.425 . S
C1437 C1434 1.409 . S
C1437 C1435 1.415 . S
C1438 H1428 0.930 . S
C1438 C1436 1.419 . S
C1438 C1439 1.362 . S
C1439 H1429 0.930 . S
C1439 C1432 1.409 . S
C1439 C1438 1.362 . S
H1440 C1446 0.930 . S
H1441 C1449 0.930 . S
H1442 C1450 0.930 . S
H1443 C1451 0.930 . S
H1444 C1454 0.930 . S
H1445 C1455 0.930 . S
C1446 H1440 0.930 . S
C1446 C1447 1.355 1_545 S
C1446 C1448 1.415 . S
C1447 C1446 1.355 1_565 S
C1447 C1449 1.419 . S
C1448 C1446 1.415 . S
C1448 C1453 1.425 1_545 S
C1448 C1455 1.409 . S
C1449 H1441 0.930 . S
C1449 C1447 1.419 . S
C1449 C1450 1.362 . S
C1450 H1442 0.930 . S
C1450 C1449 1.362 . S
C1450 C1453 1.409 . S
C1451 H1443 0.930 . S
C1451 C1452 1.355 1_565 S
C1451 C1453 1.415 . S
C1452 C1451 1.355 1_545 S
C1452 C1454 1.419 . S
C1453 C1448 1.425 1_565 S
C1453 C1450 1.409 . S
C1453 C1451 1.415 . S
C1454 H1444 0.930 . S
C1454 C1452 1.419 . S
C1454 C1455 1.362 . S
C1455 H1445 0.930 . S
C1455 C1448 1.409 . S
C1455 C1454 1.362 . S
H1456 C1462 0.930 . S
H1457 C1465 0.930 . S
H1458 C1466 0.930 . S
H1459 C1467 0.930 . S
H1460 C1470 0.930 . S
H1461 C1471 0.930 . S
C1462 H1456 0.930 . S
C1462 C1463 1.355 . S
C1462 C1464 1.415 . S
C1463 C1462 1.355 . S
C1463 C1465 1.419 . S
C1464 C1462 1.415 . S
C1464 C1469 1.425 . S
C1464 C1471 1.409 . S
C1465 H1457 0.930 . S
C1465 C1463 1.419 . S
C1465 C1466 1.362 . S
C1466 H1458 0.930 . S
C1466 C1465 1.362 . S
C1466 C1469 1.409 . S
C1467 H1459 0.930 . S
C1467 C1468 1.355 . S
C1467 C1469 1.415 . S
C1468 C1467 1.355 . S
C1468 C1470 1.419 . S
C1469 C1464 1.425 . S
C1469 C1466 1.409 . S
C1469 C1467 1.415 . S
C1470 H1460 0.930 . S
C1470 C1468 1.419 . S
C1470 C1471 1.362 . S
C1471 H1461 0.930 . S
C1471 C1464 1.409 . S
C1471 C1470 1.362 . S
H1472 C1478 0.930 . S
H1473 C1481 0.930 . S
H1474 C1482 0.930 . S
H1475 C1483 0.930 . S
H1476 C1486 0.930 . S
H1477 C1487 0.930 . S
C1478 H1472 0.930 . S
C1478 C1479 1.355 . S
C1478 C1480 1.415 . S
C1479 C1478 1.355 . S
C1479 C1481 1.419 . S
C1480 C1478 1.415 . S
C1480 C1485 1.425 . S
C1480 C1487 1.409 . S
C1481 H1473 0.930 . S
C1481 C1479 1.419 . S
C1481 C1482 1.362 . S
C1482 H1474 0.930 . S
C1482 C1481 1.362 . S
C1482 C1485 1.409 . S
C1483 H1475 0.930 . S
C1483 C1484 1.355 . S
C1483 C1485 1.415 . S
C1484 C1483 1.355 . S
C1484 C1486 1.419 . S
C1485 C1480 1.425 . S
C1485 C1482 1.409 . S
C1485 C1483 1.415 . S
C1486 H1476 0.930 . S
C1486 C1484 1.419 . S
C1486 C1487 1.362 . S
C1487 H1477 0.930 . S
C1487 C1480 1.409 . S
C1487 C1486 1.362 . S
H1488 C1494 0.930 . S
H1489 C1497 0.930 . S
H1490 C1498 0.930 . S
H1491 C1499 0.930 . S
H1492 C1502 0.930 . S
H1493 C1503 0.930 . S
C1494 H1488 0.930 . S
C1494 C1495 1.355 . S
C1494 C1496 1.415 . S
C1495 C1494 1.355 . S
C1495 C1497 1.419 . S
C1496 C1494 1.415 . S
C1496 C1501 1.425 . S
C1496 C1503 1.409 . S
C1497 H1489 0.930 . S
C1497 C1495 1.419 . S
C1497 C1498 1.362 . S
C1498 H1490 0.930 . S
C1498 C1497 1.362 . S
C1498 C1501 1.409 . S
C1499 H1491 0.930 . S
C1499 C1500 1.355 . S
C1499 C1501 1.415 . S
C1500 C1499 1.355 . S
C1500 C1502 1.419 . S
C1501 C1496 1.425 . S
C1501 C1498 1.409 . S
C1501 C1499 1.415 . S
C1502 H1492 0.930 . S
C1502 C1500 1.419 . S
C1502 C1503 1.362 . S
C1503 H1493 0.930 . S
C1503 C1496 1.409 . S
C1503 C1502 1.362 . S
H1504 C1510 0.930 . S
H1505 C1513 0.930 . S
H1506 C1514 0.930 . S
H1507 C1515 0.930 . S
H1508 C1518 0.930 . S
H1509 C1519 0.930 . S
C1510 H1504 0.930 . S
C1510 C1511 1.355 1_545 S
C1510 C1512 1.415 . S
C1511 C1510 1.355 1_565 S
C1511 C1513 1.419 . S
C1512 C1510 1.415 . S
C1512 C1517 1.425 1_545 S
C1512 C1519 1.409 . S
C1513 H1505 0.930 . S
C1513 C1511 1.419 . S
C1513 C1514 1.362 . S
C1514 H1506 0.930 . S
C1514 C1513 1.362 . S
C1514 C1517 1.409 . S
C1515 H1507 0.930 . S
C1515 C1516 1.355 . S
C1515 C1517 1.415 . S
C1516 C1515 1.355 . S
C1516 C1518 1.419 1_565 S
C1517 C1512 1.425 1_565 S
C1517 C1514 1.409 . S
C1517 C1515 1.415 . S
C1518 H1508 0.930 . S
C1518 C1516 1.419 1_545 S
C1518 C1519 1.362 . S
C1519 H1509 0.930 . S
C1519 C1512 1.409 . S
C1519 C1518 1.362 . S
H1520 C1526 0.930 . S
H1521 C1529 0.930 . S
H1522 C1530 0.930 . S
H1523 C1531 0.930 . S
H1524 C1534 0.930 . S
H1525 C1535 0.930 . S
C1526 H1520 0.930 . S
C1526 C1527 1.355 . S
C1526 C1528 1.415 . S
C1527 C1526 1.355 . S
C1527 C1529 1.419 . S
C1528 C1526 1.415 . S
C1528 C1533 1.425 . S
C1528 C1535 1.409 . S
C1529 H1521 0.930 . S
C1529 C1527 1.419 . S
C1529 C1530 1.362 . S
C1530 H1522 0.930 . S
C1530 C1529 1.362 . S
C1530 C1533 1.409 . S
C1531 H1523 0.930 . S
C1531 C1532 1.355 . S
C1531 C1533 1.415 . S
C1532 C1531 1.355 . S
C1532 C1534 1.419 . S
C1533 C1528 1.425 . S
C1533 C1530 1.409 . S
C1533 C1531 1.415 . S
C1534 H1524 0.930 . S
C1534 C1532 1.419 . S
C1534 C1535 1.362 . S
C1535 H1525 0.930 . S
C1535 C1528 1.409 . S
C1535 C1534 1.362 . S
H1536 C1542 0.930 . S
H1537 C1545 0.930 . S
H1538 C1546 0.930 . S
H1539 C1547 0.930 . S
H1540 C1550 0.930 . S
H1541 C1551 0.930 . S
C1542 H1536 0.930 . S
C1542 C1543 1.355 . S
C1542 C1544 1.415 . S
C1543 C1542 1.355 . S
C1543 C1545 1.419 . S
C1544 C1542 1.415 . S
C1544 C1549 1.425 . S
C1544 C1551 1.409 . S
C1545 H1537 0.930 . S
C1545 C1543 1.419 . S
C1545 C1546 1.362 . S
C1546 H1538 0.930 . S
C1546 C1545 1.362 . S
C1546 C1549 1.409 . S
C1547 H1539 0.930 . S
C1547 C1548 1.355 . S
C1547 C1549 1.415 . S
C1548 C1547 1.355 . S
C1548 C1550 1.419 . S
C1549 C1544 1.425 . S
C1549 C1546 1.409 . S
C1549 C1547 1.415 . S
C1550 H1540 0.930 . S
C1550 C1548 1.419 . S
C1550 C1551 1.362 . S
C1551 H1541 0.930 . S
C1551 C1544 1.409 . S
C1551 C1550 1.362 . S
H1552 C1558 0.930 . S
H1553 C1561 0.930 . S
H1554 C1562 0.930 . S
H1555 C1563 0.930 . S
H1556 C1566 0.930 . S
H1557 C1567 0.930 . S
C1558 H1552 0.930 . S
C1558 C1559 1.355 . S
C1558 C1560 1.415 . S
C1559 C1558 1.355 . S
C1559 C1561 1.419 . S
C1560 C1558 1.415 . S
C1560 C1565 1.425 . S
C1560 C1567 1.409 . S
C1561 H1553 0.930 . S
C1561 C1559 1.419 . S
C1561 C1562 1.362 . S
C1562 H1554 0.930 . S
C1562 C1561 1.362 . S
C1562 C1565 1.409 . S
C1563 H1555 0.930 . S
C1563 C1564 1.355 . S
C1563 C1565 1.415 . S
C1564 C1563 1.355 . S
C1564 C1566 1.419 . S
C1565 C1560 1.425 . S
C1565 C1562 1.409 . S
C1565 C1563 1.415 . S
C1566 H1556 0.930 . S
C1566 C1564 1.419 . S
C1566 C1567 1.362 . S
C1567 H1557 0.930 . S
C1567 C1560 1.409 . S
C1567 C1566 1.362 . S
H1568 C1574 0.930 . S
H1569 C1577 0.930 . S
H1570 C1578 0.930 . S
H1571 C1579 0.930 . S
H1572 C1582 0.930 . S
H1573 C1583 0.930 . S
C1574 H1568 0.930 . S
C1574 C1575 1.355 . S
C1574 C1576 1.415 . S
C1575 C1574 1.355 . S
C1575 C1577 1.419 . S
C1576 C1574 1.415 . S
C1576 C1581 1.425 . S
C1576 C1583 1.409 . S
C1577 H1569 0.930 . S
C1577 C1575 1.419 . S
C1577 C1578 1.362 . S
C1578 H1570 0.930 . S
C1578 C1577 1.362 . S
C1578 C1581 1.409 . S
C1579 H1571 0.930 . S
C1579 C1580 1.355 . S
C1579 C1581 1.415 . S
C1580 C1579 1.355 . S
C1580 C1582 1.419 . S
C1581 C1576 1.425 . S
C1581 C1578 1.409 . S
C1581 C1579 1.415 . S
C1582 H1572 0.930 . S
C1582 C1580 1.419 . S
C1582 C1583 1.362 . S
C1583 H1573 0.930 . S
C1583 C1576 1.409 . S
C1583 C1582 1.362 . S
H1584 C1590 0.930 . S
H1585 C1593 0.930 . S
H1586 C1594 0.930 . S
H1587 C1595 0.930 . S
H1588 C1598 0.930 . S
H1589 C1599 0.930 . S
C1590 H1584 0.930 . S
C1590 C1591 1.355 . S
C1590 C1592 1.415 . S
C1591 C1590 1.355 . S
C1591 C1593 1.419 . S
C1592 C1590 1.415 . S
C1592 C1597 1.425 . S
C1592 C1599 1.409 . S
C1593 H1585 0.930 . S
C1593 C1591 1.419 . S
C1593 C1594 1.362 . S
C1594 H1586 0.930 . S
C1594 C1593 1.362 . S
C1594 C1597 1.409 . S
C1595 H1587 0.930 . S
C1595 C1596 1.355 . S
C1595 C1597 1.415 . S
C1596 C1595 1.355 . S
C1596 C1598 1.419 . S
C1597 C1592 1.425 . S
C1597 C1594 1.409 . S
C1597 C1595 1.415 . S
C1598 H1588 0.930 . S
C1598 C1596 1.419 . S
C1598 C1599 1.362 . S
C1599 H1589 0.930 . S
C1599 C1592 1.409 . S
C1599 C1598 1.362 . S
H1600 C1606 0.930 1_655 S
H1601 C1609 0.930 . S
H1602 C1610 0.930 . S
H1603 C1611 0.930 . S
H1604 C1614 0.930 . S
H1605 C1615 0.930 . S
C1606 H1600 0.930 1_455 S
C1606 C1607 1.355 . S
C1606 C1608 1.415 . S
C1607 C1606 1.355 . S
C1607 C1609 1.419 . S
C1608 C1606 1.415 . S
C1608 C1613 1.425 . S
C1608 C1615 1.409 1_455 S
C1609 H1601 0.930 . S
C1609 C1607 1.419 . S
C1609 C1610 1.362 . S
C1610 H1602 0.930 . S
C1610 C1609 1.362 . S
C1610 C1613 1.409 . S
C1611 H1603 0.930 . S
C1611 C1612 1.355 . S
C1611 C1613 1.415 . S
C1612 C1611 1.355 . S
C1612 C1614 1.419 1_455 S
C1613 C1608 1.425 . S
C1613 C1610 1.409 . S
C1613 C1611 1.415 . S
C1614 H1604 0.930 . S
C1614 C1612 1.419 1_655 S
C1614 C1615 1.362 . S
C1615 H1605 0.930 . S
C1615 C1608 1.409 1_655 S
C1615 C1614 1.362 . S
H1616 C1622 0.930 . S
H1617 C1625 0.930 . S
H1618 C1626 0.930 . S
H1619 C1627 0.930 . S
H1620 C1630 0.930 . S
H1621 C1631 0.930 . S
C1622 H1616 0.930 . S
C1622 C1623 1.355 . S
C1622 C1624 1.415 . S
C1623 C1622 1.355 . S
C1623 C1625 1.419 . S
C1624 C1622 1.415 . S
C1624 C1629 1.425 . S
C1624 C1631 1.409 . S
C1625 H1617 0.930 . S
C1625 C1623 1.419 . S
C1625 C1626 1.362 . S
C1626 H1618 0.930 . S
C1626 C1625 1.362 . S
C1626 C1629 1.409 . S
C1627 H1619 0.930 . S
C1627 C1628 1.355 . S
C1627 C1629 1.415 . S
C1628 C1627 1.355 . S
C1628 C1630 1.419 . S
C1629 C1624 1.425 . S
C1629 C1626 1.409 . S
C1629 C1627 1.415 . S
C1630 H1620 0.930 . S
C1630 C1628 1.419 . S
C1630 C1631 1.362 . S
C1631 H1621 0.930 . S
C1631 C1624 1.409 . S
C1631 C1630 1.362 . S
H1632 C1638 0.930 . S
H1633 C1641 0.930 . S
H1634 C1642 0.930 . S
H1635 C1643 0.930 . S
H1636 C1646 0.930 . S
H1637 C1647 0.930 . S
C1638 H1632 0.930 . S
C1638 C1639 1.355 1_455 S
C1638 C1640 1.415 . S
C1639 C1638 1.355 1_655 S
C1639 C1641 1.419 . S
C1640 C1638 1.415 . S
C1640 C1645 1.425 1_455 S
C1640 C1647 1.409 . S
C1641 H1633 0.930 . S
C1641 C1639 1.419 . S
C1641 C1642 1.362 . S
C1642 H1634 0.930 . S
C1642 C1641 1.362 . S
C1642 C1645 1.409 . S
C1643 H1635 0.930 . S
C1643 C1644 1.331 1_655 S
C1643 C1645 1.415 . S
C1644 C1643 1.331 1_455 S
C1644 C1646 1.446 . S
C1645 C1640 1.425 1_655 S
C1645 C1642 1.409 . S
C1645 C1643 1.415 . S
C1646 H1636 0.930 . S
C1646 C1644 1.446 . S
C1646 C1647 1.362 . S
C1647 H1637 0.930 . S
C1647 C1640 1.409 . S
C1647 C1646 1.362 . S
H1648 C1654 0.930 . S
H1649 C1657 0.930 . S
H1650 C1658 0.930 . S
H1651 C1659 0.930 . S
H1652 C1662 0.930 . S
H1653 C1663 0.930 . S
C1654 H1648 0.930 . S
C1654 C1655 1.355 . S
C1654 C1656 1.415 . S
C1655 C1654 1.355 . S
C1655 C1657 1.419 . S
C1656 C1654 1.415 . S
C1656 C1661 1.425 . S
C1656 C1663 1.409 . S
C1657 H1649 0.930 . S
C1657 C1655 1.419 . S
C1657 C1658 1.362 . S
C1658 H1650 0.930 . S
C1658 C1657 1.362 . S
C1658 C1661 1.409 . S
C1659 H1651 0.930 . S
C1659 C1660 1.355 . S
C1659 C1661 1.415 . S
C1660 C1659 1.355 . S
C1660 C1662 1.419 . S
C1661 C1656 1.425 . S
C1661 C1658 1.409 . S
C1661 C1659 1.415 . S
C1662 H1652 0.930 . S
C1662 C1660 1.419 . S
C1662 C1663 1.362 . S
C1663 H1653 0.930 . S
C1663 C1656 1.409 . S
C1663 C1662 1.362 . S
H1664 C1670 0.930 . S
H1665 C1673 0.930 . S
H1666 C1674 0.930 . S
H1667 C1675 0.930 . S
H1668 C1678 0.930 . S
H1669 C1679 0.930 . S
C1670 H1664 0.930 . S
C1670 C1671 1.355 . S
C1670 C1672 1.415 . S
C1671 C1670 1.355 . S
C1671 C1673 1.419 . S
C1672 C1670 1.415 . S
C1672 C1677 1.425 . S
C1672 C1679 1.409 . S
C1673 H1665 0.930 . S
C1673 C1671 1.419 . S
C1673 C1674 1.362 . S
C1674 H1666 0.930 . S
C1674 C1673 1.362 . S
C1674 C1677 1.409 . S
C1675 H1667 0.930 . S
C1675 C1676 1.355 . S
C1675 C1677 1.415 . S
C1676 C1675 1.355 . S
C1676 C1678 1.419 . S
C1677 C1672 1.425 . S
C1677 C1674 1.409 . S
C1677 C1675 1.415 . S
C1678 H1668 0.930 . S
C1678 C1676 1.419 . S
C1678 C1679 1.362 . S
C1679 H1669 0.930 . S
C1679 C1672 1.409 . S
C1679 C1678 1.362 . S
H1680 C1686 0.930 . S
H1681 C1689 0.930 . S
H1682 C1690 0.930 . S
H1683 C1691 0.930 . S
H1684 C1694 0.930 . S
H1685 C1695 0.930 . S
C1686 H1680 0.930 . S
C1686 C1687 1.355 . S
C1686 C1688 1.415 . S
C1687 C1686 1.355 . S
C1687 C1689 1.419 1_556 S
C1688 C1686 1.415 . S
C1688 C1693 1.425 1_556 S
C1688 C1695 1.409 . S
C1689 H1681 0.930 . S
C1689 C1687 1.419 1_554 S
C1689 C1690 1.362 . S
C1690 H1682 0.930 . S
C1690 C1689 1.362 . S
C1690 C1693 1.409 . S
C1691 H1683 0.930 . S
C1691 C1692 1.355 . S
C1691 C1693 1.415 . S
C1692 C1691 1.355 . S
C1692 C1694 1.419 1_554 S
C1693 C1688 1.425 1_554 S
C1693 C1690 1.409 . S
C1693 C1691 1.415 . S
C1694 H1684 0.930 . S
C1694 C1692 1.419 1_556 S
C1694 C1695 1.362 . S
C1695 H1685 0.930 . S
C1695 C1688 1.409 . S
C1695 C1694 1.362 . S
H1696 C1702 0.930 . S
H1697 C1705 0.930 . S
H1698 C1706 0.930 . S
H1699 C1707 0.930 . S
H1700 C1710 0.930 . S
H1701 C1711 0.930 . S
C1702 H1696 0.930 . S
C1702 C1703 1.355 . S
C1702 C1704 1.415 . S
C1703 C1702 1.355 . S
C1703 C1705 1.419 . S
C1704 C1702 1.415 . S
C1704 C1709 1.425 . S
C1704 C1711 1.409 . S
C1705 H1697 0.930 . S
C1705 C1703 1.419 . S
C1705 C1706 1.362 . S
C1706 H1698 0.930 . S
C1706 C1705 1.362 . S
C1706 C1709 1.409 . S
C1707 H1699 0.930 . S
C1707 C1708 1.355 . S
C1707 C1709 1.415 . S
C1708 C1707 1.355 . S
C1708 C1710 1.419 . S
C1709 C1704 1.425 . S
C1709 C1706 1.409 . S
C1709 C1707 1.415 . S
C1710 H1700 0.930 . S
C1710 C1708 1.419 . S
C1710 C1711 1.362 . S
C1711 H1701 0.930 . S
C1711 C1704 1.409 . S
C1711 C1710 1.362 . S
H1712 C1718 0.930 . S
H1713 C1721 0.930 . S
H1714 C1722 0.930 . S
H1715 C1723 0.930 . S
H1716 C1726 0.930 . S
H1717 C1727 0.930 . S
C1718 H1712 0.930 . S
C1718 C1719 1.355 . S
C1718 C1720 1.415 . S
C1719 C1718 1.355 . S
C1719 C1721 1.419 . S
C1720 C1718 1.415 . S
C1720 C1725 1.425 . S
C1720 C1727 1.409 . S
C1721 H1713 0.930 . S
C1721 C1719 1.419 . S
C1721 C1722 1.362 . S
C1722 H1714 0.930 . S
C1722 C1721 1.362 . S
C1722 C1725 1.409 . S
C1723 H1715 0.930 . S
C1723 C1724 1.355 . S
C1723 C1725 1.415 . S
C1724 C1723 1.355 . S
C1724 C1726 1.419 . S
C1725 C1720 1.425 . S
C1725 C1722 1.409 . S
C1725 C1723 1.415 . S
C1726 H1716 0.930 . S
C1726 C1724 1.419 . S
C1726 C1727 1.362 . S
C1727 H1717 0.930 . S
C1727 C1720 1.409 . S
C1727 C1726 1.362 . S
H1728 C1734 0.930 . S
H1729 C1737 0.930 . S
H1730 C1738 0.930 . S
H1731 C1739 0.930 . S
H1732 C1742 0.930 . S
H1733 C1743 0.930 . S
C1734 H1728 0.930 . S
C1734 C1735 1.355 . S
C1734 C1736 1.415 . S
C1735 C1734 1.355 . S
C1735 C1737 1.419 . S
C1736 C1734 1.415 . S
C1736 C1741 1.425 . S
C1736 C1743 1.409 . S
C1737 H1729 0.930 . S
C1737 C1735 1.419 . S
C1737 C1738 1.362 . S
C1738 H1730 0.930 . S
C1738 C1737 1.362 . S
C1738 C1741 1.409 . S
C1739 H1731 0.930 . S
C1739 C1740 1.355 . S
C1739 C1741 1.415 . S
C1740 C1739 1.355 . S
C1740 C1742 1.419 . S
C1741 C1736 1.425 . S
C1741 C1738 1.409 . S
C1741 C1739 1.415 . S
C1742 H1732 0.930 . S
C1742 C1740 1.419 . S
C1742 C1743 1.362 . S
C1743 H1733 0.930 . S
C1743 C1736 1.409 . S
C1743 C1742 1.362 . S
H1744 C1750 0.930 . S
H1745 C1753 0.930 . S
H1746 C1754 0.930 . S
H1747 C1755 0.930 . S
H1748 C1758 0.930 . S
H1749 C1759 0.930 . S
C1750 H1744 0.930 . S
C1750 C1751 1.355 . S
C1750 C1752 1.415 . S
C1751 C1750 1.355 . S
C1751 C1753 1.419 . S
C1752 C1750 1.415 . S
C1752 C1757 1.425 . S
C1752 C1759 1.409 . S
C1753 H1745 0.930 . S
C1753 C1751 1.419 . S
C1753 C1754 1.362 . S
C1754 H1746 0.930 . S
C1754 C1753 1.362 . S
C1754 C1757 1.409 . S
C1755 H1747 0.930 . S
C1755 C1756 1.355 . S
C1755 C1757 1.415 . S
C1756 C1755 1.355 . S
C1756 C1758 1.419 . S
C1757 C1752 1.425 . S
C1757 C1754 1.409 . S
C1757 C1755 1.415 . S
C1758 H1748 0.930 . S
C1758 C1756 1.419 . S
C1758 C1759 1.362 . S
C1759 H1749 0.930 . S
C1759 C1752 1.409 . S
C1759 C1758 1.362 . S
H1760 C1766 0.930 . S
H1761 C1769 0.930 . S
H1762 C1770 0.930 . S
H1763 C1771 0.930 . S
H1764 C1774 0.930 . S
H1765 C1775 0.930 . S
C1766 H1760 0.930 . S
C1766 C1767 1.355 . S
C1766 C1768 1.415 . S
C1767 C1766 1.355 . S
C1767 C1769 1.419 . S
C1768 C1766 1.415 . S
C1768 C1773 1.425 . S
C1768 C1775 1.409 . S
C1769 H1761 0.930 . S
C1769 C1767 1.419 . S
C1769 C1770 1.362 . S
C1770 H1762 0.930 . S
C1770 C1769 1.362 . S
C1770 C1773 1.409 . S
C1771 H1763 0.930 . S
C1771 C1772 1.355 . S
C1771 C1773 1.415 . S
C1772 C1771 1.355 . S
C1772 C1774 1.419 . S
C1773 C1768 1.425 . S
C1773 C1770 1.409 . S
C1773 C1771 1.415 . S
C1774 H1764 0.930 . S
C1774 C1772 1.419 . S
C1774 C1775 1.362 . S
C1775 H1765 0.930 . S
C1775 C1768 1.409 . S
C1775 C1774 1.362 . S
H1776 C1782 0.930 . S
H1777 C1785 0.930 . S
H1778 C1786 0.930 . S
H1779 C1787 0.930 . S
H1780 C1790 0.930 . S
H1781 C1791 0.930 . S
C1782 H1776 0.930 . S
C1782 C1783 1.355 . S
C1782 C1784 1.415 . S
C1783 C1782 1.355 . S
C1783 C1785 1.419 . S
C1784 C1782 1.415 . S
C1784 C1789 1.425 . S
C1784 C1791 1.409 . S
C1785 H1777 0.930 . S
C1785 C1783 1.419 . S
C1785 C1786 1.362 . S
C1786 H1778 0.930 . S
C1786 C1785 1.362 . S
C1786 C1789 1.409 . S
C1787 H1779 0.930 . S
C1787 C1788 1.355 . S
C1787 C1789 1.415 . S
C1788 C1787 1.355 . S
C1788 C1790 1.419 . S
C1789 C1784 1.425 . S
C1789 C1786 1.409 . S
C1789 C1787 1.415 . S
C1790 H1780 0.930 . S
C1790 C1788 1.419 . S
C1790 C1791 1.362 . S
C1791 H1781 0.930 . S
C1791 C1784 1.409 . S
C1791 C1790 1.362 . S
H1792 C1798 0.930 . S
H1793 C1801 0.930 . S
H1794 C1802 0.930 . S
H1795 C1803 0.930 . S
H1796 C1806 0.930 . S
H1797 C1807 0.930 . S
C1798 H1792 0.930 . S
C1798 C1799 1.355 . S
C1798 C1800 1.415 . S
C1799 C1798 1.355 . S
C1799 C1801 1.419 . S
C1800 C1798 1.415 . S
C1800 C1805 1.425 . S
C1800 C1807 1.409 . S
C1801 H1793 0.930 . S
C1801 C1799 1.419 . S
C1801 C1802 1.362 . S
C1802 H1794 0.930 . S
C1802 C1801 1.362 . S
C1802 C1805 1.409 . S
C1803 H1795 0.930 . S
C1803 C1804 1.355 . S
C1803 C1805 1.415 . S
C1804 C1803 1.355 . S
C1804 C1806 1.419 . S
C1805 C1800 1.425 . S
C1805 C1802 1.409 . S
C1805 C1803 1.415 . S
C1806 H1796 0.930 . S
C1806 C1804 1.419 . S
C1806 C1807 1.362 . S
C1807 H1797 0.930 . S
C1807 C1800 1.409 . S
C1807 C1806 1.362 . S
H1808 C1814 0.930 . S
H1809 C1817 0.930 . S
H1810 C1818 0.930 . S
H1811 C1819 0.930 . S
H1812 C1822 0.930 . S
H1813 C1823 0.930 . S
C1814 H1808 0.930 . S
C1814 C1815 1.355 . S
C1814 C1816 1.415 . S
C1815 C1814 1.355 . S
C1815 C1817 1.419 . S
C1816 C1814 1.415 . S
C1816 C1821 1.425 . S
C1816 C1823 1.409 . S
C1817 H1809 0.930 . S
C1817 C1815 1.419 . S
C1817 C1818 1.362 . S
C1818 H1810 0.930 . S
C1818 C1817 1.362 . S
C1818 C1821 1.409 . S
C1819 H1811 0.930 . S
C1819 C1820 1.355 . S
C1819 C1821 1.415 . S
C1820 C1819 1.355 . S
C1820 C1822 1.419 . S
C1821 C1816 1.425 . S
C1821 C1818 1.409 . S
C1821 C1819 1.415 . S
C1822 H1812 0.930 . S
C1822 C1820 1.419 . S
C1822 C1823 1.362 . S
C1823 H1813 0.930 . S
C1823 C1816 1.409 . S
C1823 C1822 1.362 . S
H1824 C1830 0.930 . S
H1825 C1833 0.930 . S
H1826 C1834 0.930 . S
H1827 C1835 0.930 . S
H1828 C1838 0.930 . S
H1829 C1839 0.930 . S
C1830 H1824 0.930 . S
C1830 C1831 1.355 . S
C1830 C1832 1.415 . S
C1831 C1830 1.355 . S
C1831 C1833 1.419 . S
C1832 C1830 1.415 . S
C1832 C1837 1.425 . S
C1832 C1839 1.409 . S
C1833 H1825 0.930 . S
C1833 C1831 1.419 . S
C1833 C1834 1.362 . S
C1834 H1826 0.930 . S
C1834 C1833 1.362 . S
C1834 C1837 1.409 . S
C1835 H1827 0.930 . S
C1835 C1836 1.355 . S
C1835 C1837 1.415 . S
C1836 C1835 1.355 . S
C1836 C1838 1.419 . S
C1837 C1832 1.425 . S
C1837 C1834 1.409 . S
C1837 C1835 1.415 . S
C1838 H1828 0.930 . S
C1838 C1836 1.419 . S
C1838 C1839 1.362 . S
C1839 H1829 0.930 . S
C1839 C1832 1.409 . S
C1839 C1838 1.362 . S
H1840 C1846 0.930 . S
H1841 C1849 0.930 . S
H1842 C1850 0.930 . S
H1843 C1851 0.930 . S
H1844 C1854 0.930 . S
H1845 C1855 0.930 . S
C1846 H1840 0.930 . S
C1846 C1847 1.355 . S
C1846 C1848 1.415 . S
C1847 C1846 1.355 . S
C1847 C1849 1.419 . S
C1848 C1846 1.415 . S
C1848 C1853 1.425 . S
C1848 C1855 1.409 . S
C1849 H1841 0.930 . S
C1849 C1847 1.419 . S
C1849 C1850 1.362 . S
C1850 H1842 0.930 . S
C1850 C1849 1.362 . S
C1850 C1853 1.409 . S
C1851 H1843 0.930 . S
C1851 C1852 1.355 . S
C1851 C1853 1.415 . S
C1852 C1851 1.355 . S
C1852 C1854 1.419 . S
C1853 C1848 1.425 . S
C1853 C1850 1.409 . S
C1853 C1851 1.415 . S
C1854 H1844 0.930 . S
C1854 C1852 1.419 . S
C1854 C1855 1.362 . S
C1855 H1845 0.930 . S
C1855 C1848 1.409 . S
C1855 C1854 1.362 . S
H1856 C1862 0.930 . S
H1857 C1865 0.941 . S
H1858 C1866 0.930 . S
H1859 C1867 0.930 1_565 S
H1860 C1870 0.930 . S
H1861 C1871 0.930 . S
C1862 H1856 0.930 . S
C1862 C1863 1.355 . S
C1862 C1864 1.415 . S
C1863 C1862 1.355 . S
C1863 C1865 1.403 1_545 S
C1864 C1862 1.415 . S
C1864 C1869 1.425 . S
C1864 C1871 1.409 . S
C1865 H1857 0.941 . S
C1865 C1863 1.403 1_565 S
C1865 C1866 1.367 . S
C1866 H1858 0.930 . S
C1866 C1865 1.367 . S
C1866 C1869 1.409 1_565 S
C1867 H1859 0.930 1_545 S
C1867 C1868 1.355 . S
C1867 C1869 1.415 . S
C1868 C1867 1.355 . S
C1868 C1870 1.419 . S
C1869 C1864 1.425 . S
C1869 C1866 1.409 1_545 S
C1869 C1867 1.415 . S
C1870 H1860 0.930 . S
C1870 C1868 1.419 . S
C1870 C1871 1.362 . S
C1871 H1861 0.930 . S
C1871 C1864 1.409 . S
C1871 C1870 1.362 . S
H1872 C1878 0.930 . S
H1873 C1881 0.930 . S
H1874 C1882 0.930 . S
H1875 C1883 0.930 . S
H1876 C1886 0.930 . S
H1877 C1887 0.930 . S
C1878 H1872 0.930 . S
C1878 C1879 1.355 . S
C1878 C1880 1.415 . S
C1879 C1878 1.355 . S
C1879 C1881 1.419 . S
C1880 C1878 1.415 . S
C1880 C1885 1.425 . S
C1880 C1887 1.409 . S
C1881 H1873 0.930 . S
C1881 C1879 1.419 . S
C1881 C1882 1.362 . S
C1882 H1874 0.930 . S
C1882 C1881 1.362 . S
C1882 C1885 1.409 . S
C1883 H1875 0.930 . S
C1883 C1884 1.355 . S
C1883 C1885 1.415 . S
C1884 C1883 1.355 . S
C1884 C1886 1.419 . S
C1885 C1880 1.425 . S
C1885 C1882 1.409 . S
C1885 C1883 1.415 . S
C1886 H1876 0.930 . S
C1886 C1884 1.419 . S
C1886 C1887 1.362 . S
C1887 H1877 0.930 . S
C1887 C1880 1.409 . S
C1887 C1886 1.362 . S
H1888 C1894 0.930 . S
H1889 C1897 0.930 . S
H1890 C1898 0.930 . S
H1891 C1899 0.930 . S
H1892 C1902 0.930 . S
H1893 C1903 0.930 . S
C1894 H1888 0.930 . S
C1894 C1895 1.355 . S
C1894 C1896 1.415 . S
C1895 C1894 1.355 . S
C1895 C1897 1.419 . S
C1896 C1894 1.415 . S
C1896 C1901 1.425 . S
C1896 C1903 1.409 . S
C1897 H1889 0.930 . S
C1897 C1895 1.419 . S
C1897 C1898 1.362 . S
C1898 H1890 0.930 . S
C1898 C1897 1.362 . S
C1898 C1901 1.409 . S
C1899 H1891 0.930 . S
C1899 C1900 1.355 . S
C1899 C1901 1.415 . S
C1900 C1899 1.355 . S
C1900 C1902 1.419 . S
C1901 C1896 1.425 . S
C1901 C1898 1.409 . S
C1901 C1899 1.415 . S
C1902 H1892 0.930 . S
C1902 C1900 1.419 . S
C1902 C1903 1.362 . S
C1903 H1893 0.930 . S
C1903 C1896 1.409 . S
C1903 C1902 1.362 . S
H1904 C1910 0.930 . S
H1905 C1913 0.930 . S
H1906 C1914 0.930 . S
H1907 C1915 0.930 . S
H1908 C1918 0.930 . S
H1909 C1919 0.930 . S
C1910 H1904 0.930 . S
C1910 C1911 1.355 . S
C1910 C1912 1.415 . S
C1911 C1910 1.355 . S
C1911 C1913 1.419 . S
C1912 C1910 1.415 . S
C1912 C1917 1.425 . S
C1912 C1919 1.409 . S
C1913 H1905 0.930 . S
C1913 C1911 1.419 . S
C1913 C1914 1.362 . S
C1914 H1906 0.930 . S
C1914 C1913 1.362 . S
C1914 C1917 1.409 . S
C1915 H1907 0.930 . S
C1915 C1916 1.355 . S
C1915 C1917 1.415 . S
C1916 C1915 1.355 . S
C1916 C1918 1.419 . S
C1917 C1912 1.425 . S
C1917 C1914 1.409 . S
C1917 C1915 1.415 . S
C1918 H1908 0.930 . S
C1918 C1916 1.419 . S
C1918 C1919 1.362 . S
C1919 H1909 0.930 . S
C1919 C1912 1.409 . S
C1919 C1918 1.362 . S
H1920 C1926 0.930 . S
H1921 C1929 0.930 . S
H1922 C1930 0.930 . S
H1923 C1931 0.930 . S
H1924 C1934 0.930 . S
H1925 C1935 0.930 . S
C1926 H1920 0.930 . S
C1926 C1927 1.355 1_455 S
C1926 C1928 1.415 . S
C1927 C1926 1.355 1_655 S
C1927 C1929 1.419 . S
C1928 C1926 1.415 . S
C1928 C1933 1.425 1_455 S
C1928 C1935 1.409 . S
C1929 H1921 0.930 . S
C1929 C1927 1.419 . S
C1929 C1930 1.362 . S
C1930 H1922 0.930 . S
C1930 C1929 1.362 . S
C1930 C1933 1.409 . S
C1931 H1923 0.930 . S
C1931 C1932 1.353 . S
C1931 C1933 1.415 . S
C1932 C1931 1.353 . S
C1932 C1934 1.421 1_655 S
C1933 C1928 1.425 1_655 S
C1933 C1930 1.409 . S
C1933 C1931 1.415 . S
C1934 H1924 0.930 . S
C1934 C1932 1.421 1_455 S
C1934 C1935 1.362 . S
C1935 H1925 0.930 . S
C1935 C1928 1.409 . S
C1935 C1934 1.362 . S
H1936 C1942 0.930 . S
H1937 C1945 0.930 . S
H1938 C1946 0.930 . S
H1939 C1947 0.930 . S
H1940 C1950 0.930 . S
H1941 C1951 0.930 . S
C1942 H1936 0.930 . S
C1942 C1943 1.355 . S
C1942 C1944 1.415 . S
C1943 C1942 1.355 . S
C1943 C1945 1.419 . S
C1944 C1942 1.415 . S
C1944 C1949 1.425 . S
C1944 C1951 1.409 . S
C1945 H1937 0.930 . S
C1945 C1943 1.419 . S
C1945 C1946 1.362 . S
C1946 H1938 0.930 . S
C1946 C1945 1.362 . S
C1946 C1949 1.409 . S
C1947 H1939 0.930 . S
C1947 C1948 1.355 . S
C1947 C1949 1.415 . S
C1948 C1947 1.355 . S
C1948 C1950 1.419 . S
C1949 C1944 1.425 . S
C1949 C1946 1.409 . S
C1949 C1947 1.415 . S
C1950 H1940 0.930 . S
C1950 C1948 1.419 . S
C1950 C1951 1.362 . S
C1951 H1941 0.930 . S
C1951 C1944 1.409 . S
C1951 C1950 1.362 . S
H1952 C1958 0.930 . S
H1953 C1961 0.944 . S
H1954 C1962 0.930 . S
H1955 C1963 0.928 1_655 S
H1956 C1966 0.930 . S
H1957 C1967 0.930 . S
C1958 H1952 0.930 . S
C1958 C1959 1.355 . S
C1958 C1960 1.415 . S
C1959 C1958 1.355 . S
C1959 C1961 1.397 1_455 S
C1960 C1958 1.415 . S
C1960 C1965 1.425 . S
C1960 C1967 1.409 . S
C1961 H1953 0.944 . S
C1961 C1959 1.397 1_655 S
C1961 C1962 1.371 . S
C1962 H1954 0.930 . S
C1962 C1961 1.371 . S
C1962 C1965 1.409 1_655 S
C1963 H1955 0.928 1_455 S
C1963 C1964 1.356 . S
C1963 C1965 1.415 . S
C1964 C1963 1.356 . S
C1964 C1966 1.419 . S
C1965 C1960 1.425 . S
C1965 C1962 1.409 1_455 S
C1965 C1963 1.415 . S
C1966 H1956 0.930 . S
C1966 C1964 1.419 . S
C1966 C1967 1.362 . S
C1967 H1957 0.930 . S
C1967 C1960 1.409 . S
C1967 C1966 1.362 . S
H1968 C1974 0.930 . S
H1969 C1977 0.930 . S
H1970 C1978 0.930 . S
H1971 C1979 0.930 . S
H1972 C1982 0.930 . S
H1973 C1983 0.930 . S
C1974 H1968 0.930 . S
C1974 C1975 1.355 . S
C1974 C1976 1.415 . S
C1975 C1974 1.355 . S
C1975 C1977 1.419 . S
C1976 C1974 1.415 . S
C1976 C1981 1.425 . S
C1976 C1983 1.409 . S
C1977 H1969 0.930 . S
C1977 C1975 1.419 . S
C1977 C1978 1.362 . S
C1978 H1970 0.930 . S
C1978 C1977 1.362 . S
C1978 C1981 1.409 . S
C1979 H1971 0.930 . S
C1979 C1980 1.355 . S
C1979 C1981 1.415 . S
C1980 C1979 1.355 . S
C1980 C1982 1.419 . S
C1981 C1976 1.425 . S
C1981 C1978 1.409 . S
C1981 C1979 1.415 . S
C1982 H1972 0.930 . S
C1982 C1980 1.419 . S
C1982 C1983 1.362 . S
C1983 H1973 0.930 . S
C1983 C1976 1.409 . S
C1983 C1982 1.362 . S
H1984 C1990 0.930 . S
H1985 C1993 0.930 . S
H1986 C1994 0.930 . S
H1987 C1995 0.930 . S
H1988 C1998 0.930 . S
H1989 C1999 0.930 . S
C1990 H1984 0.930 . S
C1990 C1991 1.355 . S
C1990 C1992 1.415 . S
C1991 C1990 1.355 . S
C1991 C1993 1.419 . S
C1992 C1990 1.415 . S
C1992 C1997 1.425 . S
C1992 C1999 1.409 . S
C1993 H1985 0.930 . S
C1993 C1991 1.419 . S
C1993 C1994 1.362 . S
C1994 H1986 0.930 . S
C1994 C1993 1.362 . S
C1994 C1997 1.409 . S
C1995 H1987 0.930 . S
C1995 C1996 1.355 . S
C1995 C1997 1.415 . S
C1996 C1995 1.355 . S
C1996 C1998 1.419 . S
C1997 C1992 1.425 . S
C1997 C1994 1.409 . S
C1997 C1995 1.415 . S
C1998 H1988 0.930 . S
C1998 C1996 1.419 . S
C1998 C1999 1.362 . S
C1999 H1989 0.930 . S
C1999 C1992 1.409 . S
C1999 C1998 1.362 . S
H2000 C2006 0.930 . S
H2001 C2009 0.930 . S
H2002 C2010 0.930 . S
H2003 C2011 0.930 . S
H2004 C2014 0.930 . S
H2005 C2015 0.930 . S
C2006 H2000 0.930 . S
C2006 C2007 1.355 . S
C2006 C2008 1.415 . S
C2007 C2006 1.355 . S
C2007 C2009 1.419 . S
C2008 C2006 1.415 . S
C2008 C2013 1.425 . S
C2008 C2015 1.409 . S
C2009 H2001 0.930 . S
C2009 C2007 1.419 . S
C2009 C2010 1.362 . S
C2010 H2002 0.930 . S
C2010 C2009 1.362 . S
C2010 C2013 1.409 . S
C2011 H2003 0.930 . S
C2011 C2012 1.355 . S
C2011 C2013 1.415 . S
C2012 C2011 1.355 . S
C2012 C2014 1.419 . S
C2013 C2008 1.425 . S
C2013 C2010 1.409 . S
C2013 C2011 1.415 . S
C2014 H2004 0.930 . S
C2014 C2012 1.419 . S
C2014 C2015 1.362 . S
C2015 H2005 0.930 . S
C2015 C2008 1.409 . S
C2015 C2014 1.362 . S
H2016 C2022 0.930 . S
H2017 C2025 0.930 . S
H2018 C2026 0.930 . S
H2019 C2027 0.930 . S
H2020 C2030 0.930 . S
H2021 C2031 0.930 . S
C2022 H2016 0.930 . S
C2022 C2023 1.355 . S
C2022 C2024 1.415 . S
C2023 C2022 1.355 . S
C2023 C2025 1.419 . S
C2024 C2022 1.415 . S
C2024 C2029 1.425 . S
C2024 C2031 1.409 . S
C2025 H2017 0.930 . S
C2025 C2023 1.419 . S
C2025 C2026 1.362 . S
C2026 H2018 0.930 . S
C2026 C2025 1.362 . S
C2026 C2029 1.409 . S
C2027 H2019 0.930 . S
C2027 C2028 1.355 . S
C2027 C2029 1.415 . S
C2028 C2027 1.355 . S
C2028 C2030 1.419 . S
C2029 C2024 1.425 . S
C2029 C2026 1.409 . S
C2029 C2027 1.415 . S
C2030 H2020 0.930 . S
C2030 C2028 1.419 . S
C2030 C2031 1.362 . S
C2031 H2021 0.930 . S
C2031 C2024 1.409 . S
C2031 C2030 1.362 . S
H2032 C2038 0.930 . S
H2033 C2041 0.930 . S
H2034 C2042 0.930 . S
H2035 C2043 0.930 . S
H2036 C2046 0.930 . S
H2037 C2047 0.930 . S
C2038 H2032 0.930 . S
C2038 C2039 1.355 . S
C2038 C2040 1.415 . S
C2039 C2038 1.355 . S
C2039 C2041 1.419 . S
C2040 C2038 1.415 . S
C2040 C2045 1.425 . S
C2040 C2047 1.409 . S
C2041 H2033 0.930 . S
C2041 C2039 1.419 . S
C2041 C2042 1.362 . S
C2042 H2034 0.930 . S
C2042 C2041 1.362 . S
C2042 C2045 1.409 . S
C2043 H2035 0.930 . S
C2043 C2044 1.355 . S
C2043 C2045 1.415 . S
C2044 C2043 1.355 . S
C2044 C2046 1.419 . S
C2045 C2040 1.425 . S
C2045 C2042 1.409 . S
C2045 C2043 1.415 . S
C2046 H2036 0.930 . S
C2046 C2044 1.419 . S
C2046 C2047 1.362 . S
C2047 H2037 0.930 . S
C2047 C2040 1.409 . S
C2047 C2046 1.362 . S
H2048 C2054 0.930 . S
H2049 C2057 0.930 . S
H2050 C2058 0.930 . S
H2051 C2059 0.930 . S
H2052 C2062 0.930 . S
H2053 C2063 0.930 . S
C2054 H2048 0.930 . S
C2054 C2055 1.355 . S
C2054 C2056 1.415 . S
C2055 C2054 1.355 . S
C2055 C2057 1.419 . S
C2056 C2054 1.415 . S
C2056 C2061 1.425 . S
C2056 C2063 1.409 . S
C2057 H2049 0.930 . S
C2057 C2055 1.419 . S
C2057 C2058 1.362 . S
C2058 H2050 0.930 . S
C2058 C2057 1.362 . S
C2058 C2061 1.409 . S
C2059 H2051 0.930 . S
C2059 C2060 1.355 . S
C2059 C2061 1.415 . S
C2060 C2059 1.355 . S
C2060 C2062 1.419 . S
C2061 C2056 1.425 . S
C2061 C2058 1.409 . S
C2061 C2059 1.415 . S
C2062 H2052 0.930 . S
C2062 C2060 1.419 . S
C2062 C2063 1.362 . S
C2063 H2053 0.930 . S
C2063 C2056 1.409 . S
C2063 C2062 1.362 . S
H2064 C2070 0.930 . S
H2065 C2073 0.930 . S
H2066 C2074 0.930 . S
H2067 C2075 0.930 . S
H2068 C2078 0.930 . S
H2069 C2079 0.930 . S
C2070 H2064 0.930 . S
C2070 C2071 1.355 . S
C2070 C2072 1.415 . S
C2071 C2070 1.355 . S
C2071 C2073 1.419 . S
C2072 C2070 1.415 . S
C2072 C2077 1.425 . S
C2072 C2079 1.409 . S
C2073 H2065 0.930 . S
C2073 C2071 1.419 . S
C2073 C2074 1.362 . S
C2074 H2066 0.930 . S
C2074 C2073 1.362 . S
C2074 C2077 1.409 . S
C2075 H2067 0.930 . S
C2075 C2076 1.355 . S
C2075 C2077 1.415 . S
C2076 C2075 1.355 . S
C2076 C2078 1.419 . S
C2077 C2072 1.425 . S
C2077 C2074 1.409 . S
C2077 C2075 1.415 . S
C2078 H2068 0.930 . S
C2078 C2076 1.419 . S
C2078 C2079 1.362 . S
C2079 H2069 0.930 . S
C2079 C2072 1.409 . S
C2079 C2078 1.362 . S
H2080 C2086 0.930 . S
H2081 C2089 0.930 . S
H2082 C2090 0.930 . S
H2083 C2091 0.930 . S
H2084 C2094 0.930 . S
H2085 C2095 0.930 . S
C2086 H2080 0.930 . S
C2086 C2087 1.355 . S
C2086 C2088 1.415 . S
C2087 C2086 1.355 . S
C2087 C2089 1.419 . S
C2088 C2086 1.415 . S
C2088 C2093 1.425 . S
C2088 C2095 1.409 . S
C2089 H2081 0.930 . S
C2089 C2087 1.419 . S
C2089 C2090 1.362 . S
C2090 H2082 0.930 . S
C2090 C2089 1.362 . S
C2090 C2093 1.409 . S
C2091 H2083 0.930 . S
C2091 C2092 1.355 . S
C2091 C2093 1.415 . S
C2092 C2091 1.355 . S
C2092 C2094 1.419 . S
C2093 C2088 1.425 . S
C2093 C2090 1.409 . S
C2093 C2091 1.415 . S
C2094 H2084 0.930 . S
C2094 C2092 1.419 . S
C2094 C2095 1.362 . S
C2095 H2085 0.930 . S
C2095 C2088 1.409 . S
C2095 C2094 1.362 . S
H2096 C2102 0.930 . S
H2097 C2105 0.930 . S
H2098 C2106 0.930 . S
H2099 C2107 0.930 . S
H2100 C2110 0.930 . S
H2101 C2111 0.930 . S
C2102 H2096 0.930 . S
C2102 C2103 1.355 . S
C2102 C2104 1.415 . S
C2103 C2102 1.355 . S
C2103 C2105 1.419 1_556 S
C2104 C2102 1.415 . S
C2104 C2109 1.387 1_556 S
C2104 C2111 1.409 . S
C2105 H2097 0.930 . S
C2105 C2103 1.419 1_554 S
C2105 C2106 1.362 . S
C2106 H2098 0.930 . S
C2106 C2105 1.362 . S
C2106 C2109 1.436 . S
C2107 H2099 0.930 . S
C2107 C2108 1.355 1_554 S
C2107 C2109 1.426 . S
C2108 C2107 1.355 1_556 S
C2108 C2110 1.419 . S
C2109 C2104 1.387 1_554 S
C2109 C2106 1.436 . S
C2109 C2107 1.426 . S
C2110 H2100 0.930 . S
C2110 C2108 1.419 . S
C2110 C2111 1.362 . S
C2111 H2101 0.930 . S
C2111 C2104 1.409 . S
C2111 C2110 1.362 . S
H2112 C2118 0.930 . S
H2113 C2121 0.930 . S
H2114 C2122 0.930 . S
H2115 C2123 0.930 . S
H2116 C2126 0.930 . S
H2117 C2127 0.930 . S
C2118 H2112 0.930 . S
C2118 C2119 1.355 . S
C2118 C2120 1.415 . S
C2119 C2118 1.355 . S
C2119 C2121 1.419 . S
C2120 C2118 1.415 . S
C2120 C2125 1.425 . S
C2120 C2127 1.409 . S
C2121 H2113 0.930 . S
C2121 C2119 1.419 . S
C2121 C2122 1.362 . S
C2122 H2114 0.930 . S
C2122 C2121 1.362 . S
C2122 C2125 1.409 . S
C2123 H2115 0.930 . S
C2123 C2124 1.355 . S
C2123 C2125 1.415 . S
C2124 C2123 1.355 . S
C2124 C2126 1.419 . S
C2125 C2120 1.425 . S
C2125 C2122 1.409 . S
C2125 C2123 1.415 . S
C2126 H2116 0.930 . S
C2126 C2124 1.419 . S
C2126 C2127 1.362 . S
C2127 H2117 0.930 . S
C2127 C2120 1.409 . S
C2127 C2126 1.362 . S
H2128 C2134 0.930 . S
H2129 C2137 0.930 . S
H2130 C2138 0.930 . S
H2131 C2139 0.930 . S
H2132 C2142 0.930 . S
H2133 C2143 0.930 . S
C2134 H2128 0.930 . S
C2134 C2135 1.355 . S
C2134 C2136 1.415 . S
C2135 C2134 1.355 . S
C2135 C2137 1.419 . S
C2136 C2134 1.415 . S
C2136 C2141 1.425 . S
C2136 C2143 1.409 . S
C2137 H2129 0.930 . S
C2137 C2135 1.419 . S
C2137 C2138 1.362 . S
C2138 H2130 0.930 . S
C2138 C2137 1.362 . S
C2138 C2141 1.409 . S
C2139 H2131 0.930 . S
C2139 C2140 1.355 . S
C2139 C2141 1.415 . S
C2140 C2139 1.355 . S
C2140 C2142 1.419 . S
C2141 C2136 1.425 . S
C2141 C2138 1.409 . S
C2141 C2139 1.415 . S
C2142 H2132 0.930 . S
C2142 C2140 1.419 . S
C2142 C2143 1.362 . S
C2143 H2133 0.930 . S
C2143 C2136 1.409 . S
C2143 C2142 1.362 . S
H2144 C2150 0.930 . S
H2145 C2153 0.930 . S
H2146 C2154 0.930 . S
H2147 C2155 0.950 . S
H2148 C2158 0.930 . S
H2149 C2159 0.930 . S
C2150 H2144 0.930 . S
C2150 C2151 1.355 . S
C2150 C2152 1.415 . S
C2151 C2150 1.355 . S
C2151 C2153 1.419 1_554 S
C2152 C2150 1.415 . S
C2152 C2157 1.425 . S
C2152 C2159 1.409 . S
C2153 H2145 0.930 . S
C2153 C2151 1.419 1_556 S
C2153 C2154 1.362 . S
C2154 H2146 0.930 . S
C2154 C2153 1.362 . S
C2154 C2157 1.409 1_556 S
C2155 H2147 0.950 . S
C2155 C2156 1.340 1_556 S
C2155 C2157 1.410 1_556 S
C2156 C2155 1.340 1_554 S
C2156 C2158 1.419 . S
C2157 C2152 1.425 . S
C2157 C2154 1.409 1_554 S
C2157 C2155 1.410 1_554 S
C2158 H2148 0.930 . S
C2158 C2156 1.419 . S
C2158 C2159 1.362 . S
C2159 H2149 0.930 . S
C2159 C2152 1.409 . S
C2159 C2158 1.362 . S
C1404 C962 1.450 . S
C1399 C331 1.438 . S
C1420 C1010 1.629 . S
C1415 C380 1.659 . S
C1431 C421 1.427 . S
C1436 C1046 1.341 . S
C1452 C1082 1.578 1_545 S
C1447 C260 1.590 . S
C1468 C1108 1.465 . S
C1463 C620 1.426 . S
C1484 C1144 1.571 . S
C1479 C740 1.572 . S
C1495 C680 1.469 . S
C1500 C1179 1.509 . S
C1516 C1216 1.584 1_565 S
C1511 C571 1.565 . S
C1527 C691 1.469 . S
C1532 C1250 1.440 . S
C1548 C1298 1.541 . S
C1543 C541 1.561 . S
C1559 C601 1.419 . S
C1564 C1251 1.479 . S
C1580 C1288 1.593 . S
C1575 C721 1.598 . S
C1591 C451 1.468 . S
C1596 C1334 1.378 . S
C1607 C241 1.599 . S
C1612 C1323 1.615 . S
C1623 C320 1.448 . S
C1628 C1324 1.483 . S
C1639 C391 1.596 . S
C1644 C1322 1.632 . S
C1655 C211 1.459 . S
C1660 C1070 1.469 . S
C1671 C841 1.403 . S
C1676 C1071 1.472 . S
C1692 C974 1.587 . S
C1687 C901 1.636 . S
C1708 C999 1.486 . S
C1703 C500 1.425 . S
C1719 C271 1.568 . S
C1724 C1106 1.602 . S
C1740 C1214 1.488 . S
C1735 C661 1.462 . S
C1756 C1107 1.588 . S
C1751 C560 1.551 . S
C1772 C1180 1.611 . S
C1767 C751 1.577 . S
C1788 C1178 1.470 . S
C1783 C871 1.460 . S
C1799 C920 1.635 . S
C1804 C1226 1.586 . S
C1815 C481 1.436 . S
C1820 C1118 1.348 . S
C1836 C1154 1.530 . S
C1831 C800 1.572 . S
C1847 C200 1.457 . S
C1852 C1036 1.479 . S
C1868 C1072 1.582 . S
C1863 C20 1.537 . S
C1884 C963 1.511 . S
C1879 C80 1.492 . S
C1900 C1000 1.588 . S
C1895 C151 1.597 . S
C1911 C91 1.428 . S
C1916 C1286 1.432 . S
C1927 C121 1.569 . S
C1932 C1262 1.567 . S
C1943 C181 1.452 . S
C1948 C1287 1.473 . S
C1959 C1 1.558 . S
C1964 C1252 1.607 . S
C1980 C1370 1.434 . S
C1975 C511 1.457 . S
C1996 C1359 1.613 . S
C1991 C781 1.592 . S
C2012 C1360 1.482 . S
C2007 C860 1.442 . S
C2023 C931 1.605 . S
C2028 C1358 1.635 . S
C2039 C631 1.404 . S
C2044 C1142 1.457 . S
C2060 C1143 1.469 . S
C2055 C301 1.386 . S
C2076 C1190 1.563 . S
C2071 C361 1.631 . S
C2092 C1215 1.473 . S
C2087 C440 1.447 . S
C2103 C811 1.567 . S
C2108 C1034 1.619 1_556 S
C2124 C998 1.502 . S
C2119 C61 1.503 . S
C2135 C140 1.577 . S
C2140 C1035 1.571 . S
C2156 C964 1.605 . S
C2151 C31 1.564 . S
