# Generated by pormake.
# Topology pyr, (3,6)-cn, num edge types: 1
# Building blocks:
#     Node 0, Type 0, BuildingBlock: PAMTOO_clean_linker_0, # of connection points: 3
#     Node 1, Type 0, BuildingBlock: PAMTOO_clean_linker_0, # of connection points: 3
#     Node 2, Type 0, BuildingBlock: PAMTOO_clean_linker_0, # of connection points: 3
#     Node 3, Type 0, BuildingBlock: PAMTOO_clean_linker_0, # of connection points: 3
#     Node 4, Type 0, BuildingBlock: PAMTOO_clean_linker_0, # of connection points: 3
#     Node 5, Type 0, BuildingBlock: PAMTOO_clean_linker_0, # of connection points: 3
#     Node 6, Type 0, BuildingBlock: PAMTOO_clean_linker_0, # of connection points: 3
#     Node 7, Type 0, BuildingBlock: PAMTOO_clean_linker_0, # of connection points: 3
#     Node 8, Type 1, BuildingBlock: BETDIP_clean_sbu_0, # of connection points: 6
#     Node 9, Type 1, BuildingBlock: BETDIP_clean_sbu_0, # of connection points: 6
#     Node 10, Type 1, BuildingBlock: BETDIP_clean_sbu_0, # of connection points: 6
#     Node 11, Type 1, BuildingBlock: BETDIP_clean_sbu_0, # of connection points: 6
#     Edge 12, Type (0, 1), BuildingBlock: MIFKUJ_clean_linker_0, # of connection points: 2
#     Edge 13, Type (0, 1), BuildingBlock: MIFKUJ_clean_linker_0, # of connection points: 2
#     Edge 14, Type (0, 1), BuildingBlock: MIFKUJ_clean_linker_0, # of connection points: 2
#     Edge 15, Type (0, 1), BuildingBlock: MIFKUJ_clean_linker_0, # of connection points: 2
#     Edge 16, Type (0, 1), BuildingBlock: MIFKUJ_clean_linker_0, # of connection points: 2
#     Edge 17, Type (0, 1), BuildingBlock: MIFKUJ_clean_linker_0, # of connection points: 2
#     Edge 18, Type (0, 1), BuildingBlock: MIFKUJ_clean_linker_0, # of connection points: 2
#     Edge 19, Type (0, 1), BuildingBlock: MIFKUJ_clean_linker_0, # of connection points: 2
#     Edge 20, Type (0, 1), BuildingBlock: MIFKUJ_clean_linker_0, # of connection points: 2
#     Edge 21, Type (0, 1), BuildingBlock: MIFKUJ_clean_linker_0, # of connection points: 2
#     Edge 22, Type (0, 1), BuildingBlock: MIFKUJ_clean_linker_0, # of connection points: 2
#     Edge 23, Type (0, 1), BuildingBlock: MIFKUJ_clean_linker_0, # of connection points: 2
#     Edge 24, Type (0, 1), BuildingBlock: MIFKUJ_clean_linker_0, # of connection points: 2
#     Edge 25, Type (0, 1), BuildingBlock: MIFKUJ_clean_linker_0, # of connection points: 2
#     Edge 26, Type (0, 1), BuildingBlock: MIFKUJ_clean_linker_0, # of connection points: 2
#     Edge 27, Type (0, 1), BuildingBlock: MIFKUJ_clean_linker_0, # of connection points: 2
#     Edge 28, Type (0, 1), BuildingBlock: MIFKUJ_clean_linker_0, # of connection points: 2
#     Edge 29, Type (0, 1), BuildingBlock: MIFKUJ_clean_linker_0, # of connection points: 2
#     Edge 30, Type (0, 1), BuildingBlock: MIFKUJ_clean_linker_0, # of connection points: 2
#     Edge 31, Type (0, 1), BuildingBlock: MIFKUJ_clean_linker_0, # of connection points: 2
#     Edge 32, Type (0, 1), BuildingBlock: MIFKUJ_clean_linker_0, # of connection points: 2
#     Edge 33, Type (0, 1), BuildingBlock: MIFKUJ_clean_linker_0, # of connection points: 2
#     Edge 34, Type (0, 1), BuildingBlock: MIFKUJ_clean_linker_0, # of connection points: 2
#     Edge 35, Type (0, 1), BuildingBlock: MIFKUJ_clean_linker_0, # of connection points: 2
# Relax obj value: 0.143
# Max RMSD: 0.271
# Mean RMSD: 0.149
data_MOF--net-pyr--node1-BETDIP_clean_sbu_0--node2-PAMTOO_clean_linker_0--edge1-MIFKUJ_clean_linker_0
_symmetry_space_group_name_H-M    P1
_symmetry_Int_Tables_number       1
_symmetry_cell_setting            triclinic
loop_
_symmetry_equiv_pos_as_xyz
'x, y, z'
_cell_length_a     44.637842
_cell_length_b     51.697504
_cell_length_c     50.622745
_cell_angle_alpha  88.817688
_cell_angle_beta   94.158939
_cell_angle_gamma 107.01205
loop_
_atom_site_label
_atom_site_type_symbol
_atom_site_fract_x
_atom_site_fract_y
_atom_site_fract_z
_atom_type_partial_charge
H0 H 0.2865 0.2645 0.23937 0.0
H1 H 0.35058 0.21616 0.24785 0.0
H2 H 0.34584 0.26162 0.17682 0.0
H3 H 0.34743 0.20869 0.16758 0.0
C4 C 0.36067 0.20452 0.18586 0.0
O5 O 0.37159 0.22766 0.20102 0.0
H6 H 0.34423 0.18838 0.1971 0.0
C7 C 0.30457 0.25721 0.23166 0.0
C8 C 0.31452 0.26527 0.20628 0.0
C9 C 0.3174 0.23955 0.24699 0.0
C10 C 0.34107 0.23053 0.23686 0.0
C11 C 0.35128 0.23865 0.21169 0.0
C12 C 0.33841 0.25627 0.19662 0.0
H13 H 0.24119 0.83105 0.72221 0.0
H14 H 0.18549 0.77399 0.6641 0.0
H15 H 0.26261 0.75659 0.70877 0.0
H16 H 0.23381 0.75764 0.63728 0.0
C17 C 0.22647 0.73737 0.64688 0.0
O18 O 0.21707 0.73901 0.67204 0.0
H19 H 0.20598 0.72507 0.63436 0.0
C20 C 0.23652 0.81219 0.7115 0.0
C21 C 0.25518 0.79492 0.71778 0.0
C22 C 0.2113 0.80499 0.69215 0.0
C23 C 0.20457 0.77991 0.6793 0.0
C24 C 0.22326 0.76271 0.68515 0.0
C25 C 0.24838 0.77011 0.70441 0.0
H26 H 0.71025 0.32602 0.89931 0.0
H27 H 0.63857 0.31462 0.83518 0.0
H28 H 0.71315 0.38936 0.84218 0.0
H29 H 0.6488 0.39285 0.82797 0.0
C30 C 0.6422 0.37729 0.81201 0.0
O31 O 0.66337 0.36228 0.81305 0.0
H32 H 0.61849 0.3637 0.81571 0.0
C33 C 0.70031 0.33342 0.88158 0.0
C34 C 0.71497 0.35965 0.8725 0.0
C35 C 0.67256 0.31692 0.86858 0.0
C36 C 0.65959 0.32712 0.8458 0.0
C37 C 0.67436 0.35321 0.83614 0.0
C38 C 0.70178 0.3694 0.84974 0.0
H39 H 0.89515 0.73433 0.39933 0.0
H40 H 0.89286 0.67144 0.34412 0.0
H41 H 0.96635 0.7473 0.3433 0.0
H42 H 0.93753 0.71852 0.2875 0.0
C43 C 0.93397 0.69729 0.29424 0.0
O44 O 0.94421 0.69781 0.32112 0.0
H45 H 0.90827 0.68706 0.29207 0.0
C46 C 0.90471 0.7274 0.3827 0.0
C47 C 0.93208 0.74466 0.37249 0.0
C48 C 0.88996 0.70112 0.37273 0.0
C49 C 0.90366 0.69161 0.35199 0.0
C50 C 0.93103 0.70808 0.34086 0.0
C51 C 0.94524 0.73462 0.35145 0.0
H52 H 0.70881 0.82859 0.83275 0.0
H53 H 0.68737 0.78522 0.90584 0.0
H54 H 0.74893 0.76422 0.85467 0.0
H55 H 0.69588 0.72027 0.87911 0.0
C56 C 0.70571 0.72714 0.8995 0.0
O57 O 0.72281 0.75407 0.89973 0.0
H58 H 0.68568 0.72415 0.91222 0.0
C59 C 0.71084 0.81248 0.84616 0.0
C60 C 0.73033 0.79662 0.84046 0.0
C61 C 0.69522 0.80866 0.86969 0.0
C62 C 0.69843 0.78806 0.88721 0.0
C63 C 0.71765 0.7721 0.88165 0.0
C64 C 0.73363 0.77641 0.85843 0.0
H65 H 0.87178 0.22373 0.34527 0.0
H66 H 0.83743 0.29216 0.35581 0.0
H67 H 0.91068 0.27949 0.40949 0.0
H68 H 0.87814 0.31016 0.43862 0.0
C69 C 0.85966 0.30641 0.42203 0.0
O70 O 0.87412 0.30996 0.39843 0.0
H71 H 0.84448 0.28522 0.42425 0.0
C72 C 0.87265 0.24186 0.35606 0.0
C73 C 0.89374 0.24953 0.37843 0.0
C74 C 0.85225 0.25704 0.34768 0.0
C75 C 0.85354 0.28059 0.36157 0.0
C76 C 0.87481 0.28867 0.38368 0.0
C77 C 0.89524 0.27349 0.39176 0.0
H78 H 0.39368 0.72694 0.1684 0.0
H79 H 0.39143 0.6672 0.22945 0.0
H80 H 0.46342 0.74355 0.23416 0.0
H81 H 0.48577 0.69717 0.25505 0.0
C82 C 0.4628 0.68304 0.25996 0.0
O83 O 0.44025 0.6967 0.25804 0.0
H84 H 0.45663 0.66631 0.2452 0.0
C85 C 0.40356 0.72061 0.18673 0.0
C86 C 0.43028 0.73852 0.1998 0.0
C87 C 0.38932 0.69475 0.197 0.0
C88 C 0.40205 0.68694 0.22109 0.0
C89 C 0.42887 0.70436 0.23442 0.0
C90 C 0.44301 0.73005 0.22364 0.0
H91 H 0.12129 0.32112 0.77365 0.0
H92 H 0.19008 0.39936 0.76585 0.0
H93 H 0.187 0.33572 0.71236 0.0
H94 H 0.2498 0.36819 0.73354 0.0
C95 C 0.2464 0.3886 0.73078 0.0
O96 O 0.21483 0.386 0.72452 0.0
H97 H 0.25373 0.39943 0.75001 0.0
C98 C 0.14072 0.33447 0.76385 0.0
C99 C 0.15269 0.32443 0.74194 0.0
C100 C 0.15385 0.36183 0.77295 0.0
C101 C 0.17925 0.37864 0.7595 0.0
C102 C 0.19123 0.36914 0.73792 0.0
C103 C 0.17784 0.34238 0.72939 0.0
Tb104 Tb 0.01089 0.02208 0.56704 0.0
Tb105 Tb 0.07503 0.04214 0.55599 0.0
C106 C 0.95595 0.99484 0.57691 0.0
C107 C 0.94018 0.97404 0.59561 0.0
C108 C 0.95315 0.9536 0.60489 0.0
C109 C 0.93765 0.93442 0.62304 0.0
C110 C 0.90892 0.93538 0.63212 0.0
C111 C 0.89612 0.95593 0.62268 0.0
C112 C 0.91161 0.97503 0.6046 0.0
C113 C 0.03995 0.06994 0.59021 0.0
C114 C 0.0615 1.00139 0.601 0.0
C115 C 0.12924 0.07154 0.54703 0.0
C116 C 0.14383 0.08695 0.52432 0.0
C117 C 0.17186 0.10786 0.52848 0.0
C118 C 0.18634 0.12249 0.50703 0.0
C119 C 0.17302 0.11636 0.48103 0.0
C120 C 0.14453 0.09561 0.47704 0.0
C121 C 0.13 0.08108 0.49854 0.0
C122 C 0.04645 0.99468 0.53178 0.0
C123 C 0.02427 0.06182 0.5205 0.0
O124 O 0.9723 0.98774 0.55952 0.0
O125 O 0.97033 0.01856 0.58706 0.0
O126 O 0.05106 0.05003 0.58872 0.0
O127 O 0.01189 0.06291 0.57884 0.0
O128 O 0.03222 0.99534 0.59089 0.0
O129 O 0.08239 0.02346 0.59347 0.0
O130 O 0.10832 0.08047 0.55753 0.0
O131 O 0.12009 0.04527 0.54443 0.0
O132 O 0.03493 1.01423 0.53411 0.0
O133 O 0.07504 1.00231 0.54201 0.0
O134 O 0.054 0.0668 0.52911 0.0
O135 O 1.0025 0.04172 0.53031 0.0
H136 H 0.97516 0.95245 0.5981 0.0
H137 H 0.94799 0.91872 0.62977 0.0
H138 H 0.87436 0.95757 0.62961 0.0
H139 H 0.90134 0.99076 0.59775 0.0
H140 H 0.18261 0.11283 0.54833 0.0
H141 H 0.20792 0.13867 0.51085 0.0
H142 H 0.13378 0.09018 0.45728 0.0
H143 H 0.10817 0.06509 0.49502 0.0
Tb144 Tb 0.58423 0.03847 0.03878 0.0
Tb145 Tb 0.5175 1.01269 0.02171 0.0
C146 C 0.63606 0.0722 0.05228 0.0
C147 C 0.64864 0.09046 0.07514 0.0
C148 C 0.63874 0.11349 0.07909 0.0
C149 C 0.65063 0.13011 0.10119 0.0
C150 C 0.67239 0.12386 0.11979 0.0
C151 C 0.68252 0.10106 0.11562 0.0
C152 C 0.6709 0.08464 0.09347 0.0
C153 C 0.55874 0.99161 0.06206 0.0
C154 C 0.52978 0.05408 0.06689 0.0
C155 C 0.46622 0.97873 1.00721 0.0
C156 C 0.45705 0.95947 0.98506 0.0
C157 C 0.43096 0.93661 0.98639 0.0
C158 C 0.42172 0.91857 0.96507 0.0
C159 C 0.43846 0.92323 0.94209 0.0
C160 C 0.46516 0.94578 0.94116 0.0
C161 C 0.47442 0.96372 0.9625 0.0
C162 C 0.54297 0.05987 0.99907 0.0
C163 C 0.57169 0.99679 0.99401 0.0
O164 O 0.61454 0.07786 0.0362 0.0
O165 O 0.62955 0.0463 0.05726 0.0
O166 O 0.54576 1.00991 0.05672 0.0
O167 O 0.58767 1.00013 0.056 0.0
O168 O 0.55962 0.06084 0.06134 0.0
O169 O 0.5089 0.03253 0.05626 0.0
O170 O 0.48617 0.97378 0.02536 0.0
O171 O 0.47357 1.00431 1.00067 0.0
O172 O 0.55587 0.0414 1.00388 0.0
O173 O 0.51412 0.05135 1.00537 0.0
O174 O 0.5423 0.98961 1.00057 0.0
O175 O 0.59233 0.01894 1.00367 0.0
H176 H 0.62167 0.11862 0.06527 0.0
H177 H 0.64245 0.14757 0.10399 0.0
H178 H 0.6997 0.09606 0.12942 0.0
H179 H 0.67921 0.06723 0.09076 0.0
H180 H 0.41748 0.93292 1.00376 0.0
H181 H 0.40091 0.90147 0.96623 0.0
H182 H 0.47872 0.94967 0.92384 0.0
H183 H 0.49489 0.98111 0.9612 0.0
Tb184 Tb 0.5628 0.56393 0.55288 0.0
Tb185 Tb 0.55388 0.51183 0.52611 0.0
C186 C 0.555 0.60672 0.56973 0.0
C187 C 0.52899 0.61378 0.5812 0.0
C188 C 0.49831 0.60518 0.56926 0.0
C189 C 0.47422 0.61309 0.57965 0.0
C190 C 0.48014 0.62949 0.60242 0.0
C191 C 0.51074 0.63733 0.61478 0.0
C192 C 0.53493 0.62965 0.60418 0.0
C193 C 0.58954 0.53067 0.57921 0.0
C194 C 0.50024 0.51487 0.56143 0.0
C195 C 0.56121 0.46814 0.51081 0.0
C196 C 0.58585 0.45978 0.49866 0.0
C197 C 0.61724 0.47583 0.50109 0.0
C198 C 0.64068 0.46705 0.49061 0.0
C199 C 0.63325 0.4418 0.47786 0.0
C200 C 0.6016 0.42598 0.47513 0.0
C201 C 0.57813 0.43496 0.48538 0.0
C202 C 0.52642 0.54454 0.49981 0.0
C203 C 0.61557 0.56208 0.51641 0.0
O204 O 0.55053 0.59947 0.5448 0.0
O205 O 0.56835 0.5914 0.58422 0.0
O206 O 0.56315 0.5245 0.56634 0.0
O207 O 0.60166 0.55674 0.57813 0.0
O208 O 0.51436 0.54132 0.56229 0.0
O209 O 0.5129 0.49837 0.54966 0.0
O210 O 0.56819 0.47738 0.53505 0.0
O211 O 0.54705 0.48271 0.4961 0.0
O212 O 0.5529 0.55105 0.5126 0.0
O213 O 0.51495 0.51839 0.50067 0.0
O214 O 0.60188 0.53548 0.51549 0.0
O215 O 0.60287 0.57813 0.52874 0.0
H216 H 0.49296 0.59271 0.55161 0.0
H217 H 0.45115 0.60692 0.56932 0.0
H218 H 0.51608 0.64949 0.63262 0.0
H219 H 0.55837 0.63628 0.61383 0.0
H220 H 0.62376 0.49487 0.51158 0.0
H221 H 0.66467 0.47997 0.49277 0.0
H222 H 0.59502 0.40626 0.46583 0.0
H223 H 0.55401 0.42223 0.48346 0.0
Tb224 Tb 0.04929 0.54891 0.0203 0.0
Tb225 Tb 0.04936 0.50404 0.0574 0.0
C226 C 0.03321 0.58269 0.99038 0.0
C227 C 1.00908 0.59683 0.98938 0.0
C228 C 0.98264 0.58765 1.00424 0.0
C229 C 0.95792 0.59913 1.0005 0.0
C230 C 0.95928 0.6199 0.98182 0.0
C231 C 0.98649 0.62978 0.96788 0.0
C232 C 0.01115 0.61828 0.97161 0.0
C233 C 0.10461 0.55284 0.04496 0.0
C234 C 0.02656 0.55083 0.07988 0.0
C235 C 0.0662 0.47022 0.08662 0.0
C236 C 0.08767 0.4533 0.08548 0.0
C237 C 0.11931 0.4635 0.09489 0.0
C238 C 0.13922 0.44714 0.09548 0.0
C239 C 0.12802 0.42017 0.08685 0.0
C240 C 0.09652 0.41003 0.07706 0.0
C241 C 0.07651 0.42643 0.07641 0.0
C242 C 0.99424 0.50034 0.03227 0.0
C243 C 0.07119 0.50135 0.99772 0.0
O244 O 0.02255 0.55649 0.98713 0.0
O245 O 0.05546 0.58955 1.00943 0.0
O246 O 0.07822 0.54471 0.05461 0.0
O247 O 0.10054 0.5606 0.02077 0.0
O248 O 0.02649 0.55972 0.05491 0.0
O249 O 0.03657 0.52958 0.08603 0.0
O250 O 0.07943 0.49638 0.0881 0.0
O251 O 0.04067 0.46393 0.0707 0.0
O252 O 0.02081 0.50833 0.02303 0.0
O253 O 0.99789 0.49253 0.05653 0.0
O254 O 0.07064 0.49212 0.02255 0.0
O255 O 0.06225 0.52321 0.99176 0.0
H256 H 0.98062 0.57097 0.01797 0.0
H257 H 0.93721 0.59094 1.01139 0.0
H258 H 0.98845 0.64606 0.95369 0.0
H259 H 0.03143 0.62559 0.96002 0.0
H260 H 0.12862 0.48399 0.10237 0.0
H261 H 0.16315 0.4553 0.10367 0.0
H262 H 0.08726 0.38932 0.0702 0.0
H263 H 0.0522 0.41791 0.06924 0.0
H264 H 0.25583 0.22336 0.25844 0.0
H265 H 0.23411 0.20533 0.30008 0.0
H266 H 0.32737 0.21291 0.33494 0.0
H267 H 0.34948 0.23142 0.29325 0.0
H268 H 0.28593 0.16362 0.34475 0.0
H269 H 0.28953 0.2566 0.35213 0.0
H270 H 0.2801 0.29948 0.33739 0.0
H271 H 0.18058 0.26107 0.33265 0.0
H272 H 0.18943 0.21784 0.34699 0.0
H273 H 0.23605 0.13241 0.47416 0.0
H274 H 0.26256 0.15587 0.43624 0.0
H275 H 0.1732 0.15596 0.39756 0.0
H276 H 0.1466 0.13367 0.43604 0.0
H277 H 0.21569 0.20333 0.39127 0.0
H278 H 0.2117 0.11005 0.381 0.0
H279 H 0.22042 0.0666 0.39463 0.0
H280 H 0.31985 0.10497 0.40382 0.0
H281 H 0.31168 0.14875 0.39058 0.0
C282 C 0.27183 0.22167 0.27507 0.0
C283 C 0.30444 0.22909 0.2726 0.0
C284 C 0.25935 0.21126 0.29884 0.0
C285 C 0.27917 0.20811 0.32068 0.0
C286 C 0.3117 0.21527 0.31831 0.0
C287 C 0.32427 0.22576 0.29448 0.0
C288 C 0.26563 0.19656 0.34568 0.0
C289 C 0.27103 0.17254 0.35522 0.0
C290 C 0.24558 0.2079 0.3589 0.0
C291 C 0.24017 0.23392 0.35043 0.0
C292 C 0.26564 0.25724 0.34775 0.0
C293 C 0.2604 0.28162 0.3395 0.0
C294 C 0.22977 0.28299 0.33403 0.0
C295 C 0.2043 0.25998 0.33687 0.0
C296 C 0.20941 0.23554 0.34509 0.0
C297 C 0.22204 0.13777 0.45777 0.0
C298 C 0.18916 0.13107 0.45812 0.0
C299 C 0.23722 0.1509 0.43596 0.0
C300 C 0.21982 0.15727 0.41388 0.0
C301 C 0.18707 0.1511 0.41434 0.0
C302 C 0.17188 0.13812 0.43623 0.0
C303 C 0.23574 0.17021 0.39023 0.0
C304 C 0.23078 0.19449 0.38093 0.0
C305 C 0.25608 0.15904 0.37715 0.0
C306 C 0.26104 0.13273 0.38507 0.0
C307 C 0.2354 0.10926 0.38613 0.0
C308 C 0.24025 0.08457 0.39375 0.0
C309 C 0.27066 0.08304 0.40016 0.0
C310 C 0.2963 0.1062 0.39889 0.0
C311 C 0.29158 0.13095 0.39131 0.0
H312 H 0.27437 0.0639 0.40605 0.0
H313 H 0.22576 0.30188 0.32764 0.0
H314 H 0.29894 0.84411 0.72488 0.0
H315 H 0.33741 0.85894 0.76235 0.0
H316 H 0.30907 0.77858 0.7955 0.0
H317 H 0.26984 0.76376 0.7582 0.0
H318 H 0.30886 0.81585 0.83114 0.0
H319 H 0.38195 0.80402 0.77236 0.0
H320 H 0.40842 0.80814 0.73074 0.0
H321 H 0.43957 0.89457 0.73905 0.0
H322 H 0.41288 0.89103 0.78053 0.0
H323 H 0.41828 0.86785 0.94006 0.0
H324 H 0.3947 0.83941 0.90137 0.0
H325 H 0.40847 0.91077 0.85253 0.0
H326 H 0.43214 0.93913 0.89094 0.0
H327 H 0.42021 0.87008 0.82629 0.0
H328 H 0.33869 0.88184 0.87928 0.0
H329 H 0.31124 0.8787 0.92033 0.0
H330 H 0.29539 0.79267 0.92193 0.0
H331 H 0.32315 0.79537 0.88106 0.0
C332 C 0.30109 0.82953 0.74003 0.0
C333 C 0.2812 0.80284 0.73873 0.0
C334 C 0.32333 0.83795 0.76131 0.0
C335 C 0.32632 0.81982 0.78165 0.0
C336 C 0.30725 0.79287 0.77995 0.0
C337 C 0.28499 0.7844 0.75859 0.0
C338 C 0.34711 0.82986 0.80577 0.0
C339 C 0.33344 0.82709 0.83018 0.0
C340 C 0.37902 0.84499 0.80444 0.0
C341 C 0.39523 0.84725 0.77952 0.0
C342 C 0.39425 0.82393 0.76523 0.0
C343 C 0.40932 0.82615 0.74167 0.0
C344 C 0.42563 0.8516 0.73224 0.0
C345 C 0.42693 0.87487 0.74638 0.0
C346 C 0.41187 0.87276 0.76995 0.0
C347 C 0.41645 0.87738 0.921 0.0
C348 C 0.42686 0.90568 0.91851 0.0
C349 C 0.40309 0.86115 0.89894 0.0
C350 C 0.39954 0.87301 0.87413 0.0
C351 C 0.41107 0.90118 0.87145 0.0
C352 C 0.42455 0.91737 0.89342 0.0
C353 C 0.38167 0.85655 0.85136 0.0
C354 C 0.39585 0.85822 0.82727 0.0
C355 C 0.35016 0.8405 0.85288 0.0
C356 C 0.33331 0.83885 0.87733 0.0
C357 C 0.32955 0.86229 0.88851 0.0
C358 C 0.31391 0.86058 0.91172 0.0
C359 C 0.30167 0.83551 0.92378 0.0
C360 C 0.30495 0.81208 0.9126 0.0
C361 C 0.32063 0.81368 0.88942 0.0
H362 H 0.28957 0.83423 0.94175 0.0
H363 H 0.43728 0.85328 0.71399 0.0
H364 H 0.60219 0.35945 0.76776 0.0
H365 H 0.59665 0.38413 0.72666 0.0
H366 H 0.67433 0.45143 0.75498 0.0
H367 H 0.67953 0.42679 0.79625 0.0
H368 H 0.62756 0.46944 0.73592 0.0
H369 H 0.67983 0.40911 0.70362 0.0
H370 H 0.68864 0.36514 0.69544 0.0
H371 H 0.5996 0.33873 0.6507 0.0
H372 H 0.59005 0.38243 0.65893 0.0
H373 H 0.63971 0.54448 0.616 0.0
H374 H 0.65172 0.51745 0.65341 0.0
H375 H 0.57151 0.45084 0.6284 0.0
H376 H 0.55949 0.47779 0.59088 0.0
H377 H 0.62092 0.43263 0.64527 0.0
H378 H 0.56793 0.4921 0.67892 0.0
H379 H 0.55893 0.53603 0.68693 0.0
H380 H 0.64942 0.56386 0.72921 0.0
H381 H 0.65914 0.52019 0.72113 0.0
C382 C 0.61831 0.37937 0.76504 0.0
C383 C 0.64112 0.39127 0.78534 0.0
C384 C 0.61521 0.3935 0.74147 0.0
C385 C 0.6351 0.41978 0.73746 0.0
C386 C 0.65855 0.4313 0.75747 0.0
C387 C 0.66164 0.41717 0.78103 0.0
C388 C 0.63053 0.4357 0.71308 0.0
C389 C 0.62668 0.4615 0.71612 0.0
C390 C 0.62846 0.42528 0.68707 0.0
C391 C 0.63409 0.39896 0.68212 0.0
C392 C 0.662 0.39385 0.69223 0.0
C393 C 0.66715 0.36898 0.68755 0.0
C394 C 0.64465 0.34913 0.67262 0.0
C395 C 0.61698 0.35411 0.66229 0.0
C396 C 0.6117 0.37894 0.66694 0.0
C397 C 0.62479 0.52398 0.61831 0.0
C398 C 0.59857 0.51337 0.60045 0.0
C399 C 0.63159 0.50855 0.63983 0.0
C400 C 0.6123 0.48211 0.64411 0.0
C401 C 0.58677 0.47113 0.62569 0.0
C402 C 0.5799 0.4866 0.6042 0.0
C403 C 0.6181 0.46633 0.6682 0.0
C404 C 0.62203 0.44058 0.6651 0.0
C405 C 0.62022 0.47675 0.69419 0.0
C406 C 0.6144 0.50298 0.69918 0.0
C407 C 0.58601 0.50766 0.68975 0.0
C408 C 0.58076 0.5325 0.69433 0.0
C409 C 0.60363 0.55275 0.70851 0.0
C410 C 0.63175 0.54817 0.7182 0.0
C411 C 0.63714 0.52337 0.71363 0.0
H412 H 0.59952 0.57197 0.71204 0.0
H413 H 0.64869 0.32989 0.66901 0.0
H414 H 0.96258 0.71625 0.24816 0.0
H415 H 0.97864 0.69167 0.2137 0.0
H416 H 0.95512 0.61939 0.26115 0.0
H417 H 0.93881 0.6442 0.29592 0.0
H418 H 1.00876 0.62294 0.23536 0.0
H419 H 0.90596 0.62943 0.20774 0.0
H420 H 0.86576 0.65287 0.19715 0.0
H421 H 0.92134 0.69921 0.13714 0.0
H422 H 0.9621 0.6763 0.14763 0.0
H423 H 0.013 0.5334 0.13088 0.0
H424 H 0.9984 0.55685 0.16698 0.0
H425 H 1.00348 0.62582 0.11633 0.0
H426 H 0.01664 0.60168 0.07964 0.0
H427 H 0.95915 0.62376 0.14462 0.0
H428 H 0.06248 0.61981 0.17174 0.0
H429 H 0.10465 0.59845 0.18204 0.0
H430 H 0.05151 0.55036 0.24242 0.0
H431 H 1.00883 0.57119 0.23224 0.0
C432 C 0.96143 0.69527 0.25171 0.0
C433 C 0.94987 0.68262 0.27547 0.0
C434 C 0.97034 0.68098 0.23161 0.0
C435 C 0.96789 0.65322 0.23411 0.0
C436 C 0.95743 0.64067 0.25826 0.0
C437 C 0.94826 0.65501 0.27841 0.0
C438 C 0.97536 0.63745 0.21135 0.0
C439 C 0.99749 0.62287 0.21564 0.0
C440 C 0.96172 0.6376 0.18504 0.0
C441 C 0.93721 0.65133 0.17865 0.0
C442 C 0.90972 0.64476 0.19242 0.0
C443 C 0.88682 0.65793 0.18642 0.0
C444 C 0.89103 0.67756 0.16653 0.0
C445 C 0.91813 0.68402 0.15256 0.0
C446 C 0.94113 0.67094 0.15852 0.0
C447 C 0.01098 0.55355 0.12723 0.0
C448 C 0.01629 0.5654 0.10193 0.0
C449 C 1.00286 0.56727 0.14827 0.0
C450 C 1.00045 0.59387 0.14532 0.0
C451 C 1.00515 0.60554 0.11982 0.0
C452 C 0.0128 0.5916 0.09859 0.0
C453 C 0.99279 0.60922 0.16845 0.0
C454 C 0.97054 0.62376 0.16427 0.0
C455 C 1.00669 0.60935 0.19479 0.0
C456 C 0.03234 0.59687 0.20104 0.0
C457 C 0.05971 0.60456 0.1871 0.0
C458 C 0.08371 0.59256 0.19293 0.0
C459 C 0.08072 0.57301 0.21282 0.0
C460 C 0.05377 0.56548 0.22699 0.0
C461 C 0.02968 0.57739 0.22121 0.0
H462 H 0.09932 0.56374 0.2173 0.0
H463 H 0.87327 0.68773 0.16191 0.0
H464 H 0.37633 0.15901 0.20215 0.0
H465 H 0.41665 0.14145 0.18566 0.0
H466 H 0.44636 0.21184 0.13585 0.0
H467 H 0.40528 0.22913 0.15198 0.0
H468 H 0.43762 0.16849 0.10793 0.0
H469 H 0.49494 0.20058 0.18844 0.0
H470 H 0.50495 0.20871 0.23652 0.0
H471 H 0.4851 0.12333 0.25038 0.0
H472 H 0.4745 0.11462 0.20241 0.0
H473 H 0.56619 0.09835 0.09492 0.0
H474 H 0.54797 0.1309 0.11896 0.0
H475 H 0.45199 0.08294 0.10176 0.0
H476 H 0.46977 0.05032 0.07787 0.0
H477 H 0.50748 0.12595 0.16226 0.0
H478 H 0.41348 0.12796 0.0767 0.0
H479 H 0.40671 0.12147 0.02827 0.0
H480 H 0.50674 0.14434 0.02392 0.0
H481 H 0.51417 0.15182 0.07221 0.0
C482 C 0.39177 0.17087 0.18796 0.0
C483 C 0.38766 0.19525 0.17807 0.0
C484 C 0.41498 0.16096 0.17871 0.0
C485 C 0.43475 0.17544 0.15968 0.0
C486 C 0.43141 0.20036 0.15055 0.0
C487 C 0.40806 0.21022 0.15974 0.0
C488 C 0.45642 0.16303 0.14743 0.0
C489 C 0.4532 0.15954 0.11983 0.0
C490 C 0.47738 0.15188 0.16284 0.0
C491 C 0.48378 0.15694 0.19178 0.0
C492 C 0.49249 0.18351 0.20174 0.0
C493 C 0.49831 0.18823 0.22899 0.0
C494 C 0.49563 0.16655 0.2465 0.0
C495 C 0.48718 0.14011 0.23679 0.0
C496 C 0.48132 0.13527 0.20956 0.0
C497 C 0.54122 0.09451 0.09659 0.0
C498 C 0.51938 0.07186 0.08429 0.0
C499 C 0.53092 0.11309 0.1104 0.0
C500 C 0.4987 0.10939 0.11178 0.0
C501 C 0.47697 0.08618 0.10063 0.0
C502 C 0.4872 0.06755 0.08704 0.0
C503 C 0.48721 0.13044 0.12321 0.0
C504 C 0.49238 0.13549 0.15049 0.0
C505 C 0.46861 0.14358 0.10746 0.0
C506 C 0.46436 0.14026 0.07818 0.0
C507 C 0.43405 0.1319 0.0654 0.0
C508 C 0.4301 0.12805 0.03796 0.0
C509 C 0.45629 0.1325 0.02305 0.0
C510 C 0.48649 0.14097 0.03551 0.0
C511 C 0.49058 0.14502 0.06292 0.0
H512 H 0.45318 0.12938 1.00183 0.0
H513 H 0.50014 0.17025 0.26759 0.0
H514 H 0.14739 0.79311 0.68223 0.0
H515 H 0.11691 0.82473 0.67093 0.0
H516 H 0.20217 0.89123 0.67528 0.0
H517 H 0.23275 0.85985 0.68623 0.0
H518 H 0.15647 0.90287 0.70081 0.0
H519 H 0.16638 0.86652 0.61563 0.0
H520 H 0.16084 0.83069 0.58261 0.0
H521 H 0.06111 0.80427 0.58931 0.0
H522 H 0.06612 0.83978 0.6226 0.0
H523 H 0.11983 1.0073 0.62523 0.0
H524 H 0.13949 0.97205 0.64621 0.0
H525 H 0.04704 0.91514 0.63569 0.0
H526 H 0.02723 0.95025 0.6143 0.0
H527 H 0.09002 0.89535 0.61678 0.0
H528 H 0.07964 0.93612 0.69767 0.0
H529 H 0.0855 0.97321 0.72926 0.0
H530 H 0.18587 0.99196 0.73052 0.0
H531 H 0.18064 0.95522 0.69863 0.0
C532 C 0.15966 0.81444 0.68054 0.0
C533 C 0.19251 0.82395 0.68519 0.0
C534 C 0.1422 0.83248 0.67417 0.0
C535 C 0.15729 0.86032 0.67219 0.0
C536 C 0.19002 0.86985 0.67688 0.0
C537 C 0.20746 0.85187 0.68321 0.0
C538 C 0.1392 0.8797 0.66512 0.0
C539 C 0.14208 0.90136 0.68236 0.0
C540 C 0.11965 0.87721 0.64147 0.0
C541 C 0.11668 0.85557 0.62183 0.0
C542 C 0.14331 0.85289 0.61026 0.0
C543 C 0.14025 0.83269 0.59145 0.0
C544 C 0.11065 0.81516 0.58393 0.0
C545 C 0.08404 0.81779 0.59522 0.0
C546 C 0.08697 0.83796 0.61405 0.0
C547 C 0.10348 0.98745 0.62785 0.0
C548 C 0.07196 0.98158 0.61797 0.0
C549 C 0.11475 0.96731 0.63996 0.0
C550 C 0.09471 0.94096 0.64261 0.0
C551 C 0.06291 0.93534 0.63385 0.0
C552 C 0.05159 0.9555 0.62175 0.0
C553 C 0.10772 0.91888 0.65224 0.0
C554 C 0.10394 0.89669 0.63547 0.0
C555 C 0.12644 0.92091 0.67632 0.0
C556 C 0.12973 0.943 0.6956 0.0
C557 C 0.10297 0.94827 0.70452 0.0
C558 C 0.10618 0.96922 0.72252 0.0
C559 C 0.13604 0.98496 0.73186 0.0
C560 C 0.16275 0.97975 0.72326 0.0
C561 C 0.15968 0.95884 0.70525 0.0
H562 H 0.13847 1.00117 0.74579 0.0
H563 H 0.10832 0.79958 0.56932 0.0
H564 H 0.72772 0.41159 0.89065 0.0
H565 H 0.77454 0.43791 0.91705 0.0
H566 H 0.81541 0.37221 0.9124 0.0
H567 H 0.76809 0.34555 0.88714 0.0
H568 H 0.82613 0.38899 0.95906 0.0
H569 H 0.8395 0.43482 0.87588 0.0
H570 H 0.82504 0.45889 0.83669 0.0
H571 H 0.81633 0.52208 0.88663 0.0
H572 H 0.83034 0.49819 0.92615 0.0
H573 H 0.98632 0.50076 0.97827 0.0
H574 H 0.93862 0.4795 0.95047 0.0
H575 H 0.88708 0.45683 0.02036 0.0
H576 H 0.93505 0.47747 0.04828 0.0
H577 H 0.8827 0.48471 0.94038 0.0
H578 H 0.83373 0.39586 1.01209 0.0
H579 H 0.8535 0.36963 0.04687 0.0
H580 H 0.94217 0.3886 1.01187 0.0
H581 H 0.92281 0.41464 0.97674 0.0
C582 C 0.74687 0.40293 0.89512 0.0
C583 C 0.74426 0.37652 0.88685 0.0
C584 C 0.77372 0.41802 0.91014 0.0
C585 C 0.79892 0.4073 0.91663 0.0
C586 C 0.79641 0.38103 0.90791 0.0
C587 C 0.76936 0.36579 0.89337 0.0
C588 C 0.82747 0.42289 0.93315 0.0
C589 C 0.83837 0.40993 0.95488 0.0
C590 C 0.84408 0.45015 0.9277 0.0
C591 C 0.83565 0.46457 0.90399 0.0
C592 C 0.83427 0.45374 0.87851 0.0
C593 C 0.82619 0.46737 0.85624 0.0
C594 C 0.81968 0.49196 0.85918 0.0
C595 C 0.82132 0.50301 0.88439 0.0
C596 C 0.82936 0.48944 0.90673 0.0
C597 C 0.96473 0.49152 0.98771 0.0
C598 C 0.96449 0.49056 1.01549 0.0
C599 C 0.93742 0.47938 0.97177 0.0
C600 C 0.90923 0.46608 0.98323 0.0
C601 C 0.90862 0.46642 1.01098 0.0
C602 C 0.93601 0.47835 0.02695 0.0
C603 C 0.88104 0.45079 0.96624 0.0
C604 C 0.87025 0.4638 0.94452 0.0
C605 C 0.86517 0.42326 0.97107 0.0
C606 C 0.87691 0.40744 0.99199 0.0
C607 C 0.85741 0.39436 1.0118 0.0
C608 C 0.86855 0.37954 0.03157 0.0
C609 C 0.89911 0.37754 0.03164 0.0
C610 C 0.91856 0.39026 1.01187 0.0
C611 C 0.90752 0.40508 0.99204 0.0
H612 H 0.90769 0.36608 0.04697 0.0
H613 H 0.81344 0.50248 0.84191 0.0
H614 H 0.8717 0.64612 0.38439 0.0
H615 H 0.82569 0.62023 0.40741 0.0
H616 H 0.79522 0.69172 0.4115 0.0
H617 H 0.84055 0.71743 0.38836 0.0
H618 H 0.79232 0.66795 0.45862 0.0
H619 H 0.75784 0.63738 0.36906 0.0
H620 H 0.76156 0.61669 0.32642 0.0
H621 H 0.76308 0.5429 0.36627 0.0
H622 H 0.75978 0.56329 0.40921 0.0
H623 H 0.63979 0.61522 0.50236 0.0
H624 H 0.68516 0.63595 0.47708 0.0
H625 H 0.70271 0.55865 0.47112 0.0
H626 H 0.65627 0.53752 0.49563 0.0
H627 H 0.71432 0.58311 0.42626 0.0
H628 H 0.74798 0.61203 0.51527 0.0
H629 H 0.74546 0.63191 0.55862 0.0
H630 H 0.74778 0.70769 0.52117 0.0
H631 H 0.7499 0.68815 0.47753 0.0
C632 C 0.85496 0.65626 0.38978 0.0
C633 C 0.86036 0.68412 0.38461 0.0
C634 C 0.82856 0.64138 0.40308 0.0
C635 C 0.80667 0.65387 0.41144 0.0
C636 C 0.81167 0.68146 0.40566 0.0
C637 C 0.83786 0.69625 0.39238 0.0
C638 C 0.77915 0.63882 0.42694 0.0
C639 C 0.77511 0.64956 0.45131 0.0
C640 C 0.75699 0.61423 0.41816 0.0
C641 C 0.75892 0.60197 0.39237 0.0
C642 C 0.75923 0.61682 0.36875 0.0
C643 C 0.76121 0.60513 0.34453 0.0
C644 C 0.76265 0.57853 0.34364 0.0
C645 C 0.76202 0.56353 0.36699 0.0
C646 C 0.76008 0.57513 0.39127 0.0
C647 C 0.65334 0.60253 0.4959 0.0
C648 C 0.64432 0.5746 0.50153 0.0
C649 C 0.67957 0.61453 0.4814 0.0
C650 C 0.69829 0.59921 0.4725 0.0
C651 C 0.68906 0.57118 0.47774 0.0
C652 C 0.66244 0.55905 0.49196 0.0
C653 C 0.72722 0.61249 0.45779 0.0
C654 C 0.73157 0.60143 0.43364 0.0
C655 C 0.74995 0.63669 0.46689 0.0
C656 C 0.74884 0.64855 0.49311 0.0
C657 C 0.74776 0.63288 0.51626 0.0
C658 C 0.74642 0.6441 0.54089 0.0
C659 C 0.74639 0.67102 0.54264 0.0
C660 C 0.74778 0.68682 0.51978 0.0
C661 C 0.74908 0.6757 0.49509 0.0
H662 H 0.74535 0.67967 0.56172 0.0
H663 H 0.76417 0.56951 0.32487 0.0
H664 H 0.34047 0.30866 0.17473 0.0
H665 H 0.31268 0.33466 0.14653 0.0
H666 H 0.22408 0.28369 0.17112 0.0
H667 H 0.25152 0.25741 0.19878 0.0
H668 H 0.22194 0.29332 0.11786 0.0
H669 H 0.25732 0.34455 0.19921 0.0
H670 H 0.29706 0.3689 0.23351 0.0
H671 H 0.34443 0.42388 0.17475 0.0
H672 H 0.30516 0.39959 0.14004 0.0
H673 H 0.11311 0.36846 0.10564 0.0
H674 H 0.14884 0.34158 0.11716 0.0
H675 H 0.22564 0.40485 0.08789 0.0
H676 H 0.18987 0.43192 0.07624 0.0
H677 H 0.24004 0.39069 0.13669 0.0
H678 H 0.19879 0.34347 0.05639 0.0
H679 H 0.1581 0.31933 0.02272 0.0
H680 H 0.12111 0.25696 0.07902 0.0
H681 H 0.1613 0.28092 0.11318 0.0
C682 C 0.31507 0.30295 0.17395 0.0
C683 C 0.29817 0.28124 0.18918 0.0
C684 C 0.29926 0.31783 0.15793 0.0
C685 C 0.26635 0.31115 0.15689 0.0
C686 C 0.24947 0.28915 0.17164 0.0
C687 C 0.26521 0.27437 0.18768 0.0
C688 C 0.24924 0.32754 0.14128 0.0
C689 C 0.22578 0.3146 0.12196 0.0
C690 C 0.25498 0.35546 0.14615 0.0
C691 C 0.27856 0.37005 0.167 0.0
C692 C 0.27637 0.36168 0.19358 0.0
C693 C 0.29877 0.3755 0.21309 0.0
C694 C 0.32332 0.39787 0.2063 0.0
C695 C 0.32545 0.40651 0.17998 0.0
C696 C 0.30313 0.39273 0.16038 0.0
C697 C 0.13741 0.37634 0.10095 0.0
C698 C 0.1487 0.40234 0.09012 0.0
C699 C 0.15784 0.36095 0.10756 0.0
C700 C 0.18989 0.37115 0.10324 0.0
C701 C 0.201 0.39663 0.09141 0.0
C702 C 0.18057 0.41207 0.08484 0.0
C703 C 0.2121 0.35635 0.11361 0.0
C704 C 0.23656 0.36957 0.13204 0.0
C705 C 0.2072 0.32868 0.10792 0.0
C706 C 0.18299 0.31411 0.08741 0.0
C707 C 0.18185 0.32471 0.06167 0.0
C708 C 0.15889 0.31104 0.04247 0.0
C709 C 0.13701 0.28665 0.04874 0.0
C710 C 0.13808 0.27586 0.0742 0.0
C711 C 0.16098 0.28946 0.09348 0.0
H712 H 0.11925 0.27609 0.03385 0.0
H713 H 0.34063 0.40855 0.22144 0.0
H714 H 0.70132 0.27841 0.88364 0.0
H715 H 0.6786 0.23462 0.90456 0.0
H716 H 0.58785 0.24874 0.89911 0.0
H717 H 0.61058 0.29277 0.87802 0.0
H718 H 0.60413 0.23073 0.94963 0.0
H719 H 0.60088 0.20389 0.85883 0.0
H720 H 0.62288 0.20163 0.81594 0.0
H721 H 0.68858 0.16377 0.85346 0.0
H722 H 0.66726 0.16615 0.89667 0.0
H723 H 0.51534 0.09949 0.98715 0.0
H724 H 0.53687 0.14226 0.96433 0.0
H725 H 0.62378 0.12291 0.95803 0.0
H726 H 0.60175 0.07945 0.98022 0.0
H727 H 0.60954 0.14394 0.91334 0.0
H728 H 0.61524 0.17046 1.00347 0.0
H729 H 0.59631 0.17344 0.04754 0.0
H730 H 0.53015 0.21268 1.01347 0.0
H731 H 0.54833 0.20954 0.96908 0.0
C732 C 0.67646 0.27215 0.88674 0.0
C733 C 0.65778 0.28916 0.87913 0.0
C734 C 0.66346 0.24702 0.89864 0.0
C735 C 0.63144 0.23822 0.90344 0.0
C736 C 0.61261 0.25502 0.89566 0.0
C737 C 0.62556 0.2801 0.8834 0.0
C738 C 0.61798 0.21178 0.91707 0.0
C739 C 0.60484 0.21169 0.94148 0.0
C740 C 0.61988 0.18697 0.90701 0.0
C741 C 0.63266 0.18543 0.88103 0.0
C742 C 0.62019 0.19528 0.85798 0.0
C743 C 0.6325 0.19394 0.8336 0.0
C744 C 0.65716 0.18263 0.83199 0.0
C745 C 0.66951 0.17256 0.85475 0.0
C746 C 0.6573 0.17388 0.87918 0.0
C747 C 0.53907 0.10431 0.98091 0.0
C748 C 0.55687 0.08606 0.98559 0.0
C749 C 0.55148 0.12895 0.96798 0.0
C750 C 0.58225 0.13626 0.95968 0.0
C751 C 0.60004 0.11793 0.96422 0.0
C752 C 0.5875 0.09311 0.97704 0.0
C753 C 0.59552 0.16276 0.94596 0.0
C754 C 0.60872 0.16291 0.92154 0.0
C755 C 0.59409 0.1877 0.95623 0.0
C756 C 0.58301 0.18959 0.98289 0.0
C757 C 0.5965 0.17955 1.00533 0.0
C758 C 0.58594 0.18131 0.03037 0.0
C759 C 0.5621 0.19331 0.0333 0.0
C760 C 0.54868 0.20347 1.01117 0.0
C761 C 0.5591 0.20171 0.98606 0.0
H762 H 0.554 0.19471 0.05271 0.0
H763 H 0.66666 0.1816 0.81309 0.0
H764 H 0.90083 0.78065 0.38595 0.0
H765 H 0.92039 0.82255 0.41122 0.0
H766 H 0.01429 0.81543 0.41306 0.0
H767 H 0.99441 0.77261 0.38812 0.0
H768 H 1.00456 0.83065 0.46093 0.0
H769 H 0.98804 0.86444 0.37387 0.0
H770 H 0.95828 0.8679 0.33163 0.0
H771 H 0.88969 0.89085 0.37347 0.0
H772 H 0.91883 0.88719 0.416 0.0
H773 H 0.07857 0.96114 0.51525 0.0
H774 H 0.06044 0.92126 0.48701 0.0
H775 H 0.96745 0.93083 0.47992 0.0
H776 H 0.98625 0.97203 0.50745 0.0
H777 H 0.97695 0.91419 0.43458 0.0
H778 H 0.99241 0.88022 0.52153 0.0
H779 H 0.02204 0.87765 0.56408 0.0
H780 H 0.09127 0.85445 0.52336 0.0
H781 H 0.06234 0.85735 0.48049 0.0
C782 C 0.92576 0.78793 0.39149 0.0
C783 C 0.94585 0.77276 0.38475 0.0
C784 C 0.93707 0.81229 0.40596 0.0
C785 C 0.96913 0.8229 0.41423 0.0
C786 C 0.98947 0.80809 0.40714 0.0
C787 C 0.97809 0.78359 0.39251 0.0
C788 C 0.98088 0.84882 0.43072 0.0
C789 C 0.99886 0.84898 0.45483 0.0
C790 C 0.97296 0.87296 0.42369 0.0
C791 C 0.95549 0.87531 0.39814 0.0
C792 C 0.9665 0.87005 0.37408 0.0
C793 C 0.94976 0.87208 0.35008 0.0
C794 C 0.92207 0.87953 0.34987 0.0
C795 C 0.91112 0.88505 0.37366 0.0
C796 C 0.92776 0.88303 0.39772 0.0
C797 C 0.05418 0.95491 0.50774 0.0
C798 C 0.03397 0.97007 0.51398 0.0
C799 C 0.04364 0.93166 0.4916 0.0
C800 C 0.01209 0.92194 0.4815 0.0
C801 C 0.99185 0.93734 0.48735 0.0
C802 C 1.0026 0.96102 0.50327 0.0
C803 C 1.00066 0.89607 0.46484 0.0
C804 C 0.98268 0.89588 0.44071 0.0
C805 C 1.0084 0.87184 0.47196 0.0
C806 C 0.02535 0.86927 0.49776 0.0
C807 C 0.01402 0.87468 0.52163 0.0
C808 C 0.03069 0.87318 0.5458 0.0
C809 C 0.05858 0.86601 0.5464 0.0
C810 C 0.0697 0.86008 0.52284 0.0
C811 C 0.05317 0.86163 0.4986 0.0
H812 H 0.07158 0.8651 0.56509 0.0
H813 H 0.90914 0.88108 0.33127 0.0
H814 H 0.2885 0.76151 0.66105 0.0
H815 H 0.33247 0.74227 0.65958 0.0
H816 H 0.26798 0.66621 0.63267 0.0
H817 H 0.22395 0.68522 0.63499 0.0
H818 H 0.31295 0.65762 0.6664 0.0
H819 H 0.30906 0.71242 0.58882 0.0
H820 H 0.30819 0.75407 0.56452 0.0
H821 H 0.39781 0.79621 0.6027 0.0
H822 H 0.39902 0.75487 0.62749 0.0
H823 H 0.41742 0.60229 0.60336 0.0
H824 H 0.37528 0.62 0.61541 0.0
H825 H 0.44332 0.69588 0.63788 0.0
H826 H 0.48528 0.67904 0.62392 0.0
H827 H 0.39756 0.70512 0.60899 0.0
H828 H 0.40284 0.64783 0.68412 0.0
H829 H 0.40334 0.60503 0.7063 0.0
H830 H 0.31083 0.56636 0.67137 0.0
H831 H 0.30995 0.60882 0.64863 0.0
C832 C 0.28381 0.7406 0.65515 0.0
C833 C 0.25305 0.72492 0.64774 0.0
C834 C 0.30886 0.72966 0.6542 0.0
C835 C 0.30357 0.70294 0.64551 0.0
C836 C 0.27263 0.68688 0.63932 0.0
C837 C 0.24755 0.69777 0.6405 0.0
C838 C 0.33032 0.69221 0.64139 0.0
C839 C 0.33138 0.66788 0.65373 0.0
C840 C 0.35461 0.70581 0.62517 0.0
C841 C 0.35397 0.73065 0.61021 0.0
C842 C 0.32847 0.73063 0.59217 0.0
C843 C 0.32793 0.75416 0.57829 0.0
C844 C 0.35289 0.77779 0.58212 0.0
C845 C 0.37848 0.77791 0.59979 0.0
C846 C 0.37911 0.75443 0.61374 0.0
C847 C 0.42342 0.62279 0.61071 0.0
C848 C 0.4548 0.63923 0.61246 0.0
C849 C 0.39932 0.63276 0.61803 0.0
C850 C 0.40611 0.65918 0.62793 0.0
C851 C 0.43748 0.67539 0.63038 0.0
C852 C 0.46154 0.66559 0.62265 0.0
C853 C 0.38044 0.67053 0.63411 0.0
C854 C 0.37944 0.69496 0.62199 0.0
C855 C 0.3562 0.65691 0.65042 0.0
C856 C 0.35642 0.63149 0.66453 0.0
C857 C 0.38266 0.63017 0.68106 0.0
C858 C 0.38301 0.60596 0.69374 0.0
C859 C 0.35715 0.58298 0.69022 0.0
C860 C 0.33083 0.58419 0.6741 0.0
C861 C 0.33039 0.60832 0.66132 0.0
H862 H 0.35751 0.56424 0.69998 0.0
H863 H 0.35243 0.79599 0.57135 0.0
H864 H 0.79265 0.80134 0.83808 0.0
H865 H 0.82526 0.81817 0.80101 0.0
H866 H 0.74366 0.82432 0.75314 0.0
H867 H 0.71079 0.80697 0.78997 0.0
H868 H 0.78433 0.80665 0.72428 0.0
H869 H 0.7885 0.87822 0.78533 0.0
H870 H 0.79727 0.90004 0.82922 0.0
H871 H 0.89319 0.89853 0.83422 0.0
H872 H 0.88482 0.87629 0.7905 0.0
H873 H 0.84589 0.9102 0.63269 0.0
H874 H 0.81832 0.88067 0.66691 0.0
H875 H 0.90684 0.88523 0.70981 0.0
H876 H 0.93459 0.91573 0.67607 0.0
H877 H 0.86631 0.8941 0.74181 0.0
H878 H 0.863 0.82686 0.67746 0.0
H879 H 0.85325 0.80574 0.63322 0.0
H880 H 0.7553 0.79972 0.63369 0.0
H881 H 0.76452 0.82116 0.67779 0.0
C882 C 0.78152 0.80561 0.81944 0.0
C883 C 0.74921 0.80305 0.81697 0.0
C884 C 0.80022 0.8154 0.79836 0.0
C885 C 0.78692 0.82283 0.77449 0.0
C886 C 0.75438 0.81877 0.77143 0.0
C887 C 0.73569 0.80906 0.79252 0.0
C888 C 0.80713 0.83697 0.75354 0.0
C889 C 0.80218 0.82582 0.72801 0.0
C890 C 0.83079 0.86173 0.75863 0.0
C891 C 0.83593 0.8753 0.7848 0.0
C892 C 0.81139 0.88234 0.79589 0.0
C893 C 0.8163 0.89481 0.82072 0.0
C894 C 0.84575 0.9006 0.83454 0.0
C895 C 0.87038 0.89399 0.82351 0.0
C896 C 0.86557 0.88145 0.79871 0.0
C897 C 0.85953 0.90493 0.6494 0.0
C898 C 0.89244 0.91545 0.65173 0.0
C899 C 0.84374 0.88776 0.6688 0.0
C900 C 0.86053 0.88047 0.69079 0.0
C901 C 0.89343 0.89049 0.69293 0.0
C902 C 0.90927 0.90775 0.67354 0.0
C903 C 0.8435 0.86389 0.71234 0.0
C904 C 0.8489 0.87468 0.73805 0.0
C905 C 0.8202 0.83888 0.70734 0.0
C906 C 0.81451 0.82579 0.68087 0.0
C907 C 0.83942 0.8212 0.66806 0.0
C908 C 0.83398 0.80914 0.64301 0.0
C909 C 0.80369 0.80144 0.63063 0.0
C910 C 0.77875 0.80571 0.6433 0.0
C911 C 0.78406 0.81778 0.66834 0.0
H912 H 0.79953 0.79211 0.61124 0.0
H913 H 0.84951 0.91026 0.85375 0.0
H914 H 0.83831 0.28542 0.30449 0.0
H915 H 0.80334 0.26701 0.26527 0.0
H916 H 0.77818 0.18804 0.30163 0.0
H917 H 0.81305 0.2062 0.34048 0.0
H918 H 0.79764 0.18634 0.25323 0.0
H919 H 0.72658 0.22581 0.29389 0.0
H920 H 0.71085 0.26307 0.31276 0.0
H921 H 0.7242 0.30588 0.23892 0.0
H922 H 0.74044 0.26902 0.21971 0.0
H923 H 0.67686 0.10709 0.17076 0.0
H924 H 0.70322 0.13428 0.20922 0.0
H925 H 0.7229 0.20628 0.16098 0.0
H926 H 0.69605 0.17904 0.12231 0.0
H927 H 0.70853 0.21563 0.21218 0.0
H928 H 0.77807 0.17619 0.17116 0.0
H929 H 0.79402 0.13925 0.15187 0.0
H930 H 0.78487 0.09738 0.22635 0.0
H931 H 0.76837 0.13388 0.24598 0.0
C932 C 0.82487 0.26425 0.30418 0.0
C933 C 0.82867 0.24712 0.32527 0.0
C934 C 0.80491 0.25377 0.28184 0.0
C935 C 0.78826 0.22612 0.28052 0.0
C936 C 0.79101 0.20937 0.30214 0.0
C937 C 0.81098 0.21974 0.32428 0.0
C938 C 0.76989 0.21386 0.25599 0.0
C939 C 0.77794 0.19259 0.24447 0.0
C940 C 0.74498 0.22271 0.24396 0.0
C941 C 0.73507 0.24479 0.25546 0.0
C942 C 0.72642 0.24327 0.28174 0.0
C943 C 0.71736 0.2643 0.29249 0.0
C944 C 0.71662 0.28687 0.27708 0.0
C945 C 0.72484 0.28841 0.25085 0.0
C946 C 0.73395 0.26745 0.24002 0.0
C947 C 0.68654 0.12875 0.16841 0.0
C948 C 0.6849 0.14093 0.14352 0.0
C949 C 0.70149 0.14426 0.19038 0.0
C950 C 0.71551 0.1722 0.1878 0.0
C951 C 0.7123 0.18473 0.16333 0.0
C952 C 0.69703 0.16918 0.1413 0.0
C953 C 0.73572 0.18759 0.21014 0.0
C954 C 0.72829 0.20952 0.221 0.0
C955 C 0.76141 0.1795 0.22162 0.0
C956 C 0.77175 0.15768 0.20998 0.0
C957 C 0.77927 0.15902 0.18338 0.0
C958 C 0.78842 0.13817 0.17239 0.0
C959 C 0.7904 0.11596 0.18786 0.0
C960 C 0.78331 0.11459 0.21438 0.0
C961 C 0.77408 0.13536 0.22546 0.0
H962 H 0.79749 0.09983 0.17931 0.0
H963 H 0.70961 0.30313 0.28543 0.0
H964 H 0.43042 0.63331 0.27919 0.0
H965 H 0.43942 0.61257 0.32189 0.0
H966 H 0.51117 0.68588 0.34578 0.0
H967 H 0.50248 0.70642 0.3028 0.0
H968 H 0.53203 0.6439 0.35755 0.0
H969 H 0.43765 0.66576 0.37263 0.0
H970 H 0.38301 0.66667 0.36309 0.0
H971 H 0.35091 0.57989 0.36575 0.0
H972 H 0.40543 0.57845 0.37496 0.0
H973 H 0.55364 0.59827 0.4891 0.0
H974 H 0.54074 0.62463 0.45149 0.0
H975 H 0.46611 0.55486 0.42351 0.0
H976 H 0.47815 0.52885 0.46163 0.0
H977 H 0.44725 0.59759 0.41524 0.0
H978 H 0.54187 0.57572 0.39767 0.0
H979 H 0.59632 0.57469 0.40835 0.0
H980 H 0.62788 0.6615 0.41065 0.0
H981 H 0.57352 0.66303 0.40034 0.0
C982 C 0.44785 0.64508 0.2937 0.0
C983 C 0.46588 0.67143 0.28755 0.0
C984 C 0.45297 0.63324 0.31819 0.0
C985 C 0.47597 0.64759 0.33736 0.0
C986 C 0.4934 0.67424 0.33145 0.0
C987 C 0.4883 0.68606 0.30692 0.0
C988 C 0.48258 0.63449 0.36305 0.0
C989 C 0.5135 0.63417 0.37033 0.0
C990 C 0.4585 0.6212 0.3797 0.0
C991 C 0.42567 0.622 0.37426 0.0
C992 C 0.41897 0.64687 0.37099 0.0
C993 C 0.38801 0.64748 0.36568 0.0
C994 C 0.36351 0.62335 0.36375 0.0
C995 C 0.36992 0.59856 0.36722 0.0
C996 C 0.40084 0.59784 0.37251 0.0
C997 C 0.5342 0.58867 0.47513 0.0
C998 C 0.51701 0.56139 0.47836 0.0
C999 C 0.52699 0.60371 0.45343 0.0
C1000 C 0.50282 0.5917 0.43411 0.0
C1001 C 0.48494 0.56472 0.43791 0.0
C1002 C 0.49191 0.54979 0.45975 0.0
C1003 C 0.49661 0.6068 0.4096 0.0
C1004 C 0.46578 0.60745 0.40251 0.0
C1005 C 0.52077 0.62035 0.39309 0.0
C1006 C 0.55359 0.61948 0.39847 0.0
C1007 C 0.56041 0.59458 0.40054 0.0
C1008 C 0.59125 0.59391 0.40654 0.0
C1009 C 0.61553 0.61801 0.41026 0.0
C1010 C 0.60904 0.64284 0.40781 0.0
C1011 C 0.57823 0.64363 0.40186 0.0
H1012 H 0.63938 0.61744 0.415 0.0
H1013 H 0.33956 0.62387 0.35963 0.0
H1014 H 0.14469 0.41219 0.77697 0.0
H1015 H 0.13039 0.43346 0.81469 0.0
H1016 H 0.12164 0.36076 0.86042 0.0
H1017 H 0.13544 0.33902 0.82211 0.0
H1018 H 0.0786 0.3812 0.87503 0.0
H1019 H 0.18815 0.42216 0.86779 0.0
H1020 H 0.23633 0.44551 0.8459 0.0
H1021 H 0.20119 0.51348 0.82915 0.0
H1022 H 0.15258 0.49037 0.85063 0.0
H1023 H 0.08136 0.45061 0.99871 0.0
H1024 H 0.09422 0.42582 0.96234 0.0
H1025 H 0.09523 0.49252 0.90969 0.0
H1026 H 0.08228 0.51726 0.94585 0.0
H1027 H 0.14347 0.47388 0.90036 0.0
H1028 H 0.03329 0.43158 0.90814 0.0
H1029 H 0.98637 0.40793 0.93151 0.0
H1030 H 0.02475 0.34198 0.94929 0.0
H1031 H 0.07214 0.36543 0.92635 0.0
C1032 C 0.13984 0.40053 0.795 0.0
C1033 C 0.14184 0.37371 0.79612 0.0
C1034 C 0.1317 0.41295 0.81691 0.0
C1035 C 0.12564 0.3994 0.84134 0.0
C1036 C 0.12635 0.37218 0.84225 0.0
C1037 C 0.13423 0.35958 0.82009 0.0
C1038 C 0.119 0.41381 0.86556 0.0
C1039 C 0.09322 0.40131 0.88066 0.0
C1040 C 0.13737 0.44039 0.87342 0.0
C1041 C 0.1666 0.45442 0.8606 0.0
C1042 C 0.19061 0.44201 0.85928 0.0
C1043 C 0.218 0.45521 0.84697 0.0
C1044 C 0.22178 0.48093 0.83609 0.0
C1045 C 0.19821 0.49354 0.83756 0.0
C1046 C 0.17074 0.48041 0.84982 0.0
C1047 C 0.0844 0.46015 0.97945 0.0
C1048 C 0.08063 0.48623 0.97564 0.0
C1049 C 0.09162 0.44574 0.95839 0.0
C1050 C 0.09555 0.45683 0.93264 0.0
C1051 C 0.09241 0.48309 0.92902 0.0
C1052 C 0.08488 0.49736 0.94994 0.0
C1053 C 0.10296 0.44141 0.9096 0.0
C1054 C 0.12892 0.45375 0.89474 0.0
C1055 C 0.08495 0.41463 0.90217 0.0
C1056 C 0.0564 0.40039 0.91577 0.0
C1057 C 0.03183 0.41212 0.9172 0.0
C1058 C 1.00513 0.39874 0.93035 0.0
C1059 C 1.00262 0.3735 0.94194 0.0
C1060 C 0.02676 0.36155 0.94034 0.0
C1061 C 0.05353 0.37487 0.92726 0.0
H1062 H 0.98194 0.36317 0.95212 0.0
H1063 H 0.24301 0.49112 0.82656 0.0
H1064 H 0.7142 0.86359 0.86512 0.0
H1065 H 0.68923 0.89574 0.88127 0.0
H1066 H 0.6139 0.82984 0.90856 0.0
H1067 H 0.6385 0.7973 0.89186 0.0
H1068 H 0.59371 0.87322 0.88531 0.0
H1069 H 0.66996 0.85849 0.95158 0.0
H1070 H 0.72217 0.85562 0.9683 0.0
H1071 H 0.76327 0.939 0.94824 0.0
H1072 H 0.71134 0.94224 0.93102 0.0
H1073 H 0.54024 0.94464 0.98093 0.0
H1074 H 0.55826 0.91351 0.95528 0.0
H1075 H 0.6427 0.97724 0.94071 0.0
H1076 H 0.62536 1.0083 0.96751 0.0
H1077 H 0.65736 0.93464 0.95587 0.0
H1078 H 0.58053 0.95034 0.89122 0.0
H1079 H 0.52831 0.95316 0.87443 0.0
H1080 H 0.48792 0.86888 0.89119 0.0
H1081 H 0.53987 0.86559 0.90838 0.0
C1082 C 0.69194 0.85585 0.87397 0.0
C1083 C 0.67832 0.82789 0.87726 0.0
C1084 C 0.67781 0.87428 0.88333 0.0
C1085 C 0.64992 0.86513 0.8963 0.0
C1086 C 0.63546 0.83724 0.8986 0.0
C1087 C 0.64965 0.81874 0.88927 0.0
C1088 C 0.63739 0.88477 0.90924 0.0
C1089 C 0.6074 0.88654 0.9009 0.0
C1090 C 0.65561 0.90237 0.92923 0.0
C1091 C 0.68682 0.90053 0.93977 0.0
C1092 C 0.69018 0.87615 0.95054 0.0
C1093 C 0.71971 0.87446 0.96014 0.0
C1094 C 0.74603 0.89709 0.95927 0.0
C1095 C 0.74286 0.92148 0.94886 0.0
C1096 C 0.71338 0.92326 0.9392 0.0
C1097 C 0.5625 0.95216 0.97202 0.0
C1098 C 0.58148 0.97892 0.97631 0.0
C1099 C 0.57268 0.93434 0.95717 0.0
C1100 C 0.60166 0.94308 0.94572 0.0
C1101 C 0.62024 0.97004 0.94935 0.0
C1102 C 0.61031 0.98778 0.96463 0.0
C1103 C 0.61368 0.9236 0.93175 0.0
C1104 C 0.64362 0.92164 0.94007 0.0
C1105 C 0.59535 0.90592 0.91174 0.0
C1106 C 0.5641 0.90777 0.90123 0.0
C1107 C 0.5605 0.93244 0.89147 0.0
C1108 C 0.53095 0.93411 0.88186 0.0
C1109 C 0.50486 0.91121 0.88174 0.0
C1110 C 0.5082 0.88658 0.89127 0.0
C1111 C 0.5377 0.88479 0.9009 0.0
H1112 H 0.48209 0.91252 0.87412 0.0
H1113 H 0.76888 0.89575 0.96671 0.0
H1114 H 0.87262 0.19462 0.3823 0.0
H1115 H 0.89994 0.16415 0.40279 0.0
H1116 H 0.98189 0.23167 0.42109 0.0
H1117 H 0.95487 0.26253 0.39971 0.0
H1118 H 0.99628 0.18479 0.40415 0.0
H1119 H 0.93548 0.20958 0.46799 0.0
H1120 H 0.88795 0.21674 0.48461 0.0
H1121 H 0.83915 0.13233 0.47408 0.0
H1122 H 0.88627 0.12473 0.45698 0.0
H1123 H 0.05934 0.11192 0.50535 0.0
H1124 H 0.04144 0.14463 0.47789 0.0
H1125 H 0.95063 0.08589 0.46373 0.0
H1126 H 0.96804 0.05342 0.49189 0.0
H1127 H 0.94406 0.13148 0.47938 0.0
H1128 H 1.00535 0.10682 0.41483 0.0
H1129 H 0.05345 0.09997 0.39901 0.0
H1130 H 0.10218 0.18408 0.41175 0.0
H1131 H 0.05446 0.19138 0.42797 0.0
C1132 C 0.89671 0.20304 0.39008 0.0
C1133 C 0.91158 0.23106 0.38932 0.0
C1134 C 0.91221 0.18557 0.40199 0.0
C1135 C 0.94279 0.1957 0.41368 0.0
C1136 C 0.95825 0.2235 0.41218 0.0
C1137 C 0.94271 0.24109 0.40019 0.0
C1138 C 0.95742 0.17727 0.42895 0.0
C1139 C 0.98517 0.17334 0.42083 0.0
C1140 C 0.94265 0.16219 0.4505 0.0
C1141 C 0.91434 0.16664 0.46099 0.0
C1142 C 0.91454 0.19258 0.46903 0.0
C1143 C 0.88768 0.19671 0.47856 0.0
C1144 C 0.86052 0.17501 0.48035 0.0
C1145 C 0.8602 0.14912 0.47266 0.0
C1146 C 0.88698 0.14489 0.46307 0.0
C1147 C 0.03572 0.10582 0.49604 0.0
C1148 C 0.01501 0.08014 0.50092 0.0
C1149 C 0.02555 0.12453 0.48024 0.0
C1150 C 0.99471 0.11771 0.46863 0.0
C1151 C 0.97449 0.09165 0.47257 0.0
C1152 C 0.98449 0.07308 0.48863 0.0
C1153 C 0.98254 0.13824 0.45419 0.0
C1154 C 0.95527 0.14279 0.46267 0.0
C1155 C 0.99787 0.15384 0.43308 0.0
C1156 C 0.02639 0.14959 0.42284 0.0
C1157 C 0.02637 0.12383 0.4144 0.0
C1158 C 0.05356 0.11987 0.40534 0.0
C1159 C 0.08088 0.14156 0.40444 0.0
C1160 C 0.08101 0.16729 0.41249 0.0
C1161 C 0.05388 0.17136 0.42158 0.0
H1162 H 0.10192 0.13845 0.39746 0.0
H1163 H 0.83975 0.17825 0.48774 0.0
H1164 H 0.37924 0.68504 0.14363 0.0
H1165 H 0.33157 0.65796 0.11923 0.0
H1166 H 0.28739 0.63531 0.19261 0.0
H1167 H 0.33522 0.66253 0.21726 0.0
H1168 H 0.27288 0.59245 0.15845 0.0
H1169 H 0.27108 0.6847 0.15429 0.0
H1170 H 0.29231 0.73359 0.14585 0.0
H1171 H 0.29956 0.71752 0.06404 0.0
H1172 H 0.2788 0.66849 0.07209 0.0
H1173 H 0.11508 0.55054 0.09887 0.0
H1174 H 0.16401 0.57118 0.12557 0.0
H1175 H 0.21133 0.59834 0.0543 0.0
H1176 H 0.16241 0.57793 0.02759 0.0
H1177 H 0.22354 0.63868 0.08875 0.0
H1178 H 0.22667 0.54672 0.09272 0.0
H1179 H 0.20646 0.49775 0.10087 0.0
H1180 H 0.19634 0.51303 0.18233 0.0
H1181 H 0.21643 0.5622 0.1746 0.0
C1182 C 0.35939 0.67437 0.15464 0.0
C1183 C 0.361 0.67631 0.18244 0.0
C1184 C 0.33212 0.65881 0.14063 0.0
C1185 C 0.30558 0.64494 0.15399 0.0
C1186 C 0.30748 0.64589 0.18182 0.0
C1187 C 0.33489 0.66143 0.1959 0.0
C1188 C 0.27566 0.63033 0.13876 0.0
C1189 C 0.26185 0.60265 0.14346 0.0
C1190 C 0.26146 0.64341 0.11881 0.0
C1191 C 0.27365 0.67291 0.11385 0.0
C1192 C 0.2774 0.69158 0.13454 0.0
C1193 C 0.28933 0.71932 0.12982 0.0
C1194 C 0.29735 0.72865 0.10444 0.0
C1195 C 0.29337 0.71026 0.0837 0.0
C1196 C 0.2815 0.6825 0.08832 0.0
C1197 C 0.13605 0.56053 0.08889 0.0
C1198 C 0.13487 0.56261 0.06111 0.0
C1199 C 0.16406 0.57232 0.10419 0.0
C1200 C 0.19154 0.58632 0.09201 0.0
C1201 C 0.19051 0.58777 0.06422 0.0
C1202 C 0.16254 0.57599 0.04894 0.0
C1203 C 0.22089 0.60068 0.10815 0.0
C1204 C 0.23453 0.62842 0.10371 0.0
C1205 C 0.23487 0.58763 0.12828 0.0
C1206 C 0.22276 0.55813 0.13302 0.0
C1207 C 0.21991 0.53965 0.11232 0.0
C1208 C 0.20852 0.51185 0.11688 0.0
C1209 C 0.19997 0.50227 0.14209 0.0
C1210 C 0.20292 0.52048 0.16281 0.0
C1211 C 0.21438 0.54832 0.15836 0.0
H1212 H 0.19117 0.48073 0.1456 0.0
H1213 H 0.30658 0.75013 0.10082 0.0
H1214 H 0.25927 0.36872 0.68407 0.0
H1215 H 0.29893 0.39099 0.6532 0.0
H1216 H 0.32175 0.46447 0.69895 0.0
H1217 H 0.28176 0.4423 0.72953 0.0
H1218 H 0.3248 0.4771 0.64789 0.0
H1219 H 0.36706 0.41928 0.7051 0.0
H1220 H 0.36809 0.3763 0.72668 0.0
H1221 H 0.36608 0.34025 0.65066 0.0
H1222 H 0.36463 0.38293 0.62861 0.0
H1223 H 0.47515 0.53993 0.59794 0.0
H1224 H 0.4304 0.52009 0.6244 0.0
H1225 H 0.41361 0.44382 0.58431 0.0
H1226 H 0.45932 0.46329 0.55872 0.0
H1227 H 0.40663 0.43283 0.6324 0.0
H1228 H 0.36536 0.49138 0.57494 0.0
H1229 H 0.36363 0.53433 0.55368 0.0
H1230 H 0.36365 0.56928 0.62987 0.0
H1231 H 0.36569 0.52665 0.65164 0.0
C1232 C 0.27241 0.38975 0.68727 0.0
C1233 C 0.26746 0.40362 0.70942 0.0
C1234 C 0.29536 0.40247 0.66973 0.0
C1235 C 0.31415 0.4294 0.67388 0.0
C1236 C 0.30794 0.4437 0.6952 0.0
C1237 C 0.28497 0.43099 0.71273 0.0
C1238 C 0.34089 0.4423 0.65671 0.0
C1239 C 0.34284 0.4675 0.64472 0.0
C1240 C 0.36443 0.42984 0.652 0.0
C1241 C 0.36541 0.4042 0.66521 0.0
C1242 C 0.36661 0.40212 0.69299 0.0
C1243 C 0.36731 0.37783 0.7053 0.0
C1244 C 0.36706 0.35554 0.69005 0.0
C1245 C 0.36621 0.35752 0.66245 0.0
C1246 C 0.36548 0.38176 0.65003 0.0
C1247 C 0.4618 0.51898 0.59452 0.0
C1248 C 0.47104 0.50332 0.57598 0.0
C1249 C 0.43587 0.5076 0.60967 0.0
C1250 C 0.4178 0.48033 0.60636 0.0
C1251 C 0.42683 0.46483 0.58754 0.0
C1252 C 0.45305 0.47608 0.5727 0.0
C1253 C 0.39049 0.46759 0.62312 0.0
C1254 C 0.38851 0.44243 0.63527 0.0
C1255 C 0.36695 0.48014 0.62793 0.0
C1256 C 0.36595 0.50587 0.61492 0.0
C1257 C 0.36521 0.50829 0.58717 0.0
C1258 C 0.3641 0.53256 0.57503 0.0
C1259 C 0.36348 0.5545 0.59042 0.0
C1260 C 0.36403 0.55224 0.61799 0.0
C1261 C 0.36515 0.52803 0.63023 0.0
H1262 H 0.36259 0.57327 0.58098 0.0
H1263 H 0.36761 0.33675 0.69962 0.0
H1264 H 0.74339 0.70662 0.87138 0.0
H1265 H 0.78277 0.68489 0.88855 0.0
H1266 H 0.7569 0.69145 0.9681 0.0
H1267 H 0.71766 0.71349 0.95087 0.0
H1268 H 0.81929 0.70899 0.96531 0.0
H1269 H 0.73745 0.63006 0.93781 0.0
H1270 H 0.69627 0.60074 0.90757 0.0
H1271 H 0.76519 0.59944 0.85309 0.0
H1272 H 0.80676 0.62909 0.88283 0.0
H1273 H 0.9205 0.6318 1.01637 0.0
H1274 H 0.87394 0.64694 1.00538 0.0
H1275 H 0.88947 0.64609 0.92231 0.0
H1276 H 0.9353 0.63027 0.93305 0.0
H1277 H 0.82864 0.62261 0.93119 0.0
H1278 H 0.9092 0.70508 0.95683 0.0
H1279 H 0.95041 0.73451 0.98701 0.0
H1280 H 0.88336 0.72874 0.04519 0.0
H1281 H 0.84182 0.69898 1.01546 0.0
C1282 C 0.74572 0.70283 0.89245 0.0
C1283 C 0.72708 0.71101 0.90979 0.0
C1284 C 0.76816 0.69047 0.90225 0.0
C1285 C 0.77244 0.68618 0.92958 0.0
C1286 C 0.7538 0.69437 0.94694 0.0
C1287 C 0.73132 0.70674 0.93711 0.0
C1288 C 0.79763 0.67458 0.94001 0.0
C1289 C 0.821 0.68983 0.95825 0.0
C1290 C 0.80014 0.64983 0.93045 0.0
C1291 C 0.7752 0.63199 0.91247 0.0
C1292 C 0.7438 0.62371 0.91928 0.0
C1293 C 0.72039 0.607 0.90225 0.0
C1294 C 0.7281 0.59828 0.8784 0.0
C1295 C 0.75925 0.60622 0.87156 0.0
C1296 C 0.78275 0.62296 0.88852 0.0
C1297 C 0.91389 0.63476 0.99578 0.0
C1298 C 0.93171 0.63003 0.97559 0.0
C1299 C 0.88742 0.64356 0.98954 0.0
C1300 C 0.8784 0.64781 0.96303 0.0
C1301 C 0.89605 0.64296 0.94289 0.0
C1302 C 0.92244 0.63421 0.94909 0.0
C1303 C 0.85054 0.65727 0.95603 0.0
C1304 C 0.82667 0.6416 0.93847 0.0
C1305 C 0.84757 0.68161 0.96622 0.0
C1306 C 0.8725 0.69956 0.98405 0.0
C1307 C 0.90331 0.70991 0.97615 0.0
C1308 C 0.92671 0.72668 0.99315 0.0
C1309 C 0.91953 0.73342 0.01803 0.0
C1310 C 0.8889 0.72346 0.02593 0.0
C1311 C 0.86542 0.70666 1.00901 0.0
H1312 H 0.93768 0.74641 0.03117 0.0
H1313 H 0.70994 0.58533 0.86525 0.0
H1314 H 0.49237 0.76454 0.19238 0.0
H1315 H 0.51419 0.80774 0.16993 0.0
H1316 H 0.42154 0.8179 0.15873 0.0
H1317 H 0.39969 0.77449 0.18045 0.0
H1318 H 0.44818 0.8313 0.11539 0.0
H1319 H 0.48155 0.85523 0.20593 0.0
H1320 H 0.50684 0.85161 0.25024 0.0
H1321 H 0.59562 0.86453 0.21658 0.0
H1322 H 0.57076 0.86787 0.17199 0.0
H1323 H 0.49918 0.97188 0.07924 0.0
H1324 H 0.47729 0.92953 0.10329 0.0
H1325 H 0.56586 0.91188 0.10286 0.0
H1326 H 0.5876 0.95383 0.07852 0.0
H1327 H 0.5412 0.90299 0.1521 0.0
H1328 H 0.50624 0.87989 0.06118 0.0
H1329 H 0.47998 0.88504 0.01766 0.0
H1330 H 0.39248 0.87211 0.05344 0.0
H1331 H 0.41834 0.86739 0.09729 0.0
C1332 C 0.47674 0.77616 0.18541 0.0
C1333 C 0.44427 0.76597 0.18823 0.0
C1334 C 0.48923 0.80096 0.17255 0.0
C1335 C 0.46966 0.81649 0.16268 0.0
C1336 C 0.43728 0.80645 0.16592 0.0
C1337 C 0.42478 0.78157 0.17845 0.0
C1338 C 0.4826 0.84281 0.14847 0.0
C1339 C 0.46825 0.84707 0.12371 0.0
C1340 C 0.50918 0.86348 0.15882 0.0
C1341 C 0.52422 0.86153 0.18559 0.0
C1342 C 0.50642 0.8571 0.20795 0.0
C1343 C 0.52068 0.85513 0.23312 0.0
C1344 C 0.5528 0.85776 0.23622 0.0
C1345 C 0.57073 0.86245 0.21415 0.0
C1346 C 0.55657 0.86441 0.18893 0.0
C1347 C 0.51389 0.95887 0.08412 0.0
C1348 C 0.54506 0.96614 0.07678 0.0
C1349 C 0.50138 0.93467 0.09791 0.0
C1350 C 0.51985 0.91734 0.10483 0.0
C1351 C 0.55111 0.92483 0.09782 0.0
C1352 C 0.56349 0.94882 0.08382 0.0
C1353 C 0.5067 0.89135 0.11924 0.0
C1354 C 0.52106 0.88718 0.14394 0.0
C1355 C 0.47995 0.87091 0.10898 0.0
C1356 C 0.46431 0.87355 0.08258 0.0
C1357 C 0.48146 0.87838 0.05982 0.0
C1358 C 0.46664 0.88119 0.03508 0.0
C1359 C 0.4346 0.87893 0.0328 0.0
C1360 C 0.41731 0.87387 0.05525 0.0
C1361 C 0.43203 0.87112 0.08005 0.0
H1362 H 0.42313 0.88097 1.01363 0.0
H1363 H 0.5638 0.85624 0.25572 0.0
H1364 H 0.09058 0.29354 0.73014 0.0
H1365 H 0.07149 0.2501 0.70644 0.0
H1366 H 0.16665 0.2467 0.70467 0.0
H1367 H 0.18561 0.29001 0.72779 0.0
H1368 H 0.14108 0.23176 0.65907 0.0
H1369 H 0.10702 0.20364 0.74516 0.0
H1370 H 0.08001 0.20386 0.78592 0.0
H1371 H 0.99152 0.18726 0.74034 0.0
H1372 H 0.01808 0.18729 0.69924 0.0
H1373 H 0.10001 0.09227 0.61466 0.0
H1374 H 0.11914 0.13369 0.64189 0.0
H1375 H 0.02731 0.14541 0.63262 0.0
H1376 H 1.00846 0.10467 0.60526 0.0
H1377 H 0.05134 0.15526 0.68412 0.0
H1378 H 0.08702 0.18342 0.59796 0.0
H1379 H 0.11482 0.18126 0.55809 0.0
H1380 H 0.20191 0.19621 0.60552 0.0
H1381 H 0.17451 0.19803 0.64576 0.0
C1382 C 0.10741 0.28331 0.72518 0.0
C1383 C 0.13979 0.2957 0.73109 0.0
C1384 C 0.09644 0.25826 0.71144 0.0
C1385 C 0.1174 0.24442 0.70344 0.0
C1386 C 0.14963 0.25653 0.71008 0.0
C1387 C 0.16053 0.28151 0.72357 0.0
C1388 C 0.10629 0.21797 0.68766 0.0
C1389 C 0.12172 0.215 0.66498 0.0
C1390 C 0.08063 0.19569 0.69448 0.0
C1391 C 0.06459 0.19577 0.7191 0.0
C1392 C 0.08183 0.20026 0.7438 0.0
C1393 C 0.0666 0.2003 0.76697 0.0
C1394 C 0.03408 0.19566 0.76571 0.0
C1395 C 0.01672 0.19091 0.74128 0.0
C1396 C 0.03184 0.19087 0.71804 0.0
C1397 C 0.0839 0.10365 0.61844 0.0
C1398 C 0.05259 0.09486 0.60756 0.0
C1399 C 0.09488 0.12751 0.63404 0.0
C1400 C 0.07483 0.14318 0.63956 0.0
C1401 C 0.04349 0.13404 0.62901 0.0
C1402 C 0.0327 0.11057 0.61315 0.0
C1403 C 0.08624 0.16918 0.6558 0.0
C1404 C 0.0708 0.17206 0.67842 0.0
C1405 C 0.11206 0.19126 0.64909 0.0
C1406 C 0.12866 0.19057 0.62491 0.0
C1407 C 0.11207 0.18605 0.59991 0.0
C1408 C 0.12775 0.18491 0.57724 0.0
C1409 C 0.1601 0.18851 0.57928 0.0
C1410 C 0.17684 0.19337 0.60398 0.0
C1411 C 0.16125 0.19447 0.62673 0.0
H1412 H 0.1722 0.18759 0.5617 0.0
H1413 H 0.02233 0.19569 0.78367 0.0
H1414 H 0.80658 0.30592 0.39129 0.0
H1415 H 0.77032 0.33274 0.39709 0.0
H1416 H 0.83093 0.37487 0.46263 0.0
H1417 H 0.86713 0.34813 0.45682 0.0
H1418 H 0.77019 0.35354 0.47521 0.0
H1419 H 0.82474 0.40731 0.40501 0.0
H1420 H 0.8455 0.41508 0.36078 0.0
H1421 H 0.7521 0.38442 0.32432 0.0
H1422 H 0.73081 0.37613 0.36837 0.0
H1423 H 0.69163 0.44753 0.50226 0.0
H1424 H 0.73195 0.42834 0.48898 0.0
H1425 H 0.67227 0.39181 0.42069 0.0
H1426 H 0.63228 0.41225 0.43305 0.0
H1427 H 0.73215 0.41021 0.40826 0.0
H1428 H 0.67719 0.35497 0.47657 0.0
H1429 H 0.65479 0.34519 0.52006 0.0
H1430 H 0.74685 0.3756 0.55912 0.0
H1431 H 0.76977 0.38592 0.51584 0.0
C1432 C 0.81236 0.3213 0.40655 0.0
C1433 C 0.83954 0.32504 0.42359 0.0
C1434 C 0.79172 0.3366 0.40985 0.0
C1435 C 0.79801 0.35584 0.43025 0.0
C1436 C 0.82567 0.36012 0.44678 0.0
C1437 C 0.84633 0.34492 0.44341 0.0
C1438 C 0.77466 0.36999 0.43577 0.0
C1439 C 0.76226 0.3663 0.46072 0.0
C1440 C 0.76347 0.38577 0.41649 0.0
C1441 C 0.77622 0.39086 0.39 0.0
C1442 C 0.80865 0.40202 0.38757 0.0
C1443 C 0.82051 0.40656 0.36253 0.0
C1444 C 0.80014 0.40018 0.33975 0.0
C1445 C 0.76786 0.38932 0.34198 0.0
C1446 C 0.75588 0.38473 0.36698 0.0
C1447 C 0.68723 0.43594 0.48408 0.0
C1448 C 0.65853 0.43134 0.46881 0.0
C1449 C 0.71023 0.4247 0.47667 0.0
C1450 C 0.70489 0.4082 0.45412 0.0
C1451 C 0.6768 0.40433 0.43827 0.0
C1452 C 0.65383 0.41579 0.44554 0.0
C1453 C 0.72806 0.39407 0.44786 0.0
C1454 C 0.74022 0.39757 0.42278 0.0
C1455 C 0.73883 0.37778 0.46689 0.0
C1456 C 0.72515 0.37146 0.49297 0.0
C1457 C 0.69263 0.35975 0.49444 0.0
C1458 C 0.67985 0.35408 0.51905 0.0
C1459 C 0.69937 0.35983 0.54234 0.0
C1460 C 0.73175 0.37119 0.54106 0.0
C1461 C 0.74465 0.37694 0.5165 0.0
H1462 H 0.68943 0.35543 0.56138 0.0
H1463 H 0.80937 0.40371 0.32039 0.0
loop_
_geom_bond_atom_site_label_1
_geom_bond_atom_site_label_2
_geom_bond_distance
_geom_bond_site_symmetry_2
_ccdc_geom_bond_type
H0 C7 0.929 . S
H1 C10 0.930 . S
H2 C12 0.929 . S
H3 C4 0.969 . S
C4 H3 0.969 . S
C4 O5 1.550 . S
C4 H6 0.973 . S
O5 C4 1.550 . S
O5 C11 1.412 . S
H6 C4 0.973 . S
C7 H0 0.929 . S
C7 C8 1.400 . S
C7 C9 1.364 . S
C8 C7 1.400 . S
C8 C12 1.377 . S
C9 C7 1.364 . S
C9 C10 1.374 . S
C10 H1 0.930 . S
C10 C9 1.374 . S
C10 C11 1.383 . S
C11 O5 1.412 . S
C11 C10 1.383 . S
C11 C12 1.394 . S
C12 H2 0.929 . S
C12 C8 1.377 . S
C12 C11 1.394 . S
H13 C20 0.929 . S
H14 C23 0.930 . S
H15 C25 0.929 . S
H16 C17 0.969 . S
C17 H16 0.969 . S
C17 O18 1.550 . S
C17 H19 0.973 . S
O18 C17 1.550 . S
O18 C24 1.412 . S
H19 C17 0.973 . S
C20 H13 0.929 . S
C20 C21 1.400 . S
C20 C22 1.364 . S
C21 C20 1.400 . S
C21 C25 1.377 . S
C22 C20 1.364 . S
C22 C23 1.374 . S
C23 H14 0.930 . S
C23 C22 1.374 . S
C23 C24 1.383 . S
C24 O18 1.412 . S
C24 C23 1.383 . S
C24 C25 1.394 . S
C25 H15 0.929 . S
C25 C21 1.377 . S
C25 C24 1.394 . S
H26 C33 0.929 . S
H27 C36 0.930 . S
H28 C38 0.929 . S
H29 C30 0.969 . S
C30 H29 0.969 . S
C30 O31 1.550 . S
C30 H32 0.973 . S
O31 C30 1.550 . S
O31 C37 1.412 . S
H32 C30 0.973 . S
C33 H26 0.929 . S
C33 C34 1.400 . S
C33 C35 1.364 . S
C34 C33 1.400 . S
C34 C38 1.377 . S
C35 C33 1.364 . S
C35 C36 1.374 . S
C36 H27 0.930 . S
C36 C35 1.374 . S
C36 C37 1.383 . S
C37 O31 1.412 . S
C37 C36 1.383 . S
C37 C38 1.394 . S
C38 H28 0.929 . S
C38 C34 1.377 . S
C38 C37 1.394 . S
H39 C46 0.929 . S
H40 C49 0.930 . S
H41 C51 0.929 . S
H42 C43 0.969 . S
C43 H42 0.969 . S
C43 O44 1.550 . S
C43 H45 0.973 . S
O44 C43 1.550 . S
O44 C50 1.412 . S
H45 C43 0.973 . S
C46 H39 0.929 . S
C46 C47 1.400 . S
C46 C48 1.364 . S
C47 C46 1.400 . S
C47 C51 1.377 . S
C48 C46 1.364 . S
C48 C49 1.374 . S
C49 H40 0.930 . S
C49 C48 1.374 . S
C49 C50 1.383 . S
C50 O44 1.412 . S
C50 C49 1.383 . S
C50 C51 1.394 . S
C51 H41 0.929 . S
C51 C47 1.377 . S
C51 C50 1.394 . S
H52 C59 0.929 . S
H53 C62 0.930 . S
H54 C64 0.929 . S
H55 C56 0.969 . S
C56 H55 0.969 . S
C56 O57 1.550 . S
C56 H58 0.973 . S
O57 C56 1.550 . S
O57 C63 1.412 . S
H58 C56 0.973 . S
C59 H52 0.929 . S
C59 C60 1.400 . S
C59 C61 1.364 . S
C60 C59 1.400 . S
C60 C64 1.377 . S
C61 C59 1.364 . S
C61 C62 1.374 . S
C62 H53 0.930 . S
C62 C61 1.374 . S
C62 C63 1.383 . S
C63 O57 1.412 . S
C63 C62 1.383 . S
C63 C64 1.394 . S
C64 H54 0.929 . S
C64 C60 1.377 . S
C64 C63 1.394 . S
H65 C72 0.929 . S
H66 C75 0.930 . S
H67 C77 0.929 . S
H68 C69 0.969 . S
C69 H68 0.969 . S
C69 O70 1.550 . S
C69 H71 0.973 . S
O70 C69 1.550 . S
O70 C76 1.412 . S
H71 C69 0.973 . S
C72 H65 0.929 . S
C72 C73 1.400 . S
C72 C74 1.364 . S
C73 C72 1.400 . S
C73 C77 1.377 . S
C74 C72 1.364 . S
C74 C75 1.374 . S
C75 H66 0.930 . S
C75 C74 1.374 . S
C75 C76 1.383 . S
C76 O70 1.412 . S
C76 C75 1.383 . S
C76 C77 1.394 . S
C77 H67 0.929 . S
C77 C73 1.377 . S
C77 C76 1.394 . S
H78 C85 0.929 . S
H79 C88 0.930 . S
H80 C90 0.929 . S
H81 C82 0.969 . S
C82 H81 0.969 . S
C82 O83 1.550 . S
C82 H84 0.973 . S
O83 C82 1.550 . S
O83 C89 1.412 . S
H84 C82 0.973 . S
C85 H78 0.929 . S
C85 C86 1.400 . S
C85 C87 1.364 . S
C86 C85 1.400 . S
C86 C90 1.377 . S
C87 C85 1.364 . S
C87 C88 1.374 . S
C88 H79 0.930 . S
C88 C87 1.374 . S
C88 C89 1.383 . S
C89 O83 1.412 . S
C89 C88 1.383 . S
C89 C90 1.394 . S
C90 H80 0.929 . S
C90 C86 1.377 . S
C90 C89 1.394 . S
H91 C98 0.929 . S
H92 C101 0.930 . S
H93 C103 0.929 . S
H94 C95 0.969 . S
C95 H94 0.969 . S
C95 O96 1.550 . S
C95 H97 0.973 . S
O96 C95 1.550 . S
O96 C102 1.412 . S
H97 C95 0.973 . S
C98 H91 0.929 . S
C98 C99 1.400 . S
C98 C100 1.364 . S
C99 C98 1.400 . S
C99 C103 1.377 . S
C100 C98 1.364 . S
C100 C101 1.374 . S
C101 H92 0.930 . S
C101 C100 1.374 . S
C101 C102 1.383 . S
C102 O96 1.412 . S
C102 C101 1.383 . S
C102 C103 1.394 . S
C103 H93 0.929 . S
C103 C99 1.377 . S
C103 C102 1.394 . S
Tb104 C106 2.809 1_545 S
Tb104 O124 2.484 1_545 S
Tb104 O125 2.440 . S
Tb104 O126 2.658 1_655 S
Tb104 O127 2.409 1_655 S
Tb104 O128 2.378 1_645 S
Tb104 O132 2.325 1_545 S
Tb104 O135 2.341 . S
Tb105 C115 2.809 . S
Tb105 O126 2.325 . S
Tb105 O129 2.341 1_545 S
Tb105 O130 2.484 . S
Tb105 O131 2.440 . S
Tb105 O132 2.658 1_445 S
Tb105 O133 2.409 1_545 S
Tb105 O134 2.378 . S
C106 Tb104 2.809 1_565 S
C106 C107 1.514 . S
C106 O124 1.248 . S
C106 O125 1.266 1_565 S
C107 C106 1.514 . S
C107 C108 1.359 . S
C107 C112 1.348 . S
C108 C107 1.359 . S
C108 C109 1.380 . S
C108 H136 0.929 . S
C109 C108 1.380 . S
C109 C110 1.347 . S
C109 H137 0.931 . S
C110 C109 1.347 . S
C110 C111 1.369 . S
C111 C110 1.369 . S
C111 C112 1.408 . S
C111 H138 0.930 . S
C112 C107 1.348 . S
C112 C111 1.408 . S
C112 H139 0.930 . S
C113 O126 1.281 . S
C113 O127 1.254 . S
C114 O128 1.236 . S
C114 O129 1.266 . S
C115 Tb105 2.809 . S
C115 C116 1.514 . S
C115 O130 1.248 . S
C115 O131 1.266 . S
C116 C115 1.514 . S
C116 C117 1.359 . S
C116 C121 1.348 . S
C117 C116 1.359 . S
C117 C118 1.380 . S
C117 H140 0.929 . S
C118 C117 1.380 . S
C118 C119 1.347 . S
C118 H141 0.931 . S
C119 C118 1.347 . S
C119 C120 1.369 . S
C120 C119 1.369 . S
C120 C121 1.408 . S
C120 H142 0.930 . S
C121 C116 1.348 . S
C121 C120 1.408 . S
C121 H143 0.930 . S
C122 O132 1.281 . S
C122 O133 1.254 1_655 S
C123 O134 1.236 1_655 S
C123 O135 1.266 . S
O124 Tb104 2.484 1_565 S
O124 C106 1.248 . S
O125 Tb104 2.440 . S
O125 C106 1.266 1_545 S
O126 Tb104 2.658 1_455 S
O126 Tb105 2.325 . S
O126 C113 1.281 . S
O127 Tb104 2.409 1_455 S
O127 C113 1.254 . S
O128 Tb104 2.378 1_465 S
O128 C114 1.236 . S
O129 Tb105 2.341 1_565 S
O129 C114 1.266 . S
O130 Tb105 2.484 . S
O130 C115 1.248 . S
O131 Tb105 2.440 . S
O131 C115 1.266 . S
O132 Tb104 2.325 1_565 S
O132 Tb105 2.658 1_665 S
O132 C122 1.281 . S
O133 Tb105 2.409 1_565 S
O133 C122 1.254 1_455 S
O134 Tb105 2.378 . S
O134 C123 1.236 1_455 S
O135 Tb104 2.341 . S
O135 C123 1.266 . S
H136 C108 0.929 . S
H137 C109 0.931 . S
H138 C111 0.930 . S
H139 C112 0.930 . S
H140 C117 0.929 . S
H141 C118 0.931 . S
H142 C120 0.930 . S
H143 C121 0.930 . S
Tb144 C146 2.809 . S
Tb144 O164 2.484 . S
Tb144 O165 2.440 . S
Tb144 O166 2.658 1_545 S
Tb144 O167 2.409 1_545 S
Tb144 O168 2.378 . S
Tb144 O172 2.326 1_554 S
Tb144 O175 2.341 1_545 S
Tb145 C155 2.809 1_545 S
Tb145 O166 2.325 1_546 S
Tb145 O169 2.341 1_556 S
Tb145 O170 2.484 1_545 S
Tb145 O171 2.440 1_545 S
Tb145 O172 2.658 . S
Tb145 O173 2.409 . S
Tb145 O174 2.378 1_545 S
C146 Tb144 2.809 . S
C146 C147 1.514 . S
C146 O164 1.248 . S
C146 O165 1.266 . S
C147 C146 1.514 . S
C147 C148 1.359 . S
C147 C152 1.348 . S
C148 C147 1.359 . S
C148 C149 1.380 . S
C148 H176 0.929 . S
C149 C148 1.380 . S
C149 C150 1.347 . S
C149 H177 0.931 . S
C150 C149 1.347 . S
C150 C151 1.369 . S
C151 C150 1.369 . S
C151 C152 1.408 . S
C151 H178 0.930 . S
C152 C147 1.348 . S
C152 C151 1.408 . S
C152 H179 0.930 . S
C153 O166 1.281 . S
C153 O167 1.254 . S
C154 O168 1.236 . S
C154 O169 1.266 . S
C155 Tb145 2.809 1_565 S
C155 C156 1.514 . S
C155 O170 1.248 . S
C155 O171 1.266 . S
C156 C155 1.514 . S
C156 C157 1.359 . S
C156 C161 1.348 . S
C157 C156 1.359 . S
C157 C158 1.380 . S
C157 H180 0.929 . S
C158 C157 1.380 . S
C158 C159 1.347 . S
C158 H181 0.931 . S
C159 C158 1.347 . S
C159 C160 1.369 . S
C160 C159 1.369 . S
C160 C161 1.408 . S
C160 H182 0.930 . S
C161 C156 1.348 . S
C161 C160 1.408 . S
C161 H183 0.930 . S
C162 O172 1.279 . S
C162 O173 1.254 . S
C163 O174 1.236 . S
C163 O175 1.266 1_556 S
O164 Tb144 2.484 . S
O164 C146 1.248 . S
O165 Tb144 2.440 . S
O165 C146 1.266 . S
O166 Tb144 2.658 1_565 S
O166 Tb145 2.325 1_564 S
O166 C153 1.281 . S
O167 Tb144 2.409 1_565 S
O167 C153 1.254 . S
O168 Tb144 2.378 . S
O168 C154 1.236 . S
O169 Tb145 2.341 1_554 S
O169 C154 1.266 . S
O170 Tb145 2.484 1_565 S
O170 C155 1.248 . S
O171 Tb145 2.440 1_565 S
O171 C155 1.266 . S
O172 Tb144 2.326 1_556 S
O172 Tb145 2.658 . S
O172 C162 1.279 . S
O173 Tb145 2.409 . S
O173 C162 1.254 . S
O174 Tb145 2.378 1_565 S
O174 C163 1.236 . S
O175 Tb144 2.341 1_565 S
O175 C163 1.266 1_554 S
H176 C148 0.929 . S
H177 C149 0.931 . S
H178 C151 0.930 . S
H179 C152 0.930 . S
H180 C157 0.929 . S
H181 C158 0.931 . S
H182 C160 0.930 . S
H183 C161 0.930 . S
Tb184 C186 2.809 . S
Tb184 O204 2.484 . S
Tb184 O205 2.440 . S
Tb184 O206 2.658 . S
Tb184 O207 2.409 . S
Tb184 O208 2.378 . S
Tb184 O212 2.325 . S
Tb184 O215 2.341 . S
Tb185 C195 2.809 . S
Tb185 O206 2.325 . S
Tb185 O209 2.341 . S
Tb185 O210 2.484 . S
Tb185 O211 2.440 . S
Tb185 O212 2.658 . S
Tb185 O213 2.409 . S
Tb185 O214 2.378 . S
C186 Tb184 2.809 . S
C186 C187 1.514 . S
C186 O204 1.248 . S
C186 O205 1.266 . S
C187 C186 1.514 . S
C187 C188 1.359 . S
C187 C192 1.348 . S
C188 C187 1.359 . S
C188 C189 1.380 . S
C188 H216 0.929 . S
C189 C188 1.380 . S
C189 C190 1.347 . S
C189 H217 0.931 . S
C190 C189 1.347 . S
C190 C191 1.369 . S
C191 C190 1.369 . S
C191 C192 1.408 . S
C191 H218 0.930 . S
C192 C187 1.348 . S
C192 C191 1.408 . S
C192 H219 0.930 . S
C193 O206 1.281 . S
C193 O207 1.254 . S
C194 O208 1.236 . S
C194 O209 1.266 . S
C195 Tb185 2.809 . S
C195 C196 1.514 . S
C195 O210 1.248 . S
C195 O211 1.266 . S
C196 C195 1.514 . S
C196 C197 1.359 . S
C196 C201 1.348 . S
C197 C196 1.359 . S
C197 C198 1.380 . S
C197 H220 0.929 . S
C198 C197 1.380 . S
C198 C199 1.347 . S
C198 H221 0.931 . S
C199 C198 1.347 . S
C199 C200 1.369 . S
C200 C199 1.369 . S
C200 C201 1.408 . S
C200 H222 0.930 . S
C201 C196 1.348 . S
C201 C200 1.408 . S
C201 H223 0.930 . S
C202 O212 1.281 . S
C202 O213 1.254 . S
C203 O214 1.236 . S
C203 O215 1.266 . S
O204 Tb184 2.484 . S
O204 C186 1.248 . S
O205 Tb184 2.440 . S
O205 C186 1.266 . S
O206 Tb184 2.658 . S
O206 Tb185 2.325 . S
O206 C193 1.281 . S
O207 Tb184 2.409 . S
O207 C193 1.254 . S
O208 Tb184 2.378 . S
O208 C194 1.236 . S
O209 Tb185 2.341 . S
O209 C194 1.266 . S
O210 Tb185 2.484 . S
O210 C195 1.248 . S
O211 Tb185 2.440 . S
O211 C195 1.266 . S
O212 Tb184 2.325 . S
O212 Tb185 2.658 . S
O212 C202 1.281 . S
O213 Tb185 2.409 . S
O213 C202 1.254 . S
O214 Tb185 2.378 . S
O214 C203 1.236 . S
O215 Tb184 2.341 . S
O215 C203 1.266 . S
H216 C188 0.929 . S
H217 C189 0.931 . S
H218 C191 0.930 . S
H219 C192 0.930 . S
H220 C197 0.929 . S
H221 C198 0.931 . S
H222 C200 0.930 . S
H223 C201 0.930 . S
Tb224 C226 2.809 1_455 S
Tb224 O244 2.484 1_455 S
Tb224 O245 2.440 . S
Tb224 O246 2.658 . S
Tb224 O247 2.409 . S
Tb224 O248 2.378 . S
Tb224 O252 2.325 1_455 S
Tb224 O255 2.341 . S
Tb225 C235 2.809 . S
Tb225 O246 2.325 . S
Tb225 O249 2.341 1_455 S
Tb225 O250 2.484 . S
Tb225 O251 2.440 . S
Tb225 O252 2.658 1_455 S
Tb225 O253 2.409 1_455 S
Tb225 O254 2.378 . S
C226 Tb224 2.809 1_655 S
C226 C227 1.514 . S
C226 O244 1.248 . S
C226 O245 1.266 1_655 S
C227 C226 1.514 . S
C227 C228 1.359 . S
C227 C232 1.348 . S
C228 C227 1.359 . S
C228 C229 1.380 1_554 S
C228 H256 0.929 . S
C229 C228 1.380 1_556 S
C229 C230 1.348 . S
C229 H257 0.931 . S
C230 C229 1.348 . S
C230 C231 1.366 1_556 S
C231 C230 1.366 1_554 S
C231 C232 1.408 . S
C231 H258 0.930 . S
C232 C227 1.348 . S
C232 C231 1.408 . S
C232 H259 0.930 1_655 S
C233 O246 1.281 . S
C233 O247 1.254 . S
C234 O248 1.236 1_655 S
C234 O249 1.266 . S
C235 Tb225 2.809 . S
C235 C236 1.514 . S
C235 O250 1.248 . S
C235 O251 1.266 . S
C236 C235 1.514 . S
C236 C237 1.359 . S
C236 C241 1.348 . S
C237 C236 1.359 . S
C237 C238 1.380 . S
C237 H260 0.929 . S
C238 C237 1.380 . S
C238 C239 1.347 . S
C238 H261 0.931 . S
C239 C238 1.347 . S
C239 C240 1.369 . S
C240 C239 1.369 . S
C240 C241 1.408 . S
C240 H262 0.930 . S
C241 C236 1.348 . S
C241 C240 1.408 . S
C241 H263 0.930 . S
C242 O252 1.281 . S
C242 O253 1.254 . S
C243 O254 1.236 . S
C243 O255 1.266 . S
O244 Tb224 2.484 1_655 S
O244 C226 1.248 . S
O245 Tb224 2.440 . S
O245 C226 1.266 1_455 S
O246 Tb224 2.658 . S
O246 Tb225 2.325 . S
O246 C233 1.281 . S
O247 Tb224 2.409 . S
O247 C233 1.254 . S
O248 Tb224 2.378 . S
O248 C234 1.236 1_455 S
O249 Tb225 2.341 1_655 S
O249 C234 1.266 . S
O250 Tb225 2.484 . S
O250 C235 1.248 . S
O251 Tb225 2.440 . S
O251 C235 1.266 . S
O252 Tb224 2.325 1_655 S
O252 Tb225 2.658 1_655 S
O252 C242 1.281 . S
O253 Tb225 2.409 1_655 S
O253 C242 1.254 . S
O254 Tb225 2.378 . S
O254 C243 1.236 . S
O255 Tb224 2.341 . S
O255 C243 1.266 . S
H256 C228 0.929 . S
H257 C229 0.931 . S
H258 C231 0.930 . S
H259 C232 0.930 1_455 S
H260 C237 0.929 . S
H261 C238 0.931 . S
H262 C240 0.930 . S
H263 C241 0.930 . S
H264 C282 0.951 . S
H265 C284 0.951 . S
H266 C286 0.950 . S
H267 C287 0.950 . S
H268 C289 0.950 . S
H269 C292 0.950 . S
H270 C293 0.950 . S
H271 C295 0.950 . S
H272 C296 0.950 . S
H273 C297 0.951 . S
H274 C299 0.951 . S
H275 C301 0.950 . S
H276 C302 0.950 . S
H277 C304 0.950 . S
H278 C307 0.950 . S
H279 C308 0.950 . S
H280 C310 0.950 . S
H281 C311 0.950 . S
C282 H264 0.951 . S
C282 C283 1.366 . S
C282 C284 1.388 . S
C283 C282 1.366 . S
C283 C287 1.385 . S
C284 H265 0.951 . S
C284 C282 1.388 . S
C284 C285 1.366 . S
C285 C284 1.366 . S
C285 C286 1.414 . S
C285 C288 1.499 . S
C286 H266 0.950 . S
C286 C285 1.414 . S
C286 C287 1.374 . S
C287 H267 0.950 . S
C287 C283 1.385 . S
C287 C286 1.374 . S
C288 C285 1.499 . S
C288 C289 1.373 . S
C288 C290 1.389 . S
C289 H268 0.950 . S
C289 C288 1.373 . S
C289 C305 1.377 . S
C290 C288 1.389 . S
C290 C291 1.524 . S
C290 C304 1.377 . S
C291 C290 1.524 . S
C291 C292 1.397 . S
C291 C296 1.363 . S
C292 H269 0.950 . S
C292 C291 1.397 . S
C292 C293 1.334 . S
C293 H270 0.950 . S
C293 C292 1.334 . S
C293 C294 1.287 . S
C294 C293 1.287 . S
C294 C295 1.524 . S
C294 H313 0.913 . S
C295 H271 0.950 . S
C295 C294 1.524 . S
C295 C296 1.415 . S
C296 H272 0.950 . S
C296 C291 1.363 . S
C296 C295 1.415 . S
C297 H273 0.951 . S
C297 C298 1.366 . S
C297 C299 1.388 . S
C298 C297 1.366 . S
C298 C302 1.385 . S
C299 H274 0.951 . S
C299 C297 1.388 . S
C299 C300 1.366 . S
C300 C299 1.366 . S
C300 C301 1.414 . S
C300 C303 1.499 . S
C301 H275 0.950 . S
C301 C300 1.414 . S
C301 C302 1.374 . S
C302 H276 0.950 . S
C302 C298 1.385 . S
C302 C301 1.374 . S
C303 C300 1.499 . S
C303 C304 1.373 . S
C303 C305 1.389 . S
C304 H277 0.950 . S
C304 C290 1.377 . S
C304 C303 1.373 . S
C305 C289 1.377 . S
C305 C303 1.389 . S
C305 C306 1.524 . S
C306 C305 1.524 . S
C306 C307 1.397 . S
C306 C311 1.363 . S
C307 H278 0.950 . S
C307 C306 1.397 . S
C307 C308 1.334 . S
C308 H279 0.950 . S
C308 C307 1.334 . S
C308 C309 1.287 . S
C309 C308 1.287 . S
C309 C310 1.524 . S
C309 H312 0.999 . S
C310 H280 0.950 . S
C310 C309 1.524 . S
C310 C311 1.415 . S
C311 H281 0.950 . S
C311 C306 1.363 . S
C311 C310 1.415 . S
H312 C309 0.999 . S
H313 C294 0.913 . S
H314 C332 0.951 . S
H315 C334 0.951 . S
H316 C336 0.950 . S
H317 C337 0.950 . S
H318 C339 0.950 . S
H319 C342 0.950 . S
H320 C343 0.950 . S
H321 C345 0.950 . S
H322 C346 0.950 . S
H323 C347 0.951 . S
H324 C349 0.951 . S
H325 C351 0.950 . S
H326 C352 0.950 . S
H327 C354 0.950 . S
H328 C357 0.950 . S
H329 C358 0.950 . S
H330 C360 0.950 . S
H331 C361 0.950 . S
C332 H314 0.951 . S
C332 C333 1.366 . S
C332 C334 1.388 . S
C333 C332 1.366 . S
C333 C337 1.385 . S
C334 H315 0.951 . S
C334 C332 1.388 . S
C334 C335 1.366 . S
C335 C334 1.366 . S
C335 C336 1.414 . S
C335 C338 1.499 . S
C336 H316 0.950 . S
C336 C335 1.414 . S
C336 C337 1.374 . S
C337 H317 0.950 . S
C337 C333 1.385 . S
C337 C336 1.374 . S
C338 C335 1.499 . S
C338 C339 1.373 . S
C338 C340 1.389 . S
C339 H318 0.950 . S
C339 C338 1.373 . S
C339 C355 1.377 . S
C340 C338 1.389 . S
C340 C341 1.524 . S
C340 C354 1.377 . S
C341 C340 1.524 . S
C341 C342 1.397 . S
C341 C346 1.363 . S
C342 H319 0.950 . S
C342 C341 1.397 . S
C342 C343 1.334 . S
C343 H320 0.950 . S
C343 C342 1.334 . S
C343 C344 1.287 . S
C344 C343 1.287 . S
C344 C345 1.524 . S
C344 H363 0.913 . S
C345 H321 0.950 . S
C345 C344 1.524 . S
C345 C346 1.415 . S
C346 H322 0.950 . S
C346 C341 1.363 . S
C346 C345 1.415 . S
C347 H323 0.951 . S
C347 C348 1.366 . S
C347 C349 1.388 . S
C348 C347 1.366 . S
C348 C352 1.385 . S
C349 H324 0.951 . S
C349 C347 1.388 . S
C349 C350 1.366 . S
C350 C349 1.366 . S
C350 C351 1.414 . S
C350 C353 1.499 . S
C351 H325 0.950 . S
C351 C350 1.414 . S
C351 C352 1.374 . S
C352 H326 0.950 . S
C352 C348 1.385 . S
C352 C351 1.374 . S
C353 C350 1.499 . S
C353 C354 1.373 . S
C353 C355 1.389 . S
C354 H327 0.950 . S
C354 C340 1.377 . S
C354 C353 1.373 . S
C355 C339 1.377 . S
C355 C353 1.389 . S
C355 C356 1.524 . S
C356 C355 1.524 . S
C356 C357 1.397 . S
C356 C361 1.363 . S
C357 H328 0.950 . S
C357 C356 1.397 . S
C357 C358 1.334 . S
C358 H329 0.950 . S
C358 C357 1.334 . S
C358 C359 1.287 . S
C359 C358 1.287 . S
C359 C360 1.524 . S
C359 H362 0.999 . S
C360 H330 0.950 . S
C360 C359 1.524 . S
C360 C361 1.415 . S
C361 H331 0.950 . S
C361 C356 1.363 . S
C361 C360 1.415 . S
H362 C359 0.999 . S
H363 C344 0.913 . S
H364 C382 0.951 . S
H365 C384 0.951 . S
H366 C386 0.950 . S
H367 C387 0.950 . S
H368 C389 0.950 . S
H369 C392 0.950 . S
H370 C393 0.950 . S
H371 C395 0.950 . S
H372 C396 0.950 . S
H373 C397 0.951 . S
H374 C399 0.951 . S
H375 C401 0.950 . S
H376 C402 0.950 . S
H377 C404 0.950 . S
H378 C407 0.950 . S
H379 C408 0.950 . S
H380 C410 0.950 . S
H381 C411 0.950 . S
C382 H364 0.951 . S
C382 C383 1.366 . S
C382 C384 1.388 . S
C383 C382 1.366 . S
C383 C387 1.385 . S
C384 H365 0.951 . S
C384 C382 1.388 . S
C384 C385 1.366 . S
C385 C384 1.366 . S
C385 C386 1.414 . S
C385 C388 1.499 . S
C386 H366 0.950 . S
C386 C385 1.414 . S
C386 C387 1.374 . S
C387 H367 0.950 . S
C387 C383 1.385 . S
C387 C386 1.374 . S
C388 C385 1.499 . S
C388 C389 1.373 . S
C388 C390 1.389 . S
C389 H368 0.950 . S
C389 C388 1.373 . S
C389 C405 1.377 . S
C390 C388 1.389 . S
C390 C391 1.524 . S
C390 C404 1.377 . S
C391 C390 1.524 . S
C391 C392 1.397 . S
C391 C396 1.363 . S
C392 H369 0.950 . S
C392 C391 1.397 . S
C392 C393 1.334 . S
C393 H370 0.950 . S
C393 C392 1.334 . S
C393 C394 1.287 . S
C394 C393 1.287 . S
C394 C395 1.524 . S
C394 H413 0.913 . S
C395 H371 0.950 . S
C395 C394 1.524 . S
C395 C396 1.415 . S
C396 H372 0.950 . S
C396 C391 1.363 . S
C396 C395 1.415 . S
C397 H373 0.951 . S
C397 C398 1.366 . S
C397 C399 1.388 . S
C398 C397 1.366 . S
C398 C402 1.385 . S
C399 H374 0.951 . S
C399 C397 1.388 . S
C399 C400 1.366 . S
C400 C399 1.366 . S
C400 C401 1.414 . S
C400 C403 1.499 . S
C401 H375 0.950 . S
C401 C400 1.414 . S
C401 C402 1.374 . S
C402 H376 0.950 . S
C402 C398 1.385 . S
C402 C401 1.374 . S
C403 C400 1.499 . S
C403 C404 1.373 . S
C403 C405 1.389 . S
C404 H377 0.950 . S
C404 C390 1.377 . S
C404 C403 1.373 . S
C405 C389 1.377 . S
C405 C403 1.389 . S
C405 C406 1.524 . S
C406 C405 1.524 . S
C406 C407 1.397 . S
C406 C411 1.363 . S
C407 H378 0.950 . S
C407 C406 1.397 . S
C407 C408 1.334 . S
C408 H379 0.950 . S
C408 C407 1.334 . S
C408 C409 1.287 . S
C409 C408 1.287 . S
C409 C410 1.524 . S
C409 H412 0.999 . S
C410 H380 0.950 . S
C410 C409 1.524 . S
C410 C411 1.415 . S
C411 H381 0.950 . S
C411 C406 1.363 . S
C411 C410 1.415 . S
H412 C409 0.999 . S
H413 C394 0.913 . S
H414 C432 0.951 . S
H415 C434 0.951 . S
H416 C436 0.950 . S
H417 C437 0.950 . S
H418 C439 0.950 . S
H419 C442 0.950 . S
H420 C443 0.950 . S
H421 C445 0.950 . S
H422 C446 0.950 . S
H423 C447 0.951 . S
H424 C449 0.951 . S
H425 C451 0.950 . S
H426 C452 0.950 . S
H427 C454 0.950 . S
H428 C457 0.950 . S
H429 C458 0.950 . S
H430 C460 0.950 . S
H431 C461 0.950 . S
C432 H414 0.951 . S
C432 C433 1.366 . S
C432 C434 1.388 . S
C433 C432 1.366 . S
C433 C437 1.385 . S
C434 H415 0.951 . S
C434 C432 1.388 . S
C434 C435 1.366 . S
C435 C434 1.366 . S
C435 C436 1.414 . S
C435 C438 1.499 . S
C436 H416 0.950 . S
C436 C435 1.414 . S
C436 C437 1.374 . S
C437 H417 0.950 . S
C437 C433 1.385 . S
C437 C436 1.374 . S
C438 C435 1.499 . S
C438 C439 1.373 . S
C438 C440 1.389 . S
C439 H418 0.950 . S
C439 C438 1.373 . S
C439 C455 1.377 . S
C440 C438 1.389 . S
C440 C441 1.524 . S
C440 C454 1.377 . S
C441 C440 1.524 . S
C441 C442 1.397 . S
C441 C446 1.363 . S
C442 H419 0.950 . S
C442 C441 1.397 . S
C442 C443 1.334 . S
C443 H420 0.950 . S
C443 C442 1.334 . S
C443 C444 1.287 . S
C444 C443 1.287 . S
C444 C445 1.524 . S
C444 H463 0.913 . S
C445 H421 0.950 . S
C445 C444 1.524 . S
C445 C446 1.415 . S
C446 H422 0.950 . S
C446 C441 1.363 . S
C446 C445 1.415 . S
C447 H423 0.951 . S
C447 C448 1.366 . S
C447 C449 1.388 . S
C448 C447 1.366 . S
C448 C452 1.385 . S
C449 H424 0.951 . S
C449 C447 1.388 . S
C449 C450 1.366 . S
C450 C449 1.366 . S
C450 C451 1.414 . S
C450 C453 1.499 . S
C451 H425 0.950 . S
C451 C450 1.414 . S
C451 C452 1.374 . S
C452 H426 0.950 . S
C452 C448 1.385 . S
C452 C451 1.374 . S
C453 C450 1.499 . S
C453 C454 1.373 . S
C453 C455 1.389 . S
C454 H427 0.950 . S
C454 C440 1.377 . S
C454 C453 1.373 . S
C455 C439 1.377 . S
C455 C453 1.389 . S
C455 C456 1.524 . S
C456 C455 1.524 . S
C456 C457 1.397 . S
C456 C461 1.363 . S
C457 H428 0.950 . S
C457 C456 1.397 . S
C457 C458 1.334 . S
C458 H429 0.950 . S
C458 C457 1.334 . S
C458 C459 1.287 . S
C459 C458 1.287 . S
C459 C460 1.524 . S
C459 H462 0.999 . S
C460 H430 0.950 . S
C460 C459 1.524 . S
C460 C461 1.415 . S
C461 H431 0.950 . S
C461 C456 1.363 . S
C461 C460 1.415 . S
H462 C459 0.999 . S
H463 C444 0.913 . S
H464 C482 0.951 . S
H465 C484 0.951 . S
H466 C486 0.950 . S
H467 C487 0.950 . S
H468 C489 0.950 . S
H469 C492 0.950 . S
H470 C493 0.950 . S
H471 C495 0.950 . S
H472 C496 0.950 . S
H473 C497 0.951 . S
H474 C499 0.951 . S
H475 C501 0.950 . S
H476 C502 0.950 . S
H477 C504 0.950 . S
H478 C507 0.950 . S
H479 C508 0.950 . S
H480 C510 0.950 . S
H481 C511 0.950 . S
C482 H464 0.951 . S
C482 C483 1.366 . S
C482 C484 1.388 . S
C483 C482 1.366 . S
C483 C487 1.385 . S
C484 H465 0.951 . S
C484 C482 1.388 . S
C484 C485 1.366 . S
C485 C484 1.366 . S
C485 C486 1.414 . S
C485 C488 1.499 . S
C486 H466 0.950 . S
C486 C485 1.414 . S
C486 C487 1.374 . S
C487 H467 0.950 . S
C487 C483 1.385 . S
C487 C486 1.374 . S
C488 C485 1.499 . S
C488 C489 1.373 . S
C488 C490 1.389 . S
C489 H468 0.950 . S
C489 C488 1.373 . S
C489 C505 1.377 . S
C490 C488 1.389 . S
C490 C491 1.524 . S
C490 C504 1.377 . S
C491 C490 1.524 . S
C491 C492 1.397 . S
C491 C496 1.363 . S
C492 H469 0.950 . S
C492 C491 1.397 . S
C492 C493 1.334 . S
C493 H470 0.950 . S
C493 C492 1.334 . S
C493 C494 1.287 . S
C494 C493 1.287 . S
C494 C495 1.524 . S
C494 H513 0.913 . S
C495 H471 0.950 . S
C495 C494 1.524 . S
C495 C496 1.415 . S
C496 H472 0.950 . S
C496 C491 1.363 . S
C496 C495 1.415 . S
C497 H473 0.951 . S
C497 C498 1.366 . S
C497 C499 1.388 . S
C498 C497 1.366 . S
C498 C502 1.385 . S
C499 H474 0.951 . S
C499 C497 1.388 . S
C499 C500 1.366 . S
C500 C499 1.366 . S
C500 C501 1.414 . S
C500 C503 1.499 . S
C501 H475 0.950 . S
C501 C500 1.414 . S
C501 C502 1.374 . S
C502 H476 0.950 . S
C502 C498 1.385 . S
C502 C501 1.374 . S
C503 C500 1.499 . S
C503 C504 1.373 . S
C503 C505 1.389 . S
C504 H477 0.950 . S
C504 C490 1.377 . S
C504 C503 1.373 . S
C505 C489 1.377 . S
C505 C503 1.389 . S
C505 C506 1.524 . S
C506 C505 1.524 . S
C506 C507 1.397 . S
C506 C511 1.363 . S
C507 H478 0.950 . S
C507 C506 1.397 . S
C507 C508 1.334 . S
C508 H479 0.950 . S
C508 C507 1.334 . S
C508 C509 1.287 . S
C509 C508 1.287 . S
C509 C510 1.524 . S
C509 H512 0.999 . S
C510 H480 0.950 . S
C510 C509 1.524 . S
C510 C511 1.415 . S
C511 H481 0.950 . S
C511 C506 1.363 . S
C511 C510 1.415 . S
H512 C509 0.999 . S
H513 C494 0.913 . S
H514 C532 0.951 . S
H515 C534 0.951 . S
H516 C536 0.950 . S
H517 C537 0.950 . S
H518 C539 0.950 . S
H519 C542 0.950 . S
H520 C543 0.950 . S
H521 C545 0.950 . S
H522 C546 0.950 . S
H523 C547 0.951 . S
H524 C549 0.951 . S
H525 C551 0.950 . S
H526 C552 0.950 . S
H527 C554 0.950 . S
H528 C557 0.950 . S
H529 C558 0.950 1_655 S
H530 C560 0.950 . S
H531 C561 0.950 . S
C532 H514 0.951 . S
C532 C533 1.366 . S
C532 C534 1.388 . S
C533 C532 1.366 . S
C533 C537 1.385 . S
C534 H515 0.951 . S
C534 C532 1.388 . S
C534 C535 1.366 . S
C535 C534 1.366 . S
C535 C536 1.414 . S
C535 C538 1.499 . S
C536 H516 0.950 . S
C536 C535 1.414 . S
C536 C537 1.374 . S
C537 H517 0.950 . S
C537 C533 1.385 . S
C537 C536 1.374 . S
C538 C535 1.499 . S
C538 C539 1.373 . S
C538 C540 1.389 . S
C539 H518 0.950 . S
C539 C538 1.373 . S
C539 C555 1.377 . S
C540 C538 1.389 . S
C540 C541 1.524 . S
C540 C554 1.377 . S
C541 C540 1.524 . S
C541 C542 1.397 . S
C541 C546 1.363 . S
C542 H519 0.950 . S
C542 C541 1.397 . S
C542 C543 1.334 . S
C543 H520 0.950 . S
C543 C542 1.334 . S
C543 C544 1.287 . S
C544 C543 1.287 . S
C544 C545 1.524 . S
C544 H563 0.913 . S
C545 H521 0.950 . S
C545 C544 1.524 . S
C545 C546 1.415 . S
C546 H522 0.950 . S
C546 C541 1.363 . S
C546 C545 1.415 . S
C547 H523 0.951 . S
C547 C548 1.366 . S
C547 C549 1.388 . S
C548 C547 1.366 . S
C548 C552 1.385 . S
C549 H524 0.951 . S
C549 C547 1.388 . S
C549 C550 1.366 . S
C550 C549 1.366 . S
C550 C551 1.414 . S
C550 C553 1.499 . S
C551 H525 0.950 . S
C551 C550 1.414 . S
C551 C552 1.374 . S
C552 H526 0.950 . S
C552 C548 1.385 . S
C552 C551 1.374 . S
C553 C550 1.499 . S
C553 C554 1.373 . S
C553 C555 1.389 . S
C554 H527 0.950 . S
C554 C540 1.377 . S
C554 C553 1.373 . S
C555 C539 1.377 . S
C555 C553 1.389 . S
C555 C556 1.524 . S
C556 C555 1.524 . S
C556 C557 1.397 . S
C556 C561 1.363 . S
C557 H528 0.950 . S
C557 C556 1.397 . S
C557 C558 1.334 . S
C558 H529 0.950 1_455 S
C558 C557 1.334 . S
C558 C559 1.287 . S
C559 C558 1.287 . S
C559 C560 1.524 . S
C559 H562 0.999 1_455 S
C560 H530 0.950 . S
C560 C559 1.524 . S
C560 C561 1.415 . S
C561 H531 0.950 . S
C561 C556 1.363 . S
C561 C560 1.415 . S
H562 C559 0.999 1_655 S
H563 C544 0.913 . S
H564 C582 0.951 . S
H565 C584 0.951 . S
H566 C586 0.950 . S
H567 C587 0.950 . S
H568 C589 0.950 . S
H569 C592 0.950 . S
H570 C593 0.950 . S
H571 C595 0.950 . S
H572 C596 0.950 . S
H573 C597 0.956 . S
H574 C599 0.951 . S
H575 C601 0.950 . S
H576 C602 0.950 . S
H577 C604 0.950 . S
H578 C607 0.950 . S
H579 C608 0.950 . S
H580 C610 0.950 . S
H581 C611 0.950 . S
C582 H564 0.951 . S
C582 C583 1.366 . S
C582 C584 1.388 . S
C583 C582 1.366 . S
C583 C587 1.385 . S
C584 H565 0.951 . S
C584 C582 1.388 . S
C584 C585 1.366 . S
C585 C584 1.366 . S
C585 C586 1.414 . S
C585 C588 1.499 . S
C586 H566 0.950 . S
C586 C585 1.414 . S
C586 C587 1.374 . S
C587 H567 0.950 . S
C587 C583 1.385 . S
C587 C586 1.374 . S
C588 C585 1.499 . S
C588 C589 1.373 . S
C588 C590 1.389 . S
C589 H568 0.950 . S
C589 C588 1.373 . S
C589 C605 1.377 . S
C590 C588 1.389 . S
C590 C591 1.524 . S
C590 C604 1.377 . S
C591 C590 1.524 . S
C591 C592 1.397 . S
C591 C596 1.363 . S
C592 H569 0.950 . S
C592 C591 1.397 . S
C592 C593 1.334 . S
C593 H570 0.950 . S
C593 C592 1.334 . S
C593 C594 1.287 . S
C594 C593 1.287 . S
C594 C595 1.524 . S
C594 H613 0.913 . S
C595 H571 0.950 . S
C595 C594 1.524 . S
C595 C596 1.415 . S
C596 H572 0.950 . S
C596 C591 1.363 . S
C596 C595 1.415 . S
C597 H573 0.956 . S
C597 C598 1.366 1_556 S
C597 C599 1.388 . S
C598 C597 1.366 1_554 S
C598 C602 1.385 . S
C599 H574 0.951 . S
C599 C597 1.388 . S
C599 C600 1.366 . S
C600 C599 1.366 . S
C600 C601 1.414 . S
C600 C603 1.499 . S
C601 H575 0.950 . S
C601 C600 1.414 . S
C601 C602 1.374 1_556 S
C602 H576 0.950 . S
C602 C598 1.385 . S
C602 C601 1.374 1_554 S
C603 C600 1.499 . S
C603 C604 1.373 . S
C603 C605 1.389 . S
C604 H577 0.950 . S
C604 C590 1.377 . S
C604 C603 1.373 . S
C605 C589 1.377 . S
C605 C603 1.389 . S
C605 C606 1.524 . S
C606 C605 1.524 . S
C606 C607 1.397 . S
C606 C611 1.363 . S
C607 H578 0.950 . S
C607 C606 1.397 . S
C607 C608 1.334 1_556 S
C608 H579 0.950 . S
C608 C607 1.334 1_554 S
C608 C609 1.287 . S
C609 C608 1.287 . S
C609 C610 1.524 1_554 S
C609 H612 0.999 . S
C610 H580 0.950 . S
C610 C609 1.524 1_556 S
C610 C611 1.415 . S
C611 H581 0.950 . S
C611 C606 1.363 . S
C611 C610 1.415 . S
H612 C609 0.999 . S
H613 C594 0.913 . S
H614 C632 0.951 . S
H615 C634 0.951 . S
H616 C636 0.950 . S
H617 C637 0.950 . S
H618 C639 0.950 . S
H619 C642 0.950 . S
H620 C643 0.950 . S
H621 C645 0.950 . S
H622 C646 0.950 . S
H623 C647 0.951 . S
H624 C649 0.951 . S
H625 C651 0.950 . S
H626 C652 0.950 . S
H627 C654 0.950 . S
H628 C657 0.950 . S
H629 C658 0.950 . S
H630 C660 0.950 . S
H631 C661 0.950 . S
C632 H614 0.951 . S
C632 C633 1.366 . S
C632 C634 1.388 . S
C633 C632 1.366 . S
C633 C637 1.385 . S
C634 H615 0.951 . S
C634 C632 1.388 . S
C634 C635 1.366 . S
C635 C634 1.366 . S
C635 C636 1.414 . S
C635 C638 1.499 . S
C636 H616 0.950 . S
C636 C635 1.414 . S
C636 C637 1.374 . S
C637 H617 0.950 . S
C637 C633 1.385 . S
C637 C636 1.374 . S
C638 C635 1.499 . S
C638 C639 1.373 . S
C638 C640 1.389 . S
C639 H618 0.950 . S
C639 C638 1.373 . S
C639 C655 1.377 . S
C640 C638 1.389 . S
C640 C641 1.524 . S
C640 C654 1.377 . S
C641 C640 1.524 . S
C641 C642 1.397 . S
C641 C646 1.363 . S
C642 H619 0.950 . S
C642 C641 1.397 . S
C642 C643 1.334 . S
C643 H620 0.950 . S
C643 C642 1.334 . S
C643 C644 1.287 . S
C644 C643 1.287 . S
C644 C645 1.524 . S
C644 H663 0.913 . S
C645 H621 0.950 . S
C645 C644 1.524 . S
C645 C646 1.415 . S
C646 H622 0.950 . S
C646 C641 1.363 . S
C646 C645 1.415 . S
C647 H623 0.951 . S
C647 C648 1.366 . S
C647 C649 1.388 . S
C648 C647 1.366 . S
C648 C652 1.385 . S
C649 H624 0.951 . S
C649 C647 1.388 . S
C649 C650 1.366 . S
C650 C649 1.366 . S
C650 C651 1.414 . S
C650 C653 1.499 . S
C651 H625 0.950 . S
C651 C650 1.414 . S
C651 C652 1.374 . S
C652 H626 0.950 . S
C652 C648 1.385 . S
C652 C651 1.374 . S
C653 C650 1.499 . S
C653 C654 1.373 . S
C653 C655 1.389 . S
C654 H627 0.950 . S
C654 C640 1.377 . S
C654 C653 1.373 . S
C655 C639 1.377 . S
C655 C653 1.389 . S
C655 C656 1.524 . S
C656 C655 1.524 . S
C656 C657 1.397 . S
C656 C661 1.363 . S
C657 H628 0.950 . S
C657 C656 1.397 . S
C657 C658 1.334 . S
C658 H629 0.950 . S
C658 C657 1.334 . S
C658 C659 1.287 . S
C659 C658 1.287 . S
C659 C660 1.524 . S
C659 H662 0.999 . S
C660 H630 0.950 . S
C660 C659 1.524 . S
C660 C661 1.415 . S
C661 H631 0.950 . S
C661 C656 1.363 . S
C661 C660 1.415 . S
H662 C659 0.999 . S
H663 C644 0.913 . S
H664 C682 0.951 . S
H665 C684 0.951 . S
H666 C686 0.950 . S
H667 C687 0.950 . S
H668 C689 0.950 . S
H669 C692 0.950 . S
H670 C693 0.950 . S
H671 C695 0.950 . S
H672 C696 0.950 . S
H673 C697 0.951 . S
H674 C699 0.951 . S
H675 C701 0.950 . S
H676 C702 0.950 . S
H677 C704 0.950 . S
H678 C707 0.950 . S
H679 C708 0.950 . S
H680 C710 0.950 . S
H681 C711 0.950 . S
C682 H664 0.951 . S
C682 C683 1.366 . S
C682 C684 1.388 . S
C683 C682 1.366 . S
C683 C687 1.385 . S
C684 H665 0.951 . S
C684 C682 1.388 . S
C684 C685 1.366 . S
C685 C684 1.366 . S
C685 C686 1.414 . S
C685 C688 1.499 . S
C686 H666 0.950 . S
C686 C685 1.414 . S
C686 C687 1.374 . S
C687 H667 0.950 . S
C687 C683 1.385 . S
C687 C686 1.374 . S
C688 C685 1.499 . S
C688 C689 1.373 . S
C688 C690 1.389 . S
C689 H668 0.950 . S
C689 C688 1.373 . S
C689 C705 1.377 . S
C690 C688 1.389 . S
C690 C691 1.524 . S
C690 C704 1.377 . S
C691 C690 1.524 . S
C691 C692 1.397 . S
C691 C696 1.363 . S
C692 H669 0.950 . S
C692 C691 1.397 . S
C692 C693 1.334 . S
C693 H670 0.950 . S
C693 C692 1.334 . S
C693 C694 1.287 . S
C694 C693 1.287 . S
C694 C695 1.524 . S
C694 H713 0.913 . S
C695 H671 0.950 . S
C695 C694 1.524 . S
C695 C696 1.415 . S
C696 H672 0.950 . S
C696 C691 1.363 . S
C696 C695 1.415 . S
C697 H673 0.951 . S
C697 C698 1.366 . S
C697 C699 1.388 . S
C698 C697 1.366 . S
C698 C702 1.385 . S
C699 H674 0.951 . S
C699 C697 1.388 . S
C699 C700 1.366 . S
C700 C699 1.366 . S
C700 C701 1.414 . S
C700 C703 1.499 . S
C701 H675 0.950 . S
C701 C700 1.414 . S
C701 C702 1.374 . S
C702 H676 0.950 . S
C702 C698 1.385 . S
C702 C701 1.374 . S
C703 C700 1.499 . S
C703 C704 1.373 . S
C703 C705 1.389 . S
C704 H677 0.950 . S
C704 C690 1.377 . S
C704 C703 1.373 . S
C705 C689 1.377 . S
C705 C703 1.389 . S
C705 C706 1.524 . S
C706 C705 1.524 . S
C706 C707 1.397 . S
C706 C711 1.363 . S
C707 H678 0.950 . S
C707 C706 1.397 . S
C707 C708 1.334 . S
C708 H679 0.950 . S
C708 C707 1.334 . S
C708 C709 1.287 . S
C709 C708 1.287 . S
C709 C710 1.524 . S
C709 H712 0.999 . S
C710 H680 0.950 . S
C710 C709 1.524 . S
C710 C711 1.415 . S
C711 H681 0.950 . S
C711 C706 1.363 . S
C711 C710 1.415 . S
H712 C709 0.999 . S
H713 C694 0.913 . S
H714 C732 0.951 . S
H715 C734 0.951 . S
H716 C736 0.950 . S
H717 C737 0.950 . S
H718 C739 0.950 . S
H719 C742 0.950 . S
H720 C743 0.950 . S
H721 C745 0.950 . S
H722 C746 0.950 . S
H723 C747 0.951 . S
H724 C749 0.951 . S
H725 C751 0.950 . S
H726 C752 0.950 . S
H727 C754 0.950 . S
H728 C757 0.950 . S
H729 C758 0.950 1_554 S
H730 C760 0.950 . S
H731 C761 0.950 . S
C732 H714 0.951 . S
C732 C733 1.366 . S
C732 C734 1.388 . S
C733 C732 1.366 . S
C733 C737 1.385 . S
C734 H715 0.951 . S
C734 C732 1.388 . S
C734 C735 1.366 . S
C735 C734 1.366 . S
C735 C736 1.414 . S
C735 C738 1.499 . S
C736 H716 0.950 . S
C736 C735 1.414 . S
C736 C737 1.374 . S
C737 H717 0.950 . S
C737 C733 1.385 . S
C737 C736 1.374 . S
C738 C735 1.499 . S
C738 C739 1.373 . S
C738 C740 1.389 . S
C739 H718 0.950 . S
C739 C738 1.373 . S
C739 C755 1.377 . S
C740 C738 1.389 . S
C740 C741 1.524 . S
C740 C754 1.377 . S
C741 C740 1.524 . S
C741 C742 1.397 . S
C741 C746 1.363 . S
C742 H719 0.950 . S
C742 C741 1.397 . S
C742 C743 1.334 . S
C743 H720 0.950 . S
C743 C742 1.334 . S
C743 C744 1.287 . S
C744 C743 1.287 . S
C744 C745 1.524 . S
C744 H763 0.913 . S
C745 H721 0.950 . S
C745 C744 1.524 . S
C745 C746 1.415 . S
C746 H722 0.950 . S
C746 C741 1.363 . S
C746 C745 1.415 . S
C747 H723 0.951 . S
C747 C748 1.366 . S
C747 C749 1.388 . S
C748 C747 1.366 . S
C748 C752 1.385 . S
C749 H724 0.951 . S
C749 C747 1.388 . S
C749 C750 1.366 . S
C750 C749 1.366 . S
C750 C751 1.414 . S
C750 C753 1.499 . S
C751 H725 0.950 . S
C751 C750 1.414 . S
C751 C752 1.374 . S
C752 H726 0.950 . S
C752 C748 1.385 . S
C752 C751 1.374 . S
C753 C750 1.499 . S
C753 C754 1.373 . S
C753 C755 1.389 . S
C754 H727 0.950 . S
C754 C740 1.377 . S
C754 C753 1.373 . S
C755 C739 1.377 . S
C755 C753 1.389 . S
C755 C756 1.524 . S
C756 C755 1.524 . S
C756 C757 1.397 . S
C756 C761 1.363 . S
C757 H728 0.950 . S
C757 C756 1.397 . S
C757 C758 1.334 . S
C758 H729 0.950 1_556 S
C758 C757 1.334 . S
C758 C759 1.287 . S
C759 C758 1.287 . S
C759 C760 1.524 . S
C759 H762 0.999 1_556 S
C760 H730 0.950 . S
C760 C759 1.524 . S
C760 C761 1.415 . S
C761 H731 0.950 . S
C761 C756 1.363 . S
C761 C760 1.415 . S
H762 C759 0.999 1_554 S
H763 C744 0.913 . S
H764 C782 0.951 . S
H765 C784 0.951 . S
H766 C786 0.950 . S
H767 C787 0.950 . S
H768 C789 0.950 . S
H769 C792 0.950 . S
H770 C793 0.950 . S
H771 C795 0.950 . S
H772 C796 0.950 . S
H773 C797 0.951 1_455 S
H774 C799 0.951 . S
H775 C801 0.950 . S
H776 C802 0.950 . S
H777 C804 0.950 . S
H778 C807 0.950 . S
H779 C808 0.950 . S
H780 C810 0.950 . S
H781 C811 0.950 . S
C782 H764 0.951 . S
C782 C783 1.366 . S
C782 C784 1.388 . S
C783 C782 1.366 . S
C783 C787 1.385 . S
C784 H765 0.951 . S
C784 C782 1.388 . S
C784 C785 1.366 . S
C785 C784 1.366 . S
C785 C786 1.414 . S
C785 C788 1.499 . S
C786 H766 0.950 . S
C786 C785 1.414 . S
C786 C787 1.374 . S
C787 H767 0.950 . S
C787 C783 1.385 . S
C787 C786 1.374 . S
C788 C785 1.499 . S
C788 C789 1.373 . S
C788 C790 1.389 . S
C789 H768 0.950 . S
C789 C788 1.373 . S
C789 C805 1.377 . S
C790 C788 1.389 . S
C790 C791 1.524 . S
C790 C804 1.377 . S
C791 C790 1.524 . S
C791 C792 1.397 . S
C791 C796 1.363 . S
C792 H769 0.950 . S
C792 C791 1.397 . S
C792 C793 1.334 . S
C793 H770 0.950 . S
C793 C792 1.334 . S
C793 C794 1.287 . S
C794 C793 1.287 . S
C794 C795 1.524 . S
C794 H813 0.913 . S
C795 H771 0.950 . S
C795 C794 1.524 . S
C795 C796 1.415 . S
C796 H772 0.950 . S
C796 C791 1.363 . S
C796 C795 1.415 . S
C797 H773 0.951 1_655 S
C797 C798 1.366 . S
C797 C799 1.388 . S
C798 C797 1.366 . S
C798 C802 1.385 . S
C799 H774 0.951 . S
C799 C797 1.388 . S
C799 C800 1.366 . S
C800 C799 1.366 . S
C800 C801 1.414 . S
C800 C803 1.499 . S
C801 H775 0.950 . S
C801 C800 1.414 . S
C801 C802 1.374 . S
C802 H776 0.950 . S
C802 C798 1.385 . S
C802 C801 1.374 . S
C803 C800 1.499 . S
C803 C804 1.373 . S
C803 C805 1.389 . S
C804 H777 0.950 . S
C804 C790 1.377 . S
C804 C803 1.373 . S
C805 C789 1.377 . S
C805 C803 1.389 . S
C805 C806 1.524 . S
C806 C805 1.524 . S
C806 C807 1.397 . S
C806 C811 1.363 1_655 S
C807 H778 0.950 . S
C807 C806 1.397 . S
C807 C808 1.334 1_655 S
C808 H779 0.950 . S
C808 C807 1.334 1_455 S
C808 C809 1.287 . S
C809 C808 1.287 . S
C809 C810 1.524 . S
C809 H812 0.999 . S
C810 H780 0.950 . S
C810 C809 1.524 . S
C810 C811 1.415 . S
C811 H781 0.950 . S
C811 C806 1.363 1_455 S
C811 C810 1.415 . S
H812 C809 0.999 . S
H813 C794 0.913 . S
H814 C832 0.951 . S
H815 C834 0.951 . S
H816 C836 0.950 . S
H817 C837 0.950 . S
H818 C839 0.950 . S
H819 C842 0.950 . S
H820 C843 0.950 . S
H821 C845 0.950 . S
H822 C846 0.950 . S
H823 C847 0.951 . S
H824 C849 0.951 . S
H825 C851 0.950 . S
H826 C852 0.950 . S
H827 C854 0.950 . S
H828 C857 0.950 . S
H829 C858 0.950 . S
H830 C860 0.950 . S
H831 C861 0.950 . S
C832 H814 0.951 . S
C832 C833 1.366 . S
C832 C834 1.388 . S
C833 C832 1.366 . S
C833 C837 1.385 . S
C834 H815 0.951 . S
C834 C832 1.388 . S
C834 C835 1.366 . S
C835 C834 1.366 . S
C835 C836 1.414 . S
C835 C838 1.499 . S
C836 H816 0.950 . S
C836 C835 1.414 . S
C836 C837 1.374 . S
C837 H817 0.950 . S
C837 C833 1.385 . S
C837 C836 1.374 . S
C838 C835 1.499 . S
C838 C839 1.373 . S
C838 C840 1.389 . S
C839 H818 0.950 . S
C839 C838 1.373 . S
C839 C855 1.377 . S
C840 C838 1.389 . S
C840 C841 1.524 . S
C840 C854 1.377 . S
C841 C840 1.524 . S
C841 C842 1.397 . S
C841 C846 1.363 . S
C842 H819 0.950 . S
C842 C841 1.397 . S
C842 C843 1.334 . S
C843 H820 0.950 . S
C843 C842 1.334 . S
C843 C844 1.287 . S
C844 C843 1.287 . S
C844 C845 1.524 . S
C844 H863 0.913 . S
C845 H821 0.950 . S
C845 C844 1.524 . S
C845 C846 1.415 . S
C846 H822 0.950 . S
C846 C841 1.363 . S
C846 C845 1.415 . S
C847 H823 0.951 . S
C847 C848 1.366 . S
C847 C849 1.388 . S
C848 C847 1.366 . S
C848 C852 1.385 . S
C849 H824 0.951 . S
C849 C847 1.388 . S
C849 C850 1.366 . S
C850 C849 1.366 . S
C850 C851 1.414 . S
C850 C853 1.499 . S
C851 H825 0.950 . S
C851 C850 1.414 . S
C851 C852 1.374 . S
C852 H826 0.950 . S
C852 C848 1.385 . S
C852 C851 1.374 . S
C853 C850 1.499 . S
C853 C854 1.373 . S
C853 C855 1.389 . S
C854 H827 0.950 . S
C854 C840 1.377 . S
C854 C853 1.373 . S
C855 C839 1.377 . S
C855 C853 1.389 . S
C855 C856 1.524 . S
C856 C855 1.524 . S
C856 C857 1.397 . S
C856 C861 1.363 . S
C857 H828 0.950 . S
C857 C856 1.397 . S
C857 C858 1.334 . S
C858 H829 0.950 . S
C858 C857 1.334 . S
C858 C859 1.287 . S
C859 C858 1.287 . S
C859 C860 1.524 . S
C859 H862 0.999 . S
C860 H830 0.950 . S
C860 C859 1.524 . S
C860 C861 1.415 . S
C861 H831 0.950 . S
C861 C856 1.363 . S
C861 C860 1.415 . S
H862 C859 0.999 . S
H863 C844 0.913 . S
H864 C882 0.951 . S
H865 C884 0.951 . S
H866 C886 0.950 . S
H867 C887 0.950 . S
H868 C889 0.950 . S
H869 C892 0.950 . S
H870 C893 0.950 . S
H871 C895 0.950 . S
H872 C896 0.950 . S
H873 C897 0.951 . S
H874 C899 0.951 . S
H875 C901 0.950 . S
H876 C902 0.950 . S
H877 C904 0.950 . S
H878 C907 0.950 . S
H879 C908 0.950 . S
H880 C910 0.950 . S
H881 C911 0.950 . S
C882 H864 0.951 . S
C882 C883 1.366 . S
C882 C884 1.388 . S
C883 C882 1.366 . S
C883 C887 1.385 . S
C884 H865 0.951 . S
C884 C882 1.388 . S
C884 C885 1.366 . S
C885 C884 1.366 . S
C885 C886 1.414 . S
C885 C888 1.499 . S
C886 H866 0.950 . S
C886 C885 1.414 . S
C886 C887 1.374 . S
C887 H867 0.950 . S
C887 C883 1.385 . S
C887 C886 1.374 . S
C888 C885 1.499 . S
C888 C889 1.373 . S
C888 C890 1.389 . S
C889 H868 0.950 . S
C889 C888 1.373 . S
C889 C905 1.377 . S
C890 C888 1.389 . S
C890 C891 1.524 . S
C890 C904 1.377 . S
C891 C890 1.524 . S
C891 C892 1.397 . S
C891 C896 1.363 . S
C892 H869 0.950 . S
C892 C891 1.397 . S
C892 C893 1.334 . S
C893 H870 0.950 . S
C893 C892 1.334 . S
C893 C894 1.287 . S
C894 C893 1.287 . S
C894 C895 1.524 . S
C894 H913 0.913 . S
C895 H871 0.950 . S
C895 C894 1.524 . S
C895 C896 1.415 . S
C896 H872 0.950 . S
C896 C891 1.363 . S
C896 C895 1.415 . S
C897 H873 0.951 . S
C897 C898 1.366 . S
C897 C899 1.388 . S
C898 C897 1.366 . S
C898 C902 1.385 . S
C899 H874 0.951 . S
C899 C897 1.388 . S
C899 C900 1.366 . S
C900 C899 1.366 . S
C900 C901 1.414 . S
C900 C903 1.499 . S
C901 H875 0.950 . S
C901 C900 1.414 . S
C901 C902 1.374 . S
C902 H876 0.950 . S
C902 C898 1.385 . S
C902 C901 1.374 . S
C903 C900 1.499 . S
C903 C904 1.373 . S
C903 C905 1.389 . S
C904 H877 0.950 . S
C904 C890 1.377 . S
C904 C903 1.373 . S
C905 C889 1.377 . S
C905 C903 1.389 . S
C905 C906 1.524 . S
C906 C905 1.524 . S
C906 C907 1.397 . S
C906 C911 1.363 . S
C907 H878 0.950 . S
C907 C906 1.397 . S
C907 C908 1.334 . S
C908 H879 0.950 . S
C908 C907 1.334 . S
C908 C909 1.287 . S
C909 C908 1.287 . S
C909 C910 1.524 . S
C909 H912 0.999 . S
C910 H880 0.950 . S
C910 C909 1.524 . S
C910 C911 1.415 . S
C911 H881 0.950 . S
C911 C906 1.363 . S
C911 C910 1.415 . S
H912 C909 0.999 . S
H913 C894 0.913 . S
H914 C932 0.951 . S
H915 C934 0.951 . S
H916 C936 0.950 . S
H917 C937 0.950 . S
H918 C939 0.950 . S
H919 C942 0.950 . S
H920 C943 0.950 . S
H921 C945 0.950 . S
H922 C946 0.950 . S
H923 C947 0.951 . S
H924 C949 0.951 . S
H925 C951 0.950 . S
H926 C952 0.950 . S
H927 C954 0.950 . S
H928 C957 0.950 . S
H929 C958 0.950 . S
H930 C960 0.950 . S
H931 C961 0.950 . S
C932 H914 0.951 . S
C932 C933 1.366 . S
C932 C934 1.388 . S
C933 C932 1.366 . S
C933 C937 1.385 . S
C934 H915 0.951 . S
C934 C932 1.388 . S
C934 C935 1.366 . S
C935 C934 1.366 . S
C935 C936 1.414 . S
C935 C938 1.499 . S
C936 H916 0.950 . S
C936 C935 1.414 . S
C936 C937 1.374 . S
C937 H917 0.950 . S
C937 C933 1.385 . S
C937 C936 1.374 . S
C938 C935 1.499 . S
C938 C939 1.373 . S
C938 C940 1.389 . S
C939 H918 0.950 . S
C939 C938 1.373 . S
C939 C955 1.377 . S
C940 C938 1.389 . S
C940 C941 1.524 . S
C940 C954 1.377 . S
C941 C940 1.524 . S
C941 C942 1.397 . S
C941 C946 1.363 . S
C942 H919 0.950 . S
C942 C941 1.397 . S
C942 C943 1.334 . S
C943 H920 0.950 . S
C943 C942 1.334 . S
C943 C944 1.287 . S
C944 C943 1.287 . S
C944 C945 1.524 . S
C944 H963 0.913 . S
C945 H921 0.950 . S
C945 C944 1.524 . S
C945 C946 1.415 . S
C946 H922 0.950 . S
C946 C941 1.363 . S
C946 C945 1.415 . S
C947 H923 0.951 . S
C947 C948 1.366 . S
C947 C949 1.388 . S
C948 C947 1.366 . S
C948 C952 1.385 . S
C949 H924 0.951 . S
C949 C947 1.388 . S
C949 C950 1.366 . S
C950 C949 1.366 . S
C950 C951 1.414 . S
C950 C953 1.499 . S
C951 H925 0.950 . S
C951 C950 1.414 . S
C951 C952 1.374 . S
C952 H926 0.950 . S
C952 C948 1.385 . S
C952 C951 1.374 . S
C953 C950 1.499 . S
C953 C954 1.373 . S
C953 C955 1.389 . S
C954 H927 0.950 . S
C954 C940 1.377 . S
C954 C953 1.373 . S
C955 C939 1.377 . S
C955 C953 1.389 . S
C955 C956 1.524 . S
C956 C955 1.524 . S
C956 C957 1.397 . S
C956 C961 1.363 . S
C957 H928 0.950 . S
C957 C956 1.397 . S
C957 C958 1.334 . S
C958 H929 0.950 . S
C958 C957 1.334 . S
C958 C959 1.287 . S
C959 C958 1.287 . S
C959 C960 1.524 . S
C959 H962 0.999 . S
C960 H930 0.950 . S
C960 C959 1.524 . S
C960 C961 1.415 . S
C961 H931 0.950 . S
C961 C956 1.363 . S
C961 C960 1.415 . S
H962 C959 0.999 . S
H963 C944 0.913 . S
H964 C982 0.951 . S
H965 C984 0.951 . S
H966 C986 0.950 . S
H967 C987 0.950 . S
H968 C989 0.950 . S
H969 C992 0.950 . S
H970 C993 0.950 . S
H971 C995 0.950 . S
H972 C996 0.950 . S
H973 C997 0.951 . S
H974 C999 0.951 . S
H975 C1001 0.950 . S
H976 C1002 0.950 . S
H977 C1004 0.950 . S
H978 C1007 0.950 . S
H979 C1008 0.950 . S
H980 C1010 0.950 . S
H981 C1011 0.950 . S
C982 H964 0.951 . S
C982 C983 1.366 . S
C982 C984 1.388 . S
C983 C982 1.366 . S
C983 C987 1.385 . S
C984 H965 0.951 . S
C984 C982 1.388 . S
C984 C985 1.366 . S
C985 C984 1.366 . S
C985 C986 1.414 . S
C985 C988 1.499 . S
C986 H966 0.950 . S
C986 C985 1.414 . S
C986 C987 1.374 . S
C987 H967 0.950 . S
C987 C983 1.385 . S
C987 C986 1.374 . S
C988 C985 1.499 . S
C988 C989 1.373 . S
C988 C990 1.389 . S
C989 H968 0.950 . S
C989 C988 1.373 . S
C989 C1005 1.377 . S
C990 C988 1.389 . S
C990 C991 1.524 . S
C990 C1004 1.377 . S
C991 C990 1.524 . S
C991 C992 1.397 . S
C991 C996 1.363 . S
C992 H969 0.950 . S
C992 C991 1.397 . S
C992 C993 1.334 . S
C993 H970 0.950 . S
C993 C992 1.334 . S
C993 C994 1.287 . S
C994 C993 1.287 . S
C994 C995 1.524 . S
C994 H1013 0.913 . S
C995 H971 0.950 . S
C995 C994 1.524 . S
C995 C996 1.415 . S
C996 H972 0.950 . S
C996 C991 1.363 . S
C996 C995 1.415 . S
C997 H973 0.951 . S
C997 C998 1.366 . S
C997 C999 1.388 . S
C998 C997 1.366 . S
C998 C1002 1.385 . S
C999 H974 0.951 . S
C999 C997 1.388 . S
C999 C1000 1.366 . S
C1000 C999 1.366 . S
C1000 C1001 1.414 . S
C1000 C1003 1.499 . S
C1001 H975 0.950 . S
C1001 C1000 1.414 . S
C1001 C1002 1.374 . S
C1002 H976 0.950 . S
C1002 C998 1.385 . S
C1002 C1001 1.374 . S
C1003 C1000 1.499 . S
C1003 C1004 1.373 . S
C1003 C1005 1.389 . S
C1004 H977 0.950 . S
C1004 C990 1.377 . S
C1004 C1003 1.373 . S
C1005 C989 1.377 . S
C1005 C1003 1.389 . S
C1005 C1006 1.524 . S
C1006 C1005 1.524 . S
C1006 C1007 1.397 . S
C1006 C1011 1.363 . S
C1007 H978 0.950 . S
C1007 C1006 1.397 . S
C1007 C1008 1.334 . S
C1008 H979 0.950 . S
C1008 C1007 1.334 . S
C1008 C1009 1.287 . S
C1009 C1008 1.287 . S
C1009 C1010 1.524 . S
C1009 H1012 0.999 . S
C1010 H980 0.950 . S
C1010 C1009 1.524 . S
C1010 C1011 1.415 . S
C1011 H981 0.950 . S
C1011 C1006 1.363 . S
C1011 C1010 1.415 . S
H1012 C1009 0.999 . S
H1013 C994 0.913 . S
H1014 C1032 0.951 . S
H1015 C1034 0.951 . S
H1016 C1036 0.950 . S
H1017 C1037 0.950 . S
H1018 C1039 0.950 . S
H1019 C1042 0.950 . S
H1020 C1043 0.950 . S
H1021 C1045 0.950 . S
H1022 C1046 0.950 . S
H1023 C1047 0.951 . S
H1024 C1049 0.951 . S
H1025 C1051 0.950 . S
H1026 C1052 0.950 . S
H1027 C1054 0.950 . S
H1028 C1057 0.950 . S
H1029 C1058 0.950 . S
H1030 C1060 0.936 1_655 S
H1031 C1061 0.950 . S
C1032 H1014 0.951 . S
C1032 C1033 1.366 . S
C1032 C1034 1.388 . S
C1033 C1032 1.366 . S
C1033 C1037 1.385 . S
C1034 H1015 0.951 . S
C1034 C1032 1.388 . S
C1034 C1035 1.366 . S
C1035 C1034 1.366 . S
C1035 C1036 1.414 . S
C1035 C1038 1.499 . S
C1036 H1016 0.950 . S
C1036 C1035 1.414 . S
C1036 C1037 1.374 . S
C1037 H1017 0.950 . S
C1037 C1033 1.385 . S
C1037 C1036 1.374 . S
C1038 C1035 1.499 . S
C1038 C1039 1.373 . S
C1038 C1040 1.389 . S
C1039 H1018 0.950 . S
C1039 C1038 1.373 . S
C1039 C1055 1.377 . S
C1040 C1038 1.389 . S
C1040 C1041 1.524 . S
C1040 C1054 1.377 . S
C1041 C1040 1.524 . S
C1041 C1042 1.397 . S
C1041 C1046 1.363 . S
C1042 H1019 0.950 . S
C1042 C1041 1.397 . S
C1042 C1043 1.334 . S
C1043 H1020 0.950 . S
C1043 C1042 1.334 . S
C1043 C1044 1.287 . S
C1044 C1043 1.287 . S
C1044 C1045 1.524 . S
C1044 H1063 0.913 . S
C1045 H1021 0.950 . S
C1045 C1044 1.524 . S
C1045 C1046 1.415 . S
C1046 H1022 0.950 . S
C1046 C1041 1.363 . S
C1046 C1045 1.415 . S
C1047 H1023 0.951 . S
C1047 C1048 1.366 . S
C1047 C1049 1.388 . S
C1048 C1047 1.366 . S
C1048 C1052 1.385 . S
C1049 H1024 0.951 . S
C1049 C1047 1.388 . S
C1049 C1050 1.366 . S
C1050 C1049 1.366 . S
C1050 C1051 1.414 . S
C1050 C1053 1.499 . S
C1051 H1025 0.950 . S
C1051 C1050 1.414 . S
C1051 C1052 1.374 . S
C1052 H1026 0.950 . S
C1052 C1048 1.385 . S
C1052 C1051 1.374 . S
C1053 C1050 1.499 . S
C1053 C1054 1.373 . S
C1053 C1055 1.389 . S
C1054 H1027 0.950 . S
C1054 C1040 1.377 . S
C1054 C1053 1.373 . S
C1055 C1039 1.377 . S
C1055 C1053 1.389 . S
C1055 C1056 1.524 . S
C1056 C1055 1.524 . S
C1056 C1057 1.397 . S
C1056 C1061 1.363 . S
C1057 H1028 0.950 . S
C1057 C1056 1.397 . S
C1057 C1058 1.334 . S
C1058 H1029 0.950 . S
C1058 C1057 1.334 . S
C1058 C1059 1.287 . S
C1059 C1058 1.287 . S
C1059 C1060 1.524 . S
C1059 H1062 0.999 1_455 S
C1060 H1030 0.936 1_455 S
C1060 C1059 1.524 . S
C1060 C1061 1.415 . S
C1061 H1031 0.950 . S
C1061 C1056 1.363 . S
C1061 C1060 1.415 . S
H1062 C1059 0.999 1_655 S
H1063 C1044 0.913 . S
H1064 C1082 0.951 . S
H1065 C1084 0.951 . S
H1066 C1086 0.950 . S
H1067 C1087 0.950 . S
H1068 C1089 0.950 . S
H1069 C1092 0.950 . S
H1070 C1093 0.950 . S
H1071 C1095 0.950 . S
H1072 C1096 0.950 . S
H1073 C1097 0.951 . S
H1074 C1099 0.951 . S
H1075 C1101 0.950 . S
H1076 C1102 0.950 . S
H1077 C1104 0.950 . S
H1078 C1107 0.950 . S
H1079 C1108 0.950 . S
H1080 C1110 0.950 . S
H1081 C1111 0.950 . S
C1082 H1064 0.951 . S
C1082 C1083 1.366 . S
C1082 C1084 1.388 . S
C1083 C1082 1.366 . S
C1083 C1087 1.385 . S
C1084 H1065 0.951 . S
C1084 C1082 1.388 . S
C1084 C1085 1.366 . S
C1085 C1084 1.366 . S
C1085 C1086 1.414 . S
C1085 C1088 1.499 . S
C1086 H1066 0.950 . S
C1086 C1085 1.414 . S
C1086 C1087 1.374 . S
C1087 H1067 0.950 . S
C1087 C1083 1.385 . S
C1087 C1086 1.374 . S
C1088 C1085 1.499 . S
C1088 C1089 1.373 . S
C1088 C1090 1.389 . S
C1089 H1068 0.950 . S
C1089 C1088 1.373 . S
C1089 C1105 1.377 . S
C1090 C1088 1.389 . S
C1090 C1091 1.524 . S
C1090 C1104 1.377 . S
C1091 C1090 1.524 . S
C1091 C1092 1.397 . S
C1091 C1096 1.363 . S
C1092 H1069 0.950 . S
C1092 C1091 1.397 . S
C1092 C1093 1.334 . S
C1093 H1070 0.950 . S
C1093 C1092 1.334 . S
C1093 C1094 1.287 . S
C1094 C1093 1.287 . S
C1094 C1095 1.524 . S
C1094 H1113 0.914 . S
C1095 H1071 0.950 . S
C1095 C1094 1.524 . S
C1095 C1096 1.415 . S
C1096 H1072 0.950 . S
C1096 C1091 1.363 . S
C1096 C1095 1.415 . S
C1097 H1073 0.951 . S
C1097 C1098 1.366 . S
C1097 C1099 1.388 . S
C1098 C1097 1.366 . S
C1098 C1102 1.385 . S
C1099 H1074 0.951 . S
C1099 C1097 1.388 . S
C1099 C1100 1.366 . S
C1100 C1099 1.366 . S
C1100 C1101 1.414 . S
C1100 C1103 1.499 . S
C1101 H1075 0.950 . S
C1101 C1100 1.414 . S
C1101 C1102 1.374 . S
C1102 H1076 0.950 . S
C1102 C1098 1.385 . S
C1102 C1101 1.374 . S
C1103 C1100 1.499 . S
C1103 C1104 1.373 . S
C1103 C1105 1.389 . S
C1104 H1077 0.950 . S
C1104 C1090 1.377 . S
C1104 C1103 1.373 . S
C1105 C1089 1.377 . S
C1105 C1103 1.389 . S
C1105 C1106 1.524 . S
C1106 C1105 1.524 . S
C1106 C1107 1.397 . S
C1106 C1111 1.363 . S
C1107 H1078 0.950 . S
C1107 C1106 1.397 . S
C1107 C1108 1.334 . S
C1108 H1079 0.950 . S
C1108 C1107 1.334 . S
C1108 C1109 1.287 . S
C1109 C1108 1.287 . S
C1109 C1110 1.524 . S
C1109 H1112 0.999 . S
C1110 H1080 0.950 . S
C1110 C1109 1.524 . S
C1110 C1111 1.415 . S
C1111 H1081 0.950 . S
C1111 C1106 1.363 . S
C1111 C1110 1.415 . S
H1112 C1109 0.999 . S
H1113 C1094 0.914 . S
H1114 C1132 0.951 . S
H1115 C1134 0.951 . S
H1116 C1136 0.950 . S
H1117 C1137 0.950 . S
H1118 C1139 0.950 . S
H1119 C1142 0.950 . S
H1120 C1143 0.950 . S
H1121 C1145 0.950 . S
H1122 C1146 0.950 . S
H1123 C1147 0.955 . S
H1124 C1149 0.951 1_455 S
H1125 C1151 0.950 . S
H1126 C1152 0.950 . S
H1127 C1154 0.950 . S
H1128 C1157 0.950 1_655 S
H1129 C1158 0.950 . S
H1130 C1160 0.950 . S
H1131 C1161 0.950 . S
C1132 H1114 0.951 . S
C1132 C1133 1.366 . S
C1132 C1134 1.388 . S
C1133 C1132 1.366 . S
C1133 C1137 1.385 . S
C1134 H1115 0.951 . S
C1134 C1132 1.388 . S
C1134 C1135 1.366 . S
C1135 C1134 1.366 . S
C1135 C1136 1.414 . S
C1135 C1138 1.499 . S
C1136 H1116 0.950 . S
C1136 C1135 1.414 . S
C1136 C1137 1.374 . S
C1137 H1117 0.950 . S
C1137 C1133 1.385 . S
C1137 C1136 1.374 . S
C1138 C1135 1.499 . S
C1138 C1139 1.373 . S
C1138 C1140 1.389 . S
C1139 H1118 0.950 . S
C1139 C1138 1.373 . S
C1139 C1155 1.377 . S
C1140 C1138 1.389 . S
C1140 C1141 1.524 . S
C1140 C1154 1.377 . S
C1141 C1140 1.524 . S
C1141 C1142 1.397 . S
C1141 C1146 1.363 . S
C1142 H1119 0.950 . S
C1142 C1141 1.397 . S
C1142 C1143 1.334 . S
C1143 H1120 0.950 . S
C1143 C1142 1.334 . S
C1143 C1144 1.287 . S
C1144 C1143 1.287 . S
C1144 C1145 1.524 . S
C1144 H1163 0.913 . S
C1145 H1121 0.950 . S
C1145 C1144 1.524 . S
C1145 C1146 1.415 . S
C1146 H1122 0.950 . S
C1146 C1141 1.363 . S
C1146 C1145 1.415 . S
C1147 H1123 0.955 . S
C1147 C1148 1.364 1_455 S
C1147 C1149 1.386 1_455 S
C1148 C1147 1.364 1_655 S
C1148 C1152 1.385 . S
C1149 H1124 0.951 1_655 S
C1149 C1147 1.386 1_655 S
C1149 C1150 1.366 . S
C1150 C1149 1.366 . S
C1150 C1151 1.414 . S
C1150 C1153 1.499 . S
C1151 H1125 0.950 . S
C1151 C1150 1.414 . S
C1151 C1152 1.374 . S
C1152 H1126 0.950 . S
C1152 C1148 1.385 . S
C1152 C1151 1.374 . S
C1153 C1150 1.499 . S
C1153 C1154 1.373 . S
C1153 C1155 1.389 . S
C1154 H1127 0.950 . S
C1154 C1140 1.377 . S
C1154 C1153 1.373 . S
C1155 C1139 1.377 . S
C1155 C1153 1.389 . S
C1155 C1156 1.524 1_655 S
C1156 C1155 1.524 1_455 S
C1156 C1157 1.397 . S
C1156 C1161 1.363 . S
C1157 H1128 0.950 1_455 S
C1157 C1156 1.397 . S
C1157 C1158 1.334 . S
C1158 H1129 0.950 . S
C1158 C1157 1.334 . S
C1158 C1159 1.287 . S
C1159 C1158 1.287 . S
C1159 C1160 1.524 . S
C1159 H1162 0.999 . S
C1160 H1130 0.950 . S
C1160 C1159 1.524 . S
C1160 C1161 1.415 . S
C1161 H1131 0.950 . S
C1161 C1156 1.363 . S
C1161 C1160 1.415 . S
H1162 C1159 0.999 . S
H1163 C1144 0.913 . S
H1164 C1182 0.951 . S
H1165 C1184 0.951 . S
H1166 C1186 0.950 . S
H1167 C1187 0.950 . S
H1168 C1189 0.950 . S
H1169 C1192 0.950 . S
H1170 C1193 0.950 . S
H1171 C1195 0.950 . S
H1172 C1196 0.950 . S
H1173 C1197 0.951 . S
H1174 C1199 0.951 . S
H1175 C1201 0.950 . S
H1176 C1202 0.950 . S
H1177 C1204 0.950 . S
H1178 C1207 0.950 . S
H1179 C1208 0.950 . S
H1180 C1210 0.950 . S
H1181 C1211 0.950 . S
C1182 H1164 0.951 . S
C1182 C1183 1.366 . S
C1182 C1184 1.388 . S
C1183 C1182 1.366 . S
C1183 C1187 1.385 . S
C1184 H1165 0.951 . S
C1184 C1182 1.388 . S
C1184 C1185 1.366 . S
C1185 C1184 1.366 . S
C1185 C1186 1.414 . S
C1185 C1188 1.499 . S
C1186 H1166 0.950 . S
C1186 C1185 1.414 . S
C1186 C1187 1.374 . S
C1187 H1167 0.950 . S
C1187 C1183 1.385 . S
C1187 C1186 1.374 . S
C1188 C1185 1.499 . S
C1188 C1189 1.373 . S
C1188 C1190 1.389 . S
C1189 H1168 0.950 . S
C1189 C1188 1.373 . S
C1189 C1205 1.377 . S
C1190 C1188 1.389 . S
C1190 C1191 1.524 . S
C1190 C1204 1.377 . S
C1191 C1190 1.524 . S
C1191 C1192 1.397 . S
C1191 C1196 1.363 . S
C1192 H1169 0.950 . S
C1192 C1191 1.397 . S
C1192 C1193 1.334 . S
C1193 H1170 0.950 . S
C1193 C1192 1.334 . S
C1193 C1194 1.287 . S
C1194 C1193 1.287 . S
C1194 C1195 1.524 . S
C1194 H1213 0.913 . S
C1195 H1171 0.950 . S
C1195 C1194 1.524 . S
C1195 C1196 1.415 . S
C1196 H1172 0.950 . S
C1196 C1191 1.363 . S
C1196 C1195 1.415 . S
C1197 H1173 0.951 . S
C1197 C1198 1.366 . S
C1197 C1199 1.388 . S
C1198 C1197 1.366 . S
C1198 C1202 1.385 . S
C1199 H1174 0.951 . S
C1199 C1197 1.388 . S
C1199 C1200 1.366 . S
C1200 C1199 1.366 . S
C1200 C1201 1.414 . S
C1200 C1203 1.499 . S
C1201 H1175 0.950 . S
C1201 C1200 1.414 . S
C1201 C1202 1.374 . S
C1202 H1176 0.950 . S
C1202 C1198 1.385 . S
C1202 C1201 1.374 . S
C1203 C1200 1.499 . S
C1203 C1204 1.373 . S
C1203 C1205 1.389 . S
C1204 H1177 0.950 . S
C1204 C1190 1.377 . S
C1204 C1203 1.373 . S
C1205 C1189 1.377 . S
C1205 C1203 1.389 . S
C1205 C1206 1.524 . S
C1206 C1205 1.524 . S
C1206 C1207 1.397 . S
C1206 C1211 1.363 . S
C1207 H1178 0.950 . S
C1207 C1206 1.397 . S
C1207 C1208 1.334 . S
C1208 H1179 0.950 . S
C1208 C1207 1.334 . S
C1208 C1209 1.287 . S
C1209 C1208 1.287 . S
C1209 C1210 1.524 . S
C1209 H1212 0.999 . S
C1210 H1180 0.950 . S
C1210 C1209 1.524 . S
C1210 C1211 1.415 . S
C1211 H1181 0.950 . S
C1211 C1206 1.363 . S
C1211 C1210 1.415 . S
H1212 C1209 0.999 . S
H1213 C1194 0.913 . S
H1214 C1232 0.951 . S
H1215 C1234 0.951 . S
H1216 C1236 0.950 . S
H1217 C1237 0.950 . S
H1218 C1239 0.950 . S
H1219 C1242 0.950 . S
H1220 C1243 0.950 . S
H1221 C1245 0.950 . S
H1222 C1246 0.950 . S
H1223 C1247 0.951 . S
H1224 C1249 0.951 . S
H1225 C1251 0.950 . S
H1226 C1252 0.950 . S
H1227 C1254 0.950 . S
H1228 C1257 0.950 . S
H1229 C1258 0.950 . S
H1230 C1260 0.950 . S
H1231 C1261 0.950 . S
C1232 H1214 0.951 . S
C1232 C1233 1.366 . S
C1232 C1234 1.388 . S
C1233 C1232 1.366 . S
C1233 C1237 1.385 . S
C1234 H1215 0.951 . S
C1234 C1232 1.388 . S
C1234 C1235 1.366 . S
C1235 C1234 1.366 . S
C1235 C1236 1.414 . S
C1235 C1238 1.499 . S
C1236 H1216 0.950 . S
C1236 C1235 1.414 . S
C1236 C1237 1.374 . S
C1237 H1217 0.950 . S
C1237 C1233 1.385 . S
C1237 C1236 1.374 . S
C1238 C1235 1.499 . S
C1238 C1239 1.373 . S
C1238 C1240 1.389 . S
C1239 H1218 0.950 . S
C1239 C1238 1.373 . S
C1239 C1255 1.377 . S
C1240 C1238 1.389 . S
C1240 C1241 1.524 . S
C1240 C1254 1.377 . S
C1241 C1240 1.524 . S
C1241 C1242 1.397 . S
C1241 C1246 1.363 . S
C1242 H1219 0.950 . S
C1242 C1241 1.397 . S
C1242 C1243 1.334 . S
C1243 H1220 0.950 . S
C1243 C1242 1.334 . S
C1243 C1244 1.287 . S
C1244 C1243 1.287 . S
C1244 C1245 1.524 . S
C1244 H1263 0.913 . S
C1245 H1221 0.950 . S
C1245 C1244 1.524 . S
C1245 C1246 1.415 . S
C1246 H1222 0.950 . S
C1246 C1241 1.363 . S
C1246 C1245 1.415 . S
C1247 H1223 0.951 . S
C1247 C1248 1.366 . S
C1247 C1249 1.388 . S
C1248 C1247 1.366 . S
C1248 C1252 1.385 . S
C1249 H1224 0.951 . S
C1249 C1247 1.388 . S
C1249 C1250 1.366 . S
C1250 C1249 1.366 . S
C1250 C1251 1.414 . S
C1250 C1253 1.499 . S
C1251 H1225 0.950 . S
C1251 C1250 1.414 . S
C1251 C1252 1.374 . S
C1252 H1226 0.950 . S
C1252 C1248 1.385 . S
C1252 C1251 1.374 . S
C1253 C1250 1.499 . S
C1253 C1254 1.373 . S
C1253 C1255 1.389 . S
C1254 H1227 0.950 . S
C1254 C1240 1.377 . S
C1254 C1253 1.373 . S
C1255 C1239 1.377 . S
C1255 C1253 1.389 . S
C1255 C1256 1.524 . S
C1256 C1255 1.524 . S
C1256 C1257 1.397 . S
C1256 C1261 1.363 . S
C1257 H1228 0.950 . S
C1257 C1256 1.397 . S
C1257 C1258 1.334 . S
C1258 H1229 0.950 . S
C1258 C1257 1.334 . S
C1258 C1259 1.287 . S
C1259 C1258 1.287 . S
C1259 C1260 1.524 . S
C1259 H1262 0.999 . S
C1260 H1230 0.950 . S
C1260 C1259 1.524 . S
C1260 C1261 1.415 . S
C1261 H1231 0.950 . S
C1261 C1256 1.363 . S
C1261 C1260 1.415 . S
H1262 C1259 0.999 . S
H1263 C1244 0.913 . S
H1264 C1282 0.951 . S
H1265 C1284 0.951 . S
H1266 C1286 0.950 . S
H1267 C1287 0.950 . S
H1268 C1289 0.950 . S
H1269 C1292 0.950 . S
H1270 C1293 0.950 . S
H1271 C1295 0.950 . S
H1272 C1296 0.950 . S
H1273 C1297 0.951 . S
H1274 C1299 0.951 1_554 S
H1275 C1301 0.950 . S
H1276 C1302 0.950 . S
H1277 C1304 0.950 . S
H1278 C1307 0.950 . S
H1279 C1308 0.950 . S
H1280 C1310 0.950 . S
H1281 C1311 0.950 1_554 S
C1282 H1264 0.951 . S
C1282 C1283 1.366 . S
C1282 C1284 1.388 . S
C1283 C1282 1.366 . S
C1283 C1287 1.385 . S
C1284 H1265 0.951 . S
C1284 C1282 1.388 . S
C1284 C1285 1.366 . S
C1285 C1284 1.366 . S
C1285 C1286 1.414 . S
C1285 C1288 1.499 . S
C1286 H1266 0.950 . S
C1286 C1285 1.414 . S
C1286 C1287 1.374 . S
C1287 H1267 0.950 . S
C1287 C1283 1.385 . S
C1287 C1286 1.374 . S
C1288 C1285 1.499 . S
C1288 C1289 1.373 . S
C1288 C1290 1.389 . S
C1289 H1268 0.950 . S
C1289 C1288 1.373 . S
C1289 C1305 1.377 . S
C1290 C1288 1.389 . S
C1290 C1291 1.524 . S
C1290 C1304 1.377 . S
C1291 C1290 1.524 . S
C1291 C1292 1.397 . S
C1291 C1296 1.363 . S
C1292 H1269 0.950 . S
C1292 C1291 1.397 . S
C1292 C1293 1.334 . S
C1293 H1270 0.950 . S
C1293 C1292 1.334 . S
C1293 C1294 1.287 . S
C1294 C1293 1.287 . S
C1294 C1295 1.524 . S
C1294 H1313 0.913 . S
C1295 H1271 0.950 . S
C1295 C1294 1.524 . S
C1295 C1296 1.415 . S
C1296 H1272 0.950 . S
C1296 C1291 1.363 . S
C1296 C1295 1.415 . S
C1297 H1273 0.951 . S
C1297 C1298 1.366 1_554 S
C1297 C1299 1.388 1_554 S
C1298 C1297 1.366 1_556 S
C1298 C1302 1.385 . S
C1299 H1274 0.951 1_556 S
C1299 C1297 1.388 1_556 S
C1299 C1300 1.366 . S
C1300 C1299 1.366 . S
C1300 C1301 1.414 . S
C1300 C1303 1.499 . S
C1301 H1275 0.950 . S
C1301 C1300 1.414 . S
C1301 C1302 1.374 . S
C1302 H1276 0.950 . S
C1302 C1298 1.385 . S
C1302 C1301 1.374 . S
C1303 C1300 1.499 . S
C1303 C1304 1.373 . S
C1303 C1305 1.389 . S
C1304 H1277 0.950 . S
C1304 C1290 1.377 . S
C1304 C1303 1.373 . S
C1305 C1289 1.377 . S
C1305 C1303 1.389 . S
C1305 C1306 1.524 . S
C1306 C1305 1.524 . S
C1306 C1307 1.397 . S
C1306 C1311 1.363 . S
C1307 H1278 0.950 . S
C1307 C1306 1.397 . S
C1307 C1308 1.334 . S
C1308 H1279 0.950 . S
C1308 C1307 1.334 . S
C1308 C1309 1.287 1_556 S
C1309 C1308 1.287 1_554 S
C1309 C1310 1.524 . S
C1309 H1312 0.999 . S
C1310 H1280 0.950 . S
C1310 C1309 1.524 . S
C1310 C1311 1.415 1_554 S
C1311 H1281 0.950 1_556 S
C1311 C1306 1.363 . S
C1311 C1310 1.415 1_556 S
H1312 C1309 0.999 . S
H1313 C1294 0.913 . S
H1314 C1332 0.951 . S
H1315 C1334 0.951 . S
H1316 C1336 0.950 . S
H1317 C1337 0.950 . S
H1318 C1339 0.950 . S
H1319 C1342 0.950 . S
H1320 C1343 0.950 . S
H1321 C1345 0.950 . S
H1322 C1346 0.950 . S
H1323 C1347 0.951 . S
H1324 C1349 0.951 . S
H1325 C1351 0.950 . S
H1326 C1352 0.950 . S
H1327 C1354 0.950 . S
H1328 C1357 0.950 . S
H1329 C1358 0.950 . S
H1330 C1360 0.950 . S
H1331 C1361 0.950 . S
C1332 H1314 0.951 . S
C1332 C1333 1.366 . S
C1332 C1334 1.388 . S
C1333 C1332 1.366 . S
C1333 C1337 1.385 . S
C1334 H1315 0.951 . S
C1334 C1332 1.388 . S
C1334 C1335 1.366 . S
C1335 C1334 1.366 . S
C1335 C1336 1.414 . S
C1335 C1338 1.499 . S
C1336 H1316 0.950 . S
C1336 C1335 1.414 . S
C1336 C1337 1.374 . S
C1337 H1317 0.950 . S
C1337 C1333 1.385 . S
C1337 C1336 1.374 . S
C1338 C1335 1.499 . S
C1338 C1339 1.373 . S
C1338 C1340 1.389 . S
C1339 H1318 0.950 . S
C1339 C1338 1.373 . S
C1339 C1355 1.377 . S
C1340 C1338 1.389 . S
C1340 C1341 1.524 . S
C1340 C1354 1.377 . S
C1341 C1340 1.524 . S
C1341 C1342 1.397 . S
C1341 C1346 1.363 . S
C1342 H1319 0.950 . S
C1342 C1341 1.397 . S
C1342 C1343 1.334 . S
C1343 H1320 0.950 . S
C1343 C1342 1.334 . S
C1343 C1344 1.287 . S
C1344 C1343 1.287 . S
C1344 C1345 1.524 . S
C1344 H1363 0.913 . S
C1345 H1321 0.950 . S
C1345 C1344 1.524 . S
C1345 C1346 1.415 . S
C1346 H1322 0.950 . S
C1346 C1341 1.363 . S
C1346 C1345 1.415 . S
C1347 H1323 0.951 . S
C1347 C1348 1.366 . S
C1347 C1349 1.388 . S
C1348 C1347 1.366 . S
C1348 C1352 1.385 . S
C1349 H1324 0.951 . S
C1349 C1347 1.388 . S
C1349 C1350 1.366 . S
C1350 C1349 1.366 . S
C1350 C1351 1.414 . S
C1350 C1353 1.499 . S
C1351 H1325 0.950 . S
C1351 C1350 1.414 . S
C1351 C1352 1.374 . S
C1352 H1326 0.950 . S
C1352 C1348 1.385 . S
C1352 C1351 1.374 . S
C1353 C1350 1.499 . S
C1353 C1354 1.373 . S
C1353 C1355 1.389 . S
C1354 H1327 0.950 . S
C1354 C1340 1.377 . S
C1354 C1353 1.373 . S
C1355 C1339 1.377 . S
C1355 C1353 1.389 . S
C1355 C1356 1.524 . S
C1356 C1355 1.524 . S
C1356 C1357 1.397 . S
C1356 C1361 1.363 . S
C1357 H1328 0.950 . S
C1357 C1356 1.397 . S
C1357 C1358 1.334 . S
C1358 H1329 0.950 . S
C1358 C1357 1.334 . S
C1358 C1359 1.287 . S
C1359 C1358 1.287 . S
C1359 C1360 1.524 . S
C1359 H1362 0.999 . S
C1360 H1330 0.950 . S
C1360 C1359 1.524 . S
C1360 C1361 1.415 . S
C1361 H1331 0.950 . S
C1361 C1356 1.363 . S
C1361 C1360 1.415 . S
H1362 C1359 0.999 . S
H1363 C1344 0.913 . S
H1364 C1382 0.951 . S
H1365 C1384 0.951 . S
H1366 C1386 0.950 . S
H1367 C1387 0.950 . S
H1368 C1389 0.950 . S
H1369 C1392 0.950 . S
H1370 C1393 0.950 . S
H1371 C1395 0.950 . S
H1372 C1396 0.950 . S
H1373 C1397 0.951 . S
H1374 C1399 0.951 . S
H1375 C1401 0.950 . S
H1376 C1402 0.950 . S
H1377 C1404 0.950 . S
H1378 C1407 0.950 . S
H1379 C1408 0.950 . S
H1380 C1410 0.950 . S
H1381 C1411 0.950 . S
C1382 H1364 0.951 . S
C1382 C1383 1.366 . S
C1382 C1384 1.388 . S
C1383 C1382 1.366 . S
C1383 C1387 1.385 . S
C1384 H1365 0.951 . S
C1384 C1382 1.388 . S
C1384 C1385 1.366 . S
C1385 C1384 1.366 . S
C1385 C1386 1.414 . S
C1385 C1388 1.499 . S
C1386 H1366 0.950 . S
C1386 C1385 1.414 . S
C1386 C1387 1.374 . S
C1387 H1367 0.950 . S
C1387 C1383 1.385 . S
C1387 C1386 1.374 . S
C1388 C1385 1.499 . S
C1388 C1389 1.373 . S
C1388 C1390 1.389 . S
C1389 H1368 0.950 . S
C1389 C1388 1.373 . S
C1389 C1405 1.377 . S
C1390 C1388 1.389 . S
C1390 C1391 1.524 . S
C1390 C1404 1.377 . S
C1391 C1390 1.524 . S
C1391 C1392 1.397 . S
C1391 C1396 1.363 . S
C1392 H1369 0.950 . S
C1392 C1391 1.397 . S
C1392 C1393 1.334 . S
C1393 H1370 0.950 . S
C1393 C1392 1.334 . S
C1393 C1394 1.287 . S
C1394 C1393 1.287 . S
C1394 C1395 1.524 . S
C1394 H1413 0.913 . S
C1395 H1371 0.950 . S
C1395 C1394 1.524 . S
C1395 C1396 1.415 . S
C1396 H1372 0.950 . S
C1396 C1391 1.363 . S
C1396 C1395 1.415 . S
C1397 H1373 0.951 . S
C1397 C1398 1.366 . S
C1397 C1399 1.388 . S
C1398 C1397 1.366 . S
C1398 C1402 1.385 . S
C1399 H1374 0.951 . S
C1399 C1397 1.388 . S
C1399 C1400 1.366 . S
C1400 C1399 1.366 . S
C1400 C1401 1.414 . S
C1400 C1403 1.499 . S
C1401 H1375 0.950 . S
C1401 C1400 1.414 . S
C1401 C1402 1.374 . S
C1402 H1376 0.950 . S
C1402 C1398 1.385 . S
C1402 C1401 1.374 . S
C1403 C1400 1.499 . S
C1403 C1404 1.373 . S
C1403 C1405 1.389 . S
C1404 H1377 0.950 . S
C1404 C1390 1.377 . S
C1404 C1403 1.373 . S
C1405 C1389 1.377 . S
C1405 C1403 1.389 . S
C1405 C1406 1.524 . S
C1406 C1405 1.524 . S
C1406 C1407 1.397 . S
C1406 C1411 1.363 . S
C1407 H1378 0.950 . S
C1407 C1406 1.397 . S
C1407 C1408 1.334 . S
C1408 H1379 0.950 . S
C1408 C1407 1.334 . S
C1408 C1409 1.287 . S
C1409 C1408 1.287 . S
C1409 C1410 1.524 . S
C1409 H1412 0.999 . S
C1410 H1380 0.950 . S
C1410 C1409 1.524 . S
C1410 C1411 1.415 . S
C1411 H1381 0.950 . S
C1411 C1406 1.363 . S
C1411 C1410 1.415 . S
H1412 C1409 0.999 . S
H1413 C1394 0.913 . S
H1414 C1432 0.951 . S
H1415 C1434 0.951 . S
H1416 C1436 0.950 . S
H1417 C1437 0.950 . S
H1418 C1439 0.950 . S
H1419 C1442 0.950 . S
H1420 C1443 0.950 . S
H1421 C1445 0.950 . S
H1422 C1446 0.950 . S
H1423 C1447 0.951 . S
H1424 C1449 0.951 . S
H1425 C1451 0.950 . S
H1426 C1452 0.950 . S
H1427 C1454 0.950 . S
H1428 C1457 0.950 . S
H1429 C1458 0.950 . S
H1430 C1460 0.950 . S
H1431 C1461 0.950 . S
C1432 H1414 0.951 . S
C1432 C1433 1.366 . S
C1432 C1434 1.388 . S
C1433 C1432 1.366 . S
C1433 C1437 1.385 . S
C1434 H1415 0.951 . S
C1434 C1432 1.388 . S
C1434 C1435 1.366 . S
C1435 C1434 1.366 . S
C1435 C1436 1.414 . S
C1435 C1438 1.499 . S
C1436 H1416 0.950 . S
C1436 C1435 1.414 . S
C1436 C1437 1.374 . S
C1437 H1417 0.950 . S
C1437 C1433 1.385 . S
C1437 C1436 1.374 . S
C1438 C1435 1.499 . S
C1438 C1439 1.373 . S
C1438 C1440 1.389 . S
C1439 H1418 0.950 . S
C1439 C1438 1.373 . S
C1439 C1455 1.377 . S
C1440 C1438 1.389 . S
C1440 C1441 1.524 . S
C1440 C1454 1.377 . S
C1441 C1440 1.524 . S
C1441 C1442 1.397 . S
C1441 C1446 1.363 . S
C1442 H1419 0.950 . S
C1442 C1441 1.397 . S
C1442 C1443 1.334 . S
C1443 H1420 0.950 . S
C1443 C1442 1.334 . S
C1443 C1444 1.287 . S
C1444 C1443 1.287 . S
C1444 C1445 1.524 . S
C1444 H1463 0.913 . S
C1445 H1421 0.950 . S
C1445 C1444 1.524 . S
C1445 C1446 1.415 . S
C1446 H1422 0.950 . S
C1446 C1441 1.363 . S
C1446 C1445 1.415 . S
C1447 H1423 0.951 . S
C1447 C1448 1.366 . S
C1447 C1449 1.388 . S
C1448 C1447 1.366 . S
C1448 C1452 1.385 . S
C1449 H1424 0.951 . S
C1449 C1447 1.388 . S
C1449 C1450 1.366 . S
C1450 C1449 1.366 . S
C1450 C1451 1.414 . S
C1450 C1453 1.499 . S
C1451 H1425 0.950 . S
C1451 C1450 1.414 . S
C1451 C1452 1.374 . S
C1452 H1426 0.950 . S
C1452 C1448 1.385 . S
C1452 C1451 1.374 . S
C1453 C1450 1.499 . S
C1453 C1454 1.373 . S
C1453 C1455 1.389 . S
C1454 H1427 0.950 . S
C1454 C1440 1.377 . S
C1454 C1453 1.373 . S
C1455 C1439 1.377 . S
C1455 C1453 1.389 . S
C1455 C1456 1.524 . S
C1456 C1455 1.524 . S
C1456 C1457 1.397 . S
C1456 C1461 1.363 . S
C1457 H1428 0.950 . S
C1457 C1456 1.397 . S
C1457 C1458 1.334 . S
C1458 H1429 0.950 . S
C1458 C1457 1.334 . S
C1458 C1459 1.287 . S
C1459 C1458 1.287 . S
C1459 C1460 1.524 . S
C1459 H1462 0.999 . S
C1460 H1430 0.950 . S
C1460 C1459 1.524 . S
C1460 C1461 1.415 . S
C1461 H1431 0.950 . S
C1461 C1456 1.363 . S
C1461 C1460 1.415 . S
H1462 C1459 0.999 . S
H1463 C1444 0.913 . S
C283 C9 1.698 . S
C298 C119 1.717 . S
C333 C21 0.966 . S
C348 C159 0.981 . S
C398 C193 1.852 . S
C383 C30 1.816 . S
C433 C43 2.341 . S
C448 C234 2.366 . S
C498 C154 1.327 . S
C483 C4 1.226 . S
C548 C114 2.662 . S
C533 C22 2.596 . S
C598 C242 1.129 . S
C583 C34 1.128 . S
C648 C203 1.532 . S
C633 C48 1.566 . S
C683 C8 1.258 . S
C698 C239 1.271 . S
C748 C162 1.864 . S
C733 C35 1.893 . S
C783 C47 2.590 . S
C798 C122 2.487 . S
C833 C17 1.336 . S
C848 C190 1.394 . S
C898 C110 1.149 . S
C883 C60 1.145 . S
C933 C74 1.128 . S
C948 C150 1.149 . S
C983 C82 1.465 . S
C998 C202 1.524 . S
C1033 C100 3.012 . S
C1048 C243 2.953 1_556 S
C1083 C61 1.804 . S
C1098 C163 1.837 . S
C1148 C123 2.018 . S
C1133 C73 1.955 . S
C1198 C233 1.667 . S
C1183 C87 1.713 . S
C1248 C194 1.469 . S
C1233 C95 1.525 . S
C1283 C56 1.100 . S
C1298 C230 1.098 . S
C1348 C153 2.099 . S
C1333 C86 2.145 . S
C1398 C113 2.417 . S
C1383 C99 2.480 . S
C1433 C69 1.190 . S
C1448 C199 1.312 . S
