# Generated by pormake.
# Topology ptr, (4,4)-cn, num edge types: 1
# Building blocks:
#     Node 0, Type 0, BuildingBlock: GALJAG_clean_sbu_0, # of connection points: 4
#     Node 1, Type 0, BuildingBlock: GALJAG_clean_sbu_0, # of connection points: 4
#     Node 2, Type 0, BuildingBlock: GALJAG_clean_sbu_0, # of connection points: 4
#     Node 3, Type 0, BuildingBlock: GALJAG_clean_sbu_0, # of connection points: 4
#     Node 4, Type 0, BuildingBlock: GALJAG_clean_sbu_0, # of connection points: 4
#     Node 5, Type 0, BuildingBlock: GALJAG_clean_sbu_0, # of connection points: 4
#     Node 6, Type 0, BuildingBlock: GALJAG_clean_sbu_0, # of connection points: 4
#     Node 7, Type 0, BuildingBlock: GALJAG_clean_sbu_0, # of connection points: 4
#     Node 8, Type 0, BuildingBlock: GALJAG_clean_sbu_0, # of connection points: 4
#     Node 9, Type 0, BuildingBlock: GALJAG_clean_sbu_0, # of connection points: 4
#     Node 10, Type 0, BuildingBlock: GALJAG_clean_sbu_0, # of connection points: 4
#     Node 11, Type 0, BuildingBlock: GALJAG_clean_sbu_0, # of connection points: 4
#     Node 12, Type 0, BuildingBlock: GALJAG_clean_sbu_0, # of connection points: 4
#     Node 13, Type 0, BuildingBlock: GALJAG_clean_sbu_0, # of connection points: 4
#     Node 14, Type 0, BuildingBlock: GALJAG_clean_sbu_0, # of connection points: 4
#     Node 15, Type 0, BuildingBlock: GALJAG_clean_sbu_0, # of connection points: 4
#     Node 16, Type 0, BuildingBlock: GALJAG_clean_sbu_0, # of connection points: 4
#     Node 17, Type 0, BuildingBlock: GALJAG_clean_sbu_0, # of connection points: 4
#     Node 18, Type 1, BuildingBlock: MUDLON_clean_linker_0, # of connection points: 4
#     Node 19, Type 1, BuildingBlock: MUDLON_clean_linker_0, # of connection points: 4
#     Node 20, Type 1, BuildingBlock: MUDLON_clean_linker_0, # of connection points: 4
#     Node 21, Type 1, BuildingBlock: MUDLON_clean_linker_0, # of connection points: 4
#     Node 22, Type 1, BuildingBlock: MUDLON_clean_linker_0, # of connection points: 4
#     Node 23, Type 1, BuildingBlock: MUDLON_clean_linker_0, # of connection points: 4
#     Node 24, Type 1, BuildingBlock: MUDLON_clean_linker_0, # of connection points: 4
#     Node 25, Type 1, BuildingBlock: MUDLON_clean_linker_0, # of connection points: 4
#     Node 26, Type 1, BuildingBlock: MUDLON_clean_linker_0, # of connection points: 4
#     Node 27, Type 1, BuildingBlock: MUDLON_clean_linker_0, # of connection points: 4
#     Node 28, Type 1, BuildingBlock: MUDLON_clean_linker_0, # of connection points: 4
#     Node 29, Type 1, BuildingBlock: MUDLON_clean_linker_0, # of connection points: 4
#     Node 30, Type 1, BuildingBlock: MUDLON_clean_linker_0, # of connection points: 4
#     Node 31, Type 1, BuildingBlock: MUDLON_clean_linker_0, # of connection points: 4
#     Node 32, Type 1, BuildingBlock: MUDLON_clean_linker_0, # of connection points: 4
#     Node 33, Type 1, BuildingBlock: MUDLON_clean_linker_0, # of connection points: 4
#     Node 34, Type 1, BuildingBlock: MUDLON_clean_linker_0, # of connection points: 4
#     Node 35, Type 1, BuildingBlock: MUDLON_clean_linker_0, # of connection points: 4
#     Edge 36, Type (0, 1), BuildingBlock: CIFDUS_clean_linker_0, # of connection points: 2
#     Edge 37, Type (0, 1), BuildingBlock: CIFDUS_clean_linker_0, # of connection points: 2
#     Edge 38, Type (0, 1), BuildingBlock: CIFDUS_clean_linker_0, # of connection points: 2
#     Edge 39, Type (0, 1), BuildingBlock: CIFDUS_clean_linker_0, # of connection points: 2
#     Edge 40, Type (0, 1), BuildingBlock: CIFDUS_clean_linker_0, # of connection points: 2
#     Edge 41, Type (0, 1), BuildingBlock: CIFDUS_clean_linker_0, # of connection points: 2
#     Edge 42, Type (0, 1), BuildingBlock: CIFDUS_clean_linker_0, # of connection points: 2
#     Edge 43, Type (0, 1), BuildingBlock: CIFDUS_clean_linker_0, # of connection points: 2
#     Edge 44, Type (0, 1), BuildingBlock: CIFDUS_clean_linker_0, # of connection points: 2
#     Edge 45, Type (0, 1), BuildingBlock: CIFDUS_clean_linker_0, # of connection points: 2
#     Edge 46, Type (0, 1), BuildingBlock: CIFDUS_clean_linker_0, # of connection points: 2
#     Edge 47, Type (0, 1), BuildingBlock: CIFDUS_clean_linker_0, # of connection points: 2
#     Edge 48, Type (0, 1), BuildingBlock: CIFDUS_clean_linker_0, # of connection points: 2
#     Edge 49, Type (0, 1), BuildingBlock: CIFDUS_clean_linker_0, # of connection points: 2
#     Edge 50, Type (0, 1), BuildingBlock: CIFDUS_clean_linker_0, # of connection points: 2
#     Edge 51, Type (0, 1), BuildingBlock: CIFDUS_clean_linker_0, # of connection points: 2
#     Edge 52, Type (0, 1), BuildingBlock: CIFDUS_clean_linker_0, # of connection points: 2
#     Edge 53, Type (0, 1), BuildingBlock: CIFDUS_clean_linker_0, # of connection points: 2
#     Edge 54, Type (0, 1), BuildingBlock: CIFDUS_clean_linker_0, # of connection points: 2
#     Edge 55, Type (0, 1), BuildingBlock: CIFDUS_clean_linker_0, # of connection points: 2
#     Edge 56, Type (0, 1), BuildingBlock: CIFDUS_clean_linker_0, # of connection points: 2
#     Edge 57, Type (0, 1), BuildingBlock: CIFDUS_clean_linker_0, # of connection points: 2
#     Edge 58, Type (0, 1), BuildingBlock: CIFDUS_clean_linker_0, # of connection points: 2
#     Edge 59, Type (0, 1), BuildingBlock: CIFDUS_clean_linker_0, # of connection points: 2
#     Edge 60, Type (0, 1), BuildingBlock: CIFDUS_clean_linker_0, # of connection points: 2
#     Edge 61, Type (0, 1), BuildingBlock: CIFDUS_clean_linker_0, # of connection points: 2
#     Edge 62, Type (0, 1), BuildingBlock: CIFDUS_clean_linker_0, # of connection points: 2
#     Edge 63, Type (0, 1), BuildingBlock: CIFDUS_clean_linker_0, # of connection points: 2
#     Edge 64, Type (0, 1), BuildingBlock: CIFDUS_clean_linker_0, # of connection points: 2
#     Edge 65, Type (0, 1), BuildingBlock: CIFDUS_clean_linker_0, # of connection points: 2
#     Edge 66, Type (0, 1), BuildingBlock: CIFDUS_clean_linker_0, # of connection points: 2
#     Edge 67, Type (0, 1), BuildingBlock: CIFDUS_clean_linker_0, # of connection points: 2
#     Edge 68, Type (0, 1), BuildingBlock: CIFDUS_clean_linker_0, # of connection points: 2
#     Edge 69, Type (0, 1), BuildingBlock: CIFDUS_clean_linker_0, # of connection points: 2
#     Edge 70, Type (0, 1), BuildingBlock: CIFDUS_clean_linker_0, # of connection points: 2
#     Edge 71, Type (0, 1), BuildingBlock: CIFDUS_clean_linker_0, # of connection points: 2
#     Edge 72, Type (0, 1), BuildingBlock: CIFDUS_clean_linker_0, # of connection points: 2
#     Edge 73, Type (0, 1), BuildingBlock: CIFDUS_clean_linker_0, # of connection points: 2
#     Edge 74, Type (0, 1), BuildingBlock: CIFDUS_clean_linker_0, # of connection points: 2
#     Edge 75, Type (0, 1), BuildingBlock: CIFDUS_clean_linker_0, # of connection points: 2
#     Edge 76, Type (0, 1), BuildingBlock: CIFDUS_clean_linker_0, # of connection points: 2
#     Edge 77, Type (0, 1), BuildingBlock: CIFDUS_clean_linker_0, # of connection points: 2
#     Edge 78, Type (0, 1), BuildingBlock: CIFDUS_clean_linker_0, # of connection points: 2
#     Edge 79, Type (0, 1), BuildingBlock: CIFDUS_clean_linker_0, # of connection points: 2
#     Edge 80, Type (0, 1), BuildingBlock: CIFDUS_clean_linker_0, # of connection points: 2
#     Edge 81, Type (0, 1), BuildingBlock: CIFDUS_clean_linker_0, # of connection points: 2
#     Edge 82, Type (0, 1), BuildingBlock: CIFDUS_clean_linker_0, # of connection points: 2
#     Edge 83, Type (0, 1), BuildingBlock: CIFDUS_clean_linker_0, # of connection points: 2
#     Edge 84, Type (0, 1), BuildingBlock: CIFDUS_clean_linker_0, # of connection points: 2
#     Edge 85, Type (0, 1), BuildingBlock: CIFDUS_clean_linker_0, # of connection points: 2
#     Edge 86, Type (0, 1), BuildingBlock: CIFDUS_clean_linker_0, # of connection points: 2
#     Edge 87, Type (0, 1), BuildingBlock: CIFDUS_clean_linker_0, # of connection points: 2
#     Edge 88, Type (0, 1), BuildingBlock: CIFDUS_clean_linker_0, # of connection points: 2
#     Edge 89, Type (0, 1), BuildingBlock: CIFDUS_clean_linker_0, # of connection points: 2
#     Edge 90, Type (0, 1), BuildingBlock: CIFDUS_clean_linker_0, # of connection points: 2
#     Edge 91, Type (0, 1), BuildingBlock: CIFDUS_clean_linker_0, # of connection points: 2
#     Edge 92, Type (0, 1), BuildingBlock: CIFDUS_clean_linker_0, # of connection points: 2
#     Edge 93, Type (0, 1), BuildingBlock: CIFDUS_clean_linker_0, # of connection points: 2
#     Edge 94, Type (0, 1), BuildingBlock: CIFDUS_clean_linker_0, # of connection points: 2
#     Edge 95, Type (0, 1), BuildingBlock: CIFDUS_clean_linker_0, # of connection points: 2
#     Edge 96, Type (0, 1), BuildingBlock: CIFDUS_clean_linker_0, # of connection points: 2
#     Edge 97, Type (0, 1), BuildingBlock: CIFDUS_clean_linker_0, # of connection points: 2
#     Edge 98, Type (0, 1), BuildingBlock: CIFDUS_clean_linker_0, # of connection points: 2
#     Edge 99, Type (0, 1), BuildingBlock: CIFDUS_clean_linker_0, # of connection points: 2
#     Edge 100, Type (0, 1), BuildingBlock: CIFDUS_clean_linker_0, # of connection points: 2
#     Edge 101, Type (0, 1), BuildingBlock: CIFDUS_clean_linker_0, # of connection points: 2
#     Edge 102, Type (0, 1), BuildingBlock: CIFDUS_clean_linker_0, # of connection points: 2
#     Edge 103, Type (0, 1), BuildingBlock: CIFDUS_clean_linker_0, # of connection points: 2
#     Edge 104, Type (0, 1), BuildingBlock: CIFDUS_clean_linker_0, # of connection points: 2
#     Edge 105, Type (0, 1), BuildingBlock: CIFDUS_clean_linker_0, # of connection points: 2
#     Edge 106, Type (0, 1), BuildingBlock: CIFDUS_clean_linker_0, # of connection points: 2
#     Edge 107, Type (0, 1), BuildingBlock: CIFDUS_clean_linker_0, # of connection points: 2
# Relax obj value: 0.050
# Max RMSD: 0.092
# Mean RMSD: 0.081
data_MOF--net-ptr--node1-GALJAG_clean_sbu_0--node2-MUDLON_clean_linker_0--edge1-CIFDUS_clean_linker_0
_symmetry_space_group_name_H-M    P1
_symmetry_Int_Tables_number       1
_symmetry_cell_setting            triclinic
loop_
_symmetry_equiv_pos_as_xyz
'x, y, z'
_cell_length_a     94.585839
_cell_length_b     94.660739
_cell_length_c     60.234158
_cell_angle_alpha  89.958385
_cell_angle_beta   90.034374
_cell_angle_gamma 120.12059
loop_
_atom_site_label
_atom_site_type_symbol
_atom_site_fract_x
_atom_site_fract_y
_atom_site_fract_z
_atom_type_partial_charge
In0 In 0.01297 0.37565 0.01656 0.0
O1 O 1.00166 0.37577 0.05037 0.0
O2 O 0.02233 0.39767 0.03902 0.0
C3 C 0.99001 0.34619 1.00101 0.0
C4 C 0.03907 0.37288 0.02831 0.0
C5 C 0.01134 0.39386 0.98309 0.0
O6 O 0.98699 0.35346 0.0163 0.0
O7 O 0.00456 0.35365 0.99406 0.0
O8 O 0.02164 0.38907 0.98319 0.0
O9 O 0.0021 0.38956 0.99981 0.0
C10 C 0.0119 0.39064 0.05415 0.0
O11 O 0.04042 0.38481 0.01717 0.0
O12 O 0.02458 0.36219 0.03303 0.0
In13 In 0.64575 0.64623 0.01756 0.0
O14 O 0.64121 0.62698 0.04425 0.0
O15 O 0.6294 0.64094 0.04759 0.0
C16 C 0.67118 0.64625 0.99683 0.0
C17 C 0.65742 0.67773 0.02968 0.0
C18 C 0.62229 0.63068 0.98657 0.0
O19 O 0.66932 0.64458 0.01764 0.0
O20 O 0.66032 0.64777 0.98687 0.0
O21 O 0.63166 0.64599 0.9866 0.0
O22 O 0.62442 0.6233 0.00253 0.0
C23 C 0.63169 0.62992 0.05551 0.0
O24 O 0.6434 0.66915 0.02126 0.0
O25 O 0.66556 0.67056 0.03141 0.0
In26 In 0.37243 0.00917 0.01949 0.0
O27 O 0.38427 0.03554 0.00686 0.0
O28 O 0.35981 0.02451 0.01798 0.0
C29 C 0.3892 0.01365 0.05781 0.0
C30 C 0.38406 0.00346 0.98144 0.0
C31 C 0.34439 0.98139 0.03002 0.0
O32 O 0.37785 0.01692 0.05611 0.0
O33 O 0.3924 0.00875 0.04011 0.0
O34 O 0.34452 0.99318 0.02003 0.0
O35 O 0.35837 0.98329 0.03369 0.0
C36 C 0.37179 0.0369 0.00949 0.0
O37 O 0.36897 0.99775 0.98474 0.0
O38 O 0.39306 0.01169 0.99735 0.0
In39 In 0.01398 0.64697 0.01323 0.0
O40 O 0.02081 0.64588 0.97691 0.0
O41 O 0.01172 0.62435 0.99628 0.0
C42 C 0.03844 0.6767 0.02599 0.0
C43 C 0.98732 0.64864 1.00066 0.0
C44 C 0.01383 0.63066 0.05013 0.0
O45 O 0.0405 0.66795 0.01204 0.0
O46 O 0.024 0.67062 0.03309 0.0
O47 O 0.00216 0.63307 0.0455 0.0
O48 O 0.02535 0.63645 0.03621 0.0
C49 C 0.01693 0.63105 0.9777 0.0
O50 O 0.98623 0.63687 0.01193 0.0
O51 O 1.00176 0.65958 0.99623 0.0
In52 In 0.37524 0.37626 0.01101 0.0
O53 O 0.37988 0.39215 0.98012 0.0
O54 O 0.39846 0.38716 0.99012 0.0
C55 C 0.34696 0.3731 0.02629 0.0
C56 C 0.36489 0.34591 0.99519 0.0
C57 C 0.39396 0.39209 0.04651 0.0
O58 O 0.35527 0.38315 0.0112 0.0
O59 O 0.35282 0.36455 0.03339 0.0
O60 O 0.39181 0.37839 0.0403 0.0
O61 O 0.38691 0.39771 0.03471 0.0
C62 C 0.39384 0.39401 0.97628 0.0
O63 O 0.37507 0.35185 0.01093 0.0
O64 O 0.35998 0.35518 0.98785 0.0
In65 In 0.64784 0.01011 0.01898 0.0
O66 O 0.64732 0.02636 0.04684 0.0
O67 O 0.62679 0.00253 0.04316 0.0
C68 C 0.67572 0.03088 0.99737 0.0
C69 C 0.65597 0.98954 0.03887 0.0
C70 C 0.62704 0.00414 0.98485 0.0
O71 O 0.66977 0.03574 0.0123 0.0
O72 O 0.66768 0.01573 0.99363 0.0
O73 O 0.63099 0.99387 0.99127 0.0
O74 O 0.63335 0.01723 0.99589 0.0
C75 C 0.63339 0.01575 0.05389 0.0
O76 O 0.64372 0.98446 0.0262 0.0
O77 O 0.66397 0.00483 0.04135 0.0
In78 In 0.67993 0.70547 0.34575 0.0
O79 O 0.66664 0.70683 0.37686 0.0
O80 O 0.6867 0.72881 0.36448 0.0
C81 C 0.65954 0.67417 0.33326 0.0
C82 C 0.7054 0.70349 0.36237 0.0
C83 C 0.68033 0.72233 0.30923 0.0
O84 O 0.65444 0.68242 0.34343 0.0
O85 O 0.67474 0.68159 0.32993 0.0
O86 O 0.69328 0.72426 0.31814 0.0
O87 O 0.66735 0.712 0.31875 0.0
C88 C 0.67589 0.72207 0.37927 0.0
O89 O 0.70483 0.70697 0.34224 0.0
O90 O 0.69323 0.70103 0.37387 0.0
In91 In 0.31306 0.98205 0.34895 0.0
O92 O 0.30506 0.96439 0.37859 0.0
O93 O 0.2902 0.97441 0.36948 0.0
C94 C 0.34043 0.9822 0.3357 0.0
C95 C 0.32511 0.01186 0.36735 0.0
C96 C 0.29495 0.96971 0.31167 0.0
O97 O 0.32924 0.97048 0.34651 0.0
O98 O 0.33792 0.99386 0.33189 0.0
O99 O 0.30108 0.98455 0.31704 0.0
O100 O 0.29783 0.96128 0.32514 0.0
C101 C 0.29246 0.96536 0.38262 0.0
O102 O 0.31547 0.00735 0.35092 0.0
O103 O 0.32878 1.00145 0.37405 0.0
In104 In 0.04201 0.3471 0.35077 0.0
O105 O 0.05666 0.3746 0.34399 0.0
O106 O 0.03082 0.36296 0.34221 0.0
C107 C 0.05858 0.34644 0.38702 0.0
C108 C 0.05239 0.34026 0.3124 0.0
C109 C 0.01173 0.32589 0.3658 0.0
O110 O 0.06146 0.35969 0.37805 0.0
O111 O 0.04772 0.33376 0.37754 0.0
O112 O 0.01856 0.32211 0.35073 0.0
O113 O 0.01998 0.34044 0.37262 0.0
C114 C 0.04432 0.37598 0.33994 0.0
O115 O 0.03917 0.3404 0.31385 0.0
O116 O 0.05993 0.34271 0.3305 0.0
In117 In 0.68138 0.98353 0.35031 0.0
O118 O 0.69789 0.98042 0.32526 0.0
O119 O 0.67233 0.96371 0.32394 0.0
C120 C 0.70788 0.01105 0.36547 0.0
C121 C 0.66032 0.99132 0.33111 0.0
C122 C 0.67216 0.9647 0.38739 0.0
O123 O 0.70763 0.99764 0.36376 0.0
O124 O 0.69502 0.01065 0.359 0.0
O125 O 0.67226 0.97806 0.38634 0.0
O126 O 0.67591 0.9605 0.36952 0.0
C127 C 0.68624 0.96817 0.31585 0.0
O128 O 0.65598 0.98115 0.34689 0.0
O129 O 0.67509 0.99748 0.32547 0.0
In130 In 0.04718 0.70765 0.35814 0.0
O131 O 0.04827 0.71984 0.32433 0.0
O132 O 0.07046 0.72504 0.33985 0.0
C133 C 0.02113 0.70739 0.3769 0.0
C134 C 0.038 0.67689 0.34413 0.0
C135 C 0.06707 0.72122 0.39334 0.0
O136 O 0.02568 0.71265 0.35735 0.0
O137 O 0.02948 0.70215 0.38643 0.0
O138 O 0.06282 0.70692 0.38678 0.0
O139 O 0.06141 0.7285 0.38203 0.0
C140 C 0.0637 0.72736 0.3234 0.0
O141 O 0.05273 0.68761 0.34719 0.0
O142 O 0.02797 0.68153 0.34851 0.0
In143 In 0.31648 0.34749 0.35601 0.0
O144 O 0.30837 0.32029 0.35373 0.0
O145 O 0.32976 0.33571 0.3723 0.0
C146 C 0.29838 0.34932 0.32259 0.0
C147 C 0.30145 0.34778 0.39408 0.0
C148 C 0.34565 0.37194 0.34158 0.0
O149 O 0.30214 0.33826 0.32335 0.0
O150 O 0.30358 0.35915 0.33869 0.0
O151 O 0.33757 0.37394 0.3567 0.0
O152 O 0.33919 0.35756 0.33415 0.0
C153 C 0.31985 0.32143 0.36573 0.0
O154 O 0.31668 0.3567 0.39131 0.0
O155 O 0.29391 0.33894 0.37766 0.0
In156 In 0.34829 0.0454 0.68371 0.0
O157 O 0.37262 0.0457 0.6872 0.0
O158 O 0.35238 0.02868 0.70651 0.0
C159 C 0.35372 0.06295 0.64611 0.0
C160 C 0.35084 0.06578 0.71694 0.0
C161 C 0.32134 0.01805 0.66962 0.0
O162 O 0.36277 0.05732 0.65197 0.0
O163 O 0.3421 0.05977 0.65923 0.0
O164 O 0.32054 0.02828 0.68227 0.0
O165 O 0.33566 0.0216 0.66433 0.0
C166 C 0.36721 0.03441 0.7015 0.0
O167 O 0.33875 0.05149 0.71529 0.0
O168 O 0.36133 0.06973 0.70178 0.0
In169 In 0.98231 0.31446 0.68544 0.0
O170 O 0.97338 0.33289 0.68266 0.0
O171 O 0.99319 0.33828 0.70448 0.0
C172 C 0.96558 0.29532 0.65063 0.0
C173 C 0.96706 0.29807 0.72287 0.0
C174 C 0.01279 0.32252 0.6722 0.0
O175 O 0.96883 0.30998 0.65202 0.0
O176 O 0.97067 0.29054 0.66668 0.0
O177 O 0.00345 0.3092 0.68189 0.0
O178 O 0.00688 0.33173 0.66948 0.0
C179 C 0.98363 0.34268 0.69661 0.0
O180 O 0.98233 0.30457 0.72033 0.0
O181 O 0.95965 0.29965 0.70653 0.0
In182 In 0.7084 0.67783 0.68524 0.0
O183 O 0.71457 0.70455 0.68539 0.0
O184 O 0.69702 0.68844 0.66205 0.0
C185 C 0.72748 0.68257 0.72122 0.0
C186 C 0.72183 0.67229 0.64882 0.0
C187 C 0.67938 0.65459 0.70225 0.0
O188 O 0.7256 0.69382 0.71306 0.0
O189 O 0.7199 0.66911 0.71114 0.0
O190 O 0.69003 0.65152 0.695 0.0
O191 O 0.68317 0.66937 0.7007 0.0
C192 C 0.70505 0.70281 0.66956 0.0
O193 O 0.70666 0.66506 0.65229 0.0
O194 O 0.73032 0.6821 0.66393 0.0
In195 In 0.34457 0.31367 0.68742 0.0
O196 O 0.35613 0.30787 0.65753 0.0
O197 O 0.3303 0.29468 0.66129 0.0
C198 C 0.37349 0.33998 0.69927 0.0
C199 C 0.32378 0.32379 0.67435 0.0
C200 C 0.33712 0.2935 0.72301 0.0
O201 O 0.37231 0.3266 0.69353 0.0
O202 O 0.36026 0.34015 0.69846 0.0
O203 O 0.33832 0.30735 0.7244 0.0
O204 O 0.3393 0.28976 0.7038 0.0
C205 C 0.34247 0.297 0.64996 0.0
O206 O 0.32014 0.31323 0.68948 0.0
O207 O 0.33799 0.32951 0.66651 0.0
In208 In 0.70777 0.03644 0.68642 0.0
O209 O 0.70751 0.05198 0.65723 0.0
O210 O 0.72828 0.04919 0.66131 0.0
C211 C 0.68039 0.03021 0.70845 0.0
C212 C 0.69929 0.00675 0.66944 0.0
C213 C 0.72874 0.05265 0.71993 0.0
O214 O 0.6855 0.03973 0.69187 0.0
O215 O 0.68905 0.02401 0.71359 0.0
O216 O 0.7248 0.0382 0.7147 0.0
O217 O 0.72236 0.05892 0.708 0.0
C218 C 0.72141 0.05529 0.65009 0.0
O219 O 0.71315 0.01589 0.67802 0.0
O220 O 0.68987 0.01256 0.66947 0.0
In221 In 0.97955 0.67706 0.68357 0.0
O222 O 0.99343 0.66295 0.68639 0.0
O223 O 0.96925 0.65154 0.69865 0.0
C224 C 0.96041 0.67268 0.64797 0.0
C225 C 0.96678 0.68398 0.71942 0.0
C226 C 0.00864 0.70199 0.66956 0.0
O227 O 0.96245 0.66139 0.65563 0.0
O228 O 0.96781 0.686 0.65846 0.0
O229 O 0.00371 0.7011 0.68929 0.0
O230 O 0.99904 0.69033 0.65724 0.0
C231 C 0.98199 0.65069 0.6959 0.0
O232 O 0.98149 0.6874 0.71861 0.0
O233 O 0.95875 0.67763 0.70194 0.0
H234 H 0.26707 0.3871 0.17665 0.0
N235 N 0.24322 0.3676 0.14939 0.0
H236 H 0.27557 0.37966 0.21099 0.0
H237 H 0.22819 0.3374 0.16857 0.0
H238 H 0.23664 0.32971 0.20302 0.0
H239 H 0.23812 0.33904 0.13097 0.0
H240 H 0.25555 0.33633 0.10343 0.0
H241 H 0.2666 0.39141 0.1255 0.0
H242 H 0.28445 0.38892 0.09838 0.0
H243 H 0.23369 0.38591 0.17035 0.0
H244 H 0.21661 0.34553 0.12478 0.0
H245 H 0.20712 0.38403 0.16925 0.0
H246 H 0.19025 0.34426 0.12222 0.0
H247 H 0.12374 0.3799 0.16799 0.0
H248 H 0.10823 0.37312 0.20284 0.0
H249 H 0.11214 0.3298 0.20922 0.0
H250 H 0.12712 0.33631 0.17412 0.0
H251 H 0.10461 0.33609 0.13972 0.0
H252 H 0.08546 0.33402 0.11132 0.0
H253 H 0.12346 0.37838 0.08091 0.0
H254 H 0.14199 0.38111 0.1109 0.0
H255 H 0.16437 0.3887 0.14965 0.0
H256 H 0.19064 0.38979 0.14792 0.0
H257 H 0.16552 0.33731 0.13947 0.0
N258 N 0.13481 0.36261 0.14721 0.0
H259 H 0.13932 0.33674 0.13937 0.0
C260 C 0.2471 0.36283 0.17017 0.0
C261 C 0.2603 0.3746 0.18249 0.0
C262 C 0.26507 0.37032 0.2021 0.0
C263 C 0.25674 0.35409 0.20974 0.0
C264 C 0.24336 0.34227 0.19744 0.0
C265 C 0.2385 0.34663 0.17783 0.0
C266 C 0.25105 0.36548 0.13019 0.0
C267 C 0.24789 0.34996 0.12344 0.0
C268 C 0.258 0.34844 0.10784 0.0
C269 C 0.27155 0.36241 0.09884 0.0
C270 C 0.27405 0.37789 0.10472 0.0
C271 C 0.26389 0.37937 0.12023 0.0
C272 C 0.2273 0.36605 0.14755 0.0
C273 C 0.22423 0.37677 0.15983 0.0
C274 C 0.20901 0.37576 0.15896 0.0
C275 C 0.19645 0.36416 0.14531 0.0
C276 C 0.1995 0.35328 0.13305 0.0
C277 C 0.21472 0.35409 0.13433 0.0
C278 C 0.12684 0.35882 0.16858 0.0
C279 C 0.12134 0.36902 0.17702 0.0
C280 C 0.11242 0.36508 0.19677 0.0
C281 C 0.10901 0.35094 0.20864 0.0
C282 C 0.11472 0.34083 0.20042 0.0
C283 C 0.12337 0.34461 0.1804 0.0
C284 C 0.12466 0.35902 0.12776 0.0
C285 C 0.10886 0.3453 0.12684 0.0
C286 C 0.0979 0.34407 0.11031 0.0
C287 C 0.10265 0.35626 0.09387 0.0
C288 C 0.11903 0.36908 0.09367 0.0
C289 C 0.1298 0.37055 0.11061 0.0
C290 C 0.14999 0.36266 0.14514 0.0
C291 C 0.16462 0.37749 0.14725 0.0
C292 C 0.17962 0.37801 0.1465 0.0
C293 C 0.18035 0.36358 0.14413 0.0
C294 C 0.16556 0.3487 0.14128 0.0
C295 C 0.15052 0.34828 0.14151 0.0
H296 H 0.71625 0.79112 0.15311 0.0
N297 N 0.69379 0.79774 0.13829 0.0
H298 H 0.71651 0.7785 0.18842 0.0
H299 H 0.6712 0.78891 0.17145 0.0
H300 H 0.67153 0.77673 0.20723 0.0
H301 H 0.66247 0.77205 0.13602 0.0
H302 H 0.65215 0.74951 0.10947 0.0
H303 H 0.70861 0.79626 0.10167 0.0
H304 H 0.69829 0.77395 0.0746 0.0
H305 H 0.71522 0.82711 0.15331 0.0
H306 H 0.66734 0.80017 0.12378 0.0
H307 H 0.71279 0.85146 0.15464 0.0
H308 H 0.66527 0.82479 0.12336 0.0
H309 H 0.70817 0.92832 0.1618 0.0
H310 H 0.70581 0.93982 0.19696 0.0
H311 H 0.66067 0.89504 0.21067 0.0
H312 H 0.66269 0.88419 0.17498 0.0
H313 H 0.65497 0.89188 0.13721 0.0
H314 H 0.64555 0.90563 0.11161 0.0
H315 H 0.69456 0.93399 0.08555 0.0
H316 H 0.70384 0.92041 0.11149 0.0
H317 H 0.71268 0.89704 0.13667 0.0
H318 H 0.71393 0.87203 0.13354 0.0
H319 H 0.66155 0.8436 0.14326 0.0
N320 N 0.68669 0.89996 0.1438 0.0
H321 H 0.66044 0.86882 0.14427 0.0
C322 C 0.6938 0.791 0.15975 0.0
C323 C 0.70652 0.78806 0.16496 0.0
C324 C 0.70668 0.78095 0.1852 0.0
C325 C 0.69408 0.77665 0.20077 0.0
C326 C 0.68134 0.77971 0.19555 0.0
C327 C 0.68117 0.78678 0.17519 0.0
C328 C 0.68639 0.7858 0.12084 0.0
C329 C 0.67025 0.77268 0.12245 0.0
C330 C 0.66434 0.75983 0.10716 0.0
C331 C 0.67446 0.75983 0.09003 0.0
C332 C 0.69028 0.77343 0.08781 0.0
C333 C 0.69615 0.78625 0.10309 0.0
C334 C 0.69165 0.81183 0.13828 0.0
C335 C 0.70426 0.82654 0.14682 0.0
C336 C 0.70288 0.84053 0.14731 0.0
C337 C 0.68893 0.84034 0.13873 0.0
C338 C 0.67616 0.82549 0.1303 0.0
C339 C 0.67741 0.81133 0.1303 0.0
C340 C 0.68576 0.90538 0.16581 0.0
C341 C 0.69789 0.92096 0.17259 0.0
C342 C 0.69654 0.92746 0.19278 0.0
C343 C 0.68303 0.91839 0.20679 0.0
C344 C 0.67111 0.90252 0.20021 0.0
C345 C 0.67236 0.89615 0.17983 0.0
C346 C 0.68014 0.90525 0.12623 0.0
C347 C 0.66356 0.90077 0.1256 0.0
C348 C 0.65821 0.90863 0.11095 0.0
C349 C 0.66938 0.92108 0.0968 0.0
C350 C 0.68572 0.92468 0.09653 0.0
C351 C 0.69102 0.91685 0.11114 0.0
C352 C 0.6866 0.88481 0.14125 0.0
C353 C 0.70149 0.88537 0.13795 0.0
C354 C 0.70215 0.871 0.13644 0.0
C355 C 0.68789 0.85561 0.13871 0.0
C356 C 0.67282 0.85511 0.14138 0.0
C357 C 0.67216 0.86957 0.14234 0.0
H358 H 0.139 0.77149 0.18244 0.0
N359 N 0.13266 0.78457 0.14757 0.0
H360 H 0.12301 0.76123 0.21658 0.0
H361 H 0.10637 0.78774 0.15945 0.0
H362 H 0.09056 0.7779 0.19363 0.0
H363 H 0.1133 0.7913 0.12094 0.0
H364 H 0.09384 0.77287 0.09311 0.0
H365 H 0.13026 0.7573 0.13199 0.0
H366 H 0.11105 0.73891 0.10406 0.0
H367 H 0.16337 0.79454 0.13649 0.0
H368 H 0.13045 0.81235 0.15074 0.0
H369 H 0.1859 0.82259 0.13225 0.0
H370 H 0.15293 0.84039 0.14768 0.0
H371 H 0.24974 0.89882 0.15884 0.0
H372 H 0.26294 0.90987 0.19446 0.0
H373 H 0.22945 0.92745 0.20678 0.0
H374 H 0.21614 0.91618 0.17094 0.0
H375 H 0.23162 0.92841 0.12051 0.0
H376 H 0.25247 0.94267 0.09217 0.0
H377 H 0.26227 0.90271 0.09089 0.0
H378 H 0.24166 0.88878 0.11977 0.0
H379 H 0.22547 0.87357 0.15382 0.0
H380 H 0.20298 0.84555 0.15393 0.0
H381 H 0.17162 0.86128 0.12393 0.0
N382 N 0.22412 0.90076 0.14092 0.0
H383 H 0.19418 0.88957 0.12494 0.0
C384 C 0.124 0.78043 0.16843 0.0
C385 C 0.12858 0.77313 0.18498 0.0
C386 C 0.11943 0.76732 0.20449 0.0
C387 C 0.10545 0.76871 0.20786 0.0
C388 C 0.10112 0.77645 0.19146 0.0
C389 C 0.11028 0.78224 0.17194 0.0
C390 C 0.12312 0.77554 0.12864 0.0
C391 C 0.11302 0.78 0.11712 0.0
C392 C 0.1019 0.76945 0.10126 0.0
C393 C 0.10086 0.7544 0.09647 0.0
C394 C 0.11165 0.75047 0.10717 0.0
C395 C 0.1226 0.76092 0.12315 0.0
C396 C 0.1453 0.8013 0.14416 0.0
C397 C 0.16104 0.80454 0.13873 0.0
C398 C 0.17392 0.8206 0.13652 0.0
C399 C 0.17137 0.83387 0.13987 0.0
C400 C 0.15541 0.83055 0.14475 0.0
C401 C 0.14248 0.81444 0.14673 0.0
C402 C 0.23178 0.90653 0.1623 0.0
C403 C 0.24506 0.90484 0.16925 0.0
C404 C 0.25262 0.91119 0.18966 0.0
C405 C 0.24722 0.91952 0.20343 0.0
C406 C 0.23396 0.92121 0.19645 0.0
C407 C 0.22629 0.9147 0.17611 0.0
C408 C 0.23501 0.90756 0.12221 0.0
C409 C 0.2381 0.92264 0.11381 0.0
C410 C 0.24998 0.93072 0.09752 0.0
C411 C 0.2591 0.92386 0.08916 0.0
C412 C 0.25563 0.90845 0.09712 0.0
C413 C 0.24373 0.90038 0.11353 0.0
C414 C 0.21148 0.8838 0.1396 0.0
C415 C 0.21381 0.87108 0.14728 0.0
C416 C 0.20088 0.85493 0.14713 0.0
C417 C 0.18535 0.85104 0.13903 0.0
C418 C 0.18325 0.86377 0.13071 0.0
C419 C 0.19617 0.87994 0.13107 0.0
H420 H 0.36322 0.25235 0.87794 0.0
N421 N 0.33701 0.22484 0.89533 0.0
H422 H 0.36297 0.2675 0.84537 0.0
H423 H 0.31309 0.21557 0.8655 0.0
H424 H 0.31295 0.23061 0.83226 0.0
H425 H 0.31603 0.23021 0.91774 0.0
H426 H 0.32243 0.25179 0.94491 0.0
H427 H 0.36685 0.24394 0.91495 0.0
H428 H 0.37352 0.26599 0.9415 0.0
H429 H 0.3617 0.22492 0.87053 0.0
H430 H 0.32632 0.19918 0.92212 0.0
H431 H 0.36966 0.20433 0.87097 0.0
H432 H 0.33517 0.17903 0.92395 0.0
H433 H 0.39086 0.13865 0.86115 0.0
H434 H 0.38375 0.12242 0.82708 0.0
H435 H 0.3326 0.10508 0.83939 0.0
H436 H 0.3398 0.12092 0.87358 0.0
H437 H 0.34589 0.11156 0.90831 0.0
H438 H 0.34903 0.09405 0.93522 0.0
H439 H 0.39996 0.13068 0.94333 0.0
H440 H 0.39681 0.14766 0.91539 0.0
H441 H 0.39014 0.17169 0.8851 0.0
H442 H 0.38322 0.1932 0.88855 0.0
H443 H 0.33373 0.15682 0.90638 0.0
N444 N 0.37068 0.13985 0.89067 0.0
H445 H 0.34134 0.13577 0.90478 0.0
C446 C 0.33803 0.23283 0.8744 0.0
C447 C 0.35218 0.24743 0.86815 0.0
C448 C 0.35204 0.25612 0.84951 0.0
C449 C 0.33788 0.25033 0.83648 0.0
C450 C 0.32402 0.23534 0.84203 0.0
C451 C 0.32409 0.22674 0.86093 0.0
C452 C 0.34092 0.23557 0.91419 0.0
C453 C 0.32853 0.23772 0.92335 0.0
C454 C 0.33225 0.25015 0.93868 0.0
C455 C 0.34854 0.26084 0.94504 0.0
C456 C 0.36085 0.25797 0.93701 0.0
C457 C 0.35707 0.2454 0.92175 0.0
C458 C 0.34311 0.21355 0.89614 0.0
C459 C 0.35571 0.21497 0.88221 0.0
C460 C 0.36045 0.20315 0.88268 0.0
C461 C 0.35307 0.18981 0.89746 0.0
C462 C 0.34091 0.1888 0.91192 0.0
C463 C 0.33593 0.20043 0.91109 0.0
C464 C 0.36597 0.13113 0.86987 0.0
C465 C 0.37815 0.13146 0.85632 0.0
C466 C 0.37404 0.12223 0.83683 0.0
C467 C 0.35758 0.11244 0.83045 0.0
C468 C 0.34538 0.11233 0.84392 0.0
C469 C 0.34951 0.12154 0.86345 0.0
C470 C 0.37124 0.13082 0.90957 0.0
C471 C 0.35766 0.11591 0.91608 0.0
C472 C 0.35948 0.10593 0.93165 0.0
C473 C 0.37484 0.11077 0.94123 0.0
C474 C 0.38805 0.12631 0.93589 0.0
C475 C 0.38626 0.13614 0.92013 0.0
C476 C 0.36623 0.15215 0.89425 0.0
C477 C 0.37786 0.16848 0.89002 0.0
C478 C 0.37378 0.18072 0.89175 0.0
C479 C 0.35777 0.17687 0.89735 0.0
C480 C 0.34622 0.16043 0.9022 0.0
C481 C 0.35046 0.14824 0.90095 0.0
H482 H 0.76902 0.12637 0.86943 0.0
N483 N 0.79447 0.12555 0.8901 0.0
H484 H 0.7577 0.11525 0.83311 0.0
H485 H 0.80529 0.11196 0.86111 0.0
H486 H 0.79407 0.10086 0.8243 0.0
H487 H 0.78817 0.09865 0.91171 0.0
H488 H 0.76608 0.08306 0.93811 0.0
H489 H 0.77397 0.13528 0.90786 0.0
H490 H 0.75146 0.11952 0.93363 0.0
H491 H 0.7924 0.15221 0.87652 0.0
H492 H 0.82352 0.13756 0.90929 0.0
H493 H 0.814 0.18061 0.87829 0.0
H494 H 0.84511 0.16619 0.91216 0.0
H495 H 0.87546 0.25595 0.8547 0.0
H496 H 0.88981 0.26491 0.8192 0.0
H497 H 0.9229 0.24846 0.84013 0.0
H498 H 0.90891 0.24021 0.87578 0.0
H499 H 0.90352 0.23774 0.91444 0.0
H500 H 0.92179 0.25602 0.94334 0.0
H501 H 0.90106 0.28725 0.93471 0.0
H502 H 0.88303 0.26901 0.90569 0.0
H503 H 0.85134 0.23195 0.89786 0.0
H504 H 0.82937 0.20352 0.90111 0.0
H505 H 0.86434 0.1876 0.88955 0.0
N506 N 0.88261 0.24297 0.88888 0.0
H507 H 0.88617 0.21596 0.88746 0.0
C508 C 0.78811 0.12004 0.86804 0.0
C509 C 0.77472 0.12101 0.85971 0.0
C510 C 0.76826 0.11467 0.83881 0.0
C511 C 0.77498 0.10717 0.82577 0.0
C512 C 0.78851 0.10642 0.83401 0.0
C513 C 0.795 0.11283 0.85493 0.0
C514 C 0.78268 0.11802 0.90772 0.0
C515 C 0.78037 0.10339 0.91679 0.0
C516 C 0.76764 0.09445 0.93168 0.0
C517 C 0.7568 0.0999 0.93772 0.0
C518 C 0.7596 0.11499 0.92942 0.0
C519 C 0.77244 0.124 0.91456 0.0
C520 C 0.80642 0.14265 0.89252 0.0
C521 C 0.80381 0.15507 0.88433 0.0
C522 C 0.81621 0.17144 0.88557 0.0
C523 C 0.83143 0.1758 0.89527 0.0
C524 C 0.83372 0.16333 0.90416 0.0
C525 C 0.82136 0.14697 0.90272 0.0
C526 C 0.89097 0.24732 0.86782 0.0
C527 C 0.88577 0.25423 0.85151 0.0
C528 C 0.89395 0.25925 0.8312 0.0
C529 C 0.90752 0.25736 0.8267 0.0
C530 C 0.91264 0.25028 0.84308 0.0
C531 C 0.9045 0.24537 0.86347 0.0
C532 C 0.89202 0.25215 0.9078 0.0
C533 C 0.90283 0.24844 0.91889 0.0
C534 C 0.91326 0.2589 0.93539 0.0
C535 C 0.91289 0.27311 0.94126 0.0
C536 C 0.90153 0.27633 0.93077 0.0
C537 C 0.89126 0.26598 0.91417 0.0
C538 C 0.87033 0.22611 0.89221 0.0
C539 C 0.85422 0.22227 0.89631 0.0
C540 C 0.84167 0.20601 0.89795 0.0
C541 C 0.84498 0.19316 0.89533 0.0
C542 C 0.86129 0.1971 0.89188 0.0
C543 C 0.87385 0.2134 0.89048 0.0
H544 H 0.78489 0.7026 0.87891 0.0
N545 N 0.79437 0.68267 0.89559 0.0
H546 H 0.77117 0.70017 0.84359 0.0
H547 H 0.78807 0.65988 0.86318 0.0
H548 H 0.77536 0.65792 0.82723 0.0
H549 H 0.76724 0.65213 0.89733 0.0
H550 H 0.74467 0.64281 0.92374 0.0
H551 H 0.79354 0.69785 0.93235 0.0
H552 H 0.77098 0.68857 0.95899 0.0
H553 H 0.8246 0.70222 0.88117 0.0
H554 H 0.79438 0.6554 0.91224 0.0
H555 H 0.8474 0.69712 0.88036 0.0
H556 H 0.81733 0.65073 0.91311 0.0
H557 H 0.9124 0.68998 0.87354 0.0
H558 H 0.9257 0.69629 0.8371 0.0
H559 H 0.89229 0.64694 0.81567 0.0
H560 H 0.87913 0.64076 0.85217 0.0
H561 H 0.89013 0.63519 0.90064 0.0
H562 H 0.91045 0.63563 0.92621 0.0
H563 H 0.92834 0.68675 0.93918 0.0
H564 H 0.90833 0.68625 0.91327 0.0
H565 H 0.88998 0.69017 0.89422 0.0
H566 H 0.86758 0.69551 0.8993 0.0
H567 H 0.83302 0.64389 0.89171 0.0
N568 N 0.88733 0.66032 0.88712 0.0
H569 H 0.85569 0.63868 0.8886 0.0
C570 C 0.78766 0.68159 0.87365 0.0
C571 C 0.78293 0.69291 0.86756 0.0
C572 C 0.77518 0.69153 0.84726 0.0
C573 C 0.77213 0.67885 0.83235 0.0
C574 C 0.77722 0.66769 0.83833 0.0
C575 C 0.78472 0.66892 0.85883 0.0
C576 C 0.78205 0.67582 0.91277 0.0
C577 C 0.76827 0.66008 0.9109 0.0
C578 C 0.75536 0.65478 0.92598 0.0
C579 C 0.75599 0.66502 0.94332 0.0
C580 C 0.77018 0.68035 0.94591 0.0
C581 C 0.78305 0.6857 0.93071 0.0
C582 C 0.80774 0.67937 0.89682 0.0
C583 C 0.82298 0.69097 0.8882 0.0
C584 C 0.83608 0.68806 0.88797 0.0
C585 C 0.8344 0.6735 0.89678 0.0
C586 C 0.81914 0.66196 0.90579 0.0
C587 C 0.80592 0.66473 0.90555 0.0
C588 C 0.89481 0.66481 0.86554 0.0
C589 C 0.9079 0.68056 0.86098 0.0
C590 C 0.91552 0.68414 0.84017 0.0
C591 C 0.91004 0.67212 0.82351 0.0
C592 C 0.89668 0.65653 0.82803 0.0
C593 C 0.88919 0.65294 0.84886 0.0
C594 C 0.89761 0.6606 0.90499 0.0
C595 C 0.89823 0.64638 0.9094 0.0
C596 C 0.90983 0.64667 0.92407 0.0
C597 C 0.92113 0.66127 0.93468 0.0
C598 C 0.91999 0.67535 0.93104 0.0
C599 C 0.90839 0.67505 0.9163 0.0
C600 C 0.87451 0.66391 0.89162 0.0
C601 C 0.87762 0.67995 0.89442 0.0
C602 C 0.86468 0.68302 0.89686 0.0
C603 C 0.8483 0.67017 0.89587 0.0
C604 C 0.84534 0.65413 0.89312 0.0
C605 C 0.8583 0.65108 0.89119 0.0
H606 H 0.76387 0.64781 0.49771 0.0
N607 N 0.7904 0.6713 0.47804 0.0
H608 H 0.75353 0.64816 0.53474 0.0
H609 H 0.80556 0.69553 0.50885 0.0
H610 H 0.79486 0.6966 0.54538 0.0
H611 H 0.79647 0.70282 0.47633 0.0
H612 H 0.78188 0.71264 0.45333 0.0
H613 H 0.77132 0.65614 0.44338 0.0
H614 H 0.75699 0.66612 0.41978 0.0
H615 H 0.79882 0.64985 0.49102 0.0
H616 H 0.81838 0.69707 0.46 0.0
H617 H 0.82531 0.65174 0.48832 0.0
H618 H 0.84469 0.69854 0.45551 0.0
H619 H 0.90823 0.65611 0.48704 0.0
H620 H 0.92083 0.65767 0.52309 0.0
H621 H 0.91471 0.69853 0.5409 0.0
H622 H 0.90318 0.69749 0.50459 0.0
H623 H 0.92506 0.70685 0.47105 0.0
H624 H 0.94845 0.71703 0.44569 0.0
H625 H 0.92273 0.673 0.40674 0.0
H626 H 0.89962 0.66265 0.4326 0.0
H627 H 0.86897 0.65031 0.46553 0.0
H628 H 0.84291 0.64967 0.46467 0.0
H629 H 0.86845 0.70227 0.47198 0.0
N630 N 0.89849 0.67597 0.47087 0.0
H631 H 0.89452 0.70272 0.47063 0.0
C632 C 0.7853 0.67167 0.50049 0.0
C633 C 0.77074 0.65839 0.50822 0.0
C634 C 0.76479 0.65872 0.5293 0.0
C635 C 0.77318 0.67253 0.54305 0.0
C636 C 0.78808 0.6857 0.53542 0.0
C637 C 0.79415 0.68522 0.51442 0.0
C638 C 0.78477 0.67859 0.46179 0.0
C639 C 0.78807 0.69477 0.46386 0.0
C640 C 0.77975 0.70041 0.45068 0.0
C641 C 0.76822 0.69008 0.43493 0.0
C642 C 0.76588 0.67435 0.43171 0.0
C643 C 0.77403 0.66864 0.44515 0.0
C644 C 0.80643 0.67315 0.4756 0.0
C645 C 0.80882 0.66054 0.48332 0.0
C646 C 0.82401 0.6616 0.48147 0.0
C647 C 0.83726 0.67517 0.47126 0.0
C648 C 0.8349 0.68793 0.46362 0.0
C649 C 0.81971 0.68703 0.46598 0.0
C650 C 0.90456 0.67649 0.49306 0.0
C651 C 0.90952 0.6653 0.49886 0.0
C652 C 0.91664 0.66617 0.51955 0.0
C653 C 0.91883 0.67824 0.53504 0.0
C654 C 0.9135 0.68924 0.52933 0.0
C655 C 0.90663 0.68851 0.50852 0.0
C656 C 0.91071 0.68382 0.45386 0.0
C657 C 0.92432 0.69953 0.45684 0.0
C658 C 0.93766 0.70533 0.44235 0.0
C659 C 0.93741 0.69574 0.42437 0.0
C660 C 0.9232 0.68068 0.42038 0.0
C661 C 0.91002 0.67475 0.43511 0.0
C662 C 0.88358 0.67645 0.4687 0.0
C663 C 0.86888 0.66169 0.46664 0.0
C664 C 0.85397 0.66138 0.46648 0.0
C665 C 0.85337 0.67588 0.46897 0.0
C666 C 0.86828 0.69082 0.47004 0.0
C667 C 0.88325 0.69112 0.46957 0.0
H668 H 0.38034 0.14092 0.50412 0.0
N669 N 0.35704 0.13255 0.47372 0.0
H670 H 0.37806 0.12812 0.54046 0.0
H671 H 0.32926 0.10718 0.49193 0.0
H672 H 0.32691 0.09452 0.52794 0.0
H673 H 0.32718 0.1142 0.45343 0.0
H674 H 0.32006 0.09224 0.42672 0.0
H675 H 0.37727 0.12526 0.45309 0.0
H676 H 0.37038 0.1036 0.42583 0.0
H677 H 0.37591 0.16246 0.45774 0.0
H678 H 0.32815 0.13095 0.48549 0.0
H679 H 0.37002 0.18486 0.45606 0.0
H680 H 0.32244 0.15323 0.4848 0.0
H681 H 0.35971 0.2505 0.49072 0.0
H682 H 0.36571 0.26569 0.52539 0.0
H683 H 0.31956 0.22828 0.55224 0.0
H684 H 0.31336 0.21354 0.51698 0.0
H685 H 0.30665 0.22683 0.46698 0.0
H686 H 0.30767 0.24659 0.43993 0.0
H687 H 0.35778 0.26098 0.42483 0.0
H688 H 0.3566 0.24114 0.45201 0.0
H689 H 0.36123 0.22538 0.48364 0.0
H690 H 0.36723 0.20324 0.48006 0.0
H691 H 0.31684 0.17017 0.46213 0.0
N692 N 0.33105 0.22265 0.48003 0.0
H693 H 0.31087 0.19231 0.46681 0.0
C694 C 0.35502 0.12518 0.49535 0.0
C695 C 0.36864 0.13086 0.50935 0.0
C696 C 0.36734 0.12349 0.52998 0.0
C697 C 0.35229 0.11035 0.53705 0.0
C698 C 0.33861 0.10477 0.52308 0.0
C699 C 0.33996 0.11203 0.50241 0.0
C700 C 0.35282 0.12134 0.45539 0.0
C701 C 0.33674 0.11216 0.44728 0.0
C702 C 0.33269 0.09961 0.43188 0.0
C703 C 0.34462 0.09602 0.42432 0.0
C704 C 0.36083 0.10583 0.43162 0.0
C705 C 0.36484 0.1183 0.44701 0.0
C706 C 0.35262 0.14506 0.47186 0.0
C707 C 0.36415 0.16038 0.46343 0.0
C708 C 0.3608 0.17319 0.46266 0.0
C709 C 0.34577 0.17094 0.47042 0.0
C710 C 0.33406 0.15541 0.47839 0.0
C711 C 0.33739 0.1426 0.47899 0.0
C712 C 0.33589 0.23095 0.50113 0.0
C713 C 0.3509 0.24551 0.50404 0.0
C714 C 0.35439 0.25415 0.52403 0.0
C715 C 0.34304 0.24836 0.54158 0.0
C716 C 0.32843 0.23334 0.53893 0.0
C717 C 0.3249 0.2248 0.51889 0.0
C718 C 0.3315 0.23256 0.46157 0.0
C719 C 0.31771 0.234 0.45743 0.0
C720 C 0.31832 0.24526 0.44193 0.0
C721 C 0.33284 0.25542 0.43029 0.0
C722 C 0.34647 0.25344 0.4337 0.0
C723 C 0.3458 0.24206 0.44916 0.0
C724 C 0.33549 0.2104 0.47581 0.0
C725 C 0.3515 0.2134 0.47888 0.0
C726 C 0.35493 0.2007 0.47663 0.0
C727 C 0.34248 0.1848 0.47102 0.0
C728 C 0.32666 0.18211 0.46698 0.0
C729 C 0.32323 0.19477 0.46944 0.0
H730 H 0.79412 0.1027 0.49821 0.0
N731 N 0.79169 0.12828 0.48152 0.0
H732 H 0.78304 0.08874 0.53346 0.0
H733 H 0.77727 0.13633 0.51286 0.0
H734 H 0.76633 0.1226 0.54846 0.0
H735 H 0.76336 0.12148 0.46384 0.0
H736 H 0.74759 0.10102 0.43571 0.0
H737 H 0.80214 0.11038 0.45757 0.0
H738 H 0.78687 0.09047 0.42877 0.0
H739 H 0.81921 0.1257 0.48593 0.0
H740 H 0.80229 0.15958 0.47364 0.0
H741 H 0.84737 0.14772 0.48301 0.0
H742 H 0.83052 0.18209 0.47246 0.0
H743 H 0.93273 0.22457 0.50518 0.0
H744 H 0.94244 0.24148 0.53859 0.0
H745 H 0.90439 0.2537 0.53093 0.0
H746 H 0.89481 0.23671 0.49735 0.0
H747 H 0.90628 0.24524 0.46024 0.0
H748 H 0.92346 0.26313 0.4305 0.0
H749 H 0.94657 0.23385 0.42405 0.0
H750 H 0.9289 0.21574 0.4534 0.0
H751 H 0.89572 0.19211 0.50115 0.0
H752 H 0.8675 0.1698 0.50164 0.0
H753 H 0.85491 0.19553 0.4533 0.0
N754 N 0.90835 0.21991 0.47876 0.0
H755 H 0.88285 0.21821 0.45422 0.0
C756 C 0.78654 0.12062 0.50296 0.0
C757 C 0.78827 0.10725 0.50918 0.0
C758 C 0.78192 0.09928 0.52939 0.0
C759 C 0.77372 0.1045 0.54377 0.0
C760 C 0.77235 0.11811 0.53766 0.0
C761 C 0.77871 0.12606 0.51745 0.0
C762 C 0.78396 0.11764 0.46279 0.0
C763 C 0.76864 0.11491 0.45596 0.0
C764 C 0.75969 0.10323 0.43978 0.0
C765 C 0.76592 0.09403 0.42985 0.0
C766 C 0.78155 0.09714 0.43623 0.0
C767 C 0.79044 0.10874 0.45263 0.0
C768 C 0.80857 0.14094 0.47954 0.0
C769 C 0.82153 0.13788 0.48245 0.0
C770 C 0.83774 0.15064 0.48115 0.0
C771 C 0.84142 0.16687 0.47756 0.0
C772 C 0.82834 0.16982 0.47477 0.0
C773 C 0.81214 0.15698 0.4756 0.0
C774 C 0.9131 0.22939 0.4989 0.0
C775 C 0.92644 0.23082 0.51085 0.0
C776 C 0.93191 0.24043 0.52994 0.0
C777 C 0.92414 0.24889 0.53746 0.0
C778 C 0.9107 0.24744 0.52545 0.0
C779 C 0.90518 0.23771 0.50634 0.0
C780 C 0.91627 0.22906 0.45898 0.0
C781 C 0.91474 0.24242 0.45206 0.0
C782 C 0.92471 0.25276 0.43516 0.0
C783 C 0.93655 0.25006 0.42498 0.0
C784 C 0.93748 0.23622 0.43126 0.0
C785 C 0.92743 0.22586 0.44807 0.0
C786 C 0.89156 0.20682 0.47761 0.0
C787 C 0.88683 0.1929 0.49068 0.0
C788 C 0.87066 0.18005 0.49074 0.0
C789 C 0.85876 0.18064 0.47735 0.0
C790 C 0.86357 0.19463 0.4641 0.0
C791 C 0.87972 0.20765 0.46442 0.0
H792 H 0.03049 0.58674 0.20479 0.0
N793 N 0.00488 0.5605 0.22502 0.0
H794 H 0.02951 0.59941 0.16992 0.0
H795 H 0.97984 0.54991 0.19705 0.0
H796 H 0.97877 0.56234 0.16184 0.0
H797 H 0.98788 0.57321 0.24192 0.0
H798 H 0.99717 0.59599 0.26766 0.0
H799 H 0.03419 0.57501 0.24841 0.0
H800 H 0.04313 0.59696 0.27507 0.0
H801 H 0.03453 0.56413 0.21317 0.0
H802 H 0.98629 0.52933 0.23633 0.0
H803 H 0.0421 0.54315 0.21345 0.0
H804 H 0.99317 0.5077 0.23483 0.0
H805 H 0.05963 0.472 0.19667 0.0
H806 H 0.0559 0.45746 0.1616 0.0
H807 H 0.00455 0.44232 0.16229 0.0
H808 H 0.00847 0.45705 0.19742 0.0
H809 H 0.01019 0.44526 0.23257 0.0
H810 H 0.00899 0.42681 0.26151 0.0
H811 H 0.05802 0.46253 0.282 0.0
H812 H 0.05941 0.48047 0.25176 0.0
H813 H 0.04783 0.50046 0.19503 0.0
H814 H 0.03965 0.52101 0.19548 0.0
H815 H 0.0068 0.49576 0.25009 0.0
N816 N 0.03714 0.47409 0.22042 0.0
H817 H 0.014 0.47453 0.24813 0.0
C818 C 0.00518 0.56733 0.20348 0.0
C819 C 0.01924 0.58119 0.19535 0.0
C820 C 0.01865 0.58843 0.17538 0.0
C821 C 0.00403 0.58195 0.16312 0.0
C822 C 0.99015 0.56779 0.17102 0.0
C823 C 0.99076 0.56058 0.191 0.0
C824 C 0.01017 0.57224 0.24299 0.0
C825 C 0.99988 0.57821 0.24935 0.0
C826 C 0.00523 0.59123 0.26423 0.0
C827 C 0.021 0.59849 0.27351 0.0
C828 C 0.03105 0.59198 0.26794 0.0
C829 C 0.0258 0.57916 0.25269 0.0
C830 C 0.00989 0.54838 0.22523 0.0
C831 C 0.02552 0.55192 0.21832 0.0
C832 C 0.02975 0.53973 0.21815 0.0
C833 C 0.01827 0.5235 0.22406 0.0
C834 C 0.00254 0.52001 0.23064 0.0
C835 C 0.99849 0.53234 0.23137 0.0
C836 C 0.0344 0.46561 0.19957 0.0
C837 C 0.04761 0.46559 0.18918 0.0
C838 C 0.04544 0.45732 0.16916 0.0
C839 C 0.02993 0.44878 0.15918 0.0
C840 C 0.01661 0.44869 0.1697 0.0
C841 C 0.01883 0.45712 0.18969 0.0
C842 C 0.03507 0.46415 0.2397 0.0
C843 C 0.02067 0.44915 0.24328 0.0
C844 C 0.01995 0.43865 0.26013 0.0
C845 C 0.0335 0.44301 0.27408 0.0
C846 C 0.0475 0.45852 0.27129 0.0
C847 C 0.04828 0.46889 0.25419 0.0
C848 C 0.03165 0.48587 0.22144 0.0
C849 C 0.03873 0.49928 0.20694 0.0
C850 C 0.03416 0.51119 0.20747 0.0
C851 C 0.02266 0.51034 0.22305 0.0
C852 C 0.01551 0.49684 0.23761 0.0
C853 C 0.01978 0.48466 0.23665 0.0
H854 H 0.5995 0.55791 0.20981 0.0
N855 N 0.57151 0.55345 0.22646 0.0
H856 H 0.61228 0.57065 0.17444 0.0
H857 H 0.5584 0.56404 0.19444 0.0
H858 H 0.57082 0.57637 0.15878 0.0
H859 H 0.56725 0.57999 0.22917 0.0
H860 H 0.58079 0.60274 0.25516 0.0
H861 H 0.58964 0.55547 0.2614 0.0
H862 H 0.603 0.57807 0.28792 0.0
H863 H 0.55756 0.52553 0.20365 0.0
H864 H 0.54606 0.55269 0.2508 0.0
H865 H 0.52887 0.5044 0.20249 0.0
H866 H 0.51779 0.53128 0.25068 0.0
H867 H 0.44769 0.43804 0.20457 0.0
H868 H 0.43621 0.42513 0.1691 0.0
H869 H 0.43719 0.46916 0.14712 0.0
H870 H 0.44735 0.48138 0.18352 0.0
H871 H 0.42578 0.46579 0.23567 0.0
H872 H 0.40711 0.44602 0.26291 0.0
H873 H 0.43959 0.42663 0.27008 0.0
H874 H 0.45816 0.44643 0.24292 0.0
H875 H 0.47831 0.46228 0.21669 0.0
H876 H 0.50722 0.48274 0.22076 0.0
H877 H 0.49411 0.5201 0.22962 0.0
N878 N 0.45258 0.46776 0.21874 0.0
H879 H 0.46527 0.49928 0.22707 0.0
C880 C 0.57804 0.55998 0.20474 0.0
C881 C 0.59316 0.56182 0.19862 0.0
C882 C 0.60039 0.56903 0.17836 0.0
C883 C 0.5926 0.57457 0.16373 0.0
C884 C 0.57728 0.57247 0.16977 0.0
C885 C 0.57009 0.56531 0.19009 0.0
C886 C 0.57753 0.56603 0.24329 0.0
C887 C 0.57491 0.5794 0.24205 0.0
C888 C 0.58256 0.59235 0.25707 0.0
C889 C 0.59307 0.59228 0.27355 0.0
C890 C 0.59516 0.5786 0.27525 0.0
C891 C 0.58746 0.56564 0.26025 0.0
C892 C 0.55425 0.54108 0.22678 0.0
C893 C 0.54892 0.52696 0.2138 0.0
C894 C 0.53247 0.51474 0.21339 0.0
C895 C 0.52084 0.51605 0.22642 0.0
C896 C 0.52623 0.52996 0.23995 0.0
C897 C 0.54265 0.54233 0.24007 0.0
C898 C 0.44791 0.46056 0.19695 0.0
C899 C 0.44535 0.44489 0.19221 0.0
C900 C 0.43894 0.43757 0.17166 0.0
C901 C 0.43541 0.44592 0.15517 0.0
C902 C 0.43916 0.46206 0.15955 0.0
C903 C 0.44515 0.46918 0.18027 0.0
C904 C 0.44331 0.4576 0.23718 0.0
C905 C 0.42902 0.45751 0.24352 0.0
C906 C 0.4184 0.44623 0.2591 0.0
C907 C 0.42184 0.4347 0.26856 0.0
C908 C 0.43654 0.43526 0.26291 0.0
C909 C 0.44724 0.44666 0.24745 0.0
C910 C 0.46966 0.47928 0.22204 0.0
C911 C 0.48169 0.47481 0.22009 0.0
C912 C 0.49827 0.48663 0.22205 0.0
C913 C 0.50316 0.50321 0.22551 0.0
C914 C 0.49095 0.5075 0.22747 0.0
C915 C 0.47443 0.49564 0.22588 0.0
H916 H 0.56406 0.98759 0.20738 0.0
N917 N 0.5645 0.01425 0.22599 0.0
H918 H 0.57491 0.98632 0.17133 0.0
H919 H 0.57786 0.03781 0.19552 0.0
H920 H 0.58859 0.03656 0.15889 0.0
H921 H 0.59164 0.03532 0.2469 0.0
H922 H 0.60737 0.0293 0.27361 0.0
H923 H 0.55446 0.98449 0.24543 0.0
H924 H 0.57043 0.97815 0.27151 0.0
H925 H 0.53805 0.98795 0.20615 0.0
H926 H 0.55183 0.02815 0.25123 0.0
H927 H 0.51003 0.98183 0.20705 0.0
H928 H 0.52329 0.02119 0.2539 0.0
H929 H 0.4194 0.97132 0.202 0.0
H930 H 0.4105 0.97797 0.1672 0.0
H931 H 0.45834 0.02039 0.1592 0.0
H932 H 0.46705 0.0142 0.1941 0.0
H933 H 0.44512 0.01547 0.22917 0.0
H934 H 0.42736 0.0179 0.25612 0.0
H935 H 0.41732 0.97214 0.28592 0.0
H936 H 0.43402 0.96921 0.25742 0.0
H937 H 0.45796 0.96678 0.22022 0.0
H938 H 0.48566 0.97157 0.22461 0.0
H939 H 0.50308 0.02294 0.2356 0.0
N940 N 0.44801 0.98843 0.22245 0.0
H941 H 0.47505 0.01753 0.23313 0.0
C942 C 0.57015 0.01287 0.20423 0.0
C943 C 0.56936 0.99836 0.197 0.0
C944 C 0.57548 0.9976 0.17623 0.0
C945 C 0.58258 0.01133 0.16219 0.0
C946 C 0.58332 0.02582 0.16939 0.0
C947 C 0.57712 0.02653 0.1902 0.0
C948 C 0.57202 0.0104 0.24406 0.0
C949 C 0.58681 0.02288 0.2526 0.0
C950 C 0.59584 0.01936 0.26767 0.0
C951 C 0.59034 0.00318 0.27439 0.0
C952 C 0.57502 0.99075 0.26674 0.0
C953 C 0.56591 0.99433 0.25174 0.0
C954 C 0.5473 0.00886 0.22826 0.0
C955 C 0.53509 0.99538 0.21655 0.0
C956 C 0.51882 0.99172 0.21735 0.0
C957 C 0.51416 1.00106 0.23042 0.0
C958 C 0.52631 0.01396 0.2431 0.0
C959 C 0.54266 0.01786 0.24184 0.0
C960 C 0.44392 0.99202 0.20077 0.0
C961 C 0.42801 0.98198 0.19266 0.0
C962 C 0.42291 0.98584 0.17293 0.0
C963 C 0.43376 0.9997 0.16065 0.0
C964 C 0.44979 0.0096 0.16839 0.0
C965 C 0.45478 0.00596 0.1884 0.0
C966 C 0.44052 0.99189 0.24093 0.0
C967 C 0.43917 0.00601 0.2416 0.0
C968 C 0.42906 0.00744 0.25728 0.0
C969 C 0.42048 0.99504 0.27311 0.0
C970 C 0.42315 0.98167 0.27357 0.0
C971 C 0.43291 0.98005 0.2575 0.0
C972 C 0.46451 0.9918 0.22591 0.0
C973 C 0.4678 0.97902 0.2238 0.0
C974 C 0.48373 0.98187 0.22609 0.0
C975 C 0.4969 0.99774 0.23007 0.0
C976 C 0.49341 0.0105 0.2328 0.0
C977 C 0.47737 0.00751 0.23111 0.0
H978 H 0.42741 0.97829 0.83153 0.0
N979 N 0.4536 0.00191 0.81151 0.0
H980 H 0.41627 0.97925 0.86781 0.0
H981 H 0.46712 0.02748 0.84059 0.0
H982 H 0.45584 0.02887 0.87652 0.0
H983 H 0.46056 0.03333 0.80427 0.0
H984 H 0.44739 0.04209 0.77702 0.0
H985 H 0.43332 0.98409 0.77938 0.0
H986 H 0.42001 0.99276 0.75199 0.0
H987 H 0.45967 0.97759 0.81421 0.0
H988 H 0.48338 0.0297 0.80531 0.0
H989 H 0.48606 0.97893 0.81248 0.0
H990 H 0.50987 0.03118 0.80249 0.0
H991 H 0.55081 0.97899 0.84187 0.0
H992 H 0.56214 0.98098 0.87911 0.0
H993 H 0.59405 0.03288 0.86954 0.0
H994 H 0.58229 0.03079 0.83284 0.0
H995 H 0.57834 0.03291 0.79342 0.0
H996 H 0.6015 0.04071 0.76814 0.0
H997 H 0.59028 0.99047 0.76641 0.0
H998 H 0.56764 0.98302 0.79216 0.0
H999 H 0.53237 0.98201 0.79119 0.0
H1000 H 0.50709 0.98291 0.78823 0.0
H1001 H 0.52997 0.02894 0.82344 0.0
N1002 N 0.55955 0.00279 0.81225 0.0
H1003 H 0.55546 0.02831 0.82506 0.0
C1004 C 0.44801 0.00276 0.83341 0.0
C1005 C 0.43371 0.98929 0.84144 0.0
C1006 C 0.4273 0.98994 0.86205 0.0
C1007 C 0.43507 0.00419 0.87506 0.0
C1008 C 0.44961 0.01764 0.86707 0.0
C1009 C 0.45604 0.01693 0.84645 0.0
C1010 C 0.44794 0.008 0.79376 0.0
C1011 C 0.45206 0.02447 0.79259 0.0
C1012 C 0.44451 0.02948 0.77698 0.0
C1013 C 0.43259 0.01809 0.76246 0.0
C1014 C 0.42902 0.00178 0.76311 0.0
C1015 C 0.43666 0.99683 0.77859 0.0
C1016 C 0.46949 0.00344 0.80968 0.0
C1017 C 0.47061 0.9893 0.81157 0.0
C1018 C 0.48573 0.99012 0.81037 0.0
C1019 C 0.50019 0.00515 0.80702 0.0
C1020 C 0.49905 0.0194 0.80519 0.0
C1021 C 0.48385 0.01856 0.80662 0.0
C1022 C 0.56572 0.00466 0.83458 0.0
C1023 C 0.56012 0.99079 0.84801 0.0
C1024 C 0.5667 0.99195 0.86917 0.0
C1025 C 0.5791 0.00708 0.87729 0.0
C1026 C 0.5844 0.02107 0.86396 0.0
C1027 C 0.57776 0.01988 0.84284 0.0
C1028 C 0.57145 0.00739 0.7948 0.0
C1029 C 0.58082 0.0236 0.78736 0.0
C1030 C 0.59398 0.02801 0.77284 0.0
C1031 C 0.59791 0.01625 0.76556 0.0
C1032 C 0.58784 0.9999 0.77209 0.0
C1033 C 0.57481 0.99557 0.78661 0.0
C1034 C 0.54567 0.00488 0.80863 0.0
C1035 C 0.53196 0.99241 0.7979 0.0
C1036 C 0.51748 0.99289 0.79648 0.0
C1037 C 0.51629 0.00581 0.80609 0.0
C1038 C 0.53038 0.0188 0.81582 0.0
C1039 C 0.54498 0.0184 0.81693 0.0
H1040 H 0.99486 0.57105 0.81641 0.0
N1041 N 0.02093 0.56824 0.8022 0.0
H1042 H 0.99379 0.58489 0.85005 0.0
H1043 H 0.04234 0.57921 0.83553 0.0
H1044 H 0.04098 0.59256 0.86984 0.0
H1045 H 0.04179 0.59626 0.78301 0.0
H1046 H 0.03586 0.61124 0.75507 0.0
H1047 H 0.99221 0.5563 0.77887 0.0
H1048 H 0.98622 0.57095 0.75035 0.0
H1049 H 0.99209 0.54234 0.81706 0.0
H1050 H 0.0378 0.55538 0.78518 0.0
H1051 H 0.98506 0.51377 0.81797 0.0
H1052 H 0.03059 0.5267 0.78499 0.0
H1053 H 0.9731 0.43724 0.84703 0.0
H1054 H 0.97981 0.4269 0.88024 0.0
H1055 H 0.02889 0.44543 0.8554 0.0
H1056 H 0.02177 0.45477 0.82193 0.0
H1057 H 0.01738 0.45864 0.78337 0.0
H1058 H 0.01881 0.44027 0.75608 0.0
H1059 H 0.96859 0.40422 0.7702 0.0
H1060 H 0.9673 0.42269 0.79744 0.0
H1061 H 0.97125 0.4615 0.80187 0.0
H1062 H 0.97747 0.48974 0.79721 0.0
H1063 H 0.02849 0.50656 0.80992 0.0
N1064 N 0.99174 0.45094 0.81159 0.0
H1065 H 0.02227 0.47849 0.81348 0.0
C1066 C 0.01889 0.57436 0.82322 0.0
C1067 C 0.005 0.57566 0.8279 0.0
C1068 C 0.00436 0.58356 0.84714 0.0
C1069 C 0.01737 0.58989 0.86233 0.0
C1070 C 0.03081 0.58777 0.85833 0.0
C1071 C 0.0316 0.58017 0.83883 0.0
C1072 C 0.01755 0.5752 0.78301 0.0
C1073 C 0.02975 0.59054 0.77555 0.0
C1074 C 0.02631 0.59905 0.75951 0.0
C1075 C 0.01051 0.59235 0.75047 0.0
C1076 C 0.99845 0.57658 0.75718 0.0
C1077 C 1.00191 0.56809 0.77333 0.0
C1078 C 0.01565 0.55106 0.80133 0.0
C1079 C 1.00056 0.53903 0.81004 0.0
C1080 C 0.99649 0.52262 0.81036 0.0
C1081 C 0.00731 0.51785 0.80174 0.0
C1082 C 0.0221 0.5299 0.79226 0.0
C1083 C 0.02621 0.54629 0.79215 0.0
C1084 C 0.99689 0.44695 0.83208 0.0
C1085 C 0.98536 0.43925 0.84898 0.0
C1086 C 0.98927 0.43341 0.86799 0.0
C1087 C 0.00492 0.43528 0.87058 0.0
C1088 C 0.01665 0.44352 0.85389 0.0
C1089 C 0.01264 0.44915 0.83478 0.0
C1090 C 0.99219 0.44195 0.79256 0.0
C1091 C 0.00658 0.44694 0.78029 0.0
C1092 C 0.0074 0.43639 0.76474 0.0
C1093 C 0.99385 0.42073 0.76109 0.0
C1094 C 0.97919 0.41624 0.77241 0.0
C1095 C 0.97843 0.42674 0.78801 0.0
C1096 C 0.99616 0.46777 0.80821 0.0
C1097 C 0.98378 0.47132 0.80346 0.0
C1098 C 0.98736 0.48749 0.80099 0.0
C1099 C 0.00349 0.50053 0.80331 0.0
C1100 C 0.01595 0.49689 0.8077 0.0
C1101 C 0.01236 0.48072 0.80999 0.0
H1102 H 0.47611 0.42547 0.83388 0.0
N1103 N 0.47722 0.44951 0.8098 0.0
H1104 H 0.46253 0.41502 0.86964 0.0
H1105 H 0.4622 0.46241 0.83521 0.0
H1106 H 0.44913 0.45246 0.87101 0.0
H1107 H 0.44716 0.44618 0.80172 0.0
H1108 H 0.42704 0.42766 0.7752 0.0
H1109 H 0.4819 0.43302 0.77771 0.0
H1110 H 0.46209 0.41502 0.75002 0.0
H1111 H 0.5095 0.46345 0.81153 0.0
H1112 H 0.47092 0.47416 0.80004 0.0
H1113 H 0.52978 0.49244 0.8085 0.0
H1114 H 0.49079 0.50322 0.79892 0.0
H1115 H 0.58591 0.57513 0.82623 0.0
H1116 H 0.59883 0.58895 0.86104 0.0
H1117 H 0.55599 0.59169 0.87793 0.0
H1118 H 0.54319 0.57831 0.84254 0.0
H1119 H 0.56479 0.59945 0.79499 0.0
H1120 H 0.58676 0.61653 0.76954 0.0
H1121 H 0.59581 0.57659 0.75827 0.0
H1122 H 0.57459 0.56009 0.78517 0.0
H1123 H 0.56007 0.54554 0.82951 0.0
H1124 H 0.54085 0.51647 0.82762 0.0
H1125 H 0.51133 0.5254 0.78107 0.0
N1126 N 0.55665 0.56998 0.80988 0.0
H1127 H 0.53009 0.55474 0.78461 0.0
C1128 C 0.47035 0.44477 0.83181 0.0
C1129 C 0.47039 0.4315 0.84207 0.0
C1130 C 0.46266 0.4256 0.86253 0.0
C1131 C 0.4547 0.43288 0.87322 0.0
C1132 C 0.45495 0.44641 0.86312 0.0
C1133 C 0.46263 0.45225 0.84263 0.0
C1134 C 0.46604 0.44085 0.7919 0.0
C1135 C 0.45062 0.43959 0.79038 0.0
C1136 C 0.43909 0.429 0.77499 0.0
C1137 C 0.44279 0.41961 0.76049 0.0
C1138 C 0.45861 0.42169 0.76122 0.0
C1139 C 0.47004 0.43213 0.77684 0.0
C1140 C 0.48872 0.46663 0.80639 0.0
C1141 C 0.50543 0.47213 0.80847 0.0
C1142 C 0.51698 0.48877 0.80699 0.0
C1143 C 0.51206 0.50043 0.80385 0.0
C1144 C 0.49523 0.49477 0.80112 0.0
C1145 C 0.48372 0.47806 0.80207 0.0
C1146 C 0.56361 0.57591 0.83162 0.0
C1147 C 0.5792 0.57858 0.83741 0.0
C1148 C 0.58657 0.58642 0.85729 0.0
C1149 C 0.57837 0.59137 0.87193 0.0
C1150 C 0.56248 0.58791 0.86681 0.0
C1151 C 0.55519 0.5803 0.84672 0.0
C1152 C 0.5679 0.57849 0.79191 0.0
C1153 C 0.57138 0.59434 0.78672 0.0
C1154 C 0.58394 0.60406 0.77201 0.0
C1155 C 0.59324 0.59806 0.76168 0.0
C1156 C 0.58923 0.58183 0.76616 0.0
C1157 C 0.57685 0.57222 0.78132 0.0
C1158 C 0.54634 0.55247 0.80757 0.0
C1159 C 0.54943 0.54133 0.81901 0.0
C1160 C 0.53843 0.52453 0.81764 0.0
C1161 C 0.52429 0.51835 0.8043 0.0
C1162 C 0.52173 0.52956 0.79203 0.0
C1163 C 0.53255 0.54637 0.79382 0.0
H1164 H 0.69494 0.9187 0.5349 0.0
N1165 N 0.67057 0.89022 0.55283 0.0
H1166 H 0.69403 0.93059 0.49912 0.0
H1167 H 0.64792 0.87646 0.52128 0.0
H1168 H 0.64728 0.88807 0.485 0.0
H1169 H 0.65335 0.90362 0.56655 0.0
H1170 H 0.66178 0.92652 0.59171 0.0
H1171 H 0.69862 0.90429 0.57887 0.0
H1172 H 0.7066 0.92629 0.60527 0.0
H1173 H 0.70048 0.89445 0.54168 0.0
H1174 H 0.65268 0.85935 0.56585 0.0
H1175 H 0.70855 0.87369 0.54235 0.0
H1176 H 0.66014 0.8381 0.56523 0.0
H1177 H 0.72416 0.80235 0.52069 0.0
H1178 H 0.7196 0.78896 0.48451 0.0
H1179 H 0.66827 0.77359 0.48864 0.0
H1180 H 0.67303 0.78723 0.52482 0.0
H1181 H 0.67329 0.7777 0.5614 0.0
H1182 H 0.67021 0.75663 0.58759 0.0
H1183 H 0.72246 0.78263 0.59825 0.0
H1184 H 0.7253 0.80383 0.57238 0.0
H1185 H 0.7125 0.8299 0.52157 0.0
H1186 H 0.70511 0.85101 0.52357 0.0
H1187 H 0.67502 0.82718 0.58097 0.0
N1188 N 0.70221 0.8035 0.54688 0.0
H1189 H 0.68161 0.80561 0.57804 0.0
C1190 C 0.67131 0.89675 0.5309 0.0
C1191 C 0.68451 0.91191 0.52413 0.0
C1192 C 0.68397 0.9187 0.50375 0.0
C1193 C 0.67052 0.91028 0.48951 0.0
C1194 C 0.65776 0.89479 0.49576 0.0
C1195 C 0.65812 0.88816 0.51637 0.0
C1196 C 0.67519 0.90207 0.57059 0.0
C1197 C 0.66491 0.9084 0.57518 0.0
C1198 C 0.66977 0.92149 0.58976 0.0
C1199 C 0.68497 0.92845 0.60069 0.0
C1200 C 0.69498 0.92159 0.59687 0.0
C1201 C 0.69027 0.90872 0.58181 0.0
C1202 C 0.67601 0.87846 0.55402 0.0
C1203 C 0.69173 0.88224 0.54719 0.0
C1204 C 0.69623 0.87023 0.54733 0.0
C1205 C 0.68499 0.85405 0.55372 0.0
C1206 C 0.66928 0.8504 0.5606 0.0
C1207 C 0.66492 0.86251 0.56085 0.0
C1208 C 0.69898 0.79574 0.52541 0.0
C1209 C 0.71196 0.79615 0.5137 0.0
C1210 C 0.70932 0.78856 0.49305 0.0
C1211 C 0.69357 0.78026 0.48372 0.0
C1212 C 0.6805 0.77978 0.49551 0.0
C1213 C 0.6832 0.78755 0.51615 0.0
C1214 C 0.69958 0.79241 0.56497 0.0
C1215 C 0.68403 0.77903 0.56969 0.0
C1216 C 0.68232 0.76692 0.58459 0.0
C1217 C 0.69611 0.7678 0.5949 0.0
C1218 C 0.71154 0.7816 0.59087 0.0
C1219 C 0.71321 0.79374 0.57607 0.0
C1220 C 0.69748 0.81583 0.54924 0.0
C1221 C 0.70417 0.82912 0.53447 0.0
C1222 C 0.70007 0.84136 0.53585 0.0
C1223 C 0.68944 0.84095 0.55248 0.0
C1224 C 0.68297 0.82781 0.56762 0.0
C1225 C 0.68685 0.81536 0.56598 0.0
H1226 H 0.24927 0.90934 0.54577 0.0
N1227 N 0.22012 0.9076 0.55594 0.0
H1228 H 0.26351 0.91739 0.51046 0.0
H1229 H 0.20903 0.91257 0.51781 0.0
H1230 H 0.22276 0.91964 0.48172 0.0
H1231 H 0.22538 0.93701 0.56677 0.0
H1232 H 0.24569 0.95641 0.59281 0.0
H1233 H 0.23848 0.90101 0.58476 0.0
H1234 H 0.25878 0.92028 0.61104 0.0
H1235 H 0.2225 0.88034 0.54702 0.0
H1236 H 0.19202 0.89672 0.57744 0.0
H1237 H 0.20126 0.85214 0.55243 0.0
H1238 H 0.17109 0.86844 0.58469 0.0
H1239 H 0.12163 0.76021 0.55248 0.0
H1240 H 0.10964 0.7485 0.51648 0.0
H1241 H 0.12229 0.79654 0.49274 0.0
H1242 H 0.13308 0.80786 0.52878 0.0
H1243 H 0.10475 0.79246 0.55967 0.0
H1244 H 0.07906 0.77721 0.57993 0.0
H1245 H 0.10199 0.75935 0.62514 0.0
H1246 H 0.1278 0.77478 0.60478 0.0
H1247 H 0.16402 0.80156 0.57308 0.0
H1248 H 0.18622 0.82992 0.57486 0.0
H1249 H 0.15102 0.84601 0.56661 0.0
N1250 N 0.13241 0.79059 0.56648 0.0
H1251 H 0.12908 0.81782 0.56646 0.0
C1252 C 0.22816 0.9107 0.53461 0.0
C1253 C 0.24339 0.91164 0.53197 0.0
C1254 C 0.25147 0.91606 0.51155 0.0
C1255 C 0.24441 0.91936 0.49313 0.0
C1256 C 0.2288 0.91762 0.4956 0.0
C1257 C 0.22084 0.91343 0.51615 0.0
C1258 C 0.23044 0.91764 0.57379 0.0
C1259 C 0.23241 0.9332 0.57676 0.0
C1260 C 0.24398 0.94423 0.59169 0.0
C1261 C 0.25392 0.93992 0.60394 0.0
C1262 C 0.25144 0.92403 0.60167 0.0
C1263 C 0.23977 0.91296 0.58677 0.0
C1264 C 0.20868 0.89074 0.56131 0.0
C1265 C 0.21131 0.8779 0.55516 0.0
C1266 C 0.19913 0.86165 0.55858 0.0
C1267 C 0.1842 0.8578 0.5688 0.0
C1268 C 0.18212 0.87077 0.57616 0.0
C1269 C 0.19415 0.88699 0.57227 0.0
C1270 C 0.12824 0.78489 0.54376 0.0
C1271 C 0.12201 0.76823 0.53938 0.0
C1272 C 0.1152 0.76156 0.51869 0.0
C1273 C 0.11474 0.7715 0.50166 0.0
C1274 C 0.12195 0.78838 0.5056 0.0
C1275 C 0.1284 0.79497 0.52641 0.0
C1276 C 0.11825 0.78471 0.5807 0.0
C1277 C 0.10445 0.78571 0.57435 0.0
C1278 C 0.0897 0.77685 0.58582 0.0
C1279 C 0.08847 0.76692 0.60394 0.0
C1280 C 0.10259 0.76695 0.61132 0.0
C1281 C 0.11733 0.77575 0.59972 0.0
C1282 C 0.14491 0.80748 0.5695 0.0
C1283 C 0.16115 0.81128 0.57208 0.0
C1284 C 0.17384 0.82754 0.57283 0.0
C1285 C 0.17059 0.84046 0.57057 0.0
C1286 C 0.15416 0.83656 0.56877 0.0
C1287 C 0.14147 0.82031 0.56853 0.0
H1288 H 0.21185 0.30169 0.52914 0.0
N1289 N 0.21915 0.3234 0.56129 0.0
H1290 H 0.22572 0.30563 0.49347 0.0
H1291 H 0.24491 0.35202 0.54593 0.0
H1292 H 0.25848 0.3563 0.5101 0.0
H1293 H 0.24136 0.35004 0.58497 0.0
H1294 H 0.25924 0.35004 0.61449 0.0
H1295 H 0.21802 0.29767 0.58038 0.0
H1296 H 0.23568 0.29748 0.60993 0.0
H1297 H 0.18769 0.30307 0.5689 0.0
H1298 H 0.22291 0.35404 0.55975 0.0
H1299 H 0.1657 0.30951 0.57076 0.0
H1300 H 0.20104 0.36059 0.56053 0.0
H1301 H 0.1074 0.32565 0.53409 0.0
H1302 H 0.09742 0.32664 0.4973 0.0
H1303 H 0.12864 0.37925 0.49693 0.0
H1304 H 0.13979 0.37771 0.5328 0.0
H1305 H 0.1177 0.36884 0.57408 0.0
H1306 H 0.09432 0.35984 0.59851 0.0
H1307 H 0.09119 0.3128 0.6051 0.0
H1308 H 0.11373 0.32157 0.57902 0.0
H1309 H 0.12952 0.32357 0.54359 0.0
H1310 H 0.15136 0.31733 0.54623 0.0
H1311 H 0.18086 0.36232 0.58217 0.0
N1312 N 0.13031 0.35153 0.55818 0.0
H1313 H 0.15896 0.36885 0.5785 0.0
C1314 C 0.22723 0.32651 0.54011 0.0
C1315 C 0.22198 0.31364 0.52496 0.0
C1316 C 0.22988 0.31597 0.50456 0.0
C1317 C 0.24322 0.33132 0.49883 0.0
C1318 C 0.24839 0.34427 0.51405 0.0
C1319 C 0.24051 0.34189 0.53451 0.0
C1320 C 0.22845 0.32381 0.58041 0.0
C1321 C 0.23997 0.33854 0.59046 0.0
C1322 C 0.25018 0.33851 0.60731 0.0
C1323 C 0.2489 0.32376 0.61452 0.0
C1324 C 0.23686 0.30903 0.60499 0.0
C1325 C 0.2268 0.3091 0.58807 0.0
C1326 C 0.20686 0.32798 0.56398 0.0
C1327 C 0.19065 0.31567 0.56735 0.0
C1328 C 0.1781 0.31938 0.56819 0.0
C1329 C 0.18151 0.33556 0.56548 0.0
C1330 C 0.19792 0.348 0.56285 0.0
C1331 C 0.21049 0.34426 0.56221 0.0
C1332 C 0.12474 0.3516 0.53591 0.0
C1333 C 0.11256 0.3373 0.5257 0.0
C1334 C 0.10654 0.33799 0.50477 0.0
C1335 C 0.11203 0.35307 0.49391 0.0
C1336 C 0.12427 0.36734 0.50431 0.0
C1337 C 0.13063 0.36655 0.52494 0.0
C1338 C 0.11765 0.34606 0.57483 0.0
C1339 C 0.11203 0.35664 0.581 0.0
C1340 C 0.09868 0.35145 0.59521 0.0
C1341 C 0.09075 0.33554 0.60416 0.0
C1342 C 0.09671 0.32504 0.59839 0.0
C1343 C 0.10985 0.33014 0.58362 0.0
C1344 C 0.14263 0.34687 0.56063 0.0
C1345 C 0.14063 0.33218 0.55195 0.0
C1346 C 0.15317 0.32851 0.55373 0.0
C1347 C 0.16796 0.33931 0.56443 0.0
C1348 C 0.16977 0.35382 0.57352 0.0
C1349 C 0.15724 0.35753 0.57159 0.0
H1350 H 0.03351 0.42189 0.06493 0.0
H1351 H 0.99093 0.37876 0.08968 0.0
H1352 H 0.99228 0.39316 0.12414 0.0
H1353 H 0.00627 0.41789 0.14771 0.0
H1354 H 0.04908 0.4606 0.1225 0.0
H1355 H 0.04694 0.44647 0.08773 0.0
C1356 C 0.02447 0.41562 0.07781 0.0
C1357 C 0.01215 0.39927 0.07477 0.0
C1358 C 0.0254 0.42391 0.09753 0.0
C1359 C 1.00054 0.39135 0.09163 0.0
C1360 C 1.00132 0.39958 0.11133 0.0
C1361 C 0.015 0.42412 0.13449 0.0
C1362 C 0.02787 0.44024 0.13772 0.0
C1363 C 0.01377 0.41584 0.11452 0.0
C1364 C 0.0392 0.44813 0.12053 0.0
C1365 C 0.03796 0.44008 0.10062 0.0
H1366 H 0.63134 0.60329 0.07369 0.0
H1367 H 0.61387 0.63705 0.08391 0.0
H1368 H 0.60025 0.62292 0.11802 0.0
H1369 H 0.59347 0.60123 0.14519 0.0
H1370 H 0.61004 0.56678 0.13476 0.0
H1371 H 0.62396 0.58101 0.10073 0.0
C1372 C 0.62457 0.60754 0.08342 0.0
C1373 C 0.62366 0.62121 0.07627 0.0
C1374 C 0.61662 0.59927 0.10303 0.0
C1375 C 0.61477 0.62655 0.08901 0.0
C1376 C 0.60696 0.61848 0.10854 0.0
C1377 C 0.59992 0.59667 0.13535 0.0
C1378 C 0.60067 0.58292 0.1426 0.0
C1379 C 0.60778 0.60482 0.1157 0.0
C1380 C 0.60941 0.57744 0.12978 0.0
C1381 C 0.61732 0.58553 0.11023 0.0
H1382 H 0.41698 0.01248 0.06402 0.0
H1383 H 0.37838 0.01436 0.09954 0.0
H1384 H 0.38892 0.01044 0.13471 0.0
H1385 H 0.40816 0.00471 0.15509 0.0
H1386 H 0.44735 0.00394 0.11969 0.0
H1387 H 0.43758 0.0092 0.0847 0.0
C1388 C 0.411 0.01223 0.0795 0.0
C1389 C 0.39687 0.0136 0.07919 0.0
C1390 C 0.41716 0.01001 0.09962 0.0
C1391 C 0.3893 0.01337 0.09936 0.0
C1392 C 0.39526 0.01102 0.11945 0.0
C1393 C 0.41455 0.00576 0.13967 0.0
C1394 C 0.42832 0.00378 0.1398 0.0
C1395 C 0.409 0.00902 0.11973 0.0
C1396 C 0.4367 0.0054 0.11988 0.0
C1397 C 0.4311 0.00838 0.09992 0.0
H1398 H 0.41591 0.01454 0.97181 0.0
H1399 H 0.36748 0.98791 0.94369 0.0
H1400 H 0.37899 0.9857 0.90835 0.0
H1401 H 0.40287 0.99206 0.8852 0.0
H1402 H 0.45124 0.01825 0.91375 0.0
H1403 H 0.43967 0.02014 0.94907 0.0
C1404 C 0.40786 0.00818 0.95799 0.0
C1405 C 0.39086 1.0014 0.96037 0.0
C1406 C 0.41455 0.00701 0.93774 0.0
C1407 C 0.3806 0.99321 0.94229 0.0
C1408 C 0.38718 0.99198 0.92208 0.0
C1409 C 0.41089 0.998 0.89922 0.0
C1410 C 0.42794 0.00504 0.89673 0.0
C1411 C 0.40415 0.99891 0.91958 0.0
C1412 C 0.43812 0.01294 0.91502 0.0
C1413 C 0.4315 0.01393 0.9353 0.0
H1414 H 0.02461 0.39882 0.94173 0.0
H1415 H 0.99425 0.40991 0.98314 0.0
H1416 H 0.99027 0.4244 0.95243 0.0
H1417 H 0.99476 0.43328 0.91357 0.0
H1418 H 0.02359 0.42056 0.87137 0.0
H1419 H 0.02909 0.40774 0.90268 0.0
C1420 C 0.01723 0.40452 0.94404 0.0
C1421 C 0.00974 0.40329 0.96466 0.0
C1422 C 0.01474 0.4126 0.92617 0.0
C1423 C 1.00011 0.41064 0.9674 0.0
C1424 C 0.99783 0.41893 0.94985 0.0
C1425 C 0.00215 0.42761 0.91112 0.0
C1426 C 0.00874 0.42798 0.89002 0.0
C1427 C 0.00493 0.41984 0.92909 0.0
C1428 C 0.01855 0.42078 0.88742 0.0
C1429 C 0.0216 0.41328 0.90531 0.0
H1430 H 0.62407 0.64137 0.94445 0.0
H1431 H 0.59571 0.59998 0.98709 0.0
H1432 H 0.57875 0.58436 0.95551 0.0
H1433 H 0.57304 0.58196 0.91515 0.0
H1434 H 0.60297 0.62266 0.87237 0.0
H1435 H 0.61828 0.63911 0.90448 0.0
C1436 C 0.61402 0.62901 0.94686 0.0
C1437 C 0.61105 0.62186 0.96804 0.0
C1438 C 0.60471 0.61995 0.92853 0.0
C1439 C 0.59818 0.60575 0.9709 0.0
C1440 C 0.58852 0.5968 0.95286 0.0
C1441 C 0.58285 0.59447 0.91303 0.0
C1442 C 0.58694 0.60121 0.89163 0.0
C1443 C 0.59183 0.60369 0.93152 0.0
C1444 C 0.59971 0.61733 0.88882 0.0
C1445 C 0.60842 0.6267 0.90713 0.0
H1446 H 0.01586 0.63769 0.93413 0.0
H1447 H 0.02 0.60401 0.97815 0.0
H1448 H 0.02108 0.58853 0.94633 0.0
H1449 H 0.02037 0.5843 0.90583 0.0
H1450 H 0.01408 0.61674 0.86203 0.0
H1451 H 0.01424 0.63295 0.89379 0.0
C1452 C 0.0171 0.62702 0.93669 0.0
C1453 C 0.01798 0.62205 0.95837 0.0
C1454 C 0.01723 0.61792 0.91835 0.0
C1455 C 0.01932 0.60806 0.96156 0.0
C1456 C 0.01994 0.59921 0.94339 0.0
C1457 C 0.01908 0.59495 0.90334 0.0
C1458 C 0.01725 0.5994 0.88174 0.0
C1459 C 0.01883 0.60398 0.9217 0.0
C1460 C 0.01541 0.61309 0.8786 0.0
C1461 C 0.01556 0.62237 0.89671 0.0
H1462 H 0.42415 0.39975 0.96556 0.0
H1463 H 0.38556 0.40786 0.94268 0.0
H1464 H 0.40116 0.42097 0.90907 0.0
H1465 H 0.42521 0.42905 0.8855 0.0
H1466 H 0.464 0.42131 0.9087 0.0
H1467 H 0.44876 0.40895 0.94274 0.0
C1468 C 0.41919 0.40447 0.95328 0.0
C1469 C 0.4037 0.40279 0.95658 0.0
C1470 C 0.4282 0.41194 0.93397 0.0
C1471 C 0.39745 0.40899 0.94053 0.0
C1472 C 0.40635 0.41646 0.92129 0.0
C1473 C 0.43047 0.4249 0.89813 0.0
C1474 C 0.44574 0.42608 0.89444 0.0
C1475 C 0.42168 0.41788 0.91775 0.0
C1476 C 0.45219 0.42035 0.9109 0.0
C1477 C 0.44352 0.41336 0.93045 0.0
H1478 H 0.61625 0.02399 0.96933 0.0
H1479 H 0.61464 0.97842 0.95606 0.0
H1480 H 0.59915 0.97502 0.92204 0.0
H1481 H 0.58738 0.98573 0.8951 0.0
H1482 H 0.58856 0.03108 0.90872 0.0
H1483 H 0.60306 0.0339 0.94345 0.0
C1484 C 0.61241 0.01326 0.95907 0.0
C1485 C 0.61665 0.00151 0.96516 0.0
C1486 C 0.60355 0.01141 0.9395 0.0
C1487 C 0.61154 0.98765 0.95174 0.0
C1488 C 0.60272 0.98571 0.93225 0.0
C1489 C 0.59054 0.99609 0.90582 0.0
C1490 C 0.58694 0.00821 0.89918 0.0
C1491 C 0.59881 0.99761 0.92585 0.0
C1492 C 0.5914 0.0217 0.91319 0.0
C1493 C 0.59963 0.02328 0.93313 0.0
H1494 H 0.60349 0.99476 0.07072 0.0
H1495 H 0.6459 0.0422 0.08161 0.0
H1496 H 0.63361 0.04538 0.11561 0.0
H1497 H 0.61135 0.03402 0.14321 0.0
H1498 H 0.56901 0.98656 0.13194 0.0
H1499 H 0.58079 0.98403 0.09719 0.0
C1500 C 0.61002 0.00584 0.08046 0.0
C1501 C 0.62561 0.01819 0.0737 0.0
C1502 C 0.60293 0.00754 0.1 0.0
C1503 C 0.63388 0.0325 0.08647 0.0
C1504 C 0.62688 0.03431 0.10593 0.0
C1505 C 0.6046 0.02323 0.13299 0.0
C1506 C 0.58936 0.01045 0.14028 0.0
C1507 C 0.61147 0.02184 0.11298 0.0
C1508 C 0.58087 0.99647 0.12693 0.0
C1509 C 0.58756 0.99503 0.10699 0.0
H1510 H 0.99052 0.61644 0.0823 0.0
H1511 H 0.03805 0.62489 0.06284 0.0
H1512 H 0.03912 0.61042 0.09573 0.0
H1513 H 0.02666 0.59539 0.13008 0.0
H1514 H 0.97932 0.58721 0.15006 0.0
H1515 H 0.97798 0.60128 0.11683 0.0
C1516 C 1.00109 0.6151 0.08528 0.0
C1517 C 0.01418 0.62176 0.07015 0.0
C1518 C 1.00164 0.60673 0.10428 0.0
C1519 C 0.0278 0.6199 0.07422 0.0
C1520 C 0.02843 0.61161 0.09303 0.0
C1521 C 0.01609 0.59678 0.12726 0.0
C1522 C 0.00312 0.59022 0.14258 0.0
C1523 C 0.01545 0.60501 0.1082 0.0
C1524 C 0.9894 0.59192 0.13842 0.0
C1525 C 0.98867 0.60008 0.11948 0.0
H1526 H 0.39289 0.41635 0.06844 0.0
H1527 H 0.41619 0.38718 0.06941 0.0
H1528 H 0.43171 0.40175 0.10257 0.0
H1529 H 0.43849 0.42278 0.13127 0.0
H1530 H 0.4129 0.44993 0.13158 0.0
H1531 H 0.39882 0.43643 0.09764 0.0
C1532 C 0.40142 0.41322 0.07585 0.0
C1533 C 0.40347 0.40078 0.06645 0.0
C1534 C 0.41 0.42139 0.09506 0.0
C1535 C 0.41441 0.39672 0.07637 0.0
C1536 C 0.42328 0.40506 0.0953 0.0
C1537 C 0.42973 0.42567 0.12411 0.0
C1538 C 0.42703 0.43761 0.13407 0.0
C1539 C 0.42113 0.4174 0.10484 0.0
C1540 C 0.41571 0.44122 0.12416 0.0
C1541 C 0.40744 0.43334 0.10479 0.0
H1542 H 0.6961 0.75403 0.38854 0.0
H1543 H 0.65457 0.71042 0.41432 0.0
H1544 H 0.65563 0.72494 0.44848 0.0
H1545 H 0.66971 0.74956 0.47208 0.0
H1546 H 0.71172 0.79273 0.44624 0.0
H1547 H 0.70914 0.77885 0.41107 0.0
C1548 C 0.68716 0.74773 0.40152 0.0
C1549 C 0.67531 0.73116 0.39892 0.0
C1550 C 0.68803 0.75606 0.4212 0.0
C1551 C 0.66382 0.72318 0.41591 0.0
C1552 C 0.66446 0.73147 0.43548 0.0
C1553 C 0.67813 0.75598 0.45861 0.0
C1554 C 0.69096 0.77211 0.46182 0.0
C1555 C 0.67669 0.74783 0.43846 0.0
C1556 C 0.70189 0.78024 0.44429 0.0
C1557 C 0.70039 0.77233 0.42416 0.0
H1558 H 0.29116 0.94135 0.40916 0.0
H1559 H 0.26944 0.97151 0.39923 0.0
H1560 H 0.25246 0.95971 0.43209 0.0
H1561 H 0.24474 0.94191 0.46456 0.0
H1562 H 0.26506 0.91038 0.47364 0.0
H1563 H 0.28176 0.92181 0.44043 0.0
C1564 C 0.28265 0.94525 0.41417 0.0
C1565 C 0.28163 0.95734 0.40185 0.0
C1566 C 0.27275 0.93829 0.43302 0.0
C1567 C 0.27046 0.96222 0.40841 0.0
C1568 C 0.26076 0.95551 0.42724 0.0
C1569 C 0.25253 0.93723 0.45912 0.0
C1570 C 0.25364 0.92533 0.47184 0.0
C1571 C 0.2619 0.94363 0.43977 0.0
C1572 C 0.26413 0.91975 0.46454 0.0
C1573 C 0.27364 0.92621 0.44542 0.0
H1574 H 0.08969 0.36728 0.40097 0.0
H1575 H 0.0451 0.32359 0.4192 0.0
H1576 H 0.05749 0.32199 0.45399 0.0
H1577 H 0.08062 0.33327 0.47945 0.0
H1578 H 0.12652 0.37501 0.45946 0.0
H1579 H 0.11387 0.37729 0.42546 0.0
C1580 C 0.08275 0.35744 0.41262 0.0
C1581 C 0.06651 0.34563 0.40769 0.0
C1582 C 0.09013 0.3563 0.43233 0.0
C1583 C 0.05765 0.3328 0.42268 0.0
C1584 C 0.06471 0.3319 0.44258 0.0
C1585 C 0.08809 0.34268 0.46756 0.0
C1586 C 0.10458 0.35398 0.47239 0.0
C1587 C 0.08094 0.34357 0.44757 0.0
C1588 C 0.11372 0.36631 0.4567 0.0
C1589 C 0.10653 0.36757 0.43705 0.0
H1590 H 0.07963 0.33804 0.30546 0.0
H1591 H 0.04141 0.34139 0.27099 0.0
H1592 H 0.05534 0.34449 0.23567 0.0
H1593 H 0.07941 0.34827 0.2149 0.0
H1594 H 0.11731 0.34428 0.24902 0.0
H1595 H 0.10249 0.33935 0.28415 0.0
C1596 C 0.07424 0.33922 0.29017 0.0
C1597 C 0.05956 0.33959 0.29087 0.0
C1598 C 0.08235 0.34104 0.2699 0.0
C1599 C 0.05269 0.34105 0.27092 0.0
C1600 C 0.06069 0.34292 0.25071 0.0
C1601 C 0.08435 0.34625 0.23005 0.0
C1602 C 0.09947 0.34681 0.22952 0.0
C1603 C 0.07569 0.34329 0.25007 0.0
C1604 C 0.10567 0.34391 0.24911 0.0
C1605 C 0.09723 0.34114 0.26917 0.0
H1606 H 0.70631 0.74795 0.28903 0.0
H1607 H 0.654 0.71673 0.28435 0.0
H1608 H 0.65356 0.73094 0.25076 0.0
H1609 H 0.66809 0.7517 0.22211 0.0
H1610 H 0.72028 0.78364 0.22744 0.0
H1611 H 0.7207 0.7696 0.26119 0.0
C1612 C 0.69483 0.74428 0.28065 0.0
C1613 C 0.68023 0.73126 0.28912 0.0
C1614 C 0.69463 0.75259 0.26139 0.0
C1615 C 0.66542 0.72671 0.27817 0.0
C1616 C 0.66515 0.73482 0.25894 0.0
C1617 C 0.67953 0.75577 0.23081 0.0
C1618 C 0.69413 0.76867 0.22209 0.0
C1619 C 0.67968 0.74774 0.25036 0.0
C1620 C 0.70888 0.77358 0.2335 0.0
C1621 C 0.70913 0.76561 0.2529 0.0
H1622 H 0.28367 0.93916 0.2958 0.0
H1623 H 0.28515 0.98449 0.2811 0.0
H1624 H 0.27003 0.9728 0.2466 0.0
H1625 H 0.25696 0.94981 0.22017 0.0
H1626 H 0.25615 0.9048 0.2349 0.0
H1627 H 0.27051 0.91628 0.2698 0.0
C1628 C 0.28064 0.94648 0.2851 0.0
C1629 C 0.2855 0.96267 0.29102 0.0
C1630 C 0.27212 0.93974 0.26525 0.0
C1631 C 0.28154 0.972 0.27692 0.0
C1632 C 0.27291 0.96532 0.25719 0.0
C1633 C 0.2598 0.94248 0.23115 0.0
C1634 C 0.25551 0.92648 0.22494 0.0
C1635 C 0.26819 0.94922 0.25115 0.0
C1636 C 0.25946 0.9172 0.23918 0.0
C1637 C 0.26762 0.92373 0.25917 0.0
H1638 H 0.66269 0.94565 0.2892 0.0
H1639 H 0.71489 0.9721 0.29921 0.0
H1640 H 0.71848 0.95847 0.26695 0.0
H1641 H 0.70674 0.93925 0.23574 0.0
H1642 H 0.65458 0.9144 0.22455 0.0
H1643 H 0.65104 0.9269 0.25775 0.0
C1644 C 0.67486 0.9484 0.28438 0.0
C1645 C 0.68851 0.95984 0.29658 0.0
C1646 C 0.67683 0.94071 0.26569 0.0
C1647 C 0.7042 0.96335 0.29005 0.0
C1648 C 0.70625 0.95555 0.27163 0.0
C1649 C 0.6946 0.93666 0.2404 0.0
C1650 C 0.68096 0.92576 0.22756 0.0
C1651 C 0.69265 0.94427 0.25925 0.0
C1652 C 0.66531 0.9224 0.23423 0.0
C1653 C 0.66326 0.9297 0.25315 0.0
H1654 H 0.05268 0.73009 0.28248 0.0
H1655 H 0.09655 0.74719 0.32154 0.0
H1656 H 0.11322 0.76219 0.28971 0.0
H1657 H 0.11557 0.76943 0.25037 0.0
H1658 H 0.072 0.75164 0.21052 0.0
H1659 H 0.05506 0.73826 0.24303 0.0
C1660 C 0.06587 0.73724 0.28404 0.0
C1661 C 0.07335 0.73746 0.30433 0.0
C1662 C 0.07548 0.74572 0.2655 0.0
C1663 C 0.09047 0.74674 0.30609 0.0
C1664 C 0.10005 0.75533 0.28788 0.0
C1665 C 0.10237 0.76259 0.24876 0.0
C1666 C 0.09511 0.7615 0.22797 0.0
C1667 C 0.09271 0.7547 0.26742 0.0
C1668 C 0.07795 0.75284 0.22634 0.0
C1669 C 0.06823 0.74507 0.24491 0.0
H1670 H 0.28596 0.33011 0.28574 0.0
H1671 H 0.2904 0.37297 0.31768 0.0
H1672 H 0.27705 0.37762 0.28621 0.0
H1673 H 0.26532 0.37039 0.24891 0.0
H1674 H 0.26099 0.32784 0.21635 0.0
H1675 H 0.27277 0.32202 0.24888 0.0
C1676 C 0.28389 0.34039 0.28585 0.0
C1677 C 0.28927 0.35124 0.30397 0.0
C1678 C 0.27621 0.34305 0.2676 0.0
C1679 C 0.28645 0.36447 0.30392 0.0
C1680 C 0.27882 0.36716 0.28591 0.0
C1681 C 0.26695 0.35983 0.24895 0.0
C1682 C 0.26242 0.34965 0.23019 0.0
C1683 C 0.27386 0.35668 0.26755 0.0
C1684 C 0.2643 0.33583 0.23064 0.0
C1685 C 0.27114 0.33256 0.24917 0.0
H1686 H 0.26883 0.33171 0.40177 0.0
H1687 H 0.31528 0.36263 0.43347 0.0
H1688 H 0.30137 0.36059 0.46859 0.0
H1689 H 0.27605 0.3491 0.49056 0.0
H1690 H 0.2296 0.31881 0.45832 0.0
H1691 H 0.24351 0.32138 0.42322 0.0
C1692 C 0.27591 0.33805 0.41634 0.0
C1693 C 0.29306 0.34725 0.41505 0.0
C1694 C 0.26784 0.33684 0.43642 0.0
C1695 C 0.30206 0.35547 0.43404 0.0
C1696 C 0.29411 0.35428 0.45413 0.0
C1697 C 0.26893 0.34325 0.47581 0.0
C1698 C 0.25177 0.33367 0.47721 0.0
C1699 C 0.27701 0.3449 0.45555 0.0
C1700 C 0.24282 0.326 0.4579 0.0
C1701 C 0.25076 0.32754 0.43775 0.0
H1702 H 0.66803 0.93434 0.39258 0.0
H1703 H 0.67152 0.97505 0.4294 0.0
H1704 H 0.67134 0.96178 0.46431 0.0
H1705 H 0.67164 0.93921 0.48434 0.0
H1706 H 0.66703 0.89802 0.44773 0.0
H1707 H 0.66624 0.91085 0.41272 0.0
C1708 C 0.66856 0.94021 0.40826 0.0
C1709 C 0.66985 0.95568 0.4084 0.0
C1710 C 0.66843 0.9325 0.42827 0.0
C1711 C 0.67046 0.96312 0.42884 0.0
C1712 C 0.67047 0.95559 0.44881 0.0
C1713 C 0.67047 0.9331 0.46865 0.0
C1714 C 0.66959 0.91783 0.46845 0.0
C1715 C 0.66973 0.94041 0.44871 0.0
C1716 C 0.66778 0.90982 0.44816 0.0
C1717 C 0.66733 0.91715 0.4282 0.0
H1718 H 0.07167 0.74825 0.41462 0.0
H1719 H 0.08528 0.71108 0.41667 0.0
H1720 H 0.10187 0.72374 0.44988 0.0
H1721 H 0.11226 0.74533 0.47845 0.0
H1722 H 0.09653 0.78104 0.47734 0.0
H1723 H 0.08138 0.76919 0.44337 0.0
C1724 C 0.07833 0.74295 0.42226 0.0
C1725 C 0.07731 0.7288 0.41318 0.0
C1726 C 0.08757 0.75011 0.44144 0.0
C1727 C 0.08587 0.72198 0.42338 0.0
C1728 C 0.09536 0.72922 0.44234 0.0
C1729 C 0.10543 0.75047 0.47091 0.0
C1730 C 0.1058 0.76425 0.4805 0.0
C1731 C 0.09624 0.74326 0.45159 0.0
C1732 C 0.09695 0.77077 0.47019 0.0
C1733 C 0.08808 0.76388 0.45081 0.0
H1734 H 0.33281 0.05875 0.75489 0.0
H1735 H 0.37419 0.09774 0.72094 0.0
H1736 H 0.37943 0.11581 0.75255 0.0
H1737 H 0.37298 0.12029 0.79034 0.0
H1738 H 0.33234 0.08106 0.82513 0.0
H1739 H 0.32594 0.0635 0.79261 0.0
C1740 C 0.34288 0.07124 0.75437 0.0
C1741 C 0.35311 0.07687 0.73562 0.0
C1742 C 0.34598 0.08155 0.77276 0.0
C1743 C 0.36615 0.09308 0.7352 0.0
C1744 C 0.36918 0.10343 0.75328 0.0
C1745 C 0.36276 0.10787 0.79088 0.0
C1746 C 0.35321 0.10203 0.81023 0.0
C1747 C 0.35931 0.09774 0.77226 0.0
C1748 C 0.33981 0.08598 0.81041 0.0
C1749 C 0.33621 0.07587 0.79185 0.0
H1750 H 0.93438 0.28068 0.72955 0.0
H1751 H 0.98048 0.29752 0.7629 0.0
H1752 H 0.96612 0.28597 0.79791 0.0
H1753 H 0.94049 0.27242 0.81934 0.0
H1754 H 0.89444 0.25493 0.78538 0.0
H1755 H 0.90881 0.26561 0.75038 0.0
C1756 C 0.9413 0.28174 0.74445 0.0
C1757 C 0.95847 0.29002 0.74367 0.0
C1758 C 0.93297 0.2751 0.76446 0.0
C1759 C 0.96725 0.2912 0.76307 0.0
C1760 C 0.95904 0.28465 0.7831 0.0
C1761 C 0.93356 0.2707 0.80425 0.0
C1762 C 0.91637 0.263 0.80515 0.0
C1763 C 0.9419 0.27673 0.78404 0.0
C1764 C 0.90767 0.26109 0.78537 0.0
C1765 C 0.91587 0.26711 0.76527 0.0
H1766 H 0.72773 0.65889 0.74624 0.0
H1767 H 0.7495 0.71119 0.74123 0.0
H1768 H 0.76575 0.71471 0.77459 0.0
H1769 H 0.77361 0.70288 0.80522 0.0
H1770 H 0.75008 0.6504 0.81158 0.0
H1771 H 0.73503 0.64708 0.77738 0.0
C1772 C 0.73608 0.67107 0.7524 0.0
C1773 C 0.73745 0.68476 0.74125 0.0
C1774 C 0.74516 0.67298 0.77176 0.0
C1775 C 0.74821 0.70045 0.74954 0.0
C1776 C 0.75751 0.70247 0.76859 0.0
C1777 C 0.76508 0.69069 0.79933 0.0
C1778 C 0.76315 0.67694 0.81111 0.0
C1779 C 0.75603 0.68881 0.77991 0.0
C1780 C 0.75218 0.66127 0.80278 0.0
C1781 C 0.7434 0.65932 0.78327 0.0
H1782 H 0.75397 0.68357 0.63972 0.0
H1783 H 0.70564 0.65622 0.61143 0.0
H1784 H 0.71724 0.65388 0.57639 0.0
H1785 H 0.74105 0.66049 0.55339 0.0
H1786 H 0.78942 0.68653 0.582 0.0
H1787 H 0.77786 0.68877 0.61714 0.0
C1788 C 0.74599 0.67703 0.62591 0.0
C1789 C 0.72897 0.67012 0.62815 0.0
C1790 C 0.75274 0.67563 0.6058 0.0
C1791 C 0.71877 0.66162 0.61016 0.0
C1792 C 0.7254 0.66032 0.59008 0.0
C1793 C 0.74911 0.66639 0.56737 0.0
C1794 C 0.76614 0.67335 0.56486 0.0
C1795 C 0.74237 0.66736 0.58767 0.0
C1796 C 0.77631 0.68129 0.58319 0.0
C1797 C 0.76969 0.68248 0.6034 0.0
H1798 H 0.33454 0.07415 0.62961 0.0
H1799 H 0.37858 0.07272 0.61605 0.0
H1800 H 0.38237 0.08779 0.58145 0.0
H1801 H 0.37273 0.10078 0.55457 0.0
H1802 H 0.32842 0.1017 0.56814 0.0
H1803 H 0.32514 0.08738 0.60319 0.0
C1804 C 0.345 0.07718 0.61912 0.0
C1805 C 0.35626 0.07232 0.62538 0.0
C1806 C 0.34703 0.08572 0.59923 0.0
C1807 C 0.36973 0.0763 0.61159 0.0
C1808 C 0.3719 0.08493 0.59181 0.0
C1809 C 0.36246 0.09799 0.56534 0.0
C1810 C 0.35082 0.10228 0.55876 0.0
C1811 C 0.36059 0.08964 0.58542 0.0
C1812 C 0.33745 0.09839 0.57273 0.0
C1813 C 0.3356 0.09025 0.5928 0.0
H1814 H 0.95368 0.30236 0.61335 0.0
H1815 H 0.95807 0.26388 0.64526 0.0
H1816 H 0.94501 0.24599 0.61363 0.0
H1817 H 0.93316 0.24143 0.57647 0.0
H1818 H 0.92889 0.27966 0.54378 0.0
H1819 H 0.94077 0.29734 0.57623 0.0
C1820 C 0.9517 0.29004 0.61338 0.0
C1821 C 0.95693 0.28451 0.6316 0.0
C1822 C 0.94416 0.27974 0.59502 0.0
C1823 C 0.95423 0.26848 0.63144 0.0
C1824 C 0.94675 0.25822 0.61334 0.0
C1825 C 0.93487 0.25366 0.57641 0.0
C1826 C 0.93027 0.25926 0.55767 0.0
C1827 C 0.94183 0.26376 0.59497 0.0
C1828 C 0.93224 0.27501 0.55805 0.0
C1829 C 0.93913 0.28516 0.57654 0.0
H1830 H 0.36583 0.29417 0.62667 0.0
H1831 H 0.3144 0.27854 0.62731 0.0
H1832 H 0.31015 0.26231 0.59405 0.0
H1833 H 0.32082 0.25257 0.56474 0.0
H1834 H 0.3719 0.26681 0.5643 0.0
H1835 H 0.37652 0.2837 0.59725 0.0
C1836 C 0.35374 0.28724 0.61944 0.0
C1837 C 0.34047 0.28757 0.62946 0.0
C1838 C 0.35129 0.27768 0.60034 0.0
C1839 C 0.32482 0.27846 0.62 0.0
C1840 C 0.32236 0.26917 0.60095 0.0
C1841 C 0.33294 0.25913 0.572 0.0
C1842 C 0.34595 0.2583 0.56205 0.0
C1843 C 0.33546 0.26862 0.59105 0.0
C1844 C 0.36165 0.2673 0.57145 0.0
C1845 C 0.3643 0.27692 0.59038 0.0
H1846 H 0.75131 0.06421 0.63328 0.0
H1847 H 0.70871 0.06872 0.6218 0.0
H1848 H 0.72126 0.0846 0.58811 0.0
H1849 H 0.74407 0.09658 0.56145 0.0
H1850 H 0.78673 0.09224 0.57341 0.0
H1851 H 0.77433 0.07676 0.60728 0.0
C1852 C 0.74477 0.0687 0.62344 0.0
C1853 C 0.72908 0.06527 0.63001 0.0
C1854 C 0.75204 0.07778 0.60412 0.0
C1855 C 0.7208 0.07119 0.6171 0.0
C1856 C 0.72796 0.08026 0.59783 0.0
C1857 C 0.75075 0.09243 0.5716 0.0
C1858 C 0.76632 0.09556 0.56482 0.0
C1859 C 0.74355 0.08357 0.59114 0.0
C1860 C 0.77466 0.08983 0.57804 0.0
C1861 C 0.76761 0.08105 0.59748 0.0
H1862 H 0.96038 0.6967 0.62359 0.0
H1863 H 0.93899 0.64438 0.6268 0.0
H1864 H 0.92372 0.64139 0.5926 0.0
H1865 H 0.91679 0.65373 0.56158 0.0
H1866 H 0.93996 0.70628 0.55726 0.0
H1867 H 0.95389 0.70902 0.59231 0.0
C1868 C 0.9523 0.68463 0.61688 0.0
C1869 C 0.95077 0.67077 0.62772 0.0
C1870 C 0.94382 0.68303 0.59704 0.0
C1871 C 0.94038 0.65523 0.61872 0.0
C1872 C 0.93165 0.65352 0.59919 0.0
C1873 C 0.925 0.6658 0.56814 0.0
C1874 C 0.92717 0.67975 0.55669 0.0
C1875 C 0.93338 0.66736 0.58811 0.0
C1876 C 0.9377 0.69527 0.5658 0.0
C1877 C 0.94583 0.69689 0.58581 0.0
H1878 H 0.93479 0.67423 0.72573 0.0
H1879 H 0.9814 0.69699 0.75923 0.0
H1880 H 0.96805 0.69655 0.79421 0.0
H1881 H 0.94283 0.68752 0.81585 0.0
H1882 H 0.89623 0.66403 0.78232 0.0
H1883 H 0.90987 0.6669 0.7468 0.0
C1884 C 0.94206 0.67929 0.74062 0.0
C1885 C 0.95905 0.68557 0.7399 0.0
C1886 C 0.93428 0.67871 0.76072 0.0
C1887 C 0.96829 0.69206 0.75935 0.0
C1888 C 0.96066 0.69177 0.77937 0.0
C1889 C 0.9357 0.6833 0.80071 0.0
C1890 C 0.91853 0.67547 0.80175 0.0
C1891 C 0.94362 0.68481 0.78035 0.0
C1892 C 0.90944 0.6699 0.782 0.0
C1893 C 0.91723 0.67157 0.76168 0.0
H1894 H 0.34303 0.30242 0.76637 0.0
H1895 H 0.3259 0.26084 0.72288 0.0
H1896 H 0.32374 0.24352 0.75433 0.0
H1897 H 0.32807 0.24049 0.79401 0.0
H1898 H 0.34689 0.28249 0.83698 0.0
H1899 H 0.34712 0.29935 0.80605 0.0
C1900 C 0.33864 0.28953 0.76387 0.0
C1901 C 0.33455 0.28289 0.7424 0.0
C1902 C 0.33789 0.27975 0.78193 0.0
C1903 C 0.32911 0.26622 0.73929 0.0
C1904 C 0.3279 0.25632 0.75725 0.0
C1905 C 0.33209 0.2533 0.79657 0.0
C1906 C 0.33749 0.26026 0.81768 0.0
C1907 C 0.33246 0.26299 0.7786 0.0
C1908 C 0.34283 0.27691 0.82079 0.0
C1909 C 0.3429 0.28654 0.80315 0.0
H1910 H 0.73807 0.08329 0.73406 0.0
H1911 H 0.74261 0.04121 0.74945 0.0
H1912 H 0.75806 0.05471 0.78303 0.0
H1913 H 0.7689 0.07786 0.80909 0.0
H1914 H 0.76419 0.11983 0.79356 0.0
H1915 H 0.7501 0.10693 0.75904 0.0
C1916 C 0.74255 0.07711 0.74467 0.0
C1917 C 0.73915 0.06125 0.73931 0.0
C1918 C 0.75129 0.08488 0.76402 0.0
C1919 C 0.74505 0.05343 0.75321 0.0
C1920 C 0.75385 0.06112 0.77244 0.0
C1921 C 0.76502 0.08429 0.79798 0.0
C1922 C 0.76752 0.09976 0.804 0.0
C1923 C 0.75687 0.07677 0.77815 0.0
C1924 C 0.76221 0.10782 0.78952 0.0
C1925 C 0.75421 0.10048 0.76972 0.0
H1926 H 0.04063 0.34595 0.03994 0.0
H1927 H 0.06938 0.39849 0.03665 0.0
H1928 H 0.09192 0.39796 0.05572 0.0
H1929 H 0.10229 0.3828 0.07623 0.0
H1930 H 0.07477 0.33 0.07651 0.0
H1931 H 0.05282 0.33047 0.056 0.0
C1932 C 0.05193 0.35725 0.04318 0.0
C1933 C 0.05331 0.37224 0.03712 0.0
C1934 C 0.06494 0.35684 0.05387 0.0
C1935 C 0.06804 0.38679 0.04115 0.0
C1936 C 0.0809 0.3865 0.05215 0.0
C1937 C 0.09179 0.3713 0.07134 0.0
C1938 C 0.09026 0.35638 0.07844 0.0
C1939 C 0.07936 0.37161 0.05895 0.0
C1940 C 0.07623 0.34173 0.07203 0.0
C1941 C 0.06366 0.34196 0.06009 0.0
H1942 H 0.64026 0.69353 0.03594 0.0
H1943 H 0.68819 0.69918 0.04369 0.0
H1944 H 0.69789 0.72552 0.06173 0.0
H1945 H 0.69232 0.74596 0.07768 0.0
H1946 H 0.64439 0.74043 0.07089 0.0
H1947 H 0.6351 0.71499 0.05026 0.0
C1948 C 0.65287 0.70064 0.04133 0.0
C1949 C 0.66347 0.69438 0.03852 0.0
C1950 C 0.65833 0.71572 0.05207 0.0
C1951 C 0.67976 0.70368 0.04571 0.0
C1952 C 0.68532 0.71875 0.05607 0.0
C1953 C 0.67993 0.73939 0.07131 0.0
C1954 C 0.66909 0.74514 0.07582 0.0
C1955 C 0.67465 0.72475 0.05966 0.0
C1956 C 0.65296 0.73622 0.06784 0.0
C1957 C 0.64765 0.7217 0.05598 0.0
H1958 H 0.31306 0.97456 0.02401 0.0
H1959 H 0.34189 0.95727 0.05734 0.0
H1960 H 0.3177 0.93698 0.07734 0.0
H1961 H 0.28907 0.92616 0.08822 0.0
H1962 H 0.26006 0.94308 0.05442 0.0
H1963 H 0.28362 0.96153 0.03189 0.0
C1964 C 0.31399 0.96618 0.03539 0.0
C1965 C 0.32928 0.96752 0.03931 0.0
C1966 C 0.30004 0.95461 0.047 0.0
C1967 C 0.33027 0.95652 0.05404 0.0
C1968 C 0.31645 0.94496 0.06557 0.0
C1969 C 0.28774 0.93357 0.07558 0.0
C1970 C 0.2728 0.93334 0.07332 0.0
C1971 C 0.30135 0.94416 0.06259 0.0
C1972 C 0.27147 0.94323 0.05694 0.0
C1973 C 0.28493 0.95376 0.04394 0.0
H1974 H 0.39448 0.06244 0.98538 0.0
H1975 H 0.3466 0.04297 0.01443 0.0
H1976 H 0.34369 0.06479 0.99715 0.0
H1977 H 0.35413 0.08845 0.97189 0.0
H1978 H 0.40143 0.10662 0.94125 0.0
H1979 H 0.40527 0.08653 0.96137 0.0
C1980 C 0.38349 0.06308 0.98817 0.0
C1981 C 0.37077 0.05108 1.00114 0.0
C1982 C 0.38178 0.07546 0.97785 0.0
C1983 C 0.35658 0.05206 0.0045 0.0
C1984 C 0.35489 0.0645 0.99457 0.0
C1985 C 0.36528 0.08802 0.96959 0.0
C1986 C 0.37746 0.09916 0.95504 0.0
C1987 C 0.36729 0.0761 0.98085 0.0
C1988 C 0.39193 0.09849 0.95259 0.0
C1989 C 0.3941 0.08687 0.96395 0.0
H1990 H 0.95696 0.33095 0.00652 0.0
H1991 H 0.99482 0.32693 0.9722 0.0
H1992 H 0.97423 0.30301 0.95217 0.0
H1993 H 0.94557 0.28464 0.94209 0.0
H1994 H 0.90758 0.28909 0.97521 0.0
H1995 H 0.92806 0.31137 0.998 0.0
C1996 C 0.96068 0.3247 0.99487 0.0
C1997 C 0.97739 0.33075 0.99079 0.0
C1998 C 0.94874 0.31109 0.98306 0.0
C1999 C 0.98203 0.32256 0.97557 0.0
C2000 C 0.97026 0.30888 0.96408 0.0
C2001 C 0.94175 0.29026 0.95461 0.0
C2002 C 0.92508 0.28524 0.95692 0.0
C2003 C 0.95359 0.30323 0.96737 0.0
C2004 C 0.92035 0.29284 0.97298 0.0
C2005 C 0.93205 0.30557 0.98602 0.0
H2006 H 0.70127 0.65411 0.01311 0.0
H2007 H 0.67241 0.6404 0.95317 0.0
H2008 H 0.69577 0.64381 0.93173 0.0
H2009 H 0.72477 0.65247 0.92941 0.0
H2010 H 0.75445 0.66765 0.98855 0.0
H2011 H 0.7305 0.66198 0.01088 0.0
C2012 C 0.70009 0.65168 0.99542 0.0
C2013 C 0.68514 0.64701 0.98473 0.0
C2014 C 0.71376 0.65407 0.98301 0.0
C2015 C 0.6838 0.64407 0.96175 0.0
C2016 C 0.69716 0.64602 0.94946 0.0
C2017 C 0.72595 0.65426 0.94725 0.0
C2018 C 0.74135 0.66039 0.95732 0.0
C2019 C 0.71225 0.65127 0.95984 0.0
C2020 C 0.74274 0.663 0.98039 0.0
C2021 C 0.72904 0.65974 0.99316 0.0
H2022 H 0.98735 0.67289 0.97668 0.0
H2023 H 0.95499 0.62558 0.00517 0.0
H2024 H 0.93147 0.62568 0.98836 0.0
H2025 H 0.92028 0.63866 0.96396 0.0
H2026 H 0.95306 0.68565 0.93477 0.0
H2027 H 0.97612 0.68633 0.95379 0.0
C2028 C 0.97514 0.66265 0.97937 0.0
C2029 C 0.97294 0.64921 0.99207 0.0
C2030 C 0.96171 0.66274 0.96953 0.0
C2031 C 0.95702 0.63607 0.99544 0.0
C2032 C 0.94357 0.6361 0.98579 0.0
C2033 C 0.93247 0.64906 0.96177 0.0
C2034 C 0.93486 0.66208 0.94791 0.0
C2035 C 0.9458 0.64927 0.97252 0.0
C2036 C 0.95074 0.67556 0.94556 0.0
C2037 C 0.964 0.6759 0.95628 0.0
H2038 H 0.37616 0.32487 0.00387 0.0
H2039 H 0.34127 0.3305 0.96418 0.0
H2040 H 0.3328 0.30449 0.94601 0.0
H2041 H 0.33608 0.28088 0.93999 0.0
H2042 H 0.37084 0.27469 0.97904 0.0
H2043 H 0.37871 0.30026 0.99867 0.0
C2044 C 0.36663 0.32032 0.99136 0.0
C2045 C 0.35939 0.32964 0.98536 0.0
C2046 C 0.36187 0.30532 0.98075 0.0
C2047 C 0.34709 0.32361 0.96908 0.0
C2048 C 0.34222 0.30873 0.95865 0.0
C2049 C 0.34516 0.28491 0.9531 0.0
C2050 C 0.35276 0.27579 0.95813 0.0
C2051 C 0.34962 0.29957 0.9642 0.0
C2052 C 0.36484 0.28151 0.97475 0.0
C2053 C 0.36931 0.2961 0.98602 0.0
H2054 H 0.69547 0.06397 0.00174 0.0
H2055 H 0.68978 0.02237 0.96476 0.0
H2056 H 0.71427 0.03999 0.94339 0.0
H2057 H 0.73697 0.06709 0.9346 0.0
H2058 H 0.7434 0.10898 0.97145 0.0
H2059 H 0.71886 0.09142 0.99321 0.0
C2060 C 0.69963 0.05879 0.98903 0.0
C2061 C 0.69079 0.04187 0.98487 0.0
C2062 C 0.71381 0.06904 0.9767 0.0
C2063 C 0.69633 0.03534 0.96833 0.0
C2064 C 0.71035 0.04541 0.95607 0.0
C2065 C 0.73318 0.07239 0.94762 0.0
C2066 C 0.74212 0.08933 0.95146 0.0
C2067 C 0.71916 0.06225 0.96008 0.0
C2068 C 0.73672 0.096 0.96803 0.0
C2069 C 0.72271 0.08595 0.98055 0.0
H2070 H 0.63912 0.95614 0.04042 0.0
H2071 H 0.68353 0.99854 0.0627 0.0
H2072 H 0.69164 0.98109 0.08197 0.0
H2073 H 0.68598 0.95399 0.09325 0.0
H2074 H 0.6416 0.91127 0.0719 0.0
H2075 H 0.63353 0.92862 0.0517 0.0
C2076 C 0.65059 0.96152 0.04943 0.0
C2077 C 0.66071 0.97862 0.05011 0.0
C2078 C 0.65515 0.95137 0.0607 0.0
C2079 C 0.6755 0.98543 0.06194 0.0
C2080 C 0.68016 0.97546 0.07297 0.0
C2081 C 0.67465 0.94843 0.08391 0.0
C2082 C 0.66449 0.93135 0.08389 0.0
C2083 C 0.67008 0.95845 0.07251 0.0
C2084 C 0.64962 0.92439 0.0722 0.0
C2085 C 0.64503 0.9343 0.06061 0.0
H2086 H 0.03636 0.6989 0.05226 0.0
H2087 H 0.07112 0.6892 0.0194 0.0
H2088 H 0.09368 0.71317 0.03706 0.0
H2089 H 0.10342 0.73572 0.06403 0.0
H2090 H 0.06858 0.7453 0.09686 0.0
H2091 H 0.04622 0.72278 0.07675 0.0
C2092 C 0.04888 0.70213 0.04879 0.0
C2093 C 0.05206 0.6922 0.03471 0.0
C2094 C 0.06179 0.71592 0.05902 0.0
C2095 C 0.06834 0.69662 0.03022 0.0
C2096 C 0.08125 0.7103 0.04037 0.0
C2097 C 0.09094 0.73293 0.06663 0.0
C2098 C 0.08767 0.74213 0.082 0.0
C2099 C 0.07811 0.71986 0.05514 0.0
C2100 C 0.07146 0.73853 0.08498 0.0
C2101 C 0.05864 0.72555 0.07362 0.0
H2102 H 0.32724 0.35216 0.05805 0.0
H2103 H 0.33315 0.39163 0.01591 0.0
H2104 H 0.30961 0.3911 0.03356 0.0
H2105 H 0.28821 0.38034 0.06235 0.0
H2106 H 0.28309 0.34143 0.10515 0.0
H2107 H 0.30516 0.3406 0.08554 0.0
C2108 C 0.32331 0.36057 0.05261 0.0
C2109 C 0.33199 0.37198 0.03579 0.0
C2110 C 0.30984 0.36027 0.06292 0.0
C2111 C 0.3267 0.38275 0.02887 0.0
C2112 C 0.31325 0.38247 0.03898 0.0
C2113 C 0.2919 0.37166 0.06736 0.0
C2114 C 0.28393 0.36097 0.08524 0.0
C2115 C 0.30487 0.37144 0.05626 0.0
C2116 C 0.28876 0.34964 0.09127 0.0
C2117 C 0.30153 0.34926 0.08019 0.0
H2118 H 0.71471 0.70721 0.40529 0.0
H2119 H 0.72642 0.69632 0.34071 0.0
H2120 H 0.74737 0.69157 0.35728 0.0
H2121 H 0.7614 0.6892 0.39069 0.0
H2122 H 0.75031 0.70153 0.45476 0.0
H2123 H 0.73019 0.70717 0.43788 0.0
C2124 C 0.72192 0.70388 0.39484 0.0
C2125 C 0.71895 0.70194 0.37189 0.0
C2126 C 0.73405 0.70144 0.40442 0.0
C2127 C 0.72851 0.69787 0.35846 0.0
C2128 C 0.74044 0.6951 0.36793 0.0
C2129 C 0.75464 0.69326 0.40084 0.0
C2130 C 0.75729 0.69494 0.42391 0.0
C2131 C 0.74317 0.69665 0.39096 0.0
C2132 C 0.74857 0.7003 0.43694 0.0
C2133 C 0.737 0.70343 0.42732 0.0
H2134 H 0.31611 0.03477 0.36007 0.0
H2135 H 0.34772 0.02453 0.40027 0.0
H2136 H 0.35688 0.04986 0.42075 0.0
H2137 H 0.35508 0.07421 0.42846 0.0
H2138 H 0.32351 0.08479 0.38882 0.0
H2139 H 0.31504 0.05996 0.36709 0.0
C2140 C 0.3251 0.03817 0.3732 0.0
C2141 C 0.3312 0.02776 0.37864 0.0
C2142 C 0.33023 0.05273 0.38513 0.0
C2143 C 0.34279 0.03229 0.39576 0.0
C2144 C 0.34804 0.04677 0.40751 0.0
C2145 C 0.34656 0.07127 0.41482 0.0
C2146 C 0.34001 0.08142 0.41024 0.0
C2147 C 0.34174 0.057 0.40248 0.0
C2148 C 0.32866 0.07715 0.39283 0.0
C2149 C 0.32386 0.06298 0.38034 0.0
H2150 H 0.99321 0.29323 0.35734 0.0
H2151 H 0.99536 0.33161 0.39839 0.0
H2152 H 0.97157 0.31163 0.41923 0.0
H2153 H 0.95175 0.28318 0.42795 0.0
H2154 H 0.94926 0.24456 0.38709 0.0
H2155 H 0.97165 0.2647 0.36417 0.0
C2156 C 0.98832 0.29723 0.37064 0.0
C2157 C 0.99612 0.31388 0.37637 0.0
C2158 C 0.9747 0.28562 0.38278 0.0
C2159 C 0.98964 0.31887 0.39367 0.0
C2160 C 0.97605 0.30744 0.40565 0.0
C2161 C 0.9558 0.27913 0.41373 0.0
C2162 C 0.94883 0.26232 0.40938 0.0
C2163 C 0.96868 0.29077 0.40065 0.0
C2164 C 0.95454 0.25738 0.39108 0.0
C2165 C 0.96731 0.26891 0.37789 0.0
H2166 H 0.01998 0.38311 0.33514 0.0
H2167 H 0.07148 0.40252 0.32349 0.0
H2168 H 0.0729 0.42556 0.30322 0.0
H2169 H 0.05898 0.4386 0.28576 0.0
H2170 H 0.00773 0.42007 0.29891 0.0
H2171 H 0.00676 0.39817 0.32139 0.0
C2172 C 0.03156 0.39251 0.32842 0.0
C2173 C 0.04557 0.39104 0.33065 0.0
C2174 C 0.03229 0.40575 0.31677 0.0
C2175 C 0.06051 0.40337 0.32201 0.0
C2176 C 0.06131 0.4165 0.31031 0.0
C2177 C 0.04765 0.43008 0.29396 0.0
C2178 C 0.03339 0.43096 0.29024 0.0
C2179 C 0.04721 0.41762 0.30717 0.0
C2180 C 0.01883 0.41953 0.30089 0.0
C2181 C 0.01826 0.40703 0.31391 0.0
H2182 H 0.62632 0.65821 0.32854 0.0
H2183 H 0.66857 0.65298 0.31777 0.0
H2184 H 0.65153 0.62672 0.2997 0.0
H2185 H 0.62513 0.60623 0.28453 0.0
H2186 H 0.58276 0.61139 0.29417 0.0
H2187 H 0.59933 0.6367 0.31492 0.0
C2188 C 0.63173 0.6512 0.32249 0.0
C2189 C 0.64869 0.65755 0.32445 0.0
C2190 C 0.62187 0.63617 0.31169 0.0
C2191 C 0.65555 0.64839 0.31639 0.0
C2192 C 0.64583 0.63338 0.30602 0.0
C2193 C 0.61943 0.6127 0.29153 0.0
C2194 C 0.60272 0.6069 0.28779 0.0
C2195 C 0.62904 0.62728 0.30324 0.0
C2196 C 0.59563 0.61566 0.29662 0.0
C2197 C 0.60509 0.63011 0.30855 0.0
H2198 H 0.37007 0.00813 0.32541 0.0
H2199 H 0.34289 0.95548 0.32591 0.0
H2200 H 0.36553 0.95477 0.30737 0.0
H2201 H 0.39193 0.9691 0.28846 0.0
H2202 H 0.42034 0.02183 0.29095 0.0
H2203 H 0.39818 0.02247 0.3106 0.0
C2204 C 0.36921 0.99652 0.32162 0.0
C2205 C 0.35481 0.98187 0.32679 0.0
C2206 C 0.38237 0.99621 0.31128 0.0
C2207 C 0.35387 0.9669 0.32209 0.0
C2208 C 0.36678 0.9665 0.31141 0.0
C2209 C 0.39361 0.98078 0.29375 0.0
C2210 C 0.40787 0.99541 0.28775 0.0
C2211 C 0.38098 0.98108 0.30562 0.0
C2212 C 0.40942 0.01035 0.29462 0.0
C2213 C 0.39676 0.01075 0.30607 0.0
H2214 H 0.62739 0.97852 0.33751 0.0
H2215 H 0.66821 0.0137 0.29839 0.0
H2216 H 0.65026 0.0205 0.27787 0.0
H2217 H 0.62306 0.01605 0.27011 0.0
H2218 H 0.58186 0.98126 0.30889 0.0
H2219 H 0.5998 0.97455 0.33018 0.0
C2220 C 0.63233 0.98772 0.32457 0.0
C2221 C 0.64913 0.99557 0.31951 0.0
C2222 C 0.62187 0.99158 0.31265 0.0
C2223 C 0.65534 0.00744 0.30264 0.0
C2224 C 0.64508 0.01135 0.29085 0.0
C2225 C 0.61799 0.00719 0.28347 0.0
C2226 C 0.60113 0.99928 0.28797 0.0
C2227 C 0.62835 0.00346 0.29563 0.0
C2228 C 0.59477 0.98748 0.30495 0.0
C2229 C 0.60504 0.98369 0.3172 0.0
H2230 H 0.05658 0.66746 0.32115 0.0
H2231 H 0.00772 0.64988 0.34567 0.0
H2232 H 0.99845 0.62355 0.32759 0.0
H2233 H 0.00391 0.60606 0.30334 0.0
H2234 H 0.05224 0.62474 0.27575 0.0
H2235 H 0.06207 0.6498 0.297 0.0
C2236 C 0.04396 0.65778 0.32274 0.0
C2237 C 0.03285 0.66058 0.33474 0.0
C2238 C 0.0386 0.64282 0.31177 0.0
C2239 C 0.01649 0.64801 0.33647 0.0
C2240 C 0.01118 0.63297 0.32613 0.0
C2241 C 0.01657 0.61562 0.30178 0.0
C2242 C 0.02723 0.61335 0.28781 0.0
C2243 C 0.02207 0.63033 0.31341 0.0
C2244 C 0.04372 0.62586 0.28658 0.0
C2245 C 0.04937 0.64034 0.29858 0.0
H2246 H 0.36652 0.36991 0.31259 0.0
H2247 H 0.35875 0.40458 0.34921 0.0
H2248 H 0.38227 0.42718 0.33078 0.0
H2249 H 0.40401 0.43704 0.30248 0.0
H2250 H 0.41167 0.40224 0.26601 0.0
H2251 H 0.38943 0.37979 0.28637 0.0
C2252 C 0.37006 0.38241 0.31668 0.0
C2253 C 0.36083 0.38556 0.33211 0.0
C2254 C 0.38359 0.39534 0.30602 0.0
C2255 C 0.36565 0.40183 0.33736 0.0
C2256 C 0.37906 0.41476 0.32678 0.0
C2257 C 0.40084 0.42454 0.2991 0.0
C2258 C 0.40945 0.42133 0.2827 0.0
C2259 C 0.38795 0.41166 0.3108 0.0
C2260 C 0.40536 0.40508 0.27869 0.0
C2261 C 0.39255 0.39221 0.29021 0.0
H2262 H 0.34471 0.32149 0.38827 0.0
H2263 H 0.29729 0.28916 0.35997 0.0
H2264 H 0.29767 0.26561 0.376 0.0
H2265 H 0.31056 0.25444 0.40052 0.0
H2266 H 0.35782 0.28699 0.42916 0.0
H2267 H 0.35855 0.31012 0.41019 0.0
C2268 C 0.33453 0.30927 0.38541 0.0
C2269 C 0.32093 0.30709 0.37313 0.0
C2270 C 0.3348 0.29581 0.39476 0.0
C2271 C 0.30789 0.29118 0.36941 0.0
C2272 C 0.30808 0.2777 0.37863 0.0
C2273 C 0.32106 0.26659 0.40247 0.0
C2274 C 0.33407 0.26897 0.41634 0.0
C2275 C 0.32132 0.27991 0.39173 0.0
C2276 C 0.34771 0.28476 0.41843 0.0
C2277 C 0.34808 0.29804 0.40774 0.0
H2278 H 0.71336 0.04204 0.36438 0.0
H2279 H 0.73268 0.01276 0.39066 0.0
H2280 H 0.75303 0.03615 0.41201 0.0
H2281 H 0.76368 0.06417 0.4256 0.0
H2282 H 0.74507 0.09377 0.39796 0.0
H2283 H 0.72601 0.07094 0.37493 0.0
C2284 C 0.72215 0.04084 0.37459 0.0
C2285 C 0.72144 0.02567 0.3761 0.0
C2286 C 0.73381 0.05433 0.38679 0.0
C2287 C 0.73298 0.02432 0.38923 0.0
C2288 C 0.74457 0.03767 0.40152 0.0
C2289 C 0.75574 0.06581 0.41421 0.0
C2290 C 0.75571 0.08069 0.41387 0.0
C2291 C 0.74489 0.05265 0.40075 0.0
C2292 C 0.74513 0.08238 0.39908 0.0
C2293 C 0.73426 0.06934 0.38576 0.0
H2294 H 0.99386 0.70575 0.35854 0.0
H2295 H 0.01753 0.70896 0.42109 0.0
H2296 H 0.9944 0.70739 0.44111 0.0
H2297 H 0.96672 0.70321 0.44113 0.0
H2298 H 0.94161 0.69754 0.37921 0.0
H2299 H 0.96593 0.70203 0.35863 0.0
C2300 C 0.99396 0.70628 0.37653 0.0
C2301 C 0.00735 0.70746 0.38834 0.0
C2302 C 0.98033 0.70488 0.38804 0.0
C2303 C 0.00731 0.70796 0.41165 0.0
C2304 C 0.9941 0.70708 0.42312 0.0
C2305 C 0.9667 0.70328 0.42312 0.0
C2306 C 0.95252 0.70025 0.41166 0.0
C2307 C 0.98046 0.7053 0.41153 0.0
C2308 C 0.95247 0.69994 0.38834 0.0
C2309 C 0.96634 0.70246 0.37661 0.0
H2310 H 0.40048 0.04921 0.70207 0.0
H2311 H 0.35669 0.0066 0.72536 0.0
H2312 H 0.37311 0.9974 0.74516 0.0
H2313 H 0.39976 0.00206 0.75742 0.0
H2314 H 0.44374 0.04508 0.73576 0.0
H2315 H 0.42744 0.05359 0.71386 0.0
C2316 C 0.39457 0.03784 0.71133 0.0
C2317 C 0.3774 0.0286 0.71225 0.0
C2318 C 0.40411 0.03276 0.72307 0.0
C2319 C 0.36989 0.01397 0.72445 0.0
C2320 C 0.37926 0.00869 0.73578 0.0
C2321 C 0.4058 0.01317 0.74762 0.0
C2322 C 0.42293 0.02288 0.74808 0.0
C2323 C 0.39636 0.01807 0.73541 0.0
C2324 C 0.43056 0.03743 0.73571 0.0
C2325 C 0.42125 0.04227 0.72318 0.0
H2326 H 0.00743 0.36736 0.72048 0.0
H2327 H 0.96057 0.35165 0.69 0.0
H2328 H 0.96005 0.37516 0.70602 0.0
H2329 H 0.97214 0.39915 0.73088 0.0
H2330 H 0.01898 0.41448 0.76129 0.0
H2331 H 0.0204 0.39235 0.74279 0.0
C2332 C 0.99716 0.36915 0.71718 0.0
C2333 C 0.98398 0.35771 0.70426 0.0
C2334 C 0.99695 0.38265 0.72643 0.0
C2335 C 0.97085 0.36028 0.69994 0.0
C2336 C 0.97052 0.37369 0.70915 0.0
C2337 C 0.9827 0.3977 0.73331 0.0
C2338 C 0.99541 0.40846 0.74751 0.0
C2339 C 0.98338 0.38479 0.72277 0.0
C2340 C 0.00911 0.40653 0.75027 0.0
C2341 C 0.00988 0.39377 0.73985 0.0
H2342 H 0.65025 0.65373 0.70439 0.0
H2343 H 0.67439 0.62727 0.72374 0.0
H2344 H 0.64983 0.60721 0.74341 0.0
H2345 H 0.62212 0.59813 0.75675 0.0
H2346 H 0.59689 0.62296 0.73418 0.0
H2347 H 0.6213 0.64278 0.71441 0.0
C2348 C 0.65006 0.64352 0.71285 0.0
C2349 C 0.66411 0.64203 0.71283 0.0
C2350 C 0.63576 0.63181 0.72369 0.0
C2351 C 0.66369 0.62864 0.72354 0.0
C2352 C 0.64967 0.6172 0.73483 0.0
C2353 C 0.62171 0.60759 0.74713 0.0
C2354 C 0.60758 0.60906 0.74743 0.0
C2355 C 0.63567 0.61874 0.73518 0.0
C2356 C 0.60763 0.62169 0.73495 0.0
C2357 C 0.62159 0.63302 0.72343 0.0
H2358 H 0.68588 0.70165 0.63526 0.0
H2359 H 0.7221 0.73501 0.6815 0.0
H2360 H 0.7219 0.75803 0.66332 0.0
H2361 H 0.71232 0.76879 0.63316 0.0
H2362 H 0.67674 0.73523 0.58633 0.0
H2363 H 0.67559 0.71225 0.60612 0.0
C2364 C 0.69365 0.71395 0.64148 0.0
C2365 C 0.70404 0.71661 0.65965 0.0
C2366 C 0.69356 0.72712 0.63085 0.0
C2367 C 0.714 0.73262 0.66751 0.0
C2368 C 0.71391 0.7458 0.6571 0.0
C2369 C 0.70431 0.75645 0.62727 0.0
C2370 C 0.69462 0.75383 0.60823 0.0
C2371 C 0.7039 0.74322 0.63855 0.0
C2372 C 0.68415 0.73769 0.60109 0.0
C2373 C 0.68359 0.7245 0.6123 0.0
H2374 H 0.3205 0.99299 0.64678 0.0
H2375 H 0.28939 0.01025 0.67275 0.0
H2376 H 0.26552 0.98701 0.65582 0.0
H2377 H 0.25376 0.96255 0.63196 0.0
H2378 H 0.28515 0.94561 0.6059 0.0
H2379 H 0.30855 0.96777 0.62489 0.0
C2380 C 0.30848 0.99162 0.64885 0.0
C2381 C 0.30673 0.00339 0.66084 0.0
C2382 C 0.29485 0.97825 0.6391 0.0
C2383 C 0.29106 1.00137 0.66355 0.0
C2384 C 0.27742 0.9881 0.65384 0.0
C2385 C 0.26572 0.96368 0.63051 0.0
C2386 C 0.26768 0.95244 0.61746 0.0
C2387 C 0.27921 0.97659 0.64131 0.0
C2388 C 0.28322 0.95395 0.61602 0.0
C2389 C 0.29666 0.96672 0.62673 0.0
H2390 H 0.02168 0.30253 0.6521 0.0
H2391 H 0.04005 0.35237 0.6725 0.0
H2392 H 0.06651 0.36042 0.65544 0.0
H2393 H 0.08376 0.3536 0.63307 0.0
H2394 H 0.06396 0.30452 0.60772 0.0
H2395 H 0.03905 0.29578 0.62897 0.0
C2396 C 0.0316 0.31508 0.65303 0.0
C2397 C 0.02906 0.32685 0.66363 0.0
C2398 C 0.04653 0.31975 0.64231 0.0
C2399 C 0.04181 0.34314 0.66442 0.0
C2400 C 0.0569 0.34773 0.65466 0.0
C2401 C 0.07399 0.34101 0.63184 0.0
C2402 C 0.07592 0.32985 0.61851 0.0
C2403 C 0.05929 0.3362 0.64318 0.0
C2404 C 0.06314 0.31346 0.61799 0.0
C2405 C 0.04872 0.30843 0.62999 0.0
H2406 H 0.29089 0.30834 0.68121 0.0
H2407 H 0.33002 0.34824 0.64529 0.0
H2408 H 0.31028 0.35282 0.62515 0.0
H2409 H 0.28186 0.34372 0.61501 0.0
H2410 H 0.24259 0.30324 0.64986 0.0
H2411 H 0.26237 0.30066 0.67312 0.0
C2412 C 0.29509 0.31821 0.66925 0.0
C2413 C 0.31189 0.32788 0.66468 0.0
C2414 C 0.28363 0.32056 0.65735 0.0
C2415 C 0.31715 0.34057 0.64905 0.0
C2416 C 0.30587 0.34318 0.63747 0.0
C2417 C 0.27761 0.33458 0.62803 0.0
C2418 C 0.26077 0.32364 0.63062 0.0
C2419 C 0.28906 0.333 0.64109 0.0
C2420 C 0.2555 0.31169 0.64736 0.0
C2421 C 0.2668 0.31022 0.66068 0.0
H2422 H 0.71889 0.9968 0.65039 0.0
H2423 H 0.66863 0.98077 0.66628 0.0
H2424 H 0.65993 0.95453 0.6483 0.0
H2425 H 0.66645 0.93664 0.62685 0.0
H2426 H 0.71638 0.95398 0.60679 0.0
H2427 H 0.72537 0.97885 0.62818 0.0
C2428 C 0.70607 0.98746 0.65007 0.0
C2429 C 0.69441 0.99064 0.65966 0.0
C2430 C 0.70109 0.97259 0.63902 0.0
C2431 C 0.67781 0.97858 0.65892 0.0
C2432 C 0.67283 0.96358 0.64866 0.0
C2433 C 0.67929 0.94588 0.62685 0.0
C2434 C 0.69062 0.94325 0.61501 0.0
C2435 C 0.68434 0.96055 0.63836 0.0
C2436 C 0.70729 0.95534 0.61595 0.0
C2437 C 0.71248 0.96974 0.62802 0.0
H2438 H 0.0172 0.71044 0.62681 0.0
H2439 H 0.03512 0.72404 0.69373 0.0
H2440 H 0.06143 0.74573 0.67949 0.0
H2441 H 0.07962 0.76027 0.64768 0.0
H2442 H 0.06089 0.74677 0.58102 0.0
H2443 H 0.03458 0.72576 0.59548 0.0
C2444 C 0.02686 0.71816 0.63829 0.0
C2445 C 0.02431 0.71556 0.66126 0.0
C2446 C 0.04179 0.73068 0.63001 0.0
C2447 C 0.03684 0.7258 0.67595 0.0
C2448 C 0.05187 0.73818 0.66781 0.0
C2449 C 0.06973 0.75276 0.63639 0.0
C2450 C 0.0722 0.75512 0.61331 0.0
C2451 C 0.05454 0.74065 0.64484 0.0
C2452 C 0.05925 0.74538 0.59885 0.0
C2453 C 0.04423 0.73326 0.60709 0.0
H2454 H 0.00746 0.64533 0.69002 0.0
H2455 H 0.9606 0.6257 0.72229 0.0
H2456 H 0.96474 0.60508 0.74073 0.0
H2457 H 0.98268 0.59424 0.75023 0.0
H2458 H 0.02932 0.61337 0.7174 0.0
H2459 H 0.02426 0.63259 0.69674 0.0
C2460 C 0.99808 0.63642 0.70089 0.0
C2461 C 0.98381 0.63714 0.70492 0.0
C2462 C 1.00056 0.6246 0.71151 0.0
C2463 C 0.97172 0.62545 0.71894 0.0
C2464 C 0.9741 0.61367 0.72955 0.0
C2465 C 0.99159 0.60232 0.73818 0.0
C2466 C 0.00645 0.60242 0.73561 0.0
C2467 C 0.9886 0.61333 0.7263 0.0
C2468 C 0.01792 0.6132 0.72008 0.0
C2469 C 0.01501 0.62418 0.70818 0.0
H2470 H 0.38018 0.37117 0.70491 0.0
H2471 H 0.40084 0.33999 0.7138 0.0
H2472 H 0.42454 0.36215 0.73258 0.0
H2473 H 0.43817 0.38955 0.74912 0.0
H2474 H 0.41815 0.42121 0.73851 0.0
H2475 H 0.39533 0.39959 0.71801 0.0
C2476 C 0.38997 0.36929 0.71076 0.0
C2477 C 0.3887 0.35392 0.70813 0.0
C2478 C 0.40357 0.38209 0.72147 0.0
C2479 C 0.40152 0.3517 0.71561 0.0
C2480 C 0.41504 0.36435 0.72644 0.0
C2481 C 0.42907 0.39194 0.74193 0.0
C2482 C 0.42988 0.40704 0.74574 0.0
C2483 C 0.41605 0.37951 0.72982 0.0
C2484 C 0.41772 0.40965 0.73642 0.0
C2485 C 0.40468 0.3973 0.72453 0.0
H2486 H 0.65947 0.042 0.70184 0.0
H2487 H 0.66774 0.00971 0.74354 0.0
H2488 H 0.64321 0.00279 0.76471 0.0
H2489 H 0.61951 0.00579 0.77165 0.0
H2490 H 0.61045 0.03766 0.73038 0.0
H2491 H 0.63529 0.04506 0.70905 0.0
C2492 C 0.65588 0.03346 0.71556 0.0
C2493 C 0.66543 0.02637 0.72105 0.0
C2494 C 0.64165 0.02949 0.72781 0.0
C2495 C 0.66063 0.01535 0.73891 0.0
C2496 C 0.64659 0.01136 0.75107 0.0
C2497 C 0.62282 0.01421 0.75781 0.0
C2498 C 0.61301 0.021 0.75247 0.0
C2499 C 0.637 0.01831 0.74564 0.0
C2500 C 0.61779 0.03227 0.73488 0.0
C2501 C 0.63196 0.03644 0.72262 0.0
loop_
_geom_bond_atom_site_label_1
_geom_bond_atom_site_label_2
_geom_bond_distance
_geom_bond_site_symmetry_2
_ccdc_geom_bond_type
In0 O1 2.301 . S
In0 O2 2.326 . S
In0 O6 2.266 1_455 S
In0 O7 2.326 1_554 S
In0 O8 2.266 1_554 S
In0 O9 2.326 1_454 S
In0 O11 2.294 . S
In0 O12 2.326 . S
O1 In0 2.301 . S
O1 C10 1.246 . S
O2 In0 2.326 . S
O2 C10 1.252 . S
C3 O6 1.252 1_556 S
C3 O7 1.260 1_655 S
C4 O11 1.240 . S
C4 O12 1.252 . S
C5 O8 1.252 . S
C5 O9 1.260 1_455 S
O6 In0 2.266 1_655 S
O6 C3 1.252 1_554 S
O7 In0 2.326 1_556 S
O7 C3 1.260 1_455 S
O8 In0 2.266 1_556 S
O8 C5 1.252 . S
O9 In0 2.326 1_656 S
O9 C5 1.260 1_655 S
C10 O1 1.246 . S
C10 O2 1.252 . S
O11 In0 2.294 . S
O11 C4 1.240 . S
O12 In0 2.326 . S
O12 C4 1.252 . S
In13 O14 2.294 . S
In13 O15 2.326 . S
In13 O19 2.266 . S
In13 O20 2.326 1_554 S
In13 O21 2.266 1_554 S
In13 O22 2.326 1_554 S
In13 O24 2.294 . S
In13 O25 2.326 . S
O14 In13 2.294 . S
O14 C23 1.240 . S
O15 In13 2.326 . S
O15 C23 1.252 . S
C16 O19 1.252 1_556 S
C16 O20 1.260 . S
C17 O24 1.240 . S
C17 O25 1.252 . S
C18 O21 1.252 . S
C18 O22 1.260 . S
O19 In13 2.266 . S
O19 C16 1.252 1_554 S
O20 In13 2.326 1_556 S
O20 C16 1.260 . S
O21 In13 2.266 1_556 S
O21 C18 1.252 . S
O22 In13 2.326 1_556 S
O22 C18 1.260 . S
C23 O14 1.240 . S
C23 O15 1.252 . S
O24 In13 2.294 . S
O24 C17 1.240 . S
O25 In13 2.326 . S
O25 C17 1.252 . S
In26 O27 2.294 . S
In26 O28 2.326 1_554 S
In26 O32 2.266 . S
In26 O33 2.326 1_545 S
In26 O34 2.266 1_545 S
In26 O35 2.326 . S
In26 O37 2.328 1_554 S
In26 O38 2.326 1_554 S
O27 In26 2.294 . S
O27 C36 1.240 1_554 S
O28 In26 2.326 1_556 S
O28 C36 1.252 . S
C29 O32 1.252 . S
C29 O33 1.260 1_545 S
C30 O37 1.271 . S
C30 O38 1.252 . S
C31 O34 1.252 . S
C31 O35 1.260 1_565 S
O32 In26 2.266 . S
O32 C29 1.252 . S
O33 In26 2.326 1_565 S
O33 C29 1.260 1_565 S
O34 In26 2.266 1_565 S
O34 C31 1.252 . S
O35 In26 2.326 . S
O35 C31 1.260 1_545 S
C36 O27 1.240 1_556 S
C36 O28 1.252 . S
O37 In26 2.328 1_556 S
O37 C30 1.271 . S
O38 In26 2.326 1_556 S
O38 C30 1.252 . S
In39 O40 2.294 1_554 S
In39 O41 2.326 1_454 S
In39 O45 2.266 . S
In39 O46 2.326 . S
In39 O47 2.268 . S
In39 O48 2.326 . S
In39 O50 2.294 1_455 S
In39 O51 2.370 1_554 S
O40 In39 2.294 1_556 S
O40 C49 1.240 . S
O41 In39 2.326 1_656 S
O41 C49 1.252 1_655 S
C42 O45 1.252 . S
C42 O46 1.260 . S
C43 O50 1.240 1_556 S
C43 O51 1.194 1_655 S
C44 O47 1.270 . S
C44 O48 1.260 . S
O45 In39 2.266 . S
O45 C42 1.252 . S
O46 In39 2.326 . S
O46 C42 1.260 . S
O47 In39 2.268 . S
O47 C44 1.270 . S
O48 In39 2.326 . S
O48 C44 1.260 . S
C49 O40 1.240 . S
C49 O41 1.252 1_455 S
O50 In39 2.294 1_655 S
O50 C43 1.240 1_554 S
O51 In39 2.370 1_556 S
O51 C43 1.194 1_455 S
In52 O53 2.294 1_554 S
In52 O54 2.326 1_554 S
In52 O58 2.266 . S
In52 O59 2.326 . S
In52 O60 2.266 . S
In52 O61 2.326 . S
In52 O63 2.294 . S
In52 O64 2.326 1_554 S
O53 In52 2.294 1_556 S
O53 C62 1.240 . S
O54 In52 2.326 1_556 S
O54 C62 1.252 . S
C55 O58 1.252 . S
C55 O59 1.260 . S
C56 O63 1.240 1_556 S
C56 O64 1.252 . S
C57 O60 1.252 . S
C57 O61 1.260 . S
O58 In52 2.266 . S
O58 C55 1.252 . S
O59 In52 2.326 . S
O59 C55 1.260 . S
O60 In52 2.266 . S
O60 C57 1.252 . S
O61 In52 2.326 . S
O61 C57 1.260 . S
C62 O53 1.240 . S
C62 O54 1.252 . S
O63 In52 2.294 . S
O63 C56 1.240 1_554 S
O64 In52 2.326 1_556 S
O64 C56 1.252 . S
In65 O66 2.294 . S
In65 O67 2.326 1_545 S
In65 O71 2.266 . S
In65 O72 2.326 1_554 S
In65 O73 2.273 1_554 S
In65 O74 2.326 1_554 S
In65 O76 2.294 1_545 S
In65 O77 2.326 . S
O66 In65 2.294 . S
O66 C75 1.240 . S
O67 In65 2.326 1_565 S
O67 C75 1.252 1_565 S
C68 O71 1.252 1_556 S
C68 O72 1.260 . S
C69 O76 1.240 . S
C69 O77 1.252 1_565 S
C70 O73 1.303 . S
C70 O74 1.260 . S
O71 In65 2.266 . S
O71 C68 1.252 1_554 S
O72 In65 2.326 1_556 S
O72 C68 1.260 . S
O73 In65 2.273 1_556 S
O73 C70 1.303 . S
O74 In65 2.326 1_556 S
O74 C70 1.260 . S
C75 O66 1.240 . S
C75 O67 1.252 1_545 S
O76 In65 2.294 1_565 S
O76 C69 1.240 . S
O77 In65 2.326 . S
O77 C69 1.252 1_545 S
In78 O79 2.294 . S
In78 O80 2.326 . S
In78 O84 2.266 . S
In78 O85 2.326 . S
In78 O86 2.266 . S
In78 O87 2.326 . S
In78 O89 2.294 . S
In78 O90 2.326 . S
O79 In78 2.294 . S
O79 C88 1.240 . S
O80 In78 2.326 . S
O80 C88 1.252 . S
C81 O84 1.252 . S
C81 O85 1.260 . S
C82 O89 1.240 . S
C82 O90 1.252 . S
C83 O86 1.252 . S
C83 O87 1.260 . S
O84 In78 2.266 . S
O84 C81 1.252 . S
O85 In78 2.326 . S
O85 C81 1.260 . S
O86 In78 2.266 . S
O86 C83 1.252 . S
O87 In78 2.326 . S
O87 C83 1.260 . S
C88 O79 1.240 . S
C88 O80 1.252 . S
O89 In78 2.294 . S
O89 C82 1.240 . S
O90 In78 2.326 . S
O90 C82 1.252 . S
In91 O92 2.294 . S
In91 O93 2.326 . S
In91 O97 2.266 . S
In91 O98 2.326 . S
In91 O99 2.266 . S
In91 O100 2.326 . S
In91 O102 2.294 1_565 S
In91 O103 2.326 1_565 S
O92 In91 2.294 . S
O92 C101 1.240 . S
O93 In91 2.326 . S
O93 C101 1.252 . S
C94 O97 1.252 . S
C94 O98 1.260 . S
C95 O102 1.240 . S
C95 O103 1.252 . S
C96 O99 1.252 . S
C96 O100 1.260 . S
O97 In91 2.266 . S
O97 C94 1.252 . S
O98 In91 2.326 . S
O98 C94 1.260 . S
O99 In91 2.266 . S
O99 C96 1.252 . S
O100 In91 2.326 . S
O100 C96 1.260 . S
C101 O92 1.240 . S
C101 O93 1.252 . S
O102 In91 2.294 1_545 S
O102 C95 1.240 . S
O103 In91 2.326 1_545 S
O103 C95 1.252 . S
In104 O105 2.294 . S
In104 O106 2.326 . S
In104 O110 2.266 . S
In104 O111 2.326 . S
In104 O112 2.266 . S
In104 O113 2.326 . S
In104 O115 2.294 . S
In104 O116 2.326 . S
O105 In104 2.294 . S
O105 C114 1.240 . S
O106 In104 2.326 . S
O106 C114 1.252 . S
C107 O110 1.252 . S
C107 O111 1.260 . S
C108 O115 1.240 . S
C108 O116 1.252 . S
C109 O112 1.252 . S
C109 O113 1.260 . S
O110 In104 2.266 . S
O110 C107 1.252 . S
O111 In104 2.326 . S
O111 C107 1.260 . S
O112 In104 2.266 . S
O112 C109 1.252 . S
O113 In104 2.326 . S
O113 C109 1.260 . S
C114 O105 1.240 . S
C114 O106 1.252 . S
O115 In104 2.294 . S
O115 C108 1.240 . S
O116 In104 2.326 . S
O116 C108 1.252 . S
In117 O118 2.294 . S
In117 O119 2.326 . S
In117 O123 2.266 1_565 S
In117 O124 2.326 1_565 S
In117 O125 2.266 . S
In117 O126 2.326 . S
In117 O128 2.294 . S
In117 O129 2.326 . S
O118 In117 2.294 . S
O118 C127 1.240 . S
O119 In117 2.326 . S
O119 C127 1.252 . S
C120 O123 1.252 . S
C120 O124 1.260 . S
C121 O128 1.240 . S
C121 O129 1.252 . S
C122 O125 1.252 . S
C122 O126 1.260 . S
O123 In117 2.266 1_545 S
O123 C120 1.252 . S
O124 In117 2.326 1_545 S
O124 C120 1.260 . S
O125 In117 2.266 . S
O125 C122 1.252 . S
O126 In117 2.326 . S
O126 C122 1.260 . S
C127 O118 1.240 . S
C127 O119 1.252 . S
O128 In117 2.294 . S
O128 C121 1.240 . S
O129 In117 2.326 . S
O129 C121 1.252 . S
In130 O131 2.294 . S
In130 O132 2.326 . S
In130 O136 2.266 . S
In130 O137 2.326 . S
In130 O138 2.266 . S
In130 O139 2.326 . S
In130 O141 2.294 . S
In130 O142 2.326 . S
O131 In130 2.294 . S
O131 C140 1.240 . S
O132 In130 2.326 . S
O132 C140 1.252 . S
C133 O136 1.252 . S
C133 O137 1.260 . S
C134 O141 1.240 . S
C134 O142 1.252 . S
C135 O138 1.252 . S
C135 O139 1.260 . S
O136 In130 2.266 . S
O136 C133 1.252 . S
O137 In130 2.326 . S
O137 C133 1.260 . S
O138 In130 2.266 . S
O138 C135 1.252 . S
O139 In130 2.326 . S
O139 C135 1.260 . S
C140 O131 1.240 . S
C140 O132 1.252 . S
O141 In130 2.294 . S
O141 C134 1.240 . S
O142 In130 2.326 . S
O142 C134 1.252 . S
In143 O144 2.294 . S
In143 O145 2.326 . S
In143 O149 2.266 . S
In143 O150 2.326 . S
In143 O151 2.266 . S
In143 O152 2.326 . S
In143 O154 2.294 . S
In143 O155 2.326 . S
O144 In143 2.294 . S
O144 C153 1.240 . S
O145 In143 2.326 . S
O145 C153 1.252 . S
C146 O149 1.252 . S
C146 O150 1.260 . S
C147 O154 1.240 . S
C147 O155 1.252 . S
C148 O151 1.252 . S
C148 O152 1.260 . S
O149 In143 2.266 . S
O149 C146 1.252 . S
O150 In143 2.326 . S
O150 C146 1.260 . S
O151 In143 2.266 . S
O151 C148 1.252 . S
O152 In143 2.326 . S
O152 C148 1.260 . S
C153 O144 1.240 . S
C153 O145 1.252 . S
O154 In143 2.294 . S
O154 C147 1.240 . S
O155 In143 2.326 . S
O155 C147 1.252 . S
In156 O157 2.294 . S
In156 O158 2.326 . S
In156 O162 2.266 . S
In156 O163 2.326 . S
In156 O164 2.266 . S
In156 O165 2.326 . S
In156 O167 2.294 . S
In156 O168 2.326 . S
O157 In156 2.294 . S
O157 C166 1.240 . S
O158 In156 2.326 . S
O158 C166 1.252 . S
C159 O162 1.252 . S
C159 O163 1.260 . S
C160 O167 1.240 . S
C160 O168 1.252 . S
C161 O164 1.252 . S
C161 O165 1.260 . S
O162 In156 2.266 . S
O162 C159 1.252 . S
O163 In156 2.326 . S
O163 C159 1.260 . S
O164 In156 2.266 . S
O164 C161 1.252 . S
O165 In156 2.326 . S
O165 C161 1.260 . S
C166 O157 1.240 . S
C166 O158 1.252 . S
O167 In156 2.294 . S
O167 C160 1.240 . S
O168 In156 2.326 . S
O168 C160 1.252 . S
In169 O170 2.294 . S
In169 O171 2.326 . S
In169 O175 2.266 . S
In169 O176 2.326 . S
In169 O177 2.266 1_655 S
In169 O178 2.326 1_655 S
In169 O180 2.294 . S
In169 O181 2.326 . S
O170 In169 2.294 . S
O170 C179 1.240 . S
O171 In169 2.326 . S
O171 C179 1.252 . S
C172 O175 1.252 . S
C172 O176 1.260 . S
C173 O180 1.240 . S
C173 O181 1.252 . S
C174 O177 1.252 . S
C174 O178 1.260 . S
O175 In169 2.266 . S
O175 C172 1.252 . S
O176 In169 2.326 . S
O176 C172 1.260 . S
O177 In169 2.266 1_455 S
O177 C174 1.252 . S
O178 In169 2.326 1_455 S
O178 C174 1.260 . S
C179 O170 1.240 . S
C179 O171 1.252 . S
O180 In169 2.294 . S
O180 C173 1.240 . S
O181 In169 2.326 . S
O181 C173 1.252 . S
In182 O183 2.294 . S
In182 O184 2.326 . S
In182 O188 2.266 . S
In182 O189 2.326 . S
In182 O190 2.266 . S
In182 O191 2.326 . S
In182 O193 2.294 . S
In182 O194 2.326 . S
O183 In182 2.294 . S
O183 C192 1.240 . S
O184 In182 2.326 . S
O184 C192 1.252 . S
C185 O188 1.252 . S
C185 O189 1.260 . S
C186 O193 1.240 . S
C186 O194 1.252 . S
C187 O190 1.252 . S
C187 O191 1.260 . S
O188 In182 2.266 . S
O188 C185 1.252 . S
O189 In182 2.326 . S
O189 C185 1.260 . S
O190 In182 2.266 . S
O190 C187 1.252 . S
O191 In182 2.326 . S
O191 C187 1.260 . S
C192 O183 1.240 . S
C192 O184 1.252 . S
O193 In182 2.294 . S
O193 C186 1.240 . S
O194 In182 2.326 . S
O194 C186 1.252 . S
In195 O196 2.294 . S
In195 O197 2.326 . S
In195 O201 2.266 . S
In195 O202 2.326 . S
In195 O203 2.266 . S
In195 O204 2.326 . S
In195 O206 2.294 . S
In195 O207 2.326 . S
O196 In195 2.294 . S
O196 C205 1.240 . S
O197 In195 2.326 . S
O197 C205 1.252 . S
C198 O201 1.252 . S
C198 O202 1.260 . S
C199 O206 1.240 . S
C199 O207 1.252 . S
C200 O203 1.252 . S
C200 O204 1.260 . S
O201 In195 2.266 . S
O201 C198 1.252 . S
O202 In195 2.326 . S
O202 C198 1.260 . S
O203 In195 2.266 . S
O203 C200 1.252 . S
O204 In195 2.326 . S
O204 C200 1.260 . S
C205 O196 1.240 . S
C205 O197 1.252 . S
O206 In195 2.294 . S
O206 C199 1.240 . S
O207 In195 2.326 . S
O207 C199 1.252 . S
In208 O209 2.294 . S
In208 O210 2.326 . S
In208 O214 2.266 . S
In208 O215 2.326 . S
In208 O216 2.266 . S
In208 O217 2.326 . S
In208 O219 2.294 . S
In208 O220 2.326 . S
O209 In208 2.294 . S
O209 C218 1.240 . S
O210 In208 2.326 . S
O210 C218 1.252 . S
C211 O214 1.252 . S
C211 O215 1.260 . S
C212 O219 1.240 . S
C212 O220 1.252 . S
C213 O216 1.252 . S
C213 O217 1.260 . S
O214 In208 2.266 . S
O214 C211 1.252 . S
O215 In208 2.326 . S
O215 C211 1.260 . S
O216 In208 2.266 . S
O216 C213 1.252 . S
O217 In208 2.326 . S
O217 C213 1.260 . S
C218 O209 1.240 . S
C218 O210 1.252 . S
O219 In208 2.294 . S
O219 C212 1.240 . S
O220 In208 2.326 . S
O220 C212 1.252 . S
In221 O222 2.294 . S
In221 O223 2.326 . S
In221 O227 2.266 . S
In221 O228 2.326 . S
In221 O229 2.266 1_655 S
In221 O230 2.326 1_655 S
In221 O232 2.294 . S
In221 O233 2.326 . S
O222 In221 2.294 . S
O222 C231 1.240 . S
O223 In221 2.326 . S
O223 C231 1.252 . S
C224 O227 1.252 . S
C224 O228 1.260 . S
C225 O232 1.240 . S
C225 O233 1.252 . S
C226 O229 1.252 . S
C226 O230 1.260 . S
O227 In221 2.266 . S
O227 C224 1.252 . S
O228 In221 2.326 . S
O228 C224 1.260 . S
O229 In221 2.266 1_455 S
O229 C226 1.252 . S
O230 In221 2.326 1_455 S
O230 C226 1.260 . S
C231 O222 1.240 . S
C231 O223 1.252 . S
O232 In221 2.294 . S
O232 C225 1.240 . S
O233 In221 2.326 . S
O233 C225 1.252 . S
H234 C261 0.929 . S
N235 C260 1.433 . S
N235 C266 1.435 . S
N235 C272 1.423 . S
H236 C262 0.930 . S
H237 C265 0.931 . S
H238 C264 0.929 . S
H239 C267 0.930 . S
H240 C268 0.932 . S
H241 C271 0.929 . S
H242 C270 0.931 . S
H243 C273 0.929 . S
H244 C277 0.932 . S
H245 C274 0.931 . S
H246 C276 0.929 . S
H247 C279 0.929 . S
H248 C280 0.930 . S
H249 C282 0.929 . S
H250 C283 0.931 . S
H251 C285 0.930 . S
H252 C286 0.932 . S
H253 C288 0.931 . S
H254 C289 0.929 . S
H255 C291 0.929 . S
H256 C292 0.931 . S
H257 C294 0.929 . S
N258 C278 1.433 . S
N258 C284 1.435 . S
N258 C290 1.423 . S
H259 C295 0.932 . S
C260 N235 1.433 . S
C260 C261 1.363 . S
C260 C265 1.370 . S
C261 H234 0.929 . S
C261 C260 1.363 . S
C261 C262 1.385 . S
C262 H236 0.930 . S
C262 C261 1.385 . S
C262 C263 1.357 . S
C263 C262 1.357 . S
C263 C264 1.406 . S
C264 H238 0.929 . S
C264 C263 1.406 . S
C264 C265 1.391 . S
C265 H237 0.931 . S
C265 C260 1.370 . S
C265 C264 1.391 . S
C266 N235 1.435 . S
C266 C267 1.358 . S
C266 C271 1.371 . S
C267 H239 0.930 . S
C267 C266 1.358 . S
C267 C268 1.405 . S
C268 H240 0.932 . S
C268 C267 1.405 . S
C268 C269 1.383 . S
C269 C268 1.383 . S
C269 C270 1.393 . S
C270 H242 0.931 . S
C270 C269 1.393 . S
C270 C271 1.382 . S
C271 H241 0.929 . S
C271 C266 1.371 . S
C271 C270 1.382 . S
C272 N235 1.423 . S
C272 C273 1.362 . S
C272 C277 1.388 . S
C273 H243 0.929 . S
C273 C272 1.362 . S
C273 C274 1.376 . S
C274 H245 0.931 . S
C274 C273 1.376 . S
C274 C275 1.396 . S
C275 C274 1.396 . S
C275 C276 1.348 . S
C275 C293 1.472 . S
C276 H246 0.929 . S
C276 C275 1.348 . S
C276 C277 1.443 . S
C277 H244 0.932 . S
C277 C272 1.388 . S
C277 C276 1.443 . S
C278 N258 1.433 . S
C278 C279 1.363 . S
C278 C283 1.370 . S
C279 H247 0.929 . S
C279 C278 1.363 . S
C279 C280 1.385 . S
C280 H248 0.930 . S
C280 C279 1.385 . S
C280 C281 1.357 . S
C281 C280 1.357 . S
C281 C282 1.406 . S
C282 H249 0.929 . S
C282 C281 1.406 . S
C282 C283 1.391 . S
C283 H250 0.931 . S
C283 C278 1.370 . S
C283 C282 1.391 . S
C284 N258 1.435 . S
C284 C285 1.358 . S
C284 C289 1.371 . S
C285 H251 0.930 . S
C285 C284 1.358 . S
C285 C286 1.405 . S
C286 H252 0.932 . S
C286 C285 1.405 . S
C286 C287 1.383 . S
C287 C286 1.383 . S
C287 C288 1.393 . S
C288 H253 0.931 . S
C288 C287 1.393 . S
C288 C289 1.382 . S
C289 H254 0.929 . S
C289 C284 1.371 . S
C289 C288 1.382 . S
C290 N258 1.423 . S
C290 C291 1.362 . S
C290 C295 1.388 . S
C291 H255 0.929 . S
C291 C290 1.362 . S
C291 C292 1.376 . S
C292 H256 0.931 . S
C292 C291 1.376 . S
C292 C293 1.396 . S
C293 C275 1.472 . S
C293 C292 1.396 . S
C293 C294 1.348 . S
C294 H257 0.929 . S
C294 C293 1.348 . S
C294 C295 1.443 . S
C295 H259 0.932 . S
C295 C290 1.388 . S
C295 C294 1.443 . S
H296 C323 0.929 . S
N297 C322 1.433 . S
N297 C328 1.435 . S
N297 C334 1.423 . S
H298 C324 0.930 . S
H299 C327 0.931 . S
H300 C326 0.929 . S
H301 C329 0.930 . S
H302 C330 0.932 . S
H303 C333 0.929 . S
H304 C332 0.931 . S
H305 C335 0.929 . S
H306 C339 0.932 . S
H307 C336 0.931 . S
H308 C338 0.929 . S
H309 C341 0.929 . S
H310 C342 0.930 . S
H311 C344 0.929 . S
H312 C345 0.931 . S
H313 C347 0.930 . S
H314 C348 0.932 . S
H315 C350 0.931 . S
H316 C351 0.929 . S
H317 C353 0.929 . S
H318 C354 0.931 . S
H319 C356 0.929 . S
N320 C340 1.433 . S
N320 C346 1.435 . S
N320 C352 1.423 . S
H321 C357 0.932 . S
C322 N297 1.433 . S
C322 C323 1.363 . S
C322 C327 1.370 . S
C323 H296 0.929 . S
C323 C322 1.363 . S
C323 C324 1.385 . S
C324 H298 0.930 . S
C324 C323 1.385 . S
C324 C325 1.357 . S
C325 C324 1.357 . S
C325 C326 1.406 . S
C326 H300 0.929 . S
C326 C325 1.406 . S
C326 C327 1.391 . S
C327 H299 0.931 . S
C327 C322 1.370 . S
C327 C326 1.391 . S
C328 N297 1.435 . S
C328 C329 1.358 . S
C328 C333 1.371 . S
C329 H301 0.930 . S
C329 C328 1.358 . S
C329 C330 1.405 . S
C330 H302 0.932 . S
C330 C329 1.405 . S
C330 C331 1.383 . S
C331 C330 1.383 . S
C331 C332 1.393 . S
C332 H304 0.931 . S
C332 C331 1.393 . S
C332 C333 1.382 . S
C333 H303 0.929 . S
C333 C328 1.371 . S
C333 C332 1.382 . S
C334 N297 1.423 . S
C334 C335 1.362 . S
C334 C339 1.388 . S
C335 H305 0.929 . S
C335 C334 1.362 . S
C335 C336 1.376 . S
C336 H307 0.931 . S
C336 C335 1.376 . S
C336 C337 1.396 . S
C337 C336 1.396 . S
C337 C338 1.348 . S
C337 C355 1.472 . S
C338 H308 0.929 . S
C338 C337 1.348 . S
C338 C339 1.443 . S
C339 H306 0.932 . S
C339 C334 1.388 . S
C339 C338 1.443 . S
C340 N320 1.433 . S
C340 C341 1.363 . S
C340 C345 1.370 . S
C341 H309 0.929 . S
C341 C340 1.363 . S
C341 C342 1.385 . S
C342 H310 0.930 . S
C342 C341 1.385 . S
C342 C343 1.357 . S
C343 C342 1.357 . S
C343 C344 1.406 . S
C344 H311 0.929 . S
C344 C343 1.406 . S
C344 C345 1.391 . S
C345 H312 0.931 . S
C345 C340 1.370 . S
C345 C344 1.391 . S
C346 N320 1.435 . S
C346 C347 1.358 . S
C346 C351 1.371 . S
C347 H313 0.930 . S
C347 C346 1.358 . S
C347 C348 1.405 . S
C348 H314 0.932 . S
C348 C347 1.405 . S
C348 C349 1.383 . S
C349 C348 1.383 . S
C349 C350 1.393 . S
C350 H315 0.931 . S
C350 C349 1.393 . S
C350 C351 1.382 . S
C351 H316 0.929 . S
C351 C346 1.371 . S
C351 C350 1.382 . S
C352 N320 1.423 . S
C352 C353 1.362 . S
C352 C357 1.388 . S
C353 H317 0.929 . S
C353 C352 1.362 . S
C353 C354 1.376 . S
C354 H318 0.931 . S
C354 C353 1.376 . S
C354 C355 1.396 . S
C355 C337 1.472 . S
C355 C354 1.396 . S
C355 C356 1.348 . S
C356 H319 0.929 . S
C356 C355 1.348 . S
C356 C357 1.443 . S
C357 H321 0.932 . S
C357 C352 1.388 . S
C357 C356 1.443 . S
H358 C385 0.929 . S
N359 C384 1.433 . S
N359 C390 1.435 . S
N359 C396 1.423 . S
H360 C386 0.930 . S
H361 C389 0.931 . S
H362 C388 0.929 . S
H363 C391 0.930 . S
H364 C392 0.932 . S
H365 C395 0.929 . S
H366 C394 0.931 . S
H367 C397 0.929 . S
H368 C401 0.932 . S
H369 C398 0.931 . S
H370 C400 0.929 . S
H371 C403 0.929 . S
H372 C404 0.930 . S
H373 C406 0.929 . S
H374 C407 0.931 . S
H375 C409 0.930 . S
H376 C410 0.932 . S
H377 C412 0.931 . S
H378 C413 0.929 . S
H379 C415 0.929 . S
H380 C416 0.931 . S
H381 C418 0.929 . S
N382 C402 1.433 . S
N382 C408 1.435 . S
N382 C414 1.423 . S
H383 C419 0.932 . S
C384 N359 1.433 . S
C384 C385 1.363 . S
C384 C389 1.370 . S
C385 H358 0.929 . S
C385 C384 1.363 . S
C385 C386 1.385 . S
C386 H360 0.930 . S
C386 C385 1.385 . S
C386 C387 1.357 . S
C387 C386 1.357 . S
C387 C388 1.406 . S
C388 H362 0.929 . S
C388 C387 1.406 . S
C388 C389 1.391 . S
C389 H361 0.931 . S
C389 C384 1.370 . S
C389 C388 1.391 . S
C390 N359 1.435 . S
C390 C391 1.358 . S
C390 C395 1.371 . S
C391 H363 0.930 . S
C391 C390 1.358 . S
C391 C392 1.405 . S
C392 H364 0.932 . S
C392 C391 1.405 . S
C392 C393 1.383 . S
C393 C392 1.383 . S
C393 C394 1.393 . S
C394 H366 0.931 . S
C394 C393 1.393 . S
C394 C395 1.382 . S
C395 H365 0.929 . S
C395 C390 1.371 . S
C395 C394 1.382 . S
C396 N359 1.423 . S
C396 C397 1.362 . S
C396 C401 1.388 . S
C397 H367 0.929 . S
C397 C396 1.362 . S
C397 C398 1.376 . S
C398 H369 0.931 . S
C398 C397 1.376 . S
C398 C399 1.396 . S
C399 C398 1.396 . S
C399 C400 1.348 . S
C399 C417 1.472 . S
C400 H370 0.929 . S
C400 C399 1.348 . S
C400 C401 1.443 . S
C401 H368 0.932 . S
C401 C396 1.388 . S
C401 C400 1.443 . S
C402 N382 1.433 . S
C402 C403 1.363 . S
C402 C407 1.370 . S
C403 H371 0.929 . S
C403 C402 1.363 . S
C403 C404 1.385 . S
C404 H372 0.930 . S
C404 C403 1.385 . S
C404 C405 1.357 . S
C405 C404 1.357 . S
C405 C406 1.406 . S
C406 H373 0.929 . S
C406 C405 1.406 . S
C406 C407 1.391 . S
C407 H374 0.931 . S
C407 C402 1.370 . S
C407 C406 1.391 . S
C408 N382 1.435 . S
C408 C409 1.358 . S
C408 C413 1.371 . S
C409 H375 0.930 . S
C409 C408 1.358 . S
C409 C410 1.405 . S
C410 H376 0.932 . S
C410 C409 1.405 . S
C410 C411 1.383 . S
C411 C410 1.383 . S
C411 C412 1.393 . S
C412 H377 0.931 . S
C412 C411 1.393 . S
C412 C413 1.382 . S
C413 H378 0.929 . S
C413 C408 1.371 . S
C413 C412 1.382 . S
C414 N382 1.423 . S
C414 C415 1.362 . S
C414 C419 1.388 . S
C415 H379 0.929 . S
C415 C414 1.362 . S
C415 C416 1.376 . S
C416 H380 0.931 . S
C416 C415 1.376 . S
C416 C417 1.396 . S
C417 C399 1.472 . S
C417 C416 1.396 . S
C417 C418 1.348 . S
C418 H381 0.929 . S
C418 C417 1.348 . S
C418 C419 1.443 . S
C419 H383 0.932 . S
C419 C414 1.388 . S
C419 C418 1.443 . S
H420 C447 0.929 . S
N421 C446 1.433 . S
N421 C452 1.435 . S
N421 C458 1.423 . S
H422 C448 0.930 . S
H423 C451 0.931 . S
H424 C450 0.929 . S
H425 C453 0.930 . S
H426 C454 0.932 . S
H427 C457 0.929 . S
H428 C456 0.931 . S
H429 C459 0.929 . S
H430 C463 0.932 . S
H431 C460 0.931 . S
H432 C462 0.929 . S
H433 C465 0.929 . S
H434 C466 0.930 . S
H435 C468 0.929 . S
H436 C469 0.931 . S
H437 C471 0.930 . S
H438 C472 0.932 . S
H439 C474 0.931 . S
H440 C475 0.929 . S
H441 C477 0.929 . S
H442 C478 0.931 . S
H443 C480 0.929 . S
N444 C464 1.433 . S
N444 C470 1.435 . S
N444 C476 1.423 . S
H445 C481 0.932 . S
C446 N421 1.433 . S
C446 C447 1.363 . S
C446 C451 1.370 . S
C447 H420 0.929 . S
C447 C446 1.363 . S
C447 C448 1.385 . S
C448 H422 0.930 . S
C448 C447 1.385 . S
C448 C449 1.357 . S
C449 C448 1.357 . S
C449 C450 1.406 . S
C450 H424 0.929 . S
C450 C449 1.406 . S
C450 C451 1.391 . S
C451 H423 0.931 . S
C451 C446 1.370 . S
C451 C450 1.391 . S
C452 N421 1.435 . S
C452 C453 1.358 . S
C452 C457 1.371 . S
C453 H425 0.930 . S
C453 C452 1.358 . S
C453 C454 1.405 . S
C454 H426 0.932 . S
C454 C453 1.405 . S
C454 C455 1.383 . S
C455 C454 1.383 . S
C455 C456 1.393 . S
C456 H428 0.931 . S
C456 C455 1.393 . S
C456 C457 1.382 . S
C457 H427 0.929 . S
C457 C452 1.371 . S
C457 C456 1.382 . S
C458 N421 1.423 . S
C458 C459 1.362 . S
C458 C463 1.388 . S
C459 H429 0.929 . S
C459 C458 1.362 . S
C459 C460 1.376 . S
C460 H431 0.931 . S
C460 C459 1.376 . S
C460 C461 1.396 . S
C461 C460 1.396 . S
C461 C462 1.348 . S
C461 C479 1.472 . S
C462 H432 0.929 . S
C462 C461 1.348 . S
C462 C463 1.443 . S
C463 H430 0.932 . S
C463 C458 1.388 . S
C463 C462 1.443 . S
C464 N444 1.433 . S
C464 C465 1.363 . S
C464 C469 1.370 . S
C465 H433 0.929 . S
C465 C464 1.363 . S
C465 C466 1.385 . S
C466 H434 0.930 . S
C466 C465 1.385 . S
C466 C467 1.357 . S
C467 C466 1.357 . S
C467 C468 1.406 . S
C468 H435 0.929 . S
C468 C467 1.406 . S
C468 C469 1.391 . S
C469 H436 0.931 . S
C469 C464 1.370 . S
C469 C468 1.391 . S
C470 N444 1.435 . S
C470 C471 1.358 . S
C470 C475 1.371 . S
C471 H437 0.930 . S
C471 C470 1.358 . S
C471 C472 1.405 . S
C472 H438 0.932 . S
C472 C471 1.405 . S
C472 C473 1.383 . S
C473 C472 1.383 . S
C473 C474 1.393 . S
C474 H439 0.931 . S
C474 C473 1.393 . S
C474 C475 1.382 . S
C475 H440 0.929 . S
C475 C470 1.371 . S
C475 C474 1.382 . S
C476 N444 1.423 . S
C476 C477 1.362 . S
C476 C481 1.388 . S
C477 H441 0.929 . S
C477 C476 1.362 . S
C477 C478 1.376 . S
C478 H442 0.931 . S
C478 C477 1.376 . S
C478 C479 1.396 . S
C479 C461 1.472 . S
C479 C478 1.396 . S
C479 C480 1.348 . S
C480 H443 0.929 . S
C480 C479 1.348 . S
C480 C481 1.443 . S
C481 H445 0.932 . S
C481 C476 1.388 . S
C481 C480 1.443 . S
H482 C509 0.929 . S
N483 C508 1.433 . S
N483 C514 1.435 . S
N483 C520 1.423 . S
H484 C510 0.930 . S
H485 C513 0.931 . S
H486 C512 0.929 . S
H487 C515 0.930 . S
H488 C516 0.932 . S
H489 C519 0.929 . S
H490 C518 0.931 . S
H491 C521 0.929 . S
H492 C525 0.932 . S
H493 C522 0.931 . S
H494 C524 0.929 . S
H495 C527 0.929 . S
H496 C528 0.930 . S
H497 C530 0.929 . S
H498 C531 0.931 . S
H499 C533 0.930 . S
H500 C534 0.932 . S
H501 C536 0.931 . S
H502 C537 0.929 . S
H503 C539 0.929 . S
H504 C540 0.931 . S
H505 C542 0.929 . S
N506 C526 1.433 . S
N506 C532 1.435 . S
N506 C538 1.423 . S
H507 C543 0.932 . S
C508 N483 1.433 . S
C508 C509 1.363 . S
C508 C513 1.370 . S
C509 H482 0.929 . S
C509 C508 1.363 . S
C509 C510 1.385 . S
C510 H484 0.930 . S
C510 C509 1.385 . S
C510 C511 1.357 . S
C511 C510 1.357 . S
C511 C512 1.406 . S
C512 H486 0.929 . S
C512 C511 1.406 . S
C512 C513 1.391 . S
C513 H485 0.931 . S
C513 C508 1.370 . S
C513 C512 1.391 . S
C514 N483 1.435 . S
C514 C515 1.358 . S
C514 C519 1.371 . S
C515 H487 0.930 . S
C515 C514 1.358 . S
C515 C516 1.405 . S
C516 H488 0.932 . S
C516 C515 1.405 . S
C516 C517 1.383 . S
C517 C516 1.383 . S
C517 C518 1.393 . S
C518 H490 0.931 . S
C518 C517 1.393 . S
C518 C519 1.382 . S
C519 H489 0.929 . S
C519 C514 1.371 . S
C519 C518 1.382 . S
C520 N483 1.423 . S
C520 C521 1.362 . S
C520 C525 1.388 . S
C521 H491 0.929 . S
C521 C520 1.362 . S
C521 C522 1.376 . S
C522 H493 0.931 . S
C522 C521 1.376 . S
C522 C523 1.396 . S
C523 C522 1.396 . S
C523 C524 1.348 . S
C523 C541 1.472 . S
C524 H494 0.929 . S
C524 C523 1.348 . S
C524 C525 1.443 . S
C525 H492 0.932 . S
C525 C520 1.388 . S
C525 C524 1.443 . S
C526 N506 1.433 . S
C526 C527 1.363 . S
C526 C531 1.370 . S
C527 H495 0.929 . S
C527 C526 1.363 . S
C527 C528 1.385 . S
C528 H496 0.930 . S
C528 C527 1.385 . S
C528 C529 1.357 . S
C529 C528 1.357 . S
C529 C530 1.406 . S
C530 H497 0.929 . S
C530 C529 1.406 . S
C530 C531 1.391 . S
C531 H498 0.931 . S
C531 C526 1.370 . S
C531 C530 1.391 . S
C532 N506 1.435 . S
C532 C533 1.358 . S
C532 C537 1.371 . S
C533 H499 0.930 . S
C533 C532 1.358 . S
C533 C534 1.405 . S
C534 H500 0.932 . S
C534 C533 1.405 . S
C534 C535 1.383 . S
C535 C534 1.383 . S
C535 C536 1.393 . S
C536 H501 0.931 . S
C536 C535 1.393 . S
C536 C537 1.382 . S
C537 H502 0.929 . S
C537 C532 1.371 . S
C537 C536 1.382 . S
C538 N506 1.423 . S
C538 C539 1.362 . S
C538 C543 1.388 . S
C539 H503 0.929 . S
C539 C538 1.362 . S
C539 C540 1.376 . S
C540 H504 0.931 . S
C540 C539 1.376 . S
C540 C541 1.396 . S
C541 C523 1.472 . S
C541 C540 1.396 . S
C541 C542 1.348 . S
C542 H505 0.929 . S
C542 C541 1.348 . S
C542 C543 1.443 . S
C543 H507 0.932 . S
C543 C538 1.388 . S
C543 C542 1.443 . S
H544 C571 0.929 . S
N545 C570 1.433 . S
N545 C576 1.435 . S
N545 C582 1.423 . S
H546 C572 0.930 . S
H547 C575 0.931 . S
H548 C574 0.929 . S
H549 C577 0.930 . S
H550 C578 0.932 . S
H551 C581 0.929 . S
H552 C580 0.931 . S
H553 C583 0.929 . S
H554 C587 0.932 . S
H555 C584 0.931 . S
H556 C586 0.929 . S
H557 C589 0.929 . S
H558 C590 0.930 . S
H559 C592 0.929 . S
H560 C593 0.931 . S
H561 C595 0.930 . S
H562 C596 0.932 . S
H563 C598 0.931 . S
H564 C599 0.929 . S
H565 C601 0.929 . S
H566 C602 0.931 . S
H567 C604 0.929 . S
N568 C588 1.433 . S
N568 C594 1.435 . S
N568 C600 1.423 . S
H569 C605 0.932 . S
C570 N545 1.433 . S
C570 C571 1.363 . S
C570 C575 1.370 . S
C571 H544 0.929 . S
C571 C570 1.363 . S
C571 C572 1.385 . S
C572 H546 0.930 . S
C572 C571 1.385 . S
C572 C573 1.357 . S
C573 C572 1.357 . S
C573 C574 1.406 . S
C574 H548 0.929 . S
C574 C573 1.406 . S
C574 C575 1.391 . S
C575 H547 0.931 . S
C575 C570 1.370 . S
C575 C574 1.391 . S
C576 N545 1.435 . S
C576 C577 1.358 . S
C576 C581 1.371 . S
C577 H549 0.930 . S
C577 C576 1.358 . S
C577 C578 1.405 . S
C578 H550 0.932 . S
C578 C577 1.405 . S
C578 C579 1.383 . S
C579 C578 1.383 . S
C579 C580 1.393 . S
C580 H552 0.931 . S
C580 C579 1.393 . S
C580 C581 1.382 . S
C581 H551 0.929 . S
C581 C576 1.371 . S
C581 C580 1.382 . S
C582 N545 1.423 . S
C582 C583 1.362 . S
C582 C587 1.388 . S
C583 H553 0.929 . S
C583 C582 1.362 . S
C583 C584 1.376 . S
C584 H555 0.931 . S
C584 C583 1.376 . S
C584 C585 1.396 . S
C585 C584 1.396 . S
C585 C586 1.348 . S
C585 C603 1.472 . S
C586 H556 0.929 . S
C586 C585 1.348 . S
C586 C587 1.443 . S
C587 H554 0.932 . S
C587 C582 1.388 . S
C587 C586 1.443 . S
C588 N568 1.433 . S
C588 C589 1.363 . S
C588 C593 1.370 . S
C589 H557 0.929 . S
C589 C588 1.363 . S
C589 C590 1.385 . S
C590 H558 0.930 . S
C590 C589 1.385 . S
C590 C591 1.357 . S
C591 C590 1.357 . S
C591 C592 1.406 . S
C592 H559 0.929 . S
C592 C591 1.406 . S
C592 C593 1.391 . S
C593 H560 0.931 . S
C593 C588 1.370 . S
C593 C592 1.391 . S
C594 N568 1.435 . S
C594 C595 1.358 . S
C594 C599 1.371 . S
C595 H561 0.930 . S
C595 C594 1.358 . S
C595 C596 1.405 . S
C596 H562 0.932 . S
C596 C595 1.405 . S
C596 C597 1.383 . S
C597 C596 1.383 . S
C597 C598 1.393 . S
C598 H563 0.931 . S
C598 C597 1.393 . S
C598 C599 1.382 . S
C599 H564 0.929 . S
C599 C594 1.371 . S
C599 C598 1.382 . S
C600 N568 1.423 . S
C600 C601 1.362 . S
C600 C605 1.388 . S
C601 H565 0.929 . S
C601 C600 1.362 . S
C601 C602 1.376 . S
C602 H566 0.931 . S
C602 C601 1.376 . S
C602 C603 1.396 . S
C603 C585 1.472 . S
C603 C602 1.396 . S
C603 C604 1.348 . S
C604 H567 0.929 . S
C604 C603 1.348 . S
C604 C605 1.443 . S
C605 H569 0.932 . S
C605 C600 1.388 . S
C605 C604 1.443 . S
H606 C633 0.929 . S
N607 C632 1.433 . S
N607 C638 1.435 . S
N607 C644 1.423 . S
H608 C634 0.930 . S
H609 C637 0.931 . S
H610 C636 0.929 . S
H611 C639 0.930 . S
H612 C640 0.932 . S
H613 C643 0.929 . S
H614 C642 0.931 . S
H615 C645 0.929 . S
H616 C649 0.932 . S
H617 C646 0.931 . S
H618 C648 0.929 . S
H619 C651 0.929 . S
H620 C652 0.930 . S
H621 C654 0.929 . S
H622 C655 0.931 . S
H623 C657 0.930 . S
H624 C658 0.932 . S
H625 C660 0.931 . S
H626 C661 0.929 . S
H627 C663 0.929 . S
H628 C664 0.931 . S
H629 C666 0.929 . S
N630 C650 1.433 . S
N630 C656 1.435 . S
N630 C662 1.423 . S
H631 C667 0.932 . S
C632 N607 1.433 . S
C632 C633 1.363 . S
C632 C637 1.370 . S
C633 H606 0.929 . S
C633 C632 1.363 . S
C633 C634 1.385 . S
C634 H608 0.930 . S
C634 C633 1.385 . S
C634 C635 1.357 . S
C635 C634 1.357 . S
C635 C636 1.406 . S
C636 H610 0.929 . S
C636 C635 1.406 . S
C636 C637 1.391 . S
C637 H609 0.931 . S
C637 C632 1.370 . S
C637 C636 1.391 . S
C638 N607 1.435 . S
C638 C639 1.358 . S
C638 C643 1.371 . S
C639 H611 0.930 . S
C639 C638 1.358 . S
C639 C640 1.405 . S
C640 H612 0.932 . S
C640 C639 1.405 . S
C640 C641 1.383 . S
C641 C640 1.383 . S
C641 C642 1.393 . S
C642 H614 0.931 . S
C642 C641 1.393 . S
C642 C643 1.382 . S
C643 H613 0.929 . S
C643 C638 1.371 . S
C643 C642 1.382 . S
C644 N607 1.423 . S
C644 C645 1.362 . S
C644 C649 1.388 . S
C645 H615 0.929 . S
C645 C644 1.362 . S
C645 C646 1.376 . S
C646 H617 0.931 . S
C646 C645 1.376 . S
C646 C647 1.396 . S
C647 C646 1.396 . S
C647 C648 1.348 . S
C647 C665 1.472 . S
C648 H618 0.929 . S
C648 C647 1.348 . S
C648 C649 1.443 . S
C649 H616 0.932 . S
C649 C644 1.388 . S
C649 C648 1.443 . S
C650 N630 1.433 . S
C650 C651 1.363 . S
C650 C655 1.370 . S
C651 H619 0.929 . S
C651 C650 1.363 . S
C651 C652 1.385 . S
C652 H620 0.930 . S
C652 C651 1.385 . S
C652 C653 1.357 . S
C653 C652 1.357 . S
C653 C654 1.406 . S
C654 H621 0.929 . S
C654 C653 1.406 . S
C654 C655 1.391 . S
C655 H622 0.931 . S
C655 C650 1.370 . S
C655 C654 1.391 . S
C656 N630 1.435 . S
C656 C657 1.358 . S
C656 C661 1.371 . S
C657 H623 0.930 . S
C657 C656 1.358 . S
C657 C658 1.405 . S
C658 H624 0.932 . S
C658 C657 1.405 . S
C658 C659 1.383 . S
C659 C658 1.383 . S
C659 C660 1.393 . S
C660 H625 0.931 . S
C660 C659 1.393 . S
C660 C661 1.382 . S
C661 H626 0.929 . S
C661 C656 1.371 . S
C661 C660 1.382 . S
C662 N630 1.423 . S
C662 C663 1.362 . S
C662 C667 1.388 . S
C663 H627 0.929 . S
C663 C662 1.362 . S
C663 C664 1.376 . S
C664 H628 0.931 . S
C664 C663 1.376 . S
C664 C665 1.396 . S
C665 C647 1.472 . S
C665 C664 1.396 . S
C665 C666 1.348 . S
C666 H629 0.929 . S
C666 C665 1.348 . S
C666 C667 1.443 . S
C667 H631 0.932 . S
C667 C662 1.388 . S
C667 C666 1.443 . S
H668 C695 0.929 . S
N669 C694 1.433 . S
N669 C700 1.435 . S
N669 C706 1.423 . S
H670 C696 0.930 . S
H671 C699 0.931 . S
H672 C698 0.929 . S
H673 C701 0.930 . S
H674 C702 0.932 . S
H675 C705 0.929 . S
H676 C704 0.931 . S
H677 C707 0.929 . S
H678 C711 0.932 . S
H679 C708 0.931 . S
H680 C710 0.929 . S
H681 C713 0.929 . S
H682 C714 0.930 . S
H683 C716 0.929 . S
H684 C717 0.931 . S
H685 C719 0.930 . S
H686 C720 0.932 . S
H687 C722 0.931 . S
H688 C723 0.929 . S
H689 C725 0.929 . S
H690 C726 0.931 . S
H691 C728 0.929 . S
N692 C712 1.433 . S
N692 C718 1.435 . S
N692 C724 1.423 . S
H693 C729 0.932 . S
C694 N669 1.433 . S
C694 C695 1.363 . S
C694 C699 1.370 . S
C695 H668 0.929 . S
C695 C694 1.363 . S
C695 C696 1.385 . S
C696 H670 0.930 . S
C696 C695 1.385 . S
C696 C697 1.357 . S
C697 C696 1.357 . S
C697 C698 1.406 . S
C698 H672 0.929 . S
C698 C697 1.406 . S
C698 C699 1.391 . S
C699 H671 0.931 . S
C699 C694 1.370 . S
C699 C698 1.391 . S
C700 N669 1.435 . S
C700 C701 1.358 . S
C700 C705 1.371 . S
C701 H673 0.930 . S
C701 C700 1.358 . S
C701 C702 1.405 . S
C702 H674 0.932 . S
C702 C701 1.405 . S
C702 C703 1.383 . S
C703 C702 1.383 . S
C703 C704 1.393 . S
C704 H676 0.931 . S
C704 C703 1.393 . S
C704 C705 1.382 . S
C705 H675 0.929 . S
C705 C700 1.371 . S
C705 C704 1.382 . S
C706 N669 1.423 . S
C706 C707 1.362 . S
C706 C711 1.388 . S
C707 H677 0.929 . S
C707 C706 1.362 . S
C707 C708 1.376 . S
C708 H679 0.931 . S
C708 C707 1.376 . S
C708 C709 1.396 . S
C709 C708 1.396 . S
C709 C710 1.348 . S
C709 C727 1.472 . S
C710 H680 0.929 . S
C710 C709 1.348 . S
C710 C711 1.443 . S
C711 H678 0.932 . S
C711 C706 1.388 . S
C711 C710 1.443 . S
C712 N692 1.433 . S
C712 C713 1.363 . S
C712 C717 1.370 . S
C713 H681 0.929 . S
C713 C712 1.363 . S
C713 C714 1.385 . S
C714 H682 0.930 . S
C714 C713 1.385 . S
C714 C715 1.357 . S
C715 C714 1.357 . S
C715 C716 1.406 . S
C716 H683 0.929 . S
C716 C715 1.406 . S
C716 C717 1.391 . S
C717 H684 0.931 . S
C717 C712 1.370 . S
C717 C716 1.391 . S
C718 N692 1.435 . S
C718 C719 1.358 . S
C718 C723 1.371 . S
C719 H685 0.930 . S
C719 C718 1.358 . S
C719 C720 1.405 . S
C720 H686 0.932 . S
C720 C719 1.405 . S
C720 C721 1.383 . S
C721 C720 1.383 . S
C721 C722 1.393 . S
C722 H687 0.931 . S
C722 C721 1.393 . S
C722 C723 1.382 . S
C723 H688 0.929 . S
C723 C718 1.371 . S
C723 C722 1.382 . S
C724 N692 1.423 . S
C724 C725 1.362 . S
C724 C729 1.388 . S
C725 H689 0.929 . S
C725 C724 1.362 . S
C725 C726 1.376 . S
C726 H690 0.931 . S
C726 C725 1.376 . S
C726 C727 1.396 . S
C727 C709 1.472 . S
C727 C726 1.396 . S
C727 C728 1.348 . S
C728 H691 0.929 . S
C728 C727 1.348 . S
C728 C729 1.443 . S
C729 H693 0.932 . S
C729 C724 1.388 . S
C729 C728 1.443 . S
H730 C757 0.929 . S
N731 C756 1.433 . S
N731 C762 1.435 . S
N731 C768 1.423 . S
H732 C758 0.930 . S
H733 C761 0.931 . S
H734 C760 0.929 . S
H735 C763 0.930 . S
H736 C764 0.932 . S
H737 C767 0.929 . S
H738 C766 0.931 . S
H739 C769 0.929 . S
H740 C773 0.932 . S
H741 C770 0.931 . S
H742 C772 0.929 . S
H743 C775 0.929 . S
H744 C776 0.930 . S
H745 C778 0.929 . S
H746 C779 0.931 . S
H747 C781 0.930 . S
H748 C782 0.932 . S
H749 C784 0.931 . S
H750 C785 0.929 . S
H751 C787 0.929 . S
H752 C788 0.931 . S
H753 C790 0.929 . S
N754 C774 1.433 . S
N754 C780 1.435 . S
N754 C786 1.423 . S
H755 C791 0.932 . S
C756 N731 1.433 . S
C756 C757 1.363 . S
C756 C761 1.370 . S
C757 H730 0.929 . S
C757 C756 1.363 . S
C757 C758 1.385 . S
C758 H732 0.930 . S
C758 C757 1.385 . S
C758 C759 1.357 . S
C759 C758 1.357 . S
C759 C760 1.406 . S
C760 H734 0.929 . S
C760 C759 1.406 . S
C760 C761 1.391 . S
C761 H733 0.931 . S
C761 C756 1.370 . S
C761 C760 1.391 . S
C762 N731 1.435 . S
C762 C763 1.358 . S
C762 C767 1.371 . S
C763 H735 0.930 . S
C763 C762 1.358 . S
C763 C764 1.405 . S
C764 H736 0.932 . S
C764 C763 1.405 . S
C764 C765 1.383 . S
C765 C764 1.383 . S
C765 C766 1.393 . S
C766 H738 0.931 . S
C766 C765 1.393 . S
C766 C767 1.382 . S
C767 H737 0.929 . S
C767 C762 1.371 . S
C767 C766 1.382 . S
C768 N731 1.423 . S
C768 C769 1.362 . S
C768 C773 1.388 . S
C769 H739 0.929 . S
C769 C768 1.362 . S
C769 C770 1.376 . S
C770 H741 0.931 . S
C770 C769 1.376 . S
C770 C771 1.396 . S
C771 C770 1.396 . S
C771 C772 1.348 . S
C771 C789 1.472 . S
C772 H742 0.929 . S
C772 C771 1.348 . S
C772 C773 1.443 . S
C773 H740 0.932 . S
C773 C768 1.388 . S
C773 C772 1.443 . S
C774 N754 1.433 . S
C774 C775 1.363 . S
C774 C779 1.370 . S
C775 H743 0.929 . S
C775 C774 1.363 . S
C775 C776 1.385 . S
C776 H744 0.930 . S
C776 C775 1.385 . S
C776 C777 1.357 . S
C777 C776 1.357 . S
C777 C778 1.406 . S
C778 H745 0.929 . S
C778 C777 1.406 . S
C778 C779 1.391 . S
C779 H746 0.931 . S
C779 C774 1.370 . S
C779 C778 1.391 . S
C780 N754 1.435 . S
C780 C781 1.358 . S
C780 C785 1.371 . S
C781 H747 0.930 . S
C781 C780 1.358 . S
C781 C782 1.405 . S
C782 H748 0.932 . S
C782 C781 1.405 . S
C782 C783 1.383 . S
C783 C782 1.383 . S
C783 C784 1.393 . S
C784 H749 0.931 . S
C784 C783 1.393 . S
C784 C785 1.382 . S
C785 H750 0.929 . S
C785 C780 1.371 . S
C785 C784 1.382 . S
C786 N754 1.423 . S
C786 C787 1.362 . S
C786 C791 1.388 . S
C787 H751 0.929 . S
C787 C786 1.362 . S
C787 C788 1.376 . S
C788 H752 0.931 . S
C788 C787 1.376 . S
C788 C789 1.396 . S
C789 C771 1.472 . S
C789 C788 1.396 . S
C789 C790 1.348 . S
C790 H753 0.929 . S
C790 C789 1.348 . S
C790 C791 1.443 . S
C791 H755 0.932 . S
C791 C786 1.388 . S
C791 C790 1.443 . S
H792 C819 0.929 . S
N793 C818 1.433 . S
N793 C824 1.435 . S
N793 C830 1.423 . S
H794 C820 0.930 . S
H795 C823 0.931 . S
H796 C822 0.929 . S
H797 C825 0.930 . S
H798 C826 0.932 . S
H799 C829 0.929 . S
H800 C828 0.931 . S
H801 C831 0.929 . S
H802 C835 0.932 . S
H803 C832 0.931 . S
H804 C834 0.929 . S
H805 C837 0.929 . S
H806 C838 0.930 . S
H807 C840 0.929 . S
H808 C841 0.931 . S
H809 C843 0.930 . S
H810 C844 0.932 . S
H811 C846 0.931 . S
H812 C847 0.929 . S
H813 C849 0.929 . S
H814 C850 0.931 . S
H815 C852 0.929 . S
N816 C836 1.433 . S
N816 C842 1.435 . S
N816 C848 1.423 . S
H817 C853 0.932 . S
C818 N793 1.433 . S
C818 C819 1.363 . S
C818 C823 1.370 . S
C819 H792 0.929 . S
C819 C818 1.363 . S
C819 C820 1.385 . S
C820 H794 0.930 . S
C820 C819 1.385 . S
C820 C821 1.357 . S
C821 C820 1.357 . S
C821 C822 1.406 . S
C822 H796 0.929 . S
C822 C821 1.406 . S
C822 C823 1.391 . S
C823 H795 0.931 . S
C823 C818 1.370 . S
C823 C822 1.391 . S
C824 N793 1.435 . S
C824 C825 1.358 . S
C824 C829 1.371 . S
C825 H797 0.930 . S
C825 C824 1.358 . S
C825 C826 1.405 . S
C826 H798 0.932 . S
C826 C825 1.405 . S
C826 C827 1.383 . S
C827 C826 1.383 . S
C827 C828 1.393 . S
C828 H800 0.931 . S
C828 C827 1.393 . S
C828 C829 1.382 . S
C829 H799 0.929 . S
C829 C824 1.371 . S
C829 C828 1.382 . S
C830 N793 1.423 . S
C830 C831 1.362 . S
C830 C835 1.388 . S
C831 H801 0.929 . S
C831 C830 1.362 . S
C831 C832 1.376 . S
C832 H803 0.931 . S
C832 C831 1.376 . S
C832 C833 1.396 . S
C833 C832 1.396 . S
C833 C834 1.348 . S
C833 C851 1.472 . S
C834 H804 0.929 . S
C834 C833 1.348 . S
C834 C835 1.443 . S
C835 H802 0.932 . S
C835 C830 1.388 . S
C835 C834 1.443 . S
C836 N816 1.433 . S
C836 C837 1.363 . S
C836 C841 1.370 . S
C837 H805 0.929 . S
C837 C836 1.363 . S
C837 C838 1.385 . S
C838 H806 0.930 . S
C838 C837 1.385 . S
C838 C839 1.357 . S
C839 C838 1.357 . S
C839 C840 1.406 . S
C840 H807 0.929 . S
C840 C839 1.406 . S
C840 C841 1.391 . S
C841 H808 0.931 . S
C841 C836 1.370 . S
C841 C840 1.391 . S
C842 N816 1.435 . S
C842 C843 1.358 . S
C842 C847 1.371 . S
C843 H809 0.930 . S
C843 C842 1.358 . S
C843 C844 1.405 . S
C844 H810 0.932 . S
C844 C843 1.405 . S
C844 C845 1.383 . S
C845 C844 1.383 . S
C845 C846 1.393 . S
C846 H811 0.931 . S
C846 C845 1.393 . S
C846 C847 1.382 . S
C847 H812 0.929 . S
C847 C842 1.371 . S
C847 C846 1.382 . S
C848 N816 1.423 . S
C848 C849 1.362 . S
C848 C853 1.388 . S
C849 H813 0.929 . S
C849 C848 1.362 . S
C849 C850 1.376 . S
C850 H814 0.931 . S
C850 C849 1.376 . S
C850 C851 1.396 . S
C851 C833 1.472 . S
C851 C850 1.396 . S
C851 C852 1.348 . S
C852 H815 0.929 . S
C852 C851 1.348 . S
C852 C853 1.443 . S
C853 H817 0.932 . S
C853 C848 1.388 . S
C853 C852 1.443 . S
H854 C881 0.929 . S
N855 C880 1.433 . S
N855 C886 1.435 . S
N855 C892 1.423 . S
H856 C882 0.930 . S
H857 C885 0.931 . S
H858 C884 0.929 . S
H859 C887 0.930 . S
H860 C888 0.932 . S
H861 C891 0.929 . S
H862 C890 0.931 . S
H863 C893 0.929 . S
H864 C897 0.932 . S
H865 C894 0.931 . S
H866 C896 0.929 . S
H867 C899 0.929 . S
H868 C900 0.930 . S
H869 C902 0.929 . S
H870 C903 0.931 . S
H871 C905 0.930 . S
H872 C906 0.932 . S
H873 C908 0.931 . S
H874 C909 0.929 . S
H875 C911 0.929 . S
H876 C912 0.931 . S
H877 C914 0.929 . S
N878 C898 1.433 . S
N878 C904 1.435 . S
N878 C910 1.423 . S
H879 C915 0.932 . S
C880 N855 1.433 . S
C880 C881 1.363 . S
C880 C885 1.370 . S
C881 H854 0.929 . S
C881 C880 1.363 . S
C881 C882 1.385 . S
C882 H856 0.930 . S
C882 C881 1.385 . S
C882 C883 1.357 . S
C883 C882 1.357 . S
C883 C884 1.406 . S
C884 H858 0.929 . S
C884 C883 1.406 . S
C884 C885 1.391 . S
C885 H857 0.931 . S
C885 C880 1.370 . S
C885 C884 1.391 . S
C886 N855 1.435 . S
C886 C887 1.358 . S
C886 C891 1.371 . S
C887 H859 0.930 . S
C887 C886 1.358 . S
C887 C888 1.405 . S
C888 H860 0.932 . S
C888 C887 1.405 . S
C888 C889 1.383 . S
C889 C888 1.383 . S
C889 C890 1.393 . S
C890 H862 0.931 . S
C890 C889 1.393 . S
C890 C891 1.382 . S
C891 H861 0.929 . S
C891 C886 1.371 . S
C891 C890 1.382 . S
C892 N855 1.423 . S
C892 C893 1.362 . S
C892 C897 1.388 . S
C893 H863 0.929 . S
C893 C892 1.362 . S
C893 C894 1.376 . S
C894 H865 0.931 . S
C894 C893 1.376 . S
C894 C895 1.396 . S
C895 C894 1.396 . S
C895 C896 1.348 . S
C895 C913 1.472 . S
C896 H866 0.929 . S
C896 C895 1.348 . S
C896 C897 1.443 . S
C897 H864 0.932 . S
C897 C892 1.388 . S
C897 C896 1.443 . S
C898 N878 1.433 . S
C898 C899 1.363 . S
C898 C903 1.370 . S
C899 H867 0.929 . S
C899 C898 1.363 . S
C899 C900 1.385 . S
C900 H868 0.930 . S
C900 C899 1.385 . S
C900 C901 1.357 . S
C901 C900 1.357 . S
C901 C902 1.406 . S
C902 H869 0.929 . S
C902 C901 1.406 . S
C902 C903 1.391 . S
C903 H870 0.931 . S
C903 C898 1.370 . S
C903 C902 1.391 . S
C904 N878 1.435 . S
C904 C905 1.358 . S
C904 C909 1.371 . S
C905 H871 0.930 . S
C905 C904 1.358 . S
C905 C906 1.405 . S
C906 H872 0.932 . S
C906 C905 1.405 . S
C906 C907 1.383 . S
C907 C906 1.383 . S
C907 C908 1.393 . S
C908 H873 0.931 . S
C908 C907 1.393 . S
C908 C909 1.382 . S
C909 H874 0.929 . S
C909 C904 1.371 . S
C909 C908 1.382 . S
C910 N878 1.423 . S
C910 C911 1.362 . S
C910 C915 1.388 . S
C911 H875 0.929 . S
C911 C910 1.362 . S
C911 C912 1.376 . S
C912 H876 0.931 . S
C912 C911 1.376 . S
C912 C913 1.396 . S
C913 C895 1.472 . S
C913 C912 1.396 . S
C913 C914 1.348 . S
C914 H877 0.929 . S
C914 C913 1.348 . S
C914 C915 1.443 . S
C915 H879 0.932 . S
C915 C910 1.388 . S
C915 C914 1.443 . S
H916 C943 0.929 . S
N917 C942 1.433 . S
N917 C948 1.435 . S
N917 C954 1.423 . S
H918 C944 0.930 . S
H919 C947 0.931 . S
H920 C946 0.929 . S
H921 C949 0.930 . S
H922 C950 0.932 . S
H923 C953 0.929 . S
H924 C952 0.931 . S
H925 C955 0.929 . S
H926 C959 0.932 1_545 S
H927 C956 0.931 . S
H928 C958 0.929 . S
H929 C961 0.929 . S
H930 C962 0.930 . S
H931 C964 0.929 . S
H932 C965 0.931 . S
H933 C967 0.930 . S
H934 C968 0.932 . S
H935 C970 0.931 . S
H936 C971 0.929 . S
H937 C973 0.929 . S
H938 C974 0.931 . S
H939 C976 0.929 . S
N940 C960 1.433 . S
N940 C966 1.435 . S
N940 C972 1.423 . S
H941 C977 0.932 1_545 S
C942 N917 1.433 . S
C942 C943 1.363 . S
C942 C947 1.370 1_565 S
C943 H916 0.929 . S
C943 C942 1.363 . S
C943 C944 1.385 . S
C944 H918 0.930 . S
C944 C943 1.385 . S
C944 C945 1.357 1_565 S
C945 C944 1.357 1_545 S
C945 C946 1.406 . S
C946 H920 0.929 . S
C946 C945 1.406 . S
C946 C947 1.391 . S
C947 H919 0.931 . S
C947 C942 1.370 1_545 S
C947 C946 1.391 . S
C948 N917 1.435 . S
C948 C949 1.358 1_565 S
C948 C953 1.371 . S
C949 H921 0.930 . S
C949 C948 1.358 1_545 S
C949 C950 1.405 . S
C950 H922 0.932 . S
C950 C949 1.405 . S
C950 C951 1.383 1_545 S
C951 C950 1.383 1_565 S
C951 C952 1.393 . S
C952 H924 0.931 . S
C952 C951 1.393 . S
C952 C953 1.382 . S
C953 H923 0.929 . S
C953 C948 1.371 . S
C953 C952 1.382 . S
C954 N917 1.423 . S
C954 C955 1.362 . S
C954 C959 1.388 . S
C955 H925 0.929 . S
C955 C954 1.362 . S
C955 C956 1.376 . S
C956 H927 0.931 . S
C956 C955 1.376 . S
C956 C957 1.396 . S
C957 C956 1.396 . S
C957 C958 1.348 . S
C957 C975 1.472 . S
C958 H928 0.929 . S
C958 C957 1.348 . S
C958 C959 1.443 . S
C959 H926 0.932 1_565 S
C959 C954 1.388 . S
C959 C958 1.443 . S
C960 N940 1.433 . S
C960 C961 1.363 . S
C960 C965 1.370 1_565 S
C961 H929 0.929 . S
C961 C960 1.363 . S
C961 C962 1.385 . S
C962 H930 0.930 . S
C962 C961 1.385 . S
C962 C963 1.357 1_565 S
C963 C962 1.357 1_545 S
C963 C964 1.406 . S
C964 H931 0.929 . S
C964 C963 1.406 . S
C964 C965 1.391 . S
C965 H932 0.931 . S
C965 C960 1.370 1_545 S
C965 C964 1.391 . S
C966 N940 1.435 . S
C966 C967 1.358 1_565 S
C966 C971 1.371 . S
C967 H933 0.930 . S
C967 C966 1.358 1_545 S
C967 C968 1.405 . S
C968 H934 0.932 . S
C968 C967 1.405 . S
C968 C969 1.383 1_545 S
C969 C968 1.383 1_565 S
C969 C970 1.393 . S
C970 H935 0.931 . S
C970 C969 1.393 . S
C970 C971 1.382 . S
C971 H936 0.929 . S
C971 C966 1.371 . S
C971 C970 1.382 . S
C972 N940 1.423 . S
C972 C973 1.362 . S
C972 C977 1.388 . S
C973 H937 0.929 . S
C973 C972 1.362 . S
C973 C974 1.376 . S
C974 H938 0.931 . S
C974 C973 1.376 . S
C974 C975 1.396 . S
C975 C957 1.472 . S
C975 C974 1.396 . S
C975 C976 1.348 . S
C976 H939 0.929 . S
C976 C975 1.348 . S
C976 C977 1.443 . S
C977 H941 0.932 1_565 S
C977 C972 1.388 . S
C977 C976 1.443 . S
H978 C1005 0.929 . S
N979 C1004 1.433 . S
N979 C1010 1.435 . S
N979 C1016 1.423 . S
H980 C1006 0.930 . S
H981 C1009 0.931 . S
H982 C1008 0.929 . S
H983 C1011 0.930 . S
H984 C1012 0.932 . S
H985 C1015 0.929 . S
H986 C1014 0.931 . S
H987 C1017 0.915 1_565 S
H988 C1021 0.932 . S
H989 C1018 0.972 . S
H990 C1020 0.929 . S
H991 C1023 0.929 . S
H992 C1024 0.930 . S
H993 C1026 0.929 . S
H994 C1027 0.931 . S
H995 C1029 0.930 . S
H996 C1030 0.932 . S
H997 C1032 0.931 . S
H998 C1033 0.929 . S
H999 C1035 0.893 1_565 S
H1000 C1036 0.951 . S
H1001 C1038 0.929 . S
N1002 C1022 1.433 . S
N1002 C1028 1.435 . S
N1002 C1034 1.423 . S
H1003 C1039 0.932 . S
C1004 N979 1.433 . S
C1004 C1005 1.363 . S
C1004 C1009 1.370 . S
C1005 H978 0.929 . S
C1005 C1004 1.363 . S
C1005 C1006 1.385 . S
C1006 H980 0.930 . S
C1006 C1005 1.385 . S
C1006 C1007 1.357 . S
C1007 C1006 1.357 . S
C1007 C1008 1.406 . S
C1008 H982 0.929 . S
C1008 C1007 1.406 . S
C1008 C1009 1.391 . S
C1009 H981 0.931 . S
C1009 C1004 1.370 . S
C1009 C1008 1.391 . S
C1010 N979 1.435 . S
C1010 C1011 1.358 . S
C1010 C1015 1.371 . S
C1011 H983 0.930 . S
C1011 C1010 1.358 . S
C1011 C1012 1.405 . S
C1012 H984 0.932 . S
C1012 C1011 1.405 . S
C1012 C1013 1.383 . S
C1013 C1012 1.383 . S
C1013 C1014 1.393 . S
C1014 H986 0.931 . S
C1014 C1013 1.393 . S
C1014 C1015 1.382 . S
C1015 H985 0.929 . S
C1015 C1010 1.371 . S
C1015 C1014 1.382 . S
C1016 N979 1.423 . S
C1016 C1017 1.408 . S
C1016 C1021 1.388 . S
C1017 H987 0.915 1_545 S
C1017 C1016 1.408 . S
C1017 C1018 1.322 1_545 S
C1018 H989 0.972 . S
C1018 C1017 1.322 1_565 S
C1018 C1019 1.384 1_565 S
C1019 C1018 1.384 1_545 S
C1019 C1020 1.348 . S
C1019 C1037 1.472 . S
C1020 H990 0.929 . S
C1020 C1019 1.348 . S
C1020 C1021 1.443 . S
C1021 H988 0.932 . S
C1021 C1016 1.388 . S
C1021 C1020 1.443 . S
C1022 N1002 1.433 . S
C1022 C1023 1.363 . S
C1022 C1027 1.370 . S
C1023 H991 0.929 . S
C1023 C1022 1.363 . S
C1023 C1024 1.385 . S
C1024 H992 0.930 . S
C1024 C1023 1.385 . S
C1024 C1025 1.357 . S
C1025 C1024 1.357 . S
C1025 C1026 1.406 . S
C1026 H993 0.929 . S
C1026 C1025 1.406 . S
C1026 C1027 1.391 . S
C1027 H994 0.931 . S
C1027 C1022 1.370 . S
C1027 C1026 1.391 . S
C1028 N1002 1.435 . S
C1028 C1029 1.358 . S
C1028 C1033 1.371 . S
C1029 H995 0.930 . S
C1029 C1028 1.358 . S
C1029 C1030 1.405 . S
C1030 H996 0.932 . S
C1030 C1029 1.405 . S
C1030 C1031 1.383 . S
C1031 C1030 1.383 . S
C1031 C1032 1.393 . S
C1032 H997 0.931 . S
C1032 C1031 1.393 . S
C1032 C1033 1.382 . S
C1033 H998 0.929 . S
C1033 C1028 1.371 . S
C1033 C1032 1.382 . S
C1034 N1002 1.423 . S
C1034 C1035 1.378 . S
C1034 C1039 1.388 . S
C1035 H999 0.893 1_545 S
C1035 C1034 1.378 . S
C1035 C1036 1.422 1_545 S
C1036 H1000 0.951 . S
C1036 C1035 1.422 1_565 S
C1036 C1037 1.356 1_565 S
C1037 C1019 1.472 . S
C1037 C1036 1.356 1_545 S
C1037 C1038 1.348 . S
C1038 H1001 0.929 . S
C1038 C1037 1.348 . S
C1038 C1039 1.443 . S
C1039 H1003 0.932 . S
C1039 C1034 1.388 . S
C1039 C1038 1.443 . S
H1040 C1067 0.929 . S
N1041 C1066 1.433 . S
N1041 C1072 1.435 . S
N1041 C1078 1.423 . S
H1042 C1068 0.930 . S
H1043 C1071 0.931 . S
H1044 C1070 0.929 . S
H1045 C1073 0.930 . S
H1046 C1074 0.932 . S
H1047 C1077 0.929 . S
H1048 C1076 0.931 . S
H1049 C1079 0.929 . S
H1050 C1083 0.932 1_455 S
H1051 C1080 0.931 . S
H1052 C1082 0.929 . S
H1053 C1085 0.929 . S
H1054 C1086 0.930 . S
H1055 C1088 0.929 . S
H1056 C1089 0.931 . S
H1057 C1091 0.930 . S
H1058 C1092 0.932 . S
H1059 C1094 0.931 . S
H1060 C1095 0.929 . S
H1061 C1097 0.929 . S
H1062 C1098 0.931 . S
H1063 C1100 0.929 . S
N1064 C1084 1.433 . S
N1064 C1090 1.435 . S
N1064 C1096 1.423 . S
H1065 C1101 0.932 1_455 S
C1066 N1041 1.433 . S
C1066 C1067 1.363 . S
C1066 C1071 1.370 1_655 S
C1067 H1040 0.929 . S
C1067 C1066 1.363 . S
C1067 C1068 1.385 . S
C1068 H1042 0.930 . S
C1068 C1067 1.385 . S
C1068 C1069 1.357 1_655 S
C1069 C1068 1.357 1_455 S
C1069 C1070 1.406 . S
C1070 H1044 0.929 . S
C1070 C1069 1.406 . S
C1070 C1071 1.391 . S
C1071 H1043 0.931 . S
C1071 C1066 1.370 1_455 S
C1071 C1070 1.391 . S
C1072 N1041 1.435 . S
C1072 C1073 1.358 1_655 S
C1072 C1077 1.371 . S
C1073 H1045 0.930 . S
C1073 C1072 1.358 1_455 S
C1073 C1074 1.405 . S
C1074 H1046 0.932 . S
C1074 C1073 1.405 . S
C1074 C1075 1.383 1_455 S
C1075 C1074 1.383 1_655 S
C1075 C1076 1.393 . S
C1076 H1048 0.931 . S
C1076 C1075 1.393 . S
C1076 C1077 1.382 . S
C1077 H1047 0.929 . S
C1077 C1072 1.371 . S
C1077 C1076 1.382 . S
C1078 N1041 1.423 . S
C1078 C1079 1.362 . S
C1078 C1083 1.388 . S
C1079 H1049 0.929 . S
C1079 C1078 1.362 . S
C1079 C1080 1.376 . S
C1080 H1051 0.931 . S
C1080 C1079 1.376 . S
C1080 C1081 1.396 . S
C1081 C1080 1.396 . S
C1081 C1082 1.348 . S
C1081 C1099 1.472 . S
C1082 H1052 0.929 . S
C1082 C1081 1.348 . S
C1082 C1083 1.443 . S
C1083 H1050 0.932 1_655 S
C1083 C1078 1.388 . S
C1083 C1082 1.443 . S
C1084 N1064 1.433 . S
C1084 C1085 1.363 . S
C1084 C1089 1.370 1_655 S
C1085 H1053 0.929 . S
C1085 C1084 1.363 . S
C1085 C1086 1.385 . S
C1086 H1054 0.930 . S
C1086 C1085 1.385 . S
C1086 C1087 1.357 1_655 S
C1087 C1086 1.357 1_455 S
C1087 C1088 1.406 . S
C1088 H1055 0.929 . S
C1088 C1087 1.406 . S
C1088 C1089 1.391 . S
C1089 H1056 0.931 . S
C1089 C1084 1.370 1_455 S
C1089 C1088 1.391 . S
C1090 N1064 1.435 . S
C1090 C1091 1.358 1_655 S
C1090 C1095 1.371 . S
C1091 H1057 0.930 . S
C1091 C1090 1.358 1_455 S
C1091 C1092 1.405 . S
C1092 H1058 0.932 . S
C1092 C1091 1.405 . S
C1092 C1093 1.383 1_455 S
C1093 C1092 1.383 1_655 S
C1093 C1094 1.393 . S
C1094 H1059 0.931 . S
C1094 C1093 1.393 . S
C1094 C1095 1.382 . S
C1095 H1060 0.929 . S
C1095 C1090 1.371 . S
C1095 C1094 1.382 . S
C1096 N1064 1.423 . S
C1096 C1097 1.362 . S
C1096 C1101 1.388 . S
C1097 H1061 0.929 . S
C1097 C1096 1.362 . S
C1097 C1098 1.376 . S
C1098 H1062 0.931 . S
C1098 C1097 1.376 . S
C1098 C1099 1.396 . S
C1099 C1081 1.472 . S
C1099 C1098 1.396 . S
C1099 C1100 1.348 . S
C1100 H1063 0.929 . S
C1100 C1099 1.348 . S
C1100 C1101 1.443 . S
C1101 H1065 0.932 1_655 S
C1101 C1096 1.388 . S
C1101 C1100 1.443 . S
H1102 C1129 0.929 . S
N1103 C1128 1.433 . S
N1103 C1134 1.435 . S
N1103 C1140 1.423 . S
H1104 C1130 0.930 . S
H1105 C1133 0.931 . S
H1106 C1132 0.929 . S
H1107 C1135 0.930 . S
H1108 C1136 0.932 . S
H1109 C1139 0.929 . S
H1110 C1138 0.931 . S
H1111 C1141 0.929 . S
H1112 C1145 0.932 . S
H1113 C1142 0.931 . S
H1114 C1144 0.929 . S
H1115 C1147 0.929 . S
H1116 C1148 0.930 . S
H1117 C1150 0.929 . S
H1118 C1151 0.931 . S
H1119 C1153 0.930 . S
H1120 C1154 0.932 . S
H1121 C1156 0.931 . S
H1122 C1157 0.929 . S
H1123 C1159 0.929 . S
H1124 C1160 0.931 . S
H1125 C1162 0.929 . S
N1126 C1146 1.433 . S
N1126 C1152 1.435 . S
N1126 C1158 1.423 . S
H1127 C1163 0.932 . S
C1128 N1103 1.433 . S
C1128 C1129 1.363 . S
C1128 C1133 1.370 . S
C1129 H1102 0.929 . S
C1129 C1128 1.363 . S
C1129 C1130 1.385 . S
C1130 H1104 0.930 . S
C1130 C1129 1.385 . S
C1130 C1131 1.357 . S
C1131 C1130 1.357 . S
C1131 C1132 1.406 . S
C1132 H1106 0.929 . S
C1132 C1131 1.406 . S
C1132 C1133 1.391 . S
C1133 H1105 0.931 . S
C1133 C1128 1.370 . S
C1133 C1132 1.391 . S
C1134 N1103 1.435 . S
C1134 C1135 1.358 . S
C1134 C1139 1.371 . S
C1135 H1107 0.930 . S
C1135 C1134 1.358 . S
C1135 C1136 1.405 . S
C1136 H1108 0.932 . S
C1136 C1135 1.405 . S
C1136 C1137 1.383 . S
C1137 C1136 1.383 . S
C1137 C1138 1.393 . S
C1138 H1110 0.931 . S
C1138 C1137 1.393 . S
C1138 C1139 1.382 . S
C1139 H1109 0.929 . S
C1139 C1134 1.371 . S
C1139 C1138 1.382 . S
C1140 N1103 1.423 . S
C1140 C1141 1.362 . S
C1140 C1145 1.388 . S
C1141 H1111 0.929 . S
C1141 C1140 1.362 . S
C1141 C1142 1.376 . S
C1142 H1113 0.931 . S
C1142 C1141 1.376 . S
C1142 C1143 1.396 . S
C1143 C1142 1.396 . S
C1143 C1144 1.348 . S
C1143 C1161 1.472 . S
C1144 H1114 0.929 . S
C1144 C1143 1.348 . S
C1144 C1145 1.443 . S
C1145 H1112 0.932 . S
C1145 C1140 1.388 . S
C1145 C1144 1.443 . S
C1146 N1126 1.433 . S
C1146 C1147 1.363 . S
C1146 C1151 1.370 . S
C1147 H1115 0.929 . S
C1147 C1146 1.363 . S
C1147 C1148 1.385 . S
C1148 H1116 0.930 . S
C1148 C1147 1.385 . S
C1148 C1149 1.357 . S
C1149 C1148 1.357 . S
C1149 C1150 1.406 . S
C1150 H1117 0.929 . S
C1150 C1149 1.406 . S
C1150 C1151 1.391 . S
C1151 H1118 0.931 . S
C1151 C1146 1.370 . S
C1151 C1150 1.391 . S
C1152 N1126 1.435 . S
C1152 C1153 1.358 . S
C1152 C1157 1.371 . S
C1153 H1119 0.930 . S
C1153 C1152 1.358 . S
C1153 C1154 1.405 . S
C1154 H1120 0.932 . S
C1154 C1153 1.405 . S
C1154 C1155 1.383 . S
C1155 C1154 1.383 . S
C1155 C1156 1.393 . S
C1156 H1121 0.931 . S
C1156 C1155 1.393 . S
C1156 C1157 1.382 . S
C1157 H1122 0.929 . S
C1157 C1152 1.371 . S
C1157 C1156 1.382 . S
C1158 N1126 1.423 . S
C1158 C1159 1.362 . S
C1158 C1163 1.388 . S
C1159 H1123 0.929 . S
C1159 C1158 1.362 . S
C1159 C1160 1.376 . S
C1160 H1124 0.931 . S
C1160 C1159 1.376 . S
C1160 C1161 1.396 . S
C1161 C1143 1.472 . S
C1161 C1160 1.396 . S
C1161 C1162 1.348 . S
C1162 H1125 0.929 . S
C1162 C1161 1.348 . S
C1162 C1163 1.443 . S
C1163 H1127 0.932 . S
C1163 C1158 1.388 . S
C1163 C1162 1.443 . S
H1164 C1191 0.929 . S
N1165 C1190 1.433 . S
N1165 C1196 1.435 . S
N1165 C1202 1.423 . S
H1166 C1192 0.930 . S
H1167 C1195 0.931 . S
H1168 C1194 0.929 . S
H1169 C1197 0.930 . S
H1170 C1198 0.932 . S
H1171 C1201 0.929 . S
H1172 C1200 0.931 . S
H1173 C1203 0.929 . S
H1174 C1207 0.932 . S
H1175 C1204 0.931 . S
H1176 C1206 0.929 . S
H1177 C1209 0.929 . S
H1178 C1210 0.930 . S
H1179 C1212 0.929 . S
H1180 C1213 0.931 . S
H1181 C1215 0.930 . S
H1182 C1216 0.932 . S
H1183 C1218 0.931 . S
H1184 C1219 0.929 . S
H1185 C1221 0.929 . S
H1186 C1222 0.931 . S
H1187 C1224 0.929 . S
N1188 C1208 1.433 . S
N1188 C1214 1.435 . S
N1188 C1220 1.423 . S
H1189 C1225 0.932 . S
C1190 N1165 1.433 . S
C1190 C1191 1.363 . S
C1190 C1195 1.370 . S
C1191 H1164 0.929 . S
C1191 C1190 1.363 . S
C1191 C1192 1.385 . S
C1192 H1166 0.930 . S
C1192 C1191 1.385 . S
C1192 C1193 1.357 . S
C1193 C1192 1.357 . S
C1193 C1194 1.406 . S
C1194 H1168 0.929 . S
C1194 C1193 1.406 . S
C1194 C1195 1.391 . S
C1195 H1167 0.931 . S
C1195 C1190 1.370 . S
C1195 C1194 1.391 . S
C1196 N1165 1.435 . S
C1196 C1197 1.358 . S
C1196 C1201 1.371 . S
C1197 H1169 0.930 . S
C1197 C1196 1.358 . S
C1197 C1198 1.405 . S
C1198 H1170 0.932 . S
C1198 C1197 1.405 . S
C1198 C1199 1.383 . S
C1199 C1198 1.383 . S
C1199 C1200 1.393 . S
C1200 H1172 0.931 . S
C1200 C1199 1.393 . S
C1200 C1201 1.382 . S
C1201 H1171 0.929 . S
C1201 C1196 1.371 . S
C1201 C1200 1.382 . S
C1202 N1165 1.423 . S
C1202 C1203 1.362 . S
C1202 C1207 1.388 . S
C1203 H1173 0.929 . S
C1203 C1202 1.362 . S
C1203 C1204 1.376 . S
C1204 H1175 0.931 . S
C1204 C1203 1.376 . S
C1204 C1205 1.396 . S
C1205 C1204 1.396 . S
C1205 C1206 1.348 . S
C1205 C1223 1.472 . S
C1206 H1176 0.929 . S
C1206 C1205 1.348 . S
C1206 C1207 1.443 . S
C1207 H1174 0.932 . S
C1207 C1202 1.388 . S
C1207 C1206 1.443 . S
C1208 N1188 1.433 . S
C1208 C1209 1.363 . S
C1208 C1213 1.370 . S
C1209 H1177 0.929 . S
C1209 C1208 1.363 . S
C1209 C1210 1.385 . S
C1210 H1178 0.930 . S
C1210 C1209 1.385 . S
C1210 C1211 1.357 . S
C1211 C1210 1.357 . S
C1211 C1212 1.406 . S
C1212 H1179 0.929 . S
C1212 C1211 1.406 . S
C1212 C1213 1.391 . S
C1213 H1180 0.931 . S
C1213 C1208 1.370 . S
C1213 C1212 1.391 . S
C1214 N1188 1.435 . S
C1214 C1215 1.358 . S
C1214 C1219 1.371 . S
C1215 H1181 0.930 . S
C1215 C1214 1.358 . S
C1215 C1216 1.405 . S
C1216 H1182 0.932 . S
C1216 C1215 1.405 . S
C1216 C1217 1.383 . S
C1217 C1216 1.383 . S
C1217 C1218 1.393 . S
C1218 H1183 0.931 . S
C1218 C1217 1.393 . S
C1218 C1219 1.382 . S
C1219 H1184 0.929 . S
C1219 C1214 1.371 . S
C1219 C1218 1.382 . S
C1220 N1188 1.423 . S
C1220 C1221 1.362 . S
C1220 C1225 1.388 . S
C1221 H1185 0.929 . S
C1221 C1220 1.362 . S
C1221 C1222 1.376 . S
C1222 H1186 0.931 . S
C1222 C1221 1.376 . S
C1222 C1223 1.396 . S
C1223 C1205 1.472 . S
C1223 C1222 1.396 . S
C1223 C1224 1.348 . S
C1224 H1187 0.929 . S
C1224 C1223 1.348 . S
C1224 C1225 1.443 . S
C1225 H1189 0.932 . S
C1225 C1220 1.388 . S
C1225 C1224 1.443 . S
H1226 C1253 0.929 . S
N1227 C1252 1.433 . S
N1227 C1258 1.435 . S
N1227 C1264 1.423 . S
H1228 C1254 0.930 . S
H1229 C1257 0.931 . S
H1230 C1256 0.929 . S
H1231 C1259 0.930 . S
H1232 C1260 0.932 . S
H1233 C1263 0.929 . S
H1234 C1262 0.931 . S
H1235 C1265 0.929 . S
H1236 C1269 0.932 . S
H1237 C1266 0.931 . S
H1238 C1268 0.929 . S
H1239 C1271 0.929 . S
H1240 C1272 0.930 . S
H1241 C1274 0.929 . S
H1242 C1275 0.931 . S
H1243 C1277 0.930 . S
H1244 C1278 0.932 . S
H1245 C1280 0.931 . S
H1246 C1281 0.929 . S
H1247 C1283 0.929 . S
H1248 C1284 0.931 . S
H1249 C1286 0.929 . S
N1250 C1270 1.433 . S
N1250 C1276 1.435 . S
N1250 C1282 1.423 . S
H1251 C1287 0.932 . S
C1252 N1227 1.433 . S
C1252 C1253 1.363 . S
C1252 C1257 1.370 . S
C1253 H1226 0.929 . S
C1253 C1252 1.363 . S
C1253 C1254 1.385 . S
C1254 H1228 0.930 . S
C1254 C1253 1.385 . S
C1254 C1255 1.357 . S
C1255 C1254 1.357 . S
C1255 C1256 1.406 . S
C1256 H1230 0.929 . S
C1256 C1255 1.406 . S
C1256 C1257 1.391 . S
C1257 H1229 0.931 . S
C1257 C1252 1.370 . S
C1257 C1256 1.391 . S
C1258 N1227 1.435 . S
C1258 C1259 1.358 . S
C1258 C1263 1.371 . S
C1259 H1231 0.930 . S
C1259 C1258 1.358 . S
C1259 C1260 1.405 . S
C1260 H1232 0.932 . S
C1260 C1259 1.405 . S
C1260 C1261 1.383 . S
C1261 C1260 1.383 . S
C1261 C1262 1.393 . S
C1262 H1234 0.931 . S
C1262 C1261 1.393 . S
C1262 C1263 1.382 . S
C1263 H1233 0.929 . S
C1263 C1258 1.371 . S
C1263 C1262 1.382 . S
C1264 N1227 1.423 . S
C1264 C1265 1.362 . S
C1264 C1269 1.388 . S
C1265 H1235 0.929 . S
C1265 C1264 1.362 . S
C1265 C1266 1.376 . S
C1266 H1237 0.931 . S
C1266 C1265 1.376 . S
C1266 C1267 1.396 . S
C1267 C1266 1.396 . S
C1267 C1268 1.348 . S
C1267 C1285 1.472 . S
C1268 H1238 0.929 . S
C1268 C1267 1.348 . S
C1268 C1269 1.443 . S
C1269 H1236 0.932 . S
C1269 C1264 1.388 . S
C1269 C1268 1.443 . S
C1270 N1250 1.433 . S
C1270 C1271 1.363 . S
C1270 C1275 1.370 . S
C1271 H1239 0.929 . S
C1271 C1270 1.363 . S
C1271 C1272 1.385 . S
C1272 H1240 0.930 . S
C1272 C1271 1.385 . S
C1272 C1273 1.357 . S
C1273 C1272 1.357 . S
C1273 C1274 1.406 . S
C1274 H1241 0.929 . S
C1274 C1273 1.406 . S
C1274 C1275 1.391 . S
C1275 H1242 0.931 . S
C1275 C1270 1.370 . S
C1275 C1274 1.391 . S
C1276 N1250 1.435 . S
C1276 C1277 1.358 . S
C1276 C1281 1.371 . S
C1277 H1243 0.930 . S
C1277 C1276 1.358 . S
C1277 C1278 1.405 . S
C1278 H1244 0.932 . S
C1278 C1277 1.405 . S
C1278 C1279 1.383 . S
C1279 C1278 1.383 . S
C1279 C1280 1.393 . S
C1280 H1245 0.931 . S
C1280 C1279 1.393 . S
C1280 C1281 1.382 . S
C1281 H1246 0.929 . S
C1281 C1276 1.371 . S
C1281 C1280 1.382 . S
C1282 N1250 1.423 . S
C1282 C1283 1.362 . S
C1282 C1287 1.388 . S
C1283 H1247 0.929 . S
C1283 C1282 1.362 . S
C1283 C1284 1.376 . S
C1284 H1248 0.931 . S
C1284 C1283 1.376 . S
C1284 C1285 1.396 . S
C1285 C1267 1.472 . S
C1285 C1284 1.396 . S
C1285 C1286 1.348 . S
C1286 H1249 0.929 . S
C1286 C1285 1.348 . S
C1286 C1287 1.443 . S
C1287 H1251 0.932 . S
C1287 C1282 1.388 . S
C1287 C1286 1.443 . S
H1288 C1315 0.929 . S
N1289 C1314 1.433 . S
N1289 C1320 1.435 . S
N1289 C1326 1.423 . S
H1290 C1316 0.930 . S
H1291 C1319 0.931 . S
H1292 C1318 0.929 . S
H1293 C1321 0.930 . S
H1294 C1322 0.932 . S
H1295 C1325 0.929 . S
H1296 C1324 0.931 . S
H1297 C1327 0.929 . S
H1298 C1331 0.932 . S
H1299 C1328 0.931 . S
H1300 C1330 0.929 . S
H1301 C1333 0.929 . S
H1302 C1334 0.930 . S
H1303 C1336 0.929 . S
H1304 C1337 0.931 . S
H1305 C1339 0.930 . S
H1306 C1340 0.932 . S
H1307 C1342 0.931 . S
H1308 C1343 0.929 . S
H1309 C1345 0.929 . S
H1310 C1346 0.931 . S
H1311 C1348 0.929 . S
N1312 C1332 1.433 . S
N1312 C1338 1.435 . S
N1312 C1344 1.423 . S
H1313 C1349 0.932 . S
C1314 N1289 1.433 . S
C1314 C1315 1.363 . S
C1314 C1319 1.370 . S
C1315 H1288 0.929 . S
C1315 C1314 1.363 . S
C1315 C1316 1.385 . S
C1316 H1290 0.930 . S
C1316 C1315 1.385 . S
C1316 C1317 1.357 . S
C1317 C1316 1.357 . S
C1317 C1318 1.406 . S
C1318 H1292 0.929 . S
C1318 C1317 1.406 . S
C1318 C1319 1.391 . S
C1319 H1291 0.931 . S
C1319 C1314 1.370 . S
C1319 C1318 1.391 . S
C1320 N1289 1.435 . S
C1320 C1321 1.358 . S
C1320 C1325 1.371 . S
C1321 H1293 0.930 . S
C1321 C1320 1.358 . S
C1321 C1322 1.405 . S
C1322 H1294 0.932 . S
C1322 C1321 1.405 . S
C1322 C1323 1.383 . S
C1323 C1322 1.383 . S
C1323 C1324 1.393 . S
C1324 H1296 0.931 . S
C1324 C1323 1.393 . S
C1324 C1325 1.382 . S
C1325 H1295 0.929 . S
C1325 C1320 1.371 . S
C1325 C1324 1.382 . S
C1326 N1289 1.423 . S
C1326 C1327 1.362 . S
C1326 C1331 1.388 . S
C1327 H1297 0.929 . S
C1327 C1326 1.362 . S
C1327 C1328 1.376 . S
C1328 H1299 0.931 . S
C1328 C1327 1.376 . S
C1328 C1329 1.396 . S
C1329 C1328 1.396 . S
C1329 C1330 1.348 . S
C1329 C1347 1.472 . S
C1330 H1300 0.929 . S
C1330 C1329 1.348 . S
C1330 C1331 1.443 . S
C1331 H1298 0.932 . S
C1331 C1326 1.388 . S
C1331 C1330 1.443 . S
C1332 N1312 1.433 . S
C1332 C1333 1.363 . S
C1332 C1337 1.370 . S
C1333 H1301 0.929 . S
C1333 C1332 1.363 . S
C1333 C1334 1.385 . S
C1334 H1302 0.930 . S
C1334 C1333 1.385 . S
C1334 C1335 1.357 . S
C1335 C1334 1.357 . S
C1335 C1336 1.406 . S
C1336 H1303 0.929 . S
C1336 C1335 1.406 . S
C1336 C1337 1.391 . S
C1337 H1304 0.931 . S
C1337 C1332 1.370 . S
C1337 C1336 1.391 . S
C1338 N1312 1.435 . S
C1338 C1339 1.358 . S
C1338 C1343 1.371 . S
C1339 H1305 0.930 . S
C1339 C1338 1.358 . S
C1339 C1340 1.405 . S
C1340 H1306 0.932 . S
C1340 C1339 1.405 . S
C1340 C1341 1.383 . S
C1341 C1340 1.383 . S
C1341 C1342 1.393 . S
C1342 H1307 0.931 . S
C1342 C1341 1.393 . S
C1342 C1343 1.382 . S
C1343 H1308 0.929 . S
C1343 C1338 1.371 . S
C1343 C1342 1.382 . S
C1344 N1312 1.423 . S
C1344 C1345 1.362 . S
C1344 C1349 1.388 . S
C1345 H1309 0.929 . S
C1345 C1344 1.362 . S
C1345 C1346 1.376 . S
C1346 H1310 0.931 . S
C1346 C1345 1.376 . S
C1346 C1347 1.396 . S
C1347 C1329 1.472 . S
C1347 C1346 1.396 . S
C1347 C1348 1.348 . S
C1348 H1311 0.929 . S
C1348 C1347 1.348 . S
C1348 C1349 1.443 . S
C1349 H1313 0.932 . S
C1349 C1344 1.388 . S
C1349 C1348 1.443 . S
H1350 C1356 0.930 . S
H1351 C1359 0.945 . S
H1352 C1360 0.930 . S
H1353 C1361 0.930 1_655 S
H1354 C1364 0.930 . S
H1355 C1365 0.930 . S
C1356 H1350 0.930 . S
C1356 C1357 1.355 . S
C1356 C1358 1.415 . S
C1357 C1356 1.355 . S
C1357 C1359 1.377 1_455 S
C1358 C1356 1.415 . S
C1358 C1363 1.425 . S
C1358 C1365 1.409 . S
C1359 H1351 0.945 . S
C1359 C1357 1.377 1_655 S
C1359 C1360 1.396 . S
C1360 H1352 0.930 . S
C1360 C1359 1.396 . S
C1360 C1363 1.409 1_655 S
C1361 H1353 0.930 1_455 S
C1361 C1362 1.355 . S
C1361 C1363 1.415 . S
C1362 C1361 1.355 . S
C1362 C1364 1.419 . S
C1363 C1358 1.425 . S
C1363 C1360 1.409 1_455 S
C1363 C1361 1.415 . S
C1364 H1354 0.930 . S
C1364 C1362 1.419 . S
C1364 C1365 1.362 . S
C1365 H1355 0.930 . S
C1365 C1358 1.409 . S
C1365 C1364 1.362 . S
H1366 C1372 0.930 . S
H1367 C1375 0.930 . S
H1368 C1376 0.930 . S
H1369 C1377 0.930 . S
H1370 C1380 0.930 . S
H1371 C1381 0.930 . S
C1372 H1366 0.930 . S
C1372 C1373 1.355 . S
C1372 C1374 1.415 . S
C1373 C1372 1.355 . S
C1373 C1375 1.419 . S
C1374 C1372 1.415 . S
C1374 C1379 1.425 . S
C1374 C1381 1.409 . S
C1375 H1367 0.930 . S
C1375 C1373 1.419 . S
C1375 C1376 1.362 . S
C1376 H1368 0.930 . S
C1376 C1375 1.362 . S
C1376 C1379 1.409 . S
C1377 H1369 0.930 . S
C1377 C1378 1.355 . S
C1377 C1379 1.415 . S
C1378 C1377 1.355 . S
C1378 C1380 1.419 . S
C1379 C1374 1.425 . S
C1379 C1376 1.409 . S
C1379 C1377 1.415 . S
C1380 H1370 0.930 . S
C1380 C1378 1.419 . S
C1380 C1381 1.362 . S
C1381 H1371 0.930 . S
C1381 C1374 1.409 . S
C1381 C1380 1.362 . S
H1382 C1388 0.930 . S
H1383 C1391 0.945 1_565 S
H1384 C1392 0.931 1_565 S
H1385 C1393 0.930 . S
H1386 C1396 0.930 . S
H1387 C1397 0.930 . S
C1388 H1382 0.930 . S
C1388 C1389 1.355 . S
C1388 C1390 1.415 . S
C1389 C1388 1.355 . S
C1389 C1391 1.419 . S
C1390 C1388 1.415 . S
C1390 C1395 1.425 . S
C1390 C1397 1.409 . S
C1391 H1383 0.945 1_545 S
C1391 C1389 1.419 . S
C1391 C1392 1.377 . S
C1392 H1384 0.931 1_545 S
C1392 C1391 1.377 . S
C1392 C1395 1.397 . S
C1393 H1385 0.930 . S
C1393 C1394 1.355 . S
C1393 C1395 1.415 . S
C1394 C1393 1.355 . S
C1394 C1396 1.419 . S
C1395 C1390 1.425 . S
C1395 C1392 1.397 . S
C1395 C1393 1.415 . S
C1396 H1386 0.930 . S
C1396 C1394 1.419 . S
C1396 C1397 1.362 . S
C1397 H1387 0.930 . S
C1397 C1390 1.409 . S
C1397 C1396 1.362 . S
H1398 C1404 0.930 . S
H1399 C1407 0.930 . S
H1400 C1408 0.930 . S
H1401 C1409 0.930 . S
H1402 C1412 0.930 . S
H1403 C1413 0.930 . S
C1404 H1398 0.930 . S
C1404 C1405 1.355 . S
C1404 C1406 1.415 . S
C1405 C1404 1.355 . S
C1405 C1407 1.419 . S
C1406 C1404 1.415 . S
C1406 C1411 1.425 . S
C1406 C1413 1.409 . S
C1407 H1399 0.930 . S
C1407 C1405 1.419 . S
C1407 C1408 1.362 . S
C1408 H1400 0.930 . S
C1408 C1407 1.362 . S
C1408 C1411 1.409 . S
C1409 H1401 0.930 . S
C1409 C1410 1.355 . S
C1409 C1411 1.415 . S
C1410 C1409 1.355 . S
C1410 C1412 1.419 . S
C1411 C1406 1.425 . S
C1411 C1408 1.409 . S
C1411 C1409 1.415 . S
C1412 H1402 0.930 . S
C1412 C1410 1.419 . S
C1412 C1413 1.362 . S
C1413 H1403 0.930 . S
C1413 C1406 1.409 . S
C1413 C1412 1.362 . S
H1414 C1420 0.930 . S
H1415 C1423 0.930 . S
H1416 C1424 0.930 . S
H1417 C1425 0.930 . S
H1418 C1428 0.930 . S
H1419 C1429 0.930 . S
C1420 H1414 0.930 . S
C1420 C1421 1.355 . S
C1420 C1422 1.415 . S
C1421 C1420 1.355 . S
C1421 C1423 1.419 1_455 S
C1422 C1420 1.415 . S
C1422 C1427 1.425 1_455 S
C1422 C1429 1.409 . S
C1423 H1415 0.930 . S
C1423 C1421 1.419 1_655 S
C1423 C1424 1.362 . S
C1424 H1416 0.930 . S
C1424 C1423 1.362 . S
C1424 C1427 1.409 . S
C1425 H1417 0.930 . S
C1425 C1426 1.355 1_655 S
C1425 C1427 1.415 . S
C1426 C1425 1.355 1_455 S
C1426 C1428 1.419 . S
C1427 C1422 1.425 1_655 S
C1427 C1424 1.409 . S
C1427 C1425 1.415 . S
C1428 H1418 0.930 . S
C1428 C1426 1.419 . S
C1428 C1429 1.362 . S
C1429 H1419 0.930 . S
C1429 C1422 1.409 . S
C1429 C1428 1.362 . S
H1430 C1436 0.930 . S
H1431 C1439 0.930 . S
H1432 C1440 0.930 . S
H1433 C1441 0.930 . S
H1434 C1444 0.930 . S
H1435 C1445 0.930 . S
C1436 H1430 0.930 . S
C1436 C1437 1.355 . S
C1436 C1438 1.415 . S
C1437 C1436 1.355 . S
C1437 C1439 1.419 . S
C1438 C1436 1.415 . S
C1438 C1443 1.425 . S
C1438 C1445 1.409 . S
C1439 H1431 0.930 . S
C1439 C1437 1.419 . S
C1439 C1440 1.362 . S
C1440 H1432 0.930 . S
C1440 C1439 1.362 . S
C1440 C1443 1.409 . S
C1441 H1433 0.930 . S
C1441 C1442 1.355 . S
C1441 C1443 1.415 . S
C1442 C1441 1.355 . S
C1442 C1444 1.419 . S
C1443 C1438 1.425 . S
C1443 C1440 1.409 . S
C1443 C1441 1.415 . S
C1444 H1434 0.930 . S
C1444 C1442 1.419 . S
C1444 C1445 1.362 . S
C1445 H1435 0.930 . S
C1445 C1438 1.409 . S
C1445 C1444 1.362 . S
H1446 C1452 0.930 1_655 S
H1447 C1455 0.930 . S
H1448 C1456 0.930 . S
H1449 C1457 0.930 . S
H1450 C1460 0.933 1_655 S
H1451 C1461 0.990 . S
C1452 H1446 0.930 1_455 S
C1452 C1453 1.355 . S
C1452 C1454 1.415 . S
C1453 C1452 1.355 . S
C1453 C1455 1.419 . S
C1454 C1452 1.415 . S
C1454 C1459 1.425 . S
C1454 C1461 1.389 1_455 S
C1455 H1447 0.930 . S
C1455 C1453 1.419 . S
C1455 C1456 1.362 . S
C1456 H1448 0.930 . S
C1456 C1455 1.362 . S
C1456 C1459 1.409 . S
C1457 H1449 0.930 . S
C1457 C1458 1.355 . S
C1457 C1459 1.415 . S
C1458 C1457 1.355 . S
C1458 C1460 1.413 . S
C1459 C1454 1.425 . S
C1459 C1456 1.409 . S
C1459 C1457 1.415 . S
C1460 H1450 0.933 1_455 S
C1460 C1458 1.413 . S
C1460 C1461 1.333 1_455 S
C1461 H1451 0.990 . S
C1461 C1454 1.389 1_655 S
C1461 C1460 1.333 1_655 S
H1462 C1468 0.930 . S
H1463 C1471 0.930 . S
H1464 C1472 0.930 . S
H1465 C1473 0.930 . S
H1466 C1476 0.930 . S
H1467 C1477 0.930 . S
C1468 H1462 0.930 . S
C1468 C1469 1.355 . S
C1468 C1470 1.415 . S
C1469 C1468 1.355 . S
C1469 C1471 1.419 . S
C1470 C1468 1.415 . S
C1470 C1475 1.425 . S
C1470 C1477 1.409 . S
C1471 H1463 0.930 . S
C1471 C1469 1.419 . S
C1471 C1472 1.362 . S
C1472 H1464 0.930 . S
C1472 C1471 1.362 . S
C1472 C1475 1.409 . S
C1473 H1465 0.930 . S
C1473 C1474 1.355 . S
C1473 C1475 1.415 . S
C1474 C1473 1.355 . S
C1474 C1476 1.419 . S
C1475 C1470 1.425 . S
C1475 C1472 1.409 . S
C1475 C1473 1.415 . S
C1476 H1466 0.930 . S
C1476 C1474 1.419 . S
C1476 C1477 1.362 . S
C1477 H1467 0.930 . S
C1477 C1470 1.409 . S
C1477 C1476 1.362 . S
H1478 C1484 0.930 . S
H1479 C1487 0.930 . S
H1480 C1488 0.930 . S
H1481 C1489 0.930 . S
H1482 C1492 0.930 . S
H1483 C1493 0.930 . S
C1484 H1478 0.930 . S
C1484 C1485 1.355 . S
C1484 C1486 1.415 . S
C1485 C1484 1.355 . S
C1485 C1487 1.419 . S
C1486 C1484 1.415 . S
C1486 C1491 1.425 . S
C1486 C1493 1.409 . S
C1487 H1479 0.930 . S
C1487 C1485 1.419 . S
C1487 C1488 1.362 . S
C1488 H1480 0.930 . S
C1488 C1487 1.362 . S
C1488 C1491 1.409 . S
C1489 H1481 0.930 . S
C1489 C1490 1.355 . S
C1489 C1491 1.415 . S
C1490 C1489 1.355 . S
C1490 C1492 1.419 . S
C1491 C1486 1.425 . S
C1491 C1488 1.409 . S
C1491 C1489 1.415 . S
C1492 H1482 0.930 . S
C1492 C1490 1.419 . S
C1492 C1493 1.362 . S
C1493 H1483 0.930 . S
C1493 C1486 1.409 . S
C1493 C1492 1.362 . S
H1494 C1500 0.930 . S
H1495 C1503 0.930 . S
H1496 C1504 0.930 . S
H1497 C1505 0.930 . S
H1498 C1508 0.930 . S
H1499 C1509 0.930 . S
C1500 H1494 0.930 . S
C1500 C1501 1.355 1_565 S
C1500 C1502 1.415 . S
C1501 C1500 1.355 1_545 S
C1501 C1503 1.419 . S
C1502 C1500 1.415 . S
C1502 C1507 1.425 1_565 S
C1502 C1509 1.409 . S
C1503 H1495 0.930 . S
C1503 C1501 1.419 . S
C1503 C1504 1.362 . S
C1504 H1496 0.930 . S
C1504 C1503 1.362 . S
C1504 C1507 1.409 . S
C1505 H1497 0.930 . S
C1505 C1506 1.355 . S
C1505 C1507 1.415 . S
C1506 C1505 1.355 . S
C1506 C1508 1.419 1_545 S
C1507 C1502 1.425 1_545 S
C1507 C1504 1.409 . S
C1507 C1505 1.415 . S
C1508 H1498 0.930 . S
C1508 C1506 1.419 1_565 S
C1508 C1509 1.362 . S
C1509 H1499 0.930 . S
C1509 C1502 1.409 . S
C1509 C1508 1.362 . S
H1510 C1516 0.930 . S
H1511 C1519 0.930 . S
H1512 C1520 0.930 . S
H1513 C1521 0.930 . S
H1514 C1524 0.930 1_655 S
H1515 C1525 0.870 1_655 S
C1516 H1510 0.930 . S
C1516 C1517 1.355 . S
C1516 C1518 1.415 . S
C1517 C1516 1.355 . S
C1517 C1519 1.419 . S
C1518 C1516 1.415 . S
C1518 C1523 1.425 . S
C1518 C1525 1.437 . S
C1519 H1511 0.930 . S
C1519 C1517 1.419 . S
C1519 C1520 1.362 . S
C1520 H1512 0.930 . S
C1520 C1519 1.362 . S
C1520 C1523 1.409 . S
C1521 H1513 0.930 . S
C1521 C1522 1.355 . S
C1521 C1523 1.415 . S
C1522 C1521 1.355 . S
C1522 C1524 1.419 . S
C1523 C1518 1.425 . S
C1523 C1520 1.409 . S
C1523 C1521 1.415 . S
C1524 H1514 0.930 1_455 S
C1524 C1522 1.419 . S
C1524 C1525 1.396 . S
C1525 H1515 0.870 1_455 S
C1525 C1518 1.437 . S
C1525 C1524 1.396 . S
H1526 C1532 0.930 . S
H1527 C1535 0.930 . S
H1528 C1536 0.930 . S
H1529 C1537 0.930 . S
H1530 C1540 0.930 . S
H1531 C1541 0.930 . S
C1532 H1526 0.930 . S
C1532 C1533 1.355 . S
C1532 C1534 1.415 . S
C1533 C1532 1.355 . S
C1533 C1535 1.419 . S
C1534 C1532 1.415 . S
C1534 C1539 1.425 . S
C1534 C1541 1.409 . S
C1535 H1527 0.930 . S
C1535 C1533 1.419 . S
C1535 C1536 1.362 . S
C1536 H1528 0.930 . S
C1536 C1535 1.362 . S
C1536 C1539 1.409 . S
C1537 H1529 0.930 . S
C1537 C1538 1.355 . S
C1537 C1539 1.415 . S
C1538 C1537 1.355 . S
C1538 C1540 1.419 . S
C1539 C1534 1.425 . S
C1539 C1536 1.409 . S
C1539 C1537 1.415 . S
C1540 H1530 0.930 . S
C1540 C1538 1.419 . S
C1540 C1541 1.362 . S
C1541 H1531 0.930 . S
C1541 C1534 1.409 . S
C1541 C1540 1.362 . S
H1542 C1548 0.930 . S
H1543 C1551 0.930 . S
H1544 C1552 0.930 . S
H1545 C1553 0.930 . S
H1546 C1556 0.930 . S
H1547 C1557 0.930 . S
C1548 H1542 0.930 . S
C1548 C1549 1.355 . S
C1548 C1550 1.415 . S
C1549 C1548 1.355 . S
C1549 C1551 1.419 . S
C1550 C1548 1.415 . S
C1550 C1555 1.425 . S
C1550 C1557 1.409 . S
C1551 H1543 0.930 . S
C1551 C1549 1.419 . S
C1551 C1552 1.362 . S
C1552 H1544 0.930 . S
C1552 C1551 1.362 . S
C1552 C1555 1.409 . S
C1553 H1545 0.930 . S
C1553 C1554 1.355 . S
C1553 C1555 1.415 . S
C1554 C1553 1.355 . S
C1554 C1556 1.419 . S
C1555 C1550 1.425 . S
C1555 C1552 1.409 . S
C1555 C1553 1.415 . S
C1556 H1546 0.930 . S
C1556 C1554 1.419 . S
C1556 C1557 1.362 . S
C1557 H1547 0.930 . S
C1557 C1550 1.409 . S
C1557 C1556 1.362 . S
H1558 C1564 0.930 . S
H1559 C1567 0.930 . S
H1560 C1568 0.930 . S
H1561 C1569 0.930 . S
H1562 C1572 0.930 . S
H1563 C1573 0.930 . S
C1564 H1558 0.930 . S
C1564 C1565 1.355 . S
C1564 C1566 1.415 . S
C1565 C1564 1.355 . S
C1565 C1567 1.419 . S
C1566 C1564 1.415 . S
C1566 C1571 1.425 . S
C1566 C1573 1.409 . S
C1567 H1559 0.930 . S
C1567 C1565 1.419 . S
C1567 C1568 1.362 . S
C1568 H1560 0.930 . S
C1568 C1567 1.362 . S
C1568 C1571 1.409 . S
C1569 H1561 0.930 . S
C1569 C1570 1.355 . S
C1569 C1571 1.415 . S
C1570 C1569 1.355 . S
C1570 C1572 1.419 . S
C1571 C1566 1.425 . S
C1571 C1568 1.409 . S
C1571 C1569 1.415 . S
C1572 H1562 0.930 . S
C1572 C1570 1.419 . S
C1572 C1573 1.362 . S
C1573 H1563 0.930 . S
C1573 C1566 1.409 . S
C1573 C1572 1.362 . S
H1574 C1580 0.930 . S
H1575 C1583 0.930 . S
H1576 C1584 0.930 . S
H1577 C1585 0.930 . S
H1578 C1588 0.930 . S
H1579 C1589 0.930 . S
C1580 H1574 0.930 . S
C1580 C1581 1.355 . S
C1580 C1582 1.415 . S
C1581 C1580 1.355 . S
C1581 C1583 1.419 . S
C1582 C1580 1.415 . S
C1582 C1587 1.425 . S
C1582 C1589 1.409 . S
C1583 H1575 0.930 . S
C1583 C1581 1.419 . S
C1583 C1584 1.362 . S
C1584 H1576 0.930 . S
C1584 C1583 1.362 . S
C1584 C1587 1.409 . S
C1585 H1577 0.930 . S
C1585 C1586 1.355 . S
C1585 C1587 1.415 . S
C1586 C1585 1.355 . S
C1586 C1588 1.419 . S
C1587 C1582 1.425 . S
C1587 C1584 1.409 . S
C1587 C1585 1.415 . S
C1588 H1578 0.930 . S
C1588 C1586 1.419 . S
C1588 C1589 1.362 . S
C1589 H1579 0.930 . S
C1589 C1582 1.409 . S
C1589 C1588 1.362 . S
H1590 C1596 0.930 . S
H1591 C1599 0.930 . S
H1592 C1600 0.930 . S
H1593 C1601 0.930 . S
H1594 C1604 0.930 . S
H1595 C1605 0.930 . S
C1596 H1590 0.930 . S
C1596 C1597 1.355 . S
C1596 C1598 1.415 . S
C1597 C1596 1.355 . S
C1597 C1599 1.419 . S
C1598 C1596 1.415 . S
C1598 C1603 1.425 . S
C1598 C1605 1.409 . S
C1599 H1591 0.930 . S
C1599 C1597 1.419 . S
C1599 C1600 1.362 . S
C1600 H1592 0.930 . S
C1600 C1599 1.362 . S
C1600 C1603 1.409 . S
C1601 H1593 0.930 . S
C1601 C1602 1.355 . S
C1601 C1603 1.415 . S
C1602 C1601 1.355 . S
C1602 C1604 1.419 . S
C1603 C1598 1.425 . S
C1603 C1600 1.409 . S
C1603 C1601 1.415 . S
C1604 H1594 0.930 . S
C1604 C1602 1.419 . S
C1604 C1605 1.362 . S
C1605 H1595 0.930 . S
C1605 C1598 1.409 . S
C1605 C1604 1.362 . S
H1606 C1612 0.930 . S
H1607 C1615 0.930 . S
H1608 C1616 0.930 . S
H1609 C1617 0.930 . S
H1610 C1620 0.930 . S
H1611 C1621 0.930 . S
C1612 H1606 0.930 . S
C1612 C1613 1.355 . S
C1612 C1614 1.415 . S
C1613 C1612 1.355 . S
C1613 C1615 1.419 . S
C1614 C1612 1.415 . S
C1614 C1619 1.425 . S
C1614 C1621 1.409 . S
C1615 H1607 0.930 . S
C1615 C1613 1.419 . S
C1615 C1616 1.362 . S
C1616 H1608 0.930 . S
C1616 C1615 1.362 . S
C1616 C1619 1.409 . S
C1617 H1609 0.930 . S
C1617 C1618 1.355 . S
C1617 C1619 1.415 . S
C1618 C1617 1.355 . S
C1618 C1620 1.419 . S
C1619 C1614 1.425 . S
C1619 C1616 1.409 . S
C1619 C1617 1.415 . S
C1620 H1610 0.930 . S
C1620 C1618 1.419 . S
C1620 C1621 1.362 . S
C1621 H1611 0.930 . S
C1621 C1614 1.409 . S
C1621 C1620 1.362 . S
H1622 C1628 0.930 . S
H1623 C1631 0.930 . S
H1624 C1632 0.930 . S
H1625 C1633 0.930 . S
H1626 C1636 0.930 . S
H1627 C1637 0.930 . S
C1628 H1622 0.930 . S
C1628 C1629 1.355 . S
C1628 C1630 1.415 . S
C1629 C1628 1.355 . S
C1629 C1631 1.419 . S
C1630 C1628 1.415 . S
C1630 C1635 1.425 . S
C1630 C1637 1.409 . S
C1631 H1623 0.930 . S
C1631 C1629 1.419 . S
C1631 C1632 1.362 . S
C1632 H1624 0.930 . S
C1632 C1631 1.362 . S
C1632 C1635 1.409 . S
C1633 H1625 0.930 . S
C1633 C1634 1.355 . S
C1633 C1635 1.415 . S
C1634 C1633 1.355 . S
C1634 C1636 1.419 . S
C1635 C1630 1.425 . S
C1635 C1632 1.409 . S
C1635 C1633 1.415 . S
C1636 H1626 0.930 . S
C1636 C1634 1.419 . S
C1636 C1637 1.362 . S
C1637 H1627 0.930 . S
C1637 C1630 1.409 . S
C1637 C1636 1.362 . S
H1638 C1644 0.930 . S
H1639 C1647 0.930 . S
H1640 C1648 0.930 . S
H1641 C1649 0.930 . S
H1642 C1652 0.930 . S
H1643 C1653 0.930 . S
C1644 H1638 0.930 . S
C1644 C1645 1.355 . S
C1644 C1646 1.415 . S
C1645 C1644 1.355 . S
C1645 C1647 1.419 . S
C1646 C1644 1.415 . S
C1646 C1651 1.425 . S
C1646 C1653 1.409 . S
C1647 H1639 0.930 . S
C1647 C1645 1.419 . S
C1647 C1648 1.362 . S
C1648 H1640 0.930 . S
C1648 C1647 1.362 . S
C1648 C1651 1.409 . S
C1649 H1641 0.930 . S
C1649 C1650 1.355 . S
C1649 C1651 1.415 . S
C1650 C1649 1.355 . S
C1650 C1652 1.419 . S
C1651 C1646 1.425 . S
C1651 C1648 1.409 . S
C1651 C1649 1.415 . S
C1652 H1642 0.930 . S
C1652 C1650 1.419 . S
C1652 C1653 1.362 . S
C1653 H1643 0.930 . S
C1653 C1646 1.409 . S
C1653 C1652 1.362 . S
H1654 C1660 0.930 . S
H1655 C1663 0.930 . S
H1656 C1664 0.930 . S
H1657 C1665 0.930 . S
H1658 C1668 0.930 . S
H1659 C1669 0.930 . S
C1660 H1654 0.930 . S
C1660 C1661 1.355 . S
C1660 C1662 1.415 . S
C1661 C1660 1.355 . S
C1661 C1663 1.419 . S
C1662 C1660 1.415 . S
C1662 C1667 1.425 . S
C1662 C1669 1.409 . S
C1663 H1655 0.930 . S
C1663 C1661 1.419 . S
C1663 C1664 1.362 . S
C1664 H1656 0.930 . S
C1664 C1663 1.362 . S
C1664 C1667 1.409 . S
C1665 H1657 0.930 . S
C1665 C1666 1.355 . S
C1665 C1667 1.415 . S
C1666 C1665 1.355 . S
C1666 C1668 1.419 . S
C1667 C1662 1.425 . S
C1667 C1664 1.409 . S
C1667 C1665 1.415 . S
C1668 H1658 0.930 . S
C1668 C1666 1.419 . S
C1668 C1669 1.362 . S
C1669 H1659 0.930 . S
C1669 C1662 1.409 . S
C1669 C1668 1.362 . S
H1670 C1676 0.930 . S
H1671 C1679 0.930 . S
H1672 C1680 0.930 . S
H1673 C1681 0.930 . S
H1674 C1684 0.930 . S
H1675 C1685 0.930 . S
C1676 H1670 0.930 . S
C1676 C1677 1.355 . S
C1676 C1678 1.415 . S
C1677 C1676 1.355 . S
C1677 C1679 1.419 . S
C1678 C1676 1.415 . S
C1678 C1683 1.425 . S
C1678 C1685 1.409 . S
C1679 H1671 0.930 . S
C1679 C1677 1.419 . S
C1679 C1680 1.362 . S
C1680 H1672 0.930 . S
C1680 C1679 1.362 . S
C1680 C1683 1.409 . S
C1681 H1673 0.930 . S
C1681 C1682 1.355 . S
C1681 C1683 1.415 . S
C1682 C1681 1.355 . S
C1682 C1684 1.419 . S
C1683 C1678 1.425 . S
C1683 C1680 1.409 . S
C1683 C1681 1.415 . S
C1684 H1674 0.930 . S
C1684 C1682 1.419 . S
C1684 C1685 1.362 . S
C1685 H1675 0.930 . S
C1685 C1678 1.409 . S
C1685 C1684 1.362 . S
H1686 C1692 0.930 . S
H1687 C1695 0.930 . S
H1688 C1696 0.930 . S
H1689 C1697 0.930 . S
H1690 C1700 0.930 . S
H1691 C1701 0.930 . S
C1692 H1686 0.930 . S
C1692 C1693 1.355 . S
C1692 C1694 1.415 . S
C1693 C1692 1.355 . S
C1693 C1695 1.419 . S
C1694 C1692 1.415 . S
C1694 C1699 1.425 . S
C1694 C1701 1.409 . S
C1695 H1687 0.930 . S
C1695 C1693 1.419 . S
C1695 C1696 1.362 . S
C1696 H1688 0.930 . S
C1696 C1695 1.362 . S
C1696 C1699 1.409 . S
C1697 H1689 0.930 . S
C1697 C1698 1.355 . S
C1697 C1699 1.415 . S
C1698 C1697 1.355 . S
C1698 C1700 1.419 . S
C1699 C1694 1.425 . S
C1699 C1696 1.409 . S
C1699 C1697 1.415 . S
C1700 H1690 0.930 . S
C1700 C1698 1.419 . S
C1700 C1701 1.362 . S
C1701 H1691 0.930 . S
C1701 C1694 1.409 . S
C1701 C1700 1.362 . S
H1702 C1708 0.930 . S
H1703 C1711 0.930 . S
H1704 C1712 0.930 . S
H1705 C1713 0.930 . S
H1706 C1716 0.930 . S
H1707 C1717 0.930 . S
C1708 H1702 0.930 . S
C1708 C1709 1.355 . S
C1708 C1710 1.415 . S
C1709 C1708 1.355 . S
C1709 C1711 1.419 . S
C1710 C1708 1.415 . S
C1710 C1715 1.425 . S
C1710 C1717 1.409 . S
C1711 H1703 0.930 . S
C1711 C1709 1.419 . S
C1711 C1712 1.362 . S
C1712 H1704 0.930 . S
C1712 C1711 1.362 . S
C1712 C1715 1.409 . S
C1713 H1705 0.930 . S
C1713 C1714 1.355 . S
C1713 C1715 1.415 . S
C1714 C1713 1.355 . S
C1714 C1716 1.419 . S
C1715 C1710 1.425 . S
C1715 C1712 1.409 . S
C1715 C1713 1.415 . S
C1716 H1706 0.930 . S
C1716 C1714 1.419 . S
C1716 C1717 1.362 . S
C1717 H1707 0.930 . S
C1717 C1710 1.409 . S
C1717 C1716 1.362 . S
H1718 C1724 0.930 . S
H1719 C1727 0.930 . S
H1720 C1728 0.930 . S
H1721 C1729 0.930 . S
H1722 C1732 0.930 . S
H1723 C1733 0.930 . S
C1724 H1718 0.930 . S
C1724 C1725 1.355 . S
C1724 C1726 1.415 . S
C1725 C1724 1.355 . S
C1725 C1727 1.419 . S
C1726 C1724 1.415 . S
C1726 C1731 1.425 . S
C1726 C1733 1.409 . S
C1727 H1719 0.930 . S
C1727 C1725 1.419 . S
C1727 C1728 1.362 . S
C1728 H1720 0.930 . S
C1728 C1727 1.362 . S
C1728 C1731 1.409 . S
C1729 H1721 0.930 . S
C1729 C1730 1.355 . S
C1729 C1731 1.415 . S
C1730 C1729 1.355 . S
C1730 C1732 1.419 . S
C1731 C1726 1.425 . S
C1731 C1728 1.409 . S
C1731 C1729 1.415 . S
C1732 H1722 0.930 . S
C1732 C1730 1.419 . S
C1732 C1733 1.362 . S
C1733 H1723 0.930 . S
C1733 C1726 1.409 . S
C1733 C1732 1.362 . S
H1734 C1740 0.930 . S
H1735 C1743 0.930 . S
H1736 C1744 0.930 . S
H1737 C1745 0.930 . S
H1738 C1748 0.930 . S
H1739 C1749 0.930 . S
C1740 H1734 0.930 . S
C1740 C1741 1.355 . S
C1740 C1742 1.415 . S
C1741 C1740 1.355 . S
C1741 C1743 1.419 . S
C1742 C1740 1.415 . S
C1742 C1747 1.425 . S
C1742 C1749 1.409 . S
C1743 H1735 0.930 . S
C1743 C1741 1.419 . S
C1743 C1744 1.362 . S
C1744 H1736 0.930 . S
C1744 C1743 1.362 . S
C1744 C1747 1.409 . S
C1745 H1737 0.930 . S
C1745 C1746 1.355 . S
C1745 C1747 1.415 . S
C1746 C1745 1.355 . S
C1746 C1748 1.419 . S
C1747 C1742 1.425 . S
C1747 C1744 1.409 . S
C1747 C1745 1.415 . S
C1748 H1738 0.930 . S
C1748 C1746 1.419 . S
C1748 C1749 1.362 . S
C1749 H1739 0.930 . S
C1749 C1742 1.409 . S
C1749 C1748 1.362 . S
H1750 C1756 0.930 . S
H1751 C1759 0.930 . S
H1752 C1760 0.930 . S
H1753 C1761 0.930 . S
H1754 C1764 0.930 . S
H1755 C1765 0.930 . S
C1756 H1750 0.930 . S
C1756 C1757 1.355 . S
C1756 C1758 1.415 . S
C1757 C1756 1.355 . S
C1757 C1759 1.419 . S
C1758 C1756 1.415 . S
C1758 C1763 1.425 . S
C1758 C1765 1.409 . S
C1759 H1751 0.930 . S
C1759 C1757 1.419 . S
C1759 C1760 1.362 . S
C1760 H1752 0.930 . S
C1760 C1759 1.362 . S
C1760 C1763 1.409 . S
C1761 H1753 0.930 . S
C1761 C1762 1.355 . S
C1761 C1763 1.415 . S
C1762 C1761 1.355 . S
C1762 C1764 1.419 . S
C1763 C1758 1.425 . S
C1763 C1760 1.409 . S
C1763 C1761 1.415 . S
C1764 H1754 0.930 . S
C1764 C1762 1.419 . S
C1764 C1765 1.362 . S
C1765 H1755 0.930 . S
C1765 C1758 1.409 . S
C1765 C1764 1.362 . S
H1766 C1772 0.930 . S
H1767 C1775 0.930 . S
H1768 C1776 0.930 . S
H1769 C1777 0.930 . S
H1770 C1780 0.930 . S
H1771 C1781 0.930 . S
C1772 H1766 0.930 . S
C1772 C1773 1.355 . S
C1772 C1774 1.415 . S
C1773 C1772 1.355 . S
C1773 C1775 1.419 . S
C1774 C1772 1.415 . S
C1774 C1779 1.425 . S
C1774 C1781 1.409 . S
C1775 H1767 0.930 . S
C1775 C1773 1.419 . S
C1775 C1776 1.362 . S
C1776 H1768 0.930 . S
C1776 C1775 1.362 . S
C1776 C1779 1.409 . S
C1777 H1769 0.930 . S
C1777 C1778 1.355 . S
C1777 C1779 1.415 . S
C1778 C1777 1.355 . S
C1778 C1780 1.419 . S
C1779 C1774 1.425 . S
C1779 C1776 1.409 . S
C1779 C1777 1.415 . S
C1780 H1770 0.930 . S
C1780 C1778 1.419 . S
C1780 C1781 1.362 . S
C1781 H1771 0.930 . S
C1781 C1774 1.409 . S
C1781 C1780 1.362 . S
H1782 C1788 0.930 . S
H1783 C1791 0.930 . S
H1784 C1792 0.930 . S
H1785 C1793 0.930 . S
H1786 C1796 0.930 . S
H1787 C1797 0.930 . S
C1788 H1782 0.930 . S
C1788 C1789 1.355 . S
C1788 C1790 1.415 . S
C1789 C1788 1.355 . S
C1789 C1791 1.419 . S
C1790 C1788 1.415 . S
C1790 C1795 1.425 . S
C1790 C1797 1.409 . S
C1791 H1783 0.930 . S
C1791 C1789 1.419 . S
C1791 C1792 1.362 . S
C1792 H1784 0.930 . S
C1792 C1791 1.362 . S
C1792 C1795 1.409 . S
C1793 H1785 0.930 . S
C1793 C1794 1.355 . S
C1793 C1795 1.415 . S
C1794 C1793 1.355 . S
C1794 C1796 1.419 . S
C1795 C1790 1.425 . S
C1795 C1792 1.409 . S
C1795 C1793 1.415 . S
C1796 H1786 0.930 . S
C1796 C1794 1.419 . S
C1796 C1797 1.362 . S
C1797 H1787 0.930 . S
C1797 C1790 1.409 . S
C1797 C1796 1.362 . S
H1798 C1804 0.930 . S
H1799 C1807 0.930 . S
H1800 C1808 0.930 . S
H1801 C1809 0.930 . S
H1802 C1812 0.930 . S
H1803 C1813 0.930 . S
C1804 H1798 0.930 . S
C1804 C1805 1.355 . S
C1804 C1806 1.415 . S
C1805 C1804 1.355 . S
C1805 C1807 1.419 . S
C1806 C1804 1.415 . S
C1806 C1811 1.425 . S
C1806 C1813 1.409 . S
C1807 H1799 0.930 . S
C1807 C1805 1.419 . S
C1807 C1808 1.362 . S
C1808 H1800 0.930 . S
C1808 C1807 1.362 . S
C1808 C1811 1.409 . S
C1809 H1801 0.930 . S
C1809 C1810 1.355 . S
C1809 C1811 1.415 . S
C1810 C1809 1.355 . S
C1810 C1812 1.419 . S
C1811 C1806 1.425 . S
C1811 C1808 1.409 . S
C1811 C1809 1.415 . S
C1812 H1802 0.930 . S
C1812 C1810 1.419 . S
C1812 C1813 1.362 . S
C1813 H1803 0.930 . S
C1813 C1806 1.409 . S
C1813 C1812 1.362 . S
H1814 C1820 0.930 . S
H1815 C1823 0.930 . S
H1816 C1824 0.930 . S
H1817 C1825 0.930 . S
H1818 C1828 0.930 . S
H1819 C1829 0.930 . S
C1820 H1814 0.930 . S
C1820 C1821 1.355 . S
C1820 C1822 1.415 . S
C1821 C1820 1.355 . S
C1821 C1823 1.419 . S
C1822 C1820 1.415 . S
C1822 C1827 1.425 . S
C1822 C1829 1.409 . S
C1823 H1815 0.930 . S
C1823 C1821 1.419 . S
C1823 C1824 1.362 . S
C1824 H1816 0.930 . S
C1824 C1823 1.362 . S
C1824 C1827 1.409 . S
C1825 H1817 0.930 . S
C1825 C1826 1.355 . S
C1825 C1827 1.415 . S
C1826 C1825 1.355 . S
C1826 C1828 1.419 . S
C1827 C1822 1.425 . S
C1827 C1824 1.409 . S
C1827 C1825 1.415 . S
C1828 H1818 0.930 . S
C1828 C1826 1.419 . S
C1828 C1829 1.362 . S
C1829 H1819 0.930 . S
C1829 C1822 1.409 . S
C1829 C1828 1.362 . S
H1830 C1836 0.930 . S
H1831 C1839 0.930 . S
H1832 C1840 0.930 . S
H1833 C1841 0.930 . S
H1834 C1844 0.930 . S
H1835 C1845 0.930 . S
C1836 H1830 0.930 . S
C1836 C1837 1.355 . S
C1836 C1838 1.415 . S
C1837 C1836 1.355 . S
C1837 C1839 1.419 . S
C1838 C1836 1.415 . S
C1838 C1843 1.425 . S
C1838 C1845 1.409 . S
C1839 H1831 0.930 . S
C1839 C1837 1.419 . S
C1839 C1840 1.362 . S
C1840 H1832 0.930 . S
C1840 C1839 1.362 . S
C1840 C1843 1.409 . S
C1841 H1833 0.930 . S
C1841 C1842 1.355 . S
C1841 C1843 1.415 . S
C1842 C1841 1.355 . S
C1842 C1844 1.419 . S
C1843 C1838 1.425 . S
C1843 C1840 1.409 . S
C1843 C1841 1.415 . S
C1844 H1834 0.930 . S
C1844 C1842 1.419 . S
C1844 C1845 1.362 . S
C1845 H1835 0.930 . S
C1845 C1838 1.409 . S
C1845 C1844 1.362 . S
H1846 C1852 0.930 . S
H1847 C1855 0.930 . S
H1848 C1856 0.930 . S
H1849 C1857 0.930 . S
H1850 C1860 0.930 . S
H1851 C1861 0.930 . S
C1852 H1846 0.930 . S
C1852 C1853 1.355 . S
C1852 C1854 1.415 . S
C1853 C1852 1.355 . S
C1853 C1855 1.419 . S
C1854 C1852 1.415 . S
C1854 C1859 1.425 . S
C1854 C1861 1.409 . S
C1855 H1847 0.930 . S
C1855 C1853 1.419 . S
C1855 C1856 1.362 . S
C1856 H1848 0.930 . S
C1856 C1855 1.362 . S
C1856 C1859 1.409 . S
C1857 H1849 0.930 . S
C1857 C1858 1.355 . S
C1857 C1859 1.415 . S
C1858 C1857 1.355 . S
C1858 C1860 1.419 . S
C1859 C1854 1.425 . S
C1859 C1856 1.409 . S
C1859 C1857 1.415 . S
C1860 H1850 0.930 . S
C1860 C1858 1.419 . S
C1860 C1861 1.362 . S
C1861 H1851 0.930 . S
C1861 C1854 1.409 . S
C1861 C1860 1.362 . S
H1862 C1868 0.930 . S
H1863 C1871 0.930 . S
H1864 C1872 0.930 . S
H1865 C1873 0.930 . S
H1866 C1876 0.930 . S
H1867 C1877 0.930 . S
C1868 H1862 0.930 . S
C1868 C1869 1.355 . S
C1868 C1870 1.415 . S
C1869 C1868 1.355 . S
C1869 C1871 1.419 . S
C1870 C1868 1.415 . S
C1870 C1875 1.425 . S
C1870 C1877 1.409 . S
C1871 H1863 0.930 . S
C1871 C1869 1.419 . S
C1871 C1872 1.362 . S
C1872 H1864 0.930 . S
C1872 C1871 1.362 . S
C1872 C1875 1.409 . S
C1873 H1865 0.930 . S
C1873 C1874 1.355 . S
C1873 C1875 1.415 . S
C1874 C1873 1.355 . S
C1874 C1876 1.419 . S
C1875 C1870 1.425 . S
C1875 C1872 1.409 . S
C1875 C1873 1.415 . S
C1876 H1866 0.930 . S
C1876 C1874 1.419 . S
C1876 C1877 1.362 . S
C1877 H1867 0.930 . S
C1877 C1870 1.409 . S
C1877 C1876 1.362 . S
H1878 C1884 0.930 . S
H1879 C1887 0.930 . S
H1880 C1888 0.930 . S
H1881 C1889 0.930 . S
H1882 C1892 0.930 . S
H1883 C1893 0.930 . S
C1884 H1878 0.930 . S
C1884 C1885 1.355 . S
C1884 C1886 1.415 . S
C1885 C1884 1.355 . S
C1885 C1887 1.419 . S
C1886 C1884 1.415 . S
C1886 C1891 1.425 . S
C1886 C1893 1.409 . S
C1887 H1879 0.930 . S
C1887 C1885 1.419 . S
C1887 C1888 1.362 . S
C1888 H1880 0.930 . S
C1888 C1887 1.362 . S
C1888 C1891 1.409 . S
C1889 H1881 0.930 . S
C1889 C1890 1.355 . S
C1889 C1891 1.415 . S
C1890 C1889 1.355 . S
C1890 C1892 1.419 . S
C1891 C1886 1.425 . S
C1891 C1888 1.409 . S
C1891 C1889 1.415 . S
C1892 H1882 0.930 . S
C1892 C1890 1.419 . S
C1892 C1893 1.362 . S
C1893 H1883 0.930 . S
C1893 C1886 1.409 . S
C1893 C1892 1.362 . S
H1894 C1900 0.930 . S
H1895 C1903 0.930 . S
H1896 C1904 0.930 . S
H1897 C1905 0.930 . S
H1898 C1908 0.930 . S
H1899 C1909 0.930 . S
C1900 H1894 0.930 . S
C1900 C1901 1.355 . S
C1900 C1902 1.415 . S
C1901 C1900 1.355 . S
C1901 C1903 1.419 . S
C1902 C1900 1.415 . S
C1902 C1907 1.425 . S
C1902 C1909 1.409 . S
C1903 H1895 0.930 . S
C1903 C1901 1.419 . S
C1903 C1904 1.362 . S
C1904 H1896 0.930 . S
C1904 C1903 1.362 . S
C1904 C1907 1.409 . S
C1905 H1897 0.930 . S
C1905 C1906 1.355 . S
C1905 C1907 1.415 . S
C1906 C1905 1.355 . S
C1906 C1908 1.419 . S
C1907 C1902 1.425 . S
C1907 C1904 1.409 . S
C1907 C1905 1.415 . S
C1908 H1898 0.930 . S
C1908 C1906 1.419 . S
C1908 C1909 1.362 . S
C1909 H1899 0.930 . S
C1909 C1902 1.409 . S
C1909 C1908 1.362 . S
H1910 C1916 0.930 . S
H1911 C1919 0.930 . S
H1912 C1920 0.930 . S
H1913 C1921 0.930 . S
H1914 C1924 0.930 . S
H1915 C1925 0.930 . S
C1916 H1910 0.930 . S
C1916 C1917 1.355 . S
C1916 C1918 1.415 . S
C1917 C1916 1.355 . S
C1917 C1919 1.419 . S
C1918 C1916 1.415 . S
C1918 C1923 1.425 . S
C1918 C1925 1.409 . S
C1919 H1911 0.930 . S
C1919 C1917 1.419 . S
C1919 C1920 1.362 . S
C1920 H1912 0.930 . S
C1920 C1919 1.362 . S
C1920 C1923 1.409 . S
C1921 H1913 0.930 . S
C1921 C1922 1.355 . S
C1921 C1923 1.415 . S
C1922 C1921 1.355 . S
C1922 C1924 1.419 . S
C1923 C1918 1.425 . S
C1923 C1920 1.409 . S
C1923 C1921 1.415 . S
C1924 H1914 0.930 . S
C1924 C1922 1.419 . S
C1924 C1925 1.362 . S
C1925 H1915 0.930 . S
C1925 C1918 1.409 . S
C1925 C1924 1.362 . S
H1926 C1932 0.930 . S
H1927 C1935 0.930 . S
H1928 C1936 0.930 . S
H1929 C1937 0.930 . S
H1930 C1940 0.930 . S
H1931 C1941 0.930 . S
C1932 H1926 0.930 . S
C1932 C1933 1.355 . S
C1932 C1934 1.415 . S
C1933 C1932 1.355 . S
C1933 C1935 1.419 . S
C1934 C1932 1.415 . S
C1934 C1939 1.425 . S
C1934 C1941 1.409 . S
C1935 H1927 0.930 . S
C1935 C1933 1.419 . S
C1935 C1936 1.362 . S
C1936 H1928 0.930 . S
C1936 C1935 1.362 . S
C1936 C1939 1.409 . S
C1937 H1929 0.930 . S
C1937 C1938 1.355 . S
C1937 C1939 1.415 . S
C1938 C1937 1.355 . S
C1938 C1940 1.419 . S
C1939 C1934 1.425 . S
C1939 C1936 1.409 . S
C1939 C1937 1.415 . S
C1940 H1930 0.930 . S
C1940 C1938 1.419 . S
C1940 C1941 1.362 . S
C1941 H1931 0.930 . S
C1941 C1934 1.409 . S
C1941 C1940 1.362 . S
H1942 C1948 0.930 . S
H1943 C1951 0.930 . S
H1944 C1952 0.930 . S
H1945 C1953 0.930 . S
H1946 C1956 0.930 . S
H1947 C1957 0.930 . S
C1948 H1942 0.930 . S
C1948 C1949 1.355 . S
C1948 C1950 1.415 . S
C1949 C1948 1.355 . S
C1949 C1951 1.419 . S
C1950 C1948 1.415 . S
C1950 C1955 1.425 . S
C1950 C1957 1.409 . S
C1951 H1943 0.930 . S
C1951 C1949 1.419 . S
C1951 C1952 1.362 . S
C1952 H1944 0.930 . S
C1952 C1951 1.362 . S
C1952 C1955 1.409 . S
C1953 H1945 0.930 . S
C1953 C1954 1.355 . S
C1953 C1955 1.415 . S
C1954 C1953 1.355 . S
C1954 C1956 1.419 . S
C1955 C1950 1.425 . S
C1955 C1952 1.409 . S
C1955 C1953 1.415 . S
C1956 H1946 0.930 . S
C1956 C1954 1.419 . S
C1956 C1957 1.362 . S
C1957 H1947 0.930 . S
C1957 C1950 1.409 . S
C1957 C1956 1.362 . S
H1958 C1964 0.930 . S
H1959 C1967 0.930 . S
H1960 C1968 0.930 . S
H1961 C1969 0.930 . S
H1962 C1972 0.930 . S
H1963 C1973 0.930 . S
C1964 H1958 0.930 . S
C1964 C1965 1.355 . S
C1964 C1966 1.415 . S
C1965 C1964 1.355 . S
C1965 C1967 1.419 . S
C1966 C1964 1.415 . S
C1966 C1971 1.425 . S
C1966 C1973 1.409 . S
C1967 H1959 0.930 . S
C1967 C1965 1.419 . S
C1967 C1968 1.362 . S
C1968 H1960 0.930 . S
C1968 C1967 1.362 . S
C1968 C1971 1.409 . S
C1969 H1961 0.930 . S
C1969 C1970 1.355 . S
C1969 C1971 1.415 . S
C1970 C1969 1.355 . S
C1970 C1972 1.419 . S
C1971 C1966 1.425 . S
C1971 C1968 1.409 . S
C1971 C1969 1.415 . S
C1972 H1962 0.930 . S
C1972 C1970 1.419 . S
C1972 C1973 1.362 . S
C1973 H1963 0.930 . S
C1973 C1966 1.409 . S
C1973 C1972 1.362 . S
H1974 C1980 0.930 . S
H1975 C1983 0.930 . S
H1976 C1984 0.930 . S
H1977 C1985 0.930 . S
H1978 C1988 0.930 . S
H1979 C1989 0.930 . S
C1980 H1974 0.930 . S
C1980 C1981 1.355 . S
C1980 C1982 1.415 . S
C1981 C1980 1.355 . S
C1981 C1983 1.419 . S
C1982 C1980 1.415 . S
C1982 C1987 1.425 . S
C1982 C1989 1.409 . S
C1983 H1975 0.930 . S
C1983 C1981 1.419 . S
C1983 C1984 1.362 . S
C1984 H1976 0.930 . S
C1984 C1983 1.362 . S
C1984 C1987 1.409 . S
C1985 H1977 0.930 . S
C1985 C1986 1.355 . S
C1985 C1987 1.415 . S
C1986 C1985 1.355 . S
C1986 C1988 1.419 . S
C1987 C1982 1.425 . S
C1987 C1984 1.409 . S
C1987 C1985 1.415 . S
C1988 H1978 0.930 . S
C1988 C1986 1.419 . S
C1988 C1989 1.362 . S
C1989 H1979 0.930 . S
C1989 C1982 1.409 . S
C1989 C1988 1.362 . S
H1990 C1996 0.930 1_554 S
H1991 C1999 0.930 . S
H1992 C2000 0.930 . S
H1993 C2001 0.930 . S
H1994 C2004 0.930 . S
H1995 C2005 0.930 1_554 S
C1996 H1990 0.930 1_556 S
C1996 C1997 1.355 . S
C1996 C1998 1.415 . S
C1997 C1996 1.355 . S
C1997 C1999 1.419 . S
C1998 C1996 1.415 . S
C1998 C2003 1.425 . S
C1998 C2005 1.409 . S
C1999 H1991 0.930 . S
C1999 C1997 1.419 . S
C1999 C2000 1.362 . S
C2000 H1992 0.930 . S
C2000 C1999 1.362 . S
C2000 C2003 1.409 . S
C2001 H1993 0.930 . S
C2001 C2002 1.355 . S
C2001 C2003 1.415 . S
C2002 C2001 1.355 . S
C2002 C2004 1.419 . S
C2003 C1998 1.425 . S
C2003 C2000 1.409 . S
C2003 C2001 1.415 . S
C2004 H1994 0.930 . S
C2004 C2002 1.419 . S
C2004 C2005 1.362 . S
C2005 H1995 0.930 1_556 S
C2005 C1998 1.409 . S
C2005 C2004 1.362 . S
H2006 C2012 0.930 1_554 S
H2007 C2015 0.930 . S
H2008 C2016 0.930 . S
H2009 C2017 0.930 . S
H2010 C2020 0.930 . S
H2011 C2021 0.930 1_554 S
C2012 H2006 0.930 1_556 S
C2012 C2013 1.355 . S
C2012 C2014 1.415 . S
C2013 C2012 1.355 . S
C2013 C2015 1.419 . S
C2014 C2012 1.415 . S
C2014 C2019 1.425 . S
C2014 C2021 1.409 . S
C2015 H2007 0.930 . S
C2015 C2013 1.419 . S
C2015 C2016 1.362 . S
C2016 H2008 0.930 . S
C2016 C2015 1.362 . S
C2016 C2019 1.409 . S
C2017 H2009 0.930 . S
C2017 C2018 1.355 . S
C2017 C2019 1.415 . S
C2018 C2017 1.355 . S
C2018 C2020 1.419 . S
C2019 C2014 1.425 . S
C2019 C2016 1.409 . S
C2019 C2017 1.415 . S
C2020 H2010 0.930 . S
C2020 C2018 1.419 . S
C2020 C2021 1.362 . S
C2021 H2011 0.930 1_556 S
C2021 C2014 1.409 . S
C2021 C2020 1.362 . S
H2022 C2028 0.930 . S
H2023 C2031 0.930 . S
H2024 C2032 0.930 1_554 S
H2025 C2033 0.930 . S
H2026 C2036 0.930 . S
H2027 C2037 0.930 . S
C2028 H2022 0.930 . S
C2028 C2029 1.355 . S
C2028 C2030 1.415 . S
C2029 C2028 1.355 . S
C2029 C2031 1.419 1_556 S
C2030 C2028 1.415 . S
C2030 C2035 1.425 . S
C2030 C2037 1.409 . S
C2031 H2023 0.930 . S
C2031 C2029 1.419 1_554 S
C2031 C2032 1.362 1_554 S
C2032 H2024 0.930 1_556 S
C2032 C2031 1.362 1_556 S
C2032 C2035 1.409 . S
C2033 H2025 0.930 . S
C2033 C2034 1.355 . S
C2033 C2035 1.415 . S
C2034 C2033 1.355 . S
C2034 C2036 1.419 . S
C2035 C2030 1.425 . S
C2035 C2032 1.409 . S
C2035 C2033 1.415 . S
C2036 H2026 0.930 . S
C2036 C2034 1.419 . S
C2036 C2037 1.362 . S
C2037 H2027 0.930 . S
C2037 C2030 1.409 . S
C2037 C2036 1.362 . S
H2038 C2044 0.930 1_554 S
H2039 C2047 0.930 . S
H2040 C2048 0.930 . S
H2041 C2049 0.930 . S
H2042 C2052 0.930 . S
H2043 C2053 0.930 . S
C2044 H2038 0.930 1_556 S
C2044 C2045 1.355 . S
C2044 C2046 1.415 . S
C2045 C2044 1.355 . S
C2045 C2047 1.419 . S
C2046 C2044 1.415 . S
C2046 C2051 1.425 . S
C2046 C2053 1.409 . S
C2047 H2039 0.930 . S
C2047 C2045 1.419 . S
C2047 C2048 1.362 . S
C2048 H2040 0.930 . S
C2048 C2047 1.362 . S
C2048 C2051 1.409 . S
C2049 H2041 0.930 . S
C2049 C2050 1.355 . S
C2049 C2051 1.415 . S
C2050 C2049 1.355 . S
C2050 C2052 1.419 . S
C2051 C2046 1.425 . S
C2051 C2048 1.409 . S
C2051 C2049 1.415 . S
C2052 H2042 0.930 . S
C2052 C2050 1.419 . S
C2052 C2053 1.362 . S
C2053 H2043 0.930 . S
C2053 C2046 1.409 . S
C2053 C2052 1.362 . S
H2054 C2060 0.930 . S
H2055 C2063 0.930 . S
H2056 C2064 0.930 . S
H2057 C2065 0.930 . S
H2058 C2068 0.930 . S
H2059 C2069 0.930 . S
C2060 H2054 0.930 . S
C2060 C2061 1.355 . S
C2060 C2062 1.415 . S
C2061 C2060 1.355 . S
C2061 C2063 1.419 . S
C2062 C2060 1.415 . S
C2062 C2067 1.425 . S
C2062 C2069 1.409 . S
C2063 H2055 0.930 . S
C2063 C2061 1.419 . S
C2063 C2064 1.362 . S
C2064 H2056 0.930 . S
C2064 C2063 1.362 . S
C2064 C2067 1.409 . S
C2065 H2057 0.930 . S
C2065 C2066 1.355 . S
C2065 C2067 1.415 . S
C2066 C2065 1.355 . S
C2066 C2068 1.419 . S
C2067 C2062 1.425 . S
C2067 C2064 1.409 . S
C2067 C2065 1.415 . S
C2068 H2058 0.930 . S
C2068 C2066 1.419 . S
C2068 C2069 1.362 . S
C2069 H2059 0.930 . S
C2069 C2062 1.409 . S
C2069 C2068 1.362 . S
H2070 C2076 0.930 . S
H2071 C2079 0.930 . S
H2072 C2080 0.930 . S
H2073 C2081 0.930 . S
H2074 C2084 0.930 . S
H2075 C2085 0.930 . S
C2076 H2070 0.930 . S
C2076 C2077 1.355 . S
C2076 C2078 1.415 . S
C2077 C2076 1.355 . S
C2077 C2079 1.419 . S
C2078 C2076 1.415 . S
C2078 C2083 1.425 . S
C2078 C2085 1.409 . S
C2079 H2071 0.930 . S
C2079 C2077 1.419 . S
C2079 C2080 1.362 . S
C2080 H2072 0.930 . S
C2080 C2079 1.362 . S
C2080 C2083 1.409 . S
C2081 H2073 0.930 . S
C2081 C2082 1.355 . S
C2081 C2083 1.415 . S
C2082 C2081 1.355 . S
C2082 C2084 1.419 . S
C2083 C2078 1.425 . S
C2083 C2080 1.409 . S
C2083 C2081 1.415 . S
C2084 H2074 0.930 . S
C2084 C2082 1.419 . S
C2084 C2085 1.362 . S
C2085 H2075 0.930 . S
C2085 C2078 1.409 . S
C2085 C2084 1.362 . S
H2086 C2092 0.930 . S
H2087 C2095 0.930 . S
H2088 C2096 0.930 . S
H2089 C2097 0.930 . S
H2090 C2100 0.930 . S
H2091 C2101 0.930 . S
C2092 H2086 0.930 . S
C2092 C2093 1.355 . S
C2092 C2094 1.415 . S
C2093 C2092 1.355 . S
C2093 C2095 1.419 . S
C2094 C2092 1.415 . S
C2094 C2099 1.425 . S
C2094 C2101 1.409 . S
C2095 H2087 0.930 . S
C2095 C2093 1.419 . S
C2095 C2096 1.362 . S
C2096 H2088 0.930 . S
C2096 C2095 1.362 . S
C2096 C2099 1.409 . S
C2097 H2089 0.930 . S
C2097 C2098 1.355 . S
C2097 C2099 1.415 . S
C2098 C2097 1.355 . S
C2098 C2100 1.419 . S
C2099 C2094 1.425 . S
C2099 C2096 1.409 . S
C2099 C2097 1.415 . S
C2100 H2090 0.930 . S
C2100 C2098 1.419 . S
C2100 C2101 1.362 . S
C2101 H2091 0.930 . S
C2101 C2094 1.409 . S
C2101 C2100 1.362 . S
H2102 C2108 0.930 . S
H2103 C2111 0.930 . S
H2104 C2112 0.930 . S
H2105 C2113 0.930 . S
H2106 C2116 0.930 . S
H2107 C2117 0.930 . S
C2108 H2102 0.930 . S
C2108 C2109 1.355 . S
C2108 C2110 1.415 . S
C2109 C2108 1.355 . S
C2109 C2111 1.419 . S
C2110 C2108 1.415 . S
C2110 C2115 1.425 . S
C2110 C2117 1.409 . S
C2111 H2103 0.930 . S
C2111 C2109 1.419 . S
C2111 C2112 1.362 . S
C2112 H2104 0.930 . S
C2112 C2111 1.362 . S
C2112 C2115 1.409 . S
C2113 H2105 0.930 . S
C2113 C2114 1.355 . S
C2113 C2115 1.415 . S
C2114 C2113 1.355 . S
C2114 C2116 1.419 . S
C2115 C2110 1.425 . S
C2115 C2112 1.409 . S
C2115 C2113 1.415 . S
C2116 H2106 0.930 . S
C2116 C2114 1.419 . S
C2116 C2117 1.362 . S
C2117 H2107 0.930 . S
C2117 C2110 1.409 . S
C2117 C2116 1.362 . S
H2118 C2124 0.930 . S
H2119 C2127 0.930 . S
H2120 C2128 0.930 . S
H2121 C2129 0.930 . S
H2122 C2132 0.930 . S
H2123 C2133 0.930 . S
C2124 H2118 0.930 . S
C2124 C2125 1.355 . S
C2124 C2126 1.415 . S
C2125 C2124 1.355 . S
C2125 C2127 1.419 . S
C2126 C2124 1.415 . S
C2126 C2131 1.425 . S
C2126 C2133 1.409 . S
C2127 H2119 0.930 . S
C2127 C2125 1.419 . S
C2127 C2128 1.362 . S
C2128 H2120 0.930 . S
C2128 C2127 1.362 . S
C2128 C2131 1.409 . S
C2129 H2121 0.930 . S
C2129 C2130 1.355 . S
C2129 C2131 1.415 . S
C2130 C2129 1.355 . S
C2130 C2132 1.419 . S
C2131 C2126 1.425 . S
C2131 C2128 1.409 . S
C2131 C2129 1.415 . S
C2132 H2122 0.930 . S
C2132 C2130 1.419 . S
C2132 C2133 1.362 . S
C2133 H2123 0.930 . S
C2133 C2126 1.409 . S
C2133 C2132 1.362 . S
H2134 C2140 0.930 . S
H2135 C2143 0.930 . S
H2136 C2144 0.930 . S
H2137 C2145 0.930 . S
H2138 C2148 0.930 . S
H2139 C2149 0.930 . S
C2140 H2134 0.930 . S
C2140 C2141 1.355 . S
C2140 C2142 1.415 . S
C2141 C2140 1.355 . S
C2141 C2143 1.419 . S
C2142 C2140 1.415 . S
C2142 C2147 1.425 . S
C2142 C2149 1.409 . S
C2143 H2135 0.930 . S
C2143 C2141 1.419 . S
C2143 C2144 1.362 . S
C2144 H2136 0.930 . S
C2144 C2143 1.362 . S
C2144 C2147 1.409 . S
C2145 H2137 0.930 . S
C2145 C2146 1.355 . S
C2145 C2147 1.415 . S
C2146 C2145 1.355 . S
C2146 C2148 1.419 . S
C2147 C2142 1.425 . S
C2147 C2144 1.409 . S
C2147 C2145 1.415 . S
C2148 H2138 0.930 . S
C2148 C2146 1.419 . S
C2148 C2149 1.362 . S
C2149 H2139 0.930 . S
C2149 C2142 1.409 . S
C2149 C2148 1.362 . S
H2150 C2156 0.930 . S
H2151 C2159 0.930 1_455 S
H2152 C2160 0.930 . S
H2153 C2161 0.930 . S
H2154 C2164 0.930 . S
H2155 C2165 0.930 . S
C2156 H2150 0.930 . S
C2156 C2157 1.355 . S
C2156 C2158 1.415 . S
C2157 C2156 1.355 . S
C2157 C2159 1.419 . S
C2158 C2156 1.415 . S
C2158 C2163 1.425 . S
C2158 C2165 1.409 . S
C2159 H2151 0.930 1_655 S
C2159 C2157 1.419 . S
C2159 C2160 1.362 . S
C2160 H2152 0.930 . S
C2160 C2159 1.362 . S
C2160 C2163 1.409 . S
C2161 H2153 0.930 . S
C2161 C2162 1.355 . S
C2161 C2163 1.415 . S
C2162 C2161 1.355 . S
C2162 C2164 1.419 . S
C2163 C2158 1.425 . S
C2163 C2160 1.409 . S
C2163 C2161 1.415 . S
C2164 H2154 0.930 . S
C2164 C2162 1.419 . S
C2164 C2165 1.362 . S
C2165 H2155 0.930 . S
C2165 C2158 1.409 . S
C2165 C2164 1.362 . S
H2166 C2172 0.930 . S
H2167 C2175 0.930 . S
H2168 C2176 0.930 . S
H2169 C2177 0.930 . S
H2170 C2180 0.930 . S
H2171 C2181 0.930 1_655 S
C2172 H2166 0.930 . S
C2172 C2173 1.355 . S
C2172 C2174 1.415 . S
C2173 C2172 1.355 . S
C2173 C2175 1.419 . S
C2174 C2172 1.415 . S
C2174 C2179 1.425 . S
C2174 C2181 1.409 . S
C2175 H2167 0.930 . S
C2175 C2173 1.419 . S
C2175 C2176 1.362 . S
C2176 H2168 0.930 . S
C2176 C2175 1.362 . S
C2176 C2179 1.409 . S
C2177 H2169 0.930 . S
C2177 C2178 1.355 . S
C2177 C2179 1.415 . S
C2178 C2177 1.355 . S
C2178 C2180 1.419 . S
C2179 C2174 1.425 . S
C2179 C2176 1.409 . S
C2179 C2177 1.415 . S
C2180 H2170 0.930 . S
C2180 C2178 1.419 . S
C2180 C2181 1.362 . S
C2181 H2171 0.930 1_455 S
C2181 C2174 1.409 . S
C2181 C2180 1.362 . S
H2182 C2188 0.930 . S
H2183 C2191 0.930 . S
H2184 C2192 0.930 . S
H2185 C2193 0.930 . S
H2186 C2196 0.930 . S
H2187 C2197 0.930 . S
C2188 H2182 0.930 . S
C2188 C2189 1.355 . S
C2188 C2190 1.415 . S
C2189 C2188 1.355 . S
C2189 C2191 1.419 . S
C2190 C2188 1.415 . S
C2190 C2195 1.425 . S
C2190 C2197 1.409 . S
C2191 H2183 0.930 . S
C2191 C2189 1.419 . S
C2191 C2192 1.362 . S
C2192 H2184 0.930 . S
C2192 C2191 1.362 . S
C2192 C2195 1.409 . S
C2193 H2185 0.930 . S
C2193 C2194 1.355 . S
C2193 C2195 1.415 . S
C2194 C2193 1.355 . S
C2194 C2196 1.419 . S
C2195 C2190 1.425 . S
C2195 C2192 1.409 . S
C2195 C2193 1.415 . S
C2196 H2186 0.930 . S
C2196 C2194 1.419 . S
C2196 C2197 1.362 . S
C2197 H2187 0.930 . S
C2197 C2190 1.409 . S
C2197 C2196 1.362 . S
H2198 C2204 0.968 . S
H2199 C2207 0.930 . S
H2200 C2208 0.930 . S
H2201 C2209 0.930 . S
H2202 C2212 0.930 . S
H2203 C2213 0.930 . S
C2204 H2198 0.968 . S
C2204 C2205 1.341 1_545 S
C2204 C2206 1.392 1_545 S
C2205 C2204 1.341 1_565 S
C2205 C2207 1.419 . S
C2206 C2204 1.392 1_565 S
C2206 C2211 1.425 . S
C2206 C2213 1.409 1_565 S
C2207 H2199 0.930 . S
C2207 C2205 1.419 . S
C2207 C2208 1.362 . S
C2208 H2200 0.930 . S
C2208 C2207 1.362 . S
C2208 C2211 1.409 . S
C2209 H2201 0.930 . S
C2209 C2210 1.355 . S
C2209 C2211 1.415 . S
C2210 C2209 1.355 . S
C2210 C2212 1.419 1_565 S
C2211 C2206 1.425 . S
C2211 C2208 1.409 . S
C2211 C2209 1.415 . S
C2212 H2202 0.930 . S
C2212 C2210 1.419 1_545 S
C2212 C2213 1.362 . S
C2213 H2203 0.930 . S
C2213 C2206 1.409 1_545 S
C2213 C2212 1.362 . S
H2214 C2220 0.930 . S
H2215 C2223 0.930 . S
H2216 C2224 0.930 . S
H2217 C2225 0.930 . S
H2218 C2228 0.930 . S
H2219 C2229 0.930 . S
C2220 H2214 0.930 . S
C2220 C2221 1.355 . S
C2220 C2222 1.415 . S
C2221 C2220 1.355 . S
C2221 C2223 1.419 . S
C2222 C2220 1.415 . S
C2222 C2227 1.425 . S
C2222 C2229 1.409 1_565 S
C2223 H2215 0.930 . S
C2223 C2221 1.419 . S
C2223 C2224 1.362 . S
C2224 H2216 0.930 . S
C2224 C2223 1.362 . S
C2224 C2227 1.409 . S
C2225 H2217 0.930 . S
C2225 C2226 1.355 . S
C2225 C2227 1.415 . S
C2226 C2225 1.355 . S
C2226 C2228 1.419 1_565 S
C2227 C2222 1.425 . S
C2227 C2224 1.409 . S
C2227 C2225 1.415 . S
C2228 H2218 0.930 . S
C2228 C2226 1.419 1_545 S
C2228 C2229 1.362 . S
C2229 H2219 0.930 . S
C2229 C2222 1.409 1_545 S
C2229 C2228 1.362 . S
H2230 C2236 0.930 . S
H2231 C2239 0.930 . S
H2232 C2240 0.903 1_655 S
H2233 C2241 0.930 . S
H2234 C2244 0.930 . S
H2235 C2245 0.930 . S
C2236 H2230 0.930 . S
C2236 C2237 1.355 . S
C2236 C2238 1.415 . S
C2237 C2236 1.355 . S
C2237 C2239 1.419 . S
C2238 C2236 1.415 . S
C2238 C2243 1.425 . S
C2238 C2245 1.409 . S
C2239 H2231 0.930 . S
C2239 C2237 1.419 . S
C2239 C2240 1.362 . S
C2240 H2232 0.903 1_455 S
C2240 C2239 1.362 . S
C2240 C2243 1.409 . S
C2241 H2233 0.930 . S
C2241 C2242 1.355 . S
C2241 C2243 1.415 . S
C2242 C2241 1.355 . S
C2242 C2244 1.419 . S
C2243 C2238 1.425 . S
C2243 C2240 1.409 . S
C2243 C2241 1.415 . S
C2244 H2234 0.930 . S
C2244 C2242 1.419 . S
C2244 C2245 1.362 . S
C2245 H2235 0.930 . S
C2245 C2238 1.409 . S
C2245 C2244 1.362 . S
H2246 C2252 0.930 . S
H2247 C2255 0.930 . S
H2248 C2256 0.930 . S
H2249 C2257 0.930 . S
H2250 C2260 0.930 . S
H2251 C2261 0.930 . S
C2252 H2246 0.930 . S
C2252 C2253 1.355 . S
C2252 C2254 1.415 . S
C2253 C2252 1.355 . S
C2253 C2255 1.419 . S
C2254 C2252 1.415 . S
C2254 C2259 1.425 . S
C2254 C2261 1.409 . S
C2255 H2247 0.930 . S
C2255 C2253 1.419 . S
C2255 C2256 1.362 . S
C2256 H2248 0.930 . S
C2256 C2255 1.362 . S
C2256 C2259 1.409 . S
C2257 H2249 0.930 . S
C2257 C2258 1.355 . S
C2257 C2259 1.415 . S
C2258 C2257 1.355 . S
C2258 C2260 1.419 . S
C2259 C2254 1.425 . S
C2259 C2256 1.409 . S
C2259 C2257 1.415 . S
C2260 H2250 0.930 . S
C2260 C2258 1.419 . S
C2260 C2261 1.362 . S
C2261 H2251 0.930 . S
C2261 C2254 1.409 . S
C2261 C2260 1.362 . S
H2262 C2268 0.930 . S
H2263 C2271 0.930 . S
H2264 C2272 0.930 . S
H2265 C2273 0.930 . S
H2266 C2276 0.930 . S
H2267 C2277 0.930 . S
C2268 H2262 0.930 . S
C2268 C2269 1.355 . S
C2268 C2270 1.415 . S
C2269 C2268 1.355 . S
C2269 C2271 1.419 . S
C2270 C2268 1.415 . S
C2270 C2275 1.425 . S
C2270 C2277 1.409 . S
C2271 H2263 0.930 . S
C2271 C2269 1.419 . S
C2271 C2272 1.362 . S
C2272 H2264 0.930 . S
C2272 C2271 1.362 . S
C2272 C2275 1.409 . S
C2273 H2265 0.930 . S
C2273 C2274 1.355 . S
C2273 C2275 1.415 . S
C2274 C2273 1.355 . S
C2274 C2276 1.419 . S
C2275 C2270 1.425 . S
C2275 C2272 1.409 . S
C2275 C2273 1.415 . S
C2276 H2266 0.930 . S
C2276 C2274 1.419 . S
C2276 C2277 1.362 . S
C2277 H2267 0.930 . S
C2277 C2270 1.409 . S
C2277 C2276 1.362 . S
H2278 C2284 0.930 . S
H2279 C2287 0.930 . S
H2280 C2288 0.930 . S
H2281 C2289 0.930 . S
H2282 C2292 0.930 . S
H2283 C2293 0.930 . S
C2284 H2278 0.930 . S
C2284 C2285 1.355 . S
C2284 C2286 1.415 . S
C2285 C2284 1.355 . S
C2285 C2287 1.419 . S
C2286 C2284 1.415 . S
C2286 C2291 1.425 . S
C2286 C2293 1.409 . S
C2287 H2279 0.930 . S
C2287 C2285 1.419 . S
C2287 C2288 1.362 . S
C2288 H2280 0.930 . S
C2288 C2287 1.362 . S
C2288 C2291 1.409 . S
C2289 H2281 0.930 . S
C2289 C2290 1.355 . S
C2289 C2291 1.415 . S
C2290 C2289 1.355 . S
C2290 C2292 1.419 . S
C2291 C2286 1.425 . S
C2291 C2288 1.409 . S
C2291 C2289 1.415 . S
C2292 H2282 0.930 . S
C2292 C2290 1.419 . S
C2292 C2293 1.362 . S
C2293 H2283 0.930 . S
C2293 C2286 1.409 . S
C2293 C2292 1.362 . S
H2294 C2300 0.930 . S
H2295 C2303 0.930 1_455 S
H2296 C2304 0.930 . S
H2297 C2305 0.930 . S
H2298 C2308 0.930 . S
H2299 C2309 0.930 . S
C2300 H2294 0.930 . S
C2300 C2301 1.355 . S
C2300 C2302 1.415 . S
C2301 C2300 1.355 . S
C2301 C2303 1.419 . S
C2302 C2300 1.415 . S
C2302 C2307 1.425 . S
C2302 C2309 1.409 . S
C2303 H2295 0.930 1_655 S
C2303 C2301 1.419 . S
C2303 C2304 1.362 . S
C2304 H2296 0.930 . S
C2304 C2303 1.362 . S
C2304 C2307 1.409 . S
C2305 H2297 0.930 . S
C2305 C2306 1.355 . S
C2305 C2307 1.415 . S
C2306 C2305 1.355 . S
C2306 C2308 1.419 . S
C2307 C2302 1.425 . S
C2307 C2304 1.409 . S
C2307 C2305 1.415 . S
C2308 H2298 0.930 . S
C2308 C2306 1.419 . S
C2308 C2309 1.362 . S
C2309 H2299 0.930 . S
C2309 C2302 1.409 . S
C2309 C2308 1.362 . S
H2310 C2316 0.930 . S
H2311 C2319 0.930 . S
H2312 C2320 0.930 . S
H2313 C2321 0.930 . S
H2314 C2324 0.930 . S
H2315 C2325 0.930 . S
C2316 H2310 0.930 . S
C2316 C2317 1.355 . S
C2316 C2318 1.415 . S
C2317 C2316 1.355 . S
C2317 C2319 1.419 . S
C2318 C2316 1.415 . S
C2318 C2323 1.425 . S
C2318 C2325 1.409 . S
C2319 H2311 0.930 . S
C2319 C2317 1.419 . S
C2319 C2320 1.362 . S
C2320 H2312 0.930 . S
C2320 C2319 1.362 . S
C2320 C2323 1.409 . S
C2321 H2313 0.930 . S
C2321 C2322 1.355 . S
C2321 C2323 1.415 . S
C2322 C2321 1.355 . S
C2322 C2324 1.419 . S
C2323 C2318 1.425 . S
C2323 C2320 1.409 . S
C2323 C2321 1.415 . S
C2324 H2314 0.930 . S
C2324 C2322 1.419 . S
C2324 C2325 1.362 . S
C2325 H2315 0.930 . S
C2325 C2318 1.409 . S
C2325 C2324 1.362 . S
H2326 C2332 0.930 . S
H2327 C2335 0.930 . S
H2328 C2336 0.930 . S
H2329 C2337 0.930 . S
H2330 C2340 0.930 . S
H2331 C2341 0.930 . S
C2332 H2326 0.930 . S
C2332 C2333 1.355 . S
C2332 C2334 1.415 . S
C2333 C2332 1.355 . S
C2333 C2335 1.419 . S
C2334 C2332 1.415 . S
C2334 C2339 1.425 . S
C2334 C2341 1.409 . S
C2335 H2327 0.930 . S
C2335 C2333 1.419 . S
C2335 C2336 1.362 . S
C2336 H2328 0.930 . S
C2336 C2335 1.362 . S
C2336 C2339 1.409 . S
C2337 H2329 0.930 . S
C2337 C2338 1.355 . S
C2337 C2339 1.415 . S
C2338 C2337 1.355 . S
C2338 C2340 1.419 . S
C2339 C2334 1.425 . S
C2339 C2336 1.409 . S
C2339 C2337 1.415 . S
C2340 H2330 0.930 . S
C2340 C2338 1.419 . S
C2340 C2341 1.362 . S
C2341 H2331 0.930 . S
C2341 C2334 1.409 . S
C2341 C2340 1.362 . S
H2342 C2348 0.930 . S
H2343 C2351 0.930 . S
H2344 C2352 0.930 . S
H2345 C2353 0.930 . S
H2346 C2356 0.930 . S
H2347 C2357 0.930 . S
C2348 H2342 0.930 . S
C2348 C2349 1.355 . S
C2348 C2350 1.415 . S
C2349 C2348 1.355 . S
C2349 C2351 1.419 . S
C2350 C2348 1.415 . S
C2350 C2355 1.425 . S
C2350 C2357 1.409 . S
C2351 H2343 0.930 . S
C2351 C2349 1.419 . S
C2351 C2352 1.362 . S
C2352 H2344 0.930 . S
C2352 C2351 1.362 . S
C2352 C2355 1.409 . S
C2353 H2345 0.930 . S
C2353 C2354 1.355 . S
C2353 C2355 1.415 . S
C2354 C2353 1.355 . S
C2354 C2356 1.419 . S
C2355 C2350 1.425 . S
C2355 C2352 1.409 . S
C2355 C2353 1.415 . S
C2356 H2346 0.930 . S
C2356 C2354 1.419 . S
C2356 C2357 1.362 . S
C2357 H2347 0.930 . S
C2357 C2350 1.409 . S
C2357 C2356 1.362 . S
H2358 C2364 0.930 . S
H2359 C2367 0.930 . S
H2360 C2368 0.930 . S
H2361 C2369 0.930 . S
H2362 C2372 0.930 . S
H2363 C2373 0.930 . S
C2364 H2358 0.930 . S
C2364 C2365 1.355 . S
C2364 C2366 1.415 . S
C2365 C2364 1.355 . S
C2365 C2367 1.419 . S
C2366 C2364 1.415 . S
C2366 C2371 1.425 . S
C2366 C2373 1.409 . S
C2367 H2359 0.930 . S
C2367 C2365 1.419 . S
C2367 C2368 1.362 . S
C2368 H2360 0.930 . S
C2368 C2367 1.362 . S
C2368 C2371 1.409 . S
C2369 H2361 0.930 . S
C2369 C2370 1.355 . S
C2369 C2371 1.415 . S
C2370 C2369 1.355 . S
C2370 C2372 1.419 . S
C2371 C2366 1.425 . S
C2371 C2368 1.409 . S
C2371 C2369 1.415 . S
C2372 H2362 0.930 . S
C2372 C2370 1.419 . S
C2372 C2373 1.362 . S
C2373 H2363 0.930 . S
C2373 C2366 1.409 . S
C2373 C2372 1.362 . S
H2374 C2380 0.930 . S
H2375 C2383 0.930 1_545 S
H2376 C2384 0.930 . S
H2377 C2385 0.930 . S
H2378 C2388 0.930 . S
H2379 C2389 0.930 . S
C2380 H2374 0.930 . S
C2380 C2381 1.355 . S
C2380 C2382 1.415 . S
C2381 C2380 1.355 . S
C2381 C2383 1.419 . S
C2382 C2380 1.415 . S
C2382 C2387 1.425 . S
C2382 C2389 1.409 . S
C2383 H2375 0.930 1_565 S
C2383 C2381 1.419 . S
C2383 C2384 1.362 . S
C2384 H2376 0.930 . S
C2384 C2383 1.362 . S
C2384 C2387 1.409 . S
C2385 H2377 0.930 . S
C2385 C2386 1.355 . S
C2385 C2387 1.415 . S
C2386 C2385 1.355 . S
C2386 C2388 1.419 . S
C2387 C2382 1.425 . S
C2387 C2384 1.409 . S
C2387 C2385 1.415 . S
C2388 H2378 0.930 . S
C2388 C2386 1.419 . S
C2388 C2389 1.362 . S
C2389 H2379 0.930 . S
C2389 C2382 1.409 . S
C2389 C2388 1.362 . S
H2390 C2396 0.930 . S
H2391 C2399 0.930 . S
H2392 C2400 0.930 . S
H2393 C2401 0.930 . S
H2394 C2404 0.930 . S
H2395 C2405 0.930 . S
C2396 H2390 0.930 . S
C2396 C2397 1.355 . S
C2396 C2398 1.415 . S
C2397 C2396 1.355 . S
C2397 C2399 1.419 . S
C2398 C2396 1.415 . S
C2398 C2403 1.425 . S
C2398 C2405 1.409 . S
C2399 H2391 0.930 . S
C2399 C2397 1.419 . S
C2399 C2400 1.362 . S
C2400 H2392 0.930 . S
C2400 C2399 1.362 . S
C2400 C2403 1.409 . S
C2401 H2393 0.930 . S
C2401 C2402 1.355 . S
C2401 C2403 1.415 . S
C2402 C2401 1.355 . S
C2402 C2404 1.419 . S
C2403 C2398 1.425 . S
C2403 C2400 1.409 . S
C2403 C2401 1.415 . S
C2404 H2394 0.930 . S
C2404 C2402 1.419 . S
C2404 C2405 1.362 . S
C2405 H2395 0.930 . S
C2405 C2398 1.409 . S
C2405 C2404 1.362 . S
H2406 C2412 0.930 . S
H2407 C2415 0.930 . S
H2408 C2416 0.930 . S
H2409 C2417 0.930 . S
H2410 C2420 0.930 . S
H2411 C2421 0.930 . S
C2412 H2406 0.930 . S
C2412 C2413 1.355 . S
C2412 C2414 1.415 . S
C2413 C2412 1.355 . S
C2413 C2415 1.419 . S
C2414 C2412 1.415 . S
C2414 C2419 1.425 . S
C2414 C2421 1.409 . S
C2415 H2407 0.930 . S
C2415 C2413 1.419 . S
C2415 C2416 1.362 . S
C2416 H2408 0.930 . S
C2416 C2415 1.362 . S
C2416 C2419 1.409 . S
C2417 H2409 0.930 . S
C2417 C2418 1.355 . S
C2417 C2419 1.415 . S
C2418 C2417 1.355 . S
C2418 C2420 1.419 . S
C2419 C2414 1.425 . S
C2419 C2416 1.409 . S
C2419 C2417 1.415 . S
C2420 H2410 0.930 . S
C2420 C2418 1.419 . S
C2420 C2421 1.362 . S
C2421 H2411 0.930 . S
C2421 C2414 1.409 . S
C2421 C2420 1.362 . S
H2422 C2428 0.930 . S
H2423 C2431 0.930 . S
H2424 C2432 0.930 . S
H2425 C2433 0.930 . S
H2426 C2436 0.930 . S
H2427 C2437 0.930 . S
C2428 H2422 0.930 . S
C2428 C2429 1.355 . S
C2428 C2430 1.415 . S
C2429 C2428 1.355 . S
C2429 C2431 1.419 . S
C2430 C2428 1.415 . S
C2430 C2435 1.425 . S
C2430 C2437 1.409 . S
C2431 H2423 0.930 . S
C2431 C2429 1.419 . S
C2431 C2432 1.362 . S
C2432 H2424 0.930 . S
C2432 C2431 1.362 . S
C2432 C2435 1.409 . S
C2433 H2425 0.930 . S
C2433 C2434 1.355 . S
C2433 C2435 1.415 . S
C2434 C2433 1.355 . S
C2434 C2436 1.419 . S
C2435 C2430 1.425 . S
C2435 C2432 1.409 . S
C2435 C2433 1.415 . S
C2436 H2426 0.930 . S
C2436 C2434 1.419 . S
C2436 C2437 1.362 . S
C2437 H2427 0.930 . S
C2437 C2430 1.409 . S
C2437 C2436 1.362 . S
H2438 C2444 0.930 . S
H2439 C2447 0.930 . S
H2440 C2448 0.930 . S
H2441 C2449 0.930 . S
H2442 C2452 0.930 . S
H2443 C2453 0.930 . S
C2444 H2438 0.930 . S
C2444 C2445 1.355 . S
C2444 C2446 1.415 . S
C2445 C2444 1.355 . S
C2445 C2447 1.419 . S
C2446 C2444 1.415 . S
C2446 C2451 1.425 . S
C2446 C2453 1.409 . S
C2447 H2439 0.930 . S
C2447 C2445 1.419 . S
C2447 C2448 1.362 . S
C2448 H2440 0.930 . S
C2448 C2447 1.362 . S
C2448 C2451 1.409 . S
C2449 H2441 0.930 . S
C2449 C2450 1.355 . S
C2449 C2451 1.415 . S
C2450 C2449 1.355 . S
C2450 C2452 1.419 . S
C2451 C2446 1.425 . S
C2451 C2448 1.409 . S
C2451 C2449 1.415 . S
C2452 H2442 0.930 . S
C2452 C2450 1.419 . S
C2452 C2453 1.362 . S
C2453 H2443 0.930 . S
C2453 C2446 1.409 . S
C2453 C2452 1.362 . S
H2454 C2460 0.930 1_455 S
H2455 C2463 0.930 . S
H2456 C2464 0.930 . S
H2457 C2465 0.930 . S
H2458 C2468 0.930 . S
H2459 C2469 0.930 . S
C2460 H2454 0.930 1_655 S
C2460 C2461 1.355 . S
C2460 C2462 1.415 . S
C2461 C2460 1.355 . S
C2461 C2463 1.419 . S
C2462 C2460 1.415 . S
C2462 C2467 1.425 . S
C2462 C2469 1.409 1_655 S
C2463 H2455 0.930 . S
C2463 C2461 1.419 . S
C2463 C2464 1.362 . S
C2464 H2456 0.930 . S
C2464 C2463 1.362 . S
C2464 C2467 1.409 . S
C2465 H2457 0.930 . S
C2465 C2466 1.355 . S
C2465 C2467 1.415 . S
C2466 C2465 1.355 . S
C2466 C2468 1.419 1_655 S
C2467 C2462 1.425 . S
C2467 C2464 1.409 . S
C2467 C2465 1.415 . S
C2468 H2458 0.930 . S
C2468 C2466 1.419 1_455 S
C2468 C2469 1.362 . S
C2469 H2459 0.930 . S
C2469 C2462 1.409 1_455 S
C2469 C2468 1.362 . S
H2470 C2476 0.930 . S
H2471 C2479 0.930 . S
H2472 C2480 0.930 . S
H2473 C2481 0.930 . S
H2474 C2484 0.930 . S
H2475 C2485 0.930 . S
C2476 H2470 0.930 . S
C2476 C2477 1.355 . S
C2476 C2478 1.415 . S
C2477 C2476 1.355 . S
C2477 C2479 1.419 . S
C2478 C2476 1.415 . S
C2478 C2483 1.425 . S
C2478 C2485 1.409 . S
C2479 H2471 0.930 . S
C2479 C2477 1.419 . S
C2479 C2480 1.362 . S
C2480 H2472 0.930 . S
C2480 C2479 1.362 . S
C2480 C2483 1.409 . S
C2481 H2473 0.930 . S
C2481 C2482 1.355 . S
C2481 C2483 1.415 . S
C2482 C2481 1.355 . S
C2482 C2484 1.419 . S
C2483 C2478 1.425 . S
C2483 C2480 1.409 . S
C2483 C2481 1.415 . S
C2484 H2474 0.930 . S
C2484 C2482 1.419 . S
C2484 C2485 1.362 . S
C2485 H2475 0.930 . S
C2485 C2478 1.409 . S
C2485 C2484 1.362 . S
H2486 C2492 0.930 . S
H2487 C2495 0.930 . S
H2488 C2496 0.930 . S
H2489 C2497 0.930 . S
H2490 C2500 0.930 . S
H2491 C2501 0.930 . S
C2492 H2486 0.930 . S
C2492 C2493 1.355 . S
C2492 C2494 1.415 . S
C2493 C2492 1.355 . S
C2493 C2495 1.419 . S
C2494 C2492 1.415 . S
C2494 C2499 1.425 . S
C2494 C2501 1.409 . S
C2495 H2487 0.930 . S
C2495 C2493 1.419 . S
C2495 C2496 1.362 . S
C2496 H2488 0.930 . S
C2496 C2495 1.362 . S
C2496 C2499 1.409 . S
C2497 H2489 0.930 . S
C2497 C2498 1.355 . S
C2497 C2499 1.415 . S
C2498 C2497 1.355 . S
C2498 C2500 1.419 . S
C2499 C2494 1.425 . S
C2499 C2496 1.409 . S
C2499 C2497 1.415 . S
C2500 H2490 0.930 . S
C2500 C2498 1.419 . S
C2500 C2501 1.362 . S
C2501 H2491 0.930 . S
C2501 C2494 1.409 . S
C2501 C2500 1.362 . S
C1357 C10 1.684 . S
C1362 C839 1.647 . S
C1373 C23 1.673 . S
C1378 C883 1.631 . S
C1394 C963 1.665 . S
C1389 C29 1.688 . S
C1405 C30 1.682 . S
C1410 C1007 1.670 . S
C1421 C5 1.688 . S
C1426 C1087 1.656 . S
C1437 C18 1.675 . S
C1442 C1149 1.608 . S
C1453 C49 1.682 . S
C1458 C1069 1.613 . S
C1474 C1131 1.603 . S
C1469 C62 1.672 . S
C1490 C1025 1.672 . S
C1485 C70 1.685 . S
C1501 C75 1.679 . S
C1506 C945 1.613 . S
C1522 C821 1.645 . S
C1517 C44 1.686 . S
C1533 C57 1.674 . S
C1538 C901 1.623 . S
C1549 C88 1.683 . S
C1554 C1211 1.634 . S
C1565 C101 1.673 . S
C1570 C1255 1.623 . S
C1586 C1335 1.664 . S
C1581 C107 1.684 . S
C1597 C108 1.682 . S
C1602 C281 1.662 . S
C1613 C83 1.690 . S
C1618 C325 1.653 . S
C1629 C96 1.678 . S
C1634 C405 1.619 . S
C1645 C127 1.683 . S
C1650 C343 1.661 . S
C1661 C140 1.673 . S
C1666 C387 1.637 . S
C1682 C263 1.635 . S
C1677 C146 1.679 . S
C1698 C1317 1.657 . S
C1693 C147 1.682 . S
C1714 C1193 1.659 . S
C1709 C122 1.692 . S
C1730 C1273 1.657 . S
C1725 C135 1.680 . S
C1741 C160 1.682 . S
C1746 C467 1.631 . S
C1757 C173 1.675 . S
C1762 C529 1.653 . S
C1773 C185 1.680 . S
C1778 C573 1.651 . S
C1789 C186 1.681 . S
C1794 C635 1.669 . S
C1810 C697 1.678 . S
C1805 C159 1.693 . S
C1826 C777 1.617 . S
C1821 C172 1.674 . S
C1842 C715 1.668 . S
C1837 C205 1.685 . S
C1858 C759 1.646 . S
C1853 C218 1.674 . S
C1869 C224 1.677 . S
C1874 C653 1.626 . S
C1890 C591 1.671 . S
C1885 C225 1.683 . S
C1901 C200 1.685 . S
C1906 C449 1.623 . S
C1922 C511 1.634 . S
C1917 C213 1.681 . S
C1938 C287 1.436 . S
C1933 C4 1.497 . S
C1949 C17 1.503 . S
C1954 C331 1.478 . S
C1970 C411 1.484 . S
C1965 C31 1.508 . S
C1986 C473 1.434 . S
C1981 C36 1.512 . S
C2002 C535 1.486 . S
C1997 C3 1.517 . S
C2018 C579 1.478 . S
C2013 C16 1.506 . S
C2029 C43 1.501 . S
C2034 C597 1.408 . S
C2045 C56 1.504 . S
C2050 C455 1.470 . S
C2061 C68 1.513 . S
C2066 C517 1.474 . S
C2077 C69 1.512 . S
C2082 C349 1.468 . S
C2098 C393 1.414 . S
C2093 C42 1.515 . S
C2109 C55 1.507 . S
C2114 C269 1.405 . S
C2130 C641 1.408 . S
C2125 C82 1.499 . S
C2141 C95 1.505 . S
C2146 C703 1.419 . S
C2157 C109 1.509 1_655 S
C2162 C783 1.484 . S
C2178 C845 1.446 . S
C2173 C114 1.496 . S
C2189 C81 1.517 . S
C2194 C889 1.436 . S
C2205 C94 1.505 . S
C2210 C969 1.475 . S
C2221 C121 1.500 . S
C2226 C951 1.469 . S
C2237 C134 1.506 . S
C2242 C827 1.459 . S
C2258 C907 1.435 . S
C2253 C148 1.503 . S
C2269 C153 1.497 . S
C2274 C721 1.417 . S
C2285 C120 1.508 . S
C2290 C765 1.439 . S
C2306 C659 1.482 . S
C2301 C133 1.509 1_655 S
C2322 C1013 1.481 . S
C2317 C166 1.511 . S
C2333 C179 1.495 . S
C2338 C1093 1.408 . S
C2349 C187 1.506 . S
C2354 C1155 1.476 . S
C2370 C1217 1.410 . S
C2365 C192 1.500 . S
C2386 C1261 1.441 . S
C2381 C161 1.509 1_565 S
C2397 C174 1.510 . S
C2402 C1341 1.410 . S
C2413 C199 1.506 . S
C2418 C1323 1.482 . S
C2429 C212 1.505 1_565 S
C2434 C1199 1.464 . S
C2450 C1279 1.416 . S
C2445 C226 1.509 . S
C2466 C1075 1.464 . S
C2461 C231 1.493 . S
C2482 C1137 1.446 . S
C2477 C198 1.508 . S
C2493 C211 1.512 . S
C2498 C1031 1.480 . S
