# Generated by pormake.
# Topology anh, (6,3)-cn, num edge types: 1
# Building blocks:
#     Node 0, Type 0, BuildingBlock: GEDQOX_clean_sbu_0, # of connection points: 6
#     Node 1, Type 0, BuildingBlock: GEDQOX_clean_sbu_0, # of connection points: 6
#     Node 2, Type 0, BuildingBlock: GEDQOX_clean_sbu_0, # of connection points: 6
#     Node 3, Type 1, BuildingBlock: BELTOD_clean_linker_0, # of connection points: 3
#     Node 4, Type 1, BuildingBlock: BELTOD_clean_linker_0, # of connection points: 3
#     Node 5, Type 1, BuildingBlock: BELTOD_clean_linker_0, # of connection points: 3
#     Node 6, Type 1, BuildingBlock: BELTOD_clean_linker_0, # of connection points: 3
#     Node 7, Type 1, BuildingBlock: BELTOD_clean_linker_0, # of connection points: 3
#     Node 8, Type 1, BuildingBlock: BELTOD_clean_linker_0, # of connection points: 3
#     Edge 9, Type (0, 1), BuildingBlock: TEMPAE_clean_linker_10, # of connection points: 2
#     Edge 10, Type (0, 1), BuildingBlock: TEMPAE_clean_linker_10, # of connection points: 2
#     Edge 11, Type (0, 1), BuildingBlock: TEMPAE_clean_linker_10, # of connection points: 2
#     Edge 12, Type (0, 1), BuildingBlock: TEMPAE_clean_linker_10, # of connection points: 2
#     Edge 13, Type (0, 1), BuildingBlock: TEMPAE_clean_linker_10, # of connection points: 2
#     Edge 14, Type (0, 1), BuildingBlock: TEMPAE_clean_linker_10, # of connection points: 2
#     Edge 15, Type (0, 1), BuildingBlock: TEMPAE_clean_linker_10, # of connection points: 2
#     Edge 16, Type (0, 1), BuildingBlock: TEMPAE_clean_linker_10, # of connection points: 2
#     Edge 17, Type (0, 1), BuildingBlock: TEMPAE_clean_linker_10, # of connection points: 2
#     Edge 18, Type (0, 1), BuildingBlock: TEMPAE_clean_linker_10, # of connection points: 2
#     Edge 19, Type (0, 1), BuildingBlock: TEMPAE_clean_linker_10, # of connection points: 2
#     Edge 20, Type (0, 1), BuildingBlock: TEMPAE_clean_linker_10, # of connection points: 2
#     Edge 21, Type (0, 1), BuildingBlock: TEMPAE_clean_linker_10, # of connection points: 2
#     Edge 22, Type (0, 1), BuildingBlock: TEMPAE_clean_linker_10, # of connection points: 2
#     Edge 23, Type (0, 1), BuildingBlock: TEMPAE_clean_linker_10, # of connection points: 2
#     Edge 24, Type (0, 1), BuildingBlock: TEMPAE_clean_linker_10, # of connection points: 2
#     Edge 25, Type (0, 1), BuildingBlock: TEMPAE_clean_linker_10, # of connection points: 2
#     Edge 26, Type (0, 1), BuildingBlock: TEMPAE_clean_linker_10, # of connection points: 2
# Relax obj value: 0.175
# Max RMSD: 0.208
# Mean RMSD: 0.149
data_MOF--net-anh--node1-GEDQOX_clean_sbu_0--node2-BELTOD_clean_linker_0--edge1-TEMPAE_clean_linker_10
_symmetry_space_group_name_H-M    P1
_symmetry_Int_Tables_number       1
_symmetry_cell_setting            triclinic
loop_
_symmetry_equiv_pos_as_xyz
'x, y, z'
_cell_length_a     35.413833
_cell_length_b     33.926331
_cell_length_c     61.428328
_cell_angle_alpha  93.053373
_cell_angle_beta   90.595834
_cell_angle_gamma 106.14837
loop_
_atom_site_label
_atom_site_type_symbol
_atom_site_fract_x
_atom_site_fract_y
_atom_site_fract_z
_atom_type_partial_charge
Nd0 Nd 0.0703 0.57313 0.14517 0.0
Nd1 Nd 1.04448 0.47418 0.14311 0.0
C2 C 0.09893 0.64956 0.13427 0.0
C3 C 0.1338 0.68372 0.14126 0.0
C4 C 0.16388 0.69796 0.12648 0.0
C5 C 0.19863 0.72763 0.13326 0.0
C6 C 0.204 0.7439 0.15499 0.0
C7 C 0.1733 0.73054 0.16958 0.0
C8 C 0.13865 0.70072 0.16283 0.0
C9 C 0.0693 0.5451 0.18667 0.0
C10 C 0.13912 0.52128 0.14486 0.0
C11 C 1.01343 0.39512 0.14856 0.0
C12 C 0.97691 0.36784 0.15644 0.0
C13 C 0.95053 0.38346 0.16872 0.0
C14 C 0.9159 0.3568 0.17604 0.0
C15 C 0.90715 0.31412 0.17118 0.0
C16 C 0.93363 0.29888 0.15865 0.0
C17 C 0.96816 0.3255 0.15137 0.0
C18 C 0.06306 0.51213 0.10488 0.0
C19 C 0.97502 0.52494 0.14425 0.0
O20 O 0.10634 0.61817 0.12354 0.0
O21 O 0.07073 0.63858 0.14833 0.0
O22 O 0.07899 0.58385 0.18282 0.0
O23 O 0.06114 0.52433 0.16888 0.0
O24 O 0.1297 0.55585 0.1413 0.0
O25 O 0.11176 0.48666 0.14855 0.0
O26 O 1.03642 0.42035 0.1632 0.0
O27 O 1.01046 0.41211 0.13021 0.0
O28 O 0.07212 0.47861 0.10905 0.0
O29 O 1.04382 0.52268 0.12009 0.0
O30 O 0.98453 0.49012 0.14704 0.0
O31 O 1.00241 0.5601 0.14147 0.0
H32 H 0.16095 0.68528 0.10979 0.0
H33 H 0.22177 0.73681 0.12163 0.0
H34 H 0.17614 0.74291 0.18633 0.0
H35 H 0.11606 0.69051 0.17465 0.0
H36 H 0.9568 0.41617 0.17271 0.0
H37 H 0.89632 0.36951 0.18578 0.0
H38 H 0.9275 0.26632 0.15428 0.0
H39 H 0.98806 0.31299 0.14176 0.0
Nd40 Nd 0.49324 0.97645 0.52527 0.0
Nd41 Nd 0.58391 0.00515 0.51054 0.0
C42 C 0.42424 0.93999 0.54136 0.0
C43 C 0.39549 0.90038 0.53516 0.0
C44 C 0.35788 0.89009 0.54394 0.0
C45 C 0.33009 0.85317 0.53705 0.0
C46 C 0.33957 0.82598 0.52128 0.0
C47 C 0.37755 0.83646 0.51273 0.0
C48 C 0.40517 0.87328 0.51958 0.0
C49 C 0.50683 0.98115 0.48141 0.0
C50 C 0.54489 0.90778 0.5191 0.0
C51 C 0.64436 0.0311 0.48515 0.0
C52 C 0.67783 0.06748 0.48217 0.0
C53 C 0.68534 0.08163 0.46119 0.0
C54 C 0.71731 0.11541 0.45766 0.0
C55 C 0.74266 0.1357 0.47506 0.0
C56 C 0.73467 0.12183 0.49618 0.0
C57 C 0.70251 0.08807 0.49972 0.0
C58 C 0.57884 0.01425 0.55534 0.0
C59 C 0.53555 0.07343 0.52345 0.0
O60 O 0.45764 0.93782 0.54985 0.0
O61 O 0.42897 0.96767 0.52682 0.0
O62 O 0.47692 0.98982 0.4904 0.0
O63 O 0.52636 0.96836 0.49518 0.0
O64 O 0.51254 0.91678 0.5257 0.0
O65 O 0.57509 0.93543 0.51118 0.0
O66 O 0.60931 0.03507 0.4808 0.0
O67 O 0.64554 0.00962 0.50219 0.0
O68 O 0.61225 0.02306 0.54544 0.0
O69 O 0.55161 1.00242 0.54126 0.0
O70 O 0.56183 0.06331 0.51067 0.0
O71 O 0.5097 0.04581 0.53428 0.0
H72 H 0.34989 0.91074 0.55593 0.0
H73 H 0.30124 0.84586 0.54411 0.0
H74 H 0.38569 0.81667 0.50032 0.0
H75 H 0.43396 0.88093 0.51243 0.0
H76 H 0.66649 0.06636 0.44745 0.0
H77 H 0.72211 0.12567 0.44126 0.0
H78 H 0.75375 0.13647 0.50992 0.0
H79 H 0.69721 0.07789 0.51611 0.0
Nd80 Nd 0.49852 0.44632 0.83177 0.0
Nd81 Nd 0.58775 0.47266 0.85207 0.0
C82 C 0.43282 0.42611 0.80814 0.0
C83 C 0.40849 0.4526 0.80184 0.0
C84 C 0.36744 0.43754 0.80079 0.0
C85 C 0.34426 0.46475 0.79941 0.0
C86 C 0.36189 0.50751 0.7995 0.0
C87 C 0.40313 0.52193 0.79896 0.0
C88 C 0.42611 0.49476 0.80002 0.0
C89 C 0.50792 0.4581 0.87633 0.0
C90 C 0.54338 0.54376 0.84077 0.0
C91 C 0.64865 0.4954 0.87942 0.0
C92 C 0.68634 0.52731 0.88059 0.0
C93 C 0.71213 0.53024 0.89839 0.0
C94 C 0.74913 0.55891 0.89902 0.0
C95 C 0.76093 0.58502 0.8818 0.0
C96 C 0.73445 0.58263 0.86422 0.0
C97 C 0.69741 0.55394 0.86362 0.0
C98 C 0.58706 0.4794 0.80745 0.0
C99 C 0.54403 0.37485 0.8392 0.0
O100 O 0.46762 0.43386 0.79954 0.0
O101 O 0.43373 0.42039 0.82905 0.0
O102 O 0.47994 0.46705 0.8655 0.0
O103 O 0.52773 0.44155 0.86382 0.0
O104 O 0.51563 0.51595 0.82933 0.0
O105 O 0.57065 0.53398 0.85269 0.0
O106 O 0.64496 0.46671 0.8637 0.0
O107 O 0.61715 0.50828 0.88177 0.0
O108 O 0.61953 0.48684 0.81899 0.0
O109 O 0.55879 0.46844 0.81989 0.0
O110 O 0.57259 0.402 0.85061 0.0
O111 O 0.5148 0.38493 0.82932 0.0
H112 H 0.35331 0.40509 0.80214 0.0
H113 H 0.31258 0.45243 0.79933 0.0
H114 H 0.41799 0.55449 0.79928 0.0
H115 H 0.45778 0.50714 0.80072 0.0
H116 H 0.70386 0.50998 0.91165 0.0
H117 H 0.76862 0.56047 0.91294 0.0
H118 H 0.74278 0.60205 0.85064 0.0
H119 H 0.6777 0.55196 0.84974 0.0
P120 P 0.58722 0.9816 0.24706 0.0
H121 H 0.56565 0.95037 0.20219 0.0
H122 H 0.50229 0.91901 0.18342 0.0
H123 H 0.44254 0.94139 0.24184 0.0
H124 H 0.50561 0.97413 0.26004 0.0
H125 H 0.66132 0.03381 0.26483 0.0
H126 H 0.70814 0.09534 0.25251 0.0
H127 H 0.62948 0.09667 0.19847 0.0
H128 H 0.58274 0.03473 0.21088 0.0
H129 H 0.57918 0.92134 0.28008 0.0
H130 H 0.57714 0.04746 0.27742 0.0
O131 O 0.61125 0.94641 0.24177 0.0
H132 H 0.56703 0.92381 0.31912 0.0
H133 H 0.56422 0.05003 0.3165 0.0
C134 C 0.54047 0.96434 0.23254 0.0
C135 C 0.53883 0.94914 0.21079 0.0
C136 C 0.50256 0.93088 0.20015 0.0
C137 C 0.46717 0.92716 0.21117 0.0
C138 C 0.46905 0.94402 0.23273 0.0
C139 C 0.50532 0.96259 0.24326 0.0
C140 C 0.61843 0.02986 0.23891 0.0
C141 C 0.65384 0.04773 0.25053 0.0
C142 C 0.68053 0.08303 0.2435 0.0
C143 C 0.67251 0.10103 0.22453 0.0
C144 C 0.63663 0.08337 0.21307 0.0
C145 C 0.60979 0.04804 0.22021 0.0
C146 C 0.5799 0.98447 0.276 0.0
C147 C 0.57638 0.94968 0.28795 0.0
C148 C 0.56907 0.95103 0.31024 0.0
C149 C 0.56471 0.98716 0.32095 0.0
C150 C 0.56805 0.02196 0.30882 0.0
C151 C 0.57537 0.02053 0.2865 0.0
P152 P 0.61188 0.51391 0.57148 0.0
H153 H 0.64567 0.46605 0.54027 0.0
H154 H 0.62665 0.39287 0.52931 0.0
H155 H 0.51544 0.37805 0.5606 0.0
H156 H 0.53489 0.45171 0.57186 0.0
H157 H 0.6522 0.60042 0.57569 0.0
H158 H 0.63612 0.66196 0.56506 0.0
H159 H 0.52684 0.58701 0.53535 0.0
H160 H 0.54361 0.52468 0.54601 0.0
H161 H 0.62645 0.45863 0.60274 0.0
H162 H 0.57073 0.55668 0.60251 0.0
O163 O 0.66079 0.52449 0.57077 0.0
H164 H 0.6144 0.45218 0.64163 0.0
H165 H 0.55833 0.55018 0.64143 0.0
C166 C 0.59187 0.46439 0.55708 0.0
C167 C 0.61675 0.44746 0.54433 0.0
C168 C 0.60599 0.40547 0.53819 0.0
C169 C 0.56988 0.3796 0.54445 0.0
C170 C 0.54348 0.39724 0.55558 0.0
C171 C 0.55449 0.43936 0.56193 0.0
C172 C 0.59948 0.55789 0.5613 0.0
C173 C 0.62497 0.59701 0.56662 0.0
C174 C 0.61553 0.63231 0.56073 0.0
C175 C 0.58006 0.62953 0.54947 0.0
C176 C 0.55453 0.59018 0.54388 0.0
C177 C 0.56403 0.55456 0.54994 0.0
C178 C 0.5997 0.50819 0.59974 0.0
C179 C 0.61129 0.47851 0.61104 0.0
C180 C 0.60417 0.47471 0.63324 0.0
C181 C 0.5854 0.50068 0.64462 0.0
C182 C 0.57321 0.53001 0.63315 0.0
C183 C 0.58021 0.53366 0.61086 0.0
P184 P 0.1692 0.76912 0.91795 0.0
H185 H 0.19495 0.78525 0.87352 0.0
H186 H 0.23097 0.75182 0.84791 0.0
H187 H 0.24422 0.67086 0.89753 0.0
H188 H 0.20788 0.70319 0.92265 0.0
H189 H 0.11332 0.81814 0.92239 0.0
H190 H 1.04453 0.80402 0.91021 0.0
H191 H 0.05382 0.69525 0.87321 0.0
H192 H 0.12219 0.70996 0.88503 0.0
H193 H 0.21843 0.76527 0.95598 0.0
H194 H 0.0977 0.71209 0.93437 0.0
O195 O 0.1929 0.81832 0.92414 0.0
H196 H 0.20682 0.72252 0.98751 0.0
H197 H 0.08547 0.67167 0.96603 0.0
C198 C 0.19882 0.74696 0.90005 0.0
C199 C 0.20597 0.76054 0.8789 0.0
C200 C 0.22637 0.74143 0.86429 0.0
C201 C 0.24053 0.70902 0.87084 0.0
C202 C 0.23412 0.69622 0.89219 0.0
C203 C 0.21324 0.71481 0.9066 0.0
C204 C 0.12307 0.76558 0.90429 0.0
C205 C 0.10086 0.79215 0.911 0.0
C206 C 0.06146 0.7838 0.9042 0.0
C207 C 1.0436 0.74841 0.89079 0.0
C208 C 0.06672 0.72317 0.88318 0.0
C209 C 0.10601 0.73159 0.88995 0.0
C210 C 0.15913 0.74197 0.9427 0.0
C211 C 0.18929 0.74506 0.95822 0.0
C212 C 0.18256 0.72065 0.97626 0.0
C213 C 0.1453 0.6931 0.9792 0.0
C214 C 0.11484 0.69153 0.96402 0.0
C215 C 0.12177 0.71527 0.94589 0.0
P216 P 0.10111 0.44153 0.41359 0.0
H217 H 0.14185 0.46186 0.45576 0.0
H218 H 0.17373 0.52715 0.47574 0.0
H219 H 0.13131 0.59208 0.42661 0.0
H220 H 0.09965 0.52659 0.40667 0.0
H221 H 0.07563 0.35347 0.41928 0.0
H222 H 1.01571 0.30798 0.43292 0.0
H223 H 0.96979 0.41204 0.44599 0.0
H224 H 1.03025 0.45765 0.4321 0.0
H225 H 0.15386 0.48305 0.38094 0.0
H226 H 1.03083 0.41801 0.38404 0.0
O227 O 0.13637 0.4176 0.41428 0.0
H228 H 0.14492 0.49378 0.34243 0.0
H229 H 1.02183 0.42776 0.34542 0.0
C230 C 0.1191 0.48944 0.42954 0.0
C231 C 0.13904 0.49013 0.44944 0.0
C232 C 0.15708 0.52749 0.4609 0.0
C233 C 0.15543 0.56489 0.45265 0.0
C234 C 0.13372 0.56386 0.4332 0.0
C235 C 0.11552 0.52641 0.4218 0.0
C236 C 0.05767 0.40901 0.42508 0.0
C237 C 0.05297 0.36667 0.42535 0.0
C238 C 1.01869 0.34066 0.43322 0.0
C239 C 0.98813 0.35643 0.44075 0.0
C240 C 0.9928 0.39897 0.44029 0.0
C241 C 1.02736 0.42507 0.43251 0.0
C242 C 0.0931 0.44985 0.38538 0.0
C243 C 0.12493 0.471 0.3733 0.0
C244 C 0.11982 0.4768 0.35123 0.0
C245 C 0.08268 0.46136 0.34076 0.0
C246 C 1.05073 0.44034 0.35301 0.0
C247 C 0.0559 0.43463 0.37513 0.0
P248 P 0.60887 0.9758 0.78971 0.0
H249 H 0.64815 0.04236 0.82136 0.0
H250 H 0.63207 0.1052 0.83359 0.0
H251 H 0.51618 0.0579 0.8039 0.0
H252 H 0.53268 0.99484 0.79126 0.0
H253 H 0.64146 0.90817 0.78033 0.0
H254 H 0.62474 0.83722 0.79035 0.0
H255 H 0.52583 0.85537 0.82611 0.0
H256 H 0.54383 0.92766 0.81635 0.0
H257 H 0.63364 0.04076 0.75994 0.0
H258 H 0.55471 0.91817 0.75775 0.0
O259 O 0.65794 0.99066 0.79135 0.0
H260 H 0.61862 0.04631 0.72156 0.0
H261 H 0.53915 0.92363 0.71925 0.0
C262 C 0.59171 0.0139 0.80524 0.0
C263 C 0.61886 0.04478 0.81794 0.0
C264 C 0.60976 0.08091 0.82483 0.0
C265 C 0.57313 0.0867 0.81939 0.0
C266 C 0.54465 0.05424 0.80832 0.0
C267 C 0.55397 0.01813 0.8012 0.0
C268 C 0.59425 0.92337 0.79782 0.0
C269 C 0.61625 0.89705 0.79043 0.0
C270 C 0.60635 0.85619 0.79601 0.0
C271 C 0.57371 0.84021 0.80895 0.0
C272 C 0.55137 0.86668 0.81628 0.0
C273 C 0.56149 0.90796 0.81067 0.0
C274 C 0.59584 0.97887 0.76157 0.0
C275 C 0.61295 0.01506 0.75117 0.0
C276 C 0.60404 0.01832 0.72927 0.0
C277 C 0.57767 0.9854 0.71732 0.0
C278 C 0.55992 0.94934 0.72794 0.0
C279 C 0.56878 0.94619 0.74995 0.0
P280 P 0.54665 0.47969 0.11584 0.0
H281 H 0.5921 0.46886 0.15469 0.0
H282 H 0.66275 0.48053 0.16129 0.0
H283 H 0.68644 0.55173 0.10435 0.0
H284 H 0.61599 0.53988 0.09785 0.0
H285 H 0.46618 0.43604 0.10547 0.0
H286 H 0.4026 0.44792 0.11157 0.0
H287 H 0.459 0.56155 0.14819 0.0
H288 H 0.52399 0.5492 0.1418 0.0
H289 H 0.55895 0.42163 0.0813 0.0
H290 H 0.53491 0.53957 0.08566 0.0
O291 O 0.53836 0.43049 0.12157 0.0
H292 H 0.55533 0.42077 0.04151 0.0
H293 H 0.53123 0.53891 0.04574 0.0
C294 C 0.59776 0.50341 0.12575 0.0
C295 C 0.61237 0.48831 0.14403 0.0
C296 C 0.65322 0.49475 0.1477 0.0
C297 C 0.68106 0.51641 0.13313 0.0
C298 C 0.66639 0.53397 0.11572 0.0
C299 C 0.62561 0.52771 0.11215 0.0
C300 C 0.50042 0.49136 0.12329 0.0
C301 C 0.46527 0.46355 0.115 0.0
C302 C 0.42852 0.47061 0.11833 0.0
C303 C 0.425 0.50595 0.13023 0.0
C304 C 0.46022 0.53384 0.13899 0.0
C305 C 0.49758 0.52686 0.13536 0.0
C306 C 0.54652 0.48035 0.08644 0.0
C307 C 0.55286 0.44735 0.07371 0.0
C308 C 0.55068 0.44684 0.05095 0.0
C309 C 0.54262 0.47959 0.04048 0.0
C310 C 0.53761 0.51329 0.05332 0.0
C311 C 0.5395 0.51361 0.07611 0.0
C312 C 0.21161 0.55636 0.13863 0.0
C313 C 0.18195 0.52119 0.14401 0.0
C314 C 0.25157 0.55631 0.13706 0.0
C315 C 0.263 0.52026 0.14098 0.0
C316 C 0.23331 0.48486 0.1467 0.0
C317 C 0.19355 0.48571 0.1481 0.0
C318 C 0.28158 0.59486 0.13082 0.0
C319 C 0.24347 0.44564 0.15111 0.0
C320 C 0.35681 0.50325 0.11542 0.0
C321 C 0.38454 0.51281 0.13293 0.0
C322 C 0.31793 0.50623 0.11775 0.0
C323 C 0.30542 0.51892 0.13817 0.0
C324 C 0.33342 0.52944 0.15584 0.0
C325 C 0.3724 0.52652 0.153 0.0
C326 C 0.28994 0.49519 0.09825 0.0
C327 C 0.32191 0.54296 0.17797 0.0
H328 H 0.20358 0.58409 0.13536 0.0
H329 H 0.17141 0.45822 0.15229 0.0
H330 H 0.3058 0.60419 0.14328 0.0
H331 H 0.29477 0.58884 0.11512 0.0
H332 H 0.2686 0.62085 0.1291 0.0
H333 H 0.21764 0.42126 0.15626 0.0
H334 H 0.25528 0.43399 0.1362 0.0
H335 H 0.2668 0.45169 0.16405 0.0
H336 H 0.36555 0.49328 0.09969 0.0
H337 H 0.39305 0.53377 0.16676 0.0
H338 H 0.27789 0.52127 0.09502 0.0
H339 H 0.26472 0.46862 0.10167 0.0
H340 H 0.30427 0.48719 0.0833 0.0
H341 H 0.31007 0.56979 0.17662 0.0
H342 H 0.34704 0.55137 0.1899 0.0
H343 H 0.29818 0.51784 0.18438 0.0
C344 C 0.80041 0.16865 0.45255 0.0
C345 C 0.7778 0.17047 0.47102 0.0
C346 C 0.8338 0.20081 0.44849 0.0
C347 C 0.84519 0.23568 0.46333 0.0
C348 C 0.82253 0.23786 0.48198 0.0
C349 C 0.78908 0.20527 0.48559 0.0
C350 C 0.85718 0.19723 0.42842 0.0
C351 C 0.83375 0.27452 0.49817 0.0
C352 C 0.95278 0.29621 0.46167 0.0
C353 C 0.95121 0.32805 0.44833 0.0
C354 C 0.91837 0.26683 0.46735 0.0
C355 C 0.88142 0.26923 0.45945 0.0
C356 C 0.87951 0.30216 0.44664 0.0
C357 C 0.91443 0.33123 0.44126 0.0
C358 C 0.92169 0.23242 0.4812 0.0
C359 C 0.8407 0.30575 0.43787 0.0
H360 H 0.79238 0.14165 0.44139 0.0
H361 H 0.77155 0.2072 0.49975 0.0
H362 H 0.8595 0.22399 0.41838 0.0
H363 H 0.88752 0.1975 0.43328 0.0
H364 H 0.84376 0.16864 0.41818 0.0
H365 H 0.81279 0.27176 0.51171 0.0
H366 H 0.86357 0.27799 0.50518 0.0
H367 H 0.83487 0.30302 0.48983 0.0
H368 H 0.98108 0.29397 0.46747 0.0
H369 H 0.91302 0.35556 0.4308 0.0
H370 H 0.9118 0.20265 0.47152 0.0
H371 H 0.90227 0.23046 0.49539 0.0
H372 H 0.95228 0.23652 0.48727 0.0
H373 H 0.82769 0.27957 0.42598 0.0
H374 H 0.84391 0.33484 0.42964 0.0
H375 H 0.81963 0.3042 0.45125 0.0
C376 C 0.5113 0.59848 0.83195 0.0
C377 C 0.54466 0.58774 0.83924 0.0
C378 C 0.51272 0.63957 0.82865 0.0
C379 C 0.54862 0.67078 0.83229 0.0
C380 C 0.58208 0.66029 0.84027 0.0
C381 C 0.57962 0.619 0.84382 0.0
C382 C 0.47608 0.64923 0.8205 0.0
C383 C 0.62102 0.69247 0.84419 0.0
C384 C 0.56809 0.7658 0.7992 0.0
C385 C 0.56381 0.7962 0.81466 0.0
C386 C 0.56268 0.72495 0.80467 0.0
C387 C 0.55213 0.71372 0.82611 0.0
C388 C 0.54615 0.74377 0.8416 0.0
C389 C 0.55218 0.78464 0.83573 0.0
C390 C 0.56918 0.69398 0.78757 0.0
C391 C 0.53418 0.73289 0.86451 0.0
H392 H 0.484 0.57464 0.82857 0.0
H393 H 0.60556 0.61104 0.84938 0.0
H394 H 0.47191 0.67685 0.82953 0.0
H395 H 0.47912 0.65599 0.80303 0.0
H396 H 0.4493 0.62321 0.82213 0.0
H397 H 0.6436 0.67984 0.85161 0.0
H398 H 0.63204 0.70537 0.82849 0.0
H399 H 0.61733 0.71823 0.85507 0.0
H400 H 0.57612 0.77403 0.78273 0.0
H401 H 0.54895 0.80779 0.84786 0.0
H402 H 0.54229 0.66779 0.78526 0.0
H403 H 0.59324 0.68145 0.79307 0.0
H404 H 0.57693 0.70751 0.77158 0.0
H405 H 0.50737 0.70641 0.8641 0.0
H406 H 0.52831 0.75903 0.87422 0.0
H407 H 0.55782 0.72342 0.87294 0.0
C408 C 0.92032 0.56036 0.14184 0.0
C409 C 0.9319 0.5241 0.14358 0.0
C410 C 0.88012 0.55986 0.1407 0.0
C411 C 0.84993 0.52218 0.14112 0.0
C412 C 0.86141 0.4855 0.14299 0.0
C413 C 0.90183 0.4869 0.14426 0.0
C414 C 0.86993 0.59992 0.13894 0.0
C415 C 0.83088 0.44444 0.1434 0.0
C416 C 0.74388 0.52267 0.15587 0.0
C417 C 0.72462 0.5188 0.13533 0.0
C418 C 0.78424 0.52403 0.15798 0.0
C419 C 0.8066 0.52107 0.13918 0.0
C420 C 0.78734 0.51704 0.11843 0.0
C421 C 0.7471 0.5161 0.11678 0.0
C422 C 0.80303 0.52878 0.18048 0.0
C423 C 0.80923 0.51327 0.09784 0.0
H424 H 0.94278 0.58943 0.14132 0.0
H425 H 0.90983 0.4585 0.14556 0.0
H426 H 0.85334 0.59923 0.12344 0.0
H427 H 0.85062 0.60422 0.15244 0.0
H428 H 0.89645 0.62679 0.13948 0.0
H429 H 0.84422 0.41877 0.14536 0.0
H430 H 0.81057 0.44491 0.15697 0.0
H431 H 0.81296 0.43827 0.12802 0.0
H432 H 0.7275 0.52518 0.17042 0.0
H433 H 0.73298 0.51231 0.10078 0.0
H434 H 0.82841 0.55676 0.18186 0.0
H435 H 0.81455 0.50216 0.18327 0.0
H436 H 0.78211 0.53107 0.19351 0.0
H437 H 0.83493 0.54062 0.09684 0.0
H438 H 0.79039 0.51029 0.08293 0.0
H439 H 0.82068 0.48599 0.09812 0.0
C440 C 0.27088 0.78706 0.50863 0.0
C441 C 0.30988 0.78735 0.51324 0.0
C442 C 0.24332 0.75144 0.49969 0.0
C443 C 0.25501 0.71524 0.49519 0.0
C444 C 0.29405 0.71505 0.50029 0.0
C445 C 0.32093 0.75101 0.50928 0.0
C446 C 0.20196 0.75285 0.49453 0.0
C447 C 0.30771 0.67708 0.49581 0.0
C448 C 0.17963 0.61071 0.48641 0.0
C449 C 0.17835 0.60472 0.4636 0.0
C450 C 0.2036 0.64701 0.49692 0.0
C451 C 0.22705 0.67798 0.48433 0.0
C452 C 0.22516 0.67252 0.46129 0.0
C453 C 0.20082 0.63603 0.45121 0.0
C454 C 0.20452 0.65183 0.52151 0.0
C455 C 0.24982 0.70468 0.44726 0.0
H456 H 0.26217 0.81508 0.5114 0.0
H457 H 0.35079 0.75074 0.51314 0.0
H458 H 0.19617 0.74835 0.47666 0.0
H459 H 0.18036 0.72751 0.5022 0.0
H460 H 0.19684 0.78251 0.50025 0.0
H461 H 0.33868 0.68161 0.50133 0.0
H462 H 0.28867 0.65084 0.50413 0.0
H463 H 0.30522 0.66849 0.47806 0.0
H464 H 0.16201 0.58684 0.49607 0.0
H465 H 0.20044 0.63144 0.43361 0.0
H466 H 0.19817 0.68102 0.52689 0.0
H467 H 0.23434 0.65344 0.52792 0.0
H468 H 0.18293 0.62599 0.52887 0.0
H469 H 0.24443 0.7349 0.45126 0.0
H470 H 0.24358 0.69664 0.42957 0.0
H471 H 0.28147 0.70828 0.45066 0.0
C472 C 0.52583 0.30484 0.81983 0.0
C473 C 0.54488 0.33122 0.83742 0.0
C474 C 0.52828 0.26416 0.81729 0.0
C475 C 0.54958 0.24911 0.83297 0.0
C476 C 0.56771 0.27519 0.85116 0.0
C477 C 0.56553 0.316 0.85304 0.0
C478 C 0.50921 0.23774 0.79742 0.0
C479 C 0.59005 0.26019 0.86848 0.0
C480 C 0.53319 0.13294 0.83378 0.0
C481 C 0.56658 0.12795 0.82319 0.0
C482 C 0.52739 0.17222 0.83733 0.0
C483 C 0.55512 0.2071 0.8296 0.0
C484 C 0.58852 0.20195 0.81859 0.0
C485 C 0.59399 0.1626 0.81571 0.0
C486 C 0.49182 0.17647 0.84952 0.0
C487 C 0.6184 0.23803 0.80965 0.0
H488 H 0.50998 0.31638 0.80763 0.0
H489 H 0.58 0.33601 0.8668 0.0
H490 H 0.5321 0.22966 0.78734 0.0
H491 H 0.48895 0.20853 0.80237 0.0
H492 H 0.49245 0.25341 0.78717 0.0
H493 H 0.59967 0.28308 0.88248 0.0
H494 H 0.57149 0.23112 0.87462 0.0
H495 H 0.61644 0.25354 0.86137 0.0
H496 H 0.512 0.1062 0.8396 0.0
H497 H 0.61953 0.15876 0.80721 0.0
H498 H 0.47351 0.18997 0.83907 0.0
H499 H 0.50129 0.19778 0.86414 0.0
H500 H 0.47338 0.14652 0.85479 0.0
H501 H 0.60372 0.25367 0.79822 0.0
H502 H 0.64215 0.22867 0.80095 0.0
H503 H 0.63196 0.26082 0.82312 0.0
C504 C 0.51481 0.83437 0.52811 0.0
C505 C 0.54723 0.86487 0.521 0.0
C506 C 0.51727 0.79444 0.53144 0.0
C507 C 0.55305 0.78456 0.52767 0.0
C508 C 0.58549 0.81477 0.51985 0.0
C509 C 0.5822 0.85446 0.5166 0.0
C510 C 0.48189 0.76323 0.53968 0.0
C511 C 0.62418 0.80557 0.5156 0.0
C512 C 0.57709 0.70119 0.55967 0.0
C513 C 0.57013 0.66797 0.54409 0.0
C514 C 0.571 0.73888 0.55461 0.0
C515 C 0.55753 0.74375 0.53341 0.0
C516 C 0.54936 0.71001 0.51775 0.0
C517 C 0.55565 0.67248 0.52329 0.0
C518 C 0.5797 0.77379 0.5719 0.0
C519 C 0.5349 0.71388 0.49498 0.0
H520 H 0.4875 0.84179 0.53145 0.0
H521 H 0.60743 0.8776 0.51107 0.0
H522 H 0.47533 0.73423 0.52932 0.0
H523 H 0.48827 0.75581 0.55646 0.0
H524 H 0.45529 0.77452 0.53997 0.0
H525 H 0.64571 0.83138 0.50818 0.0
H526 H 0.6371 0.7994 0.53115 0.0
H527 H 0.61949 0.77755 0.50458 0.0
H528 H 0.5876 0.69777 0.5759 0.0
H529 H 0.55041 0.64708 0.51113 0.0
H530 H 0.55329 0.78483 0.57443 0.0
H531 H 0.60344 0.80001 0.56647 0.0
H532 H 0.58896 0.7647 0.58777 0.0
H533 H 0.5081 0.72471 0.49566 0.0
H534 H 0.52808 0.68432 0.48504 0.0
H535 H 0.55759 0.73716 0.48664 0.0
C536 C 0.80792 0.6538 0.87541 0.0
C537 C 0.8013 0.61338 0.88181 0.0
C538 C 0.84615 0.68062 0.87542 0.0
C539 C 0.87837 0.66658 0.88194 0.0
C540 C 0.87186 0.62572 0.88821 0.0
C541 C 0.83345 0.59966 0.88804 0.0
C542 C 0.85203 0.72401 0.86867 0.0
C543 C 0.90548 0.60948 0.89518 0.0
C544 C 0.98395 0.71521 0.867 0.0
C545 C 1.00025 0.73461 0.88704 0.0
C546 C 0.94363 0.69503 0.86464 0.0
C547 C 0.91907 0.69445 0.88272 0.0
C548 C 0.93481 0.71655 0.90248 0.0
C549 C 0.97523 0.73626 0.90442 0.0
C550 C 0.9279 0.67202 0.84325 0.0
C551 C 0.90955 0.71687 0.9221 0.0
H552 H 0.78314 0.66465 0.87071 0.0
H553 H 0.82862 0.56823 0.89259 0.0
H554 H 0.8652 0.74615 0.88249 0.0
H555 H 0.87289 0.73032 0.8551 0.0
H556 H 0.82403 0.72977 0.8634 0.0
H557 H 0.89542 0.5768 0.89934 0.0
H558 H 0.92696 0.61222 0.88194 0.0
H559 H 0.92121 0.62808 0.90964 0.0
H560 H 1.00301 0.71439 0.85339 0.0
H561 H 0.98753 0.75075 0.92005 0.0
H562 H 0.90031 0.67873 0.83814 0.0
H563 H 0.92085 0.63846 0.84529 0.0
H564 H 0.94943 0.67987 0.83004 0.0
H565 H 0.8818 0.7237 0.91742 0.0
H566 H 0.92492 0.73983 0.93516 0.0
H567 H 0.90155 0.68602 0.92885 0.0
C568 C 0.26236 0.80448 0.1494 0.0
C569 C 0.24201 0.7734 0.16263 0.0
C570 C 0.29888 0.83149 0.15621 0.0
C571 C 0.31539 0.82749 0.17678 0.0
C572 C 0.29481 0.79654 0.19031 0.0
C573 C 0.25853 0.76983 0.18305 0.0
C574 C 0.32001 0.86401 0.14129 0.0
C575 C 0.31139 0.79125 0.21238 0.0
C576 C 0.42554 0.86705 0.18812 0.0
C577 C 0.42866 0.90356 0.20081 0.0
C578 C 0.38905 0.84275 0.17961 0.0
C579 C 0.35464 0.85491 0.18405 0.0
C580 C 0.35761 0.89216 0.19638 0.0
C581 C 0.39457 0.91612 0.20451 0.0
C582 C 0.38718 0.80336 0.16642 0.0
C583 C 0.32159 0.90611 0.20153 0.0
H584 H 0.24964 0.80782 0.13372 0.0
H585 H 0.24345 0.7455 0.19323 0.0
H586 H 0.32582 0.89492 0.14973 0.0
H587 H 0.34892 0.85937 0.13708 0.0
H588 H 0.30293 0.86351 0.12596 0.0
H589 H 0.29109 0.7666 0.22123 0.0
H590 H 0.33969 0.78359 0.21042 0.0
H591 H 0.31755 0.82045 0.22256 0.0
H592 H 0.45148 0.85664 0.18541 0.0
H593 H 0.39668 0.94456 0.21398 0.0
H594 H 0.37139 0.80247 0.15062 0.0
H595 H 0.37044 0.77667 0.17532 0.0
H596 H 0.41685 0.79972 0.16312 0.0
H597 H 0.30509 0.90753 0.18627 0.0
H598 H 0.32905 0.93676 0.21044 0.0
H599 H 0.30164 0.88352 0.21165 0.0
C600 C 0.52058 0.1329 0.54434 0.0
C601 C 0.53605 0.11744 0.52589 0.0
C602 C 0.52344 0.17509 0.54741 0.0
C603 C 0.54152 0.20242 0.53144 0.0
C604 C 0.5559 0.18668 0.51242 0.0
C605 C 0.55336 0.14457 0.50999 0.0
C606 C 0.50839 0.19065 0.5681 0.0
C607 C 0.57479 0.21449 0.49481 0.0
C608 C 0.52614 0.30968 0.53178 0.0
C609 C 0.56179 0.33415 0.54117 0.0
C610 C 0.519 0.26675 0.5285 0.0
C611 C 0.54785 0.24778 0.53522 0.0
C612 C 0.58351 0.27238 0.54514 0.0
C613 C 0.59014 0.31516 0.54781 0.0
C614 C 0.48092 0.24177 0.51751 0.0
C615 C 0.61479 0.25352 0.55293 0.0
H616 H 0.50735 0.11223 0.55676 0.0
H617 H 0.56507 0.13288 0.49557 0.0
H618 H 0.53328 0.21179 0.5777 0.0
H619 H 0.48748 0.20843 0.56419 0.0
H620 H 0.49343 0.1653 0.57843 0.0
H621 H 0.58158 0.19704 0.48026 0.0
H622 H 0.55513 0.23286 0.48965 0.0
H623 H 0.60254 0.23643 0.50127 0.0
H624 H 0.50419 0.32425 0.5266 0.0
H625 H 0.61748 0.33386 0.55542 0.0
H626 H 0.46502 0.21763 0.52824 0.0
H627 H 0.48719 0.22594 0.50227 0.0
H628 H 0.46135 0.26101 0.51344 0.0
H629 H 0.60213 0.22951 0.56446 0.0
H630 H 0.64012 0.27667 0.56117 0.0
H631 H 0.62581 0.23834 0.53891 0.0
C632 C 0.30747 0.52873 0.81806 0.0
C633 C 0.33833 0.5373 0.80333 0.0
C634 C 0.28997 0.55913 0.82537 0.0
C635 C 0.30402 0.59934 0.81807 0.0
C636 C 0.33319 0.60757 0.80207 0.0
C637 C 0.34978 0.57633 0.79475 0.0
C638 C 0.25847 0.54891 0.84223 0.0
C639 C 0.34896 0.65003 0.79385 0.0
C640 C 0.24224 0.67022 0.83526 0.0
C641 C 0.26031 0.68682 0.8554 0.0
C642 C 0.25744 0.64339 0.82212 0.0
C643 C 0.29154 0.63333 0.82932 0.0
C644 C 0.31138 0.6524 0.8489 0.0
C645 C 0.29537 0.67874 0.86177 0.0
C646 C 0.23559 0.62377 0.80132 0.0
C647 C 0.34825 0.64307 0.85696 0.0
H648 H 0.29856 0.49902 0.82508 0.0
H649 H 0.37298 0.58308 0.78299 0.0
H650 H 0.27052 0.56429 0.85821 0.0
H651 H 0.23322 0.56042 0.83769 0.0
H652 H 0.24753 0.51531 0.84421 0.0
H653 H 0.36581 0.64962 0.77872 0.0
H654 H 0.32478 0.66401 0.79061 0.0
H655 H 0.36887 0.6701 0.80652 0.0
H656 H 0.21501 0.67636 0.83038 0.0
H657 H 0.30958 0.69204 0.87722 0.0
H658 H 0.22032 0.59105 0.8037 0.0
H659 H 0.25631 0.62444 0.78784 0.0
H660 H 0.21333 0.6393 0.79637 0.0
H661 H 0.34095 0.61077 0.86172 0.0
H662 H 0.36222 0.66354 0.87127 0.0
H663 H 0.36995 0.64639 0.8438 0.0
C664 C 0.83477 0.29489 0.17872 0.0
C665 C 0.87087 0.28535 0.17927 0.0
C666 C 0.8003 0.26736 0.1859 0.0
C667 C 0.80197 0.22939 0.19378 0.0
C668 C 0.83836 0.21977 0.19454 0.0
C669 C 0.87231 0.24786 0.18734 0.0
C670 C 0.76204 0.2787 0.18486 0.0
C671 C 0.84146 0.17967 0.20289 0.0
C672 C 0.72438 0.16844 0.23067 0.0
C673 C 0.70267 0.13657 0.21622 0.0
C674 C 0.75579 0.19983 0.22342 0.0
C675 C 0.7658 0.19935 0.20118 0.0
C676 C 0.74298 0.16824 0.18634 0.0
C677 C 0.71169 0.13724 0.19403 0.0
C678 C 0.7792 0.23262 0.23974 0.0
C679 C 0.75273 0.1666 0.1625 0.0
H680 H 0.83332 0.3236 0.17231 0.0
H681 H 0.90018 0.24053 0.1882 0.0
H682 H 0.74056 0.25595 0.17395 0.0
H683 H 0.74915 0.27782 0.20127 0.0
H684 H 0.76584 0.30979 0.17877 0.0
H685 H 0.87196 0.17685 0.2024 0.0
H686 H 0.8315 0.17697 0.21995 0.0
H687 H 0.82195 0.15346 0.19297 0.0
H688 H 0.71719 0.16845 0.24778 0.0
H689 H 0.69534 0.11252 0.1828 0.0
H690 H 0.78177 0.26361 0.23389 0.0
H691 H 0.80945 0.22956 0.24152 0.0
H692 H 0.76574 0.23056 0.25604 0.0
H693 H 0.75536 0.19676 0.15557 0.0
H694 H 0.73021 0.14257 0.15278 0.0
H695 H 0.78157 0.16001 0.16071 0.0
C696 C 0.1101 0.53335 0.07482 0.0
C697 C 0.07767 0.53782 0.08651 0.0
C698 C 0.12475 0.55886 0.05775 0.0
C699 C 0.1059 0.58878 0.05206 0.0
C700 C 0.0731 0.59327 0.06388 0.0
C701 C 0.05959 0.56794 0.08108 0.0
C702 C 0.16035 0.55387 0.04584 0.0
C703 C 0.05184 0.6244 0.05815 0.0
C704 C 0.15474 0.67922 0.01851 0.0
C705 C 0.13791 0.66548 0.9977 0.0
C706 C 0.14595 0.65391 0.03622 0.0
C707 C 0.11915 0.61426 0.03314 0.0
C708 C 0.1029 0.59981 0.01211 0.0
C709 C 0.11286 0.62534 0.99464 0.0
C710 C 0.16425 0.67019 0.05837 0.0
C711 C 0.07388 0.55789 0.00818 0.0
H712 H 0.12437 0.51037 0.07922 0.0
H713 H 1.03454 0.57143 0.09019 0.0
H714 H 0.15242 0.54452 0.02844 0.0
H715 H 0.18352 0.58368 0.04633 0.0
H716 H 0.17272 0.53055 0.05295 0.0
H717 H 1.02686 0.62401 0.06901 0.0
H718 H 0.0725 0.65575 0.05931 0.0
H719 H 1.04041 0.61809 0.04106 0.0
H720 H 0.17392 0.71019 0.02113 0.0
H721 H 0.10057 0.6139 0.97855 0.0
H722 H 0.17563 0.64686 0.06616 0.0
H723 H 0.14158 0.67694 0.06911 0.0
H724 H 0.18868 0.69881 0.05744 0.0
H725 H 0.08679 0.53375 0.0137 0.0
H726 H 0.06478 0.5508 0.99072 0.0
H727 H 1.04723 0.55627 0.01784 0.0
C728 C 0.4941 1.00121 0.4441 0.0
C729 C 0.51622 0.9845 0.45812 0.0
C730 C 0.50227 0.00366 0.42181 0.0
C731 C 0.53325 0.98896 0.41341 0.0
C732 C 0.55603 0.97262 0.42761 0.0
C733 C 0.54715 0.97048 0.44979 0.0
C734 C 0.47743 0.02143 0.40719 0.0
C735 C 0.58937 0.95675 0.41932 0.0
C736 C 0.52918 0.95471 0.35338 0.0
C737 C 0.5562 0.98818 0.3446 0.0
C738 C 0.52132 0.95471 0.37571 0.0
C739 C 0.54084 0.9891 0.38964 0.0
C740 C 0.56788 0.02319 0.38088 0.0
C741 C 0.57524 0.02233 0.35846 0.0
C742 C 0.49225 0.91778 0.38443 0.0
C743 C 0.58932 0.06036 0.39525 0.0
H744 H 0.47023 0.01217 0.45054 0.0
H745 H 0.56426 0.95745 0.46061 0.0
H746 H 0.49645 0.04713 0.39849 0.0
H747 H 0.46169 0.99765 0.39464 0.0
H748 H 0.45543 0.03291 0.41641 0.0
H749 H 0.60519 0.94648 0.43264 0.0
H750 H 0.57779 0.93048 0.40726 0.0
H751 H 0.61075 0.98104 0.41084 0.0
H752 H 0.51387 0.92851 0.34273 0.0
H753 H 0.59647 0.04812 0.35183 0.0
H754 H 0.46803 0.92727 0.39251 0.0
H755 H 0.50693 0.90426 0.39692 0.0
H756 H 0.47936 0.89363 0.37141 0.0
H757 H 0.56786 0.07346 0.40394 0.0
H758 H 0.6088 0.08471 0.38584 0.0
H759 H 0.60744 0.05124 0.40784 0.0
C760 C 0.54943 0.48582 0.77387 0.0
C761 C 0.58434 0.48304 0.78373 0.0
C762 C 0.54656 0.48915 0.75126 0.0
C763 C 0.5796 0.49005 0.7383 0.0
C764 C 0.61515 0.48788 0.7483 0.0
C765 C 0.61711 0.48452 0.77092 0.0
C766 C 0.50825 0.49175 0.74128 0.0
C767 C 0.65108 0.48887 0.73507 0.0
C768 C 0.5682 0.45971 0.67771 0.0
C769 C 0.58019 0.49809 0.66854 0.0
C770 C 0.56654 0.4567 0.70039 0.0
C771 C 0.5772 0.49294 0.71427 0.0
C772 C 0.58797 0.53182 0.70511 0.0
C773 C 0.58932 0.53393 0.68235 0.0
C774 C 0.55458 0.41469 0.70953 0.0
C775 C 0.59955 0.57117 0.71936 0.0
H776 H 0.52458 0.48614 0.78389 0.0
H777 H 0.64423 0.48267 0.77858 0.0
H778 H 0.51301 0.52088 0.73295 0.0
H779 H 0.49721 0.4662 0.72875 0.0
H780 H 0.48526 0.4903 0.75362 0.0
H781 H 0.67655 0.48731 0.74536 0.0
H782 H 0.64431 0.46263 0.72272 0.0
H783 H 0.65968 0.51746 0.72614 0.0
H784 H 0.56052 0.43192 0.6671 0.0
H785 H 0.59897 0.56367 0.67539 0.0
H786 H 0.53038 0.41262 0.72112 0.0
H787 H 0.57978 0.40962 0.71875 0.0
H788 H 0.5448 0.38965 0.69657 0.0
H789 H 0.57661 0.57145 0.73148 0.0
H790 H 0.60418 0.59886 0.70974 0.0
H791 H 0.62718 0.57314 0.72859 0.0
C792 C 0.53748 0.99845 0.58829 0.0
C793 C 0.57459 0.01247 0.57917 0.0
C794 C 0.53372 0.99386 0.61085 0.0
C795 C 0.56793 0.00369 0.62452 0.0
C796 C 0.60539 0.01888 0.61538 0.0
C797 C 0.60823 0.02307 0.59282 0.0
C798 C 0.4933 0.97773 0.61999 0.0
C799 C 0.64259 0.02989 0.62937 0.0
C800 C 0.56584 0.02491 0.68575 0.0
C801 C 0.57032 0.98835 0.69364 0.0
C802 C 0.56318 0.0297 0.66327 0.0
C803 C 0.56509 0.99717 0.6483 0.0
C804 C 0.5678 0.95952 0.65617 0.0
C805 C 0.57038 0.95557 0.67874 0.0
C806 C 0.56003 0.07021 0.65555 0.0
C807 C 0.56992 0.92408 0.64074 0.0
H808 H 0.51143 0.99046 0.57774 0.0
H809 H 0.63697 0.03402 0.58581 0.0
H810 H 0.49085 0.94796 0.62732 0.0
H811 H 0.48853 0.99936 0.63317 0.0
H812 H 0.46961 0.97311 0.60732 0.0
H813 H 0.6693 0.04238 0.61982 0.0
H814 H 0.64114 0.05307 0.64254 0.0
H815 H 0.64561 1.00225 0.6373 0.0
H816 H 0.5651 0.05013 0.69719 0.0
H817 H 0.57417 0.92736 0.68468 0.0
H818 H 0.53558 0.06508 0.64335 0.0
H819 H 0.58751 0.08594 0.64742 0.0
H820 H 0.55512 0.09095 0.66917 0.0
H821 H 0.54553 0.91719 0.62839 0.0
H822 H 0.56845 0.89577 0.64938 0.0
H823 H 0.59788 0.93257 0.63185 0.0
C824 C 0.48885 0.47942 0.91328 0.0
C825 C 0.51437 0.46403 0.90025 0.0
C826 C 0.49384 0.48355 0.93611 0.0
C827 C 0.52537 0.47243 0.94608 0.0
C828 C 0.55173 0.45774 0.93291 0.0
C829 C 0.5457 0.45338 0.91018 0.0
C830 C 0.46492 0.49901 0.94958 0.0
C831 C 0.58597 0.44601 0.94284 0.0
C832 C 0.55637 0.51237 0.00457 0.0
C833 C 0.53843 0.478 0.01629 0.0
C834 C 0.55252 0.51101 0.98171 0.0
C835 C 0.52985 0.47455 0.97033 0.0
C836 C 0.5115 0.43987 0.98211 0.0
C837 C 0.51614 0.44196 0.0049 0.0
C838 C 0.57293 0.54846 0.96972 0.0
C839 C 0.48678 0.40054 0.97063 0.0
H840 H 0.46457 0.48763 0.90566 0.0
H841 H 0.56542 0.4413 0.90017 0.0
H842 H 0.44946 0.475 0.9605 0.0
H843 H 0.48069 0.52635 0.9601 0.0
H844 H 0.44264 0.50739 0.93931 0.0
H845 H 0.60524 0.43776 0.93027 0.0
H846 H 0.60394 0.47178 0.95366 0.0
H847 H 0.57491 0.41938 0.95304 0.0
H848 H 0.57392 0.54017 0.01327 0.0
H849 H 0.50177 0.41549 0.01389 0.0
H850 H 0.55104 0.55886 0.96023 0.0
H851 H 0.5936 0.54061 0.95792 0.0
H852 H 0.58959 0.57436 0.98095 0.0
H853 H 0.46236 0.40674 0.96119 0.0
H854 H 0.47411 0.37651 0.98218 0.0
H855 H 0.50485 0.38831 0.95885 0.0
C856 C 0.08641 0.55617 0.22624 0.0
C857 C 0.06922 0.52911 0.20856 0.0
C858 C 0.08698 0.54226 0.24728 0.0
C859 C 0.06961 0.50025 0.2508 0.0
C860 C 0.05188 0.47276 0.23301 0.0
C861 C 0.05199 0.48756 0.21203 0.0
C862 C 0.10637 0.57258 0.26575 0.0
C863 C 1.03275 0.42784 0.23614 0.0
C864 C 0.10617 0.46401 0.3023 0.0
C865 C 0.07746 0.46772 0.31724 0.0
C866 C 0.10314 0.47281 0.28038 0.0
C867 C 0.07052 0.48551 0.27316 0.0
C868 C 1.04061 0.48769 0.28792 0.0
C869 C 1.04447 0.47886 0.30979 0.0
C870 C 0.13563 0.47004 0.26516 0.0
C871 C 1.00532 0.50103 0.28085 0.0
H872 H 0.09976 0.58835 0.22359 0.0
H873 H 1.03818 0.46679 0.19844 0.0
H874 H 0.08482 0.5734 0.27862 0.0
H875 H 0.13063 0.56273 0.27328 0.0
H876 H 0.11854 0.60419 0.26026 0.0
H877 H 1.01984 0.41064 0.22068 0.0
H878 H 0.05471 0.41351 0.24274 0.0
H879 H 1.00917 0.42458 0.24822 0.0
H880 H 0.13135 0.4546 0.30781 0.0
H881 H 1.02228 0.48211 0.32122 0.0
H882 H 0.15117 0.50118 0.26008 0.0
H883 H 0.1232 0.45094 0.25017 0.0
H884 H 0.15746 0.45673 0.27286 0.0
H885 H 1.01482 0.53386 0.277 0.0
H886 H 0.98287 0.49724 0.29365 0.0
H887 H 0.99148 0.48308 0.26579 0.0
loop_
_geom_bond_atom_site_label_1
_geom_bond_atom_site_label_2
_geom_bond_distance
_geom_bond_site_symmetry_2
_ccdc_geom_bond_type
Nd0 C2 2.836 . S
Nd0 O20 2.500 . S
Nd0 O21 2.492 . S
Nd0 O22 2.487 . S
Nd0 O23 2.682 . S
Nd0 O24 2.410 . S
Nd0 O29 2.414 . S
Nd0 O31 2.424 1_455 S
Nd1 C11 2.834 1_455 S
Nd1 O23 2.414 . S
Nd1 O25 2.427 . S
Nd1 O26 2.498 1_455 S
Nd1 O27 2.490 1_455 S
Nd1 O28 2.487 . S
Nd1 O29 2.682 . S
Nd1 O30 2.407 1_455 S
C2 Nd0 2.836 . S
C2 C3 1.498 . S
C2 O20 1.258 . S
C2 O21 1.239 . S
C3 C2 1.498 . S
C3 C4 1.366 . S
C3 C8 1.407 . S
C4 C3 1.366 . S
C4 C5 1.392 . S
C4 H32 0.930 . S
C5 C4 1.392 . S
C5 C6 1.398 . S
C5 H33 0.929 . S
C6 C5 1.398 . S
C6 C7 1.352 . S
C7 C6 1.352 . S
C7 C8 1.384 . S
C7 H34 0.930 . S
C8 C3 1.407 . S
C8 C7 1.384 . S
C8 H35 0.929 . S
C9 O22 1.241 . S
C9 O23 1.273 . S
C10 O24 1.251 . S
C10 O25 1.268 . S
C11 Nd1 2.834 1_655 S
C11 C12 1.498 . S
C11 O26 1.258 . S
C11 O27 1.239 . S
C12 C11 1.498 . S
C12 C13 1.366 . S
C12 C17 1.407 . S
C13 C12 1.366 . S
C13 C14 1.392 . S
C13 H36 0.930 . S
C14 C13 1.392 . S
C14 C15 1.398 . S
C14 H37 0.929 . S
C15 C14 1.398 . S
C15 C16 1.352 . S
C16 C15 1.352 . S
C16 C17 1.384 . S
C16 H38 0.930 . S
C17 C12 1.407 . S
C17 C16 1.384 . S
C17 H39 0.929 . S
C18 O28 1.241 . S
C18 O29 1.273 . S
C19 O30 1.251 . S
C19 O31 1.268 . S
O20 Nd0 2.500 . S
O20 C2 1.258 . S
O21 Nd0 2.492 . S
O21 C2 1.239 . S
O22 Nd0 2.487 . S
O22 C9 1.241 . S
O23 Nd0 2.682 . S
O23 Nd1 2.414 . S
O23 C9 1.273 . S
O24 Nd0 2.410 . S
O24 C10 1.251 . S
O25 Nd1 2.427 . S
O25 C10 1.268 . S
O26 Nd1 2.498 1_655 S
O26 C11 1.258 . S
O27 Nd1 2.490 1_655 S
O27 C11 1.239 . S
O28 Nd1 2.487 . S
O28 C18 1.241 . S
O29 Nd0 2.414 . S
O29 Nd1 2.682 . S
O29 C18 1.273 . S
O30 Nd1 2.407 1_655 S
O30 C19 1.251 . S
O31 Nd0 2.424 1_655 S
O31 C19 1.268 . S
H32 C4 0.930 . S
H33 C5 0.929 . S
H34 C7 0.930 . S
H35 C8 0.929 . S
H36 C13 0.930 . S
H37 C14 0.929 . S
H38 C16 0.930 . S
H39 C17 0.929 . S
Nd40 C42 2.815 1_545 S
Nd40 O60 2.480 1_545 S
Nd40 O61 2.475 1_545 S
Nd40 O62 2.487 1_545 S
Nd40 O63 2.684 . S
Nd40 O64 2.382 1_545 S
Nd40 O69 2.410 . S
Nd40 O71 2.453 . S
Nd41 C51 2.836 . S
Nd41 O63 2.414 . S
Nd41 O65 2.424 1_545 S
Nd41 O66 2.500 . S
Nd41 O67 2.492 . S
Nd41 O68 2.487 . S
Nd41 O69 2.682 . S
Nd41 O70 2.410 . S
C42 Nd40 2.815 1_565 S
C42 C43 1.498 . S
C42 O60 1.258 . S
C42 O61 1.239 . S
C43 C42 1.498 . S
C43 C44 1.366 . S
C43 C48 1.407 . S
C44 C43 1.366 . S
C44 C45 1.392 . S
C44 H72 0.930 . S
C45 C44 1.392 . S
C45 C46 1.398 . S
C45 H73 0.929 . S
C46 C45 1.398 . S
C46 C47 1.352 . S
C47 C46 1.352 . S
C47 C48 1.384 . S
C47 H74 0.930 . S
C48 C43 1.407 . S
C48 C47 1.384 . S
C48 H75 0.929 . S
C49 O62 1.241 1_545 S
C49 O63 1.273 . S
C50 O64 1.251 . S
C50 O65 1.268 . S
C51 Nd41 2.836 . S
C51 C52 1.498 . S
C51 O66 1.258 . S
C51 O67 1.239 . S
C52 C51 1.498 . S
C52 C53 1.366 . S
C52 C57 1.407 . S
C53 C52 1.366 . S
C53 C54 1.392 . S
C53 H76 0.930 . S
C54 C53 1.392 . S
C54 C55 1.398 . S
C54 H77 0.929 . S
C55 C54 1.398 . S
C55 C56 1.352 . S
C56 C55 1.352 . S
C56 C57 1.384 . S
C56 H78 0.930 . S
C57 C52 1.407 . S
C57 C56 1.384 . S
C57 H79 0.929 . S
C58 O68 1.241 . S
C58 O69 1.273 . S
C59 O70 1.251 . S
C59 O71 1.268 . S
O60 Nd40 2.480 1_565 S
O60 C42 1.258 . S
O61 Nd40 2.475 1_565 S
O61 C42 1.239 . S
O62 Nd40 2.487 1_565 S
O62 C49 1.241 1_565 S
O63 Nd40 2.684 . S
O63 Nd41 2.414 . S
O63 C49 1.273 . S
O64 Nd40 2.382 1_565 S
O64 C50 1.251 . S
O65 Nd41 2.424 1_565 S
O65 C50 1.268 . S
O66 Nd41 2.500 . S
O66 C51 1.258 . S
O67 Nd41 2.492 . S
O67 C51 1.239 . S
O68 Nd41 2.487 . S
O68 C58 1.241 . S
O69 Nd40 2.410 . S
O69 Nd41 2.682 . S
O69 C58 1.273 . S
O70 Nd41 2.410 . S
O70 C59 1.251 . S
O71 Nd40 2.453 . S
O71 C59 1.268 . S
H72 C44 0.930 . S
H73 C45 0.929 . S
H74 C47 0.930 . S
H75 C48 0.929 . S
H76 C53 0.930 . S
H77 C54 0.929 . S
H78 C56 0.930 . S
H79 C57 0.929 . S
Nd80 C82 2.836 . S
Nd80 O100 2.500 . S
Nd80 O101 2.492 . S
Nd80 O102 2.487 . S
Nd80 O103 2.682 . S
Nd80 O104 2.410 . S
Nd80 O109 2.414 . S
Nd80 O111 2.424 . S
Nd81 C91 2.836 . S
Nd81 O103 2.414 . S
Nd81 O105 2.424 . S
Nd81 O106 2.500 . S
Nd81 O107 2.492 . S
Nd81 O108 2.487 . S
Nd81 O109 2.682 . S
Nd81 O110 2.410 . S
C82 Nd80 2.836 . S
C82 C83 1.498 . S
C82 O100 1.258 . S
C82 O101 1.239 . S
C83 C82 1.498 . S
C83 C84 1.366 . S
C83 C88 1.407 . S
C84 C83 1.366 . S
C84 C85 1.392 . S
C84 H112 0.930 . S
C85 C84 1.392 . S
C85 C86 1.398 . S
C85 H113 0.929 . S
C86 C85 1.398 . S
C86 C87 1.352 . S
C87 C86 1.352 . S
C87 C88 1.384 . S
C87 H114 0.930 . S
C88 C83 1.407 . S
C88 C87 1.384 . S
C88 H115 0.929 . S
C89 O102 1.241 . S
C89 O103 1.273 . S
C90 O104 1.251 . S
C90 O105 1.268 . S
C91 Nd81 2.836 . S
C91 C92 1.498 . S
C91 O106 1.258 . S
C91 O107 1.239 . S
C92 C91 1.498 . S
C92 C93 1.366 . S
C92 C97 1.407 . S
C93 C92 1.366 . S
C93 C94 1.392 . S
C93 H116 0.930 . S
C94 C93 1.392 . S
C94 C95 1.398 . S
C94 H117 0.929 . S
C95 C94 1.398 . S
C95 C96 1.352 . S
C96 C95 1.352 . S
C96 C97 1.384 . S
C96 H118 0.930 . S
C97 C92 1.407 . S
C97 C96 1.384 . S
C97 H119 0.929 . S
C98 O108 1.241 . S
C98 O109 1.273 . S
C99 O110 1.251 . S
C99 O111 1.268 . S
O100 Nd80 2.500 . S
O100 C82 1.258 . S
O101 Nd80 2.492 . S
O101 C82 1.239 . S
O102 Nd80 2.487 . S
O102 C89 1.241 . S
O103 Nd80 2.682 . S
O103 Nd81 2.414 . S
O103 C89 1.273 . S
O104 Nd80 2.410 . S
O104 C90 1.251 . S
O105 Nd81 2.424 . S
O105 C90 1.268 . S
O106 Nd81 2.500 . S
O106 C91 1.258 . S
O107 Nd81 2.492 . S
O107 C91 1.239 . S
O108 Nd81 2.487 . S
O108 C98 1.241 . S
O109 Nd80 2.414 . S
O109 Nd81 2.682 . S
O109 C98 1.273 . S
O110 Nd81 2.410 . S
O110 C99 1.251 . S
O111 Nd80 2.424 . S
O111 C99 1.268 . S
H112 C84 0.930 . S
H113 C85 0.929 . S
H114 C87 0.930 . S
H115 C88 0.929 . S
H116 C93 0.930 . S
H117 C94 0.929 . S
H118 C96 0.930 . S
H119 C97 0.929 . S
P120 O131 1.490 . S
P120 C134 1.812 . S
P120 C140 1.803 1_565 S
P120 C146 1.819 1_565 S
H121 C135 0.941 . S
H122 C136 0.939 . S
H123 C138 0.940 . S
H124 C139 0.940 1_545 S
H125 C141 0.939 . S
H126 C142 0.942 . S
H127 C144 0.940 . S
H128 C145 0.939 . S
H129 C147 0.941 . S
H130 C151 0.939 . S
O131 P120 1.490 . S
H132 C148 0.939 . S
H133 C150 0.940 . S
C134 P120 1.812 . S
C134 C135 1.389 . S
C134 C139 1.391 . S
C135 H121 0.941 . S
C135 C134 1.389 . S
C135 C136 1.397 . S
C136 H122 0.939 . S
C136 C135 1.397 . S
C136 C137 1.378 . S
C137 C136 1.378 . S
C137 C138 1.378 . S
C138 H123 0.940 . S
C138 C137 1.378 . S
C138 C139 1.396 . S
C139 H124 0.940 1_565 S
C139 C134 1.391 . S
C139 C138 1.396 . S
C140 P120 1.803 1_545 S
C140 C141 1.378 . S
C140 C145 1.400 . S
C141 H125 0.939 . S
C141 C140 1.378 . S
C141 C142 1.361 . S
C142 H126 0.942 . S
C142 C141 1.361 . S
C142 C143 1.369 . S
C143 C142 1.369 . S
C143 C144 1.404 . S
C144 H127 0.940 . S
C144 C143 1.404 . S
C144 C145 1.389 . S
C145 H128 0.939 . S
C145 C140 1.400 . S
C145 C144 1.389 . S
C146 P120 1.819 1_545 S
C146 C147 1.391 1_545 S
C146 C151 1.391 . S
C147 H129 0.941 . S
C147 C146 1.391 1_565 S
C147 C148 1.396 . S
C148 H132 0.939 . S
C148 C147 1.396 . S
C148 C149 1.397 1_565 S
C149 C148 1.397 1_545 S
C149 C150 1.385 . S
C150 H133 0.940 . S
C150 C149 1.385 . S
C150 C151 1.388 . S
C151 H130 0.939 . S
C151 C146 1.391 . S
C151 C150 1.388 . S
P152 O163 1.490 . S
P152 C166 1.812 . S
P152 C172 1.803 . S
P152 C178 1.819 . S
H153 C167 0.941 . S
H154 C168 0.939 . S
H155 C170 0.940 . S
H156 C171 0.940 . S
H157 C173 0.939 . S
H158 C174 0.942 . S
H159 C176 0.940 . S
H160 C177 0.939 . S
H161 C179 0.941 . S
H162 C183 0.939 . S
O163 P152 1.490 . S
H164 C180 0.939 . S
H165 C182 0.940 . S
C166 P152 1.812 . S
C166 C167 1.389 . S
C166 C171 1.391 . S
C167 H153 0.941 . S
C167 C166 1.389 . S
C167 C168 1.397 . S
C168 H154 0.939 . S
C168 C167 1.397 . S
C168 C169 1.378 . S
C169 C168 1.378 . S
C169 C170 1.378 . S
C170 H155 0.940 . S
C170 C169 1.378 . S
C170 C171 1.396 . S
C171 H156 0.940 . S
C171 C166 1.391 . S
C171 C170 1.396 . S
C172 P152 1.803 . S
C172 C173 1.378 . S
C172 C177 1.400 . S
C173 H157 0.939 . S
C173 C172 1.378 . S
C173 C174 1.361 . S
C174 H158 0.942 . S
C174 C173 1.361 . S
C174 C175 1.369 . S
C175 C174 1.369 . S
C175 C176 1.404 . S
C176 H159 0.940 . S
C176 C175 1.404 . S
C176 C177 1.389 . S
C177 H160 0.939 . S
C177 C172 1.400 . S
C177 C176 1.389 . S
C178 P152 1.819 . S
C178 C179 1.391 . S
C178 C183 1.391 . S
C179 H161 0.941 . S
C179 C178 1.391 . S
C179 C180 1.396 . S
C180 H164 0.939 . S
C180 C179 1.396 . S
C180 C181 1.397 . S
C181 C180 1.397 . S
C181 C182 1.385 . S
C182 H165 0.940 . S
C182 C181 1.385 . S
C182 C183 1.388 . S
C183 H162 0.939 . S
C183 C178 1.391 . S
C183 C182 1.388 . S
P184 O195 1.490 . S
P184 C198 1.812 . S
P184 C204 1.803 . S
P184 C210 1.819 . S
H185 C199 0.941 . S
H186 C200 0.939 . S
H187 C202 0.940 . S
H188 C203 0.940 . S
H189 C205 0.939 . S
H190 C206 0.942 . S
H191 C208 0.940 . S
H192 C209 0.939 1_455 S
H193 C211 0.941 . S
H194 C215 0.939 1_655 S
O195 P184 1.490 . S
H196 C212 0.939 . S
H197 C214 0.940 1_655 S
C198 P184 1.812 . S
C198 C199 1.389 . S
C198 C203 1.391 . S
C199 H185 0.941 . S
C199 C198 1.389 . S
C199 C200 1.397 . S
C200 H186 0.939 . S
C200 C199 1.397 . S
C200 C201 1.378 . S
C201 C200 1.378 . S
C201 C202 1.378 . S
C202 H187 0.940 . S
C202 C201 1.378 . S
C202 C203 1.396 . S
C203 H188 0.940 . S
C203 C198 1.391 . S
C203 C202 1.396 . S
C204 P184 1.803 . S
C204 C205 1.378 1_455 S
C204 C209 1.400 1_455 S
C205 H189 0.939 . S
C205 C204 1.378 1_655 S
C205 C206 1.361 . S
C206 H190 0.942 . S
C206 C205 1.361 . S
C206 C207 1.369 . S
C207 C206 1.369 . S
C207 C208 1.404 . S
C208 H191 0.940 . S
C208 C207 1.404 . S
C208 C209 1.389 . S
C209 H192 0.939 1_655 S
C209 C204 1.400 1_655 S
C209 C208 1.389 . S
C210 P184 1.819 . S
C210 C211 1.391 . S
C210 C215 1.391 . S
C211 H193 0.941 . S
C211 C210 1.391 . S
C211 C212 1.396 . S
C212 H196 0.939 . S
C212 C211 1.396 . S
C212 C213 1.397 . S
C213 C212 1.397 . S
C213 C214 1.385 . S
C214 H197 0.940 1_455 S
C214 C213 1.385 . S
C214 C215 1.388 . S
C215 H194 0.939 1_455 S
C215 C210 1.391 . S
C215 C214 1.388 . S
P216 O227 1.490 . S
P216 C230 1.812 . S
P216 C236 1.803 1_455 S
P216 C242 1.819 . S
H217 C231 0.941 . S
H218 C232 0.939 . S
H219 C234 0.940 . S
H220 C235 0.940 . S
H221 C237 0.939 . S
H222 C238 0.942 . S
H223 C240 0.940 . S
H224 C241 0.939 . S
H225 C243 0.941 . S
H226 C247 0.939 . S
O227 P216 1.490 . S
H228 C244 0.939 . S
H229 C246 0.940 . S
C230 P216 1.812 . S
C230 C231 1.389 . S
C230 C235 1.391 . S
C231 H217 0.941 . S
C231 C230 1.389 . S
C231 C232 1.397 . S
C232 H218 0.939 . S
C232 C231 1.397 . S
C232 C233 1.378 . S
C233 C232 1.378 . S
C233 C234 1.378 . S
C234 H219 0.940 . S
C234 C233 1.378 . S
C234 C235 1.396 . S
C235 H220 0.940 . S
C235 C230 1.391 . S
C235 C234 1.396 . S
C236 P216 1.803 1_655 S
C236 C237 1.378 . S
C236 C241 1.400 . S
C237 H221 0.939 . S
C237 C236 1.378 . S
C237 C238 1.361 . S
C238 H222 0.942 . S
C238 C237 1.361 . S
C238 C239 1.369 . S
C239 C238 1.369 . S
C239 C240 1.404 . S
C240 H223 0.940 . S
C240 C239 1.404 . S
C240 C241 1.389 . S
C241 H224 0.939 . S
C241 C236 1.400 . S
C241 C240 1.389 . S
C242 P216 1.819 . S
C242 C243 1.391 . S
C242 C247 1.391 1_455 S
C243 H225 0.941 . S
C243 C242 1.391 . S
C243 C244 1.396 . S
C244 H228 0.939 . S
C244 C243 1.396 . S
C244 C245 1.397 . S
C245 C244 1.397 . S
C245 C246 1.385 1_455 S
C246 H229 0.940 . S
C246 C245 1.385 1_655 S
C246 C247 1.388 . S
C247 H226 0.939 . S
C247 C242 1.391 1_655 S
C247 C246 1.388 . S
P248 O259 1.490 . S
P248 C262 1.812 . S
P248 C268 1.803 1_545 S
P248 C274 1.819 . S
H249 C263 0.941 . S
H250 C264 0.939 . S
H251 C266 0.940 . S
H252 C267 0.940 . S
H253 C269 0.939 . S
H254 C270 0.942 . S
H255 C272 0.940 . S
H256 C273 0.939 . S
H257 C275 0.941 . S
H258 C279 0.939 . S
O259 P248 1.490 . S
H260 C276 0.939 . S
H261 C278 0.940 . S
C262 P248 1.812 . S
C262 C263 1.389 . S
C262 C267 1.391 . S
C263 H249 0.941 . S
C263 C262 1.389 . S
C263 C264 1.397 . S
C264 H250 0.939 . S
C264 C263 1.397 . S
C264 C265 1.378 . S
C265 C264 1.378 . S
C265 C266 1.378 . S
C266 H251 0.940 . S
C266 C265 1.378 . S
C266 C267 1.396 . S
C267 H252 0.940 . S
C267 C262 1.391 . S
C267 C266 1.396 . S
C268 P248 1.803 1_565 S
C268 C269 1.378 . S
C268 C273 1.400 . S
C269 H253 0.939 . S
C269 C268 1.378 . S
C269 C270 1.361 . S
C270 H254 0.942 . S
C270 C269 1.361 . S
C270 C271 1.369 . S
C271 C270 1.369 . S
C271 C272 1.404 . S
C272 H255 0.940 . S
C272 C271 1.404 . S
C272 C273 1.389 . S
C273 H256 0.939 . S
C273 C268 1.400 . S
C273 C272 1.389 . S
C274 P248 1.819 . S
C274 C275 1.391 . S
C274 C279 1.391 1_545 S
C275 H257 0.941 . S
C275 C274 1.391 . S
C275 C276 1.396 . S
C276 H260 0.939 . S
C276 C275 1.396 . S
C276 C277 1.397 . S
C277 C276 1.397 . S
C277 C278 1.385 1_545 S
C278 H261 0.940 . S
C278 C277 1.385 1_565 S
C278 C279 1.388 . S
C279 H258 0.939 . S
C279 C274 1.391 1_565 S
C279 C278 1.388 . S
P280 O291 1.490 . S
P280 C294 1.812 . S
P280 C300 1.803 . S
P280 C306 1.819 . S
H281 C295 0.941 . S
H282 C296 0.939 . S
H283 C298 0.940 . S
H284 C299 0.940 . S
H285 C301 0.939 . S
H286 C302 0.942 . S
H287 C304 0.940 . S
H288 C305 0.939 . S
H289 C307 0.941 . S
H290 C311 0.939 . S
O291 P280 1.490 . S
H292 C308 0.939 . S
H293 C310 0.940 . S
C294 P280 1.812 . S
C294 C295 1.389 . S
C294 C299 1.391 . S
C295 H281 0.941 . S
C295 C294 1.389 . S
C295 C296 1.397 . S
C296 H282 0.939 . S
C296 C295 1.397 . S
C296 C297 1.378 . S
C297 C296 1.378 . S
C297 C298 1.378 . S
C298 H283 0.940 . S
C298 C297 1.378 . S
C298 C299 1.396 . S
C299 H284 0.940 . S
C299 C294 1.391 . S
C299 C298 1.396 . S
C300 P280 1.803 . S
C300 C301 1.378 . S
C300 C305 1.400 . S
C301 H285 0.939 . S
C301 C300 1.378 . S
C301 C302 1.361 . S
C302 H286 0.942 . S
C302 C301 1.361 . S
C302 C303 1.369 . S
C303 C302 1.369 . S
C303 C304 1.404 . S
C304 H287 0.940 . S
C304 C303 1.404 . S
C304 C305 1.389 . S
C305 H288 0.939 . S
C305 C300 1.400 . S
C305 C304 1.389 . S
C306 P280 1.819 . S
C306 C307 1.391 . S
C306 C311 1.391 . S
C307 H289 0.941 . S
C307 C306 1.391 . S
C307 C308 1.396 . S
C308 H292 0.939 . S
C308 C307 1.396 . S
C308 C309 1.397 . S
C309 C308 1.397 . S
C309 C310 1.385 . S
C310 H293 0.940 . S
C310 C309 1.385 . S
C310 C311 1.388 . S
C311 H290 0.939 . S
C311 C306 1.391 . S
C311 C310 1.388 . S
C312 C313 1.391 . S
C312 C314 1.394 . S
C312 H328 0.931 . S
C313 C312 1.391 . S
C313 C317 1.376 . S
C314 C312 1.394 . S
C314 C315 1.369 . S
C314 C318 1.531 . S
C315 C314 1.369 . S
C315 C316 1.410 . S
C315 C323 1.503 . S
C316 C315 1.410 . S
C316 C317 1.392 . S
C316 C319 1.511 . S
C317 C313 1.376 . S
C317 C316 1.392 . S
C317 H329 0.929 . S
C318 C314 1.531 . S
C318 H330 0.960 . S
C318 H331 0.962 . S
C318 H332 0.960 . S
C319 C316 1.511 . S
C319 H333 0.961 . S
C319 H334 0.961 . S
C319 H335 0.961 . S
C320 C321 1.370 . S
C320 C322 1.363 . S
C320 H336 0.931 . S
C321 C320 1.370 . S
C321 C325 1.408 . S
C322 C320 1.363 . S
C322 C323 1.370 . S
C322 C326 1.524 . S
C323 C315 1.503 . S
C323 C322 1.370 . S
C323 C324 1.403 . S
C324 C323 1.403 . S
C324 C325 1.404 . S
C324 C327 1.539 . S
C325 C321 1.408 . S
C325 C324 1.404 . S
C325 H337 0.930 . S
C326 C322 1.524 . S
C326 H338 0.956 . S
C326 H339 0.961 . S
C326 H340 0.961 . S
C327 C324 1.539 . S
C327 H341 0.958 . S
C327 H342 0.961 . S
C327 H343 0.960 . S
H328 C312 0.931 . S
H329 C317 0.929 . S
H330 C318 0.960 . S
H331 C318 0.962 . S
H332 C318 0.960 . S
H333 C319 0.961 . S
H334 C319 0.961 . S
H335 C319 0.961 . S
H336 C320 0.931 . S
H337 C325 0.930 . S
H338 C326 0.956 . S
H339 C326 0.961 . S
H340 C326 0.961 . S
H341 C327 0.958 . S
H342 C327 0.961 . S
H343 C327 0.960 . S
C344 C345 1.391 . S
C344 C346 1.394 . S
C344 H360 0.931 . S
C345 C344 1.391 . S
C345 C349 1.376 . S
C346 C344 1.394 . S
C346 C347 1.369 . S
C346 C350 1.531 . S
C347 C346 1.369 . S
C347 C348 1.410 . S
C347 C355 1.503 . S
C348 C347 1.410 . S
C348 C349 1.392 . S
C348 C351 1.511 . S
C349 C345 1.376 . S
C349 C348 1.392 . S
C349 H361 0.929 . S
C350 C346 1.531 . S
C350 H362 0.960 . S
C350 H363 0.962 . S
C350 H364 0.960 . S
C351 C348 1.511 . S
C351 H365 0.961 . S
C351 H366 0.961 . S
C351 H367 0.961 . S
C352 C353 1.370 . S
C352 C354 1.363 . S
C352 H368 0.931 . S
C353 C352 1.370 . S
C353 C357 1.408 . S
C354 C352 1.363 . S
C354 C355 1.370 . S
C354 C358 1.524 . S
C355 C347 1.503 . S
C355 C354 1.370 . S
C355 C356 1.403 . S
C356 C355 1.403 . S
C356 C357 1.404 . S
C356 C359 1.539 . S
C357 C353 1.408 . S
C357 C356 1.404 . S
C357 H369 0.930 . S
C358 C354 1.524 . S
C358 H370 0.956 . S
C358 H371 0.961 . S
C358 H372 0.961 . S
C359 C356 1.539 . S
C359 H373 0.958 . S
C359 H374 0.961 . S
C359 H375 0.960 . S
H360 C344 0.931 . S
H361 C349 0.929 . S
H362 C350 0.960 . S
H363 C350 0.962 . S
H364 C350 0.960 . S
H365 C351 0.961 . S
H366 C351 0.961 . S
H367 C351 0.961 . S
H368 C352 0.931 . S
H369 C357 0.930 . S
H370 C358 0.956 . S
H371 C358 0.961 . S
H372 C358 0.961 . S
H373 C359 0.958 . S
H374 C359 0.961 . S
H375 C359 0.960 . S
C376 C377 1.391 . S
C376 C378 1.394 . S
C376 H392 0.931 . S
C377 C376 1.391 . S
C377 C381 1.376 . S
C378 C376 1.394 . S
C378 C379 1.369 . S
C378 C382 1.531 . S
C379 C378 1.369 . S
C379 C380 1.410 . S
C379 C387 1.503 . S
C380 C379 1.410 . S
C380 C381 1.392 . S
C380 C383 1.511 . S
C381 C377 1.376 . S
C381 C380 1.392 . S
C381 H393 0.929 . S
C382 C378 1.531 . S
C382 H394 0.960 . S
C382 H395 0.962 . S
C382 H396 0.960 . S
C383 C380 1.511 . S
C383 H397 0.961 . S
C383 H398 0.961 . S
C383 H399 0.961 . S
C384 C385 1.370 . S
C384 C386 1.363 . S
C384 H400 0.931 . S
C385 C384 1.370 . S
C385 C389 1.408 . S
C386 C384 1.363 . S
C386 C387 1.370 . S
C386 C390 1.524 . S
C387 C379 1.503 . S
C387 C386 1.370 . S
C387 C388 1.403 . S
C388 C387 1.403 . S
C388 C389 1.404 . S
C388 C391 1.539 . S
C389 C385 1.408 . S
C389 C388 1.404 . S
C389 H401 0.930 . S
C390 C386 1.524 . S
C390 H402 0.956 . S
C390 H403 0.961 . S
C390 H404 0.961 . S
C391 C388 1.539 . S
C391 H405 0.958 . S
C391 H406 0.961 . S
C391 H407 0.960 . S
H392 C376 0.931 . S
H393 C381 0.929 . S
H394 C382 0.960 . S
H395 C382 0.962 . S
H396 C382 0.960 . S
H397 C383 0.961 . S
H398 C383 0.961 . S
H399 C383 0.961 . S
H400 C384 0.931 . S
H401 C389 0.930 . S
H402 C390 0.956 . S
H403 C390 0.961 . S
H404 C390 0.961 . S
H405 C391 0.958 . S
H406 C391 0.961 . S
H407 C391 0.960 . S
C408 C409 1.391 . S
C408 C410 1.394 . S
C408 H424 0.931 . S
C409 C408 1.391 . S
C409 C413 1.376 . S
C410 C408 1.394 . S
C410 C411 1.369 . S
C410 C414 1.531 . S
C411 C410 1.369 . S
C411 C412 1.410 . S
C411 C419 1.503 . S
C412 C411 1.410 . S
C412 C413 1.392 . S
C412 C415 1.511 . S
C413 C409 1.376 . S
C413 C412 1.392 . S
C413 H425 0.929 . S
C414 C410 1.531 . S
C414 H426 0.960 . S
C414 H427 0.962 . S
C414 H428 0.960 . S
C415 C412 1.511 . S
C415 H429 0.961 . S
C415 H430 0.961 . S
C415 H431 0.961 . S
C416 C417 1.370 . S
C416 C418 1.363 . S
C416 H432 0.931 . S
C417 C416 1.370 . S
C417 C421 1.408 . S
C418 C416 1.363 . S
C418 C419 1.370 . S
C418 C422 1.524 . S
C419 C411 1.503 . S
C419 C418 1.370 . S
C419 C420 1.403 . S
C420 C419 1.403 . S
C420 C421 1.404 . S
C420 C423 1.539 . S
C421 C417 1.408 . S
C421 C420 1.404 . S
C421 H433 0.930 . S
C422 C418 1.524 . S
C422 H434 0.956 . S
C422 H435 0.961 . S
C422 H436 0.961 . S
C423 C420 1.539 . S
C423 H437 0.958 . S
C423 H438 0.961 . S
C423 H439 0.960 . S
H424 C408 0.931 . S
H425 C413 0.929 . S
H426 C414 0.960 . S
H427 C414 0.962 . S
H428 C414 0.960 . S
H429 C415 0.961 . S
H430 C415 0.961 . S
H431 C415 0.961 . S
H432 C416 0.931 . S
H433 C421 0.930 . S
H434 C422 0.956 . S
H435 C422 0.961 . S
H436 C422 0.961 . S
H437 C423 0.958 . S
H438 C423 0.961 . S
H439 C423 0.960 . S
C440 C441 1.391 . S
C440 C442 1.394 . S
C440 H456 0.931 . S
C441 C440 1.391 . S
C441 C445 1.376 . S
C442 C440 1.394 . S
C442 C443 1.369 . S
C442 C446 1.531 . S
C443 C442 1.369 . S
C443 C444 1.410 . S
C443 C451 1.503 . S
C444 C443 1.410 . S
C444 C445 1.392 . S
C444 C447 1.511 . S
C445 C441 1.376 . S
C445 C444 1.392 . S
C445 H457 0.929 . S
C446 C442 1.531 . S
C446 H458 0.960 . S
C446 H459 0.962 . S
C446 H460 0.960 . S
C447 C444 1.511 . S
C447 H461 0.961 . S
C447 H462 0.961 . S
C447 H463 0.961 . S
C448 C449 1.370 . S
C448 C450 1.363 . S
C448 H464 0.931 . S
C449 C448 1.370 . S
C449 C453 1.408 . S
C450 C448 1.363 . S
C450 C451 1.370 . S
C450 C454 1.524 . S
C451 C443 1.503 . S
C451 C450 1.370 . S
C451 C452 1.403 . S
C452 C451 1.403 . S
C452 C453 1.404 . S
C452 C455 1.539 . S
C453 C449 1.408 . S
C453 C452 1.404 . S
C453 H465 0.930 . S
C454 C450 1.524 . S
C454 H466 0.956 . S
C454 H467 0.961 . S
C454 H468 0.961 . S
C455 C452 1.539 . S
C455 H469 0.958 . S
C455 H470 0.961 . S
C455 H471 0.960 . S
H456 C440 0.931 . S
H457 C445 0.929 . S
H458 C446 0.960 . S
H459 C446 0.962 . S
H460 C446 0.960 . S
H461 C447 0.961 . S
H462 C447 0.961 . S
H463 C447 0.961 . S
H464 C448 0.931 . S
H465 C453 0.930 . S
H466 C454 0.956 . S
H467 C454 0.961 . S
H468 C454 0.961 . S
H469 C455 0.958 . S
H470 C455 0.961 . S
H471 C455 0.960 . S
C472 C473 1.391 . S
C472 C474 1.394 . S
C472 H488 0.931 . S
C473 C472 1.391 . S
C473 C477 1.376 . S
C474 C472 1.394 . S
C474 C475 1.369 . S
C474 C478 1.531 . S
C475 C474 1.369 . S
C475 C476 1.410 . S
C475 C483 1.503 . S
C476 C475 1.410 . S
C476 C477 1.392 . S
C476 C479 1.511 . S
C477 C473 1.376 . S
C477 C476 1.392 . S
C477 H489 0.929 . S
C478 C474 1.531 . S
C478 H490 0.960 . S
C478 H491 0.962 . S
C478 H492 0.960 . S
C479 C476 1.511 . S
C479 H493 0.961 . S
C479 H494 0.961 . S
C479 H495 0.961 . S
C480 C481 1.370 . S
C480 C482 1.363 . S
C480 H496 0.931 . S
C481 C480 1.370 . S
C481 C485 1.408 . S
C482 C480 1.363 . S
C482 C483 1.370 . S
C482 C486 1.524 . S
C483 C475 1.503 . S
C483 C482 1.370 . S
C483 C484 1.403 . S
C484 C483 1.403 . S
C484 C485 1.404 . S
C484 C487 1.539 . S
C485 C481 1.408 . S
C485 C484 1.404 . S
C485 H497 0.930 . S
C486 C482 1.524 . S
C486 H498 0.956 . S
C486 H499 0.961 . S
C486 H500 0.961 . S
C487 C484 1.539 . S
C487 H501 0.958 . S
C487 H502 0.961 . S
C487 H503 0.960 . S
H488 C472 0.931 . S
H489 C477 0.929 . S
H490 C478 0.960 . S
H491 C478 0.962 . S
H492 C478 0.960 . S
H493 C479 0.961 . S
H494 C479 0.961 . S
H495 C479 0.961 . S
H496 C480 0.931 . S
H497 C485 0.930 . S
H498 C486 0.956 . S
H499 C486 0.961 . S
H500 C486 0.961 . S
H501 C487 0.958 . S
H502 C487 0.961 . S
H503 C487 0.960 . S
C504 C505 1.391 . S
C504 C506 1.394 . S
C504 H520 0.931 . S
C505 C504 1.391 . S
C505 C509 1.376 . S
C506 C504 1.394 . S
C506 C507 1.369 . S
C506 C510 1.531 . S
C507 C506 1.369 . S
C507 C508 1.410 . S
C507 C515 1.503 . S
C508 C507 1.410 . S
C508 C509 1.392 . S
C508 C511 1.511 . S
C509 C505 1.376 . S
C509 C508 1.392 . S
C509 H521 0.929 . S
C510 C506 1.531 . S
C510 H522 0.960 . S
C510 H523 0.962 . S
C510 H524 0.960 . S
C511 C508 1.511 . S
C511 H525 0.961 . S
C511 H526 0.961 . S
C511 H527 0.961 . S
C512 C513 1.370 . S
C512 C514 1.363 . S
C512 H528 0.931 . S
C513 C512 1.370 . S
C513 C517 1.408 . S
C514 C512 1.363 . S
C514 C515 1.370 . S
C514 C518 1.524 . S
C515 C507 1.503 . S
C515 C514 1.370 . S
C515 C516 1.403 . S
C516 C515 1.403 . S
C516 C517 1.404 . S
C516 C519 1.539 . S
C517 C513 1.408 . S
C517 C516 1.404 . S
C517 H529 0.930 . S
C518 C514 1.524 . S
C518 H530 0.956 . S
C518 H531 0.961 . S
C518 H532 0.961 . S
C519 C516 1.539 . S
C519 H533 0.958 . S
C519 H534 0.961 . S
C519 H535 0.960 . S
H520 C504 0.931 . S
H521 C509 0.929 . S
H522 C510 0.960 . S
H523 C510 0.962 . S
H524 C510 0.960 . S
H525 C511 0.961 . S
H526 C511 0.961 . S
H527 C511 0.961 . S
H528 C512 0.931 . S
H529 C517 0.930 . S
H530 C518 0.956 . S
H531 C518 0.961 . S
H532 C518 0.961 . S
H533 C519 0.958 . S
H534 C519 0.961 . S
H535 C519 0.960 . S
C536 C537 1.391 . S
C536 C538 1.394 . S
C536 H552 0.931 . S
C537 C536 1.391 . S
C537 C541 1.376 . S
C538 C536 1.394 . S
C538 C539 1.369 . S
C538 C542 1.531 . S
C539 C538 1.369 . S
C539 C540 1.410 . S
C539 C547 1.503 . S
C540 C539 1.410 . S
C540 C541 1.392 . S
C540 C543 1.511 . S
C541 C537 1.376 . S
C541 C540 1.392 . S
C541 H553 0.929 . S
C542 C538 1.531 . S
C542 H554 0.960 . S
C542 H555 0.962 . S
C542 H556 0.960 . S
C543 C540 1.511 . S
C543 H557 0.961 . S
C543 H558 0.961 . S
C543 H559 0.961 . S
C544 C545 1.370 . S
C544 C546 1.363 . S
C544 H560 0.931 . S
C545 C544 1.370 . S
C545 C549 1.408 . S
C546 C544 1.363 . S
C546 C547 1.370 . S
C546 C550 1.524 . S
C547 C539 1.503 . S
C547 C546 1.370 . S
C547 C548 1.403 . S
C548 C547 1.403 . S
C548 C549 1.404 . S
C548 C551 1.539 . S
C549 C545 1.408 . S
C549 C548 1.404 . S
C549 H561 0.930 . S
C550 C546 1.524 . S
C550 H562 0.956 . S
C550 H563 0.961 . S
C550 H564 0.961 . S
C551 C548 1.539 . S
C551 H565 0.958 . S
C551 H566 0.961 . S
C551 H567 0.960 . S
H552 C536 0.931 . S
H553 C541 0.929 . S
H554 C542 0.960 . S
H555 C542 0.962 . S
H556 C542 0.960 . S
H557 C543 0.961 . S
H558 C543 0.961 . S
H559 C543 0.961 . S
H560 C544 0.931 . S
H561 C549 0.930 . S
H562 C550 0.956 . S
H563 C550 0.961 . S
H564 C550 0.961 . S
H565 C551 0.958 . S
H566 C551 0.961 . S
H567 C551 0.960 . S
C568 C569 1.391 . S
C568 C570 1.394 . S
C568 H584 0.931 . S
C569 C568 1.391 . S
C569 C573 1.376 . S
C570 C568 1.394 . S
C570 C571 1.369 . S
C570 C574 1.531 . S
C571 C570 1.369 . S
C571 C572 1.410 . S
C571 C579 1.503 . S
C572 C571 1.410 . S
C572 C573 1.392 . S
C572 C575 1.511 . S
C573 C569 1.376 . S
C573 C572 1.392 . S
C573 H585 0.929 . S
C574 C570 1.531 . S
C574 H586 0.960 . S
C574 H587 0.962 . S
C574 H588 0.960 . S
C575 C572 1.511 . S
C575 H589 0.961 . S
C575 H590 0.961 . S
C575 H591 0.961 . S
C576 C577 1.370 . S
C576 C578 1.363 . S
C576 H592 0.931 . S
C577 C576 1.370 . S
C577 C581 1.408 . S
C578 C576 1.363 . S
C578 C579 1.370 . S
C578 C582 1.524 . S
C579 C571 1.503 . S
C579 C578 1.370 . S
C579 C580 1.403 . S
C580 C579 1.403 . S
C580 C581 1.404 . S
C580 C583 1.539 . S
C581 C577 1.408 . S
C581 C580 1.404 . S
C581 H593 0.930 . S
C582 C578 1.524 . S
C582 H594 0.956 . S
C582 H595 0.961 . S
C582 H596 0.961 . S
C583 C580 1.539 . S
C583 H597 0.958 . S
C583 H598 0.961 . S
C583 H599 0.960 . S
H584 C568 0.931 . S
H585 C573 0.929 . S
H586 C574 0.960 . S
H587 C574 0.962 . S
H588 C574 0.960 . S
H589 C575 0.961 . S
H590 C575 0.961 . S
H591 C575 0.961 . S
H592 C576 0.931 . S
H593 C581 0.930 . S
H594 C582 0.956 . S
H595 C582 0.961 . S
H596 C582 0.961 . S
H597 C583 0.958 . S
H598 C583 0.961 . S
H599 C583 0.960 . S
C600 C601 1.391 . S
C600 C602 1.394 . S
C600 H616 0.931 . S
C601 C600 1.391 . S
C601 C605 1.376 . S
C602 C600 1.394 . S
C602 C603 1.369 . S
C602 C606 1.531 . S
C603 C602 1.369 . S
C603 C604 1.410 . S
C603 C611 1.503 . S
C604 C603 1.410 . S
C604 C605 1.392 . S
C604 C607 1.511 . S
C605 C601 1.376 . S
C605 C604 1.392 . S
C605 H617 0.929 . S
C606 C602 1.531 . S
C606 H618 0.960 . S
C606 H619 0.962 . S
C606 H620 0.960 . S
C607 C604 1.511 . S
C607 H621 0.961 . S
C607 H622 0.961 . S
C607 H623 0.961 . S
C608 C609 1.370 . S
C608 C610 1.363 . S
C608 H624 0.931 . S
C609 C608 1.370 . S
C609 C613 1.408 . S
C610 C608 1.363 . S
C610 C611 1.370 . S
C610 C614 1.524 . S
C611 C603 1.503 . S
C611 C610 1.370 . S
C611 C612 1.403 . S
C612 C611 1.403 . S
C612 C613 1.404 . S
C612 C615 1.539 . S
C613 C609 1.408 . S
C613 C612 1.404 . S
C613 H625 0.930 . S
C614 C610 1.524 . S
C614 H626 0.956 . S
C614 H627 0.961 . S
C614 H628 0.961 . S
C615 C612 1.539 . S
C615 H629 0.958 . S
C615 H630 0.961 . S
C615 H631 0.960 . S
H616 C600 0.931 . S
H617 C605 0.929 . S
H618 C606 0.960 . S
H619 C606 0.962 . S
H620 C606 0.960 . S
H621 C607 0.961 . S
H622 C607 0.961 . S
H623 C607 0.961 . S
H624 C608 0.931 . S
H625 C613 0.930 . S
H626 C614 0.956 . S
H627 C614 0.961 . S
H628 C614 0.961 . S
H629 C615 0.958 . S
H630 C615 0.961 . S
H631 C615 0.960 . S
C632 C633 1.391 . S
C632 C634 1.394 . S
C632 H648 0.931 . S
C633 C632 1.391 . S
C633 C637 1.376 . S
C634 C632 1.394 . S
C634 C635 1.369 . S
C634 C638 1.531 . S
C635 C634 1.369 . S
C635 C636 1.410 . S
C635 C643 1.503 . S
C636 C635 1.410 . S
C636 C637 1.392 . S
C636 C639 1.511 . S
C637 C633 1.376 . S
C637 C636 1.392 . S
C637 H649 0.929 . S
C638 C634 1.531 . S
C638 H650 0.960 . S
C638 H651 0.962 . S
C638 H652 0.960 . S
C639 C636 1.511 . S
C639 H653 0.961 . S
C639 H654 0.961 . S
C639 H655 0.961 . S
C640 C641 1.370 . S
C640 C642 1.363 . S
C640 H656 0.931 . S
C641 C640 1.370 . S
C641 C645 1.408 . S
C642 C640 1.363 . S
C642 C643 1.370 . S
C642 C646 1.524 . S
C643 C635 1.503 . S
C643 C642 1.370 . S
C643 C644 1.403 . S
C644 C643 1.403 . S
C644 C645 1.404 . S
C644 C647 1.539 . S
C645 C641 1.408 . S
C645 C644 1.404 . S
C645 H657 0.930 . S
C646 C642 1.524 . S
C646 H658 0.956 . S
C646 H659 0.961 . S
C646 H660 0.961 . S
C647 C644 1.539 . S
C647 H661 0.958 . S
C647 H662 0.961 . S
C647 H663 0.960 . S
H648 C632 0.931 . S
H649 C637 0.929 . S
H650 C638 0.960 . S
H651 C638 0.962 . S
H652 C638 0.960 . S
H653 C639 0.961 . S
H654 C639 0.961 . S
H655 C639 0.961 . S
H656 C640 0.931 . S
H657 C645 0.930 . S
H658 C646 0.956 . S
H659 C646 0.961 . S
H660 C646 0.961 . S
H661 C647 0.958 . S
H662 C647 0.961 . S
H663 C647 0.960 . S
C664 C665 1.391 . S
C664 C666 1.394 . S
C664 H680 0.931 . S
C665 C664 1.391 . S
C665 C669 1.376 . S
C666 C664 1.394 . S
C666 C667 1.369 . S
C666 C670 1.531 . S
C667 C666 1.369 . S
C667 C668 1.410 . S
C667 C675 1.503 . S
C668 C667 1.410 . S
C668 C669 1.392 . S
C668 C671 1.511 . S
C669 C665 1.376 . S
C669 C668 1.392 . S
C669 H681 0.929 . S
C670 C666 1.531 . S
C670 H682 0.960 . S
C670 H683 0.962 . S
C670 H684 0.960 . S
C671 C668 1.511 . S
C671 H685 0.961 . S
C671 H686 0.961 . S
C671 H687 0.961 . S
C672 C673 1.370 . S
C672 C674 1.363 . S
C672 H688 0.931 . S
C673 C672 1.370 . S
C673 C677 1.408 . S
C674 C672 1.363 . S
C674 C675 1.370 . S
C674 C678 1.524 . S
C675 C667 1.503 . S
C675 C674 1.370 . S
C675 C676 1.403 . S
C676 C675 1.403 . S
C676 C677 1.404 . S
C676 C679 1.539 . S
C677 C673 1.408 . S
C677 C676 1.404 . S
C677 H689 0.930 . S
C678 C674 1.524 . S
C678 H690 0.956 . S
C678 H691 0.961 . S
C678 H692 0.961 . S
C679 C676 1.539 . S
C679 H693 0.958 . S
C679 H694 0.961 . S
C679 H695 0.960 . S
H680 C664 0.931 . S
H681 C669 0.929 . S
H682 C670 0.960 . S
H683 C670 0.962 . S
H684 C670 0.960 . S
H685 C671 0.961 . S
H686 C671 0.961 . S
H687 C671 0.961 . S
H688 C672 0.931 . S
H689 C677 0.930 . S
H690 C678 0.956 . S
H691 C678 0.961 . S
H692 C678 0.961 . S
H693 C679 0.958 . S
H694 C679 0.961 . S
H695 C679 0.960 . S
C696 C697 1.391 . S
C696 C698 1.394 . S
C696 H712 0.931 . S
C697 C696 1.391 . S
C697 C701 1.376 . S
C698 C696 1.394 . S
C698 C699 1.369 . S
C698 C702 1.531 . S
C699 C698 1.369 . S
C699 C700 1.420 . S
C699 C707 1.503 . S
C700 C699 1.420 . S
C700 C701 1.393 . S
C700 C703 1.500 1_455 S
C701 C697 1.376 . S
C701 C700 1.393 . S
C701 H713 0.929 1_455 S
C702 C698 1.531 . S
C702 H714 0.960 . S
C702 H715 0.962 . S
C702 H716 0.960 . S
C703 C700 1.500 1_655 S
C703 H717 0.961 . S
C703 H718 0.961 . S
C703 H719 0.961 . S
C704 C705 1.370 1_554 S
C704 C706 1.363 . S
C704 H720 0.931 . S
C705 C704 1.370 1_556 S
C705 C709 1.408 . S
C706 C704 1.363 . S
C706 C707 1.370 . S
C706 C710 1.524 . S
C707 C699 1.503 . S
C707 C706 1.370 . S
C707 C708 1.403 . S
C708 C707 1.403 . S
C708 C709 1.404 1_554 S
C708 C711 1.539 1_455 S
C709 C705 1.408 . S
C709 C708 1.404 1_556 S
C709 H721 0.930 1_455 S
C710 C706 1.524 . S
C710 H722 0.956 . S
C710 H723 0.961 . S
C710 H724 0.961 . S
C711 C708 1.539 1_655 S
C711 H725 0.958 . S
C711 H726 0.961 . S
C711 H727 0.960 . S
H712 C696 0.931 . S
H713 C701 0.929 1_655 S
H714 C702 0.960 . S
H715 C702 0.962 . S
H716 C702 0.960 . S
H717 C703 0.961 . S
H718 C703 0.961 . S
H719 C703 0.961 . S
H720 C704 0.931 . S
H721 C709 0.930 1_655 S
H722 C710 0.956 . S
H723 C710 0.961 . S
H724 C710 0.961 . S
H725 C711 0.958 . S
H726 C711 0.961 . S
H727 C711 0.960 . S
C728 C729 1.391 . S
C728 C730 1.394 . S
C728 H744 0.931 . S
C729 C728 1.391 . S
C729 C733 1.376 . S
C730 C728 1.394 . S
C730 C731 1.369 . S
C730 C734 1.531 . S
C731 C730 1.369 . S
C731 C732 1.410 . S
C731 C739 1.503 . S
C732 C731 1.410 . S
C732 C733 1.392 . S
C732 C735 1.511 1_545 S
C733 C729 1.376 . S
C733 C732 1.392 . S
C733 H745 0.929 1_545 S
C734 C730 1.531 . S
C734 H746 0.960 . S
C734 H747 0.962 . S
C734 H748 0.960 . S
C735 C732 1.511 1_565 S
C735 H749 0.961 . S
C735 H750 0.961 . S
C735 H751 0.961 . S
C736 C737 1.370 . S
C736 C738 1.363 . S
C736 H752 0.931 1_545 S
C737 C736 1.370 . S
C737 C741 1.408 . S
C738 C736 1.363 . S
C738 C739 1.370 . S
C738 C742 1.524 1_545 S
C739 C731 1.503 . S
C739 C738 1.370 . S
C739 C740 1.403 . S
C740 C739 1.403 . S
C740 C741 1.404 . S
C740 C743 1.539 . S
C741 C737 1.408 . S
C741 C740 1.404 . S
C741 H753 0.930 . S
C742 C738 1.524 1_565 S
C742 H754 0.972 . S
C742 H755 0.961 . S
C742 H756 0.961 . S
C743 C740 1.539 . S
C743 H757 0.958 . S
C743 H758 0.961 . S
C743 H759 0.960 . S
H744 C728 0.931 . S
H745 C733 0.929 1_565 S
H746 C734 0.960 . S
H747 C734 0.962 . S
H748 C734 0.960 . S
H749 C735 0.961 . S
H750 C735 0.961 . S
H751 C735 0.961 . S
H752 C736 0.931 1_565 S
H753 C741 0.930 . S
H754 C742 0.972 . S
H755 C742 0.961 . S
H756 C742 0.961 . S
H757 C743 0.958 . S
H758 C743 0.961 . S
H759 C743 0.960 . S
C760 C761 1.391 . S
C760 C762 1.394 . S
C760 H776 0.931 . S
C761 C760 1.391 . S
C761 C765 1.376 . S
C762 C760 1.394 . S
C762 C763 1.369 . S
C762 C766 1.531 . S
C763 C762 1.369 . S
C763 C764 1.410 . S
C763 C771 1.503 . S
C764 C763 1.410 . S
C764 C765 1.392 . S
C764 C767 1.511 . S
C765 C761 1.376 . S
C765 C764 1.392 . S
C765 H777 0.929 . S
C766 C762 1.531 . S
C766 H778 0.960 . S
C766 H779 0.962 . S
C766 H780 0.960 . S
C767 C764 1.511 . S
C767 H781 0.961 . S
C767 H782 0.961 . S
C767 H783 0.961 . S
C768 C769 1.370 . S
C768 C770 1.363 . S
C768 H784 0.931 . S
C769 C768 1.370 . S
C769 C773 1.408 . S
C770 C768 1.363 . S
C770 C771 1.370 . S
C770 C774 1.524 . S
C771 C763 1.503 . S
C771 C770 1.370 . S
C771 C772 1.403 . S
C772 C771 1.403 . S
C772 C773 1.404 . S
C772 C775 1.539 . S
C773 C769 1.408 . S
C773 C772 1.404 . S
C773 H785 0.930 . S
C774 C770 1.524 . S
C774 H786 0.956 . S
C774 H787 0.961 . S
C774 H788 0.961 . S
C775 C772 1.539 . S
C775 H789 0.958 . S
C775 H790 0.961 . S
C775 H791 0.960 . S
H776 C760 0.931 . S
H777 C765 0.929 . S
H778 C766 0.960 . S
H779 C766 0.962 . S
H780 C766 0.960 . S
H781 C767 0.961 . S
H782 C767 0.961 . S
H783 C767 0.961 . S
H784 C768 0.931 . S
H785 C773 0.930 . S
H786 C774 0.956 . S
H787 C774 0.961 . S
H788 C774 0.961 . S
H789 C775 0.958 . S
H790 C775 0.961 . S
H791 C775 0.960 . S
C792 C793 1.391 1_565 S
C792 C794 1.394 . S
C792 H808 0.931 . S
C793 C792 1.391 1_545 S
C793 C797 1.376 . S
C794 C792 1.394 . S
C794 C795 1.369 1_565 S
C794 C798 1.531 . S
C795 C794 1.369 1_545 S
C795 C796 1.410 . S
C795 C803 1.503 . S
C796 C795 1.410 . S
C796 C797 1.392 . S
C796 C799 1.511 . S
C797 C793 1.376 . S
C797 C796 1.392 . S
C797 H809 0.929 . S
C798 C794 1.531 . S
C798 H810 0.960 . S
C798 H811 0.962 . S
C798 H812 0.960 . S
C799 C796 1.511 . S
C799 H813 0.961 . S
C799 H814 0.961 . S
C799 H815 0.961 . S
C800 C801 1.370 . S
C800 C802 1.363 . S
C800 H816 0.931 . S
C801 C800 1.370 . S
C801 C805 1.408 1_545 S
C802 C800 1.363 . S
C802 C803 1.370 . S
C802 C806 1.524 . S
C803 C795 1.503 . S
C803 C802 1.370 . S
C803 C804 1.403 1_545 S
C804 C803 1.403 1_565 S
C804 C805 1.404 . S
C804 C807 1.539 . S
C805 C801 1.408 1_565 S
C805 C804 1.404 . S
C805 H817 0.930 . S
C806 C802 1.524 . S
C806 H818 0.956 . S
C806 H819 0.961 . S
C806 H820 0.961 . S
C807 C804 1.539 . S
C807 H821 0.958 . S
C807 H822 0.961 . S
C807 H823 0.960 . S
H808 C792 0.931 . S
H809 C797 0.929 . S
H810 C798 0.960 . S
H811 C798 0.962 . S
H812 C798 0.960 . S
H813 C799 0.961 . S
H814 C799 0.961 . S
H815 C799 0.961 . S
H816 C800 0.931 . S
H817 C805 0.930 . S
H818 C806 0.956 . S
H819 C806 0.961 . S
H820 C806 0.961 . S
H821 C807 0.958 . S
H822 C807 0.961 . S
H823 C807 0.960 . S
C824 C825 1.391 . S
C824 C826 1.394 . S
C824 H840 0.931 . S
C825 C824 1.391 . S
C825 C829 1.376 . S
C826 C824 1.394 . S
C826 C827 1.369 . S
C826 C830 1.531 . S
C827 C826 1.369 . S
C827 C828 1.410 . S
C827 C835 1.503 . S
C828 C827 1.410 . S
C828 C829 1.392 . S
C828 C831 1.511 . S
C829 C825 1.376 . S
C829 C828 1.392 . S
C829 H841 0.929 . S
C830 C826 1.531 . S
C830 H842 0.960 . S
C830 H843 0.962 . S
C830 H844 0.960 . S
C831 C828 1.511 . S
C831 H845 0.961 . S
C831 H846 0.961 . S
C831 H847 0.961 . S
C832 C833 1.370 . S
C832 C834 1.363 1_554 S
C832 H848 0.931 . S
C833 C832 1.370 . S
C833 C837 1.430 . S
C834 C832 1.363 1_556 S
C834 C835 1.370 . S
C834 C838 1.524 . S
C835 C827 1.503 . S
C835 C834 1.370 . S
C835 C836 1.403 . S
C836 C835 1.403 . S
C836 C837 1.361 1_556 S
C836 C839 1.539 . S
C837 C833 1.430 . S
C837 C836 1.361 1_554 S
C837 H849 0.952 . S
C838 C834 1.524 . S
C838 H850 0.956 . S
C838 H851 0.961 . S
C838 H852 0.961 . S
C839 C836 1.539 . S
C839 H853 0.958 . S
C839 H854 0.961 . S
C839 H855 0.960 . S
H840 C824 0.931 . S
H841 C829 0.929 . S
H842 C830 0.960 . S
H843 C830 0.962 . S
H844 C830 0.960 . S
H845 C831 0.961 . S
H846 C831 0.961 . S
H847 C831 0.961 . S
H848 C832 0.931 . S
H849 C837 0.952 . S
H850 C838 0.956 . S
H851 C838 0.961 . S
H852 C838 0.961 . S
H853 C839 0.958 . S
H854 C839 0.961 . S
H855 C839 0.960 . S
C856 C857 1.391 . S
C856 C858 1.394 . S
C856 H872 0.931 . S
C857 C856 1.391 . S
C857 C861 1.376 1_455 S
C858 C856 1.394 . S
C858 C859 1.369 . S
C858 C862 1.531 . S
C859 C858 1.369 . S
C859 C860 1.410 1_455 S
C859 C867 1.503 . S
C860 C859 1.410 1_655 S
C860 C861 1.392 . S
C860 C863 1.511 . S
C861 C857 1.376 1_655 S
C861 C860 1.392 . S
C861 H873 0.929 . S
C862 C858 1.531 . S
C862 H874 0.960 . S
C862 H875 0.962 . S
C862 H876 0.960 . S
C863 C860 1.511 . S
C863 H877 0.961 . S
C863 H878 0.961 . S
C863 H879 0.961 . S
C864 C865 1.370 . S
C864 C866 1.363 . S
C864 H880 0.931 . S
C865 C864 1.370 . S
C865 C869 1.408 1_455 S
C866 C864 1.363 . S
C866 C867 1.370 . S
C866 C870 1.524 . S
C867 C859 1.503 . S
C867 C866 1.370 . S
C867 C868 1.403 1_455 S
C868 C867 1.403 1_655 S
C868 C869 1.404 . S
C868 C871 1.539 . S
C869 C865 1.408 1_655 S
C869 C868 1.404 . S
C869 H881 0.930 . S
C870 C866 1.524 . S
C870 H882 0.956 . S
C870 H883 0.961 . S
C870 H884 0.961 . S
C871 C868 1.539 . S
C871 H885 0.958 . S
C871 H886 0.961 . S
C871 H887 0.960 . S
H872 C856 0.931 . S
H873 C861 0.929 . S
H874 C862 0.960 . S
H875 C862 0.962 . S
H876 C862 0.960 . S
H877 C863 0.961 . S
H878 C863 0.961 . S
H879 C863 0.961 . S
H880 C864 0.931 . S
H881 C869 0.930 . S
H882 C870 0.956 . S
H883 C870 0.961 . S
H884 C870 0.961 . S
H885 C871 0.958 . S
H886 C871 0.961 . S
H887 C871 0.960 . S
C313 C10 3.057 . S
C321 C303 2.999 . S
C345 C55 1.236 . S
C353 C239 1.236 . S
C377 C90 1.872 . S
C385 C271 1.852 . S
C409 C19 2.965 . S
C417 C297 2.956 . S
C449 C233 1.278 . S
C441 C46 1.244 . S
C481 C265 1.944 . S
C473 C99 2.004 . S
C505 C50 1.881 . S
C513 C175 1.845 . S
C537 C95 0.527 . S
C545 C207 0.552 . S
C569 C6 1.279 . S
C577 C137 1.293 . S
C609 C169 1.909 . S
C601 C59 1.962 . S
C641 C201 0.447 . S
C633 C86 0.381 . S
C665 C15 1.277 . S
C673 C143 1.262 . S
C705 C213 1.109 . S
C697 C18 1.061 . S
C729 C49 1.475 . S
C737 C149 1.449 . S
C761 C98 1.309 . S
C769 C181 1.331 . S
C801 C277 1.349 . S
C793 C58 1.327 . S
C833 C309 1.736 . S
C825 C89 1.698 . S
C857 C9 1.437 . S
C865 C245 1.489 . S
