# Generated by pormake.
# Topology sqc, (4,8)-cn, num edge types: 1
# Building blocks:
#     Node 0, Type 0, BuildingBlock: GIZVER_clean_linker_0, # of connection points: 4
#     Node 1, Type 0, BuildingBlock: GIZVER_clean_linker_0, # of connection points: 4
#     Node 2, Type 0, BuildingBlock: GIZVER_clean_linker_0, # of connection points: 4
#     Node 3, Type 0, BuildingBlock: GIZVER_clean_linker_0, # of connection points: 4
#     Node 4, Type 0, BuildingBlock: GIZVER_clean_linker_0, # of connection points: 4
#     Node 5, Type 0, BuildingBlock: GIZVER_clean_linker_0, # of connection points: 4
#     Node 6, Type 0, BuildingBlock: GIZVER_clean_linker_0, # of connection points: 4
#     Node 7, Type 0, BuildingBlock: GIZVER_clean_linker_0, # of connection points: 4
#     Node 8, Type 1, BuildingBlock: TAGTUT_clean_sbu_3, # of connection points: 8
#     Node 9, Type 1, BuildingBlock: TAGTUT_clean_sbu_3, # of connection points: 8
#     Node 10, Type 1, BuildingBlock: TAGTUT_clean_sbu_3, # of connection points: 8
#     Node 11, Type 1, BuildingBlock: TAGTUT_clean_sbu_3, # of connection points: 8
#     Edge 12, Type (0, 1), BuildingBlock: XIVTED_clean_linker_0, # of connection points: 2
#     Edge 13, Type (0, 1), BuildingBlock: XIVTED_clean_linker_0, # of connection points: 2
#     Edge 14, Type (0, 1), BuildingBlock: XIVTED_clean_linker_0, # of connection points: 2
#     Edge 15, Type (0, 1), BuildingBlock: XIVTED_clean_linker_0, # of connection points: 2
#     Edge 16, Type (0, 1), BuildingBlock: XIVTED_clean_linker_0, # of connection points: 2
#     Edge 17, Type (0, 1), BuildingBlock: XIVTED_clean_linker_0, # of connection points: 2
#     Edge 18, Type (0, 1), BuildingBlock: XIVTED_clean_linker_0, # of connection points: 2
#     Edge 19, Type (0, 1), BuildingBlock: XIVTED_clean_linker_0, # of connection points: 2
#     Edge 20, Type (0, 1), BuildingBlock: XIVTED_clean_linker_0, # of connection points: 2
#     Edge 21, Type (0, 1), BuildingBlock: XIVTED_clean_linker_0, # of connection points: 2
#     Edge 22, Type (0, 1), BuildingBlock: XIVTED_clean_linker_0, # of connection points: 2
#     Edge 23, Type (0, 1), BuildingBlock: XIVTED_clean_linker_0, # of connection points: 2
#     Edge 24, Type (0, 1), BuildingBlock: XIVTED_clean_linker_0, # of connection points: 2
#     Edge 25, Type (0, 1), BuildingBlock: XIVTED_clean_linker_0, # of connection points: 2
#     Edge 26, Type (0, 1), BuildingBlock: XIVTED_clean_linker_0, # of connection points: 2
#     Edge 27, Type (0, 1), BuildingBlock: XIVTED_clean_linker_0, # of connection points: 2
#     Edge 28, Type (0, 1), BuildingBlock: XIVTED_clean_linker_0, # of connection points: 2
#     Edge 29, Type (0, 1), BuildingBlock: XIVTED_clean_linker_0, # of connection points: 2
#     Edge 30, Type (0, 1), BuildingBlock: XIVTED_clean_linker_0, # of connection points: 2
#     Edge 31, Type (0, 1), BuildingBlock: XIVTED_clean_linker_0, # of connection points: 2
#     Edge 32, Type (0, 1), BuildingBlock: XIVTED_clean_linker_0, # of connection points: 2
#     Edge 33, Type (0, 1), BuildingBlock: XIVTED_clean_linker_0, # of connection points: 2
#     Edge 34, Type (0, 1), BuildingBlock: XIVTED_clean_linker_0, # of connection points: 2
#     Edge 35, Type (0, 1), BuildingBlock: XIVTED_clean_linker_0, # of connection points: 2
#     Edge 36, Type (0, 1), BuildingBlock: XIVTED_clean_linker_0, # of connection points: 2
#     Edge 37, Type (0, 1), BuildingBlock: XIVTED_clean_linker_0, # of connection points: 2
#     Edge 38, Type (0, 1), BuildingBlock: XIVTED_clean_linker_0, # of connection points: 2
#     Edge 39, Type (0, 1), BuildingBlock: XIVTED_clean_linker_0, # of connection points: 2
#     Edge 40, Type (0, 1), BuildingBlock: XIVTED_clean_linker_0, # of connection points: 2
#     Edge 41, Type (0, 1), BuildingBlock: XIVTED_clean_linker_0, # of connection points: 2
#     Edge 42, Type (0, 1), BuildingBlock: XIVTED_clean_linker_0, # of connection points: 2
#     Edge 43, Type (0, 1), BuildingBlock: XIVTED_clean_linker_0, # of connection points: 2
# Relax obj value: 0.180
# Max RMSD: 0.272
# Mean RMSD: 0.223
data_MOF--net-sqc--node1-TAGTUT_clean_sbu_3--node2-GIZVER_clean_linker_0--edge1-XIVTED_clean_linker_0
_symmetry_space_group_name_H-M    P1
_symmetry_Int_Tables_number       1
_symmetry_cell_setting            triclinic
loop_
_symmetry_equiv_pos_as_xyz
'x, y, z'
_cell_length_a     24.313821
_cell_length_b     24.185083
_cell_length_c     74.141691
_cell_angle_alpha  90.198515
_cell_angle_beta   89.950737
_cell_angle_gamma 89.673916
loop_
_atom_site_label
_atom_site_type_symbol
_atom_site_fract_x
_atom_site_fract_y
_atom_site_fract_z
_atom_type_partial_charge
H0 H 1.00478 0.04827 0.42538 0.0
H1 H 1.00403 0.13347 0.47651 0.0
H2 H 0.86463 0.03731 0.4606 0.0
H3 H 0.07022 0.12172 0.43109 0.0
H4 H 0.06686 0.16135 0.4514 0.0
H5 H 0.12849 0.03917 0.42907 0.0
H6 H 0.24367 1.0111 0.47176 0.0
H7 H 0.1124 0.12889 0.47921 0.0
C8 C 0.98478 0.0578 0.43809 0.0
C9 C 0.93179 0.03745 0.44161 0.0
C10 C 1.01138 0.09212 0.45069 0.0
C11 C 0.98466 0.1056 0.46699 0.0
C12 C 0.93222 0.0845 0.47074 0.0
C13 C 0.90651 0.05043 0.45808 0.0
C14 C 0.06567 0.1184 0.44598 0.0
C15 C 0.11344 0.08591 0.45359 0.0
C16 C 0.1415 0.04668 0.44284 0.0
C17 C 0.18788 0.01899 0.44963 0.0
C18 C 0.20579 0.03026 0.46713 0.0
C19 C 0.17953 0.07024 0.47785 0.0
C20 C 0.13267 0.09741 0.47112 0.0
H21 H 0.53949 0.74958 0.71153 0.0
H22 H 0.46274 0.78717 0.76257 0.0
H23 H 0.40523 0.86581 0.71441 0.0
H24 H 0.58708 0.73352 0.74184 0.0
H25 H 0.5473 0.73564 0.7621 0.0
H26 H 0.57312 0.6582 0.71921 0.0
H27 H 0.50038 0.50894 0.73872 0.0
H28 H 0.48493 0.65869 0.76971 0.0
C29 C 0.50743 0.77018 0.71921 0.0
C30 C 0.47143 0.80713 0.7105 0.0
C31 C 0.50373 0.76163 0.73797 0.0
C32 C 0.46421 0.79132 0.74802 0.0
C33 C 0.42814 0.82826 0.73943 0.0
C34 C 0.43118 0.83484 0.72073 0.0
C35 C 0.54543 0.72545 0.74746 0.0
C36 C 0.53241 0.66492 0.74508 0.0
C37 C 0.55075 0.6365 0.7296 0.0
C38 C 0.53994 0.58009 0.72748 0.0
C39 C 0.51079 0.55204 0.74085 0.0
C40 C 0.49035 0.57977 0.75603 0.0
C41 C 0.50099 0.63659 0.75809 0.0
H42 H 0.72305 0.06247 0.0019 0.0
H43 H 0.73072 0.14518 0.95079 0.0
H44 H 0.84825 0.01773 0.96345 0.0
H45 H 0.67973 0.15771 -0.00336 0.0
H46 H 0.67155 0.18151 -0.02606 0.0
H47 H 0.62143 0.08587 0.00868 0.0
H48 H 0.4923 0.0192 -0.02403 0.0
H49 H 0.60957 0.13234 0.953 0.0
C50 C 0.74198 0.06716 -0.01123 0.0
C51 C 0.78729 0.03395 -0.01606 0.0
C52 C 0.72154 0.10736 -0.02312 0.0
C53 C 0.74626 0.11392 0.95994 0.0
C54 C 0.79166 0.08121 0.95492 0.0
C55 C 0.81142 0.04093 0.9669 0.0
C56 C 0.67401 0.14376 -0.01755 0.0
C57 C 0.62151 0.1116 -0.01916 0.0
C58 C 0.60097 0.08271 -0.00427 0.0
C59 C 0.55421 0.04968 -0.00601 0.0
C60 C 0.52827 0.04516 -0.02284 0.0
C61 C 0.54687 0.07567 0.96222 0.0
C62 C 0.59425 0.10826 0.9642 0.0
H63 H 0.18964 0.25133 0.21662 0.0
H64 H 0.22831 0.26508 0.27326 0.0
H65 H 0.24886 0.10987 0.24592 0.0
H66 H 0.15186 0.32829 0.23521 0.0
H67 H 0.17153 0.33629 0.25832 0.0
H68 H 0.19169 0.39326 0.21553 0.0
H69 H 0.34114 0.47658 0.22938 0.0
H70 H 0.2804 0.34688 0.2634 0.0
C71 C 0.20402 0.23274 0.22905 0.0
C72 C 0.21973 0.17674 0.22928 0.0
C73 C 0.20685 0.26497 0.24487 0.0
C74 C 0.22607 0.2408 0.26097 0.0
C75 C 0.24111 0.18481 0.26128 0.0
C76 C 0.2376 0.15331 0.2455 0.0
C77 C 0.187 0.32421 0.24473 0.0
C78 C 0.23245 0.36347 0.23956 0.0
C79 C 0.22734 0.39715 0.2242 0.0
C80 C 0.26712 0.43734 0.22036 0.0
C81 C 0.31233 0.44339 0.23186 0.0
C82 C 0.31719 0.41142 0.24755 0.0
C83 C 0.27753 0.37091 0.25114 0.0
H84 H 0.67102 0.2738 0.21533 0.0
H85 H 0.75009 0.26191 0.16332 0.0
H86 H 0.74636 0.41667 0.19146 0.0
H87 H 0.65472 0.19419 0.19589 0.0
H88 H 0.6825 0.19119 0.17362 0.0
H89 H 0.69101 0.13046 0.21634 0.0
H90 H 0.8459 0.04887 0.20645 0.0
H91 H 0.78984 0.17667 0.1709 0.0
C92 C 0.69422 0.29269 0.20451 0.0
C93 C 0.70591 0.34964 0.20517 0.0
C94 C 0.71042 0.26046 0.1895 0.0
C95 C 0.73904 0.2856 0.17522 0.0
C96 C 0.7514 0.34196 0.17594 0.0
C97 C 0.73534 0.3733 0.19092 0.0
C98 C 0.69286 0.20082 0.1879 0.0
C99 C 0.73756 0.16111 0.19387 0.0
C100 C 0.7292 0.12681 0.2089 0.0
C101 C 0.76769 0.08531 0.21344 0.0
C102 C 0.81593 0.08051 0.20315 0.0
C103 C 0.82378 0.11251 0.18763 0.0
C104 C 0.78473 0.15316 0.18317 0.0
H105 H 0.70975 0.76083 0.7094 0.0
H106 H 0.77083 0.7834 0.76356 0.0
H107 H 0.76725 0.62143 0.74013 0.0
H108 H 0.68632 0.84458 0.72672 0.0
H109 H 0.71075 0.85423 0.74921 0.0
H110 H 0.72423 0.90677 0.70603 0.0
H111 H 0.87725 0.98763 0.71646 0.0
H112 H 0.82234 0.8578 0.75156 0.0
C113 C 0.72718 0.74377 0.72164 0.0
C114 C 0.73795 0.68666 0.72282 0.0
C115 C 0.73889 0.77912 0.73629 0.0
C116 C 0.76206 0.7569 0.75212 0.0
C117 C 0.77247 0.7001 0.75336 0.0
C118 C 0.75975 0.66549 0.73886 0.0
C119 C 0.723 0.83952 0.73554 0.0
C120 C 0.76948 0.87575 0.72898 0.0
C121 C 0.76188 0.90962 0.7138 0.0
C122 C 0.80137 0.94917 0.70909 0.0
C123 C 0.84894 0.95453 0.71956 0.0
C124 C 0.85678 0.92232 0.73509 0.0
C125 C 0.81732 0.88208 0.73945 0.0
H126 H 0.51292 0.46911 0.00532 0.0
H127 H 0.52397 0.40702 0.95096 0.0
H128 H 0.38361 0.50302 -0.03276 0.0
H129 H 0.58237 0.40232 -0.00218 0.0
H130 H 0.57986 0.36737 -0.02335 0.0
H131 H 0.63675 0.48853 0.00145 0.0
H132 H 0.76659 0.51113 0.96314 0.0
H133 H 0.63693 0.39625 0.95155 0.0
C134 C 0.49656 0.46702 -0.00825 0.0
C135 C 0.44417 0.48934 -0.01198 0.0
C136 C 0.52646 0.43853 -0.0217 0.0
C137 C 0.50306 0.4319 0.96107 0.0
C138 C 0.45155 0.45541 0.95715 0.0
C139 C 0.42357 0.4855 -0.02958 0.0
C140 C 0.57956 0.40912 -0.01699 0.0
C141 C 0.62955 0.44078 -0.0232 0.0
C142 C 0.6543 0.48001 -0.01172 0.0
C143 C 0.70324 0.50613 -0.0169 0.0
C144 C 0.72703 0.49325 0.96645 0.0
C145 C 0.70413 0.45325 0.95505 0.0
C146 C 0.65469 0.42773 0.96016 0.0
H147 H 0.17554 0.56245 0.5061 0.0
H148 H 0.22662 0.65371 0.45945 0.0
H149 H 0.31926 0.51132 0.47635 0.0
H150 H 0.14579 0.66248 0.50022 0.0
H151 H 0.15732 0.6918 0.47845 0.0
H152 H 0.07136 0.60048 0.50518 0.0
H153 H 0.95694 0.56979 0.46203 0.0
H154 H 0.11085 0.64868 0.45097 0.0
C155 C 0.20339 0.56741 0.49481 0.0
C156 C 0.24803 0.53077 0.49257 0.0
C157 C 0.19527 0.61141 0.48273 0.0
C158 C 0.23201 0.6187 0.46837 0.0
C159 C 0.277 0.58286 0.46604 0.0
C160 C 0.28405 0.53853 0.47798 0.0
C161 C 0.14916 0.65231 0.48561 0.0
C162 C 0.09584 0.62856 0.47893 0.0
C163 C 0.05973 0.60328 0.49112 0.0
C164 C 1.00921 0.58181 0.48526 0.0
C165 C 0.9964 0.58434 0.4668 0.0
C166 C 0.03309 0.60736 0.45433 0.0
C167 C 0.08255 0.6302 0.46048 0.0
C168 C 0.17136 0.68543 0.12076 0.0
C169 C 0.97311 0.60865 0.10647 0.0
C170 C 0.99372 0.68409 0.05609 0.0
Mg171 Mg 0.23159 0.79464 0.10532 0.0
Mg172 Mg 0.16543 0.89758 0.08614 0.0
O173 O 0.17654 0.82131 0.08708 0.0
Mg174 Mg 0.11511 0.77045 0.093 0.0
O175 O 0.05819 0.71514 0.09926 0.0
Mg176 Mg 0.09175 0.6485 0.08709 0.0
Mg177 Mg 0.98487 0.73083 0.09372 0.0
C178 C 0.05936 0.8596 0.06474 0.0
O179 O 0.06796 0.83393 0.11049 0.0
O180 O 0.29409 0.8518 0.09049 0.0
O181 O 0.97883 0.81245 0.10589 0.0
O182 O 0.21253 0.86608 0.12596 0.0
O183 O 0.24575 0.91945 0.07678 0.0
O184 O 0.1573 0.9276 0.11271 0.0
O185 O 0.15933 0.70541 0.07529 0.0
O186 O 0.24431 0.72548 0.08516 0.0
C187 C 0.21156 0.69583 0.07569 0.0
C188 C 0.2913 0.89517 0.08053 0.0
O189 O 0.06489 0.80875 0.06947 0.0
O190 O 0.02216 0.59819 0.10084 0.0
O191 O 0.09123 0.89819 0.07029 0.0
O192 O 0.03349 0.65414 0.06199 0.0
O193 O 0.95117 0.65694 0.1054 0.0
O194 O 0.97381 0.72377 0.06538 0.0
O195 O 0.16454 0.7369 0.11697 0.0
O196 O 0.14697 0.64696 0.11194 0.0
C197 C 0.1835 0.91051 0.12645 0.0
C198 C 0.01631 0.84422 0.11225 0.0
C199 C 0.69703 0.83376 0.35489 0.0
C200 C 0.79221 0.6453 0.3517 0.0
C201 C 0.67185 0.60976 0.30916 0.0
Mg202 Mg 0.57324 0.87291 0.34674 0.0
Mg203 Mg 0.46854 0.78793 0.34295 0.0
O204 O 0.54018 0.80446 0.33587 0.0
Mg205 Mg 0.60224 0.75224 0.3407 0.0
O206 O 0.66819 0.70594 0.34552 0.0
Mg207 Mg 0.71713 0.73367 0.32582 0.0
Mg208 Mg 0.66604 0.62998 0.3499 0.0
C209 C 0.50301 0.67293 0.32516 0.0
O210 O 0.56207 0.71463 0.36587 0.0
O211 O 0.49833 0.92013 0.33505 0.0
O212 O 0.59961 0.62968 0.36949 0.0
O213 O 0.5233 0.86735 0.37352 0.0
O214 O 0.42901 0.85988 0.33132 0.0
O215 O 0.46264 0.79889 0.37134 0.0
O216 O 0.64325 0.78545 0.3149 0.0
O217 O 0.61894 0.8739 0.32024 0.0
C218 C 0.64302 0.837 0.31055 0.0
C219 C 0.44893 0.90882 0.33018 0.0
O220 O 0.55441 0.68505 0.32538 0.0
O221 O 0.78823 0.68475 0.34017 0.0
O222 O 0.46553 0.70443 0.33197 0.0
O223 O 0.69603 0.65664 0.30746 0.0
O224 O 0.75022 0.61904 0.35752 0.0
O225 O 0.65384 0.59296 0.32431 0.0
O226 O 0.64634 0.81979 0.35659 0.0
O227 O 0.73028 0.80707 0.34457 0.0
C228 C 0.48471 0.83798 0.38025 0.0
C229 C 0.56486 0.66761 0.37383 0.0
C230 C 0.68367 0.19259 0.61166 0.0
C231 C 0.50883 0.07747 0.6148 0.0
C232 C 0.45698 0.17715 0.5691 0.0
Mg233 Mg 0.70772 0.31455 0.59634 0.0
Mg234 Mg 0.61402 0.40688 0.58457 0.0
O235 O 0.63677 0.33334 0.58399 0.0
Mg236 Mg 0.59243 0.27083 0.59311 0.0
O237 O 0.55479 0.20425 0.6025 0.0
Mg238 Mg 0.5859 0.14935 0.58496 0.0
Mg239 Mg 0.48052 0.20187 0.60892 0.0
C240 C 0.50235 0.35238 0.57194 0.0
O241 O 0.55522 0.31939 0.61636 0.0
O242 O 0.74677 0.38503 0.57953 0.0
O243 O 0.47924 0.27552 0.62622 0.0
O244 O 0.69204 0.37779 0.62006 0.0
O245 O 0.67972 0.44004 0.56858 0.0
O246 O 0.62352 0.4338 0.6115 0.0
O247 O 0.62894 0.22061 0.56983 0.0
O248 O 0.71488 0.25392 0.57297 0.0
C249 C 0.68012 0.22171 0.56533 0.0
C250 C 0.73037 0.42559 0.56975 0.0
O251 O 0.51869 0.30318 0.57589 0.0
O252 O 0.54611 0.08134 0.60261 0.0
O253 O 0.53106 0.39571 0.57504 0.0
O254 O 0.5051 0.15508 0.56772 0.0
O255 O 0.47925 0.11893 0.61974 0.0
O256 O 0.44062 0.20167 0.58342 0.0
O257 O 0.6644 0.24222 0.61078 0.0
O258 O 0.66109 0.15225 0.60321 0.0
C259 C 0.65889 0.41834 0.6231 0.0
C260 C 0.51342 0.31581 0.62676 0.0
C261 C 0.21211 0.33322 0.85956 0.0
C262 C 0.29957 0.13756 0.85743 0.0
C263 C 0.22893 0.12713 0.80454 0.0
Mg264 Mg 0.09883 0.37891 0.84208 0.0
Mg265 Mg 1.00173 0.29779 0.8271 0.0
O266 O 0.07639 0.31508 0.82636 0.0
Mg267 Mg 0.13199 0.25976 0.83482 0.0
O268 O 0.19046 0.20925 0.84346 0.0
Mg269 Mg 0.25528 0.24119 0.83046 0.0
Mg270 Mg 0.18026 0.13262 0.84224 0.0
C271 C 0.04713 0.18622 0.80981 0.0
O272 O 0.07366 0.21734 0.85469 0.0
O273 O 0.03485 0.43145 0.82624 0.0
O274 O 0.09987 0.12773 0.85514 0.0
O275 O 0.03005 0.36506 0.86369 0.0
O276 O 0.97069 0.37319 0.8155 0.0
O277 O 0.97394 0.29852 0.85418 0.0
O278 O 0.19429 0.29991 0.81543 0.0
O279 O 0.16543 0.38713 0.82075 0.0
C280 C 0.19825 0.35261 0.81302 0.0
C281 C 0.99019 0.42203 0.8175 0.0
O282 O 0.09735 0.19711 0.81389 0.0
O283 O 0.30823 0.18225 0.84849 0.0
O284 O 1.0065 0.2175 0.81432 0.0
O285 O 0.25421 0.17204 0.80842 0.0
O286 O 0.25333 0.11232 0.85706 0.0
O287 O 0.19235 0.10717 0.81494 0.0
O288 O 0.16171 0.32127 0.85617 0.0
O289 O 0.25224 0.30715 0.85217 0.0
C290 C 0.98838 0.33364 0.86605 0.0
C291 C 0.06695 0.16705 0.85972 0.0
H292 H 0.21329 0.90945 0.45284 0.0
H293 H 0.48354 0.94357 0.39338 0.0
H294 H 0.24979 0.05483 0.42174 0.0
H295 H 0.41101 0.78308 0.40169 0.0
H296 H 0.40845 0.98543 0.41058 0.0
H297 H 0.29234 0.86197 0.43881 0.0
C298 C 0.23708 0.93063 0.44264 0.0
C299 C 0.22459 0.98552 0.43806 0.0
C300 C 0.40955 0.94094 0.40888 0.0
C301 C 0.31625 0.9331 0.42291 0.0
C302 C 0.45299 0.9168 0.39935 0.0
C303 C 0.45322 0.85971 0.39584 0.0
C304 C 0.36656 0.90772 0.41519 0.0
C305 C 0.41213 0.82734 0.4039 0.0
C306 C 0.28244 0.90395 0.43487 0.0
C307 C 0.25747 1.01205 0.42526 0.0
N308 N 0.36998 0.85187 0.41304 0.0
N309 N 0.30226 0.98582 0.41828 0.0
H310 H 0.56907 0.82963 0.69358 0.0
H311 H 0.58249 0.99137 0.61659 0.0
H312 H 0.3938 0.82702 0.68449 0.0
H313 H 0.42154 0.04251 0.63505 0.0
H314 H 0.57624 0.90917 0.63563 0.0
H315 H 0.58027 0.88337 0.66607 0.0
C316 C 0.53311 0.83849 0.68545 0.0
C317 C 0.48028 0.82456 0.69152 0.0
C318 C 0.54231 0.93833 0.63546 0.0
C319 C 0.49271 0.88687 0.66013 0.0
C320 C 0.54557 0.98505 0.62449 0.0
C321 C 0.5028 0.0244 0.62447 0.0
C322 C 0.49576 0.93081 0.64636 0.0
C323 C 0.45586 1.0138 0.63488 0.0
C324 C 0.53953 0.86944 0.66971 0.0
C325 C 0.43517 0.83799 0.68051 0.0
N326 N 0.45371 0.96812 0.64546 0.0
N327 N 0.44225 0.86967 0.66562 0.0
H328 H 0.58458 0.08688 0.9271 0.0
H329 H 0.28826 0.05819 0.88323 0.0
H330 H 0.4349 0.06758 0.95799 0.0
H331 H 0.40713 0.17157 0.8611 0.0
H332 H 0.35267 0.03562 0.90725 0.0
H333 H 0.52886 0.09553 0.8997 0.0
C334 C 0.54029 0.08424 0.92823 0.0
C335 C 0.51472 0.07649 0.94508 0.0
C336 C 0.3648 0.06492 0.89699 0.0
C337 C 0.45143 0.08423 0.91365 0.0
C338 C 0.32822 0.07775 0.8832 0.0
C339 C 0.34193 0.11756 0.87022 0.0
C340 C 0.41582 0.0914 0.89774 0.0
C341 C 0.39459 0.14116 0.87094 0.0
C342 C 0.50873 0.08881 0.91254 0.0
C343 C 0.45707 0.07212 0.94544 0.0
N344 N 0.42968 0.12795 0.88458 0.0
N345 N 0.42755 0.07588 0.92999 0.0
H346 H 0.29484 0.10026 0.21752 0.0
H347 H 0.12199 1.00356 0.13237 0.0
H348 H 0.13688 0.17145 0.20418 0.0
H349 H 0.24787 0.9019 0.15685 0.0
H350 H 0.13027 0.06927 0.15709 0.0
H351 H 0.28344 0.03292 0.19327 0.0
C352 C 0.25776 0.10182 0.20944 0.0
C353 C 0.21638 0.14113 0.21302 0.0
C354 C 0.15576 0.03239 0.15714 0.0
C355 C 0.20338 0.06435 0.18515 0.0
C356 C 0.15096 0.99457 0.14306 0.0
C357 C 0.18412 0.94677 0.14255 0.0
C358 C 0.19486 0.02314 0.17067 0.0
C359 C 0.22125 0.93793 0.15673 0.0
C360 C 0.25129 0.06327 0.19564 0.0
C361 C 0.16988 0.14206 0.20184 0.0
N362 N 0.22601 0.97609 0.17014 0.0
N363 N 0.16454 0.10403 0.18841 0.0
H364 H 0.22692 1.00538 0.50372 0.0
H365 H 0.36561 0.23958 0.56176 0.0
H366 H 0.19729 0.17621 0.48986 0.0
H367 H 0.45346 0.093 0.54454 0.0
H368 H 0.29097 0.21624 0.54087 0.0
H369 H 0.29472 0.03524 0.52597 0.0
C370 C 0.23383 0.04923 0.50562 0.0
C371 C 0.20726 0.08831 0.49466 0.0
C372 C 0.3269 0.18966 0.54161 0.0
C373 C 0.2842 0.12245 0.52014 0.0
C374 C 0.3696 0.20301 0.55338 0.0
C375 C 0.41606 0.1684 0.55472 0.0
C376 C 0.32995 0.14038 0.5317 0.0
C377 C 0.41874 0.12112 0.54378 0.0
C378 C 0.27271 0.06609 0.5182 0.0
C379 C 0.21687 0.14468 0.498 0.0
N380 N 0.3758 0.10799 0.53291 0.0
N381 N 0.25508 0.16019 0.51039 0.0
H382 H 0.31683 0.84418 0.7371 0.0
H383 H 0.3302 0.13232 0.78873 0.0
H384 H 0.46192 0.90365 0.76411 0.0
H385 H 0.18069 0.03672 0.78863 0.0
H386 H 0.3764 0.05767 0.77236 0.0
H387 H 0.26369 0.92112 0.75045 0.0
C388 C 0.33709 0.87289 0.74612 0.0
C389 C 0.39346 0.86733 0.74981 0.0
C390 C 0.33325 0.05347 0.77572 0.0
C391 C 0.33407 0.95613 0.76427 0.0
C392 C 0.30654 0.0964 0.78482 0.0
C393 C 0.25158 0.09054 0.79028 0.0
C394 C 0.30466 1.00472 0.77176 0.0
C395 C 0.22327 0.04272 0.78486 0.0
C396 C 0.30701 0.91682 0.75357 0.0
C397 C 0.4183 0.90603 0.76125 0.0
N398 N 0.25027 1.00133 0.776 0.0
N399 N 0.38858 0.94921 0.76791 0.0
H400 H 0.52623 0.09983 0.02557 0.0
H401 H 0.3786 0.83561 0.06748 0.0
H402 H 0.5241 0.94167 -0.00145 0.0
H403 H 0.31728 1.0023 0.07375 0.0
H404 H 0.45445 0.87111 0.04894 0.0
H405 H 0.47212 0.06036 0.05025 0.0
C406 C 0.51538 0.05646 0.02506 0.0
C407 C 0.52912 0.0239 0.01003 0.0
C408 C 0.42482 0.89981 0.05468 0.0
C409 C 0.46775 0.97878 0.03806 0.0
C410 C 0.3819 0.87974 0.0653 0.0
C411 C 0.34162 0.91619 0.07197 0.0
C412 C 0.42785 0.95667 0.05113 0.0
C413 C 0.34732 0.9729 0.06868 0.0
C414 C 0.48437 0.03415 0.03905 0.0
C415 C 0.51373 0.9681 0.00988 0.0
N416 N 0.38961 0.99145 0.05844 0.0
N417 N 0.48355 0.94723 0.02369 0.0
H418 H 0.33449 0.20879 0.28002 0.0
H419 H 0.33932 0.90528 0.32159 0.0
H420 H 0.19746 0.09675 0.27858 0.0
H421 H 0.4777 0.01638 0.32351 0.0
H422 H 0.28256 0.9802 0.30976 0.0
H423 H 0.38231 0.1458 0.30072 0.0
C424 C 0.31379 0.17185 0.28461 0.0
C425 C 0.2623 0.15753 0.27763 0.0
C426 C 0.32526 0.98834 0.31288 0.0
C427 C 0.31688 0.08478 0.30069 0.0
C428 C 0.35783 0.94541 0.31955 0.0
C429 C 0.41363 0.95422 0.32334 0.0
C430 C 0.34862 0.04051 0.30985 0.0
C431 C 0.43503 1.00743 0.32063 0.0
C432 C 0.34124 0.13559 0.29622 0.0
C433 C 0.23732 0.10893 0.28369 0.0
N434 N 0.40262 0.0484 0.3139 0.0
N435 N 0.26519 0.07386 0.29466 0.0
H436 H 0.90879 0.19014 0.48096 0.0
H437 H 0.71323 0.11404 0.56309 0.0
H438 H 0.87954 0.02041 0.49553 0.0
H439 H 0.69963 0.2651 0.53281 0.0
H440 H 0.7772 0.07745 0.54014 0.0
H441 H 0.8396 0.21945 0.50307 0.0
C442 C 0.88872 0.15922 0.48916 0.0
C443 C 0.89989 0.10292 0.48656 0.0
C444 C 0.75903 0.11802 0.5383 0.0
C445 C 0.8199 0.13576 0.51145 0.0
C446 C 0.72194 0.13838 0.55119 0.0
C447 C 0.70047 0.19194 0.54948 0.0
C448 C 0.77544 0.15232 0.52402 0.0
C449 C 0.71461 0.22309 0.53431 0.0
C450 C 0.84861 0.17579 0.50153 0.0
C451 C 0.87198 0.06428 0.49725 0.0
N452 N 0.75182 0.20316 0.52228 0.0
N453 N 0.83312 0.08138 0.50925 0.0
H454 H 0.79655 0.97434 0.21408 0.0
H455 H 0.58267 0.8945 0.28705 0.0
H456 H 0.70864 0.0987 0.24497 0.0
H457 H 0.74528 0.82624 0.29448 0.0
H458 H 0.6174 0.95194 0.26264 0.0
H459 H 0.7705 0.9053 0.23641 0.0
C460 C 0.7727 0.98776 0.22563 0.0
C461 C 0.75503 0.04321 0.22754 0.0
C462 C 0.64519 0.92353 0.26937 0.0
C463 C 0.7231 0.96307 0.25251 0.0
C464 C 0.62546 0.89038 0.28311 0.0
C465 C 0.66137 0.85592 0.29276 0.0
C466 C 0.7011 0.92178 0.26506 0.0
C467 C 0.71641 0.8521 0.28721 0.0
C468 C 0.75758 0.94789 0.23825 0.0
C469 C 0.72245 0.05671 0.24258 0.0
N470 N 0.73503 0.88534 0.27369 0.0
N471 N 0.70689 0.01677 0.25432 0.0
H472 H 0.83256 0.93037 -0.02129 0.0
H473 H 0.99761 0.95039 0.07051 0.0
H474 H 0.80436 0.05449 0.01973 0.0
H475 H 1.0101 0.80736 0.03583 0.0
H476 H 0.9207 0.98401 0.05276 0.0
H477 H 0.8909 0.87924 -8e-05 0.0
C478 C 0.83797 0.94645 -0.00776 0.0
C479 C 0.81407 0.99721 -0.00264 0.0
C480 C 0.93976 0.94508 0.04899 0.0
C481 C 0.88056 0.93905 0.0216 0.0
C482 C 0.98401 0.9261 0.05905 0.0
C483 C 1.01076 0.87669 0.05434 0.0
C484 C 0.92249 0.91503 0.03381 0.0
C485 C 0.99068 0.846 0.03972 0.0
C486 C 0.87106 0.91713 0.00434 0.0
C487 C 0.82162 0.01556 0.01515 0.0
N488 N 0.9481 0.86619 0.02971 0.0
N489 N 0.85473 0.98689 0.0265 0.0
H490 H 0.84932 0.92539 0.77198 0.0
H491 H 0.10169 0.13176 0.78218 0.0
H492 H 0.96279 0.95795 0.72846 0.0
H493 H 0.96219 0.1201 0.8179 0.0
H494 H 0.06836 0.04937 0.76582 0.0
H495 H 0.90973 0.97395 0.79251 0.0
C496 C 0.88768 0.94125 0.76675 0.0
C497 C 0.90011 0.93854 0.74827 0.0
C498 C 0.04568 0.06456 0.77742 0.0
C499 C 0.96871 0.99667 0.7718 0.0
C500 C 0.06462 0.11138 0.7867 0.0
C501 C 0.03364 0.13335 0.80102 0.0
C502 C 0.99625 0.0395 0.78285 0.0
C503 C 0.98638 0.10527 0.80658 0.0
C504 C 0.92198 0.96976 0.77852 0.0
C505 C 0.9506 0.96059 0.74248 0.0
N506 N 0.96898 0.06017 0.79742 0.0
N507 N 0.9825 0.9899 0.75413 0.0
H508 H 0.92673 0.0578 0.4052 0.0
H509 H 0.67073 0.85793 0.38988 0.0
H510 H 0.86189 0.9502 0.44636 0.0
H511 H 0.77982 0.90398 0.34661 0.0
H512 H 0.72762 0.91133 0.41093 0.0
H513 H 0.86339 0.01623 0.38343 0.0
C514 C 0.89986 0.02495 0.40962 0.0
C515 C 0.89955 1.00763 0.42768 0.0
C516 C 0.73848 0.91035 0.39676 0.0
C517 C 0.82569 0.96179 0.40304 0.0
C518 C 0.70568 0.88062 0.38475 0.0
C519 C 0.72105 0.87638 0.36659 0.0
C520 C 0.78626 0.93639 0.39042 0.0
C521 C 0.76702 0.90599 0.3606 0.0
C522 C 0.86326 1.00184 0.39724 0.0
C523 C 0.86295 0.96557 0.43267 0.0
N524 N 0.79833 0.93453 0.37252 0.0
N525 N 0.82718 0.94445 0.42046 0.0
H526 H 0.93197 0.08657 0.19422 0.0
H527 H 0.06929 0.89775 0.13965 0.0
H528 H 0.81223 0.09599 0.15146 0.0
H529 H 0.92376 0.90551 0.10659 0.0
H530 H 0.03711 0.97853 0.15636 0.0
H531 H 0.99118 0.03123 0.17484 0.0
C532 C 0.91893 0.07821 0.18052 0.0
C533 C 0.86671 0.09503 0.17457 0.0
C534 C 1.01197 0.96309 0.14548 0.0
C535 C 0.93407 0.03093 0.1521 0.0
C536 C 0.03078 0.91704 0.13582 0.0
C537 C 0.99893 0.89478 0.12187 0.0
C538 C 0.96078 0.98696 0.14111 0.0
C539 C 0.94915 0.92086 0.11749 0.0
C540 C 0.95283 0.0463 0.16935 0.0
C541 C 0.85208 0.0838 0.15665 0.0
N542 N 0.93156 0.96535 0.12713 0.0
N543 N 0.88507 0.05153 0.1462 0.0
H544 H 0.83447 1.00742 0.93039 0.0
H545 H 0.02121 0.23605 0.88448 0.0
H546 H 0.82096 0.18209 0.9418 0.0
H547 H 1.0108 0.06971 0.86369 0.0
H548 H 0.94787 0.21561 0.90577 0.0
H549 H 0.89748 0.02812 0.90554 0.0
C550 C 0.84427 0.05012 0.92751 0.0
C551 C 0.82276 0.09309 0.93822 0.0
C552 C 0.96079 0.18379 0.89634 0.0
C553 C 0.89488 0.11695 0.91002 0.0
C554 C 1.00251 0.19556 0.88413 0.0
C555 C 0.02129 0.15485 0.87211 0.0
C556 C 0.93747 0.13089 0.89654 0.0
C557 C 0.99723 0.1023 0.87273 0.0
C558 C 0.88009 0.0619 0.91333 0.0
C559 C 0.83626 0.14771 0.93383 0.0
N560 N 0.95643 0.09174 0.88478 0.0
N561 N 0.87194 0.15801 0.92019 0.0
H562 H 0.71217 0.01691 0.70618 0.0
H563 H 0.77208 0.12397 0.60927 0.0
H564 H 0.86599 0.97635 0.68023 0.0
H565 H 0.67654 0.2202 0.64711 0.0
H566 H 0.80962 0.07002 0.63435 0.0
H567 H 0.69634 0.08919 0.68367 0.0
C568 C 0.7423 0.02299 0.69561 0.0
C569 C 0.79003 0.99031 0.69483 0.0
C570 C 0.7818 0.10407 0.63723 0.0
C571 C 0.77265 0.07309 0.66926 0.0
C572 C 0.76089 0.1352 0.62296 0.0
C573 C 0.72149 0.17664 0.6262 0.0
C574 C 0.76171 0.11345 0.65472 0.0
C575 C 0.70733 0.18896 0.6441 0.0
C576 C 0.73371 0.0647 0.68296 0.0
C577 C 0.82846 1.00051 0.68113 0.0
N578 N 0.72628 0.15642 0.65769 0.0
N579 N 0.81862 0.04061 0.6687 0.0
H580 H 0.76118 0.51578 0.93081 0.0
H581 H 0.90158 0.27024 0.87701 0.0
H582 H 0.72421 0.34634 0.94407 0.0
H583 H 0.98511 0.42333 0.88872 0.0
H584 H 0.82863 0.29704 0.89805 0.0
H585 H 0.83287 0.48322 0.9102 0.0
C586 C 0.76756 0.47167 0.92917 0.0
C587 C 0.73716 0.43376 0.93939 0.0
C588 C 0.86333 0.32431 0.89615 0.0
C589 C 0.81902 0.39639 0.9158 0.0
C590 C 0.9053 0.30894 0.88428 0.0
C591 C 0.95 0.34436 0.88119 0.0
C592 C 0.86513 0.37626 0.90452 0.0
C593 C 0.95183 0.39447 0.89076 0.0
C594 C 0.80873 0.45322 0.91753 0.0
C595 C 0.74648 0.37704 0.93644 0.0
N596 N 0.90953 0.40931 0.90178 0.0
N597 N 0.7869 0.35998 0.92495 0.0
H598 H 0.71201 0.42637 0.15588 0.0
H599 H 1.00672 0.50357 0.11572 0.0
H600 H 0.85525 0.32305 0.16294 0.0
H601 H 0.86355 0.61008 0.11452 0.0
H602 H 0.95038 0.43059 0.12907 0.0
H603 H 0.76461 0.48619 0.13594 0.0
C604 C 0.75443 0.41584 0.15287 0.0
C605 C 0.77966 0.37019 0.16103 0.0
C606 C 0.93139 0.46987 0.12577 0.0
C607 C 0.84067 0.43905 0.13868 0.0
C608 C 0.96349 0.51159 0.11819 0.0
C609 C 0.94001 0.56333 0.11418 0.0
C610 C 0.87543 0.47995 0.12924 0.0
C611 C 0.88372 0.57121 0.11758 0.0
C612 C 0.78458 0.45009 0.1416 0.0
C613 C 0.83458 0.358 0.1568 0.0
N614 N 0.85353 0.53011 0.12495 0.0
N615 N 0.86369 0.39283 0.14607 0.0
H616 H 0.99928 0.52083 0.43375 0.0
H617 H 0.87712 0.71738 0.35752 0.0
H618 H 0.03101 0.69579 0.43121 0.0
H619 H 0.82731 0.54899 0.36689 0.0
H620 H 0.95287 0.70454 0.37896 0.0
H621 H 0.95651 0.52526 0.40401 0.0
C622 C 0.99796 0.56006 0.42674 0.0
C623 C 0.01773 0.6082 0.43501 0.0
C624 C 0.92607 0.67008 0.376 0.0
C625 C 0.96814 0.61388 0.40109 0.0
C626 C 0.88311 0.67722 0.36366 0.0
C627 C 0.84543 0.63438 0.36065 0.0
C628 C 0.93139 0.61967 0.38523 0.0
C629 C 0.85493 0.58335 0.36904 0.0
C630 C 0.97354 0.56262 0.40978 0.0
C631 C 0.01588 0.65783 0.42529 0.0
N632 N 0.8965 0.57765 0.3811 0.0
N633 N 0.99046 0.65965 0.40894 0.0
H634 H 0.80089 0.59919 0.71138 0.0
H635 H 0.60191 0.51239 0.63151 0.0
H636 H 0.64915 0.6855 0.69975 0.0
H637 H 0.73095 0.40569 0.65159 0.0
H638 H 0.61868 0.57616 0.65617 0.0
H639 H 0.7775 0.52976 0.68888 0.0
C640 C 0.76241 0.60345 0.70415 0.0
C641 C 0.72643 0.64789 0.70772 0.0
C642 C 0.64303 0.53861 0.65532 0.0
C643 C 0.69986 0.56856 0.68166 0.0
C644 C 0.63335 0.50177 0.64126 0.0
C645 C 0.66499 0.45319 0.63944 0.0
C646 C 0.68536 0.52758 0.66759 0.0
C647 C 0.70549 0.44246 0.65244 0.0
C648 C 0.74914 0.56367 0.6913 0.0
C649 C 0.67807 0.65201 0.6975 0.0
N650 N 0.71486 0.47967 0.66589 0.0
N651 N 0.66614 0.61274 0.68494 0.0
H652 H 0.75101 0.47133 0.01405 0.0
H653 H 0.921 0.74201 0.03494 0.0
H654 H 0.73465 0.61385 -0.02027 0.0
H655 H 0.98488 0.5777 0.04426 0.0
H656 H 0.84571 0.70187 0.01731 0.0
H657 H 0.82663 0.51711 0.02997 0.0
C658 C 0.76215 0.51308 0.01032 0.0
C659 C 0.7363 0.53933 -0.00421 0.0
C660 C 0.87687 0.67486 0.02297 0.0
C661 C 0.82338 0.5911 0.01347 0.0
C662 C 0.92017 0.6977 0.03284 0.0
C663 C 0.95947 0.6632 0.04108 0.0
C664 C 0.87214 0.6172 0.02176 0.0
C665 C 0.95587 0.60597 0.03808 0.0
C666 C 0.80589 0.53868 0.01913 0.0
C667 C 0.75325 0.59278 -0.00893 0.0
N668 N 0.91231 0.5847 0.02899 0.0
N669 N 0.79586 0.61705 -0.0001 0.0
H670 H 0.66531 0.45541 0.2036 0.0
H671 H 0.64598 0.50009 0.30975 0.0
H672 H 0.70526 0.32628 0.24156 0.0
H673 H 0.68715 0.63189 0.27305 0.0
H674 H 0.64487 0.4354 0.28445 0.0
H675 H 0.65013 0.51917 0.22872 0.0
C676 C 0.67075 0.44031 0.21722 0.0
C677 C 0.68803 0.3856 0.22044 0.0
C678 C 0.65385 0.47852 0.28196 0.0
C679 C 0.66922 0.45833 0.24922 0.0
C680 C 0.65436 0.51567 0.29635 0.0
C681 C 0.66728 0.57162 0.29356 0.0
C682 C 0.66546 0.49742 0.26456 0.0
C683 C 0.67756 0.58913 0.27586 0.0
C684 C 0.66188 0.47678 0.23152 0.0
C685 C 0.69225 0.36801 0.23841 0.0
N686 N 0.67643 0.55209 0.262 0.0
N687 N 0.68327 0.40443 0.25215 0.0
H688 H 0.93574 0.49693 0.4798 0.0
H689 H 0.83589 0.45276 0.57841 0.0
H690 H 0.99093 0.6117 0.52078 0.0
H691 H 0.71746 0.46012 0.53517 0.0
H692 H 0.90521 0.49298 0.55817 0.0
H693 H 0.86627 0.46329 0.50074 0.0
C694 C 0.93335 0.51544 0.49309 0.0
C695 C 0.96921 0.55802 0.49833 0.0
C696 C 0.86385 0.48605 0.55326 0.0
C697 C 0.89118 0.51753 0.52252 0.0
C698 C 0.82454 0.46318 0.5647 0.0
C699 C 0.77108 0.45358 0.55839 0.0
C700 C 0.84982 0.49733 0.53531 0.0
C701 C 0.75818 0.4675 0.54054 0.0
C702 C 0.89385 0.49582 0.50503 0.0
C703 C 0.96501 0.57843 0.5161 0.0
N704 N 0.79763 0.48793 0.52949 0.0
N705 N 0.92688 0.55771 0.52762 0.0
H706 H 0.72912 0.6231 0.77557 0.0
H707 H 0.02372 0.52939 0.81254 0.0
H708 H 0.87616 0.71721 0.76607 0.0
H709 H 0.88253 0.42302 0.80724 0.0
H710 H 0.96767 0.60715 0.80168 0.0
H711 H 0.78156 0.56034 0.79485 0.0
C712 C 0.77218 0.63147 0.7781 0.0
C713 C 0.79865 0.67496 0.76927 0.0
C714 C 0.9491 0.56677 0.803 0.0
C715 C 0.85926 0.60253 0.79066 0.0
C716 C 0.98103 0.52237 0.80911 0.0
C717 C 0.95797 0.46943 0.81057 0.0
C718 C 0.89366 0.5582 0.79859 0.0
C719 C 0.90236 0.46282 0.80608 0.0
C720 C 0.80225 0.59536 0.78888 0.0
C721 C 0.85449 0.68409 0.77277 0.0
N722 N 0.87221 0.50662 0.8003 0.0
N723 N 0.88339 0.64744 0.78298 0.0
H724 H 0.47416 0.55265 0.01731 0.0
H725 H 0.17372 0.64592 0.04445 0.0
H726 H 0.33238 0.4784 -0.00797 0.0
H727 H 0.30949 0.64607 0.08196 0.0
H728 H 0.22915 0.58773 0.02391 0.0
H729 H 0.41343 0.59299 0.04018 0.0
C730 C 0.43047 0.54451 0.01659 0.0
C731 C 0.4085 0.51278 0.00251 0.0
C732 C 0.24621 0.60001 0.03679 0.0
C733 C 0.33865 0.55958 0.02845 0.0
C734 C 0.21454 0.63285 0.04851 0.0
C735 C 0.23745 0.65174 0.06473 0.0
C736 C 0.30092 0.58687 0.04137 0.0
C737 C 0.2906 0.63359 0.06938 0.0
C738 C 0.39578 0.56764 0.02962 0.0
C739 C 0.35119 0.50408 0.00226 0.0
N740 N 0.32081 0.60304 0.05764 0.0
N741 N 0.31819 0.52789 0.01489 0.0
H742 H 0.38885 0.6123 0.76775 0.0
H743 H 0.30712 0.31938 0.81012 0.0
H744 H 0.50486 0.47712 0.77094 0.0
H745 H 0.19178 0.44467 0.79292 0.0
H746 H 0.38269 0.37624 0.79812 0.0
H747 H 0.31901 0.55356 0.78142 0.0
C748 C 0.39999 0.57069 0.77177 0.0
C749 C 0.45253 0.54946 0.76814 0.0
C750 C 0.34068 0.39078 0.79684 0.0
C751 C 0.37243 0.48125 0.78326 0.0
C752 C 0.29765 0.35803 0.80344 0.0
C753 C 0.24328 0.37749 0.80252 0.0
C754 C 0.3288 0.44312 0.78946 0.0
C755 C 0.23321 0.42832 0.79402 0.0
C756 C 0.3599 0.53679 0.7793 0.0
C757 C 0.46453 0.49483 0.77339 0.0
N758 N 0.27544 0.45946 0.78801 0.0
N759 N 0.42464 0.46236 0.78056 0.0
H760 H 0.24352 0.54259 0.52928 0.0
H761 H 0.45628 0.29606 0.54357 0.0
H762 H 0.28626 0.42438 0.48776 0.0
H763 H 0.42678 0.42971 0.581 0.0
H764 H 0.37502 0.32563 0.52625 0.0
H765 H 0.28878 0.48396 0.55146 0.0
C766 C 0.26105 0.50355 0.52487 0.0
C767 C 0.26227 0.4891 0.50653 0.0
C768 C 0.38571 0.34774 0.53847 0.0
C769 C 0.3158 0.42247 0.53184 0.0
C770 C 0.43182 0.33071 0.54835 0.0
C771 C 0.44832 0.36111 0.5635 0.0
C772 C 0.35634 0.39531 0.54389 0.0
C773 C 0.41564 0.40576 0.5692 0.0
C774 C 0.28744 0.47024 0.53755 0.0
C775 C 0.28584 0.43792 0.50169 0.0
N776 N 0.37162 0.42188 0.55929 0.0
N777 N 0.31274 0.40699 0.5142 0.0
H778 H 0.42568 0.44029 0.24312 0.0
H779 H 0.41434 0.61067 0.33387 0.0
H780 H 0.29996 0.42206 0.28377 0.0
H781 H 0.55248 0.61638 0.2974 0.0
H782 H 0.38026 0.52961 0.31796 0.0
H783 H 0.48181 0.49106 0.26491 0.0
C784 C 0.41046 0.44585 0.25674 0.0
C785 C 0.35758 0.42791 0.26152 0.0
C786 C 0.41845 0.54797 0.31353 0.0
C787 C 0.42111 0.48627 0.2864 0.0
C788 C 0.43768 0.59452 0.32255 0.0
C789 C 0.48572 0.62069 0.31671 0.0
C790 C 0.44683 0.52806 0.2983 0.0
C791 C 0.51508 0.59743 0.30224 0.0
C792 C 0.4425 0.47479 0.26918 0.0
C793 C 0.34031 0.43523 0.27943 0.0
N794 N 0.49461 0.55292 0.29328 0.0
N795 N 0.3715 0.4648 0.29109 0.0
H796 H 0.41646 0.35407 0.94723 0.0
H797 H 0.26549 0.43099 0.85789 0.0
H798 H 0.4131 0.52493 0.93095 0.0
H799 H 0.19937 0.31175 0.89493 0.0
H800 H 0.32484 0.4666 0.88203 0.0
H801 H 0.34662 0.33341 0.92439 0.0
C802 C 0.40213 0.38681 0.93843 0.0
C803 C 0.42093 0.44099 0.94067 0.0
C804 C 0.29601 0.43389 0.88501 0.0
C805 C 0.34042 0.4182 0.91501 0.0
C806 C 0.26161 0.41425 0.87137 0.0
C807 C 0.22698 0.36921 0.87464 0.0
C808 C 0.29691 0.40673 0.90168 0.0
C809 C 0.22476 0.34732 0.89207 0.0
C810 C 0.3616 0.37532 0.92571 0.0
C811 C 0.4 0.48249 0.92935 0.0
N812 N 0.26041 0.36535 0.90486 0.0
N813 N 0.36089 0.47021 0.91688 0.0
H814 H 0.5976 0.48434 0.72353 0.0
H815 H 0.49364 0.42591 0.62334 0.0
H816 H 0.50658 0.60656 0.69349 0.0
H817 H 0.53001 0.29896 0.66222 0.0
H818 H 0.50715 0.49641 0.6469 0.0
H819 H 0.59055 0.42073 0.69796 0.0
C820 C 0.57751 0.49819 0.7113 0.0
C821 C 0.55211 0.55025 0.71058 0.0
C822 C 0.51165 0.4531 0.65028 0.0
C823 C 0.54209 0.47746 0.68167 0.0
C824 C 0.50326 0.4131 0.63697 0.0
C825 C 0.5095 0.35699 0.64114 0.0
C826 C 0.52904 0.43659 0.6675 0.0
C827 C 0.52365 0.34197 0.65872 0.0
C828 C 0.5727 0.46171 0.69686 0.0
C829 C 0.52663 0.56659 0.69449 0.0
N830 N 0.53368 0.38166 0.67124 0.0
N831 N 0.52143 0.52985 0.68068 0.0
H832 H 0.26067 0.61766 0.43122 0.0
H833 H 0.57989 0.61165 0.40536 0.0
H834 H 0.38902 0.57461 0.46898 0.0
H835 H 0.45617 0.693 0.37323 0.0
H836 H 0.5094 0.58996 0.4279 0.0
H837 H 0.33106 0.63889 0.40876 0.0
C838 C 0.30359 0.61268 0.43479 0.0
C839 C 0.3189 0.59405 0.45198 0.0
C840 C 0.4978 0.61303 0.41599 0.0
C841 C 0.39951 0.61763 0.42632 0.0
C842 C 0.5379 0.62525 0.40317 0.0
C843 C 0.52376 0.65529 0.38773 0.0
C844 C 0.44317 0.63016 0.41311 0.0
C845 C 0.46887 0.67154 0.38531 0.0
C846 C 0.34372 0.62466 0.42196 0.0
C847 C 0.37518 0.58774 0.45579 0.0
N848 N 0.43044 0.65864 0.39786 0.0
N849 N 0.41342 0.59942 0.44305 0.0
H850 H 0.33815 0.46393 0.19318 0.0
H851 H 0.14813 0.70905 0.15576 0.0
H852 H 0.17839 0.50449 0.21491 0.0
H853 H 0.25988 0.61734 0.12172 0.0
H854 H 0.17753 0.65265 0.18157 0.0
H855 H 0.32559 0.53602 0.1702 0.0
C856 C 0.30038 0.48793 0.19302 0.0
C857 C 0.25878 0.47782 0.20568 0.0
C858 C 0.19669 0.64599 0.16854 0.0
C859 C 0.24506 0.56112 0.18003 0.0
C860 C 0.18067 0.67873 0.15394 0.0
C861 C 0.20216 0.66792 0.13675 0.0
C862 C 0.23469 0.60273 0.16584 0.0
C863 C 0.24293 0.62708 0.13488 0.0
C864 C 0.2934 0.52909 0.18003 0.0
C865 C 0.2109 0.51037 0.20513 0.0
N866 N 0.25766 0.59557 0.14924 0.0
N867 N 0.20539 0.55075 0.19254 0.0
loop_
_geom_bond_atom_site_label_1
_geom_bond_atom_site_label_2
_geom_bond_distance
_geom_bond_site_symmetry_2
_ccdc_geom_bond_type
H0 C8 0.930 . S
H1 C11 0.930 . S
H2 C13 0.930 1_565 S
H3 C14 0.970 . S
H4 C14 0.970 . S
H5 C16 0.930 1_565 S
H6 C18 0.930 . S
H7 C20 0.930 . S
C8 H0 0.930 . S
C8 C9 1.382 1_545 S
C8 C10 1.426 . S
C9 C8 1.382 1_565 S
C9 C13 1.389 1_565 S
C10 C8 1.426 . S
C10 C11 1.375 . S
C10 C14 1.532 1_655 S
C11 H1 0.930 . S
C11 C10 1.375 . S
C11 C12 1.416 . S
C12 C11 1.416 . S
C12 C13 1.371 . S
C13 H2 0.930 1_545 S
C13 C9 1.389 1_545 S
C13 C12 1.371 . S
C14 H3 0.970 . S
C14 H4 0.970 . S
C14 C10 1.532 1_455 S
C14 C15 1.499 . S
C15 C14 1.499 . S
C15 C16 1.370 . S
C15 C20 1.415 . S
C16 H5 0.930 1_545 S
C16 C15 1.370 . S
C16 C17 1.407 1_545 S
C17 C16 1.407 1_565 S
C17 C18 1.364 . S
C18 H6 0.930 . S
C18 C17 1.364 . S
C18 C19 1.393 1_565 S
C19 C18 1.393 1_545 S
C19 C20 1.387 . S
C20 H7 0.930 . S
C20 C15 1.415 . S
C20 C19 1.387 . S
H21 C29 0.930 . S
H22 C32 0.930 . S
H23 C34 0.930 . S
H24 C35 0.970 . S
H25 C35 0.970 . S
H26 C37 0.930 . S
H27 C39 0.930 . S
H28 C41 0.930 . S
C29 H21 0.930 . S
C29 C30 1.382 . S
C29 C31 1.426 . S
C30 C29 1.382 . S
C30 C34 1.389 . S
C31 C29 1.426 . S
C31 C32 1.375 . S
C31 C35 1.532 . S
C32 H22 0.930 . S
C32 C31 1.375 . S
C32 C33 1.416 . S
C33 C32 1.416 . S
C33 C34 1.371 . S
C34 H23 0.930 . S
C34 C30 1.389 . S
C34 C33 1.371 . S
C35 H24 0.970 . S
C35 H25 0.970 . S
C35 C31 1.532 . S
C35 C36 1.499 . S
C36 C35 1.499 . S
C36 C37 1.370 . S
C36 C41 1.415 . S
C37 H26 0.930 . S
C37 C36 1.370 . S
C37 C38 1.407 . S
C38 C37 1.407 . S
C38 C39 1.365 . S
C39 H27 0.930 . S
C39 C38 1.365 . S
C39 C40 1.393 . S
C40 C39 1.393 . S
C40 C41 1.387 . S
C41 H28 0.930 . S
C41 C36 1.415 . S
C41 C40 1.387 . S
H42 C50 0.930 1_565 S
H43 C53 0.930 . S
H44 C55 0.913 1_556 S
H45 C56 0.970 . S
H46 C56 0.970 . S
H47 C58 0.930 1_565 S
H48 C60 0.931 . S
H49 C62 0.930 . S
C50 H42 0.930 1_545 S
C50 C51 1.382 1_545 S
C50 C52 1.426 . S
C51 C50 1.382 1_565 S
C51 C55 1.443 . S
C52 C50 1.426 . S
C52 C53 1.375 1_554 S
C52 C56 1.532 . S
C53 H43 0.930 . S
C53 C52 1.375 1_556 S
C53 C54 1.416 . S
C54 C53 1.416 . S
C54 C55 1.337 1_546 S
C55 H44 0.913 1_554 S
C55 C51 1.443 . S
C55 C54 1.337 1_564 S
C56 H45 0.970 . S
C56 H46 0.970 . S
C56 C52 1.532 . S
C56 C57 1.499 . S
C57 C56 1.499 . S
C57 C58 1.370 . S
C57 C62 1.415 1_554 S
C58 H47 0.930 1_545 S
C58 C57 1.370 . S
C58 C59 1.407 1_545 S
C59 C58 1.407 1_565 S
C59 C60 1.361 1_554 S
C60 H48 0.931 . S
C60 C59 1.361 1_556 S
C60 C61 1.395 1_565 S
C61 C60 1.395 1_545 S
C61 C62 1.387 . S
C62 H49 0.930 . S
C62 C57 1.415 1_556 S
C62 C61 1.387 . S
H63 C71 0.930 . S
H64 C74 0.930 . S
H65 C76 0.930 . S
H66 C77 0.970 . S
H67 C77 0.970 . S
H68 C79 0.930 . S
H69 C81 0.930 . S
H70 C83 0.930 . S
C71 H63 0.930 . S
C71 C72 1.382 . S
C71 C73 1.426 . S
C72 C71 1.382 . S
C72 C76 1.389 . S
C73 C71 1.426 . S
C73 C74 1.375 . S
C73 C77 1.532 . S
C74 H64 0.930 . S
C74 C73 1.375 . S
C74 C75 1.416 . S
C75 C74 1.416 . S
C75 C76 1.371 . S
C76 H65 0.930 . S
C76 C72 1.389 . S
C76 C75 1.371 . S
C77 H66 0.970 . S
C77 H67 0.970 . S
C77 C73 1.532 . S
C77 C78 1.499 . S
C78 C77 1.499 . S
C78 C79 1.370 . S
C78 C83 1.415 . S
C79 H68 0.930 . S
C79 C78 1.370 . S
C79 C80 1.407 . S
C80 C79 1.407 . S
C80 C81 1.365 . S
C81 H69 0.930 . S
C81 C80 1.365 . S
C81 C82 1.393 . S
C82 C81 1.393 . S
C82 C83 1.387 . S
C83 H70 0.930 . S
C83 C78 1.415 . S
C83 C82 1.387 . S
H84 C92 0.930 . S
H85 C95 0.930 . S
H86 C97 0.930 . S
H87 C98 0.970 . S
H88 C98 0.970 . S
H89 C100 0.930 . S
H90 C102 0.930 . S
H91 C104 0.930 . S
C92 H84 0.930 . S
C92 C93 1.382 . S
C92 C94 1.426 . S
C93 C92 1.382 . S
C93 C97 1.389 . S
C94 C92 1.426 . S
C94 C95 1.375 . S
C94 C98 1.532 . S
C95 H85 0.930 . S
C95 C94 1.375 . S
C95 C96 1.416 . S
C96 C95 1.416 . S
C96 C97 1.371 . S
C97 H86 0.930 . S
C97 C93 1.389 . S
C97 C96 1.371 . S
C98 H87 0.970 . S
C98 H88 0.970 . S
C98 C94 1.532 . S
C98 C99 1.499 . S
C99 C98 1.499 . S
C99 C100 1.370 . S
C99 C104 1.415 . S
C100 H89 0.930 . S
C100 C99 1.370 . S
C100 C101 1.407 . S
C101 C100 1.407 . S
C101 C102 1.365 . S
C102 H90 0.930 . S
C102 C101 1.365 . S
C102 C103 1.393 . S
C103 C102 1.393 . S
C103 C104 1.387 . S
C104 H91 0.930 . S
C104 C99 1.415 . S
C104 C103 1.387 . S
H105 C113 0.930 . S
H106 C116 0.930 . S
H107 C118 0.930 . S
H108 C119 0.970 . S
H109 C119 0.970 . S
H110 C121 0.930 . S
H111 C123 0.930 . S
H112 C125 0.930 . S
C113 H105 0.930 . S
C113 C114 1.382 . S
C113 C115 1.426 . S
C114 C113 1.382 . S
C114 C118 1.389 . S
C115 C113 1.426 . S
C115 C116 1.375 . S
C115 C119 1.532 . S
C116 H106 0.930 . S
C116 C115 1.375 . S
C116 C117 1.416 . S
C117 C116 1.416 . S
C117 C118 1.371 . S
C118 H107 0.930 . S
C118 C114 1.389 . S
C118 C117 1.371 . S
C119 H108 0.970 . S
C119 H109 0.970 . S
C119 C115 1.532 . S
C119 C120 1.499 . S
C120 C119 1.499 . S
C120 C121 1.370 . S
C120 C125 1.415 . S
C121 H110 0.930 . S
C121 C120 1.370 . S
C121 C122 1.407 . S
C122 C121 1.407 . S
C122 C123 1.365 . S
C123 H111 0.930 . S
C123 C122 1.365 . S
C123 C124 1.393 . S
C124 C123 1.393 . S
C124 C125 1.387 . S
C125 H112 0.930 . S
C125 C120 1.415 . S
C125 C124 1.387 . S
H126 C134 0.930 . S
H127 C137 0.930 . S
H128 C139 0.930 1_556 S
H129 C140 0.970 . S
H130 C140 0.970 . S
H131 C142 0.930 . S
H132 C144 0.924 1_556 S
H133 C146 0.930 . S
C134 H126 0.930 . S
C134 C135 1.382 . S
C134 C136 1.426 . S
C135 C134 1.382 . S
C135 C139 1.389 . S
C136 C134 1.426 . S
C136 C137 1.375 1_554 S
C136 C140 1.532 . S
C137 H127 0.930 . S
C137 C136 1.375 1_556 S
C137 C138 1.416 . S
C138 C137 1.416 . S
C138 C139 1.371 1_556 S
C139 H128 0.930 1_554 S
C139 C135 1.389 . S
C139 C138 1.371 1_554 S
C140 H129 0.970 . S
C140 H130 0.970 . S
C140 C136 1.532 . S
C140 C141 1.499 . S
C141 C140 1.499 . S
C141 C142 1.370 . S
C141 C146 1.415 1_554 S
C142 H131 0.930 . S
C142 C141 1.370 . S
C142 C143 1.407 . S
C143 C142 1.407 . S
C143 C144 1.379 . S
C144 H132 0.924 1_554 S
C144 C143 1.379 . S
C144 C145 1.385 1_554 S
C145 C144 1.385 1_556 S
C145 C146 1.387 . S
C146 H133 0.930 . S
C146 C141 1.415 1_556 S
C146 C145 1.387 . S
H147 C155 0.930 . S
H148 C158 0.930 . S
H149 C160 0.930 . S
H150 C161 0.970 . S
H151 C161 0.970 . S
H152 C163 0.930 . S
H153 C165 0.930 1_655 S
H154 C167 0.930 . S
C155 H147 0.930 . S
C155 C156 1.382 . S
C155 C157 1.426 . S
C156 C155 1.382 . S
C156 C160 1.389 . S
C157 C155 1.426 . S
C157 C158 1.375 . S
C157 C161 1.532 . S
C158 H148 0.930 . S
C158 C157 1.375 . S
C158 C159 1.416 . S
C159 C158 1.416 . S
C159 C160 1.371 . S
C160 H149 0.930 . S
C160 C156 1.389 . S
C160 C159 1.371 . S
C161 H150 0.970 . S
C161 H151 0.970 . S
C161 C157 1.532 . S
C161 C162 1.499 . S
C162 C161 1.499 . S
C162 C163 1.370 . S
C162 C167 1.415 . S
C163 H152 0.930 . S
C163 C162 1.370 . S
C163 C164 1.407 . S
C164 C163 1.407 . S
C164 C165 1.365 . S
C165 H153 0.930 1_455 S
C165 C164 1.365 . S
C165 C166 1.393 . S
C166 C165 1.393 . S
C166 C167 1.387 . S
C167 H154 0.930 . S
C167 C162 1.415 . S
C167 C166 1.387 . S
C168 O195 1.312 . S
C168 O196 1.208 . S
C169 O190 1.331 1_655 S
C169 O193 1.244 . S
C170 O192 1.264 1_655 S
C170 O194 1.273 . S
Mg171 O173 1.936 . S
Mg171 O180 2.081 . S
Mg171 O182 2.023 . S
Mg171 O186 2.031 . S
Mg171 O195 2.291 . S
Mg172 O173 1.963 . S
Mg172 O183 1.942 . S
Mg172 O184 1.955 . S
Mg172 O191 1.986 . S
O173 Mg171 1.936 . S
O173 Mg172 1.963 . S
O173 Mg174 1.915 . S
Mg174 O173 1.915 . S
Mg174 O175 1.915 . S
Mg174 O179 2.013 . S
Mg174 O185 2.114 . S
Mg174 O189 2.013 . S
Mg174 O195 2.114 . S
O175 Mg174 1.915 . S
O175 Mg176 1.936 . S
O175 Mg177 1.963 1_455 S
Mg176 O175 1.936 . S
Mg176 O185 2.291 . S
Mg176 O190 2.081 . S
Mg176 O192 2.023 . S
Mg176 O196 2.031 . S
Mg177 O175 1.963 1_655 S
Mg177 O181 1.986 . S
Mg177 O193 1.942 . S
Mg177 O194 1.955 . S
C178 O189 1.191 . S
C178 O191 1.307 . S
O179 Mg174 2.013 . S
O179 C198 1.191 . S
O180 Mg171 2.081 . S
O180 C188 1.331 . S
O181 Mg177 1.986 . S
O181 C198 1.307 1_655 S
O182 Mg171 2.023 . S
O182 C197 1.264 . S
O183 Mg172 1.942 . S
O183 C188 1.244 . S
O184 Mg172 1.955 . S
O184 C197 1.273 . S
O185 Mg174 2.114 . S
O185 Mg176 2.291 . S
O185 C187 1.312 . S
O186 Mg171 2.031 . S
O186 C187 1.208 . S
C187 O185 1.312 . S
C187 O186 1.208 . S
C188 O180 1.331 . S
C188 O183 1.244 . S
O189 Mg174 2.013 . S
O189 C178 1.191 . S
O190 C169 1.331 1_455 S
O190 Mg176 2.081 . S
O191 Mg172 1.986 . S
O191 C178 1.307 . S
O192 C170 1.264 1_455 S
O192 Mg176 2.023 . S
O193 C169 1.244 . S
O193 Mg177 1.942 . S
O194 C170 1.273 . S
O194 Mg177 1.955 . S
O195 C168 1.312 . S
O195 Mg171 2.291 . S
O195 Mg174 2.114 . S
O196 C168 1.208 . S
O196 Mg176 2.031 . S
C197 O182 1.264 . S
C197 O184 1.273 . S
C198 O179 1.191 . S
C198 O181 1.307 1_455 S
C199 O226 1.312 . S
C199 O227 1.208 . S
C200 O221 1.331 . S
C200 O224 1.244 . S
C201 O223 1.264 . S
C201 O225 1.273 . S
Mg202 O204 1.936 . S
Mg202 O211 2.081 . S
Mg202 O213 2.023 . S
Mg202 O217 2.031 . S
Mg202 O226 2.291 . S
Mg203 O204 1.963 . S
Mg203 O214 1.942 . S
Mg203 O215 1.955 . S
Mg203 O222 1.986 . S
O204 Mg202 1.936 . S
O204 Mg203 1.963 . S
O204 Mg205 1.915 . S
Mg205 O204 1.915 . S
Mg205 O206 1.915 . S
Mg205 O210 2.013 . S
Mg205 O216 2.114 . S
Mg205 O220 2.013 . S
Mg205 O226 2.114 . S
O206 Mg205 1.915 . S
O206 Mg207 1.936 . S
O206 Mg208 1.963 . S
Mg207 O206 1.936 . S
Mg207 O216 2.291 . S
Mg207 O221 2.081 . S
Mg207 O223 2.023 . S
Mg207 O227 2.031 . S
Mg208 O206 1.963 . S
Mg208 O212 1.986 . S
Mg208 O224 1.942 . S
Mg208 O225 1.955 . S
C209 O220 1.191 . S
C209 O222 1.307 . S
O210 Mg205 2.013 . S
O210 C229 1.191 . S
O211 Mg202 2.081 . S
O211 C219 1.331 . S
O212 Mg208 1.986 . S
O212 C229 1.307 . S
O213 Mg202 2.023 . S
O213 C228 1.264 . S
O214 Mg203 1.942 . S
O214 C219 1.244 . S
O215 Mg203 1.955 . S
O215 C228 1.273 . S
O216 Mg205 2.114 . S
O216 Mg207 2.291 . S
O216 C218 1.312 . S
O217 Mg202 2.031 . S
O217 C218 1.208 . S
C218 O216 1.312 . S
C218 O217 1.208 . S
C219 O211 1.331 . S
C219 O214 1.244 . S
O220 Mg205 2.013 . S
O220 C209 1.191 . S
O221 C200 1.331 . S
O221 Mg207 2.081 . S
O222 Mg203 1.986 . S
O222 C209 1.307 . S
O223 C201 1.264 . S
O223 Mg207 2.023 . S
O224 C200 1.244 . S
O224 Mg208 1.942 . S
O225 C201 1.273 . S
O225 Mg208 1.955 . S
O226 C199 1.312 . S
O226 Mg202 2.291 . S
O226 Mg205 2.114 . S
O227 C199 1.208 . S
O227 Mg207 2.031 . S
C228 O213 1.264 . S
C228 O215 1.273 . S
C229 O210 1.191 . S
C229 O212 1.307 . S
C230 O257 1.312 . S
C230 O258 1.208 . S
C231 O252 1.331 . S
C231 O255 1.244 . S
C232 O254 1.264 . S
C232 O256 1.273 . S
Mg233 O235 1.936 . S
Mg233 O242 2.081 . S
Mg233 O244 2.023 . S
Mg233 O248 2.031 . S
Mg233 O257 2.291 . S
Mg234 O235 1.963 . S
Mg234 O245 1.942 . S
Mg234 O246 1.955 . S
Mg234 O253 1.986 . S
O235 Mg233 1.936 . S
O235 Mg234 1.963 . S
O235 Mg236 1.915 . S
Mg236 O235 1.915 . S
Mg236 O237 1.915 . S
Mg236 O241 2.013 . S
Mg236 O247 2.114 . S
Mg236 O251 2.013 . S
Mg236 O257 2.114 . S
O237 Mg236 1.915 . S
O237 Mg238 1.936 . S
O237 Mg239 1.963 . S
Mg238 O237 1.936 . S
Mg238 O247 2.291 . S
Mg238 O252 2.081 . S
Mg238 O254 2.023 . S
Mg238 O258 2.031 . S
Mg239 O237 1.963 . S
Mg239 O243 1.986 . S
Mg239 O255 1.942 . S
Mg239 O256 1.955 . S
C240 O251 1.191 . S
C240 O253 1.307 . S
O241 Mg236 2.013 . S
O241 C260 1.191 . S
O242 Mg233 2.081 . S
O242 C250 1.331 . S
O243 Mg239 1.986 . S
O243 C260 1.307 . S
O244 Mg233 2.023 . S
O244 C259 1.264 . S
O245 Mg234 1.942 . S
O245 C250 1.244 . S
O246 Mg234 1.955 . S
O246 C259 1.273 . S
O247 Mg236 2.114 . S
O247 Mg238 2.291 . S
O247 C249 1.312 . S
O248 Mg233 2.031 . S
O248 C249 1.208 . S
C249 O247 1.312 . S
C249 O248 1.208 . S
C250 O242 1.331 . S
C250 O245 1.244 . S
O251 Mg236 2.013 . S
O251 C240 1.191 . S
O252 C231 1.331 . S
O252 Mg238 2.081 . S
O253 Mg234 1.986 . S
O253 C240 1.307 . S
O254 C232 1.264 . S
O254 Mg238 2.023 . S
O255 C231 1.244 . S
O255 Mg239 1.942 . S
O256 C232 1.273 . S
O256 Mg239 1.955 . S
O257 C230 1.312 . S
O257 Mg233 2.291 . S
O257 Mg236 2.114 . S
O258 C230 1.208 . S
O258 Mg238 2.031 . S
C259 O244 1.264 . S
C259 O246 1.273 . S
C260 O241 1.191 . S
C260 O243 1.307 . S
C261 O288 1.312 . S
C261 O289 1.208 . S
C262 O283 1.331 . S
C262 O286 1.244 . S
C263 O285 1.264 . S
C263 O287 1.273 . S
Mg264 O266 1.936 . S
Mg264 O273 2.081 . S
Mg264 O275 2.023 . S
Mg264 O279 2.031 . S
Mg264 O288 2.291 . S
Mg265 O266 1.963 1_655 S
Mg265 O276 1.942 . S
Mg265 O277 1.955 . S
Mg265 O284 1.986 . S
O266 Mg264 1.936 . S
O266 Mg265 1.963 1_455 S
O266 Mg267 1.915 . S
Mg267 O266 1.915 . S
Mg267 O268 1.915 . S
Mg267 O272 2.013 . S
Mg267 O278 2.114 . S
Mg267 O282 2.013 . S
Mg267 O288 2.114 . S
O268 Mg267 1.915 . S
O268 Mg269 1.936 . S
O268 Mg270 1.963 . S
Mg269 O268 1.936 . S
Mg269 O278 2.291 . S
Mg269 O283 2.081 . S
Mg269 O285 2.023 . S
Mg269 O289 2.031 . S
Mg270 O268 1.963 . S
Mg270 O274 1.986 . S
Mg270 O286 1.942 . S
Mg270 O287 1.955 . S
C271 O282 1.191 . S
C271 O284 1.307 1_455 S
O272 Mg267 2.013 . S
O272 C291 1.191 . S
O273 Mg264 2.081 . S
O273 C281 1.331 1_455 S
O274 Mg270 1.986 . S
O274 C291 1.307 . S
O275 Mg264 2.023 . S
O275 C290 1.264 1_455 S
O276 Mg265 1.942 . S
O276 C281 1.244 . S
O277 Mg265 1.955 . S
O277 C290 1.273 . S
O278 Mg267 2.114 . S
O278 Mg269 2.291 . S
O278 C280 1.312 . S
O279 Mg264 2.031 . S
O279 C280 1.208 . S
C280 O278 1.312 . S
C280 O279 1.208 . S
C281 O273 1.331 1_655 S
C281 O276 1.244 . S
O282 Mg267 2.013 . S
O282 C271 1.191 . S
O283 C262 1.331 . S
O283 Mg269 2.081 . S
O284 Mg265 1.986 . S
O284 C271 1.307 1_655 S
O285 C263 1.264 . S
O285 Mg269 2.023 . S
O286 C262 1.244 . S
O286 Mg270 1.942 . S
O287 C263 1.273 . S
O287 Mg270 1.955 . S
O288 C261 1.312 . S
O288 Mg264 2.291 . S
O288 Mg267 2.114 . S
O289 C261 1.208 . S
O289 Mg269 2.031 . S
C290 O275 1.264 1_655 S
C290 O277 1.273 . S
C291 O272 1.191 . S
C291 O274 1.307 . S
H292 C298 0.930 . S
H293 C302 0.930 . S
H294 C307 0.929 1_545 S
H295 C305 0.929 . S
H296 C300 0.929 . S
H297 C306 0.929 . S
C298 H292 0.930 . S
C298 C299 1.367 . S
C298 C306 1.378 . S
C299 C298 1.367 . S
C299 C307 1.433 . S
C300 H296 0.929 . S
C300 C302 1.378 . S
C300 C304 1.350 . S
C301 C304 1.463 . S
C301 C306 1.350 . S
C301 N309 1.427 . S
C302 H293 0.930 . S
C302 C300 1.378 . S
C302 C303 1.367 . S
C303 C302 1.367 . S
C303 C305 1.433 . S
C304 C300 1.350 . S
C304 C301 1.463 . S
C304 N308 1.427 . S
C305 H295 0.929 . S
C305 C303 1.433 . S
C305 N308 1.384 . S
C306 H297 0.929 . S
C306 C298 1.378 . S
C306 C301 1.350 . S
C307 H294 0.929 1_565 S
C307 C299 1.433 . S
C307 N309 1.384 . S
N308 C304 1.427 . S
N308 C305 1.384 . S
N309 C301 1.427 . S
N309 C307 1.384 . S
H310 C316 0.930 . S
H311 C320 0.930 . S
H312 C325 0.929 . S
H313 C323 0.929 . S
H314 C318 0.929 . S
H315 C324 0.929 . S
C316 H310 0.930 . S
C316 C317 1.367 . S
C316 C324 1.378 . S
C317 C316 1.367 . S
C317 C325 1.433 . S
C318 H314 0.929 . S
C318 C320 1.378 1_565 S
C318 C322 1.350 . S
C319 C322 1.463 . S
C319 C324 1.350 . S
C319 N327 1.427 . S
C320 H311 0.930 . S
C320 C318 1.378 1_545 S
C320 C321 1.367 . S
C321 C320 1.367 . S
C321 C323 1.433 . S
C322 C318 1.350 . S
C322 C319 1.463 . S
C322 N326 1.427 1_565 S
C323 H313 0.929 . S
C323 C321 1.433 . S
C323 N326 1.384 . S
C324 H315 0.929 . S
C324 C316 1.378 . S
C324 C319 1.350 . S
C325 H312 0.929 . S
C325 C317 1.433 . S
C325 N327 1.384 . S
N326 C322 1.427 1_545 S
N326 C323 1.384 . S
N327 C319 1.427 . S
N327 C325 1.384 . S
H328 C334 0.930 . S
H329 C338 0.930 . S
H330 C343 0.929 . S
H331 C341 0.929 . S
H332 C336 0.929 . S
H333 C342 0.929 . S
C334 H328 0.930 . S
C334 C335 1.367 . S
C334 C342 1.378 . S
C335 C334 1.367 . S
C335 C343 1.433 . S
C336 H332 0.929 . S
C336 C338 1.378 . S
C336 C340 1.350 . S
C337 C340 1.463 . S
C337 C342 1.350 . S
C337 N345 1.427 . S
C338 H329 0.930 . S
C338 C336 1.378 . S
C338 C339 1.367 . S
C339 C338 1.367 . S
C339 C341 1.433 . S
C340 C336 1.350 . S
C340 C337 1.463 . S
C340 N344 1.427 . S
C341 H331 0.929 . S
C341 C339 1.433 . S
C341 N344 1.384 . S
C342 H333 0.929 . S
C342 C334 1.378 . S
C342 C337 1.350 . S
C343 H330 0.929 . S
C343 C335 1.433 . S
C343 N345 1.384 . S
N344 C340 1.427 . S
N344 C341 1.384 . S
N345 C337 1.427 . S
N345 C343 1.384 . S
H346 C352 0.930 . S
H347 C356 0.930 . S
H348 C361 0.929 . S
H349 C359 0.929 . S
H350 C354 0.929 . S
H351 C360 0.929 . S
C352 H346 0.930 . S
C352 C353 1.367 . S
C352 C360 1.378 . S
C353 C352 1.367 . S
C353 C361 1.433 . S
C354 H350 0.929 . S
C354 C356 1.378 . S
C354 C358 1.350 1_565 S
C355 C358 1.463 . S
C355 C360 1.350 . S
C355 N363 1.427 . S
C356 H347 0.930 . S
C356 C354 1.378 . S
C356 C357 1.367 . S
C357 C356 1.367 . S
C357 C359 1.433 . S
C358 C354 1.350 1_545 S
C358 C355 1.463 . S
C358 N362 1.427 . S
C359 H349 0.929 . S
C359 C357 1.433 . S
C359 N362 1.384 1_565 S
C360 H351 0.929 . S
C360 C352 1.378 . S
C360 C355 1.350 . S
C361 H348 0.929 . S
C361 C353 1.433 . S
C361 N363 1.384 . S
N362 C358 1.427 . S
N362 C359 1.384 1_545 S
N363 C355 1.427 . S
N363 C361 1.384 . S
H364 C370 0.930 1_565 S
H365 C374 0.930 . S
H366 C379 0.929 . S
H367 C377 0.929 . S
H368 C372 0.929 . S
H369 C378 0.929 . S
C370 H364 0.930 1_545 S
C370 C371 1.367 . S
C370 C378 1.378 . S
C371 C370 1.367 . S
C371 C379 1.433 . S
C372 H368 0.929 . S
C372 C374 1.378 . S
C372 C376 1.350 . S
C373 C376 1.463 . S
C373 C378 1.350 . S
C373 N381 1.427 . S
C374 H365 0.930 . S
C374 C372 1.378 . S
C374 C375 1.367 . S
C375 C374 1.367 . S
C375 C377 1.433 . S
C376 C372 1.350 . S
C376 C373 1.463 . S
C376 N380 1.427 . S
C377 H367 0.929 . S
C377 C375 1.433 . S
C377 N380 1.384 . S
C378 H369 0.929 . S
C378 C370 1.378 . S
C378 C373 1.350 . S
C379 H366 0.929 . S
C379 C371 1.433 . S
C379 N381 1.384 . S
N380 C376 1.427 . S
N380 C377 1.384 . S
N381 C373 1.427 . S
N381 C379 1.384 . S
H382 C388 0.930 . S
H383 C392 0.930 . S
H384 C397 0.929 . S
H385 C395 0.929 . S
H386 C390 0.929 . S
H387 C396 0.929 . S
C388 H382 0.930 . S
C388 C389 1.367 . S
C388 C396 1.378 . S
C389 C388 1.367 . S
C389 C397 1.433 . S
C390 H386 0.929 . S
C390 C392 1.378 . S
C390 C394 1.350 1_545 S
C391 C394 1.463 . S
C391 C396 1.350 . S
C391 N399 1.427 . S
C392 H383 0.930 . S
C392 C390 1.378 . S
C392 C393 1.367 . S
C393 C392 1.367 . S
C393 C395 1.433 . S
C394 C390 1.350 1_565 S
C394 C391 1.463 . S
C394 N398 1.427 . S
C395 H385 0.929 . S
C395 C393 1.433 . S
C395 N398 1.384 1_545 S
C396 H387 0.929 . S
C396 C388 1.378 . S
C396 C391 1.350 . S
C397 H384 0.929 . S
C397 C389 1.433 . S
C397 N399 1.384 . S
N398 C394 1.427 . S
N398 C395 1.384 1_565 S
N399 C391 1.427 . S
N399 C397 1.384 . S
H400 C406 0.930 1_545 S
H401 C410 0.930 . S
H402 C415 0.929 . S
H403 C413 0.929 . S
H404 C408 0.929 . S
H405 C414 0.929 . S
C406 H400 0.930 1_565 S
C406 C407 1.367 . S
C406 C414 1.378 . S
C407 C406 1.367 . S
C407 C415 1.433 . S
C408 H404 0.929 . S
C408 C410 1.378 . S
C408 C412 1.350 . S
C409 C412 1.463 . S
C409 C414 1.350 . S
C409 N417 1.427 . S
C410 H401 0.930 . S
C410 C408 1.378 . S
C410 C411 1.367 . S
C411 C410 1.367 . S
C411 C413 1.433 . S
C412 C408 1.350 . S
C412 C409 1.463 . S
C412 N416 1.427 . S
C413 H403 0.929 . S
C413 C411 1.433 . S
C413 N416 1.384 . S
C414 H405 0.929 . S
C414 C406 1.378 . S
C414 C409 1.350 . S
C415 H402 0.929 . S
C415 C407 1.433 . S
C415 N417 1.384 . S
N416 C412 1.427 . S
N416 C413 1.384 . S
N417 C409 1.427 . S
N417 C415 1.384 . S
H418 C424 0.930 . S
H419 C428 0.930 . S
H420 C433 0.929 . S
H421 C431 0.929 . S
H422 C426 0.929 1_545 S
H423 C432 0.929 . S
C424 H418 0.930 . S
C424 C425 1.367 . S
C424 C432 1.378 . S
C425 C424 1.367 . S
C425 C433 1.433 . S
C426 H422 0.929 1_565 S
C426 C428 1.378 . S
C426 C430 1.350 1_565 S
C427 C430 1.463 . S
C427 C432 1.350 . S
C427 N435 1.427 . S
C428 H419 0.930 . S
C428 C426 1.378 . S
C428 C429 1.367 . S
C429 C428 1.367 . S
C429 C431 1.433 . S
C430 C426 1.350 1_545 S
C430 C427 1.463 . S
C430 N434 1.427 . S
C431 H421 0.929 . S
C431 C429 1.433 . S
C431 N434 1.384 1_565 S
C432 H423 0.929 . S
C432 C424 1.378 . S
C432 C427 1.350 . S
C433 H420 0.929 . S
C433 C425 1.433 . S
C433 N435 1.384 . S
N434 C430 1.427 . S
N434 C431 1.384 1_545 S
N435 C427 1.427 . S
N435 C433 1.384 . S
H436 C442 0.930 . S
H437 C446 0.930 . S
H438 C451 0.929 . S
H439 C449 0.929 . S
H440 C444 0.929 . S
H441 C450 0.929 . S
C442 H436 0.930 . S
C442 C443 1.367 . S
C442 C450 1.378 . S
C443 C442 1.367 . S
C443 C451 1.433 . S
C444 H440 0.929 . S
C444 C446 1.378 . S
C444 C448 1.350 . S
C445 C448 1.463 . S
C445 C450 1.350 . S
C445 N453 1.427 . S
C446 H437 0.930 . S
C446 C444 1.378 . S
C446 C447 1.367 . S
C447 C446 1.367 . S
C447 C449 1.433 . S
C448 C444 1.350 . S
C448 C445 1.463 . S
C448 N452 1.427 . S
C449 H439 0.929 . S
C449 C447 1.433 . S
C449 N452 1.384 . S
C450 H441 0.929 . S
C450 C442 1.378 . S
C450 C445 1.350 . S
C451 H438 0.929 . S
C451 C443 1.433 . S
C451 N453 1.384 . S
N452 C448 1.427 . S
N452 C449 1.384 . S
N453 C445 1.427 . S
N453 C451 1.384 . S
H454 C460 0.930 . S
H455 C464 0.930 . S
H456 C469 0.929 . S
H457 C467 0.929 . S
H458 C462 0.929 . S
H459 C468 0.929 . S
C460 H454 0.930 . S
C460 C461 1.367 1_565 S
C460 C468 1.378 . S
C461 C460 1.367 1_545 S
C461 C469 1.433 . S
C462 H458 0.929 . S
C462 C464 1.378 . S
C462 C466 1.350 . S
C463 C466 1.463 . S
C463 C468 1.350 . S
C463 N471 1.427 1_565 S
C464 H455 0.930 . S
C464 C462 1.378 . S
C464 C465 1.367 . S
C465 C464 1.367 . S
C465 C467 1.433 . S
C466 C462 1.350 . S
C466 C463 1.463 . S
C466 N470 1.427 . S
C467 H457 0.929 . S
C467 C465 1.433 . S
C467 N470 1.384 . S
C468 H459 0.929 . S
C468 C460 1.378 . S
C468 C463 1.350 . S
C469 H456 0.929 . S
C469 C461 1.433 . S
C469 N471 1.384 . S
N470 C466 1.427 . S
N470 C467 1.384 . S
N471 C463 1.427 1_545 S
N471 C469 1.384 . S
H472 C478 0.930 . S
H473 C482 0.930 . S
H474 C487 0.929 1_545 S
H475 C485 0.929 . S
H476 C480 0.929 . S
H477 C486 0.929 . S
C478 H472 0.930 . S
C478 C479 1.367 . S
C478 C486 1.378 . S
C479 C478 1.367 . S
C479 C487 1.433 . S
C480 H476 0.929 . S
C480 C482 1.378 1_655 S
C480 C484 1.350 . S
C481 C484 1.463 . S
C481 C486 1.350 . S
C481 N489 1.427 . S
C482 H473 0.930 . S
C482 C480 1.378 1_455 S
C482 C483 1.367 . S
C483 C482 1.367 . S
C483 C485 1.433 1_455 S
C484 C480 1.350 . S
C484 C481 1.463 . S
C484 N488 1.427 . S
C485 H475 0.929 . S
C485 C483 1.433 1_655 S
C485 N488 1.384 . S
C486 H477 0.929 . S
C486 C478 1.378 . S
C486 C481 1.350 . S
C487 H474 0.929 1_565 S
C487 C479 1.433 . S
C487 N489 1.384 . S
N488 C484 1.427 . S
N488 C485 1.384 . S
N489 C481 1.427 . S
N489 C487 1.384 . S
H490 C496 0.930 . S
H491 C500 0.930 . S
H492 C505 0.929 . S
H493 C503 0.929 . S
H494 C498 0.929 . S
H495 C504 0.929 . S
C496 H490 0.930 . S
C496 C497 1.367 . S
C496 C504 1.378 1_565 S
C497 C496 1.367 . S
C497 C505 1.433 . S
C498 H494 0.929 . S
C498 C500 1.378 . S
C498 C502 1.350 1_455 S
C499 C502 1.463 . S
C499 C504 1.350 . S
C499 N507 1.427 . S
C500 H491 0.930 . S
C500 C498 1.378 . S
C500 C501 1.367 . S
C501 C500 1.367 . S
C501 C503 1.433 1_455 S
C502 C498 1.350 1_655 S
C502 C499 1.463 . S
C502 N506 1.427 . S
C503 H493 0.929 . S
C503 C501 1.433 1_655 S
C503 N506 1.384 . S
C504 H495 0.929 . S
C504 C496 1.378 1_545 S
C504 C499 1.350 . S
C505 H492 0.929 . S
C505 C497 1.433 . S
C505 N507 1.384 1_565 S
N506 C502 1.427 . S
N506 C503 1.384 . S
N507 C499 1.427 . S
N507 C505 1.384 1_545 S
H508 C514 0.938 . S
H509 C518 0.930 . S
H510 C523 0.929 . S
H511 C521 0.929 . S
H512 C516 0.929 . S
H513 C522 0.929 . S
C514 H508 0.938 . S
C514 C515 1.367 . S
C514 C522 1.378 . S
C515 C514 1.367 . S
C515 C523 1.433 . S
C516 H512 0.929 . S
C516 C518 1.378 . S
C516 C520 1.350 . S
C517 C520 1.463 . S
C517 C522 1.350 . S
C517 N525 1.427 . S
C518 H509 0.930 . S
C518 C516 1.378 . S
C518 C519 1.367 . S
C519 C518 1.367 . S
C519 C521 1.433 . S
C520 C516 1.350 . S
C520 C517 1.463 . S
C520 N524 1.427 . S
C521 H511 0.929 . S
C521 C519 1.433 . S
C521 N524 1.384 . S
C522 H513 0.929 . S
C522 C514 1.378 . S
C522 C517 1.350 . S
C523 H510 0.929 . S
C523 C515 1.433 . S
C523 N525 1.384 . S
N524 C520 1.427 . S
N524 C521 1.384 . S
N525 C517 1.427 . S
N525 C523 1.384 . S
H526 C532 0.930 . S
H527 C536 0.930 . S
H528 C541 0.929 . S
H529 C539 0.929 . S
H530 C534 0.929 . S
H531 C540 0.929 . S
C532 H526 0.930 . S
C532 C533 1.367 . S
C532 C540 1.378 . S
C533 C532 1.367 . S
C533 C541 1.433 1_545 S
C534 H530 0.929 . S
C534 C536 1.378 . S
C534 C538 1.350 . S
C535 C538 1.463 . S
C535 C540 1.350 1_565 S
C535 N543 1.427 . S
C536 H527 0.930 . S
C536 C534 1.378 . S
C536 C537 1.367 1_655 S
C537 C536 1.367 1_455 S
C537 C539 1.433 . S
C538 C534 1.350 . S
C538 C535 1.463 . S
C538 N542 1.427 . S
C539 H529 0.929 . S
C539 C537 1.433 . S
C539 N542 1.384 1_455 S
C540 H531 0.929 . S
C540 C532 1.378 . S
C540 C535 1.350 1_545 S
C541 H528 0.929 . S
C541 C533 1.433 1_565 S
C541 N543 1.384 . S
N542 C538 1.427 . S
N542 C539 1.384 1_655 S
N543 C535 1.427 . S
N543 C541 1.384 . S
H544 C550 0.930 1_565 S
H545 C554 0.930 . S
H546 C559 0.929 . S
H547 C557 0.929 1_455 S
H548 C552 0.929 . S
H549 C558 0.929 . S
C550 H544 0.930 1_545 S
C550 C551 1.367 . S
C550 C558 1.378 . S
C551 C550 1.367 . S
C551 C559 1.433 . S
C552 H548 0.929 . S
C552 C554 1.378 . S
C552 C556 1.350 . S
C553 C556 1.463 . S
C553 C558 1.350 . S
C553 N561 1.427 . S
C554 H545 0.930 . S
C554 C552 1.378 . S
C554 C555 1.367 1_655 S
C555 C554 1.367 1_455 S
C555 C557 1.433 1_455 S
C556 C552 1.350 . S
C556 C553 1.463 . S
C556 N560 1.427 . S
C557 H547 0.929 1_655 S
C557 C555 1.433 1_655 S
C557 N560 1.384 . S
C558 H549 0.929 . S
C558 C550 1.378 . S
C558 C553 1.350 . S
C559 H546 0.929 . S
C559 C551 1.433 . S
C559 N561 1.384 . S
N560 C556 1.427 . S
N560 C557 1.384 . S
N561 C553 1.427 . S
N561 C559 1.384 . S
H562 C568 0.930 . S
H563 C572 0.930 . S
H564 C577 0.929 . S
H565 C575 0.929 . S
H566 C570 0.929 . S
H567 C576 0.929 . S
C568 H562 0.930 . S
C568 C569 1.367 . S
C568 C576 1.378 1_565 S
C569 C568 1.367 . S
C569 C577 1.433 . S
C570 H566 0.929 . S
C570 C572 1.378 . S
C570 C574 1.350 . S
C571 C574 1.463 . S
C571 C576 1.350 . S
C571 N579 1.427 . S
C572 H563 0.930 . S
C572 C570 1.378 . S
C572 C573 1.367 . S
C573 C572 1.367 . S
C573 C575 1.433 . S
C574 C570 1.350 . S
C574 C571 1.463 . S
C574 N578 1.427 . S
C575 H565 0.929 . S
C575 C573 1.433 . S
C575 N578 1.384 . S
C576 H567 0.929 . S
C576 C568 1.378 1_545 S
C576 C571 1.350 . S
C577 H564 0.929 . S
C577 C569 1.433 . S
C577 N579 1.384 1_565 S
N578 C574 1.427 . S
N578 C575 1.384 . S
N579 C571 1.427 . S
N579 C577 1.384 1_545 S
H580 C586 0.930 . S
H581 C590 0.930 . S
H582 C595 0.929 . S
H583 C593 0.929 . S
H584 C588 0.929 . S
H585 C594 0.929 . S
C586 H580 0.930 . S
C586 C587 1.367 . S
C586 C594 1.378 . S
C587 C586 1.367 . S
C587 C595 1.433 . S
C588 H584 0.929 . S
C588 C590 1.378 . S
C588 C592 1.350 . S
C589 C592 1.463 . S
C589 C594 1.350 . S
C589 N597 1.427 . S
C590 H581 0.930 . S
C590 C588 1.378 . S
C590 C591 1.367 . S
C591 C590 1.367 . S
C591 C593 1.433 . S
C592 C588 1.350 . S
C592 C589 1.463 . S
C592 N596 1.427 . S
C593 H583 0.929 . S
C593 C591 1.433 . S
C593 N596 1.384 . S
C594 H585 0.929 . S
C594 C586 1.378 . S
C594 C589 1.350 . S
C595 H582 0.929 . S
C595 C587 1.433 . S
C595 N597 1.384 . S
N596 C592 1.427 . S
N596 C593 1.384 . S
N597 C589 1.427 . S
N597 C595 1.384 . S
H598 C604 0.930 . S
H599 C608 0.930 . S
H600 C613 0.929 . S
H601 C611 0.929 . S
H602 C606 0.929 . S
H603 C612 0.929 . S
C604 H598 0.930 . S
C604 C605 1.367 . S
C604 C612 1.378 . S
C605 C604 1.367 . S
C605 C613 1.433 . S
C606 H602 0.929 . S
C606 C608 1.378 . S
C606 C610 1.350 . S
C607 C610 1.463 . S
C607 C612 1.350 . S
C607 N615 1.427 . S
C608 H599 0.930 . S
C608 C606 1.378 . S
C608 C609 1.367 . S
C609 C608 1.367 . S
C609 C611 1.433 . S
C610 C606 1.350 . S
C610 C607 1.463 . S
C610 N614 1.427 . S
C611 H601 0.929 . S
C611 C609 1.433 . S
C611 N614 1.384 . S
C612 H603 0.929 . S
C612 C604 1.378 . S
C612 C607 1.350 . S
C613 H600 0.929 . S
C613 C605 1.433 . S
C613 N615 1.384 . S
N614 C610 1.427 . S
N614 C611 1.384 . S
N615 C607 1.427 . S
N615 C613 1.384 . S
H616 C622 0.930 1_455 S
H617 C626 0.930 . S
H618 C631 0.929 . S
H619 C629 0.929 . S
H620 C624 0.929 . S
H621 C630 0.929 . S
C622 H616 0.930 1_655 S
C622 C623 1.367 . S
C622 C630 1.378 . S
C623 C622 1.367 . S
C623 C631 1.433 . S
C624 H620 0.929 . S
C624 C626 1.378 . S
C624 C628 1.350 . S
C625 C628 1.463 . S
C625 C630 1.350 . S
C625 N633 1.427 . S
C626 H617 0.930 . S
C626 C624 1.378 . S
C626 C627 1.367 . S
C627 C626 1.367 . S
C627 C629 1.433 . S
C628 C624 1.350 . S
C628 C625 1.463 . S
C628 N632 1.427 . S
C629 H619 0.929 . S
C629 C627 1.433 . S
C629 N632 1.384 . S
C630 H621 0.929 . S
C630 C622 1.378 . S
C630 C625 1.350 . S
C631 H618 0.929 . S
C631 C623 1.433 . S
C631 N633 1.384 . S
N632 C628 1.427 . S
N632 C629 1.384 . S
N633 C625 1.427 . S
N633 C631 1.384 . S
H634 C640 0.930 . S
H635 C644 0.930 . S
H636 C649 0.929 . S
H637 C647 0.929 . S
H638 C642 0.929 . S
H639 C648 0.929 . S
C640 H634 0.930 . S
C640 C641 1.367 . S
C640 C648 1.378 . S
C641 C640 1.367 . S
C641 C649 1.433 . S
C642 H638 0.929 . S
C642 C644 1.378 . S
C642 C646 1.350 . S
C643 C646 1.463 . S
C643 C648 1.350 . S
C643 N651 1.427 . S
C644 H635 0.930 . S
C644 C642 1.378 . S
C644 C645 1.367 . S
C645 C644 1.367 . S
C645 C647 1.433 . S
C646 C642 1.350 . S
C646 C643 1.463 . S
C646 N650 1.427 . S
C647 H637 0.929 . S
C647 C645 1.433 . S
C647 N650 1.384 . S
C648 H639 0.929 . S
C648 C640 1.378 . S
C648 C643 1.350 . S
C649 H636 0.929 . S
C649 C641 1.433 . S
C649 N651 1.384 . S
N650 C646 1.427 . S
N650 C647 1.384 . S
N651 C643 1.427 . S
N651 C649 1.384 . S
H652 C658 0.930 . S
H653 C662 0.930 . S
H654 C667 0.929 . S
H655 C665 0.929 . S
H656 C660 0.929 . S
H657 C666 0.929 . S
C658 H652 0.930 . S
C658 C659 1.367 . S
C658 C666 1.378 . S
C659 C658 1.367 . S
C659 C667 1.433 . S
C660 H656 0.929 . S
C660 C662 1.378 . S
C660 C664 1.350 . S
C661 C664 1.463 . S
C661 C666 1.350 . S
C661 N669 1.427 . S
C662 H653 0.930 . S
C662 C660 1.378 . S
C662 C663 1.367 . S
C663 C662 1.367 . S
C663 C665 1.433 . S
C664 C660 1.350 . S
C664 C661 1.463 . S
C664 N668 1.427 . S
C665 H655 0.929 . S
C665 C663 1.433 . S
C665 N668 1.384 . S
C666 H657 0.929 . S
C666 C658 1.378 . S
C666 C661 1.350 . S
C667 H654 0.929 . S
C667 C659 1.433 . S
C667 N669 1.384 . S
N668 C664 1.427 . S
N668 C665 1.384 . S
N669 C661 1.427 . S
N669 C667 1.384 . S
H670 C676 0.930 . S
H671 C680 0.930 . S
H672 C685 0.929 . S
H673 C683 0.929 . S
H674 C678 0.929 . S
H675 C684 0.929 . S
C676 H670 0.930 . S
C676 C677 1.367 . S
C676 C684 1.378 . S
C677 C676 1.367 . S
C677 C685 1.433 . S
C678 H674 0.929 . S
C678 C680 1.378 . S
C678 C682 1.350 . S
C679 C682 1.463 . S
C679 C684 1.350 . S
C679 N687 1.427 . S
C680 H671 0.930 . S
C680 C678 1.378 . S
C680 C681 1.367 . S
C681 C680 1.367 . S
C681 C683 1.433 . S
C682 C678 1.350 . S
C682 C679 1.463 . S
C682 N686 1.427 . S
C683 H673 0.929 . S
C683 C681 1.433 . S
C683 N686 1.384 . S
C684 H675 0.929 . S
C684 C676 1.378 . S
C684 C679 1.350 . S
C685 H672 0.929 . S
C685 C677 1.433 . S
C685 N687 1.384 . S
N686 C682 1.427 . S
N686 C683 1.384 . S
N687 C679 1.427 . S
N687 C685 1.384 . S
H688 C694 0.930 . S
H689 C698 0.930 . S
H690 C703 0.929 1_455 S
H691 C701 0.929 . S
H692 C696 0.929 . S
H693 C702 0.929 . S
C694 H688 0.930 . S
C694 C695 1.371 . S
C694 C702 1.378 . S
C695 C694 1.371 . S
C695 C703 1.434 . S
C696 H692 0.929 . S
C696 C698 1.378 . S
C696 C700 1.350 . S
C697 C700 1.463 . S
C697 C702 1.350 . S
C697 N705 1.427 . S
C698 H689 0.930 . S
C698 C696 1.378 . S
C698 C699 1.367 . S
C699 C698 1.367 . S
C699 C701 1.433 . S
C700 C696 1.350 . S
C700 C697 1.463 . S
C700 N704 1.427 . S
C701 H691 0.929 . S
C701 C699 1.433 . S
C701 N704 1.384 . S
C702 H693 0.929 . S
C702 C694 1.378 . S
C702 C697 1.350 . S
C703 H690 0.929 1_655 S
C703 C695 1.434 . S
C703 N705 1.384 . S
N704 C700 1.427 . S
N704 C701 1.384 . S
N705 C697 1.427 . S
N705 C703 1.384 . S
H706 C712 0.930 . S
H707 C716 0.930 1_455 S
H708 C721 0.929 . S
H709 C719 0.929 . S
H710 C714 0.929 . S
H711 C720 0.929 . S
C712 H706 0.930 . S
C712 C713 1.367 . S
C712 C720 1.378 . S
C713 C712 1.367 . S
C713 C721 1.433 . S
C714 H710 0.929 . S
C714 C716 1.378 . S
C714 C718 1.350 . S
C715 C718 1.463 . S
C715 C720 1.350 . S
C715 N723 1.427 . S
C716 H707 0.930 1_655 S
C716 C714 1.378 . S
C716 C717 1.367 . S
C717 C716 1.367 . S
C717 C719 1.433 . S
C718 C714 1.350 . S
C718 C715 1.463 . S
C718 N722 1.427 . S
C719 H709 0.929 . S
C719 C717 1.433 . S
C719 N722 1.384 . S
C720 H711 0.929 . S
C720 C712 1.378 . S
C720 C715 1.350 . S
C721 H708 0.929 . S
C721 C713 1.433 . S
C721 N723 1.384 . S
N722 C718 1.427 . S
N722 C719 1.384 . S
N723 C715 1.427 . S
N723 C721 1.384 . S
H724 C730 0.930 . S
H725 C734 0.930 . S
H726 C739 0.929 . S
H727 C737 0.929 . S
H728 C732 0.929 . S
H729 C738 0.929 . S
C730 H724 0.930 . S
C730 C731 1.367 . S
C730 C738 1.378 . S
C731 C730 1.367 . S
C731 C739 1.433 . S
C732 H728 0.929 . S
C732 C734 1.378 . S
C732 C736 1.350 . S
C733 C736 1.463 . S
C733 C738 1.350 . S
C733 N741 1.427 . S
C734 H725 0.930 . S
C734 C732 1.378 . S
C734 C735 1.367 . S
C735 C734 1.367 . S
C735 C737 1.433 . S
C736 C732 1.350 . S
C736 C733 1.463 . S
C736 N740 1.427 . S
C737 H727 0.929 . S
C737 C735 1.433 . S
C737 N740 1.384 . S
C738 H729 0.929 . S
C738 C730 1.378 . S
C738 C733 1.350 . S
C739 H726 0.929 . S
C739 C731 1.433 . S
C739 N741 1.384 . S
N740 C736 1.427 . S
N740 C737 1.384 . S
N741 C733 1.427 . S
N741 C739 1.384 . S
H742 C748 0.930 . S
H743 C752 0.930 . S
H744 C757 0.929 . S
H745 C755 0.929 . S
H746 C750 0.929 . S
H747 C756 0.929 . S
C748 H742 0.930 . S
C748 C749 1.367 . S
C748 C756 1.378 . S
C749 C748 1.367 . S
C749 C757 1.433 . S
C750 H746 0.929 . S
C750 C752 1.378 . S
C750 C754 1.350 . S
C751 C754 1.463 . S
C751 C756 1.350 . S
C751 N759 1.427 . S
C752 H743 0.930 . S
C752 C750 1.378 . S
C752 C753 1.367 . S
C753 C752 1.367 . S
C753 C755 1.433 . S
C754 C750 1.350 . S
C754 C751 1.463 . S
C754 N758 1.427 . S
C755 H745 0.929 . S
C755 C753 1.433 . S
C755 N758 1.384 . S
C756 H747 0.929 . S
C756 C748 1.378 . S
C756 C751 1.350 . S
C757 H744 0.929 . S
C757 C749 1.433 . S
C757 N759 1.384 . S
N758 C754 1.427 . S
N758 C755 1.384 . S
N759 C751 1.427 . S
N759 C757 1.384 . S
H760 C766 0.930 . S
H761 C770 0.930 . S
H762 C775 0.929 . S
H763 C773 0.929 . S
H764 C768 0.929 . S
H765 C774 0.929 . S
C766 H760 0.930 . S
C766 C767 1.367 . S
C766 C774 1.378 . S
C767 C766 1.367 . S
C767 C775 1.433 . S
C768 H764 0.929 . S
C768 C770 1.378 . S
C768 C772 1.350 . S
C769 C772 1.463 . S
C769 C774 1.350 . S
C769 N777 1.427 . S
C770 H761 0.930 . S
C770 C768 1.378 . S
C770 C771 1.367 . S
C771 C770 1.367 . S
C771 C773 1.433 . S
C772 C768 1.350 . S
C772 C769 1.463 . S
C772 N776 1.427 . S
C773 H763 0.929 . S
C773 C771 1.433 . S
C773 N776 1.384 . S
C774 H765 0.929 . S
C774 C766 1.378 . S
C774 C769 1.350 . S
C775 H762 0.929 . S
C775 C767 1.433 . S
C775 N777 1.384 . S
N776 C772 1.427 . S
N776 C773 1.384 . S
N777 C769 1.427 . S
N777 C775 1.384 . S
H778 C784 0.930 . S
H779 C788 0.930 . S
H780 C793 0.929 . S
H781 C791 0.929 . S
H782 C786 0.929 . S
H783 C792 0.929 . S
C784 H778 0.930 . S
C784 C785 1.367 . S
C784 C792 1.378 . S
C785 C784 1.367 . S
C785 C793 1.433 . S
C786 H782 0.929 . S
C786 C788 1.378 . S
C786 C790 1.350 . S
C787 C790 1.463 . S
C787 C792 1.350 . S
C787 N795 1.427 . S
C788 H779 0.930 . S
C788 C786 1.378 . S
C788 C789 1.367 . S
C789 C788 1.367 . S
C789 C791 1.433 . S
C790 C786 1.350 . S
C790 C787 1.463 . S
C790 N794 1.427 . S
C791 H781 0.929 . S
C791 C789 1.433 . S
C791 N794 1.384 . S
C792 H783 0.929 . S
C792 C784 1.378 . S
C792 C787 1.350 . S
C793 H780 0.929 . S
C793 C785 1.433 . S
C793 N795 1.384 . S
N794 C790 1.427 . S
N794 C791 1.384 . S
N795 C787 1.427 . S
N795 C793 1.384 . S
H796 C802 0.930 . S
H797 C806 0.930 . S
H798 C811 0.929 . S
H799 C809 0.929 . S
H800 C804 0.929 . S
H801 C810 0.929 . S
C802 H796 0.930 . S
C802 C803 1.367 . S
C802 C810 1.378 . S
C803 C802 1.367 . S
C803 C811 1.433 . S
C804 H800 0.929 . S
C804 C806 1.378 . S
C804 C808 1.350 . S
C805 C808 1.463 . S
C805 C810 1.350 . S
C805 N813 1.427 . S
C806 H797 0.930 . S
C806 C804 1.378 . S
C806 C807 1.367 . S
C807 C806 1.367 . S
C807 C809 1.433 . S
C808 C804 1.350 . S
C808 C805 1.463 . S
C808 N812 1.427 . S
C809 H799 0.929 . S
C809 C807 1.433 . S
C809 N812 1.384 . S
C810 H801 0.929 . S
C810 C802 1.378 . S
C810 C805 1.350 . S
C811 H798 0.929 . S
C811 C803 1.433 . S
C811 N813 1.384 . S
N812 C808 1.427 . S
N812 C809 1.384 . S
N813 C805 1.427 . S
N813 C811 1.384 . S
H814 C820 0.930 . S
H815 C824 0.930 . S
H816 C829 0.929 . S
H817 C827 0.929 . S
H818 C822 0.929 . S
H819 C828 0.929 . S
C820 H814 0.930 . S
C820 C821 1.367 . S
C820 C828 1.378 . S
C821 C820 1.367 . S
C821 C829 1.433 . S
C822 H818 0.929 . S
C822 C824 1.378 . S
C822 C826 1.350 . S
C823 C826 1.463 . S
C823 C828 1.350 . S
C823 N831 1.427 . S
C824 H815 0.930 . S
C824 C822 1.378 . S
C824 C825 1.367 . S
C825 C824 1.367 . S
C825 C827 1.433 . S
C826 C822 1.350 . S
C826 C823 1.463 . S
C826 N830 1.427 . S
C827 H817 0.929 . S
C827 C825 1.433 . S
C827 N830 1.384 . S
C828 H819 0.929 . S
C828 C820 1.378 . S
C828 C823 1.350 . S
C829 H816 0.929 . S
C829 C821 1.433 . S
C829 N831 1.384 . S
N830 C826 1.427 . S
N830 C827 1.384 . S
N831 C823 1.427 . S
N831 C829 1.384 . S
H832 C838 0.930 . S
H833 C842 0.930 . S
H834 C847 0.929 . S
H835 C845 0.929 . S
H836 C840 0.929 . S
H837 C846 0.929 . S
C838 H832 0.930 . S
C838 C839 1.367 . S
C838 C846 1.378 . S
C839 C838 1.367 . S
C839 C847 1.433 . S
C840 H836 0.929 . S
C840 C842 1.378 . S
C840 C844 1.350 . S
C841 C844 1.463 . S
C841 C846 1.350 . S
C841 N849 1.427 . S
C842 H833 0.930 . S
C842 C840 1.378 . S
C842 C843 1.367 . S
C843 C842 1.367 . S
C843 C845 1.433 . S
C844 C840 1.350 . S
C844 C841 1.463 . S
C844 N848 1.427 . S
C845 H835 0.929 . S
C845 C843 1.433 . S
C845 N848 1.384 . S
C846 H837 0.929 . S
C846 C838 1.378 . S
C846 C841 1.350 . S
C847 H834 0.929 . S
C847 C839 1.433 . S
C847 N849 1.384 . S
N848 C844 1.427 . S
N848 C845 1.384 . S
N849 C841 1.427 . S
N849 C847 1.384 . S
H850 C856 0.930 . S
H851 C860 0.930 . S
H852 C865 0.929 . S
H853 C863 0.929 . S
H854 C858 0.929 . S
H855 C864 0.929 . S
C856 H850 0.930 . S
C856 C857 1.367 . S
C856 C864 1.378 . S
C857 C856 1.367 . S
C857 C865 1.433 . S
C858 H854 0.929 . S
C858 C860 1.378 . S
C858 C862 1.350 . S
C859 C862 1.463 . S
C859 C864 1.350 . S
C859 N867 1.427 . S
C860 H851 0.930 . S
C860 C858 1.378 . S
C860 C861 1.367 . S
C861 C860 1.367 . S
C861 C863 1.433 . S
C862 C858 1.350 . S
C862 C859 1.463 . S
C862 N866 1.427 . S
C863 H853 0.929 . S
C863 C861 1.433 . S
C863 N866 1.384 . S
C864 H855 0.929 . S
C864 C856 1.378 . S
C864 C859 1.350 . S
C865 H852 0.929 . S
C865 C857 1.433 . S
C865 N867 1.384 . S
N866 C862 1.427 . S
N866 C863 1.384 . S
N867 C859 1.427 . S
N867 C865 1.384 . S
C303 C228 1.780 . S
C299 C17 1.739 . S
C317 C30 1.656 . S
C321 C231 1.673 . S
C335 C61 1.647 . S
C339 C262 1.653 . S
C357 C197 1.753 . S
C353 C72 1.753 . S
C375 C232 1.761 . S
C371 C19 1.772 . S
C393 C263 1.781 . S
C389 C33 1.727 . S
C411 C188 1.719 . S
C407 C59 1.651 . S
C429 C219 1.710 . S
C425 C75 1.646 . S
C443 C12 1.342 . S
C447 C249 1.292 . S
C461 C101 1.334 . S
C465 C218 1.271 . S
C479 C51 1.251 . S
C483 C178 1.245 . S
C501 C271 1.270 . S
C497 C124 1.262 . S
C519 C199 1.311 . S
C515 C9 1.370 . S
C533 C103 1.300 . S
C537 C198 1.293 . S
C551 C54 1.293 . S
C555 C291 1.315 . S
C573 C230 1.316 . S
C569 C122 1.370 . S
C587 C145 1.742 . S
C591 C290 1.731 . S
C605 C96 1.631 . S
C609 C169 1.700 . S
C623 C166 1.676 1_655 S
C627 C200 1.683 . S
C641 C114 1.724 . S
C645 C259 1.724 . S
C663 C170 1.801 . S
C659 C143 1.751 . S
C677 C93 1.739 . S
C681 C201 1.740 . S
C695 C164 1.629 1_655 S
C699 C250 1.689 . S
C717 C281 1.746 . S
C713 C117 1.664 . S
C731 C135 1.346 . S
C735 C187 1.289 . S
C749 C40 1.323 . S
C753 C280 1.245 . S
C767 C156 1.275 . S
C771 C240 1.286 . S
C789 C209 1.293 . S
C785 C82 1.301 . S
C807 C261 1.320 . S
C803 C138 1.374 . S
C825 C260 1.326 . S
C821 C38 1.306 . S
C843 C229 1.279 . S
C839 C159 1.261 . S
C861 C168 1.293 . S
C857 C80 1.350 . S
