# Generated by pormake.
# Topology pyr, (3,6)-cn, num edge types: 1
# Building blocks:
#     Node 0, Type 0, BuildingBlock: CUQRIR_clean_linker_1, # of connection points: 3
#     Node 1, Type 0, BuildingBlock: CUQRIR_clean_linker_1, # of connection points: 3
#     Node 2, Type 0, BuildingBlock: CUQRIR_clean_linker_1, # of connection points: 3
#     Node 3, Type 0, BuildingBlock: CUQRIR_clean_linker_1, # of connection points: 3
#     Node 4, Type 0, BuildingBlock: CUQRIR_clean_linker_1, # of connection points: 3
#     Node 5, Type 0, BuildingBlock: CUQRIR_clean_linker_1, # of connection points: 3
#     Node 6, Type 0, BuildingBlock: CUQRIR_clean_linker_1, # of connection points: 3
#     Node 7, Type 0, BuildingBlock: CUQRIR_clean_linker_1, # of connection points: 3
#     Node 8, Type 1, BuildingBlock: JUFBIX_clean_sbu_0, # of connection points: 6
#     Node 9, Type 1, BuildingBlock: JUFBIX_clean_sbu_0, # of connection points: 6
#     Node 10, Type 1, BuildingBlock: JUFBIX_clean_sbu_0, # of connection points: 6
#     Node 11, Type 1, BuildingBlock: JUFBIX_clean_sbu_0, # of connection points: 6
#     Edge 12, Type (0, 1), BuildingBlock: EZIPEK_clean_linker_0, # of connection points: 2
#     Edge 13, Type (0, 1), BuildingBlock: EZIPEK_clean_linker_0, # of connection points: 2
#     Edge 14, Type (0, 1), BuildingBlock: EZIPEK_clean_linker_0, # of connection points: 2
#     Edge 15, Type (0, 1), BuildingBlock: EZIPEK_clean_linker_0, # of connection points: 2
#     Edge 16, Type (0, 1), BuildingBlock: EZIPEK_clean_linker_0, # of connection points: 2
#     Edge 17, Type (0, 1), BuildingBlock: EZIPEK_clean_linker_0, # of connection points: 2
#     Edge 18, Type (0, 1), BuildingBlock: EZIPEK_clean_linker_0, # of connection points: 2
#     Edge 19, Type (0, 1), BuildingBlock: EZIPEK_clean_linker_0, # of connection points: 2
#     Edge 20, Type (0, 1), BuildingBlock: EZIPEK_clean_linker_0, # of connection points: 2
#     Edge 21, Type (0, 1), BuildingBlock: EZIPEK_clean_linker_0, # of connection points: 2
#     Edge 22, Type (0, 1), BuildingBlock: EZIPEK_clean_linker_0, # of connection points: 2
#     Edge 23, Type (0, 1), BuildingBlock: EZIPEK_clean_linker_0, # of connection points: 2
#     Edge 24, Type (0, 1), BuildingBlock: EZIPEK_clean_linker_0, # of connection points: 2
#     Edge 25, Type (0, 1), BuildingBlock: EZIPEK_clean_linker_0, # of connection points: 2
#     Edge 26, Type (0, 1), BuildingBlock: EZIPEK_clean_linker_0, # of connection points: 2
#     Edge 27, Type (0, 1), BuildingBlock: EZIPEK_clean_linker_0, # of connection points: 2
#     Edge 28, Type (0, 1), BuildingBlock: EZIPEK_clean_linker_0, # of connection points: 2
#     Edge 29, Type (0, 1), BuildingBlock: EZIPEK_clean_linker_0, # of connection points: 2
#     Edge 30, Type (0, 1), BuildingBlock: EZIPEK_clean_linker_0, # of connection points: 2
#     Edge 31, Type (0, 1), BuildingBlock: EZIPEK_clean_linker_0, # of connection points: 2
#     Edge 32, Type (0, 1), BuildingBlock: EZIPEK_clean_linker_0, # of connection points: 2
#     Edge 33, Type (0, 1), BuildingBlock: EZIPEK_clean_linker_0, # of connection points: 2
#     Edge 34, Type (0, 1), BuildingBlock: EZIPEK_clean_linker_0, # of connection points: 2
#     Edge 35, Type (0, 1), BuildingBlock: EZIPEK_clean_linker_0, # of connection points: 2
# Relax obj value: 0.188
# Max RMSD: 0.233
# Mean RMSD: 0.155
data_MOF--net-pyr--node1-JUFBIX_clean_sbu_0--node2-CUQRIR_clean_linker_1--edge1-EZIPEK_clean_linker_0
_symmetry_space_group_name_H-M    P1
_symmetry_Int_Tables_number       1
_symmetry_cell_setting            triclinic
loop_
_symmetry_equiv_pos_as_xyz
'x, y, z'
_cell_length_a     24.636157
_cell_length_b     23.181455
_cell_length_c     23.973956
_cell_angle_alpha  78.990363
_cell_angle_beta   91.033662
_cell_angle_gamma 94.503261
loop_
_atom_site_label
_atom_site_type_symbol
_atom_site_fract_x
_atom_site_fract_y
_atom_site_fract_z
_atom_type_partial_charge
C0 C 0.20604 0.21249 0.2319 0.0
N1 N 0.23991 0.16784 0.24646 0.0
N2 N 0.20658 0.23526 0.17535 0.0
C3 C 0.17074 0.23314 0.27378 0.0
C4 C 0.24407 0.20349 0.15574 0.0
N5 N 0.26614 0.16329 0.19831 0.0
C6 C 0.25863 0.21089 0.09404 0.0
H7 H 0.13309 0.20326 0.28154 0.0
H8 H 0.15924 0.27864 0.25761 0.0
H9 H 0.19229 0.23194 0.31496 0.0
H10 H 0.29389 0.24392 0.0843 0.0
H11 H 0.22404 0.22669 0.06655 0.0
H12 H 0.27023 0.16858 0.08429 0.0
C13 C 0.43392 0.80088 0.68749 0.0
N14 N 0.43688 0.84626 0.71514 0.0
N15 N 0.48411 0.78368 0.68082 0.0
C16 C 0.38158 0.77422 0.66647 0.0
C17 C 0.51764 0.81959 0.70742 0.0
N18 N 0.48847 0.85764 0.72856 0.0
C19 C 0.57839 0.81853 0.71204 0.0
H20 H 0.38565 0.72854 0.66034 0.0
H21 H 0.36996 0.80167 0.62551 0.0
H22 H 0.34828 0.77386 0.69709 0.0
H23 H 0.59485 0.79809 0.67831 0.0
H24 H 0.58904 0.79269 0.75414 0.0
H25 H 0.59756 0.86393 0.70923 0.0
C26 C 0.67572 0.37695 0.87193 0.0
N27 N 0.70447 0.36242 0.92092 0.0
N28 N 0.70155 0.42248 0.83602 0.0
C29 C 0.62429 0.3433 0.85678 0.0
C30 C 0.74647 0.43693 0.86553 0.0
N31 N 0.74863 0.40081 0.91741 0.0
C32 C 0.78797 0.4871 0.84423 0.0
H33 H 0.63388 0.31764 0.82407 0.0
H34 H 0.59355 0.37389 0.8383 0.0
H35 H 0.60584 0.31294 0.89416 0.0
H36 H 0.78456 0.50275 0.79774 0.0
H37 H 0.82963 0.47335 0.85502 0.0
H38 H 0.78161 0.52447 0.86555 0.0
C39 C 0.92425 0.73902 0.39095 0.0
N40 N 0.97835 0.73192 0.39337 0.0
N41 N 0.9114 0.7773 0.42331 0.0
C42 C 0.88254 0.70436 0.36115 0.0
C43 C 0.95951 0.79578 0.44354 0.0
N44 N 1.00104 0.76728 0.42711 0.0
C45 C 0.96395 0.83855 0.48323 0.0
H46 H 0.8998 0.69276 0.32269 0.0
H47 H 0.84657 0.72987 0.34864 0.0
H48 H 0.86868 0.66308 0.39064 0.0
H49 H 0.96584 0.81463 0.52782 0.0
H50 H 0.92806 0.86516 0.47906 0.0
H51 H 1.00093 0.86806 0.47274 0.0
C52 C 0.84793 0.86254 0.94526 0.0
N53 N 0.88971 0.85243 0.91238 0.0
N54 N 0.82355 0.91215 0.92237 0.0
C55 C 0.83136 0.82405 1.00126 0.0
C56 C 0.85195 0.93199 0.87298 0.0
N57 N 0.89195 0.89582 0.86555 0.0
C58 C 0.84042 0.98699 0.83167 0.0
H59 H 0.83438 0.77686 0.99984 0.0
H60 H 0.78921 0.83051 1.0129 0.0
H61 H 0.85928 0.83556 1.03496 0.0
H62 H 0.879 0.01103 0.81421 0.0
H63 H 0.81702 0.01627 0.85209 0.0
H64 H 0.81608 0.97468 0.79576 0.0
C65 C 0.70933 0.19411 0.45157 0.0
N66 N 0.70089 0.13579 0.4522 0.0
N67 N 0.66177 0.21788 0.45406 0.0
C68 C 0.76436 0.22786 0.44857 0.0
C69 C 0.62377 0.17196 0.4579 0.0
N70 N 0.64715 0.12084 0.45535 0.0
C71 C 0.56485 0.1777 0.46938 0.0
H72 H 0.79338 0.20264 0.47768 0.0
H73 H 0.76231 0.27199 0.45949 0.0
H74 H 0.78037 0.23367 0.40474 0.0
H75 H 0.55922 0.21921 0.48439 0.0
H76 H 0.54928 0.1407 0.50288 0.0
H77 H 0.54085 0.17883 0.42968 0.0
C78 C 0.3415 0.64096 0.21465 0.0
N79 N 0.38992 0.66891 0.22602 0.0
N80 N 0.32572 0.65939 0.15994 0.0
C81 C 0.30965 0.59568 0.25743 0.0
C82 C 0.36675 0.69896 0.13822 0.0
N83 N 0.4048 0.70659 0.17839 0.0
C84 C 0.36962 0.73139 0.07751 0.0
H85 H 0.32345 0.55147 0.2565 0.0
H86 H 0.26547 0.59516 0.24754 0.0
H87 H 0.31686 0.60477 0.30088 0.0
H88 H 0.35093 0.77395 0.07387 0.0
H89 H 0.34738 0.70526 0.04888 0.0
H90 H 0.41271 0.74113 0.0638 0.0
C91 C 0.08931 0.36819 0.63964 0.0
N92 N 0.12741 0.34229 0.61508 0.0
N93 N 0.1114 0.41713 0.6568 0.0
C94 C 1.032 0.34222 0.65247 0.0
C95 C 0.16334 0.42248 0.63865 0.0
N96 N 0.17414 0.37577 0.61555 0.0
C97 C 0.2051 0.47051 0.6493 0.0
H98 H 1.00678 0.37435 0.66657 0.0
H99 H 1.03267 0.30233 0.68639 0.0
H100 H 1.01337 0.32837 0.61418 0.0
H101 H 0.21572 0.46327 0.69516 0.0
H102 H 0.18814 0.51409 0.63814 0.0
H103 H 0.24257 0.472 0.62397 0.0
Co104 Co 0.0462 0.01223 0.53304 0.0
C105 C 0.09493 0.90212 0.54229 0.0
Co106 Co 0.122 1.00098 0.58119 0.0
C107 C 0.93699 0.03573 0.49755 0.0
C108 C 0.97442 0.98769 0.44287 0.0
N109 N 0.98373 0.01209 0.48929 0.0
N110 N 0.89869 0.02626 0.45877 0.0
C111 C 0.92169 0.99529 0.42464 0.0
H112 H 0.93098 0.0594 0.53148 0.0
H113 H 1.00407 0.96586 0.42342 0.0
C114 C 0.07675 0.11224 0.56697 0.0
N115 N 0.18211 1.00344 0.62766 0.0
C116 C 0.22574 0.97158 0.63254 0.0
C117 C 0.18836 0.0354 0.66952 0.0
N118 N 0.25809 0.9824 0.67573 0.0
C119 C 0.23544 0.02282 0.69893 0.0
C120 C 0.14266 0.04731 0.46322 0.0
O121 O 0.03764 0.09116 0.54036 0.0
O122 O 0.11358 0.07948 0.58767 0.0
O123 O 0.1663 0.03101 0.51118 0.0
O124 O 0.09043 0.04276 0.46335 0.0
O125 O 0.13166 0.92235 0.57265 0.0
H126 H 0.1599 0.06504 0.67941 0.0
H127 H 0.2332 0.94013 0.60601 0.0
O128 O 0.05572 0.93327 0.52411 0.0
O129 O 1.00204 0.9822 0.60453 0.0
O130 O 0.07772 0.97014 0.65122 0.0
C131 C 1.02569 0.96638 0.6526 0.0
H132 H 0.90209 0.98054 0.38852 0.0
H133 H 0.25131 0.04066 0.73503 0.0
Co134 Co 0.53468 0.04219 1.03675 0.0
C135 C 0.51659 0.93519 0.114 0.0
Co136 Co 0.5794 0.03795 0.11731 0.0
C137 C 0.51982 0.02853 0.92034 0.0
C138 C 0.44381 0.02702 0.96253 0.0
N139 N 0.49782 0.03975 0.96819 0.0
N140 N 0.48237 0.00628 0.88703 0.0
C141 C 0.4343 0.00607 0.91287 0.0
H142 H 0.56304 0.02915 0.91301 0.0
H143 H 0.41416 0.02541 0.9956 0.0
C144 C 0.60065 0.14445 0.03879 0.0
N145 N 0.61694 0.03786 0.18398 0.0
C146 C 0.59686 0.02358 0.2371 0.0
C147 C 0.66862 0.05971 0.18987 0.0
N148 N 0.63317 0.03826 0.27568 0.0
C149 C 0.67862 0.0602 0.24633 0.0
C150 C 0.64103 0.99765 1.03449 0.0
O151 O 0.56574 0.12102 1.0082 0.0
O152 O 0.61115 0.11638 0.08825 0.0
O153 O 0.64236 0.00517 0.08595 0.0
O154 O 0.59793 0.01083 1.00642 0.0
O155 O 0.54878 0.95996 0.14573 0.0
H156 H 0.6962 0.07714 0.15506 0.0
H157 H 0.55516 0.00678 0.24688 0.0
O158 O 0.50538 0.96328 0.0648 0.0
O159 O 0.47044 0.07352 0.06959 0.0
O160 O 0.51518 0.07047 0.14939 0.0
C161 C 0.47108 0.08124 0.12128 0.0
H162 H 0.39617 0.98553 0.90039 0.0
H163 H 0.71546 0.07771 0.26409 0.0
Co164 Co 0.60297 0.55609 0.49792 0.0
C165 C 0.51544 0.56324 0.42099 0.0
Co166 Co 0.53253 0.49569 0.52828 0.0
C167 C 0.67712 0.65776 0.49418 0.0
C168 C 0.68397 0.61787 0.42123 0.0
N169 N 0.658 0.61141 0.47123 0.0
N170 N 0.71427 0.69287 0.46056 0.0
C171 C 0.71892 0.66768 0.41479 0.0
H172 H 0.66309 0.66602 0.53414 0.0
H173 H 0.67761 0.58846 0.39131 0.0
C174 C 0.61905 0.49345 0.60724 0.0
N175 N 0.47765 0.43753 0.55299 0.0
C176 C 0.42304 0.43879 0.55278 0.0
C177 C 0.48661 0.38019 0.5718 0.0
N178 N 0.39813 0.3845 0.57037 0.0
C179 C 0.43777 0.34746 0.5823 0.0
C180 C 0.61004 0.44832 0.46979 0.0
O181 O 0.64051 0.53439 0.56914 0.0
O182 O 0.57366 0.46775 0.59615 0.0
O183 O 0.56291 0.44112 0.49104 0.0
O184 O 0.63761 0.49721 0.46809 0.0
O185 O 0.49143 0.52546 0.46029 0.0
H186 H 0.52637 0.36308 0.57732 0.0
H187 H 0.40195 0.47855 0.54055 0.0
O188 O 0.56518 0.57939 0.42763 0.0
O189 O 0.56958 0.61327 0.52869 0.0
O190 O 0.50258 0.551 0.56692 0.0
C191 C 0.52796 0.60187 0.56015 0.0
H192 H 0.7471 0.68326 0.38004 0.0
H193 H 0.43167 0.30065 0.59913 0.0
Co194 Co 0.0418 0.53413 1.00487 0.0
C195 C 0.93442 0.48119 1.03618 0.0
Co196 Co 1.01643 0.5328 0.09295 0.0
C197 C 0.08125 0.51877 0.893 0.0
C198 C 1.00922 0.56462 0.89173 0.0
N199 N 0.04869 0.54088 0.92696 0.0
N200 N 0.06242 0.52739 0.83883 0.0
C201 C 1.01755 0.55649 0.83809 0.0
H202 H 0.11456 0.49212 0.90837 0.0
H203 H 0.97338 0.58235 0.9047 0.0
C204 C 0.12312 0.58308 0.06294 0.0
N205 N 1.00733 0.53136 0.17142 0.0
C206 C 0.99847 0.57744 0.19666 0.0
C207 C 1.02608 0.49077 0.21417 0.0
N208 N 1.01222 0.56758 0.25251 0.0
C209 C 1.0299 0.51315 0.26333 0.0
C210 C 0.07428 0.43174 0.07394 0.0
O211 O 0.11366 0.57043 1.01395 0.0
O212 O 0.08575 0.57288 0.10001 0.0
O213 O 0.05172 0.45629 0.11026 0.0
O214 O 0.07197 0.4569 1.02172 0.0
O215 O 0.94572 0.49117 0.08583 0.0
H216 H 0.04007 0.44886 0.20987 0.0
H217 H 0.98596 0.61924 0.17395 0.0
O218 O 0.97011 0.49655 0.99749 0.0
O219 O 1.0138 0.61116 0.98763 0.0
O220 O 0.98244 0.61009 0.07183 0.0
C221 C 0.98831 0.63648 1.02004 0.0
H222 H 0.99028 0.56656 0.80219 0.0
H223 H 0.04592 0.49172 0.30371 0.0
C224 C 0.25133 0.13221 0.35121 0.0
C225 C 0.22795 0.12305 0.2987 0.0
C226 C 0.15676 0.0542 0.35494 0.0
C227 C 0.17489 0.07075 0.40717 0.0
N228 N 0.23799 0.13385 0.45134 0.0
N229 N 0.1525 0.07997 0.2519 0.0
C230 C 0.22251 0.11122 0.40441 0.0
C231 C 0.17947 0.08456 0.30128 0.0
N232 N 0.30066 0.16352 0.34961 0.0
N233 N 0.11839 0.00816 0.35604 0.0
H234 H 0.16817 0.09971 0.21211 0.0
H235 H 0.11322 0.06002 0.25061 0.0
H236 H 0.10123 0.98384 0.3934 0.0
H237 H 0.10793 0.98991 0.32047 0.0
H238 H 0.32338 0.16824 0.38573 0.0
H239 H 0.32087 0.17999 0.31126 0.0
H240 H 0.26857 0.16757 0.45092 0.0
H241 H 0.21684 0.12348 0.48958 0.0
C242 C 0.51264 0.95567 0.75127 0.0
C243 C 0.50457 0.89402 0.76959 0.0
C244 C 0.49647 0.90747 0.86792 0.0
C245 C 0.49389 0.96888 0.8478 0.0
N246 N 0.50089 0.05276 0.77163 0.0
N247 N 0.492 0.8097 0.84498 0.0
C248 C 0.50311 0.99351 0.78979 0.0
C249 C 0.49858 0.86949 0.82812 0.0
N250 N 0.53002 0.97735 0.69715 0.0
N251 N 0.49703 0.8858 0.92507 0.0
H252 H 0.49508 0.781 0.81682 0.0
H253 H 0.48076 0.78851 0.88585 0.0
H254 H 0.49456 0.91235 0.9553 0.0
H255 H 0.50422 0.84248 0.94281 0.0
H256 H 0.53981 0.02187 0.68118 0.0
H257 H 0.53982 0.94934 0.67017 0.0
H258 H 0.50205 0.07326 0.72902 0.0
H259 H 0.49484 0.08107 0.79962 0.0
C260 C 0.63542 0.47389 0.76948 0.0
C261 C 0.68489 0.44673 0.77845 0.0
C262 C 0.69787 0.46389 0.67512 0.0
C263 C 0.64317 0.47995 0.6661 0.0
N264 N 0.55732 0.4935 0.70901 0.0
N265 N 0.75911 0.40614 0.73927 0.0
C266 C 0.61107 0.48268 0.71456 0.0
C267 C 0.71511 0.43908 0.73109 0.0
N268 N 0.61212 0.49226 0.81362 0.0
N269 N 0.73399 0.473 0.63124 0.0
H270 H 0.77208 0.38641 0.77956 0.0
H271 H 0.77934 0.39408 0.70594 0.0
H272 H 0.72473 0.49338 0.59006 0.0
H273 H 0.77519 0.46626 0.63724 0.0
H274 H 0.5787 0.51773 0.80865 0.0
H275 H 0.62975 0.48676 0.85404 0.0
H276 H 0.53134 0.4884 0.74374 0.0
H277 H 0.53768 0.50511 0.67024 0.0
C278 C 0.98722 0.62913 0.38464 0.0
C279 C 1.0022 0.69007 0.36522 0.0
C280 C 1.03389 0.6669 0.27609 0.0
C281 C 1.01161 0.60789 0.29196 0.0
N282 N 0.95611 0.53656 0.35766 0.0
N283 N 1.0216 0.76719 0.28374 0.0
C284 C 0.98629 0.58945 0.34586 0.0
C285 C 1.02118 0.7091 0.30866 0.0
N286 N 0.96801 0.61044 0.43857 0.0
N287 N 0.06756 0.68281 0.2303 0.0
H288 H 1.01021 0.79929 0.30547 0.0
H289 H 1.02944 0.78229 0.2406 0.0
H290 H 0.08045 0.65226 0.20758 0.0
H291 H 0.08735 0.72485 0.21948 0.0
H292 H 0.9627 0.56615 0.45791 0.0
H293 H 0.95926 0.63969 0.46454 0.0
H294 H 0.9324 0.52289 0.39398 0.0
H295 H 0.94941 0.50902 0.32823 0.0
C296 C 0.36639 0.18105 0.17237 0.0
C297 C 0.32072 0.14048 0.19189 0.0
C298 C 0.38012 0.06088 0.17923 0.0
C299 C 0.42065 0.10198 0.14868 0.0
N300 N 0.44888 0.20408 0.11476 0.0
N301 N 0.285 0.03931 0.20767 0.0
C302 C 0.41265 0.1629 0.14509 0.0
C303 C 0.32808 0.07964 0.19379 0.0
N304 N 0.36605 0.23736 0.18131 0.0
N305 N 0.3921 1.00389 0.19692 0.0
H306 H 0.24745 0.0514 0.21848 0.0
H307 H 0.28571 0.99524 0.20421 0.0
H308 H 0.43046 0.99012 0.19068 0.0
H309 H 0.36656 0.9726 0.22315 0.0
H310 H 0.39919 0.26843 0.17277 0.0
H311 H 0.33456 0.25059 0.20335 0.0
H312 H 0.44277 0.24885 0.1052 0.0
H313 H 0.48311 0.19271 0.09552 0.0
C314 C 0.39581 0.93417 0.66426 0.0
C315 C 0.39601 0.88725 0.71174 0.0
C316 C 0.30652 0.90825 0.74033 0.0
C317 C 0.30702 0.95539 0.69313 0.0
N318 N 0.35516 0.02305 0.61906 0.0
N319 N 0.35727 0.83353 0.79917 0.0
C320 C 0.35307 0.97176 0.65826 0.0
C321 C 0.35333 0.87612 0.7517 0.0
N322 N 0.43425 0.93991 0.62284 0.0
N323 N 0.26014 0.89229 0.77167 0.0
H324 H 0.39011 0.80726 0.80603 0.0
H325 H 0.32994 0.8264 0.83283 0.0
H326 H 0.22518 0.91521 0.7638 0.0
H327 H 0.2551 0.85477 0.80334 0.0
H328 H 0.43266 0.96924 0.5842 0.0
H329 H 0.46574 0.91215 0.62521 0.0
H330 H 0.38987 0.04033 0.59562 0.0
H331 H 0.32349 0.05103 0.61392 0.0
C332 C 0.78639 0.46057 0.9873 0.0
C333 C 0.78844 0.41001 0.96167 0.0
C334 C 0.88174 0.39802 0.99994 0.0
C335 C 0.88114 0.45113 1.02117 0.0
N336 N 0.82918 0.52556 0.04696 0.0
N337 N 0.84005 0.33383 0.93968 0.0
C338 C 0.83202 0.47969 1.01906 0.0
C339 C 0.83629 0.37882 0.96824 0.0
N340 N 0.74238 0.49349 0.97662 0.0
N341 N 0.92594 0.36542 1.011 0.0
H342 H 0.80775 0.3193 0.91639 0.0
H343 H 0.8756 0.31347 0.93591 0.0
H344 H 0.95959 0.37842 1.03393 0.0
H345 H 0.92762 0.32338 1.00213 0.0
H346 H 0.74022 0.53464 0.98736 0.0
H347 H 0.70874 0.48131 0.95324 0.0
H348 H 0.7934 0.54486 0.05232 0.0
H349 H 0.86211 0.5418 0.06877 0.0
C350 C 0.81859 0.80898 0.41913 0.0
C351 C 0.85934 0.77635 0.4494 0.0
C352 C 0.79117 0.72267 0.51562 0.0
C353 C 0.75144 0.73912 0.47401 0.0
N354 N 0.72186 0.8103 0.39637 0.0
N355 N 0.88552 0.70379 0.53012 0.0
C356 C 0.76334 0.78841 0.43026 0.0
C357 C 0.84631 0.73497 0.49998 0.0
N358 N 0.83339 0.85652 0.37792 0.0
N359 N 0.77619 0.69325 0.56848 0.0
H360 H 0.92666 0.71083 0.52012 0.0
H361 H 0.87668 0.66814 0.56315 0.0
H362 H 0.73565 0.68687 0.58115 0.0
H363 H 0.80395 0.68277 0.60149 0.0
H364 H 0.80583 0.88394 0.35523 0.0
H365 H 0.8743 0.87036 0.36948 0.0
H366 H 0.72718 0.84305 0.36019 0.0
H367 H 0.68152 0.79412 0.40535 0.0
C368 C 0.11524 0.27503 0.14669 0.0
C369 C 0.17322 0.28188 0.14434 0.0
C370 C 0.16473 0.3803 0.08311 0.0
C371 C 0.10744 0.37771 0.09379 0.0
N372 N 1.02933 0.32109 0.14096 0.0
N373 N 0.2526 0.34796 0.1185 0.0
C374 C 0.08321 0.32462 0.12733 0.0
C375 C 0.19771 0.33626 0.11427 0.0
N376 N 0.09051 0.22023 0.16568 0.0
N377 N 0.18855 0.42502 0.04364 0.0
H378 H 0.27736 0.31843 0.14298 0.0
H379 H 0.27241 0.38913 0.10287 0.0
H380 H 0.16777 0.45977 1.02165 0.0
H381 H 0.22849 0.42531 1.02993 0.0
H382 H 0.0486 0.21045 0.16386 0.0
H383 H 0.11267 0.18333 0.17776 0.0
H384 H 1.01079 0.2867 0.17052 0.0
H385 H 1.00386 0.35437 0.12537 0.0
C386 C 0.697 0.25347 0.93935 0.0
C387 C 0.69345 0.30661 0.96032 0.0
C388 C 0.63415 0.25145 0.03811 0.0
C389 C 0.63459 0.19988 1.01415 0.0
N390 N 0.67903 0.14771 0.95224 0.0
N391 N 0.65741 0.35694 1.0281 0.0
C392 C 0.66999 0.19975 0.96803 0.0
C393 C 0.66282 0.30525 1.01032 0.0
N394 N 0.72131 0.25569 0.88804 0.0
N395 N 0.60617 0.24898 0.08736 0.0
H396 H 0.67851 0.39598 1.00892 0.0
H397 H 0.63096 0.36209 0.05979 0.0
H398 H 0.58275 0.21152 0.10715 0.0
H399 H 0.60824 0.28261 0.11065 0.0
H400 H 0.7184 0.22104 0.86594 0.0
H401 H 0.74058 0.29404 0.86458 0.0
H402 H 0.70996 0.14314 0.92473 0.0
H403 H 0.6589 0.10769 0.97047 0.0
C404 C 0.05644 0.7508 0.51354 0.0
C405 C 0.05489 0.76829 0.45354 0.0
C406 C 0.11812 0.85298 0.46326 0.0
C407 C 0.10028 0.8473 0.51993 0.0
N408 N 0.06202 0.78486 0.60362 0.0
N409 N 0.10589 0.81965 0.37321 0.0
C410 C 0.07386 0.79334 0.54718 0.0
C411 C 0.09395 0.81362 0.42916 0.0
N412 N 0.03878 0.69475 0.53746 0.0
N413 N 0.1576 0.896 0.44287 0.0
H414 H 0.09445 0.7857 0.35175 0.0
H415 H 0.12889 0.85539 0.34981 0.0
H416 H 0.17574 0.92373 0.46861 0.0
H417 H 0.17472 0.90166 0.40266 0.0
H418 H 0.03985 0.6783 0.58101 0.0
H419 H 1.02983 0.66348 0.51213 0.0
H420 H 0.03752 0.74893 0.62472 0.0
H421 H 0.0757 0.81551 0.6285 0.0
C422 C 0.52447 0.69021 0.67753 0.0
C423 C 0.49713 0.73896 0.65005 0.0
C424 C 0.48008 0.69095 0.5683 0.0
C425 C 0.51408 0.64654 0.59277 0.0
N426 N 0.58539 0.61963 0.66151 0.0
N427 N 0.46256 0.79304 0.56226 0.0
C428 C 0.54124 0.65042 0.64485 0.0
C429 C 0.47896 0.74165 0.5931 0.0
N430 N 0.53329 0.6808 0.73473 0.0
N431 N 0.44882 0.68472 0.52198 0.0
H432 H 0.46453 0.83178 0.57846 0.0
H433 H 0.45278 0.79837 0.51919 0.0
H434 H 0.44754 0.64676 0.50441 0.0
H435 H 0.42042 0.71441 0.50503 0.0
H436 H 0.54998 0.64293 0.75668 0.0
H437 H 0.51853 0.70744 0.76055 0.0
H438 H 0.6085 0.62492 0.69734 0.0
H439 H 0.60251 0.59483 0.63571 0.0
C440 C 0.97906 0.94107 0.81444 0.0
C441 C 0.92885 0.90579 0.8151 0.0
C442 C 0.94348 0.90741 0.7112 0.0
C443 C 0.99319 0.94433 0.70957 0.0
N444 N 0.06055 0.9903 0.76553 0.0
N445 N 0.85665 0.87248 0.75742 0.0
C446 C 1.01161 0.95888 0.76305 0.0
C447 C 0.90955 0.89363 0.76157 0.0
N448 N 0.99286 0.96328 0.862 0.0
N449 N 0.92976 0.88177 0.66558 0.0
H450 H 0.8301 0.86401 0.79188 0.0
H451 H 0.83759 0.8694 0.71884 0.0
H452 H 0.95427 0.88675 0.62976 0.0
H453 H 0.89756 0.84974 0.66609 0.0
H454 H 1.02458 0.99512 0.86424 0.0
H455 H 0.96888 0.95392 0.89833 0.0
H456 H 0.08125 0.99317 0.80323 0.0
H457 H 0.08201 0.01232 0.73 0.0
C458 C 0.65074 0.02067 0.43411 0.0
C459 C 0.61945 0.0666 0.44223 0.0
C460 C 0.57967 0.07081 0.34941 0.0
C461 C 0.62316 0.04007 0.33415 0.0
N462 N 0.69315 0.97357 0.36563 0.0
N463 N 0.52278 0.0679 0.43024 0.0
C464 C 0.65637 0.01026 0.3779 0.0
C465 C 0.57321 0.07223 0.40716 0.0
N466 N 0.67069 0.98512 0.48038 0.0
N467 N 0.54618 0.10058 0.31018 0.0
H468 H 0.51748 0.05921 0.47425 0.0
H469 H 0.48746 0.06705 0.40556 0.0
H470 H 0.55209 0.10622 0.26655 0.0
H471 H 0.5157 0.12459 0.32219 0.0
H472 H 0.69092 0.94781 0.47819 0.0
H473 H 0.66248 0.99165 0.52124 0.0
H474 H 0.72191 0.95548 0.39488 0.0
H475 H 0.69538 0.96273 0.32549 0.0
C476 C 0.43809 0.67587 0.31771 0.0
C477 C 0.42638 0.64584 0.27223 0.0
C478 C 0.47061 0.55994 0.32553 0.0
C479 C 0.48539 0.59165 0.36929 0.0
N480 N 0.49506 0.68586 0.39916 0.0
N481 N 0.44382 0.56528 0.22682 0.0
C482 C 0.47305 0.6516 0.36278 0.0
C483 C 0.44641 0.58953 0.27446 0.0
N484 N 0.41359 0.72613 0.31955 0.0
N485 N 0.47962 0.50158 0.33261 0.0
H486 H 0.42897 0.5874 0.18828 0.0
H487 H 0.46166 0.52675 0.22374 0.0
H488 H 0.4988 0.47907 0.36849 0.0
H489 H 0.46461 0.47455 0.30489 0.0
H490 H 0.41584 0.74686 0.35454 0.0
H491 H 0.38667 0.74362 0.28822 0.0
H492 H 0.49203 0.73123 0.39275 0.0
H493 H 0.52018 0.67006 0.43313 0.0
C494 C 0.08906 0.40964 0.75845 0.0
C495 C 0.0933 0.44312 0.70228 0.0
C496 C 0.08527 0.53311 0.73866 0.0
C497 C 0.07605 0.49888 0.79372 0.0
N498 N 0.04962 0.40339 0.85067 0.0
N499 N 0.08298 0.53409 0.63735 0.0
C500 C 0.07223 0.43672 0.80228 0.0
C501 C 0.08709 0.5042 0.6919 0.0
N502 N 0.10307 0.35289 0.77089 0.0
N503 N 0.09365 0.59296 0.73159 0.0
H504 H 0.08412 0.513 0.60263 0.0
H505 H 0.07403 0.57804 0.62707 0.0
H506 H 0.09442 0.61494 0.76577 0.0
H507 H 0.10478 0.61989 0.69293 0.0
H508 H 0.10598 0.3295 0.81241 0.0
H509 H 0.11666 0.33103 0.74065 0.0
H510 H 0.0417 0.35781 0.85604 0.0
H511 H 1.03255 0.42145 0.88222 0.0
C512 C 0.78819 0.97817 0.98376 0.0
C513 C 0.77802 0.937 0.94708 0.0
C514 C 0.67984 0.93056 0.97259 0.0
C515 C 0.68909 0.97549 1.00601 0.0
N516 N 0.75311 0.04927 1.03394 0.0
N517 N 0.71285 0.88019 0.90054 0.0
C518 C 0.7437 1.00101 1.00918 0.0
C519 C 0.72329 0.9154 0.93965 0.0
N520 N 0.84095 0.99468 0.99531 0.0
N521 N 0.63013 0.89956 0.97487 0.0
H522 H 0.7438 0.86771 0.8772 0.0
H523 H 0.67377 0.86757 0.88787 0.0
H524 H 0.59849 0.90656 1.0005 0.0
H525 H 0.62182 0.86287 0.95611 0.0
H526 H 0.85222 0.0189 1.02661 0.0
H527 H 0.87373 0.98037 0.97604 0.0
H528 H 0.79046 0.07389 1.0322 0.0
H529 H 0.72243 0.06835 0.05171 0.0
C530 C 0.7639 0.06619 0.50296 0.0
C531 C 0.74482 0.09851 0.4513 0.0
C532 C 0.8285 0.08465 0.40392 0.0
C533 C 0.84502 0.04726 0.45436 0.0
N534 N 0.82184 0.9907 0.54703 0.0
N535 N 0.75407 0.13246 0.35092 0.0
C536 C 0.81053 0.03431 0.50246 0.0
C537 C 0.77538 0.1048 0.40093 0.0
N538 N 0.73849 0.06776 0.55269 0.0
N539 N 0.86485 0.10465 0.36091 0.0
H540 H 0.71501 0.14734 0.34837 0.0
H541 H 0.77318 0.13669 0.31184 0.0
H542 H 0.90536 0.09452 0.36335 0.0
H543 H 0.85668 0.13624 0.32531 0.0
H544 H 0.75406 0.04993 0.59241 0.0
H545 H 0.70356 0.09019 0.55404 0.0
H546 H 0.79561 0.97634 0.58135 0.0
H547 H 0.85457 0.96481 0.54658 0.0
C548 C 0.26565 0.5815 0.12758 0.0
C549 C 0.2767 0.64132 0.13117 0.0
C550 C 0.19303 0.66439 0.07627 0.0
C551 C 0.17837 0.60343 0.0808 0.0
N552 N 0.19473 0.50439 0.12783 0.0
N553 N 0.24443 0.73861 0.11826 0.0
C554 C 0.21305 0.56194 0.11102 0.0
C555 C 0.23878 0.68278 0.10764 0.0
N556 N 0.30549 0.54331 0.13944 0.0
N557 N 0.16283 0.7046 0.04293 0.0
H558 H 0.27553 0.75229 0.14367 0.0
H559 H 0.21537 0.76908 0.10684 0.0
H560 H 0.12901 0.69214 1.01988 0.0
H561 H 0.17424 0.74965 1.03424 0.0
H562 H 0.30038 0.49992 0.13313 0.0
H563 H 0.34512 0.55703 0.14957 0.0
H564 H 0.21701 0.47381 0.15449 0.0
H565 H 0.15504 0.48912 0.12046 0.0
C566 C 0.24761 0.36977 0.5483 0.0
C567 C 0.22879 0.36172 0.60504 0.0
C568 C 0.32351 0.3637 0.63931 0.0
C569 C 0.34143 0.37049 0.58275 0.0
N570 N 0.32282 0.36667 0.48509 0.0
N571 N 0.2493 0.34548 0.70586 0.0
C572 C 0.30399 0.36846 0.53787 0.0
C573 C 0.26698 0.3552 0.65098 0.0
N574 N 0.21253 0.38511 0.50435 0.0
N575 N 0.36051 0.37074 0.6812 0.0
H576 H 0.20955 0.35009 0.71692 0.0
H577 H 0.2739 0.33116 0.74074 0.0
H578 H 0.40228 0.37816 0.67395 0.0
H579 H 0.35001 0.3738 0.72232 0.0
H580 H 0.22456 0.39717 0.46204 0.0
H581 H 0.17221 0.39181 0.51102 0.0
H582 H 0.29741 0.35983 0.45139 0.0
H583 H 0.36429 0.36693 0.47671 0.0
C584 C 0.96084 0.80251 0.97684 0.0
C585 C 0.92358 0.80221 0.93033 0.0
C586 C 0.92225 0.69267 0.95071 0.0
C587 C 0.96289 0.69355 0.99375 0.0
N588 N 1.02639 0.75135 0.04194 0.0
N589 N 0.87298 0.74566 0.87053 0.0
C590 C 0.9839 0.74917 1.00485 0.0
C591 C 0.90633 0.74671 0.91629 0.0
N592 N 0.97133 0.85339 0.9971 0.0
N593 N 0.89614 0.63986 0.94504 0.0
H594 H 0.85876 0.78393 0.84704 0.0
H595 H 0.86303 0.70816 0.85339 0.0
H596 H 0.90514 0.60008 0.97064 0.0
H597 H 0.86237 0.63563 0.91901 0.0
H598 H 0.99284 0.85572 1.03449 0.0
H599 H 0.95415 0.8923 0.9792 0.0
H600 H 0.04808 0.79044 0.04697 0.0
H601 H 0.04219 0.71351 0.06509 0.0
C602 C 0.49284 0.76776 0.16378 0.0
C603 C 0.43645 0.76248 0.17562 0.0
C604 C 0.43246 0.86892 0.14349 0.0
C605 C 0.48963 0.87547 0.13536 0.0
N606 N 0.57599 0.83179 0.14384 0.0
N607 N 0.35622 0.80977 0.19173 0.0
C608 C 0.52055 0.82509 0.14819 0.0
C609 C 0.40783 0.8139 0.17089 0.0
N610 N 0.51898 0.71793 0.1644 0.0
N611 N 0.4008 0.91415 0.12286 0.0
H612 H 0.33662 0.7698 0.2114 0.0
H613 H 0.33523 0.84642 0.19459 0.0
H614 H 0.41629 0.9559 0.10294 0.0
H615 H 0.35842 0.90886 0.1216 0.0
H616 H 0.55875 0.71812 0.15036 0.0
H617 H 0.49925 0.67598 0.17605 0.0
H618 H 0.60102 0.79776 0.15796 0.0
H619 H 0.5973 0.8723 0.12879 0.0
C620 C 0.11854 0.23379 0.64297 0.0
C621 C 0.11829 0.28487 0.59972 0.0
C622 C 0.08353 0.22287 0.53265 0.0
C623 C 0.08052 0.17308 0.5775 0.0
N624 N 0.07555 0.13677 0.6782 0.0
N625 N 0.07997 0.32869 0.50966 0.0
C626 C 0.09186 0.18041 0.63365 0.0
C627 C 0.09484 0.27978 0.54611 0.0
N628 N 0.14435 0.236 0.69308 0.0
N629 N 0.0771 0.21627 0.47752 0.0
H630 H 0.08358 0.37042 0.52026 0.0
H631 H 0.05866 0.32657 0.47205 0.0
H632 H 0.06852 0.17539 0.46595 0.0
H633 H 0.08429 0.25122 0.44336 0.0
H634 H 0.14967 0.19885 0.7243 0.0
H635 H 0.16555 0.27406 0.70006 0.0
H636 H 0.07894 0.14162 0.72049 0.0
H637 H 0.05275 0.09855 0.67214 0.0
C638 C 0.66202 0.29835 0.50699 0.0
C639 C 0.65381 0.27829 0.45543 0.0
C640 C 0.62591 0.3749 0.40841 0.0
C641 C 0.63513 0.39525 0.46008 0.0
N642 N 0.67421 0.3816 0.55395 0.0
N643 N 0.63672 0.29715 0.355 0.0
C644 C 0.65726 0.3585 0.50788 0.0
C645 C 0.63855 0.31668 0.40529 0.0
N646 N 0.67241 0.25908 0.55549 0.0
N647 N 0.60382 0.41075 0.36324 0.0
H648 H 0.6452 0.25434 0.35234 0.0
H649 H 0.63028 0.32397 0.31578 0.0
H650 H 0.59721 0.45456 0.36387 0.0
H651 H 0.59056 0.39686 0.32616 0.0
H652 H 0.67287 0.26939 0.59591 0.0
H653 H 0.67641 0.21455 0.55581 0.0
H654 H 0.69486 0.35878 0.58849 0.0
H655 H 0.67258 0.42602 0.55432 0.0
loop_
_geom_bond_atom_site_label_1
_geom_bond_atom_site_label_2
_geom_bond_distance
_geom_bond_site_symmetry_2
_ccdc_geom_bond_type
C0 N1 1.317 . S
C0 N2 1.348 . S
C0 C3 1.485 . S
N1 C0 1.317 . S
N1 N5 1.370 . S
N2 C0 1.348 . S
N2 C4 1.346 . S
C3 C0 1.485 . S
C3 H7 0.960 . S
C3 H8 0.961 . S
C3 H9 0.960 . S
C4 N2 1.346 . S
C4 N5 1.307 . S
C4 C6 1.486 . S
N5 N1 1.370 . S
N5 C4 1.307 . S
C6 C4 1.486 . S
C6 H10 0.960 . S
C6 H11 0.960 . S
C6 H12 0.959 . S
H7 C3 0.960 . S
H8 C3 0.961 . S
H9 C3 0.960 . S
H10 C6 0.960 . S
H11 C6 0.960 . S
H12 C6 0.959 . S
C13 N14 1.317 . S
C13 N15 1.348 . S
C13 C16 1.485 . S
N14 C13 1.317 . S
N14 N18 1.370 . S
N15 C13 1.348 . S
N15 C17 1.346 . S
C16 C13 1.485 . S
C16 H20 0.960 . S
C16 H21 0.961 . S
C16 H22 0.960 . S
C17 N15 1.346 . S
C17 N18 1.307 . S
C17 C19 1.486 . S
N18 N14 1.370 . S
N18 C17 1.307 . S
C19 C17 1.486 . S
C19 H23 0.960 . S
C19 H24 0.960 . S
C19 H25 0.959 . S
H20 C16 0.960 . S
H21 C16 0.961 . S
H22 C16 0.960 . S
H23 C19 0.960 . S
H24 C19 0.960 . S
H25 C19 0.959 . S
C26 N27 1.317 . S
C26 N28 1.348 . S
C26 C29 1.485 . S
N27 C26 1.317 . S
N27 N31 1.370 . S
N28 C26 1.348 . S
N28 C30 1.346 . S
C29 C26 1.485 . S
C29 H33 0.960 . S
C29 H34 0.961 . S
C29 H35 0.960 . S
C30 N28 1.346 . S
C30 N31 1.307 . S
C30 C32 1.486 . S
N31 N27 1.370 . S
N31 C30 1.307 . S
C32 C30 1.486 . S
C32 H36 0.960 . S
C32 H37 0.960 . S
C32 H38 0.959 . S
H33 C29 0.960 . S
H34 C29 0.961 . S
H35 C29 0.960 . S
H36 C32 0.960 . S
H37 C32 0.960 . S
H38 C32 0.959 . S
C39 N40 1.317 . S
C39 N41 1.348 . S
C39 C42 1.485 . S
N40 C39 1.317 . S
N40 N44 1.370 . S
N41 C39 1.348 . S
N41 C43 1.346 . S
C42 C39 1.485 . S
C42 H46 0.960 . S
C42 H47 0.961 . S
C42 H48 0.960 . S
C43 N41 1.346 . S
C43 N44 1.307 . S
C43 C45 1.486 . S
N44 N40 1.370 . S
N44 C43 1.307 . S
C45 C43 1.486 . S
C45 H49 0.960 . S
C45 H50 0.960 . S
C45 H51 0.959 . S
H46 C42 0.960 . S
H47 C42 0.961 . S
H48 C42 0.960 . S
H49 C45 0.960 . S
H50 C45 0.960 . S
H51 C45 0.959 . S
C52 N53 1.317 . S
C52 N54 1.348 . S
C52 C55 1.485 . S
N53 C52 1.317 . S
N53 N57 1.370 . S
N54 C52 1.348 . S
N54 C56 1.346 . S
C55 C52 1.485 . S
C55 H59 0.960 . S
C55 H60 0.961 1_556 S
C55 H61 0.960 1_556 S
C56 N54 1.346 . S
C56 N57 1.307 . S
C56 C58 1.486 1_565 S
N57 N53 1.370 . S
N57 C56 1.307 . S
C58 C56 1.486 1_545 S
C58 H62 0.960 . S
C58 H63 0.960 . S
C58 H64 0.959 . S
H59 C55 0.960 . S
H60 C55 0.961 1_554 S
H61 C55 0.960 1_554 S
H62 C58 0.960 . S
H63 C58 0.960 . S
H64 C58 0.959 . S
C65 N66 1.317 . S
C65 N67 1.348 . S
C65 C68 1.485 . S
N66 C65 1.317 . S
N66 N70 1.370 . S
N67 C65 1.348 . S
N67 C69 1.346 . S
C68 C65 1.485 . S
C68 H72 0.960 . S
C68 H73 0.961 . S
C68 H74 0.960 . S
C69 N67 1.346 . S
C69 N70 1.307 . S
C69 C71 1.486 . S
N70 N66 1.370 . S
N70 C69 1.307 . S
C71 C69 1.486 . S
C71 H75 0.960 . S
C71 H76 0.960 . S
C71 H77 0.959 . S
H72 C68 0.960 . S
H73 C68 0.961 . S
H74 C68 0.960 . S
H75 C71 0.960 . S
H76 C71 0.960 . S
H77 C71 0.959 . S
C78 N79 1.317 . S
C78 N80 1.348 . S
C78 C81 1.485 . S
N79 C78 1.317 . S
N79 N83 1.370 . S
N80 C78 1.348 . S
N80 C82 1.346 . S
C81 C78 1.485 . S
C81 H85 0.960 . S
C81 H86 0.961 . S
C81 H87 0.960 . S
C82 N80 1.346 . S
C82 N83 1.307 . S
C82 C84 1.486 . S
N83 N79 1.370 . S
N83 C82 1.307 . S
C84 C82 1.486 . S
C84 H88 0.960 . S
C84 H89 0.960 . S
C84 H90 0.959 . S
H85 C81 0.960 . S
H86 C81 0.961 . S
H87 C81 0.960 . S
H88 C84 0.960 . S
H89 C84 0.960 . S
H90 C84 0.959 . S
C91 N92 1.317 . S
C91 N93 1.348 . S
C91 C94 1.485 . S
N92 C91 1.317 . S
N92 N96 1.370 . S
N93 C91 1.348 . S
N93 C95 1.346 . S
C94 C91 1.485 . S
C94 H98 0.960 1_455 S
C94 H99 0.961 . S
C94 H100 0.960 . S
C95 N93 1.346 . S
C95 N96 1.307 . S
C95 C97 1.486 . S
N96 N92 1.370 . S
N96 C95 1.307 . S
C97 C95 1.486 . S
C97 H101 0.960 . S
C97 H102 0.960 . S
C97 H103 0.959 . S
H98 C94 0.960 1_655 S
H99 C94 0.961 . S
H100 C94 0.960 . S
H101 C97 0.960 . S
H102 C97 0.960 . S
H103 C97 0.959 . S
Co104 N109 2.057 . S
Co104 O121 2.021 1_655 S
Co104 O124 2.062 1_655 S
Co104 O128 2.117 1_545 S
Co104 O129 2.020 . S
C105 O125 1.259 . S
C105 O128 1.258 1_455 S
Co106 N115 2.057 . S
Co106 O122 2.117 1_565 S
Co106 O123 2.020 1_565 S
Co106 O125 2.021 . S
Co106 O130 2.062 . S
C107 N109 1.316 . S
C107 N110 1.347 . S
C107 H112 0.931 . S
C108 N109 1.375 . S
C108 C111 1.350 . S
C108 H113 0.930 1_545 S
N109 Co104 2.057 . S
N109 C107 1.316 . S
N109 C108 1.375 . S
N110 C107 1.347 . S
N110 C111 1.373 . S
C111 C108 1.350 . S
C111 N110 1.373 . S
C111 H132 0.931 . S
H112 C107 0.931 . S
H113 C108 0.930 1_565 S
C114 O121 1.259 . S
C114 O122 1.258 . S
N115 Co106 2.057 . S
N115 C116 1.316 . S
N115 C117 1.375 1_565 S
C116 N115 1.316 . S
C116 N118 1.347 . S
C116 H127 0.931 . S
C117 N115 1.375 1_545 S
C117 C119 1.350 . S
C117 H126 0.930 . S
N118 C116 1.347 . S
N118 C119 1.373 1_565 S
C119 C117 1.350 . S
C119 N118 1.373 1_545 S
C119 H133 0.931 . S
C120 O123 1.256 . S
C120 O124 1.255 . S
O121 Co104 2.021 1_455 S
O121 C114 1.259 . S
O122 Co106 2.117 1_545 S
O122 C114 1.258 . S
O123 Co106 2.020 1_545 S
O123 C120 1.256 . S
O124 Co104 2.062 1_455 S
O124 C120 1.255 . S
O125 C105 1.259 . S
O125 Co106 2.021 . S
H126 C117 0.930 . S
H127 C116 0.931 . S
O128 Co104 2.117 1_565 S
O128 C105 1.258 1_655 S
O129 Co104 2.020 . S
O129 C131 1.256 1_645 S
O130 Co106 2.062 . S
O130 C131 1.255 . S
C131 O129 1.256 1_465 S
C131 O130 1.255 . S
H132 C111 0.931 . S
H133 C119 0.931 . S
Co134 N139 2.057 1_545 S
Co134 O151 2.021 . S
Co134 O154 2.062 1_545 S
Co134 O158 2.117 1_546 S
Co134 O159 2.020 1_556 S
C135 O155 1.259 . S
C135 O158 1.258 . S
Co136 N145 2.057 . S
Co136 O152 2.117 . S
Co136 O153 2.020 . S
Co136 O155 2.021 1_545 S
Co136 O160 2.062 . S
C137 N139 1.316 . S
C137 N140 1.347 . S
C137 H142 0.931 1_565 S
C138 N139 1.375 . S
C138 C141 1.350 . S
C138 H143 0.930 . S
N139 Co134 2.057 1_565 S
N139 C137 1.316 . S
N139 C138 1.375 . S
N140 C137 1.347 . S
N140 C141 1.373 . S
C141 C138 1.350 . S
C141 N140 1.373 . S
C141 H162 0.931 . S
H142 C137 0.931 1_545 S
H143 C138 0.930 . S
C144 O151 1.259 . S
C144 O152 1.258 1_556 S
N145 Co136 2.057 . S
N145 C146 1.316 . S
N145 C147 1.375 . S
C146 N145 1.316 . S
C146 N148 1.347 . S
C146 H157 0.931 . S
C147 N145 1.375 . S
C147 C149 1.350 . S
C147 H156 0.930 . S
N148 C146 1.347 . S
N148 C149 1.373 . S
C149 C147 1.350 . S
C149 N148 1.373 . S
C149 H163 0.931 . S
C150 O153 1.256 1_565 S
C150 O154 1.255 1_554 S
O151 Co134 2.021 . S
O151 C144 1.259 . S
O152 Co136 2.117 . S
O152 C144 1.258 1_554 S
O153 Co136 2.020 . S
O153 C150 1.256 1_545 S
O154 Co134 2.062 1_565 S
O154 C150 1.255 1_556 S
O155 C135 1.259 . S
O155 Co136 2.021 1_565 S
H156 C147 0.930 . S
H157 C146 0.931 . S
O158 Co134 2.117 1_564 S
O158 C135 1.258 . S
O159 Co134 2.020 1_554 S
O159 C161 1.256 . S
O160 Co136 2.062 . S
O160 C161 1.255 . S
C161 O159 1.256 . S
C161 O160 1.255 . S
H162 C141 0.931 . S
H163 C149 0.931 . S
Co164 N169 2.057 . S
Co164 O181 2.021 . S
Co164 O184 2.062 . S
Co164 O188 2.117 . S
Co164 O189 2.020 . S
C165 O185 1.259 . S
C165 O188 1.258 . S
Co166 N175 2.057 . S
Co166 O182 2.117 . S
Co166 O183 2.020 . S
Co166 O185 2.021 . S
Co166 O190 2.062 . S
C167 N169 1.316 . S
C167 N170 1.347 . S
C167 H172 0.931 . S
C168 N169 1.375 . S
C168 C171 1.350 . S
C168 H173 0.930 . S
N169 Co164 2.057 . S
N169 C167 1.316 . S
N169 C168 1.375 . S
N170 C167 1.347 . S
N170 C171 1.373 . S
C171 C168 1.350 . S
C171 N170 1.373 . S
C171 H192 0.931 . S
H172 C167 0.931 . S
H173 C168 0.930 . S
C174 O181 1.259 . S
C174 O182 1.258 . S
N175 Co166 2.057 . S
N175 C176 1.316 . S
N175 C177 1.375 . S
C176 N175 1.316 . S
C176 N178 1.347 . S
C176 H187 0.931 . S
C177 N175 1.375 . S
C177 C179 1.350 . S
C177 H186 0.930 . S
N178 C176 1.347 . S
N178 C179 1.373 . S
C179 C177 1.350 . S
C179 N178 1.373 . S
C179 H193 0.931 . S
C180 O183 1.256 . S
C180 O184 1.255 . S
O181 Co164 2.021 . S
O181 C174 1.259 . S
O182 Co166 2.117 . S
O182 C174 1.258 . S
O183 Co166 2.020 . S
O183 C180 1.256 . S
O184 Co164 2.062 . S
O184 C180 1.255 . S
O185 C165 1.259 . S
O185 Co166 2.021 . S
H186 C177 0.930 . S
H187 C176 0.931 . S
O188 Co164 2.117 . S
O188 C165 1.258 . S
O189 Co164 2.020 . S
O189 C191 1.256 . S
O190 Co166 2.062 . S
O190 C191 1.255 . S
C191 O189 1.256 . S
C191 O190 1.255 . S
H192 C171 0.931 . S
H193 C179 0.931 . S
Co194 N199 2.057 . S
Co194 O211 2.021 . S
Co194 O214 2.062 . S
Co194 O218 2.117 1_455 S
Co194 O219 2.020 . S
C195 O215 1.259 1_556 S
C195 O218 1.258 . S
Co196 N205 2.057 . S
Co196 O212 2.117 1_655 S
Co196 O213 2.020 1_655 S
Co196 O215 2.021 . S
Co196 O220 2.062 . S
C197 N199 1.316 . S
C197 N200 1.347 . S
C197 H202 0.931 . S
C198 N199 1.375 1_655 S
C198 C201 1.350 1_655 S
C198 H203 0.930 . S
N199 Co194 2.057 . S
N199 C197 1.316 . S
N199 C198 1.375 1_455 S
N200 C197 1.347 . S
N200 C201 1.373 . S
C201 C198 1.350 1_455 S
C201 N200 1.373 . S
C201 H222 0.931 1_455 S
H202 C197 0.931 . S
H203 C198 0.930 . S
C204 O211 1.259 1_554 S
C204 O212 1.258 . S
N205 Co196 2.057 . S
N205 C206 1.316 . S
N205 C207 1.375 1_655 S
C206 N205 1.316 . S
C206 N208 1.347 . S
C206 H217 0.931 . S
C207 N205 1.375 1_455 S
C207 C209 1.350 . S
C207 H216 0.930 . S
N208 C206 1.347 . S
N208 C209 1.373 1_655 S
C209 C207 1.350 . S
C209 N208 1.373 1_455 S
C209 H223 0.931 . S
C210 O213 1.256 . S
C210 O214 1.255 1_554 S
O211 Co194 2.021 . S
O211 C204 1.259 1_556 S
O212 Co196 2.117 1_455 S
O212 C204 1.258 . S
O213 Co196 2.020 1_455 S
O213 C210 1.256 . S
O214 Co194 2.062 . S
O214 C210 1.255 1_556 S
O215 C195 1.259 1_554 S
O215 Co196 2.021 . S
H216 C207 0.930 . S
H217 C206 0.931 . S
O218 Co194 2.117 1_655 S
O218 C195 1.258 . S
O219 Co194 2.020 . S
O219 C221 1.256 1_455 S
O220 Co196 2.062 . S
O220 C221 1.255 1_554 S
C221 O219 1.256 1_655 S
C221 O220 1.255 1_556 S
H222 C201 0.931 1_655 S
H223 C209 0.931 . S
C224 C225 1.363 . S
C224 C230 1.379 . S
C224 N232 1.356 . S
C225 C224 1.363 . S
C225 C231 1.363 . S
C226 C227 1.363 . S
C226 C231 1.379 . S
C226 N233 1.351 1_545 S
C227 C226 1.363 . S
C227 C230 1.363 . S
N228 C230 1.356 . S
N228 H240 0.984 . S
N228 H241 0.985 . S
N229 C231 1.356 . S
N229 H234 0.984 . S
N229 H235 0.985 1_545 S
C230 C224 1.379 . S
C230 C227 1.363 . S
C230 N228 1.356 . S
C231 C225 1.363 . S
C231 C226 1.379 . S
C231 N229 1.356 . S
N232 C224 1.356 . S
N232 H238 0.984 . S
N232 H239 0.984 . S
N233 C226 1.351 1_565 S
N233 H236 0.983 1_565 S
N233 H237 0.991 . S
H234 N229 0.984 . S
H235 N229 0.985 1_565 S
H236 N233 0.983 1_545 S
H237 N233 0.991 . S
H238 N232 0.984 . S
H239 N232 0.984 . S
H240 N228 0.984 . S
H241 N228 0.985 . S
C242 C243 1.363 . S
C242 C248 1.379 . S
C242 N250 1.356 . S
C243 C242 1.363 . S
C243 C249 1.363 . S
C244 C245 1.363 . S
C244 C249 1.379 . S
C244 N251 1.356 . S
C245 C244 1.363 . S
C245 C248 1.363 . S
N246 C248 1.356 1_545 S
N246 H258 0.984 . S
N246 H259 0.985 . S
N247 C249 1.356 . S
N247 H252 0.984 . S
N247 H253 0.985 . S
C248 C242 1.379 . S
C248 C245 1.363 . S
C248 N246 1.356 1_565 S
C249 C243 1.363 . S
C249 C244 1.379 . S
C249 N247 1.356 . S
N250 C242 1.356 . S
N250 H256 0.984 1_565 S
N250 H257 0.984 . S
N251 C244 1.356 . S
N251 H254 0.984 . S
N251 H255 0.985 . S
H252 N247 0.984 . S
H253 N247 0.985 . S
H254 N251 0.984 . S
H255 N251 0.985 . S
H256 N250 0.984 1_545 S
H257 N250 0.984 . S
H258 N246 0.984 . S
H259 N246 0.985 . S
C260 C261 1.363 . S
C260 C266 1.379 . S
C260 N268 1.356 . S
C261 C260 1.363 . S
C261 C267 1.363 . S
C262 C263 1.363 . S
C262 C267 1.379 . S
C262 N269 1.356 . S
C263 C262 1.363 . S
C263 C266 1.363 . S
N264 C266 1.356 . S
N264 H276 0.984 . S
N264 H277 0.985 . S
N265 C267 1.356 . S
N265 H270 0.984 . S
N265 H271 0.985 . S
C266 C260 1.379 . S
C266 C263 1.363 . S
C266 N264 1.356 . S
C267 C261 1.363 . S
C267 C262 1.379 . S
C267 N265 1.356 . S
N268 C260 1.356 . S
N268 H274 0.984 . S
N268 H275 0.984 . S
N269 C262 1.356 . S
N269 H272 0.984 . S
N269 H273 0.985 . S
H270 N265 0.984 . S
H271 N265 0.985 . S
H272 N269 0.984 . S
H273 N269 0.985 . S
H274 N268 0.984 . S
H275 N268 0.984 . S
H276 N264 0.984 . S
H277 N264 0.985 . S
C278 C279 1.363 . S
C278 C284 1.379 . S
C278 N286 1.356 1_655 S
C279 C278 1.363 . S
C279 C285 1.363 . S
C280 C281 1.363 . S
C280 C285 1.379 . S
C280 N287 1.356 . S
C281 C280 1.363 . S
C281 C284 1.363 . S
N282 C284 1.356 . S
N282 H294 0.984 1_655 S
N282 H295 0.985 . S
N283 C285 1.356 . S
N283 H288 0.984 . S
N283 H289 0.985 . S
C284 C278 1.379 . S
C284 C281 1.363 . S
C284 N282 1.356 . S
C285 C279 1.363 . S
C285 C280 1.379 . S
C285 N283 1.356 . S
N286 C278 1.356 1_455 S
N286 H292 0.984 . S
N286 H293 0.984 . S
N287 C280 1.356 . S
N287 H290 0.984 . S
N287 H291 0.985 . S
H288 N283 0.984 . S
H289 N283 0.985 . S
H290 N287 0.984 . S
H291 N287 0.985 . S
H292 N286 0.984 . S
H293 N286 0.984 . S
H294 N282 0.984 1_455 S
H295 N282 0.985 . S
C296 C297 1.363 . S
C296 C302 1.379 . S
C296 N304 1.356 . S
C297 C296 1.363 . S
C297 C303 1.363 . S
C298 C299 1.363 . S
C298 C303 1.379 . S
C298 N305 1.373 . S
C299 C298 1.363 . S
C299 C302 1.363 . S
N300 C302 1.356 . S
N300 H312 0.988 . S
N300 H313 0.985 . S
N301 C303 1.356 . S
N301 H306 0.984 . S
N301 H307 0.985 1_545 S
C302 C296 1.379 . S
C302 C299 1.363 . S
C302 N300 1.356 . S
C303 C297 1.363 . S
C303 C298 1.379 . S
C303 N301 1.356 . S
N304 C296 1.356 . S
N304 H310 0.984 . S
N304 H311 0.984 . S
N305 C298 1.373 . S
N305 H308 0.983 . S
N305 H309 0.970 1_545 S
H306 N301 0.984 . S
H307 N301 0.985 1_565 S
H308 N305 0.983 . S
H309 N305 0.970 1_565 S
H310 N304 0.984 . S
H311 N304 0.984 . S
H312 N300 0.988 . S
H313 N300 0.985 . S
C314 C315 1.363 . S
C314 C320 1.379 . S
C314 N322 1.356 . S
C315 C314 1.363 . S
C315 C321 1.363 . S
C316 C317 1.363 . S
C316 C321 1.379 . S
C316 N323 1.356 . S
C317 C316 1.363 . S
C317 C320 1.363 . S
N318 C320 1.356 . S
N318 H330 0.984 1_565 S
N318 H331 0.985 . S
N319 C321 1.356 . S
N319 H324 0.984 . S
N319 H325 0.985 . S
C320 C314 1.379 . S
C320 C317 1.363 . S
C320 N318 1.356 . S
C321 C315 1.363 . S
C321 C316 1.379 . S
C321 N319 1.356 . S
N322 C314 1.356 . S
N322 H328 0.984 . S
N322 H329 0.984 . S
N323 C316 1.356 . S
N323 H326 0.984 . S
N323 H327 0.985 . S
H324 N319 0.984 . S
H325 N319 0.985 . S
H326 N323 0.984 . S
H327 N323 0.985 . S
H328 N322 0.984 . S
H329 N322 0.984 . S
H330 N318 0.984 1_545 S
H331 N318 0.985 . S
C332 C333 1.363 . S
C332 C338 1.379 . S
C332 N340 1.356 . S
C333 C332 1.363 . S
C333 C339 1.363 . S
C334 C335 1.363 . S
C334 C339 1.379 . S
C334 N341 1.356 . S
C335 C334 1.363 . S
C335 C338 1.363 . S
N336 C338 1.356 1_554 S
N336 H348 0.984 . S
N336 H349 0.985 . S
N337 C339 1.356 . S
N337 H342 0.984 . S
N337 H343 0.985 . S
C338 C332 1.379 . S
C338 C335 1.363 . S
C338 N336 1.356 1_556 S
C339 C333 1.363 . S
C339 C334 1.379 . S
C339 N337 1.356 . S
N340 C332 1.356 . S
N340 H346 0.984 1_556 S
N340 H347 0.984 . S
N341 C334 1.356 . S
N341 H344 0.984 . S
N341 H345 0.985 . S
H342 N337 0.984 . S
H343 N337 0.985 . S
H344 N341 0.984 . S
H345 N341 0.985 . S
H346 N340 0.984 1_554 S
H347 N340 0.984 . S
H348 N336 0.984 . S
H349 N336 0.985 . S
C350 C351 1.363 . S
C350 C356 1.379 . S
C350 N358 1.356 . S
C351 C350 1.363 . S
C351 C357 1.363 . S
C352 C353 1.363 . S
C352 C357 1.379 . S
C352 N359 1.356 . S
C353 C352 1.363 . S
C353 C356 1.363 . S
N354 C356 1.356 . S
N354 H366 0.984 . S
N354 H367 0.985 . S
N355 C357 1.356 . S
N355 H360 0.984 . S
N355 H361 0.985 . S
C356 C350 1.379 . S
C356 C353 1.363 . S
C356 N354 1.356 . S
C357 C351 1.363 . S
C357 C352 1.379 . S
C357 N355 1.356 . S
N358 C350 1.356 . S
N358 H364 0.984 . S
N358 H365 0.984 . S
N359 C352 1.356 . S
N359 H362 0.984 . S
N359 H363 0.985 . S
H360 N355 0.984 . S
H361 N355 0.985 . S
H362 N359 0.984 . S
H363 N359 0.985 . S
H364 N358 0.984 . S
H365 N358 0.984 . S
H366 N354 0.984 . S
H367 N354 0.985 . S
C368 C369 1.363 . S
C368 C374 1.379 . S
C368 N376 1.356 . S
C369 C368 1.363 . S
C369 C375 1.363 . S
C370 C371 1.363 . S
C370 C375 1.379 . S
C370 N377 1.356 1_554 S
C371 C370 1.363 . S
C371 C374 1.363 . S
N372 C374 1.356 . S
N372 H384 0.984 . S
N372 H385 0.985 . S
N373 C375 1.356 . S
N373 H378 0.984 . S
N373 H379 0.985 1_554 S
C374 C368 1.379 . S
C374 C371 1.363 . S
C374 N372 1.356 . S
C375 C369 1.363 . S
C375 C370 1.379 . S
C375 N373 1.356 . S
N376 C368 1.356 . S
N376 H382 0.984 . S
N376 H383 0.984 . S
N377 C370 1.356 1_556 S
N377 H380 0.984 . S
N377 H381 0.985 . S
H378 N373 0.984 . S
H379 N373 0.985 1_556 S
H380 N377 0.984 . S
H381 N377 0.985 . S
H382 N376 0.984 . S
H383 N376 0.984 . S
H384 N372 0.984 . S
H385 N372 0.985 . S
C386 C387 1.363 . S
C386 C392 1.379 . S
C386 N394 1.356 . S
C387 C386 1.363 . S
C387 C393 1.363 . S
C388 C389 1.363 . S
C388 C393 1.379 . S
C388 N395 1.356 1_556 S
C389 C388 1.363 . S
C389 C392 1.363 . S
N390 C392 1.356 . S
N390 H402 0.984 . S
N390 H403 0.985 . S
N391 C393 1.359 . S
N391 H396 0.988 . S
N391 H397 0.978 1_556 S
C392 C386 1.379 . S
C392 C389 1.363 . S
C392 N390 1.356 . S
C393 C387 1.363 . S
C393 C388 1.379 . S
C393 N391 1.359 . S
N394 C386 1.356 . S
N394 H400 0.984 . S
N394 H401 0.984 . S
N395 C388 1.356 1_554 S
N395 H398 0.984 . S
N395 H399 0.985 . S
H396 N391 0.988 . S
H397 N391 0.978 1_554 S
H398 N395 0.984 . S
H399 N395 0.985 . S
H400 N394 0.984 . S
H401 N394 0.984 . S
H402 N390 0.984 . S
H403 N390 0.985 . S
C404 C405 1.363 . S
C404 C410 1.379 . S
C404 N412 1.356 . S
C405 C404 1.363 . S
C405 C411 1.363 1_655 S
C406 C407 1.363 . S
C406 C411 1.379 . S
C406 N413 1.356 . S
C407 C406 1.363 . S
C407 C410 1.363 1_455 S
N408 C410 1.356 . S
N408 H420 0.984 . S
N408 H421 0.985 . S
N409 C411 1.356 . S
N409 H414 0.984 . S
N409 H415 0.985 . S
C410 C404 1.379 . S
C410 C407 1.363 1_655 S
C410 N408 1.356 . S
C411 C405 1.363 1_455 S
C411 C406 1.379 . S
C411 N409 1.356 . S
N412 C404 1.356 . S
N412 H418 0.984 . S
N412 H419 0.984 . S
N413 C406 1.356 . S
N413 H416 0.984 . S
N413 H417 0.985 . S
H414 N409 0.984 . S
H415 N409 0.985 . S
H416 N413 0.984 . S
H417 N413 0.985 . S
H418 N412 0.984 . S
H419 N412 0.984 . S
H420 N408 0.984 . S
H421 N408 0.985 . S
C422 C423 1.363 . S
C422 C428 1.379 . S
C422 N430 1.356 . S
C423 C422 1.363 . S
C423 C429 1.363 . S
C424 C425 1.363 . S
C424 C429 1.379 . S
C424 N431 1.356 . S
C425 C424 1.363 . S
C425 C428 1.363 . S
N426 C428 1.356 . S
N426 H438 0.984 . S
N426 H439 0.985 . S
N427 C429 1.356 . S
N427 H432 0.984 . S
N427 H433 0.985 . S
C428 C422 1.379 . S
C428 C425 1.363 . S
C428 N426 1.356 . S
C429 C423 1.363 . S
C429 C424 1.379 . S
C429 N427 1.356 . S
N430 C422 1.356 . S
N430 H436 0.984 . S
N430 H437 0.984 . S
N431 C424 1.356 . S
N431 H434 0.984 . S
N431 H435 0.985 . S
H432 N427 0.984 . S
H433 N427 0.985 . S
H434 N431 0.984 . S
H435 N431 0.985 . S
H436 N430 0.984 . S
H437 N430 0.984 . S
H438 N426 0.984 . S
H439 N426 0.985 . S
C440 C441 1.363 . S
C440 C446 1.379 . S
C440 N448 1.356 1_565 S
C441 C440 1.363 . S
C441 C447 1.363 . S
C442 C443 1.363 1_455 S
C442 C447 1.379 1_455 S
C442 N449 1.356 . S
C443 C442 1.363 1_655 S
C443 C446 1.363 . S
N444 C446 1.356 1_545 S
N444 H456 0.984 . S
N444 H457 0.985 . S
N445 C447 1.356 . S
N445 H450 0.984 . S
N445 H451 0.985 1_655 S
C446 C440 1.379 . S
C446 C443 1.363 . S
C446 N444 1.356 1_565 S
C447 C441 1.363 . S
C447 C442 1.379 1_655 S
C447 N445 1.356 . S
N448 C440 1.356 1_545 S
N448 H454 0.984 . S
N448 H455 0.983 1_545 S
N449 C442 1.356 . S
N449 H452 0.984 . S
N449 H453 0.985 . S
H450 N445 0.984 . S
H451 N445 0.985 1_455 S
H452 N449 0.984 . S
H453 N449 0.985 . S
H454 N448 0.984 . S
H455 N448 0.983 1_565 S
H456 N444 0.984 . S
H457 N444 0.985 . S
C458 C459 1.363 . S
C458 C464 1.379 . S
C458 N466 1.356 . S
C459 C458 1.363 . S
C459 C465 1.363 . S
C460 C461 1.363 . S
C460 C465 1.379 . S
C460 N467 1.356 . S
C461 C460 1.363 . S
C461 C464 1.363 . S
N462 C464 1.356 . S
N462 H474 0.984 . S
N462 H475 0.985 . S
N463 C465 1.356 . S
N463 H468 0.984 . S
N463 H469 0.985 . S
C464 C458 1.379 . S
C464 C461 1.363 . S
C464 N462 1.356 . S
C465 C459 1.363 . S
C465 C460 1.379 . S
C465 N463 1.356 . S
N466 C458 1.356 . S
N466 H472 0.984 . S
N466 H473 0.984 . S
N467 C460 1.356 . S
N467 H470 0.984 . S
N467 H471 0.985 . S
H468 N463 0.984 . S
H469 N463 0.985 . S
H470 N467 0.984 . S
H471 N467 0.985 . S
H472 N466 0.984 . S
H473 N466 0.984 . S
H474 N462 0.984 . S
H475 N462 0.985 . S
C476 C477 1.363 . S
C476 C482 1.379 . S
C476 N484 1.356 . S
C477 C476 1.363 . S
C477 C483 1.363 . S
C478 C479 1.363 . S
C478 C483 1.379 . S
C478 N485 1.356 . S
C479 C478 1.363 . S
C479 C482 1.363 . S
N480 C482 1.356 . S
N480 H492 0.984 . S
N480 H493 0.985 . S
N481 C483 1.356 . S
N481 H486 0.984 . S
N481 H487 0.985 . S
C482 C476 1.379 . S
C482 C479 1.363 . S
C482 N480 1.356 . S
C483 C477 1.363 . S
C483 C478 1.379 . S
C483 N481 1.356 . S
N484 C476 1.356 . S
N484 H490 0.984 . S
N484 H491 0.984 . S
N485 C478 1.356 . S
N485 H488 0.984 . S
N485 H489 0.985 . S
H486 N481 0.984 . S
H487 N481 0.985 . S
H488 N485 0.984 . S
H489 N485 0.985 . S
H490 N484 0.984 . S
H491 N484 0.984 . S
H492 N480 0.984 . S
H493 N480 0.985 . S
C494 C495 1.363 . S
C494 C500 1.379 . S
C494 N502 1.356 . S
C495 C494 1.363 . S
C495 C501 1.363 . S
C496 C497 1.363 . S
C496 C501 1.379 . S
C496 N503 1.356 . S
C497 C496 1.363 . S
C497 C500 1.363 . S
N498 C500 1.356 . S
N498 H510 0.984 . S
N498 H511 0.985 . S
N499 C501 1.356 . S
N499 H504 0.984 . S
N499 H505 0.985 . S
C500 C494 1.379 . S
C500 C497 1.363 . S
C500 N498 1.356 . S
C501 C495 1.363 . S
C501 C496 1.379 . S
C501 N499 1.356 . S
N502 C494 1.356 . S
N502 H508 0.984 . S
N502 H509 0.984 . S
N503 C496 1.356 . S
N503 H506 0.984 . S
N503 H507 0.985 . S
H504 N499 0.984 . S
H505 N499 0.985 . S
H506 N503 0.984 . S
H507 N503 0.985 . S
H508 N502 0.984 . S
H509 N502 0.984 . S
H510 N498 0.984 . S
H511 N498 0.985 . S
C512 C513 1.363 1_545 S
C512 C518 1.379 . S
C512 N520 1.356 . S
C513 C512 1.363 1_565 S
C513 C519 1.363 . S
C514 C515 1.363 1_554 S
C514 C519 1.379 1_554 S
C514 N521 1.356 . S
C515 C514 1.363 1_556 S
C515 C518 1.363 1_565 S
N516 C518 1.356 . S
N516 H528 0.984 . S
N516 H529 0.985 . S
N517 C519 1.356 . S
N517 H522 0.984 . S
N517 H523 0.985 1_556 S
C518 C512 1.379 . S
C518 C515 1.363 1_545 S
C518 N516 1.356 . S
C519 C513 1.363 . S
C519 C514 1.379 1_556 S
C519 N517 1.356 . S
N520 C512 1.356 . S
N520 H526 0.984 . S
N520 H527 0.984 . S
N521 C514 1.356 . S
N521 H524 0.984 . S
N521 H525 0.985 . S
H522 N517 0.984 . S
H523 N517 0.985 1_554 S
H524 N521 0.984 . S
H525 N521 0.985 . S
H526 N520 0.984 . S
H527 N520 0.984 . S
H528 N516 0.984 . S
H529 N516 0.985 . S
C530 C531 1.363 . S
C530 C536 1.379 . S
C530 N538 1.356 . S
C531 C530 1.363 . S
C531 C537 1.363 . S
C532 C533 1.363 . S
C532 C537 1.379 . S
C532 N539 1.356 . S
C533 C532 1.363 . S
C533 C536 1.363 . S
N534 C536 1.356 . S
N534 H546 0.984 . S
N534 H547 0.985 . S
N535 C537 1.356 . S
N535 H540 0.984 . S
N535 H541 0.985 . S
C536 C530 1.379 . S
C536 C533 1.363 . S
C536 N534 1.356 . S
C537 C531 1.363 . S
C537 C532 1.379 . S
C537 N535 1.356 . S
N538 C530 1.356 . S
N538 H544 0.984 . S
N538 H545 0.984 . S
N539 C532 1.356 . S
N539 H542 0.984 . S
N539 H543 0.985 . S
H540 N535 0.984 . S
H541 N535 0.985 . S
H542 N539 0.984 . S
H543 N539 0.985 . S
H544 N538 0.984 . S
H545 N538 0.984 . S
H546 N534 0.984 . S
H547 N534 0.985 . S
C548 C549 1.363 . S
C548 C554 1.379 . S
C548 N556 1.356 . S
C549 C548 1.363 . S
C549 C555 1.363 . S
C550 C551 1.363 . S
C550 C555 1.379 . S
C550 N557 1.356 . S
C551 C550 1.363 . S
C551 C554 1.363 . S
N552 C554 1.356 . S
N552 H564 0.984 . S
N552 H565 0.985 . S
N553 C555 1.356 . S
N553 H558 0.984 . S
N553 H559 0.985 . S
C554 C548 1.379 . S
C554 C551 1.363 . S
C554 N552 1.356 . S
C555 C549 1.363 . S
C555 C550 1.379 . S
C555 N553 1.356 . S
N556 C548 1.356 . S
N556 H562 0.984 . S
N556 H563 0.984 . S
N557 C550 1.356 . S
N557 H560 0.984 . S
N557 H561 0.981 1_554 S
H558 N553 0.984 . S
H559 N553 0.985 . S
H560 N557 0.984 . S
H561 N557 0.981 1_556 S
H562 N556 0.984 . S
H563 N556 0.984 . S
H564 N552 0.984 . S
H565 N552 0.985 . S
C566 C567 1.363 . S
C566 C572 1.379 . S
C566 N574 1.356 . S
C567 C566 1.363 . S
C567 C573 1.363 . S
C568 C569 1.363 . S
C568 C573 1.379 . S
C568 N575 1.356 . S
C569 C568 1.363 . S
C569 C572 1.363 . S
N570 C572 1.356 . S
N570 H582 0.984 . S
N570 H583 0.985 . S
N571 C573 1.356 . S
N571 H576 0.984 . S
N571 H577 0.985 . S
C572 C566 1.379 . S
C572 C569 1.363 . S
C572 N570 1.356 . S
C573 C567 1.363 . S
C573 C568 1.379 . S
C573 N571 1.356 . S
N574 C566 1.356 . S
N574 H580 0.984 . S
N574 H581 0.984 . S
N575 C568 1.356 . S
N575 H578 0.984 . S
N575 H579 0.985 . S
H576 N571 0.984 . S
H577 N571 0.985 . S
H578 N575 0.984 . S
H579 N575 0.985 . S
H580 N574 0.984 . S
H581 N574 0.984 . S
H582 N570 0.984 . S
H583 N570 0.985 . S
C584 C585 1.363 . S
C584 C590 1.379 . S
C584 N592 1.356 . S
C585 C584 1.363 . S
C585 C591 1.363 . S
C586 C587 1.363 . S
C586 C591 1.379 . S
C586 N593 1.356 . S
C587 C586 1.363 . S
C587 C590 1.363 . S
N588 C590 1.356 1_454 S
N588 H600 0.984 . S
N588 H601 0.985 . S
N589 C591 1.356 . S
N589 H594 0.984 . S
N589 H595 0.985 . S
C590 C584 1.379 . S
C590 C587 1.363 . S
C590 N588 1.356 1_656 S
C591 C585 1.363 . S
C591 C586 1.379 . S
C591 N589 1.356 . S
N592 C584 1.356 . S
N592 H598 0.984 1_656 S
N592 H599 0.984 . S
N593 C586 1.356 . S
N593 H596 0.984 . S
N593 H597 0.985 . S
H594 N589 0.984 . S
H595 N589 0.985 . S
H596 N593 0.984 . S
H597 N593 0.985 . S
H598 N592 0.984 1_454 S
H599 N592 0.984 . S
H600 N588 0.984 . S
H601 N588 0.985 . S
C602 C603 1.363 . S
C602 C608 1.379 . S
C602 N610 1.356 . S
C603 C602 1.363 . S
C603 C609 1.363 . S
C604 C605 1.363 . S
C604 C609 1.379 . S
C604 N611 1.356 . S
C605 C604 1.363 . S
C605 C608 1.363 . S
N606 C608 1.356 . S
N606 H618 0.984 . S
N606 H619 0.985 . S
N607 C609 1.356 . S
N607 H612 0.984 . S
N607 H613 0.985 . S
C608 C602 1.379 . S
C608 C605 1.363 . S
C608 N606 1.356 . S
C609 C603 1.363 . S
C609 C604 1.379 . S
C609 N607 1.356 . S
N610 C602 1.356 . S
N610 H616 0.984 . S
N610 H617 0.984 . S
N611 C604 1.356 . S
N611 H614 0.984 . S
N611 H615 0.985 . S
H612 N607 0.984 . S
H613 N607 0.985 . S
H614 N611 0.984 . S
H615 N611 0.985 . S
H616 N610 0.984 . S
H617 N610 0.984 . S
H618 N606 0.984 . S
H619 N606 0.985 . S
C620 C621 1.363 . S
C620 C626 1.379 . S
C620 N628 1.356 . S
C621 C620 1.363 . S
C621 C627 1.363 . S
C622 C623 1.363 . S
C622 C627 1.379 . S
C622 N629 1.356 . S
C623 C622 1.363 . S
C623 C626 1.363 . S
N624 C626 1.356 . S
N624 H636 0.984 . S
N624 H637 0.985 . S
N625 C627 1.356 . S
N625 H630 0.984 . S
N625 H631 0.985 . S
C626 C620 1.379 . S
C626 C623 1.363 . S
C626 N624 1.356 . S
C627 C621 1.363 . S
C627 C622 1.379 . S
C627 N625 1.356 . S
N628 C620 1.356 . S
N628 H634 0.984 . S
N628 H635 0.984 . S
N629 C622 1.356 . S
N629 H632 0.984 . S
N629 H633 0.985 . S
H630 N625 0.984 . S
H631 N625 0.985 . S
H632 N629 0.984 . S
H633 N629 0.985 . S
H634 N628 0.984 . S
H635 N628 0.984 . S
H636 N624 0.984 . S
H637 N624 0.985 . S
C638 C639 1.363 . S
C638 C644 1.379 . S
C638 N646 1.356 . S
C639 C638 1.363 . S
C639 C645 1.363 . S
C640 C641 1.363 . S
C640 C645 1.379 . S
C640 N647 1.356 . S
C641 C640 1.363 . S
C641 C644 1.363 . S
N642 C644 1.356 . S
N642 H654 0.984 . S
N642 H655 0.985 . S
N643 C645 1.356 . S
N643 H648 0.984 . S
N643 H649 0.985 . S
C644 C638 1.379 . S
C644 C641 1.363 . S
C644 N642 1.356 . S
C645 C639 1.363 . S
C645 C640 1.379 . S
C645 N643 1.356 . S
N646 C638 1.356 . S
N646 H652 0.984 . S
N646 H653 0.984 . S
N647 C640 1.356 . S
N647 H650 0.984 . S
N647 H651 0.985 . S
H648 N643 0.984 . S
H649 N643 0.985 . S
H650 N647 0.984 . S
H651 N647 0.985 . S
H652 N646 0.984 . S
H653 N646 0.984 . S
H654 N642 0.984 . S
H655 N642 0.985 . S
C225 N1 2.020 . S
C227 C120 2.115 . S
C243 N18 1.358 . S
C245 N140 1.321 . S
C263 C174 1.630 . S
C261 N28 1.630 . S
C279 N40 1.355 . S
C281 N208 1.338 . S
C299 C161 2.514 . S
C297 N5 2.464 . S
C317 N118 1.153 . S
C315 N14 1.189 . S
C335 C195 1.998 . S
C333 N31 1.959 . S
C353 N170 0.858 . S
C351 N41 0.850 . S
C369 N2 1.707 . S
C371 C210 1.729 . S
C389 C144 1.756 . S
C387 N27 1.700 . S
C405 N44 1.454 . S
C407 C105 1.517 . S
C423 N15 1.232 . S
C425 C191 1.244 . S
C443 C131 2.341 1_655 S
C441 N57 2.338 . S
C459 N70 1.057 . S
C461 N148 1.033 . S
C477 N79 1.819 . S
C479 C165 1.879 . S
C495 N93 1.184 . S
C497 N200 1.134 . S
C513 N54 2.207 . S
C515 C150 2.209 1_556 S
C533 N110 1.437 . S
C531 N66 1.491 . S
C551 C204 1.611 . S
C549 N80 1.598 . S
C569 N178 1.039 . S
C567 N96 1.016 . S
C585 N53 1.738 . S
C587 C221 1.769 . S
C605 C135 1.674 . S
C603 N83 1.638 . S
C623 C114 1.516 . S
C621 N92 1.492 . S
C639 N67 1.224 . S
C641 C180 1.241 . S
