# Generated by pormake.
# Topology eea, (3,6)-cn, num edge types: 1
# Building blocks:
#     Node 0, Type 0, BuildingBlock: CUQRIR_clean_linker_1, # of connection points: 3
#     Node 1, Type 0, BuildingBlock: CUQRIR_clean_linker_1, # of connection points: 3
#     Node 2, Type 0, BuildingBlock: CUQRIR_clean_linker_1, # of connection points: 3
#     Node 3, Type 0, BuildingBlock: CUQRIR_clean_linker_1, # of connection points: 3
#     Node 4, Type 0, BuildingBlock: CUQRIR_clean_linker_1, # of connection points: 3
#     Node 5, Type 0, BuildingBlock: CUQRIR_clean_linker_1, # of connection points: 3
#     Node 6, Type 0, BuildingBlock: CUQRIR_clean_linker_1, # of connection points: 3
#     Node 7, Type 0, BuildingBlock: CUQRIR_clean_linker_1, # of connection points: 3
#     Node 8, Type 0, BuildingBlock: CUQRIR_clean_linker_1, # of connection points: 3
#     Node 9, Type 0, BuildingBlock: CUQRIR_clean_linker_1, # of connection points: 3
#     Node 10, Type 0, BuildingBlock: CUQRIR_clean_linker_1, # of connection points: 3
#     Node 11, Type 0, BuildingBlock: CUQRIR_clean_linker_1, # of connection points: 3
#     Node 12, Type 0, BuildingBlock: CUQRIR_clean_linker_1, # of connection points: 3
#     Node 13, Type 0, BuildingBlock: CUQRIR_clean_linker_1, # of connection points: 3
#     Node 14, Type 0, BuildingBlock: CUQRIR_clean_linker_1, # of connection points: 3
#     Node 15, Type 0, BuildingBlock: CUQRIR_clean_linker_1, # of connection points: 3
#     Node 16, Type 0, BuildingBlock: CUQRIR_clean_linker_1, # of connection points: 3
#     Node 17, Type 0, BuildingBlock: CUQRIR_clean_linker_1, # of connection points: 3
#     Node 18, Type 1, BuildingBlock: CUWYAW_clean_sbu_0, # of connection points: 6
#     Node 19, Type 1, BuildingBlock: CUWYAW_clean_sbu_0, # of connection points: 6
#     Node 20, Type 1, BuildingBlock: CUWYAW_clean_sbu_0, # of connection points: 6
#     Node 21, Type 1, BuildingBlock: CUWYAW_clean_sbu_0, # of connection points: 6
#     Node 22, Type 1, BuildingBlock: CUWYAW_clean_sbu_0, # of connection points: 6
#     Node 23, Type 1, BuildingBlock: CUWYAW_clean_sbu_0, # of connection points: 6
#     Node 24, Type 1, BuildingBlock: CUWYAW_clean_sbu_0, # of connection points: 6
#     Node 25, Type 1, BuildingBlock: CUWYAW_clean_sbu_0, # of connection points: 6
#     Node 26, Type 1, BuildingBlock: CUWYAW_clean_sbu_0, # of connection points: 6
#     Edge 27, Type (0, 1), BuildingBlock: UVAHIK_clean_linker_0, # of connection points: 2
#     Edge 28, Type (0, 1), BuildingBlock: UVAHIK_clean_linker_0, # of connection points: 2
#     Edge 29, Type (0, 1), BuildingBlock: UVAHIK_clean_linker_0, # of connection points: 2
#     Edge 30, Type (0, 1), BuildingBlock: UVAHIK_clean_linker_0, # of connection points: 2
#     Edge 31, Type (0, 1), BuildingBlock: UVAHIK_clean_linker_0, # of connection points: 2
#     Edge 32, Type (0, 1), BuildingBlock: UVAHIK_clean_linker_0, # of connection points: 2
#     Edge 33, Type (0, 1), BuildingBlock: UVAHIK_clean_linker_0, # of connection points: 2
#     Edge 34, Type (0, 1), BuildingBlock: UVAHIK_clean_linker_0, # of connection points: 2
#     Edge 35, Type (0, 1), BuildingBlock: UVAHIK_clean_linker_0, # of connection points: 2
#     Edge 36, Type (0, 1), BuildingBlock: UVAHIK_clean_linker_0, # of connection points: 2
#     Edge 37, Type (0, 1), BuildingBlock: UVAHIK_clean_linker_0, # of connection points: 2
#     Edge 38, Type (0, 1), BuildingBlock: UVAHIK_clean_linker_0, # of connection points: 2
#     Edge 39, Type (0, 1), BuildingBlock: UVAHIK_clean_linker_0, # of connection points: 2
#     Edge 40, Type (0, 1), BuildingBlock: UVAHIK_clean_linker_0, # of connection points: 2
#     Edge 41, Type (0, 1), BuildingBlock: UVAHIK_clean_linker_0, # of connection points: 2
#     Edge 42, Type (0, 1), BuildingBlock: UVAHIK_clean_linker_0, # of connection points: 2
#     Edge 43, Type (0, 1), BuildingBlock: UVAHIK_clean_linker_0, # of connection points: 2
#     Edge 44, Type (0, 1), BuildingBlock: UVAHIK_clean_linker_0, # of connection points: 2
#     Edge 45, Type (0, 1), BuildingBlock: UVAHIK_clean_linker_0, # of connection points: 2
#     Edge 46, Type (0, 1), BuildingBlock: UVAHIK_clean_linker_0, # of connection points: 2
#     Edge 47, Type (0, 1), BuildingBlock: UVAHIK_clean_linker_0, # of connection points: 2
#     Edge 48, Type (0, 1), BuildingBlock: UVAHIK_clean_linker_0, # of connection points: 2
#     Edge 49, Type (0, 1), BuildingBlock: UVAHIK_clean_linker_0, # of connection points: 2
#     Edge 50, Type (0, 1), BuildingBlock: UVAHIK_clean_linker_0, # of connection points: 2
#     Edge 51, Type (0, 1), BuildingBlock: UVAHIK_clean_linker_0, # of connection points: 2
#     Edge 52, Type (0, 1), BuildingBlock: UVAHIK_clean_linker_0, # of connection points: 2
#     Edge 53, Type (0, 1), BuildingBlock: UVAHIK_clean_linker_0, # of connection points: 2
#     Edge 54, Type (0, 1), BuildingBlock: UVAHIK_clean_linker_0, # of connection points: 2
#     Edge 55, Type (0, 1), BuildingBlock: UVAHIK_clean_linker_0, # of connection points: 2
#     Edge 56, Type (0, 1), BuildingBlock: UVAHIK_clean_linker_0, # of connection points: 2
#     Edge 57, Type (0, 1), BuildingBlock: UVAHIK_clean_linker_0, # of connection points: 2
#     Edge 58, Type (0, 1), BuildingBlock: UVAHIK_clean_linker_0, # of connection points: 2
#     Edge 59, Type (0, 1), BuildingBlock: UVAHIK_clean_linker_0, # of connection points: 2
#     Edge 60, Type (0, 1), BuildingBlock: UVAHIK_clean_linker_0, # of connection points: 2
#     Edge 61, Type (0, 1), BuildingBlock: UVAHIK_clean_linker_0, # of connection points: 2
#     Edge 62, Type (0, 1), BuildingBlock: UVAHIK_clean_linker_0, # of connection points: 2
#     Edge 63, Type (0, 1), BuildingBlock: UVAHIK_clean_linker_0, # of connection points: 2
#     Edge 64, Type (0, 1), BuildingBlock: UVAHIK_clean_linker_0, # of connection points: 2
#     Edge 65, Type (0, 1), BuildingBlock: UVAHIK_clean_linker_0, # of connection points: 2
#     Edge 66, Type (0, 1), BuildingBlock: UVAHIK_clean_linker_0, # of connection points: 2
#     Edge 67, Type (0, 1), BuildingBlock: UVAHIK_clean_linker_0, # of connection points: 2
#     Edge 68, Type (0, 1), BuildingBlock: UVAHIK_clean_linker_0, # of connection points: 2
#     Edge 69, Type (0, 1), BuildingBlock: UVAHIK_clean_linker_0, # of connection points: 2
#     Edge 70, Type (0, 1), BuildingBlock: UVAHIK_clean_linker_0, # of connection points: 2
#     Edge 71, Type (0, 1), BuildingBlock: UVAHIK_clean_linker_0, # of connection points: 2
#     Edge 72, Type (0, 1), BuildingBlock: UVAHIK_clean_linker_0, # of connection points: 2
#     Edge 73, Type (0, 1), BuildingBlock: UVAHIK_clean_linker_0, # of connection points: 2
#     Edge 74, Type (0, 1), BuildingBlock: UVAHIK_clean_linker_0, # of connection points: 2
#     Edge 75, Type (0, 1), BuildingBlock: UVAHIK_clean_linker_0, # of connection points: 2
#     Edge 76, Type (0, 1), BuildingBlock: UVAHIK_clean_linker_0, # of connection points: 2
#     Edge 77, Type (0, 1), BuildingBlock: UVAHIK_clean_linker_0, # of connection points: 2
#     Edge 78, Type (0, 1), BuildingBlock: UVAHIK_clean_linker_0, # of connection points: 2
#     Edge 79, Type (0, 1), BuildingBlock: UVAHIK_clean_linker_0, # of connection points: 2
#     Edge 80, Type (0, 1), BuildingBlock: UVAHIK_clean_linker_0, # of connection points: 2
# Relax obj value: 0.103
# Max RMSD: 0.236
# Mean RMSD: 0.171
data_MOF--net-eea--node1-CUWYAW_clean_sbu_0--node2-CUQRIR_clean_linker_1--edge1-UVAHIK_clean_linker_0
_symmetry_space_group_name_H-M    P1
_symmetry_Int_Tables_number       1
_symmetry_cell_setting            triclinic
loop_
_symmetry_equiv_pos_as_xyz
'x, y, z'
_cell_length_a     64.691124
_cell_length_b     66.402255
_cell_length_c     82.475379
_cell_angle_alpha  87.26243
_cell_angle_beta   93.450707
_cell_angle_gamma 118.78322
loop_
_atom_site_label
_atom_site_type_symbol
_atom_site_fract_x
_atom_site_fract_y
_atom_site_fract_z
_atom_type_partial_charge
C0 C 0.21012 0.09977 0.40132 0.0
N1 N 0.21685 0.11775 0.41126 0.0
N2 N 0.21578 0.08405 0.40829 0.0
C3 C 0.19972 0.09838 0.38433 0.0
C4 C 0.22635 0.09324 0.42278 0.0
N5 N 0.22719 0.1138 0.4245 0.0
C6 C 0.23392 0.08123 0.43584 0.0
H7 H 0.18021 0.09004 0.38477 0.0
H8 H 0.20433 0.08805 0.37658 0.0
H9 H 0.20609 0.1158 0.37876 0.0
H10 H 0.25275 0.08625 0.43444 0.0
H11 H 0.22331 0.06229 0.43489 0.0
H12 H 0.23213 0.08626 0.4481 0.0
C13 C 0.89976 0.11457 0.41033 0.0
N14 N 0.91111 0.1323 0.4207 0.0
N15 N 0.87818 0.09944 0.41567 0.0
C16 C 0.90963 0.11196 0.39499 0.0
C17 C 0.87666 0.10864 0.42954 0.0
N18 N 0.89651 0.12876 0.43249 0.0
C19 C 0.85605 0.09776 0.44047 0.0
H20 H 0.89538 0.1011 0.38617 0.0
H21 H 0.92065 0.10356 0.39803 0.0
H22 H 0.92087 0.129 0.38924 0.0
H23 H 0.86247 0.09755 0.45323 0.0
H24 H 0.84314 0.08003 0.43688 0.0
H25 H 0.84691 0.10827 0.43992 0.0
C26 C 0.87341 0.74514 0.40192 0.0
N27 N 0.88889 0.74469 0.41357 0.0
N28 N 0.85563 0.74656 0.40871 0.0
C29 C 0.87669 0.74609 0.38394 0.0
C30 C 0.86102 0.74738 0.42483 0.0
N31 N 0.88131 0.74646 0.42776 0.0
C32 C 0.84743 0.75085 0.43761 0.0
H33 H 0.864 0.75009 0.37679 0.0
H34 H 0.87398 0.72918 0.38011 0.0
H35 H 0.895 0.75915 0.38115 0.0
H36 H 0.82842 0.74322 0.43399 0.0
H37 H 0.85446 0.76956 0.43917 0.0
H38 H 0.8494 0.74315 0.44945 0.0
C39 C 0.13841 0.3003 0.63708 0.0
N40 N 0.15586 0.30521 0.62682 0.0
N41 N 0.12354 0.30789 0.63079 0.0
C42 C 0.13446 0.28611 0.65252 0.0
C43 C 0.13283 0.31791 0.61641 0.0
N44 N 0.15255 0.3164 0.61402 0.0
C45 C 0.12088 0.32635 0.60375 0.0
H46 H 0.12089 0.26812 0.65005 0.0
H47 H 0.12786 0.29268 0.66194 0.0
H48 H 0.15096 0.28633 0.6573 0.0
H49 H 0.10603 0.32764 0.60877 0.0
H50 H 0.11414 0.31438 0.59344 0.0
H51 H 0.13376 0.3435 0.59898 0.0
C52 C 0.79651 0.89636 0.6294 0.0
N53 N 0.78975 0.87886 0.61897 0.0
N54 N 0.79553 0.9145 0.62187 0.0
C55 C 0.80619 0.89662 0.6465 0.0
C56 C 0.78811 0.90748 0.60644 0.0
N57 N 0.7848 0.88597 0.60465 0.0
C58 C 0.78309 0.92122 0.59327 0.0
H59 H 0.79143 0.88951 0.65492 0.0
H60 H 0.81892 0.9144 0.65017 0.0
H61 H 0.81514 0.88593 0.64768 0.0
H62 H 0.79934 0.9316 0.58647 0.0
H63 H 0.77774 0.93302 0.59849 0.0
H64 H 0.76898 0.90981 0.58456 0.0
C65 C 0.10498 0.91131 0.62416 0.0
N66 N 0.09509 0.89353 0.61374 0.0
N67 N 0.12582 0.92807 0.61871 0.0
C68 C 0.09405 0.91253 0.63942 0.0
C69 C 0.12834 0.91981 0.60472 0.0
N70 N 0.10982 0.89881 0.60176 0.0
C71 C 0.14868 0.9325 0.59375 0.0
H72 H 0.08177 0.91951 0.63631 0.0
H73 H 0.10757 0.92401 0.64839 0.0
H74 H 0.08387 0.89516 0.64502 0.0
H75 H 0.1524 0.92035 0.58734 0.0
H76 H 0.16481 0.94465 0.60071 0.0
H77 H 0.14397 0.94244 0.58447 0.0
C78 C 0.87401 0.43233 0.73429 0.0
N79 N 0.88105 0.45016 0.74443 0.0
N80 N 0.88008 0.41665 0.74075 0.0
C81 C 0.86286 0.43106 0.71756 0.0
C82 C 0.89119 0.42567 0.75514 0.0
N83 N 0.89204 0.44616 0.75728 0.0
C84 C 0.89921 0.41349 0.76778 0.0
H85 H 0.84341 0.42266 0.71843 0.0
H86 H 0.86713 0.42084 0.70945 0.0
H87 H 0.86896 0.44852 0.71212 0.0
H88 H 0.91805 0.41878 0.76613 0.0
H89 H 0.88876 0.39457 0.76662 0.0
H90 H 0.89755 0.41808 0.78022 0.0
C91 C 0.56564 0.44756 0.74319 0.0
N92 N 0.57718 0.46483 0.75389 0.0
N93 N 0.54404 0.43221 0.74846 0.0
C94 C 0.5746 0.44667 0.72696 0.0
C95 C 0.54278 0.44087 0.76268 0.0
N96 N 0.56274 0.46081 0.76589 0.0
C97 C 0.52288 0.42889 0.77413 0.0
H98 H 0.55975 0.43714 0.7181 0.0
H99 H 0.58532 0.43771 0.72847 0.0
H100 H 0.5859 0.46424 0.72202 0.0
H101 H 0.51379 0.41001 0.77258 0.0
H102 H 0.50989 0.43515 0.77152 0.0
H103 H 0.52944 0.4327 0.78695 0.0
C104 C 0.54935 0.09444 0.73567 0.0
N105 N 0.5634 0.09019 0.74657 0.0
N106 N 0.53271 0.09674 0.74337 0.0
C107 C 0.55347 0.09893 0.71778 0.0
C108 C 0.53718 0.09384 0.75928 0.0
N109 N 0.55593 0.09013 0.76123 0.0
C110 C 0.52292 0.09412 0.77296 0.0
H111 H 0.57255 0.1069 0.71546 0.0
H112 H 0.54653 0.11036 0.71265 0.0
H113 H 0.54417 0.08234 0.7114 0.0
H114 H 0.50463 0.0895 0.76864 0.0
H115 H 0.53142 0.11164 0.77801 0.0
H116 H 0.52235 0.08199 0.78288 0.0
C117 C 0.79876 0.62255 0.96588 0.0
N118 N 0.81609 0.62707 0.95558 0.0
N119 N 0.78172 0.62636 0.95835 0.0
C120 C 0.79687 0.61152 0.98251 0.0
C121 C 0.78934 0.6333 0.94314 0.0
N122 N 0.81011 0.63364 0.94144 0.0
C123 C 0.77602 0.63883 0.92965 0.0
H124 H 0.80736 0.60232 0.98383 0.0
H125 H 0.77823 0.5992 0.98503 0.0
H126 H 0.80362 0.62512 0.99173 0.0
H127 H 0.78852 0.65298 0.92178 0.0
H128 H 0.76356 0.64378 0.93458 0.0
H129 H 0.76592 0.62349 0.92203 0.0
C130 C 0.46657 0.23134 0.95946 0.0
N131 N 0.45911 0.21388 0.94894 0.0
N132 N 0.4602 0.24714 0.95377 0.0
C133 C 0.4785 0.23208 0.97583 0.0
C134 C 0.44849 0.23858 0.93944 0.0
N135 N 0.44755 0.21822 0.93661 0.0
C136 C 0.43977 0.25104 0.92756 0.0
H137 H 0.47257 0.21447 0.98093 0.0
H138 H 0.47479 0.24211 0.98449 0.0
H139 H 0.49785 0.2404 0.97443 0.0
H140 H 0.44998 0.2699 0.92914 0.0
H141 H 0.42094 0.24529 0.92965 0.0
H142 H 0.44111 0.24711 0.91486 0.0
C143 C 0.77302 0.24557 0.95533 0.0
N144 N 0.76328 0.22781 0.94488 0.0
N145 N 0.79427 0.26213 0.95027 0.0
C146 C 0.7629 0.24583 0.97122 0.0
C147 C 0.79713 0.25376 0.93642 0.0
N148 N 0.7785 0.23285 0.93325 0.0
C149 C 0.81726 0.26673 0.92529 0.0
H150 H 0.75099 0.25346 0.96918 0.0
H151 H 0.77708 0.25633 0.98023 0.0
H152 H 0.75253 0.22815 0.97628 0.0
H153 H 0.83133 0.26205 0.92854 0.0
H154 H 0.82477 0.28556 0.92649 0.0
H155 H 0.8114 0.26218 0.91244 0.0
C156 C 0.53768 0.76428 0.06652 0.0
N157 N 0.54568 0.78227 0.07663 0.0
N158 N 0.54391 0.74856 0.07255 0.0
C159 C 0.52369 0.76193 0.05082 0.0
C160 C 0.5561 0.75764 0.08662 0.0
N161 N 0.55744 0.77828 0.089 0.0
C162 C 0.56614 0.74611 0.09827 0.0
H163 H 0.50472 0.75415 0.05344 0.0
H164 H 0.52577 0.75064 0.04234 0.0
H165 H 0.52921 0.77901 0.04489 0.0
H166 H 0.58563 0.75505 0.09754 0.0
H167 H 0.55934 0.72778 0.09548 0.0
H168 H 0.56201 0.74749 0.11091 0.0
C169 C 0.23382 0.78449 0.07601 0.0
N170 N 0.24572 0.80143 0.08692 0.0
N171 N 0.21504 0.76652 0.08286 0.0
C172 C 0.24023 0.78577 0.05861 0.0
C173 C 0.21606 0.77305 0.0983 0.0
N174 N 0.23473 0.79412 0.10082 0.0
C175 C 0.19868 0.75887 0.11094 0.0
H176 H 0.23333 0.79593 0.05137 0.0
H177 H 0.23251 0.76857 0.05321 0.0
H178 H 0.25969 0.79456 0.0577 0.0
H179 H 0.20721 0.76239 0.12331 0.0
H180 H 0.19084 0.74025 0.10858 0.0
H181 H 0.18428 0.76347 0.11051 0.0
C182 C 0.21217 0.42127 0.07282 0.0
N183 N 0.22647 0.41714 0.08356 0.0
N184 N 0.19598 0.42403 0.08075 0.0
C185 C 0.21575 0.42532 0.05485 0.0
C186 C 0.20104 0.4216 0.09663 0.0
N187 N 0.21966 0.41767 0.09832 0.0
C188 C 0.1875 0.42253 0.11053 0.0
H189 H 0.23468 0.43278 0.05221 0.0
H190 H 0.20915 0.43704 0.04978 0.0
H191 H 0.20584 0.40864 0.04864 0.0
H192 H 0.16913 0.41805 0.10652 0.0
H193 H 0.19644 0.44019 0.11534 0.0
H194 H 0.18713 0.41059 0.12053 0.0
C195 C 0.47035 0.95737 0.30067 0.0
N196 N 0.48745 0.96393 0.28979 0.0
N197 N 0.45158 0.95901 0.29392 0.0
C198 C 0.47064 0.94638 0.31704 0.0
C199 C 0.45789 0.9667 0.27857 0.0
N200 N 0.47956 0.96955 0.27603 0.0
C201 C 0.44243 0.97048 0.26579 0.0
H202 H 0.48039 0.93649 0.31681 0.0
H203 H 0.45256 0.93471 0.32106 0.0
H204 H 0.47978 0.96011 0.32609 0.0
H205 H 0.42929 0.97387 0.27142 0.0
H206 H 0.43291 0.95488 0.25833 0.0
H207 H 0.45334 0.9851 0.2576 0.0
C208 C 0.12684 0.5626 0.29761 0.0
N209 N 0.12083 0.54541 0.28703 0.0
N210 N 0.12597 0.58078 0.29007 0.0
C211 C 0.13573 0.56255 0.3149 0.0
C212 C 0.11939 0.57413 0.2745 0.0
N213 N 0.11649 0.55278 0.27262 0.0
C214 C 0.1147 0.588 0.26126 0.0
H215 H 0.12053 0.555 0.32294 0.0
H216 H 0.14805 0.58028 0.31888 0.0
H217 H 0.14493 0.55208 0.31627 0.0
H218 H 0.13122 0.59868 0.25481 0.0
H219 H 0.10889 0.59952 0.26637 0.0
H220 H 0.10104 0.57667 0.25228 0.0
C221 C 0.43854 0.57733 0.28871 0.0
N222 N 0.42854 0.55933 0.27848 0.0
N223 N 0.45949 0.59389 0.28323 0.0
C224 C 0.429 0.57787 0.30479 0.0
C225 C 0.46191 0.58525 0.26935 0.0
N226 N 0.4433 0.5642 0.26657 0.0
C227 C 0.48157 0.59806 0.25784 0.0
H228 H 0.4169 0.5853 0.30292 0.0
H229 H 0.44347 0.58865 0.31352 0.0
H230 H 0.41897 0.56028 0.31008 0.0
H231 H 0.49581 0.59356 0.26087 0.0
H232 H 0.48901 0.61691 0.25885 0.0
H233 H 0.47525 0.59319 0.24509 0.0
C234 C 0.54323 0.0076 0.05728 0.0
Eu235 Eu 0.52216 0.00913 0.02981 0.0
C236 C 0.54052 0.0067 0.07492 0.0
C237 C 0.53697 0.02309 0.08271 0.0
C238 C 0.53441 0.02155 0.09951 0.0
C239 C 0.53516 1.00352 0.10872 0.0
C240 C 0.5389 0.9873 0.10088 0.0
C241 C 0.54163 0.98894 0.08415 0.0
C242 C 0.50458 0.03738 0.01804 0.0
C243 C 0.46462 0.97634 0.02627 0.0
C244 C 0.4806 0.99118 0.9644 0.0
Eu245 Eu 0.49587 0.99415 0.99448 0.0
C246 C 0.49072 1.00387 0.94935 0.0
C247 C 0.48173 0.99316 0.93444 0.0
C248 C 0.49338 1.00351 0.9202 0.0
C249 C 0.51445 0.02462 0.9207 0.0
C250 C 0.5229 0.03569 0.93566 0.0
C251 C 0.51105 0.02543 0.94985 0.0
C252 C 0.50688 0.96434 0.01107 0.0
C253 C 0.55246 0.03198 0.99801 0.0
O254 O 0.52822 0.98921 0.04934 0.0
O255 O 0.54795 0.02687 0.04936 0.0
O256 O 0.51513 0.03993 0.03235 0.0
O257 O 0.50362 0.02007 0.012 0.0
O258 O 0.48438 0.98329 0.03546 0.0
O259 O 0.46452 0.98126 0.01045 0.0
O260 O 0.47602 1.0021 0.9753 0.0
O261 O 0.49083 0.97955 0.97068 0.0
O262 O 0.48793 0.9581 1.00182 0.0
O263 O 0.51971 0.9859 0.01049 0.0
O264 O 0.53272 0.02272 0.98877 0.0
O265 O 0.55307 0.02702 0.01371 0.0
H266 H 0.536 0.03695 0.07584 0.0
H267 H 0.53134 0.03415 0.10526 0.0
H268 H 0.53981 0.97338 0.1077 0.0
H269 H 0.54452 0.97622 0.07838 0.0
H270 H 0.46607 0.97648 0.93386 0.0
H271 H 0.48603 0.99478 0.90884 0.0
H272 H 0.53911 0.05187 0.93653 0.0
H273 H 0.51821 0.03398 0.96128 0.0
C274 C 0.9942 0.52399 0.06444 0.0
Eu275 Eu 0.99374 0.51816 0.0333 0.0
C276 C 0.00587 0.52146 0.07987 0.0
C277 C 0.99429 0.50178 0.08986 0.0
C278 C 0.0044 0.49994 0.10496 0.0
C279 C 0.02628 0.51783 0.11052 0.0
C280 C 0.038 0.5374 0.10042 0.0
C281 C 0.02791 0.53922 0.0853 0.0
C282 C 0.9609 0.48126 0.01663 0.0
C283 C 0.02869 0.49744 0.02566 0.0
C284 C 0.00554 0.50986 0.9676 0.0
Eu285 Eu 0.0053 0.51594 0.99857 0.0
C286 C 0.99268 0.50918 0.95203 0.0
C287 C 0.00501 0.52419 0.93929 0.0
C288 C 0.99404 0.52242 0.9239 0.0
C289 C 0.97053 0.50544 0.9209 0.0
C290 C 0.95793 0.4909 0.93382 0.0
C291 C 0.96888 0.49276 0.94925 0.0
C292 C 0.03845 0.55248 0.01535 0.0
C293 C 0.97092 0.53716 0.0061 0.0
O294 O 0.00712 0.54043 0.05425 0.0
O295 O 0.97915 0.50515 0.05707 0.0
O296 O 0.95568 0.49239 0.02672 0.0
O297 O 0.98294 0.48954 0.01624 0.0
O298 O 0.0227 0.50803 0.03612 0.0
O299 O 0.02128 0.49536 0.0103 0.0
O300 O 0.99496 0.49303 0.97813 0.0
O301 O 0.01772 0.52985 0.97442 0.0
O302 O 0.04343 0.54133 0.00514 0.0
O303 O 0.01644 0.54453 0.0157 0.0
O304 O 0.97595 0.52558 0.99582 0.0
O305 O 0.97877 0.53957 0.0214 0.0
H306 H 0.9772 0.48787 0.08612 0.0
H307 H 0.995 0.48451 0.11231 0.0
H308 H 0.05468 0.55168 0.10438 0.0
H309 H 0.0372 0.55476 0.07803 0.0
H310 H 0.02341 0.53688 0.9411 0.0
H311 H 0.00432 0.5337 0.91418 0.0
H312 H 0.93972 0.4778 0.93192 0.0
H313 H 0.95886 0.48098 0.95885 0.0
C314 C 0.48081 0.47885 0.97012 0.0
Eu315 Eu 0.48803 0.48991 1.0007 0.0
C316 C 0.49403 0.48341 0.95504 0.0
C317 C 0.49658 0.50142 0.94422 0.0
C318 C 0.5075 0.50461 0.92945 0.0
C319 C 0.51602 0.48981 0.92506 0.0
C320 C 0.51375 0.472 0.936 0.0
C321 C 0.50283 0.4688 0.95077 0.0
C322 C 0.49247 0.52833 0.01398 0.0
C323 C 0.54495 0.51548 0.01073 0.0
C324 C 0.51257 0.50509 0.06752 0.0
Eu325 Eu 0.5053 0.49651 0.03655 0.0
C326 C 0.50008 0.50613 0.08168 0.0
C327 C 0.49615 0.4906 0.09479 0.0
C328 C 0.48617 0.49237 0.10887 0.0
C329 C 0.48007 0.50986 0.11022 0.0
C330 C 0.48347 0.52508 0.09693 0.0
C331 C 0.49333 0.52322 0.08279 0.0
C332 C 0.50113 0.45858 0.02262 0.0
C333 C 0.44923 0.47385 0.02683 0.0
O334 O 0.48458 0.46666 0.9817 0.0
O335 O 0.47831 0.49562 0.97577 0.0
O336 O 0.47612 0.51662 1.00309 0.0
O337 O 0.50638 0.52015 0.01649 0.0
O338 O 0.52785 0.50431 0.99967 0.0
O339 O 0.54059 0.51702 0.0259 0.0
O340 O 0.51774 0.52103 0.05614 0.0
O341 O 0.50581 0.48477 0.06168 0.0
O342 O 0.51821 0.47078 0.03289 0.0
O343 O 0.48685 0.46638 0.02075 0.0
O344 O 0.46676 0.48717 0.03689 0.0
O345 O 0.45312 0.46915 0.01229 0.0
H346 H 0.48983 0.51288 0.94704 0.0
H347 H 0.50916 0.51866 0.92143 0.0
H348 H 0.51974 0.46003 0.93295 0.0
H349 H 0.50087 0.45454 0.95868 0.0
H350 H 0.50136 0.47738 0.09432 0.0
H351 H 0.48408 0.48056 0.11895 0.0
H352 H 0.47874 0.5386 0.09752 0.0
H353 H 0.49607 0.53546 0.0729 0.0
C354 C 0.20758 0.34018 0.39419 0.0
Eu355 Eu 0.1872 0.34229 0.36656 0.0
C356 C 0.20479 0.33956 0.41174 0.0
C357 C 0.19281 0.34982 0.41847 0.0
C358 C 0.19037 0.34876 0.43528 0.0
C359 C 0.19969 0.33727 0.44552 0.0
C360 C 0.21166 0.32705 0.43866 0.0
C361 C 0.21419 0.32822 0.42191 0.0
C362 C 0.16856 0.36972 0.35518 0.0
C363 C 0.1298 0.30951 0.36181 0.0
C364 C 0.14967 0.32683 0.30039 0.0
Eu365 Eu 0.16239 0.32804 0.33087 0.0
C366 C 0.16321 0.33656 0.28557 0.0
C367 C 0.1756 0.32641 0.27916 0.0
C368 C 0.18909 0.33606 0.26554 0.0
C369 C 0.19046 0.35602 0.25797 0.0
C370 C 0.17807 0.36619 0.26434 0.0
C371 C 0.16452 0.35651 0.27798 0.0
C372 C 0.174 0.29848 0.34716 0.0
C373 C 0.21896 0.3654 0.33512 0.0
O374 O 0.19224 0.32192 0.38627 0.0
O375 O 0.21266 0.35956 0.38633 0.0
O376 O 0.17862 0.37193 0.36963 0.0
O377 O 0.16864 0.35314 0.34874 0.0
O378 O 0.14917 0.31599 0.37137 0.0
O379 O 0.13039 0.31506 0.34608 0.0
O380 O 0.14937 0.34148 0.31038 0.0
O381 O 0.15229 0.31037 0.30797 0.0
O382 O 0.1553 0.2921 0.33762 0.0
O383 O 0.18636 0.32011 0.347 0.0
O384 O 0.19985 0.35504 0.3254 0.0
O385 O 0.21874 0.36168 0.35104 0.0
H386 H 0.18528 0.35851 0.41075 0.0
H387 H 0.18084 0.35657 0.44023 0.0
H388 H 0.21925 0.31831 0.44625 0.0
H389 H 0.22349 0.32022 0.41688 0.0
H390 H 0.17506 0.31105 0.28469 0.0
H391 H 0.19859 0.32795 0.26101 0.0
H392 H 0.1785 0.38139 0.2586 0.0
H393 H 0.15512 0.36466 0.28261 0.0
C394 C 0.66061 0.85415 0.39665 0.0
Eu395 Eu 0.66026 0.84933 0.36537 0.0
C396 C 0.67226 0.85151 0.41206 0.0
C397 C 0.66005 0.83241 0.42242 0.0
C398 C 0.67006 0.83062 0.43758 0.0
C399 C 0.69247 0.84798 0.44282 0.0
C400 C 0.70483 0.86691 0.43231 0.0
C401 C 0.69485 0.86867 0.41713 0.0
C402 C 0.62709 0.81364 0.3479 0.0
C403 C 0.69447 0.82814 0.35659 0.0
C404 C 0.67249 0.8442 0.29916 0.0
Eu405 Eu 0.67194 0.84881 0.33032 0.0
C406 C 0.65939 0.84327 0.28367 0.0
C407 C 0.67137 0.85857 0.27097 0.0
C408 C 0.66032 0.85652 0.25559 0.0
C409 C 0.63708 0.83897 0.25256 0.0
C410 C 0.62479 0.82415 0.26545 0.0
C411 C 0.63581 0.82629 0.28088 0.0
C412 C 0.70528 0.88427 0.34791 0.0
C413 C 0.63792 0.86987 0.3388 0.0
O414 O 0.67342 0.87092 0.38665 0.0
O415 O 0.64582 0.8354 0.38907 0.0
O416 O 0.62209 0.82429 0.35852 0.0
O417 O 0.6491 0.8217 0.34743 0.0
O418 O 0.68835 0.83792 0.36762 0.0
O419 O 0.68767 0.82762 0.34118 0.0
O420 O 0.66267 0.82686 0.30943 0.0
O421 O 0.68366 0.86404 0.30631 0.0
O422 O 0.71014 0.87372 0.33714 0.0
O423 O 0.68329 0.87639 0.34831 0.0
O424 O 0.64273 0.85858 0.32816 0.0
O425 O 0.64563 0.87148 0.35411 0.0
H426 H 0.64254 0.81899 0.41894 0.0
H427 H 0.66014 0.81566 0.44524 0.0
H428 H 0.72196 0.88079 0.43601 0.0
H429 H 0.70467 0.88376 0.40956 0.0
H430 H 0.68959 0.8717 0.2728 0.0
H431 H 0.67037 0.86803 0.24588 0.0
H432 H 0.60678 0.81061 0.26353 0.0
H433 H 0.62608 0.81428 0.29046 0.0
C434 C 0.15061 0.81328 0.30487 0.0
Eu435 Eu 0.15781 0.82484 0.33536 0.0
C436 C 0.16369 0.81749 0.28978 0.0
C437 C 0.16861 0.83676 0.27961 0.0
C438 C 0.17941 0.83962 0.26482 0.0
C439 C 0.18548 0.82325 0.2598 0.0
C440 C 0.1808 0.80414 0.27009 0.0
C441 C 0.16998 0.80126 0.28484 0.0
C442 C 0.16481 0.86479 0.34766 0.0
C443 C 0.21429 0.84735 0.34621 0.0
C444 C 0.18173 0.84286 0.40199 0.0
Eu445 Eu 0.17411 0.83202 0.3714 0.0
C446 C 0.16959 0.84443 0.41619 0.0
C447 C 0.15587 0.82491 0.42584 0.0
C448 C 0.14665 0.82701 0.4402 0.0
C449 C 0.15106 0.84869 0.4453 0.0
C450 C 0.16414 0.86808 0.43537 0.0
C451 C 0.17335 0.86599 0.42103 0.0
C452 C 0.16759 0.79238 0.3588 0.0
C453 C 0.11845 0.81118 0.36087 0.0
O454 O 0.15457 0.80138 0.31657 0.0
O455 O 0.14809 0.83014 0.31033 0.0
O456 O 0.14815 0.85332 0.3369 0.0
O457 O 0.17757 0.85542 0.35064 0.0
O458 O 0.19726 0.83664 0.33502 0.0
O459 O 0.20983 0.85009 0.3611 0.0
O460 O 0.18563 0.85786 0.39008 0.0
O461 O 0.1759 0.82237 0.39686 0.0
O462 O 0.18443 0.80409 0.36937 0.0
O463 O 0.15451 0.80145 0.35605 0.0
O464 O 0.13593 0.82415 0.37109 0.0
O465 O 0.12241 0.80565 0.34663 0.0
H466 H 0.16384 0.84952 0.28294 0.0
H467 H 0.18294 0.85466 0.25729 0.0
H468 H 0.18485 0.79098 0.26652 0.0
H469 H 0.16611 0.78603 0.29224 0.0
H470 H 0.15278 0.80805 0.42257 0.0
H471 H 0.13688 0.81175 0.44764 0.0
H472 H 0.16758 0.88499 0.43881 0.0
H473 H 0.18395 0.88138 0.41392 0.0
C474 C 0.87398 0.66955 0.7235 0.0
Eu475 Eu 0.85273 0.67251 0.69652 0.0
C476 C 0.87176 0.66774 0.74121 0.0
C477 C 0.86779 0.68329 0.74973 0.0
C478 C 0.86588 0.681 0.76659 0.0
C479 C 0.86772 0.66304 0.77512 0.0
C480 C 0.87182 0.64763 0.76654 0.0
C481 C 0.8739 0.65003 0.74974 0.0
C482 C 0.83451 0.70059 0.68587 0.0
C483 C 0.79528 0.63959 0.69232 0.0
C484 C 0.81241 0.65892 0.63077 0.0
Eu485 Eu 0.82711 0.65938 0.66078 0.0
C486 C 0.82332 0.6722 0.61606 0.0
C487 C 0.81548 0.66181 0.60094 0.0
C488 C 0.82781 0.67278 0.58707 0.0
C489 C 0.84835 0.69427 0.58811 0.0
C490 C 0.85566 0.70503 0.60323 0.0
C491 C 0.84322 0.69406 0.6171 0.0
C492 C 0.83873 0.62925 0.6762 0.0
C493 C 0.88352 0.69732 0.66508 0.0
O494 O 0.85874 0.65158 0.71526 0.0
O495 O 0.87859 0.68921 0.71623 0.0
O496 O 0.84466 0.70237 0.70027 0.0
O497 O 0.83432 0.68406 0.67915 0.0
O498 O 0.81483 0.64641 0.70172 0.0
O499 O 0.79546 0.64494 0.67655 0.0
O500 O 0.8086 0.6698 0.64212 0.0
O501 O 0.8213 0.64586 0.63652 0.0
O502 O 0.81995 0.62314 0.66676 0.0
O503 O 0.85106 0.65086 0.67633 0.0
O504 O 0.86407 0.68793 0.65556 0.0
O505 O 0.88382 0.69211 0.68076 0.0
H506 H 0.86601 0.69708 0.74339 0.0
H507 H 0.86246 0.69295 0.77291 0.0
H508 H 0.87354 0.63378 0.77283 0.0
H509 H 0.87712 0.63795 0.74338 0.0
H510 H 0.80021 0.6449 0.59994 0.0
H511 H 0.82141 0.66427 0.57554 0.0
H512 H 0.87144 0.72151 0.60446 0.0
H513 H 0.84959 0.70234 0.6287 0.0
C514 C 0.32864 0.19564 0.72861 0.0
Eu515 Eu 0.32624 0.18677 0.69784 0.0
C516 C 0.33885 0.19175 0.74427 0.0
C517 C 0.32387 0.176 0.75577 0.0
C518 C 0.33289 0.17304 0.771 0.0
C519 C 0.35712 0.18593 0.77519 0.0
C520 C 0.37218 0.20145 0.76356 0.0
C521 C 0.36316 0.20434 0.74828 0.0
C522 C 0.29319 0.14796 0.68324 0.0
C523 C 0.35965 0.16399 0.69138 0.0
C524 C 0.3341 0.16937 0.63317 0.0
Eu525 Eu 0.33609 0.18083 0.66327 0.0
C526 C 0.3272 0.17322 0.61652 0.0
C527 C 0.33341 0.16444 0.60369 0.0
C528 C 0.32616 0.16668 0.58775 0.0
C529 C 0.31255 0.17783 0.5843 0.0
C530 C 0.3066 0.1869 0.59724 0.0
C531 C 0.3139 0.18463 0.61325 0.0
C532 C 0.36948 0.21942 0.67794 0.0
C533 C 0.30385 0.20534 0.66953 0.0
O534 O 0.34319 0.21004 0.71803 0.0
O535 O 0.3112 0.17762 0.72177 0.0
O536 O 0.28815 0.15988 0.69274 0.0
O537 O 0.31521 0.15647 0.68242 0.0
O538 O 0.35502 0.17639 0.70116 0.0
O539 O 0.35061 0.15981 0.6764 0.0
O540 O 0.31703 0.1582 0.64317 0.0
O541 O 0.35264 0.18643 0.64 0.0
O542 O 0.3743 0.2076 0.6682 0.0
O543 O 0.34749 0.21112 0.67876 0.0
O544 O 0.30968 0.19422 0.65935 0.0
O545 O 0.31067 0.20724 0.68506 0.0
H546 H 0.30506 0.16613 0.75307 0.0
H547 H 0.3208 0.16067 0.77952 0.0
H548 H 0.39087 0.21189 0.76641 0.0
H549 H 0.3752 0.21675 0.73975 0.0
H550 H 0.34355 0.15545 0.60604 0.0
H551 H 0.3307 0.15909 0.57817 0.0
H552 H 0.2963 0.19573 0.59499 0.0
H553 H 0.309 0.19153 0.62307 0.0
C554 C 0.82039 0.14875 0.63757 0.0
Eu555 Eu 0.82752 0.15926 0.66826 0.0
C556 C 0.83352 0.15363 0.62244 0.0
C557 C 0.83601 0.17182 0.61183 0.0
C558 C 0.84674 0.17523 0.59697 0.0
C559 C 0.85514 0.16045 0.59229 0.0
C560 C 0.85295 0.14248 0.60302 0.0
C561 C 0.84221 0.13906 0.61786 0.0
C562 C 0.83221 0.19761 0.68177 0.0
C563 C 0.88434 0.18426 0.67863 0.0
C564 C 0.85111 0.17374 0.73515 0.0
Eu565 Eu 0.84416 0.16517 0.70418 0.0
C566 C 0.83849 0.17492 0.74918 0.0
C567 C 0.83441 0.15947 0.76237 0.0
C568 C 0.82426 0.16133 0.77633 0.0
C569 C 0.81814 0.17884 0.77749 0.0
C570 C 0.8217 0.19399 0.76413 0.0
C571 C 0.83173 0.19203 0.75011 0.0
C572 C 0.83955 0.12704 0.69023 0.0
C573 C 0.78829 0.14332 0.69406 0.0
O574 O 0.82446 0.13655 0.64899 0.0
O575 O 0.8177 0.16529 0.64342 0.0
O576 O 0.81583 0.18608 0.67086 0.0
O577 O 0.84596 0.18924 0.68424 0.0
O578 O 0.86738 0.17359 0.66737 0.0
O579 O 0.87973 0.18532 0.69383 0.0
O580 O 0.85656 0.18971 0.72376 0.0
O581 O 0.84424 0.15339 0.72934 0.0
O582 O 0.85636 0.13885 0.70079 0.0
O583 O 0.82561 0.13524 0.68815 0.0
O584 O 0.80573 0.15631 0.70429 0.0
O585 O 0.79233 0.13866 0.67956 0.0
H586 H 0.82933 0.18325 0.61488 0.0
H587 H 0.84834 0.18938 0.58909 0.0
H588 H 0.85885 0.13053 0.59972 0.0
H589 H 0.84028 0.12466 0.6256 0.0
H590 H 0.83961 0.14624 0.76204 0.0
H591 H 0.82204 0.14958 0.78647 0.0
H592 H 0.81696 0.20752 0.76458 0.0
H593 H 0.83458 0.20421 0.74015 0.0
C594 C 0.26715 0.83751 0.07107 0.0
C595 C 0.26677 0.82296 0.08409 0.0
C596 C 0.28843 0.85626 0.06641 0.0
C597 C 0.35301 0.8764 0.06963 0.0
H598 H 0.35691 0.93176 0.04899 0.0
C599 C 0.44157 0.95209 0.04977 0.0
C600 C 0.44179 0.96132 0.03401 0.0
C601 C 0.42028 0.93675 0.05678 0.0
C602 C 0.35606 0.91634 0.05465 0.0
H603 H 0.288 0.81716 0.10299 0.0
H604 H 0.32513 0.85053 0.09549 0.0
H605 H 0.31992 0.90308 0.06049 0.0
H606 H 0.41951 0.96198 0.01348 0.0
H607 H 0.38229 0.93532 0.02583 0.0
H608 H 0.38921 0.88978 0.06389 0.0
C609 C 0.30914 0.84717 0.08848 0.0
C610 C 0.33482 0.89983 0.06124 0.0
C611 C 0.28783 0.82827 0.09301 0.0
C612 C 0.42006 0.95522 0.02562 0.0
C613 C 0.3987 0.94001 0.03273 0.0
C614 C 0.37427 0.89299 0.06321 0.0
C615 C 0.30987 0.86106 0.0748 0.0
C616 C 0.3329 0.87949 0.06871 0.0
C617 C 0.39858 0.93035 0.04831 0.0
C618 C 0.37603 0.91309 0.05553 0.0
H619 H 0.25104 0.83382 0.06409 0.0
H620 H 0.28811 0.86631 0.05577 0.0
H621 H 0.35224 0.86082 0.07492 0.0
H622 H 0.4579 0.95632 0.05664 0.0
H623 H 0.42081 0.92984 0.06887 0.0
C624 C 0.17971 0.45069 0.0801 0.0
C625 C 0.1795 0.43121 0.0741 0.0
C626 C 0.16336 0.45743 0.07407 0.0
C627 C 0.10563 0.43564 0.05168 0.0
H628 H 0.12403 0.50053 0.04817 0.0
C629 C 0.04692 0.47239 0.02187 0.0
C630 C 0.04487 0.48849 0.03116 0.0
C631 C 0.06297 0.46464 0.02674 0.0
C632 C 0.11867 0.48236 0.04918 0.0
H633 H 0.16273 0.40374 0.05693 0.0
H634 H 0.13443 0.41595 0.04578 0.0
H635 H 0.15349 0.48878 0.05648 0.0
H636 H 0.05781 0.509 0.05285 0.0
H637 H 0.08615 0.4957 0.06118 0.0
H638 H 0.07084 0.42942 0.04399 0.0
C639 C 0.1468 0.42569 0.05548 0.0
C640 C 0.13548 0.47559 0.05399 0.0
C641 C 0.16306 0.41881 0.06169 0.0
C642 C 0.05897 0.49654 0.04547 0.0
C643 C 0.07526 0.48906 0.05019 0.0
C644 C 0.08888 0.44245 0.04664 0.0
C645 C 0.14668 0.44503 0.06168 0.0
C646 C 0.12909 0.45215 0.05553 0.0
C647 C 0.07746 0.47315 0.04081 0.0
C648 C 0.09523 0.46585 0.04557 0.0
H649 H 0.19253 0.46065 0.08952 0.0
H650 H 0.16359 0.47217 0.07932 0.0
H651 H 0.10003 0.41744 0.05295 0.0
H652 H 0.0362 0.46582 0.01082 0.0
H653 H 0.06446 0.45242 0.0193 0.0
C654 C 0.54859 0.72488 0.05257 0.0
C655 C 0.53753 0.7265 0.06615 0.0
C656 C 0.54297 0.70335 0.04668 0.0
C657 C 0.53891 0.65622 0.04341 0.0
H658 H 0.47443 0.60645 0.04263 0.0
C659 C 0.51647 0.56313 0.03068 0.0
C660 C 0.49654 0.55032 0.02052 0.0
C661 C 0.52087 0.58436 0.03641 0.0
C662 C 0.4925 0.6202 0.04266 0.0
H663 H 0.51202 0.70751 0.08425 0.0
H664 H 0.50223 0.66964 0.07419 0.0
H665 H 0.48305 0.64429 0.0516 0.0
H666 H 0.46541 0.54944 0.00852 0.0
H667 H 0.47323 0.58671 0.01833 0.0
H668 H 0.54832 0.63231 0.03416 0.0
C669 C 0.51498 0.68487 0.06787 0.0
C670 C 0.49749 0.64184 0.04797 0.0
C671 C 0.52061 0.70642 0.07371 0.0
C672 C 0.4809 0.55897 0.01635 0.0
C673 C 0.48533 0.58026 0.02206 0.0
C674 C 0.53393 0.63461 0.0381 0.0
C675 C 0.5262 0.68306 0.05434 0.0
C676 C 0.52076 0.66011 0.04844 0.0
C677 C 0.50548 0.5933 0.03205 0.0
C678 C 0.51068 0.6163 0.03769 0.0
H679 H 0.56169 0.74031 0.04664 0.0
H680 H 0.5517 0.7026 0.03611 0.0
H681 H 0.55707 0.66981 0.04379 0.0
H682 H 0.52886 0.5569 0.03406 0.0
H683 H 0.53635 0.59376 0.04429 0.0
C684 C 0.83432 0.28998 0.96036 0.0
C685 C 0.81034 0.28363 0.95782 0.0
C686 C 0.85024 0.31136 0.9668 0.0
C687 C 0.85695 0.36939 0.9737 0.0
H688 H 0.91037 0.37587 1.00134 0.0
C689 C 0.91923 0.45197 0.00942 0.0
C690 C 0.94354 0.4595 0.00897 0.0
C691 C 0.90278 0.43085 1.00282 0.0
C692 C 0.89564 0.37436 0.99352 0.0
H693 H 0.78403 0.29437 0.96029 0.0
H694 H 0.81153 0.33137 0.97224 0.0
H695 H 0.88172 0.33812 0.99137 0.0
H696 H 0.96976 0.4511 1.00102 0.0
H697 H 0.94102 0.41407 0.9897 0.0
H698 H 0.87077 0.40568 0.97626 0.0
C699 C 0.8183 0.32017 0.96885 0.0
C700 C 0.8792 0.3527 0.98775 0.0
C701 C 0.80244 0.29885 0.96223 0.0
C702 C 0.95112 0.44569 1.00158 0.0
C703 C 0.93468 0.42445 0.99518 0.0
C704 C 0.87326 0.39101 0.97965 0.0
C705 C 0.84251 0.32684 0.97109 0.0
C706 C 0.85968 0.34989 0.97765 0.0
C707 C 0.91032 0.41671 0.99583 0.0
C708 C 0.89286 0.39376 0.98955 0.0
H709 H 0.84078 0.27843 0.9572 0.0
H710 H 0.86871 0.31587 0.96809 0.0
H711 H 0.84245 0.36808 0.96574 0.0
H712 H 0.91291 0.46231 0.015 0.0
H713 H 0.88413 0.4253 1.00357 0.0
C714 C 0.73895 0.60176 0.95446 0.0
C715 C 0.75819 0.61821 0.96358 0.0
C716 C 0.71612 0.59287 0.95977 0.0
C717 C 0.68339 0.58107 0.99638 0.0
H718 H 0.63167 0.573 0.96627 0.0
C719 C 0.5876 0.54296 0.0164 0.0
C720 C 0.56963 0.52772 0.00575 0.0
C721 C 0.61081 0.55531 0.01152 0.0
C722 C 0.64589 0.57492 0.97478 0.0
H723 H 0.76906 0.6382 0.98538 0.0
H724 H 0.72876 0.62233 0.99498 0.0
H725 H 0.67207 0.59317 0.95725 0.0
H726 H 0.56199 0.51316 0.98173 0.0
H727 H 0.60262 0.53434 0.97335 0.0
H728 H 0.65724 0.56227 0.01379 0.0
C729 C 0.73141 0.61651 0.98363 0.0
C730 C 0.669 0.58657 0.96963 0.0
C731 C 0.75432 0.6256 0.97818 0.0
C732 C 0.57541 0.52486 0.99019 0.0
C733 C 0.59866 0.53713 0.98535 0.0
C734 C 0.66025 0.56927 1.0015 0.0
C735 C 0.71213 0.60005 0.97445 0.0
C736 C 0.68792 0.58951 0.98033 0.0
C737 C 0.61659 0.5526 0.99592 0.0
C738 C 0.64123 0.56585 0.9907 0.0
H739 H 0.74169 0.59536 0.9434 0.0
H740 H 0.70163 0.57986 0.95263 0.0
H741 H 0.69766 0.58286 0.0048 0.0
H742 H 0.58373 0.54569 0.02845 0.0
H743 H 0.62414 0.5673 0.01988 0.0
C744 C 0.48446 0.19586 0.9535 0.0
C745 C 0.46182 0.19366 0.95129 0.0
C746 C 0.48737 0.17698 0.95862 0.0
C747 C 0.45788 0.1235 0.98246 0.0
H748 H 0.50635 0.11176 0.96683 0.0
C749 C 0.49337 0.06856 0.01859 0.0
C750 C 0.49729 0.0533 0.00972 0.0
C751 C 0.48726 0.08415 0.01054 0.0
C752 C 0.4926 0.11467 0.97126 0.0
H753 H 0.42445 0.17018 0.95207 0.0
H754 H 0.42937 0.13683 0.96107 0.0
H755 H 0.49855 0.14107 0.95327 0.0
H756 H 0.49883 0.04289 0.98558 0.0
H757 H 0.48793 0.06979 0.97148 0.0
H758 H 0.45214 0.09729 1.00059 0.0
C759 C 0.4449 0.15317 0.95889 0.0
C760 C 0.48825 0.13157 0.96355 0.0
C761 C 0.44204 0.17208 0.95359 0.0
C762 C 0.49521 0.05399 0.9927 0.0
C763 C 0.48932 0.06966 0.98464 0.0
C764 C 0.46237 0.10672 0.99027 0.0
C765 C 0.46764 0.15554 0.9618 0.0
C766 C 0.47097 0.13632 0.96913 0.0
C767 C 0.48533 0.08498 0.99345 0.0
C768 C 0.47991 0.10222 0.98483 0.0
H769 H 0.49989 0.21247 0.95187 0.0
H770 H 0.50511 0.17946 0.96087 0.0
H771 H 0.44463 0.12691 0.98718 0.0
H772 H 0.49507 0.06849 0.03174 0.0
H773 H 0.48461 0.09593 0.01768 0.0
C774 C 0.73995 0.18536 0.94651 0.0
C775 C 0.74104 0.20701 0.94639 0.0
C776 C 0.71889 0.16541 0.95006 0.0
C777 C 0.66584 0.1476 0.97302 0.0
H778 H 0.64104 0.0895 0.95122 0.0
C779 C 0.59431 0.0636 1.00095 0.0
C780 C 0.57467 0.0498 0.9908 0.0
C781 C 0.61451 0.0818 0.9945 0.0
C782 C 0.64773 0.10565 0.95738 0.0
H783 H 0.72087 0.22476 0.9488 0.0
H784 H 0.68417 0.19007 0.95518 0.0
H785 H 0.67608 0.12335 0.94108 0.0
H786 H 0.56143 0.04387 0.96572 0.0
H787 H 0.59691 0.07567 0.95443 0.0
H788 H 0.6378 0.13005 0.98939 0.0
C789 C 0.69956 0.18844 0.95276 0.0
C790 C 0.66785 0.12496 0.95164 0.0
C791 C 0.7205 0.20827 0.9491 0.0
C792 C 0.57613 0.05421 0.97392 0.0
C793 C 0.59651 0.07235 0.96743 0.0
C794 C 0.64599 0.12831 0.97885 0.0
C795 C 0.69863 0.16681 0.95366 0.0
C796 C 0.67709 0.14618 0.95939 0.0
C797 C 0.61575 0.08663 0.9777 0.0
C798 C 0.63671 0.10708 0.97115 0.0
H799 H 0.75564 0.184 0.94459 0.0
H800 H 0.71878 0.14903 0.95073 0.0
H801 H 0.67264 0.1636 0.97939 0.0
H802 H 0.59393 0.06078 0.014 0.0
H803 H 0.62916 0.09228 1.00271 0.0
C804 C 0.85209 0.63298 0.9711 0.0
C805 C 0.83526 0.62206 0.95852 0.0
C806 C 0.86902 0.62613 0.97541 0.0
C807 C 0.89831 0.59475 0.96153 0.0
H808 H 0.9026 0.58044 0.00733 0.0
C809 C 0.94384 0.54206 0.98524 0.0
C810 C 0.95651 0.548 1.00025 0.0
C811 C 0.93028 0.55242 0.97974 0.0
C812 C 0.90198 0.5847 0.99454 0.0
H813 H 0.82263 0.59553 0.94061 0.0
H814 H 0.85269 0.58394 0.94772 0.0
H815 H 0.87792 0.59746 0.99809 0.0
H816 H 0.96534 0.56982 0.02111 0.0
H817 H 0.94226 0.58829 0.01136 0.0
H818 H 0.92248 0.58212 0.95795 0.0
C819 C 0.85302 0.59797 0.95414 0.0
C820 C 0.8878 0.59444 0.98926 0.0
C821 C 0.83595 0.60467 0.94998 0.0
C822 C 0.95556 0.56467 0.00957 0.0
C823 C 0.94223 0.57521 1.004 0.0
C824 C 0.91273 0.58522 0.96683 0.0
C825 C 0.86941 0.60832 0.96711 0.0
C826 C 0.88569 0.59939 0.9727 0.0
C827 C 0.92931 0.56913 0.98906 0.0
C828 C 0.91458 0.57991 0.98339 0.0
H829 H 0.8516 0.64631 0.97787 0.0
H830 H 0.88155 0.63447 0.9854 0.0
H831 H 0.8971 0.59856 0.9487 0.0
H832 H 0.94415 0.5292 0.97781 0.0
H833 H 0.92026 0.54705 0.96831 0.0
C834 C 0.44632 0.27332 0.96274 0.0
C835 C 0.46475 0.26819 0.96116 0.0
C836 C 0.45081 0.29415 0.96928 0.0
C837 C 0.49236 0.34052 0.99568 0.0
H838 H 0.46637 0.37635 0.97298 0.0
C839 C 0.51583 0.43138 0.01623 0.0
C840 C 0.49779 0.43744 0.01511 0.0
C841 C 0.51247 0.41114 0.00931 0.0
C842 C 0.47351 0.36645 0.97962 0.0
H843 H 0.50222 0.28055 0.96523 0.0
H844 H 0.51012 0.31688 0.9771 0.0
H845 H 0.45884 0.33989 0.962 0.0
H846 H 0.46209 0.42719 0.00595 0.0
H847 H 0.4559 0.3916 0.99428 0.0
H848 H 0.50653 0.36668 0.01353 0.0
C849 C 0.49219 0.30479 0.97325 0.0
C850 C 0.46924 0.34558 0.97328 0.0
C851 C 0.48771 0.28406 0.96652 0.0
C852 C 0.47636 0.42298 0.00691 0.0
C853 C 0.47289 0.40264 1.00013 0.0
C854 C 0.49641 0.36127 1.00214 0.0
C855 C 0.47381 0.31013 0.97456 0.0
C856 C 0.47858 0.33239 0.98125 0.0
C857 C 0.49088 0.3964 1.00125 0.0
C858 C 0.48699 0.37451 0.99421 0.0
H859 H 0.42843 0.26117 0.95889 0.0
H860 H 0.43625 0.29767 0.97034 0.0
H861 H 0.49958 0.33058 1.00217 0.0
H862 H 0.53259 0.44234 0.02241 0.0
H863 H 0.52688 0.40715 0.01018 0.0
C864 C 0.17361 0.74001 0.07488 0.0
C865 C 0.19746 0.74552 0.07552 0.0
C866 C 0.15627 0.71903 0.06864 0.0
C867 C 0.14584 0.66043 0.05938 0.0
H868 H 0.0917 0.65707 0.03424 0.0
C869 C 0.08036 0.58056 0.02278 0.0
C870 C 0.05621 0.5737 0.02341 0.0
C871 C 0.09734 0.60111 0.02976 0.0
C872 C 0.10659 0.65768 0.04139 0.0
H873 H 0.22205 0.73356 0.07047 0.0
H874 H 0.19198 0.69717 0.05896 0.0
H875 H 0.12202 0.69393 0.0446 0.0
H876 H 0.03082 0.58271 0.03208 0.0
H877 H 0.06053 0.61877 0.04422 0.0
H878 H 0.13053 0.62418 0.05585 0.0
C879 C 0.18647 0.70881 0.06346 0.0
C880 C 0.12399 0.67883 0.04736 0.0
C881 C 0.20375 0.72974 0.06982 0.0
C882 C 0.04933 0.58761 0.03138 0.0
C883 C 0.06633 0.6083 0.03824 0.0
C884 C 0.12853 0.63932 0.05329 0.0
C885 C 0.16244 0.70308 0.06287 0.0
C886 C 0.14389 0.68052 0.05644 0.0
C887 C 0.09055 0.61536 0.03743 0.0
C888 C 0.1087 0.6377 0.04422 0.0
H889 H 0.16843 0.75192 0.07937 0.0
H890 H 0.13799 0.71514 0.06867 0.0
H891 H 0.16062 0.6609 0.06658 0.0
H892 H 0.08616 0.57013 0.01674 0.0
H893 H 0.11583 0.60613 0.02882 0.0
C894 C 0.26924 0.43131 0.08684 0.0
C895 C 0.2472 0.4158 0.07992 0.0
C896 C 0.28974 0.43185 0.08192 0.0
C897 C 0.31347 0.42246 0.04631 0.0
H898 H 0.36612 0.43171 0.07581 0.0
C899 C 0.40583 0.44628 0.02369 0.0
C900 C 0.42491 0.46362 0.03245 0.0
C901 C 0.38307 0.43615 0.02959 0.0
C902 C 0.3516 0.42922 0.06741 0.0
H903 H 0.22893 0.38818 0.06298 0.0
H904 H 0.26505 0.38942 0.05398 0.0
H905 H 0.32778 0.42081 0.08665 0.0
H906 H 0.43502 0.48421 0.05411 0.0
H907 H 0.39554 0.46705 0.0641 0.0
H908 H 0.33751 0.43201 0.02711 0.0
C909 C 0.26641 0.40104 0.06326 0.0
C910 C 0.32967 0.42288 0.07362 0.0
C911 C 0.24585 0.40032 0.06837 0.0
C912 C 0.42077 0.47078 0.04709 0.0
C913 C 0.39812 0.46076 0.05293 0.0
C914 C 0.33548 0.429 0.04008 0.0
C915 C 0.28856 0.41708 0.06982 0.0
C916 C 0.31058 0.42005 0.06316 0.0
C917 C 0.37902 0.44322 0.04433 0.0
C918 C 0.35495 0.43312 0.05062 0.0
H919 H 0.2707 0.44377 0.09545 0.0
H920 H 0.30662 0.44465 0.08697 0.0
H921 H 0.29906 0.42058 0.03799 0.0
H922 H 0.4085 0.44032 0.0124 0.0
H923 H 0.36871 0.42261 0.02272 0.0
C924 C 0.51989 0.79978 0.07152 0.0
C925 C 0.54258 0.80229 0.07429 0.0
C926 C 0.51689 0.81875 0.06697 0.0
C927 C 0.54549 0.88216 0.06462 0.0
H928 H 0.50247 0.87053 0.02713 0.0
C929 C 0.53479 0.95392 0.02719 0.0
C930 C 0.51194 0.94798 0.02095 0.0
C931 C 0.53938 0.93731 0.03529 0.0
C932 C 0.51427 0.87407 0.03775 0.0
H933 H 0.57988 0.82651 0.07557 0.0
H934 H 0.57474 0.86006 0.06762 0.0
H935 H 0.50864 0.8396 0.03895 0.0
H936 H 0.47575 0.92062 0.01908 0.0
H937 H 0.48349 0.89201 0.03345 0.0
H938 H 0.55099 0.91677 0.06336 0.0
C939 C 0.55926 0.8434 0.06894 0.0
C940 C 0.51783 0.85629 0.04452 0.0
C941 C 0.56223 0.82431 0.07347 0.0
C942 C 0.49362 0.92557 0.02354 0.0
C943 C 0.49811 0.90914 0.03171 0.0
C944 C 0.54179 0.90003 0.05788 0.0
C945 C 0.53656 0.84067 0.06515 0.0
C946 C 0.53328 0.86002 0.05812 0.0
C947 C 0.52113 0.91456 0.03731 0.0
C948 C 0.52592 0.8961 0.04444 0.0
H949 H 0.50452 0.78298 0.07243 0.0
H950 H 0.49916 0.81618 0.06448 0.0
H951 H 0.55753 0.88553 0.07511 0.0
H952 H 0.5492 0.97114 0.02536 0.0
H953 H 0.55732 0.94208 0.03941 0.0
C954 C 0.95354 0.14842 0.41618 0.0
C955 C 0.93424 0.15181 0.41889 0.0
C956 C 0.97499 0.16683 0.41154 0.0
C957 C 0.01109 0.22994 0.40969 0.0
H958 H 0.0362 0.21814 0.37186 0.0
C959 C 0.10467 0.29078 0.38586 0.0
C960 C 0.10658 0.29423 0.36892 0.0
C961 C 0.08324 0.27492 0.39251 0.0
C962 C 0.02936 0.22178 0.38236 0.0
H963 H 0.92253 0.17716 0.41998 0.0
H964 H 0.96038 0.20973 0.41215 0.0
H965 H 0.00032 0.18761 0.38334 0.0
H966 H 0.08714 0.28401 0.34574 0.0
H967 H 0.04988 0.25623 0.35736 0.0
H968 H 0.04038 0.26417 0.4087 0.0
C969 C 0.95884 0.19277 0.41348 0.0
C970 C 0.00894 0.20421 0.38905 0.0
C971 C 0.93725 0.17422 0.41801 0.0
C972 C 0.08636 0.28184 0.35883 0.0
C973 C 0.06502 0.2658 0.36548 0.0
C974 C 0.03178 0.24749 0.4031 0.0
C975 C 0.9777 0.18912 0.40968 0.0
C976 C 0.99956 0.20804 0.4028 0.0
C977 C 0.06328 0.26193 0.38238 0.0
C978 C 0.0411 0.2436 0.38933 0.0
H979 H 0.95171 0.13132 0.4171 0.0
H980 H 0.98933 0.16354 0.40904 0.0
H981 H 0.00431 0.2334 0.4203 0.0
H982 H 0.11984 0.30005 0.39401 0.0
H983 H 0.08251 0.27225 0.40557 0.0
C984 C 0.81446 0.73642 0.40151 0.0
C985 C 0.83857 0.75204 0.40086 0.0
C986 C 0.79775 0.74286 0.39558 0.0
C987 C 0.79015 0.7856 0.36934 0.0
H988 H 0.73848 0.77213 0.39709 0.0
C989 C 0.71624 0.80735 0.34986 0.0
C990 C 0.70959 0.81769 0.36151 0.0
C991 C 0.73096 0.79793 0.35428 0.0
C992 C 0.75287 0.77608 0.38926 0.0
H993 H 0.86455 0.78619 0.39349 0.0
H994 H 0.83544 0.79764 0.38294 0.0
H995 H 0.76629 0.758 0.40488 0.0
H996 H 0.71296 0.82597 0.38701 0.0
H997 H 0.7389 0.80961 0.3947 0.0
H998 H 0.77713 0.80418 0.35393 0.0
C999 C 0.8293 0.78036 0.38783 0.0
C1000 C 0.7686 0.76776 0.39361 0.0
C1001 C 0.84593 0.77391 0.39383 0.0
C1002 C 0.71775 0.81813 0.37774 0.0
C1003 C 0.73249 0.80865 0.38217 0.0
C1004 C 0.77439 0.79385 0.36497 0.0
C1005 C 0.80503 0.76502 0.3889 0.0
C1006 C 0.78751 0.7726 0.38375 0.0
C1007 C 0.73937 0.79861 0.37044 0.0
C1008 C 0.75568 0.78931 0.37494 0.0
H1009 H 0.80865 0.71952 0.40701 0.0
H1010 H 0.77918 0.73062 0.3964 0.0
H1011 H 0.80447 0.78947 0.36147 0.0
H1012 H 0.71018 0.80659 0.33726 0.0
H1013 H 0.73571 0.79002 0.34503 0.0
C1014 C 0.22845 0.05579 0.40195 0.0
C1015 C 0.21069 0.06214 0.40209 0.0
C1016 C 0.22339 0.03432 0.39626 0.0
C1017 C 0.17306 0.97637 0.38705 0.0
H1018 H 0.21981 0.9704 0.36344 0.0
C1019 C 0.15303 0.89481 0.35203 0.0
C1020 C 0.16959 0.88689 0.35437 0.0
C1021 C 0.15778 0.91595 0.3582 0.0
C1022 C 0.20666 0.97179 0.37012 0.0
H1023 H 0.17378 0.0512 0.39648 0.0
H1024 H 0.165 0.0141 0.38583 0.0
H1025 H 0.22862 0.00792 0.37312 0.0
H1026 H 0.20402 0.89468 0.36502 0.0
H1027 H 0.21244 0.93174 0.37564 0.0
H1028 H 0.15094 0.94022 0.38363 0.0
C1029 C 0.18276 0.02537 0.39045 0.0
C1030 C 0.21172 0.99328 0.37574 0.0
C1031 C 0.18781 0.04674 0.39632 0.0
C1032 C 0.19094 0.90039 0.36304 0.0
C1033 C 0.19581 0.92164 0.36904 0.0
C1034 C 0.16792 0.95493 0.38125 0.0
C1035 C 0.20046 0.0188 0.39041 0.0
C1036 C 0.19501 0.99588 0.38433 0.0
C1037 C 0.17931 0.92966 0.36665 0.0
C1038 C 0.18469 0.95241 0.37278 0.0
H1039 H 0.24626 0.06748 0.40626 0.0
H1040 H 0.23742 0.0298 0.39666 0.0
H1041 H 0.15991 0.97755 0.39387 0.0
H1042 H 0.13641 0.88468 0.34542 0.0
H1043 H 0.1448 0.92178 0.3561 0.0
C1044 C 0.4678 0.63075 0.29499 0.0
C1045 C 0.4757 0.61559 0.29045 0.0
C1046 C 0.48375 0.6522 0.30138 0.0
C1047 C 0.54511 0.68524 0.31938 0.0
H1048 H 0.53596 0.73787 0.30818 0.0
C1049 C 0.61699 0.77841 0.33235 0.0
C1050 C 0.60958 0.79205 0.34014 0.0
C1051 C 0.60043 0.75717 0.32602 0.0
C1052 C 0.53865 0.72329 0.31148 0.0
H1053 H 0.50623 0.61063 0.28932 0.0
H1054 H 0.5343 0.64831 0.29976 0.0
H1055 H 0.50751 0.7001 0.29798 0.0
H1056 H 0.5791 0.79462 0.34689 0.0
H1057 H 0.55009 0.75762 0.33556 0.0
H1058 H 0.57661 0.70867 0.33253 0.0
C1059 C 0.51578 0.64365 0.29877 0.0
C1060 C 0.52228 0.70158 0.30572 0.0
C1061 C 0.49977 0.62214 0.29258 0.0
C1062 C 0.58529 0.78441 0.341 0.0
C1063 C 0.56871 0.76329 0.33447 0.0
C1064 C 0.56161 0.70698 0.32495 0.0
C1065 C 0.50803 0.65906 0.30323 0.0
C1066 C 0.52527 0.68221 0.30958 0.0
C1067 C 0.57611 0.74928 0.32714 0.0
C1068 C 0.55858 0.72625 0.32106 0.0
H1069 H 0.44932 0.62611 0.29336 0.0
H1070 H 0.47699 0.66335 0.3049 0.0
H1071 H 0.54784 0.67076 0.32293 0.0
H1072 H 0.63561 0.7839 0.33147 0.0
H1073 H 0.60665 0.74687 0.32027 0.0
C1074 C 0.40974 0.93028 0.29114 0.0
C1075 C 0.42813 0.9483 0.29978 0.0
C1076 C 0.38705 0.9192 0.29695 0.0
C1077 C 0.34854 0.92595 0.32489 0.0
H1078 H 0.31061 0.86007 0.31968 0.0
C1079 C 0.25729 0.87285 0.35234 0.0
C1080 C 0.23915 0.85772 0.34173 0.0
C1081 C 0.28073 0.88348 0.34791 0.0
C1082 C 0.32098 0.87848 0.32112 0.0
H1083 H 0.43774 0.96878 0.32127 0.0
H1084 H 0.39787 0.94905 0.33181 0.0
H1085 H 0.3512 0.87967 0.31104 0.0
H1086 H 0.23142 0.84154 0.31828 0.0
H1087 H 0.27253 0.86008 0.3106 0.0
H1088 H 0.31825 0.92463 0.33511 0.0
C1089 C 0.40086 0.94381 0.32034 0.0
C1090 C 0.34418 0.88973 0.31615 0.0
C1091 C 0.42361 0.95502 0.31442 0.0
C1092 C 0.24499 0.85313 0.32671 0.0
C1093 C 0.2685 0.86364 0.32234 0.0
C1094 C 0.32538 0.91466 0.32998 0.0
C1095 C 0.38234 0.92572 0.31166 0.0
C1096 C 0.35814 0.91364 0.3178 0.0
C1097 C 0.28654 0.87906 0.33285 0.0
C1098 C 0.31133 0.89086 0.32799 0.0
H1099 H 0.41306 0.92461 0.27996 0.0
H1100 H 0.37316 0.90559 0.28984 0.0
H1101 H 0.35871 0.94441 0.32614 0.0
H1102 H 0.2534 0.87678 0.36401 0.0
H1103 H 0.29435 0.89513 0.35629 0.0
C1104 C 0.13332 0.51638 0.28238 0.0
C1105 C 0.11974 0.52349 0.29073 0.0
C1106 C 0.13554 0.49721 0.28799 0.0
C1107 C 0.13793 0.46911 0.32595 0.0
H1108 H 0.12901 0.41736 0.30098 0.0
C1109 C 0.15135 0.39611 0.35652 0.0
C1110 C 0.16034 0.38514 0.3473 0.0
C1111 C 0.14429 0.41133 0.34906 0.0
C1112 C 0.13198 0.43185 0.30811 0.0
H1113 H 0.09652 0.51538 0.31062 0.0
H1114 H 0.10088 0.48228 0.32071 0.0
H1115 H 0.12043 0.44666 0.2882 0.0
H1116 H 0.16991 0.38197 0.32326 0.0
H1117 H 0.15854 0.40908 0.31025 0.0
H1118 H 0.15058 0.45538 0.34559 0.0
C1119 C 0.10983 0.4915 0.3099 0.0
C1120 C 0.12688 0.44853 0.30076 0.0
C1121 C 0.10732 0.51035 0.30415 0.0
C1122 C 0.16236 0.38974 0.33053 0.0
C1123 C 0.1558 0.40532 0.3231 0.0
C1124 C 0.14349 0.45277 0.33319 0.0
C1125 C 0.12446 0.48511 0.30214 0.0
C1126 C 0.12967 0.46722 0.30967 0.0
C1127 C 0.14671 0.41645 0.33225 0.0
C1128 C 0.1405 0.43378 0.32443 0.0
H1129 H 0.14326 0.52641 0.27213 0.0
H1130 H 0.14699 0.49265 0.28183 0.0
H1131 H 0.14059 0.48358 0.33302 0.0
H1132 H 0.14959 0.39277 0.36949 0.0
H1133 H 0.1369 0.41903 0.35653 0.0
C1134 C 0.40569 0.51692 0.28089 0.0
C1135 C 0.40652 0.53845 0.28047 0.0
C1136 C 0.38495 0.49699 0.28502 0.0
C1137 C 0.33279 0.47969 0.30891 0.0
H1138 H 0.30759 0.42083 0.28812 0.0
C1139 C 0.26097 0.39682 0.33804 0.0
C1140 C 0.24138 0.38279 0.32793 0.0
C1141 C 0.28132 0.41469 0.33146 0.0
C1142 C 0.31441 0.43718 0.29401 0.0
H1143 H 0.38618 0.55602 0.28295 0.0
H1144 H 0.35001 0.52139 0.2903 0.0
H1145 H 0.34219 0.45437 0.27724 0.0
H1146 H 0.22832 0.37614 0.30281 0.0
H1147 H 0.26401 0.40727 0.29135 0.0
H1148 H 0.30522 0.46269 0.32569 0.0
C1149 C 0.36538 0.51982 0.28768 0.0
C1150 C 0.33428 0.45633 0.28785 0.0
C1151 C 0.386 0.53962 0.28345 0.0
C1152 C 0.24303 0.38659 0.31099 0.0
C1153 C 0.26352 0.40438 0.3044 0.0
C1154 C 0.31317 0.46057 0.31516 0.0
C1155 C 0.36476 0.49834 0.2889 0.0
C1156 C 0.34362 0.47783 0.2952 0.0
C1157 C 0.28272 0.41892 0.31459 0.0
C1158 C 0.30373 0.43908 0.30781 0.0
H1159 H 0.42138 0.51566 0.27876 0.0
H1160 H 0.38507 0.48072 0.28591 0.0
H1161 H 0.33969 0.49593 0.31498 0.0
H1162 H 0.26043 0.39445 0.35112 0.0
H1163 H 0.29593 0.42538 0.33962 0.0
C1164 C 0.52458 0.97151 0.30441 0.0
C1165 C 0.50785 0.96066 0.29177 0.0
C1166 C 0.54195 0.96516 0.30843 0.0
C1167 C 0.57162 0.93393 0.29455 0.0
H1168 H 0.57316 0.9174 0.34018 0.0
C1169 C 0.61217 0.87687 0.31798 0.0
C1170 C 0.62424 0.8816 0.33323 0.0
C1171 C 0.59978 0.88844 0.31253 0.0
C1172 C 0.57334 0.92229 0.32745 0.0
H1173 H 0.49621 0.93511 0.27319 0.0
H1174 H 0.52698 0.92436 0.27984 0.0
H1175 H 0.54996 0.93591 0.33078 0.0
H1176 H 0.63307 0.90242 0.35464 0.0
H1177 H 0.61195 0.92295 0.34501 0.0
H1178 H 0.595 0.92029 0.29119 0.0
C1179 C 0.52689 0.93795 0.28655 0.0
C1180 C 0.56002 0.93291 0.32207 0.0
C1181 C 0.50939 0.94418 0.28265 0.0
C1182 C 0.62373 0.89819 0.3429 0.0
C1183 C 0.61155 0.90993 0.33739 0.0
C1184 C 0.58516 0.9235 0.29996 0.0
C1185 C 0.54288 0.94788 0.2998 0.0
C1186 C 0.55881 0.9386 0.30555 0.0
C1187 C 0.59938 0.90517 0.32215 0.0
C1188 C 0.58595 0.91729 0.31645 0.0
H1189 H 0.52346 0.98414 0.31161 0.0
H1190 H 0.55419 0.97321 0.31862 0.0
H1191 H 0.57109 0.93828 0.28176 0.0
H1192 H 0.61216 0.86411 0.31026 0.0
H1193 H 0.59025 0.88401 0.30087 0.0
C1194 C 0.14609 0.62322 0.28977 0.0
C1195 C 0.1306 0.60211 0.29706 0.0
C1196 C 0.15023 0.6439 0.29639 0.0
C1197 C 0.14837 0.66941 0.33438 0.0
H1198 H 0.14599 0.7169 0.30632 0.0
C1199 C 0.17879 0.76164 0.35584 0.0
C1200 C 0.1635 0.7707 0.3517 0.0
C1201 C 0.17488 0.74105 0.34918 0.0
C1202 C 0.14664 0.70376 0.3143 0.0
H1203 H 0.10727 0.58593 0.31689 0.0
H1204 H 0.11489 0.62212 0.32878 0.0
H1205 H 0.13895 0.68081 0.29468 0.0
H1206 H 0.13197 0.76527 0.33754 0.0
H1207 H 0.12544 0.72955 0.32563 0.0
H1208 H 0.15613 0.69238 0.35398 0.0
C1209 C 0.12385 0.62269 0.31795 0.0
C1210 C 0.1428 0.68321 0.30763 0.0
C1211 C 0.11951 0.60203 0.3112 0.0
C1212 C 0.14422 0.75883 0.34079 0.0
C1213 C 0.14049 0.7384 0.33396 0.0
C1214 C 0.15251 0.69008 0.34101 0.0
C1215 C 0.13917 0.64385 0.31057 0.0
C1216 C 0.14354 0.66578 0.31761 0.0
C1217 C 0.15574 0.72926 0.33813 0.0
C1218 C 0.1516 0.70743 0.33105 0.0
H1219 H 0.15509 0.62367 0.279 0.0
H1220 H 0.16233 0.65995 0.29056 0.0
H1221 H 0.1492 0.65634 0.34234 0.0
H1222 H 0.19378 0.77044 0.36423 0.0
H1223 H 0.18702 0.73449 0.35252 0.0
C1224 C 0.84802 0.07687 0.39473 0.0
C1225 C 0.86145 0.07772 0.4089 0.0
C1226 C 0.83122 0.05568 0.38843 0.0
C1227 C 0.78746 0.00933 0.38336 0.0
H1228 H 0.80093 0.95836 0.38396 0.0
C1229 C 0.71605 0.91771 0.36573 0.0
C1230 C 0.72304 0.90539 0.35606 0.0
C1231 C 0.73288 0.93831 0.37277 0.0
C1232 C 0.79692 0.97244 0.38361 0.0
H1233 H 0.86825 0.05765 0.42769 0.0
H1234 H 0.8387 0.02043 0.41689 0.0
H1235 H 0.83071 0.99539 0.39441 0.0
H1236 H 0.75307 0.9047 0.34636 0.0
H1237 H 0.78244 0.94074 0.35844 0.0
H1238 H 0.75389 0.98655 0.3722 0.0
C1239 C 0.84124 0.03599 0.41043 0.0
C1240 C 0.81392 0.99363 0.38977 0.0
C1241 C 0.85803 0.05719 0.41668 0.0
C1242 C 0.74718 0.91384 0.35378 0.0
C1243 C 0.76401 0.93443 0.36079 0.0
C1244 C 0.77046 0.98815 0.3772 0.0
C1245 C 0.82755 0.03495 0.39624 0.0
C1246 C 0.80943 0.01237 0.3897 0.0
C1247 C 0.75708 0.94704 0.37027 0.0
C1248 C 0.77499 0.96944 0.3772 0.0
H1249 H 0.85049 0.09263 0.38863 0.0
H1250 H 0.82125 0.05555 0.37737 0.0
H1251 H 0.78327 0.02328 0.38329 0.0
H1252 H 0.69754 0.9116 0.36769 0.0
H1253 H 0.72693 0.94738 0.38019 0.0
C1254 C 0.91307 0.73051 0.40128 0.0
C1255 C 0.91147 0.74647 0.41096 0.0
C1256 C 0.93508 0.73403 0.39682 0.0
C1257 C 0.99878 0.76575 0.40682 0.0
H1258 H 0.00573 0.7662 0.36038 0.0
C1259 C 0.08968 0.81181 0.37931 0.0
C1260 C 0.09405 0.80208 0.36606 0.0
C1261 C 0.06699 0.80266 0.38499 0.0
C1262 C 0.00406 0.76574 0.3734 0.0
H1263 H 0.93128 0.77813 0.42399 0.0
H1264 H 0.9699 0.78401 0.41667 0.0
H1265 H 0.96672 0.75314 0.37085 0.0
H1266 H 0.07803 0.7752 0.34827 0.0
H1267 H 0.03828 0.75884 0.3584 0.0
H1268 H 0.03601 0.77834 0.40946 0.0
C1269 C 0.9542 0.76878 0.41253 0.0
C1270 C 0.98171 0.75828 0.37938 0.0
C1271 C 0.93218 0.76539 0.41679 0.0
C1272 C 0.07515 0.78315 0.35844 0.0
C1273 C 0.05239 0.77381 0.36425 0.0
C1274 C 0.02107 0.77296 0.40087 0.0
C1275 C 0.95581 0.75342 0.40218 0.0
C1276 C 0.97896 0.75868 0.39611 0.0
C1277 C 0.0481 0.78336 0.37769 0.0
C1278 C 0.02407 0.77358 0.38405 0.0
H1279 H 0.89724 0.71566 0.39685 0.0
H1280 H 0.93589 0.72183 0.38896 0.0
H1281 H 0.99706 0.76595 0.41979 0.0
H1282 H 0.10382 0.82658 0.38535 0.0
H1283 H 0.06425 0.81085 0.39507 0.0
C1284 C 0.19089 0.13446 0.40372 0.0
C1285 C 0.21345 0.1375 0.40814 0.0
C1286 C 0.18775 0.15327 0.39892 0.0
C1287 C 0.21424 0.2164 0.39918 0.0
H1288 H 0.17561 0.20672 0.35951 0.0
C1289 C 0.20229 0.28876 0.36349 0.0
C1290 C 0.17964 0.28212 0.35651 0.0
C1291 C 0.20755 0.2723 0.37109 0.0
C1292 C 0.1862 0.20968 0.37071 0.0
H1293 H 0.25026 0.16243 0.41186 0.0
H1294 H 0.24485 0.1957 0.40351 0.0
H1295 H 0.18244 0.17591 0.3708 0.0
H1296 H 0.14443 0.25352 0.35279 0.0
H1297 H 0.15333 0.22512 0.36624 0.0
H1298 H 0.21778 0.25027 0.39904 0.0
C1299 C 0.22959 0.17874 0.40375 0.0
C1300 C 0.19013 0.19199 0.37717 0.0
C1301 C 0.23271 0.1598 0.40851 0.0
C1302 C 0.16215 0.25907 0.35784 0.0
C1303 C 0.1673 0.24276 0.36548 0.0
C1304 C 0.21018 0.23418 0.39271 0.0
C1305 C 0.20714 0.17556 0.39849 0.0
C1306 C 0.20391 0.19499 0.39159 0.0
C1307 C 0.19019 0.249 0.37184 0.0
C1308 C 0.19579 0.23087 0.37852 0.0
H1309 H 0.17577 0.11741 0.40366 0.0
H1310 H 0.17016 0.15032 0.39527 0.0
H1311 H 0.22496 0.21919 0.4103 0.0
H1312 H 0.21607 0.30648 0.36263 0.0
H1313 H 0.22536 0.27767 0.37586 0.0
C1314 C 0.61937 0.48046 0.74902 0.0
C1315 C 0.60043 0.4842 0.7522 0.0
C1316 C 0.6408 0.49866 0.74414 0.0
C1317 C 0.67775 0.56172 0.74193 0.0
H1318 H 0.70091 0.5488 0.70357 0.0
C1319 C 0.77075 0.62117 0.7167 0.0
C1320 C 0.77224 0.62436 0.69972 0.0
C1321 C 0.74944 0.60559 0.72364 0.0
C1322 C 0.69463 0.55276 0.71422 0.0
H1323 H 0.58938 0.50995 0.75383 0.0
H1324 H 0.62724 0.54218 0.74557 0.0
H1325 H 0.66517 0.51888 0.71559 0.0
H1326 H 0.75216 0.61389 0.67678 0.0
H1327 H 0.71511 0.58661 0.6889 0.0
H1328 H 0.70744 0.59566 0.74053 0.0
C1329 C 0.62543 0.52509 0.74675 0.0
C1330 C 0.67428 0.53553 0.72122 0.0
C1331 C 0.60384 0.50675 0.75154 0.0
C1332 C 0.75172 0.61193 0.68989 0.0
C1333 C 0.73049 0.59617 0.69683 0.0
C1334 C 0.69836 0.57894 0.73502 0.0
C1335 C 0.64387 0.52109 0.74246 0.0
C1336 C 0.66561 0.53973 0.73519 0.0
C1337 C 0.72915 0.59261 0.71378 0.0
C1338 C 0.70701 0.57465 0.72106 0.0
H1339 H 0.61717 0.46322 0.74965 0.0
H1340 H 0.6548 0.49506 0.74125 0.0
H1341 H 0.67153 0.56548 0.7527 0.0
H1342 H 0.78614 0.63047 0.72466 0.0
H1343 H 0.74905 0.60315 0.73672 0.0
C1344 C 0.49967 0.09121 0.72433 0.0
C1345 C 0.5162 0.10382 0.73662 0.0
C1346 C 0.48281 0.09752 0.71847 0.0
C1347 C 0.46922 0.14594 0.71782 0.0
H1348 H 0.40476 0.09798 0.70982 0.0
C1349 C 0.39097 0.16447 0.71087 0.0
C1350 C 0.37596 0.15526 0.69707 0.0
C1351 C 0.40776 0.15754 0.71544 0.0
C1352 C 0.42273 0.11151 0.71192 0.0
H1353 H 0.52898 0.13319 0.75208 0.0
H1354 H 0.49916 0.14384 0.74239 0.0
H1355 H 0.43546 0.08755 0.7176 0.0
H1356 H 0.36611 0.13099 0.67761 0.0
H1357 H 0.39527 0.1187 0.6858 0.0
H1358 H 0.45629 0.16986 0.71255 0.0
C1359 C 0.49923 0.12932 0.73701 0.0
C1360 C 0.44034 0.10558 0.71627 0.0
C1361 C 0.51611 0.12311 0.74272 0.0
C1362 C 0.37751 0.13846 0.68827 0.0
C1363 C 0.3941 0.13134 0.69297 0.0
C1364 C 0.45159 0.15185 0.71366 0.0
C1365 C 0.48226 0.11652 0.72489 0.0
C1366 C 0.46376 0.12274 0.71938 0.0
C1367 C 0.40961 0.1411 0.70643 0.0
C1368 C 0.42819 0.13469 0.71077 0.0
H1369 H 0.49959 0.07629 0.7195 0.0
H1370 H 0.47022 0.08751 0.70896 0.0
H1371 H 0.48715 0.1596 0.71979 0.0
H1372 H 0.3902 0.17746 0.71788 0.0
H1373 H 0.41939 0.16513 0.72598 0.0
C1374 C 0.89319 0.38908 0.73353 0.0
C1375 C 0.87517 0.39499 0.73418 0.0
C1376 C 0.88827 0.36767 0.72783 0.0
C1377 C 0.83833 0.30912 0.71988 0.0
H1378 H 0.88478 0.3033 0.69579 0.0
C1379 C 0.81925 0.22676 0.68618 0.0
C1380 C 0.83633 0.21948 0.6885 0.0
C1381 C 0.82355 0.24789 0.69209 0.0
C1382 C 0.87172 0.30466 0.70261 0.0
H1383 H 0.83799 0.38344 0.7293 0.0
H1384 H 0.82941 0.3464 0.7186 0.0
H1385 H 0.89309 0.341 0.70475 0.0
H1386 H 0.87114 0.22833 0.69897 0.0
H1387 H 0.87878 0.26541 0.70909 0.0
H1388 H 0.81678 0.27272 0.7173 0.0
C1389 C 0.84728 0.35797 0.72287 0.0
C1390 C 0.87649 0.32626 0.70781 0.0
C1391 C 0.8522 0.3793 0.72876 0.0
C1392 C 0.85767 0.23355 0.69698 0.0
C1393 C 0.8621 0.2548 0.7027 0.0
C1394 C 0.83346 0.28756 0.71448 0.0
C1395 C 0.86522 0.35177 0.72245 0.0
C1396 C 0.85992 0.32879 0.7166 0.0
C1397 C 0.84514 0.26224 0.70023 0.0
C1398 C 0.85016 0.2851 0.70588 0.0
H1399 H 0.91107 0.40102 0.73754 0.0
H1400 H 0.9025 0.36347 0.72793 0.0
H1401 H 0.8253 0.31026 0.72686 0.0
H1402 H 0.80263 0.21618 0.67972 0.0
H1403 H 0.81022 0.25326 0.68995 0.0
C1404 C 0.15375 0.95164 0.64043 0.0
C1405 C 0.14133 0.95011 0.62562 0.0
C1406 C 0.16978 0.97312 0.6467 0.0
C1407 C 0.21297 0.01991 0.6519 0.0
H1408 H 0.19886 0.07051 0.64831 0.0
C1409 C 0.2831 0.1129 0.66744 0.0
C1410 C 0.27571 0.12586 0.67607 0.0
C1411 C 0.26659 0.09166 0.66106 0.0
C1412 C 0.20303 0.05653 0.64951 0.0
H1413 H 0.13581 0.96939 0.6056 0.0
H1414 H 0.16398 0.00711 0.6164 0.0
H1415 H 0.16991 0.03289 0.63819 0.0
H1416 H 0.24528 0.12693 0.68468 0.0
H1417 H 0.21643 0.08977 0.6737 0.0
H1418 H 0.2459 0.04342 0.66347 0.0
C1419 C 0.16113 0.99182 0.62338 0.0
C1420 C 0.18652 0.03501 0.64355 0.0
C1421 C 0.14513 0.97033 0.61714 0.0
C1422 C 0.25148 0.11731 0.67806 0.0
C1423 C 0.23495 0.09607 0.67168 0.0
C1424 C 0.22949 0.04143 0.65783 0.0
C1425 C 0.17377 0.99351 0.63822 0.0
C1426 C 0.19126 0.01641 0.64467 0.0
C1427 C 0.2423 0.08291 0.66318 0.0
C1428 C 0.22474 0.06003 0.65672 0.0
H1429 H 0.15122 0.93616 0.64701 0.0
H1430 H 0.17901 0.97375 0.65823 0.0
H1431 H 0.21735 1.00606 0.6528 0.0
H1432 H 0.30168 0.11908 0.6657 0.0
H1433 H 0.27286 0.08216 0.65438 0.0
C1434 C 0.0938 0.30426 0.64969 0.0
C1435 C 0.09939 0.29879 0.63496 0.0
C1436 C 0.0704 0.29341 0.65441 0.0
C1437 C 0.00876 0.26071 0.63889 0.0
H1438 H 0.99701 0.23339 0.68225 0.0
C1439 C 0.91526 0.19508 0.65813 0.0
C1440 C 0.90914 0.19688 0.67384 0.0
C1441 C 0.93857 0.20803 0.65345 0.0
C1442 C -3e-05 0.24117 0.67018 0.0
H1443 H 0.08547 0.27815 0.6135 0.0
H1444 H 0.04447 0.25944 0.62151 0.0
H1445 H 0.0375 0.25672 0.67392 0.0
H1446 H 0.92275 0.21361 0.69701 0.0
H1447 H 0.96315 0.2364 0.68877 0.0
H1448 H 0.97128 0.24528 0.63512 0.0
C1449 C 0.05798 0.27218 0.62938 0.0
C1450 C 0.02317 0.25454 0.66543 0.0
C1451 C 0.08133 0.28283 0.62479 0.0
C1452 C 0.92686 0.21167 0.68483 0.0
C1453 C 0.95009 0.22471 0.68013 0.0
C1454 C 0.98555 0.24747 0.64366 0.0
C1455 C 0.05232 0.27709 0.64435 0.0
C1456 C 0.02777 0.26429 0.64971 0.0
C1457 C 0.95622 0.22314 0.66437 0.0
C1458 C 0.98088 0.2374 0.65933 0.0
H1459 H 0.1076 0.31656 0.65764 0.0
H1460 H 0.06646 0.29762 0.66595 0.0
H1461 H 0.01185 0.26821 0.62673 0.0
H1462 H 0.90204 0.18376 0.64939 0.0
H1463 H 0.94278 0.20613 0.6413 0.0
C1464 C 0.80117 0.84911 0.61413 0.0
C1465 C 0.78836 0.85683 0.62276 0.0
C1466 C 0.8031 0.82977 0.6197 0.0
C1467 C 0.80675 0.80218 0.65753 0.0
H1468 H 0.79406 0.74889 0.6329 0.0
C1469 C 0.81901 0.72832 0.6878 0.0
C1470 C 0.82655 0.71637 0.67828 0.0
C1471 C 0.81226 0.74388 0.68055 0.0
C1472 C 0.7981 0.7638 0.63992 0.0
H1473 H 0.76624 0.8497 0.64319 0.0
H1474 H 0.77017 0.81634 0.65323 0.0
H1475 H 0.78604 0.77865 0.62034 0.0
H1476 H 0.83371 0.71171 0.65386 0.0
H1477 H 0.823 0.73945 0.64122 0.0
H1478 H 0.81993 0.78838 0.67681 0.0
C1479 C 0.7787 0.82518 0.64221 0.0
C1480 C 0.79331 0.78075 0.63271 0.0
C1481 C 0.77645 0.84418 0.63648 0.0
C1482 C 0.82738 0.72031 0.66141 0.0
C1483 C 0.82116 0.73624 0.65418 0.0
C1484 C 0.81201 0.78556 0.66462 0.0
C1485 C 0.79253 0.81813 0.63411 0.0
C1486 C 0.79746 0.8 0.6415 0.0
C1487 C 0.81354 0.74835 0.66363 0.0
C1488 C 0.80767 0.76601 0.65599 0.0
H1489 H 0.81075 0.85876 0.60365 0.0
H1490 H 0.81394 0.8247 0.61328 0.0
H1491 H 0.81043 0.81706 0.66449 0.0
H1492 H 0.81817 0.72549 0.70085 0.0
H1493 H 0.806 0.75235 0.68828 0.0
C1494 C 0.0717 0.85122 0.61578 0.0
C1495 C 0.07278 0.87286 0.61519 0.0
C1496 C 0.05052 0.83135 0.61915 0.0
C1497 C 0.9966 0.81374 0.6409 0.0
H1498 H 0.97296 0.75549 0.61951 0.0
C1499 C 0.92502 0.72943 0.66848 0.0
C1500 C 0.90574 0.71544 0.65813 0.0
C1501 C 0.94523 0.74783 0.66221 0.0
C1502 C 0.97932 0.77168 0.62554 0.0
H1503 H 0.05254 0.89073 0.61665 0.0
H1504 H 0.01556 0.85615 0.62277 0.0
H1505 H 0.00817 0.78939 0.60965 0.0
H1506 H 0.89312 0.7094 0.63293 0.0
H1507 H 0.92864 0.74152 0.62197 0.0
H1508 H 0.96806 0.79615 0.65689 0.0
C1509 C 0.03106 0.85447 0.62082 0.0
C1510 C 0.99953 0.79102 0.61997 0.0
C1511 C 0.05215 0.87424 0.61732 0.0
C1512 C 0.90755 0.71988 0.64127 0.0
C1513 C 0.92795 0.7382 0.63497 0.0
C1514 C 0.97666 0.79441 0.64658 0.0
C1515 C 0.03011 0.83285 0.62211 0.0
C1516 C 0.00836 0.81228 0.62759 0.0
C1517 C 0.94683 0.75263 0.64542 0.0
C1518 C 0.96782 0.77314 0.63902 0.0
H1519 H 0.08747 0.84981 0.61437 0.0
H1520 H 0.05039 0.81497 0.62017 0.0
H1521 H 0.00309 0.82979 0.64716 0.0
H1522 H 0.92432 0.7266 0.68153 0.0
H1523 H 0.95961 0.75846 0.67055 0.0
C1524 C 0.16427 0.27279 0.62968 0.0
C1525 C 0.17239 0.29649 0.62798 0.0
C1526 C 0.18023 0.2643 0.63167 0.0
C1527 C 0.21722 0.24937 0.62898 0.0
H1528 H 0.27007 0.28102 0.6596 0.0
C1529 C 0.2836 0.21623 0.6466 0.0
C1530 C 0.29018 0.21682 0.66321 0.0
C1531 C 0.27095 0.22735 0.64067 0.0
C1532 C 0.25536 0.27195 0.65105 0.0
H1533 H 0.20314 0.32988 0.62598 0.0
H1534 H 0.23146 0.3151 0.62938 0.0
H1535 H 0.24465 0.29776 0.6516 0.0
H1536 H 0.28851 0.22952 0.6866 0.0
H1537 H 0.26614 0.24849 0.67631 0.0
H1538 H 0.2273 0.22306 0.62898 0.0
C1539 C 0.21275 0.30309 0.62952 0.0
C1540 C 0.24098 0.2817 0.6463 0.0
C1541 C 0.19668 0.31156 0.62751 0.0
C1542 C 0.28381 0.22876 0.67373 0.0
C1543 C 0.27114 0.23982 0.66781 0.0
C1544 C 0.23158 0.2396 0.63375 0.0
C1545 C 0.20467 0.27936 0.63187 0.0
C1546 C 0.22147 0.27031 0.63545 0.0
C1547 C 0.26457 0.23927 0.65121 0.0
C1548 C 0.25055 0.25057 0.64508 0.0
H1549 H 0.14552 0.26089 0.62967 0.0
H1550 H 0.17339 0.24597 0.63357 0.0
H1551 H 0.20251 0.24031 0.62044 0.0
H1552 H 0.28826 0.20725 0.63815 0.0
H1553 H 0.26634 0.22676 0.62779 0.0
C1554 C 0.8161 0.95695 0.62107 0.0
C1555 C 0.80081 0.93609 0.62874 0.0
C1556 C 0.82084 0.97788 0.62759 0.0
C1557 C 0.82123 1.00457 0.66561 0.0
H1558 H 0.8175 0.0514 0.63755 0.0
C1559 C 0.85166 0.09705 0.68664 0.0
C1560 C 0.83586 0.10564 0.6829 0.0
C1561 C 0.84791 0.07655 0.67993 0.0
C1562 C 0.81857 0.03846 0.64552 0.0
H1563 H 0.77848 0.92061 0.64915 0.0
H1564 H 0.78718 0.95724 0.66085 0.0
H1565 H 0.80991 0.01503 0.62609 0.0
H1566 H 0.80368 0.0995 0.66933 0.0
H1567 H 0.79743 0.06397 0.6573 0.0
H1568 H 0.82988 0.028 0.68505 0.0
C1569 C 0.79551 0.95743 0.6498 0.0
C1570 C 0.81441 0.01774 0.63895 0.0
C1571 C 0.79056 0.93651 0.64316 0.0
C1572 C 0.81632 0.09344 0.67226 0.0
C1573 C 0.81274 0.07311 0.66538 0.0
C1574 C 0.8257 0.02541 0.67214 0.0
C1575 C 0.81062 0.97833 0.64204 0.0
C1576 C 0.81555 1.00053 0.64895 0.0
C1577 C 0.82843 0.06439 0.6692 0.0
C1578 C 0.82428 0.04251 0.66218 0.0
H1579 H 0.82446 0.95702 0.61007 0.0
H1580 H 0.83276 0.99374 0.62144 0.0
H1581 H 0.82239 0.99167 0.67358 0.0
H1582 H 0.86686 0.10611 0.69482 0.0
H1583 H 0.86037 0.0703 0.683 0.0
C1584 C 0.50303 0.40629 0.73884 0.0
C1585 C 0.52668 0.41118 0.74096 0.0
C1586 C 0.48601 0.38551 0.73213 0.0
C1587 C 0.47866 0.33879 0.70622 0.0
H1588 H 0.41913 0.3034 0.72715 0.0
C1589 C 0.41136 0.24739 0.68554 0.0
C1590 C 0.38727 0.24086 0.68573 0.0
C1591 C 0.42832 0.26791 0.69258 0.0
C1592 C 0.43549 0.31318 0.72099 0.0
H1593 H 0.55115 0.39834 0.73774 0.0
H1594 H 0.52154 0.36218 0.7256 0.0
H1595 H 0.44867 0.33999 0.73841 0.0
H1596 H 0.36193 0.25053 0.69348 0.0
H1597 H 0.39146 0.28667 0.70536 0.0
H1598 H 0.46545 0.31238 0.68859 0.0
C1599 C 0.51614 0.37441 0.72912 0.0
C1600 C 0.45246 0.33414 0.72749 0.0
C1601 C 0.53308 0.39507 0.73601 0.0
C1602 C 0.38041 0.25513 0.69321 0.0
C1603 C 0.39737 0.27579 0.70011 0.0
C1604 C 0.46161 0.31796 0.6996 0.0
C1605 C 0.49237 0.36932 0.72721 0.0
C1606 C 0.47426 0.34715 0.72021 0.0
C1607 C 0.42161 0.28254 0.69984 0.0
C1608 C 0.43979 0.3048 0.70691 0.0
H1609 H 0.49776 0.41859 0.74238 0.0
H1610 H 0.46791 0.38222 0.73063 0.0
H1611 H 0.49518 0.34856 0.70021 0.0
H1612 H 0.41713 0.23658 0.67998 0.0
H1613 H 0.44672 0.2722 0.69241 0.0
C1614 C 0.58355 0.07404 0.7315 0.0
C1615 C 0.58435 0.08906 0.74322 0.0
C1616 C 0.60435 0.07492 0.72676 0.0
C1617 C 0.66706 0.09593 0.73859 0.0
H1618 H 0.67703 0.10527 0.69232 0.0
C1619 C 0.75961 0.14102 0.71389 0.0
C1620 C 0.76384 0.13369 0.69935 0.0
C1621 C 0.73678 0.1318 0.7193 0.0
C1622 C 0.67441 0.10222 0.70523 0.0
H1623 H 0.60716 0.11639 0.75943 0.0
H1624 H 0.64352 0.11757 0.75158 0.0
H1625 H 0.6383 0.09471 0.70232 0.0
H1626 H 0.74737 0.11086 0.67907 0.0
H1627 H 0.70728 0.09449 0.68865 0.0
H1628 H 0.70318 0.10373 0.7416 0.0
C1629 C 0.62686 0.10501 0.74609 0.0
C1630 C 0.65223 0.09619 0.71095 0.0
C1631 C 0.6061 0.1043 0.75065 0.0
C1632 C 0.74466 0.11693 0.69029 0.0
C1633 C 0.72171 0.10759 0.69576 0.0
C1634 C 0.68916 0.10176 0.73288 0.0
C1635 C 0.62623 0.09067 0.73385 0.0
C1636 C 0.64856 0.09362 0.72771 0.0
C1637 C 0.71755 0.11489 0.71037 0.0
C1638 C 0.69329 0.10566 0.71617 0.0
H1639 H 0.56685 0.06209 0.72572 0.0
H1640 H 0.60339 0.0636 0.71738 0.0
H1641 H 0.66458 0.09373 0.75156 0.0
H1642 H 0.77394 0.15403 0.72114 0.0
H1643 H 0.73418 0.13825 0.73039 0.0
C1644 C 0.85476 0.46675 0.73791 0.0
C1645 C 0.8775 0.46988 0.74172 0.0
C1646 C 0.85143 0.48537 0.73286 0.0
C1647 C 0.8782 0.54857 0.73076 0.0
H1648 H 0.83807 0.53628 0.69161 0.0
C1649 C 0.86676 0.61932 0.69262 0.0
C1650 C 0.8441 0.61279 0.68569 0.0
C1651 C 0.8717 0.60297 0.70074 0.0
C1652 C 0.84905 0.53999 0.70267 0.0
H1653 H 0.91448 0.49485 0.74427 0.0
H1654 H 0.90873 0.52781 0.73548 0.0
H1655 H 0.84482 0.50602 0.70411 0.0
H1656 H 0.80865 0.58447 0.68238 0.0
H1657 H 0.817 0.55621 0.69674 0.0
H1658 H 0.88224 0.58265 0.7293 0.0
C1659 C 0.89347 0.51092 0.73638 0.0
C1660 C 0.85295 0.5226 0.70983 0.0
C1661 C 0.89679 0.49216 0.7414 0.0
C1662 C 0.82636 0.58992 0.68743 0.0
C1663 C 0.8312 0.57369 0.69559 0.0
C1664 C 0.87415 0.56604 0.72362 0.0
C1665 C 0.87081 0.50756 0.73156 0.0
C1666 C 0.86734 0.52657 0.72404 0.0
C1667 C 0.85404 0.57984 0.70207 0.0
C1668 C 0.85929 0.56185 0.70957 0.0
H1669 H 0.83965 0.4497 0.73834 0.0
H1670 H 0.8337 0.4823 0.72956 0.0
H1671 H 0.88939 0.55212 0.74172 0.0
H1672 H 0.88075 0.63689 0.69142 0.0
H1673 H 0.88949 0.60829 0.70552 0.0
C1674 C 0.50862 0.99377 0.256 0.0
C1675 C 0.48947 0.97274 0.26043 0.0
C1676 C 0.51576 0.99787 0.23993 0.0
C1677 C 0.49079 0.97742 0.19882 0.0
H1678 H 0.55562 0.01162 0.1858 0.0
C1679 C 0.5159 0.97959 0.13316 0.0
C1680 C 0.53137 1.00112 0.12638 0.0
C1681 C 0.51205 0.97712 0.14975 0.0
C1682 C 0.53744 1.00222 0.18931 0.0
H1683 H 0.46352 0.93907 0.25235 0.0
H1684 H 0.47634 0.94566 0.22444 0.0
H1685 H 0.54729 1.00492 0.21474 0.0
H1686 H 0.55521 0.03689 0.13162 0.0
H1687 H 0.54845 0.03252 0.16083 0.0
H1688 H 0.48092 0.97442 0.1735 0.0
C1689 C 0.4855 0.95934 0.23305 0.0
C1690 C 0.53267 0.9984 0.20584 0.0
C1691 C 0.47829 0.95543 0.24898 0.0
C1692 C 0.54307 0.02013 0.13655 0.0
C1693 C 0.53937 0.01761 0.15323 0.0
C1694 C 0.49556 0.98109 0.18238 0.0
C1695 C 0.50381 0.98085 0.22819 0.0
C1696 C 0.50928 0.98569 0.21075 0.0
C1697 C 0.52368 0.99609 0.15994 0.0
C1698 C 0.51891 0.9933 0.17745 0.0
H1699 H 0.51724 0.00729 0.26478 0.0
H1700 H 0.52986 0.01464 0.23656 0.0
H1701 H 0.47254 0.96815 0.20217 0.0
H1702 H 0.5065 0.96468 0.12558 0.0
H1703 H 0.5 0.96029 0.15463 0.0
C1704 C 0.08524 0.5259 0.25409 0.0
C1705 C 0.10926 0.5404 0.25772 0.0
C1706 C 0.07728 0.51905 0.2381 0.0
C1707 C 0.09553 0.5408 0.1965 0.0
H1708 H 0.04003 0.48434 0.18367 0.0
C1709 C 0.06087 0.52513 0.12973 0.0
C1710 C 0.03641 0.51653 0.12702 0.0
C1711 C 0.07048 0.52514 0.14539 0.0
C1712 C 0.05552 0.50024 0.18708 0.0
H1713 H 0.14398 0.5582 0.24806 0.0
H1714 H 0.13047 0.54548 0.2202 0.0
H1715 H 0.05589 0.48844 0.2117 0.0
H1716 H 0.0029 0.50095 0.13879 0.0
H1717 H 0.01965 0.50089 0.16604 0.0
H1718 H 0.09499 0.55277 0.17202 0.0
C1719 C 0.11758 0.53972 0.2295 0.0
C1720 C 0.06462 0.50259 0.20315 0.0
C1721 C 0.12542 0.54672 0.24544 0.0
C1722 C 0.02176 0.5074 0.14035 0.0
C1723 C 0.03137 0.50736 0.156 0.0
C1724 C 0.08652 0.53841 0.18046 0.0
C1725 C 0.09329 0.52663 0.22548 0.0
C1726 C 0.08461 0.52302 0.20812 0.0
C1727 C 0.05588 0.51652 0.15875 0.0
C1728 C 0.06625 0.51822 0.17558 0.0
H1729 H 0.07254 0.52134 0.26341 0.0
H1730 H 0.05846 0.50916 0.23549 0.0
H1731 H 0.11059 0.55702 0.19989 0.0
H1732 H 0.07264 0.5319 0.11973 0.0
H1733 H 0.0894 0.53201 0.14705 0.0
C1734 C 0.42305 0.54722 0.24052 0.0
C1735 C 0.44012 0.55025 0.25286 0.0
C1736 C 0.42393 0.53889 0.22541 0.0
C1737 C 0.46895 0.54009 0.19999 0.0
H1738 H 0.41654 0.49997 0.17155 0.0
C1739 C 0.48099 0.53519 0.13219 0.0
C1740 C 0.4717 0.51309 0.12583 0.0
C1741 C 0.47485 0.53819 0.1475 0.0
C1742 C 0.43134 0.51114 0.1794 0.0
H1743 H 0.47021 0.54552 0.25981 0.0
H1744 H 0.4716 0.5305 0.23362 0.0
H1745 H 0.40925 0.50583 0.19936 0.0
H1746 H 0.44784 0.47692 0.13029 0.0
H1747 H 0.43713 0.48221 0.15712 0.0
H1748 H 0.49105 0.54554 0.18019 0.0
C1749 C 0.4578 0.5349 0.23537 0.0
C1750 C 0.42715 0.51458 0.19527 0.0
C1751 C 0.45691 0.54323 0.25038 0.0
C1752 C 0.45548 0.49414 0.13493 0.0
C1753 C 0.44919 0.49718 0.15022 0.0
C1754 C 0.47308 0.53683 0.18417 0.0
C1755 C 0.44196 0.53355 0.22248 0.0
C1756 C 0.44595 0.52905 0.20575 0.0
C1757 C 0.45918 0.51921 0.15681 0.0
C1758 C 0.45436 0.52239 0.17365 0.0
H1759 H 0.41015 0.55283 0.24222 0.0
H1760 H 0.41151 0.5381 0.21572 0.0
H1761 H 0.4838 0.55164 0.20764 0.0
H1762 H 0.49368 0.55013 0.12559 0.0
H1763 H 0.48264 0.55542 0.15216 0.0
C1764 C 0.8865 0.46316 0.78146 0.0
C1765 C 0.90145 0.45998 0.7715 0.0
C1766 C 0.89453 0.47213 0.79701 0.0
C1767 C 0.9365 0.47247 0.8287 0.0
H1768 H 0.92164 0.51356 0.8512 0.0
C1769 C 0.94746 0.47949 0.89796 0.0
C1770 C 0.95992 0.50182 0.90409 0.0
C1771 C 0.93955 0.47604 0.88169 0.0
C1772 C 0.92597 0.50213 0.84502 0.0
H1773 H 0.93673 0.46516 0.7691 0.0
H1774 H 0.95102 0.48109 0.79616 0.0
H1775 H 0.91074 0.50662 0.82217 0.0
H1776 H 0.97288 0.53795 0.89813 0.0
H1777 H 0.95898 0.53186 0.86959 0.0
H1778 H 0.95155 0.46778 0.85139 0.0
C1779 C 0.93301 0.47635 0.79219 0.0
C1780 C 0.91965 0.49808 0.82847 0.0
C1781 C 0.92498 0.46743 0.77672 0.0
C1782 C 0.9635 0.52056 0.89372 0.0
C1783 C 0.9554 0.51707 0.87743 0.0
C1784 C 0.94258 0.47631 0.84519 0.0
C1785 C 0.91762 0.47795 0.80276 0.0
C1786 C 0.92491 0.48323 0.82013 0.0
C1787 C 0.94379 0.4948 0.87117 0.0
C1788 C 0.9373 0.49108 0.85357 0.0
H1789 H 0.86823 0.45731 0.77763 0.0
H1790 H 0.88224 0.47309 0.80489 0.0
H1791 H 0.94049 0.46065 0.8227 0.0
H1792 H 0.9446 0.46471 0.90557 0.0
H1793 H 0.93042 0.45865 0.87725 0.0
C1794 C 0.58383 0.4736 0.79238 0.0
C1795 C 0.56771 0.47391 0.78037 0.0
C1796 C 0.58392 0.48066 0.80816 0.0
C1797 C 0.5597 0.50922 0.83344 0.0
H1798 H 0.55791 0.46494 0.86648 0.0
C1799 C 0.51633 0.49764 0.89485 0.0
C1800 C 0.52636 0.49231 0.9089 0.0
C1801 C 0.52521 0.49886 0.87957 0.0
C1802 C 0.55877 0.47774 0.85751 0.0
H1803 H 0.5402 0.48302 0.77486 0.0
H1804 H 0.54034 0.49558 0.80223 0.0
H1805 H 0.56807 0.4624 0.839 0.0
H1806 H 0.55424 0.48484 0.91781 0.0
H1807 H 0.56969 0.48691 0.89114 0.0
H1808 H 0.54973 0.52413 0.85189 0.0
C1809 C 0.55307 0.4901 0.79966 0.0
C1810 C 0.56467 0.47632 0.84171 0.0
C1811 C 0.55296 0.48296 0.78397 0.0
C1812 C 0.54582 0.48863 0.90725 0.0
C1813 C 0.5547 0.48983 0.89195 0.0
C1814 C 0.55378 0.51063 0.84925 0.0
C1815 C 0.56792 0.48822 0.81213 0.0
C1816 C 0.56478 0.49177 0.82937 0.0
C1817 C 0.54438 0.49476 0.87787 0.0
C1818 C 0.55279 0.49463 0.86142 0.0
H1819 H 0.59512 0.46638 0.78984 0.0
H1820 H 0.59583 0.4793 0.8174 0.0
H1821 H 0.55994 0.52161 0.82432 0.0
H1822 H 0.5011 0.50021 0.89558 0.0
H1823 H 0.51653 0.5023 0.869 0.0
C1824 C 0.57684 0.10643 0.78694 0.0
C1825 C 0.56629 0.08772 0.77654 0.0
C1826 C 0.58085 0.10306 0.80338 0.0
C1827 C 0.57727 0.06002 0.83525 0.0
H1828 H 0.54664 0.08697 0.85861 0.0
C1829 C 0.52905 0.02042 0.89422 0.0
C1830 C 0.52774 0.0347 0.90571 0.0
C1831 C 0.54038 0.02962 0.87971 0.0
C1832 C 0.55579 0.0797 0.85248 0.0
H1833 H 0.55327 0.0513 0.77447 0.0
H1834 H 0.5599 0.04504 0.80344 0.0
H1835 H 0.55662 0.09861 0.83069 0.0
H1836 H 0.53832 0.07008 0.91121 0.0
H1837 H 0.55878 0.08622 0.88615 0.0
H1838 H 0.5757 0.04055 0.85705 0.0
C1839 C 0.5655 0.06241 0.79893 0.0
C1840 C 0.56154 0.08641 0.8364 0.0
C1841 C 0.56167 0.06589 0.7824 0.0
C1842 C 0.53899 0.05856 0.90266 0.0
C1843 C 0.55054 0.06779 0.8882 0.0
C1844 C 0.57165 0.05339 0.85145 0.0
C1845 C 0.57399 0.08081 0.80971 0.0
C1846 C 0.5718 0.07625 0.82747 0.0
C1847 C 0.55092 0.05338 0.87639 0.0
C1848 C 0.56023 0.06271 0.86011 0.0
H1849 H 0.58038 0.12336 0.7825 0.0
H1850 H 0.58779 0.11762 0.81134 0.0
H1851 H 0.58534 0.05204 0.8287 0.0
H1852 H 0.52109 1.00202 0.89634 0.0
H1853 H 0.54008 0.01794 0.87086 0.0
C1854 C 0.15961 0.30013 0.59019 0.0
C1855 C 0.16293 0.31939 0.59858 0.0
C1856 C 0.1665 0.30245 0.57422 0.0
C1857 C 0.20089 0.34491 0.54219 0.0
H1858 H 0.15497 0.29823 0.51342 0.0
C1859 C 0.20062 0.35489 0.47199 0.0
C1860 C 0.19675 0.3356 0.4633 0.0
C1861 C 0.19806 0.35323 0.48879 0.0
C1862 C 0.1681 0.31126 0.52132 0.0
H1863 H 0.17677 0.35617 0.59739 0.0
H1864 H 0.18839 0.36039 0.56918 0.0
H1865 H 0.14875 0.29478 0.54242 0.0
H1866 H 0.18689 0.29943 0.4653 0.0
H1867 H 0.18249 0.29656 0.4946 0.0
H1868 H 0.21991 0.36161 0.52086 0.0
C1869 C 0.18085 0.34351 0.57497 0.0
C1870 C 0.1646 0.30926 0.53796 0.0
C1871 C 0.17411 0.34116 0.59103 0.0
C1872 C 0.19019 0.31463 0.4717 0.0
C1873 C 0.18749 0.31294 0.48845 0.0
C1874 C 0.20432 0.34698 0.52548 0.0
C1875 C 0.17656 0.32407 0.56624 0.0
C1876 C 0.18095 0.32603 0.54861 0.0
C1877 C 0.19137 0.33221 0.49717 0.0
C1878 C 0.18794 0.33015 0.51489 0.0
H1879 H 0.15072 0.28316 0.59579 0.0
H1880 H 0.16335 0.28718 0.56796 0.0
H1881 H 0.21393 0.35801 0.55007 0.0
H1882 H 0.20587 0.37131 0.46584 0.0
H1883 H 0.20096 0.36831 0.49519 0.0
C1884 C 0.75267 0.85944 0.58646 0.0
C1885 C 0.77687 0.87329 0.58988 0.0
C1886 C 0.74428 0.8523 0.57057 0.0
C1887 C 0.76235 0.87212 0.5286 0.0
H1888 H 0.7053 0.8164 0.51677 0.0
C1889 C 0.72681 0.85456 0.46207 0.0
C1890 C 0.7025 0.84688 0.4594 0.0
C1891 C 0.73641 0.85487 0.47779 0.0
C1892 C 0.72122 0.83208 0.5199 0.0
H1893 H 0.81143 0.88973 0.57994 0.0
H1894 H 0.79714 0.87644 0.55229 0.0
H1895 H 0.72144 0.82106 0.54474 0.0
H1896 H 0.66921 0.83323 0.4713 0.0
H1897 H 0.68593 0.83362 0.49863 0.0
H1898 H 0.76199 0.88329 0.50389 0.0
C1899 C 0.78444 0.87142 0.56167 0.0
C1900 C 0.73048 0.83476 0.53594 0.0
C1901 C 0.79272 0.87872 0.5775 0.0
C1902 C 0.68795 0.83894 0.47283 0.0
C1903 C 0.69754 0.83917 0.48854 0.0
C1904 C 0.75318 0.86938 0.5126 0.0
C1905 C 0.76003 0.85893 0.55784 0.0
C1906 C 0.75106 0.85494 0.54055 0.0
C1907 C 0.72193 0.84743 0.49124 0.0
C1908 C 0.73237 0.84946 0.50807 0.0
H1909 H 0.74022 0.85559 0.59586 0.0
H1910 H 0.72539 0.84291 0.56812 0.0
H1911 H 0.77787 0.88814 0.5317 0.0
H1912 H 0.7385 0.8604 0.45201 0.0
H1913 H 0.75522 0.86102 0.47941 0.0
C1914 C 0.09501 0.89006 0.57348 0.0
C1915 C 0.10594 0.88583 0.58741 0.0
C1916 C 0.09606 0.88173 0.55845 0.0
C1917 C 0.13539 0.86672 0.5378 0.0
H1918 H 0.0876 0.84899 0.50277 0.0
C1919 C 0.15867 0.86957 0.4714 0.0
C1920 C 0.14337 0.85128 0.46139 0.0
C1921 C 0.15214 0.8716 0.48682 0.0
C1922 C 0.10105 0.8537 0.51247 0.0
H1923 H 0.12567 0.8691 0.597 0.0
H1924 H 0.12699 0.85378 0.57086 0.0
H1925 H 0.07816 0.85428 0.53001 0.0
H1926 H 0.1089 0.82102 0.45968 0.0
H1927 H 0.09757 0.82445 0.48677 0.0
H1928 H 0.15828 0.86618 0.52039 0.0
C1929 C 0.11784 0.86374 0.57138 0.0
C1930 C 0.0957 0.85691 0.52804 0.0
C1931 C 0.11685 0.87218 0.58635 0.0
C1932 C 0.12118 0.83521 0.46713 0.0
C1933 C 0.11461 0.83728 0.48259 0.0
C1934 C 0.14072 0.86356 0.52229 0.0
C1935 C 0.1082 0.86911 0.55713 0.0
C1936 C 0.1129 0.86369 0.54087 0.0
C1937 C 0.13013 0.85538 0.49268 0.0
C1938 C 0.12376 0.85735 0.50937 0.0
H1939 H 0.08693 0.90098 0.57412 0.0
H1940 H 0.08865 0.88642 0.54774 0.0
H1941 H 0.14921 0.87226 0.54728 0.0
H1942 H 0.17599 0.8821 0.46748 0.0
H1943 H 0.16439 0.88594 0.49417 0.0
C1944 C 0.59068 0.79946 0.10833 0.0
C1945 C 0.56702 0.79176 0.10336 0.0
C1946 C 0.59895 0.80841 0.12379 0.0
C1947 C 0.58567 0.83005 0.1602 0.0
H1948 H 0.61924 0.80127 0.18295 0.0
C1949 C 0.62949 0.8536 0.22534 0.0
C1950 C 0.62653 0.83505 0.23573 0.0
C1951 C 0.62148 0.84992 0.20905 0.0
C1952 C 0.60981 0.80939 0.17679 0.0
H1953 H 0.53377 0.78862 0.10993 0.0
H1954 H 0.54817 0.80445 0.13711 0.0
H1955 H 0.60788 0.79375 0.15432 0.0
H1956 H 0.61244 0.79808 0.23722 0.0
H1957 H 0.59838 0.79168 0.20888 0.0
H1958 H 0.58744 0.84545 0.18291 0.0
C1959 C 0.56039 0.80366 0.12908 0.0
C1960 C 0.60356 0.80532 0.16033 0.0
C1961 C 0.55213 0.79464 0.11358 0.0
C1962 C 0.6148 0.81271 0.22959 0.0
C1963 C 0.60697 0.80907 0.21331 0.0
C1964 C 0.59215 0.83431 0.17672 0.0
C1965 C 0.58367 0.80984 0.13455 0.0
C1966 C 0.59132 0.81549 0.15184 0.0
C1967 C 0.61058 0.82765 0.20279 0.0
C1968 C 0.60406 0.8238 0.18521 0.0
H1969 H 0.60244 0.79757 0.10049 0.0
H1970 H 0.6171 0.81346 0.12753 0.0
H1971 H 0.5763 0.83816 0.15396 0.0
H1972 H 0.6383 0.871 0.22976 0.0
H1973 H 0.62456 0.86458 0.20121 0.0
C1974 C 0.2529 0.80328 0.12831 0.0
C1975 C 0.23977 0.80686 0.11546 0.0
C1976 C 0.25224 0.80992 0.14404 0.0
C1977 C 0.23097 0.84186 0.16857 0.0
H1978 H 0.22185 0.79415 0.20079 0.0
C1979 C 0.18741 0.83302 0.22981 0.0
C1980 C 0.19585 0.82557 0.24368 0.0
C1981 C 0.1961 0.83382 0.21451 0.0
C1982 C 0.22474 0.80787 0.19206 0.0
H1983 H 0.21625 0.82059 0.10864 0.0
H1984 H 0.21489 0.83228 0.13608 0.0
H1985 H 0.23227 0.79121 0.17354 0.0
H1986 H 0.22085 0.81408 0.25232 0.0
H1987 H 0.23595 0.81545 0.22567 0.0
H1988 H 0.22274 0.85815 0.1871 0.0
C1989 C 0.22617 0.82484 0.1341 0.0
C1990 C 0.23081 0.80622 0.17637 0.0
C1991 C 0.22698 0.81828 0.11837 0.0
C1992 C 0.21363 0.8195 0.24188 0.0
C1993 C 0.22231 0.8203 0.22659 0.0
C1994 C 0.22484 0.84349 0.18429 0.0
C1995 C 0.23809 0.81996 0.14727 0.0
C1996 C 0.23379 0.82306 0.16434 0.0
C1997 C 0.21344 0.82718 0.21266 0.0
C1998 C 0.22141 0.82637 0.19619 0.0
H1999 H 0.26238 0.79396 0.12634 0.0
H2000 H 0.26195 0.80622 0.15381 0.0
H2001 H 0.23337 0.85529 0.15969 0.0
H2002 H 0.17351 0.83752 0.23068 0.0
H2003 H 0.18861 0.8389 0.20404 0.0
C2004 C 0.22667 0.39403 0.11937 0.0
C2005 C 0.23066 0.41564 0.11346 0.0
C2006 C 0.2323 0.39115 0.13564 0.0
C2007 C 0.23488 0.41745 0.17408 0.0
H2008 H 0.24727 0.36921 0.19226 0.0
C2009 C 0.21794 0.38949 0.24081 0.0
C2010 C 0.20397 0.36564 0.24309 0.0
C2011 C 0.22909 0.3985 0.22619 0.0
C2012 C 0.2439 0.38283 0.18736 0.0
H2013 H 0.24531 0.4515 0.11897 0.0
H2014 H 0.25612 0.44687 0.14731 0.0
H2015 H 0.25403 0.38034 0.16357 0.0
H2016 H 0.19137 0.33251 0.23206 0.0
H2017 H 0.21054 0.34819 0.20656 0.0
H2018 H 0.22374 0.41931 0.19752 0.0
C2019 C 0.2481 0.43197 0.13965 0.0
C2020 C 0.24776 0.38919 0.17095 0.0
C2021 C 0.24215 0.43471 0.12348 0.0
C2022 C 0.2022 0.35096 0.23073 0.0
C2023 C 0.2133 0.35996 0.21613 0.0
C2024 C 0.23108 0.41115 0.19043 0.0
C2025 C 0.24213 0.40996 0.14614 0.0
C2026 C 0.24256 0.40607 0.16401 0.0
C2027 C 0.22642 0.38384 0.21355 0.0
C2028 C 0.23479 0.39325 0.19712 0.0
H2029 H 0.2176 0.37918 0.11172 0.0
H2030 H 0.22726 0.37393 0.14024 0.0
H2031 H 0.23027 0.43024 0.16914 0.0
H2032 H 0.21998 0.40119 0.25024 0.0
H2033 H 0.23934 0.41698 0.22463 0.0
C2034 C 0.8092 0.61717 0.9154 0.0
C2035 C 0.82046 0.63527 0.92624 0.0
C2036 C 0.81698 0.61959 0.89971 0.0
C2037 C 0.86535 0.6565 0.87237 0.0
H2038 H 0.81442 0.63117 0.83951 0.0
C2039 C 0.87601 0.67866 0.80325 0.0
C2040 C 0.86464 0.65988 0.79285 0.0
C2041 C 0.87256 0.67556 0.81995 0.0
C2042 C 0.82884 0.63814 0.84855 0.0
H2043 H 0.84873 0.66982 0.92973 0.0
H2044 H 0.86223 0.67465 0.90188 0.0
H2045 H 0.80528 0.62583 0.86802 0.0
H2046 H 0.84084 0.62322 0.79167 0.0
H2047 H 0.83471 0.61785 0.82079 0.0
H2048 H 0.8888 0.66938 0.8526 0.0
C2049 C 0.84776 0.6583 0.90559 0.0
C2050 C 0.82365 0.635 0.86491 0.0
C2051 C 0.8401 0.65566 0.92145 0.0
C2052 C 0.84995 0.63796 0.79943 0.0
C2053 C 0.84633 0.63492 0.81606 0.0
C2054 C 0.87054 0.65984 0.85592 0.0
C2055 C 0.83585 0.64046 0.89442 0.0
C2056 C 0.84181 0.64396 0.87704 0.0
C2057 C 0.85744 0.6537 0.82645 0.0
C2058 C 0.8523 0.65053 0.84389 0.0
H2059 H 0.79395 0.60136 0.91904 0.0
H2060 H 0.80778 0.60531 0.89158 0.0
H2061 H 0.87975 0.66349 0.88141 0.0
H2062 H 0.88758 0.6957 0.79848 0.0
H2063 H 0.8812 0.69033 0.82771 0.0
C2064 C 0.41378 0.19744 0.91764 0.0
C2065 C 0.43754 0.20494 0.92219 0.0
C2066 C 0.40514 0.18964 0.90197 0.0
C2067 C 0.42673 0.19879 0.86072 0.0
H2068 H 0.3618 0.15434 0.84978 0.0
C2069 C 0.38864 0.18483 0.79426 0.0
C2070 C 0.36644 0.18383 0.79183 0.0
C2071 C 0.39761 0.18369 0.80996 0.0
C2072 C 0.37997 0.16685 0.85264 0.0
H2073 H 0.47065 0.20891 0.91454 0.0
H2074 H 0.45555 0.1948 0.88702 0.0
H2075 H 0.37686 0.15734 0.87791 0.0
H2076 H 0.33641 0.18097 0.80417 0.0
H2077 H 0.35192 0.17881 0.8314 0.0
H2078 H 0.42967 0.2087 0.83552 0.0
C2079 C 0.4436 0.19523 0.89548 0.0
C2080 C 0.38862 0.16855 0.86876 0.0
C2081 C 0.4522 0.20299 0.91124 0.0
C2082 C 0.35334 0.18135 0.8055 0.0
C2083 C 0.36225 0.18011 0.82116 0.0
C2084 C 0.4181 0.19704 0.84459 0.0
C2085 C 0.42016 0.18922 0.89048 0.0
C2086 C 0.41195 0.18492 0.87308 0.0
C2087 C 0.38455 0.18141 0.82362 0.0
C2088 C 0.39445 0.18144 0.84041 0.0
H2089 H 0.40231 0.199 0.92595 0.0
H2090 H 0.38709 0.18539 0.89857 0.0
H2091 H 0.44468 0.21184 0.8636 0.0
H2092 H 0.39907 0.1864 0.78402 0.0
H2093 H 0.41475 0.18451 0.81142 0.0
C2094 C 0.7589 0.21628 0.90695 0.0
C2095 C 0.77573 0.2192 0.91944 0.0
C2096 C 0.7601 0.2081 0.89185 0.0
C2097 C 0.80557 0.20938 0.86685 0.0
H2098 H 0.75363 0.16922 0.83813 0.0
C2099 C 0.81874 0.20427 0.79927 0.0
C2100 C 0.80954 0.18215 0.79297 0.0
C2101 C 0.81235 0.20734 0.81448 0.0
C2102 C 0.7683 0.1804 0.84606 0.0
H2103 H 0.80571 0.21441 0.92668 0.0
H2104 H 0.80767 0.19969 0.90051 0.0
H2105 H 0.74587 0.17511 0.86581 0.0
H2106 H 0.78559 0.14599 0.79743 0.0
H2107 H 0.77445 0.1514 0.82408 0.0
H2108 H 0.82802 0.2148 0.84728 0.0
C2109 C 0.79382 0.20406 0.90213 0.0
C2110 C 0.76384 0.18386 0.86185 0.0
C2111 C 0.79261 0.21224 0.91712 0.0
C2112 C 0.79316 0.16323 0.80202 0.0
C2113 C 0.78663 0.16634 0.81721 0.0
C2114 C 0.80998 0.2061 0.85111 0.0
C2115 C 0.77821 0.2028 0.8891 0.0
C2116 C 0.78248 0.19834 0.87244 0.0
C2117 C 0.79652 0.18839 0.82375 0.0
C2118 C 0.79143 0.19164 0.84049 0.0
H2119 H 0.74593 0.22183 0.90853 0.0
H2120 H 0.74785 0.20736 0.88206 0.0
H2121 H 0.8203 0.22094 0.87459 0.0
H2122 H 0.83153 0.21919 0.7927 0.0
H2123 H 0.82008 0.22459 0.8191 0.0
C2124 C 0.22036 0.13138 0.44781 0.0
C2125 C 0.23584 0.12784 0.43864 0.0
C2126 C 0.22807 0.14225 0.46278 0.0
C2127 C 0.28135 0.17763 0.48866 0.0
H2128 H 0.24226 0.14259 0.5243 0.0
C2129 C 0.31849 0.18271 0.55427 0.0
C2130 C 0.30394 0.17897 0.56731 0.0
C2131 C 0.30965 0.18106 0.53824 0.0
C2132 C 0.25321 0.15296 0.51452 0.0
H2133 H 0.27148 0.1336 0.43721 0.0
H2134 H 0.28523 0.1528 0.46333 0.0
H2135 H 0.22767 0.13192 0.49646 0.0
H2136 H 0.26891 0.17166 0.57366 0.0
H2137 H 0.25364 0.16943 0.54565 0.0
H2138 H 0.3071 0.19842 0.50671 0.0
C2139 C 0.26719 0.14732 0.45904 0.0
C2140 C 0.24482 0.14679 0.49853 0.0
C2141 C 0.25938 0.13627 0.44419 0.0
C2142 C 0.28064 0.17473 0.56391 0.0
C2143 C 0.2718 0.17317 0.54784 0.0
C2144 C 0.28968 0.18393 0.50465 0.0
C2145 C 0.25147 0.14992 0.4687 0.0
C2146 C 0.25904 0.15868 0.48544 0.0
C2147 C 0.28603 0.17578 0.53481 0.0
C2148 C 0.27597 0.17127 0.51781 0.0
H2149 H 0.20208 0.12483 0.44369 0.0
H2150 H 0.21562 0.14415 0.46991 0.0
H2151 H 0.29258 0.1873 0.47879 0.0
H2152 H 0.33665 0.1864 0.55644 0.0
H2153 H 0.32111 0.18297 0.52858 0.0
C2154 C 0.88736 0.15132 0.45069 0.0
C2155 C 0.90174 0.14189 0.44698 0.0
C2156 C 0.88806 0.15883 0.46636 0.0
C2157 C 0.9008 0.14569 0.5083 0.0
H2158 H 0.88701 0.19423 0.5186 0.0
C2159 C 0.88456 0.15941 0.57408 0.0
C2160 C 0.86518 0.16308 0.57601 0.0
C2161 C 0.893 0.16048 0.55864 0.0
C2162 C 0.89077 0.18054 0.51592 0.0
H2163 H 0.92916 0.13419 0.45614 0.0
H2164 H 0.93091 0.14779 0.48363 0.0
H2165 H 0.89609 0.19096 0.49085 0.0
H2166 H 0.83963 0.17096 0.5631 0.0
H2167 H 0.85429 0.17282 0.53627 0.0
H2168 H 0.89486 0.13486 0.53322 0.0
C2169 C 0.9188 0.14909 0.47453 0.0
C2170 C 0.89602 0.1787 0.50001 0.0
C2171 C 0.91809 0.14162 0.4588 0.0
C2172 C 0.85481 0.16839 0.56213 0.0
C2173 C 0.86325 0.16947 0.54671 0.0
C2174 C 0.89557 0.14755 0.52419 0.0
C2175 C 0.90315 0.157 0.47866 0.0
C2176 C 0.90067 0.16098 0.49592 0.0
C2177 C 0.88228 0.16526 0.54473 0.0
C2178 C 0.89004 0.16472 0.52816 0.0
H2179 H 0.87456 0.15152 0.4417 0.0
H2180 H 0.87562 0.16463 0.46906 0.0
H2181 H 0.90387 0.13157 0.50558 0.0
H2182 H 0.89323 0.15566 0.58451 0.0
H2183 H 0.90791 0.15749 0.5576 0.0
C2184 C 0.90106 0.76792 0.4524 0.0
C2185 C 0.89285 0.74793 0.4434 0.0
C2186 C 0.90673 0.76767 0.46897 0.0
C2187 C 0.91223 0.73171 0.50339 0.0
H2188 H 0.8765 0.7544 0.52544 0.0
C2189 C 0.86555 0.69147 0.56245 0.0
C2190 C 0.86224 0.70505 0.57348 0.0
C2191 C 0.87702 0.70109 0.54806 0.0
C2192 C 0.8871 0.74845 0.51964 0.0
H2193 H 0.88586 0.71272 0.4439 0.0
H2194 H 0.89532 0.71189 0.47304 0.0
H2195 H 0.88433 0.76401 0.497 0.0
H2196 H 0.86953 0.73969 0.57846 0.0
H2197 H 0.88996 0.75663 0.5534 0.0
H2198 H 0.91397 0.71525 0.52602 0.0
C2199 C 0.89779 0.72791 0.46738 0.0
C2200 C 0.89163 0.75399 0.50327 0.0
C2201 C 0.89231 0.72828 0.45075 0.0
C2202 C 0.87175 0.72875 0.5702 0.0
C2203 C 0.88332 0.73842 0.55579 0.0
C2204 C 0.90773 0.72619 0.51984 0.0
C2205 C 0.90395 0.7473 0.47681 0.0
C2206 C 0.90356 0.74507 0.4948 0.0
C2207 C 0.88559 0.72458 0.54438 0.0
C2208 C 0.89439 0.73385 0.52799 0.0
H2209 H 0.90163 0.78324 0.44677 0.0
H2210 H 0.91187 0.78301 0.47582 0.0
H2211 H 0.92175 0.72484 0.49725 0.0
H2212 H 0.8589 0.67324 0.5648 0.0
H2213 H 0.87821 0.68986 0.53951 0.0
loop_
_geom_bond_atom_site_label_1
_geom_bond_atom_site_label_2
_geom_bond_distance
_geom_bond_site_symmetry_2
_ccdc_geom_bond_type
C0 N1 1.317 . S
C0 N2 1.348 . S
C0 C3 1.485 . S
N1 C0 1.317 . S
N1 N5 1.370 . S
N2 C0 1.348 . S
N2 C4 1.346 . S
C3 C0 1.485 . S
C3 H7 0.960 . S
C3 H8 0.961 . S
C3 H9 0.960 . S
C4 N2 1.346 . S
C4 N5 1.307 . S
C4 C6 1.486 . S
N5 N1 1.370 . S
N5 C4 1.307 . S
C6 C4 1.486 . S
C6 H10 0.960 . S
C6 H11 0.960 . S
C6 H12 0.959 . S
H7 C3 0.960 . S
H8 C3 0.961 . S
H9 C3 0.960 . S
H10 C6 0.960 . S
H11 C6 0.960 . S
H12 C6 0.959 . S
C13 N14 1.317 . S
C13 N15 1.348 . S
C13 C16 1.485 . S
N14 C13 1.317 . S
N14 N18 1.370 . S
N15 C13 1.348 . S
N15 C17 1.346 . S
C16 C13 1.485 . S
C16 H20 0.960 . S
C16 H21 0.961 . S
C16 H22 0.960 . S
C17 N15 1.346 . S
C17 N18 1.307 . S
C17 C19 1.486 . S
N18 N14 1.370 . S
N18 C17 1.307 . S
C19 C17 1.486 . S
C19 H23 0.960 . S
C19 H24 0.960 . S
C19 H25 0.959 . S
H20 C16 0.960 . S
H21 C16 0.961 . S
H22 C16 0.960 . S
H23 C19 0.960 . S
H24 C19 0.960 . S
H25 C19 0.959 . S
C26 N27 1.317 . S
C26 N28 1.348 . S
C26 C29 1.485 . S
N27 C26 1.317 . S
N27 N31 1.370 . S
N28 C26 1.348 . S
N28 C30 1.346 . S
C29 C26 1.485 . S
C29 H33 0.960 . S
C29 H34 0.961 . S
C29 H35 0.960 . S
C30 N28 1.346 . S
C30 N31 1.307 . S
C30 C32 1.486 . S
N31 N27 1.370 . S
N31 C30 1.307 . S
C32 C30 1.486 . S
C32 H36 0.960 . S
C32 H37 0.960 . S
C32 H38 0.959 . S
H33 C29 0.960 . S
H34 C29 0.961 . S
H35 C29 0.960 . S
H36 C32 0.960 . S
H37 C32 0.960 . S
H38 C32 0.959 . S
C39 N40 1.317 . S
C39 N41 1.348 . S
C39 C42 1.485 . S
N40 C39 1.317 . S
N40 N44 1.370 . S
N41 C39 1.348 . S
N41 C43 1.346 . S
C42 C39 1.485 . S
C42 H46 0.960 . S
C42 H47 0.961 . S
C42 H48 0.960 . S
C43 N41 1.346 . S
C43 N44 1.307 . S
C43 C45 1.486 . S
N44 N40 1.370 . S
N44 C43 1.307 . S
C45 C43 1.486 . S
C45 H49 0.960 . S
C45 H50 0.960 . S
C45 H51 0.959 . S
H46 C42 0.960 . S
H47 C42 0.961 . S
H48 C42 0.960 . S
H49 C45 0.960 . S
H50 C45 0.960 . S
H51 C45 0.959 . S
C52 N53 1.317 . S
C52 N54 1.348 . S
C52 C55 1.485 . S
N53 C52 1.317 . S
N53 N57 1.370 . S
N54 C52 1.348 . S
N54 C56 1.346 . S
C55 C52 1.485 . S
C55 H59 0.960 . S
C55 H60 0.961 . S
C55 H61 0.960 . S
C56 N54 1.346 . S
C56 N57 1.307 . S
C56 C58 1.486 . S
N57 N53 1.370 . S
N57 C56 1.307 . S
C58 C56 1.486 . S
C58 H62 0.960 . S
C58 H63 0.960 . S
C58 H64 0.959 . S
H59 C55 0.960 . S
H60 C55 0.961 . S
H61 C55 0.960 . S
H62 C58 0.960 . S
H63 C58 0.960 . S
H64 C58 0.959 . S
C65 N66 1.317 . S
C65 N67 1.348 . S
C65 C68 1.485 . S
N66 C65 1.317 . S
N66 N70 1.370 . S
N67 C65 1.348 . S
N67 C69 1.346 . S
C68 C65 1.485 . S
C68 H72 0.960 . S
C68 H73 0.961 . S
C68 H74 0.960 . S
C69 N67 1.346 . S
C69 N70 1.307 . S
C69 C71 1.486 . S
N70 N66 1.370 . S
N70 C69 1.307 . S
C71 C69 1.486 . S
C71 H75 0.960 . S
C71 H76 0.960 . S
C71 H77 0.959 . S
H72 C68 0.960 . S
H73 C68 0.961 . S
H74 C68 0.960 . S
H75 C71 0.960 . S
H76 C71 0.960 . S
H77 C71 0.959 . S
C78 N79 1.317 . S
C78 N80 1.348 . S
C78 C81 1.485 . S
N79 C78 1.317 . S
N79 N83 1.370 . S
N80 C78 1.348 . S
N80 C82 1.346 . S
C81 C78 1.485 . S
C81 H85 0.960 . S
C81 H86 0.961 . S
C81 H87 0.960 . S
C82 N80 1.346 . S
C82 N83 1.307 . S
C82 C84 1.486 . S
N83 N79 1.370 . S
N83 C82 1.307 . S
C84 C82 1.486 . S
C84 H88 0.960 . S
C84 H89 0.960 . S
C84 H90 0.959 . S
H85 C81 0.960 . S
H86 C81 0.961 . S
H87 C81 0.960 . S
H88 C84 0.960 . S
H89 C84 0.960 . S
H90 C84 0.959 . S
C91 N92 1.317 . S
C91 N93 1.348 . S
C91 C94 1.485 . S
N92 C91 1.317 . S
N92 N96 1.370 . S
N93 C91 1.348 . S
N93 C95 1.346 . S
C94 C91 1.485 . S
C94 H98 0.960 . S
C94 H99 0.961 . S
C94 H100 0.960 . S
C95 N93 1.346 . S
C95 N96 1.307 . S
C95 C97 1.486 . S
N96 N92 1.370 . S
N96 C95 1.307 . S
C97 C95 1.486 . S
C97 H101 0.960 . S
C97 H102 0.960 . S
C97 H103 0.959 . S
H98 C94 0.960 . S
H99 C94 0.961 . S
H100 C94 0.960 . S
H101 C97 0.960 . S
H102 C97 0.960 . S
H103 C97 0.959 . S
C104 N105 1.317 . S
C104 N106 1.348 . S
C104 C107 1.485 . S
N105 C104 1.317 . S
N105 N109 1.370 . S
N106 C104 1.348 . S
N106 C108 1.346 . S
C107 C104 1.485 . S
C107 H111 0.960 . S
C107 H112 0.961 . S
C107 H113 0.960 . S
C108 N106 1.346 . S
C108 N109 1.307 . S
C108 C110 1.486 . S
N109 N105 1.370 . S
N109 C108 1.307 . S
C110 C108 1.486 . S
C110 H114 0.960 . S
C110 H115 0.960 . S
C110 H116 0.959 . S
H111 C107 0.960 . S
H112 C107 0.961 . S
H113 C107 0.960 . S
H114 C110 0.960 . S
H115 C110 0.960 . S
H116 C110 0.959 . S
C117 N118 1.317 . S
C117 N119 1.348 . S
C117 C120 1.485 . S
N118 C117 1.317 . S
N118 N122 1.370 . S
N119 C117 1.348 . S
N119 C121 1.346 . S
C120 C117 1.485 . S
C120 H124 0.960 . S
C120 H125 0.961 . S
C120 H126 0.960 . S
C121 N119 1.346 . S
C121 N122 1.307 . S
C121 C123 1.486 . S
N122 N118 1.370 . S
N122 C121 1.307 . S
C123 C121 1.486 . S
C123 H127 0.960 . S
C123 H128 0.960 . S
C123 H129 0.959 . S
H124 C120 0.960 . S
H125 C120 0.961 . S
H126 C120 0.960 . S
H127 C123 0.960 . S
H128 C123 0.960 . S
H129 C123 0.959 . S
C130 N131 1.317 . S
C130 N132 1.348 . S
C130 C133 1.428 1_556 S
N131 C130 1.317 . S
N131 N135 1.370 . S
N132 C130 1.348 . S
N132 C134 1.346 . S
C133 C130 1.428 1_554 S
C133 H137 1.004 . S
C133 H138 0.983 . S
C133 H139 0.958 . S
C134 N132 1.346 . S
C134 N135 1.307 . S
C134 C136 1.486 . S
N135 N131 1.370 . S
N135 C134 1.307 . S
C136 C134 1.486 . S
C136 H140 0.960 . S
C136 H141 0.960 . S
C136 H142 0.959 . S
H137 C133 1.004 . S
H138 C133 0.983 . S
H139 C133 0.958 . S
H140 C136 0.960 . S
H141 C136 0.960 . S
H142 C136 0.959 . S
C143 N144 1.317 . S
C143 N145 1.348 . S
C143 C146 1.485 . S
N144 C143 1.317 . S
N144 N148 1.370 . S
N145 C143 1.348 . S
N145 C147 1.346 . S
C146 C143 1.485 . S
C146 H150 0.960 . S
C146 H151 0.961 1_556 S
C146 H152 0.975 . S
C147 N145 1.346 . S
C147 N148 1.307 . S
C147 C149 1.486 . S
N148 N144 1.370 . S
N148 C147 1.307 . S
C149 C147 1.486 . S
C149 H153 0.960 . S
C149 H154 0.960 . S
C149 H155 0.959 . S
H150 C146 0.960 . S
H151 C146 0.961 1_554 S
H152 C146 0.975 . S
H153 C149 0.960 . S
H154 C149 0.960 . S
H155 C149 0.959 . S
C156 N157 1.317 . S
C156 N158 1.348 . S
C156 C159 1.485 . S
N157 C156 1.317 . S
N157 N161 1.370 . S
N158 C156 1.348 . S
N158 C160 1.346 . S
C159 C156 1.485 . S
C159 H163 0.960 . S
C159 H164 0.961 . S
C159 H165 0.960 . S
C160 N158 1.346 . S
C160 N161 1.307 . S
C160 C162 1.486 . S
N161 N157 1.370 . S
N161 C160 1.307 . S
C162 C160 1.486 . S
C162 H166 0.960 . S
C162 H167 0.960 . S
C162 H168 0.959 . S
H163 C159 0.960 . S
H164 C159 0.961 . S
H165 C159 0.960 . S
H166 C162 0.960 . S
H167 C162 0.960 . S
H168 C162 0.959 . S
C169 N170 1.317 . S
C169 N171 1.348 . S
C169 C172 1.485 . S
N170 C169 1.317 . S
N170 N174 1.370 . S
N171 C169 1.348 . S
N171 C173 1.346 . S
C172 C169 1.485 . S
C172 H176 0.960 . S
C172 H177 0.961 . S
C172 H178 0.960 . S
C173 N171 1.346 . S
C173 N174 1.307 . S
C173 C175 1.486 . S
N174 N170 1.370 . S
N174 C173 1.307 . S
C175 C173 1.486 . S
C175 H179 0.960 . S
C175 H180 0.960 . S
C175 H181 0.959 . S
H176 C172 0.960 . S
H177 C172 0.961 . S
H178 C172 0.960 . S
H179 C175 0.960 . S
H180 C175 0.960 . S
H181 C175 0.959 . S
C182 N183 1.317 . S
C182 N184 1.348 . S
C182 C185 1.485 . S
N183 C182 1.317 . S
N183 N187 1.370 . S
N184 C182 1.348 . S
N184 C186 1.346 . S
C185 C182 1.485 . S
C185 H189 0.960 . S
C185 H190 0.961 . S
C185 H191 0.960 . S
C186 N184 1.346 . S
C186 N187 1.307 . S
C186 C188 1.486 . S
N187 N183 1.370 . S
N187 C186 1.307 . S
C188 C186 1.486 . S
C188 H192 0.960 . S
C188 H193 0.960 . S
C188 H194 0.959 . S
H189 C185 0.960 . S
H190 C185 0.961 . S
H191 C185 0.960 . S
H192 C188 0.960 . S
H193 C188 0.960 . S
H194 C188 0.959 . S
C195 N196 1.317 . S
C195 N197 1.348 . S
C195 C198 1.485 . S
N196 C195 1.317 . S
N196 N200 1.370 . S
N197 C195 1.348 . S
N197 C199 1.346 . S
C198 C195 1.485 . S
C198 H202 0.960 . S
C198 H203 0.961 . S
C198 H204 0.960 . S
C199 N197 1.346 . S
C199 N200 1.307 . S
C199 C201 1.486 . S
N200 N196 1.370 . S
N200 C199 1.307 . S
C201 C199 1.486 . S
C201 H205 0.960 . S
C201 H206 0.960 . S
C201 H207 0.959 . S
H202 C198 0.960 . S
H203 C198 0.961 . S
H204 C198 0.960 . S
H205 C201 0.960 . S
H206 C201 0.960 . S
H207 C201 0.959 . S
C208 N209 1.317 . S
C208 N210 1.348 . S
C208 C211 1.485 . S
N209 C208 1.317 . S
N209 N213 1.370 . S
N210 C208 1.348 . S
N210 C212 1.346 . S
C211 C208 1.485 . S
C211 H215 0.960 . S
C211 H216 0.961 . S
C211 H217 0.960 . S
C212 N210 1.346 . S
C212 N213 1.307 . S
C212 C214 1.486 . S
N213 N209 1.370 . S
N213 C212 1.307 . S
C214 C212 1.486 . S
C214 H218 0.960 . S
C214 H219 0.960 . S
C214 H220 0.959 . S
H215 C211 0.960 . S
H216 C211 0.961 . S
H217 C211 0.960 . S
H218 C214 0.960 . S
H219 C214 0.960 . S
H220 C214 0.959 . S
C221 N222 1.317 . S
C221 N223 1.348 . S
C221 C224 1.485 . S
N222 C221 1.317 . S
N222 N226 1.370 . S
N223 C221 1.348 . S
N223 C225 1.346 . S
C224 C221 1.485 . S
C224 H228 0.960 . S
C224 H229 0.961 . S
C224 H230 0.960 . S
C225 N223 1.346 . S
C225 N226 1.307 . S
C225 C227 1.486 . S
N226 N222 1.370 . S
N226 C225 1.307 . S
C227 C225 1.486 . S
C227 H231 0.960 . S
C227 H232 0.960 . S
C227 H233 0.959 . S
H228 C224 0.960 . S
H229 C224 0.961 . S
H230 C224 0.960 . S
H231 C227 0.960 . S
H232 C227 0.960 . S
H233 C227 0.959 . S
C234 Eu235 2.835 1_565 S
C234 C236 1.500 . S
C234 O254 1.257 . S
C234 O255 1.260 1_565 S
Eu235 C234 2.835 1_545 S
Eu235 O254 2.473 1_545 S
Eu235 O255 2.480 . S
Eu235 O256 2.430 . S
Eu235 O257 2.670 . S
Eu235 O258 2.394 1_545 S
Eu235 O263 2.355 1_545 S
Eu235 O265 2.374 . S
C236 C234 1.500 . S
C236 C237 1.377 . S
C236 C241 1.377 . S
C237 C236 1.377 . S
C237 C238 1.395 . S
C237 H266 0.931 1_565 S
C238 C237 1.395 . S
C238 C239 1.383 . S
C238 H267 0.931 . S
C239 C238 1.383 . S
C239 C240 1.394 . S
C240 C239 1.394 . S
C240 C241 1.378 . S
C240 H268 0.931 . S
C241 C236 1.377 . S
C241 C240 1.378 . S
C241 H269 0.931 . S
C242 O256 1.259 . S
C242 O257 1.270 . S
C243 O258 1.251 . S
C243 O259 1.251 . S
C244 Eu245 2.835 1_545 S
C244 C246 1.500 . S
C244 O260 1.257 . S
C244 O261 1.260 1_545 S
Eu245 C244 2.835 1_565 S
Eu245 O257 2.355 1_566 S
Eu245 O259 2.374 1_556 S
Eu245 O260 2.473 1_565 S
Eu245 O261 2.480 . S
Eu245 O262 2.430 . S
Eu245 O263 2.670 1_556 S
Eu245 O264 2.394 1_565 S
C246 C244 1.500 . S
C246 C247 1.377 . S
C246 C251 1.377 . S
C247 C246 1.377 . S
C247 C248 1.395 . S
C247 H270 0.881 1_545 S
C248 C247 1.395 . S
C248 C249 1.383 . S
C248 H271 0.931 . S
C249 C248 1.383 . S
C249 C250 1.394 . S
C250 C249 1.394 . S
C250 C251 1.378 . S
C250 H272 0.931 . S
C251 C246 1.377 . S
C251 C250 1.378 . S
C251 H273 0.931 . S
C252 O262 1.259 1_554 S
C252 O263 1.270 . S
C253 O264 1.251 1_554 S
C253 O265 1.251 . S
O254 C234 1.257 . S
O254 Eu235 2.473 1_565 S
O255 C234 1.260 1_545 S
O255 Eu235 2.480 . S
O256 Eu235 2.430 . S
O256 C242 1.259 . S
O257 Eu235 2.670 . S
O257 C242 1.270 . S
O257 Eu245 2.355 1_544 S
O258 Eu235 2.394 1_565 S
O258 C243 1.251 . S
O259 C243 1.251 . S
O259 Eu245 2.374 1_554 S
O260 C244 1.257 . S
O260 Eu245 2.473 1_545 S
O261 C244 1.260 1_565 S
O261 Eu245 2.480 . S
O262 Eu245 2.430 . S
O262 C252 1.259 1_556 S
O263 Eu235 2.355 1_565 S
O263 Eu245 2.670 1_554 S
O263 C252 1.270 . S
O264 Eu245 2.394 1_545 S
O264 C253 1.251 1_556 S
O265 Eu235 2.374 . S
O265 C253 1.251 . S
H266 C237 0.931 1_545 S
H267 C238 0.931 . S
H268 C240 0.931 . S
H269 C241 0.931 . S
H270 C247 0.881 1_565 S
H271 C248 0.931 . S
H272 C250 0.931 . S
H273 C251 0.931 . S
C274 Eu275 2.835 1_455 S
C274 C276 1.500 . S
C274 O294 1.257 . S
C274 O295 1.260 1_455 S
Eu275 C274 2.835 1_655 S
Eu275 O294 2.473 1_655 S
Eu275 O295 2.480 . S
Eu275 O296 2.430 . S
Eu275 O297 2.670 1_554 S
Eu275 O298 2.394 1_655 S
Eu275 O303 2.355 1_655 S
Eu275 O305 2.374 . S
C276 C274 1.500 . S
C276 C277 1.377 . S
C276 C281 1.377 . S
C277 C276 1.377 . S
C277 C278 1.395 . S
C277 H306 0.931 1_455 S
C278 C277 1.395 . S
C278 C279 1.383 . S
C278 H307 0.931 . S
C279 C278 1.383 . S
C279 C280 1.394 . S
C280 C279 1.394 . S
C280 C281 1.378 . S
C280 H308 0.931 . S
C281 C276 1.377 . S
C281 C280 1.378 . S
C281 H309 0.931 . S
C282 O296 1.259 . S
C282 O297 1.270 1_554 S
C283 O298 1.251 . S
C283 O299 1.251 . S
C284 Eu285 2.835 . S
C284 C286 1.500 1_455 S
C284 O300 1.257 1_455 S
C284 O301 1.260 . S
Eu285 C284 2.835 . S
Eu285 O297 2.355 1_455 S
Eu285 O299 2.374 1_556 S
Eu285 O300 2.473 1_455 S
Eu285 O301 2.480 . S
Eu285 O302 2.430 . S
Eu285 O303 2.670 1_556 S
Eu285 O304 2.394 1_455 S
C286 C284 1.500 1_655 S
C286 C287 1.377 1_655 S
C286 C291 1.377 . S
C287 C286 1.377 1_455 S
C287 C288 1.395 . S
C287 H310 0.931 . S
C288 C287 1.395 . S
C288 C289 1.383 1_455 S
C288 H311 0.931 . S
C289 C288 1.383 1_655 S
C289 C290 1.394 . S
C290 C289 1.394 . S
C290 C291 1.378 . S
C290 H312 0.931 . S
C291 C286 1.377 . S
C291 C290 1.378 . S
C291 H313 0.931 . S
C292 O302 1.259 1_554 S
C292 O303 1.270 . S
C293 O304 1.251 . S
C293 O305 1.251 1_556 S
O294 C274 1.257 . S
O294 Eu275 2.473 1_455 S
O295 C274 1.260 1_655 S
O295 Eu275 2.480 . S
O296 Eu275 2.430 . S
O296 C282 1.259 . S
O297 Eu275 2.670 1_556 S
O297 C282 1.270 1_556 S
O297 Eu285 2.355 1_655 S
O298 Eu275 2.394 1_455 S
O298 C283 1.251 . S
O299 C283 1.251 . S
O299 Eu285 2.374 1_554 S
O300 C284 1.257 1_655 S
O300 Eu285 2.473 1_655 S
O301 C284 1.260 . S
O301 Eu285 2.480 . S
O302 Eu285 2.430 . S
O302 C292 1.259 1_556 S
O303 Eu275 2.355 1_455 S
O303 Eu285 2.670 1_554 S
O303 C292 1.270 . S
O304 Eu285 2.394 1_655 S
O304 C293 1.251 . S
O305 Eu275 2.374 . S
O305 C293 1.251 1_554 S
H306 C277 0.931 1_655 S
H307 C278 0.931 . S
H308 C280 0.931 . S
H309 C281 0.931 . S
H310 C287 0.931 . S
H311 C288 0.931 . S
H312 C290 0.931 . S
H313 C291 0.931 . S
C314 Eu315 2.835 . S
C314 C316 1.500 . S
C314 O334 1.257 . S
C314 O335 1.260 . S
Eu315 C314 2.835 . S
Eu315 O334 2.473 . S
Eu315 O335 2.480 . S
Eu315 O336 2.430 1_556 S
Eu315 O337 2.670 1_556 S
Eu315 O338 2.395 . S
Eu315 O343 2.355 1_556 S
Eu315 O345 2.374 1_556 S
C316 C314 1.500 . S
C316 C317 1.377 . S
C316 C321 1.377 . S
C317 C316 1.377 . S
C317 C318 1.395 . S
C317 H346 0.931 . S
C318 C317 1.395 . S
C318 C319 1.383 . S
C318 H347 0.931 . S
C319 C318 1.383 . S
C319 C320 1.394 . S
C320 C319 1.394 . S
C320 C321 1.378 . S
C320 H348 0.931 . S
C321 C316 1.377 . S
C321 C320 1.378 . S
C321 H349 0.931 . S
C322 O336 1.259 . S
C322 O337 1.270 . S
C323 O338 1.219 1_554 S
C323 O339 1.251 . S
C324 Eu325 2.835 . S
C324 C326 1.500 . S
C324 O340 1.257 . S
C324 O341 1.260 . S
Eu325 C324 2.835 . S
Eu325 O337 2.355 . S
Eu325 O339 2.374 . S
Eu325 O340 2.473 . S
Eu325 O341 2.480 . S
Eu325 O342 2.430 . S
Eu325 O343 2.670 . S
Eu325 O344 2.394 . S
C326 C324 1.500 . S
C326 C327 1.377 . S
C326 C331 1.377 . S
C327 C326 1.377 . S
C327 C328 1.395 . S
C327 H350 0.931 . S
C328 C327 1.395 . S
C328 C329 1.383 . S
C328 H351 0.931 . S
C329 C328 1.383 . S
C329 C330 1.394 . S
C330 C329 1.394 . S
C330 C331 1.378 . S
C330 H352 0.931 . S
C331 C326 1.377 . S
C331 C330 1.378 . S
C331 H353 0.931 . S
C332 O342 1.259 . S
C332 O343 1.270 . S
C333 O344 1.251 . S
C333 O345 1.251 . S
O334 C314 1.257 . S
O334 Eu315 2.473 . S
O335 C314 1.260 . S
O335 Eu315 2.480 . S
O336 Eu315 2.430 1_554 S
O336 C322 1.259 . S
O337 Eu315 2.670 1_554 S
O337 C322 1.270 . S
O337 Eu325 2.355 . S
O338 Eu315 2.395 . S
O338 C323 1.219 1_556 S
O339 C323 1.251 . S
O339 Eu325 2.374 . S
O340 C324 1.257 . S
O340 Eu325 2.473 . S
O341 C324 1.260 . S
O341 Eu325 2.480 . S
O342 Eu325 2.430 . S
O342 C332 1.259 . S
O343 Eu315 2.355 1_554 S
O343 Eu325 2.670 . S
O343 C332 1.270 . S
O344 Eu325 2.394 . S
O344 C333 1.251 . S
O345 Eu315 2.374 1_554 S
O345 C333 1.251 . S
H346 C317 0.931 . S
H347 C318 0.931 . S
H348 C320 0.931 . S
H349 C321 0.931 . S
H350 C327 0.931 . S
H351 C328 0.931 . S
H352 C330 0.931 . S
H353 C331 0.931 . S
C354 Eu355 2.835 . S
C354 C356 1.500 . S
C354 O374 1.257 . S
C354 O375 1.260 . S
Eu355 C354 2.835 . S
Eu355 O374 2.473 . S
Eu355 O375 2.480 . S
Eu355 O376 2.430 . S
Eu355 O377 2.670 . S
Eu355 O378 2.394 . S
Eu355 O383 2.355 . S
Eu355 O385 2.374 . S
C356 C354 1.500 . S
C356 C357 1.377 . S
C356 C361 1.377 . S
C357 C356 1.377 . S
C357 C358 1.395 . S
C357 H386 0.931 . S
C358 C357 1.395 . S
C358 C359 1.383 . S
C358 H387 0.931 . S
C359 C358 1.383 . S
C359 C360 1.394 . S
C360 C359 1.394 . S
C360 C361 1.378 . S
C360 H388 0.931 . S
C361 C356 1.377 . S
C361 C360 1.378 . S
C361 H389 0.931 . S
C362 O376 1.259 . S
C362 O377 1.270 . S
C363 O378 1.251 . S
C363 O379 1.251 . S
C364 Eu365 2.835 . S
C364 C366 1.500 . S
C364 O380 1.257 . S
C364 O381 1.260 . S
Eu365 C364 2.835 . S
Eu365 O377 2.355 . S
Eu365 O379 2.374 . S
Eu365 O380 2.473 . S
Eu365 O381 2.480 . S
Eu365 O382 2.430 . S
Eu365 O383 2.670 . S
Eu365 O384 2.394 . S
C366 C364 1.500 . S
C366 C367 1.377 . S
C366 C371 1.377 . S
C367 C366 1.377 . S
C367 C368 1.395 . S
C367 H390 0.931 . S
C368 C367 1.395 . S
C368 C369 1.383 . S
C368 H391 0.931 . S
C369 C368 1.383 . S
C369 C370 1.394 . S
C370 C369 1.394 . S
C370 C371 1.378 . S
C370 H392 0.931 . S
C371 C366 1.377 . S
C371 C370 1.378 . S
C371 H393 0.931 . S
C372 O382 1.259 . S
C372 O383 1.270 . S
C373 O384 1.251 . S
C373 O385 1.251 . S
O374 C354 1.257 . S
O374 Eu355 2.473 . S
O375 C354 1.260 . S
O375 Eu355 2.480 . S
O376 Eu355 2.430 . S
O376 C362 1.259 . S
O377 Eu355 2.670 . S
O377 C362 1.270 . S
O377 Eu365 2.355 . S
O378 Eu355 2.394 . S
O378 C363 1.251 . S
O379 C363 1.251 . S
O379 Eu365 2.374 . S
O380 C364 1.257 . S
O380 Eu365 2.473 . S
O381 C364 1.260 . S
O381 Eu365 2.480 . S
O382 Eu365 2.430 . S
O382 C372 1.259 . S
O383 Eu355 2.355 . S
O383 Eu365 2.670 . S
O383 C372 1.270 . S
O384 Eu365 2.394 . S
O384 C373 1.251 . S
O385 Eu355 2.374 . S
O385 C373 1.251 . S
H386 C357 0.931 . S
H387 C358 0.931 . S
H388 C360 0.931 . S
H389 C361 0.931 . S
H390 C367 0.931 . S
H391 C368 0.931 . S
H392 C370 0.931 . S
H393 C371 0.931 . S
C394 Eu395 2.835 . S
C394 C396 1.500 . S
C394 O414 1.257 . S
C394 O415 1.260 . S
Eu395 C394 2.835 . S
Eu395 O414 2.473 . S
Eu395 O415 2.480 . S
Eu395 O416 2.430 . S
Eu395 O417 2.670 . S
Eu395 O418 2.394 . S
Eu395 O423 2.355 . S
Eu395 O425 2.374 . S
C396 C394 1.500 . S
C396 C397 1.377 . S
C396 C401 1.377 . S
C397 C396 1.377 . S
C397 C398 1.395 . S
C397 H426 0.931 . S
C398 C397 1.395 . S
C398 C399 1.383 . S
C398 H427 0.931 . S
C399 C398 1.383 . S
C399 C400 1.394 . S
C400 C399 1.394 . S
C400 C401 1.378 . S
C400 H428 0.931 . S
C401 C396 1.377 . S
C401 C400 1.378 . S
C401 H429 0.931 . S
C402 O416 1.259 . S
C402 O417 1.270 . S
C403 O418 1.251 . S
C403 O419 1.251 . S
C404 Eu405 2.835 . S
C404 C406 1.500 . S
C404 O420 1.257 . S
C404 O421 1.260 . S
Eu405 C404 2.835 . S
Eu405 O417 2.355 . S
Eu405 O419 2.374 . S
Eu405 O420 2.473 . S
Eu405 O421 2.480 . S
Eu405 O422 2.430 . S
Eu405 O423 2.670 . S
Eu405 O424 2.394 . S
C406 C404 1.500 . S
C406 C407 1.377 . S
C406 C411 1.377 . S
C407 C406 1.377 . S
C407 C408 1.395 . S
C407 H430 0.931 . S
C408 C407 1.395 . S
C408 C409 1.383 . S
C408 H431 0.931 . S
C409 C408 1.383 . S
C409 C410 1.394 . S
C410 C409 1.394 . S
C410 C411 1.378 . S
C410 H432 0.931 . S
C411 C406 1.377 . S
C411 C410 1.378 . S
C411 H433 0.931 . S
C412 O422 1.259 . S
C412 O423 1.270 . S
C413 O424 1.251 . S
C413 O425 1.251 . S
O414 C394 1.257 . S
O414 Eu395 2.473 . S
O415 C394 1.260 . S
O415 Eu395 2.480 . S
O416 Eu395 2.430 . S
O416 C402 1.259 . S
O417 Eu395 2.670 . S
O417 C402 1.270 . S
O417 Eu405 2.355 . S
O418 Eu395 2.394 . S
O418 C403 1.251 . S
O419 C403 1.251 . S
O419 Eu405 2.374 . S
O420 C404 1.257 . S
O420 Eu405 2.473 . S
O421 C404 1.260 . S
O421 Eu405 2.480 . S
O422 Eu405 2.430 . S
O422 C412 1.259 . S
O423 Eu395 2.355 . S
O423 Eu405 2.670 . S
O423 C412 1.270 . S
O424 Eu405 2.394 . S
O424 C413 1.251 . S
O425 Eu395 2.374 . S
O425 C413 1.251 . S
H426 C397 0.931 . S
H427 C398 0.931 . S
H428 C400 0.931 . S
H429 C401 0.931 . S
H430 C407 0.931 . S
H431 C408 0.931 . S
H432 C410 0.931 . S
H433 C411 0.931 . S
C434 Eu435 2.835 . S
C434 C436 1.500 . S
C434 O454 1.257 . S
C434 O455 1.260 . S
Eu435 C434 2.835 . S
Eu435 O454 2.473 . S
Eu435 O455 2.480 . S
Eu435 O456 2.430 . S
Eu435 O457 2.670 . S
Eu435 O458 2.394 . S
Eu435 O463 2.355 . S
Eu435 O465 2.374 . S
C436 C434 1.500 . S
C436 C437 1.377 . S
C436 C441 1.377 . S
C437 C436 1.377 . S
C437 C438 1.395 . S
C437 H466 0.931 . S
C438 C437 1.395 . S
C438 C439 1.383 . S
C438 H467 0.931 . S
C439 C438 1.383 . S
C439 C440 1.394 . S
C440 C439 1.394 . S
C440 C441 1.378 . S
C440 H468 0.931 . S
C441 C436 1.377 . S
C441 C440 1.378 . S
C441 H469 0.931 . S
C442 O456 1.259 . S
C442 O457 1.270 . S
C443 O458 1.251 . S
C443 O459 1.251 . S
C444 Eu445 2.835 . S
C444 C446 1.500 . S
C444 O460 1.257 . S
C444 O461 1.260 . S
Eu445 C444 2.835 . S
Eu445 O457 2.355 . S
Eu445 O459 2.374 . S
Eu445 O460 2.473 . S
Eu445 O461 2.480 . S
Eu445 O462 2.430 . S
Eu445 O463 2.670 . S
Eu445 O464 2.394 . S
C446 C444 1.500 . S
C446 C447 1.377 . S
C446 C451 1.377 . S
C447 C446 1.377 . S
C447 C448 1.395 . S
C447 H470 0.931 . S
C448 C447 1.395 . S
C448 C449 1.383 . S
C448 H471 0.931 . S
C449 C448 1.383 . S
C449 C450 1.394 . S
C450 C449 1.394 . S
C450 C451 1.378 . S
C450 H472 0.931 . S
C451 C446 1.377 . S
C451 C450 1.378 . S
C451 H473 0.931 . S
C452 O462 1.259 . S
C452 O463 1.270 . S
C453 O464 1.251 . S
C453 O465 1.251 . S
O454 C434 1.257 . S
O454 Eu435 2.473 . S
O455 C434 1.260 . S
O455 Eu435 2.480 . S
O456 Eu435 2.430 . S
O456 C442 1.259 . S
O457 Eu435 2.670 . S
O457 C442 1.270 . S
O457 Eu445 2.355 . S
O458 Eu435 2.394 . S
O458 C443 1.251 . S
O459 C443 1.251 . S
O459 Eu445 2.374 . S
O460 C444 1.257 . S
O460 Eu445 2.473 . S
O461 C444 1.260 . S
O461 Eu445 2.480 . S
O462 Eu445 2.430 . S
O462 C452 1.259 . S
O463 Eu435 2.355 . S
O463 Eu445 2.670 . S
O463 C452 1.270 . S
O464 Eu445 2.394 . S
O464 C453 1.251 . S
O465 Eu435 2.374 . S
O465 C453 1.251 . S
H466 C437 0.931 . S
H467 C438 0.931 . S
H468 C440 0.931 . S
H469 C441 0.931 . S
H470 C447 0.931 . S
H471 C448 0.931 . S
H472 C450 0.931 . S
H473 C451 0.931 . S
C474 Eu475 2.835 . S
C474 C476 1.500 . S
C474 O494 1.257 . S
C474 O495 1.260 . S
Eu475 C474 2.835 . S
Eu475 O494 2.473 . S
Eu475 O495 2.480 . S
Eu475 O496 2.430 . S
Eu475 O497 2.670 . S
Eu475 O498 2.394 . S
Eu475 O503 2.355 . S
Eu475 O505 2.374 . S
C476 C474 1.500 . S
C476 C477 1.377 . S
C476 C481 1.377 . S
C477 C476 1.377 . S
C477 C478 1.395 . S
C477 H506 0.931 . S
C478 C477 1.395 . S
C478 C479 1.383 . S
C478 H507 0.931 . S
C479 C478 1.383 . S
C479 C480 1.394 . S
C480 C479 1.394 . S
C480 C481 1.378 . S
C480 H508 0.931 . S
C481 C476 1.377 . S
C481 C480 1.378 . S
C481 H509 0.931 . S
C482 O496 1.259 . S
C482 O497 1.270 . S
C483 O498 1.251 . S
C483 O499 1.251 . S
C484 Eu485 2.835 . S
C484 C486 1.500 . S
C484 O500 1.257 . S
C484 O501 1.260 . S
Eu485 C484 2.835 . S
Eu485 O497 2.355 . S
Eu485 O499 2.374 . S
Eu485 O500 2.473 . S
Eu485 O501 2.480 . S
Eu485 O502 2.430 . S
Eu485 O503 2.670 . S
Eu485 O504 2.394 . S
C486 C484 1.500 . S
C486 C487 1.377 . S
C486 C491 1.377 . S
C487 C486 1.377 . S
C487 C488 1.395 . S
C487 H510 0.931 . S
C488 C487 1.395 . S
C488 C489 1.383 . S
C488 H511 0.931 . S
C489 C488 1.383 . S
C489 C490 1.394 . S
C490 C489 1.394 . S
C490 C491 1.378 . S
C490 H512 0.931 . S
C491 C486 1.377 . S
C491 C490 1.378 . S
C491 H513 0.931 . S
C492 O502 1.259 . S
C492 O503 1.270 . S
C493 O504 1.251 . S
C493 O505 1.251 . S
O494 C474 1.257 . S
O494 Eu475 2.473 . S
O495 C474 1.260 . S
O495 Eu475 2.480 . S
O496 Eu475 2.430 . S
O496 C482 1.259 . S
O497 Eu475 2.670 . S
O497 C482 1.270 . S
O497 Eu485 2.355 . S
O498 Eu475 2.394 . S
O498 C483 1.251 . S
O499 C483 1.251 . S
O499 Eu485 2.374 . S
O500 C484 1.257 . S
O500 Eu485 2.473 . S
O501 C484 1.260 . S
O501 Eu485 2.480 . S
O502 Eu485 2.430 . S
O502 C492 1.259 . S
O503 Eu475 2.355 . S
O503 Eu485 2.670 . S
O503 C492 1.270 . S
O504 Eu485 2.394 . S
O504 C493 1.251 . S
O505 Eu475 2.374 . S
O505 C493 1.251 . S
H506 C477 0.931 . S
H507 C478 0.931 . S
H508 C480 0.931 . S
H509 C481 0.931 . S
H510 C487 0.931 . S
H511 C488 0.931 . S
H512 C490 0.931 . S
H513 C491 0.931 . S
C514 Eu515 2.835 . S
C514 C516 1.500 . S
C514 O534 1.257 . S
C514 O535 1.260 . S
Eu515 C514 2.835 . S
Eu515 O534 2.473 . S
Eu515 O535 2.480 . S
Eu515 O536 2.430 . S
Eu515 O537 2.670 . S
Eu515 O538 2.394 . S
Eu515 O543 2.355 . S
Eu515 O545 2.374 . S
C516 C514 1.500 . S
C516 C517 1.377 . S
C516 C521 1.377 . S
C517 C516 1.377 . S
C517 C518 1.395 . S
C517 H546 0.931 . S
C518 C517 1.395 . S
C518 C519 1.383 . S
C518 H547 0.931 . S
C519 C518 1.383 . S
C519 C520 1.394 . S
C520 C519 1.394 . S
C520 C521 1.378 . S
C520 H548 0.931 . S
C521 C516 1.377 . S
C521 C520 1.378 . S
C521 H549 0.931 . S
C522 O536 1.259 . S
C522 O537 1.270 . S
C523 O538 1.251 . S
C523 O539 1.251 . S
C524 Eu525 2.835 . S
C524 C526 1.500 . S
C524 O540 1.257 . S
C524 O541 1.260 . S
Eu525 C524 2.835 . S
Eu525 O537 2.355 . S
Eu525 O539 2.374 . S
Eu525 O540 2.473 . S
Eu525 O541 2.480 . S
Eu525 O542 2.430 . S
Eu525 O543 2.670 . S
Eu525 O544 2.394 . S
C526 C524 1.500 . S
C526 C527 1.377 . S
C526 C531 1.377 . S
C527 C526 1.377 . S
C527 C528 1.395 . S
C527 H550 0.931 . S
C528 C527 1.395 . S
C528 C529 1.383 . S
C528 H551 0.931 . S
C529 C528 1.383 . S
C529 C530 1.394 . S
C530 C529 1.394 . S
C530 C531 1.378 . S
C530 H552 0.931 . S
C531 C526 1.377 . S
C531 C530 1.378 . S
C531 H553 0.931 . S
C532 O542 1.259 . S
C532 O543 1.270 . S
C533 O544 1.251 . S
C533 O545 1.251 . S
O534 C514 1.257 . S
O534 Eu515 2.473 . S
O535 C514 1.260 . S
O535 Eu515 2.480 . S
O536 Eu515 2.430 . S
O536 C522 1.259 . S
O537 Eu515 2.670 . S
O537 C522 1.270 . S
O537 Eu525 2.355 . S
O538 Eu515 2.394 . S
O538 C523 1.251 . S
O539 C523 1.251 . S
O539 Eu525 2.374 . S
O540 C524 1.257 . S
O540 Eu525 2.473 . S
O541 C524 1.260 . S
O541 Eu525 2.480 . S
O542 Eu525 2.430 . S
O542 C532 1.259 . S
O543 Eu515 2.355 . S
O543 Eu525 2.670 . S
O543 C532 1.270 . S
O544 Eu525 2.394 . S
O544 C533 1.251 . S
O545 Eu515 2.374 . S
O545 C533 1.251 . S
H546 C517 0.931 . S
H547 C518 0.931 . S
H548 C520 0.931 . S
H549 C521 0.931 . S
H550 C527 0.931 . S
H551 C528 0.931 . S
H552 C530 0.931 . S
H553 C531 0.931 . S
C554 Eu555 2.835 . S
C554 C556 1.500 . S
C554 O574 1.257 . S
C554 O575 1.260 . S
Eu555 C554 2.835 . S
Eu555 O574 2.473 . S
Eu555 O575 2.480 . S
Eu555 O576 2.430 . S
Eu555 O577 2.670 . S
Eu555 O578 2.394 . S
Eu555 O583 2.355 . S
Eu555 O585 2.374 . S
C556 C554 1.500 . S
C556 C557 1.377 . S
C556 C561 1.377 . S
C557 C556 1.377 . S
C557 C558 1.395 . S
C557 H586 0.931 . S
C558 C557 1.395 . S
C558 C559 1.383 . S
C558 H587 0.931 . S
C559 C558 1.383 . S
C559 C560 1.394 . S
C560 C559 1.394 . S
C560 C561 1.378 . S
C560 H588 0.931 . S
C561 C556 1.377 . S
C561 C560 1.378 . S
C561 H589 0.931 . S
C562 O576 1.259 . S
C562 O577 1.270 . S
C563 O578 1.251 . S
C563 O579 1.251 . S
C564 Eu565 2.835 . S
C564 C566 1.500 . S
C564 O580 1.257 . S
C564 O581 1.260 . S
Eu565 C564 2.835 . S
Eu565 O577 2.355 . S
Eu565 O579 2.374 . S
Eu565 O580 2.473 . S
Eu565 O581 2.480 . S
Eu565 O582 2.430 . S
Eu565 O583 2.670 . S
Eu565 O584 2.394 . S
C566 C564 1.500 . S
C566 C567 1.377 . S
C566 C571 1.377 . S
C567 C566 1.377 . S
C567 C568 1.395 . S
C567 H590 0.931 . S
C568 C567 1.395 . S
C568 C569 1.383 . S
C568 H591 0.931 . S
C569 C568 1.383 . S
C569 C570 1.394 . S
C570 C569 1.394 . S
C570 C571 1.378 . S
C570 H592 0.931 . S
C571 C566 1.377 . S
C571 C570 1.378 . S
C571 H593 0.931 . S
C572 O582 1.259 . S
C572 O583 1.270 . S
C573 O584 1.251 . S
C573 O585 1.251 . S
O574 C554 1.257 . S
O574 Eu555 2.473 . S
O575 C554 1.260 . S
O575 Eu555 2.480 . S
O576 Eu555 2.430 . S
O576 C562 1.259 . S
O577 Eu555 2.670 . S
O577 C562 1.270 . S
O577 Eu565 2.355 . S
O578 Eu555 2.394 . S
O578 C563 1.251 . S
O579 C563 1.251 . S
O579 Eu565 2.374 . S
O580 C564 1.257 . S
O580 Eu565 2.473 . S
O581 C564 1.260 . S
O581 Eu565 2.480 . S
O582 Eu565 2.430 . S
O582 C572 1.259 . S
O583 Eu555 2.355 . S
O583 Eu565 2.670 . S
O583 C572 1.270 . S
O584 Eu565 2.394 . S
O584 C573 1.251 . S
O585 Eu555 2.374 . S
O585 C573 1.251 . S
H586 C557 0.931 . S
H587 C558 0.931 . S
H588 C560 0.931 . S
H589 C561 0.931 . S
H590 C567 0.931 . S
H591 C568 0.931 . S
H592 C570 0.931 . S
H593 C571 0.931 . S
C594 C595 1.349 . S
C594 C596 1.327 . S
C594 H619 0.950 . S
C595 C594 1.349 . S
C595 C611 1.349 . S
C596 C594 1.327 . S
C596 C615 1.429 . S
C596 H620 0.950 . S
C597 C614 1.574 . S
C597 C616 1.368 . S
C597 H621 0.949 . S
H598 C602 0.949 . S
C599 C600 1.349 . S
C599 C601 1.327 . S
C599 H622 0.950 . S
C600 C599 1.349 . S
C600 C612 1.349 . S
C601 C599 1.327 . S
C601 C617 1.429 . S
C601 H623 0.950 . S
C602 H598 0.949 . S
C602 C610 1.574 . S
C602 C618 1.368 . S
H603 C611 0.950 . S
H604 C609 0.950 . S
H605 C610 0.949 . S
H606 C612 0.950 . S
H607 C613 0.950 . S
H608 C614 0.949 . S
C609 H604 0.950 . S
C609 C611 1.327 . S
C609 C615 1.429 . S
C610 C602 1.574 . S
C610 H605 0.949 . S
C610 C616 1.368 . S
C611 C595 1.349 . S
C611 H603 0.950 . S
C611 C609 1.327 . S
C612 C600 1.349 . S
C612 H606 0.950 . S
C612 C613 1.327 . S
C613 H607 0.950 . S
C613 C612 1.327 . S
C613 C617 1.429 . S
C614 C597 1.574 . S
C614 H608 0.949 . S
C614 C618 1.368 . S
C615 C596 1.429 . S
C615 C609 1.429 . S
C615 C616 1.523 . S
C616 C597 1.368 . S
C616 C610 1.368 . S
C616 C615 1.523 . S
C617 C601 1.429 . S
C617 C613 1.429 . S
C617 C618 1.523 . S
C618 C602 1.368 . S
C618 C614 1.368 . S
C618 C617 1.523 . S
H619 C594 0.950 . S
H620 C596 0.950 . S
H621 C597 0.949 . S
H622 C599 0.950 . S
H623 C601 0.950 . S
C624 C625 1.349 . S
C624 C626 1.327 . S
C624 H649 0.950 . S
C625 C624 1.349 . S
C625 C641 1.349 . S
C626 C624 1.327 . S
C626 C645 1.429 . S
C626 H650 0.950 . S
C627 C644 1.574 . S
C627 C646 1.368 . S
C627 H651 0.949 . S
H628 C632 0.949 . S
C629 C630 1.349 . S
C629 C631 1.327 . S
C629 H652 0.950 . S
C630 C629 1.349 . S
C630 C642 1.349 . S
C631 C629 1.327 . S
C631 C647 1.429 . S
C631 H653 0.950 . S
C632 H628 0.949 . S
C632 C640 1.574 . S
C632 C648 1.368 . S
H633 C641 0.950 . S
H634 C639 0.950 . S
H635 C640 0.949 . S
H636 C642 0.950 . S
H637 C643 0.950 . S
H638 C644 0.949 . S
C639 H634 0.950 . S
C639 C641 1.327 . S
C639 C645 1.429 . S
C640 C632 1.574 . S
C640 H635 0.949 . S
C640 C646 1.368 . S
C641 C625 1.349 . S
C641 H633 0.950 . S
C641 C639 1.327 . S
C642 C630 1.349 . S
C642 H636 0.950 . S
C642 C643 1.327 . S
C643 H637 0.950 . S
C643 C642 1.327 . S
C643 C647 1.429 . S
C644 C627 1.574 . S
C644 H638 0.949 . S
C644 C648 1.368 . S
C645 C626 1.429 . S
C645 C639 1.429 . S
C645 C646 1.523 . S
C646 C627 1.368 . S
C646 C640 1.368 . S
C646 C645 1.523 . S
C647 C631 1.429 . S
C647 C643 1.429 . S
C647 C648 1.523 . S
C648 C632 1.368 . S
C648 C644 1.368 . S
C648 C647 1.523 . S
H649 C624 0.950 . S
H650 C626 0.950 . S
H651 C627 0.949 . S
H652 C629 0.950 . S
H653 C631 0.950 . S
C654 C655 1.349 . S
C654 C656 1.327 . S
C654 H679 0.950 . S
C655 C654 1.349 . S
C655 C671 1.349 . S
C656 C654 1.327 . S
C656 C675 1.429 . S
C656 H680 0.950 . S
C657 C674 1.574 . S
C657 C676 1.368 . S
C657 H681 0.949 . S
H658 C662 0.949 . S
C659 C660 1.349 . S
C659 C661 1.327 . S
C659 H682 0.950 . S
C660 C659 1.349 . S
C660 C672 1.349 . S
C661 C659 1.327 . S
C661 C677 1.429 . S
C661 H683 0.950 . S
C662 H658 0.949 . S
C662 C670 1.574 . S
C662 C678 1.368 . S
H663 C671 0.950 . S
H664 C669 0.950 . S
H665 C670 0.949 . S
H666 C672 0.950 . S
H667 C673 0.950 . S
H668 C674 0.949 . S
C669 H664 0.950 . S
C669 C671 1.327 . S
C669 C675 1.429 . S
C670 C662 1.574 . S
C670 H665 0.949 . S
C670 C676 1.368 . S
C671 C655 1.349 . S
C671 H663 0.950 . S
C671 C669 1.327 . S
C672 C660 1.349 . S
C672 H666 0.950 . S
C672 C673 1.327 . S
C673 H667 0.950 . S
C673 C672 1.327 . S
C673 C677 1.429 . S
C674 C657 1.574 . S
C674 H668 0.949 . S
C674 C678 1.368 . S
C675 C656 1.429 . S
C675 C669 1.429 . S
C675 C676 1.523 . S
C676 C657 1.368 . S
C676 C670 1.368 . S
C676 C675 1.523 . S
C677 C661 1.429 . S
C677 C673 1.429 . S
C677 C678 1.523 . S
C678 C662 1.368 . S
C678 C674 1.368 . S
C678 C677 1.523 . S
H679 C654 0.950 . S
H680 C656 0.950 . S
H681 C657 0.949 . S
H682 C659 0.950 . S
H683 C661 0.950 . S
C684 C685 1.349 . S
C684 C686 1.327 . S
C684 H709 0.950 . S
C685 C684 1.349 . S
C685 C701 1.349 . S
C686 C684 1.327 . S
C686 C705 1.429 . S
C686 H710 0.950 . S
C687 C704 1.574 . S
C687 C706 1.368 . S
C687 H711 0.949 . S
H688 C692 0.949 1_554 S
C689 C690 1.349 . S
C689 C691 1.327 . S
C689 H712 0.950 . S
C690 C689 1.349 . S
C690 C702 1.349 1_556 S
C691 C689 1.327 . S
C691 C707 1.429 . S
C691 H713 0.950 . S
C692 H688 0.949 1_556 S
C692 C700 1.574 . S
C692 C708 1.368 . S
H693 C701 0.950 . S
H694 C699 0.950 . S
H695 C700 0.949 . S
H696 C702 0.950 . S
H697 C703 0.950 . S
H698 C704 0.949 . S
C699 H694 0.950 . S
C699 C701 1.327 . S
C699 C705 1.429 . S
C700 C692 1.574 . S
C700 H695 0.949 . S
C700 C706 1.368 . S
C701 C685 1.349 . S
C701 H693 0.950 . S
C701 C699 1.327 . S
C702 C690 1.349 1_554 S
C702 H696 0.950 . S
C702 C703 1.327 . S
C703 H697 0.950 . S
C703 C702 1.327 . S
C703 C707 1.429 1_554 S
C704 C687 1.574 . S
C704 H698 0.949 . S
C704 C708 1.368 . S
C705 C686 1.429 . S
C705 C699 1.429 . S
C705 C706 1.523 . S
C706 C687 1.368 . S
C706 C700 1.368 . S
C706 C705 1.523 . S
C707 C691 1.429 . S
C707 C703 1.429 1_556 S
C707 C708 1.523 . S
C708 C692 1.368 . S
C708 C704 1.368 . S
C708 C707 1.523 . S
H709 C684 0.950 . S
H710 C686 0.950 . S
H711 C687 0.949 . S
H712 C689 0.950 . S
H713 C691 0.950 . S
C714 C715 1.349 . S
C714 C716 1.327 . S
C714 H739 0.950 . S
C715 C714 1.349 . S
C715 C731 1.349 . S
C716 C714 1.327 . S
C716 C735 1.429 . S
C716 H740 0.950 . S
C717 C734 1.574 . S
C717 C736 1.368 . S
C717 H741 0.949 . S
H718 C722 0.949 . S
C719 C720 1.352 . S
C719 C721 1.318 1_554 S
C719 H742 0.956 . S
C720 C719 1.352 . S
C720 C732 1.337 1_554 S
C721 C719 1.318 1_556 S
C721 C737 1.429 . S
C721 H743 0.950 . S
C722 H718 0.949 . S
C722 C730 1.574 . S
C722 C738 1.368 . S
H723 C731 0.950 . S
H724 C729 0.950 . S
H725 C730 0.949 . S
H726 C732 0.943 1_554 S
H727 C733 0.950 . S
H728 C734 0.949 . S
C729 H724 0.950 . S
C729 C731 1.327 . S
C729 C735 1.429 . S
C730 C722 1.574 . S
C730 H725 0.949 . S
C730 C736 1.368 . S
C731 C715 1.349 . S
C731 H723 0.950 . S
C731 C729 1.327 . S
C732 C720 1.337 1_556 S
C732 H726 0.943 1_556 S
C732 C733 1.347 . S
C733 H727 0.950 . S
C733 C732 1.347 . S
C733 C737 1.429 . S
C734 C717 1.574 . S
C734 H728 0.949 . S
C734 C738 1.368 . S
C735 C716 1.429 . S
C735 C729 1.429 . S
C735 C736 1.523 . S
C736 C717 1.368 . S
C736 C730 1.368 . S
C736 C735 1.523 . S
C737 C721 1.429 . S
C737 C733 1.429 . S
C737 C738 1.523 . S
C738 C722 1.368 . S
C738 C734 1.368 . S
C738 C737 1.523 . S
H739 C714 0.950 . S
H740 C716 0.950 . S
H741 C717 0.949 . S
H742 C719 0.956 . S
H743 C721 0.950 . S
C744 C745 1.349 . S
C744 C746 1.327 . S
C744 H769 0.950 . S
C745 C744 1.349 . S
C745 C761 1.349 . S
C746 C744 1.327 . S
C746 C765 1.429 . S
C746 H770 0.950 . S
C747 C764 1.574 . S
C747 C766 1.368 1_554 S
C747 H771 0.949 . S
H748 C752 0.949 . S
C749 C750 1.349 . S
C749 C751 1.327 . S
C749 H772 0.950 . S
C750 C749 1.349 . S
C750 C762 1.349 1_554 S
C751 C749 1.327 . S
C751 C767 1.429 1_554 S
C751 H773 0.950 . S
C752 H748 0.949 . S
C752 C760 1.574 . S
C752 C768 1.368 . S
H753 C761 0.950 1_554 S
H754 C759 0.950 1_554 S
H755 C760 0.949 . S
H756 C762 0.950 . S
H757 C763 0.950 . S
H758 C764 0.949 . S
C759 H754 0.950 1_556 S
C759 C761 1.327 . S
C759 C765 1.429 . S
C760 C752 1.574 . S
C760 H755 0.949 . S
C760 C766 1.368 . S
C761 C745 1.349 . S
C761 H753 0.950 1_556 S
C761 C759 1.327 . S
C762 C750 1.349 1_556 S
C762 H756 0.950 . S
C762 C763 1.327 . S
C763 H757 0.950 . S
C763 C762 1.327 . S
C763 C767 1.429 . S
C764 C747 1.574 . S
C764 H758 0.949 . S
C764 C768 1.368 1_554 S
C765 C746 1.429 . S
C765 C759 1.429 . S
C765 C766 1.523 . S
C766 C747 1.368 1_556 S
C766 C760 1.368 . S
C766 C765 1.523 . S
C767 C751 1.429 1_556 S
C767 C763 1.429 . S
C767 C768 1.523 . S
C768 C752 1.368 . S
C768 C764 1.368 1_556 S
C768 C767 1.523 . S
H769 C744 0.950 . S
H770 C746 0.950 . S
H771 C747 0.949 . S
H772 C749 0.950 . S
H773 C751 0.950 . S
C774 C775 1.349 . S
C774 C776 1.327 . S
C774 H799 0.950 . S
C775 C774 1.349 . S
C775 C791 1.349 . S
C776 C774 1.327 . S
C776 C795 1.429 . S
C776 H800 0.950 . S
C777 C794 1.574 . S
C777 C796 1.368 . S
C777 H801 0.949 . S
H778 C782 0.949 . S
C779 C780 1.342 1_554 S
C779 C781 1.327 . S
C779 H802 0.950 . S
C780 C779 1.342 1_556 S
C780 C792 1.360 . S
C781 C779 1.327 . S
C781 C797 1.429 1_554 S
C781 H803 0.950 . S
C782 H778 0.949 . S
C782 C790 1.574 . S
C782 C798 1.368 . S
H783 C791 0.950 . S
H784 C789 0.950 . S
H785 C790 0.949 . S
H786 C792 0.950 . S
H787 C793 0.950 . S
H788 C794 0.949 1_554 S
C789 H784 0.950 . S
C789 C791 1.327 . S
C789 C795 1.429 . S
C790 C782 1.574 . S
C790 H785 0.949 . S
C790 C796 1.368 . S
C791 C775 1.349 . S
C791 H783 0.950 . S
C791 C789 1.327 . S
C792 C780 1.360 . S
C792 H786 0.950 . S
C792 C793 1.327 . S
C793 H787 0.950 . S
C793 C792 1.327 . S
C793 C797 1.429 . S
C794 C777 1.574 . S
C794 H788 0.949 1_556 S
C794 C798 1.368 . S
C795 C776 1.429 . S
C795 C789 1.429 . S
C795 C796 1.523 . S
C796 C777 1.368 . S
C796 C790 1.368 . S
C796 C795 1.523 . S
C797 C781 1.429 1_556 S
C797 C793 1.429 . S
C797 C798 1.523 . S
C798 C782 1.368 . S
C798 C794 1.368 . S
C798 C797 1.523 . S
H799 C774 0.950 . S
H800 C776 0.950 . S
H801 C777 0.949 . S
H802 C779 0.950 . S
H803 C781 0.950 . S
C804 C805 1.349 . S
C804 C806 1.327 . S
C804 H829 0.950 . S
C805 C804 1.349 . S
C805 C821 1.349 . S
C806 C804 1.327 . S
C806 C825 1.429 . S
C806 H830 0.950 . S
C807 C824 1.574 . S
C807 C826 1.368 . S
C807 H831 0.949 . S
H808 C812 0.949 . S
C809 C810 1.349 . S
C809 C811 1.327 . S
C809 H832 0.950 . S
C810 C809 1.349 . S
C810 C822 1.349 . S
C811 C809 1.327 . S
C811 C827 1.429 . S
C811 H833 0.950 . S
C812 H808 0.949 . S
C812 C820 1.574 . S
C812 C828 1.368 . S
H813 C821 0.950 . S
H814 C819 0.950 . S
H815 C820 0.949 . S
H816 C822 0.950 . S
H817 C823 0.950 . S
H818 C824 0.949 . S
C819 H814 0.950 . S
C819 C821 1.327 . S
C819 C825 1.429 . S
C820 C812 1.574 . S
C820 H815 0.949 . S
C820 C826 1.368 . S
C821 C805 1.349 . S
C821 H813 0.950 . S
C821 C819 1.327 . S
C822 C810 1.349 . S
C822 H816 0.950 . S
C822 C823 1.327 . S
C823 H817 0.950 . S
C823 C822 1.327 . S
C823 C827 1.429 . S
C824 C807 1.574 . S
C824 H818 0.949 . S
C824 C828 1.368 . S
C825 C806 1.429 . S
C825 C819 1.429 . S
C825 C826 1.523 . S
C826 C807 1.368 . S
C826 C820 1.368 . S
C826 C825 1.523 . S
C827 C811 1.429 . S
C827 C823 1.429 . S
C827 C828 1.523 . S
C828 C812 1.368 . S
C828 C824 1.368 . S
C828 C827 1.523 . S
H829 C804 0.950 . S
H830 C806 0.950 . S
H831 C807 0.949 . S
H832 C809 0.950 . S
H833 C811 0.950 . S
C834 C835 1.349 . S
C834 C836 1.327 . S
C834 H859 0.950 . S
C835 C834 1.349 . S
C835 C851 1.349 . S
C836 C834 1.327 . S
C836 C855 1.429 . S
C836 H860 0.950 . S
C837 C854 1.574 . S
C837 C856 1.368 1_554 S
C837 H861 0.949 . S
H838 C842 0.949 . S
C839 C840 1.349 . S
C839 C841 1.327 . S
C839 H862 0.950 . S
C840 C839 1.349 . S
C840 C852 1.349 . S
C841 C839 1.327 . S
C841 C857 1.429 . S
C841 H863 0.950 . S
C842 H838 0.949 . S
C842 C850 1.574 . S
C842 C858 1.368 1_556 S
H843 C851 0.950 1_554 S
H844 C849 0.950 . S
H845 C850 0.949 . S
H846 C852 0.950 1_556 S
H847 C853 0.950 . S
H848 C854 0.949 . S
C849 H844 0.950 . S
C849 C851 1.327 1_554 S
C849 C855 1.429 1_554 S
C850 C842 1.574 . S
C850 H845 0.949 . S
C850 C856 1.368 . S
C851 C835 1.349 . S
C851 H843 0.950 1_556 S
C851 C849 1.327 1_556 S
C852 C840 1.349 . S
C852 H846 0.950 1_554 S
C852 C853 1.327 1_554 S
C853 H847 0.950 . S
C853 C852 1.327 1_556 S
C853 C857 1.429 1_556 S
C854 C837 1.574 . S
C854 H848 0.949 . S
C854 C858 1.368 . S
C855 C836 1.429 . S
C855 C849 1.429 1_556 S
C855 C856 1.523 . S
C856 C837 1.368 1_556 S
C856 C850 1.368 . S
C856 C855 1.523 . S
C857 C841 1.429 . S
C857 C853 1.429 1_554 S
C857 C858 1.523 . S
C858 C842 1.368 1_554 S
C858 C854 1.368 . S
C858 C857 1.523 . S
H859 C834 0.950 . S
H860 C836 0.950 . S
H861 C837 0.949 . S
H862 C839 0.950 . S
H863 C841 0.950 . S
C864 C865 1.349 . S
C864 C866 1.327 . S
C864 H889 0.950 . S
C865 C864 1.349 . S
C865 C881 1.349 . S
C866 C864 1.327 . S
C866 C885 1.429 . S
C866 H890 0.950 . S
C867 C884 1.574 . S
C867 C886 1.368 . S
C867 H891 0.949 . S
H868 C872 0.949 . S
C869 C870 1.349 . S
C869 C871 1.327 . S
C869 H892 0.950 . S
C870 C869 1.349 . S
C870 C882 1.349 . S
C871 C869 1.327 . S
C871 C887 1.429 . S
C871 H893 0.950 . S
C872 H868 0.949 . S
C872 C880 1.574 . S
C872 C888 1.368 . S
H873 C881 0.950 . S
H874 C879 0.950 . S
H875 C880 0.949 . S
H876 C882 0.950 1_556 S
H877 C883 0.950 . S
H878 C884 0.949 . S
C879 H874 0.950 . S
C879 C881 1.327 . S
C879 C885 1.429 . S
C880 C872 1.574 . S
C880 H875 0.949 . S
C880 C886 1.368 . S
C881 C865 1.349 . S
C881 H873 0.950 . S
C881 C879 1.327 . S
C882 C870 1.349 . S
C882 H876 0.950 1_554 S
C882 C883 1.327 . S
C883 H877 0.950 . S
C883 C882 1.327 . S
C883 C887 1.429 . S
C884 C867 1.574 . S
C884 H878 0.949 . S
C884 C888 1.368 . S
C885 C866 1.429 . S
C885 C879 1.429 . S
C885 C886 1.523 . S
C886 C867 1.368 . S
C886 C880 1.368 . S
C886 C885 1.523 . S
C887 C871 1.429 . S
C887 C883 1.429 . S
C887 C888 1.523 . S
C888 C872 1.368 . S
C888 C884 1.368 . S
C888 C887 1.523 . S
H889 C864 0.950 . S
H890 C866 0.950 . S
H891 C867 0.949 . S
H892 C869 0.950 . S
H893 C871 0.950 . S
C894 C895 1.349 . S
C894 C896 1.327 . S
C894 H919 0.950 . S
C895 C894 1.349 . S
C895 C911 1.349 . S
C896 C894 1.327 . S
C896 C915 1.429 . S
C896 H920 0.950 . S
C897 C914 1.574 . S
C897 C916 1.368 . S
C897 H921 0.949 . S
H898 C902 0.949 . S
C899 C900 1.349 . S
C899 C901 1.327 . S
C899 H922 0.950 . S
C900 C899 1.349 . S
C900 C912 1.349 . S
C901 C899 1.327 . S
C901 C917 1.429 . S
C901 H923 0.950 . S
C902 H898 0.949 . S
C902 C910 1.574 . S
C902 C918 1.368 . S
H903 C911 0.950 . S
H904 C909 0.950 . S
H905 C910 0.949 . S
H906 C912 0.950 . S
H907 C913 0.950 . S
H908 C914 0.949 . S
C909 H904 0.950 . S
C909 C911 1.327 . S
C909 C915 1.429 . S
C910 C902 1.574 . S
C910 H905 0.949 . S
C910 C916 1.368 . S
C911 C895 1.349 . S
C911 H903 0.950 . S
C911 C909 1.327 . S
C912 C900 1.349 . S
C912 H906 0.950 . S
C912 C913 1.327 . S
C913 H907 0.950 . S
C913 C912 1.327 . S
C913 C917 1.429 . S
C914 C897 1.574 . S
C914 H908 0.949 . S
C914 C918 1.368 . S
C915 C896 1.429 . S
C915 C909 1.429 . S
C915 C916 1.523 . S
C916 C897 1.368 . S
C916 C910 1.368 . S
C916 C915 1.523 . S
C917 C901 1.429 . S
C917 C913 1.429 . S
C917 C918 1.523 . S
C918 C902 1.368 . S
C918 C914 1.368 . S
C918 C917 1.523 . S
H919 C894 0.950 . S
H920 C896 0.950 . S
H921 C897 0.949 . S
H922 C899 0.950 . S
H923 C901 0.950 . S
C924 C925 1.349 . S
C924 C926 1.327 . S
C924 H949 0.950 . S
C925 C924 1.349 . S
C925 C941 1.349 . S
C926 C924 1.327 . S
C926 C945 1.429 . S
C926 H950 0.950 . S
C927 C944 1.574 . S
C927 C946 1.368 . S
C927 H951 0.949 . S
H928 C932 0.949 . S
C929 C930 1.349 . S
C929 C931 1.327 . S
C929 H952 0.950 . S
C930 C929 1.349 . S
C930 C942 1.349 . S
C931 C929 1.327 . S
C931 C947 1.429 . S
C931 H953 0.950 . S
C932 H928 0.949 . S
C932 C940 1.574 . S
C932 C948 1.368 . S
H933 C941 0.950 . S
H934 C939 0.950 . S
H935 C940 0.949 . S
H936 C942 0.950 . S
H937 C943 0.950 . S
H938 C944 0.949 . S
C939 H934 0.950 . S
C939 C941 1.327 . S
C939 C945 1.429 . S
C940 C932 1.574 . S
C940 H935 0.949 . S
C940 C946 1.368 . S
C941 C925 1.349 . S
C941 H933 0.950 . S
C941 C939 1.327 . S
C942 C930 1.349 . S
C942 H936 0.950 . S
C942 C943 1.327 . S
C943 H937 0.950 . S
C943 C942 1.327 . S
C943 C947 1.429 . S
C944 C927 1.574 . S
C944 H938 0.949 . S
C944 C948 1.368 . S
C945 C926 1.429 . S
C945 C939 1.429 . S
C945 C946 1.523 . S
C946 C927 1.368 . S
C946 C940 1.368 . S
C946 C945 1.523 . S
C947 C931 1.429 . S
C947 C943 1.429 . S
C947 C948 1.523 . S
C948 C932 1.368 . S
C948 C944 1.368 . S
C948 C947 1.523 . S
H949 C924 0.950 . S
H950 C926 0.950 . S
H951 C927 0.949 . S
H952 C929 0.950 . S
H953 C931 0.950 . S
C954 C955 1.349 . S
C954 C956 1.327 . S
C954 H979 0.950 . S
C955 C954 1.349 . S
C955 C971 1.349 . S
C956 C954 1.327 . S
C956 C975 1.429 . S
C956 H980 0.950 . S
C957 C974 1.574 1_655 S
C957 C976 1.368 . S
C957 H981 0.949 . S
H958 C962 0.949 . S
C959 C960 1.349 . S
C959 C961 1.327 . S
C959 H982 0.950 . S
C960 C959 1.349 . S
C960 C972 1.349 . S
C961 C959 1.327 . S
C961 C977 1.429 . S
C961 H983 0.950 . S
C962 H958 0.949 . S
C962 C970 1.531 1_455 S
C962 C978 1.368 . S
H963 C971 0.950 . S
H964 C969 0.950 . S
H965 C970 0.950 . S
H966 C972 0.950 . S
H967 C973 0.950 . S
H968 C974 0.949 . S
C969 H964 0.950 . S
C969 C971 1.327 . S
C969 C975 1.429 . S
C970 C962 1.531 1_655 S
C970 H965 0.950 . S
C970 C976 1.412 . S
C971 C955 1.349 . S
C971 H963 0.950 . S
C971 C969 1.327 . S
C972 C960 1.349 . S
C972 H966 0.950 . S
C972 C973 1.327 . S
C973 H967 0.950 . S
C973 C972 1.327 . S
C973 C977 1.429 . S
C974 C957 1.574 1_455 S
C974 H968 0.949 . S
C974 C978 1.368 . S
C975 C956 1.429 . S
C975 C969 1.429 . S
C975 C976 1.523 . S
C976 C957 1.368 . S
C976 C970 1.412 . S
C976 C975 1.523 . S
C977 C961 1.429 . S
C977 C973 1.429 . S
C977 C978 1.523 . S
C978 C962 1.368 . S
C978 C974 1.368 . S
C978 C977 1.523 . S
H979 C954 0.950 . S
H980 C956 0.950 . S
H981 C957 0.949 . S
H982 C959 0.950 . S
H983 C961 0.950 . S
C984 C985 1.349 . S
C984 C986 1.327 . S
C984 H1009 0.950 . S
C985 C984 1.349 . S
C985 C1001 1.349 . S
C986 C984 1.327 . S
C986 C1005 1.429 . S
C986 H1010 0.950 . S
C987 C1004 1.574 . S
C987 C1006 1.368 . S
C987 H1011 0.949 . S
H988 C992 0.949 . S
C989 C990 1.349 . S
C989 C991 1.327 . S
C989 H1012 0.950 . S
C990 C989 1.349 . S
C990 C1002 1.349 . S
C991 C989 1.327 . S
C991 C1007 1.429 . S
C991 H1013 0.950 . S
C992 H988 0.949 . S
C992 C1000 1.574 . S
C992 C1008 1.368 . S
H993 C1001 0.950 . S
H994 C999 0.950 . S
H995 C1000 0.949 . S
H996 C1002 0.950 . S
H997 C1003 0.950 . S
H998 C1004 0.949 . S
C999 H994 0.950 . S
C999 C1001 1.327 . S
C999 C1005 1.429 . S
C1000 C992 1.574 . S
C1000 H995 0.949 . S
C1000 C1006 1.368 . S
C1001 C985 1.349 . S
C1001 H993 0.950 . S
C1001 C999 1.327 . S
C1002 C990 1.349 . S
C1002 H996 0.950 . S
C1002 C1003 1.327 . S
C1003 H997 0.950 . S
C1003 C1002 1.327 . S
C1003 C1007 1.429 . S
C1004 C987 1.574 . S
C1004 H998 0.949 . S
C1004 C1008 1.368 . S
C1005 C986 1.429 . S
C1005 C999 1.429 . S
C1005 C1006 1.523 . S
C1006 C987 1.368 . S
C1006 C1000 1.368 . S
C1006 C1005 1.523 . S
C1007 C991 1.429 . S
C1007 C1003 1.429 . S
C1007 C1008 1.523 . S
C1008 C992 1.368 . S
C1008 C1004 1.368 . S
C1008 C1007 1.523 . S
H1009 C984 0.950 . S
H1010 C986 0.950 . S
H1011 C987 0.949 . S
H1012 C989 0.950 . S
H1013 C991 0.950 . S
C1014 C1015 1.349 . S
C1014 C1016 1.327 . S
C1014 H1039 0.950 . S
C1015 C1014 1.349 . S
C1015 C1031 1.349 . S
C1016 C1014 1.327 . S
C1016 C1035 1.429 . S
C1016 H1040 0.950 . S
C1017 C1034 1.615 . S
C1017 C1036 1.361 1_565 S
C1017 H1041 0.920 1_565 S
H1018 C1022 0.949 . S
C1019 C1020 1.349 . S
C1019 C1021 1.327 . S
C1019 H1042 0.950 . S
C1020 C1019 1.349 . S
C1020 C1032 1.349 . S
C1021 C1019 1.327 . S
C1021 C1037 1.429 . S
C1021 H1043 0.950 . S
C1022 H1018 0.949 . S
C1022 C1030 1.574 1_565 S
C1022 C1038 1.368 . S
H1023 C1031 0.950 . S
H1024 C1029 0.950 . S
H1025 C1030 0.949 . S
H1026 C1032 0.950 . S
H1027 C1033 0.950 . S
H1028 C1034 0.949 . S
C1029 H1024 0.950 . S
C1029 C1031 1.327 . S
C1029 C1035 1.429 . S
C1030 C1022 1.574 1_545 S
C1030 H1025 0.949 . S
C1030 C1036 1.368 . S
C1031 C1015 1.349 . S
C1031 H1023 0.950 . S
C1031 C1029 1.327 . S
C1032 C1020 1.349 . S
C1032 H1026 0.950 . S
C1032 C1033 1.327 . S
C1033 H1027 0.950 . S
C1033 C1032 1.327 . S
C1033 C1037 1.429 . S
C1034 C1017 1.615 . S
C1034 H1028 0.949 . S
C1034 C1038 1.368 . S
C1035 C1016 1.429 . S
C1035 C1029 1.429 . S
C1035 C1036 1.523 . S
C1036 C1017 1.361 1_545 S
C1036 C1030 1.368 . S
C1036 C1035 1.523 . S
C1037 C1021 1.429 . S
C1037 C1033 1.429 . S
C1037 C1038 1.523 . S
C1038 C1022 1.368 . S
C1038 C1034 1.368 . S
C1038 C1037 1.523 . S
H1039 C1014 0.950 . S
H1040 C1016 0.950 . S
H1041 C1017 0.920 1_545 S
H1042 C1019 0.950 . S
H1043 C1021 0.950 . S
C1044 C1045 1.349 . S
C1044 C1046 1.327 . S
C1044 H1069 0.950 . S
C1045 C1044 1.349 . S
C1045 C1061 1.349 . S
C1046 C1044 1.327 . S
C1046 C1065 1.429 . S
C1046 H1070 0.950 . S
C1047 C1064 1.574 . S
C1047 C1066 1.368 . S
C1047 H1071 0.949 . S
H1048 C1052 0.949 . S
C1049 C1050 1.349 . S
C1049 C1051 1.327 . S
C1049 H1072 0.950 . S
C1050 C1049 1.349 . S
C1050 C1062 1.349 . S
C1051 C1049 1.327 . S
C1051 C1067 1.429 . S
C1051 H1073 0.950 . S
C1052 H1048 0.949 . S
C1052 C1060 1.574 . S
C1052 C1068 1.368 . S
H1053 C1061 0.950 . S
H1054 C1059 0.950 . S
H1055 C1060 0.949 . S
H1056 C1062 0.950 . S
H1057 C1063 0.950 . S
H1058 C1064 0.949 . S
C1059 H1054 0.950 . S
C1059 C1061 1.327 . S
C1059 C1065 1.429 . S
C1060 C1052 1.574 . S
C1060 H1055 0.949 . S
C1060 C1066 1.368 . S
C1061 C1045 1.349 . S
C1061 H1053 0.950 . S
C1061 C1059 1.327 . S
C1062 C1050 1.349 . S
C1062 H1056 0.950 . S
C1062 C1063 1.327 . S
C1063 H1057 0.950 . S
C1063 C1062 1.327 . S
C1063 C1067 1.429 . S
C1064 C1047 1.574 . S
C1064 H1058 0.949 . S
C1064 C1068 1.368 . S
C1065 C1046 1.429 . S
C1065 C1059 1.429 . S
C1065 C1066 1.523 . S
C1066 C1047 1.368 . S
C1066 C1060 1.368 . S
C1066 C1065 1.523 . S
C1067 C1051 1.429 . S
C1067 C1063 1.429 . S
C1067 C1068 1.523 . S
C1068 C1052 1.368 . S
C1068 C1064 1.368 . S
C1068 C1067 1.523 . S
H1069 C1044 0.950 . S
H1070 C1046 0.950 . S
H1071 C1047 0.949 . S
H1072 C1049 0.950 . S
H1073 C1051 0.950 . S
C1074 C1075 1.349 . S
C1074 C1076 1.327 . S
C1074 H1099 0.950 . S
C1075 C1074 1.349 . S
C1075 C1091 1.349 . S
C1076 C1074 1.327 . S
C1076 C1095 1.429 . S
C1076 H1100 0.950 . S
C1077 C1094 1.574 . S
C1077 C1096 1.368 . S
C1077 H1101 0.949 . S
H1078 C1082 0.949 . S
C1079 C1080 1.349 . S
C1079 C1081 1.327 . S
C1079 H1102 0.950 . S
C1080 C1079 1.349 . S
C1080 C1092 1.349 . S
C1081 C1079 1.327 . S
C1081 C1097 1.429 . S
C1081 H1103 0.950 . S
C1082 H1078 0.949 . S
C1082 C1090 1.574 . S
C1082 C1098 1.368 . S
H1083 C1091 0.950 . S
H1084 C1089 0.950 . S
H1085 C1090 0.949 . S
H1086 C1092 0.950 . S
H1087 C1093 0.950 . S
H1088 C1094 0.949 . S
C1089 H1084 0.950 . S
C1089 C1091 1.327 . S
C1089 C1095 1.429 . S
C1090 C1082 1.574 . S
C1090 H1085 0.949 . S
C1090 C1096 1.368 . S
C1091 C1075 1.349 . S
C1091 H1083 0.950 . S
C1091 C1089 1.327 . S
C1092 C1080 1.349 . S
C1092 H1086 0.950 . S
C1092 C1093 1.327 . S
C1093 H1087 0.950 . S
C1093 C1092 1.327 . S
C1093 C1097 1.429 . S
C1094 C1077 1.574 . S
C1094 H1088 0.949 . S
C1094 C1098 1.368 . S
C1095 C1076 1.429 . S
C1095 C1089 1.429 . S
C1095 C1096 1.523 . S
C1096 C1077 1.368 . S
C1096 C1090 1.368 . S
C1096 C1095 1.523 . S
C1097 C1081 1.429 . S
C1097 C1093 1.429 . S
C1097 C1098 1.523 . S
C1098 C1082 1.368 . S
C1098 C1094 1.368 . S
C1098 C1097 1.523 . S
H1099 C1074 0.950 . S
H1100 C1076 0.950 . S
H1101 C1077 0.949 . S
H1102 C1079 0.950 . S
H1103 C1081 0.950 . S
C1104 C1105 1.349 . S
C1104 C1106 1.327 . S
C1104 H1129 0.950 . S
C1105 C1104 1.349 . S
C1105 C1121 1.349 . S
C1106 C1104 1.327 . S
C1106 C1125 1.429 . S
C1106 H1130 0.950 . S
C1107 C1124 1.574 . S
C1107 C1126 1.368 . S
C1107 H1131 0.949 . S
H1108 C1112 0.949 . S
C1109 C1110 1.349 . S
C1109 C1111 1.327 . S
C1109 H1132 0.950 . S
C1110 C1109 1.349 . S
C1110 C1122 1.349 . S
C1111 C1109 1.327 . S
C1111 C1127 1.429 . S
C1111 H1133 0.950 . S
C1112 H1108 0.949 . S
C1112 C1120 1.574 . S
C1112 C1128 1.368 . S
H1113 C1121 0.950 . S
H1114 C1119 0.950 . S
H1115 C1120 0.949 . S
H1116 C1122 0.950 . S
H1117 C1123 0.950 . S
H1118 C1124 0.949 . S
C1119 H1114 0.950 . S
C1119 C1121 1.327 . S
C1119 C1125 1.429 . S
C1120 C1112 1.574 . S
C1120 H1115 0.949 . S
C1120 C1126 1.368 . S
C1121 C1105 1.349 . S
C1121 H1113 0.950 . S
C1121 C1119 1.327 . S
C1122 C1110 1.349 . S
C1122 H1116 0.950 . S
C1122 C1123 1.327 . S
C1123 H1117 0.950 . S
C1123 C1122 1.327 . S
C1123 C1127 1.429 . S
C1124 C1107 1.574 . S
C1124 H1118 0.949 . S
C1124 C1128 1.368 . S
C1125 C1106 1.429 . S
C1125 C1119 1.429 . S
C1125 C1126 1.523 . S
C1126 C1107 1.368 . S
C1126 C1120 1.368 . S
C1126 C1125 1.523 . S
C1127 C1111 1.429 . S
C1127 C1123 1.429 . S
C1127 C1128 1.523 . S
C1128 C1112 1.368 . S
C1128 C1124 1.368 . S
C1128 C1127 1.523 . S
H1129 C1104 0.950 . S
H1130 C1106 0.950 . S
H1131 C1107 0.949 . S
H1132 C1109 0.950 . S
H1133 C1111 0.950 . S
C1134 C1135 1.349 . S
C1134 C1136 1.327 . S
C1134 H1159 0.950 . S
C1135 C1134 1.349 . S
C1135 C1151 1.349 . S
C1136 C1134 1.327 . S
C1136 C1155 1.429 . S
C1136 H1160 0.950 . S
C1137 C1154 1.574 . S
C1137 C1156 1.368 . S
C1137 H1161 0.949 . S
H1138 C1142 0.949 . S
C1139 C1140 1.349 . S
C1139 C1141 1.327 . S
C1139 H1162 0.950 . S
C1140 C1139 1.349 . S
C1140 C1152 1.349 . S
C1141 C1139 1.327 . S
C1141 C1157 1.429 . S
C1141 H1163 0.950 . S
C1142 H1138 0.949 . S
C1142 C1150 1.574 . S
C1142 C1158 1.368 . S
H1143 C1151 0.950 . S
H1144 C1149 0.950 . S
H1145 C1150 0.949 . S
H1146 C1152 0.950 . S
H1147 C1153 0.950 . S
H1148 C1154 0.949 . S
C1149 H1144 0.950 . S
C1149 C1151 1.327 . S
C1149 C1155 1.429 . S
C1150 C1142 1.574 . S
C1150 H1145 0.949 . S
C1150 C1156 1.368 . S
C1151 C1135 1.349 . S
C1151 H1143 0.950 . S
C1151 C1149 1.327 . S
C1152 C1140 1.349 . S
C1152 H1146 0.950 . S
C1152 C1153 1.327 . S
C1153 H1147 0.950 . S
C1153 C1152 1.327 . S
C1153 C1157 1.429 . S
C1154 C1137 1.574 . S
C1154 H1148 0.949 . S
C1154 C1158 1.368 . S
C1155 C1136 1.429 . S
C1155 C1149 1.429 . S
C1155 C1156 1.523 . S
C1156 C1137 1.368 . S
C1156 C1150 1.368 . S
C1156 C1155 1.523 . S
C1157 C1141 1.429 . S
C1157 C1153 1.429 . S
C1157 C1158 1.523 . S
C1158 C1142 1.368 . S
C1158 C1154 1.368 . S
C1158 C1157 1.523 . S
H1159 C1134 0.950 . S
H1160 C1136 0.950 . S
H1161 C1137 0.949 . S
H1162 C1139 0.950 . S
H1163 C1141 0.950 . S
C1164 C1165 1.349 . S
C1164 C1166 1.327 . S
C1164 H1189 0.950 . S
C1165 C1164 1.349 . S
C1165 C1181 1.349 . S
C1166 C1164 1.327 . S
C1166 C1185 1.429 . S
C1166 H1190 0.950 . S
C1167 C1184 1.574 . S
C1167 C1186 1.368 . S
C1167 H1191 0.949 . S
H1168 C1172 0.949 . S
C1169 C1170 1.349 . S
C1169 C1171 1.327 . S
C1169 H1192 0.950 . S
C1170 C1169 1.349 . S
C1170 C1182 1.349 . S
C1171 C1169 1.327 . S
C1171 C1187 1.429 . S
C1171 H1193 0.950 . S
C1172 H1168 0.949 . S
C1172 C1180 1.574 . S
C1172 C1188 1.368 . S
H1173 C1181 0.950 . S
H1174 C1179 0.950 . S
H1175 C1180 0.949 . S
H1176 C1182 0.950 . S
H1177 C1183 0.950 . S
H1178 C1184 0.949 . S
C1179 H1174 0.950 . S
C1179 C1181 1.327 . S
C1179 C1185 1.429 . S
C1180 C1172 1.574 . S
C1180 H1175 0.949 . S
C1180 C1186 1.368 . S
C1181 C1165 1.349 . S
C1181 H1173 0.950 . S
C1181 C1179 1.327 . S
C1182 C1170 1.349 . S
C1182 H1176 0.950 . S
C1182 C1183 1.327 . S
C1183 H1177 0.950 . S
C1183 C1182 1.327 . S
C1183 C1187 1.429 . S
C1184 C1167 1.574 . S
C1184 H1178 0.949 . S
C1184 C1188 1.368 . S
C1185 C1166 1.429 . S
C1185 C1179 1.429 . S
C1185 C1186 1.523 . S
C1186 C1167 1.368 . S
C1186 C1180 1.368 . S
C1186 C1185 1.523 . S
C1187 C1171 1.429 . S
C1187 C1183 1.429 . S
C1187 C1188 1.523 . S
C1188 C1172 1.368 . S
C1188 C1184 1.368 . S
C1188 C1187 1.523 . S
H1189 C1164 0.950 . S
H1190 C1166 0.950 . S
H1191 C1167 0.949 . S
H1192 C1169 0.950 . S
H1193 C1171 0.950 . S
C1194 C1195 1.349 . S
C1194 C1196 1.327 . S
C1194 H1219 0.950 . S
C1195 C1194 1.349 . S
C1195 C1211 1.349 . S
C1196 C1194 1.327 . S
C1196 C1215 1.429 . S
C1196 H1220 0.950 . S
C1197 C1214 1.574 . S
C1197 C1216 1.368 . S
C1197 H1221 0.949 . S
H1198 C1202 0.949 . S
C1199 C1200 1.349 . S
C1199 C1201 1.327 . S
C1199 H1222 0.950 . S
C1200 C1199 1.349 . S
C1200 C1212 1.349 . S
C1201 C1199 1.327 . S
C1201 C1217 1.429 . S
C1201 H1223 0.950 . S
C1202 H1198 0.949 . S
C1202 C1210 1.574 . S
C1202 C1218 1.368 . S
H1203 C1211 0.950 . S
H1204 C1209 0.950 . S
H1205 C1210 0.949 . S
H1206 C1212 0.950 . S
H1207 C1213 0.950 . S
H1208 C1214 0.949 . S
C1209 H1204 0.950 . S
C1209 C1211 1.327 . S
C1209 C1215 1.429 . S
C1210 C1202 1.574 . S
C1210 H1205 0.949 . S
C1210 C1216 1.368 . S
C1211 C1195 1.349 . S
C1211 H1203 0.950 . S
C1211 C1209 1.327 . S
C1212 C1200 1.349 . S
C1212 H1206 0.950 . S
C1212 C1213 1.327 . S
C1213 H1207 0.950 . S
C1213 C1212 1.327 . S
C1213 C1217 1.429 . S
C1214 C1197 1.574 . S
C1214 H1208 0.949 . S
C1214 C1218 1.368 . S
C1215 C1196 1.429 . S
C1215 C1209 1.429 . S
C1215 C1216 1.523 . S
C1216 C1197 1.368 . S
C1216 C1210 1.368 . S
C1216 C1215 1.523 . S
C1217 C1201 1.429 . S
C1217 C1213 1.429 . S
C1217 C1218 1.523 . S
C1218 C1202 1.368 . S
C1218 C1214 1.368 . S
C1218 C1217 1.523 . S
H1219 C1194 0.950 . S
H1220 C1196 0.950 . S
H1221 C1197 0.949 . S
H1222 C1199 0.950 . S
H1223 C1201 0.950 . S
C1224 C1225 1.349 . S
C1224 C1226 1.327 . S
C1224 H1249 0.950 . S
C1225 C1224 1.349 . S
C1225 C1241 1.349 . S
C1226 C1224 1.327 . S
C1226 C1245 1.429 . S
C1226 H1250 0.950 . S
C1227 C1244 1.574 1_545 S
C1227 C1246 1.368 . S
C1227 H1251 0.949 . S
H1228 C1232 0.949 . S
C1229 C1230 1.349 . S
C1229 C1231 1.327 . S
C1229 H1252 0.950 . S
C1230 C1229 1.349 . S
C1230 C1242 1.349 . S
C1231 C1229 1.327 . S
C1231 C1247 1.429 . S
C1231 H1253 0.950 . S
C1232 H1228 0.949 . S
C1232 C1240 1.574 1_565 S
C1232 C1248 1.368 . S
H1233 C1241 0.950 . S
H1234 C1239 0.950 . S
H1235 C1240 0.949 . S
H1236 C1242 0.950 . S
H1237 C1243 0.950 . S
H1238 C1244 0.949 . S
C1239 H1234 0.950 . S
C1239 C1241 1.327 . S
C1239 C1245 1.429 . S
C1240 C1232 1.574 1_545 S
C1240 H1235 0.949 . S
C1240 C1246 1.368 . S
C1241 C1225 1.349 . S
C1241 H1233 0.950 . S
C1241 C1239 1.327 . S
C1242 C1230 1.349 . S
C1242 H1236 0.950 . S
C1242 C1243 1.327 . S
C1243 H1237 0.950 . S
C1243 C1242 1.327 . S
C1243 C1247 1.429 . S
C1244 C1227 1.574 1_565 S
C1244 H1238 0.949 . S
C1244 C1248 1.368 . S
C1245 C1226 1.429 . S
C1245 C1239 1.429 . S
C1245 C1246 1.523 . S
C1246 C1227 1.368 . S
C1246 C1240 1.368 . S
C1246 C1245 1.523 . S
C1247 C1231 1.429 . S
C1247 C1243 1.429 . S
C1247 C1248 1.523 . S
C1248 C1232 1.368 . S
C1248 C1244 1.368 . S
C1248 C1247 1.523 . S
H1249 C1224 0.950 . S
H1250 C1226 0.950 . S
H1251 C1227 0.949 . S
H1252 C1229 0.950 . S
H1253 C1231 0.950 . S
C1254 C1255 1.349 . S
C1254 C1256 1.327 . S
C1254 H1279 0.950 . S
C1255 C1254 1.349 . S
C1255 C1271 1.349 . S
C1256 C1254 1.327 . S
C1256 C1275 1.429 . S
C1256 H1280 0.950 . S
C1257 C1274 1.574 . S
C1257 C1276 1.368 1_455 S
C1257 H1281 0.949 . S
H1258 C1262 0.949 . S
C1259 C1260 1.349 . S
C1259 C1261 1.327 . S
C1259 H1282 0.950 . S
C1260 C1259 1.349 . S
C1260 C1272 1.349 . S
C1261 C1259 1.327 . S
C1261 C1277 1.429 . S
C1261 H1283 0.950 . S
C1262 H1258 0.949 . S
C1262 C1270 1.574 1_455 S
C1262 C1278 1.368 . S
H1263 C1271 0.950 . S
H1264 C1269 0.950 . S
H1265 C1270 0.949 . S
H1266 C1272 0.950 . S
H1267 C1273 0.950 . S
H1268 C1274 0.949 . S
C1269 H1264 0.950 . S
C1269 C1271 1.327 . S
C1269 C1275 1.429 . S
C1270 C1262 1.574 1_655 S
C1270 H1265 0.949 . S
C1270 C1276 1.368 . S
C1271 C1255 1.349 . S
C1271 H1263 0.950 . S
C1271 C1269 1.327 . S
C1272 C1260 1.349 . S
C1272 H1266 0.950 . S
C1272 C1273 1.327 . S
C1273 H1267 0.950 . S
C1273 C1272 1.327 . S
C1273 C1277 1.429 . S
C1274 C1257 1.574 . S
C1274 H1268 0.949 . S
C1274 C1278 1.368 . S
C1275 C1256 1.429 . S
C1275 C1269 1.429 . S
C1275 C1276 1.523 . S
C1276 C1257 1.368 1_655 S
C1276 C1270 1.368 . S
C1276 C1275 1.523 . S
C1277 C1261 1.429 . S
C1277 C1273 1.429 . S
C1277 C1278 1.523 . S
C1278 C1262 1.368 . S
C1278 C1274 1.368 . S
C1278 C1277 1.523 . S
H1279 C1254 0.950 . S
H1280 C1256 0.950 . S
H1281 C1257 0.949 . S
H1282 C1259 0.950 . S
H1283 C1261 0.950 . S
C1284 C1285 1.349 . S
C1284 C1286 1.327 . S
C1284 H1309 0.950 . S
C1285 C1284 1.349 . S
C1285 C1301 1.349 . S
C1286 C1284 1.327 . S
C1286 C1305 1.429 . S
C1286 H1310 0.950 . S
C1287 C1304 1.574 . S
C1287 C1306 1.368 . S
C1287 H1311 0.949 . S
H1288 C1292 0.949 . S
C1289 C1290 1.349 . S
C1289 C1291 1.327 . S
C1289 H1312 0.950 . S
C1290 C1289 1.349 . S
C1290 C1302 1.349 . S
C1291 C1289 1.327 . S
C1291 C1307 1.429 . S
C1291 H1313 0.950 . S
C1292 H1288 0.949 . S
C1292 C1300 1.574 . S
C1292 C1308 1.368 . S
H1293 C1301 0.950 . S
H1294 C1299 0.950 . S
H1295 C1300 0.949 . S
H1296 C1302 0.950 . S
H1297 C1303 0.950 . S
H1298 C1304 0.949 . S
C1299 H1294 0.950 . S
C1299 C1301 1.327 . S
C1299 C1305 1.429 . S
C1300 C1292 1.574 . S
C1300 H1295 0.949 . S
C1300 C1306 1.368 . S
C1301 C1285 1.349 . S
C1301 H1293 0.950 . S
C1301 C1299 1.327 . S
C1302 C1290 1.349 . S
C1302 H1296 0.950 . S
C1302 C1303 1.327 . S
C1303 H1297 0.950 . S
C1303 C1302 1.327 . S
C1303 C1307 1.429 . S
C1304 C1287 1.574 . S
C1304 H1298 0.949 . S
C1304 C1308 1.368 . S
C1305 C1286 1.429 . S
C1305 C1299 1.429 . S
C1305 C1306 1.523 . S
C1306 C1287 1.368 . S
C1306 C1300 1.368 . S
C1306 C1305 1.523 . S
C1307 C1291 1.429 . S
C1307 C1303 1.429 . S
C1307 C1308 1.523 . S
C1308 C1292 1.368 . S
C1308 C1304 1.368 . S
C1308 C1307 1.523 . S
H1309 C1284 0.950 . S
H1310 C1286 0.950 . S
H1311 C1287 0.949 . S
H1312 C1289 0.950 . S
H1313 C1291 0.950 . S
C1314 C1315 1.349 . S
C1314 C1316 1.327 . S
C1314 H1339 0.950 . S
C1315 C1314 1.349 . S
C1315 C1331 1.349 . S
C1316 C1314 1.327 . S
C1316 C1335 1.429 . S
C1316 H1340 0.950 . S
C1317 C1334 1.574 . S
C1317 C1336 1.368 . S
C1317 H1341 0.949 . S
H1318 C1322 0.949 . S
C1319 C1320 1.349 . S
C1319 C1321 1.327 . S
C1319 H1342 0.950 . S
C1320 C1319 1.349 . S
C1320 C1332 1.349 . S
C1321 C1319 1.327 . S
C1321 C1337 1.429 . S
C1321 H1343 0.950 . S
C1322 H1318 0.949 . S
C1322 C1330 1.574 . S
C1322 C1338 1.368 . S
H1323 C1331 0.950 . S
H1324 C1329 0.950 . S
H1325 C1330 0.949 . S
H1326 C1332 0.950 . S
H1327 C1333 0.950 . S
H1328 C1334 0.949 . S
C1329 H1324 0.950 . S
C1329 C1331 1.327 . S
C1329 C1335 1.429 . S
C1330 C1322 1.574 . S
C1330 H1325 0.949 . S
C1330 C1336 1.368 . S
C1331 C1315 1.349 . S
C1331 H1323 0.950 . S
C1331 C1329 1.327 . S
C1332 C1320 1.349 . S
C1332 H1326 0.950 . S
C1332 C1333 1.327 . S
C1333 H1327 0.950 . S
C1333 C1332 1.327 . S
C1333 C1337 1.429 . S
C1334 C1317 1.574 . S
C1334 H1328 0.949 . S
C1334 C1338 1.368 . S
C1335 C1316 1.429 . S
C1335 C1329 1.429 . S
C1335 C1336 1.523 . S
C1336 C1317 1.368 . S
C1336 C1330 1.368 . S
C1336 C1335 1.523 . S
C1337 C1321 1.429 . S
C1337 C1333 1.429 . S
C1337 C1338 1.523 . S
C1338 C1322 1.368 . S
C1338 C1334 1.368 . S
C1338 C1337 1.523 . S
H1339 C1314 0.950 . S
H1340 C1316 0.950 . S
H1341 C1317 0.949 . S
H1342 C1319 0.950 . S
H1343 C1321 0.950 . S
C1344 C1345 1.349 . S
C1344 C1346 1.327 . S
C1344 H1369 0.950 . S
C1345 C1344 1.349 . S
C1345 C1361 1.349 . S
C1346 C1344 1.327 . S
C1346 C1365 1.429 . S
C1346 H1370 0.950 . S
C1347 C1364 1.574 . S
C1347 C1366 1.368 . S
C1347 H1371 0.949 . S
H1348 C1352 0.949 . S
C1349 C1350 1.349 . S
C1349 C1351 1.327 . S
C1349 H1372 0.950 . S
C1350 C1349 1.349 . S
C1350 C1362 1.349 . S
C1351 C1349 1.327 . S
C1351 C1367 1.429 . S
C1351 H1373 0.950 . S
C1352 H1348 0.949 . S
C1352 C1360 1.574 . S
C1352 C1368 1.368 . S
H1353 C1361 0.950 . S
H1354 C1359 0.950 . S
H1355 C1360 0.949 . S
H1356 C1362 0.950 . S
H1357 C1363 0.950 . S
H1358 C1364 0.949 . S
C1359 H1354 0.950 . S
C1359 C1361 1.327 . S
C1359 C1365 1.429 . S
C1360 C1352 1.574 . S
C1360 H1355 0.949 . S
C1360 C1366 1.368 . S
C1361 C1345 1.349 . S
C1361 H1353 0.950 . S
C1361 C1359 1.327 . S
C1362 C1350 1.349 . S
C1362 H1356 0.950 . S
C1362 C1363 1.327 . S
C1363 H1357 0.950 . S
C1363 C1362 1.327 . S
C1363 C1367 1.429 . S
C1364 C1347 1.574 . S
C1364 H1358 0.949 . S
C1364 C1368 1.368 . S
C1365 C1346 1.429 . S
C1365 C1359 1.429 . S
C1365 C1366 1.523 . S
C1366 C1347 1.368 . S
C1366 C1360 1.368 . S
C1366 C1365 1.523 . S
C1367 C1351 1.429 . S
C1367 C1363 1.429 . S
C1367 C1368 1.523 . S
C1368 C1352 1.368 . S
C1368 C1364 1.368 . S
C1368 C1367 1.523 . S
H1369 C1344 0.950 . S
H1370 C1346 0.950 . S
H1371 C1347 0.949 . S
H1372 C1349 0.950 . S
H1373 C1351 0.950 . S
C1374 C1375 1.349 . S
C1374 C1376 1.327 . S
C1374 H1399 0.950 . S
C1375 C1374 1.349 . S
C1375 C1391 1.349 . S
C1376 C1374 1.327 . S
C1376 C1395 1.429 . S
C1376 H1400 0.950 . S
C1377 C1394 1.574 . S
C1377 C1396 1.368 . S
C1377 H1401 0.949 . S
H1378 C1382 0.949 . S
C1379 C1380 1.349 . S
C1379 C1381 1.327 . S
C1379 H1402 0.950 . S
C1380 C1379 1.349 . S
C1380 C1392 1.349 . S
C1381 C1379 1.327 . S
C1381 C1397 1.429 . S
C1381 H1403 0.950 . S
C1382 H1378 0.949 . S
C1382 C1390 1.574 . S
C1382 C1398 1.368 . S
H1383 C1391 0.950 . S
H1384 C1389 0.950 . S
H1385 C1390 0.949 . S
H1386 C1392 0.950 . S
H1387 C1393 0.950 . S
H1388 C1394 0.949 . S
C1389 H1384 0.950 . S
C1389 C1391 1.327 . S
C1389 C1395 1.429 . S
C1390 C1382 1.574 . S
C1390 H1385 0.949 . S
C1390 C1396 1.368 . S
C1391 C1375 1.349 . S
C1391 H1383 0.950 . S
C1391 C1389 1.327 . S
C1392 C1380 1.349 . S
C1392 H1386 0.950 . S
C1392 C1393 1.327 . S
C1393 H1387 0.950 . S
C1393 C1392 1.327 . S
C1393 C1397 1.429 . S
C1394 C1377 1.574 . S
C1394 H1388 0.949 . S
C1394 C1398 1.368 . S
C1395 C1376 1.429 . S
C1395 C1389 1.429 . S
C1395 C1396 1.523 . S
C1396 C1377 1.368 . S
C1396 C1390 1.368 . S
C1396 C1395 1.523 . S
C1397 C1381 1.429 . S
C1397 C1393 1.429 . S
C1397 C1398 1.523 . S
C1398 C1382 1.368 . S
C1398 C1394 1.368 . S
C1398 C1397 1.523 . S
H1399 C1374 0.950 . S
H1400 C1376 0.950 . S
H1401 C1377 0.949 . S
H1402 C1379 0.950 . S
H1403 C1381 0.950 . S
C1404 C1405 1.349 . S
C1404 C1406 1.327 . S
C1404 H1429 0.950 . S
C1405 C1404 1.349 . S
C1405 C1421 1.349 . S
C1406 C1404 1.327 . S
C1406 C1425 1.429 . S
C1406 H1430 0.950 . S
C1407 C1424 1.574 . S
C1407 C1426 1.368 1_545 S
C1407 H1431 0.949 . S
H1408 C1412 0.949 . S
C1409 C1410 1.349 . S
C1409 C1411 1.327 . S
C1409 H1432 0.950 . S
C1410 C1409 1.349 . S
C1410 C1422 1.349 . S
C1411 C1409 1.327 . S
C1411 C1427 1.429 . S
C1411 H1433 0.950 . S
C1412 H1408 0.949 . S
C1412 C1420 1.574 . S
C1412 C1428 1.368 . S
H1413 C1421 0.950 . S
H1414 C1419 0.950 . S
H1415 C1420 0.949 1_565 S
H1416 C1422 0.950 . S
H1417 C1423 0.950 . S
H1418 C1424 0.949 . S
C1419 H1414 0.950 . S
C1419 C1421 1.327 . S
C1419 C1425 1.429 . S
C1420 C1412 1.574 . S
C1420 H1415 0.949 1_545 S
C1420 C1426 1.368 1_545 S
C1421 C1405 1.349 . S
C1421 H1413 0.950 . S
C1421 C1419 1.327 . S
C1422 C1410 1.349 . S
C1422 H1416 0.950 . S
C1422 C1423 1.327 . S
C1423 H1417 0.950 . S
C1423 C1422 1.327 . S
C1423 C1427 1.429 . S
C1424 C1407 1.574 . S
C1424 H1418 0.949 . S
C1424 C1428 1.368 . S
C1425 C1406 1.429 . S
C1425 C1419 1.429 . S
C1425 C1426 1.523 . S
C1426 C1407 1.368 1_565 S
C1426 C1420 1.368 1_565 S
C1426 C1425 1.523 . S
C1427 C1411 1.429 . S
C1427 C1423 1.429 . S
C1427 C1428 1.523 . S
C1428 C1412 1.368 . S
C1428 C1424 1.368 . S
C1428 C1427 1.523 . S
H1429 C1404 0.950 . S
H1430 C1406 0.950 . S
H1431 C1407 0.949 . S
H1432 C1409 0.950 . S
H1433 C1411 0.950 . S
C1434 C1435 1.349 . S
C1434 C1436 1.327 . S
C1434 H1459 0.950 . S
C1435 C1434 1.349 . S
C1435 C1451 1.349 . S
C1436 C1434 1.327 . S
C1436 C1455 1.429 . S
C1436 H1460 0.950 . S
C1437 C1454 1.574 . S
C1437 C1456 1.368 . S
C1437 H1461 0.949 . S
H1438 C1442 0.949 . S
C1439 C1440 1.349 . S
C1439 C1441 1.327 . S
C1439 H1462 0.950 . S
C1440 C1439 1.349 . S
C1440 C1452 1.349 . S
C1441 C1439 1.327 . S
C1441 C1457 1.429 . S
C1441 H1463 0.950 . S
C1442 H1438 0.949 . S
C1442 C1450 1.574 . S
C1442 C1458 1.368 . S
H1443 C1451 0.950 . S
H1444 C1449 0.950 . S
H1445 C1450 0.949 1_455 S
H1446 C1452 0.950 . S
H1447 C1453 0.950 . S
H1448 C1454 0.949 . S
C1449 H1444 0.950 . S
C1449 C1451 1.327 . S
C1449 C1455 1.429 . S
C1450 C1442 1.574 . S
C1450 H1445 0.949 1_655 S
C1450 C1456 1.368 . S
C1451 C1435 1.349 . S
C1451 H1443 0.950 . S
C1451 C1449 1.327 . S
C1452 C1440 1.349 . S
C1452 H1446 0.950 . S
C1452 C1453 1.327 . S
C1453 H1447 0.950 . S
C1453 C1452 1.327 . S
C1453 C1457 1.429 . S
C1454 C1437 1.574 . S
C1454 H1448 0.949 . S
C1454 C1458 1.368 . S
C1455 C1436 1.429 . S
C1455 C1449 1.429 . S
C1455 C1456 1.523 1_455 S
C1456 C1437 1.368 . S
C1456 C1450 1.368 . S
C1456 C1455 1.523 1_655 S
C1457 C1441 1.429 . S
C1457 C1453 1.429 . S
C1457 C1458 1.523 . S
C1458 C1442 1.368 . S
C1458 C1454 1.368 . S
C1458 C1457 1.523 . S
H1459 C1434 0.950 . S
H1460 C1436 0.950 . S
H1461 C1437 0.949 . S
H1462 C1439 0.950 . S
H1463 C1441 0.950 . S
C1464 C1465 1.349 . S
C1464 C1466 1.327 . S
C1464 H1489 0.950 . S
C1465 C1464 1.349 . S
C1465 C1481 1.349 . S
C1466 C1464 1.327 . S
C1466 C1485 1.429 . S
C1466 H1490 0.950 . S
C1467 C1484 1.574 . S
C1467 C1486 1.368 . S
C1467 H1491 0.949 . S
H1468 C1472 0.949 . S
C1469 C1470 1.349 . S
C1469 C1471 1.327 . S
C1469 H1492 0.950 . S
C1470 C1469 1.349 . S
C1470 C1482 1.349 . S
C1471 C1469 1.327 . S
C1471 C1487 1.429 . S
C1471 H1493 0.950 . S
C1472 H1468 0.949 . S
C1472 C1480 1.574 . S
C1472 C1488 1.368 . S
H1473 C1481 0.950 . S
H1474 C1479 0.950 . S
H1475 C1480 0.949 . S
H1476 C1482 0.950 . S
H1477 C1483 0.950 . S
H1478 C1484 0.949 . S
C1479 H1474 0.950 . S
C1479 C1481 1.327 . S
C1479 C1485 1.429 . S
C1480 C1472 1.574 . S
C1480 H1475 0.949 . S
C1480 C1486 1.368 . S
C1481 C1465 1.349 . S
C1481 H1473 0.950 . S
C1481 C1479 1.327 . S
C1482 C1470 1.349 . S
C1482 H1476 0.950 . S
C1482 C1483 1.327 . S
C1483 H1477 0.950 . S
C1483 C1482 1.327 . S
C1483 C1487 1.429 . S
C1484 C1467 1.574 . S
C1484 H1478 0.949 . S
C1484 C1488 1.368 . S
C1485 C1466 1.429 . S
C1485 C1479 1.429 . S
C1485 C1486 1.523 . S
C1486 C1467 1.368 . S
C1486 C1480 1.368 . S
C1486 C1485 1.523 . S
C1487 C1471 1.429 . S
C1487 C1483 1.429 . S
C1487 C1488 1.523 . S
C1488 C1472 1.368 . S
C1488 C1484 1.368 . S
C1488 C1487 1.523 . S
H1489 C1464 0.950 . S
H1490 C1466 0.950 . S
H1491 C1467 0.949 . S
H1492 C1469 0.950 . S
H1493 C1471 0.950 . S
C1494 C1495 1.349 . S
C1494 C1496 1.327 . S
C1494 H1519 0.950 . S
C1495 C1494 1.349 . S
C1495 C1511 1.349 . S
C1496 C1494 1.327 . S
C1496 C1515 1.429 . S
C1496 H1520 0.950 . S
C1497 C1514 1.574 . S
C1497 C1516 1.368 . S
C1497 H1521 0.949 . S
H1498 C1502 0.949 . S
C1499 C1500 1.349 . S
C1499 C1501 1.327 . S
C1499 H1522 0.950 . S
C1500 C1499 1.349 . S
C1500 C1512 1.349 . S
C1501 C1499 1.327 . S
C1501 C1517 1.429 . S
C1501 H1523 0.950 . S
C1502 H1498 0.949 . S
C1502 C1510 1.574 . S
C1502 C1518 1.343 1_455 S
H1503 C1511 0.950 . S
H1504 C1509 0.950 . S
H1505 C1510 0.949 . S
H1506 C1512 0.950 . S
H1507 C1513 0.950 . S
H1508 C1514 0.949 1_655 S
C1509 H1504 0.950 . S
C1509 C1511 1.327 . S
C1509 C1515 1.429 . S
C1510 C1502 1.574 . S
C1510 H1505 0.949 . S
C1510 C1516 1.368 . S
C1511 C1495 1.349 . S
C1511 H1503 0.950 . S
C1511 C1509 1.327 . S
C1512 C1500 1.349 . S
C1512 H1506 0.950 . S
C1512 C1513 1.327 . S
C1513 H1507 0.950 . S
C1513 C1512 1.327 . S
C1513 C1517 1.429 . S
C1514 C1497 1.574 . S
C1514 H1508 0.949 1_455 S
C1514 C1518 1.377 1_455 S
C1515 C1496 1.429 . S
C1515 C1509 1.429 . S
C1515 C1516 1.523 . S
C1516 C1497 1.368 . S
C1516 C1510 1.368 . S
C1516 C1515 1.523 . S
C1517 C1501 1.429 . S
C1517 C1513 1.429 . S
C1517 C1518 1.545 . S
C1518 C1502 1.343 1_655 S
C1518 C1514 1.377 1_655 S
C1518 C1517 1.545 . S
H1519 C1494 0.950 . S
H1520 C1496 0.950 . S
H1521 C1497 0.949 . S
H1522 C1499 0.950 . S
H1523 C1501 0.950 . S
C1524 C1525 1.349 . S
C1524 C1526 1.327 . S
C1524 H1549 0.950 . S
C1525 C1524 1.349 . S
C1525 C1541 1.349 . S
C1526 C1524 1.327 . S
C1526 C1545 1.429 . S
C1526 H1550 0.950 . S
C1527 C1544 1.574 . S
C1527 C1546 1.368 . S
C1527 H1551 0.949 . S
H1528 C1532 0.949 . S
C1529 C1530 1.349 . S
C1529 C1531 1.327 . S
C1529 H1552 0.950 . S
C1530 C1529 1.349 . S
C1530 C1542 1.349 . S
C1531 C1529 1.327 . S
C1531 C1547 1.429 . S
C1531 H1553 0.950 . S
C1532 H1528 0.949 . S
C1532 C1540 1.574 . S
C1532 C1548 1.368 . S
H1533 C1541 0.950 . S
H1534 C1539 0.950 . S
H1535 C1540 0.949 . S
H1536 C1542 0.950 . S
H1537 C1543 0.950 . S
H1538 C1544 0.949 . S
C1539 H1534 0.950 . S
C1539 C1541 1.327 . S
C1539 C1545 1.429 . S
C1540 C1532 1.574 . S
C1540 H1535 0.949 . S
C1540 C1546 1.368 . S
C1541 C1525 1.349 . S
C1541 H1533 0.950 . S
C1541 C1539 1.327 . S
C1542 C1530 1.349 . S
C1542 H1536 0.950 . S
C1542 C1543 1.327 . S
C1543 H1537 0.950 . S
C1543 C1542 1.327 . S
C1543 C1547 1.429 . S
C1544 C1527 1.574 . S
C1544 H1538 0.949 . S
C1544 C1548 1.368 . S
C1545 C1526 1.429 . S
C1545 C1539 1.429 . S
C1545 C1546 1.523 . S
C1546 C1527 1.368 . S
C1546 C1540 1.368 . S
C1546 C1545 1.523 . S
C1547 C1531 1.429 . S
C1547 C1543 1.429 . S
C1547 C1548 1.523 . S
C1548 C1532 1.368 . S
C1548 C1544 1.368 . S
C1548 C1547 1.523 . S
H1549 C1524 0.950 . S
H1550 C1526 0.950 . S
H1551 C1527 0.949 . S
H1552 C1529 0.950 . S
H1553 C1531 0.950 . S
C1554 C1555 1.349 . S
C1554 C1556 1.327 . S
C1554 H1579 0.950 . S
C1555 C1554 1.349 . S
C1555 C1571 1.349 . S
C1556 C1554 1.327 . S
C1556 C1575 1.429 . S
C1556 H1580 0.950 . S
C1557 C1574 1.574 1_565 S
C1557 C1576 1.368 . S
C1557 H1581 0.949 . S
H1558 C1562 0.949 . S
C1559 C1560 1.349 . S
C1559 C1561 1.327 . S
C1559 H1582 0.950 . S
C1560 C1559 1.349 . S
C1560 C1572 1.349 . S
C1561 C1559 1.327 . S
C1561 C1577 1.429 . S
C1561 H1583 0.950 . S
C1562 H1558 0.949 . S
C1562 C1570 1.574 1_545 S
C1562 C1578 1.368 . S
H1563 C1571 0.950 . S
H1564 C1569 0.950 . S
H1565 C1570 0.949 . S
H1566 C1572 0.950 . S
H1567 C1573 0.950 . S
H1568 C1574 0.949 . S
C1569 H1564 0.950 . S
C1569 C1571 1.327 . S
C1569 C1575 1.429 . S
C1570 C1562 1.574 1_565 S
C1570 H1565 0.949 . S
C1570 C1576 1.368 . S
C1571 C1555 1.349 . S
C1571 H1563 0.950 . S
C1571 C1569 1.327 . S
C1572 C1560 1.349 . S
C1572 H1566 0.950 . S
C1572 C1573 1.327 . S
C1573 H1567 0.950 . S
C1573 C1572 1.327 . S
C1573 C1577 1.429 . S
C1574 C1557 1.574 1_545 S
C1574 H1568 0.949 . S
C1574 C1578 1.368 . S
C1575 C1556 1.429 . S
C1575 C1569 1.429 . S
C1575 C1576 1.523 . S
C1576 C1557 1.368 . S
C1576 C1570 1.368 . S
C1576 C1575 1.523 . S
C1577 C1561 1.429 . S
C1577 C1573 1.429 . S
C1577 C1578 1.523 . S
C1578 C1562 1.368 . S
C1578 C1574 1.368 . S
C1578 C1577 1.523 . S
H1579 C1554 0.950 . S
H1580 C1556 0.950 . S
H1581 C1557 0.949 . S
H1582 C1559 0.950 . S
H1583 C1561 0.950 . S
C1584 C1585 1.349 . S
C1584 C1586 1.327 . S
C1584 H1609 0.950 . S
C1585 C1584 1.349 . S
C1585 C1601 1.349 . S
C1586 C1584 1.327 . S
C1586 C1605 1.429 . S
C1586 H1610 0.950 . S
C1587 C1604 1.574 . S
C1587 C1606 1.368 . S
C1587 H1611 0.949 . S
H1588 C1592 0.949 . S
C1589 C1590 1.349 . S
C1589 C1591 1.327 . S
C1589 H1612 0.950 . S
C1590 C1589 1.349 . S
C1590 C1602 1.349 . S
C1591 C1589 1.327 . S
C1591 C1607 1.429 . S
C1591 H1613 0.950 . S
C1592 H1588 0.949 . S
C1592 C1600 1.574 . S
C1592 C1608 1.368 . S
H1593 C1601 0.950 . S
H1594 C1599 0.950 . S
H1595 C1600 0.949 . S
H1596 C1602 0.950 . S
H1597 C1603 0.950 . S
H1598 C1604 0.949 . S
C1599 H1594 0.950 . S
C1599 C1601 1.327 . S
C1599 C1605 1.429 . S
C1600 C1592 1.574 . S
C1600 H1595 0.949 . S
C1600 C1606 1.368 . S
C1601 C1585 1.349 . S
C1601 H1593 0.950 . S
C1601 C1599 1.327 . S
C1602 C1590 1.349 . S
C1602 H1596 0.950 . S
C1602 C1603 1.327 . S
C1603 H1597 0.950 . S
C1603 C1602 1.327 . S
C1603 C1607 1.429 . S
C1604 C1587 1.574 . S
C1604 H1598 0.949 . S
C1604 C1608 1.368 . S
C1605 C1586 1.429 . S
C1605 C1599 1.429 . S
C1605 C1606 1.523 . S
C1606 C1587 1.368 . S
C1606 C1600 1.368 . S
C1606 C1605 1.523 . S
C1607 C1591 1.429 . S
C1607 C1603 1.429 . S
C1607 C1608 1.523 . S
C1608 C1592 1.368 . S
C1608 C1604 1.368 . S
C1608 C1607 1.523 . S
H1609 C1584 0.950 . S
H1610 C1586 0.950 . S
H1611 C1587 0.949 . S
H1612 C1589 0.950 . S
H1613 C1591 0.950 . S
C1614 C1615 1.349 . S
C1614 C1616 1.327 . S
C1614 H1639 0.950 . S
C1615 C1614 1.349 . S
C1615 C1631 1.349 . S
C1616 C1614 1.327 . S
C1616 C1635 1.429 . S
C1616 H1640 0.950 . S
C1617 C1634 1.574 . S
C1617 C1636 1.368 . S
C1617 H1641 0.949 . S
H1618 C1622 0.949 . S
C1619 C1620 1.349 . S
C1619 C1621 1.327 . S
C1619 H1642 0.950 . S
C1620 C1619 1.349 . S
C1620 C1632 1.349 . S
C1621 C1619 1.327 . S
C1621 C1637 1.429 . S
C1621 H1643 0.950 . S
C1622 H1618 0.949 . S
C1622 C1630 1.574 . S
C1622 C1638 1.368 . S
H1623 C1631 0.950 . S
H1624 C1629 0.950 . S
H1625 C1630 0.949 . S
H1626 C1632 0.950 . S
H1627 C1633 0.950 . S
H1628 C1634 0.949 . S
C1629 H1624 0.950 . S
C1629 C1631 1.327 . S
C1629 C1635 1.429 . S
C1630 C1622 1.574 . S
C1630 H1625 0.949 . S
C1630 C1636 1.368 . S
C1631 C1615 1.349 . S
C1631 H1623 0.950 . S
C1631 C1629 1.327 . S
C1632 C1620 1.349 . S
C1632 H1626 0.950 . S
C1632 C1633 1.327 . S
C1633 H1627 0.950 . S
C1633 C1632 1.327 . S
C1633 C1637 1.429 . S
C1634 C1617 1.574 . S
C1634 H1628 0.949 . S
C1634 C1638 1.368 . S
C1635 C1616 1.429 . S
C1635 C1629 1.429 . S
C1635 C1636 1.523 . S
C1636 C1617 1.368 . S
C1636 C1630 1.368 . S
C1636 C1635 1.523 . S
C1637 C1621 1.429 . S
C1637 C1633 1.429 . S
C1637 C1638 1.523 . S
C1638 C1622 1.368 . S
C1638 C1634 1.368 . S
C1638 C1637 1.523 . S
H1639 C1614 0.950 . S
H1640 C1616 0.950 . S
H1641 C1617 0.949 . S
H1642 C1619 0.950 . S
H1643 C1621 0.950 . S
C1644 C1645 1.349 . S
C1644 C1646 1.327 . S
C1644 H1669 0.950 . S
C1645 C1644 1.349 . S
C1645 C1661 1.349 . S
C1646 C1644 1.327 . S
C1646 C1665 1.429 . S
C1646 H1670 0.950 . S
C1647 C1664 1.574 . S
C1647 C1666 1.368 . S
C1647 H1671 0.949 . S
H1648 C1652 0.949 . S
C1649 C1650 1.349 . S
C1649 C1651 1.327 . S
C1649 H1672 0.950 . S
C1650 C1649 1.349 . S
C1650 C1662 1.349 . S
C1651 C1649 1.327 . S
C1651 C1667 1.429 . S
C1651 H1673 0.950 . S
C1652 H1648 0.949 . S
C1652 C1660 1.574 . S
C1652 C1668 1.368 . S
H1653 C1661 0.950 . S
H1654 C1659 0.950 . S
H1655 C1660 0.949 . S
H1656 C1662 0.950 . S
H1657 C1663 0.950 . S
H1658 C1664 0.949 . S
C1659 H1654 0.950 . S
C1659 C1661 1.327 . S
C1659 C1665 1.429 . S
C1660 C1652 1.574 . S
C1660 H1655 0.949 . S
C1660 C1666 1.368 . S
C1661 C1645 1.349 . S
C1661 H1653 0.950 . S
C1661 C1659 1.327 . S
C1662 C1650 1.349 . S
C1662 H1656 0.950 . S
C1662 C1663 1.327 . S
C1663 H1657 0.950 . S
C1663 C1662 1.327 . S
C1663 C1667 1.429 . S
C1664 C1647 1.574 . S
C1664 H1658 0.949 . S
C1664 C1668 1.368 . S
C1665 C1646 1.429 . S
C1665 C1659 1.429 . S
C1665 C1666 1.523 . S
C1666 C1647 1.368 . S
C1666 C1660 1.368 . S
C1666 C1665 1.523 . S
C1667 C1651 1.429 . S
C1667 C1663 1.429 . S
C1667 C1668 1.523 . S
C1668 C1652 1.368 . S
C1668 C1664 1.368 . S
C1668 C1667 1.523 . S
H1669 C1644 0.950 . S
H1670 C1646 0.950 . S
H1671 C1647 0.949 . S
H1672 C1649 0.950 . S
H1673 C1651 0.950 . S
C1674 C1675 1.349 . S
C1674 C1676 1.327 . S
C1674 H1699 0.950 . S
C1675 C1674 1.349 . S
C1675 C1691 1.349 . S
C1676 C1674 1.327 . S
C1676 C1695 1.429 . S
C1676 H1700 0.950 . S
C1677 C1694 1.574 . S
C1677 C1696 1.368 . S
C1677 H1701 0.949 . S
H1678 C1682 0.949 . S
C1679 C1680 1.349 . S
C1679 C1681 1.327 . S
C1679 H1702 0.950 . S
C1680 C1679 1.349 . S
C1680 C1692 1.349 . S
C1681 C1679 1.327 . S
C1681 C1697 1.429 . S
C1681 H1703 0.950 . S
C1682 H1678 0.949 . S
C1682 C1690 1.574 . S
C1682 C1698 1.368 . S
H1683 C1691 0.950 . S
H1684 C1689 0.950 . S
H1685 C1690 0.949 . S
H1686 C1692 0.950 . S
H1687 C1693 0.950 . S
H1688 C1694 0.949 . S
C1689 H1684 0.950 . S
C1689 C1691 1.327 . S
C1689 C1695 1.429 . S
C1690 C1682 1.574 . S
C1690 H1685 0.949 . S
C1690 C1696 1.368 . S
C1691 C1675 1.349 . S
C1691 H1683 0.950 . S
C1691 C1689 1.327 . S
C1692 C1680 1.349 . S
C1692 H1686 0.950 . S
C1692 C1693 1.327 . S
C1693 H1687 0.950 . S
C1693 C1692 1.327 . S
C1693 C1697 1.429 . S
C1694 C1677 1.574 . S
C1694 H1688 0.949 . S
C1694 C1698 1.368 . S
C1695 C1676 1.429 . S
C1695 C1689 1.429 . S
C1695 C1696 1.523 . S
C1696 C1677 1.368 . S
C1696 C1690 1.368 . S
C1696 C1695 1.523 . S
C1697 C1681 1.429 . S
C1697 C1693 1.429 . S
C1697 C1698 1.523 . S
C1698 C1682 1.368 . S
C1698 C1694 1.368 . S
C1698 C1697 1.523 . S
H1699 C1674 0.950 . S
H1700 C1676 0.950 . S
H1701 C1677 0.949 . S
H1702 C1679 0.950 . S
H1703 C1681 0.950 . S
C1704 C1705 1.349 . S
C1704 C1706 1.327 . S
C1704 H1729 0.950 . S
C1705 C1704 1.349 . S
C1705 C1721 1.349 . S
C1706 C1704 1.327 . S
C1706 C1725 1.429 . S
C1706 H1730 0.950 . S
C1707 C1724 1.574 . S
C1707 C1726 1.368 . S
C1707 H1731 0.949 . S
H1708 C1712 0.949 . S
C1709 C1710 1.349 . S
C1709 C1711 1.327 . S
C1709 H1732 0.950 . S
C1710 C1709 1.349 . S
C1710 C1722 1.349 . S
C1711 C1709 1.327 . S
C1711 C1727 1.429 . S
C1711 H1733 0.950 . S
C1712 H1708 0.949 . S
C1712 C1720 1.574 . S
C1712 C1728 1.368 . S
H1713 C1721 0.950 . S
H1714 C1719 0.950 . S
H1715 C1720 0.949 . S
H1716 C1722 0.950 . S
H1717 C1723 0.950 . S
H1718 C1724 0.949 . S
C1719 H1714 0.950 . S
C1719 C1721 1.327 . S
C1719 C1725 1.429 . S
C1720 C1712 1.574 . S
C1720 H1715 0.949 . S
C1720 C1726 1.368 . S
C1721 C1705 1.349 . S
C1721 H1713 0.950 . S
C1721 C1719 1.327 . S
C1722 C1710 1.349 . S
C1722 H1716 0.950 . S
C1722 C1723 1.327 . S
C1723 H1717 0.950 . S
C1723 C1722 1.327 . S
C1723 C1727 1.429 . S
C1724 C1707 1.574 . S
C1724 H1718 0.949 . S
C1724 C1728 1.368 . S
C1725 C1706 1.429 . S
C1725 C1719 1.429 . S
C1725 C1726 1.523 . S
C1726 C1707 1.368 . S
C1726 C1720 1.368 . S
C1726 C1725 1.523 . S
C1727 C1711 1.429 . S
C1727 C1723 1.429 . S
C1727 C1728 1.523 . S
C1728 C1712 1.368 . S
C1728 C1724 1.368 . S
C1728 C1727 1.523 . S
H1729 C1704 0.950 . S
H1730 C1706 0.950 . S
H1731 C1707 0.949 . S
H1732 C1709 0.950 . S
H1733 C1711 0.950 . S
C1734 C1735 1.349 . S
C1734 C1736 1.327 . S
C1734 H1759 0.950 . S
C1735 C1734 1.349 . S
C1735 C1751 1.349 . S
C1736 C1734 1.327 . S
C1736 C1755 1.429 . S
C1736 H1760 0.950 . S
C1737 C1754 1.574 . S
C1737 C1756 1.368 . S
C1737 H1761 0.949 . S
H1738 C1742 0.949 . S
C1739 C1740 1.349 . S
C1739 C1741 1.327 . S
C1739 H1762 0.950 . S
C1740 C1739 1.349 . S
C1740 C1752 1.349 . S
C1741 C1739 1.327 . S
C1741 C1757 1.429 . S
C1741 H1763 0.950 . S
C1742 H1738 0.949 . S
C1742 C1750 1.574 . S
C1742 C1758 1.368 . S
H1743 C1751 0.950 . S
H1744 C1749 0.950 . S
H1745 C1750 0.949 . S
H1746 C1752 0.950 . S
H1747 C1753 0.950 . S
H1748 C1754 0.949 . S
C1749 H1744 0.950 . S
C1749 C1751 1.327 . S
C1749 C1755 1.429 . S
C1750 C1742 1.574 . S
C1750 H1745 0.949 . S
C1750 C1756 1.368 . S
C1751 C1735 1.349 . S
C1751 H1743 0.950 . S
C1751 C1749 1.327 . S
C1752 C1740 1.349 . S
C1752 H1746 0.950 . S
C1752 C1753 1.327 . S
C1753 H1747 0.950 . S
C1753 C1752 1.327 . S
C1753 C1757 1.429 . S
C1754 C1737 1.574 . S
C1754 H1748 0.949 . S
C1754 C1758 1.368 . S
C1755 C1736 1.429 . S
C1755 C1749 1.429 . S
C1755 C1756 1.523 . S
C1756 C1737 1.368 . S
C1756 C1750 1.368 . S
C1756 C1755 1.523 . S
C1757 C1741 1.429 . S
C1757 C1753 1.429 . S
C1757 C1758 1.523 . S
C1758 C1742 1.368 . S
C1758 C1754 1.368 . S
C1758 C1757 1.523 . S
H1759 C1734 0.950 . S
H1760 C1736 0.950 . S
H1761 C1737 0.949 . S
H1762 C1739 0.950 . S
H1763 C1741 0.950 . S
C1764 C1765 1.349 . S
C1764 C1766 1.327 . S
C1764 H1789 0.950 . S
C1765 C1764 1.349 . S
C1765 C1781 1.349 . S
C1766 C1764 1.327 . S
C1766 C1785 1.429 . S
C1766 H1790 0.950 . S
C1767 C1784 1.574 . S
C1767 C1786 1.368 . S
C1767 H1791 0.949 . S
H1768 C1772 0.949 . S
C1769 C1770 1.349 . S
C1769 C1771 1.327 . S
C1769 H1792 0.950 . S
C1770 C1769 1.349 . S
C1770 C1782 1.349 . S
C1771 C1769 1.327 . S
C1771 C1787 1.429 . S
C1771 H1793 0.950 . S
C1772 H1768 0.949 . S
C1772 C1780 1.574 . S
C1772 C1788 1.368 . S
H1773 C1781 0.950 . S
H1774 C1779 0.950 . S
H1775 C1780 0.949 . S
H1776 C1782 0.950 . S
H1777 C1783 0.950 . S
H1778 C1784 0.949 . S
C1779 H1774 0.950 . S
C1779 C1781 1.327 . S
C1779 C1785 1.429 . S
C1780 C1772 1.574 . S
C1780 H1775 0.949 . S
C1780 C1786 1.368 . S
C1781 C1765 1.349 . S
C1781 H1773 0.950 . S
C1781 C1779 1.327 . S
C1782 C1770 1.349 . S
C1782 H1776 0.950 . S
C1782 C1783 1.327 . S
C1783 H1777 0.950 . S
C1783 C1782 1.327 . S
C1783 C1787 1.429 . S
C1784 C1767 1.574 . S
C1784 H1778 0.949 . S
C1784 C1788 1.368 . S
C1785 C1766 1.429 . S
C1785 C1779 1.429 . S
C1785 C1786 1.523 . S
C1786 C1767 1.368 . S
C1786 C1780 1.368 . S
C1786 C1785 1.523 . S
C1787 C1771 1.429 . S
C1787 C1783 1.429 . S
C1787 C1788 1.523 . S
C1788 C1772 1.368 . S
C1788 C1784 1.368 . S
C1788 C1787 1.523 . S
H1789 C1764 0.950 . S
H1790 C1766 0.950 . S
H1791 C1767 0.949 . S
H1792 C1769 0.950 . S
H1793 C1771 0.950 . S
C1794 C1795 1.349 . S
C1794 C1796 1.327 . S
C1794 H1819 0.950 . S
C1795 C1794 1.349 . S
C1795 C1811 1.349 . S
C1796 C1794 1.327 . S
C1796 C1815 1.429 . S
C1796 H1820 0.950 . S
C1797 C1814 1.574 . S
C1797 C1816 1.368 . S
C1797 H1821 0.949 . S
H1798 C1802 0.949 . S
C1799 C1800 1.349 . S
C1799 C1801 1.327 . S
C1799 H1822 0.950 . S
C1800 C1799 1.349 . S
C1800 C1812 1.349 . S
C1801 C1799 1.327 . S
C1801 C1817 1.429 . S
C1801 H1823 0.950 . S
C1802 H1798 0.949 . S
C1802 C1810 1.574 . S
C1802 C1818 1.368 . S
H1803 C1811 0.950 . S
H1804 C1809 0.950 . S
H1805 C1810 0.949 . S
H1806 C1812 0.950 . S
H1807 C1813 0.950 . S
H1808 C1814 0.949 . S
C1809 H1804 0.950 . S
C1809 C1811 1.327 . S
C1809 C1815 1.429 . S
C1810 C1802 1.574 . S
C1810 H1805 0.949 . S
C1810 C1816 1.368 . S
C1811 C1795 1.349 . S
C1811 H1803 0.950 . S
C1811 C1809 1.327 . S
C1812 C1800 1.349 . S
C1812 H1806 0.950 . S
C1812 C1813 1.327 . S
C1813 H1807 0.950 . S
C1813 C1812 1.327 . S
C1813 C1817 1.429 . S
C1814 C1797 1.574 . S
C1814 H1808 0.949 . S
C1814 C1818 1.368 . S
C1815 C1796 1.429 . S
C1815 C1809 1.429 . S
C1815 C1816 1.523 . S
C1816 C1797 1.368 . S
C1816 C1810 1.368 . S
C1816 C1815 1.523 . S
C1817 C1801 1.429 . S
C1817 C1813 1.429 . S
C1817 C1818 1.523 . S
C1818 C1802 1.368 . S
C1818 C1814 1.368 . S
C1818 C1817 1.523 . S
H1819 C1794 0.950 . S
H1820 C1796 0.950 . S
H1821 C1797 0.949 . S
H1822 C1799 0.950 . S
H1823 C1801 0.950 . S
C1824 C1825 1.349 . S
C1824 C1826 1.327 . S
C1824 H1849 0.950 . S
C1825 C1824 1.349 . S
C1825 C1841 1.349 . S
C1826 C1824 1.327 . S
C1826 C1845 1.429 . S
C1826 H1850 0.950 . S
C1827 C1844 1.574 . S
C1827 C1846 1.368 . S
C1827 H1851 0.949 . S
H1828 C1832 0.949 . S
C1829 C1830 1.349 . S
C1829 C1831 1.327 . S
C1829 H1852 0.950 . S
C1830 C1829 1.349 . S
C1830 C1842 1.349 . S
C1831 C1829 1.327 . S
C1831 C1847 1.429 . S
C1831 H1853 0.950 . S
C1832 H1828 0.949 . S
C1832 C1840 1.574 . S
C1832 C1848 1.368 . S
H1833 C1841 0.950 . S
H1834 C1839 0.950 . S
H1835 C1840 0.949 . S
H1836 C1842 0.950 . S
H1837 C1843 0.950 . S
H1838 C1844 0.949 . S
C1839 H1834 0.950 . S
C1839 C1841 1.327 . S
C1839 C1845 1.429 . S
C1840 C1832 1.574 . S
C1840 H1835 0.949 . S
C1840 C1846 1.368 . S
C1841 C1825 1.349 . S
C1841 H1833 0.950 . S
C1841 C1839 1.327 . S
C1842 C1830 1.349 . S
C1842 H1836 0.950 . S
C1842 C1843 1.327 . S
C1843 H1837 0.950 . S
C1843 C1842 1.327 . S
C1843 C1847 1.429 . S
C1844 C1827 1.574 . S
C1844 H1838 0.949 . S
C1844 C1848 1.368 . S
C1845 C1826 1.429 . S
C1845 C1839 1.429 . S
C1845 C1846 1.523 . S
C1846 C1827 1.368 . S
C1846 C1840 1.368 . S
C1846 C1845 1.523 . S
C1847 C1831 1.429 . S
C1847 C1843 1.429 . S
C1847 C1848 1.523 . S
C1848 C1832 1.368 . S
C1848 C1844 1.368 . S
C1848 C1847 1.523 . S
H1849 C1824 0.950 . S
H1850 C1826 0.950 . S
H1851 C1827 0.949 . S
H1852 C1829 0.950 . S
H1853 C1831 0.950 . S
C1854 C1855 1.349 . S
C1854 C1856 1.327 . S
C1854 H1879 0.950 . S
C1855 C1854 1.349 . S
C1855 C1871 1.349 . S
C1856 C1854 1.327 . S
C1856 C1875 1.429 . S
C1856 H1880 0.950 . S
C1857 C1874 1.574 . S
C1857 C1876 1.368 . S
C1857 H1881 0.949 . S
H1858 C1862 0.949 . S
C1859 C1860 1.349 . S
C1859 C1861 1.327 . S
C1859 H1882 0.950 . S
C1860 C1859 1.349 . S
C1860 C1872 1.349 . S
C1861 C1859 1.327 . S
C1861 C1877 1.429 . S
C1861 H1883 0.950 . S
C1862 H1858 0.949 . S
C1862 C1870 1.574 . S
C1862 C1878 1.368 . S
H1863 C1871 0.950 . S
H1864 C1869 0.950 . S
H1865 C1870 0.949 . S
H1866 C1872 0.950 . S
H1867 C1873 0.950 . S
H1868 C1874 0.949 . S
C1869 H1864 0.950 . S
C1869 C1871 1.327 . S
C1869 C1875 1.429 . S
C1870 C1862 1.574 . S
C1870 H1865 0.949 . S
C1870 C1876 1.368 . S
C1871 C1855 1.349 . S
C1871 H1863 0.950 . S
C1871 C1869 1.327 . S
C1872 C1860 1.349 . S
C1872 H1866 0.950 . S
C1872 C1873 1.327 . S
C1873 H1867 0.950 . S
C1873 C1872 1.327 . S
C1873 C1877 1.429 . S
C1874 C1857 1.574 . S
C1874 H1868 0.949 . S
C1874 C1878 1.368 . S
C1875 C1856 1.429 . S
C1875 C1869 1.429 . S
C1875 C1876 1.523 . S
C1876 C1857 1.368 . S
C1876 C1870 1.368 . S
C1876 C1875 1.523 . S
C1877 C1861 1.429 . S
C1877 C1873 1.429 . S
C1877 C1878 1.523 . S
C1878 C1862 1.368 . S
C1878 C1874 1.368 . S
C1878 C1877 1.523 . S
H1879 C1854 0.950 . S
H1880 C1856 0.950 . S
H1881 C1857 0.949 . S
H1882 C1859 0.950 . S
H1883 C1861 0.950 . S
C1884 C1885 1.349 . S
C1884 C1886 1.327 . S
C1884 H1909 0.950 . S
C1885 C1884 1.349 . S
C1885 C1901 1.349 . S
C1886 C1884 1.327 . S
C1886 C1905 1.429 . S
C1886 H1910 0.950 . S
C1887 C1904 1.574 . S
C1887 C1906 1.368 . S
C1887 H1911 0.949 . S
H1888 C1892 0.949 . S
C1889 C1890 1.349 . S
C1889 C1891 1.327 . S
C1889 H1912 0.950 . S
C1890 C1889 1.349 . S
C1890 C1902 1.349 . S
C1891 C1889 1.327 . S
C1891 C1907 1.429 . S
C1891 H1913 0.950 . S
C1892 H1888 0.949 . S
C1892 C1900 1.574 . S
C1892 C1908 1.368 . S
H1893 C1901 0.950 . S
H1894 C1899 0.950 . S
H1895 C1900 0.949 . S
H1896 C1902 0.950 . S
H1897 C1903 0.950 . S
H1898 C1904 0.949 . S
C1899 H1894 0.950 . S
C1899 C1901 1.327 . S
C1899 C1905 1.429 . S
C1900 C1892 1.574 . S
C1900 H1895 0.949 . S
C1900 C1906 1.368 . S
C1901 C1885 1.349 . S
C1901 H1893 0.950 . S
C1901 C1899 1.327 . S
C1902 C1890 1.349 . S
C1902 H1896 0.950 . S
C1902 C1903 1.327 . S
C1903 H1897 0.950 . S
C1903 C1902 1.327 . S
C1903 C1907 1.429 . S
C1904 C1887 1.574 . S
C1904 H1898 0.949 . S
C1904 C1908 1.368 . S
C1905 C1886 1.429 . S
C1905 C1899 1.429 . S
C1905 C1906 1.523 . S
C1906 C1887 1.368 . S
C1906 C1900 1.368 . S
C1906 C1905 1.523 . S
C1907 C1891 1.429 . S
C1907 C1903 1.429 . S
C1907 C1908 1.523 . S
C1908 C1892 1.368 . S
C1908 C1904 1.368 . S
C1908 C1907 1.523 . S
H1909 C1884 0.950 . S
H1910 C1886 0.950 . S
H1911 C1887 0.949 . S
H1912 C1889 0.950 . S
H1913 C1891 0.950 . S
C1914 C1915 1.349 . S
C1914 C1916 1.327 . S
C1914 H1939 0.950 . S
C1915 C1914 1.349 . S
C1915 C1931 1.349 . S
C1916 C1914 1.327 . S
C1916 C1935 1.429 . S
C1916 H1940 0.950 . S
C1917 C1934 1.574 . S
C1917 C1936 1.368 . S
C1917 H1941 0.949 . S
H1918 C1922 0.949 . S
C1919 C1920 1.349 . S
C1919 C1921 1.327 . S
C1919 H1942 0.950 . S
C1920 C1919 1.349 . S
C1920 C1932 1.349 . S
C1921 C1919 1.327 . S
C1921 C1937 1.429 . S
C1921 H1943 0.950 . S
C1922 H1918 0.949 . S
C1922 C1930 1.574 . S
C1922 C1938 1.368 . S
H1923 C1931 0.950 . S
H1924 C1929 0.950 . S
H1925 C1930 0.949 . S
H1926 C1932 0.950 . S
H1927 C1933 0.950 . S
H1928 C1934 0.949 . S
C1929 H1924 0.950 . S
C1929 C1931 1.327 . S
C1929 C1935 1.429 . S
C1930 C1922 1.574 . S
C1930 H1925 0.949 . S
C1930 C1936 1.368 . S
C1931 C1915 1.349 . S
C1931 H1923 0.950 . S
C1931 C1929 1.327 . S
C1932 C1920 1.349 . S
C1932 H1926 0.950 . S
C1932 C1933 1.327 . S
C1933 H1927 0.950 . S
C1933 C1932 1.327 . S
C1933 C1937 1.429 . S
C1934 C1917 1.574 . S
C1934 H1928 0.949 . S
C1934 C1938 1.368 . S
C1935 C1916 1.429 . S
C1935 C1929 1.429 . S
C1935 C1936 1.523 . S
C1936 C1917 1.368 . S
C1936 C1930 1.368 . S
C1936 C1935 1.523 . S
C1937 C1921 1.429 . S
C1937 C1933 1.429 . S
C1937 C1938 1.523 . S
C1938 C1922 1.368 . S
C1938 C1934 1.368 . S
C1938 C1937 1.523 . S
H1939 C1914 0.950 . S
H1940 C1916 0.950 . S
H1941 C1917 0.949 . S
H1942 C1919 0.950 . S
H1943 C1921 0.950 . S
C1944 C1945 1.349 . S
C1944 C1946 1.327 . S
C1944 H1969 0.950 . S
C1945 C1944 1.349 . S
C1945 C1961 1.349 . S
C1946 C1944 1.327 . S
C1946 C1965 1.429 . S
C1946 H1970 0.950 . S
C1947 C1964 1.574 . S
C1947 C1966 1.368 . S
C1947 H1971 0.949 . S
H1948 C1952 0.949 . S
C1949 C1950 1.349 . S
C1949 C1951 1.327 . S
C1949 H1972 0.950 . S
C1950 C1949 1.349 . S
C1950 C1962 1.349 . S
C1951 C1949 1.327 . S
C1951 C1967 1.429 . S
C1951 H1973 0.950 . S
C1952 H1948 0.949 . S
C1952 C1960 1.574 . S
C1952 C1968 1.368 . S
H1953 C1961 0.950 . S
H1954 C1959 0.950 . S
H1955 C1960 0.949 . S
H1956 C1962 0.950 . S
H1957 C1963 0.950 . S
H1958 C1964 0.949 . S
C1959 H1954 0.950 . S
C1959 C1961 1.327 . S
C1959 C1965 1.429 . S
C1960 C1952 1.574 . S
C1960 H1955 0.949 . S
C1960 C1966 1.368 . S
C1961 C1945 1.349 . S
C1961 H1953 0.950 . S
C1961 C1959 1.327 . S
C1962 C1950 1.349 . S
C1962 H1956 0.950 . S
C1962 C1963 1.327 . S
C1963 H1957 0.950 . S
C1963 C1962 1.327 . S
C1963 C1967 1.429 . S
C1964 C1947 1.574 . S
C1964 H1958 0.949 . S
C1964 C1968 1.368 . S
C1965 C1946 1.429 . S
C1965 C1959 1.429 . S
C1965 C1966 1.523 . S
C1966 C1947 1.368 . S
C1966 C1960 1.368 . S
C1966 C1965 1.523 . S
C1967 C1951 1.429 . S
C1967 C1963 1.429 . S
C1967 C1968 1.523 . S
C1968 C1952 1.368 . S
C1968 C1964 1.368 . S
C1968 C1967 1.523 . S
H1969 C1944 0.950 . S
H1970 C1946 0.950 . S
H1971 C1947 0.949 . S
H1972 C1949 0.950 . S
H1973 C1951 0.950 . S
C1974 C1975 1.349 . S
C1974 C1976 1.327 . S
C1974 H1999 0.950 . S
C1975 C1974 1.349 . S
C1975 C1991 1.349 . S
C1976 C1974 1.327 . S
C1976 C1995 1.429 . S
C1976 H2000 0.950 . S
C1977 C1994 1.574 . S
C1977 C1996 1.368 . S
C1977 H2001 0.949 . S
H1978 C1982 0.949 . S
C1979 C1980 1.349 . S
C1979 C1981 1.327 . S
C1979 H2002 0.950 . S
C1980 C1979 1.349 . S
C1980 C1992 1.349 . S
C1981 C1979 1.327 . S
C1981 C1997 1.429 . S
C1981 H2003 0.950 . S
C1982 H1978 0.949 . S
C1982 C1990 1.574 . S
C1982 C1998 1.368 . S
H1983 C1991 0.950 . S
H1984 C1989 0.950 . S
H1985 C1990 0.949 . S
H1986 C1992 0.950 . S
H1987 C1993 0.950 . S
H1988 C1994 0.949 . S
C1989 H1984 0.950 . S
C1989 C1991 1.327 . S
C1989 C1995 1.429 . S
C1990 C1982 1.574 . S
C1990 H1985 0.949 . S
C1990 C1996 1.368 . S
C1991 C1975 1.349 . S
C1991 H1983 0.950 . S
C1991 C1989 1.327 . S
C1992 C1980 1.349 . S
C1992 H1986 0.950 . S
C1992 C1993 1.327 . S
C1993 H1987 0.950 . S
C1993 C1992 1.327 . S
C1993 C1997 1.429 . S
C1994 C1977 1.574 . S
C1994 H1988 0.949 . S
C1994 C1998 1.368 . S
C1995 C1976 1.429 . S
C1995 C1989 1.429 . S
C1995 C1996 1.523 . S
C1996 C1977 1.368 . S
C1996 C1990 1.368 . S
C1996 C1995 1.523 . S
C1997 C1981 1.429 . S
C1997 C1993 1.429 . S
C1997 C1998 1.523 . S
C1998 C1982 1.368 . S
C1998 C1994 1.368 . S
C1998 C1997 1.523 . S
H1999 C1974 0.950 . S
H2000 C1976 0.950 . S
H2001 C1977 0.949 . S
H2002 C1979 0.950 . S
H2003 C1981 0.950 . S
C2004 C2005 1.349 . S
C2004 C2006 1.327 . S
C2004 H2029 0.950 . S
C2005 C2004 1.349 . S
C2005 C2021 1.349 . S
C2006 C2004 1.327 . S
C2006 C2025 1.429 . S
C2006 H2030 0.950 . S
C2007 C2024 1.574 . S
C2007 C2026 1.368 . S
C2007 H2031 0.949 . S
H2008 C2012 0.949 . S
C2009 C2010 1.349 . S
C2009 C2011 1.327 . S
C2009 H2032 0.950 . S
C2010 C2009 1.349 . S
C2010 C2022 1.349 . S
C2011 C2009 1.327 . S
C2011 C2027 1.429 . S
C2011 H2033 0.950 . S
C2012 H2008 0.949 . S
C2012 C2020 1.574 . S
C2012 C2028 1.368 . S
H2013 C2021 0.950 . S
H2014 C2019 0.950 . S
H2015 C2020 0.949 . S
H2016 C2022 0.950 . S
H2017 C2023 0.950 . S
H2018 C2024 0.949 . S
C2019 H2014 0.950 . S
C2019 C2021 1.327 . S
C2019 C2025 1.429 . S
C2020 C2012 1.574 . S
C2020 H2015 0.949 . S
C2020 C2026 1.368 . S
C2021 C2005 1.349 . S
C2021 H2013 0.950 . S
C2021 C2019 1.327 . S
C2022 C2010 1.349 . S
C2022 H2016 0.950 . S
C2022 C2023 1.327 . S
C2023 H2017 0.950 . S
C2023 C2022 1.327 . S
C2023 C2027 1.429 . S
C2024 C2007 1.574 . S
C2024 H2018 0.949 . S
C2024 C2028 1.368 . S
C2025 C2006 1.429 . S
C2025 C2019 1.429 . S
C2025 C2026 1.523 . S
C2026 C2007 1.368 . S
C2026 C2020 1.368 . S
C2026 C2025 1.523 . S
C2027 C2011 1.429 . S
C2027 C2023 1.429 . S
C2027 C2028 1.523 . S
C2028 C2012 1.368 . S
C2028 C2024 1.368 . S
C2028 C2027 1.523 . S
H2029 C2004 0.950 . S
H2030 C2006 0.950 . S
H2031 C2007 0.949 . S
H2032 C2009 0.950 . S
H2033 C2011 0.950 . S
C2034 C2035 1.349 . S
C2034 C2036 1.327 . S
C2034 H2059 0.950 . S
C2035 C2034 1.349 . S
C2035 C2051 1.349 . S
C2036 C2034 1.327 . S
C2036 C2055 1.429 . S
C2036 H2060 0.950 . S
C2037 C2054 1.574 . S
C2037 C2056 1.368 . S
C2037 H2061 0.949 . S
H2038 C2042 0.949 . S
C2039 C2040 1.349 . S
C2039 C2041 1.327 . S
C2039 H2062 0.950 . S
C2040 C2039 1.349 . S
C2040 C2052 1.349 . S
C2041 C2039 1.327 . S
C2041 C2057 1.429 . S
C2041 H2063 0.950 . S
C2042 H2038 0.949 . S
C2042 C2050 1.574 . S
C2042 C2058 1.368 . S
H2043 C2051 0.950 . S
H2044 C2049 0.950 . S
H2045 C2050 0.949 . S
H2046 C2052 0.950 . S
H2047 C2053 0.950 . S
H2048 C2054 0.949 . S
C2049 H2044 0.950 . S
C2049 C2051 1.327 . S
C2049 C2055 1.429 . S
C2050 C2042 1.574 . S
C2050 H2045 0.949 . S
C2050 C2056 1.368 . S
C2051 C2035 1.349 . S
C2051 H2043 0.950 . S
C2051 C2049 1.327 . S
C2052 C2040 1.349 . S
C2052 H2046 0.950 . S
C2052 C2053 1.327 . S
C2053 H2047 0.950 . S
C2053 C2052 1.327 . S
C2053 C2057 1.429 . S
C2054 C2037 1.574 . S
C2054 H2048 0.949 . S
C2054 C2058 1.368 . S
C2055 C2036 1.429 . S
C2055 C2049 1.429 . S
C2055 C2056 1.523 . S
C2056 C2037 1.368 . S
C2056 C2050 1.368 . S
C2056 C2055 1.523 . S
C2057 C2041 1.429 . S
C2057 C2053 1.429 . S
C2057 C2058 1.523 . S
C2058 C2042 1.368 . S
C2058 C2054 1.368 . S
C2058 C2057 1.523 . S
H2059 C2034 0.950 . S
H2060 C2036 0.950 . S
H2061 C2037 0.949 . S
H2062 C2039 0.950 . S
H2063 C2041 0.950 . S
C2064 C2065 1.349 . S
C2064 C2066 1.327 . S
C2064 H2089 0.950 . S
C2065 C2064 1.349 . S
C2065 C2081 1.349 . S
C2066 C2064 1.327 . S
C2066 C2085 1.429 . S
C2066 H2090 0.950 . S
C2067 C2084 1.574 . S
C2067 C2086 1.368 . S
C2067 H2091 0.949 . S
H2068 C2072 0.949 . S
C2069 C2070 1.349 . S
C2069 C2071 1.327 . S
C2069 H2092 0.950 . S
C2070 C2069 1.349 . S
C2070 C2082 1.349 . S
C2071 C2069 1.327 . S
C2071 C2087 1.429 . S
C2071 H2093 0.950 . S
C2072 H2068 0.949 . S
C2072 C2080 1.574 . S
C2072 C2088 1.368 . S
H2073 C2081 0.950 . S
H2074 C2079 0.950 . S
H2075 C2080 0.949 . S
H2076 C2082 0.950 . S
H2077 C2083 0.950 . S
H2078 C2084 0.949 . S
C2079 H2074 0.950 . S
C2079 C2081 1.327 . S
C2079 C2085 1.429 . S
C2080 C2072 1.574 . S
C2080 H2075 0.949 . S
C2080 C2086 1.368 . S
C2081 C2065 1.349 . S
C2081 H2073 0.950 . S
C2081 C2079 1.327 . S
C2082 C2070 1.349 . S
C2082 H2076 0.950 . S
C2082 C2083 1.327 . S
C2083 H2077 0.950 . S
C2083 C2082 1.327 . S
C2083 C2087 1.429 . S
C2084 C2067 1.574 . S
C2084 H2078 0.949 . S
C2084 C2088 1.368 . S
C2085 C2066 1.429 . S
C2085 C2079 1.429 . S
C2085 C2086 1.523 . S
C2086 C2067 1.368 . S
C2086 C2080 1.368 . S
C2086 C2085 1.523 . S
C2087 C2071 1.429 . S
C2087 C2083 1.429 . S
C2087 C2088 1.523 . S
C2088 C2072 1.368 . S
C2088 C2084 1.368 . S
C2088 C2087 1.523 . S
H2089 C2064 0.950 . S
H2090 C2066 0.950 . S
H2091 C2067 0.949 . S
H2092 C2069 0.950 . S
H2093 C2071 0.950 . S
C2094 C2095 1.349 . S
C2094 C2096 1.327 . S
C2094 H2119 0.950 . S
C2095 C2094 1.349 . S
C2095 C2111 1.349 . S
C2096 C2094 1.327 . S
C2096 C2115 1.429 . S
C2096 H2120 0.950 . S
C2097 C2114 1.574 . S
C2097 C2116 1.368 . S
C2097 H2121 0.949 . S
H2098 C2102 0.949 . S
C2099 C2100 1.349 . S
C2099 C2101 1.327 . S
C2099 H2122 0.950 . S
C2100 C2099 1.349 . S
C2100 C2112 1.349 . S
C2101 C2099 1.327 . S
C2101 C2117 1.429 . S
C2101 H2123 0.950 . S
C2102 H2098 0.949 . S
C2102 C2110 1.574 . S
C2102 C2118 1.368 . S
H2103 C2111 0.950 . S
H2104 C2109 0.950 . S
H2105 C2110 0.949 . S
H2106 C2112 0.950 . S
H2107 C2113 0.950 . S
H2108 C2114 0.949 . S
C2109 H2104 0.950 . S
C2109 C2111 1.327 . S
C2109 C2115 1.429 . S
C2110 C2102 1.574 . S
C2110 H2105 0.949 . S
C2110 C2116 1.368 . S
C2111 C2095 1.349 . S
C2111 H2103 0.950 . S
C2111 C2109 1.327 . S
C2112 C2100 1.349 . S
C2112 H2106 0.950 . S
C2112 C2113 1.327 . S
C2113 H2107 0.950 . S
C2113 C2112 1.327 . S
C2113 C2117 1.429 . S
C2114 C2097 1.574 . S
C2114 H2108 0.949 . S
C2114 C2118 1.368 . S
C2115 C2096 1.429 . S
C2115 C2109 1.429 . S
C2115 C2116 1.523 . S
C2116 C2097 1.368 . S
C2116 C2110 1.368 . S
C2116 C2115 1.523 . S
C2117 C2101 1.429 . S
C2117 C2113 1.429 . S
C2117 C2118 1.523 . S
C2118 C2102 1.368 . S
C2118 C2114 1.368 . S
C2118 C2117 1.523 . S
H2119 C2094 0.950 . S
H2120 C2096 0.950 . S
H2121 C2097 0.949 . S
H2122 C2099 0.950 . S
H2123 C2101 0.950 . S
C2124 C2125 1.349 . S
C2124 C2126 1.327 . S
C2124 H2149 0.950 . S
C2125 C2124 1.349 . S
C2125 C2141 1.349 . S
C2126 C2124 1.327 . S
C2126 C2145 1.429 . S
C2126 H2150 0.950 . S
C2127 C2144 1.574 . S
C2127 C2146 1.368 . S
C2127 H2151 0.949 . S
H2128 C2132 0.949 . S
C2129 C2130 1.349 . S
C2129 C2131 1.327 . S
C2129 H2152 0.950 . S
C2130 C2129 1.349 . S
C2130 C2142 1.349 . S
C2131 C2129 1.327 . S
C2131 C2147 1.429 . S
C2131 H2153 0.950 . S
C2132 H2128 0.949 . S
C2132 C2140 1.574 . S
C2132 C2148 1.368 . S
H2133 C2141 0.950 . S
H2134 C2139 0.950 . S
H2135 C2140 0.949 . S
H2136 C2142 0.950 . S
H2137 C2143 0.950 . S
H2138 C2144 0.949 . S
C2139 H2134 0.950 . S
C2139 C2141 1.327 . S
C2139 C2145 1.429 . S
C2140 C2132 1.574 . S
C2140 H2135 0.949 . S
C2140 C2146 1.368 . S
C2141 C2125 1.349 . S
C2141 H2133 0.950 . S
C2141 C2139 1.327 . S
C2142 C2130 1.349 . S
C2142 H2136 0.950 . S
C2142 C2143 1.327 . S
C2143 H2137 0.950 . S
C2143 C2142 1.327 . S
C2143 C2147 1.429 . S
C2144 C2127 1.574 . S
C2144 H2138 0.949 . S
C2144 C2148 1.368 . S
C2145 C2126 1.429 . S
C2145 C2139 1.429 . S
C2145 C2146 1.523 . S
C2146 C2127 1.368 . S
C2146 C2140 1.368 . S
C2146 C2145 1.523 . S
C2147 C2131 1.429 . S
C2147 C2143 1.429 . S
C2147 C2148 1.523 . S
C2148 C2132 1.368 . S
C2148 C2144 1.368 . S
C2148 C2147 1.523 . S
H2149 C2124 0.950 . S
H2150 C2126 0.950 . S
H2151 C2127 0.949 . S
H2152 C2129 0.950 . S
H2153 C2131 0.950 . S
C2154 C2155 1.349 . S
C2154 C2156 1.327 . S
C2154 H2179 0.950 . S
C2155 C2154 1.349 . S
C2155 C2171 1.349 . S
C2156 C2154 1.327 . S
C2156 C2175 1.429 . S
C2156 H2180 0.950 . S
C2157 C2174 1.574 . S
C2157 C2176 1.368 . S
C2157 H2181 0.949 . S
H2158 C2162 0.949 . S
C2159 C2160 1.349 . S
C2159 C2161 1.327 . S
C2159 H2182 0.950 . S
C2160 C2159 1.349 . S
C2160 C2172 1.349 . S
C2161 C2159 1.327 . S
C2161 C2177 1.429 . S
C2161 H2183 0.950 . S
C2162 H2158 0.949 . S
C2162 C2170 1.574 . S
C2162 C2178 1.368 . S
H2163 C2171 0.950 . S
H2164 C2169 0.950 . S
H2165 C2170 0.949 . S
H2166 C2172 0.950 . S
H2167 C2173 0.950 . S
H2168 C2174 0.949 . S
C2169 H2164 0.950 . S
C2169 C2171 1.327 . S
C2169 C2175 1.429 . S
C2170 C2162 1.574 . S
C2170 H2165 0.949 . S
C2170 C2176 1.368 . S
C2171 C2155 1.349 . S
C2171 H2163 0.950 . S
C2171 C2169 1.327 . S
C2172 C2160 1.349 . S
C2172 H2166 0.950 . S
C2172 C2173 1.327 . S
C2173 H2167 0.950 . S
C2173 C2172 1.327 . S
C2173 C2177 1.429 . S
C2174 C2157 1.574 . S
C2174 H2168 0.949 . S
C2174 C2178 1.368 . S
C2175 C2156 1.429 . S
C2175 C2169 1.429 . S
C2175 C2176 1.523 . S
C2176 C2157 1.368 . S
C2176 C2170 1.368 . S
C2176 C2175 1.523 . S
C2177 C2161 1.429 . S
C2177 C2173 1.429 . S
C2177 C2178 1.523 . S
C2178 C2162 1.368 . S
C2178 C2174 1.368 . S
C2178 C2177 1.523 . S
H2179 C2154 0.950 . S
H2180 C2156 0.950 . S
H2181 C2157 0.949 . S
H2182 C2159 0.950 . S
H2183 C2161 0.950 . S
C2184 C2185 1.349 . S
C2184 C2186 1.327 . S
C2184 H2209 0.950 . S
C2185 C2184 1.349 . S
C2185 C2201 1.349 . S
C2186 C2184 1.327 . S
C2186 C2205 1.429 . S
C2186 H2210 0.950 . S
C2187 C2204 1.574 . S
C2187 C2206 1.368 . S
C2187 H2211 0.949 . S
H2188 C2192 0.949 . S
C2189 C2190 1.349 . S
C2189 C2191 1.327 . S
C2189 H2212 0.950 . S
C2190 C2189 1.349 . S
C2190 C2202 1.349 . S
C2191 C2189 1.327 . S
C2191 C2207 1.429 . S
C2191 H2213 0.950 . S
C2192 H2188 0.949 . S
C2192 C2200 1.574 . S
C2192 C2208 1.368 . S
H2193 C2201 0.950 . S
H2194 C2199 0.950 . S
H2195 C2200 0.949 . S
H2196 C2202 0.950 . S
H2197 C2203 0.950 . S
H2198 C2204 0.949 . S
C2199 H2194 0.950 . S
C2199 C2201 1.327 . S
C2199 C2205 1.429 . S
C2200 C2192 1.574 . S
C2200 H2195 0.949 . S
C2200 C2206 1.368 . S
C2201 C2185 1.349 . S
C2201 H2193 0.950 . S
C2201 C2199 1.327 . S
C2202 C2190 1.349 . S
C2202 H2196 0.950 . S
C2202 C2203 1.327 . S
C2203 H2197 0.950 . S
C2203 C2202 1.327 . S
C2203 C2207 1.429 . S
C2204 C2187 1.574 . S
C2204 H2198 0.949 . S
C2204 C2208 1.368 . S
C2205 C2186 1.429 . S
C2205 C2199 1.429 . S
C2205 C2206 1.523 . S
C2206 C2187 1.368 . S
C2206 C2200 1.368 . S
C2206 C2205 1.523 . S
C2207 C2191 1.429 . S
C2207 C2203 1.429 . S
C2207 C2208 1.523 . S
C2208 C2192 1.368 . S
C2208 C2204 1.368 . S
C2208 C2207 1.523 . S
H2209 C2184 0.950 . S
H2210 C2186 0.950 . S
H2211 C2187 0.949 . S
H2212 C2189 0.950 . S
H2213 C2191 0.950 . S
C595 N170 2.187 . S
C600 C243 2.199 . S
C625 N184 1.076 . S
C630 C283 1.066 . S
C655 N158 1.696 . S
C660 C322 1.670 . S
C685 N145 1.554 . S
C690 C282 1.523 1_556 S
C720 C323 0.711 . S
C715 N119 0.709 . S
C745 N131 1.891 . S
C750 C242 1.907 . S
C780 C253 1.788 1_556 S
C775 N144 1.801 . S
C810 C293 1.671 . S
C805 N118 1.684 . S
C835 N132 1.565 . S
C840 C332 1.560 . S
C865 N171 1.459 . S
C870 C292 1.445 . S
C895 N183 1.285 . S
C900 C333 1.287 . S
C930 C252 1.429 . S
C925 N157 1.456 . S
C960 C363 2.199 . S
C955 N14 2.187 . S
C985 N28 1.076 . S
C990 C403 1.066 . S
C1015 N2 1.696 . S
C1020 C442 1.670 . S
C1045 N223 1.553 . S
C1050 C402 1.523 . S
C1075 N197 0.710 . S
C1080 C443 0.711 . S
C1105 N209 1.891 . S
C1110 C362 1.907 . S
C1135 N222 1.801 . S
C1140 C373 1.793 . S
C1165 N196 1.684 . S
C1170 C413 1.671 . S
C1200 C452 1.559 . S
C1195 N210 1.565 . S
C1225 N15 1.459 . S
C1230 C412 1.445 . S
C1260 C453 1.287 . S
C1255 N27 1.285 . S
C1285 N1 1.456 . S
C1290 C372 1.429 . S
C1320 C483 2.199 . S
C1315 N92 2.187 . S
C1345 N106 1.076 . S
C1350 C523 1.066 . S
C1380 C562 1.670 . S
C1375 N80 1.696 . S
C1410 C522 1.523 . S
C1405 N67 1.554 . S
C1440 C563 0.711 . S
C1435 N41 0.709 . S
C1465 N53 1.891 . S
C1470 C482 1.907 . S
C1495 N66 1.801 . S
C1500 C493 1.793 . S
C1525 N40 1.684 . S
C1530 C533 1.671 . S
C1560 C572 1.559 . S
C1555 N54 1.565 . S
C1585 N93 1.459 . S
C1590 C532 1.445 . S
C1615 N105 1.285 . S
C1620 C573 1.287 . S
C1645 N79 1.456 . S
C1650 C492 1.429 . S
C1675 N200 0.890 . S
C1680 C239 0.896 . S
C1710 C279 2.147 . S
C1705 N213 2.107 . S
C1735 N226 1.576 . S
C1740 C329 1.596 . S
C1765 N83 1.827 . S
C1770 C289 1.839 . S
C1795 N96 1.898 . S
C1800 C319 1.943 . S
C1830 C249 1.027 . S
C1825 N109 1.025 . S
C1855 N44 0.890 . S
C1860 C359 0.896 . S
C1885 N57 2.107 . S
C1890 C399 2.147 . S
C1915 N70 1.576 . S
C1920 C449 1.596 . S
C1945 N161 1.827 . S
C1950 C409 1.839 . S
C1980 C439 1.943 . S
C1975 N174 1.898 . S
C2005 N187 1.025 . S
C2010 C369 1.027 . S
C2035 N122 0.890 . S
C2040 C479 0.896 . S
C2065 N135 2.108 . S
C2070 C519 2.147 . S
C2100 C569 1.596 . S
C2095 N148 1.576 . S
C2125 N5 1.827 . S
C2130 C529 1.839 . S
C2155 N18 1.898 . S
C2160 C559 1.943 . S
C2185 N31 1.025 . S
C2190 C489 1.027 . S
