# Generated by pormake.
# Topology rtl, (3,6)-cn, num edge types: 1
# Building blocks:
#     Node 0, Type 0, BuildingBlock: KAKCAD_clean_linker_0, # of connection points: 3
#     Node 1, Type 0, BuildingBlock: KAKCAD_clean_linker_0, # of connection points: 3
#     Node 2, Type 0, BuildingBlock: KAKCAD_clean_linker_0, # of connection points: 3
#     Node 3, Type 0, BuildingBlock: KAKCAD_clean_linker_0, # of connection points: 3
#     Node 4, Type 1, BuildingBlock: FUNLAD_clean_sbu_0, # of connection points: 6
#     Node 5, Type 1, BuildingBlock: FUNLAD_clean_sbu_0, # of connection points: 6
#     Edge 6, Type (0, 1), BuildingBlock: AJUNOK_clean_linker_0, # of connection points: 2
#     Edge 7, Type (0, 1), BuildingBlock: AJUNOK_clean_linker_0, # of connection points: 2
#     Edge 8, Type (0, 1), BuildingBlock: AJUNOK_clean_linker_0, # of connection points: 2
#     Edge 9, Type (0, 1), BuildingBlock: AJUNOK_clean_linker_0, # of connection points: 2
#     Edge 10, Type (0, 1), BuildingBlock: AJUNOK_clean_linker_0, # of connection points: 2
#     Edge 11, Type (0, 1), BuildingBlock: AJUNOK_clean_linker_0, # of connection points: 2
#     Edge 12, Type (0, 1), BuildingBlock: AJUNOK_clean_linker_0, # of connection points: 2
#     Edge 13, Type (0, 1), BuildingBlock: AJUNOK_clean_linker_0, # of connection points: 2
#     Edge 14, Type (0, 1), BuildingBlock: AJUNOK_clean_linker_0, # of connection points: 2
#     Edge 15, Type (0, 1), BuildingBlock: AJUNOK_clean_linker_0, # of connection points: 2
#     Edge 16, Type (0, 1), BuildingBlock: AJUNOK_clean_linker_0, # of connection points: 2
#     Edge 17, Type (0, 1), BuildingBlock: AJUNOK_clean_linker_0, # of connection points: 2
# Relax obj value: 0.025
# Max RMSD: 0.105
# Mean RMSD: 0.086
data_MOF--net-rtl--node1-FUNLAD_clean_sbu_0--node2-KAKCAD_clean_linker_0--edge1-AJUNOK_clean_linker_0
_symmetry_space_group_name_H-M    P1
_symmetry_Int_Tables_number       1
_symmetry_cell_setting            triclinic
loop_
_symmetry_equiv_pos_as_xyz
'x, y, z'
_cell_length_a     39.886763
_cell_length_b     32.095356
_cell_length_c     22.281959
_cell_angle_alpha  89.80114
_cell_angle_beta   90.894338
_cell_angle_gamma 90.476724
loop_
_atom_site_label
_atom_site_type_symbol
_atom_site_fract_x
_atom_site_fract_y
_atom_site_fract_z
_atom_type_partial_charge
C0 C 0.08069 0.8028 0.79963 0.0
C1 C 0.07901 0.84642 0.79483 0.0
C2 C 0.09213 0.78419 0.85305 0.0
C3 C 0.10158 0.80902 0.9024 0.0
C4 C 0.10028 0.85258 0.89697 0.0
C5 C 0.08918 0.87105 0.84379 0.0
C6 C 0.11251 0.79033 0.96019 0.0
C7 C 0.13806 0.76059 0.96268 0.0
C8 C 0.15162 0.7477 0.01833 0.0
C9 C 0.13862 0.76395 0.07167 0.0
C10 C 0.11278 0.79335 0.06953 0.0
C11 C 0.0996 0.80579 0.01372 0.0
C12 C 0.10122 0.81407 0.12466 0.0
C13 C 0.09249 0.79096 0.17584 0.0
C14 C 0.09828 0.85766 0.12557 0.0
C15 C 0.08624 0.87774 0.17605 0.0
C16 C 0.07677 0.85472 0.22673 0.0
C17 C 0.18177 0.72107 0.0202 0.0
C18 C 0.18337 0.68483 0.98513 0.0
C19 C 0.21008 0.73346 0.05424 0.0
C20 C 0.23971 0.71072 0.05195 0.0
C21 C 0.24137 0.67497 0.01626 0.0
C22 C 0.21294 0.66173 0.98355 0.0
C23 C 0.08018 0.81116 0.22648 0.0
H24 H 0.07328 0.78323 0.76213 0.0
H25 H 0.09301 0.75053 0.85621 0.0
H26 H 0.10791 0.87247 0.93401 0.0
H27 H 0.08804 0.90473 0.84123 0.0
H28 H 0.14893 0.74966 0.92136 0.0
H29 H 0.07965 0.82854 0.01185 0.0
H30 H 0.14949 0.75496 0.11464 0.0
H31 H 0.09457 0.75734 0.17621 0.0
H32 H 0.10533 0.87631 0.08708 0.0
H33 H 0.08386 0.91135 0.17516 0.0
H34 H 0.16188 0.67466 0.95854 0.0
H35 H 0.20969 0.76158 0.08095 0.0
H36 H 0.07345 0.79282 0.26544 0.0
H37 H 0.21393 0.63422 0.95562 0.0
H38 H 0.26153 0.72139 0.07727 0.0
C39 C 0.57498 0.71027 0.72225 0.0
C40 C 0.57189 0.66671 0.72651 0.0
C41 C 0.58595 0.72879 0.66885 0.0
C42 C 0.59332 0.70389 0.61908 0.0
C43 C 0.59014 0.6604 0.62382 0.0
C44 C 0.57961 0.64205 0.67692 0.0
C45 C 0.60499 0.72208 0.56195 0.0
C46 C 0.63284 0.74899 0.56076 0.0
C47 C 0.64802 0.75894 0.50599 0.0
C48 C 0.63479 0.74229 0.45226 0.0
C49 C 0.60642 0.71607 0.45285 0.0
C50 C 0.5912 0.70728 0.50781 0.0
C51 C 0.59441 0.69457 0.39749 0.0
C52 C 0.59395 0.71503 0.34151 0.0
C53 C 0.58373 0.65269 0.40046 0.0
C54 C 0.57224 0.63206 0.34918 0.0
C55 C 0.57174 0.65257 0.29374 0.0
C56 C 0.67984 0.78285 0.50567 0.0
C57 C 0.68252 0.82159 0.53455 0.0
C58 C 0.70814 0.76608 0.47817 0.0
C59 C 0.73877 0.78738 0.4803 0.0
C60 C 0.74143 0.82603 0.50916 0.0
C61 C 0.71309 0.84328 0.5357 0.0
C62 C 0.58281 0.69405 0.28986 0.0
H63 H 0.56932 0.72978 0.76028 0.0
H64 H 0.58835 0.76238 0.6662 0.0
H65 H 0.59621 0.64042 0.58649 0.0
H66 H 0.57731 0.60841 0.67916 0.0
H67 H 0.64418 0.75966 0.60257 0.0
H68 H 0.5692 0.68724 0.50902 0.0
H69 H 0.64741 0.74855 0.41042 0.0
H70 H 0.60185 0.74728 0.33771 0.0
H71 H 0.58465 0.63548 0.44234 0.0
H72 H 0.5641 0.59985 0.35262 0.0
H73 H 0.66099 0.83504 0.55604 0.0
H74 H 0.70674 0.73603 0.45622 0.0
H75 H 0.58257 0.7102 0.24708 0.0
H76 H 0.71479 0.8731 0.55822 0.0
H77 H 0.76043 0.77369 0.45952 0.0
C78 C 0.89312 0.17179 0.22881 0.0
C79 C 0.92727 0.1624 0.23616 0.0
C80 C 0.88128 0.19029 0.17584 0.0
C81 C 0.90336 0.1998 0.12904 0.0
C82 C 0.93774 0.19189 0.13745 0.0
C83 C 0.94954 0.17321 0.19031 0.0
C84 C 0.89012 0.21459 0.07004 0.0
C85 C 0.86369 0.24315 0.06677 0.0
C86 C 0.84832 0.25343 0.01136 0.0
C87 C 0.86109 0.23595 0.95854 0.0
C88 C 0.88839 0.20853 0.9608 0.0
C89 C 0.90241 0.19772 0.0168 0.0
C90 C 0.90163 0.18963 0.90519 0.0
C91 C 0.87978 0.1755 0.85935 0.0
C92 C 0.93633 0.18407 0.89869 0.0
C93 C 0.94882 0.16396 0.84839 0.0
C94 C 0.92695 0.14941 0.80296 0.0
C95 C 0.81811 0.28073 0.00908 0.0
C96 C 0.79517 0.28047 0.05652 0.0
C97 C 0.81117 0.30618 0.95884 0.0
C98 C 0.78181 0.32964 0.95549 0.0
C99 C 0.75914 0.32954 0.0032 0.0
C100 C 0.76642 0.30493 0.05395 0.0
C101 C 0.89232 0.15564 0.80877 0.0
H102 H 0.87542 0.16386 0.2635 0.0
H103 H 0.85459 0.19548 0.17062 0.0
H104 H 0.95545 0.19922 0.10252 0.0
H105 H 0.97591 0.16571 0.19421 0.0
H106 H 0.85508 0.25719 0.10779 0.0
H107 H 0.92204 0.17461 0.0191 0.0
H108 H 0.84957 0.24307 0.91548 0.0
H109 H 0.8529 0.17873 0.86321 0.0
H110 H 0.9539 0.19495 0.93285 0.0
H111 H 0.97557 0.15888 0.84586 0.0
H112 H 0.79886 0.26069 0.09544 0.0
H113 H 0.82825 0.30796 0.92166 0.0
H114 H 0.87488 0.14476 0.77441 0.0
H115 H 0.74967 0.30419 0.09173 0.0
H116 H 0.77666 0.34713 0.91482 0.0
C117 C 0.39943 0.32396 0.27719 0.0
C118 C 0.43321 0.33575 0.2716 0.0
C119 C 0.38821 0.30501 0.32974 0.0
C120 C 0.41057 0.29733 0.37789 0.0
C121 C 0.44469 0.30743 0.37116 0.0
C122 C 0.45586 0.32662 0.31867 0.0
C123 C 0.39764 0.28261 0.43657 0.0
C124 C 0.37134 0.25334 0.43893 0.0
C125 C 0.35522 0.24429 0.49327 0.0
C126 C 0.36749 0.26312 0.54633 0.0
C127 C 0.39469 0.29122 0.54525 0.0
C128 C 0.40934 0.30101 0.49005 0.0
C129 C 0.40652 0.31259 0.60092 0.0
C130 C 0.38351 0.32652 0.6435 0.0
C131 C 0.44089 0.3206 0.61086 0.0
C132 C 0.45187 0.34306 0.66113 0.0
C133 C 0.42876 0.35786 0.70275 0.0
C134 C 0.32401 0.21817 0.49385 0.0
C135 C 0.3016 0.21844 0.44436 0.0
C136 C 0.31527 0.19462 0.54482 0.0
C137 C 0.28433 0.17395 0.54738 0.0
C138 C 0.26165 0.1754 0.49851 0.0
C139 C 0.27123 0.19667 0.44625 0.0
C140 C 0.39455 0.34859 0.69407 0.0
H141 H 0.38146 0.33053 0.24152 0.0
H142 H 0.36169 0.2982 0.33358 0.0
H143 H 0.46261 0.30157 0.40716 0.0
H144 H 0.48195 0.33596 0.31608 0.0
H145 H 0.36307 0.23824 0.39787 0.0
H146 H 0.42874 0.3248 0.48833 0.0
H147 H 0.35536 0.25686 0.58854 0.0
H148 H 0.35684 0.32133 0.63714 0.0
H149 H 0.45934 0.30975 0.57951 0.0
H150 H 0.47842 0.34963 0.66674 0.0
H151 H 0.30686 0.23642 0.40438 0.0
H152 H 0.33207 0.19245 0.58329 0.0
H153 H 0.37622 0.3587 0.72617 0.0
H154 H 0.2551 0.19699 0.40673 0.0
H155 H 0.27792 0.15754 0.58822 0.0
C156 C 0.02339 0.95144 0.423 0.0
N157 N 0.07022 0.04949 0.51652 0.0
C158 C 0.0986 0.02795 0.50474 0.0
C159 C 0.1295 0.0485 0.50213 0.0
C160 C 0.13147 0.09153 0.51313 0.0
C161 C 0.10193 0.11262 0.5276 0.0
C162 C 0.07139 0.09109 0.52792 0.0
Zn163 Zn 0.02509 0.01876 0.51557 0.0
C164 C 0.97634 0.05746 0.43136 0.0
N165 N 0.93181 0.95299 0.51237 0.0
C166 C 0.93086 0.91092 0.50527 0.0
C167 C 0.90321 0.97517 0.51925 0.0
C168 C 0.87213 0.95494 0.5202 0.0
C169 C 0.87038 0.9115 0.51335 0.0
C170 C 0.90026 0.88952 0.50497 0.0
Zn171 Zn 0.97683 0.98367 0.51349 0.0
O172 O 0.04144 0.9806 0.44483 0.0
C173 C 0.02601 0.94508 0.59726 0.0
O174 O 0.99417 0.9455 0.4433 0.0
H175 H 0.90448 0.00863 0.52438 0.0
H176 H 0.09732 0.99479 0.49663 0.0
H177 H 0.95388 0.89388 0.49977 0.0
O178 O 0.04378 0.97538 0.57864 0.0
O179 O 0.99613 0.94086 0.57747 0.0
H180 H 0.04861 0.10774 0.5371 0.0
O181 O 0.96015 0.02207 0.58412 0.0
O182 O 0.00782 0.05642 0.58631 0.0
O183 O 0.95836 0.02705 0.44911 0.0
O184 O 0.00594 0.06172 0.45239 0.0
C185 C 0.9785 0.0508 0.60639 0.0
H186 H 0.15155 0.0309 0.49074 0.0
H187 H 0.10228 0.14541 0.53875 0.0
H188 H 0.84972 0.97309 0.52684 0.0
H189 H 0.90003 0.85618 0.49773 0.0
C190 C 0.47712 0.45734 0.90476 0.0
N191 N 0.57031 0.45897 0.99539 0.0
C192 C 0.57148 0.4177 0.98187 0.0
C193 C 0.60219 0.39724 0.97989 0.0
C194 C 0.63206 0.41908 0.9934 0.0
C195 C 0.62997 0.46151 0.00821 0.0
C196 C 0.59883 0.48105 0.00782 0.0
Zn197 Zn 0.52487 0.48819 -0.00179 0.0
C198 C 0.52366 0.56389 0.92095 0.0
N199 N 0.43069 0.55016 0.00422 0.0
C200 C 0.40199 0.52745 -0.00356 0.0
C201 C 0.42978 0.59206 0.01301 0.0
C202 C 0.39915 0.61271 0.01416 0.0
C203 C 0.36915 0.5902 0.00512 0.0
C204 C 0.37082 0.54695 -0.00343 0.0
Zn205 Zn 0.47601 0.52105 0.00181 0.0
O206 O 0.50657 0.45154 0.92546 0.0
C207 C 0.47778 0.44535 0.07987 0.0
O208 O 0.45887 0.48473 0.9286 0.0
H209 H 0.45286 0.60953 0.01918 0.0
H210 H 0.54857 0.4005 0.97269 0.0
H211 H 0.40326 0.49414 0.98978 0.0
O212 O 0.50729 0.44321 0.05955 0.0
O213 O 0.45889 0.47501 0.06278 0.0
H214 H 0.5975 0.51386 0.01809 0.0
O215 O 0.49371 0.55721 0.07469 0.0
O216 O 0.5422 0.52575 0.0705 0.0
O217 O 0.49413 0.56665 0.9411 0.0
O218 O 0.5419 0.53352 0.93741 0.0
C219 C 0.52359 0.55293 0.09402 0.0
H220 H 0.60248 0.36456 0.96798 0.0
H221 H 0.652 0.47943 0.02111 0.0
H222 H 0.39899 0.64591 0.02259 0.0
H223 H 0.34829 0.52844 0.98939 0.0
C224 C 0.22482 0.11537 0.52894 0.0
C225 C 0.22806 0.15499 0.50228 0.0
C226 C 0.19356 0.0954 0.53275 0.0
C227 C 0.16423 0.11395 0.50946 0.0
H228 H 0.24668 0.09937 0.54654 0.0
H229 H 0.19242 0.06518 0.55444 0.0
S230 S 0.15892 0.21763 0.43545 0.0
N231 N 0.19885 0.2129 0.45448 0.0
N232 N 0.14063 0.17401 0.45743 0.0
C233 C 0.1671 0.15351 0.48241 0.0
C234 C 0.19884 0.17426 0.4797 0.0
C235 C 0.27841 0.61474 0.04063 0.0
C236 C 0.27341 0.65287 0.01099 0.0
C237 C 0.30938 0.59445 0.03809 0.0
C238 C 0.33623 0.61157 0.00551 0.0
H239 H 0.25848 0.60097 0.06678 0.0
H240 H 0.31251 0.56558 0.06279 0.0
S241 S 0.33411 0.70921 0.91571 0.0
N242 N 0.29664 0.70615 0.94601 0.0
N243 N 0.35457 0.66762 0.93945 0.0
C244 C 0.33098 0.64924 0.97431 0.0
C245 C 0.2996 0.66998 0.97747 0.0
C246 C 0.77855 0.88577 0.48164 0.0
C247 C 0.77405 0.8479 0.51222 0.0
C248 C 0.80978 0.90613 0.48227 0.0
C249 C 0.83744 0.88951 0.51408 0.0
H250 H 0.75796 0.89929 0.45619 0.0
H251 H 0.81239 0.93478 0.45686 0.0
S252 S 0.8371 0.79277 0.606 0.0
N253 N 0.79877 0.79534 0.57722 0.0
N254 N 0.85724 0.83419 0.58046 0.0
C255 C 0.83281 0.85206 0.54614 0.0
C256 C 0.80114 0.83114 0.54475 0.0
C257 C 0.69739 0.33516 0.02051 0.0
C258 C 0.72724 0.35343 -0.0004 0.0
C259 C 0.667 0.35662 0.01835 0.0
C260 C 0.66487 0.39712 0.99423 0.0
H261 H 0.69734 0.30378 0.03852 0.0
H262 H 0.64503 0.34134 0.03643 0.0
S263 S 0.73553 0.45892 0.93205 0.0
N264 N 0.75287 0.41505 0.95505 0.0
N265 N 0.69525 0.45415 0.94673 0.0
C266 C 0.69442 0.41562 0.9722 0.0
C267 C 0.72562 0.39406 0.97566 0.0
C268 C 0.08117 0.91104 0.30325 0.0
C269 C 0.06341 0.8768 0.27932 0.0
C270 C 0.06812 0.93455 0.35003 0.0
C271 C 0.03663 0.92496 0.37452 0.0
H272 H 0.10531 0.9199 0.28535 0.0
H273 H 0.08279 0.96079 0.36653 0.0
S274 S 0.9803 0.83782 0.32759 0.0
N275 N 0.01297 0.83402 0.28338 0.0
N276 N 0.98826 0.87808 0.37166 0.0
C277 C 0.01878 0.89032 0.35146 0.0
C278 C 0.03224 0.86623 0.30387 0.0
C279 C 0.58077 0.61419 0.80714 0.0
C280 C 0.56088 0.64587 0.78209 0.0
C281 C 0.56891 0.58902 0.85359 0.0
C282 C 0.53654 0.59433 0.87656 0.0
H283 H 0.60535 0.60797 0.78931 0.0
H284 H 0.58498 0.56434 0.87016 0.0
S285 S 0.47557 0.67529 0.82875 0.0
N286 N 0.50822 0.6831 0.78529 0.0
N287 N 0.48562 0.63582 0.87307 0.0
C288 C 0.51697 0.62733 0.85373 0.0
C289 C 0.52923 0.65313 0.8064 0.0
C290 C 0.92174 0.10183 0.30613 0.0
C291 C 0.93911 0.13822 0.28917 0.0
C292 C 0.93358 0.07651 0.35301 0.0
C293 C 0.96335 0.08648 0.38473 0.0
H294 H 0.89931 0.09211 0.28179 0.0
H295 H 0.91964 0.04835 0.36336 0.0
S296 S 0.0164 0.18071 0.36157 0.0
N297 N 0.98616 0.18472 0.31048 0.0
N298 N 0.00878 0.13696 0.39827 0.0
C299 C 0.98044 0.12354 0.36943 0.0
C300 C 0.96826 0.14939 0.32171 0.0
C301 C 0.46833 0.37109 0.78924 0.0
C302 C 0.44039 0.38351 0.75449 0.0
C303 C 0.48007 0.39516 0.83767 0.0
C304 C 0.4642 0.43249 0.85338 0.0
H305 H 0.4811 0.34233 0.77923 0.0
H306 H 0.50159 0.3842 0.86325 0.0
S307 S 0.39135 0.48017 0.77417 0.0
N308 N 0.39823 0.4367 0.73713 0.0
N309 N 0.41973 0.48148 0.82885 0.0
C310 C 0.43632 0.44539 0.81876 0.0
C311 C 0.42454 0.42103 0.7692 0.0
C312 C 0.52556 0.62204 0.23155 0.0
C313 C 0.55994 0.62992 0.24015 0.0
C314 C 0.51397 0.59758 0.18349 0.0
C315 C 0.5365 0.57953 0.1433 0.0
H316 H 0.5076 0.63451 0.26259 0.0
H317 H 0.48724 0.59203 0.17863 0.0
S318 S 0.62914 0.59205 0.14663 0.0
N319 N 0.61637 0.61912 0.20478 0.0
N320 N 0.59487 0.57247 0.11468 0.0
C321 C 0.57102 0.58765 0.1514 0.0
C322 C 0.58268 0.61306 0.19983 0.0
C323 C 0.92474 0.08791 0.73431 0.0
C324 C 0.94004 0.12581 0.75123 0.0
C325 C 0.93726 0.0641 0.68725 0.0
C326 C 0.96572 0.0771 0.65541 0.0
H327 H 0.90325 0.07609 0.75838 0.0
H328 H 0.92474 0.03493 0.67641 0.0
S329 S 0.01345 0.17567 0.67906 0.0
N330 N 0.98391 0.17659 0.73012 0.0
N331 N 0.0079 0.1315 0.64235 0.0
C332 C 0.98099 0.1153 0.67126 0.0
C333 C 0.96807 0.1397 0.71899 0.0
C334 C 0.42528 0.39606 0.20191 0.0
C335 C 0.44403 0.36101 0.21936 0.0
C336 C 0.43599 0.42245 0.1558 0.0
C337 C 0.46598 0.41497 0.12534 0.0
H338 H 0.40259 0.40394 0.22531 0.0
H339 H 0.42097 0.44953 0.14511 0.0
S340 S 0.52259 0.32497 0.15025 0.0
N341 N 0.4927 0.31837 0.19991 0.0
N342 N 0.51322 0.36819 0.1135 0.0
C343 C 0.48448 0.37923 0.14111 0.0
C344 C 0.47345 0.35226 0.18808 0.0
C345 C 0.08543 0.89932 0.71376 0.0
C346 C 0.06641 0.86711 0.73961 0.0
C347 C 0.07249 0.92334 0.6665 0.0
C348 C 0.03987 0.91631 0.64341 0.0
H349 H 0.11029 0.90665 0.73122 0.0
H350 H 0.08797 0.94837 0.64913 0.0
S351 S 0.98056 0.83392 0.69385 0.0
N352 N 0.01401 0.82804 0.73758 0.0
N353 N 0.98946 0.87304 0.6483 0.0
C354 C 0.02103 0.88302 0.66744 0.0
C355 C 0.03437 0.85843 0.71559 0.0
loop_
_geom_bond_atom_site_label_1
_geom_bond_atom_site_label_2
_geom_bond_distance
_geom_bond_site_symmetry_2
_ccdc_geom_bond_type
C0 C1 1.386 . S
C0 C2 1.397 . S
C0 H24 0.931 . S
C1 C0 1.386 . S
C1 C5 1.397 . S
C2 C0 1.397 . S
C2 C3 1.384 . S
C2 H25 0.930 . S
C3 C2 1.384 . S
C3 C4 1.377 . S
C3 C6 1.481 . S
C4 C3 1.377 . S
C4 C5 1.389 . S
C4 H26 0.929 . S
C5 C1 1.397 . S
C5 C4 1.389 . S
C5 H27 0.931 . S
C6 C3 1.481 . S
C6 C7 1.387 . S
C6 C11 1.390 1_556 S
C7 C6 1.387 . S
C7 C8 1.401 1_556 S
C7 H28 0.930 . S
C8 C7 1.401 1_554 S
C8 C9 1.376 . S
C8 C17 1.511 . S
C9 C8 1.376 . S
C9 C10 1.392 . S
C9 H30 0.931 . S
C10 C9 1.392 . S
C10 C11 1.361 . S
C10 C12 1.500 . S
C11 C6 1.390 1_554 S
C11 C10 1.361 . S
C11 H29 0.931 . S
C12 C10 1.500 . S
C12 C13 1.371 . S
C12 C14 1.365 . S
C13 C12 1.371 . S
C13 C23 1.386 . S
C13 H31 0.931 . S
C14 C12 1.365 . S
C14 C15 1.409 . S
C14 H32 0.929 . S
C15 C14 1.409 . S
C15 C16 1.380 . S
C15 H33 0.930 . S
C16 C15 1.380 . S
C16 C23 1.357 . S
C17 C8 1.511 . S
C17 C18 1.341 1_554 S
C17 C19 1.371 . S
C18 C17 1.341 1_556 S
C18 C22 1.394 . S
C18 H34 0.930 . S
C19 C17 1.371 . S
C19 C20 1.392 . S
C19 H35 0.931 . S
C20 C19 1.392 . S
C20 C21 1.331 . S
C20 H38 0.932 . S
C21 C20 1.331 . S
C21 C22 1.336 1_554 S
C22 C18 1.394 . S
C22 C21 1.336 1_556 S
C22 H37 0.929 . S
C23 C13 1.386 . S
C23 C16 1.357 . S
C23 H36 0.928 . S
H24 C0 0.931 . S
H25 C2 0.930 . S
H26 C4 0.929 . S
H27 C5 0.931 . S
H28 C7 0.930 . S
H29 C11 0.931 . S
H30 C9 0.931 . S
H31 C13 0.931 . S
H32 C14 0.929 . S
H33 C15 0.930 . S
H34 C18 0.930 . S
H35 C19 0.931 . S
H36 C23 0.928 . S
H37 C22 0.929 . S
H38 C20 0.932 . S
C39 C40 1.386 . S
C39 C41 1.397 . S
C39 H63 0.931 . S
C40 C39 1.386 . S
C40 C44 1.397 . S
C41 C39 1.397 . S
C41 C42 1.384 . S
C41 H64 0.930 . S
C42 C41 1.384 . S
C42 C43 1.377 . S
C42 C45 1.481 . S
C43 C42 1.377 . S
C43 C44 1.389 . S
C43 H65 0.929 . S
C44 C40 1.397 . S
C44 C43 1.389 . S
C44 H66 0.931 . S
C45 C42 1.481 . S
C45 C46 1.387 . S
C45 C50 1.390 . S
C46 C45 1.387 . S
C46 C47 1.401 . S
C46 H67 0.930 . S
C47 C46 1.401 . S
C47 C48 1.376 . S
C47 C56 1.511 . S
C48 C47 1.376 . S
C48 C49 1.392 . S
C48 H69 0.931 . S
C49 C48 1.392 . S
C49 C50 1.361 . S
C49 C51 1.500 . S
C50 C45 1.390 . S
C50 C49 1.361 . S
C50 H68 0.931 . S
C51 C49 1.500 . S
C51 C52 1.371 . S
C51 C53 1.365 . S
C52 C51 1.371 . S
C52 C62 1.386 . S
C52 H70 0.931 . S
C53 C51 1.365 . S
C53 C54 1.409 . S
C53 H71 0.929 . S
C54 C53 1.409 . S
C54 C55 1.380 . S
C54 H72 0.930 . S
C55 C54 1.380 . S
C55 C62 1.357 . S
C56 C47 1.511 . S
C56 C57 1.341 . S
C56 C58 1.371 . S
C57 C56 1.341 . S
C57 C61 1.394 . S
C57 H73 0.930 . S
C58 C56 1.371 . S
C58 C59 1.392 . S
C58 H74 0.931 . S
C59 C58 1.392 . S
C59 C60 1.331 . S
C59 H77 0.932 . S
C60 C59 1.331 . S
C60 C61 1.336 . S
C61 C57 1.394 . S
C61 C60 1.336 . S
C61 H76 0.929 . S
C62 C52 1.386 . S
C62 C55 1.357 . S
C62 H75 0.928 . S
H63 C39 0.931 . S
H64 C41 0.930 . S
H65 C43 0.929 . S
H66 C44 0.931 . S
H67 C46 0.930 . S
H68 C50 0.931 . S
H69 C48 0.931 . S
H70 C52 0.931 . S
H71 C53 0.929 . S
H72 C54 0.930 . S
H73 C57 0.930 . S
H74 C58 0.931 . S
H75 C62 0.928 . S
H76 C61 0.929 . S
H77 C59 0.932 . S
C78 C79 1.386 . S
C78 C80 1.397 . S
C78 H102 0.931 . S
C79 C78 1.386 . S
C79 C83 1.397 . S
C80 C78 1.397 . S
C80 C81 1.384 . S
C80 H103 0.930 . S
C81 C80 1.384 . S
C81 C82 1.377 . S
C81 C84 1.481 . S
C82 C81 1.377 . S
C82 C83 1.389 . S
C82 H104 0.929 . S
C83 C79 1.397 . S
C83 C82 1.389 . S
C83 H105 0.931 . S
C84 C81 1.481 . S
C84 C85 1.387 . S
C84 C89 1.390 . S
C85 C84 1.387 . S
C85 C86 1.401 . S
C85 H106 0.930 . S
C86 C85 1.401 . S
C86 C87 1.376 1_554 S
C86 C95 1.511 . S
C87 C86 1.376 1_556 S
C87 C88 1.392 . S
C87 H108 0.931 . S
C88 C87 1.392 . S
C88 C89 1.361 1_556 S
C88 C90 1.500 . S
C89 C84 1.390 . S
C89 C88 1.361 1_554 S
C89 H107 0.931 . S
C90 C88 1.500 . S
C90 C91 1.371 . S
C90 C92 1.365 . S
C91 C90 1.371 . S
C91 C101 1.386 . S
C91 H109 0.931 . S
C92 C90 1.365 . S
C92 C93 1.409 . S
C92 H110 0.929 . S
C93 C92 1.409 . S
C93 C94 1.380 . S
C93 H111 0.930 . S
C94 C93 1.380 . S
C94 C101 1.357 . S
C95 C86 1.511 . S
C95 C96 1.341 . S
C95 C97 1.371 1_554 S
C96 C95 1.341 . S
C96 C100 1.394 . S
C96 H112 0.930 . S
C97 C95 1.371 1_556 S
C97 C98 1.392 . S
C97 H113 0.931 . S
C98 C97 1.392 . S
C98 C99 1.331 1_556 S
C98 H116 0.932 . S
C99 C98 1.331 1_554 S
C99 C100 1.336 . S
C100 C96 1.394 . S
C100 C99 1.336 . S
C100 H115 0.929 . S
C101 C91 1.386 . S
C101 C94 1.357 . S
C101 H114 0.928 . S
H102 C78 0.931 . S
H103 C80 0.930 . S
H104 C82 0.929 . S
H105 C83 0.931 . S
H106 C85 0.930 . S
H107 C89 0.931 . S
H108 C87 0.931 . S
H109 C91 0.931 . S
H110 C92 0.929 . S
H111 C93 0.930 . S
H112 C96 0.930 . S
H113 C97 0.931 . S
H114 C101 0.928 . S
H115 C100 0.929 . S
H116 C98 0.932 . S
C117 C118 1.386 . S
C117 C119 1.397 . S
C117 H141 0.931 . S
C118 C117 1.386 . S
C118 C122 1.397 . S
C119 C117 1.397 . S
C119 C120 1.384 . S
C119 H142 0.930 . S
C120 C119 1.384 . S
C120 C121 1.377 . S
C120 C123 1.481 . S
C121 C120 1.377 . S
C121 C122 1.389 . S
C121 H143 0.929 . S
C122 C118 1.397 . S
C122 C121 1.389 . S
C122 H144 0.931 . S
C123 C120 1.481 . S
C123 C124 1.387 . S
C123 C128 1.390 . S
C124 C123 1.387 . S
C124 C125 1.401 . S
C124 H145 0.930 . S
C125 C124 1.401 . S
C125 C126 1.376 . S
C125 C134 1.511 . S
C126 C125 1.376 . S
C126 C127 1.392 . S
C126 H147 0.931 . S
C127 C126 1.392 . S
C127 C128 1.361 . S
C127 C129 1.500 . S
C128 C123 1.390 . S
C128 C127 1.361 . S
C128 H146 0.931 . S
C129 C127 1.500 . S
C129 C130 1.371 . S
C129 C131 1.365 . S
C130 C129 1.371 . S
C130 C140 1.386 . S
C130 H148 0.931 . S
C131 C129 1.365 . S
C131 C132 1.409 . S
C131 H149 0.929 . S
C132 C131 1.409 . S
C132 C133 1.380 . S
C132 H150 0.930 . S
C133 C132 1.380 . S
C133 C140 1.357 . S
C134 C125 1.511 . S
C134 C135 1.341 . S
C134 C136 1.371 . S
C135 C134 1.341 . S
C135 C139 1.394 . S
C135 H151 0.930 . S
C136 C134 1.371 . S
C136 C137 1.392 . S
C136 H152 0.931 . S
C137 C136 1.392 . S
C137 C138 1.331 . S
C137 H155 0.932 . S
C138 C137 1.331 . S
C138 C139 1.336 . S
C139 C135 1.394 . S
C139 C138 1.336 . S
C139 H154 0.929 . S
C140 C130 1.386 . S
C140 C133 1.357 . S
C140 H153 0.928 . S
H141 C117 0.931 . S
H142 C119 0.930 . S
H143 C121 0.929 . S
H144 C122 0.931 . S
H145 C124 0.930 . S
H146 C128 0.931 . S
H147 C126 0.931 . S
H148 C130 0.931 . S
H149 C131 0.929 . S
H150 C132 0.930 . S
H151 C135 0.930 . S
H152 C136 0.931 . S
H153 C140 0.928 . S
H154 C139 0.929 . S
H155 C137 0.932 . S
C156 O172 1.251 . S
C156 O174 1.254 1_455 S
N157 C158 1.333 . S
N157 C162 1.307 . S
N157 Zn163 2.020 . S
C158 N157 1.333 . S
C158 C159 1.379 . S
C158 H176 0.952 . S
C159 C158 1.379 . S
C159 C160 1.390 . S
C159 H186 0.949 . S
C160 C159 1.390 . S
C160 C161 1.357 . S
C161 C160 1.357 . S
C161 C162 1.370 . S
C161 H187 0.950 . S
C162 N157 1.307 . S
C162 C161 1.370 . S
C162 H180 0.948 . S
Zn163 N157 2.020 . S
Zn163 O172 2.039 1_545 S
Zn163 O178 2.034 1_545 S
Zn163 O182 2.025 . S
Zn163 O184 2.024 . S
C164 O183 1.246 . S
C164 O184 1.249 1_655 S
N165 C166 1.307 . S
N165 C167 1.333 . S
N165 Zn171 2.020 . S
C166 N165 1.307 . S
C166 C170 1.370 . S
C166 H177 0.948 . S
C167 N165 1.333 . S
C167 C168 1.379 . S
C167 H175 0.952 . S
C168 C167 1.379 . S
C168 C169 1.390 . S
C168 H188 0.949 . S
C169 C168 1.390 . S
C169 C170 1.357 . S
C170 C166 1.370 . S
C170 C169 1.357 . S
C170 H189 0.950 . S
Zn171 N165 2.020 . S
Zn171 O174 2.025 . S
Zn171 O179 2.024 . S
Zn171 O181 2.039 1_565 S
Zn171 O183 2.034 1_565 S
O172 C156 1.251 . S
O172 Zn163 2.039 1_565 S
C173 O178 1.246 . S
C173 O179 1.249 1_455 S
O174 C156 1.254 1_655 S
O174 Zn171 2.025 . S
H175 C167 0.952 . S
H176 C158 0.952 . S
H177 C166 0.948 . S
O178 Zn163 2.034 1_565 S
O178 C173 1.246 . S
O179 Zn171 2.024 . S
O179 C173 1.249 1_655 S
H180 C162 0.948 . S
O181 Zn171 2.039 1_545 S
O181 C185 1.251 . S
O182 Zn163 2.025 . S
O182 C185 1.254 1_455 S
O183 C164 1.246 . S
O183 Zn171 2.034 1_545 S
O184 Zn163 2.024 . S
O184 C164 1.249 1_455 S
C185 O181 1.251 . S
C185 O182 1.254 1_655 S
H186 C159 0.949 . S
H187 C161 0.950 . S
H188 C168 0.949 . S
H189 C170 0.950 . S
C190 O206 1.251 . S
C190 O208 1.254 . S
N191 C192 1.333 1_554 S
N191 C196 1.307 . S
N191 Zn197 2.020 . S
C192 N191 1.333 1_556 S
C192 C193 1.379 . S
C192 H210 0.952 . S
C193 C192 1.379 . S
C193 C194 1.390 1_556 S
C193 H220 0.949 . S
C194 C193 1.390 1_554 S
C194 C195 1.357 . S
C195 C194 1.357 . S
C195 C196 1.370 . S
C195 H221 0.950 . S
C196 N191 1.307 . S
C196 C195 1.370 . S
C196 H214 0.948 . S
Zn197 N191 2.020 . S
Zn197 O206 2.039 1_554 S
Zn197 O212 2.034 . S
Zn197 O216 2.025 . S
Zn197 O218 2.024 1_554 S
C198 O217 1.246 . S
C198 O218 1.249 . S
N199 C200 1.307 1_554 S
N199 C201 1.333 . S
N199 Zn205 2.020 . S
C200 N199 1.307 1_556 S
C200 C204 1.370 . S
C200 H211 0.948 . S
C201 N199 1.333 . S
C201 C202 1.379 . S
C201 H209 0.952 . S
C202 C201 1.379 . S
C202 C203 1.390 . S
C202 H222 0.949 . S
C203 C202 1.390 . S
C203 C204 1.357 1_554 S
C204 C200 1.370 . S
C204 C203 1.357 1_556 S
C204 H223 0.950 . S
Zn205 N199 2.020 . S
Zn205 O208 2.025 1_554 S
Zn205 O213 2.024 . S
Zn205 O215 2.039 . S
Zn205 O217 2.034 1_554 S
O206 C190 1.251 . S
O206 Zn197 2.039 1_556 S
C207 O212 1.246 . S
C207 O213 1.249 . S
O208 C190 1.254 . S
O208 Zn205 2.025 1_556 S
H209 C201 0.952 . S
H210 C192 0.952 . S
H211 C200 0.948 . S
O212 Zn197 2.034 . S
O212 C207 1.246 . S
O213 Zn205 2.024 . S
O213 C207 1.249 . S
H214 C196 0.948 . S
O215 Zn205 2.039 . S
O215 C219 1.251 . S
O216 Zn197 2.025 . S
O216 C219 1.254 . S
O217 C198 1.246 . S
O217 Zn205 2.034 1_556 S
O218 Zn197 2.024 1_556 S
O218 C198 1.249 . S
C219 O215 1.251 . S
C219 O216 1.254 . S
H220 C193 0.949 . S
H221 C195 0.950 . S
H222 C202 0.949 . S
H223 C204 0.950 . S
C224 C225 1.369 . S
C224 C226 1.419 . S
C224 H228 0.930 . S
C225 C224 1.369 . S
C225 C234 1.429 . S
C226 C224 1.419 . S
C226 C227 1.363 . S
C226 H229 0.929 . S
C227 C226 1.363 . S
C227 C233 1.428 . S
H228 C224 0.930 . S
H229 C226 0.929 . S
S230 N231 1.613 . S
S230 N232 1.610 . S
N231 S230 1.613 . S
N231 C234 1.350 . S
N232 S230 1.610 . S
N232 C233 1.351 . S
C233 C227 1.428 . S
C233 N232 1.351 . S
C233 C234 1.434 . S
C234 C225 1.429 . S
C234 N231 1.350 . S
C234 C233 1.434 . S
C235 C236 1.369 . S
C235 C237 1.419 . S
C235 H239 0.930 . S
C236 C235 1.369 . S
C236 C245 1.429 . S
C237 C235 1.419 . S
C237 C238 1.363 . S
C237 H240 0.929 . S
C238 C237 1.363 . S
C238 C244 1.428 . S
H239 C235 0.930 . S
H240 C237 0.929 . S
S241 N242 1.612 1_556 S
S241 N243 1.610 1_556 S
N242 S241 1.612 1_554 S
N242 C245 1.352 . S
N243 S241 1.610 1_554 S
N243 C244 1.352 . S
C244 C238 1.428 . S
C244 N243 1.352 . S
C244 C245 1.434 . S
C245 C236 1.429 . S
C245 N242 1.352 . S
C245 C244 1.434 . S
C246 C247 1.369 . S
C246 C248 1.419 . S
C246 H250 0.930 . S
C247 C246 1.369 . S
C247 C256 1.429 . S
C248 C246 1.419 . S
C248 C249 1.363 . S
C248 H251 0.929 . S
C249 C248 1.363 . S
C249 C255 1.428 . S
H250 C246 0.930 . S
H251 C248 0.929 . S
S252 N253 1.613 . S
S252 N254 1.610 . S
N253 S252 1.613 . S
N253 C256 1.350 . S
N254 S252 1.610 . S
N254 C255 1.351 . S
C255 C249 1.428 . S
C255 N254 1.351 . S
C255 C256 1.434 . S
C256 C247 1.429 . S
C256 N253 1.350 . S
C256 C255 1.434 . S
C257 C258 1.369 1_556 S
C257 C259 1.419 . S
C257 H261 0.930 . S
C258 C257 1.369 1_554 S
C258 C267 1.429 . S
C259 C257 1.419 . S
C259 C260 1.363 1_556 S
C259 H262 0.929 . S
C260 C259 1.363 1_554 S
C260 C266 1.428 . S
H261 C257 0.930 . S
H262 C259 0.929 . S
S263 N264 1.613 . S
S263 N265 1.610 . S
N264 S263 1.613 . S
N264 C267 1.350 . S
N265 S263 1.610 . S
N265 C266 1.351 . S
C266 C260 1.428 . S
C266 N265 1.351 . S
C266 C267 1.434 . S
C267 C258 1.429 . S
C267 N264 1.350 . S
C267 C266 1.434 . S
C268 C269 1.369 . S
C268 C270 1.419 . S
C268 H272 0.930 . S
C269 C268 1.369 . S
C269 C278 1.429 . S
C270 C268 1.419 . S
C270 C271 1.363 . S
C270 H273 0.929 . S
C271 C270 1.363 . S
C271 C277 1.428 . S
H272 C268 0.930 . S
H273 C270 0.929 . S
S274 N275 1.613 . S
S274 N276 1.610 . S
N275 S274 1.613 . S
N275 C278 1.350 1_655 S
N276 S274 1.610 . S
N276 C277 1.351 1_655 S
C277 C271 1.428 . S
C277 N276 1.351 1_455 S
C277 C278 1.434 . S
C278 C269 1.429 . S
C278 N275 1.350 1_455 S
C278 C277 1.434 . S
C279 C280 1.369 . S
C279 C281 1.419 . S
C279 H283 0.930 . S
C280 C279 1.369 . S
C280 C289 1.429 . S
C281 C279 1.419 . S
C281 C282 1.363 . S
C281 H284 0.929 . S
C282 C281 1.363 . S
C282 C288 1.428 . S
H283 C279 0.930 . S
H284 C281 0.929 . S
S285 N286 1.613 . S
S285 N287 1.610 . S
N286 S285 1.613 . S
N286 C289 1.350 . S
N287 S285 1.610 . S
N287 C288 1.351 . S
C288 C282 1.428 . S
C288 N287 1.351 . S
C288 C289 1.434 . S
C289 C280 1.429 . S
C289 N286 1.350 . S
C289 C288 1.434 . S
C290 C291 1.369 . S
C290 C292 1.419 . S
C290 H294 0.930 . S
C291 C290 1.369 . S
C291 C300 1.429 . S
C292 C290 1.419 . S
C292 C293 1.363 . S
C292 H295 0.929 . S
C293 C292 1.363 . S
C293 C299 1.428 . S
H294 C290 0.930 . S
H295 C292 0.929 . S
S296 N297 1.613 . S
S296 N298 1.610 . S
N297 S296 1.613 . S
N297 C300 1.350 . S
N298 S296 1.610 . S
N298 C299 1.351 . S
C299 C293 1.428 . S
C299 N298 1.351 . S
C299 C300 1.434 . S
C300 C291 1.429 . S
C300 N297 1.350 . S
C300 C299 1.434 . S
C301 C302 1.369 . S
C301 C303 1.419 . S
C301 H305 0.930 . S
C302 C301 1.369 . S
C302 C311 1.429 . S
C303 C301 1.419 . S
C303 C304 1.363 . S
C303 H306 0.929 . S
C304 C303 1.363 . S
C304 C310 1.428 . S
H305 C301 0.930 . S
H306 C303 0.929 . S
S307 N308 1.613 . S
S307 N309 1.610 . S
N308 S307 1.613 . S
N308 C311 1.350 . S
N309 S307 1.610 . S
N309 C310 1.351 . S
C310 C304 1.428 . S
C310 N309 1.351 . S
C310 C311 1.434 . S
C311 C302 1.429 . S
C311 N308 1.350 . S
C311 C310 1.434 . S
C312 C313 1.369 . S
C312 C314 1.419 . S
C312 H316 0.930 . S
C313 C312 1.369 . S
C313 C322 1.429 . S
C314 C312 1.419 . S
C314 C315 1.363 . S
C314 H317 0.929 . S
C315 C314 1.363 . S
C315 C321 1.428 . S
H316 C312 0.930 . S
H317 C314 0.929 . S
S318 N319 1.613 . S
S318 N320 1.610 . S
N319 S318 1.613 . S
N319 C322 1.350 . S
N320 S318 1.610 . S
N320 C321 1.351 . S
C321 C315 1.428 . S
C321 N320 1.351 . S
C321 C322 1.434 . S
C322 C313 1.429 . S
C322 N319 1.350 . S
C322 C321 1.434 . S
C323 C324 1.369 . S
C323 C325 1.419 . S
C323 H327 0.930 . S
C324 C323 1.369 . S
C324 C333 1.429 . S
C325 C323 1.419 . S
C325 C326 1.363 . S
C325 H328 0.929 . S
C326 C325 1.363 . S
C326 C332 1.428 . S
H327 C323 0.930 . S
H328 C325 0.929 . S
S329 N330 1.613 . S
S329 N331 1.610 . S
N330 S329 1.613 . S
N330 C333 1.350 . S
N331 S329 1.610 . S
N331 C332 1.351 . S
C332 C326 1.428 . S
C332 N331 1.351 . S
C332 C333 1.434 . S
C333 C324 1.429 . S
C333 N330 1.350 . S
C333 C332 1.434 . S
C334 C335 1.369 . S
C334 C336 1.419 . S
C334 H338 0.930 . S
C335 C334 1.369 . S
C335 C344 1.429 . S
C336 C334 1.419 . S
C336 C337 1.363 . S
C336 H339 0.929 . S
C337 C336 1.363 . S
C337 C343 1.428 . S
H338 C334 0.930 . S
H339 C336 0.929 . S
S340 N341 1.613 . S
S340 N342 1.610 . S
N341 S340 1.613 . S
N341 C344 1.350 . S
N342 S340 1.610 . S
N342 C343 1.351 . S
C343 C337 1.428 . S
C343 N342 1.351 . S
C343 C344 1.434 . S
C344 C335 1.429 . S
C344 N341 1.350 . S
C344 C343 1.434 . S
C345 C346 1.369 . S
C345 C347 1.419 . S
C345 H349 0.930 . S
C346 C345 1.369 . S
C346 C355 1.429 . S
C347 C345 1.419 . S
C347 C348 1.363 . S
C347 H350 0.929 . S
C348 C347 1.363 . S
C348 C354 1.428 . S
H349 C345 0.930 . S
H350 C347 0.929 . S
S351 N352 1.613 . S
S351 N353 1.610 . S
N352 S351 1.613 . S
N352 C355 1.350 . S
N353 S351 1.610 . S
N353 C354 1.351 . S
C354 C348 1.428 . S
C354 N353 1.351 . S
C354 C355 1.434 . S
C355 C346 1.429 . S
C355 N352 1.350 . S
C355 C354 1.434 . S
C227 C160 1.679 . S
C225 C138 1.623 . S
C236 C21 1.581 . S
C238 C203 1.594 . S
C247 C60 1.640 . S
C249 C169 1.680 . S
C258 C99 1.573 . S
C260 C194 1.591 . S
C271 C156 1.681 . S
C269 C16 1.632 . S
C282 C198 1.783 . S
C280 C40 1.730 . S
C291 C79 1.629 . S
C293 C164 1.660 . S
C302 C133 1.711 . S
C304 C190 1.779 . S
C315 C219 1.778 . S
C313 C55 1.710 . S
C326 C185 1.680 . S
C324 C94 1.642 . S
C337 C207 1.782 . S
C335 C118 1.721 . S
C346 C1 1.631 . S
C348 C173 1.663 . S
