# Generated by pormake.
# Topology nom, (4,4)-cn, num edge types: 1
# Building blocks:
#     Node 0, Type 0, BuildingBlock: AZAVOO_clean_linker_0, # of connection points: 4
#     Node 1, Type 0, BuildingBlock: AZAVOO_clean_linker_0, # of connection points: 4
#     Node 2, Type 0, BuildingBlock: AZAVOO_clean_linker_0, # of connection points: 4
#     Node 3, Type 0, BuildingBlock: AZAVOO_clean_linker_0, # of connection points: 4
#     Node 4, Type 0, BuildingBlock: AZAVOO_clean_linker_0, # of connection points: 4
#     Node 5, Type 0, BuildingBlock: AZAVOO_clean_linker_0, # of connection points: 4
#     Node 6, Type 1, BuildingBlock: UXUYUI_clean_sbu_0, # of connection points: 4
#     Node 7, Type 1, BuildingBlock: UXUYUI_clean_sbu_0, # of connection points: 4
#     Node 8, Type 1, BuildingBlock: UXUYUI_clean_sbu_0, # of connection points: 4
#     Node 9, Type 1, BuildingBlock: UXUYUI_clean_sbu_0, # of connection points: 4
#     Node 10, Type 1, BuildingBlock: UXUYUI_clean_sbu_0, # of connection points: 4
#     Node 11, Type 1, BuildingBlock: UXUYUI_clean_sbu_0, # of connection points: 4
#     Edge 12, Type (0, 1), BuildingBlock: UVAHIK_clean_linker_0, # of connection points: 2
#     Edge 13, Type (0, 1), BuildingBlock: UVAHIK_clean_linker_0, # of connection points: 2
#     Edge 14, Type (0, 1), BuildingBlock: UVAHIK_clean_linker_0, # of connection points: 2
#     Edge 15, Type (0, 1), BuildingBlock: UVAHIK_clean_linker_0, # of connection points: 2
#     Edge 16, Type (0, 1), BuildingBlock: UVAHIK_clean_linker_0, # of connection points: 2
#     Edge 17, Type (0, 1), BuildingBlock: UVAHIK_clean_linker_0, # of connection points: 2
#     Edge 18, Type (0, 1), BuildingBlock: UVAHIK_clean_linker_0, # of connection points: 2
#     Edge 19, Type (0, 1), BuildingBlock: UVAHIK_clean_linker_0, # of connection points: 2
#     Edge 20, Type (0, 1), BuildingBlock: UVAHIK_clean_linker_0, # of connection points: 2
#     Edge 21, Type (0, 1), BuildingBlock: UVAHIK_clean_linker_0, # of connection points: 2
#     Edge 22, Type (0, 1), BuildingBlock: UVAHIK_clean_linker_0, # of connection points: 2
#     Edge 23, Type (0, 1), BuildingBlock: UVAHIK_clean_linker_0, # of connection points: 2
#     Edge 24, Type (0, 1), BuildingBlock: UVAHIK_clean_linker_0, # of connection points: 2
#     Edge 25, Type (0, 1), BuildingBlock: UVAHIK_clean_linker_0, # of connection points: 2
#     Edge 26, Type (0, 1), BuildingBlock: UVAHIK_clean_linker_0, # of connection points: 2
#     Edge 27, Type (0, 1), BuildingBlock: UVAHIK_clean_linker_0, # of connection points: 2
#     Edge 28, Type (0, 1), BuildingBlock: UVAHIK_clean_linker_0, # of connection points: 2
#     Edge 29, Type (0, 1), BuildingBlock: UVAHIK_clean_linker_0, # of connection points: 2
#     Edge 30, Type (0, 1), BuildingBlock: UVAHIK_clean_linker_0, # of connection points: 2
#     Edge 31, Type (0, 1), BuildingBlock: UVAHIK_clean_linker_0, # of connection points: 2
#     Edge 32, Type (0, 1), BuildingBlock: UVAHIK_clean_linker_0, # of connection points: 2
#     Edge 33, Type (0, 1), BuildingBlock: UVAHIK_clean_linker_0, # of connection points: 2
#     Edge 34, Type (0, 1), BuildingBlock: UVAHIK_clean_linker_0, # of connection points: 2
#     Edge 35, Type (0, 1), BuildingBlock: UVAHIK_clean_linker_0, # of connection points: 2
# Relax obj value: 0.165
# Max RMSD: 0.223
# Mean RMSD: 0.184
data_MOF--net-nom--node1-UXUYUI_clean_sbu_0--node2-AZAVOO_clean_linker_0--edge1-UVAHIK_clean_linker_0
_symmetry_space_group_name_H-M    P1
_symmetry_Int_Tables_number       1
_symmetry_cell_setting            triclinic
loop_
_symmetry_equiv_pos_as_xyz
'x, y, z'
_cell_length_a     69.163966
_cell_length_b     70.270037
_cell_length_c     87.132591
_cell_angle_alpha  89.932803
_cell_angle_beta   89.878102
_cell_angle_gamma 121.35055
loop_
_atom_site_label
_atom_site_type_symbol
_atom_site_fract_x
_atom_site_fract_y
_atom_site_fract_z
_atom_type_partial_charge
H0 H 0.06291 0.49417 0.2222 0.0
H1 H 0.17915 0.61837 0.3689 0.0
H2 H 0.0101 0.47788 0.29984 0.0
H3 H 0.98142 0.45994 0.2798 0.0
H4 H 0.97743 0.51911 0.27604 0.0
H5 H 0.00614 0.53692 0.29619 0.0
H6 H 0.06386 0.5011 0.28913 0.0
H7 H 0.06561 0.49384 0.26184 0.0
H8 H 0.04544 0.54091 0.25025 0.0
H9 H 0.04409 0.54823 0.27755 0.0
H10 H 0.10595 0.53168 0.3125 0.0
H11 H 0.14414 0.55354 0.30143 0.0
H12 H 0.12619 0.59818 0.28068 0.0
H13 H 0.08828 0.57623 0.29162 0.0
H14 H 0.08519 0.52488 0.34738 0.0
H15 H 0.11914 0.54367 0.36336 0.0
H16 H 0.13693 0.60673 0.34265 0.0
H17 H 0.10275 0.58777 0.3269 0.0
H18 H 0.03251 0.5031 0.35518 0.0
H19 H 0.03761 0.50796 0.383 0.0
H20 H 0.06962 0.57922 0.37714 0.0
H21 H 0.06377 0.57408 0.34944 0.0
H22 H 0.99232 0.48491 0.33265 0.0
H23 H 0.95601 0.47833 0.34266 0.0
H24 H 0.98224 0.54913 0.34097 0.0
H25 H 0.01825 0.5555 0.33105 0.0
O26 O 0.06228 0.49741 0.23291 0.0
O27 O 0.05172 0.52165 0.22757 0.0
O28 O 0.15561 0.5777 0.37309 0.0
O29 O 0.16562 0.61051 0.3627 0.0
C30 C 0.03081 0.52093 0.30887 0.0
C31 C 0.05215 0.52894 0.30188 0.0
C32 C 0.07208 0.54086 0.31062 0.0
C33 C 0.07066 0.5435 0.32656 0.0
C34 C 0.04931 0.53562 0.33353 0.0
C35 C 0.02947 0.52504 0.32457 0.0
C36 C 0.01011 0.50864 0.29943 0.0
C37 C 0.00249 0.48667 0.29502 0.0
C38 C 0.98615 0.47648 0.28358 0.0
C39 C 0.97737 0.48823 0.27629 0.0
C40 C 0.98409 0.50979 0.28139 0.0
C41 C 0.00028 0.51988 0.29296 0.0
C42 C 0.05367 0.52503 0.28529 0.0
C43 C 0.05991 0.50986 0.28066 0.0
C44 C 0.06084 0.50573 0.26508 0.0
C45 C 0.05558 0.51673 0.25386 0.0
C46 C 0.04953 0.5321 0.25858 0.0
C47 C 0.04867 0.53626 0.27416 0.0
C48 C 0.09442 0.5524 0.30282 0.0
C49 C 0.11027 0.54602 0.30539 0.0
C50 C 0.13204 0.55856 0.29912 0.0
C51 C 0.13818 0.57759 0.29018 0.0
C52 C 0.12193 0.58343 0.28728 0.0
C53 C 0.10027 0.57096 0.29356 0.0
C54 C 0.09159 0.55495 0.33595 0.0
C55 C 0.09646 0.54274 0.34632 0.0
C56 C 0.11586 0.55352 0.35542 0.0
C57 C 0.13077 0.57671 0.35427 0.0
C58 C 0.12584 0.58886 0.34381 0.0
C59 C 0.10638 0.57807 0.33476 0.0
C60 C 0.04798 0.53826 0.35032 0.0
C61 C 0.03998 0.51968 0.35998 0.0
C62 C 0.04313 0.52251 0.37583 0.0
C63 C 0.05435 0.544 0.38226 0.0
C64 C 0.0608 0.56244 0.3726 0.0
C65 C 0.05757 0.55956 0.35676 0.0
C66 C 0.0078 0.52066 0.33116 0.0
C67 C 0.99016 0.49893 0.33454 0.0
C68 C 0.96956 0.49524 0.34027 0.0
C69 C 0.96632 0.51323 0.34248 0.0
C70 C 0.98417 0.53495 0.33919 0.0
C71 C 0.00475 0.53862 0.33363 0.0
C72 C 0.05639 0.51215 0.23732 0.0
C73 C 0.15138 0.58825 0.36394 0.0
H74 H 0.56324 0.09119 0.39238 0.0
H75 H 0.54065 0.15672 0.55314 0.0
H76 H 0.5514 0.03178 0.46415 0.0
H77 H 0.54907 0.00621 0.44424 0.0
H78 H 0.47632 0.96779 0.44919 0.0
H79 H 0.4787 0.99391 0.46896 0.0
H80 H 0.56505 0.08093 0.45889 0.0
H81 H 0.57112 0.08944 0.43144 0.0
H82 H 0.49925 0.04623 0.42363 0.0
H83 H 0.49339 0.03808 0.45113 0.0
H84 H 0.57048 0.10888 0.48892 0.0
H85 H 0.58153 0.14694 0.48161 0.0
H86 H 0.51672 0.12173 0.45972 0.0
H87 H 0.50547 0.08376 0.46748 0.0
H88 H 0.56294 0.0847 0.51981 0.0
H89 H 0.57263 0.11406 0.53869 0.0
H90 H 0.51457 0.11739 0.52448 0.0
H91 H 0.50488 0.08776 0.50581 0.0
H92 H 0.54489 0.03193 0.5205 0.0
H93 H 0.55082 0.03289 0.5482 0.0
H94 H 0.49846 0.04812 0.55537 0.0
H95 H 0.49217 0.04645 0.52764 0.0
H96 H 0.52681 0.99655 0.49591 0.0
H97 H 0.50513 0.9581 0.50568 0.0
H98 H 0.44849 0.9663 0.51515 0.0
H99 H 0.47026 0.00448 0.50564 0.0
O100 O 0.56045 0.08764 0.4032 0.0
O101 O 0.52339 0.06514 0.39979 0.0
O102 O 0.56666 0.14251 0.55279 0.0
O103 O 0.53719 0.14506 0.54578 0.0
C104 C 0.51711 0.03177 0.47892 0.0
C105 C 0.52515 0.05375 0.47369 0.0
C106 C 0.52969 0.07074 0.48432 0.0
C107 C 0.52716 0.06598 0.50021 0.0
C108 C 0.51878 0.04395 0.50538 0.0
C109 C 0.5128 0.02669 0.4947 0.0
C110 C 0.51523 0.01477 0.46793 0.0
C111 C 0.53495 0.01779 0.46099 0.0
C112 C 0.53361 0.00324 0.44963 0.0
C113 C 0.51252 0.98516 0.44515 0.0
C114 C 0.49278 0.98158 0.45252 0.0
C115 C 0.49411 0.99642 0.46377 0.0
C116 C 0.52878 0.05894 0.457 0.0
C117 C 0.55063 0.07343 0.45124 0.0
C118 C 0.55405 0.0782 0.43555 0.0
C119 C 0.53567 0.06852 0.42534 0.0
C120 C 0.51378 0.05397 0.43117 0.0
C121 C 0.51039 0.04925 0.44687 0.0
C122 C 0.5371 0.09359 0.47885 0.0
C123 C 0.55866 0.11159 0.48258 0.0
C124 C 0.56493 0.13325 0.47841 0.0
C125 C 0.54991 0.1372 0.47018 0.0
C126 C 0.52863 0.11908 0.466 0.0
C127 C 0.52221 0.09745 0.4704 0.0
C128 C 0.53319 0.08409 0.51148 0.0
C129 C 0.55231 0.09175 0.52084 0.0
C130 C 0.55782 0.10855 0.53158 0.0
C131 C 0.54436 0.11808 0.53309 0.0
C132 C 0.52529 0.11042 0.52362 0.0
C133 C 0.51973 0.09354 0.51293 0.0
C134 C 0.51833 0.03944 0.52208 0.0
C135 C 0.53417 0.03472 0.52809 0.0
C136 C 0.53766 0.03545 0.5439 0.0
C137 C 0.52538 0.04096 0.55394 0.0
C138 C 0.50812 0.04374 0.54795 0.0
C139 C 0.50458 0.04292 0.53212 0.0
C140 C 0.50007 0.00325 0.50009 0.0
C141 C 0.50969 0.98992 0.50006 0.0
C142 C 0.49728 0.96801 0.5056 0.0
C143 C 0.47516 0.95922 0.51132 0.0
C144 C 0.46563 0.97267 0.51113 0.0
C145 C 0.47797 0.99444 0.50562 0.0
C146 C 0.53937 0.0736 0.40867 0.0
C147 C 0.55015 0.13594 0.54449 0.0
H148 H 0.55327 0.51138 0.75696 0.0
H149 H 0.56223 0.43247 0.59733 0.0
H150 H 0.54381 0.55965 0.68044 0.0
H151 H 0.53533 0.57867 0.70041 0.0
H152 H 0.46451 0.52704 0.69824 0.0
H153 H 0.47318 0.50849 0.67792 0.0
H154 H 0.56233 0.52612 0.69057 0.0
H155 H 0.56545 0.52367 0.71839 0.0
H156 H 0.49251 0.48272 0.72181 0.0
H157 H 0.48967 0.4851 0.69396 0.0
H158 H 0.57408 0.50368 0.66375 0.0
H159 H 0.58578 0.47887 0.67437 0.0
H160 H 0.51657 0.43213 0.68785 0.0
H161 H 0.50512 0.45703 0.67729 0.0
H162 H 0.57044 0.52184 0.63074 0.0
H163 H 0.58581 0.50572 0.61324 0.0
H164 H 0.52867 0.43992 0.62316 0.0
H165 H 0.51336 0.45629 0.64048 0.0
H166 H 0.54778 0.55323 0.62838 0.0
H167 H 0.5563 0.56195 0.60115 0.0
H168 H 0.51108 0.49244 0.59011 0.0
H169 H 0.50194 0.48405 0.61737 0.0
H170 H 0.52494 0.56516 0.64783 0.0
H171 H 0.50015 0.57856 0.63921 0.0
H172 H 0.44544 0.51047 0.63333 0.0
H173 H 0.47028 0.49729 0.64165 0.0
O174 O 0.55166 0.51206 0.74597 0.0
O175 O 0.51409 0.49115 0.74711 0.0
O176 O 0.58546 0.47349 0.59936 0.0
O177 O 0.55651 0.43929 0.60416 0.0
C178 C 0.51507 0.52005 0.66739 0.0
C179 C 0.52401 0.50758 0.67342 0.0
C180 C 0.53145 0.49693 0.66338 0.0
C181 C 0.53144 0.50009 0.64737 0.0
C182 C 0.52244 0.51264 0.64141 0.0
C183 C 0.51323 0.52162 0.65143 0.0
C184 C 0.50911 0.53269 0.6779 0.0
C185 C 0.52642 0.55274 0.6841 0.0
C186 C 0.52156 0.56347 0.69553 0.0
C187 C 0.4993 0.5542 0.70103 0.0
C188 C 0.48179 0.53469 0.69416 0.0
C189 C 0.48668 0.52401 0.68264 0.0
C190 C 0.52579 0.50586 0.69029 0.0
C191 C 0.54707 0.51658 0.69736 0.0
C192 C 0.54879 0.51518 0.71324 0.0
C193 C 0.52922 0.50304 0.72233 0.0
C194 C 0.50791 0.49225 0.71516 0.0
C195 C 0.50623 0.49363 0.69927 0.0
C196 C 0.53876 0.48209 0.66974 0.0
C197 C 0.56149 0.48804 0.66896 0.0
C198 C 0.56811 0.47386 0.675 0.0
C199 C 0.55209 0.45358 0.68198 0.0
C200 C 0.52935 0.44778 0.68276 0.0
C201 C 0.52276 0.4619 0.67667 0.0
C202 C 0.5408 0.49022 0.63686 0.0
C203 C 0.56126 0.50395 0.62908 0.0
C204 C 0.57001 0.4947 0.61911 0.0
C205 C 0.55846 0.47151 0.6168 0.0
C206 C 0.53798 0.45782 0.62467 0.0
C207 C 0.52922 0.46711 0.6346 0.0
C208 C 0.5244 0.51799 0.62482 0.0
C209 C 0.53921 0.54001 0.62003 0.0
C210 C 0.54422 0.54492 0.6045 0.0
C211 C 0.5346 0.52784 0.59351 0.0
C212 C 0.51864 0.50599 0.59828 0.0
C213 C 0.51352 0.50112 0.61384 0.0
C214 C 0.49935 0.53029 0.64529 0.0
C215 C 0.50769 0.55323 0.64448 0.0
C216 C 0.49358 0.56081 0.63957 0.0
C217 C 0.4709 0.54549 0.63572 0.0
C218 C 0.4628 0.52258 0.63637 0.0
C219 C 0.47695 0.51506 0.64102 0.0
C220 C 0.5311 0.50167 0.73921 0.0
C221 C 0.5677 0.46158 0.60624 0.0
H222 H 0.04811 0.56555 0.93051 0.0
H223 H 0.13643 0.60108 0.7554 0.0
H224 H 0.98199 0.54232 0.85074 0.0
H225 H 0.95702 0.52409 0.87288 0.0
H226 H 0.98071 0.47814 0.8757 0.0
H227 H 0.00568 0.49657 0.85371 0.0
H228 H 0.02911 0.5725 0.86603 0.0
H229 H 0.03509 0.57407 0.89379 0.0
H230 H 0.05897 0.52838 0.88924 0.0
H231 H 0.0527 0.52682 0.86152 0.0
H232 H 0.08325 0.59744 0.8508 0.0
H233 H 0.12095 0.60806 0.86061 0.0
H234 H 0.11378 0.54856 0.84032 0.0
H235 H 0.07687 0.53853 0.8305 0.0
H236 H 0.07165 0.60285 0.81162 0.0
H237 H 0.10074 0.62266 0.79189 0.0
H238 H 0.09956 0.56188 0.78161 0.0
H239 H 0.0705 0.54233 0.8013 0.0
H240 H 0.02583 0.5746 0.79385 0.0
H241 H 0.03554 0.57861 0.76656 0.0
H242 H 0.03293 0.51589 0.7677 0.0
H243 H 0.02331 0.51204 0.79502 0.0
H244 H 0.97467 0.53467 0.81132 0.0
H245 H 0.93847 0.50352 0.80188 0.0
H246 H 0.96064 0.45786 0.81304 0.0
H247 H 0.9962 0.48883 0.82271 0.0
O248 O 0.04601 0.5648 0.9195 0.0
O249 O 0.0583 0.54141 0.91653 0.0
O250 O 0.12715 0.62524 0.77026 0.0
O251 O 0.12564 0.59392 0.76368 0.0
C252 C 0.01392 0.53441 0.83956 0.0
C253 C 0.03621 0.54828 0.84505 0.0
C254 C 0.05428 0.55947 0.83458 0.0
C255 C 0.04985 0.55883 0.81877 0.0
C256 C 0.0275 0.54524 0.81324 0.0
C257 C 0.00971 0.5322 0.82361 0.0
C258 C 0.9956 0.52074 0.85069 0.0
C259 C 0.98129 0.52794 0.85592 0.0
C260 C 0.9671 0.51754 0.86856 0.0
C261 C 0.96715 0.49988 0.87614 0.0
C262 C 0.98059 0.49194 0.87026 0.0
C263 C 0.99468 0.50228 0.85763 0.0
C264 C 0.0407 0.54975 0.86179 0.0
C265 C 0.03574 0.56295 0.87106 0.0
C266 C 0.03914 0.56378 0.88691 0.0
C267 C 0.04755 0.55138 0.89374 0.0
C268 C 0.05253 0.53818 0.88435 0.0
C269 C 0.04908 0.53734 0.86852 0.0
C270 C 0.07762 0.56745 0.83973 0.0
C271 C 0.09014 0.58701 0.84832 0.0
C272 C 0.11151 0.59293 0.85397 0.0
C273 C 0.12048 0.57929 0.85107 0.0
C274 C 0.10774 0.55979 0.8424 0.0
C275 C 0.08659 0.55397 0.8368 0.0
C276 C 0.06892 0.57118 0.8078 0.0
C277 C 0.07788 0.59394 0.80519 0.0
C278 C 0.09442 0.60516 0.79388 0.0
C279 C 0.10231 0.59378 0.78506 0.0
C280 C 0.09373 0.5711 0.78808 0.0
C281 C 0.07719 0.55991 0.79936 0.0
C282 C 0.02393 0.54308 0.79641 0.0
C283 C 0.02616 0.56116 0.78801 0.0
C284 C 0.03181 0.56348 0.77244 0.0
C285 C 0.03536 0.54773 0.76512 0.0
C286 C 0.03051 0.52836 0.77314 0.0
C287 C 0.02472 0.52599 0.78869 0.0
C288 C 0.98783 0.51387 0.81782 0.0
C289 C 0.97154 0.51789 0.81175 0.0
C290 C 0.95099 0.50012 0.8063 0.0
C291 C 0.9466 0.47817 0.80683 0.0
C292 C 0.96323 0.47444 0.81277 0.0
C293 C 0.98359 0.49211 0.81824 0.0
C294 C 0.05098 0.55217 0.91059 0.0
C295 C 0.11915 0.60535 0.7726 0.0
H296 H 0.41243 0.96683 0.89669 0.0
H297 H 0.43804 0.85272 0.03552 0.0
H298 H 0.45711 0.02012 0.97085 0.0
H299 H 0.47106 0.04998 0.95169 0.0
H300 H 0.53602 0.05482 0.95174 0.0
H301 H 0.52207 0.02546 0.97107 0.0
H302 H 0.42313 0.9643 0.96311 0.0
H303 H 0.41194 0.96266 0.93629 0.0
H304 H 0.48149 0.98995 0.92215 0.0
H305 H 0.49237 0.99116 0.94897 0.0
H306 H 0.4171 0.91997 0.98457 0.0
H307 H 0.40762 0.88383 0.9737 0.0
H308 H 0.47251 0.91583 0.95064 0.0
H309 H 0.48189 0.95132 0.96164 0.0
H310 H 0.43005 0.94141 0.0198 0.0
H311 H 0.41718 0.907 0.03436 0.0
H312 H 0.46672 0.8976 0.01082 0.0
H313 H 0.4796 0.93216 0.99651 0.0
H314 H 0.46215 0.9944 0.02975 0.0
H315 H 0.47015 0.99328 0.05705 0.0
H316 H 0.51299 0.96756 0.04513 0.0
H317 H 0.50525 0.96918 0.01795 0.0
H318 H 0.48418 0.03758 0.00561 0.0
H319 H 0.51561 0.07274 0.01588 0.0
H320 H 0.55923 0.04578 0.01348 0.0
H321 H 0.52809 0.01116 0.00303 0.0
O322 O 0.4172 0.96754 0.90722 0.0
O323 O 0.45325 0.98182 0.90057 0.0
O324 O 0.41784 0.87214 0.04187 0.0
O325 O 0.44285 0.86643 0.02997 0.0
C326 C 0.47906 2e-05 0.9816 0.0
C327 C 0.46517 0.97922 0.97436 0.0
C328 C 0.45834 0.95928 0.98247 0.0
C329 C 0.46332 0.96005 -0.00174 0.0
C330 C 0.47679 0.98082 0.00556 0.0
C331 C 0.48555 0.00075 0.99704 0.0
C332 C 0.48862 0.02073 0.97236 0.0
C333 C 0.47453 0.02812 0.967 0.0
C334 C 0.48247 0.045 0.95595 0.0
C335 C 0.5046 0.05466 0.95005 0.0
C336 C 0.51901 0.04801 0.95615 0.0
C337 C 0.51109 0.03122 0.96722 0.0
C338 C 0.45859 0.97815 0.958 0.0
C339 C 0.43591 0.9699 0.9542 0.0
C340 C 0.42958 0.96901 0.93887 0.0
C341 C 0.44584 0.97629 0.92707 0.0
C342 C 0.46856 0.98433 0.93095 0.0
C343 C 0.47484 0.98515 0.94627 0.0
C344 C 0.45015 0.93827 0.97384 0.0
C345 C 0.42897 0.91915 0.97687 0.0
C346 C 0.42364 0.89859 0.97072 0.0
C347 C 0.43931 0.89703 0.9613 0.0
C348 C 0.45989 0.9165 0.9576 0.0
C349 C 0.46528 0.93685 0.96388 0.0
C350 C 0.45559 0.93914 0.00702 0.0
C351 C 0.43808 0.93188 0.01782 0.0
C352 C 0.43077 0.91223 0.0261 0.0
C353 C 0.44088 0.8995 0.02371 0.0
C354 C 0.45853 0.90695 0.01292 0.0
C355 C 0.46588 0.92664 0.00469 0.0
C356 C 0.48292 0.98163 0.02194 0.0
C357 C 0.47344 0.98876 0.03308 0.0
C358 C 0.47794 0.98801 0.04862 0.0
C359 C 0.49213 0.98024 0.05324 0.0
C360 C 0.5022 0.97385 0.04195 0.0
C361 C 0.49764 0.97455 0.02644 0.0
C362 C 0.50391 0.02187 0.00366 0.0
C363 C 0.50054 0.03936 0.00736 0.0
C364 C 0.51843 0.05931 0.01326 0.0
C365 C 0.53989 0.06201 0.01541 0.0
C366 C 0.54301 0.04432 0.01176 0.0
C367 C 0.52521 0.02448 0.00592 0.0
C368 C 0.43908 0.97542 0.91081 0.0
C369 C 0.4331 0.87856 0.03243 0.0
H370 H 0.49984 0.45938 0.06245 0.0
H371 H 0.58806 0.43819 0.21672 0.0
H372 H 0.46359 0.47463 0.13897 0.0
H373 H 0.45025 0.48886 0.11863 0.0
H374 H 0.50717 0.55537 0.12656 0.0
H375 H 0.52059 0.54081 0.14683 0.0
H376 H 0.49012 0.44914 0.12917 0.0
H377 H 0.48992 0.44666 0.10114 0.0
H378 H 0.53713 0.51778 0.09841 0.0
H379 H 0.53744 0.51994 0.12643 0.0
H380 H 0.51411 0.43405 0.1541 0.0
H381 H 0.53793 0.42145 0.14252 0.0
H382 H 0.58644 0.48923 0.12887 0.0
H383 H 0.56299 0.50166 0.14087 0.0
H384 H 0.49877 0.43949 0.18913 0.0
H385 H 0.5142 0.42189 0.20515 0.0
H386 H 0.58204 0.47353 0.1922 0.0
H387 H 0.56639 0.49109 0.17638 0.0
H388 H 0.47433 0.46778 0.19684 0.0
H389 H 0.47228 0.46582 0.22497 0.0
H390 H 0.54521 0.50767 0.2271 0.0
H391 H 0.547 0.50985 0.19912 0.0
H392 H 0.46272 0.49658 0.17084 0.0
H393 H 0.4549 0.52436 0.1814 0.0
H394 H 0.52437 0.56412 0.19633 0.0
H395 H 0.53224 0.53688 0.18539 0.0
O396 O 0.50031 0.46071 0.07352 0.0
O397 O 0.52444 0.49734 0.07275 0.0
O398 O 0.54629 0.41872 0.21685 0.0
O399 O 0.58151 0.44481 0.21048 0.0
C400 C 0.50342 0.49713 0.15394 0.0
C401 C 0.51333 0.48616 0.14682 0.0
C402 C 0.52332 0.47691 0.15585 0.0
C403 C 0.52199 0.47721 0.172 0.0
C404 C 0.51215 0.48829 0.17908 0.0
C405 C 0.50379 0.49914 0.17005 0.0
C406 C 0.49307 0.5067 0.14424 0.0
C407 C 0.47279 0.49236 0.1366 0.0
C408 C 0.46517 0.50055 0.12504 0.0
C409 C 0.47778 0.5232 0.12095 0.0
C410 C 0.49727 0.5378 0.1294 0.0
C411 C 0.50486 0.52958 0.14102 0.0
C412 C 0.51365 0.48473 0.12981 0.0
C413 C 0.50046 0.46413 0.12249 0.0
C414 C 0.50035 0.46279 0.10648 0.0
C415 C 0.51344 0.48204 0.09753 0.0
C416 C 0.52679 0.50264 0.10495 0.0
C417 C 0.52695 0.50394 0.12095 0.0
C418 C 0.53689 0.46875 0.14833 0.0
C419 C 0.52988 0.4461 0.14859 0.0
C420 C 0.54341 0.43895 0.14189 0.0
C421 C 0.56412 0.45438 0.13485 0.0
C422 C 0.57078 0.47699 0.13441 0.0
C423 C 0.55733 0.48409 0.14113 0.0
C424 C 0.53146 0.46648 0.18155 0.0
C425 C 0.51695 0.44696 0.18978 0.0
C426 C 0.52581 0.43695 0.19891 0.0
C427 C 0.54937 0.44629 0.19993 0.0
C428 C 0.56383 0.46588 0.19165 0.0
C429 C 0.55495 0.4759 0.18256 0.0
C430 C 0.51083 0.48874 0.19602 0.0
C431 C 0.48978 0.47676 0.20345 0.0
C432 C 0.48865 0.47561 0.21946 0.0
C433 C 0.50857 0.48658 0.22822 0.0
C434 C 0.52954 0.4993 0.22068 0.0
C435 C 0.53064 0.50038 0.20472 0.0
C436 C 0.49805 0.51468 0.17737 0.0
C437 C 0.4762 0.51126 0.17643 0.0
C438 C 0.47176 0.52708 0.18245 0.0
C439 C 0.48902 0.54628 0.18974 0.0
C440 C 0.51068 0.54931 0.19099 0.0
C441 C 0.51518 0.53377 0.18475 0.0
C442 C 0.51313 0.48059 0.08053 0.0
C443 C 0.55887 0.43572 0.20961 0.0
Li444 Li 0.65816 0.47401 0.42525 0.0
Li445 Li 0.64902 0.43746 0.4183 0.0
Li446 Li 0.68433 0.46952 0.41015 0.0
Li447 Li 0.64847 0.46247 0.39954 0.0
C448 C 0.67028 0.45208 0.44645 0.0
N449 N 0.6615 0.43773 0.47661 0.0
C450 C 0.64914 0.44516 0.453 0.0
C451 C 0.68693 0.45167 0.45525 0.0
C452 C 0.64504 0.43798 0.46826 0.0
C453 C 0.68218 0.44437 0.47047 0.0
C454 C 0.60754 0.43375 0.41344 0.0
C455 C 0.58183 0.40143 0.39855 0.0
N456 N 0.56407 0.40213 0.4046 0.0
C457 C 0.58904 0.43417 0.41949 0.0
C458 C 0.60394 0.41726 0.40287 0.0
C459 C 0.56719 0.41803 0.41489 0.0
C460 C 0.63746 0.49588 0.43449 0.0
N461 N 0.65298 0.49111 0.43962 0.0
C462 C 0.65418 0.50699 0.46406 0.0
C463 C 0.66203 0.49707 0.4539 0.0
C464 C 0.63716 0.51101 0.4593 0.0
C465 C 0.62946 0.50607 0.4441 0.0
H466 H 0.63078 0.4911 0.42301 0.0
H467 H 0.6746 0.49334 0.45763 0.0
C468 C 0.64518 0.39612 0.418 0.0
N469 N 0.6358 0.40719 0.42421 0.0
C470 C 0.6365 0.37375 0.42156 0.0
C471 C 0.60889 0.3747 0.43811 0.0
C472 C 0.61791 0.39699 0.43404 0.0
C473 C 0.61819 0.36283 0.43178 0.0
H474 H 0.65949 0.40474 0.41029 0.0
H475 H 0.6106 0.40612 0.4387 0.0
C476 C 0.68576 0.51223 0.41236 0.0
N477 N 0.70714 0.55436 0.42504 0.0
C478 C 0.6801 0.52769 0.40754 0.0
C479 C 0.70238 0.51823 0.42357 0.0
C480 C 0.69108 0.5489 0.4141 0.0
C481 C 0.71297 0.5396 0.42986 0.0
C482 C 0.67052 0.4454 0.3829 0.0
C483 C 0.68133 0.46589 0.37521 0.0
C484 C 0.66833 0.42663 0.37568 0.0
C485 C 0.68982 0.46724 0.36043 0.0
C486 C 0.67703 0.42867 0.36088 0.0
N487 N 0.68752 0.44876 0.35363 0.0
C488 C 0.71979 0.4624 0.40821 0.0
C489 C 0.72962 0.49821 0.3992 0.0
C490 C 0.7411 0.46633 0.40424 0.0
N491 N 0.71449 0.47819 0.40559 0.0
C492 C 0.75124 0.50293 0.39514 0.0
C493 C 0.75717 0.48679 0.39754 0.0
H494 H 0.7072 0.44651 0.41309 0.0
H495 H 0.72478 0.51033 0.39705 0.0
C496 C 0.62578 0.47957 0.38459 0.0
N497 N 0.63202 0.46428 0.38296 0.0
C498 C 0.61119 0.48051 0.37407 0.0
C499 C 0.6096 0.4498 0.36036 0.0
C500 C 0.62435 0.44953 0.37114 0.0
C501 C 0.60272 0.46534 0.36185 0.0
H502 H 0.63153 0.4905 0.39442 0.0
H503 H 0.62904 0.43711 0.37037 0.0
O504 O 0.67479 0.45907 0.43151 0.0
O505 O 0.629 0.44969 0.41775 0.0
O506 O 0.67483 0.49117 0.40639 0.0
O507 O 0.66209 0.44354 0.39742 0.0
H508 H 0.63606 0.44543 0.44643 0.0
H509 H 0.70337 0.45693 0.45033 0.0
H510 H 0.62877 0.43261 0.47346 0.0
H511 H 0.69492 0.44398 0.47741 0.0
H512 H 0.5788 0.38859 0.39038 0.0
H513 H 0.59157 0.44688 0.42765 0.0
H514 H 0.61801 0.41669 0.398 0.0
H515 H 0.55272 0.41816 0.41948 0.0
H516 H 0.66055 0.51041 0.47569 0.0
H517 H 0.61683 0.50939 0.43978 0.0
H518 H 0.64425 0.36518 0.41658 0.0
H519 H 0.59465 0.36673 0.44596 0.0
H520 H 0.66737 0.52339 0.39882 0.0
H521 H 0.70685 0.5064 0.42751 0.0
H522 H 0.68683 0.56103 0.41051 0.0
H523 H 0.72577 0.54443 0.4386 0.0
H524 H 0.68316 0.48061 0.38053 0.0
H525 H 0.65995 0.41063 0.38144 0.0
H526 H 0.69823 0.48299 0.35436 0.0
H527 H 0.67545 0.41427 0.35517 0.0
H528 H 0.74468 0.45322 0.40602 0.0
H529 H 0.76312 0.519 0.39013 0.0
H530 H 0.60599 0.49248 0.37576 0.0
H531 H 0.60351 0.4379 0.35104 0.0
Li532 Li 0.23055 0.6358 0.5916 0.0
Li533 Li 0.25719 0.62771 0.58097 0.0
Li534 Li 0.26016 0.66363 0.57547 0.0
Li535 Li 0.22793 0.62791 0.56508 0.0
C536 C 0.26906 0.64774 0.60945 0.0
N537 N 0.28055 0.6385 0.63765 0.0
C538 C 0.256 0.6265 0.61593 0.0
C539 C 0.28798 0.66425 0.61729 0.0
C540 C 0.26208 0.62216 0.6302 0.0
C541 C 0.2935 0.65926 0.63155 0.0
C542 C 0.21799 0.58675 0.5768 0.0
C543 C 0.22459 0.56384 0.55956 0.0
N544 N 0.2068 0.5453 0.56596 0.0
C545 C 0.19985 0.56746 0.58325 0.0
C546 C 0.23053 0.58494 0.56489 0.0
C547 C 0.19442 0.54666 0.57759 0.0
C548 C 0.18998 0.614 0.60799 0.0
N549 N 0.21178 0.63121 0.60898 0.0
C550 C 0.20527 0.63973 0.63431 0.0
C551 C 0.21959 0.6442 0.62172 0.0
C552 C 0.18267 0.62201 0.63358 0.0
C553 C 0.17499 0.6092 0.62016 0.0
H554 H 0.18426 0.60399 0.59768 0.0
H555 H 0.23695 0.65796 0.62214 0.0
C556 C 0.29853 0.63018 0.58034 0.0
N557 N 0.27653 0.61643 0.58444 0.0
C558 C 0.31455 0.62437 0.58357 0.0
C559 C 0.28484 0.59004 0.59489 0.0
C560 C 0.26944 0.59667 0.59161 0.0
C561 C 0.30785 0.60408 0.59103 0.0
H562 H 0.30371 0.64598 0.57488 0.0
H563 H 0.25192 0.58621 0.59503 0.0
C564 C 0.2121 0.65717 0.5809 0.0
N565 N 0.18027 0.66407 0.59468 0.0
C566 C 0.18915 0.64324 0.57747 0.0
C567 C 0.2189 0.67469 0.59126 0.0
C568 C 0.17331 0.64699 0.58458 0.0
C569 C 0.20253 0.67788 0.59813 0.0
C570 C 0.2664 0.64722 0.54576 0.0
C571 C 0.26438 0.66403 0.53881 0.0
C572 C 0.27406 0.63565 0.53713 0.0
C573 C 0.26976 0.66881 0.52328 0.0
C574 C 0.27928 0.64092 0.52162 0.0
N575 N 0.27702 0.65724 0.51507 0.0
C576 C 0.30353 0.6986 0.56928 0.0
C577 C 0.2763 0.70947 0.56898 0.0
C578 C 0.32061 0.72 0.565 0.0
N579 N 0.28192 0.69377 0.57109 0.0
C580 C 0.29292 0.73118 0.5648 0.0
C581 C 0.31538 0.73659 0.56261 0.0
H582 H 0.30738 0.68567 0.57095 0.0
H583 H 0.25888 0.70502 0.57024 0.0
C584 C 0.19351 0.59435 0.54495 0.0
N585 N 0.20771 0.61646 0.54779 0.0
C586 C 0.17865 0.58734 0.53254 0.0
C587 C 0.19269 0.62587 0.52633 0.0
C588 C 0.20727 0.63213 0.53888 0.0
C589 C 0.17812 0.60319 0.523 0.0
H590 H 0.19317 0.58197 0.5524 0.0
H591 H 0.21802 0.64957 0.54165 0.0
O592 O 0.26367 0.6524 0.59541 0.0
O593 O 0.22367 0.60714 0.5825 0.0
O594 O 0.22779 0.6534 0.57437 0.0
O595 O 0.26132 0.64231 0.56098 0.0
H596 H 0.24133 0.61347 0.61003 0.0
H597 H 0.2983 0.68075 0.61239 0.0
H598 H 0.25213 0.60581 0.63535 0.0
H599 H 0.3081 0.67189 0.63775 0.0
H600 H 0.23413 0.56221 0.55034 0.0
H601 H 0.19008 0.56857 0.59256 0.0
H602 H 0.24466 0.5996 0.55981 0.0
H603 H 0.18039 0.5316 0.58245 0.0
H604 H 0.21172 0.65005 0.64446 0.0
H605 H 0.15773 0.59529 0.61924 0.0
H606 H 0.3321 0.63598 0.58063 0.0
H607 H 0.27875 0.57413 0.60047 0.0
H608 H 0.18362 0.62952 0.56955 0.0
H609 H 0.23659 0.68546 0.59415 0.0
H610 H 0.15548 0.63628 0.58211 0.0
H611 H 0.20752 0.69126 0.60626 0.0
H612 H 0.25855 0.67321 0.54531 0.0
H613 H 0.27602 0.62278 0.54237 0.0
H614 H 0.26815 0.6817 0.51774 0.0
H615 H 0.28517 0.63207 0.51479 0.0
H616 H 0.33774 0.72354 0.56359 0.0
H617 H 0.28815 0.74344 0.56289 0.0
H618 H 0.16733 0.56966 0.53064 0.0
H619 H 0.19292 0.6387 0.51929 0.0
Li620 Li 0.65973 0.2383 0.7497 0.0
Li621 Li 0.62507 0.21309 0.76276 0.0
Li622 Li 0.62896 0.20863 0.73571 0.0
Li623 Li 0.62597 0.23929 0.7445 0.0
C624 C 0.65783 0.20173 0.76385 0.0
N625 N 0.68085 0.19372 0.78634 0.0
C626 C 0.66767 0.2165 0.77612 0.0
C627 C 0.65969 0.18289 0.76302 0.0
C628 C 0.67924 0.21216 0.78738 0.0
C629 C 0.67141 0.17913 0.7745 0.0
C630 C 0.63378 0.25406 0.77431 0.0
C631 C 0.60165 0.25164 0.78715 0.0
N632 N 0.61587 0.27049 0.79509 0.0
C633 C 0.64807 0.27342 0.78257 0.0
C634 C 0.61037 0.24307 0.77659 0.0
C635 C 0.63869 0.28145 0.79303 0.0
C636 C 0.69714 0.27978 0.75203 0.0
N637 N 0.69134 0.25814 0.75138 0.0
C638 C 0.73001 0.2686 0.75404 0.0
C639 C 0.70719 0.25224 0.75205 0.0
C640 C 0.7364 0.2911 0.75505 0.0
C641 C 0.71967 0.29662 0.75383 0.0
H642 H 0.6841 0.28388 0.75136 0.0
H643 H 0.70212 0.23489 0.75124 0.0
C644 C 0.59434 0.17675 0.78117 0.0
N645 N 0.61247 0.19792 0.7816 0.0
C646 C 0.58453 0.16518 0.7948 0.0
C647 C 0.61226 0.19745 0.80901 0.0
C648 C 0.6216 0.2083 0.79514 0.0
C649 C 0.59346 0.17558 0.80899 0.0
H650 H 0.58755 0.16887 0.77022 0.0
H651 H 0.6361 0.2251 0.7952 0.0
C652 C 0.66344 0.24344 0.7185 0.0
N653 N 0.69482 0.24989 0.69624 0.0
C654 C 0.6695 0.25972 0.70719 0.0
C655 C 0.67338 0.23047 0.71852 0.0
C656 C 0.68538 0.26271 0.69602 0.0
C657 C 0.6892 0.23398 0.70716 0.0
C658 C 0.58543 0.20088 0.73626 0.0
C659 C 0.58941 0.21186 0.72217 0.0
C660 C 0.56369 0.18327 0.73985 0.0
C661 C 0.57154 0.20499 0.71187 0.0
C662 C 0.54625 0.1769 0.72925 0.0
N663 N 0.5505 0.1878 0.71559 0.0
C664 C 0.61074 0.16562 0.72259 0.0
C665 C 0.62036 0.19487 0.70487 0.0
C666 C 0.60163 0.14986 0.71079 0.0
N667 N 0.61969 0.18761 0.71943 0.0
C668 C 0.61165 0.17981 0.69278 0.0
C669 C 0.60171 0.1569 0.69566 0.0
H670 H 0.61011 0.16029 0.73433 0.0
H671 H 0.62705 0.21232 0.70264 0.0
C672 C 0.63286 0.27933 0.73391 0.0
N673 N 0.6165 0.25952 0.73985 0.0
C674 C 0.62791 0.29554 0.72994 0.0
C675 C 0.58937 0.27076 0.73849 0.0
C676 C 0.59509 0.25499 0.74232 0.0
C677 C 0.60589 0.29131 0.73212 0.0
H678 H 0.6498 0.2825 0.73229 0.0
H679 H 0.58245 0.23912 0.74717 0.0
O680 O 0.64628 0.20545 0.75269 0.0
O681 O 0.64282 0.24613 0.76398 0.0
O682 O 0.64804 0.24053 0.72956 0.0
O683 O 0.60267 0.20704 0.7465 0.0
H684 H 0.66654 0.23123 0.77694 0.0
H685 H 0.65214 0.17129 0.7536 0.0
H686 H 0.68696 0.22347 0.79692 0.0
H687 H 0.67298 0.16461 0.77401 0.0
H688 H 0.58357 0.2433 0.78904 0.0
H689 H 0.66623 0.28212 0.78091 0.0
H690 H 0.59903 0.22807 0.77031 0.0
H691 H 0.64955 0.29641 0.79952 0.0
H692 H 0.7425 0.26375 0.75483 0.0
H693 H 0.72384 0.31372 0.75474 0.0
H694 H 0.57028 0.14823 0.79422 0.0
H695 H 0.61954 0.20628 0.81963 0.0
H696 H 0.66199 0.26992 0.70703 0.0
H697 H 0.66896 0.21782 0.72718 0.0
H698 H 0.69022 0.27524 0.68719 0.0
H699 H 0.69701 0.22406 0.70704 0.0
H700 H 0.60612 0.22551 0.71916 0.0
H701 H 0.56034 0.17458 0.7507 0.0
H702 H 0.5744 0.21332 0.70092 0.0
H703 H 0.52933 0.16328 0.73187 0.0
H704 H 0.59398 0.13235 0.71355 0.0
H705 H 0.6125 0.18609 0.68129 0.0
H706 H 0.64126 0.31129 0.72533 0.0
H707 H 0.57215 0.26677 0.74026 0.0
Li708 Li 0.41844 0.5976 0.92631 0.0
Li709 Li 0.43102 0.63429 0.91571 0.0
Li710 Li 0.39301 0.60265 0.91086 0.0
Li711 Li 0.42618 0.605 0.89924 0.0
C712 C 0.38962 0.61884 0.93716 0.0
N713 N 0.35439 0.62228 0.94892 0.0
C714 C 0.39148 0.63961 0.938 0.0
C715 C 0.36983 0.59984 0.94239 0.0
C716 C 0.3735 0.641 0.94398 0.0
C717 C 0.35221 0.60192 0.94825 0.0
C718 C 0.46829 0.6352 0.92146 0.0
C719 C 0.50297 0.67047 0.91756 0.0
N720 N 0.5089 0.66998 0.93236 0.0
C721 C 0.47472 0.63505 0.93664 0.0
C722 C 0.48253 0.65303 0.91182 0.0
C723 C 0.49533 0.65278 0.94193 0.0
C724 C 0.43414 0.57384 0.94332 0.0
N725 N 0.42072 0.58269 0.94364 0.0
C726 C 0.41207 0.57325 0.97007 0.0
C727 C 0.40969 0.58246 0.9566 0.0
C728 C 0.42619 0.56443 0.97024 0.0
C729 C 0.43715 0.56455 0.95661 0.0
H730 H 0.44299 0.5746 0.93288 0.0
H731 H 0.39964 0.5901 0.95665 0.0
C732 C 0.44472 0.67828 0.9089 0.0
N733 N 0.44615 0.66518 0.91974 0.0
C734 C 0.45051 0.69992 0.91248 0.0
C735 C 0.46031 0.69458 0.9381 0.0
C736 C 0.45424 0.67297 0.93402 0.0
C737 C 0.45766 0.70806 0.92741 0.0
H738 H 0.43753 0.67144 0.89782 0.0
H739 H 0.45454 0.66192 0.94254 0.0
C740 C 0.39549 0.55856 0.9136 0.0
N741 N 0.38841 0.51833 0.92417 0.0
C742 C 0.40912 0.55063 0.90834 0.0
C743 C 0.3782 0.54599 0.92417 0.0
C744 C 0.40526 0.53025 0.91383 0.0
C745 C 0.37492 0.52572 0.9294 0.0
C746 C 0.41493 0.62723 0.88078 0.0
C747 C 0.39544 0.61336 0.87228 0.0
C748 C 0.435 0.64235 0.87318 0.0
C749 C 0.39642 0.61476 0.85627 0.0
C750 C 0.43529 0.64319 0.85715 0.0
N751 N 0.41616 0.62949 0.8491 0.0
C752 C 0.36094 0.61387 0.90586 0.0
C753 C 0.34502 0.57473 0.90702 0.0
C754 C 0.33962 0.61102 0.90407 0.0
N755 N 0.36317 0.59589 0.90752 0.0
C756 C 0.32331 0.57108 0.90497 0.0
C757 C 0.32051 0.58943 0.90363 0.0
H758 H 0.3758 0.63047 0.90608 0.0
H759 H 0.3474 0.56078 0.90825 0.0
C760 C 0.45807 0.61105 0.8763 0.0
N761 N 0.43613 0.59852 0.8809 0.0
C762 C 0.46422 0.60872 0.86148 0.0
C763 C 0.42531 0.57977 0.85682 0.0
C764 C 0.41991 0.58273 0.87169 0.0
C765 C 0.4476 0.59325 0.85145 0.0
H766 H 0.47057 0.62348 0.88389 0.0
H767 H 0.40255 0.57322 0.87566 0.0
O768 O 0.40688 0.61705 0.93105 0.0
O769 O 0.44812 0.61807 0.91608 0.0
O770 O 0.39927 0.57866 0.90858 0.0
O771 O 0.41452 0.62562 0.89645 0.0
H772 H 0.4065 0.65449 0.93393 0.0
H773 H 0.3679 0.58358 0.94163 0.0
H774 H 0.3747 0.65695 0.94463 0.0
H775 H 0.33675 0.58732 0.9522 0.0
H776 H 0.51408 0.68443 0.91025 0.0
H777 H 0.46389 0.6215 0.9443 0.0
H778 H 0.47768 0.65361 0.90012 0.0
H779 H 0.50049 0.6529 0.95365 0.0
H780 H 0.40374 0.57395 0.9804 0.0
H781 H 0.4482 0.55791 0.95631 0.0
H782 H 0.44776 0.7095 0.90396 0.0
H783 H 0.46589 0.70026 0.9497 0.0
H784 H 0.42269 0.56022 0.90024 0.0
H785 H 0.36759 0.55196 0.92841 0.0
H786 H 0.41574 0.52394 0.90992 0.0
H787 H 0.36169 0.51588 0.93765 0.0
H788 H 0.37982 0.60142 0.87795 0.0
H789 H 0.4503 0.65304 0.87957 0.0
H790 H 0.38151 0.60404 0.84954 0.0
H791 H 0.45076 0.65465 0.85111 0.0
H792 H 0.33811 0.62553 0.90279 0.0
H793 H 0.30888 0.5542 0.90459 0.0
H794 H 0.48165 0.61922 0.8578 0.0
H795 H 0.41197 0.56782 0.8494 0.0
Li796 Li 0.77864 0.37552 0.08035 0.0
Li797 Li 0.80827 0.37342 0.09222 0.0
Li798 Li 0.80855 0.37839 0.06455 0.0
Li799 Li 0.78071 0.34289 0.07673 0.0
C800 C 0.81532 0.41596 0.0908 0.0
N801 N 0.82431 0.44954 0.11131 0.0
C802 C 0.80178 0.41137 0.10385 0.0
C803 C 0.83342 0.43762 0.08818 0.0
C804 C 0.8066 0.42857 0.11408 0.0
C805 C 0.83769 0.45438 0.09869 0.0
C806 C 0.77114 0.33873 0.10737 0.0
C807 C 0.77974 0.31357 0.12019 0.0
N808 N 0.7625 0.30799 0.13023 0.0
C809 C 0.75348 0.3327 0.11779 0.0
C810 C 0.78437 0.32906 0.10854 0.0
C811 C 0.7494 0.31715 0.12928 0.0
C812 C 0.73613 0.36752 0.08748 0.0
N813 N 0.75686 0.38396 0.08262 0.0
C814 C 0.74445 0.40991 0.0816 0.0
C815 C 0.7613 0.40482 0.07952 0.0
C816 C 0.72293 0.39332 0.08689 0.0
C817 C 0.71882 0.37183 0.08969 0.0
H818 H 0.73309 0.35102 0.08965 0.0
H819 H 0.77793 0.41751 0.07552 0.0
C820 C 0.84911 0.38968 0.10901 0.0
N821 N 0.82658 0.38183 0.1102 0.0
C822 C 0.86278 0.39697 0.1221 0.0
C823 C 0.8297 0.38759 0.13732 0.0
C824 C 0.81679 0.38078 0.12398 0.0
C825 C 0.85302 0.39591 0.13648 0.0
H826 H 0.85648 0.39054 0.09788 0.0
H827 H 0.79899 0.37507 0.12463 0.0
C828 C 0.76344 0.36584 0.05203 0.0
N829 N 0.73822 0.37839 0.03499 0.0
C830 C 0.74087 0.35025 0.04852 0.0
C831 C 0.7732 0.38779 0.04683 0.0
C832 C 0.7284 0.35693 0.0399 0.0
C833 C 0.76017 0.39381 0.03824 0.0
C834 C 0.82111 0.3467 0.06602 0.0
C835 C 0.80888 0.33744 0.05253 0.0
C836 C 0.84022 0.34539 0.06905 0.0
C837 C 0.81597 0.32699 0.04229 0.0
C838 C 0.84677 0.33479 0.05853 0.0
N839 N 0.83461 0.3259 0.04547 0.0
C840 C 0.84751 0.40938 0.04742 0.0
C841 C 0.81634 0.38254 0.03278 0.0
C842 C 0.8599 0.41937 0.03402 0.0
N843 N 0.82612 0.3914 0.04652 0.0
C844 C 0.82801 0.39201 0.01915 0.0
C845 C 0.85002 0.41078 0.01964 0.0
H846 H 0.85482 0.4161 0.05853 0.0
H847 H 0.79932 0.36819 0.03238 0.0
C848 C 0.73916 0.30538 0.07512 0.0
N849 N 0.76132 0.31164 0.07475 0.0
C850 C 0.72232 0.28317 0.0731 0.0
C851 C 0.75136 0.27393 0.07102 0.0
C852 C 0.76773 0.29644 0.07316 0.0
C853 C 0.72831 0.26714 0.07078 0.0
H854 H 0.73464 0.31783 0.07679 0.0
H855 H 0.78546 0.30173 0.07342 0.0
O856 O 0.81114 0.39942 0.08064 0.0
O857 O 0.77514 0.35384 0.09601 0.0
O858 O 0.7758 0.3598 0.06079 0.0
O859 O 0.81476 0.35728 0.0762 0.0
H860 H 0.7877 0.39472 0.10609 0.0
H861 H 0.84408 0.44143 0.07814 0.0
H862 H 0.79626 0.42523 0.12423 0.0
H863 H 0.85166 0.47122 0.0968 0.0
H864 H 0.78984 0.30598 0.12123 0.0
H865 H 0.74306 0.34 0.11701 0.0
H866 H 0.79807 0.33343 0.10058 0.0
H867 H 0.7358 0.31236 0.13744 0.0
H868 H 0.74837 0.42673 0.07941 0.0
H869 H 0.70238 0.35846 0.09351 0.0
H870 H 0.88073 0.4033 0.12101 0.0
H871 H 0.82162 0.38693 0.14813 0.0
H872 H 0.73305 0.33317 0.05238 0.0
H873 H 0.79055 0.40015 0.04962 0.0
H874 H 0.71091 0.34505 0.03712 0.0
H875 H 0.76747 0.41077 0.03422 0.0
H876 H 0.79394 0.33809 0.05004 0.0
H877 H 0.8499 0.35254 0.07944 0.0
H878 H 0.80663 0.31972 0.03183 0.0
H879 H 0.86152 0.33366 0.06073 0.0
H880 H 0.87679 0.43391 0.03489 0.0
H881 H 0.8199 0.38465 0.00832 0.0
H882 H 0.7048 0.27876 0.07287 0.0
H883 H 0.75665 0.262 0.0695 0.0
Li884 Li 0.47766 0.82636 0.26371 0.0
Li885 Li 0.44196 0.80349 0.24855 0.0
Li886 Li 0.475 0.80166 0.24303 0.0
Li887 Li 0.47398 0.83363 0.23585 0.0
C888 C 0.45721 0.77551 0.2675 0.0
N889 N 0.45721 0.73775 0.27626 0.0
C890 C 0.44023 0.75459 0.26231 0.0
C891 C 0.47407 0.77726 0.27725 0.0
C892 C 0.44057 0.73569 0.26683 0.0
C893 C 0.47378 0.75795 0.28153 0.0
C894 C 0.43968 0.83733 0.25894 0.0
C895 C 0.40424 0.83515 0.2541 0.0
N896 N 0.40295 0.83939 0.26917 0.0
C897 C 0.43809 0.84187 0.27435 0.0
C898 C 0.42271 0.83414 0.2487 0.0
C899 C 0.41936 0.84278 0.27931 0.0
C900 C 0.50697 0.85961 0.28461 0.0
N901 N 0.48838 0.83886 0.2833 0.0
C902 C 0.48062 0.83763 0.3101 0.0
C903 C 0.47553 0.82758 0.29568 0.0
C904 C 0.49932 0.85943 0.31182 0.0
C905 C 0.51297 0.87014 0.29888 0.0
H906 H 0.51674 0.86822 0.2745 0.0
H907 H 0.46058 0.81123 0.29419 0.0
C908 C 0.39748 0.77308 0.23872 0.0
N909 N 0.41025 0.78509 0.25088 0.0
C910 C 0.37464 0.75698 0.24077 0.0
C911 C 0.37848 0.76634 0.26774 0.0
C912 C 0.40127 0.78216 0.26518 0.0
C913 C 0.36495 0.75316 0.2555 0.0
H914 H 0.40526 0.77532 0.22757 0.0
H915 H 0.41201 0.79163 0.27469 0.0
C916 C 0.5188 0.83248 0.24573 0.0
N917 N 0.55787 0.83092 0.24419 0.0
C918 C 0.52686 0.83017 0.23156 0.0
C919 C 0.53063 0.83401 0.25912 0.0
C920 C 0.54662 0.82938 0.23102 0.0
C921 C 0.55036 0.83322 0.2581 0.0
C922 C 0.45414 0.80694 0.21307 0.0
C923 C 0.46983 0.80624 0.20331 0.0
C924 C 0.43893 0.81247 0.20712 0.0
C925 C 0.47017 0.81129 0.18777 0.0
C926 C 0.43986 0.81748 0.19151 0.0
N927 N 0.45533 0.8168 0.18224 0.0
C928 C 0.46673 0.76384 0.22742 0.0
C929 C 0.49839 0.77704 0.24384 0.0
C930 C 0.46804 0.74533 0.2235 0.0
N931 N 0.48183 0.77933 0.23735 0.0
C932 C 0.50043 0.7588 0.24015 0.0
C933 C 0.48502 0.74255 0.2299 0.0
H934 H 0.45308 0.7654 0.22293 0.0
H935 H 0.50956 0.78888 0.25226 0.0
C936 C 0.47192 0.86852 0.22151 0.0
N937 N 0.48265 0.85692 0.22115 0.0
C938 C 0.47609 0.88421 0.21014 0.0
C939 C 0.50295 0.87637 0.19853 0.0
C940 C 0.49832 0.8609 0.21018 0.0
C941 C 0.49148 0.88801 0.19827 0.0
H942 H 0.4598 0.86533 0.23047 0.0
H943 H 0.50669 0.85154 0.21015 0.0
O944 O 0.45757 0.79425 0.26283 0.0
O945 O 0.45777 0.83609 0.2539 0.0
O946 O 0.49965 0.8336 0.24649 0.0
O947 O 0.45388 0.80254 0.22841 0.0
H948 H 0.42711 0.75303 0.25471 0.0
H949 H 0.48738 0.79338 0.28129 0.0
H950 H 0.42766 0.71939 0.26281 0.0
H951 H 0.48681 0.75903 0.28899 0.0
H952 H 0.39091 0.83252 0.24631 0.0
H953 H 0.45118 0.84475 0.2824 0.0
H954 H 0.42365 0.83064 0.23674 0.0
H955 H 0.4179 0.8462 0.29121 0.0
H956 H 0.46932 0.82878 0.31959 0.0
H957 H 0.52782 0.88671 0.29964 0.0
H958 H 0.36497 0.74695 0.23106 0.0
H959 H 0.37166 0.76413 0.27925 0.0
H960 H 0.51784 0.8287 0.2211 0.0
H961 H 0.52457 0.8356 0.2702 0.0
H962 H 0.55298 0.82748 0.22014 0.0
H963 H 0.55964 0.83433 0.26837 0.0
H964 H 0.48182 0.80213 0.20772 0.0
H965 H 0.42666 0.81306 0.21447 0.0
H966 H 0.48231 0.81094 0.18011 0.0
H967 H 0.4283 0.82195 0.18678 0.0
H968 H 0.45534 0.73296 0.21593 0.0
H969 H 0.51379 0.75736 0.2454 0.0
H970 H 0.46717 0.8931 0.21056 0.0
H971 H 0.51477 0.87856 0.18953 0.0
C972 C 0.16614 0.60232 0.27011 0.0
C973 C 0.16179 0.59228 0.28469 0.0
C974 C 0.18821 0.61818 0.26566 0.0
C975 C 0.24843 0.64077 0.27468 0.0
H976 H 0.25681 0.69563 0.25767 0.0
C977 C 0.33603 0.72111 0.27138 0.0
C978 C 0.34135 0.73459 0.25824 0.0
C979 C 0.31411 0.70307 0.27374 0.0
C980 C 0.25476 0.68032 0.26219 0.0
H981 H 0.17729 0.59056 0.30585 0.0
H982 H 0.21585 0.61807 0.29801 0.0
H983 H 0.21869 0.66447 0.26287 0.0
H984 H 0.32769 0.73978 0.23735 0.0
H985 H 0.28948 0.70795 0.2413 0.0
H986 H 0.2845 0.65663 0.27407 0.0
C987 C 0.20219 0.61355 0.28999 0.0
C988 C 0.23292 0.66246 0.26516 0.0
C989 C 0.1801 0.59775 0.29446 0.0
C990 C 0.32419 0.72963 0.24754 0.0
C991 C 0.30224 0.71152 0.24988 0.0
C992 C 0.27028 0.65859 0.27164 0.0
C993 C 0.20641 0.62426 0.27567 0.0
C994 C 0.22954 0.64259 0.27159 0.0
C995 C 0.29698 0.69797 0.26298 0.0
C996 C 0.27371 0.67867 0.26552 0.0
H997 H 0.15242 0.59817 0.26222 0.0
H998 H 0.19102 0.6259 0.25446 0.0
H999 H 0.24632 0.62556 0.27945 0.0
H1000 H 0.3489 0.72423 0.27975 0.0
H1001 H 0.31056 0.69318 0.28407 0.0
C1002 C 0.55351 0.16582 0.45134 0.0
C1003 C 0.5562 0.16023 0.46633 0.0
C1004 C 0.55947 0.1876 0.44777 0.0
C1005 C 0.59308 0.24567 0.46247 0.0
H1006 H 0.55826 0.25622 0.43252 0.0
C1007 C 0.60591 0.33261 0.4514 0.0
C1008 C 0.60911 0.33924 0.43593 0.0
C1009 C 0.59851 0.31056 0.45533 0.0
C1010 C 0.56815 0.25347 0.44087 0.0
H1011 H 0.56663 0.17273 0.48941 0.0
H1012 H 0.57637 0.21058 0.48336 0.0
H1013 H 0.54707 0.21806 0.4391 0.0
H1014 H 0.60646 0.32805 0.41245 0.0
H1015 H 0.59315 0.28936 0.41933 0.0
H1016 H 0.61383 0.28117 0.46441 0.0
C1017 C 0.57037 0.19842 0.4742 0.0
C1018 C 0.56186 0.23163 0.44459 0.0
C1019 C 0.56472 0.17672 0.47771 0.0
C1020 C 0.60425 0.32335 0.42446 0.0
C1021 C 0.59651 0.30124 0.42838 0.0
C1022 C 0.59915 0.26747 0.4589 0.0
C1023 C 0.56793 0.2042 0.45916 0.0
C1024 C 0.57433 0.22744 0.45538 0.0
C1025 C 0.59384 0.29471 0.44386 0.0
C1026 C 0.58683 0.27157 0.448 0.0
H1027 H 0.54714 0.1534 0.44234 0.0
H1028 H 0.55774 0.19148 0.43601 0.0
H1029 H 0.60338 0.24316 0.4706 0.0
H1030 H 0.60967 0.34459 0.46045 0.0
H1031 H 0.59645 0.30588 0.46734 0.0
C1032 C 0.43428 0.54401 0.6388 0.0
C1033 C 0.45534 0.55313 0.63143 0.0
C1034 C 0.41895 0.55021 0.63436 0.0
C1035 C 0.414 0.59277 0.61212 0.0
H1036 H 0.35016 0.54711 0.61293 0.0
C1037 C 0.34357 0.6039 0.58557 0.0
C1038 C 0.32485 0.59799 0.59517 0.0
C1039 C 0.35985 0.59876 0.58973 0.0
C1040 C 0.36792 0.56004 0.61272 0.0
H1041 H 0.4771 0.57603 0.61379 0.0
H1042 H 0.45003 0.58645 0.60562 0.0
H1043 H 0.37807 0.53775 0.62053 0.0
H1044 H 0.3089 0.58217 0.61682 0.0
H1045 H 0.33689 0.57256 0.62373 0.0
H1046 H 0.4036 0.61486 0.60389 0.0
C1047 C 0.44549 0.57487 0.61508 0.0
C1048 C 0.38396 0.55475 0.61716 0.0
C1049 C 0.46099 0.56888 0.61969 0.0
C1050 C 0.32276 0.58658 0.60896 0.0
C1051 C 0.33886 0.58118 0.61299 0.0
C1052 C 0.39793 0.59797 0.60747 0.0
C1053 C 0.42416 0.56544 0.62227 0.0
C1054 C 0.40721 0.57109 0.61709 0.0
C1055 C 0.35761 0.5873 0.60345 0.0
C1056 C 0.37474 0.5817 0.60787 0.0
H1057 H 0.42969 0.53206 0.64804 0.0
H1058 H 0.403 0.54304 0.64047 0.0
H1059 H 0.43168 0.60586 0.61209 0.0
H1060 H 0.34559 0.61234 0.57475 0.0
H1061 H 0.37404 0.60345 0.58209 0.0
C1062 C 0.91431 0.43869 0.80918 0.0
C1063 C 0.92485 0.45909 0.80122 0.0
C1064 C 0.8945 0.42032 0.8036 0.0
C1065 C 0.86072 0.39763 0.76819 0.0
H1066 H 0.81386 0.35789 0.79678 0.0
C1067 C 0.77004 0.32927 0.75039 0.0
C1068 C 0.7601 0.30881 0.75824 0.0
C1069 C 0.79124 0.34701 0.75475 0.0
C1070 C 0.82693 0.36867 0.78867 0.0
H1071 H 0.92261 0.47625 0.78123 0.0
H1072 H 0.88751 0.44431 0.77173 0.0
H1073 H 0.8479 0.39066 0.80641 0.0
H1074 H 0.76488 0.29057 0.77641 0.0
H1075 H 0.80204 0.32158 0.784 0.0
H1076 H 0.83934 0.37574 0.75043 0.0
C1077 C 0.89488 0.44242 0.78214 0.0
C1078 C 0.84645 0.38747 0.79418 0.0
C1079 C 0.91482 0.46082 0.7877 0.0
C1080 C 0.7722 0.30611 0.7701 0.0
C1081 C 0.79333 0.32391 0.77454 0.0
C1082 C 0.84109 0.37888 0.76267 0.0
C1083 C 0.88457 0.42191 0.78999 0.0
C1084 C 0.86362 0.40216 0.78402 0.0
C1085 C 0.80283 0.34467 0.76711 0.0
C1086 C 0.82404 0.36418 0.77287 0.0
H1087 H 0.9214 0.43686 0.81976 0.0
H1088 H 0.88718 0.40474 0.80986 0.0
H1089 H 0.87376 0.4084 0.76007 0.0
H1090 H 0.76114 0.33173 0.74111 0.0
H1091 H 0.79811 0.36283 0.74886 0.0
C1092 C 0.44249 0.87241 0.94204 0.0
C1093 C 0.43579 0.87517 0.95669 0.0
C1094 C 0.44364 0.85362 0.9387 0.0
C1095 C 0.42609 0.79687 0.95132 0.0
H1096 H 0.48332 0.81059 0.93331 0.0
C1097 C 0.44989 0.73012 0.94628 0.0
C1098 C 0.45927 0.72909 0.9322 0.0
C1099 C 0.44798 0.74843 0.94981 0.0
C1100 C 0.46716 0.80643 0.93819 0.0
H1101 H 0.42377 0.85982 0.97905 0.0
H1102 H 0.42541 0.82675 0.97311 0.0
H1103 H 0.47568 0.84036 0.93744 0.0
H1104 H 0.47525 0.7471 0.9112 0.0
H1105 H 0.4714 0.77882 0.91717 0.0
H1106 H 0.41741 0.76291 0.95191 0.0
C1107 C 0.42979 0.83916 0.96423 0.0
C1108 C 0.46277 0.82347 0.94053 0.0
C1109 C 0.42874 0.85803 0.9676 0.0
C1110 C 0.46771 0.74729 0.92207 0.0
C1111 C 0.46568 0.76556 0.92555 0.0
C1112 C 0.43041 0.77978 0.94888 0.0
C1113 C 0.43799 0.83717 0.94992 0.0
C1114 C 0.44218 0.81885 0.94709 0.0
C1115 C 0.45527 0.76607 0.9393 0.0
C1116 C 0.45101 0.78437 0.9423 0.0
H1117 H 0.44771 0.88523 0.93335 0.0
H1118 H 0.44958 0.85226 0.92748 0.0
H1119 H 0.41003 0.79285 0.95631 0.0
H1120 H 0.44298 0.71629 0.95429 0.0
H1121 H 0.44029 0.74852 0.96063 0.0
C1122 C 0.57018 0.4275 0.11968 0.0
C1123 C 0.5791 0.44719 0.12831 0.0
C1124 C 0.58452 0.421 0.11346 0.0
C1125 C 0.64435 0.44296 0.103 0.0
H1126 H 0.62827 0.38147 0.10712 0.0
C1127 C 0.70161 0.41209 0.07984 0.0
C1128 C 0.70499 0.39844 0.0899 0.0
C1129 C 0.68492 0.41713 0.08292 0.0
C1130 C 0.63299 0.3987 0.10589 0.0
H1131 H 0.60997 0.47517 0.1375 0.0
H1132 H 0.63489 0.46386 0.12668 0.0
H1133 H 0.60173 0.3923 0.11566 0.0
H1134 H 0.69369 0.37959 0.11116 0.0
H1135 H 0.66466 0.38837 0.11652 0.0
H1136 H 0.67592 0.44954 0.09374 0.0
C1137 C 0.6169 0.45368 0.12443 0.0
C1138 C 0.6177 0.40485 0.11063 0.0
C1139 C 0.60261 0.46015 0.13065 0.0
C1140 C 0.69124 0.38982 0.10303 0.0
C1141 C 0.67458 0.39483 0.1061 0.0
C1142 C 0.65962 0.43681 0.09823 0.0
C1143 C 0.60804 0.43407 0.11575 0.0
C1144 C 0.62339 0.42713 0.10949 0.0
C1145 C 0.67128 0.4086 0.09612 0.0
C1146 C 0.65426 0.41469 0.09988 0.0
H1147 H 0.55217 0.4173 0.11755 0.0
H1148 H 0.57723 0.40588 0.10672 0.0
H1149 H 0.64908 0.4602 0.10178 0.0
H1150 H 0.71174 0.41873 0.06952 0.0
H1151 H 0.68262 0.42761 0.07493 0.0
C1152 C 0.44834 0.93164 0.53067 0.0
C1153 C 0.46182 0.93615 0.51748 0.0
C1154 C 0.43442 0.90983 0.53591 0.0
C1155 C 0.40562 0.85164 0.52249 0.0
H1156 H 0.39471 0.83838 0.56599 0.0
C1157 C 0.34873 0.76207 0.54607 0.0
C1158 C 0.33321 0.75926 0.55761 0.0
C1159 C 0.36555 0.78339 0.54132 0.0
C1160 C 0.39749 0.84187 0.5538 0.0
H1161 H 0.47175 0.92129 0.49973 0.0
H1162 H 0.44781 0.88313 0.50913 0.0
H1163 H 0.42301 0.87597 0.55764 0.0
H1164 H 0.32326 0.77659 0.5733 0.0
H1165 H 0.35263 0.81389 0.56497 0.0
H1166 H 0.38007 0.81747 0.5187 0.0
C1167 C 0.44772 0.89649 0.51524 0.0
C1168 C 0.41369 0.8634 0.54901 0.0
C1169 C 0.46163 0.91838 0.50996 0.0
C1170 C 0.33489 0.77824 0.56432 0.0
C1171 C 0.35183 0.79957 0.55965 0.0
C1172 C 0.38952 0.83006 0.5273 0.0
C1173 C 0.43372 0.89194 0.52818 0.0
C1174 C 0.41775 0.86864 0.53329 0.0
C1175 C 0.36731 0.80237 0.54808 0.0
C1176 C 0.38509 0.82502 0.543 0.0
H1177 H 0.44835 0.94499 0.53688 0.0
H1178 H 0.42373 0.90697 0.5458 0.0
H1179 H 0.40805 0.85514 0.5103 0.0
H1180 H 0.34772 0.74776 0.54058 0.0
H1181 H 0.37732 0.78503 0.53244 0.0
C1182 C 0.57376 0.43409 0.67996 0.0
C1183 C 0.5589 0.43829 0.68823 0.0
C1184 C 0.5794 0.41896 0.68554 0.0
C1185 C 0.55867 0.37077 0.71154 0.0
H1186 H 0.61979 0.38256 0.70744 0.0
C1187 C 0.58642 0.31257 0.737 0.0
C1188 C 0.60027 0.30826 0.72763 0.0
C1189 C 0.58157 0.32886 0.73284 0.0
C1190 C 0.6026 0.37896 0.70855 0.0
H1191 H 0.5389 0.43047 0.70905 0.0
H1192 H 0.54881 0.40409 0.71881 0.0
H1193 H 0.61134 0.41061 0.69915 0.0
H1194 H 0.61938 0.31724 0.70633 0.0
H1195 H 0.61095 0.34563 0.69909 0.0
H1196 H 0.54992 0.33905 0.72086 0.0
C1197 C 0.55577 0.4122 0.70789 0.0
C1198 C 0.59776 0.39501 0.7038 0.0
C1199 C 0.55011 0.42731 0.7023 0.0
C1200 C 0.609 0.32045 0.71395 0.0
C1201 C 0.60418 0.33673 0.7098 0.0
C1202 C 0.56352 0.35471 0.71631 0.0
C1203 C 0.57035 0.40772 0.69951 0.0
C1204 C 0.5757 0.39104 0.70513 0.0
C1205 C 0.59049 0.34118 0.71922 0.0
C1206 C 0.58549 0.35856 0.71474 0.0
H1207 H 0.58056 0.44206 0.66898 0.0
H1208 H 0.59042 0.41564 0.6787 0.0
H1209 H 0.54143 0.36707 0.71253 0.0
H1210 H 0.57967 0.30364 0.74771 0.0
H1211 H 0.57115 0.33208 0.7404 0.0
C1212 C 0.15684 0.57994 0.84889 0.0
C1213 C 0.14248 0.5844 0.85755 0.0
C1214 C 0.17566 0.58111 0.85562 0.0
C1215 C 0.21763 0.60508 0.88501 0.0
H1216 H 0.21699 0.54956 0.88333 0.0
C1217 C 0.29085 0.5983 0.91 0.0
C1218 C 0.29796 0.58634 0.90117 0.0
C1219 C 0.2705 0.5971 0.90668 0.0
C1220 C 0.21759 0.56526 0.88377 0.0
H1221 H 0.13748 0.59505 0.87981 0.0
H1222 H 0.17118 0.59793 0.89144 0.0
H1223 H 0.18515 0.55124 0.87307 0.0
H1224 H 0.28945 0.5635 0.8822 0.0
H1225 H 0.25431 0.56186 0.87603 0.0
H1226 H 0.25055 0.61954 0.89493 0.0
C1227 C 0.16742 0.59314 0.8795 0.0
C1228 C 0.1993 0.56614 0.87799 0.0
C1229 C 0.14829 0.59163 0.87281 0.0
C1230 C 0.28415 0.57267 0.88927 0.0
C1231 C 0.26398 0.5717 0.8858 0.0
C1232 C 0.23617 0.60433 0.89057 0.0
C1233 C 0.18077 0.58719 0.87105 0.0
C1234 C 0.19935 0.58612 0.87836 0.0
C1235 C 0.25704 0.58415 0.89433 0.0
C1236 C 0.23652 0.58448 0.88979 0.0
H1237 H 0.15316 0.57487 0.83699 0.0
H1238 H 0.18602 0.57683 0.84884 0.0
H1239 H 0.21797 0.62066 0.88533 0.0
H1240 H 0.30118 0.6088 0.91935 0.0
H1241 H 0.26548 0.60653 0.91369 0.0
C1242 C 0.55646 0.09403 0.03389 0.0
C1243 C 0.55917 0.08318 0.02128 0.0
C1244 C 0.57504 0.11341 0.03982 0.0
C1245 C 0.6324 0.15932 0.02963 0.0
H1246 H 0.64116 0.16623 0.07368 0.0
C1247 C 0.71359 0.23236 0.05519 0.0
C1248 C 0.71052 0.24382 0.06723 0.0
C1249 C 0.69572 0.21165 0.05042 0.0
C1250 C 0.63886 0.1646 0.06136 0.0
H1251 H 0.58325 0.08444 0.00471 0.0
H1252 H 0.61565 0.11801 0.01514 0.0
H1253 H 0.60812 0.13286 0.06336 0.0
H1254 H 0.68677 0.2419 0.08437 0.0
H1255 H 0.65548 0.20594 0.07589 0.0
H1256 H 0.66294 0.19108 0.02758 0.0
C1257 C 0.59921 0.11165 0.02043 0.0
C1258 C 0.61992 0.14553 0.05546 0.0
C1259 C 0.5807 0.0923 0.01455 0.0
C1260 C 0.68956 0.23361 0.07491 0.0
C1261 C 0.67169 0.2129 0.07015 0.0
C1262 C 0.65129 0.17836 0.03552 0.0
C1263 C 0.59663 0.12235 0.03318 0.0
C1264 C 0.6165 0.1427 0.03953 0.0
C1265 C 0.67441 0.20195 0.0576 0.0
C1266 C 0.65475 0.18123 0.05145 0.0
H1267 H 0.54009 0.08729 0.03936 0.0
H1268 H 0.5725 0.12143 0.04956 0.0
H1269 H 0.63006 0.15779 0.01731 0.0
H1270 H 0.72949 0.23984 0.04898 0.0
H1271 H 0.69845 0.20343 0.04088 0.0
C1272 C 0.49276 0.57329 0.20993 0.0
C1273 C 0.48505 0.56383 0.19537 0.0
C1274 C 0.49119 0.59144 0.21463 0.0
C1275 C 0.4645 0.62432 0.20496 0.0
H1276 H 0.516 0.6711 0.22703 0.0
C1277 C 0.48057 0.71303 0.21151 0.0
C1278 C 0.4859 0.72231 0.22631 0.0
C1279 C 0.47995 0.69324 0.20833 0.0
C1280 C 0.50142 0.65808 0.221 0.0
H1281 H 0.4693 0.5656 0.17441 0.0
H1282 H 0.46699 0.5976 0.1824 0.0
H1283 H 0.515 0.63687 0.22057 0.0
H1284 H 0.49495 0.71804 0.24936 0.0
H1285 H 0.49446 0.68379 0.24365 0.0
H1286 H 0.45133 0.64598 0.20503 0.0
C1287 C 0.47379 0.59076 0.19038 0.0
C1288 C 0.50075 0.6384 0.21735 0.0
C1289 C 0.47512 0.57243 0.18577 0.0
C1290 C 0.49114 0.71158 0.23777 0.0
C1291 C 0.49074 0.6919 0.23454 0.0
C1292 C 0.4653 0.64411 0.20847 0.0
C1293 C 0.48214 0.60073 0.20478 0.0
C1294 C 0.48233 0.62128 0.20922 0.0
C1295 C 0.48488 0.68241 0.21983 0.0
C1296 C 0.48381 0.66122 0.21646 0.0
H1297 H 0.50026 0.56679 0.21762 0.0
H1298 H 0.49731 0.59833 0.22593 0.0
H1299 H 0.44986 0.61138 0.19894 0.0
H1300 H 0.47689 0.72105 0.20232 0.0
H1301 H 0.47576 0.68649 0.19683 0.0
C1302 C 0.93449 0.52025 0.3408 0.0
C1303 C 0.94439 0.50955 0.34806 0.0
C1304 C 0.91432 0.51767 0.34636 0.0
C1305 C 0.86507 0.48204 0.37151 0.0
H1306 H 0.85827 0.53347 0.37091 0.0
C1307 C 0.79082 0.48267 0.40143 0.0
C1308 C 0.77962 0.49084 0.39264 0.0
C1309 C 0.81125 0.4853 0.39637 0.0
C1310 C 0.85989 0.51894 0.37105 0.0
H1311 H 0.94096 0.48765 0.36675 0.0
H1312 H 0.90587 0.48342 0.37671 0.0
H1313 H 0.89314 0.53699 0.36137 0.0
H1314 H 0.78134 0.50837 0.37166 0.0
H1315 H 0.81726 0.51336 0.36304 0.0
H1316 H 0.83185 0.46413 0.38142 0.0
C1317 C 0.91345 0.4935 0.36653 0.0
C1318 C 0.87982 0.5209 0.36554 0.0
C1319 C 0.93356 0.49593 0.36087 0.0
C1320 C 0.78965 0.50218 0.37885 0.0
C1321 C 0.81019 0.50497 0.37387 0.0
C1322 C 0.84521 0.48014 0.37715 0.0
C1323 C 0.90368 0.50448 0.3594 0.0
C1324 C 0.88261 0.50244 0.36559 0.0
C1325 C 0.82106 0.49635 0.3825 0.0
C1326 C 0.84237 0.49854 0.3769 0.0
H1327 H 0.94231 0.53057 0.33075 0.0
H1328 H 0.90703 0.52595 0.34035 0.0
H1329 H 0.86648 0.4674 0.37152 0.0
H1330 H 0.78381 0.47424 0.41225 0.0
H1331 H 0.81945 0.47878 0.40337 0.0
C1332 C 0.07068 0.53546 0.40498 0.0
C1333 C 0.0615 0.54743 0.3986 0.0
C1334 C 0.07982 0.54025 0.41973 0.0
C1335 C 0.10594 0.58622 0.44736 0.0
H1336 H 0.10162 0.54055 0.47469 0.0
C1337 C 0.15091 0.60721 0.50621 0.0
C1338 C 0.16233 0.59606 0.50977 0.0
C1339 C 0.13626 0.60061 0.49366 0.0
C1340 C 0.10308 0.5535 0.46714 0.0
H1341 H 0.05385 0.57319 0.40299 0.0
H1342 H 0.06983 0.58157 0.42883 0.0
H1343 H 0.07927 0.52977 0.45119 0.0
H1344 H 0.16738 0.5693 0.50284 0.0
H1345 H 0.14183 0.5578 0.48099 0.0
H1346 H 0.13006 0.60995 0.46317 0.0
C1347 C 0.0702 0.56866 0.4223 0.0
C1348 C 0.09026 0.54733 0.45369 0.0
C1349 C 0.06102 0.56384 0.40752 0.0
C1350 C 0.1586 0.57805 0.50056 0.0
C1351 C 0.14393 0.57143 0.48804 0.0
C1352 C 0.11874 0.59239 0.46082 0.0
C1353 C 0.08005 0.55716 0.42847 0.0
C1354 C 0.09183 0.56362 0.44352 0.0
C1355 C 0.13265 0.58268 0.48441 0.0
C1356 C 0.11774 0.5761 0.47073 0.0
H1357 H 0.07175 0.52303 0.39833 0.0
H1358 H 0.0876 0.53133 0.42401 0.0
H1359 H 0.10781 0.5992 0.43968 0.0
H1360 H 0.1531 0.62091 0.51322 0.0
H1361 H 0.12761 0.60945 0.49127 0.0
C1362 C 0.5168 0.04076 0.58207 0.0
C1363 C 0.53267 0.04694 0.57011 0.0
C1364 C 0.52391 0.04922 0.59688 0.0
C1365 C 0.56825 0.09939 0.61477 0.0
H1366 H 0.54826 0.06725 0.6534 0.0
C1367 C 0.57914 0.14439 0.67141 0.0
C1368 C 0.59112 0.14071 0.68289 0.0
C1369 C 0.57093 0.13059 0.65861 0.0
C1370 C 0.55399 0.07634 0.64267 0.0
H1371 H 0.56846 0.06629 0.56442 0.0
H1372 H 0.58074 0.0809 0.59018 0.0
H1373 H 0.53645 0.0466 0.62903 0.0
H1374 H 0.60271 0.11881 0.69027 0.0
H1375 H 0.58781 0.09429 0.66785 0.0
H1376 H 0.58536 0.12909 0.62821 0.0
C1377 C 0.56286 0.0695 0.58812 0.0
C1378 C 0.54718 0.06459 0.62879 0.0
C1379 C 0.55581 0.06095 0.5734 0.0
C1380 C 0.59353 0.12208 0.68166 0.0
C1381 C 0.58505 0.10807 0.66885 0.0
C1382 C 0.57472 0.11108 0.62855 0.0
C1383 C 0.54696 0.06419 0.59989 0.0
C1384 C 0.55431 0.07607 0.61473 0.0
C1385 C 0.5742 0.1126 0.65705 0.0
C1386 C 0.5676 0.09971 0.64261 0.0
H1387 H 0.49887 0.02992 0.57987 0.0
H1388 H 0.51131 0.04496 0.60577 0.0
H1389 H 0.57378 0.10868 0.60409 0.0
H1390 H 0.57635 0.15816 0.6722 0.0
H1391 H 0.56227 0.13419 0.64977 0.0
C1392 C 0.47515 0.56476 0.71598 0.0
C1393 C 0.49478 0.5636 0.71482 0.0
C1394 C 0.47007 0.57169 0.72964 0.0
C1395 C 0.49469 0.59935 0.76685 0.0
H1396 H 0.43346 0.5612 0.78207 0.0
C1397 C 0.4665 0.61147 0.82664 0.0
C1398 C 0.45315 0.59193 0.83524 0.0
C1399 C 0.471 0.61027 0.81117 0.0
C1400 C 0.45064 0.57198 0.77798 0.0
H1401 H 0.52456 0.56898 0.72701 0.0
H1402 H 0.51576 0.58104 0.75069 0.0
H1403 H 0.44293 0.55606 0.75607 0.0
H1404 H 0.43431 0.55583 0.83448 0.0
H1405 H 0.44242 0.55368 0.80751 0.0
H1406 H 0.50266 0.61455 0.78902 0.0
C1407 C 0.50449 0.57705 0.74101 0.0
C1408 C 0.45598 0.56925 0.76301 0.0
C1409 C 0.50954 0.57012 0.72741 0.0
C1410 C 0.44446 0.57116 0.82808 0.0
C1411 C 0.44901 0.56995 0.81263 0.0
C1412 C 0.48936 0.60206 0.78183 0.0
C1413 C 0.48454 0.57758 0.74236 0.0
C1414 C 0.47819 0.58257 0.75741 0.0
C1415 C 0.46227 0.58949 0.80399 0.0
C1416 C 0.46739 0.58806 0.78766 0.0
H1417 H 0.46359 0.56004 0.7064 0.0
H1418 H 0.45469 0.57216 0.73031 0.0
H1419 H 0.51189 0.61004 0.76278 0.0
H1420 H 0.47306 0.62772 0.8318 0.0
H1421 H 0.48106 0.6256 0.80477 0.0
C1422 C 0.93236 0.48626 0.89252 0.0
C1423 C 0.95457 0.4908 0.89076 0.0
C1424 C 0.92089 0.47815 0.90648 0.0
C1425 C 0.93074 0.47523 0.94779 0.0
H1426 H 0.86831 0.42624 0.94819 0.0
C1427 C 0.88529 0.42817 0.00345 0.0
C1428 C 0.86237 0.42135 0.00517 0.0
C1429 C 0.89657 0.43733 0.98957 0.0
C1430 C 0.88565 0.44013 0.94829 0.0
H1431 H 0.98234 0.49086 0.90234 0.0
H1432 H 0.96225 0.47647 0.92658 0.0
H1433 H 0.8877 0.44097 0.92375 0.0
H1434 H 0.83354 0.41954 0.9939 0.0
H1435 H 0.85322 0.43571 0.96978 0.0
H1436 H 0.92871 0.47447 0.97231 0.0
C1437 C 0.95371 0.47922 0.91721 0.0
C1438 C 0.89675 0.44855 0.93427 0.0
C1439 C 0.9651 0.48719 0.90326 0.0
C1440 C 0.8511 0.42427 0.99283 0.0
C1441 C 0.86237 0.4335 0.979 0.0
C1442 C 0.91961 0.46688 0.96181 0.0
C1443 C 0.93148 0.47462 0.91899 0.0
C1444 C 0.91945 0.46611 0.93387 0.0
C1445 C 0.8852 0.43998 0.97714 0.0
C1446 C 0.89696 0.44916 0.96223 0.0
H1447 H 0.92381 0.48885 0.88307 0.0
H1448 H 0.90383 0.47493 0.90755 0.0
H1449 H 0.94814 0.489 0.94785 0.0
H1450 H 0.89436 0.42592 0.0127 0.0
H1451 H 0.91406 0.44187 0.98847 0.0
C1452 C 0.51665 0.98287 0.07534 0.0
C1453 C 0.49533 0.97744 0.06974 0.0
C1454 C 0.5191 0.97807 0.09052 0.0
C1455 C 0.49007 0.96165 0.12845 0.0
H1456 H 0.52406 0.93229 0.13364 0.0
C1457 C 0.47589 0.90301 0.17898 0.0
C1458 C 0.49463 0.90309 0.18527 0.0
C1459 C 0.47844 0.916 0.16612 0.0
C1460 C 0.51485 0.94083 0.13248 0.0
H1461 H 0.45998 0.96319 0.07577 0.0
H1462 H 0.4642 0.95472 0.10219 0.0
H1463 H 0.52422 0.94839 0.10887 0.0
H1464 H 0.53092 0.91758 0.18333 0.0
H1465 H 0.53534 0.94016 0.16075 0.0
H1466 H 0.48011 0.95338 0.15197 0.0
C1467 C 0.47913 0.96303 0.09496 0.0
C1468 C 0.51495 0.95009 0.11827 0.0
C1469 C 0.47669 0.96787 0.07979 0.0
C1470 C 0.51609 0.91688 0.17862 0.0
C1471 C 0.51864 0.92984 0.16571 0.0
C1472 C 0.48992 0.95234 0.14266 0.0
C1473 C 0.50027 0.96768 0.10042 0.0
C1474 C 0.5022 0.96021 0.116 0.0
C1475 C 0.49978 0.92932 0.15922 0.0
C1476 C 0.50195 0.94144 0.14473 0.0
H1477 H 0.53139 0.99057 0.06791 0.0
H1478 H 0.53568 0.9822 0.09445 0.0
H1479 H 0.48038 0.96968 0.12715 0.0
H1480 H 0.45905 0.89229 0.18364 0.0
H1481 H 0.46352 0.91492 0.16124 0.0
C1482 C 0.49503 0.46165 0.25125 0.0
C1483 C 0.50795 0.4832 0.24502 0.0
C1484 C 0.49781 0.45769 0.26656 0.0
C1485 C 0.52584 0.485 0.30332 0.0
H1486 H 0.53926 0.4379 0.30498 0.0
C1487 C 0.59007 0.48577 0.34512 0.0
C1488 C 0.58648 0.46551 0.3509 0.0
C1489 C 0.5751 0.48596 0.3345 0.0
C1490 C 0.53511 0.45078 0.3049 0.0
H1491 H 0.53223 0.51781 0.25024 0.0
H1492 H 0.53747 0.51088 0.27684 0.0
H1493 H 0.52102 0.44169 0.28244 0.0
H1494 H 0.56389 0.42963 0.35068 0.0
H1495 H 0.53768 0.42994 0.33209 0.0
H1496 H 0.54089 0.49462 0.32559 0.0
C1497 C 0.5251 0.49702 0.26999 0.0
C1498 C 0.52459 0.45294 0.29196 0.0
C1499 C 0.52231 0.50098 0.2547 0.0
C1500 C 0.5673 0.44546 0.34617 0.0
C1501 C 0.55227 0.44565 0.33559 0.0
C1502 C 0.53635 0.48281 0.3163 0.0
C1503 C 0.51357 0.4752 0.27589 0.0
C1504 C 0.52049 0.4705 0.29082 0.0
C1505 C 0.55617 0.46589 0.32949 0.0
C1506 C 0.54176 0.46611 0.317 0.0
H1507 H 0.48386 0.4476 0.24407 0.0
H1508 H 0.48847 0.44075 0.27087 0.0
H1509 H 0.5226 0.49851 0.30284 0.0
H1510 H 0.60482 0.50146 0.34846 0.0
H1511 H 0.57885 0.50181 0.32981 0.0
C1512 C 0.49927 0.94754 0.43377 0.0
C1513 C 0.51129 0.97083 0.43231 0.0
C1514 C 0.49902 0.93428 0.4217 0.0
C1515 C 0.52966 0.93799 0.38546 0.0
H1516 H 0.47507 0.88173 0.37612 0.0
C1517 C 0.51163 0.89446 0.32682 0.0
C1518 C 0.50349 0.87146 0.32668 0.0
C1519 C 0.51411 0.90557 0.34061 0.0
C1520 C 0.49051 0.89729 0.37874 0.0
H1521 H 0.53169 0.99854 0.417 0.0
H1522 H 0.53066 0.97557 0.39581 0.0
H1523 H 0.47577 0.90308 0.39843 0.0
H1524 H 0.49225 0.84236 0.34121 0.0
H1525 H 0.49577 0.86176 0.36526 0.0
H1526 H 0.54395 0.93257 0.36531 0.0
C1527 C 0.52212 0.96742 0.40639 0.0
C1528 C 0.49096 0.90951 0.39153 0.0
C1529 C 0.52261 0.98062 0.41849 0.0
C1530 C 0.49817 0.85996 0.34079 0.0
C1531 C 0.50028 0.87105 0.35458 0.0
C1532 C 0.52907 0.92594 0.37257 0.0
C1533 C 0.51056 0.94408 0.40788 0.0
C1534 C 0.51045 0.93021 0.39492 0.0
C1535 C 0.50816 0.89392 0.35458 0.0
C1536 C 0.50941 0.90563 0.36898 0.0
H1537 H 0.49051 0.93964 0.44437 0.0
H1538 H 0.49012 0.9164 0.42333 0.0
H1539 H 0.54517 0.95354 0.38792 0.0
H1540 H 0.5154 0.90386 0.31624 0.0
H1541 H 0.51995 0.92317 0.34029 0.0
C1542 C 0.52833 0.52187 0.56509 0.0
C1543 C 0.54309 0.53228 0.57749 0.0
C1544 C 0.5369 0.52372 0.55027 0.0
C1545 C 0.58918 0.55373 0.52639 0.0
H1546 H 0.56443 0.49621 0.50676 0.0
C1547 C 0.63825 0.53336 0.48224 0.0
C1548 C 0.62596 0.51828 0.47041 0.0
C1549 C 0.62708 0.5383 0.49349 0.0
C1550 C 0.5713 0.51252 0.51187 0.0
H1551 H 0.57836 0.55341 0.58396 0.0
H1552 H 0.59322 0.55657 0.55823 0.0
H1553 H 0.54614 0.49952 0.5295 0.0
H1554 H 0.59227 0.49706 0.46097 0.0
H1555 H 0.57308 0.50628 0.48019 0.0
H1556 H 0.61485 0.56651 0.50895 0.0
C1557 C 0.57504 0.5473 0.55985 0.0
C1558 C 0.56075 0.51442 0.52493 0.0
C1559 C 0.56649 0.54547 0.57464 0.0
C1560 C 0.60239 0.50899 0.46976 0.0
C1561 C 0.59129 0.51403 0.48092 0.0
C1562 C 0.59976 0.55183 0.51329 0.0
C1563 C 0.56039 0.53596 0.54758 0.0
C1564 C 0.56982 0.53493 0.53252 0.0
C1565 C 0.6034 0.52828 0.49312 0.0
C1566 C 0.59115 0.5311 0.50606 0.0
H1567 H 0.5102 0.51185 0.56692 0.0
H1568 H 0.52518 0.51505 0.54098 0.0
H1569 H 0.59641 0.56982 0.53191 0.0
H1570 H 0.65645 0.54103 0.48297 0.0
H1571 H 0.63689 0.54924 0.50282 0.0
C1572 C 0.04196 0.56235 0.73803 0.0
C1573 C 0.04783 0.55344 0.75035 0.0
C1574 C 0.05555 0.57001 0.72484 0.0
C1575 C 0.114 0.59424 0.71282 0.0
H1576 H 0.091 0.57386 0.6718 0.0
C1577 C 0.17407 0.61368 0.66152 0.0
C1578 C 0.1673 0.61636 0.64692 0.0
C1579 C 0.15912 0.60698 0.67395 0.0
C1580 C 0.09769 0.5801 0.68312 0.0
H1581 H 0.07247 0.54557 0.75855 0.0
H1582 H 0.09633 0.5593 0.7357 0.0
H1583 H 0.065 0.56008 0.69364 0.0
H1584 H 0.13994 0.61487 0.63388 0.0
H1585 H 0.11404 0.60403 0.65568 0.0
H1586 H 0.14652 0.61467 0.7025 0.0
C1587 C 0.08112 0.56011 0.73616 0.0
C1588 C 0.08277 0.57208 0.69562 0.0
C1589 C 0.06735 0.55207 0.74916 0.0
C1590 C 0.14548 0.61272 0.64502 0.0
C1591 C 0.13062 0.60636 0.65751 0.0
C1592 C 0.12886 0.60256 0.70034 0.0
C1593 C 0.07549 0.56935 0.72395 0.0
C1594 C 0.09087 0.57882 0.71058 0.0
C1595 C 0.13714 0.60315 0.67212 0.0
C1596 C 0.121 0.59534 0.68532 0.0
H1597 H 0.02706 0.56367 0.73871 0.0
H1598 H 0.05092 0.57712 0.71555 0.0
H1599 H 0.12059 0.59991 0.72426 0.0
H1600 H 0.19072 0.6161 0.66323 0.0
H1601 H 0.16467 0.60426 0.6849 0.0
C1602 C 0.53451 0.0879 0.93538 0.0
C1603 C 0.51202 0.07002 0.93665 0.0
C1604 C 0.54212 0.10063 0.92194 0.0
C1605 C 0.52835 0.09666 0.88068 0.0
H1606 H 0.57404 0.15968 0.88071 0.0
C1607 C 0.55965 0.14983 0.82526 0.0
C1608 C 0.58325 0.1638 0.8237 0.0
C1609 C 0.5501 0.13902 0.83916 0.0
C1610 C 0.56135 0.14205 0.88055 0.0
H1611 H 0.4797 0.05198 0.92491 0.0
H1612 H 0.49271 0.07473 0.9018 0.0
H1613 H 0.5584 0.14036 0.90503 0.0
H1614 H 0.61532 0.17693 0.83553 0.0
H1615 H 0.5986 0.15837 0.85983 0.0
H1616 H 0.53128 0.09845 0.85618 0.0
C1617 C 0.50463 0.07861 0.91105 0.0
C1618 C 0.55242 0.13097 0.89446 0.0
C1619 C 0.49707 0.06578 0.92442 0.0
C1620 C 0.59706 0.16666 0.83639 0.0
C1621 C 0.5875 0.15601 0.85031 0.0
C1622 C 0.53714 0.1078 0.86677 0.0
C1623 C 0.52737 0.09587 0.9095 0.0
C1624 C 0.53595 0.10807 0.89471 0.0
C1625 C 0.56394 0.14208 0.85184 0.0
C1626 C 0.55389 0.13054 0.86658 0.0
H1627 H 0.5464 0.0918 0.94465 0.0
H1628 H 0.55979 0.11367 0.92114 0.0
H1629 H 0.51603 0.07895 0.88041 0.0
H1630 H 0.54847 0.14752 0.81582 0.0
H1631 H 0.53186 0.12853 0.84007 0.0
C1632 C 0.48932 0.54369 0.09602 0.0
C1633 C 0.47217 0.53076 0.10671 0.0
C1634 C 0.48388 0.54799 0.08154 0.0
C1635 C 0.43726 0.52393 0.05394 0.0
H1636 H 0.47387 0.58024 0.0327 0.0
C1637 C 0.41319 0.54461 0.99546 0.0
C1638 C 0.43081 0.55702 0.98494 0.0
C1639 C 0.41795 0.54042 0.0102 0.0
C1640 C 0.46367 0.56433 0.03842 0.0
H1641 H 0.43602 0.51323 0.11099 0.0
H1642 H 0.42649 0.52093 0.08566 0.0
H1643 H 0.48235 0.5766 0.0593 0.0
H1644 H 0.4671 0.57398 0.98133 0.0
H1645 H 0.47538 0.56628 0.00701 0.0
H1646 H 0.41859 0.51167 0.03304 0.0
C1647 C 0.4441 0.52739 0.08841 0.0
C1648 C 0.46846 0.56229 0.05366 0.0
C1649 C 0.44955 0.52307 0.1029 0.0
C1650 C 0.45317 0.56423 0.98917 0.0
C1651 C 0.45793 0.56009 0.00392 0.0
C1652 C 0.43244 0.52599 0.0387 0.0
C1653 C 0.46119 0.53945 0.07746 0.0
C1654 C 0.45537 0.54204 0.06156 0.0
C1655 C 0.44042 0.5486 0.01469 0.0
C1656 C 0.44567 0.54618 0.03077 0.0
H1657 H 0.50687 0.54949 0.09851 0.0
H1658 H 0.4974 0.55711 0.0733 0.0
H1659 H 0.42712 0.50798 0.05964 0.0
H1660 H 0.39578 0.53869 0.99244 0.0
H1661 H 0.40411 0.53157 0.01827 0.0
C1662 C 0.96835 0.49179 0.24907 0.0
C1663 C 0.96305 0.47883 0.26247 0.0
C1664 C 0.95634 0.48249 0.23554 0.0
C1665 C 0.90283 0.43675 0.22032 0.0
H1666 H 0.93731 0.44697 0.18284 0.0
C1667 C 0.85949 0.39169 0.1642 0.0
C1668 C 0.86698 0.40414 0.15055 0.0
C1669 C 0.87164 0.40019 0.1778 0.0
C1670 C 0.92739 0.44416 0.19314 0.0
H1671 H 0.94071 0.44617 0.27234 0.0
H1672 H 0.91945 0.42991 0.24865 0.0
H1673 H 0.95705 0.4635 0.20681 0.0
H1674 H 0.89315 0.43508 0.14033 0.0
H1675 H 0.9142 0.45018 0.16412 0.0
H1676 H 0.87315 0.41783 0.20669 0.0
C1677 C 0.93294 0.44726 0.24865 0.0
C1678 C 0.93872 0.45361 0.20688 0.0
C1679 C 0.94513 0.45651 0.26216 0.0
C1680 C 0.88714 0.42503 0.15067 0.0
C1681 C 0.8992 0.43364 0.16431 0.0
C1682 C 0.89148 0.42747 0.20656 0.0
C1683 C 0.93865 0.46008 0.23515 0.0
C1684 C 0.92655 0.45002 0.2206 0.0
C1685 C 0.89145 0.42144 0.17809 0.0
C1686 C 0.90361 0.43105 0.19278 0.0
H1687 H 0.98229 0.50895 0.24892 0.0
H1688 H 0.96096 0.4928 0.22534 0.0
H1689 H 0.89303 0.4339 0.2307 0.0
H1690 H 0.84414 0.3754 0.16438 0.0
H1691 H 0.86544 0.39009 0.1881 0.0
loop_
_geom_bond_atom_site_label_1
_geom_bond_atom_site_label_2
_geom_bond_distance
_geom_bond_site_symmetry_2
_ccdc_geom_bond_type
H0 O26 0.856 . S
H1 O29 0.854 . S
H2 C37 0.930 . S
H3 C38 0.930 . S
H4 C40 0.930 . S
H5 C41 0.924 . S
H6 C43 0.931 . S
H7 C44 0.930 . S
H8 C46 0.930 . S
H9 C47 0.929 . S
H10 C49 0.930 . S
H11 C50 0.931 . S
H12 C52 0.930 . S
H13 C53 0.929 . S
H14 C55 0.931 . S
H15 C56 0.930 . S
H16 C58 0.930 . S
H17 C59 0.932 . S
H18 C61 0.930 . S
H19 C62 0.929 . S
H20 C64 0.931 . S
H21 C65 0.930 . S
H22 C67 0.929 . S
H23 C68 0.931 . S
H24 C70 0.930 . S
H25 C71 0.929 . S
O26 H0 0.856 . S
O26 C72 1.300 . S
O27 C72 1.209 . S
O28 C73 1.199 . S
O29 H1 0.854 . S
O29 C73 1.297 . S
C30 C31 1.404 . S
C30 C35 1.397 . S
C30 C36 1.492 . S
C31 C30 1.404 . S
C31 C32 1.396 . S
C31 C42 1.492 . S
C32 C31 1.396 . S
C32 C33 1.397 . S
C32 C48 1.509 . S
C33 C32 1.397 . S
C33 C34 1.412 . S
C33 C54 1.485 . S
C34 C33 1.412 . S
C34 C35 1.388 . S
C34 C60 1.490 . S
C35 C30 1.397 . S
C35 C34 1.388 . S
C35 C66 1.519 . S
C36 C30 1.492 . S
C36 C37 1.363 . S
C36 C41 1.407 . S
C37 H2 0.930 . S
C37 C36 1.363 . S
C37 C38 1.372 1_455 S
C38 H3 0.930 . S
C38 C37 1.372 1_655 S
C38 C39 1.383 . S
C39 C38 1.383 . S
C39 C40 1.395 . S
C40 H4 0.930 . S
C40 C39 1.395 . S
C40 C41 1.350 1_655 S
C41 H5 0.924 . S
C41 C36 1.407 . S
C41 C40 1.350 1_455 S
C42 C31 1.492 . S
C42 C43 1.377 . S
C42 C47 1.397 . S
C43 H6 0.931 . S
C43 C42 1.377 . S
C43 C44 1.376 . S
C44 H7 0.930 . S
C44 C43 1.376 . S
C44 C45 1.376 . S
C45 C44 1.376 . S
C45 C46 1.378 . S
C45 C72 1.486 . S
C46 H8 0.930 . S
C46 C45 1.378 . S
C46 C47 1.376 . S
C47 H9 0.929 . S
C47 C42 1.397 . S
C47 C46 1.376 . S
C48 C32 1.509 . S
C48 C49 1.391 . S
C48 C53 1.386 . S
C49 H10 0.930 . S
C49 C48 1.391 . S
C49 C50 1.375 . S
C50 H11 0.931 . S
C50 C49 1.375 . S
C50 C51 1.375 . S
C51 C50 1.375 . S
C51 C52 1.361 . S
C52 H12 0.930 . S
C52 C51 1.361 . S
C52 C53 1.399 . S
C53 H13 0.929 . S
C53 C48 1.386 . S
C53 C52 1.399 . S
C54 C33 1.485 . S
C54 C55 1.394 . S
C54 C59 1.360 . S
C55 H14 0.931 . S
C55 C54 1.394 . S
C55 C56 1.372 . S
C56 H15 0.930 . S
C56 C55 1.372 . S
C56 C57 1.397 . S
C57 C56 1.397 . S
C57 C58 1.390 . S
C57 C73 1.476 . S
C58 H16 0.930 . S
C58 C57 1.390 . S
C58 C59 1.366 . S
C59 H17 0.932 . S
C59 C54 1.360 . S
C59 C58 1.366 . S
C60 C34 1.490 . S
C60 C61 1.380 . S
C60 C65 1.386 . S
C61 H18 0.930 . S
C61 C60 1.380 . S
C61 C62 1.381 . S
C62 H19 0.929 . S
C62 C61 1.381 . S
C62 C63 1.371 . S
C63 C62 1.371 . S
C63 C64 1.380 . S
C64 H20 0.931 . S
C64 C63 1.380 . S
C64 C65 1.387 . S
C65 H21 0.930 . S
C65 C60 1.386 . S
C65 C64 1.387 . S
C66 C35 1.519 . S
C66 C67 1.377 1_455 S
C66 C71 1.361 . S
C67 H22 0.929 . S
C67 C66 1.377 1_655 S
C67 C68 1.386 . S
C68 H23 0.931 . S
C68 C67 1.386 . S
C68 C69 1.363 . S
C69 C68 1.363 . S
C69 C70 1.385 . S
C70 H24 0.930 . S
C70 C69 1.385 . S
C70 C71 1.396 1_655 S
C71 H25 0.929 . S
C71 C66 1.361 . S
C71 C70 1.396 1_455 S
C72 O26 1.300 . S
C72 O27 1.209 . S
C72 C45 1.486 . S
C73 O28 1.199 . S
C73 O29 1.297 . S
C73 C57 1.476 . S
H74 O100 0.856 . S
H75 O103 0.854 . S
H76 C111 0.930 . S
H77 C112 0.930 . S
H78 C114 0.930 . S
H79 C115 0.930 . S
H80 C117 0.931 . S
H81 C118 0.930 . S
H82 C120 0.930 . S
H83 C121 0.929 . S
H84 C123 0.930 . S
H85 C124 0.931 . S
H86 C126 0.930 . S
H87 C127 0.929 . S
H88 C129 0.931 . S
H89 C130 0.930 . S
H90 C132 0.930 . S
H91 C133 0.932 . S
H92 C135 0.930 . S
H93 C136 0.929 . S
H94 C138 0.931 . S
H95 C139 0.930 . S
H96 C141 0.929 . S
H97 C142 0.931 . S
H98 C144 0.930 . S
H99 C145 0.929 . S
O100 H74 0.856 . S
O100 C146 1.300 . S
O101 C146 1.209 . S
O102 C147 1.199 . S
O103 H75 0.854 . S
O103 C147 1.297 . S
C104 C105 1.404 . S
C104 C109 1.397 . S
C104 C110 1.492 . S
C105 C104 1.404 . S
C105 C106 1.396 . S
C105 C116 1.492 . S
C106 C105 1.396 . S
C106 C107 1.397 . S
C106 C122 1.509 . S
C107 C106 1.397 . S
C107 C108 1.412 . S
C107 C128 1.485 . S
C108 C107 1.412 . S
C108 C109 1.388 . S
C108 C134 1.490 . S
C109 C104 1.397 . S
C109 C108 1.388 . S
C109 C140 1.519 . S
C110 C104 1.492 . S
C110 C111 1.363 . S
C110 C115 1.390 . S
C111 H76 0.930 . S
C111 C110 1.363 . S
C111 C112 1.372 . S
C112 H77 0.930 . S
C112 C111 1.372 . S
C112 C113 1.383 1_545 S
C113 C112 1.383 1_565 S
C113 C114 1.395 . S
C114 H78 0.930 . S
C114 C113 1.395 . S
C114 C115 1.362 1_565 S
C115 H79 0.930 . S
C115 C110 1.390 . S
C115 C114 1.362 1_545 S
C116 C105 1.492 . S
C116 C117 1.377 . S
C116 C121 1.397 . S
C117 H80 0.931 . S
C117 C116 1.377 . S
C117 C118 1.376 . S
C118 H81 0.930 . S
C118 C117 1.376 . S
C118 C119 1.376 . S
C119 C118 1.376 . S
C119 C120 1.378 . S
C119 C146 1.486 . S
C120 H82 0.930 . S
C120 C119 1.378 . S
C120 C121 1.376 . S
C121 H83 0.929 . S
C121 C116 1.397 . S
C121 C120 1.376 . S
C122 C106 1.509 . S
C122 C123 1.391 . S
C122 C127 1.386 . S
C123 H84 0.930 . S
C123 C122 1.391 . S
C123 C124 1.375 . S
C124 H85 0.931 . S
C124 C123 1.375 . S
C124 C125 1.375 . S
C125 C124 1.375 . S
C125 C126 1.361 . S
C126 H86 0.930 . S
C126 C125 1.361 . S
C126 C127 1.399 . S
C127 H87 0.929 . S
C127 C122 1.386 . S
C127 C126 1.399 . S
C128 C107 1.485 . S
C128 C129 1.394 . S
C128 C133 1.360 . S
C129 H88 0.931 . S
C129 C128 1.394 . S
C129 C130 1.372 . S
C130 H89 0.930 . S
C130 C129 1.372 . S
C130 C131 1.397 . S
C131 C130 1.397 . S
C131 C132 1.390 . S
C131 C147 1.476 . S
C132 H90 0.930 . S
C132 C131 1.390 . S
C132 C133 1.366 . S
C133 H91 0.932 . S
C133 C128 1.360 . S
C133 C132 1.366 . S
C134 C108 1.490 . S
C134 C135 1.380 . S
C134 C139 1.386 . S
C135 H92 0.930 . S
C135 C134 1.380 . S
C135 C136 1.381 . S
C136 H93 0.929 . S
C136 C135 1.381 . S
C136 C137 1.371 . S
C137 C136 1.371 . S
C137 C138 1.380 . S
C138 H94 0.931 . S
C138 C137 1.380 . S
C138 C139 1.387 . S
C139 H95 0.930 . S
C139 C134 1.386 . S
C139 C138 1.387 . S
C140 C109 1.519 . S
C140 C141 1.377 . S
C140 C145 1.361 . S
C141 H96 0.929 . S
C141 C140 1.377 . S
C141 C142 1.386 1_545 S
C142 H97 0.931 . S
C142 C141 1.386 1_565 S
C142 C143 1.363 . S
C143 C142 1.363 . S
C143 C144 1.385 . S
C144 H98 0.930 . S
C144 C143 1.385 . S
C144 C145 1.396 1_565 S
C145 H99 0.929 . S
C145 C140 1.361 . S
C145 C144 1.396 1_545 S
C146 O100 1.300 . S
C146 O101 1.209 . S
C146 C119 1.486 . S
C147 O102 1.199 . S
C147 O103 1.297 . S
C147 C131 1.476 . S
H148 O174 0.856 . S
H149 O177 0.854 . S
H150 C185 0.930 . S
H151 C186 0.930 . S
H152 C188 0.930 . S
H153 C189 0.930 . S
H154 C191 0.931 . S
H155 C192 0.930 . S
H156 C194 0.930 . S
H157 C195 0.929 . S
H158 C197 0.930 . S
H159 C198 0.931 . S
H160 C200 0.930 . S
H161 C201 0.929 . S
H162 C203 0.931 . S
H163 C204 0.930 . S
H164 C206 0.930 . S
H165 C207 0.932 . S
H166 C209 0.930 . S
H167 C210 0.929 . S
H168 C212 0.931 . S
H169 C213 0.930 . S
H170 C215 0.929 . S
H171 C216 0.931 . S
H172 C218 0.930 . S
H173 C219 0.929 . S
O174 H148 0.856 . S
O174 C220 1.300 . S
O175 C220 1.209 . S
O176 C221 1.199 . S
O177 H149 0.854 . S
O177 C221 1.297 . S
C178 C179 1.404 . S
C178 C183 1.397 . S
C178 C184 1.492 . S
C179 C178 1.404 . S
C179 C180 1.396 . S
C179 C190 1.492 . S
C180 C179 1.396 . S
C180 C181 1.397 . S
C180 C196 1.509 . S
C181 C180 1.397 . S
C181 C182 1.412 . S
C181 C202 1.485 . S
C182 C181 1.412 . S
C182 C183 1.388 . S
C182 C208 1.490 . S
C183 C178 1.397 . S
C183 C182 1.388 . S
C183 C214 1.519 . S
C184 C178 1.492 . S
C184 C185 1.363 . S
C184 C189 1.390 . S
C185 H150 0.930 . S
C185 C184 1.363 . S
C185 C186 1.372 . S
C186 H151 0.930 . S
C186 C185 1.372 . S
C186 C187 1.383 . S
C187 C186 1.383 . S
C187 C188 1.395 . S
C188 H152 0.930 . S
C188 C187 1.395 . S
C188 C189 1.362 . S
C189 H153 0.930 . S
C189 C184 1.390 . S
C189 C188 1.362 . S
C190 C179 1.492 . S
C190 C191 1.377 . S
C190 C195 1.397 . S
C191 H154 0.931 . S
C191 C190 1.377 . S
C191 C192 1.376 . S
C192 H155 0.930 . S
C192 C191 1.376 . S
C192 C193 1.376 . S
C193 C192 1.376 . S
C193 C194 1.378 . S
C193 C220 1.486 . S
C194 H156 0.930 . S
C194 C193 1.378 . S
C194 C195 1.376 . S
C195 H157 0.929 . S
C195 C190 1.397 . S
C195 C194 1.376 . S
C196 C180 1.509 . S
C196 C197 1.391 . S
C196 C201 1.386 . S
C197 H158 0.930 . S
C197 C196 1.391 . S
C197 C198 1.375 . S
C198 H159 0.931 . S
C198 C197 1.375 . S
C198 C199 1.375 . S
C199 C198 1.375 . S
C199 C200 1.361 . S
C200 H160 0.930 . S
C200 C199 1.361 . S
C200 C201 1.399 . S
C201 H161 0.929 . S
C201 C196 1.386 . S
C201 C200 1.399 . S
C202 C181 1.485 . S
C202 C203 1.394 . S
C202 C207 1.360 . S
C203 H162 0.931 . S
C203 C202 1.394 . S
C203 C204 1.372 . S
C204 H163 0.930 . S
C204 C203 1.372 . S
C204 C205 1.397 . S
C205 C204 1.397 . S
C205 C206 1.390 . S
C205 C221 1.476 . S
C206 H164 0.930 . S
C206 C205 1.390 . S
C206 C207 1.366 . S
C207 H165 0.932 . S
C207 C202 1.360 . S
C207 C206 1.366 . S
C208 C182 1.490 . S
C208 C209 1.380 . S
C208 C213 1.386 . S
C209 H166 0.930 . S
C209 C208 1.380 . S
C209 C210 1.381 . S
C210 H167 0.929 . S
C210 C209 1.381 . S
C210 C211 1.371 . S
C211 C210 1.371 . S
C211 C212 1.380 . S
C212 H168 0.931 . S
C212 C211 1.380 . S
C212 C213 1.387 . S
C213 H169 0.930 . S
C213 C208 1.386 . S
C213 C212 1.387 . S
C214 C183 1.519 . S
C214 C215 1.377 . S
C214 C219 1.361 . S
C215 H170 0.929 . S
C215 C214 1.377 . S
C215 C216 1.386 . S
C216 H171 0.931 . S
C216 C215 1.386 . S
C216 C217 1.363 . S
C217 C216 1.363 . S
C217 C218 1.385 . S
C218 H172 0.930 . S
C218 C217 1.385 . S
C218 C219 1.396 . S
C219 H173 0.929 . S
C219 C214 1.361 . S
C219 C218 1.396 . S
C220 O174 1.300 . S
C220 O175 1.209 . S
C220 C193 1.486 . S
C221 O176 1.199 . S
C221 O177 1.297 . S
C221 C205 1.476 . S
H222 O248 0.856 . S
H223 O251 0.854 . S
H224 C259 0.930 . S
H225 C260 0.930 . S
H226 C262 0.930 . S
H227 C263 0.930 . S
H228 C265 0.931 . S
H229 C266 0.930 . S
H230 C268 0.930 . S
H231 C269 0.929 . S
H232 C271 0.930 . S
H233 C272 0.931 . S
H234 C274 0.930 . S
H235 C275 0.929 . S
H236 C277 0.931 . S
H237 C278 0.930 . S
H238 C280 0.930 . S
H239 C281 0.932 . S
H240 C283 0.930 . S
H241 C284 0.929 . S
H242 C286 0.931 . S
H243 C287 0.930 . S
H244 C289 0.929 . S
H245 C290 0.931 . S
H246 C292 0.930 . S
H247 C293 0.929 1_455 S
O248 H222 0.856 . S
O248 C294 1.300 . S
O249 C294 1.209 . S
O250 C295 1.199 . S
O251 H223 0.854 . S
O251 C295 1.297 . S
C252 C253 1.404 . S
C252 C257 1.397 . S
C252 C258 1.492 . S
C253 C252 1.404 . S
C253 C254 1.396 . S
C253 C264 1.492 . S
C254 C253 1.396 . S
C254 C255 1.397 . S
C254 C270 1.509 . S
C255 C254 1.397 . S
C255 C256 1.412 . S
C255 C276 1.485 . S
C256 C255 1.412 . S
C256 C257 1.388 . S
C256 C282 1.490 . S
C257 C252 1.397 . S
C257 C256 1.388 . S
C257 C288 1.522 . S
C258 C252 1.492 . S
C258 C259 1.363 . S
C258 C263 1.390 1_455 S
C259 H224 0.930 . S
C259 C258 1.363 . S
C259 C260 1.372 1_455 S
C260 H225 0.930 . S
C260 C259 1.372 1_655 S
C260 C261 1.383 . S
C261 C260 1.383 . S
C261 C262 1.395 . S
C262 H226 0.930 . S
C262 C261 1.395 . S
C262 C263 1.362 . S
C263 H227 0.930 . S
C263 C258 1.390 1_655 S
C263 C262 1.362 . S
C264 C253 1.492 . S
C264 C265 1.377 . S
C264 C269 1.397 . S
C265 H228 0.931 . S
C265 C264 1.377 . S
C265 C266 1.376 . S
C266 H229 0.930 . S
C266 C265 1.376 . S
C266 C267 1.376 . S
C267 C266 1.376 . S
C267 C268 1.378 . S
C267 C294 1.486 . S
C268 H230 0.930 . S
C268 C267 1.378 . S
C268 C269 1.376 . S
C269 H231 0.929 . S
C269 C264 1.397 . S
C269 C268 1.376 . S
C270 C254 1.509 . S
C270 C271 1.391 . S
C270 C275 1.386 . S
C271 H232 0.930 . S
C271 C270 1.391 . S
C271 C272 1.375 . S
C272 H233 0.931 . S
C272 C271 1.375 . S
C272 C273 1.375 . S
C273 C272 1.375 . S
C273 C274 1.361 . S
C274 H234 0.930 . S
C274 C273 1.361 . S
C274 C275 1.399 . S
C275 H235 0.929 . S
C275 C270 1.386 . S
C275 C274 1.399 . S
C276 C255 1.485 . S
C276 C277 1.394 . S
C276 C281 1.360 . S
C277 H236 0.931 . S
C277 C276 1.394 . S
C277 C278 1.372 . S
C278 H237 0.930 . S
C278 C277 1.372 . S
C278 C279 1.397 . S
C279 C278 1.397 . S
C279 C280 1.390 . S
C279 C295 1.476 . S
C280 H238 0.930 . S
C280 C279 1.390 . S
C280 C281 1.366 . S
C281 H239 0.932 . S
C281 C276 1.360 . S
C281 C280 1.366 . S
C282 C256 1.490 . S
C282 C283 1.380 . S
C282 C287 1.386 . S
C283 H240 0.930 . S
C283 C282 1.380 . S
C283 C284 1.381 . S
C284 H241 0.929 . S
C284 C283 1.381 . S
C284 C285 1.371 . S
C285 C284 1.371 . S
C285 C286 1.380 . S
C286 H242 0.931 . S
C286 C285 1.380 . S
C286 C287 1.387 . S
C287 H243 0.930 . S
C287 C282 1.386 . S
C287 C286 1.387 . S
C288 C257 1.522 . S
C288 C289 1.373 1_455 S
C288 C293 1.362 1_455 S
C289 H244 0.929 . S
C289 C288 1.373 1_655 S
C289 C290 1.386 . S
C290 H245 0.931 . S
C290 C289 1.386 . S
C290 C291 1.363 . S
C291 C290 1.363 . S
C291 C292 1.385 . S
C292 H246 0.930 . S
C292 C291 1.385 . S
C292 C293 1.396 . S
C293 H247 0.929 1_655 S
C293 C288 1.362 1_655 S
C293 C292 1.396 . S
C294 O248 1.300 . S
C294 O249 1.209 . S
C294 C267 1.486 . S
C295 O250 1.199 . S
C295 O251 1.297 . S
C295 C279 1.476 . S
H296 O322 0.856 . S
H297 O325 0.854 . S
H298 C333 0.930 . S
H299 C334 0.930 . S
H300 C336 0.930 . S
H301 C337 0.930 . S
H302 C339 0.931 . S
H303 C340 0.930 . S
H304 C342 0.930 . S
H305 C343 0.929 . S
H306 C345 0.930 . S
H307 C346 0.931 . S
H308 C348 0.930 . S
H309 C349 0.929 . S
H310 C351 0.931 . S
H311 C352 0.930 . S
H312 C354 0.930 . S
H313 C355 0.932 . S
H314 C357 0.930 . S
H315 C358 0.929 . S
H316 C360 0.931 . S
H317 C361 0.930 . S
H318 C363 0.929 1_556 S
H319 C364 0.931 . S
H320 C366 0.930 . S
H321 C367 0.929 . S
O322 H296 0.856 . S
O322 C368 1.300 . S
O323 C368 1.209 . S
O324 C369 1.199 . S
O325 H297 0.854 . S
O325 C369 1.297 . S
C326 C327 1.404 . S
C326 C331 1.397 . S
C326 C332 1.492 1_565 S
C327 C326 1.404 . S
C327 C328 1.396 . S
C327 C338 1.492 . S
C328 C327 1.396 . S
C328 C329 1.397 . S
C328 C344 1.509 . S
C329 C328 1.397 . S
C329 C330 1.412 1_556 S
C329 C350 1.485 1_556 S
C330 C329 1.412 1_554 S
C330 C331 1.388 1_554 S
C330 C356 1.490 . S
C331 C326 1.397 . S
C331 C330 1.388 1_556 S
C331 C362 1.519 1_566 S
C332 C326 1.492 1_545 S
C332 C333 1.363 . S
C332 C337 1.390 . S
C333 H298 0.930 . S
C333 C332 1.363 . S
C333 C334 1.372 . S
C334 H299 0.930 . S
C334 C333 1.372 . S
C334 C335 1.383 . S
C335 C334 1.383 . S
C335 C336 1.395 . S
C336 H300 0.930 . S
C336 C335 1.395 . S
C336 C337 1.362 . S
C337 H301 0.930 . S
C337 C332 1.390 . S
C337 C336 1.362 . S
C338 C327 1.492 . S
C338 C339 1.377 . S
C338 C343 1.397 . S
C339 H302 0.931 . S
C339 C338 1.377 . S
C339 C340 1.376 . S
C340 H303 0.930 . S
C340 C339 1.376 . S
C340 C341 1.376 . S
C341 C340 1.376 . S
C341 C342 1.378 . S
C341 C368 1.486 . S
C342 H304 0.930 . S
C342 C341 1.378 . S
C342 C343 1.376 . S
C343 H305 0.929 . S
C343 C338 1.397 . S
C343 C342 1.376 . S
C344 C328 1.509 . S
C344 C345 1.391 . S
C344 C349 1.386 . S
C345 H306 0.930 . S
C345 C344 1.391 . S
C345 C346 1.375 . S
C346 H307 0.931 . S
C346 C345 1.375 . S
C346 C347 1.375 . S
C347 C346 1.375 . S
C347 C348 1.361 . S
C348 H308 0.930 . S
C348 C347 1.361 . S
C348 C349 1.399 . S
C349 H309 0.929 . S
C349 C344 1.386 . S
C349 C348 1.399 . S
C350 C329 1.485 1_554 S
C350 C351 1.394 . S
C350 C355 1.360 . S
C351 H310 0.931 . S
C351 C350 1.394 . S
C351 C352 1.372 . S
C352 H311 0.930 . S
C352 C351 1.372 . S
C352 C353 1.397 . S
C353 C352 1.397 . S
C353 C354 1.390 . S
C353 C369 1.476 . S
C354 H312 0.930 . S
C354 C353 1.390 . S
C354 C355 1.366 . S
C355 H313 0.932 . S
C355 C350 1.360 . S
C355 C354 1.366 . S
C356 C330 1.490 . S
C356 C357 1.380 . S
C356 C361 1.386 . S
C357 H314 0.930 . S
C357 C356 1.380 . S
C357 C358 1.381 . S
C358 H315 0.929 . S
C358 C357 1.381 . S
C358 C359 1.371 . S
C359 C358 1.371 . S
C359 C360 1.380 . S
C360 H316 0.931 . S
C360 C359 1.380 . S
C360 C361 1.387 . S
C361 H317 0.930 . S
C361 C356 1.386 . S
C361 C360 1.387 . S
C362 C331 1.519 1_544 S
C362 C363 1.377 . S
C362 C367 1.361 . S
C363 H318 0.929 1_554 S
C363 C362 1.377 . S
C363 C364 1.386 . S
C364 H319 0.931 . S
C364 C363 1.386 . S
C364 C365 1.363 . S
C365 C364 1.363 . S
C365 C366 1.385 . S
C366 H320 0.930 . S
C366 C365 1.385 . S
C366 C367 1.396 . S
C367 H321 0.929 . S
C367 C362 1.361 . S
C367 C366 1.396 . S
C368 O322 1.300 . S
C368 O323 1.209 . S
C368 C341 1.486 . S
C369 O324 1.199 . S
C369 O325 1.297 . S
C369 C353 1.476 . S
H370 O396 0.856 . S
H371 O399 0.854 . S
H372 C407 0.930 . S
H373 C408 0.930 . S
H374 C410 0.930 . S
H375 C411 0.930 . S
H376 C413 0.931 . S
H377 C414 0.930 . S
H378 C416 0.930 . S
H379 C417 0.929 . S
H380 C419 0.930 . S
H381 C420 0.931 . S
H382 C422 0.930 . S
H383 C423 0.929 . S
H384 C425 0.931 . S
H385 C426 0.930 . S
H386 C428 0.930 . S
H387 C429 0.932 . S
H388 C431 0.930 . S
H389 C432 0.929 . S
H390 C434 0.931 . S
H391 C435 0.930 . S
H392 C437 0.929 . S
H393 C438 0.931 . S
H394 C440 0.930 . S
H395 C441 0.929 . S
O396 H370 0.856 . S
O396 C442 1.300 . S
O397 C442 1.209 . S
O398 C443 1.199 . S
O399 H371 0.854 . S
O399 C443 1.297 . S
C400 C401 1.404 . S
C400 C405 1.397 . S
C400 C406 1.492 . S
C401 C400 1.404 . S
C401 C402 1.396 . S
C401 C412 1.492 . S
C402 C401 1.396 . S
C402 C403 1.397 . S
C402 C418 1.509 . S
C403 C402 1.397 . S
C403 C404 1.412 . S
C403 C424 1.485 . S
C404 C403 1.412 . S
C404 C405 1.388 . S
C404 C430 1.490 . S
C405 C400 1.397 . S
C405 C404 1.388 . S
C405 C436 1.519 . S
C406 C400 1.492 . S
C406 C407 1.363 . S
C406 C411 1.390 . S
C407 H372 0.930 . S
C407 C406 1.363 . S
C407 C408 1.372 . S
C408 H373 0.930 . S
C408 C407 1.372 . S
C408 C409 1.383 . S
C409 C408 1.383 . S
C409 C410 1.395 . S
C410 H374 0.930 . S
C410 C409 1.395 . S
C410 C411 1.362 . S
C411 H375 0.930 . S
C411 C406 1.390 . S
C411 C410 1.362 . S
C412 C401 1.492 . S
C412 C413 1.377 . S
C412 C417 1.397 . S
C413 H376 0.931 . S
C413 C412 1.377 . S
C413 C414 1.376 . S
C414 H377 0.930 . S
C414 C413 1.376 . S
C414 C415 1.376 . S
C415 C414 1.376 . S
C415 C416 1.378 . S
C415 C442 1.486 . S
C416 H378 0.930 . S
C416 C415 1.378 . S
C416 C417 1.376 . S
C417 H379 0.929 . S
C417 C412 1.397 . S
C417 C416 1.376 . S
C418 C402 1.509 . S
C418 C419 1.391 . S
C418 C423 1.386 . S
C419 H380 0.930 . S
C419 C418 1.391 . S
C419 C420 1.375 . S
C420 H381 0.931 . S
C420 C419 1.375 . S
C420 C421 1.375 . S
C421 C420 1.375 . S
C421 C422 1.361 . S
C422 H382 0.930 . S
C422 C421 1.361 . S
C422 C423 1.399 . S
C423 H383 0.929 . S
C423 C418 1.386 . S
C423 C422 1.399 . S
C424 C403 1.485 . S
C424 C425 1.394 . S
C424 C429 1.360 . S
C425 H384 0.931 . S
C425 C424 1.394 . S
C425 C426 1.372 . S
C426 H385 0.930 . S
C426 C425 1.372 . S
C426 C427 1.397 . S
C427 C426 1.397 . S
C427 C428 1.390 . S
C427 C443 1.476 . S
C428 H386 0.930 . S
C428 C427 1.390 . S
C428 C429 1.366 . S
C429 H387 0.932 . S
C429 C424 1.360 . S
C429 C428 1.366 . S
C430 C404 1.490 . S
C430 C431 1.380 . S
C430 C435 1.386 . S
C431 H388 0.930 . S
C431 C430 1.380 . S
C431 C432 1.381 . S
C432 H389 0.929 . S
C432 C431 1.381 . S
C432 C433 1.371 . S
C433 C432 1.371 . S
C433 C434 1.380 . S
C434 H390 0.931 . S
C434 C433 1.380 . S
C434 C435 1.387 . S
C435 H391 0.930 . S
C435 C430 1.386 . S
C435 C434 1.387 . S
C436 C405 1.519 . S
C436 C437 1.377 . S
C436 C441 1.361 . S
C437 H392 0.929 . S
C437 C436 1.377 . S
C437 C438 1.386 . S
C438 H393 0.931 . S
C438 C437 1.386 . S
C438 C439 1.363 . S
C439 C438 1.363 . S
C439 C440 1.385 . S
C440 H394 0.930 . S
C440 C439 1.385 . S
C440 C441 1.396 . S
C441 H395 0.929 . S
C441 C436 1.361 . S
C441 C440 1.396 . S
C442 O396 1.300 . S
C442 O397 1.209 . S
C442 C415 1.486 . S
C443 O398 1.199 . S
C443 O399 1.297 . S
C443 C427 1.476 . S
Li444 N461 1.990 . S
Li444 O504 1.956 . S
Li444 O505 1.970 . S
Li444 O506 1.961 . S
Li445 N469 1.990 . S
Li445 O504 1.970 . S
Li445 O505 1.956 . S
Li445 O507 1.961 . S
Li446 N491 1.990 . S
Li446 O504 1.961 . S
Li446 O506 1.956 . S
Li446 O507 1.970 . S
Li447 N497 1.990 . S
Li447 O505 1.961 . S
Li447 O506 1.970 . S
Li447 O507 1.956 . S
C448 C450 1.348 . S
C448 C451 1.356 . S
C448 O504 1.325 . S
N449 C452 1.314 . S
N449 C453 1.279 . S
C450 C448 1.348 . S
C450 C452 1.353 . S
C450 H508 0.929 . S
C451 C448 1.356 . S
C451 C453 1.358 . S
C451 H509 0.930 . S
C452 N449 1.314 . S
C452 C450 1.353 . S
C452 H510 0.930 . S
C453 N449 1.279 . S
C453 C451 1.358 . S
C453 H511 0.930 . S
C454 C457 1.348 . S
C454 C458 1.356 . S
C454 O505 1.325 . S
C455 N456 1.279 . S
C455 C458 1.358 . S
C455 H512 0.930 . S
N456 C455 1.279 . S
N456 C459 1.314 . S
C457 C454 1.348 . S
C457 C459 1.353 . S
C457 H513 0.929 . S
C458 C454 1.356 . S
C458 C455 1.358 . S
C458 H514 0.930 . S
C459 N456 1.314 . S
C459 C457 1.353 . S
C459 H515 0.930 . S
C460 N461 1.314 . S
C460 C465 1.353 . S
C460 H466 0.930 . S
N461 Li444 1.990 . S
N461 C460 1.314 . S
N461 C463 1.279 . S
C462 C463 1.358 . S
C462 C464 1.356 . S
C462 H516 0.930 . S
C463 N461 1.279 . S
C463 C462 1.358 . S
C463 H467 0.930 . S
C464 C462 1.356 . S
C464 C465 1.348 . S
C465 C460 1.353 . S
C465 C464 1.348 . S
C465 H517 0.929 . S
H466 C460 0.930 . S
H467 C463 0.930 . S
C468 N469 1.314 . S
C468 C470 1.353 . S
C468 H474 0.930 . S
N469 Li445 1.990 . S
N469 C468 1.314 . S
N469 C472 1.279 . S
C470 C468 1.353 . S
C470 C473 1.348 . S
C470 H518 0.929 . S
C471 C472 1.358 . S
C471 C473 1.356 . S
C471 H519 0.930 . S
C472 N469 1.279 . S
C472 C471 1.358 . S
C472 H475 0.930 . S
C473 C470 1.348 . S
C473 C471 1.356 . S
H474 C468 0.930 . S
H475 C472 0.930 . S
C476 C478 1.348 . S
C476 C479 1.356 . S
C476 O506 1.325 . S
N477 C480 1.314 . S
N477 C481 1.279 . S
C478 C476 1.348 . S
C478 C480 1.353 . S
C478 H520 0.929 . S
C479 C476 1.356 . S
C479 C481 1.358 . S
C479 H521 0.930 . S
C480 N477 1.314 . S
C480 C478 1.353 . S
C480 H522 0.930 . S
C481 N477 1.279 . S
C481 C479 1.358 . S
C481 H523 0.930 . S
C482 C483 1.348 . S
C482 C484 1.356 . S
C482 O507 1.325 . S
C483 C482 1.348 . S
C483 C485 1.353 . S
C483 H524 0.929 . S
C484 C482 1.356 . S
C484 C486 1.358 . S
C484 H525 0.930 . S
C485 C483 1.353 . S
C485 N487 1.314 . S
C485 H526 0.930 . S
C486 C484 1.358 . S
C486 N487 1.279 . S
C486 H527 0.930 . S
N487 C485 1.314 . S
N487 C486 1.279 . S
C488 C490 1.353 . S
C488 N491 1.314 . S
C488 H494 0.930 . S
C489 N491 1.279 . S
C489 C492 1.358 . S
C489 H495 0.930 . S
C490 C488 1.353 . S
C490 C493 1.348 . S
C490 H528 0.929 . S
N491 Li446 1.990 . S
N491 C488 1.314 . S
N491 C489 1.279 . S
C492 C489 1.358 . S
C492 C493 1.356 . S
C492 H529 0.930 . S
C493 C490 1.348 . S
C493 C492 1.356 . S
H494 C488 0.930 . S
H495 C489 0.930 . S
C496 N497 1.314 . S
C496 C498 1.353 . S
C496 H502 0.930 . S
N497 Li447 1.990 . S
N497 C496 1.314 . S
N497 C500 1.279 . S
C498 C496 1.353 . S
C498 C501 1.348 . S
C498 H530 0.929 . S
C499 C500 1.358 . S
C499 C501 1.356 . S
C499 H531 0.930 . S
C500 N497 1.279 . S
C500 C499 1.358 . S
C500 H503 0.930 . S
C501 C498 1.348 . S
C501 C499 1.356 . S
H502 C496 0.930 . S
H503 C500 0.930 . S
O504 Li444 1.956 . S
O504 Li445 1.970 . S
O504 Li446 1.961 . S
O504 C448 1.325 . S
O505 Li444 1.970 . S
O505 Li445 1.956 . S
O505 Li447 1.961 . S
O505 C454 1.325 . S
O506 Li444 1.961 . S
O506 Li446 1.956 . S
O506 Li447 1.970 . S
O506 C476 1.325 . S
O507 Li445 1.961 . S
O507 Li446 1.970 . S
O507 Li447 1.956 . S
O507 C482 1.325 . S
H508 C450 0.929 . S
H509 C451 0.930 . S
H510 C452 0.930 . S
H511 C453 0.930 . S
H512 C455 0.930 . S
H513 C457 0.929 . S
H514 C458 0.930 . S
H515 C459 0.930 . S
H516 C462 0.930 . S
H517 C465 0.929 . S
H518 C470 0.929 . S
H519 C471 0.930 . S
H520 C478 0.929 . S
H521 C479 0.930 . S
H522 C480 0.930 . S
H523 C481 0.930 . S
H524 C483 0.929 . S
H525 C484 0.930 . S
H526 C485 0.930 . S
H527 C486 0.930 . S
H528 C490 0.929 . S
H529 C492 0.930 . S
H530 C498 0.929 . S
H531 C499 0.930 . S
Li532 N549 1.990 . S
Li532 O592 1.956 . S
Li532 O593 1.970 . S
Li532 O594 1.961 . S
Li533 N557 1.990 . S
Li533 O592 1.970 . S
Li533 O593 1.956 . S
Li533 O595 1.961 . S
Li534 N579 1.990 . S
Li534 O592 1.961 . S
Li534 O594 1.956 . S
Li534 O595 1.970 . S
Li535 N585 1.990 . S
Li535 O593 1.961 . S
Li535 O594 1.970 . S
Li535 O595 1.956 . S
C536 C538 1.348 . S
C536 C539 1.356 . S
C536 O592 1.325 . S
N537 C540 1.314 . S
N537 C541 1.279 . S
C538 C536 1.348 . S
C538 C540 1.353 . S
C538 H596 0.929 . S
C539 C536 1.356 . S
C539 C541 1.358 . S
C539 H597 0.930 . S
C540 N537 1.314 . S
C540 C538 1.353 . S
C540 H598 0.930 . S
C541 N537 1.279 . S
C541 C539 1.358 . S
C541 H599 0.930 . S
C542 C545 1.348 . S
C542 C546 1.356 . S
C542 O593 1.325 . S
C543 N544 1.279 . S
C543 C546 1.358 . S
C543 H600 0.930 . S
N544 C543 1.279 . S
N544 C547 1.314 . S
C545 C542 1.348 . S
C545 C547 1.353 . S
C545 H601 0.929 . S
C546 C542 1.356 . S
C546 C543 1.358 . S
C546 H602 0.930 . S
C547 N544 1.314 . S
C547 C545 1.353 . S
C547 H603 0.930 . S
C548 N549 1.314 . S
C548 C553 1.353 . S
C548 H554 0.930 . S
N549 Li532 1.990 . S
N549 C548 1.314 . S
N549 C551 1.279 . S
C550 C551 1.358 . S
C550 C552 1.356 . S
C550 H604 0.930 . S
C551 N549 1.279 . S
C551 C550 1.358 . S
C551 H555 0.930 . S
C552 C550 1.356 . S
C552 C553 1.348 . S
C553 C548 1.353 . S
C553 C552 1.348 . S
C553 H605 0.929 . S
H554 C548 0.930 . S
H555 C551 0.930 . S
C556 N557 1.314 . S
C556 C558 1.353 . S
C556 H562 0.930 . S
N557 Li533 1.990 . S
N557 C556 1.314 . S
N557 C560 1.279 . S
C558 C556 1.353 . S
C558 C561 1.348 . S
C558 H606 0.929 . S
C559 C560 1.358 . S
C559 C561 1.356 . S
C559 H607 0.930 . S
C560 N557 1.279 . S
C560 C559 1.358 . S
C560 H563 0.930 . S
C561 C558 1.348 . S
C561 C559 1.356 . S
H562 C556 0.930 . S
H563 C560 0.930 . S
C564 C566 1.348 . S
C564 C567 1.356 . S
C564 O594 1.325 . S
N565 C568 1.314 . S
N565 C569 1.279 . S
C566 C564 1.348 . S
C566 C568 1.353 . S
C566 H608 0.929 . S
C567 C564 1.356 . S
C567 C569 1.358 . S
C567 H609 0.930 . S
C568 N565 1.314 . S
C568 C566 1.353 . S
C568 H610 0.930 . S
C569 N565 1.279 . S
C569 C567 1.358 . S
C569 H611 0.930 . S
C570 C571 1.348 . S
C570 C572 1.356 . S
C570 O595 1.325 . S
C571 C570 1.348 . S
C571 C573 1.353 . S
C571 H612 0.929 . S
C572 C570 1.356 . S
C572 C574 1.358 . S
C572 H613 0.930 . S
C573 C571 1.353 . S
C573 N575 1.314 . S
C573 H614 0.930 . S
C574 C572 1.358 . S
C574 N575 1.279 . S
C574 H615 0.930 . S
N575 C573 1.314 . S
N575 C574 1.279 . S
C576 C578 1.353 . S
C576 N579 1.314 . S
C576 H582 0.930 . S
C577 N579 1.279 . S
C577 C580 1.358 . S
C577 H583 0.930 . S
C578 C576 1.353 . S
C578 C581 1.348 . S
C578 H616 0.929 . S
N579 Li534 1.990 . S
N579 C576 1.314 . S
N579 C577 1.279 . S
C580 C577 1.358 . S
C580 C581 1.356 . S
C580 H617 0.930 . S
C581 C578 1.348 . S
C581 C580 1.356 . S
H582 C576 0.930 . S
H583 C577 0.930 . S
C584 N585 1.314 . S
C584 C586 1.353 . S
C584 H590 0.930 . S
N585 Li535 1.990 . S
N585 C584 1.314 . S
N585 C588 1.279 . S
C586 C584 1.353 . S
C586 C589 1.348 . S
C586 H618 0.929 . S
C587 C588 1.358 . S
C587 C589 1.356 . S
C587 H619 0.930 . S
C588 N585 1.279 . S
C588 C587 1.358 . S
C588 H591 0.930 . S
C589 C586 1.348 . S
C589 C587 1.356 . S
H590 C584 0.930 . S
H591 C588 0.930 . S
O592 Li532 1.956 . S
O592 Li533 1.970 . S
O592 Li534 1.961 . S
O592 C536 1.325 . S
O593 Li532 1.970 . S
O593 Li533 1.956 . S
O593 Li535 1.961 . S
O593 C542 1.325 . S
O594 Li532 1.961 . S
O594 Li534 1.956 . S
O594 Li535 1.970 . S
O594 C564 1.325 . S
O595 Li533 1.961 . S
O595 Li534 1.970 . S
O595 Li535 1.956 . S
O595 C570 1.325 . S
H596 C538 0.929 . S
H597 C539 0.930 . S
H598 C540 0.930 . S
H599 C541 0.930 . S
H600 C543 0.930 . S
H601 C545 0.929 . S
H602 C546 0.930 . S
H603 C547 0.930 . S
H604 C550 0.930 . S
H605 C553 0.929 . S
H606 C558 0.929 . S
H607 C559 0.930 . S
H608 C566 0.929 . S
H609 C567 0.930 . S
H610 C568 0.930 . S
H611 C569 0.930 . S
H612 C571 0.929 . S
H613 C572 0.930 . S
H614 C573 0.930 . S
H615 C574 0.930 . S
H616 C578 0.929 . S
H617 C580 0.930 . S
H618 C586 0.929 . S
H619 C587 0.930 . S
Li620 N637 1.990 . S
Li620 O680 1.956 . S
Li620 O681 1.970 . S
Li620 O682 1.961 . S
Li621 N645 1.990 . S
Li621 O680 1.970 . S
Li621 O681 1.956 . S
Li621 O683 1.961 . S
Li622 N667 1.990 . S
Li622 O680 1.961 . S
Li622 O682 1.956 . S
Li622 O683 1.970 . S
Li623 N673 1.990 . S
Li623 O681 1.961 . S
Li623 O682 1.970 . S
Li623 O683 1.956 . S
C624 C626 1.348 . S
C624 C627 1.356 . S
C624 O680 1.325 . S
N625 C628 1.314 . S
N625 C629 1.279 . S
C626 C624 1.348 . S
C626 C628 1.353 . S
C626 H684 0.929 . S
C627 C624 1.356 . S
C627 C629 1.358 . S
C627 H685 0.930 . S
C628 N625 1.314 . S
C628 C626 1.353 . S
C628 H686 0.930 . S
C629 N625 1.279 . S
C629 C627 1.358 . S
C629 H687 0.930 . S
C630 C633 1.348 . S
C630 C634 1.356 . S
C630 O681 1.325 . S
C631 N632 1.279 . S
C631 C634 1.358 . S
C631 H688 0.930 . S
N632 C631 1.279 . S
N632 C635 1.314 . S
C633 C630 1.348 . S
C633 C635 1.353 . S
C633 H689 0.929 . S
C634 C630 1.356 . S
C634 C631 1.358 . S
C634 H690 0.930 . S
C635 N632 1.314 . S
C635 C633 1.353 . S
C635 H691 0.930 . S
C636 N637 1.314 . S
C636 C641 1.353 . S
C636 H642 0.930 . S
N637 Li620 1.990 . S
N637 C636 1.314 . S
N637 C639 1.279 . S
C638 C639 1.358 . S
C638 C640 1.356 . S
C638 H692 0.930 . S
C639 N637 1.279 . S
C639 C638 1.358 . S
C639 H643 0.930 . S
C640 C638 1.356 . S
C640 C641 1.348 . S
C641 C636 1.353 . S
C641 C640 1.348 . S
C641 H693 0.929 . S
H642 C636 0.930 . S
H643 C639 0.930 . S
C644 N645 1.314 . S
C644 C646 1.353 . S
C644 H650 0.930 . S
N645 Li621 1.990 . S
N645 C644 1.314 . S
N645 C648 1.279 . S
C646 C644 1.353 . S
C646 C649 1.348 . S
C646 H694 0.929 . S
C647 C648 1.358 . S
C647 C649 1.356 . S
C647 H695 0.930 . S
C648 N645 1.279 . S
C648 C647 1.358 . S
C648 H651 0.930 . S
C649 C646 1.348 . S
C649 C647 1.356 . S
H650 C644 0.930 . S
H651 C648 0.930 . S
C652 C654 1.348 . S
C652 C655 1.356 . S
C652 O682 1.325 . S
N653 C656 1.314 . S
N653 C657 1.279 . S
C654 C652 1.348 . S
C654 C656 1.353 . S
C654 H696 0.929 . S
C655 C652 1.356 . S
C655 C657 1.358 . S
C655 H697 0.930 . S
C656 N653 1.314 . S
C656 C654 1.353 . S
C656 H698 0.930 . S
C657 N653 1.279 . S
C657 C655 1.358 . S
C657 H699 0.930 . S
C658 C659 1.348 . S
C658 C660 1.356 . S
C658 O683 1.325 . S
C659 C658 1.348 . S
C659 C661 1.353 . S
C659 H700 0.929 . S
C660 C658 1.356 . S
C660 C662 1.358 . S
C660 H701 0.930 . S
C661 C659 1.353 . S
C661 N663 1.314 . S
C661 H702 0.930 . S
C662 C660 1.358 . S
C662 N663 1.279 . S
C662 H703 0.930 . S
N663 C661 1.314 . S
N663 C662 1.279 . S
C664 C666 1.353 . S
C664 N667 1.314 . S
C664 H670 0.930 . S
C665 N667 1.279 . S
C665 C668 1.358 . S
C665 H671 0.930 . S
C666 C664 1.353 . S
C666 C669 1.348 . S
C666 H704 0.929 . S
N667 Li622 1.990 . S
N667 C664 1.314 . S
N667 C665 1.279 . S
C668 C665 1.358 . S
C668 C669 1.356 . S
C668 H705 0.930 . S
C669 C666 1.348 . S
C669 C668 1.356 . S
H670 C664 0.930 . S
H671 C665 0.930 . S
C672 N673 1.314 . S
C672 C674 1.353 . S
C672 H678 0.930 . S
N673 Li623 1.990 . S
N673 C672 1.314 . S
N673 C676 1.279 . S
C674 C672 1.353 . S
C674 C677 1.348 . S
C674 H706 0.929 . S
C675 C676 1.358 . S
C675 C677 1.356 . S
C675 H707 0.930 . S
C676 N673 1.279 . S
C676 C675 1.358 . S
C676 H679 0.930 . S
C677 C674 1.348 . S
C677 C675 1.356 . S
H678 C672 0.930 . S
H679 C676 0.930 . S
O680 Li620 1.956 . S
O680 Li621 1.970 . S
O680 Li622 1.961 . S
O680 C624 1.325 . S
O681 Li620 1.970 . S
O681 Li621 1.956 . S
O681 Li623 1.961 . S
O681 C630 1.325 . S
O682 Li620 1.961 . S
O682 Li622 1.956 . S
O682 Li623 1.970 . S
O682 C652 1.325 . S
O683 Li621 1.961 . S
O683 Li622 1.970 . S
O683 Li623 1.956 . S
O683 C658 1.325 . S
H684 C626 0.929 . S
H685 C627 0.930 . S
H686 C628 0.930 . S
H687 C629 0.930 . S
H688 C631 0.930 . S
H689 C633 0.929 . S
H690 C634 0.930 . S
H691 C635 0.930 . S
H692 C638 0.930 . S
H693 C641 0.929 . S
H694 C646 0.929 . S
H695 C647 0.930 . S
H696 C654 0.929 . S
H697 C655 0.930 . S
H698 C656 0.930 . S
H699 C657 0.930 . S
H700 C659 0.929 . S
H701 C660 0.930 . S
H702 C661 0.930 . S
H703 C662 0.930 . S
H704 C666 0.929 . S
H705 C668 0.930 . S
H706 C674 0.929 . S
H707 C675 0.930 . S
Li708 N725 1.990 . S
Li708 O768 1.956 . S
Li708 O769 1.970 . S
Li708 O770 1.961 . S
Li709 N733 1.990 . S
Li709 O768 1.970 . S
Li709 O769 1.956 . S
Li709 O771 1.961 . S
Li710 N755 1.990 . S
Li710 O768 1.961 . S
Li710 O770 1.956 . S
Li710 O771 1.970 . S
Li711 N761 1.990 . S
Li711 O769 1.961 . S
Li711 O770 1.970 . S
Li711 O771 1.956 . S
C712 C714 1.348 . S
C712 C715 1.356 . S
C712 O768 1.325 . S
N713 C716 1.314 . S
N713 C717 1.279 . S
C714 C712 1.348 . S
C714 C716 1.353 . S
C714 H772 0.929 . S
C715 C712 1.356 . S
C715 C717 1.358 . S
C715 H773 0.930 . S
C716 N713 1.314 . S
C716 C714 1.353 . S
C716 H774 0.930 . S
C717 N713 1.279 . S
C717 C715 1.358 . S
C717 H775 0.930 . S
C718 C721 1.348 . S
C718 C722 1.356 . S
C718 O769 1.325 . S
C719 N720 1.279 . S
C719 C722 1.358 . S
C719 H776 0.930 . S
N720 C719 1.279 . S
N720 C723 1.314 . S
C721 C718 1.348 . S
C721 C723 1.353 . S
C721 H777 0.929 . S
C722 C718 1.356 . S
C722 C719 1.358 . S
C722 H778 0.930 . S
C723 N720 1.314 . S
C723 C721 1.353 . S
C723 H779 0.930 . S
C724 N725 1.314 . S
C724 C729 1.353 . S
C724 H730 0.930 . S
N725 Li708 1.990 . S
N725 C724 1.314 . S
N725 C727 1.279 . S
C726 C727 1.358 . S
C726 C728 1.356 . S
C726 H780 0.930 . S
C727 N725 1.279 . S
C727 C726 1.358 . S
C727 H731 0.930 . S
C728 C726 1.356 . S
C728 C729 1.348 . S
C729 C724 1.353 . S
C729 C728 1.348 . S
C729 H781 0.929 . S
H730 C724 0.930 . S
H731 C727 0.930 . S
C732 N733 1.314 . S
C732 C734 1.353 . S
C732 H738 0.930 . S
N733 Li709 1.990 . S
N733 C732 1.314 . S
N733 C736 1.279 . S
C734 C732 1.353 . S
C734 C737 1.348 . S
C734 H782 0.929 . S
C735 C736 1.358 . S
C735 C737 1.356 . S
C735 H783 0.930 . S
C736 N733 1.279 . S
C736 C735 1.358 . S
C736 H739 0.930 . S
C737 C734 1.348 . S
C737 C735 1.356 . S
H738 C732 0.930 . S
H739 C736 0.930 . S
C740 C742 1.348 . S
C740 C743 1.356 . S
C740 O770 1.325 . S
N741 C744 1.314 . S
N741 C745 1.279 . S
C742 C740 1.348 . S
C742 C744 1.353 . S
C742 H784 0.929 . S
C743 C740 1.356 . S
C743 C745 1.358 . S
C743 H785 0.930 . S
C744 N741 1.314 . S
C744 C742 1.353 . S
C744 H786 0.930 . S
C745 N741 1.279 . S
C745 C743 1.358 . S
C745 H787 0.930 . S
C746 C747 1.348 . S
C746 C748 1.356 . S
C746 O771 1.325 . S
C747 C746 1.348 . S
C747 C749 1.353 . S
C747 H788 0.929 . S
C748 C746 1.356 . S
C748 C750 1.358 . S
C748 H789 0.930 . S
C749 C747 1.353 . S
C749 N751 1.314 . S
C749 H790 0.930 . S
C750 C748 1.358 . S
C750 N751 1.279 . S
C750 H791 0.930 . S
N751 C749 1.314 . S
N751 C750 1.279 . S
C752 C754 1.353 . S
C752 N755 1.314 . S
C752 H758 0.930 . S
C753 N755 1.279 . S
C753 C756 1.358 . S
C753 H759 0.930 . S
C754 C752 1.353 . S
C754 C757 1.348 . S
C754 H792 0.929 . S
N755 Li710 1.990 . S
N755 C752 1.314 . S
N755 C753 1.279 . S
C756 C753 1.358 . S
C756 C757 1.356 . S
C756 H793 0.930 . S
C757 C754 1.348 . S
C757 C756 1.356 . S
H758 C752 0.930 . S
H759 C753 0.930 . S
C760 N761 1.314 . S
C760 C762 1.353 . S
C760 H766 0.930 . S
N761 Li711 1.990 . S
N761 C760 1.314 . S
N761 C764 1.279 . S
C762 C760 1.353 . S
C762 C765 1.348 . S
C762 H794 0.929 . S
C763 C764 1.358 . S
C763 C765 1.356 . S
C763 H795 0.930 . S
C764 N761 1.279 . S
C764 C763 1.358 . S
C764 H767 0.930 . S
C765 C762 1.348 . S
C765 C763 1.356 . S
H766 C760 0.930 . S
H767 C764 0.930 . S
O768 Li708 1.956 . S
O768 Li709 1.970 . S
O768 Li710 1.961 . S
O768 C712 1.325 . S
O769 Li708 1.970 . S
O769 Li709 1.956 . S
O769 Li711 1.961 . S
O769 C718 1.325 . S
O770 Li708 1.961 . S
O770 Li710 1.956 . S
O770 Li711 1.970 . S
O770 C740 1.325 . S
O771 Li709 1.961 . S
O771 Li710 1.970 . S
O771 Li711 1.956 . S
O771 C746 1.325 . S
H772 C714 0.929 . S
H773 C715 0.930 . S
H774 C716 0.930 . S
H775 C717 0.930 . S
H776 C719 0.930 . S
H777 C721 0.929 . S
H778 C722 0.930 . S
H779 C723 0.930 . S
H780 C726 0.930 . S
H781 C729 0.929 . S
H782 C734 0.929 . S
H783 C735 0.930 . S
H784 C742 0.929 . S
H785 C743 0.930 . S
H786 C744 0.930 . S
H787 C745 0.930 . S
H788 C747 0.929 . S
H789 C748 0.930 . S
H790 C749 0.930 . S
H791 C750 0.930 . S
H792 C754 0.929 . S
H793 C756 0.930 . S
H794 C762 0.929 . S
H795 C763 0.930 . S
Li796 N813 1.990 . S
Li796 O856 1.956 . S
Li796 O857 1.970 . S
Li796 O858 1.961 . S
Li797 N821 1.990 . S
Li797 O856 1.970 . S
Li797 O857 1.956 . S
Li797 O859 1.961 . S
Li798 N843 1.990 . S
Li798 O856 1.961 . S
Li798 O858 1.956 . S
Li798 O859 1.970 . S
Li799 N849 1.990 . S
Li799 O857 1.961 . S
Li799 O858 1.970 . S
Li799 O859 1.956 . S
C800 C802 1.348 . S
C800 C803 1.356 . S
C800 O856 1.325 . S
N801 C804 1.314 . S
N801 C805 1.279 . S
C802 C800 1.348 . S
C802 C804 1.353 . S
C802 H860 0.929 . S
C803 C800 1.356 . S
C803 C805 1.358 . S
C803 H861 0.930 . S
C804 N801 1.314 . S
C804 C802 1.353 . S
C804 H862 0.930 . S
C805 N801 1.279 . S
C805 C803 1.358 . S
C805 H863 0.930 . S
C806 C809 1.348 . S
C806 C810 1.356 . S
C806 O857 1.325 . S
C807 N808 1.279 . S
C807 C810 1.358 . S
C807 H864 0.930 . S
N808 C807 1.279 . S
N808 C811 1.314 . S
C809 C806 1.348 . S
C809 C811 1.353 . S
C809 H865 0.929 . S
C810 C806 1.356 . S
C810 C807 1.358 . S
C810 H866 0.930 . S
C811 N808 1.314 . S
C811 C809 1.353 . S
C811 H867 0.930 . S
C812 N813 1.314 . S
C812 C817 1.353 . S
C812 H818 0.930 . S
N813 Li796 1.990 . S
N813 C812 1.314 . S
N813 C815 1.279 . S
C814 C815 1.358 . S
C814 C816 1.356 . S
C814 H868 0.930 . S
C815 N813 1.279 . S
C815 C814 1.358 . S
C815 H819 0.930 . S
C816 C814 1.356 . S
C816 C817 1.348 . S
C817 C812 1.353 . S
C817 C816 1.348 . S
C817 H869 0.929 . S
H818 C812 0.930 . S
H819 C815 0.930 . S
C820 N821 1.314 . S
C820 C822 1.353 . S
C820 H826 0.930 . S
N821 Li797 1.990 . S
N821 C820 1.314 . S
N821 C824 1.279 . S
C822 C820 1.353 . S
C822 C825 1.348 . S
C822 H870 0.929 . S
C823 C824 1.358 . S
C823 C825 1.356 . S
C823 H871 0.930 . S
C824 N821 1.279 . S
C824 C823 1.358 . S
C824 H827 0.930 . S
C825 C822 1.348 . S
C825 C823 1.356 . S
H826 C820 0.930 . S
H827 C824 0.930 . S
C828 C830 1.348 . S
C828 C831 1.356 . S
C828 O858 1.325 . S
N829 C832 1.314 . S
N829 C833 1.279 . S
C830 C828 1.348 . S
C830 C832 1.353 . S
C830 H872 0.929 . S
C831 C828 1.356 . S
C831 C833 1.358 . S
C831 H873 0.930 . S
C832 N829 1.314 . S
C832 C830 1.353 . S
C832 H874 0.930 . S
C833 N829 1.279 . S
C833 C831 1.358 . S
C833 H875 0.930 . S
C834 C835 1.348 . S
C834 C836 1.356 . S
C834 O859 1.325 . S
C835 C834 1.348 . S
C835 C837 1.353 . S
C835 H876 0.929 . S
C836 C834 1.356 . S
C836 C838 1.358 . S
C836 H877 0.930 . S
C837 C835 1.353 . S
C837 N839 1.314 . S
C837 H878 0.930 . S
C838 C836 1.358 . S
C838 N839 1.279 . S
C838 H879 0.930 . S
N839 C837 1.314 . S
N839 C838 1.279 . S
C840 C842 1.353 . S
C840 N843 1.314 . S
C840 H846 0.930 . S
C841 N843 1.279 . S
C841 C844 1.358 . S
C841 H847 0.930 . S
C842 C840 1.353 . S
C842 C845 1.348 . S
C842 H880 0.929 . S
N843 Li798 1.990 . S
N843 C840 1.314 . S
N843 C841 1.279 . S
C844 C841 1.358 . S
C844 C845 1.356 . S
C844 H881 0.930 . S
C845 C842 1.348 . S
C845 C844 1.356 . S
H846 C840 0.930 . S
H847 C841 0.930 . S
C848 N849 1.314 . S
C848 C850 1.353 . S
C848 H854 0.930 . S
N849 Li799 1.990 . S
N849 C848 1.314 . S
N849 C852 1.279 . S
C850 C848 1.353 . S
C850 C853 1.348 . S
C850 H882 0.929 . S
C851 C852 1.358 . S
C851 C853 1.356 . S
C851 H883 0.930 . S
C852 N849 1.279 . S
C852 C851 1.358 . S
C852 H855 0.930 . S
C853 C850 1.348 . S
C853 C851 1.356 . S
H854 C848 0.930 . S
H855 C852 0.930 . S
O856 Li796 1.956 . S
O856 Li797 1.970 . S
O856 Li798 1.961 . S
O856 C800 1.325 . S
O857 Li796 1.970 . S
O857 Li797 1.956 . S
O857 Li799 1.961 . S
O857 C806 1.325 . S
O858 Li796 1.961 . S
O858 Li798 1.956 . S
O858 Li799 1.970 . S
O858 C828 1.325 . S
O859 Li797 1.961 . S
O859 Li798 1.970 . S
O859 Li799 1.956 . S
O859 C834 1.325 . S
H860 C802 0.929 . S
H861 C803 0.930 . S
H862 C804 0.930 . S
H863 C805 0.930 . S
H864 C807 0.930 . S
H865 C809 0.929 . S
H866 C810 0.930 . S
H867 C811 0.930 . S
H868 C814 0.930 . S
H869 C817 0.929 . S
H870 C822 0.929 . S
H871 C823 0.930 . S
H872 C830 0.929 . S
H873 C831 0.930 . S
H874 C832 0.930 . S
H875 C833 0.930 . S
H876 C835 0.929 . S
H877 C836 0.930 . S
H878 C837 0.930 . S
H879 C838 0.930 . S
H880 C842 0.929 . S
H881 C844 0.930 . S
H882 C850 0.929 . S
H883 C851 0.930 . S
Li884 N901 1.990 . S
Li884 O944 1.956 . S
Li884 O945 1.970 . S
Li884 O946 1.961 . S
Li885 N909 1.990 . S
Li885 O944 1.970 . S
Li885 O945 1.956 . S
Li885 O947 1.961 . S
Li886 N931 1.990 . S
Li886 O944 1.961 . S
Li886 O946 1.956 . S
Li886 O947 1.970 . S
Li887 N937 1.990 . S
Li887 O945 1.961 . S
Li887 O946 1.970 . S
Li887 O947 1.956 . S
C888 C890 1.348 . S
C888 C891 1.356 . S
C888 O944 1.325 . S
N889 C892 1.314 . S
N889 C893 1.279 . S
C890 C888 1.348 . S
C890 C892 1.353 . S
C890 H948 0.929 . S
C891 C888 1.356 . S
C891 C893 1.358 . S
C891 H949 0.930 . S
C892 N889 1.314 . S
C892 C890 1.353 . S
C892 H950 0.930 . S
C893 N889 1.279 . S
C893 C891 1.358 . S
C893 H951 0.930 . S
C894 C897 1.348 . S
C894 C898 1.356 . S
C894 O945 1.325 . S
C895 N896 1.279 . S
C895 C898 1.358 . S
C895 H952 0.930 . S
N896 C895 1.279 . S
N896 C899 1.314 . S
C897 C894 1.348 . S
C897 C899 1.353 . S
C897 H953 0.929 . S
C898 C894 1.356 . S
C898 C895 1.358 . S
C898 H954 0.930 . S
C899 N896 1.314 . S
C899 C897 1.353 . S
C899 H955 0.930 . S
C900 N901 1.314 . S
C900 C905 1.353 . S
C900 H906 0.930 . S
N901 Li884 1.990 . S
N901 C900 1.314 . S
N901 C903 1.279 . S
C902 C903 1.358 . S
C902 C904 1.356 . S
C902 H956 0.930 . S
C903 N901 1.279 . S
C903 C902 1.358 . S
C903 H907 0.930 . S
C904 C902 1.356 . S
C904 C905 1.348 . S
C905 C900 1.353 . S
C905 C904 1.348 . S
C905 H957 0.929 . S
H906 C900 0.930 . S
H907 C903 0.930 . S
C908 N909 1.314 . S
C908 C910 1.353 . S
C908 H914 0.930 . S
N909 Li885 1.990 . S
N909 C908 1.314 . S
N909 C912 1.279 . S
C910 C908 1.353 . S
C910 C913 1.348 . S
C910 H958 0.929 . S
C911 C912 1.358 . S
C911 C913 1.356 . S
C911 H959 0.930 . S
C912 N909 1.279 . S
C912 C911 1.358 . S
C912 H915 0.930 . S
C913 C910 1.348 . S
C913 C911 1.356 . S
H914 C908 0.930 . S
H915 C912 0.930 . S
C916 C918 1.348 . S
C916 C919 1.356 . S
C916 O946 1.325 . S
N917 C920 1.314 . S
N917 C921 1.279 . S
C918 C916 1.348 . S
C918 C920 1.353 . S
C918 H960 0.929 . S
C919 C916 1.356 . S
C919 C921 1.358 . S
C919 H961 0.930 . S
C920 N917 1.314 . S
C920 C918 1.353 . S
C920 H962 0.930 . S
C921 N917 1.279 . S
C921 C919 1.358 . S
C921 H963 0.930 . S
C922 C923 1.348 . S
C922 C924 1.356 . S
C922 O947 1.325 . S
C923 C922 1.348 . S
C923 C925 1.353 . S
C923 H964 0.929 . S
C924 C922 1.356 . S
C924 C926 1.358 . S
C924 H965 0.930 . S
C925 C923 1.353 . S
C925 N927 1.314 . S
C925 H966 0.930 . S
C926 C924 1.358 . S
C926 N927 1.279 . S
C926 H967 0.930 . S
N927 C925 1.314 . S
N927 C926 1.279 . S
C928 C930 1.353 . S
C928 N931 1.314 . S
C928 H934 0.930 . S
C929 N931 1.279 . S
C929 C932 1.358 . S
C929 H935 0.930 . S
C930 C928 1.353 . S
C930 C933 1.348 . S
C930 H968 0.929 . S
N931 Li886 1.990 . S
N931 C928 1.314 . S
N931 C929 1.279 . S
C932 C929 1.358 . S
C932 C933 1.356 . S
C932 H969 0.930 . S
C933 C930 1.348 . S
C933 C932 1.356 . S
H934 C928 0.930 . S
H935 C929 0.930 . S
C936 N937 1.314 . S
C936 C938 1.353 . S
C936 H942 0.930 . S
N937 Li887 1.990 . S
N937 C936 1.314 . S
N937 C940 1.279 . S
C938 C936 1.353 . S
C938 C941 1.348 . S
C938 H970 0.929 . S
C939 C940 1.358 . S
C939 C941 1.356 . S
C939 H971 0.930 . S
C940 N937 1.279 . S
C940 C939 1.358 . S
C940 H943 0.930 . S
C941 C938 1.348 . S
C941 C939 1.356 . S
H942 C936 0.930 . S
H943 C940 0.930 . S
O944 Li884 1.956 . S
O944 Li885 1.970 . S
O944 Li886 1.961 . S
O944 C888 1.325 . S
O945 Li884 1.970 . S
O945 Li885 1.956 . S
O945 Li887 1.961 . S
O945 C894 1.325 . S
O946 Li884 1.961 . S
O946 Li886 1.956 . S
O946 Li887 1.970 . S
O946 C916 1.325 . S
O947 Li885 1.961 . S
O947 Li886 1.970 . S
O947 Li887 1.956 . S
O947 C922 1.325 . S
H948 C890 0.929 . S
H949 C891 0.930 . S
H950 C892 0.930 . S
H951 C893 0.930 . S
H952 C895 0.930 . S
H953 C897 0.929 . S
H954 C898 0.930 . S
H955 C899 0.930 . S
H956 C902 0.930 . S
H957 C905 0.929 . S
H958 C910 0.929 . S
H959 C911 0.930 . S
H960 C918 0.929 . S
H961 C919 0.930 . S
H962 C920 0.930 . S
H963 C921 0.930 . S
H964 C923 0.929 . S
H965 C924 0.930 . S
H966 C925 0.930 . S
H967 C926 0.930 . S
H968 C930 0.929 . S
H969 C932 0.930 . S
H970 C938 0.929 . S
H971 C939 0.930 . S
C972 C973 1.349 . S
C972 C974 1.327 . S
C972 H997 0.950 . S
C973 C972 1.349 . S
C973 C989 1.349 . S
C974 C972 1.327 . S
C974 C993 1.429 . S
C974 H998 0.950 . S
C975 C992 1.574 . S
C975 C994 1.368 . S
C975 H999 0.949 . S
H976 C980 0.949 . S
C977 C978 1.349 . S
C977 C979 1.327 . S
C977 H1000 0.950 . S
C978 C977 1.349 . S
C978 C990 1.349 . S
C979 C977 1.327 . S
C979 C995 1.429 . S
C979 H1001 0.950 . S
C980 H976 0.949 . S
C980 C988 1.574 . S
C980 C996 1.368 . S
H981 C989 0.950 . S
H982 C987 0.950 . S
H983 C988 0.949 . S
H984 C990 0.950 . S
H985 C991 0.950 . S
H986 C992 0.949 . S
C987 H982 0.950 . S
C987 C989 1.327 . S
C987 C993 1.429 . S
C988 C980 1.574 . S
C988 H983 0.949 . S
C988 C994 1.368 . S
C989 C973 1.349 . S
C989 H981 0.950 . S
C989 C987 1.327 . S
C990 C978 1.349 . S
C990 H984 0.950 . S
C990 C991 1.327 . S
C991 H985 0.950 . S
C991 C990 1.327 . S
C991 C995 1.429 . S
C992 C975 1.574 . S
C992 H986 0.949 . S
C992 C996 1.368 . S
C993 C974 1.429 . S
C993 C987 1.429 . S
C993 C994 1.523 . S
C994 C975 1.368 . S
C994 C988 1.368 . S
C994 C993 1.523 . S
C995 C979 1.429 . S
C995 C991 1.429 . S
C995 C996 1.523 . S
C996 C980 1.368 . S
C996 C992 1.368 . S
C996 C995 1.523 . S
H997 C972 0.950 . S
H998 C974 0.950 . S
H999 C975 0.949 . S
H1000 C977 0.950 . S
H1001 C979 0.950 . S
C1002 C1003 1.349 . S
C1002 C1004 1.327 . S
C1002 H1027 0.950 . S
C1003 C1002 1.349 . S
C1003 C1019 1.349 . S
C1004 C1002 1.327 . S
C1004 C1023 1.429 . S
C1004 H1028 0.950 . S
C1005 C1022 1.574 . S
C1005 C1024 1.368 . S
C1005 H1029 0.949 . S
H1006 C1010 0.949 . S
C1007 C1008 1.349 . S
C1007 C1009 1.327 . S
C1007 H1030 0.950 . S
C1008 C1007 1.349 . S
C1008 C1020 1.349 . S
C1009 C1007 1.327 . S
C1009 C1025 1.429 . S
C1009 H1031 0.950 . S
C1010 H1006 0.949 . S
C1010 C1018 1.574 . S
C1010 C1026 1.368 . S
H1011 C1019 0.950 . S
H1012 C1017 0.950 . S
H1013 C1018 0.949 . S
H1014 C1020 0.950 . S
H1015 C1021 0.950 . S
H1016 C1022 0.949 . S
C1017 H1012 0.950 . S
C1017 C1019 1.327 . S
C1017 C1023 1.429 . S
C1018 C1010 1.574 . S
C1018 H1013 0.949 . S
C1018 C1024 1.368 . S
C1019 C1003 1.349 . S
C1019 H1011 0.950 . S
C1019 C1017 1.327 . S
C1020 C1008 1.349 . S
C1020 H1014 0.950 . S
C1020 C1021 1.327 . S
C1021 H1015 0.950 . S
C1021 C1020 1.327 . S
C1021 C1025 1.429 . S
C1022 C1005 1.574 . S
C1022 H1016 0.949 . S
C1022 C1026 1.368 . S
C1023 C1004 1.429 . S
C1023 C1017 1.429 . S
C1023 C1024 1.523 . S
C1024 C1005 1.368 . S
C1024 C1018 1.368 . S
C1024 C1023 1.523 . S
C1025 C1009 1.429 . S
C1025 C1021 1.429 . S
C1025 C1026 1.523 . S
C1026 C1010 1.368 . S
C1026 C1022 1.368 . S
C1026 C1025 1.523 . S
H1027 C1002 0.950 . S
H1028 C1004 0.950 . S
H1029 C1005 0.949 . S
H1030 C1007 0.950 . S
H1031 C1009 0.950 . S
C1032 C1033 1.349 . S
C1032 C1034 1.327 . S
C1032 H1057 0.950 . S
C1033 C1032 1.349 . S
C1033 C1049 1.349 . S
C1034 C1032 1.327 . S
C1034 C1053 1.429 . S
C1034 H1058 0.950 . S
C1035 C1052 1.574 . S
C1035 C1054 1.368 . S
C1035 H1059 0.949 . S
H1036 C1040 0.949 . S
C1037 C1038 1.349 . S
C1037 C1039 1.327 . S
C1037 H1060 0.950 . S
C1038 C1037 1.349 . S
C1038 C1050 1.349 . S
C1039 C1037 1.327 . S
C1039 C1055 1.429 . S
C1039 H1061 0.950 . S
C1040 H1036 0.949 . S
C1040 C1048 1.574 . S
C1040 C1056 1.368 . S
H1041 C1049 0.950 . S
H1042 C1047 0.950 . S
H1043 C1048 0.949 . S
H1044 C1050 0.950 . S
H1045 C1051 0.950 . S
H1046 C1052 0.949 . S
C1047 H1042 0.950 . S
C1047 C1049 1.327 . S
C1047 C1053 1.429 . S
C1048 C1040 1.574 . S
C1048 H1043 0.949 . S
C1048 C1054 1.368 . S
C1049 C1033 1.349 . S
C1049 H1041 0.950 . S
C1049 C1047 1.327 . S
C1050 C1038 1.349 . S
C1050 H1044 0.950 . S
C1050 C1051 1.327 . S
C1051 H1045 0.950 . S
C1051 C1050 1.327 . S
C1051 C1055 1.429 . S
C1052 C1035 1.574 . S
C1052 H1046 0.949 . S
C1052 C1056 1.368 . S
C1053 C1034 1.429 . S
C1053 C1047 1.429 . S
C1053 C1054 1.523 . S
C1054 C1035 1.368 . S
C1054 C1048 1.368 . S
C1054 C1053 1.523 . S
C1055 C1039 1.429 . S
C1055 C1051 1.429 . S
C1055 C1056 1.523 . S
C1056 C1040 1.368 . S
C1056 C1052 1.368 . S
C1056 C1055 1.523 . S
H1057 C1032 0.950 . S
H1058 C1034 0.950 . S
H1059 C1035 0.949 . S
H1060 C1037 0.950 . S
H1061 C1039 0.950 . S
C1062 C1063 1.349 . S
C1062 C1064 1.327 . S
C1062 H1087 0.950 . S
C1063 C1062 1.349 . S
C1063 C1079 1.349 . S
C1064 C1062 1.327 . S
C1064 C1083 1.429 . S
C1064 H1088 0.950 . S
C1065 C1082 1.574 . S
C1065 C1084 1.368 . S
C1065 H1089 0.949 . S
H1066 C1070 0.949 . S
C1067 C1068 1.349 . S
C1067 C1069 1.327 . S
C1067 H1090 0.950 . S
C1068 C1067 1.349 . S
C1068 C1080 1.349 . S
C1069 C1067 1.327 . S
C1069 C1085 1.429 . S
C1069 H1091 0.950 . S
C1070 H1066 0.949 . S
C1070 C1078 1.574 . S
C1070 C1086 1.368 . S
H1071 C1079 0.950 . S
H1072 C1077 0.950 . S
H1073 C1078 0.949 . S
H1074 C1080 0.950 . S
H1075 C1081 0.950 . S
H1076 C1082 0.949 . S
C1077 H1072 0.950 . S
C1077 C1079 1.327 . S
C1077 C1083 1.429 . S
C1078 C1070 1.574 . S
C1078 H1073 0.949 . S
C1078 C1084 1.368 . S
C1079 C1063 1.349 . S
C1079 H1071 0.950 . S
C1079 C1077 1.327 . S
C1080 C1068 1.349 . S
C1080 H1074 0.950 . S
C1080 C1081 1.327 . S
C1081 H1075 0.950 . S
C1081 C1080 1.327 . S
C1081 C1085 1.429 . S
C1082 C1065 1.574 . S
C1082 H1076 0.949 . S
C1082 C1086 1.368 . S
C1083 C1064 1.429 . S
C1083 C1077 1.429 . S
C1083 C1084 1.523 . S
C1084 C1065 1.368 . S
C1084 C1078 1.368 . S
C1084 C1083 1.523 . S
C1085 C1069 1.429 . S
C1085 C1081 1.429 . S
C1085 C1086 1.523 . S
C1086 C1070 1.368 . S
C1086 C1082 1.368 . S
C1086 C1085 1.523 . S
H1087 C1062 0.950 . S
H1088 C1064 0.950 . S
H1089 C1065 0.949 . S
H1090 C1067 0.950 . S
H1091 C1069 0.950 . S
C1092 C1093 1.349 . S
C1092 C1094 1.327 . S
C1092 H1117 0.950 . S
C1093 C1092 1.349 . S
C1093 C1109 1.349 . S
C1094 C1092 1.327 . S
C1094 C1113 1.429 . S
C1094 H1118 0.950 . S
C1095 C1112 1.574 . S
C1095 C1114 1.368 . S
C1095 H1119 0.949 . S
H1096 C1100 0.949 . S
C1097 C1098 1.349 . S
C1097 C1099 1.327 . S
C1097 H1120 0.950 . S
C1098 C1097 1.349 . S
C1098 C1110 1.349 . S
C1099 C1097 1.327 . S
C1099 C1115 1.429 . S
C1099 H1121 0.950 . S
C1100 H1096 0.949 . S
C1100 C1108 1.574 . S
C1100 C1116 1.368 . S
H1101 C1109 0.950 . S
H1102 C1107 0.950 . S
H1103 C1108 0.949 . S
H1104 C1110 0.950 . S
H1105 C1111 0.950 . S
H1106 C1112 0.949 . S
C1107 H1102 0.950 . S
C1107 C1109 1.327 . S
C1107 C1113 1.429 . S
C1108 C1100 1.574 . S
C1108 H1103 0.949 . S
C1108 C1114 1.368 . S
C1109 C1093 1.349 . S
C1109 H1101 0.950 . S
C1109 C1107 1.327 . S
C1110 C1098 1.349 . S
C1110 H1104 0.950 . S
C1110 C1111 1.327 . S
C1111 H1105 0.950 . S
C1111 C1110 1.327 . S
C1111 C1115 1.429 . S
C1112 C1095 1.574 . S
C1112 H1106 0.949 . S
C1112 C1116 1.368 . S
C1113 C1094 1.429 . S
C1113 C1107 1.429 . S
C1113 C1114 1.523 . S
C1114 C1095 1.368 . S
C1114 C1108 1.368 . S
C1114 C1113 1.523 . S
C1115 C1099 1.429 . S
C1115 C1111 1.429 . S
C1115 C1116 1.523 . S
C1116 C1100 1.368 . S
C1116 C1112 1.368 . S
C1116 C1115 1.523 . S
H1117 C1092 0.950 . S
H1118 C1094 0.950 . S
H1119 C1095 0.949 . S
H1120 C1097 0.950 . S
H1121 C1099 0.950 . S
C1122 C1123 1.349 . S
C1122 C1124 1.327 . S
C1122 H1147 0.950 . S
C1123 C1122 1.349 . S
C1123 C1139 1.349 . S
C1124 C1122 1.327 . S
C1124 C1143 1.429 . S
C1124 H1148 0.950 . S
C1125 C1142 1.574 . S
C1125 C1144 1.368 . S
C1125 H1149 0.949 . S
H1126 C1130 0.949 . S
C1127 C1128 1.349 . S
C1127 C1129 1.327 . S
C1127 H1150 0.950 . S
C1128 C1127 1.349 . S
C1128 C1140 1.349 . S
C1129 C1127 1.327 . S
C1129 C1145 1.429 . S
C1129 H1151 0.950 . S
C1130 H1126 0.949 . S
C1130 C1138 1.574 . S
C1130 C1146 1.368 . S
H1131 C1139 0.950 . S
H1132 C1137 0.950 . S
H1133 C1138 0.949 . S
H1134 C1140 0.950 . S
H1135 C1141 0.950 . S
H1136 C1142 0.949 . S
C1137 H1132 0.950 . S
C1137 C1139 1.327 . S
C1137 C1143 1.429 . S
C1138 C1130 1.574 . S
C1138 H1133 0.949 . S
C1138 C1144 1.368 . S
C1139 C1123 1.349 . S
C1139 H1131 0.950 . S
C1139 C1137 1.327 . S
C1140 C1128 1.349 . S
C1140 H1134 0.950 . S
C1140 C1141 1.327 . S
C1141 H1135 0.950 . S
C1141 C1140 1.327 . S
C1141 C1145 1.429 . S
C1142 C1125 1.574 . S
C1142 H1136 0.949 . S
C1142 C1146 1.368 . S
C1143 C1124 1.429 . S
C1143 C1137 1.429 . S
C1143 C1144 1.523 . S
C1144 C1125 1.368 . S
C1144 C1138 1.368 . S
C1144 C1143 1.523 . S
C1145 C1129 1.429 . S
C1145 C1141 1.429 . S
C1145 C1146 1.523 . S
C1146 C1130 1.368 . S
C1146 C1142 1.368 . S
C1146 C1145 1.523 . S
H1147 C1122 0.950 . S
H1148 C1124 0.950 . S
H1149 C1125 0.949 . S
H1150 C1127 0.950 . S
H1151 C1129 0.950 . S
C1152 C1153 1.349 . S
C1152 C1154 1.327 . S
C1152 H1177 0.950 . S
C1153 C1152 1.349 . S
C1153 C1169 1.349 . S
C1154 C1152 1.327 . S
C1154 C1173 1.429 . S
C1154 H1178 0.950 . S
C1155 C1172 1.574 . S
C1155 C1174 1.368 . S
C1155 H1179 0.949 . S
H1156 C1160 0.949 . S
C1157 C1158 1.349 . S
C1157 C1159 1.327 . S
C1157 H1180 0.950 . S
C1158 C1157 1.349 . S
C1158 C1170 1.349 . S
C1159 C1157 1.327 . S
C1159 C1175 1.429 . S
C1159 H1181 0.950 . S
C1160 H1156 0.949 . S
C1160 C1168 1.574 . S
C1160 C1176 1.368 . S
H1161 C1169 0.950 . S
H1162 C1167 0.950 . S
H1163 C1168 0.949 . S
H1164 C1170 0.950 . S
H1165 C1171 0.950 . S
H1166 C1172 0.949 . S
C1167 H1162 0.950 . S
C1167 C1169 1.327 . S
C1167 C1173 1.429 . S
C1168 C1160 1.574 . S
C1168 H1163 0.949 . S
C1168 C1174 1.368 . S
C1169 C1153 1.349 . S
C1169 H1161 0.950 . S
C1169 C1167 1.327 . S
C1170 C1158 1.349 . S
C1170 H1164 0.950 . S
C1170 C1171 1.327 . S
C1171 H1165 0.950 . S
C1171 C1170 1.327 . S
C1171 C1175 1.429 . S
C1172 C1155 1.574 . S
C1172 H1166 0.949 . S
C1172 C1176 1.368 . S
C1173 C1154 1.429 . S
C1173 C1167 1.429 . S
C1173 C1174 1.523 . S
C1174 C1155 1.368 . S
C1174 C1168 1.368 . S
C1174 C1173 1.523 . S
C1175 C1159 1.429 . S
C1175 C1171 1.429 . S
C1175 C1176 1.523 . S
C1176 C1160 1.368 . S
C1176 C1172 1.368 . S
C1176 C1175 1.523 . S
H1177 C1152 0.950 . S
H1178 C1154 0.950 . S
H1179 C1155 0.949 . S
H1180 C1157 0.950 . S
H1181 C1159 0.950 . S
C1182 C1183 1.349 . S
C1182 C1184 1.327 . S
C1182 H1207 0.950 . S
C1183 C1182 1.349 . S
C1183 C1199 1.349 . S
C1184 C1182 1.327 . S
C1184 C1203 1.429 . S
C1184 H1208 0.950 . S
C1185 C1202 1.574 . S
C1185 C1204 1.368 . S
C1185 H1209 0.949 . S
H1186 C1190 0.949 . S
C1187 C1188 1.349 . S
C1187 C1189 1.327 . S
C1187 H1210 0.950 . S
C1188 C1187 1.349 . S
C1188 C1200 1.349 . S
C1189 C1187 1.327 . S
C1189 C1205 1.429 . S
C1189 H1211 0.950 . S
C1190 H1186 0.949 . S
C1190 C1198 1.574 . S
C1190 C1206 1.368 . S
H1191 C1199 0.950 . S
H1192 C1197 0.950 . S
H1193 C1198 0.949 . S
H1194 C1200 0.950 . S
H1195 C1201 0.950 . S
H1196 C1202 0.949 . S
C1197 H1192 0.950 . S
C1197 C1199 1.327 . S
C1197 C1203 1.429 . S
C1198 C1190 1.574 . S
C1198 H1193 0.949 . S
C1198 C1204 1.368 . S
C1199 C1183 1.349 . S
C1199 H1191 0.950 . S
C1199 C1197 1.327 . S
C1200 C1188 1.349 . S
C1200 H1194 0.950 . S
C1200 C1201 1.327 . S
C1201 H1195 0.950 . S
C1201 C1200 1.327 . S
C1201 C1205 1.429 . S
C1202 C1185 1.574 . S
C1202 H1196 0.949 . S
C1202 C1206 1.368 . S
C1203 C1184 1.429 . S
C1203 C1197 1.429 . S
C1203 C1204 1.523 . S
C1204 C1185 1.368 . S
C1204 C1198 1.368 . S
C1204 C1203 1.523 . S
C1205 C1189 1.429 . S
C1205 C1201 1.429 . S
C1205 C1206 1.523 . S
C1206 C1190 1.368 . S
C1206 C1202 1.368 . S
C1206 C1205 1.523 . S
H1207 C1182 0.950 . S
H1208 C1184 0.950 . S
H1209 C1185 0.949 . S
H1210 C1187 0.950 . S
H1211 C1189 0.950 . S
C1212 C1213 1.349 . S
C1212 C1214 1.327 . S
C1212 H1237 0.950 . S
C1213 C1212 1.349 . S
C1213 C1229 1.349 . S
C1214 C1212 1.327 . S
C1214 C1233 1.429 . S
C1214 H1238 0.950 . S
C1215 C1232 1.574 . S
C1215 C1234 1.368 . S
C1215 H1239 0.949 . S
H1216 C1220 0.949 . S
C1217 C1218 1.349 . S
C1217 C1219 1.327 . S
C1217 H1240 0.950 . S
C1218 C1217 1.349 . S
C1218 C1230 1.349 . S
C1219 C1217 1.327 . S
C1219 C1235 1.429 . S
C1219 H1241 0.950 . S
C1220 H1216 0.949 . S
C1220 C1228 1.574 . S
C1220 C1236 1.368 . S
H1221 C1229 0.950 . S
H1222 C1227 0.950 . S
H1223 C1228 0.949 . S
H1224 C1230 0.950 . S
H1225 C1231 0.950 . S
H1226 C1232 0.949 . S
C1227 H1222 0.950 . S
C1227 C1229 1.327 . S
C1227 C1233 1.429 . S
C1228 C1220 1.574 . S
C1228 H1223 0.949 . S
C1228 C1234 1.368 . S
C1229 C1213 1.349 . S
C1229 H1221 0.950 . S
C1229 C1227 1.327 . S
C1230 C1218 1.349 . S
C1230 H1224 0.950 . S
C1230 C1231 1.327 . S
C1231 H1225 0.950 . S
C1231 C1230 1.327 . S
C1231 C1235 1.429 . S
C1232 C1215 1.574 . S
C1232 H1226 0.949 . S
C1232 C1236 1.368 . S
C1233 C1214 1.429 . S
C1233 C1227 1.429 . S
C1233 C1234 1.523 . S
C1234 C1215 1.368 . S
C1234 C1228 1.368 . S
C1234 C1233 1.523 . S
C1235 C1219 1.429 . S
C1235 C1231 1.429 . S
C1235 C1236 1.523 . S
C1236 C1220 1.368 . S
C1236 C1232 1.368 . S
C1236 C1235 1.523 . S
H1237 C1212 0.950 . S
H1238 C1214 0.950 . S
H1239 C1215 0.949 . S
H1240 C1217 0.950 . S
H1241 C1219 0.950 . S
C1242 C1243 1.349 . S
C1242 C1244 1.327 . S
C1242 H1267 0.950 . S
C1243 C1242 1.349 . S
C1243 C1259 1.349 . S
C1244 C1242 1.327 . S
C1244 C1263 1.429 . S
C1244 H1268 0.950 . S
C1245 C1262 1.574 . S
C1245 C1264 1.368 . S
C1245 H1269 0.949 . S
H1246 C1250 0.949 . S
C1247 C1248 1.349 . S
C1247 C1249 1.327 . S
C1247 H1270 0.950 . S
C1248 C1247 1.349 . S
C1248 C1260 1.349 . S
C1249 C1247 1.327 . S
C1249 C1265 1.429 . S
C1249 H1271 0.950 . S
C1250 H1246 0.949 . S
C1250 C1258 1.574 . S
C1250 C1266 1.368 . S
H1251 C1259 0.950 1_556 S
H1252 C1257 0.950 . S
H1253 C1258 0.949 . S
H1254 C1260 0.950 . S
H1255 C1261 0.950 . S
H1256 C1262 0.949 . S
C1257 H1252 0.950 . S
C1257 C1259 1.327 . S
C1257 C1263 1.429 . S
C1258 C1250 1.574 . S
C1258 H1253 0.949 . S
C1258 C1264 1.368 . S
C1259 C1243 1.349 . S
C1259 H1251 0.950 1_554 S
C1259 C1257 1.327 . S
C1260 C1248 1.349 . S
C1260 H1254 0.950 . S
C1260 C1261 1.327 . S
C1261 H1255 0.950 . S
C1261 C1260 1.327 . S
C1261 C1265 1.429 . S
C1262 C1245 1.574 . S
C1262 H1256 0.949 . S
C1262 C1266 1.368 . S
C1263 C1244 1.429 . S
C1263 C1257 1.429 . S
C1263 C1264 1.523 . S
C1264 C1245 1.368 . S
C1264 C1258 1.368 . S
C1264 C1263 1.523 . S
C1265 C1249 1.429 . S
C1265 C1261 1.429 . S
C1265 C1266 1.523 . S
C1266 C1250 1.368 . S
C1266 C1262 1.368 . S
C1266 C1265 1.523 . S
H1267 C1242 0.950 . S
H1268 C1244 0.950 . S
H1269 C1245 0.949 . S
H1270 C1247 0.950 . S
H1271 C1249 0.950 . S
C1272 C1273 1.349 . S
C1272 C1274 1.327 . S
C1272 H1297 0.950 . S
C1273 C1272 1.349 . S
C1273 C1289 1.349 . S
C1274 C1272 1.327 . S
C1274 C1293 1.429 . S
C1274 H1298 0.950 . S
C1275 C1292 1.574 . S
C1275 C1294 1.368 . S
C1275 H1299 0.949 . S
H1276 C1280 0.949 . S
C1277 C1278 1.349 . S
C1277 C1279 1.327 . S
C1277 H1300 0.950 . S
C1278 C1277 1.349 . S
C1278 C1290 1.349 . S
C1279 C1277 1.327 . S
C1279 C1295 1.429 . S
C1279 H1301 0.950 . S
C1280 H1276 0.949 . S
C1280 C1288 1.574 . S
C1280 C1296 1.368 . S
H1281 C1289 0.950 . S
H1282 C1287 0.950 . S
H1283 C1288 0.949 . S
H1284 C1290 0.950 . S
H1285 C1291 0.950 . S
H1286 C1292 0.949 . S
C1287 H1282 0.950 . S
C1287 C1289 1.327 . S
C1287 C1293 1.429 . S
C1288 C1280 1.574 . S
C1288 H1283 0.949 . S
C1288 C1294 1.368 . S
C1289 C1273 1.349 . S
C1289 H1281 0.950 . S
C1289 C1287 1.327 . S
C1290 C1278 1.349 . S
C1290 H1284 0.950 . S
C1290 C1291 1.327 . S
C1291 H1285 0.950 . S
C1291 C1290 1.327 . S
C1291 C1295 1.429 . S
C1292 C1275 1.574 . S
C1292 H1286 0.949 . S
C1292 C1296 1.368 . S
C1293 C1274 1.429 . S
C1293 C1287 1.429 . S
C1293 C1294 1.523 . S
C1294 C1275 1.368 . S
C1294 C1288 1.368 . S
C1294 C1293 1.523 . S
C1295 C1279 1.429 . S
C1295 C1291 1.429 . S
C1295 C1296 1.523 . S
C1296 C1280 1.368 . S
C1296 C1292 1.368 . S
C1296 C1295 1.523 . S
H1297 C1272 0.950 . S
H1298 C1274 0.950 . S
H1299 C1275 0.949 . S
H1300 C1277 0.950 . S
H1301 C1279 0.950 . S
C1302 C1303 1.349 . S
C1302 C1304 1.327 . S
C1302 H1327 0.950 . S
C1303 C1302 1.349 . S
C1303 C1319 1.349 . S
C1304 C1302 1.327 . S
C1304 C1323 1.429 . S
C1304 H1328 0.950 . S
C1305 C1322 1.574 . S
C1305 C1324 1.368 . S
C1305 H1329 0.949 . S
H1306 C1310 0.949 . S
C1307 C1308 1.349 . S
C1307 C1309 1.327 . S
C1307 H1330 0.950 . S
C1308 C1307 1.349 . S
C1308 C1320 1.349 . S
C1309 C1307 1.327 . S
C1309 C1325 1.429 . S
C1309 H1331 0.950 . S
C1310 H1306 0.949 . S
C1310 C1318 1.574 . S
C1310 C1326 1.368 . S
H1311 C1319 0.950 . S
H1312 C1317 0.950 . S
H1313 C1318 0.949 . S
H1314 C1320 0.950 . S
H1315 C1321 0.950 . S
H1316 C1322 0.949 . S
C1317 H1312 0.950 . S
C1317 C1319 1.327 . S
C1317 C1323 1.429 . S
C1318 C1310 1.574 . S
C1318 H1313 0.949 . S
C1318 C1324 1.368 . S
C1319 C1303 1.349 . S
C1319 H1311 0.950 . S
C1319 C1317 1.327 . S
C1320 C1308 1.349 . S
C1320 H1314 0.950 . S
C1320 C1321 1.327 . S
C1321 H1315 0.950 . S
C1321 C1320 1.327 . S
C1321 C1325 1.429 . S
C1322 C1305 1.574 . S
C1322 H1316 0.949 . S
C1322 C1326 1.368 . S
C1323 C1304 1.429 . S
C1323 C1317 1.429 . S
C1323 C1324 1.523 . S
C1324 C1305 1.368 . S
C1324 C1318 1.368 . S
C1324 C1323 1.523 . S
C1325 C1309 1.429 . S
C1325 C1321 1.429 . S
C1325 C1326 1.523 . S
C1326 C1310 1.368 . S
C1326 C1322 1.368 . S
C1326 C1325 1.523 . S
H1327 C1302 0.950 . S
H1328 C1304 0.950 . S
H1329 C1305 0.949 . S
H1330 C1307 0.950 . S
H1331 C1309 0.950 . S
C1332 C1333 1.349 . S
C1332 C1334 1.327 . S
C1332 H1357 0.950 . S
C1333 C1332 1.349 . S
C1333 C1349 1.349 . S
C1334 C1332 1.327 . S
C1334 C1353 1.429 . S
C1334 H1358 0.950 . S
C1335 C1352 1.574 . S
C1335 C1354 1.368 . S
C1335 H1359 0.949 . S
H1336 C1340 0.949 . S
C1337 C1338 1.349 . S
C1337 C1339 1.327 . S
C1337 H1360 0.950 . S
C1338 C1337 1.349 . S
C1338 C1350 1.349 . S
C1339 C1337 1.327 . S
C1339 C1355 1.429 . S
C1339 H1361 0.950 . S
C1340 H1336 0.949 . S
C1340 C1348 1.574 . S
C1340 C1356 1.368 . S
H1341 C1349 0.950 . S
H1342 C1347 0.950 . S
H1343 C1348 0.949 . S
H1344 C1350 0.950 . S
H1345 C1351 0.950 . S
H1346 C1352 0.949 . S
C1347 H1342 0.950 . S
C1347 C1349 1.327 . S
C1347 C1353 1.429 . S
C1348 C1340 1.574 . S
C1348 H1343 0.949 . S
C1348 C1354 1.368 . S
C1349 C1333 1.349 . S
C1349 H1341 0.950 . S
C1349 C1347 1.327 . S
C1350 C1338 1.349 . S
C1350 H1344 0.950 . S
C1350 C1351 1.327 . S
C1351 H1345 0.950 . S
C1351 C1350 1.327 . S
C1351 C1355 1.429 . S
C1352 C1335 1.574 . S
C1352 H1346 0.949 . S
C1352 C1356 1.368 . S
C1353 C1334 1.429 . S
C1353 C1347 1.429 . S
C1353 C1354 1.523 . S
C1354 C1335 1.368 . S
C1354 C1348 1.368 . S
C1354 C1353 1.523 . S
C1355 C1339 1.429 . S
C1355 C1351 1.429 . S
C1355 C1356 1.523 . S
C1356 C1340 1.368 . S
C1356 C1352 1.368 . S
C1356 C1355 1.523 . S
H1357 C1332 0.950 . S
H1358 C1334 0.950 . S
H1359 C1335 0.949 . S
H1360 C1337 0.950 . S
H1361 C1339 0.950 . S
C1362 C1363 1.349 . S
C1362 C1364 1.327 . S
C1362 H1387 0.950 . S
C1363 C1362 1.349 . S
C1363 C1379 1.349 . S
C1364 C1362 1.327 . S
C1364 C1383 1.429 . S
C1364 H1388 0.950 . S
C1365 C1382 1.574 . S
C1365 C1384 1.368 . S
C1365 H1389 0.949 . S
H1366 C1370 0.949 . S
C1367 C1368 1.349 . S
C1367 C1369 1.327 . S
C1367 H1390 0.950 . S
C1368 C1367 1.349 . S
C1368 C1380 1.349 . S
C1369 C1367 1.327 . S
C1369 C1385 1.429 . S
C1369 H1391 0.950 . S
C1370 H1366 0.949 . S
C1370 C1378 1.574 . S
C1370 C1386 1.368 . S
H1371 C1379 0.950 . S
H1372 C1377 0.950 . S
H1373 C1378 0.949 . S
H1374 C1380 0.950 . S
H1375 C1381 0.950 . S
H1376 C1382 0.949 . S
C1377 H1372 0.950 . S
C1377 C1379 1.327 . S
C1377 C1383 1.429 . S
C1378 C1370 1.574 . S
C1378 H1373 0.949 . S
C1378 C1384 1.368 . S
C1379 C1363 1.349 . S
C1379 H1371 0.950 . S
C1379 C1377 1.327 . S
C1380 C1368 1.349 . S
C1380 H1374 0.950 . S
C1380 C1381 1.327 . S
C1381 H1375 0.950 . S
C1381 C1380 1.327 . S
C1381 C1385 1.429 . S
C1382 C1365 1.574 . S
C1382 H1376 0.949 . S
C1382 C1386 1.368 . S
C1383 C1364 1.429 . S
C1383 C1377 1.429 . S
C1383 C1384 1.523 . S
C1384 C1365 1.368 . S
C1384 C1378 1.368 . S
C1384 C1383 1.523 . S
C1385 C1369 1.429 . S
C1385 C1381 1.429 . S
C1385 C1386 1.523 . S
C1386 C1370 1.368 . S
C1386 C1382 1.368 . S
C1386 C1385 1.523 . S
H1387 C1362 0.950 . S
H1388 C1364 0.950 . S
H1389 C1365 0.949 . S
H1390 C1367 0.950 . S
H1391 C1369 0.950 . S
C1392 C1393 1.349 . S
C1392 C1394 1.327 . S
C1392 H1417 0.950 . S
C1393 C1392 1.349 . S
C1393 C1409 1.349 . S
C1394 C1392 1.327 . S
C1394 C1413 1.429 . S
C1394 H1418 0.950 . S
C1395 C1412 1.574 . S
C1395 C1414 1.368 . S
C1395 H1419 0.949 . S
H1396 C1400 0.949 . S
C1397 C1398 1.349 . S
C1397 C1399 1.327 . S
C1397 H1420 0.950 . S
C1398 C1397 1.349 . S
C1398 C1410 1.349 . S
C1399 C1397 1.327 . S
C1399 C1415 1.429 . S
C1399 H1421 0.950 . S
C1400 H1396 0.949 . S
C1400 C1408 1.574 . S
C1400 C1416 1.368 . S
H1401 C1409 0.950 . S
H1402 C1407 0.950 . S
H1403 C1408 0.949 . S
H1404 C1410 0.950 . S
H1405 C1411 0.950 . S
H1406 C1412 0.949 . S
C1407 H1402 0.950 . S
C1407 C1409 1.327 . S
C1407 C1413 1.429 . S
C1408 C1400 1.574 . S
C1408 H1403 0.949 . S
C1408 C1414 1.368 . S
C1409 C1393 1.349 . S
C1409 H1401 0.950 . S
C1409 C1407 1.327 . S
C1410 C1398 1.349 . S
C1410 H1404 0.950 . S
C1410 C1411 1.327 . S
C1411 H1405 0.950 . S
C1411 C1410 1.327 . S
C1411 C1415 1.429 . S
C1412 C1395 1.574 . S
C1412 H1406 0.949 . S
C1412 C1416 1.368 . S
C1413 C1394 1.429 . S
C1413 C1407 1.429 . S
C1413 C1414 1.523 . S
C1414 C1395 1.368 . S
C1414 C1408 1.368 . S
C1414 C1413 1.523 . S
C1415 C1399 1.429 . S
C1415 C1411 1.429 . S
C1415 C1416 1.523 . S
C1416 C1400 1.368 . S
C1416 C1412 1.368 . S
C1416 C1415 1.523 . S
H1417 C1392 0.950 . S
H1418 C1394 0.950 . S
H1419 C1395 0.949 . S
H1420 C1397 0.950 . S
H1421 C1399 0.950 . S
C1422 C1423 1.349 . S
C1422 C1424 1.327 . S
C1422 H1447 0.950 . S
C1423 C1422 1.349 . S
C1423 C1439 1.349 . S
C1424 C1422 1.327 . S
C1424 C1443 1.429 . S
C1424 H1448 0.950 . S
C1425 C1442 1.574 . S
C1425 C1444 1.368 . S
C1425 H1449 0.949 . S
H1426 C1430 0.949 . S
C1427 C1428 1.349 . S
C1427 C1429 1.327 1_554 S
C1427 H1450 0.950 . S
C1428 C1427 1.349 . S
C1428 C1440 1.349 1_554 S
C1429 C1427 1.327 1_556 S
C1429 C1445 1.429 . S
C1429 H1451 0.950 . S
C1430 H1426 0.949 . S
C1430 C1438 1.574 . S
C1430 C1446 1.368 . S
H1431 C1439 0.950 . S
H1432 C1437 0.950 . S
H1433 C1438 0.949 . S
H1434 C1440 0.950 . S
H1435 C1441 0.950 . S
H1436 C1442 0.949 . S
C1437 H1432 0.950 . S
C1437 C1439 1.327 . S
C1437 C1443 1.429 . S
C1438 C1430 1.574 . S
C1438 H1433 0.949 . S
C1438 C1444 1.368 . S
C1439 C1423 1.349 . S
C1439 H1431 0.950 . S
C1439 C1437 1.327 . S
C1440 C1428 1.349 1_556 S
C1440 H1434 0.950 . S
C1440 C1441 1.327 . S
C1441 H1435 0.950 . S
C1441 C1440 1.327 . S
C1441 C1445 1.429 . S
C1442 C1425 1.574 . S
C1442 H1436 0.949 . S
C1442 C1446 1.368 . S
C1443 C1424 1.429 . S
C1443 C1437 1.429 . S
C1443 C1444 1.523 . S
C1444 C1425 1.368 . S
C1444 C1438 1.368 . S
C1444 C1443 1.523 . S
C1445 C1429 1.429 . S
C1445 C1441 1.429 . S
C1445 C1446 1.523 . S
C1446 C1430 1.368 . S
C1446 C1442 1.368 . S
C1446 C1445 1.523 . S
H1447 C1422 0.950 . S
H1448 C1424 0.950 . S
H1449 C1425 0.949 . S
H1450 C1427 0.950 . S
H1451 C1429 0.950 . S
C1452 C1453 1.349 . S
C1452 C1454 1.327 . S
C1452 H1477 0.950 . S
C1453 C1452 1.349 . S
C1453 C1469 1.349 . S
C1454 C1452 1.327 . S
C1454 C1473 1.429 . S
C1454 H1478 0.950 . S
C1455 C1472 1.574 . S
C1455 C1474 1.368 . S
C1455 H1479 0.949 . S
H1456 C1460 0.949 . S
C1457 C1458 1.349 . S
C1457 C1459 1.327 . S
C1457 H1480 0.950 . S
C1458 C1457 1.349 . S
C1458 C1470 1.349 . S
C1459 C1457 1.327 . S
C1459 C1475 1.429 . S
C1459 H1481 0.950 . S
C1460 H1456 0.949 . S
C1460 C1468 1.574 . S
C1460 C1476 1.368 . S
H1461 C1469 0.950 . S
H1462 C1467 0.950 . S
H1463 C1468 0.949 . S
H1464 C1470 0.950 . S
H1465 C1471 0.950 . S
H1466 C1472 0.949 . S
C1467 H1462 0.950 . S
C1467 C1469 1.327 . S
C1467 C1473 1.429 . S
C1468 C1460 1.574 . S
C1468 H1463 0.949 . S
C1468 C1474 1.368 . S
C1469 C1453 1.349 . S
C1469 H1461 0.950 . S
C1469 C1467 1.327 . S
C1470 C1458 1.349 . S
C1470 H1464 0.950 . S
C1470 C1471 1.327 . S
C1471 H1465 0.950 . S
C1471 C1470 1.327 . S
C1471 C1475 1.429 . S
C1472 C1455 1.574 . S
C1472 H1466 0.949 . S
C1472 C1476 1.368 . S
C1473 C1454 1.429 . S
C1473 C1467 1.429 . S
C1473 C1474 1.523 . S
C1474 C1455 1.368 . S
C1474 C1468 1.368 . S
C1474 C1473 1.523 . S
C1475 C1459 1.429 . S
C1475 C1471 1.429 . S
C1475 C1476 1.523 . S
C1476 C1460 1.368 . S
C1476 C1472 1.368 . S
C1476 C1475 1.523 . S
H1477 C1452 0.950 . S
H1478 C1454 0.950 . S
H1479 C1455 0.949 . S
H1480 C1457 0.950 . S
H1481 C1459 0.950 . S
C1482 C1483 1.349 . S
C1482 C1484 1.327 . S
C1482 H1507 0.950 . S
C1483 C1482 1.349 . S
C1483 C1499 1.349 . S
C1484 C1482 1.327 . S
C1484 C1503 1.429 . S
C1484 H1508 0.950 . S
C1485 C1502 1.574 . S
C1485 C1504 1.368 . S
C1485 H1509 0.949 . S
H1486 C1490 0.949 . S
C1487 C1488 1.349 . S
C1487 C1489 1.327 . S
C1487 H1510 0.950 . S
C1488 C1487 1.349 . S
C1488 C1500 1.349 . S
C1489 C1487 1.327 . S
C1489 C1505 1.429 . S
C1489 H1511 0.950 . S
C1490 H1486 0.949 . S
C1490 C1498 1.574 . S
C1490 C1506 1.368 . S
H1491 C1499 0.950 . S
H1492 C1497 0.950 . S
H1493 C1498 0.949 . S
H1494 C1500 0.950 . S
H1495 C1501 0.950 . S
H1496 C1502 0.949 . S
C1497 H1492 0.950 . S
C1497 C1499 1.327 . S
C1497 C1503 1.429 . S
C1498 C1490 1.574 . S
C1498 H1493 0.949 . S
C1498 C1504 1.368 . S
C1499 C1483 1.349 . S
C1499 H1491 0.950 . S
C1499 C1497 1.327 . S
C1500 C1488 1.349 . S
C1500 H1494 0.950 . S
C1500 C1501 1.327 . S
C1501 H1495 0.950 . S
C1501 C1500 1.327 . S
C1501 C1505 1.429 . S
C1502 C1485 1.574 . S
C1502 H1496 0.949 . S
C1502 C1506 1.368 . S
C1503 C1484 1.429 . S
C1503 C1497 1.429 . S
C1503 C1504 1.523 . S
C1504 C1485 1.368 . S
C1504 C1498 1.368 . S
C1504 C1503 1.523 . S
C1505 C1489 1.429 . S
C1505 C1501 1.429 . S
C1505 C1506 1.523 . S
C1506 C1490 1.368 . S
C1506 C1502 1.368 . S
C1506 C1505 1.523 . S
H1507 C1482 0.950 . S
H1508 C1484 0.950 . S
H1509 C1485 0.949 . S
H1510 C1487 0.950 . S
H1511 C1489 0.950 . S
C1512 C1513 1.349 . S
C1512 C1514 1.327 . S
C1512 H1537 0.950 . S
C1513 C1512 1.349 . S
C1513 C1529 1.349 . S
C1514 C1512 1.327 . S
C1514 C1533 1.429 . S
C1514 H1538 0.950 . S
C1515 C1532 1.574 . S
C1515 C1534 1.368 . S
C1515 H1539 0.949 . S
H1516 C1520 0.949 . S
C1517 C1518 1.349 . S
C1517 C1519 1.327 . S
C1517 H1540 0.950 . S
C1518 C1517 1.349 . S
C1518 C1530 1.349 . S
C1519 C1517 1.327 . S
C1519 C1535 1.429 . S
C1519 H1541 0.950 . S
C1520 H1516 0.949 . S
C1520 C1528 1.574 . S
C1520 C1536 1.368 . S
H1521 C1529 0.950 1_545 S
H1522 C1527 0.950 . S
H1523 C1528 0.949 . S
H1524 C1530 0.950 . S
H1525 C1531 0.950 . S
H1526 C1532 0.949 . S
C1527 H1522 0.950 . S
C1527 C1529 1.327 . S
C1527 C1533 1.429 . S
C1528 C1520 1.574 . S
C1528 H1523 0.949 . S
C1528 C1534 1.368 . S
C1529 C1513 1.349 . S
C1529 H1521 0.950 1_565 S
C1529 C1527 1.327 . S
C1530 C1518 1.349 . S
C1530 H1524 0.950 . S
C1530 C1531 1.327 . S
C1531 H1525 0.950 . S
C1531 C1530 1.327 . S
C1531 C1535 1.429 . S
C1532 C1515 1.574 . S
C1532 H1526 0.949 . S
C1532 C1536 1.368 . S
C1533 C1514 1.429 . S
C1533 C1527 1.429 . S
C1533 C1534 1.523 . S
C1534 C1515 1.368 . S
C1534 C1528 1.368 . S
C1534 C1533 1.523 . S
C1535 C1519 1.429 . S
C1535 C1531 1.429 . S
C1535 C1536 1.523 . S
C1536 C1520 1.368 . S
C1536 C1532 1.368 . S
C1536 C1535 1.523 . S
H1537 C1512 0.950 . S
H1538 C1514 0.950 . S
H1539 C1515 0.949 . S
H1540 C1517 0.950 . S
H1541 C1519 0.950 . S
C1542 C1543 1.349 . S
C1542 C1544 1.327 . S
C1542 H1567 0.950 . S
C1543 C1542 1.349 . S
C1543 C1559 1.349 . S
C1544 C1542 1.327 . S
C1544 C1563 1.429 . S
C1544 H1568 0.950 . S
C1545 C1562 1.574 . S
C1545 C1564 1.368 . S
C1545 H1569 0.949 . S
H1546 C1550 0.949 . S
C1547 C1548 1.349 . S
C1547 C1549 1.327 . S
C1547 H1570 0.950 . S
C1548 C1547 1.349 . S
C1548 C1560 1.349 . S
C1549 C1547 1.327 . S
C1549 C1565 1.429 . S
C1549 H1571 0.950 . S
C1550 H1546 0.949 . S
C1550 C1558 1.574 . S
C1550 C1566 1.368 . S
H1551 C1559 0.950 . S
H1552 C1557 0.950 . S
H1553 C1558 0.949 . S
H1554 C1560 0.950 . S
H1555 C1561 0.950 . S
H1556 C1562 0.949 . S
C1557 H1552 0.950 . S
C1557 C1559 1.327 . S
C1557 C1563 1.429 . S
C1558 C1550 1.574 . S
C1558 H1553 0.949 . S
C1558 C1564 1.368 . S
C1559 C1543 1.349 . S
C1559 H1551 0.950 . S
C1559 C1557 1.327 . S
C1560 C1548 1.349 . S
C1560 H1554 0.950 . S
C1560 C1561 1.327 . S
C1561 H1555 0.950 . S
C1561 C1560 1.327 . S
C1561 C1565 1.429 . S
C1562 C1545 1.574 . S
C1562 H1556 0.949 . S
C1562 C1566 1.368 . S
C1563 C1544 1.429 . S
C1563 C1557 1.429 . S
C1563 C1564 1.523 . S
C1564 C1545 1.368 . S
C1564 C1558 1.368 . S
C1564 C1563 1.523 . S
C1565 C1549 1.429 . S
C1565 C1561 1.429 . S
C1565 C1566 1.523 . S
C1566 C1550 1.368 . S
C1566 C1562 1.368 . S
C1566 C1565 1.523 . S
H1567 C1542 0.950 . S
H1568 C1544 0.950 . S
H1569 C1545 0.949 . S
H1570 C1547 0.950 . S
H1571 C1549 0.950 . S
C1572 C1573 1.349 . S
C1572 C1574 1.327 . S
C1572 H1597 0.950 . S
C1573 C1572 1.349 . S
C1573 C1589 1.349 . S
C1574 C1572 1.327 . S
C1574 C1593 1.429 . S
C1574 H1598 0.950 . S
C1575 C1592 1.574 . S
C1575 C1594 1.368 . S
C1575 H1599 0.949 . S
H1576 C1580 0.949 . S
C1577 C1578 1.349 . S
C1577 C1579 1.327 . S
C1577 H1600 0.950 . S
C1578 C1577 1.349 . S
C1578 C1590 1.349 . S
C1579 C1577 1.327 . S
C1579 C1595 1.429 . S
C1579 H1601 0.950 . S
C1580 H1576 0.949 . S
C1580 C1588 1.574 . S
C1580 C1596 1.368 . S
H1581 C1589 0.950 . S
H1582 C1587 0.950 . S
H1583 C1588 0.949 . S
H1584 C1590 0.950 . S
H1585 C1591 0.950 . S
H1586 C1592 0.949 . S
C1587 H1582 0.950 . S
C1587 C1589 1.327 . S
C1587 C1593 1.429 . S
C1588 C1580 1.574 . S
C1588 H1583 0.949 . S
C1588 C1594 1.368 . S
C1589 C1573 1.349 . S
C1589 H1581 0.950 . S
C1589 C1587 1.327 . S
C1590 C1578 1.349 . S
C1590 H1584 0.950 . S
C1590 C1591 1.327 . S
C1591 H1585 0.950 . S
C1591 C1590 1.327 . S
C1591 C1595 1.429 . S
C1592 C1575 1.574 . S
C1592 H1586 0.949 . S
C1592 C1596 1.368 . S
C1593 C1574 1.429 . S
C1593 C1587 1.429 . S
C1593 C1594 1.523 . S
C1594 C1575 1.368 . S
C1594 C1588 1.368 . S
C1594 C1593 1.523 . S
C1595 C1579 1.429 . S
C1595 C1591 1.429 . S
C1595 C1596 1.523 . S
C1596 C1580 1.368 . S
C1596 C1592 1.368 . S
C1596 C1595 1.523 . S
H1597 C1572 0.950 . S
H1598 C1574 0.950 . S
H1599 C1575 0.949 . S
H1600 C1577 0.950 . S
H1601 C1579 0.950 . S
C1602 C1603 1.349 . S
C1602 C1604 1.327 . S
C1602 H1627 0.950 . S
C1603 C1602 1.349 . S
C1603 C1619 1.349 . S
C1604 C1602 1.327 . S
C1604 C1623 1.429 . S
C1604 H1628 0.950 . S
C1605 C1622 1.574 . S
C1605 C1624 1.368 . S
C1605 H1629 0.949 . S
H1606 C1610 0.949 . S
C1607 C1608 1.349 . S
C1607 C1609 1.327 . S
C1607 H1630 0.950 . S
C1608 C1607 1.349 . S
C1608 C1620 1.349 . S
C1609 C1607 1.327 . S
C1609 C1625 1.429 . S
C1609 H1631 0.950 . S
C1610 H1606 0.949 . S
C1610 C1618 1.574 . S
C1610 C1626 1.368 . S
H1611 C1619 0.950 . S
H1612 C1617 0.950 . S
H1613 C1618 0.949 . S
H1614 C1620 0.950 . S
H1615 C1621 0.950 . S
H1616 C1622 0.949 . S
C1617 H1612 0.950 . S
C1617 C1619 1.327 . S
C1617 C1623 1.429 . S
C1618 C1610 1.574 . S
C1618 H1613 0.949 . S
C1618 C1624 1.368 . S
C1619 C1603 1.349 . S
C1619 H1611 0.950 . S
C1619 C1617 1.327 . S
C1620 C1608 1.349 . S
C1620 H1614 0.950 . S
C1620 C1621 1.327 . S
C1621 H1615 0.950 . S
C1621 C1620 1.327 . S
C1621 C1625 1.429 . S
C1622 C1605 1.574 . S
C1622 H1616 0.949 . S
C1622 C1626 1.368 . S
C1623 C1604 1.429 . S
C1623 C1617 1.429 . S
C1623 C1624 1.523 . S
C1624 C1605 1.368 . S
C1624 C1618 1.368 . S
C1624 C1623 1.523 . S
C1625 C1609 1.429 . S
C1625 C1621 1.429 . S
C1625 C1626 1.523 . S
C1626 C1610 1.368 . S
C1626 C1622 1.368 . S
C1626 C1625 1.523 . S
H1627 C1602 0.950 . S
H1628 C1604 0.950 . S
H1629 C1605 0.949 . S
H1630 C1607 0.950 . S
H1631 C1609 0.950 . S
C1632 C1633 1.349 . S
C1632 C1634 1.327 . S
C1632 H1657 0.950 . S
C1633 C1632 1.349 . S
C1633 C1649 1.349 . S
C1634 C1632 1.327 . S
C1634 C1653 1.429 . S
C1634 H1658 0.950 . S
C1635 C1652 1.574 . S
C1635 C1654 1.368 . S
C1635 H1659 0.949 . S
H1636 C1640 0.949 . S
C1637 C1638 1.349 . S
C1637 C1639 1.327 1_556 S
C1637 H1660 0.950 . S
C1638 C1637 1.349 . S
C1638 C1650 1.349 . S
C1639 C1637 1.327 1_554 S
C1639 C1655 1.429 . S
C1639 H1661 0.950 . S
C1640 H1636 0.949 . S
C1640 C1648 1.574 . S
C1640 C1656 1.368 . S
H1641 C1649 0.950 . S
H1642 C1647 0.950 . S
H1643 C1648 0.949 . S
H1644 C1650 0.950 . S
H1645 C1651 0.950 . S
H1646 C1652 0.949 . S
C1647 H1642 0.950 . S
C1647 C1649 1.327 . S
C1647 C1653 1.429 . S
C1648 C1640 1.574 . S
C1648 H1643 0.949 . S
C1648 C1654 1.368 . S
C1649 C1633 1.349 . S
C1649 H1641 0.950 . S
C1649 C1647 1.327 . S
C1650 C1638 1.349 . S
C1650 H1644 0.950 . S
C1650 C1651 1.327 1_556 S
C1651 H1645 0.950 . S
C1651 C1650 1.327 1_554 S
C1651 C1655 1.429 . S
C1652 C1635 1.574 . S
C1652 H1646 0.949 . S
C1652 C1656 1.368 . S
C1653 C1634 1.429 . S
C1653 C1647 1.429 . S
C1653 C1654 1.523 . S
C1654 C1635 1.368 . S
C1654 C1648 1.368 . S
C1654 C1653 1.523 . S
C1655 C1639 1.429 . S
C1655 C1651 1.429 . S
C1655 C1656 1.523 . S
C1656 C1640 1.368 . S
C1656 C1652 1.368 . S
C1656 C1655 1.523 . S
H1657 C1632 0.950 . S
H1658 C1634 0.950 . S
H1659 C1635 0.949 . S
H1660 C1637 0.950 . S
H1661 C1639 0.950 . S
C1662 C1663 1.349 . S
C1662 C1664 1.327 . S
C1662 H1687 0.950 . S
C1663 C1662 1.349 . S
C1663 C1679 1.349 . S
C1664 C1662 1.327 . S
C1664 C1683 1.429 . S
C1664 H1688 0.950 . S
C1665 C1682 1.574 . S
C1665 C1684 1.368 . S
C1665 H1689 0.949 . S
H1666 C1670 0.949 . S
C1667 C1668 1.349 . S
C1667 C1669 1.327 . S
C1667 H1690 0.950 . S
C1668 C1667 1.349 . S
C1668 C1680 1.349 . S
C1669 C1667 1.327 . S
C1669 C1685 1.429 . S
C1669 H1691 0.950 . S
C1670 H1666 0.949 . S
C1670 C1678 1.574 . S
C1670 C1686 1.368 . S
H1671 C1679 0.950 . S
H1672 C1677 0.950 . S
H1673 C1678 0.949 . S
H1674 C1680 0.950 . S
H1675 C1681 0.950 . S
H1676 C1682 0.949 . S
C1677 H1672 0.950 . S
C1677 C1679 1.327 . S
C1677 C1683 1.429 . S
C1678 C1670 1.574 . S
C1678 H1673 0.949 . S
C1678 C1684 1.368 . S
C1679 C1663 1.349 . S
C1679 H1671 0.950 . S
C1679 C1677 1.327 . S
C1680 C1668 1.349 . S
C1680 H1674 0.950 . S
C1680 C1681 1.327 . S
C1681 H1675 0.950 . S
C1681 C1680 1.327 . S
C1681 C1685 1.429 . S
C1682 C1665 1.574 . S
C1682 H1676 0.949 . S
C1682 C1686 1.368 . S
C1683 C1664 1.429 . S
C1683 C1677 1.429 . S
C1683 C1684 1.523 . S
C1684 C1665 1.368 . S
C1684 C1678 1.368 . S
C1684 C1683 1.523 . S
C1685 C1669 1.429 . S
C1685 C1681 1.429 . S
C1685 C1686 1.523 . S
C1686 C1670 1.368 . S
C1686 C1682 1.368 . S
C1686 C1685 1.523 . S
H1687 C1662 0.950 . S
H1688 C1664 0.950 . S
H1689 C1665 0.949 . S
H1690 C1667 0.950 . S
H1691 C1669 0.950 . S
C978 C913 1.081 . S
C973 C51 1.070 . S
C1003 C125 1.594 . S
C1008 C473 1.596 . S
C1033 C217 2.680 . S
C1038 C561 2.683 . S
C1063 C291 1.794 . S
C1068 C640 1.797 . S
C1098 C737 0.455 . S
C1093 C347 0.459 . S
C1123 C421 0.801 . S
C1128 C816 0.802 . S
C1153 C143 2.695 . S
C1158 C581 2.698 . S
C1183 C199 1.312 . S
C1188 C677 1.307 . S
C1213 C273 0.502 . S
C1218 C757 0.501 . S
C1248 C853 1.464 . S
C1243 C365 1.466 . S
C1278 C933 2.154 . S
C1273 C439 2.175 . S
C1308 C493 2.501 . S
C1303 C69 2.517 . S
C1333 C63 1.242 . S
C1338 C589 1.297 . S
C1363 C137 1.334 . S
C1368 C669 1.378 . S
C1398 C765 1.196 . S
C1393 C187 1.172 . S
C1423 C261 1.328 . S
C1428 C845 1.365 . S
C1458 C941 1.168 . S
C1453 C359 1.108 . S
C1488 C501 0.881 . S
C1483 C433 0.862 . S
C1518 C904 1.551 . S
C1513 C113 1.548 . S
C1543 C211 1.246 . S
C1548 C464 1.273 . S
C1578 C552 1.377 . S
C1573 C285 1.310 . S
C1603 C335 1.121 . S
C1608 C649 1.150 . S
C1633 C409 1.250 . S
C1638 C728 1.282 . S
C1663 C39 1.705 . S
C1668 C825 1.719 . S
