# Generated by pormake.
# Topology tbo, (3,4)-cn, num edge types: 1
# Building blocks:
#     Node 0, Type 0, BuildingBlock: BETDAH_clean_linker_0, # of connection points: 3
#     Node 1, Type 0, BuildingBlock: BETDAH_clean_linker_0, # of connection points: 3
#     Node 2, Type 0, BuildingBlock: BETDAH_clean_linker_0, # of connection points: 3
#     Node 3, Type 0, BuildingBlock: BETDAH_clean_linker_0, # of connection points: 3
#     Node 4, Type 0, BuildingBlock: BETDAH_clean_linker_0, # of connection points: 3
#     Node 5, Type 0, BuildingBlock: BETDAH_clean_linker_0, # of connection points: 3
#     Node 6, Type 0, BuildingBlock: BETDAH_clean_linker_0, # of connection points: 3
#     Node 7, Type 0, BuildingBlock: BETDAH_clean_linker_0, # of connection points: 3
#     Node 8, Type 0, BuildingBlock: BETDAH_clean_linker_0, # of connection points: 3
#     Node 9, Type 0, BuildingBlock: BETDAH_clean_linker_0, # of connection points: 3
#     Node 10, Type 0, BuildingBlock: BETDAH_clean_linker_0, # of connection points: 3
#     Node 11, Type 0, BuildingBlock: BETDAH_clean_linker_0, # of connection points: 3
#     Node 12, Type 0, BuildingBlock: BETDAH_clean_linker_0, # of connection points: 3
#     Node 13, Type 0, BuildingBlock: BETDAH_clean_linker_0, # of connection points: 3
#     Node 14, Type 0, BuildingBlock: BETDAH_clean_linker_0, # of connection points: 3
#     Node 15, Type 0, BuildingBlock: BETDAH_clean_linker_0, # of connection points: 3
#     Node 16, Type 0, BuildingBlock: BETDAH_clean_linker_0, # of connection points: 3
#     Node 17, Type 0, BuildingBlock: BETDAH_clean_linker_0, # of connection points: 3
#     Node 18, Type 0, BuildingBlock: BETDAH_clean_linker_0, # of connection points: 3
#     Node 19, Type 0, BuildingBlock: BETDAH_clean_linker_0, # of connection points: 3
#     Node 20, Type 0, BuildingBlock: BETDAH_clean_linker_0, # of connection points: 3
#     Node 21, Type 0, BuildingBlock: BETDAH_clean_linker_0, # of connection points: 3
#     Node 22, Type 0, BuildingBlock: BETDAH_clean_linker_0, # of connection points: 3
#     Node 23, Type 0, BuildingBlock: BETDAH_clean_linker_0, # of connection points: 3
#     Node 24, Type 0, BuildingBlock: BETDAH_clean_linker_0, # of connection points: 3
#     Node 25, Type 0, BuildingBlock: BETDAH_clean_linker_0, # of connection points: 3
#     Node 26, Type 0, BuildingBlock: BETDAH_clean_linker_0, # of connection points: 3
#     Node 27, Type 0, BuildingBlock: BETDAH_clean_linker_0, # of connection points: 3
#     Node 28, Type 0, BuildingBlock: BETDAH_clean_linker_0, # of connection points: 3
#     Node 29, Type 0, BuildingBlock: BETDAH_clean_linker_0, # of connection points: 3
#     Node 30, Type 0, BuildingBlock: BETDAH_clean_linker_0, # of connection points: 3
#     Node 31, Type 0, BuildingBlock: BETDAH_clean_linker_0, # of connection points: 3
#     Node 32, Type 1, BuildingBlock: ESEHIV_clean_sbu_0, # of connection points: 4
#     Node 33, Type 1, BuildingBlock: ESEHIV_clean_sbu_0, # of connection points: 4
#     Node 34, Type 1, BuildingBlock: ESEHIV_clean_sbu_0, # of connection points: 4
#     Node 35, Type 1, BuildingBlock: ESEHIV_clean_sbu_0, # of connection points: 4
#     Node 36, Type 1, BuildingBlock: ESEHIV_clean_sbu_0, # of connection points: 4
#     Node 37, Type 1, BuildingBlock: ESEHIV_clean_sbu_0, # of connection points: 4
#     Node 38, Type 1, BuildingBlock: ESEHIV_clean_sbu_0, # of connection points: 4
#     Node 39, Type 1, BuildingBlock: ESEHIV_clean_sbu_0, # of connection points: 4
#     Node 40, Type 1, BuildingBlock: ESEHIV_clean_sbu_0, # of connection points: 4
#     Node 41, Type 1, BuildingBlock: ESEHIV_clean_sbu_0, # of connection points: 4
#     Node 42, Type 1, BuildingBlock: ESEHIV_clean_sbu_0, # of connection points: 4
#     Node 43, Type 1, BuildingBlock: ESEHIV_clean_sbu_0, # of connection points: 4
#     Node 44, Type 1, BuildingBlock: ESEHIV_clean_sbu_0, # of connection points: 4
#     Node 45, Type 1, BuildingBlock: ESEHIV_clean_sbu_0, # of connection points: 4
#     Node 46, Type 1, BuildingBlock: ESEHIV_clean_sbu_0, # of connection points: 4
#     Node 47, Type 1, BuildingBlock: ESEHIV_clean_sbu_0, # of connection points: 4
#     Node 48, Type 1, BuildingBlock: ESEHIV_clean_sbu_0, # of connection points: 4
#     Node 49, Type 1, BuildingBlock: ESEHIV_clean_sbu_0, # of connection points: 4
#     Node 50, Type 1, BuildingBlock: ESEHIV_clean_sbu_0, # of connection points: 4
#     Node 51, Type 1, BuildingBlock: ESEHIV_clean_sbu_0, # of connection points: 4
#     Node 52, Type 1, BuildingBlock: ESEHIV_clean_sbu_0, # of connection points: 4
#     Node 53, Type 1, BuildingBlock: ESEHIV_clean_sbu_0, # of connection points: 4
#     Node 54, Type 1, BuildingBlock: ESEHIV_clean_sbu_0, # of connection points: 4
#     Node 55, Type 1, BuildingBlock: ESEHIV_clean_sbu_0, # of connection points: 4
#     Edge 56, Type (0, 1), BuildingBlock: AJUNOK_clean_linker_0, # of connection points: 2
#     Edge 57, Type (0, 1), BuildingBlock: AJUNOK_clean_linker_0, # of connection points: 2
#     Edge 58, Type (0, 1), BuildingBlock: AJUNOK_clean_linker_0, # of connection points: 2
#     Edge 59, Type (0, 1), BuildingBlock: AJUNOK_clean_linker_0, # of connection points: 2
#     Edge 60, Type (0, 1), BuildingBlock: AJUNOK_clean_linker_0, # of connection points: 2
#     Edge 61, Type (0, 1), BuildingBlock: AJUNOK_clean_linker_0, # of connection points: 2
#     Edge 62, Type (0, 1), BuildingBlock: AJUNOK_clean_linker_0, # of connection points: 2
#     Edge 63, Type (0, 1), BuildingBlock: AJUNOK_clean_linker_0, # of connection points: 2
#     Edge 64, Type (0, 1), BuildingBlock: AJUNOK_clean_linker_0, # of connection points: 2
#     Edge 65, Type (0, 1), BuildingBlock: AJUNOK_clean_linker_0, # of connection points: 2
#     Edge 66, Type (0, 1), BuildingBlock: AJUNOK_clean_linker_0, # of connection points: 2
#     Edge 67, Type (0, 1), BuildingBlock: AJUNOK_clean_linker_0, # of connection points: 2
#     Edge 68, Type (0, 1), BuildingBlock: AJUNOK_clean_linker_0, # of connection points: 2
#     Edge 69, Type (0, 1), BuildingBlock: AJUNOK_clean_linker_0, # of connection points: 2
#     Edge 70, Type (0, 1), BuildingBlock: AJUNOK_clean_linker_0, # of connection points: 2
#     Edge 71, Type (0, 1), BuildingBlock: AJUNOK_clean_linker_0, # of connection points: 2
#     Edge 72, Type (0, 1), BuildingBlock: AJUNOK_clean_linker_0, # of connection points: 2
#     Edge 73, Type (0, 1), BuildingBlock: AJUNOK_clean_linker_0, # of connection points: 2
#     Edge 74, Type (0, 1), BuildingBlock: AJUNOK_clean_linker_0, # of connection points: 2
#     Edge 75, Type (0, 1), BuildingBlock: AJUNOK_clean_linker_0, # of connection points: 2
#     Edge 76, Type (0, 1), BuildingBlock: AJUNOK_clean_linker_0, # of connection points: 2
#     Edge 77, Type (0, 1), BuildingBlock: AJUNOK_clean_linker_0, # of connection points: 2
#     Edge 78, Type (0, 1), BuildingBlock: AJUNOK_clean_linker_0, # of connection points: 2
#     Edge 79, Type (0, 1), BuildingBlock: AJUNOK_clean_linker_0, # of connection points: 2
#     Edge 80, Type (0, 1), BuildingBlock: AJUNOK_clean_linker_0, # of connection points: 2
#     Edge 81, Type (0, 1), BuildingBlock: AJUNOK_clean_linker_0, # of connection points: 2
#     Edge 82, Type (0, 1), BuildingBlock: AJUNOK_clean_linker_0, # of connection points: 2
#     Edge 83, Type (0, 1), BuildingBlock: AJUNOK_clean_linker_0, # of connection points: 2
#     Edge 84, Type (0, 1), BuildingBlock: AJUNOK_clean_linker_0, # of connection points: 2
#     Edge 85, Type (0, 1), BuildingBlock: AJUNOK_clean_linker_0, # of connection points: 2
#     Edge 86, Type (0, 1), BuildingBlock: AJUNOK_clean_linker_0, # of connection points: 2
#     Edge 87, Type (0, 1), BuildingBlock: AJUNOK_clean_linker_0, # of connection points: 2
#     Edge 88, Type (0, 1), BuildingBlock: AJUNOK_clean_linker_0, # of connection points: 2
#     Edge 89, Type (0, 1), BuildingBlock: AJUNOK_clean_linker_0, # of connection points: 2
#     Edge 90, Type (0, 1), BuildingBlock: AJUNOK_clean_linker_0, # of connection points: 2
#     Edge 91, Type (0, 1), BuildingBlock: AJUNOK_clean_linker_0, # of connection points: 2
#     Edge 92, Type (0, 1), BuildingBlock: AJUNOK_clean_linker_0, # of connection points: 2
#     Edge 93, Type (0, 1), BuildingBlock: AJUNOK_clean_linker_0, # of connection points: 2
#     Edge 94, Type (0, 1), BuildingBlock: AJUNOK_clean_linker_0, # of connection points: 2
#     Edge 95, Type (0, 1), BuildingBlock: AJUNOK_clean_linker_0, # of connection points: 2
#     Edge 96, Type (0, 1), BuildingBlock: AJUNOK_clean_linker_0, # of connection points: 2
#     Edge 97, Type (0, 1), BuildingBlock: AJUNOK_clean_linker_0, # of connection points: 2
#     Edge 98, Type (0, 1), BuildingBlock: AJUNOK_clean_linker_0, # of connection points: 2
#     Edge 99, Type (0, 1), BuildingBlock: AJUNOK_clean_linker_0, # of connection points: 2
#     Edge 100, Type (0, 1), BuildingBlock: AJUNOK_clean_linker_0, # of connection points: 2
#     Edge 101, Type (0, 1), BuildingBlock: AJUNOK_clean_linker_0, # of connection points: 2
#     Edge 102, Type (0, 1), BuildingBlock: AJUNOK_clean_linker_0, # of connection points: 2
#     Edge 103, Type (0, 1), BuildingBlock: AJUNOK_clean_linker_0, # of connection points: 2
#     Edge 104, Type (0, 1), BuildingBlock: AJUNOK_clean_linker_0, # of connection points: 2
#     Edge 105, Type (0, 1), BuildingBlock: AJUNOK_clean_linker_0, # of connection points: 2
#     Edge 106, Type (0, 1), BuildingBlock: AJUNOK_clean_linker_0, # of connection points: 2
#     Edge 107, Type (0, 1), BuildingBlock: AJUNOK_clean_linker_0, # of connection points: 2
#     Edge 108, Type (0, 1), BuildingBlock: AJUNOK_clean_linker_0, # of connection points: 2
#     Edge 109, Type (0, 1), BuildingBlock: AJUNOK_clean_linker_0, # of connection points: 2
#     Edge 110, Type (0, 1), BuildingBlock: AJUNOK_clean_linker_0, # of connection points: 2
#     Edge 111, Type (0, 1), BuildingBlock: AJUNOK_clean_linker_0, # of connection points: 2
#     Edge 112, Type (0, 1), BuildingBlock: AJUNOK_clean_linker_0, # of connection points: 2
#     Edge 113, Type (0, 1), BuildingBlock: AJUNOK_clean_linker_0, # of connection points: 2
#     Edge 114, Type (0, 1), BuildingBlock: AJUNOK_clean_linker_0, # of connection points: 2
#     Edge 115, Type (0, 1), BuildingBlock: AJUNOK_clean_linker_0, # of connection points: 2
#     Edge 116, Type (0, 1), BuildingBlock: AJUNOK_clean_linker_0, # of connection points: 2
#     Edge 117, Type (0, 1), BuildingBlock: AJUNOK_clean_linker_0, # of connection points: 2
#     Edge 118, Type (0, 1), BuildingBlock: AJUNOK_clean_linker_0, # of connection points: 2
#     Edge 119, Type (0, 1), BuildingBlock: AJUNOK_clean_linker_0, # of connection points: 2
#     Edge 120, Type (0, 1), BuildingBlock: AJUNOK_clean_linker_0, # of connection points: 2
#     Edge 121, Type (0, 1), BuildingBlock: AJUNOK_clean_linker_0, # of connection points: 2
#     Edge 122, Type (0, 1), BuildingBlock: AJUNOK_clean_linker_0, # of connection points: 2
#     Edge 123, Type (0, 1), BuildingBlock: AJUNOK_clean_linker_0, # of connection points: 2
#     Edge 124, Type (0, 1), BuildingBlock: AJUNOK_clean_linker_0, # of connection points: 2
#     Edge 125, Type (0, 1), BuildingBlock: AJUNOK_clean_linker_0, # of connection points: 2
#     Edge 126, Type (0, 1), BuildingBlock: AJUNOK_clean_linker_0, # of connection points: 2
#     Edge 127, Type (0, 1), BuildingBlock: AJUNOK_clean_linker_0, # of connection points: 2
#     Edge 128, Type (0, 1), BuildingBlock: AJUNOK_clean_linker_0, # of connection points: 2
#     Edge 129, Type (0, 1), BuildingBlock: AJUNOK_clean_linker_0, # of connection points: 2
#     Edge 130, Type (0, 1), BuildingBlock: AJUNOK_clean_linker_0, # of connection points: 2
#     Edge 131, Type (0, 1), BuildingBlock: AJUNOK_clean_linker_0, # of connection points: 2
#     Edge 132, Type (0, 1), BuildingBlock: AJUNOK_clean_linker_0, # of connection points: 2
#     Edge 133, Type (0, 1), BuildingBlock: AJUNOK_clean_linker_0, # of connection points: 2
#     Edge 134, Type (0, 1), BuildingBlock: AJUNOK_clean_linker_0, # of connection points: 2
#     Edge 135, Type (0, 1), BuildingBlock: AJUNOK_clean_linker_0, # of connection points: 2
#     Edge 136, Type (0, 1), BuildingBlock: AJUNOK_clean_linker_0, # of connection points: 2
#     Edge 137, Type (0, 1), BuildingBlock: AJUNOK_clean_linker_0, # of connection points: 2
#     Edge 138, Type (0, 1), BuildingBlock: AJUNOK_clean_linker_0, # of connection points: 2
#     Edge 139, Type (0, 1), BuildingBlock: AJUNOK_clean_linker_0, # of connection points: 2
#     Edge 140, Type (0, 1), BuildingBlock: AJUNOK_clean_linker_0, # of connection points: 2
#     Edge 141, Type (0, 1), BuildingBlock: AJUNOK_clean_linker_0, # of connection points: 2
#     Edge 142, Type (0, 1), BuildingBlock: AJUNOK_clean_linker_0, # of connection points: 2
#     Edge 143, Type (0, 1), BuildingBlock: AJUNOK_clean_linker_0, # of connection points: 2
#     Edge 144, Type (0, 1), BuildingBlock: AJUNOK_clean_linker_0, # of connection points: 2
#     Edge 145, Type (0, 1), BuildingBlock: AJUNOK_clean_linker_0, # of connection points: 2
#     Edge 146, Type (0, 1), BuildingBlock: AJUNOK_clean_linker_0, # of connection points: 2
#     Edge 147, Type (0, 1), BuildingBlock: AJUNOK_clean_linker_0, # of connection points: 2
#     Edge 148, Type (0, 1), BuildingBlock: AJUNOK_clean_linker_0, # of connection points: 2
#     Edge 149, Type (0, 1), BuildingBlock: AJUNOK_clean_linker_0, # of connection points: 2
#     Edge 150, Type (0, 1), BuildingBlock: AJUNOK_clean_linker_0, # of connection points: 2
#     Edge 151, Type (0, 1), BuildingBlock: AJUNOK_clean_linker_0, # of connection points: 2
# Relax obj value: 0.027
# Max RMSD: 0.144
# Mean RMSD: 0.106
data_MOF--net-tbo--node1-ESEHIV_clean_sbu_0--node2-BETDAH_clean_linker_0--edge1-AJUNOK_clean_linker_0
_symmetry_space_group_name_H-M    P1
_symmetry_Int_Tables_number       1
_symmetry_cell_setting            triclinic
loop_
_symmetry_equiv_pos_as_xyz
'x, y, z'
_cell_length_a     51.463365
_cell_length_b     52.680372
_cell_length_c     56.011425
_cell_angle_alpha  90.660004
_cell_angle_beta   94.493748
_cell_angle_gamma 100.74231
loop_
_atom_site_label
_atom_site_type_symbol
_atom_site_fract_x
_atom_site_fract_y
_atom_site_fract_z
_atom_type_partial_charge
H0 H 0.24891 0.12904 0.19414 0.0
H1 H 0.18598 0.14028 0.23777 0.0
H2 H 0.2081 0.19222 0.18113 0.0
C3 C 0.23394 0.13985 0.1987 0.0
C4 C 0.23045 0.16152 0.18515 0.0
C5 C 0.21783 0.13157 0.21758 0.0
C6 C 0.19809 0.14582 0.22305 0.0
C7 C 0.19449 0.16767 0.20974 0.0
C8 C 0.21071 0.17517 0.191 0.0
N9 N 0.17534 0.18322 0.21435 0.0
C10 C 0.15605 0.18006 0.23093 0.0
H11 H 0.89724 0.19565 0.21282 0.0
H12 H 0.89898 0.26547 0.17313 0.0
H13 H 0.82883 0.20592 0.16763 0.0
C14 C 0.88763 0.2072 0.20026 0.0
C15 C 0.86162 0.19773 0.19066 0.0
C16 C 0.90127 0.23155 0.19402 0.0
C17 C 0.88867 0.24656 0.17779 0.0
C18 C 0.86244 0.2371 0.16811 0.0
C19 C 0.84914 0.21289 0.17477 0.0
N20 N 0.84814 0.25162 0.15251 0.0
C21 C 0.85931 0.27063 0.1374 0.0
H22 H 0.89862 0.83302 0.17571 0.0
H23 H 0.90108 0.89831 0.22375 0.0
H24 H 0.85234 0.89098 0.15721 0.0
C25 C 0.89151 0.85038 0.1804 0.0
C26 C 0.87326 0.85961 0.16412 0.0
C27 C 0.90168 0.86393 0.20214 0.0
C28 C 0.89325 0.88737 0.20744 0.0
C29 C 0.87545 0.89714 0.19114 0.0
C30 C 0.8659 0.88325 0.16965 0.0
N31 N 0.8686 0.92196 0.19417 0.0
C32 C 0.8649 0.93465 0.21538 0.0
H33 H 0.15509 0.84662 0.2119 0.0
H34 H 0.23176 0.83377 0.19513 0.0
H35 H 0.16355 0.77295 0.18242 0.0
C36 C 0.1673 0.83418 0.20466 0.0
C37 C 0.15598 0.80857 0.1975 0.0
C38 C 0.19456 0.84348 0.20372 0.0
C39 C 0.21062 0.8269 0.19572 0.0
C40 C 0.19939 0.80176 0.1875 0.0
C41 C 0.17206 0.79262 0.1883 0.0
N42 N 0.21601 0.78576 0.1789 0.0
C43 C 0.2102 0.77304 0.15676 0.0
H44 H 0.19655 0.90845 0.82681 0.0
H45 H 0.17222 0.82758 0.84033 0.0
H46 H 0.24059 0.87159 0.88038 0.0
C47 C 0.19934 0.89144 0.83665 0.0
C48 C 0.22119 0.89276 0.85383 0.0
C49 C 0.18153 0.86792 0.83162 0.0
C50 C 0.18581 0.84582 0.84394 0.0
C51 C 0.20663 0.84712 0.86176 0.0
C52 C 0.22426 0.87062 0.86675 0.0
N53 N 0.20945 0.82426 0.874 0.0
C54 C 0.22119 0.82384 0.89716 0.0
H55 H 0.27627 0.16988 0.92517 0.0
H56 H 0.21949 0.2209 0.9205 0.0
H57 H 0.22123 0.16684 0.86289 0.0
C58 C 0.26047 0.17722 0.91523 0.0
C59 C 0.25072 0.16619 0.89232 0.0
C60 C 0.2496 0.19723 0.92568 0.0
C61 C 0.22814 0.20572 0.9129 0.0
C62 C 0.21784 0.19452 0.89032 0.0
C63 C 0.22912 0.17491 0.88043 0.0
N64 N 0.19577 0.20169 0.87691 0.0
C65 C 0.18519 0.22399 0.87971 0.0
H66 H 0.93871 0.16435 0.81883 0.0
H67 H 0.92681 0.2001 0.88531 0.0
H68 H 0.88329 0.12418 0.86558 0.0
C69 C 0.92902 0.16359 0.83534 0.0
C70 C 0.91013 0.14175 0.83999 0.0
C71 C 0.93533 0.18463 0.85171 0.0
C72 C 0.92234 0.18373 0.87294 0.0
C73 C 0.9036 0.16187 0.87804 0.0
C74 C 0.89777 0.141 0.86158 0.0
N75 N 0.89017 0.16014 0.89939 0.0
C76 C 0.8923 0.18 0.91648 0.0
H77 H 0.92167 0.82194 0.8881 0.0
H78 H 0.89691 0.86489 0.82795 0.0
H79 H 0.85096 0.8539 0.8893 0.0
C80 C 0.90828 0.8335 0.87977 0.0
C81 C 0.88643 0.83752 0.8919 0.0
C82 C 0.91276 0.84359 0.85688 0.0
C83 C 0.89444 0.85786 0.84588 0.0
C84 C 0.87223 0.862 0.8578 0.0
C85 C 0.86856 0.85169 0.88064 0.0
N86 N 0.85073 0.87192 0.84597 0.0
C87 C 0.85154 0.89526 0.83402 0.0
H88 H 0.26721 0.66076 0.65385 0.0
H89 H 0.22946 0.65679 0.71969 0.0
H90 H 0.21602 0.71447 0.66892 0.0
C91 C 0.25398 0.66774 0.66541 0.0
C92 C 0.24217 0.68908 0.65832 0.0
C93 C 0.24918 0.65544 0.68727 0.0
C94 C 0.23234 0.66503 0.70223 0.0
C95 C 0.21977 0.68573 0.69566 0.0
C96 C 0.22451 0.69767 0.6735 0.0
N97 N 0.20577 0.69574 0.71356 0.0
C98 C 0.18357 0.70761 0.71097 0.0
H99 H 0.90065 0.69664 0.7122 0.0
H100 H 0.91924 0.725 0.6424 0.0
H101 H 0.85976 0.65698 0.64873 0.0
C102 C 0.89713 0.69538 0.69285 0.0
C103 C 0.87797 0.67506 0.68223 0.0
C104 C 0.91216 0.71369 0.67874 0.0
C105 C 0.90762 0.71139 0.6536 0.0
C106 C 0.88859 0.69094 0.64288 0.0
C107 C 0.87405 0.6729 0.6572 0.0
N108 N 0.88498 0.68711 0.61771 0.0
C109 C 0.87673 0.70529 0.60265 0.0
H110 H 0.92309 0.34736 0.71062 0.0
H111 H 0.90575 0.41008 0.75304 0.0
H112 H 0.86314 0.38924 0.68422 0.0
C113 C 0.91187 0.36259 0.71289 0.0
C114 C 0.8926 0.36629 0.69468 0.0
C115 C 0.91695 0.37827 0.73396 0.0
C116 C 0.90221 0.39807 0.73686 0.0
C117 C 0.88271 0.40209 0.71893 0.0
C118 C 0.87802 0.38603 0.69806 0.0
N119 N 0.86753 0.4221 0.72073 0.0
C120 C 0.86762 0.43943 0.73997 0.0
H121 H 0.18328 0.38888 0.73956 0.0
H122 H 0.22579 0.38261 0.67741 0.0
H123 H 0.15259 0.32987 0.68559 0.0
C124 C 0.18491 0.37949 0.72256 0.0
C125 C 0.16524 0.35851 0.71408 0.0
C126 C 0.20696 0.38809 0.70961 0.0
C127 C 0.20915 0.37557 0.68776 0.0
C128 C 0.18966 0.35437 0.67914 0.0
C129 C 0.16778 0.34598 0.69239 0.0
N130 N 0.19125 0.34117 0.65721 0.0
C131 C 0.21269 0.34619 0.64319 0.0
H132 H 0.16533 0.36599 0.32615 0.0
H133 H 0.18654 0.31426 0.38035 0.0
H134 H 0.24595 0.37455 0.35606 0.0
C135 C 0.17991 0.35999 0.33873 0.0
C136 C 0.20626 0.3734 0.33987 0.0
C137 C 0.17243 0.33854 0.35313 0.0
C138 C 0.19183 0.33086 0.36928 0.0
C139 C 0.21838 0.34385 0.37026 0.0
C140 C 0.22537 0.3649 0.35548 0.0
N141 N 0.23902 0.33516 0.38435 0.0
C142 C 0.23669 0.32374 0.40657 0.0
H143 H 0.27541 0.64725 0.37957 0.0
H144 H 0.2185 0.69848 0.37797 0.0
H145 H 0.22036 0.64779 0.3179 0.0
C146 C 0.25903 0.65454 0.37051 0.0
C147 C 0.24941 0.64503 0.34723 0.0
C148 C 0.248 0.67369 0.3821 0.0
C149 C 0.22676 0.68337 0.3698 0.0
C150 C 0.21686 0.67395 0.34652 0.0
C151 C 0.22827 0.65495 0.33573 0.0
N152 N 0.19617 0.68303 0.33243 0.0
C153 C 0.17945 0.70004 0.33804 0.0
H154 H 0.89917 0.65208 0.32081 0.0
H155 H 0.89872 0.71901 0.36533 0.0
H156 H 0.83478 0.65354 0.36505 0.0
C157 C 0.88959 0.66214 0.33353 0.0
C158 C 0.86529 0.64996 0.3416 0.0
C159 C 0.90168 0.68714 0.34181 0.0
C160 C 0.88961 0.69965 0.359 0.0
C161 C 0.86555 0.68743 0.36754 0.0
C162 C 0.85359 0.66266 0.35878 0.0
N163 N 0.85247 0.69957 0.3845 0.0
C164 C 0.86218 0.72373 0.39529 0.0
H165 H 0.8862 0.28729 0.42155 0.0
H166 H 0.89836 0.34472 0.36682 0.0
H167 H 0.85427 0.35681 0.42633 0.0
C168 C 0.88277 0.30529 0.41388 0.0
C169 C 0.86849 0.32082 0.42644 0.0
C170 C 0.89373 0.31349 0.39212 0.0
C171 C 0.88915 0.33729 0.38269 0.0
C172 C 0.87466 0.35272 0.39495 0.0
C173 C 0.86469 0.34439 0.41667 0.0
N174 N 0.87331 0.37847 0.38828 0.0
C175 C 0.86724 0.38703 0.36539 0.0
H176 H 0.76703 0.14207 0.67459 0.0
H177 H 0.71123 0.14824 0.72724 0.0
H178 H 0.72287 0.20384 0.6719 0.0
C179 C 0.75216 0.1516 0.68151 0.0
C180 C 0.74582 0.17366 0.66991 0.0
C181 C 0.73986 0.14206 0.70229 0.0
C182 C 0.72084 0.15512 0.71139 0.0
C183 C 0.71448 0.17718 0.70001 0.0
C184 C 0.72722 0.18623 0.67972 0.0
N185 N 0.69613 0.1918 0.70829 0.0
C186 C 0.67895 0.18633 0.72639 0.0
H187 H 0.43611 0.19065 0.73723 0.0
H188 H 0.41313 0.22074 0.66947 0.0
H189 H 0.36083 0.15808 0.69995 0.0
C190 C 0.42147 0.19044 0.72216 0.0
C191 C 0.39761 0.17252 0.72119 0.0
C192 C 0.42703 0.20789 0.70372 0.0
C193 C 0.40857 0.20741 0.68377 0.0
C194 C 0.38452 0.18927 0.68238 0.0
C195 C 0.37938 0.17188 0.70104 0.0
N196 N 0.3651 0.18752 0.66257 0.0
C197 C 0.36452 0.20572 0.64479 0.0
H198 H 0.40119 0.8422 0.69056 0.0
H199 H 0.38211 0.90133 0.73645 0.0
H200 H 0.33926 0.88295 0.66727 0.0
C201 C 0.38948 0.85682 0.69378 0.0
C202 C 0.36994 0.86092 0.67606 0.0
C203 C 0.39421 0.87119 0.71559 0.0
C204 C 0.37877 0.89023 0.71974 0.0
C205 C 0.35868 0.89443 0.7023 0.0
C206 C 0.3545 0.8796 0.68071 0.0
N207 N 0.34211 0.91311 0.70526 0.0
C208 C 0.342 0.93006 0.72474 0.0
H209 H 0.67213 0.87516 0.70819 0.0
H210 H 0.71553 0.84879 0.65349 0.0
H211 H 0.64496 0.80012 0.6743 0.0
C212 C 0.6746 0.86043 0.69534 0.0
C213 C 0.65647 0.83677 0.69365 0.0
C214 C 0.69596 0.86514 0.68076 0.0
C215 C 0.69848 0.84601 0.66392 0.0
C216 C 0.67959 0.82297 0.66095 0.0
C217 C 0.65889 0.81834 0.67605 0.0
N218 N 0.68122 0.80405 0.64313 0.0
C219 C 0.69874 0.80869 0.62532 0.0
H220 H 0.66428 0.88125 0.3118 0.0
H221 H 0.68889 0.81643 0.34714 0.0
H222 H 0.74723 0.88158 0.32999 0.0
C223 C 0.67993 0.87186 0.31945 0.0
C224 C 0.70647 0.88467 0.32014 0.0
C225 C 0.6734 0.84731 0.32925 0.0
C226 C 0.69368 0.83556 0.33987 0.0
C227 C 0.7203 0.84792 0.3401 0.0
C228 C 0.72659 0.87221 0.3299 0.0
N229 N 0.7411 0.83605 0.34999 0.0
C230 C 0.74003 0.82366 0.37177 0.0
H231 H 0.78418 0.16212 0.39237 0.0
H232 H 0.73598 0.21558 0.41278 0.0
H233 H 0.71842 0.17576 0.34425 0.0
C234 C 0.76738 0.17148 0.38833 0.0
C235 C 0.75167 0.16584 0.36637 0.0
C236 C 0.76166 0.18903 0.40534 0.0
C237 C 0.7404 0.20183 0.39985 0.0
C238 C 0.72499 0.19772 0.37778 0.0
C239 C 0.73054 0.17948 0.36106 0.0
N240 N 0.70447 0.21261 0.37378 0.0
C241 C 0.6859 0.2127 0.35408 0.0
H242 H 0.39576 0.15186 0.33944 0.0
H243 H 0.40567 0.23254 0.35998 0.0
H244 H 0.3338 0.17997 0.3723 0.0
C245 C 0.38885 0.16762 0.34804 0.0
C246 C 0.36383 0.16284 0.357 0.0
C247 C 0.40398 0.19276 0.34841 0.0
C248 C 0.39427 0.21302 0.3593 0.0
C249 C 0.36895 0.20836 0.36794 0.0
C250 C 0.35365 0.18338 0.36631 0.0
N251 N 0.35707 0.22897 0.37538 0.0
C252 C 0.36766 0.24608 0.39423 0.0
H253 H 0.38564 0.79532 0.41068 0.0
H254 H 0.38386 0.82705 0.34026 0.0
H255 H 0.32963 0.84439 0.39 0.0
C256 C 0.37724 0.80689 0.39735 0.0
C257 C 0.35615 0.81918 0.40306 0.0
C258 C 0.38758 0.80953 0.37468 0.0
C259 C 0.37653 0.825 0.3579 0.0
C260 C 0.35599 0.83786 0.36321 0.0
C261 C 0.34567 0.83481 0.38583 0.0
N262 N 0.34585 0.85255 0.34464 0.0
C263 C 0.33129 0.87229 0.34662 0.0
H264 H 0.7584 0.65247 0.17367 0.0
H265 H 0.69957 0.65507 0.22405 0.0
H266 H 0.71063 0.71092 0.16825 0.0
C267 C 0.74326 0.66168 0.18056 0.0
C268 C 0.73697 0.6835 0.16911 0.0
C269 C 0.73054 0.6514 0.20064 0.0
C270 C 0.70959 0.66263 0.20863 0.0
C271 C 0.70207 0.68402 0.19665 0.0
C272 C 0.71598 0.6942 0.17706 0.0
N273 N 0.68102 0.69638 0.20329 0.0
C274 C 0.6648 0.69174 0.22238 0.0
H275 H 0.39124 0.66776 0.2094 0.0
H276 H 0.42729 0.71675 0.15548 0.0
H277 H 0.36756 0.64995 0.13484 0.0
C278 C 0.39246 0.67283 0.19076 0.0
C279 C 0.37699 0.65644 0.173 0.0
C280 C 0.41038 0.69487 0.18474 0.0
C281 C 0.41291 0.70033 0.1605 0.0
C282 C 0.39717 0.68451 0.14256 0.0
C283 C 0.37896 0.6627 0.14878 0.0
N284 N 0.40218 0.68902 0.11836 0.0
C285 C 0.38469 0.69878 0.10248 0.0
H286 H 0.41851 0.30993 0.18532 0.0
H287 H 0.44137 0.36368 0.24503 0.0
H288 H 0.37414 0.37042 0.19657 0.0
C289 C 0.41578 0.3268 0.19536 0.0
C290 C 0.39429 0.3391 0.18806 0.0
C291 C 0.43306 0.33539 0.21597 0.0
C292 C 0.42831 0.35662 0.22928 0.0
C293 C 0.40722 0.36933 0.22262 0.0
C294 C 0.39022 0.36054 0.20194 0.0
N295 N 0.40443 0.39081 0.23746 0.0
C296 C 0.38511 0.40637 0.23552 0.0
H297 H 0.68688 0.35961 0.22501 0.0
H298 H 0.76635 0.38543 0.20572 0.0
H299 H 0.7237 0.30992 0.18226 0.0
C300 C 0.70366 0.35618 0.21571 0.0
C301 C 0.70276 0.3322 0.20404 0.0
C302 C 0.72656 0.37526 0.21663 0.0
C303 C 0.74843 0.37077 0.20492 0.0
C304 C 0.74725 0.34772 0.19178 0.0
C305 C 0.72429 0.32832 0.19133 0.0
N306 N 0.77007 0.34429 0.18039 0.0
C307 C 0.7698 0.32816 0.16052 0.0
H308 H 0.68188 0.38992 0.83744 0.0
H309 H 0.71113 0.324 0.86574 0.0
H310 H 0.76395 0.39693 0.86372 0.0
C311 C 0.69797 0.38152 0.84568 0.0
C312 C 0.72328 0.39695 0.85037 0.0
C313 C 0.69326 0.35523 0.85122 0.0
C314 C 0.71411 0.34447 0.86217 0.0
C315 C 0.73936 0.35972 0.86724 0.0
C316 C 0.74396 0.38577 0.86106 0.0
N317 N 0.76103 0.34802 0.87507 0.0
C318 C 0.76815 0.3447 0.89913 0.0
H319 H 0.77388 0.68868 0.90896 0.0
H320 H 0.71158 0.73211 0.89243 0.0
H321 H 0.72535 0.67478 0.84227 0.0
C322 C 0.75773 0.69288 0.89698 0.0
C323 C 0.75149 0.67934 0.87472 0.0
C324 C 0.74389 0.71253 0.90337 0.0
C325 C 0.7228 0.71765 0.88753 0.0
C326 C 0.71613 0.70406 0.86547 0.0
C327 C 0.73067 0.68525 0.85926 0.0
N328 N 0.69509 0.70852 0.84883 0.0
C329 C 0.6779 0.72586 0.85139 0.0
H330 H 0.40158 0.65088 0.8142 0.0
H331 H 0.39207 0.72902 0.82833 0.0
H332 H 0.33287 0.66533 0.8472 0.0
C333 C 0.3905 0.66437 0.82142 0.0
C334 C 0.36619 0.655 0.83105 0.0
C335 C 0.40012 0.69108 0.82041 0.0
C336 C 0.38489 0.70834 0.82879 0.0
C337 C 0.36098 0.69924 0.83887 0.0
C338 C 0.35161 0.67253 0.83987 0.0
N339 N 0.3468 0.7174 0.84788 0.0
C340 C 0.33088 0.7123 0.86682 0.0
H341 H 0.42267 0.29643 0.91132 0.0
H342 H 0.41481 0.35331 0.85774 0.0
H343 H 0.37112 0.35046 0.92052 0.0
C344 C 0.41439 0.31286 0.90508 0.0
C345 C 0.39677 0.32249 0.9191 0.0
C346 C 0.42142 0.32383 0.8831 0.0
C347 C 0.40945 0.34446 0.87444 0.0
C348 C 0.39095 0.35393 0.88785 0.0
C349 C 0.38489 0.34282 0.91005 0.0
N350 N 0.37813 0.37474 0.8803 0.0
C351 C 0.38059 0.38915 0.85942 0.0
Cu352 Cu 0.32315 0.2559 0.06197 0.0
N353 N 0.35169 0.25937 0.04222 0.0
N354 N 0.3734 0.27344 1.01006 0.0
C355 C 0.35346 0.27582 0.02377 0.0
C356 C 0.38466 0.25459 0.02033 0.0
C357 C 0.37123 0.24591 0.04006 0.0
O358 O 0.2937 0.25125 0.03614 0.0
C359 C 0.32527 0.28817 0.10549 0.0
O360 O 0.3042 0.27185 0.111 0.0
H361 H 0.33972 0.28881 0.02006 0.0
H362 H 0.37479 0.23016 0.05125 0.0
N363 N 0.31792 0.22658 0.08179 0.0
N364 N 0.2995 0.20037 0.11009 0.0
C365 C 0.29587 0.21814 0.09338 0.0
C366 C 0.33609 0.21347 0.09137 0.0
C367 C 0.32485 0.19734 0.10861 0.0
C368 C 0.29318 0.23082 0.02318 0.0
O369 O 0.30839 0.21459 0.03068 0.0
H370 H 0.27824 0.22655 0.0909 0.0
H371 H 0.35658 0.21654 0.08728 0.0
O372 O 0.33336 0.28646 0.08455 0.0
H373 H 0.40061 0.24666 1.01342 0.0
H374 H 0.335 0.18508 0.11985 0.0
Cu375 Cu 0.85167 0.30417 0.02412 0.0
N376 N 0.82801 0.28854 0.04563 0.0
N377 N 0.8019 0.28575 0.07597 0.0
C378 C 0.81507 0.3014 0.0602 0.0
C379 C 0.80675 0.26199 0.07105 0.0
C380 C 0.82275 0.26374 0.0522 0.0
O381 O 0.87304 0.33588 0.03869 0.0
C382 C 0.8146 0.32656 0.99357 0.0
O383 O 0.8087 0.3373 1.01321 0.0
H384 H 0.81715 0.32222 0.06045 0.0
H385 H 0.83104 0.24833 0.04464 0.0
N386 N 0.87413 0.28263 1.01432 0.0
N387 N 0.88984 0.25506 0.99112 0.0
C388 C 0.86804 0.26354 0.99744 0.0
C389 C 0.90067 0.28642 1.0187 0.0
C390 C 0.91035 0.26918 1.00479 0.0
C391 C 0.88063 0.34182 0.06066 0.0
O392 O 0.89354 0.36537 0.06604 0.0
H393 H 0.84825 0.25717 0.98887 0.0
H394 H 0.91241 0.30159 0.03026 0.0
O395 O 0.83202 0.31225 0.99497 0.0
H396 H 0.80007 0.24479 0.08094 0.0
H397 H 0.93099 0.26764 1.00444 0.0
Cu398 Cu 0.81581 0.77061 0.03549 0.0
N399 N 0.84469 0.77432 1.01585 0.0
N400 N 0.86605 0.78767 0.98314 0.0
C401 C 0.85029 0.79342 0.99998 0.0
C402 C 0.87109 0.7642 0.98922 0.0
C403 C 0.85782 0.756 1.00904 0.0
O404 O 0.7847 0.76103 1.01205 0.0
C405 C 0.84068 0.80168 0.07341 0.0
O406 O 0.85654 0.78516 0.07085 0.0
H407 H 0.84101 0.81017 0.99962 0.0
H408 H 0.85604 0.73699 1.01643 0.0
N409 N 0.8126 0.74288 0.05689 0.0
N410 N 0.79783 0.72025 0.08856 0.0
C411 C 0.79402 0.73888 0.07297 0.0
C412 C 0.82866 0.72599 0.06245 0.0
C413 C 0.81951 0.71194 0.08179 0.0
C414 C 0.7808 0.77283 0.9927 0.0
O415 O 0.79246 0.79707 0.9913 0.0
H416 H 0.77878 0.75042 0.07398 0.0
H417 H 0.84644 0.72463 0.05391 0.0
O418 O 0.82066 0.80074 0.05802 0.0
H419 H 0.88229 0.7529 0.97923 0.0
H420 H 0.82846 0.69703 0.09041 0.0
Cu421 Cu 0.26559 0.74274 1.01134 0.0
N422 N 0.23653 0.73471 0.02939 0.0
N423 N 0.21396 0.73613 0.06158 0.0
C424 C 0.23393 0.74815 0.04927 0.0
C425 C 0.20341 0.71419 0.0489 0.0
C426 C 0.21746 0.71336 0.02892 0.0
O427 O 0.2961 0.74362 0.03411 0.0
C428 C 0.24401 0.78227 0.98834 0.0
O429 O 0.22224 0.77069 0.99739 0.0
H430 H 0.24763 0.76558 0.05545 0.0
H431 H 0.21487 0.69774 1.01575 0.0
N432 N 0.26568 0.71771 0.98768 0.0
N433 N 0.2774 0.70362 0.95309 0.0
C434 C 0.27192 0.72384 0.96539 0.0
C435 C 0.26676 0.69248 0.98963 0.0
C436 C 0.27397 0.68369 0.9682 0.0
C437 C 0.31747 0.73667 0.02921 0.0
O438 O 0.32124 0.73219 1.00674 0.0
H439 H 0.27444 0.74334 0.95895 0.0
H440 H 0.26477 0.68191 1.00603 0.0
O441 O 0.2657 0.77486 0.99443 0.0
H442 H 0.18736 0.69948 0.05409 0.0
H443 H 0.27865 0.66484 0.96483 0.0
Cu444 Cu 0.02297 0.25273 0.3017 0.0
N445 N 0.03855 0.22362 0.29519 0.0
N446 N 0.068 0.20116 0.28165 0.0
C447 C 0.06166 0.22475 0.28486 0.0
C448 C 0.04792 0.18447 0.29035 0.0
C449 C 0.02989 0.19832 0.29869 0.0
O450 O 0.05265 0.28016 0.31217 0.0
C451 C 1.0006 0.24984 0.25277 0.0
O452 O 1.01752 0.2347 0.24899 0.0
H453 H 0.07351 0.24268 0.27957 0.0
H454 H 1.01152 0.19043 0.30631 0.0
N455 N 0.99944 0.249 0.32629 0.0
N456 N 0.96866 0.25865 0.34963 0.0
C457 C 0.98153 0.26433 0.32959 0.0
C458 C 0.99791 0.23307 0.34493 0.0
C459 C 0.97908 0.23901 0.35933 0.0
C460 C 0.06859 0.27424 0.32887 0.0
O461 O 0.06334 0.25121 0.33809 0.0
H462 H 0.97883 0.28006 0.31797 0.0
H463 H 1.01008 0.21859 0.34816 0.0
O464 O 1.00164 0.26084 0.2733 0.0
H465 H 0.04578 0.16365 0.28992 0.0
H466 H 0.97364 0.2297 0.37583 0.0
Cu467 Cu 0.7904 0.04866 0.27351 0.0
N468 N 0.7917 0.0672 0.24528 0.0
N469 N 0.80499 0.09958 0.22094 0.0
C470 C 0.80919 0.08912 0.24246 0.0
C471 C 0.78394 0.08345 0.20976 0.0
C472 C 0.77587 0.0634 0.22478 0.0
O473 O 0.79057 0.07399 0.30009 0.0
C474 C 0.81378 1.00955 0.2567 0.0
O475 O 0.79218 1.0076 0.24215 0.0
H476 H 0.82452 0.09738 0.25616 0.0
H477 H 0.75931 0.04755 0.22119 0.0
N478 N 0.75899 0.02459 0.27454 0.0
N479 N 0.73333 0.98778 0.2842 0.0
C480 C 0.75775 1.00259 0.28664 0.0
C481 C 0.73439 0.02386 0.26407 0.0
C482 C 0.7185 1.00093 0.26986 0.0
C483 C 0.77489 0.09016 0.29667 0.0
O484 O 0.76073 0.08922 0.27602 0.0
H485 H 0.7748 0.99718 0.29638 0.0
H486 H 0.72848 0.03874 0.25291 0.0
O487 O 0.81852 0.02751 0.27299 0.0
H488 H 0.77432 0.08635 0.19239 0.0
H489 H 0.69774 0.99445 0.26403 0.0
Cu490 Cu 0.03172 0.77325 0.27704 0.0
N491 N 1.0147 0.80231 0.27478 0.0
N492 N 0.98515 0.82671 0.26132 0.0
C493 C 0.99324 0.80373 0.25953 0.0
C494 C 1.0023 0.84024 0.27848 0.0
C495 C 0.0203 0.82518 0.2868 0.0
O496 O 1.00457 0.74504 0.28578 0.0
C497 C 0.05311 0.78591 0.23307 0.0
O498 O 0.04489 0.80772 0.23639 0.0
H499 H 0.98435 0.78836 0.24679 0.0
H500 H 0.03636 0.83062 0.30059 0.0
N501 N 0.06194 0.77522 0.29927 0.0
N502 N 0.09789 0.76127 0.31642 0.0
C503 C 0.07283 0.75454 0.30574 0.0
C504 C 0.08071 0.79588 0.30623 0.0
C505 C 0.10261 0.78741 0.31696 0.0
C506 C 0.99799 0.74602 0.30717 0.0
O507 O 1.01125 0.76443 0.32182 0.0
H508 H 0.06274 0.7349 0.30165 0.0
H509 H 0.07945 0.81565 0.30217 0.0
O510 O 0.04592 0.76721 0.24677 0.0
H511 H 1.00183 0.85966 0.28471 0.0
H512 H 0.1213 0.79963 0.32314 0.0
Cu513 Cu 0.27373 1.00316 0.28716 0.0
N514 N 0.2871 0.02494 0.31561 0.0
N515 N 0.30612 0.05951 0.33813 0.0
C516 C 0.29937 0.04982 0.31567 0.0
C517 C 0.29779 0.04009 0.35281 0.0
C518 C 0.28587 0.01873 0.33882 0.0
O519 O 0.26128 0.03448 0.27104 0.0
C520 C 0.27726 0.95566 0.31579 0.0
O521 O 0.25285 0.95644 0.32063 0.0
H522 H 0.30347 0.06059 0.29961 0.0
H523 H 0.27684 1.00014 0.34518 0.0
N524 N 0.26041 0.9816 0.25848 0.0
N525 N 0.24165 0.94789 0.23464 0.0
C526 C 0.24818 0.95663 0.25746 0.0
C527 C 0.26174 0.98885 0.23557 0.0
C528 C 0.25012 0.96805 0.22079 0.0
C529 C 0.23746 0.03825 0.26785 0.0
O530 O 0.21822 0.02085 0.2752 0.0
H531 H 0.24396 0.94505 0.27299 0.0
H532 H 0.27071 1.00787 0.23003 0.0
O533 O 0.28909 0.9729 0.30244 0.0
H534 H 0.29981 0.04142 0.37219 0.0
H535 H 0.24858 0.96758 0.20139 0.0
Cu536 Cu 0.0466 0.79352 0.76221 0.0
N537 N 0.06498 0.76567 0.76069 0.0
N538 N 0.09455 0.74257 0.74859 0.0
C539 C 0.08613 0.76547 0.74776 0.0
C540 C 0.07786 0.72779 0.76257 0.0
C541 C 0.05976 0.74203 0.77002 0.0
O542 O 0.07538 0.8236 0.7624 0.0
C543 C 1.00033 0.77041 0.73758 0.0
O544 O 0.99993 0.75747 0.75748 0.0
H545 H 0.0946 0.78163 0.73731 0.0
H546 H 0.04371 0.73546 0.78115 0.0
N547 N 0.02797 0.79527 0.79002 0.0
N548 N 0.99956 0.80689 0.81488 0.0
C549 C 1.00688 0.80702 0.79215 0.0
C550 C 0.03388 0.78712 0.81209 0.0
C551 C 1.01645 0.79417 0.82737 0.0
C552 C 0.07927 0.84179 0.77824 0.0
O553 O 0.05955 0.8451 0.79072 0.0
H554 H 0.99769 0.8163 0.77748 0.0
H555 H 0.05006 0.77717 0.81685 0.0
O556 O 0.02003 0.78851 0.7348 0.0
H557 H 0.07869 0.70804 0.76719 0.0
H558 H 1.01627 0.79021 0.84628 0.0
Cu559 Cu 0.31511 0.04845 0.82078 0.0
N560 N 0.34738 0.07008 0.81642 0.0
N561 N 0.37358 0.10017 0.79699 0.0
C562 C 0.35084 0.08265 0.79584 0.0
C563 C 0.38518 0.09843 0.81925 0.0
C564 C 0.36891 0.07973 0.83126 0.0
O565 O 0.29107 0.07262 0.82835 0.0
C566 C 0.32818 1.01015 0.79302 0.0
O567 O 0.3479 0.01562 0.80972 0.0
H568 H 0.33609 0.08001 0.78069 0.0
H569 H 0.37201 0.07444 0.84971 0.0
N570 N 0.31425 0.02611 0.84635 0.0
N571 N 0.29682 0.98892 0.86263 0.0
C572 C 0.29238 1.00803 0.84805 0.0
C573 C 0.33339 0.01858 0.86083 0.0
C574 C 0.32261 0.9955 0.87095 0.0
C575 C 0.29933 0.08631 0.84757 0.0
O576 O 0.32069 0.08175 0.85985 0.0
H577 H 0.27428 1.00745 0.83663 0.0
H578 H 0.35409 0.02778 0.86219 0.0
O579 O 0.30976 0.0237 0.79279 0.0
H580 H 0.40374 0.11016 0.82648 0.0
H581 H 0.33331 0.98373 0.88226 0.0
Cu582 Cu 0.05391 0.30813 0.81406 0.0
N583 N 0.03358 0.33432 0.814 0.0
N584 N 1.00203 0.35591 0.8002 0.0
C585 C 1.01298 0.33474 0.79768 0.0
C586 C 1.01628 0.36934 0.8191 0.0
C587 C 0.03575 0.35598 0.82758 0.0
O588 O 0.02878 0.27618 0.81567 0.0
C589 C 0.08424 0.333 0.78031 0.0
O590 O 0.08278 0.35245 0.79472 0.0
H591 H 1.00656 0.31997 0.78375 0.0
H592 H 0.05058 0.36185 0.84233 0.0
N593 N 0.08059 0.30867 0.83914 0.0
N594 N 0.11447 0.29489 0.85947 0.0
C595 C 0.09927 0.29384 0.83856 0.0
C596 C 0.08401 0.31955 0.86131 0.0
C597 C 0.10482 0.31095 0.87394 0.0
C598 C 1.01893 0.27178 0.83568 0.0
O599 O 0.02709 0.28819 0.85374 0.0
H600 H 0.10066 0.28136 0.82341 0.0
H601 H 0.07156 0.33187 0.8682 0.0
O602 O 0.07193 0.31054 0.78487 0.0
H603 H 1.01281 0.38739 0.82644 0.0
H604 H 0.11189 0.31567 0.89246 0.0
Cu605 Cu 0.80782 0.01227 0.74605 0.0
N606 N 0.84246 0.03105 0.7482 0.0
N607 N 0.87394 0.06113 0.76722 0.0
C608 C 0.84881 0.05538 0.75709 0.0
C609 C 0.88429 0.03983 0.76327 0.0
C610 C 0.86485 0.02136 0.75141 0.0
O611 O 0.78306 0.03689 0.74045 0.0
C612 C 0.82276 0.9878 0.79018 0.0
O613 O 0.83836 1.01003 0.79603 0.0
H614 H 0.83439 0.06765 0.75848 0.0
H615 H 0.86586 1.00122 0.74864 0.0
N616 N 0.80081 0.99184 0.71819 0.0
N617 N 0.77614 0.95859 0.69661 0.0
C618 C 0.78963 0.96663 0.71788 0.0
C619 C 0.79484 1.0001 0.6962 0.0
C620 C 0.77962 0.97971 0.68288 0.0
C621 C 0.77895 0.05656 0.75215 0.0
O622 O 0.78911 0.0607 0.77443 0.0
H623 H 0.78917 0.95522 0.73376 0.0
H624 H 0.79833 0.02015 0.69122 0.0
O625 O 0.80555 0.98673 0.77217 0.0
H626 H 0.9032 0.03645 0.77108 0.0
H627 H 0.76947 0.98138 0.66548 0.0
Cu628 Cu 0.30324 0.76093 0.53301 0.0
N629 N 0.33223 0.77377 0.55571 0.0
N630 N 0.35269 0.79627 0.58859 0.0
C631 C 0.33096 0.79182 0.57277 0.0
C632 C 0.36821 0.78013 0.58121 0.0
C633 C 0.35558 0.76629 0.56105 0.0
O634 O 0.27489 0.74981 0.55501 0.0
C635 C 0.32554 0.79243 0.49876 0.0
O636 O 0.34557 0.78354 0.50934 0.0
H637 H 0.31402 0.80113 0.57381 0.0
H638 H 0.36259 0.75127 0.55155 0.0
N639 N 0.30468 0.73228 0.51284 0.0
N640 N 0.2948 0.70913 0.47813 0.0
C641 C 0.28742 0.72623 0.49321 0.0
C642 C 0.32382 0.71847 0.5101 0.0
C643 C 0.31776 0.7042 0.48878 0.0
C644 C 0.28137 0.73231 0.56883 0.0
O645 O 0.30216 0.72259 0.56399 0.0
H646 H 0.27086 0.73591 0.48917 0.0
H647 H 0.34168 0.71979 0.5219 0.0
O648 O 0.30303 0.78711 0.50783 0.0
H649 H 0.38685 0.77758 0.5903 0.0
H650 H 0.32986 0.69186 0.48129 0.0
Cu651 Cu 0.80845 0.79844 0.50362 0.0
N652 N 0.83825 0.81311 0.48852 0.0
N653 N 0.86401 0.80686 0.45945 0.0
C654 C 0.85269 0.7973 0.47917 0.0
C655 C 0.85693 0.83015 0.45667 0.0
C656 C 0.841 0.83396 0.47465 0.0
O657 O 0.78129 0.78868 0.47723 0.0
C658 C 0.83666 0.77652 0.53823 0.0
O659 O 0.8476 0.8011 0.54088 0.0
H660 H 0.85065 0.77721 0.48396 0.0
H661 H 0.82905 0.84878 0.4752 0.0
N662 N 0.79732 0.82014 0.52546 0.0
N663 N 0.77298 0.8302 0.5541 0.0
C664 C 0.77574 0.81251 0.53744 0.0
C665 C 0.8089 0.84349 0.53491 0.0
C666 C 0.7939 0.84972 0.5528 0.0
C667 C 0.76785 0.80548 0.46981 0.0
O668 O 0.76949 0.82676 0.48273 0.0
H669 H 0.76313 0.79365 0.5348 0.0
H670 H 0.8274 0.85464 0.52983 0.0
O671 O 0.81785 0.76991 0.52187 0.0
H672 H 0.86006 0.84194 0.44108 0.0
H673 H 0.79834 0.86687 0.56432 0.0
Cu674 Cu 0.82547 0.25555 0.55665 0.0
N675 N 0.83033 0.22912 0.53552 0.0
N676 N 0.82093 0.20995 0.49887 0.0
C677 C 0.81163 0.22144 0.51725 0.0
C678 C 0.84658 0.20978 0.5062 0.0
C679 C 0.85239 0.22185 0.52864 0.0
O680 O 0.82086 0.28107 0.53192 0.0
C681 C 0.80443 0.22305 0.59106 0.0
O682 O 0.82819 0.21773 0.58943 0.0
H683 H 0.79235 0.22697 0.51632 0.0
H684 H 0.87185 0.22703 0.53805 0.0
N685 N 0.85366 0.27089 0.57928 0.0
N686 N 0.87407 0.29605 0.61074 0.0
C687 C 0.85216 0.29009 0.59515 0.0
C688 C 0.87729 0.26424 0.5852 0.0
C689 C 0.88984 0.27963 0.60447 0.0
C690 C 0.84254 0.28999 0.52248 0.0
O691 O 0.86489 0.28535 0.53282 0.0
H692 H 0.83501 0.29924 0.59548 0.0
H693 H 0.8845 0.24867 0.57674 0.0
O694 O 0.79707 0.23976 0.5768 0.0
H695 H 0.86061 0.2027 0.49568 0.0
H696 H 0.90865 0.27795 0.61377 0.0
Cu697 Cu 0.31974 0.29921 0.53283 0.0
N698 N 0.31479 0.32597 0.55314 0.0
N699 N 0.29425 0.34504 0.57987 0.0
C700 C 0.29307 0.32433 0.56526 0.0
C701 C 0.31778 0.36048 0.57691 0.0
C702 C 0.33046 0.34863 0.56026 0.0
O703 O 0.32618 0.27115 0.55386 0.0
C704 C 0.27882 0.31029 0.50134 0.0
O705 O 0.28842 0.33349 0.51051 0.0
H706 H 0.27687 0.30785 0.56376 0.0
H707 H 0.34982 0.35578 0.5541 0.0
N708 N 0.34829 0.30751 0.51387 0.0
N709 N 0.36981 0.30255 0.48149 0.0
C710 C 0.3461 0.29994 0.49068 0.0
C711 C 0.37449 0.31558 0.51958 0.0
C712 C 0.38788 0.31243 0.49955 0.0
C713 C 0.34431 0.27752 0.57092 0.0
O714 O 0.3572 0.30152 0.57239 0.0
H715 H 0.3276 0.29056 0.48123 0.0
H716 H 0.38342 0.3218 0.53729 0.0
O717 O 0.28856 0.2912 0.50952 0.0
H718 H 0.3252 0.37894 0.58602 0.0
H719 H 0.40918 0.31604 0.49865 0.0
Cu720 Cu 0.8027 0.56005 0.79917 0.0
N721 N 0.80104 0.57457 0.769 0.0
N722 N 0.81497 0.59944 0.73875 0.0
C723 C 0.81937 0.59416 0.76208 0.0
C724 C 0.79272 0.58272 0.73078 0.0
C725 C 0.78425 0.56725 0.74945 0.0
O726 O 0.80604 0.58985 0.82208 0.0
C727 C 0.82414 0.51934 0.78276 0.0
O728 O 0.80119 0.51639 0.77006 0.0
H729 H 0.83571 0.60419 0.77399 0.0
H730 H 0.76759 0.55129 0.74858 0.0
N731 N 0.77151 0.53696 0.80403 0.0
N732 N 0.74628 0.50101 0.81599 0.0
C733 C 0.77085 0.51542 0.8168 0.0
C734 C 0.74639 0.53632 0.79495 0.0
C735 C 0.73076 0.51391 0.80213 0.0
C736 C 0.79219 0.59 0.84012 0.0
O737 O 0.77928 0.56792 0.84737 0.0
H738 H 0.78836 0.50984 0.82556 0.0
H739 H 0.74003 0.55072 0.78343 0.0
O740 O 0.8304 0.53836 0.79799 0.0
H741 H 0.78376 0.58119 0.71255 0.0
H742 H 0.70978 0.50737 0.79725 0.0
Cu743 Cu 0.31401 0.51793 0.77026 0.0
N744 N 0.34232 0.49974 0.77691 0.0
N745 N 0.36344 0.46978 0.79397 0.0
C746 C 0.33998 0.47769 0.78944 0.0
C747 C 0.3813 0.48771 0.78387 0.0
C748 C 0.36826 0.50603 0.77329 0.0
O749 O 0.28319 0.49137 0.76176 0.0
C750 C 0.32964 0.54546 0.81428 0.0
O751 O 0.34708 0.5303 0.81742 0.0
H752 H 0.32154 0.46842 0.79621 0.0
H753 H 0.37723 0.5232 0.76441 0.0
N754 N 0.31605 0.54154 0.74488 0.0
N755 N 0.30398 0.57312 0.72198 0.0
C756 C 0.2989 0.558 0.74113 0.0
C757 C 0.33283 0.5465 0.72754 0.0
C758 C 0.32553 0.56597 0.71351 0.0
C759 C 0.28673 0.47612 0.74501 0.0
O760 O 0.30926 0.48062 0.73488 0.0
H761 H 0.28327 0.55916 0.75271 0.0
H762 H 0.34919 0.53669 0.72523 0.0
O763 O 0.31091 0.53965 0.79776 0.0
H764 H 0.4024 0.48787 0.78445 0.0
H765 H 0.3352 0.57403 0.69809 0.0
Cu766 Cu 0.29496 0.5219 0.26696 0.0
N767 N 0.26349 0.49837 0.26991 0.0
N768 N 0.23723 0.46392 0.28356 0.0
C769 C 0.26183 0.47837 0.28479 0.0
C770 C 0.22265 0.47536 0.2674 0.0
C771 C 0.23893 0.49677 0.25906 0.0
O772 O 0.32254 0.50006 0.26627 0.0
C773 C 0.28057 0.56455 0.28868 0.0
O774 O 0.2653 0.5617 0.26855 0.0
H775 H 0.27852 0.47433 0.29614 0.0
H776 H 0.23316 0.51028 0.24624 0.0
N777 N 0.29558 0.53895 0.2377 0.0
N778 N 0.31116 0.56729 0.2104 0.0
C779 C 0.3145 0.55917 0.23302 0.0
C780 C 0.27954 0.53413 0.21733 0.0
C781 C 0.28901 0.55176 0.2005 0.0
C782 C 0.31835 0.4832 0.24897 0.0
O783 O 0.29699 0.48241 0.23431 0.0
H784 H 0.33032 0.56785 0.24612 0.0
H785 H 0.26249 0.51864 0.21469 0.0
O786 O 0.29666 0.54886 0.29261 0.0
H787 H 0.20168 0.46903 0.26237 0.0
H788 H 0.28065 0.55271 0.18226 0.0
Cu789 Cu 0.78817 0.50783 0.27951 0.0
N790 N 0.81427 0.48704 0.27968 0.0
N791 N 0.83576 0.45652 0.29468 0.0
C792 C 0.82189 0.47514 0.29953 0.0
C793 C 0.83698 0.45679 0.27067 0.0
C794 C 0.82355 0.47547 0.26147 0.0
O795 O 0.75597 0.48229 0.28182 0.0
C796 C 0.82097 0.54773 0.30159 0.0
O797 O 0.83444 0.54079 0.28446 0.0
H798 H 0.81586 0.47902 0.31708 0.0
H799 H 0.81912 0.47885 0.24272 0.0
N800 N 0.78453 0.52845 0.25261 0.0
N801 N 0.77311 0.56196 0.23266 0.0
C802 C 0.7687 0.5463 0.2514 0.0
C803 C 0.79971 0.5332 0.23407 0.0
C804 C 0.79273 0.55388 0.22178 0.0
C805 C 0.73976 0.47593 0.26342 0.0
O806 O 0.7363 0.4937 0.24787 0.0
H807 H 0.75535 0.54875 0.2649 0.0
H808 H 0.81579 0.52345 0.23059 0.0
O809 O 0.79872 0.53363 0.30519 0.0
H810 H 0.8451 0.44314 0.26027 0.0
H811 H 0.80201 0.56289 0.20653 0.0
Cu812 Cu 0.55011 0.26308 0.79138 0.0
N813 N 0.52675 0.26132 0.81572 0.0
N814 N 0.49696 0.27298 0.8387 0.0
C815 C 0.5095 0.27741 0.81842 0.0
C816 C 0.50668 0.25334 0.84912 0.0
C817 C 0.52489 0.24606 0.83485 0.0
O818 O 0.52862 0.26847 0.76243 0.0
C819 C 0.59299 0.28766 0.82009 0.0
O820 O 0.58507 0.26683 0.8322 0.0
H821 H 0.50705 0.29278 0.80628 0.0
H822 H 0.53653 0.23124 0.83852 0.0
N823 N 0.56425 0.23289 0.78764 0.0
N824 N 0.59256 0.20793 0.77689 0.0
C825 C 0.58859 0.23232 0.78047 0.0
C826 C 0.55231 0.20797 0.78862 0.0
C827 C 0.56967 0.19255 0.7819 0.0
C828 C 0.52905 0.25708 0.74235 0.0
O829 O 0.54883 0.24525 0.73896 0.0
H830 H 0.60252 0.24956 0.77661 0.0
H831 H 0.53209 0.20151 0.79304 0.0
O832 O 0.58003 0.29076 0.80033 0.0
H833 H 0.50129 0.2451 0.86607 0.0
H834 H 0.56554 0.17166 0.78029 0.0
Cu835 Cu 0.53249 0.79339 0.78444 0.0
N836 N 0.55614 0.791 0.81157 0.0
N837 N 0.5902 0.77895 0.83335 0.0
C838 C 0.57774 0.77984 0.81128 0.0
C839 C 0.57597 0.79031 0.84813 0.0
C840 C 0.55499 0.79767 0.83468 0.0
O841 O 0.55435 0.79791 0.75748 0.0
C842 C 0.50343 0.74333 0.79493 0.0
O843 O 0.52439 0.74122 0.80914 0.0
H844 H 0.58366 0.77168 0.7952 0.0
H845 H 0.53975 0.80682 0.84134 0.0
N846 N 0.51422 0.82124 0.7852 0.0
N847 N 0.48305 0.84469 0.77446 0.0
C848 C 0.4926 0.82289 0.77042 0.0
C849 C 0.51855 0.84274 0.79926 0.0
C850 C 0.49936 0.85722 0.7927 0.0
C851 C 0.57399 0.81669 0.76024 0.0
O852 O 0.57634 0.83179 0.77943 0.0
H853 H 0.48416 0.80837 0.75673 0.0
H854 H 0.5344 0.8475 0.81335 0.0
O855 O 0.5044 0.7628 0.78152 0.0
H856 H 0.58038 0.7932 0.86728 0.0
H857 H 0.49733 0.87525 0.80111 0.0
Cu858 Cu 0.52676 0.75144 0.29618 0.0
N859 N 0.50481 0.75021 0.32219 0.0
N860 N 0.4729 0.75958 0.34451 0.0
C861 C 0.48652 0.76533 0.32486 0.0
C862 C 0.48345 0.74026 0.35476 0.0
C863 C 0.50292 0.73451 0.341 0.0
O864 O 0.50396 0.75034 0.26669 0.0
C865 C 0.56781 0.78447 0.31985 0.0
O866 O 0.5622 0.76657 0.33576 0.0
H867 H 0.48284 0.7799 0.31223 0.0
H868 H 0.51485 0.71987 0.34447 0.0
N869 N 0.54695 0.72503 0.29303 0.0
N870 N 0.57881 0.70575 0.27928 0.0
C871 C 0.56971 0.72813 0.28182 0.0
C872 C 0.54128 0.69967 0.29763 0.0
C873 C 0.56079 0.68779 0.28918 0.0
C874 C 0.48134 0.73551 0.26614 0.0
O875 O 0.47479 0.72194 0.28499 0.0
H876 H 0.57864 0.74632 0.27453 0.0
H877 H 0.52373 0.6903 0.30574 0.0
O878 O 0.55326 0.78271 0.30022 0.0
H879 H 0.47787 0.73112 0.37127 0.0
H880 H 0.56139 0.66738 0.28991 0.0
Cu881 Cu 0.55488 0.24979 0.26467 0.0
N882 N 0.52846 0.22251 0.27205 0.0
N883 N 0.49334 0.20429 0.29071 0.0
C884 C 0.51106 0.22597 0.28785 0.0
C885 C 0.49992 0.18615 0.27635 0.0
C886 C 0.52166 0.19758 0.2646 0.0
O887 O 0.53554 0.27935 0.26058 0.0
C888 C 0.59293 0.22916 0.29305 0.0
O889 O 0.58062 0.20903 0.27993 0.0
H890 H 0.51133 0.24424 0.29702 0.0
H891 H 0.53166 0.18847 0.25158 0.0
N892 N 0.56995 0.24603 0.23563 0.0
N893 N 0.6056 0.26041 0.21543 0.0
C894 C 0.59647 0.24879 0.2353 0.0
C895 C 0.56175 0.25432 0.21417 0.0
C896 C 0.58359 0.26307 0.2017 0.0
C897 C 0.5138 0.2748 0.24687 0.0
O898 O 0.5058 0.25157 0.23719 0.0
H899 H 0.60907 0.24515 0.25064 0.0
H900 H 0.54197 0.25748 0.20917 0.0
O901 O 0.5846 0.25058 0.29019 0.0
H902 H 0.48941 0.16636 0.27413 0.0
H903 H 0.58343 0.2738 0.18534 0.0
C904 C 0.27557 0.17403 0.16904 0.0
C905 C 0.24773 0.17038 0.16521 0.0
C906 C 0.29219 0.18357 0.15101 0.0
C907 C 0.28182 0.18978 0.12816 0.0
H908 H 0.28466 0.17007 0.18636 0.0
H909 H 0.31343 0.18663 0.1553 0.0
S910 S 0.21009 0.18108 0.10806 0.0
N911 N 0.21048 0.17217 0.13624 0.0
N912 N 0.2415 0.18958 0.10239 0.0
C913 C 0.25394 0.18553 0.1239 0.0
C914 C 0.23703 0.17597 0.14234 0.0
C915 C 0.87664 0.28173 0.09835 0.0
C916 C 0.86627 0.28925 0.11915 0.0
C917 C 0.88097 0.29869 0.0793 0.0
C918 C 0.87485 0.32357 0.08034 0.0
H919 H 0.8811 0.26252 0.09664 0.0
H920 H 0.88924 0.29221 0.06381 0.0
S921 S 0.8462 0.35184 0.13082 0.0
N922 N 0.84944 0.32274 0.13978 0.0
N923 N 0.85748 0.35464 0.10397 0.0
C924 C 0.86455 0.33125 0.10123 0.0
C925 C 0.86016 0.314 0.12061 0.0
C926 C 0.86108 0.85776 0.11904 0.0
C927 C 0.86234 0.84496 0.14108 0.0
C928 C 0.85227 0.84405 0.09712 0.0
C929 C 0.84424 0.81701 0.09639 0.0
H930 H 0.8679 0.87846 0.11858 0.0
H931 H 0.85295 0.85453 0.08059 0.0
S932 S 0.84061 0.7745 0.14885 0.0
N933 N 0.85221 0.8037 0.16054 0.0
N934 N 0.83637 0.77817 0.11965 0.0
C935 C 0.84437 0.80416 0.11829 0.0
C936 C 0.8532 0.81802 0.1405 0.0
C937 C 0.20803 0.7794 0.1135 0.0
C938 C 0.20698 0.76248 0.13267 0.0
C939 C 0.20884 0.77031 0.09003 0.0
C940 C 0.20848 0.74402 0.08502 0.0
H941 H 0.20927 0.79993 0.11675 0.0
H942 H 0.21066 0.78404 0.07573 0.0
S943 S 0.20499 0.69197 0.12931 0.0
N944 N 0.20479 0.71837 0.14547 0.0
N945 N 0.20629 0.70112 0.10124 0.0
C946 C 0.20632 0.72676 0.10405 0.0
C947 C 0.20564 0.73609 0.12798 0.0
C948 C 0.21172 0.8171 0.93904 0.0
C949 C 0.22995 0.81915 0.92154 0.0
C950 C 0.21747 0.80714 0.96153 0.0
C951 C 0.24164 0.79879 0.96723 0.0
H952 H 0.19229 0.82184 0.93489 0.0
H953 H 0.2022 0.80462 0.974 0.0
S954 S 0.29726 0.80347 0.92799 0.0
N955 N 0.27386 0.81453 0.91164 0.0
N956 N 0.28515 0.79616 0.95403 0.0
C957 C 0.26089 0.80279 0.95036 0.0
C958 C 0.25486 0.8128 0.92739 0.0
C959 C 0.24392 0.21291 0.96796 0.0
C960 C 0.26072 0.20909 0.9499 0.0
C961 C 0.25426 0.22184 0.99141 0.0
C962 C 0.2818 0.22748 0.99767 0.0
H963 H 0.2226 0.20788 0.96426 0.0
H964 H 0.24062 0.22304 1.00497 0.0
S965 S 0.33439 0.22397 0.95664 0.0
N966 N 0.30643 0.21445 0.93974 0.0
N967 N 0.32556 0.2303 0.98345 0.0
C968 C 0.29868 0.22492 0.97952 0.0
C969 C 0.28827 0.21602 0.95579 0.0
C970 C 0.871 0.19656 0.94971 0.0
C971 C 0.8923 0.19919 0.93517 0.0
C972 C 0.87034 0.21488 0.96796 0.0
C973 C 0.89101 0.23642 0.9723 0.0
H974 H 0.85473 0.1802 0.947 0.0
H975 H 0.85367 0.21204 0.97891 0.0
S976 S 0.95068 0.2525 0.93806 0.0
N977 N 0.93427 0.2249 0.92582 0.0
N978 N 0.93284 0.25979 0.95951 0.0
C979 C 0.91233 0.2393 0.95758 0.0
C980 C 0.913 0.22056 0.93912 0.0
C981 C 0.88058 0.79874 0.91826 0.0
C982 C 0.88144 0.82541 0.91564 0.0
C983 C 0.87572 0.78675 0.94022 0.0
C984 C 0.87179 0.80087 0.96083 0.0
H985 H 0.88323 0.78688 0.90303 0.0
H986 H 0.87455 0.76607 0.94078 0.0
S987 S 0.87419 0.87183 0.96384 0.0
N988 N 0.87892 0.86585 0.93566 0.0
N989 N 0.87067 0.84368 0.97707 0.0
C990 C 0.8731 0.82774 0.95849 0.0
C991 C 0.8777 0.83988 0.93595 0.0
C992 C 0.1213 0.20512 0.23819 0.0
C993 C 0.13393 0.18436 0.24439 0.0
C994 C 0.10002 0.21048 0.25047 0.0
C995 C 0.09026 0.19523 0.26951 0.0
H996 H 0.12792 0.2174 0.22362 0.0
H997 H 0.09087 0.22653 0.24472 0.0
S998 S 0.11738 0.13903 0.29335 0.0
N999 N 0.13576 0.14874 0.27108 0.0
N1000 N 0.0959 0.1587 0.29437 0.0
C1001 C 0.10292 0.17438 0.27596 0.0
C1002 C 0.12473 0.169 0.2634 0.0
C1003 C 0.84375 0.16776 0.2222 0.0
C1004 C 0.84715 0.17235 0.1979 0.0
C1005 C 0.82984 0.14405 0.2295 0.0
C1006 C 0.81902 0.12389 0.21281 0.0
H1007 H 0.85159 0.18276 0.23565 0.0
H1008 H 0.82726 0.14166 0.24839 0.0
S1009 S 0.82441 0.1258 0.1471 0.0
N1010 N 0.83959 0.15479 0.15717 0.0
N1011 N 0.81407 0.10988 0.17087 0.0
C1012 C 0.82268 0.12819 0.18842 0.0
C1013 C 0.83661 0.15249 0.18099 0.0
C1014 C 0.94565 0.87096 0.22742 0.0
C1015 C 0.9222 0.85415 0.21845 0.0
C1016 C 0.96588 0.86193 0.24146 0.0
C1017 C 0.96369 0.83563 0.24723 0.0
H1018 H 0.94875 0.89122 0.22306 0.0
H1019 H 0.98368 0.87563 0.24739 0.0
S1020 S 0.90505 0.78406 0.23054 0.0
N1021 N 0.89724 0.81014 0.21801 0.0
N1022 N 0.93498 0.79331 0.24428 0.0
C1023 C 0.94002 0.81874 0.23893 0.0
C1024 C 0.91943 0.82794 0.22463 0.0
C1025 C 0.22696 0.87536 0.22987 0.0
C1026 C 0.20632 0.87041 0.21147 0.0
C1027 C 0.23817 0.90074 0.23758 0.0
C1028 C 0.22949 0.92201 0.22682 0.0
H1029 H 0.23428 0.85948 0.23849 0.0
H1030 H 0.25404 0.90382 0.2518 0.0
S1031 S 0.17598 0.91936 0.17806 0.0
N1032 N 0.17749 0.88876 0.18285 0.0
N1033 N 0.19887 0.93649 0.19715 0.0
C1034 C 0.20895 0.91731 0.20838 0.0
C1035 C 0.19725 0.89149 0.20078 0.0
C1036 C 0.15264 0.84655 0.79618 0.0
C1037 C 0.15768 0.86592 0.81435 0.0
C1038 C 0.12789 0.84046 0.78293 0.0
C1039 C 0.10697 0.85322 0.78761 0.0
H1040 H 0.16756 0.83512 0.793 0.0
H1041 H 0.12464 0.82438 0.77013 0.0
S1042 S 0.11122 0.90769 0.83132 0.0
N1043 N 0.14076 0.8996 0.83468 0.0
N1044 N 0.09414 0.88815 0.81 0.0
C1045 C 0.11246 0.87394 0.80453 0.0
C1046 C 0.13782 0.88029 0.81784 0.0
C1047 C 0.24748 0.12437 0.86768 0.0
C1048 C 0.26322 0.14609 0.88031 0.0
C1049 C 0.25893 0.10559 0.85607 0.0
C1050 C 0.28664 0.10765 0.85664 0.0
H1051 H 0.22606 0.12154 0.86715 0.0
H1052 H 0.24599 0.08894 0.84734 0.0
S1053 S 0.33685 0.16211 0.88446 0.0
N1054 N 0.30816 0.16936 0.89045 0.0
N1055 N 0.32947 0.13429 0.86932 0.0
C1056 C 0.30252 0.12964 0.86851 0.0
C1057 C 0.29093 0.14872 0.88016 0.0
C1058 C 0.97572 0.21723 0.86539 0.0
C1059 C 0.95617 0.20717 0.84701 0.0
C1060 C 0.99607 0.23798 0.86141 0.0
C1061 C 0.99791 0.24919 0.83882 0.0
H1062 H 0.97548 0.20883 0.88296 0.0
H1063 H 1.01064 0.24514 0.87613 0.0
S1064 S 0.95068 0.23158 0.78522 0.0
N1065 N 0.93896 0.21129 0.80577 0.0
N1066 N 0.97793 0.24971 0.79812 0.0
C1067 C 0.97853 0.2395 0.82028 0.0
C1068 C 0.95748 0.21863 0.82442 0.0
C1069 C 0.85825 0.94315 0.82942 0.0
C1070 C 0.8448 0.91821 0.82227 0.0
C1071 C 0.85046 0.96535 0.81943 0.0
C1072 C 0.82873 0.96365 0.80193 0.0
H1073 H 0.87484 0.94558 0.84293 0.0
H1074 H 0.86185 0.98405 0.82541 0.0
S1075 S 0.78629 0.90233 0.77797 0.0
N1076 N 0.80833 0.89286 0.79723 0.0
N1077 N 0.7936 0.93423 0.77857 0.0
C1078 C 0.81494 0.93862 0.79496 0.0
C1079 C 0.82299 0.91605 0.80509 0.0
C1080 C 0.24797 0.10443 0.23857 0.0
C1081 C 0.22205 0.10807 0.23136 0.0
C1082 C 0.25266 0.08207 0.25041 0.0
C1083 C 0.23168 0.06214 0.25569 0.0
H1084 H 0.26491 0.11908 0.23505 0.0
H1085 H 0.27303 0.08044 0.25542 0.0
S1086 S 0.15997 0.06172 0.24032 0.0
N1087 N 0.17507 0.08941 0.23011 0.0
N1088 N 0.18374 0.04773 0.25256 0.0
C1089 C 0.20561 0.06562 0.24878 0.0
C1090 C 0.20085 0.08842 0.23664 0.0
C1091 C 0.23306 0.94068 0.86186 0.0
C1092 C 0.2412 0.91705 0.85793 0.0
C1093 C 0.25158 0.96392 0.86467 0.0
C1094 C 0.27893 0.96446 0.86366 0.0
H1095 H 0.21219 0.94123 0.86254 0.0
H1096 H 0.24444 0.98178 0.86709 0.0
S1097 S 0.31037 0.90801 0.85267 0.0
N1098 N 0.27844 0.89565 0.85268 0.0
N1099 N 0.31312 0.93935 0.85786 0.0
C1100 C 0.28738 0.94093 0.8601 0.0
C1101 C 0.26854 0.91724 0.85723 0.0
C1102 C 0.15344 0.2505 0.89318 0.0
C1103 C 0.17041 0.24485 0.87622 0.0
C1104 C 0.13596 0.26778 0.88804 0.0
C1105 C 0.13459 0.27961 0.86561 0.0
H1106 H 0.153 0.24086 0.91017 0.0
H1107 H 0.12259 0.27098 0.90127 0.0
S1108 S 0.17646 0.27238 0.81588 0.0
N1109 N 0.18589 0.25334 0.83677 0.0
N1110 N 0.15325 0.28565 0.8271 0.0
C1111 C 0.15223 0.2747 0.84893 0.0
C1112 C 0.17008 0.25734 0.85424 0.0
C1113 C 0.87469 0.11075 0.81625 0.0
C1114 C 0.90184 0.12057 0.8216 0.0
C1115 C 0.86588 0.09162 0.79848 0.0
C1116 C 0.88379 0.0816 0.78488 0.0
H1117 H 0.85996 0.1181 0.82572 0.0
H1118 H 0.84475 0.08441 0.79578 0.0
S1119 S 0.95716 0.10042 0.79204 0.0
N1120 N 0.94683 0.11816 0.81251 0.0
N1121 N 0.9301 0.08308 0.77805 0.0
C1122 C 0.91106 0.09123 0.78999 0.0
C1123 C 0.92011 0.11053 0.80848 0.0
C1124 C 0.93264 0.82567 0.82158 0.0
C1125 C 0.93602 0.8376 0.84461 0.0
C1126 C 0.95364 0.8164 0.81157 0.0
C1127 C 0.97879 0.81852 0.82425 0.0
H1128 H 0.91334 0.82249 0.81166 0.0
H1129 H 0.94987 0.80659 0.79421 0.0
S1130 S 0.99918 0.85174 0.8834 0.0
N1131 N 0.96753 0.85355 0.87845 0.0
N1132 N 1.00651 0.83613 0.85986 0.0
C1133 C 0.98273 0.8316 0.84668 0.0
C1134 C 0.96153 0.84112 0.85676 0.0
C1135 C 0.86817 0.9785 0.23374 0.0
C1136 C 0.85609 0.95214 0.23216 0.0
C1137 C 0.85583 0.99715 0.24435 0.0
C1138 C 0.83089 0.99005 0.25357 0.0
H1139 H 0.88635 0.98502 0.22523 0.0
H1140 H 0.86477 0.0174 0.2435 0.0
S1141 S 0.7922 0.92335 0.25571 0.0
N1142 N 0.81888 0.91979 0.24237 0.0
N1143 N 0.79568 0.95458 0.262 0.0
C1144 C 0.81958 0.96356 0.25343 0.0
C1145 C 0.83217 0.94466 0.24281 0.0
C1146 C 0.10821 0.81252 0.19461 0.0
C1147 C 0.12791 0.79832 0.20174 0.0
C1148 C 0.08291 0.8066 0.20299 0.0
C1149 C 0.0764 0.78636 0.21895 0.0
H1150 H 0.11285 0.82922 0.18352 0.0
H1151 H 0.06893 0.8191 0.19816 0.0
S1152 S 0.12023 0.74148 0.24079 0.0
N1153 N 0.13864 0.76169 0.22381 0.0
N1154 N 0.09106 0.75037 0.23951 0.0
C1155 C 0.09524 0.7706 0.22454 0.0
C1156 C 0.12105 0.77667 0.21598 0.0
C1157 C 0.94864 0.22728 0.20126 0.0
C1158 C 0.92838 0.2409 0.20548 0.0
C1159 C 0.97273 0.23174 0.21559 0.0
C1160 C 0.97733 0.24966 0.23507 0.0
H1161 H 0.94533 0.21216 0.18747 0.0
H1162 H 0.98719 0.2199 0.21214 0.0
S1163 S 0.93112 0.29196 0.2521 0.0
N1164 N 0.91497 0.27438 0.22908 0.0
N1165 N 0.96007 0.28274 0.25634 0.0
C1166 C 0.9577 0.26451 0.23854 0.0
C1167 C 0.93326 0.26011 0.22369 0.0
C1168 C 0.27804 0.709 0.63264 0.0
C1169 C 0.25081 0.70332 0.63619 0.0
C1170 C 0.28726 0.71952 0.6113 0.0
C1171 C 0.26987 0.72518 0.59221 0.0
H1172 H 0.29252 0.70475 0.64638 0.0
H1173 H 0.30845 0.72273 0.60959 0.0
S1174 S 0.19671 0.71603 0.59267 0.0
N1175 N 0.20642 0.70569 0.61906 0.0
N1176 N 0.22396 0.72575 0.57888 0.0
C1177 C 0.24265 0.721 0.59583 0.0
C1178 C 0.23311 0.71005 0.61778 0.0
C1179 C 0.87618 0.74926 0.58861 0.0
C1180 C 0.86652 0.72265 0.58625 0.0
C1181 C 0.86634 0.7664 0.57291 0.0
C1182 C 0.84643 0.7575 0.55432 0.0
H1183 H 0.8914 0.7569 0.60267 0.0
H1184 H 0.87443 0.78683 0.5755 0.0
S1185 S 0.81489 0.68897 0.54103 0.0
N1186 N 0.83631 0.68777 0.56436 0.0
N1187 N 0.81762 0.71986 0.53471 0.0
C1188 C 0.83668 0.73071 0.55191 0.0
C1189 C 0.84679 0.7133 0.56793 0.0
C1190 C 0.86216 0.33672 0.6639 0.0
C1191 C 0.88793 0.34946 0.67224 0.0
C1192 C 0.85771 0.31967 0.6437 0.0
C1193 C 0.87882 0.31462 0.63085 0.0
H1194 H 0.84533 0.33944 0.67345 0.0
H1195 H 0.83762 0.30987 0.63849 0.0
S1196 S 0.94965 0.34571 0.64331 0.0
N1197 N 0.93453 0.35744 0.66467 0.0
N1198 N 0.92625 0.32589 0.62686 0.0
C1199 C 0.90454 0.32799 0.63851 0.0
C1200 C 0.90906 0.34523 0.65909 0.0
C1201 C 0.22729 0.34163 0.603 0.0
C1202 C 0.23366 0.3489 0.6272 0.0
C1203 C 0.24727 0.34145 0.58743 0.0
C1204 C 0.27427 0.34867 0.59552 0.0
H1205 H 0.20676 0.33534 0.59619 0.0
H1206 H 0.24162 0.33511 0.56898 0.0
S1207 S 0.30101 0.3698 0.65741 0.0
N1208 N 0.26847 0.36397 0.65867 0.0
N1209 N 0.30619 0.36377 0.62933 0.0
C1210 C 0.28081 0.3568 0.61959 0.0
C1211 C 0.2604 0.35681 0.6355 0.0
C1212 C 0.25605 0.2963 0.43584 0.0
C1213 C 0.24075 0.31541 0.43091 0.0
C1214 C 0.26618 0.29262 0.45939 0.0
C1215 C 0.26165 0.30829 0.47858 0.0
H1216 H 0.26169 0.28531 0.42128 0.0
H1217 H 0.27941 0.27897 0.46219 0.0
S1218 S 0.21984 0.35865 0.47513 0.0
N1219 N 0.2192 0.34816 0.44714 0.0
N1220 N 0.23826 0.34156 0.49127 0.0
C1221 C 0.24463 0.32605 0.47395 0.0
C1222 C 0.23422 0.32959 0.45009 0.0
C1223 C 0.28717 0.68922 0.41234 0.0
C1224 C 0.25941 0.68372 0.40679 0.0
C1225 C 0.29849 0.6974 0.43552 0.0
C1226 C 0.28266 0.70066 0.45432 0.0
H1227 H 0.30038 0.6873 0.39858 0.0
H1228 H 0.3199 0.7015 0.43866 0.0
S1229 S 0.20899 0.68795 0.4499 0.0
N1230 N 0.2164 0.68152 0.42259 0.0
N1231 N 0.23764 0.69713 0.46589 0.0
C1232 C 0.25491 0.69542 0.44907 0.0
C1233 C 0.24334 0.68694 0.42545 0.0
C1234 C 0.85639 0.76847 0.40205 0.0
C1235 C 0.86883 0.74783 0.40883 0.0
C1236 C 0.85726 0.78954 0.41786 0.0
C1237 C 0.87049 0.79043 0.44094 0.0
H1238 H 0.84441 0.7675 0.38515 0.0
H1239 H 0.84553 0.80397 0.41278 0.0
S1240 S 0.9094 0.74274 0.46545 0.0
N1241 N 0.89718 0.7307 0.43866 0.0
N1242 N 0.89901 0.77038 0.46838 0.0
C1243 C 0.88495 0.77091 0.44689 0.0
C1244 C 0.88401 0.74951 0.43083 0.0
C1245 C 0.84261 0.29025 0.45472 0.0
C1246 C 0.8595 0.31392 0.45081 0.0
C1247 C 0.83468 0.28361 0.47781 0.0
C1248 C 0.84353 0.30029 0.49788 0.0
H1249 H 0.83582 0.27662 0.43991 0.0
H1250 H 0.82284 0.26469 0.48019 0.0
S1251 S 0.88816 0.36417 0.49744 0.0
N1252 N 0.8845 0.35403 0.46916 0.0
N1253 N 0.87016 0.34126 0.51223 0.0
C1254 C 0.86001 0.32406 0.49408 0.0
C1255 C 0.86781 0.33096 0.47067 0.0
C1256 C 0.13592 0.70093 0.71854 0.0
C1257 C 0.16015 0.71793 0.71651 0.0
C1258 C 0.11446 0.70926 0.72845 0.0
C1259 C 0.11629 0.73497 0.73681 0.0
H1260 H 0.13382 0.68075 0.71325 0.0
H1261 H 0.09638 0.69531 0.72992 0.0
S1262 S 0.17585 0.78699 0.73584 0.0
N1263 N 0.18488 0.76158 0.7237 0.0
N1264 N 0.14482 0.77731 0.74225 0.0
C1265 C 0.14034 0.7523 0.73434 0.0
C1266 C 0.16219 0.74374 0.72428 0.0
C1267 C 0.83439 0.65018 0.69336 0.0
C1268 C 0.86224 0.65577 0.69715 0.0
C1269 C 0.8191 0.6318 0.70702 0.0
C1270 C 0.83109 0.61831 0.72496 0.0
H1271 H 0.82432 0.66026 0.67985 0.0
H1272 H 0.79771 0.62831 0.70371 0.0
S1273 S 0.9035 0.62408 0.74029 0.0
N1274 N 0.90129 0.64532 0.71913 0.0
N1275 N 0.87266 0.61061 0.74463 0.0
C1276 C 0.85898 0.62343 0.72865 0.0
C1277 C 0.87452 0.6422 0.71479 0.0
C1278 C 0.93862 0.34818 0.75994 0.0
C1279 C 0.93783 0.37356 0.75266 0.0
C1280 C 0.95926 0.34274 0.77583 0.0
C1281 C 0.98004 0.36242 0.78526 0.0
H1282 H 0.92325 0.33227 0.75308 0.0
H1283 H 0.95902 0.32287 0.78069 0.0
S1284 S 0.98778 0.43207 0.77154 0.0
N1285 N 0.95993 0.41858 0.756 0.0
N1286 N 0.99863 0.40838 0.78588 0.0
C1287 C 0.97929 0.38797 0.77851 0.0
C1288 C 0.95824 0.39352 0.76225 0.0
C1289 C 0.22023 0.43296 0.72748 0.0
C1290 C 0.22758 0.41019 0.7191 0.0
C1291 C 0.2394 0.45411 0.73649 0.0
C1292 C 0.26655 0.45324 0.73717 0.0
H1293 H 0.1995 0.43459 0.72673 0.0
H1294 H 0.23298 0.47144 0.74235 0.0
S1295 S 0.29601 0.39713 0.72025 0.0
N1296 N 0.26376 0.38728 0.71422 0.0
N1297 N 0.2998 0.42717 0.7306 0.0
C1298 C 0.27413 0.43039 0.72947 0.0
C1299 C 0.25465 0.40883 0.72053 0.0
C1300 C 0.1418 0.2956 0.34744 0.0
C1301 C 0.14512 0.32271 0.34925 0.0
C1302 C 0.11686 0.28022 0.3412 0.0
C1303 C 0.09429 0.29129 0.33605 0.0
H1304 H 0.15874 0.28615 0.35008 0.0
H1305 H 0.11543 0.25947 0.33969 0.0
S1306 S 0.0913 0.36083 0.34072 0.0
N1307 N 0.12284 0.35971 0.3477 0.0
N1308 N 0.07623 0.33066 0.33471 0.0
C1309 C 0.09702 0.31821 0.33828 0.0
C1310 C 0.12234 0.33393 0.34521 0.0
C1311 C 0.2657 0.62875 0.30966 0.0
C1312 C 0.26146 0.62541 0.33409 0.0
C1313 C 0.27354 0.60955 0.29576 0.0
C1314 C 0.27805 0.58609 0.30554 0.0
H1315 H 0.26218 0.64617 0.30091 0.0
H1316 H 0.27528 0.61283 0.27684 0.0
S1317 S 0.27145 0.56777 0.36879 0.0
N1318 N 0.26356 0.59677 0.3677 0.0
N1319 N 0.2789 0.56101 0.34155 0.0
C1320 C 0.2754 0.5829 0.3302 0.0
C1321 C 0.26704 0.60245 0.34445 0.0
C1322 C 0.94787 0.71279 0.34831 0.0
C1323 C 0.92674 0.70041 0.33237 0.0
C1324 C 0.97115 0.72666 0.33991 0.0
C1325 C 0.97432 0.72871 0.31521 0.0
H1326 H 0.94632 0.71192 0.36747 0.0
H1327 H 0.98666 0.7362 0.35295 0.0
S1328 S 0.92466 0.70006 0.26596 0.0
N1329 N 0.9103 0.6912 0.29068 0.0
N1330 N 0.95424 0.71701 0.27486 0.0
C1331 C 0.95356 0.71594 0.29904 0.0
C1332 C 0.92974 0.70188 0.30762 0.0
C1333 C 0.83508 0.41161 0.34685 0.0
C1334 C 0.85859 0.40195 0.34557 0.0
C1335 C 0.8277 0.42916 0.3301 0.0
C1336 C 0.8435 0.43773 0.31124 0.0
H1337 H 0.82257 0.4061 0.36134 0.0
H1338 H 0.80943 0.43608 0.33198 0.0
S1339 S 0.90724 0.41806 0.30017 0.0
N1340 N 0.89777 0.40203 0.32417 0.0
N1341 N 0.88393 0.43485 0.29245 0.0
C1342 C 0.86689 0.42772 0.30953 0.0
C1343 C 0.87447 0.40992 0.32678 0.0
C1344 C 0.29022 0.6351 0.69369 0.0
C1345 C 0.26272 0.6335 0.69523 0.0
C1346 C 0.30344 0.61535 0.70224 0.0
C1347 C 0.28984 0.59302 0.71276 0.0
H1348 H 0.3018 0.65206 0.68632 0.0
H1349 H 0.32466 0.61787 0.70104 0.0
S1350 S 0.21717 0.57783 0.71851 0.0
N1351 N 0.22206 0.60661 0.70646 0.0
N1352 N 0.24668 0.56975 0.72229 0.0
C1353 C 0.26221 0.59086 0.71378 0.0
C1354 C 0.24877 0.61096 0.7051 0.0
C1355 C 0.22986 0.41902 0.33527 0.0
C1356 C 0.21389 0.39636 0.32486 0.0
C1357 C 0.23722 0.44102 0.3217 0.0
C1358 C 0.22869 0.44134 0.29726 0.0
H1359 H 0.23653 0.41985 0.35414 0.0
H1360 H 0.24949 0.45804 0.33043 0.0
S1361 S 0.18845 0.38666 0.26087 0.0
N1362 N 0.19118 0.37524 0.2881 0.0
N1363 N 0.20456 0.41691 0.26286 0.0
C1364 C 0.21287 0.4189 0.28654 0.0
C1365 C 0.20559 0.39634 0.30027 0.0
C1366 C 0.15795 0.73807 0.34669 0.0
C1367 C 0.15775 0.71454 0.33452 0.0
C1368 C 0.13803 0.75285 0.3411 0.0
C1369 C 0.11713 0.74479 0.32303 0.0
H1370 H 0.17382 0.74535 0.3603 0.0
H1371 H 0.13915 0.77089 0.35091 0.0
S1372 S 0.10864 0.6846 0.28548 0.0
N1373 N 0.13534 0.68387 0.30361 0.0
N1374 N 0.09853 0.7114 0.29276 0.0
C1375 C 0.11686 0.72104 0.31094 0.0
C1376 C 0.13702 0.70608 0.31674 0.0
C1377 C 0.84267 0.60378 0.34639 0.0
C1378 C 0.85178 0.62432 0.33139 0.0
C1379 C 0.83144 0.57899 0.33679 0.0
C1380 C 0.82914 0.57412 0.31194 0.0
H1381 H 0.84502 0.60669 0.36568 0.0
H1382 H 0.82555 0.56341 0.34884 0.0
S1383 S 0.84604 0.62212 0.26496 0.0
N1384 N 0.85472 0.63867 0.29044 0.0
N1385 N 0.83414 0.59226 0.27248 0.0
C1386 C 0.8369 0.59478 0.29679 0.0
C1387 C 0.84811 0.61985 0.30649 0.0
C1388 C 0.93136 0.28845 0.39489 0.0
C1389 C 0.912 0.29852 0.38062 0.0
C1390 C 0.94951 0.27539 0.38469 0.0
C1391 C 0.9494 0.27186 0.35969 0.0
H1392 H 0.93295 0.29118 0.41417 0.0
H1393 H 0.96418 0.26846 0.39652 0.0
S1394 S 0.90144 0.29221 0.31425 0.0
N1395 N 0.89291 0.30234 0.34 0.0
N1396 N 0.92713 0.27818 0.32097 0.0
C1397 C 0.92994 0.28141 0.34519 0.0
C1398 C 0.91129 0.29459 0.35558 0.0
C1399 C 0.8728 0.48556 0.75346 0.0
C1400 C 0.86173 0.45929 0.75617 0.0
C1401 C 0.8626 0.50545 0.76461 0.0
C1402 C 0.84093 0.49973 0.7788 0.0
H1403 H 0.88826 0.49085 0.7414 0.0
H1404 H 0.87029 0.52534 0.76049 0.0
S1405 S 0.80606 0.43407 0.79274 0.0
N1406 N 0.82905 0.42874 0.77529 0.0
N1407 N 0.80984 0.4658 0.7959 0.0
C1408 C 0.83081 0.47351 0.78268 0.0
C1409 C 0.84122 0.45337 0.77146 0.0
C1410 C 0.12798 0.36878 0.73583 0.0
C1411 C 0.14209 0.35021 0.72816 0.0
C1412 C 0.10834 0.36255 0.75179 0.0
C1413 C 0.10197 0.33747 0.76066 0.0
H1414 H 0.13271 0.38852 0.72998 0.0
H1415 H 0.09859 0.37775 0.75775 0.0
S1416 S 0.13256 0.28157 0.74542 0.0
N1417 N 0.14791 0.30552 0.72993 0.0
N1418 N 0.11069 0.29365 0.75991 0.0
C1419 C 0.11507 0.31836 0.75229 0.0
C1420 C 0.13522 0.32478 0.73603 0.0
C1421 C 0.95994 0.73636 0.68348 0.0
C1422 C 0.93388 0.73366 0.69058 0.0
C1423 C 0.98167 0.75076 0.69762 0.0
C1424 C 0.97795 0.76288 0.71924 0.0
H1425 H 0.9638 0.72577 0.66786 0.0
H1426 H 1.00156 0.75067 0.6926 0.0
S1427 S 0.91366 0.76556 0.74366 0.0
N1428 N 0.90553 0.74756 0.7189 0.0
N1429 N 0.94634 0.77382 0.74567 0.0
C1430 C 0.95194 0.76203 0.72549 0.0
C1431 C 0.9299 0.74766 0.71109 0.0
C1432 C 0.78741 0.18739 0.64851 0.0
C1433 C 0.75974 0.18497 0.64863 0.0
C1434 C 0.80128 0.19971 0.62989 0.0
C1435 C 0.7883 0.21047 0.6104 0.0
H1436 H 0.79867 0.18028 0.66328 0.0
H1437 H 0.82261 0.20113 0.63106 0.0
S1438 S 0.71571 0.20758 0.60078 0.0
N1439 N 0.71954 0.19294 0.62639 0.0
N1440 N 0.74582 0.21669 0.59188 0.0
C1441 C 0.7606 0.20792 0.61001 0.0
C1442 C 0.74633 0.19505 0.62892 0.0
C1443 C 0.34226 0.2156 0.6062 0.0
C1444 C 0.36072 0.22356 0.62591 0.0
C1445 C 0.3372 0.233 0.5883 0.0
C1446 C 0.35047 0.25898 0.58955 0.0
H1447 H 0.33141 0.19586 0.60472 0.0
H1448 H 0.32263 0.22607 0.57354 0.0
S1449 S 0.40096 0.28892 0.63805 0.0
N1450 N 0.3923 0.25861 0.64591 0.0
N1451 N 0.38333 0.29142 0.61255 0.0
C1452 C 0.36927 0.26692 0.60929 0.0
C1453 C 0.37425 0.24918 0.62742 0.0
C1454 C 0.34007 0.8328 0.64404 0.0
C1455 C 0.36568 0.84542 0.65287 0.0
C1456 C 0.33595 0.81704 0.62301 0.0
C1457 C 0.35724 0.8132 0.60983 0.0
H1458 H 0.3231 0.83461 0.65377 0.0
H1459 H 0.31594 0.80731 0.61736 0.0
S1460 S 0.42782 0.84429 0.62366 0.0
N1461 N 0.4124 0.85453 0.64558 0.0
N1462 N 0.40468 0.82518 0.6063 0.0
C1463 C 0.38284 0.82631 0.61811 0.0
C1464 C 0.38703 0.84232 0.63948 0.0
C1465 C 0.74326 0.8273 0.61338 0.0
C1466 C 0.71698 0.81493 0.60707 0.0
C1467 C 0.76133 0.83325 0.59583 0.0
C1468 C 0.75362 0.82678 0.57154 0.0
H1469 H 0.75001 0.83211 0.63197 0.0
H1470 H 0.78166 0.84212 0.60136 0.0
S1471 S 0.68625 0.7961 0.54598 0.0
N1472 N 0.68357 0.79774 0.57514 0.0
N1473 N 0.71743 0.80886 0.54207 0.0
C1474 C 0.7271 0.81505 0.56509 0.0
C1475 C 0.70876 0.80912 0.58291 0.0
C1476 C 0.73208 0.82668 0.41423 0.0
C1477 C 0.74222 0.81425 0.39581 0.0
C1478 C 0.73871 0.82193 0.43831 0.0
C1479 C 0.75581 0.80466 0.44477 0.0
H1480 H 0.72016 0.84123 0.41006 0.0
H1481 H 0.73157 0.83301 0.45196 0.0
S1482 S 0.78486 0.76503 0.40255 0.0
N1483 N 0.76797 0.78234 0.38506 0.0
N1484 N 0.78055 0.7732 0.43033 0.0
C1485 C 0.76441 0.79066 0.4263 0.0
C1486 C 0.75766 0.7956 0.40176 0.0
C1487 C 0.76491 0.18995 0.4505 0.0
C1488 C 0.77757 0.19378 0.42909 0.0
C1489 C 0.7793 0.19464 0.47307 0.0
C1490 C 0.80702 0.20354 0.47531 0.0
H1491 H 0.74365 0.18317 0.44981 0.0
H1492 H 0.76859 0.19133 0.48896 0.0
S1493 S 0.84926 0.21884 0.42456 0.0
N1494 N 0.81926 0.20805 0.41149 0.0
N1495 N 0.84621 0.21747 0.45368 0.0
C1496 C 0.81988 0.2077 0.45395 0.0
C1497 C 0.80521 0.20269 0.43096 0.0
C1498 C 0.35651 0.28205 0.41687 0.0
C1499 C 0.37269 0.26359 0.4148 0.0
C1500 C 0.35704 0.29606 0.43837 0.0
C1501 C 0.37389 0.2922 0.45847 0.0
H1502 H 0.34235 0.28474 0.40218 0.0
H1503 H 0.3433 0.30919 0.43971 0.0
S1504 S 0.42103 0.24676 0.46157 0.0
N1505 N 0.40676 0.24275 0.43396 0.0
N1506 N 0.40796 0.26924 0.4745 0.0
C1507 C 0.3912 0.27471 0.45615 0.0
C1508 C 0.39049 0.26028 0.43425 0.0
C1509 C 0.3632 0.82357 0.4479 0.0
C1510 C 0.34583 0.81595 0.42739 0.0
C1511 C 0.35532 0.81794 0.47103 0.0
C1512 C 0.32973 0.80425 0.47485 0.0
H1513 H 0.38341 0.83324 0.44601 0.0
H1514 H 0.36997 0.82323 0.48609 0.0
S1515 S 0.27648 0.78014 0.42709 0.0
N1516 N 0.30147 0.79466 0.41235 0.0
N1517 N 0.28683 0.78366 0.45584 0.0
C1518 C 0.31173 0.79745 0.45454 0.0
C1519 C 0.31975 0.80336 0.43085 0.0
C1520 C 0.63267 0.17404 0.73757 0.0
C1521 C 0.65852 0.18828 0.74249 0.0
C1522 C 0.61136 0.17976 0.74966 0.0
C1523 C 0.6151 0.20024 0.7668 0.0
H1524 H 0.62865 0.15917 0.72354 0.0
H1525 H 0.59161 0.16896 0.74466 0.0
S1526 S 0.67957 0.24186 0.78735 0.0
N1527 N 0.68707 0.22257 0.76653 0.0
N1528 N 0.64727 0.23329 0.78929 0.0
C1529 C 0.64116 0.21382 0.77253 0.0
C1530 C 0.66279 0.20785 0.76035 0.0
C1531 C 0.38285 0.12774 0.73598 0.0
C1532 C 0.39208 0.15424 0.74108 0.0
C1533 C 0.37762 0.11015 0.7544 0.0
C1534 C 0.38155 0.1183 0.77865 0.0
H1535 H 0.37977 0.12049 0.7176 0.0
H1536 H 0.37033 0.08995 0.74966 0.0
S1537 S 0.40385 0.18575 0.80163 0.0
N1538 N 0.40387 0.18793 0.77224 0.0
N1539 N 0.39427 0.15473 0.80677 0.0
C1540 C 0.39083 0.14469 0.78405 0.0
C1541 C 0.39601 0.16267 0.7653 0.0
C1542 C 0.4165 0.83981 0.7393 0.0
C1543 C 0.41552 0.86561 0.73351 0.0
C1544 C 0.43819 0.83331 0.75312 0.0
C1545 C 0.46001 0.85228 0.76187 0.0
H1546 H 0.40054 0.82436 0.7326 0.0
H1547 H 0.43799 0.81314 0.75676 0.0
S1548 S 0.46729 0.9228 0.75203 0.0
N1549 N 0.4382 0.91034 0.73799 0.0
N1550 N 0.47899 0.89822 0.76389 0.0
C1551 C 0.45896 0.87829 0.75687 0.0
C1552 C 0.43675 0.88491 0.74275 0.0
C1553 C 0.72539 0.89912 0.70735 0.0
C1554 C 0.71644 0.88934 0.68408 0.0
C1555 C 0.74493 0.92141 0.71123 0.0
C1556 C 0.75688 0.93484 0.69206 0.0
H1557 H 0.71739 0.88938 0.72284 0.0
H1558 H 0.75024 0.92826 0.72955 0.0
S1559 S 0.74106 0.91694 0.62749 0.0
N1560 N 0.72065 0.8952 0.6414 0.0
N1561 N 0.7589 0.93588 0.64881 0.0
C1562 C 0.74848 0.92501 0.66865 0.0
C1563 C 0.72801 0.90259 0.66466 0.0
C1564 C 0.63034 0.83026 0.30549 0.0
C1565 C 0.64544 0.83356 0.32773 0.0
C1566 C 0.60463 0.81539 0.30324 0.0
C1567 C 0.59313 0.8033 0.32318 0.0
H1568 H 0.63883 0.83844 0.28955 0.0
H1569 H 0.59418 0.81248 0.28558 0.0
S1570 S 0.62329 0.80904 0.38594 0.0
N1571 N 0.64626 0.8258 0.3704 0.0
N1572 N 0.59799 0.79781 0.36632 0.0
C1573 C 0.60759 0.80761 0.34574 0.0
C1574 C 0.63374 0.82271 0.34798 0.0
C1575 C 0.75761 0.15087 0.32434 0.0
C1576 C 0.75793 0.14609 0.34904 0.0
C1577 C 0.76393 0.13301 0.30787 0.0
C1578 C 0.77122 0.10958 0.31523 0.0
H1579 H 0.75262 0.1687 0.31762 0.0
H1580 H 0.76303 0.13763 0.28906 0.0
S1581 S 0.77352 0.08654 0.37747 0.0
N1582 N 0.76474 0.11502 0.37975 0.0
N1583 N 0.77749 0.08217 0.34884 0.0
C1584 C 0.77178 0.1045 0.3398 0.0
C1585 C 0.76491 0.1225 0.35662 0.0
C1586 C 0.44603 0.1801 0.33665 0.0
C1587 C 0.42829 0.1976 0.33511 0.0
C1588 C 0.46706 0.18211 0.32187 0.0
C1589 C 0.47137 0.20193 0.30533 0.0
H1590 H 0.44339 0.16447 0.34916 0.0
H1591 H 0.4802 0.16828 0.32348 0.0
S1592 S 0.43069 0.25219 0.29344 0.0
N1593 N 0.41628 0.23494 0.31485 0.0
N1594 N 0.45644 0.23915 0.28784 0.0
C1595 C 0.45422 0.21978 0.3038 0.0
C1596 C 0.43257 0.21756 0.31854 0.0
C1597 C 0.33116 0.91555 0.33005 0.0
C1598 C 0.31796 0.89404 0.34176 0.0
C1599 C 0.318 0.93543 0.32209 0.0
C1600 C 0.29096 0.93465 0.32544 0.0
H1601 H 0.35173 0.91673 0.32644 0.0
H1602 H 0.32909 0.95137 0.31291 0.0
S1603 S 0.24762 0.88223 0.35558 0.0
N1604 N 0.27664 0.87299 0.35662 0.0
N1605 N 0.25172 0.91019 0.34197 0.0
C1606 C 0.27771 0.91329 0.33763 0.0
C1607 C 0.29122 0.89303 0.34567 0.0
C1608 C 0.75457 0.12027 0.73984 0.0
C1609 C 0.74768 0.11913 0.71492 0.0
C1610 C 0.76377 0.09975 0.75177 0.0
C1611 C 0.7663 0.07689 0.73944 0.0
H1612 H 0.75366 0.13756 0.75015 0.0
H1613 H 0.7695 0.10216 0.77079 0.0
S1614 S 0.74829 0.06304 0.67433 0.0
N1615 N 0.74229 0.0924 0.67862 0.0
N1616 N 0.75929 0.05401 0.70077 0.0
C1617 C 0.75846 0.07514 0.71462 0.0
C1618 C 0.7493 0.09614 0.70248 0.0
C1619 C 0.70291 0.91746 0.28845 0.0
C1620 C 0.71305 0.91136 0.31131 0.0
C1621 C 0.7091 0.94262 0.27985 0.0
C1622 C 0.7256 0.96251 0.29383 0.0
H1623 H 0.69049 0.90256 0.27698 0.0
H1624 H 0.70149 0.9464 0.26193 0.0
S1625 S 0.75454 0.95726 0.35593 0.0
N1626 N 0.73862 0.92771 0.34844 0.0
N1627 N 0.75014 0.97492 0.33232 0.0
C1628 C 0.73518 0.95681 0.31696 0.0
C1629 C 0.72894 0.93127 0.32568 0.0
C1630 C 0.64626 0.19702 0.32561 0.0
C1631 C 0.66378 0.21754 0.33768 0.0
C1632 C 0.62358 0.20121 0.31155 0.0
C1633 C 0.61715 0.22614 0.30896 0.0
H1634 H 0.64988 0.17748 0.32728 0.0
H1635 H 0.61085 0.18451 0.30271 0.0
S1636 S 0.65699 0.28647 0.33732 0.0
N1637 N 0.67343 0.26375 0.3464 0.0
N1638 N 0.63094 0.27167 0.32003 0.0
C1639 C 0.6347 0.24686 0.32102 0.0
C1640 C 0.65791 0.24254 0.33532 0.0
C1641 C 0.32475 0.13178 0.33849 0.0
C1642 C 0.34763 0.13659 0.3545 0.0
C1643 C 0.31099 0.10649 0.3335 0.0
C1644 C 0.3194 0.08534 0.34472 0.0
H1645 H 0.31806 0.14757 0.32913 0.0
H1646 H 0.2938 0.10334 0.32062 0.0
S1647 S 0.37771 0.08794 0.38848 0.0
N1648 N 0.37793 0.11844 0.38177 0.0
N1649 N 0.35162 0.07086 0.37279 0.0
C1650 C 0.34176 0.09001 0.3613 0.0
C1651 C 0.35603 0.11568 0.36606 0.0
C1652 C 0.43127 0.81011 0.35641 0.0
C1653 C 0.40983 0.79639 0.3681 0.0
C1654 C 0.45166 0.79806 0.34888 0.0
C1655 C 0.45172 0.77165 0.35268 0.0
H1656 H 0.43237 0.83047 0.35305 0.0
H1657 H 0.46767 0.80963 0.34017 0.0
S1658 S 0.39922 0.72637 0.38082 0.0
N1659 N 0.38948 0.75446 0.38209 0.0
N1660 N 0.42748 0.73188 0.36799 0.0
C1661 C 0.43033 0.75764 0.36425 0.0
C1662 C 0.40957 0.76995 0.37194 0.0
C1663 C 0.32523 0.97016 0.73474 0.0
C1664 C 0.33753 0.94943 0.7422 0.0
C1665 C 0.32078 0.98918 0.75123 0.0
C1666 C 0.32861 0.98821 0.7758 0.0
H1667 H 0.31928 0.97188 0.71593 0.0
H1668 H 0.31209 1.0052 0.74457 0.0
S1669 S 0.35941 0.93645 0.80463 0.0
N1670 N 0.35581 0.92818 0.77586 0.0
N1671 N 0.34769 0.96345 0.80678 0.0
C1672 C 0.34014 0.96696 0.78344 0.0
C1673 C 0.34454 0.94771 0.76669 0.0
C1674 C 0.60909 0.82054 0.70268 0.0
C1675 C 0.63559 0.83102 0.71081 0.0
C1676 C 0.58919 0.81538 0.71875 0.0
C1677 C 0.5951 0.82074 0.74344 0.0
H1678 H 0.60361 0.81672 0.68374 0.0
H1679 H 0.56898 0.80773 0.71175 0.0
S1680 S 0.66187 0.8449 0.77416 0.0
N1681 N 0.66697 0.84402 0.74547 0.0
N1682 N 0.62966 0.83495 0.77546 0.0
C1683 C 0.62161 0.83046 0.75183 0.0
C1684 C 0.64183 0.83546 0.73558 0.0
C1685 C 0.47556 0.21766 0.69987 0.0
C1686 C 0.45268 0.22612 0.70622 0.0
C1687 C 0.50083 0.22976 0.70967 0.0
C1688 C 0.50398 0.25045 0.72652 0.0
H1689 H 0.47376 0.20024 0.6889 0.0
H1690 H 0.51766 0.2213 0.70561 0.0
S1691 S 0.45015 0.2825 0.74538 0.0
N1692 N 0.43469 0.25833 0.72748 0.0
N1693 N 0.48205 0.28134 0.74593 0.0
C1694 C 0.48133 0.26071 0.73093 0.0
C1695 C 0.45567 0.2484 0.72084 0.0
C1696 C 0.74036 0.70128 0.12723 0.0
C1697 C 0.75286 0.69486 0.14905 0.0
C1698 C 0.75513 0.7099 0.10768 0.0
C1699 C 0.78297 0.71226 0.10907 0.0
H1700 H 0.71894 0.69895 0.125 0.0
H1701 H 0.74462 0.7141 0.09113 0.0
S1702 S 0.82563 0.70145 0.16313 0.0
N1703 N 0.79515 0.69429 0.17152 0.0
N1704 N 0.82253 0.70972 0.13486 0.0
C1705 C 0.79574 0.7068 0.13103 0.0
C1706 C 0.78081 0.69835 0.15095 0.0
C1707 C 0.3743 0.70998 0.06079 0.0
C1708 C 0.36829 0.70958 0.08478 0.0
C1709 C 0.35833 0.71976 0.04308 0.0
C1710 C 0.33578 0.72949 0.04879 0.0
H1711 H 0.39126 0.70235 0.05561 0.0
H1712 H 0.36343 0.71912 0.02472 0.0
S1713 S 0.31281 0.73373 0.10983 0.0
N1714 N 0.3394 0.72042 0.11387 0.0
N1715 N 0.30917 0.73893 0.08084 0.0
C1716 C 0.33015 0.72982 0.07307 0.0
C1717 C 0.34646 0.71977 0.09102 0.0
C1718 C 0.38646 0.32295 0.14464 0.0
C1719 C 0.37604 0.32889 0.16619 0.0
C1720 C 0.3699 0.31136 0.12458 0.0
C1721 C 0.3421 0.30474 0.12519 0.0
H1722 H 0.40772 0.32692 0.14337 0.0
H1723 H 0.37912 0.30649 0.10885 0.0
S1724 S 0.30451 0.3171 0.1768 0.0
N1725 N 0.33582 0.32805 0.18636 0.0
N1726 N 0.30493 0.30625 0.14909 0.0
C1727 C 0.33139 0.3113 0.14638 0.0
C1728 C 0.34822 0.32337 0.16668 0.0
C1729 C 0.78515 0.29282 0.13963 0.0
C1730 C 0.77349 0.31486 0.1387 0.0
C1731 C 0.79295 0.28234 0.11875 0.0
C1732 C 0.78977 0.29391 0.09641 0.0
H1733 H 0.78931 0.28428 0.15669 0.0
H1734 H 0.80288 0.26599 0.12035 0.0
S1735 S 0.75715 0.35019 0.08454 0.0
N1736 N 0.75693 0.34662 0.11379 0.0
N1737 N 0.77138 0.32698 0.0745 0.0
C1738 C 0.77669 0.31513 0.09524 0.0
C1739 C 0.76865 0.32563 0.11645 0.0
C1740 C 0.79865 0.32532 0.92598 0.0
C1741 C 0.77863 0.34005 0.92307 0.0
C1742 C 0.80992 0.32097 0.94882 0.0
C1743 C 0.80164 0.33127 0.96968 0.0
H1744 H 0.8058 0.31722 0.91045 0.0
H1745 H 0.82543 0.30957 0.95003 0.0
S1746 S 0.74909 0.37094 0.97119 0.0
N1747 N 0.75049 0.3647 0.9424 0.0
N1748 N 0.7715 0.35669 0.98553 0.0
C1749 C 0.78132 0.34594 0.96686 0.0
C1750 C 0.76986 0.3503 0.94349 0.0
C1751 C 0.75551 0.71606 0.94824 0.0
C1752 C 0.75179 0.72817 0.92627 0.0
C1753 C 0.76352 0.73055 0.96979 0.0
C1754 C 0.76846 0.75785 0.97033 0.0
H1755 H 0.7523 0.69517 0.9488 0.0
H1756 H 0.76663 0.72017 0.98603 0.0
S1757 S 0.7617 0.799 0.91754 0.0
N1758 N 0.7537 0.76916 0.90643 0.0
N1759 N 0.76849 0.79626 0.94658 0.0
C1760 C 0.76437 0.77014 0.94846 0.0
C1761 C 0.75613 0.75539 0.92659 0.0
C1762 C 0.32135 0.72976 0.9051 0.0
C1763 C 0.31656 0.70948 0.88802 0.0
C1764 C 0.30842 0.72767 0.92623 0.0
C1765 C 0.29021 0.70517 0.93103 0.0
H1766 H 0.33535 0.74733 0.90221 0.0
H1767 H 0.31313 0.74367 0.9391 0.0
S1768 S 0.27062 0.64679 0.89136 0.0
N1769 N 0.29247 0.66637 0.87673 0.0
N1770 N 0.26787 0.66236 0.91656 0.0
C1771 C 0.28528 0.68472 0.91394 0.0
C1772 C 0.29849 0.68693 0.89234 0.0
C1773 C 0.36491 0.30453 0.94985 0.0
C1774 C 0.39112 0.31117 0.94315 0.0
C1775 C 0.3593 0.2926 0.97179 0.0
C1776 C 0.37961 0.28659 0.98794 0.0
H1777 H 0.34851 0.30802 0.93781 0.0
H1778 H 0.33879 0.28742 0.97583 0.0
S1779 S 0.45177 0.30281 0.98049 0.0
N1780 N 0.43776 0.31292 0.95576 0.0
N1781 N 0.42714 0.29023 0.99647 0.0
C1782 C 0.4059 0.29379 0.98178 0.0
C1783 C 0.41166 0.30611 0.95959 0.0
C1784 C 0.62155 0.67483 0.23945 0.0
C1785 C 0.64484 0.69369 0.23934 0.0
C1786 C 0.60043 0.67854 0.25302 0.0
C1787 C 0.60151 0.70149 0.26673 0.0
H1788 H 0.61929 0.6574 0.22842 0.0
H1789 H 0.58269 0.66372 0.25203 0.0
S1790 S 0.65893 0.75618 0.27343 0.0
N1791 N 0.66821 0.73562 0.25483 0.0
N1792 N 0.62892 0.74261 0.28023 0.0
C1793 C 0.62509 0.72015 0.26717 0.0
C1794 C 0.64659 0.71625 0.25351 0.0
C1795 C 0.33283 0.62668 0.17463 0.0
C1796 C 0.36046 0.63198 0.18024 0.0
C1797 C 0.31681 0.60508 0.18401 0.0
C1798 C 0.32792 0.58815 0.1993 0.0
H1799 H 0.32348 0.63982 0.1637 0.0
H1800 H 0.29552 0.60211 0.17999 0.0
S1801 S 0.39964 0.59151 0.21629 0.0
N1802 N 0.39847 0.61717 0.19989 0.0
N1803 N 0.36853 0.57665 0.21726 0.0
C1804 C 0.35565 0.59259 0.20394 0.0
C1805 C 0.37187 0.61447 0.19445 0.0
C1806 C 0.46092 0.31669 0.24853 0.0
C1807 C 0.45578 0.32209 0.22407 0.0
C1808 C 0.48126 0.30321 0.25634 0.0
C1809 C 0.49751 0.29469 0.24008 0.0
H1810 H 0.44843 0.32204 0.26169 0.0
H1811 H 0.48334 0.29825 0.27502 0.0
S1812 S 0.49437 0.30563 0.17468 0.0
N1813 N 0.47053 0.31933 0.1841 0.0
N1814 N 0.50793 0.29364 0.19866 0.0
C1815 C 0.49322 0.30068 0.21583 0.0
C1816 C 0.47266 0.31444 0.20787 0.0
C1817 C 0.7121 0.41742 0.22291 0.0
C1818 C 0.72793 0.39958 0.23054 0.0
C1819 C 0.71477 0.44149 0.23478 0.0
C1820 C 0.7331 0.44843 0.25491 0.0
H1821 H 0.69833 0.41314 0.20711 0.0
H1822 H 0.7031 0.45515 0.22753 0.0
S1823 S 0.77641 0.40639 0.28368 0.0
N1824 N 0.7606 0.38903 0.26042 0.0
N1825 N 0.76538 0.4339 0.28324 0.0
C1826 C 0.74771 0.42982 0.26362 0.0
C1827 C 0.74524 0.40552 0.25125 0.0
C1828 C 0.65522 0.33959 0.8206 0.0
C1829 C 0.66701 0.33875 0.84407 0.0
C1830 C 0.63095 0.32351 0.8131 0.0
C1831 C 0.61757 0.30594 0.82879 0.0
H1832 H 0.66515 0.35236 0.80773 0.0
H1833 H 0.62297 0.32443 0.79472 0.0
S1834 S 0.63888 0.29816 0.89284 0.0
N1835 N 0.66264 0.32035 0.8834 0.0
N1836 N 0.61719 0.29 0.86946 0.0
C1837 C 0.62883 0.30548 0.85254 0.0
C1838 C 0.65351 0.32187 0.86013 0.0
C1839 C 0.76581 0.63636 0.88119 0.0
C1840 C 0.76593 0.65854 0.8674 0.0
C1841 C 0.7756 0.61487 0.87276 0.0
C1842 C 0.78642 0.61473 0.85033 0.0
H1843 H 0.75687 0.63507 0.89812 0.0
H1844 H 0.77389 0.59787 0.88365 0.0
S1845 S 0.79368 0.66919 0.80833 0.0
N1846 N 0.77937 0.67973 0.83088 0.0
N1847 N 0.79812 0.63983 0.81528 0.0
C1848 C 0.788 0.63743 0.837 0.0
C1849 C 0.77765 0.65913 0.84543 0.0
C1850 C 0.42884 0.72155 0.79498 0.0
C1851 C 0.42635 0.70131 0.81131 0.0
C1852 C 0.45377 0.73387 0.78852 0.0
C1853 C 0.47732 0.72663 0.7983 0.0
H1854 H 0.41138 0.72842 0.78765 0.0
H1855 H 0.45456 0.75003 0.77664 0.0
S1856 S 0.48138 0.67304 0.84018 0.0
N1857 N 0.44935 0.67336 0.83588 0.0
N1858 N 0.4962 0.69627 0.82364 0.0
C1859 C 0.47497 0.70539 0.8136 0.0
C1860 C 0.44952 0.69281 0.82012 0.0
C1861 C 0.39642 0.43101 0.84 0.0
C1862 C 0.37799 0.40768 0.84044 0.0
C1863 C 0.39198 0.45084 0.82428 0.0
C1864 C 0.3687 0.44833 0.80862 0.0
H1865 H 0.414 0.43431 0.85243 0.0
H1866 H 0.4064 0.4687 0.82509 0.0
S1867 S 0.31517 0.39015 0.80173 0.0
N1868 N 0.33627 0.38265 0.82307 0.0
N1869 N 0.32794 0.41961 0.79362 0.0
C1870 C 0.35055 0.42469 0.80846 0.0
C1871 C 0.35519 0.40449 0.82433 0.0
C1872 C 0.76809 0.62991 0.21579 0.0
C1873 C 0.74045 0.62927 0.21266 0.0
C1874 C 0.77851 0.60803 0.22256 0.0
C1875 C 0.76187 0.58464 0.22723 0.0
H1876 H 0.78192 0.64733 0.21213 0.0
H1877 H 0.79982 0.60932 0.22392 0.0
S1878 S 0.68833 0.57267 0.2235 0.0
N1879 N 0.6967 0.60311 0.21576 0.0
N1880 N 0.71646 0.5623 0.22957 0.0
C1881 C 0.73431 0.58396 0.22557 0.0
C1882 C 0.72357 0.60619 0.21814 0.0
C1883 C 0.71849 0.43021 0.81947 0.0
C1884 C 0.7284 0.42417 0.84247 0.0
C1885 C 0.72369 0.45552 0.8112 0.0
C1886 C 0.73922 0.47565 0.8255 0.0
H1887 H 0.70713 0.41515 0.8075 0.0
H1888 H 0.71627 0.45923 0.7932 0.0
S1889 S 0.76789 0.4708 0.88769 0.0
N1890 N 0.7529 0.44099 0.88 0.0
N1891 N 0.76316 0.48843 0.86411 0.0
C1892 C 0.74881 0.47009 0.84864 0.0
C1893 C 0.74331 0.44439 0.85719 0.0
C1894 C 0.65503 0.75612 0.82822 0.0
C1895 C 0.65741 0.7416 0.84891 0.0
C1896 C 0.63339 0.76871 0.82357 0.0
C1897 C 0.61325 0.76733 0.83946 0.0
H1898 H 0.66964 0.75718 0.81516 0.0
H1899 H 0.63225 0.77941 0.80725 0.0
S1900 S 0.61036 0.73134 0.89615 0.0
N1901 N 0.63807 0.72644 0.88542 0.0
N1902 N 0.59738 0.74995 0.87685 0.0
C1903 C 0.61578 0.7532 0.8605 0.0
C1904 C 0.63783 0.74033 0.86515 0.0
C1905 C 0.3301 0.61727 0.81925 0.0
C1906 C 0.35536 0.6269 0.8307 0.0
C1907 C 0.32089 0.59063 0.81575 0.0
C1908 C 0.33659 0.57262 0.82365 0.0
H1909 H 0.31795 0.63045 0.81181 0.0
H1910 H 0.30196 0.58427 0.80557 0.0
S1911 S 0.40225 0.58832 0.85866 0.0
N1912 N 0.39444 0.61672 0.85273 0.0
N1913 N 0.37722 0.56659 0.84652 0.0
C1914 C 0.36097 0.5821 0.83697 0.0
C1915 C 0.37039 0.60925 0.84031 0.0
C1916 C 0.46458 0.30798 0.88346 0.0
C1917 C 0.44191 0.31351 0.8702 0.0
C1918 C 0.48254 0.29511 0.87296 0.0
C1919 C 0.479 0.2876 0.84861 0.0
H1920 H 0.46824 0.31317 0.90236 0.0
H1921 H 0.49932 0.29086 0.88404 0.0
S1922 S 0.42366 0.29787 0.80557 0.0
N1923 N 0.4173 0.31059 0.83108 0.0
N1924 N 0.45163 0.28711 0.81124 0.0
C1925 C 0.45712 0.29383 0.83482 0.0
C1926 C 0.4385 0.30666 0.84561 0.0
C1927 C 0.37179 0.44134 0.25934 0.0
C1928 C 0.36828 0.42554 0.2384 0.0
C1929 C 0.35604 0.46021 0.26263 0.0
C1930 C 0.33605 0.464 0.24508 0.0
H1931 H 0.38685 0.43906 0.27338 0.0
H1932 H 0.35935 0.47166 0.27914 0.0
S1933 S 0.31983 0.42785 0.1865 0.0
N1934 N 0.34405 0.41519 0.19973 0.0
N1935 N 0.31447 0.45026 0.2054 0.0
C1936 C 0.3327 0.4483 0.22387 0.0
C1937 C 0.34878 0.4292 0.22065 0.0
C1938 C 0.66469 0.29788 0.18726 0.0
C1939 C 0.68004 0.31093 0.20711 0.0
C1940 C 0.64102 0.28036 0.19024 0.0
C1941 C 0.63194 0.27524 0.21313 0.0
H1942 H 0.67038 0.30208 0.16931 0.0
H1943 H 0.62927 0.27134 0.17446 0.0
S1944 S 0.66682 0.30333 0.27099 0.0
N1945 N 0.68619 0.31593 0.2504 0.0
N1946 N 0.64137 0.28452 0.25614 0.0
C1947 C 0.64798 0.28749 0.23319 0.0
C1948 C 0.67211 0.30493 0.23011 0.0
C1949 C 0.45575 0.71589 0.20233 0.0
C1950 C 0.42807 0.71047 0.20392 0.0
C1951 C 0.47315 0.72613 0.22212 0.0
C1952 C 0.46337 0.73099 0.24411 0.0
H1953 H 0.4641 0.71068 0.18622 0.0
H1954 H 0.49434 0.7285 0.2207 0.0
S1955 S 0.39275 0.7249 0.25621 0.0
N1956 N 0.39179 0.71462 0.22813 0.0
N1957 N 0.42452 0.73297 0.26549 0.0
C1958 C 0.43582 0.72754 0.24536 0.0
C1959 C 0.41815 0.71751 0.22521 0.0
loop_
_geom_bond_atom_site_label_1
_geom_bond_atom_site_label_2
_geom_bond_distance
_geom_bond_site_symmetry_2
_ccdc_geom_bond_type
H0 C3 0.929 . S
H1 C6 0.929 . S
H2 C8 0.930 . S
C3 H0 0.929 . S
C3 C4 1.398 . S
C3 C5 1.396 . S
C4 C3 1.398 . S
C4 C8 1.407 . S
C5 C3 1.396 . S
C5 C6 1.394 . S
C6 H1 0.929 . S
C6 C5 1.394 . S
C6 C7 1.382 . S
C7 C6 1.382 . S
C7 C8 1.392 . S
C7 N9 1.420 . S
C8 H2 0.930 . S
C8 C4 1.407 . S
C8 C7 1.392 . S
N9 C7 1.420 . S
N9 C10 1.244 . S
C10 N9 1.244 . S
H11 C14 0.929 . S
H12 C17 0.929 . S
H13 C19 0.930 . S
C14 H11 0.929 . S
C14 C15 1.398 . S
C14 C16 1.396 . S
C15 C14 1.398 . S
C15 C19 1.407 . S
C16 C14 1.396 . S
C16 C17 1.394 . S
C17 H12 0.929 . S
C17 C16 1.394 . S
C17 C18 1.382 . S
C18 C17 1.382 . S
C18 C19 1.392 . S
C18 N20 1.420 . S
C19 H13 0.930 . S
C19 C15 1.407 . S
C19 C18 1.392 . S
N20 C18 1.420 . S
N20 C21 1.244 . S
C21 N20 1.244 . S
H22 C25 0.929 . S
H23 C28 0.929 . S
H24 C30 0.930 . S
C25 H22 0.929 . S
C25 C26 1.398 . S
C25 C27 1.396 . S
C26 C25 1.398 . S
C26 C30 1.407 . S
C27 C25 1.396 . S
C27 C28 1.394 . S
C28 H23 0.929 . S
C28 C27 1.394 . S
C28 C29 1.382 . S
C29 C28 1.382 . S
C29 C30 1.392 . S
C29 N31 1.420 . S
C30 H24 0.930 . S
C30 C26 1.407 . S
C30 C29 1.392 . S
N31 C29 1.420 . S
N31 C32 1.244 . S
C32 N31 1.244 . S
H33 C36 0.929 . S
H34 C39 0.929 . S
H35 C41 0.930 . S
C36 H33 0.929 . S
C36 C37 1.398 . S
C36 C38 1.396 . S
C37 C36 1.398 . S
C37 C41 1.407 . S
C38 C36 1.396 . S
C38 C39 1.394 . S
C39 H34 0.929 . S
C39 C38 1.394 . S
C39 C40 1.382 . S
C40 C39 1.382 . S
C40 C41 1.392 . S
C40 N42 1.420 . S
C41 H35 0.930 . S
C41 C37 1.407 . S
C41 C40 1.392 . S
N42 C40 1.420 . S
N42 C43 1.244 . S
C43 N42 1.244 . S
H44 C47 0.929 . S
H45 C50 0.929 . S
H46 C52 0.930 . S
C47 H44 0.929 . S
C47 C48 1.398 . S
C47 C49 1.396 . S
C48 C47 1.398 . S
C48 C52 1.407 . S
C49 C47 1.396 . S
C49 C50 1.394 . S
C50 H45 0.929 . S
C50 C49 1.394 . S
C50 C51 1.382 . S
C51 C50 1.382 . S
C51 C52 1.392 . S
C51 N53 1.420 . S
C52 H46 0.930 . S
C52 C48 1.407 . S
C52 C51 1.392 . S
N53 C51 1.420 . S
N53 C54 1.244 . S
C54 N53 1.244 . S
H55 C58 0.929 . S
H56 C61 0.929 . S
H57 C63 0.930 . S
C58 H55 0.929 . S
C58 C59 1.398 . S
C58 C60 1.396 . S
C59 C58 1.398 . S
C59 C63 1.407 . S
C60 C58 1.396 . S
C60 C61 1.394 . S
C61 H56 0.929 . S
C61 C60 1.394 . S
C61 C62 1.382 . S
C62 C61 1.382 . S
C62 C63 1.392 . S
C62 N64 1.420 . S
C63 H57 0.930 . S
C63 C59 1.407 . S
C63 C62 1.392 . S
N64 C62 1.420 . S
N64 C65 1.244 . S
C65 N64 1.244 . S
H66 C69 0.929 . S
H67 C72 0.929 . S
H68 C74 0.930 . S
C69 H66 0.929 . S
C69 C70 1.398 . S
C69 C71 1.396 . S
C70 C69 1.398 . S
C70 C74 1.407 . S
C71 C69 1.396 . S
C71 C72 1.394 . S
C72 H67 0.929 . S
C72 C71 1.394 . S
C72 C73 1.382 . S
C73 C72 1.382 . S
C73 C74 1.392 . S
C73 N75 1.420 . S
C74 H68 0.930 . S
C74 C70 1.407 . S
C74 C73 1.392 . S
N75 C73 1.420 . S
N75 C76 1.244 . S
C76 N75 1.244 . S
H77 C80 0.929 . S
H78 C83 0.929 . S
H79 C85 0.930 . S
C80 H77 0.929 . S
C80 C81 1.398 . S
C80 C82 1.396 . S
C81 C80 1.398 . S
C81 C85 1.407 . S
C82 C80 1.396 . S
C82 C83 1.394 . S
C83 H78 0.929 . S
C83 C82 1.394 . S
C83 C84 1.382 . S
C84 C83 1.382 . S
C84 C85 1.392 . S
C84 N86 1.420 . S
C85 H79 0.930 . S
C85 C81 1.407 . S
C85 C84 1.392 . S
N86 C84 1.420 . S
N86 C87 1.244 . S
C87 N86 1.244 . S
H88 C91 0.929 . S
H89 C94 0.929 . S
H90 C96 0.930 . S
C91 H88 0.929 . S
C91 C92 1.398 . S
C91 C93 1.396 . S
C92 C91 1.398 . S
C92 C96 1.407 . S
C93 C91 1.396 . S
C93 C94 1.394 . S
C94 H89 0.929 . S
C94 C93 1.394 . S
C94 C95 1.382 . S
C95 C94 1.382 . S
C95 C96 1.392 . S
C95 N97 1.420 . S
C96 H90 0.930 . S
C96 C92 1.407 . S
C96 C95 1.392 . S
N97 C95 1.420 . S
N97 C98 1.244 . S
C98 N97 1.244 . S
H99 C102 0.929 . S
H100 C105 0.929 . S
H101 C107 0.930 . S
C102 H99 0.929 . S
C102 C103 1.398 . S
C102 C104 1.396 . S
C103 C102 1.398 . S
C103 C107 1.407 . S
C104 C102 1.396 . S
C104 C105 1.394 . S
C105 H100 0.929 . S
C105 C104 1.394 . S
C105 C106 1.382 . S
C106 C105 1.382 . S
C106 C107 1.392 . S
C106 N108 1.420 . S
C107 H101 0.930 . S
C107 C103 1.407 . S
C107 C106 1.392 . S
N108 C106 1.420 . S
N108 C109 1.244 . S
C109 N108 1.244 . S
H110 C113 0.929 . S
H111 C116 0.929 . S
H112 C118 0.930 . S
C113 H110 0.929 . S
C113 C114 1.398 . S
C113 C115 1.396 . S
C114 C113 1.398 . S
C114 C118 1.407 . S
C115 C113 1.396 . S
C115 C116 1.394 . S
C116 H111 0.929 . S
C116 C115 1.394 . S
C116 C117 1.382 . S
C117 C116 1.382 . S
C117 C118 1.392 . S
C117 N119 1.420 . S
C118 H112 0.930 . S
C118 C114 1.407 . S
C118 C117 1.392 . S
N119 C117 1.420 . S
N119 C120 1.244 . S
C120 N119 1.244 . S
H121 C124 0.929 . S
H122 C127 0.929 . S
H123 C129 0.930 . S
C124 H121 0.929 . S
C124 C125 1.398 . S
C124 C126 1.396 . S
C125 C124 1.398 . S
C125 C129 1.407 . S
C126 C124 1.396 . S
C126 C127 1.394 . S
C127 H122 0.929 . S
C127 C126 1.394 . S
C127 C128 1.382 . S
C128 C127 1.382 . S
C128 C129 1.392 . S
C128 N130 1.420 . S
C129 H123 0.930 . S
C129 C125 1.407 . S
C129 C128 1.392 . S
N130 C128 1.420 . S
N130 C131 1.244 . S
C131 N130 1.244 . S
H132 C135 0.929 . S
H133 C138 0.929 . S
H134 C140 0.930 . S
C135 H132 0.929 . S
C135 C136 1.398 . S
C135 C137 1.396 . S
C136 C135 1.398 . S
C136 C140 1.407 . S
C137 C135 1.396 . S
C137 C138 1.394 . S
C138 H133 0.929 . S
C138 C137 1.394 . S
C138 C139 1.382 . S
C139 C138 1.382 . S
C139 C140 1.392 . S
C139 N141 1.420 . S
C140 H134 0.930 . S
C140 C136 1.407 . S
C140 C139 1.392 . S
N141 C139 1.420 . S
N141 C142 1.244 . S
C142 N141 1.244 . S
H143 C146 0.929 . S
H144 C149 0.929 . S
H145 C151 0.930 . S
C146 H143 0.929 . S
C146 C147 1.398 . S
C146 C148 1.396 . S
C147 C146 1.398 . S
C147 C151 1.407 . S
C148 C146 1.396 . S
C148 C149 1.394 . S
C149 H144 0.929 . S
C149 C148 1.394 . S
C149 C150 1.382 . S
C150 C149 1.382 . S
C150 C151 1.392 . S
C150 N152 1.420 . S
C151 H145 0.930 . S
C151 C147 1.407 . S
C151 C150 1.392 . S
N152 C150 1.420 . S
N152 C153 1.244 . S
C153 N152 1.244 . S
H154 C157 0.929 . S
H155 C160 0.929 . S
H156 C162 0.930 . S
C157 H154 0.929 . S
C157 C158 1.398 . S
C157 C159 1.396 . S
C158 C157 1.398 . S
C158 C162 1.407 . S
C159 C157 1.396 . S
C159 C160 1.394 . S
C160 H155 0.929 . S
C160 C159 1.394 . S
C160 C161 1.382 . S
C161 C160 1.382 . S
C161 C162 1.392 . S
C161 N163 1.420 . S
C162 H156 0.930 . S
C162 C158 1.407 . S
C162 C161 1.392 . S
N163 C161 1.420 . S
N163 C164 1.244 . S
C164 N163 1.244 . S
H165 C168 0.929 . S
H166 C171 0.929 . S
H167 C173 0.930 . S
C168 H165 0.929 . S
C168 C169 1.398 . S
C168 C170 1.396 . S
C169 C168 1.398 . S
C169 C173 1.407 . S
C170 C168 1.396 . S
C170 C171 1.394 . S
C171 H166 0.929 . S
C171 C170 1.394 . S
C171 C172 1.382 . S
C172 C171 1.382 . S
C172 C173 1.392 . S
C172 N174 1.420 . S
C173 H167 0.930 . S
C173 C169 1.407 . S
C173 C172 1.392 . S
N174 C172 1.420 . S
N174 C175 1.244 . S
C175 N174 1.244 . S
H176 C179 0.929 . S
H177 C182 0.929 . S
H178 C184 0.930 . S
C179 H176 0.929 . S
C179 C180 1.398 . S
C179 C181 1.396 . S
C180 C179 1.398 . S
C180 C184 1.407 . S
C181 C179 1.396 . S
C181 C182 1.394 . S
C182 H177 0.929 . S
C182 C181 1.394 . S
C182 C183 1.382 . S
C183 C182 1.382 . S
C183 C184 1.392 . S
C183 N185 1.420 . S
C184 H178 0.930 . S
C184 C180 1.407 . S
C184 C183 1.392 . S
N185 C183 1.420 . S
N185 C186 1.244 . S
C186 N185 1.244 . S
H187 C190 0.929 . S
H188 C193 0.929 . S
H189 C195 0.930 . S
C190 H187 0.929 . S
C190 C191 1.398 . S
C190 C192 1.396 . S
C191 C190 1.398 . S
C191 C195 1.407 . S
C192 C190 1.396 . S
C192 C193 1.394 . S
C193 H188 0.929 . S
C193 C192 1.394 . S
C193 C194 1.382 . S
C194 C193 1.382 . S
C194 C195 1.392 . S
C194 N196 1.420 . S
C195 H189 0.930 . S
C195 C191 1.407 . S
C195 C194 1.392 . S
N196 C194 1.420 . S
N196 C197 1.244 . S
C197 N196 1.244 . S
H198 C201 0.929 . S
H199 C204 0.929 . S
H200 C206 0.930 . S
C201 H198 0.929 . S
C201 C202 1.398 . S
C201 C203 1.396 . S
C202 C201 1.398 . S
C202 C206 1.407 . S
C203 C201 1.396 . S
C203 C204 1.394 . S
C204 H199 0.929 . S
C204 C203 1.394 . S
C204 C205 1.382 . S
C205 C204 1.382 . S
C205 C206 1.392 . S
C205 N207 1.420 . S
C206 H200 0.930 . S
C206 C202 1.407 . S
C206 C205 1.392 . S
N207 C205 1.420 . S
N207 C208 1.244 . S
C208 N207 1.244 . S
H209 C212 0.929 . S
H210 C215 0.929 . S
H211 C217 0.930 . S
C212 H209 0.929 . S
C212 C213 1.398 . S
C212 C214 1.396 . S
C213 C212 1.398 . S
C213 C217 1.407 . S
C214 C212 1.396 . S
C214 C215 1.394 . S
C215 H210 0.929 . S
C215 C214 1.394 . S
C215 C216 1.382 . S
C216 C215 1.382 . S
C216 C217 1.392 . S
C216 N218 1.420 . S
C217 H211 0.930 . S
C217 C213 1.407 . S
C217 C216 1.392 . S
N218 C216 1.420 . S
N218 C219 1.244 . S
C219 N218 1.244 . S
H220 C223 0.929 . S
H221 C226 0.929 . S
H222 C228 0.930 . S
C223 H220 0.929 . S
C223 C224 1.398 . S
C223 C225 1.396 . S
C224 C223 1.398 . S
C224 C228 1.407 . S
C225 C223 1.396 . S
C225 C226 1.394 . S
C226 H221 0.929 . S
C226 C225 1.394 . S
C226 C227 1.382 . S
C227 C226 1.382 . S
C227 C228 1.392 . S
C227 N229 1.420 . S
C228 H222 0.930 . S
C228 C224 1.407 . S
C228 C227 1.392 . S
N229 C227 1.420 . S
N229 C230 1.244 . S
C230 N229 1.244 . S
H231 C234 0.929 . S
H232 C237 0.929 . S
H233 C239 0.930 . S
C234 H231 0.929 . S
C234 C235 1.398 . S
C234 C236 1.396 . S
C235 C234 1.398 . S
C235 C239 1.407 . S
C236 C234 1.396 . S
C236 C237 1.394 . S
C237 H232 0.929 . S
C237 C236 1.394 . S
C237 C238 1.382 . S
C238 C237 1.382 . S
C238 C239 1.392 . S
C238 N240 1.420 . S
C239 H233 0.930 . S
C239 C235 1.407 . S
C239 C238 1.392 . S
N240 C238 1.420 . S
N240 C241 1.244 . S
C241 N240 1.244 . S
H242 C245 0.929 . S
H243 C248 0.929 . S
H244 C250 0.930 . S
C245 H242 0.929 . S
C245 C246 1.398 . S
C245 C247 1.396 . S
C246 C245 1.398 . S
C246 C250 1.407 . S
C247 C245 1.396 . S
C247 C248 1.394 . S
C248 H243 0.929 . S
C248 C247 1.394 . S
C248 C249 1.382 . S
C249 C248 1.382 . S
C249 C250 1.392 . S
C249 N251 1.420 . S
C250 H244 0.930 . S
C250 C246 1.407 . S
C250 C249 1.392 . S
N251 C249 1.420 . S
N251 C252 1.244 . S
C252 N251 1.244 . S
H253 C256 0.929 . S
H254 C259 0.929 . S
H255 C261 0.930 . S
C256 H253 0.929 . S
C256 C257 1.398 . S
C256 C258 1.396 . S
C257 C256 1.398 . S
C257 C261 1.407 . S
C258 C256 1.396 . S
C258 C259 1.394 . S
C259 H254 0.929 . S
C259 C258 1.394 . S
C259 C260 1.382 . S
C260 C259 1.382 . S
C260 C261 1.392 . S
C260 N262 1.420 . S
C261 H255 0.930 . S
C261 C257 1.407 . S
C261 C260 1.392 . S
N262 C260 1.420 . S
N262 C263 1.244 . S
C263 N262 1.244 . S
H264 C267 0.929 . S
H265 C270 0.929 . S
H266 C272 0.930 . S
C267 H264 0.929 . S
C267 C268 1.398 . S
C267 C269 1.396 . S
C268 C267 1.398 . S
C268 C272 1.407 . S
C269 C267 1.396 . S
C269 C270 1.394 . S
C270 H265 0.929 . S
C270 C269 1.394 . S
C270 C271 1.382 . S
C271 C270 1.382 . S
C271 C272 1.392 . S
C271 N273 1.420 . S
C272 H266 0.930 . S
C272 C268 1.407 . S
C272 C271 1.392 . S
N273 C271 1.420 . S
N273 C274 1.244 . S
C274 N273 1.244 . S
H275 C278 0.929 . S
H276 C281 0.929 . S
H277 C283 0.930 . S
C278 H275 0.929 . S
C278 C279 1.398 . S
C278 C280 1.396 . S
C279 C278 1.398 . S
C279 C283 1.407 . S
C280 C278 1.396 . S
C280 C281 1.394 . S
C281 H276 0.929 . S
C281 C280 1.394 . S
C281 C282 1.382 . S
C282 C281 1.382 . S
C282 C283 1.392 . S
C282 N284 1.420 . S
C283 H277 0.930 . S
C283 C279 1.407 . S
C283 C282 1.392 . S
N284 C282 1.420 . S
N284 C285 1.244 . S
C285 N284 1.244 . S
H286 C289 0.929 . S
H287 C292 0.929 . S
H288 C294 0.930 . S
C289 H286 0.929 . S
C289 C290 1.398 . S
C289 C291 1.396 . S
C290 C289 1.398 . S
C290 C294 1.407 . S
C291 C289 1.396 . S
C291 C292 1.394 . S
C292 H287 0.929 . S
C292 C291 1.394 . S
C292 C293 1.382 . S
C293 C292 1.382 . S
C293 C294 1.392 . S
C293 N295 1.420 . S
C294 H288 0.930 . S
C294 C290 1.407 . S
C294 C293 1.392 . S
N295 C293 1.420 . S
N295 C296 1.244 . S
C296 N295 1.244 . S
H297 C300 0.929 . S
H298 C303 0.929 . S
H299 C305 0.930 . S
C300 H297 0.929 . S
C300 C301 1.398 . S
C300 C302 1.396 . S
C301 C300 1.398 . S
C301 C305 1.407 . S
C302 C300 1.396 . S
C302 C303 1.394 . S
C303 H298 0.929 . S
C303 C302 1.394 . S
C303 C304 1.382 . S
C304 C303 1.382 . S
C304 C305 1.392 . S
C304 N306 1.420 . S
C305 H299 0.930 . S
C305 C301 1.407 . S
C305 C304 1.392 . S
N306 C304 1.420 . S
N306 C307 1.244 . S
C307 N306 1.244 . S
H308 C311 0.929 . S
H309 C314 0.929 . S
H310 C316 0.930 . S
C311 H308 0.929 . S
C311 C312 1.398 . S
C311 C313 1.396 . S
C312 C311 1.398 . S
C312 C316 1.407 . S
C313 C311 1.396 . S
C313 C314 1.394 . S
C314 H309 0.929 . S
C314 C313 1.394 . S
C314 C315 1.382 . S
C315 C314 1.382 . S
C315 C316 1.392 . S
C315 N317 1.420 . S
C316 H310 0.930 . S
C316 C312 1.407 . S
C316 C315 1.392 . S
N317 C315 1.420 . S
N317 C318 1.244 . S
C318 N317 1.244 . S
H319 C322 0.929 . S
H320 C325 0.929 . S
H321 C327 0.930 . S
C322 H319 0.929 . S
C322 C323 1.398 . S
C322 C324 1.396 . S
C323 C322 1.398 . S
C323 C327 1.407 . S
C324 C322 1.396 . S
C324 C325 1.394 . S
C325 H320 0.929 . S
C325 C324 1.394 . S
C325 C326 1.382 . S
C326 C325 1.382 . S
C326 C327 1.392 . S
C326 N328 1.420 . S
C327 H321 0.930 . S
C327 C323 1.407 . S
C327 C326 1.392 . S
N328 C326 1.420 . S
N328 C329 1.244 . S
C329 N328 1.244 . S
H330 C333 0.929 . S
H331 C336 0.929 . S
H332 C338 0.930 . S
C333 H330 0.929 . S
C333 C334 1.398 . S
C333 C335 1.396 . S
C334 C333 1.398 . S
C334 C338 1.407 . S
C335 C333 1.396 . S
C335 C336 1.394 . S
C336 H331 0.929 . S
C336 C335 1.394 . S
C336 C337 1.382 . S
C337 C336 1.382 . S
C337 C338 1.392 . S
C337 N339 1.420 . S
C338 H332 0.930 . S
C338 C334 1.407 . S
C338 C337 1.392 . S
N339 C337 1.420 . S
N339 C340 1.244 . S
C340 N339 1.244 . S
H341 C344 0.929 . S
H342 C347 0.929 . S
H343 C349 0.930 . S
C344 H341 0.929 . S
C344 C345 1.398 . S
C344 C346 1.396 . S
C345 C344 1.398 . S
C345 C349 1.407 . S
C346 C344 1.396 . S
C346 C347 1.394 . S
C347 H342 0.929 . S
C347 C346 1.394 . S
C347 C348 1.382 . S
C348 C347 1.382 . S
C348 C349 1.392 . S
C348 N350 1.420 . S
C349 H343 0.930 . S
C349 C345 1.407 . S
C349 C348 1.392 . S
N350 C348 1.420 . S
N350 C351 1.244 . S
C351 N350 1.244 . S
Cu352 N353 1.999 . S
Cu352 O358 1.974 1_554 S
Cu352 N363 1.985 . S
Cu352 O372 1.959 . S
N353 Cu352 1.999 . S
N353 C355 1.263 1_554 S
N353 C357 1.389 . S
N354 C355 1.358 . S
N354 C356 1.400 . S
C355 N353 1.263 1_556 S
C355 N354 1.358 . S
C355 H361 0.930 . S
C356 N354 1.400 . S
C356 C357 1.351 1_556 S
C356 H373 0.930 . S
C357 N353 1.389 . S
C357 C356 1.351 1_554 S
C357 H362 0.930 . S
O358 Cu352 1.974 1_556 S
O358 C368 1.282 . S
C359 O360 1.261 . S
C359 O372 1.251 . S
O360 C359 1.261 . S
H361 C355 0.930 . S
H362 C357 0.930 . S
N363 Cu352 1.985 . S
N363 C365 1.335 . S
N363 C366 1.390 . S
N364 C365 1.345 . S
N364 C367 1.336 . S
C365 N363 1.335 . S
C365 N364 1.345 . S
C365 H370 0.930 . S
C366 N363 1.390 . S
C366 C367 1.346 . S
C366 H371 0.930 . S
C367 N364 1.336 . S
C367 C366 1.346 . S
C367 H374 0.929 . S
C368 O358 1.282 . S
C368 O369 1.216 . S
O369 C368 1.216 . S
H370 C365 0.930 . S
H371 C366 0.930 . S
O372 Cu352 1.959 . S
O372 C359 1.251 . S
H373 C356 0.930 . S
H374 C367 0.929 . S
Cu375 N376 1.999 . S
Cu375 O381 1.974 . S
Cu375 N386 1.985 . S
Cu375 O395 1.959 1_554 S
N376 Cu375 1.999 . S
N376 C378 1.263 . S
N376 C380 1.389 . S
N377 C378 1.358 . S
N377 C379 1.400 . S
C378 N376 1.263 . S
C378 N377 1.358 . S
C378 H384 0.930 . S
C379 N377 1.400 . S
C379 C380 1.351 . S
C379 H396 0.930 . S
C380 N376 1.389 . S
C380 C379 1.351 . S
C380 H385 0.930 . S
O381 Cu375 1.974 . S
O381 C391 1.282 . S
C382 O383 1.264 1_556 S
C382 O395 1.251 . S
O383 C382 1.264 1_554 S
H384 C378 0.930 . S
H385 C380 0.930 . S
N386 Cu375 1.985 . S
N386 C388 1.335 1_554 S
N386 C389 1.390 . S
N387 C388 1.345 . S
N387 C390 1.336 . S
C388 N386 1.335 1_556 S
C388 N387 1.345 . S
C388 H393 0.930 . S
C389 N386 1.390 . S
C389 C390 1.346 1_554 S
C389 H394 0.930 . S
C390 N387 1.336 . S
C390 C389 1.346 1_556 S
C390 H397 0.929 . S
C391 O381 1.282 . S
C391 O392 1.216 . S
O392 C391 1.216 . S
H393 C388 0.930 . S
H394 C389 0.930 . S
O395 Cu375 1.959 1_556 S
O395 C382 1.251 . S
H396 C379 0.930 . S
H397 C390 0.929 . S
Cu398 N399 1.999 1_554 S
Cu398 O404 1.974 1_554 S
Cu398 N409 1.985 . S
Cu398 O418 1.959 . S
N399 Cu398 1.999 1_556 S
N399 C401 1.263 . S
N399 C403 1.389 . S
N400 C401 1.358 . S
N400 C402 1.400 . S
C401 N399 1.263 . S
C401 N400 1.358 . S
C401 H407 0.930 . S
C402 N400 1.400 . S
C402 C403 1.351 . S
C402 H419 0.930 . S
C403 N399 1.389 . S
C403 C402 1.351 . S
C403 H408 0.930 1_556 S
O404 Cu398 1.974 1_556 S
O404 C414 1.282 . S
C405 O406 1.261 . S
C405 O418 1.251 . S
O406 C405 1.261 . S
H407 C401 0.930 . S
H408 C403 0.930 1_554 S
N409 Cu398 1.985 . S
N409 C411 1.335 . S
N409 C412 1.390 . S
N410 C411 1.345 . S
N410 C413 1.336 . S
C411 N409 1.335 . S
C411 N410 1.345 . S
C411 H416 0.930 . S
C412 N409 1.390 . S
C412 C413 1.346 . S
C412 H417 0.930 . S
C413 N410 1.336 . S
C413 C412 1.346 . S
C413 H420 0.929 . S
C414 O404 1.282 . S
C414 O415 1.216 . S
O415 C414 1.216 . S
H416 C411 0.930 . S
H417 C412 0.930 . S
O418 Cu398 1.959 . S
O418 C405 1.251 . S
H419 C402 0.930 . S
H420 C413 0.929 . S
Cu421 N422 1.999 . S
Cu421 O427 1.974 . S
Cu421 N432 1.985 1_554 S
Cu421 O441 1.959 1_554 S
N422 Cu421 1.999 . S
N422 C424 1.263 . S
N422 C426 1.389 . S
N423 C424 1.358 . S
N423 C425 1.400 . S
C424 N422 1.263 . S
C424 N423 1.358 . S
C424 H430 0.930 . S
C425 N423 1.400 . S
C425 C426 1.351 . S
C425 H442 0.930 . S
C426 N422 1.389 . S
C426 C425 1.351 . S
C426 H431 0.930 . S
O427 Cu421 1.974 . S
O427 C437 1.282 . S
C428 O429 1.261 . S
C428 O441 1.251 . S
O429 C428 1.261 . S
H430 C424 0.930 . S
H431 C426 0.930 . S
N432 Cu421 1.985 1_556 S
N432 C434 1.335 . S
N432 C435 1.390 . S
N433 C434 1.345 . S
N433 C436 1.336 . S
C434 N432 1.335 . S
C434 N433 1.345 . S
C434 H439 0.930 . S
C435 N432 1.390 . S
C435 C436 1.346 . S
C435 H440 0.930 1_556 S
C436 N433 1.336 . S
C436 C435 1.346 . S
C436 H443 0.929 . S
C437 O427 1.282 . S
C437 O438 1.216 . S
O438 C437 1.216 . S
H439 C434 0.930 . S
H440 C435 0.930 1_554 S
O441 Cu421 1.959 1_556 S
O441 C428 1.251 . S
H442 C425 0.930 . S
H443 C436 0.929 . S
Cu444 N445 1.999 . S
Cu444 O450 1.974 . S
Cu444 N455 1.985 . S
Cu444 O464 1.959 1_455 S
N445 Cu444 1.999 . S
N445 C447 1.263 . S
N445 C449 1.389 . S
N446 C447 1.358 . S
N446 C448 1.400 . S
C447 N445 1.263 . S
C447 N446 1.358 . S
C447 H453 0.930 . S
C448 N446 1.400 . S
C448 C449 1.351 . S
C448 H465 0.930 . S
C449 N445 1.389 . S
C449 C448 1.351 . S
C449 H454 0.930 . S
O450 Cu444 1.974 . S
O450 C460 1.282 . S
C451 O452 1.261 . S
C451 O464 1.251 . S
O452 C451 1.261 . S
H453 C447 0.930 . S
H454 C449 0.930 . S
N455 Cu444 1.985 . S
N455 C457 1.335 1_455 S
N455 C458 1.390 . S
N456 C457 1.345 . S
N456 C459 1.336 . S
C457 N455 1.335 1_655 S
C457 N456 1.345 . S
C457 H462 0.930 . S
C458 N455 1.390 . S
C458 C459 1.346 1_455 S
C458 H463 0.930 . S
C459 N456 1.336 . S
C459 C458 1.346 1_655 S
C459 H466 0.929 . S
C460 O450 1.282 . S
C460 O461 1.216 . S
O461 C460 1.216 . S
H462 C457 0.930 . S
H463 C458 0.930 . S
O464 Cu444 1.959 1_655 S
O464 C451 1.251 . S
H465 C448 0.930 . S
H466 C459 0.929 . S
Cu467 N468 1.999 . S
Cu467 O473 1.974 . S
Cu467 N478 1.985 1_545 S
Cu467 O487 1.959 1_545 S
N468 Cu467 1.999 . S
N468 C470 1.263 . S
N468 C472 1.389 . S
N469 C470 1.358 . S
N469 C471 1.400 . S
C470 N468 1.263 . S
C470 N469 1.358 . S
C470 H476 0.930 . S
C471 N469 1.400 . S
C471 C472 1.351 . S
C471 H488 0.930 . S
C472 N468 1.389 . S
C472 C471 1.351 . S
C472 H477 0.930 . S
O473 Cu467 1.974 . S
O473 C483 1.282 . S
C474 O475 1.261 . S
C474 O487 1.251 . S
O475 C474 1.261 . S
H476 C470 0.930 . S
H477 C472 0.930 . S
N478 Cu467 1.985 1_565 S
N478 C480 1.335 . S
N478 C481 1.390 . S
N479 C480 1.345 . S
N479 C482 1.336 . S
C480 N478 1.335 . S
C480 N479 1.345 . S
C480 H485 0.930 . S
C481 N478 1.390 . S
C481 C482 1.346 . S
C481 H486 0.918 1_565 S
C482 N479 1.336 . S
C482 C481 1.346 . S
C482 H489 0.929 . S
C483 O473 1.282 . S
C483 O484 1.216 . S
O484 C483 1.216 . S
H485 C480 0.930 . S
H486 C481 0.918 1_545 S
O487 Cu467 1.959 1_565 S
O487 C474 1.251 . S
H488 C471 0.930 . S
H489 C482 0.929 . S
Cu490 N491 1.999 . S
Cu490 O496 1.974 . S
Cu490 N501 1.985 1_655 S
Cu490 O510 1.959 1_655 S
N491 Cu490 1.999 . S
N491 C493 1.263 . S
N491 C495 1.389 . S
N492 C493 1.358 . S
N492 C494 1.400 . S
C493 N491 1.263 . S
C493 N492 1.358 . S
C493 H499 0.930 . S
C494 N492 1.400 . S
C494 C495 1.351 . S
C494 H511 0.930 . S
C495 N491 1.389 . S
C495 C494 1.351 . S
C495 H500 0.930 . S
O496 Cu490 1.974 . S
O496 C506 1.282 . S
C497 O498 1.261 . S
C497 O510 1.251 . S
O498 C497 1.261 . S
H499 C493 0.930 . S
H500 C495 0.930 . S
N501 Cu490 1.985 1_455 S
N501 C503 1.335 . S
N501 C504 1.390 . S
N502 C503 1.345 . S
N502 C505 1.336 . S
C503 N501 1.335 . S
C503 N502 1.345 . S
C503 H508 0.930 . S
C504 N501 1.390 . S
C504 C505 1.346 . S
C504 H509 0.900 1_455 S
C505 N502 1.336 . S
C505 C504 1.346 . S
C505 H512 0.929 . S
C506 O496 1.282 . S
C506 O507 1.216 . S
O507 C506 1.216 . S
H508 C503 0.930 . S
H509 C504 0.900 1_655 S
O510 Cu490 1.959 1_455 S
O510 C497 1.251 . S
H511 C494 0.930 . S
H512 C505 0.929 . S
Cu513 N514 1.999 . S
Cu513 O519 1.974 . S
Cu513 N524 1.985 1_545 S
Cu513 O533 1.959 1_545 S
N514 Cu513 1.999 . S
N514 C516 1.263 . S
N514 C518 1.389 . S
N515 C516 1.358 . S
N515 C517 1.400 . S
C516 N514 1.263 . S
C516 N515 1.358 . S
C516 H522 0.930 . S
C517 N515 1.400 . S
C517 C518 1.351 . S
C517 H534 0.930 . S
C518 N514 1.389 . S
C518 C517 1.351 . S
C518 H523 0.930 . S
O519 Cu513 1.974 . S
O519 C529 1.282 . S
C520 O521 1.261 . S
C520 O533 1.251 . S
O521 C520 1.261 . S
H522 C516 0.930 . S
H523 C518 0.930 . S
N524 Cu513 1.985 1_565 S
N524 C526 1.335 . S
N524 C527 1.390 . S
N525 C526 1.345 . S
N525 C528 1.336 . S
C526 N524 1.335 . S
C526 N525 1.345 . S
C526 H531 0.930 . S
C527 N524 1.390 . S
C527 C528 1.346 . S
C527 H532 0.930 . S
C528 N525 1.336 . S
C528 C527 1.346 . S
C528 H535 0.929 . S
C529 O519 1.282 . S
C529 O530 1.216 . S
O530 C529 1.216 . S
H531 C526 0.930 . S
H532 C527 0.930 . S
O533 Cu513 1.959 1_565 S
O533 C520 1.251 . S
H534 C517 0.930 . S
H535 C528 0.929 . S
Cu536 N537 1.999 . S
Cu536 O542 1.974 . S
Cu536 N547 1.985 . S
Cu536 O556 1.959 1_455 S
N537 Cu536 1.999 . S
N537 C539 1.263 . S
N537 C541 1.389 . S
N538 C539 1.358 . S
N538 C540 1.400 . S
C539 N537 1.263 . S
C539 N538 1.358 . S
C539 H545 0.930 . S
C540 N538 1.400 . S
C540 C541 1.351 . S
C540 H557 0.930 . S
C541 N537 1.389 . S
C541 C540 1.351 . S
C541 H546 0.930 . S
O542 Cu536 1.974 . S
O542 C552 1.282 . S
C543 O544 1.261 . S
C543 O556 1.251 . S
O544 C543 1.261 . S
H545 C539 0.930 . S
H546 C541 0.930 . S
N547 Cu536 1.985 . S
N547 C549 1.335 1_455 S
N547 C550 1.390 . S
N548 C549 1.345 . S
N548 C551 1.336 . S
C549 N547 1.335 1_655 S
C549 N548 1.345 . S
C549 H554 0.930 . S
C550 N547 1.390 . S
C550 C551 1.346 1_455 S
C550 H555 0.930 . S
C551 N548 1.336 . S
C551 C550 1.346 1_655 S
C551 H558 0.929 . S
C552 O542 1.282 . S
C552 O553 1.216 . S
O553 C552 1.216 . S
H554 C549 0.930 . S
H555 C550 0.930 . S
O556 Cu536 1.959 1_655 S
O556 C543 1.251 . S
H557 C540 0.930 . S
H558 C551 0.929 . S
Cu559 N560 1.999 . S
Cu559 O565 1.974 . S
Cu559 N570 1.985 1_545 S
Cu559 O579 1.959 1_545 S
N560 Cu559 1.999 . S
N560 C562 1.263 . S
N560 C564 1.389 . S
N561 C562 1.358 . S
N561 C563 1.400 . S
C562 N560 1.263 . S
C562 N561 1.358 . S
C562 H568 0.930 . S
C563 N561 1.400 . S
C563 C564 1.351 . S
C563 H580 0.930 . S
C564 N560 1.389 . S
C564 C563 1.351 . S
C564 H569 0.930 . S
O565 Cu559 1.974 . S
O565 C575 1.282 . S
C566 O567 1.261 1_565 S
C566 O579 1.251 . S
O567 C566 1.261 1_545 S
H568 C562 0.930 . S
H569 C564 0.930 . S
N570 Cu559 1.985 1_565 S
N570 C572 1.335 . S
N570 C573 1.390 . S
N571 C572 1.345 . S
N571 C574 1.336 . S
C572 N570 1.335 . S
C572 N571 1.345 . S
C572 H577 0.930 . S
C573 N570 1.390 . S
C573 C574 1.346 . S
C573 H578 0.930 1_565 S
C574 N571 1.336 . S
C574 C573 1.346 . S
C574 H581 0.929 . S
C575 O565 1.282 . S
C575 O576 1.216 . S
O576 C575 1.216 . S
H577 C572 0.930 . S
H578 C573 0.930 1_545 S
O579 Cu559 1.959 1_565 S
O579 C566 1.251 . S
H580 C563 0.930 . S
H581 C574 0.929 . S
Cu582 N583 1.999 . S
Cu582 O588 1.974 . S
Cu582 N593 1.985 . S
Cu582 O602 1.959 . S
N583 Cu582 1.999 . S
N583 C585 1.263 1_455 S
N583 C587 1.389 . S
N584 C585 1.358 . S
N584 C586 1.402 1_655 S
C585 N583 1.263 1_655 S
C585 N584 1.358 . S
C585 H591 0.930 . S
C586 N584 1.402 1_455 S
C586 C587 1.348 . S
C586 H603 0.931 1_455 S
C587 N583 1.389 . S
C587 C586 1.348 . S
C587 H592 0.930 . S
O588 Cu582 1.974 . S
O588 C598 1.293 . S
C589 O590 1.261 . S
C589 O602 1.251 . S
O590 C589 1.261 . S
H591 C585 0.930 . S
H592 C587 0.930 . S
N593 Cu582 1.985 . S
N593 C595 1.335 . S
N593 C596 1.390 . S
N594 C595 1.345 . S
N594 C597 1.336 . S
C595 N593 1.335 . S
C595 N594 1.345 . S
C595 H600 0.930 . S
C596 N593 1.390 . S
C596 C597 1.346 . S
C596 H601 0.930 . S
C597 N594 1.336 . S
C597 C596 1.346 . S
C597 H604 0.929 . S
C598 O588 1.293 . S
C598 O599 1.225 . S
O599 C598 1.225 . S
H600 C595 0.930 . S
H601 C596 0.930 . S
O602 Cu582 1.959 . S
O602 C589 1.251 . S
H603 C586 0.931 1_655 S
H604 C597 0.929 . S
Cu605 N606 1.999 . S
Cu605 O611 1.974 . S
Cu605 N616 1.999 . S
Cu605 O625 1.959 . S
N606 Cu605 1.999 . S
N606 C608 1.263 . S
N606 C610 1.389 . S
N607 C608 1.358 . S
N607 C609 1.400 . S
C608 N606 1.263 . S
C608 N607 1.358 . S
C608 H614 0.930 . S
C609 N607 1.400 . S
C609 C610 1.351 . S
C609 H626 0.930 . S
C610 N606 1.389 . S
C610 C609 1.351 . S
C610 H615 0.930 . S
O611 Cu605 1.974 . S
O611 C621 1.282 . S
C612 O613 1.261 1_565 S
C612 O625 1.251 1_565 S
O613 C612 1.261 1_545 S
H614 C608 0.930 . S
H615 C610 0.930 . S
N616 Cu605 1.999 . S
N616 C618 1.313 1_545 S
N616 C619 1.387 . S
N617 C618 1.345 . S
N617 C620 1.336 . S
C618 N616 1.313 1_565 S
C618 N617 1.345 . S
C618 H623 0.930 . S
C619 N616 1.387 . S
C619 C620 1.315 1_545 S
C619 H624 0.964 . S
C620 N617 1.336 . S
C620 C619 1.315 1_565 S
C620 H627 0.929 . S
C621 O611 1.282 . S
C621 O622 1.216 . S
O622 C621 1.216 . S
H623 C618 0.930 . S
H624 C619 0.964 . S
O625 Cu605 1.959 . S
O625 C612 1.251 1_545 S
H626 C609 0.930 . S
H627 C620 0.929 . S
Cu628 N629 1.999 . S
Cu628 O634 1.974 . S
Cu628 N639 1.985 . S
Cu628 O648 1.959 . S
N629 Cu628 1.999 . S
N629 C631 1.263 . S
N629 C633 1.389 . S
N630 C631 1.358 . S
N630 C632 1.400 . S
C631 N629 1.263 . S
C631 N630 1.358 . S
C631 H637 0.930 . S
C632 N630 1.400 . S
C632 C633 1.351 . S
C632 H649 0.930 . S
C633 N629 1.389 . S
C633 C632 1.351 . S
C633 H638 0.930 . S
O634 Cu628 1.974 . S
O634 C644 1.282 . S
C635 O636 1.261 . S
C635 O648 1.251 . S
O636 C635 1.261 . S
H637 C631 0.930 . S
H638 C633 0.930 . S
N639 Cu628 1.985 . S
N639 C641 1.335 . S
N639 C642 1.390 . S
N640 C641 1.345 . S
N640 C643 1.336 . S
C641 N639 1.335 . S
C641 N640 1.345 . S
C641 H646 0.930 . S
C642 N639 1.390 . S
C642 C643 1.346 . S
C642 H647 0.930 . S
C643 N640 1.336 . S
C643 C642 1.346 . S
C643 H650 0.929 . S
C644 O634 1.282 . S
C644 O645 1.216 . S
O645 C644 1.216 . S
H646 C641 0.930 . S
H647 C642 0.930 . S
O648 Cu628 1.959 . S
O648 C635 1.251 . S
H649 C632 0.930 . S
H650 C643 0.929 . S
Cu651 N652 1.999 . S
Cu651 O657 1.974 . S
Cu651 N662 1.985 . S
Cu651 O671 1.959 . S
N652 Cu651 1.999 . S
N652 C654 1.263 . S
N652 C656 1.389 . S
N653 C654 1.358 . S
N653 C655 1.400 . S
C654 N652 1.263 . S
C654 N653 1.358 . S
C654 H660 0.930 . S
C655 N653 1.400 . S
C655 C656 1.351 . S
C655 H672 0.930 . S
C656 N652 1.389 . S
C656 C655 1.351 . S
C656 H661 0.930 . S
O657 Cu651 1.974 . S
O657 C667 1.282 . S
C658 O659 1.261 . S
C658 O671 1.251 . S
O659 C658 1.261 . S
H660 C654 0.930 . S
H661 C656 0.930 . S
N662 Cu651 1.985 . S
N662 C664 1.335 . S
N662 C665 1.390 . S
N663 C664 1.345 . S
N663 C666 1.336 . S
C664 N662 1.335 . S
C664 N663 1.345 . S
C664 H669 0.930 . S
C665 N662 1.390 . S
C665 C666 1.346 . S
C665 H670 0.930 . S
C666 N663 1.336 . S
C666 C665 1.346 . S
C666 H673 0.929 . S
C667 O657 1.282 . S
C667 O668 1.216 . S
O668 C667 1.216 . S
H669 C664 0.930 . S
H670 C665 0.930 . S
O671 Cu651 1.959 . S
O671 C658 1.251 . S
H672 C655 0.930 . S
H673 C666 0.929 . S
Cu674 N675 1.999 . S
Cu674 O680 1.974 . S
Cu674 N685 1.985 . S
Cu674 O694 1.959 . S
N675 Cu674 1.999 . S
N675 C677 1.263 . S
N675 C679 1.389 . S
N676 C677 1.358 . S
N676 C678 1.400 . S
C677 N675 1.263 . S
C677 N676 1.358 . S
C677 H683 0.930 . S
C678 N676 1.400 . S
C678 C679 1.351 . S
C678 H695 0.930 . S
C679 N675 1.389 . S
C679 C678 1.351 . S
C679 H684 0.930 . S
O680 Cu674 1.974 . S
O680 C690 1.282 . S
C681 O682 1.261 . S
C681 O694 1.251 . S
O682 C681 1.261 . S
H683 C677 0.930 . S
H684 C679 0.930 . S
N685 Cu674 1.985 . S
N685 C687 1.335 . S
N685 C688 1.390 . S
N686 C687 1.345 . S
N686 C689 1.336 . S
C687 N685 1.335 . S
C687 N686 1.345 . S
C687 H692 0.930 . S
C688 N685 1.390 . S
C688 C689 1.346 . S
C688 H693 0.930 . S
C689 N686 1.336 . S
C689 C688 1.346 . S
C689 H696 0.929 . S
C690 O680 1.282 . S
C690 O691 1.216 . S
O691 C690 1.216 . S
H692 C687 0.930 . S
H693 C688 0.930 . S
O694 Cu674 1.959 . S
O694 C681 1.251 . S
H695 C678 0.930 . S
H696 C689 0.929 . S
Cu697 N698 1.999 . S
Cu697 O703 1.974 . S
Cu697 N708 1.985 . S
Cu697 O717 1.959 . S
N698 Cu697 1.999 . S
N698 C700 1.263 . S
N698 C702 1.389 . S
N699 C700 1.358 . S
N699 C701 1.400 . S
C700 N698 1.263 . S
C700 N699 1.358 . S
C700 H706 0.930 . S
C701 N699 1.400 . S
C701 C702 1.351 . S
C701 H718 0.930 . S
C702 N698 1.389 . S
C702 C701 1.351 . S
C702 H707 0.930 . S
O703 Cu697 1.974 . S
O703 C713 1.282 . S
C704 O705 1.261 . S
C704 O717 1.251 . S
O705 C704 1.261 . S
H706 C700 0.930 . S
H707 C702 0.930 . S
N708 Cu697 1.985 . S
N708 C710 1.335 . S
N708 C711 1.390 . S
N709 C710 1.345 . S
N709 C712 1.336 . S
C710 N708 1.335 . S
C710 N709 1.345 . S
C710 H715 0.930 . S
C711 N708 1.390 . S
C711 C712 1.346 . S
C711 H716 0.930 . S
C712 N709 1.336 . S
C712 C711 1.346 . S
C712 H719 0.929 . S
C713 O703 1.282 . S
C713 O714 1.216 . S
O714 C713 1.216 . S
H715 C710 0.930 . S
H716 C711 0.930 . S
O717 Cu697 1.959 . S
O717 C704 1.251 . S
H718 C701 0.930 . S
H719 C712 0.929 . S
Cu720 N721 1.999 . S
Cu720 O726 1.974 . S
Cu720 N731 1.985 . S
Cu720 O740 1.959 . S
N721 Cu720 1.999 . S
N721 C723 1.263 . S
N721 C725 1.389 . S
N722 C723 1.358 . S
N722 C724 1.400 . S
C723 N721 1.263 . S
C723 N722 1.358 . S
C723 H729 0.930 . S
C724 N722 1.400 . S
C724 C725 1.351 . S
C724 H741 0.930 . S
C725 N721 1.389 . S
C725 C724 1.351 . S
C725 H730 0.930 . S
O726 Cu720 1.974 . S
O726 C736 1.282 . S
C727 O728 1.261 . S
C727 O740 1.251 . S
O728 C727 1.261 . S
H729 C723 0.930 . S
H730 C725 0.930 . S
N731 Cu720 1.985 . S
N731 C733 1.335 . S
N731 C734 1.390 . S
N732 C733 1.345 . S
N732 C735 1.336 . S
C733 N731 1.335 . S
C733 N732 1.345 . S
C733 H738 0.930 . S
C734 N731 1.390 . S
C734 C735 1.346 . S
C734 H739 0.930 . S
C735 N732 1.336 . S
C735 C734 1.346 . S
C735 H742 0.929 . S
C736 O726 1.282 . S
C736 O737 1.216 . S
O737 C736 1.216 . S
H738 C733 0.930 . S
H739 C734 0.930 . S
O740 Cu720 1.959 . S
O740 C727 1.251 . S
H741 C724 0.930 . S
H742 C735 0.929 . S
Cu743 N744 1.999 . S
Cu743 O749 1.974 . S
Cu743 N754 1.985 . S
Cu743 O763 1.959 . S
N744 Cu743 1.999 . S
N744 C746 1.263 . S
N744 C748 1.389 . S
N745 C746 1.358 . S
N745 C747 1.400 . S
C746 N744 1.263 . S
C746 N745 1.358 . S
C746 H752 0.930 . S
C747 N745 1.400 . S
C747 C748 1.351 . S
C747 H764 0.930 . S
C748 N744 1.389 . S
C748 C747 1.351 . S
C748 H753 0.930 . S
O749 Cu743 1.974 . S
O749 C759 1.282 . S
C750 O751 1.261 . S
C750 O763 1.251 . S
O751 C750 1.261 . S
H752 C746 0.930 . S
H753 C748 0.930 . S
N754 Cu743 1.985 . S
N754 C756 1.335 . S
N754 C757 1.390 . S
N755 C756 1.345 . S
N755 C758 1.336 . S
C756 N754 1.335 . S
C756 N755 1.345 . S
C756 H761 0.930 . S
C757 N754 1.390 . S
C757 C758 1.346 . S
C757 H762 0.930 . S
C758 N755 1.336 . S
C758 C757 1.346 . S
C758 H765 0.929 . S
C759 O749 1.282 . S
C759 O760 1.216 . S
O760 C759 1.216 . S
H761 C756 0.930 . S
H762 C757 0.930 . S
O763 Cu743 1.959 . S
O763 C750 1.251 . S
H764 C747 0.930 . S
H765 C758 0.929 . S
Cu766 N767 1.999 . S
Cu766 O772 1.974 . S
Cu766 N777 1.985 . S
Cu766 O786 1.959 . S
N767 Cu766 1.999 . S
N767 C769 1.263 . S
N767 C771 1.389 . S
N768 C769 1.358 . S
N768 C770 1.400 . S
C769 N767 1.263 . S
C769 N768 1.358 . S
C769 H775 0.930 . S
C770 N768 1.400 . S
C770 C771 1.351 . S
C770 H787 0.930 . S
C771 N767 1.389 . S
C771 C770 1.351 . S
C771 H776 0.930 . S
O772 Cu766 1.974 . S
O772 C782 1.282 . S
C773 O774 1.261 . S
C773 O786 1.251 . S
O774 C773 1.261 . S
H775 C769 0.930 . S
H776 C771 0.930 . S
N777 Cu766 1.985 . S
N777 C779 1.335 . S
N777 C780 1.390 . S
N778 C779 1.345 . S
N778 C781 1.336 . S
C779 N777 1.335 . S
C779 N778 1.345 . S
C779 H784 0.930 . S
C780 N777 1.390 . S
C780 C781 1.346 . S
C780 H785 0.930 . S
C781 N778 1.336 . S
C781 C780 1.346 . S
C781 H788 0.929 . S
C782 O772 1.282 . S
C782 O783 1.216 . S
O783 C782 1.216 . S
H784 C779 0.930 . S
H785 C780 0.930 . S
O786 Cu766 1.959 . S
O786 C773 1.251 . S
H787 C770 0.930 . S
H788 C781 0.929 . S
Cu789 N790 1.999 . S
Cu789 O795 1.974 . S
Cu789 N800 1.985 . S
Cu789 O809 1.959 . S
N790 Cu789 1.999 . S
N790 C792 1.263 . S
N790 C794 1.389 . S
N791 C792 1.358 . S
N791 C793 1.400 . S
C792 N790 1.263 . S
C792 N791 1.358 . S
C792 H798 0.930 . S
C793 N791 1.400 . S
C793 C794 1.351 . S
C793 H810 0.930 . S
C794 N790 1.389 . S
C794 C793 1.351 . S
C794 H799 0.930 . S
O795 Cu789 1.974 . S
O795 C805 1.282 . S
C796 O797 1.261 . S
C796 O809 1.251 . S
O797 C796 1.261 . S
H798 C792 0.930 . S
H799 C794 0.930 . S
N800 Cu789 1.985 . S
N800 C802 1.335 . S
N800 C803 1.390 . S
N801 C802 1.345 . S
N801 C804 1.336 . S
C802 N800 1.335 . S
C802 N801 1.345 . S
C802 H807 0.930 . S
C803 N800 1.390 . S
C803 C804 1.346 . S
C803 H808 0.930 . S
C804 N801 1.336 . S
C804 C803 1.346 . S
C804 H811 0.929 . S
C805 O795 1.282 . S
C805 O806 1.216 . S
O806 C805 1.216 . S
H807 C802 0.930 . S
H808 C803 0.930 . S
O809 Cu789 1.959 . S
O809 C796 1.251 . S
H810 C793 0.930 . S
H811 C804 0.929 . S
Cu812 N813 1.999 . S
Cu812 O818 1.974 . S
Cu812 N823 1.985 . S
Cu812 O832 1.959 . S
N813 Cu812 1.999 . S
N813 C815 1.263 . S
N813 C817 1.389 . S
N814 C815 1.358 . S
N814 C816 1.400 . S
C815 N813 1.263 . S
C815 N814 1.358 . S
C815 H821 0.930 . S
C816 N814 1.400 . S
C816 C817 1.351 . S
C816 H833 0.930 . S
C817 N813 1.389 . S
C817 C816 1.351 . S
C817 H822 0.930 . S
O818 Cu812 1.974 . S
O818 C828 1.282 . S
C819 O820 1.261 . S
C819 O832 1.251 . S
O820 C819 1.261 . S
H821 C815 0.930 . S
H822 C817 0.930 . S
N823 Cu812 1.985 . S
N823 C825 1.335 . S
N823 C826 1.390 . S
N824 C825 1.345 . S
N824 C827 1.336 . S
C825 N823 1.335 . S
C825 N824 1.345 . S
C825 H830 0.930 . S
C826 N823 1.390 . S
C826 C827 1.346 . S
C826 H831 0.930 . S
C827 N824 1.336 . S
C827 C826 1.346 . S
C827 H834 0.929 . S
C828 O818 1.282 . S
C828 O829 1.216 . S
O829 C828 1.216 . S
H830 C825 0.930 . S
H831 C826 0.930 . S
O832 Cu812 1.959 . S
O832 C819 1.251 . S
H833 C816 0.930 . S
H834 C827 0.929 . S
Cu835 N836 1.999 . S
Cu835 O841 1.974 . S
Cu835 N846 1.985 . S
Cu835 O855 1.959 . S
N836 Cu835 1.999 . S
N836 C838 1.263 . S
N836 C840 1.389 . S
N837 C838 1.358 . S
N837 C839 1.400 . S
C838 N836 1.263 . S
C838 N837 1.358 . S
C838 H844 0.930 . S
C839 N837 1.400 . S
C839 C840 1.351 . S
C839 H856 0.930 . S
C840 N836 1.389 . S
C840 C839 1.351 . S
C840 H845 0.930 . S
O841 Cu835 1.974 . S
O841 C851 1.282 . S
C842 O843 1.261 . S
C842 O855 1.251 . S
O843 C842 1.261 . S
H844 C838 0.930 . S
H845 C840 0.930 . S
N846 Cu835 1.985 . S
N846 C848 1.335 . S
N846 C849 1.390 . S
N847 C848 1.345 . S
N847 C850 1.336 . S
C848 N846 1.335 . S
C848 N847 1.345 . S
C848 H853 0.930 . S
C849 N846 1.390 . S
C849 C850 1.346 . S
C849 H854 0.930 . S
C850 N847 1.336 . S
C850 C849 1.346 . S
C850 H857 0.929 . S
C851 O841 1.282 . S
C851 O852 1.216 . S
O852 C851 1.216 . S
H853 C848 0.930 . S
H854 C849 0.930 . S
O855 Cu835 1.959 . S
O855 C842 1.251 . S
H856 C839 0.930 . S
H857 C850 0.929 . S
Cu858 N859 1.999 . S
Cu858 O864 1.974 . S
Cu858 N869 1.985 . S
Cu858 O878 1.959 . S
N859 Cu858 1.999 . S
N859 C861 1.263 . S
N859 C863 1.389 . S
N860 C861 1.358 . S
N860 C862 1.400 . S
C861 N859 1.263 . S
C861 N860 1.358 . S
C861 H867 0.930 . S
C862 N860 1.400 . S
C862 C863 1.351 . S
C862 H879 0.930 . S
C863 N859 1.389 . S
C863 C862 1.351 . S
C863 H868 0.930 . S
O864 Cu858 1.974 . S
O864 C874 1.282 . S
C865 O866 1.261 . S
C865 O878 1.251 . S
O866 C865 1.261 . S
H867 C861 0.930 . S
H868 C863 0.930 . S
N869 Cu858 1.985 . S
N869 C871 1.335 . S
N869 C872 1.390 . S
N870 C871 1.345 . S
N870 C873 1.336 . S
C871 N869 1.335 . S
C871 N870 1.345 . S
C871 H876 0.930 . S
C872 N869 1.390 . S
C872 C873 1.346 . S
C872 H877 0.930 . S
C873 N870 1.336 . S
C873 C872 1.346 . S
C873 H880 0.929 . S
C874 O864 1.282 . S
C874 O875 1.216 . S
O875 C874 1.216 . S
H876 C871 0.930 . S
H877 C872 0.930 . S
O878 Cu858 1.959 . S
O878 C865 1.251 . S
H879 C862 0.930 . S
H880 C873 0.929 . S
Cu881 N882 1.999 . S
Cu881 O887 1.974 . S
Cu881 N892 1.985 . S
Cu881 O901 1.959 . S
N882 Cu881 1.999 . S
N882 C884 1.263 . S
N882 C886 1.389 . S
N883 C884 1.358 . S
N883 C885 1.400 . S
C884 N882 1.263 . S
C884 N883 1.358 . S
C884 H890 0.930 . S
C885 N883 1.400 . S
C885 C886 1.351 . S
C885 H902 0.930 . S
C886 N882 1.389 . S
C886 C885 1.351 . S
C886 H891 0.930 . S
O887 Cu881 1.974 . S
O887 C897 1.282 . S
C888 O889 1.261 . S
C888 O901 1.251 . S
O889 C888 1.261 . S
H890 C884 0.930 . S
H891 C886 0.930 . S
N892 Cu881 1.985 . S
N892 C894 1.335 . S
N892 C895 1.390 . S
N893 C894 1.345 . S
N893 C896 1.336 . S
C894 N892 1.335 . S
C894 N893 1.345 . S
C894 H899 0.930 . S
C895 N892 1.390 . S
C895 C896 1.346 . S
C895 H900 0.930 . S
C896 N893 1.336 . S
C896 C895 1.346 . S
C896 H903 0.929 . S
C897 O887 1.282 . S
C897 O898 1.216 . S
O898 C897 1.216 . S
H899 C894 0.930 . S
H900 C895 0.930 . S
O901 Cu881 1.959 . S
O901 C888 1.251 . S
H902 C885 0.930 . S
H903 C896 0.929 . S
C904 C905 1.369 . S
C904 C906 1.419 . S
C904 H908 0.930 . S
C905 C904 1.369 . S
C905 C914 1.429 . S
C906 C904 1.419 . S
C906 C907 1.363 . S
C906 H909 0.929 . S
C907 C906 1.363 . S
C907 C913 1.428 . S
H908 C904 0.930 . S
H909 C906 0.929 . S
S910 N911 1.613 . S
S910 N912 1.610 . S
N911 S910 1.613 . S
N911 C914 1.350 . S
N912 S910 1.610 . S
N912 C913 1.351 . S
C913 C907 1.428 . S
C913 N912 1.351 . S
C913 C914 1.434 . S
C914 C905 1.429 . S
C914 N911 1.350 . S
C914 C913 1.434 . S
C915 C916 1.369 . S
C915 C917 1.419 . S
C915 H919 0.930 . S
C916 C915 1.369 . S
C916 C925 1.429 . S
C917 C915 1.419 . S
C917 C918 1.363 . S
C917 H920 0.929 . S
C918 C917 1.363 . S
C918 C924 1.428 . S
H919 C915 0.930 . S
H920 C917 0.929 . S
S921 N922 1.613 . S
S921 N923 1.610 . S
N922 S921 1.613 . S
N922 C925 1.350 . S
N923 S921 1.610 . S
N923 C924 1.351 . S
C924 C918 1.428 . S
C924 N923 1.351 . S
C924 C925 1.434 . S
C925 C916 1.429 . S
C925 N922 1.350 . S
C925 C924 1.434 . S
C926 C927 1.369 . S
C926 C928 1.419 . S
C926 H930 0.930 . S
C927 C926 1.369 . S
C927 C936 1.429 . S
C928 C926 1.419 . S
C928 C929 1.363 . S
C928 H931 0.929 . S
C929 C928 1.363 . S
C929 C935 1.428 . S
H930 C926 0.930 . S
H931 C928 0.929 . S
S932 N933 1.613 . S
S932 N934 1.610 . S
N933 S932 1.613 . S
N933 C936 1.350 . S
N934 S932 1.610 . S
N934 C935 1.351 . S
C935 C929 1.428 . S
C935 N934 1.351 . S
C935 C936 1.434 . S
C936 C927 1.429 . S
C936 N933 1.350 . S
C936 C935 1.434 . S
C937 C938 1.369 . S
C937 C939 1.419 . S
C937 H941 0.930 . S
C938 C937 1.369 . S
C938 C947 1.429 . S
C939 C937 1.419 . S
C939 C940 1.363 . S
C939 H942 0.929 . S
C940 C939 1.363 . S
C940 C946 1.428 . S
H941 C937 0.930 . S
H942 C939 0.929 . S
S943 N944 1.613 . S
S943 N945 1.610 . S
N944 S943 1.613 . S
N944 C947 1.350 . S
N945 S943 1.610 . S
N945 C946 1.351 . S
C946 C940 1.428 . S
C946 N945 1.351 . S
C946 C947 1.434 . S
C947 C938 1.429 . S
C947 N944 1.350 . S
C947 C946 1.434 . S
C948 C949 1.369 . S
C948 C950 1.419 . S
C948 H952 0.930 . S
C949 C948 1.369 . S
C949 C958 1.429 . S
C950 C948 1.419 . S
C950 C951 1.363 . S
C950 H953 0.929 . S
C951 C950 1.363 . S
C951 C957 1.428 . S
H952 C948 0.930 . S
H953 C950 0.929 . S
S954 N955 1.613 . S
S954 N956 1.610 . S
N955 S954 1.613 . S
N955 C958 1.350 . S
N956 S954 1.610 . S
N956 C957 1.351 . S
C957 C951 1.428 . S
C957 N956 1.351 . S
C957 C958 1.434 . S
C958 C949 1.429 . S
C958 N955 1.350 . S
C958 C957 1.434 . S
C959 C960 1.369 . S
C959 C961 1.419 . S
C959 H963 0.930 . S
C960 C959 1.369 . S
C960 C969 1.429 . S
C961 C959 1.419 . S
C961 C962 1.363 . S
C961 H964 0.929 . S
C962 C961 1.363 . S
C962 C968 1.428 . S
H963 C959 0.930 . S
H964 C961 0.929 . S
S965 N966 1.613 . S
S965 N967 1.610 . S
N966 S965 1.613 . S
N966 C969 1.350 . S
N967 S965 1.610 . S
N967 C968 1.351 . S
C968 C962 1.428 . S
C968 N967 1.351 . S
C968 C969 1.434 . S
C969 C960 1.429 . S
C969 N966 1.350 . S
C969 C968 1.434 . S
C970 C971 1.369 . S
C970 C972 1.419 . S
C970 H974 0.930 . S
C971 C970 1.369 . S
C971 C980 1.429 . S
C972 C970 1.419 . S
C972 C973 1.363 . S
C972 H975 0.929 . S
C973 C972 1.363 . S
C973 C979 1.428 . S
H974 C970 0.930 . S
H975 C972 0.929 . S
S976 N977 1.613 . S
S976 N978 1.610 . S
N977 S976 1.613 . S
N977 C980 1.350 . S
N978 S976 1.610 . S
N978 C979 1.351 . S
C979 C973 1.428 . S
C979 N978 1.351 . S
C979 C980 1.434 . S
C980 C971 1.429 . S
C980 N977 1.350 . S
C980 C979 1.434 . S
C981 C982 1.369 . S
C981 C983 1.419 . S
C981 H985 0.930 . S
C982 C981 1.369 . S
C982 C991 1.429 . S
C983 C981 1.419 . S
C983 C984 1.363 . S
C983 H986 0.929 . S
C984 C983 1.363 . S
C984 C990 1.428 . S
H985 C981 0.930 . S
H986 C983 0.929 . S
S987 N988 1.613 . S
S987 N989 1.610 . S
N988 S987 1.613 . S
N988 C991 1.350 . S
N989 S987 1.610 . S
N989 C990 1.351 . S
C990 C984 1.428 . S
C990 N989 1.351 . S
C990 C991 1.434 . S
C991 C982 1.429 . S
C991 N988 1.350 . S
C991 C990 1.434 . S
C992 C993 1.369 . S
C992 C994 1.419 . S
C992 H996 0.930 . S
C993 C992 1.369 . S
C993 C1002 1.429 . S
C994 C992 1.419 . S
C994 C995 1.363 . S
C994 H997 0.929 . S
C995 C994 1.363 . S
C995 C1001 1.428 . S
H996 C992 0.930 . S
H997 C994 0.929 . S
S998 N999 1.613 . S
S998 N1000 1.610 . S
N999 S998 1.613 . S
N999 C1002 1.350 . S
N1000 S998 1.610 . S
N1000 C1001 1.351 . S
C1001 C995 1.428 . S
C1001 N1000 1.351 . S
C1001 C1002 1.434 . S
C1002 C993 1.429 . S
C1002 N999 1.350 . S
C1002 C1001 1.434 . S
C1003 C1004 1.369 . S
C1003 C1005 1.419 . S
C1003 H1007 0.930 . S
C1004 C1003 1.369 . S
C1004 C1013 1.429 . S
C1005 C1003 1.419 . S
C1005 C1006 1.363 . S
C1005 H1008 0.929 . S
C1006 C1005 1.363 . S
C1006 C1012 1.428 . S
H1007 C1003 0.930 . S
H1008 C1005 0.929 . S
S1009 N1010 1.613 . S
S1009 N1011 1.610 . S
N1010 S1009 1.613 . S
N1010 C1013 1.350 . S
N1011 S1009 1.610 . S
N1011 C1012 1.351 . S
C1012 C1006 1.428 . S
C1012 N1011 1.351 . S
C1012 C1013 1.434 . S
C1013 C1004 1.429 . S
C1013 N1010 1.350 . S
C1013 C1012 1.434 . S
C1014 C1015 1.369 . S
C1014 C1016 1.419 . S
C1014 H1018 0.930 . S
C1015 C1014 1.369 . S
C1015 C1024 1.429 . S
C1016 C1014 1.419 . S
C1016 C1017 1.363 . S
C1016 H1019 0.929 . S
C1017 C1016 1.363 . S
C1017 C1023 1.428 . S
H1018 C1014 0.930 . S
H1019 C1016 0.929 . S
S1020 N1021 1.613 . S
S1020 N1022 1.610 . S
N1021 S1020 1.613 . S
N1021 C1024 1.350 . S
N1022 S1020 1.610 . S
N1022 C1023 1.351 . S
C1023 C1017 1.428 . S
C1023 N1022 1.351 . S
C1023 C1024 1.434 . S
C1024 C1015 1.429 . S
C1024 N1021 1.350 . S
C1024 C1023 1.434 . S
C1025 C1026 1.369 . S
C1025 C1027 1.419 . S
C1025 H1029 0.930 . S
C1026 C1025 1.369 . S
C1026 C1035 1.429 . S
C1027 C1025 1.419 . S
C1027 C1028 1.363 . S
C1027 H1030 0.929 . S
C1028 C1027 1.363 . S
C1028 C1034 1.428 . S
H1029 C1025 0.930 . S
H1030 C1027 0.929 . S
S1031 N1032 1.613 . S
S1031 N1033 1.610 . S
N1032 S1031 1.613 . S
N1032 C1035 1.350 . S
N1033 S1031 1.610 . S
N1033 C1034 1.351 . S
C1034 C1028 1.428 . S
C1034 N1033 1.351 . S
C1034 C1035 1.434 . S
C1035 C1026 1.429 . S
C1035 N1032 1.350 . S
C1035 C1034 1.434 . S
C1036 C1037 1.369 . S
C1036 C1038 1.419 . S
C1036 H1040 0.930 . S
C1037 C1036 1.369 . S
C1037 C1046 1.429 . S
C1038 C1036 1.419 . S
C1038 C1039 1.363 . S
C1038 H1041 0.929 . S
C1039 C1038 1.363 . S
C1039 C1045 1.428 . S
H1040 C1036 0.930 . S
H1041 C1038 0.929 . S
S1042 N1043 1.613 . S
S1042 N1044 1.610 . S
N1043 S1042 1.613 . S
N1043 C1046 1.350 . S
N1044 S1042 1.610 . S
N1044 C1045 1.351 . S
C1045 C1039 1.428 . S
C1045 N1044 1.351 . S
C1045 C1046 1.434 . S
C1046 C1037 1.429 . S
C1046 N1043 1.350 . S
C1046 C1045 1.434 . S
C1047 C1048 1.369 . S
C1047 C1049 1.419 . S
C1047 H1051 0.930 . S
C1048 C1047 1.369 . S
C1048 C1057 1.429 . S
C1049 C1047 1.419 . S
C1049 C1050 1.363 . S
C1049 H1052 0.929 . S
C1050 C1049 1.363 . S
C1050 C1056 1.428 . S
H1051 C1047 0.930 . S
H1052 C1049 0.929 . S
S1053 N1054 1.613 . S
S1053 N1055 1.610 . S
N1054 S1053 1.613 . S
N1054 C1057 1.350 . S
N1055 S1053 1.610 . S
N1055 C1056 1.351 . S
C1056 C1050 1.428 . S
C1056 N1055 1.351 . S
C1056 C1057 1.434 . S
C1057 C1048 1.429 . S
C1057 N1054 1.350 . S
C1057 C1056 1.434 . S
C1058 C1059 1.369 . S
C1058 C1060 1.419 . S
C1058 H1062 0.930 . S
C1059 C1058 1.369 . S
C1059 C1068 1.429 . S
C1060 C1058 1.419 . S
C1060 C1061 1.363 . S
C1060 H1063 0.929 . S
C1061 C1060 1.363 . S
C1061 C1067 1.428 . S
H1062 C1058 0.930 . S
H1063 C1060 0.929 . S
S1064 N1065 1.613 . S
S1064 N1066 1.610 . S
N1065 S1064 1.613 . S
N1065 C1068 1.350 . S
N1066 S1064 1.610 . S
N1066 C1067 1.351 . S
C1067 C1061 1.428 . S
C1067 N1066 1.351 . S
C1067 C1068 1.434 . S
C1068 C1059 1.429 . S
C1068 N1065 1.350 . S
C1068 C1067 1.434 . S
C1069 C1070 1.369 . S
C1069 C1071 1.419 . S
C1069 H1073 0.930 . S
C1070 C1069 1.369 . S
C1070 C1079 1.429 . S
C1071 C1069 1.419 . S
C1071 C1072 1.363 . S
C1071 H1074 0.929 . S
C1072 C1071 1.363 . S
C1072 C1078 1.428 . S
H1073 C1069 0.930 . S
H1074 C1071 0.929 . S
S1075 N1076 1.613 . S
S1075 N1077 1.610 . S
N1076 S1075 1.613 . S
N1076 C1079 1.350 . S
N1077 S1075 1.610 . S
N1077 C1078 1.351 . S
C1078 C1072 1.428 . S
C1078 N1077 1.351 . S
C1078 C1079 1.434 . S
C1079 C1070 1.429 . S
C1079 N1076 1.350 . S
C1079 C1078 1.434 . S
C1080 C1081 1.369 . S
C1080 C1082 1.419 . S
C1080 H1084 0.930 . S
C1081 C1080 1.369 . S
C1081 C1090 1.429 . S
C1082 C1080 1.419 . S
C1082 C1083 1.363 . S
C1082 H1085 0.929 . S
C1083 C1082 1.363 . S
C1083 C1089 1.428 . S
H1084 C1080 0.930 . S
H1085 C1082 0.929 . S
S1086 N1087 1.613 . S
S1086 N1088 1.610 . S
N1087 S1086 1.613 . S
N1087 C1090 1.350 . S
N1088 S1086 1.610 . S
N1088 C1089 1.351 . S
C1089 C1083 1.428 . S
C1089 N1088 1.351 . S
C1089 C1090 1.434 . S
C1090 C1081 1.429 . S
C1090 N1087 1.350 . S
C1090 C1089 1.434 . S
C1091 C1092 1.369 . S
C1091 C1093 1.419 . S
C1091 H1095 0.930 . S
C1092 C1091 1.369 . S
C1092 C1101 1.429 . S
C1093 C1091 1.419 . S
C1093 C1094 1.363 . S
C1093 H1096 0.929 . S
C1094 C1093 1.363 . S
C1094 C1100 1.428 . S
H1095 C1091 0.930 . S
H1096 C1093 0.929 . S
S1097 N1098 1.613 . S
S1097 N1099 1.610 . S
N1098 S1097 1.613 . S
N1098 C1101 1.350 . S
N1099 S1097 1.610 . S
N1099 C1100 1.351 . S
C1100 C1094 1.428 . S
C1100 N1099 1.351 . S
C1100 C1101 1.434 . S
C1101 C1092 1.429 . S
C1101 N1098 1.350 . S
C1101 C1100 1.434 . S
C1102 C1103 1.369 . S
C1102 C1104 1.419 . S
C1102 H1106 0.930 . S
C1103 C1102 1.369 . S
C1103 C1112 1.429 . S
C1104 C1102 1.419 . S
C1104 C1105 1.363 . S
C1104 H1107 0.929 . S
C1105 C1104 1.363 . S
C1105 C1111 1.428 . S
H1106 C1102 0.930 . S
H1107 C1104 0.929 . S
S1108 N1109 1.613 . S
S1108 N1110 1.610 . S
N1109 S1108 1.613 . S
N1109 C1112 1.350 . S
N1110 S1108 1.610 . S
N1110 C1111 1.351 . S
C1111 C1105 1.428 . S
C1111 N1110 1.351 . S
C1111 C1112 1.434 . S
C1112 C1103 1.429 . S
C1112 N1109 1.350 . S
C1112 C1111 1.434 . S
C1113 C1114 1.369 . S
C1113 C1115 1.419 . S
C1113 H1117 0.930 . S
C1114 C1113 1.369 . S
C1114 C1123 1.429 . S
C1115 C1113 1.419 . S
C1115 C1116 1.363 . S
C1115 H1118 0.929 . S
C1116 C1115 1.363 . S
C1116 C1122 1.428 . S
H1117 C1113 0.930 . S
H1118 C1115 0.929 . S
S1119 N1120 1.613 . S
S1119 N1121 1.610 . S
N1120 S1119 1.613 . S
N1120 C1123 1.350 . S
N1121 S1119 1.610 . S
N1121 C1122 1.351 . S
C1122 C1116 1.428 . S
C1122 N1121 1.351 . S
C1122 C1123 1.434 . S
C1123 C1114 1.429 . S
C1123 N1120 1.350 . S
C1123 C1122 1.434 . S
C1124 C1125 1.369 . S
C1124 C1126 1.419 . S
C1124 H1128 0.930 . S
C1125 C1124 1.369 . S
C1125 C1134 1.429 . S
C1126 C1124 1.419 . S
C1126 C1127 1.363 . S
C1126 H1129 0.929 . S
C1127 C1126 1.363 . S
C1127 C1133 1.428 . S
H1128 C1124 0.930 . S
H1129 C1126 0.929 . S
S1130 N1131 1.613 . S
S1130 N1132 1.610 . S
N1131 S1130 1.613 . S
N1131 C1134 1.350 . S
N1132 S1130 1.610 . S
N1132 C1133 1.351 . S
C1133 C1127 1.428 . S
C1133 N1132 1.351 . S
C1133 C1134 1.434 . S
C1134 C1125 1.429 . S
C1134 N1131 1.350 . S
C1134 C1133 1.434 . S
C1135 C1136 1.369 . S
C1135 C1137 1.419 . S
C1135 H1139 0.930 . S
C1136 C1135 1.369 . S
C1136 C1145 1.429 . S
C1137 C1135 1.419 . S
C1137 C1138 1.363 . S
C1137 H1140 0.929 . S
C1138 C1137 1.363 . S
C1138 C1144 1.428 . S
H1139 C1135 0.930 . S
H1140 C1137 0.929 . S
S1141 N1142 1.613 . S
S1141 N1143 1.610 . S
N1142 S1141 1.613 . S
N1142 C1145 1.350 . S
N1143 S1141 1.610 . S
N1143 C1144 1.351 . S
C1144 C1138 1.428 . S
C1144 N1143 1.351 . S
C1144 C1145 1.434 . S
C1145 C1136 1.429 . S
C1145 N1142 1.350 . S
C1145 C1144 1.434 . S
C1146 C1147 1.369 . S
C1146 C1148 1.419 . S
C1146 H1150 0.930 . S
C1147 C1146 1.369 . S
C1147 C1156 1.429 . S
C1148 C1146 1.419 . S
C1148 C1149 1.363 . S
C1148 H1151 0.929 . S
C1149 C1148 1.363 . S
C1149 C1155 1.428 . S
H1150 C1146 0.930 . S
H1151 C1148 0.929 . S
S1152 N1153 1.613 . S
S1152 N1154 1.610 . S
N1153 S1152 1.613 . S
N1153 C1156 1.350 . S
N1154 S1152 1.610 . S
N1154 C1155 1.351 . S
C1155 C1149 1.428 . S
C1155 N1154 1.351 . S
C1155 C1156 1.434 . S
C1156 C1147 1.429 . S
C1156 N1153 1.350 . S
C1156 C1155 1.434 . S
C1157 C1158 1.369 . S
C1157 C1159 1.419 . S
C1157 H1161 0.930 . S
C1158 C1157 1.369 . S
C1158 C1167 1.429 . S
C1159 C1157 1.419 . S
C1159 C1160 1.363 . S
C1159 H1162 0.929 . S
C1160 C1159 1.363 . S
C1160 C1166 1.428 . S
H1161 C1157 0.930 . S
H1162 C1159 0.929 . S
S1163 N1164 1.613 . S
S1163 N1165 1.610 . S
N1164 S1163 1.613 . S
N1164 C1167 1.350 . S
N1165 S1163 1.610 . S
N1165 C1166 1.351 . S
C1166 C1160 1.428 . S
C1166 N1165 1.351 . S
C1166 C1167 1.434 . S
C1167 C1158 1.429 . S
C1167 N1164 1.350 . S
C1167 C1166 1.434 . S
C1168 C1169 1.369 . S
C1168 C1170 1.419 . S
C1168 H1172 0.930 . S
C1169 C1168 1.369 . S
C1169 C1178 1.429 . S
C1170 C1168 1.419 . S
C1170 C1171 1.363 . S
C1170 H1173 0.929 . S
C1171 C1170 1.363 . S
C1171 C1177 1.428 . S
H1172 C1168 0.930 . S
H1173 C1170 0.929 . S
S1174 N1175 1.613 . S
S1174 N1176 1.610 . S
N1175 S1174 1.613 . S
N1175 C1178 1.350 . S
N1176 S1174 1.610 . S
N1176 C1177 1.351 . S
C1177 C1171 1.428 . S
C1177 N1176 1.351 . S
C1177 C1178 1.434 . S
C1178 C1169 1.429 . S
C1178 N1175 1.350 . S
C1178 C1177 1.434 . S
C1179 C1180 1.369 . S
C1179 C1181 1.419 . S
C1179 H1183 0.930 . S
C1180 C1179 1.369 . S
C1180 C1189 1.429 . S
C1181 C1179 1.419 . S
C1181 C1182 1.363 . S
C1181 H1184 0.929 . S
C1182 C1181 1.363 . S
C1182 C1188 1.428 . S
H1183 C1179 0.930 . S
H1184 C1181 0.929 . S
S1185 N1186 1.613 . S
S1185 N1187 1.610 . S
N1186 S1185 1.613 . S
N1186 C1189 1.350 . S
N1187 S1185 1.610 . S
N1187 C1188 1.351 . S
C1188 C1182 1.428 . S
C1188 N1187 1.351 . S
C1188 C1189 1.434 . S
C1189 C1180 1.429 . S
C1189 N1186 1.350 . S
C1189 C1188 1.434 . S
C1190 C1191 1.369 . S
C1190 C1192 1.419 . S
C1190 H1194 0.930 . S
C1191 C1190 1.369 . S
C1191 C1200 1.429 . S
C1192 C1190 1.419 . S
C1192 C1193 1.363 . S
C1192 H1195 0.929 . S
C1193 C1192 1.363 . S
C1193 C1199 1.428 . S
H1194 C1190 0.930 . S
H1195 C1192 0.929 . S
S1196 N1197 1.613 . S
S1196 N1198 1.610 . S
N1197 S1196 1.613 . S
N1197 C1200 1.350 . S
N1198 S1196 1.610 . S
N1198 C1199 1.351 . S
C1199 C1193 1.428 . S
C1199 N1198 1.351 . S
C1199 C1200 1.434 . S
C1200 C1191 1.429 . S
C1200 N1197 1.350 . S
C1200 C1199 1.434 . S
C1201 C1202 1.369 . S
C1201 C1203 1.419 . S
C1201 H1205 0.930 . S
C1202 C1201 1.369 . S
C1202 C1211 1.429 . S
C1203 C1201 1.419 . S
C1203 C1204 1.363 . S
C1203 H1206 0.929 . S
C1204 C1203 1.363 . S
C1204 C1210 1.428 . S
H1205 C1201 0.930 . S
H1206 C1203 0.929 . S
S1207 N1208 1.613 . S
S1207 N1209 1.610 . S
N1208 S1207 1.613 . S
N1208 C1211 1.350 . S
N1209 S1207 1.610 . S
N1209 C1210 1.351 . S
C1210 C1204 1.428 . S
C1210 N1209 1.351 . S
C1210 C1211 1.434 . S
C1211 C1202 1.429 . S
C1211 N1208 1.350 . S
C1211 C1210 1.434 . S
C1212 C1213 1.369 . S
C1212 C1214 1.419 . S
C1212 H1216 0.930 . S
C1213 C1212 1.369 . S
C1213 C1222 1.429 . S
C1214 C1212 1.419 . S
C1214 C1215 1.363 . S
C1214 H1217 0.929 . S
C1215 C1214 1.363 . S
C1215 C1221 1.428 . S
H1216 C1212 0.930 . S
H1217 C1214 0.929 . S
S1218 N1219 1.613 . S
S1218 N1220 1.610 . S
N1219 S1218 1.613 . S
N1219 C1222 1.350 . S
N1220 S1218 1.610 . S
N1220 C1221 1.351 . S
C1221 C1215 1.428 . S
C1221 N1220 1.351 . S
C1221 C1222 1.434 . S
C1222 C1213 1.429 . S
C1222 N1219 1.350 . S
C1222 C1221 1.434 . S
C1223 C1224 1.369 . S
C1223 C1225 1.419 . S
C1223 H1227 0.930 . S
C1224 C1223 1.369 . S
C1224 C1233 1.429 . S
C1225 C1223 1.419 . S
C1225 C1226 1.363 . S
C1225 H1228 0.929 . S
C1226 C1225 1.363 . S
C1226 C1232 1.428 . S
H1227 C1223 0.930 . S
H1228 C1225 0.929 . S
S1229 N1230 1.613 . S
S1229 N1231 1.610 . S
N1230 S1229 1.613 . S
N1230 C1233 1.350 . S
N1231 S1229 1.610 . S
N1231 C1232 1.351 . S
C1232 C1226 1.428 . S
C1232 N1231 1.351 . S
C1232 C1233 1.434 . S
C1233 C1224 1.429 . S
C1233 N1230 1.350 . S
C1233 C1232 1.434 . S
C1234 C1235 1.369 . S
C1234 C1236 1.419 . S
C1234 H1238 0.930 . S
C1235 C1234 1.369 . S
C1235 C1244 1.429 . S
C1236 C1234 1.419 . S
C1236 C1237 1.363 . S
C1236 H1239 0.929 . S
C1237 C1236 1.363 . S
C1237 C1243 1.428 . S
H1238 C1234 0.930 . S
H1239 C1236 0.929 . S
S1240 N1241 1.613 . S
S1240 N1242 1.610 . S
N1241 S1240 1.613 . S
N1241 C1244 1.350 . S
N1242 S1240 1.610 . S
N1242 C1243 1.351 . S
C1243 C1237 1.428 . S
C1243 N1242 1.351 . S
C1243 C1244 1.434 . S
C1244 C1235 1.429 . S
C1244 N1241 1.350 . S
C1244 C1243 1.434 . S
C1245 C1246 1.369 . S
C1245 C1247 1.419 . S
C1245 H1249 0.930 . S
C1246 C1245 1.369 . S
C1246 C1255 1.429 . S
C1247 C1245 1.419 . S
C1247 C1248 1.363 . S
C1247 H1250 0.929 . S
C1248 C1247 1.363 . S
C1248 C1254 1.428 . S
H1249 C1245 0.930 . S
H1250 C1247 0.929 . S
S1251 N1252 1.613 . S
S1251 N1253 1.610 . S
N1252 S1251 1.613 . S
N1252 C1255 1.350 . S
N1253 S1251 1.610 . S
N1253 C1254 1.351 . S
C1254 C1248 1.428 . S
C1254 N1253 1.351 . S
C1254 C1255 1.434 . S
C1255 C1246 1.429 . S
C1255 N1252 1.350 . S
C1255 C1254 1.434 . S
C1256 C1257 1.369 . S
C1256 C1258 1.419 . S
C1256 H1260 0.930 . S
C1257 C1256 1.369 . S
C1257 C1266 1.429 . S
C1258 C1256 1.419 . S
C1258 C1259 1.363 . S
C1258 H1261 0.929 . S
C1259 C1258 1.363 . S
C1259 C1265 1.428 . S
H1260 C1256 0.930 . S
H1261 C1258 0.929 . S
S1262 N1263 1.613 . S
S1262 N1264 1.610 . S
N1263 S1262 1.613 . S
N1263 C1266 1.350 . S
N1264 S1262 1.610 . S
N1264 C1265 1.351 . S
C1265 C1259 1.428 . S
C1265 N1264 1.351 . S
C1265 C1266 1.434 . S
C1266 C1257 1.429 . S
C1266 N1263 1.350 . S
C1266 C1265 1.434 . S
C1267 C1268 1.369 . S
C1267 C1269 1.419 . S
C1267 H1271 0.930 . S
C1268 C1267 1.369 . S
C1268 C1277 1.429 . S
C1269 C1267 1.419 . S
C1269 C1270 1.363 . S
C1269 H1272 0.929 . S
C1270 C1269 1.363 . S
C1270 C1276 1.428 . S
H1271 C1267 0.930 . S
H1272 C1269 0.929 . S
S1273 N1274 1.613 . S
S1273 N1275 1.610 . S
N1274 S1273 1.613 . S
N1274 C1277 1.350 . S
N1275 S1273 1.610 . S
N1275 C1276 1.351 . S
C1276 C1270 1.428 . S
C1276 N1275 1.351 . S
C1276 C1277 1.434 . S
C1277 C1268 1.429 . S
C1277 N1274 1.350 . S
C1277 C1276 1.434 . S
C1278 C1279 1.369 . S
C1278 C1280 1.419 . S
C1278 H1282 0.930 . S
C1279 C1278 1.369 . S
C1279 C1288 1.429 . S
C1280 C1278 1.419 . S
C1280 C1281 1.363 . S
C1280 H1283 0.929 . S
C1281 C1280 1.363 . S
C1281 C1287 1.428 . S
H1282 C1278 0.930 . S
H1283 C1280 0.929 . S
S1284 N1285 1.613 . S
S1284 N1286 1.610 . S
N1285 S1284 1.613 . S
N1285 C1288 1.350 . S
N1286 S1284 1.610 . S
N1286 C1287 1.351 . S
C1287 C1281 1.428 . S
C1287 N1286 1.351 . S
C1287 C1288 1.434 . S
C1288 C1279 1.429 . S
C1288 N1285 1.350 . S
C1288 C1287 1.434 . S
C1289 C1290 1.369 . S
C1289 C1291 1.419 . S
C1289 H1293 0.930 . S
C1290 C1289 1.369 . S
C1290 C1299 1.429 . S
C1291 C1289 1.419 . S
C1291 C1292 1.363 . S
C1291 H1294 0.929 . S
C1292 C1291 1.363 . S
C1292 C1298 1.428 . S
H1293 C1289 0.930 . S
H1294 C1291 0.929 . S
S1295 N1296 1.613 . S
S1295 N1297 1.610 . S
N1296 S1295 1.613 . S
N1296 C1299 1.350 . S
N1297 S1295 1.610 . S
N1297 C1298 1.351 . S
C1298 C1292 1.428 . S
C1298 N1297 1.351 . S
C1298 C1299 1.434 . S
C1299 C1290 1.429 . S
C1299 N1296 1.350 . S
C1299 C1298 1.434 . S
C1300 C1301 1.369 . S
C1300 C1302 1.419 . S
C1300 H1304 0.930 . S
C1301 C1300 1.369 . S
C1301 C1310 1.429 . S
C1302 C1300 1.419 . S
C1302 C1303 1.363 . S
C1302 H1305 0.929 . S
C1303 C1302 1.363 . S
C1303 C1309 1.428 . S
H1304 C1300 0.930 . S
H1305 C1302 0.929 . S
S1306 N1307 1.613 . S
S1306 N1308 1.610 . S
N1307 S1306 1.613 . S
N1307 C1310 1.350 . S
N1308 S1306 1.610 . S
N1308 C1309 1.351 . S
C1309 C1303 1.428 . S
C1309 N1308 1.351 . S
C1309 C1310 1.434 . S
C1310 C1301 1.429 . S
C1310 N1307 1.350 . S
C1310 C1309 1.434 . S
C1311 C1312 1.369 . S
C1311 C1313 1.419 . S
C1311 H1315 0.930 . S
C1312 C1311 1.369 . S
C1312 C1321 1.429 . S
C1313 C1311 1.419 . S
C1313 C1314 1.363 . S
C1313 H1316 0.929 . S
C1314 C1313 1.363 . S
C1314 C1320 1.428 . S
H1315 C1311 0.930 . S
H1316 C1313 0.929 . S
S1317 N1318 1.613 . S
S1317 N1319 1.610 . S
N1318 S1317 1.613 . S
N1318 C1321 1.350 . S
N1319 S1317 1.610 . S
N1319 C1320 1.351 . S
C1320 C1314 1.428 . S
C1320 N1319 1.351 . S
C1320 C1321 1.434 . S
C1321 C1312 1.429 . S
C1321 N1318 1.350 . S
C1321 C1320 1.434 . S
C1322 C1323 1.369 . S
C1322 C1324 1.419 . S
C1322 H1326 0.930 . S
C1323 C1322 1.369 . S
C1323 C1332 1.429 . S
C1324 C1322 1.419 . S
C1324 C1325 1.363 . S
C1324 H1327 0.929 . S
C1325 C1324 1.363 . S
C1325 C1331 1.428 . S
H1326 C1322 0.930 . S
H1327 C1324 0.929 . S
S1328 N1329 1.613 . S
S1328 N1330 1.610 . S
N1329 S1328 1.613 . S
N1329 C1332 1.350 . S
N1330 S1328 1.610 . S
N1330 C1331 1.351 . S
C1331 C1325 1.428 . S
C1331 N1330 1.351 . S
C1331 C1332 1.434 . S
C1332 C1323 1.429 . S
C1332 N1329 1.350 . S
C1332 C1331 1.434 . S
C1333 C1334 1.369 . S
C1333 C1335 1.419 . S
C1333 H1337 0.930 . S
C1334 C1333 1.369 . S
C1334 C1343 1.429 . S
C1335 C1333 1.419 . S
C1335 C1336 1.363 . S
C1335 H1338 0.929 . S
C1336 C1335 1.363 . S
C1336 C1342 1.428 . S
H1337 C1333 0.930 . S
H1338 C1335 0.929 . S
S1339 N1340 1.613 . S
S1339 N1341 1.610 . S
N1340 S1339 1.613 . S
N1340 C1343 1.350 . S
N1341 S1339 1.610 . S
N1341 C1342 1.351 . S
C1342 C1336 1.428 . S
C1342 N1341 1.351 . S
C1342 C1343 1.434 . S
C1343 C1334 1.429 . S
C1343 N1340 1.350 . S
C1343 C1342 1.434 . S
C1344 C1345 1.369 . S
C1344 C1346 1.419 . S
C1344 H1348 0.930 . S
C1345 C1344 1.369 . S
C1345 C1354 1.429 . S
C1346 C1344 1.419 . S
C1346 C1347 1.363 . S
C1346 H1349 0.929 . S
C1347 C1346 1.363 . S
C1347 C1353 1.428 . S
H1348 C1344 0.930 . S
H1349 C1346 0.929 . S
S1350 N1351 1.613 . S
S1350 N1352 1.610 . S
N1351 S1350 1.613 . S
N1351 C1354 1.350 . S
N1352 S1350 1.610 . S
N1352 C1353 1.351 . S
C1353 C1347 1.428 . S
C1353 N1352 1.351 . S
C1353 C1354 1.434 . S
C1354 C1345 1.429 . S
C1354 N1351 1.350 . S
C1354 C1353 1.434 . S
C1355 C1356 1.369 . S
C1355 C1357 1.419 . S
C1355 H1359 0.930 . S
C1356 C1355 1.369 . S
C1356 C1365 1.429 . S
C1357 C1355 1.419 . S
C1357 C1358 1.363 . S
C1357 H1360 0.929 . S
C1358 C1357 1.363 . S
C1358 C1364 1.428 . S
H1359 C1355 0.930 . S
H1360 C1357 0.929 . S
S1361 N1362 1.613 . S
S1361 N1363 1.610 . S
N1362 S1361 1.613 . S
N1362 C1365 1.350 . S
N1363 S1361 1.610 . S
N1363 C1364 1.351 . S
C1364 C1358 1.428 . S
C1364 N1363 1.351 . S
C1364 C1365 1.434 . S
C1365 C1356 1.429 . S
C1365 N1362 1.350 . S
C1365 C1364 1.434 . S
C1366 C1367 1.369 . S
C1366 C1368 1.419 . S
C1366 H1370 0.930 . S
C1367 C1366 1.369 . S
C1367 C1376 1.429 . S
C1368 C1366 1.419 . S
C1368 C1369 1.363 . S
C1368 H1371 0.929 . S
C1369 C1368 1.363 . S
C1369 C1375 1.428 . S
H1370 C1366 0.930 . S
H1371 C1368 0.929 . S
S1372 N1373 1.613 . S
S1372 N1374 1.610 . S
N1373 S1372 1.613 . S
N1373 C1376 1.350 . S
N1374 S1372 1.610 . S
N1374 C1375 1.351 . S
C1375 C1369 1.428 . S
C1375 N1374 1.351 . S
C1375 C1376 1.434 . S
C1376 C1367 1.429 . S
C1376 N1373 1.350 . S
C1376 C1375 1.434 . S
C1377 C1378 1.369 . S
C1377 C1379 1.419 . S
C1377 H1381 0.930 . S
C1378 C1377 1.369 . S
C1378 C1387 1.429 . S
C1379 C1377 1.419 . S
C1379 C1380 1.363 . S
C1379 H1382 0.929 . S
C1380 C1379 1.363 . S
C1380 C1386 1.428 . S
H1381 C1377 0.930 . S
H1382 C1379 0.929 . S
S1383 N1384 1.613 . S
S1383 N1385 1.610 . S
N1384 S1383 1.613 . S
N1384 C1387 1.350 . S
N1385 S1383 1.610 . S
N1385 C1386 1.351 . S
C1386 C1380 1.428 . S
C1386 N1385 1.351 . S
C1386 C1387 1.434 . S
C1387 C1378 1.429 . S
C1387 N1384 1.350 . S
C1387 C1386 1.434 . S
C1388 C1389 1.369 . S
C1388 C1390 1.419 . S
C1388 H1392 0.930 . S
C1389 C1388 1.369 . S
C1389 C1398 1.429 . S
C1390 C1388 1.419 . S
C1390 C1391 1.363 . S
C1390 H1393 0.929 . S
C1391 C1390 1.363 . S
C1391 C1397 1.428 . S
H1392 C1388 0.930 . S
H1393 C1390 0.929 . S
S1394 N1395 1.613 . S
S1394 N1396 1.610 . S
N1395 S1394 1.613 . S
N1395 C1398 1.350 . S
N1396 S1394 1.610 . S
N1396 C1397 1.351 . S
C1397 C1391 1.428 . S
C1397 N1396 1.351 . S
C1397 C1398 1.434 . S
C1398 C1389 1.429 . S
C1398 N1395 1.350 . S
C1398 C1397 1.434 . S
C1399 C1400 1.369 . S
C1399 C1401 1.419 . S
C1399 H1403 0.930 . S
C1400 C1399 1.369 . S
C1400 C1409 1.429 . S
C1401 C1399 1.419 . S
C1401 C1402 1.363 . S
C1401 H1404 0.929 . S
C1402 C1401 1.363 . S
C1402 C1408 1.428 . S
H1403 C1399 0.930 . S
H1404 C1401 0.929 . S
S1405 N1406 1.613 . S
S1405 N1407 1.610 . S
N1406 S1405 1.613 . S
N1406 C1409 1.350 . S
N1407 S1405 1.610 . S
N1407 C1408 1.351 . S
C1408 C1402 1.428 . S
C1408 N1407 1.351 . S
C1408 C1409 1.434 . S
C1409 C1400 1.429 . S
C1409 N1406 1.350 . S
C1409 C1408 1.434 . S
C1410 C1411 1.369 . S
C1410 C1412 1.419 . S
C1410 H1414 0.930 . S
C1411 C1410 1.369 . S
C1411 C1420 1.429 . S
C1412 C1410 1.419 . S
C1412 C1413 1.363 . S
C1412 H1415 0.929 . S
C1413 C1412 1.363 . S
C1413 C1419 1.428 . S
H1414 C1410 0.930 . S
H1415 C1412 0.929 . S
S1416 N1417 1.613 . S
S1416 N1418 1.610 . S
N1417 S1416 1.613 . S
N1417 C1420 1.350 . S
N1418 S1416 1.610 . S
N1418 C1419 1.351 . S
C1419 C1413 1.428 . S
C1419 N1418 1.351 . S
C1419 C1420 1.434 . S
C1420 C1411 1.429 . S
C1420 N1417 1.350 . S
C1420 C1419 1.434 . S
C1421 C1422 1.369 . S
C1421 C1423 1.419 . S
C1421 H1425 0.930 . S
C1422 C1421 1.369 . S
C1422 C1431 1.429 . S
C1423 C1421 1.419 . S
C1423 C1424 1.363 . S
C1423 H1426 0.929 . S
C1424 C1423 1.363 . S
C1424 C1430 1.428 . S
H1425 C1421 0.930 . S
H1426 C1423 0.929 . S
S1427 N1428 1.613 . S
S1427 N1429 1.610 . S
N1428 S1427 1.613 . S
N1428 C1431 1.350 . S
N1429 S1427 1.610 . S
N1429 C1430 1.351 . S
C1430 C1424 1.428 . S
C1430 N1429 1.351 . S
C1430 C1431 1.434 . S
C1431 C1422 1.429 . S
C1431 N1428 1.350 . S
C1431 C1430 1.434 . S
C1432 C1433 1.369 . S
C1432 C1434 1.419 . S
C1432 H1436 0.930 . S
C1433 C1432 1.369 . S
C1433 C1442 1.429 . S
C1434 C1432 1.419 . S
C1434 C1435 1.363 . S
C1434 H1437 0.929 . S
C1435 C1434 1.363 . S
C1435 C1441 1.428 . S
H1436 C1432 0.930 . S
H1437 C1434 0.929 . S
S1438 N1439 1.613 . S
S1438 N1440 1.610 . S
N1439 S1438 1.613 . S
N1439 C1442 1.350 . S
N1440 S1438 1.610 . S
N1440 C1441 1.351 . S
C1441 C1435 1.428 . S
C1441 N1440 1.351 . S
C1441 C1442 1.434 . S
C1442 C1433 1.429 . S
C1442 N1439 1.350 . S
C1442 C1441 1.434 . S
C1443 C1444 1.369 . S
C1443 C1445 1.419 . S
C1443 H1447 0.930 . S
C1444 C1443 1.369 . S
C1444 C1453 1.429 . S
C1445 C1443 1.419 . S
C1445 C1446 1.363 . S
C1445 H1448 0.929 . S
C1446 C1445 1.363 . S
C1446 C1452 1.428 . S
H1447 C1443 0.930 . S
H1448 C1445 0.929 . S
S1449 N1450 1.613 . S
S1449 N1451 1.610 . S
N1450 S1449 1.613 . S
N1450 C1453 1.350 . S
N1451 S1449 1.610 . S
N1451 C1452 1.351 . S
C1452 C1446 1.428 . S
C1452 N1451 1.351 . S
C1452 C1453 1.434 . S
C1453 C1444 1.429 . S
C1453 N1450 1.350 . S
C1453 C1452 1.434 . S
C1454 C1455 1.369 . S
C1454 C1456 1.419 . S
C1454 H1458 0.930 . S
C1455 C1454 1.369 . S
C1455 C1464 1.429 . S
C1456 C1454 1.419 . S
C1456 C1457 1.363 . S
C1456 H1459 0.929 . S
C1457 C1456 1.363 . S
C1457 C1463 1.428 . S
H1458 C1454 0.930 . S
H1459 C1456 0.929 . S
S1460 N1461 1.613 . S
S1460 N1462 1.610 . S
N1461 S1460 1.613 . S
N1461 C1464 1.350 . S
N1462 S1460 1.610 . S
N1462 C1463 1.351 . S
C1463 C1457 1.428 . S
C1463 N1462 1.351 . S
C1463 C1464 1.434 . S
C1464 C1455 1.429 . S
C1464 N1461 1.350 . S
C1464 C1463 1.434 . S
C1465 C1466 1.369 . S
C1465 C1467 1.419 . S
C1465 H1469 0.930 . S
C1466 C1465 1.369 . S
C1466 C1475 1.429 . S
C1467 C1465 1.419 . S
C1467 C1468 1.363 . S
C1467 H1470 0.929 . S
C1468 C1467 1.363 . S
C1468 C1474 1.428 . S
H1469 C1465 0.930 . S
H1470 C1467 0.929 . S
S1471 N1472 1.613 . S
S1471 N1473 1.610 . S
N1472 S1471 1.613 . S
N1472 C1475 1.350 . S
N1473 S1471 1.610 . S
N1473 C1474 1.351 . S
C1474 C1468 1.428 . S
C1474 N1473 1.351 . S
C1474 C1475 1.434 . S
C1475 C1466 1.429 . S
C1475 N1472 1.350 . S
C1475 C1474 1.434 . S
C1476 C1477 1.369 . S
C1476 C1478 1.419 . S
C1476 H1480 0.930 . S
C1477 C1476 1.369 . S
C1477 C1486 1.429 . S
C1478 C1476 1.419 . S
C1478 C1479 1.363 . S
C1478 H1481 0.929 . S
C1479 C1478 1.363 . S
C1479 C1485 1.428 . S
H1480 C1476 0.930 . S
H1481 C1478 0.929 . S
S1482 N1483 1.613 . S
S1482 N1484 1.610 . S
N1483 S1482 1.613 . S
N1483 C1486 1.350 . S
N1484 S1482 1.610 . S
N1484 C1485 1.351 . S
C1485 C1479 1.428 . S
C1485 N1484 1.351 . S
C1485 C1486 1.434 . S
C1486 C1477 1.429 . S
C1486 N1483 1.350 . S
C1486 C1485 1.434 . S
C1487 C1488 1.369 . S
C1487 C1489 1.419 . S
C1487 H1491 0.930 . S
C1488 C1487 1.369 . S
C1488 C1497 1.429 . S
C1489 C1487 1.419 . S
C1489 C1490 1.363 . S
C1489 H1492 0.929 . S
C1490 C1489 1.363 . S
C1490 C1496 1.428 . S
H1491 C1487 0.930 . S
H1492 C1489 0.929 . S
S1493 N1494 1.613 . S
S1493 N1495 1.610 . S
N1494 S1493 1.613 . S
N1494 C1497 1.350 . S
N1495 S1493 1.610 . S
N1495 C1496 1.351 . S
C1496 C1490 1.428 . S
C1496 N1495 1.351 . S
C1496 C1497 1.434 . S
C1497 C1488 1.429 . S
C1497 N1494 1.350 . S
C1497 C1496 1.434 . S
C1498 C1499 1.369 . S
C1498 C1500 1.419 . S
C1498 H1502 0.930 . S
C1499 C1498 1.369 . S
C1499 C1508 1.429 . S
C1500 C1498 1.419 . S
C1500 C1501 1.363 . S
C1500 H1503 0.929 . S
C1501 C1500 1.363 . S
C1501 C1507 1.428 . S
H1502 C1498 0.930 . S
H1503 C1500 0.929 . S
S1504 N1505 1.613 . S
S1504 N1506 1.610 . S
N1505 S1504 1.613 . S
N1505 C1508 1.350 . S
N1506 S1504 1.610 . S
N1506 C1507 1.351 . S
C1507 C1501 1.428 . S
C1507 N1506 1.351 . S
C1507 C1508 1.434 . S
C1508 C1499 1.429 . S
C1508 N1505 1.350 . S
C1508 C1507 1.434 . S
C1509 C1510 1.369 . S
C1509 C1511 1.419 . S
C1509 H1513 0.930 . S
C1510 C1509 1.369 . S
C1510 C1519 1.429 . S
C1511 C1509 1.419 . S
C1511 C1512 1.363 . S
C1511 H1514 0.929 . S
C1512 C1511 1.363 . S
C1512 C1518 1.428 . S
H1513 C1509 0.930 . S
H1514 C1511 0.929 . S
S1515 N1516 1.613 . S
S1515 N1517 1.610 . S
N1516 S1515 1.613 . S
N1516 C1519 1.350 . S
N1517 S1515 1.610 . S
N1517 C1518 1.351 . S
C1518 C1512 1.428 . S
C1518 N1517 1.351 . S
C1518 C1519 1.434 . S
C1519 C1510 1.429 . S
C1519 N1516 1.350 . S
C1519 C1518 1.434 . S
C1520 C1521 1.369 . S
C1520 C1522 1.419 . S
C1520 H1524 0.930 . S
C1521 C1520 1.369 . S
C1521 C1530 1.429 . S
C1522 C1520 1.419 . S
C1522 C1523 1.363 . S
C1522 H1525 0.929 . S
C1523 C1522 1.363 . S
C1523 C1529 1.428 . S
H1524 C1520 0.930 . S
H1525 C1522 0.929 . S
S1526 N1527 1.613 . S
S1526 N1528 1.610 . S
N1527 S1526 1.613 . S
N1527 C1530 1.350 . S
N1528 S1526 1.610 . S
N1528 C1529 1.351 . S
C1529 C1523 1.428 . S
C1529 N1528 1.351 . S
C1529 C1530 1.434 . S
C1530 C1521 1.429 . S
C1530 N1527 1.350 . S
C1530 C1529 1.434 . S
C1531 C1532 1.369 . S
C1531 C1533 1.419 . S
C1531 H1535 0.930 . S
C1532 C1531 1.369 . S
C1532 C1541 1.429 . S
C1533 C1531 1.419 . S
C1533 C1534 1.363 . S
C1533 H1536 0.929 . S
C1534 C1533 1.363 . S
C1534 C1540 1.428 . S
H1535 C1531 0.930 . S
H1536 C1533 0.929 . S
S1537 N1538 1.613 . S
S1537 N1539 1.610 . S
N1538 S1537 1.613 . S
N1538 C1541 1.350 . S
N1539 S1537 1.610 . S
N1539 C1540 1.351 . S
C1540 C1534 1.428 . S
C1540 N1539 1.351 . S
C1540 C1541 1.434 . S
C1541 C1532 1.429 . S
C1541 N1538 1.350 . S
C1541 C1540 1.434 . S
C1542 C1543 1.369 . S
C1542 C1544 1.419 . S
C1542 H1546 0.930 . S
C1543 C1542 1.369 . S
C1543 C1552 1.429 . S
C1544 C1542 1.419 . S
C1544 C1545 1.363 . S
C1544 H1547 0.929 . S
C1545 C1544 1.363 . S
C1545 C1551 1.428 . S
H1546 C1542 0.930 . S
H1547 C1544 0.929 . S
S1548 N1549 1.613 . S
S1548 N1550 1.610 . S
N1549 S1548 1.613 . S
N1549 C1552 1.350 . S
N1550 S1548 1.610 . S
N1550 C1551 1.351 . S
C1551 C1545 1.428 . S
C1551 N1550 1.351 . S
C1551 C1552 1.434 . S
C1552 C1543 1.429 . S
C1552 N1549 1.350 . S
C1552 C1551 1.434 . S
C1553 C1554 1.369 . S
C1553 C1555 1.419 . S
C1553 H1557 0.930 . S
C1554 C1553 1.369 . S
C1554 C1563 1.429 . S
C1555 C1553 1.419 . S
C1555 C1556 1.363 . S
C1555 H1558 0.929 . S
C1556 C1555 1.363 . S
C1556 C1562 1.428 . S
H1557 C1553 0.930 . S
H1558 C1555 0.929 . S
S1559 N1560 1.613 . S
S1559 N1561 1.610 . S
N1560 S1559 1.613 . S
N1560 C1563 1.350 . S
N1561 S1559 1.610 . S
N1561 C1562 1.351 . S
C1562 C1556 1.428 . S
C1562 N1561 1.351 . S
C1562 C1563 1.434 . S
C1563 C1554 1.429 . S
C1563 N1560 1.350 . S
C1563 C1562 1.434 . S
C1564 C1565 1.369 . S
C1564 C1566 1.419 . S
C1564 H1568 0.930 . S
C1565 C1564 1.369 . S
C1565 C1574 1.429 . S
C1566 C1564 1.419 . S
C1566 C1567 1.363 . S
C1566 H1569 0.929 . S
C1567 C1566 1.363 . S
C1567 C1573 1.428 . S
H1568 C1564 0.930 . S
H1569 C1566 0.929 . S
S1570 N1571 1.613 . S
S1570 N1572 1.610 . S
N1571 S1570 1.613 . S
N1571 C1574 1.350 . S
N1572 S1570 1.610 . S
N1572 C1573 1.351 . S
C1573 C1567 1.428 . S
C1573 N1572 1.351 . S
C1573 C1574 1.434 . S
C1574 C1565 1.429 . S
C1574 N1571 1.350 . S
C1574 C1573 1.434 . S
C1575 C1576 1.369 . S
C1575 C1577 1.419 . S
C1575 H1579 0.930 . S
C1576 C1575 1.369 . S
C1576 C1585 1.429 . S
C1577 C1575 1.419 . S
C1577 C1578 1.363 . S
C1577 H1580 0.929 . S
C1578 C1577 1.363 . S
C1578 C1584 1.428 . S
H1579 C1575 0.930 . S
H1580 C1577 0.929 . S
S1581 N1582 1.613 . S
S1581 N1583 1.610 . S
N1582 S1581 1.613 . S
N1582 C1585 1.350 . S
N1583 S1581 1.610 . S
N1583 C1584 1.351 . S
C1584 C1578 1.428 . S
C1584 N1583 1.351 . S
C1584 C1585 1.434 . S
C1585 C1576 1.429 . S
C1585 N1582 1.350 . S
C1585 C1584 1.434 . S
C1586 C1587 1.369 . S
C1586 C1588 1.419 . S
C1586 H1590 0.930 . S
C1587 C1586 1.369 . S
C1587 C1596 1.429 . S
C1588 C1586 1.419 . S
C1588 C1589 1.363 . S
C1588 H1591 0.929 . S
C1589 C1588 1.363 . S
C1589 C1595 1.428 . S
H1590 C1586 0.930 . S
H1591 C1588 0.929 . S
S1592 N1593 1.613 . S
S1592 N1594 1.610 . S
N1593 S1592 1.613 . S
N1593 C1596 1.350 . S
N1594 S1592 1.610 . S
N1594 C1595 1.351 . S
C1595 C1589 1.428 . S
C1595 N1594 1.351 . S
C1595 C1596 1.434 . S
C1596 C1587 1.429 . S
C1596 N1593 1.350 . S
C1596 C1595 1.434 . S
C1597 C1598 1.369 . S
C1597 C1599 1.419 . S
C1597 H1601 0.930 . S
C1598 C1597 1.369 . S
C1598 C1607 1.429 . S
C1599 C1597 1.419 . S
C1599 C1600 1.363 . S
C1599 H1602 0.929 . S
C1600 C1599 1.363 . S
C1600 C1606 1.428 . S
H1601 C1597 0.930 . S
H1602 C1599 0.929 . S
S1603 N1604 1.613 . S
S1603 N1605 1.610 . S
N1604 S1603 1.613 . S
N1604 C1607 1.350 . S
N1605 S1603 1.610 . S
N1605 C1606 1.351 . S
C1606 C1600 1.428 . S
C1606 N1605 1.351 . S
C1606 C1607 1.434 . S
C1607 C1598 1.429 . S
C1607 N1604 1.350 . S
C1607 C1606 1.434 . S
C1608 C1609 1.369 . S
C1608 C1610 1.419 . S
C1608 H1612 0.930 . S
C1609 C1608 1.369 . S
C1609 C1618 1.429 . S
C1610 C1608 1.419 . S
C1610 C1611 1.363 . S
C1610 H1613 0.929 . S
C1611 C1610 1.363 . S
C1611 C1617 1.428 . S
H1612 C1608 0.930 . S
H1613 C1610 0.929 . S
S1614 N1615 1.613 . S
S1614 N1616 1.610 . S
N1615 S1614 1.613 . S
N1615 C1618 1.350 . S
N1616 S1614 1.610 . S
N1616 C1617 1.351 . S
C1617 C1611 1.428 . S
C1617 N1616 1.351 . S
C1617 C1618 1.434 . S
C1618 C1609 1.429 . S
C1618 N1615 1.350 . S
C1618 C1617 1.434 . S
C1619 C1620 1.369 . S
C1619 C1621 1.419 . S
C1619 H1623 0.930 . S
C1620 C1619 1.369 . S
C1620 C1629 1.429 . S
C1621 C1619 1.419 . S
C1621 C1622 1.363 . S
C1621 H1624 0.929 . S
C1622 C1621 1.363 . S
C1622 C1628 1.428 . S
H1623 C1619 0.930 . S
H1624 C1621 0.929 . S
S1625 N1626 1.613 . S
S1625 N1627 1.610 . S
N1626 S1625 1.613 . S
N1626 C1629 1.350 . S
N1627 S1625 1.610 . S
N1627 C1628 1.351 . S
C1628 C1622 1.428 . S
C1628 N1627 1.351 . S
C1628 C1629 1.434 . S
C1629 C1620 1.429 . S
C1629 N1626 1.350 . S
C1629 C1628 1.434 . S
C1630 C1631 1.369 . S
C1630 C1632 1.419 . S
C1630 H1634 0.930 . S
C1631 C1630 1.369 . S
C1631 C1640 1.429 . S
C1632 C1630 1.419 . S
C1632 C1633 1.363 . S
C1632 H1635 0.929 . S
C1633 C1632 1.363 . S
C1633 C1639 1.428 . S
H1634 C1630 0.930 . S
H1635 C1632 0.929 . S
S1636 N1637 1.613 . S
S1636 N1638 1.610 . S
N1637 S1636 1.613 . S
N1637 C1640 1.350 . S
N1638 S1636 1.610 . S
N1638 C1639 1.351 . S
C1639 C1633 1.428 . S
C1639 N1638 1.351 . S
C1639 C1640 1.434 . S
C1640 C1631 1.429 . S
C1640 N1637 1.350 . S
C1640 C1639 1.434 . S
C1641 C1642 1.369 . S
C1641 C1643 1.419 . S
C1641 H1645 0.930 . S
C1642 C1641 1.369 . S
C1642 C1651 1.429 . S
C1643 C1641 1.419 . S
C1643 C1644 1.363 . S
C1643 H1646 0.929 . S
C1644 C1643 1.363 . S
C1644 C1650 1.428 . S
H1645 C1641 0.930 . S
H1646 C1643 0.929 . S
S1647 N1648 1.613 . S
S1647 N1649 1.610 . S
N1648 S1647 1.613 . S
N1648 C1651 1.350 . S
N1649 S1647 1.610 . S
N1649 C1650 1.351 . S
C1650 C1644 1.428 . S
C1650 N1649 1.351 . S
C1650 C1651 1.434 . S
C1651 C1642 1.429 . S
C1651 N1648 1.350 . S
C1651 C1650 1.434 . S
C1652 C1653 1.369 . S
C1652 C1654 1.419 . S
C1652 H1656 0.930 . S
C1653 C1652 1.369 . S
C1653 C1662 1.429 . S
C1654 C1652 1.419 . S
C1654 C1655 1.363 . S
C1654 H1657 0.929 . S
C1655 C1654 1.363 . S
C1655 C1661 1.428 . S
H1656 C1652 0.930 . S
H1657 C1654 0.929 . S
S1658 N1659 1.613 . S
S1658 N1660 1.610 . S
N1659 S1658 1.613 . S
N1659 C1662 1.350 . S
N1660 S1658 1.610 . S
N1660 C1661 1.351 . S
C1661 C1655 1.428 . S
C1661 N1660 1.351 . S
C1661 C1662 1.434 . S
C1662 C1653 1.429 . S
C1662 N1659 1.350 . S
C1662 C1661 1.434 . S
C1663 C1664 1.369 . S
C1663 C1665 1.419 . S
C1663 H1667 0.930 . S
C1664 C1663 1.369 . S
C1664 C1673 1.429 . S
C1665 C1663 1.419 . S
C1665 C1666 1.363 . S
C1665 H1668 0.929 . S
C1666 C1665 1.363 . S
C1666 C1672 1.428 . S
H1667 C1663 0.930 . S
H1668 C1665 0.929 . S
S1669 N1670 1.613 . S
S1669 N1671 1.610 . S
N1670 S1669 1.613 . S
N1670 C1673 1.350 . S
N1671 S1669 1.610 . S
N1671 C1672 1.351 . S
C1672 C1666 1.428 . S
C1672 N1671 1.351 . S
C1672 C1673 1.434 . S
C1673 C1664 1.429 . S
C1673 N1670 1.350 . S
C1673 C1672 1.434 . S
C1674 C1675 1.369 . S
C1674 C1676 1.419 . S
C1674 H1678 0.930 . S
C1675 C1674 1.369 . S
C1675 C1684 1.429 . S
C1676 C1674 1.419 . S
C1676 C1677 1.363 . S
C1676 H1679 0.929 . S
C1677 C1676 1.363 . S
C1677 C1683 1.428 . S
H1678 C1674 0.930 . S
H1679 C1676 0.929 . S
S1680 N1681 1.613 . S
S1680 N1682 1.610 . S
N1681 S1680 1.613 . S
N1681 C1684 1.350 . S
N1682 S1680 1.610 . S
N1682 C1683 1.351 . S
C1683 C1677 1.428 . S
C1683 N1682 1.351 . S
C1683 C1684 1.434 . S
C1684 C1675 1.429 . S
C1684 N1681 1.350 . S
C1684 C1683 1.434 . S
C1685 C1686 1.369 . S
C1685 C1687 1.419 . S
C1685 H1689 0.930 . S
C1686 C1685 1.369 . S
C1686 C1695 1.429 . S
C1687 C1685 1.419 . S
C1687 C1688 1.363 . S
C1687 H1690 0.929 . S
C1688 C1687 1.363 . S
C1688 C1694 1.428 . S
H1689 C1685 0.930 . S
H1690 C1687 0.929 . S
S1691 N1692 1.613 . S
S1691 N1693 1.610 . S
N1692 S1691 1.613 . S
N1692 C1695 1.350 . S
N1693 S1691 1.610 . S
N1693 C1694 1.351 . S
C1694 C1688 1.428 . S
C1694 N1693 1.351 . S
C1694 C1695 1.434 . S
C1695 C1686 1.429 . S
C1695 N1692 1.350 . S
C1695 C1694 1.434 . S
C1696 C1697 1.369 . S
C1696 C1698 1.419 . S
C1696 H1700 0.930 . S
C1697 C1696 1.369 . S
C1697 C1706 1.429 . S
C1698 C1696 1.419 . S
C1698 C1699 1.363 . S
C1698 H1701 0.929 . S
C1699 C1698 1.363 . S
C1699 C1705 1.428 . S
H1700 C1696 0.930 . S
H1701 C1698 0.929 . S
S1702 N1703 1.613 . S
S1702 N1704 1.610 . S
N1703 S1702 1.613 . S
N1703 C1706 1.350 . S
N1704 S1702 1.610 . S
N1704 C1705 1.351 . S
C1705 C1699 1.428 . S
C1705 N1704 1.351 . S
C1705 C1706 1.434 . S
C1706 C1697 1.429 . S
C1706 N1703 1.350 . S
C1706 C1705 1.434 . S
C1707 C1708 1.369 . S
C1707 C1709 1.419 . S
C1707 H1711 0.930 . S
C1708 C1707 1.369 . S
C1708 C1717 1.429 . S
C1709 C1707 1.419 . S
C1709 C1710 1.363 . S
C1709 H1712 0.929 . S
C1710 C1709 1.363 . S
C1710 C1716 1.428 . S
H1711 C1707 0.930 . S
H1712 C1709 0.929 . S
S1713 N1714 1.613 . S
S1713 N1715 1.610 . S
N1714 S1713 1.613 . S
N1714 C1717 1.350 . S
N1715 S1713 1.610 . S
N1715 C1716 1.351 . S
C1716 C1710 1.428 . S
C1716 N1715 1.351 . S
C1716 C1717 1.434 . S
C1717 C1708 1.429 . S
C1717 N1714 1.350 . S
C1717 C1716 1.434 . S
C1718 C1719 1.369 . S
C1718 C1720 1.419 . S
C1718 H1722 0.930 . S
C1719 C1718 1.369 . S
C1719 C1728 1.429 . S
C1720 C1718 1.419 . S
C1720 C1721 1.363 . S
C1720 H1723 0.929 . S
C1721 C1720 1.363 . S
C1721 C1727 1.428 . S
H1722 C1718 0.930 . S
H1723 C1720 0.929 . S
S1724 N1725 1.613 . S
S1724 N1726 1.610 . S
N1725 S1724 1.613 . S
N1725 C1728 1.350 . S
N1726 S1724 1.610 . S
N1726 C1727 1.351 . S
C1727 C1721 1.428 . S
C1727 N1726 1.351 . S
C1727 C1728 1.434 . S
C1728 C1719 1.429 . S
C1728 N1725 1.350 . S
C1728 C1727 1.434 . S
C1729 C1730 1.369 . S
C1729 C1731 1.419 . S
C1729 H1733 0.930 . S
C1730 C1729 1.369 . S
C1730 C1739 1.429 . S
C1731 C1729 1.419 . S
C1731 C1732 1.363 . S
C1731 H1734 0.929 . S
C1732 C1731 1.363 . S
C1732 C1738 1.428 . S
H1733 C1729 0.930 . S
H1734 C1731 0.929 . S
S1735 N1736 1.613 . S
S1735 N1737 1.610 . S
N1736 S1735 1.613 . S
N1736 C1739 1.350 . S
N1737 S1735 1.610 . S
N1737 C1738 1.351 . S
C1738 C1732 1.428 . S
C1738 N1737 1.351 . S
C1738 C1739 1.434 . S
C1739 C1730 1.429 . S
C1739 N1736 1.350 . S
C1739 C1738 1.434 . S
C1740 C1741 1.369 . S
C1740 C1742 1.419 . S
C1740 H1744 0.930 . S
C1741 C1740 1.369 . S
C1741 C1750 1.429 . S
C1742 C1740 1.419 . S
C1742 C1743 1.363 . S
C1742 H1745 0.929 . S
C1743 C1742 1.363 . S
C1743 C1749 1.428 . S
H1744 C1740 0.930 . S
H1745 C1742 0.929 . S
S1746 N1747 1.613 . S
S1746 N1748 1.610 . S
N1747 S1746 1.613 . S
N1747 C1750 1.350 . S
N1748 S1746 1.610 . S
N1748 C1749 1.351 . S
C1749 C1743 1.428 . S
C1749 N1748 1.351 . S
C1749 C1750 1.434 . S
C1750 C1741 1.429 . S
C1750 N1747 1.350 . S
C1750 C1749 1.434 . S
C1751 C1752 1.369 . S
C1751 C1753 1.419 . S
C1751 H1755 0.930 . S
C1752 C1751 1.369 . S
C1752 C1761 1.429 . S
C1753 C1751 1.419 . S
C1753 C1754 1.363 . S
C1753 H1756 0.929 . S
C1754 C1753 1.363 . S
C1754 C1760 1.428 . S
H1755 C1751 0.930 . S
H1756 C1753 0.929 . S
S1757 N1758 1.613 . S
S1757 N1759 1.610 . S
N1758 S1757 1.613 . S
N1758 C1761 1.350 . S
N1759 S1757 1.610 . S
N1759 C1760 1.351 . S
C1760 C1754 1.428 . S
C1760 N1759 1.351 . S
C1760 C1761 1.434 . S
C1761 C1752 1.429 . S
C1761 N1758 1.350 . S
C1761 C1760 1.434 . S
C1762 C1763 1.369 . S
C1762 C1764 1.419 . S
C1762 H1766 0.930 . S
C1763 C1762 1.369 . S
C1763 C1772 1.429 . S
C1764 C1762 1.419 . S
C1764 C1765 1.363 . S
C1764 H1767 0.929 . S
C1765 C1764 1.363 . S
C1765 C1771 1.428 . S
H1766 C1762 0.930 . S
H1767 C1764 0.929 . S
S1768 N1769 1.613 . S
S1768 N1770 1.610 . S
N1769 S1768 1.613 . S
N1769 C1772 1.350 . S
N1770 S1768 1.610 . S
N1770 C1771 1.351 . S
C1771 C1765 1.428 . S
C1771 N1770 1.351 . S
C1771 C1772 1.434 . S
C1772 C1763 1.429 . S
C1772 N1769 1.350 . S
C1772 C1771 1.434 . S
C1773 C1774 1.369 . S
C1773 C1775 1.419 . S
C1773 H1777 0.930 . S
C1774 C1773 1.369 . S
C1774 C1783 1.429 . S
C1775 C1773 1.419 . S
C1775 C1776 1.363 . S
C1775 H1778 0.929 . S
C1776 C1775 1.363 . S
C1776 C1782 1.428 . S
H1777 C1773 0.930 . S
H1778 C1775 0.929 . S
S1779 N1780 1.613 . S
S1779 N1781 1.610 . S
N1780 S1779 1.613 . S
N1780 C1783 1.350 . S
N1781 S1779 1.610 . S
N1781 C1782 1.351 . S
C1782 C1776 1.428 . S
C1782 N1781 1.351 . S
C1782 C1783 1.434 . S
C1783 C1774 1.429 . S
C1783 N1780 1.350 . S
C1783 C1782 1.434 . S
C1784 C1785 1.369 . S
C1784 C1786 1.419 . S
C1784 H1788 0.930 . S
C1785 C1784 1.369 . S
C1785 C1794 1.429 . S
C1786 C1784 1.419 . S
C1786 C1787 1.363 . S
C1786 H1789 0.929 . S
C1787 C1786 1.363 . S
C1787 C1793 1.428 . S
H1788 C1784 0.930 . S
H1789 C1786 0.929 . S
S1790 N1791 1.613 . S
S1790 N1792 1.610 . S
N1791 S1790 1.613 . S
N1791 C1794 1.350 . S
N1792 S1790 1.610 . S
N1792 C1793 1.351 . S
C1793 C1787 1.428 . S
C1793 N1792 1.351 . S
C1793 C1794 1.434 . S
C1794 C1785 1.429 . S
C1794 N1791 1.350 . S
C1794 C1793 1.434 . S
C1795 C1796 1.369 . S
C1795 C1797 1.419 . S
C1795 H1799 0.930 . S
C1796 C1795 1.369 . S
C1796 C1805 1.429 . S
C1797 C1795 1.419 . S
C1797 C1798 1.363 . S
C1797 H1800 0.929 . S
C1798 C1797 1.363 . S
C1798 C1804 1.428 . S
H1799 C1795 0.930 . S
H1800 C1797 0.929 . S
S1801 N1802 1.613 . S
S1801 N1803 1.610 . S
N1802 S1801 1.613 . S
N1802 C1805 1.350 . S
N1803 S1801 1.610 . S
N1803 C1804 1.351 . S
C1804 C1798 1.428 . S
C1804 N1803 1.351 . S
C1804 C1805 1.434 . S
C1805 C1796 1.429 . S
C1805 N1802 1.350 . S
C1805 C1804 1.434 . S
C1806 C1807 1.369 . S
C1806 C1808 1.419 . S
C1806 H1810 0.930 . S
C1807 C1806 1.369 . S
C1807 C1816 1.429 . S
C1808 C1806 1.419 . S
C1808 C1809 1.363 . S
C1808 H1811 0.929 . S
C1809 C1808 1.363 . S
C1809 C1815 1.428 . S
H1810 C1806 0.930 . S
H1811 C1808 0.929 . S
S1812 N1813 1.613 . S
S1812 N1814 1.610 . S
N1813 S1812 1.613 . S
N1813 C1816 1.350 . S
N1814 S1812 1.610 . S
N1814 C1815 1.351 . S
C1815 C1809 1.428 . S
C1815 N1814 1.351 . S
C1815 C1816 1.434 . S
C1816 C1807 1.429 . S
C1816 N1813 1.350 . S
C1816 C1815 1.434 . S
C1817 C1818 1.369 . S
C1817 C1819 1.419 . S
C1817 H1821 0.930 . S
C1818 C1817 1.369 . S
C1818 C1827 1.429 . S
C1819 C1817 1.419 . S
C1819 C1820 1.363 . S
C1819 H1822 0.929 . S
C1820 C1819 1.363 . S
C1820 C1826 1.428 . S
H1821 C1817 0.930 . S
H1822 C1819 0.929 . S
S1823 N1824 1.613 . S
S1823 N1825 1.610 . S
N1824 S1823 1.613 . S
N1824 C1827 1.350 . S
N1825 S1823 1.610 . S
N1825 C1826 1.351 . S
C1826 C1820 1.428 . S
C1826 N1825 1.351 . S
C1826 C1827 1.434 . S
C1827 C1818 1.429 . S
C1827 N1824 1.350 . S
C1827 C1826 1.434 . S
C1828 C1829 1.369 . S
C1828 C1830 1.419 . S
C1828 H1832 0.930 . S
C1829 C1828 1.369 . S
C1829 C1838 1.429 . S
C1830 C1828 1.419 . S
C1830 C1831 1.363 . S
C1830 H1833 0.929 . S
C1831 C1830 1.363 . S
C1831 C1837 1.428 . S
H1832 C1828 0.930 . S
H1833 C1830 0.929 . S
S1834 N1835 1.613 . S
S1834 N1836 1.610 . S
N1835 S1834 1.613 . S
N1835 C1838 1.350 . S
N1836 S1834 1.610 . S
N1836 C1837 1.351 . S
C1837 C1831 1.428 . S
C1837 N1836 1.351 . S
C1837 C1838 1.434 . S
C1838 C1829 1.429 . S
C1838 N1835 1.350 . S
C1838 C1837 1.434 . S
C1839 C1840 1.369 . S
C1839 C1841 1.419 . S
C1839 H1843 0.930 . S
C1840 C1839 1.369 . S
C1840 C1849 1.429 . S
C1841 C1839 1.419 . S
C1841 C1842 1.363 . S
C1841 H1844 0.929 . S
C1842 C1841 1.363 . S
C1842 C1848 1.428 . S
H1843 C1839 0.930 . S
H1844 C1841 0.929 . S
S1845 N1846 1.613 . S
S1845 N1847 1.610 . S
N1846 S1845 1.613 . S
N1846 C1849 1.350 . S
N1847 S1845 1.610 . S
N1847 C1848 1.351 . S
C1848 C1842 1.428 . S
C1848 N1847 1.351 . S
C1848 C1849 1.434 . S
C1849 C1840 1.429 . S
C1849 N1846 1.350 . S
C1849 C1848 1.434 . S
C1850 C1851 1.369 . S
C1850 C1852 1.419 . S
C1850 H1854 0.930 . S
C1851 C1850 1.369 . S
C1851 C1860 1.429 . S
C1852 C1850 1.419 . S
C1852 C1853 1.363 . S
C1852 H1855 0.929 . S
C1853 C1852 1.363 . S
C1853 C1859 1.428 . S
H1854 C1850 0.930 . S
H1855 C1852 0.929 . S
S1856 N1857 1.613 . S
S1856 N1858 1.610 . S
N1857 S1856 1.613 . S
N1857 C1860 1.350 . S
N1858 S1856 1.610 . S
N1858 C1859 1.351 . S
C1859 C1853 1.428 . S
C1859 N1858 1.351 . S
C1859 C1860 1.434 . S
C1860 C1851 1.429 . S
C1860 N1857 1.350 . S
C1860 C1859 1.434 . S
C1861 C1862 1.369 . S
C1861 C1863 1.419 . S
C1861 H1865 0.930 . S
C1862 C1861 1.369 . S
C1862 C1871 1.429 . S
C1863 C1861 1.419 . S
C1863 C1864 1.363 . S
C1863 H1866 0.929 . S
C1864 C1863 1.363 . S
C1864 C1870 1.428 . S
H1865 C1861 0.930 . S
H1866 C1863 0.929 . S
S1867 N1868 1.613 . S
S1867 N1869 1.610 . S
N1868 S1867 1.613 . S
N1868 C1871 1.350 . S
N1869 S1867 1.610 . S
N1869 C1870 1.351 . S
C1870 C1864 1.428 . S
C1870 N1869 1.351 . S
C1870 C1871 1.434 . S
C1871 C1862 1.429 . S
C1871 N1868 1.350 . S
C1871 C1870 1.434 . S
C1872 C1873 1.369 . S
C1872 C1874 1.419 . S
C1872 H1876 0.930 . S
C1873 C1872 1.369 . S
C1873 C1882 1.429 . S
C1874 C1872 1.419 . S
C1874 C1875 1.363 . S
C1874 H1877 0.929 . S
C1875 C1874 1.363 . S
C1875 C1881 1.428 . S
H1876 C1872 0.930 . S
H1877 C1874 0.929 . S
S1878 N1879 1.613 . S
S1878 N1880 1.610 . S
N1879 S1878 1.613 . S
N1879 C1882 1.350 . S
N1880 S1878 1.610 . S
N1880 C1881 1.351 . S
C1881 C1875 1.428 . S
C1881 N1880 1.351 . S
C1881 C1882 1.434 . S
C1882 C1873 1.429 . S
C1882 N1879 1.350 . S
C1882 C1881 1.434 . S
C1883 C1884 1.369 . S
C1883 C1885 1.419 . S
C1883 H1887 0.930 . S
C1884 C1883 1.369 . S
C1884 C1893 1.429 . S
C1885 C1883 1.419 . S
C1885 C1886 1.363 . S
C1885 H1888 0.929 . S
C1886 C1885 1.363 . S
C1886 C1892 1.428 . S
H1887 C1883 0.930 . S
H1888 C1885 0.929 . S
S1889 N1890 1.613 . S
S1889 N1891 1.610 . S
N1890 S1889 1.613 . S
N1890 C1893 1.350 . S
N1891 S1889 1.610 . S
N1891 C1892 1.351 . S
C1892 C1886 1.428 . S
C1892 N1891 1.351 . S
C1892 C1893 1.434 . S
C1893 C1884 1.429 . S
C1893 N1890 1.350 . S
C1893 C1892 1.434 . S
C1894 C1895 1.369 . S
C1894 C1896 1.419 . S
C1894 H1898 0.930 . S
C1895 C1894 1.369 . S
C1895 C1904 1.429 . S
C1896 C1894 1.419 . S
C1896 C1897 1.363 . S
C1896 H1899 0.929 . S
C1897 C1896 1.363 . S
C1897 C1903 1.428 . S
H1898 C1894 0.930 . S
H1899 C1896 0.929 . S
S1900 N1901 1.613 . S
S1900 N1902 1.610 . S
N1901 S1900 1.613 . S
N1901 C1904 1.350 . S
N1902 S1900 1.610 . S
N1902 C1903 1.351 . S
C1903 C1897 1.428 . S
C1903 N1902 1.351 . S
C1903 C1904 1.434 . S
C1904 C1895 1.429 . S
C1904 N1901 1.350 . S
C1904 C1903 1.434 . S
C1905 C1906 1.369 . S
C1905 C1907 1.419 . S
C1905 H1909 0.930 . S
C1906 C1905 1.369 . S
C1906 C1915 1.429 . S
C1907 C1905 1.419 . S
C1907 C1908 1.363 . S
C1907 H1910 0.929 . S
C1908 C1907 1.363 . S
C1908 C1914 1.428 . S
H1909 C1905 0.930 . S
H1910 C1907 0.929 . S
S1911 N1912 1.613 . S
S1911 N1913 1.610 . S
N1912 S1911 1.613 . S
N1912 C1915 1.350 . S
N1913 S1911 1.610 . S
N1913 C1914 1.351 . S
C1914 C1908 1.428 . S
C1914 N1913 1.351 . S
C1914 C1915 1.434 . S
C1915 C1906 1.429 . S
C1915 N1912 1.350 . S
C1915 C1914 1.434 . S
C1916 C1917 1.369 . S
C1916 C1918 1.419 . S
C1916 H1920 0.930 . S
C1917 C1916 1.369 . S
C1917 C1926 1.429 . S
C1918 C1916 1.419 . S
C1918 C1919 1.363 . S
C1918 H1921 0.929 . S
C1919 C1918 1.363 . S
C1919 C1925 1.428 . S
H1920 C1916 0.930 . S
H1921 C1918 0.929 . S
S1922 N1923 1.613 . S
S1922 N1924 1.610 . S
N1923 S1922 1.613 . S
N1923 C1926 1.350 . S
N1924 S1922 1.610 . S
N1924 C1925 1.351 . S
C1925 C1919 1.428 . S
C1925 N1924 1.351 . S
C1925 C1926 1.434 . S
C1926 C1917 1.429 . S
C1926 N1923 1.350 . S
C1926 C1925 1.434 . S
C1927 C1928 1.369 . S
C1927 C1929 1.419 . S
C1927 H1931 0.930 . S
C1928 C1927 1.369 . S
C1928 C1937 1.429 . S
C1929 C1927 1.419 . S
C1929 C1930 1.363 . S
C1929 H1932 0.929 . S
C1930 C1929 1.363 . S
C1930 C1936 1.428 . S
H1931 C1927 0.930 . S
H1932 C1929 0.929 . S
S1933 N1934 1.613 . S
S1933 N1935 1.610 . S
N1934 S1933 1.613 . S
N1934 C1937 1.350 . S
N1935 S1933 1.610 . S
N1935 C1936 1.351 . S
C1936 C1930 1.428 . S
C1936 N1935 1.351 . S
C1936 C1937 1.434 . S
C1937 C1928 1.429 . S
C1937 N1934 1.350 . S
C1937 C1936 1.434 . S
C1938 C1939 1.369 . S
C1938 C1940 1.419 . S
C1938 H1942 0.930 . S
C1939 C1938 1.369 . S
C1939 C1948 1.429 . S
C1940 C1938 1.419 . S
C1940 C1941 1.363 . S
C1940 H1943 0.929 . S
C1941 C1940 1.363 . S
C1941 C1947 1.428 . S
H1942 C1938 0.930 . S
H1943 C1940 0.929 . S
S1944 N1945 1.613 . S
S1944 N1946 1.610 . S
N1945 S1944 1.613 . S
N1945 C1948 1.350 . S
N1946 S1944 1.610 . S
N1946 C1947 1.351 . S
C1947 C1941 1.428 . S
C1947 N1946 1.351 . S
C1947 C1948 1.434 . S
C1948 C1939 1.429 . S
C1948 N1945 1.350 . S
C1948 C1947 1.434 . S
C1949 C1950 1.369 . S
C1949 C1951 1.419 . S
C1949 H1953 0.930 . S
C1950 C1949 1.369 . S
C1950 C1959 1.429 . S
C1951 C1949 1.419 . S
C1951 C1952 1.363 . S
C1951 H1954 0.929 . S
C1952 C1951 1.363 . S
C1952 C1958 1.428 . S
H1953 C1949 0.930 . S
H1954 C1951 0.929 . S
S1955 N1956 1.613 . S
S1955 N1957 1.610 . S
N1956 S1955 1.613 . S
N1956 C1959 1.350 . S
N1957 S1955 1.610 . S
N1957 C1958 1.351 . S
C1958 C1952 1.428 . S
C1958 N1957 1.351 . S
C1958 C1959 1.434 . S
C1959 C1950 1.429 . S
C1959 N1956 1.350 . S
C1959 C1958 1.434 . S
C907 N364 1.835 . S
C905 C4 1.912 . S
C918 C391 1.361 . S
C916 C21 1.345 . S
C927 C26 1.819 . S
C929 C405 1.818 . S
C940 N423 1.218 . S
C938 C43 1.232 . S
C949 C54 1.168 . S
C951 C428 1.168 . S
C960 C60 1.824 . S
C962 C368 1.793 . S
C971 C76 1.161 . S
C973 N387 1.173 . S
C984 N400 1.983 . S
C982 C81 1.975 . S
C995 N446 1.594 . S
C993 C10 1.658 . S
C1004 C15 1.434 . S
C1006 N469 1.413 . S
C1015 C27 1.665 . S
C1017 N492 1.642 . S
C1028 N525 1.404 . S
C1026 C38 1.480 . S
C1037 C49 1.397 . S
C1039 C552 1.395 . S
C1050 C575 1.773 . S
C1048 C59 1.762 . S
C1059 C71 1.301 . S
C1061 C598 1.278 1_655 S
C1072 C612 1.684 . S
C1070 C87 1.677 . S
C1081 C5 1.724 . S
C1083 C529 1.720 . S
C1092 C48 1.409 . S
C1094 N571 1.386 . S
C1105 N594 1.572 . S
C1103 C65 1.636 . S
C1114 C70 1.398 . S
C1116 N607 1.384 . S
C1127 N548 1.655 . S
C1125 C82 1.706 . S
C1138 C474 1.822 . S
C1136 C32 1.804 . S
C1147 C37 1.336 . S
C1149 C497 1.337 . S
C1160 C451 1.461 . S
C1158 C16 1.446 . S
C1171 C644 1.954 . S
C1169 C92 1.941 . S
C1180 C109 1.260 . S
C1182 C658 1.259 . S
C1191 C114 1.780 . S
C1193 N686 1.745 . S
C1204 N699 1.087 . S
C1202 C131 1.109 . S
C1213 C142 1.243 . S
C1215 C704 1.240 . S
C1224 C148 1.743 . S
C1226 N640 1.715 . S
C1235 C164 1.282 . S
C1237 N653 1.288 . S
C1246 C169 1.873 . S
C1248 C690 1.889 . S
C1259 N538 1.645 . S
C1257 C98 1.685 . S
C1268 C103 1.359 . S
C1270 N722 1.323 . S
C1281 N584 1.608 . S
C1279 C115 1.624 . S
C1290 C126 1.492 . S
C1292 C759 1.487 . S
C1301 C137 1.586 . S
C1303 C460 1.580 . S
C1314 C773 1.846 . S
C1312 C147 1.833 . S
C1323 C159 1.394 . S
C1325 C506 1.399 . S
C1336 N791 1.606 . S
C1334 C175 1.658 . S
C1345 C93 1.681 . S
C1347 N755 1.655 . S
C1358 N768 1.341 . S
C1356 C136 1.389 . S
C1367 C153 1.629 . S
C1369 N502 1.586 . S
C1380 C796 1.264 . S
C1378 C158 1.261 . S
C1389 C170 1.676 . S
C1391 N456 1.658 . S
C1400 C120 1.715 . S
C1402 C727 1.728 . S
C1411 C125 1.392 . S
C1413 C589 1.392 . S
C1422 C104 1.396 . S
C1424 C543 1.431 . S
C1433 C180 1.951 . S
C1435 C681 1.944 . S
C1446 C713 1.248 . S
C1444 C197 1.244 . S
C1455 C202 1.773 . S
C1457 N630 1.680 . S
C1466 C219 1.187 . S
C1468 N663 1.153 . S
C1477 C230 1.190 . S
C1479 C667 1.187 . S
C1488 C236 1.874 . S
C1490 N676 1.786 . S
C1501 N709 1.111 . S
C1499 C252 1.116 . S
C1510 C257 2.019 . S
C1512 C635 1.995 . S
C1523 N824 1.653 . S
C1521 C186 1.705 . S
C1532 C191 1.337 . S
C1534 N561 1.310 . S
C1545 N847 1.518 . S
C1543 C203 1.565 . S
C1554 C214 1.518 . S
C1556 N617 1.447 . S
C1565 C225 1.435 . S
C1567 C865 1.432 . S
C1576 C235 1.850 . S
C1578 C483 1.852 . S
C1589 N883 1.259 . S
C1587 C247 1.296 . S
C1598 C263 1.707 . S
C1600 C520 1.714 . S
C1611 C621 1.753 . S
C1609 C181 1.754 . S
C1622 N479 1.391 . S
C1620 C224 1.434 . S
C1631 C241 1.733 . S
C1633 C888 1.730 . S
C1642 C246 1.294 . S
C1644 N515 1.283 . S
C1655 N860 1.675 . S
C1653 C258 1.711 . S
C1666 C566 1.738 . S
C1664 C208 1.706 . S
C1677 C851 1.413 . S
C1675 C213 1.406 . S
C1688 C828 1.432 . S
C1686 C192 1.391 . S
C1697 C268 1.889 . S
C1699 N410 1.814 . S
C1708 C285 1.246 . S
C1710 C437 1.230 . S
C1721 C359 1.825 . S
C1719 C290 1.837 . S
C1732 N377 1.059 . S
C1730 C307 1.088 . S
C1743 C382 1.351 . S
C1741 C318 1.373 . S
C1754 C414 1.723 . S
C1752 C324 1.761 . S
C1765 N433 1.319 . S
C1763 C340 1.351 . S
C1774 C345 1.931 . S
C1776 N354 1.947 . S
C1785 C274 1.623 . S
C1787 N870 1.576 . S
C1798 N778 1.299 . S
C1796 C279 1.329 . S
C1809 C897 1.781 . S
C1807 C291 1.762 . S
C1820 C805 1.242 . S
C1818 C302 1.242 . S
C1829 C313 1.568 . S
C1831 C819 1.559 . S
C1842 C736 1.784 . S
C1840 C323 1.778 . S
C1853 C842 1.496 . S
C1851 C335 1.514 . S
C1862 C351 1.682 . S
C1864 N745 1.626 . S
C1875 N801 1.610 . S
C1873 C269 1.634 . S
C1886 N732 1.330 . S
C1884 C312 1.349 . S
C1897 N837 1.535 . S
C1895 C329 1.578 . S
C1906 C334 1.354 . S
C1908 C750 1.342 . S
C1917 C346 1.691 . S
C1919 N814 1.660 . S
C1928 C296 1.843 . S
C1930 C782 1.851 . S
C1939 C301 1.348 . S
C1941 N893 1.326 . S
C1952 C874 1.417 . S
C1950 C280 1.383 . S
