# Generated by pormake.
# Topology zzz, (3,6)-cn, num edge types: 1
# Building blocks:
#     Node 0, Type 0, BuildingBlock: BELTOD_clean_linker_0, # of connection points: 3
#     Node 1, Type 0, BuildingBlock: BELTOD_clean_linker_0, # of connection points: 3
#     Node 2, Type 0, BuildingBlock: BELTOD_clean_linker_0, # of connection points: 3
#     Node 3, Type 0, BuildingBlock: BELTOD_clean_linker_0, # of connection points: 3
#     Node 4, Type 0, BuildingBlock: BELTOD_clean_linker_0, # of connection points: 3
#     Node 5, Type 0, BuildingBlock: BELTOD_clean_linker_0, # of connection points: 3
#     Node 6, Type 0, BuildingBlock: BELTOD_clean_linker_0, # of connection points: 3
#     Node 7, Type 0, BuildingBlock: BELTOD_clean_linker_0, # of connection points: 3
#     Node 8, Type 1, BuildingBlock: GEDQOX_clean_sbu_0, # of connection points: 6
#     Node 9, Type 1, BuildingBlock: GEDQOX_clean_sbu_0, # of connection points: 6
#     Node 10, Type 1, BuildingBlock: GEDQOX_clean_sbu_0, # of connection points: 6
#     Node 11, Type 1, BuildingBlock: GEDQOX_clean_sbu_0, # of connection points: 6
#     Edge 12, Type (0, 1), BuildingBlock: XUDNAN_clean_linker_2, # of connection points: 2
#     Edge 13, Type (0, 1), BuildingBlock: XUDNAN_clean_linker_2, # of connection points: 2
#     Edge 14, Type (0, 1), BuildingBlock: XUDNAN_clean_linker_2, # of connection points: 2
#     Edge 15, Type (0, 1), BuildingBlock: XUDNAN_clean_linker_2, # of connection points: 2
#     Edge 16, Type (0, 1), BuildingBlock: XUDNAN_clean_linker_2, # of connection points: 2
#     Edge 17, Type (0, 1), BuildingBlock: XUDNAN_clean_linker_2, # of connection points: 2
#     Edge 18, Type (0, 1), BuildingBlock: XUDNAN_clean_linker_2, # of connection points: 2
#     Edge 19, Type (0, 1), BuildingBlock: XUDNAN_clean_linker_2, # of connection points: 2
#     Edge 20, Type (0, 1), BuildingBlock: XUDNAN_clean_linker_2, # of connection points: 2
#     Edge 21, Type (0, 1), BuildingBlock: XUDNAN_clean_linker_2, # of connection points: 2
#     Edge 22, Type (0, 1), BuildingBlock: XUDNAN_clean_linker_2, # of connection points: 2
#     Edge 23, Type (0, 1), BuildingBlock: XUDNAN_clean_linker_2, # of connection points: 2
#     Edge 24, Type (0, 1), BuildingBlock: XUDNAN_clean_linker_2, # of connection points: 2
#     Edge 25, Type (0, 1), BuildingBlock: XUDNAN_clean_linker_2, # of connection points: 2
#     Edge 26, Type (0, 1), BuildingBlock: XUDNAN_clean_linker_2, # of connection points: 2
#     Edge 27, Type (0, 1), BuildingBlock: XUDNAN_clean_linker_2, # of connection points: 2
#     Edge 28, Type (0, 1), BuildingBlock: XUDNAN_clean_linker_2, # of connection points: 2
#     Edge 29, Type (0, 1), BuildingBlock: XUDNAN_clean_linker_2, # of connection points: 2
#     Edge 30, Type (0, 1), BuildingBlock: XUDNAN_clean_linker_2, # of connection points: 2
#     Edge 31, Type (0, 1), BuildingBlock: XUDNAN_clean_linker_2, # of connection points: 2
#     Edge 32, Type (0, 1), BuildingBlock: XUDNAN_clean_linker_2, # of connection points: 2
#     Edge 33, Type (0, 1), BuildingBlock: XUDNAN_clean_linker_2, # of connection points: 2
#     Edge 34, Type (0, 1), BuildingBlock: XUDNAN_clean_linker_2, # of connection points: 2
#     Edge 35, Type (0, 1), BuildingBlock: XUDNAN_clean_linker_2, # of connection points: 2
# Relax obj value: 0.288
# Max RMSD: 0.263
# Mean RMSD: 0.185
data_MOF--net-zzz--node1-GEDQOX_clean_sbu_0--node2-BELTOD_clean_linker_0--edge1-XUDNAN_clean_linker_2
_symmetry_space_group_name_H-M    P1
_symmetry_Int_Tables_number       1
_symmetry_cell_setting            triclinic
loop_
_symmetry_equiv_pos_as_xyz
'x, y, z'
_cell_length_a     58.757385
_cell_length_b     54.438574
_cell_length_c     20.510144
_cell_angle_alpha  81.425899
_cell_angle_beta   90.784268
_cell_angle_gamma 102.63632
loop_
_atom_site_label
_atom_site_type_symbol
_atom_site_fract_x
_atom_site_fract_y
_atom_site_fract_z
_atom_type_partial_charge
P0 P 0.75957 0.41329 0.15281 0.0
H1 H 0.75742 0.41534 0.29469 0.0
H2 H 0.78222 0.44174 0.36655 0.0
H3 H 0.82613 0.48043 0.19854 0.0
H4 H 0.80135 0.45426 0.1274 0.0
H5 H 0.71047 0.39557 0.12213 0.0
H6 H 0.6806 0.41777 0.0762 0.0
H7 H 0.73164 0.48911 0.05324 0.0
H8 H 0.7611 0.46688 0.10109 0.0
H9 H 0.78892 0.3765 0.15679 0.0
H10 H 0.77243 0.43693 0.01598 0.0
O11 O 0.74632 0.38577 0.19731 0.0
H12 H 0.81971 0.37256 0.08258 0.0
H13 H 0.80352 0.4338 0.94284 0.0
C14 C 0.77773 0.43257 0.20592 0.0
C15 C 0.77244 0.42945 0.27349 0.0
C16 C 0.78663 0.4445 0.31447 0.0
C17 C 0.80613 0.46317 0.28818 0.0
C18 C 0.81111 0.46642 0.22021 0.0
C19 C 0.79704 0.45129 0.17952 0.0
C20 C 0.73788 0.42962 0.11631 0.0
C21 C 0.71519 0.416 0.10739 0.0
C22 C 0.69817 0.42871 0.08049 0.0
C23 C 0.70365 0.4553 0.06136 0.0
C24 C 0.72666 0.46873 0.06868 0.0
C25 C 0.74358 0.45601 0.09594 0.0
C26 C 0.77821 0.40679 0.09166 0.0
C27 C 0.79155 0.3885 0.10921 0.0
C28 C 0.8093 0.38645 0.06699 0.0
C29 C 0.81422 0.40295 0.00681 0.0
C30 C 0.80003 0.42047 0.98818 0.0
C31 C 0.78222 0.42238 0.03028 0.0
P32 P 0.01839 0.72031 0.3039 0.0
H33 H 0.03967 0.73938 0.42009 0.0
H34 H 0.0252 0.76194 0.49875 0.0
H35 H 0.95556 0.74034 0.42536 0.0
H36 H 0.97014 0.71699 0.3476 0.0
H37 H 0.00824 0.71217 0.16818 0.0
H38 H 0.99418 0.6746 0.11764 0.0
H39 H 0.98545 0.62827 0.3095 0.0
H40 H 0.99908 0.66686 0.36128 0.0
H41 H 0.05484 0.76429 0.24694 0.0
H42 H 0.98032 0.73823 0.2343 0.0
O43 O 0.04598 0.71797 0.317 0.0
H44 H 0.05332 0.80207 0.16666 0.0
H45 H 0.97866 0.77586 0.15499 0.0
C46 C 0.00599 0.72638 0.37805 0.0
C47 C 0.0211 0.73844 0.42277 0.0
C48 C 0.01285 0.75169 0.46721 0.0
C49 C 0.98934 0.75343 0.46721 0.0
C50 C 0.97377 0.73935 0.42659 0.0
C51 C 0.98208 0.72594 0.38218 0.0
C52 C 0.00387 0.69261 0.26903 0.0
C53 C 0.00239 0.69427 0.20024 0.0
C54 C 0.99441 0.6726 0.17099 0.0
C55 C 0.98836 0.6485 0.20956 0.0
C56 C 0.98979 0.64667 0.27865 0.0
C57 C 0.99743 0.66866 0.30822 0.0
C58 C 0.01774 0.74832 0.24568 0.0
C59 C 0.03819 0.76667 0.22689 0.0
C60 C 0.03729 0.78827 0.18135 0.0
C61 C 0.0159 0.7917 0.15411 0.0
C62 C 0.99543 0.77347 0.17422 0.0
C63 C 0.99634 0.75207 0.21992 0.0
P64 P 0.77667 0.07427 0.14166 0.0
H65 H 0.76457 0.08767 0.26707 0.0
H66 H 0.73925 0.06425 0.3592 0.0
H67 H 0.72816 0.99653 0.26596 0.0
H68 H 0.75437 0.01988 0.17535 0.0
H69 H 0.79811 0.08565 0.01152 0.0
H70 H 0.82711 0.06899 0.95901 0.0
H71 H 0.82773 0.0137 0.13368 0.0
H72 H 0.79959 0.03164 0.18724 0.0
H73 H 0.76424 0.12148 0.07715 0.0
H74 H 0.74105 0.0407 0.07694 0.0
O75 O 0.79216 0.10169 0.16099 0.0
H76 H 0.73304 0.12924 1.00211 0.0
H77 H 0.70906 0.04795 0.00627 0.0
C78 C 0.76161 0.05549 0.21461 0.0
C79 C 0.75718 0.06762 0.2672 0.0
C80 C 0.74242 0.05425 0.31956 0.0
C81 C 0.73142 0.02852 0.31984 0.0
C82 C 0.73649 0.01621 0.26789 0.0
C83 C 0.75142 0.0296 0.21574 0.0
C84 C 0.79627 0.0595 0.10265 0.0
C85 C 0.80427 0.06971 0.03822 0.0
C86 C 0.82079 0.05999 0.00801 0.0
C87 C 0.82968 0.03973 0.04162 0.0
C88 C 0.82144 0.0294 0.10632 0.0
C89 C 0.80508 0.03943 0.13684 0.0
C90 C 0.7547 0.08047 0.0835 0.0
C91 C 0.75239 0.1054 0.06116 0.0
C92 C 0.73444 0.10979 0.01845 0.0
C93 C 0.71834 0.08926 0.99804 0.0
C94 C 0.72124 0.06435 0.01956 0.0
C95 C 0.73937 0.06007 0.06119 0.0
P96 P 0.51102 0.77256 0.4637 0.0
H97 H 0.51363 0.76558 0.60716 0.0
H98 H 0.53108 0.73591 0.68 0.0
H99 H 0.57233 0.72611 0.51677 0.0
H100 H 0.55414 0.75567 0.44331 0.0
H101 H 0.48411 0.79736 0.36847 0.0
H102 H 0.49339 0.83446 0.28348 0.0
H103 H 0.56604 0.84594 0.33596 0.0
H104 H 0.55646 0.80806 0.42151 0.0
H105 H 0.47992 0.72394 0.50978 0.0
H106 H 0.52127 0.75958 0.33515 0.0
O107 O 0.48895 0.77722 0.50726 0.0
H108 H 0.47208 0.68322 0.46767 0.0
H109 H 0.51359 0.71903 0.29292 0.0
C110 C 0.53244 0.76282 0.51954 0.0
C111 C 0.52719 0.75802 0.58731 0.0
C112 C 0.53724 0.74084 0.62922 0.0
C113 C 0.5528 0.72807 0.60417 0.0
C114 C 0.56003 0.73515 0.53752 0.0
C115 C 0.54993 0.75243 0.49558 0.0
C116 C 0.51952 0.80017 0.4017 0.0
C117 C 0.50205 0.80788 0.36196 0.0
C118 C 0.50738 0.8292 0.31351 0.0
C119 C 0.53041 0.84343 0.30352 0.0
C120 C 0.54813 0.83536 0.3425 0.0
C121 C 0.54269 0.81384 0.39153 0.0
C122 C 0.50063 0.74489 0.4248 0.0
C123 C 0.48669 0.72317 0.46145 0.0
C124 C 0.48249 0.69987 0.43777 0.0
C125 C 0.49226 0.69795 0.37708 0.0
C126 C 0.50553 0.72 0.33938 0.0
C127 C 0.50985 0.74324 0.36335 0.0
P128 P 0.24601 0.4803 0.66599 0.0
H129 H 0.26327 0.49841 0.52884 0.0
H130 H 0.24459 0.49343 0.42242 0.0
H131 H 0.18244 0.44701 0.5242 0.0
H132 H 0.20113 0.45222 0.62984 0.0
H133 H 0.28237 0.45515 0.63479 0.0
H134 H 0.32497 0.46571 0.64375 0.0
H135 H 0.32122 0.53735 0.70435 0.0
H136 H 0.27885 0.52655 0.69705 0.0
H137 H 0.21356 0.47533 0.77598 0.0
H138 H 0.24557 0.53372 0.6184 0.0
O139 O 0.23919 0.45259 0.71639 0.0
H140 H 0.18965 0.50284 0.80679 0.0
H141 H 0.22271 0.56248 0.65184 0.0
C142 C 0.23374 0.47519 0.58703 0.0
C143 C 0.24576 0.48688 0.52806 0.0
C144 C 0.23505 0.48403 0.46734 0.0
C145 C 0.21202 0.46981 0.46486 0.0
C146 C 0.20009 0.45827 0.52432 0.0
C147 C 0.21084 0.461 0.58473 0.0
C148 C 0.27738 0.49014 0.66439 0.0
C149 C 0.29076 0.47325 0.64932 0.0
C150 C 0.31503 0.4792 0.6549 0.0
C151 C 0.32634 0.50232 0.67486 0.0
C152 C 0.31295 0.5195 0.68829 0.0
C153 C 0.28865 0.51335 0.68376 0.0
C154 C 0.23158 0.50258 0.69547 0.0
C155 C 0.21599 0.49445 0.74923 0.0
C156 C 0.20242 0.51047 0.7673 0.0
C157 C 0.2043 0.53521 0.7324 0.0
C158 C 0.22058 0.54357 0.67963 0.0
C159 C 0.23385 0.52725 0.66081 0.0
P160 P 0.11792 0.3091 0.44633 0.0
H161 H 0.13625 0.3128 0.31204 0.0
H162 H 0.12222 0.28787 0.22386 0.0
H163 H 0.05706 0.25671 0.3308 0.0
H164 H 0.07089 0.28204 0.41809 0.0
H165 H 0.14527 0.34965 0.51012 0.0
H166 H 0.13549 0.38518 0.55477 0.0
H167 H 0.0659 0.36639 0.47887 0.0
H168 H 0.07596 0.33075 0.43351 0.0
H169 H 0.1291 0.25937 0.477 0.0
H170 H 0.08269 0.30011 0.5534 0.0
O171 O 0.14681 0.31309 0.43901 0.0
H172 H 0.11034 0.22057 0.54949 0.0
H173 H 0.06352 0.26148 0.6242 0.0
C174 C 0.10478 0.29896 0.37215 0.0
C175 C 0.11862 0.30135 0.31543 0.0
C176 C 0.11061 0.28707 0.26507 0.0
C177 C 0.08873 0.27004 0.27125 0.0
C178 C 0.07411 0.26946 0.32533 0.0
C179 C 0.08199 0.28404 0.37504 0.0
C180 C 0.11148 0.33783 0.46748 0.0
C181 C 0.12808 0.35351 0.50155 0.0
C182 C 0.12245 0.3738 0.52728 0.0
C183 C 0.09991 0.37854 0.52049 0.0
C184 C 0.08336 0.36306 0.48525 0.0
C185 C 0.08915 0.3429 0.45869 0.0
C186 C 0.10761 0.28275 0.51048 0.0
C187 C 0.11524 0.26011 0.51044 0.0
C188 C 0.10426 0.23788 0.55114 0.0
C189 C 0.08529 0.23789 0.59223 0.0
C190 C 0.07824 0.26086 0.59375 0.0
C191 C 0.08926 0.28307 0.55311 0.0
P192 P 0.30107 0.0787 0.65036 0.0
H193 H 0.28139 0.07776 0.51493 0.0
H194 H 0.30004 0.07904 0.4082 0.0
H195 H 0.3675 0.09076 0.50002 0.0
H196 H 0.34864 0.08772 0.60637 0.0
H197 H 0.27263 0.09799 0.73593 0.0
H198 H 0.23141 0.08592 0.76731 0.0
H199 H 0.21928 0.03392 0.62469 0.0
H200 H 0.26091 0.04552 0.59427 0.0
H201 H 0.33447 0.07592 0.75666 0.0
H202 H 0.28959 0.02385 0.64628 0.0
O203 O 0.31308 0.1054 0.68013 0.0
H204 H 0.3517 0.04159 0.80941 0.0
H205 H 0.30607 0.98887 0.70126 0.0
C206 C 0.31357 0.08192 0.56901 0.0
C207 C 0.30011 0.08016 0.51226 0.0
C208 C 0.31089 0.08128 0.45092 0.0
C209 C 0.33531 0.08459 0.4454 0.0
C210 C 0.34865 0.0874 0.50233 0.0
C211 C 0.33788 0.08592 0.56329 0.0
C212 C 0.26988 0.07326 0.66124 0.0
C213 C 0.26113 0.08445 0.71 0.0
C214 C 0.23759 0.07741 0.72841 0.0
C215 C 0.22227 0.05906 0.69831 0.0
C216 C 0.23077 0.04837 0.64799 0.0
C217 C 0.25453 0.05514 0.63028 0.0
C218 C 0.31059 0.05243 0.69797 0.0
C219 C 0.3278 0.05691 0.74521 0.0
C220 C 0.33752 0.03708 0.77589 0.0
C221 C 0.33016 0.01229 0.76006 0.0
C222 C 0.31221 0.00771 0.71444 0.0
C223 C 0.30262 0.02766 0.68337 0.0
P224 P 0.4296 0.21175 0.23992 0.0
H225 H 0.42009 0.21862 0.09858 0.0
H226 H 0.43931 0.25228 0.01233 0.0
H227 H 0.49824 0.27018 0.13808 0.0
H228 H 0.47913 0.23599 0.22393 0.0
H229 H 0.40724 0.18496 0.36115 0.0
H230 H 0.41623 0.15249 0.4452 0.0
H231 H 0.47434 0.14661 0.32543 0.0
H232 H 0.46577 0.18075 0.24243 0.0
H233 H 0.41362 0.25912 0.21205 0.0
H234 H 0.45544 0.22485 0.35804 0.0
O235 O 0.40187 0.20388 0.21733 0.0
H236 H 0.42633 0.2999 0.25305 0.0
H237 H 0.46786 0.26512 0.39924 0.0
C238 C 0.44809 0.2248 0.16803 0.0
C239 C 0.43768 0.22878 0.1065 0.0
C240 C 0.44864 0.24823 0.05718 0.0
C241 C 0.47004 0.2642 0.06908 0.0
C242 C 0.48159 0.25834 0.12794 0.0
C243 C 0.47081 0.23855 0.17671 0.0
C244 C 0.43577 0.18519 0.29559 0.0
C245 C 0.4218 0.17652 0.35261 0.0
C246 C 0.42693 0.15769 0.40066 0.0
C247 C 0.44598 0.14653 0.39247 0.0
C248 C 0.45973 0.15491 0.33412 0.0
C249 C 0.45474 0.17424 0.28618 0.0
C250 C 0.43304 0.23874 0.28303 0.0
C251 C 0.42478 0.2601 0.25449 0.0
C252 C 0.43228 0.28343 0.27734 0.0
C253 C 0.44807 0.28565 0.32932 0.0
C254 C 0.45538 0.26389 0.35985 0.0
C255 C 0.44813 0.24072 0.33648 0.0
Nd256 Nd 0.00553 1.00429 0.7854 0.0
Nd257 Nd 0.02699 0.01906 0.91377 0.0
C258 C 0.97941 0.9812 0.69679 0.0
C259 C 0.97469 0.95539 0.67787 0.0
C260 C 0.96644 0.9335 0.7242 0.0
C261 C 0.96365 0.90921 0.70624 0.0
C262 C 0.96911 0.9063 0.64168 0.0
C263 C 0.97682 0.92824 0.59509 0.0
C264 C 0.97953 0.9525 0.613 0.0
C265 C 0.05328 0.01478 0.78478 0.0
C266 C 0.01512 0.9598 0.90522 0.0
C267 C 0.05256 0.04172 1.00412 0.0
C268 C 0.0552 0.0669 0.02481 0.0
C269 C 0.07039 0.07389 0.07541 0.0
C270 C 0.07313 0.09812 0.09387 0.0
C271 C 0.0609 0.11577 0.06139 0.0
C272 C 0.04559 0.10856 0.01095 0.0
C273 C 0.04264 0.08426 0.99328 0.0
C274 C 0.97913 0.00896 0.9142 0.0
C275 C 0.01866 0.06378 0.7928 0.0
O276 O 0.97132 0.98349 0.75425 0.0
O277 O 0.00049 0.99497 0.68375 0.0
O278 O 0.04122 0.0206 0.7336 0.0
O279 O 0.04023 1.00246 0.83227 0.0
O280 O 0.0026 0.96584 0.85367 0.0
O281 O 0.02925 0.97743 0.93304 0.0
O282 O 0.06035 0.04179 0.9446 0.0
O283 O 0.03224 0.02622 0.01714 0.0
O284 O 0.99131 1.00276 0.96478 0.0
O285 O 0.99225 0.02124 0.86671 0.0
O286 O 0.02981 0.05748 0.84686 0.0
O287 O 0.00539 0.04662 0.76152 0.0
H288 H 0.96255 0.93509 0.77466 0.0
H289 H 0.95787 0.89271 0.74342 0.0
H290 H 0.98085 0.92665 0.54472 0.0
H291 H 0.9858 0.96905 0.57632 0.0
H292 H 0.0802 0.06069 0.10036 0.0
H293 H 0.08515 0.10322 0.13266 0.0
H294 H 0.03571 0.12161 0.98564 0.0
H295 H 0.03055 0.07897 0.95497 0.0
Nd296 Nd 0.52476 0.99904 0.81921 0.0
Nd297 Nd 0.50852 0.03314 0.90327 0.0
C298 C 0.53919 0.96487 0.76089 0.0
C299 C 0.55898 0.96604 0.71573 0.0
C300 C 0.57657 0.95298 0.73631 0.0
C301 C 0.59618 0.95537 0.69587 0.0
C302 C 0.59854 0.97081 0.63381 0.0
C303 C 0.58059 0.98332 0.61266 0.0
C304 C 0.56109 0.98105 0.65315 0.0
C305 C 0.50977 0.03963 0.7486 0.0
C306 C 0.56245 0.04845 0.84685 0.0
C307 C 0.49518 0.06883 0.95801 0.0
C308 C 0.47566 0.07125 0.99945 0.0
C309 C 0.45229 0.06426 0.98062 0.0
C310 C 0.43419 0.06683 0.02102 0.0
C311 C 0.43914 0.07612 0.0812 0.0
C312 C 0.4625 0.08301 0.09989 0.0
C313 C 0.48056 0.0807 0.05927 0.0
C314 C 0.51998 0.99096 0.97459 0.0
C315 C 0.47072 0.98385 0.87633 0.0
O316 O 0.54453 0.96848 0.82138 0.0
O317 O 0.52276 0.97629 0.73754 0.0
O318 O 0.52819 0.03221 0.73241 0.0
O319 O 0.50029 0.0258 0.79996 0.0
O320 O 0.55985 0.0253 0.83206 0.0
O321 O 0.54458 0.05683 0.86601 0.0
O322 O 0.49071 0.06529 0.89696 0.0
O323 O 0.5094 0.05523 0.98618 0.0
O324 O 0.50264 1.00044 0.98945 0.0
O325 O 0.53143 1.00443 0.92516 0.0
O326 O 0.47367 0.00707 0.89098 0.0
O327 O 0.48819 0.97518 0.85496 0.0
H328 H 0.57538 0.94132 0.78432 0.0
H329 H 0.60975 0.94565 0.71401 0.0
H330 H 0.58159 0.99497 0.56468 0.0
H331 H 0.54786 0.99135 0.63556 0.0
H332 H 0.44795 0.05673 0.93492 0.0
H333 H 0.41633 0.06116 0.00573 0.0
H334 H 0.46683 0.09047 0.14568 0.0
H335 H 0.49843 0.08628 0.07468 0.0
Nd336 Nd 0.51348 0.50116 0.89619 0.0
Nd337 Nd 0.53533 0.4962 0.77069 0.0
C338 C 0.48658 0.50334 0.99625 0.0
C339 C 0.48651 0.52009 0.04658 0.0
C340 C 0.46867 0.53351 0.04717 0.0
C341 C 0.46858 0.5499 0.09341 0.0
C342 C 0.48621 0.55297 0.14039 0.0
C343 C 0.50387 0.53925 0.14046 0.0
C344 C 0.50407 0.52302 0.09388 0.0
C345 C 0.56112 0.50788 0.90378 0.0
C346 C 0.54117 0.55224 0.80496 0.0
C347 C 0.5559 0.48343 0.67063 0.0
C348 C 0.54716 0.46411 0.62829 0.0
C349 C 0.56049 0.46154 0.57461 0.0
C350 C 0.55119 0.44408 0.53225 0.0
C351 C 0.5285 0.42894 0.54352 0.0
C352 C 0.51534 0.43155 0.59772 0.0
C353 C 0.52455 0.44906 0.63943 0.0
C354 C 0.49224 0.50787 0.75625 0.0
C355 C 0.50907 0.44367 0.86292 0.0
O356 O 0.48313 0.51287 0.93532 0.0
O357 O 0.50253 0.48975 1.00093 0.0
O358 O 0.54909 0.521 0.9314 0.0
O359 O 0.54795 0.4914 0.87515 0.0
O360 O 0.5225 0.5425 0.84323 0.0
O361 O 0.55276 0.53745 0.78013 0.0
O362 O 0.55915 0.47486 0.73221 0.0
O363 O 0.54508 0.50211 0.66472 0.0
O364 O 0.5099 0.51843 0.71735 0.0
O365 O 0.49735 0.49141 0.80066 0.0
O366 O 0.51744 0.45418 0.80353 0.0
O367 O 0.50668 0.45765 0.90848 0.0
H368 H 0.45486 0.53143 0.01152 0.0
H369 H 0.45465 0.56008 0.09269 0.0
H370 H 0.5178 0.54147 0.17569 0.0
H371 H 0.51811 0.51298 0.09471 0.0
H372 H 0.57791 0.47322 0.56502 0.0
H373 H 0.56172 0.44235 0.49095 0.0
H374 H 0.49768 0.4205 0.60697 0.0
H375 H 0.51377 0.45121 0.67963 0.0
Nd376 Nd 0.00495 0.52113 0.7966 0.0
Nd377 Nd 0.02514 0.48087 0.89989 0.0
C378 C 0.97861 0.54954 0.73072 0.0
C379 C 0.9587 0.54395 0.68719 0.0
C380 C 0.94553 0.56221 0.66739 0.0
C381 C 0.92704 0.55712 0.62415 0.0
C382 C 0.92149 0.53368 0.59991 0.0
C383 C 0.93458 0.51528 0.62105 0.0
C384 C 0.95297 0.52036 0.66439 0.0
C385 C 0.03132 0.4931 0.74439 0.0
C386 C 0.9718 0.46388 0.85026 0.0
C387 C 0.05031 0.44845 0.95102 0.0
C388 C 0.06982 0.44896 0.99795 0.0
C389 C 0.09295 0.46019 0.97696 0.0
C390 C 0.11114 0.46135 0.02186 0.0
C391 C 0.10669 0.4513 0.08882 0.0
C392 C 0.08363 0.43963 0.10954 0.0
C393 C 0.06543 0.4384 0.06459 0.0
C394 C 0.00924 0.51517 0.96469 0.0
C395 C 0.05656 0.53881 0.84886 0.0
O396 O 0.97483 0.53975 0.79288 0.0
O397 O 0.99856 0.54708 0.70794 0.0
O398 O 0.03117 0.51655 0.72072 0.0
O399 O 0.01665 0.48452 0.79136 0.0
O400 O 0.97437 0.48623 0.81219 0.0
O401 O 0.98857 0.45691 0.88736 0.0
O402 O 0.05497 0.46263 0.89314 0.0
O403 O 0.02984 0.44879 0.97534 0.0
O404 O 0.01855 0.49725 0.99525 0.0
O405 O 0.0093 0.51396 0.90419 0.0
O406 O 0.05605 0.51445 0.86965 0.0
O407 O 0.0378 0.54724 0.8285 0.0
H408 H 0.94965 0.58046 0.68494 0.0
H409 H 0.91711 0.57156 0.60969 0.0
H410 H 0.93107 0.49718 0.60279 0.0
H411 H 0.96298 0.50601 0.67929 0.0
H412 H 0.09704 0.46837 0.92591 0.0
H413 H 0.12866 0.47059 1.00425 0.0
H414 H 0.07963 0.43127 0.16049 0.0
H415 H 0.04787 0.42931 0.0822 0.0
H416 H 0.18212 0.05774 0.62766 0.0
H417 H 0.20774 0.0404 0.82463 0.0
H418 H 0.16719 0.0263 0.86809 0.0
H419 H 0.13489 0.08326 0.67741 0.0
H420 H 0.11508 0.0706 0.61664 0.0
H421 H 0.14606 0.07809 0.60034 0.0
H422 H 0.14392 0.03194 0.57858 0.0
H423 H 0.11291 0.02434 0.59463 0.0
H424 H 0.13118 1.00558 0.64063 0.0
H425 H 0.12404 0.01407 0.89006 0.0
H426 H 0.08096 1.00613 0.88979 0.0
H427 H 0.08335 0.03343 0.6796 0.0
C428 C 0.17908 0.05073 0.67976 0.0
C429 C 0.1979 0.05001 0.72295 0.0
C430 C 0.19344 0.04112 0.791 0.0
C431 C 0.17053 0.03303 0.81601 0.0
C432 C 0.1523 0.03418 0.77236 0.0
C433 C 0.15628 0.04293 0.70576 0.0
C434 C 0.13357 0.04317 0.67007 0.0
C435 C 0.13233 0.0704 0.63932 0.0
C436 C 0.1302 0.02518 0.6179 0.0
C437 C 0.11625 0.03315 0.72696 0.0
C438 C 0.12742 0.02789 0.78544 0.0
C439 C 0.11509 0.01818 0.84463 0.0
C440 C 0.09067 0.01376 0.84404 0.0
C441 C 0.07893 0.01931 0.78481 0.0
C442 C 0.09192 0.02913 0.72565 0.0
H443 H 0.48931 0.13749 0.4315 0.0
H444 H 0.41504 0.11027 0.47477 0.0
H445 H 0.4237 0.08133 0.57075 0.0
H446 H 0.50331 0.0744 0.47607 0.0
H447 H 0.53112 0.08725 0.50971 0.0
H448 H 0.51919 0.10603 0.44363 0.0
H449 H 0.52276 0.14218 0.51467 0.0
H450 H 0.5344 0.12341 0.5813 0.0
H451 H 0.5089 0.1354 0.5952 0.0
H452 H 0.44007 0.05803 0.66726 0.0
H453 H 0.46305 0.03677 0.74979 0.0
H454 H 0.52672 0.07509 0.63983 0.0
C455 C 0.4748 0.12516 0.46024 0.0
C456 C 0.45145 0.12683 0.44584 0.0
C457 C 0.43312 0.11027 0.48562 0.0
C458 C 0.43782 0.09349 0.54015 0.0
C459 C 0.46096 0.09297 0.554 0.0
C460 C 0.47916 0.10788 0.51449 0.0
C461 C 0.50243 0.10307 0.54007 0.0
C462 C 0.51474 0.09203 0.48935 0.0
C463 C 0.51804 0.12747 0.55892 0.0
C464 C 0.49442 0.08346 0.60067 0.0
C465 C 0.47042 0.07819 0.60796 0.0
C466 C 0.45885 0.06168 0.66159 0.0
C467 C 0.4721 0.04982 0.70844 0.0
C468 C 0.49665 0.05415 0.70095 0.0
C469 C 0.50795 0.07129 0.64642 0.0
H470 H 0.3532 0.47192 0.74173 0.0
H471 H 0.35718 0.54636 0.62646 0.0
H472 H 0.4 0.55652 0.63923 0.0
H473 H 0.39818 0.49281 0.85766 0.0
H474 H 0.40948 0.46435 0.86357 0.0
H475 H 0.37913 0.46303 0.84616 0.0
H476 H 0.38348 0.44366 0.74019 0.0
H477 H 0.4138 0.44484 0.75742 0.0
H478 H 0.40559 0.46018 0.67937 0.0
H479 H 0.44232 0.55755 0.65878 0.0
H480 H 0.48148 0.5501 0.68737 0.0
H481 H 0.45009 0.47588 0.79529 0.0
C482 C 0.36314 0.49032 0.7191 0.0
C483 C 0.35198 0.50836 0.68283 0.0
C484 C 0.36545 0.53237 0.65463 0.0
C485 C 0.38973 0.53827 0.66157 0.0
C486 C 0.40021 0.52007 0.69761 0.0
C487 C 0.38736 0.49666 0.72637 0.0
C488 C 0.40295 0.48053 0.76261 0.0
C489 C 0.39708 0.47485 0.83691 0.0
C490 C 0.40136 0.45585 0.73311 0.0
C491 C 0.42662 0.49836 0.74869 0.0
C492 C 0.42461 0.52104 0.71098 0.0
C493 C 0.44409 0.54 0.68891 0.0
C494 C 0.46623 0.53559 0.70527 0.0
C495 C 0.46869 0.51253 0.74385 0.0
C496 C 0.44862 0.49383 0.76658 0.0
H497 H 0.06057 0.37619 0.59432 0.0
H498 H 0.12553 0.42696 0.51982 0.0
H499 H 0.11579 0.461 0.57406 0.0
H500 H 0.02518 0.4225 0.57787 0.0
H501 H 0.00881 0.40932 0.65343 0.0
H502 H 0.02093 0.38899 0.60866 0.0
H503 H 0.04254 0.37436 0.71338 0.0
H504 H 0.03062 0.39484 0.75832 0.0
H505 H 0.06175 0.39784 0.75374 0.0
H506 H 0.09821 0.49002 0.63112 0.0
H507 H 0.07419 0.51217 0.68946 0.0
H508 H 0.02169 0.44206 0.73405 0.0
C509 C 0.07263 0.39455 0.58902 0.0
C510 C 0.09367 0.39908 0.55204 0.0
C511 C 0.10926 0.42316 0.54748 0.0
C512 C 0.1039 0.44256 0.57828 0.0
C513 C 0.08308 0.43745 0.61452 0.0
C514 C 0.06774 0.41401 0.62048 0.0
C515 C 0.0466 0.41351 0.66279 0.0
C516 C 0.02405 0.40828 0.62332 0.0
C517 C 0.04531 0.39398 0.7258 0.0
C518 C 0.05224 0.4405 0.67853 0.0
C519 C 0.07338 0.45394 0.65008 0.0
C520 C 0.08178 0.47962 0.65426 0.0
C521 C 0.06803 0.49203 0.68739 0.0
C522 C 0.0463 0.47869 0.71657 0.0
C523 C 0.03849 0.45249 0.7132 0.0
H524 H 0.86725 0.02378 0.10138 0.0
H525 H 0.83497 0.03542 0.91075 0.0
H526 H 0.86862 0.02567 0.85751 0.0
H527 H 0.92396 0.05129 0.05188 0.0
H528 H 0.93713 0.02872 0.10391 0.0
H529 H 0.90963 0.03438 0.12781 0.0
H530 H 0.89086 0.98626 0.13602 0.0
H531 H 0.91842 0.98037 0.11262 0.0
H532 H 0.89271 0.97015 0.06622 0.0
H533 H 0.90814 0.02022 0.82376 0.0
H534 H 0.94906 0.01606 0.81382 0.0
H535 H 0.9536 1.00414 0.02695 0.0
C536 C 0.8668 0.02353 0.04872 0.0
C537 C 0.84842 0.03061 0.01041 0.0
C538 C 0.84899 0.03058 0.94126 0.0
C539 C 0.86796 0.02484 0.91051 0.0
C540 C 0.88602 0.01861 0.94964 0.0
C541 C 0.88538 0.01746 0.01738 0.0
C542 C 0.90742 0.01128 0.048 0.0
C543 C 0.92029 0.0327 0.08505 0.0
C544 C 0.90202 0.98547 0.09339 0.0
C545 C 0.92088 0.00996 0.98673 0.0
C546 C 0.90827 0.01423 0.93039 0.0
C547 C 0.91796 0.01623 0.86758 0.0
C548 C 0.94118 0.0139 0.86235 0.0
C549 C 0.95425 0.00937 0.91958 0.0
C550 C 0.94381 0.00701 0.98239 0.0
H551 H 0.50511 0.88023 0.28013 0.0
H552 H 0.56658 0.85898 0.21173 0.0
H553 H 0.57198 0.89557 0.12109 0.0
H554 H 0.4828 0.89663 0.12384 0.0
H555 H 0.4719 0.92279 0.14613 0.0
H556 H 0.47431 0.89641 0.2081 0.0
H557 H 0.50008 0.92733 0.27798 0.0
H558 H 0.49761 0.95385 0.21639 0.0
H559 H 0.526 0.94888 0.24126 0.0
H560 H 0.56866 0.93361 0.03261 0.0
H561 H 0.55771 0.96963 0.95906 0.0
H562 H 0.49803 0.96407 0.08674 0.0
C563 C 0.5198 0.88328 0.24631 0.0
C564 C 0.53536 0.86665 0.25282 0.0
C565 C 0.55454 0.87159 0.20802 0.0
C566 C 0.55766 0.89224 0.15621 0.0
C567 C 0.54154 0.90785 0.15026 0.0
C568 C 0.5231 0.90363 0.19465 0.0
C569 C 0.5077 0.92243 0.17701 0.0
C570 C 0.48271 0.90874 0.16292 0.0
C571 C 0.50787 0.93911 0.23139 0.0
C572 C 0.52004 0.93772 0.115 0.0
C573 C 0.53961 0.92925 0.10021 0.0
C574 C 0.55343 0.94044 0.04413 0.0
C575 C 0.54708 0.96081 1.00254 0.0
C576 C 0.52705 0.96961 0.01726 0.0
C577 C 0.51348 0.95782 0.07422 0.0
H578 H 0.6677 0.44022 0.97813 0.0
H579 H 0.69767 0.5013 0.0886 0.0
H580 H 0.66641 0.52341 0.05093 0.0
H581 H 0.64705 0.47968 0.83907 0.0
H582 H 0.62059 0.45625 0.83187 0.0
H583 H 0.64658 0.44629 0.86219 0.0
H584 H 0.62402 0.4216 0.96819 0.0
H585 H 0.59799 0.43139 0.93811 0.0
H586 H 0.60902 0.43814 0.01746 0.0
H587 H 0.63031 0.53725 0.00907 0.0
H588 H 0.59151 0.54143 0.96691 0.0
H589 H 0.58475 0.47134 0.88439 0.0
C590 C 0.66778 0.4583 0.99423 0.0
C591 C 0.68531 0.46907 0.03602 0.0
C592 C 0.68475 0.49285 0.05557 0.0
C593 C 0.66699 0.50553 0.03465 0.0
C594 C 0.64991 0.49427 0.99401 0.0
C595 C 0.65015 0.4712 0.97389 0.0
C596 C 0.62899 0.46254 0.93321 0.0
C597 C 0.63624 0.46112 0.86238 0.0
C598 C 0.61413 0.43691 0.96624 0.0
C599 C 0.61655 0.48405 0.93494 0.0
C600 C 0.62902 0.50227 0.96979 0.0
C601 C 0.6205 0.52326 0.98107 0.0
C602 C 0.59847 0.52546 0.95704 0.0
C603 C 0.58524 0.50677 0.92231 0.0
C604 C 0.59463 0.48607 0.91014 0.0
H605 H 0.00674 0.60596 0.23305 0.0
H606 H 0.95864 0.64038 0.1076 0.0
H607 H 0.95613 0.60738 0.03568 0.0
H608 H 0.03866 0.5929 0.11013 0.0
H609 H 0.04314 0.56265 0.15063 0.0
H610 H 0.03826 0.58606 0.19893 0.0
H611 H 0.00318 0.55379 0.25939 0.0
H612 H 0.00821 0.53002 0.21212 0.0
H613 H 0.97996 0.5379 0.21203 0.0
H614 H 0.96393 0.57549 0.96794 0.0
H615 H 0.97839 0.5437 0.91521 0.0
H616 H 0.02031 0.5288 0.08581 0.0
C617 C 0.99494 0.60589 0.19202 0.0
C618 C 0.98281 0.62564 0.17595 0.0
C619 C 0.96809 0.6254 0.12066 0.0
C620 C 0.96653 0.60674 0.0796 0.0
C621 C 0.97959 0.58823 0.09494 0.0
C622 C 0.99316 0.58732 0.15053 0.0
C623 C 0.00684 0.5666 0.15294 0.0
C624 C 0.03328 0.57773 0.15315 0.0
C625 C 0.99907 0.54584 0.21266 0.0
C626 C -0.00047 0.55672 0.08884 0.0
C627 C 0.98373 0.56939 0.05627 0.0
C628 C 0.97592 0.56506 0.99361 0.0
C629 C 0.98437 0.54718 0.9637 0.0
C630 C 0.00033 0.53383 0.99652 0.0
C631 C 0.00782 0.53853 0.06008 0.0
H632 H 0.07316 0.19059 0.55377 0.0
H633 H 0.06798 0.23082 0.71871 0.0
H634 H 0.04576 0.19101 0.78276 0.0
H635 H 0.01603 0.14729 0.5761 0.0
H636 H 0.02651 0.12073 0.55466 0.0
H637 H 0.04043 0.15276 0.51943 0.0
H638 H 0.08034 0.14531 0.5632 0.0
H639 H 0.06661 0.11321 0.59775 0.0
H640 H 0.0831 0.13434 0.64972 0.0
H641 H 0.02679 0.1468 0.8315 0.0
H642 H 0.01392 0.10034 0.864 0.0
H643 H 0.0315 0.08839 0.66842 0.0
C644 C 0.06741 0.19104 0.60342 0.0
C645 C 0.07225 0.21387 0.63117 0.0
C646 C 0.06419 0.21367 0.69608 0.0
C647 C 0.05157 0.19116 0.73283 0.0
C648 C 0.04706 0.16905 0.70387 0.0
C649 C 0.05481 0.16875 0.6408 0.0
C650 C 0.04881 0.14212 0.62273 0.0
C651 C 0.03194 0.14065 0.56479 0.0
C652 C 0.07104 0.13322 0.60749 0.0
C653 C 0.03694 0.12736 0.68617 0.0
C654 C 0.03591 0.14337 0.73201 0.0
C655 C 0.02722 0.13412 0.79583 0.0
C656 C 0.02003 0.10776 0.8139 0.0
C657 C 0.0216 0.09104 0.76843 0.0
C658 C 0.02956 0.10093 0.70331 0.0
H659 H 0.34823 1.00344 0.88284 0.0
H660 H 0.34289 0.97738 0.69248 0.0
H661 H 0.37291 0.95303 0.72382 0.0
H662 H 0.4042 0.02104 0.87998 0.0
H663 H 0.40959 0.0123 0.96617 0.0
H664 H 0.38184 0.01844 0.94161 0.0
H665 H 0.36151 0.9737 1.00112 0.0
H666 H 0.38955 0.96743 0.02554 0.0
H667 H 0.36997 0.9458 0.98088 0.0
H668 H 0.41058 0.94349 0.75811 0.0
H669 H 0.45202 0.95233 0.78818 0.0
H670 H 0.43498 0.98533 0.95539 0.0
C671 C 0.35279 0.9918 0.84881 0.0
C672 C 0.34322 0.9924 0.78526 0.0
C673 C 0.34959 0.97695 0.74197 0.0
C674 C 0.36673 0.96298 0.75945 0.0
C675 C 0.37723 0.96444 0.82057 0.0
C676 C 0.37024 0.97825 0.86511 0.0
C677 C 0.38735 0.98161 0.92064 0.0
C678 C 0.39627 0.01 0.92731 0.0
C679 C 0.37644 0.9662 0.98591 0.0
C680 C 0.40632 0.97016 0.89636 0.0
C681 C 0.3997 0.95916 0.84041 0.0
C682 C 0.41571 0.95123 0.80306 0.0
C683 C 0.43926 0.95621 0.82059 0.0
C684 C 0.44649 0.96944 0.87412 0.0
C685 C 0.42965 0.97483 0.91483 0.0
H686 H 0.45499 0.29762 0.45396 0.0
H687 H 0.46564 0.3301 0.24738 0.0
H688 H 0.48721 0.37078 0.27917 0.0
H689 H 0.44773 0.3553 0.514 0.0
H690 H 0.463 0.34858 0.58909 0.0
H691 H 0.44714 0.32281 0.54949 0.0
H692 H 0.48463 0.30524 0.54565 0.0
H693 H 0.50066 0.3311 0.58457 0.0
H694 H 0.51073 0.32561 0.5065 0.0
H695 H 0.50997 0.40695 0.33415 0.0
H696 H 0.52942 0.43682 0.40823 0.0
H697 H 0.50403 0.38 0.57795 0.0
C698 C 0.46166 0.31339 0.41546 0.0
C699 C 0.45858 0.3108 0.3483 0.0
C700 C 0.4675 0.33185 0.29921 0.0
C701 C 0.47992 0.35493 0.31677 0.0
C702 C 0.48312 0.35664 0.38354 0.0
C703 C 0.47401 0.3365 0.43209 0.0
C704 C 0.48025 0.34297 0.50018 0.0
C705 C 0.45821 0.34239 0.54055 0.0
C706 C 0.49494 0.32517 0.53632 0.0
C707 C 0.49453 0.36979 0.48243 0.0
C708 C 0.49606 0.37737 0.41498 0.0
C709 C 0.50878 0.40128 0.38707 0.0
C710 C 0.51992 0.41801 0.4294 0.0
C711 C 0.51814 0.41071 0.4987 0.0
C712 C 0.50544 0.3862 0.52518 0.0
H713 H 0.18537 0.53728 0.85276 0.0
H714 H 0.18427 0.56746 0.64491 0.0
H715 H 0.15046 0.58497 0.66573 0.0
H716 H 0.12985 0.51063 0.86427 0.0
H717 H 0.12442 0.51585 0.9469 0.0
H718 H 0.15323 0.51479 0.92233 0.0
H719 H 0.16885 0.55946 0.95577 0.0
H720 H 0.13971 0.5605 0.98 0.0
H721 H 0.15624 0.58574 0.92098 0.0
H722 H 0.11161 0.58885 0.70043 0.0
H723 H 0.07093 0.57454 0.74154 0.0
H724 H 0.09457 0.53845 0.92439 0.0
C725 C 0.17845 0.54819 0.81184 0.0
C726 C 0.18761 0.55084 0.74718 0.0
C727 C 0.17805 0.56547 0.69525 0.0
C728 C 0.15871 0.57556 0.70665 0.0
C729 C 0.14903 0.57095 0.7702 0.0
C730 C 0.15871 0.55764 0.82213 0.0
C731 C 0.14242 0.55017 0.88182 0.0
C732 C 0.13717 0.52116 0.90501 0.0
C733 C 0.15241 0.56486 0.93795 0.0
C734 C 0.12118 0.55899 0.85323 0.0
C735 C 0.12574 0.57221 0.79003 0.0
C736 C 0.10799 0.57921 0.75048 0.0
C737 C 0.08488 0.57112 0.77434 0.0
C738 C 0.07981 0.55562 0.83629 0.0
C739 C 0.09822 0.55077 0.87746 0.0
H740 H 0.03681 0.84155 0.15925 0.0
H741 H 0.99203 0.79259 0.03894 0.0
H742 H 0.98805 0.83031 0.96002 0.0
H743 H 0.00584 0.89089 0.13907 0.0
H744 H 0.03139 0.91639 0.13574 0.0
H745 H 0.03192 0.88549 0.18072 0.0
H746 H 0.06801 0.8837 0.11176 0.0
H747 H 0.06767 0.91467 0.06674 0.0
H748 H 0.06667 0.8881 0.02302 0.0
H749 H 0.98761 0.87316 0.89704 0.0
H750 H 0.99083 0.91848 0.8535 0.0
H751 H 0.03593 0.93964 0.01495 0.0
C752 C 0.02651 0.83878 0.11569 0.0
C753 C 0.01473 0.81422 0.10503 0.0
C754 C 0.00103 0.81131 0.04818 0.0
C755 C 0.99876 0.83257 1.00298 0.0
C756 C 0.01034 0.85655 0.0154 0.0
C757 C 0.02399 0.8598 0.0702 0.0
C758 C 0.03384 0.88771 0.07325 0.0
C759 C 0.02522 0.89557 0.13591 0.0
C760 C 0.06064 0.8939 0.06838 0.0
C761 C 0.02339 0.89965 0.01196 0.0
C762 C 0.00999 0.88133 0.97917 0.0
C763 C 0.99815 0.88769 0.92208 0.0
C764 C 3e-05 0.91352 0.89786 0.0
C765 C 0.0136 0.93265 0.93081 0.0
C766 C 0.02549 0.9255 0.98845 0.0
H767 H 0.69643 0.06187 0.90356 0.0
H768 H 0.69247 0.12517 0.00597 0.0
H769 H 0.65465 0.12725 0.95549 0.0
H770 H 0.66183 0.07993 0.75346 0.0
H771 H 0.64759 0.04709 0.7528 0.0
H772 H 0.67712 0.05506 0.78106 0.0
H773 H 0.6648 0.02535 0.89164 0.0
H774 H 0.63539 0.01738 0.8638 0.0
H775 H 0.64119 0.03015 0.94003 0.0
H776 H 0.61448 0.11742 0.91292 0.0
H777 H 0.57499 0.09543 0.88624 0.0
H778 H 0.60375 0.03675 0.81709 0.0
C779 C 0.68789 0.07655 0.9144 0.0
C780 C 0.69762 0.09339 0.95878 0.0
C781 C 0.6858 0.11237 0.97114 0.0
C782 C 0.66418 0.11368 0.94272 0.0
C783 C 0.65458 0.09596 0.90184 0.0
C784 C 0.66613 0.0778 0.88741 0.0
C785 C 0.65059 0.05844 0.85107 0.0
C786 C 0.65984 0.06025 0.78039 0.0
C787 C 0.64782 0.03125 0.88893 0.0
C788 C 0.62805 0.0676 0.85113 0.0
C789 C 0.63092 0.08973 0.87869 0.0
C790 C 0.61211 0.1004 0.88999 0.0
C791 C 0.5897 0.08769 0.8748 0.0
C792 C 0.58625 0.06432 0.84962 0.0
C793 C 0.60582 0.05472 0.83557 0.0
H794 H 0.48276 0.686 0.25297 0.0
H795 H 0.49733 0.65344 0.45128 0.0
H796 H 0.49596 0.61216 0.41337 0.0
H797 H 0.44313 0.62963 0.2107 0.0
H798 H 0.4537 0.63505 0.12656 0.0
H799 H 0.45469 0.66162 0.17022 0.0
H800 H 0.49913 0.67658 0.14555 0.0
H801 H 0.4983 0.65006 0.10192 0.0
H802 H 0.51795 0.65482 0.1694 0.0
H803 H 0.49522 0.57519 0.35232 0.0
H804 H 0.49374 0.54477 0.27315 0.0
H805 H 0.47972 0.60167 0.11518 0.0
C806 C 0.48554 0.67013 0.28845 0.0
C807 C 0.48998 0.67283 0.3551 0.0
C808 C 0.49348 0.65164 0.40018 0.0
C809 C 0.49288 0.62818 0.37905 0.0
C810 C 0.48866 0.62624 0.31282 0.0
C811 C 0.48491 0.6466 0.26828 0.0
C812 C 0.48126 0.63969 0.19956 0.0
C813 C 0.45673 0.64161 0.17536 0.0
C814 C 0.5003 0.65627 0.15128 0.0
C815 C 0.48374 0.61233 0.21226 0.0
C816 C 0.48803 0.60491 0.27785 0.0
C817 C 0.49171 0.58071 0.30091 0.0
C818 C 0.49096 0.56364 0.25564 0.0
C819 C 0.48649 0.57086 0.18827 0.0
C820 C 0.48277 0.5955 0.16661 0.0
H821 H 0.85741 0.39916 0.05292 0.0
H822 H 0.81966 0.41064 0.87162 0.0
H823 H 0.85674 0.42053 0.80806 0.0
H824 H 0.90248 0.44871 0.01609 0.0
H825 H 0.925 0.43376 0.05311 0.0
H826 H 0.89542 0.42256 0.08288 0.0
H827 H 0.89619 0.377 0.06158 0.0
H828 H 0.92598 0.38805 0.03205 0.0
H829 H 0.90421 0.37202 0.98083 0.0
H830 H 0.89781 0.43764 0.76771 0.0
H831 H 0.93955 0.45866 0.75344 0.0
H832 H 0.95068 0.43336 0.95955 0.0
C833 C 0.85674 0.40259 0.99965 0.0
C834 C 0.83557 0.40405 0.96733 0.0
C835 C 0.83567 0.40959 0.89758 0.0
C836 C 0.85663 0.41501 0.86099 0.0
C837 C 0.87731 0.41436 0.89472 0.0
C838 C 0.87747 0.40785 0.96246 0.0
C839 C 0.90215 0.4113 0.98769 0.0
C840 C 0.9065 0.43021 0.03784 0.0
C841 C 0.90744 0.38556 0.01728 0.0
C842 C 0.91584 0.42216 0.92407 0.0
C843 C 0.90121 0.42346 0.8708 0.0
C844 C 0.90951 0.43595 0.80854 0.0
C845 C 0.93321 0.4479 0.80091 0.0
C846 C 0.94833 0.44711 0.85513 0.0
C847 C 0.93964 0.43341 0.91682 0.0
H848 H 0.07516 0.21877 0.30656 0.0
H849 H 0.08967 0.27757 0.13577 0.0
H850 H 0.08237 0.24439 0.06251 0.0
H851 H 0.10429 0.17653 0.24573 0.0
H852 H 0.08397 0.14803 0.28167 0.0
H853 H 0.08809 0.17634 0.3199 0.0
H854 H 0.04379 0.17503 0.31349 0.0
H855 H 0.03947 0.14658 0.27567 0.0
H856 H 0.02961 0.17399 0.23513 0.0
H857 H 0.07447 0.20445 0.00864 0.0
H858 H 0.06836 0.16117 0.9784 0.0
H859 H 0.06083 0.12881 0.18545 0.0
C860 C 0.07627 0.22466 0.25365 0.0
C861 C 0.08256 0.25069 0.22653 0.0
C862 C 0.08465 0.2577 0.15725 0.0
C863 C 0.08052 0.23901 0.11544 0.0
C864 C 0.07458 0.21346 0.14389 0.0
C865 C 0.07256 0.2063 0.21146 0.0
C866 C 0.06749 0.17762 0.22998 0.0
C867 C 0.08714 0.16914 0.27177 0.0
C868 C 0.04367 0.16773 0.26566 0.0
C869 C 0.06709 0.16968 0.16227 0.0
C870 C 0.07096 0.19059 0.11319 0.0
C871 C 0.07139 0.18796 0.04668 0.0
C872 C 0.06785 0.16333 0.02998 0.0
C873 C 0.06419 0.14169 0.07961 0.0
C874 C 0.0638 0.14502 0.14652 0.0
H875 H 0.37318 0.06456 0.42435 0.0
H876 H 0.32425 0.10516 0.32086 0.0
H877 H 0.34446 0.10598 0.21541 0.0
H878 H 0.42335 0.09968 0.33153 0.0
H879 H 0.43676 0.0729 0.33148 0.0
H880 H 0.4176 0.07348 0.39859 0.0
H881 H 0.39153 0.03055 0.3803 0.0
H882 H 0.41067 0.02906 0.31384 0.0
H883 H 0.37996 0.02662 0.29971 0.0
H884 H 0.3707 0.10276 0.12092 0.0
H885 H 0.40154 0.09722 0.04674 0.0
H886 H 0.43386 0.06059 0.21414 0.0
C887 C 0.36672 0.07384 0.37977 0.0
C888 C 0.34703 0.0848 0.38123 0.0
C889 C 0.33904 0.09628 0.32118 0.0
C890 C 0.3505 0.09697 0.26101 0.0
C891 C 0.36996 0.08617 0.26169 0.0
C892 C 0.37802 0.07489 0.31963 0.0
C893 C 0.39963 0.06524 0.3076 0.0
C894 C 0.42058 0.07866 0.34446 0.0
C895 C 0.39517 0.03614 0.32647 0.0
C896 C 0.40267 0.07306 0.23384 0.0
C897 C 0.38527 0.08487 0.208 0.0
C898 C 0.38441 0.09355 0.1407 0.0
C899 C 0.4019 0.09023 0.09894 0.0
C900 C 0.4201 0.07859 0.12482 0.0
C901 C 0.42031 0.06982 0.19311 0.0
H902 H 0.48229 0.31134 0.10575 0.0
H903 H 0.47493 0.27279 0.93384 0.0
H904 H 0.48473 0.31459 0.86147 0.0
H905 H 0.45548 0.36112 0.03799 0.0
H906 H 0.47431 0.3852 0.07733 0.0
H907 H 0.46874 0.35239 0.11531 0.0
H908 H 0.51306 0.35391 0.11812 0.0
H909 H 0.51885 0.38682 0.08077 0.0
H910 H 0.5303 0.3641 0.04295 0.0
H911 H 0.49469 0.36114 0.80817 0.0
H912 H 0.50319 0.40804 0.77857 0.0
H913 H 0.502 0.41551 0.98622 0.0
C914 C 0.48332 0.31168 0.05292 0.0
C915 C 0.4783 0.28884 0.02531 0.0
C916 C 0.47896 0.29009 0.95588 0.0
C917 C 0.48449 0.31372 0.91452 0.0
C918 C 0.48903 0.33591 0.9434 0.0
C919 C 0.48846 0.33504 0.01108 0.0
C920 C 0.49276 0.36151 0.0299 0.0
C921 C 0.47156 0.36527 0.06732 0.0
C922 C 0.51508 0.3669 0.0703 0.0
C923 C 0.49582 0.3775 0.96224 0.0
C924 C 0.4938 0.36244 0.91292 0.0
C925 C 0.49626 0.37307 0.84646 0.0
C926 C 0.50106 0.39974 0.8301 0.0
C927 C 0.50309 0.4155 0.87996 0.0
C928 C 0.5003 0.40406 0.9468 0.0
H929 H 0.1671 0.47314 0.43335 0.0
H930 H 0.23043 0.46012 0.35163 0.0
H931 H 0.21058 0.45431 0.24613 0.0
H932 H 0.12708 0.42721 0.35954 0.0
H933 H 0.10542 0.44606 0.34193 0.0
H934 H 0.12439 0.45071 0.41062 0.0
H935 H 0.13853 0.49833 0.36692 0.0
H936 H 0.11908 0.49467 0.29869 0.0
H937 H 0.14974 0.50813 0.28352 0.0
H938 H 0.18335 0.44872 0.15049 0.0
H939 H 0.1512 0.44484 0.07123 0.0
H940 H 0.10594 0.46219 0.21538 0.0
C941 C 0.17679 0.46897 0.39336 0.0
C942 C 0.20033 0.46703 0.40077 0.0
C943 C 0.21247 0.46193 0.34687 0.0
C944 C 0.2013 0.45847 0.28691 0.0
C945 C 0.17804 0.46032 0.2815 0.0
C946 C 0.16597 0.46561 0.33315 0.0
C947 C 0.14114 0.46676 0.31451 0.0
C948 C 0.12347 0.44644 0.35928 0.0
C949 C 0.13688 0.49357 0.31598 0.0
C950 C 0.14099 0.46083 0.24469 0.0
C951 C 0.16245 0.45728 0.22643 0.0
C952 C 0.1665 0.4516 0.16416 0.0
C953 C 0.14815 0.44956 0.11935 0.0
C954 C 0.126 0.45321 0.13691 0.0
C955 C 0.12252 0.45893 0.2006 0.0
H956 H 0.01248 0.80241 0.46982 0.0
H957 H 0.94932 0.74785 0.54215 0.0
H958 H 0.93708 0.78084 0.59641 0.0
H959 H 0.02274 0.83434 0.61308 0.0
H960 H 0.03319 0.8652 0.56482 0.0
H961 H 0.03691 0.83698 0.53413 0.0
H962 H 0.01557 0.84993 0.42728 0.0
H963 H 0.01165 0.8781 0.45778 0.0
H964 H 0.98673 0.85588 0.43319 0.0
H965 H 0.93211 0.82059 0.64265 0.0
H966 H 0.93423 0.86333 0.6735 0.0
H967 H 0.00071 0.89101 0.56897 0.0
C968 C 0.99626 0.79719 0.49808 0.0
C969 C 0.98201 0.77243 0.50266 0.0
C970 C 0.96054 0.76668 0.53827 0.0
C971 C 0.9535 0.78527 0.56929 0.0
C972 C 0.96805 0.80952 0.5637 0.0
C973 C 0.98896 0.81545 0.52874 0.0
C974 C 0.00121 0.84298 0.52812 0.0
C975 C 0.02491 0.84498 0.56208 0.0
C976 C 0.00394 0.85758 0.4574 0.0
C977 C 0.98398 0.85176 0.5683 0.0
C978 C 0.96499 0.83223 0.58874 0.0
C979 C 0.94691 0.83597 0.62686 0.0
C980 C 0.94831 0.86027 0.64436 0.0
C981 C 0.96758 0.88055 0.62336 0.0
C982 C 0.98559 0.87605 0.58496 0.0
H983 H 0.69842 0.04798 0.37587 0.0
H984 H 0.72389 0.97865 0.38074 0.0
H985 H 0.69304 0.95625 0.46286 0.0
H986 H 0.68426 0.03934 0.5511 0.0
H987 H 0.65878 0.05266 0.53765 0.0
H988 H 0.68319 0.06312 0.48051 0.0
H989 H 0.6558 0.05136 0.38442 0.0
H990 H 0.63135 0.0407 0.44128 0.0
H991 H 0.63837 0.01945 0.389 0.0
H992 H 0.65835 0.94119 0.5425 0.0
H993 H 0.62322 0.93495 0.6133 0.0
H994 H 0.62208 0.01486 0.55885 0.0
C995 C 0.69787 0.02822 0.39499 0.0
C996 C 0.7137 0.01514 0.37184 0.0
C997 C 0.71186 0.98906 0.39714 0.0
C998 C 0.69447 0.9762 0.4441 0.0
C999 C 0.67911 0.9897 0.46547 0.0
C1000 C 0.68076 0.01518 0.44193 0.0
C1001 C 0.66196 0.02532 0.47188 0.0
C1002 C 0.67269 0.04635 0.51272 0.0
C1003 C 0.64592 0.03475 0.41845 0.0
C1004 C 0.64928 1.0015 0.51554 0.0
C1005 C 0.65942 0.98115 0.51137 0.0
C1006 C 0.6504 0.95706 0.5465 0.0
C1007 C 0.63049 0.95374 0.58686 0.0
C1008 C 0.61981 0.97439 0.59173 0.0
C1009 C 0.62955 0.99856 0.55566 0.0
H1010 H 0.55581 0.68287 0.56401 0.0
H1011 H 0.56151 0.72074 0.73734 0.0
H1012 H 0.56271 0.68009 0.80745 0.0
H1013 H 0.51883 0.62755 0.63016 0.0
H1014 H 0.53176 0.60638 0.59047 0.0
H1015 H 0.53449 0.63891 0.5527 0.0
H1016 H 0.57951 0.64555 0.54981 0.0
H1017 H 0.57694 0.61285 0.58676 0.0
H1018 H 0.59461 0.63811 0.62478 0.0
H1019 H 0.5563 0.63425 0.85963 0.0
H1020 H 0.54743 0.58726 0.8889 0.0
H1021 H 0.54957 0.57971 0.68197 0.0
C1022 C 0.55829 0.68297 0.61637 0.0
C1023 C 0.55851 0.70516 0.64495 0.0
C1024 C 0.56102 0.70403 0.71414 0.0
C1025 C 0.56184 0.68102 0.75443 0.0
C1026 C 0.56061 0.65934 0.72482 0.0
C1027 C 0.55942 0.66022 0.65721 0.0
C1028 C 0.55691 0.63392 0.63802 0.0
C1029 C 0.53415 0.62626 0.60066 0.0
C1030 C 0.57827 0.63253 0.59745 0.0
C1031 C 0.55606 0.61797 0.70552 0.0
C1032 C 0.55817 0.633 0.75499 0.0
C1033 C 0.55534 0.62236 0.82139 0.0
C1034 C 0.55022 0.59573 0.83759 0.0
C1035 C 0.54842 0.5801 0.78771 0.0
C1036 C 0.55166 0.59137 0.72099 0.0
H1037 H 0.82295 0.44758 0.4093 0.0
H1038 H 0.82439 0.51448 0.26358 0.0
H1039 H 0.85226 0.5404 0.33109 0.0
H1040 H 0.82761 0.48029 0.55535 0.0
H1041 H 0.84606 0.46084 0.5976 0.0
H1042 H 0.82487 0.448 0.54022 0.0
H1043 H 0.8576 0.43659 0.47493 0.0
H1044 H 0.87887 0.44951 0.53181 0.0
H1045 H 0.88261 0.46118 0.44479 0.0
H1046 H 0.88187 0.55836 0.41039 0.0
H1047 H 0.91125 0.56714 0.49573 0.0
H1048 H 0.88974 0.48881 0.59174 0.0
C1049 C 0.82875 0.46778 0.3923 0.0
C1050 C 0.8215 0.47903 0.33121 0.0
C1051 C 0.82989 0.50543 0.30996 0.0
C1052 C 0.8456 0.52033 0.34813 0.0
C1053 C 0.85268 0.50858 0.40758 0.0
C1054 C 0.84448 0.48293 0.42975 0.0
C1055 C 0.85576 0.47473 0.4938 0.0
C1056 C 0.83748 0.46542 0.55007 0.0
C1057 C 0.86953 0.4543 0.48581 0.0
C1058 C 0.8719 0.49966 0.50349 0.0
C1059 C 0.86973 0.51898 0.4535 0.0
C1060 C 0.8835 0.54347 0.45033 0.0
C1061 C 0.90007 0.54831 0.49932 0.0
C1062 C 0.90278 0.52873 0.55082 0.0
C1063 C 0.88825 0.50418 0.55296 0.0
loop_
_geom_bond_atom_site_label_1
_geom_bond_atom_site_label_2
_geom_bond_distance
_geom_bond_site_symmetry_2
_ccdc_geom_bond_type
P0 O11 1.490 . S
P0 C14 1.812 . S
P0 C20 1.803 . S
P0 C26 1.819 . S
H1 C15 0.941 . S
H2 C16 0.939 . S
H3 C18 0.940 . S
H4 C19 0.940 . S
H5 C21 0.939 . S
H6 C22 0.935 1_556 S
H7 C24 0.940 . S
H8 C25 0.939 . S
H9 C27 0.941 . S
H10 C31 0.939 . S
O11 P0 1.490 . S
H12 C28 0.939 . S
H13 C30 0.940 . S
C14 P0 1.812 . S
C14 C15 1.389 . S
C14 C19 1.391 . S
C15 H1 0.941 . S
C15 C14 1.389 . S
C15 C16 1.397 . S
C16 H2 0.939 . S
C16 C15 1.397 . S
C16 C17 1.378 . S
C17 C16 1.378 . S
C17 C18 1.378 . S
C18 H3 0.940 . S
C18 C17 1.378 . S
C18 C19 1.396 . S
C19 H4 0.940 . S
C19 C14 1.391 . S
C19 C18 1.396 . S
C20 P0 1.803 . S
C20 C21 1.378 . S
C20 C25 1.400 . S
C21 H5 0.939 . S
C21 C20 1.378 . S
C21 C22 1.361 . S
C22 H6 0.935 1_554 S
C22 C21 1.361 . S
C22 C23 1.369 . S
C23 C22 1.369 . S
C23 C24 1.404 . S
C24 H7 0.940 . S
C24 C23 1.404 . S
C24 C25 1.389 . S
C25 H8 0.939 . S
C25 C20 1.400 . S
C25 C24 1.389 . S
C26 P0 1.819 . S
C26 C27 1.391 . S
C26 C31 1.391 1_554 S
C27 H9 0.941 . S
C27 C26 1.391 . S
C27 C28 1.396 1_554 S
C28 H12 0.939 . S
C28 C27 1.396 1_556 S
C28 C29 1.397 . S
C29 C28 1.397 . S
C29 C30 1.385 . S
C30 H13 0.940 . S
C30 C29 1.385 . S
C30 C31 1.388 . S
C31 H10 0.939 . S
C31 C26 1.391 1_556 S
C31 C30 1.388 . S
P32 O43 1.490 . S
P32 C46 1.812 . S
P32 C52 1.803 . S
P32 C58 1.819 . S
H33 C47 0.941 . S
H34 C48 0.939 . S
H35 C50 0.940 . S
H36 C51 0.940 . S
H37 C53 0.939 . S
H38 C54 0.942 . S
H39 C56 0.940 . S
H40 C57 0.939 . S
H41 C59 0.941 . S
H42 C63 0.939 . S
O43 P32 1.490 . S
H44 C60 0.939 . S
H45 C62 0.940 . S
C46 P32 1.812 . S
C46 C47 1.389 . S
C46 C51 1.391 . S
C47 H33 0.941 . S
C47 C46 1.389 . S
C47 C48 1.397 . S
C48 H34 0.939 . S
C48 C47 1.397 . S
C48 C49 1.378 . S
C49 C48 1.378 . S
C49 C50 1.378 . S
C50 H35 0.940 . S
C50 C49 1.378 . S
C50 C51 1.396 . S
C51 H36 0.940 . S
C51 C46 1.391 . S
C51 C50 1.396 . S
C52 P32 1.803 . S
C52 C53 1.378 . S
C52 C57 1.400 . S
C53 H37 0.939 . S
C53 C52 1.378 . S
C53 C54 1.361 . S
C54 H38 0.942 . S
C54 C53 1.361 . S
C54 C55 1.369 . S
C55 C54 1.369 . S
C55 C56 1.404 . S
C56 H39 0.940 . S
C56 C55 1.404 . S
C56 C57 1.389 . S
C57 H40 0.939 . S
C57 C52 1.400 . S
C57 C56 1.389 . S
C58 P32 1.819 . S
C58 C59 1.391 . S
C58 C63 1.391 1_554 S
C59 H41 0.941 . S
C59 C58 1.391 . S
C59 C60 1.396 1_554 S
C60 H44 0.939 . S
C60 C59 1.396 1_556 S
C60 C61 1.397 . S
C61 C60 1.397 . S
C61 C62 1.385 . S
C62 H45 0.940 . S
C62 C61 1.385 . S
C62 C63 1.388 . S
C63 H42 0.939 . S
C63 C58 1.391 1_556 S
C63 C62 1.388 . S
P64 O75 1.490 . S
P64 C78 1.812 1_556 S
P64 C84 1.803 . S
P64 C90 1.819 . S
H65 C79 0.941 . S
H66 C80 0.939 . S
H67 C82 0.940 . S
H68 C83 0.952 . S
H69 C85 0.939 . S
H70 C86 0.942 . S
H71 C88 0.940 1_554 S
H72 C89 0.952 . S
H73 C91 0.941 . S
H74 C95 0.923 1_565 S
O75 P64 1.490 . S
H76 C92 0.939 . S
H77 C94 0.940 . S
C78 P64 1.812 1_554 S
C78 C79 1.389 . S
C78 C83 1.377 1_545 S
C79 H65 0.941 . S
C79 C78 1.389 . S
C79 C80 1.397 . S
C80 H66 0.939 . S
C80 C79 1.397 . S
C80 C81 1.378 . S
C81 C80 1.378 . S
C81 C82 1.378 1_545 S
C82 H67 0.940 . S
C82 C81 1.378 1_565 S
C82 C83 1.399 . S
C83 H68 0.952 . S
C83 C78 1.377 1_565 S
C83 C82 1.399 . S
C84 P64 1.803 . S
C84 C85 1.378 . S
C84 C89 1.368 1_546 S
C85 H69 0.939 . S
C85 C84 1.378 . S
C85 C86 1.361 . S
C86 H70 0.942 . S
C86 C85 1.361 . S
C86 C87 1.369 . S
C87 C86 1.369 . S
C87 C88 1.404 1_545 S
C88 H71 0.940 1_556 S
C88 C87 1.404 1_565 S
C88 C89 1.410 1_556 S
C89 H72 0.952 . S
C89 C84 1.368 1_564 S
C89 C88 1.410 1_554 S
C90 P64 1.819 . S
C90 C91 1.391 . S
C90 C95 1.391 . S
C91 H73 0.941 . S
C91 C90 1.391 . S
C91 C92 1.396 . S
C92 H76 0.939 . S
C92 C91 1.396 . S
C92 C93 1.397 . S
C93 C92 1.397 . S
C93 C94 1.385 1_545 S
C94 H77 0.940 . S
C94 C93 1.385 1_565 S
C94 C95 1.388 1_565 S
C95 H74 0.923 1_545 S
C95 C90 1.391 . S
C95 C94 1.388 1_545 S
P96 O107 1.490 . S
P96 C110 1.812 . S
P96 C116 1.803 . S
P96 C122 1.819 . S
H97 C111 0.941 . S
H98 C112 0.939 . S
H99 C114 0.940 . S
H100 C115 0.940 . S
H101 C117 0.939 . S
H102 C118 0.942 . S
H103 C120 0.940 . S
H104 C121 0.939 . S
H105 C123 0.941 . S
H106 C127 0.939 . S
O107 P96 1.490 . S
H108 C124 0.939 . S
H109 C126 0.940 . S
C110 P96 1.812 . S
C110 C111 1.389 . S
C110 C115 1.391 . S
C111 H97 0.941 . S
C111 C110 1.389 . S
C111 C112 1.397 . S
C112 H98 0.939 . S
C112 C111 1.397 . S
C112 C113 1.378 . S
C113 C112 1.378 . S
C113 C114 1.378 . S
C114 H99 0.940 . S
C114 C113 1.378 . S
C114 C115 1.396 . S
C115 H100 0.940 . S
C115 C110 1.391 . S
C115 C114 1.396 . S
C116 P96 1.803 . S
C116 C117 1.378 . S
C116 C121 1.400 . S
C117 H101 0.939 . S
C117 C116 1.378 . S
C117 C118 1.361 . S
C118 H102 0.942 . S
C118 C117 1.361 . S
C118 C119 1.369 . S
C119 C118 1.369 . S
C119 C120 1.404 . S
C120 H103 0.940 . S
C120 C119 1.404 . S
C120 C121 1.389 . S
C121 H104 0.939 . S
C121 C116 1.400 . S
C121 C120 1.389 . S
C122 P96 1.819 . S
C122 C123 1.391 . S
C122 C127 1.391 . S
C123 H105 0.941 . S
C123 C122 1.391 . S
C123 C124 1.396 . S
C124 H108 0.939 . S
C124 C123 1.396 . S
C124 C125 1.397 . S
C125 C124 1.397 . S
C125 C126 1.385 . S
C126 H109 0.940 . S
C126 C125 1.385 . S
C126 C127 1.388 . S
C127 H106 0.939 . S
C127 C122 1.391 . S
C127 C126 1.388 . S
P128 O139 1.490 . S
P128 C142 1.812 . S
P128 C148 1.803 . S
P128 C154 1.819 . S
H129 C143 0.941 . S
H130 C144 0.939 . S
H131 C146 0.940 . S
H132 C147 0.940 . S
H133 C149 0.939 . S
H134 C150 0.942 . S
H135 C152 0.940 . S
H136 C153 0.939 . S
H137 C155 0.941 . S
H138 C159 0.939 . S
O139 P128 1.490 . S
H140 C156 0.939 . S
H141 C158 0.940 . S
C142 P128 1.812 . S
C142 C143 1.389 . S
C142 C147 1.391 . S
C143 H129 0.941 . S
C143 C142 1.389 . S
C143 C144 1.397 . S
C144 H130 0.939 . S
C144 C143 1.397 . S
C144 C145 1.378 . S
C145 C144 1.378 . S
C145 C146 1.378 . S
C146 H131 0.940 . S
C146 C145 1.378 . S
C146 C147 1.396 . S
C147 H132 0.940 . S
C147 C142 1.391 . S
C147 C146 1.396 . S
C148 P128 1.803 . S
C148 C149 1.378 . S
C148 C153 1.400 . S
C149 H133 0.939 . S
C149 C148 1.378 . S
C149 C150 1.361 . S
C150 H134 0.942 . S
C150 C149 1.361 . S
C150 C151 1.369 . S
C151 C150 1.369 . S
C151 C152 1.404 . S
C152 H135 0.940 . S
C152 C151 1.404 . S
C152 C153 1.389 . S
C153 H136 0.939 . S
C153 C148 1.400 . S
C153 C152 1.389 . S
C154 P128 1.819 . S
C154 C155 1.391 . S
C154 C159 1.391 . S
C155 H137 0.941 . S
C155 C154 1.391 . S
C155 C156 1.396 . S
C156 H140 0.939 . S
C156 C155 1.396 . S
C156 C157 1.397 . S
C157 C156 1.397 . S
C157 C158 1.385 . S
C158 H141 0.940 . S
C158 C157 1.385 . S
C158 C159 1.388 . S
C159 H138 0.939 . S
C159 C154 1.391 . S
C159 C158 1.388 . S
P160 O171 1.490 . S
P160 C174 1.812 . S
P160 C180 1.803 . S
P160 C186 1.819 . S
H161 C175 0.941 . S
H162 C176 0.939 . S
H163 C178 0.940 . S
H164 C179 0.940 . S
H165 C181 0.939 . S
H166 C182 0.942 . S
H167 C184 0.940 . S
H168 C185 0.939 . S
H169 C187 0.941 . S
H170 C191 0.939 . S
O171 P160 1.490 . S
H172 C188 0.939 . S
H173 C190 0.940 . S
C174 P160 1.812 . S
C174 C175 1.389 . S
C174 C179 1.391 . S
C175 H161 0.941 . S
C175 C174 1.389 . S
C175 C176 1.397 . S
C176 H162 0.939 . S
C176 C175 1.397 . S
C176 C177 1.378 . S
C177 C176 1.378 . S
C177 C178 1.378 . S
C178 H163 0.940 . S
C178 C177 1.378 . S
C178 C179 1.396 . S
C179 H164 0.940 . S
C179 C174 1.391 . S
C179 C178 1.396 . S
C180 P160 1.803 . S
C180 C181 1.378 . S
C180 C185 1.400 . S
C181 H165 0.939 . S
C181 C180 1.378 . S
C181 C182 1.361 . S
C182 H166 0.942 . S
C182 C181 1.361 . S
C182 C183 1.369 . S
C183 C182 1.369 . S
C183 C184 1.404 . S
C184 H167 0.940 . S
C184 C183 1.404 . S
C184 C185 1.389 . S
C185 H168 0.939 . S
C185 C180 1.400 . S
C185 C184 1.389 . S
C186 P160 1.819 . S
C186 C187 1.391 . S
C186 C191 1.391 . S
C187 H169 0.941 . S
C187 C186 1.391 . S
C187 C188 1.396 . S
C188 H172 0.939 . S
C188 C187 1.396 . S
C188 C189 1.397 . S
C189 C188 1.397 . S
C189 C190 1.385 . S
C190 H173 0.940 . S
C190 C189 1.385 . S
C190 C191 1.388 . S
C191 H170 0.939 . S
C191 C186 1.391 . S
C191 C190 1.388 . S
P192 O203 1.490 . S
P192 C206 1.812 . S
P192 C212 1.803 . S
P192 C218 1.819 . S
H193 C207 0.941 . S
H194 C208 0.939 . S
H195 C210 0.940 . S
H196 C211 0.943 . S
H197 C213 0.939 . S
H198 C214 0.942 . S
H199 C216 0.940 . S
H200 C217 0.958 . S
H201 C219 0.941 . S
H202 C223 0.937 1_565 S
O203 P192 1.490 . S
H204 C220 0.939 . S
H205 C222 0.940 . S
C206 P192 1.812 . S
C206 C207 1.389 . S
C206 C211 1.384 1_545 S
C207 H193 0.941 . S
C207 C206 1.389 . S
C207 C208 1.397 . S
C208 H194 0.939 . S
C208 C207 1.397 . S
C208 C209 1.378 . S
C209 C208 1.378 . S
C209 C210 1.378 1_545 S
C210 H195 0.940 . S
C210 C209 1.378 1_565 S
C210 C211 1.401 . S
C211 H196 0.943 . S
C211 C206 1.384 1_565 S
C211 C210 1.401 . S
C212 P192 1.803 . S
C212 C213 1.378 . S
C212 C217 1.379 1_545 S
C213 H197 0.939 . S
C213 C212 1.378 . S
C213 C214 1.361 . S
C214 H198 0.942 . S
C214 C213 1.361 . S
C214 C215 1.369 . S
C215 C214 1.369 . S
C215 C216 1.404 1_545 S
C216 H199 0.940 . S
C216 C215 1.404 1_565 S
C216 C217 1.392 . S
C217 H200 0.958 . S
C217 C212 1.379 1_565 S
C217 C216 1.392 . S
C218 P192 1.819 . S
C218 C219 1.391 . S
C218 C223 1.391 . S
C219 H201 0.941 . S
C219 C218 1.391 . S
C219 C220 1.396 . S
C220 H204 0.939 . S
C220 C219 1.396 . S
C220 C221 1.397 . S
C221 C220 1.397 . S
C221 C222 1.385 1_545 S
C222 H205 0.940 . S
C222 C221 1.385 1_565 S
C222 C223 1.388 1_565 S
C223 H202 0.937 1_545 S
C223 C218 1.391 . S
C223 C222 1.388 1_545 S
P224 O235 1.490 . S
P224 C238 1.812 . S
P224 C244 1.803 . S
P224 C250 1.819 . S
H225 C239 0.941 . S
H226 C240 0.939 . S
H227 C242 0.940 . S
H228 C243 0.940 . S
H229 C245 0.939 . S
H230 C246 0.942 . S
H231 C248 0.940 . S
H232 C249 0.939 . S
H233 C251 0.941 . S
H234 C255 0.939 . S
O235 P224 1.490 . S
H236 C252 0.939 . S
H237 C254 0.940 . S
C238 P224 1.812 . S
C238 C239 1.389 . S
C238 C243 1.391 . S
C239 H225 0.941 . S
C239 C238 1.389 . S
C239 C240 1.397 . S
C240 H226 0.939 . S
C240 C239 1.397 . S
C240 C241 1.378 . S
C241 C240 1.378 . S
C241 C242 1.378 . S
C242 H227 0.940 . S
C242 C241 1.378 . S
C242 C243 1.396 . S
C243 H228 0.940 . S
C243 C238 1.391 . S
C243 C242 1.396 . S
C244 P224 1.803 . S
C244 C245 1.378 . S
C244 C249 1.400 . S
C245 H229 0.939 . S
C245 C244 1.378 . S
C245 C246 1.361 . S
C246 H230 0.942 . S
C246 C245 1.361 . S
C246 C247 1.369 . S
C247 C246 1.369 . S
C247 C248 1.404 . S
C248 H231 0.940 . S
C248 C247 1.404 . S
C248 C249 1.389 . S
C249 H232 0.939 . S
C249 C244 1.400 . S
C249 C248 1.389 . S
C250 P224 1.819 . S
C250 C251 1.391 . S
C250 C255 1.391 . S
C251 H233 0.941 . S
C251 C250 1.391 . S
C251 C252 1.396 . S
C252 H236 0.939 . S
C252 C251 1.396 . S
C252 C253 1.397 . S
C253 C252 1.397 . S
C253 C254 1.385 . S
C254 H237 0.940 . S
C254 C253 1.385 . S
C254 C255 1.388 . S
C255 H234 0.939 . S
C255 C250 1.391 . S
C255 C254 1.388 . S
Nd256 C258 2.836 1_455 S
Nd256 O276 2.500 1_455 S
Nd256 O277 2.492 . S
Nd256 O278 2.487 . S
Nd256 O279 2.682 1_565 S
Nd256 O280 2.410 . S
Nd256 O285 2.414 1_455 S
Nd256 O287 2.424 1_565 S
Nd257 C267 2.836 1_556 S
Nd257 O279 2.414 . S
Nd257 O281 2.424 1_545 S
Nd257 O282 2.500 . S
Nd257 O283 2.492 1_556 S
Nd257 O284 2.487 1_455 S
Nd257 O285 2.682 1_445 S
Nd257 O286 2.410 . S
C258 Nd256 2.836 1_655 S
C258 C259 1.498 . S
C258 O276 1.258 . S
C258 O277 1.239 1_655 S
C259 C258 1.498 . S
C259 C260 1.366 . S
C259 C264 1.407 . S
C260 C259 1.366 . S
C260 C261 1.392 . S
C260 H288 0.930 . S
C261 C260 1.392 . S
C261 C262 1.398 . S
C261 H289 0.929 . S
C262 C261 1.398 . S
C262 C263 1.352 . S
C263 C262 1.352 . S
C263 C264 1.384 . S
C263 H290 0.930 . S
C264 C259 1.407 . S
C264 C263 1.384 . S
C264 H291 0.929 1_655 S
C265 O278 1.241 . S
C265 O279 1.273 1_565 S
C266 O280 1.251 . S
C266 O281 1.268 . S
C267 Nd257 2.836 1_554 S
C267 C268 1.498 . S
C267 O282 1.258 1_554 S
C267 O283 1.239 . S
C268 C267 1.498 . S
C268 C269 1.366 . S
C268 C273 1.407 . S
C269 C268 1.366 . S
C269 C270 1.392 . S
C269 H292 0.930 . S
C270 C269 1.392 . S
C270 C271 1.398 . S
C270 H293 0.929 . S
C271 C270 1.398 . S
C271 C272 1.352 . S
C272 C271 1.352 . S
C272 C273 1.384 . S
C272 H294 0.930 . S
C273 C268 1.407 . S
C273 C272 1.384 . S
C273 H295 0.929 . S
C274 O284 1.241 . S
C274 O285 1.273 1_545 S
C275 O286 1.251 . S
C275 O287 1.268 . S
O276 Nd256 2.500 1_655 S
O276 C258 1.258 . S
O277 Nd256 2.492 . S
O277 C258 1.239 1_455 S
O278 Nd256 2.487 . S
O278 C265 1.241 . S
O279 Nd256 2.682 1_545 S
O279 Nd257 2.414 . S
O279 C265 1.273 1_545 S
O280 Nd256 2.410 . S
O280 C266 1.251 . S
O281 Nd257 2.424 1_565 S
O281 C266 1.268 . S
O282 Nd257 2.500 . S
O282 C267 1.258 1_556 S
O283 Nd257 2.492 1_554 S
O283 C267 1.239 . S
O284 Nd257 2.487 1_655 S
O284 C274 1.241 . S
O285 Nd256 2.414 1_655 S
O285 Nd257 2.682 1_665 S
O285 C274 1.273 1_565 S
O286 Nd257 2.410 . S
O286 C275 1.251 . S
O287 Nd256 2.424 1_545 S
O287 C275 1.268 . S
H288 C260 0.930 . S
H289 C261 0.929 . S
H290 C263 0.930 . S
H291 C264 0.929 1_455 S
H292 C269 0.930 . S
H293 C270 0.929 . S
H294 C272 0.930 . S
H295 C273 0.929 . S
Nd296 C298 2.836 . S
Nd296 O316 2.500 . S
Nd296 O317 2.492 . S
Nd296 O318 2.487 1_565 S
Nd296 O319 2.682 1_565 S
Nd296 O320 2.410 1_565 S
Nd296 O325 2.414 . S
Nd296 O327 2.424 . S
Nd297 C307 2.836 1_556 S
Nd297 O319 2.414 . S
Nd297 O321 2.424 . S
Nd297 O322 2.500 . S
Nd297 O323 2.492 1_556 S
Nd297 O324 2.487 1_545 S
Nd297 O325 2.682 1_545 S
Nd297 O326 2.410 1_545 S
C298 Nd296 2.836 . S
C298 C299 1.498 . S
C298 O316 1.258 . S
C298 O317 1.239 . S
C299 C298 1.498 . S
C299 C300 1.366 . S
C299 C304 1.407 . S
C300 C299 1.366 . S
C300 C301 1.392 . S
C300 H328 0.930 . S
C301 C300 1.392 . S
C301 C302 1.398 . S
C301 H329 0.929 . S
C302 C301 1.398 . S
C302 C303 1.352 . S
C303 C302 1.352 . S
C303 C304 1.384 . S
C303 H330 0.930 . S
C304 C299 1.407 . S
C304 C303 1.384 . S
C304 H331 0.929 1_565 S
C305 O318 1.241 . S
C305 O319 1.273 . S
C306 O320 1.251 . S
C306 O321 1.268 . S
C307 Nd297 2.836 1_554 S
C307 C308 1.498 . S
C307 O322 1.258 1_554 S
C307 O323 1.239 . S
C308 C307 1.498 . S
C308 C309 1.366 . S
C308 C313 1.407 . S
C309 C308 1.366 . S
C309 C310 1.392 . S
C309 H332 0.930 1_554 S
C310 C309 1.392 . S
C310 C311 1.398 . S
C310 H333 0.929 . S
C311 C310 1.398 . S
C311 C312 1.352 . S
C312 C311 1.352 . S
C312 C313 1.384 . S
C312 H334 0.930 . S
C313 C308 1.407 . S
C313 C312 1.384 . S
C313 H335 0.929 1_545 S
C314 O324 1.241 . S
C314 O325 1.273 . S
C315 O326 1.251 . S
C315 O327 1.268 . S
O316 Nd296 2.500 . S
O316 C298 1.258 . S
O317 Nd296 2.492 . S
O317 C298 1.239 . S
O318 Nd296 2.487 1_545 S
O318 C305 1.241 . S
O319 Nd296 2.682 1_545 S
O319 Nd297 2.414 . S
O319 C305 1.273 . S
O320 Nd296 2.410 1_545 S
O320 C306 1.251 . S
O321 Nd297 2.424 . S
O321 C306 1.268 . S
O322 Nd297 2.500 . S
O322 C307 1.258 1_556 S
O323 Nd297 2.492 1_554 S
O323 C307 1.239 . S
O324 Nd297 2.487 1_565 S
O324 C314 1.241 . S
O325 Nd296 2.414 . S
O325 Nd297 2.682 1_565 S
O325 C314 1.273 . S
O326 Nd297 2.410 1_565 S
O326 C315 1.251 . S
O327 Nd296 2.424 . S
O327 C315 1.268 . S
H328 C300 0.930 . S
H329 C301 0.929 . S
H330 C303 0.930 . S
H331 C304 0.929 1_545 S
H332 C309 0.930 1_556 S
H333 C310 0.929 . S
H334 C312 0.930 . S
H335 C313 0.929 1_565 S
Nd336 C338 2.836 . S
Nd336 O356 2.500 . S
Nd336 O357 2.492 . S
Nd336 O358 2.487 . S
Nd336 O359 2.682 . S
Nd336 O360 2.410 . S
Nd336 O365 2.414 . S
Nd336 O367 2.424 . S
Nd337 C347 2.836 . S
Nd337 O359 2.414 . S
Nd337 O361 2.424 . S
Nd337 O362 2.500 . S
Nd337 O363 2.492 . S
Nd337 O364 2.487 . S
Nd337 O365 2.682 . S
Nd337 O366 2.410 . S
C338 Nd336 2.836 . S
C338 C339 1.498 . S
C338 O356 1.258 . S
C338 O357 1.239 . S
C339 C338 1.498 . S
C339 C340 1.366 . S
C339 C344 1.407 1_556 S
C340 C339 1.366 . S
C340 C341 1.392 . S
C340 H368 0.930 . S
C341 C340 1.392 . S
C341 C342 1.398 1_556 S
C341 H369 0.929 . S
C342 C341 1.398 1_554 S
C342 C343 1.352 . S
C343 C342 1.352 . S
C343 C344 1.384 . S
C343 H370 0.930 . S
C344 C339 1.407 1_554 S
C344 C343 1.384 . S
C344 H371 0.929 . S
C345 O358 1.241 . S
C345 O359 1.273 . S
C346 O360 1.251 . S
C346 O361 1.268 . S
C347 Nd337 2.836 . S
C347 C348 1.498 . S
C347 O362 1.258 . S
C347 O363 1.239 . S
C348 C347 1.498 . S
C348 C349 1.366 . S
C348 C353 1.407 . S
C349 C348 1.366 . S
C349 C350 1.392 . S
C349 H372 0.930 . S
C350 C349 1.392 . S
C350 C351 1.398 . S
C350 H373 0.929 . S
C351 C350 1.398 . S
C351 C352 1.352 . S
C352 C351 1.352 . S
C352 C353 1.384 . S
C352 H374 0.930 . S
C353 C348 1.407 . S
C353 C352 1.384 . S
C353 H375 0.929 . S
C354 O364 1.241 . S
C354 O365 1.273 . S
C355 O366 1.251 . S
C355 O367 1.268 . S
O356 Nd336 2.500 . S
O356 C338 1.258 . S
O357 Nd336 2.492 . S
O357 C338 1.239 . S
O358 Nd336 2.487 . S
O358 C345 1.241 . S
O359 Nd336 2.682 . S
O359 Nd337 2.414 . S
O359 C345 1.273 . S
O360 Nd336 2.410 . S
O360 C346 1.251 . S
O361 Nd337 2.424 . S
O361 C346 1.268 . S
O362 Nd337 2.500 . S
O362 C347 1.258 . S
O363 Nd337 2.492 . S
O363 C347 1.239 . S
O364 Nd337 2.487 . S
O364 C354 1.241 . S
O365 Nd336 2.414 . S
O365 Nd337 2.682 . S
O365 C354 1.273 . S
O366 Nd337 2.410 . S
O366 C355 1.251 . S
O367 Nd336 2.424 . S
O367 C355 1.268 . S
H368 C340 0.930 . S
H369 C341 0.929 . S
H370 C343 0.930 . S
H371 C344 0.929 . S
H372 C349 0.930 . S
H373 C350 0.929 . S
H374 C352 0.930 . S
H375 C353 0.929 . S
Nd376 C378 2.836 1_455 S
Nd376 O396 2.500 1_455 S
Nd376 O397 2.492 1_455 S
Nd376 O398 2.487 . S
Nd376 O399 2.682 . S
Nd376 O400 2.410 1_455 S
Nd376 O405 2.414 . S
Nd376 O407 2.424 . S
Nd377 C387 2.836 1_556 S
Nd377 O399 2.414 . S
Nd377 O401 2.424 1_455 S
Nd377 O402 2.500 . S
Nd377 O403 2.492 1_556 S
Nd377 O404 2.487 . S
Nd377 O405 2.682 . S
Nd377 O406 2.410 . S
C378 Nd376 2.836 1_655 S
C378 C379 1.498 . S
C378 O396 1.258 . S
C378 O397 1.239 . S
C379 C378 1.498 . S
C379 C380 1.366 . S
C379 C384 1.407 . S
C380 C379 1.366 . S
C380 C381 1.392 . S
C380 H408 0.930 . S
C381 C380 1.392 . S
C381 C382 1.398 . S
C381 H409 0.929 . S
C382 C381 1.398 . S
C382 C383 1.352 . S
C383 C382 1.352 . S
C383 C384 1.384 . S
C383 H410 0.930 . S
C384 C379 1.407 . S
C384 C383 1.384 . S
C384 H411 0.929 . S
C385 O398 1.241 . S
C385 O399 1.273 . S
C386 O400 1.251 . S
C386 O401 1.268 . S
C387 Nd377 2.836 1_554 S
C387 C388 1.498 . S
C387 O402 1.258 1_554 S
C387 O403 1.239 . S
C388 C387 1.498 . S
C388 C389 1.366 . S
C388 C393 1.407 . S
C389 C388 1.366 . S
C389 C390 1.392 . S
C389 H412 0.930 . S
C390 C389 1.392 . S
C390 C391 1.398 . S
C390 H413 0.929 . S
C391 C390 1.398 . S
C391 C392 1.352 . S
C392 C391 1.352 . S
C392 C393 1.384 . S
C392 H414 0.930 . S
C393 C388 1.407 . S
C393 C392 1.384 . S
C393 H415 0.929 . S
C394 O404 1.241 . S
C394 O405 1.273 . S
C395 O406 1.251 . S
C395 O407 1.268 . S
O396 Nd376 2.500 1_655 S
O396 C378 1.258 . S
O397 Nd376 2.492 1_655 S
O397 C378 1.239 . S
O398 Nd376 2.487 . S
O398 C385 1.241 . S
O399 Nd376 2.682 . S
O399 Nd377 2.414 . S
O399 C385 1.273 . S
O400 Nd376 2.410 1_655 S
O400 C386 1.251 . S
O401 Nd377 2.424 1_655 S
O401 C386 1.268 . S
O402 Nd377 2.500 . S
O402 C387 1.258 1_556 S
O403 Nd377 2.492 1_554 S
O403 C387 1.239 . S
O404 Nd377 2.487 . S
O404 C394 1.241 . S
O405 Nd376 2.414 . S
O405 Nd377 2.682 . S
O405 C394 1.273 . S
O406 Nd377 2.410 . S
O406 C395 1.251 . S
O407 Nd376 2.424 . S
O407 C395 1.268 . S
H408 C380 0.930 . S
H409 C381 0.929 . S
H410 C383 0.930 . S
H411 C384 0.929 . S
H412 C389 0.930 . S
H413 C390 0.929 . S
H414 C392 0.930 . S
H415 C393 0.929 . S
H416 C428 0.930 . S
H417 C430 0.930 . S
H418 C431 0.930 . S
H419 C435 0.959 . S
H420 C435 0.959 . S
H421 C435 0.961 . S
H422 C436 0.960 1_545 S
H423 C436 0.961 1_545 S
H424 C436 0.959 . S
H425 C439 0.929 . S
H426 C440 0.931 . S
H427 C442 0.930 . S
C428 H416 0.930 . S
C428 C429 1.399 1_545 S
C428 C433 1.399 . S
C429 C428 1.399 1_565 S
C429 C430 1.376 . S
C430 H417 0.930 . S
C430 C429 1.376 . S
C430 C431 1.388 . S
C431 H418 0.930 . S
C431 C430 1.388 . S
C431 C432 1.390 . S
C432 C431 1.390 . S
C432 C433 1.394 1_565 S
C432 C438 1.465 . S
C433 C428 1.399 . S
C433 C432 1.394 1_545 S
C433 C434 1.516 . S
C434 C433 1.516 . S
C434 C435 1.502 . S
C434 C436 1.561 1_545 S
C434 C437 1.526 . S
C435 H419 0.959 . S
C435 H420 0.959 . S
C435 H421 0.961 . S
C435 C434 1.502 . S
C436 H422 0.960 1_565 S
C436 H423 0.961 1_565 S
C436 H424 0.959 . S
C436 C434 1.561 1_565 S
C437 C434 1.526 . S
C437 C438 1.396 1_545 S
C437 C442 1.390 . S
C438 C432 1.465 . S
C438 C437 1.396 1_565 S
C438 C439 1.399 . S
C439 H425 0.929 . S
C439 C438 1.399 . S
C439 C440 1.385 . S
C440 H426 0.931 . S
C440 C439 1.385 . S
C440 C441 1.389 . S
C441 C440 1.389 . S
C441 C442 1.387 1_565 S
C442 H427 0.930 . S
C442 C437 1.390 . S
C442 C441 1.387 1_545 S
H443 C455 0.930 . S
H444 C457 0.930 . S
H445 C458 0.930 . S
H446 C462 0.959 . S
H447 C462 0.959 . S
H448 C462 0.961 . S
H449 C463 0.960 . S
H450 C463 0.961 . S
H451 C463 0.959 . S
H452 C466 0.929 . S
H453 C467 0.931 . S
H454 C469 0.930 . S
C455 H443 0.930 . S
C455 C456 1.399 . S
C455 C460 1.399 . S
C456 C455 1.399 . S
C456 C457 1.376 . S
C457 H444 0.930 . S
C457 C456 1.376 . S
C457 C458 1.388 . S
C458 H445 0.930 . S
C458 C457 1.388 . S
C458 C459 1.390 . S
C459 C458 1.390 . S
C459 C460 1.394 . S
C459 C465 1.465 . S
C460 C455 1.399 . S
C460 C459 1.394 . S
C460 C461 1.516 . S
C461 C460 1.516 . S
C461 C462 1.502 . S
C461 C463 1.561 . S
C461 C464 1.526 . S
C462 H446 0.959 . S
C462 H447 0.959 . S
C462 H448 0.961 . S
C462 C461 1.502 . S
C463 H449 0.960 . S
C463 H450 0.961 . S
C463 H451 0.959 . S
C463 C461 1.561 . S
C464 C461 1.526 . S
C464 C465 1.396 . S
C464 C469 1.390 . S
C465 C459 1.465 . S
C465 C464 1.396 . S
C465 C466 1.399 . S
C466 H452 0.929 . S
C466 C465 1.399 . S
C466 C467 1.385 . S
C467 H453 0.931 . S
C467 C466 1.385 . S
C467 C468 1.389 . S
C468 C467 1.389 . S
C468 C469 1.387 . S
C469 H454 0.930 . S
C469 C464 1.390 . S
C469 C468 1.387 . S
H470 C482 0.930 . S
H471 C484 0.930 . S
H472 C485 0.930 . S
H473 C489 0.959 . S
H474 C489 0.959 . S
H475 C489 0.961 . S
H476 C490 0.960 . S
H477 C490 0.961 . S
H478 C490 0.959 . S
H479 C493 0.929 . S
H480 C494 0.931 . S
H481 C496 0.930 . S
C482 H470 0.930 . S
C482 C483 1.399 . S
C482 C487 1.399 . S
C483 C482 1.399 . S
C483 C484 1.376 . S
C484 H471 0.930 . S
C484 C483 1.376 . S
C484 C485 1.388 . S
C485 H472 0.930 . S
C485 C484 1.388 . S
C485 C486 1.390 . S
C486 C485 1.390 . S
C486 C487 1.394 . S
C486 C492 1.465 . S
C487 C482 1.399 . S
C487 C486 1.394 . S
C487 C488 1.516 . S
C488 C487 1.516 . S
C488 C489 1.502 . S
C488 C490 1.561 . S
C488 C491 1.526 . S
C489 H473 0.959 . S
C489 H474 0.959 . S
C489 H475 0.961 . S
C489 C488 1.502 . S
C490 H476 0.960 . S
C490 H477 0.961 . S
C490 H478 0.959 . S
C490 C488 1.561 . S
C491 C488 1.526 . S
C491 C492 1.396 . S
C491 C496 1.390 . S
C492 C486 1.465 . S
C492 C491 1.396 . S
C492 C493 1.399 . S
C493 H479 0.929 . S
C493 C492 1.399 . S
C493 C494 1.385 . S
C494 H480 0.931 . S
C494 C493 1.385 . S
C494 C495 1.389 . S
C495 C494 1.389 . S
C495 C496 1.387 . S
C496 H481 0.930 . S
C496 C491 1.390 . S
C496 C495 1.387 . S
H497 C509 0.930 . S
H498 C511 0.930 . S
H499 C512 0.930 . S
H500 C516 0.959 . S
H501 C516 0.959 . S
H502 C516 0.961 . S
H503 C517 0.960 . S
H504 C517 0.961 . S
H505 C517 0.959 . S
H506 C520 0.929 . S
H507 C521 0.931 . S
H508 C523 0.930 . S
C509 H497 0.930 . S
C509 C510 1.399 . S
C509 C514 1.399 . S
C510 C509 1.399 . S
C510 C511 1.376 . S
C511 H498 0.930 . S
C511 C510 1.376 . S
C511 C512 1.388 . S
C512 H499 0.930 . S
C512 C511 1.388 . S
C512 C513 1.390 . S
C513 C512 1.390 . S
C513 C514 1.394 . S
C513 C519 1.465 . S
C514 C509 1.399 . S
C514 C513 1.394 . S
C514 C515 1.516 . S
C515 C514 1.516 . S
C515 C516 1.502 . S
C515 C517 1.561 . S
C515 C518 1.526 . S
C516 H500 0.959 . S
C516 H501 0.959 . S
C516 H502 0.961 . S
C516 C515 1.502 . S
C517 H503 0.960 . S
C517 H504 0.961 . S
C517 H505 0.959 . S
C517 C515 1.561 . S
C518 C515 1.526 . S
C518 C519 1.396 . S
C518 C523 1.390 . S
C519 C513 1.465 . S
C519 C518 1.396 . S
C519 C520 1.399 . S
C520 H506 0.929 . S
C520 C519 1.399 . S
C520 C521 1.385 . S
C521 H507 0.931 . S
C521 C520 1.385 . S
C521 C522 1.389 . S
C522 C521 1.389 . S
C522 C523 1.387 . S
C523 H508 0.930 . S
C523 C518 1.390 . S
C523 C522 1.387 . S
H524 C536 0.930 1_554 S
H525 C538 0.936 . S
H526 C539 0.930 . S
H527 C543 0.959 . S
H528 C543 0.959 . S
H529 C543 0.961 . S
H530 C544 0.960 . S
H531 C544 0.961 . S
H532 C544 0.959 1_556 S
H533 C547 0.929 . S
H534 C548 0.931 . S
H535 C550 0.930 . S
C536 H524 0.930 1_556 S
C536 C537 1.404 . S
C536 C541 1.399 . S
C537 C536 1.404 . S
C537 C538 1.388 1_565 S
C538 H525 0.936 . S
C538 C537 1.388 1_545 S
C538 C539 1.379 . S
C539 H526 0.930 . S
C539 C538 1.379 . S
C539 C540 1.391 1_545 S
C540 C539 1.391 1_565 S
C540 C541 1.394 . S
C540 C546 1.464 1_565 S
C541 C536 1.399 . S
C541 C540 1.394 . S
C541 C542 1.516 . S
C542 C541 1.516 . S
C542 C543 1.502 1_566 S
C542 C544 1.561 1_556 S
C542 C545 1.526 . S
C543 H527 0.959 . S
C543 H528 0.959 . S
C543 H529 0.961 . S
C543 C542 1.502 1_544 S
C544 H530 0.960 . S
C544 H531 0.961 . S
C544 H532 0.959 1_554 S
C544 C542 1.561 1_554 S
C545 C542 1.526 . S
C545 C546 1.396 1_565 S
C545 C550 1.389 . S
C546 C540 1.464 1_545 S
C546 C545 1.396 1_545 S
C546 C547 1.399 . S
C547 H533 0.929 . S
C547 C546 1.399 . S
C547 C548 1.385 . S
C548 H534 0.931 . S
C548 C547 1.385 . S
C548 C549 1.389 . S
C549 C548 1.389 . S
C549 C550 1.387 1_545 S
C550 H535 0.930 . S
C550 C545 1.389 . S
C550 C549 1.387 1_565 S
H551 C563 0.930 . S
H552 C565 0.930 . S
H553 C566 0.930 . S
H554 C570 0.959 . S
H555 C570 0.959 . S
H556 C570 0.961 . S
H557 C571 0.960 . S
H558 C571 0.961 . S
H559 C571 0.959 . S
H560 C574 0.929 1_556 S
H561 C575 0.931 . S
H562 C577 0.930 . S
C563 H551 0.930 . S
C563 C564 1.399 . S
C563 C568 1.399 . S
C564 C563 1.399 . S
C564 C565 1.376 . S
C565 H552 0.930 . S
C565 C564 1.376 . S
C565 C566 1.388 . S
C566 H553 0.930 . S
C566 C565 1.388 . S
C566 C567 1.390 . S
C567 C566 1.390 . S
C567 C568 1.394 . S
C567 C573 1.465 . S
C568 C563 1.399 . S
C568 C567 1.394 . S
C568 C569 1.516 . S
C569 C568 1.516 . S
C569 C570 1.502 . S
C569 C571 1.561 . S
C569 C572 1.526 . S
C570 H554 0.959 . S
C570 H555 0.959 . S
C570 H556 0.961 . S
C570 C569 1.502 . S
C571 H557 0.960 . S
C571 H558 0.961 . S
C571 H559 0.959 . S
C571 C569 1.561 . S
C572 C569 1.526 . S
C572 C573 1.396 . S
C572 C577 1.390 . S
C573 C567 1.465 . S
C573 C572 1.396 . S
C573 C574 1.399 . S
C574 H560 0.929 1_554 S
C574 C573 1.399 . S
C574 C575 1.385 1_554 S
C575 H561 0.931 . S
C575 C574 1.385 1_556 S
C575 C576 1.389 . S
C576 C575 1.389 . S
C576 C577 1.387 1_556 S
C577 H562 0.930 . S
C577 C572 1.390 . S
C577 C576 1.387 1_554 S
H578 C590 0.930 . S
H579 C592 0.930 . S
H580 C593 0.930 . S
H581 C597 0.959 . S
H582 C597 0.959 . S
H583 C597 0.961 . S
H584 C598 0.960 . S
H585 C598 0.961 . S
H586 C598 0.959 . S
H587 C601 0.929 . S
H588 C602 0.931 . S
H589 C604 0.930 . S
C590 H578 0.930 . S
C590 C591 1.399 1_556 S
C590 C595 1.399 . S
C591 C590 1.399 1_554 S
C591 C592 1.376 . S
C592 H579 0.930 . S
C592 C591 1.376 . S
C592 C593 1.388 . S
C593 H580 0.930 . S
C593 C592 1.388 . S
C593 C594 1.390 1_554 S
C594 C593 1.390 1_556 S
C594 C595 1.394 . S
C594 C600 1.465 . S
C595 C590 1.399 . S
C595 C594 1.394 . S
C595 C596 1.516 . S
C596 C595 1.516 . S
C596 C597 1.502 . S
C596 C598 1.561 . S
C596 C599 1.526 . S
C597 H581 0.959 . S
C597 H582 0.959 . S
C597 H583 0.961 . S
C597 C596 1.502 . S
C598 H584 0.960 . S
C598 H585 0.961 . S
C598 H586 0.959 . S
C598 C596 1.561 . S
C599 C596 1.526 . S
C599 C600 1.396 . S
C599 C604 1.390 . S
C600 C594 1.465 . S
C600 C599 1.396 . S
C600 C601 1.399 1_556 S
C601 H587 0.929 . S
C601 C600 1.399 1_554 S
C601 C602 1.385 1_554 S
C602 H588 0.931 . S
C602 C601 1.385 1_556 S
C602 C603 1.389 . S
C603 C602 1.389 . S
C603 C604 1.387 . S
C604 H589 0.930 . S
C604 C599 1.390 . S
C604 C603 1.387 . S
H605 C617 0.930 . S
H606 C619 0.930 . S
H607 C620 0.930 . S
H608 C624 0.959 . S
H609 C624 0.959 . S
H610 C624 0.961 . S
H611 C625 0.960 . S
H612 C625 0.961 . S
H613 C625 0.959 . S
H614 C628 0.929 . S
H615 C629 0.931 . S
H616 C631 0.930 . S
C617 H605 0.930 . S
C617 C618 1.399 . S
C617 C622 1.399 . S
C618 C617 1.399 . S
C618 C619 1.376 1_554 S
C619 H606 0.930 . S
C619 C618 1.376 1_556 S
C619 C620 1.388 . S
C620 H607 0.930 . S
C620 C619 1.388 . S
C620 C621 1.390 . S
C621 C620 1.390 . S
C621 C622 1.394 1_556 S
C621 C627 1.465 . S
C622 C617 1.399 . S
C622 C621 1.394 1_554 S
C622 C623 1.516 . S
C623 C622 1.516 . S
C623 C624 1.502 . S
C623 C625 1.561 . S
C623 C626 1.526 1_554 S
C624 H608 0.959 . S
C624 H609 0.959 . S
C624 H610 0.961 . S
C624 C623 1.502 . S
C625 H611 0.960 . S
C625 H612 0.961 . S
C625 H613 0.959 . S
C625 C623 1.561 . S
C626 C623 1.526 1_556 S
C626 C627 1.396 . S
C626 C631 1.390 . S
C627 C621 1.465 . S
C627 C626 1.396 . S
C627 C628 1.399 . S
C628 H614 0.929 . S
C628 C627 1.399 . S
C628 C629 1.385 . S
C629 H615 0.931 . S
C629 C628 1.385 . S
C629 C630 1.389 . S
C630 C629 1.389 . S
C630 C631 1.387 . S
C631 H616 0.930 . S
C631 C626 1.390 . S
C631 C630 1.387 . S
H632 C644 0.930 . S
H633 C646 0.930 . S
H634 C647 0.930 . S
H635 C651 0.959 . S
H636 C651 0.959 . S
H637 C651 0.961 . S
H638 C652 0.960 . S
H639 C652 0.961 . S
H640 C652 0.959 . S
H641 C655 0.929 . S
H642 C656 0.931 . S
H643 C658 0.930 . S
C644 H632 0.930 . S
C644 C645 1.399 . S
C644 C649 1.399 . S
C645 C644 1.399 . S
C645 C646 1.376 . S
C646 H633 0.930 . S
C646 C645 1.376 . S
C646 C647 1.388 . S
C647 H634 0.930 . S
C647 C646 1.388 . S
C647 C648 1.390 . S
C648 C647 1.390 . S
C648 C649 1.394 . S
C648 C654 1.465 . S
C649 C644 1.399 . S
C649 C648 1.394 . S
C649 C650 1.516 . S
C650 C649 1.516 . S
C650 C651 1.502 . S
C650 C652 1.561 . S
C650 C653 1.526 . S
C651 H635 0.959 . S
C651 H636 0.959 . S
C651 H637 0.961 . S
C651 C650 1.502 . S
C652 H638 0.960 . S
C652 H639 0.961 . S
C652 H640 0.959 . S
C652 C650 1.561 . S
C653 C650 1.526 . S
C653 C654 1.396 . S
C653 C658 1.390 . S
C654 C648 1.465 . S
C654 C653 1.396 . S
C654 C655 1.399 . S
C655 H641 0.929 . S
C655 C654 1.399 . S
C655 C656 1.385 . S
C656 H642 0.931 . S
C656 C655 1.385 . S
C656 C657 1.389 . S
C657 C656 1.389 . S
C657 C658 1.387 . S
C658 H643 0.930 . S
C658 C653 1.390 . S
C658 C657 1.387 . S
H659 C671 0.930 . S
H660 C673 0.932 . S
H661 C674 0.930 . S
H662 C678 0.963 1_545 S
H663 C678 0.958 1_554 S
H664 C678 0.957 1_544 S
H665 C679 0.960 1_554 S
H666 C679 0.961 1_554 S
H667 C679 0.959 . S
H668 C682 0.929 . S
H669 C683 0.931 . S
H670 C685 0.930 . S
C671 H659 0.930 . S
C671 C672 1.411 . S
C671 C676 1.399 . S
C672 C671 1.411 . S
C672 C673 1.387 1_565 S
C673 H660 0.932 . S
C673 C672 1.387 1_545 S
C673 C674 1.385 1_545 S
C674 H661 0.930 . S
C674 C673 1.385 1_565 S
C674 C675 1.390 . S
C675 C674 1.390 . S
C675 C676 1.394 . S
C675 C681 1.465 . S
C676 C671 1.399 . S
C676 C675 1.394 . S
C676 C677 1.516 . S
C677 C676 1.516 . S
C677 C678 1.499 . S
C677 C679 1.561 . S
C677 C680 1.526 . S
C678 H662 0.963 1_565 S
C678 H663 0.958 1_556 S
C678 H664 0.957 1_566 S
C678 C677 1.499 . S
C679 H665 0.960 1_556 S
C679 H666 0.961 1_556 S
C679 H667 0.959 . S
C679 C677 1.561 . S
C680 C677 1.526 . S
C680 C681 1.396 . S
C680 C685 1.390 . S
C681 C675 1.465 . S
C681 C680 1.396 . S
C681 C682 1.399 . S
C682 H668 0.929 . S
C682 C681 1.399 . S
C682 C683 1.385 . S
C683 H669 0.931 . S
C683 C682 1.385 . S
C683 C684 1.389 . S
C684 C683 1.389 . S
C684 C685 1.387 . S
C685 H670 0.930 . S
C685 C680 1.390 . S
C685 C684 1.387 . S
H686 C698 0.930 . S
H687 C700 0.930 . S
H688 C701 0.930 . S
H689 C705 0.959 . S
H690 C705 0.959 . S
H691 C705 0.961 . S
H692 C706 0.960 . S
H693 C706 0.961 . S
H694 C706 0.959 . S
H695 C709 0.929 . S
H696 C710 0.931 . S
H697 C712 0.930 . S
C698 H686 0.930 . S
C698 C699 1.399 . S
C698 C703 1.399 . S
C699 C698 1.399 . S
C699 C700 1.376 . S
C700 H687 0.930 . S
C700 C699 1.376 . S
C700 C701 1.388 . S
C701 H688 0.930 . S
C701 C700 1.388 . S
C701 C702 1.390 . S
C702 C701 1.390 . S
C702 C703 1.394 . S
C702 C708 1.465 . S
C703 C698 1.399 . S
C703 C702 1.394 . S
C703 C704 1.516 . S
C704 C703 1.516 . S
C704 C705 1.502 . S
C704 C706 1.561 . S
C704 C707 1.526 . S
C705 H689 0.959 . S
C705 H690 0.959 . S
C705 H691 0.961 . S
C705 C704 1.502 . S
C706 H692 0.960 . S
C706 H693 0.961 . S
C706 H694 0.959 . S
C706 C704 1.561 . S
C707 C704 1.526 . S
C707 C708 1.396 . S
C707 C712 1.390 . S
C708 C702 1.465 . S
C708 C707 1.396 . S
C708 C709 1.399 . S
C709 H695 0.929 . S
C709 C708 1.399 . S
C709 C710 1.385 . S
C710 H696 0.931 . S
C710 C709 1.385 . S
C710 C711 1.389 . S
C711 C710 1.389 . S
C711 C712 1.387 . S
C712 H697 0.930 . S
C712 C707 1.390 . S
C712 C711 1.387 . S
H713 C725 0.930 . S
H714 C727 0.930 . S
H715 C728 0.930 . S
H716 C732 0.959 . S
H717 C732 0.959 . S
H718 C732 0.961 . S
H719 C733 0.960 . S
H720 C733 0.961 . S
H721 C733 0.959 . S
H722 C736 0.929 . S
H723 C737 0.931 . S
H724 C739 0.930 . S
C725 H713 0.930 . S
C725 C726 1.399 . S
C725 C730 1.399 . S
C726 C725 1.399 . S
C726 C727 1.376 . S
C727 H714 0.930 . S
C727 C726 1.376 . S
C727 C728 1.388 . S
C728 H715 0.930 . S
C728 C727 1.388 . S
C728 C729 1.390 . S
C729 C728 1.390 . S
C729 C730 1.394 . S
C729 C735 1.465 . S
C730 C725 1.399 . S
C730 C729 1.394 . S
C730 C731 1.516 . S
C731 C730 1.516 . S
C731 C732 1.502 . S
C731 C733 1.561 . S
C731 C734 1.526 . S
C732 H716 0.959 . S
C732 H717 0.959 . S
C732 H718 0.961 . S
C732 C731 1.502 . S
C733 H719 0.960 . S
C733 H720 0.961 . S
C733 H721 0.959 . S
C733 C731 1.561 . S
C734 C731 1.526 . S
C734 C735 1.396 . S
C734 C739 1.390 . S
C735 C729 1.465 . S
C735 C734 1.396 . S
C735 C736 1.399 . S
C736 H722 0.929 . S
C736 C735 1.399 . S
C736 C737 1.385 . S
C737 H723 0.931 . S
C737 C736 1.385 . S
C737 C738 1.389 . S
C738 C737 1.389 . S
C738 C739 1.387 . S
C739 H724 0.930 . S
C739 C734 1.390 . S
C739 C738 1.387 . S
H740 C752 0.930 . S
H741 C754 0.930 . S
H742 C755 0.930 . S
H743 C759 0.959 . S
H744 C759 0.959 1_554 S
H745 C759 0.961 1_554 S
H746 C760 0.960 . S
H747 C760 0.961 . S
H748 C760 0.959 . S
H749 C763 0.929 . S
H750 C764 0.931 1_455 S
H751 C766 0.930 . S
C752 H740 0.930 . S
C752 C753 1.399 . S
C752 C757 1.399 . S
C753 C752 1.399 . S
C753 C754 1.376 . S
C754 H741 0.930 . S
C754 C753 1.376 . S
C754 C755 1.388 . S
C755 H742 0.930 . S
C755 C754 1.388 . S
C755 C756 1.390 . S
C756 C755 1.390 . S
C756 C757 1.394 . S
C756 C762 1.465 . S
C757 C752 1.399 . S
C757 C756 1.394 . S
C757 C758 1.516 . S
C758 C757 1.516 . S
C758 C759 1.502 . S
C758 C760 1.561 1_556 S
C758 C761 1.526 . S
C759 H743 0.959 . S
C759 H744 0.959 1_556 S
C759 H745 0.961 1_556 S
C759 C758 1.502 . S
C760 H746 0.960 . S
C760 H747 0.961 . S
C760 H748 0.959 . S
C760 C758 1.561 1_554 S
C761 C758 1.526 . S
C761 C762 1.396 . S
C761 C766 1.390 . S
C762 C756 1.465 . S
C762 C761 1.396 . S
C762 C763 1.399 . S
C763 H749 0.929 . S
C763 C762 1.399 . S
C763 C764 1.385 . S
C764 H750 0.931 1_655 S
C764 C763 1.385 . S
C764 C765 1.389 . S
C765 C764 1.389 . S
C765 C766 1.387 . S
C766 H751 0.930 . S
C766 C761 1.390 . S
C766 C765 1.387 . S
H767 C779 0.930 . S
H768 C781 0.930 . S
H769 C782 0.930 . S
H770 C786 0.959 . S
H771 C786 0.959 . S
H772 C786 0.961 . S
H773 C787 0.960 . S
H774 C787 0.961 . S
H775 C787 0.959 . S
H776 C790 0.929 . S
H777 C791 0.931 . S
H778 C793 0.930 . S
C779 H767 0.930 . S
C779 C780 1.399 1_545 S
C779 C784 1.399 . S
C780 C779 1.399 1_565 S
C780 C781 1.376 . S
C781 H768 0.930 . S
C781 C780 1.376 . S
C781 C782 1.388 . S
C782 H769 0.930 . S
C782 C781 1.388 . S
C782 C783 1.390 . S
C783 C782 1.390 . S
C783 C784 1.394 1_565 S
C783 C789 1.478 . S
C784 C779 1.399 . S
C784 C783 1.394 1_545 S
C784 C785 1.516 . S
C785 C784 1.516 . S
C785 C786 1.502 . S
C785 C787 1.561 . S
C785 C788 1.526 . S
C786 H770 0.959 . S
C786 H771 0.959 . S
C786 H772 0.961 . S
C786 C785 1.502 . S
C787 H773 0.960 . S
C787 H774 0.961 . S
C787 H775 0.959 . S
C787 C785 1.561 . S
C788 C785 1.526 . S
C788 C789 1.370 1_545 S
C788 C793 1.390 . S
C789 C783 1.478 . S
C789 C788 1.370 1_565 S
C789 C790 1.408 . S
C790 H776 0.929 . S
C790 C789 1.408 . S
C790 C791 1.385 . S
C791 H777 0.931 . S
C791 C790 1.385 . S
C791 C792 1.389 1_565 S
C792 C791 1.389 1_545 S
C792 C793 1.387 . S
C793 H778 0.930 . S
C793 C788 1.390 . S
C793 C792 1.387 . S
H794 C806 0.930 . S
H795 C808 0.930 . S
H796 C809 0.930 . S
H797 C813 0.959 . S
H798 C813 0.959 . S
H799 C813 0.961 . S
H800 C814 0.960 . S
H801 C814 0.961 1_556 S
H802 C814 0.959 . S
H803 C817 0.929 . S
H804 C818 0.931 . S
H805 C820 0.930 . S
C806 H794 0.930 . S
C806 C807 1.399 . S
C806 C811 1.399 . S
C807 C806 1.399 . S
C807 C808 1.376 . S
C808 H795 0.930 . S
C808 C807 1.376 . S
C808 C809 1.388 . S
C809 H796 0.930 . S
C809 C808 1.388 . S
C809 C810 1.390 . S
C810 C809 1.390 . S
C810 C811 1.394 . S
C810 C816 1.465 . S
C811 C806 1.399 . S
C811 C810 1.394 . S
C811 C812 1.516 . S
C812 C811 1.516 . S
C812 C813 1.502 . S
C812 C814 1.561 . S
C812 C815 1.526 . S
C813 H797 0.959 . S
C813 H798 0.959 . S
C813 H799 0.961 . S
C813 C812 1.502 . S
C814 H800 0.960 . S
C814 H801 0.961 1_554 S
C814 H802 0.959 . S
C814 C812 1.561 . S
C815 C812 1.526 . S
C815 C816 1.396 . S
C815 C820 1.390 . S
C816 C810 1.465 . S
C816 C815 1.396 . S
C816 C817 1.399 . S
C817 H803 0.929 . S
C817 C816 1.399 . S
C817 C818 1.385 . S
C818 H804 0.931 . S
C818 C817 1.385 . S
C818 C819 1.389 . S
C819 C818 1.389 . S
C819 C820 1.387 . S
C820 H805 0.930 . S
C820 C815 1.390 . S
C820 C819 1.387 . S
H821 C833 0.930 . S
H822 C835 0.930 . S
H823 C836 0.930 . S
H824 C840 0.959 1_556 S
H825 C840 0.959 . S
H826 C840 0.961 . S
H827 C841 0.960 . S
H828 C841 0.961 . S
H829 C841 0.959 . S
H830 C844 0.929 . S
H831 C845 0.931 . S
H832 C847 0.930 . S
C833 H821 0.930 . S
C833 C834 1.399 . S
C833 C838 1.399 . S
C834 C833 1.399 . S
C834 C835 1.376 . S
C835 H822 0.930 . S
C835 C834 1.376 . S
C835 C836 1.388 . S
C836 H823 0.930 . S
C836 C835 1.388 . S
C836 C837 1.390 . S
C837 C836 1.390 . S
C837 C838 1.394 . S
C837 C843 1.465 . S
C838 C833 1.399 . S
C838 C837 1.394 . S
C838 C839 1.516 . S
C839 C838 1.516 . S
C839 C840 1.502 1_556 S
C839 C841 1.561 1_556 S
C839 C842 1.526 . S
C840 H824 0.959 1_554 S
C840 H825 0.959 . S
C840 H826 0.961 . S
C840 C839 1.502 1_554 S
C841 H827 0.960 . S
C841 H828 0.961 . S
C841 H829 0.959 . S
C841 C839 1.561 1_554 S
C842 C839 1.526 . S
C842 C843 1.396 . S
C842 C847 1.390 . S
C843 C837 1.465 . S
C843 C842 1.396 . S
C843 C844 1.399 . S
C844 H830 0.929 . S
C844 C843 1.399 . S
C844 C845 1.385 . S
C845 H831 0.931 . S
C845 C844 1.385 . S
C845 C846 1.389 . S
C846 C845 1.389 . S
C846 C847 1.387 . S
C847 H832 0.930 . S
C847 C842 1.390 . S
C847 C846 1.387 . S
H848 C860 0.930 . S
H849 C862 0.930 . S
H850 C863 0.930 . S
H851 C867 0.959 . S
H852 C867 0.959 . S
H853 C867 0.961 . S
H854 C868 0.960 . S
H855 C868 0.961 . S
H856 C868 0.959 . S
H857 C871 0.929 . S
H858 C872 0.931 . S
H859 C874 0.930 . S
C860 H848 0.930 . S
C860 C861 1.399 . S
C860 C865 1.399 . S
C861 C860 1.399 . S
C861 C862 1.376 . S
C862 H849 0.930 . S
C862 C861 1.376 . S
C862 C863 1.388 . S
C863 H850 0.930 . S
C863 C862 1.388 . S
C863 C864 1.390 . S
C864 C863 1.390 . S
C864 C865 1.394 . S
C864 C870 1.465 . S
C865 C860 1.399 . S
C865 C864 1.394 . S
C865 C866 1.516 . S
C866 C865 1.516 . S
C866 C867 1.502 . S
C866 C868 1.561 . S
C866 C869 1.526 . S
C867 H851 0.959 . S
C867 H852 0.959 . S
C867 H853 0.961 . S
C867 C866 1.502 . S
C868 H854 0.960 . S
C868 H855 0.961 . S
C868 H856 0.959 . S
C868 C866 1.561 . S
C869 C866 1.526 . S
C869 C870 1.396 . S
C869 C874 1.390 . S
C870 C864 1.465 . S
C870 C869 1.396 . S
C870 C871 1.399 . S
C871 H857 0.929 . S
C871 C870 1.399 . S
C871 C872 1.385 . S
C872 H858 0.931 . S
C872 C871 1.385 . S
C872 C873 1.389 . S
C873 C872 1.389 . S
C873 C874 1.387 . S
C874 H859 0.930 . S
C874 C869 1.390 . S
C874 C873 1.387 . S
H875 C887 0.930 . S
H876 C889 0.930 . S
H877 C890 0.930 . S
H878 C894 0.959 . S
H879 C894 0.959 . S
H880 C894 0.961 . S
H881 C895 0.960 . S
H882 C895 0.961 . S
H883 C895 0.959 . S
H884 C898 0.929 . S
H885 C899 0.931 . S
H886 C901 0.930 1_565 S
C887 H875 0.930 . S
C887 C888 1.399 1_565 S
C887 C892 1.399 . S
C888 C887 1.399 1_545 S
C888 C889 1.376 . S
C889 H876 0.930 . S
C889 C888 1.376 . S
C889 C890 1.388 . S
C890 H877 0.930 . S
C890 C889 1.388 . S
C890 C891 1.390 . S
C891 C890 1.390 . S
C891 C892 1.394 1_545 S
C891 C897 1.465 . S
C892 C887 1.399 . S
C892 C891 1.394 1_565 S
C892 C893 1.516 . S
C893 C892 1.516 . S
C893 C894 1.502 . S
C893 C895 1.561 . S
C893 C896 1.526 1_565 S
C894 H878 0.959 . S
C894 H879 0.959 . S
C894 H880 0.961 . S
C894 C893 1.502 . S
C895 H881 0.960 . S
C895 H882 0.961 . S
C895 H883 0.959 . S
C895 C893 1.561 . S
C896 C893 1.526 1_545 S
C896 C897 1.396 . S
C896 C901 1.390 . S
C897 C891 1.465 . S
C897 C896 1.396 . S
C897 C898 1.399 . S
C898 H884 0.929 . S
C898 C897 1.399 . S
C898 C899 1.385 . S
C899 H885 0.931 . S
C899 C898 1.385 . S
C899 C900 1.389 . S
C900 C899 1.389 . S
C900 C901 1.387 . S
C901 H886 0.930 1_545 S
C901 C896 1.390 . S
C901 C900 1.387 . S
H902 C914 0.930 . S
H903 C916 0.930 1_556 S
H904 C917 0.930 . S
H905 C921 0.959 . S
H906 C921 0.959 . S
H907 C921 0.961 . S
H908 C922 0.960 . S
H909 C922 0.961 . S
H910 C922 0.959 . S
H911 C925 0.929 . S
H912 C926 0.931 . S
H913 C928 0.930 . S
C914 H902 0.930 . S
C914 C915 1.399 . S
C914 C919 1.399 . S
C915 C914 1.399 . S
C915 C916 1.376 . S
C916 H903 0.930 1_554 S
C916 C915 1.376 . S
C916 C917 1.388 1_554 S
C917 H904 0.930 . S
C917 C916 1.388 1_556 S
C917 C918 1.390 1_556 S
C918 C917 1.390 1_554 S
C918 C919 1.394 . S
C918 C924 1.465 1_554 S
C919 C914 1.399 . S
C919 C918 1.394 . S
C919 C920 1.516 . S
C920 C919 1.516 . S
C920 C921 1.502 . S
C920 C922 1.561 . S
C920 C923 1.526 . S
C921 H905 0.959 . S
C921 H906 0.959 . S
C921 H907 0.961 . S
C921 C920 1.502 . S
C922 H908 0.960 . S
C922 H909 0.961 . S
C922 H910 0.959 . S
C922 C920 1.561 . S
C923 C920 1.526 . S
C923 C924 1.396 1_554 S
C923 C928 1.390 . S
C924 C918 1.465 1_556 S
C924 C923 1.396 1_556 S
C924 C925 1.399 . S
C925 H911 0.929 . S
C925 C924 1.399 . S
C925 C926 1.385 . S
C926 H912 0.931 . S
C926 C925 1.385 . S
C926 C927 1.389 . S
C927 C926 1.389 . S
C927 C928 1.387 1_556 S
C928 H913 0.930 . S
C928 C923 1.390 . S
C928 C927 1.387 1_554 S
H929 C941 0.930 . S
H930 C943 0.930 . S
H931 C944 0.930 . S
H932 C948 0.959 . S
H933 C948 0.959 . S
H934 C948 0.961 . S
H935 C949 0.960 . S
H936 C949 0.961 . S
H937 C949 0.959 . S
H938 C952 0.929 . S
H939 C953 0.931 . S
H940 C955 0.930 . S
C941 H929 0.930 . S
C941 C942 1.399 . S
C941 C946 1.399 . S
C942 C941 1.399 . S
C942 C943 1.376 . S
C943 H930 0.930 . S
C943 C942 1.376 . S
C943 C944 1.388 . S
C944 H931 0.930 . S
C944 C943 1.388 . S
C944 C945 1.390 . S
C945 C944 1.390 . S
C945 C946 1.394 . S
C945 C951 1.465 . S
C946 C941 1.399 . S
C946 C945 1.394 . S
C946 C947 1.516 . S
C947 C946 1.516 . S
C947 C948 1.502 . S
C947 C949 1.561 . S
C947 C950 1.526 . S
C948 H932 0.959 . S
C948 H933 0.959 . S
C948 H934 0.961 . S
C948 C947 1.502 . S
C949 H935 0.960 . S
C949 H936 0.961 . S
C949 H937 0.959 . S
C949 C947 1.561 . S
C950 C947 1.526 . S
C950 C951 1.396 . S
C950 C955 1.390 . S
C951 C945 1.465 . S
C951 C950 1.396 . S
C951 C952 1.399 . S
C952 H938 0.929 . S
C952 C951 1.399 . S
C952 C953 1.385 . S
C953 H939 0.931 . S
C953 C952 1.385 . S
C953 C954 1.389 . S
C954 C953 1.389 . S
C954 C955 1.387 . S
C955 H940 0.930 . S
C955 C950 1.390 . S
C955 C954 1.387 . S
H956 C968 0.930 . S
H957 C970 0.930 . S
H958 C971 0.930 . S
H959 C975 0.959 . S
H960 C975 0.959 . S
H961 C975 0.961 . S
H962 C976 0.960 . S
H963 C976 0.961 . S
H964 C976 0.959 . S
H965 C979 0.929 . S
H966 C980 0.931 . S
H967 C982 0.930 . S
C968 H956 0.930 . S
C968 C969 1.399 . S
C968 C973 1.399 . S
C969 C968 1.399 . S
C969 C970 1.376 . S
C970 H957 0.930 . S
C970 C969 1.376 . S
C970 C971 1.388 . S
C971 H958 0.930 . S
C971 C970 1.388 . S
C971 C972 1.390 . S
C972 C971 1.390 . S
C972 C973 1.394 . S
C972 C978 1.465 . S
C973 C968 1.399 . S
C973 C972 1.394 . S
C973 C974 1.516 . S
C974 C973 1.516 . S
C974 C975 1.502 . S
C974 C976 1.561 . S
C974 C977 1.526 . S
C975 H959 0.959 . S
C975 H960 0.959 . S
C975 H961 0.961 . S
C975 C974 1.502 . S
C976 H962 0.960 . S
C976 H963 0.961 . S
C976 H964 0.959 . S
C976 C974 1.561 . S
C977 C974 1.526 . S
C977 C978 1.396 . S
C977 C982 1.390 . S
C978 C972 1.465 . S
C978 C977 1.396 . S
C978 C979 1.399 . S
C979 H965 0.929 . S
C979 C978 1.399 . S
C979 C980 1.385 . S
C980 H966 0.931 . S
C980 C979 1.385 . S
C980 C981 1.389 . S
C981 C980 1.389 . S
C981 C982 1.387 . S
C982 H967 0.930 . S
C982 C977 1.390 . S
C982 C981 1.387 . S
H983 C995 0.930 . S
H984 C997 0.930 . S
H985 C998 0.930 . S
H986 C1002 0.959 . S
H987 C1002 0.959 . S
H988 C1002 0.961 . S
H989 C1003 0.960 . S
H990 C1003 0.961 . S
H991 C1003 0.959 . S
H992 C1006 0.929 . S
H993 C1007 0.931 . S
H994 C1009 0.930 1_545 S
C995 H983 0.930 . S
C995 C996 1.399 1_545 S
C995 C1000 1.399 . S
C996 C995 1.399 1_565 S
C996 C997 1.376 . S
C997 H984 0.930 . S
C997 C996 1.376 . S
C997 C998 1.388 . S
C998 H985 0.930 . S
C998 C997 1.388 . S
C998 C999 1.390 . S
C999 C998 1.390 . S
C999 C1000 1.394 1_565 S
C999 C1005 1.465 . S
C1000 C995 1.399 . S
C1000 C999 1.394 1_545 S
C1000 C1001 1.516 . S
C1001 C1000 1.516 . S
C1001 C1002 1.502 . S
C1001 C1003 1.561 . S
C1001 C1004 1.526 1_545 S
C1002 H986 0.959 . S
C1002 H987 0.959 . S
C1002 H988 0.961 . S
C1002 C1001 1.502 . S
C1003 H989 0.960 . S
C1003 H990 0.961 . S
C1003 H991 0.959 . S
C1003 C1001 1.561 . S
C1004 C1001 1.526 1_565 S
C1004 C1005 1.396 . S
C1004 C1009 1.390 . S
C1005 C999 1.465 . S
C1005 C1004 1.396 . S
C1005 C1006 1.399 . S
C1006 H992 0.929 . S
C1006 C1005 1.399 . S
C1006 C1007 1.385 . S
C1007 H993 0.931 . S
C1007 C1006 1.385 . S
C1007 C1008 1.389 . S
C1008 C1007 1.389 . S
C1008 C1009 1.387 . S
C1009 H994 0.930 1_565 S
C1009 C1004 1.390 . S
C1009 C1008 1.387 . S
H1010 C1022 0.930 . S
H1011 C1024 0.930 . S
H1012 C1025 0.930 . S
H1013 C1029 0.959 . S
H1014 C1029 0.959 . S
H1015 C1029 0.961 . S
H1016 C1030 0.960 . S
H1017 C1030 0.961 . S
H1018 C1030 0.959 . S
H1019 C1033 0.929 . S
H1020 C1034 0.931 . S
H1021 C1036 0.930 . S
C1022 H1010 0.930 . S
C1022 C1023 1.399 . S
C1022 C1027 1.399 . S
C1023 C1022 1.399 . S
C1023 C1024 1.376 . S
C1024 H1011 0.930 . S
C1024 C1023 1.376 . S
C1024 C1025 1.388 . S
C1025 H1012 0.930 . S
C1025 C1024 1.388 . S
C1025 C1026 1.390 . S
C1026 C1025 1.390 . S
C1026 C1027 1.394 . S
C1026 C1032 1.465 . S
C1027 C1022 1.399 . S
C1027 C1026 1.394 . S
C1027 C1028 1.516 . S
C1028 C1027 1.516 . S
C1028 C1029 1.502 . S
C1028 C1030 1.561 . S
C1028 C1031 1.526 . S
C1029 H1013 0.959 . S
C1029 H1014 0.959 . S
C1029 H1015 0.961 . S
C1029 C1028 1.502 . S
C1030 H1016 0.960 . S
C1030 H1017 0.961 . S
C1030 H1018 0.959 . S
C1030 C1028 1.561 . S
C1031 C1028 1.526 . S
C1031 C1032 1.396 . S
C1031 C1036 1.390 . S
C1032 C1026 1.465 . S
C1032 C1031 1.396 . S
C1032 C1033 1.399 . S
C1033 H1019 0.929 . S
C1033 C1032 1.399 . S
C1033 C1034 1.385 . S
C1034 H1020 0.931 . S
C1034 C1033 1.385 . S
C1034 C1035 1.389 . S
C1035 C1034 1.389 . S
C1035 C1036 1.387 . S
C1036 H1021 0.930 . S
C1036 C1031 1.390 . S
C1036 C1035 1.387 . S
H1037 C1049 0.930 . S
H1038 C1051 0.930 . S
H1039 C1052 0.930 . S
H1040 C1056 0.959 . S
H1041 C1056 0.959 . S
H1042 C1056 0.961 . S
H1043 C1057 0.960 . S
H1044 C1057 0.961 . S
H1045 C1057 0.959 . S
H1046 C1060 0.929 . S
H1047 C1061 0.931 . S
H1048 C1063 0.930 . S
C1049 H1037 0.930 . S
C1049 C1050 1.399 . S
C1049 C1054 1.399 . S
C1050 C1049 1.399 . S
C1050 C1051 1.376 . S
C1051 H1038 0.930 . S
C1051 C1050 1.376 . S
C1051 C1052 1.388 . S
C1052 H1039 0.930 . S
C1052 C1051 1.388 . S
C1052 C1053 1.390 . S
C1053 C1052 1.390 . S
C1053 C1054 1.394 . S
C1053 C1059 1.465 . S
C1054 C1049 1.399 . S
C1054 C1053 1.394 . S
C1054 C1055 1.516 . S
C1055 C1054 1.516 . S
C1055 C1056 1.502 . S
C1055 C1057 1.561 . S
C1055 C1058 1.526 . S
C1056 H1040 0.959 . S
C1056 H1041 0.959 . S
C1056 H1042 0.961 . S
C1056 C1055 1.502 . S
C1057 H1043 0.960 . S
C1057 H1044 0.961 . S
C1057 H1045 0.959 . S
C1057 C1055 1.561 . S
C1058 C1055 1.526 . S
C1058 C1059 1.396 . S
C1058 C1063 1.390 . S
C1059 C1053 1.465 . S
C1059 C1058 1.396 . S
C1059 C1060 1.399 . S
C1060 H1046 0.929 . S
C1060 C1059 1.399 . S
C1060 C1061 1.385 . S
C1061 H1047 0.931 . S
C1061 C1060 1.385 . S
C1061 C1062 1.389 . S
C1062 C1061 1.389 . S
C1062 C1063 1.387 . S
C1063 H1048 0.930 . S
C1063 C1058 1.390 . S
C1063 C1062 1.387 . S
C429 C215 1.050 1_565 S
C441 C265 1.036 . S
C468 C305 1.713 . S
C456 C247 1.899 . S
C495 C354 1.567 . S
C483 C151 1.518 . S
C522 C385 2.024 . S
C510 C183 2.170 . S
C549 C274 1.052 . S
C537 C87 1.012 1_565 S
C564 C119 1.711 . S
C576 C314 1.792 . S
C591 C23 1.639 . S
C603 C345 1.553 . S
C618 C55 1.982 . S
C630 C394 2.080 1_655 S
C657 C275 1.255 . S
C645 C189 1.252 . S
C684 C315 0.897 . S
C672 C221 0.750 1_565 S
C711 C351 0.619 . S
C699 C253 0.627 . S
C726 C157 1.191 . S
C738 C395 1.396 . S
C753 C61 0.981 . S
C765 C266 1.272 1_655 S
C792 C306 0.867 . S
C780 C93 0.878 1_565 S
C819 C342 0.585 . S
C807 C125 0.792 . S
C834 C29 1.361 . S
C846 C386 1.381 . S
C861 C177 1.974 . S
C873 C271 1.994 . S
C888 C209 1.570 . S
C900 C311 1.648 . S
C927 C355 2.577 . S
C915 C241 2.439 . S
C954 C391 1.662 . S
C942 C145 1.479 . S
C969 C49 1.877 . S
C981 C262 2.005 . S
C1008 C302 1.641 . S
C996 C81 1.629 1_565 S
C1035 C346 2.573 . S
C1023 C113 2.308 . S
C1050 C17 1.633 . S
C1062 C382 1.654 . S
