# Generated by pormake.
# Topology zzz, (3,6)-cn, num edge types: 1
# Building blocks:
#     Node 0, Type 0, BuildingBlock: PAMTOO_clean_linker_0, # of connection points: 3
#     Node 1, Type 0, BuildingBlock: PAMTOO_clean_linker_0, # of connection points: 3
#     Node 2, Type 0, BuildingBlock: PAMTOO_clean_linker_0, # of connection points: 3
#     Node 3, Type 0, BuildingBlock: PAMTOO_clean_linker_0, # of connection points: 3
#     Node 4, Type 0, BuildingBlock: PAMTOO_clean_linker_0, # of connection points: 3
#     Node 5, Type 0, BuildingBlock: PAMTOO_clean_linker_0, # of connection points: 3
#     Node 6, Type 0, BuildingBlock: PAMTOO_clean_linker_0, # of connection points: 3
#     Node 7, Type 0, BuildingBlock: PAMTOO_clean_linker_0, # of connection points: 3
#     Node 8, Type 1, BuildingBlock: VOLQOD_clean_sbu_1, # of connection points: 6
#     Node 9, Type 1, BuildingBlock: VOLQOD_clean_sbu_1, # of connection points: 6
#     Node 10, Type 1, BuildingBlock: VOLQOD_clean_sbu_1, # of connection points: 6
#     Node 11, Type 1, BuildingBlock: VOLQOD_clean_sbu_1, # of connection points: 6
#     Edge 12, Type (0, 1), BuildingBlock: KIFKEQ_clean_linker_1, # of connection points: 2
#     Edge 13, Type (0, 1), BuildingBlock: KIFKEQ_clean_linker_1, # of connection points: 2
#     Edge 14, Type (0, 1), BuildingBlock: KIFKEQ_clean_linker_1, # of connection points: 2
#     Edge 15, Type (0, 1), BuildingBlock: KIFKEQ_clean_linker_1, # of connection points: 2
#     Edge 16, Type (0, 1), BuildingBlock: KIFKEQ_clean_linker_1, # of connection points: 2
#     Edge 17, Type (0, 1), BuildingBlock: KIFKEQ_clean_linker_1, # of connection points: 2
#     Edge 18, Type (0, 1), BuildingBlock: KIFKEQ_clean_linker_1, # of connection points: 2
#     Edge 19, Type (0, 1), BuildingBlock: KIFKEQ_clean_linker_1, # of connection points: 2
#     Edge 20, Type (0, 1), BuildingBlock: KIFKEQ_clean_linker_1, # of connection points: 2
#     Edge 21, Type (0, 1), BuildingBlock: KIFKEQ_clean_linker_1, # of connection points: 2
#     Edge 22, Type (0, 1), BuildingBlock: KIFKEQ_clean_linker_1, # of connection points: 2
#     Edge 23, Type (0, 1), BuildingBlock: KIFKEQ_clean_linker_1, # of connection points: 2
#     Edge 24, Type (0, 1), BuildingBlock: KIFKEQ_clean_linker_1, # of connection points: 2
#     Edge 25, Type (0, 1), BuildingBlock: KIFKEQ_clean_linker_1, # of connection points: 2
#     Edge 26, Type (0, 1), BuildingBlock: KIFKEQ_clean_linker_1, # of connection points: 2
#     Edge 27, Type (0, 1), BuildingBlock: KIFKEQ_clean_linker_1, # of connection points: 2
#     Edge 28, Type (0, 1), BuildingBlock: KIFKEQ_clean_linker_1, # of connection points: 2
#     Edge 29, Type (0, 1), BuildingBlock: KIFKEQ_clean_linker_1, # of connection points: 2
#     Edge 30, Type (0, 1), BuildingBlock: KIFKEQ_clean_linker_1, # of connection points: 2
#     Edge 31, Type (0, 1), BuildingBlock: KIFKEQ_clean_linker_1, # of connection points: 2
#     Edge 32, Type (0, 1), BuildingBlock: KIFKEQ_clean_linker_1, # of connection points: 2
#     Edge 33, Type (0, 1), BuildingBlock: KIFKEQ_clean_linker_1, # of connection points: 2
#     Edge 34, Type (0, 1), BuildingBlock: KIFKEQ_clean_linker_1, # of connection points: 2
#     Edge 35, Type (0, 1), BuildingBlock: KIFKEQ_clean_linker_1, # of connection points: 2
# Relax obj value: 0.195
# Max RMSD: 0.236
# Mean RMSD: 0.108
data_MOF--net-zzz--node1-VOLQOD_clean_sbu_1--node2-PAMTOO_clean_linker_0--edge1-KIFKEQ_clean_linker_1
_symmetry_space_group_name_H-M    P1
_symmetry_Int_Tables_number       1
_symmetry_cell_setting            triclinic
loop_
_symmetry_equiv_pos_as_xyz
'x, y, z'
_cell_length_a     51.753764
_cell_length_b     51.545374
_cell_length_c     17.701793
_cell_angle_alpha  90.114774
_cell_angle_beta   89.929937
_cell_angle_gamma 90.772375
loop_
_atom_site_label
_atom_site_type_symbol
_atom_site_fract_x
_atom_site_fract_y
_atom_site_fract_z
_atom_type_partial_charge
H0 H 0.84328 0.49664 0.18093 0.0
H1 H 0.77755 0.49838 0.03212 0.0
H2 H 0.77824 0.54384 0.2365 0.0
H3 H 0.72163 0.53176 0.19183 0.0
C4 C 0.72876 0.51943 0.14491 0.0
O5 O 0.75114 0.53053 0.11594 0.0
H6 H 0.73272 0.49985 0.16865 0.0
C7 C 0.82394 0.50316 0.16785 0.0
C8 C 0.8121 0.52069 0.21677 0.0
C9 C 0.81187 0.49499 0.10092 0.0
C10 C 0.78719 0.50435 0.08371 0.0
C11 C 0.77496 0.52174 0.13291 0.0
C12 C 0.7876 0.53024 0.19899 0.0
H13 H 0.01745 0.83841 0.18144 0.0
H14 H 0.02583 0.77107 0.03987 0.0
H15 H 0.97773 0.76738 0.23825 0.0
H16 H 1.00291 0.71491 0.20383 0.0
C17 C 0.00971 0.72057 0.14649 0.0
O18 O 0.99547 0.74126 0.12135 0.0
H19 H 0.03057 0.726 0.15112 0.0
C20 C 0.01366 0.81801 0.17015 0.0
C21 C 0.99675 0.80428 0.21754 0.0
C22 C 0.02436 0.80634 0.10604 0.0
C23 C 0.0182 0.78029 0.09007 0.0
C24 C 1.00177 0.76612 0.13841 0.0
C25 C 0.99097 0.77814 0.20222 0.0
H26 H 0.67442 0.01848 0.15374 0.0
H27 H 0.74371 0.02689 0.02097 0.0
H28 H 0.74282 0.97757 0.21696 0.0
H29 H 0.79789 0.99843 0.18768 0.0
C30 C 0.79223 0.00827 0.13456 0.0
O31 O 0.77105 0.99548 0.10399 0.0
H32 H 0.78731 0.02872 0.14852 0.0
C33 C 0.69475 0.01454 0.14488 0.0
C34 C 0.7071 0.99716 0.19294 0.0
C35 C 0.70766 0.02547 0.08285 0.0
C36 C 0.73361 0.01918 0.06984 0.0
C37 C 0.74642 1.00229 0.11893 0.0
C38 C 0.73314 0.99122 0.18056 0.0
H39 H 0.4925 0.67551 0.15982 0.0
H40 H 0.50235 0.74395 0.02388 0.0
H41 H 0.53954 0.73902 0.24058 0.0
H42 H 0.53325 0.79809 0.1977 0.0
C43 C 0.52107 0.79088 0.15028 0.0
O44 O 0.53184 0.7685 0.12163 0.0
H45 H 0.50139 0.78682 0.1735 0.0
C46 C 0.49973 0.69524 0.15331 0.0
C47 C 0.5158 0.70587 0.20929 0.0
C48 C 0.4949 0.70853 0.08602 0.0
C49 C 0.50558 0.73349 0.07598 0.0
C50 C 0.52124 0.74466 0.13236 0.0
C51 C 0.52679 0.73063 0.19833 0.0
H52 H 0.18257 0.53847 0.20117 0.0
H53 H 0.25047 0.53622 0.34037 0.0
H54 H 0.24982 0.49819 0.12363 0.0
H55 H 0.28688 0.47128 0.2336 0.0
C56 C 0.28398 0.48619 0.27809 0.0
O57 O 0.27784 0.50945 0.24415 0.0
H58 H 0.26784 0.47939 0.31515 0.0
C59 C 0.20264 0.53325 0.20879 0.0
C60 C 0.21476 0.51821 0.15346 0.0
C61 C 0.21513 0.53976 0.27642 0.0
C62 C 0.24058 0.5316 0.28802 0.0
C63 C 0.2532 0.51692 0.23257 0.0
C64 C 0.2402 0.50997 0.16558 0.0
H65 H 0.03994 0.17818 0.17084 0.0
H66 H 0.02313 0.24565 0.30437 0.0
H67 H 0.05105 0.25418 0.07608 0.0
H68 H 0.07088 0.29849 0.17464 0.0
C69 C 0.05925 0.29268 0.22484 0.0
O70 O 0.03765 0.27905 0.20031 0.0
H71 H 0.07158 0.28036 0.26134 0.0
C72 C 0.03973 0.19913 0.17729 0.0
C73 C 0.04687 0.21477 0.11625 0.0
C74 C 0.03091 0.20997 0.24489 0.0
C75 C 0.02978 0.23701 0.25213 0.0
C76 C 0.03768 0.25298 0.19188 0.0
C77 C 0.0457 0.24184 0.12321 0.0
H78 H 0.34145 0.00569 0.17864 0.0
H79 H 0.27126 0.99227 0.30354 0.0
H80 H 0.27178 0.04401 0.11266 0.0
H81 H 0.22851 0.05956 0.22682 0.0
C82 C 0.23454 0.04358 0.26464 0.0
O83 O 0.24323 0.0232 0.22091 0.0
H84 H 0.25033 0.05123 0.30163 0.0
C85 C 0.32101 0.0092 0.187 0.0
C86 C 0.30842 0.02658 0.13942 0.0
C87 C 0.30785 0.99645 0.24554 0.0
C88 C 0.28162 1.00157 0.25752 0.0
C89 C 0.2686 0.01866 0.20949 0.0
C90 C 0.28191 0.0309 0.14969 0.0
H91 H 0.50071 0.33422 0.18873 0.0
H92 H 0.51198 0.26188 0.30353 0.0
H93 H 0.4622 0.26503 0.10881 0.0
H94 H 0.44583 0.21818 0.21422 0.0
C95 C 0.46114 0.22455 0.25435 0.0
O96 O 0.48175 0.23471 0.21375 0.0
H97 H 0.45267 0.23961 0.29192 0.0
C98 C 0.49668 0.31358 0.19383 0.0
C99 C 0.47966 0.30159 0.14289 0.0
C100 C 0.5087 0.29951 0.25106 0.0
C101 C 0.50315 0.27295 0.25869 0.0
C102 C 0.48641 0.2605 0.2073 0.0
C103 C 0.47493 0.27475 0.14869 0.0
O104 O 0.0727 0.01115 0.64232 0.0
Zn105 Zn 0.045 0.01036 0.72361 0.0
O106 O 0.01034 0.00681 0.67678 0.0
Zn107 Zn 0.98934 0.03664 0.70221 0.0
Zn108 Zn 0.01348 0.00445 0.56691 0.0
Zn109 Zn 0.99247 0.97591 0.71401 0.0
O110 O 0.95787 0.02706 0.76398 0.0
O111 O 0.96091 0.98441 0.77708 0.0
O112 O 0.04868 0.04443 0.78214 0.0
O113 O 0.0106 0.06235 0.7598 0.0
O114 O 0.979 0.05674 0.61098 0.0
O115 O 0.99799 0.0357 0.51731 0.0
O116 O 0.99713 0.97138 0.52632 0.0
O117 O 0.05275 0.97923 0.79019 0.0
O118 O 0.98201 0.95194 0.62936 0.0
O119 O 0.01685 0.95537 0.77588 0.0
C120 C 0.07219 0.0086 0.57067 0.0
C121 C 0.94935 0.00563 0.79046 0.0
C122 C 0.98496 0.05479 0.54156 0.0
C123 C 0.03322 0.06341 0.78764 0.0
C124 C 0.98552 0.95236 0.5582 0.0
C125 C 0.03951 0.95861 0.80216 0.0
O126 O 0.05094 0.00528 0.53551 0.0
O127 O 0.50035 0.06362 0.62788 0.0
Zn128 Zn 0.50365 0.03698 0.71124 0.0
O129 O 0.5072 1.00186 0.66681 0.0
Zn130 Zn 0.47919 0.97951 0.70198 0.0
Zn131 Zn 0.5064 1.00363 0.55603 0.0
Zn132 Zn 0.53943 0.98612 0.69885 0.0
O133 O 0.49143 0.94927 0.76323 0.0
O134 O 0.53402 0.95434 0.76526 0.0
O135 O 0.47092 0.03966 0.7757 0.0
O136 O 0.45473 0.99975 0.76483 0.0
O137 O 0.4577 0.96617 0.6167 0.0
O138 O 0.47573 0.9834 0.5144 0.0
O139 O 0.53965 0.99014 0.51051 0.0
O140 O 0.53575 0.04712 0.77194 0.0
O141 O 0.5616 0.97664 0.61028 0.0
O142 O 0.56032 0.0124 0.75513 0.0
C143 C 0.50003 0.06241 0.55593 0.0
C144 C 0.51362 0.94188 0.78455 0.0
C145 C 0.4581 0.96961 0.54566 0.0
C146 C 0.45318 0.02287 0.78941 0.0
C147 C 0.55968 0.97995 0.53932 0.0
C148 C 0.55694 0.03516 0.78066 0.0
O149 O 0.50222 0.04079 0.52151 0.0
O150 O 0.45235 0.49801 0.64331 0.0
Zn151 Zn 0.48055 0.50046 0.72291 0.0
O152 O 0.51504 0.50186 0.67352 0.0
Zn153 Zn 0.53618 0.47357 0.70918 0.0
Zn154 Zn 0.51133 0.49955 0.56362 0.0
Zn155 Zn 0.53345 0.53395 0.69848 0.0
O156 O 0.56764 0.48564 0.76734 0.0
O157 O 0.56523 0.52851 0.76326 0.0
O158 O 0.47654 0.46807 0.78949 0.0
O159 O 0.51513 0.45041 0.77536 0.0
O160 O 0.54712 0.45059 0.62439 0.0
O161 O 0.52925 0.46782 0.52257 0.0
O162 O 0.52491 0.53215 0.51304 0.0
O163 O 0.47382 0.53403 0.78135 0.0
O164 O 0.54312 0.55454 0.6064 0.0
O165 O 0.50931 0.55696 0.75305 0.0
C166 C 0.45252 0.49641 0.5714 0.0
C167 C 0.57652 0.508 0.78494 0.0
C168 C 0.54255 0.45018 0.55385 0.0
C169 C 0.49235 0.44977 0.80229 0.0
C170 C 0.53726 0.5521 0.53697 0.0
C171 C 0.48704 0.5551 0.78301 0.0
O172 O 0.47368 0.49643 0.53456 0.0
O173 O 0.9769 0.54205 0.57867 0.0
Zn174 Zn 0.0093 0.53955 0.64473 0.0
O175 O 0.01289 0.50421 0.68802 0.0
Zn176 Zn 0.01056 0.50516 0.79827 0.0
Zn177 Zn 0.98599 0.48125 0.6483 0.0
Zn178 Zn 0.04605 0.48959 0.66075 0.0
O179 O 0.04375 0.49345 0.84731 0.0
O180 O 0.06753 0.48027 0.75076 0.0
O181 O 0.00553 0.5659 0.7297 0.0
O182 O 0.00556 0.54183 0.83363 0.0
O183 O 0.97994 0.48396 0.83562 0.0
O184 O 0.96418 0.46613 0.73087 0.0
O185 O 1.00008 0.45244 0.58278 0.0
O186 O 0.0418 0.55039 0.58652 0.0
O187 O 0.04247 0.45864 0.5915 0.0
O188 O 0.06707 0.51664 0.60895 0.0
C189 C 0.95931 0.52509 0.56502 0.0
C190 C 0.06459 0.484 0.82125 0.0
C191 C 0.96334 0.46955 0.80199 0.0
C192 C 1.00424 0.56385 0.80143 0.0
C193 C 0.02306 0.44605 0.56556 0.0
C194 C 0.06356 0.53916 0.58215 0.0
O195 O 0.96097 0.50188 0.58857 0.0
H196 H 0.19433 0.01031 0.22738 0.0
H197 H 0.22251 0.05948 0.40759 0.0
H198 H 0.1562 0.99917 0.30258 0.0
H199 H 0.184 0.04928 0.48188 0.0
H200 H 0.12191 0.01081 0.62437 0.0
H201 H 0.1617 0.01657 0.55206 0.0
H202 H 0.11739 0.01818 0.34536 0.0
H203 H 0.07783 0.01157 0.41723 0.0
C204 C 0.19247 0.01851 0.28346 0.0
C205 C 0.21169 0.03526 0.31242 0.0
C206 C 0.17048 0.01238 0.32633 0.0
C207 C 0.16695 0.02325 0.39862 0.0
C208 C 0.18624 0.04007 0.42727 0.0
C209 C 0.20828 0.04604 0.3846 0.0
C210 C 0.12068 0.01219 0.56344 0.0
C211 C 0.09662 0.01077 0.52676 0.0
C212 C 0.14351 0.01566 0.52192 0.0
C213 C 0.14285 0.01798 0.4427 0.0
C214 C 0.11878 0.0161 0.40606 0.0
C215 C 0.09601 0.01245 0.44747 0.0
H216 H 0.44846 0.21286 0.4008 0.0
H217 H 0.49119 0.1836 0.21021 0.0
H218 H 0.45893 0.17414 0.47282 0.0
H219 H 0.50256 0.14512 0.28291 0.0
H220 H 0.49167 0.06696 0.40364 0.0
H221 H 0.48365 0.10627 0.3319 0.0
H222 H 0.49282 0.15201 0.53519 0.0
H223 H 0.50004 0.11261 0.60737 0.0
C224 C 0.46052 0.19831 0.37485 0.0
C225 C 0.46942 0.20146 0.30042 0.0
C226 C 0.46663 0.17613 0.4162 0.0
C227 C 0.48175 0.15645 0.38403 0.0
C228 C 0.49069 0.1597 0.30941 0.0
C229 C 0.48443 0.18185 0.26793 0.0
C230 C 0.49208 0.0854 0.43308 0.0
C231 C 0.49639 0.08653 0.51147 0.0
C232 C 0.48763 0.10802 0.39174 0.0
C233 C 0.48751 0.13242 0.42758 0.0
C234 C 0.4923 0.13357 0.50578 0.0
C235 C 0.4966 0.11094 0.5472 0.0
H236 H 0.3301 0.50848 0.23464 0.0
H237 H 0.2935 0.46935 0.42228 0.0
H238 H 0.37041 0.51169 0.30606 0.0
H239 H 0.33391 0.47165 0.49304 0.0
H240 H 0.40338 0.50187 0.62721 0.0
H241 H 0.3628 0.50055 0.55748 0.0
H242 H 0.4047 0.4856 0.35096 0.0
H243 H 0.44525 0.4877 0.42018 0.0
C244 C 0.3307 0.50069 0.29139 0.0
C245 C 0.30857 0.4891 0.32344 0.0
C246 C 0.35384 0.50226 0.33213 0.0
C247 C 0.35551 0.49194 0.40557 0.0
C248 C 0.3333 0.48024 0.43731 0.0
C249 C 0.31014 0.4788 0.39668 0.0
C250 C 0.40395 0.49827 0.56693 0.0
C251 C 0.42765 0.49492 0.52944 0.0
C252 C 0.38062 0.4974 0.5269 0.0
C253 C 0.38037 0.49301 0.44837 0.0
C254 C 0.40409 0.48948 0.41107 0.0
C255 C 0.4274 0.4905 0.45098 0.0
H256 H 0.07658 0.34288 0.20992 0.0
H257 H 0.02559 0.29478 0.34436 0.0
H258 H 0.06684 0.38017 0.29 0.0
H259 H 0.01588 0.33204 0.42512 0.0
H260 H 0.98714 0.4115 0.50899 0.0
H261 H 0.99454 0.37499 0.42379 0.0
H262 H 0.07616 0.39351 0.42081 0.0
H263 H 0.06884 0.43004 0.50515 0.0
C264 C 0.06305 0.3404 0.25615 0.0
C265 C 0.05151 0.31609 0.27032 0.0
C266 C 0.05762 0.36167 0.30237 0.0
C267 C 0.04061 0.35907 0.364 0.0
C268 C 0.0288 0.33477 0.37753 0.0
C269 C 0.03435 0.31345 0.33146 0.0
C270 C 0.00666 0.40781 0.4901 0.0
C271 C 0.02739 0.42375 0.51402 0.0
C272 C 0.0109 0.38681 0.44155 0.0
C273 C 0.03592 0.3814 0.41534 0.0
C274 C 0.0566 0.39736 0.43912 0.0
C275 C 0.05241 0.41822 0.48797 0.0
H276 H 0.8277 0.04689 0.10637 0.0
H277 H 0.80837 0.96805 0.04407 0.0
H278 H 0.86537 0.04586 0.0236 0.0
H279 H 0.8455 0.96718 0.95876 0.0
H280 H 0.92933 0.96562 0.87526 0.0
H281 H 0.89147 0.96613 0.95722 0.0
H282 H 0.87764 0.04572 0.89436 0.0
H283 H 0.91592 0.04547 0.81457 0.0
C284 C 0.83131 0.02948 0.07389 0.0
C285 C 0.81476 0.00779 0.08022 0.0
C286 C 0.85285 0.02888 0.02615 0.0
C287 C 0.85843 0.00652 0.98369 0.0
C288 C 0.84197 0.98469 0.99087 0.0
C289 C 0.82051 0.98525 0.03908 0.0
C290 C 0.91819 0.98322 0.87882 0.0
C291 C 0.92578 0.00553 0.83846 0.0
C292 C 0.89635 0.98347 0.92557 0.0
C293 C 0.88144 0.00599 0.93276 0.0
C294 C 0.88887 0.02817 0.89148 0.0
C295 C 0.91079 0.02797 0.84522 0.0
H296 H 0.55849 0.80542 0.04751 0.0
H297 H 0.48158 0.82419 0.12193 0.0
H298 H 0.55717 0.84072 0.95537 0.0
H299 H 0.48044 0.85993 0.03225 0.0
H300 H 0.47539 0.90674 0.81839 0.0
H301 H 0.47759 0.86936 0.90136 0.0
H302 H 0.55791 0.88714 0.94699 0.0
H303 H 0.55591 0.92421 0.86172 0.0
C304 C 0.54123 0.81699 0.04358 0.0
C305 C 0.51989 0.81169 0.0905 0.0
C306 C 0.54055 0.83739 0.99146 0.0
C307 C 0.51863 0.85316 0.98586 0.0
C308 C 0.49742 0.84789 0.03356 0.0
C309 C 0.49807 0.82746 0.08525 0.0
C310 C 0.49358 0.90268 0.84585 0.0
C311 C 0.51545 0.91861 0.83355 0.0
C312 C 0.4948 0.88126 0.8939 0.0
C313 C 0.51786 0.87526 0.93159 0.0
C314 C 0.53989 0.89095 0.91836 0.0
C315 C 0.53871 0.91233 0.86974 0.0
H316 H 0.71591 0.55494 0.03524 0.0
H317 H 0.69371 0.47999 0.12378 0.0
H318 H 0.68051 0.5523 0.94403 0.0
H319 H 0.65783 0.47762 0.03501 0.0
H320 H 0.60939 0.46922 0.82462 0.0
H321 H 0.64724 0.47209 0.90562 0.0
H322 H 0.63451 0.55412 0.93677 0.0
H323 H 0.59708 0.55139 0.85353 0.0
C324 C 0.70359 0.53779 0.03458 0.0
C325 C 0.70798 0.51736 0.08522 0.0
C326 C 0.68311 0.53638 0.98296 0.0
C327 C 0.66629 0.51466 0.98163 0.0
C328 C 0.67066 0.49437 0.03296 0.0
C329 C 0.69118 0.49574 0.08413 0.0
C330 C 0.61469 0.48792 0.84845 0.0
C331 C 0.60007 0.51006 0.83266 0.0
C332 C 0.63637 0.48954 0.89538 0.0
C333 C 0.64394 0.51331 0.9284 0.0
C334 C 0.62952 0.53554 0.9117 0.0
C335 C 0.60792 0.53395 0.86424 0.0
H336 H 0.03565 0.71274 0.01397 0.0
H337 H 0.97655 0.67874 0.15583 0.0
H338 H 0.03228 0.67566 0.92773 0.0
H339 H 0.9727 0.64183 0.06927 0.0
H340 H 0.99909 0.56642 0.95494 0.0
H341 H 0.99866 0.60483 0.03461 0.0
H342 H 1.00421 0.6535 0.83674 0.0
H343 H 1.00512 0.61489 0.75652 0.0
C344 C 0.02188 0.69731 0.0263 0.0
C345 C 0.00678 0.69821 0.09217 0.0
C346 C 0.01976 0.6762 0.97675 0.0
C347 C 1.00236 0.65564 0.99188 0.0
C348 C 0.98663 0.65708 0.05666 0.0
C349 C 0.98876 0.6782 0.10611 0.0
C350 C 1.00007 0.58528 0.92811 0.0
C351 C 1.00224 0.58749 0.84914 0.0
C352 C 0.99965 0.60736 0.97395 0.0
C353 C 1.00142 0.63229 0.94217 0.0
C354 C 1.00313 0.63458 0.86311 0.0
C355 C 1.00348 0.61244 0.81709 0.0
H356 H 0.9831 0.20684 0.31047 0.0
H357 H 0.05848 0.17205 0.31005 0.0
H358 H 0.96572 0.16949 0.38171 0.0
H359 H 0.04125 0.13496 0.37992 0.0
H360 H 0.99923 0.05993 0.3937 0.0
H361 H 0.00736 0.10062 0.32795 0.0
H362 H 0.97323 0.14294 0.51245 0.0
H363 H 0.96497 0.10219 0.57913 0.0
C364 C 0.99605 0.19164 0.32786 0.0
C365 C 0.02204 0.19211 0.3048 0.0
C366 C 0.98609 0.17025 0.36771 0.0
C367 C 1.00204 0.14915 0.38403 0.0
C368 C 0.02844 0.15073 0.36617 0.0
C369 C 0.03836 0.17202 0.32712 0.0
C370 C 0.9927 0.07775 0.41953 0.0
C371 C 0.98202 0.0778 0.49252 0.0
C372 C 0.99754 0.10106 0.38204 0.0
C373 C 0.99156 0.12482 0.41639 0.0
C374 C 0.97821 0.12483 0.48531 0.0
C375 C 0.97347 0.10145 0.52322 0.0
H376 H 0.33889 0.95663 0.20496 0.0
H377 H 0.31146 0.99905 0.39885 0.0
H378 H 0.37413 0.93927 0.28036 0.0
H379 H 0.34663 0.9817 0.47446 0.0
H380 H 0.41256 0.94897 0.59822 0.0
H381 H 0.37203 0.94482 0.529 0.0
H382 H 0.41142 0.96701 0.32339 0.0
H383 H 0.45191 0.97126 0.39221 0.0
C384 C 0.33989 0.96144 0.26452 0.0
C385 C 0.32281 0.9795 0.29601 0.0
C386 C 0.36008 0.9516 0.30747 0.0
C387 C 0.36341 0.95955 0.38272 0.0
C388 C 0.3445 0.97516 0.41659 0.0
C389 C 0.32431 0.98508 0.37344 0.0
C390 C 0.41277 0.95227 0.53782 0.0
C391 C 0.43542 0.96094 0.50091 0.0
C392 C 0.3895 0.94994 0.49837 0.0
C393 C 0.38851 0.95584 0.42112 0.0
C394 C 0.4116 0.96214 0.38289 0.0
C395 C 0.43481 0.96474 0.42243 0.0
H396 H 0.50436 0.30314 0.404 0.0
H397 H 0.55062 0.32915 0.21525 0.0
H398 H 0.52262 0.33806 0.48175 0.0
H399 H 0.56895 0.36406 0.29269 0.0
H400 H 0.54092 0.44335 0.40066 0.0
H401 H 0.54268 0.40234 0.33271 0.0
H402 H 0.56045 0.36251 0.54025 0.0
H403 H 0.55883 0.40359 0.6086 0.0
C404 C 0.51933 0.31558 0.38036 0.0
C405 C 0.52587 0.31379 0.30367 0.0
C406 C 0.52977 0.33562 0.42467 0.0
C407 C 0.54682 0.35407 0.39263 0.0
C408 C 0.55554 0.35036 0.31836 0.0
C409 C 0.54518 0.33034 0.27428 0.0
C410 C 0.5459 0.426 0.43153 0.0
C411 C 0.54936 0.42673 0.51015 0.0
C412 C 0.54708 0.40248 0.39252 0.0
C413 C 0.55152 0.37919 0.43142 0.0
C414 C 0.55681 0.38015 0.50907 0.0
C415 C 0.55596 0.40373 0.548 0.0
H416 H 0.20993 0.52309 0.42101 0.0
H417 H 0.18437 0.58234 0.2675 0.0
H418 H 0.17444 0.53285 0.50554 0.0
H419 H 0.14885 0.59265 0.353 0.0
H420 H 0.10932 0.54811 0.64949 0.0
H421 H 0.15013 0.55923 0.58788 0.0
H422 H 0.10971 0.56838 0.37606 0.0
H423 H 0.06877 0.55846 0.43938 0.0
C424 C 0.1974 0.53906 0.40712 0.0
C425 C 0.19966 0.5517 0.33736 0.0
C426 C 0.17692 0.5447 0.45557 0.0
C427 C 0.15839 0.56324 0.43537 0.0
C428 C 0.1624 0.57787 0.36939 0.0
C429 C 0.18284 0.57213 0.32079 0.0
C430 C 0.10918 0.55345 0.59029 0.0
C431 C 0.08613 0.55232 0.54872 0.0
C432 C 0.13253 0.55961 0.55488 0.0
C433 C 0.13335 0.56412 0.47668 0.0
C434 C 0.10985 0.5652 0.43649 0.0
C435 C 0.08635 0.55946 0.47247 0.0
H436 H 0.06425 0.83992 0.13683 0.0
H437 H 0.01638 0.81101 0.95503 0.0
H438 H 0.07875 0.87601 0.05745 0.0
H439 H 0.03033 0.84708 0.87623 0.0
H440 H 0.05375 0.91321 0.74126 0.0
H441 H 0.06115 0.87272 0.80874 0.0
H442 H 0.05506 0.91383 0.02113 0.0
H443 H 0.04873 0.95438 0.95276 0.0
C444 C 0.05745 0.8409 0.07905 0.0
C445 C 0.03894 0.82292 0.05224 0.0
C446 C 0.0656 0.86163 0.03382 0.0
C447 C 0.05533 0.86479 0.96103 0.0
C448 C 0.03884 0.84525 0.93178 0.0
C449 C 0.03079 0.82447 0.97692 0.0
C450 C 0.05505 0.9136 0.80236 0.0
C451 C 0.05079 0.93668 0.84225 0.0
C452 C 0.05905 0.89044 0.84101 0.0
C453 C 0.05826 0.88988 0.92035 0.0
C454 C 0.05606 0.91352 0.96004 0.0
C455 C 0.05238 0.93678 0.92114 0.0
H456 H 0.70363 0.01629 0.93237 0.0
H457 H 0.67592 0.06639 0.10941 0.0
H458 H 0.66821 0.02932 0.85193 0.0
H459 H 0.64058 0.0802 0.02813 0.0
H460 H 0.56169 0.04836 0.92884 0.0
H461 H 0.60234 0.05656 0.99502 0.0
H462 H 0.64284 0.05807 0.78109 0.0
H463 H 0.60223 0.04857 0.7161 0.0
C464 C 0.69064 0.03108 0.95266 0.0
C465 C 0.69227 0.04007 0.02729 0.0
C466 C 0.67021 0.03861 0.90655 0.0
C467 C 0.65111 0.05545 0.93409 0.0
C468 C 0.65455 0.06672 0.00583 0.0
C469 C 0.6749 0.05902 0.05211 0.0
C470 C 0.57919 0.0514 0.89622 0.0
C471 C 0.57906 0.0478 0.81786 0.0
C472 C 0.60255 0.05617 0.93388 0.0
C473 C 0.62605 0.05755 0.89345 0.0
C474 C 0.62526 0.05654 0.81412 0.0
C475 C 0.60202 0.05135 0.7768 0.0
H476 H 0.51304 0.70243 0.94342 0.0
H477 H 0.44977 0.68035 0.08965 0.0
H478 H 0.50213 0.66692 0.85885 0.0
H479 H 0.4383 0.6448 0.00398 0.0
H480 H 0.48408 0.60149 0.71489 0.0
H481 H 0.47574 0.64326 0.77405 0.0
H482 H 0.45973 0.60427 0.98547 0.0
H483 H 0.46686 0.56235 0.92436 0.0
C484 C 0.49598 0.69074 0.95548 0.0
C485 C 0.48248 0.69391 0.02347 0.0
C486 C 0.48969 0.67021 0.90704 0.0
C487 C 0.46963 0.65255 0.92544 0.0
C488 C 0.45425 0.65763 0.98912 0.0
C489 C 0.46063 0.67813 0.03772 0.0
C490 C 0.47799 0.60191 0.77349 0.0
C491 C 0.47634 0.57891 0.8156 0.0
C492 C 0.47336 0.62581 0.80749 0.0
C493 C 0.46762 0.62726 0.88493 0.0
C494 C 0.46393 0.60395 0.92555 0.0
C495 C 0.4681 0.5799 0.89089 0.0
H496 H 0.84035 0.45203 0.13156 0.0
H497 H 0.81801 0.50258 0.94941 0.0
H498 H 0.87563 0.43545 0.05432 0.0
H499 H 0.85291 0.48565 0.87182 0.0
H500 H 0.91758 0.4519 0.74299 0.0
H501 H 0.87637 0.44795 0.8092 0.0
H502 H 0.91499 0.46337 0.02093 0.0
H503 H 0.95616 0.46758 0.95505 0.0
C504 C 0.84245 0.45894 0.07408 0.0
C505 C 0.82683 0.47903 0.04701 0.0
C506 C 0.86262 0.44945 0.03002 0.0
C507 C 0.86727 0.45961 0.95774 0.0
C508 C 0.84973 0.4774 0.92734 0.0
C509 C 0.82967 0.48708 0.97172 0.0
C510 C 0.91746 0.45366 0.80398 0.0
C511 C 0.94013 0.46047 0.84372 0.0
C512 C 0.8938 0.45148 0.84169 0.0
C513 C 0.89245 0.45558 0.91994 0.0
C514 C 0.91546 0.45993 0.96056 0.0
C515 C 0.93906 0.46248 0.92278 0.0
H516 H 0.01599 0.21017 0.99447 0.0
H517 H 0.08983 0.1874 0.08236 0.0
H518 H 0.01737 0.17514 0.90283 0.0
H519 H 0.09225 0.15291 0.98782 0.0
H520 H 0.06335 0.07098 0.91339 0.0
H521 H 0.07221 0.11216 0.97753 0.0
H522 H 0.03252 0.15284 0.7993 0.0
H523 H 0.02234 0.11161 0.73881 0.0
C524 C 0.03323 0.19851 0.99101 0.0
C525 C 0.05289 0.20153 0.04466 0.0
C526 C 0.03406 0.17823 0.93867 0.0
C527 C 0.05475 0.16068 0.9385 0.0
C528 C 0.07569 0.16552 0.98745 0.0
C529 C 0.07463 0.18561 0.04056 0.0
C530 C 0.0568 0.08882 0.88796 0.0
C531 C 0.04173 0.08814 0.82225 0.0
C532 C 0.06204 0.11252 0.92417 0.0
C533 C 0.05281 0.13603 0.89426 0.0
C534 C 0.03931 0.13523 0.82542 0.0
C535 C 0.03354 0.11158 0.7905 0.0
H536 H 0.30005 0.02345 0.9876 0.0
H537 H 0.35211 0.05578 0.15397 0.0
H538 H 0.33298 0.03002 0.88991 0.0
H539 H 0.38525 0.06166 0.05764 0.0
H540 H 0.44313 0.06808 0.86775 0.0
H541 H 0.40408 0.07815 0.94027 0.0
H542 H 0.37107 1.0037 0.87805 0.0
H543 H 0.40931 0.9939 0.80588 0.0
C544 C 0.31814 0.03295 0.00256 0.0
C545 C 0.32373 0.03882 0.07817 0.0
C546 C 0.33714 0.03642 0.94699 0.0
C547 C 0.36202 0.04569 0.96641 0.0
C548 C 0.36639 0.05446 0.04053 0.0
C549 C 0.34741 0.05105 0.09586 0.0
C550 C 0.42739 0.05403 0.86917 0.0
C551 C 0.42955 0.03006 0.83177 0.0
C552 C 0.40502 0.05981 0.91052 0.0
C553 C 0.3843 0.04183 0.9145 0.0
C554 C 0.38629 0.01828 0.87505 0.0
C555 C 0.40854 0.01248 0.83445 0.0
H556 H 0.4841 0.29494 0.99056 0.0
H557 H 0.45202 0.34564 0.15937 0.0
H558 H 0.4801 0.32925 0.89615 0.0
H559 H 0.44873 0.38017 0.06631 0.0
H560 H 0.44653 0.44009 0.87877 0.0
H561 H 0.43448 0.40069 0.94897 0.0
H562 H 0.50804 0.36721 0.89155 0.0
H563 H 0.51981 0.40575 0.82191 0.0
C564 C 0.4752 0.31304 0.00664 0.0
C565 C 0.46869 0.31782 0.08222 0.0
C566 C 0.47322 0.33284 0.95298 0.0
C567 C 0.46481 0.35772 0.97425 0.0
C568 C 0.45534 0.36134 0.04786 0.0
C569 C 0.45725 0.34156 0.10129 0.0
C570 C 0.46 0.42422 0.88097 0.0
C571 C 0.48423 0.42628 0.84525 0.0
C572 C 0.45308 0.40163 0.92092 0.0
C573 C 0.47015 0.38061 0.92513 0.0
C574 C 0.4941 0.38264 0.88811 0.0
C575 C 0.50103 0.40507 0.84894 0.0
H576 H 0.20521 0.4688 0.10204 0.0
H577 H 0.18803 0.54913 0.05889 0.0
H578 H 0.16956 0.45544 0.01783 0.0
H579 H 0.15237 0.53582 0.97681 0.0
H580 H 0.0698 0.50169 0.96601 0.0
H581 H 0.10984 0.5068 0.03713 0.0
H582 H 0.15146 0.46673 0.86212 0.0
H583 H 0.11137 0.46181 0.78938 0.0
C584 C 0.19446 0.48352 0.07244 0.0
C585 C 0.19921 0.50998 0.08716 0.0
C586 C 0.17399 0.47589 0.02501 0.0
C587 C 0.15807 0.49467 0.99246 0.0
C588 C 0.16423 0.52103 0.00226 0.0
C589 C 0.18469 0.52861 0.0487 0.0
C590 C 0.08727 0.49336 0.94318 0.0
C591 C 0.08737 0.48159 0.87149 0.0
C592 C 0.1102 0.49643 0.98382 0.0
C593 C 0.13363 0.48743 0.95435 0.0
C594 C 0.13357 0.47385 0.88568 0.0
C595 C 0.11062 0.47107 0.8443 0.0
H596 H 0.0099 0.80483 0.36611 0.0
H597 H 0.95765 0.83799 0.20464 0.0
H598 H 0.99991 0.83953 0.4558 0.0
H599 H 0.94742 0.87262 0.29396 0.0
H600 H 0.98282 0.94814 0.40444 0.0
H601 H 0.97765 0.90861 0.33021 0.0
H602 H 0.9677 0.86411 0.53486 0.0
H603 H 0.97285 0.90374 0.60957 0.0
C604 C 0.99533 0.81886 0.35148 0.0
C605 C 0.98434 0.81877 0.27918 0.0
C606 C 0.98967 0.83879 0.40249 0.0
C607 C 0.97315 0.859 0.38137 0.0
C608 C 0.96045 0.85749 0.31138 0.0
C609 C 0.96604 0.83755 0.26068 0.0
C610 C 0.97905 0.93003 0.43366 0.0
C611 C 0.97844 0.92912 0.51293 0.0
C612 C 0.9759 0.90737 0.39109 0.0
C613 C 0.9723 0.88322 0.42678 0.0
C614 C 0.97057 0.88242 0.5059 0.0
C615 C 0.97341 0.90516 0.54854 0.0
H616 H 0.67002 0.96062 0.17214 0.0
H617 H 0.70746 0.00688 0.34414 0.0
H618 H 0.63522 0.94947 0.26019 0.0
H619 H 0.6725 0.9961 0.43257 0.0
H620 H 0.60835 0.96639 0.58372 0.0
H621 H 0.64695 0.9632 0.50515 0.0
H622 H 0.60109 0.97831 0.3068 0.0
H623 H 0.56251 0.98137 0.3849 0.0
C624 C 0.67121 0.96757 0.22987 0.0
C625 C 0.69136 0.98442 0.25193 0.0
C626 C 0.65118 0.96147 0.27992 0.0
C627 C 0.65089 0.97224 0.35289 0.0
C628 C 0.67224 0.98735 0.37688 0.0
C629 C 0.69232 0.99347 0.32657 0.0
C630 C 0.60638 0.96857 0.52316 0.0
C631 C 0.5823 0.97433 0.49066 0.0
C632 C 0.62856 0.96685 0.47829 0.0
C633 C 0.62712 0.97057 0.39988 0.0
C634 C 0.60284 0.97503 0.36699 0.0
C635 C 0.5807 0.97695 0.41184 0.0
H636 H 0.56382 0.69278 0.26065 0.0
H637 H 0.48235 0.6805 0.30188 0.0
H638 H 0.5736 0.65581 0.34315 0.0
H639 H 0.49207 0.64354 0.38237 0.0
H640 H 0.51679 0.55907 0.39657 0.0
H641 H 0.51465 0.59956 0.32633 0.0
H642 H 0.56323 0.63742 0.49201 0.0
H643 H 0.56523 0.59687 0.56382 0.0
C644 C 0.54813 0.68279 0.28943 0.0
C645 C 0.52233 0.6893 0.27461 0.0
C646 C 0.5537 0.66157 0.33591 0.0
C647 C 0.53351 0.64663 0.36733 0.0
C648 C 0.50791 0.65455 0.35755 0.0
C649 C 0.50238 0.67576 0.31206 0.0
C650 C 0.52753 0.57577 0.41747 0.0
C651 C 0.54093 0.57475 0.48637 0.0
C652 C 0.52614 0.59899 0.37743 0.0
C653 C 0.53843 0.62157 0.40471 0.0
C654 C 0.55352 0.62022 0.47025 0.0
C655 C 0.55464 0.59701 0.51109 0.0
H656 H 0.83709 0.56662 0.24539 0.0
H657 H 0.82108 0.49089 0.33809 0.0
H658 H 0.87072 0.57389 0.34119 0.0
H659 H 0.85472 0.49744 0.43172 0.0
H660 H 0.9109 0.51277 0.60863 0.0
H661 H 0.87096 0.51846 0.53886 0.0
H662 H 0.91354 0.55773 0.36144 0.0
H663 H 0.95347 0.55324 0.43448 0.0
C664 C 0.84017 0.55198 0.28816 0.0
C665 C 0.82635 0.52838 0.28556 0.0
C666 C 0.85967 0.55591 0.34214 0.0
C667 C 0.86567 0.53622 0.39412 0.0
C668 C 0.85052 0.5133 0.39387 0.0
C669 C 0.83113 0.50946 0.34025 0.0
C670 C 0.91159 0.52306 0.55531 0.0
C671 C 0.93523 0.53225 0.52623 0.0
C672 C 0.88873 0.52622 0.51507 0.0
C673 C 0.88899 0.53801 0.44353 0.0
C674 C 0.9125 0.54867 0.4165 0.0
C675 C 0.93543 0.546 0.45794 0.0
loop_
_geom_bond_atom_site_label_1
_geom_bond_atom_site_label_2
_geom_bond_distance
_geom_bond_site_symmetry_2
_ccdc_geom_bond_type
H0 C7 0.929 . S
H1 C10 0.930 . S
H2 C12 0.929 . S
H3 C4 0.969 . S
C4 H3 0.969 . S
C4 O5 1.550 1_556 S
C4 H6 0.973 . S
O5 C4 1.550 1_554 S
O5 C11 1.412 . S
H6 C4 0.973 . S
C7 H0 0.929 . S
C7 C8 1.400 . S
C7 C9 1.364 1_554 S
C8 C7 1.400 . S
C8 C12 1.377 . S
C9 C7 1.364 1_556 S
C9 C10 1.374 . S
C10 H1 0.930 . S
C10 C9 1.374 . S
C10 C11 1.383 1_556 S
C11 O5 1.412 . S
C11 C10 1.383 1_554 S
C11 C12 1.394 . S
C12 H2 0.929 . S
C12 C8 1.377 . S
C12 C11 1.394 . S
H13 C20 0.929 . S
H14 C23 0.931 . S
H15 C25 0.928 . S
H16 C17 0.969 . S
C17 H16 0.969 . S
C17 O18 1.550 1_455 S
C17 H19 0.973 1_454 S
O18 C17 1.550 1_655 S
O18 C24 1.410 1_655 S
H19 C17 0.973 1_656 S
C20 H13 0.929 . S
C20 C21 1.400 . S
C20 C22 1.365 . S
C21 C20 1.400 . S
C21 C25 1.377 1_455 S
C22 C20 1.365 . S
C22 C23 1.374 1_455 S
C23 H14 0.931 . S
C23 C22 1.374 1_655 S
C23 C24 1.383 1_655 S
C24 O18 1.410 1_455 S
C24 C23 1.383 1_455 S
C24 C25 1.394 1_455 S
C25 H15 0.928 . S
C25 C21 1.377 1_655 S
C25 C24 1.394 1_655 S
H26 C33 0.929 . S
H27 C36 0.931 1_556 S
H28 C38 0.928 1_565 S
H29 C30 0.969 . S
C30 H29 0.969 . S
C30 O31 1.550 1_545 S
C30 H32 0.973 1_544 S
O31 C30 1.550 1_565 S
O31 C37 1.406 1_565 S
H32 C30 0.973 1_566 S
C33 H26 0.929 . S
C33 C34 1.400 . S
C33 C35 1.364 . S
C34 C33 1.400 . S
C34 C38 1.376 . S
C35 C33 1.364 . S
C35 C36 1.374 1_545 S
C36 H27 0.931 1_554 S
C36 C35 1.374 1_565 S
C36 C37 1.383 1_565 S
C37 O31 1.406 1_545 S
C37 C36 1.383 1_545 S
C37 C38 1.394 . S
C38 H28 0.928 1_545 S
C38 C34 1.376 . S
C38 C37 1.394 . S
H39 C46 0.929 . S
H40 C49 0.930 . S
H41 C51 0.929 . S
H42 C43 0.969 . S
C43 H42 0.969 . S
C43 O44 1.550 1_556 S
C43 H45 0.973 . S
O44 C43 1.550 1_554 S
O44 C50 1.412 . S
H45 C43 0.973 . S
C46 H39 0.929 . S
C46 C47 1.400 . S
C46 C48 1.364 1_554 S
C47 C46 1.400 . S
C47 C51 1.377 . S
C48 C46 1.364 1_556 S
C48 C49 1.374 . S
C49 H40 0.930 . S
C49 C48 1.374 . S
C49 C50 1.383 1_556 S
C50 O44 1.412 . S
C50 C49 1.383 1_554 S
C50 C51 1.394 . S
C51 H41 0.929 . S
C51 C47 1.377 . S
C51 C50 1.394 . S
H52 C59 0.929 . S
H53 C62 0.930 . S
H54 C64 0.929 . S
H55 C56 0.969 . S
C56 H55 0.969 . S
C56 O57 1.550 . S
C56 H58 0.973 . S
O57 C56 1.550 . S
O57 C63 1.412 . S
H58 C56 0.973 . S
C59 H52 0.929 . S
C59 C60 1.400 . S
C59 C61 1.364 . S
C60 C59 1.400 . S
C60 C64 1.377 . S
C61 C59 1.364 . S
C61 C62 1.374 . S
C62 H53 0.930 . S
C62 C61 1.374 . S
C62 C63 1.383 . S
C63 O57 1.412 . S
C63 C62 1.383 . S
C63 C64 1.394 . S
C64 H54 0.929 . S
C64 C60 1.377 . S
C64 C63 1.394 . S
H65 C72 0.929 . S
H66 C75 0.930 . S
H67 C77 0.929 . S
H68 C69 0.969 . S
C69 H68 0.969 . S
C69 O70 1.550 . S
C69 H71 0.973 . S
O70 C69 1.550 . S
O70 C76 1.412 . S
H71 C69 0.973 . S
C72 H65 0.929 . S
C72 C73 1.400 . S
C72 C74 1.364 . S
C73 C72 1.400 . S
C73 C77 1.377 . S
C74 C72 1.364 . S
C74 C75 1.374 . S
C75 H66 0.930 . S
C75 C74 1.374 . S
C75 C76 1.383 . S
C76 O70 1.412 . S
C76 C75 1.383 . S
C76 C77 1.394 . S
C77 H67 0.929 . S
C77 C73 1.377 . S
C77 C76 1.394 . S
H78 C85 0.929 . S
H79 C88 0.930 . S
H80 C90 0.929 . S
H81 C82 0.969 . S
C82 H81 0.969 . S
C82 O83 1.550 . S
C82 H84 0.973 . S
O83 C82 1.550 . S
O83 C89 1.412 . S
H84 C82 0.973 . S
C85 H78 0.929 . S
C85 C86 1.400 . S
C85 C87 1.364 . S
C86 C85 1.400 . S
C86 C90 1.377 . S
C87 C85 1.364 . S
C87 C88 1.374 . S
C88 H79 0.930 . S
C88 C87 1.374 . S
C88 C89 1.383 . S
C89 O83 1.412 . S
C89 C88 1.383 . S
C89 C90 1.394 . S
C90 H80 0.929 . S
C90 C86 1.377 . S
C90 C89 1.394 . S
H91 C98 0.929 . S
H92 C101 0.930 . S
H93 C103 0.929 . S
H94 C95 0.969 . S
C95 H94 0.969 . S
C95 O96 1.550 . S
C95 H97 0.973 . S
O96 C95 1.550 . S
O96 C102 1.412 . S
H97 C95 0.973 . S
C98 H91 0.929 . S
C98 C99 1.400 . S
C98 C100 1.364 . S
C99 C98 1.400 . S
C99 C103 1.377 . S
C100 C98 1.364 . S
C100 C101 1.374 . S
C101 H92 0.930 . S
C101 C100 1.374 . S
C101 C102 1.383 . S
C102 O96 1.412 . S
C102 C101 1.383 . S
C102 C103 1.394 . S
C103 H93 0.929 . S
C103 C99 1.377 . S
C103 C102 1.394 . S
O104 Zn105 1.956 . S
O104 C120 1.225 1_545 S
Zn105 O104 1.956 . S
Zn105 O106 1.948 1_545 S
Zn105 O112 1.947 . S
Zn105 O117 1.891 1_545 S
O106 Zn105 1.948 1_565 S
O106 Zn107 1.901 1_465 S
O106 Zn108 1.952 . S
O106 Zn109 1.965 1_455 S
Zn107 O106 1.901 1_645 S
Zn107 O110 1.933 . S
Zn107 O113 1.941 1_655 S
Zn107 O114 1.965 . S
Zn108 O106 1.952 . S
Zn108 O115 1.938 1_565 S
Zn108 O116 1.906 . S
Zn108 O126 1.953 . S
Zn109 O106 1.965 1_655 S
Zn109 O111 1.932 . S
Zn109 O118 1.977 . S
Zn109 O119 1.910 1_655 S
O110 Zn107 1.933 . S
O110 C121 1.226 . S
O111 Zn109 1.932 . S
O111 C121 1.307 1_565 S
O112 Zn105 1.947 . S
O112 C123 1.253 . S
O113 Zn107 1.941 1_455 S
O113 C123 1.283 . S
O114 Zn107 1.965 . S
O114 C122 1.303 1_655 S
O115 Zn108 1.938 1_545 S
O115 C122 1.247 . S
O116 Zn108 1.906 . S
O116 C124 1.304 1_455 S
O117 Zn105 1.891 1_565 S
O117 C125 1.311 . S
O118 Zn109 1.977 . S
O118 C124 1.272 . S
O119 Zn109 1.910 1_455 S
O119 C125 1.231 . S
C120 O104 1.225 1_565 S
C120 O126 1.298 . S
C121 O110 1.226 . S
C121 O111 1.307 1_545 S
C122 O114 1.303 1_455 S
C122 O115 1.247 . S
C123 O112 1.253 . S
C123 O113 1.283 . S
C124 O116 1.304 1_655 S
C124 O118 1.272 . S
C125 O117 1.311 . S
C125 O119 1.231 . S
O126 Zn108 1.953 . S
O126 C120 1.298 . S
O127 Zn128 1.953 . S
O127 C143 1.225 . S
Zn128 O127 1.953 . S
Zn128 O129 1.949 . S
Zn128 O135 1.919 . S
Zn128 O140 1.924 . S
O129 Zn128 1.949 . S
O129 Zn130 1.923 1_545 S
O129 Zn131 1.950 . S
O129 Zn132 1.945 1_545 S
Zn130 O129 1.923 1_565 S
Zn130 O133 1.933 . S
Zn130 O136 1.941 . S
Zn130 O137 1.965 . S
Zn131 O129 1.950 . S
Zn131 O138 1.938 . S
Zn131 O139 1.906 . S
Zn131 O149 1.953 . S
Zn132 O129 1.945 1_565 S
Zn132 O134 1.932 . S
Zn132 O141 1.977 . S
Zn132 O142 1.910 1_565 S
O133 Zn130 1.933 . S
O133 C144 1.226 . S
O134 Zn132 1.932 . S
O134 C144 1.307 . S
O135 Zn128 1.919 . S
O135 C146 1.253 . S
O136 Zn130 1.941 . S
O136 C146 1.283 1_565 S
O137 Zn130 1.965 . S
O137 C145 1.303 1_565 S
O138 Zn131 1.938 . S
O138 C145 1.247 . S
O139 Zn131 1.906 . S
O139 C147 1.304 1_545 S
O140 Zn128 1.924 . S
O140 C148 1.311 . S
O141 Zn132 1.977 . S
O141 C147 1.272 . S
O142 Zn132 1.910 1_545 S
O142 C148 1.231 . S
C143 O127 1.225 . S
C143 O149 1.298 . S
C144 O133 1.226 . S
C144 O134 1.307 . S
C145 O137 1.303 1_545 S
C145 O138 1.247 . S
C146 O135 1.253 . S
C146 O136 1.283 1_545 S
C147 O139 1.304 1_565 S
C147 O141 1.272 . S
C148 O140 1.311 . S
C148 O142 1.231 . S
O149 Zn131 1.953 . S
O149 C143 1.298 . S
O150 Zn151 1.953 . S
O150 C166 1.225 . S
Zn151 O150 1.953 . S
Zn151 O152 1.949 . S
Zn151 O158 1.919 . S
Zn151 O163 1.924 . S
O152 Zn151 1.949 . S
O152 Zn153 1.923 . S
O152 Zn154 1.950 . S
O152 Zn155 1.945 . S
Zn153 O152 1.923 . S
Zn153 O156 1.933 . S
Zn153 O159 1.941 . S
Zn153 O160 1.965 . S
Zn154 O152 1.950 . S
Zn154 O161 1.938 . S
Zn154 O162 1.906 . S
Zn154 O172 1.953 . S
Zn155 O152 1.945 . S
Zn155 O157 1.932 . S
Zn155 O164 1.977 . S
Zn155 O165 1.910 . S
O156 Zn153 1.933 . S
O156 C167 1.226 . S
O157 Zn155 1.932 . S
O157 C167 1.307 . S
O158 Zn151 1.919 . S
O158 C169 1.253 . S
O159 Zn153 1.941 . S
O159 C169 1.283 . S
O160 Zn153 1.965 . S
O160 C168 1.303 . S
O161 Zn154 1.938 . S
O161 C168 1.247 . S
O162 Zn154 1.906 . S
O162 C170 1.304 . S
O163 Zn151 1.924 . S
O163 C171 1.311 . S
O164 Zn155 1.977 . S
O164 C170 1.272 . S
O165 Zn155 1.910 . S
O165 C171 1.231 . S
C166 O150 1.225 . S
C166 O172 1.298 . S
C167 O156 1.226 . S
C167 O157 1.307 . S
C168 O160 1.303 . S
C168 O161 1.247 . S
C169 O158 1.253 . S
C169 O159 1.283 . S
C170 O162 1.304 . S
C170 O164 1.272 . S
C171 O163 1.311 . S
C171 O165 1.231 . S
O172 Zn154 1.953 . S
O172 C166 1.298 . S
O173 Zn174 1.921 1_655 S
O173 C189 1.225 . S
Zn174 O173 1.921 1_455 S
Zn174 O175 1.949 . S
Zn174 O181 1.919 . S
Zn174 O186 1.959 . S
O175 Zn174 1.949 . S
O175 Zn176 1.918 1_455 S
O175 Zn177 1.929 1_455 S
O175 Zn178 1.973 . S
Zn176 O175 1.918 1_655 S
Zn176 O179 1.933 1_655 S
Zn176 O182 1.941 . S
Zn176 O183 1.965 . S
Zn177 O175 1.929 1_655 S
Zn177 O184 1.938 . S
Zn177 O185 1.906 . S
Zn177 O195 1.953 . S
Zn178 O175 1.973 . S
Zn178 O180 1.932 . S
Zn178 O187 1.977 . S
Zn178 O188 1.910 . S
O179 Zn176 1.933 1_455 S
O179 C190 1.226 . S
O180 Zn178 1.932 . S
O180 C190 1.307 . S
O181 Zn174 1.919 . S
O181 C192 1.253 . S
O182 Zn176 1.941 . S
O182 C192 1.284 1_655 S
O183 Zn176 1.965 . S
O183 C191 1.303 . S
O184 Zn177 1.938 . S
O184 C191 1.247 . S
O185 Zn177 1.906 . S
O185 C193 1.304 1_655 S
O186 Zn174 1.959 . S
O186 C194 1.311 . S
O187 Zn178 1.977 . S
O187 C193 1.272 . S
O188 Zn178 1.910 . S
O188 C194 1.231 . S
C189 O173 1.225 . S
C189 O195 1.298 . S
C190 O179 1.226 . S
C190 O180 1.307 . S
C191 O183 1.303 . S
C191 O184 1.247 . S
C192 O181 1.253 . S
C192 O182 1.284 1_455 S
C193 O185 1.304 1_455 S
C193 O187 1.272 . S
C194 O186 1.311 . S
C194 O188 1.231 . S
O195 Zn177 1.953 . S
O195 C189 1.298 . S
H196 C204 0.950 . S
H197 C209 0.950 . S
H198 C206 0.950 . S
H199 C208 0.950 . S
H200 C210 0.950 . S
H201 C212 0.950 . S
H202 C214 0.950 . S
H203 C215 0.950 . S
C204 H196 0.950 . S
C204 C205 1.386 1_565 S
C204 C206 1.391 . S
C205 C204 1.386 1_545 S
C205 C209 1.393 . S
C206 H198 0.950 . S
C206 C204 1.391 . S
C206 C207 1.400 1_565 S
C207 C206 1.400 1_545 S
C207 C208 1.398 . S
C207 C213 1.491 . S
C208 H199 0.950 . S
C208 C207 1.398 . S
C208 C209 1.391 . S
C209 H197 0.950 . S
C209 C205 1.393 . S
C209 C208 1.391 . S
C210 H200 0.950 . S
C210 C211 1.351 1_545 S
C210 C212 1.391 . S
C211 C210 1.351 1_565 S
C211 C215 1.426 . S
C212 H201 0.950 . S
C212 C210 1.391 . S
C212 C213 1.400 . S
C213 C207 1.491 . S
C213 C212 1.400 . S
C213 C214 1.398 1_545 S
C214 H202 0.950 . S
C214 C213 1.398 1_565 S
C214 C215 1.391 . S
C215 H203 0.950 . S
C215 C211 1.426 . S
C215 C214 1.391 . S
H216 C224 0.950 . S
H217 C229 0.950 . S
H218 C226 0.950 . S
H219 C228 0.950 . S
H220 C230 0.950 . S
H221 C232 0.950 . S
H222 C234 0.950 . S
H223 C235 0.950 . S
C224 H216 0.950 . S
C224 C225 1.386 . S
C224 C226 1.391 . S
C225 C224 1.386 . S
C225 C229 1.393 . S
C226 H218 0.950 . S
C226 C224 1.391 . S
C226 C227 1.400 . S
C227 C226 1.400 . S
C227 C228 1.398 . S
C227 C233 1.491 . S
C228 H219 0.950 . S
C228 C227 1.398 . S
C228 C229 1.391 . S
C229 H217 0.950 . S
C229 C225 1.393 . S
C229 C228 1.391 . S
C230 H220 0.950 . S
C230 C231 1.386 . S
C230 C232 1.391 . S
C231 C230 1.386 . S
C231 C235 1.393 . S
C232 H221 0.950 . S
C232 C230 1.391 . S
C232 C233 1.400 . S
C233 C227 1.491 . S
C233 C232 1.400 . S
C233 C234 1.398 . S
C234 H222 0.950 . S
C234 C233 1.398 . S
C234 C235 1.391 . S
C235 H223 0.950 . S
C235 C231 1.393 . S
C235 C234 1.391 . S
H236 C244 0.950 . S
H237 C249 0.950 . S
H238 C246 0.950 . S
H239 C248 0.950 . S
H240 C250 0.950 . S
H241 C252 0.950 . S
H242 C254 0.950 . S
H243 C255 0.950 . S
C244 H236 0.950 . S
C244 C245 1.386 . S
C244 C246 1.391 . S
C245 C244 1.386 . S
C245 C249 1.393 . S
C246 H238 0.950 . S
C246 C244 1.391 . S
C246 C247 1.400 . S
C247 C246 1.400 . S
C247 C248 1.398 . S
C247 C253 1.491 . S
C248 H239 0.950 . S
C248 C247 1.398 . S
C248 C249 1.391 . S
C249 H237 0.950 . S
C249 C245 1.393 . S
C249 C248 1.391 . S
C250 H240 0.950 . S
C250 C251 1.386 . S
C250 C252 1.391 . S
C251 C250 1.386 . S
C251 C255 1.393 . S
C252 H241 0.950 . S
C252 C250 1.391 . S
C252 C253 1.400 . S
C253 C247 1.491 . S
C253 C252 1.400 . S
C253 C254 1.398 . S
C254 H242 0.950 . S
C254 C253 1.398 . S
C254 C255 1.391 . S
C255 H243 0.950 . S
C255 C251 1.393 . S
C255 C254 1.391 . S
H256 C264 0.950 . S
H257 C269 0.964 . S
H258 C266 0.950 . S
H259 C268 0.950 1_655 S
H260 C270 0.950 . S
H261 C272 0.974 . S
H262 C274 0.950 . S
H263 C275 0.950 . S
C264 H256 0.950 . S
C264 C265 1.386 . S
C264 C266 1.391 . S
C265 C264 1.386 . S
C265 C269 1.393 . S
C266 H258 0.950 . S
C266 C264 1.391 . S
C266 C267 1.400 . S
C267 C266 1.400 . S
C267 C268 1.398 . S
C267 C273 1.491 . S
C268 H259 0.950 1_455 S
C268 C267 1.398 . S
C268 C269 1.391 . S
C269 H257 0.964 . S
C269 C265 1.393 . S
C269 C268 1.391 . S
C270 H260 0.950 . S
C270 C271 1.386 1_655 S
C270 C272 1.398 . S
C271 C270 1.386 1_455 S
C271 C275 1.393 . S
C272 H261 0.974 . S
C272 C270 1.398 . S
C272 C273 1.370 1_655 S
C273 C267 1.491 . S
C273 C272 1.370 1_455 S
C273 C274 1.398 . S
C274 H262 0.950 . S
C274 C273 1.398 . S
C274 C275 1.391 . S
C275 H263 0.950 . S
C275 C271 1.393 . S
C275 C274 1.391 . S
H276 C284 0.950 . S
H277 C289 0.950 . S
H278 C286 0.950 . S
H279 C288 0.950 . S
H280 C290 0.950 . S
H281 C292 0.950 . S
H282 C294 0.950 . S
H283 C295 0.950 . S
C284 H276 0.950 . S
C284 C285 1.386 . S
C284 C286 1.391 . S
C285 C284 1.386 . S
C285 C289 1.392 1_546 S
C286 H278 0.950 . S
C286 C284 1.391 . S
C286 C287 1.426 . S
C287 C286 1.426 . S
C287 C288 1.374 1_545 S
C287 C293 1.491 . S
C288 H279 0.950 . S
C288 C287 1.374 1_565 S
C288 C289 1.391 1_556 S
C289 H277 0.950 . S
C289 C285 1.392 1_564 S
C289 C288 1.391 1_554 S
C290 H280 0.950 . S
C290 C291 1.386 1_565 S
C290 C292 1.391 . S
C291 C290 1.386 1_545 S
C291 C295 1.393 . S
C292 H281 0.950 . S
C292 C290 1.391 . S
C292 C293 1.377 1_565 S
C293 C287 1.491 . S
C293 C292 1.377 1_545 S
C293 C294 1.422 . S
C294 H282 0.950 . S
C294 C293 1.422 . S
C294 C295 1.391 . S
C295 H283 0.950 . S
C295 C291 1.393 . S
C295 C294 1.391 . S
H296 C304 0.950 1_554 S
H297 C309 0.950 . S
H298 C306 0.950 . S
H299 C308 0.950 . S
H300 C310 0.950 . S
H301 C312 0.950 . S
H302 C314 0.950 . S
H303 C315 0.950 . S
C304 H296 0.950 1_556 S
C304 C305 1.386 . S
C304 C306 1.391 . S
C305 C304 1.386 . S
C305 C309 1.393 . S
C306 H298 0.950 . S
C306 C304 1.391 . S
C306 C307 1.400 . S
C307 C306 1.400 . S
C307 C308 1.398 . S
C307 C313 1.491 . S
C308 H299 0.950 . S
C308 C307 1.398 . S
C308 C309 1.391 . S
C309 H297 0.950 . S
C309 C305 1.393 . S
C309 C308 1.391 . S
C310 H300 0.950 . S
C310 C311 1.386 . S
C310 C312 1.391 . S
C311 C310 1.386 . S
C311 C315 1.393 . S
C312 H301 0.950 . S
C312 C310 1.391 . S
C312 C313 1.400 . S
C313 C307 1.491 . S
C313 C312 1.400 . S
C313 C314 1.398 . S
C314 H302 0.950 . S
C314 C313 1.398 . S
C314 C315 1.391 . S
C315 H303 0.950 . S
C315 C311 1.393 . S
C315 C314 1.391 . S
H316 C324 0.950 1_554 S
H317 C329 0.950 . S
H318 C326 0.950 . S
H319 C328 0.950 . S
H320 C330 0.950 . S
H321 C332 0.950 . S
H322 C334 0.950 . S
H323 C335 0.950 . S
C324 H316 0.950 1_556 S
C324 C325 1.386 . S
C324 C326 1.391 . S
C325 C324 1.386 . S
C325 C329 1.393 . S
C326 H318 0.950 . S
C326 C324 1.391 . S
C326 C327 1.400 . S
C327 C326 1.400 . S
C327 C328 1.398 . S
C327 C333 1.491 . S
C328 H319 0.950 . S
C328 C327 1.398 . S
C328 C329 1.391 . S
C329 H317 0.950 . S
C329 C325 1.393 . S
C329 C328 1.391 . S
C330 H320 0.950 . S
C330 C331 1.386 . S
C330 C332 1.391 . S
C331 C330 1.386 . S
C331 C335 1.393 . S
C332 H321 0.950 . S
C332 C330 1.391 . S
C332 C333 1.400 . S
C333 C327 1.491 . S
C333 C332 1.400 . S
C333 C334 1.398 . S
C334 H322 0.950 . S
C334 C333 1.398 . S
C334 C335 1.391 . S
C335 H323 0.950 . S
C335 C331 1.393 . S
C335 C334 1.391 . S
H336 C344 0.950 . S
H337 C349 0.950 . S
H338 C346 0.950 . S
H339 C348 0.950 . S
H340 C350 0.950 . S
H341 C352 0.950 . S
H342 C354 0.950 . S
H343 C355 0.950 . S
C344 H336 0.950 . S
C344 C345 1.378 1_456 S
C344 C346 1.391 . S
C345 C344 1.378 1_654 S
C345 C349 1.399 . S
C346 H338 0.950 . S
C346 C344 1.391 . S
C346 C347 1.400 . S
C347 C346 1.400 . S
C347 C348 1.398 1_456 S
C347 C353 1.491 . S
C348 H339 0.950 . S
C348 C347 1.398 1_654 S
C348 C349 1.391 . S
C349 H337 0.950 . S
C349 C345 1.399 . S
C349 C348 1.391 . S
C350 H340 0.950 . S
C350 C351 1.386 1_655 S
C350 C352 1.391 . S
C351 C350 1.386 1_455 S
C351 C355 1.393 . S
C352 H341 0.950 . S
C352 C350 1.391 . S
C352 C353 1.400 1_655 S
C353 C347 1.491 . S
C353 C352 1.400 1_455 S
C353 C354 1.398 . S
C354 H342 0.950 . S
C354 C353 1.398 . S
C354 C355 1.391 . S
C355 H343 0.950 . S
C355 C351 1.393 . S
C355 C354 1.391 . S
H356 C364 0.950 . S
H357 C369 0.950 . S
H358 C366 0.950 . S
H359 C368 0.950 . S
H360 C370 0.950 . S
H361 C372 0.950 . S
H362 C374 0.950 1_655 S
H363 C375 0.950 1_655 S
C364 H356 0.950 . S
C364 C365 1.386 . S
C364 C366 1.391 . S
C365 C364 1.386 . S
C365 C369 1.393 . S
C366 H358 0.950 . S
C366 C364 1.391 . S
C366 C367 1.400 . S
C367 C366 1.400 . S
C367 C368 1.398 . S
C367 C373 1.491 . S
C368 H359 0.950 . S
C368 C367 1.398 . S
C368 C369 1.391 . S
C369 H357 0.950 . S
C369 C365 1.393 . S
C369 C368 1.391 . S
C370 H360 0.950 . S
C370 C371 1.386 . S
C370 C372 1.391 . S
C371 C370 1.386 . S
C371 C375 1.393 . S
C372 H361 0.950 . S
C372 C370 1.391 . S
C372 C373 1.400 . S
C373 C367 1.491 . S
C373 C372 1.400 . S
C373 C374 1.398 . S
C374 H362 0.950 1_455 S
C374 C373 1.398 . S
C374 C375 1.391 . S
C375 H363 0.950 1_455 S
C375 C371 1.393 . S
C375 C374 1.391 . S
H376 C384 0.950 . S
H377 C389 0.950 . S
H378 C386 0.950 . S
H379 C388 0.950 . S
H380 C390 0.950 . S
H381 C392 0.950 . S
H382 C394 0.950 . S
H383 C395 0.950 . S
C384 H376 0.950 . S
C384 C385 1.386 1_565 S
C384 C386 1.391 . S
C385 C384 1.386 1_545 S
C385 C389 1.393 . S
C386 H378 0.950 . S
C386 C384 1.391 . S
C386 C387 1.400 1_565 S
C387 C386 1.400 1_545 S
C387 C388 1.398 . S
C387 C393 1.491 . S
C388 H379 0.950 . S
C388 C387 1.398 . S
C388 C389 1.391 . S
C389 H377 0.950 . S
C389 C385 1.393 . S
C389 C388 1.391 . S
C390 H380 0.950 . S
C390 C391 1.386 . S
C390 C392 1.391 . S
C391 C390 1.386 . S
C391 C395 1.393 1_545 S
C392 H381 0.950 . S
C392 C390 1.391 . S
C392 C393 1.400 . S
C393 C387 1.491 . S
C393 C392 1.400 . S
C393 C394 1.398 1_545 S
C394 H382 0.950 . S
C394 C393 1.398 1_565 S
C394 C395 1.391 . S
C395 H383 0.950 . S
C395 C391 1.393 1_565 S
C395 C394 1.391 . S
H396 C404 0.950 . S
H397 C409 0.950 . S
H398 C406 0.950 . S
H399 C408 0.950 . S
H400 C410 0.950 . S
H401 C412 0.950 . S
H402 C414 0.950 . S
H403 C415 0.950 . S
C404 H396 0.950 . S
C404 C405 1.386 . S
C404 C406 1.391 . S
C405 C404 1.386 . S
C405 C409 1.393 . S
C406 H398 0.950 . S
C406 C404 1.391 . S
C406 C407 1.400 . S
C407 C406 1.400 . S
C407 C408 1.398 . S
C407 C413 1.491 . S
C408 H399 0.950 . S
C408 C407 1.398 . S
C408 C409 1.391 . S
C409 H397 0.950 . S
C409 C405 1.393 . S
C409 C408 1.391 . S
C410 H400 0.950 . S
C410 C411 1.386 . S
C410 C412 1.391 . S
C411 C410 1.386 . S
C411 C415 1.393 . S
C412 H401 0.950 . S
C412 C410 1.391 . S
C412 C413 1.400 . S
C413 C407 1.491 . S
C413 C412 1.400 . S
C413 C414 1.398 . S
C414 H402 0.950 . S
C414 C413 1.398 . S
C414 C415 1.391 . S
C415 H403 0.950 . S
C415 C411 1.393 . S
C415 C414 1.391 . S
H416 C424 0.950 . S
H417 C429 0.950 . S
H418 C426 0.950 . S
H419 C428 0.950 . S
H420 C430 0.950 . S
H421 C432 0.950 . S
H422 C434 0.950 . S
H423 C435 0.950 . S
C424 H416 0.950 . S
C424 C425 1.386 . S
C424 C426 1.391 . S
C425 C424 1.386 . S
C425 C429 1.393 . S
C426 H418 0.950 . S
C426 C424 1.391 . S
C426 C427 1.400 . S
C427 C426 1.400 . S
C427 C428 1.398 . S
C427 C433 1.491 . S
C428 H419 0.950 . S
C428 C427 1.398 . S
C428 C429 1.391 . S
C429 H417 0.950 . S
C429 C425 1.393 . S
C429 C428 1.391 . S
C430 H420 0.950 . S
C430 C431 1.386 . S
C430 C432 1.391 . S
C431 C430 1.386 . S
C431 C435 1.393 . S
C432 H421 0.950 . S
C432 C430 1.391 . S
C432 C433 1.400 . S
C433 C427 1.491 . S
C433 C432 1.400 . S
C433 C434 1.398 . S
C434 H422 0.950 . S
C434 C433 1.398 . S
C434 C435 1.391 . S
C435 H423 0.950 . S
C435 C431 1.393 . S
C435 C434 1.391 . S
H436 C444 0.950 . S
H437 C449 0.950 . S
H438 C446 0.950 . S
H439 C448 0.946 1_655 S
H440 C450 0.950 . S
H441 C452 0.950 . S
H442 C454 0.950 1_554 S
H443 C455 0.950 . S
C444 H436 0.950 . S
C444 C445 1.386 . S
C444 C446 1.391 . S
C445 C444 1.386 . S
C445 C449 1.393 1_454 S
C446 H438 0.950 . S
C446 C444 1.391 . S
C446 C447 1.400 1_554 S
C447 C446 1.400 1_556 S
C447 C448 1.407 . S
C447 C453 1.491 . S
C448 H439 0.946 1_455 S
C448 C447 1.407 . S
C448 C449 1.387 1_455 S
C449 H437 0.950 . S
C449 C445 1.393 1_656 S
C449 C448 1.387 1_655 S
C450 H440 0.950 . S
C450 C451 1.386 . S
C450 C452 1.391 . S
C451 C450 1.386 . S
C451 C455 1.393 . S
C452 H441 0.950 . S
C452 C450 1.391 . S
C452 C453 1.400 . S
C453 C447 1.491 . S
C453 C452 1.400 . S
C453 C454 1.398 . S
C454 H442 0.950 1_556 S
C454 C453 1.398 . S
C454 C455 1.391 . S
C455 H443 0.950 . S
C455 C451 1.393 . S
C455 C454 1.391 . S
H456 C464 0.950 . S
H457 C469 0.950 . S
H458 C466 0.950 . S
H459 C468 0.950 . S
H460 C470 0.950 . S
H461 C472 0.950 . S
H462 C474 0.950 1_565 S
H463 C475 0.973 . S
C464 H456 0.950 . S
C464 C465 1.396 . S
C464 C466 1.391 . S
C465 C464 1.396 . S
C465 C469 1.378 1_566 S
C466 H458 0.950 . S
C466 C464 1.391 . S
C466 C467 1.400 1_565 S
C467 C466 1.400 1_545 S
C467 C468 1.398 . S
C467 C473 1.491 . S
C468 H459 0.950 . S
C468 C467 1.398 . S
C468 C469 1.391 1_556 S
C469 H457 0.950 . S
C469 C465 1.378 1_544 S
C469 C468 1.391 1_554 S
C470 H460 0.950 . S
C470 C471 1.386 . S
C470 C472 1.391 . S
C471 C470 1.386 . S
C471 C475 1.393 . S
C472 H461 0.950 . S
C472 C470 1.391 . S
C472 C473 1.400 . S
C473 C467 1.491 . S
C473 C472 1.400 . S
C473 C474 1.398 . S
C474 H462 0.950 1_545 S
C474 C473 1.398 . S
C474 C475 1.391 . S
C475 H463 0.973 . S
C475 C471 1.393 . S
C475 C474 1.391 . S
H476 C484 0.950 . S
H477 C489 0.950 . S
H478 C486 0.950 . S
H479 C488 0.950 . S
H480 C490 0.950 . S
H481 C492 0.950 . S
H482 C494 0.950 . S
H483 C495 0.950 . S
C484 H476 0.950 . S
C484 C485 1.386 . S
C484 C486 1.391 . S
C485 C484 1.386 . S
C485 C489 1.393 . S
C486 H478 0.950 . S
C486 C484 1.391 . S
C486 C487 1.400 . S
C487 C486 1.400 . S
C487 C488 1.398 . S
C487 C493 1.491 . S
C488 H479 0.950 . S
C488 C487 1.398 . S
C488 C489 1.391 . S
C489 H477 0.950 . S
C489 C485 1.393 . S
C489 C488 1.391 . S
C490 H480 0.950 . S
C490 C491 1.386 . S
C490 C492 1.391 . S
C491 C490 1.386 . S
C491 C495 1.393 . S
C492 H481 0.950 . S
C492 C490 1.391 . S
C492 C493 1.400 . S
C493 C487 1.491 . S
C493 C492 1.400 . S
C493 C494 1.398 . S
C494 H482 0.950 . S
C494 C493 1.398 . S
C494 C495 1.391 . S
C495 H483 0.950 . S
C495 C491 1.393 . S
C495 C494 1.391 . S
H496 C504 0.950 1_554 S
H497 C509 0.950 . S
H498 C506 0.950 . S
H499 C508 0.950 . S
H500 C510 0.950 . S
H501 C512 0.950 . S
H502 C514 0.950 . S
H503 C515 0.950 . S
C504 H496 0.950 1_556 S
C504 C505 1.386 . S
C504 C506 1.391 . S
C505 C504 1.386 . S
C505 C509 1.393 . S
C506 H498 0.950 . S
C506 C504 1.391 . S
C506 C507 1.400 . S
C507 C506 1.400 . S
C507 C508 1.398 . S
C507 C513 1.491 . S
C508 H499 0.950 . S
C508 C507 1.398 . S
C508 C509 1.391 . S
C509 H497 0.950 . S
C509 C505 1.393 . S
C509 C508 1.391 . S
C510 H500 0.950 . S
C510 C511 1.386 . S
C510 C512 1.391 . S
C511 C510 1.386 . S
C511 C515 1.393 . S
C512 H501 0.950 . S
C512 C510 1.391 . S
C512 C513 1.400 . S
C513 C507 1.491 . S
C513 C512 1.400 . S
C513 C514 1.398 . S
C514 H502 0.950 . S
C514 C513 1.398 . S
C514 C515 1.391 . S
C515 H503 0.950 . S
C515 C511 1.393 . S
C515 C514 1.391 . S
H516 C524 0.950 . S
H517 C529 0.950 . S
H518 C526 0.950 . S
H519 C528 0.950 . S
H520 C530 0.950 . S
H521 C532 0.950 . S
H522 C534 0.950 1_655 S
H523 C535 0.950 1_655 S
C524 H516 0.950 . S
C524 C525 1.386 . S
C524 C526 1.391 . S
C525 C524 1.386 . S
C525 C529 1.393 . S
C526 H518 0.950 . S
C526 C524 1.391 . S
C526 C527 1.400 . S
C527 C526 1.400 . S
C527 C528 1.398 . S
C527 C533 1.491 . S
C528 H519 0.950 . S
C528 C527 1.398 . S
C528 C529 1.391 . S
C529 H517 0.950 . S
C529 C525 1.393 . S
C529 C528 1.391 . S
C530 H520 0.950 . S
C530 C531 1.386 . S
C530 C532 1.391 . S
C531 C530 1.386 . S
C531 C535 1.393 1_556 S
C532 H521 0.950 . S
C532 C530 1.391 . S
C532 C533 1.400 1_556 S
C533 C527 1.491 . S
C533 C532 1.400 1_554 S
C533 C534 1.398 . S
C534 H522 0.950 1_455 S
C534 C533 1.398 . S
C534 C535 1.391 . S
C535 H523 0.950 1_455 S
C535 C531 1.393 1_554 S
C535 C534 1.391 . S
H536 C544 0.950 . S
H537 C549 0.950 . S
H538 C546 0.950 . S
H539 C548 0.950 1_556 S
H540 C550 0.950 . S
H541 C552 0.950 . S
H542 C554 0.950 . S
H543 C555 0.950 . S
C544 H536 0.950 . S
C544 C545 1.386 1_565 S
C544 C546 1.391 . S
C545 C544 1.386 1_545 S
C545 C549 1.393 . S
C546 H538 0.950 . S
C546 C544 1.391 . S
C546 C547 1.400 1_565 S
C547 C546 1.400 1_545 S
C547 C548 1.398 . S
C547 C553 1.491 1_554 S
C548 H539 0.950 1_554 S
C548 C547 1.398 . S
C548 C549 1.391 . S
C549 H537 0.950 . S
C549 C545 1.393 . S
C549 C548 1.391 . S
C550 H540 0.950 . S
C550 C551 1.386 . S
C550 C552 1.391 . S
C551 C550 1.386 . S
C551 C555 1.393 1_545 S
C552 H541 0.950 . S
C552 C550 1.391 . S
C552 C553 1.400 . S
C553 C547 1.491 1_556 S
C553 C552 1.400 . S
C553 C554 1.398 1_546 S
C554 H542 0.950 . S
C554 C553 1.398 1_564 S
C554 C555 1.391 1_554 S
C555 H543 0.950 . S
C555 C551 1.393 1_565 S
C555 C554 1.391 1_556 S
H556 C564 0.950 . S
H557 C569 0.950 . S
H558 C566 0.950 . S
H559 C568 0.939 1_556 S
H560 C570 0.950 . S
H561 C572 0.950 . S
H562 C574 0.950 1_554 S
H563 C575 0.950 . S
C564 H556 0.950 . S
C564 C565 1.386 . S
C564 C566 1.391 . S
C565 C564 1.386 . S
C565 C569 1.393 . S
C566 H558 0.950 . S
C566 C564 1.391 . S
C566 C567 1.400 . S
C567 C566 1.400 . S
C567 C568 1.401 . S
C567 C573 1.491 1_554 S
C568 H559 0.939 1_554 S
C568 C567 1.401 . S
C568 C569 1.399 . S
C569 H557 0.950 . S
C569 C565 1.393 . S
C569 C568 1.399 . S
C570 H560 0.950 . S
C570 C571 1.386 . S
C570 C572 1.391 . S
C571 C570 1.386 . S
C571 C575 1.393 . S
C572 H561 0.950 . S
C572 C570 1.391 . S
C572 C573 1.400 . S
C573 C567 1.491 1_556 S
C573 C572 1.400 . S
C573 C574 1.398 . S
C574 H562 0.950 1_556 S
C574 C573 1.398 . S
C574 C575 1.391 . S
C575 H563 0.950 . S
C575 C571 1.393 . S
C575 C574 1.391 . S
H576 C584 0.950 . S
H577 C589 0.950 . S
H578 C586 0.950 1_556 S
H579 C588 0.950 . S
H580 C590 0.950 . S
H581 C592 0.950 1_554 S
H582 C594 0.950 . S
H583 C595 0.950 . S
C584 H576 0.950 . S
C584 C585 1.386 . S
C584 C586 1.391 . S
C585 C584 1.386 . S
C585 C589 1.393 . S
C586 H578 0.950 1_554 S
C586 C584 1.391 . S
C586 C587 1.400 . S
C587 C586 1.400 . S
C587 C588 1.398 . S
C587 C593 1.491 1_554 S
C588 H579 0.950 . S
C588 C587 1.398 . S
C588 C589 1.391 . S
C589 H577 0.950 . S
C589 C585 1.393 . S
C589 C588 1.391 . S
C590 H580 0.950 . S
C590 C591 1.386 . S
C590 C592 1.391 . S
C591 C590 1.386 . S
C591 C595 1.393 . S
C592 H581 0.950 1_556 S
C592 C590 1.391 . S
C592 C593 1.400 . S
C593 C587 1.491 1_556 S
C593 C592 1.400 . S
C593 C594 1.398 . S
C594 H582 0.950 . S
C594 C593 1.398 . S
C594 C595 1.391 . S
C595 H583 0.950 . S
C595 C591 1.393 . S
C595 C594 1.391 . S
H596 C604 0.950 . S
H597 C609 0.950 . S
H598 C606 0.950 . S
H599 C608 0.950 . S
H600 C610 0.950 . S
H601 C612 0.950 . S
H602 C614 0.950 . S
H603 C615 0.950 . S
C604 H596 0.950 . S
C604 C605 1.370 1_455 S
C604 C606 1.391 . S
C605 C604 1.370 1_655 S
C605 C609 1.411 . S
C606 H598 0.950 . S
C606 C604 1.391 . S
C606 C607 1.400 1_455 S
C607 C606 1.400 1_655 S
C607 C608 1.398 . S
C607 C613 1.491 . S
C608 H599 0.950 . S
C608 C607 1.398 . S
C608 C609 1.391 . S
C609 H597 0.950 . S
C609 C605 1.411 . S
C609 C608 1.391 . S
C610 H600 0.950 . S
C610 C611 1.386 . S
C610 C612 1.391 . S
C611 C610 1.386 . S
C611 C615 1.393 1_655 S
C612 H601 0.950 . S
C612 C610 1.391 . S
C612 C613 1.400 . S
C613 C607 1.491 . S
C613 C612 1.400 . S
C613 C614 1.398 1_655 S
C614 H602 0.950 . S
C614 C613 1.398 1_455 S
C614 C615 1.391 . S
C615 H603 0.950 . S
C615 C611 1.393 1_455 S
C615 C614 1.391 . S
H616 C624 0.950 . S
H617 C629 0.950 . S
H618 C626 0.950 . S
H619 C628 0.950 . S
H620 C630 0.950 . S
H621 C632 0.950 . S
H622 C634 0.950 . S
H623 C635 0.950 . S
C624 H616 0.950 . S
C624 C625 1.386 . S
C624 C626 1.391 . S
C625 C624 1.386 . S
C625 C629 1.393 1_565 S
C626 H618 0.950 . S
C626 C624 1.391 . S
C626 C627 1.400 . S
C627 C626 1.400 . S
C627 C628 1.398 1_565 S
C627 C633 1.491 . S
C628 H619 0.950 . S
C628 C627 1.398 1_545 S
C628 C629 1.391 . S
C629 H617 0.950 . S
C629 C625 1.393 1_545 S
C629 C628 1.391 . S
C630 H620 0.950 . S
C630 C631 1.386 1_545 S
C630 C632 1.391 . S
C631 C630 1.386 1_565 S
C631 C635 1.393 . S
C632 H621 0.950 . S
C632 C630 1.391 . S
C632 C633 1.400 1_545 S
C633 C627 1.491 . S
C633 C632 1.400 1_565 S
C633 C634 1.398 . S
C634 H622 0.950 . S
C634 C633 1.398 . S
C634 C635 1.391 . S
C635 H623 0.950 . S
C635 C631 1.393 . S
C635 C634 1.391 . S
H636 C644 0.950 . S
H637 C649 0.950 . S
H638 C646 0.950 . S
H639 C648 0.950 . S
H640 C650 0.950 . S
H641 C652 0.950 . S
H642 C654 0.950 . S
H643 C655 0.950 . S
C644 H636 0.950 . S
C644 C645 1.386 . S
C644 C646 1.391 . S
C645 C644 1.386 . S
C645 C649 1.393 . S
C646 H638 0.950 . S
C646 C644 1.391 . S
C646 C647 1.400 . S
C647 C646 1.400 . S
C647 C648 1.398 . S
C647 C653 1.491 . S
C648 H639 0.950 . S
C648 C647 1.398 . S
C648 C649 1.391 . S
C649 H637 0.950 . S
C649 C645 1.393 . S
C649 C648 1.391 . S
C650 H640 0.950 . S
C650 C651 1.386 . S
C650 C652 1.391 . S
C651 C650 1.386 . S
C651 C655 1.393 . S
C652 H641 0.950 . S
C652 C650 1.391 . S
C652 C653 1.400 . S
C653 C647 1.491 . S
C653 C652 1.400 . S
C653 C654 1.398 . S
C654 H642 0.950 . S
C654 C653 1.398 . S
C654 C655 1.391 . S
C655 H643 0.950 . S
C655 C651 1.393 . S
C655 C654 1.391 . S
H656 C664 0.950 . S
H657 C669 0.950 . S
H658 C666 0.950 . S
H659 C668 0.950 . S
H660 C670 0.950 . S
H661 C672 0.950 . S
H662 C674 0.950 . S
H663 C675 0.950 . S
C664 H656 0.950 . S
C664 C665 1.386 . S
C664 C666 1.391 . S
C665 C664 1.386 . S
C665 C669 1.393 . S
C666 H658 0.950 . S
C666 C664 1.391 . S
C666 C667 1.400 . S
C667 C666 1.400 . S
C667 C668 1.398 . S
C667 C673 1.491 . S
C668 H659 0.950 . S
C668 C667 1.398 . S
C668 C669 1.391 . S
C669 H657 0.950 . S
C669 C665 1.393 . S
C669 C668 1.391 . S
C670 H660 0.950 . S
C670 C671 1.386 . S
C670 C672 1.391 . S
C671 C670 1.386 . S
C671 C675 1.393 . S
C672 H661 0.950 . S
C672 C670 1.391 . S
C672 C673 1.400 . S
C673 C667 1.491 . S
C673 C672 1.400 . S
C673 C674 1.398 . S
C674 H662 0.950 . S
C674 C673 1.398 . S
C674 C675 1.391 . S
C675 H663 0.950 . S
C675 C671 1.393 . S
C675 C674 1.391 . S
C205 C82 1.457 . S
C211 C120 1.575 . S
C231 C143 1.625 . S
C225 C95 1.520 . S
C251 C166 1.627 . S
C245 C56 1.505 . S
C271 C193 1.521 . S
C265 C69 1.510 . S
C291 C121 1.564 . S
C285 C30 1.461 1_556 S
C305 C43 1.375 . S
C311 C144 1.497 . S
C325 C4 1.385 . S
C331 C167 1.489 . S
C345 C17 1.467 1_655 S
C351 C192 1.574 . S
C371 C122 0.402 . S
C365 C74 0.441 . S
C391 C145 0.379 . S
C385 C87 0.435 . S
C411 C168 0.441 . S
C405 C100 0.501 . S
C425 C61 0.601 . S
C431 C194 0.637 . S
C445 C22 0.686 . S
C451 C125 0.665 . S
C471 C148 0.703 . S
C465 C35 0.646 1_566 S
C491 C171 0.657 . S
C485 C48 0.598 . S
C505 C9 0.461 . S
C511 C191 0.388 . S
C525 C73 1.581 . S
C531 C123 1.557 . S
C545 C86 1.532 . S
C551 C146 1.526 . S
C571 C169 1.543 . S
C565 C99 1.550 . S
C591 C190 1.376 . S
C585 C60 1.329 . S
C605 C21 1.586 1_655 S
C611 C124 1.539 . S
C631 C147 1.495 . S
C625 C34 1.565 1_565 S
C651 C170 1.494 . S
C645 C47 1.546 . S
C665 C8 1.693 . S
C671 C189 1.729 . S
