# Generated by pormake.
# Topology zzz, (3,6)-cn, num edge types: 1
# Building blocks:
#     Node 0, Type 0, BuildingBlock: PAMTOO_clean_linker_0, # of connection points: 3
#     Node 1, Type 0, BuildingBlock: PAMTOO_clean_linker_0, # of connection points: 3
#     Node 2, Type 0, BuildingBlock: PAMTOO_clean_linker_0, # of connection points: 3
#     Node 3, Type 0, BuildingBlock: PAMTOO_clean_linker_0, # of connection points: 3
#     Node 4, Type 0, BuildingBlock: PAMTOO_clean_linker_0, # of connection points: 3
#     Node 5, Type 0, BuildingBlock: PAMTOO_clean_linker_0, # of connection points: 3
#     Node 6, Type 0, BuildingBlock: PAMTOO_clean_linker_0, # of connection points: 3
#     Node 7, Type 0, BuildingBlock: PAMTOO_clean_linker_0, # of connection points: 3
#     Node 8, Type 1, BuildingBlock: PAMTOO_clean_sbu_0, # of connection points: 6
#     Node 9, Type 1, BuildingBlock: PAMTOO_clean_sbu_0, # of connection points: 6
#     Node 10, Type 1, BuildingBlock: PAMTOO_clean_sbu_0, # of connection points: 6
#     Node 11, Type 1, BuildingBlock: PAMTOO_clean_sbu_0, # of connection points: 6
#     Edge 12, Type (0, 1), BuildingBlock: OJICUG_clean_linker_0, # of connection points: 2
#     Edge 13, Type (0, 1), BuildingBlock: OJICUG_clean_linker_0, # of connection points: 2
#     Edge 14, Type (0, 1), BuildingBlock: OJICUG_clean_linker_0, # of connection points: 2
#     Edge 15, Type (0, 1), BuildingBlock: OJICUG_clean_linker_0, # of connection points: 2
#     Edge 16, Type (0, 1), BuildingBlock: OJICUG_clean_linker_0, # of connection points: 2
#     Edge 17, Type (0, 1), BuildingBlock: OJICUG_clean_linker_0, # of connection points: 2
#     Edge 18, Type (0, 1), BuildingBlock: OJICUG_clean_linker_0, # of connection points: 2
#     Edge 19, Type (0, 1), BuildingBlock: OJICUG_clean_linker_0, # of connection points: 2
#     Edge 20, Type (0, 1), BuildingBlock: OJICUG_clean_linker_0, # of connection points: 2
#     Edge 21, Type (0, 1), BuildingBlock: OJICUG_clean_linker_0, # of connection points: 2
#     Edge 22, Type (0, 1), BuildingBlock: OJICUG_clean_linker_0, # of connection points: 2
#     Edge 23, Type (0, 1), BuildingBlock: OJICUG_clean_linker_0, # of connection points: 2
#     Edge 24, Type (0, 1), BuildingBlock: OJICUG_clean_linker_0, # of connection points: 2
#     Edge 25, Type (0, 1), BuildingBlock: OJICUG_clean_linker_0, # of connection points: 2
#     Edge 26, Type (0, 1), BuildingBlock: OJICUG_clean_linker_0, # of connection points: 2
#     Edge 27, Type (0, 1), BuildingBlock: OJICUG_clean_linker_0, # of connection points: 2
#     Edge 28, Type (0, 1), BuildingBlock: OJICUG_clean_linker_0, # of connection points: 2
#     Edge 29, Type (0, 1), BuildingBlock: OJICUG_clean_linker_0, # of connection points: 2
#     Edge 30, Type (0, 1), BuildingBlock: OJICUG_clean_linker_0, # of connection points: 2
#     Edge 31, Type (0, 1), BuildingBlock: OJICUG_clean_linker_0, # of connection points: 2
#     Edge 32, Type (0, 1), BuildingBlock: OJICUG_clean_linker_0, # of connection points: 2
#     Edge 33, Type (0, 1), BuildingBlock: OJICUG_clean_linker_0, # of connection points: 2
#     Edge 34, Type (0, 1), BuildingBlock: OJICUG_clean_linker_0, # of connection points: 2
#     Edge 35, Type (0, 1), BuildingBlock: OJICUG_clean_linker_0, # of connection points: 2
# Relax obj value: 0.284
# Max RMSD: 0.250
# Mean RMSD: 0.131
data_MOF--net-zzz--node1-PAMTOO_clean_sbu_0--node2-PAMTOO_clean_linker_0--edge1-OJICUG_clean_linker_0
_symmetry_space_group_name_H-M    P1
_symmetry_Int_Tables_number       1
_symmetry_cell_setting            triclinic
loop_
_symmetry_equiv_pos_as_xyz
'x, y, z'
_cell_length_a     42.431731
_cell_length_b     34.931931
_cell_length_c     11.564375
_cell_angle_alpha  92.657659
_cell_angle_beta   75.793282
_cell_angle_gamma 85.565207
loop_
_atom_site_label
_atom_site_type_symbol
_atom_site_fract_x
_atom_site_fract_y
_atom_site_fract_z
_atom_type_partial_charge
H0 H 0.87277 0.45534 0.67183 0.0
H1 H 0.78737 0.47978 0.53888 0.0
H2 H 0.82099 0.56755 0.73836 0.0
H3 H 0.73677 0.58076 0.70761 0.0
C4 C 0.74544 0.55262 0.65662 0.0
O5 O 0.77888 0.55148 0.60945 0.0
H6 H 0.73934 0.52999 0.72127 0.0
C7 C 0.8516 0.474 0.66736 0.0
C8 C 0.84848 0.51166 0.71956 0.0
C9 C 0.83028 0.46172 0.59978 0.0
C10 C 0.80443 0.48792 0.58941 0.0
C11 C 0.80108 0.52589 0.63802 0.0
C12 C 0.82309 0.53789 0.70349 0.0
H13 H 0.07781 0.80573 0.54692 0.0
H14 H 0.05079 0.71403 0.34136 0.0
H15 H 0.98526 0.76032 0.67227 0.0
H16 H 0.97103 0.66625 0.58814 0.0
C17 C 0.99481 0.66949 0.52448 0.0
O18 O 0.99485 0.70716 0.49113 0.0
H19 H 1.01387 0.66272 0.57323 0.0
C20 C 0.06148 0.78389 0.53914 0.0
C21 C 1.03142 0.7856 0.62376 0.0
C22 C 0.06871 0.75859 0.43626 0.0
C23 C 0.04614 0.73256 0.42243 0.0
C24 C 1.0167 0.73179 0.50966 0.0
C25 C 1.00892 0.75908 0.60917 0.0
H26 H 0.68731 0.08025 0.49018 0.0
H27 H 0.78354 0.07596 0.25564 0.0
H28 H 0.76122 0.99314 0.5226 0.0
H29 H 0.8363 0.02097 0.46486 0.0
C30 C 0.83425 0.03256 0.3788 0.0
O31 O 0.80803 1.01754 0.34644 0.0
H32 H 0.82977 0.06442 0.39496 0.0
C33 C 0.71258 0.06815 0.46417 0.0
C34 C 0.72136 0.03575 0.5195 0.0
C35 C 0.73454 0.08291 0.36917 0.0
C36 C 0.76655 0.06545 0.3309 0.0
C37 C 0.77675 0.03382 0.38761 0.0
C38 C 0.75389 0.01845 0.48155 0.0
H39 H 0.50666 0.66373 0.41569 0.0
H40 H 0.49622 0.76498 0.22602 0.0
H41 H 0.53746 0.76999 0.53233 0.0
H42 H 0.56058 0.80356 0.2202 0.0
C43 C 0.54767 0.82498 0.29426 0.0
O44 O 0.52013 0.81055 0.36328 0.0
H45 H 0.56476 0.82987 0.35139 0.0
C46 C 0.50924 0.69419 0.40574 0.0
C47 C 0.52328 0.71426 0.48419 0.0
C48 C 0.49893 0.71203 0.31415 0.0
C49 C 0.50357 0.75103 0.2982 0.0
C50 C 0.51748 0.77225 0.37647 0.0
C51 C 0.52724 0.75376 0.47056 0.0
H52 H 0.18304 0.59209 0.13764 0.0
H53 H 0.27364 0.57612 0.24408 0.0
H54 H 0.24471 0.48684 0.03509 0.0
H55 H 0.2961 0.45326 0.20391 0.0
C56 C 0.28913 0.48339 0.24175 0.0
O57 O 0.28915 0.50691 0.14828 0.0
H58 H 0.2641 0.48386 0.30172 0.0
C59 C 0.20602 0.5757 0.13436 0.0
C60 C 0.21204 0.53918 0.07348 0.0
C61 C 0.22748 0.5894 0.19932 0.0
C62 C 0.25633 0.56637 0.19686 0.0
C63 C 0.26238 0.5294 0.13969 0.0
C64 C 0.24018 0.51564 0.07805 0.0
H65 H 0.09628 0.19244 0.11088 0.0
H66 H 0.10215 0.2915 0.33796 0.0
H67 H 1.01791 0.28172 0.19858 0.0
H68 H 0.08304 0.35925 0.2346 0.0
C69 C 0.05701 0.3622 0.28628 0.0
O70 O 0.04724 0.3269 0.32384 0.0
H71 H 0.04216 0.3729 0.22584 0.0
C72 C 0.08731 0.22123 0.15014 0.0
C73 C 0.05604 0.2348 0.14386 0.0
C74 C 0.10326 0.23962 0.22709 0.0
C75 C 0.09037 0.27657 0.2783 0.0
C76 C 0.06042 0.29285 0.2633 0.0
C77 C 0.04252 0.2712 0.1996 0.0
H78 H 0.36761 0.95485 0.29741 0.0
H79 H 0.27028 0.94345 0.50692 0.0
H80 H 0.28851 0.03474 0.26655 0.0
H81 H 0.22533 0.05646 0.4843 0.0
C82 C 0.22825 0.02752 0.5183 0.0
O83 O 0.24256 1.00138 0.42191 0.0
H84 H 0.24466 0.02953 0.57983 0.0
C85 C 0.34162 0.96375 0.32032 0.0
C86 C 0.33091 0.99629 0.27026 0.0
C87 C 0.32028 0.94445 0.40567 0.0
C88 C 0.28698 0.95765 0.43957 0.0
C89 C 0.27516 0.98984 0.38882 0.0
C90 C 0.29731 1.00946 0.30412 0.0
H91 H 0.54943 0.38365 0.39255 0.0
H92 H 0.55756 0.28219 0.58366 0.0
H93 H 0.5182 0.27812 0.2727 0.0
H94 H 0.49108 0.21551 0.43902 0.0
C95 C 0.50542 0.22286 0.50417 0.0
O96 O 0.53402 0.23715 0.44322 0.0
H97 H 0.49001 0.24535 0.56975 0.0
C98 C 0.5464 0.35327 0.40239 0.0
C99 C 0.53257 0.33352 0.3227 0.0
C100 C 0.55605 0.3352 0.49485 0.0
C101 C 0.55076 0.29633 0.51075 0.0
C102 C 0.53715 0.2754 0.43078 0.0
C103 C 0.52821 0.29411 0.33562 0.0
Dy104 Dy 1.01987 0.02283 0.80224 0.0
Dy105 Dy 0.04238 0.99948 0.03518 0.0
C106 C 0.09513 1.00768 0.79372 0.0
O107 O 1.00461 0.96347 0.82598 0.0
O108 O 0.04468 0.94511 0.91745 0.0
O109 O 1.02522 1.01137 0.61246 0.0
O110 O 1.00066 0.06531 0.70072 0.0
O111 O 0.98791 1.00211 0.09792 0.0
O112 O 0.97091 0.02651 0.93848 0.0
O113 O 1.02311 0.0614 0.07892 0.0
O114 O 0.03578 0.07528 0.8843 0.0
O115 O 0.03966 0.96533 0.1872 0.0
O116 O 0.07769 1.00384 0.14083 0.0
C117 C 1.02277 0.93616 0.85952 0.0
O118 O 0.07245 0.99829 0.7418 0.0
O119 O 0.08693 1.0176 0.90824 0.0
C120 C 0.04419 0.06789 0.53268 0.0
C121 C 0.09449 0.11245 0.42491 0.0
C122 C 0.09395 0.09786 0.53559 0.0
C123 C 0.06913 0.07582 0.58844 0.0
C124 C 0.04563 0.08041 0.41838 0.0
C125 C 0.07076 0.10262 0.36454 0.0
C126 C 1.01714 0.04742 0.59963 0.0
C127 C 0.96452 1.01484 0.04862 0.0
C128 C 1.02788 0.08686 0.99799 0.0
C129 C 0.09172 0.94265 0.19847 0.0
C130 C 0.12258 0.86861 0.19733 0.0
C131 C 0.12045 0.88403 0.08918 0.0
C132 C 0.10506 0.92087 0.08981 0.0
C133 C 0.09738 0.92942 0.30431 0.0
C134 C 0.11298 0.89271 0.30372 0.0
C135 C 0.0674 0.97514 0.20314 0.0
H136 H 0.11168 0.10532 0.58425 0.0
H137 H 0.06877 0.06634 0.67585 0.0
H138 H 1.02685 0.07434 0.37319 0.0
H139 H 0.07042 0.11426 0.27958 0.0
H140 H 0.12768 0.86624 1.00609 0.0
H141 H 0.10104 0.93096 1.00692 0.0
H142 H 0.08731 0.94599 0.38872 0.0
H143 H 0.11393 0.88174 0.389 0.0
Dy144 Dy 0.52014 0.99397 0.78961 0.0
Dy145 Dy 0.52921 0.05306 1.0023 0.0
C146 C 0.51814 0.0841 0.76239 0.0
O147 O 0.5748 0.98912 0.76205 0.0
O148 O 0.57889 0.04365 0.87413 0.0
O149 O 0.5073 0.9842 0.62225 0.0
O150 O 0.52103 0.93569 0.71458 0.0
O151 O 0.54307 0.99422 0.0569 0.0
O152 O 0.51354 0.96048 0.95365 0.0
O153 O 0.47703 0.04046 0.06772 0.0
O154 O 0.46874 1.0164 0.89006 0.0
O155 O 0.53291 0.07033 0.18032 0.0
O156 O 0.53754 0.11158 0.0448 0.0
C157 C 0.59246 1.01483 0.79591 0.0
O158 O 0.53073 0.05053 0.70815 0.0
O159 O 0.50677 0.08695 0.87875 0.0
C160 C 0.47675 0.93085 0.62746 0.0
C161 C 0.41693 0.90367 0.61042 0.0
C162 C 0.41768 0.9391 0.67259 0.0
C163 C 0.44711 0.95238 0.6809 0.0
C164 C 0.47644 0.89452 0.5711 0.0
C165 C 0.44673 0.88093 0.56281 0.0
C166 C 0.50754 0.94707 0.63081 0.0
C167 C 0.52928 0.9628 0.038 0.0
C168 C 0.45741 0.0291 1.00322 0.0
C169 C 0.57425 0.11248 0.16358 0.0
C170 C 0.63757 0.1288 0.17302 0.0
C171 C 0.63164 0.09201 0.13292 0.0
C172 C 0.60043 0.08403 0.12795 0.0
C173 C 0.57987 0.1496 0.20052 0.0
C174 C 0.61133 0.15768 0.20606 0.0
C175 C 0.54216 0.10394 0.1487 0.0
H176 H 0.39576 0.95823 0.70823 0.0
H177 H 0.44672 0.9805 0.72471 0.0
H178 H 0.49913 0.87721 0.5308 0.0
H179 H 0.44725 0.85334 0.51535 0.0
H180 H 0.65085 0.06863 0.10976 0.0
H181 H 0.59675 0.0554 0.09649 0.0
H182 H 0.56002 0.17223 0.225 0.0
H183 H 0.61505 0.18627 0.23746 0.0
Dy184 Dy 0.56178 0.53474 0.9566 0.0
Dy185 Dy 0.49713 0.51238 0.84639 0.0
C186 C 0.52235 0.46084 0.04268 0.0
O187 O 0.57683 0.47778 0.85369 0.0
O188 O 0.54519 0.49011 0.72471 0.0
O189 O 0.61325 0.54097 0.94577 0.0
O190 O 0.57575 0.56155 0.1055 0.0
O191 O 0.50922 0.56873 0.77243 0.0
O192 O 0.56001 0.57523 0.8095 0.0
O193 O 0.48148 0.5689 0.9511 0.0
O194 O 0.51412 0.55825 0.07876 0.0
O195 O 0.44605 0.5061 0.85389 0.0
O196 O 0.48401 0.48426 0.69705 0.0
C197 C 0.56732 0.4681 0.75787 0.0
O198 O 0.54907 0.47871 0.03211 0.0
O199 O 0.49827 0.47252 0.99492 0.0
C200 C 0.62947 0.54712 0.13201 0.0
C201 C 0.6706 0.54243 0.29314 0.0
C202 C 0.63841 0.53167 0.32627 0.0
C203 C 0.61809 0.53406 0.24693 0.0
C204 C 0.66196 0.55629 0.09703 0.0
C205 C 0.68226 0.55395 0.17625 0.0
C206 C 0.60697 0.55679 0.05472 0.0
C207 C 0.53575 0.58692 0.76244 0.0
C208 C 0.49118 0.57912 0.04616 0.0
C209 C 0.43068 0.49815 0.66594 0.0
C210 C 0.38518 0.50387 0.52103 0.0
C211 C 0.41582 0.48263 0.47899 0.0
C212 C 0.43813 0.47978 0.55034 0.0
C213 C 0.40051 0.52035 0.70717 0.0
C214 C 0.37814 0.52331 0.63547 0.0
C215 C 0.45269 0.48942 0.74592 0.0
H216 H 0.62834 0.52296 0.4155 0.0
H217 H 0.5931 0.52705 0.27735 0.0
H218 H 0.67136 0.5667 0.0095 0.0
H219 H 0.70699 0.56183 0.14636 0.0
H220 H 0.42213 0.46662 0.3928 0.0
H221 H 0.46084 0.46181 0.51643 0.0
H222 H 0.39376 0.53459 0.79609 0.0
H223 H 0.35506 0.54037 0.67079 0.0
Dy224 Dy 0.03881 0.55787 0.81668 0.0
Dy225 Dy 1.02465 0.48144 0.96538 0.0
C226 C 0.04754 0.47461 0.68695 0.0
O227 O 0.98424 0.55797 0.85267 0.0
O228 O 0.97978 0.4951 0.89937 0.0
O229 O 0.05844 0.58509 0.65472 0.0
O230 O 1.03466 0.62009 0.81674 0.0
O231 O 1.00213 0.53218 0.09508 0.0
O232 O 0.0386 0.57305 1.00647 0.0
O233 O 0.07339 0.49526 0.98943 0.0
O234 O 0.08845 0.53288 0.83049 0.0
O235 O 1.01752 0.44915 0.12293 0.0
O236 O 1.01659 0.42126 0.9535 0.0
C237 C 0.96725 0.52787 0.87061 0.0
O238 O 1.03418 0.50979 0.68738 0.0
O239 O 0.05577 0.46332 0.78268 0.0
C240 C 0.08135 0.6416 0.68979 0.0
C241 C 0.14257 0.66616 0.58231 0.0
C242 C 0.13968 0.63785 0.66688 0.0
C243 C 0.10926 0.62586 0.72019 0.0
C244 C 0.0832 0.67425 0.62399 0.0
C245 C 0.11362 0.68708 0.57276 0.0
C246 C 0.05265 0.61967 0.70762 0.0
C247 C 1.01711 0.56357 0.10029 0.0
C248 C 0.09554 0.51336 0.91746 0.0
C249 C 0.97828 0.4058 0.1219 0.0
C250 C 0.91588 0.38676 0.24079 0.0
C251 C 0.91984 0.42091 0.18059 0.0
C252 C 0.95063 0.43036 0.12301 0.0
C253 C 0.97471 0.37038 0.17376 0.0
C254 C 0.94362 0.36097 0.23377 0.0
C255 C 1.01033 0.41866 0.06868 0.0
H256 H 0.16071 0.6213 0.68198 0.0
H257 H 0.10791 0.60155 0.77511 0.0
H258 H 0.06159 0.6879 0.6045 0.0
H259 H 0.11445 0.71079 0.51592 0.0
H260 H 0.89952 0.4422 0.18569 0.0
H261 H 0.953 0.45788 0.08407 0.0
H262 H 0.99586 0.3507 0.17142 0.0
H263 H 0.94146 0.33449 0.27901 0.0
C264 C 0.16998 1.01014 0.52962 0.0
C265 C 0.1947 1.01736 0.58756 0.0
H266 H 0.11948 1.0009 0.5482 0.0
C267 C 0.18648 0.01996 0.71348 0.0
H268 H 0.17524 1.00883 0.43296 0.0
C269 C 0.15454 1.01591 0.77963 0.0
C270 C 0.12965 1.0092 0.72215 0.0
H271 H 0.20467 0.02618 0.76132 0.0
H272 H 0.14925 0.01876 0.87631 0.0
C273 C 0.13795 1.00579 0.59597 0.0
C274 C 0.50748 0.18941 0.69316 0.0
C275 C 0.51205 0.1871 0.5684 0.0
H276 H 0.50537 0.15916 0.85141 0.0
C277 C 0.52018 0.15058 0.50652 0.0
H278 H 0.50127 0.21704 0.74354 0.0
C279 C 0.52275 0.11712 0.56839 0.0
C280 C 0.51687 0.11935 0.69397 0.0
H281 H 0.52355 0.14783 0.4106 0.0
H282 H 0.52855 0.08947 0.51808 0.0
C283 C 0.50963 0.15607 0.75505 0.0
C284 C 0.30379 0.49724 0.43858 0.0
C285 C 0.31323 0.49432 0.31288 0.0
H286 H 0.31867 0.50223 0.60212 0.0
C287 C 0.34619 0.49707 0.25583 0.0
H288 H 0.27867 0.49466 0.48535 0.0
C289 C 0.36928 0.50175 0.32292 0.0
C290 C 0.36009 0.50336 0.44905 0.0
H291 H 0.35426 0.4945 0.15916 0.0
H292 H 0.39449 0.50342 0.27559 0.0
C293 C 0.32683 0.50176 0.50567 0.0
C294 C 0.03621 0.42712 0.39866 0.0
C295 C 0.05366 0.39085 0.3923 0.0
H296 H 1.02096 0.4821 0.49475 0.0
C297 C 0.06977 0.38271 0.48216 0.0
H298 H 1.02356 0.43428 0.33099 0.0
C299 C 0.0681 0.41 0.57695 0.0
C300 C 0.05069 0.44638 0.58316 0.0
H301 H 0.08373 0.3552 0.47884 0.0
H302 H 0.08054 0.40258 0.64529 0.0
C303 C 0.03485 0.4546 0.49248 0.0
C304 C 0.87247 0.042 0.17499 0.0
C305 C 0.8663 0.02355 0.28316 0.0
H306 H 0.90804 0.05381 0.01545 0.0
C307 C 0.89198 1.00011 0.30773 0.0
H308 H 0.85325 0.0605 0.1539 0.0
C309 C 0.92325 0.99659 0.22969 0.0
C310 C 0.93002 1.01625 0.12374 0.0
H311 H 0.88821 0.98555 0.39006 0.0
H312 H 0.9424 0.97896 0.2543 0.0
C313 C 0.90392 0.03828 0.09592 0.0
C314 C 0.55161 0.89677 0.26703 0.0
C315 C 0.53928 0.8621 0.23931 0.0
H316 H 0.55828 0.95547 0.22622 0.0
C317 C 0.5221 0.86159 0.14984 0.0
H318 H 0.56505 0.89815 0.33531 0.0
C319 C 0.51828 0.89441 0.08689 0.0
C320 C 0.53165 0.92877 0.11126 0.0
H321 H 0.51251 0.83532 0.12591 0.0
H322 H 0.50547 0.89247 0.01687 0.0
C323 C 0.54786 0.92963 0.20393 0.0
C324 C 0.70841 0.51772 0.55215 0.0
C325 C 0.72783 0.54832 0.55751 0.0
H326 H 0.67557 0.4915 0.46475 0.0
C327 C 0.72925 0.57609 0.47274 0.0
H328 H 0.70682 0.49583 0.61615 0.0
C329 C 0.71129 0.57372 0.38597 0.0
C330 C 0.69125 0.54355 0.38172 0.0
H331 H 0.74382 0.6001 0.47517 0.0
H332 H 0.71237 0.59629 0.3244 0.0
C333 C 0.69033 0.5154 0.46566 0.0
C334 C 0.9747 0.62114 0.39276 0.0
C335 C 1.00032 0.64114 0.41624 0.0
H336 H 0.95999 0.58008 0.27601 0.0
C337 C 1.03151 0.63377 0.33844 0.0
H338 H 0.95044 0.62594 0.45189 0.0
C339 C 0.03678 0.60828 0.23708 0.0
C340 C 1.0112 0.58854 0.21265 0.0
H341 H 0.05193 0.64764 0.35623 0.0
H342 H 0.06107 0.60382 0.17789 0.0
C343 C 0.98018 0.59473 0.29268 0.0
C344 C 0.1402 0.18011 0.21993 0.0
C345 C 0.12421 0.21439 0.28437 0.0
H346 H 0.1394 0.11859 0.2111 0.0
C347 C 0.11377 0.21376 0.40947 0.0
H348 H 0.15094 0.18002 0.12468 0.0
C349 C 0.10828 0.17869 0.46022 0.0
C350 C 0.11439 0.14451 0.38636 0.0
H351 H 0.10339 0.23973 0.46482 0.0
H352 H 0.09477 0.17901 0.55294 0.0
C353 C 0.13326 0.14486 0.2686 0.0
C354 C 0.33038 0.92196 0.59513 0.0
C355 C 0.33509 0.91546 0.47122 0.0
H356 H 0.35285 0.92031 0.74133 0.0
C357 C 0.36204 0.89055 0.40769 0.0
H358 H 0.3094 0.94009 0.64756 0.0
C359 C 0.38784 0.88113 0.45941 0.0
C360 C 0.38623 0.89529 0.57679 0.0
H361 H 0.36565 0.88389 0.31262 0.0
H362 H 0.4104 0.86766 0.4017 0.0
C363 C 0.3557 0.91122 0.64823 0.0
C364 C 0.55005 0.367 0.69612 0.0
C365 C 0.56863 0.35967 0.57806 0.0
H366 H 0.53499 0.40824 0.84516 0.0
C367 C 0.59258 0.38449 0.53095 0.0
H368 H 0.53107 0.34881 0.73363 0.0
C369 C 0.59467 0.41882 0.59477 0.0
C370 C 0.57345 0.4281 0.70753 0.0
H371 H 0.60707 0.37949 0.43949 0.0
H372 H 0.61081 0.43942 0.55209 0.0
C373 C 0.5523 0.40117 0.75999 0.0
C374 C 0.19282 0.65187 0.26857 0.0
C375 C 0.21635 0.62366 0.2863 0.0
H376 H 0.15037 0.68873 0.34944 0.0
C377 C 0.22317 0.62384 0.39954 0.0
H378 H 0.18851 0.65496 0.18084 0.0
C379 C 0.20231 0.64549 0.49687 0.0
C380 C 0.17322 0.66505 0.48385 0.0
H381 H 0.24201 0.60405 0.41748 0.0
H382 H 0.20676 0.64235 0.5843 0.0
C383 C 0.17106 0.67204 0.36667 0.0
C384 C 0.12416 0.78022 0.35717 0.0
C385 C 0.09561 0.767 0.33431 0.0
H386 H 0.15656 0.82476 0.32675 0.0
C387 C 0.08758 0.77613 0.22749 0.0
H388 H 0.13174 0.77245 0.4365 0.0
C389 C 0.10211 0.80579 0.16364 0.0
C390 C 0.1245 0.82638 0.20722 0.0
H391 H 0.06634 0.76561 0.20492 0.0
H392 H 0.09146 0.81671 0.09424 0.0
C393 C 0.13843 0.81028 0.29428 0.0
C394 C 0.72356 0.10119 0.17735 0.0
C395 C 0.72105 0.11121 0.29838 0.0
H396 H 0.69857 0.10109 0.03791 0.0
C397 C 0.6968 0.14004 0.35836 0.0
H398 H 0.74244 0.07977 0.1276 0.0
C399 C 0.67088 0.15099 0.30893 0.0
C400 C 0.66976 0.13405 0.19762 0.0
H401 H 0.69501 0.14921 0.45074 0.0
H402 H 0.6499 0.16815 0.3652 0.0
C403 C 0.69809 0.11299 0.1266 0.0
C404 C 0.4638 0.66117 0.27734 0.0
C405 C 0.48673 0.68721 0.23073 0.0
H406 H 0.44737 0.60533 0.25409 0.0
C407 C 0.50494 0.68109 0.11182 0.0
H408 H 0.44958 0.66528 0.36936 0.0
C409 C 0.50355 0.64693 0.04645 0.0
C410 C 0.48359 0.61884 0.09823 0.0
H411 H 0.52314 0.70027 0.07456 0.0
H412 H 0.52076 0.6408 0.96058 0.0
C413 C 0.46257 0.62686 0.21196 0.0
C414 C 0.83382 0.42385 0.40553 0.0
C415 C 0.8397 0.42535 0.52044 0.0
H416 H 0.85324 0.40562 0.22138 0.0
C417 C 0.86235 0.39684 0.54354 0.0
H418 H 0.81558 0.44333 0.38276 0.0
C419 C 0.88537 0.37682 0.4483 0.0
C420 C 0.88453 0.38383 0.33043 0.0
H421 H 0.86557 0.39414 0.63289 0.0
H422 H 0.90629 0.36103 0.46733 0.0
C423 C 0.8557 0.40204 0.31144 0.0
C424 C 0.04515 0.19216 0.98207 0.0
C425 C 0.03697 0.20522 0.1034 0.0
H426 H 0.04866 0.1448 0.85363 0.0
C427 C 1.02158 0.18057 0.18831 0.0
H428 H 0.05804 0.20993 0.91509 0.0
C429 C 1.01722 0.14264 0.15395 0.0
C430 C 1.02788 0.12855 0.03354 0.0
H431 H 1.01607 0.18929 0.28281 0.0
H432 H 1.00715 0.12377 0.22262 0.0
C433 C 0.0404 0.15442 0.94741 0.0
C434 C 0.37654 0.03867 0.24242 0.0
C435 C 0.35698 1.01604 0.19024 0.0
H436 H 0.42321 0.06057 0.22542 0.0
C437 C 0.36936 1.00184 0.07051 0.0
H438 H 0.3682 0.0489 0.33571 0.0
C439 C 0.40116 1.00816 1.00707 0.0
C440 C 0.42171 0.02831 0.06231 0.0
H441 H 0.35545 0.98316 0.02905 0.0
H442 H 0.4103 0.99499 0.91743 0.0
C443 C 0.4084 0.04473 0.17952 0.0
C444 C 0.49591 0.37981 0.24514 0.0
C445 C 0.52541 0.35603 0.22491 0.0
H446 H 0.47145 0.43172 0.20225 0.0
C447 C 0.55213 0.3648 0.13476 0.0
H448 H 0.4753 0.37457 0.31713 0.0
C449 C 0.55046 0.39827 0.07398 0.0
C450 C 0.52175 0.42342 0.09926 0.0
H451 H 0.57541 0.34777 0.11974 0.0
H452 H 0.57219 0.40525 0.00991 0.0
C453 C 0.49392 0.41294 0.18124 0.0
C454 C 0.17958 0.5448 0.91953 0.0
C455 C 0.18664 0.52576 0.01596 0.0
H456 H 0.14628 0.55471 0.80944 0.0
C457 C 0.1653 0.49944 0.07112 0.0
H458 H 0.19541 0.56562 0.87637 0.0
C459 C 0.13654 0.49397 0.03516 0.0
C460 C 0.12851 0.51451 0.94247 0.0
H461 H 0.16982 0.48492 0.14704 0.0
H462 H 0.11993 0.47482 0.0837 0.0
C463 C 0.15115 0.53883 0.88213 0.0
C464 C 0.04521 0.82868 0.78089 0.0
C465 C 1.02318 0.81964 0.71244 0.0
H466 H 0.06237 0.87214 0.88128 0.0
C467 C 0.99845 0.84802 0.7059 0.0
H468 H 0.06482 0.80758 0.7863 0.0
C469 C 0.99737 0.88534 0.75856 0.0
C470 C 1.02091 0.8952 0.81957 0.0
H471 H 0.98154 0.84227 0.65202 0.0
H472 H 0.97898 0.90697 0.74631 0.0
C473 C 0.04401 0.86589 0.83423 0.0
C474 C 0.67573 0.99293 0.57113 0.0
C475 C 0.69424 0.02051 0.60901 0.0
H476 H 0.62934 0.96922 0.59963 0.0
C477 C 0.68022 0.04253 0.71696 0.0
H478 H 0.68533 0.97644 0.48638 0.0
C479 C 0.64793 0.03902 0.78081 0.0
C480 C 0.62848 1.01346 0.73849 0.0
H481 H 0.69337 0.06482 0.74686 0.0
H482 H 0.63768 0.05798 0.86013 0.0
C483 C 0.64335 0.98928 0.63532 0.0
C484 C 0.56082 0.66873 0.56097 0.0
C485 C 0.53101 0.69193 0.58166 0.0
H486 H 0.58612 0.61727 0.6031 0.0
C487 C 0.50457 0.68261 0.67208 0.0
H488 H 0.58125 0.67438 0.4888 0.0
C489 C 0.50683 0.64915 0.73245 0.0
C490 C 0.53588 0.62455 0.70681 0.0
H491 H 0.48106 0.69915 0.68754 0.0
H492 H 0.48527 0.64171 0.79646 0.0
C493 C 0.56342 0.63562 0.62462 0.0
C494 C 0.89395 0.55254 0.74064 0.0
C495 C 0.87436 0.52258 0.77968 0.0
H496 H 0.93871 0.57798 0.73878 0.0
C497 C 0.88366 0.49796 0.86084 0.0
H498 H 0.88777 0.57167 0.67687 0.0
C499 C 0.91289 0.5011 0.8946 0.0
C500 C 0.93375 0.52926 0.84944 0.0
H501 H 0.86914 0.47463 0.89292 0.0
H502 H 0.91974 0.4803 0.9526 0.0
C503 C 0.9233 0.55593 0.77552 0.0
loop_
_geom_bond_atom_site_label_1
_geom_bond_atom_site_label_2
_geom_bond_distance
_geom_bond_site_symmetry_2
_ccdc_geom_bond_type
H0 C7 0.929 . S
H1 C10 0.930 . S
H2 C12 0.929 . S
H3 C4 0.969 . S
C4 H3 0.969 . S
C4 O5 1.550 . S
C4 H6 0.973 . S
O5 C4 1.550 . S
O5 C11 1.412 . S
H6 C4 0.973 . S
C7 H0 0.929 . S
C7 C8 1.400 . S
C7 C9 1.364 . S
C8 C7 1.400 . S
C8 C12 1.377 . S
C9 C7 1.364 . S
C9 C10 1.374 . S
C10 H1 0.930 . S
C10 C9 1.374 . S
C10 C11 1.383 . S
C11 O5 1.412 . S
C11 C10 1.383 . S
C11 C12 1.394 . S
C12 H2 0.929 . S
C12 C8 1.377 . S
C12 C11 1.394 . S
H13 C20 0.929 1_655 S
H14 C23 0.933 . S
H15 C25 0.931 1_655 S
H16 C17 0.969 . S
C17 H16 0.969 . S
C17 O18 1.550 1_455 S
C17 H19 0.973 1_455 S
O18 C17 1.550 1_655 S
O18 C24 1.401 1_655 S
H19 C17 0.973 1_655 S
C20 H13 0.929 1_455 S
C20 C21 1.398 . S
C20 C22 1.365 . S
C21 C20 1.398 . S
C21 C25 1.375 . S
C22 C20 1.365 . S
C22 C23 1.373 1_455 S
C23 H14 0.933 . S
C23 C22 1.373 1_655 S
C23 C24 1.378 1_655 S
C24 O18 1.401 1_455 S
C24 C23 1.378 1_455 S
C24 C25 1.401 . S
C25 H15 0.931 1_455 S
C25 C21 1.375 . S
C25 C24 1.401 . S
H26 C33 0.928 1_565 S
H27 C36 0.930 . S
H28 C38 0.928 1_565 S
H29 C30 0.969 . S
C30 H29 0.969 . S
C30 O31 1.550 1_545 S
C30 H32 0.973 1_545 S
O31 C30 1.550 1_565 S
O31 C37 1.407 1_565 S
H32 C30 0.973 1_565 S
C33 H26 0.928 1_545 S
C33 C34 1.400 . S
C33 C35 1.363 . S
C34 C33 1.400 . S
C34 C38 1.378 . S
C35 C33 1.363 . S
C35 C36 1.375 1_545 S
C36 H27 0.930 . S
C36 C35 1.375 1_565 S
C36 C37 1.383 1_565 S
C37 O31 1.407 1_545 S
C37 C36 1.383 1_545 S
C37 C38 1.391 . S
C38 H28 0.928 1_545 S
C38 C34 1.378 . S
C38 C37 1.391 . S
H39 C46 0.929 . S
H40 C49 0.930 . S
H41 C51 0.929 . S
H42 C43 0.969 . S
C43 H42 0.969 . S
C43 O44 1.550 . S
C43 H45 0.973 . S
O44 C43 1.550 . S
O44 C50 1.412 . S
H45 C43 0.973 . S
C46 H39 0.929 . S
C46 C47 1.400 . S
C46 C48 1.364 . S
C47 C46 1.400 . S
C47 C51 1.377 . S
C48 C46 1.364 . S
C48 C49 1.374 . S
C49 H40 0.930 . S
C49 C48 1.374 . S
C49 C50 1.383 . S
C50 O44 1.412 . S
C50 C49 1.383 . S
C50 C51 1.394 . S
C51 H41 0.929 . S
C51 C47 1.377 . S
C51 C50 1.394 . S
H52 C59 0.929 . S
H53 C62 0.930 . S
H54 C64 0.929 . S
H55 C56 0.969 . S
C56 H55 0.969 . S
C56 O57 1.550 1_554 S
C56 H58 0.973 . S
O57 C56 1.550 1_556 S
O57 C63 1.412 . S
H58 C56 0.973 . S
C59 H52 0.929 . S
C59 C60 1.400 . S
C59 C61 1.364 1_556 S
C60 C59 1.400 . S
C60 C64 1.377 . S
C61 C59 1.364 1_554 S
C61 C62 1.374 . S
C62 H53 0.930 . S
C62 C61 1.374 . S
C62 C63 1.383 1_554 S
C63 O57 1.412 . S
C63 C62 1.383 1_556 S
C63 C64 1.394 . S
C64 H54 0.929 . S
C64 C60 1.377 . S
C64 C63 1.394 . S
H65 C72 0.928 1_655 S
H66 C75 0.939 . S
H67 C77 0.926 1_656 S
H68 C69 0.969 . S
C69 H68 0.969 . S
C69 O70 1.550 1_455 S
C69 H71 0.973 1_455 S
O70 C69 1.550 1_655 S
O70 C76 1.406 1_655 S
H71 C69 0.973 1_655 S
C72 H65 0.928 1_455 S
C72 C73 1.401 . S
C72 C74 1.363 . S
C73 C72 1.401 . S
C73 C77 1.378 . S
C74 C72 1.363 . S
C74 C75 1.375 1_455 S
C75 H66 0.939 . S
C75 C74 1.375 1_655 S
C75 C76 1.387 1_655 S
C76 O70 1.406 1_455 S
C76 C75 1.387 1_455 S
C76 C77 1.387 . S
C77 H67 0.926 1_454 S
C77 C73 1.378 . S
C77 C76 1.387 . S
H78 C85 0.929 1_565 S
H79 C88 0.931 . S
H80 C90 0.929 1_565 S
H81 C82 0.969 . S
C82 H81 0.969 . S
C82 O83 1.550 1_545 S
C82 H84 0.973 1_545 S
O83 C82 1.550 1_565 S
O83 C89 1.412 1_565 S
H84 C82 0.973 1_565 S
C85 H78 0.929 1_545 S
C85 C86 1.399 . S
C85 C87 1.364 . S
C86 C85 1.399 . S
C86 C90 1.376 . S
C87 C85 1.364 . S
C87 C88 1.373 1_545 S
C88 H79 0.931 . S
C88 C87 1.373 1_565 S
C88 C89 1.383 1_565 S
C89 O83 1.412 1_545 S
C89 C88 1.383 1_545 S
C89 C90 1.394 . S
C90 H80 0.929 1_545 S
C90 C86 1.376 . S
C90 C89 1.394 . S
H91 C98 0.929 . S
H92 C101 0.930 . S
H93 C103 0.929 . S
H94 C95 0.969 . S
C95 H94 0.969 . S
C95 O96 1.550 . S
C95 H97 0.973 . S
O96 C95 1.550 . S
O96 C102 1.412 . S
H97 C95 0.973 . S
C98 H91 0.929 . S
C98 C99 1.400 . S
C98 C100 1.364 . S
C99 C98 1.400 . S
C99 C103 1.377 . S
C100 C98 1.364 . S
C100 C101 1.374 . S
C101 H92 0.930 . S
C101 C100 1.374 . S
C101 C102 1.383 . S
C102 O96 1.412 . S
C102 C101 1.383 . S
C102 C103 1.394 . S
C103 H93 0.929 . S
C103 C99 1.377 . S
C103 C102 1.394 . S
Dy104 O107 2.307 1_545 S
Dy104 O109 2.395 1_655 S
Dy104 O110 2.379 . S
Dy104 O112 2.339 . S
Dy104 O114 2.298 . S
Dy104 O118 2.275 1_655 S
Dy104 C126 2.738 . S
Dy105 O108 2.298 1_554 S
Dy105 O111 2.275 1_454 S
Dy105 O113 2.307 1_565 S
Dy105 O115 2.395 1_455 S
Dy105 O116 2.379 . S
Dy105 O119 2.339 1_554 S
Dy105 C135 2.738 . S
C106 O118 1.254 1_565 S
C106 O119 1.257 . S
O107 Dy104 2.307 1_565 S
O107 C117 1.266 . S
O108 Dy105 2.298 1_556 S
O108 C117 1.236 1_455 S
O109 Dy104 2.395 1_455 S
O109 C126 1.255 1_455 S
O110 Dy104 2.379 . S
O110 C126 1.249 . S
O111 Dy105 2.275 1_656 S
O111 C127 1.254 1_565 S
O112 Dy104 2.339 . S
O112 C127 1.257 . S
O113 Dy105 2.307 1_545 S
O113 C128 1.266 1_554 S
O114 Dy104 2.298 . S
O114 C128 1.236 1_655 S
O115 Dy105 2.395 1_655 S
O115 C135 1.255 1_655 S
O116 Dy105 2.379 . S
O116 C135 1.249 . S
C117 O107 1.266 . S
C117 O108 1.236 1_655 S
O118 Dy104 2.275 1_455 S
O118 C106 1.254 1_545 S
O119 Dy105 2.339 1_556 S
O119 C106 1.257 . S
C120 C123 1.344 1_655 S
C120 C124 1.328 . S
C120 C126 1.516 . S
C121 C122 1.304 1_655 S
C121 C125 1.323 . S
C122 C121 1.304 1_455 S
C122 C123 1.371 . S
C122 H136 0.930 . S
C123 C120 1.344 1_455 S
C123 C122 1.371 . S
C123 H137 0.931 . S
C124 C120 1.328 . S
C124 C125 1.433 . S
C124 H138 0.931 . S
C125 C121 1.323 . S
C125 C124 1.433 . S
C125 H139 0.933 . S
C126 Dy104 2.738 . S
C126 O109 1.255 1_655 S
C126 O110 1.249 . S
C126 C120 1.516 . S
C127 O111 1.254 1_545 S
C127 O112 1.257 . S
C128 O113 1.266 1_556 S
C128 O114 1.236 1_455 S
C129 C132 1.344 1_455 S
C129 C133 1.328 . S
C129 C135 1.516 . S
C130 C131 1.304 1_455 S
C130 C134 1.323 . S
C131 C130 1.304 1_655 S
C131 C132 1.371 . S
C131 H140 0.930 . S
C132 C129 1.344 1_655 S
C132 C131 1.371 . S
C132 H141 0.931 . S
C133 C129 1.328 . S
C133 C134 1.433 . S
C133 H142 0.931 . S
C134 C130 1.323 . S
C134 C133 1.433 . S
C134 H143 0.933 . S
C135 Dy105 2.738 . S
C135 O115 1.255 1_455 S
C135 O116 1.249 . S
C135 C129 1.516 . S
H136 C122 0.930 . S
H137 C123 0.931 . S
H138 C124 0.931 . S
H139 C125 0.933 . S
H140 C131 0.930 . S
H141 C132 0.931 . S
H142 C133 0.931 . S
H143 C134 0.933 . S
Dy144 O147 2.307 . S
Dy144 O149 2.395 1_565 S
Dy144 O150 2.379 . S
Dy144 O152 2.339 . S
Dy144 O154 2.298 . S
Dy144 O158 2.275 1_565 S
Dy144 C166 2.738 . S
Dy145 O148 2.298 1_554 S
Dy145 O151 2.275 1_544 S
Dy145 O153 2.307 . S
Dy145 O155 2.395 1_545 S
Dy145 O156 2.379 . S
Dy145 O159 2.339 1_554 S
Dy145 C175 2.738 . S
C146 O158 1.254 . S
C146 O159 1.257 . S
O147 Dy144 2.307 . S
O147 C157 1.266 . S
O148 Dy145 2.298 1_556 S
O148 C157 1.236 1_545 S
O149 Dy144 2.395 1_545 S
O149 C166 1.255 1_545 S
O150 Dy144 2.379 . S
O150 C166 1.249 . S
O151 Dy145 2.275 1_566 S
O151 C167 1.254 . S
O152 Dy144 2.339 . S
O152 C167 1.257 . S
O153 Dy145 2.307 . S
O153 C168 1.266 1_554 S
O154 Dy144 2.298 . S
O154 C168 1.236 1_565 S
O155 Dy145 2.395 1_565 S
O155 C175 1.255 1_565 S
O156 Dy145 2.379 . S
O156 C175 1.249 . S
C157 O147 1.266 . S
C157 O148 1.236 1_565 S
O158 Dy144 2.275 1_545 S
O158 C146 1.254 . S
O159 Dy145 2.339 1_556 S
O159 C146 1.257 . S
C160 C163 1.338 1_565 S
C160 C164 1.328 . S
C160 C166 1.516 . S
C161 C162 1.304 . S
C161 C165 1.323 . S
C162 C161 1.304 . S
C162 C163 1.370 1_565 S
C162 H176 0.930 1_565 S
C163 C160 1.338 1_545 S
C163 C162 1.370 1_545 S
C163 H177 0.938 . S
C164 C160 1.328 . S
C164 C165 1.433 . S
C164 H178 0.931 . S
C165 C161 1.323 . S
C165 C164 1.433 . S
C165 H179 0.933 . S
C166 Dy144 2.738 . S
C166 O149 1.255 1_565 S
C166 O150 1.249 . S
C166 C160 1.516 . S
C167 O151 1.254 . S
C167 O152 1.257 . S
C168 O153 1.266 1_556 S
C168 O154 1.236 1_545 S
C169 C172 1.344 1_545 S
C169 C173 1.328 . S
C169 C175 1.516 . S
C170 C171 1.304 . S
C170 C174 1.323 . S
C171 C170 1.304 . S
C171 C172 1.371 1_545 S
C171 H180 0.930 1_545 S
C172 C169 1.344 1_565 S
C172 C171 1.371 1_565 S
C172 H181 0.931 . S
C173 C169 1.328 . S
C173 C174 1.433 . S
C173 H182 0.931 . S
C174 C170 1.323 . S
C174 C173 1.433 . S
C174 H183 0.933 . S
C175 Dy145 2.738 . S
C175 O155 1.255 1_545 S
C175 O156 1.249 . S
C175 C169 1.516 . S
H176 C162 0.930 1_545 S
H177 C163 0.938 . S
H178 C164 0.931 . S
H179 C165 0.933 . S
H180 C171 0.930 1_565 S
H181 C172 0.931 . S
H182 C173 0.931 . S
H183 C174 0.933 . S
Dy184 O187 2.307 . S
Dy184 O189 2.395 1_556 S
Dy184 O190 2.379 . S
Dy184 O192 2.339 . S
Dy184 O194 2.298 . S
Dy184 O198 2.275 . S
Dy184 C206 2.738 1_556 S
Dy185 O188 2.298 . S
Dy185 O191 2.275 . S
Dy185 O193 2.307 1_556 S
Dy185 O195 2.395 . S
Dy185 O196 2.379 . S
Dy185 O199 2.339 1_556 S
Dy185 C215 2.738 . S
C186 O198 1.254 1_554 S
C186 O199 1.257 . S
O187 Dy184 2.307 . S
O187 C197 1.266 . S
O188 Dy185 2.298 . S
O188 C197 1.236 . S
O189 Dy184 2.395 1_554 S
O189 C206 1.255 . S
O190 Dy184 2.379 . S
O190 C206 1.249 1_556 S
O191 Dy185 2.275 . S
O191 C207 1.254 . S
O192 Dy184 2.339 . S
O192 C207 1.257 . S
O193 Dy185 2.307 1_554 S
O193 C208 1.266 . S
O194 Dy184 2.298 . S
O194 C208 1.236 1_556 S
O195 Dy185 2.395 . S
O195 C215 1.255 . S
O196 Dy185 2.379 . S
O196 C215 1.249 . S
C197 O187 1.266 . S
C197 O188 1.236 . S
O198 Dy184 2.275 . S
O198 C186 1.254 1_556 S
O199 Dy185 2.339 1_554 S
O199 C186 1.257 . S
C200 C203 1.344 . S
C200 C204 1.328 . S
C200 C206 1.516 . S
C201 C202 1.304 . S
C201 C205 1.323 . S
C202 C201 1.304 . S
C202 C203 1.371 . S
C202 H216 0.930 . S
C203 C200 1.344 . S
C203 C202 1.371 . S
C203 H217 0.931 . S
C204 C200 1.328 . S
C204 C205 1.433 . S
C204 H218 0.931 1_554 S
C205 C201 1.323 . S
C205 C204 1.433 . S
C205 H219 0.933 . S
C206 Dy184 2.738 1_554 S
C206 O189 1.255 . S
C206 O190 1.249 1_554 S
C206 C200 1.516 . S
C207 O191 1.254 . S
C207 O192 1.257 . S
C208 O193 1.266 . S
C208 O194 1.236 1_554 S
C209 C212 1.344 . S
C209 C213 1.328 . S
C209 C215 1.516 . S
C210 C211 1.304 . S
C210 C214 1.323 . S
C211 C210 1.304 . S
C211 C212 1.371 . S
C211 H220 0.930 . S
C212 C209 1.344 . S
C212 C211 1.371 . S
C212 H221 0.931 . S
C213 C209 1.328 . S
C213 C214 1.433 . S
C213 H222 0.931 . S
C214 C210 1.323 . S
C214 C213 1.433 . S
C214 H223 0.933 . S
C215 Dy185 2.738 . S
C215 O195 1.255 . S
C215 O196 1.249 . S
C215 C209 1.516 . S
H216 C202 0.930 . S
H217 C203 0.931 . S
H218 C204 0.931 1_556 S
H219 C205 0.933 . S
H220 C211 0.930 . S
H221 C212 0.931 . S
H222 C213 0.931 . S
H223 C214 0.933 . S
Dy224 O227 2.307 1_455 S
Dy224 O229 2.395 . S
Dy224 O230 2.379 . S
Dy224 O232 2.339 . S
Dy224 O234 2.298 . S
Dy224 O238 2.275 . S
Dy224 C246 2.738 . S
Dy225 O228 2.298 1_554 S
Dy225 O231 2.275 . S
Dy225 O233 2.307 1_654 S
Dy225 O235 2.395 . S
Dy225 O236 2.379 . S
Dy225 O239 2.339 1_554 S
Dy225 C255 2.738 . S
C226 O238 1.254 1_655 S
C226 O239 1.257 . S
O227 Dy224 2.307 1_655 S
O227 C237 1.266 . S
O228 Dy225 2.298 1_556 S
O228 C237 1.236 . S
O229 Dy224 2.395 . S
O229 C246 1.255 . S
O230 Dy224 2.379 . S
O230 C246 1.249 . S
O231 Dy225 2.275 . S
O231 C247 1.254 1_655 S
O232 Dy224 2.339 . S
O232 C247 1.257 1_556 S
O233 Dy225 2.307 1_456 S
O233 C248 1.266 . S
O234 Dy224 2.298 . S
O234 C248 1.236 . S
O235 Dy225 2.395 . S
O235 C255 1.255 . S
O236 Dy225 2.379 . S
O236 C255 1.249 . S
C237 O227 1.266 . S
C237 O228 1.236 . S
O238 Dy224 2.275 . S
O238 C226 1.254 1_455 S
O239 Dy225 2.339 1_556 S
O239 C226 1.257 . S
C240 C243 1.344 . S
C240 C244 1.328 . S
C240 C246 1.516 . S
C241 C242 1.304 . S
C241 C245 1.323 . S
C242 C241 1.304 . S
C242 C243 1.371 . S
C242 H256 0.930 . S
C243 C240 1.344 . S
C243 C242 1.371 . S
C243 H257 0.931 . S
C244 C240 1.328 . S
C244 C245 1.433 . S
C244 H258 0.931 . S
C245 C241 1.323 . S
C245 C244 1.433 . S
C245 H259 0.933 . S
C246 Dy224 2.738 . S
C246 O229 1.255 . S
C246 O230 1.249 . S
C246 C240 1.516 . S
C247 O231 1.254 1_455 S
C247 O232 1.257 1_554 S
C248 O233 1.266 . S
C248 O234 1.236 . S
C249 C252 1.344 . S
C249 C253 1.328 . S
C249 C255 1.516 . S
C250 C251 1.304 . S
C250 C254 1.323 . S
C251 C250 1.304 . S
C251 C252 1.371 . S
C251 H260 0.930 . S
C252 C249 1.344 . S
C252 C251 1.371 . S
C252 H261 0.931 . S
C253 C249 1.328 . S
C253 C254 1.433 . S
C253 H262 0.931 . S
C254 C250 1.323 . S
C254 C253 1.433 . S
C254 H263 0.933 . S
C255 Dy225 2.738 . S
C255 O235 1.255 . S
C255 O236 1.249 . S
C255 C249 1.516 . S
H256 C242 0.930 . S
H257 C243 0.931 . S
H258 C244 0.931 . S
H259 C245 0.933 . S
H260 C251 0.930 . S
H261 C252 0.931 . S
H262 C253 0.931 . S
H263 C254 0.933 . S
C264 C265 1.396 . S
C264 H268 0.950 . S
C264 C273 1.390 . S
C265 C264 1.396 . S
C265 C267 1.378 1_545 S
H266 C273 0.950 . S
C267 C265 1.378 1_565 S
C267 C269 1.390 . S
C267 H271 0.950 . S
H268 C264 0.950 . S
C269 C267 1.390 . S
C269 C270 1.363 1_565 S
C269 H272 0.950 . S
C270 C269 1.363 1_545 S
C270 C273 1.416 . S
H271 C267 0.950 . S
H272 C269 0.950 . S
C273 C264 1.390 . S
C273 H266 0.950 . S
C273 C270 1.416 . S
C274 C275 1.387 . S
C274 H278 0.950 . S
C274 C283 1.390 . S
C275 C274 1.387 . S
C275 C277 1.387 . S
H276 C283 0.950 . S
C277 C275 1.387 . S
C277 C279 1.390 . S
C277 H281 0.950 . S
H278 C274 0.950 . S
C279 C277 1.390 . S
C279 C280 1.387 . S
C279 H282 0.950 . S
C280 C279 1.387 . S
C280 C283 1.387 . S
H281 C277 0.950 . S
H282 C279 0.950 . S
C283 C274 1.390 . S
C283 H276 0.950 . S
C283 C280 1.387 . S
C284 C285 1.387 . S
C284 H288 0.950 . S
C284 C293 1.390 . S
C285 C284 1.387 . S
C285 C287 1.387 . S
H286 C293 0.950 . S
C287 C285 1.387 . S
C287 C289 1.390 . S
C287 H291 0.950 . S
H288 C284 0.950 . S
C289 C287 1.390 . S
C289 C290 1.387 . S
C289 H292 0.950 . S
C290 C289 1.387 . S
C290 C293 1.387 . S
H291 C287 0.950 . S
H292 C289 0.950 . S
C293 C284 1.390 . S
C293 H286 0.950 . S
C293 C290 1.387 . S
C294 C295 1.387 . S
C294 H298 0.950 . S
C294 C303 1.390 . S
C295 C294 1.387 . S
C295 C297 1.387 1_455 S
H296 C303 0.950 . S
C297 C295 1.387 1_655 S
C297 C299 1.390 . S
C297 H301 0.950 . S
H298 C294 0.950 . S
C299 C297 1.390 . S
C299 C300 1.387 1_655 S
C299 H302 0.950 . S
C300 C299 1.387 1_455 S
C300 C303 1.387 . S
H301 C297 0.950 . S
H302 C299 0.950 . S
C303 C294 1.390 . S
C303 H296 0.950 . S
C303 C300 1.387 . S
C304 C305 1.391 . S
C304 H308 0.950 . S
C304 C313 1.390 . S
C305 C304 1.391 . S
C305 C307 1.383 1_565 S
H306 C313 0.950 . S
C307 C305 1.383 1_545 S
C307 C309 1.390 . S
C307 H311 0.950 . S
H308 C304 0.950 . S
C309 C307 1.390 . S
C309 C310 1.370 1_545 S
C309 H312 0.950 . S
C310 C309 1.370 1_565 S
C310 C313 1.408 . S
H311 C307 0.950 . S
H312 C309 0.950 . S
C313 C304 1.390 . S
C313 H306 0.950 . S
C313 C310 1.408 . S
C314 C315 1.387 . S
C314 H318 0.950 . S
C314 C323 1.390 . S
C315 C314 1.387 . S
C315 C317 1.387 . S
H316 C323 0.950 . S
C317 C315 1.387 . S
C317 C319 1.390 1_554 S
C317 H321 0.950 . S
H318 C314 0.950 . S
C319 C317 1.390 1_556 S
C319 C320 1.387 1_556 S
C319 H322 0.950 . S
C320 C319 1.387 1_554 S
C320 C323 1.387 . S
H321 C317 0.950 . S
H322 C319 0.950 . S
C323 C314 1.390 . S
C323 H316 0.950 . S
C323 C320 1.387 . S
C324 C325 1.387 . S
C324 H328 0.950 . S
C324 C333 1.390 . S
C325 C324 1.387 . S
C325 C327 1.387 . S
H326 C333 0.950 . S
C327 C325 1.387 . S
C327 C329 1.390 . S
C327 H331 0.950 . S
H328 C324 0.950 . S
C329 C327 1.390 . S
C329 C330 1.387 . S
C329 H332 0.950 . S
C330 C329 1.387 . S
C330 C333 1.387 . S
H331 C327 0.950 . S
H332 C329 0.950 . S
C333 C324 1.390 . S
C333 H326 0.950 . S
C333 C330 1.387 . S
C334 C335 1.386 1_455 S
C334 H338 0.950 . S
C334 C343 1.390 . S
C335 C334 1.386 1_655 S
C335 C337 1.397 . S
H336 C343 0.950 . S
C337 C335 1.397 . S
C337 C339 1.390 . S
C337 H341 0.950 . S
H338 C334 0.950 . S
C339 C337 1.390 . S
C339 C340 1.387 . S
C339 H342 0.950 . S
C340 C339 1.387 . S
C340 C343 1.387 1_655 S
H341 C337 0.950 . S
H342 C339 0.950 . S
C343 C334 1.390 . S
C343 H336 0.950 . S
C343 C340 1.387 1_455 S
C344 C345 1.387 . S
C344 H348 0.950 . S
C344 C353 1.390 1_455 S
C345 C344 1.387 . S
C345 C347 1.387 1_455 S
H346 C353 0.950 . S
C347 C345 1.387 1_655 S
C347 C349 1.390 . S
C347 H351 0.950 . S
H348 C344 0.950 . S
C349 C347 1.390 . S
C349 C350 1.387 . S
C349 H352 0.950 . S
C350 C349 1.387 . S
C350 C353 1.387 . S
H351 C347 0.950 . S
H352 C349 0.950 . S
C353 C344 1.390 1_655 S
C353 H346 0.950 . S
C353 C350 1.387 . S
C354 C355 1.387 1_545 S
C354 H358 0.949 . S
C354 C363 1.390 1_545 S
C355 C354 1.387 1_565 S
C355 C357 1.387 . S
H356 C363 0.950 . S
C357 C355 1.387 . S
C357 C359 1.390 . S
C357 H361 0.950 . S
H358 C354 0.949 . S
C359 C357 1.390 . S
C359 C360 1.387 . S
C359 H362 0.950 . S
C360 C359 1.387 . S
C360 C363 1.387 . S
H361 C357 0.950 . S
H362 C359 0.950 . S
C363 C354 1.390 1_565 S
C363 H356 0.950 . S
C363 C360 1.387 . S
C364 C365 1.387 . S
C364 H368 0.950 . S
C364 C373 1.390 . S
C365 C364 1.387 . S
C365 C367 1.387 . S
H366 C373 0.950 . S
C367 C365 1.387 . S
C367 C369 1.390 . S
C367 H371 0.950 . S
H368 C364 0.950 . S
C369 C367 1.390 . S
C369 C370 1.387 . S
C369 H372 0.950 . S
C370 C369 1.387 . S
C370 C373 1.387 . S
H371 C367 0.950 . S
H372 C369 0.950 . S
C373 C364 1.390 . S
C373 H366 0.950 . S
C373 C370 1.387 . S
C374 C375 1.387 . S
C374 H378 0.950 . S
C374 C383 1.390 . S
C375 C374 1.387 . S
C375 C377 1.387 . S
H376 C383 0.950 . S
C377 C375 1.387 . S
C377 C379 1.390 . S
C377 H381 0.950 . S
H378 C374 0.950 . S
C379 C377 1.390 . S
C379 C380 1.387 . S
C379 H382 0.950 . S
C380 C379 1.387 . S
C380 C383 1.387 . S
H381 C377 0.950 . S
H382 C379 0.950 . S
C383 C374 1.390 . S
C383 H376 0.950 . S
C383 C380 1.387 . S
C384 C385 1.387 1_455 S
C384 H388 0.950 . S
C384 C393 1.390 . S
C385 C384 1.387 1_655 S
C385 C387 1.387 . S
H386 C393 0.950 . S
C387 C385 1.387 . S
C387 C389 1.390 1_655 S
C387 H391 0.950 . S
H388 C384 0.950 . S
C389 C387 1.390 1_455 S
C389 C390 1.387 . S
C389 H392 0.950 1_455 S
C390 C389 1.387 . S
C390 C393 1.387 . S
H391 C387 0.950 . S
H392 C389 0.950 1_655 S
C393 C384 1.390 . S
C393 H386 0.950 . S
C393 C390 1.387 . S
C394 C395 1.388 . S
C394 H398 0.947 1_545 S
C394 C403 1.393 . S
C395 C394 1.388 . S
C395 C397 1.387 . S
H396 C403 0.950 . S
C397 C395 1.387 . S
C397 C399 1.390 . S
C397 H401 0.950 . S
H398 C394 0.947 1_565 S
C399 C397 1.390 . S
C399 C400 1.387 . S
C399 H402 0.950 . S
C400 C399 1.387 . S
C400 C403 1.387 . S
H401 C397 0.950 . S
H402 C399 0.950 . S
C403 C394 1.393 . S
C403 H396 0.950 . S
C403 C400 1.387 . S
C404 C405 1.387 . S
C404 H408 0.950 . S
C404 C413 1.390 . S
C405 C404 1.387 . S
C405 C407 1.387 . S
H406 C413 0.950 . S
C407 C405 1.387 . S
C407 C409 1.390 . S
C407 H411 0.950 1_554 S
H408 C404 0.950 . S
C409 C407 1.390 . S
C409 C410 1.387 . S
C409 H412 0.950 1_554 S
C410 C409 1.387 . S
C410 C413 1.387 . S
H411 C407 0.950 1_556 S
H412 C409 0.950 1_556 S
C413 C404 1.390 . S
C413 H406 0.950 . S
C413 C410 1.387 . S
C414 C415 1.387 . S
C414 H418 0.950 . S
C414 C423 1.390 . S
C415 C414 1.387 . S
C415 C417 1.387 . S
H416 C423 0.950 . S
C417 C415 1.387 . S
C417 C419 1.390 . S
C417 H421 0.950 . S
H418 C414 0.950 . S
C419 C417 1.390 . S
C419 C420 1.387 . S
C419 H422 0.950 . S
C420 C419 1.387 . S
C420 C423 1.387 . S
H421 C417 0.950 . S
H422 C419 0.950 . S
C423 C414 1.390 . S
C423 H416 0.950 . S
C423 C420 1.387 . S
C424 C425 1.387 . S
C424 H428 0.950 . S
C424 C433 1.390 . S
C425 C424 1.387 . S
C425 C427 1.387 1_456 S
H426 C433 0.950 . S
C427 C425 1.387 1_654 S
C427 C429 1.390 . S
C427 H431 0.950 . S
H428 C424 0.950 . S
C429 C427 1.390 . S
C429 C430 1.387 1_654 S
C429 H432 0.950 . S
C430 C429 1.387 1_456 S
C430 C433 1.387 . S
H431 C427 0.950 . S
H432 C429 0.950 . S
C433 C424 1.390 . S
C433 H426 0.950 . S
C433 C430 1.387 . S
C434 C435 1.387 . S
C434 H438 0.950 . S
C434 C443 1.390 . S
C435 C434 1.387 . S
C435 C437 1.387 1_544 S
H436 C443 0.950 . S
C437 C435 1.387 1_566 S
C437 C439 1.390 . S
C437 H441 0.950 . S
H438 C434 0.950 . S
C439 C437 1.390 . S
C439 C440 1.387 1_566 S
C439 H442 0.950 . S
C440 C439 1.387 1_544 S
C440 C443 1.387 . S
H441 C437 0.950 . S
H442 C439 0.950 . S
C443 C434 1.390 . S
C443 H436 0.950 . S
C443 C440 1.387 . S
C444 C445 1.387 . S
C444 H448 0.950 . S
C444 C453 1.390 . S
C445 C444 1.387 . S
C445 C447 1.387 . S
H446 C453 0.950 . S
C447 C445 1.387 . S
C447 C449 1.390 . S
C447 H451 0.950 . S
H448 C444 0.950 . S
C449 C447 1.390 . S
C449 C450 1.387 . S
C449 H452 0.950 . S
C450 C449 1.387 . S
C450 C453 1.387 . S
H451 C447 0.950 . S
H452 C449 0.950 . S
C453 C444 1.390 . S
C453 H446 0.950 . S
C453 C450 1.387 . S
C454 C455 1.387 . S
C454 H458 0.950 . S
C454 C463 1.390 . S
C455 C454 1.387 . S
C455 C457 1.387 . S
H456 C463 0.950 . S
C457 C455 1.387 . S
C457 C459 1.390 . S
C457 H461 0.950 . S
H458 C454 0.950 . S
C459 C457 1.390 . S
C459 C460 1.387 . S
C459 H462 0.950 . S
C460 C459 1.387 . S
C460 C463 1.387 . S
H461 C457 0.950 . S
H462 C459 0.950 . S
C463 C454 1.390 . S
C463 H456 0.950 . S
C463 C460 1.387 . S
C464 C465 1.387 1_455 S
C464 H468 0.950 . S
C464 C473 1.390 . S
C465 C464 1.387 1_655 S
C465 C467 1.387 . S
H466 C473 0.950 . S
C467 C465 1.387 . S
C467 C469 1.390 . S
C467 H471 0.950 . S
H468 C464 0.950 . S
C469 C467 1.390 . S
C469 C470 1.387 . S
C469 H472 0.950 . S
C470 C469 1.387 . S
C470 C473 1.387 1_655 S
H471 C467 0.950 . S
H472 C469 0.950 . S
C473 C464 1.390 . S
C473 H466 0.950 . S
C473 C470 1.387 1_455 S
C474 C475 1.387 . S
C474 H478 0.950 . S
C474 C483 1.390 . S
C475 C474 1.387 . S
C475 C477 1.387 1_565 S
H476 C483 0.950 . S
C477 C475 1.387 1_545 S
C477 C479 1.390 . S
C477 H481 0.950 . S
H478 C474 0.950 . S
C479 C477 1.390 . S
C479 C480 1.387 1_545 S
C479 H482 0.950 . S
C480 C479 1.387 1_565 S
C480 C483 1.387 . S
H481 C477 0.950 . S
H482 C479 0.950 . S
C483 C474 1.390 . S
C483 H476 0.950 . S
C483 C480 1.387 . S
C484 C485 1.387 . S
C484 H488 0.950 . S
C484 C493 1.390 . S
C485 C484 1.387 . S
C485 C487 1.387 . S
H486 C493 0.950 . S
C487 C485 1.387 . S
C487 C489 1.390 . S
C487 H491 0.950 . S
H488 C484 0.950 . S
C489 C487 1.390 . S
C489 C490 1.387 . S
C489 H492 0.950 . S
C490 C489 1.387 . S
C490 C493 1.387 . S
H491 C487 0.950 . S
H492 C489 0.950 . S
C493 C484 1.390 . S
C493 H486 0.950 . S
C493 C490 1.387 . S
C494 C495 1.387 . S
C494 H498 0.950 . S
C494 C503 1.390 . S
C495 C494 1.387 . S
C495 C497 1.387 . S
H496 C503 0.950 . S
C497 C495 1.387 . S
C497 C499 1.390 . S
C497 H501 0.950 . S
H498 C494 0.950 . S
C499 C497 1.390 . S
C499 C500 1.387 . S
C499 H502 0.950 . S
C500 C499 1.387 . S
C500 C503 1.387 . S
H501 C497 0.950 . S
H502 C499 0.950 . S
C503 C494 1.390 . S
C503 H496 0.950 . S
C503 C500 1.387 . S
C265 C82 1.946 . S
C270 C106 2.188 1_545 S
C280 C146 2.057 . S
C275 C95 1.898 . S
C290 C210 2.058 . S
C285 C56 1.735 . S
C300 C226 1.965 1_455 S
C295 C69 1.466 . S
C310 C127 2.191 1_564 S
C305 C30 1.953 1_565 S
C315 C43 1.855 . S
C320 C167 2.060 1_554 S
C325 C4 1.676 . S
C330 C201 2.058 . S
C335 C17 1.465 1_655 S
C340 C247 1.965 1_655 S
C350 C121 0.652 . S
C345 C74 0.643 . S
C360 C161 0.937 . S
C355 C87 0.932 1_565 S
C370 C197 1.067 . S
C365 C100 1.071 . S
C375 C61 0.959 . S
C380 C241 0.894 . S
C385 C22 0.644 1_655 S
C390 C130 0.651 . S
C400 C170 0.933 . S
C395 C35 0.931 . S
C410 C208 1.068 . S
C405 C48 1.069 . S
C415 C9 0.953 . S
C420 C250 0.900 . S
C425 C73 1.889 1_556 S
C430 C128 2.195 . S
C435 C86 2.034 . S
C440 C168 2.264 1_554 S
C450 C186 1.777 . S
C445 C99 1.747 . S
C460 C248 2.630 . S
C455 C60 2.284 . S
C465 C21 1.895 1_655 S
C470 C117 2.202 . S
C480 C157 2.263 . S
C475 C34 2.026 1_565 S
C490 C207 1.777 . S
C485 C47 1.743 . S
C495 C8 2.287 . S
C500 C237 2.635 . S
