# Generated by pormake.
# Topology anh, (6,3)-cn, num edge types: 1
# Building blocks:
#     Node 0, Type 0, BuildingBlock: BETDEL_clean_sbu_0, # of connection points: 6
#     Node 1, Type 0, BuildingBlock: BETDEL_clean_sbu_0, # of connection points: 6
#     Node 2, Type 0, BuildingBlock: BETDEL_clean_sbu_0, # of connection points: 6
#     Node 3, Type 1, BuildingBlock: PAMTOO_clean_linker_0, # of connection points: 3
#     Node 4, Type 1, BuildingBlock: PAMTOO_clean_linker_0, # of connection points: 3
#     Node 5, Type 1, BuildingBlock: PAMTOO_clean_linker_0, # of connection points: 3
#     Node 6, Type 1, BuildingBlock: PAMTOO_clean_linker_0, # of connection points: 3
#     Node 7, Type 1, BuildingBlock: PAMTOO_clean_linker_0, # of connection points: 3
#     Node 8, Type 1, BuildingBlock: PAMTOO_clean_linker_0, # of connection points: 3
#     Edge 9, Type (0, 1), BuildingBlock: UVAHIK_clean_linker_0, # of connection points: 2
#     Edge 10, Type (0, 1), BuildingBlock: UVAHIK_clean_linker_0, # of connection points: 2
#     Edge 11, Type (0, 1), BuildingBlock: UVAHIK_clean_linker_0, # of connection points: 2
#     Edge 12, Type (0, 1), BuildingBlock: UVAHIK_clean_linker_0, # of connection points: 2
#     Edge 13, Type (0, 1), BuildingBlock: UVAHIK_clean_linker_0, # of connection points: 2
#     Edge 14, Type (0, 1), BuildingBlock: UVAHIK_clean_linker_0, # of connection points: 2
#     Edge 15, Type (0, 1), BuildingBlock: UVAHIK_clean_linker_0, # of connection points: 2
#     Edge 16, Type (0, 1), BuildingBlock: UVAHIK_clean_linker_0, # of connection points: 2
#     Edge 17, Type (0, 1), BuildingBlock: UVAHIK_clean_linker_0, # of connection points: 2
#     Edge 18, Type (0, 1), BuildingBlock: UVAHIK_clean_linker_0, # of connection points: 2
#     Edge 19, Type (0, 1), BuildingBlock: UVAHIK_clean_linker_0, # of connection points: 2
#     Edge 20, Type (0, 1), BuildingBlock: UVAHIK_clean_linker_0, # of connection points: 2
#     Edge 21, Type (0, 1), BuildingBlock: UVAHIK_clean_linker_0, # of connection points: 2
#     Edge 22, Type (0, 1), BuildingBlock: UVAHIK_clean_linker_0, # of connection points: 2
#     Edge 23, Type (0, 1), BuildingBlock: UVAHIK_clean_linker_0, # of connection points: 2
#     Edge 24, Type (0, 1), BuildingBlock: UVAHIK_clean_linker_0, # of connection points: 2
#     Edge 25, Type (0, 1), BuildingBlock: UVAHIK_clean_linker_0, # of connection points: 2
#     Edge 26, Type (0, 1), BuildingBlock: UVAHIK_clean_linker_0, # of connection points: 2
# Relax obj value: 0.087
# Max RMSD: 0.132
# Mean RMSD: 0.100
data_MOF--net-anh--node1-BETDEL_clean_sbu_0--node2-PAMTOO_clean_linker_0--edge1-UVAHIK_clean_linker_0
_symmetry_space_group_name_H-M    P1
_symmetry_Int_Tables_number       1
_symmetry_cell_setting            triclinic
loop_
_symmetry_equiv_pos_as_xyz
'x, y, z'
_cell_length_a     38.492618
_cell_length_b     38.540444
_cell_length_c     62.061124
_cell_angle_alpha  86.078847
_cell_angle_beta   91.729142
_cell_angle_gamma 120.03149
loop_
_atom_site_label
_atom_site_type_symbol
_atom_site_fract_x
_atom_site_fract_y
_atom_site_fract_z
_atom_type_partial_charge
Dy0 Dy 0.08431 0.51301 0.16763 0.0
C1 C 0.98694 0.58402 0.18777 0.0
C2 C 0.1363 0.48685 0.15963 0.0
Dy3 Dy 0.03531 0.55897 0.17189 0.0
O4 O 0.1327 0.49949 0.17781 0.0
O5 O 0.11139 0.48853 0.1455 0.0
O6 O 0.06169 0.48362 0.20058 0.0
O7 O 0.07099 0.54152 0.19292 0.0
C8 C 0.05794 0.51291 0.20713 0.0
C9 C 0.04681 0.55166 0.13006 0.0
O10 O 0.09788 0.60871 0.17746 0.0
O11 O 0.13232 0.57873 0.16443 0.0
O12 O 1.01588 0.60479 0.17387 0.0
O13 O 0.98536 0.55013 0.19338 0.0
O14 O 0.02866 0.57027 0.13597 0.0
O15 O 0.05666 0.53881 0.14686 0.0
O16 O 0.022 0.46294 0.16126 0.0
O17 O 0.98813 0.49349 0.17417 0.0
C18 C 0.13149 0.61047 0.17115 0.0
C19 C 0.98856 0.46163 0.1675 0.0
Dy20 Dy 0.5221 0.05908 0.50077 0.0
C21 C 0.68949 0.15359 0.52677 0.0
C22 C 0.44422 1.00645 0.49147 0.0
Dy23 Dy 0.61673 0.10825 0.50816 0.0
O24 O 0.46122 1.00833 0.51006 0.0
O25 O 0.46986 0.03356 0.47765 0.0
O26 O 0.51466 0.08007 0.53226 0.0
O27 O 0.56347 0.07114 0.52788 0.0
C28 C 0.54762 0.0836 0.54048 0.0
C29 C 0.5991 0.10021 0.46567 0.0
O30 O 0.60456 0.04515 0.51431 0.0
O31 O 0.54077 1.01234 0.49891 0.0
O32 O 0.68119 0.12543 0.51371 0.0
O33 O 0.65775 0.15635 0.5299 0.0
O34 O 0.63565 0.11863 0.47291 0.0
O35 O 0.57587 0.08862 0.48161 0.0
O36 O 0.5341 0.12159 0.49203 0.0
O37 O 0.59781 0.15504 0.50753 0.0
C38 C 0.57339 1.01252 0.50688 0.0
C39 C 0.56556 0.15469 0.49889 0.0
Dy40 Dy 0.63271 0.61016 0.82734 0.0
C41 C 0.56645 0.44028 0.84166 0.0
C42 C 0.67026 0.68878 0.81277 0.0
Dy43 Dy 0.59067 0.51969 0.83378 0.0
O44 O 0.67926 0.67495 0.83046 0.0
O45 O 0.64121 0.6595 0.80288 0.0
O46 O 0.61059 0.61465 0.85929 0.0
O47 O 0.62323 0.56836 0.8553 0.0
C48 C 0.60905 0.58239 0.86802 0.0
C49 C 0.58856 0.54825 0.79335 0.0
O50 O 0.54051 0.52983 0.84238 0.0
O51 O 0.5673 0.59149 0.82319 0.0
O52 O 0.57444 0.4594 0.82288 0.0
O53 O 0.57143 0.46452 0.85657 0.0
O54 O 0.55888 0.51634 0.80253 0.0
O55 O 0.61824 0.56259 0.80588 0.0
O56 O 0.68727 0.60313 0.82668 0.0
O57 O 0.65484 0.53407 0.83425 0.0
C58 C 0.5368 0.56009 0.83347 0.0
C59 C 0.68801 0.56921 0.83063 0.0
H60 H 0.62064 0.11577 0.23984 0.0
H61 H 0.51744 0.99902 0.23227 0.0
H62 H 0.59599 0.06292 0.17829 0.0
H63 H 0.50883 1.00331 0.16216 0.0
C64 C 0.4989 0.9949 0.17929 0.0
O65 O 0.53024 0.9965 0.19156 0.0
H66 H 0.49079 0.01717 0.18434 0.0
C67 C 0.6016 0.09151 0.22968 0.0
C68 C 0.61232 0.09407 0.20793 0.0
C69 C 0.56773 0.05734 0.23875 0.0
C70 C 0.5439 0.02549 0.22566 0.0
C71 C 0.55383 0.02759 0.20389 0.0
C72 C 0.58835 0.0616 0.1951 0.0
H73 H 0.60068 0.66342 0.56456 0.0
H74 H 0.59002 0.54935 0.55405 0.0
H75 H 0.57925 0.62021 0.50053 0.0
H76 H 0.52847 0.52413 0.49502 0.0
C77 C 0.54323 0.51847 0.50942 0.0
O78 O 0.57955 0.55302 0.51247 0.0
H79 H 0.52299 0.5107 0.52358 0.0
C80 C 0.59671 0.64093 0.55364 0.0
C81 C 0.5907 0.64667 0.53153 0.0
C82 C 0.59604 0.60584 0.56199 0.0
C83 C 0.59 0.57635 0.54791 0.0
C84 C 0.58391 0.58138 0.52581 0.0
C85 C 0.58377 0.61634 0.51764 0.0
H86 H 0.03228 0.55143 0.90329 0.0
H87 H 0.14752 0.56033 0.89643 0.0
H88 H 0.08515 0.57165 0.84023 0.0
H89 H 0.13527 0.53189 0.83077 0.0
C90 C 0.15072 0.53818 0.84664 0.0
O91 O 0.15016 0.57069 0.85447 0.0
H92 H 0.13413 0.51089 0.85771 0.0
C93 C 0.05643 0.555 0.89313 0.0
C94 C 0.05429 0.56117 0.87067 0.0
C95 C 0.08999 0.55499 0.90269 0.0
C96 C 0.1216 0.56076 0.88942 0.0
C97 C 0.11972 0.56629 0.86696 0.0
C98 C 0.08635 0.56711 0.8576 0.0
H99 H 1.0044 0.49369 0.43788 0.0
H100 H 0.0863 0.62114 0.43589 0.0
H101 H 0.02826 0.55834 0.49546 0.0
H102 H 0.04585 0.64768 0.49194 0.0
C103 C 0.06369 0.65423 0.47693 0.0
O104 O 0.07843 0.62818 0.47665 0.0
H105 H 0.04342 0.65047 0.46297 0.0
C106 C 0.01986 0.52153 0.44597 0.0
C107 C 1.01314 0.52133 0.46813 0.0
C108 C 0.04592 0.55727 0.43405 0.0
C109 C 0.06577 0.5932 0.44466 0.0
C110 C 0.05927 0.59338 0.46671 0.0
C111 C 0.03321 0.5576 0.47845 0.0
H112 H 0.66532 0.05223 0.74962 0.0
H113 H 0.64412 0.13891 0.77767 0.0
H114 H 0.68291 0.06965 0.81782 0.0
H115 H 0.63772 0.09821 0.8464 0.0
C116 C 0.62969 0.10818 0.83076 0.0
O117 O 0.66264 0.12491 0.81714 0.0
H118 H 0.60393 0.08101 0.82413 0.0
C119 C 0.66473 0.06708 0.76371 0.0
C120 C 0.67549 0.05691 0.78399 0.0
C121 C 0.65319 0.09635 0.76126 0.0
C122 C 0.65334 0.11652 0.77927 0.0
C123 C 0.66418 0.10678 0.7996 0.0
C124 C 0.67554 0.07739 0.8019 0.0
H125 H 0.64222 0.54774 0.10232 0.0
H126 H 0.51358 0.49484 0.1021 0.0
H127 H 0.57599 0.50995 0.16217 0.0
H128 H 0.4866 0.43318 0.1632 0.0
C129 C 0.47995 0.44374 0.14733 0.0
O130 O 0.50584 0.48446 0.14391 0.0
H131 H 0.4837 0.42669 0.13467 0.0
C132 C 0.61394 0.53505 0.1109 0.0
C133 C 0.61366 0.53125 0.13359 0.0
C134 C 0.57804 0.52163 0.09924 0.0
C135 C 0.54161 0.50449 0.11064 0.0
C136 C 0.54099 0.49995 0.13321 0.0
C137 C 0.57684 0.51302 0.14467 0.0
C138 C 0.18663 0.46877 0.17355 0.0
C139 C 0.16512 0.47326 0.15597 0.0
C140 C 0.21522 0.45747 0.17048 0.0
C141 C 0.28444 0.46197 0.13021 0.0
H142 H 0.2972 0.38997 0.17227 0.0
C143 C 0.41865 0.43459 0.12695 0.0
C144 C 0.43776 0.43632 0.1468 0.0
C145 C 0.38113 0.4321 0.12623 0.0
C146 C 0.2941 0.4102 0.16041 0.0
H147 H 0.15603 0.469 0.12143 0.0
H148 H 0.20674 0.44947 0.11594 0.0
H149 H 0.23836 0.39792 0.17404 0.0
H150 H 0.43336 0.43754 0.18138 0.0
H151 H 0.36789 0.43331 0.18025 0.0
H152 H 0.34087 0.47536 0.11704 0.0
C153 C 0.20131 0.4547 0.1321 0.0
C154 C 0.26038 0.41469 0.1614 0.0
C155 C 0.17229 0.46572 0.13523 0.0
C156 C 0.41874 0.43534 0.16593 0.0
C157 C 0.38124 0.4328 0.16524 0.0
C158 C 0.31826 0.45755 0.12924 0.0
C159 C 0.22315 0.45061 0.14973 0.0
C160 C 0.25572 0.44142 0.14666 0.0
C161 C 0.36219 0.43161 0.14537 0.0
C162 C 0.32396 0.43239 0.14469 0.0
H163 H 0.1817 0.47442 0.18972 0.0
H164 H 0.23197 0.45524 0.18432 0.0
H165 H 0.28186 0.48305 0.11875 0.0
H166 H 0.43319 0.43601 0.11197 0.0
H167 H 0.36718 0.43104 0.11069 0.0
C168 C 0.73703 0.21975 0.54115 0.0
C169 C 0.73048 0.18436 0.53238 0.0
C170 C 0.7755 0.25339 0.54107 0.0
C171 C 0.86263 0.29553 0.50583 0.0
H172 H 0.90198 0.38608 0.54187 0.0
C173 C 0.94869 0.45586 0.47031 0.0
C174 C 0.9847 0.48311 0.4801 0.0
C175 C 0.9233 0.41841 0.48047 0.0
C176 C 0.8917 0.36085 0.53183 0.0
H177 H 0.75928 0.15446 0.51918 0.0
H178 H 0.8267 0.2129 0.5195 0.0
H179 H 0.84924 0.31957 0.55561 0.0
H180 H 0.02143 0.493 0.50876 0.0
H181 H 0.9761 0.42725 0.52685 0.0
H182 H 0.90387 0.33685 0.48181 0.0
C183 C 0.80205 0.21515 0.52586 0.0
C184 C 0.86143 0.32289 0.53962 0.0
C185 C 0.76351 0.18162 0.52578 0.0
C186 C 0.99383 0.47268 0.50083 0.0
C187 C 0.96807 0.43509 0.51114 0.0
C188 C 0.89261 0.3333 0.49808 0.0
C189 C 0.80808 0.25207 0.53232 0.0
C190 C 0.84565 0.29008 0.5264 0.0
C191 C 0.93303 0.40735 0.50079 0.0
C192 C 0.90638 0.36658 0.51068 0.0
H193 H 0.71204 0.22255 0.54647 0.0
H194 H 0.77892 0.28127 0.54612 0.0
H195 H 0.85102 0.27122 0.49506 0.0
H196 H 0.94018 0.46335 0.45464 0.0
H197 H 0.89594 0.39796 0.47238 0.0
C198 C 0.66936 0.74313 0.78912 0.0
C199 C 0.68571 0.73166 0.80679 0.0
C200 C 0.67914 0.78313 0.78535 0.0
C201 C 0.71142 0.87324 0.81527 0.0
H202 H 0.71101 0.9206 0.75817 0.0
C203 C 0.71507 0.02572 0.80039 0.0
C204 C 0.68475 0.0237 0.78638 0.0
C205 C 0.72338 0.99418 0.80239 0.0
C206 C 0.71135 0.90779 0.77421 0.0
H207 H 0.72695 0.75308 0.83364 0.0
H208 H 0.74471 0.82329 0.82685 0.0
H209 H 0.71327 0.85832 0.76185 0.0
H210 H 0.63862 0.98619 0.76404 0.0
H211 H 0.6538 0.93207 0.76716 0.0
H212 H 0.70868 0.92246 0.82755 0.0
C213 C 0.72372 0.80129 0.81613 0.0
C214 C 0.71253 0.87211 0.77634 0.0
C215 C 0.71379 0.76118 0.81994 0.0
C216 C 0.66293 0.9894 0.77452 0.0
C217 C 0.67155 0.95827 0.77633 0.0
C218 C 0.71057 0.90915 0.81313 0.0
C219 C 0.70564 0.81254 0.79914 0.0
C220 C 0.71126 0.8537 0.79688 0.0
C221 C 0.70183 0.9603 0.79025 0.0
C222 C 0.70923 0.92604 0.79258 0.0
H223 H 0.64756 0.72092 0.77876 0.0
H224 H 0.66423 0.79052 0.77228 0.0
H225 H 0.70996 0.85973 0.83135 0.0
H226 H 0.73267 0.05182 0.80963 0.0
H227 H 0.74689 0.99643 0.81326 0.0
C228 C 0.95544 0.62687 0.18217 0.0
C229 C 0.95439 0.59238 0.19184 0.0
C230 C 0.92081 0.63005 0.18144 0.0
C231 C 0.81404 0.58092 0.19995 0.0
H232 H 0.79691 0.60827 0.14083 0.0
C233 C 0.65714 0.52219 0.16173 0.0
C234 C 0.65205 0.54638 0.14544 0.0
C235 C 0.69477 0.53501 0.17118 0.0
C236 C 0.80128 0.60135 0.15755 0.0
H237 H 0.91767 0.53593 0.2101 0.0
H238 H 0.85714 0.54108 0.20855 0.0
H239 H 0.86258 0.61979 0.15166 0.0
H240 H 0.68131 0.60407 0.12741 0.0
H241 H 0.74674 0.62678 0.1441 0.0
H242 H 0.75194 0.56103 0.20548 0.0
C243 C 0.88456 0.56589 0.20165 0.0
C244 C 0.83913 0.60806 0.1638 0.0
C245 C 0.91926 0.56283 0.20248 0.0
C246 C 0.68464 0.5845 0.13964 0.0
C247 C 0.72209 0.59745 0.14919 0.0
C248 C 0.77601 0.57422 0.19367 0.0
C249 C 0.88447 0.59866 0.19025 0.0
C250 C 0.84583 0.59717 0.18494 0.0
C251 C 0.72793 0.57241 0.16462 0.0
C252 C 0.76902 0.58361 0.17226 0.0
H253 H 0.98228 0.65024 0.17399 0.0
H254 H 0.92195 0.65612 0.17295 0.0
H255 H 0.81832 0.57257 0.21641 0.0
H256 H 0.63251 0.49261 0.16645 0.0
H257 H 0.69826 0.51477 0.18285 0.0
C258 C 0.38724 0.9703 0.46592 0.0
C259 C 0.40213 0.97682 0.48708 0.0
C260 C 0.34773 0.94011 0.46217 0.0
C261 C 0.24956 0.87609 0.48929 0.0
H262 H 0.23368 0.79798 0.44827 0.0
C263 C 0.11608 0.71521 0.49504 0.0
C264 C 0.09842 0.69646 0.47595 0.0
C265 C 0.15042 0.75318 0.4942 0.0
C266 C 0.23735 0.81988 0.4595 0.0
H267 H 0.3875 0.95795 0.52088 0.0
H268 H 0.3189 0.90579 0.5144 0.0
H269 H 0.29885 0.859 0.45032 0.0
H270 H 0.10289 0.70182 0.44107 0.0
H271 H 0.16284 0.7687 0.43949 0.0
H272 H 0.18847 0.83669 0.49885 0.0
C273 C 0.33737 0.92387 0.5007 0.0
C274 C 0.2747 0.85485 0.46065 0.0
C275 C 0.37676 0.95356 0.5044 0.0
C276 C 0.11572 0.71615 0.45598 0.0
C277 C 0.15012 0.75417 0.45511 0.0
C278 C 0.21224 0.84127 0.48809 0.0
C279 C 0.3225 0.91651 0.47956 0.0
C280 C 0.28147 0.88274 0.47598 0.0
C281 C 0.16802 0.77302 0.47424 0.0
C282 C 0.20601 0.81223 0.4736 0.0
H283 H 0.40632 0.98787 0.45231 0.0
H284 H 0.33696 0.93511 0.44572 0.0
H285 H 0.25376 0.89742 0.50102 0.0
H286 H 0.10371 0.70013 0.51062 0.0
H287 H 0.16392 0.76642 0.50925 0.0
C288 C 0.57329 0.38687 0.86339 0.0
C289 C 0.55921 0.39904 0.84495 0.0
C290 C 0.57471 0.35116 0.86388 0.0
C291 C 0.58263 0.28751 0.82488 0.0
H292 H 0.56954 0.21617 0.87499 0.0
C293 C 0.59443 0.14591 0.81819 0.0
C294 C 0.61714 0.13862 0.83403 0.0
C295 C 0.58381 0.17514 0.82072 0.0
C296 C 0.5735 0.23603 0.8609 0.0
H297 H 0.53217 0.38226 0.8135 0.0
H298 H 0.5329 0.31943 0.81469 0.0
H299 H 0.55477 0.27057 0.87792 0.0
H300 H 0.64716 0.15625 0.86474 0.0
H301 H 0.62866 0.20762 0.86922 0.0
H302 H 0.60161 0.25348 0.80788 0.0
C303 C 0.54433 0.33784 0.82844 0.0
C304 C 0.56505 0.26714 0.86258 0.0
C305 C 0.54352 0.37362 0.82783 0.0
C306 C 0.62919 0.16108 0.85244 0.0
C307 C 0.61843 0.19026 0.85504 0.0
C308 C 0.59088 0.25648 0.82319 0.0
C309 C 0.56167 0.32709 0.84599 0.0
C310 C 0.56941 0.29317 0.84454 0.0
C311 C 0.59587 0.1978 0.83911 0.0
C312 C 0.58639 0.23035 0.84114 0.0
H313 H 0.5858 0.40622 0.87672 0.0
H314 H 0.58828 0.34378 0.87765 0.0
H315 H 0.58748 0.30765 0.8108 0.0
H316 H 0.58507 0.12906 0.80381 0.0
H317 H 0.56614 0.18002 0.80825 0.0
C318 C 0.60817 0.97283 0.51633 0.0
C319 C 0.57504 0.97461 0.50737 0.0
C320 C 0.60995 0.93736 0.51657 0.0
C321 C 0.54609 0.82695 0.51234 0.0
H322 H 0.64828 0.83296 0.5035 0.0
C323 C 0.56001 0.68366 0.51115 0.0
C324 C 0.59147 0.68447 0.52362 0.0
C325 C 0.55829 0.71897 0.5065 0.0
C326 C 0.61951 0.83071 0.5061 0.0
H327 H 0.51776 0.94001 0.49154 0.0
H328 H 0.52109 0.87849 0.49175 0.0
H329 H 0.64436 0.8943 0.50111 0.0
H330 H 0.64686 0.72322 0.53996 0.0
H331 H 0.64401 0.78445 0.53187 0.0
H332 H 0.52136 0.76332 0.5175 0.0
C333 C 0.54552 0.90438 0.49888 0.0
C334 C 0.61727 0.86597 0.5048 0.0
C335 C 0.54371 0.93986 0.49867 0.0
C336 C 0.62209 0.72158 0.53042 0.0
C337 C 0.62057 0.75677 0.52565 0.0
C338 C 0.54832 0.79165 0.51358 0.0
C339 C 0.57869 0.9026 0.50781 0.0
C340 C 0.58064 0.86471 0.50819 0.0
C341 C 0.58826 0.7559 0.514 0.0
C342 C 0.58517 0.79308 0.51077 0.0
H343 H 0.63285 0.99884 0.52326 0.0
H344 H 0.63568 0.93707 0.52392 0.0
H345 H 0.51743 0.82469 0.51529 0.0
H346 H 0.53587 0.6555 0.50579 0.0
H347 H 0.5332 0.71727 0.49728 0.0
C348 C 0.72876 0.53557 0.83892 0.0
C349 C 0.7272 0.57011 0.83156 0.0
C350 C 0.76529 0.53597 0.84029 0.0
C351 C 0.87587 0.6048 0.84251 0.0
H352 H 0.87769 0.50745 0.83262 0.0
C353 C 0.02201 0.59442 0.8483 0.0
C354 C 1.01831 0.56149 0.86139 0.0
C355 C 0.98777 0.59659 0.84191 0.0
C356 C 0.87769 0.53487 0.83547 0.0
H357 H 0.76333 0.63225 0.81967 0.0
H358 H 0.82711 0.63275 0.8216 0.0
H359 H 0.81607 0.50977 0.82648 0.0
H360 H 0.97597 0.50438 0.87733 0.0
H361 H 0.91641 0.50768 0.86587 0.0
H362 H 0.93779 0.62977 0.85142 0.0
C363 C 0.80001 0.60543 0.8267 0.0
C364 C 0.84224 0.53619 0.83206 0.0
C365 C 0.76333 0.60511 0.82547 0.0
C366 C 0.97972 0.53012 0.86725 0.0
C367 C 0.9456 0.53196 0.86061 0.0
C368 C 0.91151 0.60359 0.8457 0.0
C369 C 0.80152 0.57082 0.83415 0.0
C370 C 0.84048 0.57086 0.83598 0.0
C371 C 0.94917 0.5655 0.84817 0.0
C372 C 0.91262 0.56833 0.84263 0.0
H373 H 0.70172 0.5081 0.84395 0.0
H374 H 0.76506 0.50896 0.84658 0.0
H375 H 0.87577 0.63192 0.84593 0.0
H376 H 0.0514 0.61917 0.8437 0.0
H377 H 0.9915 0.6227 0.83223 0.0
C378 C 0.20586 0.65423 0.164 0.0
C379 C 0.1699 0.64933 0.17226 0.0
C380 C 0.24193 0.6908 0.16524 0.0
C381 C 0.28157 0.79928 0.17365 0.0
H382 H 0.38187 0.80052 0.18462 0.0
C383 C 0.42758 0.94561 0.19153 0.0
C384 C 0.46256 0.95309 0.18087 0.0
C385 C 0.39272 0.90791 0.19127 0.0
C386 C 0.35417 0.80073 0.18138 0.0
H387 H 0.14416 0.67934 0.18855 0.0
H388 H 0.20676 0.74241 0.19105 0.0
H389 H 0.31961 0.73647 0.18235 0.0
H390 H 0.48905 0.92661 0.16234 0.0
H391 H 0.42817 0.86048 0.16192 0.0
H392 H 0.31607 0.86347 0.17285 0.0
C393 C 0.20711 0.71837 0.18318 0.0
C394 C 0.31839 0.76394 0.18001 0.0
C395 C 0.17108 0.68194 0.18185 0.0
C396 C 0.46244 0.92159 0.17066 0.0
C397 C 0.4276 0.88375 0.17049 0.0
C398 C 0.31725 0.83597 0.17515 0.0
C399 C 0.24311 0.72345 0.17485 0.0
C400 C 0.2815 0.76265 0.17615 0.0
C401 C 0.39204 0.87662 0.18047 0.0
C402 C 0.35406 0.83725 0.17906 0.0
H403 H 0.20619 0.62989 0.15644 0.0
H404 H 0.26879 0.6936 0.15836 0.0
H405 H 0.25406 0.79974 0.17022 0.0
H406 H 0.4269 0.96924 0.19968 0.0
H407 H 0.36616 0.90333 0.19947 0.0
C408 C 0.59448 0.22643 0.50826 0.0
C409 C 0.56432 0.19285 0.49809 0.0
C410 C 0.59276 0.2618 0.50863 0.0
C411 C 0.54828 0.31885 0.48157 0.0
H412 H 0.57244 0.37154 0.53547 0.0
C413 C 0.52204 0.45217 0.49337 0.0
C414 C 0.54891 0.48287 0.50636 0.0
C415 C 0.52459 0.41742 0.49173 0.0
C416 C 0.56622 0.35773 0.52016 0.0
H417 H 0.50895 0.17083 0.47997 0.0
H418 H 0.50615 0.23285 0.48049 0.0
H419 H 0.57546 0.31024 0.53353 0.0
H420 H 0.59873 0.50038 0.52849 0.0
H421 H 0.60424 0.44057 0.52512 0.0
H422 H 0.53953 0.36657 0.46808 0.0
C423 C 0.53119 0.23164 0.48817 0.0
C424 C 0.56781 0.32236 0.51908 0.0
C425 C 0.53272 0.19599 0.48794 0.0
C426 C 0.57813 0.47773 0.51795 0.0
C427 C 0.5809 0.44308 0.51621 0.0
C428 C 0.54699 0.35445 0.48259 0.0
C429 C 0.56099 0.26486 0.49873 0.0
C430 C 0.55888 0.30242 0.49978 0.0
C431 C 0.55399 0.41222 0.50318 0.0
C432 C 0.55591 0.37447 0.50192 0.0
H433 H 0.61935 0.22536 0.51626 0.0
H434 H 0.61652 0.28691 0.51664 0.0
H435 H 0.54169 0.30459 0.46637 0.0
H436 H 0.49852 0.45478 0.4847 0.0
H437 H 0.50273 0.39416 0.48191 0.0
C438 C 0.49418 0.59259 0.82794 0.0
C439 C 0.49771 0.55899 0.83499 0.0
C440 C 0.45748 0.5917 0.82945 0.0
C441 C 0.3481 0.52165 0.83341 0.0
H442 H 0.34424 0.61359 0.85224 0.0
C443 C 0.20361 0.53227 0.82666 0.0
C444 C 0.19319 0.54604 0.84441 0.0
C445 C 0.24131 0.53533 0.82546 0.0
C446 C 0.34477 0.5876 0.84704 0.0
H447 H 0.46505 0.49806 0.84924 0.0
H448 H 0.40111 0.49647 0.85177 0.0
H449 H 0.40863 0.61554 0.85067 0.0
H450 H 0.21386 0.5729 0.8751 0.0
H451 H 0.28012 0.57881 0.87291 0.0
H452 H 0.28432 0.49359 0.82988 0.0
C453 C 0.42674 0.52348 0.84495 0.0
C454 C 0.38174 0.58885 0.84595 0.0
C455 C 0.46352 0.52447 0.84359 0.0
C456 C 0.2214 0.56295 0.86097 0.0
C457 C 0.25931 0.56627 0.85971 0.0
C458 C 0.31124 0.52054 0.83432 0.0
C459 C 0.42321 0.55708 0.8379 0.0
C460 C 0.38388 0.55585 0.83915 0.0
C461 C 0.26958 0.55204 0.84204 0.0
C462 C 0.30904 0.55348 0.84113 0.0
H463 H 0.51982 0.61975 0.82126 0.0
H464 H 0.4558 0.61797 0.82367 0.0
H465 H 0.34862 0.49584 0.82791 0.0
H466 H 0.18224 0.51844 0.81384 0.0
H467 H 0.24827 0.52441 0.81152 0.0
C468 C 0.91473 0.42124 0.17548 0.0
C469 C 0.94983 0.42274 0.16828 0.0
C470 C 0.87866 0.38483 0.1778 0.0
C471 C 0.82301 0.27985 0.16187 0.0
H472 H 0.76306 0.26338 0.21432 0.0
C473 C 0.67886 0.12821 0.18815 0.0
C474 C 0.64895 0.13077 0.19922 0.0
C475 C 0.71555 0.16297 0.18266 0.0
C476 C 0.77897 0.26756 0.19941 0.0
H477 H 0.97371 0.38663 0.15719 0.0
H478 H 0.91029 0.32273 0.16122 0.0
H479 H 0.82677 0.32477 0.20799 0.0
H480 H 0.63299 0.17198 0.21185 0.0
H481 H 0.69599 0.23228 0.20188 0.0
H482 H 0.77472 0.22249 0.15327 0.0
C483 C 0.911 0.35007 0.16505 0.0
C484 C 0.81572 0.30286 0.19581 0.0
C485 C 0.94739 0.38671 0.16282 0.0
C486 C 0.65569 0.16893 0.20365 0.0
C487 C 0.69202 0.20352 0.19805 0.0
C488 C 0.78593 0.24441 0.16543 0.0
C489 C 0.87635 0.34864 0.17295 0.0
C490 C 0.83807 0.30979 0.1769 0.0
C491 C 0.72298 0.20106 0.18802 0.0
C492 C 0.76313 0.23802 0.18416 0.0
H493 H 0.91506 0.4482 0.17971 0.0
H494 H 0.85246 0.38504 0.18351 0.0
H495 H 0.83938 0.28428 0.14709 0.0
H496 H 0.67462 0.0992 0.18462 0.0
H497 H 0.73862 0.15978 0.17501 0.0
C498 C 0.07089 0.52453 0.10192 0.0
C499 C 0.05696 0.55012 0.10756 0.0
C500 C 0.07982 0.52343 0.08032 0.0
C501 C 0.10477 0.58313 0.02818 0.0
H502 H 0.06086 0.48094 0.00209 0.0
C503 C 0.05821 0.52131 0.93852 0.0
C504 C 0.09213 0.54996 0.92657 0.0
C505 C 0.05901 0.51891 0.96108 0.0
C506 C 0.07343 0.5097 0.00918 0.0
H507 H 0.04135 0.59451 0.09523 0.0
H508 H 0.057 0.59279 0.05775 0.0
H509 H 0.05288 0.48229 0.04095 0.0
H510 H 0.15394 0.59765 0.92896 0.0
H511 H 0.15543 0.59329 0.96841 0.0
H512 H 0.12409 0.61063 0.99644 0.0
C513 C 0.06144 0.57382 0.0699 0.0
C514 C 0.06918 0.51046 0.03144 0.0
C515 C 0.0522 0.57459 0.09134 0.0
C516 C 0.12737 0.57516 0.93769 0.0
C517 C 0.12811 0.57289 0.96028 0.0
C518 C 0.10924 0.58238 0.006 0.0
C519 C 0.07535 0.54827 0.06411 0.0
C520 C 0.08399 0.5472 0.04108 0.0
C521 C 0.09372 0.5452 0.97224 0.0
C522 C 0.09289 0.54567 0.99615 0.0
H523 H 0.07432 0.50506 0.11412 0.0
H524 H 0.09046 0.50342 0.07632 0.0
H525 H 0.11689 0.61191 0.0352 0.0
H526 H 0.03077 0.50114 0.9304 0.0
H527 H 0.0319 0.49748 0.96978 0.0
C528 C 0.54846 0.07462 0.43572 0.0
C529 C 0.58823 0.09104 0.44292 0.0
C530 C 0.53913 0.06586 0.41401 0.0
C531 C 0.57749 0.04453 0.36591 0.0
H532 H 0.51528 0.08304 0.33267 0.0
C533 C 0.56169 0.08798 0.27188 0.0
C534 C 0.5586 0.05467 0.26212 0.0
C535 C 0.55742 0.08707 0.29423 0.0
C536 C 0.53255 0.07194 0.34178 0.0
H537 H 0.64941 0.11134 0.43321 0.0
H538 H 0.63323 0.09585 0.3956 0.0
H539 H 0.52361 0.09163 0.37159 0.0
H540 H 0.54706 0.99373 0.26811 0.0
H541 H 0.53945 0.99208 0.30719 0.0
H542 H 0.58762 0.026 0.33617 0.0
C543 C 0.60915 0.08946 0.40661 0.0
C544 C 0.53703 0.07657 0.36406 0.0
C545 C 0.61844 0.09859 0.42813 0.0
C546 C 0.54945 0.01981 0.27513 0.0
C547 C 0.54543 0.01899 0.29752 0.0
C548 C 0.57275 0.03961 0.34373 0.0
C549 C 0.56942 0.0729 0.39929 0.0
C550 C 0.56037 0.06377 0.37625 0.0
C551 C 0.55016 0.0529 0.30737 0.0
C552 C 0.55094 0.05401 0.33131 0.0
H553 H 0.52472 0.0688 0.4468 0.0
H554 H 0.50825 0.05312 0.4088 0.0
H555 H 0.59532 0.03399 0.37493 0.0
H556 H 0.56828 0.11512 0.26224 0.0
H557 H 0.56155 0.1138 0.3013 0.0
C558 C 0.55931 0.53283 0.75656 0.0
C559 C 0.59088 0.55809 0.76986 0.0
C560 C 0.56255 0.53949 0.73415 0.0
C561 C 0.61291 0.61497 0.69005 0.0
H562 H 0.58674 0.52318 0.65696 0.0
C563 C 0.63031 0.63067 0.59724 0.0
C564 C 0.60021 0.59973 0.58556 0.0
C565 C 0.63231 0.62604 0.6197 0.0
C566 C 0.5937 0.54905 0.66589 0.0
H567 H 0.64995 0.61106 0.77029 0.0
H568 H 0.65529 0.62328 0.73086 0.0
H569 H 0.58317 0.51538 0.69625 0.0
H570 H 0.54881 0.53962 0.58816 0.0
H571 H 0.55154 0.53172 0.62734 0.0
H572 H 0.62215 0.64844 0.65977 0.0
C573 C 0.62823 0.59811 0.73787 0.0
C574 C 0.59179 0.54457 0.68841 0.0
C575 C 0.6252 0.59112 0.76037 0.0
C576 C 0.57263 0.56376 0.59673 0.0
C577 C 0.57432 0.55926 0.61921 0.0
C578 C 0.61434 0.61937 0.66748 0.0
C579 C 0.59722 0.57186 0.72456 0.0
C580 C 0.60103 0.57738 0.70071 0.0
C581 C 0.60396 0.59049 0.63103 0.0
C582 C 0.60442 0.58637 0.65508 0.0
H583 H 0.53242 0.50724 0.76344 0.0
H584 H 0.53796 0.51916 0.72427 0.0
H585 H 0.61992 0.64067 0.69916 0.0
H586 H 0.65222 0.65858 0.58898 0.0
H587 H 0.65604 0.6504 0.62816 0.0
C588 C 0.59553 0.09516 0.57096 0.0
C589 C 0.5618 0.09613 0.56246 0.0
C590 C 0.60682 0.10397 0.59242 0.0
C591 C 0.56206 0.0999 0.64443 0.0
H592 H 0.67245 0.15447 0.66396 0.0
C593 C 0.65827 0.14241 0.72935 0.0
C594 C 0.63946 0.10393 0.73987 0.0
C595 C 0.64823 0.14795 0.70799 0.0
C596 C 0.64147 0.13971 0.65875 0.0
H597 H 0.51456 0.10888 0.56926 0.0
H598 H 0.53424 0.1243 0.60669 0.0
H599 H 0.65807 0.15383 0.62527 0.0
H600 H 0.5943 0.04158 0.73697 0.0
H601 H 0.57639 0.05121 0.69994 0.0
H602 H 0.54546 0.08494 0.67781 0.0
C603 C 0.55168 0.11626 0.59692 0.0
C604 C 0.63326 0.13896 0.6366 0.0
C605 C 0.54049 0.10754 0.57548 0.0
C606 C 0.60927 0.07152 0.72913 0.0
C607 C 0.59889 0.07711 0.708 0.0
C608 C 0.57027 0.10044 0.6665 0.0
C609 C 0.58449 0.1138 0.60577 0.0
C610 C 0.59347 0.11839 0.6292 0.0
C611 C 0.61874 0.1152 0.69704 0.0
C612 C 0.61006 0.1196 0.67388 0.0
H613 H 0.61253 0.08651 0.56123 0.0
H614 H 0.63202 0.10145 0.5988 0.0
H615 H 0.53109 0.08349 0.63928 0.0
H616 H 0.68178 0.16778 0.73733 0.0
H617 H 0.66384 0.17767 0.69994 0.0
C618 C 0.61083 0.54329 0.90162 0.0
C619 C 0.59969 0.56958 0.89102 0.0
C620 C 0.60528 0.53485 0.92397 0.0
C621 C 0.59423 0.57929 0.97238 0.0
H622 H 0.56576 0.47582 0.00096 0.0
C623 C 0.60905 0.56031 0.06423 0.0
C624 C 0.57877 0.52563 0.07524 0.0
C625 C 0.61021 0.56393 0.0417 0.0
C626 C 0.57338 0.50481 0.99321 0.0
H627 H 0.57176 0.60556 0.89496 0.0
H628 H 0.56112 0.59012 0.93368 0.0
H629 H 0.56807 0.48368 0.96154 0.0
H630 H 0.52606 0.46741 0.07112 0.0
H631 H 0.52743 0.47426 0.03173 0.0
H632 H 0.5987 0.60031 0.00386 0.0
C633 C 0.57531 0.57699 0.92504 0.0
C634 C 0.57515 0.50941 0.97063 0.0
C635 C 0.58118 0.58566 0.90284 0.0
C636 C 0.54955 0.49471 0.06314 0.0
C637 C 0.55064 0.4984 0.04057 0.0
C638 C 0.59232 0.57466 0.99487 0.0
C639 C 0.58822 0.55234 0.936 0.0
C640 C 0.58562 0.54675 0.95996 0.0
C641 C 0.58098 0.53309 0.02958 0.0
C642 C 0.58209 0.53745 0.00558 0.0
H643 H 0.62509 0.53044 0.8928 0.0
H644 H 0.61572 0.51588 0.93191 0.0
H645 H 0.60302 0.60865 0.96475 0.0
H646 H 0.63176 0.5849 0.07302 0.0
H647 H 0.63431 0.59085 0.03378 0.0
C648 C 0.05293 0.55192 0.23625 0.0
C649 C 0.05129 0.51686 0.22985 0.0
C650 C 0.0514 0.55754 0.25815 0.0
C651 C 0.07579 0.52726 0.31092 0.0
H652 H 1.01147 0.56753 0.33436 0.0
C653 C 0.05399 0.52515 0.40224 0.0
C654 C 0.05125 0.55675 0.4105 0.0
C655 C 0.05559 0.52263 0.38002 0.0
C656 C 0.03012 0.55689 0.32801 0.0
H657 H 0.04482 0.45942 0.24108 0.0
H658 H 0.04223 0.46925 0.2793 0.0
H659 H 1.00877 0.55756 0.29574 0.0
H660 H 0.04913 0.61114 0.40186 0.0
H661 H 0.05317 0.60742 0.36297 0.0
H662 H 0.09757 0.52692 0.34296 0.0
C663 C 0.04518 0.49256 0.26745 0.0
C664 C 0.02839 0.55101 0.30593 0.0
C665 C 0.0464 0.48683 0.24559 0.0
C666 C 0.05148 0.58655 0.39601 0.0
C667 C 0.05325 0.58412 0.37373 0.0
C668 C 0.07777 0.53341 0.33291 0.0
C669 C 0.04852 0.52831 0.27397 0.0
C670 C 0.05083 0.53565 0.29724 0.0
C671 C 0.05483 0.55185 0.36546 0.0
C672 C 0.05459 0.54783 0.3418 0.0
H673 H 0.05661 0.5755 0.22438 0.0
H674 H 0.05409 0.58539 0.26274 0.0
H675 H 0.09407 0.51617 0.30457 0.0
H676 H 0.05445 0.50201 0.41297 0.0
H677 H 0.05637 0.49713 0.37426 0.0
loop_
_geom_bond_atom_site_label_1
_geom_bond_atom_site_label_2
_geom_bond_distance
_geom_bond_site_symmetry_2
_ccdc_geom_bond_type
Dy0 O4 2.398 . S
Dy0 O5 2.491 . S
Dy0 O6 2.403 . S
Dy0 O7 2.664 1_455 S
Dy0 O11 2.326 . S
Dy0 O15 2.310 . S
Dy0 O16 2.351 1_455 S
C1 O12 1.185 . S
C1 O13 1.355 . S
C2 O4 1.185 . S
C2 O5 1.355 . S
Dy3 O7 2.310 . S
Dy3 O10 2.351 1_655 S
Dy3 O12 2.398 . S
Dy3 O13 2.491 . S
Dy3 O14 2.403 . S
Dy3 O15 2.664 1_655 S
Dy3 O17 2.326 . S
O4 Dy0 2.398 . S
O4 C2 1.185 . S
O5 Dy0 2.491 . S
O5 C2 1.355 . S
O6 Dy0 2.403 . S
O6 C8 1.254 . S
O7 Dy0 2.664 1_655 S
O7 Dy3 2.310 . S
O7 C8 1.268 1_655 S
C8 O6 1.254 . S
C8 O7 1.268 1_455 S
C9 O14 1.254 1_455 S
C9 O15 1.268 . S
O10 Dy3 2.351 1_455 S
O10 C18 1.249 . S
O11 Dy0 2.326 . S
O11 C18 1.267 . S
O12 C1 1.185 . S
O12 Dy3 2.398 . S
O13 C1 1.355 . S
O13 Dy3 2.491 . S
O14 Dy3 2.403 . S
O14 C9 1.254 1_655 S
O15 Dy0 2.310 . S
O15 Dy3 2.664 1_455 S
O15 C9 1.268 . S
O16 Dy0 2.351 1_655 S
O16 C19 1.249 . S
O17 Dy3 2.326 . S
O17 C19 1.267 . S
C18 O10 1.249 . S
C18 O11 1.267 . S
C19 O16 1.249 . S
C19 O17 1.267 . S
Dy20 O24 2.398 1_545 S
Dy20 O25 2.491 1_545 S
Dy20 O26 2.403 . S
Dy20 O27 2.664 . S
Dy20 O31 2.326 1_545 S
Dy20 O35 2.310 . S
Dy20 O36 2.351 . S
C21 O32 1.185 . S
C21 O33 1.355 . S
C22 O24 1.185 . S
C22 O25 1.355 . S
Dy23 O27 2.310 . S
Dy23 O30 2.351 . S
Dy23 O32 2.398 . S
Dy23 O33 2.491 . S
Dy23 O34 2.403 . S
Dy23 O35 2.664 . S
Dy23 O37 2.326 . S
O24 Dy20 2.398 1_565 S
O24 C22 1.185 . S
O25 Dy20 2.491 1_565 S
O25 C22 1.355 . S
O26 Dy20 2.403 . S
O26 C28 1.254 . S
O27 Dy20 2.664 . S
O27 Dy23 2.310 . S
O27 C28 1.268 . S
C28 O26 1.254 . S
C28 O27 1.268 . S
C29 O34 1.254 . S
C29 O35 1.268 . S
O30 Dy23 2.351 . S
O30 C38 1.249 1_545 S
O31 Dy20 2.326 1_565 S
O31 C38 1.267 . S
O32 C21 1.185 . S
O32 Dy23 2.398 . S
O33 C21 1.355 . S
O33 Dy23 2.491 . S
O34 Dy23 2.403 . S
O34 C29 1.254 . S
O35 Dy20 2.310 . S
O35 Dy23 2.664 . S
O35 C29 1.268 . S
O36 Dy20 2.351 . S
O36 C39 1.249 . S
O37 Dy23 2.326 . S
O37 C39 1.267 . S
C38 O30 1.249 1_565 S
C38 O31 1.267 . S
C39 O36 1.249 . S
C39 O37 1.267 . S
Dy40 O44 2.398 . S
Dy40 O45 2.491 . S
Dy40 O46 2.403 . S
Dy40 O47 2.664 . S
Dy40 O51 2.326 . S
Dy40 O55 2.310 . S
Dy40 O56 2.351 . S
C41 O52 1.185 . S
C41 O53 1.355 . S
C42 O44 1.185 . S
C42 O45 1.355 . S
Dy43 O47 2.310 . S
Dy43 O50 2.351 . S
Dy43 O52 2.398 . S
Dy43 O53 2.491 . S
Dy43 O54 2.403 . S
Dy43 O55 2.664 . S
Dy43 O57 2.326 . S
O44 Dy40 2.398 . S
O44 C42 1.185 . S
O45 Dy40 2.491 . S
O45 C42 1.355 . S
O46 Dy40 2.403 . S
O46 C48 1.254 . S
O47 Dy40 2.664 . S
O47 Dy43 2.310 . S
O47 C48 1.268 . S
C48 O46 1.254 . S
C48 O47 1.268 . S
C49 O54 1.254 . S
C49 O55 1.268 . S
O50 Dy43 2.351 . S
O50 C58 1.249 . S
O51 Dy40 2.326 . S
O51 C58 1.267 . S
O52 C41 1.185 . S
O52 Dy43 2.398 . S
O53 C41 1.355 . S
O53 Dy43 2.491 . S
O54 Dy43 2.403 . S
O54 C49 1.254 . S
O55 Dy40 2.310 . S
O55 Dy43 2.664 . S
O55 C49 1.268 . S
O56 Dy40 2.351 . S
O56 C59 1.249 . S
O57 Dy43 2.326 . S
O57 C59 1.267 . S
C58 O50 1.249 . S
C58 O51 1.267 . S
C59 O56 1.249 . S
C59 O57 1.267 . S
H60 C67 0.929 . S
H61 C70 0.930 . S
H62 C72 0.929 . S
H63 C64 0.969 . S
C64 H63 0.969 . S
C64 O65 1.550 . S
C64 H66 0.973 . S
O65 C64 1.550 . S
O65 C71 1.412 1_565 S
H66 C64 0.973 . S
C67 H60 0.929 . S
C67 C68 1.400 . S
C67 C69 1.364 . S
C68 C67 1.400 . S
C68 C72 1.377 . S
C69 C67 1.364 . S
C69 C70 1.374 1_545 S
C70 H61 0.930 . S
C70 C69 1.374 1_565 S
C70 C71 1.383 1_565 S
C71 O65 1.412 1_545 S
C71 C70 1.383 1_545 S
C71 C72 1.394 . S
C72 H62 0.929 . S
C72 C68 1.377 . S
C72 C71 1.394 . S
H73 C80 0.929 . S
H74 C83 0.930 . S
H75 C85 0.929 . S
H76 C77 0.969 . S
C77 H76 0.969 . S
C77 O78 1.550 . S
C77 H79 0.973 . S
O78 C77 1.550 . S
O78 C84 1.412 . S
H79 C77 0.973 . S
C80 H73 0.929 . S
C80 C81 1.400 . S
C80 C82 1.364 . S
C81 C80 1.400 . S
C81 C85 1.377 . S
C82 C80 1.364 . S
C82 C83 1.374 . S
C83 H74 0.930 . S
C83 C82 1.374 . S
C83 C84 1.383 . S
C84 O78 1.412 . S
C84 C83 1.383 . S
C84 C85 1.394 . S
C85 H75 0.929 . S
C85 C81 1.377 . S
C85 C84 1.394 . S
H86 C93 0.929 . S
H87 C96 0.930 . S
H88 C98 0.929 . S
H89 C90 0.969 . S
C90 H89 0.969 . S
C90 O91 1.550 . S
C90 H92 0.973 . S
O91 C90 1.550 . S
O91 C97 1.412 . S
H92 C90 0.973 . S
C93 H86 0.929 . S
C93 C94 1.400 . S
C93 C95 1.364 . S
C94 C93 1.400 . S
C94 C98 1.377 . S
C95 C93 1.364 . S
C95 C96 1.374 . S
C96 H87 0.930 . S
C96 C95 1.374 . S
C96 C97 1.383 . S
C97 O91 1.412 . S
C97 C96 1.383 . S
C97 C98 1.394 . S
C98 H88 0.929 . S
C98 C94 1.377 . S
C98 C97 1.394 . S
H99 C106 0.925 1_655 S
H100 C109 0.930 . S
H101 C111 0.929 . S
H102 C103 0.969 . S
C103 H102 0.969 . S
C103 O104 1.550 . S
C103 H105 0.973 . S
O104 C103 1.550 . S
O104 C110 1.412 . S
H105 C103 0.973 . S
C106 H99 0.925 1_455 S
C106 C107 1.399 1_455 S
C106 C108 1.368 . S
C107 C106 1.399 1_655 S
C107 C111 1.377 1_655 S
C108 C106 1.368 . S
C108 C109 1.374 . S
C109 H100 0.930 . S
C109 C108 1.374 . S
C109 C110 1.383 . S
C110 O104 1.412 . S
C110 C109 1.383 . S
C110 C111 1.394 . S
C111 H101 0.929 . S
C111 C107 1.377 1_455 S
C111 C110 1.394 . S
H112 C119 0.929 . S
H113 C122 0.930 . S
H114 C124 0.929 . S
H115 C116 0.969 . S
C116 H115 0.969 . S
C116 O117 1.550 . S
C116 H118 0.973 . S
O117 C116 1.550 . S
O117 C123 1.412 . S
H118 C116 0.973 . S
C119 H112 0.929 . S
C119 C120 1.400 . S
C119 C121 1.364 . S
C120 C119 1.400 . S
C120 C124 1.377 . S
C121 C119 1.364 . S
C121 C122 1.374 . S
C122 H113 0.930 . S
C122 C121 1.374 . S
C122 C123 1.383 . S
C123 O117 1.412 . S
C123 C122 1.383 . S
C123 C124 1.394 . S
C124 H114 0.929 . S
C124 C120 1.377 . S
C124 C123 1.394 . S
H125 C132 0.929 . S
H126 C135 0.930 . S
H127 C137 0.929 . S
H128 C129 0.969 . S
C129 H128 0.969 . S
C129 O130 1.550 . S
C129 H131 0.973 . S
O130 C129 1.550 . S
O130 C136 1.412 . S
H131 C129 0.973 . S
C132 H125 0.929 . S
C132 C133 1.400 . S
C132 C134 1.364 . S
C133 C132 1.400 . S
C133 C137 1.377 . S
C134 C132 1.364 . S
C134 C135 1.374 . S
C135 H126 0.930 . S
C135 C134 1.374 . S
C135 C136 1.383 . S
C136 O130 1.412 . S
C136 C135 1.383 . S
C136 C137 1.394 . S
C137 H127 0.929 . S
C137 C133 1.377 . S
C137 C136 1.394 . S
C138 C139 1.349 . S
C138 C140 1.327 . S
C138 H163 0.950 . S
C139 C138 1.349 . S
C139 C155 1.349 . S
C140 C138 1.327 . S
C140 C159 1.429 . S
C140 H164 0.950 . S
C141 C158 1.574 . S
C141 C160 1.368 . S
C141 H165 0.949 . S
H142 C146 0.949 . S
C143 C144 1.349 . S
C143 C145 1.327 . S
C143 H166 0.950 . S
C144 C143 1.349 . S
C144 C156 1.349 . S
C145 C143 1.327 . S
C145 C161 1.429 . S
C145 H167 0.950 . S
C146 H142 0.949 . S
C146 C154 1.574 . S
C146 C162 1.368 . S
H147 C155 0.950 . S
H148 C153 0.950 . S
H149 C154 0.949 . S
H150 C156 0.950 . S
H151 C157 0.950 . S
H152 C158 0.949 . S
C153 H148 0.950 . S
C153 C155 1.327 . S
C153 C159 1.429 . S
C154 C146 1.574 . S
C154 H149 0.949 . S
C154 C160 1.368 . S
C155 C139 1.349 . S
C155 H147 0.950 . S
C155 C153 1.327 . S
C156 C144 1.349 . S
C156 H150 0.950 . S
C156 C157 1.327 . S
C157 H151 0.950 . S
C157 C156 1.327 . S
C157 C161 1.429 . S
C158 C141 1.574 . S
C158 H152 0.949 . S
C158 C162 1.368 . S
C159 C140 1.429 . S
C159 C153 1.429 . S
C159 C160 1.523 . S
C160 C141 1.368 . S
C160 C154 1.368 . S
C160 C159 1.523 . S
C161 C145 1.429 . S
C161 C157 1.429 . S
C161 C162 1.523 . S
C162 C146 1.368 . S
C162 C158 1.368 . S
C162 C161 1.523 . S
H163 C138 0.950 . S
H164 C140 0.950 . S
H165 C141 0.949 . S
H166 C143 0.950 . S
H167 C145 0.950 . S
C168 C169 1.349 . S
C168 C170 1.327 . S
C168 H193 0.950 . S
C169 C168 1.349 . S
C169 C185 1.349 . S
C170 C168 1.327 . S
C170 C189 1.429 . S
C170 H194 0.950 . S
C171 C188 1.574 . S
C171 C190 1.368 . S
C171 H195 0.949 . S
H172 C176 0.949 . S
C173 C174 1.349 . S
C173 C175 1.327 . S
C173 H196 0.950 . S
C174 C173 1.349 . S
C174 C186 1.349 . S
C175 C173 1.327 . S
C175 C191 1.429 . S
C175 H197 0.950 . S
C176 H172 0.949 . S
C176 C184 1.574 . S
C176 C192 1.368 . S
H177 C185 0.950 . S
H178 C183 0.950 . S
H179 C184 0.949 . S
H180 C186 0.950 . S
H181 C187 0.950 . S
H182 C188 0.949 . S
C183 H178 0.950 . S
C183 C185 1.327 . S
C183 C189 1.429 . S
C184 C176 1.574 . S
C184 H179 0.949 . S
C184 C190 1.368 . S
C185 C169 1.349 . S
C185 H177 0.950 . S
C185 C183 1.327 . S
C186 C174 1.349 . S
C186 H180 0.950 . S
C186 C187 1.327 . S
C187 H181 0.950 . S
C187 C186 1.327 . S
C187 C191 1.429 . S
C188 C171 1.574 . S
C188 H182 0.949 . S
C188 C192 1.368 . S
C189 C170 1.429 . S
C189 C183 1.429 . S
C189 C190 1.523 . S
C190 C171 1.368 . S
C190 C184 1.368 . S
C190 C189 1.523 . S
C191 C175 1.429 . S
C191 C187 1.429 . S
C191 C192 1.523 . S
C192 C176 1.368 . S
C192 C188 1.368 . S
C192 C191 1.523 . S
H193 C168 0.950 . S
H194 C170 0.950 . S
H195 C171 0.949 . S
H196 C173 0.950 . S
H197 C175 0.950 . S
C198 C199 1.349 . S
C198 C200 1.327 . S
C198 H223 0.950 . S
C199 C198 1.349 . S
C199 C215 1.349 . S
C200 C198 1.327 . S
C200 C219 1.429 . S
C200 H224 0.950 . S
C201 C218 1.574 . S
C201 C220 1.368 . S
C201 H225 0.949 . S
H202 C206 0.949 . S
C203 C204 1.349 . S
C203 C205 1.327 1_545 S
C203 H226 0.950 . S
C204 C203 1.349 . S
C204 C216 1.349 1_545 S
C205 C203 1.327 1_565 S
C205 C221 1.429 . S
C205 H227 0.950 . S
C206 H202 0.949 . S
C206 C214 1.574 . S
C206 C222 1.368 . S
H207 C215 0.950 . S
H208 C213 0.950 . S
H209 C214 0.949 . S
H210 C216 0.950 . S
H211 C217 0.950 . S
H212 C218 0.949 . S
C213 H208 0.950 . S
C213 C215 1.327 . S
C213 C219 1.429 . S
C214 C206 1.574 . S
C214 H209 0.949 . S
C214 C220 1.368 . S
C215 C199 1.349 . S
C215 H207 0.950 . S
C215 C213 1.327 . S
C216 C204 1.349 1_565 S
C216 H210 0.950 . S
C216 C217 1.327 . S
C217 H211 0.950 . S
C217 C216 1.327 . S
C217 C221 1.429 . S
C218 C201 1.574 . S
C218 H212 0.949 . S
C218 C222 1.368 . S
C219 C200 1.429 . S
C219 C213 1.429 . S
C219 C220 1.523 . S
C220 C201 1.368 . S
C220 C214 1.368 . S
C220 C219 1.523 . S
C221 C205 1.429 . S
C221 C217 1.429 . S
C221 C222 1.523 . S
C222 C206 1.368 . S
C222 C218 1.368 . S
C222 C221 1.523 . S
H223 C198 0.950 . S
H224 C200 0.950 . S
H225 C201 0.949 . S
H226 C203 0.950 . S
H227 C205 0.950 . S
C228 C229 1.349 . S
C228 C230 1.327 . S
C228 H253 0.950 . S
C229 C228 1.349 . S
C229 C245 1.349 . S
C230 C228 1.327 . S
C230 C249 1.429 . S
C230 H254 0.950 . S
C231 C248 1.574 . S
C231 C250 1.368 . S
C231 H255 0.949 . S
H232 C236 0.949 . S
C233 C234 1.349 . S
C233 C235 1.327 . S
C233 H256 0.950 . S
C234 C233 1.349 . S
C234 C246 1.349 . S
C235 C233 1.327 . S
C235 C251 1.429 . S
C235 H257 0.950 . S
C236 H232 0.949 . S
C236 C244 1.574 . S
C236 C252 1.368 . S
H237 C245 0.950 . S
H238 C243 0.950 . S
H239 C244 0.949 . S
H240 C246 0.950 . S
H241 C247 0.950 . S
H242 C248 0.949 . S
C243 H238 0.950 . S
C243 C245 1.327 . S
C243 C249 1.429 . S
C244 C236 1.574 . S
C244 H239 0.949 . S
C244 C250 1.368 . S
C245 C229 1.349 . S
C245 H237 0.950 . S
C245 C243 1.327 . S
C246 C234 1.349 . S
C246 H240 0.950 . S
C246 C247 1.327 . S
C247 H241 0.950 . S
C247 C246 1.327 . S
C247 C251 1.429 . S
C248 C231 1.574 . S
C248 H242 0.949 . S
C248 C252 1.368 . S
C249 C230 1.429 . S
C249 C243 1.429 . S
C249 C250 1.523 . S
C250 C231 1.368 . S
C250 C244 1.368 . S
C250 C249 1.523 . S
C251 C235 1.429 . S
C251 C247 1.429 . S
C251 C252 1.523 . S
C252 C236 1.368 . S
C252 C248 1.368 . S
C252 C251 1.523 . S
H253 C228 0.950 . S
H254 C230 0.950 . S
H255 C231 0.949 . S
H256 C233 0.950 . S
H257 C235 0.950 . S
C258 C259 1.349 . S
C258 C260 1.327 . S
C258 H283 0.950 . S
C259 C258 1.349 . S
C259 C275 1.349 . S
C260 C258 1.327 . S
C260 C279 1.429 . S
C260 H284 0.950 . S
C261 C278 1.574 . S
C261 C280 1.368 . S
C261 H285 0.949 . S
H262 C266 0.949 . S
C263 C264 1.349 . S
C263 C265 1.327 . S
C263 H286 0.950 . S
C264 C263 1.349 . S
C264 C276 1.349 . S
C265 C263 1.327 . S
C265 C281 1.429 . S
C265 H287 0.950 . S
C266 H262 0.949 . S
C266 C274 1.574 . S
C266 C282 1.368 . S
H267 C275 0.950 . S
H268 C273 0.950 . S
H269 C274 0.949 . S
H270 C276 0.950 . S
H271 C277 0.950 . S
H272 C278 0.949 . S
C273 H268 0.950 . S
C273 C275 1.327 . S
C273 C279 1.429 . S
C274 C266 1.574 . S
C274 H269 0.949 . S
C274 C280 1.368 . S
C275 C259 1.349 . S
C275 H267 0.950 . S
C275 C273 1.327 . S
C276 C264 1.349 . S
C276 H270 0.950 . S
C276 C277 1.327 . S
C277 H271 0.950 . S
C277 C276 1.327 . S
C277 C281 1.429 . S
C278 C261 1.574 . S
C278 H272 0.949 . S
C278 C282 1.368 . S
C279 C260 1.429 . S
C279 C273 1.429 . S
C279 C280 1.523 . S
C280 C261 1.368 . S
C280 C274 1.368 . S
C280 C279 1.523 . S
C281 C265 1.429 . S
C281 C277 1.429 . S
C281 C282 1.523 . S
C282 C266 1.368 . S
C282 C278 1.368 . S
C282 C281 1.523 . S
H283 C258 0.950 . S
H284 C260 0.950 . S
H285 C261 0.949 . S
H286 C263 0.950 . S
H287 C265 0.950 . S
C288 C289 1.349 . S
C288 C290 1.327 . S
C288 H313 0.950 . S
C289 C288 1.349 . S
C289 C305 1.349 . S
C290 C288 1.327 . S
C290 C309 1.429 . S
C290 H314 0.950 . S
C291 C308 1.574 . S
C291 C310 1.368 . S
C291 H315 0.949 . S
H292 C296 0.949 . S
C293 C294 1.349 . S
C293 C295 1.327 . S
C293 H316 0.950 . S
C294 C293 1.349 . S
C294 C306 1.349 . S
C295 C293 1.327 . S
C295 C311 1.429 . S
C295 H317 0.950 . S
C296 H292 0.949 . S
C296 C304 1.574 . S
C296 C312 1.368 . S
H297 C305 0.950 . S
H298 C303 0.950 . S
H299 C304 0.949 . S
H300 C306 0.950 . S
H301 C307 0.950 . S
H302 C308 0.949 . S
C303 H298 0.950 . S
C303 C305 1.327 . S
C303 C309 1.429 . S
C304 C296 1.574 . S
C304 H299 0.949 . S
C304 C310 1.368 . S
C305 C289 1.349 . S
C305 H297 0.950 . S
C305 C303 1.327 . S
C306 C294 1.349 . S
C306 H300 0.950 . S
C306 C307 1.327 . S
C307 H301 0.950 . S
C307 C306 1.327 . S
C307 C311 1.429 . S
C308 C291 1.574 . S
C308 H302 0.949 . S
C308 C312 1.368 . S
C309 C290 1.429 . S
C309 C303 1.429 . S
C309 C310 1.523 . S
C310 C291 1.368 . S
C310 C304 1.368 . S
C310 C309 1.523 . S
C311 C295 1.429 . S
C311 C307 1.429 . S
C311 C312 1.523 . S
C312 C296 1.368 . S
C312 C308 1.368 . S
C312 C311 1.523 . S
H313 C288 0.950 . S
H314 C290 0.950 . S
H315 C291 0.949 . S
H316 C293 0.950 . S
H317 C295 0.950 . S
C318 C319 1.349 . S
C318 C320 1.327 . S
C318 H343 0.950 . S
C319 C318 1.349 . S
C319 C335 1.349 . S
C320 C318 1.327 . S
C320 C339 1.429 . S
C320 H344 0.950 . S
C321 C338 1.574 . S
C321 C340 1.368 . S
C321 H345 0.949 . S
H322 C326 0.949 . S
C323 C324 1.349 . S
C323 C325 1.327 . S
C323 H346 0.950 . S
C324 C323 1.349 . S
C324 C336 1.349 . S
C325 C323 1.327 . S
C325 C341 1.429 . S
C325 H347 0.950 . S
C326 H322 0.949 . S
C326 C334 1.574 . S
C326 C342 1.368 . S
H327 C335 0.950 . S
H328 C333 0.950 . S
H329 C334 0.949 . S
H330 C336 0.950 . S
H331 C337 0.950 . S
H332 C338 0.949 . S
C333 H328 0.950 . S
C333 C335 1.327 . S
C333 C339 1.429 . S
C334 C326 1.574 . S
C334 H329 0.949 . S
C334 C340 1.368 . S
C335 C319 1.349 . S
C335 H327 0.950 . S
C335 C333 1.327 . S
C336 C324 1.349 . S
C336 H330 0.950 . S
C336 C337 1.327 . S
C337 H331 0.950 . S
C337 C336 1.327 . S
C337 C341 1.429 . S
C338 C321 1.574 . S
C338 H332 0.949 . S
C338 C342 1.368 . S
C339 C320 1.429 . S
C339 C333 1.429 . S
C339 C340 1.523 . S
C340 C321 1.368 . S
C340 C334 1.368 . S
C340 C339 1.523 . S
C341 C325 1.429 . S
C341 C337 1.429 . S
C341 C342 1.523 . S
C342 C326 1.368 . S
C342 C338 1.368 . S
C342 C341 1.523 . S
H343 C318 0.950 . S
H344 C320 0.950 . S
H345 C321 0.949 . S
H346 C323 0.950 . S
H347 C325 0.950 . S
C348 C349 1.349 . S
C348 C350 1.327 . S
C348 H373 0.950 . S
C349 C348 1.349 . S
C349 C365 1.349 . S
C350 C348 1.327 . S
C350 C369 1.429 . S
C350 H374 0.950 . S
C351 C368 1.574 . S
C351 C370 1.368 . S
C351 H375 0.949 . S
H352 C356 0.949 . S
C353 C354 1.349 . S
C353 C355 1.327 1_455 S
C353 H376 0.950 . S
C354 C353 1.349 . S
C354 C366 1.349 1_455 S
C355 C353 1.327 1_655 S
C355 C371 1.429 . S
C355 H377 0.950 . S
C356 H352 0.949 . S
C356 C364 1.574 . S
C356 C372 1.368 . S
H357 C365 0.950 . S
H358 C363 0.950 . S
H359 C364 0.949 . S
H360 C366 0.950 . S
H361 C367 0.950 . S
H362 C368 0.949 . S
C363 H358 0.950 . S
C363 C365 1.327 . S
C363 C369 1.429 . S
C364 C356 1.574 . S
C364 H359 0.949 . S
C364 C370 1.368 . S
C365 C349 1.349 . S
C365 H357 0.950 . S
C365 C363 1.327 . S
C366 C354 1.349 1_655 S
C366 H360 0.950 . S
C366 C367 1.327 . S
C367 H361 0.950 . S
C367 C366 1.327 . S
C367 C371 1.429 . S
C368 C351 1.574 . S
C368 H362 0.949 . S
C368 C372 1.368 . S
C369 C350 1.429 . S
C369 C363 1.429 . S
C369 C370 1.523 . S
C370 C351 1.368 . S
C370 C364 1.368 . S
C370 C369 1.523 . S
C371 C355 1.429 . S
C371 C367 1.429 . S
C371 C372 1.523 . S
C372 C356 1.368 . S
C372 C368 1.368 . S
C372 C371 1.523 . S
H373 C348 0.950 . S
H374 C350 0.950 . S
H375 C351 0.949 . S
H376 C353 0.950 . S
H377 C355 0.950 . S
C378 C379 1.349 . S
C378 C380 1.327 . S
C378 H403 0.950 . S
C379 C378 1.349 . S
C379 C395 1.349 . S
C380 C378 1.327 . S
C380 C399 1.429 . S
C380 H404 0.950 . S
C381 C398 1.574 . S
C381 C400 1.368 . S
C381 H405 0.949 . S
H382 C386 0.949 . S
C383 C384 1.349 . S
C383 C385 1.327 . S
C383 H406 0.950 . S
C384 C383 1.349 . S
C384 C396 1.349 . S
C385 C383 1.327 . S
C385 C401 1.429 . S
C385 H407 0.950 . S
C386 H382 0.949 . S
C386 C394 1.574 . S
C386 C402 1.368 . S
H387 C395 0.950 . S
H388 C393 0.950 . S
H389 C394 0.949 . S
H390 C396 0.950 . S
H391 C397 0.950 . S
H392 C398 0.949 . S
C393 H388 0.950 . S
C393 C395 1.327 . S
C393 C399 1.429 . S
C394 C386 1.574 . S
C394 H389 0.949 . S
C394 C400 1.368 . S
C395 C379 1.349 . S
C395 H387 0.950 . S
C395 C393 1.327 . S
C396 C384 1.349 . S
C396 H390 0.950 . S
C396 C397 1.327 . S
C397 H391 0.950 . S
C397 C396 1.327 . S
C397 C401 1.429 . S
C398 C381 1.574 . S
C398 H392 0.949 . S
C398 C402 1.368 . S
C399 C380 1.429 . S
C399 C393 1.429 . S
C399 C400 1.523 . S
C400 C381 1.368 . S
C400 C394 1.368 . S
C400 C399 1.523 . S
C401 C385 1.429 . S
C401 C397 1.429 . S
C401 C402 1.523 . S
C402 C386 1.368 . S
C402 C398 1.368 . S
C402 C401 1.523 . S
H403 C378 0.950 . S
H404 C380 0.950 . S
H405 C381 0.949 . S
H406 C383 0.950 . S
H407 C385 0.950 . S
C408 C409 1.349 . S
C408 C410 1.327 . S
C408 H433 0.950 . S
C409 C408 1.349 . S
C409 C425 1.349 . S
C410 C408 1.327 . S
C410 C429 1.429 . S
C410 H434 0.950 . S
C411 C428 1.574 . S
C411 C430 1.368 . S
C411 H435 0.949 . S
H412 C416 0.949 . S
C413 C414 1.349 . S
C413 C415 1.327 . S
C413 H436 0.950 . S
C414 C413 1.349 . S
C414 C426 1.349 . S
C415 C413 1.327 . S
C415 C431 1.429 . S
C415 H437 0.950 . S
C416 H412 0.949 . S
C416 C424 1.574 . S
C416 C432 1.368 . S
H417 C425 0.950 . S
H418 C423 0.950 . S
H419 C424 0.949 . S
H420 C426 0.950 . S
H421 C427 0.950 . S
H422 C428 0.949 . S
C423 H418 0.950 . S
C423 C425 1.327 . S
C423 C429 1.429 . S
C424 C416 1.574 . S
C424 H419 0.949 . S
C424 C430 1.368 . S
C425 C409 1.349 . S
C425 H417 0.950 . S
C425 C423 1.327 . S
C426 C414 1.349 . S
C426 H420 0.950 . S
C426 C427 1.327 . S
C427 H421 0.950 . S
C427 C426 1.327 . S
C427 C431 1.429 . S
C428 C411 1.574 . S
C428 H422 0.949 . S
C428 C432 1.368 . S
C429 C410 1.429 . S
C429 C423 1.429 . S
C429 C430 1.523 . S
C430 C411 1.368 . S
C430 C424 1.368 . S
C430 C429 1.523 . S
C431 C415 1.429 . S
C431 C427 1.429 . S
C431 C432 1.523 . S
C432 C416 1.368 . S
C432 C428 1.368 . S
C432 C431 1.523 . S
H433 C408 0.950 . S
H434 C410 0.950 . S
H435 C411 0.949 . S
H436 C413 0.950 . S
H437 C415 0.950 . S
C438 C439 1.349 . S
C438 C440 1.327 . S
C438 H463 0.950 . S
C439 C438 1.349 . S
C439 C455 1.349 . S
C440 C438 1.327 . S
C440 C459 1.429 . S
C440 H464 0.950 . S
C441 C458 1.574 . S
C441 C460 1.368 . S
C441 H465 0.949 . S
H442 C446 0.949 . S
C443 C444 1.349 . S
C443 C445 1.327 . S
C443 H466 0.950 . S
C444 C443 1.349 . S
C444 C456 1.349 . S
C445 C443 1.327 . S
C445 C461 1.429 . S
C445 H467 0.950 . S
C446 H442 0.949 . S
C446 C454 1.574 . S
C446 C462 1.368 . S
H447 C455 0.950 . S
H448 C453 0.950 . S
H449 C454 0.949 . S
H450 C456 0.950 . S
H451 C457 0.950 . S
H452 C458 0.949 . S
C453 H448 0.950 . S
C453 C455 1.327 . S
C453 C459 1.429 . S
C454 C446 1.574 . S
C454 H449 0.949 . S
C454 C460 1.368 . S
C455 C439 1.349 . S
C455 H447 0.950 . S
C455 C453 1.327 . S
C456 C444 1.349 . S
C456 H450 0.950 . S
C456 C457 1.327 . S
C457 H451 0.950 . S
C457 C456 1.327 . S
C457 C461 1.429 . S
C458 C441 1.574 . S
C458 H452 0.949 . S
C458 C462 1.368 . S
C459 C440 1.429 . S
C459 C453 1.429 . S
C459 C460 1.523 . S
C460 C441 1.368 . S
C460 C454 1.368 . S
C460 C459 1.523 . S
C461 C445 1.429 . S
C461 C457 1.429 . S
C461 C462 1.523 . S
C462 C446 1.368 . S
C462 C458 1.368 . S
C462 C461 1.523 . S
H463 C438 0.950 . S
H464 C440 0.950 . S
H465 C441 0.949 . S
H466 C443 0.950 . S
H467 C445 0.950 . S
C468 C469 1.349 . S
C468 C470 1.327 . S
C468 H493 0.950 . S
C469 C468 1.349 . S
C469 C485 1.349 . S
C470 C468 1.327 . S
C470 C489 1.429 . S
C470 H494 0.950 . S
C471 C488 1.574 . S
C471 C490 1.368 . S
C471 H495 0.949 . S
H472 C476 0.949 . S
C473 C474 1.349 . S
C473 C475 1.327 . S
C473 H496 0.950 . S
C474 C473 1.349 . S
C474 C486 1.349 . S
C475 C473 1.327 . S
C475 C491 1.429 . S
C475 H497 0.950 . S
C476 H472 0.949 . S
C476 C484 1.574 . S
C476 C492 1.368 . S
H477 C485 0.950 . S
H478 C483 0.950 . S
H479 C484 0.949 . S
H480 C486 0.950 . S
H481 C487 0.950 . S
H482 C488 0.949 . S
C483 H478 0.950 . S
C483 C485 1.327 . S
C483 C489 1.429 . S
C484 C476 1.574 . S
C484 H479 0.949 . S
C484 C490 1.368 . S
C485 C469 1.349 . S
C485 H477 0.950 . S
C485 C483 1.327 . S
C486 C474 1.349 . S
C486 H480 0.950 . S
C486 C487 1.327 . S
C487 H481 0.950 . S
C487 C486 1.327 . S
C487 C491 1.429 . S
C488 C471 1.574 . S
C488 H482 0.949 . S
C488 C492 1.368 . S
C489 C470 1.429 . S
C489 C483 1.429 . S
C489 C490 1.523 . S
C490 C471 1.368 . S
C490 C484 1.368 . S
C490 C489 1.523 . S
C491 C475 1.429 . S
C491 C487 1.429 . S
C491 C492 1.523 . S
C492 C476 1.368 . S
C492 C488 1.368 . S
C492 C491 1.523 . S
H493 C468 0.950 . S
H494 C470 0.950 . S
H495 C471 0.949 . S
H496 C473 0.950 . S
H497 C475 0.950 . S
C498 C499 1.349 . S
C498 C500 1.327 . S
C498 H523 0.950 . S
C499 C498 1.349 . S
C499 C515 1.349 1_455 S
C500 C498 1.327 . S
C500 C519 1.429 . S
C500 H524 0.950 . S
C501 C518 1.570 1_554 S
C501 C520 1.368 . S
C501 H525 0.949 1_455 S
H502 C506 0.949 1_556 S
C503 C504 1.349 . S
C503 C505 1.327 . S
C503 H526 0.950 . S
C504 C503 1.349 . S
C504 C516 1.349 . S
C505 C503 1.327 . S
C505 C521 1.429 . S
C505 H527 0.950 . S
C506 H502 0.949 1_554 S
C506 C514 1.574 . S
C506 C522 1.368 1_554 S
H507 C515 0.950 . S
H508 C513 0.950 . S
H509 C514 0.949 . S
H510 C516 0.950 . S
H511 C517 0.950 . S
H512 C518 0.951 1_655 S
C513 H508 0.950 . S
C513 C515 1.327 . S
C513 C519 1.429 1_655 S
C514 C506 1.574 . S
C514 H509 0.949 . S
C514 C520 1.368 . S
C515 C499 1.349 1_655 S
C515 H507 0.950 . S
C515 C513 1.327 . S
C516 C504 1.349 . S
C516 H510 0.950 . S
C516 C517 1.327 . S
C517 H511 0.950 . S
C517 C516 1.327 . S
C517 C521 1.429 . S
C518 C501 1.570 1_556 S
C518 H512 0.951 1_455 S
C518 C522 1.369 . S
C519 C500 1.429 . S
C519 C513 1.429 1_455 S
C519 C520 1.523 . S
C520 C501 1.368 . S
C520 C514 1.368 . S
C520 C519 1.523 . S
C521 C505 1.429 . S
C521 C517 1.429 . S
C521 C522 1.523 . S
C522 C506 1.368 1_556 S
C522 C518 1.369 . S
C522 C521 1.523 . S
H523 C498 0.950 . S
H524 C500 0.950 . S
H525 C501 0.949 1_655 S
H526 C503 0.950 . S
H527 C505 0.950 . S
C528 C529 1.349 . S
C528 C530 1.327 . S
C528 H553 0.950 1_545 S
C529 C528 1.349 . S
C529 C545 1.349 . S
C530 C528 1.327 . S
C530 C549 1.429 . S
C530 H554 0.950 1_545 S
C531 C548 1.574 . S
C531 C550 1.368 . S
C531 H555 0.949 . S
H532 C536 0.949 1_565 S
C533 C534 1.349 . S
C533 C535 1.327 . S
C533 H556 0.950 . S
C534 C533 1.349 . S
C534 C546 1.349 1_545 S
C535 C533 1.327 . S
C535 C551 1.429 . S
C535 H557 0.950 . S
C536 H532 0.949 1_545 S
C536 C544 1.574 . S
C536 C552 1.368 . S
H537 C545 0.950 . S
H538 C543 0.950 . S
H539 C544 0.949 1_565 S
H540 C546 0.950 . S
H541 C547 0.962 . S
H542 C548 0.949 . S
C543 H538 0.950 . S
C543 C545 1.327 . S
C543 C549 1.429 . S
C544 C536 1.574 . S
C544 H539 0.949 1_545 S
C544 C550 1.368 . S
C545 C529 1.349 . S
C545 H537 0.950 . S
C545 C543 1.327 . S
C546 C534 1.349 1_565 S
C546 H540 0.950 . S
C546 C547 1.330 . S
C547 H541 0.962 . S
C547 C546 1.330 . S
C547 C551 1.414 1_565 S
C548 C531 1.574 . S
C548 H542 0.949 . S
C548 C552 1.368 . S
C549 C530 1.429 . S
C549 C543 1.429 . S
C549 C550 1.523 . S
C550 C531 1.368 . S
C550 C544 1.368 . S
C550 C549 1.523 . S
C551 C535 1.429 . S
C551 C547 1.414 1_545 S
C551 C552 1.523 . S
C552 C536 1.368 . S
C552 C548 1.368 . S
C552 C551 1.523 . S
H553 C528 0.950 1_565 S
H554 C530 0.950 1_565 S
H555 C531 0.949 . S
H556 C533 0.950 . S
H557 C535 0.950 . S
C558 C559 1.349 . S
C558 C560 1.327 . S
C558 H583 0.950 . S
C559 C558 1.349 . S
C559 C575 1.349 . S
C560 C558 1.327 . S
C560 C579 1.429 . S
C560 H584 0.950 . S
C561 C578 1.574 . S
C561 C580 1.368 . S
C561 H585 0.949 . S
H562 C566 0.949 . S
C563 C564 1.349 . S
C563 C565 1.327 . S
C563 H586 0.950 . S
C564 C563 1.349 . S
C564 C576 1.349 . S
C565 C563 1.327 . S
C565 C581 1.429 . S
C565 H587 0.950 . S
C566 H562 0.949 . S
C566 C574 1.574 . S
C566 C582 1.368 . S
H567 C575 0.950 . S
H568 C573 0.950 . S
H569 C574 0.949 . S
H570 C576 0.950 . S
H571 C577 0.950 . S
H572 C578 0.949 . S
C573 H568 0.950 . S
C573 C575 1.327 . S
C573 C579 1.429 . S
C574 C566 1.574 . S
C574 H569 0.949 . S
C574 C580 1.368 . S
C575 C559 1.349 . S
C575 H567 0.950 . S
C575 C573 1.327 . S
C576 C564 1.349 . S
C576 H570 0.950 . S
C576 C577 1.327 . S
C577 H571 0.950 . S
C577 C576 1.327 . S
C577 C581 1.429 . S
C578 C561 1.574 . S
C578 H572 0.949 . S
C578 C582 1.368 . S
C579 C560 1.429 . S
C579 C573 1.429 . S
C579 C580 1.523 . S
C580 C561 1.368 . S
C580 C574 1.368 . S
C580 C579 1.523 . S
C581 C565 1.429 . S
C581 C577 1.429 . S
C581 C582 1.523 . S
C582 C566 1.368 . S
C582 C578 1.368 . S
C582 C581 1.523 . S
H583 C558 0.950 . S
H584 C560 0.950 . S
H585 C561 0.949 . S
H586 C563 0.950 . S
H587 C565 0.950 . S
C588 C589 1.349 . S
C588 C590 1.327 . S
C588 H613 0.950 . S
C589 C588 1.349 . S
C589 C605 1.349 . S
C590 C588 1.327 . S
C590 C609 1.429 . S
C590 H614 0.950 . S
C591 C608 1.574 . S
C591 C610 1.368 . S
C591 H615 0.949 . S
H592 C596 0.949 . S
C593 C594 1.349 . S
C593 C595 1.327 . S
C593 H616 0.950 . S
C594 C593 1.349 . S
C594 C606 1.349 . S
C595 C593 1.327 . S
C595 C611 1.429 . S
C595 H617 0.950 . S
C596 H592 0.949 . S
C596 C604 1.574 . S
C596 C612 1.368 . S
H597 C605 0.950 . S
H598 C603 0.950 . S
H599 C604 0.949 . S
H600 C606 0.950 . S
H601 C607 0.950 . S
H602 C608 0.949 . S
C603 H598 0.950 . S
C603 C605 1.327 . S
C603 C609 1.429 . S
C604 C596 1.574 . S
C604 H599 0.949 . S
C604 C610 1.368 . S
C605 C589 1.349 . S
C605 H597 0.950 . S
C605 C603 1.327 . S
C606 C594 1.349 . S
C606 H600 0.950 . S
C606 C607 1.327 . S
C607 H601 0.950 . S
C607 C606 1.327 . S
C607 C611 1.429 . S
C608 C591 1.574 . S
C608 H602 0.949 . S
C608 C612 1.368 . S
C609 C590 1.429 . S
C609 C603 1.429 . S
C609 C610 1.523 . S
C610 C591 1.368 . S
C610 C604 1.368 . S
C610 C609 1.523 . S
C611 C595 1.429 . S
C611 C607 1.429 . S
C611 C612 1.523 . S
C612 C596 1.368 . S
C612 C608 1.368 . S
C612 C611 1.523 . S
H613 C588 0.950 . S
H614 C590 0.950 . S
H615 C591 0.949 . S
H616 C593 0.950 . S
H617 C595 0.950 . S
C618 C619 1.349 . S
C618 C620 1.327 . S
C618 H643 0.950 . S
C619 C618 1.349 . S
C619 C635 1.349 . S
C620 C618 1.327 . S
C620 C639 1.429 . S
C620 H644 0.950 . S
C621 C638 1.574 1_556 S
C621 C640 1.368 . S
C621 H645 0.949 . S
H622 C626 0.949 . S
C623 C624 1.349 . S
C623 C625 1.327 . S
C623 H646 0.950 . S
C624 C623 1.349 . S
C624 C636 1.349 . S
C625 C623 1.327 . S
C625 C641 1.429 . S
C625 H647 0.950 . S
C626 H622 0.949 . S
C626 C634 1.574 1_554 S
C626 C642 1.368 . S
H627 C635 0.950 . S
H628 C633 0.950 . S
H629 C634 0.949 . S
H630 C636 0.950 . S
H631 C637 0.950 . S
H632 C638 0.949 . S
C633 H628 0.950 . S
C633 C635 1.327 . S
C633 C639 1.429 . S
C634 C626 1.574 1_556 S
C634 H629 0.949 . S
C634 C640 1.368 . S
C635 C619 1.349 . S
C635 H627 0.950 . S
C635 C633 1.327 . S
C636 C624 1.349 . S
C636 H630 0.950 . S
C636 C637 1.327 . S
C637 H631 0.950 . S
C637 C636 1.327 . S
C637 C641 1.429 . S
C638 C621 1.574 1_554 S
C638 H632 0.949 . S
C638 C642 1.368 . S
C639 C620 1.429 . S
C639 C633 1.429 . S
C639 C640 1.523 . S
C640 C621 1.368 . S
C640 C634 1.368 . S
C640 C639 1.523 . S
C641 C625 1.429 . S
C641 C637 1.429 . S
C641 C642 1.523 . S
C642 C626 1.368 . S
C642 C638 1.368 . S
C642 C641 1.523 . S
H643 C618 0.950 . S
H644 C620 0.950 . S
H645 C621 0.949 . S
H646 C623 0.950 . S
H647 C625 0.950 . S
C648 C649 1.349 . S
C648 C650 1.327 . S
C648 H673 0.950 . S
C649 C648 1.349 . S
C649 C665 1.349 . S
C650 C648 1.327 . S
C650 C669 1.429 . S
C650 H674 0.950 . S
C651 C668 1.574 . S
C651 C670 1.368 . S
C651 H675 0.949 . S
H652 C656 0.949 . S
C653 C654 1.349 . S
C653 C655 1.327 . S
C653 H676 0.950 . S
C654 C653 1.349 . S
C654 C666 1.349 . S
C655 C653 1.327 . S
C655 C671 1.429 . S
C655 H677 0.950 . S
C656 H652 0.949 . S
C656 C664 1.574 . S
C656 C672 1.368 . S
H657 C665 0.950 . S
H658 C663 0.950 . S
H659 C664 0.949 . S
H660 C666 0.950 . S
H661 C667 0.950 . S
H662 C668 0.949 . S
C663 H658 0.950 . S
C663 C665 1.327 . S
C663 C669 1.429 . S
C664 C656 1.574 . S
C664 H659 0.949 . S
C664 C670 1.368 . S
C665 C649 1.349 . S
C665 H657 0.950 . S
C665 C663 1.327 . S
C666 C654 1.349 . S
C666 H660 0.950 . S
C666 C667 1.327 . S
C667 H661 0.950 . S
C667 C666 1.327 . S
C667 C671 1.429 . S
C668 C651 1.574 . S
C668 H662 0.949 . S
C668 C672 1.368 . S
C669 C650 1.429 . S
C669 C663 1.429 . S
C669 C670 1.523 . S
C670 C651 1.368 . S
C670 C664 1.368 . S
C670 C669 1.523 . S
C671 C655 1.429 . S
C671 C667 1.429 . S
C671 C672 1.523 . S
C672 C656 1.368 . S
C672 C668 1.368 . S
C672 C671 1.523 . S
H673 C648 0.950 . S
H674 C650 0.950 . S
H675 C651 0.949 . S
H676 C653 0.950 . S
H677 C655 0.950 . S
C139 C2 1.103 . S
C144 C129 1.037 . S
C169 C21 0.872 . S
C174 C107 0.870 . S
C199 C42 0.969 . S
C204 C120 0.964 . S
C229 C1 0.876 . S
C234 C133 0.876 . S
C264 C103 1.072 . S
C259 C22 1.133 . S
C294 C116 0.978 . S
C289 C41 1.022 . S
C319 C38 1.733 . S
C324 C81 1.719 . S
C349 C59 1.830 . S
C354 C94 1.802 . S
C379 C18 1.876 . S
C384 C64 1.744 . S
C414 C77 1.837 . S
C409 C39 1.995 . S
C444 C90 1.769 . S
C439 C58 1.895 . S
C469 C19 1.834 . S
C474 C68 1.806 . S
C504 C95 1.591 . S
C499 C9 1.549 . S
C529 C29 1.536 . S
C534 C69 1.567 . S
C559 C49 1.536 . S
C564 C82 1.624 . S
C594 C121 1.446 . S
C589 C28 1.404 . S
C624 C134 1.509 . S
C619 C48 1.488 . S
C649 C8 1.445 . S
C654 C108 1.480 . S
