# Generated by pormake.
# Topology hwx, (6,3)-cn, num edge types: 1
# Building blocks:
#     Node 0, Type 0, BuildingBlock: IZENUY_clean_sbu_0, # of connection points: 6
#     Node 1, Type 0, BuildingBlock: IZENUY_clean_sbu_0, # of connection points: 6
#     Node 2, Type 0, BuildingBlock: IZENUY_clean_sbu_0, # of connection points: 6
#     Node 3, Type 0, BuildingBlock: IZENUY_clean_sbu_0, # of connection points: 6
#     Node 4, Type 1, BuildingBlock: BELTOD_clean_linker_0, # of connection points: 3
#     Node 5, Type 1, BuildingBlock: BELTOD_clean_linker_0, # of connection points: 3
#     Node 6, Type 1, BuildingBlock: BELTOD_clean_linker_0, # of connection points: 3
#     Node 7, Type 1, BuildingBlock: BELTOD_clean_linker_0, # of connection points: 3
#     Node 8, Type 1, BuildingBlock: BELTOD_clean_linker_0, # of connection points: 3
#     Node 9, Type 1, BuildingBlock: BELTOD_clean_linker_0, # of connection points: 3
#     Node 10, Type 1, BuildingBlock: BELTOD_clean_linker_0, # of connection points: 3
#     Node 11, Type 1, BuildingBlock: BELTOD_clean_linker_0, # of connection points: 3
#     Edge 12, Type (0, 1), BuildingBlock: TEMPAE_clean_linker_10, # of connection points: 2
#     Edge 13, Type (0, 1), BuildingBlock: TEMPAE_clean_linker_10, # of connection points: 2
#     Edge 14, Type (0, 1), BuildingBlock: TEMPAE_clean_linker_10, # of connection points: 2
#     Edge 15, Type (0, 1), BuildingBlock: TEMPAE_clean_linker_10, # of connection points: 2
#     Edge 16, Type (0, 1), BuildingBlock: TEMPAE_clean_linker_10, # of connection points: 2
#     Edge 17, Type (0, 1), BuildingBlock: TEMPAE_clean_linker_10, # of connection points: 2
#     Edge 18, Type (0, 1), BuildingBlock: TEMPAE_clean_linker_10, # of connection points: 2
#     Edge 19, Type (0, 1), BuildingBlock: TEMPAE_clean_linker_10, # of connection points: 2
#     Edge 20, Type (0, 1), BuildingBlock: TEMPAE_clean_linker_10, # of connection points: 2
#     Edge 21, Type (0, 1), BuildingBlock: TEMPAE_clean_linker_10, # of connection points: 2
#     Edge 22, Type (0, 1), BuildingBlock: TEMPAE_clean_linker_10, # of connection points: 2
#     Edge 23, Type (0, 1), BuildingBlock: TEMPAE_clean_linker_10, # of connection points: 2
#     Edge 24, Type (0, 1), BuildingBlock: TEMPAE_clean_linker_10, # of connection points: 2
#     Edge 25, Type (0, 1), BuildingBlock: TEMPAE_clean_linker_10, # of connection points: 2
#     Edge 26, Type (0, 1), BuildingBlock: TEMPAE_clean_linker_10, # of connection points: 2
#     Edge 27, Type (0, 1), BuildingBlock: TEMPAE_clean_linker_10, # of connection points: 2
#     Edge 28, Type (0, 1), BuildingBlock: TEMPAE_clean_linker_10, # of connection points: 2
#     Edge 29, Type (0, 1), BuildingBlock: TEMPAE_clean_linker_10, # of connection points: 2
#     Edge 30, Type (0, 1), BuildingBlock: TEMPAE_clean_linker_10, # of connection points: 2
#     Edge 31, Type (0, 1), BuildingBlock: TEMPAE_clean_linker_10, # of connection points: 2
#     Edge 32, Type (0, 1), BuildingBlock: TEMPAE_clean_linker_10, # of connection points: 2
#     Edge 33, Type (0, 1), BuildingBlock: TEMPAE_clean_linker_10, # of connection points: 2
#     Edge 34, Type (0, 1), BuildingBlock: TEMPAE_clean_linker_10, # of connection points: 2
#     Edge 35, Type (0, 1), BuildingBlock: TEMPAE_clean_linker_10, # of connection points: 2
# Relax obj value: 0.046
# Max RMSD: 0.072
# Mean RMSD: 0.062
data_MOF--net-hwx--node1-IZENUY_clean_sbu_0--node2-BELTOD_clean_linker_0--edge1-TEMPAE_clean_linker_10
_symmetry_space_group_name_H-M    P1
_symmetry_Int_Tables_number       1
_symmetry_cell_setting            triclinic
loop_
_symmetry_equiv_pos_as_xyz
'x, y, z'
_cell_length_a     54.508047
_cell_length_b     54.621297
_cell_length_c     26.027917
_cell_angle_alpha  89.416513
_cell_angle_beta   90.638385
_cell_angle_gamma 89.996181
loop_
_atom_site_label
_atom_site_type_symbol
_atom_site_fract_x
_atom_site_fract_y
_atom_site_fract_z
_atom_type_partial_charge
Fe0 Fe 0.23364 0.19407 0.06577 0.0
Fe1 Fe 0.23373 0.19512 0.94861 0.0
O2 O 0.2264 0.18001 0.00673 0.0
Fe3 Fe 0.2117 0.15107 0.00599 0.0
O4 O 0.18553 0.16282 0.04089 0.0
O5 O 0.20764 0.18092 0.10029 0.0
O6 O 0.21407 0.22004 0.05044 0.0
C7 C 0.21674 0.23343 0.01119 0.0
C8 C 0.24648 0.1469 0.08785 0.0
O9 O 0.22931 0.22616 0.97365 0.0
C10 C 0.24437 0.14533 0.92817 0.0
O11 O 0.26107 0.20995 0.04215 0.0
O12 O 0.26623 0.19535 0.9648 0.0
O13 O 0.22691 0.1399 0.06547 0.0
O14 O 0.25347 0.16887 0.08436 0.0
C15 C 0.18827 0.17737 0.92468 0.0
O16 O 0.23932 0.16688 0.91297 0.0
O17 O 0.2368 0.13747 0.97091 0.0
C18 C 0.27478 0.20558 0.00436 0.0
O19 O 0.20182 0.19593 0.92912 0.0
O20 O 0.19402 0.15721 0.9463 0.0
C21 C 0.18711 0.17347 0.08358 0.0
Fe22 Fe 0.24972 0.71147 0.57058 0.0
Fe23 Fe 0.27445 0.66744 0.52078 0.0
O24 O 0.25818 0.69537 0.51506 0.0
Fe25 Fe 0.2506 0.70732 0.45359 0.0
O26 O 0.26855 0.7347 0.46513 0.0
O27 O 0.25297 0.74198 0.54093 0.0
O28 O 0.28143 0.71434 0.59083 0.0
C29 C 0.2957 0.69655 0.59869 0.0
C30 C 0.20856 0.71837 0.51223 0.0
O31 O 0.29096 0.67567 0.5803 0.0
C32 C 0.2409 0.65912 0.43861 0.0
O33 O 0.24519 0.68374 0.61018 0.0
O34 O 0.24972 0.65336 0.55633 0.0
O35 O 0.22219 0.72223 0.4739 0.0
O36 O 0.21743 0.70981 0.55359 0.0
C37 C 0.29841 0.68875 0.44074 0.0
O38 O 0.26076 0.65413 0.46241 0.0
O39 O 0.23233 0.68057 0.43862 0.0
C40 C 0.24157 0.6616 0.59791 0.0
O41 O 0.30023 0.68001 0.48565 0.0
O42 O 0.27769 0.69468 0.42201 0.0
C43 C 0.26544 0.74883 0.50255 0.0
Fe44 Fe 0.76224 0.78712 0.94977 0.0
Fe45 Fe 0.76101 0.78731 0.06773 0.0
O46 O 0.76841 0.80185 0.00878 0.0
Fe47 Fe 0.78191 0.83122 0.00864 0.0
O48 O 0.75627 0.84402 0.97255 0.0
O49 O 0.75598 0.81557 0.91358 0.0
O50 O 0.72981 0.78589 0.96324 0.0
C51 C 0.72055 0.77638 0.00287 0.0
C52 C 0.80683 0.80701 0.92875 0.0
O53 O 0.73371 0.77157 0.04217 0.0
C54 C 0.80689 0.8101 0.08866 0.0
O55 O 0.7673 0.75605 0.97522 0.0
O56 O 0.78084 0.76159 0.05402 0.0
O57 O 0.79977 0.82641 0.95031 0.0
O58 O 0.79441 0.78759 0.93247 0.0
C59 C 0.74719 0.83423 0.08837 0.0
O60 O 0.78694 0.80061 0.10365 0.0
O61 O 0.80827 0.82022 0.04501 0.0
C62 C 0.77916 0.74855 0.01443 0.0
O63 O 0.74068 0.81211 0.08575 0.0
O64 O 0.76659 0.84148 0.06675 0.0
C65 C 0.74953 0.8365 0.92903 0.0
Fe66 Fe 0.70335 0.34654 0.50059 0.0
Fe67 Fe 0.72567 0.30274 0.55957 0.0
O68 O 0.71823 0.31765 0.50065 0.0
Fe69 Fe 0.72577 0.30366 0.44183 0.0
O70 O 0.73148 0.33248 0.40751 0.0
O71 O 0.72832 0.36098 0.46611 0.0
O72 O 0.7182 0.35705 0.56034 0.0
C73 C 0.73761 0.3499 0.58321 0.0
C74 C 0.68034 0.32168 0.41768 0.0
O75 O 0.74478 0.32806 0.57962 0.0
C76 C 0.70979 0.26375 0.50344 0.0
O77 O 0.67735 0.33417 0.53497 0.0
O78 O 0.69901 0.3146 0.59401 0.0
O79 O 0.69396 0.30307 0.42127 0.0
O80 O 0.6858 0.34124 0.44097 0.0
C81 C 0.7672 0.29364 0.49817 0.0
O82 O 0.70708 0.2763 0.54338 0.0
O83 O 0.72153 0.27226 0.46554 0.0
C84 C 0.67878 0.32337 0.57794 0.0
O85 O 0.75381 0.28825 0.5361 0.0
O86 O 0.75809 0.30337 0.45822 0.0
C87 C 0.73658 0.35362 0.42392 0.0
P88 P 0.21521 0.49137 0.02809 0.0
H89 H 0.22385 0.48701 0.13817 0.0
H90 H 0.21604 0.51464 0.20943 0.0
H91 H 0.17759 0.56397 0.10587 0.0
H92 H 0.18497 0.536 0.03476 0.0
H93 H 0.21015 0.45672 0.94433 0.0
H94 H 0.19768 0.41376 0.94344 0.0
H95 H 0.17433 0.41926 0.10078 0.0
H96 H 0.1862 0.46234 0.10123 0.0
H97 H 0.2491 0.52746 0.98898 0.0
H98 H 0.17963 0.49677 0.94206 0.0
O99 O 0.24442 0.4838 0.03978 0.0
H100 H 0.24901 0.55385 0.91312 0.0
H101 H 0.17978 0.52263 0.86438 0.0
C102 C 0.2053 0.50961 0.08114 0.0
C103 C 0.21324 0.50349 0.13101 0.0
C104 C 0.20866 0.51921 0.17172 0.0
C105 C 0.19631 0.54147 0.163 0.0
C106 C 0.18726 0.54697 0.11345 0.0
C107 C 0.19153 0.53101 0.07284 0.0
C108 C 0.19882 0.46292 0.02256 0.0
C109 C 0.20131 0.44904 0.97789 0.0
C110 C 0.19422 0.42446 0.97743 0.0
C111 C 0.18511 0.41325 0.0221 0.0
C112 C 0.18132 0.42753 0.06587 0.0
C113 C 0.18809 0.45219 0.06605 0.0
C114 C 0.21479 0.50964 0.97021 0.0
C115 C 0.23402 0.52609 0.9617 0.0
C116 C 0.23397 0.54112 0.91814 0.0
C117 C 0.21461 0.54004 0.88205 0.0
C118 C 0.19499 0.52388 0.89133 0.0
C119 C 0.195 0.50891 0.93537 0.0
P120 P 0.97788 0.8563 0.51223 0.0
H121 H 0.97725 0.87 0.62032 0.0
H122 H 0.95125 0.85753 0.69224 0.0
H123 H 0.91134 0.80877 0.59188 0.0
H124 H 0.93737 0.82121 0.52043 0.0
H125 H 0.02854 0.86674 0.4843 0.0
H126 H 0.06564 0.84158 0.48414 0.0
H127 H 0.02406 0.77998 0.54192 0.0
H128 H 0.98698 0.80503 0.54042 0.0
H129 H 0.9303 0.87428 0.47816 0.0
H130 H 0.98887 0.83127 0.41506 0.0
O131 O 0.98543 0.8857 0.51906 0.0
H132 H 0.90558 0.86743 0.40096 0.0
H133 H 0.96466 0.82508 0.33686 0.0
C134 C 0.95872 0.84711 0.56482 0.0
C135 C 0.96283 0.85672 0.61385 0.0
C136 C 0.94813 0.84942 0.65493 0.0
C137 C 0.92916 0.83233 0.64747 0.0
C138 C 0.92556 0.82227 0.59849 0.0
C139 C 0.94036 0.82945 0.55762 0.0
C140 C 0.0052 0.8379 0.51353 0.0
C141 C 0.02749 0.84786 0.49722 0.0
C142 C 0.04867 0.83348 0.49731 0.0
C143 C 0.04785 0.80883 0.51351 0.0
C144 C 0.0253 0.79884 0.52896 0.0
C145 C 0.00412 0.81323 0.52864 0.0
C146 C 0.96123 0.85304 0.45264 0.0
C147 C 0.93795 0.86364 0.44731 0.0
C148 C 0.92392 0.85984 0.40294 0.0
C149 C 0.93309 0.84561 0.36266 0.0
C150 C 0.95687 0.83576 0.36748 0.0
C151 C 0.97081 0.83941 0.41215 0.0
P152 P 0.85026 0.48933 0.00372 0.0
H153 H 0.87048 0.47403 0.90506 0.0
H154 H 0.85244 0.45295 0.83127 0.0
H155 H 0.78161 0.45445 0.90426 0.0
H156 H 0.79995 0.47457 0.97846 0.0
H157 H 0.88065 0.53203 0.02786 0.0
H158 H 0.87134 0.57571 0.0342 0.0
H159 H 0.79634 0.56128 0.98817 0.0
H160 H 0.80557 0.51781 0.98347 0.0
H161 H 0.83331 0.43958 0.02609 0.0
H162 H 0.84202 0.50734 0.10823 0.0
O163 O 0.88053 0.48476 0.00335 0.0
H164 H 0.81498 0.42067 0.10201 0.0
H165 H 0.82425 0.48814 0.18488 0.0
C166 C 0.83662 0.47562 0.94749 0.0
C167 C 0.85107 0.46985 0.90509 0.0
C168 C 0.84068 0.45794 0.86274 0.0
C169 C 0.8156 0.4518 0.86199 0.0
C170 C 0.80106 0.45845 0.90394 0.0
C171 C 0.81149 0.47021 0.94624 0.0
C172 C 0.84393 0.52168 0.00417 0.0
C173 C 0.86227 0.53833 0.01863 0.0
C174 C 0.85694 0.5633 0.0222 0.0
C175 C 0.83309 0.572 0.0117 0.0
C176 C 0.81482 0.55518 0.99716 0.0
C177 C 0.82016 0.53027 0.9938 0.0
C178 C 0.83817 0.47514 0.06084 0.0
C179 C 0.83115 0.45046 0.06028 0.0
C180 C 0.82075 0.43963 0.10366 0.0
C181 C 0.81791 0.45311 0.14886 0.0
C182 C 0.82612 0.47746 0.1503 0.0
C183 C 0.83615 0.48843 0.10648 0.0
P184 P 0.03223 0.24326 0.49257 0.0
H185 H 0.05147 0.26566 0.39897 0.0
H186 H 0.0675 0.24861 0.32023 0.0
H187 H 0.0464 0.17609 0.37108 0.0
H188 H 0.03091 0.19341 0.45098 0.0
H189 H 0.00218 0.27533 0.55429 0.0
H190 H 0.95805 0.28165 0.56027 0.0
H191 H 0.94599 0.22553 0.44672 0.0
H192 H 0.99007 0.21848 0.44306 0.0
H193 H 0.07418 0.20956 0.49928 0.0
H194 H 0.02102 0.23991 0.6024 0.0
O195 O 0.04439 0.27123 0.49652 0.0
H196 H 0.09559 0.19053 0.57149 0.0
H197 H 0.04339 0.22242 0.67532 0.0
C198 C 0.04047 0.23074 0.43126 0.0
C199 C 0.05004 0.24612 0.39308 0.0
C200 C 0.059 0.23633 0.34767 0.0
C201 C 0.05837 0.21092 0.33933 0.0
C202 C 0.04748 0.19568 0.37659 0.0
C203 C 0.03854 0.20555 0.42213 0.0
C204 C 0.99948 0.24655 0.49804 0.0
C205 C 0.99001 0.2642 0.5311 0.0
C206 C 0.96474 0.26795 0.5341 0.0
C207 C 0.94838 0.25431 0.50354 0.0
C208 C 0.95797 0.23622 0.47122 0.0
C209 C 0.98329 0.23228 0.46877 0.0
C210 C 0.04547 0.22566 0.54497 0.0
C211 C 0.0667 0.21172 0.53727 0.0
C212 C 0.07927 0.20116 0.57895 0.0
C213 C 0.07143 0.20506 0.62956 0.0
C214 C 0.04981 0.2186 0.63701 0.0
C215 C 0.03698 0.22877 0.59513 0.0
P216 P 0.72803 0.99985 0.5106 0.0
H217 H 0.76134 0.98381 0.43117 0.0
H218 H 0.75644 0.95639 0.35891 0.0
H219 H 0.67891 0.95036 0.38971 0.0
H220 H 0.6839 0.97878 0.46182 0.0
H221 H 0.74933 0.04102 0.45696 0.0
H222 H 0.73964 0.08462 0.45478 0.0
H223 H 0.67452 0.07075 0.54362 0.0
H224 H 0.68412 0.02681 0.5447 0.0
H225 H 0.70916 0.95005 0.52982 0.0
H226 H 0.72186 0.01613 0.61565 0.0
O227 O 0.75822 0.00108 0.52186 0.0
H228 H 0.70083 0.92789 0.60912 0.0
H229 H 0.71393 0.99369 0.69565 0.0
C230 C 0.7231 0.98272 0.45274 0.0
C231 C 0.74322 0.97682 0.42233 0.0
C232 C 0.74041 0.96098 0.38112 0.0
C233 C 0.71742 0.95061 0.36957 0.0
C234 C 0.69689 0.9579 0.39793 0.0
C235 C 0.69971 0.97404 0.43912 0.0
C236 C 0.71782 0.03089 0.5022 0.0
C237 C 0.7328 0.04731 0.47545 0.0
C238 C 0.72732 0.07221 0.47447 0.0
C239 C 0.70666 0.08113 0.50014 0.0
C240 C 0.69065 0.06439 0.52382 0.0
C241 C 0.69618 0.03933 0.5247 0.0
C242 C 0.71546 0.98502 0.56646 0.0
C243 C 0.70912 0.96014 0.56532 0.0
C244 C 0.7044 0.94738 0.61087 0.0
C245 C 0.70662 0.95913 0.65842 0.0
C246 C 0.71196 0.98427 0.6594 0.0
C247 C 0.71637 0.9971 0.61373 0.0
P248 P 0.50283 0.348 0.99253 0.0
H249 H 0.51599 0.38256 0.91042 0.0
H250 H 0.54039 0.37825 0.83291 0.0
H251 H 0.54952 0.3011 0.86637 0.0
H252 H 0.52473 0.30548 0.94317 0.0
H253 H 0.45059 0.35741 0.97647 0.0
H254 H 0.41464 0.33101 0.9768 0.0
H255 H 0.46121 0.26829 0.00777 0.0
H256 H 0.49692 0.29527 0.01083 0.0
H257 H 0.55632 0.3411 0.00128 0.0
H258 H 0.49406 0.34173 0.10214 0.0
O259 O 0.49365 0.37701 0.99787 0.0
H260 H 0.58362 0.33436 0.07438 0.0
H261 H 0.52155 0.3362 0.17633 0.0
C262 C 0.51844 0.34431 0.93248 0.0
C263 C 0.52292 0.36465 0.90071 0.0
C264 C 0.53702 0.36219 0.85653 0.0
C265 C 0.54699 0.33935 0.84354 0.0
C266 C 0.54182 0.31887 0.8748 0.0
C267 C 0.52766 0.32135 0.91885 0.0
C268 C 0.47639 0.32831 0.99384 0.0
C269 C 0.45304 0.33801 0.9838 0.0
C270 C 0.43248 0.32277 0.98336 0.0
C271 C 0.43492 0.29738 0.99186 0.0
C272 C 0.4585 0.28775 0.00169 0.0
C273 C 0.47902 0.30312 0.00294 0.0
C274 C 0.52303 0.34143 0.04611 0.0
C275 C 0.54842 0.33958 0.03911 0.0
C276 C 0.56413 0.33605 0.08123 0.0
C277 C 0.55486 0.33486 0.13144 0.0
C278 C 0.52933 0.33666 0.13823 0.0
C279 C 0.51359 0.33993 0.09589 0.0
P280 P 0.35284 0.00332 0.51471 0.0
H281 H 0.37111 0.00781 0.62038 0.0
H282 H 0.35403 0.0267 0.69708 0.0
H283 H 0.28929 0.0474 0.60951 0.0
H284 H 0.3061 0.02783 0.53392 0.0
H285 H 0.37956 0.95795 0.49416 0.0
H286 H 0.36641 0.91527 0.48727 0.0
H287 H 0.29212 0.93685 0.52147 0.0
H288 H 0.30532 0.97947 0.52719 0.0
H289 H 0.34968 0.05543 0.49075 0.0
H290 H 0.33418 0.98756 0.41347 0.0
O291 O 0.38338 0.00506 0.51799 0.0
H292 H 0.33406 0.07836 0.41604 0.0
H293 H 0.31843 0.01038 0.33891 0.0
C294 C 0.34013 0.01696 0.57124 0.0
C295 C 0.35324 0.01644 0.61784 0.0
C296 C 0.34348 0.0273 0.66158 0.0
C297 C 0.32033 0.03872 0.65945 0.0
C298 C 0.30703 0.03858 0.6128 0.0
C299 C 0.31676 0.02763 0.56928 0.0
C300 C 0.34348 0.97178 0.51208 0.0
C301 C 0.36049 0.95345 0.50054 0.0
C302 C 0.35296 0.92906 0.49669 0.0
C303 C 0.32823 0.92266 0.50393 0.0
C304 C 0.31124 0.94119 0.51516 0.0
C305 C 0.31881 0.96554 0.519 0.0
C306 C 0.34256 0.01982 0.45819 0.0
C307 C 0.34288 0.04547 0.45774 0.0
C308 C 0.3339 0.05854 0.41514 0.0
C309 C 0.32478 0.04615 0.37186 0.0
C310 C 0.32537 0.02042 0.37166 0.0
C311 C 0.33422 0.00736 0.41449 0.0
P312 P 0.45274 0.76512 0.03188 0.0
H313 H 0.45172 0.78542 0.13475 0.0
H314 H 0.43667 0.76963 0.21656 0.0
H315 H 0.42071 0.70019 0.1449 0.0
H316 H 0.43756 0.71564 0.06457 0.0
H317 H 0.48833 0.7991 0.98868 0.0
H318 H 0.53288 0.79769 0.98104 0.0
H319 H 0.53354 0.72532 0.04976 0.0
H320 H 0.48875 0.72668 0.05627 0.0
H321 H 0.4037 0.74372 0.0227 0.0
H322 H 0.46519 0.75772 0.92386 0.0
O323 O 0.44462 0.79458 0.0319 0.0
H324 H 0.38067 0.72703 0.95082 0.0
H325 H 0.44149 0.74306 0.85045 0.0
C326 C 0.44462 0.75206 0.09314 0.0
C327 C 0.44523 0.7667 0.13695 0.0
C328 C 0.43649 0.75765 0.18366 0.0
C329 C 0.42673 0.73383 0.18721 0.0
C330 C 0.428 0.71862 0.14392 0.0
C331 C 0.43726 0.72756 0.09753 0.0
C332 C 0.48538 0.76324 0.02415 0.0
C333 C 0.49805 0.78293 0.00213 0.0
C334 C 0.52352 0.78213 0.99793 0.0
C335 C 0.53676 0.76154 0.01553 0.0
C336 C 0.52385 0.74141 0.03581 0.0
C337 C 0.4983 0.74224 0.03991 0.0
C338 C 0.43656 0.75105 0.9792 0.0
C339 C 0.41243 0.74285 0.98562 0.0
C340 C 0.39904 0.73374 0.94401 0.0
C341 C 0.40908 0.73369 0.89439 0.0
C342 C 0.43327 0.74221 0.88808 0.0
C343 C 0.44686 0.75075 0.93012 0.0
C344 C 0.16647 0.1926 0.15788 0.0
C345 C 0.16528 0.17648 0.11632 0.0
C346 C 0.14635 0.19604 0.18991 0.0
C347 C 0.1244 0.18291 0.18055 0.0
C348 C 0.1229 0.1667 0.13849 0.0
C349 C 0.14337 0.16376 0.10659 0.0
C350 C 0.14867 0.21374 0.23399 0.0
C351 C 0.09982 0.15232 0.1276 0.0
C352 C 0.08649 0.17989 0.30111 0.0
C353 C 0.0713 0.20046 0.29451 0.0
C354 C 0.10245 0.17257 0.26222 0.0
C355 C 0.10339 0.18626 0.21581 0.0
C356 C 0.08671 0.20579 0.20731 0.0
C357 C 0.0708 0.2126 0.24672 0.0
C358 C 0.11977 0.15149 0.27266 0.0
C359 C 0.08704 0.2208 0.1583 0.0
H360 H 0.18319 0.20277 0.16535 0.0
H361 H 0.14231 0.15131 0.07449 0.0
H362 H 0.1343 0.22807 0.23059 0.0
H363 H 0.14587 0.20393 0.27099 0.0
H364 H 0.16689 0.22285 0.23536 0.0
H365 H 0.10138 0.14095 0.09264 0.0
H366 H 0.09571 0.14015 0.16079 0.0
H367 H 0.08401 0.16493 0.12257 0.0
H368 H 0.08715 0.17044 0.33792 0.0
H369 H 0.05872 0.22817 0.2409 0.0
H370 H 0.13846 0.15873 0.28043 0.0
H371 H 0.12091 0.13945 0.2387 0.0
H372 H 0.11406 0.14031 0.30636 0.0
H373 H 0.10356 0.23268 0.15826 0.0
H374 H 0.07056 0.23266 0.15424 0.0
H375 H 0.08811 0.20879 0.12429 0.0
C376 C 0.23135 0.65058 0.68859 0.0
C377 C 0.23181 0.64417 0.63656 0.0
C378 C 0.22553 0.63324 0.72662 0.0
C379 C 0.21965 0.60899 0.71222 0.0
C380 C 0.21848 0.60283 0.65956 0.0
C381 C 0.22477 0.62046 0.62233 0.0
C382 C 0.22719 0.64049 0.78239 0.0
C383 C 0.21179 0.57731 0.64265 0.0
C384 C 0.2373 0.56011 0.80999 0.0
C385 C 0.2151 0.55603 0.83546 0.0
C386 C 0.23882 0.57687 0.76907 0.0
C387 C 0.21752 0.58961 0.75246 0.0
C388 C 0.19478 0.58477 0.77627 0.0
C389 C 0.19385 0.56811 0.81775 0.0
C390 C 0.26346 0.58152 0.74477 0.0
C391 C 0.17162 0.59775 0.75905 0.0
H392 H 0.23674 0.66886 0.69997 0.0
H393 H 0.22478 0.61546 0.58212 0.0
H394 H 0.21031 0.63502 0.80292 0.0
H395 H 0.24281 0.63079 0.80123 0.0
H396 H 0.22993 0.66051 0.78702 0.0
H397 H 0.2084 0.57639 0.60055 0.0
H398 H 0.22696 0.56454 0.65281 0.0
H399 H 0.19518 0.57079 0.66287 0.0
H400 H 0.25367 0.55041 0.82258 0.0
H401 H 0.17664 0.56518 0.83734 0.0
H402 H 0.26886 0.60092 0.75035 0.0
H403 H 0.26231 0.57839 0.70278 0.0
H404 H 0.27812 0.5696 0.7613 0.0
H405 H 0.17294 0.61746 0.76857 0.0
H406 H 0.15505 0.59005 0.77772 0.0
H407 H 0.16928 0.59651 0.71676 0.0
C408 C 0.85057 0.82095 0.10922 0.0
C409 C 0.8275 0.81285 0.12571 0.0
C410 C 0.86959 0.82551 0.14469 0.0
C411 C 0.8653 0.82216 0.19783 0.0
C412 C 0.84226 0.81342 0.21457 0.0
C413 C 0.82371 0.80871 0.17831 0.0
C414 C 0.89406 0.83445 0.12541 0.0
C415 C 0.83691 0.80982 0.27098 0.0
C416 C 0.91709 0.81668 0.29589 0.0
C417 C 0.91739 0.84022 0.31704 0.0
C418 C 0.90091 0.81079 0.25555 0.0
C419 C 0.88443 0.82877 0.23636 0.0
C420 C 0.88514 0.85276 0.25641 0.0
C421 C 0.90171 0.85823 0.29625 0.0
C422 C 0.90084 0.78507 0.23479 0.0
C423 C 0.86778 0.87243 0.23703 0.0
H424 H 0.85369 0.82402 0.06861 0.0
H425 H 0.80593 0.80252 0.19145 0.0
H426 H 0.89744 0.85335 0.13901 0.0
H427 H 0.90907 0.82277 0.14113 0.0
H428 H 0.89498 0.83447 0.08279 0.0
H429 H 0.81832 0.80214 0.27753 0.0
H430 H 0.85066 0.79733 0.28889 0.0
H431 H 0.83832 0.82761 0.291 0.0
H432 H 0.92891 0.80255 0.31202 0.0
H433 H 0.90215 0.87659 0.31164 0.0
H434 H 0.9019 0.78549 0.19225 0.0
H435 H 0.88341 0.77583 0.24498 0.0
H436 H 0.91635 0.77395 0.25033 0.0
H437 H 0.86926 0.87455 0.19475 0.0
H438 H 0.87144 0.89044 0.25503 0.0
H439 H 0.84859 0.86703 0.24534 0.0
C440 C 0.73983 0.38877 0.63345 0.0
C441 C 0.75044 0.36642 0.61953 0.0
C442 C 0.75094 0.40371 0.67062 0.0
C443 C 0.77329 0.39621 0.69415 0.0
C444 C 0.78453 0.37412 0.67896 0.0
C445 C 0.77295 0.35946 0.64197 0.0
C446 C 0.73834 0.4271 0.68595 0.0
C447 C 0.80847 0.36561 0.70284 0.0
C448 C 0.81124 0.44299 0.76762 0.0
C449 C 0.80472 0.43779 0.8186 0.0
C450 C 0.80118 0.42963 0.72662 0.0
C451 C 0.78412 0.4107 0.73685 0.0
C452 C 0.77743 0.40541 0.78816 0.0
C453 C 0.78787 0.41893 0.82834 0.0
C454 C 0.8088 0.43574 0.6724 0.0
C455 C 0.7593 0.38536 0.80068 0.0
H456 H 0.72247 0.39434 0.61631 0.0
H457 H 0.78142 0.34234 0.63112 0.0
H458 H 0.73268 0.42574 0.72671 0.0
H459 H 0.75118 0.44278 0.68281 0.0
H460 H 0.72182 0.43106 0.66188 0.0
H461 H 0.81564 0.34886 0.68435 0.0
H462 H 0.8225 0.38025 0.69989 0.0
H463 H 0.80585 0.36164 0.74431 0.0
H464 H 0.82404 0.4577 0.7597 0.0
H465 H 0.78307 0.41445 0.86762 0.0
H466 H 0.7925 0.44108 0.64898 0.0
H467 H 0.81691 0.41936 0.65429 0.0
H468 H 0.82239 0.45088 0.67094 0.0
H469 H 0.74164 0.38886 0.78028 0.0
H470 H 0.75571 0.38384 0.84252 0.0
H471 H 0.76633 0.36751 0.78719 0.0
C472 C 0.64157 0.34002 0.38213 0.0
C473 C 0.65961 0.32174 0.3804 0.0
C474 C 0.62292 0.34144 0.3446 0.0
C475 C 0.62254 0.32442 0.30395 0.0
C476 C 0.64025 0.30548 0.30287 0.0
C477 C 0.65846 0.30425 0.34134 0.0
C478 C 0.60407 0.36162 0.34758 0.0
C479 C 0.64063 0.28715 0.25983 0.0
C480 C 0.56577 0.3177 0.21889 0.0
C481 C 0.57188 0.33242 0.17637 0.0
C482 C 0.58189 0.31519 0.26113 0.0
C483 C 0.60477 0.32744 0.26056 0.0
C484 C 0.61098 0.34241 0.21796 0.0
C485 C 0.59441 0.34487 0.17667 0.0
C486 C 0.57454 0.29928 0.30617 0.0
C487 C 0.63526 0.35571 0.21577 0.0
H488 H 0.6422 0.35344 0.41253 0.0
H489 H 0.67234 0.29008 0.33967 0.0
H490 H 0.6065 0.37465 0.31505 0.0
H491 H 0.58528 0.35394 0.34418 0.0
H492 H 0.60553 0.37194 0.38406 0.0
H493 H 0.65471 0.27269 0.26623 0.0
H494 H 0.62243 0.27828 0.2556 0.0
H495 H 0.64455 0.29672 0.22301 0.0
H496 H 0.54854 0.30781 0.21887 0.0
H497 H 0.59909 0.35673 0.14463 0.0
H498 H 0.57552 0.30994 0.3422 0.0
H499 H 0.58752 0.28374 0.31057 0.0
H500 H 0.55568 0.29184 0.30166 0.0
H501 H 0.63702 0.36834 0.2487 0.0
H502 H 0.63739 0.36644 0.17962 0.0
H503 H 0.65057 0.34236 0.21895 0.0
C504 C 0.26455 0.10511 0.90891 0.0
C505 C 0.25697 0.12852 0.89264 0.0
C506 C 0.2759 0.08897 0.87475 0.0
C507 C 0.27953 0.09637 0.82308 0.0
C508 C 0.27215 0.12005 0.80664 0.0
C509 C 0.26109 0.13584 0.8416 0.0
C510 C 0.28379 0.06396 0.89376 0.0
C511 C 0.27556 0.1286 0.75179 0.0
C512 C 0.32563 0.06596 0.73596 0.0
C513 C 0.31033 0.05147 0.70497 0.0
C514 C 0.31602 0.07981 0.77622 0.0
C515 C 0.29048 0.07932 0.78545 0.0
C516 C 0.27508 0.06402 0.75563 0.0
C517 C 0.2852 0.05021 0.71594 0.0
C518 C 0.33306 0.09577 0.80741 0.0
C519 C 0.24774 0.06301 0.76422 0.0
H520 H 0.26159 0.09935 0.94833 0.0
H521 H 0.25531 0.15386 0.82854 0.0
H522 H 0.27362 0.04961 0.87247 0.0
H523 H 0.3036 0.06117 0.88632 0.0
H524 H 0.28052 0.06134 0.93551 0.0
H525 H 0.26909 0.14768 0.74533 0.0
H526 H 0.29522 0.1276 0.74145 0.0
H527 H 0.26534 0.1164 0.72529 0.0
H528 H 0.34502 0.06725 0.72755 0.0
H529 H 0.27332 0.03868 0.6929 0.0
H530 H 0.33 0.09283 0.84909 0.0
H531 H 0.32915 0.11532 0.79873 0.0
H532 H 0.35267 0.09214 0.79911 0.0
H533 H 0.24388 0.05894 0.80517 0.0
H534 H 0.23857 0.04898 0.74011 0.0
H535 H 0.23949 0.08112 0.75496 0.0
C536 C 0.31762 0.69144 0.35466 0.0
C537 C 0.32032 0.69111 0.40825 0.0
C538 C 0.33764 0.69613 0.32286 0.0
C539 C 0.3609 0.70102 0.34522 0.0
C540 C 0.36401 0.69973 0.39928 0.0
C541 C 0.34364 0.6946 0.43025 0.0
C542 C 0.33363 0.69694 0.26533 0.0
C543 C 0.38847 0.70505 0.42448 0.0
C544 C 0.41296 0.70118 0.24971 0.0
C545 C 0.41303 0.72582 0.2337 0.0
C546 C 0.39703 0.69293 0.28826 0.0
C547 C 0.38107 0.70978 0.3118 0.0
C548 C 0.38233 0.73492 0.2985 0.0
C549 C 0.39807 0.74258 0.25935 0.0
C550 C 0.39619 0.66596 0.30141 0.0
C551 C 0.36582 0.75356 0.32317 0.0
H552 H 0.29967 0.68844 0.33747 0.0
H553 H 0.34576 0.69442 0.47173 0.0
H554 H 0.33596 0.71598 0.25096 0.0
H555 H 0.34744 0.68542 0.24597 0.0
H556 H 0.31502 0.69051 0.25398 0.0
H557 H 0.3886 0.70029 0.46609 0.0
H558 H 0.40334 0.69478 0.40549 0.0
H559 H 0.3927 0.72483 0.42019 0.0
H560 H 0.4248 0.68815 0.23103 0.0
H561 H 0.3976 0.76158 0.24707 0.0
H562 H 0.37896 0.65798 0.28586 0.0
H563 H 0.39615 0.66309 0.34366 0.0
H564 H 0.41193 0.65585 0.28511 0.0
H565 H 0.34662 0.75071 0.3099 0.0
H566 H 0.37122 0.77265 0.31344 0.0
H567 H 0.36615 0.75131 0.36558 0.0
C568 C 0.72446 0.87396 0.91045 0.0
C569 C 0.73786 0.85392 0.89258 0.0
C570 C 0.71522 0.89179 0.87613 0.0
C571 C 0.72015 0.88978 0.82307 0.0
C572 C 0.73298 0.86914 0.80475 0.0
C573 C 0.74141 0.8513 0.8397 0.0
C574 C 0.70099 0.91317 0.89683 0.0
C575 C 0.739 0.86653 0.74853 0.0
C576 C 0.68948 0.92644 0.71594 0.0
C577 C 0.70736 0.94428 0.70625 0.0
C578 C 0.69247 0.90954 0.75654 0.0
C579 C 0.71414 0.91021 0.78702 0.0
C580 C 0.73161 0.92899 0.77895 0.0
C581 C 0.72789 0.94593 0.73889 0.0
C582 C 0.67314 0.89018 0.76496 0.0
C583 C 0.75515 0.93013 0.81004 0.0
H584 H 0.72146 0.87586 0.95133 0.0
H585 H 0.75184 0.83588 0.82575 0.0
H586 H 0.71224 0.93004 0.89406 0.0
H587 H 0.68406 0.9163 0.87362 0.0
H588 H 0.69586 0.91031 0.93764 0.0
H589 H 0.74825 0.8489 0.74033 0.0
H590 H 0.72204 0.86779 0.72471 0.0
H591 H 0.75123 0.88172 0.73639 0.0
H592 H 0.67355 0.92526 0.69077 0.0
H593 H 0.74189 0.95952 0.731 0.0
H594 H 0.66918 0.88804 0.80649 0.0
H595 H 0.67995 0.8723 0.75119 0.0
H596 H 0.65578 0.89458 0.74404 0.0
H597 H 0.75119 0.9296 0.85173 0.0
H598 H 0.76593 0.94692 0.80148 0.0
H599 H 0.76664 0.91393 0.80152 0.0
C600 C 0.83843 0.83112 0.88146 0.0
C601 C 0.82749 0.80841 0.8923 0.0
C602 C 0.85631 0.83348 0.84352 0.0
C603 C 0.86369 0.81258 0.81602 0.0
C604 C 0.85359 0.78939 0.82828 0.0
C605 C 0.83551 0.78758 0.86619 0.0
C606 C 0.86656 0.85857 0.83143 0.0
C607 C 0.86128 0.76666 0.80016 0.0
C608 C 0.88714 0.82559 0.68203 0.0
C609 C 0.9126 0.82566 0.69015 0.0
C610 C 0.87105 0.82066 0.72245 0.0
C611 C 0.88067 0.81549 0.77213 0.0
C612 C 0.90638 0.81482 0.78028 0.0
C613 C 0.92207 0.82007 0.73919 0.0
C614 C 0.84372 0.82185 0.71234 0.0
C615 C 0.91729 0.80912 0.83261 0.0
H616 H 0.83249 0.84733 0.90153 0.0
H617 H 0.82731 0.76993 0.87459 0.0
H618 H 0.88689 0.85822 0.83335 0.0
H619 H 0.86122 0.86405 0.79168 0.0
H620 H 0.85985 0.87274 0.85819 0.0
H621 H 0.85346 0.74975 0.81749 0.0
H622 H 0.85508 0.76794 0.75947 0.0
H623 H 0.88157 0.76506 0.80016 0.0
H624 H 0.87976 0.83017 0.64428 0.0
H625 H 0.94177 0.81985 0.74539 0.0
H626 H 0.83561 0.83694 0.7348 0.0
H627 H 0.83485 0.8046 0.7251 0.0
H628 H 0.83924 0.82497 0.67105 0.0
H629 H 0.91249 0.82385 0.85976 0.0
H630 H 0.93759 0.80742 0.83165 0.0
H631 H 0.90951 0.79181 0.84804 0.0
C632 C 0.74649 0.39574 0.39117 0.0
C633 C 0.75053 0.3704 0.39039 0.0
C634 C 0.75801 0.41133 0.35555 0.0
C635 C 0.77426 0.40131 0.31922 0.0
C636 C 0.77935 0.3759 0.32021 0.0
C637 C 0.76723 0.36074 0.35543 0.0
C638 C 0.7519 0.43828 0.35519 0.0
C639 C 0.79696 0.36456 0.28286 0.0
C640 C 0.78308 0.43045 0.1881 0.0
C641 C 0.80602 0.44169 0.1939 0.0
C642 C 0.77204 0.41823 0.2294 0.0
C643 C 0.78449 0.41684 0.27739 0.0
C644 C 0.80741 0.42871 0.28383 0.0
C645 C 0.81783 0.44122 0.24198 0.0
C646 C 0.74739 0.40617 0.22119 0.0
C647 C 0.82138 0.4273 0.33416 0.0
H648 H 0.73354 0.40323 0.41814 0.0
H649 H 0.77065 0.34118 0.35527 0.0
H650 H 0.76892 0.4494 0.35541 0.0
H651 H 0.74161 0.443 0.31942 0.0
H652 H 0.7406 0.44351 0.38861 0.0
H653 H 0.80066 0.34498 0.29193 0.0
H654 H 0.78921 0.36587 0.24333 0.0
H655 H 0.81462 0.37465 0.2831 0.0
H656 H 0.77385 0.4311 0.15099 0.0
H657 H 0.83563 0.44987 0.24628 0.0
H658 H 0.73443 0.41188 0.25138 0.0
H659 H 0.74941 0.386 0.22424 0.0
H660 H 0.73923 0.41074 0.18298 0.0
H661 H 0.80948 0.43287 0.3663 0.0
H662 H 0.838 0.43907 0.33411 0.0
H663 H 0.82711 0.4081 0.34181 0.0
C664 C 0.1599 0.15776 0.86088 0.0
C665 C 0.1675 0.1786 0.88775 0.0
C666 C 0.14246 0.15958 0.82083 0.0
C667 C 0.13215 0.1827 0.80814 0.0
C668 C 0.13869 0.20348 0.83732 0.0
C669 C 0.15644 0.20122 0.87644 0.0
C670 C 0.13618 0.13706 0.79022 0.0
C671 C 0.1278 0.22838 0.82568 0.0
C672 C 0.11255 0.19833 0.67164 0.0
C673 C 0.08686 0.19694 0.67428 0.0
C674 C 0.12745 0.19264 0.71433 0.0
C675 C 0.11647 0.18583 0.76136 0.0
C676 C 0.09064 0.18378 0.7642 0.0
C677 C 0.07614 0.18919 0.72053 0.0
C678 C 0.15496 0.19484 0.70953 0.0
C679 C 0.07828 0.17673 0.81381 0.0
H680 H 0.16848 0.14025 0.86939 0.0
H681 H 0.16207 0.21732 0.89757 0.0
H682 H 0.11602 0.13516 0.78577 0.0
H683 H 0.14391 0.1389 0.7511 0.0
H684 H 0.14362 0.12009 0.80838 0.0
H685 H 0.13286 0.24207 0.85524 0.0
H686 H 0.13438 0.23507 0.78787 0.0
H687 H 0.1075 0.22719 0.82318 0.0
H688 H 0.12112 0.20475 0.63666 0.0
H689 H 0.05637 0.18767 0.72287 0.0
H690 H 0.16406 0.17789 0.72388 0.0
H691 H 0.1617 0.21018 0.73349 0.0
H692 H 0.16068 0.19823 0.66924 0.0
H693 H 0.08627 0.15953 0.82962 0.0
H694 H 0.05818 0.17423 0.80877 0.0
H695 H 0.08151 0.1912 0.84273 0.0
C696 C 0.24422 0.62096 0.38736 0.0
C697 C 0.23012 0.6409 0.40329 0.0
C698 C 0.23537 0.60488 0.34991 0.0
C699 C 0.21163 0.60852 0.32855 0.0
C700 C 0.1968 0.62788 0.34625 0.0
C701 C 0.20632 0.64403 0.38311 0.0
C702 C 0.25189 0.58461 0.3316 0.0
C703 C 0.1712 0.63197 0.3252 0.0
C704 C 0.20496 0.58353 0.19415 0.0
C705 C 0.1958 0.56001 0.20404 0.0
C706 C 0.20896 0.60007 0.23418 0.0
C707 C 0.2033 0.59299 0.28518 0.0
C708 C 0.19238 0.56991 0.29485 0.0
C709 C 0.18901 0.55353 0.25414 0.0
C710 C 0.22093 0.62438 0.2223 0.0
C711 C 0.18554 0.56197 0.34852 0.0
H712 H 0.26263 0.61844 0.40267 0.0
H713 H 0.19524 0.65928 0.39567 0.0
H714 H 0.24258 0.56665 0.33558 0.0
H715 H 0.25591 0.58739 0.29024 0.0
H716 H 0.26956 0.58382 0.35326 0.0
H717 H 0.16109 0.64606 0.34702 0.0
H718 H 0.17214 0.63801 0.28445 0.0
H719 H 0.16061 0.61463 0.32619 0.0
H720 H 0.21048 0.58846 0.1555 0.0
H721 H 0.18176 0.53538 0.26169 0.0
H722 H 0.23974 0.62464 0.23909 0.0
H723 H 0.21054 0.63954 0.2399 0.0
H724 H 0.22221 0.62796 0.18032 0.0
H725 H 0.20244 0.55794 0.3712 0.0
H726 H 0.17385 0.5453 0.34847 0.0
H727 H 0.17565 0.57685 0.36832 0.0
C728 C 0.32821 0.72183 0.63978 0.0
C729 C 0.31581 0.69945 0.63637 0.0
C730 C 0.34556 0.72592 0.67892 0.0
C731 C 0.35 0.70742 0.71638 0.0
C732 C 0.33809 0.68446 0.71209 0.0
C733 C 0.32134 0.68063 0.6716 0.0
C734 C 0.35836 0.75041 0.68136 0.0
C735 C 0.34187 0.6645 0.75194 0.0
C736 C 0.40464 0.71415 0.80733 0.0
C737 C 0.39394 0.72597 0.84924 0.0
C738 C 0.39061 0.70789 0.76377 0.0
C739 C 0.36517 0.71302 0.7626 0.0
C740 C 0.35413 0.72435 0.80516 0.0
C741 C 0.36867 0.73102 0.84747 0.0
C742 C 0.40307 0.69623 0.71866 0.0
C743 C 0.32695 0.72981 0.80574 0.0
H744 H 0.32404 0.7363 0.61219 0.0
H745 H 0.31157 0.66338 0.66916 0.0
H746 H 0.35166 0.76076 0.71486 0.0
H747 H 0.37842 0.74782 0.6867 0.0
H748 H 0.35508 0.76164 0.64612 0.0
H749 H 0.33291 0.64706 0.7407 0.0
H750 H 0.36171 0.66107 0.75851 0.0
H751 H 0.33411 0.67044 0.78904 0.0
H752 H 0.42402 0.70978 0.80841 0.0
H753 H 0.36018 0.74066 0.87879 0.0
H754 H 0.40077 0.70805 0.68401 0.0
H755 H 0.3944 0.67836 0.70991 0.0
H756 H 0.42299 0.69325 0.72577 0.0
H757 H 0.32233 0.74349 0.77537 0.0
H758 H 0.32093 0.73706 0.84328 0.0
H759 H 0.31631 0.71297 0.7973 0.0
C760 C 0.7408 0.8761 0.1225 0.0
C761 C 0.73476 0.85114 0.12378 0.0
C762 C 0.73295 0.89193 0.16093 0.0
C763 C 0.71856 0.88262 0.20158 0.0
C764 C 0.71052 0.85796 0.20065 0.0
C765 C 0.71878 0.84243 0.16169 0.0
C766 C 0.74185 0.91812 0.1602 0.0
C767 C 0.69472 0.84752 0.24274 0.0
C768 C 0.7338 0.91344 0.32707 0.0
C769 C 0.71556 0.93147 0.32958 0.0
C770 C 0.73419 0.89664 0.2869 0.0
C771 C 0.71563 0.89761 0.24847 0.0
C772 C 0.69621 0.91469 0.25251 0.0
C773 C 0.69644 0.93155 0.29303 0.0
C774 C 0.75526 0.87872 0.2842 0.0
C775 C 0.67588 0.91596 0.21276 0.0
H776 H 0.75271 0.88312 0.09269 0.0
H777 H 0.71376 0.82322 0.16261 0.0
H778 H 0.72646 0.9309 0.1672 0.0
H779 H 0.7556 0.9207 0.19145 0.0
H780 H 0.75047 0.9232 0.12311 0.0
H781 H 0.68609 0.82993 0.23134 0.0
H782 H 0.70618 0.84412 0.27758 0.0
H783 H 0.6801 0.86063 0.25321 0.0
H784 H 0.74822 0.91281 0.3561 0.0
H785 H 0.68222 0.94537 0.29492 0.0
H786 H 0.76652 0.88292 0.24995 0.0
H787 H 0.74823 0.85978 0.27999 0.0
H788 H 0.76735 0.87935 0.31881 0.0
H789 H 0.68291 0.92452 0.17703 0.0
H790 H 0.66007 0.92695 0.22614 0.0
H791 H 0.66934 0.89733 0.20294 0.0
C792 C 0.6354 0.33512 0.59777 0.0
C793 C 0.65746 0.32372 0.61284 0.0
C794 C 0.61579 0.33711 0.63203 0.0
C795 C 0.61831 0.32749 0.68251 0.0
C796 C 0.64019 0.31526 0.6974 0.0
C797 C 0.65946 0.3135 0.66241 0.0
C798 C 0.59268 0.35018 0.61473 0.0
C799 C 0.64355 0.3047 0.75088 0.0
C800 C 0.58214 0.35491 0.79145 0.0
C801 C 0.56398 0.33713 0.79954 0.0
C802 C 0.59948 0.35231 0.7525 0.0
C803 C 0.59872 0.33138 0.72089 0.0
C804 C 0.58006 0.31367 0.72791 0.0
C805 C 0.56291 0.31675 0.76718 0.0
C806 C 0.61912 0.37159 0.74628 0.0
C807 C 0.57862 0.29116 0.69481 0.0
H808 H 0.63359 0.34296 0.55949 0.0
H809 H 0.67634 0.30451 0.67439 0.0
H810 H 0.57639 0.33857 0.62229 0.0
H811 H 0.59047 0.36723 0.63702 0.0
H812 H 0.59292 0.35503 0.57318 0.0
H813 H 0.66116 0.29463 0.75553 0.0
H814 H 0.64316 0.31965 0.77941 0.0
H815 H 0.62827 0.29204 0.76003 0.0
H816 H 0.58334 0.37052 0.81673 0.0
H817 H 0.54873 0.3031 0.77282 0.0
H818 H 0.61941 0.3784 0.70599 0.0
H819 H 0.63739 0.36347 0.75487 0.0
H820 H 0.61635 0.38741 0.77207 0.0
H821 H 0.57822 0.29649 0.65357 0.0
H822 H 0.56215 0.27988 0.70315 0.0
H823 H 0.5952 0.27971 0.7013 0.0
C824 C 0.28228 0.13693 0.14537 0.0
C825 C 0.25945 0.13023 0.12435 0.0
C826 C 0.2939 0.12238 0.18313 0.0
C827 C 0.28234 0.10068 0.20059 0.0
C828 C 0.2597 0.09339 0.17839 0.0
C829 C 0.24857 0.1082 0.14035 0.0
C830 C 0.31818 0.13063 0.20547 0.0
C831 C 0.24678 0.07042 0.19616 0.0
C832 C 0.31993 0.05398 0.27709 0.0
C833 C 0.31406 0.06005 0.32773 0.0
C834 C 0.30977 0.06704 0.23521 0.0
C835 C 0.29322 0.08646 0.24427 0.0
C836 C 0.28713 0.09255 0.29532 0.0
C837 C 0.29768 0.07932 0.3364 0.0
C838 C 0.31686 0.06018 0.18133 0.0
C839 C 0.2694 0.11301 0.30657 0.0
H840 H 0.29095 0.1538 0.1329 0.0
H841 H 0.23095 0.10285 0.12432 0.0
H842 H 0.31592 0.13522 0.24657 0.0
H843 H 0.33185 0.11563 0.20363 0.0
H844 H 0.32559 0.14695 0.18508 0.0
H845 H 0.23004 0.06653 0.17292 0.0
H846 H 0.2593 0.05446 0.19408 0.0
H847 H 0.24142 0.07233 0.23693 0.0
H848 H 0.33274 0.03922 0.27026 0.0
H849 H 0.29281 0.08384 0.37545 0.0
H850 H 0.32548 0.07609 0.16178 0.0
H851 H 0.30027 0.05527 0.15865 0.0
H852 H 0.32987 0.04453 0.18081 0.0
H853 H 0.27644 0.13055 0.29072 0.0
H854 H 0.26637 0.11522 0.34841 0.0
H855 H 0.25146 0.10941 0.28755 0.0
C856 C 0.22074 0.27707 0.98409 0.0
C857 C 0.2082 0.25907 0.01209 0.0
C858 C 0.21395 0.30175 0.98676 0.0
C859 C 0.19369 0.30851 0.01713 0.0
C860 C 0.18033 0.29028 0.04394 0.0
C861 C 0.18798 0.26576 0.04169 0.0
C862 C 0.22902 0.32068 0.95849 0.0
C863 C 0.15826 0.29674 0.07557 0.0
C864 C 0.1967 0.37378 0.06392 0.0
C865 C 0.18347 0.38625 0.02531 0.0
C866 C 0.19917 0.34826 0.06309 0.0
C867 C 0.18774 0.33487 0.02317 0.0
C868 C 0.17298 0.34723 0.98602 0.0
C869 C 0.17131 0.37288 0.98709 0.0
C870 C 0.21549 0.33588 0.10281 0.0
C871 C 0.15998 0.33349 0.94371 0.0
H872 H 0.23647 0.27197 0.96139 0.0
H873 H 0.17811 0.25179 0.06296 0.0
H874 H 0.21716 0.33146 0.93179 0.0
H875 H 0.23721 0.33367 0.98635 0.0
H876 H 0.24405 0.31233 0.93612 0.0
H877 H 0.14858 0.28022 0.0902 0.0
H878 H 0.16404 0.30796 0.10885 0.0
H879 H 0.14516 0.30792 0.0523 0.0
H880 H 0.20639 0.38414 0.09309 0.0
H881 H 0.16102 0.38256 0.95733 0.0
H882 H 0.23204 0.32852 0.08389 0.0
H883 H 0.20585 0.3202 0.1209 0.0
H884 H 0.2215 0.34862 0.13348 0.0
H885 H 0.1736 0.32691 0.91567 0.0
H886 H 0.14638 0.34516 0.92288 0.0
H887 H 0.15045 0.31717 0.95955 0.0
C888 C 0.17423 0.74049 0.46742 0.0
C889 C 0.1831 0.72788 0.51108 0.0
C890 C 0.15128 0.75204 0.46744 0.0
C891 C 0.13673 0.75082 0.51205 0.0
C892 C 0.145 0.73717 0.5554 0.0
C893 C 0.16813 0.72588 0.55444 0.0
C894 C 0.14309 0.76645 0.42045 0.0
C895 C 0.12983 0.73526 0.60346 0.0
C896 C 0.09275 0.80357 0.53164 0.0
C897 C 0.07045 0.79365 0.51432 0.0
C898 C 0.11437 0.78968 0.53172 0.0
C899 C 0.11366 0.76521 0.51436 0.0
C900 C 0.09118 0.75492 0.49762 0.0
C901 C 0.06983 0.76929 0.49764 0.0
C902 C 0.13804 0.80131 0.54979 0.0
C903 C 0.08975 0.72887 0.47894 0.0
H904 H 0.18556 0.74204 0.43358 0.0
H905 H 0.17473 0.71603 0.58822 0.0
H906 H 0.12447 0.7606 0.40806 0.0
H907 H 0.14202 0.78618 0.4299 0.0
H908 H 0.1558 0.76425 0.38774 0.0
H909 H 0.13789 0.72227 0.63211 0.0
H910 H 0.12841 0.75353 0.6214 0.0
H911 H 0.11092 0.72921 0.59382 0.0
H912 H 0.09328 0.82222 0.54542 0.0
H913 H 0.05273 0.76159 0.48366 0.0
H914 H 0.15152 0.80147 0.51814 0.0
H915 H 0.14616 0.79041 0.5819 0.0
H916 H 0.13537 0.82041 0.56292 0.0
H917 H 0.10102 0.72686 0.44401 0.0
H918 H 0.07064 0.72323 0.46966 0.0
H919 H 0.09737 0.71616 0.50854 0.0
C920 C 0.78488 0.70776 0.97346 0.0
C921 C 0.78911 0.72328 0.01529 0.0
C922 C 0.79337 0.68353 0.97411 0.0
C923 C 0.80655 0.67458 0.01752 0.0
C924 C 0.81139 0.69025 0.05941 0.0
C925 C 0.80256 0.71442 0.05786 0.0
C926 C 0.78778 0.66736 0.92871 0.0
C927 C 0.82555 0.68137 0.10617 0.0
C928 C 0.80485 0.60576 0.03773 0.0
C929 C 0.82711 0.59845 0.01607 0.0
C930 C 0.79823 0.63053 0.03957 0.0
C931 C 0.81433 0.64849 0.01962 0.0
C932 C 0.83717 0.64135 0.99919 0.0
C933 C 0.84327 0.61639 0.99754 0.0
C934 C 0.77371 0.63742 0.0617 0.0
C935 C 0.85486 0.66001 0.97776 0.0
H936 H 0.7746 0.71441 0.94028 0.0
H937 H 0.80608 0.72631 0.09021 0.0
H938 H 0.80502 0.65974 0.91325 0.0
H939 H 0.77629 0.65165 0.94114 0.0
H940 H 0.77796 0.67734 0.89728 0.0
H941 H 0.8288 0.69617 0.1344 0.0
H942 H 0.81532 0.66636 0.12538 0.0
H943 H 0.84352 0.67379 0.09459 0.0
H944 H 0.79249 0.59204 0.05309 0.0
H945 H 0.86042 0.61088 0.9804 0.0
H946 H 0.76207 0.64614 0.03142 0.0
H947 H 0.77624 0.651 0.09271 0.0
H948 H 0.76375 0.62133 0.07753 0.0
H949 H 0.84661 0.66903 0.94331 0.0
H950 H 0.8726 0.65165 0.96676 0.0
H951 H 0.85851 0.67451 0.00639 0.0
C952 C 0.80709 0.2866 0.45393 0.0
C953 C 0.79354 0.28702 0.49944 0.0
C954 C 0.83211 0.28056 0.45466 0.0
C955 C 0.84397 0.27517 0.50211 0.0
C956 C 0.83042 0.2756 0.54819 0.0
C957 C 0.80533 0.28137 0.54626 0.0
C958 C 0.84589 0.28003 0.40466 0.0
C959 C 0.84252 0.27035 0.5996 0.0
C960 C 0.90437 0.2404 0.50072 0.0
C961 C 0.92154 0.25948 0.50427 0.0
C962 C 0.87906 0.24521 0.5 0.0
C963 C 0.87069 0.26967 0.50359 0.0
C964 C 0.88787 0.28897 0.50786 0.0
C965 C 0.91305 0.28367 0.50772 0.0
C966 C 0.86126 0.22416 0.49503 0.0
C967 C 0.87966 0.31528 0.51214 0.0
H968 H 0.7981 0.29086 0.41757 0.0
H969 H 0.79503 0.28185 0.58162 0.0
H970 H 0.86088 0.29376 0.40535 0.0
H971 H 0.8545 0.26181 0.39964 0.0
H972 H 0.83381 0.28394 0.37091 0.0
H973 H 0.82936 0.27121 0.63181 0.0
H974 H 0.85105 0.25191 0.59959 0.0
H975 H 0.85742 0.28379 0.60668 0.0
H976 H 0.9107 0.22163 0.49877 0.0
H977 H 0.9261 0.29861 0.50949 0.0
H978 H 0.84956 0.22681 0.46025 0.0
H979 H 0.84891 0.22362 0.5286 0.0
H980 H 0.87073 0.20621 0.49234 0.0
H981 H 0.86922 0.3208 0.47708 0.0
H982 H 0.89533 0.32807 0.51719 0.0
H983 H 0.86717 0.31727 0.54522 0.0
C984 C 0.69518 0.22572 0.54872 0.0
C985 C 0.70267 0.23757 0.50344 0.0
C986 C 0.69178 0.20022 0.55029 0.0
C987 C 0.69597 0.18635 0.50557 0.0
C988 C 0.70185 0.19843 0.45896 0.0
C989 C 0.7051 0.22387 0.45846 0.0
C990 C 0.68527 0.188 0.60059 0.0
C991 C 0.70636 0.18434 0.41033 0.0
C992 C 0.72305 0.1228 0.51764 0.0
C993 C 0.70301 0.10792 0.50471 0.0
C994 C 0.7207 0.14827 0.51974 0.0
C995 C 0.69767 0.15922 0.50874 0.0
C996 C 0.67709 0.14429 0.4975 0.0
C997 C 0.68 0.11872 0.4957 0.0
C998 C 0.74309 0.1635 0.53225 0.0
C999 C 0.65227 0.15535 0.48575 0.0
H1000 H 0.69301 0.23617 0.58356 0.0
H1001 H 0.71049 0.23289 0.42306 0.0
H1002 H 0.67073 0.17406 0.59472 0.0
H1003 H 0.70164 0.17841 0.61655 0.0
H1004 H 0.6789 0.20141 0.62937 0.0
H1005 H 0.70798 0.19658 0.37618 0.0
H1006 H 0.72362 0.17369 0.4146 0.0
H1007 H 0.6913 0.1711 0.40325 0.0
H1008 H 0.74074 0.11447 0.52584 0.0
H1009 H 0.66447 0.10724 0.48576 0.0
H1010 H 0.73927 0.17578 0.5649 0.0
H1011 H 0.74774 0.17527 0.49874 0.0
H1012 H 0.75933 0.15206 0.54231 0.0
H1013 H 0.64723 0.16862 0.51584 0.0
H1014 H 0.63766 0.14122 0.48296 0.0
H1015 H 0.65294 0.16557 0.44875 0.0
C1016 C 0.30547 0.23601 0.03551 0.0
C1017 C 0.29969 0.21633 0.00334 0.0
C1018 C 0.32829 0.24771 0.03289 0.0
C1019 C 0.34603 0.23923 0.99799 0.0
C1020 C 0.34065 0.21885 0.96657 0.0
C1021 C 0.3174 0.20779 0.9692 0.0
C1022 C 0.33312 0.26966 0.06639 0.0
C1023 C 0.35932 0.20897 0.92973 0.0
C1024 C 0.39342 0.28603 0.95648 0.0
C1025 C 0.41288 0.28119 0.99092 0.0
C1026 C 0.3718 0.27214 0.95757 0.0
C1027 C 0.36973 0.25249 0.99312 0.0
C1028 C 0.38967 0.24675 0.0264 0.0
C1029 C 0.41089 0.26132 0.0253 0.0
C1030 C 0.35082 0.27904 0.92185 0.0
C1031 C 0.38829 0.22569 0.06428 0.0
H1032 H 0.29182 0.24283 0.06175 0.0
H1033 H 0.31307 0.19248 0.94451 0.0
H1034 H 0.34976 0.26656 0.09047 0.0
H1035 H 0.33662 0.28602 0.04191 0.0
H1036 H 0.31751 0.27372 0.09201 0.0
H1037 H 0.3529 0.192 0.91063 0.0
H1038 H 0.36331 0.22292 0.89972 0.0
H1039 H 0.37681 0.205 0.95039 0.0
H1040 H 0.39495 0.3009 0.92883 0.0
H1041 H 0.42563 0.2575 0.05248 0.0
H1042 H 0.33473 0.28465 0.94468 0.0
H1043 H 0.34515 0.26304 0.89868 0.0
H1044 H 0.35566 0.29431 0.89533 0.0
H1045 H 0.37462 0.22987 0.0942 0.0
H1046 H 0.40623 0.22199 0.08348 0.0
H1047 H 0.38209 0.20881 0.04463 0.0
C1048 C 0.29005 0.7819 0.45976 0.0
C1049 C 0.2751 0.77418 0.50039 0.0
C1050 C 0.29958 0.80579 0.45796 0.0
C1051 C 0.29395 0.82234 0.49765 0.0
C1052 C 0.27891 0.81466 0.53875 0.0
C1053 C 0.26971 0.79069 0.53966 0.0
C1054 C 0.31566 0.8133 0.41365 0.0
C1055 C 0.2725 0.83178 0.5818 0.0
C1056 C 0.33414 0.87787 0.52246 0.0
C1057 C 0.32011 0.89676 0.50002 0.0
C1058 C 0.32615 0.85345 0.52087 0.0
C1059 C 0.30358 0.84781 0.4963 0.0
C1060 C 0.2896 0.86671 0.47261 0.0
C1061 C 0.29804 0.89094 0.47473 0.0
C1062 C 0.34155 0.83378 0.54662 0.0
C1063 C 0.26547 0.8614 0.44592 0.0
H1064 H 0.29445 0.76924 0.42941 0.0
H1065 H 0.25824 0.78492 0.5713 0.0
H1066 H 0.30717 0.82891 0.39243 0.0
H1067 H 0.33375 0.8196 0.42829 0.0
H1068 H 0.31865 0.79812 0.38634 0.0
H1069 H 0.26065 0.82292 0.61105 0.0
H1070 H 0.28949 0.83831 0.60109 0.0
H1071 H 0.26282 0.84812 0.56604 0.0
H1072 H 0.3511 0.88225 0.54249 0.0
H1073 H 0.28732 0.9054 0.45655 0.0
H1074 H 0.34539 0.81888 0.51919 0.0
H1075 H 0.33132 0.82555 0.57911 0.0
H1076 H 0.35928 0.84098 0.56156 0.0
H1077 H 0.26805 0.84734 0.416 0.0
H1078 H 0.25731 0.878 0.42761 0.0
H1079 H 0.25223 0.85387 0.47403 0.0
C1080 C 0.68307 0.7608 0.04744 0.0
C1081 C 0.69403 0.77049 0.00312 0.0
C1082 C 0.65763 0.7571 0.04953 0.0
C1083 C 0.64281 0.76326 0.00632 0.0
C1084 C 0.65383 0.77218 0.96086 0.0
C1085 C 0.67929 0.7757 0.95981 0.0
C1086 C 0.64651 0.7475 0.09865 0.0
C1087 C 0.63861 0.77894 0.91397 0.0
C1088 C 0.57689 0.7408 0.99804 0.0
C1089 C 0.56397 0.76153 0.01402 0.0
C1090 C 0.60263 0.74094 0.99581 0.0
C1091 C 0.61565 0.7623 0.00994 0.0
C1092 C 0.6027 0.78316 0.0267 0.0
C1093 C 0.57705 0.78249 0.02861 0.0
C1094 C 0.61586 0.71838 0.97774 0.0
C1095 C 0.61595 0.80626 0.0423 0.0
H1096 H 0.69429 0.75666 0.08106 0.0
H1097 H 0.68756 0.78311 0.92531 0.0
H1098 H 0.6351 0.76197 0.11606 0.0
H1099 H 0.6343 0.73174 0.09051 0.0
H1100 H 0.6607 0.74165 0.12721 0.0
H1101 H 0.65013 0.78385 0.88046 0.0
H1102 H 0.62643 0.76351 0.90315 0.0
H1103 H 0.62668 0.79478 0.92278 0.0
H1104 H 0.56685 0.72461 0.98638 0.0
H1105 H 0.56718 0.79841 0.04192 0.0
H1106 H 0.62949 0.71229 0.00717 0.0
H1107 H 0.62612 0.72272 0.94222 0.0
H1108 H 0.6031 0.70299 0.96973 0.0
H1109 H 0.62914 0.8022 0.07401 0.0
H1110 H 0.60316 0.82076 0.0551 0.0
H1111 H 0.62666 0.81352 0.0095 0.0
loop_
_geom_bond_atom_site_label_1
_geom_bond_atom_site_label_2
_geom_bond_distance
_geom_bond_site_symmetry_2
_ccdc_geom_bond_type
Fe0 O2 1.918 . S
Fe0 O5 1.997 . S
Fe0 O6 2.002 . S
Fe0 O11 1.976 . S
Fe0 O14 1.996 . S
Fe1 O2 1.918 1_556 S
Fe1 O9 1.997 . S
Fe1 O12 1.996 . S
Fe1 O16 1.976 . S
Fe1 O19 2.002 . S
O2 Fe0 1.918 . S
O2 Fe1 1.918 1_554 S
O2 Fe3 1.918 . S
Fe3 O2 1.918 . S
Fe3 O4 2.002 . S
Fe3 O13 1.976 . S
Fe3 O17 1.996 1_554 S
Fe3 O20 1.997 1_554 S
O4 Fe3 2.002 . S
O4 C21 1.295 . S
O5 Fe0 1.997 . S
O5 C21 1.235 . S
O6 Fe0 2.002 . S
O6 C7 1.295 . S
C7 O6 1.295 . S
C7 O9 1.235 1_554 S
C8 O13 1.287 . S
C8 O14 1.255 . S
O9 Fe1 1.997 . S
O9 C7 1.235 1_556 S
C10 O16 1.287 . S
C10 O17 1.255 . S
O11 Fe0 1.976 . S
O11 C18 1.287 . S
O12 Fe1 1.996 . S
O12 C18 1.255 1_556 S
O13 Fe3 1.976 . S
O13 C8 1.287 . S
O14 Fe0 1.996 . S
O14 C8 1.255 . S
C15 O19 1.295 . S
C15 O20 1.235 . S
O16 Fe1 1.976 . S
O16 C10 1.287 . S
O17 Fe3 1.996 1_556 S
O17 C10 1.255 . S
C18 O11 1.287 . S
C18 O12 1.255 1_554 S
O19 Fe1 2.002 . S
O19 C15 1.295 . S
O20 Fe3 1.997 1_556 S
O20 C15 1.235 . S
C21 O4 1.295 . S
C21 O5 1.235 . S
Fe22 O24 1.918 . S
Fe22 O27 1.997 . S
Fe22 O28 2.002 . S
Fe22 O33 1.976 . S
Fe22 O36 1.996 . S
Fe23 O24 1.918 . S
Fe23 O31 1.997 . S
Fe23 O34 1.996 . S
Fe23 O38 1.976 . S
Fe23 O41 2.002 . S
O24 Fe22 1.918 . S
O24 Fe23 1.918 . S
O24 Fe25 1.918 . S
Fe25 O24 1.918 . S
Fe25 O26 2.002 . S
Fe25 O35 1.976 . S
Fe25 O39 1.996 . S
Fe25 O42 1.997 . S
O26 Fe25 2.002 . S
O26 C43 1.295 . S
O27 Fe22 1.997 . S
O27 C43 1.235 . S
O28 Fe22 2.002 . S
O28 C29 1.295 . S
C29 O28 1.295 . S
C29 O31 1.235 . S
C30 O35 1.287 . S
C30 O36 1.255 . S
O31 Fe23 1.997 . S
O31 C29 1.235 . S
C32 O38 1.287 . S
C32 O39 1.255 . S
O33 Fe22 1.976 . S
O33 C40 1.287 . S
O34 Fe23 1.996 . S
O34 C40 1.255 . S
O35 Fe25 1.976 . S
O35 C30 1.287 . S
O36 Fe22 1.996 . S
O36 C30 1.255 . S
C37 O41 1.295 . S
C37 O42 1.235 . S
O38 Fe23 1.976 . S
O38 C32 1.287 . S
O39 Fe25 1.996 . S
O39 C32 1.255 . S
C40 O33 1.287 . S
C40 O34 1.255 . S
O41 Fe23 2.002 . S
O41 C37 1.295 . S
O42 Fe25 1.997 . S
O42 C37 1.235 . S
C43 O26 1.295 . S
C43 O27 1.235 . S
Fe44 O46 1.918 1_556 S
Fe44 O49 1.997 . S
Fe44 O50 2.002 . S
Fe44 O55 1.976 . S
Fe44 O58 1.996 . S
Fe45 O46 1.918 . S
Fe45 O53 1.997 . S
Fe45 O56 1.996 . S
Fe45 O60 1.976 . S
Fe45 O63 2.002 . S
O46 Fe44 1.918 1_554 S
O46 Fe45 1.918 . S
O46 Fe47 1.918 . S
Fe47 O46 1.918 . S
Fe47 O48 2.002 1_554 S
Fe47 O57 1.976 1_554 S
Fe47 O61 1.996 . S
Fe47 O64 1.997 . S
O48 Fe47 2.002 1_556 S
O48 C65 1.295 . S
O49 Fe44 1.997 . S
O49 C65 1.235 . S
O50 Fe44 2.002 . S
O50 C51 1.295 1_556 S
C51 O50 1.295 1_554 S
C51 O53 1.235 . S
C52 O57 1.287 . S
C52 O58 1.255 . S
O53 Fe45 1.997 . S
O53 C51 1.235 . S
C54 O60 1.287 . S
C54 O61 1.255 . S
O55 Fe44 1.976 . S
O55 C62 1.287 1_556 S
O56 Fe45 1.996 . S
O56 C62 1.255 . S
O57 Fe47 1.976 1_556 S
O57 C52 1.287 . S
O58 Fe44 1.996 . S
O58 C52 1.255 . S
C59 O63 1.295 . S
C59 O64 1.235 . S
O60 Fe45 1.976 . S
O60 C54 1.287 . S
O61 Fe47 1.996 . S
O61 C54 1.255 . S
C62 O55 1.287 1_554 S
C62 O56 1.255 . S
O63 Fe45 2.002 . S
O63 C59 1.295 . S
O64 Fe47 1.997 . S
O64 C59 1.235 . S
C65 O48 1.295 . S
C65 O49 1.235 . S
Fe66 O68 1.918 . S
Fe66 O71 1.997 . S
Fe66 O72 2.002 . S
Fe66 O77 1.976 . S
Fe66 O80 1.996 . S
Fe67 O68 1.918 . S
Fe67 O75 1.997 . S
Fe67 O78 1.996 . S
Fe67 O82 1.976 . S
Fe67 O85 2.002 . S
O68 Fe66 1.918 . S
O68 Fe67 1.918 . S
O68 Fe69 1.918 . S
Fe69 O68 1.918 . S
Fe69 O70 2.002 . S
Fe69 O79 1.976 . S
Fe69 O83 1.996 . S
Fe69 O86 1.997 . S
O70 Fe69 2.002 . S
O70 C87 1.295 . S
O71 Fe66 1.997 . S
O71 C87 1.235 . S
O72 Fe66 2.002 . S
O72 C73 1.295 . S
C73 O72 1.295 . S
C73 O75 1.235 . S
C74 O79 1.287 . S
C74 O80 1.255 . S
O75 Fe67 1.997 . S
O75 C73 1.235 . S
C76 O82 1.287 . S
C76 O83 1.255 . S
O77 Fe66 1.976 . S
O77 C84 1.287 . S
O78 Fe67 1.996 . S
O78 C84 1.255 . S
O79 Fe69 1.976 . S
O79 C74 1.287 . S
O80 Fe66 1.996 . S
O80 C74 1.255 . S
C81 O85 1.295 . S
C81 O86 1.235 . S
O82 Fe67 1.976 . S
O82 C76 1.287 . S
O83 Fe69 1.996 . S
O83 C76 1.255 . S
C84 O77 1.287 . S
C84 O78 1.255 . S
O85 Fe67 2.002 . S
O85 C81 1.295 . S
O86 Fe69 1.997 . S
O86 C81 1.235 . S
C87 O70 1.295 . S
C87 O71 1.235 . S
P88 O99 1.490 . S
P88 C102 1.812 . S
P88 C108 1.803 . S
P88 C114 1.819 1_554 S
H89 C103 0.941 . S
H90 C104 0.939 . S
H91 C106 0.940 . S
H92 C107 0.940 . S
H93 C109 0.939 . S
H94 C110 0.942 . S
H95 C112 0.940 . S
H96 C113 0.939 . S
H97 C115 0.941 . S
H98 C119 0.939 . S
O99 P88 1.490 . S
H100 C116 0.939 . S
H101 C118 0.940 . S
C102 P88 1.812 . S
C102 C103 1.389 . S
C102 C107 1.391 . S
C103 H89 0.941 . S
C103 C102 1.389 . S
C103 C104 1.397 . S
C104 H90 0.939 . S
C104 C103 1.397 . S
C104 C105 1.378 . S
C105 C104 1.378 . S
C105 C106 1.378 . S
C106 H91 0.940 . S
C106 C105 1.378 . S
C106 C107 1.396 . S
C107 H92 0.940 . S
C107 C102 1.391 . S
C107 C106 1.396 . S
C108 P88 1.803 . S
C108 C109 1.378 1_554 S
C108 C113 1.400 . S
C109 H93 0.939 . S
C109 C108 1.378 1_556 S
C109 C110 1.361 . S
C110 H94 0.942 . S
C110 C109 1.361 . S
C110 C111 1.369 1_556 S
C111 C110 1.369 1_554 S
C111 C112 1.404 . S
C112 H95 0.940 . S
C112 C111 1.404 . S
C112 C113 1.389 . S
C113 H96 0.939 . S
C113 C108 1.400 . S
C113 C112 1.389 . S
C114 P88 1.819 1_556 S
C114 C115 1.391 . S
C114 C119 1.391 . S
C115 H97 0.941 . S
C115 C114 1.391 . S
C115 C116 1.396 . S
C116 H100 0.939 . S
C116 C115 1.396 . S
C116 C117 1.397 . S
C117 C116 1.397 . S
C117 C118 1.385 . S
C118 H101 0.940 . S
C118 C117 1.385 . S
C118 C119 1.388 . S
C119 H98 0.939 . S
C119 C114 1.391 . S
C119 C118 1.388 . S
P120 O131 1.490 . S
P120 C134 1.812 . S
P120 C140 1.803 1_655 S
P120 C146 1.819 . S
H121 C135 0.941 . S
H122 C136 0.939 . S
H123 C138 0.940 . S
H124 C139 0.940 . S
H125 C141 0.939 . S
H126 C142 0.942 . S
H127 C144 0.940 . S
H128 C145 0.947 . S
H129 C147 0.941 . S
H130 C151 0.939 . S
O131 P120 1.490 . S
H132 C148 0.939 . S
H133 C150 0.940 . S
C134 P120 1.812 . S
C134 C135 1.389 . S
C134 C139 1.391 . S
C135 H121 0.941 . S
C135 C134 1.389 . S
C135 C136 1.397 . S
C136 H122 0.939 . S
C136 C135 1.397 . S
C136 C137 1.378 . S
C137 C136 1.378 . S
C137 C138 1.378 . S
C138 H123 0.940 . S
C138 C137 1.378 . S
C138 C139 1.396 . S
C139 H124 0.940 . S
C139 C134 1.391 . S
C139 C138 1.396 . S
C140 P120 1.803 1_455 S
C140 C141 1.378 . S
C140 C145 1.400 . S
C141 H125 0.939 . S
C141 C140 1.378 . S
C141 C142 1.361 . S
C142 H126 0.942 . S
C142 C141 1.361 . S
C142 C143 1.369 . S
C143 C142 1.369 . S
C143 C144 1.404 . S
C144 H127 0.940 . S
C144 C143 1.404 . S
C144 C145 1.389 . S
C145 H128 0.947 . S
C145 C140 1.400 . S
C145 C144 1.389 . S
C146 P120 1.819 . S
C146 C147 1.391 . S
C146 C151 1.391 . S
C147 H129 0.941 . S
C147 C146 1.391 . S
C147 C148 1.396 . S
C148 H132 0.939 . S
C148 C147 1.396 . S
C148 C149 1.397 . S
C149 C148 1.397 . S
C149 C150 1.385 . S
C150 H133 0.940 . S
C150 C149 1.385 . S
C150 C151 1.388 . S
C151 H130 0.939 . S
C151 C146 1.391 . S
C151 C150 1.388 . S
P152 O163 1.490 . S
P152 C166 1.812 1_554 S
P152 C172 1.803 . S
P152 C178 1.819 . S
H153 C167 0.941 . S
H154 C168 0.939 . S
H155 C170 0.940 . S
H156 C171 0.940 . S
H157 C173 0.939 . S
H158 C174 0.942 . S
H159 C176 0.940 . S
H160 C177 0.939 . S
H161 C179 0.941 . S
H162 C183 0.939 . S
O163 P152 1.490 . S
H164 C180 0.939 . S
H165 C182 0.940 . S
C166 P152 1.812 1_556 S
C166 C167 1.389 . S
C166 C171 1.391 . S
C167 H153 0.941 . S
C167 C166 1.389 . S
C167 C168 1.397 . S
C168 H154 0.939 . S
C168 C167 1.397 . S
C168 C169 1.378 . S
C169 C168 1.378 . S
C169 C170 1.378 . S
C170 H155 0.940 . S
C170 C169 1.378 . S
C170 C171 1.396 . S
C171 H156 0.940 . S
C171 C166 1.391 . S
C171 C170 1.396 . S
C172 P152 1.803 . S
C172 C173 1.378 . S
C172 C177 1.400 1_554 S
C173 H157 0.939 . S
C173 C172 1.378 . S
C173 C174 1.361 . S
C174 H158 0.942 . S
C174 C173 1.361 . S
C174 C175 1.369 . S
C175 C174 1.369 . S
C175 C176 1.404 1_554 S
C176 H159 0.940 . S
C176 C175 1.404 1_556 S
C176 C177 1.389 . S
C177 H160 0.939 . S
C177 C172 1.400 1_556 S
C177 C176 1.389 . S
C178 P152 1.819 . S
C178 C179 1.391 . S
C178 C183 1.391 . S
C179 H161 0.941 . S
C179 C178 1.391 . S
C179 C180 1.396 . S
C180 H164 0.939 . S
C180 C179 1.396 . S
C180 C181 1.397 . S
C181 C180 1.397 . S
C181 C182 1.385 . S
C182 H165 0.940 . S
C182 C181 1.385 . S
C182 C183 1.388 . S
C183 H162 0.939 . S
C183 C178 1.391 . S
C183 C182 1.388 . S
P184 O195 1.490 . S
P184 C198 1.812 . S
P184 C204 1.803 1_455 S
P184 C210 1.819 . S
H185 C199 0.941 . S
H186 C200 0.939 . S
H187 C202 0.940 . S
H188 C203 0.940 . S
H189 C205 0.939 . S
H190 C206 0.942 . S
H191 C208 0.940 . S
H192 C209 0.939 . S
H193 C211 0.941 . S
H194 C215 0.939 . S
O195 P184 1.490 . S
H196 C212 0.939 . S
H197 C214 0.940 . S
C198 P184 1.812 . S
C198 C199 1.389 . S
C198 C203 1.391 . S
C199 H185 0.941 . S
C199 C198 1.389 . S
C199 C200 1.397 . S
C200 H186 0.939 . S
C200 C199 1.397 . S
C200 C201 1.378 . S
C201 C200 1.378 . S
C201 C202 1.378 . S
C202 H187 0.940 . S
C202 C201 1.378 . S
C202 C203 1.396 . S
C203 H188 0.940 . S
C203 C198 1.391 . S
C203 C202 1.396 . S
C204 P184 1.803 1_655 S
C204 C205 1.378 . S
C204 C209 1.400 . S
C205 H189 0.939 . S
C205 C204 1.378 . S
C205 C206 1.361 . S
C206 H190 0.942 . S
C206 C205 1.361 . S
C206 C207 1.369 . S
C207 C206 1.369 . S
C207 C208 1.404 . S
C208 H191 0.940 . S
C208 C207 1.404 . S
C208 C209 1.389 . S
C209 H192 0.939 . S
C209 C204 1.400 . S
C209 C208 1.389 . S
C210 P184 1.819 . S
C210 C211 1.391 . S
C210 C215 1.391 . S
C211 H193 0.941 . S
C211 C210 1.391 . S
C211 C212 1.396 . S
C212 H196 0.939 . S
C212 C211 1.396 . S
C212 C213 1.397 . S
C213 C212 1.397 . S
C213 C214 1.385 . S
C214 H197 0.940 . S
C214 C213 1.385 . S
C214 C215 1.388 . S
C215 H194 0.939 . S
C215 C210 1.391 . S
C215 C214 1.388 . S
P216 O227 1.490 1_565 S
P216 C230 1.812 . S
P216 C236 1.803 1_565 S
P216 C242 1.819 . S
H217 C231 0.941 . S
H218 C232 0.939 . S
H219 C234 0.940 . S
H220 C235 0.940 . S
H221 C237 0.939 . S
H222 C238 0.942 . S
H223 C240 0.940 . S
H224 C241 0.939 . S
H225 C243 0.941 . S
H226 C247 0.939 1_545 S
O227 P216 1.490 1_545 S
H228 C244 0.939 . S
H229 C246 0.940 . S
C230 P216 1.812 . S
C230 C231 1.389 . S
C230 C235 1.391 . S
C231 H217 0.941 . S
C231 C230 1.389 . S
C231 C232 1.397 . S
C232 H218 0.939 . S
C232 C231 1.397 . S
C232 C233 1.378 . S
C233 C232 1.378 . S
C233 C234 1.378 . S
C234 H219 0.940 . S
C234 C233 1.378 . S
C234 C235 1.396 . S
C235 H220 0.940 . S
C235 C230 1.391 . S
C235 C234 1.396 . S
C236 P216 1.803 1_545 S
C236 C237 1.378 . S
C236 C241 1.400 . S
C237 H221 0.939 . S
C237 C236 1.378 . S
C237 C238 1.361 . S
C238 H222 0.942 . S
C238 C237 1.361 . S
C238 C239 1.369 . S
C239 C238 1.369 . S
C239 C240 1.404 . S
C240 H223 0.940 . S
C240 C239 1.404 . S
C240 C241 1.389 . S
C241 H224 0.939 . S
C241 C236 1.400 . S
C241 C240 1.389 . S
C242 P216 1.819 . S
C242 C243 1.391 . S
C242 C247 1.391 . S
C243 H225 0.941 . S
C243 C242 1.391 . S
C243 C244 1.396 . S
C244 H228 0.939 . S
C244 C243 1.396 . S
C244 C245 1.397 . S
C245 C244 1.397 . S
C245 C246 1.385 . S
C246 H229 0.940 . S
C246 C245 1.385 . S
C246 C247 1.388 . S
C247 H226 0.939 1_565 S
C247 C242 1.391 . S
C247 C246 1.388 . S
P248 O259 1.489 1_554 S
P248 C262 1.799 1_554 S
P248 C268 1.803 . S
P248 C274 1.832 . S
H249 C263 0.941 . S
H250 C264 0.939 . S
H251 C266 0.940 . S
H252 C267 0.940 . S
H253 C269 0.939 . S
H254 C270 0.942 . S
H255 C272 0.940 . S
H256 C273 0.939 . S
H257 C275 0.941 . S
H258 C279 0.939 . S
O259 P248 1.489 1_556 S
H260 C276 0.939 . S
H261 C278 0.940 . S
C262 P248 1.799 1_556 S
C262 C263 1.389 . S
C262 C267 1.391 . S
C263 H249 0.941 . S
C263 C262 1.389 . S
C263 C264 1.397 . S
C264 H250 0.939 . S
C264 C263 1.397 . S
C264 C265 1.378 . S
C265 C264 1.378 . S
C265 C266 1.378 . S
C266 H251 0.940 . S
C266 C265 1.378 . S
C266 C267 1.396 . S
C267 H252 0.940 . S
C267 C262 1.391 . S
C267 C266 1.396 . S
C268 P248 1.803 . S
C268 C269 1.381 . S
C268 C273 1.397 1_554 S
C269 H253 0.939 . S
C269 C268 1.381 . S
C269 C270 1.361 . S
C270 H254 0.942 . S
C270 C269 1.361 . S
C270 C271 1.369 . S
C271 C270 1.369 . S
C271 C272 1.404 1_554 S
C272 H255 0.940 . S
C272 C271 1.404 1_556 S
C272 C273 1.389 . S
C273 H256 0.939 . S
C273 C268 1.397 1_556 S
C273 C272 1.389 . S
C274 P248 1.832 . S
C274 C275 1.391 . S
C274 C279 1.391 . S
C275 H257 0.941 . S
C275 C274 1.391 . S
C275 C276 1.396 . S
C276 H260 0.939 . S
C276 C275 1.396 . S
C276 C277 1.397 . S
C277 C276 1.397 . S
C277 C278 1.385 . S
C278 H261 0.940 . S
C278 C277 1.385 . S
C278 C279 1.388 . S
C279 H258 0.939 . S
C279 C274 1.391 . S
C279 C278 1.388 . S
P280 O291 1.490 . S
P280 C294 1.812 . S
P280 C300 1.803 1_545 S
P280 C306 1.819 . S
H281 C295 0.941 . S
H282 C296 0.939 . S
H283 C298 0.940 . S
H284 C299 0.940 . S
H285 C301 0.939 . S
H286 C302 0.942 . S
H287 C304 0.940 . S
H288 C305 0.939 . S
H289 C307 0.941 . S
H290 C311 0.966 . S
O291 P280 1.490 . S
H292 C308 0.939 . S
H293 C310 0.940 . S
C294 P280 1.812 . S
C294 C295 1.389 . S
C294 C299 1.391 . S
C295 H281 0.941 . S
C295 C294 1.389 . S
C295 C296 1.397 . S
C296 H282 0.939 . S
C296 C295 1.397 . S
C296 C297 1.378 . S
C297 C296 1.378 . S
C297 C298 1.378 . S
C298 H283 0.940 . S
C298 C297 1.378 . S
C298 C299 1.396 . S
C299 H284 0.940 . S
C299 C294 1.391 . S
C299 C298 1.396 . S
C300 P280 1.803 1_565 S
C300 C301 1.378 . S
C300 C305 1.400 . S
C301 H285 0.939 . S
C301 C300 1.378 . S
C301 C302 1.361 . S
C302 H286 0.942 . S
C302 C301 1.361 . S
C302 C303 1.369 . S
C303 C302 1.369 . S
C303 C304 1.404 . S
C304 H287 0.940 . S
C304 C303 1.404 . S
C304 C305 1.389 . S
C305 H288 0.939 . S
C305 C300 1.400 . S
C305 C304 1.389 . S
C306 P280 1.819 . S
C306 C307 1.391 . S
C306 C311 1.391 . S
C307 H289 0.941 . S
C307 C306 1.391 . S
C307 C308 1.396 . S
C308 H292 0.939 . S
C308 C307 1.396 . S
C308 C309 1.397 . S
C309 C308 1.397 . S
C309 C310 1.385 . S
C310 H293 0.940 . S
C310 C309 1.385 . S
C310 C311 1.388 . S
C311 H290 0.966 . S
C311 C306 1.391 . S
C311 C310 1.388 . S
P312 O323 1.490 . S
P312 C326 1.812 . S
P312 C332 1.803 . S
P312 C338 1.819 1_554 S
H313 C327 0.941 . S
H314 C328 0.939 . S
H315 C330 0.940 . S
H316 C331 0.940 . S
H317 C333 0.939 . S
H318 C334 0.942 . S
H319 C336 0.940 . S
H320 C337 0.939 . S
H321 C339 0.941 . S
H322 C343 0.939 . S
O323 P312 1.490 . S
H324 C340 0.939 . S
H325 C342 0.940 . S
C326 P312 1.812 . S
C326 C327 1.389 . S
C326 C331 1.391 . S
C327 H313 0.941 . S
C327 C326 1.389 . S
C327 C328 1.397 . S
C328 H314 0.939 . S
C328 C327 1.397 . S
C328 C329 1.378 . S
C329 C328 1.378 . S
C329 C330 1.378 . S
C330 H315 0.940 . S
C330 C329 1.378 . S
C330 C331 1.396 . S
C331 H316 0.940 . S
C331 C326 1.391 . S
C331 C330 1.396 . S
C332 P312 1.803 . S
C332 C333 1.378 1_554 S
C332 C337 1.400 . S
C333 H317 0.939 . S
C333 C332 1.378 1_556 S
C333 C334 1.361 . S
C334 H318 0.942 . S
C334 C333 1.361 . S
C334 C335 1.369 1_556 S
C335 C334 1.369 1_554 S
C335 C336 1.404 . S
C336 H319 0.940 . S
C336 C335 1.404 . S
C336 C337 1.389 . S
C337 H320 0.939 . S
C337 C332 1.400 . S
C337 C336 1.389 . S
C338 P312 1.819 1_556 S
C338 C339 1.391 . S
C338 C343 1.391 . S
C339 H321 0.941 . S
C339 C338 1.391 . S
C339 C340 1.396 . S
C340 H324 0.939 . S
C340 C339 1.396 . S
C340 C341 1.397 . S
C341 C340 1.397 . S
C341 C342 1.385 . S
C342 H325 0.940 . S
C342 C341 1.385 . S
C342 C343 1.388 . S
C343 H322 0.939 . S
C343 C338 1.391 . S
C343 C342 1.388 . S
C344 C345 1.391 . S
C344 C346 1.394 . S
C344 H360 0.931 . S
C345 C344 1.391 . S
C345 C349 1.376 . S
C346 C344 1.394 . S
C346 C347 1.369 . S
C346 C350 1.531 . S
C347 C346 1.369 . S
C347 C348 1.410 . S
C347 C355 1.503 . S
C348 C347 1.410 . S
C348 C349 1.392 . S
C348 C351 1.511 . S
C349 C345 1.376 . S
C349 C348 1.392 . S
C349 H361 0.929 . S
C350 C346 1.531 . S
C350 H362 0.960 . S
C350 H363 0.962 . S
C350 H364 0.960 . S
C351 C348 1.511 . S
C351 H365 0.961 . S
C351 H366 0.961 . S
C351 H367 0.961 . S
C352 C353 1.370 . S
C352 C354 1.363 . S
C352 H368 0.931 . S
C353 C352 1.370 . S
C353 C357 1.408 . S
C354 C352 1.363 . S
C354 C355 1.370 . S
C354 C358 1.524 . S
C355 C347 1.503 . S
C355 C354 1.370 . S
C355 C356 1.403 . S
C356 C355 1.403 . S
C356 C357 1.404 . S
C356 C359 1.539 . S
C357 C353 1.408 . S
C357 C356 1.404 . S
C357 H369 0.930 . S
C358 C354 1.524 . S
C358 H370 0.956 . S
C358 H371 0.961 . S
C358 H372 0.961 . S
C359 C356 1.539 . S
C359 H373 0.958 . S
C359 H374 0.961 . S
C359 H375 0.960 . S
H360 C344 0.931 . S
H361 C349 0.929 . S
H362 C350 0.960 . S
H363 C350 0.962 . S
H364 C350 0.960 . S
H365 C351 0.961 . S
H366 C351 0.961 . S
H367 C351 0.961 . S
H368 C352 0.931 . S
H369 C357 0.930 . S
H370 C358 0.956 . S
H371 C358 0.961 . S
H372 C358 0.961 . S
H373 C359 0.958 . S
H374 C359 0.961 . S
H375 C359 0.960 . S
C376 C377 1.391 . S
C376 C378 1.394 . S
C376 H392 0.931 . S
C377 C376 1.391 . S
C377 C381 1.376 . S
C378 C376 1.394 . S
C378 C379 1.369 . S
C378 C382 1.531 . S
C379 C378 1.369 . S
C379 C380 1.410 . S
C379 C387 1.503 . S
C380 C379 1.410 . S
C380 C381 1.392 . S
C380 C383 1.511 . S
C381 C377 1.376 . S
C381 C380 1.392 . S
C381 H393 0.929 . S
C382 C378 1.531 . S
C382 H394 0.960 . S
C382 H395 0.962 . S
C382 H396 0.960 . S
C383 C380 1.511 . S
C383 H397 0.961 . S
C383 H398 0.961 . S
C383 H399 0.961 . S
C384 C385 1.370 . S
C384 C386 1.363 . S
C384 H400 0.931 . S
C385 C384 1.370 . S
C385 C389 1.408 . S
C386 C384 1.363 . S
C386 C387 1.370 . S
C386 C390 1.524 . S
C387 C379 1.503 . S
C387 C386 1.370 . S
C387 C388 1.403 . S
C388 C387 1.403 . S
C388 C389 1.404 . S
C388 C391 1.539 . S
C389 C385 1.408 . S
C389 C388 1.404 . S
C389 H401 0.930 . S
C390 C386 1.524 . S
C390 H402 0.956 . S
C390 H403 0.961 . S
C390 H404 0.961 . S
C391 C388 1.539 . S
C391 H405 0.958 . S
C391 H406 0.961 . S
C391 H407 0.960 . S
H392 C376 0.931 . S
H393 C381 0.929 . S
H394 C382 0.960 . S
H395 C382 0.962 . S
H396 C382 0.960 . S
H397 C383 0.961 . S
H398 C383 0.961 . S
H399 C383 0.961 . S
H400 C384 0.931 . S
H401 C389 0.930 . S
H402 C390 0.956 . S
H403 C390 0.961 . S
H404 C390 0.961 . S
H405 C391 0.958 . S
H406 C391 0.961 . S
H407 C391 0.960 . S
C408 C409 1.391 . S
C408 C410 1.394 . S
C408 H424 0.931 . S
C409 C408 1.391 . S
C409 C413 1.376 . S
C410 C408 1.394 . S
C410 C411 1.369 . S
C410 C414 1.531 . S
C411 C410 1.369 . S
C411 C412 1.410 . S
C411 C419 1.503 . S
C412 C411 1.410 . S
C412 C413 1.392 . S
C412 C415 1.511 . S
C413 C409 1.376 . S
C413 C412 1.392 . S
C413 H425 0.929 . S
C414 C410 1.531 . S
C414 H426 0.960 . S
C414 H427 0.962 . S
C414 H428 0.960 . S
C415 C412 1.511 . S
C415 H429 0.961 . S
C415 H430 0.961 . S
C415 H431 0.961 . S
C416 C417 1.370 . S
C416 C418 1.363 . S
C416 H432 0.931 . S
C417 C416 1.370 . S
C417 C421 1.408 . S
C418 C416 1.363 . S
C418 C419 1.370 . S
C418 C422 1.524 . S
C419 C411 1.503 . S
C419 C418 1.370 . S
C419 C420 1.403 . S
C420 C419 1.403 . S
C420 C421 1.404 . S
C420 C423 1.539 . S
C421 C417 1.408 . S
C421 C420 1.404 . S
C421 H433 0.930 . S
C422 C418 1.524 . S
C422 H434 0.956 . S
C422 H435 0.961 . S
C422 H436 0.961 . S
C423 C420 1.539 . S
C423 H437 0.958 . S
C423 H438 0.961 . S
C423 H439 0.960 . S
H424 C408 0.931 . S
H425 C413 0.929 . S
H426 C414 0.960 . S
H427 C414 0.962 . S
H428 C414 0.960 . S
H429 C415 0.961 . S
H430 C415 0.961 . S
H431 C415 0.961 . S
H432 C416 0.931 . S
H433 C421 0.930 . S
H434 C422 0.956 . S
H435 C422 0.961 . S
H436 C422 0.961 . S
H437 C423 0.958 . S
H438 C423 0.961 . S
H439 C423 0.960 . S
C440 C441 1.391 . S
C440 C442 1.394 . S
C440 H456 0.931 . S
C441 C440 1.391 . S
C441 C445 1.376 . S
C442 C440 1.394 . S
C442 C443 1.369 . S
C442 C446 1.531 . S
C443 C442 1.369 . S
C443 C444 1.410 . S
C443 C451 1.503 . S
C444 C443 1.410 . S
C444 C445 1.392 . S
C444 C447 1.511 . S
C445 C441 1.376 . S
C445 C444 1.392 . S
C445 H457 0.929 . S
C446 C442 1.531 . S
C446 H458 0.960 . S
C446 H459 0.962 . S
C446 H460 0.960 . S
C447 C444 1.511 . S
C447 H461 0.961 . S
C447 H462 0.961 . S
C447 H463 0.961 . S
C448 C449 1.370 . S
C448 C450 1.363 . S
C448 H464 0.931 . S
C449 C448 1.370 . S
C449 C453 1.408 . S
C450 C448 1.363 . S
C450 C451 1.370 . S
C450 C454 1.524 . S
C451 C443 1.503 . S
C451 C450 1.370 . S
C451 C452 1.403 . S
C452 C451 1.403 . S
C452 C453 1.404 . S
C452 C455 1.539 . S
C453 C449 1.408 . S
C453 C452 1.404 . S
C453 H465 0.930 . S
C454 C450 1.524 . S
C454 H466 0.956 . S
C454 H467 0.961 . S
C454 H468 0.961 . S
C455 C452 1.539 . S
C455 H469 0.958 . S
C455 H470 0.961 . S
C455 H471 0.960 . S
H456 C440 0.931 . S
H457 C445 0.929 . S
H458 C446 0.960 . S
H459 C446 0.962 . S
H460 C446 0.960 . S
H461 C447 0.961 . S
H462 C447 0.961 . S
H463 C447 0.961 . S
H464 C448 0.931 . S
H465 C453 0.930 . S
H466 C454 0.956 . S
H467 C454 0.961 . S
H468 C454 0.961 . S
H469 C455 0.958 . S
H470 C455 0.961 . S
H471 C455 0.960 . S
C472 C473 1.391 . S
C472 C474 1.394 . S
C472 H488 0.931 . S
C473 C472 1.391 . S
C473 C477 1.376 . S
C474 C472 1.394 . S
C474 C475 1.369 . S
C474 C478 1.531 . S
C475 C474 1.369 . S
C475 C476 1.410 . S
C475 C483 1.503 . S
C476 C475 1.410 . S
C476 C477 1.392 . S
C476 C479 1.511 . S
C477 C473 1.376 . S
C477 C476 1.392 . S
C477 H489 0.929 . S
C478 C474 1.531 . S
C478 H490 0.960 . S
C478 H491 0.962 . S
C478 H492 0.960 . S
C479 C476 1.511 . S
C479 H493 0.961 . S
C479 H494 0.961 . S
C479 H495 0.961 . S
C480 C481 1.370 . S
C480 C482 1.363 . S
C480 H496 0.931 . S
C481 C480 1.370 . S
C481 C485 1.408 . S
C482 C480 1.363 . S
C482 C483 1.370 . S
C482 C486 1.524 . S
C483 C475 1.503 . S
C483 C482 1.370 . S
C483 C484 1.403 . S
C484 C483 1.403 . S
C484 C485 1.404 . S
C484 C487 1.539 . S
C485 C481 1.408 . S
C485 C484 1.404 . S
C485 H497 0.930 . S
C486 C482 1.524 . S
C486 H498 0.956 . S
C486 H499 0.961 . S
C486 H500 0.961 . S
C487 C484 1.539 . S
C487 H501 0.958 . S
C487 H502 0.961 . S
C487 H503 0.960 . S
H488 C472 0.931 . S
H489 C477 0.929 . S
H490 C478 0.960 . S
H491 C478 0.962 . S
H492 C478 0.960 . S
H493 C479 0.961 . S
H494 C479 0.961 . S
H495 C479 0.961 . S
H496 C480 0.931 . S
H497 C485 0.930 . S
H498 C486 0.956 . S
H499 C486 0.961 . S
H500 C486 0.961 . S
H501 C487 0.958 . S
H502 C487 0.961 . S
H503 C487 0.960 . S
C504 C505 1.391 . S
C504 C506 1.394 . S
C504 H520 0.931 . S
C505 C504 1.391 . S
C505 C509 1.376 . S
C506 C504 1.394 . S
C506 C507 1.369 . S
C506 C510 1.531 . S
C507 C506 1.369 . S
C507 C508 1.410 . S
C507 C515 1.503 . S
C508 C507 1.410 . S
C508 C509 1.392 . S
C508 C511 1.511 . S
C509 C505 1.376 . S
C509 C508 1.392 . S
C509 H521 0.929 . S
C510 C506 1.531 . S
C510 H522 0.960 . S
C510 H523 0.962 . S
C510 H524 0.960 . S
C511 C508 1.511 . S
C511 H525 0.961 . S
C511 H526 0.961 . S
C511 H527 0.961 . S
C512 C513 1.370 . S
C512 C514 1.363 . S
C512 H528 0.931 . S
C513 C512 1.370 . S
C513 C517 1.408 . S
C514 C512 1.363 . S
C514 C515 1.370 . S
C514 C518 1.524 . S
C515 C507 1.503 . S
C515 C514 1.370 . S
C515 C516 1.403 . S
C516 C515 1.403 . S
C516 C517 1.404 . S
C516 C519 1.539 . S
C517 C513 1.408 . S
C517 C516 1.404 . S
C517 H529 0.930 . S
C518 C514 1.524 . S
C518 H530 0.956 . S
C518 H531 0.961 . S
C518 H532 0.961 . S
C519 C516 1.539 . S
C519 H533 0.958 . S
C519 H534 0.961 . S
C519 H535 0.960 . S
H520 C504 0.931 . S
H521 C509 0.929 . S
H522 C510 0.960 . S
H523 C510 0.962 . S
H524 C510 0.960 . S
H525 C511 0.961 . S
H526 C511 0.961 . S
H527 C511 0.961 . S
H528 C512 0.931 . S
H529 C517 0.930 . S
H530 C518 0.956 . S
H531 C518 0.961 . S
H532 C518 0.961 . S
H533 C519 0.958 . S
H534 C519 0.961 . S
H535 C519 0.960 . S
C536 C537 1.391 . S
C536 C538 1.394 . S
C536 H552 0.931 . S
C537 C536 1.391 . S
C537 C541 1.376 . S
C538 C536 1.394 . S
C538 C539 1.369 . S
C538 C542 1.531 . S
C539 C538 1.369 . S
C539 C540 1.410 . S
C539 C547 1.503 . S
C540 C539 1.410 . S
C540 C541 1.392 . S
C540 C543 1.511 . S
C541 C537 1.376 . S
C541 C540 1.392 . S
C541 H553 0.929 . S
C542 C538 1.531 . S
C542 H554 0.960 . S
C542 H555 0.962 . S
C542 H556 0.960 . S
C543 C540 1.511 . S
C543 H557 0.961 . S
C543 H558 0.961 . S
C543 H559 0.961 . S
C544 C545 1.370 . S
C544 C546 1.363 . S
C544 H560 0.931 . S
C545 C544 1.370 . S
C545 C549 1.408 . S
C546 C544 1.363 . S
C546 C547 1.370 . S
C546 C550 1.524 . S
C547 C539 1.503 . S
C547 C546 1.370 . S
C547 C548 1.403 . S
C548 C547 1.403 . S
C548 C549 1.404 . S
C548 C551 1.539 . S
C549 C545 1.408 . S
C549 C548 1.404 . S
C549 H561 0.930 . S
C550 C546 1.524 . S
C550 H562 0.956 . S
C550 H563 0.961 . S
C550 H564 0.961 . S
C551 C548 1.539 . S
C551 H565 0.958 . S
C551 H566 0.961 . S
C551 H567 0.960 . S
H552 C536 0.931 . S
H553 C541 0.929 . S
H554 C542 0.960 . S
H555 C542 0.962 . S
H556 C542 0.960 . S
H557 C543 0.961 . S
H558 C543 0.961 . S
H559 C543 0.961 . S
H560 C544 0.931 . S
H561 C549 0.930 . S
H562 C550 0.956 . S
H563 C550 0.961 . S
H564 C550 0.961 . S
H565 C551 0.958 . S
H566 C551 0.961 . S
H567 C551 0.960 . S
C568 C569 1.391 . S
C568 C570 1.394 . S
C568 H584 0.931 . S
C569 C568 1.391 . S
C569 C573 1.376 . S
C570 C568 1.394 . S
C570 C571 1.369 . S
C570 C574 1.531 . S
C571 C570 1.369 . S
C571 C572 1.410 . S
C571 C579 1.503 . S
C572 C571 1.410 . S
C572 C573 1.392 . S
C572 C575 1.511 . S
C573 C569 1.376 . S
C573 C572 1.392 . S
C573 H585 0.929 . S
C574 C570 1.531 . S
C574 H586 0.960 . S
C574 H587 0.962 . S
C574 H588 0.960 . S
C575 C572 1.511 . S
C575 H589 0.961 . S
C575 H590 0.961 . S
C575 H591 0.961 . S
C576 C577 1.370 . S
C576 C578 1.363 . S
C576 H592 0.931 . S
C577 C576 1.370 . S
C577 C581 1.408 . S
C578 C576 1.363 . S
C578 C579 1.370 . S
C578 C582 1.524 . S
C579 C571 1.503 . S
C579 C578 1.370 . S
C579 C580 1.403 . S
C580 C579 1.403 . S
C580 C581 1.404 . S
C580 C583 1.539 . S
C581 C577 1.408 . S
C581 C580 1.404 . S
C581 H593 0.930 . S
C582 C578 1.524 . S
C582 H594 0.956 . S
C582 H595 0.961 . S
C582 H596 0.961 . S
C583 C580 1.539 . S
C583 H597 0.958 . S
C583 H598 0.961 . S
C583 H599 0.960 . S
H584 C568 0.931 . S
H585 C573 0.929 . S
H586 C574 0.960 . S
H587 C574 0.962 . S
H588 C574 0.960 . S
H589 C575 0.961 . S
H590 C575 0.961 . S
H591 C575 0.961 . S
H592 C576 0.931 . S
H593 C581 0.930 . S
H594 C582 0.956 . S
H595 C582 0.961 . S
H596 C582 0.961 . S
H597 C583 0.958 . S
H598 C583 0.961 . S
H599 C583 0.960 . S
C600 C601 1.391 . S
C600 C602 1.394 . S
C600 H616 0.931 . S
C601 C600 1.391 . S
C601 C605 1.376 . S
C602 C600 1.394 . S
C602 C603 1.369 . S
C602 C606 1.531 . S
C603 C602 1.369 . S
C603 C604 1.410 . S
C603 C611 1.503 . S
C604 C603 1.410 . S
C604 C605 1.392 . S
C604 C607 1.511 . S
C605 C601 1.376 . S
C605 C604 1.392 . S
C605 H617 0.929 . S
C606 C602 1.531 . S
C606 H618 0.960 . S
C606 H619 0.962 . S
C606 H620 0.960 . S
C607 C604 1.511 . S
C607 H621 0.961 . S
C607 H622 0.961 . S
C607 H623 0.961 . S
C608 C609 1.370 . S
C608 C610 1.363 . S
C608 H624 0.931 . S
C609 C608 1.370 . S
C609 C613 1.408 . S
C610 C608 1.363 . S
C610 C611 1.370 . S
C610 C614 1.524 . S
C611 C603 1.503 . S
C611 C610 1.370 . S
C611 C612 1.403 . S
C612 C611 1.403 . S
C612 C613 1.404 . S
C612 C615 1.539 . S
C613 C609 1.408 . S
C613 C612 1.404 . S
C613 H625 0.930 . S
C614 C610 1.524 . S
C614 H626 0.956 . S
C614 H627 0.961 . S
C614 H628 0.961 . S
C615 C612 1.539 . S
C615 H629 0.958 . S
C615 H630 0.961 . S
C615 H631 0.960 . S
H616 C600 0.931 . S
H617 C605 0.929 . S
H618 C606 0.960 . S
H619 C606 0.962 . S
H620 C606 0.960 . S
H621 C607 0.961 . S
H622 C607 0.961 . S
H623 C607 0.961 . S
H624 C608 0.931 . S
H625 C613 0.930 . S
H626 C614 0.956 . S
H627 C614 0.961 . S
H628 C614 0.961 . S
H629 C615 0.958 . S
H630 C615 0.961 . S
H631 C615 0.960 . S
C632 C633 1.391 . S
C632 C634 1.394 . S
C632 H648 0.931 . S
C633 C632 1.391 . S
C633 C637 1.376 . S
C634 C632 1.394 . S
C634 C635 1.369 . S
C634 C638 1.531 . S
C635 C634 1.369 . S
C635 C636 1.410 . S
C635 C643 1.503 . S
C636 C635 1.410 . S
C636 C637 1.392 . S
C636 C639 1.511 . S
C637 C633 1.376 . S
C637 C636 1.392 . S
C637 H649 0.929 . S
C638 C634 1.531 . S
C638 H650 0.960 . S
C638 H651 0.962 . S
C638 H652 0.960 . S
C639 C636 1.511 . S
C639 H653 0.961 . S
C639 H654 0.961 . S
C639 H655 0.961 . S
C640 C641 1.370 . S
C640 C642 1.363 . S
C640 H656 0.931 . S
C641 C640 1.370 . S
C641 C645 1.408 . S
C642 C640 1.363 . S
C642 C643 1.370 . S
C642 C646 1.524 . S
C643 C635 1.503 . S
C643 C642 1.370 . S
C643 C644 1.403 . S
C644 C643 1.403 . S
C644 C645 1.404 . S
C644 C647 1.539 . S
C645 C641 1.408 . S
C645 C644 1.404 . S
C645 H657 0.930 . S
C646 C642 1.524 . S
C646 H658 0.956 . S
C646 H659 0.961 . S
C646 H660 0.961 . S
C647 C644 1.539 . S
C647 H661 0.958 . S
C647 H662 0.961 . S
C647 H663 0.960 . S
H648 C632 0.931 . S
H649 C637 0.929 . S
H650 C638 0.960 . S
H651 C638 0.962 . S
H652 C638 0.960 . S
H653 C639 0.961 . S
H654 C639 0.961 . S
H655 C639 0.961 . S
H656 C640 0.931 . S
H657 C645 0.930 . S
H658 C646 0.956 . S
H659 C646 0.961 . S
H660 C646 0.961 . S
H661 C647 0.958 . S
H662 C647 0.961 . S
H663 C647 0.960 . S
C664 C665 1.391 . S
C664 C666 1.394 . S
C664 H680 0.931 . S
C665 C664 1.391 . S
C665 C669 1.376 . S
C666 C664 1.394 . S
C666 C667 1.369 . S
C666 C670 1.531 . S
C667 C666 1.369 . S
C667 C668 1.410 . S
C667 C675 1.503 . S
C668 C667 1.410 . S
C668 C669 1.392 . S
C668 C671 1.511 . S
C669 C665 1.376 . S
C669 C668 1.392 . S
C669 H681 0.929 . S
C670 C666 1.531 . S
C670 H682 0.960 . S
C670 H683 0.962 . S
C670 H684 0.960 . S
C671 C668 1.511 . S
C671 H685 0.961 . S
C671 H686 0.961 . S
C671 H687 0.961 . S
C672 C673 1.370 . S
C672 C674 1.363 . S
C672 H688 0.931 . S
C673 C672 1.370 . S
C673 C677 1.408 . S
C674 C672 1.363 . S
C674 C675 1.370 . S
C674 C678 1.524 . S
C675 C667 1.503 . S
C675 C674 1.370 . S
C675 C676 1.403 . S
C676 C675 1.403 . S
C676 C677 1.404 . S
C676 C679 1.539 . S
C677 C673 1.408 . S
C677 C676 1.404 . S
C677 H689 0.930 . S
C678 C674 1.524 . S
C678 H690 0.956 . S
C678 H691 0.961 . S
C678 H692 0.961 . S
C679 C676 1.539 . S
C679 H693 0.958 . S
C679 H694 0.961 . S
C679 H695 0.960 . S
H680 C664 0.931 . S
H681 C669 0.929 . S
H682 C670 0.960 . S
H683 C670 0.962 . S
H684 C670 0.960 . S
H685 C671 0.961 . S
H686 C671 0.961 . S
H687 C671 0.961 . S
H688 C672 0.931 . S
H689 C677 0.930 . S
H690 C678 0.956 . S
H691 C678 0.961 . S
H692 C678 0.961 . S
H693 C679 0.958 . S
H694 C679 0.961 . S
H695 C679 0.960 . S
C696 C697 1.391 . S
C696 C698 1.394 . S
C696 H712 0.931 . S
C697 C696 1.391 . S
C697 C701 1.376 . S
C698 C696 1.394 . S
C698 C699 1.369 . S
C698 C702 1.531 . S
C699 C698 1.369 . S
C699 C700 1.410 . S
C699 C707 1.503 . S
C700 C699 1.410 . S
C700 C701 1.392 . S
C700 C703 1.511 . S
C701 C697 1.376 . S
C701 C700 1.392 . S
C701 H713 0.929 . S
C702 C698 1.531 . S
C702 H714 0.960 . S
C702 H715 0.962 . S
C702 H716 0.960 . S
C703 C700 1.511 . S
C703 H717 0.961 . S
C703 H718 0.961 . S
C703 H719 0.961 . S
C704 C705 1.370 . S
C704 C706 1.363 . S
C704 H720 0.931 . S
C705 C704 1.370 . S
C705 C709 1.408 . S
C706 C704 1.363 . S
C706 C707 1.370 . S
C706 C710 1.524 . S
C707 C699 1.503 . S
C707 C706 1.370 . S
C707 C708 1.403 . S
C708 C707 1.403 . S
C708 C709 1.404 . S
C708 C711 1.539 . S
C709 C705 1.408 . S
C709 C708 1.404 . S
C709 H721 0.930 . S
C710 C706 1.524 . S
C710 H722 0.956 . S
C710 H723 0.961 . S
C710 H724 0.961 . S
C711 C708 1.539 . S
C711 H725 0.958 . S
C711 H726 0.961 . S
C711 H727 0.960 . S
H712 C696 0.931 . S
H713 C701 0.929 . S
H714 C702 0.960 . S
H715 C702 0.962 . S
H716 C702 0.960 . S
H717 C703 0.961 . S
H718 C703 0.961 . S
H719 C703 0.961 . S
H720 C704 0.931 . S
H721 C709 0.930 . S
H722 C710 0.956 . S
H723 C710 0.961 . S
H724 C710 0.961 . S
H725 C711 0.958 . S
H726 C711 0.961 . S
H727 C711 0.960 . S
C728 C729 1.391 . S
C728 C730 1.394 . S
C728 H744 0.931 . S
C729 C728 1.391 . S
C729 C733 1.376 . S
C730 C728 1.394 . S
C730 C731 1.369 . S
C730 C734 1.531 . S
C731 C730 1.369 . S
C731 C732 1.410 . S
C731 C739 1.503 . S
C732 C731 1.410 . S
C732 C733 1.392 . S
C732 C735 1.511 . S
C733 C729 1.376 . S
C733 C732 1.392 . S
C733 H745 0.929 . S
C734 C730 1.531 . S
C734 H746 0.960 . S
C734 H747 0.962 . S
C734 H748 0.960 . S
C735 C732 1.511 . S
C735 H749 0.961 . S
C735 H750 0.961 . S
C735 H751 0.961 . S
C736 C737 1.370 . S
C736 C738 1.363 . S
C736 H752 0.931 . S
C737 C736 1.370 . S
C737 C741 1.408 . S
C738 C736 1.363 . S
C738 C739 1.370 . S
C738 C742 1.524 . S
C739 C731 1.503 . S
C739 C738 1.370 . S
C739 C740 1.403 . S
C740 C739 1.403 . S
C740 C741 1.404 . S
C740 C743 1.539 . S
C741 C737 1.408 . S
C741 C740 1.404 . S
C741 H753 0.930 . S
C742 C738 1.524 . S
C742 H754 0.956 . S
C742 H755 0.961 . S
C742 H756 0.961 . S
C743 C740 1.539 . S
C743 H757 0.958 . S
C743 H758 0.961 . S
C743 H759 0.960 . S
H744 C728 0.931 . S
H745 C733 0.929 . S
H746 C734 0.960 . S
H747 C734 0.962 . S
H748 C734 0.960 . S
H749 C735 0.961 . S
H750 C735 0.961 . S
H751 C735 0.961 . S
H752 C736 0.931 . S
H753 C741 0.930 . S
H754 C742 0.956 . S
H755 C742 0.961 . S
H756 C742 0.961 . S
H757 C743 0.958 . S
H758 C743 0.961 . S
H759 C743 0.960 . S
C760 C761 1.391 . S
C760 C762 1.394 . S
C760 H776 0.931 . S
C761 C760 1.391 . S
C761 C765 1.376 . S
C762 C760 1.394 . S
C762 C763 1.369 . S
C762 C766 1.531 . S
C763 C762 1.369 . S
C763 C764 1.410 . S
C763 C771 1.503 . S
C764 C763 1.410 . S
C764 C765 1.392 . S
C764 C767 1.511 . S
C765 C761 1.376 . S
C765 C764 1.392 . S
C765 H777 0.929 . S
C766 C762 1.531 . S
C766 H778 0.960 . S
C766 H779 0.962 . S
C766 H780 0.960 . S
C767 C764 1.511 . S
C767 H781 0.961 . S
C767 H782 0.961 . S
C767 H783 0.961 . S
C768 C769 1.370 . S
C768 C770 1.363 . S
C768 H784 0.931 . S
C769 C768 1.370 . S
C769 C773 1.408 . S
C770 C768 1.363 . S
C770 C771 1.370 . S
C770 C774 1.524 . S
C771 C763 1.503 . S
C771 C770 1.370 . S
C771 C772 1.403 . S
C772 C771 1.403 . S
C772 C773 1.404 . S
C772 C775 1.539 . S
C773 C769 1.408 . S
C773 C772 1.404 . S
C773 H785 0.930 . S
C774 C770 1.524 . S
C774 H786 0.956 . S
C774 H787 0.961 . S
C774 H788 0.961 . S
C775 C772 1.539 . S
C775 H789 0.958 . S
C775 H790 0.961 . S
C775 H791 0.960 . S
H776 C760 0.931 . S
H777 C765 0.929 . S
H778 C766 0.960 . S
H779 C766 0.962 . S
H780 C766 0.960 . S
H781 C767 0.961 . S
H782 C767 0.961 . S
H783 C767 0.961 . S
H784 C768 0.931 . S
H785 C773 0.930 . S
H786 C774 0.956 . S
H787 C774 0.961 . S
H788 C774 0.961 . S
H789 C775 0.958 . S
H790 C775 0.961 . S
H791 C775 0.960 . S
C792 C793 1.391 . S
C792 C794 1.394 . S
C792 H808 0.931 . S
C793 C792 1.391 . S
C793 C797 1.376 . S
C794 C792 1.394 . S
C794 C795 1.369 . S
C794 C798 1.531 . S
C795 C794 1.369 . S
C795 C796 1.410 . S
C795 C803 1.503 . S
C796 C795 1.410 . S
C796 C797 1.392 . S
C796 C799 1.511 . S
C797 C793 1.376 . S
C797 C796 1.392 . S
C797 H809 0.929 . S
C798 C794 1.531 . S
C798 H810 0.960 . S
C798 H811 0.962 . S
C798 H812 0.960 . S
C799 C796 1.511 . S
C799 H813 0.961 . S
C799 H814 0.961 . S
C799 H815 0.961 . S
C800 C801 1.370 . S
C800 C802 1.363 . S
C800 H816 0.931 . S
C801 C800 1.370 . S
C801 C805 1.408 . S
C802 C800 1.363 . S
C802 C803 1.370 . S
C802 C806 1.524 . S
C803 C795 1.503 . S
C803 C802 1.370 . S
C803 C804 1.403 . S
C804 C803 1.403 . S
C804 C805 1.404 . S
C804 C807 1.539 . S
C805 C801 1.408 . S
C805 C804 1.404 . S
C805 H817 0.930 . S
C806 C802 1.524 . S
C806 H818 0.956 . S
C806 H819 0.961 . S
C806 H820 0.961 . S
C807 C804 1.539 . S
C807 H821 0.958 . S
C807 H822 0.961 . S
C807 H823 0.960 . S
H808 C792 0.931 . S
H809 C797 0.929 . S
H810 C798 0.960 . S
H811 C798 0.962 . S
H812 C798 0.960 . S
H813 C799 0.961 . S
H814 C799 0.961 . S
H815 C799 0.961 . S
H816 C800 0.931 . S
H817 C805 0.930 . S
H818 C806 0.956 . S
H819 C806 0.961 . S
H820 C806 0.961 . S
H821 C807 0.958 . S
H822 C807 0.961 . S
H823 C807 0.960 . S
C824 C825 1.391 . S
C824 C826 1.394 . S
C824 H840 0.931 . S
C825 C824 1.391 . S
C825 C829 1.376 . S
C826 C824 1.394 . S
C826 C827 1.369 . S
C826 C830 1.531 . S
C827 C826 1.369 . S
C827 C828 1.410 . S
C827 C835 1.503 . S
C828 C827 1.410 . S
C828 C829 1.392 . S
C828 C831 1.511 . S
C829 C825 1.376 . S
C829 C828 1.392 . S
C829 H841 0.929 . S
C830 C826 1.531 . S
C830 H842 0.960 . S
C830 H843 0.962 . S
C830 H844 0.960 . S
C831 C828 1.511 . S
C831 H845 0.961 . S
C831 H846 0.961 . S
C831 H847 0.961 . S
C832 C833 1.370 . S
C832 C834 1.363 . S
C832 H848 0.931 . S
C833 C832 1.370 . S
C833 C837 1.408 . S
C834 C832 1.363 . S
C834 C835 1.370 . S
C834 C838 1.524 . S
C835 C827 1.503 . S
C835 C834 1.370 . S
C835 C836 1.403 . S
C836 C835 1.403 . S
C836 C837 1.404 . S
C836 C839 1.539 . S
C837 C833 1.408 . S
C837 C836 1.404 . S
C837 H849 0.930 . S
C838 C834 1.524 . S
C838 H850 0.956 . S
C838 H851 0.961 . S
C838 H852 0.961 . S
C839 C836 1.539 . S
C839 H853 0.958 . S
C839 H854 0.961 . S
C839 H855 0.960 . S
H840 C824 0.931 . S
H841 C829 0.929 . S
H842 C830 0.960 . S
H843 C830 0.962 . S
H844 C830 0.960 . S
H845 C831 0.961 . S
H846 C831 0.961 . S
H847 C831 0.961 . S
H848 C832 0.931 . S
H849 C837 0.930 . S
H850 C838 0.956 . S
H851 C838 0.961 . S
H852 C838 0.961 . S
H853 C839 0.958 . S
H854 C839 0.961 . S
H855 C839 0.960 . S
C856 C857 1.391 1_556 S
C856 C858 1.394 . S
C856 H872 0.931 . S
C857 C856 1.391 1_554 S
C857 C861 1.376 . S
C858 C856 1.394 . S
C858 C859 1.369 . S
C858 C862 1.531 . S
C859 C858 1.369 . S
C859 C860 1.410 1_556 S
C859 C867 1.505 . S
C860 C859 1.410 1_554 S
C860 C861 1.392 . S
C860 C863 1.511 . S
C861 C857 1.376 . S
C861 C860 1.392 . S
C861 H873 0.929 . S
C862 C858 1.531 . S
C862 H874 0.960 . S
C862 H875 0.962 . S
C862 H876 0.960 . S
C863 C860 1.511 . S
C863 H877 0.961 . S
C863 H878 0.961 . S
C863 H879 0.961 1_554 S
C864 C865 1.370 . S
C864 C866 1.363 . S
C864 H880 0.931 . S
C865 C864 1.370 . S
C865 C869 1.408 1_554 S
C866 C864 1.363 . S
C866 C867 1.356 1_554 S
C866 C870 1.524 . S
C867 C859 1.505 . S
C867 C866 1.356 1_556 S
C867 C868 1.416 . S
C868 C867 1.416 . S
C868 C869 1.404 . S
C868 C871 1.539 . S
C869 C865 1.408 1_556 S
C869 C868 1.404 . S
C869 H881 0.930 . S
C870 C866 1.524 . S
C870 H882 0.956 . S
C870 H883 0.961 . S
C870 H884 0.961 . S
C871 C868 1.539 . S
C871 H885 0.958 . S
C871 H886 0.961 . S
C871 H887 0.960 . S
H872 C856 0.931 . S
H873 C861 0.929 . S
H874 C862 0.960 . S
H875 C862 0.962 . S
H876 C862 0.960 . S
H877 C863 0.961 . S
H878 C863 0.961 . S
H879 C863 0.961 1_556 S
H880 C864 0.931 . S
H881 C869 0.930 . S
H882 C870 0.956 . S
H883 C870 0.961 . S
H884 C870 0.961 . S
H885 C871 0.958 . S
H886 C871 0.961 . S
H887 C871 0.960 . S
C888 C889 1.391 . S
C888 C890 1.394 . S
C888 H904 0.931 . S
C889 C888 1.391 . S
C889 C893 1.376 . S
C890 C888 1.394 . S
C890 C891 1.369 . S
C890 C894 1.531 . S
C891 C890 1.369 . S
C891 C892 1.410 . S
C891 C899 1.503 . S
C892 C891 1.410 . S
C892 C893 1.392 . S
C892 C895 1.511 . S
C893 C889 1.376 . S
C893 C892 1.392 . S
C893 H905 0.929 . S
C894 C890 1.531 . S
C894 H906 0.960 . S
C894 H907 0.962 . S
C894 H908 0.960 . S
C895 C892 1.511 . S
C895 H909 0.961 . S
C895 H910 0.961 . S
C895 H911 0.961 . S
C896 C897 1.370 . S
C896 C898 1.363 . S
C896 H912 0.931 . S
C897 C896 1.370 . S
C897 C901 1.408 . S
C898 C896 1.363 . S
C898 C899 1.370 . S
C898 C902 1.524 . S
C899 C891 1.503 . S
C899 C898 1.370 . S
C899 C900 1.403 . S
C900 C899 1.403 . S
C900 C901 1.404 . S
C900 C903 1.539 . S
C901 C897 1.408 . S
C901 C900 1.404 . S
C901 H913 0.930 . S
C902 C898 1.524 . S
C902 H914 0.956 . S
C902 H915 0.961 . S
C902 H916 0.961 . S
C903 C900 1.539 . S
C903 H917 0.958 . S
C903 H918 0.961 . S
C903 H919 0.960 . S
H904 C888 0.931 . S
H905 C893 0.929 . S
H906 C894 0.960 . S
H907 C894 0.962 . S
H908 C894 0.960 . S
H909 C895 0.961 . S
H910 C895 0.961 . S
H911 C895 0.961 . S
H912 C896 0.931 . S
H913 C901 0.930 . S
H914 C902 0.956 . S
H915 C902 0.961 . S
H916 C902 0.961 . S
H917 C903 0.958 . S
H918 C903 0.961 . S
H919 C903 0.960 . S
C920 C921 1.391 1_556 S
C920 C922 1.394 . S
C920 H936 0.931 . S
C921 C920 1.391 1_554 S
C921 C925 1.376 . S
C922 C920 1.394 . S
C922 C923 1.369 1_556 S
C922 C926 1.531 . S
C923 C922 1.369 1_554 S
C923 C924 1.410 . S
C923 C931 1.503 . S
C924 C923 1.410 . S
C924 C925 1.392 . S
C924 C927 1.511 . S
C925 C921 1.376 . S
C925 C924 1.392 . S
C925 H937 0.929 . S
C926 C922 1.531 . S
C926 H938 0.960 . S
C926 H939 0.962 . S
C926 H940 0.960 . S
C927 C924 1.511 . S
C927 H941 0.961 . S
C927 H942 0.961 . S
C927 H943 0.961 . S
C928 C929 1.370 . S
C928 C930 1.363 . S
C928 H944 0.931 . S
C929 C928 1.370 . S
C929 C933 1.408 1_554 S
C930 C928 1.363 . S
C930 C931 1.370 . S
C930 C934 1.524 . S
C931 C923 1.503 . S
C931 C930 1.370 . S
C931 C932 1.403 1_554 S
C932 C931 1.403 1_556 S
C932 C933 1.404 . S
C932 C935 1.539 . S
C933 C929 1.408 1_556 S
C933 C932 1.404 . S
C933 H945 0.930 . S
C934 C930 1.524 . S
C934 H946 0.956 . S
C934 H947 0.961 . S
C934 H948 0.961 . S
C935 C932 1.539 . S
C935 H949 0.958 . S
C935 H950 0.961 . S
C935 H951 0.960 . S
H936 C920 0.931 . S
H937 C925 0.929 . S
H938 C926 0.960 . S
H939 C926 0.962 . S
H940 C926 0.960 . S
H941 C927 0.961 . S
H942 C927 0.961 . S
H943 C927 0.961 . S
H944 C928 0.931 . S
H945 C933 0.930 . S
H946 C934 0.956 . S
H947 C934 0.961 . S
H948 C934 0.961 . S
H949 C935 0.958 . S
H950 C935 0.961 . S
H951 C935 0.960 . S
C952 C953 1.391 . S
C952 C954 1.394 . S
C952 H968 0.931 . S
C953 C952 1.391 . S
C953 C957 1.376 . S
C954 C952 1.394 . S
C954 C955 1.369 . S
C954 C958 1.531 . S
C955 C954 1.369 . S
C955 C956 1.410 . S
C955 C963 1.503 . S
C956 C955 1.410 . S
C956 C957 1.392 . S
C956 C959 1.511 . S
C957 C953 1.376 . S
C957 C956 1.392 . S
C957 H969 0.929 . S
C958 C954 1.531 . S
C958 H970 0.960 . S
C958 H971 0.962 . S
C958 H972 0.960 . S
C959 C956 1.511 . S
C959 H973 0.961 . S
C959 H974 0.961 . S
C959 H975 0.961 . S
C960 C961 1.370 . S
C960 C962 1.363 . S
C960 H976 0.931 . S
C961 C960 1.370 . S
C961 C965 1.408 . S
C962 C960 1.363 . S
C962 C963 1.370 . S
C962 C966 1.524 . S
C963 C955 1.503 . S
C963 C962 1.370 . S
C963 C964 1.403 . S
C964 C963 1.403 . S
C964 C965 1.404 . S
C964 C967 1.539 . S
C965 C961 1.408 . S
C965 C964 1.404 . S
C965 H977 0.930 . S
C966 C962 1.524 . S
C966 H978 0.956 . S
C966 H979 0.961 . S
C966 H980 0.961 . S
C967 C964 1.539 . S
C967 H981 0.958 . S
C967 H982 0.961 . S
C967 H983 0.960 . S
H968 C952 0.931 . S
H969 C957 0.929 . S
H970 C958 0.960 . S
H971 C958 0.962 . S
H972 C958 0.960 . S
H973 C959 0.961 . S
H974 C959 0.961 . S
H975 C959 0.961 . S
H976 C960 0.931 . S
H977 C965 0.930 . S
H978 C966 0.956 . S
H979 C966 0.961 . S
H980 C966 0.961 . S
H981 C967 0.958 . S
H982 C967 0.961 . S
H983 C967 0.960 . S
C984 C985 1.391 . S
C984 C986 1.394 . S
C984 H1000 0.931 . S
C985 C984 1.391 . S
C985 C989 1.376 . S
C986 C984 1.394 . S
C986 C987 1.369 . S
C986 C990 1.531 . S
C987 C986 1.369 . S
C987 C988 1.410 . S
C987 C995 1.503 . S
C988 C987 1.410 . S
C988 C989 1.392 . S
C988 C991 1.511 . S
C989 C985 1.376 . S
C989 C988 1.392 . S
C989 H1001 0.929 . S
C990 C986 1.531 . S
C990 H1002 0.960 . S
C990 H1003 0.962 . S
C990 H1004 0.960 . S
C991 C988 1.511 . S
C991 H1005 0.961 . S
C991 H1006 0.961 . S
C991 H1007 0.961 . S
C992 C993 1.370 . S
C992 C994 1.363 . S
C992 H1008 0.931 . S
C993 C992 1.370 . S
C993 C997 1.408 . S
C994 C992 1.363 . S
C994 C995 1.370 . S
C994 C998 1.524 . S
C995 C987 1.503 . S
C995 C994 1.370 . S
C995 C996 1.403 . S
C996 C995 1.403 . S
C996 C997 1.404 . S
C996 C999 1.539 . S
C997 C993 1.408 . S
C997 C996 1.404 . S
C997 H1009 0.930 . S
C998 C994 1.524 . S
C998 H1010 0.956 . S
C998 H1011 0.961 . S
C998 H1012 0.961 . S
C999 C996 1.539 . S
C999 H1013 0.958 . S
C999 H1014 0.961 . S
C999 H1015 0.960 . S
H1000 C984 0.931 . S
H1001 C989 0.929 . S
H1002 C990 0.960 . S
H1003 C990 0.962 . S
H1004 C990 0.960 . S
H1005 C991 0.961 . S
H1006 C991 0.961 . S
H1007 C991 0.961 . S
H1008 C992 0.931 . S
H1009 C997 0.930 . S
H1010 C998 0.956 . S
H1011 C998 0.961 . S
H1012 C998 0.961 . S
H1013 C999 0.958 . S
H1014 C999 0.961 . S
H1015 C999 0.960 . S
C1016 C1017 1.391 . S
C1016 C1018 1.394 . S
C1016 H1032 0.931 . S
C1017 C1016 1.391 . S
C1017 C1021 1.376 1_554 S
C1018 C1016 1.394 . S
C1018 C1019 1.369 . S
C1018 C1022 1.531 . S
C1019 C1018 1.369 . S
C1019 C1020 1.410 1_554 S
C1019 C1027 1.503 . S
C1020 C1019 1.410 1_556 S
C1020 C1021 1.392 . S
C1020 C1023 1.511 . S
C1021 C1017 1.376 1_556 S
C1021 C1020 1.392 . S
C1021 H1033 0.929 . S
C1022 C1018 1.531 . S
C1022 H1034 0.960 . S
C1022 H1035 0.962 . S
C1022 H1036 0.960 . S
C1023 C1020 1.511 . S
C1023 H1037 0.961 . S
C1023 H1038 0.961 . S
C1023 H1039 0.961 . S
C1024 C1025 1.370 1_556 S
C1024 C1026 1.363 . S
C1024 H1040 0.931 . S
C1025 C1024 1.370 1_554 S
C1025 C1029 1.408 . S
C1026 C1024 1.363 . S
C1026 C1027 1.370 1_556 S
C1026 C1030 1.524 . S
C1027 C1019 1.503 . S
C1027 C1026 1.370 1_554 S
C1027 C1028 1.403 . S
C1028 C1027 1.403 . S
C1028 C1029 1.404 . S
C1028 C1031 1.539 . S
C1029 C1025 1.408 . S
C1029 C1028 1.404 . S
C1029 H1041 0.930 . S
C1030 C1026 1.524 . S
C1030 H1042 0.956 . S
C1030 H1043 0.961 . S
C1030 H1044 0.961 . S
C1031 C1028 1.539 . S
C1031 H1045 0.958 . S
C1031 H1046 0.961 . S
C1031 H1047 0.960 . S
H1032 C1016 0.931 . S
H1033 C1021 0.929 . S
H1034 C1022 0.960 . S
H1035 C1022 0.962 . S
H1036 C1022 0.960 . S
H1037 C1023 0.961 . S
H1038 C1023 0.961 . S
H1039 C1023 0.961 . S
H1040 C1024 0.931 . S
H1041 C1029 0.930 . S
H1042 C1030 0.956 . S
H1043 C1030 0.961 . S
H1044 C1030 0.961 . S
H1045 C1031 0.958 . S
H1046 C1031 0.961 . S
H1047 C1031 0.960 . S
C1048 C1049 1.391 . S
C1048 C1050 1.394 . S
C1048 H1064 0.931 . S
C1049 C1048 1.391 . S
C1049 C1053 1.376 . S
C1050 C1048 1.394 . S
C1050 C1051 1.369 . S
C1050 C1054 1.531 . S
C1051 C1050 1.369 . S
C1051 C1052 1.410 . S
C1051 C1059 1.503 . S
C1052 C1051 1.410 . S
C1052 C1053 1.392 . S
C1052 C1055 1.511 . S
C1053 C1049 1.376 . S
C1053 C1052 1.392 . S
C1053 H1065 0.929 . S
C1054 C1050 1.531 . S
C1054 H1066 0.960 . S
C1054 H1067 0.962 . S
C1054 H1068 0.960 . S
C1055 C1052 1.511 . S
C1055 H1069 0.961 . S
C1055 H1070 0.961 . S
C1055 H1071 0.961 . S
C1056 C1057 1.370 . S
C1056 C1058 1.363 . S
C1056 H1072 0.931 . S
C1057 C1056 1.370 . S
C1057 C1061 1.408 . S
C1058 C1056 1.363 . S
C1058 C1059 1.370 . S
C1058 C1062 1.524 . S
C1059 C1051 1.503 . S
C1059 C1058 1.370 . S
C1059 C1060 1.403 . S
C1060 C1059 1.403 . S
C1060 C1061 1.404 . S
C1060 C1063 1.539 . S
C1061 C1057 1.408 . S
C1061 C1060 1.404 . S
C1061 H1073 0.930 . S
C1062 C1058 1.524 . S
C1062 H1074 0.956 . S
C1062 H1075 0.961 . S
C1062 H1076 0.961 . S
C1063 C1060 1.539 . S
C1063 H1077 0.958 . S
C1063 H1078 0.961 . S
C1063 H1079 0.960 . S
H1064 C1048 0.931 . S
H1065 C1053 0.929 . S
H1066 C1054 0.960 . S
H1067 C1054 0.962 . S
H1068 C1054 0.960 . S
H1069 C1055 0.961 . S
H1070 C1055 0.961 . S
H1071 C1055 0.961 . S
H1072 C1056 0.931 . S
H1073 C1061 0.930 . S
H1074 C1062 0.956 . S
H1075 C1062 0.961 . S
H1076 C1062 0.961 . S
H1077 C1063 0.958 . S
H1078 C1063 0.961 . S
H1079 C1063 0.960 . S
C1080 C1081 1.391 . S
C1080 C1082 1.394 . S
C1080 H1096 0.931 . S
C1081 C1080 1.391 . S
C1081 C1085 1.376 1_554 S
C1082 C1080 1.394 . S
C1082 C1083 1.369 . S
C1082 C1086 1.531 . S
C1083 C1082 1.369 . S
C1083 C1084 1.410 1_554 S
C1083 C1091 1.503 . S
C1084 C1083 1.410 1_556 S
C1084 C1085 1.392 . S
C1084 C1087 1.511 . S
C1085 C1081 1.376 1_556 S
C1085 C1084 1.392 . S
C1085 H1097 0.929 . S
C1086 C1082 1.531 . S
C1086 H1098 0.960 . S
C1086 H1099 0.962 . S
C1086 H1100 0.960 . S
C1087 C1084 1.511 . S
C1087 H1101 0.961 . S
C1087 H1102 0.961 . S
C1087 H1103 0.961 . S
C1088 C1089 1.370 . S
C1088 C1090 1.363 . S
C1088 H1104 0.931 . S
C1089 C1088 1.370 . S
C1089 C1093 1.408 . S
C1090 C1088 1.363 . S
C1090 C1091 1.370 . S
C1090 C1094 1.524 . S
C1091 C1083 1.503 . S
C1091 C1090 1.370 . S
C1091 C1092 1.403 . S
C1092 C1091 1.403 . S
C1092 C1093 1.404 . S
C1092 C1095 1.539 . S
C1093 C1089 1.408 . S
C1093 C1092 1.404 . S
C1093 H1105 0.930 . S
C1094 C1090 1.524 . S
C1094 H1106 0.956 . S
C1094 H1107 0.961 1_554 S
C1094 H1108 0.961 . S
C1095 C1092 1.539 . S
C1095 H1109 0.958 . S
C1095 H1110 0.961 1_554 S
C1095 H1111 0.960 1_554 S
H1096 C1080 0.931 . S
H1097 C1085 0.929 . S
H1098 C1086 0.960 . S
H1099 C1086 0.962 . S
H1100 C1086 0.960 . S
H1101 C1087 0.961 . S
H1102 C1087 0.961 . S
H1103 C1087 0.961 . S
H1104 C1088 0.931 . S
H1105 C1093 0.930 . S
H1106 C1094 0.956 . S
H1107 C1094 0.961 1_556 S
H1108 C1094 0.961 . S
H1109 C1095 0.958 . S
H1110 C1095 0.961 1_556 S
H1111 C1095 0.960 1_556 S
C345 C21 1.567 . S
C353 C201 1.506 . S
C377 C40 1.648 . S
C385 C117 1.525 . S
C417 C149 1.542 . S
C409 C54 1.527 . S
C441 C73 1.666 . S
C449 C169 1.683 . S
C481 C277 1.543 . S
C473 C74 1.525 . S
C513 C297 1.645 . S
C505 C10 1.647 . S
C545 C329 1.478 . S
C537 C37 1.568 . S
C577 C245 1.528 . S
C569 C65 1.681 . S
C601 C52 1.540 . S
C609 C137 1.540 . S
C633 C87 1.694 . S
C641 C181 1.697 . S
C665 C15 1.562 . S
C673 C213 1.500 . S
C705 C105 1.515 . S
C697 C32 1.641 . S
C729 C29 1.567 . S
C737 C341 1.474 . S
C769 C233 1.576 . S
C761 C59 1.680 . S
C801 C265 1.537 . S
C793 C84 1.535 . S
C825 C8 1.634 . S
C833 C309 1.645 . S
C865 C111 1.628 . S
C857 C7 1.756 . S
C897 C143 1.637 . S
C889 C30 1.636 . S
C921 C62 1.766 . S
C929 C175 1.774 . S
C953 C81 1.630 . S
C961 C207 1.525 . S
C993 C239 1.636 . S
C985 C76 1.766 . S
C1017 C18 1.633 . S
C1025 C271 1.639 . S
C1049 C43 1.749 . S
C1057 C303 1.757 . S
C1081 C51 1.630 . S
C1089 C335 1.526 . S
