# Generated by pormake.
# Topology pyr, (3,6)-cn, num edge types: 1
# Building blocks:
#     Node 0, Type 0, BuildingBlock: QEWDON_clean_linker_0, # of connection points: 3
#     Node 1, Type 0, BuildingBlock: QEWDON_clean_linker_0, # of connection points: 3
#     Node 2, Type 0, BuildingBlock: QEWDON_clean_linker_0, # of connection points: 3
#     Node 3, Type 0, BuildingBlock: QEWDON_clean_linker_0, # of connection points: 3
#     Node 4, Type 0, BuildingBlock: QEWDON_clean_linker_0, # of connection points: 3
#     Node 5, Type 0, BuildingBlock: QEWDON_clean_linker_0, # of connection points: 3
#     Node 6, Type 0, BuildingBlock: QEWDON_clean_linker_0, # of connection points: 3
#     Node 7, Type 0, BuildingBlock: QEWDON_clean_linker_0, # of connection points: 3
#     Node 8, Type 1, BuildingBlock: PAMTOO_clean_sbu_0, # of connection points: 6
#     Node 9, Type 1, BuildingBlock: PAMTOO_clean_sbu_0, # of connection points: 6
#     Node 10, Type 1, BuildingBlock: PAMTOO_clean_sbu_0, # of connection points: 6
#     Node 11, Type 1, BuildingBlock: PAMTOO_clean_sbu_0, # of connection points: 6
#     Edge 12, Type (0, 1), BuildingBlock: KIFKEQ_clean_linker_1, # of connection points: 2
#     Edge 13, Type (0, 1), BuildingBlock: KIFKEQ_clean_linker_1, # of connection points: 2
#     Edge 14, Type (0, 1), BuildingBlock: KIFKEQ_clean_linker_1, # of connection points: 2
#     Edge 15, Type (0, 1), BuildingBlock: KIFKEQ_clean_linker_1, # of connection points: 2
#     Edge 16, Type (0, 1), BuildingBlock: KIFKEQ_clean_linker_1, # of connection points: 2
#     Edge 17, Type (0, 1), BuildingBlock: KIFKEQ_clean_linker_1, # of connection points: 2
#     Edge 18, Type (0, 1), BuildingBlock: KIFKEQ_clean_linker_1, # of connection points: 2
#     Edge 19, Type (0, 1), BuildingBlock: KIFKEQ_clean_linker_1, # of connection points: 2
#     Edge 20, Type (0, 1), BuildingBlock: KIFKEQ_clean_linker_1, # of connection points: 2
#     Edge 21, Type (0, 1), BuildingBlock: KIFKEQ_clean_linker_1, # of connection points: 2
#     Edge 22, Type (0, 1), BuildingBlock: KIFKEQ_clean_linker_1, # of connection points: 2
#     Edge 23, Type (0, 1), BuildingBlock: KIFKEQ_clean_linker_1, # of connection points: 2
#     Edge 24, Type (0, 1), BuildingBlock: KIFKEQ_clean_linker_1, # of connection points: 2
#     Edge 25, Type (0, 1), BuildingBlock: KIFKEQ_clean_linker_1, # of connection points: 2
#     Edge 26, Type (0, 1), BuildingBlock: KIFKEQ_clean_linker_1, # of connection points: 2
#     Edge 27, Type (0, 1), BuildingBlock: KIFKEQ_clean_linker_1, # of connection points: 2
#     Edge 28, Type (0, 1), BuildingBlock: KIFKEQ_clean_linker_1, # of connection points: 2
#     Edge 29, Type (0, 1), BuildingBlock: KIFKEQ_clean_linker_1, # of connection points: 2
#     Edge 30, Type (0, 1), BuildingBlock: KIFKEQ_clean_linker_1, # of connection points: 2
#     Edge 31, Type (0, 1), BuildingBlock: KIFKEQ_clean_linker_1, # of connection points: 2
#     Edge 32, Type (0, 1), BuildingBlock: KIFKEQ_clean_linker_1, # of connection points: 2
#     Edge 33, Type (0, 1), BuildingBlock: KIFKEQ_clean_linker_1, # of connection points: 2
#     Edge 34, Type (0, 1), BuildingBlock: KIFKEQ_clean_linker_1, # of connection points: 2
#     Edge 35, Type (0, 1), BuildingBlock: KIFKEQ_clean_linker_1, # of connection points: 2
# Relax obj value: 0.144
# Max RMSD: 0.247
# Mean RMSD: 0.179
data_MOF--net-pyr--node1-PAMTOO_clean_sbu_0--node2-QEWDON_clean_linker_0--edge1-KIFKEQ_clean_linker_1
_symmetry_space_group_name_H-M    P1
_symmetry_Int_Tables_number       1
_symmetry_cell_setting            triclinic
loop_
_symmetry_equiv_pos_as_xyz
'x, y, z'
_cell_length_a     37.928009
_cell_length_b     40.472762
_cell_length_c     42.671413
_cell_angle_alpha  90.309421
_cell_angle_beta   90.371301
_cell_angle_gamma 113.29804
loop_
_atom_site_label
_atom_site_type_symbol
_atom_site_fract_x
_atom_site_fract_y
_atom_site_fract_z
_atom_type_partial_charge
H0 H 0.4027 0.324 0.1831 0.0
C1 C 0.38412 0.31198 0.20273 0.0
C2 C 0.38088 0.2783 0.21376 0.0
C3 C 0.36327 0.33004 0.2167 0.0
H4 H 0.35383 0.23658 0.24742 0.0
C5 C 0.35649 0.26266 0.23892 0.0
C6 C 0.33526 0.28021 0.253 0.0
C7 C 0.33889 0.31397 0.24186 0.0
C8 C 0.36662 0.36547 0.20478 0.0
H9 H 0.32263 0.3277 0.25271 0.0
C10 C 0.33354 0.37232 0.19926 0.0
C11 C 0.33644 0.40568 0.18747 0.0
C12 C 0.40285 0.39247 0.19852 0.0
H13 H 0.42878 0.38797 0.2028 0.0
C14 C 0.40596 0.42573 0.18709 0.0
H15 H 0.30549 0.35123 0.20324 0.0
C16 C 0.37305 0.43237 0.18157 0.0
H17 H 0.37628 0.45851 0.17292 0.0
H18 H 0.434 0.44647 0.18253 0.0
H19 H 0.15973 0.81673 0.77184 0.0
C20 C 0.17893 0.80611 0.7611 0.0
C21 C 0.21346 0.81039 0.77628 0.0
C22 C 0.16889 0.78791 0.73216 0.0
H23 H 0.26552 0.80118 0.77286 0.0
C24 C 0.23797 0.79646 0.76206 0.0
C25 C 0.22853 0.77843 0.73311 0.0
C26 C 0.1938 0.77407 0.71831 0.0
C27 C 0.13307 0.78448 0.71579 0.0
H28 H 0.18647 0.76048 0.69576 0.0
C29 C 0.12479 0.81502 0.71087 0.0
C30 C 0.09224 0.81237 0.69337 0.0
C31 C 0.10783 0.751 0.70385 0.0
H32 H 0.11356 0.7271 0.70748 0.0
C33 C 0.07495 0.7481 0.68715 0.0
H34 H 0.14469 0.84111 0.71929 0.0
C35 C 0.06729 0.7786 0.6817 0.0
H36 H 0.04197 0.77588 0.66821 0.0
H37 H 0.05561 0.7222 0.67804 0.0
H38 H 0.70544 0.48663 0.8871 0.0
C39 C 0.69367 0.45814 0.89229 0.0
C40 C 0.71591 0.44334 0.90923 0.0
C41 C 0.65544 0.43657 0.88368 0.0
H42 H 0.71624 0.39565 0.93115 0.0
C43 C 0.69976 0.40668 0.91694 0.0
C44 C 0.66157 0.38486 0.90918 0.0
C45 C 0.63962 0.40003 0.89244 0.0
C46 C 0.62979 0.45315 0.87063 0.0
H47 H 0.60981 0.38366 0.88691 0.0
C48 C 0.636 0.47052 0.84118 0.0
C49 C 0.61057 0.48591 0.83009 0.0
C50 C 0.59821 0.45138 0.88858 0.0
H51 H 0.59292 0.43836 0.91121 0.0
C52 C 0.57333 0.46657 0.87782 0.0
H53 H 0.66019 0.47191 0.82707 0.0
C54 C 0.57937 0.48364 0.84892 0.0
H55 H 0.55902 0.49457 0.84099 0.0
H56 H 0.54909 0.46497 0.89191 0.0
H57 H 0.91772 0.79123 0.36814 0.0
C58 C 0.89484 0.77215 0.38189 0.0
C59 C 0.89159 0.7793 0.41394 0.0
C60 C 0.86731 0.74142 0.36709 0.0
H61 H 0.85681 0.76109 0.45519 0.0
C62 C 0.86062 0.75501 0.43098 0.0
C63 C 0.83227 0.72495 0.41646 0.0
C64 C 0.83593 0.71826 0.38451 0.0
C65 C 0.86591 0.73804 0.33235 0.0
H66 H 0.81344 0.69588 0.3728 0.0
C67 C 0.88749 0.72243 0.31526 0.0
C68 C 0.88446 0.71987 0.28207 0.0
C69 C 0.84128 0.75042 0.31617 0.0
H70 H 0.8244 0.76226 0.32882 0.0
C71 C 0.83801 0.74765 0.28368 0.0
H72 H 0.90657 0.71277 0.32756 0.0
C73 C 0.85931 0.73256 0.26678 0.0
H74 H 0.85584 0.73055 0.24152 0.0
H75 H 0.81879 0.75721 0.2715 0.0
H76 H 0.70772 0.78306 0.96443 0.0
C77 C 0.71365 0.79498 0.94135 0.0
C78 C 0.74616 0.79606 0.9252 0.0
C79 C 0.68885 0.80929 0.92782 0.0
H80 H 0.77976 0.81347 0.88359 0.0
C81 C 0.7539 0.81166 0.89549 0.0
C82 C 0.7297 0.82633 0.88166 0.0
C83 C 0.6972 0.82515 0.89807 0.0
C84 C 0.65416 0.80746 0.9448 0.0
H85 H 0.67797 0.83591 0.88748 0.0
C86 C 0.64589 0.83827 0.94831 0.0
C87 C 0.61413 0.83686 0.96597 0.0
C88 C 0.62965 0.77496 0.95831 0.0
H89 H 0.63521 0.75082 0.95568 0.0
C90 C 0.59763 0.77328 0.97521 0.0
H91 H 0.66509 0.86364 0.93853 0.0
C92 C 0.59 0.80404 0.97924 0.0
H93 H 0.56528 0.80225 0.9928 0.0
H94 H 0.57886 0.74812 0.9855 0.0
H95 H 0.87426 0.27882 0.49667 0.0
C96 C 0.85706 0.27162 0.47541 0.0
C97 C 0.86531 0.2504 0.45294 0.0
C98 C 0.82594 0.28183 0.47145 0.0
H99 H 0.85102 0.22584 0.40725 0.0
C100 C 0.84461 0.24221 0.42467 0.0
C101 C 0.81428 0.25324 0.41951 0.0
C102 C 0.8049 0.27275 0.44308 0.0
C103 C 0.81367 0.29897 0.49801 0.0
H104 H 0.77991 0.27905 0.43983 0.0
C105 C 0.79498 0.32244 0.49263 0.0
C106 C 0.78207 0.3371 0.51785 0.0
C107 C 0.81926 0.29072 0.52927 0.0
H108 H 0.83189 0.27167 0.53471 0.0
C109 C 0.80758 0.30612 0.55426 0.0
H110 H 0.79043 0.32948 0.46894 0.0
C111 C 0.78907 0.32913 0.54867 0.0
H112 H 0.77902 0.33969 0.56851 0.0
H113 H 0.81207 0.29948 0.57809 0.0
H114 H 0.4476 0.79996 0.25275 0.0
C115 C 0.41783 0.78562 0.24577 0.0
C116 C 0.4009 0.80162 0.22457 0.0
C117 C 0.39767 0.7498 0.25544 0.0
H118 H 0.35137 0.79393 0.19619 0.0
C119 C 0.36345 0.78188 0.21361 0.0
C120 C 0.34273 0.74615 0.22281 0.0
C121 C 0.3601 0.73037 0.24399 0.0
C122 C 0.41914 0.72985 0.26969 0.0
H123 H 0.34531 0.70236 0.25031 0.0
C124 C 0.42151 0.72523 0.30244 0.0
C125 C 0.44309 0.70617 0.3142 0.0
C126 C 0.43761 0.71484 0.24915 0.0
H127 H 0.43595 0.71795 0.22403 0.0
C128 C 0.45821 0.69563 0.2606 0.0
H129 H 0.40739 0.73679 0.31847 0.0
C130 C 0.46096 0.69132 0.29273 0.0
H131 H 0.47702 0.67599 0.30084 0.0
H132 H 0.47215 0.68402 0.24447 0.0
H133 H 0.22738 0.45695 0.77112 0.0
C134 C 0.20744 0.43259 0.75987 0.0
C135 C 0.21371 0.4247 0.72861 0.0
C136 C 0.17785 0.40722 0.77763 0.0
H137 H 0.19322 0.38593 0.69087 0.0
C138 C 0.18859 0.39218 0.71484 0.0
C139 C 0.15951 0.36634 0.73215 0.0
C140 C 0.15437 0.374 0.76357 0.0
C141 C 0.17689 0.41123 0.81236 0.0
H142 H 0.13294 0.35359 0.77747 0.0
C143 C 0.16657 0.43749 0.82744 0.0
C144 C 0.16629 0.43949 0.86072 0.0
C145 C 0.18659 0.38737 0.83078 0.0
H146 H 0.19462 0.36715 0.81985 0.0
C147 C 0.1863 0.38929 0.86331 0.0
H148 H 0.1589 0.45599 0.81352 0.0
C149 C 0.17626 0.41498 0.87815 0.0
H150 H 0.1758 0.41534 0.90353 0.0
H151 H 0.19379 0.37063 0.87716 0.0
Dy152 Dy 0.07265 0.08619 0.55938 0.0
Dy153 Dy 0.98908 0.05621 0.59358 0.0
C154 C 0.05545 0.12928 0.61362 0.0
O155 O 0.07451 0.04363 0.59118 0.0
O156 O 0.02404 0.03574 0.62425 0.0
O157 O 0.12538 0.13164 0.54984 0.0
O158 O 0.1169 0.07863 0.53238 0.0
O159 O 0.99123 1.00918 0.56726 0.0
O160 O 0.03273 0.041 0.52898 0.0
O161 O 0.97952 0.07527 0.54683 0.0
O162 O 0.04046 0.11618 0.53756 0.0
O163 O 0.92771 0.02569 0.59437 0.0
O164 O 0.95635 0.06207 0.63273 0.0
C165 C 0.05442 0.02962 0.6163 0.0
O166 O 0.07924 0.11445 0.60577 0.0
O167 O 0.02014 0.11523 0.60296 0.0
C168 C 0.15371 0.12907 0.50129 0.0
C169 C 0.18505 0.16098 0.44382 0.0
C170 C 0.19434 0.18126 0.47174 0.0
C171 C 0.17897 0.16541 0.50019 0.0
C172 C 0.1441 0.10877 0.47334 0.0
C173 C 0.15974 0.12459 0.44487 0.0
C174 C 0.13841 0.11298 0.53183 0.0
C175 C 0.00646 0.0107 0.53942 0.0
C176 C 1.00336 0.10355 0.53214 0.0
C177 C 0.89889 0.01336 0.64448 0.0
C178 C 0.85268 0.96858 0.69121 0.0
C179 C 0.87747 0.9576 0.6736 0.0
C180 C 0.90065 0.97999 0.65045 0.0
C181 C 0.87362 0.02394 0.6615 0.0
C182 C 0.85074 1.0018 0.6847 0.0
C183 C 0.92399 0.03852 0.62169 0.0
H184 H 0.2142 0.20922 0.4717 0.0
H185 H 0.18705 0.18154 0.52144 0.0
H186 H 0.12465 0.08068 0.4734 0.0
H187 H 0.15192 0.1084 0.42365 0.0
H188 H 0.87974 0.93226 0.67838 0.0
H189 H 0.92028 0.97158 0.63762 0.0
H190 H 0.87198 0.04966 0.65714 0.0
H191 H 0.83164 0.01074 0.69768 0.0
Dy192 Dy 0.49245 0.07735 0.04598 0.0
Dy193 Dy 0.57344 0.10908 0.08671 0.0
C194 C 0.50553 0.03435 0.104 0.0
O195 O 0.47941 0.10107 0.08924 0.0
O196 O 0.53996 0.13992 0.10411 0.0
O197 O 0.43087 0.04917 0.04324 0.0
O198 O 0.46282 0.07744 1.00268 0.0
O199 O 0.58487 0.13736 0.04054 0.0
O200 O 0.52452 0.13532 0.03454 0.0
O201 O 0.5789 0.06686 0.05601 0.0
O202 O 0.52937 0.05486 1.02023 0.0
O203 O 0.62382 0.15448 0.1022 0.0
O204 O 0.61574 0.10053 0.11592 0.0
C205 C 0.50251 0.12913 0.1052 0.0
O206 O 0.49262 0.03176 0.07504 0.0
O207 O 0.53061 0.06508 0.11533 0.0
C208 C 0.40335 0.02938 0.99314 0.0
C209 C 0.35387 0.97782 0.95119 0.0
C210 C 0.38043 0.96982 0.96953 0.0
C211 C 0.40519 0.99556 0.99034 0.0
C212 C 0.3765 0.03714 0.97534 0.0
C213 C 0.35197 0.01162 0.95454 0.0
C214 C 0.42926 0.05748 1.01392 0.0
C215 C 0.56116 0.15008 0.02806 0.0
C216 C 0.56026 0.05085 0.03048 0.0
C217 C 0.64814 0.14758 0.15224 0.0
C218 C 0.67517 0.17241 0.21332 0.0
C219 C 0.66477 0.19406 0.19271 0.0
C220 C 0.65135 0.18178 0.16247 0.0
C221 C 0.65838 0.12592 0.17293 0.0
C222 C 0.67157 0.13812 0.20317 0.0
C223 C 0.63603 0.13487 0.11981 0.0
H224 H 0.38269 0.94407 0.96719 0.0
H225 H 0.42593 0.98927 1.00393 0.0
H226 H 0.3747 0.06313 0.97737 0.0
H227 H 0.33149 0.01836 0.94102 0.0
H228 H 0.66702 0.22052 0.19995 0.0
H229 H 0.64391 0.19926 0.14707 0.0
H230 H 0.6567 0.09967 0.16558 0.0
H231 H 0.67996 0.12104 0.21833 0.0
Dy232 Dy 0.51265 0.55441 0.55607 0.0
Dy233 Dy 0.52862 0.63178 0.58932 0.0
C234 C 0.55562 0.57522 0.62308 0.0
O235 O 0.45493 0.54923 0.57323 0.0
O236 O 0.47641 0.59184 0.61217 0.0
O237 O 0.4928 0.49648 0.55715 0.0
O238 O 0.51514 0.5251 0.51432 0.0
O239 O 0.48639 0.62592 0.5503 0.0
O240 O 0.50479 0.58992 0.51908 0.0
O241 O 0.57557 0.64222 0.55433 0.0
O242 O 0.5761 0.58593 0.55327 0.0
O243 O 0.53876 0.68802 0.58533 0.0
O244 O 0.53527 0.66425 0.63102 0.0
C245 C 0.44921 0.56349 0.5995 0.0
O246 O 0.53098 0.54988 0.60526 0.0
O247 O 0.56493 0.6095 0.61693 0.0
C248 C 0.53287 0.47778 0.52669 0.0
C249 C 0.58878 0.44884 0.52022 0.0
C250 C 0.59461 0.47744 0.54122 0.0
C251 C 0.56693 0.49176 0.54441 0.0
C252 C 0.52676 0.44932 0.50566 0.0
C253 C 0.55456 0.43489 0.50242 0.0
C254 C 0.50525 0.49471 0.52904 0.0
C255 C 0.48915 0.6134 0.52238 0.0
C256 C 0.59221 0.62035 0.54676 0.0
C257 C 0.50458 0.70358 0.62412 0.0
C258 C 0.44478 0.72346 0.64341 0.0
C259 C 0.43664 0.6913 0.62656 0.0
C260 C 0.46626 0.68147 0.61703 0.0
C261 C 0.51307 0.73591 0.64053 0.0
C262 C 0.48335 0.74582 0.65011 0.0
C263 C 0.535 0.69167 0.61533 0.0
H264 H 0.62091 0.48919 0.55486 0.0
H265 H 0.57231 0.51411 0.56048 0.0
H266 H 0.50072 0.43849 0.49162 0.0
H267 H 0.54917 0.41268 0.48624 0.0
H268 H 0.4073 0.67316 0.62149 0.0
H269 H 0.45921 0.65624 0.60455 0.0
H270 H 0.54253 0.75321 0.6462 0.0
H271 H 0.49054 0.77092 0.66281 0.0
Dy272 Dy 0.03742 0.62477 0.04841 0.0
Dy273 Dy 0.01965 0.54946 0.08584 0.0
C274 C 0.99709 0.61021 0.11613 0.0
O275 O 0.09492 0.63211 0.06811 0.0
O276 O 0.07348 0.59 0.10711 0.0
O277 O 0.05415 0.68246 0.04828 0.0
O278 O 0.03593 0.6519 1.00528 0.0
O279 O 0.06334 0.55264 0.04946 0.0
O280 O 0.05006 0.58848 1.01416 0.0
O281 O 0.97404 0.53677 0.0488 0.0
O282 O 0.97415 0.59295 0.04469 0.0
O283 O 1.00319 0.4919 0.08506 0.0
O284 O 0.01706 0.52101 0.12912 0.0
C285 C 0.10055 0.61807 0.09447 0.0
O286 O 0.02264 0.63321 0.09773 0.0
O287 O 0.98502 0.57533 0.11108 0.0
C288 C 0.0137 0.69724 1.01438 0.0
C289 C 0.95447 0.72054 1.00103 0.0
C290 C 0.94797 0.69136 1.02108 0.0
C291 C 0.97737 0.67996 0.02783 0.0
C292 C 0.02071 0.72692 0.99495 0.0
C293 C 0.99131 0.73868 0.98846 0.0
C294 C 0.04301 0.68253 1.01934 0.0
C295 C 0.06439 0.56458 1.02075 0.0
C296 C 0.95795 0.55828 0.03909 0.0
C297 C 0.04108 0.47651 0.12134 0.0
C298 C 0.1022 0.45672 0.13756 0.0
C299 C 0.10309 0.47525 0.10963 0.0
C300 C 0.07297 0.48516 0.1017 0.0
C301 C 0.03938 0.45705 0.14878 0.0
C302 C 0.06969 0.44708 0.1568 0.0
C303 C 0.01191 0.49103 0.11458 0.0
H304 H 0.92001 0.67717 0.03137 0.0
H305 H 0.97152 0.65716 0.0431 0.0
H306 H 0.04857 0.74048 0.98432 0.0
H307 H 0.99698 0.76113 0.97278 0.0
H308 H 0.12737 0.48253 0.09403 0.0
H309 H 0.07508 0.50037 0.08051 0.0
H310 H 0.0152 0.4505 0.1644 0.0
H311 H 0.06832 0.43299 0.17856 0.0
H312 H 0.2829 0.21095 0.25669 0.0
H313 H 0.32951 0.31096 0.30874 0.0
H314 H 0.24279 0.18178 0.30115 0.0
H315 H 0.29011 0.28175 0.35354 0.0
H316 H 0.19317 0.22642 0.42077 0.0
H317 H 0.22591 0.2552 0.37306 0.0
H318 H 0.25078 0.16199 0.35237 0.0
H319 H 0.2174 0.13309 0.39966 0.0
C320 C 0.2846 0.22663 0.27773 0.0
C321 C 0.30944 0.26313 0.27939 0.0
C322 C 0.26171 0.20994 0.30322 0.0
C323 C 0.26339 0.22934 0.33102 0.0
C324 C 0.28767 0.26611 0.33236 0.0
C325 C 0.31035 0.28286 0.30676 0.0
C326 C 0.20557 0.21212 0.40591 0.0
C327 C 0.20284 0.17757 0.41393 0.0
C328 C 0.2244 0.22861 0.37865 0.0
C329 C 0.24115 0.211 0.35893 0.0
C330 C 0.23771 0.17612 0.36672 0.0
C331 C 0.21865 0.15955 0.39386 0.0
H332 H 0.2071 0.87346 0.79196 0.0
H333 H 0.24799 0.79507 0.82737 0.0
H334 H 0.23546 0.91206 0.8372 0.0
H335 H 0.27817 0.83447 0.87163 0.0
H336 H 0.31194 0.90561 0.9584 0.0
H337 H 0.27121 0.86299 0.91922 0.0
H338 H 0.30022 0.94892 0.85185 0.0
H339 H 0.34006 0.99126 0.89101 0.0
C340 C 0.2216 0.86419 0.80964 0.0
C341 C 0.22572 0.83141 0.80588 0.0
C342 C 0.23832 0.88654 0.83536 0.0
C343 C 0.25969 0.87666 0.85776 0.0
C344 C 0.26184 0.84291 0.85492 0.0
C345 C 0.24491 0.82049 0.82934 0.0
C346 C 0.3095 0.91524 0.93518 0.0
C347 C 0.32905 0.95172 0.92775 0.0
C348 C 0.28618 0.8909 0.91277 0.0
C349 C 0.28221 0.90257 0.88244 0.0
C350 C 0.3018 0.93913 0.87517 0.0
C351 C 0.32483 0.9634 0.89756 0.0
H352 H 0.62186 0.46072 0.77253 0.0
H353 H 0.60678 0.55028 0.81668 0.0
H354 H 0.61573 0.48434 0.72091 0.0
H355 H 0.59948 0.57326 0.7656 0.0
H356 H 0.60388 0.61844 0.66889 0.0
H357 H 0.62582 0.59973 0.717 0.0
H358 H 0.56466 0.48837 0.69005 0.0
H359 H 0.54369 0.507 0.64184 0.0
C360 C 0.61807 0.48583 0.77121 0.0
C361 C 0.61455 0.50343 0.79877 0.0
C362 C 0.61401 0.49918 0.74161 0.0
C363 C 0.60654 0.53058 0.73884 0.0
C364 C 0.60543 0.54923 0.7665 0.0
C365 C 0.60938 0.53588 0.79594 0.0
C366 C 0.59547 0.58997 0.67304 0.0
C367 C 0.5717 0.56433 0.65142 0.0
C368 C 0.60791 0.57918 0.7008 0.0
C369 C 0.59694 0.54242 0.70775 0.0
C370 C 0.57423 0.51689 0.68555 0.0
C371 C 0.56185 0.52765 0.65787 0.0
H372 H 0.92603 0.7494 0.23029 0.0
H373 H 0.89253 0.65518 0.28829 0.0
H374 H 0.95364 0.7217 0.19258 0.0
H375 H 0.92164 0.62735 0.25064 0.0
H376 H 0.93564 0.57495 0.15518 0.0
H377 H 0.9119 0.60094 0.1981 0.0
H378 H 1.00433 0.70413 0.18251 0.0
H379 H 0.02695 0.67872 0.13946 0.0
C380 C 0.92519 0.72287 0.23526 0.0
C381 C 0.90693 0.70452 0.26233 0.0
C382 C 0.94131 0.70694 0.21362 0.0
C383 C 0.94002 0.67207 0.21829 0.0
C384 C 0.92286 0.65404 0.24597 0.0
C385 C 0.90664 0.67016 0.26781 0.0
C386 C 0.95086 0.60316 0.16099 0.0
C387 C 0.98292 0.62475 0.14341 0.0
C388 C 0.93741 0.61807 0.18581 0.0
C389 C 0.95582 0.65489 0.19377 0.0
C390 C 0.98865 0.67596 0.17678 0.0
C391 C 1.0018 0.66124 0.15198 0.0
H392 H 0.42462 0.24681 0.24161 0.0
H393 H 0.38384 0.26534 0.1514 0.0
H394 H 0.45565 0.21094 0.21633 0.0
H395 H 0.41478 0.22954 0.12618 0.0
H396 H 0.42905 0.12476 0.1018 0.0
H397 H 0.40186 0.16234 0.12859 0.0
H398 H 0.50998 0.21945 0.17619 0.0
H399 H 0.53766 0.1819 0.14916 0.0
C400 C 0.4225 0.24332 0.21638 0.0
C401 C 0.40182 0.25871 0.19841 0.0
C402 C 0.44039 0.22304 0.20195 0.0
C403 C 0.43736 0.21738 0.16938 0.0
C404 C 0.41723 0.23328 0.15138 0.0
C405 C 0.39981 0.25395 0.16574 0.0
C406 C 0.44707 0.14512 0.11813 0.0
C407 C 0.48558 0.15039 0.1233 0.0
C408 C 0.43152 0.1668 0.13326 0.0
C409 C 0.45395 0.19394 0.15419 0.0
C410 C 0.49212 0.19864 0.16015 0.0
C411 C 0.50792 0.17722 0.14464 0.0
H412 H 0.07845 0.83257 0.63563 0.0
H413 H 0.09242 0.86624 0.73272 0.0
H414 H 0.0713 0.88789 0.62115 0.0
H415 H 0.08469 0.92177 0.71813 0.0
H416 H 0.01776 0.98944 0.66732 0.0
H417 H 0.0277 0.93789 0.68939 0.0
H418 H 0.12147 0.95633 0.62588 0.0
H419 H 0.11238 1.00778 0.60419 0.0
C420 C 0.07952 0.85164 0.6539 0.0
C421 C 0.08591 0.84516 0.68527 0.0
C422 C 0.07569 0.88334 0.64561 0.0
C423 C 0.07764 0.90902 0.66855 0.0
C424 C 0.08304 0.90227 0.70008 0.0
C425 C 0.08759 0.87071 0.70835 0.0
C426 C 0.04104 0.983 0.65855 0.0
C427 C 0.06396 1.00257 0.63371 0.0
C428 C 0.04667 0.95352 0.6712 0.0
C429 C 0.07497 0.94301 0.65894 0.0
C430 C 0.09914 0.9637 0.63541 0.0
C431 C 0.09391 0.99326 0.62309 0.0
H432 H 0.78148 0.43103 0.90639 0.0
H433 H 0.73664 0.50592 0.94316 0.0
H434 H 0.84054 0.46093 0.93658 0.0
H435 H 0.79551 0.53561 0.97403 0.0
H436 H 0.92012 0.59525 1.00982 0.0
H437 H 0.86398 0.57108 0.97526 0.0
H438 H 0.85814 0.46364 0.99073 0.0
H439 H 0.9146 0.48777 0.02455 0.0
C440 C 0.78456 0.45428 0.92062 0.0
C441 C 0.7544 0.46606 0.92246 0.0
C442 C 0.81823 0.47121 0.93822 0.0
C443 C 0.82259 0.50027 0.95834 0.0
C444 C 0.79329 0.51341 0.95876 0.0
C445 C 0.75958 0.49651 0.94096 0.0
C446 C 0.90674 0.56643 1.00598 0.0
C447 C 0.92204 0.54348 1.01997 0.0
C448 C 0.87445 0.55257 0.98615 0.0
C449 C 0.85666 0.51541 0.97981 0.0
C450 C 0.87155 0.49248 0.9944 0.0
C451 C 0.9038 0.50631 1.01411 0.0
H452 H 0.82621 0.69447 0.47442 0.0
H453 H 0.75813 0.70912 0.39858 0.0
H454 H 0.76815 0.66703 0.50602 0.0
H455 H 0.70026 0.68217 0.43026 0.0
H456 H 0.62219 0.68291 0.51386 0.0
H457 H 0.67948 0.70441 0.48137 0.0
H458 H 0.70189 0.61119 0.50578 0.0
H459 H 0.64397 0.58912 0.53802 0.0
C460 C 0.79875 0.69132 0.46437 0.0
C461 C 0.79668 0.70378 0.43398 0.0
C462 C 0.76556 0.6756 0.48242 0.0
C463 C 0.72972 0.67271 0.4707 0.0
C464 C 0.72753 0.6843 0.44 0.0
C465 C 0.76058 0.69939 0.42175 0.0
C466 C 0.63938 0.66702 0.51251 0.0
C467 C 0.62849 0.63432 0.52867 0.0
C468 C 0.67204 0.67923 0.49365 0.0
C469 C 0.69504 0.65938 0.49086 0.0
C470 C 0.68473 0.62707 0.50753 0.0
C471 C 0.65157 0.61446 0.52596 0.0
H472 H 0.3219 0.43942 0.13678 0.0
H473 H 0.27151 0.38691 0.22301 0.0
H474 H 0.26482 0.45112 0.12592 0.0
H475 H 0.21418 0.39857 0.21205 0.0
H476 H 0.10294 0.39454 0.1624 0.0
H477 H 0.15911 0.38153 0.17526 0.0
H478 H 0.2335 0.48868 0.14681 0.0
H479 H 0.1777 0.50159 0.13403 0.0
C480 C 0.29877 0.43066 0.15357 0.0
C481 C 0.30137 0.41244 0.18085 0.0
C482 C 0.26603 0.43733 0.14733 0.0
C483 C 0.23506 0.42595 0.16822 0.0
C484 C 0.2374 0.40735 0.19534 0.0
C485 C 0.27024 0.40069 0.20161 0.0
C486 C 0.13132 0.41536 0.15919 0.0
C487 C 0.1359 0.44892 0.14684 0.0
C488 C 0.16346 0.40793 0.16655 0.0
C489 C 0.20075 0.43396 0.16173 0.0
C490 C 0.20519 0.46778 0.15012 0.0
C491 C 0.1732 0.47517 0.14279 0.0
H492 H 0.59263 0.3522 0.93872 0.0
H493 H 0.69172 0.33348 0.90895 0.0
H494 H 0.56827 0.29456 0.96548 0.0
H495 H 0.66708 0.27537 0.93512 0.0
H496 H 0.6359 0.19622 1.01752 0.0
H497 H 0.65866 0.251 0.98639 0.0
H498 H 0.5416 0.23121 0.96062 0.0
H499 H 0.51894 0.17729 0.99248 0.0
C500 C 0.60876 0.33536 0.93723 0.0
C501 C 0.64414 0.34751 0.92169 0.0
C502 C 0.59483 0.30221 0.95266 0.0
C503 C 0.61577 0.28017 0.95278 0.0
C504 C 0.65049 0.29182 0.93619 0.0
C505 C 0.66452 0.32506 0.92096 0.0
C506 C 0.61506 0.20349 1.00509 0.0
C507 C 0.57558 0.1824 1.00771 0.0
C508 C 0.62811 0.23486 0.98703 0.0
C509 C 0.60203 0.24583 0.97093 0.0
C510 C 0.56259 0.22418 0.97308 0.0
C511 C 0.54957 0.19302 0.99127 0.0
H512 H 0.91502 0.84803 0.3911 0.0
H513 H 0.92495 0.7889 0.47216 0.0
H514 H 0.94639 0.90453 0.42024 0.0
H515 H 0.95641 0.84515 0.50119 0.0
H516 H 0.95674 0.94303 0.55532 0.0
H517 H 0.93453 0.88852 0.52358 0.0
H518 H 1.00439 0.94747 0.44679 0.0
H519 H 0.02646 1.00261 0.47865 0.0
C520 C 0.92482 0.84712 0.41485 0.0
C521 C 0.91716 0.81385 0.42935 0.0
C522 C 0.94272 0.87955 0.43163 0.0
C523 C 0.95337 0.87948 0.46332 0.0
C524 C 0.94777 0.84628 0.47711 0.0
C525 C 0.92992 0.81398 0.4604 0.0
C526 C 0.96753 0.94456 0.5317 0.0
C527 C 0.99344 0.97742 0.51963 0.0
C528 C 0.95497 0.91307 0.5135 0.0
C529 C 0.96784 0.91336 0.4826 0.0
C530 C 0.9937 0.94623 0.47041 0.0
C531 C 0.00647 0.97784 0.48874 0.0
H532 H 0.25288 0.78825 0.67237 0.0
H533 H 0.26773 0.74197 0.75985 0.0
H534 H 0.30488 0.7751 0.6495 0.0
H535 H 0.31934 0.72851 0.73703 0.0
H536 H 0.43864 0.75104 0.70073 0.0
H537 H 0.38487 0.763 0.72085 0.0
H538 H 0.32407 0.72681 0.63301 0.0
H539 H 0.3786 0.71622 0.6124 0.0
C540 C 0.26675 0.77461 0.68648 0.0
C541 C 0.25646 0.76633 0.71793 0.0
C542 C 0.29658 0.76716 0.67344 0.0
C543 C 0.3166 0.75122 0.6916 0.0
C544 C 0.30513 0.7416 0.72265 0.0
C545 C 0.27544 0.74911 0.73566 0.0
C546 C 0.41408 0.74619 0.68552 0.0
C547 C 0.41289 0.73263 0.65498 0.0
C548 C 0.38302 0.75254 0.6972 0.0
C549 C 0.34999 0.74545 0.67865 0.0
C550 C 0.34912 0.73265 0.64786 0.0
C551 C 0.38022 0.72629 0.63616 0.0
H552 H 0.75764 0.8039 0.83052 0.0
H553 H 0.72473 0.88896 0.86275 0.0
H554 H 0.78361 0.83735 0.78311 0.0
H555 H 0.74856 0.92149 0.81431 0.0
H556 H 0.84582 0.99101 0.75013 0.0
H557 H 0.81043 0.95494 0.79373 0.0
H558 H 0.77229 0.85992 0.73455 0.0
H559 H 0.80884 0.89622 0.69105 0.0
C560 C 0.75547 0.82956 0.82727 0.0
C561 C 0.73975 0.84406 0.8507 0.0
C562 C 0.76992 0.84855 0.79984 0.0
C563 C 0.76861 0.88236 0.79499 0.0
C564 C 0.75076 0.89586 0.81758 0.0
C565 C 0.7366 0.87698 0.84518 0.0
C566 C 0.82954 0.96247 0.74638 0.0
C567 C 0.83007 0.94638 0.71725 0.0
C568 C 0.80903 0.94178 0.77132 0.0
C569 C 0.78826 0.90449 0.76767 0.0
C570 C 0.78834 0.88848 0.73831 0.0
C571 C 0.80923 0.9092 0.71339 0.0
H572 H 0.7877 0.29366 0.38244 0.0
H573 H 0.78709 0.18715 0.39117 0.0
H574 H 0.74997 0.27505 0.33396 0.0
H575 H 0.75086 0.16902 0.3424 0.0
H576 H 0.65802 0.13621 0.26874 0.0
H577 H 0.68827 0.1566 0.31982 0.0
H578 H 0.75922 0.25932 0.28016 0.0
H579 H 0.72869 0.23898 0.22915 0.0
C580 C 0.77942 0.26629 0.37404 0.0
C581 C 0.79067 0.24198 0.39045 0.0
C582 C 0.75811 0.25571 0.34618 0.0
C583 C 0.74745 0.22056 0.3343 0.0
C584 C 0.75819 0.19616 0.35106 0.0
C585 C 0.77945 0.20671 0.3788 0.0
C586 C 0.68 0.16318 0.27099 0.0
C587 C 0.69118 0.18589 0.2449 0.0
C588 C 0.69735 0.17486 0.30022 0.0
C589 C 0.72641 0.20948 0.304 0.0
C590 C 0.73665 0.23264 0.27813 0.0
C591 C 0.71919 0.22098 0.2489 0.0
H592 H 0.38778 0.68153 0.3602 0.0
H593 H 0.50973 0.71812 0.34539 0.0
H594 H 0.39611 0.6611 0.41304 0.0
H595 H 0.51779 0.69733 0.39733 0.0
H596 H 0.5047 0.60305 0.46177 0.0
H597 H 0.49165 0.62984 0.41467 0.0
H598 H 0.43503 0.68385 0.46953 0.0
H599 H 0.44872 0.65724 0.51752 0.0
C600 C 0.41639 0.68607 0.36848 0.0
C601 C 0.44801 0.70099 0.34839 0.0
C602 C 0.42114 0.67425 0.39865 0.0
C603 C 0.45753 0.677 0.40908 0.0
C604 C 0.48932 0.69425 0.38979 0.0
C605 C 0.48467 0.70622 0.36002 0.0
C606 C 0.48922 0.62039 0.46405 0.0
C607 C 0.47793 0.62799 0.49365 0.0
C608 C 0.4819 0.63592 0.43693 0.0
C609 C 0.46262 0.65922 0.43836 0.0
C610 C 0.44996 0.66598 0.46771 0.0
C611 C 0.45788 0.6508 0.49515 0.0
H612 H 0.10157 0.45443 0.85385 0.0
H613 H 0.20533 0.48329 0.90894 0.0
H614 H 0.07802 0.48765 0.89087 0.0
H615 H 0.18211 0.51622 0.94566 0.0
H616 H 0.1064 0.52317 0.02666 0.0
H617 H 0.13219 0.49762 0.98541 0.0
H618 H 0.08667 0.5469 0.91532 0.0
H619 H 0.06055 0.57253 0.95681 0.0
C620 C 0.11979 0.46865 0.87333 0.0
C621 C 0.15521 0.46591 0.87852 0.0
C622 C 0.10623 0.48757 0.8947 0.0
C623 C 0.12777 0.50405 0.92175 0.0
C624 C 0.16423 0.50316 0.92564 0.0
C625 C 0.17772 0.48448 0.90439 0.0
C626 C 0.10193 0.52878 1.00251 0.0
C627 C 0.08139 0.55011 0.99525 0.0
C628 C 0.11698 0.51424 0.97874 0.0
C629 C 0.11179 0.52027 0.94686 0.0
C630 C 0.09112 0.5415 0.93953 0.0
C631 C 0.07635 0.55641 0.96339 0.0
H632 H 0.6105 0.88646 0.92386 0.0
H633 H 0.60285 0.86176 1.02251 0.0
H634 H 0.59951 0.94129 0.93537 0.0
H635 H 0.59239 0.91631 0.03393 0.0
H636 H 0.62153 0.03488 0.04613 0.0
H637 H 0.63579 0.9848 0.02743 0.0
H638 H 0.54175 0.95576 0.96122 0.0
H639 H 0.5267 1.00598 0.98021 0.0
C640 C 0.60656 0.89283 0.94793 0.0
C641 C 0.6074 0.86992 0.97232 0.0
C642 C 0.60011 0.92398 0.95445 0.0
C643 C 0.59532 0.933 0.98552 0.0
C644 C 0.59631 0.91009 1.0098 0.0
C645 C 0.60204 0.8788 1.00326 0.0
C646 C 0.60405 0.01829 0.02727 0.0
C647 C 0.57257 0.02429 1.01498 0.0
C648 C 0.61227 0.98952 1.01664 0.0
C649 C 0.58958 0.96624 0.99321 0.0
C650 C 0.55968 0.97342 0.97933 0.0
C651 C 0.5511 1.00213 0.99024 0.0
H652 H 0.92262 0.24296 0.41786 0.0
H653 H 0.8644 0.21508 0.50662 0.0
H654 H 0.95985 0.20688 0.43127 0.0
H655 H 0.90108 0.1795 0.51965 0.0
H656 H 0.92902 0.08244 0.51304 0.0
H657 H 0.89924 0.11961 0.48936 0.0
H658 H 0.01001 0.20739 0.48175 0.0
H659 H 0.04039 0.17024 0.5059 0.0
C660 C 0.91811 0.22947 0.44024 0.0
C661 C 0.89086 0.23198 0.4613 0.0
C662 C 0.93935 0.20901 0.44787 0.0
C663 C 0.93288 0.19032 0.47629 0.0
C664 C 0.90628 0.19349 0.49747 0.0
C665 C 0.8856 0.21415 0.49013 0.0
C666 C 0.9473 0.1094 0.50586 0.0
C667 C 0.98701 0.12363 0.51197 0.0
C668 C 0.93018 0.13059 0.49224 0.0
C669 C 0.95239 0.16633 0.4842 0.0
C670 C 0.99243 0.17981 0.48779 0.0
C671 C 0.00969 0.15857 0.50166 0.0
H672 H 0.28471 0.7679 0.20822 0.0
H673 H 0.31565 0.67624 0.20107 0.0
H674 H 0.22755 0.73634 0.17625 0.0
H675 H 0.25784 0.64438 0.16971 0.0
H676 H 0.12862 0.58879 0.14093 0.0
H677 H 0.18613 0.61831 0.17308 0.0
H678 H 0.21352 0.71588 0.12025 0.0
H679 H 0.15581 0.68636 0.088 0.0
C680 C 0.27927 0.74094 0.19999 0.0
C681 C 0.30508 0.72479 0.20716 0.0
C682 C 0.24653 0.72291 0.18156 0.0
C683 C 0.2384 0.68804 0.17006 0.0
C684 C 0.26323 0.6712 0.17828 0.0
C685 C 0.29625 0.6894 0.1965 0.0
C686 C 0.14701 0.61649 0.13598 0.0
C687 C 0.13749 0.63526 0.1119 0.0
C688 C 0.18008 0.63334 0.15437 0.0
C689 C 0.20425 0.66952 0.14943 0.0
C690 C 0.19519 0.6881 0.12494 0.0
C691 C 0.16231 0.6711 0.10626 0.0
H692 H 0.26208 0.40245 0.69641 0.0
H693 H 0.24509 0.4986 0.72118 0.0
H694 H 0.31661 0.43753 0.6645 0.0
H695 H 0.30025 0.53422 0.68875 0.0
H696 H 0.42692 0.58673 0.65342 0.0
H697 H 0.36998 0.55528 0.68465 0.0
H698 H 0.33067 0.4695 0.61579 0.0
H699 H 0.38805 0.50053 0.58488 0.0
C700 C 0.26981 0.43118 0.6948 0.0
C701 C 0.24869 0.4476 0.71095 0.0
C702 C 0.30111 0.45133 0.67634 0.0
C703 C 0.31254 0.48869 0.67342 0.0
C704 C 0.29227 0.50548 0.6904 0.0
C705 C 0.2607 0.48514 0.70901 0.0
C706 C 0.40604 0.56125 0.64477 0.0
C707 C 0.41242 0.54602 0.61669 0.0
C708 C 0.37318 0.5433 0.66267 0.0
C709 C 0.34581 0.50959 0.65303 0.0
C710 C 0.35148 0.49507 0.62432 0.0
C711 C 0.38432 0.51301 0.60641 0.0
H712 H 0.77122 0.74795 0.89928 0.0
H713 H 0.7821 0.81281 0.98227 0.0
H714 H 0.82034 0.72873 0.9198 0.0
H715 H 0.83165 0.79374 1.00283 0.0
H716 H 0.95372 0.78787 1.00063 0.0
H717 H 0.9006 0.8044 0.98484 0.0
H718 H 0.82991 0.69269 0.96572 0.0
H719 H 0.88282 0.6762 0.98145 0.0
C720 C 0.78393 0.75777 0.92207 0.0
C721 C 0.77297 0.78178 0.93925 0.0
C722 C 0.81189 0.74671 0.93384 0.0
C723 C 0.82983 0.75987 0.96283 0.0
C724 C 0.8184 0.78342 0.98031 0.0
C725 C 0.78992 0.79405 0.96873 0.0
C726 C 0.92678 0.76693 0.99309 0.0
C727 C 0.92234 0.73079 0.99224 0.0
C728 C 0.89635 0.77632 0.98435 0.0
C729 C 0.8612 0.74978 0.97413 0.0
C730 C 0.85676 0.71366 0.97341 0.0
C731 C 0.88693 0.70424 0.98256 0.0
H732 H 0.42364 0.81274 0.16441 0.0
H733 H 0.42724 0.86929 0.251 0.0
H734 H 0.45171 0.86972 0.13686 0.0
H735 H 0.45453 0.92695 0.22328 0.0
H736 H 0.52963 0.02563 0.16342 0.0
H737 H 0.50859 0.97036 0.19423 0.0
H738 H 0.4289 0.91389 0.12026 0.0
H739 H 0.45028 0.96836 0.08946 0.0
C740 C 0.43094 0.83758 0.17757 0.0
C741 C 0.42333 0.83672 0.20975 0.0
C742 C 0.44663 0.87026 0.16177 0.0
C743 C 0.45473 0.90307 0.17765 0.0
C744 C 0.44877 0.90228 0.21028 0.0
C745 C 0.4332 0.86934 0.2262 0.0
C746 C 0.50756 1.0014 0.1538 0.0
C747 C 0.49187 1.00152 0.12381 0.0
C748 C 0.49541 0.96971 0.17153 0.0
C749 C 0.46736 0.93741 0.15964 0.0
C750 C 0.45122 0.93791 0.12994 0.0
C751 C 0.46334 0.96938 0.1123 0.0
H752 H 0.1209 0.3503 0.67614 0.0
H753 H 0.15151 0.30082 0.7552 0.0
H754 H 0.09402 0.29203 0.64909 0.0
H755 H 0.12484 0.24239 0.72804 0.0
H756 H 0.1219 0.16014 0.64847 0.0
H757 H 0.14342 0.21597 0.67936 0.0
H758 H 0.04038 0.23038 0.6531 0.0
H759 H 0.01871 0.17461 0.62254 0.0
C760 C 0.12129 0.3268 0.68792 0.0
C761 C 0.13807 0.3301 0.71788 0.0
C762 C 0.1059 0.29342 0.67245 0.0
C763 C 0.10748 0.26256 0.68632 0.0
C764 C 0.12347 0.26569 0.71661 0.0
C765 C 0.13831 0.29903 0.73232 0.0
C766 C 0.10378 0.17514 0.64939 0.0
C767 C 0.06859 0.16284 0.63295 0.0
C768 C 0.11599 0.20702 0.66726 0.0
C769 C 0.0936 0.22765 0.66872 0.0
C770 C 0.05842 0.21528 0.65233 0.0
C771 C 0.04595 0.18319 0.63489 0.0
H772 H 0.78955 0.39995 0.54656 0.0
H773 H 0.72161 0.32215 0.47739 0.0
H774 H 0.74478 0.42963 0.5441 0.0
H775 H 0.67653 0.35158 0.47515 0.0
H776 H 0.61527 0.42932 0.4665 0.0
H777 H 0.6656 0.40606 0.46202 0.0
H778 H 0.67921 0.41118 0.56277 0.0
H779 H 0.62922 0.43422 0.56721 0.0
C780 C 0.76524 0.38946 0.53059 0.0
C781 C 0.75879 0.35854 0.51244 0.0
C782 C 0.73955 0.40634 0.52926 0.0
C783 C 0.70677 0.39254 0.50985 0.0
C784 C 0.7016 0.36294 0.49023 0.0
C785 C 0.72742 0.34611 0.49149 0.0
C786 C 0.62889 0.42521 0.48765 0.0
C787 C 0.61844 0.43377 0.5172 0.0
C788 C 0.65776 0.41203 0.48508 0.0
C789 C 0.67669 0.40722 0.51201 0.0
C790 C 0.66588 0.41545 0.54151 0.0
C791 C 0.63712 0.42854 0.54407 0.0
loop_
_geom_bond_atom_site_label_1
_geom_bond_atom_site_label_2
_geom_bond_distance
_geom_bond_site_symmetry_2
_ccdc_geom_bond_type
H0 C1 0.949 . S
C1 H0 0.949 . S
C1 C2 1.395 . S
C1 C3 1.391 . S
C2 C1 1.395 . S
C2 C5 1.390 . S
C3 C1 1.391 . S
C3 C7 1.387 . S
C3 C8 1.491 . S
H4 C5 0.950 . S
C5 C2 1.390 . S
C5 H4 0.950 . S
C5 C6 1.378 . S
C6 C5 1.378 . S
C6 C7 1.409 . S
C7 C3 1.387 . S
C7 C6 1.409 . S
C7 H9 0.951 . S
C8 C3 1.491 . S
C8 C10 1.382 . S
C8 C12 1.404 . S
H9 C7 0.951 . S
C10 C8 1.382 . S
C10 C11 1.390 . S
C10 H15 0.949 . S
C11 C10 1.390 . S
C11 C16 1.399 . S
C12 C8 1.404 . S
C12 H13 0.950 . S
C12 C14 1.375 . S
H13 C12 0.950 . S
C14 C12 1.375 . S
C14 C16 1.382 . S
C14 H18 0.950 . S
H15 C10 0.949 . S
C16 C11 1.399 . S
C16 C14 1.382 . S
C16 H17 0.952 . S
H17 C16 0.952 . S
H18 C14 0.950 . S
H19 C20 0.949 . S
C20 H19 0.949 . S
C20 C21 1.395 . S
C20 C22 1.391 . S
C21 C20 1.395 . S
C21 C24 1.390 . S
C22 C20 1.391 . S
C22 C26 1.387 . S
C22 C27 1.491 . S
H23 C24 0.950 . S
C24 C21 1.390 . S
C24 H23 0.950 . S
C24 C25 1.378 . S
C25 C24 1.378 . S
C25 C26 1.409 . S
C26 C22 1.387 . S
C26 C25 1.409 . S
C26 H28 0.951 . S
C27 C22 1.491 . S
C27 C29 1.382 . S
C27 C31 1.404 . S
H28 C26 0.951 . S
C29 C27 1.382 . S
C29 C30 1.390 . S
C29 H34 0.949 . S
C30 C29 1.390 . S
C30 C35 1.399 . S
C31 C27 1.404 . S
C31 H32 0.950 . S
C31 C33 1.375 . S
H32 C31 0.950 . S
C33 C31 1.375 . S
C33 C35 1.382 . S
C33 H37 0.950 . S
H34 C29 0.949 . S
C35 C30 1.399 . S
C35 C33 1.382 . S
C35 H36 0.952 . S
H36 C35 0.952 . S
H37 C33 0.950 . S
H38 C39 0.949 . S
C39 H38 0.949 . S
C39 C40 1.395 . S
C39 C41 1.391 . S
C40 C39 1.395 . S
C40 C43 1.390 . S
C41 C39 1.391 . S
C41 C45 1.387 . S
C41 C46 1.491 . S
H42 C43 0.950 . S
C43 C40 1.390 . S
C43 H42 0.950 . S
C43 C44 1.378 . S
C44 C43 1.378 . S
C44 C45 1.409 . S
C45 C41 1.387 . S
C45 C44 1.409 . S
C45 H47 0.951 . S
C46 C41 1.491 . S
C46 C48 1.382 . S
C46 C50 1.404 . S
H47 C45 0.951 . S
C48 C46 1.382 . S
C48 C49 1.390 . S
C48 H53 0.949 . S
C49 C48 1.390 . S
C49 C54 1.399 . S
C50 C46 1.404 . S
C50 H51 0.950 . S
C50 C52 1.375 . S
H51 C50 0.950 . S
C52 C50 1.375 . S
C52 C54 1.382 . S
C52 H56 0.950 . S
H53 C48 0.949 . S
C54 C49 1.399 . S
C54 C52 1.382 . S
C54 H55 0.952 . S
H55 C54 0.952 . S
H56 C52 0.950 . S
H57 C58 0.949 . S
C58 H57 0.949 . S
C58 C59 1.395 . S
C58 C60 1.391 . S
C59 C58 1.395 . S
C59 C62 1.390 . S
C60 C58 1.391 . S
C60 C64 1.387 . S
C60 C65 1.491 . S
H61 C62 0.950 . S
C62 C59 1.390 . S
C62 H61 0.950 . S
C62 C63 1.378 . S
C63 C62 1.378 . S
C63 C64 1.409 . S
C64 C60 1.387 . S
C64 C63 1.409 . S
C64 H66 0.951 . S
C65 C60 1.491 . S
C65 C67 1.382 . S
C65 C69 1.404 . S
H66 C64 0.951 . S
C67 C65 1.382 . S
C67 C68 1.390 . S
C67 H72 0.949 . S
C68 C67 1.390 . S
C68 C73 1.399 . S
C69 C65 1.404 . S
C69 H70 0.950 . S
C69 C71 1.375 . S
H70 C69 0.950 . S
C71 C69 1.375 . S
C71 C73 1.382 . S
C71 H75 0.950 . S
H72 C67 0.949 . S
C73 C68 1.399 . S
C73 C71 1.382 . S
C73 H74 0.952 . S
H74 C73 0.952 . S
H75 C71 0.950 . S
H76 C77 0.949 . S
C77 H76 0.949 . S
C77 C78 1.395 . S
C77 C79 1.391 . S
C78 C77 1.395 . S
C78 C81 1.390 . S
C79 C77 1.391 . S
C79 C83 1.387 . S
C79 C84 1.491 . S
H80 C81 0.950 . S
C81 C78 1.390 . S
C81 H80 0.950 . S
C81 C82 1.378 . S
C82 C81 1.378 . S
C82 C83 1.409 . S
C83 C79 1.387 . S
C83 C82 1.409 . S
C83 H85 0.951 . S
C84 C79 1.491 . S
C84 C86 1.382 . S
C84 C88 1.404 . S
H85 C83 0.951 . S
C86 C84 1.382 . S
C86 C87 1.390 . S
C86 H91 0.949 . S
C87 C86 1.390 . S
C87 C92 1.399 . S
C88 C84 1.404 . S
C88 H89 0.950 . S
C88 C90 1.375 . S
H89 C88 0.950 . S
C90 C88 1.375 . S
C90 C92 1.382 . S
C90 H94 0.950 . S
H91 C86 0.949 . S
C92 C87 1.399 . S
C92 C90 1.382 . S
C92 H93 0.952 . S
H93 C92 0.952 . S
H94 C90 0.950 . S
H95 C96 0.949 . S
C96 H95 0.949 . S
C96 C97 1.395 . S
C96 C98 1.391 . S
C97 C96 1.395 . S
C97 C100 1.390 . S
C98 C96 1.391 . S
C98 C102 1.387 . S
C98 C103 1.491 . S
H99 C100 0.950 . S
C100 C97 1.390 . S
C100 H99 0.950 . S
C100 C101 1.378 . S
C101 C100 1.378 . S
C101 C102 1.409 . S
C102 C98 1.387 . S
C102 C101 1.409 . S
C102 H104 0.951 . S
C103 C98 1.491 . S
C103 C105 1.382 . S
C103 C107 1.404 . S
H104 C102 0.951 . S
C105 C103 1.382 . S
C105 C106 1.390 . S
C105 H110 0.949 . S
C106 C105 1.390 . S
C106 C111 1.399 . S
C107 C103 1.404 . S
C107 H108 0.950 . S
C107 C109 1.375 . S
H108 C107 0.950 . S
C109 C107 1.375 . S
C109 C111 1.382 . S
C109 H113 0.950 . S
H110 C105 0.949 . S
C111 C106 1.399 . S
C111 C109 1.382 . S
C111 H112 0.952 . S
H112 C111 0.952 . S
H113 C109 0.950 . S
H114 C115 0.949 . S
C115 H114 0.949 . S
C115 C116 1.395 . S
C115 C117 1.391 . S
C116 C115 1.395 . S
C116 C119 1.390 . S
C117 C115 1.391 . S
C117 C121 1.387 . S
C117 C122 1.491 . S
H118 C119 0.950 . S
C119 C116 1.390 . S
C119 H118 0.950 . S
C119 C120 1.378 . S
C120 C119 1.378 . S
C120 C121 1.409 . S
C121 C117 1.387 . S
C121 C120 1.409 . S
C121 H123 0.951 . S
C122 C117 1.491 . S
C122 C124 1.382 . S
C122 C126 1.404 . S
H123 C121 0.951 . S
C124 C122 1.382 . S
C124 C125 1.390 . S
C124 H129 0.949 . S
C125 C124 1.390 . S
C125 C130 1.399 . S
C126 C122 1.404 . S
C126 H127 0.950 . S
C126 C128 1.375 . S
H127 C126 0.950 . S
C128 C126 1.375 . S
C128 C130 1.382 . S
C128 H132 0.950 . S
H129 C124 0.949 . S
C130 C125 1.399 . S
C130 C128 1.382 . S
C130 H131 0.952 . S
H131 C130 0.952 . S
H132 C128 0.950 . S
H133 C134 0.949 . S
C134 H133 0.949 . S
C134 C135 1.395 . S
C134 C136 1.391 . S
C135 C134 1.395 . S
C135 C138 1.390 . S
C136 C134 1.391 . S
C136 C140 1.387 . S
C136 C141 1.491 . S
H137 C138 0.950 . S
C138 C135 1.390 . S
C138 H137 0.950 . S
C138 C139 1.378 . S
C139 C138 1.378 . S
C139 C140 1.409 . S
C140 C136 1.387 . S
C140 C139 1.409 . S
C140 H142 0.951 . S
C141 C136 1.491 . S
C141 C143 1.382 . S
C141 C145 1.404 . S
H142 C140 0.951 . S
C143 C141 1.382 . S
C143 C144 1.390 . S
C143 H148 0.949 . S
C144 C143 1.390 . S
C144 C149 1.399 . S
C145 C141 1.404 . S
C145 H146 0.950 . S
C145 C147 1.375 . S
H146 C145 0.950 . S
C147 C145 1.375 . S
C147 C149 1.382 . S
C147 H151 0.950 . S
H148 C143 0.949 . S
C149 C144 1.399 . S
C149 C147 1.382 . S
C149 H150 0.952 . S
H150 C149 0.952 . S
H151 C147 0.950 . S
Dy152 O155 2.307 . S
Dy152 O157 2.395 . S
Dy152 O158 2.379 . S
Dy152 O160 2.339 1_545 S
Dy152 O162 2.298 . S
Dy152 O166 2.275 . S
Dy152 C174 2.738 . S
Dy153 O156 2.298 1_655 S
Dy153 O159 2.275 . S
Dy153 O161 2.307 . S
Dy153 O163 2.395 1_545 S
Dy153 O164 2.379 . S
Dy153 O167 2.339 1_655 S
Dy153 C183 2.738 1_545 S
C154 O166 1.254 . S
C154 O167 1.257 . S
O155 Dy152 2.307 . S
O155 C165 1.266 1_545 S
O156 Dy153 2.298 1_455 S
O156 C165 1.236 1_545 S
O157 Dy152 2.395 . S
O157 C174 1.255 . S
O158 Dy152 2.379 . S
O158 C174 1.249 . S
O159 Dy153 2.275 . S
O159 C175 1.254 1_545 S
O160 Dy152 2.339 1_565 S
O160 C175 1.257 1_455 S
O161 Dy153 2.307 . S
O161 C176 1.266 . S
O162 Dy152 2.298 . S
O162 C176 1.236 1_455 S
O163 Dy153 2.395 1_565 S
O163 C183 1.255 . S
O164 Dy153 2.379 . S
O164 C183 1.249 1_545 S
C165 O155 1.266 1_565 S
C165 O156 1.236 1_565 S
O166 Dy152 2.275 . S
O166 C154 1.254 . S
O167 Dy153 2.339 1_455 S
O167 C154 1.257 . S
C168 C171 1.344 . S
C168 C172 1.328 . S
C168 C174 1.516 . S
C169 C170 1.304 . S
C169 C173 1.323 . S
C170 C169 1.304 . S
C170 C171 1.371 . S
C170 H184 0.930 . S
C171 C168 1.344 . S
C171 C170 1.371 . S
C171 H185 0.931 . S
C172 C168 1.328 . S
C172 C173 1.433 . S
C172 H186 0.931 . S
C173 C169 1.323 . S
C173 C172 1.433 . S
C173 H187 0.933 . S
C174 Dy152 2.738 . S
C174 O157 1.255 . S
C174 O158 1.249 . S
C174 C168 1.516 . S
C175 O159 1.254 1_565 S
C175 O160 1.257 1_655 S
C176 O161 1.266 . S
C176 O162 1.236 1_655 S
C177 C180 1.344 . S
C177 C181 1.328 . S
C177 C183 1.516 . S
C178 C179 1.304 . S
C178 C182 1.323 . S
C179 C178 1.304 . S
C179 C180 1.371 . S
C179 H188 0.930 . S
C180 C177 1.344 . S
C180 C179 1.371 . S
C180 H189 0.931 . S
C181 C177 1.328 . S
C181 C182 1.433 . S
C181 H190 0.931 . S
C182 C178 1.323 . S
C182 C181 1.433 . S
C182 H191 0.933 . S
C183 Dy153 2.738 1_565 S
C183 O163 1.255 . S
C183 O164 1.249 1_565 S
C183 C177 1.516 . S
H184 C170 0.930 . S
H185 C171 0.931 . S
H186 C172 0.931 . S
H187 C173 0.933 . S
H188 C179 0.930 . S
H189 C180 0.931 . S
H190 C181 0.931 . S
H191 C182 0.933 . S
Dy192 O195 2.307 . S
Dy192 O197 2.395 1_545 S
Dy192 O198 2.379 1_554 S
Dy192 O200 2.339 . S
Dy192 O202 2.298 . S
Dy192 O206 2.275 1_545 S
Dy192 C214 2.738 1_545 S
Dy193 O196 2.298 . S
Dy193 O199 2.275 . S
Dy193 O201 2.307 . S
Dy193 O203 2.395 . S
Dy193 O204 2.379 . S
Dy193 O207 2.339 1_545 S
Dy193 C223 2.738 . S
C194 O206 1.254 . S
C194 O207 1.257 . S
O195 Dy192 2.307 . S
O195 C205 1.266 . S
O196 Dy193 2.298 . S
O196 C205 1.236 . S
O197 Dy192 2.395 1_565 S
O197 C214 1.255 . S
O198 Dy192 2.379 1_556 S
O198 C214 1.249 1_546 S
O199 Dy193 2.275 . S
O199 C215 1.254 . S
O200 Dy192 2.339 . S
O200 C215 1.257 . S
O201 Dy193 2.307 . S
O201 C216 1.266 1_545 S
O202 Dy192 2.298 . S
O202 C216 1.236 1_545 S
O203 Dy193 2.395 . S
O203 C223 1.255 . S
O204 Dy193 2.379 . S
O204 C223 1.249 . S
C205 O195 1.266 . S
C205 O196 1.236 . S
O206 Dy192 2.275 1_565 S
O206 C194 1.254 . S
O207 Dy193 2.339 1_565 S
O207 C194 1.257 . S
C208 C211 1.344 . S
C208 C212 1.328 . S
C208 C214 1.516 1_556 S
C209 C210 1.304 . S
C209 C213 1.323 . S
C210 C209 1.304 . S
C210 C211 1.371 . S
C210 H224 0.930 . S
C211 C208 1.344 . S
C211 C210 1.371 . S
C211 H225 0.931 . S
C212 C208 1.328 . S
C212 C213 1.433 . S
C212 H226 0.931 . S
C213 C209 1.323 . S
C213 C212 1.433 . S
C213 H227 0.933 . S
C214 Dy192 2.738 1_565 S
C214 O197 1.255 . S
C214 O198 1.249 1_564 S
C214 C208 1.516 1_554 S
C215 O199 1.254 . S
C215 O200 1.257 . S
C216 O201 1.266 1_565 S
C216 O202 1.236 1_565 S
C217 C220 1.344 . S
C217 C221 1.328 . S
C217 C223 1.516 . S
C218 C219 1.304 . S
C218 C222 1.323 . S
C219 C218 1.304 . S
C219 C220 1.371 . S
C219 H228 0.930 . S
C220 C217 1.344 . S
C220 C219 1.371 . S
C220 H229 0.931 . S
C221 C217 1.328 . S
C221 C222 1.433 . S
C221 H230 0.931 . S
C222 C218 1.323 . S
C222 C221 1.433 . S
C222 H231 0.933 . S
C223 Dy193 2.738 . S
C223 O203 1.255 . S
C223 O204 1.249 . S
C223 C217 1.516 . S
H224 C210 0.930 . S
H225 C211 0.931 . S
H226 C212 0.931 . S
H227 C213 0.933 . S
H228 C219 0.930 . S
H229 C220 0.931 . S
H230 C221 0.931 . S
H231 C222 0.933 . S
Dy232 O235 2.307 . S
Dy232 O237 2.395 . S
Dy232 O238 2.379 . S
Dy232 O240 2.339 . S
Dy232 O242 2.298 . S
Dy232 O246 2.275 . S
Dy232 C254 2.738 . S
Dy233 O236 2.298 . S
Dy233 O239 2.275 . S
Dy233 O241 2.307 . S
Dy233 O243 2.395 . S
Dy233 O244 2.379 . S
Dy233 O247 2.339 . S
Dy233 C263 2.738 . S
C234 O246 1.254 . S
C234 O247 1.257 . S
O235 Dy232 2.307 . S
O235 C245 1.266 . S
O236 Dy233 2.298 . S
O236 C245 1.236 . S
O237 Dy232 2.395 . S
O237 C254 1.255 . S
O238 Dy232 2.379 . S
O238 C254 1.249 . S
O239 Dy233 2.275 . S
O239 C255 1.254 . S
O240 Dy232 2.339 . S
O240 C255 1.257 . S
O241 Dy233 2.307 . S
O241 C256 1.266 . S
O242 Dy232 2.298 . S
O242 C256 1.236 . S
O243 Dy233 2.395 . S
O243 C263 1.255 . S
O244 Dy233 2.379 . S
O244 C263 1.249 . S
C245 O235 1.266 . S
C245 O236 1.236 . S
O246 Dy232 2.275 . S
O246 C234 1.254 . S
O247 Dy233 2.339 . S
O247 C234 1.257 . S
C248 C251 1.344 . S
C248 C252 1.328 . S
C248 C254 1.516 . S
C249 C250 1.304 . S
C249 C253 1.323 . S
C250 C249 1.304 . S
C250 C251 1.371 . S
C250 H264 0.930 . S
C251 C248 1.344 . S
C251 C250 1.371 . S
C251 H265 0.931 . S
C252 C248 1.328 . S
C252 C253 1.433 . S
C252 H266 0.931 . S
C253 C249 1.323 . S
C253 C252 1.433 . S
C253 H267 0.933 . S
C254 Dy232 2.738 . S
C254 O237 1.255 . S
C254 O238 1.249 . S
C254 C248 1.516 . S
C255 O239 1.254 . S
C255 O240 1.257 . S
C256 O241 1.266 . S
C256 O242 1.236 . S
C257 C260 1.344 . S
C257 C261 1.328 . S
C257 C263 1.516 . S
C258 C259 1.304 . S
C258 C262 1.323 . S
C259 C258 1.304 . S
C259 C260 1.371 . S
C259 H268 0.930 . S
C260 C257 1.344 . S
C260 C259 1.371 . S
C260 H269 0.931 . S
C261 C257 1.328 . S
C261 C262 1.433 . S
C261 H270 0.931 . S
C262 C258 1.323 . S
C262 C261 1.433 . S
C262 H271 0.933 . S
C263 Dy233 2.738 . S
C263 O243 1.255 . S
C263 O244 1.249 . S
C263 C257 1.516 . S
H264 C250 0.930 . S
H265 C251 0.931 . S
H266 C252 0.931 . S
H267 C253 0.933 . S
H268 C259 0.930 . S
H269 C260 0.931 . S
H270 C261 0.931 . S
H271 C262 0.933 . S
Dy272 O275 2.307 1_556 S
Dy272 O277 2.417 . S
Dy272 O278 2.379 . S
Dy272 O280 2.339 . S
Dy272 O282 2.284 1_455 S
Dy272 O286 2.275 1_556 S
Dy272 C294 2.738 . S
Dy273 O276 2.298 . S
Dy273 O279 2.275 1_554 S
Dy273 O281 2.307 1_455 S
Dy273 O283 2.395 . S
Dy273 O284 2.379 . S
Dy273 O287 2.339 . S
Dy273 C303 2.738 . S
C274 O286 1.254 . S
C274 O287 1.257 . S
O275 Dy272 2.307 1_554 S
O275 C285 1.266 . S
O276 Dy273 2.298 . S
O276 C285 1.236 . S
O277 Dy272 2.417 . S
O277 C294 1.256 . S
O278 Dy272 2.379 . S
O278 C294 1.249 . S
O279 Dy273 2.275 1_556 S
O279 C295 1.254 . S
O280 Dy272 2.339 . S
O280 C295 1.257 . S
O281 Dy273 2.307 1_655 S
O281 C296 1.266 1_554 S
O282 Dy272 2.284 1_655 S
O282 C296 1.242 . S
O283 Dy273 2.395 . S
O283 C303 1.255 . S
O284 Dy273 2.379 . S
O284 C303 1.249 . S
C285 O275 1.266 . S
C285 O276 1.236 . S
O286 Dy272 2.275 1_554 S
O286 C274 1.254 . S
O287 Dy273 2.339 . S
O287 C274 1.257 . S
C288 C291 1.344 . S
C288 C292 1.328 . S
C288 C294 1.516 1_655 S
C289 C290 1.304 . S
C289 C293 1.323 . S
C290 C289 1.304 . S
C290 C291 1.371 . S
C290 H304 0.930 . S
C291 C288 1.344 . S
C291 C290 1.371 . S
C291 H305 0.931 . S
C292 C288 1.328 . S
C292 C293 1.433 . S
C292 H306 0.931 1_655 S
C293 C289 1.323 . S
C293 C292 1.433 . S
C293 H307 0.933 . S
C294 Dy272 2.738 . S
C294 O277 1.256 . S
C294 O278 1.249 . S
C294 C288 1.516 1_455 S
C295 O279 1.254 . S
C295 O280 1.257 . S
C296 O281 1.266 1_556 S
C296 O282 1.242 . S
C297 C300 1.344 . S
C297 C301 1.328 . S
C297 C303 1.516 . S
C298 C299 1.304 . S
C298 C302 1.323 . S
C299 C298 1.304 . S
C299 C300 1.371 . S
C299 H308 0.930 . S
C300 C297 1.344 . S
C300 C299 1.371 . S
C300 H309 0.931 . S
C301 C297 1.328 . S
C301 C302 1.433 . S
C301 H310 0.931 . S
C302 C298 1.323 . S
C302 C301 1.433 . S
C302 H311 0.933 . S
C303 Dy273 2.738 . S
C303 O283 1.255 . S
C303 O284 1.249 . S
C303 C297 1.516 . S
H304 C290 0.930 . S
H305 C291 0.931 . S
H306 C292 0.931 1_455 S
H307 C293 0.933 . S
H308 C299 0.930 . S
H309 C300 0.931 . S
H310 C301 0.931 . S
H311 C302 0.933 . S
H312 C320 0.950 . S
H313 C325 0.950 . S
H314 C322 0.950 . S
H315 C324 0.950 . S
H316 C326 0.950 . S
H317 C328 0.950 . S
H318 C330 0.950 . S
H319 C331 0.950 . S
C320 H312 0.950 . S
C320 C321 1.386 . S
C320 C322 1.391 . S
C321 C320 1.386 . S
C321 C325 1.393 . S
C322 H314 0.950 . S
C322 C320 1.391 . S
C322 C323 1.400 . S
C323 C322 1.400 . S
C323 C324 1.398 . S
C323 C329 1.491 . S
C324 H315 0.950 . S
C324 C323 1.398 . S
C324 C325 1.391 . S
C325 H313 0.950 . S
C325 C321 1.393 . S
C325 C324 1.391 . S
C326 H316 0.950 . S
C326 C327 1.386 . S
C326 C328 1.391 . S
C327 C326 1.386 . S
C327 C331 1.393 . S
C328 H317 0.950 . S
C328 C326 1.391 . S
C328 C329 1.400 . S
C329 C323 1.491 . S
C329 C328 1.400 . S
C329 C330 1.398 . S
C330 H318 0.950 . S
C330 C329 1.398 . S
C330 C331 1.391 . S
C331 H319 0.950 . S
C331 C327 1.393 . S
C331 C330 1.391 . S
H332 C340 0.950 . S
H333 C345 0.950 . S
H334 C342 0.950 . S
H335 C344 0.950 . S
H336 C346 0.950 . S
H337 C348 0.950 . S
H338 C350 0.950 . S
H339 C351 0.950 . S
C340 H332 0.950 . S
C340 C341 1.386 . S
C340 C342 1.391 . S
C341 C340 1.386 . S
C341 C345 1.393 . S
C342 H334 0.950 . S
C342 C340 1.391 . S
C342 C343 1.400 . S
C343 C342 1.400 . S
C343 C344 1.398 . S
C343 C349 1.491 . S
C344 H335 0.950 . S
C344 C343 1.398 . S
C344 C345 1.391 . S
C345 H333 0.950 . S
C345 C341 1.393 . S
C345 C344 1.391 . S
C346 H336 0.950 . S
C346 C347 1.386 . S
C346 C348 1.391 . S
C347 C346 1.386 . S
C347 C351 1.393 . S
C348 H337 0.950 . S
C348 C346 1.391 . S
C348 C349 1.400 . S
C349 C343 1.491 . S
C349 C348 1.400 . S
C349 C350 1.398 . S
C350 H338 0.950 . S
C350 C349 1.398 . S
C350 C351 1.391 . S
C351 H339 0.950 . S
C351 C347 1.393 . S
C351 C350 1.391 . S
H352 C360 0.950 . S
H353 C365 0.950 . S
H354 C362 0.950 . S
H355 C364 0.950 . S
H356 C366 0.950 . S
H357 C368 0.950 . S
H358 C370 0.950 . S
H359 C371 0.950 . S
C360 H352 0.950 . S
C360 C361 1.386 . S
C360 C362 1.391 . S
C361 C360 1.386 . S
C361 C365 1.393 . S
C362 H354 0.950 . S
C362 C360 1.391 . S
C362 C363 1.400 . S
C363 C362 1.400 . S
C363 C364 1.398 . S
C363 C369 1.491 . S
C364 H355 0.950 . S
C364 C363 1.398 . S
C364 C365 1.391 . S
C365 H353 0.950 . S
C365 C361 1.393 . S
C365 C364 1.391 . S
C366 H356 0.950 . S
C366 C367 1.386 . S
C366 C368 1.391 . S
C367 C366 1.386 . S
C367 C371 1.393 . S
C368 H357 0.950 . S
C368 C366 1.391 . S
C368 C369 1.400 . S
C369 C363 1.491 . S
C369 C368 1.400 . S
C369 C370 1.398 . S
C370 H358 0.950 . S
C370 C369 1.398 . S
C370 C371 1.391 . S
C371 H359 0.950 . S
C371 C367 1.393 . S
C371 C370 1.391 . S
H372 C380 0.950 . S
H373 C385 0.950 . S
H374 C382 0.950 . S
H375 C384 0.950 . S
H376 C386 0.950 . S
H377 C388 0.950 . S
H378 C390 0.950 1_455 S
H379 C391 0.950 . S
C380 H372 0.950 . S
C380 C381 1.386 . S
C380 C382 1.391 . S
C381 C380 1.386 . S
C381 C385 1.393 . S
C382 H374 0.950 . S
C382 C380 1.391 . S
C382 C383 1.400 . S
C383 C382 1.400 . S
C383 C384 1.398 . S
C383 C389 1.491 . S
C384 H375 0.950 . S
C384 C383 1.398 . S
C384 C385 1.391 . S
C385 H373 0.950 . S
C385 C381 1.393 . S
C385 C384 1.391 . S
C386 H376 0.950 . S
C386 C387 1.386 . S
C386 C388 1.391 . S
C387 C386 1.386 . S
C387 C391 1.393 1_655 S
C388 H377 0.950 . S
C388 C386 1.391 . S
C388 C389 1.400 . S
C389 C383 1.491 . S
C389 C388 1.400 . S
C389 C390 1.398 . S
C390 H378 0.950 1_655 S
C390 C389 1.398 . S
C390 C391 1.391 1_655 S
C391 H379 0.950 . S
C391 C387 1.393 1_455 S
C391 C390 1.391 1_455 S
H392 C400 0.950 . S
H393 C405 0.950 . S
H394 C402 0.950 . S
H395 C404 0.950 . S
H396 C406 0.950 . S
H397 C408 0.950 . S
H398 C410 0.950 . S
H399 C411 0.950 . S
C400 H392 0.950 . S
C400 C401 1.386 . S
C400 C402 1.391 . S
C401 C400 1.386 . S
C401 C405 1.393 . S
C402 H394 0.950 . S
C402 C400 1.391 . S
C402 C403 1.400 . S
C403 C402 1.400 . S
C403 C404 1.398 . S
C403 C409 1.491 . S
C404 H395 0.950 . S
C404 C403 1.398 . S
C404 C405 1.391 . S
C405 H393 0.950 . S
C405 C401 1.393 . S
C405 C404 1.391 . S
C406 H396 0.950 . S
C406 C407 1.386 . S
C406 C408 1.391 . S
C407 C406 1.386 . S
C407 C411 1.393 . S
C408 H397 0.950 . S
C408 C406 1.391 . S
C408 C409 1.400 . S
C409 C403 1.491 . S
C409 C408 1.400 . S
C409 C410 1.398 . S
C410 H398 0.950 . S
C410 C409 1.398 . S
C410 C411 1.391 . S
C411 H399 0.950 . S
C411 C407 1.393 . S
C411 C410 1.391 . S
H412 C420 0.950 . S
H413 C425 0.950 . S
H414 C422 0.950 . S
H415 C424 0.950 . S
H416 C426 0.950 1_545 S
H417 C428 0.950 . S
H418 C430 0.950 . S
H419 C431 0.950 . S
C420 H412 0.950 . S
C420 C421 1.386 . S
C420 C422 1.391 . S
C421 C420 1.386 . S
C421 C425 1.393 . S
C422 H414 0.950 . S
C422 C420 1.391 . S
C422 C423 1.400 . S
C423 C422 1.400 . S
C423 C424 1.398 . S
C423 C429 1.491 . S
C424 H415 0.950 . S
C424 C423 1.398 . S
C424 C425 1.391 . S
C425 H413 0.950 . S
C425 C421 1.393 . S
C425 C424 1.391 . S
C426 H416 0.950 1_565 S
C426 C427 1.386 . S
C426 C428 1.391 . S
C427 C426 1.386 . S
C427 C431 1.393 . S
C428 H417 0.950 . S
C428 C426 1.391 . S
C428 C429 1.400 . S
C429 C423 1.491 . S
C429 C428 1.400 . S
C429 C430 1.398 . S
C430 H418 0.950 . S
C430 C429 1.398 . S
C430 C431 1.391 . S
C431 H419 0.950 . S
C431 C427 1.393 . S
C431 C430 1.391 . S
H432 C440 0.950 . S
H433 C445 0.950 . S
H434 C442 0.950 . S
H435 C444 0.950 . S
H436 C446 0.950 . S
H437 C448 0.950 . S
H438 C450 0.950 . S
H439 C451 0.950 . S
C440 H432 0.950 . S
C440 C441 1.386 . S
C440 C442 1.391 . S
C441 C440 1.386 . S
C441 C445 1.393 . S
C442 H434 0.950 . S
C442 C440 1.391 . S
C442 C443 1.400 . S
C443 C442 1.400 . S
C443 C444 1.398 . S
C443 C449 1.491 . S
C444 H435 0.950 . S
C444 C443 1.398 . S
C444 C445 1.391 . S
C445 H433 0.950 . S
C445 C441 1.393 . S
C445 C444 1.391 . S
C446 H436 0.950 . S
C446 C447 1.386 . S
C446 C448 1.391 . S
C447 C446 1.386 . S
C447 C451 1.393 . S
C448 H437 0.950 . S
C448 C446 1.391 . S
C448 C449 1.400 . S
C449 C443 1.491 . S
C449 C448 1.400 . S
C449 C450 1.398 . S
C450 H438 0.950 . S
C450 C449 1.398 . S
C450 C451 1.391 . S
C451 H439 0.950 . S
C451 C447 1.393 . S
C451 C450 1.391 . S
H452 C460 0.950 . S
H453 C465 0.950 . S
H454 C462 0.950 . S
H455 C464 0.950 . S
H456 C466 0.950 . S
H457 C468 0.950 . S
H458 C470 0.950 . S
H459 C471 0.950 . S
C460 H452 0.950 . S
C460 C461 1.386 . S
C460 C462 1.391 . S
C461 C460 1.386 . S
C461 C465 1.393 . S
C462 H454 0.950 . S
C462 C460 1.391 . S
C462 C463 1.400 . S
C463 C462 1.400 . S
C463 C464 1.398 . S
C463 C469 1.491 . S
C464 H455 0.950 . S
C464 C463 1.398 . S
C464 C465 1.391 . S
C465 H453 0.950 . S
C465 C461 1.393 . S
C465 C464 1.391 . S
C466 H456 0.950 . S
C466 C467 1.386 . S
C466 C468 1.391 . S
C467 C466 1.386 . S
C467 C471 1.393 . S
C468 H457 0.950 . S
C468 C466 1.391 . S
C468 C469 1.400 . S
C469 C463 1.491 . S
C469 C468 1.400 . S
C469 C470 1.398 . S
C470 H458 0.950 . S
C470 C469 1.398 . S
C470 C471 1.391 . S
C471 H459 0.950 . S
C471 C467 1.393 . S
C471 C470 1.391 . S
H472 C480 0.950 . S
H473 C485 0.950 . S
H474 C482 0.950 . S
H475 C484 0.950 . S
H476 C486 0.950 . S
H477 C488 0.950 . S
H478 C490 0.950 . S
H479 C491 0.950 . S
C480 H472 0.950 . S
C480 C481 1.386 . S
C480 C482 1.391 . S
C481 C480 1.386 . S
C481 C485 1.393 . S
C482 H474 0.950 . S
C482 C480 1.391 . S
C482 C483 1.400 . S
C483 C482 1.400 . S
C483 C484 1.398 . S
C483 C489 1.491 . S
C484 H475 0.950 . S
C484 C483 1.398 . S
C484 C485 1.391 . S
C485 H473 0.950 . S
C485 C481 1.393 . S
C485 C484 1.391 . S
C486 H476 0.950 . S
C486 C487 1.386 . S
C486 C488 1.391 . S
C487 C486 1.386 . S
C487 C491 1.393 . S
C488 H477 0.950 . S
C488 C486 1.391 . S
C488 C489 1.400 . S
C489 C483 1.491 . S
C489 C488 1.400 . S
C489 C490 1.398 . S
C490 H478 0.950 . S
C490 C489 1.398 . S
C490 C491 1.391 . S
C491 H479 0.950 . S
C491 C487 1.393 . S
C491 C490 1.391 . S
H492 C500 0.950 . S
H493 C505 0.950 . S
H494 C502 0.950 . S
H495 C504 0.950 . S
H496 C506 0.950 . S
H497 C508 0.950 . S
H498 C510 0.950 . S
H499 C511 0.950 . S
C500 H492 0.950 . S
C500 C501 1.386 . S
C500 C502 1.391 . S
C501 C500 1.386 . S
C501 C505 1.393 . S
C502 H494 0.950 . S
C502 C500 1.391 . S
C502 C503 1.400 . S
C503 C502 1.400 . S
C503 C504 1.398 . S
C503 C509 1.491 . S
C504 H495 0.950 . S
C504 C503 1.398 . S
C504 C505 1.391 . S
C505 H493 0.950 . S
C505 C501 1.393 . S
C505 C504 1.391 . S
C506 H496 0.950 . S
C506 C507 1.386 1_556 S
C506 C508 1.391 . S
C507 C506 1.386 1_554 S
C507 C511 1.393 . S
C508 H497 0.950 . S
C508 C506 1.391 . S
C508 C509 1.400 . S
C509 C503 1.491 . S
C509 C508 1.400 . S
C509 C510 1.398 1_556 S
C510 H498 0.950 . S
C510 C509 1.398 1_554 S
C510 C511 1.391 . S
C511 H499 0.950 . S
C511 C507 1.393 . S
C511 C510 1.391 . S
H512 C520 0.950 . S
H513 C525 0.950 . S
H514 C522 0.950 . S
H515 C524 0.950 . S
H516 C526 0.950 . S
H517 C528 0.950 . S
H518 C530 0.950 . S
H519 C531 0.950 . S
C520 H512 0.950 . S
C520 C521 1.386 . S
C520 C522 1.391 . S
C521 C520 1.386 . S
C521 C525 1.393 . S
C522 H514 0.950 . S
C522 C520 1.391 . S
C522 C523 1.400 . S
C523 C522 1.400 . S
C523 C524 1.398 . S
C523 C529 1.491 . S
C524 H515 0.950 . S
C524 C523 1.398 . S
C524 C525 1.391 . S
C525 H513 0.950 . S
C525 C521 1.393 . S
C525 C524 1.391 . S
C526 H516 0.950 . S
C526 C527 1.386 . S
C526 C528 1.391 . S
C527 C526 1.386 . S
C527 C531 1.393 . S
C528 H517 0.950 . S
C528 C526 1.391 . S
C528 C529 1.400 . S
C529 C523 1.491 . S
C529 C528 1.400 . S
C529 C530 1.398 . S
C530 H518 0.950 . S
C530 C529 1.398 . S
C530 C531 1.391 . S
C531 H519 0.950 . S
C531 C527 1.393 . S
C531 C530 1.391 . S
H532 C540 0.950 . S
H533 C545 0.950 . S
H534 C542 0.950 . S
H535 C544 0.950 . S
H536 C546 0.950 . S
H537 C548 0.950 . S
H538 C550 0.950 . S
H539 C551 0.950 . S
C540 H532 0.950 . S
C540 C541 1.386 . S
C540 C542 1.391 . S
C541 C540 1.386 . S
C541 C545 1.393 . S
C542 H534 0.950 . S
C542 C540 1.391 . S
C542 C543 1.400 . S
C543 C542 1.400 . S
C543 C544 1.398 . S
C543 C549 1.491 . S
C544 H535 0.950 . S
C544 C543 1.398 . S
C544 C545 1.391 . S
C545 H533 0.950 . S
C545 C541 1.393 . S
C545 C544 1.391 . S
C546 H536 0.950 . S
C546 C547 1.386 . S
C546 C548 1.391 . S
C547 C546 1.386 . S
C547 C551 1.393 . S
C548 H537 0.950 . S
C548 C546 1.391 . S
C548 C549 1.400 . S
C549 C543 1.491 . S
C549 C548 1.400 . S
C549 C550 1.398 . S
C550 H538 0.950 . S
C550 C549 1.398 . S
C550 C551 1.391 . S
C551 H539 0.950 . S
C551 C547 1.393 . S
C551 C550 1.391 . S
H552 C560 0.950 . S
H553 C565 0.950 . S
H554 C562 0.950 . S
H555 C564 0.950 . S
H556 C566 0.950 . S
H557 C568 0.950 . S
H558 C570 0.950 . S
H559 C571 0.950 . S
C560 H552 0.950 . S
C560 C561 1.386 . S
C560 C562 1.391 . S
C561 C560 1.386 . S
C561 C565 1.393 . S
C562 H554 0.950 . S
C562 C560 1.391 . S
C562 C563 1.400 . S
C563 C562 1.400 . S
C563 C564 1.398 . S
C563 C569 1.491 . S
C564 H555 0.950 . S
C564 C563 1.398 . S
C564 C565 1.391 . S
C565 H553 0.950 . S
C565 C561 1.393 . S
C565 C564 1.391 . S
C566 H556 0.950 . S
C566 C567 1.386 . S
C566 C568 1.391 . S
C567 C566 1.386 . S
C567 C571 1.393 . S
C568 H557 0.950 . S
C568 C566 1.391 . S
C568 C569 1.400 . S
C569 C563 1.491 . S
C569 C568 1.400 . S
C569 C570 1.398 . S
C570 H558 0.950 . S
C570 C569 1.398 . S
C570 C571 1.391 . S
C571 H559 0.950 . S
C571 C567 1.393 . S
C571 C570 1.391 . S
H572 C580 0.950 . S
H573 C585 0.950 . S
H574 C582 0.950 . S
H575 C584 0.950 . S
H576 C586 0.950 . S
H577 C588 0.950 . S
H578 C590 0.950 . S
H579 C591 0.950 . S
C580 H572 0.950 . S
C580 C581 1.386 . S
C580 C582 1.391 . S
C581 C580 1.386 . S
C581 C585 1.393 . S
C582 H574 0.950 . S
C582 C580 1.391 . S
C582 C583 1.400 . S
C583 C582 1.400 . S
C583 C584 1.398 . S
C583 C589 1.491 . S
C584 H575 0.950 . S
C584 C583 1.398 . S
C584 C585 1.391 . S
C585 H573 0.950 . S
C585 C581 1.393 . S
C585 C584 1.391 . S
C586 H576 0.950 . S
C586 C587 1.386 . S
C586 C588 1.391 . S
C587 C586 1.386 . S
C587 C591 1.393 . S
C588 H577 0.950 . S
C588 C586 1.391 . S
C588 C589 1.400 . S
C589 C583 1.491 . S
C589 C588 1.400 . S
C589 C590 1.398 . S
C590 H578 0.950 . S
C590 C589 1.398 . S
C590 C591 1.391 . S
C591 H579 0.950 . S
C591 C587 1.393 . S
C591 C590 1.391 . S
H592 C600 0.950 . S
H593 C605 0.950 . S
H594 C602 0.950 . S
H595 C604 0.950 . S
H596 C606 0.950 . S
H597 C608 0.950 . S
H598 C610 0.950 . S
H599 C611 0.950 . S
C600 H592 0.950 . S
C600 C601 1.386 . S
C600 C602 1.391 . S
C601 C600 1.386 . S
C601 C605 1.393 . S
C602 H594 0.950 . S
C602 C600 1.391 . S
C602 C603 1.400 . S
C603 C602 1.400 . S
C603 C604 1.398 . S
C603 C609 1.491 . S
C604 H595 0.950 . S
C604 C603 1.398 . S
C604 C605 1.391 . S
C605 H593 0.950 . S
C605 C601 1.393 . S
C605 C604 1.391 . S
C606 H596 0.950 . S
C606 C607 1.386 . S
C606 C608 1.391 . S
C607 C606 1.386 . S
C607 C611 1.393 . S
C608 H597 0.950 . S
C608 C606 1.391 . S
C608 C609 1.400 . S
C609 C603 1.491 . S
C609 C608 1.400 . S
C609 C610 1.398 . S
C610 H598 0.950 . S
C610 C609 1.398 . S
C610 C611 1.391 . S
C611 H599 0.950 . S
C611 C607 1.393 . S
C611 C610 1.391 . S
H612 C620 0.950 . S
H613 C625 0.950 . S
H614 C622 0.950 . S
H615 C624 0.950 . S
H616 C626 0.950 . S
H617 C628 0.950 . S
H618 C630 0.950 . S
H619 C631 0.950 . S
C620 H612 0.950 . S
C620 C621 1.386 . S
C620 C622 1.391 . S
C621 C620 1.386 . S
C621 C625 1.393 . S
C622 H614 0.950 . S
C622 C620 1.391 . S
C622 C623 1.400 . S
C623 C622 1.400 . S
C623 C624 1.398 . S
C623 C629 1.491 . S
C624 H615 0.950 . S
C624 C623 1.398 . S
C624 C625 1.391 . S
C625 H613 0.950 . S
C625 C621 1.393 . S
C625 C624 1.391 . S
C626 H616 0.950 . S
C626 C627 1.386 . S
C626 C628 1.391 . S
C627 C626 1.386 . S
C627 C631 1.393 . S
C628 H617 0.950 . S
C628 C626 1.391 . S
C628 C629 1.400 . S
C629 C623 1.491 . S
C629 C628 1.400 . S
C629 C630 1.398 . S
C630 H618 0.950 . S
C630 C629 1.398 . S
C630 C631 1.391 . S
C631 H619 0.950 . S
C631 C627 1.393 . S
C631 C630 1.391 . S
H632 C640 0.950 . S
H633 C645 0.950 . S
H634 C642 0.950 . S
H635 C644 0.950 . S
H636 C646 0.950 . S
H637 C648 0.950 . S
H638 C650 0.950 . S
H639 C651 0.957 . S
C640 H632 0.950 . S
C640 C641 1.386 . S
C640 C642 1.391 . S
C641 C640 1.386 . S
C641 C645 1.393 . S
C642 H634 0.950 . S
C642 C640 1.391 . S
C642 C643 1.400 . S
C643 C642 1.400 . S
C643 C644 1.398 . S
C643 C649 1.491 . S
C644 H635 0.950 . S
C644 C643 1.398 . S
C644 C645 1.391 . S
C645 H633 0.950 . S
C645 C641 1.393 . S
C645 C644 1.391 . S
C646 H636 0.950 . S
C646 C647 1.386 . S
C646 C648 1.391 . S
C647 C646 1.386 . S
C647 C651 1.366 1_554 S
C648 H637 0.950 . S
C648 C646 1.391 . S
C648 C649 1.400 1_554 S
C649 C643 1.491 . S
C649 C648 1.400 1_556 S
C649 C650 1.398 . S
C650 H638 0.950 . S
C650 C649 1.398 . S
C650 C651 1.412 . S
C651 H639 0.957 . S
C651 C647 1.366 1_556 S
C651 C650 1.412 . S
H652 C660 0.950 . S
H653 C665 0.950 . S
H654 C662 0.950 . S
H655 C664 0.950 . S
H656 C666 0.950 . S
H657 C668 0.950 . S
H658 C670 0.950 . S
H659 C671 0.950 . S
C660 H652 0.950 . S
C660 C661 1.386 . S
C660 C662 1.391 . S
C661 C660 1.386 . S
C661 C665 1.393 . S
C662 H654 0.950 . S
C662 C660 1.391 . S
C662 C663 1.400 . S
C663 C662 1.400 . S
C663 C664 1.398 . S
C663 C669 1.491 . S
C664 H655 0.950 . S
C664 C663 1.398 . S
C664 C665 1.391 . S
C665 H653 0.950 . S
C665 C661 1.393 . S
C665 C664 1.391 . S
C666 H656 0.950 . S
C666 C667 1.386 . S
C666 C668 1.391 . S
C667 C666 1.386 . S
C667 C671 1.393 . S
C668 H657 0.950 . S
C668 C666 1.391 . S
C668 C669 1.400 . S
C669 C663 1.491 . S
C669 C668 1.400 . S
C669 C670 1.398 . S
C670 H658 0.950 . S
C670 C669 1.398 . S
C670 C671 1.391 . S
C671 H659 0.950 . S
C671 C667 1.393 . S
C671 C670 1.391 . S
H672 C680 0.950 . S
H673 C685 0.950 . S
H674 C682 0.950 . S
H675 C684 0.950 . S
H676 C686 0.950 . S
H677 C688 0.950 . S
H678 C690 0.950 . S
H679 C691 0.950 . S
C680 H672 0.950 . S
C680 C681 1.386 . S
C680 C682 1.391 . S
C681 C680 1.386 . S
C681 C685 1.393 . S
C682 H674 0.950 . S
C682 C680 1.391 . S
C682 C683 1.400 . S
C683 C682 1.400 . S
C683 C684 1.398 . S
C683 C689 1.491 . S
C684 H675 0.950 . S
C684 C683 1.398 . S
C684 C685 1.391 . S
C685 H673 0.950 . S
C685 C681 1.393 . S
C685 C684 1.391 . S
C686 H676 0.950 . S
C686 C687 1.386 . S
C686 C688 1.391 . S
C687 C686 1.386 . S
C687 C691 1.393 . S
C688 H677 0.950 . S
C688 C686 1.391 . S
C688 C689 1.400 . S
C689 C683 1.491 . S
C689 C688 1.400 . S
C689 C690 1.398 . S
C690 H678 0.950 . S
C690 C689 1.398 . S
C690 C691 1.391 . S
C691 H679 0.950 . S
C691 C687 1.393 . S
C691 C690 1.391 . S
H692 C700 0.950 . S
H693 C705 0.950 . S
H694 C702 0.950 . S
H695 C704 0.950 . S
H696 C706 0.950 . S
H697 C708 0.950 . S
H698 C710 0.950 . S
H699 C711 0.950 . S
C700 H692 0.950 . S
C700 C701 1.386 . S
C700 C702 1.391 . S
C701 C700 1.386 . S
C701 C705 1.393 . S
C702 H694 0.950 . S
C702 C700 1.391 . S
C702 C703 1.400 . S
C703 C702 1.400 . S
C703 C704 1.398 . S
C703 C709 1.491 . S
C704 H695 0.950 . S
C704 C703 1.398 . S
C704 C705 1.391 . S
C705 H693 0.950 . S
C705 C701 1.393 . S
C705 C704 1.391 . S
C706 H696 0.950 . S
C706 C707 1.386 . S
C706 C708 1.391 . S
C707 C706 1.386 . S
C707 C711 1.393 . S
C708 H697 0.950 . S
C708 C706 1.391 . S
C708 C709 1.400 . S
C709 C703 1.491 . S
C709 C708 1.400 . S
C709 C710 1.398 . S
C710 H698 0.950 . S
C710 C709 1.398 . S
C710 C711 1.391 . S
C711 H699 0.950 . S
C711 C707 1.393 . S
C711 C710 1.391 . S
H712 C720 0.950 . S
H713 C725 0.950 . S
H714 C722 0.950 . S
H715 C724 0.950 . S
H716 C726 0.950 . S
H717 C728 0.950 . S
H718 C730 0.950 . S
H719 C731 0.950 . S
C720 H712 0.950 . S
C720 C721 1.386 . S
C720 C722 1.391 . S
C721 C720 1.386 . S
C721 C725 1.393 . S
C722 H714 0.950 . S
C722 C720 1.391 . S
C722 C723 1.400 . S
C723 C722 1.400 . S
C723 C724 1.398 . S
C723 C729 1.491 . S
C724 H715 0.950 . S
C724 C723 1.398 . S
C724 C725 1.391 . S
C725 H713 0.950 . S
C725 C721 1.393 . S
C725 C724 1.391 . S
C726 H716 0.950 . S
C726 C727 1.386 . S
C726 C728 1.391 . S
C727 C726 1.386 . S
C727 C731 1.393 . S
C728 H717 0.950 . S
C728 C726 1.391 . S
C728 C729 1.400 . S
C729 C723 1.491 . S
C729 C728 1.400 . S
C729 C730 1.398 . S
C730 H718 0.950 . S
C730 C729 1.398 . S
C730 C731 1.391 . S
C731 H719 0.950 . S
C731 C727 1.393 . S
C731 C730 1.391 . S
H732 C740 0.950 . S
H733 C745 0.950 . S
H734 C742 0.950 . S
H735 C744 0.950 . S
H736 C746 0.950 . S
H737 C748 0.950 . S
H738 C750 0.950 . S
H739 C751 0.950 . S
C740 H732 0.950 . S
C740 C741 1.386 . S
C740 C742 1.391 . S
C741 C740 1.386 . S
C741 C745 1.393 . S
C742 H734 0.950 . S
C742 C740 1.391 . S
C742 C743 1.400 . S
C743 C742 1.400 . S
C743 C744 1.398 . S
C743 C749 1.491 . S
C744 H735 0.950 . S
C744 C743 1.398 . S
C744 C745 1.391 . S
C745 H733 0.950 . S
C745 C741 1.393 . S
C745 C744 1.391 . S
C746 H736 0.950 . S
C746 C747 1.386 . S
C746 C748 1.391 . S
C747 C746 1.386 . S
C747 C751 1.393 . S
C748 H737 0.950 . S
C748 C746 1.391 . S
C748 C749 1.400 . S
C749 C743 1.491 . S
C749 C748 1.400 . S
C749 C750 1.398 . S
C750 H738 0.950 . S
C750 C749 1.398 . S
C750 C751 1.391 . S
C751 H739 0.950 . S
C751 C747 1.393 . S
C751 C750 1.391 . S
H752 C760 0.950 . S
H753 C765 0.950 . S
H754 C762 0.950 . S
H755 C764 0.950 . S
H756 C766 0.950 . S
H757 C768 0.950 . S
H758 C770 0.950 . S
H759 C771 0.950 . S
C760 H752 0.950 . S
C760 C761 1.386 . S
C760 C762 1.391 . S
C761 C760 1.386 . S
C761 C765 1.393 . S
C762 H754 0.950 . S
C762 C760 1.391 . S
C762 C763 1.400 . S
C763 C762 1.400 . S
C763 C764 1.398 . S
C763 C769 1.491 . S
C764 H755 0.950 . S
C764 C763 1.398 . S
C764 C765 1.391 . S
C765 H753 0.950 . S
C765 C761 1.393 . S
C765 C764 1.391 . S
C766 H756 0.950 . S
C766 C767 1.386 . S
C766 C768 1.391 . S
C767 C766 1.386 . S
C767 C771 1.393 . S
C768 H757 0.950 . S
C768 C766 1.391 . S
C768 C769 1.400 . S
C769 C763 1.491 . S
C769 C768 1.400 . S
C769 C770 1.398 . S
C770 H758 0.950 . S
C770 C769 1.398 . S
C770 C771 1.391 . S
C771 H759 0.950 . S
C771 C767 1.393 . S
C771 C770 1.391 . S
H772 C780 0.950 . S
H773 C785 0.950 . S
H774 C782 0.950 . S
H775 C784 0.950 . S
H776 C786 0.950 . S
H777 C788 0.950 . S
H778 C790 0.950 . S
H779 C791 0.950 . S
C780 H772 0.950 . S
C780 C781 1.386 . S
C780 C782 1.391 . S
C781 C780 1.386 . S
C781 C785 1.393 . S
C782 H774 0.950 . S
C782 C780 1.391 . S
C782 C783 1.400 . S
C783 C782 1.400 . S
C783 C784 1.398 . S
C783 C789 1.491 . S
C784 H775 0.950 . S
C784 C783 1.398 . S
C784 C785 1.391 . S
C785 H773 0.950 . S
C785 C781 1.393 . S
C785 C784 1.391 . S
C786 H776 0.950 . S
C786 C787 1.386 . S
C786 C788 1.391 . S
C787 C786 1.386 . S
C787 C791 1.393 . S
C788 H777 0.950 . S
C788 C786 1.391 . S
C788 C789 1.400 . S
C789 C783 1.491 . S
C789 C788 1.400 . S
C789 C790 1.398 . S
C790 H778 0.950 . S
C790 C789 1.398 . S
C790 C791 1.391 . S
C791 H779 0.950 . S
C791 C787 1.393 . S
C791 C790 1.391 . S
C321 C6 1.196 . S
C327 C169 1.214 . S
C341 C21 1.455 . S
C347 C209 1.507 . S
C367 C234 1.829 . S
C361 C49 1.792 . S
C381 C68 2.146 . S
C387 C274 2.219 1_655 S
C407 C205 2.520 . S
C401 C2 2.430 . S
C427 C165 1.452 . S
C421 C30 1.409 . S
C447 C296 1.589 . S
C441 C40 1.599 . S
C467 C256 1.508 . S
C461 C63 1.566 . S
C481 C11 1.166 . S
C487 C298 1.265 . S
C507 C215 2.437 . S
C501 C44 2.477 . S
C521 C59 1.722 . S
C527 C175 1.711 . S
C541 C25 1.823 . S
C547 C258 1.796 . S
C567 C178 1.433 . S
C561 C82 1.412 . S
C581 C101 1.172 . S
C587 C218 1.204 . S
C601 C125 2.157 . S
C607 C255 2.216 . S
C621 C144 1.843 . S
C627 C295 1.902 . S
C641 C87 1.408 . S
C647 C216 1.508 . S
C667 C176 2.468 . S
C661 C97 2.390 . S
C687 C285 1.467 . S
C681 C120 1.531 . S
C707 C245 1.616 . S
C701 C135 1.615 . S
C721 C78 1.831 . S
C727 C289 1.877 . S
C747 C194 1.688 . S
C741 C116 1.699 . S
C767 C154 2.405 . S
C761 C139 2.454 . S
C781 C106 1.032 . S
C787 C249 1.266 . S
