# Generated by pormake.
# Topology ana-f, (3,3)-cn, num edge types: 1
# Building blocks:
#     Node 0, Type 0, BuildingBlock: WUSLED_clean_sbu_0, # of connection points: 3
#     Node 1, Type 0, BuildingBlock: WUSLED_clean_sbu_0, # of connection points: 3
#     Node 2, Type 0, BuildingBlock: WUSLED_clean_sbu_0, # of connection points: 3
#     Node 3, Type 0, BuildingBlock: WUSLED_clean_sbu_0, # of connection points: 3
#     Node 4, Type 0, BuildingBlock: WUSLED_clean_sbu_0, # of connection points: 3
#     Node 5, Type 0, BuildingBlock: WUSLED_clean_sbu_0, # of connection points: 3
#     Node 6, Type 0, BuildingBlock: WUSLED_clean_sbu_0, # of connection points: 3
#     Node 7, Type 0, BuildingBlock: WUSLED_clean_sbu_0, # of connection points: 3
#     Node 8, Type 0, BuildingBlock: WUSLED_clean_sbu_0, # of connection points: 3
#     Node 9, Type 0, BuildingBlock: WUSLED_clean_sbu_0, # of connection points: 3
#     Node 10, Type 0, BuildingBlock: WUSLED_clean_sbu_0, # of connection points: 3
#     Node 11, Type 0, BuildingBlock: WUSLED_clean_sbu_0, # of connection points: 3
#     Node 12, Type 0, BuildingBlock: WUSLED_clean_sbu_0, # of connection points: 3
#     Node 13, Type 0, BuildingBlock: WUSLED_clean_sbu_0, # of connection points: 3
#     Node 14, Type 0, BuildingBlock: WUSLED_clean_sbu_0, # of connection points: 3
#     Node 15, Type 0, BuildingBlock: WUSLED_clean_sbu_0, # of connection points: 3
#     Node 16, Type 0, BuildingBlock: WUSLED_clean_sbu_0, # of connection points: 3
#     Node 17, Type 0, BuildingBlock: WUSLED_clean_sbu_0, # of connection points: 3
#     Node 18, Type 0, BuildingBlock: WUSLED_clean_sbu_0, # of connection points: 3
#     Node 19, Type 0, BuildingBlock: WUSLED_clean_sbu_0, # of connection points: 3
#     Node 20, Type 0, BuildingBlock: WUSLED_clean_sbu_0, # of connection points: 3
#     Node 21, Type 0, BuildingBlock: WUSLED_clean_sbu_0, # of connection points: 3
#     Node 22, Type 0, BuildingBlock: WUSLED_clean_sbu_0, # of connection points: 3
#     Node 23, Type 0, BuildingBlock: WUSLED_clean_sbu_0, # of connection points: 3
#     Node 24, Type 0, BuildingBlock: WUSLED_clean_sbu_0, # of connection points: 3
#     Node 25, Type 0, BuildingBlock: WUSLED_clean_sbu_0, # of connection points: 3
#     Node 26, Type 0, BuildingBlock: WUSLED_clean_sbu_0, # of connection points: 3
#     Node 27, Type 0, BuildingBlock: WUSLED_clean_sbu_0, # of connection points: 3
#     Node 28, Type 0, BuildingBlock: WUSLED_clean_sbu_0, # of connection points: 3
#     Node 29, Type 0, BuildingBlock: WUSLED_clean_sbu_0, # of connection points: 3
#     Node 30, Type 0, BuildingBlock: WUSLED_clean_sbu_0, # of connection points: 3
#     Node 31, Type 0, BuildingBlock: WUSLED_clean_sbu_0, # of connection points: 3
#     Node 32, Type 0, BuildingBlock: WUSLED_clean_sbu_0, # of connection points: 3
#     Node 33, Type 0, BuildingBlock: WUSLED_clean_sbu_0, # of connection points: 3
#     Node 34, Type 0, BuildingBlock: WUSLED_clean_sbu_0, # of connection points: 3
#     Node 35, Type 0, BuildingBlock: WUSLED_clean_sbu_0, # of connection points: 3
#     Node 36, Type 0, BuildingBlock: WUSLED_clean_sbu_0, # of connection points: 3
#     Node 37, Type 0, BuildingBlock: WUSLED_clean_sbu_0, # of connection points: 3
#     Node 38, Type 0, BuildingBlock: WUSLED_clean_sbu_0, # of connection points: 3
#     Node 39, Type 0, BuildingBlock: WUSLED_clean_sbu_0, # of connection points: 3
#     Node 40, Type 0, BuildingBlock: WUSLED_clean_sbu_0, # of connection points: 3
#     Node 41, Type 0, BuildingBlock: WUSLED_clean_sbu_0, # of connection points: 3
#     Node 42, Type 0, BuildingBlock: WUSLED_clean_sbu_0, # of connection points: 3
#     Node 43, Type 0, BuildingBlock: WUSLED_clean_sbu_0, # of connection points: 3
#     Node 44, Type 0, BuildingBlock: WUSLED_clean_sbu_0, # of connection points: 3
#     Node 45, Type 0, BuildingBlock: WUSLED_clean_sbu_0, # of connection points: 3
#     Node 46, Type 0, BuildingBlock: WUSLED_clean_sbu_0, # of connection points: 3
#     Node 47, Type 0, BuildingBlock: WUSLED_clean_sbu_0, # of connection points: 3
#     Node 48, Type 0, BuildingBlock: WUSLED_clean_sbu_0, # of connection points: 3
#     Node 49, Type 0, BuildingBlock: WUSLED_clean_sbu_0, # of connection points: 3
#     Node 50, Type 0, BuildingBlock: WUSLED_clean_sbu_0, # of connection points: 3
#     Node 51, Type 0, BuildingBlock: WUSLED_clean_sbu_0, # of connection points: 3
#     Node 52, Type 0, BuildingBlock: WUSLED_clean_sbu_0, # of connection points: 3
#     Node 53, Type 0, BuildingBlock: WUSLED_clean_sbu_0, # of connection points: 3
#     Node 54, Type 0, BuildingBlock: WUSLED_clean_sbu_0, # of connection points: 3
#     Node 55, Type 0, BuildingBlock: WUSLED_clean_sbu_0, # of connection points: 3
#     Node 56, Type 0, BuildingBlock: WUSLED_clean_sbu_0, # of connection points: 3
#     Node 57, Type 0, BuildingBlock: WUSLED_clean_sbu_0, # of connection points: 3
#     Node 58, Type 0, BuildingBlock: WUSLED_clean_sbu_0, # of connection points: 3
#     Node 59, Type 0, BuildingBlock: WUSLED_clean_sbu_0, # of connection points: 3
#     Node 60, Type 0, BuildingBlock: WUSLED_clean_sbu_0, # of connection points: 3
#     Node 61, Type 0, BuildingBlock: WUSLED_clean_sbu_0, # of connection points: 3
#     Node 62, Type 0, BuildingBlock: WUSLED_clean_sbu_0, # of connection points: 3
#     Node 63, Type 0, BuildingBlock: WUSLED_clean_sbu_0, # of connection points: 3
#     Node 64, Type 0, BuildingBlock: WUSLED_clean_sbu_0, # of connection points: 3
#     Node 65, Type 0, BuildingBlock: WUSLED_clean_sbu_0, # of connection points: 3
#     Node 66, Type 0, BuildingBlock: WUSLED_clean_sbu_0, # of connection points: 3
#     Node 67, Type 0, BuildingBlock: WUSLED_clean_sbu_0, # of connection points: 3
#     Node 68, Type 0, BuildingBlock: WUSLED_clean_sbu_0, # of connection points: 3
#     Node 69, Type 0, BuildingBlock: WUSLED_clean_sbu_0, # of connection points: 3
#     Node 70, Type 0, BuildingBlock: WUSLED_clean_sbu_0, # of connection points: 3
#     Node 71, Type 0, BuildingBlock: WUSLED_clean_sbu_0, # of connection points: 3
#     Node 72, Type 0, BuildingBlock: WUSLED_clean_sbu_0, # of connection points: 3
#     Node 73, Type 0, BuildingBlock: WUSLED_clean_sbu_0, # of connection points: 3
#     Node 74, Type 0, BuildingBlock: WUSLED_clean_sbu_0, # of connection points: 3
#     Node 75, Type 0, BuildingBlock: WUSLED_clean_sbu_0, # of connection points: 3
#     Node 76, Type 0, BuildingBlock: WUSLED_clean_sbu_0, # of connection points: 3
#     Node 77, Type 0, BuildingBlock: WUSLED_clean_sbu_0, # of connection points: 3
#     Node 78, Type 0, BuildingBlock: WUSLED_clean_sbu_0, # of connection points: 3
#     Node 79, Type 0, BuildingBlock: WUSLED_clean_sbu_0, # of connection points: 3
#     Node 80, Type 0, BuildingBlock: WUSLED_clean_sbu_0, # of connection points: 3
#     Node 81, Type 0, BuildingBlock: WUSLED_clean_sbu_0, # of connection points: 3
#     Node 82, Type 0, BuildingBlock: WUSLED_clean_sbu_0, # of connection points: 3
#     Node 83, Type 0, BuildingBlock: WUSLED_clean_sbu_0, # of connection points: 3
#     Node 84, Type 0, BuildingBlock: WUSLED_clean_sbu_0, # of connection points: 3
#     Node 85, Type 0, BuildingBlock: WUSLED_clean_sbu_0, # of connection points: 3
#     Node 86, Type 0, BuildingBlock: WUSLED_clean_sbu_0, # of connection points: 3
#     Node 87, Type 0, BuildingBlock: WUSLED_clean_sbu_0, # of connection points: 3
#     Node 88, Type 0, BuildingBlock: WUSLED_clean_sbu_0, # of connection points: 3
#     Node 89, Type 0, BuildingBlock: WUSLED_clean_sbu_0, # of connection points: 3
#     Node 90, Type 0, BuildingBlock: WUSLED_clean_sbu_0, # of connection points: 3
#     Node 91, Type 0, BuildingBlock: WUSLED_clean_sbu_0, # of connection points: 3
#     Node 92, Type 0, BuildingBlock: WUSLED_clean_sbu_0, # of connection points: 3
#     Node 93, Type 0, BuildingBlock: WUSLED_clean_sbu_0, # of connection points: 3
#     Node 94, Type 0, BuildingBlock: WUSLED_clean_sbu_0, # of connection points: 3
#     Node 95, Type 0, BuildingBlock: WUSLED_clean_sbu_0, # of connection points: 3
#     Node 96, Type 1, BuildingBlock: QEWDON_clean_linker_0, # of connection points: 3
#     Node 97, Type 1, BuildingBlock: QEWDON_clean_linker_0, # of connection points: 3
#     Node 98, Type 1, BuildingBlock: QEWDON_clean_linker_0, # of connection points: 3
#     Node 99, Type 1, BuildingBlock: QEWDON_clean_linker_0, # of connection points: 3
#     Node 100, Type 1, BuildingBlock: QEWDON_clean_linker_0, # of connection points: 3
#     Node 101, Type 1, BuildingBlock: QEWDON_clean_linker_0, # of connection points: 3
#     Node 102, Type 1, BuildingBlock: QEWDON_clean_linker_0, # of connection points: 3
#     Node 103, Type 1, BuildingBlock: QEWDON_clean_linker_0, # of connection points: 3
#     Node 104, Type 1, BuildingBlock: QEWDON_clean_linker_0, # of connection points: 3
#     Node 105, Type 1, BuildingBlock: QEWDON_clean_linker_0, # of connection points: 3
#     Node 106, Type 1, BuildingBlock: QEWDON_clean_linker_0, # of connection points: 3
#     Node 107, Type 1, BuildingBlock: QEWDON_clean_linker_0, # of connection points: 3
#     Node 108, Type 1, BuildingBlock: QEWDON_clean_linker_0, # of connection points: 3
#     Node 109, Type 1, BuildingBlock: QEWDON_clean_linker_0, # of connection points: 3
#     Node 110, Type 1, BuildingBlock: QEWDON_clean_linker_0, # of connection points: 3
#     Node 111, Type 1, BuildingBlock: QEWDON_clean_linker_0, # of connection points: 3
#     Node 112, Type 1, BuildingBlock: QEWDON_clean_linker_0, # of connection points: 3
#     Node 113, Type 1, BuildingBlock: QEWDON_clean_linker_0, # of connection points: 3
#     Node 114, Type 1, BuildingBlock: QEWDON_clean_linker_0, # of connection points: 3
#     Node 115, Type 1, BuildingBlock: QEWDON_clean_linker_0, # of connection points: 3
#     Node 116, Type 1, BuildingBlock: QEWDON_clean_linker_0, # of connection points: 3
#     Node 117, Type 1, BuildingBlock: QEWDON_clean_linker_0, # of connection points: 3
#     Node 118, Type 1, BuildingBlock: QEWDON_clean_linker_0, # of connection points: 3
#     Node 119, Type 1, BuildingBlock: QEWDON_clean_linker_0, # of connection points: 3
#     Node 120, Type 1, BuildingBlock: QEWDON_clean_linker_0, # of connection points: 3
#     Node 121, Type 1, BuildingBlock: QEWDON_clean_linker_0, # of connection points: 3
#     Node 122, Type 1, BuildingBlock: QEWDON_clean_linker_0, # of connection points: 3
#     Node 123, Type 1, BuildingBlock: QEWDON_clean_linker_0, # of connection points: 3
#     Node 124, Type 1, BuildingBlock: QEWDON_clean_linker_0, # of connection points: 3
#     Node 125, Type 1, BuildingBlock: QEWDON_clean_linker_0, # of connection points: 3
#     Node 126, Type 1, BuildingBlock: QEWDON_clean_linker_0, # of connection points: 3
#     Node 127, Type 1, BuildingBlock: QEWDON_clean_linker_0, # of connection points: 3
#     Node 128, Type 1, BuildingBlock: QEWDON_clean_linker_0, # of connection points: 3
#     Node 129, Type 1, BuildingBlock: QEWDON_clean_linker_0, # of connection points: 3
#     Node 130, Type 1, BuildingBlock: QEWDON_clean_linker_0, # of connection points: 3
#     Node 131, Type 1, BuildingBlock: QEWDON_clean_linker_0, # of connection points: 3
#     Node 132, Type 1, BuildingBlock: QEWDON_clean_linker_0, # of connection points: 3
#     Node 133, Type 1, BuildingBlock: QEWDON_clean_linker_0, # of connection points: 3
#     Node 134, Type 1, BuildingBlock: QEWDON_clean_linker_0, # of connection points: 3
#     Node 135, Type 1, BuildingBlock: QEWDON_clean_linker_0, # of connection points: 3
#     Node 136, Type 1, BuildingBlock: QEWDON_clean_linker_0, # of connection points: 3
#     Node 137, Type 1, BuildingBlock: QEWDON_clean_linker_0, # of connection points: 3
#     Node 138, Type 1, BuildingBlock: QEWDON_clean_linker_0, # of connection points: 3
#     Node 139, Type 1, BuildingBlock: QEWDON_clean_linker_0, # of connection points: 3
#     Node 140, Type 1, BuildingBlock: QEWDON_clean_linker_0, # of connection points: 3
#     Node 141, Type 1, BuildingBlock: QEWDON_clean_linker_0, # of connection points: 3
#     Node 142, Type 1, BuildingBlock: QEWDON_clean_linker_0, # of connection points: 3
#     Node 143, Type 1, BuildingBlock: QEWDON_clean_linker_0, # of connection points: 3
#     Node 144, Type 1, BuildingBlock: QEWDON_clean_linker_0, # of connection points: 3
#     Node 145, Type 1, BuildingBlock: QEWDON_clean_linker_0, # of connection points: 3
#     Node 146, Type 1, BuildingBlock: QEWDON_clean_linker_0, # of connection points: 3
#     Node 147, Type 1, BuildingBlock: QEWDON_clean_linker_0, # of connection points: 3
#     Node 148, Type 1, BuildingBlock: QEWDON_clean_linker_0, # of connection points: 3
#     Node 149, Type 1, BuildingBlock: QEWDON_clean_linker_0, # of connection points: 3
#     Node 150, Type 1, BuildingBlock: QEWDON_clean_linker_0, # of connection points: 3
#     Node 151, Type 1, BuildingBlock: QEWDON_clean_linker_0, # of connection points: 3
#     Node 152, Type 1, BuildingBlock: QEWDON_clean_linker_0, # of connection points: 3
#     Node 153, Type 1, BuildingBlock: QEWDON_clean_linker_0, # of connection points: 3
#     Node 154, Type 1, BuildingBlock: QEWDON_clean_linker_0, # of connection points: 3
#     Node 155, Type 1, BuildingBlock: QEWDON_clean_linker_0, # of connection points: 3
#     Node 156, Type 1, BuildingBlock: QEWDON_clean_linker_0, # of connection points: 3
#     Node 157, Type 1, BuildingBlock: QEWDON_clean_linker_0, # of connection points: 3
#     Node 158, Type 1, BuildingBlock: QEWDON_clean_linker_0, # of connection points: 3
#     Node 159, Type 1, BuildingBlock: QEWDON_clean_linker_0, # of connection points: 3
#     Node 160, Type 1, BuildingBlock: QEWDON_clean_linker_0, # of connection points: 3
#     Node 161, Type 1, BuildingBlock: QEWDON_clean_linker_0, # of connection points: 3
#     Node 162, Type 1, BuildingBlock: QEWDON_clean_linker_0, # of connection points: 3
#     Node 163, Type 1, BuildingBlock: QEWDON_clean_linker_0, # of connection points: 3
#     Node 164, Type 1, BuildingBlock: QEWDON_clean_linker_0, # of connection points: 3
#     Node 165, Type 1, BuildingBlock: QEWDON_clean_linker_0, # of connection points: 3
#     Node 166, Type 1, BuildingBlock: QEWDON_clean_linker_0, # of connection points: 3
#     Node 167, Type 1, BuildingBlock: QEWDON_clean_linker_0, # of connection points: 3
#     Node 168, Type 1, BuildingBlock: QEWDON_clean_linker_0, # of connection points: 3
#     Node 169, Type 1, BuildingBlock: QEWDON_clean_linker_0, # of connection points: 3
#     Node 170, Type 1, BuildingBlock: QEWDON_clean_linker_0, # of connection points: 3
#     Node 171, Type 1, BuildingBlock: QEWDON_clean_linker_0, # of connection points: 3
#     Node 172, Type 1, BuildingBlock: QEWDON_clean_linker_0, # of connection points: 3
#     Node 173, Type 1, BuildingBlock: QEWDON_clean_linker_0, # of connection points: 3
#     Node 174, Type 1, BuildingBlock: QEWDON_clean_linker_0, # of connection points: 3
#     Node 175, Type 1, BuildingBlock: QEWDON_clean_linker_0, # of connection points: 3
#     Node 176, Type 1, BuildingBlock: QEWDON_clean_linker_0, # of connection points: 3
#     Node 177, Type 1, BuildingBlock: QEWDON_clean_linker_0, # of connection points: 3
#     Node 178, Type 1, BuildingBlock: QEWDON_clean_linker_0, # of connection points: 3
#     Node 179, Type 1, BuildingBlock: QEWDON_clean_linker_0, # of connection points: 3
#     Node 180, Type 1, BuildingBlock: QEWDON_clean_linker_0, # of connection points: 3
#     Node 181, Type 1, BuildingBlock: QEWDON_clean_linker_0, # of connection points: 3
#     Node 182, Type 1, BuildingBlock: QEWDON_clean_linker_0, # of connection points: 3
#     Node 183, Type 1, BuildingBlock: QEWDON_clean_linker_0, # of connection points: 3
#     Node 184, Type 1, BuildingBlock: QEWDON_clean_linker_0, # of connection points: 3
#     Node 185, Type 1, BuildingBlock: QEWDON_clean_linker_0, # of connection points: 3
#     Node 186, Type 1, BuildingBlock: QEWDON_clean_linker_0, # of connection points: 3
#     Node 187, Type 1, BuildingBlock: QEWDON_clean_linker_0, # of connection points: 3
#     Node 188, Type 1, BuildingBlock: QEWDON_clean_linker_0, # of connection points: 3
#     Node 189, Type 1, BuildingBlock: QEWDON_clean_linker_0, # of connection points: 3
#     Node 190, Type 1, BuildingBlock: QEWDON_clean_linker_0, # of connection points: 3
#     Node 191, Type 1, BuildingBlock: QEWDON_clean_linker_0, # of connection points: 3
#     Edge 192, Type (0, 1), None
#     Edge 193, Type (0, 1), None
#     Edge 194, Type (0, 1), None
#     Edge 195, Type (0, 1), None
#     Edge 196, Type (0, 1), None
#     Edge 197, Type (0, 1), None
#     Edge 198, Type (0, 1), None
#     Edge 199, Type (0, 1), None
#     Edge 200, Type (0, 1), None
#     Edge 201, Type (0, 1), None
#     Edge 202, Type (0, 1), None
#     Edge 203, Type (0, 1), None
#     Edge 204, Type (0, 1), None
#     Edge 205, Type (0, 1), None
#     Edge 206, Type (0, 1), None
#     Edge 207, Type (0, 1), None
#     Edge 208, Type (0, 1), None
#     Edge 209, Type (0, 1), None
#     Edge 210, Type (0, 1), None
#     Edge 211, Type (0, 1), None
#     Edge 212, Type (0, 1), None
#     Edge 213, Type (0, 1), None
#     Edge 214, Type (0, 1), None
#     Edge 215, Type (0, 1), None
#     Edge 216, Type (0, 1), None
#     Edge 217, Type (0, 1), None
#     Edge 218, Type (0, 1), None
#     Edge 219, Type (0, 1), None
#     Edge 220, Type (0, 1), None
#     Edge 221, Type (0, 1), None
#     Edge 222, Type (0, 1), None
#     Edge 223, Type (0, 1), None
#     Edge 224, Type (0, 1), None
#     Edge 225, Type (0, 1), None
#     Edge 226, Type (0, 1), None
#     Edge 227, Type (0, 1), None
#     Edge 228, Type (0, 1), None
#     Edge 229, Type (0, 1), None
#     Edge 230, Type (0, 1), None
#     Edge 231, Type (0, 1), None
#     Edge 232, Type (0, 1), None
#     Edge 233, Type (0, 1), None
#     Edge 234, Type (0, 1), None
#     Edge 235, Type (0, 1), None
#     Edge 236, Type (0, 1), None
#     Edge 237, Type (0, 1), None
#     Edge 238, Type (0, 1), None
#     Edge 239, Type (0, 1), None
#     Edge 240, Type (0, 1), None
#     Edge 241, Type (0, 1), None
#     Edge 242, Type (0, 1), None
#     Edge 243, Type (0, 1), None
#     Edge 244, Type (0, 1), None
#     Edge 245, Type (0, 1), None
#     Edge 246, Type (0, 1), None
#     Edge 247, Type (0, 1), None
#     Edge 248, Type (0, 1), None
#     Edge 249, Type (0, 1), None
#     Edge 250, Type (0, 1), None
#     Edge 251, Type (0, 1), None
#     Edge 252, Type (0, 1), None
#     Edge 253, Type (0, 1), None
#     Edge 254, Type (0, 1), None
#     Edge 255, Type (0, 1), None
#     Edge 256, Type (0, 1), None
#     Edge 257, Type (0, 1), None
#     Edge 258, Type (0, 1), None
#     Edge 259, Type (0, 1), None
#     Edge 260, Type (0, 1), None
#     Edge 261, Type (0, 1), None
#     Edge 262, Type (0, 1), None
#     Edge 263, Type (0, 1), None
#     Edge 264, Type (0, 1), None
#     Edge 265, Type (0, 1), None
#     Edge 266, Type (0, 1), None
#     Edge 267, Type (0, 1), None
#     Edge 268, Type (0, 1), None
#     Edge 269, Type (0, 1), None
#     Edge 270, Type (0, 1), None
#     Edge 271, Type (0, 1), None
#     Edge 272, Type (0, 1), None
#     Edge 273, Type (0, 1), None
#     Edge 274, Type (0, 1), None
#     Edge 275, Type (0, 1), None
#     Edge 276, Type (0, 1), None
#     Edge 277, Type (0, 1), None
#     Edge 278, Type (0, 1), None
#     Edge 279, Type (0, 1), None
#     Edge 280, Type (0, 1), None
#     Edge 281, Type (0, 1), None
#     Edge 282, Type (0, 1), None
#     Edge 283, Type (0, 1), None
#     Edge 284, Type (0, 1), None
#     Edge 285, Type (0, 1), None
#     Edge 286, Type (0, 1), None
#     Edge 287, Type (0, 1), None
#     Edge 288, Type (0, 1), None
#     Edge 289, Type (0, 1), None
#     Edge 290, Type (0, 1), None
#     Edge 291, Type (0, 1), None
#     Edge 292, Type (0, 1), None
#     Edge 293, Type (0, 1), None
#     Edge 294, Type (0, 1), None
#     Edge 295, Type (0, 1), None
#     Edge 296, Type (0, 1), None
#     Edge 297, Type (0, 1), None
#     Edge 298, Type (0, 1), None
#     Edge 299, Type (0, 1), None
#     Edge 300, Type (0, 1), None
#     Edge 301, Type (0, 1), None
#     Edge 302, Type (0, 1), None
#     Edge 303, Type (0, 1), None
#     Edge 304, Type (0, 1), None
#     Edge 305, Type (0, 1), None
#     Edge 306, Type (0, 1), None
#     Edge 307, Type (0, 1), None
#     Edge 308, Type (0, 1), None
#     Edge 309, Type (0, 1), None
#     Edge 310, Type (0, 1), None
#     Edge 311, Type (0, 1), None
#     Edge 312, Type (0, 1), None
#     Edge 313, Type (0, 1), None
#     Edge 314, Type (0, 1), None
#     Edge 315, Type (0, 1), None
#     Edge 316, Type (0, 1), None
#     Edge 317, Type (0, 1), None
#     Edge 318, Type (0, 1), None
#     Edge 319, Type (0, 1), None
#     Edge 320, Type (0, 1), None
#     Edge 321, Type (0, 1), None
#     Edge 322, Type (0, 1), None
#     Edge 323, Type (0, 1), None
#     Edge 324, Type (0, 1), None
#     Edge 325, Type (0, 1), None
#     Edge 326, Type (0, 1), None
#     Edge 327, Type (0, 1), None
#     Edge 328, Type (0, 1), None
#     Edge 329, Type (0, 1), None
#     Edge 330, Type (0, 1), None
#     Edge 331, Type (0, 1), None
#     Edge 332, Type (0, 1), None
#     Edge 333, Type (0, 1), None
#     Edge 334, Type (0, 1), None
#     Edge 335, Type (0, 1), None
#     Edge 336, Type (0, 1), None
#     Edge 337, Type (0, 1), None
#     Edge 338, Type (0, 1), None
#     Edge 339, Type (0, 1), None
#     Edge 340, Type (0, 1), None
#     Edge 341, Type (0, 1), None
#     Edge 342, Type (0, 1), None
#     Edge 343, Type (0, 1), None
#     Edge 344, Type (0, 1), None
#     Edge 345, Type (0, 1), None
#     Edge 346, Type (0, 1), None
#     Edge 347, Type (0, 1), None
#     Edge 348, Type (0, 1), None
#     Edge 349, Type (0, 1), None
#     Edge 350, Type (0, 1), None
#     Edge 351, Type (0, 1), None
#     Edge 352, Type (0, 1), None
#     Edge 353, Type (0, 1), None
#     Edge 354, Type (0, 1), None
#     Edge 355, Type (0, 1), None
#     Edge 356, Type (0, 1), None
#     Edge 357, Type (0, 1), None
#     Edge 358, Type (0, 1), None
#     Edge 359, Type (0, 1), None
#     Edge 360, Type (0, 1), None
#     Edge 361, Type (0, 1), None
#     Edge 362, Type (0, 1), None
#     Edge 363, Type (0, 1), None
#     Edge 364, Type (0, 1), None
#     Edge 365, Type (0, 1), None
#     Edge 366, Type (0, 1), None
#     Edge 367, Type (0, 1), None
#     Edge 368, Type (0, 1), None
#     Edge 369, Type (0, 1), None
#     Edge 370, Type (0, 1), None
#     Edge 371, Type (0, 1), None
#     Edge 372, Type (0, 1), None
#     Edge 373, Type (0, 1), None
#     Edge 374, Type (0, 1), None
#     Edge 375, Type (0, 1), None
#     Edge 376, Type (0, 1), None
#     Edge 377, Type (0, 1), None
#     Edge 378, Type (0, 1), None
#     Edge 379, Type (0, 1), None
#     Edge 380, Type (0, 1), None
#     Edge 381, Type (0, 1), None
#     Edge 382, Type (0, 1), None
#     Edge 383, Type (0, 1), None
#     Edge 384, Type (0, 1), None
#     Edge 385, Type (0, 1), None
#     Edge 386, Type (0, 1), None
#     Edge 387, Type (0, 1), None
#     Edge 388, Type (0, 1), None
#     Edge 389, Type (0, 1), None
#     Edge 390, Type (0, 1), None
#     Edge 391, Type (0, 1), None
#     Edge 392, Type (0, 1), None
#     Edge 393, Type (0, 1), None
#     Edge 394, Type (0, 1), None
#     Edge 395, Type (0, 1), None
#     Edge 396, Type (0, 1), None
#     Edge 397, Type (0, 1), None
#     Edge 398, Type (0, 1), None
#     Edge 399, Type (0, 1), None
#     Edge 400, Type (0, 1), None
#     Edge 401, Type (0, 1), None
#     Edge 402, Type (0, 1), None
#     Edge 403, Type (0, 1), None
#     Edge 404, Type (0, 1), None
#     Edge 405, Type (0, 1), None
#     Edge 406, Type (0, 1), None
#     Edge 407, Type (0, 1), None
#     Edge 408, Type (0, 1), None
#     Edge 409, Type (0, 1), None
#     Edge 410, Type (0, 1), None
#     Edge 411, Type (0, 1), None
#     Edge 412, Type (0, 1), None
#     Edge 413, Type (0, 1), None
#     Edge 414, Type (0, 1), None
#     Edge 415, Type (0, 1), None
#     Edge 416, Type (0, 1), None
#     Edge 417, Type (0, 1), None
#     Edge 418, Type (0, 1), None
#     Edge 419, Type (0, 1), None
#     Edge 420, Type (0, 1), None
#     Edge 421, Type (0, 1), None
#     Edge 422, Type (0, 1), None
#     Edge 423, Type (0, 1), None
#     Edge 424, Type (0, 1), None
#     Edge 425, Type (0, 1), None
#     Edge 426, Type (0, 1), None
#     Edge 427, Type (0, 1), None
#     Edge 428, Type (0, 1), None
#     Edge 429, Type (0, 1), None
#     Edge 430, Type (0, 1), None
#     Edge 431, Type (0, 1), None
#     Edge 432, Type (0, 1), None
#     Edge 433, Type (0, 1), None
#     Edge 434, Type (0, 1), None
#     Edge 435, Type (0, 1), None
#     Edge 436, Type (0, 1), None
#     Edge 437, Type (0, 1), None
#     Edge 438, Type (0, 1), None
#     Edge 439, Type (0, 1), None
#     Edge 440, Type (0, 1), None
#     Edge 441, Type (0, 1), None
#     Edge 442, Type (0, 1), None
#     Edge 443, Type (0, 1), None
#     Edge 444, Type (0, 1), None
#     Edge 445, Type (0, 1), None
#     Edge 446, Type (0, 1), None
#     Edge 447, Type (0, 1), None
#     Edge 448, Type (0, 1), None
#     Edge 449, Type (0, 1), None
#     Edge 450, Type (0, 1), None
#     Edge 451, Type (0, 1), None
#     Edge 452, Type (0, 1), None
#     Edge 453, Type (0, 1), None
#     Edge 454, Type (0, 1), None
#     Edge 455, Type (0, 1), None
#     Edge 456, Type (0, 1), None
#     Edge 457, Type (0, 1), None
#     Edge 458, Type (0, 1), None
#     Edge 459, Type (0, 1), None
#     Edge 460, Type (0, 1), None
#     Edge 461, Type (0, 1), None
#     Edge 462, Type (0, 1), None
#     Edge 463, Type (0, 1), None
#     Edge 464, Type (0, 1), None
#     Edge 465, Type (0, 1), None
#     Edge 466, Type (0, 1), None
#     Edge 467, Type (0, 1), None
#     Edge 468, Type (0, 1), None
#     Edge 469, Type (0, 1), None
#     Edge 470, Type (0, 1), None
#     Edge 471, Type (0, 1), None
#     Edge 472, Type (0, 1), None
#     Edge 473, Type (0, 1), None
#     Edge 474, Type (0, 1), None
#     Edge 475, Type (0, 1), None
#     Edge 476, Type (0, 1), None
#     Edge 477, Type (0, 1), None
#     Edge 478, Type (0, 1), None
#     Edge 479, Type (0, 1), None
# Relax obj value: 0.010
# Max RMSD: 0.058
# Mean RMSD: 0.040
data_MOF--net-ana-f--node1-WUSLED_clean_sbu_0--node2-QEWDON_clean_linker_0--edge1-none
_symmetry_space_group_name_H-M    P1
_symmetry_Int_Tables_number       1
_symmetry_cell_setting            triclinic
loop_
_symmetry_equiv_pos_as_xyz
'x, y, z'
_cell_length_a     110.20178
_cell_length_b     110.20258
_cell_length_c     110.20163
_cell_angle_alpha  89.999307
_cell_angle_beta   89.999062
_cell_angle_gamma 89.998462
loop_
_atom_site_label
_atom_site_type_symbol
_atom_site_fract_x
_atom_site_fract_y
_atom_site_fract_z
_atom_type_partial_charge
C0 C 0.09418 0.15275 0.44857 0.0
C1 C 0.10224 0.16217 0.45152 0.0
C2 C 0.11522 0.14804 0.46262 0.0
C3 C 0.11259 0.15986 0.45851 0.0
C4 C 0.10693 0.13869 0.45992 0.0
C5 C 0.09652 0.14103 0.45295 0.0
U6 U 0.08038 0.17188 0.42381 0.0
O7 O 0.0715 0.1673 0.40657 0.0
O8 O 0.06156 0.17788 0.42018 0.0
C9 C 0.06109 0.17225 0.40966 0.0
C10 C 0.08389 0.15498 0.44025 0.0
C11 C 0.05016 0.16485 0.40714 0.0
C12 C 0.04043 0.14512 0.40535 0.0
C13 C 0.04994 0.15238 0.40968 0.0
C14 C 0.03075 0.1628 0.39664 0.0
C15 C 0.03094 0.15018 0.39842 0.0
C16 C 0.04031 0.17006 0.40092 0.0
C17 C 0.10324 0.19829 0.41507 0.0
C18 C 0.11205 0.20659 0.39655 0.0
C19 C 0.11793 0.21474 0.41608 0.0
C20 C 0.10984 0.20683 0.42183 0.0
C21 C 0.11944 0.21436 0.40345 0.0
C22 C 0.10402 0.19856 0.40233 0.0
C23 C 0.09794 0.18788 0.42165 0.0
O24 O 0.07758 0.1649 0.44233 0.0
O25 O 0.08639 0.15344 0.4287 0.0
O26 O 0.09781 0.17738 0.416 0.0
O27 O 0.08845 0.18966 0.42867 0.0
H28 H 0.10067 0.17129 0.44819 0.0
H29 H 0.11865 0.16733 0.46053 0.0
H30 H 0.10871 0.12945 0.46278 0.0
H31 H 0.09047 0.13361 0.45071 0.0
H32 H 0.04079 0.13543 0.40695 0.0
H33 H 0.05739 0.14815 0.4145 0.0
H34 H 0.02364 0.16695 0.39126 0.0
H35 H 0.04031 0.17967 0.39886 0.0
H36 H 0.11321 0.20601 0.38681 0.0
H37 H 0.12364 0.22055 0.42158 0.0
H38 H 0.1095 0.20672 0.43165 0.0
H39 H 0.0991 0.192 0.3969 0.0
C40 C 0.12672 0.84419 0.69857 0.0
C41 C 0.1173 0.85225 0.70152 0.0
C42 C 0.13143 0.86523 0.71261 0.0
C43 C 0.11961 0.8626 0.70851 0.0
C44 C 0.14078 0.85694 0.70992 0.0
C45 C 0.13844 0.84653 0.70295 0.0
U46 U 0.10759 0.83039 0.67381 0.0
O47 O 0.11217 0.8215 0.65658 0.0
O48 O 0.10158 0.81157 0.67018 0.0
C49 C 0.10721 0.8111 0.65967 0.0
C50 C 0.12448 0.8339 0.69025 0.0
C51 C 0.11461 0.80017 0.65714 0.0
C52 C 0.13434 0.79044 0.65535 0.0
C53 C 0.12709 0.79994 0.65968 0.0
C54 C 0.11666 0.78076 0.64664 0.0
C55 C 0.12928 0.78094 0.64842 0.0
C56 C 0.1094 0.79032 0.65093 0.0
C57 C 0.08117 0.85325 0.66507 0.0
C58 C 0.07288 0.86205 0.64655 0.0
C59 C 0.06473 0.86794 0.66608 0.0
C60 C 0.07264 0.85985 0.67183 0.0
C61 C 0.06511 0.86945 0.65345 0.0
C62 C 0.08091 0.85402 0.65233 0.0
C63 C 0.09159 0.84795 0.67165 0.0
O64 O 0.11456 0.82759 0.69234 0.0
O65 O 0.12603 0.8364 0.6787 0.0
O66 O 0.10208 0.84781 0.666 0.0
O67 O 0.08981 0.83846 0.67867 0.0
H68 H 0.10818 0.85068 0.69819 0.0
H69 H 0.11214 0.86866 0.71053 0.0
H70 H 0.15001 0.85872 0.71278 0.0
H71 H 0.14586 0.84048 0.7007 0.0
H72 H 0.14403 0.79079 0.65695 0.0
H73 H 0.13132 0.80739 0.6645 0.0
H74 H 0.11251 0.77365 0.64127 0.0
H75 H 0.09979 0.79031 0.64887 0.0
H76 H 0.07345 0.86322 0.63681 0.0
H77 H 0.05892 0.87365 0.67158 0.0
H78 H 0.07275 0.85951 0.68166 0.0
H79 H 0.08746 0.8491 0.6469 0.0
C80 C 0.43527 0.87671 0.94857 0.0
C81 C 0.42721 0.86729 0.95151 0.0
C82 C 0.41423 0.88142 0.96261 0.0
C83 C 0.41686 0.8696 0.9585 0.0
C84 C 0.42252 0.89078 0.95991 0.0
C85 C 0.43293 0.88844 0.95295 0.0
U86 U 0.44907 0.85758 0.9238 0.0
O87 O 0.45795 0.86216 0.90656 0.0
O88 O 0.46789 0.85158 0.92017 0.0
C89 C 0.46836 0.85721 0.90966 0.0
C90 C 0.44556 0.87448 0.94024 0.0
C91 C 0.47929 0.86461 0.90713 0.0
C92 C 0.48901 0.88434 0.90534 0.0
C93 C 0.47951 0.87709 0.90967 0.0
C94 C 0.4987 0.86666 0.89663 0.0
C95 C 0.4985 0.87928 0.89841 0.0
C96 C 0.48913 0.8594 0.90092 0.0
C97 C 0.42621 0.83117 0.91506 0.0
C98 C 0.4174 0.82287 0.89655 0.0
C99 C 0.41152 0.81472 0.91608 0.0
C100 C 0.4196 0.82263 0.92182 0.0
C101 C 0.41001 0.8151 0.90345 0.0
C102 C 0.42543 0.8309 0.90232 0.0
C103 C 0.43151 0.84158 0.92165 0.0
O104 O 0.45187 0.86456 0.94233 0.0
O105 O 0.44306 0.87602 0.92869 0.0
O106 O 0.43164 0.85208 0.91599 0.0
O107 O 0.441 0.8398 0.92866 0.0
H108 H 0.42877 0.85818 0.94818 0.0
H109 H 0.4108 0.86214 0.96052 0.0
H110 H 0.42074 0.90001 0.96277 0.0
H111 H 0.43897 0.89585 0.9507 0.0
H112 H 0.48865 0.89403 0.90694 0.0
H113 H 0.47206 0.88131 0.91449 0.0
H114 H 0.5058 0.86251 0.89126 0.0
H115 H 0.48914 0.84979 0.89885 0.0
H116 H 0.41624 0.82345 0.8868 0.0
H117 H 0.4058 0.80891 0.92158 0.0
H118 H 0.41994 0.82274 0.93165 0.0
H119 H 0.43035 0.83746 0.8969 0.0
C120 C 0.40274 0.18525 0.19858 0.0
C121 C 0.41216 0.17719 0.20152 0.0
C122 C 0.39803 0.16421 0.21262 0.0
C123 C 0.40985 0.16685 0.20851 0.0
C124 C 0.38868 0.17251 0.20992 0.0
C125 C 0.39102 0.18291 0.20296 0.0
U126 U 0.42188 0.19905 0.17381 0.0
O127 O 0.4173 0.20794 0.15658 0.0
O128 O 0.42788 0.21787 0.17018 0.0
C129 C 0.42225 0.21834 0.15967 0.0
C130 C 0.40498 0.19555 0.19026 0.0
C131 C 0.41485 0.22927 0.15714 0.0
C132 C 0.39512 0.239 0.15535 0.0
C133 C 0.40237 0.2295 0.15968 0.0
C134 C 0.41281 0.24868 0.14664 0.0
C135 C 0.40018 0.2485 0.14842 0.0
C136 C 0.42006 0.23912 0.15093 0.0
C137 C 0.44829 0.17619 0.16508 0.0
C138 C 0.45658 0.16739 0.14656 0.0
C139 C 0.46474 0.16151 0.16609 0.0
C140 C 0.45683 0.16959 0.17184 0.0
C141 C 0.46435 0.15999 0.15346 0.0
C142 C 0.44856 0.17542 0.15233 0.0
C143 C 0.43787 0.18149 0.17166 0.0
O144 O 0.4149 0.20186 0.19234 0.0
O145 O 0.40344 0.19305 0.1787 0.0
O146 O 0.42738 0.18163 0.16601 0.0
O147 O 0.43966 0.19098 0.17867 0.0
H148 H 0.42128 0.17876 0.19819 0.0
H149 H 0.41732 0.16079 0.21053 0.0
H150 H 0.37945 0.17073 0.21278 0.0
H151 H 0.3836 0.18896 0.20071 0.0
H152 H 0.38543 0.23865 0.15695 0.0
H153 H 0.39815 0.22205 0.1645 0.0
H154 H 0.41696 0.25579 0.14127 0.0
H155 H 0.42968 0.23913 0.14887 0.0
H156 H 0.45601 0.16622 0.13682 0.0
H157 H 0.47055 0.15579 0.17159 0.0
H158 H 0.45671 0.16993 0.18166 0.0
H159 H 0.442 0.18034 0.14691 0.0
C160 C 0.0942 0.87671 0.08087 0.0
C161 C 0.10226 0.86729 0.07793 0.0
C162 C 0.11524 0.88142 0.06683 0.0
C163 C 0.11261 0.8696 0.07094 0.0
C164 C 0.10694 0.89077 0.06953 0.0
C165 C 0.09654 0.88843 0.07649 0.0
U166 U 0.0804 0.85758 0.10564 0.0
O167 O 0.07152 0.86216 0.12287 0.0
O168 O 0.06158 0.85158 0.10927 0.0
C169 C 0.06111 0.8572 0.11978 0.0
C170 C 0.08391 0.87447 0.08919 0.0
C171 C 0.05018 0.8646 0.12231 0.0
C172 C 0.04045 0.88433 0.1241 0.0
C173 C 0.04995 0.87708 0.11978 0.0
C174 C 0.03077 0.86665 0.13281 0.0
C175 C 0.03096 0.87927 0.13103 0.0
C176 C 0.04033 0.85939 0.12852 0.0
C177 C 0.10326 0.83116 0.11437 0.0
C178 C 0.11207 0.82287 0.13289 0.0
C179 C 0.11795 0.81472 0.11336 0.0
C180 C 0.10986 0.82263 0.10762 0.0
C181 C 0.11946 0.8151 0.12599 0.0
C182 C 0.10404 0.8309 0.12712 0.0
C183 C 0.09796 0.84158 0.10779 0.0
O184 O 0.0776 0.86456 0.08711 0.0
O185 O 0.08641 0.87602 0.10075 0.0
O186 O 0.09783 0.85207 0.11345 0.0
O187 O 0.08847 0.8398 0.10078 0.0
H188 H 0.10069 0.85817 0.08126 0.0
H189 H 0.11867 0.86213 0.06892 0.0
H190 H 0.10873 0.9 0.06667 0.0
H191 H 0.09049 0.89585 0.07874 0.0
H192 H 0.04081 0.89402 0.12251 0.0
H193 H 0.0574 0.88131 0.11495 0.0
H194 H 0.02366 0.8625 0.13818 0.0
H195 H 0.04033 0.84978 0.13059 0.0
H196 H 0.11323 0.82344 0.14264 0.0
H197 H 0.12366 0.80891 0.10786 0.0
H198 H 0.10952 0.82274 0.09779 0.0
H199 H 0.09912 0.83745 0.13254 0.0
C200 C 0.40274 0.84419 0.33088 0.0
C201 C 0.41216 0.85225 0.32794 0.0
C202 C 0.39803 0.86523 0.31684 0.0
C203 C 0.40985 0.8626 0.32095 0.0
C204 C 0.38868 0.85693 0.31954 0.0
C205 C 0.39102 0.84653 0.3265 0.0
U206 U 0.42187 0.83039 0.35565 0.0
O207 O 0.41729 0.8215 0.37289 0.0
O208 O 0.42787 0.81157 0.35928 0.0
C209 C 0.42224 0.8111 0.36979 0.0
C210 C 0.40497 0.83389 0.33921 0.0
C211 C 0.41484 0.80017 0.37232 0.0
C212 C 0.39511 0.79044 0.37411 0.0
C213 C 0.40237 0.79994 0.36978 0.0
C214 C 0.41279 0.78076 0.38282 0.0
C215 C 0.40017 0.78095 0.38104 0.0
C216 C 0.42005 0.79032 0.37853 0.0
C217 C 0.44829 0.85324 0.36439 0.0
C218 C 0.45658 0.86205 0.3829 0.0
C219 C 0.46473 0.86793 0.36337 0.0
C220 C 0.45682 0.85985 0.35763 0.0
C221 C 0.46435 0.86945 0.37601 0.0
C222 C 0.44855 0.85402 0.37713 0.0
C223 C 0.43787 0.84795 0.35781 0.0
O224 O 0.41489 0.82759 0.33712 0.0
O225 O 0.40343 0.83639 0.35076 0.0
O226 O 0.42737 0.84781 0.36346 0.0
O227 O 0.43965 0.83846 0.35079 0.0
H228 H 0.42128 0.85068 0.33127 0.0
H229 H 0.41732 0.86866 0.31893 0.0
H230 H 0.37945 0.85871 0.31668 0.0
H231 H 0.3836 0.84048 0.32875 0.0
H232 H 0.38542 0.7908 0.37251 0.0
H233 H 0.39814 0.80739 0.36496 0.0
H234 H 0.41694 0.77365 0.38819 0.0
H235 H 0.42966 0.79031 0.3806 0.0
H236 H 0.456 0.86322 0.39265 0.0
H237 H 0.47054 0.87365 0.35787 0.0
H238 H 0.45671 0.85951 0.3478 0.0
H239 H 0.44199 0.8491 0.38256 0.0
C240 C 0.43526 0.15274 0.58087 0.0
C241 C 0.4272 0.16216 0.57793 0.0
C242 C 0.41422 0.14803 0.56683 0.0
C243 C 0.41685 0.15985 0.57094 0.0
C244 C 0.42252 0.13867 0.56953 0.0
C245 C 0.43292 0.14101 0.5765 0.0
U246 U 0.44906 0.17187 0.60564 0.0
O247 O 0.45795 0.16728 0.62287 0.0
O248 O 0.46788 0.17787 0.60927 0.0
C249 C 0.46836 0.17224 0.61978 0.0
C250 C 0.44556 0.15497 0.5892 0.0
C251 C 0.47929 0.16484 0.62231 0.0
C252 C 0.48902 0.14511 0.6241 0.0
C253 C 0.47951 0.15236 0.61977 0.0
C254 C 0.4987 0.1628 0.63281 0.0
C255 C 0.49851 0.15017 0.63103 0.0
C256 C 0.48913 0.17005 0.62852 0.0
C257 C 0.42621 0.19828 0.61438 0.0
C258 C 0.4174 0.20657 0.6329 0.0
C259 C 0.41152 0.21473 0.61336 0.0
C260 C 0.4196 0.20682 0.60762 0.0
C261 C 0.41 0.21434 0.626 0.0
C262 C 0.42543 0.19854 0.62712 0.0
C263 C 0.4315 0.18786 0.6078 0.0
O264 O 0.45187 0.16489 0.58711 0.0
O265 O 0.44306 0.15343 0.60075 0.0
O266 O 0.43164 0.17737 0.61345 0.0
O267 O 0.44099 0.18965 0.60078 0.0
H268 H 0.42877 0.17127 0.58126 0.0
H269 H 0.41079 0.16731 0.56892 0.0
H270 H 0.42073 0.12944 0.56667 0.0
H271 H 0.43897 0.13359 0.57875 0.0
H272 H 0.48866 0.13542 0.6225 0.0
H273 H 0.47206 0.14814 0.61495 0.0
H274 H 0.50581 0.16694 0.63818 0.0
H275 H 0.48914 0.17966 0.63058 0.0
H276 H 0.41623 0.206 0.64264 0.0
H277 H 0.4058 0.22054 0.60787 0.0
H278 H 0.41994 0.2067 0.59779 0.0
H279 H 0.43035 0.19199 0.63255 0.0
C280 C 0.1267 0.18527 0.83087 0.0
C281 C 0.11729 0.17721 0.82793 0.0
C282 C 0.13141 0.16423 0.81683 0.0
C283 C 0.1196 0.16686 0.82094 0.0
C284 C 0.14077 0.17253 0.81953 0.0
C285 C 0.13843 0.18293 0.8265 0.0
U286 U 0.10757 0.19907 0.85564 0.0
O287 O 0.11216 0.20795 0.87288 0.0
O288 O 0.10157 0.21789 0.85927 0.0
C289 C 0.1072 0.21836 0.86978 0.0
C290 C 0.12447 0.19556 0.8392 0.0
C291 C 0.1146 0.22929 0.87231 0.0
C292 C 0.13433 0.23902 0.8741 0.0
C293 C 0.12708 0.22952 0.86977 0.0
C294 C 0.11665 0.2487 0.88281 0.0
C295 C 0.12928 0.24851 0.88103 0.0
C296 C 0.10939 0.23914 0.87853 0.0
C297 C 0.08116 0.17621 0.86438 0.0
C298 C 0.07287 0.1674 0.8829 0.0
C299 C 0.06472 0.16152 0.86337 0.0
C300 C 0.07262 0.16961 0.85762 0.0
C301 C 0.0651 0.16001 0.876 0.0
C302 C 0.0809 0.17544 0.87712 0.0
C303 C 0.09158 0.18151 0.8578 0.0
O304 O 0.11455 0.20187 0.83711 0.0
O305 O 0.12601 0.19306 0.85075 0.0
O306 O 0.10207 0.18165 0.86345 0.0
O307 O 0.08979 0.191 0.85078 0.0
H308 H 0.10817 0.17878 0.83126 0.0
H309 H 0.11213 0.1608 0.81892 0.0
H310 H 0.15 0.17074 0.81667 0.0
H311 H 0.14585 0.18898 0.82874 0.0
H312 H 0.14403 0.23866 0.8725 0.0
H313 H 0.1313 0.22206 0.86495 0.0
H314 H 0.1125 0.25581 0.88818 0.0
H315 H 0.09978 0.23914 0.88059 0.0
H316 H 0.07344 0.16624 0.89264 0.0
H317 H 0.05891 0.15581 0.85787 0.0
H318 H 0.07274 0.16995 0.84779 0.0
H319 H 0.08745 0.18036 0.88255 0.0
C320 C 0.44858 0.09418 0.15275 0.0
C321 C 0.45152 0.10224 0.16217 0.0
C322 C 0.46262 0.11522 0.14804 0.0
C323 C 0.45851 0.11259 0.15986 0.0
C324 C 0.45993 0.10692 0.13869 0.0
C325 C 0.45296 0.09652 0.14103 0.0
U326 U 0.42381 0.08038 0.17188 0.0
O327 O 0.40658 0.0715 0.1673 0.0
O328 O 0.42018 0.06156 0.17788 0.0
C329 C 0.40967 0.06109 0.17225 0.0
C330 C 0.44026 0.08389 0.15498 0.0
C331 C 0.40714 0.05016 0.16485 0.0
C332 C 0.40536 0.04043 0.14512 0.0
C333 C 0.40968 0.04993 0.15238 0.0
C334 C 0.39664 0.03075 0.1628 0.0
C335 C 0.39842 0.03094 0.15018 0.0
C336 C 0.40093 0.04031 0.17006 0.0
C337 C 0.41507 0.10324 0.19829 0.0
C338 C 0.39656 0.11205 0.20659 0.0
C339 C 0.41609 0.11793 0.21474 0.0
C340 C 0.42183 0.10984 0.20683 0.0
C341 C 0.40345 0.11944 0.21436 0.0
C342 C 0.40233 0.10401 0.19856 0.0
C343 C 0.42166 0.09794 0.18788 0.0
O344 O 0.44234 0.07758 0.1649 0.0
O345 O 0.4287 0.08639 0.15344 0.0
O346 O 0.416 0.0978 0.17738 0.0
O347 O 0.42867 0.08845 0.18966 0.0
H348 H 0.44819 0.10067 0.17129 0.0
H349 H 0.46053 0.11865 0.16733 0.0
H350 H 0.46278 0.1087 0.12945 0.0
H351 H 0.45071 0.09047 0.13361 0.0
H352 H 0.40696 0.04079 0.13543 0.0
H353 H 0.4145 0.05739 0.14815 0.0
H354 H 0.39127 0.02364 0.16695 0.0
H355 H 0.39886 0.04031 0.17967 0.0
H356 H 0.38681 0.11321 0.20601 0.0
H357 H 0.42159 0.12364 0.22055 0.0
H358 H 0.43166 0.1095 0.20672 0.0
H359 H 0.3969 0.09909 0.192 0.0
C360 C 0.18526 0.19858 0.40274 0.0
C361 C 0.17719 0.20152 0.41216 0.0
C362 C 0.16422 0.21262 0.39803 0.0
C363 C 0.16685 0.20851 0.40985 0.0
C364 C 0.17251 0.20992 0.38868 0.0
C365 C 0.18292 0.20296 0.39102 0.0
U366 U 0.19905 0.17381 0.42187 0.0
O367 O 0.20794 0.15658 0.41729 0.0
O368 O 0.21787 0.17018 0.42787 0.0
C369 C 0.21834 0.15967 0.42224 0.0
C370 C 0.19555 0.19026 0.40497 0.0
C371 C 0.22928 0.15714 0.41484 0.0
C372 C 0.239 0.15535 0.39512 0.0
C373 C 0.2295 0.15968 0.40237 0.0
C374 C 0.24869 0.14664 0.4128 0.0
C375 C 0.2485 0.14842 0.40018 0.0
C376 C 0.23912 0.15093 0.42006 0.0
C377 C 0.1762 0.16508 0.44829 0.0
C378 C 0.16739 0.14656 0.45658 0.0
C379 C 0.16151 0.16609 0.46473 0.0
C380 C 0.16959 0.17183 0.45682 0.0
C381 C 0.15999 0.15346 0.46435 0.0
C382 C 0.17542 0.15233 0.44855 0.0
C383 C 0.18149 0.17166 0.43787 0.0
O384 O 0.20186 0.19234 0.41489 0.0
O385 O 0.19305 0.1787 0.40343 0.0
O386 O 0.18163 0.16601 0.42737 0.0
O387 O 0.19098 0.17867 0.43965 0.0
H388 H 0.17876 0.19819 0.42128 0.0
H389 H 0.16079 0.21053 0.41732 0.0
H390 H 0.17073 0.21278 0.37944 0.0
H391 H 0.18896 0.20071 0.3836 0.0
H392 H 0.23865 0.15695 0.38542 0.0
H393 H 0.22205 0.1645 0.39814 0.0
H394 H 0.25579 0.14127 0.41695 0.0
H395 H 0.23913 0.14886 0.42967 0.0
H396 H 0.16622 0.13681 0.456 0.0
H397 H 0.15579 0.17159 0.47054 0.0
H398 H 0.16993 0.18166 0.45671 0.0
H399 H 0.18034 0.14691 0.442 0.0
C400 C 0.08088 0.93526 0.65274 0.0
C401 C 0.07793 0.9272 0.66216 0.0
C402 C 0.06684 0.91422 0.64803 0.0
C403 C 0.07095 0.91685 0.65985 0.0
C404 C 0.06954 0.92252 0.63867 0.0
C405 C 0.0765 0.93292 0.64101 0.0
U406 U 0.10564 0.94906 0.67187 0.0
O407 O 0.12288 0.95795 0.66729 0.0
O408 O 0.10927 0.96788 0.67787 0.0
C409 C 0.11979 0.96836 0.67224 0.0
C410 C 0.0892 0.94556 0.65497 0.0
C411 C 0.12231 0.97929 0.66484 0.0
C412 C 0.1241 0.98902 0.64511 0.0
C413 C 0.11978 0.97951 0.65237 0.0
C414 C 0.13281 0.9987 0.6628 0.0
C415 C 0.13103 0.99851 0.65017 0.0
C416 C 0.12852 0.98913 0.67005 0.0
C417 C 0.11438 0.92621 0.69828 0.0
C418 C 0.1329 0.9174 0.70658 0.0
C419 C 0.11337 0.91152 0.71473 0.0
C420 C 0.10762 0.9196 0.70682 0.0
C421 C 0.126 0.91 0.71435 0.0
C422 C 0.12713 0.92543 0.69855 0.0
C423 C 0.1078 0.9315 0.68787 0.0
O424 O 0.08712 0.95187 0.66489 0.0
O425 O 0.10075 0.94306 0.65343 0.0
O426 O 0.11345 0.93164 0.67737 0.0
O427 O 0.10078 0.94099 0.68965 0.0
H428 H 0.08127 0.92877 0.67127 0.0
H429 H 0.06893 0.91079 0.66731 0.0
H430 H 0.06668 0.92074 0.62944 0.0
H431 H 0.07875 0.93897 0.6336 0.0
H432 H 0.1225 0.98866 0.63542 0.0
H433 H 0.11496 0.97206 0.64814 0.0
H434 H 0.13818 1.00581 0.66695 0.0
H435 H 0.13059 0.98914 0.67967 0.0
H436 H 0.14264 0.91624 0.706 0.0
H437 H 0.10787 0.9058 0.72054 0.0
H438 H 0.0978 0.91994 0.7067 0.0
H439 H 0.13255 0.93035 0.69199 0.0
C440 C 0.34419 0.83088 0.90274 0.0
C441 C 0.35225 0.82794 0.91215 0.0
C442 C 0.36523 0.81684 0.89803 0.0
C443 C 0.3626 0.82095 0.90985 0.0
C444 C 0.35694 0.81954 0.88867 0.0
C445 C 0.34653 0.8265 0.89101 0.0
U446 U 0.33039 0.85565 0.92187 0.0
O447 O 0.32151 0.87288 0.91728 0.0
O448 O 0.31157 0.85928 0.92787 0.0
C449 C 0.3111 0.86979 0.92224 0.0
C450 C 0.3339 0.8392 0.90497 0.0
C451 C 0.30017 0.87232 0.91484 0.0
C452 C 0.29045 0.87411 0.89511 0.0
C453 C 0.29995 0.86978 0.90236 0.0
C454 C 0.28076 0.88282 0.91279 0.0
C455 C 0.28095 0.88104 0.90017 0.0
C456 C 0.29033 0.87853 0.92005 0.0
C457 C 0.35325 0.86439 0.94828 0.0
C458 C 0.36206 0.8829 0.95657 0.0
C459 C 0.36794 0.86337 0.96473 0.0
C460 C 0.35986 0.85763 0.95682 0.0
C461 C 0.36945 0.87601 0.96434 0.0
C462 C 0.35403 0.87713 0.94854 0.0
C463 C 0.34795 0.8578 0.93786 0.0
O464 O 0.32759 0.83712 0.91489 0.0
O465 O 0.3364 0.85076 0.90343 0.0
O466 O 0.34782 0.86346 0.92737 0.0
O467 O 0.33846 0.85079 0.93965 0.0
H468 H 0.35069 0.83127 0.92127 0.0
H469 H 0.36866 0.81893 0.91731 0.0
H470 H 0.35872 0.81668 0.87944 0.0
H471 H 0.34049 0.82875 0.88359 0.0
H472 H 0.2908 0.87251 0.88541 0.0
H473 H 0.3074 0.86496 0.89813 0.0
H474 H 0.27365 0.88819 0.91694 0.0
H475 H 0.29032 0.8806 0.92966 0.0
H476 H 0.36323 0.89265 0.956 0.0
H477 H 0.37365 0.85787 0.97054 0.0
H478 H 0.35951 0.8478 0.95671 0.0
H479 H 0.34911 0.88255 0.94199 0.0
C480 C 0.44857 0.93526 0.37671 0.0
C481 C 0.45151 0.9272 0.3673 0.0
C482 C 0.46261 0.91422 0.38142 0.0
C483 C 0.4585 0.91685 0.36961 0.0
C484 C 0.45992 0.92251 0.39078 0.0
C485 C 0.45295 0.93292 0.38844 0.0
U486 U 0.4238 0.94906 0.35758 0.0
O487 O 0.40657 0.95794 0.36217 0.0
O488 O 0.42017 0.96788 0.35158 0.0
C489 C 0.40966 0.96835 0.35721 0.0
C490 C 0.44025 0.94555 0.37448 0.0
C491 C 0.40713 0.97928 0.36461 0.0
C492 C 0.40534 0.98901 0.38434 0.0
C493 C 0.40967 0.9795 0.37709 0.0
C494 C 0.39663 0.99869 0.36666 0.0
C495 C 0.39841 0.9985 0.37928 0.0
C496 C 0.40092 0.98913 0.3594 0.0
C497 C 0.41507 0.9262 0.33117 0.0
C498 C 0.39655 0.91739 0.32288 0.0
C499 C 0.41608 0.91151 0.31472 0.0
C500 C 0.42182 0.9196 0.32263 0.0
C501 C 0.40345 0.91 0.31511 0.0
C502 C 0.40232 0.92542 0.33091 0.0
C503 C 0.42165 0.9315 0.34159 0.0
O504 O 0.44233 0.95186 0.36456 0.0
O505 O 0.42869 0.94305 0.37602 0.0
O506 O 0.416 0.93163 0.35208 0.0
O507 O 0.42866 0.94099 0.3398 0.0
H508 H 0.44818 0.92877 0.35818 0.0
H509 H 0.46052 0.91079 0.36214 0.0
H510 H 0.46278 0.92073 0.40001 0.0
H511 H 0.4507 0.93897 0.39585 0.0
H512 H 0.40694 0.98865 0.39403 0.0
H513 H 0.41449 0.97205 0.38132 0.0
H514 H 0.39126 1.0058 0.36251 0.0
H515 H 0.39885 0.98913 0.34979 0.0
H516 H 0.38681 0.91623 0.32345 0.0
H517 H 0.42158 0.9058 0.30891 0.0
H518 H 0.43165 0.91994 0.32274 0.0
H519 H 0.3969 0.93034 0.33746 0.0
C520 C 0.34419 0.19857 0.62671 0.0
C521 C 0.35225 0.20152 0.61729 0.0
C522 C 0.36523 0.21261 0.63142 0.0
C523 C 0.3626 0.20851 0.6196 0.0
C524 C 0.35694 0.20992 0.64078 0.0
C525 C 0.34653 0.20295 0.63844 0.0
U526 U 0.33039 0.17381 0.60758 0.0
O527 O 0.3215 0.15658 0.61216 0.0
O528 O 0.31157 0.17018 0.60158 0.0
C529 C 0.3111 0.15967 0.60721 0.0
C530 C 0.3339 0.19025 0.62448 0.0
C531 C 0.30017 0.15714 0.61461 0.0
C532 C 0.29044 0.15535 0.63434 0.0
C533 C 0.29994 0.15968 0.62708 0.0
C534 C 0.28076 0.14664 0.61665 0.0
C535 C 0.28094 0.14842 0.62928 0.0
C536 C 0.29032 0.15093 0.6094 0.0
C537 C 0.35325 0.16507 0.58117 0.0
C538 C 0.36205 0.14655 0.57287 0.0
C539 C 0.36794 0.16609 0.56472 0.0
C540 C 0.35985 0.17183 0.57263 0.0
C541 C 0.36945 0.15345 0.5651 0.0
C542 C 0.35402 0.15233 0.5809 0.0
C543 C 0.34795 0.17165 0.59158 0.0
O544 O 0.32759 0.19234 0.61456 0.0
O545 O 0.3364 0.1787 0.62602 0.0
O546 O 0.34781 0.166 0.60208 0.0
O547 O 0.33846 0.17867 0.5898 0.0
H548 H 0.35068 0.19819 0.60818 0.0
H549 H 0.36866 0.21053 0.61213 0.0
H550 H 0.35872 0.21278 0.65001 0.0
H551 H 0.34048 0.2007 0.64585 0.0
H552 H 0.29079 0.15695 0.64403 0.0
H553 H 0.30739 0.1645 0.63131 0.0
H554 H 0.27365 0.14127 0.6125 0.0
H555 H 0.29031 0.14887 0.59978 0.0
H556 H 0.36322 0.13681 0.57345 0.0
H557 H 0.37365 0.17158 0.55891 0.0
H558 H 0.35951 0.18166 0.57275 0.0
H559 H 0.3491 0.1469 0.58746 0.0
C560 C 0.08088 0.0942 0.87671 0.0
C561 C 0.07793 0.10226 0.86729 0.0
C562 C 0.06683 0.11524 0.88142 0.0
C563 C 0.07094 0.11261 0.8696 0.0
C564 C 0.06953 0.10694 0.89077 0.0
C565 C 0.0765 0.09654 0.88843 0.0
U566 U 0.10564 0.0804 0.85758 0.0
O567 O 0.12288 0.07151 0.86216 0.0
O568 O 0.10927 0.06158 0.85158 0.0
C569 C 0.11979 0.06111 0.85721 0.0
C570 C 0.0892 0.0839 0.87448 0.0
C571 C 0.12231 0.05018 0.86461 0.0
C572 C 0.12411 0.04045 0.88433 0.0
C573 C 0.11978 0.04995 0.87708 0.0
C574 C 0.13281 0.03077 0.86665 0.0
C575 C 0.13104 0.03096 0.87927 0.0
C576 C 0.12853 0.04033 0.85939 0.0
C577 C 0.11438 0.10326 0.83116 0.0
C578 C 0.13289 0.11206 0.82287 0.0
C579 C 0.11336 0.11794 0.81472 0.0
C580 C 0.10762 0.10986 0.82263 0.0
C581 C 0.126 0.11946 0.8151 0.0
C582 C 0.12712 0.10403 0.8309 0.0
C583 C 0.1078 0.09796 0.84158 0.0
O584 O 0.08711 0.07759 0.86456 0.0
O585 O 0.10075 0.0864 0.87602 0.0
O586 O 0.11345 0.09782 0.85208 0.0
O587 O 0.10078 0.08847 0.8398 0.0
H588 H 0.08126 0.10069 0.85817 0.0
H589 H 0.06892 0.11866 0.86213 0.0
H590 H 0.06667 0.10872 0.90001 0.0
H591 H 0.07875 0.09049 0.89585 0.0
H592 H 0.12251 0.0408 0.89403 0.0
H593 H 0.11496 0.0574 0.88131 0.0
H594 H 0.13818 0.02366 0.8625 0.0
H595 H 0.13059 0.04032 0.84978 0.0
H596 H 0.14264 0.11323 0.82344 0.0
H597 H 0.10786 0.12366 0.80891 0.0
H598 H 0.09779 0.10952 0.82274 0.0
H599 H 0.13255 0.09911 0.83745 0.0
C600 C 0.18527 0.83087 0.1267 0.0
C601 C 0.17721 0.82793 0.11728 0.0
C602 C 0.16424 0.81683 0.13141 0.0
C603 C 0.16687 0.82094 0.11959 0.0
C604 C 0.17253 0.81953 0.14077 0.0
C605 C 0.18293 0.82649 0.13842 0.0
U606 U 0.19907 0.85564 0.10757 0.0
O607 O 0.20796 0.87288 0.11215 0.0
O608 O 0.21789 0.85927 0.10157 0.0
C609 C 0.21836 0.86978 0.1072 0.0
C610 C 0.19557 0.8392 0.12447 0.0
C611 C 0.2293 0.87231 0.1146 0.0
C612 C 0.23902 0.8741 0.13433 0.0
C613 C 0.22952 0.86977 0.12707 0.0
C614 C 0.2487 0.88281 0.11665 0.0
C615 C 0.24851 0.88103 0.12927 0.0
C616 C 0.23914 0.87852 0.10939 0.0
C617 C 0.17622 0.86438 0.08116 0.0
C618 C 0.16741 0.8829 0.07287 0.0
C619 C 0.16153 0.86337 0.06471 0.0
C620 C 0.16961 0.85762 0.07262 0.0
C621 C 0.16001 0.876 0.06509 0.0
C622 C 0.17544 0.87712 0.08089 0.0
C623 C 0.18151 0.8578 0.09157 0.0
O624 O 0.20188 0.83711 0.11455 0.0
O625 O 0.19307 0.85075 0.12601 0.0
O626 O 0.18165 0.86345 0.10207 0.0
O627 O 0.191 0.85078 0.08979 0.0
H628 H 0.17878 0.83126 0.10816 0.0
H629 H 0.16081 0.81892 0.11212 0.0
H630 H 0.17075 0.81667 0.15 0.0
H631 H 0.18898 0.82874 0.14584 0.0
H632 H 0.23867 0.8725 0.14402 0.0
H633 H 0.22207 0.86495 0.1313 0.0
H634 H 0.25581 0.88818 0.1125 0.0
H635 H 0.23915 0.88059 0.09978 0.0
H636 H 0.16624 0.89264 0.07344 0.0
H637 H 0.15581 0.85787 0.0589 0.0
H638 H 0.16995 0.84779 0.07273 0.0
H639 H 0.18036 0.88255 0.08745 0.0
C640 C 0.15276 0.44858 0.09418 0.0
C641 C 0.16217 0.45152 0.10224 0.0
C642 C 0.14805 0.46262 0.11522 0.0
C643 C 0.15986 0.45851 0.11259 0.0
C644 C 0.13869 0.45992 0.10693 0.0
C645 C 0.14103 0.45296 0.09652 0.0
U646 U 0.17188 0.42381 0.08038 0.0
O647 O 0.1673 0.40657 0.0715 0.0
O648 O 0.17789 0.42018 0.06156 0.0
C649 C 0.17226 0.40967 0.06109 0.0
C650 C 0.15499 0.44025 0.08389 0.0
C651 C 0.16485 0.40714 0.05016 0.0
C652 C 0.14513 0.40535 0.04043 0.0
C653 C 0.15238 0.40968 0.04994 0.0
C654 C 0.16281 0.39664 0.03075 0.0
C655 C 0.15018 0.39842 0.03094 0.0
C656 C 0.17007 0.40093 0.04031 0.0
C657 C 0.1983 0.41507 0.10324 0.0
C658 C 0.20659 0.39655 0.11205 0.0
C659 C 0.21474 0.41608 0.11793 0.0
C660 C 0.20684 0.42183 0.10984 0.0
C661 C 0.21436 0.40345 0.11944 0.0
C662 C 0.19856 0.40233 0.10402 0.0
C663 C 0.18788 0.42165 0.09794 0.0
O664 O 0.16491 0.44234 0.07758 0.0
O665 O 0.15345 0.4287 0.08639 0.0
O666 O 0.17739 0.416 0.09781 0.0
O667 O 0.18966 0.42867 0.08845 0.0
H668 H 0.17129 0.44819 0.10067 0.0
H669 H 0.16733 0.46053 0.11865 0.0
H670 H 0.12946 0.46278 0.10871 0.0
H671 H 0.13361 0.45071 0.09047 0.0
H672 H 0.13543 0.40695 0.04079 0.0
H673 H 0.14815 0.4145 0.05739 0.0
H674 H 0.16695 0.39127 0.02364 0.0
H675 H 0.17968 0.39886 0.04031 0.0
H676 H 0.20601 0.38681 0.11321 0.0
H677 H 0.22055 0.42158 0.12364 0.0
H678 H 0.20672 0.43166 0.1095 0.0
H679 H 0.19201 0.3969 0.0991 0.0
C680 C 0.65274 0.08088 0.93526 0.0
C681 C 0.66216 0.07793 0.9272 0.0
C682 C 0.64803 0.06684 0.91422 0.0
C683 C 0.65985 0.07094 0.91685 0.0
C684 C 0.63867 0.06953 0.92251 0.0
C685 C 0.64101 0.0765 0.93292 0.0
U686 U 0.67187 0.10564 0.94906 0.0
O687 O 0.66729 0.12288 0.95795 0.0
O688 O 0.67787 0.10927 0.96788 0.0
C689 C 0.67224 0.11978 0.96835 0.0
C690 C 0.65497 0.0892 0.94555 0.0
C691 C 0.66484 0.12231 0.97928 0.0
C692 C 0.64511 0.1241 0.98901 0.0
C693 C 0.65237 0.11978 0.97951 0.0
C694 C 0.6628 0.13281 0.99869 0.0
C695 C 0.65017 0.13103 0.99851 0.0
C696 C 0.67005 0.12852 0.98913 0.0
C697 C 0.69828 0.11438 0.9262 0.0
C698 C 0.70658 0.1329 0.9174 0.0
C699 C 0.71473 0.11337 0.91151 0.0
C700 C 0.70682 0.10762 0.9196 0.0
C701 C 0.71435 0.126 0.91 0.0
C702 C 0.69855 0.12712 0.92543 0.0
C703 C 0.68787 0.1078 0.9315 0.0
O704 O 0.66489 0.08712 0.95186 0.0
O705 O 0.65343 0.10075 0.94305 0.0
O706 O 0.67737 0.11345 0.93164 0.0
O707 O 0.68965 0.10078 0.94099 0.0
H708 H 0.67128 0.08126 0.92877 0.0
H709 H 0.66732 0.06892 0.91079 0.0
H710 H 0.62944 0.06668 0.92073 0.0
H711 H 0.6336 0.07875 0.93896 0.0
H712 H 0.63542 0.12251 0.98866 0.0
H713 H 0.64814 0.11496 0.97206 0.0
H714 H 0.66695 0.13818 1.0058 0.0
H715 H 0.67967 0.13059 0.98914 0.0
H716 H 0.706 0.14264 0.91623 0.0
H717 H 0.72054 0.10787 0.9058 0.0
H718 H 0.70671 0.0978 0.91994 0.0
H719 H 0.69199 0.13255 0.93035 0.0
C720 C 0.19858 0.40274 0.18526 0.0
C721 C 0.20153 0.41216 0.1772 0.0
C722 C 0.21263 0.39803 0.16422 0.0
C723 C 0.20852 0.40985 0.16685 0.0
C724 C 0.20993 0.38868 0.17251 0.0
C725 C 0.20296 0.39102 0.18292 0.0
U726 U 0.17382 0.42187 0.19906 0.0
O727 O 0.15658 0.41729 0.20794 0.0
O728 O 0.17019 0.42788 0.21788 0.0
C729 C 0.15967 0.42225 0.21835 0.0
C730 C 0.19026 0.40498 0.19555 0.0
C731 C 0.15715 0.41485 0.22928 0.0
C732 C 0.15535 0.39512 0.239 0.0
C733 C 0.15968 0.40237 0.2295 0.0
C734 C 0.14665 0.4128 0.24869 0.0
C735 C 0.14842 0.40018 0.2485 0.0
C736 C 0.15093 0.42006 0.23912 0.0
C737 C 0.16508 0.44829 0.1762 0.0
C738 C 0.14657 0.45658 0.16739 0.0
C739 C 0.1661 0.46473 0.16151 0.0
C740 C 0.17184 0.45682 0.16959 0.0
C741 C 0.15346 0.46435 0.15999 0.0
C742 C 0.15234 0.44855 0.17542 0.0
C743 C 0.17166 0.43787 0.18149 0.0
O744 O 0.19234 0.4149 0.20186 0.0
O745 O 0.17871 0.40344 0.19305 0.0
O746 O 0.16601 0.42738 0.18163 0.0
O747 O 0.17868 0.43965 0.19099 0.0
H748 H 0.1982 0.42128 0.17876 0.0
H749 H 0.21054 0.41732 0.16079 0.0
H750 H 0.21279 0.37945 0.17073 0.0
H751 H 0.20071 0.3836 0.18896 0.0
H752 H 0.15695 0.38543 0.23865 0.0
H753 H 0.1645 0.39815 0.22205 0.0
H754 H 0.14127 0.41695 0.2558 0.0
H755 H 0.14887 0.42967 0.23913 0.0
H756 H 0.13682 0.45601 0.16622 0.0
H757 H 0.1716 0.47054 0.15579 0.0
H758 H 0.18167 0.45671 0.16993 0.0
H759 H 0.14691 0.442 0.18034 0.0
C760 C 0.87672 0.94857 0.43526 0.0
C761 C 0.8673 0.95151 0.4272 0.0
C762 C 0.88143 0.96261 0.41422 0.0
C763 C 0.86961 0.9585 0.41685 0.0
C764 C 0.89078 0.95991 0.42252 0.0
C765 C 0.88844 0.95294 0.43292 0.0
U766 U 0.85759 0.9238 0.44906 0.0
O767 O 0.86217 0.90656 0.45794 0.0
O768 O 0.85159 0.92017 0.46788 0.0
C769 C 0.85722 0.90966 0.46835 0.0
C770 C 0.87449 0.94024 0.44555 0.0
C771 C 0.86462 0.90713 0.47928 0.0
C772 C 0.88435 0.90534 0.48901 0.0
C773 C 0.87709 0.90966 0.47951 0.0
C774 C 0.86666 0.89663 0.49869 0.0
C775 C 0.87929 0.89841 0.4985 0.0
C776 C 0.85941 0.90092 0.48913 0.0
C777 C 0.83117 0.91506 0.4262 0.0
C778 C 0.82288 0.89655 0.4174 0.0
C779 C 0.81473 0.91608 0.41152 0.0
C780 C 0.82264 0.92182 0.4196 0.0
C781 C 0.81511 0.90344 0.41 0.0
C782 C 0.83091 0.90232 0.42543 0.0
C783 C 0.84159 0.92164 0.4315 0.0
O784 O 0.86457 0.94233 0.45186 0.0
O785 O 0.87603 0.92869 0.44305 0.0
O786 O 0.85209 0.91599 0.43164 0.0
O787 O 0.83981 0.92866 0.44099 0.0
H788 H 0.85818 0.94818 0.42877 0.0
H789 H 0.86214 0.96052 0.41079 0.0
H790 H 0.90001 0.96277 0.42073 0.0
H791 H 0.89586 0.9507 0.43897 0.0
H792 H 0.89404 0.90694 0.48865 0.0
H793 H 0.88132 0.91449 0.47205 0.0
H794 H 0.86252 0.89126 0.5058 0.0
H795 H 0.84979 0.89885 0.48913 0.0
H796 H 0.82346 0.8868 0.41623 0.0
H797 H 0.80892 0.92158 0.4058 0.0
H798 H 0.82275 0.93165 0.41994 0.0
H799 H 0.83746 0.89689 0.43035 0.0
C800 C 0.83087 0.1267 0.18527 0.0
C801 C 0.82793 0.11728 0.17721 0.0
C802 C 0.81683 0.13141 0.16423 0.0
C803 C 0.82094 0.11959 0.16686 0.0
C804 C 0.81953 0.14076 0.17252 0.0
C805 C 0.8265 0.13842 0.18293 0.0
U806 U 0.85564 0.10757 0.19907 0.0
O807 O 0.87288 0.11215 0.20795 0.0
O808 O 0.85927 0.10157 0.21789 0.0
C809 C 0.86979 0.1072 0.21836 0.0
C810 C 0.8392 0.12446 0.19556 0.0
C811 C 0.87231 0.1146 0.22929 0.0
C812 C 0.8741 0.13433 0.23902 0.0
C813 C 0.86977 0.12707 0.22952 0.0
C814 C 0.88281 0.11664 0.2487 0.0
C815 C 0.88103 0.12927 0.24851 0.0
C816 C 0.87853 0.10939 0.23914 0.0
C817 C 0.86438 0.08115 0.17621 0.0
C818 C 0.8829 0.07286 0.1674 0.0
C819 C 0.86337 0.06471 0.16152 0.0
C820 C 0.85762 0.07262 0.1696 0.0
C821 C 0.876 0.06509 0.16001 0.0
C822 C 0.87713 0.08089 0.17543 0.0
C823 C 0.8578 0.09157 0.18151 0.0
O824 O 0.83711 0.11454 0.20187 0.0
O825 O 0.85075 0.12601 0.19306 0.0
O826 O 0.86345 0.10207 0.18164 0.0
O827 O 0.85078 0.08979 0.191 0.0
H828 H 0.83126 0.10816 0.17878 0.0
H829 H 0.81892 0.11212 0.1608 0.0
H830 H 0.81667 0.14999 0.17074 0.0
H831 H 0.82874 0.14584 0.18898 0.0
H832 H 0.8725 0.14402 0.23866 0.0
H833 H 0.86495 0.1313 0.22206 0.0
H834 H 0.88818 0.1125 0.25581 0.0
H835 H 0.88059 0.09977 0.23914 0.0
H836 H 0.89264 0.07344 0.16624 0.0
H837 H 0.85787 0.0589 0.15581 0.0
H838 H 0.8478 0.07273 0.16995 0.0
H839 H 0.88255 0.08745 0.18035 0.0
C840 C 0.37671 0.58087 0.59419 0.0
C841 C 0.36729 0.57792 0.60225 0.0
C842 C 0.38142 0.56682 0.61523 0.0
C843 C 0.3696 0.57093 0.6126 0.0
C844 C 0.39077 0.56952 0.60694 0.0
C845 C 0.38843 0.57649 0.59653 0.0
U846 U 0.35758 0.60563 0.58039 0.0
O847 O 0.36216 0.62287 0.57151 0.0
O848 O 0.35157 0.60926 0.56157 0.0
C849 C 0.3572 0.61978 0.5611 0.0
C850 C 0.37448 0.58919 0.5839 0.0
C851 C 0.3646 0.6223 0.55017 0.0
C852 C 0.38433 0.6241 0.54044 0.0
C853 C 0.37708 0.61977 0.54995 0.0
C854 C 0.36665 0.6328 0.53076 0.0
C855 C 0.37927 0.63103 0.53095 0.0
C856 C 0.35939 0.62852 0.54033 0.0
C857 C 0.33116 0.61437 0.60325 0.0
C858 C 0.32287 0.63288 0.61206 0.0
C859 C 0.31472 0.61335 0.61794 0.0
C860 C 0.32263 0.60761 0.60986 0.0
C861 C 0.3151 0.62599 0.61945 0.0
C862 C 0.3309 0.62711 0.60403 0.0
C863 C 0.34158 0.60779 0.59795 0.0
O864 O 0.36456 0.58711 0.57759 0.0
O865 O 0.37602 0.60074 0.5864 0.0
O866 O 0.35207 0.61344 0.59782 0.0
O867 O 0.3398 0.60077 0.58846 0.0
H868 H 0.35817 0.58125 0.60069 0.0
H869 H 0.36213 0.56891 0.61866 0.0
H870 H 0.40001 0.56666 0.60872 0.0
H871 H 0.39585 0.57874 0.59049 0.0
H872 H 0.39402 0.6225 0.5408 0.0
H873 H 0.38131 0.61495 0.5574 0.0
H874 H 0.3625 0.63818 0.52365 0.0
H875 H 0.34978 0.63058 0.54032 0.0
H876 H 0.32344 0.64263 0.61322 0.0
H877 H 0.30891 0.60785 0.62366 0.0
H878 H 0.32274 0.59778 0.60952 0.0
H879 H 0.33745 0.63254 0.59911 0.0
C880 C 0.19857 0.62671 0.34419 0.0
C881 C 0.20152 0.6173 0.35225 0.0
C882 C 0.21261 0.63142 0.36523 0.0
C883 C 0.20851 0.6196 0.3626 0.0
C884 C 0.20992 0.64078 0.35693 0.0
C885 C 0.20295 0.63844 0.34653 0.0
U886 U 0.17381 0.60758 0.33039 0.0
O887 O 0.15658 0.61217 0.3215 0.0
O888 O 0.17018 0.60158 0.31157 0.0
C889 C 0.15967 0.60721 0.31109 0.0
C890 C 0.19025 0.62448 0.33389 0.0
C891 C 0.15714 0.61461 0.30016 0.0
C892 C 0.15535 0.63434 0.29044 0.0
C893 C 0.15968 0.62709 0.29994 0.0
C894 C 0.14664 0.61665 0.28075 0.0
C895 C 0.14842 0.62928 0.28094 0.0
C896 C 0.15093 0.6094 0.29032 0.0
C897 C 0.16507 0.58117 0.35324 0.0
C898 C 0.14656 0.57288 0.36205 0.0
C899 C 0.16609 0.56473 0.36793 0.0
C900 C 0.17183 0.57263 0.35985 0.0
C901 C 0.15345 0.56511 0.36945 0.0
C902 C 0.15233 0.5809 0.35402 0.0
C903 C 0.17165 0.59159 0.34795 0.0
O904 O 0.19234 0.61456 0.32759 0.0
O905 O 0.1787 0.62602 0.33639 0.0
O906 O 0.166 0.60208 0.34781 0.0
O907 O 0.17867 0.5898 0.33846 0.0
H908 H 0.19819 0.60818 0.35068 0.0
H909 H 0.21053 0.61214 0.36866 0.0
H910 H 0.21278 0.65001 0.35872 0.0
H911 H 0.2007 0.64586 0.34048 0.0
H912 H 0.15695 0.64403 0.29079 0.0
H913 H 0.1645 0.63131 0.30739 0.0
H914 H 0.14127 0.61251 0.27364 0.0
H915 H 0.14887 0.59979 0.29031 0.0
H916 H 0.13681 0.57345 0.36321 0.0
H917 H 0.17159 0.55892 0.37365 0.0
H918 H 0.18166 0.57275 0.35951 0.0
H919 H 0.1469 0.58746 0.3491 0.0
C920 C 0.33089 0.40274 0.84419 0.0
C921 C 0.32794 0.41215 0.85225 0.0
C922 C 0.31684 0.39803 0.86523 0.0
C923 C 0.32095 0.40984 0.8626 0.0
C924 C 0.31954 0.38867 0.85693 0.0
C925 C 0.32651 0.39101 0.84653 0.0
U926 U 0.35565 0.42186 0.83039 0.0
O927 O 0.37289 0.41728 0.82151 0.0
O928 O 0.35928 0.42787 0.81157 0.0
C929 C 0.3698 0.42224 0.8111 0.0
C930 C 0.33921 0.40497 0.8339 0.0
C931 C 0.37232 0.41483 0.80017 0.0
C932 C 0.37412 0.39511 0.79044 0.0
C933 C 0.36979 0.40236 0.79994 0.0
C934 C 0.38282 0.41279 0.78076 0.0
C935 C 0.38105 0.40016 0.78095 0.0
C936 C 0.37854 0.42005 0.79032 0.0
C937 C 0.36439 0.44828 0.85325 0.0
C938 C 0.38291 0.45657 0.86205 0.0
C939 C 0.36337 0.46473 0.86793 0.0
C940 C 0.35763 0.45682 0.85985 0.0
C941 C 0.37601 0.46434 0.86945 0.0
C942 C 0.37713 0.44854 0.85402 0.0
C943 C 0.35781 0.43786 0.84795 0.0
O944 O 0.33713 0.41489 0.82759 0.0
O945 O 0.35076 0.40343 0.8364 0.0
O946 O 0.36346 0.42737 0.84781 0.0
O947 O 0.35079 0.43965 0.83846 0.0
H948 H 0.33127 0.42127 0.85068 0.0
H949 H 0.31893 0.41731 0.86866 0.0
H950 H 0.31668 0.37944 0.85871 0.0
H951 H 0.32876 0.38359 0.84048 0.0
H952 H 0.37252 0.38541 0.7908 0.0
H953 H 0.36497 0.39813 0.8074 0.0
H954 H 0.3882 0.41694 0.77365 0.0
H955 H 0.3806 0.42966 0.79032 0.0
H956 H 0.39265 0.456 0.86322 0.0
H957 H 0.35787 0.47054 0.87365 0.0
H958 H 0.3478 0.4567 0.85951 0.0
H959 H 0.38256 0.44199 0.8491 0.0
C960 C 0.93488 0.87605 0.58191 0.0
C961 C 0.92448 0.86889 0.58349 0.0
C962 C 0.9138 0.8804 0.56786 0.0
C963 C 0.91409 0.87102 0.57654 0.0
C964 C 0.92431 0.88749 0.5662 0.0
C965 C 0.93475 0.88535 0.5732 0.0
U966 U 0.94993 0.85781 0.60665 0.0
O967 O 0.96852 0.85074 0.60887 0.0
O968 O 0.961 0.86327 0.62236 0.0
C969 C 0.97065 0.85736 0.61857 0.0
C970 C 0.9457 0.87385 0.58949 0.0
C971 C 0.98215 0.86427 0.6185 0.0
C972 C 0.99382 0.88219 0.61305 0.0
C973 C 0.98279 0.87589 0.61334 0.0
C974 C 1.00376 0.86544 0.6232 0.0
C975 C 1.00451 0.87699 0.6178 0.0
C976 C 0.99269 0.85915 0.62352 0.0
C977 C 0.92716 0.83242 0.61871 0.0
C978 C 0.9136 0.82639 0.63509 0.0
C979 C 0.91692 0.81278 0.6182 0.0
C980 C 0.92509 0.82112 0.61313 0.0
C981 C 0.91059 0.81566 0.62887 0.0
C982 C 0.92181 0.83469 0.63007 0.0
C983 C 0.93217 0.84257 0.61137 0.0
O984 O 0.94423 0.87614 0.6011 0.0
O985 O 0.95128 0.86349 0.58752 0.0
O986 O 0.94076 0.84026 0.60341 0.0
O987 O 0.93323 0.85328 0.61653 0.0
H988 H 0.92441 0.86163 0.59012 0.0
H989 H 0.90629 0.86519 0.5779 0.0
H990 H 0.92439 0.89479 0.55962 0.0
H991 H 0.94269 0.89099 0.57186 0.0
H992 H 0.99397 0.89115 0.60901 0.0
H993 H 0.97477 0.88005 0.60946 0.0
H994 H 1.01179 0.86111 0.62685 0.0
H995 H 0.99238 0.85019 0.62756 0.0
H996 H 0.90883 0.82883 0.64333 0.0
H997 H 0.91467 0.80466 0.61314 0.0
H998 H 0.92894 0.81915 0.6043 0.0
H999 H 0.92312 0.8433 0.63462 0.0
C1000 C 0.90338 0.18486 0.33191 0.0
C1001 C 0.91055 0.17447 0.33349 0.0
C1002 C 0.89904 0.16379 0.31787 0.0
C1003 C 0.90842 0.16407 0.32655 0.0
C1004 C 0.89195 0.17429 0.3162 0.0
C1005 C 0.89408 0.18473 0.32321 0.0
U1006 U 0.92163 0.19991 0.35665 0.0
O1007 O 0.9287 0.2185 0.35887 0.0
O1008 O 0.91617 0.21099 0.37236 0.0
C1009 C 0.92208 0.22064 0.36857 0.0
C1010 C 0.90559 0.19569 0.3395 0.0
C1011 C 0.91517 0.23214 0.3685 0.0
C1012 C 0.89725 0.24381 0.36305 0.0
C1013 C 0.90355 0.23278 0.36334 0.0
C1014 C 0.914 0.25375 0.3732 0.0
C1015 C 0.90246 0.2545 0.3678 0.0
C1016 C 0.92029 0.24267 0.37352 0.0
C1017 C 0.94701 0.17715 0.36871 0.0
C1018 C 0.95305 0.16359 0.38509 0.0
C1019 C 0.96665 0.1669 0.3682 0.0
C1020 C 0.95832 0.17507 0.36313 0.0
C1021 C 0.96377 0.16057 0.37887 0.0
C1022 C 0.94475 0.17179 0.38007 0.0
C1023 C 0.93687 0.18216 0.36137 0.0
O1024 O 0.90329 0.19422 0.35111 0.0
O1025 O 0.91594 0.20127 0.33752 0.0
O1026 O 0.93917 0.19074 0.35341 0.0
O1027 O 0.92616 0.18322 0.36654 0.0
H1028 H 0.91781 0.1744 0.34012 0.0
H1029 H 0.91424 0.15627 0.32791 0.0
H1030 H 0.88464 0.17438 0.30963 0.0
H1031 H 0.88845 0.19267 0.32187 0.0
H1032 H 0.8883 0.24396 0.35901 0.0
H1033 H 0.89939 0.22476 0.35946 0.0
H1034 H 0.91834 0.26178 0.37685 0.0
H1035 H 0.92925 0.24237 0.37756 0.0
H1036 H 0.9506 0.15882 0.39333 0.0
H1037 H 0.97478 0.16465 0.36314 0.0
H1038 H 0.96028 0.17893 0.3543 0.0
H1039 H 0.93614 0.1731 0.38462 0.0
C1040 C 0.59459 0.15338 0.08192 0.0
C1041 C 0.60498 0.16055 0.08349 0.0
C1042 C 0.61566 0.14904 0.06787 0.0
C1043 C 0.61538 0.15842 0.07655 0.0
C1044 C 0.60516 0.14195 0.06621 0.0
C1045 C 0.59472 0.14408 0.07321 0.0
U1046 U 0.57954 0.17163 0.10666 0.0
O1047 O 0.56095 0.1787 0.10888 0.0
O1048 O 0.56847 0.16617 0.12237 0.0
C1049 C 0.55881 0.17208 0.11858 0.0
C1050 C 0.58376 0.15559 0.0895 0.0
C1051 C 0.54731 0.16516 0.11851 0.0
C1052 C 0.53565 0.14725 0.11306 0.0
C1053 C 0.54668 0.15355 0.11336 0.0
C1054 C 0.52571 0.16399 0.12321 0.0
C1055 C 0.52495 0.15245 0.11781 0.0
C1056 C 0.53678 0.17029 0.12353 0.0
C1057 C 0.6023 0.19701 0.11871 0.0
C1058 C 0.61586 0.20305 0.13509 0.0
C1059 C 0.61255 0.21665 0.1182 0.0
C1060 C 0.60438 0.20832 0.11313 0.0
C1061 C 0.61888 0.21378 0.12888 0.0
C1062 C 0.60766 0.19475 0.13008 0.0
C1063 C 0.59729 0.18687 0.11138 0.0
O1064 O 0.58523 0.15329 0.10111 0.0
O1065 O 0.57818 0.16594 0.08753 0.0
O1066 O 0.58871 0.18918 0.10342 0.0
O1067 O 0.59623 0.17616 0.11654 0.0
H1068 H 0.60506 0.16781 0.09013 0.0
H1069 H 0.62318 0.16424 0.07791 0.0
H1070 H 0.60507 0.13465 0.05963 0.0
H1071 H 0.58678 0.13845 0.07187 0.0
H1072 H 0.5355 0.13829 0.10903 0.0
H1073 H 0.5547 0.14939 0.10947 0.0
H1074 H 0.51768 0.16833 0.12686 0.0
H1075 H 0.53708 0.17925 0.12756 0.0
H1076 H 0.62063 0.20061 0.14334 0.0
H1077 H 0.6148 0.22478 0.11314 0.0
H1078 H 0.60052 0.21028 0.10431 0.0
H1079 H 0.60634 0.18614 0.13463 0.0
C1080 C 0.62607 0.84459 0.83191 0.0
C1081 C 0.6189 0.85499 0.83348 0.0
C1082 C 0.63041 0.86567 0.81786 0.0
C1083 C 0.62103 0.86538 0.82654 0.0
C1084 C 0.6375 0.85516 0.8162 0.0
C1085 C 0.63537 0.84473 0.8232 0.0
U1086 U 0.60782 0.82955 0.85665 0.0
O1087 O 0.60075 0.81095 0.85887 0.0
O1088 O 0.61328 0.81847 0.87236 0.0
C1089 C 0.60737 0.80882 0.86856 0.0
C1090 C 0.62386 0.83377 0.83949 0.0
C1091 C 0.61428 0.79732 0.86849 0.0
C1092 C 0.6322 0.78565 0.86305 0.0
C1093 C 0.6259 0.79668 0.86334 0.0
C1094 C 0.61545 0.77571 0.8732 0.0
C1095 C 0.62699 0.77496 0.8678 0.0
C1096 C 0.60916 0.78679 0.87352 0.0
C1097 C 0.58244 0.85231 0.8687 0.0
C1098 C 0.5764 0.86587 0.88508 0.0
C1099 C 0.56279 0.86256 0.86819 0.0
C1100 C 0.57113 0.85439 0.86312 0.0
C1101 C 0.56567 0.86889 0.87886 0.0
C1102 C 0.5847 0.85767 0.88007 0.0
C1103 C 0.59258 0.8473 0.86137 0.0
O1104 O 0.62616 0.83524 0.8511 0.0
O1105 O 0.61351 0.82819 0.83752 0.0
O1106 O 0.59027 0.83872 0.85341 0.0
O1107 O 0.60329 0.84624 0.86653 0.0
H1108 H 0.61164 0.85506 0.84012 0.0
H1109 H 0.61521 0.87318 0.8279 0.0
H1110 H 0.64481 0.85508 0.80962 0.0
H1111 H 0.641 0.83678 0.82186 0.0
H1112 H 0.64115 0.7855 0.85901 0.0
H1113 H 0.63006 0.8047 0.85945 0.0
H1114 H 0.61111 0.76768 0.87685 0.0
H1115 H 0.60019 0.78709 0.87755 0.0
H1116 H 0.57884 0.87064 0.89332 0.0
H1117 H 0.55467 0.86481 0.86313 0.0
H1118 H 0.56917 0.85053 0.8543 0.0
H1119 H 0.59331 0.85636 0.88462 0.0
C1120 C 0.93486 0.15338 0.94754 0.0
C1121 C 0.92447 0.16055 0.94597 0.0
C1122 C 0.91379 0.14904 0.96159 0.0
C1123 C 0.91407 0.15842 0.95291 0.0
C1124 C 0.92429 0.14195 0.96326 0.0
C1125 C 0.93473 0.14409 0.95625 0.0
U1126 U 0.94991 0.17163 0.9228 0.0
O1127 O 0.9685 0.1787 0.92059 0.0
O1128 O 0.96098 0.16618 0.90709 0.0
C1129 C 0.97064 0.17209 0.91089 0.0
C1130 C 0.94568 0.15559 0.93996 0.0
C1131 C 0.98214 0.16517 0.91096 0.0
C1132 C 0.9938 0.14726 0.9164 0.0
C1133 C 0.98277 0.15356 0.91611 0.0
C1134 C 1.00374 0.16401 0.90625 0.0
C1135 C 1.0045 0.15246 0.91165 0.0
C1136 C 0.99267 0.1703 0.90593 0.0
C1137 C 0.92715 0.19702 0.91075 0.0
C1138 C 0.91358 0.20305 0.89437 0.0
C1139 C 0.9169 0.21666 0.91126 0.0
C1140 C 0.92507 0.20832 0.91633 0.0
C1141 C 0.91057 0.21378 0.90059 0.0
C1142 C 0.92179 0.19476 0.89939 0.0
C1143 C 0.93215 0.18687 0.91808 0.0
O1144 O 0.94422 0.1533 0.92835 0.0
O1145 O 0.95127 0.16594 0.94194 0.0
O1146 O 0.94074 0.18918 0.92605 0.0
O1147 O 0.93322 0.17617 0.91292 0.0
H1148 H 0.92439 0.16781 0.93933 0.0
H1149 H 0.90627 0.16424 0.95155 0.0
H1150 H 0.92438 0.13465 0.96983 0.0
H1151 H 0.94267 0.13845 0.95759 0.0
H1152 H 0.99396 0.1383 0.92044 0.0
H1153 H 0.97476 0.1494 0.92 0.0
H1154 H 1.01177 0.16834 0.9026 0.0
H1155 H 0.99237 0.17926 0.9019 0.0
H1156 H 0.90881 0.20061 0.88613 0.0
H1157 H 0.91465 0.22478 0.91632 0.0
H1158 H 0.92892 0.21029 0.92516 0.0
H1159 H 0.9231 0.18615 0.89483 0.0
C1160 C 0.62607 0.18486 0.69753 0.0
C1161 C 0.61891 0.17447 0.69595 0.0
C1162 C 0.63042 0.16379 0.71158 0.0
C1163 C 0.62104 0.16407 0.7029 0.0
C1164 C 0.63751 0.17429 0.71324 0.0
C1165 C 0.63537 0.18473 0.70624 0.0
U1166 U 0.60783 0.19991 0.67279 0.0
O1167 O 0.60076 0.21851 0.67057 0.0
O1168 O 0.61328 0.21099 0.65708 0.0
C1169 C 0.60737 0.22064 0.66087 0.0
C1170 C 0.62387 0.19569 0.68994 0.0
C1171 C 0.61429 0.23214 0.66094 0.0
C1172 C 0.63221 0.2438 0.66638 0.0
C1173 C 0.62591 0.23277 0.66609 0.0
C1174 C 0.61546 0.25374 0.65624 0.0
C1175 C 0.62701 0.2545 0.66163 0.0
C1176 C 0.60917 0.24267 0.65592 0.0
C1177 C 0.58244 0.17715 0.66073 0.0
C1178 C 0.5764 0.16359 0.64435 0.0
C1179 C 0.5628 0.1669 0.66125 0.0
C1180 C 0.57114 0.17507 0.66631 0.0
C1181 C 0.56568 0.16057 0.65057 0.0
C1182 C 0.5847 0.17179 0.64937 0.0
C1183 C 0.59258 0.18216 0.66807 0.0
O1184 O 0.62616 0.19422 0.67834 0.0
O1185 O 0.61351 0.20127 0.69192 0.0
O1186 O 0.59028 0.19075 0.67603 0.0
O1187 O 0.60329 0.18322 0.66291 0.0
H1188 H 0.61165 0.1744 0.68932 0.0
H1189 H 0.61521 0.15627 0.70154 0.0
H1190 H 0.64481 0.17438 0.71982 0.0
H1191 H 0.64101 0.19267 0.70758 0.0
H1192 H 0.64117 0.24395 0.67042 0.0
H1193 H 0.63007 0.22475 0.66998 0.0
H1194 H 0.61112 0.26177 0.65259 0.0
H1195 H 0.60021 0.24237 0.65188 0.0
H1196 H 0.57885 0.15882 0.63611 0.0
H1197 H 0.55468 0.16465 0.66631 0.0
H1198 H 0.56917 0.17893 0.67514 0.0
H1199 H 0.59331 0.17311 0.64482 0.0
C1200 C 0.59459 0.87607 0.44754 0.0
C1201 C 0.60498 0.8689 0.44596 0.0
C1202 C 0.61567 0.88041 0.46158 0.0
C1203 C 0.61538 0.87103 0.4529 0.0
C1204 C 0.60516 0.8875 0.46325 0.0
C1205 C 0.59472 0.88537 0.45624 0.0
U1206 U 0.57954 0.85783 0.4228 0.0
O1207 O 0.56095 0.85075 0.42058 0.0
O1208 O 0.56846 0.86328 0.40709 0.0
C1209 C 0.55881 0.85737 0.41088 0.0
C1210 C 0.58377 0.87387 0.43995 0.0
C1211 C 0.54731 0.86428 0.41095 0.0
C1212 C 0.53565 0.8822 0.4164 0.0
C1213 C 0.54668 0.8759 0.4161 0.0
C1214 C 0.5257 0.86545 0.40625 0.0
C1215 C 0.52495 0.877 0.41165 0.0
C1216 C 0.53678 0.85916 0.40593 0.0
C1217 C 0.6023 0.83244 0.41074 0.0
C1218 C 0.61586 0.8264 0.39436 0.0
C1219 C 0.61255 0.8128 0.41125 0.0
C1220 C 0.60438 0.82114 0.41632 0.0
C1221 C 0.61888 0.81568 0.40058 0.0
C1222 C 0.60766 0.8347 0.39938 0.0
C1223 C 0.5973 0.84258 0.41808 0.0
O1224 O 0.58523 0.87616 0.42834 0.0
O1225 O 0.57818 0.86351 0.44193 0.0
O1226 O 0.58871 0.84028 0.42604 0.0
O1227 O 0.59623 0.85329 0.41291 0.0
H1228 H 0.60506 0.86164 0.43933 0.0
H1229 H 0.62318 0.86521 0.45154 0.0
H1230 H 0.60508 0.89481 0.46982 0.0
H1231 H 0.58678 0.891 0.45758 0.0
H1232 H 0.53549 0.89116 0.42044 0.0
H1233 H 0.55469 0.88006 0.41999 0.0
H1234 H 0.51768 0.86111 0.4026 0.0
H1235 H 0.53708 0.8502 0.4019 0.0
H1236 H 0.62064 0.82885 0.38612 0.0
H1237 H 0.6148 0.80467 0.41631 0.0
H1238 H 0.60052 0.81917 0.42515 0.0
H1239 H 0.60635 0.84331 0.39483 0.0
C1240 C 0.9034 0.84458 0.19754 0.0
C1241 C 0.91056 0.85497 0.19596 0.0
C1242 C 0.89905 0.86565 0.21159 0.0
C1243 C 0.90843 0.86537 0.20291 0.0
C1244 C 0.89196 0.85515 0.21325 0.0
C1245 C 0.8941 0.84471 0.20625 0.0
U1246 U 0.92164 0.82953 0.1728 0.0
O1247 O 0.92871 0.81093 0.17058 0.0
O1248 O 0.91618 0.81845 0.15709 0.0
C1249 C 0.9221 0.8088 0.16088 0.0
C1250 C 0.9056 0.83375 0.18996 0.0
C1251 C 0.91518 0.7973 0.16095 0.0
C1252 C 0.89726 0.78564 0.1664 0.0
C1253 C 0.90356 0.79667 0.1661 0.0
C1254 C 0.91401 0.7757 0.15625 0.0
C1255 C 0.90246 0.77494 0.16165 0.0
C1256 C 0.9203 0.78677 0.15593 0.0
C1257 C 0.94703 0.85229 0.16074 0.0
C1258 C 0.95306 0.86585 0.14436 0.0
C1259 C 0.96667 0.86254 0.16125 0.0
C1260 C 0.95833 0.85437 0.16632 0.0
C1261 C 0.96379 0.86887 0.15058 0.0
C1262 C 0.94477 0.85765 0.14938 0.0
C1263 C 0.93688 0.84728 0.16808 0.0
O1264 O 0.90331 0.83522 0.17835 0.0
O1265 O 0.91596 0.82817 0.19193 0.0
O1266 O 0.93919 0.8387 0.17604 0.0
O1267 O 0.92618 0.84622 0.16292 0.0
H1268 H 0.91782 0.85504 0.18933 0.0
H1269 H 0.91426 0.87317 0.20155 0.0
H1270 H 0.88466 0.85506 0.21983 0.0
H1271 H 0.88846 0.83677 0.20759 0.0
H1272 H 0.88831 0.78549 0.17044 0.0
H1273 H 0.8994 0.80468 0.16999 0.0
H1274 H 0.91834 0.76767 0.1526 0.0
H1275 H 0.92926 0.78707 0.15189 0.0
H1276 H 0.95062 0.87062 0.13612 0.0
H1277 H 0.97479 0.86479 0.16631 0.0
H1278 H 0.9603 0.85051 0.17515 0.0
H1279 H 0.93616 0.85634 0.14483 0.0
C1280 C 0.58191 0.93487 0.87606 0.0
C1281 C 0.58349 0.92448 0.86889 0.0
C1282 C 0.56786 0.9138 0.8804 0.0
C1283 C 0.57655 0.91409 0.87102 0.0
C1284 C 0.5662 0.9243 0.88749 0.0
C1285 C 0.5732 0.93474 0.88535 0.0
U1286 U 0.60665 0.94992 0.85781 0.0
O1287 O 0.60887 0.96852 0.85074 0.0
O1288 O 0.62236 0.961 0.86327 0.0
C1289 C 0.61857 0.97065 0.85736 0.0
C1290 C 0.5895 0.9457 0.87385 0.0
C1291 C 0.6185 0.98215 0.86427 0.0
C1292 C 0.61305 0.99382 0.88219 0.0
C1293 C 0.61334 0.98279 0.87589 0.0
C1294 C 0.6232 1.00376 0.86544 0.0
C1295 C 0.6178 1.00451 0.87699 0.0
C1296 C 0.62353 0.99268 0.85915 0.0
C1297 C 0.61871 0.92716 0.83243 0.0
C1298 C 0.63509 0.9136 0.82639 0.0
C1299 C 0.6182 0.91691 0.81279 0.0
C1300 C 0.61313 0.92508 0.82112 0.0
C1301 C 0.62887 0.91058 0.81567 0.0
C1302 C 0.63008 0.9218 0.83469 0.0
C1303 C 0.61137 0.93217 0.84257 0.0
O1304 O 0.6011 0.94423 0.87615 0.0
O1305 O 0.58752 0.95128 0.8635 0.0
O1306 O 0.60341 0.94075 0.84026 0.0
O1307 O 0.61654 0.93323 0.85328 0.0
H1308 H 0.59012 0.92441 0.86163 0.0
H1309 H 0.5779 0.90629 0.8652 0.0
H1310 H 0.55962 0.92439 0.89479 0.0
H1311 H 0.57186 0.94268 0.89099 0.0
H1312 H 0.60901 0.99397 0.89114 0.0
H1313 H 0.60945 0.97477 0.88005 0.0
H1314 H 0.62685 1.01179 0.8611 0.0
H1315 H 0.62756 0.99238 0.85019 0.0
H1316 H 0.64333 0.90883 0.82884 0.0
H1317 H 0.61314 0.91466 0.80466 0.0
H1318 H 0.60431 0.92894 0.81916 0.0
H1319 H 0.63462 0.92311 0.8433 0.0
C1320 C 0.8446 0.83191 0.62607 0.0
C1321 C 0.85499 0.83348 0.6189 0.0
C1322 C 0.86567 0.81786 0.63041 0.0
C1323 C 0.86539 0.82654 0.62103 0.0
C1324 C 0.85517 0.81619 0.6375 0.0
C1325 C 0.84473 0.8232 0.63536 0.0
U1326 U 0.82955 0.85665 0.60782 0.0
O1327 O 0.81096 0.85887 0.60075 0.0
O1328 O 0.81847 0.87236 0.61327 0.0
C1329 C 0.80882 0.86856 0.60736 0.0
C1330 C 0.83377 0.83949 0.62386 0.0
C1331 C 0.79732 0.86849 0.61428 0.0
C1332 C 0.78566 0.86305 0.63219 0.0
C1333 C 0.79669 0.86334 0.62589 0.0
C1334 C 0.77571 0.8732 0.61544 0.0
C1335 C 0.77496 0.8678 0.62699 0.0
C1336 C 0.78679 0.87352 0.60915 0.0
C1337 C 0.85231 0.8687 0.58243 0.0
C1338 C 0.86587 0.88508 0.5764 0.0
C1339 C 0.86256 0.86819 0.56279 0.0
C1340 C 0.85439 0.86312 0.57113 0.0
C1341 C 0.86889 0.87886 0.56567 0.0
C1342 C 0.85767 0.88006 0.58469 0.0
C1343 C 0.84731 0.86137 0.59258 0.0
O1344 O 0.83524 0.8511 0.62615 0.0
O1345 O 0.82819 0.83751 0.6135 0.0
O1346 O 0.83872 0.8534 0.59027 0.0
O1347 O 0.84624 0.86653 0.60328 0.0
H1348 H 0.85506 0.84012 0.61164 0.0
H1349 H 0.87319 0.8279 0.6152 0.0
H1350 H 0.85508 0.80962 0.6448 0.0
H1351 H 0.83679 0.82186 0.641 0.0
H1352 H 0.7855 0.85901 0.64115 0.0
H1353 H 0.8047 0.85945 0.63005 0.0
H1354 H 0.76769 0.87685 0.61111 0.0
H1355 H 0.78709 0.87755 0.60019 0.0
H1356 H 0.87064 0.89332 0.57884 0.0
H1357 H 0.86481 0.86313 0.55467 0.0
H1358 H 0.85053 0.85429 0.56916 0.0
H1359 H 0.85636 0.88461 0.5933 0.0
C1360 C 0.94754 0.09458 0.37607 0.0
C1361 C 0.94596 0.10498 0.3689 0.0
C1362 C 0.96159 0.11566 0.38041 0.0
C1363 C 0.9529 0.11537 0.37103 0.0
C1364 C 0.96325 0.10515 0.3875 0.0
C1365 C 0.95625 0.09471 0.38537 0.0
U1366 U 0.9228 0.07953 0.35783 0.0
O1367 O 0.92058 0.06094 0.35075 0.0
O1368 O 0.90709 0.06846 0.36328 0.0
C1369 C 0.91088 0.05881 0.35737 0.0
C1370 C 0.93996 0.08376 0.37386 0.0
C1371 C 0.91096 0.04731 0.36428 0.0
C1372 C 0.9164 0.03564 0.3822 0.0
C1373 C 0.91611 0.04667 0.3759 0.0
C1374 C 0.90625 0.0257 0.36545 0.0
C1375 C 0.91165 0.02494 0.377 0.0
C1376 C 0.90593 0.03677 0.35916 0.0
C1377 C 0.91074 0.1023 0.33244 0.0
C1378 C 0.89436 0.11586 0.3264 0.0
C1379 C 0.91125 0.11254 0.3128 0.0
C1380 C 0.91632 0.10437 0.32113 0.0
C1381 C 0.90058 0.11887 0.31568 0.0
C1382 C 0.89938 0.10765 0.3347 0.0
C1383 C 0.91808 0.09729 0.34258 0.0
O1384 O 0.92835 0.08523 0.37616 0.0
O1385 O 0.94193 0.07818 0.36351 0.0
O1386 O 0.92604 0.0887 0.34028 0.0
O1387 O 0.91292 0.09623 0.35329 0.0
H1388 H 0.93933 0.10505 0.36164 0.0
H1389 H 0.95155 0.12317 0.36521 0.0
H1390 H 0.96982 0.10507 0.39481 0.0
H1391 H 0.95759 0.08677 0.391 0.0
H1392 H 0.92044 0.03548 0.39115 0.0
H1393 H 0.92 0.05468 0.38006 0.0
H1394 H 0.90261 0.01767 0.36111 0.0
H1395 H 0.9019 0.03708 0.3502 0.0
H1396 H 0.88612 0.12063 0.32885 0.0
H1397 H 0.91631 0.11479 0.30467 0.0
H1398 H 0.92515 0.10052 0.31917 0.0
H1399 H 0.89483 0.10634 0.34331 0.0
C1400 C 0.68486 0.19753 0.12607 0.0
C1401 C 0.67447 0.19595 0.11891 0.0
C1402 C 0.66379 0.21158 0.13042 0.0
C1403 C 0.66407 0.2029 0.12103 0.0
C1404 C 0.67429 0.21324 0.1375 0.0
C1405 C 0.68473 0.20624 0.13537 0.0
U1406 U 0.69991 0.17279 0.10783 0.0
O1407 O 0.71851 0.17057 0.10075 0.0
O1408 O 0.71099 0.15708 0.11328 0.0
C1409 C 0.72064 0.16087 0.10737 0.0
C1410 C 0.69569 0.18995 0.12387 0.0
C1411 C 0.73214 0.16094 0.11429 0.0
C1412 C 0.7438 0.16639 0.1322 0.0
C1413 C 0.73277 0.16609 0.1259 0.0
C1414 C 0.75375 0.15624 0.11545 0.0
C1415 C 0.7545 0.16164 0.127 0.0
C1416 C 0.74267 0.15592 0.10916 0.0
C1417 C 0.67715 0.16074 0.08244 0.0
C1418 C 0.66359 0.14436 0.0764 0.0
C1419 C 0.66691 0.16125 0.0628 0.0
C1420 C 0.67507 0.16632 0.07113 0.0
C1421 C 0.66058 0.15057 0.06568 0.0
C1422 C 0.6718 0.14937 0.0847 0.0
C1423 C 0.68216 0.16807 0.09258 0.0
O1424 O 0.69422 0.17834 0.12616 0.0
O1425 O 0.70127 0.19192 0.11351 0.0
O1426 O 0.69075 0.17603 0.09028 0.0
O1427 O 0.68322 0.16291 0.10329 0.0
H1428 H 0.6744 0.18932 0.11165 0.0
H1429 H 0.65628 0.20154 0.11521 0.0
H1430 H 0.67438 0.21982 0.14481 0.0
H1431 H 0.69267 0.20758 0.141 0.0
H1432 H 0.74396 0.17042 0.14116 0.0
H1433 H 0.72476 0.16998 0.13006 0.0
H1434 H 0.76178 0.15259 0.11112 0.0
H1435 H 0.74237 0.15189 0.1002 0.0
H1436 H 0.65882 0.13611 0.07884 0.0
H1437 H 0.66466 0.16631 0.05467 0.0
H1438 H 0.67893 0.17514 0.06917 0.0
H1439 H 0.67311 0.14482 0.09331 0.0
C1440 C 0.58192 0.09459 0.65338 0.0
C1441 C 0.5835 0.10498 0.66054 0.0
C1442 C 0.56787 0.11566 0.64903 0.0
C1443 C 0.57656 0.11538 0.65841 0.0
C1444 C 0.56621 0.10516 0.64194 0.0
C1445 C 0.57321 0.09472 0.64408 0.0
U1446 U 0.60666 0.07954 0.67162 0.0
O1447 O 0.60888 0.06094 0.6787 0.0
O1448 O 0.62237 0.06846 0.66617 0.0
C1449 C 0.61858 0.05881 0.67208 0.0
C1450 C 0.58951 0.08376 0.65558 0.0
C1451 C 0.61851 0.04731 0.66516 0.0
C1452 C 0.61307 0.03565 0.64725 0.0
C1453 C 0.61336 0.04668 0.65355 0.0
C1454 C 0.62322 0.0257 0.66399 0.0
C1455 C 0.61782 0.02495 0.65245 0.0
C1456 C 0.62354 0.03678 0.67029 0.0
C1457 C 0.61872 0.1023 0.69701 0.0
C1458 C 0.6351 0.11586 0.70305 0.0
C1459 C 0.6182 0.11255 0.71665 0.0
C1460 C 0.61314 0.10438 0.70831 0.0
C1461 C 0.62888 0.11888 0.71377 0.0
C1462 C 0.63008 0.10766 0.69475 0.0
C1463 C 0.61138 0.09729 0.68687 0.0
O1464 O 0.60111 0.08523 0.65329 0.0
O1465 O 0.58753 0.07818 0.66594 0.0
O1466 O 0.60342 0.08871 0.68917 0.0
O1467 O 0.61654 0.09623 0.67616 0.0
H1468 H 0.59013 0.10505 0.6678 0.0
H1469 H 0.57791 0.12318 0.66424 0.0
H1470 H 0.55963 0.10507 0.63464 0.0
H1471 H 0.57187 0.08678 0.63844 0.0
H1472 H 0.60903 0.03549 0.63829 0.0
H1473 H 0.60947 0.05469 0.64939 0.0
H1474 H 0.62686 0.01768 0.66833 0.0
H1475 H 0.62757 0.03708 0.67925 0.0
H1476 H 0.64334 0.12063 0.7006 0.0
H1477 H 0.61315 0.1148 0.72478 0.0
H1478 H 0.60431 0.10052 0.71028 0.0
H1479 H 0.63463 0.10634 0.68614 0.0
C1480 C 0.68487 0.83191 0.40338 0.0
C1481 C 0.67448 0.83349 0.41055 0.0
C1482 C 0.66379 0.81786 0.39904 0.0
C1483 C 0.66408 0.82655 0.40842 0.0
C1484 C 0.6743 0.8162 0.39195 0.0
C1485 C 0.68474 0.8232 0.39408 0.0
U1486 U 0.69992 0.85665 0.42162 0.0
O1487 O 0.71851 0.85887 0.4287 0.0
O1488 O 0.711 0.87236 0.41617 0.0
C1489 C 0.72065 0.86857 0.42208 0.0
C1490 C 0.69569 0.83949 0.40558 0.0
C1491 C 0.73215 0.86849 0.41517 0.0
C1492 C 0.74381 0.86305 0.39725 0.0
C1493 C 0.73278 0.86334 0.40355 0.0
C1494 C 0.75375 0.8732 0.414 0.0
C1495 C 0.75451 0.8678 0.40245 0.0
C1496 C 0.74268 0.87352 0.42029 0.0
C1497 C 0.67716 0.86871 0.44701 0.0
C1498 C 0.6636 0.88509 0.45305 0.0
C1499 C 0.66691 0.8682 0.46665 0.0
C1500 C 0.67508 0.86313 0.45832 0.0
C1501 C 0.66058 0.87887 0.46377 0.0
C1502 C 0.6718 0.88007 0.44475 0.0
C1503 C 0.68216 0.86137 0.43687 0.0
O1504 O 0.69423 0.8511 0.40329 0.0
O1505 O 0.70128 0.83752 0.41594 0.0
O1506 O 0.69075 0.85341 0.43917 0.0
O1507 O 0.68323 0.86653 0.42616 0.0
H1508 H 0.6744 0.84012 0.41781 0.0
H1509 H 0.65628 0.82791 0.41424 0.0
H1510 H 0.67438 0.80963 0.38464 0.0
H1511 H 0.69268 0.82186 0.38845 0.0
H1512 H 0.74397 0.85901 0.3883 0.0
H1513 H 0.72477 0.85945 0.39939 0.0
H1514 H 0.76178 0.87685 0.41834 0.0
H1515 H 0.74238 0.87755 0.42925 0.0
H1516 H 0.65882 0.89333 0.4506 0.0
H1517 H 0.66466 0.86314 0.47478 0.0
H1518 H 0.67893 0.8543 0.46028 0.0
H1519 H 0.67311 0.88462 0.43614 0.0
C1520 C 0.94755 0.93486 0.15339 0.0
C1521 C 0.94597 0.92446 0.16055 0.0
C1522 C 0.9616 0.91378 0.14904 0.0
C1523 C 0.95291 0.91407 0.15842 0.0
C1524 C 0.96326 0.92429 0.14195 0.0
C1525 C 0.95625 0.93473 0.14409 0.0
U1526 U 0.92281 0.9499 0.17163 0.0
O1527 O 0.92059 0.9685 0.1787 0.0
O1528 O 0.9071 0.96098 0.16618 0.0
C1529 C 0.91089 0.97063 0.17209 0.0
C1530 C 0.93996 0.94568 0.15559 0.0
C1531 C 0.91096 0.98213 0.16517 0.0
C1532 C 0.9164 0.9938 0.14726 0.0
C1533 C 0.91611 0.98277 0.15356 0.0
C1534 C 0.90625 1.00374 0.16401 0.0
C1535 C 0.91165 1.00449 0.15246 0.0
C1536 C 0.90593 0.99267 0.1703 0.0
C1537 C 0.91075 0.92714 0.19702 0.0
C1538 C 0.89437 0.91358 0.20305 0.0
C1539 C 0.91127 0.91689 0.21666 0.0
C1540 C 0.91633 0.92506 0.20832 0.0
C1541 C 0.90059 0.91056 0.21378 0.0
C1542 C 0.89939 0.92178 0.19476 0.0
C1543 C 0.91809 0.93215 0.18687 0.0
O1544 O 0.92835 0.94421 0.1533 0.0
O1545 O 0.94194 0.95126 0.16595 0.0
O1546 O 0.92605 0.94074 0.18918 0.0
O1547 O 0.91292 0.93321 0.17617 0.0
H1548 H 0.93934 0.92439 0.16781 0.0
H1549 H 0.95156 0.90627 0.16425 0.0
H1550 H 0.96984 0.92437 0.13465 0.0
H1551 H 0.9576 0.94267 0.13845 0.0
H1552 H 0.92044 0.99395 0.1383 0.0
H1553 H 0.92 0.97475 0.1494 0.0
H1554 H 0.90261 1.01177 0.16834 0.0
H1555 H 0.9019 0.99236 0.17926 0.0
H1556 H 0.88613 0.90881 0.20061 0.0
H1557 H 0.91632 0.91465 0.22478 0.0
H1558 H 0.92516 0.92892 0.21029 0.0
H1559 H 0.89484 0.9231 0.18615 0.0
C1560 C 0.84458 0.19754 0.90339 0.0
C1561 C 0.85497 0.19596 0.91056 0.0
C1562 C 0.86566 0.21159 0.89905 0.0
C1563 C 0.86537 0.20291 0.90843 0.0
C1564 C 0.85515 0.21325 0.89196 0.0
C1565 C 0.84471 0.20625 0.8941 0.0
U1566 U 0.82953 0.1728 0.92164 0.0
O1567 O 0.81094 0.17058 0.92871 0.0
O1568 O 0.81846 0.15709 0.91618 0.0
C1569 C 0.80881 0.16088 0.92209 0.0
C1570 C 0.83376 0.18996 0.9056 0.0
C1571 C 0.7973 0.16095 0.91518 0.0
C1572 C 0.78564 0.1664 0.89726 0.0
C1573 C 0.79667 0.16611 0.90356 0.0
C1574 C 0.7757 0.15625 0.91401 0.0
C1575 C 0.77494 0.16165 0.90246 0.0
C1576 C 0.78677 0.15593 0.9203 0.0
C1577 C 0.85229 0.16074 0.94702 0.0
C1578 C 0.86586 0.14436 0.95306 0.0
C1579 C 0.86254 0.16125 0.96666 0.0
C1580 C 0.85437 0.16632 0.95833 0.0
C1581 C 0.86887 0.15058 0.96378 0.0
C1582 C 0.85765 0.14938 0.94476 0.0
C1583 C 0.84729 0.16808 0.93688 0.0
O1584 O 0.83522 0.17835 0.9033 0.0
O1585 O 0.82817 0.19193 0.91595 0.0
O1586 O 0.8387 0.17604 0.93919 0.0
O1587 O 0.84622 0.16292 0.92617 0.0
H1588 H 0.85505 0.18933 0.91782 0.0
H1589 H 0.87317 0.20155 0.91425 0.0
H1590 H 0.85506 0.21983 0.88466 0.0
H1591 H 0.83677 0.20759 0.88846 0.0
H1592 H 0.78549 0.17044 0.8883 0.0
H1593 H 0.80469 0.17 0.8994 0.0
H1594 H 0.76767 0.1526 0.91834 0.0
H1595 H 0.78707 0.15189 0.92926 0.0
H1596 H 0.87063 0.13612 0.95061 0.0
H1597 H 0.86479 0.16631 0.97479 0.0
H1598 H 0.85052 0.17515 0.96029 0.0
H1599 H 0.85634 0.14483 0.93615 0.0
C1600 C 0.87606 0.58191 0.93487 0.0
C1601 C 0.86889 0.58348 0.92448 0.0
C1602 C 0.8804 0.56786 0.9138 0.0
C1603 C 0.87102 0.57654 0.91408 0.0
C1604 C 0.88749 0.56619 0.9243 0.0
C1605 C 0.88535 0.5732 0.93474 0.0
U1606 U 0.85781 0.60665 0.94992 0.0
O1607 O 0.85074 0.60887 0.96851 0.0
O1608 O 0.86327 0.62236 0.96099 0.0
C1609 C 0.85736 0.61857 0.97065 0.0
C1610 C 0.87385 0.58949 0.9457 0.0
C1611 C 0.86427 0.61849 0.98215 0.0
C1612 C 0.88219 0.61305 0.99381 0.0
C1613 C 0.87589 0.61334 0.98278 0.0
C1614 C 0.86544 0.6232 1.00375 0.0
C1615 C 0.87699 0.6178 1.00451 0.0
C1616 C 0.85915 0.62352 0.99268 0.0
C1617 C 0.83243 0.6187 0.92716 0.0
C1618 C 0.82639 0.63509 0.9136 0.0
C1619 C 0.81279 0.61819 0.91691 0.0
C1620 C 0.82112 0.61313 0.92508 0.0
C1621 C 0.81567 0.62887 0.91058 0.0
C1622 C 0.83469 0.63007 0.9218 0.0
C1623 C 0.84257 0.61137 0.93216 0.0
O1624 O 0.87615 0.6011 0.94423 0.0
O1625 O 0.8635 0.58752 0.95128 0.0
O1626 O 0.84026 0.60341 0.94075 0.0
O1627 O 0.85328 0.61653 0.93323 0.0
H1628 H 0.86163 0.59012 0.92441 0.0
H1629 H 0.8652 0.5779 0.90628 0.0
H1630 H 0.89479 0.55962 0.92439 0.0
H1631 H 0.89099 0.57186 0.94268 0.0
H1632 H 0.89115 0.60901 0.99397 0.0
H1633 H 0.88005 0.60945 0.97477 0.0
H1634 H 0.86111 0.62685 1.01178 0.0
H1635 H 0.85019 0.62756 0.99238 0.0
H1636 H 0.82883 0.64333 0.90882 0.0
H1637 H 0.80466 0.61314 0.91466 0.0
H1638 H 0.81916 0.6043 0.92894 0.0
H1639 H 0.8433 0.63462 0.92311 0.0
C1640 C 0.37607 0.94754 0.09459 0.0
C1641 C 0.36891 0.94596 0.10498 0.0
C1642 C 0.38042 0.96158 0.11566 0.0
C1643 C 0.37104 0.9529 0.11538 0.0
C1644 C 0.38751 0.96325 0.10516 0.0
C1645 C 0.38537 0.95624 0.09472 0.0
U1646 U 0.35783 0.9228 0.07954 0.0
O1647 O 0.35076 0.92058 0.06094 0.0
O1648 O 0.36328 0.90709 0.06846 0.0
C1649 C 0.35737 0.91088 0.05881 0.0
C1650 C 0.37387 0.93995 0.08376 0.0
C1651 C 0.36429 0.91095 0.04731 0.0
C1652 C 0.3822 0.9164 0.03564 0.0
C1653 C 0.3759 0.9161 0.04667 0.0
C1654 C 0.36545 0.90625 0.0257 0.0
C1655 C 0.377 0.91165 0.02494 0.0
C1656 C 0.35916 0.90593 0.03677 0.0
C1657 C 0.33244 0.91074 0.1023 0.0
C1658 C 0.32641 0.89436 0.11586 0.0
C1659 C 0.3128 0.91125 0.11255 0.0
C1660 C 0.32114 0.91632 0.10438 0.0
C1661 C 0.31568 0.90058 0.11888 0.0
C1662 C 0.3347 0.89937 0.10766 0.0
C1663 C 0.34259 0.91808 0.09729 0.0
O1664 O 0.37616 0.92834 0.08523 0.0
O1665 O 0.36351 0.94193 0.07818 0.0
O1666 O 0.34028 0.92604 0.0887 0.0
O1667 O 0.35329 0.91291 0.09623 0.0
H1668 H 0.36165 0.93933 0.10505 0.0
H1669 H 0.36521 0.95154 0.12317 0.0
H1670 H 0.39481 0.96982 0.10507 0.0
H1671 H 0.39101 0.95758 0.08678 0.0
H1672 H 0.39116 0.92044 0.03549 0.0
H1673 H 0.38006 0.91999 0.05469 0.0
H1674 H 0.36112 0.9026 0.01767 0.0
H1675 H 0.3502 0.9019 0.03708 0.0
H1676 H 0.32885 0.88612 0.12063 0.0
H1677 H 0.30468 0.91631 0.11479 0.0
H1678 H 0.31917 0.92515 0.10052 0.0
H1679 H 0.34332 0.89483 0.10634 0.0
C1680 C 0.83191 0.62606 0.84459 0.0
C1681 C 0.83348 0.6189 0.85499 0.0
C1682 C 0.81786 0.63041 0.86567 0.0
C1683 C 0.82654 0.62103 0.86538 0.0
C1684 C 0.8162 0.6375 0.85516 0.0
C1685 C 0.8232 0.63536 0.84472 0.0
U1686 U 0.85665 0.60782 0.82954 0.0
O1687 O 0.85887 0.60074 0.81095 0.0
O1688 O 0.87236 0.61327 0.81847 0.0
C1689 C 0.86857 0.60736 0.80882 0.0
C1690 C 0.83949 0.62386 0.83377 0.0
C1691 C 0.86849 0.61427 0.79732 0.0
C1692 C 0.86305 0.63219 0.78565 0.0
C1693 C 0.86334 0.62589 0.79668 0.0
C1694 C 0.8732 0.61544 0.77571 0.0
C1695 C 0.8678 0.62699 0.77495 0.0
C1696 C 0.87352 0.60915 0.78678 0.0
C1697 C 0.8687 0.58243 0.85231 0.0
C1698 C 0.88508 0.57639 0.86587 0.0
C1699 C 0.86819 0.56279 0.86255 0.0
C1700 C 0.86312 0.57113 0.85438 0.0
C1701 C 0.87886 0.56567 0.86889 0.0
C1702 C 0.88007 0.58469 0.85766 0.0
C1703 C 0.86137 0.59257 0.8473 0.0
O1704 O 0.8511 0.62615 0.83524 0.0
O1705 O 0.83752 0.6135 0.82819 0.0
O1706 O 0.85341 0.59027 0.83871 0.0
O1707 O 0.86653 0.60328 0.84624 0.0
H1708 H 0.84012 0.61164 0.85506 0.0
H1709 H 0.8279 0.6152 0.87318 0.0
H1710 H 0.80962 0.6448 0.85507 0.0
H1711 H 0.82186 0.641 0.83678 0.0
H1712 H 0.85901 0.64115 0.78549 0.0
H1713 H 0.85945 0.63005 0.8047 0.0
H1714 H 0.87685 0.61111 0.76768 0.0
H1715 H 0.87755 0.60019 0.78709 0.0
H1716 H 0.89332 0.57883 0.87064 0.0
H1717 H 0.86313 0.55466 0.8648 0.0
H1718 H 0.8543 0.56916 0.85053 0.0
H1719 H 0.88462 0.5933 0.85635 0.0
C1720 C 0.15338 0.08192 0.59459 0.0
C1721 C 0.16055 0.0835 0.60498 0.0
C1722 C 0.14904 0.06787 0.61566 0.0
C1723 C 0.15842 0.07655 0.61538 0.0
C1724 C 0.14195 0.06621 0.60516 0.0
C1725 C 0.14408 0.07321 0.59472 0.0
U1726 U 0.17162 0.10666 0.57954 0.0
O1727 O 0.1787 0.10888 0.56094 0.0
O1728 O 0.16617 0.12237 0.56846 0.0
C1729 C 0.17208 0.11858 0.55881 0.0
C1730 C 0.15558 0.0895 0.58376 0.0
C1731 C 0.16516 0.11851 0.54731 0.0
C1732 C 0.14725 0.11306 0.53565 0.0
C1733 C 0.15355 0.11336 0.54668 0.0
C1734 C 0.16399 0.12321 0.5257 0.0
C1735 C 0.15245 0.11781 0.52495 0.0
C1736 C 0.17029 0.12353 0.53678 0.0
C1737 C 0.19701 0.11871 0.6023 0.0
C1738 C 0.20305 0.1351 0.61586 0.0
C1739 C 0.21665 0.1182 0.61255 0.0
C1740 C 0.20832 0.11313 0.60438 0.0
C1741 C 0.21378 0.12888 0.61888 0.0
C1742 C 0.19475 0.13008 0.60766 0.0
C1743 C 0.18687 0.11138 0.59729 0.0
O1744 O 0.15329 0.10111 0.58523 0.0
O1745 O 0.16594 0.08753 0.57818 0.0
O1746 O 0.18918 0.10342 0.5887 0.0
O1747 O 0.17616 0.11654 0.59623 0.0
H1748 H 0.16781 0.09013 0.60505 0.0
H1749 H 0.16424 0.07791 0.62318 0.0
H1750 H 0.13465 0.05963 0.60507 0.0
H1751 H 0.13845 0.07187 0.58678 0.0
H1752 H 0.13829 0.10903 0.53549 0.0
H1753 H 0.14939 0.10947 0.55469 0.0
H1754 H 0.16833 0.12686 0.51767 0.0
H1755 H 0.17925 0.12756 0.53708 0.0
H1756 H 0.20061 0.14334 0.62063 0.0
H1757 H 0.22478 0.11314 0.61479 0.0
H1758 H 0.21028 0.10431 0.60052 0.0
H1759 H 0.18614 0.13463 0.60634 0.0
C1760 C 0.19754 0.9034 0.84458 0.0
C1761 C 0.19597 0.91056 0.85497 0.0
C1762 C 0.21159 0.89905 0.86565 0.0
C1763 C 0.20291 0.90843 0.86537 0.0
C1764 C 0.21326 0.89196 0.85515 0.0
C1765 C 0.20625 0.8941 0.84471 0.0
U1766 U 0.1728 0.92164 0.82953 0.0
O1767 O 0.17058 0.92871 0.81094 0.0
O1768 O 0.15709 0.91618 0.81846 0.0
C1769 C 0.16089 0.92209 0.8088 0.0
C1770 C 0.18996 0.9056 0.83376 0.0
C1771 C 0.16096 0.91518 0.7973 0.0
C1772 C 0.1664 0.89726 0.78564 0.0
C1773 C 0.16611 0.90356 0.79667 0.0
C1774 C 0.15625 0.91401 0.7757 0.0
C1775 C 0.16165 0.90246 0.77494 0.0
C1776 C 0.15593 0.9203 0.78677 0.0
C1777 C 0.16075 0.94703 0.85229 0.0
C1778 C 0.14437 0.95306 0.86586 0.0
C1779 C 0.16126 0.96667 0.86254 0.0
C1780 C 0.16633 0.95833 0.85437 0.0
C1781 C 0.15058 0.96379 0.86887 0.0
C1782 C 0.14938 0.94477 0.85765 0.0
C1783 C 0.16808 0.93688 0.84729 0.0
O1784 O 0.17835 0.90331 0.83522 0.0
O1785 O 0.19194 0.91596 0.82817 0.0
O1786 O 0.17604 0.93919 0.8387 0.0
O1787 O 0.16292 0.92617 0.84622 0.0
H1788 H 0.18933 0.91782 0.85505 0.0
H1789 H 0.20155 0.91426 0.87317 0.0
H1790 H 0.21983 0.88466 0.85506 0.0
H1791 H 0.20759 0.88846 0.83677 0.0
H1792 H 0.17044 0.88831 0.78548 0.0
H1793 H 0.17 0.8994 0.80468 0.0
H1794 H 0.1526 0.91835 0.76767 0.0
H1795 H 0.1519 0.92926 0.78707 0.0
H1796 H 0.13612 0.95062 0.87063 0.0
H1797 H 0.16632 0.97479 0.86479 0.0
H1798 H 0.17515 0.9603 0.85051 0.0
H1799 H 0.14483 0.93615 0.85634 0.0
C1800 C 0.65339 0.44755 0.43486 0.0
C1801 C 0.66056 0.44597 0.42446 0.0
C1802 C 0.64904 0.4616 0.41378 0.0
C1803 C 0.65843 0.45291 0.41407 0.0
C1804 C 0.64195 0.46326 0.42429 0.0
C1805 C 0.64409 0.45625 0.43473 0.0
U1806 U 0.67164 0.4228 0.44991 0.0
O1807 O 0.67871 0.42059 0.4685 0.0
O1808 O 0.66618 0.40709 0.46098 0.0
C1809 C 0.67209 0.41089 0.47063 0.0
C1810 C 0.6556 0.43996 0.44568 0.0
C1811 C 0.66518 0.41096 0.48213 0.0
C1812 C 0.64726 0.4164 0.4938 0.0
C1813 C 0.65356 0.41611 0.48277 0.0
C1814 C 0.66401 0.40625 0.50374 0.0
C1815 C 0.65247 0.41165 0.5045 0.0
C1816 C 0.6703 0.40593 0.49267 0.0
C1817 C 0.69702 0.41075 0.42714 0.0
C1818 C 0.70306 0.39437 0.41358 0.0
C1819 C 0.71666 0.41126 0.4169 0.0
C1820 C 0.70833 0.41633 0.42507 0.0
C1821 C 0.71379 0.40059 0.41057 0.0
C1822 C 0.69476 0.39939 0.42179 0.0
C1823 C 0.68688 0.41809 0.43215 0.0
O1824 O 0.6533 0.42835 0.44422 0.0
O1825 O 0.66595 0.44194 0.45127 0.0
O1826 O 0.68919 0.42605 0.44074 0.0
O1827 O 0.67617 0.41292 0.43321 0.0
H1828 H 0.66782 0.43934 0.42439 0.0
H1829 H 0.66425 0.45155 0.40627 0.0
H1830 H 0.63465 0.46983 0.42438 0.0
H1831 H 0.63846 0.45759 0.44267 0.0
H1832 H 0.63831 0.42044 0.49396 0.0
H1833 H 0.6494 0.42 0.47476 0.0
H1834 H 0.66835 0.4026 0.51177 0.0
H1835 H 0.67926 0.4019 0.49236 0.0
H1836 H 0.70062 0.38613 0.40881 0.0
H1837 H 0.72479 0.41632 0.41465 0.0
H1838 H 0.71029 0.42516 0.42892 0.0
H1839 H 0.68615 0.39484 0.4231 0.0
C1840 C 0.83192 0.40338 0.68486 0.0
C1841 C 0.8335 0.41054 0.67447 0.0
C1842 C 0.81787 0.39903 0.66379 0.0
C1843 C 0.82655 0.40841 0.66407 0.0
C1844 C 0.81621 0.39194 0.67429 0.0
C1845 C 0.82321 0.39408 0.68473 0.0
U1846 U 0.85666 0.42162 0.69991 0.0
O1847 O 0.85888 0.4287 0.71851 0.0
O1848 O 0.87237 0.41617 0.71099 0.0
C1849 C 0.86857 0.42208 0.72064 0.0
C1850 C 0.8395 0.40558 0.69569 0.0
C1851 C 0.8685 0.41516 0.73214 0.0
C1852 C 0.86306 0.39725 0.74381 0.0
C1853 C 0.86335 0.40355 0.73278 0.0
C1854 C 0.87321 0.414 0.75375 0.0
C1855 C 0.86781 0.40245 0.7545 0.0
C1856 C 0.87353 0.42029 0.74268 0.0
C1857 C 0.86871 0.44701 0.67715 0.0
C1858 C 0.8851 0.45305 0.66359 0.0
C1859 C 0.8682 0.46665 0.66691 0.0
C1860 C 0.86313 0.45831 0.67508 0.0
C1861 C 0.87888 0.46377 0.66057 0.0
C1862 C 0.88008 0.44475 0.67179 0.0
C1863 C 0.86138 0.43687 0.68216 0.0
O1864 O 0.85111 0.40329 0.69422 0.0
O1865 O 0.83753 0.41594 0.70127 0.0
O1866 O 0.85342 0.43917 0.69075 0.0
O1867 O 0.86654 0.42616 0.68322 0.0
H1868 H 0.84013 0.4178 0.6744 0.0
H1869 H 0.82791 0.41424 0.65628 0.0
H1870 H 0.80963 0.38464 0.67438 0.0
H1871 H 0.82187 0.38844 0.69267 0.0
H1872 H 0.85902 0.38829 0.74396 0.0
H1873 H 0.85946 0.39939 0.72476 0.0
H1874 H 0.87685 0.41833 0.76178 0.0
H1875 H 0.87756 0.42925 0.74237 0.0
H1876 H 0.89334 0.4506 0.65882 0.0
H1877 H 0.86314 0.47478 0.66466 0.0
H1878 H 0.85431 0.46028 0.67893 0.0
H1879 H 0.88463 0.43614 0.67311 0.0
C1880 C 0.69753 0.62607 0.18486 0.0
C1881 C 0.69595 0.61891 0.17447 0.0
C1882 C 0.71158 0.63042 0.16379 0.0
C1883 C 0.7029 0.62104 0.16407 0.0
C1884 C 0.71324 0.63751 0.17429 0.0
C1885 C 0.70624 0.63537 0.18473 0.0
U1886 U 0.67279 0.60783 0.19991 0.0
O1887 O 0.67057 0.60075 0.2185 0.0
O1888 O 0.65708 0.61328 0.21099 0.0
C1889 C 0.66087 0.60737 0.22064 0.0
C1890 C 0.68995 0.62387 0.19569 0.0
C1891 C 0.66094 0.61429 0.23214 0.0
C1892 C 0.66639 0.63221 0.2438 0.0
C1893 C 0.66609 0.6259 0.23277 0.0
C1894 C 0.65624 0.61546 0.25374 0.0
C1895 C 0.66164 0.627 0.2545 0.0
C1896 C 0.65592 0.60917 0.24267 0.0
C1897 C 0.66074 0.58244 0.17715 0.0
C1898 C 0.64436 0.5764 0.16359 0.0
C1899 C 0.66125 0.5628 0.1669 0.0
C1900 C 0.66632 0.57114 0.17507 0.0
C1901 C 0.65057 0.56568 0.16057 0.0
C1902 C 0.64937 0.5847 0.17179 0.0
C1903 C 0.66807 0.59258 0.18216 0.0
O1904 O 0.67834 0.62616 0.19422 0.0
O1905 O 0.69192 0.61351 0.20127 0.0
O1906 O 0.67603 0.59028 0.19074 0.0
O1907 O 0.66291 0.60329 0.18322 0.0
H1908 H 0.68932 0.61165 0.17439 0.0
H1909 H 0.70154 0.61521 0.15627 0.0
H1910 H 0.71982 0.64481 0.17438 0.0
H1911 H 0.70758 0.64101 0.19267 0.0
H1912 H 0.67043 0.64116 0.24395 0.0
H1913 H 0.66998 0.63006 0.22475 0.0
H1914 H 0.65259 0.61112 0.26177 0.0
H1915 H 0.65189 0.6002 0.24237 0.0
H1916 H 0.63611 0.57884 0.15882 0.0
H1917 H 0.66631 0.55467 0.16465 0.0
H1918 H 0.67514 0.56917 0.17893 0.0
H1919 H 0.64482 0.59331 0.17311 0.0
C1920 C 0.59418 0.65275 0.94857 0.0
C1921 C 0.60224 0.66217 0.95152 0.0
C1922 C 0.61522 0.64804 0.96262 0.0
C1923 C 0.61259 0.65986 0.95851 0.0
C1924 C 0.60693 0.63869 0.95992 0.0
C1925 C 0.59652 0.64103 0.95295 0.0
U1926 U 0.58038 0.67188 0.92381 0.0
O1927 O 0.5715 0.6673 0.90657 0.0
O1928 O 0.56156 0.67788 0.92018 0.0
C1929 C 0.56109 0.67225 0.90966 0.0
C1930 C 0.58389 0.65498 0.94025 0.0
C1931 C 0.55016 0.66485 0.90714 0.0
C1932 C 0.54043 0.64512 0.90535 0.0
C1933 C 0.54994 0.65238 0.90967 0.0
C1934 C 0.53075 0.6628 0.89664 0.0
C1935 C 0.53094 0.65018 0.89842 0.0
C1936 C 0.54031 0.67006 0.90092 0.0
C1937 C 0.60324 0.6983 0.91507 0.0
C1938 C 0.61205 0.70659 0.89655 0.0
C1939 C 0.61793 0.71474 0.91608 0.0
C1940 C 0.60984 0.70683 0.92183 0.0
C1941 C 0.61944 0.71436 0.90345 0.0
C1942 C 0.60402 0.69856 0.90232 0.0
C1943 C 0.59794 0.68788 0.92165 0.0
O1944 O 0.57758 0.6649 0.94233 0.0
O1945 O 0.58639 0.65344 0.9287 0.0
O1946 O 0.59781 0.67738 0.916 0.0
O1947 O 0.58845 0.68966 0.92866 0.0
H1948 H 0.60067 0.67129 0.94819 0.0
H1949 H 0.61865 0.66733 0.96053 0.0
H1950 H 0.60871 0.62945 0.96278 0.0
H1951 H 0.59047 0.63361 0.9507 0.0
H1952 H 0.54079 0.63543 0.90695 0.0
H1953 H 0.55739 0.64815 0.9145 0.0
H1954 H 0.52364 0.66695 0.89126 0.0
H1955 H 0.54031 0.67967 0.89886 0.0
H1956 H 0.61321 0.70601 0.88681 0.0
H1957 H 0.62364 0.72055 0.92158 0.0
H1958 H 0.6095 0.70672 0.93165 0.0
H1959 H 0.5991 0.692 0.8969 0.0
C1960 C 0.62672 0.34419 0.19857 0.0
C1961 C 0.6173 0.35225 0.20152 0.0
C1962 C 0.63143 0.36523 0.21261 0.0
C1963 C 0.61961 0.3626 0.20851 0.0
C1964 C 0.64078 0.35694 0.20992 0.0
C1965 C 0.63844 0.34653 0.20295 0.0
U1966 U 0.60759 0.33039 0.17381 0.0
O1967 O 0.61217 0.3215 0.15657 0.0
O1968 O 0.60158 0.31157 0.17018 0.0
C1969 C 0.60721 0.3111 0.15967 0.0
C1970 C 0.62448 0.3339 0.19025 0.0
C1971 C 0.61461 0.30017 0.15714 0.0
C1972 C 0.63434 0.29044 0.15535 0.0
C1973 C 0.62709 0.29994 0.15968 0.0
C1974 C 0.61666 0.28076 0.14664 0.0
C1975 C 0.62928 0.28094 0.14842 0.0
C1976 C 0.6094 0.29032 0.15093 0.0
C1977 C 0.58117 0.35325 0.16507 0.0
C1978 C 0.57288 0.36205 0.14655 0.0
C1979 C 0.56473 0.36794 0.16609 0.0
C1980 C 0.57264 0.35985 0.17183 0.0
C1981 C 0.56511 0.36945 0.15345 0.0
C1982 C 0.58091 0.35402 0.15233 0.0
C1983 C 0.59159 0.34795 0.17165 0.0
O1984 O 0.61456 0.32759 0.19234 0.0
O1985 O 0.62603 0.3364 0.1787 0.0
O1986 O 0.60208 0.34781 0.166 0.0
O1987 O 0.58981 0.33846 0.17867 0.0
H1988 H 0.60818 0.35068 0.19819 0.0
H1989 H 0.61214 0.36866 0.21053 0.0
H1990 H 0.65001 0.35872 0.21278 0.0
H1991 H 0.64586 0.34048 0.2007 0.0
H1992 H 0.64403 0.29079 0.15695 0.0
H1993 H 0.63132 0.30739 0.1645 0.0
H1994 H 0.61251 0.27365 0.14127 0.0
H1995 H 0.59979 0.29031 0.14887 0.0
H1996 H 0.57345 0.36322 0.13681 0.0
H1997 H 0.55892 0.37365 0.17158 0.0
H1998 H 0.57275 0.35951 0.18166 0.0
H1999 H 0.58746 0.3491 0.1469 0.0
C2000 C 0.93527 0.37671 0.44857 0.0
C2001 C 0.92721 0.36729 0.45151 0.0
C2002 C 0.91423 0.38142 0.46261 0.0
C2003 C 0.91686 0.3696 0.4585 0.0
C2004 C 0.92252 0.39078 0.45991 0.0
C2005 C 0.93293 0.38844 0.45295 0.0
U2006 U 0.94907 0.35758 0.4238 0.0
O2007 O 0.95795 0.36216 0.40656 0.0
O2008 O 0.96789 0.35158 0.42017 0.0
C2009 C 0.96836 0.35721 0.40966 0.0
C2010 C 0.94556 0.37448 0.44024 0.0
C2011 C 0.97929 0.36461 0.40713 0.0
C2012 C 0.98901 0.38434 0.40534 0.0
C2013 C 0.97951 0.37709 0.40967 0.0
C2014 C 0.99869 0.36666 0.39663 0.0
C2015 C 0.9985 0.37928 0.39841 0.0
C2016 C 0.98913 0.3594 0.40092 0.0
C2017 C 0.92621 0.33117 0.41507 0.0
C2018 C 0.9174 0.32287 0.39655 0.0
C2019 C 0.91152 0.31472 0.41608 0.0
C2020 C 0.9196 0.32263 0.42182 0.0
C2021 C 0.91001 0.3151 0.40345 0.0
C2022 C 0.92543 0.3309 0.40232 0.0
C2023 C 0.93151 0.34158 0.42165 0.0
O2024 O 0.95187 0.36456 0.44233 0.0
O2025 O 0.94306 0.37602 0.42869 0.0
O2026 O 0.93164 0.35208 0.41599 0.0
O2027 O 0.941 0.3398 0.42866 0.0
H2028 H 0.92877 0.35818 0.44818 0.0
H2029 H 0.9108 0.36214 0.46052 0.0
H2030 H 0.92074 0.40001 0.46277 0.0
H2031 H 0.93897 0.39585 0.4507 0.0
H2032 H 0.98865 0.39403 0.40694 0.0
H2033 H 0.97206 0.38131 0.41449 0.0
H2034 H 1.0058 0.36251 0.39126 0.0
H2035 H 0.98914 0.34979 0.39885 0.0
H2036 H 0.91624 0.32345 0.3868 0.0
H2037 H 0.9058 0.30891 0.42158 0.0
H2038 H 0.91994 0.32274 0.43165 0.0
H2039 H 0.93035 0.33746 0.3969 0.0
C2040 C 0.90274 0.68525 0.69858 0.0
C2041 C 0.91216 0.67719 0.70153 0.0
C2042 C 0.89803 0.66421 0.71262 0.0
C2043 C 0.90985 0.66684 0.70851 0.0
C2044 C 0.88868 0.67251 0.70993 0.0
C2045 C 0.89102 0.68291 0.70296 0.0
U2046 U 0.92187 0.69905 0.67381 0.0
O2047 O 0.91729 0.70794 0.65658 0.0
O2048 O 0.92788 0.71787 0.67019 0.0
C2049 C 0.92225 0.71834 0.65967 0.0
C2050 C 0.90498 0.69555 0.69026 0.0
C2051 C 0.91485 0.72927 0.65714 0.0
C2052 C 0.89512 0.739 0.65535 0.0
C2053 C 0.90237 0.7295 0.65968 0.0
C2054 C 0.91281 0.74868 0.64664 0.0
C2055 C 0.90018 0.7485 0.64842 0.0
C2056 C 0.92006 0.73912 0.65093 0.0
C2057 C 0.94829 0.67619 0.66508 0.0
C2058 C 0.95658 0.66739 0.64656 0.0
C2059 C 0.96473 0.6615 0.66609 0.0
C2060 C 0.95683 0.66959 0.67184 0.0
C2061 C 0.96435 0.65999 0.65346 0.0
C2062 C 0.94855 0.67542 0.65234 0.0
C2063 C 0.93787 0.68149 0.67166 0.0
O2064 O 0.9149 0.70186 0.69234 0.0
O2065 O 0.90344 0.69305 0.6787 0.0
O2066 O 0.92738 0.68163 0.66601 0.0
O2067 O 0.93965 0.69098 0.67867 0.0
H2068 H 0.92128 0.67876 0.6982 0.0
H2069 H 0.91732 0.66078 0.71054 0.0
H2070 H 0.87945 0.67073 0.71278 0.0
H2071 H 0.8836 0.68896 0.70071 0.0
H2072 H 0.88543 0.73865 0.65695 0.0
H2073 H 0.89815 0.72205 0.6645 0.0
H2074 H 0.91696 0.75579 0.64127 0.0
H2075 H 0.92968 0.73913 0.64887 0.0
H2076 H 0.95601 0.66622 0.63682 0.0
H2077 H 0.97054 0.65579 0.67159 0.0
H2078 H 0.95671 0.66993 0.68167 0.0
H2079 H 0.942 0.68034 0.64691 0.0
C2080 C 0.5942 0.37671 0.58087 0.0
C2081 C 0.60226 0.36729 0.57792 0.0
C2082 C 0.61524 0.38142 0.56683 0.0
C2083 C 0.61261 0.3696 0.57093 0.0
C2084 C 0.60695 0.39077 0.56952 0.0
C2085 C 0.59654 0.38843 0.57649 0.0
U2086 U 0.5804 0.35758 0.60564 0.0
O2087 O 0.57152 0.36216 0.62287 0.0
O2088 O 0.56158 0.35157 0.60926 0.0
C2089 C 0.56111 0.3572 0.61978 0.0
C2090 C 0.58391 0.37447 0.58919 0.0
C2091 C 0.55018 0.3646 0.62231 0.0
C2092 C 0.54045 0.38433 0.6241 0.0
C2093 C 0.54995 0.37708 0.61977 0.0
C2094 C 0.53077 0.36665 0.63281 0.0
C2095 C 0.53096 0.37927 0.63103 0.0
C2096 C 0.54033 0.35939 0.62852 0.0
C2097 C 0.60326 0.33116 0.61437 0.0
C2098 C 0.61207 0.32287 0.63289 0.0
C2099 C 0.61795 0.31472 0.61336 0.0
C2100 C 0.60986 0.32262 0.60761 0.0
C2101 C 0.61946 0.3151 0.62599 0.0
C2102 C 0.60404 0.3309 0.62712 0.0
C2103 C 0.59796 0.34158 0.60779 0.0
O2104 O 0.5776 0.36455 0.58711 0.0
O2105 O 0.58641 0.37601 0.60075 0.0
O2106 O 0.59783 0.35207 0.61344 0.0
O2107 O 0.58847 0.3398 0.60078 0.0
H2108 H 0.60069 0.35817 0.58125 0.0
H2109 H 0.61867 0.36213 0.56891 0.0
H2110 H 0.60873 0.4 0.56667 0.0
H2111 H 0.59049 0.39585 0.57874 0.0
H2112 H 0.54081 0.39402 0.6225 0.0
H2113 H 0.5574 0.38131 0.61495 0.0
H2114 H 0.52366 0.3625 0.63818 0.0
H2115 H 0.54033 0.34978 0.63058 0.0
H2116 H 0.61323 0.32344 0.64263 0.0
H2117 H 0.62366 0.3089 0.60786 0.0
H2118 H 0.60952 0.32274 0.59779 0.0
H2119 H 0.59912 0.33745 0.63254 0.0
C2120 C 0.90274 0.34419 0.83088 0.0
C2121 C 0.91216 0.35225 0.82794 0.0
C2122 C 0.89803 0.36523 0.81684 0.0
C2123 C 0.90985 0.3626 0.82095 0.0
C2124 C 0.88868 0.35693 0.81954 0.0
C2125 C 0.89102 0.34653 0.8265 0.0
U2126 U 0.92187 0.33039 0.85565 0.0
O2127 O 0.91729 0.3215 0.87289 0.0
O2128 O 0.92787 0.31157 0.85928 0.0
C2129 C 0.92224 0.3111 0.86979 0.0
C2130 C 0.90497 0.33389 0.83921 0.0
C2131 C 0.91484 0.30017 0.87232 0.0
C2132 C 0.89511 0.29044 0.87411 0.0
C2133 C 0.90237 0.29994 0.86978 0.0
C2134 C 0.91279 0.28076 0.88282 0.0
C2135 C 0.90017 0.28095 0.88104 0.0
C2136 C 0.92005 0.29032 0.87853 0.0
C2137 C 0.94829 0.35324 0.86439 0.0
C2138 C 0.95658 0.36205 0.8829 0.0
C2139 C 0.96473 0.36793 0.86337 0.0
C2140 C 0.95682 0.35985 0.85763 0.0
C2141 C 0.96435 0.36945 0.87601 0.0
C2142 C 0.94855 0.35402 0.87713 0.0
C2143 C 0.93787 0.34795 0.85781 0.0
O2144 O 0.91489 0.32758 0.83712 0.0
O2145 O 0.90343 0.33639 0.85076 0.0
O2146 O 0.92737 0.34781 0.86346 0.0
O2147 O 0.93965 0.33846 0.85079 0.0
H2148 H 0.92128 0.35068 0.83127 0.0
H2149 H 0.91732 0.36866 0.81893 0.0
H2150 H 0.87944 0.35871 0.81668 0.0
H2151 H 0.8836 0.34048 0.82875 0.0
H2152 H 0.88542 0.2908 0.87251 0.0
H2153 H 0.89814 0.30739 0.86496 0.0
H2154 H 0.91694 0.27365 0.88819 0.0
H2155 H 0.92966 0.29031 0.8806 0.0
H2156 H 0.956 0.36322 0.89265 0.0
H2157 H 0.97054 0.37365 0.85787 0.0
H2158 H 0.95671 0.35951 0.8478 0.0
H2159 H 0.94199 0.3491 0.88256 0.0
C2160 C 0.93526 0.65274 0.08088 0.0
C2161 C 0.9272 0.66216 0.07793 0.0
C2162 C 0.91422 0.64803 0.06684 0.0
C2163 C 0.91685 0.65985 0.07094 0.0
C2164 C 0.92251 0.63867 0.06953 0.0
C2165 C 0.93292 0.64101 0.0765 0.0
U2166 U 0.94906 0.67187 0.10564 0.0
O2167 O 0.95795 0.66728 0.12288 0.0
O2168 O 0.96788 0.67787 0.10927 0.0
C2169 C 0.96835 0.67224 0.11978 0.0
C2170 C 0.94556 0.65497 0.0892 0.0
C2171 C 0.97929 0.66484 0.12231 0.0
C2172 C 0.98902 0.64511 0.1241 0.0
C2173 C 0.97951 0.65236 0.11977 0.0
C2174 C 0.9987 0.6628 0.13281 0.0
C2175 C 0.99851 0.65017 0.13103 0.0
C2176 C 0.98913 0.67005 0.12852 0.0
C2177 C 0.9262 0.69828 0.11438 0.0
C2178 C 0.9174 0.70657 0.1329 0.0
C2179 C 0.91152 0.71473 0.11337 0.0
C2180 C 0.9196 0.70682 0.10762 0.0
C2181 C 0.91 0.71434 0.126 0.0
C2182 C 0.92543 0.69855 0.12712 0.0
C2183 C 0.9315 0.68786 0.1078 0.0
O2184 O 0.95186 0.66489 0.08711 0.0
O2185 O 0.94306 0.65343 0.10075 0.0
O2186 O 0.93164 0.67737 0.11345 0.0
O2187 O 0.94099 0.68965 0.10078 0.0
H2188 H 0.92877 0.67127 0.08126 0.0
H2189 H 0.91079 0.66732 0.06892 0.0
H2190 H 0.92073 0.62944 0.06668 0.0
H2191 H 0.93897 0.63359 0.07875 0.0
H2192 H 0.98866 0.63542 0.1225 0.0
H2193 H 0.97206 0.64814 0.11495 0.0
H2194 H 1.00581 0.66695 0.13818 0.0
H2195 H 0.98914 0.67967 0.13058 0.0
H2196 H 0.91623 0.706 0.14264 0.0
H2197 H 0.9058 0.72054 0.10787 0.0
H2198 H 0.91994 0.7067 0.09779 0.0
H2199 H 0.93035 0.69199 0.13255 0.0
C2200 C 0.6267 0.68527 0.33087 0.0
C2201 C 0.61728 0.67721 0.32793 0.0
C2202 C 0.63141 0.66423 0.31683 0.0
C2203 C 0.61959 0.66686 0.32094 0.0
C2204 C 0.64077 0.67253 0.31953 0.0
C2205 C 0.63843 0.68293 0.32649 0.0
U2206 U 0.60757 0.69907 0.35564 0.0
O2207 O 0.61216 0.70795 0.37288 0.0
O2208 O 0.60157 0.71789 0.35927 0.0
C2209 C 0.6072 0.71836 0.36978 0.0
C2210 C 0.62447 0.69556 0.3392 0.0
C2211 C 0.6146 0.72929 0.37231 0.0
C2212 C 0.63433 0.73902 0.3741 0.0
C2213 C 0.62708 0.72952 0.36977 0.0
C2214 C 0.61665 0.7487 0.38281 0.0
C2215 C 0.62928 0.74851 0.38103 0.0
C2216 C 0.60939 0.73914 0.37853 0.0
C2217 C 0.58116 0.67621 0.36438 0.0
C2218 C 0.57287 0.6674 0.3829 0.0
C2219 C 0.56471 0.66152 0.36337 0.0
C2220 C 0.57262 0.66961 0.35762 0.0
C2221 C 0.5651 0.66001 0.376 0.0
C2222 C 0.58089 0.67544 0.37712 0.0
C2223 C 0.59157 0.68151 0.3578 0.0
O2224 O 0.61455 0.70187 0.33711 0.0
O2225 O 0.62601 0.69306 0.35075 0.0
O2226 O 0.60207 0.68165 0.36345 0.0
O2227 O 0.58979 0.691 0.35078 0.0
H2228 H 0.60817 0.67878 0.33126 0.0
H2229 H 0.61213 0.6608 0.31892 0.0
H2230 H 0.65 0.67075 0.31667 0.0
H2231 H 0.64584 0.68898 0.32874 0.0
H2232 H 0.64402 0.73866 0.3725 0.0
H2233 H 0.6313 0.72206 0.36495 0.0
H2234 H 0.6125 0.75581 0.38818 0.0
H2235 H 0.59978 0.73914 0.38059 0.0
H2236 H 0.57344 0.66624 0.39264 0.0
H2237 H 0.5589 0.65581 0.35787 0.0
H2238 H 0.57273 0.66995 0.34779 0.0
H2239 H 0.58745 0.68035 0.38255 0.0
C2240 C 0.94858 0.59418 0.65275 0.0
C2241 C 0.95152 0.60224 0.66217 0.0
C2242 C 0.96262 0.61522 0.64804 0.0
C2243 C 0.95851 0.61259 0.65986 0.0
C2244 C 0.95993 0.60692 0.63869 0.0
C2245 C 0.95296 0.59652 0.64103 0.0
U2246 U 0.92381 0.58038 0.67188 0.0
O2247 O 0.90658 0.5715 0.6673 0.0
O2248 O 0.92018 0.56156 0.67788 0.0
C2249 C 0.90967 0.56109 0.67225 0.0
C2250 C 0.94026 0.58389 0.65498 0.0
C2251 C 0.90714 0.55016 0.66485 0.0
C2252 C 0.90535 0.54043 0.64512 0.0
C2253 C 0.90968 0.54993 0.65238 0.0
C2254 C 0.89664 0.53075 0.6628 0.0
C2255 C 0.89842 0.53094 0.65018 0.0
C2256 C 0.90093 0.54031 0.67006 0.0
C2257 C 0.91507 0.60324 0.6983 0.0
C2258 C 0.89656 0.61205 0.70659 0.0
C2259 C 0.91609 0.61793 0.71474 0.0
C2260 C 0.92183 0.60984 0.70683 0.0
C2261 C 0.90345 0.61944 0.71436 0.0
C2262 C 0.90233 0.60401 0.69856 0.0
C2263 C 0.92166 0.59794 0.68788 0.0
O2264 O 0.94234 0.57758 0.6649 0.0
O2265 O 0.9287 0.58639 0.65344 0.0
O2266 O 0.916 0.5978 0.67738 0.0
O2267 O 0.92867 0.58845 0.68966 0.0
H2268 H 0.94819 0.60067 0.67129 0.0
H2269 H 0.96053 0.61865 0.66733 0.0
H2270 H 0.96278 0.6087 0.62945 0.0
H2271 H 0.95071 0.59047 0.63361 0.0
H2272 H 0.90695 0.54079 0.63543 0.0
H2273 H 0.9145 0.55739 0.64815 0.0
H2274 H 0.89127 0.52364 0.66695 0.0
H2275 H 0.89886 0.54031 0.67967 0.0
H2276 H 0.88681 0.61321 0.70601 0.0
H2277 H 0.92159 0.62364 0.72055 0.0
H2278 H 0.93166 0.6095 0.70672 0.0
H2279 H 0.8969 0.59909 0.692 0.0
C2280 C 0.68526 0.69858 0.90274 0.0
C2281 C 0.67719 0.70152 0.91216 0.0
C2282 C 0.66422 0.71262 0.89803 0.0
C2283 C 0.66685 0.70851 0.90985 0.0
C2284 C 0.67251 0.70993 0.88868 0.0
C2285 C 0.68292 0.70296 0.89102 0.0
U2286 U 0.69905 0.67381 0.92187 0.0
O2287 O 0.70794 0.65658 0.91729 0.0
O2288 O 0.71787 0.67018 0.92787 0.0
C2289 C 0.71834 0.65967 0.92224 0.0
C2290 C 0.69555 0.69026 0.90497 0.0
C2291 C 0.72928 0.65714 0.91484 0.0
C2292 C 0.739 0.65535 0.89512 0.0
C2293 C 0.7295 0.65968 0.90237 0.0
C2294 C 0.74869 0.64664 0.9128 0.0
C2295 C 0.7485 0.64842 0.90018 0.0
C2296 C 0.73912 0.65093 0.92006 0.0
C2297 C 0.6762 0.66508 0.94829 0.0
C2298 C 0.66739 0.64656 0.95658 0.0
C2299 C 0.66151 0.66609 0.96473 0.0
C2300 C 0.66959 0.67183 0.95682 0.0
C2301 C 0.65999 0.65346 0.96435 0.0
C2302 C 0.67542 0.65233 0.94855 0.0
C2303 C 0.68149 0.67166 0.93787 0.0
O2304 O 0.70186 0.69234 0.91489 0.0
O2305 O 0.69305 0.6787 0.90343 0.0
O2306 O 0.68163 0.66601 0.92737 0.0
O2307 O 0.69098 0.67867 0.93965 0.0
H2308 H 0.67876 0.69819 0.92128 0.0
H2309 H 0.66079 0.71053 0.91732 0.0
H2310 H 0.67073 0.71278 0.87944 0.0
H2311 H 0.68896 0.70071 0.8836 0.0
H2312 H 0.73865 0.65695 0.88542 0.0
H2313 H 0.72205 0.6645 0.89814 0.0
H2314 H 0.75579 0.64127 0.91695 0.0
H2315 H 0.73913 0.64886 0.92967 0.0
H2316 H 0.66622 0.63682 0.956 0.0
H2317 H 0.65579 0.67159 0.97054 0.0
H2318 H 0.66993 0.68166 0.95671 0.0
H2319 H 0.68034 0.64691 0.94199 0.0
C2320 C 0.58088 0.43526 0.15274 0.0
C2321 C 0.57793 0.4272 0.16216 0.0
C2322 C 0.56684 0.41422 0.14803 0.0
C2323 C 0.57095 0.41685 0.15985 0.0
C2324 C 0.56953 0.42252 0.13867 0.0
C2325 C 0.5765 0.43292 0.14101 0.0
U2326 U 0.60564 0.44906 0.17187 0.0
O2327 O 0.62288 0.45795 0.16729 0.0
O2328 O 0.60927 0.46788 0.17787 0.0
C2329 C 0.61978 0.46836 0.17224 0.0
C2330 C 0.5892 0.44556 0.15497 0.0
C2331 C 0.62231 0.47929 0.16484 0.0
C2332 C 0.6241 0.48902 0.14511 0.0
C2333 C 0.61978 0.47951 0.15237 0.0
C2334 C 0.63281 0.4987 0.1628 0.0
C2335 C 0.63103 0.49851 0.15017 0.0
C2336 C 0.62852 0.48913 0.17005 0.0
C2337 C 0.61438 0.42621 0.19828 0.0
C2338 C 0.6329 0.4174 0.20657 0.0
C2339 C 0.61337 0.41152 0.21473 0.0
C2340 C 0.60762 0.4196 0.20682 0.0
C2341 C 0.626 0.41 0.21434 0.0
C2342 C 0.62713 0.42543 0.19855 0.0
C2343 C 0.6078 0.4315 0.18787 0.0
O2344 O 0.58712 0.45187 0.16489 0.0
O2345 O 0.60075 0.44306 0.15343 0.0
O2346 O 0.61345 0.43164 0.17737 0.0
O2347 O 0.60078 0.44099 0.18965 0.0
H2348 H 0.58126 0.42877 0.17127 0.0
H2349 H 0.56893 0.41079 0.16731 0.0
H2350 H 0.56668 0.42074 0.12944 0.0
H2351 H 0.57875 0.43897 0.1336 0.0
H2352 H 0.6225 0.48866 0.13542 0.0
H2353 H 0.61495 0.47206 0.14814 0.0
H2354 H 0.63818 0.50581 0.16694 0.0
H2355 H 0.63059 0.48914 0.17966 0.0
H2356 H 0.64264 0.41624 0.206 0.0
H2357 H 0.60787 0.4058 0.22054 0.0
H2358 H 0.5978 0.41994 0.2067 0.0
H2359 H 0.63255 0.43035 0.19199 0.0
C2360 C 0.84419 0.33088 0.40274 0.0
C2361 C 0.85225 0.32794 0.41216 0.0
C2362 C 0.86523 0.31684 0.39803 0.0
C2363 C 0.8626 0.32095 0.40985 0.0
C2364 C 0.85694 0.31954 0.38867 0.0
C2365 C 0.84653 0.3265 0.39101 0.0
U2366 U 0.83039 0.35565 0.42187 0.0
O2367 O 0.82151 0.37289 0.41728 0.0
O2368 O 0.81157 0.35928 0.42787 0.0
C2369 C 0.8111 0.36979 0.42224 0.0
C2370 C 0.8339 0.33921 0.40497 0.0
C2371 C 0.80017 0.37232 0.41484 0.0
C2372 C 0.79045 0.37411 0.39511 0.0
C2373 C 0.79995 0.36979 0.40236 0.0
C2374 C 0.78076 0.38282 0.41279 0.0
C2375 C 0.78095 0.38104 0.40017 0.0
C2376 C 0.79033 0.37853 0.42005 0.0
C2377 C 0.85325 0.36439 0.44828 0.0
C2378 C 0.86206 0.3829 0.45657 0.0
C2379 C 0.86794 0.36337 0.46473 0.0
C2380 C 0.85986 0.35763 0.45682 0.0
C2381 C 0.86945 0.37601 0.46434 0.0
C2382 C 0.85403 0.37713 0.44854 0.0
C2383 C 0.84795 0.35781 0.43786 0.0
O2384 O 0.82759 0.33712 0.41489 0.0
O2385 O 0.8364 0.35076 0.40343 0.0
O2386 O 0.84782 0.36346 0.42737 0.0
O2387 O 0.83846 0.35079 0.43965 0.0
H2388 H 0.85069 0.33127 0.42127 0.0
H2389 H 0.86866 0.31893 0.41731 0.0
H2390 H 0.85872 0.31668 0.37944 0.0
H2391 H 0.84049 0.32875 0.3836 0.0
H2392 H 0.7908 0.37251 0.38542 0.0
H2393 H 0.8074 0.36496 0.39813 0.0
H2394 H 0.77365 0.38819 0.41694 0.0
H2395 H 0.79032 0.3806 0.42966 0.0
H2396 H 0.86323 0.39265 0.456 0.0
H2397 H 0.87365 0.35787 0.47054 0.0
H2398 H 0.85951 0.3478 0.45671 0.0
H2399 H 0.84911 0.38256 0.44199 0.0
C2400 C 0.94857 0.43526 0.87671 0.0
C2401 C 0.95151 0.4272 0.8673 0.0
C2402 C 0.96261 0.41422 0.88142 0.0
C2403 C 0.9585 0.41685 0.86961 0.0
C2404 C 0.95992 0.42251 0.89078 0.0
C2405 C 0.95295 0.43292 0.88844 0.0
U2406 U 0.9238 0.44906 0.85759 0.0
O2407 O 0.90657 0.45794 0.86217 0.0
O2408 O 0.92017 0.46788 0.85158 0.0
C2409 C 0.90966 0.46835 0.85721 0.0
C2410 C 0.94025 0.44555 0.87448 0.0
C2411 C 0.90713 0.47928 0.86462 0.0
C2412 C 0.90534 0.48901 0.88434 0.0
C2413 C 0.90967 0.4795 0.87709 0.0
C2414 C 0.89663 0.49869 0.86666 0.0
C2415 C 0.89841 0.4985 0.87929 0.0
C2416 C 0.90092 0.48913 0.8594 0.0
C2417 C 0.91507 0.4262 0.83117 0.0
C2418 C 0.89655 0.41739 0.82288 0.0
C2419 C 0.91608 0.41151 0.81472 0.0
C2420 C 0.92182 0.4196 0.82263 0.0
C2421 C 0.90345 0.41 0.81511 0.0
C2422 C 0.90232 0.42542 0.83091 0.0
C2423 C 0.92165 0.4315 0.84159 0.0
O2424 O 0.94233 0.45186 0.86456 0.0
O2425 O 0.92869 0.44305 0.87602 0.0
O2426 O 0.916 0.43163 0.85208 0.0
O2427 O 0.92866 0.44099 0.8398 0.0
H2428 H 0.94818 0.42877 0.85818 0.0
H2429 H 0.96052 0.41079 0.86214 0.0
H2430 H 0.96278 0.42073 0.90001 0.0
H2431 H 0.9507 0.43897 0.89586 0.0
H2432 H 0.90694 0.48865 0.89404 0.0
H2433 H 0.91449 0.47205 0.88132 0.0
H2434 H 0.89126 0.5058 0.86251 0.0
H2435 H 0.89885 0.48913 0.84979 0.0
H2436 H 0.8868 0.41623 0.82345 0.0
H2437 H 0.92158 0.4058 0.80891 0.0
H2438 H 0.93165 0.41994 0.82274 0.0
H2439 H 0.8969 0.43034 0.83746 0.0
C2440 C 0.84419 0.69858 0.12671 0.0
C2441 C 0.85225 0.70152 0.11729 0.0
C2442 C 0.86523 0.71261 0.13142 0.0
C2443 C 0.8626 0.70851 0.1196 0.0
C2444 C 0.85693 0.70992 0.14078 0.0
C2445 C 0.84653 0.70295 0.13844 0.0
U2446 U 0.83039 0.67381 0.10758 0.0
O2447 O 0.8215 0.65658 0.11216 0.0
O2448 O 0.81157 0.67018 0.10158 0.0
C2449 C 0.8111 0.65967 0.10721 0.0
C2450 C 0.83389 0.69025 0.12448 0.0
C2451 C 0.80016 0.65714 0.11461 0.0
C2452 C 0.79044 0.65535 0.13434 0.0
C2453 C 0.79994 0.65968 0.12708 0.0
C2454 C 0.78075 0.64664 0.11665 0.0
C2455 C 0.78094 0.64842 0.12928 0.0
C2456 C 0.79032 0.65093 0.1094 0.0
C2457 C 0.85325 0.66507 0.08117 0.0
C2458 C 0.86205 0.64656 0.07287 0.0
C2459 C 0.86794 0.66609 0.06472 0.0
C2460 C 0.85985 0.67183 0.07263 0.0
C2461 C 0.86945 0.65345 0.06511 0.0
C2462 C 0.85402 0.65233 0.0809 0.0
C2463 C 0.84795 0.67165 0.09158 0.0
O2464 O 0.82759 0.69234 0.11456 0.0
O2465 O 0.83639 0.6787 0.12602 0.0
O2466 O 0.84781 0.666 0.10208 0.0
O2467 O 0.83846 0.67867 0.0898 0.0
H2468 H 0.85068 0.69819 0.10818 0.0
H2469 H 0.86866 0.71053 0.11214 0.0
H2470 H 0.85872 0.71278 0.15001 0.0
H2471 H 0.84048 0.7007 0.14585 0.0
H2472 H 0.79079 0.65695 0.14403 0.0
H2473 H 0.80739 0.6645 0.13131 0.0
H2474 H 0.77364 0.64127 0.1125 0.0
H2475 H 0.79031 0.64887 0.09978 0.0
H2476 H 0.86321 0.63681 0.07345 0.0
H2477 H 0.87365 0.67159 0.05891 0.0
H2478 H 0.85951 0.68166 0.07275 0.0
H2479 H 0.8491 0.6469 0.08746 0.0
C2480 C 0.58087 0.5942 0.37671 0.0
C2481 C 0.57793 0.60226 0.36729 0.0
C2482 C 0.56683 0.61524 0.38142 0.0
C2483 C 0.57094 0.6126 0.3696 0.0
C2484 C 0.56953 0.60694 0.39077 0.0
C2485 C 0.5765 0.59654 0.38843 0.0
U2486 U 0.60564 0.5804 0.35758 0.0
O2487 O 0.62288 0.57151 0.36216 0.0
O2488 O 0.60927 0.56158 0.35158 0.0
C2489 C 0.61978 0.56111 0.3572 0.0
C2490 C 0.5892 0.5839 0.37448 0.0
C2491 C 0.62231 0.55018 0.3646 0.0
C2492 C 0.6241 0.54045 0.38433 0.0
C2493 C 0.61978 0.54995 0.37708 0.0
C2494 C 0.63281 0.53077 0.36665 0.0
C2495 C 0.63104 0.53096 0.37927 0.0
C2496 C 0.62852 0.54033 0.35939 0.0
C2497 C 0.61438 0.60326 0.33116 0.0
C2498 C 0.63289 0.61206 0.32287 0.0
C2499 C 0.61336 0.61794 0.31472 0.0
C2500 C 0.60762 0.60986 0.32263 0.0
C2501 C 0.62599 0.61946 0.3151 0.0
C2502 C 0.62712 0.60403 0.3309 0.0
C2503 C 0.60779 0.59796 0.34158 0.0
O2504 O 0.58711 0.57759 0.36456 0.0
O2505 O 0.60075 0.5864 0.37602 0.0
O2506 O 0.61345 0.59782 0.35207 0.0
O2507 O 0.60078 0.58847 0.3398 0.0
H2508 H 0.58126 0.60069 0.35817 0.0
H2509 H 0.56892 0.61866 0.36213 0.0
H2510 H 0.56667 0.60872 0.4 0.0
H2511 H 0.57874 0.59049 0.39585 0.0
H2512 H 0.62251 0.5408 0.39403 0.0
H2513 H 0.61495 0.5574 0.38131 0.0
H2514 H 0.63818 0.52366 0.3625 0.0
H2515 H 0.63059 0.54032 0.34978 0.0
H2516 H 0.64264 0.61323 0.32344 0.0
H2517 H 0.60786 0.62366 0.30891 0.0
H2518 H 0.59779 0.60952 0.32274 0.0
H2519 H 0.63255 0.59911 0.33745 0.0
C2520 C 0.68527 0.33087 0.6267 0.0
C2521 C 0.67721 0.32793 0.61728 0.0
C2522 C 0.66424 0.31683 0.63141 0.0
C2523 C 0.66687 0.32094 0.61959 0.0
C2524 C 0.67253 0.31952 0.64076 0.0
C2525 C 0.68293 0.32649 0.63842 0.0
U2526 U 0.69907 0.35564 0.60757 0.0
O2527 O 0.70796 0.37287 0.61215 0.0
O2528 O 0.71789 0.35927 0.60157 0.0
C2529 C 0.71836 0.36978 0.6072 0.0
C2530 C 0.69557 0.33919 0.62447 0.0
C2531 C 0.7293 0.37231 0.6146 0.0
C2532 C 0.73902 0.3741 0.63433 0.0
C2533 C 0.72952 0.36977 0.62707 0.0
C2534 C 0.7487 0.38281 0.61665 0.0
C2535 C 0.74851 0.38103 0.62927 0.0
C2536 C 0.73914 0.37852 0.60939 0.0
C2537 C 0.67622 0.36438 0.58115 0.0
C2538 C 0.66741 0.38289 0.57286 0.0
C2539 C 0.66153 0.36336 0.56471 0.0
C2540 C 0.66961 0.35762 0.57262 0.0
C2541 C 0.66001 0.376 0.56509 0.0
C2542 C 0.67544 0.37712 0.58089 0.0
C2543 C 0.68151 0.35779 0.59157 0.0
O2544 O 0.70188 0.33711 0.61455 0.0
O2545 O 0.69307 0.35075 0.62601 0.0
O2546 O 0.68165 0.36345 0.60207 0.0
O2547 O 0.691 0.35078 0.58979 0.0
H2548 H 0.67878 0.33126 0.60816 0.0
H2549 H 0.66081 0.31892 0.61212 0.0
H2550 H 0.67075 0.31667 0.65 0.0
H2551 H 0.68898 0.32874 0.64584 0.0
H2552 H 0.73866 0.3725 0.64402 0.0
H2553 H 0.72207 0.36495 0.6313 0.0
H2554 H 0.75581 0.38818 0.6125 0.0
H2555 H 0.73915 0.38059 0.59978 0.0
H2556 H 0.66624 0.39264 0.57344 0.0
H2557 H 0.65581 0.35786 0.5589 0.0
H2558 H 0.66995 0.34779 0.57273 0.0
H2559 H 0.68036 0.38255 0.58745 0.0
C2560 C 0.65276 0.94858 0.59418 0.0
C2561 C 0.66217 0.95152 0.60224 0.0
C2562 C 0.64805 0.96262 0.61522 0.0
C2563 C 0.65986 0.95851 0.61259 0.0
C2564 C 0.63869 0.95992 0.60693 0.0
C2565 C 0.64103 0.95295 0.59652 0.0
U2566 U 0.67188 0.92381 0.58038 0.0
O2567 O 0.6673 0.90657 0.5715 0.0
O2568 O 0.67789 0.92018 0.56156 0.0
C2569 C 0.67226 0.90966 0.56109 0.0
C2570 C 0.65499 0.94025 0.58389 0.0
C2571 C 0.66485 0.90714 0.55016 0.0
C2572 C 0.64513 0.90535 0.54043 0.0
C2573 C 0.65238 0.90968 0.54994 0.0
C2574 C 0.66281 0.89664 0.53075 0.0
C2575 C 0.65018 0.89842 0.53094 0.0
C2576 C 0.67007 0.90092 0.54031 0.0
C2577 C 0.6983 0.91507 0.60324 0.0
C2578 C 0.70659 0.89655 0.61205 0.0
C2579 C 0.71474 0.91608 0.61793 0.0
C2580 C 0.70684 0.92183 0.60985 0.0
C2581 C 0.71436 0.90345 0.61944 0.0
C2582 C 0.69856 0.90233 0.60402 0.0
C2583 C 0.68788 0.92165 0.59794 0.0
O2584 O 0.66491 0.94234 0.57758 0.0
O2585 O 0.65345 0.9287 0.58639 0.0
O2586 O 0.67739 0.916 0.59781 0.0
O2587 O 0.68967 0.92867 0.58845 0.0
H2588 H 0.67129 0.94819 0.60067 0.0
H2589 H 0.66733 0.96053 0.61865 0.0
H2590 H 0.62946 0.96278 0.60871 0.0
H2591 H 0.63361 0.95071 0.59047 0.0
H2592 H 0.63543 0.90695 0.54079 0.0
H2593 H 0.64815 0.9145 0.55739 0.0
H2594 H 0.66696 0.89127 0.52364 0.0
H2595 H 0.67968 0.89886 0.54031 0.0
H2596 H 0.70601 0.88681 0.61322 0.0
H2597 H 0.72055 0.92158 0.62364 0.0
H2598 H 0.70672 0.93165 0.6095 0.0
H2599 H 0.69201 0.8969 0.5991 0.0
C2600 C 0.15274 0.58088 0.43526 0.0
C2601 C 0.16216 0.57793 0.4272 0.0
C2602 C 0.14803 0.56684 0.41422 0.0
C2603 C 0.15985 0.57094 0.41685 0.0
C2604 C 0.13867 0.56953 0.42251 0.0
C2605 C 0.14101 0.5765 0.43292 0.0
U2606 U 0.17187 0.60564 0.44906 0.0
O2607 O 0.16729 0.62288 0.45795 0.0
O2608 O 0.17787 0.60927 0.46788 0.0
C2609 C 0.17224 0.61978 0.46835 0.0
C2610 C 0.15497 0.5892 0.44555 0.0
C2611 C 0.16484 0.62231 0.47928 0.0
C2612 C 0.14511 0.6241 0.48901 0.0
C2613 C 0.15237 0.61978 0.47951 0.0
C2614 C 0.1628 0.63281 0.49869 0.0
C2615 C 0.15017 0.63103 0.49851 0.0
C2616 C 0.17005 0.62852 0.48913 0.0
C2617 C 0.19828 0.61438 0.4262 0.0
C2618 C 0.20658 0.6329 0.4174 0.0
C2619 C 0.21473 0.61337 0.41151 0.0
C2620 C 0.20682 0.60762 0.4196 0.0
C2621 C 0.21435 0.626 0.41 0.0
C2622 C 0.19855 0.62712 0.42543 0.0
C2623 C 0.18787 0.6078 0.4315 0.0
O2624 O 0.16489 0.58711 0.45186 0.0
O2625 O 0.15343 0.60075 0.44305 0.0
O2626 O 0.17737 0.61345 0.43164 0.0
O2627 O 0.18965 0.60078 0.44099 0.0
H2628 H 0.17127 0.58126 0.42877 0.0
H2629 H 0.16732 0.56892 0.41079 0.0
H2630 H 0.12944 0.56668 0.42073 0.0
H2631 H 0.1336 0.57875 0.43897 0.0
H2632 H 0.13542 0.6225 0.48866 0.0
H2633 H 0.14814 0.61495 0.47206 0.0
H2634 H 0.16694 0.63818 0.5058 0.0
H2635 H 0.17967 0.63059 0.48914 0.0
H2636 H 0.206 0.64264 0.41623 0.0
H2637 H 0.22054 0.60787 0.4058 0.0
H2638 H 0.2067 0.59779 0.41994 0.0
H2639 H 0.19199 0.63255 0.43035 0.0
C2640 C 0.69858 0.90274 0.68526 0.0
C2641 C 0.70153 0.91216 0.6772 0.0
C2642 C 0.71263 0.89803 0.66422 0.0
C2643 C 0.70852 0.90985 0.66685 0.0
C2644 C 0.70993 0.88868 0.67251 0.0
C2645 C 0.70296 0.89102 0.68292 0.0
U2646 U 0.67382 0.92187 0.69906 0.0
O2647 O 0.65658 0.91729 0.70794 0.0
O2648 O 0.67019 0.92788 0.71788 0.0
C2649 C 0.65968 0.92225 0.71835 0.0
C2650 C 0.69026 0.90498 0.69555 0.0
C2651 C 0.65715 0.91485 0.72928 0.0
C2652 C 0.65535 0.89512 0.73901 0.0
C2653 C 0.65968 0.90237 0.7295 0.0
C2654 C 0.64665 0.9128 0.74869 0.0
C2655 C 0.64842 0.90018 0.7485 0.0
C2656 C 0.65093 0.92006 0.73912 0.0
C2657 C 0.66508 0.94829 0.6762 0.0
C2658 C 0.64657 0.95658 0.66739 0.0
C2659 C 0.6661 0.96473 0.66151 0.0
C2660 C 0.67184 0.95682 0.66959 0.0
C2661 C 0.65346 0.96435 0.65999 0.0
C2662 C 0.65234 0.94855 0.67542 0.0
C2663 C 0.67166 0.93787 0.6815 0.0
O2664 O 0.69235 0.9149 0.70186 0.0
O2665 O 0.67871 0.90344 0.69305 0.0
O2666 O 0.66601 0.92738 0.68163 0.0
O2667 O 0.67868 0.93965 0.69099 0.0
H2668 H 0.6982 0.92128 0.67876 0.0
H2669 H 0.71054 0.91732 0.66079 0.0
H2670 H 0.71279 0.87945 0.67073 0.0
H2671 H 0.70071 0.8836 0.68896 0.0
H2672 H 0.65695 0.88543 0.73865 0.0
H2673 H 0.6645 0.89815 0.72205 0.0
H2674 H 0.64127 0.91695 0.7558 0.0
H2675 H 0.64887 0.92967 0.73913 0.0
H2676 H 0.63682 0.95601 0.66622 0.0
H2677 H 0.6716 0.97054 0.65579 0.0
H2678 H 0.68167 0.95671 0.66993 0.0
H2679 H 0.64691 0.942 0.68034 0.0
C2680 C 0.37672 0.44857 0.93526 0.0
C2681 C 0.3673 0.45151 0.9272 0.0
C2682 C 0.38143 0.46261 0.91422 0.0
C2683 C 0.36961 0.4585 0.91685 0.0
C2684 C 0.39078 0.45991 0.92251 0.0
C2685 C 0.38844 0.45295 0.93292 0.0
U2686 U 0.35759 0.4238 0.94906 0.0
O2687 O 0.36217 0.40656 0.95794 0.0
O2688 O 0.35159 0.42017 0.96788 0.0
C2689 C 0.35722 0.40966 0.96835 0.0
C2690 C 0.37448 0.44024 0.94555 0.0
C2691 C 0.36462 0.40713 0.97928 0.0
C2692 C 0.38435 0.40534 0.98901 0.0
C2693 C 0.37709 0.40967 0.97951 0.0
C2694 C 0.36666 0.39663 0.99869 0.0
C2695 C 0.37929 0.39841 0.9985 0.0
C2696 C 0.35941 0.40092 0.98913 0.0
C2697 C 0.33117 0.41506 0.9262 0.0
C2698 C 0.32288 0.39655 0.9174 0.0
C2699 C 0.31473 0.41608 0.91152 0.0
C2700 C 0.32264 0.42182 0.9196 0.0
C2701 C 0.31511 0.40345 0.91 0.0
C2702 C 0.33091 0.40232 0.92543 0.0
C2703 C 0.34159 0.42165 0.9315 0.0
O2704 O 0.36457 0.44233 0.95186 0.0
O2705 O 0.37603 0.42869 0.94305 0.0
O2706 O 0.35208 0.41599 0.93164 0.0
O2707 O 0.33981 0.42866 0.94099 0.0
H2708 H 0.35818 0.44818 0.92877 0.0
H2709 H 0.36214 0.46052 0.91079 0.0
H2710 H 0.40001 0.46277 0.92073 0.0
H2711 H 0.39586 0.4507 0.93897 0.0
H2712 H 0.39404 0.40694 0.98865 0.0
H2713 H 0.38132 0.41449 0.97205 0.0
H2714 H 0.36252 0.39126 1.0058 0.0
H2715 H 0.34979 0.39885 0.98913 0.0
H2716 H 0.32345 0.3868 0.91623 0.0
H2717 H 0.30892 0.42158 0.9058 0.0
H2718 H 0.32275 0.43165 0.91994 0.0
H2719 H 0.33746 0.39689 0.93035 0.0
C2720 C 0.33087 0.6267 0.68527 0.0
C2721 C 0.32793 0.61728 0.67721 0.0
C2722 C 0.31683 0.63141 0.66423 0.0
C2723 C 0.32094 0.61959 0.66686 0.0
C2724 C 0.31953 0.64076 0.67252 0.0
C2725 C 0.3265 0.63842 0.68293 0.0
U2726 U 0.35564 0.60757 0.69907 0.0
O2727 O 0.37288 0.61215 0.70795 0.0
O2728 O 0.35927 0.60157 0.71789 0.0
C2729 C 0.36978 0.6072 0.71836 0.0
C2730 C 0.3392 0.62446 0.69556 0.0
C2731 C 0.37231 0.6146 0.72929 0.0
C2732 C 0.3741 0.63432 0.73901 0.0
C2733 C 0.36977 0.62707 0.72951 0.0
C2734 C 0.38281 0.61664 0.7487 0.0
C2735 C 0.38103 0.62927 0.74851 0.0
C2736 C 0.37853 0.60939 0.73914 0.0
C2737 C 0.36438 0.58115 0.67621 0.0
C2738 C 0.3829 0.57286 0.6674 0.0
C2739 C 0.36337 0.56471 0.66152 0.0
C2740 C 0.35762 0.57262 0.6696 0.0
C2741 C 0.376 0.56509 0.66001 0.0
C2742 C 0.37712 0.58089 0.67543 0.0
C2743 C 0.3578 0.59157 0.68151 0.0
O2744 O 0.33711 0.61454 0.70187 0.0
O2745 O 0.35075 0.62601 0.69306 0.0
O2746 O 0.36345 0.60206 0.68164 0.0
O2747 O 0.35078 0.58979 0.691 0.0
H2748 H 0.33126 0.60816 0.67878 0.0
H2749 H 0.31892 0.61212 0.6608 0.0
H2750 H 0.31667 0.64999 0.67074 0.0
H2751 H 0.32874 0.64584 0.68897 0.0
H2752 H 0.3725 0.64402 0.73866 0.0
H2753 H 0.36495 0.6313 0.72206 0.0
H2754 H 0.38818 0.6125 0.75581 0.0
H2755 H 0.38059 0.59977 0.73914 0.0
H2756 H 0.39264 0.57344 0.66623 0.0
H2757 H 0.35787 0.5589 0.6558 0.0
H2758 H 0.34779 0.57273 0.66994 0.0
H2759 H 0.38255 0.58744 0.68035 0.0
C2760 C 0.87671 0.08087 0.09419 0.0
C2761 C 0.86729 0.07792 0.10225 0.0
C2762 C 0.88142 0.06683 0.11523 0.0
C2763 C 0.8696 0.07093 0.1126 0.0
C2764 C 0.89078 0.06952 0.10694 0.0
C2765 C 0.88843 0.07649 0.09653 0.0
U2766 U 0.85758 0.10563 0.08039 0.0
O2767 O 0.86216 0.12287 0.07151 0.0
O2768 O 0.85158 0.10926 0.06157 0.0
C2769 C 0.85721 0.11978 0.0611 0.0
C2770 C 0.87448 0.08919 0.0839 0.0
C2771 C 0.86461 0.1223 0.05017 0.0
C2772 C 0.88433 0.1241 0.04044 0.0
C2773 C 0.87708 0.11977 0.04995 0.0
C2774 C 0.86665 0.13281 0.03076 0.0
C2775 C 0.87927 0.13103 0.03095 0.0
C2776 C 0.85939 0.12852 0.04033 0.0
C2777 C 0.83116 0.11437 0.10325 0.0
C2778 C 0.82287 0.13289 0.11206 0.0
C2779 C 0.81472 0.11335 0.11794 0.0
C2780 C 0.82263 0.10761 0.10986 0.0
C2781 C 0.8151 0.12599 0.11946 0.0
C2782 C 0.8309 0.12711 0.10403 0.0
C2783 C 0.84158 0.10779 0.09796 0.0
O2784 O 0.86456 0.08711 0.07759 0.0
O2785 O 0.87602 0.10074 0.0864 0.0
O2786 O 0.85207 0.11344 0.09782 0.0
O2787 O 0.8398 0.10077 0.08846 0.0
H2788 H 0.85817 0.08125 0.10069 0.0
H2789 H 0.86213 0.06891 0.11866 0.0
H2790 H 0.90001 0.06666 0.10872 0.0
H2791 H 0.89585 0.07874 0.09049 0.0
H2792 H 0.89403 0.1225 0.0408 0.0
H2793 H 0.88131 0.11495 0.0574 0.0
H2794 H 0.8625 0.13818 0.02365 0.0
H2795 H 0.84978 0.13058 0.04032 0.0
H2796 H 0.82344 0.14263 0.11323 0.0
H2797 H 0.80891 0.10785 0.12366 0.0
H2798 H 0.82274 0.09778 0.10952 0.0
H2799 H 0.83745 0.13254 0.09911 0.0
C2800 C 0.69858 0.12671 0.84419 0.0
C2801 C 0.70152 0.1173 0.85225 0.0
C2802 C 0.71262 0.13142 0.86523 0.0
C2803 C 0.70851 0.11961 0.8626 0.0
C2804 C 0.70992 0.14078 0.85693 0.0
C2805 C 0.70295 0.13844 0.84653 0.0
U2806 U 0.67381 0.10759 0.83039 0.0
O2807 O 0.65658 0.11217 0.8215 0.0
O2808 O 0.67019 0.10158 0.81157 0.0
C2809 C 0.65967 0.10721 0.81109 0.0
C2810 C 0.69025 0.12448 0.83389 0.0
C2811 C 0.65714 0.11461 0.80016 0.0
C2812 C 0.65535 0.13434 0.79043 0.0
C2813 C 0.65968 0.12709 0.79994 0.0
C2814 C 0.64665 0.11665 0.78075 0.0
C2815 C 0.64842 0.12928 0.78094 0.0
C2816 C 0.65093 0.1094 0.79032 0.0
C2817 C 0.66508 0.08117 0.85324 0.0
C2818 C 0.64656 0.07288 0.86205 0.0
C2819 C 0.66609 0.06473 0.86793 0.0
C2820 C 0.67183 0.07264 0.85985 0.0
C2821 C 0.65345 0.06511 0.86945 0.0
C2822 C 0.65233 0.08091 0.85402 0.0
C2823 C 0.67166 0.09159 0.84795 0.0
O2824 O 0.69234 0.11456 0.82758 0.0
O2825 O 0.6787 0.12602 0.83639 0.0
O2826 O 0.666 0.10208 0.84781 0.0
O2827 O 0.67867 0.08981 0.83846 0.0
H2828 H 0.69819 0.10818 0.85068 0.0
H2829 H 0.71053 0.11214 0.86866 0.0
H2830 H 0.71278 0.15001 0.85872 0.0
H2831 H 0.7007 0.14586 0.84048 0.0
H2832 H 0.65695 0.14403 0.79079 0.0
H2833 H 0.6645 0.13131 0.80739 0.0
H2834 H 0.64127 0.11251 0.77364 0.0
H2835 H 0.64887 0.09979 0.79031 0.0
H2836 H 0.63681 0.07345 0.86321 0.0
H2837 H 0.67159 0.05892 0.87365 0.0
H2838 H 0.68166 0.07275 0.85951 0.0
H2839 H 0.64691 0.08746 0.8491 0.0
C2840 C 0.83089 0.90274 0.34419 0.0
C2841 C 0.82794 0.91215 0.35225 0.0
C2842 C 0.81684 0.89802 0.36523 0.0
C2843 C 0.82095 0.90984 0.3626 0.0
C2844 C 0.81954 0.88867 0.35693 0.0
C2845 C 0.82651 0.89101 0.34653 0.0
U2846 U 0.85565 0.92186 0.33039 0.0
O2847 O 0.87289 0.91728 0.32151 0.0
O2848 O 0.85928 0.92787 0.31157 0.0
C2849 C 0.8698 0.92224 0.3111 0.0
C2850 C 0.83921 0.90497 0.3339 0.0
C2851 C 0.87232 0.91483 0.30017 0.0
C2852 C 0.87412 0.89511 0.29044 0.0
C2853 C 0.86979 0.90236 0.29994 0.0
C2854 C 0.88282 0.91279 0.28076 0.0
C2855 C 0.88105 0.90016 0.28095 0.0
C2856 C 0.87854 0.92005 0.29032 0.0
C2857 C 0.86439 0.94828 0.35325 0.0
C2858 C 0.88291 0.95657 0.36205 0.0
C2859 C 0.86337 0.96473 0.36793 0.0
C2860 C 0.85763 0.95682 0.35985 0.0
C2861 C 0.87601 0.96434 0.36945 0.0
C2862 C 0.87713 0.94854 0.35402 0.0
C2863 C 0.85781 0.93786 0.34795 0.0
O2864 O 0.83713 0.91489 0.32759 0.0
O2865 O 0.85076 0.90343 0.3364 0.0
O2866 O 0.86346 0.92737 0.34781 0.0
O2867 O 0.85079 0.93964 0.33846 0.0
H2868 H 0.83127 0.92127 0.35068 0.0
H2869 H 0.81893 0.91731 0.36866 0.0
H2870 H 0.81668 0.87944 0.35872 0.0
H2871 H 0.82876 0.88359 0.34048 0.0
H2872 H 0.87252 0.88541 0.2908 0.0
H2873 H 0.86497 0.89813 0.3074 0.0
H2874 H 0.8882 0.91694 0.27365 0.0
H2875 H 0.8806 0.92966 0.29032 0.0
H2876 H 0.89265 0.956 0.36322 0.0
H2877 H 0.85787 0.97054 0.37365 0.0
H2878 H 0.8478 0.9567 0.35951 0.0
H2879 H 0.88256 0.94199 0.3491 0.0
C2880 C 0.43488 0.37606 0.08191 0.0
C2881 C 0.42448 0.36889 0.08349 0.0
C2882 C 0.4138 0.3804 0.06786 0.0
C2883 C 0.41409 0.37102 0.07654 0.0
C2884 C 0.42431 0.38749 0.0662 0.0
C2885 C 0.43475 0.38535 0.0732 0.0
U2886 U 0.44992 0.35781 0.10665 0.0
O2887 O 0.46852 0.35074 0.10887 0.0
O2888 O 0.461 0.36327 0.12236 0.0
C2889 C 0.47065 0.35736 0.11857 0.0
C2890 C 0.4457 0.37385 0.08949 0.0
C2891 C 0.48215 0.36427 0.1185 0.0
C2892 C 0.49381 0.38219 0.11305 0.0
C2893 C 0.48279 0.37589 0.11334 0.0
C2894 C 0.50376 0.36544 0.1232 0.0
C2895 C 0.50451 0.37699 0.1178 0.0
C2896 C 0.49268 0.35915 0.12352 0.0
C2897 C 0.42716 0.33242 0.11871 0.0
C2898 C 0.4136 0.32639 0.13509 0.0
C2899 C 0.41692 0.31278 0.1182 0.0
C2900 C 0.42509 0.32112 0.11313 0.0
C2901 C 0.41058 0.31566 0.12887 0.0
C2902 C 0.42181 0.33469 0.13007 0.0
C2903 C 0.43217 0.34257 0.11137 0.0
O2904 O 0.44423 0.37614 0.1011 0.0
O2905 O 0.45128 0.3635 0.08752 0.0
O2906 O 0.44076 0.34026 0.10341 0.0
O2907 O 0.43323 0.35328 0.11653 0.0
H2908 H 0.42441 0.36163 0.09012 0.0
H2909 H 0.40629 0.36519 0.0779 0.0
H2910 H 0.42439 0.39479 0.05962 0.0
H2911 H 0.44269 0.39099 0.07186 0.0
H2912 H 0.49397 0.39115 0.10901 0.0
H2913 H 0.47477 0.38005 0.10946 0.0
H2914 H 0.51179 0.36111 0.12685 0.0
H2915 H 0.49238 0.35019 0.12756 0.0
H2916 H 0.40883 0.32883 0.14333 0.0
H2917 H 0.41467 0.30466 0.11314 0.0
H2918 H 0.42894 0.31915 0.1043 0.0
H2919 H 0.42312 0.3433 0.13462 0.0
C2920 C 0.40338 0.68486 0.83191 0.0
C2921 C 0.41055 0.67447 0.83349 0.0
C2922 C 0.39904 0.66379 0.81786 0.0
C2923 C 0.40842 0.66407 0.82655 0.0
C2924 C 0.39195 0.67429 0.8162 0.0
C2925 C 0.39408 0.68473 0.8232 0.0
U2926 U 0.42163 0.69991 0.85665 0.0
O2927 O 0.4287 0.71851 0.85887 0.0
O2928 O 0.41617 0.71099 0.87236 0.0
C2929 C 0.42208 0.72064 0.86857 0.0
C2930 C 0.40559 0.69569 0.83949 0.0
C2931 C 0.41517 0.73214 0.86849 0.0
C2932 C 0.39725 0.74381 0.86305 0.0
C2933 C 0.40355 0.73278 0.86334 0.0
C2934 C 0.414 0.75375 0.8732 0.0
C2935 C 0.40246 0.7545 0.8678 0.0
C2936 C 0.42029 0.74267 0.87352 0.0
C2937 C 0.44701 0.67715 0.86871 0.0
C2938 C 0.45305 0.66359 0.88509 0.0
C2939 C 0.46665 0.6669 0.8682 0.0
C2940 C 0.45832 0.67507 0.86313 0.0
C2941 C 0.46377 0.66057 0.87887 0.0
C2942 C 0.44475 0.67179 0.88007 0.0
C2943 C 0.43687 0.68216 0.86137 0.0
O2944 O 0.40329 0.69422 0.8511 0.0
O2945 O 0.41594 0.70127 0.83752 0.0
O2946 O 0.43917 0.69074 0.85341 0.0
O2947 O 0.42616 0.68322 0.86653 0.0
H2948 H 0.41781 0.6744 0.84012 0.0
H2949 H 0.41424 0.65627 0.8279 0.0
H2950 H 0.38464 0.67438 0.80963 0.0
H2951 H 0.38845 0.69267 0.82186 0.0
H2952 H 0.3883 0.74397 0.85901 0.0
H2953 H 0.39939 0.72476 0.85945 0.0
H2954 H 0.41834 0.76178 0.87685 0.0
H2955 H 0.42925 0.74237 0.87755 0.0
H2956 H 0.4506 0.65882 0.89333 0.0
H2957 H 0.47478 0.66465 0.86314 0.0
H2958 H 0.46028 0.67893 0.8543 0.0
H2959 H 0.43614 0.6731 0.88462 0.0
C2960 C 0.09459 0.65338 0.58192 0.0
C2961 C 0.10498 0.66055 0.58349 0.0
C2962 C 0.11566 0.64904 0.56787 0.0
C2963 C 0.11538 0.65842 0.57655 0.0
C2964 C 0.10516 0.64195 0.56621 0.0
C2965 C 0.09472 0.64408 0.57321 0.0
U2966 U 0.07954 0.67162 0.60666 0.0
O2967 O 0.06094 0.6787 0.60888 0.0
O2968 O 0.06846 0.66617 0.62237 0.0
C2969 C 0.05881 0.67208 0.61858 0.0
C2970 C 0.08376 0.65559 0.5895 0.0
C2971 C 0.04731 0.66516 0.61851 0.0
C2972 C 0.03565 0.64725 0.61306 0.0
C2973 C 0.04668 0.65355 0.61336 0.0
C2974 C 0.0257 0.66399 0.62321 0.0
C2975 C 0.02495 0.65245 0.61781 0.0
C2976 C 0.03678 0.67029 0.62353 0.0
C2977 C 0.1023 0.69701 0.61871 0.0
C2978 C 0.11586 0.70305 0.6351 0.0
C2979 C 0.11255 0.71665 0.6182 0.0
C2980 C 0.10438 0.70832 0.61313 0.0
C2981 C 0.11888 0.71377 0.62888 0.0
C2982 C 0.10766 0.69475 0.63008 0.0
C2983 C 0.09729 0.68687 0.61138 0.0
O2984 O 0.08523 0.65329 0.60111 0.0
O2985 O 0.07818 0.66594 0.58753 0.0
O2986 O 0.0887 0.68918 0.60342 0.0
O2987 O 0.09623 0.67616 0.61654 0.0
H2988 H 0.10505 0.66781 0.59013 0.0
H2989 H 0.12318 0.66424 0.57791 0.0
H2990 H 0.10507 0.63465 0.55963 0.0
H2991 H 0.08678 0.63845 0.57187 0.0
H2992 H 0.0355 0.63829 0.60902 0.0
H2993 H 0.0547 0.64939 0.60947 0.0
H2994 H 0.01768 0.66833 0.62686 0.0
H2995 H 0.03708 0.67925 0.62756 0.0
H2996 H 0.12063 0.70061 0.64334 0.0
H2997 H 0.1148 0.72478 0.61314 0.0
H2998 H 0.10052 0.71028 0.60431 0.0
H2999 H 0.10634 0.68614 0.63463 0.0
C3000 C 0.12607 0.34459 0.33191 0.0
C3001 C 0.1189 0.35499 0.33348 0.0
C3002 C 0.13041 0.36567 0.31786 0.0
C3003 C 0.12103 0.36538 0.32654 0.0
C3004 C 0.1375 0.35516 0.31619 0.0
C3005 C 0.13537 0.34472 0.3232 0.0
U3006 U 0.10782 0.32955 0.35665 0.0
O3007 O 0.10075 0.31095 0.35887 0.0
O3008 O 0.11328 0.31847 0.37236 0.0
C3009 C 0.10737 0.30882 0.36856 0.0
C3010 C 0.12386 0.33377 0.33949 0.0
C3011 C 0.11428 0.29732 0.36849 0.0
C3012 C 0.1322 0.28565 0.36305 0.0
C3013 C 0.1259 0.29668 0.36334 0.0
C3014 C 0.11545 0.27571 0.3732 0.0
C3015 C 0.12699 0.27495 0.3678 0.0
C3016 C 0.10916 0.28678 0.37352 0.0
C3017 C 0.08244 0.35231 0.3687 0.0
C3018 C 0.0764 0.36587 0.38508 0.0
C3019 C 0.06279 0.36256 0.36819 0.0
C3020 C 0.07113 0.35439 0.36312 0.0
C3021 C 0.06567 0.36889 0.37886 0.0
C3022 C 0.0847 0.35767 0.38007 0.0
C3023 C 0.09258 0.3473 0.36137 0.0
O3024 O 0.12616 0.33524 0.3511 0.0
O3025 O 0.11351 0.32819 0.33751 0.0
O3026 O 0.09027 0.33871 0.3534 0.0
O3027 O 0.10329 0.34624 0.36653 0.0
H3028 H 0.11164 0.35506 0.34012 0.0
H3029 H 0.11521 0.37318 0.3279 0.0
H3030 H 0.14481 0.35508 0.30962 0.0
H3031 H 0.141 0.33678 0.32186 0.0
H3032 H 0.14115 0.28549 0.35901 0.0
H3033 H 0.13006 0.3047 0.35945 0.0
H3034 H 0.11111 0.26768 0.37685 0.0
H3035 H 0.10019 0.28709 0.37755 0.0
H3036 H 0.07884 0.37064 0.39332 0.0
H3037 H 0.05467 0.3648 0.36313 0.0
H3038 H 0.06917 0.35053 0.35429 0.0
H3039 H 0.09331 0.35635 0.38462 0.0
C3040 C 0.43486 0.65338 0.44754 0.0
C3041 C 0.42446 0.66055 0.44597 0.0
C3042 C 0.41378 0.64904 0.46159 0.0
C3043 C 0.41407 0.65842 0.45291 0.0
C3044 C 0.42429 0.64195 0.46325 0.0
C3045 C 0.43473 0.64409 0.45625 0.0
U3046 U 0.44991 0.67163 0.4228 0.0
O3047 O 0.4685 0.6787 0.42058 0.0
O3048 O 0.46098 0.66618 0.40709 0.0
C3049 C 0.47063 0.67209 0.41089 0.0
C3050 C 0.44568 0.65559 0.43996 0.0
C3051 C 0.48214 0.66517 0.41096 0.0
C3052 C 0.4938 0.64726 0.4164 0.0
C3053 C 0.48277 0.65356 0.41611 0.0
C3054 C 0.50374 0.66401 0.40625 0.0
C3055 C 0.5045 0.65246 0.41165 0.0
C3056 C 0.49267 0.6703 0.40593 0.0
C3057 C 0.42714 0.69702 0.41075 0.0
C3058 C 0.41358 0.70305 0.39437 0.0
C3059 C 0.4169 0.71666 0.41126 0.0
C3060 C 0.42507 0.70832 0.41633 0.0
C3061 C 0.41057 0.71378 0.40059 0.0
C3062 C 0.42179 0.69476 0.39938 0.0
C3063 C 0.43215 0.68687 0.41808 0.0
O3064 O 0.44422 0.6533 0.42835 0.0
O3065 O 0.45127 0.66594 0.44194 0.0
O3066 O 0.44074 0.68918 0.42605 0.0
O3067 O 0.43321 0.67617 0.41292 0.0
H3068 H 0.42439 0.66781 0.43933 0.0
H3069 H 0.40627 0.66424 0.45155 0.0
H3070 H 0.42438 0.63465 0.46983 0.0
H3071 H 0.44267 0.63845 0.45759 0.0
H3072 H 0.49396 0.6383 0.42044 0.0
H3073 H 0.47476 0.6494 0.42 0.0
H3074 H 0.51177 0.66834 0.4026 0.0
H3075 H 0.49236 0.67926 0.4019 0.0
H3076 H 0.40881 0.70061 0.38613 0.0
H3077 H 0.41465 0.72478 0.41632 0.0
H3078 H 0.42892 0.71029 0.42516 0.0
H3079 H 0.4231 0.68615 0.39483 0.0
C3080 C 0.12607 0.68486 0.19753 0.0
C3081 C 0.11891 0.67447 0.19595 0.0
C3082 C 0.13042 0.66379 0.21158 0.0
C3083 C 0.12104 0.66407 0.2029 0.0
C3084 C 0.13751 0.67429 0.21324 0.0
C3085 C 0.13537 0.68473 0.20624 0.0
U3086 U 0.10783 0.69991 0.17279 0.0
O3087 O 0.10076 0.71851 0.17057 0.0
O3088 O 0.11328 0.71099 0.15708 0.0
C3089 C 0.10737 0.72064 0.16087 0.0
C3090 C 0.12387 0.69569 0.18995 0.0
C3091 C 0.11429 0.73214 0.16094 0.0
C3092 C 0.13221 0.7438 0.16638 0.0
C3093 C 0.12591 0.73277 0.16609 0.0
C3094 C 0.11546 0.75375 0.15624 0.0
C3095 C 0.12701 0.7545 0.16164 0.0
C3096 C 0.10917 0.74267 0.15592 0.0
C3097 C 0.08244 0.67715 0.16074 0.0
C3098 C 0.0764 0.66359 0.14435 0.0
C3099 C 0.0628 0.6669 0.16125 0.0
C3100 C 0.07114 0.67507 0.16631 0.0
C3101 C 0.06568 0.66057 0.15057 0.0
C3102 C 0.0847 0.6718 0.14937 0.0
C3103 C 0.09258 0.68216 0.16807 0.0
O3104 O 0.12616 0.69422 0.17834 0.0
O3105 O 0.11351 0.70127 0.19192 0.0
O3106 O 0.09028 0.69075 0.17603 0.0
O3107 O 0.10329 0.68322 0.16291 0.0
H3108 H 0.11165 0.6744 0.18932 0.0
H3109 H 0.11521 0.65628 0.20154 0.0
H3110 H 0.14481 0.67438 0.21982 0.0
H3111 H 0.14101 0.69267 0.20758 0.0
H3112 H 0.14117 0.74395 0.17042 0.0
H3113 H 0.13007 0.72475 0.16998 0.0
H3114 H 0.11112 0.76178 0.15259 0.0
H3115 H 0.10021 0.74237 0.15189 0.0
H3116 H 0.07885 0.65882 0.13611 0.0
H3117 H 0.05467 0.66466 0.16631 0.0
H3118 H 0.06917 0.67893 0.17514 0.0
H3119 H 0.09331 0.67311 0.14482 0.0
C3120 C 0.09459 0.37607 0.94754 0.0
C3121 C 0.10498 0.3689 0.94596 0.0
C3122 C 0.11567 0.38042 0.96158 0.0
C3123 C 0.11538 0.37103 0.9529 0.0
C3124 C 0.10516 0.38751 0.96325 0.0
C3125 C 0.09472 0.38537 0.95624 0.0
U3126 U 0.07954 0.35783 0.9228 0.0
O3127 O 0.06095 0.35075 0.92058 0.0
O3128 O 0.06846 0.36328 0.90709 0.0
C3129 C 0.05881 0.35737 0.91088 0.0
C3130 C 0.08377 0.37387 0.93995 0.0
C3131 C 0.04731 0.36428 0.91095 0.0
C3132 C 0.03564 0.3822 0.9164 0.0
C3133 C 0.04668 0.3759 0.9161 0.0
C3134 C 0.0257 0.36545 0.90625 0.0
C3135 C 0.02495 0.377 0.91165 0.0
C3136 C 0.03678 0.35916 0.90593 0.0
C3137 C 0.1023 0.33244 0.91074 0.0
C3138 C 0.11586 0.3264 0.89436 0.0
C3139 C 0.11255 0.3128 0.91125 0.0
C3140 C 0.10438 0.32114 0.91632 0.0
C3141 C 0.11888 0.31568 0.90058 0.0
C3142 C 0.10766 0.3347 0.89938 0.0
C3143 C 0.0973 0.34258 0.91808 0.0
O3144 O 0.08523 0.37616 0.92834 0.0
O3145 O 0.07818 0.36351 0.94193 0.0
O3146 O 0.08871 0.34028 0.92604 0.0
O3147 O 0.09623 0.35329 0.91291 0.0
H3148 H 0.10506 0.36164 0.93933 0.0
H3149 H 0.12318 0.36521 0.95154 0.0
H3150 H 0.10507 0.39481 0.96982 0.0
H3151 H 0.08678 0.391 0.95758 0.0
H3152 H 0.03549 0.39116 0.92044 0.0
H3153 H 0.05469 0.38006 0.91999 0.0
H3154 H 0.01768 0.36111 0.9026 0.0
H3155 H 0.03708 0.3502 0.9019 0.0
H3156 H 0.12064 0.32885 0.88612 0.0
H3157 H 0.1148 0.30467 0.91631 0.0
H3158 H 0.10052 0.31917 0.92515 0.0
H3159 H 0.10635 0.34331 0.89483 0.0
C3160 C 0.4034 0.34458 0.69754 0.0
C3161 C 0.41056 0.35497 0.69596 0.0
C3162 C 0.39905 0.36565 0.71159 0.0
C3163 C 0.40843 0.36537 0.70291 0.0
C3164 C 0.39196 0.35515 0.71325 0.0
C3165 C 0.3941 0.34471 0.70625 0.0
U3166 U 0.42164 0.32953 0.6728 0.0
O3167 O 0.42871 0.31093 0.67058 0.0
O3168 O 0.41619 0.31845 0.65709 0.0
C3169 C 0.4221 0.3088 0.66088 0.0
C3170 C 0.4056 0.33375 0.68996 0.0
C3171 C 0.41518 0.2973 0.66095 0.0
C3172 C 0.39726 0.28564 0.6664 0.0
C3173 C 0.40356 0.29667 0.6661 0.0
C3174 C 0.41401 0.2757 0.65625 0.0
C3175 C 0.40246 0.27494 0.66165 0.0
C3176 C 0.4203 0.28677 0.65593 0.0
C3177 C 0.44703 0.35229 0.66074 0.0
C3178 C 0.45306 0.36585 0.64436 0.0
C3179 C 0.46667 0.36254 0.66125 0.0
C3180 C 0.45833 0.35437 0.66632 0.0
C3181 C 0.46379 0.36887 0.65058 0.0
C3182 C 0.44477 0.35765 0.64938 0.0
C3183 C 0.43688 0.34728 0.66808 0.0
O3184 O 0.40331 0.33522 0.67835 0.0
O3185 O 0.41596 0.32817 0.69193 0.0
O3186 O 0.43919 0.33869 0.67604 0.0
O3187 O 0.42618 0.34622 0.66292 0.0
H3188 H 0.41782 0.35504 0.68933 0.0
H3189 H 0.41426 0.37316 0.70155 0.0
H3190 H 0.38466 0.35506 0.71983 0.0
H3191 H 0.38846 0.33677 0.70759 0.0
H3192 H 0.38831 0.28548 0.67044 0.0
H3193 H 0.39941 0.30468 0.66999 0.0
H3194 H 0.41835 0.26767 0.6526 0.0
H3195 H 0.42926 0.28707 0.65189 0.0
H3196 H 0.45062 0.37062 0.63612 0.0
H3197 H 0.47479 0.36479 0.66631 0.0
H3198 H 0.4603 0.35051 0.67515 0.0
H3199 H 0.43616 0.35634 0.64483 0.0
C3200 C 0.08191 0.43487 0.37606 0.0
C3201 C 0.08349 0.42448 0.36889 0.0
C3202 C 0.06786 0.4138 0.3804 0.0
C3203 C 0.07655 0.41408 0.37102 0.0
C3204 C 0.0662 0.4243 0.38749 0.0
C3205 C 0.0732 0.43474 0.38535 0.0
U3206 U 0.10665 0.44992 0.35781 0.0
O3207 O 0.10887 0.46851 0.35074 0.0
O3208 O 0.12236 0.461 0.36327 0.0
C3209 C 0.11857 0.47065 0.35736 0.0
C3210 C 0.0895 0.4457 0.37385 0.0
C3211 C 0.1185 0.48215 0.36427 0.0
C3212 C 0.11305 0.49381 0.38219 0.0
C3213 C 0.11335 0.48278 0.37589 0.0
C3214 C 0.1232 0.50376 0.36544 0.0
C3215 C 0.1178 0.50451 0.37699 0.0
C3216 C 0.12353 0.49268 0.35915 0.0
C3217 C 0.11871 0.42716 0.33243 0.0
C3218 C 0.13509 0.4136 0.32639 0.0
C3219 C 0.1182 0.41691 0.31279 0.0
C3220 C 0.11313 0.42508 0.32112 0.0
C3221 C 0.12887 0.41058 0.31567 0.0
C3222 C 0.13008 0.4218 0.33469 0.0
C3223 C 0.11137 0.43217 0.34257 0.0
O3224 O 0.1011 0.44423 0.37614 0.0
O3225 O 0.08752 0.45128 0.3635 0.0
O3226 O 0.10341 0.44075 0.34026 0.0
O3227 O 0.11654 0.43323 0.35328 0.0
H3228 H 0.09012 0.42441 0.36163 0.0
H3229 H 0.0779 0.40629 0.3652 0.0
H3230 H 0.05962 0.42439 0.39479 0.0
H3231 H 0.07186 0.44268 0.39099 0.0
H3232 H 0.10901 0.49397 0.39114 0.0
H3233 H 0.10946 0.47477 0.38005 0.0
H3234 H 0.12685 0.51178 0.36111 0.0
H3235 H 0.12756 0.49238 0.35019 0.0
H3236 H 0.14333 0.40882 0.32883 0.0
H3237 H 0.11314 0.41466 0.30466 0.0
H3238 H 0.10431 0.42894 0.31916 0.0
H3239 H 0.13462 0.42311 0.3433 0.0
C3240 C 0.3446 0.33191 0.12606 0.0
C3241 C 0.35499 0.33348 0.1189 0.0
C3242 C 0.36567 0.31786 0.13041 0.0
C3243 C 0.36539 0.32654 0.12103 0.0
C3244 C 0.35517 0.31619 0.1375 0.0
C3245 C 0.34473 0.3232 0.13536 0.0
U3246 U 0.32955 0.35665 0.10782 0.0
O3247 O 0.31096 0.35887 0.10075 0.0
O3248 O 0.31847 0.37236 0.11327 0.0
C3249 C 0.30882 0.36856 0.10736 0.0
C3250 C 0.33377 0.33949 0.12386 0.0
C3251 C 0.29732 0.36849 0.11428 0.0
C3252 C 0.28566 0.36305 0.13219 0.0
C3253 C 0.29669 0.36334 0.12589 0.0
C3254 C 0.27571 0.3732 0.11544 0.0
C3255 C 0.27496 0.3678 0.12699 0.0
C3256 C 0.28679 0.37352 0.10915 0.0
C3257 C 0.35231 0.3687 0.08243 0.0
C3258 C 0.36587 0.38508 0.07639 0.0
C3259 C 0.36256 0.36819 0.06279 0.0
C3260 C 0.35439 0.36312 0.07113 0.0
C3261 C 0.36889 0.37886 0.06567 0.0
C3262 C 0.35767 0.38006 0.08469 0.0
C3263 C 0.3473 0.36137 0.09257 0.0
O3264 O 0.33524 0.3511 0.12615 0.0
O3265 O 0.32819 0.33751 0.1135 0.0
O3266 O 0.33872 0.3534 0.09027 0.0
O3267 O 0.34624 0.36653 0.10328 0.0
H3268 H 0.35506 0.34012 0.11164 0.0
H3269 H 0.37319 0.3279 0.1152 0.0
H3270 H 0.35508 0.30962 0.1448 0.0
H3271 H 0.33679 0.32186 0.141 0.0
H3272 H 0.2855 0.35901 0.14115 0.0
H3273 H 0.3047 0.35945 0.13005 0.0
H3274 H 0.26769 0.37685 0.11111 0.0
H3275 H 0.28709 0.37755 0.10019 0.0
H3276 H 0.37064 0.39332 0.07884 0.0
H3277 H 0.36481 0.36313 0.05467 0.0
H3278 H 0.35053 0.35429 0.06916 0.0
H3279 H 0.35636 0.38461 0.0933 0.0
C3280 C 0.44754 0.59458 0.87607 0.0
C3281 C 0.44596 0.60498 0.8689 0.0
C3282 C 0.46159 0.61566 0.88041 0.0
C3283 C 0.4529 0.61537 0.87103 0.0
C3284 C 0.46325 0.60516 0.8875 0.0
C3285 C 0.45625 0.59472 0.88536 0.0
U3286 U 0.4228 0.57953 0.85782 0.0
O3287 O 0.42058 0.56094 0.85075 0.0
O3288 O 0.40709 0.56846 0.86328 0.0
C3289 C 0.41088 0.55881 0.85737 0.0
C3290 C 0.43996 0.58376 0.87386 0.0
C3291 C 0.41096 0.54731 0.86428 0.0
C3292 C 0.4164 0.53564 0.8822 0.0
C3293 C 0.41611 0.54667 0.8759 0.0
C3294 C 0.40625 0.5257 0.86545 0.0
C3295 C 0.41165 0.52494 0.87699 0.0
C3296 C 0.40593 0.53677 0.85916 0.0
C3297 C 0.41074 0.6023 0.83244 0.0
C3298 C 0.39436 0.61586 0.8264 0.0
C3299 C 0.41125 0.61254 0.8128 0.0
C3300 C 0.41632 0.60437 0.82113 0.0
C3301 C 0.40058 0.61887 0.81568 0.0
C3302 C 0.39938 0.60765 0.8347 0.0
C3303 C 0.41808 0.59729 0.84258 0.0
O3304 O 0.42835 0.58523 0.87616 0.0
O3305 O 0.44193 0.57818 0.86351 0.0
O3306 O 0.42604 0.5887 0.84027 0.0
O3307 O 0.41291 0.59623 0.85329 0.0
H3308 H 0.43933 0.60505 0.86164 0.0
H3309 H 0.45154 0.62317 0.86521 0.0
H3310 H 0.46982 0.60507 0.8948 0.0
H3311 H 0.45759 0.58678 0.891 0.0
H3312 H 0.42044 0.53548 0.89115 0.0
H3313 H 0.41999 0.55469 0.88006 0.0
H3314 H 0.40261 0.51767 0.86111 0.0
H3315 H 0.4019 0.53708 0.8502 0.0
H3316 H 0.38612 0.62063 0.82885 0.0
H3317 H 0.41631 0.61479 0.80467 0.0
H3318 H 0.42515 0.60052 0.81917 0.0
H3319 H 0.39483 0.60634 0.84331 0.0
C3320 C 0.18486 0.69753 0.62607 0.0
C3321 C 0.17447 0.69595 0.61891 0.0
C3322 C 0.16379 0.71158 0.63042 0.0
C3323 C 0.16407 0.7029 0.62103 0.0
C3324 C 0.17429 0.71324 0.63751 0.0
C3325 C 0.18473 0.70624 0.63537 0.0
U3326 U 0.19991 0.67279 0.60783 0.0
O3327 O 0.21851 0.67057 0.60075 0.0
O3328 O 0.21099 0.65708 0.61328 0.0
C3329 C 0.22064 0.66087 0.60737 0.0
C3330 C 0.19569 0.68995 0.62387 0.0
C3331 C 0.23214 0.66094 0.61429 0.0
C3332 C 0.2438 0.66639 0.6322 0.0
C3333 C 0.23277 0.66609 0.6259 0.0
C3334 C 0.25375 0.65624 0.61545 0.0
C3335 C 0.2545 0.66163 0.627 0.0
C3336 C 0.24267 0.65592 0.60916 0.0
C3337 C 0.17715 0.66074 0.58244 0.0
C3338 C 0.16359 0.64436 0.5764 0.0
C3339 C 0.1669 0.66125 0.5628 0.0
C3340 C 0.17507 0.66632 0.57113 0.0
C3341 C 0.16057 0.65057 0.56568 0.0
C3342 C 0.17179 0.64937 0.5847 0.0
C3343 C 0.18216 0.66807 0.59258 0.0
O3344 O 0.19422 0.67834 0.62616 0.0
O3345 O 0.20127 0.69192 0.61351 0.0
O3346 O 0.19075 0.67603 0.59028 0.0
O3347 O 0.18322 0.66291 0.60329 0.0
H3348 H 0.1744 0.68932 0.61165 0.0
H3349 H 0.15627 0.70154 0.61521 0.0
H3350 H 0.17438 0.71982 0.64481 0.0
H3351 H 0.19267 0.70758 0.641 0.0
H3352 H 0.24396 0.67042 0.64116 0.0
H3353 H 0.22476 0.66998 0.63006 0.0
H3354 H 0.26178 0.65259 0.61112 0.0
H3355 H 0.24237 0.65188 0.6002 0.0
H3356 H 0.15882 0.63611 0.57884 0.0
H3357 H 0.16465 0.66631 0.55467 0.0
H3358 H 0.17893 0.67514 0.56917 0.0
H3359 H 0.17311 0.64482 0.59331 0.0
C3360 C 0.08192 0.59459 0.15338 0.0
C3361 C 0.0835 0.60498 0.16054 0.0
C3362 C 0.06787 0.61566 0.14903 0.0
C3363 C 0.07656 0.61538 0.15841 0.0
C3364 C 0.06621 0.60516 0.14194 0.0
C3365 C 0.07321 0.59472 0.14408 0.0
U3366 U 0.10666 0.57954 0.17162 0.0
O3367 O 0.10888 0.56095 0.1787 0.0
O3368 O 0.12237 0.56846 0.16617 0.0
C3369 C 0.11858 0.55881 0.17208 0.0
C3370 C 0.08951 0.58376 0.15558 0.0
C3371 C 0.11851 0.54731 0.16516 0.0
C3372 C 0.11307 0.53565 0.14725 0.0
C3373 C 0.11336 0.54668 0.15355 0.0
C3374 C 0.12322 0.52571 0.16399 0.0
C3375 C 0.11782 0.52495 0.15245 0.0
C3376 C 0.12354 0.53678 0.17029 0.0
C3377 C 0.11871 0.6023 0.19701 0.0
C3378 C 0.1351 0.61586 0.20305 0.0
C3379 C 0.1182 0.61255 0.21665 0.0
C3380 C 0.11314 0.60438 0.20831 0.0
C3381 C 0.12888 0.61888 0.21377 0.0
C3382 C 0.13008 0.60766 0.19475 0.0
C3383 C 0.11138 0.59729 0.18687 0.0
O3384 O 0.10111 0.58523 0.15329 0.0
O3385 O 0.08753 0.57818 0.16594 0.0
O3386 O 0.10342 0.58871 0.18917 0.0
O3387 O 0.11654 0.59623 0.17616 0.0
H3388 H 0.09013 0.60505 0.1678 0.0
H3389 H 0.07791 0.62318 0.16424 0.0
H3390 H 0.05963 0.60507 0.13464 0.0
H3391 H 0.07187 0.58678 0.13844 0.0
H3392 H 0.10903 0.53549 0.13829 0.0
H3393 H 0.10947 0.55469 0.14939 0.0
H3394 H 0.12686 0.51768 0.16833 0.0
H3395 H 0.12757 0.53708 0.17925 0.0
H3396 H 0.14334 0.62063 0.2006 0.0
H3397 H 0.11314 0.6148 0.22478 0.0
H3398 H 0.10431 0.60052 0.21028 0.0
H3399 H 0.13463 0.60634 0.18614 0.0
C3400 C 0.18487 0.33191 0.90338 0.0
C3401 C 0.17448 0.33349 0.91055 0.0
C3402 C 0.16379 0.31787 0.89904 0.0
C3403 C 0.16408 0.32655 0.90842 0.0
C3404 C 0.1743 0.3162 0.89195 0.0
C3405 C 0.18474 0.32321 0.89408 0.0
U3406 U 0.19992 0.35665 0.92162 0.0
O3407 O 0.21851 0.35887 0.9287 0.0
O3408 O 0.21099 0.37236 0.91617 0.0
C3409 C 0.22065 0.36857 0.92208 0.0
C3410 C 0.19569 0.3395 0.90558 0.0
C3411 C 0.23215 0.3685 0.91517 0.0
C3412 C 0.24381 0.36305 0.89725 0.0
C3413 C 0.23278 0.36334 0.90355 0.0
C3414 C 0.25375 0.3732 0.914 0.0
C3415 C 0.25451 0.3678 0.90245 0.0
C3416 C 0.24268 0.37352 0.92029 0.0
C3417 C 0.17716 0.36871 0.94701 0.0
C3418 C 0.16359 0.38509 0.95305 0.0
C3419 C 0.16691 0.3682 0.96665 0.0
C3420 C 0.17508 0.36313 0.95831 0.0
C3421 C 0.16058 0.37887 0.96377 0.0
C3422 C 0.1718 0.38007 0.94475 0.0
C3423 C 0.18216 0.36137 0.93687 0.0
O3424 O 0.19423 0.3511 0.90329 0.0
O3425 O 0.20128 0.33752 0.91594 0.0
O3426 O 0.19075 0.35341 0.93917 0.0
O3427 O 0.18323 0.36654 0.92616 0.0
H3428 H 0.1744 0.34012 0.91781 0.0
H3429 H 0.15628 0.32791 0.91424 0.0
H3430 H 0.17438 0.30963 0.88464 0.0
H3431 H 0.19268 0.32187 0.88845 0.0
H3432 H 0.24397 0.35901 0.88829 0.0
H3433 H 0.22477 0.35946 0.89939 0.0
H3434 H 0.26178 0.37685 0.91834 0.0
H3435 H 0.24238 0.37755 0.92925 0.0
H3436 H 0.15882 0.39333 0.9506 0.0
H3437 H 0.16466 0.36314 0.97478 0.0
H3438 H 0.17893 0.3543 0.96028 0.0
H3439 H 0.17311 0.38462 0.93614 0.0
C3440 C 0.44755 0.43486 0.65338 0.0
C3441 C 0.44597 0.42446 0.66055 0.0
C3442 C 0.4616 0.41378 0.64904 0.0
C3443 C 0.45291 0.41407 0.65842 0.0
C3444 C 0.46326 0.42428 0.64195 0.0
C3445 C 0.45625 0.43472 0.64409 0.0
U3446 U 0.42281 0.4499 0.67163 0.0
O3447 O 0.42059 0.4685 0.6787 0.0
O3448 O 0.4071 0.46098 0.66618 0.0
C3449 C 0.41089 0.47063 0.67209 0.0
C3450 C 0.43996 0.44568 0.65559 0.0
C3451 C 0.41096 0.48213 0.66517 0.0
C3452 C 0.4164 0.4938 0.64725 0.0
C3453 C 0.41611 0.48277 0.65356 0.0
C3454 C 0.40625 0.50374 0.664 0.0
C3455 C 0.41165 0.50449 0.65246 0.0
C3456 C 0.40593 0.49266 0.67029 0.0
C3457 C 0.41075 0.42714 0.69702 0.0
C3458 C 0.39437 0.41358 0.70305 0.0
C3459 C 0.41127 0.41689 0.71666 0.0
C3460 C 0.41633 0.42506 0.70832 0.0
C3461 C 0.40059 0.41056 0.71378 0.0
C3462 C 0.39939 0.42178 0.69476 0.0
C3463 C 0.41809 0.43215 0.68687 0.0
O3464 O 0.42835 0.44421 0.6533 0.0
O3465 O 0.44194 0.45126 0.66594 0.0
O3466 O 0.42605 0.44074 0.68918 0.0
O3467 O 0.41293 0.43321 0.67617 0.0
H3468 H 0.43934 0.42439 0.66781 0.0
H3469 H 0.45156 0.40627 0.66424 0.0
H3470 H 0.46984 0.42437 0.63465 0.0
H3471 H 0.4576 0.44266 0.63845 0.0
H3472 H 0.42044 0.49395 0.6383 0.0
H3473 H 0.42 0.47475 0.6494 0.0
H3474 H 0.40261 0.51177 0.66834 0.0
H3475 H 0.4019 0.49236 0.67926 0.0
H3476 H 0.38613 0.40881 0.70061 0.0
H3477 H 0.41632 0.41465 0.72478 0.0
H3478 H 0.42516 0.42892 0.71029 0.0
H3479 H 0.39484 0.4231 0.68615 0.0
C3480 C 0.34458 0.69754 0.40339 0.0
C3481 C 0.35497 0.69596 0.41056 0.0
C3482 C 0.36565 0.71159 0.39905 0.0
C3483 C 0.36537 0.70291 0.40843 0.0
C3484 C 0.35515 0.71325 0.39196 0.0
C3485 C 0.34471 0.70625 0.3941 0.0
U3486 U 0.32953 0.6728 0.42164 0.0
O3487 O 0.31094 0.67058 0.42871 0.0
O3488 O 0.31846 0.65709 0.41618 0.0
C3489 C 0.3088 0.66088 0.42209 0.0
C3490 C 0.33376 0.68996 0.4056 0.0
C3491 C 0.2973 0.66096 0.41518 0.0
C3492 C 0.28564 0.6664 0.39726 0.0
C3493 C 0.29667 0.66611 0.40356 0.0
C3494 C 0.2757 0.65625 0.41401 0.0
C3495 C 0.27494 0.66165 0.40246 0.0
C3496 C 0.28677 0.65593 0.4203 0.0
C3497 C 0.35229 0.66074 0.44702 0.0
C3498 C 0.36585 0.64436 0.45306 0.0
C3499 C 0.36254 0.66125 0.46666 0.0
C3500 C 0.35437 0.66632 0.45833 0.0
C3501 C 0.36887 0.65058 0.46378 0.0
C3502 C 0.35765 0.64938 0.44476 0.0
C3503 C 0.34729 0.66808 0.43688 0.0
O3504 O 0.33522 0.67835 0.4033 0.0
O3505 O 0.32817 0.69193 0.41595 0.0
O3506 O 0.3387 0.67604 0.43919 0.0
O3507 O 0.34622 0.66292 0.42617 0.0
H3508 H 0.35505 0.68933 0.41782 0.0
H3509 H 0.37317 0.70155 0.41425 0.0
H3510 H 0.35506 0.71983 0.38466 0.0
H3511 H 0.33677 0.70759 0.38846 0.0
H3512 H 0.28548 0.67044 0.3883 0.0
H3513 H 0.30468 0.67 0.3994 0.0
H3514 H 0.26767 0.6526 0.41834 0.0
H3515 H 0.28707 0.65189 0.42926 0.0
H3516 H 0.37063 0.63612 0.45061 0.0
H3517 H 0.36479 0.66631 0.47479 0.0
H3518 H 0.35051 0.67515 0.46029 0.0
H3519 H 0.35634 0.64483 0.43615 0.0
C3520 C 0.37606 0.08191 0.43487 0.0
C3521 C 0.36889 0.08348 0.42448 0.0
C3522 C 0.3804 0.06786 0.4138 0.0
C3523 C 0.37102 0.07654 0.41408 0.0
C3524 C 0.38749 0.0662 0.4243 0.0
C3525 C 0.38535 0.0732 0.43474 0.0
U3526 U 0.35781 0.10665 0.44992 0.0
O3527 O 0.35074 0.10887 0.46851 0.0
O3528 O 0.36327 0.12236 0.46099 0.0
C3529 C 0.35736 0.11857 0.47065 0.0
C3530 C 0.37385 0.08949 0.44569 0.0
C3531 C 0.36427 0.1185 0.48215 0.0
C3532 C 0.38219 0.11305 0.49381 0.0
C3533 C 0.37589 0.11334 0.48278 0.0
C3534 C 0.36544 0.1232 0.50375 0.0
C3535 C 0.37699 0.1178 0.50451 0.0
C3536 C 0.35915 0.12352 0.49268 0.0
C3537 C 0.33243 0.1187 0.42716 0.0
C3538 C 0.32639 0.13509 0.4136 0.0
C3539 C 0.31279 0.11819 0.41691 0.0
C3540 C 0.32112 0.11313 0.42508 0.0
C3541 C 0.31567 0.12887 0.41058 0.0
C3542 C 0.33469 0.13007 0.4218 0.0
C3543 C 0.34257 0.11137 0.43216 0.0
O3544 O 0.37615 0.1011 0.44423 0.0
O3545 O 0.3635 0.08752 0.45128 0.0
O3546 O 0.34026 0.10341 0.44075 0.0
O3547 O 0.35328 0.11653 0.43323 0.0
H3548 H 0.36163 0.09012 0.4244 0.0
H3549 H 0.3652 0.0779 0.40628 0.0
H3550 H 0.39479 0.05962 0.42439 0.0
H3551 H 0.39099 0.07186 0.44268 0.0
H3552 H 0.39115 0.10901 0.49396 0.0
H3553 H 0.38005 0.10945 0.47476 0.0
H3554 H 0.36111 0.12685 0.51178 0.0
H3555 H 0.35019 0.12756 0.49238 0.0
H3556 H 0.32883 0.14333 0.40882 0.0
H3557 H 0.30466 0.11314 0.41466 0.0
H3558 H 0.31916 0.1043 0.42894 0.0
H3559 H 0.3433 0.13462 0.42311 0.0
C3560 C 0.87607 0.44753 0.59459 0.0
C3561 C 0.86891 0.44596 0.60498 0.0
C3562 C 0.88042 0.46158 0.61566 0.0
C3563 C 0.87104 0.4529 0.61538 0.0
C3564 C 0.88751 0.46325 0.60516 0.0
C3565 C 0.88537 0.45624 0.59472 0.0
U3566 U 0.85783 0.42279 0.57954 0.0
O3567 O 0.85076 0.42058 0.56094 0.0
O3568 O 0.86329 0.40709 0.56846 0.0
C3569 C 0.85737 0.41088 0.55881 0.0
C3570 C 0.87387 0.43995 0.58376 0.0
C3571 C 0.86429 0.41095 0.54731 0.0
C3572 C 0.8822 0.4164 0.53564 0.0
C3573 C 0.8759 0.4161 0.54667 0.0
C3574 C 0.86546 0.40625 0.5257 0.0
C3575 C 0.877 0.41165 0.52495 0.0
C3576 C 0.85917 0.40593 0.53677 0.0
C3577 C 0.83244 0.41074 0.6023 0.0
C3578 C 0.82641 0.39436 0.61586 0.0
C3579 C 0.8128 0.41125 0.61255 0.0
C3580 C 0.82114 0.41632 0.60438 0.0
C3581 C 0.81568 0.40058 0.61888 0.0
C3582 C 0.8347 0.39937 0.60766 0.0
C3583 C 0.84259 0.41807 0.59729 0.0
O3584 O 0.87616 0.42834 0.58523 0.0
O3585 O 0.86351 0.44193 0.57818 0.0
O3586 O 0.84028 0.42604 0.58871 0.0
O3587 O 0.85329 0.41291 0.59623 0.0
H3588 H 0.86165 0.43933 0.60505 0.0
H3589 H 0.86521 0.45154 0.62318 0.0
H3590 H 0.89481 0.46982 0.60507 0.0
H3591 H 0.89101 0.45758 0.58678 0.0
H3592 H 0.89116 0.42044 0.53549 0.0
H3593 H 0.88006 0.41999 0.55469 0.0
H3594 H 0.86112 0.4026 0.51767 0.0
H3595 H 0.8502 0.4019 0.53708 0.0
H3596 H 0.82885 0.38611 0.62063 0.0
H3597 H 0.80468 0.41631 0.61479 0.0
H3598 H 0.81917 0.42514 0.60052 0.0
H3599 H 0.84332 0.39482 0.60634 0.0
C3600 C 0.33191 0.12606 0.34459 0.0
C3601 C 0.33348 0.1189 0.35498 0.0
C3602 C 0.31786 0.13041 0.36567 0.0
C3603 C 0.32654 0.12103 0.36538 0.0
C3604 C 0.31619 0.1375 0.35516 0.0
C3605 C 0.3232 0.13536 0.34472 0.0
U3606 U 0.35665 0.10782 0.32954 0.0
O3607 O 0.35887 0.10074 0.31095 0.0
O3608 O 0.37236 0.11327 0.31847 0.0
C3609 C 0.36857 0.10736 0.30882 0.0
C3610 C 0.33949 0.12386 0.33377 0.0
C3611 C 0.36849 0.11428 0.29732 0.0
C3612 C 0.36305 0.13219 0.28565 0.0
C3613 C 0.36334 0.12589 0.29668 0.0
C3614 C 0.3732 0.11544 0.27571 0.0
C3615 C 0.3678 0.12699 0.27495 0.0
C3616 C 0.37352 0.10915 0.28678 0.0
C3617 C 0.3687 0.08243 0.35231 0.0
C3618 C 0.38508 0.07639 0.36587 0.0
C3619 C 0.36819 0.06279 0.36255 0.0
C3620 C 0.36312 0.07113 0.35438 0.0
C3621 C 0.37886 0.06567 0.36888 0.0
C3622 C 0.38007 0.08469 0.35766 0.0
C3623 C 0.36137 0.09257 0.3473 0.0
O3624 O 0.3511 0.12615 0.33523 0.0
O3625 O 0.33752 0.1135 0.32818 0.0
O3626 O 0.35341 0.09027 0.33871 0.0
O3627 O 0.36653 0.10328 0.34624 0.0
H3628 H 0.34012 0.11164 0.35506 0.0
H3629 H 0.3279 0.1152 0.37318 0.0
H3630 H 0.30962 0.1448 0.35507 0.0
H3631 H 0.32186 0.141 0.33678 0.0
H3632 H 0.35901 0.14115 0.28549 0.0
H3633 H 0.35946 0.13005 0.30469 0.0
H3634 H 0.37685 0.11111 0.26768 0.0
H3635 H 0.37755 0.10019 0.28708 0.0
H3636 H 0.39332 0.07884 0.37064 0.0
H3637 H 0.36313 0.05466 0.3648 0.0
H3638 H 0.3543 0.06916 0.35053 0.0
H3639 H 0.38462 0.0933 0.35635 0.0
C3640 C 0.65338 0.58192 0.09459 0.0
C3641 C 0.66054 0.5835 0.10498 0.0
C3642 C 0.64903 0.56787 0.11566 0.0
C3643 C 0.65842 0.57655 0.11538 0.0
C3644 C 0.64195 0.56621 0.10516 0.0
C3645 C 0.64408 0.57321 0.09472 0.0
U3646 U 0.67162 0.60666 0.07954 0.0
O3647 O 0.6787 0.60888 0.06094 0.0
O3648 O 0.66617 0.62237 0.06846 0.0
C3649 C 0.67208 0.61858 0.05881 0.0
C3650 C 0.65558 0.5895 0.08376 0.0
C3651 C 0.66516 0.61851 0.04731 0.0
C3652 C 0.64724 0.61306 0.03565 0.0
C3653 C 0.65355 0.61336 0.04668 0.0
C3654 C 0.66399 0.62321 0.0257 0.0
C3655 C 0.65245 0.61781 0.02495 0.0
C3656 C 0.67029 0.62353 0.03678 0.0
C3657 C 0.69701 0.61871 0.1023 0.0
C3658 C 0.70305 0.6351 0.11586 0.0
C3659 C 0.71665 0.6182 0.11254 0.0
C3660 C 0.70832 0.61313 0.10437 0.0
C3661 C 0.71377 0.62888 0.11887 0.0
C3662 C 0.69475 0.63008 0.10765 0.0
C3663 C 0.68687 0.61138 0.09729 0.0
O3664 O 0.65329 0.60111 0.08523 0.0
O3665 O 0.66594 0.58753 0.07818 0.0
O3666 O 0.68917 0.60342 0.0887 0.0
O3667 O 0.67616 0.61654 0.09623 0.0
H3668 H 0.6678 0.59013 0.10505 0.0
H3669 H 0.66424 0.57791 0.12317 0.0
H3670 H 0.63464 0.55963 0.10507 0.0
H3671 H 0.63845 0.57187 0.08678 0.0
H3672 H 0.63829 0.60903 0.03549 0.0
H3673 H 0.64939 0.60947 0.05469 0.0
H3674 H 0.66833 0.62686 0.01767 0.0
H3675 H 0.67925 0.62756 0.03708 0.0
H3676 H 0.70061 0.64334 0.12063 0.0
H3677 H 0.72478 0.61314 0.11479 0.0
H3678 H 0.71028 0.60431 0.10052 0.0
H3679 H 0.68614 0.63463 0.10634 0.0
C3680 C 0.69754 0.4034 0.34458 0.0
C3681 C 0.69597 0.41056 0.35497 0.0
C3682 C 0.7116 0.39905 0.36565 0.0
C3683 C 0.70291 0.40843 0.36537 0.0
C3684 C 0.71326 0.39196 0.35515 0.0
C3685 C 0.70625 0.3941 0.34471 0.0
U3686 U 0.6728 0.42164 0.32953 0.0
O3687 O 0.67058 0.42871 0.31094 0.0
O3688 O 0.65709 0.41618 0.31846 0.0
C3689 C 0.66089 0.42209 0.3088 0.0
C3690 C 0.68996 0.4056 0.33375 0.0
C3691 C 0.66096 0.41518 0.2973 0.0
C3692 C 0.6664 0.39726 0.28564 0.0
C3693 C 0.66611 0.40356 0.29667 0.0
C3694 C 0.65625 0.41401 0.2757 0.0
C3695 C 0.66165 0.40246 0.27494 0.0
C3696 C 0.65593 0.4203 0.28677 0.0
C3697 C 0.66075 0.44703 0.35229 0.0
C3698 C 0.64437 0.45306 0.36585 0.0
C3699 C 0.66126 0.46667 0.36254 0.0
C3700 C 0.66633 0.45833 0.35437 0.0
C3701 C 0.65058 0.46379 0.36887 0.0
C3702 C 0.64938 0.44477 0.35765 0.0
C3703 C 0.66808 0.43688 0.34729 0.0
O3704 O 0.67835 0.40331 0.33522 0.0
O3705 O 0.69194 0.41596 0.32817 0.0
O3706 O 0.67604 0.43919 0.3387 0.0
O3707 O 0.66292 0.42618 0.34622 0.0
H3708 H 0.68934 0.41782 0.35504 0.0
H3709 H 0.70155 0.41426 0.37317 0.0
H3710 H 0.71983 0.38466 0.35506 0.0
H3711 H 0.70759 0.38846 0.33677 0.0
H3712 H 0.67044 0.38831 0.28548 0.0
H3713 H 0.67 0.3994 0.30468 0.0
H3714 H 0.6526 0.41835 0.26767 0.0
H3715 H 0.6519 0.42926 0.28707 0.0
H3716 H 0.63612 0.45062 0.37063 0.0
H3717 H 0.66632 0.47479 0.36479 0.0
H3718 H 0.67515 0.4603 0.35051 0.0
H3719 H 0.64483 0.43615 0.35634 0.0
C3720 C 0.15339 0.94754 0.93486 0.0
C3721 C 0.16056 0.94597 0.92447 0.0
C3722 C 0.14904 0.9616 0.91378 0.0
C3723 C 0.15843 0.95291 0.91407 0.0
C3724 C 0.14196 0.96326 0.92429 0.0
C3725 C 0.14409 0.95625 0.93473 0.0
U3726 U 0.17164 0.9228 0.94991 0.0
O3727 O 0.17871 0.92058 0.9685 0.0
O3728 O 0.16618 0.90709 0.96098 0.0
C3729 C 0.17209 0.91089 0.97063 0.0
C3730 C 0.1556 0.93996 0.94568 0.0
C3731 C 0.16518 0.91096 0.98214 0.0
C3732 C 0.14726 0.9164 0.9938 0.0
C3733 C 0.15356 0.91611 0.98277 0.0
C3734 C 0.16401 0.90625 1.00374 0.0
C3735 C 0.15246 0.91165 1.0045 0.0
C3736 C 0.1703 0.90593 0.99267 0.0
C3737 C 0.19702 0.91075 0.92714 0.0
C3738 C 0.20306 0.89437 0.91358 0.0
C3739 C 0.21666 0.91126 0.9169 0.0
C3740 C 0.20833 0.91633 0.92507 0.0
C3741 C 0.21379 0.90059 0.91057 0.0
C3742 C 0.19476 0.89939 0.92179 0.0
C3743 C 0.18688 0.91809 0.93215 0.0
O3744 O 0.1533 0.92835 0.94422 0.0
O3745 O 0.16595 0.94194 0.95127 0.0
O3746 O 0.18919 0.92605 0.94074 0.0
O3747 O 0.17617 0.91292 0.93321 0.0
H3748 H 0.16782 0.93934 0.92439 0.0
H3749 H 0.16425 0.95155 0.90627 0.0
H3750 H 0.13465 0.96983 0.92438 0.0
H3751 H 0.13846 0.95759 0.94267 0.0
H3752 H 0.13831 0.92044 0.99396 0.0
H3753 H 0.1494 0.92 0.97476 0.0
H3754 H 0.16835 0.9026 1.01177 0.0
H3755 H 0.17926 0.9019 0.99237 0.0
H3756 H 0.20062 0.88613 0.90881 0.0
H3757 H 0.22479 0.91632 0.91465 0.0
H3758 H 0.21029 0.92516 0.92892 0.0
H3759 H 0.18615 0.89484 0.9231 0.0
C3760 C 0.33192 0.90338 0.18486 0.0
C3761 C 0.3335 0.91054 0.17447 0.0
C3762 C 0.31787 0.89903 0.16379 0.0
C3763 C 0.32656 0.90842 0.16407 0.0
C3764 C 0.31621 0.89194 0.17429 0.0
C3765 C 0.32321 0.89408 0.18473 0.0
U3766 U 0.35666 0.92162 0.19991 0.0
O3767 O 0.35888 0.9287 0.21851 0.0
O3768 O 0.37237 0.91617 0.21099 0.0
C3769 C 0.36857 0.92208 0.22064 0.0
C3770 C 0.3395 0.90558 0.19569 0.0
C3771 C 0.3685 0.91516 0.23214 0.0
C3772 C 0.36306 0.89725 0.24381 0.0
C3773 C 0.36335 0.90355 0.23278 0.0
C3774 C 0.37321 0.914 0.25375 0.0
C3775 C 0.36781 0.90245 0.2545 0.0
C3776 C 0.37353 0.92029 0.24268 0.0
C3777 C 0.36871 0.94701 0.17715 0.0
C3778 C 0.3851 0.95305 0.16359 0.0
C3779 C 0.3682 0.96665 0.1669 0.0
C3780 C 0.36314 0.95831 0.17507 0.0
C3781 C 0.37888 0.96377 0.16057 0.0
C3782 C 0.38008 0.94475 0.17179 0.0
C3783 C 0.36138 0.93687 0.18216 0.0
O3784 O 0.35111 0.90329 0.19422 0.0
O3785 O 0.33753 0.91594 0.20127 0.0
O3786 O 0.35342 0.93917 0.19074 0.0
O3787 O 0.36654 0.92616 0.18322 0.0
H3788 H 0.34013 0.9178 0.1744 0.0
H3789 H 0.32791 0.91424 0.15628 0.0
H3790 H 0.30963 0.88464 0.17438 0.0
H3791 H 0.32187 0.88844 0.19267 0.0
H3792 H 0.35902 0.88829 0.24396 0.0
H3793 H 0.35947 0.89939 0.22476 0.0
H3794 H 0.37685 0.91833 0.26178 0.0
H3795 H 0.37756 0.92925 0.24237 0.0
H3796 H 0.39334 0.9506 0.15882 0.0
H3797 H 0.36315 0.97478 0.16466 0.0
H3798 H 0.35431 0.96028 0.17893 0.0
H3799 H 0.38463 0.93614 0.17311 0.0
C3800 C 0.19753 0.12607 0.68486 0.0
C3801 C 0.19596 0.11891 0.67447 0.0
C3802 C 0.21158 0.13042 0.66379 0.0
C3803 C 0.2029 0.12104 0.66407 0.0
C3804 C 0.21325 0.13751 0.67429 0.0
C3805 C 0.20624 0.13537 0.68473 0.0
U3806 U 0.17279 0.10783 0.69991 0.0
O3807 O 0.17057 0.10075 0.71851 0.0
O3808 O 0.15708 0.11328 0.71099 0.0
C3809 C 0.16088 0.10737 0.72064 0.0
C3810 C 0.18995 0.12387 0.69569 0.0
C3811 C 0.16095 0.11429 0.73214 0.0
C3812 C 0.16639 0.1322 0.7438 0.0
C3813 C 0.1661 0.1259 0.73277 0.0
C3814 C 0.15624 0.11546 0.75375 0.0
C3815 C 0.16164 0.127 0.7545 0.0
C3816 C 0.15592 0.10916 0.74267 0.0
C3817 C 0.16074 0.08244 0.67715 0.0
C3818 C 0.14436 0.0764 0.66359 0.0
C3819 C 0.16125 0.0628 0.6669 0.0
C3820 C 0.16632 0.07114 0.67507 0.0
C3821 C 0.15058 0.06568 0.66057 0.0
C3822 C 0.14937 0.0847 0.67179 0.0
C3823 C 0.16807 0.09258 0.68216 0.0
O3824 O 0.17834 0.12616 0.69422 0.0
O3825 O 0.19193 0.11351 0.70127 0.0
O3826 O 0.17604 0.09028 0.69074 0.0
O3827 O 0.16291 0.10329 0.68322 0.0
H3828 H 0.18932 0.11165 0.6744 0.0
H3829 H 0.20154 0.11521 0.65627 0.0
H3830 H 0.21982 0.14481 0.67438 0.0
H3831 H 0.20758 0.141 0.69267 0.0
H3832 H 0.17043 0.14116 0.74396 0.0
H3833 H 0.16998 0.13006 0.72476 0.0
H3834 H 0.1526 0.11112 0.76178 0.0
H3835 H 0.15189 0.1002 0.74237 0.0
H3836 H 0.13611 0.07885 0.65882 0.0
H3837 H 0.16631 0.05467 0.66465 0.0
H3838 H 0.17515 0.06917 0.67893 0.0
H3839 H 0.14482 0.09331 0.67311 0.0
H3840 H 0.12101 0.23309 0.38704 0.0
C3841 C 0.12977 0.22936 0.38951 0.0
C3842 C 0.13042 0.21984 0.39798 0.0
C3843 C 0.14041 0.23374 0.38392 0.0
H3844 H 0.14204 0.20712 0.40709 0.0
C3845 C 0.14172 0.21475 0.40087 0.0
C3846 C 0.15245 0.21886 0.39537 0.0
C3847 C 0.15169 0.22843 0.38694 0.0
C3848 C 0.1398 0.24313 0.37419 0.0
H3849 H 0.1599 0.23175 0.38266 0.0
C3850 C 0.13339 0.25415 0.37572 0.0
C3851 C 0.13335 0.26303 0.36641 0.0
C3852 C 0.14589 0.24099 0.3632 0.0
H3853 H 0.15075 0.23257 0.3617 0.0
C3854 C 0.14568 0.24958 0.35394 0.0
H3855 H 0.12879 0.25594 0.38422 0.0
C3856 C 0.13949 0.26049 0.3555 0.0
H3857 H 0.13941 0.2669 0.34805 0.0
H3858 H 0.15033 0.24777 0.34548 0.0
H3859 H 0.04637 0.87101 0.63705 0.0
C3860 C 0.05011 0.87977 0.63951 0.0
C3861 C 0.05962 0.88042 0.64798 0.0
C3862 C 0.04572 0.89041 0.63392 0.0
H3863 H 0.07234 0.89205 0.65709 0.0
C3864 C 0.06472 0.89173 0.65087 0.0
C3865 C 0.0606 0.90246 0.64537 0.0
C3866 C 0.05103 0.9017 0.63694 0.0
C3867 C 0.03634 0.8898 0.62419 0.0
H3868 H 0.04771 0.9099 0.63266 0.0
C3869 C 0.02532 0.88339 0.62572 0.0
C3870 C 0.01643 0.88335 0.61641 0.0
C3871 C 0.03847 0.8959 0.6132 0.0
H3872 H 0.04689 0.90075 0.6117 0.0
C3873 C 0.02988 0.89568 0.60394 0.0
H3874 H 0.02353 0.87879 0.63422 0.0
C3875 C 0.01897 0.88949 0.6055 0.0
H3876 H 1.01256 0.8894 0.59805 0.0
H3877 H 0.03169 0.90033 0.59548 0.0
H3878 H 0.40844 0.79637 0.88704 0.0
C3879 C 0.39968 0.8001 0.88951 0.0
C3880 C 0.39903 0.80962 0.89797 0.0
C3881 C 0.38904 0.79572 0.88392 0.0
H3882 H 0.38741 0.82234 0.90708 0.0
C3883 C 0.38773 0.81471 0.90087 0.0
C3884 C 0.377 0.81059 0.89537 0.0
C3885 C 0.37776 0.80103 0.88693 0.0
C3886 C 0.38965 0.78633 0.87419 0.0
H3887 H 0.36955 0.79771 0.88266 0.0
C3888 C 0.39607 0.77531 0.87571 0.0
C3889 C 0.3961 0.76643 0.86641 0.0
C3890 C 0.38356 0.78847 0.8632 0.0
H3891 H 0.3787 0.79689 0.8617 0.0
C3892 C 0.38377 0.77988 0.85393 0.0
H3893 H 0.40066 0.77352 0.88422 0.0
C3894 C 0.38996 0.76897 0.8555 0.0
H3895 H 0.39005 0.76256 0.84805 0.0
H3896 H 0.37912 0.78169 0.84548 0.0
H3897 H 0.48309 0.15843 0.13705 0.0
C3898 C 0.47936 0.14967 0.13952 0.0
C3899 C 0.46984 0.14902 0.14799 0.0
C3900 C 0.48374 0.13902 0.13394 0.0
H3901 H 0.45712 0.13739 0.1571 0.0
C3902 C 0.46475 0.13771 0.15088 0.0
C3903 C 0.46886 0.12698 0.14538 0.0
C3904 C 0.47843 0.12774 0.13695 0.0
C3905 C 0.49313 0.13963 0.12421 0.0
H3906 H 0.48175 0.11953 0.13268 0.0
C3907 C 0.50415 0.14605 0.12573 0.0
C3908 C 0.51303 0.14609 0.11642 0.0
C3909 C 0.491 0.13354 0.11321 0.0
H3910 H 0.48258 0.12868 0.11172 0.0
C3911 C 0.49959 0.13376 0.10395 0.0
H3912 H 0.50594 0.15065 0.13423 0.0
C3913 C 0.51049 0.13995 0.10551 0.0
H3914 H 0.51691 0.14003 0.09807 0.0
H3915 H 0.49778 0.1291 0.09549 0.0
H3916 H 0.12103 0.79636 0.1424 0.0
C3917 C 0.12979 0.80009 0.13993 0.0
C3918 C 0.13044 0.80961 0.13146 0.0
C3919 C 0.14043 0.79571 0.14551 0.0
H3920 H 0.14206 0.82233 0.12236 0.0
C3921 C 0.14174 0.81471 0.12857 0.0
C3922 C 0.15247 0.81059 0.13407 0.0
C3923 C 0.15171 0.80102 0.1425 0.0
C3924 C 0.13982 0.78633 0.15524 0.0
H3925 H 0.15992 0.7977 0.14677 0.0
C3926 C 0.1334 0.7753 0.15372 0.0
C3927 C 0.13337 0.76642 0.16303 0.0
C3928 C 0.14592 0.78845 0.16624 0.0
H3929 H 0.15077 0.79687 0.16773 0.0
C3930 C 0.1457 0.77986 0.1755 0.0
H3931 H 0.12881 0.77351 0.14522 0.0
C3932 C 0.13951 0.76896 0.17394 0.0
H3933 H 0.13942 0.76254 0.18138 0.0
H3934 H 0.15035 0.78167 0.18396 0.0
H3935 H 0.48309 0.87101 0.39241 0.0
C3936 C 0.47935 0.87977 0.38994 0.0
C3937 C 0.46984 0.88042 0.38148 0.0
C3938 C 0.48374 0.89041 0.39553 0.0
H3939 H 0.45711 0.89204 0.37237 0.0
C3940 C 0.46474 0.89173 0.37858 0.0
C3941 C 0.46886 0.90245 0.38408 0.0
C3942 C 0.47842 0.90169 0.39252 0.0
C3943 C 0.49312 0.88981 0.40526 0.0
H3944 H 0.48175 0.9099 0.39679 0.0
C3945 C 0.50414 0.88339 0.40374 0.0
C3946 C 0.51303 0.88335 0.41304 0.0
C3947 C 0.49099 0.8959 0.41625 0.0
H3948 H 0.48257 0.90075 0.41775 0.0
C3949 C 0.49958 0.89568 0.42551 0.0
H3950 H 0.50593 0.8788 0.39523 0.0
C3951 C 0.51049 0.88949 0.42395 0.0
H3952 H 0.5169 0.88941 0.43139 0.0
H3953 H 0.49777 0.90034 0.43397 0.0
H3954 H 0.40844 0.23308 0.6424 0.0
C3955 C 0.39968 0.22935 0.63994 0.0
C3956 C 0.39903 0.21983 0.63147 0.0
C3957 C 0.38904 0.23373 0.64552 0.0
H3958 H 0.3874 0.20711 0.62236 0.0
C3959 C 0.38772 0.21474 0.62858 0.0
C3960 C 0.377 0.21886 0.63408 0.0
C3961 C 0.37776 0.22842 0.64251 0.0
C3962 C 0.38965 0.24312 0.65526 0.0
H3963 H 0.36955 0.23175 0.64679 0.0
C3964 C 0.39607 0.25414 0.65373 0.0
C3965 C 0.3961 0.26302 0.66304 0.0
C3966 C 0.38356 0.24099 0.66625 0.0
H3967 H 0.3787 0.23257 0.66775 0.0
C3968 C 0.38377 0.24958 0.67551 0.0
H3969 H 0.40066 0.25593 0.64523 0.0
C3970 C 0.38996 0.26048 0.67395 0.0
H3971 H 0.39005 0.26689 0.68139 0.0
H3972 H 0.37912 0.24776 0.68397 0.0
H3973 H 0.04636 0.15845 0.89241 0.0
C3974 C 0.05009 0.14969 0.88994 0.0
C3975 C 0.05961 0.14903 0.88147 0.0
C3976 C 0.04571 0.13904 0.89553 0.0
H3977 H 0.07233 0.13741 0.87236 0.0
C3978 C 0.06471 0.13773 0.87858 0.0
C3979 C 0.06059 0.127 0.88408 0.0
C3980 C 0.05103 0.12776 0.89251 0.0
C3981 C 0.03633 0.13965 0.90526 0.0
H3982 H 0.0477 0.11955 0.89679 0.0
C3983 C 0.0253 0.14607 0.90374 0.0
C3984 C 0.01642 0.1461 0.91304 0.0
C3985 C 0.03846 0.13356 0.91625 0.0
H3986 H 0.04688 0.1287 0.91775 0.0
C3987 C 0.02987 0.13377 0.92551 0.0
H3988 H 0.02351 0.15066 0.89523 0.0
C3989 C 0.01896 0.13996 0.92395 0.0
H3990 H 1.01255 0.14005 0.9314 0.0
H3991 H 0.03169 0.12912 0.93397 0.0
H3992 H 0.38705 0.12101 0.23309 0.0
C3993 C 0.38951 0.12976 0.22936 0.0
C3994 C 0.39798 0.13042 0.21984 0.0
C3995 C 0.38393 0.14041 0.23374 0.0
H3996 H 0.40709 0.14204 0.20712 0.0
C3997 C 0.40088 0.14172 0.21475 0.0
C3998 C 0.39537 0.15245 0.21886 0.0
C3999 C 0.38694 0.15169 0.22843 0.0
C4000 C 0.3742 0.1398 0.24312 0.0
H4001 H 0.38267 0.1599 0.23175 0.0
C4002 C 0.37572 0.13338 0.25415 0.0
C4003 C 0.36641 0.13335 0.26303 0.0
C4004 C 0.3632 0.14589 0.24099 0.0
H4005 H 0.36171 0.15075 0.23257 0.0
C4006 C 0.35394 0.14568 0.24958 0.0
H4007 H 0.38422 0.12879 0.25594 0.0
C4008 C 0.3555 0.13949 0.26049 0.0
H4009 H 0.34806 0.1394 0.2669 0.0
H4010 H 0.34548 0.15033 0.24777 0.0
H4011 H 0.15843 0.13705 0.48309 0.0
C4012 C 0.14967 0.13952 0.47936 0.0
C4013 C 0.14902 0.14799 0.46984 0.0
C4014 C 0.13903 0.13394 0.48374 0.0
H4015 H 0.1374 0.15709 0.45712 0.0
C4016 C 0.13771 0.15088 0.46474 0.0
C4017 C 0.12699 0.14538 0.46886 0.0
C4018 C 0.12775 0.13695 0.47843 0.0
C4019 C 0.13964 0.12421 0.49312 0.0
H4020 H 0.11954 0.13268 0.48175 0.0
C4021 C 0.14605 0.12573 0.50415 0.0
C4022 C 0.14609 0.11642 0.51303 0.0
C4023 C 0.13354 0.11321 0.49099 0.0
H4024 H 0.12868 0.11172 0.48258 0.0
C4025 C 0.13376 0.10395 0.49958 0.0
H4026 H 0.15065 0.13423 0.50594 0.0
C4027 C 0.13995 0.10551 0.51049 0.0
H4028 H 0.14003 0.09807 0.5169 0.0
H4029 H 0.1291 0.09549 0.49777 0.0
H4030 H 0.14241 0.90844 0.73308 0.0
C4031 C 0.13994 0.89968 0.72935 0.0
C4032 C 0.13148 0.89903 0.71983 0.0
C4033 C 0.14553 0.88904 0.73373 0.0
H4034 H 0.12237 0.8874 0.70712 0.0
C4035 C 0.12858 0.88772 0.71474 0.0
C4036 C 0.13408 0.877 0.71886 0.0
C4037 C 0.14252 0.87776 0.72842 0.0
C4038 C 0.15526 0.88965 0.74312 0.0
H4039 H 0.14679 0.86955 0.73175 0.0
C4040 C 0.15374 0.89607 0.75414 0.0
C4041 C 0.16304 0.89611 0.76302 0.0
C4042 C 0.16626 0.88356 0.74098 0.0
H4043 H 0.16775 0.8787 0.73257 0.0
C4044 C 0.17552 0.88378 0.74957 0.0
H4045 H 0.14523 0.90066 0.75593 0.0
C4046 C 0.17395 0.88997 0.76048 0.0
H4047 H 0.1814 0.89005 0.76689 0.0
H4048 H 0.18398 0.87912 0.74776 0.0
H4049 H 0.37102 0.89241 0.98308 0.0
C4050 C 0.37978 0.88994 0.97935 0.0
C4051 C 0.38043 0.88148 0.96983 0.0
C4052 C 0.39042 0.89553 0.98373 0.0
H4053 H 0.39205 0.87237 0.95711 0.0
C4054 C 0.39173 0.87858 0.96474 0.0
C4055 C 0.40246 0.88408 0.96885 0.0
C4056 C 0.4017 0.89252 0.97842 0.0
C4057 C 0.38981 0.90526 0.99311 0.0
H4058 H 0.40991 0.89679 0.98174 0.0
C4059 C 0.38339 0.90374 1.00414 0.0
C4060 C 0.38336 0.91304 1.01302 0.0
C4061 C 0.3959 0.91625 0.99098 0.0
H4062 H 0.40076 0.91775 0.98257 0.0
C4063 C 0.39569 0.92551 0.99957 0.0
H4064 H 0.3788 0.89523 1.00593 0.0
C4065 C 0.3895 0.92395 1.01048 0.0
H4066 H 0.38941 0.9314 0.0169 0.0
H4067 H 0.40034 0.93397 0.99776 0.0
H4068 H 0.38705 0.90843 0.29637 0.0
C4069 C 0.38951 0.89968 0.3001 0.0
C4070 C 0.39798 0.89902 0.30962 0.0
C4071 C 0.38393 0.88903 0.29572 0.0
H4072 H 0.40709 0.8874 0.32234 0.0
C4073 C 0.40087 0.88772 0.31471 0.0
C4074 C 0.39537 0.87699 0.3106 0.0
C4075 C 0.38694 0.87775 0.30103 0.0
C4076 C 0.3742 0.88964 0.28633 0.0
H4077 H 0.38267 0.86954 0.29771 0.0
C4078 C 0.37572 0.89606 0.27531 0.0
C4079 C 0.36642 0.89609 0.26642 0.0
C4080 C 0.3632 0.88355 0.28846 0.0
H4081 H 0.36171 0.87869 0.29688 0.0
C4082 C 0.35394 0.88376 0.27987 0.0
H4083 H 0.38422 0.90065 0.27352 0.0
C4084 C 0.35551 0.88995 0.26896 0.0
H4085 H 0.34806 0.89004 0.26255 0.0
H4086 H 0.34548 0.87911 0.28168 0.0
H4087 H 0.37101 0.13705 0.54637 0.0
C4088 C 0.37977 0.13951 0.5501 0.0
C4089 C 0.38042 0.14798 0.55962 0.0
C4090 C 0.39041 0.13392 0.54572 0.0
H4091 H 0.39205 0.15709 0.57233 0.0
C4092 C 0.39173 0.15087 0.56471 0.0
C4093 C 0.40246 0.14537 0.56059 0.0
C4094 C 0.40169 0.13694 0.55103 0.0
C4095 C 0.3898 0.12419 0.53633 0.0
H4096 H 0.4099 0.13266 0.5477 0.0
C4097 C 0.38339 0.12572 0.52531 0.0
C4098 C 0.38335 0.11641 0.51643 0.0
C4099 C 0.3959 0.1132 0.53846 0.0
H4100 H 0.40075 0.1117 0.54688 0.0
C4101 C 0.39568 0.10394 0.52987 0.0
H4102 H 0.37879 0.13422 0.52352 0.0
C4103 C 0.38949 0.1055 0.51897 0.0
H4104 H 0.3894 0.09805 0.51256 0.0
H4105 H 0.40033 0.09548 0.53169 0.0
H4106 H 0.1424 0.12102 0.79636 0.0
C4107 C 0.13994 0.12978 0.80009 0.0
C4108 C 0.13147 0.13043 0.80961 0.0
C4109 C 0.14552 0.14042 0.79571 0.0
H4110 H 0.12236 0.14206 0.82233 0.0
C4111 C 0.12857 0.14174 0.81471 0.0
C4112 C 0.13407 0.15246 0.81059 0.0
C4113 C 0.14251 0.15171 0.80102 0.0
C4114 C 0.15525 0.13981 0.78633 0.0
H4115 H 0.14678 0.15991 0.7977 0.0
C4116 C 0.15373 0.1334 0.7753 0.0
C4117 C 0.16303 0.13336 0.76642 0.0
C4118 C 0.16624 0.14591 0.78846 0.0
H4119 H 0.16774 0.15076 0.79688 0.0
C4120 C 0.1755 0.14569 0.77987 0.0
H4121 H 0.14522 0.1288 0.77352 0.0
C4122 C 0.17394 0.1395 0.76896 0.0
H4123 H 0.18139 0.13942 0.76255 0.0
H4124 H 0.18396 0.15035 0.78168 0.0
H4125 H 0.15845 0.8924 0.04636 0.0
C4126 C 0.14969 0.88994 0.05009 0.0
C4127 C 0.14904 0.88147 0.05961 0.0
C4128 C 0.13905 0.89552 0.04571 0.0
H4129 H 0.13741 0.87236 0.07233 0.0
C4130 C 0.13773 0.87858 0.0647 0.0
C4131 C 0.12701 0.88408 0.06059 0.0
C4132 C 0.12776 0.89251 0.05102 0.0
C4133 C 0.13965 0.90526 0.03633 0.0
H4134 H 0.11956 0.89678 0.0477 0.0
C4135 C 0.14607 0.90373 0.0253 0.0
C4136 C 0.14611 0.91304 0.01642 0.0
C4137 C 0.13356 0.91625 0.03846 0.0
H4138 H 0.12871 0.91775 0.04688 0.0
C4139 C 0.13378 0.92551 0.02987 0.0
H4140 H 0.15066 0.89523 0.02351 0.0
C4141 C 0.13997 0.92395 0.01896 0.0
H4142 H 0.14005 0.9314 1.01255 0.0
H4143 H 0.12912 0.93397 0.03168 0.0
H4144 H 0.2331 0.38705 0.12101 0.0
C4145 C 0.22936 0.38951 0.12977 0.0
C4146 C 0.21985 0.39798 0.13042 0.0
C4147 C 0.23375 0.38393 0.14041 0.0
H4148 H 0.20713 0.40709 0.14204 0.0
C4149 C 0.21475 0.40087 0.14172 0.0
C4150 C 0.21887 0.39537 0.15245 0.0
C4151 C 0.22843 0.38694 0.15169 0.0
C4152 C 0.24313 0.37419 0.1398 0.0
H4153 H 0.23176 0.38267 0.1599 0.0
C4154 C 0.25415 0.37572 0.13339 0.0
C4155 C 0.26304 0.36641 0.13335 0.0
C4156 C 0.241 0.3632 0.1459 0.0
H4157 H 0.23258 0.36171 0.15075 0.0
C4158 C 0.24959 0.35394 0.14568 0.0
H4159 H 0.25594 0.38422 0.12879 0.0
C4160 C 0.2605 0.3555 0.13949 0.0
H4161 H 0.26691 0.34806 0.13941 0.0
H4162 H 0.24778 0.34548 0.15033 0.0
H4163 H 0.73308 0.14241 0.90844 0.0
C4164 C 0.72935 0.13994 0.89968 0.0
C4165 C 0.71983 0.13147 0.89903 0.0
C4166 C 0.73373 0.14553 0.88904 0.0
H4167 H 0.70712 0.12237 0.8874 0.0
C4168 C 0.71474 0.12858 0.88772 0.0
C4169 C 0.71886 0.13408 0.877 0.0
C4170 C 0.72842 0.14252 0.87776 0.0
C4171 C 0.74312 0.15526 0.88965 0.0
H4172 H 0.73175 0.14679 0.86955 0.0
C4173 C 0.75414 0.15374 0.89607 0.0
C4174 C 0.76302 0.16304 0.8961 0.0
C4175 C 0.74099 0.16626 0.88356 0.0
H4176 H 0.73257 0.16775 0.8787 0.0
C4177 C 0.74958 0.17552 0.88377 0.0
H4178 H 0.75593 0.14523 0.90066 0.0
C4179 C 0.76048 0.17395 0.88996 0.0
H4180 H 0.76689 0.1814 0.89005 0.0
H4181 H 0.74776 0.18397 0.87912 0.0
H4182 H 0.13706 0.48309 0.15843 0.0
C4183 C 0.13952 0.47936 0.14967 0.0
C4184 C 0.14799 0.46984 0.14902 0.0
C4185 C 0.13394 0.48374 0.13903 0.0
H4186 H 0.1571 0.45712 0.13739 0.0
C4187 C 0.15089 0.46475 0.13771 0.0
C4188 C 0.14539 0.46886 0.12699 0.0
C4189 C 0.13695 0.47843 0.12775 0.0
C4190 C 0.12421 0.49312 0.13964 0.0
H4191 H 0.13268 0.48175 0.11954 0.0
C4192 C 0.12573 0.50415 0.14605 0.0
C4193 C 0.11643 0.51303 0.14609 0.0
C4194 C 0.11321 0.49099 0.13354 0.0
H4195 H 0.11172 0.48257 0.12869 0.0
C4196 C 0.10395 0.49958 0.13376 0.0
H4197 H 0.13424 0.50594 0.15065 0.0
C4198 C 0.10552 0.51049 0.13995 0.0
H4199 H 0.09807 0.5169 0.14003 0.0
H4200 H 0.0955 0.49777 0.1291 0.0
H4201 H 0.79637 0.88704 0.40844 0.0
C4202 C 0.80011 0.8895 0.39968 0.0
C4203 C 0.80962 0.89797 0.39903 0.0
C4204 C 0.79572 0.88392 0.38904 0.0
H4205 H 0.82234 0.90708 0.3874 0.0
C4206 C 0.81472 0.90087 0.38772 0.0
C4207 C 0.8106 0.89537 0.377 0.0
C4208 C 0.80104 0.88693 0.37775 0.0
C4209 C 0.78634 0.87419 0.38965 0.0
H4210 H 0.79771 0.88266 0.36955 0.0
C4211 C 0.77531 0.87571 0.39606 0.0
C4212 C 0.76643 0.86641 0.3961 0.0
C4213 C 0.78847 0.86319 0.38355 0.0
H4214 H 0.79689 0.8617 0.3787 0.0
C4215 C 0.77988 0.85393 0.38377 0.0
H4216 H 0.77352 0.88422 0.40065 0.0
C4217 C 0.76897 0.8555 0.38996 0.0
H4218 H 0.76256 0.84805 0.39004 0.0
H4219 H 0.78169 0.84548 0.37912 0.0
H4220 H 0.89241 0.04635 0.15844 0.0
C4221 C 0.88994 0.05009 0.14968 0.0
C4222 C 0.88147 0.0596 0.14903 0.0
C4223 C 0.89553 0.04571 0.13904 0.0
H4224 H 0.87236 0.07232 0.13741 0.0
C4225 C 0.87858 0.0647 0.13773 0.0
C4226 C 0.88408 0.06058 0.127 0.0
C4227 C 0.89251 0.05102 0.12776 0.0
C4228 C 0.90526 0.03632 0.13965 0.0
H4229 H 0.89679 0.04769 0.11955 0.0
C4230 C 0.90374 0.0253 0.14606 0.0
C4231 C 0.91304 0.01641 0.1461 0.0
C4232 C 0.91625 0.03845 0.13355 0.0
H4233 H 0.91775 0.04687 0.1287 0.0
C4234 C 0.92551 0.02986 0.13377 0.0
H4235 H 0.89523 0.02351 0.15066 0.0
C4236 C 0.92395 0.01896 0.13996 0.0
H4237 H 0.9314 1.01254 0.14004 0.0
H4238 H 0.93397 0.03168 0.12912 0.0
H4239 H 0.29636 0.64239 0.62102 0.0
C4240 C 0.30009 0.63993 0.62978 0.0
C4241 C 0.30961 0.63146 0.63043 0.0
C4242 C 0.29571 0.64551 0.64042 0.0
H4243 H 0.32233 0.62235 0.64205 0.0
C4244 C 0.31471 0.62856 0.64173 0.0
C4245 C 0.31059 0.63406 0.65246 0.0
C4246 C 0.30102 0.6425 0.6517 0.0
C4247 C 0.28633 0.65524 0.63981 0.0
H4248 H 0.2977 0.64677 0.65991 0.0
C4249 C 0.2753 0.65372 0.6334 0.0
C4250 C 0.26642 0.66302 0.63336 0.0
C4251 C 0.28846 0.66624 0.64591 0.0
H4252 H 0.29688 0.66773 0.65076 0.0
C4253 C 0.27987 0.6755 0.64569 0.0
H4254 H 0.27351 0.64522 0.6288 0.0
C4255 C 0.26896 0.67393 0.6395 0.0
H4256 H 0.26255 0.68138 0.63942 0.0
H4257 H 0.28168 0.68396 0.65034 0.0
H4258 H 0.13705 0.54637 0.37101 0.0
C4259 C 0.13951 0.5501 0.37977 0.0
C4260 C 0.14798 0.55962 0.38042 0.0
C4261 C 0.13393 0.54572 0.39041 0.0
H4262 H 0.15709 0.57234 0.39205 0.0
C4263 C 0.15087 0.56471 0.39173 0.0
C4264 C 0.14537 0.56059 0.40245 0.0
C4265 C 0.13694 0.55103 0.40169 0.0
C4266 C 0.12419 0.53634 0.3898 0.0
H4267 H 0.13266 0.54771 0.4099 0.0
C4268 C 0.12572 0.52531 0.38338 0.0
C4269 C 0.11641 0.51643 0.38334 0.0
C4270 C 0.1132 0.53847 0.39589 0.0
H4271 H 0.1117 0.54689 0.40075 0.0
C4272 C 0.10394 0.52988 0.39567 0.0
H4273 H 0.13422 0.52352 0.37879 0.0
C4274 C 0.1055 0.51897 0.38948 0.0
H4275 H 0.09805 0.51256 0.3894 0.0
H4276 H 0.09548 0.53169 0.40033 0.0
H4277 H 0.39241 0.48308 0.87101 0.0
C4278 C 0.38995 0.47935 0.87977 0.0
C4279 C 0.38148 0.46983 0.88042 0.0
C4280 C 0.39553 0.48373 0.89041 0.0
H4281 H 0.37237 0.45711 0.89205 0.0
C4282 C 0.37858 0.46474 0.89173 0.0
C4283 C 0.38409 0.46885 0.90245 0.0
C4284 C 0.39252 0.47842 0.90169 0.0
C4285 C 0.40526 0.49311 0.8898 0.0
H4286 H 0.39679 0.48174 0.9099 0.0
C4287 C 0.40374 0.50414 0.88339 0.0
C4288 C 0.41304 0.51302 0.88335 0.0
C4289 C 0.41626 0.49098 0.8959 0.0
H4290 H 0.41775 0.48256 0.90075 0.0
C4291 C 0.42552 0.49957 0.89568 0.0
H4292 H 0.39523 0.50593 0.8788 0.0
C4293 C 0.42395 0.51048 0.88949 0.0
H4294 H 0.4314 0.51689 0.88941 0.0
H4295 H 0.43398 0.49776 0.90033 0.0
H4296 H 0.90663 0.7912 0.63261 0.0
C4297 C 0.8984 0.79656 0.63306 0.0
C4298 C 0.89907 0.80927 0.63178 0.0
C4299 C 0.88704 0.79076 0.63436 0.0
H4300 H 0.88882 0.82584 0.63026 0.0
C4301 C 0.88831 0.81611 0.63164 0.0
C4302 C 0.87691 0.81056 0.63252 0.0
C4303 C 0.87638 0.79794 0.63429 0.0
C4304 C 0.88596 0.77721 0.63449 0.0
H4305 H 0.86758 0.79363 0.63505 0.0
C4306 C 0.89388 0.76966 0.64129 0.0
C4307 C 0.89209 0.75692 0.64156 0.0
C4308 C 0.87667 0.77172 0.62764 0.0
H4309 H 0.8707 0.77711 0.62199 0.0
C4310 C 0.87498 0.75922 0.62782 0.0
H4311 H 0.90115 0.77366 0.64656 0.0
C4312 C 0.88254 0.75188 0.63476 0.0
H4313 H 0.88108 0.74216 0.63459 0.0
H4314 H 0.86778 0.75517 0.6225 0.0
H4315 H 0.98824 0.15662 0.38262 0.0
C4316 C 0.98288 0.14838 0.38307 0.0
C4317 C 0.97017 0.14905 0.38178 0.0
C4318 C 0.98868 0.13702 0.38437 0.0
H4319 H 0.9536 0.13881 0.38026 0.0
C4320 C 0.96333 0.1383 0.38164 0.0
C4321 C 0.96888 0.1269 0.38252 0.0
C4322 C 0.9815 0.12637 0.3843 0.0
C4323 C 1.00223 0.13595 0.3845 0.0
H4324 H 0.98581 0.11757 0.38505 0.0
C4325 C 1.00978 0.14387 0.39129 0.0
C4326 C 0.02252 0.14208 0.39156 0.0
C4327 C 1.00772 0.12666 0.37765 0.0
H4328 H 1.00233 0.12068 0.372 0.0
C4329 C 0.02023 0.12497 0.37783 0.0
H4330 H 1.00578 0.15114 0.39656 0.0
C4331 C 0.02756 0.13254 0.38477 0.0
H4332 H 0.03728 0.13107 0.3846 0.0
H4333 H 0.02427 0.11777 0.37251 0.0
H4334 H 0.62283 0.23824 0.13262 0.0
C4335 C 0.63107 0.23288 0.13307 0.0
C4336 C 0.6304 0.22017 0.13178 0.0
C4337 C 0.64243 0.23868 0.13437 0.0
H4338 H 0.64064 0.2036 0.13027 0.0
C4339 C 0.64115 0.21333 0.13165 0.0
C4340 C 0.65255 0.21888 0.13252 0.0
C4341 C 0.65308 0.23149 0.1343 0.0
C4342 C 0.6435 0.25223 0.1345 0.0
H4343 H 0.66188 0.23581 0.13505 0.0
C4344 C 0.63558 0.25978 0.14129 0.0
C4345 C 0.63737 0.27252 0.14156 0.0
C4346 C 0.65279 0.25772 0.12764 0.0
H4347 H 0.65877 0.25233 0.122 0.0
C4348 C 0.65448 0.27022 0.12783 0.0
H4349 H 0.62831 0.25578 0.14656 0.0
C4350 C 0.64692 0.27756 0.13476 0.0
H4351 H 0.64839 0.28728 0.13459 0.0
H4352 H 0.66168 0.27427 0.1225 0.0
H4353 H 0.54121 0.87284 0.88261 0.0
C4354 C 0.54657 0.88108 0.88306 0.0
C4355 C 0.55928 0.88041 0.88177 0.0
C4356 C 0.54077 0.89244 0.88436 0.0
H4357 H 0.57585 0.89065 0.88025 0.0
C4358 C 0.56612 0.89116 0.88163 0.0
C4359 C 0.56056 0.90256 0.88251 0.0
C4360 C 0.54795 0.90309 0.88428 0.0
C4361 C 0.52722 0.89351 0.88449 0.0
H4362 H 0.54364 0.91189 0.88504 0.0
C4363 C 0.51967 0.88559 0.89128 0.0
C4364 C 0.50693 0.88738 0.89155 0.0
C4365 C 0.52173 0.9028 0.87764 0.0
H4366 H 0.52711 0.90878 0.87199 0.0
C4367 C 0.50922 0.90449 0.87782 0.0
H4368 H 0.52367 0.87832 0.89655 0.0
C4369 C 0.50189 0.89693 0.88476 0.0
H4370 H 0.49217 0.89839 0.88458 0.0
H4371 H 0.50518 0.91169 0.8725 0.0
H4372 H 0.90661 0.23824 0.89685 0.0
C4373 C 0.89838 0.23289 0.89639 0.0
C4374 C 0.89905 0.22017 0.89768 0.0
C4375 C 0.88702 0.23868 0.89509 0.0
H4376 H 0.8888 0.2036 0.8992 0.0
C4377 C 0.8883 0.21333 0.89782 0.0
C4378 C 0.8769 0.21889 0.89694 0.0
C4379 C 0.87636 0.2315 0.89517 0.0
C4380 C 0.88595 0.25224 0.89497 0.0
H4381 H 0.86756 0.23581 0.89441 0.0
C4382 C 0.89387 0.25978 0.88817 0.0
C4383 C 0.89207 0.27253 0.8879 0.0
C4384 C 0.87665 0.25772 0.90182 0.0
H4385 H 0.87068 0.25234 0.90746 0.0
C4386 C 0.87496 0.27023 0.90163 0.0
H4387 H 0.90113 0.25578 0.8829 0.0
C4388 C 0.88253 0.27756 0.8947 0.0
H4389 H 0.88106 0.28728 0.89487 0.0
H4390 H 0.86776 0.27427 0.90695 0.0
H4391 H 0.54122 0.15662 0.64683 0.0
C4392 C 0.54657 0.14839 0.64638 0.0
C4393 C 0.55929 0.14906 0.64766 0.0
C4394 C 0.54078 0.13702 0.64508 0.0
H4395 H 0.57586 0.13881 0.64918 0.0
C4396 C 0.56613 0.1383 0.6478 0.0
C4397 C 0.56057 0.1269 0.64692 0.0
C4398 C 0.54796 0.12637 0.64515 0.0
C4399 C 0.52722 0.13595 0.64495 0.0
H4400 H 0.54365 0.11757 0.64439 0.0
C4401 C 0.51967 0.14387 0.63816 0.0
C4402 C 0.50693 0.14208 0.63788 0.0
C4403 C 0.52174 0.12666 0.6518 0.0
H4404 H 0.52712 0.12069 0.65745 0.0
C4405 C 0.50923 0.12497 0.65162 0.0
H4406 H 0.52367 0.15114 0.63288 0.0
C4407 C 0.5019 0.13253 0.64469 0.0
H4408 H 0.49217 0.13107 0.64486 0.0
H4409 H 0.50519 0.11777 0.65694 0.0
H4410 H 0.62283 0.79121 0.39683 0.0
C4411 C 0.63107 0.79657 0.39638 0.0
C4412 C 0.6304 0.80928 0.39767 0.0
C4413 C 0.64243 0.79077 0.39508 0.0
H4414 H 0.64065 0.82585 0.39919 0.0
C4415 C 0.64115 0.81612 0.39781 0.0
C4416 C 0.65255 0.81057 0.39693 0.0
C4417 C 0.65308 0.79795 0.39515 0.0
C4418 C 0.6435 0.77722 0.39495 0.0
H4419 H 0.66188 0.79364 0.39439 0.0
C4420 C 0.63558 0.76967 0.38816 0.0
C4421 C 0.63737 0.75693 0.38788 0.0
C4422 C 0.65279 0.77173 0.4018 0.0
H4423 H 0.65877 0.77712 0.40745 0.0
C4424 C 0.65448 0.75922 0.40162 0.0
H4425 H 0.62831 0.77367 0.38289 0.0
C4426 C 0.64692 0.75189 0.39468 0.0
H4427 H 0.64838 0.74217 0.39485 0.0
H4428 H 0.66168 0.75518 0.40694 0.0
H4429 H 0.98825 0.87282 0.14684 0.0
C4430 C 0.9829 0.88106 0.14639 0.0
C4431 C 0.97018 0.88039 0.14767 0.0
C4432 C 0.98869 0.89242 0.14509 0.0
H4433 H 0.95361 0.89063 0.14919 0.0
C4434 C 0.96334 0.89114 0.14781 0.0
C4435 C 0.9689 0.90254 0.14693 0.0
C4436 C 0.98151 0.90307 0.14516 0.0
C4437 C 1.00225 0.89349 0.14496 0.0
H4438 H 0.98582 0.91187 0.1444 0.0
C4439 C 1.00979 0.88557 0.13816 0.0
C4440 C 0.02253 0.88737 0.13789 0.0
C4441 C 1.00773 0.90278 0.15181 0.0
H4442 H 1.00234 0.90876 0.15746 0.0
C4443 C 0.02024 0.90447 0.15163 0.0
H4444 H 1.00579 0.8783 0.13289 0.0
C4445 C 0.02757 0.89691 0.14469 0.0
H4446 H 0.03729 0.89837 0.14486 0.0
H4447 H 0.02428 0.91167 0.15695 0.0
H4448 H 0.63262 0.90663 0.7912 0.0
C4449 C 0.63307 0.89839 0.79656 0.0
C4450 C 0.63178 0.89906 0.80928 0.0
C4451 C 0.63437 0.88703 0.79077 0.0
H4452 H 0.63026 0.88882 0.82585 0.0
C4453 C 0.63164 0.88831 0.81611 0.0
C4454 C 0.63252 0.87691 0.81056 0.0
C4455 C 0.6343 0.87638 0.79795 0.0
C4456 C 0.6345 0.88596 0.77721 0.0
H4457 H 0.63506 0.86758 0.79364 0.0
C4458 C 0.64129 0.89388 0.76966 0.0
C4459 C 0.64157 0.89209 0.75692 0.0
C4460 C 0.62765 0.87667 0.77172 0.0
H4461 H 0.622 0.87069 0.77711 0.0
C4462 C 0.62783 0.87498 0.75922 0.0
H4463 H 0.64657 0.90115 0.77366 0.0
C4464 C 0.63477 0.88254 0.75188 0.0
H4465 H 0.6346 0.88108 0.74216 0.0
H4466 H 0.62251 0.86778 0.75517 0.0
H4467 H 0.87284 0.8826 0.54121 0.0
C4468 C 0.88108 0.88305 0.54656 0.0
C4469 C 0.88041 0.88177 0.55928 0.0
C4470 C 0.89244 0.88435 0.54077 0.0
H4471 H 0.89065 0.88025 0.57585 0.0
C4472 C 0.89116 0.88163 0.56612 0.0
C4473 C 0.90256 0.88251 0.56056 0.0
C4474 C 0.90309 0.88428 0.54795 0.0
C4475 C 0.89351 0.88448 0.52721 0.0
H4476 H 0.9119 0.88504 0.54364 0.0
C4477 C 0.88559 0.89128 0.51966 0.0
C4478 C 0.88738 0.89155 0.50692 0.0
C4479 C 0.90281 0.87763 0.52173 0.0
H4480 H 0.90878 0.87199 0.52711 0.0
C4481 C 0.9045 0.87782 0.50922 0.0
H4482 H 0.87832 0.89655 0.52366 0.0
C4483 C 0.89693 0.88475 0.50188 0.0
H4484 H 0.89839 0.88458 0.49216 0.0
H4485 H 0.91169 0.87249 0.50517 0.0
H4486 H 0.89683 0.12283 0.29121 0.0
C4487 C 0.89638 0.13106 0.29657 0.0
C4488 C 0.89767 0.13039 0.30929 0.0
C4489 C 0.89508 0.14242 0.29078 0.0
H4490 H 0.89919 0.14064 0.32585 0.0
C4491 C 0.89781 0.14114 0.31612 0.0
C4492 C 0.89693 0.15255 0.31057 0.0
C4493 C 0.89515 0.15308 0.29796 0.0
C4494 C 0.89495 0.14349 0.27722 0.0
H4495 H 0.8944 0.16188 0.29364 0.0
C4496 C 0.88816 0.13557 0.26967 0.0
C4497 C 0.88788 0.13737 0.25693 0.0
C4498 C 0.9018 0.15279 0.27173 0.0
H4499 H 0.90745 0.15876 0.27712 0.0
C4500 C 0.90162 0.15448 0.25923 0.0
H4501 H 0.88289 0.12831 0.27367 0.0
C4502 C 0.89468 0.14691 0.25189 0.0
H4503 H 0.89485 0.14838 0.24217 0.0
H4504 H 0.90694 0.16168 0.25518 0.0
H4505 H 0.65662 0.14683 0.04121 0.0
C4506 C 0.64839 0.14638 0.04657 0.0
C4507 C 0.64906 0.14767 0.05928 0.0
C4508 C 0.63703 0.14508 0.04077 0.0
H4509 H 0.63881 0.14919 0.07585 0.0
C4510 C 0.6383 0.14781 0.06612 0.0
C4511 C 0.6269 0.14693 0.06057 0.0
C4512 C 0.62637 0.14515 0.04796 0.0
C4513 C 0.63595 0.14496 0.02722 0.0
H4514 H 0.61757 0.1444 0.04364 0.0
C4515 C 0.64387 0.13816 0.01967 0.0
C4516 C 0.64208 0.13789 1.00693 0.0
C4517 C 0.62666 0.15181 0.02173 0.0
H4518 H 0.62069 0.15745 0.02712 0.0
C4519 C 0.62497 0.15162 1.00923 0.0
H4520 H 0.65114 0.13289 0.02367 0.0
C4521 C 0.63253 0.14469 1.00189 0.0
H4522 H 0.63107 0.14486 0.99217 0.0
H4523 H 0.61777 0.15695 1.00518 0.0
H4524 H 0.63262 0.12283 0.73823 0.0
C4525 C 0.63307 0.13106 0.73288 0.0
C4526 C 0.63179 0.13039 0.72016 0.0
C4527 C 0.63437 0.14243 0.73867 0.0
H4528 H 0.63027 0.14064 0.70359 0.0
C4529 C 0.63165 0.14115 0.71332 0.0
C4530 C 0.63253 0.15255 0.71888 0.0
C4531 C 0.6343 0.15308 0.73149 0.0
C4532 C 0.6345 0.1435 0.75223 0.0
H4533 H 0.63506 0.16188 0.7358 0.0
C4534 C 0.64129 0.13558 0.75978 0.0
C4535 C 0.64157 0.13737 0.77252 0.0
C4536 C 0.62765 0.15279 0.75771 0.0
H4537 H 0.622 0.15876 0.75233 0.0
C4538 C 0.62783 0.15448 0.77022 0.0
H4539 H 0.64657 0.12831 0.75578 0.0
C4540 C 0.63477 0.14692 0.77756 0.0
H4541 H 0.63459 0.14838 0.78728 0.0
H4542 H 0.62251 0.16168 0.77426 0.0
H4543 H 0.65662 0.88262 0.48824 0.0
C4544 C 0.64839 0.88307 0.48288 0.0
C4545 C 0.64906 0.88178 0.47016 0.0
C4546 C 0.63703 0.88437 0.48868 0.0
H4547 H 0.63881 0.88026 0.4536 0.0
C4548 C 0.63831 0.88164 0.46333 0.0
C4549 C 0.62691 0.88252 0.46888 0.0
C4550 C 0.62638 0.8843 0.4815 0.0
C4551 C 0.63596 0.8845 0.50223 0.0
H4552 H 0.61757 0.88506 0.48581 0.0
C4553 C 0.64388 0.89129 0.50978 0.0
C4554 C 0.64209 0.89157 0.52252 0.0
C4555 C 0.62666 0.87765 0.50772 0.0
H4556 H 0.62069 0.872 0.50233 0.0
C4557 C 0.62497 0.87783 0.52022 0.0
H4558 H 0.65115 0.89656 0.50578 0.0
C4559 C 0.63254 0.88477 0.52756 0.0
H4560 H 0.63108 0.8846 0.53728 0.0
H4561 H 0.61778 0.87251 0.52427 0.0
H4562 H 0.89685 0.90661 0.23824 0.0
C4563 C 0.8964 0.89838 0.23289 0.0
C4564 C 0.89768 0.89905 0.22017 0.0
C4565 C 0.8951 0.88701 0.23868 0.0
H4566 H 0.8992 0.8888 0.2036 0.0
C4567 C 0.89782 0.88829 0.21333 0.0
C4568 C 0.89694 0.87689 0.21889 0.0
C4569 C 0.89517 0.87636 0.2315 0.0
C4570 C 0.89497 0.88594 0.25224 0.0
H4571 H 0.89441 0.86756 0.23581 0.0
C4572 C 0.88817 0.89386 0.25979 0.0
C4573 C 0.8879 0.89207 0.27253 0.0
C4574 C 0.90182 0.87665 0.25772 0.0
H4575 H 0.90747 0.87068 0.25234 0.0
C4576 C 0.90164 0.87496 0.27023 0.0
H4577 H 0.8829 0.90113 0.25579 0.0
C4578 C 0.8947 0.88252 0.27757 0.0
H4579 H 0.89487 0.88106 0.28729 0.0
H4580 H 0.90696 0.86776 0.27428 0.0
H4581 H 0.87283 0.14683 0.98825 0.0
C4582 C 0.88106 0.14638 0.98289 0.0
C4583 C 0.88039 0.14767 0.97018 0.0
C4584 C 0.89242 0.14508 0.98869 0.0
H4585 H 0.89064 0.14919 0.95361 0.0
C4586 C 0.89114 0.14781 0.96334 0.0
C4587 C 0.90255 0.14693 0.96889 0.0
C4588 C 0.90308 0.14515 0.9815 0.0
C4589 C 0.89349 0.14495 1.00224 0.0
H4590 H 0.91188 0.1444 0.98582 0.0
C4591 C 0.88558 0.13816 1.00979 0.0
C4592 C 0.88737 0.13788 0.02253 0.0
C4593 C 0.90279 0.1518 1.00773 0.0
H4594 H 0.90876 0.15745 1.00234 0.0
C4595 C 0.90448 0.15162 0.02023 0.0
H4596 H 0.87831 0.13289 1.00579 0.0
C4597 C 0.89691 0.14468 0.02757 0.0
H4598 H 0.89838 0.14485 0.03729 0.0
H4599 H 0.91168 0.15694 0.02428 0.0
H4600 H 0.7912 0.63261 0.90662 0.0
C4601 C 0.79656 0.63306 0.89839 0.0
C4602 C 0.80927 0.63178 0.89906 0.0
C4603 C 0.79076 0.63436 0.88703 0.0
H4604 H 0.82584 0.63026 0.88881 0.0
C4605 C 0.81611 0.63164 0.88831 0.0
C4606 C 0.81056 0.63252 0.87691 0.0
C4607 C 0.79795 0.63429 0.87637 0.0
C4608 C 0.77721 0.63449 0.88596 0.0
H4609 H 0.79363 0.63505 0.86757 0.0
C4610 C 0.76966 0.64129 0.89387 0.0
C4611 C 0.75692 0.64156 0.89208 0.0
C4612 C 0.77172 0.62764 0.87666 0.0
H4613 H 0.77711 0.62199 0.87069 0.0
C4614 C 0.75922 0.62782 0.87497 0.0
H4615 H 0.77366 0.64656 0.90114 0.0
C4616 C 0.75188 0.63476 0.88254 0.0
H4617 H 0.74216 0.63459 0.88107 0.0
H4618 H 0.75517 0.6225 0.86777 0.0
H4619 H 0.29122 0.89683 0.12283 0.0
C4620 C 0.29658 0.89638 0.13106 0.0
C4621 C 0.30929 0.89767 0.13039 0.0
C4622 C 0.29078 0.89508 0.14242 0.0
H4623 H 0.32586 0.89919 0.14064 0.0
C4624 C 0.31613 0.89781 0.14115 0.0
C4625 C 0.31057 0.89693 0.15255 0.0
C4626 C 0.29796 0.89515 0.15308 0.0
C4627 C 0.27722 0.89495 0.1435 0.0
H4628 H 0.29365 0.89439 0.16188 0.0
C4629 C 0.26968 0.88816 0.13558 0.0
C4630 C 0.25694 0.88788 0.13737 0.0
C4631 C 0.27174 0.9018 0.15279 0.0
H4632 H 0.27712 0.90745 0.15876 0.0
C4633 C 0.25923 0.90162 0.15448 0.0
H4634 H 0.27368 0.88289 0.12831 0.0
C4635 C 0.2519 0.89468 0.14691 0.0
H4636 H 0.24218 0.89485 0.14838 0.0
H4637 H 0.25519 0.90694 0.16168 0.0
H4638 H 0.88261 0.5412 0.87284 0.0
C4639 C 0.88306 0.54656 0.88107 0.0
C4640 C 0.88177 0.55928 0.8804 0.0
C4641 C 0.88436 0.54077 0.89243 0.0
H4642 H 0.88025 0.57584 0.89065 0.0
C4643 C 0.88163 0.56611 0.89116 0.0
C4644 C 0.88251 0.56056 0.90256 0.0
C4645 C 0.88428 0.54795 0.90309 0.0
C4646 C 0.88448 0.52721 0.89351 0.0
H4647 H 0.88504 0.54363 0.91189 0.0
C4648 C 0.89128 0.51966 0.88559 0.0
C4649 C 0.89155 0.50692 0.88738 0.0
C4650 C 0.87763 0.52172 0.9028 0.0
H4651 H 0.87199 0.52711 0.90877 0.0
C4652 C 0.87782 0.50922 0.90449 0.0
H4653 H 0.89655 0.52366 0.87832 0.0
C4654 C 0.88475 0.50188 0.89692 0.0
H4655 H 0.88458 0.49216 0.89839 0.0
H4656 H 0.8725 0.50517 0.91169 0.0
H4657 H 0.23824 0.13262 0.62283 0.0
C4658 C 0.23288 0.13307 0.63106 0.0
C4659 C 0.22017 0.13178 0.63039 0.0
C4660 C 0.23868 0.13437 0.64242 0.0
H4661 H 0.2036 0.13027 0.64064 0.0
C4662 C 0.21333 0.13165 0.64115 0.0
C4663 C 0.21888 0.13252 0.65255 0.0
C4664 C 0.2315 0.1343 0.65308 0.0
C4665 C 0.25223 0.1345 0.6435 0.0
H4666 H 0.23581 0.13505 0.66188 0.0
C4667 C 0.25978 0.14129 0.63558 0.0
C4668 C 0.27252 0.14156 0.63737 0.0
C4669 C 0.25772 0.12765 0.65279 0.0
H4670 H 0.25233 0.122 0.65876 0.0
C4671 C 0.27022 0.12783 0.65448 0.0
H4672 H 0.25578 0.14656 0.62831 0.0
C4673 C 0.27756 0.13476 0.64692 0.0
H4674 H 0.28728 0.13459 0.64838 0.0
H4675 H 0.27427 0.12251 0.66168 0.0
H4676 H 0.14684 0.98825 0.87283 0.0
C4677 C 0.14639 0.98289 0.88106 0.0
C4678 C 0.14768 0.97018 0.88039 0.0
C4679 C 0.14509 0.98869 0.89242 0.0
H4680 H 0.1492 0.95361 0.89064 0.0
C4681 C 0.14782 0.96334 0.89114 0.0
C4682 C 0.14694 0.96889 0.90254 0.0
C4683 C 0.14516 0.98151 0.90308 0.0
C4684 C 0.14496 1.00224 0.89349 0.0
H4685 H 0.14441 0.98582 0.91188 0.0
C4686 C 0.13817 1.00979 0.88558 0.0
C4687 C 0.13789 0.02253 0.88737 0.0
C4688 C 0.15181 1.00773 0.90279 0.0
H4689 H 0.15746 1.00234 0.90876 0.0
C4690 C 0.15163 0.02024 0.90448 0.0
H4691 H 0.13289 1.00579 0.87831 0.0
C4692 C 0.14469 0.02757 0.89691 0.0
H4693 H 0.14486 0.03729 0.89838 0.0
H4694 H 0.15695 0.02428 0.91168 0.0
H4695 H 0.73825 0.39685 0.40661 0.0
C4696 C 0.73289 0.3964 0.39838 0.0
C4697 C 0.72018 0.39768 0.39905 0.0
C4698 C 0.73869 0.3951 0.38702 0.0
H4699 H 0.70361 0.3992 0.3888 0.0
C4700 C 0.71334 0.39782 0.38829 0.0
C4701 C 0.71889 0.39694 0.37689 0.0
C4702 C 0.73151 0.39517 0.37636 0.0
C4703 C 0.75224 0.39497 0.38594 0.0
H4704 H 0.73582 0.39441 0.36756 0.0
C4705 C 0.75979 0.38817 0.39386 0.0
C4706 C 0.77253 0.3879 0.39207 0.0
C4707 C 0.75773 0.40182 0.37665 0.0
H4708 H 0.75234 0.40746 0.37068 0.0
C4709 C 0.77024 0.40163 0.37496 0.0
H4710 H 0.75579 0.3829 0.40113 0.0
C4711 C 0.77757 0.3947 0.38253 0.0
H4712 H 0.78729 0.39487 0.38106 0.0
H4713 H 0.77428 0.40695 0.36776 0.0
H4714 H 0.88262 0.48823 0.65662 0.0
C4715 C 0.88307 0.48288 0.64839 0.0
C4716 C 0.88179 0.47016 0.64906 0.0
C4717 C 0.88437 0.48867 0.63703 0.0
H4718 H 0.88027 0.45359 0.63881 0.0
C4719 C 0.88165 0.46332 0.6383 0.0
C4720 C 0.88253 0.46888 0.6269 0.0
C4721 C 0.8843 0.48149 0.62637 0.0
C4722 C 0.8845 0.50223 0.63596 0.0
H4723 H 0.88506 0.48581 0.61757 0.0
C4724 C 0.8913 0.50978 0.64387 0.0
C4725 C 0.89157 0.52252 0.64208 0.0
C4726 C 0.87765 0.50772 0.62666 0.0
H4727 H 0.872 0.50233 0.62069 0.0
C4728 C 0.87783 0.52022 0.62497 0.0
H4729 H 0.89657 0.50578 0.65114 0.0
C4730 C 0.88477 0.52756 0.63254 0.0
H4731 H 0.8846 0.53728 0.63107 0.0
H4732 H 0.87251 0.52427 0.61777 0.0
H4733 H 0.64683 0.54121 0.15662 0.0
C4734 C 0.64638 0.54657 0.14838 0.0
C4735 C 0.64767 0.55929 0.14905 0.0
C4736 C 0.64508 0.54078 0.13702 0.0
H4737 H 0.64919 0.57586 0.13881 0.0
C4738 C 0.64781 0.56613 0.1383 0.0
C4739 C 0.64693 0.56057 0.1269 0.0
C4740 C 0.64515 0.54796 0.12637 0.0
C4741 C 0.64495 0.52722 0.13595 0.0
H4742 H 0.6444 0.54365 0.11757 0.0
C4743 C 0.63816 0.51967 0.14387 0.0
C4744 C 0.63789 0.50693 0.14208 0.0
C4745 C 0.65181 0.52174 0.12666 0.0
H4746 H 0.65745 0.52712 0.12068 0.0
C4747 C 0.65162 0.50923 0.12497 0.0
H4748 H 0.63289 0.52367 0.15114 0.0
C4749 C 0.64469 0.50189 0.13253 0.0
H4750 H 0.64486 0.49217 0.13107 0.0
H4751 H 0.65695 0.50519 0.11777 0.0
H4752 H 0.62101 0.73309 0.88704 0.0
C4753 C 0.62977 0.72936 0.88951 0.0
C4754 C 0.63042 0.71984 0.89798 0.0
C4755 C 0.64041 0.73374 0.88392 0.0
H4756 H 0.64204 0.70712 0.90709 0.0
C4757 C 0.64172 0.71475 0.90087 0.0
C4758 C 0.65245 0.71887 0.89537 0.0
C4759 C 0.65169 0.72843 0.88694 0.0
C4760 C 0.6398 0.74313 0.87419 0.0
H4761 H 0.6599 0.73175 0.88267 0.0
C4762 C 0.63339 0.75415 0.87572 0.0
C4763 C 0.63335 0.76303 0.86641 0.0
C4764 C 0.6459 0.74099 0.8632 0.0
H4765 H 0.65075 0.73258 0.8617 0.0
C4766 C 0.64568 0.74958 0.85394 0.0
H4767 H 0.62879 0.75594 0.88422 0.0
C4768 C 0.63949 0.76049 0.8555 0.0
H4769 H 0.63941 0.76691 0.84805 0.0
H4770 H 0.65033 0.74777 0.84548 0.0
H4771 H 0.54637 0.37101 0.13705 0.0
C4772 C 0.5501 0.37977 0.13951 0.0
C4773 C 0.55962 0.38042 0.14798 0.0
C4774 C 0.54572 0.39041 0.13392 0.0
H4775 H 0.57234 0.39205 0.15709 0.0
C4776 C 0.56472 0.39173 0.15087 0.0
C4777 C 0.5606 0.40246 0.14537 0.0
C4778 C 0.55103 0.40169 0.13694 0.0
C4779 C 0.53634 0.3898 0.12419 0.0
H4780 H 0.54771 0.4099 0.13266 0.0
C4781 C 0.52531 0.38339 0.12572 0.0
C4782 C 0.51643 0.38335 0.11641 0.0
C4783 C 0.53847 0.3959 0.1132 0.0
H4784 H 0.54689 0.40075 0.1117 0.0
C4785 C 0.52988 0.39568 0.10394 0.0
H4786 H 0.52353 0.37879 0.13422 0.0
C4787 C 0.51897 0.38949 0.1055 0.0
H4788 H 0.51256 0.3894 0.09805 0.0
H4789 H 0.53169 0.40033 0.09548 0.0
H4790 H 0.90844 0.29637 0.38704 0.0
C4791 C 0.89968 0.3001 0.38951 0.0
C4792 C 0.89903 0.30962 0.39798 0.0
C4793 C 0.88904 0.29572 0.38392 0.0
H4794 H 0.88741 0.32234 0.40708 0.0
C4795 C 0.88773 0.31471 0.40087 0.0
C4796 C 0.877 0.31059 0.39537 0.0
C4797 C 0.87776 0.30103 0.38694 0.0
C4798 C 0.88965 0.28633 0.37419 0.0
H4799 H 0.86955 0.29771 0.38266 0.0
C4800 C 0.89606 0.27531 0.37572 0.0
C4801 C 0.8961 0.26643 0.36641 0.0
C4802 C 0.88356 0.28847 0.3632 0.0
H4803 H 0.8787 0.29688 0.3617 0.0
C4804 C 0.88377 0.27988 0.35394 0.0
H4805 H 0.90066 0.27352 0.38422 0.0
C4806 C 0.88996 0.26897 0.3555 0.0
H4807 H 0.89005 0.26255 0.34805 0.0
H4808 H 0.87912 0.28169 0.34548 0.0
H4809 H 0.98309 0.65843 0.63706 0.0
C4810 C 0.97936 0.64967 0.63952 0.0
C4811 C 0.96984 0.64902 0.64799 0.0
C4812 C 0.98374 0.63903 0.63394 0.0
H4813 H 0.95712 0.63739 0.6571 0.0
C4814 C 0.96475 0.63771 0.65088 0.0
C4815 C 0.96886 0.62698 0.64538 0.0
C4816 C 0.97843 0.62774 0.63695 0.0
C4817 C 0.99312 0.63963 0.62421 0.0
H4818 H 0.98175 0.61953 0.63268 0.0
C4819 C 1.00415 0.64605 0.62573 0.0
C4820 C 1.01303 0.64609 0.61642 0.0
C4821 C 0.991 0.63354 0.61321 0.0
H4822 H 0.98258 0.62868 0.61172 0.0
C4823 C 0.99959 0.63376 0.60395 0.0
H4824 H 1.00594 0.65065 0.63423 0.0
C4825 C 1.01049 0.63995 0.60551 0.0
H4826 H 0.01691 0.64003 0.59807 0.0
H4827 H 0.99777 0.6291 0.59549 0.0
H4828 H 0.62103 0.29636 0.64239 0.0
C4829 C 0.62979 0.30009 0.63993 0.0
C4830 C 0.63044 0.30961 0.63146 0.0
C4831 C 0.64043 0.29571 0.64551 0.0
H4832 H 0.64206 0.32233 0.62235 0.0
C4833 C 0.64174 0.3147 0.62857 0.0
C4834 C 0.65247 0.31059 0.63407 0.0
C4835 C 0.65171 0.30102 0.6425 0.0
C4836 C 0.63982 0.28632 0.65524 0.0
H4837 H 0.65992 0.2977 0.64677 0.0
C4838 C 0.6334 0.2753 0.65372 0.0
C4839 C 0.63337 0.26642 0.66303 0.0
C4840 C 0.64591 0.28845 0.66624 0.0
H4841 H 0.65077 0.29687 0.66773 0.0
C4842 C 0.6457 0.27986 0.6755 0.0
H4843 H 0.62881 0.27351 0.64522 0.0
C4844 C 0.63951 0.26896 0.67393 0.0
H4845 H 0.63942 0.26254 0.68138 0.0
H4846 H 0.65035 0.28167 0.68396 0.0
H4847 H 0.98309 0.37101 0.89241 0.0
C4848 C 0.97935 0.37977 0.88994 0.0
C4849 C 0.96984 0.38042 0.88148 0.0
C4850 C 0.98373 0.39041 0.89553 0.0
H4851 H 0.95711 0.39204 0.87237 0.0
C4852 C 0.96474 0.39173 0.87858 0.0
C4853 C 0.96886 0.40245 0.88408 0.0
C4854 C 0.97842 0.40169 0.89252 0.0
C4855 C 0.99312 0.3898 0.90526 0.0
H4856 H 0.98175 0.4099 0.89679 0.0
C4857 C 1.00414 0.38339 0.90374 0.0
C4858 C 1.01303 0.38335 0.91304 0.0
C4859 C 0.99099 0.3959 0.91625 0.0
H4860 H 0.98257 0.40075 0.91775 0.0
C4861 C 0.99958 0.39568 0.92551 0.0
H4862 H 1.00593 0.3788 0.89523 0.0
C4863 C 1.01049 0.38949 0.92395 0.0
H4864 H 0.0169 0.38941 0.9314 0.0
H4865 H 0.99777 0.40034 0.93397 0.0
H4866 H 0.90844 0.73308 0.1424 0.0
C4867 C 0.89968 0.72935 0.13994 0.0
C4868 C 0.89903 0.71983 0.13147 0.0
C4869 C 0.88904 0.73373 0.14553 0.0
H4870 H 0.8874 0.70711 0.12236 0.0
C4871 C 0.88772 0.71474 0.12858 0.0
C4872 C 0.877 0.71886 0.13408 0.0
C4873 C 0.87776 0.72842 0.14251 0.0
C4874 C 0.88965 0.74312 0.15526 0.0
H4875 H 0.86955 0.73175 0.14679 0.0
C4876 C 0.89607 0.75414 0.15373 0.0
C4877 C 0.8961 0.76302 0.16304 0.0
C4878 C 0.88355 0.74099 0.16625 0.0
H4879 H 0.8787 0.73257 0.16775 0.0
C4880 C 0.88377 0.74958 0.17551 0.0
H4881 H 0.90066 0.75593 0.14523 0.0
C4882 C 0.88996 0.76048 0.17395 0.0
H4883 H 0.89005 0.76689 0.1814 0.0
H4884 H 0.87912 0.74776 0.18397 0.0
H4885 H 0.54636 0.65844 0.3924 0.0
C4886 C 0.55009 0.64968 0.38994 0.0
C4887 C 0.55961 0.64903 0.38147 0.0
C4888 C 0.54571 0.63904 0.39552 0.0
H4889 H 0.57233 0.63741 0.37236 0.0
C4890 C 0.5647 0.63773 0.37858 0.0
C4891 C 0.56059 0.627 0.38408 0.0
C4892 C 0.55102 0.62776 0.39251 0.0
C4893 C 0.53633 0.63965 0.40526 0.0
H4894 H 0.5477 0.61955 0.39678 0.0
C4895 C 0.5253 0.64607 0.40373 0.0
C4896 C 0.51642 0.6461 0.41304 0.0
C4897 C 0.53846 0.63356 0.41625 0.0
H4898 H 0.54688 0.6287 0.41775 0.0
C4899 C 0.52987 0.63377 0.42551 0.0
H4900 H 0.52351 0.65066 0.39523 0.0
C4901 C 0.51896 0.63996 0.42395 0.0
H4902 H 0.51255 0.64005 0.4314 0.0
H4903 H 0.53168 0.62912 0.43397 0.0
H4904 H 0.88705 0.621 0.73309 0.0
C4905 C 0.88951 0.62976 0.72936 0.0
C4906 C 0.89798 0.63042 0.71984 0.0
C4907 C 0.88393 0.64041 0.73374 0.0
H4908 H 0.90709 0.64204 0.70712 0.0
C4909 C 0.90088 0.64172 0.71475 0.0
C4910 C 0.89537 0.65245 0.71887 0.0
C4911 C 0.88694 0.65169 0.72843 0.0
C4912 C 0.8742 0.6398 0.74313 0.0
H4913 H 0.88267 0.6599 0.73175 0.0
C4914 C 0.87572 0.63338 0.75415 0.0
C4915 C 0.86641 0.63335 0.76303 0.0
C4916 C 0.8632 0.64589 0.74099 0.0
H4917 H 0.86171 0.65075 0.73258 0.0
C4918 C 0.85394 0.64568 0.74958 0.0
H4919 H 0.88422 0.62879 0.75594 0.0
C4920 C 0.8555 0.63949 0.76049 0.0
H4921 H 0.84806 0.6394 0.7669 0.0
H4922 H 0.84548 0.65033 0.74777 0.0
H4923 H 0.65843 0.63705 0.98309 0.0
C4924 C 0.64967 0.63952 0.97935 0.0
C4925 C 0.64902 0.64799 0.96984 0.0
C4926 C 0.63903 0.63394 0.98374 0.0
H4927 H 0.63739 0.6571 0.95712 0.0
C4928 C 0.63771 0.65088 0.96474 0.0
C4929 C 0.62699 0.64538 0.96886 0.0
C4930 C 0.62774 0.63695 0.97842 0.0
C4931 C 0.63963 0.62421 0.99312 0.0
H4932 H 0.61953 0.63268 0.98175 0.0
C4933 C 0.64605 0.62573 1.00415 0.0
C4934 C 0.64609 0.61642 1.01303 0.0
C4935 C 0.63354 0.61321 0.99099 0.0
H4936 H 0.62868 0.61172 0.98257 0.0
C4937 C 0.63376 0.60395 0.99958 0.0
H4938 H 0.65065 0.63423 1.00593 0.0
C4939 C 0.63995 0.60551 1.01049 0.0
H4940 H 0.64003 0.59807 0.0169 0.0
H4941 H 0.6291 0.59549 0.99777 0.0
H4942 H 0.64241 0.40844 0.23308 0.0
C4943 C 0.63994 0.39968 0.22935 0.0
C4944 C 0.63148 0.39903 0.21983 0.0
C4945 C 0.64553 0.38904 0.23373 0.0
H4946 H 0.62237 0.3874 0.20711 0.0
C4947 C 0.62858 0.38772 0.21474 0.0
C4948 C 0.63408 0.377 0.21886 0.0
C4949 C 0.64252 0.37776 0.22842 0.0
C4950 C 0.65526 0.38965 0.24311 0.0
H4951 H 0.64679 0.36955 0.23175 0.0
C4952 C 0.65374 0.39607 0.25414 0.0
C4953 C 0.66304 0.39611 0.26302 0.0
C4954 C 0.66626 0.38356 0.24098 0.0
H4955 H 0.66775 0.3787 0.23257 0.0
C4956 C 0.67552 0.38378 0.24957 0.0
H4957 H 0.64523 0.40066 0.25593 0.0
C4958 C 0.67395 0.38997 0.26048 0.0
H4959 H 0.6814 0.39005 0.26689 0.0
H4960 H 0.68398 0.37912 0.24776 0.0
H4961 H 0.87102 0.39241 0.48308 0.0
C4962 C 0.87978 0.38994 0.47935 0.0
C4963 C 0.88043 0.38148 0.46983 0.0
C4964 C 0.89042 0.39553 0.48373 0.0
H4965 H 0.89205 0.37237 0.45711 0.0
C4966 C 0.89173 0.37858 0.46474 0.0
C4967 C 0.90246 0.38408 0.46885 0.0
C4968 C 0.9017 0.39252 0.47842 0.0
C4969 C 0.88981 0.40526 0.49312 0.0
H4970 H 0.90991 0.39679 0.48174 0.0
C4971 C 0.8834 0.40374 0.50414 0.0
C4972 C 0.88336 0.41304 0.51302 0.0
C4973 C 0.89591 0.41625 0.49099 0.0
H4974 H 0.90076 0.41775 0.48257 0.0
C4975 C 0.89569 0.42551 0.49958 0.0
H4976 H 0.8788 0.39523 0.50593 0.0
C4977 C 0.8895 0.42395 0.51048 0.0
H4978 H 0.88942 0.43139 0.5169 0.0
H4979 H 0.90034 0.43397 0.49776 0.0
H4980 H 0.88704 0.40843 0.79637 0.0
C4981 C 0.88951 0.39967 0.8001 0.0
C4982 C 0.89798 0.39902 0.80962 0.0
C4983 C 0.88393 0.38903 0.79572 0.0
H4984 H 0.90708 0.3874 0.82234 0.0
C4985 C 0.90087 0.38772 0.81471 0.0
C4986 C 0.89537 0.37699 0.8106 0.0
C4987 C 0.88694 0.37775 0.80103 0.0
C4988 C 0.8742 0.38964 0.78633 0.0
H4989 H 0.88267 0.36954 0.79771 0.0
C4990 C 0.87572 0.39606 0.77531 0.0
C4991 C 0.86642 0.39609 0.76643 0.0
C4992 C 0.8632 0.38355 0.78846 0.0
H4993 H 0.86171 0.37869 0.79688 0.0
C4994 C 0.85394 0.38376 0.77987 0.0
H4995 H 0.88422 0.40065 0.77352 0.0
C4996 C 0.85551 0.38995 0.76896 0.0
H4997 H 0.84806 0.39004 0.76255 0.0
H4998 H 0.84548 0.37911 0.78169 0.0
H4999 H 0.87101 0.63705 0.04637 0.0
C5000 C 0.87977 0.63951 0.0501 0.0
C5001 C 0.88042 0.64798 0.05962 0.0
C5002 C 0.89041 0.63392 0.04572 0.0
H5003 H 0.89205 0.65709 0.07234 0.0
C5004 C 0.89173 0.65087 0.06471 0.0
C5005 C 0.90245 0.64537 0.06059 0.0
C5006 C 0.90169 0.63694 0.05103 0.0
C5007 C 0.8898 0.62419 0.03634 0.0
H5008 H 0.9099 0.63266 0.0477 0.0
C5009 C 0.88338 0.62572 0.02531 0.0
C5010 C 0.88335 0.61641 0.01643 0.0
C5011 C 0.89589 0.6132 0.03847 0.0
H5012 H 0.90075 0.6117 0.04689 0.0
C5013 C 0.89568 0.60394 0.02988 0.0
H5014 H 0.87879 0.63422 0.02352 0.0
C5015 C 0.88949 0.6055 0.01897 0.0
H5016 H 0.8894 0.59805 1.01256 0.0
H5017 H 0.90033 0.59548 0.03169 0.0
H5018 H 0.6424 0.62102 0.29636 0.0
C5019 C 0.63993 0.62978 0.30009 0.0
C5020 C 0.63147 0.63043 0.30961 0.0
C5021 C 0.64552 0.64042 0.29571 0.0
H5022 H 0.62236 0.64206 0.32233 0.0
C5023 C 0.62857 0.64174 0.31471 0.0
C5024 C 0.63407 0.65246 0.31059 0.0
C5025 C 0.6425 0.65171 0.30102 0.0
C5026 C 0.65525 0.63982 0.28633 0.0
H5027 H 0.64678 0.65992 0.2977 0.0
C5028 C 0.65372 0.6334 0.2753 0.0
C5029 C 0.66303 0.63336 0.26642 0.0
C5030 C 0.66624 0.64591 0.28846 0.0
H5031 H 0.66774 0.65077 0.29687 0.0
C5032 C 0.6755 0.64569 0.27986 0.0
H5033 H 0.64522 0.6288 0.27351 0.0
C5034 C 0.67394 0.6395 0.26896 0.0
H5035 H 0.68138 0.63942 0.26254 0.0
H5036 H 0.68396 0.65035 0.28168 0.0
H5037 H 0.65845 0.3924 0.54636 0.0
C5038 C 0.64969 0.38994 0.55009 0.0
C5039 C 0.64904 0.38147 0.55961 0.0
C5040 C 0.63905 0.39552 0.54571 0.0
H5041 H 0.63741 0.37236 0.57233 0.0
C5042 C 0.63773 0.37857 0.5647 0.0
C5043 C 0.62701 0.38408 0.56058 0.0
C5044 C 0.62777 0.39251 0.55102 0.0
C5045 C 0.63966 0.40525 0.53633 0.0
H5046 H 0.61956 0.39678 0.5477 0.0
C5047 C 0.64607 0.40373 0.5253 0.0
C5048 C 0.64611 0.41304 0.51642 0.0
C5049 C 0.63356 0.41625 0.53846 0.0
H5050 H 0.62871 0.41774 0.54688 0.0
C5051 C 0.63378 0.42551 0.52987 0.0
H5052 H 0.65067 0.39523 0.52351 0.0
C5053 C 0.63997 0.42395 0.51896 0.0
H5054 H 0.64005 0.4314 0.51255 0.0
H5055 H 0.62913 0.43397 0.53168 0.0
H5056 H 0.7331 0.88704 0.62101 0.0
C5057 C 0.72937 0.88951 0.62977 0.0
C5058 C 0.71985 0.89798 0.63042 0.0
C5059 C 0.73375 0.88393 0.64041 0.0
H5060 H 0.70713 0.90709 0.64204 0.0
C5061 C 0.71475 0.90087 0.64172 0.0
C5062 C 0.71887 0.89537 0.65245 0.0
C5063 C 0.72843 0.88694 0.65169 0.0
C5064 C 0.74313 0.87419 0.6398 0.0
H5065 H 0.73176 0.88267 0.6599 0.0
C5066 C 0.75416 0.87572 0.63339 0.0
C5067 C 0.76304 0.86641 0.63335 0.0
C5068 C 0.741 0.8632 0.6459 0.0
H5069 H 0.73258 0.86171 0.65075 0.0
C5070 C 0.74959 0.85394 0.64568 0.0
H5071 H 0.75595 0.88422 0.62879 0.0
C5072 C 0.7605 0.8555 0.63949 0.0
H5073 H 0.76691 0.84806 0.63941 0.0
H5074 H 0.74778 0.84548 0.65034 0.0
H5075 H 0.23308 0.64241 0.40844 0.0
C5076 C 0.22935 0.63994 0.39968 0.0
C5077 C 0.21983 0.63147 0.39903 0.0
C5078 C 0.23373 0.64553 0.38904 0.0
H5079 H 0.20712 0.62237 0.3874 0.0
C5080 C 0.21474 0.62858 0.38772 0.0
C5081 C 0.21886 0.63408 0.377 0.0
C5082 C 0.22842 0.64252 0.37776 0.0
C5083 C 0.24312 0.65526 0.38965 0.0
H5084 H 0.23175 0.64679 0.36955 0.0
C5085 C 0.25414 0.65374 0.39607 0.0
C5086 C 0.26302 0.66304 0.3961 0.0
C5087 C 0.24098 0.66625 0.38356 0.0
H5088 H 0.23257 0.66775 0.3787 0.0
C5089 C 0.24957 0.67552 0.38377 0.0
H5090 H 0.25593 0.64523 0.40066 0.0
C5091 C 0.26048 0.67395 0.38996 0.0
H5092 H 0.26689 0.6814 0.39005 0.0
H5093 H 0.24776 0.68397 0.37912 0.0
H5094 H 0.63706 0.98309 0.65843 0.0
C5095 C 0.63952 0.97936 0.64967 0.0
C5096 C 0.64799 0.96984 0.64902 0.0
C5097 C 0.63394 0.98374 0.63903 0.0
H5098 H 0.6571 0.95712 0.6374 0.0
C5099 C 0.65089 0.96474 0.63771 0.0
C5100 C 0.64539 0.96886 0.62699 0.0
C5101 C 0.63695 0.97843 0.62775 0.0
C5102 C 0.62421 0.99312 0.63964 0.0
H5103 H 0.63268 0.98175 0.61954 0.0
C5104 C 0.62573 1.00415 0.64605 0.0
C5105 C 0.61643 1.01303 0.64609 0.0
C5106 C 0.61321 0.99099 0.63354 0.0
H5107 H 0.61172 0.98257 0.62869 0.0
C5108 C 0.60395 0.99958 0.63376 0.0
H5109 H 0.63424 1.00594 0.65065 0.0
C5110 C 0.60552 1.01049 0.63995 0.0
H5111 H 0.59807 0.0169 0.64003 0.0
H5112 H 0.5955 0.99777 0.6291 0.0
H5113 H 0.29637 0.38704 0.90844 0.0
C5114 C 0.3001 0.38951 0.89968 0.0
C5115 C 0.30962 0.39797 0.89903 0.0
C5116 C 0.29572 0.38392 0.88903 0.0
H5117 H 0.32234 0.40708 0.8874 0.0
C5118 C 0.31472 0.40087 0.88772 0.0
C5119 C 0.3106 0.39537 0.87699 0.0
C5120 C 0.30104 0.38693 0.87775 0.0
C5121 C 0.28634 0.37419 0.88964 0.0
H5122 H 0.29771 0.38266 0.86954 0.0
C5123 C 0.27531 0.37571 0.89606 0.0
C5124 C 0.26643 0.36641 0.8961 0.0
C5125 C 0.28847 0.3632 0.88355 0.0
H5126 H 0.29689 0.3617 0.8787 0.0
C5127 C 0.27988 0.35394 0.88377 0.0
H5128 H 0.27352 0.38422 0.90065 0.0
C5129 C 0.26897 0.3555 0.88996 0.0
H5130 H 0.26256 0.34805 0.89004 0.0
H5131 H 0.28169 0.34548 0.87911 0.0
H5132 H 0.39241 0.54635 0.65844 0.0
C5133 C 0.38994 0.55009 0.64968 0.0
C5134 C 0.38147 0.5596 0.64903 0.0
C5135 C 0.39553 0.54571 0.63904 0.0
H5136 H 0.37236 0.57232 0.63741 0.0
C5137 C 0.37858 0.5647 0.63773 0.0
C5138 C 0.38408 0.56058 0.627 0.0
C5139 C 0.39251 0.55102 0.62776 0.0
C5140 C 0.40526 0.53632 0.63965 0.0
H5141 H 0.39679 0.54769 0.61955 0.0
C5142 C 0.40374 0.5253 0.64606 0.0
C5143 C 0.41304 0.51641 0.6461 0.0
C5144 C 0.41625 0.53845 0.63355 0.0
H5145 H 0.41775 0.54687 0.6287 0.0
C5146 C 0.42551 0.52986 0.63377 0.0
H5147 H 0.39523 0.52351 0.65066 0.0
C5148 C 0.42395 0.51895 0.63996 0.0
H5149 H 0.4314 0.51254 0.64004 0.0
H5150 H 0.43397 0.53168 0.62912 0.0
H5151 H 0.79636 0.14239 0.12102 0.0
C5152 C 0.80009 0.13993 0.12978 0.0
C5153 C 0.80961 0.13146 0.13043 0.0
C5154 C 0.79571 0.14551 0.14042 0.0
H5155 H 0.82233 0.12235 0.14205 0.0
C5156 C 0.81471 0.12856 0.14174 0.0
C5157 C 0.81059 0.13407 0.15246 0.0
C5158 C 0.80102 0.1425 0.1517 0.0
C5159 C 0.78633 0.15524 0.13981 0.0
H5160 H 0.7977 0.14677 0.15991 0.0
C5161 C 0.7753 0.15372 0.1334 0.0
C5162 C 0.76642 0.16303 0.13336 0.0
C5163 C 0.78846 0.16624 0.14591 0.0
H5164 H 0.79688 0.16773 0.15076 0.0
C5165 C 0.77987 0.1755 0.14569 0.0
H5166 H 0.77352 0.14522 0.1288 0.0
C5167 C 0.76896 0.17393 0.1395 0.0
H5168 H 0.76255 0.18138 0.13942 0.0
H5169 H 0.78168 0.18396 0.15035 0.0
H5170 H 0.63705 0.04637 0.87101 0.0
C5171 C 0.63951 0.0501 0.87977 0.0
C5172 C 0.64798 0.05962 0.88042 0.0
C5173 C 0.63393 0.04572 0.89041 0.0
H5174 H 0.65709 0.07234 0.89205 0.0
C5175 C 0.65088 0.06471 0.89173 0.0
C5176 C 0.64537 0.0606 0.90245 0.0
C5177 C 0.63694 0.05103 0.90169 0.0
C5178 C 0.62419 0.03634 0.8898 0.0
H5179 H 0.63266 0.04771 0.9099 0.0
C5180 C 0.62572 0.02531 0.88338 0.0
C5181 C 0.61641 0.01643 0.88334 0.0
C5182 C 0.6132 0.03847 0.89589 0.0
H5183 H 0.6117 0.04689 0.90074 0.0
C5184 C 0.60394 0.02988 0.89567 0.0
H5185 H 0.63422 0.02352 0.87879 0.0
C5186 C 0.6055 0.01897 0.88948 0.0
H5187 H 0.59805 1.01256 0.8894 0.0
H5188 H 0.59548 0.0317 0.90032 0.0
H5189 H 0.89241 0.98308 0.37101 0.0
C5190 C 0.88995 0.97935 0.37977 0.0
C5191 C 0.88148 0.96983 0.38042 0.0
C5192 C 0.89553 0.98373 0.39041 0.0
H5193 H 0.87237 0.95711 0.39205 0.0
C5194 C 0.87858 0.96473 0.39173 0.0
C5195 C 0.88409 0.96885 0.40245 0.0
C5196 C 0.89252 0.97842 0.4017 0.0
C5197 C 0.90526 0.99311 0.3898 0.0
H5198 H 0.89679 0.98174 0.4099 0.0
C5199 C 0.90374 1.00414 0.38339 0.0
C5200 C 0.91304 1.01302 0.38335 0.0
C5201 C 0.91626 0.99098 0.3959 0.0
H5202 H 0.91775 0.98256 0.40075 0.0
C5203 C 0.92552 0.99957 0.39568 0.0
H5204 H 0.89523 1.00593 0.3788 0.0
C5205 C 0.92395 1.01048 0.38949 0.0
H5206 H 0.9314 0.01689 0.38941 0.0
H5207 H 0.93398 0.99776 0.40033 0.0
H5208 H 0.40663 0.2912 0.13261 0.0
C5209 C 0.3984 0.29656 0.13306 0.0
C5210 C 0.39907 0.30927 0.13178 0.0
C5211 C 0.38704 0.29076 0.13436 0.0
H5212 H 0.38882 0.32584 0.13026 0.0
C5213 C 0.38831 0.31611 0.13164 0.0
C5214 C 0.37691 0.31056 0.13252 0.0
C5215 C 0.37638 0.29794 0.13429 0.0
C5216 C 0.38596 0.27721 0.13449 0.0
H5217 H 0.36758 0.29363 0.13505 0.0
C5218 C 0.39388 0.26966 0.14129 0.0
C5219 C 0.39209 0.25692 0.14156 0.0
C5220 C 0.37667 0.27172 0.12764 0.0
H5221 H 0.3707 0.27711 0.12199 0.0
C5222 C 0.37498 0.25922 0.12782 0.0
H5223 H 0.40115 0.27366 0.14656 0.0
C5224 C 0.38254 0.25188 0.13476 0.0
H5225 H 0.38108 0.24216 0.13459 0.0
H5226 H 0.36778 0.25517 0.1225 0.0
H5227 H 0.48824 0.65662 0.88261 0.0
C5228 C 0.48288 0.64838 0.88306 0.0
C5229 C 0.47017 0.64905 0.88178 0.0
C5230 C 0.48868 0.63702 0.88437 0.0
H5231 H 0.4536 0.63881 0.88026 0.0
C5232 C 0.46333 0.6383 0.88164 0.0
C5233 C 0.46888 0.6269 0.88252 0.0
C5234 C 0.4815 0.62637 0.88429 0.0
C5235 C 0.50223 0.63595 0.8845 0.0
H5236 H 0.48581 0.61757 0.88505 0.0
C5237 C 0.50978 0.64387 0.89129 0.0
C5238 C 0.52252 0.64208 0.89156 0.0
C5239 C 0.50772 0.62666 0.87765 0.0
H5240 H 0.50233 0.62068 0.872 0.0
C5241 C 0.52023 0.62497 0.87783 0.0
H5242 H 0.50578 0.65114 0.89656 0.0
C5243 C 0.52756 0.63254 0.88477 0.0
H5244 H 0.53728 0.63107 0.88459 0.0
H5245 H 0.52427 0.61777 0.87251 0.0
H5246 H 0.12283 0.73824 0.63262 0.0
C5247 C 0.13107 0.73288 0.63307 0.0
C5248 C 0.1304 0.72017 0.63178 0.0
C5249 C 0.14243 0.73867 0.63437 0.0
H5250 H 0.14064 0.7036 0.63027 0.0
C5251 C 0.14115 0.71333 0.63165 0.0
C5252 C 0.15255 0.71888 0.63252 0.0
C5253 C 0.15308 0.73149 0.6343 0.0
C5254 C 0.1435 0.75223 0.6345 0.0
H5255 H 0.16188 0.7358 0.63505 0.0
C5256 C 0.13558 0.75978 0.64129 0.0
C5257 C 0.13737 0.77252 0.64156 0.0
C5258 C 0.15279 0.75772 0.62764 0.0
H5259 H 0.15877 0.75233 0.622 0.0
C5260 C 0.15448 0.77022 0.62783 0.0
H5261 H 0.12831 0.75578 0.64656 0.0
C5262 C 0.14692 0.77756 0.63476 0.0
H5263 H 0.14839 0.78728 0.63459 0.0
H5264 H 0.16168 0.77426 0.6225 0.0
H5265 H 0.04121 0.37284 0.3826 0.0
C5266 C 0.04657 0.38107 0.38306 0.0
C5267 C 0.05928 0.3804 0.38177 0.0
C5268 C 0.04077 0.39244 0.38436 0.0
H5269 H 0.07585 0.39065 0.38025 0.0
C5270 C 0.06612 0.39116 0.38163 0.0
C5271 C 0.06056 0.40256 0.38251 0.0
C5272 C 0.04795 0.40309 0.38428 0.0
C5273 C 0.02722 0.39351 0.38449 0.0
H5274 H 0.04364 0.41189 0.38504 0.0
C5275 C 0.01967 0.38559 0.39128 0.0
C5276 C 1.00693 0.38738 0.39155 0.0
C5277 C 0.02173 0.4028 0.37764 0.0
H5278 H 0.02711 0.40878 0.37199 0.0
C5279 C 1.00922 0.40449 0.37782 0.0
H5280 H 0.02367 0.37832 0.39655 0.0
C5281 C 1.00189 0.39692 0.38476 0.0
H5282 H 0.99217 0.39839 0.38458 0.0
H5283 H 1.00518 0.41169 0.3725 0.0
H5284 H 0.40661 0.73824 0.39684 0.0
C5285 C 0.39838 0.73289 0.39639 0.0
C5286 C 0.39905 0.72017 0.39768 0.0
C5287 C 0.38702 0.73868 0.39509 0.0
H5288 H 0.3888 0.7036 0.3992 0.0
C5289 C 0.3883 0.71333 0.39782 0.0
C5290 C 0.37689 0.71889 0.39694 0.0
C5291 C 0.37636 0.7315 0.39517 0.0
C5292 C 0.38595 0.75224 0.39496 0.0
H5293 H 0.36756 0.73581 0.39441 0.0
C5294 C 0.39386 0.75979 0.38817 0.0
C5295 C 0.39207 0.77253 0.3879 0.0
C5296 C 0.37665 0.75772 0.40181 0.0
H5297 H 0.37068 0.75234 0.40746 0.0
C5298 C 0.37496 0.77023 0.40163 0.0
H5299 H 0.40113 0.75578 0.3829 0.0
C5300 C 0.38253 0.77756 0.39469 0.0
H5301 H 0.38106 0.78729 0.39487 0.0
H5302 H 0.36776 0.77428 0.40695 0.0
H5303 H 0.04122 0.65662 0.14683 0.0
C5304 C 0.04657 0.64839 0.14638 0.0
C5305 C 0.05929 0.64906 0.14767 0.0
C5306 C 0.04078 0.63703 0.14508 0.0
H5307 H 0.07586 0.63881 0.14918 0.0
C5308 C 0.06613 0.6383 0.1478 0.0
C5309 C 0.06057 0.6269 0.14693 0.0
C5310 C 0.04796 0.62637 0.14515 0.0
C5311 C 0.02722 0.63595 0.14495 0.0
H5312 H 0.04365 0.61757 0.1444 0.0
C5313 C 0.01967 0.64387 0.13816 0.0
C5314 C 1.00693 0.64208 0.13789 0.0
C5315 C 0.02174 0.62666 0.15181 0.0
H5316 H 0.02712 0.62069 0.15745 0.0
C5317 C 1.00923 0.62497 0.15162 0.0
H5318 H 0.02367 0.65114 0.13289 0.0
C5319 C 1.00189 0.63253 0.14469 0.0
H5320 H 0.99217 0.63107 0.14486 0.0
H5321 H 1.00519 0.61777 0.15695 0.0
H5322 H 0.12283 0.29121 0.89683 0.0
C5323 C 0.13107 0.29657 0.89638 0.0
C5324 C 0.1304 0.30929 0.89767 0.0
C5325 C 0.14243 0.29077 0.89508 0.0
H5326 H 0.14065 0.32585 0.89919 0.0
C5327 C 0.14115 0.31612 0.89781 0.0
C5328 C 0.15255 0.31057 0.89693 0.0
C5329 C 0.15308 0.29795 0.89515 0.0
C5330 C 0.1435 0.27722 0.89495 0.0
H5331 H 0.16188 0.29364 0.89439 0.0
C5332 C 0.13558 0.26967 0.88816 0.0
C5333 C 0.13737 0.25693 0.88788 0.0
C5334 C 0.15279 0.27173 0.9018 0.0
H5335 H 0.15877 0.27712 0.90745 0.0
C5336 C 0.15449 0.25923 0.90162 0.0
H5337 H 0.12831 0.27367 0.88289 0.0
C5338 C 0.14692 0.25189 0.89468 0.0
H5339 H 0.14838 0.24217 0.89485 0.0
H5340 H 0.16168 0.25518 0.90694 0.0
H5341 H 0.48825 0.37282 0.64684 0.0
C5342 C 0.4829 0.38106 0.64638 0.0
C5343 C 0.47018 0.38039 0.64767 0.0
C5344 C 0.48869 0.39242 0.64508 0.0
H5345 H 0.45361 0.39063 0.64919 0.0
C5346 C 0.46334 0.39114 0.64781 0.0
C5347 C 0.4689 0.40254 0.64693 0.0
C5348 C 0.48151 0.40307 0.64516 0.0
C5349 C 0.50225 0.39349 0.64496 0.0
H5350 H 0.48582 0.41187 0.6444 0.0
C5351 C 0.50979 0.38557 0.63816 0.0
C5352 C 0.52254 0.38736 0.63789 0.0
C5353 C 0.50773 0.40278 0.65181 0.0
H5354 H 0.50234 0.40876 0.65745 0.0
C5355 C 0.52024 0.40447 0.65162 0.0
H5356 H 0.50579 0.3783 0.63289 0.0
C5357 C 0.52757 0.39691 0.64469 0.0
H5358 H 0.53729 0.39837 0.64486 0.0
H5359 H 0.52428 0.41167 0.65695 0.0
H5360 H 0.13262 0.40663 0.2912 0.0
C5361 C 0.13307 0.39839 0.29656 0.0
C5362 C 0.13178 0.39906 0.30927 0.0
C5363 C 0.13437 0.38703 0.29076 0.0
H5364 H 0.13026 0.38882 0.32584 0.0
C5365 C 0.13164 0.38831 0.31611 0.0
C5366 C 0.13252 0.37691 0.31056 0.0
C5367 C 0.1343 0.37638 0.29795 0.0
C5368 C 0.1345 0.38596 0.27721 0.0
H5369 H 0.13506 0.36758 0.29363 0.0
C5370 C 0.14129 0.39388 0.26966 0.0
C5371 C 0.14157 0.39209 0.25692 0.0
C5372 C 0.12765 0.37667 0.27172 0.0
H5373 H 0.122 0.37069 0.27711 0.0
C5374 C 0.12783 0.37498 0.25922 0.0
H5375 H 0.14657 0.40115 0.27366 0.0
C5376 C 0.13477 0.38254 0.25188 0.0
H5377 H 0.1346 0.38108 0.24216 0.0
H5378 H 0.12251 0.36778 0.25517 0.0
H5379 H 0.37284 0.3826 0.04121 0.0
C5380 C 0.38108 0.38306 0.04656 0.0
C5381 C 0.38041 0.38177 0.05928 0.0
C5382 C 0.39244 0.38435 0.04077 0.0
H5383 H 0.39065 0.38025 0.07585 0.0
C5384 C 0.39116 0.38163 0.06612 0.0
C5385 C 0.40256 0.38251 0.06056 0.0
C5386 C 0.40309 0.38428 0.04795 0.0
C5387 C 0.39351 0.38448 0.02721 0.0
H5388 H 0.41189 0.38504 0.04364 0.0
C5389 C 0.38559 0.39128 0.01966 0.0
C5390 C 0.38738 0.39155 1.00692 0.0
C5391 C 0.4028 0.37763 0.02172 0.0
H5392 H 0.40878 0.37199 0.02711 0.0
C5393 C 0.40449 0.37782 1.00922 0.0
H5394 H 0.37832 0.39655 0.02366 0.0
C5395 C 0.39693 0.38475 1.00188 0.0
H5396 H 0.39839 0.38458 0.99216 0.0
H5397 H 0.41169 0.3725 1.00517 0.0
H5398 H 0.39683 0.62283 0.79121 0.0
C5399 C 0.39638 0.63106 0.79657 0.0
C5400 C 0.39767 0.63039 0.80928 0.0
C5401 C 0.39508 0.64242 0.79077 0.0
H5402 H 0.39919 0.64064 0.82585 0.0
C5403 C 0.39781 0.64114 0.81612 0.0
C5404 C 0.39693 0.65255 0.81057 0.0
C5405 C 0.39515 0.65308 0.79795 0.0
C5406 C 0.39495 0.64349 0.77722 0.0
H5407 H 0.39439 0.66188 0.79364 0.0
C5408 C 0.38816 0.63557 0.76967 0.0
C5409 C 0.38788 0.63736 0.75693 0.0
C5410 C 0.4018 0.65279 0.77173 0.0
H5411 H 0.40745 0.65876 0.77712 0.0
C5412 C 0.40162 0.65448 0.75922 0.0
H5413 H 0.38289 0.6283 0.77367 0.0
C5414 C 0.39468 0.64691 0.75189 0.0
H5415 H 0.39485 0.64838 0.74217 0.0
H5416 H 0.40694 0.66168 0.75518 0.0
H5417 H 0.15662 0.64683 0.54121 0.0
C5418 C 0.14839 0.64638 0.54657 0.0
C5419 C 0.14906 0.64767 0.55928 0.0
C5420 C 0.13702 0.64508 0.54077 0.0
H5421 H 0.13881 0.64919 0.57585 0.0
C5422 C 0.1383 0.64781 0.56612 0.0
C5423 C 0.1269 0.64693 0.56057 0.0
C5424 C 0.12637 0.64515 0.54796 0.0
C5425 C 0.13595 0.64495 0.52722 0.0
H5426 H 0.11757 0.6444 0.54364 0.0
C5427 C 0.14387 0.63816 0.51967 0.0
C5428 C 0.14208 0.63789 0.50693 0.0
C5429 C 0.12666 0.65181 0.52173 0.0
H5430 H 0.12068 0.65745 0.52712 0.0
C5431 C 0.12497 0.65162 0.50923 0.0
H5432 H 0.15114 0.63289 0.52367 0.0
C5433 C 0.13253 0.64469 0.50189 0.0
H5434 H 0.13107 0.64486 0.49217 0.0
H5435 H 0.11777 0.65695 0.50518 0.0
H5436 H 0.13262 0.62283 0.23824 0.0
C5437 C 0.13307 0.63107 0.23288 0.0
C5438 C 0.13179 0.6304 0.22016 0.0
C5439 C 0.13437 0.64243 0.23867 0.0
H5440 H 0.13027 0.64064 0.20359 0.0
C5441 C 0.13165 0.64115 0.21332 0.0
C5442 C 0.13253 0.65255 0.21888 0.0
C5443 C 0.1343 0.65308 0.23149 0.0
C5444 C 0.1345 0.6435 0.25223 0.0
H5445 H 0.13506 0.66188 0.2358 0.0
C5446 C 0.14129 0.63558 0.25978 0.0
C5447 C 0.14156 0.63737 0.27252 0.0
C5448 C 0.12765 0.65279 0.25771 0.0
H5449 H 0.122 0.65877 0.25233 0.0
C5450 C 0.12783 0.65448 0.27022 0.0
H5451 H 0.14657 0.62831 0.25578 0.0
C5452 C 0.13476 0.64692 0.27756 0.0
H5453 H 0.13459 0.64838 0.28728 0.0
H5454 H 0.12251 0.66168 0.27426 0.0
H5455 H 0.15662 0.38262 0.98824 0.0
C5456 C 0.14839 0.38307 0.98288 0.0
C5457 C 0.14906 0.38178 0.97016 0.0
C5458 C 0.13703 0.38437 0.98868 0.0
H5459 H 0.13881 0.38026 0.9536 0.0
C5460 C 0.13831 0.38164 0.96333 0.0
C5461 C 0.12691 0.38252 0.96888 0.0
C5462 C 0.12638 0.3843 0.98149 0.0
C5463 C 0.13596 0.3845 1.00223 0.0
H5464 H 0.11757 0.38506 0.98581 0.0
C5465 C 0.14388 0.39129 1.00978 0.0
C5466 C 0.14209 0.39157 0.02252 0.0
C5467 C 0.12666 0.37765 1.00772 0.0
H5468 H 0.12069 0.372 1.00233 0.0
C5469 C 0.12497 0.37783 0.02022 0.0
H5470 H 0.15115 0.39656 1.00578 0.0
C5471 C 0.13254 0.38477 0.02756 0.0
H5472 H 0.13108 0.3846 0.03728 0.0
H5473 H 0.11777 0.37251 0.02427 0.0
H5474 H 0.39685 0.40661 0.73824 0.0
C5475 C 0.3964 0.39838 0.73289 0.0
C5476 C 0.39768 0.39905 0.72017 0.0
C5477 C 0.3951 0.38701 0.73868 0.0
H5478 H 0.3992 0.3888 0.7036 0.0
C5479 C 0.39782 0.38829 0.71333 0.0
C5480 C 0.39694 0.37689 0.71889 0.0
C5481 C 0.39517 0.37636 0.7315 0.0
C5482 C 0.39497 0.38594 0.75224 0.0
H5483 H 0.39441 0.36756 0.73581 0.0
C5484 C 0.38817 0.39386 0.75979 0.0
C5485 C 0.3879 0.39207 0.77253 0.0
C5486 C 0.40182 0.37665 0.75772 0.0
H5487 H 0.40747 0.37068 0.75234 0.0
C5488 C 0.40164 0.37496 0.77023 0.0
H5489 H 0.3829 0.40113 0.75578 0.0
C5490 C 0.3947 0.38252 0.77756 0.0
H5491 H 0.39487 0.38106 0.78729 0.0
H5492 H 0.40696 0.36776 0.77427 0.0
H5493 H 0.37283 0.64683 0.48825 0.0
C5494 C 0.38106 0.64638 0.48289 0.0
C5495 C 0.38039 0.64767 0.47017 0.0
C5496 C 0.39242 0.64508 0.48868 0.0
H5497 H 0.39064 0.64919 0.4536 0.0
C5498 C 0.39114 0.64781 0.46334 0.0
C5499 C 0.40254 0.64693 0.46889 0.0
C5500 C 0.40307 0.64515 0.4815 0.0
C5501 C 0.39349 0.64495 0.50224 0.0
H5502 H 0.41188 0.6444 0.48582 0.0
C5503 C 0.38557 0.63816 0.50979 0.0
C5504 C 0.38737 0.63788 0.52253 0.0
C5505 C 0.40279 0.6518 0.50773 0.0
H5506 H 0.40876 0.65745 0.50234 0.0
C5507 C 0.40448 0.65162 0.52023 0.0
H5508 H 0.37831 0.63289 0.50579 0.0
C5509 C 0.39691 0.64468 0.52757 0.0
H5510 H 0.39838 0.64485 0.53729 0.0
H5511 H 0.41167 0.65694 0.52428 0.0
H5512 H 0.2912 0.13261 0.40662 0.0
C5513 C 0.29656 0.13306 0.39839 0.0
C5514 C 0.30927 0.13178 0.39906 0.0
C5515 C 0.29076 0.13436 0.38703 0.0
H5516 H 0.32584 0.13026 0.38881 0.0
C5517 C 0.31611 0.13164 0.38831 0.0
C5518 C 0.31056 0.13252 0.37691 0.0
C5519 C 0.29795 0.13429 0.37637 0.0
C5520 C 0.27721 0.13449 0.38596 0.0
H5521 H 0.29363 0.13505 0.36757 0.0
C5522 C 0.26966 0.14129 0.39387 0.0
C5523 C 0.25692 0.14156 0.39208 0.0
C5524 C 0.27172 0.12764 0.37666 0.0
H5525 H 0.27711 0.12199 0.37069 0.0
C5526 C 0.25922 0.12782 0.37497 0.0
H5527 H 0.27366 0.14656 0.40114 0.0
C5528 C 0.25188 0.13476 0.38254 0.0
H5529 H 0.24216 0.13459 0.38107 0.0
H5530 H 0.25517 0.1225 0.36777 0.0
H5531 H 0.79122 0.39683 0.62283 0.0
C5532 C 0.79657 0.39638 0.63106 0.0
C5533 C 0.80929 0.39767 0.63039 0.0
C5534 C 0.79078 0.39508 0.64242 0.0
H5535 H 0.82586 0.39919 0.64064 0.0
C5536 C 0.81613 0.39781 0.64115 0.0
C5537 C 0.81057 0.39693 0.65255 0.0
C5538 C 0.79796 0.39515 0.65308 0.0
C5539 C 0.77722 0.39495 0.6435 0.0
H5540 H 0.79365 0.39439 0.66188 0.0
C5541 C 0.76968 0.38816 0.63558 0.0
C5542 C 0.75694 0.38788 0.63737 0.0
C5543 C 0.77174 0.4018 0.65279 0.0
H5544 H 0.77712 0.40745 0.65876 0.0
C5545 C 0.75923 0.40162 0.65448 0.0
H5546 H 0.77368 0.38289 0.62831 0.0
C5547 C 0.7519 0.39468 0.64691 0.0
H5548 H 0.74218 0.39485 0.64838 0.0
H5549 H 0.75518 0.40694 0.66168 0.0
H5550 H 0.38261 0.0412 0.37284 0.0
C5551 C 0.38306 0.04656 0.38107 0.0
C5552 C 0.38177 0.05928 0.3804 0.0
C5553 C 0.38436 0.04077 0.39243 0.0
H5554 H 0.38025 0.07585 0.39065 0.0
C5555 C 0.38163 0.06611 0.39115 0.0
C5556 C 0.38251 0.06056 0.40256 0.0
C5557 C 0.38428 0.04795 0.40309 0.0
C5558 C 0.38448 0.02721 0.39351 0.0
H5559 H 0.38504 0.04363 0.41189 0.0
C5560 C 0.39128 0.01966 0.38559 0.0
C5561 C 0.39155 1.00692 0.38738 0.0
C5562 C 0.37763 0.02172 0.4028 0.0
H5563 H 0.37199 0.02711 0.40877 0.0
C5564 C 0.37782 1.00922 0.40449 0.0
H5565 H 0.39655 0.02366 0.37832 0.0
C5566 C 0.38475 1.00188 0.39692 0.0
H5567 H 0.38458 0.99216 0.39839 0.0
H5568 H 0.3725 1.00517 0.41169 0.0
H5569 H 0.73824 0.63262 0.12283 0.0
C5570 C 0.73288 0.63307 0.13106 0.0
C5571 C 0.72016 0.63179 0.13039 0.0
C5572 C 0.73867 0.63437 0.14242 0.0
H5573 H 0.70359 0.63027 0.14064 0.0
C5574 C 0.71333 0.63165 0.14114 0.0
C5575 C 0.71888 0.63252 0.15255 0.0
C5576 C 0.73149 0.6343 0.15308 0.0
C5577 C 0.75223 0.6345 0.1435 0.0
H5578 H 0.7358 0.63506 0.16188 0.0
C5579 C 0.75978 0.64129 0.13558 0.0
C5580 C 0.77252 0.64157 0.13737 0.0
C5581 C 0.75772 0.62765 0.15279 0.0
H5582 H 0.75233 0.622 0.15876 0.0
C5583 C 0.77022 0.62783 0.15448 0.0
H5584 H 0.75578 0.64657 0.12831 0.0
C5585 C 0.77756 0.63477 0.14692 0.0
H5586 H 0.78728 0.63459 0.14838 0.0
H5587 H 0.77427 0.62251 0.16168 0.0
H5588 H 0.64684 0.48825 0.37283 0.0
C5589 C 0.64639 0.48289 0.38106 0.0
C5590 C 0.64768 0.47018 0.38039 0.0
C5591 C 0.64509 0.48869 0.39242 0.0
H5592 H 0.6492 0.45361 0.39064 0.0
C5593 C 0.64781 0.46334 0.39114 0.0
C5594 C 0.64694 0.46889 0.40254 0.0
C5595 C 0.64516 0.48151 0.40308 0.0
C5596 C 0.64496 0.50224 0.39349 0.0
H5597 H 0.6444 0.48582 0.41188 0.0
C5598 C 0.63816 0.50979 0.38558 0.0
C5599 C 0.63789 0.52253 0.38737 0.0
C5600 C 0.65181 0.50773 0.40279 0.0
H5601 H 0.65746 0.50234 0.40876 0.0
C5602 C 0.65163 0.52024 0.40448 0.0
H5603 H 0.63289 0.50579 0.37831 0.0
C5604 C 0.64469 0.52757 0.39691 0.0
H5605 H 0.64486 0.53729 0.39838 0.0
H5606 H 0.65695 0.52428 0.41168 0.0
H5607 H 0.23825 0.89685 0.90661 0.0
C5608 C 0.23289 0.8964 0.89838 0.0
C5609 C 0.22018 0.89768 0.89905 0.0
C5610 C 0.23869 0.8951 0.88702 0.0
H5611 H 0.20361 0.8992 0.8888 0.0
C5612 C 0.21334 0.89782 0.8883 0.0
C5613 C 0.21889 0.89694 0.87689 0.0
C5614 C 0.23151 0.89517 0.87636 0.0
C5615 C 0.25224 0.89497 0.88594 0.0
H5616 H 0.23582 0.89441 0.86756 0.0
C5617 C 0.25979 0.88817 0.89386 0.0
C5618 C 0.27253 0.8879 0.89207 0.0
C5619 C 0.25773 0.90182 0.87665 0.0
H5620 H 0.25234 0.90746 0.87068 0.0
C5621 C 0.27024 0.90163 0.87496 0.0
H5622 H 0.25579 0.8829 0.90113 0.0
C5623 C 0.27757 0.8947 0.88253 0.0
H5624 H 0.28729 0.89487 0.88106 0.0
H5625 H 0.27428 0.90695 0.86776 0.0
H5626 H 0.38262 0.98823 0.15662 0.0
C5627 C 0.38307 0.98288 0.14839 0.0
C5628 C 0.38179 0.97016 0.14906 0.0
C5629 C 0.38437 0.98867 0.13703 0.0
H5630 H 0.38027 0.95359 0.13881 0.0
C5631 C 0.38165 0.96333 0.1383 0.0
C5632 C 0.38253 0.96888 0.1269 0.0
C5633 C 0.3843 0.98149 0.12637 0.0
C5634 C 0.3845 1.00223 0.13595 0.0
H5635 H 0.38506 0.98581 0.11757 0.0
C5636 C 0.3913 1.00978 0.14387 0.0
C5637 C 0.39157 0.02252 0.14208 0.0
C5638 C 0.37765 1.00772 0.12666 0.0
H5639 H 0.37201 1.00233 0.12069 0.0
C5640 C 0.37784 0.02022 0.12497 0.0
H5641 H 0.39657 1.00578 0.15114 0.0
C5642 C 0.38477 0.02756 0.13254 0.0
H5643 H 0.3846 0.03728 0.13107 0.0
H5644 H 0.37252 0.02427 0.11777 0.0
H5645 H 0.14683 0.04121 0.65662 0.0
C5646 C 0.14638 0.04657 0.64839 0.0
C5647 C 0.14767 0.05929 0.64906 0.0
C5648 C 0.14508 0.04078 0.63702 0.0
H5649 H 0.14919 0.07586 0.63881 0.0
C5650 C 0.14781 0.06613 0.6383 0.0
C5651 C 0.14693 0.06057 0.6269 0.0
C5652 C 0.14515 0.04796 0.62637 0.0
C5653 C 0.14496 0.02722 0.63595 0.0
H5654 H 0.1444 0.04365 0.61757 0.0
C5655 C 0.13816 0.01967 0.64387 0.0
C5656 C 0.13789 1.00693 0.64208 0.0
C5657 C 0.15181 0.02174 0.62666 0.0
H5658 H 0.15745 0.02712 0.62069 0.0
C5659 C 0.15162 1.00923 0.62497 0.0
H5660 H 0.13289 0.02367 0.65114 0.0
C5661 C 0.14469 1.00189 0.63253 0.0
H5662 H 0.14486 0.99217 0.63107 0.0
H5663 H 0.15695 1.00519 0.61777 0.0
loop_
_geom_bond_atom_site_label_1
_geom_bond_atom_site_label_2
_geom_bond_distance
_geom_bond_site_symmetry_2
_ccdc_geom_bond_type
C0 C1 1.264 . S
C0 C5 1.479 . S
C0 C10 1.465 . S
C1 C0 1.264 . S
C1 C3 1.339 . S
C1 H28 0.931 . S
C2 C3 1.395 . S
C2 C4 1.320 . S
C3 C1 1.339 . S
C3 C2 1.395 . S
C3 H29 0.929 . S
C4 C2 1.320 . S
C4 C5 1.405 . S
C4 H30 0.930 . S
C5 C0 1.479 . S
C5 C4 1.405 . S
C5 H31 0.931 . S
U6 O7 2.454 . S
U6 O8 2.458 . S
U6 C9 2.984 . S
U6 C10 2.847 . S
U6 C23 2.882 . S
U6 O24 2.441 . S
U6 O25 2.420 . S
U6 O26 2.455 . S
U6 O27 2.449 . S
O7 U6 2.454 . S
O7 C9 1.353 . S
O8 U6 2.458 . S
O8 C9 1.286 . S
C9 U6 2.984 . S
C9 O7 1.353 . S
C9 O8 1.286 . S
C9 C11 1.363 . S
C10 C0 1.465 . S
C10 U6 2.847 . S
C10 O24 1.249 . S
C10 O25 1.202 . S
C11 C9 1.363 . S
C11 C13 1.408 . S
C11 C16 1.342 . S
C12 C13 1.310 . S
C12 C15 1.461 . S
C12 H32 0.932 . S
C13 C11 1.408 . S
C13 C12 1.310 . S
C13 H33 0.930 . S
C14 C15 1.474 . S
C14 C16 1.285 . S
C14 H34 0.929 . S
C15 C12 1.461 . S
C15 C14 1.474 . S
C16 C11 1.342 . S
C16 C14 1.285 . S
C16 H35 0.930 . S
C17 C20 1.424 . S
C17 C22 1.245 . S
C17 C23 1.428 . S
C18 C21 1.260 . S
C18 C22 1.477 . S
C18 H36 0.932 . S
C19 C20 1.384 . S
C19 C21 1.479 . S
C19 H37 0.929 . S
C20 C17 1.424 . S
C20 C19 1.384 . S
C20 H38 0.928 . S
C21 C18 1.260 . S
C21 C19 1.479 . S
C22 C17 1.245 . S
C22 C18 1.477 . S
C22 H39 0.932 . S
C23 U6 2.882 . S
C23 C17 1.428 . S
C23 O26 1.301 . S
C23 O27 1.282 . S
O24 U6 2.441 . S
O24 C10 1.249 . S
O25 U6 2.420 . S
O25 C10 1.202 . S
O26 U6 2.455 . S
O26 C23 1.301 . S
O27 U6 2.449 . S
O27 C23 1.282 . S
H28 C1 0.931 . S
H29 C3 0.929 . S
H30 C4 0.930 . S
H31 C5 0.931 . S
H32 C12 0.932 . S
H33 C13 0.930 . S
H34 C14 0.929 . S
H35 C16 0.930 . S
H36 C18 0.932 . S
H37 C19 0.929 . S
H38 C20 0.928 . S
H39 C22 0.932 . S
C40 C41 1.264 . S
C40 C45 1.479 . S
C40 C50 1.465 . S
C41 C40 1.264 . S
C41 C43 1.339 . S
C41 H68 0.931 . S
C42 C43 1.395 . S
C42 C44 1.320 . S
C43 C41 1.339 . S
C43 C42 1.395 . S
C43 H69 0.929 . S
C44 C42 1.320 . S
C44 C45 1.405 . S
C44 H70 0.930 . S
C45 C40 1.479 . S
C45 C44 1.405 . S
C45 H71 0.931 . S
U46 O47 2.454 . S
U46 O48 2.458 . S
U46 C49 2.984 . S
U46 C50 2.847 . S
U46 C63 2.882 . S
U46 O64 2.441 . S
U46 O65 2.420 . S
U46 O66 2.455 . S
U46 O67 2.449 . S
O47 U46 2.454 . S
O47 C49 1.353 . S
O48 U46 2.458 . S
O48 C49 1.286 . S
C49 U46 2.984 . S
C49 O47 1.353 . S
C49 O48 1.286 . S
C49 C51 1.363 . S
C50 C40 1.465 . S
C50 U46 2.847 . S
C50 O64 1.249 . S
C50 O65 1.202 . S
C51 C49 1.363 . S
C51 C53 1.408 . S
C51 C56 1.342 . S
C52 C53 1.310 . S
C52 C55 1.461 . S
C52 H72 0.932 . S
C53 C51 1.408 . S
C53 C52 1.310 . S
C53 H73 0.930 . S
C54 C55 1.474 . S
C54 C56 1.285 . S
C54 H74 0.929 . S
C55 C52 1.461 . S
C55 C54 1.474 . S
C56 C51 1.342 . S
C56 C54 1.285 . S
C56 H75 0.930 . S
C57 C60 1.424 . S
C57 C62 1.245 . S
C57 C63 1.428 . S
C58 C61 1.260 . S
C58 C62 1.477 . S
C58 H76 0.932 . S
C59 C60 1.384 . S
C59 C61 1.479 . S
C59 H77 0.929 . S
C60 C57 1.424 . S
C60 C59 1.384 . S
C60 H78 0.928 . S
C61 C58 1.260 . S
C61 C59 1.479 . S
C62 C57 1.245 . S
C62 C58 1.477 . S
C62 H79 0.932 . S
C63 U46 2.882 . S
C63 C57 1.428 . S
C63 O66 1.301 . S
C63 O67 1.282 . S
O64 U46 2.441 . S
O64 C50 1.249 . S
O65 U46 2.420 . S
O65 C50 1.202 . S
O66 U46 2.455 . S
O66 C63 1.301 . S
O67 U46 2.449 . S
O67 C63 1.282 . S
H68 C41 0.931 . S
H69 C43 0.929 . S
H70 C44 0.930 . S
H71 C45 0.931 . S
H72 C52 0.932 . S
H73 C53 0.930 . S
H74 C54 0.929 . S
H75 C56 0.930 . S
H76 C58 0.932 . S
H77 C59 0.929 . S
H78 C60 0.928 . S
H79 C62 0.932 . S
C80 C81 1.264 . S
C80 C85 1.479 . S
C80 C90 1.465 . S
C81 C80 1.264 . S
C81 C83 1.339 . S
C81 H108 0.931 . S
C82 C83 1.395 . S
C82 C84 1.320 . S
C83 C81 1.339 . S
C83 C82 1.395 . S
C83 H109 0.929 . S
C84 C82 1.320 . S
C84 C85 1.405 . S
C84 H110 0.930 . S
C85 C80 1.479 . S
C85 C84 1.405 . S
C85 H111 0.931 . S
U86 O87 2.454 . S
U86 O88 2.458 . S
U86 C89 2.984 . S
U86 C90 2.847 . S
U86 C103 2.882 . S
U86 O104 2.441 . S
U86 O105 2.420 . S
U86 O106 2.455 . S
U86 O107 2.449 . S
O87 U86 2.454 . S
O87 C89 1.353 . S
O88 U86 2.458 . S
O88 C89 1.286 . S
C89 U86 2.984 . S
C89 O87 1.353 . S
C89 O88 1.286 . S
C89 C91 1.363 . S
C90 C80 1.465 . S
C90 U86 2.847 . S
C90 O104 1.249 . S
C90 O105 1.202 . S
C91 C89 1.363 . S
C91 C93 1.408 . S
C91 C96 1.342 . S
C92 C93 1.310 . S
C92 C95 1.461 . S
C92 H112 0.932 . S
C93 C91 1.408 . S
C93 C92 1.310 . S
C93 H113 0.930 . S
C94 C95 1.474 . S
C94 C96 1.285 . S
C94 H114 0.929 . S
C95 C92 1.461 . S
C95 C94 1.474 . S
C96 C91 1.342 . S
C96 C94 1.285 . S
C96 H115 0.930 . S
C97 C100 1.424 . S
C97 C102 1.245 . S
C97 C103 1.428 . S
C98 C101 1.260 . S
C98 C102 1.477 . S
C98 H116 0.932 . S
C99 C100 1.384 . S
C99 C101 1.479 . S
C99 H117 0.929 . S
C100 C97 1.424 . S
C100 C99 1.384 . S
C100 H118 0.928 . S
C101 C98 1.260 . S
C101 C99 1.479 . S
C102 C97 1.245 . S
C102 C98 1.477 . S
C102 H119 0.932 . S
C103 U86 2.882 . S
C103 C97 1.428 . S
C103 O106 1.301 . S
C103 O107 1.282 . S
O104 U86 2.441 . S
O104 C90 1.249 . S
O105 U86 2.420 . S
O105 C90 1.202 . S
O106 U86 2.455 . S
O106 C103 1.301 . S
O107 U86 2.449 . S
O107 C103 1.282 . S
H108 C81 0.931 . S
H109 C83 0.929 . S
H110 C84 0.930 . S
H111 C85 0.931 . S
H112 C92 0.932 . S
H113 C93 0.930 . S
H114 C94 0.929 . S
H115 C96 0.930 . S
H116 C98 0.932 . S
H117 C99 0.929 . S
H118 C100 0.928 . S
H119 C102 0.932 . S
C120 C121 1.264 . S
C120 C125 1.479 . S
C120 C130 1.465 . S
C121 C120 1.264 . S
C121 C123 1.339 . S
C121 H148 0.931 . S
C122 C123 1.395 . S
C122 C124 1.320 . S
C123 C121 1.339 . S
C123 C122 1.395 . S
C123 H149 0.929 . S
C124 C122 1.320 . S
C124 C125 1.405 . S
C124 H150 0.930 . S
C125 C120 1.479 . S
C125 C124 1.405 . S
C125 H151 0.931 . S
U126 O127 2.454 . S
U126 O128 2.458 . S
U126 C129 2.984 . S
U126 C130 2.847 . S
U126 C143 2.882 . S
U126 O144 2.441 . S
U126 O145 2.420 . S
U126 O146 2.455 . S
U126 O147 2.449 . S
O127 U126 2.454 . S
O127 C129 1.353 . S
O128 U126 2.458 . S
O128 C129 1.286 . S
C129 U126 2.984 . S
C129 O127 1.353 . S
C129 O128 1.286 . S
C129 C131 1.363 . S
C130 C120 1.465 . S
C130 U126 2.847 . S
C130 O144 1.249 . S
C130 O145 1.202 . S
C131 C129 1.363 . S
C131 C133 1.408 . S
C131 C136 1.342 . S
C132 C133 1.310 . S
C132 C135 1.461 . S
C132 H152 0.932 . S
C133 C131 1.408 . S
C133 C132 1.310 . S
C133 H153 0.930 . S
C134 C135 1.474 . S
C134 C136 1.285 . S
C134 H154 0.929 . S
C135 C132 1.461 . S
C135 C134 1.474 . S
C136 C131 1.342 . S
C136 C134 1.285 . S
C136 H155 0.930 . S
C137 C140 1.424 . S
C137 C142 1.245 . S
C137 C143 1.428 . S
C138 C141 1.260 . S
C138 C142 1.477 . S
C138 H156 0.932 . S
C139 C140 1.384 . S
C139 C141 1.479 . S
C139 H157 0.929 . S
C140 C137 1.424 . S
C140 C139 1.384 . S
C140 H158 0.928 . S
C141 C138 1.260 . S
C141 C139 1.479 . S
C142 C137 1.245 . S
C142 C138 1.477 . S
C142 H159 0.932 . S
C143 U126 2.882 . S
C143 C137 1.428 . S
C143 O146 1.301 . S
C143 O147 1.282 . S
O144 U126 2.441 . S
O144 C130 1.249 . S
O145 U126 2.420 . S
O145 C130 1.202 . S
O146 U126 2.455 . S
O146 C143 1.301 . S
O147 U126 2.449 . S
O147 C143 1.282 . S
H148 C121 0.931 . S
H149 C123 0.929 . S
H150 C124 0.930 . S
H151 C125 0.931 . S
H152 C132 0.932 . S
H153 C133 0.930 . S
H154 C134 0.929 . S
H155 C136 0.930 . S
H156 C138 0.932 . S
H157 C139 0.929 . S
H158 C140 0.928 . S
H159 C142 0.932 . S
C160 C161 1.264 . S
C160 C165 1.479 . S
C160 C170 1.465 . S
C161 C160 1.264 . S
C161 C163 1.339 . S
C161 H188 0.931 . S
C162 C163 1.395 . S
C162 C164 1.320 . S
C163 C161 1.339 . S
C163 C162 1.395 . S
C163 H189 0.929 . S
C164 C162 1.320 . S
C164 C165 1.405 . S
C164 H190 0.930 . S
C165 C160 1.479 . S
C165 C164 1.405 . S
C165 H191 0.931 . S
U166 O167 2.454 . S
U166 O168 2.458 . S
U166 C169 2.984 . S
U166 C170 2.847 . S
U166 C183 2.882 . S
U166 O184 2.441 . S
U166 O185 2.420 . S
U166 O186 2.455 . S
U166 O187 2.449 . S
O167 U166 2.454 . S
O167 C169 1.353 . S
O168 U166 2.458 . S
O168 C169 1.286 . S
C169 U166 2.984 . S
C169 O167 1.353 . S
C169 O168 1.286 . S
C169 C171 1.363 . S
C170 C160 1.465 . S
C170 U166 2.847 . S
C170 O184 1.249 . S
C170 O185 1.202 . S
C171 C169 1.363 . S
C171 C173 1.408 . S
C171 C176 1.342 . S
C172 C173 1.310 . S
C172 C175 1.461 . S
C172 H192 0.932 . S
C173 C171 1.408 . S
C173 C172 1.310 . S
C173 H193 0.930 . S
C174 C175 1.474 . S
C174 C176 1.285 . S
C174 H194 0.929 . S
C175 C172 1.461 . S
C175 C174 1.474 . S
C176 C171 1.342 . S
C176 C174 1.285 . S
C176 H195 0.930 . S
C177 C180 1.424 . S
C177 C182 1.245 . S
C177 C183 1.428 . S
C178 C181 1.260 . S
C178 C182 1.477 . S
C178 H196 0.932 . S
C179 C180 1.384 . S
C179 C181 1.479 . S
C179 H197 0.929 . S
C180 C177 1.424 . S
C180 C179 1.384 . S
C180 H198 0.928 . S
C181 C178 1.260 . S
C181 C179 1.479 . S
C182 C177 1.245 . S
C182 C178 1.477 . S
C182 H199 0.932 . S
C183 U166 2.882 . S
C183 C177 1.428 . S
C183 O186 1.301 . S
C183 O187 1.282 . S
O184 U166 2.441 . S
O184 C170 1.249 . S
O185 U166 2.420 . S
O185 C170 1.202 . S
O186 U166 2.455 . S
O186 C183 1.301 . S
O187 U166 2.449 . S
O187 C183 1.282 . S
H188 C161 0.931 . S
H189 C163 0.929 . S
H190 C164 0.930 . S
H191 C165 0.931 . S
H192 C172 0.932 . S
H193 C173 0.930 . S
H194 C174 0.929 . S
H195 C176 0.930 . S
H196 C178 0.932 . S
H197 C179 0.929 . S
H198 C180 0.928 . S
H199 C182 0.932 . S
C200 C201 1.264 . S
C200 C205 1.479 . S
C200 C210 1.465 . S
C201 C200 1.264 . S
C201 C203 1.339 . S
C201 H228 0.931 . S
C202 C203 1.395 . S
C202 C204 1.320 . S
C203 C201 1.339 . S
C203 C202 1.395 . S
C203 H229 0.929 . S
C204 C202 1.320 . S
C204 C205 1.405 . S
C204 H230 0.930 . S
C205 C200 1.479 . S
C205 C204 1.405 . S
C205 H231 0.931 . S
U206 O207 2.454 . S
U206 O208 2.458 . S
U206 C209 2.984 . S
U206 C210 2.847 . S
U206 C223 2.882 . S
U206 O224 2.441 . S
U206 O225 2.420 . S
U206 O226 2.455 . S
U206 O227 2.449 . S
O207 U206 2.454 . S
O207 C209 1.353 . S
O208 U206 2.458 . S
O208 C209 1.286 . S
C209 U206 2.984 . S
C209 O207 1.353 . S
C209 O208 1.286 . S
C209 C211 1.363 . S
C210 C200 1.465 . S
C210 U206 2.847 . S
C210 O224 1.249 . S
C210 O225 1.202 . S
C211 C209 1.363 . S
C211 C213 1.408 . S
C211 C216 1.342 . S
C212 C213 1.310 . S
C212 C215 1.461 . S
C212 H232 0.932 . S
C213 C211 1.408 . S
C213 C212 1.310 . S
C213 H233 0.930 . S
C214 C215 1.474 . S
C214 C216 1.285 . S
C214 H234 0.929 . S
C215 C212 1.461 . S
C215 C214 1.474 . S
C216 C211 1.342 . S
C216 C214 1.285 . S
C216 H235 0.930 . S
C217 C220 1.424 . S
C217 C222 1.245 . S
C217 C223 1.428 . S
C218 C221 1.260 . S
C218 C222 1.477 . S
C218 H236 0.932 . S
C219 C220 1.384 . S
C219 C221 1.479 . S
C219 H237 0.929 . S
C220 C217 1.424 . S
C220 C219 1.384 . S
C220 H238 0.928 . S
C221 C218 1.260 . S
C221 C219 1.479 . S
C222 C217 1.245 . S
C222 C218 1.477 . S
C222 H239 0.932 . S
C223 U206 2.882 . S
C223 C217 1.428 . S
C223 O226 1.301 . S
C223 O227 1.282 . S
O224 U206 2.441 . S
O224 C210 1.249 . S
O225 U206 2.420 . S
O225 C210 1.202 . S
O226 U206 2.455 . S
O226 C223 1.301 . S
O227 U206 2.449 . S
O227 C223 1.282 . S
H228 C201 0.931 . S
H229 C203 0.929 . S
H230 C204 0.930 . S
H231 C205 0.931 . S
H232 C212 0.932 . S
H233 C213 0.930 . S
H234 C214 0.929 . S
H235 C216 0.930 . S
H236 C218 0.932 . S
H237 C219 0.929 . S
H238 C220 0.928 . S
H239 C222 0.932 . S
C240 C241 1.264 . S
C240 C245 1.479 . S
C240 C250 1.465 . S
C241 C240 1.264 . S
C241 C243 1.339 . S
C241 H268 0.931 . S
C242 C243 1.395 . S
C242 C244 1.320 . S
C243 C241 1.339 . S
C243 C242 1.395 . S
C243 H269 0.929 . S
C244 C242 1.320 . S
C244 C245 1.405 . S
C244 H270 0.930 . S
C245 C240 1.479 . S
C245 C244 1.405 . S
C245 H271 0.931 . S
U246 O247 2.454 . S
U246 O248 2.458 . S
U246 C249 2.984 . S
U246 C250 2.847 . S
U246 C263 2.882 . S
U246 O264 2.441 . S
U246 O265 2.420 . S
U246 O266 2.455 . S
U246 O267 2.449 . S
O247 U246 2.454 . S
O247 C249 1.353 . S
O248 U246 2.458 . S
O248 C249 1.286 . S
C249 U246 2.984 . S
C249 O247 1.353 . S
C249 O248 1.286 . S
C249 C251 1.363 . S
C250 C240 1.465 . S
C250 U246 2.847 . S
C250 O264 1.249 . S
C250 O265 1.202 . S
C251 C249 1.363 . S
C251 C253 1.408 . S
C251 C256 1.342 . S
C252 C253 1.310 . S
C252 C255 1.461 . S
C252 H272 0.932 . S
C253 C251 1.408 . S
C253 C252 1.310 . S
C253 H273 0.930 . S
C254 C255 1.474 . S
C254 C256 1.285 . S
C254 H274 0.929 . S
C255 C252 1.461 . S
C255 C254 1.474 . S
C256 C251 1.342 . S
C256 C254 1.285 . S
C256 H275 0.930 . S
C257 C260 1.424 . S
C257 C262 1.245 . S
C257 C263 1.428 . S
C258 C261 1.260 . S
C258 C262 1.477 . S
C258 H276 0.932 . S
C259 C260 1.384 . S
C259 C261 1.479 . S
C259 H277 0.929 . S
C260 C257 1.424 . S
C260 C259 1.384 . S
C260 H278 0.928 . S
C261 C258 1.260 . S
C261 C259 1.479 . S
C262 C257 1.245 . S
C262 C258 1.477 . S
C262 H279 0.932 . S
C263 U246 2.882 . S
C263 C257 1.428 . S
C263 O266 1.301 . S
C263 O267 1.282 . S
O264 U246 2.441 . S
O264 C250 1.249 . S
O265 U246 2.420 . S
O265 C250 1.202 . S
O266 U246 2.455 . S
O266 C263 1.301 . S
O267 U246 2.449 . S
O267 C263 1.282 . S
H268 C241 0.931 . S
H269 C243 0.929 . S
H270 C244 0.930 . S
H271 C245 0.931 . S
H272 C252 0.932 . S
H273 C253 0.930 . S
H274 C254 0.929 . S
H275 C256 0.930 . S
H276 C258 0.932 . S
H277 C259 0.929 . S
H278 C260 0.928 . S
H279 C262 0.932 . S
C280 C281 1.264 . S
C280 C285 1.479 . S
C280 C290 1.465 . S
C281 C280 1.264 . S
C281 C283 1.339 . S
C281 H308 0.931 . S
C282 C283 1.395 . S
C282 C284 1.320 . S
C283 C281 1.339 . S
C283 C282 1.395 . S
C283 H309 0.929 . S
C284 C282 1.320 . S
C284 C285 1.405 . S
C284 H310 0.930 . S
C285 C280 1.479 . S
C285 C284 1.405 . S
C285 H311 0.931 . S
U286 O287 2.454 . S
U286 O288 2.458 . S
U286 C289 2.984 . S
U286 C290 2.847 . S
U286 C303 2.882 . S
U286 O304 2.441 . S
U286 O305 2.420 . S
U286 O306 2.455 . S
U286 O307 2.449 . S
O287 U286 2.454 . S
O287 C289 1.353 . S
O288 U286 2.458 . S
O288 C289 1.286 . S
C289 U286 2.984 . S
C289 O287 1.353 . S
C289 O288 1.286 . S
C289 C291 1.363 . S
C290 C280 1.465 . S
C290 U286 2.847 . S
C290 O304 1.249 . S
C290 O305 1.202 . S
C291 C289 1.363 . S
C291 C293 1.408 . S
C291 C296 1.342 . S
C292 C293 1.310 . S
C292 C295 1.461 . S
C292 H312 0.932 . S
C293 C291 1.408 . S
C293 C292 1.310 . S
C293 H313 0.930 . S
C294 C295 1.474 . S
C294 C296 1.285 . S
C294 H314 0.929 . S
C295 C292 1.461 . S
C295 C294 1.474 . S
C296 C291 1.342 . S
C296 C294 1.285 . S
C296 H315 0.930 . S
C297 C300 1.424 . S
C297 C302 1.245 . S
C297 C303 1.428 . S
C298 C301 1.260 . S
C298 C302 1.477 . S
C298 H316 0.932 . S
C299 C300 1.384 . S
C299 C301 1.479 . S
C299 H317 0.929 . S
C300 C297 1.424 . S
C300 C299 1.384 . S
C300 H318 0.928 . S
C301 C298 1.260 . S
C301 C299 1.479 . S
C302 C297 1.245 . S
C302 C298 1.477 . S
C302 H319 0.932 . S
C303 U286 2.882 . S
C303 C297 1.428 . S
C303 O306 1.301 . S
C303 O307 1.282 . S
O304 U286 2.441 . S
O304 C290 1.249 . S
O305 U286 2.420 . S
O305 C290 1.202 . S
O306 U286 2.455 . S
O306 C303 1.301 . S
O307 U286 2.449 . S
O307 C303 1.282 . S
H308 C281 0.931 . S
H309 C283 0.929 . S
H310 C284 0.930 . S
H311 C285 0.931 . S
H312 C292 0.932 . S
H313 C293 0.930 . S
H314 C294 0.929 . S
H315 C296 0.930 . S
H316 C298 0.932 . S
H317 C299 0.929 . S
H318 C300 0.928 . S
H319 C302 0.932 . S
C320 C321 1.264 . S
C320 C325 1.479 . S
C320 C330 1.465 . S
C321 C320 1.264 . S
C321 C323 1.339 . S
C321 H348 0.931 . S
C322 C323 1.395 . S
C322 C324 1.320 . S
C323 C321 1.339 . S
C323 C322 1.395 . S
C323 H349 0.929 . S
C324 C322 1.320 . S
C324 C325 1.405 . S
C324 H350 0.930 . S
C325 C320 1.479 . S
C325 C324 1.405 . S
C325 H351 0.931 . S
U326 O327 2.454 . S
U326 O328 2.458 . S
U326 C329 2.984 . S
U326 C330 2.847 . S
U326 C343 2.882 . S
U326 O344 2.441 . S
U326 O345 2.420 . S
U326 O346 2.455 . S
U326 O347 2.449 . S
O327 U326 2.454 . S
O327 C329 1.353 . S
O328 U326 2.458 . S
O328 C329 1.286 . S
C329 U326 2.984 . S
C329 O327 1.353 . S
C329 O328 1.286 . S
C329 C331 1.363 . S
C330 C320 1.465 . S
C330 U326 2.847 . S
C330 O344 1.249 . S
C330 O345 1.202 . S
C331 C329 1.363 . S
C331 C333 1.408 . S
C331 C336 1.342 . S
C332 C333 1.310 . S
C332 C335 1.461 . S
C332 H352 0.932 . S
C333 C331 1.408 . S
C333 C332 1.310 . S
C333 H353 0.930 . S
C334 C335 1.474 . S
C334 C336 1.285 . S
C334 H354 0.929 . S
C335 C332 1.461 . S
C335 C334 1.474 . S
C336 C331 1.342 . S
C336 C334 1.285 . S
C336 H355 0.930 . S
C337 C340 1.424 . S
C337 C342 1.245 . S
C337 C343 1.428 . S
C338 C341 1.260 . S
C338 C342 1.477 . S
C338 H356 0.932 . S
C339 C340 1.384 . S
C339 C341 1.479 . S
C339 H357 0.929 . S
C340 C337 1.424 . S
C340 C339 1.384 . S
C340 H358 0.928 . S
C341 C338 1.260 . S
C341 C339 1.479 . S
C342 C337 1.245 . S
C342 C338 1.477 . S
C342 H359 0.932 . S
C343 U326 2.882 . S
C343 C337 1.428 . S
C343 O346 1.301 . S
C343 O347 1.282 . S
O344 U326 2.441 . S
O344 C330 1.249 . S
O345 U326 2.420 . S
O345 C330 1.202 . S
O346 U326 2.455 . S
O346 C343 1.301 . S
O347 U326 2.449 . S
O347 C343 1.282 . S
H348 C321 0.931 . S
H349 C323 0.929 . S
H350 C324 0.930 . S
H351 C325 0.931 . S
H352 C332 0.932 . S
H353 C333 0.930 . S
H354 C334 0.929 . S
H355 C336 0.930 . S
H356 C338 0.932 . S
H357 C339 0.929 . S
H358 C340 0.928 . S
H359 C342 0.932 . S
C360 C361 1.264 . S
C360 C365 1.479 . S
C360 C370 1.465 . S
C361 C360 1.264 . S
C361 C363 1.339 . S
C361 H388 0.931 . S
C362 C363 1.395 . S
C362 C364 1.320 . S
C363 C361 1.339 . S
C363 C362 1.395 . S
C363 H389 0.929 . S
C364 C362 1.320 . S
C364 C365 1.405 . S
C364 H390 0.930 . S
C365 C360 1.479 . S
C365 C364 1.405 . S
C365 H391 0.931 . S
U366 O367 2.454 . S
U366 O368 2.458 . S
U366 C369 2.984 . S
U366 C370 2.847 . S
U366 C383 2.882 . S
U366 O384 2.441 . S
U366 O385 2.420 . S
U366 O386 2.455 . S
U366 O387 2.449 . S
O367 U366 2.454 . S
O367 C369 1.353 . S
O368 U366 2.458 . S
O368 C369 1.286 . S
C369 U366 2.984 . S
C369 O367 1.353 . S
C369 O368 1.286 . S
C369 C371 1.363 . S
C370 C360 1.465 . S
C370 U366 2.847 . S
C370 O384 1.249 . S
C370 O385 1.202 . S
C371 C369 1.363 . S
C371 C373 1.408 . S
C371 C376 1.342 . S
C372 C373 1.310 . S
C372 C375 1.461 . S
C372 H392 0.932 . S
C373 C371 1.408 . S
C373 C372 1.310 . S
C373 H393 0.930 . S
C374 C375 1.474 . S
C374 C376 1.285 . S
C374 H394 0.929 . S
C375 C372 1.461 . S
C375 C374 1.474 . S
C376 C371 1.342 . S
C376 C374 1.285 . S
C376 H395 0.930 . S
C377 C380 1.424 . S
C377 C382 1.245 . S
C377 C383 1.428 . S
C378 C381 1.260 . S
C378 C382 1.477 . S
C378 H396 0.932 . S
C379 C380 1.384 . S
C379 C381 1.479 . S
C379 H397 0.929 . S
C380 C377 1.424 . S
C380 C379 1.384 . S
C380 H398 0.928 . S
C381 C378 1.260 . S
C381 C379 1.479 . S
C382 C377 1.245 . S
C382 C378 1.477 . S
C382 H399 0.932 . S
C383 U366 2.882 . S
C383 C377 1.428 . S
C383 O386 1.301 . S
C383 O387 1.282 . S
O384 U366 2.441 . S
O384 C370 1.249 . S
O385 U366 2.420 . S
O385 C370 1.202 . S
O386 U366 2.455 . S
O386 C383 1.301 . S
O387 U366 2.449 . S
O387 C383 1.282 . S
H388 C361 0.931 . S
H389 C363 0.929 . S
H390 C364 0.930 . S
H391 C365 0.931 . S
H392 C372 0.932 . S
H393 C373 0.930 . S
H394 C374 0.929 . S
H395 C376 0.930 . S
H396 C378 0.932 . S
H397 C379 0.929 . S
H398 C380 0.928 . S
H399 C382 0.932 . S
C400 C401 1.264 . S
C400 C405 1.479 . S
C400 C410 1.465 . S
C401 C400 1.264 . S
C401 C403 1.339 . S
C401 H428 0.931 . S
C402 C403 1.395 . S
C402 C404 1.320 . S
C403 C401 1.339 . S
C403 C402 1.395 . S
C403 H429 0.929 . S
C404 C402 1.320 . S
C404 C405 1.405 . S
C404 H430 0.930 . S
C405 C400 1.479 . S
C405 C404 1.405 . S
C405 H431 0.931 . S
U406 O407 2.454 . S
U406 O408 2.458 . S
U406 C409 2.984 . S
U406 C410 2.847 . S
U406 C423 2.882 . S
U406 O424 2.441 . S
U406 O425 2.420 . S
U406 O426 2.455 . S
U406 O427 2.449 . S
O407 U406 2.454 . S
O407 C409 1.353 . S
O408 U406 2.458 . S
O408 C409 1.286 . S
C409 U406 2.984 . S
C409 O407 1.353 . S
C409 O408 1.286 . S
C409 C411 1.363 . S
C410 C400 1.465 . S
C410 U406 2.847 . S
C410 O424 1.249 . S
C410 O425 1.202 . S
C411 C409 1.363 . S
C411 C413 1.408 . S
C411 C416 1.342 . S
C412 C413 1.310 . S
C412 C415 1.461 . S
C412 H432 0.932 . S
C413 C411 1.408 . S
C413 C412 1.310 . S
C413 H433 0.930 . S
C414 C415 1.474 . S
C414 C416 1.285 . S
C414 H434 0.929 . S
C415 C412 1.461 . S
C415 C414 1.474 . S
C416 C411 1.342 . S
C416 C414 1.285 . S
C416 H435 0.930 . S
C417 C420 1.424 . S
C417 C422 1.245 . S
C417 C423 1.428 . S
C418 C421 1.260 . S
C418 C422 1.477 . S
C418 H436 0.932 . S
C419 C420 1.384 . S
C419 C421 1.479 . S
C419 H437 0.929 . S
C420 C417 1.424 . S
C420 C419 1.384 . S
C420 H438 0.928 . S
C421 C418 1.260 . S
C421 C419 1.479 . S
C422 C417 1.245 . S
C422 C418 1.477 . S
C422 H439 0.932 . S
C423 U406 2.882 . S
C423 C417 1.428 . S
C423 O426 1.301 . S
C423 O427 1.282 . S
O424 U406 2.441 . S
O424 C410 1.249 . S
O425 U406 2.420 . S
O425 C410 1.202 . S
O426 U406 2.455 . S
O426 C423 1.301 . S
O427 U406 2.449 . S
O427 C423 1.282 . S
H428 C401 0.931 . S
H429 C403 0.929 . S
H430 C404 0.930 . S
H431 C405 0.931 . S
H432 C412 0.932 . S
H433 C413 0.930 . S
H434 C414 0.929 . S
H435 C416 0.930 . S
H436 C418 0.932 . S
H437 C419 0.929 . S
H438 C420 0.928 . S
H439 C422 0.932 . S
C440 C441 1.264 . S
C440 C445 1.479 . S
C440 C450 1.465 . S
C441 C440 1.264 . S
C441 C443 1.339 . S
C441 H468 0.931 . S
C442 C443 1.395 . S
C442 C444 1.320 . S
C443 C441 1.339 . S
C443 C442 1.395 . S
C443 H469 0.929 . S
C444 C442 1.320 . S
C444 C445 1.405 . S
C444 H470 0.930 . S
C445 C440 1.479 . S
C445 C444 1.405 . S
C445 H471 0.931 . S
U446 O447 2.454 . S
U446 O448 2.458 . S
U446 C449 2.984 . S
U446 C450 2.847 . S
U446 C463 2.882 . S
U446 O464 2.441 . S
U446 O465 2.420 . S
U446 O466 2.455 . S
U446 O467 2.449 . S
O447 U446 2.454 . S
O447 C449 1.353 . S
O448 U446 2.458 . S
O448 C449 1.286 . S
C449 U446 2.984 . S
C449 O447 1.353 . S
C449 O448 1.286 . S
C449 C451 1.363 . S
C450 C440 1.465 . S
C450 U446 2.847 . S
C450 O464 1.249 . S
C450 O465 1.202 . S
C451 C449 1.363 . S
C451 C453 1.408 . S
C451 C456 1.342 . S
C452 C453 1.310 . S
C452 C455 1.461 . S
C452 H472 0.932 . S
C453 C451 1.408 . S
C453 C452 1.310 . S
C453 H473 0.930 . S
C454 C455 1.474 . S
C454 C456 1.285 . S
C454 H474 0.929 . S
C455 C452 1.461 . S
C455 C454 1.474 . S
C456 C451 1.342 . S
C456 C454 1.285 . S
C456 H475 0.930 . S
C457 C460 1.424 . S
C457 C462 1.245 . S
C457 C463 1.428 . S
C458 C461 1.260 . S
C458 C462 1.477 . S
C458 H476 0.932 . S
C459 C460 1.384 . S
C459 C461 1.479 . S
C459 H477 0.929 . S
C460 C457 1.424 . S
C460 C459 1.384 . S
C460 H478 0.928 . S
C461 C458 1.260 . S
C461 C459 1.479 . S
C462 C457 1.245 . S
C462 C458 1.477 . S
C462 H479 0.932 . S
C463 U446 2.882 . S
C463 C457 1.428 . S
C463 O466 1.301 . S
C463 O467 1.282 . S
O464 U446 2.441 . S
O464 C450 1.249 . S
O465 U446 2.420 . S
O465 C450 1.202 . S
O466 U446 2.455 . S
O466 C463 1.301 . S
O467 U446 2.449 . S
O467 C463 1.282 . S
H468 C441 0.931 . S
H469 C443 0.929 . S
H470 C444 0.930 . S
H471 C445 0.931 . S
H472 C452 0.932 . S
H473 C453 0.930 . S
H474 C454 0.929 . S
H475 C456 0.930 . S
H476 C458 0.932 . S
H477 C459 0.929 . S
H478 C460 0.928 . S
H479 C462 0.932 . S
C480 C481 1.264 . S
C480 C485 1.479 . S
C480 C490 1.465 . S
C481 C480 1.264 . S
C481 C483 1.339 . S
C481 H508 0.931 . S
C482 C483 1.395 . S
C482 C484 1.320 . S
C483 C481 1.339 . S
C483 C482 1.395 . S
C483 H509 0.929 . S
C484 C482 1.320 . S
C484 C485 1.405 . S
C484 H510 0.930 . S
C485 C480 1.479 . S
C485 C484 1.405 . S
C485 H511 0.931 . S
U486 O487 2.454 . S
U486 O488 2.458 . S
U486 C489 2.984 . S
U486 C490 2.847 . S
U486 C503 2.882 . S
U486 O504 2.441 . S
U486 O505 2.420 . S
U486 O506 2.455 . S
U486 O507 2.449 . S
O487 U486 2.454 . S
O487 C489 1.353 . S
O488 U486 2.458 . S
O488 C489 1.286 . S
C489 U486 2.984 . S
C489 O487 1.353 . S
C489 O488 1.286 . S
C489 C491 1.363 . S
C490 C480 1.465 . S
C490 U486 2.847 . S
C490 O504 1.249 . S
C490 O505 1.202 . S
C491 C489 1.363 . S
C491 C493 1.408 . S
C491 C496 1.342 . S
C492 C493 1.310 . S
C492 C495 1.461 . S
C492 H512 0.932 . S
C493 C491 1.408 . S
C493 C492 1.310 . S
C493 H513 0.930 . S
C494 C495 1.474 . S
C494 C496 1.285 . S
C494 H514 0.929 . S
C495 C492 1.461 . S
C495 C494 1.474 . S
C496 C491 1.342 . S
C496 C494 1.285 . S
C496 H515 0.930 . S
C497 C500 1.424 . S
C497 C502 1.245 . S
C497 C503 1.428 . S
C498 C501 1.260 . S
C498 C502 1.477 . S
C498 H516 0.932 . S
C499 C500 1.384 . S
C499 C501 1.479 . S
C499 H517 0.929 . S
C500 C497 1.424 . S
C500 C499 1.384 . S
C500 H518 0.928 . S
C501 C498 1.260 . S
C501 C499 1.479 . S
C502 C497 1.245 . S
C502 C498 1.477 . S
C502 H519 0.932 . S
C503 U486 2.882 . S
C503 C497 1.428 . S
C503 O506 1.301 . S
C503 O507 1.282 . S
O504 U486 2.441 . S
O504 C490 1.249 . S
O505 U486 2.420 . S
O505 C490 1.202 . S
O506 U486 2.455 . S
O506 C503 1.301 . S
O507 U486 2.449 . S
O507 C503 1.282 . S
H508 C481 0.931 . S
H509 C483 0.929 . S
H510 C484 0.930 . S
H511 C485 0.931 . S
H512 C492 0.932 . S
H513 C493 0.930 . S
H514 C494 0.929 . S
H515 C496 0.930 . S
H516 C498 0.932 . S
H517 C499 0.929 . S
H518 C500 0.928 . S
H519 C502 0.932 . S
C520 C521 1.264 . S
C520 C525 1.479 . S
C520 C530 1.465 . S
C521 C520 1.264 . S
C521 C523 1.339 . S
C521 H548 0.931 . S
C522 C523 1.395 . S
C522 C524 1.320 . S
C523 C521 1.339 . S
C523 C522 1.395 . S
C523 H549 0.929 . S
C524 C522 1.320 . S
C524 C525 1.405 . S
C524 H550 0.930 . S
C525 C520 1.479 . S
C525 C524 1.405 . S
C525 H551 0.931 . S
U526 O527 2.454 . S
U526 O528 2.458 . S
U526 C529 2.984 . S
U526 C530 2.847 . S
U526 C543 2.882 . S
U526 O544 2.441 . S
U526 O545 2.420 . S
U526 O546 2.455 . S
U526 O547 2.449 . S
O527 U526 2.454 . S
O527 C529 1.353 . S
O528 U526 2.458 . S
O528 C529 1.286 . S
C529 U526 2.984 . S
C529 O527 1.353 . S
C529 O528 1.286 . S
C529 C531 1.363 . S
C530 C520 1.465 . S
C530 U526 2.847 . S
C530 O544 1.249 . S
C530 O545 1.202 . S
C531 C529 1.363 . S
C531 C533 1.408 . S
C531 C536 1.342 . S
C532 C533 1.310 . S
C532 C535 1.461 . S
C532 H552 0.932 . S
C533 C531 1.408 . S
C533 C532 1.310 . S
C533 H553 0.930 . S
C534 C535 1.474 . S
C534 C536 1.285 . S
C534 H554 0.929 . S
C535 C532 1.461 . S
C535 C534 1.474 . S
C536 C531 1.342 . S
C536 C534 1.285 . S
C536 H555 0.930 . S
C537 C540 1.424 . S
C537 C542 1.245 . S
C537 C543 1.428 . S
C538 C541 1.260 . S
C538 C542 1.477 . S
C538 H556 0.932 . S
C539 C540 1.384 . S
C539 C541 1.479 . S
C539 H557 0.929 . S
C540 C537 1.424 . S
C540 C539 1.384 . S
C540 H558 0.928 . S
C541 C538 1.260 . S
C541 C539 1.479 . S
C542 C537 1.245 . S
C542 C538 1.477 . S
C542 H559 0.932 . S
C543 U526 2.882 . S
C543 C537 1.428 . S
C543 O546 1.301 . S
C543 O547 1.282 . S
O544 U526 2.441 . S
O544 C530 1.249 . S
O545 U526 2.420 . S
O545 C530 1.202 . S
O546 U526 2.455 . S
O546 C543 1.301 . S
O547 U526 2.449 . S
O547 C543 1.282 . S
H548 C521 0.931 . S
H549 C523 0.929 . S
H550 C524 0.930 . S
H551 C525 0.931 . S
H552 C532 0.932 . S
H553 C533 0.930 . S
H554 C534 0.929 . S
H555 C536 0.930 . S
H556 C538 0.932 . S
H557 C539 0.929 . S
H558 C540 0.928 . S
H559 C542 0.932 . S
C560 C561 1.264 . S
C560 C565 1.479 . S
C560 C570 1.465 . S
C561 C560 1.264 . S
C561 C563 1.339 . S
C561 H588 0.931 . S
C562 C563 1.395 . S
C562 C564 1.320 . S
C563 C561 1.339 . S
C563 C562 1.395 . S
C563 H589 0.929 . S
C564 C562 1.320 . S
C564 C565 1.405 . S
C564 H590 0.930 . S
C565 C560 1.479 . S
C565 C564 1.405 . S
C565 H591 0.931 . S
U566 O567 2.454 . S
U566 O568 2.458 . S
U566 C569 2.984 . S
U566 C570 2.847 . S
U566 C583 2.882 . S
U566 O584 2.441 . S
U566 O585 2.420 . S
U566 O586 2.455 . S
U566 O587 2.449 . S
O567 U566 2.454 . S
O567 C569 1.353 . S
O568 U566 2.458 . S
O568 C569 1.286 . S
C569 U566 2.984 . S
C569 O567 1.353 . S
C569 O568 1.286 . S
C569 C571 1.363 . S
C570 C560 1.465 . S
C570 U566 2.847 . S
C570 O584 1.249 . S
C570 O585 1.202 . S
C571 C569 1.363 . S
C571 C573 1.408 . S
C571 C576 1.342 . S
C572 C573 1.310 . S
C572 C575 1.461 . S
C572 H592 0.932 . S
C573 C571 1.408 . S
C573 C572 1.310 . S
C573 H593 0.930 . S
C574 C575 1.474 . S
C574 C576 1.285 . S
C574 H594 0.929 . S
C575 C572 1.461 . S
C575 C574 1.474 . S
C576 C571 1.342 . S
C576 C574 1.285 . S
C576 H595 0.930 . S
C577 C580 1.424 . S
C577 C582 1.245 . S
C577 C583 1.428 . S
C578 C581 1.260 . S
C578 C582 1.477 . S
C578 H596 0.932 . S
C579 C580 1.384 . S
C579 C581 1.479 . S
C579 H597 0.929 . S
C580 C577 1.424 . S
C580 C579 1.384 . S
C580 H598 0.928 . S
C581 C578 1.260 . S
C581 C579 1.479 . S
C582 C577 1.245 . S
C582 C578 1.477 . S
C582 H599 0.932 . S
C583 U566 2.882 . S
C583 C577 1.428 . S
C583 O586 1.301 . S
C583 O587 1.282 . S
O584 U566 2.441 . S
O584 C570 1.249 . S
O585 U566 2.420 . S
O585 C570 1.202 . S
O586 U566 2.455 . S
O586 C583 1.301 . S
O587 U566 2.449 . S
O587 C583 1.282 . S
H588 C561 0.931 . S
H589 C563 0.929 . S
H590 C564 0.930 . S
H591 C565 0.931 . S
H592 C572 0.932 . S
H593 C573 0.930 . S
H594 C574 0.929 . S
H595 C576 0.930 . S
H596 C578 0.932 . S
H597 C579 0.929 . S
H598 C580 0.928 . S
H599 C582 0.932 . S
C600 C601 1.264 . S
C600 C605 1.479 . S
C600 C610 1.465 . S
C601 C600 1.264 . S
C601 C603 1.339 . S
C601 H628 0.931 . S
C602 C603 1.395 . S
C602 C604 1.320 . S
C603 C601 1.339 . S
C603 C602 1.395 . S
C603 H629 0.929 . S
C604 C602 1.320 . S
C604 C605 1.405 . S
C604 H630 0.930 . S
C605 C600 1.479 . S
C605 C604 1.405 . S
C605 H631 0.931 . S
U606 O607 2.454 . S
U606 O608 2.458 . S
U606 C609 2.984 . S
U606 C610 2.847 . S
U606 C623 2.882 . S
U606 O624 2.441 . S
U606 O625 2.420 . S
U606 O626 2.455 . S
U606 O627 2.449 . S
O607 U606 2.454 . S
O607 C609 1.353 . S
O608 U606 2.458 . S
O608 C609 1.286 . S
C609 U606 2.984 . S
C609 O607 1.353 . S
C609 O608 1.286 . S
C609 C611 1.363 . S
C610 C600 1.465 . S
C610 U606 2.847 . S
C610 O624 1.249 . S
C610 O625 1.202 . S
C611 C609 1.363 . S
C611 C613 1.408 . S
C611 C616 1.342 . S
C612 C613 1.310 . S
C612 C615 1.461 . S
C612 H632 0.932 . S
C613 C611 1.408 . S
C613 C612 1.310 . S
C613 H633 0.930 . S
C614 C615 1.474 . S
C614 C616 1.285 . S
C614 H634 0.929 . S
C615 C612 1.461 . S
C615 C614 1.474 . S
C616 C611 1.342 . S
C616 C614 1.285 . S
C616 H635 0.930 . S
C617 C620 1.424 . S
C617 C622 1.245 . S
C617 C623 1.428 . S
C618 C621 1.260 . S
C618 C622 1.477 . S
C618 H636 0.932 . S
C619 C620 1.384 . S
C619 C621 1.479 . S
C619 H637 0.929 . S
C620 C617 1.424 . S
C620 C619 1.384 . S
C620 H638 0.928 . S
C621 C618 1.260 . S
C621 C619 1.479 . S
C622 C617 1.245 . S
C622 C618 1.477 . S
C622 H639 0.932 . S
C623 U606 2.882 . S
C623 C617 1.428 . S
C623 O626 1.301 . S
C623 O627 1.282 . S
O624 U606 2.441 . S
O624 C610 1.249 . S
O625 U606 2.420 . S
O625 C610 1.202 . S
O626 U606 2.455 . S
O626 C623 1.301 . S
O627 U606 2.449 . S
O627 C623 1.282 . S
H628 C601 0.931 . S
H629 C603 0.929 . S
H630 C604 0.930 . S
H631 C605 0.931 . S
H632 C612 0.932 . S
H633 C613 0.930 . S
H634 C614 0.929 . S
H635 C616 0.930 . S
H636 C618 0.932 . S
H637 C619 0.929 . S
H638 C620 0.928 . S
H639 C622 0.932 . S
C640 C641 1.264 . S
C640 C645 1.479 . S
C640 C650 1.465 . S
C641 C640 1.264 . S
C641 C643 1.339 . S
C641 H668 0.931 . S
C642 C643 1.395 . S
C642 C644 1.320 . S
C643 C641 1.339 . S
C643 C642 1.395 . S
C643 H669 0.929 . S
C644 C642 1.320 . S
C644 C645 1.405 . S
C644 H670 0.930 . S
C645 C640 1.479 . S
C645 C644 1.405 . S
C645 H671 0.931 . S
U646 O647 2.454 . S
U646 O648 2.458 . S
U646 C649 2.984 . S
U646 C650 2.847 . S
U646 C663 2.882 . S
U646 O664 2.441 . S
U646 O665 2.420 . S
U646 O666 2.455 . S
U646 O667 2.449 . S
O647 U646 2.454 . S
O647 C649 1.353 . S
O648 U646 2.458 . S
O648 C649 1.286 . S
C649 U646 2.984 . S
C649 O647 1.353 . S
C649 O648 1.286 . S
C649 C651 1.363 . S
C650 C640 1.465 . S
C650 U646 2.847 . S
C650 O664 1.249 . S
C650 O665 1.202 . S
C651 C649 1.363 . S
C651 C653 1.408 . S
C651 C656 1.342 . S
C652 C653 1.310 . S
C652 C655 1.461 . S
C652 H672 0.932 . S
C653 C651 1.408 . S
C653 C652 1.310 . S
C653 H673 0.930 . S
C654 C655 1.474 . S
C654 C656 1.285 . S
C654 H674 0.929 . S
C655 C652 1.461 . S
C655 C654 1.474 . S
C656 C651 1.342 . S
C656 C654 1.285 . S
C656 H675 0.930 . S
C657 C660 1.424 . S
C657 C662 1.245 . S
C657 C663 1.428 . S
C658 C661 1.260 . S
C658 C662 1.477 . S
C658 H676 0.932 . S
C659 C660 1.384 . S
C659 C661 1.479 . S
C659 H677 0.929 . S
C660 C657 1.424 . S
C660 C659 1.384 . S
C660 H678 0.928 . S
C661 C658 1.260 . S
C661 C659 1.479 . S
C662 C657 1.245 . S
C662 C658 1.477 . S
C662 H679 0.932 . S
C663 U646 2.882 . S
C663 C657 1.428 . S
C663 O666 1.301 . S
C663 O667 1.282 . S
O664 U646 2.441 . S
O664 C650 1.249 . S
O665 U646 2.420 . S
O665 C650 1.202 . S
O666 U646 2.455 . S
O666 C663 1.301 . S
O667 U646 2.449 . S
O667 C663 1.282 . S
H668 C641 0.931 . S
H669 C643 0.929 . S
H670 C644 0.930 . S
H671 C645 0.931 . S
H672 C652 0.932 . S
H673 C653 0.930 . S
H674 C654 0.929 . S
H675 C656 0.930 . S
H676 C658 0.932 . S
H677 C659 0.929 . S
H678 C660 0.928 . S
H679 C662 0.932 . S
C680 C681 1.264 . S
C680 C685 1.479 . S
C680 C690 1.465 . S
C681 C680 1.264 . S
C681 C683 1.339 . S
C681 H708 0.931 . S
C682 C683 1.395 . S
C682 C684 1.320 . S
C683 C681 1.339 . S
C683 C682 1.395 . S
C683 H709 0.929 . S
C684 C682 1.320 . S
C684 C685 1.405 . S
C684 H710 0.930 . S
C685 C680 1.479 . S
C685 C684 1.405 . S
C685 H711 0.931 . S
U686 O687 2.454 . S
U686 O688 2.458 . S
U686 C689 2.984 . S
U686 C690 2.847 . S
U686 C703 2.882 . S
U686 O704 2.441 . S
U686 O705 2.420 . S
U686 O706 2.455 . S
U686 O707 2.449 . S
O687 U686 2.454 . S
O687 C689 1.353 . S
O688 U686 2.458 . S
O688 C689 1.286 . S
C689 U686 2.984 . S
C689 O687 1.353 . S
C689 O688 1.286 . S
C689 C691 1.363 . S
C690 C680 1.465 . S
C690 U686 2.847 . S
C690 O704 1.249 . S
C690 O705 1.202 . S
C691 C689 1.363 . S
C691 C693 1.408 . S
C691 C696 1.342 . S
C692 C693 1.310 . S
C692 C695 1.461 . S
C692 H712 0.932 . S
C693 C691 1.408 . S
C693 C692 1.310 . S
C693 H713 0.930 . S
C694 C695 1.474 . S
C694 C696 1.285 . S
C694 H714 0.929 . S
C695 C692 1.461 . S
C695 C694 1.474 . S
C696 C691 1.342 . S
C696 C694 1.285 . S
C696 H715 0.930 . S
C697 C700 1.424 . S
C697 C702 1.245 . S
C697 C703 1.428 . S
C698 C701 1.260 . S
C698 C702 1.477 . S
C698 H716 0.932 . S
C699 C700 1.384 . S
C699 C701 1.479 . S
C699 H717 0.929 . S
C700 C697 1.424 . S
C700 C699 1.384 . S
C700 H718 0.928 . S
C701 C698 1.260 . S
C701 C699 1.479 . S
C702 C697 1.245 . S
C702 C698 1.477 . S
C702 H719 0.932 . S
C703 U686 2.882 . S
C703 C697 1.428 . S
C703 O706 1.301 . S
C703 O707 1.282 . S
O704 U686 2.441 . S
O704 C690 1.249 . S
O705 U686 2.420 . S
O705 C690 1.202 . S
O706 U686 2.455 . S
O706 C703 1.301 . S
O707 U686 2.449 . S
O707 C703 1.282 . S
H708 C681 0.931 . S
H709 C683 0.929 . S
H710 C684 0.930 . S
H711 C685 0.931 . S
H712 C692 0.932 . S
H713 C693 0.930 . S
H714 C694 0.929 . S
H715 C696 0.930 . S
H716 C698 0.932 . S
H717 C699 0.929 . S
H718 C700 0.928 . S
H719 C702 0.932 . S
C720 C721 1.264 . S
C720 C725 1.479 . S
C720 C730 1.465 . S
C721 C720 1.264 . S
C721 C723 1.339 . S
C721 H748 0.931 . S
C722 C723 1.395 . S
C722 C724 1.320 . S
C723 C721 1.339 . S
C723 C722 1.395 . S
C723 H749 0.929 . S
C724 C722 1.320 . S
C724 C725 1.405 . S
C724 H750 0.930 . S
C725 C720 1.479 . S
C725 C724 1.405 . S
C725 H751 0.931 . S
U726 O727 2.454 . S
U726 O728 2.458 . S
U726 C729 2.984 . S
U726 C730 2.847 . S
U726 C743 2.882 . S
U726 O744 2.441 . S
U726 O745 2.420 . S
U726 O746 2.455 . S
U726 O747 2.449 . S
O727 U726 2.454 . S
O727 C729 1.353 . S
O728 U726 2.458 . S
O728 C729 1.286 . S
C729 U726 2.984 . S
C729 O727 1.353 . S
C729 O728 1.286 . S
C729 C731 1.363 . S
C730 C720 1.465 . S
C730 U726 2.847 . S
C730 O744 1.249 . S
C730 O745 1.202 . S
C731 C729 1.363 . S
C731 C733 1.408 . S
C731 C736 1.342 . S
C732 C733 1.310 . S
C732 C735 1.461 . S
C732 H752 0.932 . S
C733 C731 1.408 . S
C733 C732 1.310 . S
C733 H753 0.930 . S
C734 C735 1.474 . S
C734 C736 1.285 . S
C734 H754 0.929 . S
C735 C732 1.461 . S
C735 C734 1.474 . S
C736 C731 1.342 . S
C736 C734 1.285 . S
C736 H755 0.930 . S
C737 C740 1.424 . S
C737 C742 1.245 . S
C737 C743 1.428 . S
C738 C741 1.260 . S
C738 C742 1.477 . S
C738 H756 0.932 . S
C739 C740 1.384 . S
C739 C741 1.479 . S
C739 H757 0.929 . S
C740 C737 1.424 . S
C740 C739 1.384 . S
C740 H758 0.928 . S
C741 C738 1.260 . S
C741 C739 1.479 . S
C742 C737 1.245 . S
C742 C738 1.477 . S
C742 H759 0.932 . S
C743 U726 2.882 . S
C743 C737 1.428 . S
C743 O746 1.301 . S
C743 O747 1.282 . S
O744 U726 2.441 . S
O744 C730 1.249 . S
O745 U726 2.420 . S
O745 C730 1.202 . S
O746 U726 2.455 . S
O746 C743 1.301 . S
O747 U726 2.449 . S
O747 C743 1.282 . S
H748 C721 0.931 . S
H749 C723 0.929 . S
H750 C724 0.930 . S
H751 C725 0.931 . S
H752 C732 0.932 . S
H753 C733 0.930 . S
H754 C734 0.929 . S
H755 C736 0.930 . S
H756 C738 0.932 . S
H757 C739 0.929 . S
H758 C740 0.928 . S
H759 C742 0.932 . S
C760 C761 1.264 . S
C760 C765 1.479 . S
C760 C770 1.465 . S
C761 C760 1.264 . S
C761 C763 1.339 . S
C761 H788 0.931 . S
C762 C763 1.395 . S
C762 C764 1.320 . S
C763 C761 1.339 . S
C763 C762 1.395 . S
C763 H789 0.929 . S
C764 C762 1.320 . S
C764 C765 1.405 . S
C764 H790 0.930 . S
C765 C760 1.479 . S
C765 C764 1.405 . S
C765 H791 0.931 . S
U766 O767 2.454 . S
U766 O768 2.458 . S
U766 C769 2.984 . S
U766 C770 2.847 . S
U766 C783 2.882 . S
U766 O784 2.441 . S
U766 O785 2.420 . S
U766 O786 2.455 . S
U766 O787 2.449 . S
O767 U766 2.454 . S
O767 C769 1.353 . S
O768 U766 2.458 . S
O768 C769 1.286 . S
C769 U766 2.984 . S
C769 O767 1.353 . S
C769 O768 1.286 . S
C769 C771 1.363 . S
C770 C760 1.465 . S
C770 U766 2.847 . S
C770 O784 1.249 . S
C770 O785 1.202 . S
C771 C769 1.363 . S
C771 C773 1.408 . S
C771 C776 1.342 . S
C772 C773 1.310 . S
C772 C775 1.461 . S
C772 H792 0.932 . S
C773 C771 1.408 . S
C773 C772 1.310 . S
C773 H793 0.930 . S
C774 C775 1.474 . S
C774 C776 1.285 . S
C774 H794 0.929 . S
C775 C772 1.461 . S
C775 C774 1.474 . S
C776 C771 1.342 . S
C776 C774 1.285 . S
C776 H795 0.930 . S
C777 C780 1.424 . S
C777 C782 1.245 . S
C777 C783 1.428 . S
C778 C781 1.260 . S
C778 C782 1.477 . S
C778 H796 0.932 . S
C779 C780 1.384 . S
C779 C781 1.479 . S
C779 H797 0.929 . S
C780 C777 1.424 . S
C780 C779 1.384 . S
C780 H798 0.928 . S
C781 C778 1.260 . S
C781 C779 1.479 . S
C782 C777 1.245 . S
C782 C778 1.477 . S
C782 H799 0.932 . S
C783 U766 2.882 . S
C783 C777 1.428 . S
C783 O786 1.301 . S
C783 O787 1.282 . S
O784 U766 2.441 . S
O784 C770 1.249 . S
O785 U766 2.420 . S
O785 C770 1.202 . S
O786 U766 2.455 . S
O786 C783 1.301 . S
O787 U766 2.449 . S
O787 C783 1.282 . S
H788 C761 0.931 . S
H789 C763 0.929 . S
H790 C764 0.930 . S
H791 C765 0.931 . S
H792 C772 0.932 . S
H793 C773 0.930 . S
H794 C774 0.929 . S
H795 C776 0.930 . S
H796 C778 0.932 . S
H797 C779 0.929 . S
H798 C780 0.928 . S
H799 C782 0.932 . S
C800 C801 1.264 . S
C800 C805 1.479 . S
C800 C810 1.465 . S
C801 C800 1.264 . S
C801 C803 1.339 . S
C801 H828 0.931 . S
C802 C803 1.395 . S
C802 C804 1.320 . S
C803 C801 1.339 . S
C803 C802 1.395 . S
C803 H829 0.929 . S
C804 C802 1.320 . S
C804 C805 1.405 . S
C804 H830 0.930 . S
C805 C800 1.479 . S
C805 C804 1.405 . S
C805 H831 0.931 . S
U806 O807 2.454 . S
U806 O808 2.458 . S
U806 C809 2.984 . S
U806 C810 2.847 . S
U806 C823 2.882 . S
U806 O824 2.441 . S
U806 O825 2.420 . S
U806 O826 2.455 . S
U806 O827 2.449 . S
O807 U806 2.454 . S
O807 C809 1.353 . S
O808 U806 2.458 . S
O808 C809 1.286 . S
C809 U806 2.984 . S
C809 O807 1.353 . S
C809 O808 1.286 . S
C809 C811 1.363 . S
C810 C800 1.465 . S
C810 U806 2.847 . S
C810 O824 1.249 . S
C810 O825 1.202 . S
C811 C809 1.363 . S
C811 C813 1.408 . S
C811 C816 1.342 . S
C812 C813 1.310 . S
C812 C815 1.461 . S
C812 H832 0.932 . S
C813 C811 1.408 . S
C813 C812 1.310 . S
C813 H833 0.930 . S
C814 C815 1.474 . S
C814 C816 1.285 . S
C814 H834 0.929 . S
C815 C812 1.461 . S
C815 C814 1.474 . S
C816 C811 1.342 . S
C816 C814 1.285 . S
C816 H835 0.930 . S
C817 C820 1.424 . S
C817 C822 1.245 . S
C817 C823 1.428 . S
C818 C821 1.260 . S
C818 C822 1.477 . S
C818 H836 0.932 . S
C819 C820 1.384 . S
C819 C821 1.479 . S
C819 H837 0.929 . S
C820 C817 1.424 . S
C820 C819 1.384 . S
C820 H838 0.928 . S
C821 C818 1.260 . S
C821 C819 1.479 . S
C822 C817 1.245 . S
C822 C818 1.477 . S
C822 H839 0.932 . S
C823 U806 2.882 . S
C823 C817 1.428 . S
C823 O826 1.301 . S
C823 O827 1.282 . S
O824 U806 2.441 . S
O824 C810 1.249 . S
O825 U806 2.420 . S
O825 C810 1.202 . S
O826 U806 2.455 . S
O826 C823 1.301 . S
O827 U806 2.449 . S
O827 C823 1.282 . S
H828 C801 0.931 . S
H829 C803 0.929 . S
H830 C804 0.930 . S
H831 C805 0.931 . S
H832 C812 0.932 . S
H833 C813 0.930 . S
H834 C814 0.929 . S
H835 C816 0.930 . S
H836 C818 0.932 . S
H837 C819 0.929 . S
H838 C820 0.928 . S
H839 C822 0.932 . S
C840 C841 1.264 . S
C840 C845 1.479 . S
C840 C850 1.465 . S
C841 C840 1.264 . S
C841 C843 1.339 . S
C841 H868 0.931 . S
C842 C843 1.395 . S
C842 C844 1.320 . S
C843 C841 1.339 . S
C843 C842 1.395 . S
C843 H869 0.929 . S
C844 C842 1.320 . S
C844 C845 1.405 . S
C844 H870 0.930 . S
C845 C840 1.479 . S
C845 C844 1.405 . S
C845 H871 0.931 . S
U846 O847 2.454 . S
U846 O848 2.458 . S
U846 C849 2.984 . S
U846 C850 2.847 . S
U846 C863 2.882 . S
U846 O864 2.441 . S
U846 O865 2.420 . S
U846 O866 2.455 . S
U846 O867 2.449 . S
O847 U846 2.454 . S
O847 C849 1.353 . S
O848 U846 2.458 . S
O848 C849 1.286 . S
C849 U846 2.984 . S
C849 O847 1.353 . S
C849 O848 1.286 . S
C849 C851 1.363 . S
C850 C840 1.465 . S
C850 U846 2.847 . S
C850 O864 1.249 . S
C850 O865 1.202 . S
C851 C849 1.363 . S
C851 C853 1.408 . S
C851 C856 1.342 . S
C852 C853 1.310 . S
C852 C855 1.461 . S
C852 H872 0.932 . S
C853 C851 1.408 . S
C853 C852 1.310 . S
C853 H873 0.930 . S
C854 C855 1.474 . S
C854 C856 1.285 . S
C854 H874 0.929 . S
C855 C852 1.461 . S
C855 C854 1.474 . S
C856 C851 1.342 . S
C856 C854 1.285 . S
C856 H875 0.930 . S
C857 C860 1.424 . S
C857 C862 1.245 . S
C857 C863 1.428 . S
C858 C861 1.260 . S
C858 C862 1.477 . S
C858 H876 0.932 . S
C859 C860 1.384 . S
C859 C861 1.479 . S
C859 H877 0.929 . S
C860 C857 1.424 . S
C860 C859 1.384 . S
C860 H878 0.928 . S
C861 C858 1.260 . S
C861 C859 1.479 . S
C862 C857 1.245 . S
C862 C858 1.477 . S
C862 H879 0.932 . S
C863 U846 2.882 . S
C863 C857 1.428 . S
C863 O866 1.301 . S
C863 O867 1.282 . S
O864 U846 2.441 . S
O864 C850 1.249 . S
O865 U846 2.420 . S
O865 C850 1.202 . S
O866 U846 2.455 . S
O866 C863 1.301 . S
O867 U846 2.449 . S
O867 C863 1.282 . S
H868 C841 0.931 . S
H869 C843 0.929 . S
H870 C844 0.930 . S
H871 C845 0.931 . S
H872 C852 0.932 . S
H873 C853 0.930 . S
H874 C854 0.929 . S
H875 C856 0.930 . S
H876 C858 0.932 . S
H877 C859 0.929 . S
H878 C860 0.928 . S
H879 C862 0.932 . S
C880 C881 1.264 . S
C880 C885 1.479 . S
C880 C890 1.465 . S
C881 C880 1.264 . S
C881 C883 1.339 . S
C881 H908 0.931 . S
C882 C883 1.395 . S
C882 C884 1.320 . S
C883 C881 1.339 . S
C883 C882 1.395 . S
C883 H909 0.929 . S
C884 C882 1.320 . S
C884 C885 1.405 . S
C884 H910 0.930 . S
C885 C880 1.479 . S
C885 C884 1.405 . S
C885 H911 0.931 . S
U886 O887 2.454 . S
U886 O888 2.458 . S
U886 C889 2.984 . S
U886 C890 2.847 . S
U886 C903 2.882 . S
U886 O904 2.441 . S
U886 O905 2.420 . S
U886 O906 2.455 . S
U886 O907 2.449 . S
O887 U886 2.454 . S
O887 C889 1.353 . S
O888 U886 2.458 . S
O888 C889 1.286 . S
C889 U886 2.984 . S
C889 O887 1.353 . S
C889 O888 1.286 . S
C889 C891 1.363 . S
C890 C880 1.465 . S
C890 U886 2.847 . S
C890 O904 1.249 . S
C890 O905 1.202 . S
C891 C889 1.363 . S
C891 C893 1.408 . S
C891 C896 1.342 . S
C892 C893 1.310 . S
C892 C895 1.461 . S
C892 H912 0.932 . S
C893 C891 1.408 . S
C893 C892 1.310 . S
C893 H913 0.930 . S
C894 C895 1.474 . S
C894 C896 1.285 . S
C894 H914 0.929 . S
C895 C892 1.461 . S
C895 C894 1.474 . S
C896 C891 1.342 . S
C896 C894 1.285 . S
C896 H915 0.930 . S
C897 C900 1.424 . S
C897 C902 1.245 . S
C897 C903 1.428 . S
C898 C901 1.260 . S
C898 C902 1.477 . S
C898 H916 0.932 . S
C899 C900 1.384 . S
C899 C901 1.479 . S
C899 H917 0.929 . S
C900 C897 1.424 . S
C900 C899 1.384 . S
C900 H918 0.928 . S
C901 C898 1.260 . S
C901 C899 1.479 . S
C902 C897 1.245 . S
C902 C898 1.477 . S
C902 H919 0.932 . S
C903 U886 2.882 . S
C903 C897 1.428 . S
C903 O906 1.301 . S
C903 O907 1.282 . S
O904 U886 2.441 . S
O904 C890 1.249 . S
O905 U886 2.420 . S
O905 C890 1.202 . S
O906 U886 2.455 . S
O906 C903 1.301 . S
O907 U886 2.449 . S
O907 C903 1.282 . S
H908 C881 0.931 . S
H909 C883 0.929 . S
H910 C884 0.930 . S
H911 C885 0.931 . S
H912 C892 0.932 . S
H913 C893 0.930 . S
H914 C894 0.929 . S
H915 C896 0.930 . S
H916 C898 0.932 . S
H917 C899 0.929 . S
H918 C900 0.928 . S
H919 C902 0.932 . S
C920 C921 1.264 . S
C920 C925 1.479 . S
C920 C930 1.465 . S
C921 C920 1.264 . S
C921 C923 1.339 . S
C921 H948 0.931 . S
C922 C923 1.395 . S
C922 C924 1.320 . S
C923 C921 1.339 . S
C923 C922 1.395 . S
C923 H949 0.929 . S
C924 C922 1.320 . S
C924 C925 1.405 . S
C924 H950 0.930 . S
C925 C920 1.479 . S
C925 C924 1.405 . S
C925 H951 0.931 . S
U926 O927 2.454 . S
U926 O928 2.458 . S
U926 C929 2.984 . S
U926 C930 2.847 . S
U926 C943 2.882 . S
U926 O944 2.441 . S
U926 O945 2.420 . S
U926 O946 2.455 . S
U926 O947 2.449 . S
O927 U926 2.454 . S
O927 C929 1.353 . S
O928 U926 2.458 . S
O928 C929 1.286 . S
C929 U926 2.984 . S
C929 O927 1.353 . S
C929 O928 1.286 . S
C929 C931 1.363 . S
C930 C920 1.465 . S
C930 U926 2.847 . S
C930 O944 1.249 . S
C930 O945 1.202 . S
C931 C929 1.363 . S
C931 C933 1.408 . S
C931 C936 1.342 . S
C932 C933 1.310 . S
C932 C935 1.461 . S
C932 H952 0.932 . S
C933 C931 1.408 . S
C933 C932 1.310 . S
C933 H953 0.930 . S
C934 C935 1.474 . S
C934 C936 1.285 . S
C934 H954 0.929 . S
C935 C932 1.461 . S
C935 C934 1.474 . S
C936 C931 1.342 . S
C936 C934 1.285 . S
C936 H955 0.930 . S
C937 C940 1.424 . S
C937 C942 1.245 . S
C937 C943 1.428 . S
C938 C941 1.260 . S
C938 C942 1.477 . S
C938 H956 0.932 . S
C939 C940 1.384 . S
C939 C941 1.479 . S
C939 H957 0.929 . S
C940 C937 1.424 . S
C940 C939 1.384 . S
C940 H958 0.928 . S
C941 C938 1.260 . S
C941 C939 1.479 . S
C942 C937 1.245 . S
C942 C938 1.477 . S
C942 H959 0.932 . S
C943 U926 2.882 . S
C943 C937 1.428 . S
C943 O946 1.301 . S
C943 O947 1.282 . S
O944 U926 2.441 . S
O944 C930 1.249 . S
O945 U926 2.420 . S
O945 C930 1.202 . S
O946 U926 2.455 . S
O946 C943 1.301 . S
O947 U926 2.449 . S
O947 C943 1.282 . S
H948 C921 0.931 . S
H949 C923 0.929 . S
H950 C924 0.930 . S
H951 C925 0.931 . S
H952 C932 0.932 . S
H953 C933 0.930 . S
H954 C934 0.929 . S
H955 C936 0.930 . S
H956 C938 0.932 . S
H957 C939 0.929 . S
H958 C940 0.928 . S
H959 C942 0.932 . S
C960 C961 1.264 . S
C960 C965 1.479 . S
C960 C970 1.465 . S
C961 C960 1.264 . S
C961 C963 1.339 . S
C961 H988 0.931 . S
C962 C963 1.395 . S
C962 C964 1.320 . S
C963 C961 1.339 . S
C963 C962 1.395 . S
C963 H989 0.929 . S
C964 C962 1.320 . S
C964 C965 1.405 . S
C964 H990 0.930 . S
C965 C960 1.479 . S
C965 C964 1.405 . S
C965 H991 0.931 . S
U966 O967 2.454 . S
U966 O968 2.458 . S
U966 C969 2.984 . S
U966 C970 2.847 . S
U966 C983 2.882 . S
U966 O984 2.441 . S
U966 O985 2.420 . S
U966 O986 2.455 . S
U966 O987 2.449 . S
O967 U966 2.454 . S
O967 C969 1.353 . S
O968 U966 2.458 . S
O968 C969 1.286 . S
C969 U966 2.984 . S
C969 O967 1.353 . S
C969 O968 1.286 . S
C969 C971 1.363 . S
C970 C960 1.465 . S
C970 U966 2.847 . S
C970 O984 1.249 . S
C970 O985 1.202 . S
C971 C969 1.363 . S
C971 C973 1.408 . S
C971 C976 1.342 . S
C972 C973 1.310 . S
C972 C975 1.461 . S
C972 H992 0.932 . S
C973 C971 1.408 . S
C973 C972 1.310 . S
C973 H993 0.930 . S
C974 C975 1.474 . S
C974 C976 1.285 . S
C974 H994 0.929 . S
C975 C972 1.461 . S
C975 C974 1.474 . S
C976 C971 1.342 . S
C976 C974 1.285 . S
C976 H995 0.930 . S
C977 C980 1.424 . S
C977 C982 1.245 . S
C977 C983 1.428 . S
C978 C981 1.260 . S
C978 C982 1.477 . S
C978 H996 0.932 . S
C979 C980 1.384 . S
C979 C981 1.479 . S
C979 H997 0.929 . S
C980 C977 1.424 . S
C980 C979 1.384 . S
C980 H998 0.928 . S
C981 C978 1.260 . S
C981 C979 1.479 . S
C982 C977 1.245 . S
C982 C978 1.477 . S
C982 H999 0.932 . S
C983 U966 2.882 . S
C983 C977 1.428 . S
C983 O986 1.301 . S
C983 O987 1.282 . S
O984 U966 2.441 . S
O984 C970 1.249 . S
O985 U966 2.420 . S
O985 C970 1.202 . S
O986 U966 2.455 . S
O986 C983 1.301 . S
O987 U966 2.449 . S
O987 C983 1.282 . S
H988 C961 0.931 . S
H989 C963 0.929 . S
H990 C964 0.930 . S
H991 C965 0.931 . S
H992 C972 0.932 . S
H993 C973 0.930 . S
H994 C974 0.929 . S
H995 C976 0.930 . S
H996 C978 0.932 . S
H997 C979 0.929 . S
H998 C980 0.928 . S
H999 C982 0.932 . S
C1000 C1001 1.264 . S
C1000 C1005 1.479 . S
C1000 C1010 1.465 . S
C1001 C1000 1.264 . S
C1001 C1003 1.339 . S
C1001 H1028 0.931 . S
C1002 C1003 1.395 . S
C1002 C1004 1.320 . S
C1003 C1001 1.339 . S
C1003 C1002 1.395 . S
C1003 H1029 0.929 . S
C1004 C1002 1.320 . S
C1004 C1005 1.405 . S
C1004 H1030 0.930 . S
C1005 C1000 1.479 . S
C1005 C1004 1.405 . S
C1005 H1031 0.931 . S
U1006 O1007 2.454 . S
U1006 O1008 2.458 . S
U1006 C1009 2.984 . S
U1006 C1010 2.847 . S
U1006 C1023 2.882 . S
U1006 O1024 2.441 . S
U1006 O1025 2.420 . S
U1006 O1026 2.455 . S
U1006 O1027 2.449 . S
O1007 U1006 2.454 . S
O1007 C1009 1.353 . S
O1008 U1006 2.458 . S
O1008 C1009 1.286 . S
C1009 U1006 2.984 . S
C1009 O1007 1.353 . S
C1009 O1008 1.286 . S
C1009 C1011 1.363 . S
C1010 C1000 1.465 . S
C1010 U1006 2.847 . S
C1010 O1024 1.249 . S
C1010 O1025 1.202 . S
C1011 C1009 1.363 . S
C1011 C1013 1.408 . S
C1011 C1016 1.342 . S
C1012 C1013 1.310 . S
C1012 C1015 1.461 . S
C1012 H1032 0.932 . S
C1013 C1011 1.408 . S
C1013 C1012 1.310 . S
C1013 H1033 0.930 . S
C1014 C1015 1.474 . S
C1014 C1016 1.285 . S
C1014 H1034 0.929 . S
C1015 C1012 1.461 . S
C1015 C1014 1.474 . S
C1016 C1011 1.342 . S
C1016 C1014 1.285 . S
C1016 H1035 0.930 . S
C1017 C1020 1.424 . S
C1017 C1022 1.245 . S
C1017 C1023 1.428 . S
C1018 C1021 1.260 . S
C1018 C1022 1.477 . S
C1018 H1036 0.932 . S
C1019 C1020 1.384 . S
C1019 C1021 1.479 . S
C1019 H1037 0.929 . S
C1020 C1017 1.424 . S
C1020 C1019 1.384 . S
C1020 H1038 0.928 . S
C1021 C1018 1.260 . S
C1021 C1019 1.479 . S
C1022 C1017 1.245 . S
C1022 C1018 1.477 . S
C1022 H1039 0.932 . S
C1023 U1006 2.882 . S
C1023 C1017 1.428 . S
C1023 O1026 1.301 . S
C1023 O1027 1.282 . S
O1024 U1006 2.441 . S
O1024 C1010 1.249 . S
O1025 U1006 2.420 . S
O1025 C1010 1.202 . S
O1026 U1006 2.455 . S
O1026 C1023 1.301 . S
O1027 U1006 2.449 . S
O1027 C1023 1.282 . S
H1028 C1001 0.931 . S
H1029 C1003 0.929 . S
H1030 C1004 0.930 . S
H1031 C1005 0.931 . S
H1032 C1012 0.932 . S
H1033 C1013 0.930 . S
H1034 C1014 0.929 . S
H1035 C1016 0.930 . S
H1036 C1018 0.932 . S
H1037 C1019 0.929 . S
H1038 C1020 0.928 . S
H1039 C1022 0.932 . S
C1040 C1041 1.264 . S
C1040 C1045 1.479 . S
C1040 C1050 1.465 . S
C1041 C1040 1.264 . S
C1041 C1043 1.339 . S
C1041 H1068 0.931 . S
C1042 C1043 1.395 . S
C1042 C1044 1.320 . S
C1043 C1041 1.339 . S
C1043 C1042 1.395 . S
C1043 H1069 0.929 . S
C1044 C1042 1.320 . S
C1044 C1045 1.405 . S
C1044 H1070 0.930 . S
C1045 C1040 1.479 . S
C1045 C1044 1.405 . S
C1045 H1071 0.931 . S
U1046 O1047 2.454 . S
U1046 O1048 2.458 . S
U1046 C1049 2.984 . S
U1046 C1050 2.847 . S
U1046 C1063 2.882 . S
U1046 O1064 2.441 . S
U1046 O1065 2.420 . S
U1046 O1066 2.455 . S
U1046 O1067 2.449 . S
O1047 U1046 2.454 . S
O1047 C1049 1.353 . S
O1048 U1046 2.458 . S
O1048 C1049 1.286 . S
C1049 U1046 2.984 . S
C1049 O1047 1.353 . S
C1049 O1048 1.286 . S
C1049 C1051 1.363 . S
C1050 C1040 1.465 . S
C1050 U1046 2.847 . S
C1050 O1064 1.249 . S
C1050 O1065 1.202 . S
C1051 C1049 1.363 . S
C1051 C1053 1.408 . S
C1051 C1056 1.342 . S
C1052 C1053 1.310 . S
C1052 C1055 1.461 . S
C1052 H1072 0.932 . S
C1053 C1051 1.408 . S
C1053 C1052 1.310 . S
C1053 H1073 0.930 . S
C1054 C1055 1.474 . S
C1054 C1056 1.285 . S
C1054 H1074 0.929 . S
C1055 C1052 1.461 . S
C1055 C1054 1.474 . S
C1056 C1051 1.342 . S
C1056 C1054 1.285 . S
C1056 H1075 0.930 . S
C1057 C1060 1.424 . S
C1057 C1062 1.245 . S
C1057 C1063 1.428 . S
C1058 C1061 1.260 . S
C1058 C1062 1.477 . S
C1058 H1076 0.932 . S
C1059 C1060 1.384 . S
C1059 C1061 1.479 . S
C1059 H1077 0.929 . S
C1060 C1057 1.424 . S
C1060 C1059 1.384 . S
C1060 H1078 0.928 . S
C1061 C1058 1.260 . S
C1061 C1059 1.479 . S
C1062 C1057 1.245 . S
C1062 C1058 1.477 . S
C1062 H1079 0.932 . S
C1063 U1046 2.882 . S
C1063 C1057 1.428 . S
C1063 O1066 1.301 . S
C1063 O1067 1.282 . S
O1064 U1046 2.441 . S
O1064 C1050 1.249 . S
O1065 U1046 2.420 . S
O1065 C1050 1.202 . S
O1066 U1046 2.455 . S
O1066 C1063 1.301 . S
O1067 U1046 2.449 . S
O1067 C1063 1.282 . S
H1068 C1041 0.931 . S
H1069 C1043 0.929 . S
H1070 C1044 0.930 . S
H1071 C1045 0.931 . S
H1072 C1052 0.932 . S
H1073 C1053 0.930 . S
H1074 C1054 0.929 . S
H1075 C1056 0.930 . S
H1076 C1058 0.932 . S
H1077 C1059 0.929 . S
H1078 C1060 0.928 . S
H1079 C1062 0.932 . S
C1080 C1081 1.264 . S
C1080 C1085 1.479 . S
C1080 C1090 1.465 . S
C1081 C1080 1.264 . S
C1081 C1083 1.339 . S
C1081 H1108 0.931 . S
C1082 C1083 1.395 . S
C1082 C1084 1.320 . S
C1083 C1081 1.339 . S
C1083 C1082 1.395 . S
C1083 H1109 0.929 . S
C1084 C1082 1.320 . S
C1084 C1085 1.405 . S
C1084 H1110 0.930 . S
C1085 C1080 1.479 . S
C1085 C1084 1.405 . S
C1085 H1111 0.931 . S
U1086 O1087 2.454 . S
U1086 O1088 2.458 . S
U1086 C1089 2.984 . S
U1086 C1090 2.847 . S
U1086 C1103 2.882 . S
U1086 O1104 2.441 . S
U1086 O1105 2.420 . S
U1086 O1106 2.455 . S
U1086 O1107 2.449 . S
O1087 U1086 2.454 . S
O1087 C1089 1.353 . S
O1088 U1086 2.458 . S
O1088 C1089 1.286 . S
C1089 U1086 2.984 . S
C1089 O1087 1.353 . S
C1089 O1088 1.286 . S
C1089 C1091 1.363 . S
C1090 C1080 1.465 . S
C1090 U1086 2.847 . S
C1090 O1104 1.249 . S
C1090 O1105 1.202 . S
C1091 C1089 1.363 . S
C1091 C1093 1.408 . S
C1091 C1096 1.342 . S
C1092 C1093 1.310 . S
C1092 C1095 1.461 . S
C1092 H1112 0.932 . S
C1093 C1091 1.408 . S
C1093 C1092 1.310 . S
C1093 H1113 0.930 . S
C1094 C1095 1.474 . S
C1094 C1096 1.285 . S
C1094 H1114 0.929 . S
C1095 C1092 1.461 . S
C1095 C1094 1.474 . S
C1096 C1091 1.342 . S
C1096 C1094 1.285 . S
C1096 H1115 0.930 . S
C1097 C1100 1.424 . S
C1097 C1102 1.245 . S
C1097 C1103 1.428 . S
C1098 C1101 1.260 . S
C1098 C1102 1.477 . S
C1098 H1116 0.932 . S
C1099 C1100 1.384 . S
C1099 C1101 1.479 . S
C1099 H1117 0.929 . S
C1100 C1097 1.424 . S
C1100 C1099 1.384 . S
C1100 H1118 0.928 . S
C1101 C1098 1.260 . S
C1101 C1099 1.479 . S
C1102 C1097 1.245 . S
C1102 C1098 1.477 . S
C1102 H1119 0.932 . S
C1103 U1086 2.882 . S
C1103 C1097 1.428 . S
C1103 O1106 1.301 . S
C1103 O1107 1.282 . S
O1104 U1086 2.441 . S
O1104 C1090 1.249 . S
O1105 U1086 2.420 . S
O1105 C1090 1.202 . S
O1106 U1086 2.455 . S
O1106 C1103 1.301 . S
O1107 U1086 2.449 . S
O1107 C1103 1.282 . S
H1108 C1081 0.931 . S
H1109 C1083 0.929 . S
H1110 C1084 0.930 . S
H1111 C1085 0.931 . S
H1112 C1092 0.932 . S
H1113 C1093 0.930 . S
H1114 C1094 0.929 . S
H1115 C1096 0.930 . S
H1116 C1098 0.932 . S
H1117 C1099 0.929 . S
H1118 C1100 0.928 . S
H1119 C1102 0.932 . S
C1120 C1121 1.264 . S
C1120 C1125 1.479 . S
C1120 C1130 1.465 . S
C1121 C1120 1.264 . S
C1121 C1123 1.339 . S
C1121 H1148 0.931 . S
C1122 C1123 1.395 . S
C1122 C1124 1.320 . S
C1123 C1121 1.339 . S
C1123 C1122 1.395 . S
C1123 H1149 0.929 . S
C1124 C1122 1.320 . S
C1124 C1125 1.405 . S
C1124 H1150 0.930 . S
C1125 C1120 1.479 . S
C1125 C1124 1.405 . S
C1125 H1151 0.931 . S
U1126 O1127 2.454 . S
U1126 O1128 2.458 . S
U1126 C1129 2.984 . S
U1126 C1130 2.847 . S
U1126 C1143 2.882 . S
U1126 O1144 2.441 . S
U1126 O1145 2.420 . S
U1126 O1146 2.455 . S
U1126 O1147 2.449 . S
O1127 U1126 2.454 . S
O1127 C1129 1.353 . S
O1128 U1126 2.458 . S
O1128 C1129 1.286 . S
C1129 U1126 2.984 . S
C1129 O1127 1.353 . S
C1129 O1128 1.286 . S
C1129 C1131 1.363 . S
C1130 C1120 1.465 . S
C1130 U1126 2.847 . S
C1130 O1144 1.249 . S
C1130 O1145 1.202 . S
C1131 C1129 1.363 . S
C1131 C1133 1.408 . S
C1131 C1136 1.342 . S
C1132 C1133 1.310 . S
C1132 C1135 1.461 . S
C1132 H1152 0.932 . S
C1133 C1131 1.408 . S
C1133 C1132 1.310 . S
C1133 H1153 0.930 . S
C1134 C1135 1.474 . S
C1134 C1136 1.285 . S
C1134 H1154 0.929 . S
C1135 C1132 1.461 . S
C1135 C1134 1.474 . S
C1136 C1131 1.342 . S
C1136 C1134 1.285 . S
C1136 H1155 0.930 . S
C1137 C1140 1.424 . S
C1137 C1142 1.245 . S
C1137 C1143 1.428 . S
C1138 C1141 1.260 . S
C1138 C1142 1.477 . S
C1138 H1156 0.932 . S
C1139 C1140 1.384 . S
C1139 C1141 1.479 . S
C1139 H1157 0.929 . S
C1140 C1137 1.424 . S
C1140 C1139 1.384 . S
C1140 H1158 0.928 . S
C1141 C1138 1.260 . S
C1141 C1139 1.479 . S
C1142 C1137 1.245 . S
C1142 C1138 1.477 . S
C1142 H1159 0.932 . S
C1143 U1126 2.882 . S
C1143 C1137 1.428 . S
C1143 O1146 1.301 . S
C1143 O1147 1.282 . S
O1144 U1126 2.441 . S
O1144 C1130 1.249 . S
O1145 U1126 2.420 . S
O1145 C1130 1.202 . S
O1146 U1126 2.455 . S
O1146 C1143 1.301 . S
O1147 U1126 2.449 . S
O1147 C1143 1.282 . S
H1148 C1121 0.931 . S
H1149 C1123 0.929 . S
H1150 C1124 0.930 . S
H1151 C1125 0.931 . S
H1152 C1132 0.932 . S
H1153 C1133 0.930 . S
H1154 C1134 0.929 . S
H1155 C1136 0.930 . S
H1156 C1138 0.932 . S
H1157 C1139 0.929 . S
H1158 C1140 0.928 . S
H1159 C1142 0.932 . S
C1160 C1161 1.264 . S
C1160 C1165 1.479 . S
C1160 C1170 1.465 . S
C1161 C1160 1.264 . S
C1161 C1163 1.339 . S
C1161 H1188 0.931 . S
C1162 C1163 1.395 . S
C1162 C1164 1.320 . S
C1163 C1161 1.339 . S
C1163 C1162 1.395 . S
C1163 H1189 0.929 . S
C1164 C1162 1.320 . S
C1164 C1165 1.405 . S
C1164 H1190 0.930 . S
C1165 C1160 1.479 . S
C1165 C1164 1.405 . S
C1165 H1191 0.931 . S
U1166 O1167 2.454 . S
U1166 O1168 2.458 . S
U1166 C1169 2.984 . S
U1166 C1170 2.847 . S
U1166 C1183 2.882 . S
U1166 O1184 2.441 . S
U1166 O1185 2.420 . S
U1166 O1186 2.455 . S
U1166 O1187 2.449 . S
O1167 U1166 2.454 . S
O1167 C1169 1.353 . S
O1168 U1166 2.458 . S
O1168 C1169 1.286 . S
C1169 U1166 2.984 . S
C1169 O1167 1.353 . S
C1169 O1168 1.286 . S
C1169 C1171 1.363 . S
C1170 C1160 1.465 . S
C1170 U1166 2.847 . S
C1170 O1184 1.249 . S
C1170 O1185 1.202 . S
C1171 C1169 1.363 . S
C1171 C1173 1.408 . S
C1171 C1176 1.342 . S
C1172 C1173 1.310 . S
C1172 C1175 1.461 . S
C1172 H1192 0.932 . S
C1173 C1171 1.408 . S
C1173 C1172 1.310 . S
C1173 H1193 0.930 . S
C1174 C1175 1.474 . S
C1174 C1176 1.285 . S
C1174 H1194 0.929 . S
C1175 C1172 1.461 . S
C1175 C1174 1.474 . S
C1176 C1171 1.342 . S
C1176 C1174 1.285 . S
C1176 H1195 0.930 . S
C1177 C1180 1.424 . S
C1177 C1182 1.245 . S
C1177 C1183 1.428 . S
C1178 C1181 1.260 . S
C1178 C1182 1.477 . S
C1178 H1196 0.932 . S
C1179 C1180 1.384 . S
C1179 C1181 1.479 . S
C1179 H1197 0.929 . S
C1180 C1177 1.424 . S
C1180 C1179 1.384 . S
C1180 H1198 0.928 . S
C1181 C1178 1.260 . S
C1181 C1179 1.479 . S
C1182 C1177 1.245 . S
C1182 C1178 1.477 . S
C1182 H1199 0.932 . S
C1183 U1166 2.882 . S
C1183 C1177 1.428 . S
C1183 O1186 1.301 . S
C1183 O1187 1.282 . S
O1184 U1166 2.441 . S
O1184 C1170 1.249 . S
O1185 U1166 2.420 . S
O1185 C1170 1.202 . S
O1186 U1166 2.455 . S
O1186 C1183 1.301 . S
O1187 U1166 2.449 . S
O1187 C1183 1.282 . S
H1188 C1161 0.931 . S
H1189 C1163 0.929 . S
H1190 C1164 0.930 . S
H1191 C1165 0.931 . S
H1192 C1172 0.932 . S
H1193 C1173 0.930 . S
H1194 C1174 0.929 . S
H1195 C1176 0.930 . S
H1196 C1178 0.932 . S
H1197 C1179 0.929 . S
H1198 C1180 0.928 . S
H1199 C1182 0.932 . S
C1200 C1201 1.264 . S
C1200 C1205 1.479 . S
C1200 C1210 1.465 . S
C1201 C1200 1.264 . S
C1201 C1203 1.339 . S
C1201 H1228 0.931 . S
C1202 C1203 1.395 . S
C1202 C1204 1.320 . S
C1203 C1201 1.339 . S
C1203 C1202 1.395 . S
C1203 H1229 0.929 . S
C1204 C1202 1.320 . S
C1204 C1205 1.405 . S
C1204 H1230 0.930 . S
C1205 C1200 1.479 . S
C1205 C1204 1.405 . S
C1205 H1231 0.931 . S
U1206 O1207 2.454 . S
U1206 O1208 2.458 . S
U1206 C1209 2.984 . S
U1206 C1210 2.847 . S
U1206 C1223 2.882 . S
U1206 O1224 2.441 . S
U1206 O1225 2.420 . S
U1206 O1226 2.455 . S
U1206 O1227 2.449 . S
O1207 U1206 2.454 . S
O1207 C1209 1.353 . S
O1208 U1206 2.458 . S
O1208 C1209 1.286 . S
C1209 U1206 2.984 . S
C1209 O1207 1.353 . S
C1209 O1208 1.286 . S
C1209 C1211 1.363 . S
C1210 C1200 1.465 . S
C1210 U1206 2.847 . S
C1210 O1224 1.249 . S
C1210 O1225 1.202 . S
C1211 C1209 1.363 . S
C1211 C1213 1.408 . S
C1211 C1216 1.342 . S
C1212 C1213 1.310 . S
C1212 C1215 1.461 . S
C1212 H1232 0.932 . S
C1213 C1211 1.408 . S
C1213 C1212 1.310 . S
C1213 H1233 0.930 . S
C1214 C1215 1.474 . S
C1214 C1216 1.285 . S
C1214 H1234 0.929 . S
C1215 C1212 1.461 . S
C1215 C1214 1.474 . S
C1216 C1211 1.342 . S
C1216 C1214 1.285 . S
C1216 H1235 0.930 . S
C1217 C1220 1.424 . S
C1217 C1222 1.245 . S
C1217 C1223 1.428 . S
C1218 C1221 1.260 . S
C1218 C1222 1.477 . S
C1218 H1236 0.932 . S
C1219 C1220 1.384 . S
C1219 C1221 1.479 . S
C1219 H1237 0.929 . S
C1220 C1217 1.424 . S
C1220 C1219 1.384 . S
C1220 H1238 0.928 . S
C1221 C1218 1.260 . S
C1221 C1219 1.479 . S
C1222 C1217 1.245 . S
C1222 C1218 1.477 . S
C1222 H1239 0.932 . S
C1223 U1206 2.882 . S
C1223 C1217 1.428 . S
C1223 O1226 1.301 . S
C1223 O1227 1.282 . S
O1224 U1206 2.441 . S
O1224 C1210 1.249 . S
O1225 U1206 2.420 . S
O1225 C1210 1.202 . S
O1226 U1206 2.455 . S
O1226 C1223 1.301 . S
O1227 U1206 2.449 . S
O1227 C1223 1.282 . S
H1228 C1201 0.931 . S
H1229 C1203 0.929 . S
H1230 C1204 0.930 . S
H1231 C1205 0.931 . S
H1232 C1212 0.932 . S
H1233 C1213 0.930 . S
H1234 C1214 0.929 . S
H1235 C1216 0.930 . S
H1236 C1218 0.932 . S
H1237 C1219 0.929 . S
H1238 C1220 0.928 . S
H1239 C1222 0.932 . S
C1240 C1241 1.264 . S
C1240 C1245 1.479 . S
C1240 C1250 1.465 . S
C1241 C1240 1.264 . S
C1241 C1243 1.339 . S
C1241 H1268 0.931 . S
C1242 C1243 1.395 . S
C1242 C1244 1.320 . S
C1243 C1241 1.339 . S
C1243 C1242 1.395 . S
C1243 H1269 0.929 . S
C1244 C1242 1.320 . S
C1244 C1245 1.405 . S
C1244 H1270 0.930 . S
C1245 C1240 1.479 . S
C1245 C1244 1.405 . S
C1245 H1271 0.931 . S
U1246 O1247 2.454 . S
U1246 O1248 2.458 . S
U1246 C1249 2.984 . S
U1246 C1250 2.847 . S
U1246 C1263 2.882 . S
U1246 O1264 2.441 . S
U1246 O1265 2.420 . S
U1246 O1266 2.455 . S
U1246 O1267 2.449 . S
O1247 U1246 2.454 . S
O1247 C1249 1.353 . S
O1248 U1246 2.458 . S
O1248 C1249 1.286 . S
C1249 U1246 2.984 . S
C1249 O1247 1.353 . S
C1249 O1248 1.286 . S
C1249 C1251 1.363 . S
C1250 C1240 1.465 . S
C1250 U1246 2.847 . S
C1250 O1264 1.249 . S
C1250 O1265 1.202 . S
C1251 C1249 1.363 . S
C1251 C1253 1.408 . S
C1251 C1256 1.342 . S
C1252 C1253 1.310 . S
C1252 C1255 1.461 . S
C1252 H1272 0.932 . S
C1253 C1251 1.408 . S
C1253 C1252 1.310 . S
C1253 H1273 0.930 . S
C1254 C1255 1.474 . S
C1254 C1256 1.285 . S
C1254 H1274 0.929 . S
C1255 C1252 1.461 . S
C1255 C1254 1.474 . S
C1256 C1251 1.342 . S
C1256 C1254 1.285 . S
C1256 H1275 0.930 . S
C1257 C1260 1.424 . S
C1257 C1262 1.245 . S
C1257 C1263 1.428 . S
C1258 C1261 1.260 . S
C1258 C1262 1.477 . S
C1258 H1276 0.932 . S
C1259 C1260 1.384 . S
C1259 C1261 1.479 . S
C1259 H1277 0.929 . S
C1260 C1257 1.424 . S
C1260 C1259 1.384 . S
C1260 H1278 0.928 . S
C1261 C1258 1.260 . S
C1261 C1259 1.479 . S
C1262 C1257 1.245 . S
C1262 C1258 1.477 . S
C1262 H1279 0.932 . S
C1263 U1246 2.882 . S
C1263 C1257 1.428 . S
C1263 O1266 1.301 . S
C1263 O1267 1.282 . S
O1264 U1246 2.441 . S
O1264 C1250 1.249 . S
O1265 U1246 2.420 . S
O1265 C1250 1.202 . S
O1266 U1246 2.455 . S
O1266 C1263 1.301 . S
O1267 U1246 2.449 . S
O1267 C1263 1.282 . S
H1268 C1241 0.931 . S
H1269 C1243 0.929 . S
H1270 C1244 0.930 . S
H1271 C1245 0.931 . S
H1272 C1252 0.932 . S
H1273 C1253 0.930 . S
H1274 C1254 0.929 . S
H1275 C1256 0.930 . S
H1276 C1258 0.932 . S
H1277 C1259 0.929 . S
H1278 C1260 0.928 . S
H1279 C1262 0.932 . S
C1280 C1281 1.264 . S
C1280 C1285 1.479 . S
C1280 C1290 1.465 . S
C1281 C1280 1.264 . S
C1281 C1283 1.339 . S
C1281 H1308 0.931 . S
C1282 C1283 1.395 . S
C1282 C1284 1.320 . S
C1283 C1281 1.339 . S
C1283 C1282 1.395 . S
C1283 H1309 0.929 . S
C1284 C1282 1.320 . S
C1284 C1285 1.405 . S
C1284 H1310 0.930 . S
C1285 C1280 1.479 . S
C1285 C1284 1.405 . S
C1285 H1311 0.931 . S
U1286 O1287 2.454 . S
U1286 O1288 2.458 . S
U1286 C1289 2.984 . S
U1286 C1290 2.847 . S
U1286 C1303 2.882 . S
U1286 O1304 2.441 . S
U1286 O1305 2.420 . S
U1286 O1306 2.455 . S
U1286 O1307 2.449 . S
O1287 U1286 2.454 . S
O1287 C1289 1.353 . S
O1288 U1286 2.458 . S
O1288 C1289 1.286 . S
C1289 U1286 2.984 . S
C1289 O1287 1.353 . S
C1289 O1288 1.286 . S
C1289 C1291 1.363 . S
C1290 C1280 1.465 . S
C1290 U1286 2.847 . S
C1290 O1304 1.249 . S
C1290 O1305 1.202 . S
C1291 C1289 1.363 . S
C1291 C1293 1.408 . S
C1291 C1296 1.342 . S
C1292 C1293 1.310 . S
C1292 C1295 1.461 . S
C1292 H1312 0.932 . S
C1293 C1291 1.408 . S
C1293 C1292 1.310 . S
C1293 H1313 0.930 . S
C1294 C1295 1.474 . S
C1294 C1296 1.285 . S
C1294 H1314 0.929 . S
C1295 C1292 1.461 . S
C1295 C1294 1.474 . S
C1296 C1291 1.342 . S
C1296 C1294 1.285 . S
C1296 H1315 0.930 . S
C1297 C1300 1.424 . S
C1297 C1302 1.245 . S
C1297 C1303 1.428 . S
C1298 C1301 1.260 . S
C1298 C1302 1.477 . S
C1298 H1316 0.932 . S
C1299 C1300 1.384 . S
C1299 C1301 1.479 . S
C1299 H1317 0.929 . S
C1300 C1297 1.424 . S
C1300 C1299 1.384 . S
C1300 H1318 0.928 . S
C1301 C1298 1.260 . S
C1301 C1299 1.479 . S
C1302 C1297 1.245 . S
C1302 C1298 1.477 . S
C1302 H1319 0.932 . S
C1303 U1286 2.882 . S
C1303 C1297 1.428 . S
C1303 O1306 1.301 . S
C1303 O1307 1.282 . S
O1304 U1286 2.441 . S
O1304 C1290 1.249 . S
O1305 U1286 2.420 . S
O1305 C1290 1.202 . S
O1306 U1286 2.455 . S
O1306 C1303 1.301 . S
O1307 U1286 2.449 . S
O1307 C1303 1.282 . S
H1308 C1281 0.931 . S
H1309 C1283 0.929 . S
H1310 C1284 0.930 . S
H1311 C1285 0.931 . S
H1312 C1292 0.932 . S
H1313 C1293 0.930 . S
H1314 C1294 0.929 . S
H1315 C1296 0.930 . S
H1316 C1298 0.932 . S
H1317 C1299 0.929 . S
H1318 C1300 0.928 . S
H1319 C1302 0.932 . S
C1320 C1321 1.264 . S
C1320 C1325 1.479 . S
C1320 C1330 1.465 . S
C1321 C1320 1.264 . S
C1321 C1323 1.339 . S
C1321 H1348 0.931 . S
C1322 C1323 1.395 . S
C1322 C1324 1.320 . S
C1323 C1321 1.339 . S
C1323 C1322 1.395 . S
C1323 H1349 0.929 . S
C1324 C1322 1.320 . S
C1324 C1325 1.405 . S
C1324 H1350 0.930 . S
C1325 C1320 1.479 . S
C1325 C1324 1.405 . S
C1325 H1351 0.931 . S
U1326 O1327 2.454 . S
U1326 O1328 2.458 . S
U1326 C1329 2.984 . S
U1326 C1330 2.847 . S
U1326 C1343 2.882 . S
U1326 O1344 2.441 . S
U1326 O1345 2.420 . S
U1326 O1346 2.455 . S
U1326 O1347 2.449 . S
O1327 U1326 2.454 . S
O1327 C1329 1.353 . S
O1328 U1326 2.458 . S
O1328 C1329 1.286 . S
C1329 U1326 2.984 . S
C1329 O1327 1.353 . S
C1329 O1328 1.286 . S
C1329 C1331 1.363 . S
C1330 C1320 1.465 . S
C1330 U1326 2.847 . S
C1330 O1344 1.249 . S
C1330 O1345 1.202 . S
C1331 C1329 1.363 . S
C1331 C1333 1.408 . S
C1331 C1336 1.342 . S
C1332 C1333 1.310 . S
C1332 C1335 1.461 . S
C1332 H1352 0.932 . S
C1333 C1331 1.408 . S
C1333 C1332 1.310 . S
C1333 H1353 0.930 . S
C1334 C1335 1.474 . S
C1334 C1336 1.285 . S
C1334 H1354 0.929 . S
C1335 C1332 1.461 . S
C1335 C1334 1.474 . S
C1336 C1331 1.342 . S
C1336 C1334 1.285 . S
C1336 H1355 0.930 . S
C1337 C1340 1.424 . S
C1337 C1342 1.245 . S
C1337 C1343 1.428 . S
C1338 C1341 1.260 . S
C1338 C1342 1.477 . S
C1338 H1356 0.932 . S
C1339 C1340 1.384 . S
C1339 C1341 1.479 . S
C1339 H1357 0.929 . S
C1340 C1337 1.424 . S
C1340 C1339 1.384 . S
C1340 H1358 0.928 . S
C1341 C1338 1.260 . S
C1341 C1339 1.479 . S
C1342 C1337 1.245 . S
C1342 C1338 1.477 . S
C1342 H1359 0.932 . S
C1343 U1326 2.882 . S
C1343 C1337 1.428 . S
C1343 O1346 1.301 . S
C1343 O1347 1.282 . S
O1344 U1326 2.441 . S
O1344 C1330 1.249 . S
O1345 U1326 2.420 . S
O1345 C1330 1.202 . S
O1346 U1326 2.455 . S
O1346 C1343 1.301 . S
O1347 U1326 2.449 . S
O1347 C1343 1.282 . S
H1348 C1321 0.931 . S
H1349 C1323 0.929 . S
H1350 C1324 0.930 . S
H1351 C1325 0.931 . S
H1352 C1332 0.932 . S
H1353 C1333 0.930 . S
H1354 C1334 0.929 . S
H1355 C1336 0.930 . S
H1356 C1338 0.932 . S
H1357 C1339 0.929 . S
H1358 C1340 0.928 . S
H1359 C1342 0.932 . S
C1360 C1361 1.264 . S
C1360 C1365 1.479 . S
C1360 C1370 1.465 . S
C1361 C1360 1.264 . S
C1361 C1363 1.339 . S
C1361 H1388 0.931 . S
C1362 C1363 1.395 . S
C1362 C1364 1.320 . S
C1363 C1361 1.339 . S
C1363 C1362 1.395 . S
C1363 H1389 0.929 . S
C1364 C1362 1.320 . S
C1364 C1365 1.405 . S
C1364 H1390 0.930 . S
C1365 C1360 1.479 . S
C1365 C1364 1.405 . S
C1365 H1391 0.931 . S
U1366 O1367 2.454 . S
U1366 O1368 2.458 . S
U1366 C1369 2.984 . S
U1366 C1370 2.847 . S
U1366 C1383 2.882 . S
U1366 O1384 2.441 . S
U1366 O1385 2.420 . S
U1366 O1386 2.455 . S
U1366 O1387 2.449 . S
O1367 U1366 2.454 . S
O1367 C1369 1.353 . S
O1368 U1366 2.458 . S
O1368 C1369 1.286 . S
C1369 U1366 2.984 . S
C1369 O1367 1.353 . S
C1369 O1368 1.286 . S
C1369 C1371 1.363 . S
C1370 C1360 1.465 . S
C1370 U1366 2.847 . S
C1370 O1384 1.249 . S
C1370 O1385 1.202 . S
C1371 C1369 1.363 . S
C1371 C1373 1.408 . S
C1371 C1376 1.342 . S
C1372 C1373 1.310 . S
C1372 C1375 1.461 . S
C1372 H1392 0.932 . S
C1373 C1371 1.408 . S
C1373 C1372 1.310 . S
C1373 H1393 0.930 . S
C1374 C1375 1.474 . S
C1374 C1376 1.285 . S
C1374 H1394 0.929 . S
C1375 C1372 1.461 . S
C1375 C1374 1.474 . S
C1376 C1371 1.342 . S
C1376 C1374 1.285 . S
C1376 H1395 0.930 . S
C1377 C1380 1.424 . S
C1377 C1382 1.245 . S
C1377 C1383 1.428 . S
C1378 C1381 1.260 . S
C1378 C1382 1.477 . S
C1378 H1396 0.932 . S
C1379 C1380 1.384 . S
C1379 C1381 1.479 . S
C1379 H1397 0.929 . S
C1380 C1377 1.424 . S
C1380 C1379 1.384 . S
C1380 H1398 0.928 . S
C1381 C1378 1.260 . S
C1381 C1379 1.479 . S
C1382 C1377 1.245 . S
C1382 C1378 1.477 . S
C1382 H1399 0.932 . S
C1383 U1366 2.882 . S
C1383 C1377 1.428 . S
C1383 O1386 1.301 . S
C1383 O1387 1.282 . S
O1384 U1366 2.441 . S
O1384 C1370 1.249 . S
O1385 U1366 2.420 . S
O1385 C1370 1.202 . S
O1386 U1366 2.455 . S
O1386 C1383 1.301 . S
O1387 U1366 2.449 . S
O1387 C1383 1.282 . S
H1388 C1361 0.931 . S
H1389 C1363 0.929 . S
H1390 C1364 0.930 . S
H1391 C1365 0.931 . S
H1392 C1372 0.932 . S
H1393 C1373 0.930 . S
H1394 C1374 0.929 . S
H1395 C1376 0.930 . S
H1396 C1378 0.932 . S
H1397 C1379 0.929 . S
H1398 C1380 0.928 . S
H1399 C1382 0.932 . S
C1400 C1401 1.264 . S
C1400 C1405 1.479 . S
C1400 C1410 1.465 . S
C1401 C1400 1.264 . S
C1401 C1403 1.339 . S
C1401 H1428 0.931 . S
C1402 C1403 1.395 . S
C1402 C1404 1.320 . S
C1403 C1401 1.339 . S
C1403 C1402 1.395 . S
C1403 H1429 0.929 . S
C1404 C1402 1.320 . S
C1404 C1405 1.405 . S
C1404 H1430 0.930 . S
C1405 C1400 1.479 . S
C1405 C1404 1.405 . S
C1405 H1431 0.931 . S
U1406 O1407 2.454 . S
U1406 O1408 2.458 . S
U1406 C1409 2.984 . S
U1406 C1410 2.847 . S
U1406 C1423 2.882 . S
U1406 O1424 2.441 . S
U1406 O1425 2.420 . S
U1406 O1426 2.455 . S
U1406 O1427 2.449 . S
O1407 U1406 2.454 . S
O1407 C1409 1.353 . S
O1408 U1406 2.458 . S
O1408 C1409 1.286 . S
C1409 U1406 2.984 . S
C1409 O1407 1.353 . S
C1409 O1408 1.286 . S
C1409 C1411 1.363 . S
C1410 C1400 1.465 . S
C1410 U1406 2.847 . S
C1410 O1424 1.249 . S
C1410 O1425 1.202 . S
C1411 C1409 1.363 . S
C1411 C1413 1.408 . S
C1411 C1416 1.342 . S
C1412 C1413 1.310 . S
C1412 C1415 1.461 . S
C1412 H1432 0.932 . S
C1413 C1411 1.408 . S
C1413 C1412 1.310 . S
C1413 H1433 0.930 . S
C1414 C1415 1.474 . S
C1414 C1416 1.285 . S
C1414 H1434 0.929 . S
C1415 C1412 1.461 . S
C1415 C1414 1.474 . S
C1416 C1411 1.342 . S
C1416 C1414 1.285 . S
C1416 H1435 0.930 . S
C1417 C1420 1.424 . S
C1417 C1422 1.245 . S
C1417 C1423 1.428 . S
C1418 C1421 1.260 . S
C1418 C1422 1.477 . S
C1418 H1436 0.932 . S
C1419 C1420 1.384 . S
C1419 C1421 1.479 . S
C1419 H1437 0.929 . S
C1420 C1417 1.424 . S
C1420 C1419 1.384 . S
C1420 H1438 0.928 . S
C1421 C1418 1.260 . S
C1421 C1419 1.479 . S
C1422 C1417 1.245 . S
C1422 C1418 1.477 . S
C1422 H1439 0.932 . S
C1423 U1406 2.882 . S
C1423 C1417 1.428 . S
C1423 O1426 1.301 . S
C1423 O1427 1.282 . S
O1424 U1406 2.441 . S
O1424 C1410 1.249 . S
O1425 U1406 2.420 . S
O1425 C1410 1.202 . S
O1426 U1406 2.455 . S
O1426 C1423 1.301 . S
O1427 U1406 2.449 . S
O1427 C1423 1.282 . S
H1428 C1401 0.931 . S
H1429 C1403 0.929 . S
H1430 C1404 0.930 . S
H1431 C1405 0.931 . S
H1432 C1412 0.932 . S
H1433 C1413 0.930 . S
H1434 C1414 0.929 . S
H1435 C1416 0.930 . S
H1436 C1418 0.932 . S
H1437 C1419 0.929 . S
H1438 C1420 0.928 . S
H1439 C1422 0.932 . S
C1440 C1441 1.264 . S
C1440 C1445 1.479 . S
C1440 C1450 1.465 . S
C1441 C1440 1.264 . S
C1441 C1443 1.339 . S
C1441 H1468 0.931 . S
C1442 C1443 1.395 . S
C1442 C1444 1.320 . S
C1443 C1441 1.339 . S
C1443 C1442 1.395 . S
C1443 H1469 0.929 . S
C1444 C1442 1.320 . S
C1444 C1445 1.405 . S
C1444 H1470 0.930 . S
C1445 C1440 1.479 . S
C1445 C1444 1.405 . S
C1445 H1471 0.931 . S
U1446 O1447 2.454 . S
U1446 O1448 2.458 . S
U1446 C1449 2.984 . S
U1446 C1450 2.847 . S
U1446 C1463 2.882 . S
U1446 O1464 2.441 . S
U1446 O1465 2.420 . S
U1446 O1466 2.455 . S
U1446 O1467 2.449 . S
O1447 U1446 2.454 . S
O1447 C1449 1.353 . S
O1448 U1446 2.458 . S
O1448 C1449 1.286 . S
C1449 U1446 2.984 . S
C1449 O1447 1.353 . S
C1449 O1448 1.286 . S
C1449 C1451 1.363 . S
C1450 C1440 1.465 . S
C1450 U1446 2.847 . S
C1450 O1464 1.249 . S
C1450 O1465 1.202 . S
C1451 C1449 1.363 . S
C1451 C1453 1.408 . S
C1451 C1456 1.342 . S
C1452 C1453 1.310 . S
C1452 C1455 1.461 . S
C1452 H1472 0.932 . S
C1453 C1451 1.408 . S
C1453 C1452 1.310 . S
C1453 H1473 0.930 . S
C1454 C1455 1.474 . S
C1454 C1456 1.285 . S
C1454 H1474 0.929 . S
C1455 C1452 1.461 . S
C1455 C1454 1.474 . S
C1456 C1451 1.342 . S
C1456 C1454 1.285 . S
C1456 H1475 0.930 . S
C1457 C1460 1.424 . S
C1457 C1462 1.245 . S
C1457 C1463 1.428 . S
C1458 C1461 1.260 . S
C1458 C1462 1.477 . S
C1458 H1476 0.932 . S
C1459 C1460 1.384 . S
C1459 C1461 1.479 . S
C1459 H1477 0.929 . S
C1460 C1457 1.424 . S
C1460 C1459 1.384 . S
C1460 H1478 0.928 . S
C1461 C1458 1.260 . S
C1461 C1459 1.479 . S
C1462 C1457 1.245 . S
C1462 C1458 1.477 . S
C1462 H1479 0.932 . S
C1463 U1446 2.882 . S
C1463 C1457 1.428 . S
C1463 O1466 1.301 . S
C1463 O1467 1.282 . S
O1464 U1446 2.441 . S
O1464 C1450 1.249 . S
O1465 U1446 2.420 . S
O1465 C1450 1.202 . S
O1466 U1446 2.455 . S
O1466 C1463 1.301 . S
O1467 U1446 2.449 . S
O1467 C1463 1.282 . S
H1468 C1441 0.931 . S
H1469 C1443 0.929 . S
H1470 C1444 0.930 . S
H1471 C1445 0.931 . S
H1472 C1452 0.932 . S
H1473 C1453 0.930 . S
H1474 C1454 0.929 . S
H1475 C1456 0.930 . S
H1476 C1458 0.932 . S
H1477 C1459 0.929 . S
H1478 C1460 0.928 . S
H1479 C1462 0.932 . S
C1480 C1481 1.264 . S
C1480 C1485 1.479 . S
C1480 C1490 1.465 . S
C1481 C1480 1.264 . S
C1481 C1483 1.339 . S
C1481 H1508 0.931 . S
C1482 C1483 1.395 . S
C1482 C1484 1.320 . S
C1483 C1481 1.339 . S
C1483 C1482 1.395 . S
C1483 H1509 0.929 . S
C1484 C1482 1.320 . S
C1484 C1485 1.405 . S
C1484 H1510 0.930 . S
C1485 C1480 1.479 . S
C1485 C1484 1.405 . S
C1485 H1511 0.931 . S
U1486 O1487 2.454 . S
U1486 O1488 2.458 . S
U1486 C1489 2.984 . S
U1486 C1490 2.847 . S
U1486 C1503 2.882 . S
U1486 O1504 2.441 . S
U1486 O1505 2.420 . S
U1486 O1506 2.455 . S
U1486 O1507 2.449 . S
O1487 U1486 2.454 . S
O1487 C1489 1.353 . S
O1488 U1486 2.458 . S
O1488 C1489 1.286 . S
C1489 U1486 2.984 . S
C1489 O1487 1.353 . S
C1489 O1488 1.286 . S
C1489 C1491 1.363 . S
C1490 C1480 1.465 . S
C1490 U1486 2.847 . S
C1490 O1504 1.249 . S
C1490 O1505 1.202 . S
C1491 C1489 1.363 . S
C1491 C1493 1.408 . S
C1491 C1496 1.342 . S
C1492 C1493 1.310 . S
C1492 C1495 1.461 . S
C1492 H1512 0.932 . S
C1493 C1491 1.408 . S
C1493 C1492 1.310 . S
C1493 H1513 0.930 . S
C1494 C1495 1.474 . S
C1494 C1496 1.285 . S
C1494 H1514 0.929 . S
C1495 C1492 1.461 . S
C1495 C1494 1.474 . S
C1496 C1491 1.342 . S
C1496 C1494 1.285 . S
C1496 H1515 0.930 . S
C1497 C1500 1.424 . S
C1497 C1502 1.245 . S
C1497 C1503 1.428 . S
C1498 C1501 1.260 . S
C1498 C1502 1.477 . S
C1498 H1516 0.932 . S
C1499 C1500 1.384 . S
C1499 C1501 1.479 . S
C1499 H1517 0.929 . S
C1500 C1497 1.424 . S
C1500 C1499 1.384 . S
C1500 H1518 0.928 . S
C1501 C1498 1.260 . S
C1501 C1499 1.479 . S
C1502 C1497 1.245 . S
C1502 C1498 1.477 . S
C1502 H1519 0.932 . S
C1503 U1486 2.882 . S
C1503 C1497 1.428 . S
C1503 O1506 1.301 . S
C1503 O1507 1.282 . S
O1504 U1486 2.441 . S
O1504 C1490 1.249 . S
O1505 U1486 2.420 . S
O1505 C1490 1.202 . S
O1506 U1486 2.455 . S
O1506 C1503 1.301 . S
O1507 U1486 2.449 . S
O1507 C1503 1.282 . S
H1508 C1481 0.931 . S
H1509 C1483 0.929 . S
H1510 C1484 0.930 . S
H1511 C1485 0.931 . S
H1512 C1492 0.932 . S
H1513 C1493 0.930 . S
H1514 C1494 0.929 . S
H1515 C1496 0.930 . S
H1516 C1498 0.932 . S
H1517 C1499 0.929 . S
H1518 C1500 0.928 . S
H1519 C1502 0.932 . S
C1520 C1521 1.264 . S
C1520 C1525 1.479 . S
C1520 C1530 1.465 . S
C1521 C1520 1.264 . S
C1521 C1523 1.339 . S
C1521 H1548 0.931 . S
C1522 C1523 1.395 . S
C1522 C1524 1.320 . S
C1523 C1521 1.339 . S
C1523 C1522 1.395 . S
C1523 H1549 0.929 . S
C1524 C1522 1.320 . S
C1524 C1525 1.405 . S
C1524 H1550 0.930 . S
C1525 C1520 1.479 . S
C1525 C1524 1.405 . S
C1525 H1551 0.931 . S
U1526 O1527 2.454 . S
U1526 O1528 2.458 . S
U1526 C1529 2.984 . S
U1526 C1530 2.847 . S
U1526 C1543 2.882 . S
U1526 O1544 2.441 . S
U1526 O1545 2.420 . S
U1526 O1546 2.455 . S
U1526 O1547 2.449 . S
O1527 U1526 2.454 . S
O1527 C1529 1.353 . S
O1528 U1526 2.458 . S
O1528 C1529 1.286 . S
C1529 U1526 2.984 . S
C1529 O1527 1.353 . S
C1529 O1528 1.286 . S
C1529 C1531 1.363 . S
C1530 C1520 1.465 . S
C1530 U1526 2.847 . S
C1530 O1544 1.249 . S
C1530 O1545 1.202 . S
C1531 C1529 1.363 . S
C1531 C1533 1.408 . S
C1531 C1536 1.342 . S
C1532 C1533 1.310 . S
C1532 C1535 1.461 . S
C1532 H1552 0.932 . S
C1533 C1531 1.408 . S
C1533 C1532 1.310 . S
C1533 H1553 0.930 . S
C1534 C1535 1.474 . S
C1534 C1536 1.285 . S
C1534 H1554 0.929 . S
C1535 C1532 1.461 . S
C1535 C1534 1.474 . S
C1536 C1531 1.342 . S
C1536 C1534 1.285 . S
C1536 H1555 0.930 . S
C1537 C1540 1.424 . S
C1537 C1542 1.245 . S
C1537 C1543 1.428 . S
C1538 C1541 1.260 . S
C1538 C1542 1.477 . S
C1538 H1556 0.932 . S
C1539 C1540 1.384 . S
C1539 C1541 1.479 . S
C1539 H1557 0.929 . S
C1540 C1537 1.424 . S
C1540 C1539 1.384 . S
C1540 H1558 0.928 . S
C1541 C1538 1.260 . S
C1541 C1539 1.479 . S
C1542 C1537 1.245 . S
C1542 C1538 1.477 . S
C1542 H1559 0.932 . S
C1543 U1526 2.882 . S
C1543 C1537 1.428 . S
C1543 O1546 1.301 . S
C1543 O1547 1.282 . S
O1544 U1526 2.441 . S
O1544 C1530 1.249 . S
O1545 U1526 2.420 . S
O1545 C1530 1.202 . S
O1546 U1526 2.455 . S
O1546 C1543 1.301 . S
O1547 U1526 2.449 . S
O1547 C1543 1.282 . S
H1548 C1521 0.931 . S
H1549 C1523 0.929 . S
H1550 C1524 0.930 . S
H1551 C1525 0.931 . S
H1552 C1532 0.932 . S
H1553 C1533 0.930 . S
H1554 C1534 0.929 . S
H1555 C1536 0.930 . S
H1556 C1538 0.932 . S
H1557 C1539 0.929 . S
H1558 C1540 0.928 . S
H1559 C1542 0.932 . S
C1560 C1561 1.264 . S
C1560 C1565 1.479 . S
C1560 C1570 1.465 . S
C1561 C1560 1.264 . S
C1561 C1563 1.339 . S
C1561 H1588 0.931 . S
C1562 C1563 1.395 . S
C1562 C1564 1.320 . S
C1563 C1561 1.339 . S
C1563 C1562 1.395 . S
C1563 H1589 0.929 . S
C1564 C1562 1.320 . S
C1564 C1565 1.405 . S
C1564 H1590 0.930 . S
C1565 C1560 1.479 . S
C1565 C1564 1.405 . S
C1565 H1591 0.931 . S
U1566 O1567 2.454 . S
U1566 O1568 2.458 . S
U1566 C1569 2.984 . S
U1566 C1570 2.847 . S
U1566 C1583 2.882 . S
U1566 O1584 2.441 . S
U1566 O1585 2.420 . S
U1566 O1586 2.455 . S
U1566 O1587 2.449 . S
O1567 U1566 2.454 . S
O1567 C1569 1.353 . S
O1568 U1566 2.458 . S
O1568 C1569 1.286 . S
C1569 U1566 2.984 . S
C1569 O1567 1.353 . S
C1569 O1568 1.286 . S
C1569 C1571 1.363 . S
C1570 C1560 1.465 . S
C1570 U1566 2.847 . S
C1570 O1584 1.249 . S
C1570 O1585 1.202 . S
C1571 C1569 1.363 . S
C1571 C1573 1.408 . S
C1571 C1576 1.342 . S
C1572 C1573 1.310 . S
C1572 C1575 1.461 . S
C1572 H1592 0.932 . S
C1573 C1571 1.408 . S
C1573 C1572 1.310 . S
C1573 H1593 0.930 . S
C1574 C1575 1.474 . S
C1574 C1576 1.285 . S
C1574 H1594 0.929 . S
C1575 C1572 1.461 . S
C1575 C1574 1.474 . S
C1576 C1571 1.342 . S
C1576 C1574 1.285 . S
C1576 H1595 0.930 . S
C1577 C1580 1.424 . S
C1577 C1582 1.245 . S
C1577 C1583 1.428 . S
C1578 C1581 1.260 . S
C1578 C1582 1.477 . S
C1578 H1596 0.932 . S
C1579 C1580 1.384 . S
C1579 C1581 1.479 . S
C1579 H1597 0.929 . S
C1580 C1577 1.424 . S
C1580 C1579 1.384 . S
C1580 H1598 0.928 . S
C1581 C1578 1.260 . S
C1581 C1579 1.479 . S
C1582 C1577 1.245 . S
C1582 C1578 1.477 . S
C1582 H1599 0.932 . S
C1583 U1566 2.882 . S
C1583 C1577 1.428 . S
C1583 O1586 1.301 . S
C1583 O1587 1.282 . S
O1584 U1566 2.441 . S
O1584 C1570 1.249 . S
O1585 U1566 2.420 . S
O1585 C1570 1.202 . S
O1586 U1566 2.455 . S
O1586 C1583 1.301 . S
O1587 U1566 2.449 . S
O1587 C1583 1.282 . S
H1588 C1561 0.931 . S
H1589 C1563 0.929 . S
H1590 C1564 0.930 . S
H1591 C1565 0.931 . S
H1592 C1572 0.932 . S
H1593 C1573 0.930 . S
H1594 C1574 0.929 . S
H1595 C1576 0.930 . S
H1596 C1578 0.932 . S
H1597 C1579 0.929 . S
H1598 C1580 0.928 . S
H1599 C1582 0.932 . S
C1600 C1601 1.264 . S
C1600 C1605 1.479 . S
C1600 C1610 1.465 . S
C1601 C1600 1.264 . S
C1601 C1603 1.339 . S
C1601 H1628 0.931 . S
C1602 C1603 1.395 . S
C1602 C1604 1.320 . S
C1603 C1601 1.339 . S
C1603 C1602 1.395 . S
C1603 H1629 0.929 . S
C1604 C1602 1.320 . S
C1604 C1605 1.405 . S
C1604 H1630 0.930 . S
C1605 C1600 1.479 . S
C1605 C1604 1.405 . S
C1605 H1631 0.931 . S
U1606 O1607 2.454 . S
U1606 O1608 2.458 . S
U1606 C1609 2.984 . S
U1606 C1610 2.847 . S
U1606 C1623 2.882 . S
U1606 O1624 2.441 . S
U1606 O1625 2.420 . S
U1606 O1626 2.455 . S
U1606 O1627 2.449 . S
O1607 U1606 2.454 . S
O1607 C1609 1.353 . S
O1608 U1606 2.458 . S
O1608 C1609 1.286 . S
C1609 U1606 2.984 . S
C1609 O1607 1.353 . S
C1609 O1608 1.286 . S
C1609 C1611 1.363 . S
C1610 C1600 1.465 . S
C1610 U1606 2.847 . S
C1610 O1624 1.249 . S
C1610 O1625 1.202 . S
C1611 C1609 1.363 . S
C1611 C1613 1.408 . S
C1611 C1616 1.342 . S
C1612 C1613 1.310 . S
C1612 C1615 1.461 . S
C1612 H1632 0.932 . S
C1613 C1611 1.408 . S
C1613 C1612 1.310 . S
C1613 H1633 0.930 . S
C1614 C1615 1.474 . S
C1614 C1616 1.285 . S
C1614 H1634 0.929 . S
C1615 C1612 1.461 . S
C1615 C1614 1.474 . S
C1616 C1611 1.342 . S
C1616 C1614 1.285 . S
C1616 H1635 0.930 . S
C1617 C1620 1.424 . S
C1617 C1622 1.245 . S
C1617 C1623 1.428 . S
C1618 C1621 1.260 . S
C1618 C1622 1.477 . S
C1618 H1636 0.932 . S
C1619 C1620 1.384 . S
C1619 C1621 1.479 . S
C1619 H1637 0.929 . S
C1620 C1617 1.424 . S
C1620 C1619 1.384 . S
C1620 H1638 0.928 . S
C1621 C1618 1.260 . S
C1621 C1619 1.479 . S
C1622 C1617 1.245 . S
C1622 C1618 1.477 . S
C1622 H1639 0.932 . S
C1623 U1606 2.882 . S
C1623 C1617 1.428 . S
C1623 O1626 1.301 . S
C1623 O1627 1.282 . S
O1624 U1606 2.441 . S
O1624 C1610 1.249 . S
O1625 U1606 2.420 . S
O1625 C1610 1.202 . S
O1626 U1606 2.455 . S
O1626 C1623 1.301 . S
O1627 U1606 2.449 . S
O1627 C1623 1.282 . S
H1628 C1601 0.931 . S
H1629 C1603 0.929 . S
H1630 C1604 0.930 . S
H1631 C1605 0.931 . S
H1632 C1612 0.932 . S
H1633 C1613 0.930 . S
H1634 C1614 0.929 . S
H1635 C1616 0.930 . S
H1636 C1618 0.932 . S
H1637 C1619 0.929 . S
H1638 C1620 0.928 . S
H1639 C1622 0.932 . S
C1640 C1641 1.264 . S
C1640 C1645 1.479 . S
C1640 C1650 1.465 . S
C1641 C1640 1.264 . S
C1641 C1643 1.339 . S
C1641 H1668 0.931 . S
C1642 C1643 1.395 . S
C1642 C1644 1.320 . S
C1643 C1641 1.339 . S
C1643 C1642 1.395 . S
C1643 H1669 0.929 . S
C1644 C1642 1.320 . S
C1644 C1645 1.405 . S
C1644 H1670 0.930 . S
C1645 C1640 1.479 . S
C1645 C1644 1.405 . S
C1645 H1671 0.931 . S
U1646 O1647 2.454 . S
U1646 O1648 2.458 . S
U1646 C1649 2.984 . S
U1646 C1650 2.847 . S
U1646 C1663 2.882 . S
U1646 O1664 2.441 . S
U1646 O1665 2.420 . S
U1646 O1666 2.455 . S
U1646 O1667 2.449 . S
O1647 U1646 2.454 . S
O1647 C1649 1.353 . S
O1648 U1646 2.458 . S
O1648 C1649 1.286 . S
C1649 U1646 2.984 . S
C1649 O1647 1.353 . S
C1649 O1648 1.286 . S
C1649 C1651 1.363 . S
C1650 C1640 1.465 . S
C1650 U1646 2.847 . S
C1650 O1664 1.249 . S
C1650 O1665 1.202 . S
C1651 C1649 1.363 . S
C1651 C1653 1.408 . S
C1651 C1656 1.342 . S
C1652 C1653 1.310 . S
C1652 C1655 1.461 . S
C1652 H1672 0.932 . S
C1653 C1651 1.408 . S
C1653 C1652 1.310 . S
C1653 H1673 0.930 . S
C1654 C1655 1.474 . S
C1654 C1656 1.285 . S
C1654 H1674 0.929 . S
C1655 C1652 1.461 . S
C1655 C1654 1.474 . S
C1656 C1651 1.342 . S
C1656 C1654 1.285 . S
C1656 H1675 0.930 . S
C1657 C1660 1.424 . S
C1657 C1662 1.245 . S
C1657 C1663 1.428 . S
C1658 C1661 1.260 . S
C1658 C1662 1.477 . S
C1658 H1676 0.932 . S
C1659 C1660 1.384 . S
C1659 C1661 1.479 . S
C1659 H1677 0.929 . S
C1660 C1657 1.424 . S
C1660 C1659 1.384 . S
C1660 H1678 0.928 . S
C1661 C1658 1.260 . S
C1661 C1659 1.479 . S
C1662 C1657 1.245 . S
C1662 C1658 1.477 . S
C1662 H1679 0.932 . S
C1663 U1646 2.882 . S
C1663 C1657 1.428 . S
C1663 O1666 1.301 . S
C1663 O1667 1.282 . S
O1664 U1646 2.441 . S
O1664 C1650 1.249 . S
O1665 U1646 2.420 . S
O1665 C1650 1.202 . S
O1666 U1646 2.455 . S
O1666 C1663 1.301 . S
O1667 U1646 2.449 . S
O1667 C1663 1.282 . S
H1668 C1641 0.931 . S
H1669 C1643 0.929 . S
H1670 C1644 0.930 . S
H1671 C1645 0.931 . S
H1672 C1652 0.932 . S
H1673 C1653 0.930 . S
H1674 C1654 0.929 . S
H1675 C1656 0.930 . S
H1676 C1658 0.932 . S
H1677 C1659 0.929 . S
H1678 C1660 0.928 . S
H1679 C1662 0.932 . S
C1680 C1681 1.264 . S
C1680 C1685 1.479 . S
C1680 C1690 1.465 . S
C1681 C1680 1.264 . S
C1681 C1683 1.339 . S
C1681 H1708 0.931 . S
C1682 C1683 1.395 . S
C1682 C1684 1.320 . S
C1683 C1681 1.339 . S
C1683 C1682 1.395 . S
C1683 H1709 0.929 . S
C1684 C1682 1.320 . S
C1684 C1685 1.405 . S
C1684 H1710 0.930 . S
C1685 C1680 1.479 . S
C1685 C1684 1.405 . S
C1685 H1711 0.931 . S
U1686 O1687 2.454 . S
U1686 O1688 2.458 . S
U1686 C1689 2.984 . S
U1686 C1690 2.847 . S
U1686 C1703 2.882 . S
U1686 O1704 2.441 . S
U1686 O1705 2.420 . S
U1686 O1706 2.455 . S
U1686 O1707 2.449 . S
O1687 U1686 2.454 . S
O1687 C1689 1.353 . S
O1688 U1686 2.458 . S
O1688 C1689 1.286 . S
C1689 U1686 2.984 . S
C1689 O1687 1.353 . S
C1689 O1688 1.286 . S
C1689 C1691 1.363 . S
C1690 C1680 1.465 . S
C1690 U1686 2.847 . S
C1690 O1704 1.249 . S
C1690 O1705 1.202 . S
C1691 C1689 1.363 . S
C1691 C1693 1.408 . S
C1691 C1696 1.342 . S
C1692 C1693 1.310 . S
C1692 C1695 1.461 . S
C1692 H1712 0.932 . S
C1693 C1691 1.408 . S
C1693 C1692 1.310 . S
C1693 H1713 0.930 . S
C1694 C1695 1.474 . S
C1694 C1696 1.285 . S
C1694 H1714 0.929 . S
C1695 C1692 1.461 . S
C1695 C1694 1.474 . S
C1696 C1691 1.342 . S
C1696 C1694 1.285 . S
C1696 H1715 0.930 . S
C1697 C1700 1.424 . S
C1697 C1702 1.245 . S
C1697 C1703 1.428 . S
C1698 C1701 1.260 . S
C1698 C1702 1.477 . S
C1698 H1716 0.932 . S
C1699 C1700 1.384 . S
C1699 C1701 1.479 . S
C1699 H1717 0.929 . S
C1700 C1697 1.424 . S
C1700 C1699 1.384 . S
C1700 H1718 0.928 . S
C1701 C1698 1.260 . S
C1701 C1699 1.479 . S
C1702 C1697 1.245 . S
C1702 C1698 1.477 . S
C1702 H1719 0.932 . S
C1703 U1686 2.882 . S
C1703 C1697 1.428 . S
C1703 O1706 1.301 . S
C1703 O1707 1.282 . S
O1704 U1686 2.441 . S
O1704 C1690 1.249 . S
O1705 U1686 2.420 . S
O1705 C1690 1.202 . S
O1706 U1686 2.455 . S
O1706 C1703 1.301 . S
O1707 U1686 2.449 . S
O1707 C1703 1.282 . S
H1708 C1681 0.931 . S
H1709 C1683 0.929 . S
H1710 C1684 0.930 . S
H1711 C1685 0.931 . S
H1712 C1692 0.932 . S
H1713 C1693 0.930 . S
H1714 C1694 0.929 . S
H1715 C1696 0.930 . S
H1716 C1698 0.932 . S
H1717 C1699 0.929 . S
H1718 C1700 0.928 . S
H1719 C1702 0.932 . S
C1720 C1721 1.264 . S
C1720 C1725 1.479 . S
C1720 C1730 1.465 . S
C1721 C1720 1.264 . S
C1721 C1723 1.339 . S
C1721 H1748 0.931 . S
C1722 C1723 1.395 . S
C1722 C1724 1.320 . S
C1723 C1721 1.339 . S
C1723 C1722 1.395 . S
C1723 H1749 0.929 . S
C1724 C1722 1.320 . S
C1724 C1725 1.405 . S
C1724 H1750 0.930 . S
C1725 C1720 1.479 . S
C1725 C1724 1.405 . S
C1725 H1751 0.931 . S
U1726 O1727 2.454 . S
U1726 O1728 2.458 . S
U1726 C1729 2.984 . S
U1726 C1730 2.847 . S
U1726 C1743 2.882 . S
U1726 O1744 2.441 . S
U1726 O1745 2.420 . S
U1726 O1746 2.455 . S
U1726 O1747 2.449 . S
O1727 U1726 2.454 . S
O1727 C1729 1.353 . S
O1728 U1726 2.458 . S
O1728 C1729 1.286 . S
C1729 U1726 2.984 . S
C1729 O1727 1.353 . S
C1729 O1728 1.286 . S
C1729 C1731 1.363 . S
C1730 C1720 1.465 . S
C1730 U1726 2.847 . S
C1730 O1744 1.249 . S
C1730 O1745 1.202 . S
C1731 C1729 1.363 . S
C1731 C1733 1.408 . S
C1731 C1736 1.342 . S
C1732 C1733 1.310 . S
C1732 C1735 1.461 . S
C1732 H1752 0.932 . S
C1733 C1731 1.408 . S
C1733 C1732 1.310 . S
C1733 H1753 0.930 . S
C1734 C1735 1.474 . S
C1734 C1736 1.285 . S
C1734 H1754 0.929 . S
C1735 C1732 1.461 . S
C1735 C1734 1.474 . S
C1736 C1731 1.342 . S
C1736 C1734 1.285 . S
C1736 H1755 0.930 . S
C1737 C1740 1.424 . S
C1737 C1742 1.245 . S
C1737 C1743 1.428 . S
C1738 C1741 1.260 . S
C1738 C1742 1.477 . S
C1738 H1756 0.932 . S
C1739 C1740 1.384 . S
C1739 C1741 1.479 . S
C1739 H1757 0.929 . S
C1740 C1737 1.424 . S
C1740 C1739 1.384 . S
C1740 H1758 0.928 . S
C1741 C1738 1.260 . S
C1741 C1739 1.479 . S
C1742 C1737 1.245 . S
C1742 C1738 1.477 . S
C1742 H1759 0.932 . S
C1743 U1726 2.882 . S
C1743 C1737 1.428 . S
C1743 O1746 1.301 . S
C1743 O1747 1.282 . S
O1744 U1726 2.441 . S
O1744 C1730 1.249 . S
O1745 U1726 2.420 . S
O1745 C1730 1.202 . S
O1746 U1726 2.455 . S
O1746 C1743 1.301 . S
O1747 U1726 2.449 . S
O1747 C1743 1.282 . S
H1748 C1721 0.931 . S
H1749 C1723 0.929 . S
H1750 C1724 0.930 . S
H1751 C1725 0.931 . S
H1752 C1732 0.932 . S
H1753 C1733 0.930 . S
H1754 C1734 0.929 . S
H1755 C1736 0.930 . S
H1756 C1738 0.932 . S
H1757 C1739 0.929 . S
H1758 C1740 0.928 . S
H1759 C1742 0.932 . S
C1760 C1761 1.264 . S
C1760 C1765 1.479 . S
C1760 C1770 1.465 . S
C1761 C1760 1.264 . S
C1761 C1763 1.339 . S
C1761 H1788 0.931 . S
C1762 C1763 1.395 . S
C1762 C1764 1.320 . S
C1763 C1761 1.339 . S
C1763 C1762 1.395 . S
C1763 H1789 0.929 . S
C1764 C1762 1.320 . S
C1764 C1765 1.405 . S
C1764 H1790 0.930 . S
C1765 C1760 1.479 . S
C1765 C1764 1.405 . S
C1765 H1791 0.931 . S
U1766 O1767 2.454 . S
U1766 O1768 2.458 . S
U1766 C1769 2.984 . S
U1766 C1770 2.847 . S
U1766 C1783 2.882 . S
U1766 O1784 2.441 . S
U1766 O1785 2.420 . S
U1766 O1786 2.455 . S
U1766 O1787 2.449 . S
O1767 U1766 2.454 . S
O1767 C1769 1.353 . S
O1768 U1766 2.458 . S
O1768 C1769 1.286 . S
C1769 U1766 2.984 . S
C1769 O1767 1.353 . S
C1769 O1768 1.286 . S
C1769 C1771 1.363 . S
C1770 C1760 1.465 . S
C1770 U1766 2.847 . S
C1770 O1784 1.249 . S
C1770 O1785 1.202 . S
C1771 C1769 1.363 . S
C1771 C1773 1.408 . S
C1771 C1776 1.342 . S
C1772 C1773 1.310 . S
C1772 C1775 1.461 . S
C1772 H1792 0.932 . S
C1773 C1771 1.408 . S
C1773 C1772 1.310 . S
C1773 H1793 0.930 . S
C1774 C1775 1.474 . S
C1774 C1776 1.285 . S
C1774 H1794 0.929 . S
C1775 C1772 1.461 . S
C1775 C1774 1.474 . S
C1776 C1771 1.342 . S
C1776 C1774 1.285 . S
C1776 H1795 0.930 . S
C1777 C1780 1.424 . S
C1777 C1782 1.245 . S
C1777 C1783 1.428 . S
C1778 C1781 1.260 . S
C1778 C1782 1.477 . S
C1778 H1796 0.932 . S
C1779 C1780 1.384 . S
C1779 C1781 1.479 . S
C1779 H1797 0.929 . S
C1780 C1777 1.424 . S
C1780 C1779 1.384 . S
C1780 H1798 0.928 . S
C1781 C1778 1.260 . S
C1781 C1779 1.479 . S
C1782 C1777 1.245 . S
C1782 C1778 1.477 . S
C1782 H1799 0.932 . S
C1783 U1766 2.882 . S
C1783 C1777 1.428 . S
C1783 O1786 1.301 . S
C1783 O1787 1.282 . S
O1784 U1766 2.441 . S
O1784 C1770 1.249 . S
O1785 U1766 2.420 . S
O1785 C1770 1.202 . S
O1786 U1766 2.455 . S
O1786 C1783 1.301 . S
O1787 U1766 2.449 . S
O1787 C1783 1.282 . S
H1788 C1761 0.931 . S
H1789 C1763 0.929 . S
H1790 C1764 0.930 . S
H1791 C1765 0.931 . S
H1792 C1772 0.932 . S
H1793 C1773 0.930 . S
H1794 C1774 0.929 . S
H1795 C1776 0.930 . S
H1796 C1778 0.932 . S
H1797 C1779 0.929 . S
H1798 C1780 0.928 . S
H1799 C1782 0.932 . S
C1800 C1801 1.264 . S
C1800 C1805 1.479 . S
C1800 C1810 1.465 . S
C1801 C1800 1.264 . S
C1801 C1803 1.339 . S
C1801 H1828 0.931 . S
C1802 C1803 1.395 . S
C1802 C1804 1.320 . S
C1803 C1801 1.339 . S
C1803 C1802 1.395 . S
C1803 H1829 0.929 . S
C1804 C1802 1.320 . S
C1804 C1805 1.405 . S
C1804 H1830 0.930 . S
C1805 C1800 1.479 . S
C1805 C1804 1.405 . S
C1805 H1831 0.931 . S
U1806 O1807 2.454 . S
U1806 O1808 2.458 . S
U1806 C1809 2.984 . S
U1806 C1810 2.847 . S
U1806 C1823 2.882 . S
U1806 O1824 2.441 . S
U1806 O1825 2.420 . S
U1806 O1826 2.455 . S
U1806 O1827 2.449 . S
O1807 U1806 2.454 . S
O1807 C1809 1.353 . S
O1808 U1806 2.458 . S
O1808 C1809 1.286 . S
C1809 U1806 2.984 . S
C1809 O1807 1.353 . S
C1809 O1808 1.286 . S
C1809 C1811 1.363 . S
C1810 C1800 1.465 . S
C1810 U1806 2.847 . S
C1810 O1824 1.249 . S
C1810 O1825 1.202 . S
C1811 C1809 1.363 . S
C1811 C1813 1.408 . S
C1811 C1816 1.342 . S
C1812 C1813 1.310 . S
C1812 C1815 1.461 . S
C1812 H1832 0.932 . S
C1813 C1811 1.408 . S
C1813 C1812 1.310 . S
C1813 H1833 0.930 . S
C1814 C1815 1.474 . S
C1814 C1816 1.285 . S
C1814 H1834 0.929 . S
C1815 C1812 1.461 . S
C1815 C1814 1.474 . S
C1816 C1811 1.342 . S
C1816 C1814 1.285 . S
C1816 H1835 0.930 . S
C1817 C1820 1.424 . S
C1817 C1822 1.245 . S
C1817 C1823 1.428 . S
C1818 C1821 1.260 . S
C1818 C1822 1.477 . S
C1818 H1836 0.932 . S
C1819 C1820 1.384 . S
C1819 C1821 1.479 . S
C1819 H1837 0.929 . S
C1820 C1817 1.424 . S
C1820 C1819 1.384 . S
C1820 H1838 0.928 . S
C1821 C1818 1.260 . S
C1821 C1819 1.479 . S
C1822 C1817 1.245 . S
C1822 C1818 1.477 . S
C1822 H1839 0.932 . S
C1823 U1806 2.882 . S
C1823 C1817 1.428 . S
C1823 O1826 1.301 . S
C1823 O1827 1.282 . S
O1824 U1806 2.441 . S
O1824 C1810 1.249 . S
O1825 U1806 2.420 . S
O1825 C1810 1.202 . S
O1826 U1806 2.455 . S
O1826 C1823 1.301 . S
O1827 U1806 2.449 . S
O1827 C1823 1.282 . S
H1828 C1801 0.931 . S
H1829 C1803 0.929 . S
H1830 C1804 0.930 . S
H1831 C1805 0.931 . S
H1832 C1812 0.932 . S
H1833 C1813 0.930 . S
H1834 C1814 0.929 . S
H1835 C1816 0.930 . S
H1836 C1818 0.932 . S
H1837 C1819 0.929 . S
H1838 C1820 0.928 . S
H1839 C1822 0.932 . S
C1840 C1841 1.264 . S
C1840 C1845 1.479 . S
C1840 C1850 1.465 . S
C1841 C1840 1.264 . S
C1841 C1843 1.339 . S
C1841 H1868 0.931 . S
C1842 C1843 1.395 . S
C1842 C1844 1.320 . S
C1843 C1841 1.339 . S
C1843 C1842 1.395 . S
C1843 H1869 0.929 . S
C1844 C1842 1.320 . S
C1844 C1845 1.405 . S
C1844 H1870 0.930 . S
C1845 C1840 1.479 . S
C1845 C1844 1.405 . S
C1845 H1871 0.931 . S
U1846 O1847 2.454 . S
U1846 O1848 2.458 . S
U1846 C1849 2.984 . S
U1846 C1850 2.847 . S
U1846 C1863 2.882 . S
U1846 O1864 2.441 . S
U1846 O1865 2.420 . S
U1846 O1866 2.455 . S
U1846 O1867 2.449 . S
O1847 U1846 2.454 . S
O1847 C1849 1.353 . S
O1848 U1846 2.458 . S
O1848 C1849 1.286 . S
C1849 U1846 2.984 . S
C1849 O1847 1.353 . S
C1849 O1848 1.286 . S
C1849 C1851 1.363 . S
C1850 C1840 1.465 . S
C1850 U1846 2.847 . S
C1850 O1864 1.249 . S
C1850 O1865 1.202 . S
C1851 C1849 1.363 . S
C1851 C1853 1.408 . S
C1851 C1856 1.342 . S
C1852 C1853 1.310 . S
C1852 C1855 1.461 . S
C1852 H1872 0.932 . S
C1853 C1851 1.408 . S
C1853 C1852 1.310 . S
C1853 H1873 0.930 . S
C1854 C1855 1.474 . S
C1854 C1856 1.285 . S
C1854 H1874 0.929 . S
C1855 C1852 1.461 . S
C1855 C1854 1.474 . S
C1856 C1851 1.342 . S
C1856 C1854 1.285 . S
C1856 H1875 0.930 . S
C1857 C1860 1.424 . S
C1857 C1862 1.245 . S
C1857 C1863 1.428 . S
C1858 C1861 1.260 . S
C1858 C1862 1.477 . S
C1858 H1876 0.932 . S
C1859 C1860 1.384 . S
C1859 C1861 1.479 . S
C1859 H1877 0.929 . S
C1860 C1857 1.424 . S
C1860 C1859 1.384 . S
C1860 H1878 0.928 . S
C1861 C1858 1.260 . S
C1861 C1859 1.479 . S
C1862 C1857 1.245 . S
C1862 C1858 1.477 . S
C1862 H1879 0.932 . S
C1863 U1846 2.882 . S
C1863 C1857 1.428 . S
C1863 O1866 1.301 . S
C1863 O1867 1.282 . S
O1864 U1846 2.441 . S
O1864 C1850 1.249 . S
O1865 U1846 2.420 . S
O1865 C1850 1.202 . S
O1866 U1846 2.455 . S
O1866 C1863 1.301 . S
O1867 U1846 2.449 . S
O1867 C1863 1.282 . S
H1868 C1841 0.931 . S
H1869 C1843 0.929 . S
H1870 C1844 0.930 . S
H1871 C1845 0.931 . S
H1872 C1852 0.932 . S
H1873 C1853 0.930 . S
H1874 C1854 0.929 . S
H1875 C1856 0.930 . S
H1876 C1858 0.932 . S
H1877 C1859 0.929 . S
H1878 C1860 0.928 . S
H1879 C1862 0.932 . S
C1880 C1881 1.264 . S
C1880 C1885 1.479 . S
C1880 C1890 1.465 . S
C1881 C1880 1.264 . S
C1881 C1883 1.339 . S
C1881 H1908 0.931 . S
C1882 C1883 1.395 . S
C1882 C1884 1.320 . S
C1883 C1881 1.339 . S
C1883 C1882 1.395 . S
C1883 H1909 0.929 . S
C1884 C1882 1.320 . S
C1884 C1885 1.405 . S
C1884 H1910 0.930 . S
C1885 C1880 1.479 . S
C1885 C1884 1.405 . S
C1885 H1911 0.931 . S
U1886 O1887 2.454 . S
U1886 O1888 2.458 . S
U1886 C1889 2.984 . S
U1886 C1890 2.847 . S
U1886 C1903 2.882 . S
U1886 O1904 2.441 . S
U1886 O1905 2.420 . S
U1886 O1906 2.455 . S
U1886 O1907 2.449 . S
O1887 U1886 2.454 . S
O1887 C1889 1.353 . S
O1888 U1886 2.458 . S
O1888 C1889 1.286 . S
C1889 U1886 2.984 . S
C1889 O1887 1.353 . S
C1889 O1888 1.286 . S
C1889 C1891 1.363 . S
C1890 C1880 1.465 . S
C1890 U1886 2.847 . S
C1890 O1904 1.249 . S
C1890 O1905 1.202 . S
C1891 C1889 1.363 . S
C1891 C1893 1.408 . S
C1891 C1896 1.342 . S
C1892 C1893 1.310 . S
C1892 C1895 1.461 . S
C1892 H1912 0.932 . S
C1893 C1891 1.408 . S
C1893 C1892 1.310 . S
C1893 H1913 0.930 . S
C1894 C1895 1.474 . S
C1894 C1896 1.285 . S
C1894 H1914 0.929 . S
C1895 C1892 1.461 . S
C1895 C1894 1.474 . S
C1896 C1891 1.342 . S
C1896 C1894 1.285 . S
C1896 H1915 0.930 . S
C1897 C1900 1.424 . S
C1897 C1902 1.245 . S
C1897 C1903 1.428 . S
C1898 C1901 1.260 . S
C1898 C1902 1.477 . S
C1898 H1916 0.932 . S
C1899 C1900 1.384 . S
C1899 C1901 1.479 . S
C1899 H1917 0.929 . S
C1900 C1897 1.424 . S
C1900 C1899 1.384 . S
C1900 H1918 0.928 . S
C1901 C1898 1.260 . S
C1901 C1899 1.479 . S
C1902 C1897 1.245 . S
C1902 C1898 1.477 . S
C1902 H1919 0.932 . S
C1903 U1886 2.882 . S
C1903 C1897 1.428 . S
C1903 O1906 1.301 . S
C1903 O1907 1.282 . S
O1904 U1886 2.441 . S
O1904 C1890 1.249 . S
O1905 U1886 2.420 . S
O1905 C1890 1.202 . S
O1906 U1886 2.455 . S
O1906 C1903 1.301 . S
O1907 U1886 2.449 . S
O1907 C1903 1.282 . S
H1908 C1881 0.931 . S
H1909 C1883 0.929 . S
H1910 C1884 0.930 . S
H1911 C1885 0.931 . S
H1912 C1892 0.932 . S
H1913 C1893 0.930 . S
H1914 C1894 0.929 . S
H1915 C1896 0.930 . S
H1916 C1898 0.932 . S
H1917 C1899 0.929 . S
H1918 C1900 0.928 . S
H1919 C1902 0.932 . S
C1920 C1921 1.264 . S
C1920 C1925 1.479 . S
C1920 C1930 1.465 . S
C1921 C1920 1.264 . S
C1921 C1923 1.339 . S
C1921 H1948 0.931 . S
C1922 C1923 1.395 . S
C1922 C1924 1.320 . S
C1923 C1921 1.339 . S
C1923 C1922 1.395 . S
C1923 H1949 0.929 . S
C1924 C1922 1.320 . S
C1924 C1925 1.405 . S
C1924 H1950 0.930 . S
C1925 C1920 1.479 . S
C1925 C1924 1.405 . S
C1925 H1951 0.931 . S
U1926 O1927 2.454 . S
U1926 O1928 2.458 . S
U1926 C1929 2.984 . S
U1926 C1930 2.847 . S
U1926 C1943 2.882 . S
U1926 O1944 2.441 . S
U1926 O1945 2.420 . S
U1926 O1946 2.455 . S
U1926 O1947 2.449 . S
O1927 U1926 2.454 . S
O1927 C1929 1.353 . S
O1928 U1926 2.458 . S
O1928 C1929 1.286 . S
C1929 U1926 2.984 . S
C1929 O1927 1.353 . S
C1929 O1928 1.286 . S
C1929 C1931 1.363 . S
C1930 C1920 1.465 . S
C1930 U1926 2.847 . S
C1930 O1944 1.249 . S
C1930 O1945 1.202 . S
C1931 C1929 1.363 . S
C1931 C1933 1.408 . S
C1931 C1936 1.342 . S
C1932 C1933 1.310 . S
C1932 C1935 1.461 . S
C1932 H1952 0.932 . S
C1933 C1931 1.408 . S
C1933 C1932 1.310 . S
C1933 H1953 0.930 . S
C1934 C1935 1.474 . S
C1934 C1936 1.285 . S
C1934 H1954 0.929 . S
C1935 C1932 1.461 . S
C1935 C1934 1.474 . S
C1936 C1931 1.342 . S
C1936 C1934 1.285 . S
C1936 H1955 0.930 . S
C1937 C1940 1.424 . S
C1937 C1942 1.245 . S
C1937 C1943 1.428 . S
C1938 C1941 1.260 . S
C1938 C1942 1.477 . S
C1938 H1956 0.932 . S
C1939 C1940 1.384 . S
C1939 C1941 1.479 . S
C1939 H1957 0.929 . S
C1940 C1937 1.424 . S
C1940 C1939 1.384 . S
C1940 H1958 0.928 . S
C1941 C1938 1.260 . S
C1941 C1939 1.479 . S
C1942 C1937 1.245 . S
C1942 C1938 1.477 . S
C1942 H1959 0.932 . S
C1943 U1926 2.882 . S
C1943 C1937 1.428 . S
C1943 O1946 1.301 . S
C1943 O1947 1.282 . S
O1944 U1926 2.441 . S
O1944 C1930 1.249 . S
O1945 U1926 2.420 . S
O1945 C1930 1.202 . S
O1946 U1926 2.455 . S
O1946 C1943 1.301 . S
O1947 U1926 2.449 . S
O1947 C1943 1.282 . S
H1948 C1921 0.931 . S
H1949 C1923 0.929 . S
H1950 C1924 0.930 . S
H1951 C1925 0.931 . S
H1952 C1932 0.932 . S
H1953 C1933 0.930 . S
H1954 C1934 0.929 . S
H1955 C1936 0.930 . S
H1956 C1938 0.932 . S
H1957 C1939 0.929 . S
H1958 C1940 0.928 . S
H1959 C1942 0.932 . S
C1960 C1961 1.264 . S
C1960 C1965 1.479 . S
C1960 C1970 1.465 . S
C1961 C1960 1.264 . S
C1961 C1963 1.339 . S
C1961 H1988 0.931 . S
C1962 C1963 1.395 . S
C1962 C1964 1.320 . S
C1963 C1961 1.339 . S
C1963 C1962 1.395 . S
C1963 H1989 0.929 . S
C1964 C1962 1.320 . S
C1964 C1965 1.405 . S
C1964 H1990 0.930 . S
C1965 C1960 1.479 . S
C1965 C1964 1.405 . S
C1965 H1991 0.931 . S
U1966 O1967 2.454 . S
U1966 O1968 2.458 . S
U1966 C1969 2.984 . S
U1966 C1970 2.847 . S
U1966 C1983 2.882 . S
U1966 O1984 2.441 . S
U1966 O1985 2.420 . S
U1966 O1986 2.455 . S
U1966 O1987 2.449 . S
O1967 U1966 2.454 . S
O1967 C1969 1.353 . S
O1968 U1966 2.458 . S
O1968 C1969 1.286 . S
C1969 U1966 2.984 . S
C1969 O1967 1.353 . S
C1969 O1968 1.286 . S
C1969 C1971 1.363 . S
C1970 C1960 1.465 . S
C1970 U1966 2.847 . S
C1970 O1984 1.249 . S
C1970 O1985 1.202 . S
C1971 C1969 1.363 . S
C1971 C1973 1.408 . S
C1971 C1976 1.342 . S
C1972 C1973 1.310 . S
C1972 C1975 1.461 . S
C1972 H1992 0.932 . S
C1973 C1971 1.408 . S
C1973 C1972 1.310 . S
C1973 H1993 0.930 . S
C1974 C1975 1.474 . S
C1974 C1976 1.285 . S
C1974 H1994 0.929 . S
C1975 C1972 1.461 . S
C1975 C1974 1.474 . S
C1976 C1971 1.342 . S
C1976 C1974 1.285 . S
C1976 H1995 0.930 . S
C1977 C1980 1.424 . S
C1977 C1982 1.245 . S
C1977 C1983 1.428 . S
C1978 C1981 1.260 . S
C1978 C1982 1.477 . S
C1978 H1996 0.932 . S
C1979 C1980 1.384 . S
C1979 C1981 1.479 . S
C1979 H1997 0.929 . S
C1980 C1977 1.424 . S
C1980 C1979 1.384 . S
C1980 H1998 0.928 . S
C1981 C1978 1.260 . S
C1981 C1979 1.479 . S
C1982 C1977 1.245 . S
C1982 C1978 1.477 . S
C1982 H1999 0.932 . S
C1983 U1966 2.882 . S
C1983 C1977 1.428 . S
C1983 O1986 1.301 . S
C1983 O1987 1.282 . S
O1984 U1966 2.441 . S
O1984 C1970 1.249 . S
O1985 U1966 2.420 . S
O1985 C1970 1.202 . S
O1986 U1966 2.455 . S
O1986 C1983 1.301 . S
O1987 U1966 2.449 . S
O1987 C1983 1.282 . S
H1988 C1961 0.931 . S
H1989 C1963 0.929 . S
H1990 C1964 0.930 . S
H1991 C1965 0.931 . S
H1992 C1972 0.932 . S
H1993 C1973 0.930 . S
H1994 C1974 0.929 . S
H1995 C1976 0.930 . S
H1996 C1978 0.932 . S
H1997 C1979 0.929 . S
H1998 C1980 0.928 . S
H1999 C1982 0.932 . S
C2000 C2001 1.264 . S
C2000 C2005 1.479 . S
C2000 C2010 1.465 . S
C2001 C2000 1.264 . S
C2001 C2003 1.339 . S
C2001 H2028 0.931 . S
C2002 C2003 1.395 . S
C2002 C2004 1.320 . S
C2003 C2001 1.339 . S
C2003 C2002 1.395 . S
C2003 H2029 0.929 . S
C2004 C2002 1.320 . S
C2004 C2005 1.405 . S
C2004 H2030 0.930 . S
C2005 C2000 1.479 . S
C2005 C2004 1.405 . S
C2005 H2031 0.931 . S
U2006 O2007 2.454 . S
U2006 O2008 2.458 . S
U2006 C2009 2.984 . S
U2006 C2010 2.847 . S
U2006 C2023 2.882 . S
U2006 O2024 2.441 . S
U2006 O2025 2.420 . S
U2006 O2026 2.455 . S
U2006 O2027 2.449 . S
O2007 U2006 2.454 . S
O2007 C2009 1.353 . S
O2008 U2006 2.458 . S
O2008 C2009 1.286 . S
C2009 U2006 2.984 . S
C2009 O2007 1.353 . S
C2009 O2008 1.286 . S
C2009 C2011 1.363 . S
C2010 C2000 1.465 . S
C2010 U2006 2.847 . S
C2010 O2024 1.249 . S
C2010 O2025 1.202 . S
C2011 C2009 1.363 . S
C2011 C2013 1.408 . S
C2011 C2016 1.342 . S
C2012 C2013 1.310 . S
C2012 C2015 1.461 . S
C2012 H2032 0.932 . S
C2013 C2011 1.408 . S
C2013 C2012 1.310 . S
C2013 H2033 0.930 . S
C2014 C2015 1.474 . S
C2014 C2016 1.285 . S
C2014 H2034 0.929 . S
C2015 C2012 1.461 . S
C2015 C2014 1.474 . S
C2016 C2011 1.342 . S
C2016 C2014 1.285 . S
C2016 H2035 0.930 . S
C2017 C2020 1.424 . S
C2017 C2022 1.245 . S
C2017 C2023 1.428 . S
C2018 C2021 1.260 . S
C2018 C2022 1.477 . S
C2018 H2036 0.932 . S
C2019 C2020 1.384 . S
C2019 C2021 1.479 . S
C2019 H2037 0.929 . S
C2020 C2017 1.424 . S
C2020 C2019 1.384 . S
C2020 H2038 0.928 . S
C2021 C2018 1.260 . S
C2021 C2019 1.479 . S
C2022 C2017 1.245 . S
C2022 C2018 1.477 . S
C2022 H2039 0.932 . S
C2023 U2006 2.882 . S
C2023 C2017 1.428 . S
C2023 O2026 1.301 . S
C2023 O2027 1.282 . S
O2024 U2006 2.441 . S
O2024 C2010 1.249 . S
O2025 U2006 2.420 . S
O2025 C2010 1.202 . S
O2026 U2006 2.455 . S
O2026 C2023 1.301 . S
O2027 U2006 2.449 . S
O2027 C2023 1.282 . S
H2028 C2001 0.931 . S
H2029 C2003 0.929 . S
H2030 C2004 0.930 . S
H2031 C2005 0.931 . S
H2032 C2012 0.932 . S
H2033 C2013 0.930 . S
H2034 C2014 0.929 . S
H2035 C2016 0.930 . S
H2036 C2018 0.932 . S
H2037 C2019 0.929 . S
H2038 C2020 0.928 . S
H2039 C2022 0.932 . S
C2040 C2041 1.264 . S
C2040 C2045 1.479 . S
C2040 C2050 1.465 . S
C2041 C2040 1.264 . S
C2041 C2043 1.339 . S
C2041 H2068 0.931 . S
C2042 C2043 1.395 . S
C2042 C2044 1.320 . S
C2043 C2041 1.339 . S
C2043 C2042 1.395 . S
C2043 H2069 0.929 . S
C2044 C2042 1.320 . S
C2044 C2045 1.405 . S
C2044 H2070 0.930 . S
C2045 C2040 1.479 . S
C2045 C2044 1.405 . S
C2045 H2071 0.931 . S
U2046 O2047 2.454 . S
U2046 O2048 2.458 . S
U2046 C2049 2.984 . S
U2046 C2050 2.847 . S
U2046 C2063 2.882 . S
U2046 O2064 2.441 . S
U2046 O2065 2.420 . S
U2046 O2066 2.455 . S
U2046 O2067 2.449 . S
O2047 U2046 2.454 . S
O2047 C2049 1.353 . S
O2048 U2046 2.458 . S
O2048 C2049 1.286 . S
C2049 U2046 2.984 . S
C2049 O2047 1.353 . S
C2049 O2048 1.286 . S
C2049 C2051 1.363 . S
C2050 C2040 1.465 . S
C2050 U2046 2.847 . S
C2050 O2064 1.249 . S
C2050 O2065 1.202 . S
C2051 C2049 1.363 . S
C2051 C2053 1.408 . S
C2051 C2056 1.342 . S
C2052 C2053 1.310 . S
C2052 C2055 1.461 . S
C2052 H2072 0.932 . S
C2053 C2051 1.408 . S
C2053 C2052 1.310 . S
C2053 H2073 0.930 . S
C2054 C2055 1.474 . S
C2054 C2056 1.285 . S
C2054 H2074 0.929 . S
C2055 C2052 1.461 . S
C2055 C2054 1.474 . S
C2056 C2051 1.342 . S
C2056 C2054 1.285 . S
C2056 H2075 0.930 . S
C2057 C2060 1.424 . S
C2057 C2062 1.245 . S
C2057 C2063 1.428 . S
C2058 C2061 1.260 . S
C2058 C2062 1.477 . S
C2058 H2076 0.932 . S
C2059 C2060 1.384 . S
C2059 C2061 1.479 . S
C2059 H2077 0.929 . S
C2060 C2057 1.424 . S
C2060 C2059 1.384 . S
C2060 H2078 0.928 . S
C2061 C2058 1.260 . S
C2061 C2059 1.479 . S
C2062 C2057 1.245 . S
C2062 C2058 1.477 . S
C2062 H2079 0.932 . S
C2063 U2046 2.882 . S
C2063 C2057 1.428 . S
C2063 O2066 1.301 . S
C2063 O2067 1.282 . S
O2064 U2046 2.441 . S
O2064 C2050 1.249 . S
O2065 U2046 2.420 . S
O2065 C2050 1.202 . S
O2066 U2046 2.455 . S
O2066 C2063 1.301 . S
O2067 U2046 2.449 . S
O2067 C2063 1.282 . S
H2068 C2041 0.931 . S
H2069 C2043 0.929 . S
H2070 C2044 0.930 . S
H2071 C2045 0.931 . S
H2072 C2052 0.932 . S
H2073 C2053 0.930 . S
H2074 C2054 0.929 . S
H2075 C2056 0.930 . S
H2076 C2058 0.932 . S
H2077 C2059 0.929 . S
H2078 C2060 0.928 . S
H2079 C2062 0.932 . S
C2080 C2081 1.264 . S
C2080 C2085 1.479 . S
C2080 C2090 1.465 . S
C2081 C2080 1.264 . S
C2081 C2083 1.339 . S
C2081 H2108 0.931 . S
C2082 C2083 1.395 . S
C2082 C2084 1.320 . S
C2083 C2081 1.339 . S
C2083 C2082 1.395 . S
C2083 H2109 0.929 . S
C2084 C2082 1.320 . S
C2084 C2085 1.405 . S
C2084 H2110 0.930 . S
C2085 C2080 1.479 . S
C2085 C2084 1.405 . S
C2085 H2111 0.931 . S
U2086 O2087 2.454 . S
U2086 O2088 2.458 . S
U2086 C2089 2.984 . S
U2086 C2090 2.847 . S
U2086 C2103 2.882 . S
U2086 O2104 2.441 . S
U2086 O2105 2.420 . S
U2086 O2106 2.455 . S
U2086 O2107 2.449 . S
O2087 U2086 2.454 . S
O2087 C2089 1.353 . S
O2088 U2086 2.458 . S
O2088 C2089 1.286 . S
C2089 U2086 2.984 . S
C2089 O2087 1.353 . S
C2089 O2088 1.286 . S
C2089 C2091 1.363 . S
C2090 C2080 1.465 . S
C2090 U2086 2.847 . S
C2090 O2104 1.249 . S
C2090 O2105 1.202 . S
C2091 C2089 1.363 . S
C2091 C2093 1.408 . S
C2091 C2096 1.342 . S
C2092 C2093 1.310 . S
C2092 C2095 1.461 . S
C2092 H2112 0.932 . S
C2093 C2091 1.408 . S
C2093 C2092 1.310 . S
C2093 H2113 0.930 . S
C2094 C2095 1.474 . S
C2094 C2096 1.285 . S
C2094 H2114 0.929 . S
C2095 C2092 1.461 . S
C2095 C2094 1.474 . S
C2096 C2091 1.342 . S
C2096 C2094 1.285 . S
C2096 H2115 0.930 . S
C2097 C2100 1.424 . S
C2097 C2102 1.245 . S
C2097 C2103 1.428 . S
C2098 C2101 1.260 . S
C2098 C2102 1.477 . S
C2098 H2116 0.932 . S
C2099 C2100 1.384 . S
C2099 C2101 1.479 . S
C2099 H2117 0.929 . S
C2100 C2097 1.424 . S
C2100 C2099 1.384 . S
C2100 H2118 0.928 . S
C2101 C2098 1.260 . S
C2101 C2099 1.479 . S
C2102 C2097 1.245 . S
C2102 C2098 1.477 . S
C2102 H2119 0.932 . S
C2103 U2086 2.882 . S
C2103 C2097 1.428 . S
C2103 O2106 1.301 . S
C2103 O2107 1.282 . S
O2104 U2086 2.441 . S
O2104 C2090 1.249 . S
O2105 U2086 2.420 . S
O2105 C2090 1.202 . S
O2106 U2086 2.455 . S
O2106 C2103 1.301 . S
O2107 U2086 2.449 . S
O2107 C2103 1.282 . S
H2108 C2081 0.931 . S
H2109 C2083 0.929 . S
H2110 C2084 0.930 . S
H2111 C2085 0.931 . S
H2112 C2092 0.932 . S
H2113 C2093 0.930 . S
H2114 C2094 0.929 . S
H2115 C2096 0.930 . S
H2116 C2098 0.932 . S
H2117 C2099 0.929 . S
H2118 C2100 0.928 . S
H2119 C2102 0.932 . S
C2120 C2121 1.264 . S
C2120 C2125 1.479 . S
C2120 C2130 1.465 . S
C2121 C2120 1.264 . S
C2121 C2123 1.339 . S
C2121 H2148 0.931 . S
C2122 C2123 1.395 . S
C2122 C2124 1.320 . S
C2123 C2121 1.339 . S
C2123 C2122 1.395 . S
C2123 H2149 0.929 . S
C2124 C2122 1.320 . S
C2124 C2125 1.405 . S
C2124 H2150 0.930 . S
C2125 C2120 1.479 . S
C2125 C2124 1.405 . S
C2125 H2151 0.931 . S
U2126 O2127 2.454 . S
U2126 O2128 2.458 . S
U2126 C2129 2.984 . S
U2126 C2130 2.847 . S
U2126 C2143 2.882 . S
U2126 O2144 2.441 . S
U2126 O2145 2.420 . S
U2126 O2146 2.455 . S
U2126 O2147 2.449 . S
O2127 U2126 2.454 . S
O2127 C2129 1.353 . S
O2128 U2126 2.458 . S
O2128 C2129 1.286 . S
C2129 U2126 2.984 . S
C2129 O2127 1.353 . S
C2129 O2128 1.286 . S
C2129 C2131 1.363 . S
C2130 C2120 1.465 . S
C2130 U2126 2.847 . S
C2130 O2144 1.249 . S
C2130 O2145 1.202 . S
C2131 C2129 1.363 . S
C2131 C2133 1.408 . S
C2131 C2136 1.342 . S
C2132 C2133 1.310 . S
C2132 C2135 1.461 . S
C2132 H2152 0.932 . S
C2133 C2131 1.408 . S
C2133 C2132 1.310 . S
C2133 H2153 0.930 . S
C2134 C2135 1.474 . S
C2134 C2136 1.285 . S
C2134 H2154 0.929 . S
C2135 C2132 1.461 . S
C2135 C2134 1.474 . S
C2136 C2131 1.342 . S
C2136 C2134 1.285 . S
C2136 H2155 0.930 . S
C2137 C2140 1.424 . S
C2137 C2142 1.245 . S
C2137 C2143 1.428 . S
C2138 C2141 1.260 . S
C2138 C2142 1.477 . S
C2138 H2156 0.932 . S
C2139 C2140 1.384 . S
C2139 C2141 1.479 . S
C2139 H2157 0.929 . S
C2140 C2137 1.424 . S
C2140 C2139 1.384 . S
C2140 H2158 0.928 . S
C2141 C2138 1.260 . S
C2141 C2139 1.479 . S
C2142 C2137 1.245 . S
C2142 C2138 1.477 . S
C2142 H2159 0.932 . S
C2143 U2126 2.882 . S
C2143 C2137 1.428 . S
C2143 O2146 1.301 . S
C2143 O2147 1.282 . S
O2144 U2126 2.441 . S
O2144 C2130 1.249 . S
O2145 U2126 2.420 . S
O2145 C2130 1.202 . S
O2146 U2126 2.455 . S
O2146 C2143 1.301 . S
O2147 U2126 2.449 . S
O2147 C2143 1.282 . S
H2148 C2121 0.931 . S
H2149 C2123 0.929 . S
H2150 C2124 0.930 . S
H2151 C2125 0.931 . S
H2152 C2132 0.932 . S
H2153 C2133 0.930 . S
H2154 C2134 0.929 . S
H2155 C2136 0.930 . S
H2156 C2138 0.932 . S
H2157 C2139 0.929 . S
H2158 C2140 0.928 . S
H2159 C2142 0.932 . S
C2160 C2161 1.264 . S
C2160 C2165 1.479 . S
C2160 C2170 1.465 . S
C2161 C2160 1.264 . S
C2161 C2163 1.339 . S
C2161 H2188 0.931 . S
C2162 C2163 1.395 . S
C2162 C2164 1.320 . S
C2163 C2161 1.339 . S
C2163 C2162 1.395 . S
C2163 H2189 0.929 . S
C2164 C2162 1.320 . S
C2164 C2165 1.405 . S
C2164 H2190 0.930 . S
C2165 C2160 1.479 . S
C2165 C2164 1.405 . S
C2165 H2191 0.931 . S
U2166 O2167 2.454 . S
U2166 O2168 2.458 . S
U2166 C2169 2.984 . S
U2166 C2170 2.847 . S
U2166 C2183 2.882 . S
U2166 O2184 2.441 . S
U2166 O2185 2.420 . S
U2166 O2186 2.455 . S
U2166 O2187 2.449 . S
O2167 U2166 2.454 . S
O2167 C2169 1.353 . S
O2168 U2166 2.458 . S
O2168 C2169 1.286 . S
C2169 U2166 2.984 . S
C2169 O2167 1.353 . S
C2169 O2168 1.286 . S
C2169 C2171 1.363 . S
C2170 C2160 1.465 . S
C2170 U2166 2.847 . S
C2170 O2184 1.249 . S
C2170 O2185 1.202 . S
C2171 C2169 1.363 . S
C2171 C2173 1.408 . S
C2171 C2176 1.342 . S
C2172 C2173 1.310 . S
C2172 C2175 1.461 . S
C2172 H2192 0.932 . S
C2173 C2171 1.408 . S
C2173 C2172 1.310 . S
C2173 H2193 0.930 . S
C2174 C2175 1.474 . S
C2174 C2176 1.285 . S
C2174 H2194 0.929 . S
C2175 C2172 1.461 . S
C2175 C2174 1.474 . S
C2176 C2171 1.342 . S
C2176 C2174 1.285 . S
C2176 H2195 0.930 . S
C2177 C2180 1.424 . S
C2177 C2182 1.245 . S
C2177 C2183 1.428 . S
C2178 C2181 1.260 . S
C2178 C2182 1.477 . S
C2178 H2196 0.932 . S
C2179 C2180 1.384 . S
C2179 C2181 1.479 . S
C2179 H2197 0.929 . S
C2180 C2177 1.424 . S
C2180 C2179 1.384 . S
C2180 H2198 0.928 . S
C2181 C2178 1.260 . S
C2181 C2179 1.479 . S
C2182 C2177 1.245 . S
C2182 C2178 1.477 . S
C2182 H2199 0.932 . S
C2183 U2166 2.882 . S
C2183 C2177 1.428 . S
C2183 O2186 1.301 . S
C2183 O2187 1.282 . S
O2184 U2166 2.441 . S
O2184 C2170 1.249 . S
O2185 U2166 2.420 . S
O2185 C2170 1.202 . S
O2186 U2166 2.455 . S
O2186 C2183 1.301 . S
O2187 U2166 2.449 . S
O2187 C2183 1.282 . S
H2188 C2161 0.931 . S
H2189 C2163 0.929 . S
H2190 C2164 0.930 . S
H2191 C2165 0.931 . S
H2192 C2172 0.932 . S
H2193 C2173 0.930 . S
H2194 C2174 0.929 . S
H2195 C2176 0.930 . S
H2196 C2178 0.932 . S
H2197 C2179 0.929 . S
H2198 C2180 0.928 . S
H2199 C2182 0.932 . S
C2200 C2201 1.264 . S
C2200 C2205 1.479 . S
C2200 C2210 1.465 . S
C2201 C2200 1.264 . S
C2201 C2203 1.339 . S
C2201 H2228 0.931 . S
C2202 C2203 1.395 . S
C2202 C2204 1.320 . S
C2203 C2201 1.339 . S
C2203 C2202 1.395 . S
C2203 H2229 0.929 . S
C2204 C2202 1.320 . S
C2204 C2205 1.405 . S
C2204 H2230 0.930 . S
C2205 C2200 1.479 . S
C2205 C2204 1.405 . S
C2205 H2231 0.931 . S
U2206 O2207 2.454 . S
U2206 O2208 2.458 . S
U2206 C2209 2.984 . S
U2206 C2210 2.847 . S
U2206 C2223 2.882 . S
U2206 O2224 2.441 . S
U2206 O2225 2.420 . S
U2206 O2226 2.455 . S
U2206 O2227 2.449 . S
O2207 U2206 2.454 . S
O2207 C2209 1.353 . S
O2208 U2206 2.458 . S
O2208 C2209 1.286 . S
C2209 U2206 2.984 . S
C2209 O2207 1.353 . S
C2209 O2208 1.286 . S
C2209 C2211 1.363 . S
C2210 C2200 1.465 . S
C2210 U2206 2.847 . S
C2210 O2224 1.249 . S
C2210 O2225 1.202 . S
C2211 C2209 1.363 . S
C2211 C2213 1.408 . S
C2211 C2216 1.342 . S
C2212 C2213 1.310 . S
C2212 C2215 1.461 . S
C2212 H2232 0.932 . S
C2213 C2211 1.408 . S
C2213 C2212 1.310 . S
C2213 H2233 0.930 . S
C2214 C2215 1.474 . S
C2214 C2216 1.285 . S
C2214 H2234 0.929 . S
C2215 C2212 1.461 . S
C2215 C2214 1.474 . S
C2216 C2211 1.342 . S
C2216 C2214 1.285 . S
C2216 H2235 0.930 . S
C2217 C2220 1.424 . S
C2217 C2222 1.245 . S
C2217 C2223 1.428 . S
C2218 C2221 1.260 . S
C2218 C2222 1.477 . S
C2218 H2236 0.932 . S
C2219 C2220 1.384 . S
C2219 C2221 1.479 . S
C2219 H2237 0.929 . S
C2220 C2217 1.424 . S
C2220 C2219 1.384 . S
C2220 H2238 0.928 . S
C2221 C2218 1.260 . S
C2221 C2219 1.479 . S
C2222 C2217 1.245 . S
C2222 C2218 1.477 . S
C2222 H2239 0.932 . S
C2223 U2206 2.882 . S
C2223 C2217 1.428 . S
C2223 O2226 1.301 . S
C2223 O2227 1.282 . S
O2224 U2206 2.441 . S
O2224 C2210 1.249 . S
O2225 U2206 2.420 . S
O2225 C2210 1.202 . S
O2226 U2206 2.455 . S
O2226 C2223 1.301 . S
O2227 U2206 2.449 . S
O2227 C2223 1.282 . S
H2228 C2201 0.931 . S
H2229 C2203 0.929 . S
H2230 C2204 0.930 . S
H2231 C2205 0.931 . S
H2232 C2212 0.932 . S
H2233 C2213 0.930 . S
H2234 C2214 0.929 . S
H2235 C2216 0.930 . S
H2236 C2218 0.932 . S
H2237 C2219 0.929 . S
H2238 C2220 0.928 . S
H2239 C2222 0.932 . S
C2240 C2241 1.264 . S
C2240 C2245 1.479 . S
C2240 C2250 1.465 . S
C2241 C2240 1.264 . S
C2241 C2243 1.339 . S
C2241 H2268 0.931 . S
C2242 C2243 1.395 . S
C2242 C2244 1.320 . S
C2243 C2241 1.339 . S
C2243 C2242 1.395 . S
C2243 H2269 0.929 . S
C2244 C2242 1.320 . S
C2244 C2245 1.405 . S
C2244 H2270 0.930 . S
C2245 C2240 1.479 . S
C2245 C2244 1.405 . S
C2245 H2271 0.931 . S
U2246 O2247 2.454 . S
U2246 O2248 2.458 . S
U2246 C2249 2.984 . S
U2246 C2250 2.847 . S
U2246 C2263 2.882 . S
U2246 O2264 2.441 . S
U2246 O2265 2.420 . S
U2246 O2266 2.455 . S
U2246 O2267 2.449 . S
O2247 U2246 2.454 . S
O2247 C2249 1.353 . S
O2248 U2246 2.458 . S
O2248 C2249 1.286 . S
C2249 U2246 2.984 . S
C2249 O2247 1.353 . S
C2249 O2248 1.286 . S
C2249 C2251 1.363 . S
C2250 C2240 1.465 . S
C2250 U2246 2.847 . S
C2250 O2264 1.249 . S
C2250 O2265 1.202 . S
C2251 C2249 1.363 . S
C2251 C2253 1.408 . S
C2251 C2256 1.342 . S
C2252 C2253 1.310 . S
C2252 C2255 1.461 . S
C2252 H2272 0.932 . S
C2253 C2251 1.408 . S
C2253 C2252 1.310 . S
C2253 H2273 0.930 . S
C2254 C2255 1.474 . S
C2254 C2256 1.285 . S
C2254 H2274 0.929 . S
C2255 C2252 1.461 . S
C2255 C2254 1.474 . S
C2256 C2251 1.342 . S
C2256 C2254 1.285 . S
C2256 H2275 0.930 . S
C2257 C2260 1.424 . S
C2257 C2262 1.245 . S
C2257 C2263 1.428 . S
C2258 C2261 1.260 . S
C2258 C2262 1.477 . S
C2258 H2276 0.932 . S
C2259 C2260 1.384 . S
C2259 C2261 1.479 . S
C2259 H2277 0.929 . S
C2260 C2257 1.424 . S
C2260 C2259 1.384 . S
C2260 H2278 0.928 . S
C2261 C2258 1.260 . S
C2261 C2259 1.479 . S
C2262 C2257 1.245 . S
C2262 C2258 1.477 . S
C2262 H2279 0.932 . S
C2263 U2246 2.882 . S
C2263 C2257 1.428 . S
C2263 O2266 1.301 . S
C2263 O2267 1.282 . S
O2264 U2246 2.441 . S
O2264 C2250 1.249 . S
O2265 U2246 2.420 . S
O2265 C2250 1.202 . S
O2266 U2246 2.455 . S
O2266 C2263 1.301 . S
O2267 U2246 2.449 . S
O2267 C2263 1.282 . S
H2268 C2241 0.931 . S
H2269 C2243 0.929 . S
H2270 C2244 0.930 . S
H2271 C2245 0.931 . S
H2272 C2252 0.932 . S
H2273 C2253 0.930 . S
H2274 C2254 0.929 . S
H2275 C2256 0.930 . S
H2276 C2258 0.932 . S
H2277 C2259 0.929 . S
H2278 C2260 0.928 . S
H2279 C2262 0.932 . S
C2280 C2281 1.264 . S
C2280 C2285 1.479 . S
C2280 C2290 1.465 . S
C2281 C2280 1.264 . S
C2281 C2283 1.339 . S
C2281 H2308 0.931 . S
C2282 C2283 1.395 . S
C2282 C2284 1.320 . S
C2283 C2281 1.339 . S
C2283 C2282 1.395 . S
C2283 H2309 0.929 . S
C2284 C2282 1.320 . S
C2284 C2285 1.405 . S
C2284 H2310 0.930 . S
C2285 C2280 1.479 . S
C2285 C2284 1.405 . S
C2285 H2311 0.931 . S
U2286 O2287 2.454 . S
U2286 O2288 2.458 . S
U2286 C2289 2.984 . S
U2286 C2290 2.847 . S
U2286 C2303 2.882 . S
U2286 O2304 2.441 . S
U2286 O2305 2.420 . S
U2286 O2306 2.455 . S
U2286 O2307 2.449 . S
O2287 U2286 2.454 . S
O2287 C2289 1.353 . S
O2288 U2286 2.458 . S
O2288 C2289 1.286 . S
C2289 U2286 2.984 . S
C2289 O2287 1.353 . S
C2289 O2288 1.286 . S
C2289 C2291 1.363 . S
C2290 C2280 1.465 . S
C2290 U2286 2.847 . S
C2290 O2304 1.249 . S
C2290 O2305 1.202 . S
C2291 C2289 1.363 . S
C2291 C2293 1.408 . S
C2291 C2296 1.342 . S
C2292 C2293 1.310 . S
C2292 C2295 1.461 . S
C2292 H2312 0.932 . S
C2293 C2291 1.408 . S
C2293 C2292 1.310 . S
C2293 H2313 0.930 . S
C2294 C2295 1.474 . S
C2294 C2296 1.285 . S
C2294 H2314 0.929 . S
C2295 C2292 1.461 . S
C2295 C2294 1.474 . S
C2296 C2291 1.342 . S
C2296 C2294 1.285 . S
C2296 H2315 0.930 . S
C2297 C2300 1.424 . S
C2297 C2302 1.245 . S
C2297 C2303 1.428 . S
C2298 C2301 1.260 . S
C2298 C2302 1.477 . S
C2298 H2316 0.932 . S
C2299 C2300 1.384 . S
C2299 C2301 1.479 . S
C2299 H2317 0.929 . S
C2300 C2297 1.424 . S
C2300 C2299 1.384 . S
C2300 H2318 0.928 . S
C2301 C2298 1.260 . S
C2301 C2299 1.479 . S
C2302 C2297 1.245 . S
C2302 C2298 1.477 . S
C2302 H2319 0.932 . S
C2303 U2286 2.882 . S
C2303 C2297 1.428 . S
C2303 O2306 1.301 . S
C2303 O2307 1.282 . S
O2304 U2286 2.441 . S
O2304 C2290 1.249 . S
O2305 U2286 2.420 . S
O2305 C2290 1.202 . S
O2306 U2286 2.455 . S
O2306 C2303 1.301 . S
O2307 U2286 2.449 . S
O2307 C2303 1.282 . S
H2308 C2281 0.931 . S
H2309 C2283 0.929 . S
H2310 C2284 0.930 . S
H2311 C2285 0.931 . S
H2312 C2292 0.932 . S
H2313 C2293 0.930 . S
H2314 C2294 0.929 . S
H2315 C2296 0.930 . S
H2316 C2298 0.932 . S
H2317 C2299 0.929 . S
H2318 C2300 0.928 . S
H2319 C2302 0.932 . S
C2320 C2321 1.264 . S
C2320 C2325 1.479 . S
C2320 C2330 1.465 . S
C2321 C2320 1.264 . S
C2321 C2323 1.339 . S
C2321 H2348 0.931 . S
C2322 C2323 1.395 . S
C2322 C2324 1.320 . S
C2323 C2321 1.339 . S
C2323 C2322 1.395 . S
C2323 H2349 0.929 . S
C2324 C2322 1.320 . S
C2324 C2325 1.405 . S
C2324 H2350 0.930 . S
C2325 C2320 1.479 . S
C2325 C2324 1.405 . S
C2325 H2351 0.931 . S
U2326 O2327 2.454 . S
U2326 O2328 2.458 . S
U2326 C2329 2.984 . S
U2326 C2330 2.847 . S
U2326 C2343 2.882 . S
U2326 O2344 2.441 . S
U2326 O2345 2.420 . S
U2326 O2346 2.455 . S
U2326 O2347 2.449 . S
O2327 U2326 2.454 . S
O2327 C2329 1.353 . S
O2328 U2326 2.458 . S
O2328 C2329 1.286 . S
C2329 U2326 2.984 . S
C2329 O2327 1.353 . S
C2329 O2328 1.286 . S
C2329 C2331 1.363 . S
C2330 C2320 1.465 . S
C2330 U2326 2.847 . S
C2330 O2344 1.249 . S
C2330 O2345 1.202 . S
C2331 C2329 1.363 . S
C2331 C2333 1.408 . S
C2331 C2336 1.342 . S
C2332 C2333 1.310 . S
C2332 C2335 1.461 . S
C2332 H2352 0.932 . S
C2333 C2331 1.408 . S
C2333 C2332 1.310 . S
C2333 H2353 0.930 . S
C2334 C2335 1.474 . S
C2334 C2336 1.285 . S
C2334 H2354 0.929 . S
C2335 C2332 1.461 . S
C2335 C2334 1.474 . S
C2336 C2331 1.342 . S
C2336 C2334 1.285 . S
C2336 H2355 0.930 . S
C2337 C2340 1.424 . S
C2337 C2342 1.245 . S
C2337 C2343 1.428 . S
C2338 C2341 1.260 . S
C2338 C2342 1.477 . S
C2338 H2356 0.932 . S
C2339 C2340 1.384 . S
C2339 C2341 1.479 . S
C2339 H2357 0.929 . S
C2340 C2337 1.424 . S
C2340 C2339 1.384 . S
C2340 H2358 0.928 . S
C2341 C2338 1.260 . S
C2341 C2339 1.479 . S
C2342 C2337 1.245 . S
C2342 C2338 1.477 . S
C2342 H2359 0.932 . S
C2343 U2326 2.882 . S
C2343 C2337 1.428 . S
C2343 O2346 1.301 . S
C2343 O2347 1.282 . S
O2344 U2326 2.441 . S
O2344 C2330 1.249 . S
O2345 U2326 2.420 . S
O2345 C2330 1.202 . S
O2346 U2326 2.455 . S
O2346 C2343 1.301 . S
O2347 U2326 2.449 . S
O2347 C2343 1.282 . S
H2348 C2321 0.931 . S
H2349 C2323 0.929 . S
H2350 C2324 0.930 . S
H2351 C2325 0.931 . S
H2352 C2332 0.932 . S
H2353 C2333 0.930 . S
H2354 C2334 0.929 . S
H2355 C2336 0.930 . S
H2356 C2338 0.932 . S
H2357 C2339 0.929 . S
H2358 C2340 0.928 . S
H2359 C2342 0.932 . S
C2360 C2361 1.264 . S
C2360 C2365 1.479 . S
C2360 C2370 1.465 . S
C2361 C2360 1.264 . S
C2361 C2363 1.339 . S
C2361 H2388 0.931 . S
C2362 C2363 1.395 . S
C2362 C2364 1.320 . S
C2363 C2361 1.339 . S
C2363 C2362 1.395 . S
C2363 H2389 0.929 . S
C2364 C2362 1.320 . S
C2364 C2365 1.405 . S
C2364 H2390 0.930 . S
C2365 C2360 1.479 . S
C2365 C2364 1.405 . S
C2365 H2391 0.931 . S
U2366 O2367 2.454 . S
U2366 O2368 2.458 . S
U2366 C2369 2.984 . S
U2366 C2370 2.847 . S
U2366 C2383 2.882 . S
U2366 O2384 2.441 . S
U2366 O2385 2.420 . S
U2366 O2386 2.455 . S
U2366 O2387 2.449 . S
O2367 U2366 2.454 . S
O2367 C2369 1.353 . S
O2368 U2366 2.458 . S
O2368 C2369 1.286 . S
C2369 U2366 2.984 . S
C2369 O2367 1.353 . S
C2369 O2368 1.286 . S
C2369 C2371 1.363 . S
C2370 C2360 1.465 . S
C2370 U2366 2.847 . S
C2370 O2384 1.249 . S
C2370 O2385 1.202 . S
C2371 C2369 1.363 . S
C2371 C2373 1.408 . S
C2371 C2376 1.342 . S
C2372 C2373 1.310 . S
C2372 C2375 1.461 . S
C2372 H2392 0.932 . S
C2373 C2371 1.408 . S
C2373 C2372 1.310 . S
C2373 H2393 0.930 . S
C2374 C2375 1.474 . S
C2374 C2376 1.285 . S
C2374 H2394 0.929 . S
C2375 C2372 1.461 . S
C2375 C2374 1.474 . S
C2376 C2371 1.342 . S
C2376 C2374 1.285 . S
C2376 H2395 0.930 . S
C2377 C2380 1.424 . S
C2377 C2382 1.245 . S
C2377 C2383 1.428 . S
C2378 C2381 1.260 . S
C2378 C2382 1.477 . S
C2378 H2396 0.932 . S
C2379 C2380 1.384 . S
C2379 C2381 1.479 . S
C2379 H2397 0.929 . S
C2380 C2377 1.424 . S
C2380 C2379 1.384 . S
C2380 H2398 0.928 . S
C2381 C2378 1.260 . S
C2381 C2379 1.479 . S
C2382 C2377 1.245 . S
C2382 C2378 1.477 . S
C2382 H2399 0.932 . S
C2383 U2366 2.882 . S
C2383 C2377 1.428 . S
C2383 O2386 1.301 . S
C2383 O2387 1.282 . S
O2384 U2366 2.441 . S
O2384 C2370 1.249 . S
O2385 U2366 2.420 . S
O2385 C2370 1.202 . S
O2386 U2366 2.455 . S
O2386 C2383 1.301 . S
O2387 U2366 2.449 . S
O2387 C2383 1.282 . S
H2388 C2361 0.931 . S
H2389 C2363 0.929 . S
H2390 C2364 0.930 . S
H2391 C2365 0.931 . S
H2392 C2372 0.932 . S
H2393 C2373 0.930 . S
H2394 C2374 0.929 . S
H2395 C2376 0.930 . S
H2396 C2378 0.932 . S
H2397 C2379 0.929 . S
H2398 C2380 0.928 . S
H2399 C2382 0.932 . S
C2400 C2401 1.264 . S
C2400 C2405 1.479 . S
C2400 C2410 1.465 . S
C2401 C2400 1.264 . S
C2401 C2403 1.339 . S
C2401 H2428 0.931 . S
C2402 C2403 1.395 . S
C2402 C2404 1.320 . S
C2403 C2401 1.339 . S
C2403 C2402 1.395 . S
C2403 H2429 0.929 . S
C2404 C2402 1.320 . S
C2404 C2405 1.405 . S
C2404 H2430 0.930 . S
C2405 C2400 1.479 . S
C2405 C2404 1.405 . S
C2405 H2431 0.931 . S
U2406 O2407 2.454 . S
U2406 O2408 2.458 . S
U2406 C2409 2.984 . S
U2406 C2410 2.847 . S
U2406 C2423 2.882 . S
U2406 O2424 2.441 . S
U2406 O2425 2.420 . S
U2406 O2426 2.455 . S
U2406 O2427 2.449 . S
O2407 U2406 2.454 . S
O2407 C2409 1.353 . S
O2408 U2406 2.458 . S
O2408 C2409 1.286 . S
C2409 U2406 2.984 . S
C2409 O2407 1.353 . S
C2409 O2408 1.286 . S
C2409 C2411 1.363 . S
C2410 C2400 1.465 . S
C2410 U2406 2.847 . S
C2410 O2424 1.249 . S
C2410 O2425 1.202 . S
C2411 C2409 1.363 . S
C2411 C2413 1.408 . S
C2411 C2416 1.342 . S
C2412 C2413 1.310 . S
C2412 C2415 1.461 . S
C2412 H2432 0.932 . S
C2413 C2411 1.408 . S
C2413 C2412 1.310 . S
C2413 H2433 0.930 . S
C2414 C2415 1.474 . S
C2414 C2416 1.285 . S
C2414 H2434 0.929 . S
C2415 C2412 1.461 . S
C2415 C2414 1.474 . S
C2416 C2411 1.342 . S
C2416 C2414 1.285 . S
C2416 H2435 0.930 . S
C2417 C2420 1.424 . S
C2417 C2422 1.245 . S
C2417 C2423 1.428 . S
C2418 C2421 1.260 . S
C2418 C2422 1.477 . S
C2418 H2436 0.932 . S
C2419 C2420 1.384 . S
C2419 C2421 1.479 . S
C2419 H2437 0.929 . S
C2420 C2417 1.424 . S
C2420 C2419 1.384 . S
C2420 H2438 0.928 . S
C2421 C2418 1.260 . S
C2421 C2419 1.479 . S
C2422 C2417 1.245 . S
C2422 C2418 1.477 . S
C2422 H2439 0.932 . S
C2423 U2406 2.882 . S
C2423 C2417 1.428 . S
C2423 O2426 1.301 . S
C2423 O2427 1.282 . S
O2424 U2406 2.441 . S
O2424 C2410 1.249 . S
O2425 U2406 2.420 . S
O2425 C2410 1.202 . S
O2426 U2406 2.455 . S
O2426 C2423 1.301 . S
O2427 U2406 2.449 . S
O2427 C2423 1.282 . S
H2428 C2401 0.931 . S
H2429 C2403 0.929 . S
H2430 C2404 0.930 . S
H2431 C2405 0.931 . S
H2432 C2412 0.932 . S
H2433 C2413 0.930 . S
H2434 C2414 0.929 . S
H2435 C2416 0.930 . S
H2436 C2418 0.932 . S
H2437 C2419 0.929 . S
H2438 C2420 0.928 . S
H2439 C2422 0.932 . S
C2440 C2441 1.264 . S
C2440 C2445 1.479 . S
C2440 C2450 1.465 . S
C2441 C2440 1.264 . S
C2441 C2443 1.339 . S
C2441 H2468 0.931 . S
C2442 C2443 1.395 . S
C2442 C2444 1.320 . S
C2443 C2441 1.339 . S
C2443 C2442 1.395 . S
C2443 H2469 0.929 . S
C2444 C2442 1.320 . S
C2444 C2445 1.405 . S
C2444 H2470 0.930 . S
C2445 C2440 1.479 . S
C2445 C2444 1.405 . S
C2445 H2471 0.931 . S
U2446 O2447 2.454 . S
U2446 O2448 2.458 . S
U2446 C2449 2.984 . S
U2446 C2450 2.847 . S
U2446 C2463 2.882 . S
U2446 O2464 2.441 . S
U2446 O2465 2.420 . S
U2446 O2466 2.455 . S
U2446 O2467 2.449 . S
O2447 U2446 2.454 . S
O2447 C2449 1.353 . S
O2448 U2446 2.458 . S
O2448 C2449 1.286 . S
C2449 U2446 2.984 . S
C2449 O2447 1.353 . S
C2449 O2448 1.286 . S
C2449 C2451 1.363 . S
C2450 C2440 1.465 . S
C2450 U2446 2.847 . S
C2450 O2464 1.249 . S
C2450 O2465 1.202 . S
C2451 C2449 1.363 . S
C2451 C2453 1.408 . S
C2451 C2456 1.342 . S
C2452 C2453 1.310 . S
C2452 C2455 1.461 . S
C2452 H2472 0.932 . S
C2453 C2451 1.408 . S
C2453 C2452 1.310 . S
C2453 H2473 0.930 . S
C2454 C2455 1.474 . S
C2454 C2456 1.285 . S
C2454 H2474 0.929 . S
C2455 C2452 1.461 . S
C2455 C2454 1.474 . S
C2456 C2451 1.342 . S
C2456 C2454 1.285 . S
C2456 H2475 0.930 . S
C2457 C2460 1.424 . S
C2457 C2462 1.245 . S
C2457 C2463 1.428 . S
C2458 C2461 1.260 . S
C2458 C2462 1.477 . S
C2458 H2476 0.932 . S
C2459 C2460 1.384 . S
C2459 C2461 1.479 . S
C2459 H2477 0.929 . S
C2460 C2457 1.424 . S
C2460 C2459 1.384 . S
C2460 H2478 0.928 . S
C2461 C2458 1.260 . S
C2461 C2459 1.479 . S
C2462 C2457 1.245 . S
C2462 C2458 1.477 . S
C2462 H2479 0.932 . S
C2463 U2446 2.882 . S
C2463 C2457 1.428 . S
C2463 O2466 1.301 . S
C2463 O2467 1.282 . S
O2464 U2446 2.441 . S
O2464 C2450 1.249 . S
O2465 U2446 2.420 . S
O2465 C2450 1.202 . S
O2466 U2446 2.455 . S
O2466 C2463 1.301 . S
O2467 U2446 2.449 . S
O2467 C2463 1.282 . S
H2468 C2441 0.931 . S
H2469 C2443 0.929 . S
H2470 C2444 0.930 . S
H2471 C2445 0.931 . S
H2472 C2452 0.932 . S
H2473 C2453 0.930 . S
H2474 C2454 0.929 . S
H2475 C2456 0.930 . S
H2476 C2458 0.932 . S
H2477 C2459 0.929 . S
H2478 C2460 0.928 . S
H2479 C2462 0.932 . S
C2480 C2481 1.264 . S
C2480 C2485 1.479 . S
C2480 C2490 1.465 . S
C2481 C2480 1.264 . S
C2481 C2483 1.339 . S
C2481 H2508 0.931 . S
C2482 C2483 1.395 . S
C2482 C2484 1.320 . S
C2483 C2481 1.339 . S
C2483 C2482 1.395 . S
C2483 H2509 0.929 . S
C2484 C2482 1.320 . S
C2484 C2485 1.405 . S
C2484 H2510 0.930 . S
C2485 C2480 1.479 . S
C2485 C2484 1.405 . S
C2485 H2511 0.931 . S
U2486 O2487 2.454 . S
U2486 O2488 2.458 . S
U2486 C2489 2.984 . S
U2486 C2490 2.847 . S
U2486 C2503 2.882 . S
U2486 O2504 2.441 . S
U2486 O2505 2.420 . S
U2486 O2506 2.455 . S
U2486 O2507 2.449 . S
O2487 U2486 2.454 . S
O2487 C2489 1.353 . S
O2488 U2486 2.458 . S
O2488 C2489 1.286 . S
C2489 U2486 2.984 . S
C2489 O2487 1.353 . S
C2489 O2488 1.286 . S
C2489 C2491 1.363 . S
C2490 C2480 1.465 . S
C2490 U2486 2.847 . S
C2490 O2504 1.249 . S
C2490 O2505 1.202 . S
C2491 C2489 1.363 . S
C2491 C2493 1.408 . S
C2491 C2496 1.342 . S
C2492 C2493 1.310 . S
C2492 C2495 1.461 . S
C2492 H2512 0.932 . S
C2493 C2491 1.408 . S
C2493 C2492 1.310 . S
C2493 H2513 0.930 . S
C2494 C2495 1.474 . S
C2494 C2496 1.285 . S
C2494 H2514 0.929 . S
C2495 C2492 1.461 . S
C2495 C2494 1.474 . S
C2496 C2491 1.342 . S
C2496 C2494 1.285 . S
C2496 H2515 0.930 . S
C2497 C2500 1.424 . S
C2497 C2502 1.245 . S
C2497 C2503 1.428 . S
C2498 C2501 1.260 . S
C2498 C2502 1.477 . S
C2498 H2516 0.932 . S
C2499 C2500 1.384 . S
C2499 C2501 1.479 . S
C2499 H2517 0.929 . S
C2500 C2497 1.424 . S
C2500 C2499 1.384 . S
C2500 H2518 0.928 . S
C2501 C2498 1.260 . S
C2501 C2499 1.479 . S
C2502 C2497 1.245 . S
C2502 C2498 1.477 . S
C2502 H2519 0.932 . S
C2503 U2486 2.882 . S
C2503 C2497 1.428 . S
C2503 O2506 1.301 . S
C2503 O2507 1.282 . S
O2504 U2486 2.441 . S
O2504 C2490 1.249 . S
O2505 U2486 2.420 . S
O2505 C2490 1.202 . S
O2506 U2486 2.455 . S
O2506 C2503 1.301 . S
O2507 U2486 2.449 . S
O2507 C2503 1.282 . S
H2508 C2481 0.931 . S
H2509 C2483 0.929 . S
H2510 C2484 0.930 . S
H2511 C2485 0.931 . S
H2512 C2492 0.932 . S
H2513 C2493 0.930 . S
H2514 C2494 0.929 . S
H2515 C2496 0.930 . S
H2516 C2498 0.932 . S
H2517 C2499 0.929 . S
H2518 C2500 0.928 . S
H2519 C2502 0.932 . S
C2520 C2521 1.264 . S
C2520 C2525 1.479 . S
C2520 C2530 1.465 . S
C2521 C2520 1.264 . S
C2521 C2523 1.339 . S
C2521 H2548 0.931 . S
C2522 C2523 1.395 . S
C2522 C2524 1.320 . S
C2523 C2521 1.339 . S
C2523 C2522 1.395 . S
C2523 H2549 0.929 . S
C2524 C2522 1.320 . S
C2524 C2525 1.405 . S
C2524 H2550 0.930 . S
C2525 C2520 1.479 . S
C2525 C2524 1.405 . S
C2525 H2551 0.931 . S
U2526 O2527 2.454 . S
U2526 O2528 2.458 . S
U2526 C2529 2.984 . S
U2526 C2530 2.847 . S
U2526 C2543 2.882 . S
U2526 O2544 2.441 . S
U2526 O2545 2.420 . S
U2526 O2546 2.455 . S
U2526 O2547 2.449 . S
O2527 U2526 2.454 . S
O2527 C2529 1.353 . S
O2528 U2526 2.458 . S
O2528 C2529 1.286 . S
C2529 U2526 2.984 . S
C2529 O2527 1.353 . S
C2529 O2528 1.286 . S
C2529 C2531 1.363 . S
C2530 C2520 1.465 . S
C2530 U2526 2.847 . S
C2530 O2544 1.249 . S
C2530 O2545 1.202 . S
C2531 C2529 1.363 . S
C2531 C2533 1.408 . S
C2531 C2536 1.342 . S
C2532 C2533 1.310 . S
C2532 C2535 1.461 . S
C2532 H2552 0.932 . S
C2533 C2531 1.408 . S
C2533 C2532 1.310 . S
C2533 H2553 0.930 . S
C2534 C2535 1.474 . S
C2534 C2536 1.285 . S
C2534 H2554 0.929 . S
C2535 C2532 1.461 . S
C2535 C2534 1.474 . S
C2536 C2531 1.342 . S
C2536 C2534 1.285 . S
C2536 H2555 0.930 . S
C2537 C2540 1.424 . S
C2537 C2542 1.245 . S
C2537 C2543 1.428 . S
C2538 C2541 1.260 . S
C2538 C2542 1.477 . S
C2538 H2556 0.932 . S
C2539 C2540 1.384 . S
C2539 C2541 1.479 . S
C2539 H2557 0.929 . S
C2540 C2537 1.424 . S
C2540 C2539 1.384 . S
C2540 H2558 0.928 . S
C2541 C2538 1.260 . S
C2541 C2539 1.479 . S
C2542 C2537 1.245 . S
C2542 C2538 1.477 . S
C2542 H2559 0.932 . S
C2543 U2526 2.882 . S
C2543 C2537 1.428 . S
C2543 O2546 1.301 . S
C2543 O2547 1.282 . S
O2544 U2526 2.441 . S
O2544 C2530 1.249 . S
O2545 U2526 2.420 . S
O2545 C2530 1.202 . S
O2546 U2526 2.455 . S
O2546 C2543 1.301 . S
O2547 U2526 2.449 . S
O2547 C2543 1.282 . S
H2548 C2521 0.931 . S
H2549 C2523 0.929 . S
H2550 C2524 0.930 . S
H2551 C2525 0.931 . S
H2552 C2532 0.932 . S
H2553 C2533 0.930 . S
H2554 C2534 0.929 . S
H2555 C2536 0.930 . S
H2556 C2538 0.932 . S
H2557 C2539 0.929 . S
H2558 C2540 0.928 . S
H2559 C2542 0.932 . S
C2560 C2561 1.264 . S
C2560 C2565 1.479 . S
C2560 C2570 1.465 . S
C2561 C2560 1.264 . S
C2561 C2563 1.339 . S
C2561 H2588 0.931 . S
C2562 C2563 1.395 . S
C2562 C2564 1.320 . S
C2563 C2561 1.339 . S
C2563 C2562 1.395 . S
C2563 H2589 0.929 . S
C2564 C2562 1.320 . S
C2564 C2565 1.405 . S
C2564 H2590 0.930 . S
C2565 C2560 1.479 . S
C2565 C2564 1.405 . S
C2565 H2591 0.931 . S
U2566 O2567 2.454 . S
U2566 O2568 2.458 . S
U2566 C2569 2.984 . S
U2566 C2570 2.847 . S
U2566 C2583 2.882 . S
U2566 O2584 2.441 . S
U2566 O2585 2.420 . S
U2566 O2586 2.455 . S
U2566 O2587 2.449 . S
O2567 U2566 2.454 . S
O2567 C2569 1.353 . S
O2568 U2566 2.458 . S
O2568 C2569 1.286 . S
C2569 U2566 2.984 . S
C2569 O2567 1.353 . S
C2569 O2568 1.286 . S
C2569 C2571 1.363 . S
C2570 C2560 1.465 . S
C2570 U2566 2.847 . S
C2570 O2584 1.249 . S
C2570 O2585 1.202 . S
C2571 C2569 1.363 . S
C2571 C2573 1.408 . S
C2571 C2576 1.342 . S
C2572 C2573 1.310 . S
C2572 C2575 1.461 . S
C2572 H2592 0.932 . S
C2573 C2571 1.408 . S
C2573 C2572 1.310 . S
C2573 H2593 0.930 . S
C2574 C2575 1.474 . S
C2574 C2576 1.285 . S
C2574 H2594 0.929 . S
C2575 C2572 1.461 . S
C2575 C2574 1.474 . S
C2576 C2571 1.342 . S
C2576 C2574 1.285 . S
C2576 H2595 0.930 . S
C2577 C2580 1.424 . S
C2577 C2582 1.245 . S
C2577 C2583 1.428 . S
C2578 C2581 1.260 . S
C2578 C2582 1.477 . S
C2578 H2596 0.932 . S
C2579 C2580 1.384 . S
C2579 C2581 1.479 . S
C2579 H2597 0.929 . S
C2580 C2577 1.424 . S
C2580 C2579 1.384 . S
C2580 H2598 0.928 . S
C2581 C2578 1.260 . S
C2581 C2579 1.479 . S
C2582 C2577 1.245 . S
C2582 C2578 1.477 . S
C2582 H2599 0.932 . S
C2583 U2566 2.882 . S
C2583 C2577 1.428 . S
C2583 O2586 1.301 . S
C2583 O2587 1.282 . S
O2584 U2566 2.441 . S
O2584 C2570 1.249 . S
O2585 U2566 2.420 . S
O2585 C2570 1.202 . S
O2586 U2566 2.455 . S
O2586 C2583 1.301 . S
O2587 U2566 2.449 . S
O2587 C2583 1.282 . S
H2588 C2561 0.931 . S
H2589 C2563 0.929 . S
H2590 C2564 0.930 . S
H2591 C2565 0.931 . S
H2592 C2572 0.932 . S
H2593 C2573 0.930 . S
H2594 C2574 0.929 . S
H2595 C2576 0.930 . S
H2596 C2578 0.932 . S
H2597 C2579 0.929 . S
H2598 C2580 0.928 . S
H2599 C2582 0.932 . S
C2600 C2601 1.264 . S
C2600 C2605 1.479 . S
C2600 C2610 1.465 . S
C2601 C2600 1.264 . S
C2601 C2603 1.339 . S
C2601 H2628 0.931 . S
C2602 C2603 1.395 . S
C2602 C2604 1.320 . S
C2603 C2601 1.339 . S
C2603 C2602 1.395 . S
C2603 H2629 0.929 . S
C2604 C2602 1.320 . S
C2604 C2605 1.405 . S
C2604 H2630 0.930 . S
C2605 C2600 1.479 . S
C2605 C2604 1.405 . S
C2605 H2631 0.931 . S
U2606 O2607 2.454 . S
U2606 O2608 2.458 . S
U2606 C2609 2.984 . S
U2606 C2610 2.847 . S
U2606 C2623 2.882 . S
U2606 O2624 2.441 . S
U2606 O2625 2.420 . S
U2606 O2626 2.455 . S
U2606 O2627 2.449 . S
O2607 U2606 2.454 . S
O2607 C2609 1.353 . S
O2608 U2606 2.458 . S
O2608 C2609 1.286 . S
C2609 U2606 2.984 . S
C2609 O2607 1.353 . S
C2609 O2608 1.286 . S
C2609 C2611 1.363 . S
C2610 C2600 1.465 . S
C2610 U2606 2.847 . S
C2610 O2624 1.249 . S
C2610 O2625 1.202 . S
C2611 C2609 1.363 . S
C2611 C2613 1.408 . S
C2611 C2616 1.342 . S
C2612 C2613 1.310 . S
C2612 C2615 1.461 . S
C2612 H2632 0.932 . S
C2613 C2611 1.408 . S
C2613 C2612 1.310 . S
C2613 H2633 0.930 . S
C2614 C2615 1.474 . S
C2614 C2616 1.285 . S
C2614 H2634 0.929 . S
C2615 C2612 1.461 . S
C2615 C2614 1.474 . S
C2616 C2611 1.342 . S
C2616 C2614 1.285 . S
C2616 H2635 0.930 . S
C2617 C2620 1.424 . S
C2617 C2622 1.245 . S
C2617 C2623 1.428 . S
C2618 C2621 1.260 . S
C2618 C2622 1.477 . S
C2618 H2636 0.932 . S
C2619 C2620 1.384 . S
C2619 C2621 1.479 . S
C2619 H2637 0.929 . S
C2620 C2617 1.424 . S
C2620 C2619 1.384 . S
C2620 H2638 0.928 . S
C2621 C2618 1.260 . S
C2621 C2619 1.479 . S
C2622 C2617 1.245 . S
C2622 C2618 1.477 . S
C2622 H2639 0.932 . S
C2623 U2606 2.882 . S
C2623 C2617 1.428 . S
C2623 O2626 1.301 . S
C2623 O2627 1.282 . S
O2624 U2606 2.441 . S
O2624 C2610 1.249 . S
O2625 U2606 2.420 . S
O2625 C2610 1.202 . S
O2626 U2606 2.455 . S
O2626 C2623 1.301 . S
O2627 U2606 2.449 . S
O2627 C2623 1.282 . S
H2628 C2601 0.931 . S
H2629 C2603 0.929 . S
H2630 C2604 0.930 . S
H2631 C2605 0.931 . S
H2632 C2612 0.932 . S
H2633 C2613 0.930 . S
H2634 C2614 0.929 . S
H2635 C2616 0.930 . S
H2636 C2618 0.932 . S
H2637 C2619 0.929 . S
H2638 C2620 0.928 . S
H2639 C2622 0.932 . S
C2640 C2641 1.264 . S
C2640 C2645 1.479 . S
C2640 C2650 1.465 . S
C2641 C2640 1.264 . S
C2641 C2643 1.339 . S
C2641 H2668 0.931 . S
C2642 C2643 1.395 . S
C2642 C2644 1.320 . S
C2643 C2641 1.339 . S
C2643 C2642 1.395 . S
C2643 H2669 0.929 . S
C2644 C2642 1.320 . S
C2644 C2645 1.405 . S
C2644 H2670 0.930 . S
C2645 C2640 1.479 . S
C2645 C2644 1.405 . S
C2645 H2671 0.931 . S
U2646 O2647 2.454 . S
U2646 O2648 2.458 . S
U2646 C2649 2.984 . S
U2646 C2650 2.847 . S
U2646 C2663 2.882 . S
U2646 O2664 2.441 . S
U2646 O2665 2.420 . S
U2646 O2666 2.455 . S
U2646 O2667 2.449 . S
O2647 U2646 2.454 . S
O2647 C2649 1.353 . S
O2648 U2646 2.458 . S
O2648 C2649 1.286 . S
C2649 U2646 2.984 . S
C2649 O2647 1.353 . S
C2649 O2648 1.286 . S
C2649 C2651 1.363 . S
C2650 C2640 1.465 . S
C2650 U2646 2.847 . S
C2650 O2664 1.249 . S
C2650 O2665 1.202 . S
C2651 C2649 1.363 . S
C2651 C2653 1.408 . S
C2651 C2656 1.342 . S
C2652 C2653 1.310 . S
C2652 C2655 1.461 . S
C2652 H2672 0.932 . S
C2653 C2651 1.408 . S
C2653 C2652 1.310 . S
C2653 H2673 0.930 . S
C2654 C2655 1.474 . S
C2654 C2656 1.285 . S
C2654 H2674 0.929 . S
C2655 C2652 1.461 . S
C2655 C2654 1.474 . S
C2656 C2651 1.342 . S
C2656 C2654 1.285 . S
C2656 H2675 0.930 . S
C2657 C2660 1.424 . S
C2657 C2662 1.245 . S
C2657 C2663 1.428 . S
C2658 C2661 1.260 . S
C2658 C2662 1.477 . S
C2658 H2676 0.932 . S
C2659 C2660 1.384 . S
C2659 C2661 1.479 . S
C2659 H2677 0.929 . S
C2660 C2657 1.424 . S
C2660 C2659 1.384 . S
C2660 H2678 0.928 . S
C2661 C2658 1.260 . S
C2661 C2659 1.479 . S
C2662 C2657 1.245 . S
C2662 C2658 1.477 . S
C2662 H2679 0.932 . S
C2663 U2646 2.882 . S
C2663 C2657 1.428 . S
C2663 O2666 1.301 . S
C2663 O2667 1.282 . S
O2664 U2646 2.441 . S
O2664 C2650 1.249 . S
O2665 U2646 2.420 . S
O2665 C2650 1.202 . S
O2666 U2646 2.455 . S
O2666 C2663 1.301 . S
O2667 U2646 2.449 . S
O2667 C2663 1.282 . S
H2668 C2641 0.931 . S
H2669 C2643 0.929 . S
H2670 C2644 0.930 . S
H2671 C2645 0.931 . S
H2672 C2652 0.932 . S
H2673 C2653 0.930 . S
H2674 C2654 0.929 . S
H2675 C2656 0.930 . S
H2676 C2658 0.932 . S
H2677 C2659 0.929 . S
H2678 C2660 0.928 . S
H2679 C2662 0.932 . S
C2680 C2681 1.264 . S
C2680 C2685 1.479 . S
C2680 C2690 1.465 . S
C2681 C2680 1.264 . S
C2681 C2683 1.339 . S
C2681 H2708 0.931 . S
C2682 C2683 1.395 . S
C2682 C2684 1.320 . S
C2683 C2681 1.339 . S
C2683 C2682 1.395 . S
C2683 H2709 0.929 . S
C2684 C2682 1.320 . S
C2684 C2685 1.405 . S
C2684 H2710 0.930 . S
C2685 C2680 1.479 . S
C2685 C2684 1.405 . S
C2685 H2711 0.931 . S
U2686 O2687 2.454 . S
U2686 O2688 2.458 . S
U2686 C2689 2.984 . S
U2686 C2690 2.847 . S
U2686 C2703 2.882 . S
U2686 O2704 2.441 . S
U2686 O2705 2.420 . S
U2686 O2706 2.455 . S
U2686 O2707 2.449 . S
O2687 U2686 2.454 . S
O2687 C2689 1.353 . S
O2688 U2686 2.458 . S
O2688 C2689 1.286 . S
C2689 U2686 2.984 . S
C2689 O2687 1.353 . S
C2689 O2688 1.286 . S
C2689 C2691 1.363 . S
C2690 C2680 1.465 . S
C2690 U2686 2.847 . S
C2690 O2704 1.249 . S
C2690 O2705 1.202 . S
C2691 C2689 1.363 . S
C2691 C2693 1.408 . S
C2691 C2696 1.342 . S
C2692 C2693 1.310 . S
C2692 C2695 1.461 . S
C2692 H2712 0.932 . S
C2693 C2691 1.408 . S
C2693 C2692 1.310 . S
C2693 H2713 0.930 . S
C2694 C2695 1.474 . S
C2694 C2696 1.285 . S
C2694 H2714 0.929 . S
C2695 C2692 1.461 . S
C2695 C2694 1.474 . S
C2696 C2691 1.342 . S
C2696 C2694 1.285 . S
C2696 H2715 0.930 . S
C2697 C2700 1.424 . S
C2697 C2702 1.245 . S
C2697 C2703 1.428 . S
C2698 C2701 1.260 . S
C2698 C2702 1.477 . S
C2698 H2716 0.932 . S
C2699 C2700 1.384 . S
C2699 C2701 1.479 . S
C2699 H2717 0.929 . S
C2700 C2697 1.424 . S
C2700 C2699 1.384 . S
C2700 H2718 0.928 . S
C2701 C2698 1.260 . S
C2701 C2699 1.479 . S
C2702 C2697 1.245 . S
C2702 C2698 1.477 . S
C2702 H2719 0.932 . S
C2703 U2686 2.882 . S
C2703 C2697 1.428 . S
C2703 O2706 1.301 . S
C2703 O2707 1.282 . S
O2704 U2686 2.441 . S
O2704 C2690 1.249 . S
O2705 U2686 2.420 . S
O2705 C2690 1.202 . S
O2706 U2686 2.455 . S
O2706 C2703 1.301 . S
O2707 U2686 2.449 . S
O2707 C2703 1.282 . S
H2708 C2681 0.931 . S
H2709 C2683 0.929 . S
H2710 C2684 0.930 . S
H2711 C2685 0.931 . S
H2712 C2692 0.932 . S
H2713 C2693 0.930 . S
H2714 C2694 0.929 . S
H2715 C2696 0.930 . S
H2716 C2698 0.932 . S
H2717 C2699 0.929 . S
H2718 C2700 0.928 . S
H2719 C2702 0.932 . S
C2720 C2721 1.264 . S
C2720 C2725 1.479 . S
C2720 C2730 1.465 . S
C2721 C2720 1.264 . S
C2721 C2723 1.339 . S
C2721 H2748 0.931 . S
C2722 C2723 1.395 . S
C2722 C2724 1.320 . S
C2723 C2721 1.339 . S
C2723 C2722 1.395 . S
C2723 H2749 0.929 . S
C2724 C2722 1.320 . S
C2724 C2725 1.405 . S
C2724 H2750 0.930 . S
C2725 C2720 1.479 . S
C2725 C2724 1.405 . S
C2725 H2751 0.931 . S
U2726 O2727 2.454 . S
U2726 O2728 2.458 . S
U2726 C2729 2.984 . S
U2726 C2730 2.847 . S
U2726 C2743 2.882 . S
U2726 O2744 2.441 . S
U2726 O2745 2.420 . S
U2726 O2746 2.455 . S
U2726 O2747 2.449 . S
O2727 U2726 2.454 . S
O2727 C2729 1.353 . S
O2728 U2726 2.458 . S
O2728 C2729 1.286 . S
C2729 U2726 2.984 . S
C2729 O2727 1.353 . S
C2729 O2728 1.286 . S
C2729 C2731 1.363 . S
C2730 C2720 1.465 . S
C2730 U2726 2.847 . S
C2730 O2744 1.249 . S
C2730 O2745 1.202 . S
C2731 C2729 1.363 . S
C2731 C2733 1.408 . S
C2731 C2736 1.342 . S
C2732 C2733 1.310 . S
C2732 C2735 1.461 . S
C2732 H2752 0.932 . S
C2733 C2731 1.408 . S
C2733 C2732 1.310 . S
C2733 H2753 0.930 . S
C2734 C2735 1.474 . S
C2734 C2736 1.285 . S
C2734 H2754 0.929 . S
C2735 C2732 1.461 . S
C2735 C2734 1.474 . S
C2736 C2731 1.342 . S
C2736 C2734 1.285 . S
C2736 H2755 0.930 . S
C2737 C2740 1.424 . S
C2737 C2742 1.245 . S
C2737 C2743 1.428 . S
C2738 C2741 1.260 . S
C2738 C2742 1.477 . S
C2738 H2756 0.932 . S
C2739 C2740 1.384 . S
C2739 C2741 1.479 . S
C2739 H2757 0.929 . S
C2740 C2737 1.424 . S
C2740 C2739 1.384 . S
C2740 H2758 0.928 . S
C2741 C2738 1.260 . S
C2741 C2739 1.479 . S
C2742 C2737 1.245 . S
C2742 C2738 1.477 . S
C2742 H2759 0.932 . S
C2743 U2726 2.882 . S
C2743 C2737 1.428 . S
C2743 O2746 1.301 . S
C2743 O2747 1.282 . S
O2744 U2726 2.441 . S
O2744 C2730 1.249 . S
O2745 U2726 2.420 . S
O2745 C2730 1.202 . S
O2746 U2726 2.455 . S
O2746 C2743 1.301 . S
O2747 U2726 2.449 . S
O2747 C2743 1.282 . S
H2748 C2721 0.931 . S
H2749 C2723 0.929 . S
H2750 C2724 0.930 . S
H2751 C2725 0.931 . S
H2752 C2732 0.932 . S
H2753 C2733 0.930 . S
H2754 C2734 0.929 . S
H2755 C2736 0.930 . S
H2756 C2738 0.932 . S
H2757 C2739 0.929 . S
H2758 C2740 0.928 . S
H2759 C2742 0.932 . S
C2760 C2761 1.264 . S
C2760 C2765 1.479 . S
C2760 C2770 1.465 . S
C2761 C2760 1.264 . S
C2761 C2763 1.339 . S
C2761 H2788 0.931 . S
C2762 C2763 1.395 . S
C2762 C2764 1.320 . S
C2763 C2761 1.339 . S
C2763 C2762 1.395 . S
C2763 H2789 0.929 . S
C2764 C2762 1.320 . S
C2764 C2765 1.405 . S
C2764 H2790 0.930 . S
C2765 C2760 1.479 . S
C2765 C2764 1.405 . S
C2765 H2791 0.931 . S
U2766 O2767 2.454 . S
U2766 O2768 2.458 . S
U2766 C2769 2.984 . S
U2766 C2770 2.847 . S
U2766 C2783 2.882 . S
U2766 O2784 2.441 . S
U2766 O2785 2.420 . S
U2766 O2786 2.455 . S
U2766 O2787 2.449 . S
O2767 U2766 2.454 . S
O2767 C2769 1.353 . S
O2768 U2766 2.458 . S
O2768 C2769 1.286 . S
C2769 U2766 2.984 . S
C2769 O2767 1.353 . S
C2769 O2768 1.286 . S
C2769 C2771 1.363 . S
C2770 C2760 1.465 . S
C2770 U2766 2.847 . S
C2770 O2784 1.249 . S
C2770 O2785 1.202 . S
C2771 C2769 1.363 . S
C2771 C2773 1.408 . S
C2771 C2776 1.342 . S
C2772 C2773 1.310 . S
C2772 C2775 1.461 . S
C2772 H2792 0.932 . S
C2773 C2771 1.408 . S
C2773 C2772 1.310 . S
C2773 H2793 0.930 . S
C2774 C2775 1.474 . S
C2774 C2776 1.285 . S
C2774 H2794 0.929 . S
C2775 C2772 1.461 . S
C2775 C2774 1.474 . S
C2776 C2771 1.342 . S
C2776 C2774 1.285 . S
C2776 H2795 0.930 . S
C2777 C2780 1.424 . S
C2777 C2782 1.245 . S
C2777 C2783 1.428 . S
C2778 C2781 1.260 . S
C2778 C2782 1.477 . S
C2778 H2796 0.932 . S
C2779 C2780 1.384 . S
C2779 C2781 1.479 . S
C2779 H2797 0.929 . S
C2780 C2777 1.424 . S
C2780 C2779 1.384 . S
C2780 H2798 0.928 . S
C2781 C2778 1.260 . S
C2781 C2779 1.479 . S
C2782 C2777 1.245 . S
C2782 C2778 1.477 . S
C2782 H2799 0.932 . S
C2783 U2766 2.882 . S
C2783 C2777 1.428 . S
C2783 O2786 1.301 . S
C2783 O2787 1.282 . S
O2784 U2766 2.441 . S
O2784 C2770 1.249 . S
O2785 U2766 2.420 . S
O2785 C2770 1.202 . S
O2786 U2766 2.455 . S
O2786 C2783 1.301 . S
O2787 U2766 2.449 . S
O2787 C2783 1.282 . S
H2788 C2761 0.931 . S
H2789 C2763 0.929 . S
H2790 C2764 0.930 . S
H2791 C2765 0.931 . S
H2792 C2772 0.932 . S
H2793 C2773 0.930 . S
H2794 C2774 0.929 . S
H2795 C2776 0.930 . S
H2796 C2778 0.932 . S
H2797 C2779 0.929 . S
H2798 C2780 0.928 . S
H2799 C2782 0.932 . S
C2800 C2801 1.264 . S
C2800 C2805 1.479 . S
C2800 C2810 1.465 . S
C2801 C2800 1.264 . S
C2801 C2803 1.339 . S
C2801 H2828 0.931 . S
C2802 C2803 1.395 . S
C2802 C2804 1.320 . S
C2803 C2801 1.339 . S
C2803 C2802 1.395 . S
C2803 H2829 0.929 . S
C2804 C2802 1.320 . S
C2804 C2805 1.405 . S
C2804 H2830 0.930 . S
C2805 C2800 1.479 . S
C2805 C2804 1.405 . S
C2805 H2831 0.931 . S
U2806 O2807 2.454 . S
U2806 O2808 2.458 . S
U2806 C2809 2.984 . S
U2806 C2810 2.847 . S
U2806 C2823 2.882 . S
U2806 O2824 2.441 . S
U2806 O2825 2.420 . S
U2806 O2826 2.455 . S
U2806 O2827 2.449 . S
O2807 U2806 2.454 . S
O2807 C2809 1.353 . S
O2808 U2806 2.458 . S
O2808 C2809 1.286 . S
C2809 U2806 2.984 . S
C2809 O2807 1.353 . S
C2809 O2808 1.286 . S
C2809 C2811 1.363 . S
C2810 C2800 1.465 . S
C2810 U2806 2.847 . S
C2810 O2824 1.249 . S
C2810 O2825 1.202 . S
C2811 C2809 1.363 . S
C2811 C2813 1.408 . S
C2811 C2816 1.342 . S
C2812 C2813 1.310 . S
C2812 C2815 1.461 . S
C2812 H2832 0.932 . S
C2813 C2811 1.408 . S
C2813 C2812 1.310 . S
C2813 H2833 0.930 . S
C2814 C2815 1.474 . S
C2814 C2816 1.285 . S
C2814 H2834 0.929 . S
C2815 C2812 1.461 . S
C2815 C2814 1.474 . S
C2816 C2811 1.342 . S
C2816 C2814 1.285 . S
C2816 H2835 0.930 . S
C2817 C2820 1.424 . S
C2817 C2822 1.245 . S
C2817 C2823 1.428 . S
C2818 C2821 1.260 . S
C2818 C2822 1.477 . S
C2818 H2836 0.932 . S
C2819 C2820 1.384 . S
C2819 C2821 1.479 . S
C2819 H2837 0.929 . S
C2820 C2817 1.424 . S
C2820 C2819 1.384 . S
C2820 H2838 0.928 . S
C2821 C2818 1.260 . S
C2821 C2819 1.479 . S
C2822 C2817 1.245 . S
C2822 C2818 1.477 . S
C2822 H2839 0.932 . S
C2823 U2806 2.882 . S
C2823 C2817 1.428 . S
C2823 O2826 1.301 . S
C2823 O2827 1.282 . S
O2824 U2806 2.441 . S
O2824 C2810 1.249 . S
O2825 U2806 2.420 . S
O2825 C2810 1.202 . S
O2826 U2806 2.455 . S
O2826 C2823 1.301 . S
O2827 U2806 2.449 . S
O2827 C2823 1.282 . S
H2828 C2801 0.931 . S
H2829 C2803 0.929 . S
H2830 C2804 0.930 . S
H2831 C2805 0.931 . S
H2832 C2812 0.932 . S
H2833 C2813 0.930 . S
H2834 C2814 0.929 . S
H2835 C2816 0.930 . S
H2836 C2818 0.932 . S
H2837 C2819 0.929 . S
H2838 C2820 0.928 . S
H2839 C2822 0.932 . S
C2840 C2841 1.264 . S
C2840 C2845 1.479 . S
C2840 C2850 1.465 . S
C2841 C2840 1.264 . S
C2841 C2843 1.339 . S
C2841 H2868 0.931 . S
C2842 C2843 1.395 . S
C2842 C2844 1.320 . S
C2843 C2841 1.339 . S
C2843 C2842 1.395 . S
C2843 H2869 0.929 . S
C2844 C2842 1.320 . S
C2844 C2845 1.405 . S
C2844 H2870 0.930 . S
C2845 C2840 1.479 . S
C2845 C2844 1.405 . S
C2845 H2871 0.931 . S
U2846 O2847 2.454 . S
U2846 O2848 2.458 . S
U2846 C2849 2.984 . S
U2846 C2850 2.847 . S
U2846 C2863 2.882 . S
U2846 O2864 2.441 . S
U2846 O2865 2.420 . S
U2846 O2866 2.455 . S
U2846 O2867 2.449 . S
O2847 U2846 2.454 . S
O2847 C2849 1.353 . S
O2848 U2846 2.458 . S
O2848 C2849 1.286 . S
C2849 U2846 2.984 . S
C2849 O2847 1.353 . S
C2849 O2848 1.286 . S
C2849 C2851 1.363 . S
C2850 C2840 1.465 . S
C2850 U2846 2.847 . S
C2850 O2864 1.249 . S
C2850 O2865 1.202 . S
C2851 C2849 1.363 . S
C2851 C2853 1.408 . S
C2851 C2856 1.342 . S
C2852 C2853 1.310 . S
C2852 C2855 1.461 . S
C2852 H2872 0.932 . S
C2853 C2851 1.408 . S
C2853 C2852 1.310 . S
C2853 H2873 0.930 . S
C2854 C2855 1.474 . S
C2854 C2856 1.285 . S
C2854 H2874 0.929 . S
C2855 C2852 1.461 . S
C2855 C2854 1.474 . S
C2856 C2851 1.342 . S
C2856 C2854 1.285 . S
C2856 H2875 0.930 . S
C2857 C2860 1.424 . S
C2857 C2862 1.245 . S
C2857 C2863 1.428 . S
C2858 C2861 1.260 . S
C2858 C2862 1.477 . S
C2858 H2876 0.932 . S
C2859 C2860 1.384 . S
C2859 C2861 1.479 . S
C2859 H2877 0.929 . S
C2860 C2857 1.424 . S
C2860 C2859 1.384 . S
C2860 H2878 0.928 . S
C2861 C2858 1.260 . S
C2861 C2859 1.479 . S
C2862 C2857 1.245 . S
C2862 C2858 1.477 . S
C2862 H2879 0.932 . S
C2863 U2846 2.882 . S
C2863 C2857 1.428 . S
C2863 O2866 1.301 . S
C2863 O2867 1.282 . S
O2864 U2846 2.441 . S
O2864 C2850 1.249 . S
O2865 U2846 2.420 . S
O2865 C2850 1.202 . S
O2866 U2846 2.455 . S
O2866 C2863 1.301 . S
O2867 U2846 2.449 . S
O2867 C2863 1.282 . S
H2868 C2841 0.931 . S
H2869 C2843 0.929 . S
H2870 C2844 0.930 . S
H2871 C2845 0.931 . S
H2872 C2852 0.932 . S
H2873 C2853 0.930 . S
H2874 C2854 0.929 . S
H2875 C2856 0.930 . S
H2876 C2858 0.932 . S
H2877 C2859 0.929 . S
H2878 C2860 0.928 . S
H2879 C2862 0.932 . S
C2880 C2881 1.264 . S
C2880 C2885 1.479 . S
C2880 C2890 1.465 . S
C2881 C2880 1.264 . S
C2881 C2883 1.339 . S
C2881 H2908 0.931 . S
C2882 C2883 1.395 . S
C2882 C2884 1.320 . S
C2883 C2881 1.339 . S
C2883 C2882 1.395 . S
C2883 H2909 0.929 . S
C2884 C2882 1.320 . S
C2884 C2885 1.405 . S
C2884 H2910 0.930 . S
C2885 C2880 1.479 . S
C2885 C2884 1.405 . S
C2885 H2911 0.931 . S
U2886 O2887 2.454 . S
U2886 O2888 2.458 . S
U2886 C2889 2.984 . S
U2886 C2890 2.847 . S
U2886 C2903 2.882 . S
U2886 O2904 2.441 . S
U2886 O2905 2.420 . S
U2886 O2906 2.455 . S
U2886 O2907 2.449 . S
O2887 U2886 2.454 . S
O2887 C2889 1.353 . S
O2888 U2886 2.458 . S
O2888 C2889 1.286 . S
C2889 U2886 2.984 . S
C2889 O2887 1.353 . S
C2889 O2888 1.286 . S
C2889 C2891 1.363 . S
C2890 C2880 1.465 . S
C2890 U2886 2.847 . S
C2890 O2904 1.249 . S
C2890 O2905 1.202 . S
C2891 C2889 1.363 . S
C2891 C2893 1.408 . S
C2891 C2896 1.342 . S
C2892 C2893 1.310 . S
C2892 C2895 1.461 . S
C2892 H2912 0.932 . S
C2893 C2891 1.408 . S
C2893 C2892 1.310 . S
C2893 H2913 0.930 . S
C2894 C2895 1.474 . S
C2894 C2896 1.285 . S
C2894 H2914 0.929 . S
C2895 C2892 1.461 . S
C2895 C2894 1.474 . S
C2896 C2891 1.342 . S
C2896 C2894 1.285 . S
C2896 H2915 0.930 . S
C2897 C2900 1.424 . S
C2897 C2902 1.245 . S
C2897 C2903 1.428 . S
C2898 C2901 1.260 . S
C2898 C2902 1.477 . S
C2898 H2916 0.932 . S
C2899 C2900 1.384 . S
C2899 C2901 1.479 . S
C2899 H2917 0.929 . S
C2900 C2897 1.424 . S
C2900 C2899 1.384 . S
C2900 H2918 0.928 . S
C2901 C2898 1.260 . S
C2901 C2899 1.479 . S
C2902 C2897 1.245 . S
C2902 C2898 1.477 . S
C2902 H2919 0.932 . S
C2903 U2886 2.882 . S
C2903 C2897 1.428 . S
C2903 O2906 1.301 . S
C2903 O2907 1.282 . S
O2904 U2886 2.441 . S
O2904 C2890 1.249 . S
O2905 U2886 2.420 . S
O2905 C2890 1.202 . S
O2906 U2886 2.455 . S
O2906 C2903 1.301 . S
O2907 U2886 2.449 . S
O2907 C2903 1.282 . S
H2908 C2881 0.931 . S
H2909 C2883 0.929 . S
H2910 C2884 0.930 . S
H2911 C2885 0.931 . S
H2912 C2892 0.932 . S
H2913 C2893 0.930 . S
H2914 C2894 0.929 . S
H2915 C2896 0.930 . S
H2916 C2898 0.932 . S
H2917 C2899 0.929 . S
H2918 C2900 0.928 . S
H2919 C2902 0.932 . S
C2920 C2921 1.264 . S
C2920 C2925 1.479 . S
C2920 C2930 1.465 . S
C2921 C2920 1.264 . S
C2921 C2923 1.339 . S
C2921 H2948 0.931 . S
C2922 C2923 1.395 . S
C2922 C2924 1.320 . S
C2923 C2921 1.339 . S
C2923 C2922 1.395 . S
C2923 H2949 0.929 . S
C2924 C2922 1.320 . S
C2924 C2925 1.405 . S
C2924 H2950 0.930 . S
C2925 C2920 1.479 . S
C2925 C2924 1.405 . S
C2925 H2951 0.931 . S
U2926 O2927 2.454 . S
U2926 O2928 2.458 . S
U2926 C2929 2.984 . S
U2926 C2930 2.847 . S
U2926 C2943 2.882 . S
U2926 O2944 2.441 . S
U2926 O2945 2.420 . S
U2926 O2946 2.455 . S
U2926 O2947 2.449 . S
O2927 U2926 2.454 . S
O2927 C2929 1.353 . S
O2928 U2926 2.458 . S
O2928 C2929 1.286 . S
C2929 U2926 2.984 . S
C2929 O2927 1.353 . S
C2929 O2928 1.286 . S
C2929 C2931 1.363 . S
C2930 C2920 1.465 . S
C2930 U2926 2.847 . S
C2930 O2944 1.249 . S
C2930 O2945 1.202 . S
C2931 C2929 1.363 . S
C2931 C2933 1.408 . S
C2931 C2936 1.342 . S
C2932 C2933 1.310 . S
C2932 C2935 1.461 . S
C2932 H2952 0.932 . S
C2933 C2931 1.408 . S
C2933 C2932 1.310 . S
C2933 H2953 0.930 . S
C2934 C2935 1.474 . S
C2934 C2936 1.285 . S
C2934 H2954 0.929 . S
C2935 C2932 1.461 . S
C2935 C2934 1.474 . S
C2936 C2931 1.342 . S
C2936 C2934 1.285 . S
C2936 H2955 0.930 . S
C2937 C2940 1.424 . S
C2937 C2942 1.245 . S
C2937 C2943 1.428 . S
C2938 C2941 1.260 . S
C2938 C2942 1.477 . S
C2938 H2956 0.932 . S
C2939 C2940 1.384 . S
C2939 C2941 1.479 . S
C2939 H2957 0.929 . S
C2940 C2937 1.424 . S
C2940 C2939 1.384 . S
C2940 H2958 0.928 . S
C2941 C2938 1.260 . S
C2941 C2939 1.479 . S
C2942 C2937 1.245 . S
C2942 C2938 1.477 . S
C2942 H2959 0.932 . S
C2943 U2926 2.882 . S
C2943 C2937 1.428 . S
C2943 O2946 1.301 . S
C2943 O2947 1.282 . S
O2944 U2926 2.441 . S
O2944 C2930 1.249 . S
O2945 U2926 2.420 . S
O2945 C2930 1.202 . S
O2946 U2926 2.455 . S
O2946 C2943 1.301 . S
O2947 U2926 2.449 . S
O2947 C2943 1.282 . S
H2948 C2921 0.931 . S
H2949 C2923 0.929 . S
H2950 C2924 0.930 . S
H2951 C2925 0.931 . S
H2952 C2932 0.932 . S
H2953 C2933 0.930 . S
H2954 C2934 0.929 . S
H2955 C2936 0.930 . S
H2956 C2938 0.932 . S
H2957 C2939 0.929 . S
H2958 C2940 0.928 . S
H2959 C2942 0.932 . S
C2960 C2961 1.264 . S
C2960 C2965 1.479 . S
C2960 C2970 1.465 . S
C2961 C2960 1.264 . S
C2961 C2963 1.339 . S
C2961 H2988 0.931 . S
C2962 C2963 1.395 . S
C2962 C2964 1.320 . S
C2963 C2961 1.339 . S
C2963 C2962 1.395 . S
C2963 H2989 0.929 . S
C2964 C2962 1.320 . S
C2964 C2965 1.405 . S
C2964 H2990 0.930 . S
C2965 C2960 1.479 . S
C2965 C2964 1.405 . S
C2965 H2991 0.931 . S
U2966 O2967 2.454 . S
U2966 O2968 2.458 . S
U2966 C2969 2.984 . S
U2966 C2970 2.847 . S
U2966 C2983 2.882 . S
U2966 O2984 2.441 . S
U2966 O2985 2.420 . S
U2966 O2986 2.455 . S
U2966 O2987 2.449 . S
O2967 U2966 2.454 . S
O2967 C2969 1.353 . S
O2968 U2966 2.458 . S
O2968 C2969 1.286 . S
C2969 U2966 2.984 . S
C2969 O2967 1.353 . S
C2969 O2968 1.286 . S
C2969 C2971 1.363 . S
C2970 C2960 1.465 . S
C2970 U2966 2.847 . S
C2970 O2984 1.249 . S
C2970 O2985 1.202 . S
C2971 C2969 1.363 . S
C2971 C2973 1.408 . S
C2971 C2976 1.342 . S
C2972 C2973 1.310 . S
C2972 C2975 1.461 . S
C2972 H2992 0.932 . S
C2973 C2971 1.408 . S
C2973 C2972 1.310 . S
C2973 H2993 0.930 . S
C2974 C2975 1.474 . S
C2974 C2976 1.285 . S
C2974 H2994 0.929 . S
C2975 C2972 1.461 . S
C2975 C2974 1.474 . S
C2976 C2971 1.342 . S
C2976 C2974 1.285 . S
C2976 H2995 0.930 . S
C2977 C2980 1.424 . S
C2977 C2982 1.245 . S
C2977 C2983 1.428 . S
C2978 C2981 1.260 . S
C2978 C2982 1.477 . S
C2978 H2996 0.932 . S
C2979 C2980 1.384 . S
C2979 C2981 1.479 . S
C2979 H2997 0.929 . S
C2980 C2977 1.424 . S
C2980 C2979 1.384 . S
C2980 H2998 0.928 . S
C2981 C2978 1.260 . S
C2981 C2979 1.479 . S
C2982 C2977 1.245 . S
C2982 C2978 1.477 . S
C2982 H2999 0.932 . S
C2983 U2966 2.882 . S
C2983 C2977 1.428 . S
C2983 O2986 1.301 . S
C2983 O2987 1.282 . S
O2984 U2966 2.441 . S
O2984 C2970 1.249 . S
O2985 U2966 2.420 . S
O2985 C2970 1.202 . S
O2986 U2966 2.455 . S
O2986 C2983 1.301 . S
O2987 U2966 2.449 . S
O2987 C2983 1.282 . S
H2988 C2961 0.931 . S
H2989 C2963 0.929 . S
H2990 C2964 0.930 . S
H2991 C2965 0.931 . S
H2992 C2972 0.932 . S
H2993 C2973 0.930 . S
H2994 C2974 0.929 . S
H2995 C2976 0.930 . S
H2996 C2978 0.932 . S
H2997 C2979 0.929 . S
H2998 C2980 0.928 . S
H2999 C2982 0.932 . S
C3000 C3001 1.264 . S
C3000 C3005 1.479 . S
C3000 C3010 1.465 . S
C3001 C3000 1.264 . S
C3001 C3003 1.339 . S
C3001 H3028 0.931 . S
C3002 C3003 1.395 . S
C3002 C3004 1.320 . S
C3003 C3001 1.339 . S
C3003 C3002 1.395 . S
C3003 H3029 0.929 . S
C3004 C3002 1.320 . S
C3004 C3005 1.405 . S
C3004 H3030 0.930 . S
C3005 C3000 1.479 . S
C3005 C3004 1.405 . S
C3005 H3031 0.931 . S
U3006 O3007 2.454 . S
U3006 O3008 2.458 . S
U3006 C3009 2.984 . S
U3006 C3010 2.847 . S
U3006 C3023 2.882 . S
U3006 O3024 2.441 . S
U3006 O3025 2.420 . S
U3006 O3026 2.455 . S
U3006 O3027 2.449 . S
O3007 U3006 2.454 . S
O3007 C3009 1.353 . S
O3008 U3006 2.458 . S
O3008 C3009 1.286 . S
C3009 U3006 2.984 . S
C3009 O3007 1.353 . S
C3009 O3008 1.286 . S
C3009 C3011 1.363 . S
C3010 C3000 1.465 . S
C3010 U3006 2.847 . S
C3010 O3024 1.249 . S
C3010 O3025 1.202 . S
C3011 C3009 1.363 . S
C3011 C3013 1.408 . S
C3011 C3016 1.342 . S
C3012 C3013 1.310 . S
C3012 C3015 1.461 . S
C3012 H3032 0.932 . S
C3013 C3011 1.408 . S
C3013 C3012 1.310 . S
C3013 H3033 0.930 . S
C3014 C3015 1.474 . S
C3014 C3016 1.285 . S
C3014 H3034 0.929 . S
C3015 C3012 1.461 . S
C3015 C3014 1.474 . S
C3016 C3011 1.342 . S
C3016 C3014 1.285 . S
C3016 H3035 0.930 . S
C3017 C3020 1.424 . S
C3017 C3022 1.245 . S
C3017 C3023 1.428 . S
C3018 C3021 1.260 . S
C3018 C3022 1.477 . S
C3018 H3036 0.932 . S
C3019 C3020 1.384 . S
C3019 C3021 1.479 . S
C3019 H3037 0.929 . S
C3020 C3017 1.424 . S
C3020 C3019 1.384 . S
C3020 H3038 0.928 . S
C3021 C3018 1.260 . S
C3021 C3019 1.479 . S
C3022 C3017 1.245 . S
C3022 C3018 1.477 . S
C3022 H3039 0.932 . S
C3023 U3006 2.882 . S
C3023 C3017 1.428 . S
C3023 O3026 1.301 . S
C3023 O3027 1.282 . S
O3024 U3006 2.441 . S
O3024 C3010 1.249 . S
O3025 U3006 2.420 . S
O3025 C3010 1.202 . S
O3026 U3006 2.455 . S
O3026 C3023 1.301 . S
O3027 U3006 2.449 . S
O3027 C3023 1.282 . S
H3028 C3001 0.931 . S
H3029 C3003 0.929 . S
H3030 C3004 0.930 . S
H3031 C3005 0.931 . S
H3032 C3012 0.932 . S
H3033 C3013 0.930 . S
H3034 C3014 0.929 . S
H3035 C3016 0.930 . S
H3036 C3018 0.932 . S
H3037 C3019 0.929 . S
H3038 C3020 0.928 . S
H3039 C3022 0.932 . S
C3040 C3041 1.264 . S
C3040 C3045 1.479 . S
C3040 C3050 1.465 . S
C3041 C3040 1.264 . S
C3041 C3043 1.339 . S
C3041 H3068 0.931 . S
C3042 C3043 1.395 . S
C3042 C3044 1.320 . S
C3043 C3041 1.339 . S
C3043 C3042 1.395 . S
C3043 H3069 0.929 . S
C3044 C3042 1.320 . S
C3044 C3045 1.405 . S
C3044 H3070 0.930 . S
C3045 C3040 1.479 . S
C3045 C3044 1.405 . S
C3045 H3071 0.931 . S
U3046 O3047 2.454 . S
U3046 O3048 2.458 . S
U3046 C3049 2.984 . S
U3046 C3050 2.847 . S
U3046 C3063 2.882 . S
U3046 O3064 2.441 . S
U3046 O3065 2.420 . S
U3046 O3066 2.455 . S
U3046 O3067 2.449 . S
O3047 U3046 2.454 . S
O3047 C3049 1.353 . S
O3048 U3046 2.458 . S
O3048 C3049 1.286 . S
C3049 U3046 2.984 . S
C3049 O3047 1.353 . S
C3049 O3048 1.286 . S
C3049 C3051 1.363 . S
C3050 C3040 1.465 . S
C3050 U3046 2.847 . S
C3050 O3064 1.249 . S
C3050 O3065 1.202 . S
C3051 C3049 1.363 . S
C3051 C3053 1.408 . S
C3051 C3056 1.342 . S
C3052 C3053 1.310 . S
C3052 C3055 1.461 . S
C3052 H3072 0.932 . S
C3053 C3051 1.408 . S
C3053 C3052 1.310 . S
C3053 H3073 0.930 . S
C3054 C3055 1.474 . S
C3054 C3056 1.285 . S
C3054 H3074 0.929 . S
C3055 C3052 1.461 . S
C3055 C3054 1.474 . S
C3056 C3051 1.342 . S
C3056 C3054 1.285 . S
C3056 H3075 0.930 . S
C3057 C3060 1.424 . S
C3057 C3062 1.245 . S
C3057 C3063 1.428 . S
C3058 C3061 1.260 . S
C3058 C3062 1.477 . S
C3058 H3076 0.932 . S
C3059 C3060 1.384 . S
C3059 C3061 1.479 . S
C3059 H3077 0.929 . S
C3060 C3057 1.424 . S
C3060 C3059 1.384 . S
C3060 H3078 0.928 . S
C3061 C3058 1.260 . S
C3061 C3059 1.479 . S
C3062 C3057 1.245 . S
C3062 C3058 1.477 . S
C3062 H3079 0.932 . S
C3063 U3046 2.882 . S
C3063 C3057 1.428 . S
C3063 O3066 1.301 . S
C3063 O3067 1.282 . S
O3064 U3046 2.441 . S
O3064 C3050 1.249 . S
O3065 U3046 2.420 . S
O3065 C3050 1.202 . S
O3066 U3046 2.455 . S
O3066 C3063 1.301 . S
O3067 U3046 2.449 . S
O3067 C3063 1.282 . S
H3068 C3041 0.931 . S
H3069 C3043 0.929 . S
H3070 C3044 0.930 . S
H3071 C3045 0.931 . S
H3072 C3052 0.932 . S
H3073 C3053 0.930 . S
H3074 C3054 0.929 . S
H3075 C3056 0.930 . S
H3076 C3058 0.932 . S
H3077 C3059 0.929 . S
H3078 C3060 0.928 . S
H3079 C3062 0.932 . S
C3080 C3081 1.264 . S
C3080 C3085 1.479 . S
C3080 C3090 1.465 . S
C3081 C3080 1.264 . S
C3081 C3083 1.339 . S
C3081 H3108 0.931 . S
C3082 C3083 1.395 . S
C3082 C3084 1.320 . S
C3083 C3081 1.339 . S
C3083 C3082 1.395 . S
C3083 H3109 0.929 . S
C3084 C3082 1.320 . S
C3084 C3085 1.405 . S
C3084 H3110 0.930 . S
C3085 C3080 1.479 . S
C3085 C3084 1.405 . S
C3085 H3111 0.931 . S
U3086 O3087 2.454 . S
U3086 O3088 2.458 . S
U3086 C3089 2.984 . S
U3086 C3090 2.847 . S
U3086 C3103 2.882 . S
U3086 O3104 2.441 . S
U3086 O3105 2.420 . S
U3086 O3106 2.455 . S
U3086 O3107 2.449 . S
O3087 U3086 2.454 . S
O3087 C3089 1.353 . S
O3088 U3086 2.458 . S
O3088 C3089 1.286 . S
C3089 U3086 2.984 . S
C3089 O3087 1.353 . S
C3089 O3088 1.286 . S
C3089 C3091 1.363 . S
C3090 C3080 1.465 . S
C3090 U3086 2.847 . S
C3090 O3104 1.249 . S
C3090 O3105 1.202 . S
C3091 C3089 1.363 . S
C3091 C3093 1.408 . S
C3091 C3096 1.342 . S
C3092 C3093 1.310 . S
C3092 C3095 1.461 . S
C3092 H3112 0.932 . S
C3093 C3091 1.408 . S
C3093 C3092 1.310 . S
C3093 H3113 0.930 . S
C3094 C3095 1.474 . S
C3094 C3096 1.285 . S
C3094 H3114 0.929 . S
C3095 C3092 1.461 . S
C3095 C3094 1.474 . S
C3096 C3091 1.342 . S
C3096 C3094 1.285 . S
C3096 H3115 0.930 . S
C3097 C3100 1.424 . S
C3097 C3102 1.245 . S
C3097 C3103 1.428 . S
C3098 C3101 1.260 . S
C3098 C3102 1.477 . S
C3098 H3116 0.932 . S
C3099 C3100 1.384 . S
C3099 C3101 1.479 . S
C3099 H3117 0.929 . S
C3100 C3097 1.424 . S
C3100 C3099 1.384 . S
C3100 H3118 0.928 . S
C3101 C3098 1.260 . S
C3101 C3099 1.479 . S
C3102 C3097 1.245 . S
C3102 C3098 1.477 . S
C3102 H3119 0.932 . S
C3103 U3086 2.882 . S
C3103 C3097 1.428 . S
C3103 O3106 1.301 . S
C3103 O3107 1.282 . S
O3104 U3086 2.441 . S
O3104 C3090 1.249 . S
O3105 U3086 2.420 . S
O3105 C3090 1.202 . S
O3106 U3086 2.455 . S
O3106 C3103 1.301 . S
O3107 U3086 2.449 . S
O3107 C3103 1.282 . S
H3108 C3081 0.931 . S
H3109 C3083 0.929 . S
H3110 C3084 0.930 . S
H3111 C3085 0.931 . S
H3112 C3092 0.932 . S
H3113 C3093 0.930 . S
H3114 C3094 0.929 . S
H3115 C3096 0.930 . S
H3116 C3098 0.932 . S
H3117 C3099 0.929 . S
H3118 C3100 0.928 . S
H3119 C3102 0.932 . S
C3120 C3121 1.264 . S
C3120 C3125 1.479 . S
C3120 C3130 1.465 . S
C3121 C3120 1.264 . S
C3121 C3123 1.339 . S
C3121 H3148 0.931 . S
C3122 C3123 1.395 . S
C3122 C3124 1.320 . S
C3123 C3121 1.339 . S
C3123 C3122 1.395 . S
C3123 H3149 0.929 . S
C3124 C3122 1.320 . S
C3124 C3125 1.405 . S
C3124 H3150 0.930 . S
C3125 C3120 1.479 . S
C3125 C3124 1.405 . S
C3125 H3151 0.931 . S
U3126 O3127 2.454 . S
U3126 O3128 2.458 . S
U3126 C3129 2.984 . S
U3126 C3130 2.847 . S
U3126 C3143 2.882 . S
U3126 O3144 2.441 . S
U3126 O3145 2.420 . S
U3126 O3146 2.455 . S
U3126 O3147 2.449 . S
O3127 U3126 2.454 . S
O3127 C3129 1.353 . S
O3128 U3126 2.458 . S
O3128 C3129 1.286 . S
C3129 U3126 2.984 . S
C3129 O3127 1.353 . S
C3129 O3128 1.286 . S
C3129 C3131 1.363 . S
C3130 C3120 1.465 . S
C3130 U3126 2.847 . S
C3130 O3144 1.249 . S
C3130 O3145 1.202 . S
C3131 C3129 1.363 . S
C3131 C3133 1.408 . S
C3131 C3136 1.342 . S
C3132 C3133 1.310 . S
C3132 C3135 1.461 . S
C3132 H3152 0.932 . S
C3133 C3131 1.408 . S
C3133 C3132 1.310 . S
C3133 H3153 0.930 . S
C3134 C3135 1.474 . S
C3134 C3136 1.285 . S
C3134 H3154 0.929 . S
C3135 C3132 1.461 . S
C3135 C3134 1.474 . S
C3136 C3131 1.342 . S
C3136 C3134 1.285 . S
C3136 H3155 0.930 . S
C3137 C3140 1.424 . S
C3137 C3142 1.245 . S
C3137 C3143 1.428 . S
C3138 C3141 1.260 . S
C3138 C3142 1.477 . S
C3138 H3156 0.932 . S
C3139 C3140 1.384 . S
C3139 C3141 1.479 . S
C3139 H3157 0.929 . S
C3140 C3137 1.424 . S
C3140 C3139 1.384 . S
C3140 H3158 0.928 . S
C3141 C3138 1.260 . S
C3141 C3139 1.479 . S
C3142 C3137 1.245 . S
C3142 C3138 1.477 . S
C3142 H3159 0.932 . S
C3143 U3126 2.882 . S
C3143 C3137 1.428 . S
C3143 O3146 1.301 . S
C3143 O3147 1.282 . S
O3144 U3126 2.441 . S
O3144 C3130 1.249 . S
O3145 U3126 2.420 . S
O3145 C3130 1.202 . S
O3146 U3126 2.455 . S
O3146 C3143 1.301 . S
O3147 U3126 2.449 . S
O3147 C3143 1.282 . S
H3148 C3121 0.931 . S
H3149 C3123 0.929 . S
H3150 C3124 0.930 . S
H3151 C3125 0.931 . S
H3152 C3132 0.932 . S
H3153 C3133 0.930 . S
H3154 C3134 0.929 . S
H3155 C3136 0.930 . S
H3156 C3138 0.932 . S
H3157 C3139 0.929 . S
H3158 C3140 0.928 . S
H3159 C3142 0.932 . S
C3160 C3161 1.264 . S
C3160 C3165 1.479 . S
C3160 C3170 1.465 . S
C3161 C3160 1.264 . S
C3161 C3163 1.339 . S
C3161 H3188 0.931 . S
C3162 C3163 1.395 . S
C3162 C3164 1.320 . S
C3163 C3161 1.339 . S
C3163 C3162 1.395 . S
C3163 H3189 0.929 . S
C3164 C3162 1.320 . S
C3164 C3165 1.405 . S
C3164 H3190 0.930 . S
C3165 C3160 1.479 . S
C3165 C3164 1.405 . S
C3165 H3191 0.931 . S
U3166 O3167 2.454 . S
U3166 O3168 2.458 . S
U3166 C3169 2.984 . S
U3166 C3170 2.847 . S
U3166 C3183 2.882 . S
U3166 O3184 2.441 . S
U3166 O3185 2.420 . S
U3166 O3186 2.455 . S
U3166 O3187 2.449 . S
O3167 U3166 2.454 . S
O3167 C3169 1.353 . S
O3168 U3166 2.458 . S
O3168 C3169 1.286 . S
C3169 U3166 2.984 . S
C3169 O3167 1.353 . S
C3169 O3168 1.286 . S
C3169 C3171 1.363 . S
C3170 C3160 1.465 . S
C3170 U3166 2.847 . S
C3170 O3184 1.249 . S
C3170 O3185 1.202 . S
C3171 C3169 1.363 . S
C3171 C3173 1.408 . S
C3171 C3176 1.342 . S
C3172 C3173 1.310 . S
C3172 C3175 1.461 . S
C3172 H3192 0.932 . S
C3173 C3171 1.408 . S
C3173 C3172 1.310 . S
C3173 H3193 0.930 . S
C3174 C3175 1.474 . S
C3174 C3176 1.285 . S
C3174 H3194 0.929 . S
C3175 C3172 1.461 . S
C3175 C3174 1.474 . S
C3176 C3171 1.342 . S
C3176 C3174 1.285 . S
C3176 H3195 0.930 . S
C3177 C3180 1.424 . S
C3177 C3182 1.245 . S
C3177 C3183 1.428 . S
C3178 C3181 1.260 . S
C3178 C3182 1.477 . S
C3178 H3196 0.932 . S
C3179 C3180 1.384 . S
C3179 C3181 1.479 . S
C3179 H3197 0.929 . S
C3180 C3177 1.424 . S
C3180 C3179 1.384 . S
C3180 H3198 0.928 . S
C3181 C3178 1.260 . S
C3181 C3179 1.479 . S
C3182 C3177 1.245 . S
C3182 C3178 1.477 . S
C3182 H3199 0.932 . S
C3183 U3166 2.882 . S
C3183 C3177 1.428 . S
C3183 O3186 1.301 . S
C3183 O3187 1.282 . S
O3184 U3166 2.441 . S
O3184 C3170 1.249 . S
O3185 U3166 2.420 . S
O3185 C3170 1.202 . S
O3186 U3166 2.455 . S
O3186 C3183 1.301 . S
O3187 U3166 2.449 . S
O3187 C3183 1.282 . S
H3188 C3161 0.931 . S
H3189 C3163 0.929 . S
H3190 C3164 0.930 . S
H3191 C3165 0.931 . S
H3192 C3172 0.932 . S
H3193 C3173 0.930 . S
H3194 C3174 0.929 . S
H3195 C3176 0.930 . S
H3196 C3178 0.932 . S
H3197 C3179 0.929 . S
H3198 C3180 0.928 . S
H3199 C3182 0.932 . S
C3200 C3201 1.264 . S
C3200 C3205 1.479 . S
C3200 C3210 1.465 . S
C3201 C3200 1.264 . S
C3201 C3203 1.339 . S
C3201 H3228 0.931 . S
C3202 C3203 1.395 . S
C3202 C3204 1.320 . S
C3203 C3201 1.339 . S
C3203 C3202 1.395 . S
C3203 H3229 0.929 . S
C3204 C3202 1.320 . S
C3204 C3205 1.405 . S
C3204 H3230 0.930 . S
C3205 C3200 1.479 . S
C3205 C3204 1.405 . S
C3205 H3231 0.931 . S
U3206 O3207 2.454 . S
U3206 O3208 2.458 . S
U3206 C3209 2.984 . S
U3206 C3210 2.847 . S
U3206 C3223 2.882 . S
U3206 O3224 2.441 . S
U3206 O3225 2.420 . S
U3206 O3226 2.455 . S
U3206 O3227 2.449 . S
O3207 U3206 2.454 . S
O3207 C3209 1.353 . S
O3208 U3206 2.458 . S
O3208 C3209 1.286 . S
C3209 U3206 2.984 . S
C3209 O3207 1.353 . S
C3209 O3208 1.286 . S
C3209 C3211 1.363 . S
C3210 C3200 1.465 . S
C3210 U3206 2.847 . S
C3210 O3224 1.249 . S
C3210 O3225 1.202 . S
C3211 C3209 1.363 . S
C3211 C3213 1.408 . S
C3211 C3216 1.342 . S
C3212 C3213 1.310 . S
C3212 C3215 1.461 . S
C3212 H3232 0.932 . S
C3213 C3211 1.408 . S
C3213 C3212 1.310 . S
C3213 H3233 0.930 . S
C3214 C3215 1.474 . S
C3214 C3216 1.285 . S
C3214 H3234 0.929 . S
C3215 C3212 1.461 . S
C3215 C3214 1.474 . S
C3216 C3211 1.342 . S
C3216 C3214 1.285 . S
C3216 H3235 0.930 . S
C3217 C3220 1.424 . S
C3217 C3222 1.245 . S
C3217 C3223 1.428 . S
C3218 C3221 1.260 . S
C3218 C3222 1.477 . S
C3218 H3236 0.932 . S
C3219 C3220 1.384 . S
C3219 C3221 1.479 . S
C3219 H3237 0.929 . S
C3220 C3217 1.424 . S
C3220 C3219 1.384 . S
C3220 H3238 0.928 . S
C3221 C3218 1.260 . S
C3221 C3219 1.479 . S
C3222 C3217 1.245 . S
C3222 C3218 1.477 . S
C3222 H3239 0.932 . S
C3223 U3206 2.882 . S
C3223 C3217 1.428 . S
C3223 O3226 1.301 . S
C3223 O3227 1.282 . S
O3224 U3206 2.441 . S
O3224 C3210 1.249 . S
O3225 U3206 2.420 . S
O3225 C3210 1.202 . S
O3226 U3206 2.455 . S
O3226 C3223 1.301 . S
O3227 U3206 2.449 . S
O3227 C3223 1.282 . S
H3228 C3201 0.931 . S
H3229 C3203 0.929 . S
H3230 C3204 0.930 . S
H3231 C3205 0.931 . S
H3232 C3212 0.932 . S
H3233 C3213 0.930 . S
H3234 C3214 0.929 . S
H3235 C3216 0.930 . S
H3236 C3218 0.932 . S
H3237 C3219 0.929 . S
H3238 C3220 0.928 . S
H3239 C3222 0.932 . S
C3240 C3241 1.264 . S
C3240 C3245 1.479 . S
C3240 C3250 1.465 . S
C3241 C3240 1.264 . S
C3241 C3243 1.339 . S
C3241 H3268 0.931 . S
C3242 C3243 1.395 . S
C3242 C3244 1.320 . S
C3243 C3241 1.339 . S
C3243 C3242 1.395 . S
C3243 H3269 0.929 . S
C3244 C3242 1.320 . S
C3244 C3245 1.405 . S
C3244 H3270 0.930 . S
C3245 C3240 1.479 . S
C3245 C3244 1.405 . S
C3245 H3271 0.931 . S
U3246 O3247 2.454 . S
U3246 O3248 2.458 . S
U3246 C3249 2.984 . S
U3246 C3250 2.847 . S
U3246 C3263 2.882 . S
U3246 O3264 2.441 . S
U3246 O3265 2.420 . S
U3246 O3266 2.455 . S
U3246 O3267 2.449 . S
O3247 U3246 2.454 . S
O3247 C3249 1.353 . S
O3248 U3246 2.458 . S
O3248 C3249 1.286 . S
C3249 U3246 2.984 . S
C3249 O3247 1.353 . S
C3249 O3248 1.286 . S
C3249 C3251 1.363 . S
C3250 C3240 1.465 . S
C3250 U3246 2.847 . S
C3250 O3264 1.249 . S
C3250 O3265 1.202 . S
C3251 C3249 1.363 . S
C3251 C3253 1.408 . S
C3251 C3256 1.342 . S
C3252 C3253 1.310 . S
C3252 C3255 1.461 . S
C3252 H3272 0.932 . S
C3253 C3251 1.408 . S
C3253 C3252 1.310 . S
C3253 H3273 0.930 . S
C3254 C3255 1.474 . S
C3254 C3256 1.285 . S
C3254 H3274 0.929 . S
C3255 C3252 1.461 . S
C3255 C3254 1.474 . S
C3256 C3251 1.342 . S
C3256 C3254 1.285 . S
C3256 H3275 0.930 . S
C3257 C3260 1.424 . S
C3257 C3262 1.245 . S
C3257 C3263 1.428 . S
C3258 C3261 1.260 . S
C3258 C3262 1.477 . S
C3258 H3276 0.932 . S
C3259 C3260 1.384 . S
C3259 C3261 1.479 . S
C3259 H3277 0.929 . S
C3260 C3257 1.424 . S
C3260 C3259 1.384 . S
C3260 H3278 0.928 . S
C3261 C3258 1.260 . S
C3261 C3259 1.479 . S
C3262 C3257 1.245 . S
C3262 C3258 1.477 . S
C3262 H3279 0.932 . S
C3263 U3246 2.882 . S
C3263 C3257 1.428 . S
C3263 O3266 1.301 . S
C3263 O3267 1.282 . S
O3264 U3246 2.441 . S
O3264 C3250 1.249 . S
O3265 U3246 2.420 . S
O3265 C3250 1.202 . S
O3266 U3246 2.455 . S
O3266 C3263 1.301 . S
O3267 U3246 2.449 . S
O3267 C3263 1.282 . S
H3268 C3241 0.931 . S
H3269 C3243 0.929 . S
H3270 C3244 0.930 . S
H3271 C3245 0.931 . S
H3272 C3252 0.932 . S
H3273 C3253 0.930 . S
H3274 C3254 0.929 . S
H3275 C3256 0.930 . S
H3276 C3258 0.932 . S
H3277 C3259 0.929 . S
H3278 C3260 0.928 . S
H3279 C3262 0.932 . S
C3280 C3281 1.264 . S
C3280 C3285 1.479 . S
C3280 C3290 1.465 . S
C3281 C3280 1.264 . S
C3281 C3283 1.339 . S
C3281 H3308 0.931 . S
C3282 C3283 1.395 . S
C3282 C3284 1.320 . S
C3283 C3281 1.339 . S
C3283 C3282 1.395 . S
C3283 H3309 0.929 . S
C3284 C3282 1.320 . S
C3284 C3285 1.405 . S
C3284 H3310 0.930 . S
C3285 C3280 1.479 . S
C3285 C3284 1.405 . S
C3285 H3311 0.931 . S
U3286 O3287 2.454 . S
U3286 O3288 2.458 . S
U3286 C3289 2.984 . S
U3286 C3290 2.847 . S
U3286 C3303 2.882 . S
U3286 O3304 2.441 . S
U3286 O3305 2.420 . S
U3286 O3306 2.455 . S
U3286 O3307 2.449 . S
O3287 U3286 2.454 . S
O3287 C3289 1.353 . S
O3288 U3286 2.458 . S
O3288 C3289 1.286 . S
C3289 U3286 2.984 . S
C3289 O3287 1.353 . S
C3289 O3288 1.286 . S
C3289 C3291 1.363 . S
C3290 C3280 1.465 . S
C3290 U3286 2.847 . S
C3290 O3304 1.249 . S
C3290 O3305 1.202 . S
C3291 C3289 1.363 . S
C3291 C3293 1.408 . S
C3291 C3296 1.342 . S
C3292 C3293 1.310 . S
C3292 C3295 1.461 . S
C3292 H3312 0.932 . S
C3293 C3291 1.408 . S
C3293 C3292 1.310 . S
C3293 H3313 0.930 . S
C3294 C3295 1.474 . S
C3294 C3296 1.285 . S
C3294 H3314 0.929 . S
C3295 C3292 1.461 . S
C3295 C3294 1.474 . S
C3296 C3291 1.342 . S
C3296 C3294 1.285 . S
C3296 H3315 0.930 . S
C3297 C3300 1.424 . S
C3297 C3302 1.245 . S
C3297 C3303 1.428 . S
C3298 C3301 1.260 . S
C3298 C3302 1.477 . S
C3298 H3316 0.932 . S
C3299 C3300 1.384 . S
C3299 C3301 1.479 . S
C3299 H3317 0.929 . S
C3300 C3297 1.424 . S
C3300 C3299 1.384 . S
C3300 H3318 0.928 . S
C3301 C3298 1.260 . S
C3301 C3299 1.479 . S
C3302 C3297 1.245 . S
C3302 C3298 1.477 . S
C3302 H3319 0.932 . S
C3303 U3286 2.882 . S
C3303 C3297 1.428 . S
C3303 O3306 1.301 . S
C3303 O3307 1.282 . S
O3304 U3286 2.441 . S
O3304 C3290 1.249 . S
O3305 U3286 2.420 . S
O3305 C3290 1.202 . S
O3306 U3286 2.455 . S
O3306 C3303 1.301 . S
O3307 U3286 2.449 . S
O3307 C3303 1.282 . S
H3308 C3281 0.931 . S
H3309 C3283 0.929 . S
H3310 C3284 0.930 . S
H3311 C3285 0.931 . S
H3312 C3292 0.932 . S
H3313 C3293 0.930 . S
H3314 C3294 0.929 . S
H3315 C3296 0.930 . S
H3316 C3298 0.932 . S
H3317 C3299 0.929 . S
H3318 C3300 0.928 . S
H3319 C3302 0.932 . S
C3320 C3321 1.264 . S
C3320 C3325 1.479 . S
C3320 C3330 1.465 . S
C3321 C3320 1.264 . S
C3321 C3323 1.339 . S
C3321 H3348 0.931 . S
C3322 C3323 1.395 . S
C3322 C3324 1.320 . S
C3323 C3321 1.339 . S
C3323 C3322 1.395 . S
C3323 H3349 0.929 . S
C3324 C3322 1.320 . S
C3324 C3325 1.405 . S
C3324 H3350 0.930 . S
C3325 C3320 1.479 . S
C3325 C3324 1.405 . S
C3325 H3351 0.931 . S
U3326 O3327 2.454 . S
U3326 O3328 2.458 . S
U3326 C3329 2.984 . S
U3326 C3330 2.847 . S
U3326 C3343 2.882 . S
U3326 O3344 2.441 . S
U3326 O3345 2.420 . S
U3326 O3346 2.455 . S
U3326 O3347 2.449 . S
O3327 U3326 2.454 . S
O3327 C3329 1.353 . S
O3328 U3326 2.458 . S
O3328 C3329 1.286 . S
C3329 U3326 2.984 . S
C3329 O3327 1.353 . S
C3329 O3328 1.286 . S
C3329 C3331 1.363 . S
C3330 C3320 1.465 . S
C3330 U3326 2.847 . S
C3330 O3344 1.249 . S
C3330 O3345 1.202 . S
C3331 C3329 1.363 . S
C3331 C3333 1.408 . S
C3331 C3336 1.342 . S
C3332 C3333 1.310 . S
C3332 C3335 1.461 . S
C3332 H3352 0.932 . S
C3333 C3331 1.408 . S
C3333 C3332 1.310 . S
C3333 H3353 0.930 . S
C3334 C3335 1.474 . S
C3334 C3336 1.285 . S
C3334 H3354 0.929 . S
C3335 C3332 1.461 . S
C3335 C3334 1.474 . S
C3336 C3331 1.342 . S
C3336 C3334 1.285 . S
C3336 H3355 0.930 . S
C3337 C3340 1.424 . S
C3337 C3342 1.245 . S
C3337 C3343 1.428 . S
C3338 C3341 1.260 . S
C3338 C3342 1.477 . S
C3338 H3356 0.932 . S
C3339 C3340 1.384 . S
C3339 C3341 1.479 . S
C3339 H3357 0.929 . S
C3340 C3337 1.424 . S
C3340 C3339 1.384 . S
C3340 H3358 0.928 . S
C3341 C3338 1.260 . S
C3341 C3339 1.479 . S
C3342 C3337 1.245 . S
C3342 C3338 1.477 . S
C3342 H3359 0.932 . S
C3343 U3326 2.882 . S
C3343 C3337 1.428 . S
C3343 O3346 1.301 . S
C3343 O3347 1.282 . S
O3344 U3326 2.441 . S
O3344 C3330 1.249 . S
O3345 U3326 2.420 . S
O3345 C3330 1.202 . S
O3346 U3326 2.455 . S
O3346 C3343 1.301 . S
O3347 U3326 2.449 . S
O3347 C3343 1.282 . S
H3348 C3321 0.931 . S
H3349 C3323 0.929 . S
H3350 C3324 0.930 . S
H3351 C3325 0.931 . S
H3352 C3332 0.932 . S
H3353 C3333 0.930 . S
H3354 C3334 0.929 . S
H3355 C3336 0.930 . S
H3356 C3338 0.932 . S
H3357 C3339 0.929 . S
H3358 C3340 0.928 . S
H3359 C3342 0.932 . S
C3360 C3361 1.264 . S
C3360 C3365 1.479 . S
C3360 C3370 1.465 . S
C3361 C3360 1.264 . S
C3361 C3363 1.339 . S
C3361 H3388 0.931 . S
C3362 C3363 1.395 . S
C3362 C3364 1.320 . S
C3363 C3361 1.339 . S
C3363 C3362 1.395 . S
C3363 H3389 0.929 . S
C3364 C3362 1.320 . S
C3364 C3365 1.405 . S
C3364 H3390 0.930 . S
C3365 C3360 1.479 . S
C3365 C3364 1.405 . S
C3365 H3391 0.931 . S
U3366 O3367 2.454 . S
U3366 O3368 2.458 . S
U3366 C3369 2.984 . S
U3366 C3370 2.847 . S
U3366 C3383 2.882 . S
U3366 O3384 2.441 . S
U3366 O3385 2.420 . S
U3366 O3386 2.455 . S
U3366 O3387 2.449 . S
O3367 U3366 2.454 . S
O3367 C3369 1.353 . S
O3368 U3366 2.458 . S
O3368 C3369 1.286 . S
C3369 U3366 2.984 . S
C3369 O3367 1.353 . S
C3369 O3368 1.286 . S
C3369 C3371 1.363 . S
C3370 C3360 1.465 . S
C3370 U3366 2.847 . S
C3370 O3384 1.249 . S
C3370 O3385 1.202 . S
C3371 C3369 1.363 . S
C3371 C3373 1.408 . S
C3371 C3376 1.342 . S
C3372 C3373 1.310 . S
C3372 C3375 1.461 . S
C3372 H3392 0.932 . S
C3373 C3371 1.408 . S
C3373 C3372 1.310 . S
C3373 H3393 0.930 . S
C3374 C3375 1.474 . S
C3374 C3376 1.285 . S
C3374 H3394 0.929 . S
C3375 C3372 1.461 . S
C3375 C3374 1.474 . S
C3376 C3371 1.342 . S
C3376 C3374 1.285 . S
C3376 H3395 0.930 . S
C3377 C3380 1.424 . S
C3377 C3382 1.245 . S
C3377 C3383 1.428 . S
C3378 C3381 1.260 . S
C3378 C3382 1.477 . S
C3378 H3396 0.932 . S
C3379 C3380 1.384 . S
C3379 C3381 1.479 . S
C3379 H3397 0.929 . S
C3380 C3377 1.424 . S
C3380 C3379 1.384 . S
C3380 H3398 0.928 . S
C3381 C3378 1.260 . S
C3381 C3379 1.479 . S
C3382 C3377 1.245 . S
C3382 C3378 1.477 . S
C3382 H3399 0.932 . S
C3383 U3366 2.882 . S
C3383 C3377 1.428 . S
C3383 O3386 1.301 . S
C3383 O3387 1.282 . S
O3384 U3366 2.441 . S
O3384 C3370 1.249 . S
O3385 U3366 2.420 . S
O3385 C3370 1.202 . S
O3386 U3366 2.455 . S
O3386 C3383 1.301 . S
O3387 U3366 2.449 . S
O3387 C3383 1.282 . S
H3388 C3361 0.931 . S
H3389 C3363 0.929 . S
H3390 C3364 0.930 . S
H3391 C3365 0.931 . S
H3392 C3372 0.932 . S
H3393 C3373 0.930 . S
H3394 C3374 0.929 . S
H3395 C3376 0.930 . S
H3396 C3378 0.932 . S
H3397 C3379 0.929 . S
H3398 C3380 0.928 . S
H3399 C3382 0.932 . S
C3400 C3401 1.264 . S
C3400 C3405 1.479 . S
C3400 C3410 1.465 . S
C3401 C3400 1.264 . S
C3401 C3403 1.339 . S
C3401 H3428 0.931 . S
C3402 C3403 1.395 . S
C3402 C3404 1.320 . S
C3403 C3401 1.339 . S
C3403 C3402 1.395 . S
C3403 H3429 0.929 . S
C3404 C3402 1.320 . S
C3404 C3405 1.405 . S
C3404 H3430 0.930 . S
C3405 C3400 1.479 . S
C3405 C3404 1.405 . S
C3405 H3431 0.931 . S
U3406 O3407 2.454 . S
U3406 O3408 2.458 . S
U3406 C3409 2.984 . S
U3406 C3410 2.847 . S
U3406 C3423 2.882 . S
U3406 O3424 2.441 . S
U3406 O3425 2.420 . S
U3406 O3426 2.455 . S
U3406 O3427 2.449 . S
O3407 U3406 2.454 . S
O3407 C3409 1.353 . S
O3408 U3406 2.458 . S
O3408 C3409 1.286 . S
C3409 U3406 2.984 . S
C3409 O3407 1.353 . S
C3409 O3408 1.286 . S
C3409 C3411 1.363 . S
C3410 C3400 1.465 . S
C3410 U3406 2.847 . S
C3410 O3424 1.249 . S
C3410 O3425 1.202 . S
C3411 C3409 1.363 . S
C3411 C3413 1.408 . S
C3411 C3416 1.342 . S
C3412 C3413 1.310 . S
C3412 C3415 1.461 . S
C3412 H3432 0.932 . S
C3413 C3411 1.408 . S
C3413 C3412 1.310 . S
C3413 H3433 0.930 . S
C3414 C3415 1.474 . S
C3414 C3416 1.285 . S
C3414 H3434 0.929 . S
C3415 C3412 1.461 . S
C3415 C3414 1.474 . S
C3416 C3411 1.342 . S
C3416 C3414 1.285 . S
C3416 H3435 0.930 . S
C3417 C3420 1.424 . S
C3417 C3422 1.245 . S
C3417 C3423 1.428 . S
C3418 C3421 1.260 . S
C3418 C3422 1.477 . S
C3418 H3436 0.932 . S
C3419 C3420 1.384 . S
C3419 C3421 1.479 . S
C3419 H3437 0.929 . S
C3420 C3417 1.424 . S
C3420 C3419 1.384 . S
C3420 H3438 0.928 . S
C3421 C3418 1.260 . S
C3421 C3419 1.479 . S
C3422 C3417 1.245 . S
C3422 C3418 1.477 . S
C3422 H3439 0.932 . S
C3423 U3406 2.882 . S
C3423 C3417 1.428 . S
C3423 O3426 1.301 . S
C3423 O3427 1.282 . S
O3424 U3406 2.441 . S
O3424 C3410 1.249 . S
O3425 U3406 2.420 . S
O3425 C3410 1.202 . S
O3426 U3406 2.455 . S
O3426 C3423 1.301 . S
O3427 U3406 2.449 . S
O3427 C3423 1.282 . S
H3428 C3401 0.931 . S
H3429 C3403 0.929 . S
H3430 C3404 0.930 . S
H3431 C3405 0.931 . S
H3432 C3412 0.932 . S
H3433 C3413 0.930 . S
H3434 C3414 0.929 . S
H3435 C3416 0.930 . S
H3436 C3418 0.932 . S
H3437 C3419 0.929 . S
H3438 C3420 0.928 . S
H3439 C3422 0.932 . S
C3440 C3441 1.264 . S
C3440 C3445 1.479 . S
C3440 C3450 1.465 . S
C3441 C3440 1.264 . S
C3441 C3443 1.339 . S
C3441 H3468 0.931 . S
C3442 C3443 1.395 . S
C3442 C3444 1.320 . S
C3443 C3441 1.339 . S
C3443 C3442 1.395 . S
C3443 H3469 0.929 . S
C3444 C3442 1.320 . S
C3444 C3445 1.405 . S
C3444 H3470 0.930 . S
C3445 C3440 1.479 . S
C3445 C3444 1.405 . S
C3445 H3471 0.931 . S
U3446 O3447 2.454 . S
U3446 O3448 2.458 . S
U3446 C3449 2.984 . S
U3446 C3450 2.847 . S
U3446 C3463 2.882 . S
U3446 O3464 2.441 . S
U3446 O3465 2.420 . S
U3446 O3466 2.455 . S
U3446 O3467 2.449 . S
O3447 U3446 2.454 . S
O3447 C3449 1.353 . S
O3448 U3446 2.458 . S
O3448 C3449 1.286 . S
C3449 U3446 2.984 . S
C3449 O3447 1.353 . S
C3449 O3448 1.286 . S
C3449 C3451 1.363 . S
C3450 C3440 1.465 . S
C3450 U3446 2.847 . S
C3450 O3464 1.249 . S
C3450 O3465 1.202 . S
C3451 C3449 1.363 . S
C3451 C3453 1.408 . S
C3451 C3456 1.342 . S
C3452 C3453 1.310 . S
C3452 C3455 1.461 . S
C3452 H3472 0.932 . S
C3453 C3451 1.408 . S
C3453 C3452 1.310 . S
C3453 H3473 0.930 . S
C3454 C3455 1.474 . S
C3454 C3456 1.285 . S
C3454 H3474 0.929 . S
C3455 C3452 1.461 . S
C3455 C3454 1.474 . S
C3456 C3451 1.342 . S
C3456 C3454 1.285 . S
C3456 H3475 0.930 . S
C3457 C3460 1.424 . S
C3457 C3462 1.245 . S
C3457 C3463 1.428 . S
C3458 C3461 1.260 . S
C3458 C3462 1.477 . S
C3458 H3476 0.932 . S
C3459 C3460 1.384 . S
C3459 C3461 1.479 . S
C3459 H3477 0.929 . S
C3460 C3457 1.424 . S
C3460 C3459 1.384 . S
C3460 H3478 0.928 . S
C3461 C3458 1.260 . S
C3461 C3459 1.479 . S
C3462 C3457 1.245 . S
C3462 C3458 1.477 . S
C3462 H3479 0.932 . S
C3463 U3446 2.882 . S
C3463 C3457 1.428 . S
C3463 O3466 1.301 . S
C3463 O3467 1.282 . S
O3464 U3446 2.441 . S
O3464 C3450 1.249 . S
O3465 U3446 2.420 . S
O3465 C3450 1.202 . S
O3466 U3446 2.455 . S
O3466 C3463 1.301 . S
O3467 U3446 2.449 . S
O3467 C3463 1.282 . S
H3468 C3441 0.931 . S
H3469 C3443 0.929 . S
H3470 C3444 0.930 . S
H3471 C3445 0.931 . S
H3472 C3452 0.932 . S
H3473 C3453 0.930 . S
H3474 C3454 0.929 . S
H3475 C3456 0.930 . S
H3476 C3458 0.932 . S
H3477 C3459 0.929 . S
H3478 C3460 0.928 . S
H3479 C3462 0.932 . S
C3480 C3481 1.264 . S
C3480 C3485 1.479 . S
C3480 C3490 1.465 . S
C3481 C3480 1.264 . S
C3481 C3483 1.339 . S
C3481 H3508 0.931 . S
C3482 C3483 1.395 . S
C3482 C3484 1.320 . S
C3483 C3481 1.339 . S
C3483 C3482 1.395 . S
C3483 H3509 0.929 . S
C3484 C3482 1.320 . S
C3484 C3485 1.405 . S
C3484 H3510 0.930 . S
C3485 C3480 1.479 . S
C3485 C3484 1.405 . S
C3485 H3511 0.931 . S
U3486 O3487 2.454 . S
U3486 O3488 2.458 . S
U3486 C3489 2.984 . S
U3486 C3490 2.847 . S
U3486 C3503 2.882 . S
U3486 O3504 2.441 . S
U3486 O3505 2.420 . S
U3486 O3506 2.455 . S
U3486 O3507 2.449 . S
O3487 U3486 2.454 . S
O3487 C3489 1.353 . S
O3488 U3486 2.458 . S
O3488 C3489 1.286 . S
C3489 U3486 2.984 . S
C3489 O3487 1.353 . S
C3489 O3488 1.286 . S
C3489 C3491 1.363 . S
C3490 C3480 1.465 . S
C3490 U3486 2.847 . S
C3490 O3504 1.249 . S
C3490 O3505 1.202 . S
C3491 C3489 1.363 . S
C3491 C3493 1.408 . S
C3491 C3496 1.342 . S
C3492 C3493 1.310 . S
C3492 C3495 1.461 . S
C3492 H3512 0.932 . S
C3493 C3491 1.408 . S
C3493 C3492 1.310 . S
C3493 H3513 0.930 . S
C3494 C3495 1.474 . S
C3494 C3496 1.285 . S
C3494 H3514 0.929 . S
C3495 C3492 1.461 . S
C3495 C3494 1.474 . S
C3496 C3491 1.342 . S
C3496 C3494 1.285 . S
C3496 H3515 0.930 . S
C3497 C3500 1.424 . S
C3497 C3502 1.245 . S
C3497 C3503 1.428 . S
C3498 C3501 1.260 . S
C3498 C3502 1.477 . S
C3498 H3516 0.932 . S
C3499 C3500 1.384 . S
C3499 C3501 1.479 . S
C3499 H3517 0.929 . S
C3500 C3497 1.424 . S
C3500 C3499 1.384 . S
C3500 H3518 0.928 . S
C3501 C3498 1.260 . S
C3501 C3499 1.479 . S
C3502 C3497 1.245 . S
C3502 C3498 1.477 . S
C3502 H3519 0.932 . S
C3503 U3486 2.882 . S
C3503 C3497 1.428 . S
C3503 O3506 1.301 . S
C3503 O3507 1.282 . S
O3504 U3486 2.441 . S
O3504 C3490 1.249 . S
O3505 U3486 2.420 . S
O3505 C3490 1.202 . S
O3506 U3486 2.455 . S
O3506 C3503 1.301 . S
O3507 U3486 2.449 . S
O3507 C3503 1.282 . S
H3508 C3481 0.931 . S
H3509 C3483 0.929 . S
H3510 C3484 0.930 . S
H3511 C3485 0.931 . S
H3512 C3492 0.932 . S
H3513 C3493 0.930 . S
H3514 C3494 0.929 . S
H3515 C3496 0.930 . S
H3516 C3498 0.932 . S
H3517 C3499 0.929 . S
H3518 C3500 0.928 . S
H3519 C3502 0.932 . S
C3520 C3521 1.264 . S
C3520 C3525 1.479 . S
C3520 C3530 1.465 . S
C3521 C3520 1.264 . S
C3521 C3523 1.339 . S
C3521 H3548 0.931 . S
C3522 C3523 1.395 . S
C3522 C3524 1.320 . S
C3523 C3521 1.339 . S
C3523 C3522 1.395 . S
C3523 H3549 0.929 . S
C3524 C3522 1.320 . S
C3524 C3525 1.405 . S
C3524 H3550 0.930 . S
C3525 C3520 1.479 . S
C3525 C3524 1.405 . S
C3525 H3551 0.931 . S
U3526 O3527 2.454 . S
U3526 O3528 2.458 . S
U3526 C3529 2.984 . S
U3526 C3530 2.847 . S
U3526 C3543 2.882 . S
U3526 O3544 2.441 . S
U3526 O3545 2.420 . S
U3526 O3546 2.455 . S
U3526 O3547 2.449 . S
O3527 U3526 2.454 . S
O3527 C3529 1.353 . S
O3528 U3526 2.458 . S
O3528 C3529 1.286 . S
C3529 U3526 2.984 . S
C3529 O3527 1.353 . S
C3529 O3528 1.286 . S
C3529 C3531 1.363 . S
C3530 C3520 1.465 . S
C3530 U3526 2.847 . S
C3530 O3544 1.249 . S
C3530 O3545 1.202 . S
C3531 C3529 1.363 . S
C3531 C3533 1.408 . S
C3531 C3536 1.342 . S
C3532 C3533 1.310 . S
C3532 C3535 1.461 . S
C3532 H3552 0.932 . S
C3533 C3531 1.408 . S
C3533 C3532 1.310 . S
C3533 H3553 0.930 . S
C3534 C3535 1.474 . S
C3534 C3536 1.285 . S
C3534 H3554 0.929 . S
C3535 C3532 1.461 . S
C3535 C3534 1.474 . S
C3536 C3531 1.342 . S
C3536 C3534 1.285 . S
C3536 H3555 0.930 . S
C3537 C3540 1.424 . S
C3537 C3542 1.245 . S
C3537 C3543 1.428 . S
C3538 C3541 1.260 . S
C3538 C3542 1.477 . S
C3538 H3556 0.932 . S
C3539 C3540 1.384 . S
C3539 C3541 1.479 . S
C3539 H3557 0.929 . S
C3540 C3537 1.424 . S
C3540 C3539 1.384 . S
C3540 H3558 0.928 . S
C3541 C3538 1.260 . S
C3541 C3539 1.479 . S
C3542 C3537 1.245 . S
C3542 C3538 1.477 . S
C3542 H3559 0.932 . S
C3543 U3526 2.882 . S
C3543 C3537 1.428 . S
C3543 O3546 1.301 . S
C3543 O3547 1.282 . S
O3544 U3526 2.441 . S
O3544 C3530 1.249 . S
O3545 U3526 2.420 . S
O3545 C3530 1.202 . S
O3546 U3526 2.455 . S
O3546 C3543 1.301 . S
O3547 U3526 2.449 . S
O3547 C3543 1.282 . S
H3548 C3521 0.931 . S
H3549 C3523 0.929 . S
H3550 C3524 0.930 . S
H3551 C3525 0.931 . S
H3552 C3532 0.932 . S
H3553 C3533 0.930 . S
H3554 C3534 0.929 . S
H3555 C3536 0.930 . S
H3556 C3538 0.932 . S
H3557 C3539 0.929 . S
H3558 C3540 0.928 . S
H3559 C3542 0.932 . S
C3560 C3561 1.264 . S
C3560 C3565 1.479 . S
C3560 C3570 1.465 . S
C3561 C3560 1.264 . S
C3561 C3563 1.339 . S
C3561 H3588 0.931 . S
C3562 C3563 1.395 . S
C3562 C3564 1.320 . S
C3563 C3561 1.339 . S
C3563 C3562 1.395 . S
C3563 H3589 0.929 . S
C3564 C3562 1.320 . S
C3564 C3565 1.405 . S
C3564 H3590 0.930 . S
C3565 C3560 1.479 . S
C3565 C3564 1.405 . S
C3565 H3591 0.931 . S
U3566 O3567 2.454 . S
U3566 O3568 2.458 . S
U3566 C3569 2.984 . S
U3566 C3570 2.847 . S
U3566 C3583 2.882 . S
U3566 O3584 2.441 . S
U3566 O3585 2.420 . S
U3566 O3586 2.455 . S
U3566 O3587 2.449 . S
O3567 U3566 2.454 . S
O3567 C3569 1.353 . S
O3568 U3566 2.458 . S
O3568 C3569 1.286 . S
C3569 U3566 2.984 . S
C3569 O3567 1.353 . S
C3569 O3568 1.286 . S
C3569 C3571 1.363 . S
C3570 C3560 1.465 . S
C3570 U3566 2.847 . S
C3570 O3584 1.249 . S
C3570 O3585 1.202 . S
C3571 C3569 1.363 . S
C3571 C3573 1.408 . S
C3571 C3576 1.342 . S
C3572 C3573 1.310 . S
C3572 C3575 1.461 . S
C3572 H3592 0.932 . S
C3573 C3571 1.408 . S
C3573 C3572 1.310 . S
C3573 H3593 0.930 . S
C3574 C3575 1.474 . S
C3574 C3576 1.285 . S
C3574 H3594 0.929 . S
C3575 C3572 1.461 . S
C3575 C3574 1.474 . S
C3576 C3571 1.342 . S
C3576 C3574 1.285 . S
C3576 H3595 0.930 . S
C3577 C3580 1.424 . S
C3577 C3582 1.245 . S
C3577 C3583 1.428 . S
C3578 C3581 1.260 . S
C3578 C3582 1.477 . S
C3578 H3596 0.932 . S
C3579 C3580 1.384 . S
C3579 C3581 1.479 . S
C3579 H3597 0.929 . S
C3580 C3577 1.424 . S
C3580 C3579 1.384 . S
C3580 H3598 0.928 . S
C3581 C3578 1.260 . S
C3581 C3579 1.479 . S
C3582 C3577 1.245 . S
C3582 C3578 1.477 . S
C3582 H3599 0.932 . S
C3583 U3566 2.882 . S
C3583 C3577 1.428 . S
C3583 O3586 1.301 . S
C3583 O3587 1.282 . S
O3584 U3566 2.441 . S
O3584 C3570 1.249 . S
O3585 U3566 2.420 . S
O3585 C3570 1.202 . S
O3586 U3566 2.455 . S
O3586 C3583 1.301 . S
O3587 U3566 2.449 . S
O3587 C3583 1.282 . S
H3588 C3561 0.931 . S
H3589 C3563 0.929 . S
H3590 C3564 0.930 . S
H3591 C3565 0.931 . S
H3592 C3572 0.932 . S
H3593 C3573 0.930 . S
H3594 C3574 0.929 . S
H3595 C3576 0.930 . S
H3596 C3578 0.932 . S
H3597 C3579 0.929 . S
H3598 C3580 0.928 . S
H3599 C3582 0.932 . S
C3600 C3601 1.264 . S
C3600 C3605 1.479 . S
C3600 C3610 1.465 . S
C3601 C3600 1.264 . S
C3601 C3603 1.339 . S
C3601 H3628 0.931 . S
C3602 C3603 1.395 . S
C3602 C3604 1.320 . S
C3603 C3601 1.339 . S
C3603 C3602 1.395 . S
C3603 H3629 0.929 . S
C3604 C3602 1.320 . S
C3604 C3605 1.405 . S
C3604 H3630 0.930 . S
C3605 C3600 1.479 . S
C3605 C3604 1.405 . S
C3605 H3631 0.931 . S
U3606 O3607 2.454 . S
U3606 O3608 2.458 . S
U3606 C3609 2.984 . S
U3606 C3610 2.847 . S
U3606 C3623 2.882 . S
U3606 O3624 2.441 . S
U3606 O3625 2.420 . S
U3606 O3626 2.455 . S
U3606 O3627 2.449 . S
O3607 U3606 2.454 . S
O3607 C3609 1.353 . S
O3608 U3606 2.458 . S
O3608 C3609 1.286 . S
C3609 U3606 2.984 . S
C3609 O3607 1.353 . S
C3609 O3608 1.286 . S
C3609 C3611 1.363 . S
C3610 C3600 1.465 . S
C3610 U3606 2.847 . S
C3610 O3624 1.249 . S
C3610 O3625 1.202 . S
C3611 C3609 1.363 . S
C3611 C3613 1.408 . S
C3611 C3616 1.342 . S
C3612 C3613 1.310 . S
C3612 C3615 1.461 . S
C3612 H3632 0.932 . S
C3613 C3611 1.408 . S
C3613 C3612 1.310 . S
C3613 H3633 0.930 . S
C3614 C3615 1.474 . S
C3614 C3616 1.285 . S
C3614 H3634 0.929 . S
C3615 C3612 1.461 . S
C3615 C3614 1.474 . S
C3616 C3611 1.342 . S
C3616 C3614 1.285 . S
C3616 H3635 0.930 . S
C3617 C3620 1.424 . S
C3617 C3622 1.245 . S
C3617 C3623 1.428 . S
C3618 C3621 1.260 . S
C3618 C3622 1.477 . S
C3618 H3636 0.932 . S
C3619 C3620 1.384 . S
C3619 C3621 1.479 . S
C3619 H3637 0.929 . S
C3620 C3617 1.424 . S
C3620 C3619 1.384 . S
C3620 H3638 0.928 . S
C3621 C3618 1.260 . S
C3621 C3619 1.479 . S
C3622 C3617 1.245 . S
C3622 C3618 1.477 . S
C3622 H3639 0.932 . S
C3623 U3606 2.882 . S
C3623 C3617 1.428 . S
C3623 O3626 1.301 . S
C3623 O3627 1.282 . S
O3624 U3606 2.441 . S
O3624 C3610 1.249 . S
O3625 U3606 2.420 . S
O3625 C3610 1.202 . S
O3626 U3606 2.455 . S
O3626 C3623 1.301 . S
O3627 U3606 2.449 . S
O3627 C3623 1.282 . S
H3628 C3601 0.931 . S
H3629 C3603 0.929 . S
H3630 C3604 0.930 . S
H3631 C3605 0.931 . S
H3632 C3612 0.932 . S
H3633 C3613 0.930 . S
H3634 C3614 0.929 . S
H3635 C3616 0.930 . S
H3636 C3618 0.932 . S
H3637 C3619 0.929 . S
H3638 C3620 0.928 . S
H3639 C3622 0.932 . S
C3640 C3641 1.264 . S
C3640 C3645 1.479 . S
C3640 C3650 1.465 . S
C3641 C3640 1.264 . S
C3641 C3643 1.339 . S
C3641 H3668 0.931 . S
C3642 C3643 1.395 . S
C3642 C3644 1.320 . S
C3643 C3641 1.339 . S
C3643 C3642 1.395 . S
C3643 H3669 0.929 . S
C3644 C3642 1.320 . S
C3644 C3645 1.405 . S
C3644 H3670 0.930 . S
C3645 C3640 1.479 . S
C3645 C3644 1.405 . S
C3645 H3671 0.931 . S
U3646 O3647 2.454 . S
U3646 O3648 2.458 . S
U3646 C3649 2.984 . S
U3646 C3650 2.847 . S
U3646 C3663 2.882 . S
U3646 O3664 2.441 . S
U3646 O3665 2.420 . S
U3646 O3666 2.455 . S
U3646 O3667 2.449 . S
O3647 U3646 2.454 . S
O3647 C3649 1.353 . S
O3648 U3646 2.458 . S
O3648 C3649 1.286 . S
C3649 U3646 2.984 . S
C3649 O3647 1.353 . S
C3649 O3648 1.286 . S
C3649 C3651 1.363 . S
C3650 C3640 1.465 . S
C3650 U3646 2.847 . S
C3650 O3664 1.249 . S
C3650 O3665 1.202 . S
C3651 C3649 1.363 . S
C3651 C3653 1.408 . S
C3651 C3656 1.342 . S
C3652 C3653 1.310 . S
C3652 C3655 1.461 . S
C3652 H3672 0.932 . S
C3653 C3651 1.408 . S
C3653 C3652 1.310 . S
C3653 H3673 0.930 . S
C3654 C3655 1.474 . S
C3654 C3656 1.285 . S
C3654 H3674 0.929 . S
C3655 C3652 1.461 . S
C3655 C3654 1.474 . S
C3656 C3651 1.342 . S
C3656 C3654 1.285 . S
C3656 H3675 0.930 . S
C3657 C3660 1.424 . S
C3657 C3662 1.245 . S
C3657 C3663 1.428 . S
C3658 C3661 1.260 . S
C3658 C3662 1.477 . S
C3658 H3676 0.932 . S
C3659 C3660 1.384 . S
C3659 C3661 1.479 . S
C3659 H3677 0.929 . S
C3660 C3657 1.424 . S
C3660 C3659 1.384 . S
C3660 H3678 0.928 . S
C3661 C3658 1.260 . S
C3661 C3659 1.479 . S
C3662 C3657 1.245 . S
C3662 C3658 1.477 . S
C3662 H3679 0.932 . S
C3663 U3646 2.882 . S
C3663 C3657 1.428 . S
C3663 O3666 1.301 . S
C3663 O3667 1.282 . S
O3664 U3646 2.441 . S
O3664 C3650 1.249 . S
O3665 U3646 2.420 . S
O3665 C3650 1.202 . S
O3666 U3646 2.455 . S
O3666 C3663 1.301 . S
O3667 U3646 2.449 . S
O3667 C3663 1.282 . S
H3668 C3641 0.931 . S
H3669 C3643 0.929 . S
H3670 C3644 0.930 . S
H3671 C3645 0.931 . S
H3672 C3652 0.932 . S
H3673 C3653 0.930 . S
H3674 C3654 0.929 . S
H3675 C3656 0.930 . S
H3676 C3658 0.932 . S
H3677 C3659 0.929 . S
H3678 C3660 0.928 . S
H3679 C3662 0.932 . S
C3680 C3681 1.264 . S
C3680 C3685 1.479 . S
C3680 C3690 1.465 . S
C3681 C3680 1.264 . S
C3681 C3683 1.339 . S
C3681 H3708 0.931 . S
C3682 C3683 1.395 . S
C3682 C3684 1.320 . S
C3683 C3681 1.339 . S
C3683 C3682 1.395 . S
C3683 H3709 0.929 . S
C3684 C3682 1.320 . S
C3684 C3685 1.405 . S
C3684 H3710 0.930 . S
C3685 C3680 1.479 . S
C3685 C3684 1.405 . S
C3685 H3711 0.931 . S
U3686 O3687 2.454 . S
U3686 O3688 2.458 . S
U3686 C3689 2.984 . S
U3686 C3690 2.847 . S
U3686 C3703 2.882 . S
U3686 O3704 2.441 . S
U3686 O3705 2.420 . S
U3686 O3706 2.455 . S
U3686 O3707 2.449 . S
O3687 U3686 2.454 . S
O3687 C3689 1.353 . S
O3688 U3686 2.458 . S
O3688 C3689 1.286 . S
C3689 U3686 2.984 . S
C3689 O3687 1.353 . S
C3689 O3688 1.286 . S
C3689 C3691 1.363 . S
C3690 C3680 1.465 . S
C3690 U3686 2.847 . S
C3690 O3704 1.249 . S
C3690 O3705 1.202 . S
C3691 C3689 1.363 . S
C3691 C3693 1.408 . S
C3691 C3696 1.342 . S
C3692 C3693 1.310 . S
C3692 C3695 1.461 . S
C3692 H3712 0.932 . S
C3693 C3691 1.408 . S
C3693 C3692 1.310 . S
C3693 H3713 0.930 . S
C3694 C3695 1.474 . S
C3694 C3696 1.285 . S
C3694 H3714 0.929 . S
C3695 C3692 1.461 . S
C3695 C3694 1.474 . S
C3696 C3691 1.342 . S
C3696 C3694 1.285 . S
C3696 H3715 0.930 . S
C3697 C3700 1.424 . S
C3697 C3702 1.245 . S
C3697 C3703 1.428 . S
C3698 C3701 1.260 . S
C3698 C3702 1.477 . S
C3698 H3716 0.932 . S
C3699 C3700 1.384 . S
C3699 C3701 1.479 . S
C3699 H3717 0.929 . S
C3700 C3697 1.424 . S
C3700 C3699 1.384 . S
C3700 H3718 0.928 . S
C3701 C3698 1.260 . S
C3701 C3699 1.479 . S
C3702 C3697 1.245 . S
C3702 C3698 1.477 . S
C3702 H3719 0.932 . S
C3703 U3686 2.882 . S
C3703 C3697 1.428 . S
C3703 O3706 1.301 . S
C3703 O3707 1.282 . S
O3704 U3686 2.441 . S
O3704 C3690 1.249 . S
O3705 U3686 2.420 . S
O3705 C3690 1.202 . S
O3706 U3686 2.455 . S
O3706 C3703 1.301 . S
O3707 U3686 2.449 . S
O3707 C3703 1.282 . S
H3708 C3681 0.931 . S
H3709 C3683 0.929 . S
H3710 C3684 0.930 . S
H3711 C3685 0.931 . S
H3712 C3692 0.932 . S
H3713 C3693 0.930 . S
H3714 C3694 0.929 . S
H3715 C3696 0.930 . S
H3716 C3698 0.932 . S
H3717 C3699 0.929 . S
H3718 C3700 0.928 . S
H3719 C3702 0.932 . S
C3720 C3721 1.264 . S
C3720 C3725 1.479 . S
C3720 C3730 1.465 . S
C3721 C3720 1.264 . S
C3721 C3723 1.339 . S
C3721 H3748 0.931 . S
C3722 C3723 1.395 . S
C3722 C3724 1.320 . S
C3723 C3721 1.339 . S
C3723 C3722 1.395 . S
C3723 H3749 0.929 . S
C3724 C3722 1.320 . S
C3724 C3725 1.405 . S
C3724 H3750 0.930 . S
C3725 C3720 1.479 . S
C3725 C3724 1.405 . S
C3725 H3751 0.931 . S
U3726 O3727 2.454 . S
U3726 O3728 2.458 . S
U3726 C3729 2.984 . S
U3726 C3730 2.847 . S
U3726 C3743 2.882 . S
U3726 O3744 2.441 . S
U3726 O3745 2.420 . S
U3726 O3746 2.455 . S
U3726 O3747 2.449 . S
O3727 U3726 2.454 . S
O3727 C3729 1.353 . S
O3728 U3726 2.458 . S
O3728 C3729 1.286 . S
C3729 U3726 2.984 . S
C3729 O3727 1.353 . S
C3729 O3728 1.286 . S
C3729 C3731 1.363 . S
C3730 C3720 1.465 . S
C3730 U3726 2.847 . S
C3730 O3744 1.249 . S
C3730 O3745 1.202 . S
C3731 C3729 1.363 . S
C3731 C3733 1.408 . S
C3731 C3736 1.342 . S
C3732 C3733 1.310 . S
C3732 C3735 1.461 . S
C3732 H3752 0.932 . S
C3733 C3731 1.408 . S
C3733 C3732 1.310 . S
C3733 H3753 0.930 . S
C3734 C3735 1.474 . S
C3734 C3736 1.285 . S
C3734 H3754 0.929 . S
C3735 C3732 1.461 . S
C3735 C3734 1.474 . S
C3736 C3731 1.342 . S
C3736 C3734 1.285 . S
C3736 H3755 0.930 . S
C3737 C3740 1.424 . S
C3737 C3742 1.245 . S
C3737 C3743 1.428 . S
C3738 C3741 1.260 . S
C3738 C3742 1.477 . S
C3738 H3756 0.932 . S
C3739 C3740 1.384 . S
C3739 C3741 1.479 . S
C3739 H3757 0.929 . S
C3740 C3737 1.424 . S
C3740 C3739 1.384 . S
C3740 H3758 0.928 . S
C3741 C3738 1.260 . S
C3741 C3739 1.479 . S
C3742 C3737 1.245 . S
C3742 C3738 1.477 . S
C3742 H3759 0.932 . S
C3743 U3726 2.882 . S
C3743 C3737 1.428 . S
C3743 O3746 1.301 . S
C3743 O3747 1.282 . S
O3744 U3726 2.441 . S
O3744 C3730 1.249 . S
O3745 U3726 2.420 . S
O3745 C3730 1.202 . S
O3746 U3726 2.455 . S
O3746 C3743 1.301 . S
O3747 U3726 2.449 . S
O3747 C3743 1.282 . S
H3748 C3721 0.931 . S
H3749 C3723 0.929 . S
H3750 C3724 0.930 . S
H3751 C3725 0.931 . S
H3752 C3732 0.932 . S
H3753 C3733 0.930 . S
H3754 C3734 0.929 . S
H3755 C3736 0.930 . S
H3756 C3738 0.932 . S
H3757 C3739 0.929 . S
H3758 C3740 0.928 . S
H3759 C3742 0.932 . S
C3760 C3761 1.264 . S
C3760 C3765 1.479 . S
C3760 C3770 1.465 . S
C3761 C3760 1.264 . S
C3761 C3763 1.339 . S
C3761 H3788 0.931 . S
C3762 C3763 1.395 . S
C3762 C3764 1.320 . S
C3763 C3761 1.339 . S
C3763 C3762 1.395 . S
C3763 H3789 0.929 . S
C3764 C3762 1.320 . S
C3764 C3765 1.405 . S
C3764 H3790 0.930 . S
C3765 C3760 1.479 . S
C3765 C3764 1.405 . S
C3765 H3791 0.931 . S
U3766 O3767 2.454 . S
U3766 O3768 2.458 . S
U3766 C3769 2.984 . S
U3766 C3770 2.847 . S
U3766 C3783 2.882 . S
U3766 O3784 2.441 . S
U3766 O3785 2.420 . S
U3766 O3786 2.455 . S
U3766 O3787 2.449 . S
O3767 U3766 2.454 . S
O3767 C3769 1.353 . S
O3768 U3766 2.458 . S
O3768 C3769 1.286 . S
C3769 U3766 2.984 . S
C3769 O3767 1.353 . S
C3769 O3768 1.286 . S
C3769 C3771 1.363 . S
C3770 C3760 1.465 . S
C3770 U3766 2.847 . S
C3770 O3784 1.249 . S
C3770 O3785 1.202 . S
C3771 C3769 1.363 . S
C3771 C3773 1.408 . S
C3771 C3776 1.342 . S
C3772 C3773 1.310 . S
C3772 C3775 1.461 . S
C3772 H3792 0.932 . S
C3773 C3771 1.408 . S
C3773 C3772 1.310 . S
C3773 H3793 0.930 . S
C3774 C3775 1.474 . S
C3774 C3776 1.285 . S
C3774 H3794 0.929 . S
C3775 C3772 1.461 . S
C3775 C3774 1.474 . S
C3776 C3771 1.342 . S
C3776 C3774 1.285 . S
C3776 H3795 0.930 . S
C3777 C3780 1.424 . S
C3777 C3782 1.245 . S
C3777 C3783 1.428 . S
C3778 C3781 1.260 . S
C3778 C3782 1.477 . S
C3778 H3796 0.932 . S
C3779 C3780 1.384 . S
C3779 C3781 1.479 . S
C3779 H3797 0.929 . S
C3780 C3777 1.424 . S
C3780 C3779 1.384 . S
C3780 H3798 0.928 . S
C3781 C3778 1.260 . S
C3781 C3779 1.479 . S
C3782 C3777 1.245 . S
C3782 C3778 1.477 . S
C3782 H3799 0.932 . S
C3783 U3766 2.882 . S
C3783 C3777 1.428 . S
C3783 O3786 1.301 . S
C3783 O3787 1.282 . S
O3784 U3766 2.441 . S
O3784 C3770 1.249 . S
O3785 U3766 2.420 . S
O3785 C3770 1.202 . S
O3786 U3766 2.455 . S
O3786 C3783 1.301 . S
O3787 U3766 2.449 . S
O3787 C3783 1.282 . S
H3788 C3761 0.931 . S
H3789 C3763 0.929 . S
H3790 C3764 0.930 . S
H3791 C3765 0.931 . S
H3792 C3772 0.932 . S
H3793 C3773 0.930 . S
H3794 C3774 0.929 . S
H3795 C3776 0.930 . S
H3796 C3778 0.932 . S
H3797 C3779 0.929 . S
H3798 C3780 0.928 . S
H3799 C3782 0.932 . S
C3800 C3801 1.264 . S
C3800 C3805 1.479 . S
C3800 C3810 1.465 . S
C3801 C3800 1.264 . S
C3801 C3803 1.339 . S
C3801 H3828 0.931 . S
C3802 C3803 1.395 . S
C3802 C3804 1.320 . S
C3803 C3801 1.339 . S
C3803 C3802 1.395 . S
C3803 H3829 0.929 . S
C3804 C3802 1.320 . S
C3804 C3805 1.405 . S
C3804 H3830 0.930 . S
C3805 C3800 1.479 . S
C3805 C3804 1.405 . S
C3805 H3831 0.931 . S
U3806 O3807 2.454 . S
U3806 O3808 2.458 . S
U3806 C3809 2.984 . S
U3806 C3810 2.847 . S
U3806 C3823 2.882 . S
U3806 O3824 2.441 . S
U3806 O3825 2.420 . S
U3806 O3826 2.455 . S
U3806 O3827 2.449 . S
O3807 U3806 2.454 . S
O3807 C3809 1.353 . S
O3808 U3806 2.458 . S
O3808 C3809 1.286 . S
C3809 U3806 2.984 . S
C3809 O3807 1.353 . S
C3809 O3808 1.286 . S
C3809 C3811 1.363 . S
C3810 C3800 1.465 . S
C3810 U3806 2.847 . S
C3810 O3824 1.249 . S
C3810 O3825 1.202 . S
C3811 C3809 1.363 . S
C3811 C3813 1.408 . S
C3811 C3816 1.342 . S
C3812 C3813 1.310 . S
C3812 C3815 1.461 . S
C3812 H3832 0.932 . S
C3813 C3811 1.408 . S
C3813 C3812 1.310 . S
C3813 H3833 0.930 . S
C3814 C3815 1.474 . S
C3814 C3816 1.285 . S
C3814 H3834 0.929 . S
C3815 C3812 1.461 . S
C3815 C3814 1.474 . S
C3816 C3811 1.342 . S
C3816 C3814 1.285 . S
C3816 H3835 0.930 . S
C3817 C3820 1.424 . S
C3817 C3822 1.245 . S
C3817 C3823 1.428 . S
C3818 C3821 1.260 . S
C3818 C3822 1.477 . S
C3818 H3836 0.932 . S
C3819 C3820 1.384 . S
C3819 C3821 1.479 . S
C3819 H3837 0.929 . S
C3820 C3817 1.424 . S
C3820 C3819 1.384 . S
C3820 H3838 0.928 . S
C3821 C3818 1.260 . S
C3821 C3819 1.479 . S
C3822 C3817 1.245 . S
C3822 C3818 1.477 . S
C3822 H3839 0.932 . S
C3823 U3806 2.882 . S
C3823 C3817 1.428 . S
C3823 O3826 1.301 . S
C3823 O3827 1.282 . S
O3824 U3806 2.441 . S
O3824 C3810 1.249 . S
O3825 U3806 2.420 . S
O3825 C3810 1.202 . S
O3826 U3806 2.455 . S
O3826 C3823 1.301 . S
O3827 U3806 2.449 . S
O3827 C3823 1.282 . S
H3828 C3801 0.931 . S
H3829 C3803 0.929 . S
H3830 C3804 0.930 . S
H3831 C3805 0.931 . S
H3832 C3812 0.932 . S
H3833 C3813 0.930 . S
H3834 C3814 0.929 . S
H3835 C3816 0.930 . S
H3836 C3818 0.932 . S
H3837 C3819 0.929 . S
H3838 C3820 0.928 . S
H3839 C3822 0.932 . S
H3840 C3841 0.949 . S
C3841 H3840 0.949 . S
C3841 C3842 1.395 . S
C3841 C3843 1.391 . S
C3842 C3841 1.395 . S
C3842 C3845 1.390 . S
C3843 C3841 1.391 . S
C3843 C3847 1.387 . S
C3843 C3848 1.491 . S
H3844 C3845 0.950 . S
C3845 C3842 1.390 . S
C3845 H3844 0.950 . S
C3845 C3846 1.378 . S
C3846 C3845 1.378 . S
C3846 C3847 1.409 . S
C3847 C3843 1.387 . S
C3847 C3846 1.409 . S
C3847 H3849 0.951 . S
C3848 C3843 1.491 . S
C3848 C3850 1.382 . S
C3848 C3852 1.404 . S
H3849 C3847 0.951 . S
C3850 C3848 1.382 . S
C3850 C3851 1.390 . S
C3850 H3855 0.949 . S
C3851 C3850 1.390 . S
C3851 C3856 1.399 . S
C3852 C3848 1.404 . S
C3852 H3853 0.950 . S
C3852 C3854 1.375 . S
H3853 C3852 0.950 . S
C3854 C3852 1.375 . S
C3854 C3856 1.382 . S
C3854 H3858 0.950 . S
H3855 C3850 0.949 . S
C3856 C3851 1.399 . S
C3856 C3854 1.382 . S
C3856 H3857 0.952 . S
H3857 C3856 0.952 . S
H3858 C3854 0.950 . S
H3859 C3860 0.949 . S
C3860 H3859 0.949 . S
C3860 C3861 1.395 . S
C3860 C3862 1.391 . S
C3861 C3860 1.395 . S
C3861 C3864 1.390 . S
C3862 C3860 1.391 . S
C3862 C3866 1.387 . S
C3862 C3867 1.491 . S
H3863 C3864 0.950 . S
C3864 C3861 1.390 . S
C3864 H3863 0.950 . S
C3864 C3865 1.378 . S
C3865 C3864 1.378 . S
C3865 C3866 1.409 . S
C3866 C3862 1.387 . S
C3866 C3865 1.409 . S
C3866 H3868 0.951 . S
C3867 C3862 1.491 . S
C3867 C3869 1.382 . S
C3867 C3871 1.404 . S
H3868 C3866 0.951 . S
C3869 C3867 1.382 . S
C3869 C3870 1.381 1_455 S
C3869 H3874 0.949 . S
C3870 C3869 1.381 1_655 S
C3870 C3875 1.398 . S
C3871 C3867 1.404 . S
C3871 H3872 0.950 . S
C3871 C3873 1.375 . S
H3872 C3871 0.950 . S
C3873 C3871 1.375 . S
C3873 C3875 1.325 1_455 S
C3873 H3877 0.950 . S
H3874 C3869 0.949 . S
C3875 C3870 1.398 . S
C3875 C3873 1.325 1_655 S
C3875 H3876 1.015 . S
H3876 C3875 1.015 . S
H3877 C3873 0.950 . S
H3878 C3879 0.949 . S
C3879 H3878 0.949 . S
C3879 C3880 1.395 . S
C3879 C3881 1.391 . S
C3880 C3879 1.395 . S
C3880 C3883 1.390 . S
C3881 C3879 1.391 . S
C3881 C3885 1.387 . S
C3881 C3886 1.491 . S
H3882 C3883 0.950 . S
C3883 C3880 1.390 . S
C3883 H3882 0.950 . S
C3883 C3884 1.378 . S
C3884 C3883 1.378 . S
C3884 C3885 1.409 . S
C3885 C3881 1.387 . S
C3885 C3884 1.409 . S
C3885 H3887 0.951 . S
C3886 C3881 1.491 . S
C3886 C3888 1.382 . S
C3886 C3890 1.404 . S
H3887 C3885 0.951 . S
C3888 C3886 1.382 . S
C3888 C3889 1.390 . S
C3888 H3893 0.949 . S
C3889 C3888 1.390 . S
C3889 C3894 1.399 . S
C3890 C3886 1.404 . S
C3890 H3891 0.950 . S
C3890 C3892 1.375 . S
H3891 C3890 0.950 . S
C3892 C3890 1.375 . S
C3892 C3894 1.382 . S
C3892 H3896 0.950 . S
H3893 C3888 0.949 . S
C3894 C3889 1.399 . S
C3894 C3892 1.382 . S
C3894 H3895 0.952 . S
H3895 C3894 0.952 . S
H3896 C3892 0.950 . S
H3897 C3898 0.949 . S
C3898 H3897 0.949 . S
C3898 C3899 1.395 . S
C3898 C3900 1.391 . S
C3899 C3898 1.395 . S
C3899 C3902 1.390 . S
C3900 C3898 1.391 . S
C3900 C3904 1.387 . S
C3900 C3905 1.491 . S
H3901 C3902 0.950 . S
C3902 C3899 1.390 . S
C3902 H3901 0.950 . S
C3902 C3903 1.378 . S
C3903 C3902 1.378 . S
C3903 C3904 1.409 . S
C3904 C3900 1.387 . S
C3904 C3903 1.409 . S
C3904 H3906 0.951 . S
C3905 C3900 1.491 . S
C3905 C3907 1.382 . S
C3905 C3909 1.404 . S
H3906 C3904 0.951 . S
C3907 C3905 1.382 . S
C3907 C3908 1.390 . S
C3907 H3912 0.949 . S
C3908 C3907 1.390 . S
C3908 C3913 1.399 . S
C3909 C3905 1.404 . S
C3909 H3910 0.950 . S
C3909 C3911 1.375 . S
H3910 C3909 0.950 . S
C3911 C3909 1.375 . S
C3911 C3913 1.382 . S
C3911 H3915 0.950 . S
H3912 C3907 0.949 . S
C3913 C3908 1.399 . S
C3913 C3911 1.382 . S
C3913 H3914 0.952 . S
H3914 C3913 0.952 . S
H3915 C3911 0.950 . S
H3916 C3917 0.949 . S
C3917 H3916 0.949 . S
C3917 C3918 1.395 . S
C3917 C3919 1.391 . S
C3918 C3917 1.395 . S
C3918 C3921 1.390 . S
C3919 C3917 1.391 . S
C3919 C3923 1.387 . S
C3919 C3924 1.491 . S
H3920 C3921 0.950 . S
C3921 C3918 1.390 . S
C3921 H3920 0.950 . S
C3921 C3922 1.378 . S
C3922 C3921 1.378 . S
C3922 C3923 1.409 . S
C3923 C3919 1.387 . S
C3923 C3922 1.409 . S
C3923 H3925 0.951 . S
C3924 C3919 1.491 . S
C3924 C3926 1.382 . S
C3924 C3928 1.404 . S
H3925 C3923 0.951 . S
C3926 C3924 1.382 . S
C3926 C3927 1.390 . S
C3926 H3931 0.949 . S
C3927 C3926 1.390 . S
C3927 C3932 1.399 . S
C3928 C3924 1.404 . S
C3928 H3929 0.950 . S
C3928 C3930 1.375 . S
H3929 C3928 0.950 . S
C3930 C3928 1.375 . S
C3930 C3932 1.382 . S
C3930 H3934 0.950 . S
H3931 C3926 0.949 . S
C3932 C3927 1.399 . S
C3932 C3930 1.382 . S
C3932 H3933 0.952 . S
H3933 C3932 0.952 . S
H3934 C3930 0.950 . S
H3935 C3936 0.949 . S
C3936 H3935 0.949 . S
C3936 C3937 1.395 . S
C3936 C3938 1.391 . S
C3937 C3936 1.395 . S
C3937 C3940 1.390 . S
C3938 C3936 1.391 . S
C3938 C3942 1.387 . S
C3938 C3943 1.491 . S
H3939 C3940 0.950 . S
C3940 C3937 1.390 . S
C3940 H3939 0.950 . S
C3940 C3941 1.378 . S
C3941 C3940 1.378 . S
C3941 C3942 1.409 . S
C3942 C3938 1.387 . S
C3942 C3941 1.409 . S
C3942 H3944 0.951 . S
C3943 C3938 1.491 . S
C3943 C3945 1.382 . S
C3943 C3947 1.404 . S
H3944 C3942 0.951 . S
C3945 C3943 1.382 . S
C3945 C3946 1.390 . S
C3945 H3950 0.949 . S
C3946 C3945 1.390 . S
C3946 C3951 1.399 . S
C3947 C3943 1.404 . S
C3947 H3948 0.950 . S
C3947 C3949 1.375 . S
H3948 C3947 0.950 . S
C3949 C3947 1.375 . S
C3949 C3951 1.382 . S
C3949 H3953 0.950 . S
H3950 C3945 0.949 . S
C3951 C3946 1.399 . S
C3951 C3949 1.382 . S
C3951 H3952 0.952 . S
H3952 C3951 0.952 . S
H3953 C3949 0.950 . S
H3954 C3955 0.949 . S
C3955 H3954 0.949 . S
C3955 C3956 1.395 . S
C3955 C3957 1.391 . S
C3956 C3955 1.395 . S
C3956 C3959 1.390 . S
C3957 C3955 1.391 . S
C3957 C3961 1.387 . S
C3957 C3962 1.491 . S
H3958 C3959 0.950 . S
C3959 C3956 1.390 . S
C3959 H3958 0.950 . S
C3959 C3960 1.378 . S
C3960 C3959 1.378 . S
C3960 C3961 1.409 . S
C3961 C3957 1.387 . S
C3961 C3960 1.409 . S
C3961 H3963 0.951 . S
C3962 C3957 1.491 . S
C3962 C3964 1.382 . S
C3962 C3966 1.404 . S
H3963 C3961 0.951 . S
C3964 C3962 1.382 . S
C3964 C3965 1.390 . S
C3964 H3969 0.949 . S
C3965 C3964 1.390 . S
C3965 C3970 1.399 . S
C3966 C3962 1.404 . S
C3966 H3967 0.950 . S
C3966 C3968 1.375 . S
H3967 C3966 0.950 . S
C3968 C3966 1.375 . S
C3968 C3970 1.382 . S
C3968 H3972 0.950 . S
H3969 C3964 0.949 . S
C3970 C3965 1.399 . S
C3970 C3968 1.382 . S
C3970 H3971 0.952 . S
H3971 C3970 0.952 . S
H3972 C3968 0.950 . S
H3973 C3974 0.949 . S
C3974 H3973 0.949 . S
C3974 C3975 1.395 . S
C3974 C3976 1.391 . S
C3975 C3974 1.395 . S
C3975 C3978 1.390 . S
C3976 C3974 1.391 . S
C3976 C3980 1.387 . S
C3976 C3981 1.491 . S
H3977 C3978 0.950 . S
C3978 C3975 1.390 . S
C3978 H3977 0.950 . S
C3978 C3979 1.378 . S
C3979 C3978 1.378 . S
C3979 C3980 1.409 . S
C3980 C3976 1.387 . S
C3980 C3979 1.409 . S
C3980 H3982 0.951 . S
C3981 C3976 1.491 . S
C3981 C3983 1.382 . S
C3981 C3985 1.404 . S
H3982 C3980 0.951 . S
C3983 C3981 1.382 . S
C3983 C3984 1.378 1_455 S
C3983 H3988 0.949 . S
C3984 C3983 1.378 1_655 S
C3984 C3989 1.398 . S
C3985 C3981 1.404 . S
C3985 H3986 0.950 . S
C3985 C3987 1.375 . S
H3986 C3985 0.950 . S
C3987 C3985 1.375 . S
C3987 C3989 1.322 1_455 S
C3987 H3991 0.950 . S
H3988 C3983 0.949 . S
C3989 C3984 1.398 . S
C3989 C3987 1.322 1_655 S
C3989 H3990 1.018 . S
H3990 C3989 1.018 . S
H3991 C3987 0.950 . S
H3992 C3993 0.949 . S
C3993 H3992 0.949 . S
C3993 C3994 1.395 . S
C3993 C3995 1.391 . S
C3994 C3993 1.395 . S
C3994 C3997 1.390 . S
C3995 C3993 1.391 . S
C3995 C3999 1.387 . S
C3995 C4000 1.491 . S
H3996 C3997 0.950 . S
C3997 C3994 1.390 . S
C3997 H3996 0.950 . S
C3997 C3998 1.378 . S
C3998 C3997 1.378 . S
C3998 C3999 1.409 . S
C3999 C3995 1.387 . S
C3999 C3998 1.409 . S
C3999 H4001 0.951 . S
C4000 C3995 1.491 . S
C4000 C4002 1.382 . S
C4000 C4004 1.404 . S
H4001 C3999 0.951 . S
C4002 C4000 1.382 . S
C4002 C4003 1.390 . S
C4002 H4007 0.949 . S
C4003 C4002 1.390 . S
C4003 C4008 1.399 . S
C4004 C4000 1.404 . S
C4004 H4005 0.950 . S
C4004 C4006 1.375 . S
H4005 C4004 0.950 . S
C4006 C4004 1.375 . S
C4006 C4008 1.382 . S
C4006 H4010 0.950 . S
H4007 C4002 0.949 . S
C4008 C4003 1.399 . S
C4008 C4006 1.382 . S
C4008 H4009 0.952 . S
H4009 C4008 0.952 . S
H4010 C4006 0.950 . S
H4011 C4012 0.949 . S
C4012 H4011 0.949 . S
C4012 C4013 1.395 . S
C4012 C4014 1.391 . S
C4013 C4012 1.395 . S
C4013 C4016 1.390 . S
C4014 C4012 1.391 . S
C4014 C4018 1.387 . S
C4014 C4019 1.491 . S
H4015 C4016 0.950 . S
C4016 C4013 1.390 . S
C4016 H4015 0.950 . S
C4016 C4017 1.378 . S
C4017 C4016 1.378 . S
C4017 C4018 1.409 . S
C4018 C4014 1.387 . S
C4018 C4017 1.409 . S
C4018 H4020 0.951 . S
C4019 C4014 1.491 . S
C4019 C4021 1.382 . S
C4019 C4023 1.404 . S
H4020 C4018 0.951 . S
C4021 C4019 1.382 . S
C4021 C4022 1.390 . S
C4021 H4026 0.949 . S
C4022 C4021 1.390 . S
C4022 C4027 1.399 . S
C4023 C4019 1.404 . S
C4023 H4024 0.950 . S
C4023 C4025 1.375 . S
H4024 C4023 0.950 . S
C4025 C4023 1.375 . S
C4025 C4027 1.382 . S
C4025 H4029 0.950 . S
H4026 C4021 0.949 . S
C4027 C4022 1.399 . S
C4027 C4025 1.382 . S
C4027 H4028 0.952 . S
H4028 C4027 0.952 . S
H4029 C4025 0.950 . S
H4030 C4031 0.949 . S
C4031 H4030 0.949 . S
C4031 C4032 1.395 . S
C4031 C4033 1.391 . S
C4032 C4031 1.395 . S
C4032 C4035 1.390 . S
C4033 C4031 1.391 . S
C4033 C4037 1.387 . S
C4033 C4038 1.491 . S
H4034 C4035 0.950 . S
C4035 C4032 1.390 . S
C4035 H4034 0.950 . S
C4035 C4036 1.378 . S
C4036 C4035 1.378 . S
C4036 C4037 1.409 . S
C4037 C4033 1.387 . S
C4037 C4036 1.409 . S
C4037 H4039 0.951 . S
C4038 C4033 1.491 . S
C4038 C4040 1.382 . S
C4038 C4042 1.404 . S
H4039 C4037 0.951 . S
C4040 C4038 1.382 . S
C4040 C4041 1.390 . S
C4040 H4045 0.949 . S
C4041 C4040 1.390 . S
C4041 C4046 1.399 . S
C4042 C4038 1.404 . S
C4042 H4043 0.950 . S
C4042 C4044 1.375 . S
H4043 C4042 0.950 . S
C4044 C4042 1.375 . S
C4044 C4046 1.382 . S
C4044 H4048 0.950 . S
H4045 C4040 0.949 . S
C4046 C4041 1.399 . S
C4046 C4044 1.382 . S
C4046 H4047 0.952 . S
H4047 C4046 0.952 . S
H4048 C4044 0.950 . S
H4049 C4050 0.949 . S
C4050 H4049 0.949 . S
C4050 C4051 1.395 . S
C4050 C4052 1.391 . S
C4051 C4050 1.395 . S
C4051 C4054 1.390 . S
C4052 C4050 1.391 . S
C4052 C4056 1.387 . S
C4052 C4057 1.491 . S
H4053 C4054 0.950 . S
C4054 C4051 1.390 . S
C4054 H4053 0.950 . S
C4054 C4055 1.378 . S
C4055 C4054 1.378 . S
C4055 C4056 1.409 . S
C4056 C4052 1.387 . S
C4056 C4055 1.409 . S
C4056 H4058 0.951 . S
C4057 C4052 1.491 . S
C4057 C4059 1.382 . S
C4057 C4061 1.404 . S
H4058 C4056 0.951 . S
C4059 C4057 1.382 . S
C4059 C4060 1.380 1_556 S
C4059 H4064 0.949 . S
C4060 C4059 1.380 1_554 S
C4060 C4065 1.398 . S
C4061 C4057 1.404 . S
C4061 H4062 0.950 . S
C4061 C4063 1.375 . S
H4062 C4061 0.950 . S
C4063 C4061 1.375 . S
C4063 C4065 1.324 1_556 S
C4063 H4067 0.950 . S
H4064 C4059 0.949 . S
C4065 C4060 1.398 . S
C4065 C4063 1.324 1_554 S
C4065 H4066 1.016 . S
H4066 C4065 1.016 . S
H4067 C4063 0.950 . S
H4068 C4069 0.949 . S
C4069 H4068 0.949 . S
C4069 C4070 1.395 . S
C4069 C4071 1.391 . S
C4070 C4069 1.395 . S
C4070 C4073 1.390 . S
C4071 C4069 1.391 . S
C4071 C4075 1.387 . S
C4071 C4076 1.491 . S
H4072 C4073 0.950 . S
C4073 C4070 1.390 . S
C4073 H4072 0.950 . S
C4073 C4074 1.378 . S
C4074 C4073 1.378 . S
C4074 C4075 1.409 . S
C4075 C4071 1.387 . S
C4075 C4074 1.409 . S
C4075 H4077 0.951 . S
C4076 C4071 1.491 . S
C4076 C4078 1.382 . S
C4076 C4080 1.404 . S
H4077 C4075 0.951 . S
C4078 C4076 1.382 . S
C4078 C4079 1.390 . S
C4078 H4083 0.949 . S
C4079 C4078 1.390 . S
C4079 C4084 1.399 . S
C4080 C4076 1.404 . S
C4080 H4081 0.950 . S
C4080 C4082 1.375 . S
H4081 C4080 0.950 . S
C4082 C4080 1.375 . S
C4082 C4084 1.382 . S
C4082 H4086 0.950 . S
H4083 C4078 0.949 . S
C4084 C4079 1.399 . S
C4084 C4082 1.382 . S
C4084 H4085 0.952 . S
H4085 C4084 0.952 . S
H4086 C4082 0.950 . S
H4087 C4088 0.949 . S
C4088 H4087 0.949 . S
C4088 C4089 1.395 . S
C4088 C4090 1.391 . S
C4089 C4088 1.395 . S
C4089 C4092 1.390 . S
C4090 C4088 1.391 . S
C4090 C4094 1.387 . S
C4090 C4095 1.491 . S
H4091 C4092 0.950 . S
C4092 C4089 1.390 . S
C4092 H4091 0.950 . S
C4092 C4093 1.378 . S
C4093 C4092 1.378 . S
C4093 C4094 1.409 . S
C4094 C4090 1.387 . S
C4094 C4093 1.409 . S
C4094 H4096 0.951 . S
C4095 C4090 1.491 . S
C4095 C4097 1.382 . S
C4095 C4099 1.404 . S
H4096 C4094 0.951 . S
C4097 C4095 1.382 . S
C4097 C4098 1.390 . S
C4097 H4102 0.949 . S
C4098 C4097 1.390 . S
C4098 C4103 1.399 . S
C4099 C4095 1.404 . S
C4099 H4100 0.950 . S
C4099 C4101 1.375 . S
H4100 C4099 0.950 . S
C4101 C4099 1.375 . S
C4101 C4103 1.382 . S
C4101 H4105 0.950 . S
H4102 C4097 0.949 . S
C4103 C4098 1.399 . S
C4103 C4101 1.382 . S
C4103 H4104 0.952 . S
H4104 C4103 0.952 . S
H4105 C4101 0.950 . S
H4106 C4107 0.949 . S
C4107 H4106 0.949 . S
C4107 C4108 1.395 . S
C4107 C4109 1.391 . S
C4108 C4107 1.395 . S
C4108 C4111 1.390 . S
C4109 C4107 1.391 . S
C4109 C4113 1.387 . S
C4109 C4114 1.491 . S
H4110 C4111 0.950 . S
C4111 C4108 1.390 . S
C4111 H4110 0.950 . S
C4111 C4112 1.378 . S
C4112 C4111 1.378 . S
C4112 C4113 1.409 . S
C4113 C4109 1.387 . S
C4113 C4112 1.409 . S
C4113 H4115 0.951 . S
C4114 C4109 1.491 . S
C4114 C4116 1.382 . S
C4114 C4118 1.404 . S
H4115 C4113 0.951 . S
C4116 C4114 1.382 . S
C4116 C4117 1.390 . S
C4116 H4121 0.949 . S
C4117 C4116 1.390 . S
C4117 C4122 1.399 . S
C4118 C4114 1.404 . S
C4118 H4119 0.950 . S
C4118 C4120 1.375 . S
H4119 C4118 0.950 . S
C4120 C4118 1.375 . S
C4120 C4122 1.382 . S
C4120 H4124 0.950 . S
H4121 C4116 0.949 . S
C4122 C4117 1.399 . S
C4122 C4120 1.382 . S
C4122 H4123 0.952 . S
H4123 C4122 0.952 . S
H4124 C4120 0.950 . S
H4125 C4126 0.949 . S
C4126 H4125 0.949 . S
C4126 C4127 1.395 . S
C4126 C4128 1.391 . S
C4127 C4126 1.395 . S
C4127 C4130 1.390 . S
C4128 C4126 1.391 . S
C4128 C4132 1.387 . S
C4128 C4133 1.491 . S
H4129 C4130 0.950 . S
C4130 C4127 1.390 . S
C4130 H4129 0.950 . S
C4130 C4131 1.378 . S
C4131 C4130 1.378 . S
C4131 C4132 1.409 . S
C4132 C4128 1.387 . S
C4132 C4131 1.409 . S
C4132 H4134 0.951 . S
C4133 C4128 1.491 . S
C4133 C4135 1.382 . S
C4133 C4137 1.404 . S
H4134 C4132 0.951 . S
C4135 C4133 1.382 . S
C4135 C4136 1.378 1_554 S
C4135 H4140 0.949 . S
C4136 C4135 1.378 1_556 S
C4136 C4141 1.398 . S
C4137 C4133 1.404 . S
C4137 H4138 0.950 . S
C4137 C4139 1.375 . S
H4138 C4137 0.950 . S
C4139 C4137 1.375 . S
C4139 C4141 1.323 1_554 S
C4139 H4143 0.950 . S
H4140 C4135 0.949 . S
C4141 C4136 1.398 . S
C4141 C4139 1.323 1_556 S
C4141 H4142 1.017 . S
H4142 C4141 1.017 . S
H4143 C4139 0.950 . S
H4144 C4145 0.949 . S
C4145 H4144 0.949 . S
C4145 C4146 1.395 . S
C4145 C4147 1.391 . S
C4146 C4145 1.395 . S
C4146 C4149 1.390 . S
C4147 C4145 1.391 . S
C4147 C4151 1.387 . S
C4147 C4152 1.491 . S
H4148 C4149 0.950 . S
C4149 C4146 1.390 . S
C4149 H4148 0.950 . S
C4149 C4150 1.378 . S
C4150 C4149 1.378 . S
C4150 C4151 1.409 . S
C4151 C4147 1.387 . S
C4151 C4150 1.409 . S
C4151 H4153 0.951 . S
C4152 C4147 1.491 . S
C4152 C4154 1.382 . S
C4152 C4156 1.404 . S
H4153 C4151 0.951 . S
C4154 C4152 1.382 . S
C4154 C4155 1.390 . S
C4154 H4159 0.949 . S
C4155 C4154 1.390 . S
C4155 C4160 1.399 . S
C4156 C4152 1.404 . S
C4156 H4157 0.950 . S
C4156 C4158 1.375 . S
H4157 C4156 0.950 . S
C4158 C4156 1.375 . S
C4158 C4160 1.382 . S
C4158 H4162 0.950 . S
H4159 C4154 0.949 . S
C4160 C4155 1.399 . S
C4160 C4158 1.382 . S
C4160 H4161 0.952 . S
H4161 C4160 0.952 . S
H4162 C4158 0.950 . S
H4163 C4164 0.949 . S
C4164 H4163 0.949 . S
C4164 C4165 1.395 . S
C4164 C4166 1.391 . S
C4165 C4164 1.395 . S
C4165 C4168 1.390 . S
C4166 C4164 1.391 . S
C4166 C4170 1.387 . S
C4166 C4171 1.491 . S
H4167 C4168 0.950 . S
C4168 C4165 1.390 . S
C4168 H4167 0.950 . S
C4168 C4169 1.378 . S
C4169 C4168 1.378 . S
C4169 C4170 1.409 . S
C4170 C4166 1.387 . S
C4170 C4169 1.409 . S
C4170 H4172 0.951 . S
C4171 C4166 1.491 . S
C4171 C4173 1.382 . S
C4171 C4175 1.404 . S
H4172 C4170 0.951 . S
C4173 C4171 1.382 . S
C4173 C4174 1.390 . S
C4173 H4178 0.949 . S
C4174 C4173 1.390 . S
C4174 C4179 1.399 . S
C4175 C4171 1.404 . S
C4175 H4176 0.950 . S
C4175 C4177 1.375 . S
H4176 C4175 0.950 . S
C4177 C4175 1.375 . S
C4177 C4179 1.382 . S
C4177 H4181 0.950 . S
H4178 C4173 0.949 . S
C4179 C4174 1.399 . S
C4179 C4177 1.382 . S
C4179 H4180 0.952 . S
H4180 C4179 0.952 . S
H4181 C4177 0.950 . S
H4182 C4183 0.949 . S
C4183 H4182 0.949 . S
C4183 C4184 1.395 . S
C4183 C4185 1.391 . S
C4184 C4183 1.395 . S
C4184 C4187 1.390 . S
C4185 C4183 1.391 . S
C4185 C4189 1.387 . S
C4185 C4190 1.491 . S
H4186 C4187 0.950 . S
C4187 C4184 1.390 . S
C4187 H4186 0.950 . S
C4187 C4188 1.378 . S
C4188 C4187 1.378 . S
C4188 C4189 1.409 . S
C4189 C4185 1.387 . S
C4189 C4188 1.409 . S
C4189 H4191 0.951 . S
C4190 C4185 1.491 . S
C4190 C4192 1.382 . S
C4190 C4194 1.404 . S
H4191 C4189 0.951 . S
C4192 C4190 1.382 . S
C4192 C4193 1.390 . S
C4192 H4197 0.949 . S
C4193 C4192 1.390 . S
C4193 C4198 1.399 . S
C4194 C4190 1.404 . S
C4194 H4195 0.950 . S
C4194 C4196 1.375 . S
H4195 C4194 0.950 . S
C4196 C4194 1.375 . S
C4196 C4198 1.382 . S
C4196 H4200 0.950 . S
H4197 C4192 0.949 . S
C4198 C4193 1.399 . S
C4198 C4196 1.382 . S
C4198 H4199 0.952 . S
H4199 C4198 0.952 . S
H4200 C4196 0.950 . S
H4201 C4202 0.949 . S
C4202 H4201 0.949 . S
C4202 C4203 1.395 . S
C4202 C4204 1.391 . S
C4203 C4202 1.395 . S
C4203 C4206 1.390 . S
C4204 C4202 1.391 . S
C4204 C4208 1.387 . S
C4204 C4209 1.491 . S
H4205 C4206 0.950 . S
C4206 C4203 1.390 . S
C4206 H4205 0.950 . S
C4206 C4207 1.378 . S
C4207 C4206 1.378 . S
C4207 C4208 1.409 . S
C4208 C4204 1.387 . S
C4208 C4207 1.409 . S
C4208 H4210 0.951 . S
C4209 C4204 1.491 . S
C4209 C4211 1.382 . S
C4209 C4213 1.404 . S
H4210 C4208 0.951 . S
C4211 C4209 1.382 . S
C4211 C4212 1.390 . S
C4211 H4216 0.949 . S
C4212 C4211 1.390 . S
C4212 C4217 1.399 . S
C4213 C4209 1.404 . S
C4213 H4214 0.950 . S
C4213 C4215 1.375 . S
H4214 C4213 0.950 . S
C4215 C4213 1.375 . S
C4215 C4217 1.382 . S
C4215 H4219 0.950 . S
H4216 C4211 0.949 . S
C4217 C4212 1.399 . S
C4217 C4215 1.382 . S
C4217 H4218 0.952 . S
H4218 C4217 0.952 . S
H4219 C4215 0.950 . S
H4220 C4221 0.949 . S
C4221 H4220 0.949 . S
C4221 C4222 1.395 . S
C4221 C4223 1.391 . S
C4222 C4221 1.395 . S
C4222 C4225 1.390 . S
C4223 C4221 1.391 . S
C4223 C4227 1.387 . S
C4223 C4228 1.491 . S
H4224 C4225 0.950 . S
C4225 C4222 1.390 . S
C4225 H4224 0.950 . S
C4225 C4226 1.378 . S
C4226 C4225 1.378 . S
C4226 C4227 1.409 . S
C4227 C4223 1.387 . S
C4227 C4226 1.409 . S
C4227 H4229 0.951 . S
C4228 C4223 1.491 . S
C4228 C4230 1.382 . S
C4228 C4232 1.404 . S
H4229 C4227 0.951 . S
C4230 C4228 1.382 . S
C4230 C4231 1.377 1_545 S
C4230 H4235 0.949 . S
C4231 C4230 1.377 1_565 S
C4231 C4236 1.398 . S
C4232 C4228 1.404 . S
C4232 H4233 0.950 . S
C4232 C4234 1.375 . S
H4233 C4232 0.950 . S
C4234 C4232 1.375 . S
C4234 C4236 1.322 1_545 S
C4234 H4238 0.950 . S
H4235 C4230 0.949 . S
C4236 C4231 1.398 . S
C4236 C4234 1.322 1_565 S
C4236 H4237 1.018 . S
H4237 C4236 1.018 . S
H4238 C4234 0.950 . S
H4239 C4240 0.949 . S
C4240 H4239 0.949 . S
C4240 C4241 1.395 . S
C4240 C4242 1.391 . S
C4241 C4240 1.395 . S
C4241 C4244 1.390 . S
C4242 C4240 1.391 . S
C4242 C4246 1.387 . S
C4242 C4247 1.491 . S
H4243 C4244 0.950 . S
C4244 C4241 1.390 . S
C4244 H4243 0.950 . S
C4244 C4245 1.378 . S
C4245 C4244 1.378 . S
C4245 C4246 1.409 . S
C4246 C4242 1.387 . S
C4246 C4245 1.409 . S
C4246 H4248 0.951 . S
C4247 C4242 1.491 . S
C4247 C4249 1.382 . S
C4247 C4251 1.404 . S
H4248 C4246 0.951 . S
C4249 C4247 1.382 . S
C4249 C4250 1.390 . S
C4249 H4254 0.949 . S
C4250 C4249 1.390 . S
C4250 C4255 1.399 . S
C4251 C4247 1.404 . S
C4251 H4252 0.950 . S
C4251 C4253 1.375 . S
H4252 C4251 0.950 . S
C4253 C4251 1.375 . S
C4253 C4255 1.382 . S
C4253 H4257 0.950 . S
H4254 C4249 0.949 . S
C4255 C4250 1.399 . S
C4255 C4253 1.382 . S
C4255 H4256 0.952 . S
H4256 C4255 0.952 . S
H4257 C4253 0.950 . S
H4258 C4259 0.949 . S
C4259 H4258 0.949 . S
C4259 C4260 1.395 . S
C4259 C4261 1.391 . S
C4260 C4259 1.395 . S
C4260 C4263 1.390 . S
C4261 C4259 1.391 . S
C4261 C4265 1.387 . S
C4261 C4266 1.491 . S
H4262 C4263 0.950 . S
C4263 C4260 1.390 . S
C4263 H4262 0.950 . S
C4263 C4264 1.378 . S
C4264 C4263 1.378 . S
C4264 C4265 1.409 . S
C4265 C4261 1.387 . S
C4265 C4264 1.409 . S
C4265 H4267 0.951 . S
C4266 C4261 1.491 . S
C4266 C4268 1.382 . S
C4266 C4270 1.404 . S
H4267 C4265 0.951 . S
C4268 C4266 1.382 . S
C4268 C4269 1.390 . S
C4268 H4273 0.949 . S
C4269 C4268 1.390 . S
C4269 C4274 1.399 . S
C4270 C4266 1.404 . S
C4270 H4271 0.950 . S
C4270 C4272 1.375 . S
H4271 C4270 0.950 . S
C4272 C4270 1.375 . S
C4272 C4274 1.382 . S
C4272 H4276 0.950 . S
H4273 C4268 0.949 . S
C4274 C4269 1.399 . S
C4274 C4272 1.382 . S
C4274 H4275 0.952 . S
H4275 C4274 0.952 . S
H4276 C4272 0.950 . S
H4277 C4278 0.949 . S
C4278 H4277 0.949 . S
C4278 C4279 1.395 . S
C4278 C4280 1.391 . S
C4279 C4278 1.395 . S
C4279 C4282 1.390 . S
C4280 C4278 1.391 . S
C4280 C4284 1.387 . S
C4280 C4285 1.491 . S
H4281 C4282 0.950 . S
C4282 C4279 1.390 . S
C4282 H4281 0.950 . S
C4282 C4283 1.378 . S
C4283 C4282 1.378 . S
C4283 C4284 1.409 . S
C4284 C4280 1.387 . S
C4284 C4283 1.409 . S
C4284 H4286 0.951 . S
C4285 C4280 1.491 . S
C4285 C4287 1.382 . S
C4285 C4289 1.404 . S
H4286 C4284 0.951 . S
C4287 C4285 1.382 . S
C4287 C4288 1.390 . S
C4287 H4292 0.949 . S
C4288 C4287 1.390 . S
C4288 C4293 1.399 . S
C4289 C4285 1.404 . S
C4289 H4290 0.950 . S
C4289 C4291 1.375 . S
H4290 C4289 0.950 . S
C4291 C4289 1.375 . S
C4291 C4293 1.382 . S
C4291 H4295 0.950 . S
H4292 C4287 0.949 . S
C4293 C4288 1.399 . S
C4293 C4291 1.382 . S
C4293 H4294 0.952 . S
H4294 C4293 0.952 . S
H4295 C4291 0.950 . S
H4296 C4297 0.949 . S
C4297 H4296 0.949 . S
C4297 C4298 1.395 . S
C4297 C4299 1.391 . S
C4298 C4297 1.395 . S
C4298 C4301 1.390 . S
C4299 C4297 1.391 . S
C4299 C4303 1.387 . S
C4299 C4304 1.491 . S
H4300 C4301 0.950 . S
C4301 C4298 1.390 . S
C4301 H4300 0.950 . S
C4301 C4302 1.378 . S
C4302 C4301 1.378 . S
C4302 C4303 1.409 . S
C4303 C4299 1.387 . S
C4303 C4302 1.409 . S
C4303 H4305 0.951 . S
C4304 C4299 1.491 . S
C4304 C4306 1.382 . S
C4304 C4308 1.404 . S
H4305 C4303 0.951 . S
C4306 C4304 1.382 . S
C4306 C4307 1.390 . S
C4306 H4311 0.949 . S
C4307 C4306 1.390 . S
C4307 C4312 1.399 . S
C4308 C4304 1.404 . S
C4308 H4309 0.950 . S
C4308 C4310 1.375 . S
H4309 C4308 0.950 . S
C4310 C4308 1.375 . S
C4310 C4312 1.382 . S
C4310 H4314 0.950 . S
H4311 C4306 0.949 . S
C4312 C4307 1.399 . S
C4312 C4310 1.382 . S
C4312 H4313 0.952 . S
H4313 C4312 0.952 . S
H4314 C4310 0.950 . S
H4315 C4316 0.949 . S
C4316 H4315 0.949 . S
C4316 C4317 1.395 . S
C4316 C4318 1.391 . S
C4317 C4316 1.395 . S
C4317 C4320 1.390 . S
C4318 C4316 1.391 . S
C4318 C4322 1.387 . S
C4318 C4323 1.491 . S
H4319 C4320 0.950 . S
C4320 C4317 1.390 . S
C4320 H4319 0.950 . S
C4320 C4321 1.378 . S
C4321 C4320 1.378 . S
C4321 C4322 1.409 . S
C4322 C4318 1.387 . S
C4322 C4321 1.409 . S
C4322 H4324 0.951 . S
C4323 C4318 1.491 . S
C4323 C4325 1.382 . S
C4323 C4327 1.404 . S
H4324 C4322 0.951 . S
C4325 C4323 1.382 . S
C4325 C4326 1.390 1_655 S
C4325 H4330 0.949 . S
C4326 C4325 1.390 1_455 S
C4326 C4331 1.399 . S
C4327 C4323 1.404 . S
C4327 H4328 0.950 . S
C4327 C4329 1.375 1_655 S
H4328 C4327 0.950 . S
C4329 C4327 1.375 1_455 S
C4329 C4331 1.382 . S
C4329 H4333 0.950 . S
H4330 C4325 0.949 . S
C4331 C4326 1.399 . S
C4331 C4329 1.382 . S
C4331 H4332 0.952 . S
H4332 C4331 0.952 . S
H4333 C4329 0.950 . S
H4334 C4335 0.949 . S
C4335 H4334 0.949 . S
C4335 C4336 1.395 . S
C4335 C4337 1.391 . S
C4336 C4335 1.395 . S
C4336 C4339 1.390 . S
C4337 C4335 1.391 . S
C4337 C4341 1.387 . S
C4337 C4342 1.491 . S
H4338 C4339 0.950 . S
C4339 C4336 1.390 . S
C4339 H4338 0.950 . S
C4339 C4340 1.378 . S
C4340 C4339 1.378 . S
C4340 C4341 1.409 . S
C4341 C4337 1.387 . S
C4341 C4340 1.409 . S
C4341 H4343 0.951 . S
C4342 C4337 1.491 . S
C4342 C4344 1.382 . S
C4342 C4346 1.404 . S
H4343 C4341 0.951 . S
C4344 C4342 1.382 . S
C4344 C4345 1.390 . S
C4344 H4349 0.949 . S
C4345 C4344 1.390 . S
C4345 C4350 1.399 . S
C4346 C4342 1.404 . S
C4346 H4347 0.950 . S
C4346 C4348 1.375 . S
H4347 C4346 0.950 . S
C4348 C4346 1.375 . S
C4348 C4350 1.382 . S
C4348 H4352 0.950 . S
H4349 C4344 0.949 . S
C4350 C4345 1.399 . S
C4350 C4348 1.382 . S
C4350 H4351 0.952 . S
H4351 C4350 0.952 . S
H4352 C4348 0.950 . S
H4353 C4354 0.949 . S
C4354 H4353 0.949 . S
C4354 C4355 1.395 . S
C4354 C4356 1.391 . S
C4355 C4354 1.395 . S
C4355 C4358 1.390 . S
C4356 C4354 1.391 . S
C4356 C4360 1.387 . S
C4356 C4361 1.491 . S
H4357 C4358 0.950 . S
C4358 C4355 1.390 . S
C4358 H4357 0.950 . S
C4358 C4359 1.378 . S
C4359 C4358 1.378 . S
C4359 C4360 1.409 . S
C4360 C4356 1.387 . S
C4360 C4359 1.409 . S
C4360 H4362 0.951 . S
C4361 C4356 1.491 . S
C4361 C4363 1.382 . S
C4361 C4365 1.404 . S
H4362 C4360 0.951 . S
C4363 C4361 1.382 . S
C4363 C4364 1.390 . S
C4363 H4368 0.949 . S
C4364 C4363 1.390 . S
C4364 C4369 1.399 . S
C4365 C4361 1.404 . S
C4365 H4366 0.950 . S
C4365 C4367 1.375 . S
H4366 C4365 0.950 . S
C4367 C4365 1.375 . S
C4367 C4369 1.382 . S
C4367 H4371 0.950 . S
H4368 C4363 0.949 . S
C4369 C4364 1.399 . S
C4369 C4367 1.382 . S
C4369 H4370 0.952 . S
H4370 C4369 0.952 . S
H4371 C4367 0.950 . S
H4372 C4373 0.949 . S
C4373 H4372 0.949 . S
C4373 C4374 1.395 . S
C4373 C4375 1.391 . S
C4374 C4373 1.395 . S
C4374 C4377 1.390 . S
C4375 C4373 1.391 . S
C4375 C4379 1.387 . S
C4375 C4380 1.491 . S
H4376 C4377 0.950 . S
C4377 C4374 1.390 . S
C4377 H4376 0.950 . S
C4377 C4378 1.378 . S
C4378 C4377 1.378 . S
C4378 C4379 1.409 . S
C4379 C4375 1.387 . S
C4379 C4378 1.409 . S
C4379 H4381 0.951 . S
C4380 C4375 1.491 . S
C4380 C4382 1.382 . S
C4380 C4384 1.404 . S
H4381 C4379 0.951 . S
C4382 C4380 1.382 . S
C4382 C4383 1.390 . S
C4382 H4387 0.949 . S
C4383 C4382 1.390 . S
C4383 C4388 1.399 . S
C4384 C4380 1.404 . S
C4384 H4385 0.950 . S
C4384 C4386 1.375 . S
H4385 C4384 0.950 . S
C4386 C4384 1.375 . S
C4386 C4388 1.382 . S
C4386 H4390 0.950 . S
H4387 C4382 0.949 . S
C4388 C4383 1.399 . S
C4388 C4386 1.382 . S
C4388 H4389 0.952 . S
H4389 C4388 0.952 . S
H4390 C4386 0.950 . S
H4391 C4392 0.949 . S
C4392 H4391 0.949 . S
C4392 C4393 1.395 . S
C4392 C4394 1.391 . S
C4393 C4392 1.395 . S
C4393 C4396 1.390 . S
C4394 C4392 1.391 . S
C4394 C4398 1.387 . S
C4394 C4399 1.491 . S
H4395 C4396 0.950 . S
C4396 C4393 1.390 . S
C4396 H4395 0.950 . S
C4396 C4397 1.378 . S
C4397 C4396 1.378 . S
C4397 C4398 1.409 . S
C4398 C4394 1.387 . S
C4398 C4397 1.409 . S
C4398 H4400 0.951 . S
C4399 C4394 1.491 . S
C4399 C4401 1.382 . S
C4399 C4403 1.404 . S
H4400 C4398 0.951 . S
C4401 C4399 1.382 . S
C4401 C4402 1.390 . S
C4401 H4406 0.949 . S
C4402 C4401 1.390 . S
C4402 C4407 1.399 . S
C4403 C4399 1.404 . S
C4403 H4404 0.950 . S
C4403 C4405 1.375 . S
H4404 C4403 0.950 . S
C4405 C4403 1.375 . S
C4405 C4407 1.382 . S
C4405 H4409 0.950 . S
H4406 C4401 0.949 . S
C4407 C4402 1.399 . S
C4407 C4405 1.382 . S
C4407 H4408 0.952 . S
H4408 C4407 0.952 . S
H4409 C4405 0.950 . S
H4410 C4411 0.949 . S
C4411 H4410 0.949 . S
C4411 C4412 1.395 . S
C4411 C4413 1.391 . S
C4412 C4411 1.395 . S
C4412 C4415 1.390 . S
C4413 C4411 1.391 . S
C4413 C4417 1.387 . S
C4413 C4418 1.491 . S
H4414 C4415 0.950 . S
C4415 C4412 1.390 . S
C4415 H4414 0.950 . S
C4415 C4416 1.378 . S
C4416 C4415 1.378 . S
C4416 C4417 1.409 . S
C4417 C4413 1.387 . S
C4417 C4416 1.409 . S
C4417 H4419 0.951 . S
C4418 C4413 1.491 . S
C4418 C4420 1.382 . S
C4418 C4422 1.404 . S
H4419 C4417 0.951 . S
C4420 C4418 1.382 . S
C4420 C4421 1.390 . S
C4420 H4425 0.949 . S
C4421 C4420 1.390 . S
C4421 C4426 1.399 . S
C4422 C4418 1.404 . S
C4422 H4423 0.950 . S
C4422 C4424 1.375 . S
H4423 C4422 0.950 . S
C4424 C4422 1.375 . S
C4424 C4426 1.382 . S
C4424 H4428 0.950 . S
H4425 C4420 0.949 . S
C4426 C4421 1.399 . S
C4426 C4424 1.382 . S
C4426 H4427 0.952 . S
H4427 C4426 0.952 . S
H4428 C4424 0.950 . S
H4429 C4430 0.949 . S
C4430 H4429 0.949 . S
C4430 C4431 1.395 . S
C4430 C4432 1.391 . S
C4431 C4430 1.395 . S
C4431 C4434 1.390 . S
C4432 C4430 1.391 . S
C4432 C4436 1.387 . S
C4432 C4437 1.491 . S
H4433 C4434 0.950 . S
C4434 C4431 1.390 . S
C4434 H4433 0.950 . S
C4434 C4435 1.378 . S
C4435 C4434 1.378 . S
C4435 C4436 1.409 . S
C4436 C4432 1.387 . S
C4436 C4435 1.409 . S
C4436 H4438 0.951 . S
C4437 C4432 1.491 . S
C4437 C4439 1.382 . S
C4437 C4441 1.404 . S
H4438 C4436 0.951 . S
C4439 C4437 1.382 . S
C4439 C4440 1.390 1_655 S
C4439 H4444 0.949 . S
C4440 C4439 1.390 1_455 S
C4440 C4445 1.399 . S
C4441 C4437 1.404 . S
C4441 H4442 0.950 . S
C4441 C4443 1.375 1_655 S
H4442 C4441 0.950 . S
C4443 C4441 1.375 1_455 S
C4443 C4445 1.382 . S
C4443 H4447 0.950 . S
H4444 C4439 0.949 . S
C4445 C4440 1.399 . S
C4445 C4443 1.382 . S
C4445 H4446 0.952 . S
H4446 C4445 0.952 . S
H4447 C4443 0.950 . S
H4448 C4449 0.949 . S
C4449 H4448 0.949 . S
C4449 C4450 1.395 . S
C4449 C4451 1.391 . S
C4450 C4449 1.395 . S
C4450 C4453 1.390 . S
C4451 C4449 1.391 . S
C4451 C4455 1.387 . S
C4451 C4456 1.491 . S
H4452 C4453 0.950 . S
C4453 C4450 1.390 . S
C4453 H4452 0.950 . S
C4453 C4454 1.378 . S
C4454 C4453 1.378 . S
C4454 C4455 1.409 . S
C4455 C4451 1.387 . S
C4455 C4454 1.409 . S
C4455 H4457 0.951 . S
C4456 C4451 1.491 . S
C4456 C4458 1.382 . S
C4456 C4460 1.404 . S
H4457 C4455 0.951 . S
C4458 C4456 1.382 . S
C4458 C4459 1.390 . S
C4458 H4463 0.949 . S
C4459 C4458 1.390 . S
C4459 C4464 1.399 . S
C4460 C4456 1.404 . S
C4460 H4461 0.950 . S
C4460 C4462 1.375 . S
H4461 C4460 0.950 . S
C4462 C4460 1.375 . S
C4462 C4464 1.382 . S
C4462 H4466 0.950 . S
H4463 C4458 0.949 . S
C4464 C4459 1.399 . S
C4464 C4462 1.382 . S
C4464 H4465 0.952 . S
H4465 C4464 0.952 . S
H4466 C4462 0.950 . S
H4467 C4468 0.949 . S
C4468 H4467 0.949 . S
C4468 C4469 1.395 . S
C4468 C4470 1.391 . S
C4469 C4468 1.395 . S
C4469 C4472 1.390 . S
C4470 C4468 1.391 . S
C4470 C4474 1.387 . S
C4470 C4475 1.491 . S
H4471 C4472 0.950 . S
C4472 C4469 1.390 . S
C4472 H4471 0.950 . S
C4472 C4473 1.378 . S
C4473 C4472 1.378 . S
C4473 C4474 1.409 . S
C4474 C4470 1.387 . S
C4474 C4473 1.409 . S
C4474 H4476 0.951 . S
C4475 C4470 1.491 . S
C4475 C4477 1.382 . S
C4475 C4479 1.404 . S
H4476 C4474 0.951 . S
C4477 C4475 1.382 . S
C4477 C4478 1.390 . S
C4477 H4482 0.949 . S
C4478 C4477 1.390 . S
C4478 C4483 1.399 . S
C4479 C4475 1.404 . S
C4479 H4480 0.950 . S
C4479 C4481 1.375 . S
H4480 C4479 0.950 . S
C4481 C4479 1.375 . S
C4481 C4483 1.382 . S
C4481 H4485 0.950 . S
H4482 C4477 0.949 . S
C4483 C4478 1.399 . S
C4483 C4481 1.382 . S
C4483 H4484 0.952 . S
H4484 C4483 0.952 . S
H4485 C4481 0.950 . S
H4486 C4487 0.949 . S
C4487 H4486 0.949 . S
C4487 C4488 1.395 . S
C4487 C4489 1.391 . S
C4488 C4487 1.395 . S
C4488 C4491 1.390 . S
C4489 C4487 1.391 . S
C4489 C4493 1.387 . S
C4489 C4494 1.491 . S
H4490 C4491 0.950 . S
C4491 C4488 1.390 . S
C4491 H4490 0.950 . S
C4491 C4492 1.378 . S
C4492 C4491 1.378 . S
C4492 C4493 1.409 . S
C4493 C4489 1.387 . S
C4493 C4492 1.409 . S
C4493 H4495 0.951 . S
C4494 C4489 1.491 . S
C4494 C4496 1.382 . S
C4494 C4498 1.404 . S
H4495 C4493 0.951 . S
C4496 C4494 1.382 . S
C4496 C4497 1.390 . S
C4496 H4501 0.949 . S
C4497 C4496 1.390 . S
C4497 C4502 1.399 . S
C4498 C4494 1.404 . S
C4498 H4499 0.950 . S
C4498 C4500 1.375 . S
H4499 C4498 0.950 . S
C4500 C4498 1.375 . S
C4500 C4502 1.382 . S
C4500 H4504 0.950 . S
H4501 C4496 0.949 . S
C4502 C4497 1.399 . S
C4502 C4500 1.382 . S
C4502 H4503 0.952 . S
H4503 C4502 0.952 . S
H4504 C4500 0.950 . S
H4505 C4506 0.949 . S
C4506 H4505 0.949 . S
C4506 C4507 1.395 . S
C4506 C4508 1.391 . S
C4507 C4506 1.395 . S
C4507 C4510 1.390 . S
C4508 C4506 1.391 . S
C4508 C4512 1.387 . S
C4508 C4513 1.491 . S
H4509 C4510 0.950 . S
C4510 C4507 1.390 . S
C4510 H4509 0.950 . S
C4510 C4511 1.378 . S
C4511 C4510 1.378 . S
C4511 C4512 1.409 . S
C4512 C4508 1.387 . S
C4512 C4511 1.409 . S
C4512 H4514 0.951 . S
C4513 C4508 1.491 . S
C4513 C4515 1.382 . S
C4513 C4517 1.404 . S
H4514 C4512 0.951 . S
C4515 C4513 1.382 . S
C4515 C4516 1.390 1_554 S
C4515 H4520 0.949 . S
C4516 C4515 1.390 1_556 S
C4516 C4521 1.399 . S
C4517 C4513 1.404 . S
C4517 H4518 0.950 . S
C4517 C4519 1.375 1_554 S
H4518 C4517 0.950 . S
C4519 C4517 1.375 1_556 S
C4519 C4521 1.382 . S
C4519 H4523 0.950 . S
H4520 C4515 0.949 . S
C4521 C4516 1.399 . S
C4521 C4519 1.382 . S
C4521 H4522 0.952 . S
H4522 C4521 0.952 . S
H4523 C4519 0.950 . S
H4524 C4525 0.949 . S
C4525 H4524 0.949 . S
C4525 C4526 1.395 . S
C4525 C4527 1.391 . S
C4526 C4525 1.395 . S
C4526 C4529 1.390 . S
C4527 C4525 1.391 . S
C4527 C4531 1.387 . S
C4527 C4532 1.491 . S
H4528 C4529 0.950 . S
C4529 C4526 1.390 . S
C4529 H4528 0.950 . S
C4529 C4530 1.378 . S
C4530 C4529 1.378 . S
C4530 C4531 1.409 . S
C4531 C4527 1.387 . S
C4531 C4530 1.409 . S
C4531 H4533 0.951 . S
C4532 C4527 1.491 . S
C4532 C4534 1.382 . S
C4532 C4536 1.404 . S
H4533 C4531 0.951 . S
C4534 C4532 1.382 . S
C4534 C4535 1.390 . S
C4534 H4539 0.949 . S
C4535 C4534 1.390 . S
C4535 C4540 1.399 . S
C4536 C4532 1.404 . S
C4536 H4537 0.950 . S
C4536 C4538 1.375 . S
H4537 C4536 0.950 . S
C4538 C4536 1.375 . S
C4538 C4540 1.382 . S
C4538 H4542 0.950 . S
H4539 C4534 0.949 . S
C4540 C4535 1.399 . S
C4540 C4538 1.382 . S
C4540 H4541 0.952 . S
H4541 C4540 0.952 . S
H4542 C4538 0.950 . S
H4543 C4544 0.949 . S
C4544 H4543 0.949 . S
C4544 C4545 1.395 . S
C4544 C4546 1.391 . S
C4545 C4544 1.395 . S
C4545 C4548 1.390 . S
C4546 C4544 1.391 . S
C4546 C4550 1.387 . S
C4546 C4551 1.491 . S
H4547 C4548 0.950 . S
C4548 C4545 1.390 . S
C4548 H4547 0.950 . S
C4548 C4549 1.378 . S
C4549 C4548 1.378 . S
C4549 C4550 1.409 . S
C4550 C4546 1.387 . S
C4550 C4549 1.409 . S
C4550 H4552 0.951 . S
C4551 C4546 1.491 . S
C4551 C4553 1.382 . S
C4551 C4555 1.404 . S
H4552 C4550 0.951 . S
C4553 C4551 1.382 . S
C4553 C4554 1.390 . S
C4553 H4558 0.949 . S
C4554 C4553 1.390 . S
C4554 C4559 1.399 . S
C4555 C4551 1.404 . S
C4555 H4556 0.950 . S
C4555 C4557 1.375 . S
H4556 C4555 0.950 . S
C4557 C4555 1.375 . S
C4557 C4559 1.382 . S
C4557 H4561 0.950 . S
H4558 C4553 0.949 . S
C4559 C4554 1.399 . S
C4559 C4557 1.382 . S
C4559 H4560 0.952 . S
H4560 C4559 0.952 . S
H4561 C4557 0.950 . S
H4562 C4563 0.949 . S
C4563 H4562 0.949 . S
C4563 C4564 1.395 . S
C4563 C4565 1.391 . S
C4564 C4563 1.395 . S
C4564 C4567 1.390 . S
C4565 C4563 1.391 . S
C4565 C4569 1.387 . S
C4565 C4570 1.491 . S
H4566 C4567 0.950 . S
C4567 C4564 1.390 . S
C4567 H4566 0.950 . S
C4567 C4568 1.378 . S
C4568 C4567 1.378 . S
C4568 C4569 1.409 . S
C4569 C4565 1.387 . S
C4569 C4568 1.409 . S
C4569 H4571 0.951 . S
C4570 C4565 1.491 . S
C4570 C4572 1.382 . S
C4570 C4574 1.404 . S
H4571 C4569 0.951 . S
C4572 C4570 1.382 . S
C4572 C4573 1.390 . S
C4572 H4577 0.949 . S
C4573 C4572 1.390 . S
C4573 C4578 1.399 . S
C4574 C4570 1.404 . S
C4574 H4575 0.950 . S
C4574 C4576 1.375 . S
H4575 C4574 0.950 . S
C4576 C4574 1.375 . S
C4576 C4578 1.382 . S
C4576 H4580 0.950 . S
H4577 C4572 0.949 . S
C4578 C4573 1.399 . S
C4578 C4576 1.382 . S
C4578 H4579 0.952 . S
H4579 C4578 0.952 . S
H4580 C4576 0.950 . S
H4581 C4582 0.949 . S
C4582 H4581 0.949 . S
C4582 C4583 1.395 . S
C4582 C4584 1.391 . S
C4583 C4582 1.395 . S
C4583 C4586 1.390 . S
C4584 C4582 1.391 . S
C4584 C4588 1.387 . S
C4584 C4589 1.491 . S
H4585 C4586 0.950 . S
C4586 C4583 1.390 . S
C4586 H4585 0.950 . S
C4586 C4587 1.378 . S
C4587 C4586 1.378 . S
C4587 C4588 1.409 . S
C4588 C4584 1.387 . S
C4588 C4587 1.409 . S
C4588 H4590 0.951 . S
C4589 C4584 1.491 . S
C4589 C4591 1.382 . S
C4589 C4593 1.404 . S
H4590 C4588 0.951 . S
C4591 C4589 1.382 . S
C4591 C4592 1.390 1_556 S
C4591 H4596 0.949 . S
C4592 C4591 1.390 1_554 S
C4592 C4597 1.399 . S
C4593 C4589 1.404 . S
C4593 H4594 0.950 . S
C4593 C4595 1.375 1_556 S
H4594 C4593 0.950 . S
C4595 C4593 1.375 1_554 S
C4595 C4597 1.382 . S
C4595 H4599 0.950 . S
H4596 C4591 0.949 . S
C4597 C4592 1.399 . S
C4597 C4595 1.382 . S
C4597 H4598 0.952 . S
H4598 C4597 0.952 . S
H4599 C4595 0.950 . S
H4600 C4601 0.949 . S
C4601 H4600 0.949 . S
C4601 C4602 1.395 . S
C4601 C4603 1.391 . S
C4602 C4601 1.395 . S
C4602 C4605 1.390 . S
C4603 C4601 1.391 . S
C4603 C4607 1.387 . S
C4603 C4608 1.491 . S
H4604 C4605 0.950 . S
C4605 C4602 1.390 . S
C4605 H4604 0.950 . S
C4605 C4606 1.378 . S
C4606 C4605 1.378 . S
C4606 C4607 1.409 . S
C4607 C4603 1.387 . S
C4607 C4606 1.409 . S
C4607 H4609 0.951 . S
C4608 C4603 1.491 . S
C4608 C4610 1.382 . S
C4608 C4612 1.404 . S
H4609 C4607 0.951 . S
C4610 C4608 1.382 . S
C4610 C4611 1.390 . S
C4610 H4615 0.949 . S
C4611 C4610 1.390 . S
C4611 C4616 1.399 . S
C4612 C4608 1.404 . S
C4612 H4613 0.950 . S
C4612 C4614 1.375 . S
H4613 C4612 0.950 . S
C4614 C4612 1.375 . S
C4614 C4616 1.382 . S
C4614 H4618 0.950 . S
H4615 C4610 0.949 . S
C4616 C4611 1.399 . S
C4616 C4614 1.382 . S
C4616 H4617 0.952 . S
H4617 C4616 0.952 . S
H4618 C4614 0.950 . S
H4619 C4620 0.949 . S
C4620 H4619 0.949 . S
C4620 C4621 1.395 . S
C4620 C4622 1.391 . S
C4621 C4620 1.395 . S
C4621 C4624 1.390 . S
C4622 C4620 1.391 . S
C4622 C4626 1.387 . S
C4622 C4627 1.491 . S
H4623 C4624 0.950 . S
C4624 C4621 1.390 . S
C4624 H4623 0.950 . S
C4624 C4625 1.378 . S
C4625 C4624 1.378 . S
C4625 C4626 1.409 . S
C4626 C4622 1.387 . S
C4626 C4625 1.409 . S
C4626 H4628 0.951 . S
C4627 C4622 1.491 . S
C4627 C4629 1.382 . S
C4627 C4631 1.404 . S
H4628 C4626 0.951 . S
C4629 C4627 1.382 . S
C4629 C4630 1.390 . S
C4629 H4634 0.949 . S
C4630 C4629 1.390 . S
C4630 C4635 1.399 . S
C4631 C4627 1.404 . S
C4631 H4632 0.950 . S
C4631 C4633 1.375 . S
H4632 C4631 0.950 . S
C4633 C4631 1.375 . S
C4633 C4635 1.382 . S
C4633 H4637 0.950 . S
H4634 C4629 0.949 . S
C4635 C4630 1.399 . S
C4635 C4633 1.382 . S
C4635 H4636 0.952 . S
H4636 C4635 0.952 . S
H4637 C4633 0.950 . S
H4638 C4639 0.949 . S
C4639 H4638 0.949 . S
C4639 C4640 1.395 . S
C4639 C4641 1.391 . S
C4640 C4639 1.395 . S
C4640 C4643 1.390 . S
C4641 C4639 1.391 . S
C4641 C4645 1.387 . S
C4641 C4646 1.491 . S
H4642 C4643 0.950 . S
C4643 C4640 1.390 . S
C4643 H4642 0.950 . S
C4643 C4644 1.378 . S
C4644 C4643 1.378 . S
C4644 C4645 1.409 . S
C4645 C4641 1.387 . S
C4645 C4644 1.409 . S
C4645 H4647 0.951 . S
C4646 C4641 1.491 . S
C4646 C4648 1.382 . S
C4646 C4650 1.404 . S
H4647 C4645 0.951 . S
C4648 C4646 1.382 . S
C4648 C4649 1.390 . S
C4648 H4653 0.949 . S
C4649 C4648 1.390 . S
C4649 C4654 1.399 . S
C4650 C4646 1.404 . S
C4650 H4651 0.950 . S
C4650 C4652 1.375 . S
H4651 C4650 0.950 . S
C4652 C4650 1.375 . S
C4652 C4654 1.382 . S
C4652 H4656 0.950 . S
H4653 C4648 0.949 . S
C4654 C4649 1.399 . S
C4654 C4652 1.382 . S
C4654 H4655 0.952 . S
H4655 C4654 0.952 . S
H4656 C4652 0.950 . S
H4657 C4658 0.949 . S
C4658 H4657 0.949 . S
C4658 C4659 1.395 . S
C4658 C4660 1.391 . S
C4659 C4658 1.395 . S
C4659 C4662 1.390 . S
C4660 C4658 1.391 . S
C4660 C4664 1.387 . S
C4660 C4665 1.491 . S
H4661 C4662 0.950 . S
C4662 C4659 1.390 . S
C4662 H4661 0.950 . S
C4662 C4663 1.378 . S
C4663 C4662 1.378 . S
C4663 C4664 1.409 . S
C4664 C4660 1.387 . S
C4664 C4663 1.409 . S
C4664 H4666 0.951 . S
C4665 C4660 1.491 . S
C4665 C4667 1.382 . S
C4665 C4669 1.404 . S
H4666 C4664 0.951 . S
C4667 C4665 1.382 . S
C4667 C4668 1.390 . S
C4667 H4672 0.949 . S
C4668 C4667 1.390 . S
C4668 C4673 1.399 . S
C4669 C4665 1.404 . S
C4669 H4670 0.950 . S
C4669 C4671 1.375 . S
H4670 C4669 0.950 . S
C4671 C4669 1.375 . S
C4671 C4673 1.382 . S
C4671 H4675 0.950 . S
H4672 C4667 0.949 . S
C4673 C4668 1.399 . S
C4673 C4671 1.382 . S
C4673 H4674 0.952 . S
H4674 C4673 0.952 . S
H4675 C4671 0.950 . S
H4676 C4677 0.949 . S
C4677 H4676 0.949 . S
C4677 C4678 1.395 . S
C4677 C4679 1.391 . S
C4678 C4677 1.395 . S
C4678 C4681 1.390 . S
C4679 C4677 1.391 . S
C4679 C4683 1.387 . S
C4679 C4684 1.491 . S
H4680 C4681 0.950 . S
C4681 C4678 1.390 . S
C4681 H4680 0.950 . S
C4681 C4682 1.378 . S
C4682 C4681 1.378 . S
C4682 C4683 1.409 . S
C4683 C4679 1.387 . S
C4683 C4682 1.409 . S
C4683 H4685 0.951 . S
C4684 C4679 1.491 . S
C4684 C4686 1.382 . S
C4684 C4688 1.404 . S
H4685 C4683 0.951 . S
C4686 C4684 1.382 . S
C4686 C4687 1.390 1_565 S
C4686 H4691 0.949 . S
C4687 C4686 1.390 1_545 S
C4687 C4692 1.399 . S
C4688 C4684 1.404 . S
C4688 H4689 0.950 . S
C4688 C4690 1.375 1_565 S
H4689 C4688 0.950 . S
C4690 C4688 1.375 1_545 S
C4690 C4692 1.382 . S
C4690 H4694 0.950 . S
H4691 C4686 0.949 . S
C4692 C4687 1.399 . S
C4692 C4690 1.382 . S
C4692 H4693 0.952 . S
H4693 C4692 0.952 . S
H4694 C4690 0.950 . S
H4695 C4696 0.949 . S
C4696 H4695 0.949 . S
C4696 C4697 1.395 . S
C4696 C4698 1.391 . S
C4697 C4696 1.395 . S
C4697 C4700 1.390 . S
C4698 C4696 1.391 . S
C4698 C4702 1.387 . S
C4698 C4703 1.491 . S
H4699 C4700 0.950 . S
C4700 C4697 1.390 . S
C4700 H4699 0.950 . S
C4700 C4701 1.378 . S
C4701 C4700 1.378 . S
C4701 C4702 1.409 . S
C4702 C4698 1.387 . S
C4702 C4701 1.409 . S
C4702 H4704 0.951 . S
C4703 C4698 1.491 . S
C4703 C4705 1.382 . S
C4703 C4707 1.404 . S
H4704 C4702 0.951 . S
C4705 C4703 1.382 . S
C4705 C4706 1.390 . S
C4705 H4710 0.949 . S
C4706 C4705 1.390 . S
C4706 C4711 1.399 . S
C4707 C4703 1.404 . S
C4707 H4708 0.950 . S
C4707 C4709 1.375 . S
H4708 C4707 0.950 . S
C4709 C4707 1.375 . S
C4709 C4711 1.382 . S
C4709 H4713 0.950 . S
H4710 C4705 0.949 . S
C4711 C4706 1.399 . S
C4711 C4709 1.382 . S
C4711 H4712 0.952 . S
H4712 C4711 0.952 . S
H4713 C4709 0.950 . S
H4714 C4715 0.949 . S
C4715 H4714 0.949 . S
C4715 C4716 1.395 . S
C4715 C4717 1.391 . S
C4716 C4715 1.395 . S
C4716 C4719 1.390 . S
C4717 C4715 1.391 . S
C4717 C4721 1.387 . S
C4717 C4722 1.491 . S
H4718 C4719 0.950 . S
C4719 C4716 1.390 . S
C4719 H4718 0.950 . S
C4719 C4720 1.378 . S
C4720 C4719 1.378 . S
C4720 C4721 1.409 . S
C4721 C4717 1.387 . S
C4721 C4720 1.409 . S
C4721 H4723 0.951 . S
C4722 C4717 1.491 . S
C4722 C4724 1.382 . S
C4722 C4726 1.404 . S
H4723 C4721 0.951 . S
C4724 C4722 1.382 . S
C4724 C4725 1.390 . S
C4724 H4729 0.949 . S
C4725 C4724 1.390 . S
C4725 C4730 1.399 . S
C4726 C4722 1.404 . S
C4726 H4727 0.950 . S
C4726 C4728 1.375 . S
H4727 C4726 0.950 . S
C4728 C4726 1.375 . S
C4728 C4730 1.382 . S
C4728 H4732 0.950 . S
H4729 C4724 0.949 . S
C4730 C4725 1.399 . S
C4730 C4728 1.382 . S
C4730 H4731 0.952 . S
H4731 C4730 0.952 . S
H4732 C4728 0.950 . S
H4733 C4734 0.949 . S
C4734 H4733 0.949 . S
C4734 C4735 1.395 . S
C4734 C4736 1.391 . S
C4735 C4734 1.395 . S
C4735 C4738 1.390 . S
C4736 C4734 1.391 . S
C4736 C4740 1.387 . S
C4736 C4741 1.491 . S
H4737 C4738 0.950 . S
C4738 C4735 1.390 . S
C4738 H4737 0.950 . S
C4738 C4739 1.378 . S
C4739 C4738 1.378 . S
C4739 C4740 1.409 . S
C4740 C4736 1.387 . S
C4740 C4739 1.409 . S
C4740 H4742 0.951 . S
C4741 C4736 1.491 . S
C4741 C4743 1.382 . S
C4741 C4745 1.404 . S
H4742 C4740 0.951 . S
C4743 C4741 1.382 . S
C4743 C4744 1.390 . S
C4743 H4748 0.949 . S
C4744 C4743 1.390 . S
C4744 C4749 1.399 . S
C4745 C4741 1.404 . S
C4745 H4746 0.950 . S
C4745 C4747 1.375 . S
H4746 C4745 0.950 . S
C4747 C4745 1.375 . S
C4747 C4749 1.382 . S
C4747 H4751 0.950 . S
H4748 C4743 0.949 . S
C4749 C4744 1.399 . S
C4749 C4747 1.382 . S
C4749 H4750 0.952 . S
H4750 C4749 0.952 . S
H4751 C4747 0.950 . S
H4752 C4753 0.949 . S
C4753 H4752 0.949 . S
C4753 C4754 1.395 . S
C4753 C4755 1.391 . S
C4754 C4753 1.395 . S
C4754 C4757 1.390 . S
C4755 C4753 1.391 . S
C4755 C4759 1.387 . S
C4755 C4760 1.491 . S
H4756 C4757 0.950 . S
C4757 C4754 1.390 . S
C4757 H4756 0.950 . S
C4757 C4758 1.378 . S
C4758 C4757 1.378 . S
C4758 C4759 1.409 . S
C4759 C4755 1.387 . S
C4759 C4758 1.409 . S
C4759 H4761 0.951 . S
C4760 C4755 1.491 . S
C4760 C4762 1.382 . S
C4760 C4764 1.404 . S
H4761 C4759 0.951 . S
C4762 C4760 1.382 . S
C4762 C4763 1.390 . S
C4762 H4767 0.949 . S
C4763 C4762 1.390 . S
C4763 C4768 1.399 . S
C4764 C4760 1.404 . S
C4764 H4765 0.950 . S
C4764 C4766 1.375 . S
H4765 C4764 0.950 . S
C4766 C4764 1.375 . S
C4766 C4768 1.382 . S
C4766 H4770 0.950 . S
H4767 C4762 0.949 . S
C4768 C4763 1.399 . S
C4768 C4766 1.382 . S
C4768 H4769 0.952 . S
H4769 C4768 0.952 . S
H4770 C4766 0.950 . S
H4771 C4772 0.949 . S
C4772 H4771 0.949 . S
C4772 C4773 1.395 . S
C4772 C4774 1.391 . S
C4773 C4772 1.395 . S
C4773 C4776 1.390 . S
C4774 C4772 1.391 . S
C4774 C4778 1.387 . S
C4774 C4779 1.491 . S
H4775 C4776 0.950 . S
C4776 C4773 1.390 . S
C4776 H4775 0.950 . S
C4776 C4777 1.378 . S
C4777 C4776 1.378 . S
C4777 C4778 1.409 . S
C4778 C4774 1.387 . S
C4778 C4777 1.409 . S
C4778 H4780 0.951 . S
C4779 C4774 1.491 . S
C4779 C4781 1.382 . S
C4779 C4783 1.404 . S
H4780 C4778 0.951 . S
C4781 C4779 1.382 . S
C4781 C4782 1.390 . S
C4781 H4786 0.949 . S
C4782 C4781 1.390 . S
C4782 C4787 1.399 . S
C4783 C4779 1.404 . S
C4783 H4784 0.950 . S
C4783 C4785 1.375 . S
H4784 C4783 0.950 . S
C4785 C4783 1.375 . S
C4785 C4787 1.382 . S
C4785 H4789 0.950 . S
H4786 C4781 0.949 . S
C4787 C4782 1.399 . S
C4787 C4785 1.382 . S
C4787 H4788 0.952 . S
H4788 C4787 0.952 . S
H4789 C4785 0.950 . S
H4790 C4791 0.949 . S
C4791 H4790 0.949 . S
C4791 C4792 1.395 . S
C4791 C4793 1.391 . S
C4792 C4791 1.395 . S
C4792 C4795 1.390 . S
C4793 C4791 1.391 . S
C4793 C4797 1.387 . S
C4793 C4798 1.491 . S
H4794 C4795 0.950 . S
C4795 C4792 1.390 . S
C4795 H4794 0.950 . S
C4795 C4796 1.378 . S
C4796 C4795 1.378 . S
C4796 C4797 1.409 . S
C4797 C4793 1.387 . S
C4797 C4796 1.409 . S
C4797 H4799 0.951 . S
C4798 C4793 1.491 . S
C4798 C4800 1.382 . S
C4798 C4802 1.404 . S
H4799 C4797 0.951 . S
C4800 C4798 1.382 . S
C4800 C4801 1.390 . S
C4800 H4805 0.949 . S
C4801 C4800 1.390 . S
C4801 C4806 1.399 . S
C4802 C4798 1.404 . S
C4802 H4803 0.950 . S
C4802 C4804 1.375 . S
H4803 C4802 0.950 . S
C4804 C4802 1.375 . S
C4804 C4806 1.382 . S
C4804 H4808 0.950 . S
H4805 C4800 0.949 . S
C4806 C4801 1.399 . S
C4806 C4804 1.382 . S
C4806 H4807 0.952 . S
H4807 C4806 0.952 . S
H4808 C4804 0.950 . S
H4809 C4810 0.949 . S
C4810 H4809 0.949 . S
C4810 C4811 1.395 . S
C4810 C4812 1.391 . S
C4811 C4810 1.395 . S
C4811 C4814 1.390 . S
C4812 C4810 1.391 . S
C4812 C4816 1.387 . S
C4812 C4817 1.491 . S
H4813 C4814 0.950 . S
C4814 C4811 1.390 . S
C4814 H4813 0.950 . S
C4814 C4815 1.378 . S
C4815 C4814 1.378 . S
C4815 C4816 1.409 . S
C4816 C4812 1.387 . S
C4816 C4815 1.409 . S
C4816 H4818 0.951 . S
C4817 C4812 1.491 . S
C4817 C4819 1.382 . S
C4817 C4821 1.404 . S
H4818 C4816 0.951 . S
C4819 C4817 1.382 . S
C4819 C4820 1.379 1_655 S
C4819 H4824 0.949 . S
C4820 C4819 1.379 1_455 S
C4820 C4825 1.398 . S
C4821 C4817 1.404 . S
C4821 H4822 0.950 . S
C4821 C4823 1.375 . S
H4822 C4821 0.950 . S
C4823 C4821 1.375 . S
C4823 C4825 1.323 1_655 S
C4823 H4827 0.950 . S
H4824 C4819 0.949 . S
C4825 C4820 1.398 . S
C4825 C4823 1.323 1_455 S
C4825 H4826 1.017 . S
H4826 C4825 1.017 . S
H4827 C4823 0.950 . S
H4828 C4829 0.949 . S
C4829 H4828 0.949 . S
C4829 C4830 1.395 . S
C4829 C4831 1.391 . S
C4830 C4829 1.395 . S
C4830 C4833 1.390 . S
C4831 C4829 1.391 . S
C4831 C4835 1.387 . S
C4831 C4836 1.491 . S
H4832 C4833 0.950 . S
C4833 C4830 1.390 . S
C4833 H4832 0.950 . S
C4833 C4834 1.378 . S
C4834 C4833 1.378 . S
C4834 C4835 1.409 . S
C4835 C4831 1.387 . S
C4835 C4834 1.409 . S
C4835 H4837 0.951 . S
C4836 C4831 1.491 . S
C4836 C4838 1.382 . S
C4836 C4840 1.404 . S
H4837 C4835 0.951 . S
C4838 C4836 1.382 . S
C4838 C4839 1.390 . S
C4838 H4843 0.949 . S
C4839 C4838 1.390 . S
C4839 C4844 1.399 . S
C4840 C4836 1.404 . S
C4840 H4841 0.950 . S
C4840 C4842 1.375 . S
H4841 C4840 0.950 . S
C4842 C4840 1.375 . S
C4842 C4844 1.382 . S
C4842 H4846 0.950 . S
H4843 C4838 0.949 . S
C4844 C4839 1.399 . S
C4844 C4842 1.382 . S
C4844 H4845 0.952 . S
H4845 C4844 0.952 . S
H4846 C4842 0.950 . S
H4847 C4848 0.949 . S
C4848 H4847 0.949 . S
C4848 C4849 1.395 . S
C4848 C4850 1.391 . S
C4849 C4848 1.395 . S
C4849 C4852 1.390 . S
C4850 C4848 1.391 . S
C4850 C4854 1.387 . S
C4850 C4855 1.491 . S
H4851 C4852 0.950 . S
C4852 C4849 1.390 . S
C4852 H4851 0.950 . S
C4852 C4853 1.378 . S
C4853 C4852 1.378 . S
C4853 C4854 1.409 . S
C4854 C4850 1.387 . S
C4854 C4853 1.409 . S
C4854 H4856 0.951 . S
C4855 C4850 1.491 . S
C4855 C4857 1.382 . S
C4855 C4859 1.404 . S
H4856 C4854 0.951 . S
C4857 C4855 1.382 . S
C4857 C4858 1.380 1_655 S
C4857 H4862 0.949 . S
C4858 C4857 1.380 1_455 S
C4858 C4863 1.398 . S
C4859 C4855 1.404 . S
C4859 H4860 0.950 . S
C4859 C4861 1.375 . S
H4860 C4859 0.950 . S
C4861 C4859 1.375 . S
C4861 C4863 1.324 1_655 S
C4861 H4865 0.950 . S
H4862 C4857 0.949 . S
C4863 C4858 1.398 . S
C4863 C4861 1.324 1_455 S
C4863 H4864 1.016 . S
H4864 C4863 1.016 . S
H4865 C4861 0.950 . S
H4866 C4867 0.949 . S
C4867 H4866 0.949 . S
C4867 C4868 1.395 . S
C4867 C4869 1.391 . S
C4868 C4867 1.395 . S
C4868 C4871 1.390 . S
C4869 C4867 1.391 . S
C4869 C4873 1.387 . S
C4869 C4874 1.491 . S
H4870 C4871 0.950 . S
C4871 C4868 1.390 . S
C4871 H4870 0.950 . S
C4871 C4872 1.378 . S
C4872 C4871 1.378 . S
C4872 C4873 1.409 . S
C4873 C4869 1.387 . S
C4873 C4872 1.409 . S
C4873 H4875 0.951 . S
C4874 C4869 1.491 . S
C4874 C4876 1.382 . S
C4874 C4878 1.404 . S
H4875 C4873 0.951 . S
C4876 C4874 1.382 . S
C4876 C4877 1.390 . S
C4876 H4881 0.949 . S
C4877 C4876 1.390 . S
C4877 C4882 1.399 . S
C4878 C4874 1.404 . S
C4878 H4879 0.950 . S
C4878 C4880 1.375 . S
H4879 C4878 0.950 . S
C4880 C4878 1.375 . S
C4880 C4882 1.382 . S
C4880 H4884 0.950 . S
H4881 C4876 0.949 . S
C4882 C4877 1.399 . S
C4882 C4880 1.382 . S
C4882 H4883 0.952 . S
H4883 C4882 0.952 . S
H4884 C4880 0.950 . S
H4885 C4886 0.949 . S
C4886 H4885 0.949 . S
C4886 C4887 1.395 . S
C4886 C4888 1.391 . S
C4887 C4886 1.395 . S
C4887 C4890 1.390 . S
C4888 C4886 1.391 . S
C4888 C4892 1.387 . S
C4888 C4893 1.491 . S
H4889 C4890 0.950 . S
C4890 C4887 1.390 . S
C4890 H4889 0.950 . S
C4890 C4891 1.378 . S
C4891 C4890 1.378 . S
C4891 C4892 1.409 . S
C4892 C4888 1.387 . S
C4892 C4891 1.409 . S
C4892 H4894 0.951 . S
C4893 C4888 1.491 . S
C4893 C4895 1.382 . S
C4893 C4897 1.404 . S
H4894 C4892 0.951 . S
C4895 C4893 1.382 . S
C4895 C4896 1.390 . S
C4895 H4900 0.949 . S
C4896 C4895 1.390 . S
C4896 C4901 1.399 . S
C4897 C4893 1.404 . S
C4897 H4898 0.950 . S
C4897 C4899 1.375 . S
H4898 C4897 0.950 . S
C4899 C4897 1.375 . S
C4899 C4901 1.382 . S
C4899 H4903 0.950 . S
H4900 C4895 0.949 . S
C4901 C4896 1.399 . S
C4901 C4899 1.382 . S
C4901 H4902 0.952 . S
H4902 C4901 0.952 . S
H4903 C4899 0.950 . S
H4904 C4905 0.949 . S
C4905 H4904 0.949 . S
C4905 C4906 1.395 . S
C4905 C4907 1.391 . S
C4906 C4905 1.395 . S
C4906 C4909 1.390 . S
C4907 C4905 1.391 . S
C4907 C4911 1.387 . S
C4907 C4912 1.491 . S
H4908 C4909 0.950 . S
C4909 C4906 1.390 . S
C4909 H4908 0.950 . S
C4909 C4910 1.378 . S
C4910 C4909 1.378 . S
C4910 C4911 1.409 . S
C4911 C4907 1.387 . S
C4911 C4910 1.409 . S
C4911 H4913 0.951 . S
C4912 C4907 1.491 . S
C4912 C4914 1.382 . S
C4912 C4916 1.404 . S
H4913 C4911 0.951 . S
C4914 C4912 1.382 . S
C4914 C4915 1.390 . S
C4914 H4919 0.949 . S
C4915 C4914 1.390 . S
C4915 C4920 1.399 . S
C4916 C4912 1.404 . S
C4916 H4917 0.950 . S
C4916 C4918 1.375 . S
H4917 C4916 0.950 . S
C4918 C4916 1.375 . S
C4918 C4920 1.382 . S
C4918 H4922 0.950 . S
H4919 C4914 0.949 . S
C4920 C4915 1.399 . S
C4920 C4918 1.382 . S
C4920 H4921 0.952 . S
H4921 C4920 0.952 . S
H4922 C4918 0.950 . S
H4923 C4924 0.949 . S
C4924 H4923 0.949 . S
C4924 C4925 1.395 . S
C4924 C4926 1.391 . S
C4925 C4924 1.395 . S
C4925 C4928 1.390 . S
C4926 C4924 1.391 . S
C4926 C4930 1.387 . S
C4926 C4931 1.491 . S
H4927 C4928 0.950 . S
C4928 C4925 1.390 . S
C4928 H4927 0.950 . S
C4928 C4929 1.378 . S
C4929 C4928 1.378 . S
C4929 C4930 1.409 . S
C4930 C4926 1.387 . S
C4930 C4929 1.409 . S
C4930 H4932 0.951 . S
C4931 C4926 1.491 . S
C4931 C4933 1.382 . S
C4931 C4935 1.404 . S
H4932 C4930 0.951 . S
C4933 C4931 1.382 . S
C4933 C4934 1.379 1_556 S
C4933 H4938 0.949 . S
C4934 C4933 1.379 1_554 S
C4934 C4939 1.398 . S
C4935 C4931 1.404 . S
C4935 H4936 0.950 . S
C4935 C4937 1.375 . S
H4936 C4935 0.950 . S
C4937 C4935 1.375 . S
C4937 C4939 1.322 1_556 S
C4937 H4941 0.950 . S
H4938 C4933 0.949 . S
C4939 C4934 1.398 . S
C4939 C4937 1.322 1_554 S
C4939 H4940 1.018 . S
H4940 C4939 1.018 . S
H4941 C4937 0.950 . S
H4942 C4943 0.949 . S
C4943 H4942 0.949 . S
C4943 C4944 1.395 . S
C4943 C4945 1.391 . S
C4944 C4943 1.395 . S
C4944 C4947 1.390 . S
C4945 C4943 1.391 . S
C4945 C4949 1.387 . S
C4945 C4950 1.491 . S
H4946 C4947 0.950 . S
C4947 C4944 1.390 . S
C4947 H4946 0.950 . S
C4947 C4948 1.378 . S
C4948 C4947 1.378 . S
C4948 C4949 1.409 . S
C4949 C4945 1.387 . S
C4949 C4948 1.409 . S
C4949 H4951 0.951 . S
C4950 C4945 1.491 . S
C4950 C4952 1.382 . S
C4950 C4954 1.404 . S
H4951 C4949 0.951 . S
C4952 C4950 1.382 . S
C4952 C4953 1.390 . S
C4952 H4957 0.949 . S
C4953 C4952 1.390 . S
C4953 C4958 1.399 . S
C4954 C4950 1.404 . S
C4954 H4955 0.950 . S
C4954 C4956 1.375 . S
H4955 C4954 0.950 . S
C4956 C4954 1.375 . S
C4956 C4958 1.382 . S
C4956 H4960 0.950 . S
H4957 C4952 0.949 . S
C4958 C4953 1.399 . S
C4958 C4956 1.382 . S
C4958 H4959 0.952 . S
H4959 C4958 0.952 . S
H4960 C4956 0.950 . S
H4961 C4962 0.949 . S
C4962 H4961 0.949 . S
C4962 C4963 1.395 . S
C4962 C4964 1.391 . S
C4963 C4962 1.395 . S
C4963 C4966 1.390 . S
C4964 C4962 1.391 . S
C4964 C4968 1.387 . S
C4964 C4969 1.491 . S
H4965 C4966 0.950 . S
C4966 C4963 1.390 . S
C4966 H4965 0.950 . S
C4966 C4967 1.378 . S
C4967 C4966 1.378 . S
C4967 C4968 1.409 . S
C4968 C4964 1.387 . S
C4968 C4967 1.409 . S
C4968 H4970 0.951 . S
C4969 C4964 1.491 . S
C4969 C4971 1.382 . S
C4969 C4973 1.404 . S
H4970 C4968 0.951 . S
C4971 C4969 1.382 . S
C4971 C4972 1.390 . S
C4971 H4976 0.949 . S
C4972 C4971 1.390 . S
C4972 C4977 1.399 . S
C4973 C4969 1.404 . S
C4973 H4974 0.950 . S
C4973 C4975 1.375 . S
H4974 C4973 0.950 . S
C4975 C4973 1.375 . S
C4975 C4977 1.382 . S
C4975 H4979 0.950 . S
H4976 C4971 0.949 . S
C4977 C4972 1.399 . S
C4977 C4975 1.382 . S
C4977 H4978 0.952 . S
H4978 C4977 0.952 . S
H4979 C4975 0.950 . S
H4980 C4981 0.949 . S
C4981 H4980 0.949 . S
C4981 C4982 1.395 . S
C4981 C4983 1.391 . S
C4982 C4981 1.395 . S
C4982 C4985 1.390 . S
C4983 C4981 1.391 . S
C4983 C4987 1.387 . S
C4983 C4988 1.491 . S
H4984 C4985 0.950 . S
C4985 C4982 1.390 . S
C4985 H4984 0.950 . S
C4985 C4986 1.378 . S
C4986 C4985 1.378 . S
C4986 C4987 1.409 . S
C4987 C4983 1.387 . S
C4987 C4986 1.409 . S
C4987 H4989 0.951 . S
C4988 C4983 1.491 . S
C4988 C4990 1.382 . S
C4988 C4992 1.404 . S
H4989 C4987 0.951 . S
C4990 C4988 1.382 . S
C4990 C4991 1.390 . S
C4990 H4995 0.949 . S
C4991 C4990 1.390 . S
C4991 C4996 1.399 . S
C4992 C4988 1.404 . S
C4992 H4993 0.950 . S
C4992 C4994 1.375 . S
H4993 C4992 0.950 . S
C4994 C4992 1.375 . S
C4994 C4996 1.382 . S
C4994 H4998 0.950 . S
H4995 C4990 0.949 . S
C4996 C4991 1.399 . S
C4996 C4994 1.382 . S
C4996 H4997 0.952 . S
H4997 C4996 0.952 . S
H4998 C4994 0.950 . S
H4999 C5000 0.949 . S
C5000 H4999 0.949 . S
C5000 C5001 1.395 . S
C5000 C5002 1.391 . S
C5001 C5000 1.395 . S
C5001 C5004 1.390 . S
C5002 C5000 1.391 . S
C5002 C5006 1.387 . S
C5002 C5007 1.491 . S
H5003 C5004 0.950 . S
C5004 C5001 1.390 . S
C5004 H5003 0.950 . S
C5004 C5005 1.378 . S
C5005 C5004 1.378 . S
C5005 C5006 1.409 . S
C5006 C5002 1.387 . S
C5006 C5005 1.409 . S
C5006 H5008 0.951 . S
C5007 C5002 1.491 . S
C5007 C5009 1.382 . S
C5007 C5011 1.404 . S
H5008 C5006 0.951 . S
C5009 C5007 1.382 . S
C5009 C5010 1.381 1_554 S
C5009 H5014 0.949 . S
C5010 C5009 1.381 1_556 S
C5010 C5015 1.398 . S
C5011 C5007 1.404 . S
C5011 H5012 0.950 . S
C5011 C5013 1.375 . S
H5012 C5011 0.950 . S
C5013 C5011 1.375 . S
C5013 C5015 1.325 1_554 S
C5013 H5017 0.950 . S
H5014 C5009 0.949 . S
C5015 C5010 1.398 . S
C5015 C5013 1.325 1_556 S
C5015 H5016 1.015 . S
H5016 C5015 1.015 . S
H5017 C5013 0.950 . S
H5018 C5019 0.949 . S
C5019 H5018 0.949 . S
C5019 C5020 1.395 . S
C5019 C5021 1.391 . S
C5020 C5019 1.395 . S
C5020 C5023 1.390 . S
C5021 C5019 1.391 . S
C5021 C5025 1.387 . S
C5021 C5026 1.491 . S
H5022 C5023 0.950 . S
C5023 C5020 1.390 . S
C5023 H5022 0.950 . S
C5023 C5024 1.378 . S
C5024 C5023 1.378 . S
C5024 C5025 1.409 . S
C5025 C5021 1.387 . S
C5025 C5024 1.409 . S
C5025 H5027 0.951 . S
C5026 C5021 1.491 . S
C5026 C5028 1.382 . S
C5026 C5030 1.404 . S
H5027 C5025 0.951 . S
C5028 C5026 1.382 . S
C5028 C5029 1.390 . S
C5028 H5033 0.949 . S
C5029 C5028 1.390 . S
C5029 C5034 1.399 . S
C5030 C5026 1.404 . S
C5030 H5031 0.950 . S
C5030 C5032 1.375 . S
H5031 C5030 0.950 . S
C5032 C5030 1.375 . S
C5032 C5034 1.382 . S
C5032 H5036 0.950 . S
H5033 C5028 0.949 . S
C5034 C5029 1.399 . S
C5034 C5032 1.382 . S
C5034 H5035 0.952 . S
H5035 C5034 0.952 . S
H5036 C5032 0.950 . S
H5037 C5038 0.949 . S
C5038 H5037 0.949 . S
C5038 C5039 1.395 . S
C5038 C5040 1.391 . S
C5039 C5038 1.395 . S
C5039 C5042 1.390 . S
C5040 C5038 1.391 . S
C5040 C5044 1.387 . S
C5040 C5045 1.491 . S
H5041 C5042 0.950 . S
C5042 C5039 1.390 . S
C5042 H5041 0.950 . S
C5042 C5043 1.378 . S
C5043 C5042 1.378 . S
C5043 C5044 1.409 . S
C5044 C5040 1.387 . S
C5044 C5043 1.409 . S
C5044 H5046 0.951 . S
C5045 C5040 1.491 . S
C5045 C5047 1.382 . S
C5045 C5049 1.404 . S
H5046 C5044 0.951 . S
C5047 C5045 1.382 . S
C5047 C5048 1.390 . S
C5047 H5052 0.949 . S
C5048 C5047 1.390 . S
C5048 C5053 1.399 . S
C5049 C5045 1.404 . S
C5049 H5050 0.950 . S
C5049 C5051 1.375 . S
H5050 C5049 0.950 . S
C5051 C5049 1.375 . S
C5051 C5053 1.382 . S
C5051 H5055 0.950 . S
H5052 C5047 0.949 . S
C5053 C5048 1.399 . S
C5053 C5051 1.382 . S
C5053 H5054 0.952 . S
H5054 C5053 0.952 . S
H5055 C5051 0.950 . S
H5056 C5057 0.949 . S
C5057 H5056 0.949 . S
C5057 C5058 1.395 . S
C5057 C5059 1.391 . S
C5058 C5057 1.395 . S
C5058 C5061 1.390 . S
C5059 C5057 1.391 . S
C5059 C5063 1.387 . S
C5059 C5064 1.491 . S
H5060 C5061 0.950 . S
C5061 C5058 1.390 . S
C5061 H5060 0.950 . S
C5061 C5062 1.378 . S
C5062 C5061 1.378 . S
C5062 C5063 1.409 . S
C5063 C5059 1.387 . S
C5063 C5062 1.409 . S
C5063 H5065 0.951 . S
C5064 C5059 1.491 . S
C5064 C5066 1.382 . S
C5064 C5068 1.404 . S
H5065 C5063 0.951 . S
C5066 C5064 1.382 . S
C5066 C5067 1.390 . S
C5066 H5071 0.949 . S
C5067 C5066 1.390 . S
C5067 C5072 1.399 . S
C5068 C5064 1.404 . S
C5068 H5069 0.950 . S
C5068 C5070 1.375 . S
H5069 C5068 0.950 . S
C5070 C5068 1.375 . S
C5070 C5072 1.382 . S
C5070 H5074 0.950 . S
H5071 C5066 0.949 . S
C5072 C5067 1.399 . S
C5072 C5070 1.382 . S
C5072 H5073 0.952 . S
H5073 C5072 0.952 . S
H5074 C5070 0.950 . S
H5075 C5076 0.949 . S
C5076 H5075 0.949 . S
C5076 C5077 1.395 . S
C5076 C5078 1.391 . S
C5077 C5076 1.395 . S
C5077 C5080 1.390 . S
C5078 C5076 1.391 . S
C5078 C5082 1.387 . S
C5078 C5083 1.491 . S
H5079 C5080 0.950 . S
C5080 C5077 1.390 . S
C5080 H5079 0.950 . S
C5080 C5081 1.378 . S
C5081 C5080 1.378 . S
C5081 C5082 1.409 . S
C5082 C5078 1.387 . S
C5082 C5081 1.409 . S
C5082 H5084 0.951 . S
C5083 C5078 1.491 . S
C5083 C5085 1.382 . S
C5083 C5087 1.404 . S
H5084 C5082 0.951 . S
C5085 C5083 1.382 . S
C5085 C5086 1.390 . S
C5085 H5090 0.949 . S
C5086 C5085 1.390 . S
C5086 C5091 1.399 . S
C5087 C5083 1.404 . S
C5087 H5088 0.950 . S
C5087 C5089 1.375 . S
H5088 C5087 0.950 . S
C5089 C5087 1.375 . S
C5089 C5091 1.382 . S
C5089 H5093 0.950 . S
H5090 C5085 0.949 . S
C5091 C5086 1.399 . S
C5091 C5089 1.382 . S
C5091 H5092 0.952 . S
H5092 C5091 0.952 . S
H5093 C5089 0.950 . S
H5094 C5095 0.949 . S
C5095 H5094 0.949 . S
C5095 C5096 1.395 . S
C5095 C5097 1.391 . S
C5096 C5095 1.395 . S
C5096 C5099 1.390 . S
C5097 C5095 1.391 . S
C5097 C5101 1.387 . S
C5097 C5102 1.491 . S
H5098 C5099 0.950 . S
C5099 C5096 1.390 . S
C5099 H5098 0.950 . S
C5099 C5100 1.378 . S
C5100 C5099 1.378 . S
C5100 C5101 1.409 . S
C5101 C5097 1.387 . S
C5101 C5100 1.409 . S
C5101 H5103 0.951 . S
C5102 C5097 1.491 . S
C5102 C5104 1.382 . S
C5102 C5106 1.404 . S
H5103 C5101 0.951 . S
C5104 C5102 1.382 . S
C5104 C5105 1.378 1_565 S
C5104 H5109 0.949 . S
C5105 C5104 1.378 1_545 S
C5105 C5110 1.398 . S
C5106 C5102 1.404 . S
C5106 H5107 0.950 . S
C5106 C5108 1.375 . S
H5107 C5106 0.950 . S
C5108 C5106 1.375 . S
C5108 C5110 1.322 1_565 S
C5108 H5112 0.950 . S
H5109 C5104 0.949 . S
C5110 C5105 1.398 . S
C5110 C5108 1.322 1_545 S
C5110 H5111 1.018 . S
H5111 C5110 1.018 . S
H5112 C5108 0.950 . S
H5113 C5114 0.949 . S
C5114 H5113 0.949 . S
C5114 C5115 1.395 . S
C5114 C5116 1.391 . S
C5115 C5114 1.395 . S
C5115 C5118 1.390 . S
C5116 C5114 1.391 . S
C5116 C5120 1.387 . S
C5116 C5121 1.491 . S
H5117 C5118 0.950 . S
C5118 C5115 1.390 . S
C5118 H5117 0.950 . S
C5118 C5119 1.378 . S
C5119 C5118 1.378 . S
C5119 C5120 1.409 . S
C5120 C5116 1.387 . S
C5120 C5119 1.409 . S
C5120 H5122 0.951 . S
C5121 C5116 1.491 . S
C5121 C5123 1.382 . S
C5121 C5125 1.404 . S
H5122 C5120 0.951 . S
C5123 C5121 1.382 . S
C5123 C5124 1.390 . S
C5123 H5128 0.949 . S
C5124 C5123 1.390 . S
C5124 C5129 1.399 . S
C5125 C5121 1.404 . S
C5125 H5126 0.950 . S
C5125 C5127 1.375 . S
H5126 C5125 0.950 . S
C5127 C5125 1.375 . S
C5127 C5129 1.382 . S
C5127 H5131 0.950 . S
H5128 C5123 0.949 . S
C5129 C5124 1.399 . S
C5129 C5127 1.382 . S
C5129 H5130 0.952 . S
H5130 C5129 0.952 . S
H5131 C5127 0.950 . S
H5132 C5133 0.949 . S
C5133 H5132 0.949 . S
C5133 C5134 1.395 . S
C5133 C5135 1.391 . S
C5134 C5133 1.395 . S
C5134 C5137 1.390 . S
C5135 C5133 1.391 . S
C5135 C5139 1.387 . S
C5135 C5140 1.491 . S
H5136 C5137 0.950 . S
C5137 C5134 1.390 . S
C5137 H5136 0.950 . S
C5137 C5138 1.378 . S
C5138 C5137 1.378 . S
C5138 C5139 1.409 . S
C5139 C5135 1.387 . S
C5139 C5138 1.409 . S
C5139 H5141 0.951 . S
C5140 C5135 1.491 . S
C5140 C5142 1.382 . S
C5140 C5144 1.404 . S
H5141 C5139 0.951 . S
C5142 C5140 1.382 . S
C5142 C5143 1.390 . S
C5142 H5147 0.949 . S
C5143 C5142 1.390 . S
C5143 C5148 1.399 . S
C5144 C5140 1.404 . S
C5144 H5145 0.950 . S
C5144 C5146 1.375 . S
H5145 C5144 0.950 . S
C5146 C5144 1.375 . S
C5146 C5148 1.382 . S
C5146 H5150 0.950 . S
H5147 C5142 0.949 . S
C5148 C5143 1.399 . S
C5148 C5146 1.382 . S
C5148 H5149 0.952 . S
H5149 C5148 0.952 . S
H5150 C5146 0.950 . S
H5151 C5152 0.949 . S
C5152 H5151 0.949 . S
C5152 C5153 1.395 . S
C5152 C5154 1.391 . S
C5153 C5152 1.395 . S
C5153 C5156 1.390 . S
C5154 C5152 1.391 . S
C5154 C5158 1.387 . S
C5154 C5159 1.491 . S
H5155 C5156 0.950 . S
C5156 C5153 1.390 . S
C5156 H5155 0.950 . S
C5156 C5157 1.378 . S
C5157 C5156 1.378 . S
C5157 C5158 1.409 . S
C5158 C5154 1.387 . S
C5158 C5157 1.409 . S
C5158 H5160 0.951 . S
C5159 C5154 1.491 . S
C5159 C5161 1.382 . S
C5159 C5163 1.404 . S
H5160 C5158 0.951 . S
C5161 C5159 1.382 . S
C5161 C5162 1.390 . S
C5161 H5166 0.949 . S
C5162 C5161 1.390 . S
C5162 C5167 1.399 . S
C5163 C5159 1.404 . S
C5163 H5164 0.950 . S
C5163 C5165 1.375 . S
H5164 C5163 0.950 . S
C5165 C5163 1.375 . S
C5165 C5167 1.382 . S
C5165 H5169 0.950 . S
H5166 C5161 0.949 . S
C5167 C5162 1.399 . S
C5167 C5165 1.382 . S
C5167 H5168 0.952 . S
H5168 C5167 0.952 . S
H5169 C5165 0.950 . S
H5170 C5171 0.949 . S
C5171 H5170 0.949 . S
C5171 C5172 1.395 . S
C5171 C5173 1.391 . S
C5172 C5171 1.395 . S
C5172 C5175 1.390 . S
C5173 C5171 1.391 . S
C5173 C5177 1.387 . S
C5173 C5178 1.491 . S
H5174 C5175 0.950 . S
C5175 C5172 1.390 . S
C5175 H5174 0.950 . S
C5175 C5176 1.378 . S
C5176 C5175 1.378 . S
C5176 C5177 1.409 . S
C5177 C5173 1.387 . S
C5177 C5176 1.409 . S
C5177 H5179 0.951 . S
C5178 C5173 1.491 . S
C5178 C5180 1.382 . S
C5178 C5182 1.404 . S
H5179 C5177 0.951 . S
C5180 C5178 1.382 . S
C5180 C5181 1.382 1_545 S
C5180 H5185 0.949 . S
C5181 C5180 1.382 1_565 S
C5181 C5186 1.398 . S
C5182 C5178 1.404 . S
C5182 H5183 0.950 . S
C5182 C5184 1.375 . S
H5183 C5182 0.950 . S
C5184 C5182 1.375 . S
C5184 C5186 1.325 1_545 S
C5184 H5188 0.950 . S
H5185 C5180 0.949 . S
C5186 C5181 1.398 . S
C5186 C5184 1.325 1_565 S
C5186 H5187 1.014 . S
H5187 C5186 1.014 . S
H5188 C5184 0.950 . S
H5189 C5190 0.949 . S
C5190 H5189 0.949 . S
C5190 C5191 1.395 . S
C5190 C5192 1.391 . S
C5191 C5190 1.395 . S
C5191 C5194 1.390 . S
C5192 C5190 1.391 . S
C5192 C5196 1.387 . S
C5192 C5197 1.491 . S
H5193 C5194 0.950 . S
C5194 C5191 1.390 . S
C5194 H5193 0.950 . S
C5194 C5195 1.378 . S
C5195 C5194 1.378 . S
C5195 C5196 1.409 . S
C5196 C5192 1.387 . S
C5196 C5195 1.409 . S
C5196 H5198 0.951 . S
C5197 C5192 1.491 . S
C5197 C5199 1.382 . S
C5197 C5201 1.404 . S
H5198 C5196 0.951 . S
C5199 C5197 1.382 . S
C5199 C5200 1.381 1_565 S
C5199 H5204 0.949 . S
C5200 C5199 1.381 1_545 S
C5200 C5205 1.398 . S
C5201 C5197 1.404 . S
C5201 H5202 0.950 . S
C5201 C5203 1.375 . S
H5202 C5201 0.950 . S
C5203 C5201 1.375 . S
C5203 C5205 1.325 1_565 S
C5203 H5207 0.950 . S
H5204 C5199 0.949 . S
C5205 C5200 1.398 . S
C5205 C5203 1.325 1_545 S
C5205 H5206 1.015 . S
H5206 C5205 1.015 . S
H5207 C5203 0.950 . S
H5208 C5209 0.949 . S
C5209 H5208 0.949 . S
C5209 C5210 1.395 . S
C5209 C5211 1.391 . S
C5210 C5209 1.395 . S
C5210 C5213 1.390 . S
C5211 C5209 1.391 . S
C5211 C5215 1.387 . S
C5211 C5216 1.491 . S
H5212 C5213 0.950 . S
C5213 C5210 1.390 . S
C5213 H5212 0.950 . S
C5213 C5214 1.378 . S
C5214 C5213 1.378 . S
C5214 C5215 1.409 . S
C5215 C5211 1.387 . S
C5215 C5214 1.409 . S
C5215 H5217 0.951 . S
C5216 C5211 1.491 . S
C5216 C5218 1.382 . S
C5216 C5220 1.404 . S
H5217 C5215 0.951 . S
C5218 C5216 1.382 . S
C5218 C5219 1.390 . S
C5218 H5223 0.949 . S
C5219 C5218 1.390 . S
C5219 C5224 1.399 . S
C5220 C5216 1.404 . S
C5220 H5221 0.950 . S
C5220 C5222 1.375 . S
H5221 C5220 0.950 . S
C5222 C5220 1.375 . S
C5222 C5224 1.382 . S
C5222 H5226 0.950 . S
H5223 C5218 0.949 . S
C5224 C5219 1.399 . S
C5224 C5222 1.382 . S
C5224 H5225 0.952 . S
H5225 C5224 0.952 . S
H5226 C5222 0.950 . S
H5227 C5228 0.949 . S
C5228 H5227 0.949 . S
C5228 C5229 1.395 . S
C5228 C5230 1.391 . S
C5229 C5228 1.395 . S
C5229 C5232 1.390 . S
C5230 C5228 1.391 . S
C5230 C5234 1.387 . S
C5230 C5235 1.491 . S
H5231 C5232 0.950 . S
C5232 C5229 1.390 . S
C5232 H5231 0.950 . S
C5232 C5233 1.378 . S
C5233 C5232 1.378 . S
C5233 C5234 1.409 . S
C5234 C5230 1.387 . S
C5234 C5233 1.409 . S
C5234 H5236 0.951 . S
C5235 C5230 1.491 . S
C5235 C5237 1.382 . S
C5235 C5239 1.404 . S
H5236 C5234 0.951 . S
C5237 C5235 1.382 . S
C5237 C5238 1.390 . S
C5237 H5242 0.949 . S
C5238 C5237 1.390 . S
C5238 C5243 1.399 . S
C5239 C5235 1.404 . S
C5239 H5240 0.950 . S
C5239 C5241 1.375 . S
H5240 C5239 0.950 . S
C5241 C5239 1.375 . S
C5241 C5243 1.382 . S
C5241 H5245 0.950 . S
H5242 C5237 0.949 . S
C5243 C5238 1.399 . S
C5243 C5241 1.382 . S
C5243 H5244 0.952 . S
H5244 C5243 0.952 . S
H5245 C5241 0.950 . S
H5246 C5247 0.949 . S
C5247 H5246 0.949 . S
C5247 C5248 1.395 . S
C5247 C5249 1.391 . S
C5248 C5247 1.395 . S
C5248 C5251 1.390 . S
C5249 C5247 1.391 . S
C5249 C5253 1.387 . S
C5249 C5254 1.491 . S
H5250 C5251 0.950 . S
C5251 C5248 1.390 . S
C5251 H5250 0.950 . S
C5251 C5252 1.378 . S
C5252 C5251 1.378 . S
C5252 C5253 1.409 . S
C5253 C5249 1.387 . S
C5253 C5252 1.409 . S
C5253 H5255 0.951 . S
C5254 C5249 1.491 . S
C5254 C5256 1.382 . S
C5254 C5258 1.404 . S
H5255 C5253 0.951 . S
C5256 C5254 1.382 . S
C5256 C5257 1.390 . S
C5256 H5261 0.949 . S
C5257 C5256 1.390 . S
C5257 C5262 1.399 . S
C5258 C5254 1.404 . S
C5258 H5259 0.950 . S
C5258 C5260 1.375 . S
H5259 C5258 0.950 . S
C5260 C5258 1.375 . S
C5260 C5262 1.382 . S
C5260 H5264 0.950 . S
H5261 C5256 0.949 . S
C5262 C5257 1.399 . S
C5262 C5260 1.382 . S
C5262 H5263 0.952 . S
H5263 C5262 0.952 . S
H5264 C5260 0.950 . S
H5265 C5266 0.949 . S
C5266 H5265 0.949 . S
C5266 C5267 1.395 . S
C5266 C5268 1.391 . S
C5267 C5266 1.395 . S
C5267 C5270 1.390 . S
C5268 C5266 1.391 . S
C5268 C5272 1.387 . S
C5268 C5273 1.491 . S
H5269 C5270 0.950 . S
C5270 C5267 1.390 . S
C5270 H5269 0.950 . S
C5270 C5271 1.378 . S
C5271 C5270 1.378 . S
C5271 C5272 1.409 . S
C5272 C5268 1.387 . S
C5272 C5271 1.409 . S
C5272 H5274 0.951 . S
C5273 C5268 1.491 . S
C5273 C5275 1.382 . S
C5273 C5277 1.404 . S
H5274 C5272 0.951 . S
C5275 C5273 1.382 . S
C5275 C5276 1.390 1_455 S
C5275 H5280 0.949 . S
C5276 C5275 1.390 1_655 S
C5276 C5281 1.399 . S
C5277 C5273 1.404 . S
C5277 H5278 0.950 . S
C5277 C5279 1.375 1_455 S
H5278 C5277 0.950 . S
C5279 C5277 1.375 1_655 S
C5279 C5281 1.382 . S
C5279 H5283 0.950 . S
H5280 C5275 0.949 . S
C5281 C5276 1.399 . S
C5281 C5279 1.382 . S
C5281 H5282 0.952 . S
H5282 C5281 0.952 . S
H5283 C5279 0.950 . S
H5284 C5285 0.949 . S
C5285 H5284 0.949 . S
C5285 C5286 1.395 . S
C5285 C5287 1.391 . S
C5286 C5285 1.395 . S
C5286 C5289 1.390 . S
C5287 C5285 1.391 . S
C5287 C5291 1.387 . S
C5287 C5292 1.491 . S
H5288 C5289 0.950 . S
C5289 C5286 1.390 . S
C5289 H5288 0.950 . S
C5289 C5290 1.378 . S
C5290 C5289 1.378 . S
C5290 C5291 1.409 . S
C5291 C5287 1.387 . S
C5291 C5290 1.409 . S
C5291 H5293 0.951 . S
C5292 C5287 1.491 . S
C5292 C5294 1.382 . S
C5292 C5296 1.404 . S
H5293 C5291 0.951 . S
C5294 C5292 1.382 . S
C5294 C5295 1.390 . S
C5294 H5299 0.949 . S
C5295 C5294 1.390 . S
C5295 C5300 1.399 . S
C5296 C5292 1.404 . S
C5296 H5297 0.950 . S
C5296 C5298 1.375 . S
H5297 C5296 0.950 . S
C5298 C5296 1.375 . S
C5298 C5300 1.382 . S
C5298 H5302 0.950 . S
H5299 C5294 0.949 . S
C5300 C5295 1.399 . S
C5300 C5298 1.382 . S
C5300 H5301 0.952 . S
H5301 C5300 0.952 . S
H5302 C5298 0.950 . S
H5303 C5304 0.949 . S
C5304 H5303 0.949 . S
C5304 C5305 1.395 . S
C5304 C5306 1.391 . S
C5305 C5304 1.395 . S
C5305 C5308 1.390 . S
C5306 C5304 1.391 . S
C5306 C5310 1.387 . S
C5306 C5311 1.491 . S
H5307 C5308 0.950 . S
C5308 C5305 1.390 . S
C5308 H5307 0.950 . S
C5308 C5309 1.378 . S
C5309 C5308 1.378 . S
C5309 C5310 1.409 . S
C5310 C5306 1.387 . S
C5310 C5309 1.409 . S
C5310 H5312 0.951 . S
C5311 C5306 1.491 . S
C5311 C5313 1.382 . S
C5311 C5315 1.404 . S
H5312 C5310 0.951 . S
C5313 C5311 1.382 . S
C5313 C5314 1.390 1_455 S
C5313 H5318 0.949 . S
C5314 C5313 1.390 1_655 S
C5314 C5319 1.399 . S
C5315 C5311 1.404 . S
C5315 H5316 0.950 . S
C5315 C5317 1.375 1_455 S
H5316 C5315 0.950 . S
C5317 C5315 1.375 1_655 S
C5317 C5319 1.382 . S
C5317 H5321 0.950 . S
H5318 C5313 0.949 . S
C5319 C5314 1.399 . S
C5319 C5317 1.382 . S
C5319 H5320 0.952 . S
H5320 C5319 0.952 . S
H5321 C5317 0.950 . S
H5322 C5323 0.949 . S
C5323 H5322 0.949 . S
C5323 C5324 1.395 . S
C5323 C5325 1.391 . S
C5324 C5323 1.395 . S
C5324 C5327 1.390 . S
C5325 C5323 1.391 . S
C5325 C5329 1.387 . S
C5325 C5330 1.491 . S
H5326 C5327 0.950 . S
C5327 C5324 1.390 . S
C5327 H5326 0.950 . S
C5327 C5328 1.378 . S
C5328 C5327 1.378 . S
C5328 C5329 1.409 . S
C5329 C5325 1.387 . S
C5329 C5328 1.409 . S
C5329 H5331 0.951 . S
C5330 C5325 1.491 . S
C5330 C5332 1.382 . S
C5330 C5334 1.404 . S
H5331 C5329 0.951 . S
C5332 C5330 1.382 . S
C5332 C5333 1.390 . S
C5332 H5337 0.949 . S
C5333 C5332 1.390 . S
C5333 C5338 1.399 . S
C5334 C5330 1.404 . S
C5334 H5335 0.950 . S
C5334 C5336 1.375 . S
H5335 C5334 0.950 . S
C5336 C5334 1.375 . S
C5336 C5338 1.382 . S
C5336 H5340 0.950 . S
H5337 C5332 0.949 . S
C5338 C5333 1.399 . S
C5338 C5336 1.382 . S
C5338 H5339 0.952 . S
H5339 C5338 0.952 . S
H5340 C5336 0.950 . S
H5341 C5342 0.949 . S
C5342 H5341 0.949 . S
C5342 C5343 1.395 . S
C5342 C5344 1.391 . S
C5343 C5342 1.395 . S
C5343 C5346 1.390 . S
C5344 C5342 1.391 . S
C5344 C5348 1.387 . S
C5344 C5349 1.491 . S
H5345 C5346 0.950 . S
C5346 C5343 1.390 . S
C5346 H5345 0.950 . S
C5346 C5347 1.378 . S
C5347 C5346 1.378 . S
C5347 C5348 1.409 . S
C5348 C5344 1.387 . S
C5348 C5347 1.409 . S
C5348 H5350 0.951 . S
C5349 C5344 1.491 . S
C5349 C5351 1.382 . S
C5349 C5353 1.404 . S
H5350 C5348 0.951 . S
C5351 C5349 1.382 . S
C5351 C5352 1.390 . S
C5351 H5356 0.949 . S
C5352 C5351 1.390 . S
C5352 C5357 1.399 . S
C5353 C5349 1.404 . S
C5353 H5354 0.950 . S
C5353 C5355 1.375 . S
H5354 C5353 0.950 . S
C5355 C5353 1.375 . S
C5355 C5357 1.382 . S
C5355 H5359 0.950 . S
H5356 C5351 0.949 . S
C5357 C5352 1.399 . S
C5357 C5355 1.382 . S
C5357 H5358 0.952 . S
H5358 C5357 0.952 . S
H5359 C5355 0.950 . S
H5360 C5361 0.949 . S
C5361 H5360 0.949 . S
C5361 C5362 1.395 . S
C5361 C5363 1.391 . S
C5362 C5361 1.395 . S
C5362 C5365 1.390 . S
C5363 C5361 1.391 . S
C5363 C5367 1.387 . S
C5363 C5368 1.491 . S
H5364 C5365 0.950 . S
C5365 C5362 1.390 . S
C5365 H5364 0.950 . S
C5365 C5366 1.378 . S
C5366 C5365 1.378 . S
C5366 C5367 1.409 . S
C5367 C5363 1.387 . S
C5367 C5366 1.409 . S
C5367 H5369 0.951 . S
C5368 C5363 1.491 . S
C5368 C5370 1.382 . S
C5368 C5372 1.404 . S
H5369 C5367 0.951 . S
C5370 C5368 1.382 . S
C5370 C5371 1.390 . S
C5370 H5375 0.949 . S
C5371 C5370 1.390 . S
C5371 C5376 1.399 . S
C5372 C5368 1.404 . S
C5372 H5373 0.950 . S
C5372 C5374 1.375 . S
H5373 C5372 0.950 . S
C5374 C5372 1.375 . S
C5374 C5376 1.382 . S
C5374 H5378 0.950 . S
H5375 C5370 0.949 . S
C5376 C5371 1.399 . S
C5376 C5374 1.382 . S
C5376 H5377 0.952 . S
H5377 C5376 0.952 . S
H5378 C5374 0.950 . S
H5379 C5380 0.949 . S
C5380 H5379 0.949 . S
C5380 C5381 1.395 . S
C5380 C5382 1.391 . S
C5381 C5380 1.395 . S
C5381 C5384 1.390 . S
C5382 C5380 1.391 . S
C5382 C5386 1.387 . S
C5382 C5387 1.491 . S
H5383 C5384 0.950 . S
C5384 C5381 1.390 . S
C5384 H5383 0.950 . S
C5384 C5385 1.378 . S
C5385 C5384 1.378 . S
C5385 C5386 1.409 . S
C5386 C5382 1.387 . S
C5386 C5385 1.409 . S
C5386 H5388 0.951 . S
C5387 C5382 1.491 . S
C5387 C5389 1.382 . S
C5387 C5391 1.404 . S
H5388 C5386 0.951 . S
C5389 C5387 1.382 . S
C5389 C5390 1.390 1_554 S
C5389 H5394 0.949 . S
C5390 C5389 1.390 1_556 S
C5390 C5395 1.399 . S
C5391 C5387 1.404 . S
C5391 H5392 0.950 . S
C5391 C5393 1.375 1_554 S
H5392 C5391 0.950 . S
C5393 C5391 1.375 1_556 S
C5393 C5395 1.382 . S
C5393 H5397 0.950 . S
H5394 C5389 0.949 . S
C5395 C5390 1.399 . S
C5395 C5393 1.382 . S
C5395 H5396 0.952 . S
H5396 C5395 0.952 . S
H5397 C5393 0.950 . S
H5398 C5399 0.949 . S
C5399 H5398 0.949 . S
C5399 C5400 1.395 . S
C5399 C5401 1.391 . S
C5400 C5399 1.395 . S
C5400 C5403 1.390 . S
C5401 C5399 1.391 . S
C5401 C5405 1.387 . S
C5401 C5406 1.491 . S
H5402 C5403 0.950 . S
C5403 C5400 1.390 . S
C5403 H5402 0.950 . S
C5403 C5404 1.378 . S
C5404 C5403 1.378 . S
C5404 C5405 1.409 . S
C5405 C5401 1.387 . S
C5405 C5404 1.409 . S
C5405 H5407 0.951 . S
C5406 C5401 1.491 . S
C5406 C5408 1.382 . S
C5406 C5410 1.404 . S
H5407 C5405 0.951 . S
C5408 C5406 1.382 . S
C5408 C5409 1.390 . S
C5408 H5413 0.949 . S
C5409 C5408 1.390 . S
C5409 C5414 1.399 . S
C5410 C5406 1.404 . S
C5410 H5411 0.950 . S
C5410 C5412 1.375 . S
H5411 C5410 0.950 . S
C5412 C5410 1.375 . S
C5412 C5414 1.382 . S
C5412 H5416 0.950 . S
H5413 C5408 0.949 . S
C5414 C5409 1.399 . S
C5414 C5412 1.382 . S
C5414 H5415 0.952 . S
H5415 C5414 0.952 . S
H5416 C5412 0.950 . S
H5417 C5418 0.949 . S
C5418 H5417 0.949 . S
C5418 C5419 1.395 . S
C5418 C5420 1.391 . S
C5419 C5418 1.395 . S
C5419 C5422 1.390 . S
C5420 C5418 1.391 . S
C5420 C5424 1.387 . S
C5420 C5425 1.491 . S
H5421 C5422 0.950 . S
C5422 C5419 1.390 . S
C5422 H5421 0.950 . S
C5422 C5423 1.378 . S
C5423 C5422 1.378 . S
C5423 C5424 1.409 . S
C5424 C5420 1.387 . S
C5424 C5423 1.409 . S
C5424 H5426 0.951 . S
C5425 C5420 1.491 . S
C5425 C5427 1.382 . S
C5425 C5429 1.404 . S
H5426 C5424 0.951 . S
C5427 C5425 1.382 . S
C5427 C5428 1.390 . S
C5427 H5432 0.949 . S
C5428 C5427 1.390 . S
C5428 C5433 1.399 . S
C5429 C5425 1.404 . S
C5429 H5430 0.950 . S
C5429 C5431 1.375 . S
H5430 C5429 0.950 . S
C5431 C5429 1.375 . S
C5431 C5433 1.382 . S
C5431 H5435 0.950 . S
H5432 C5427 0.949 . S
C5433 C5428 1.399 . S
C5433 C5431 1.382 . S
C5433 H5434 0.952 . S
H5434 C5433 0.952 . S
H5435 C5431 0.950 . S
H5436 C5437 0.949 . S
C5437 H5436 0.949 . S
C5437 C5438 1.395 . S
C5437 C5439 1.391 . S
C5438 C5437 1.395 . S
C5438 C5441 1.390 . S
C5439 C5437 1.391 . S
C5439 C5443 1.387 . S
C5439 C5444 1.491 . S
H5440 C5441 0.950 . S
C5441 C5438 1.390 . S
C5441 H5440 0.950 . S
C5441 C5442 1.378 . S
C5442 C5441 1.378 . S
C5442 C5443 1.409 . S
C5443 C5439 1.387 . S
C5443 C5442 1.409 . S
C5443 H5445 0.951 . S
C5444 C5439 1.491 . S
C5444 C5446 1.382 . S
C5444 C5448 1.404 . S
H5445 C5443 0.951 . S
C5446 C5444 1.382 . S
C5446 C5447 1.390 . S
C5446 H5451 0.949 . S
C5447 C5446 1.390 . S
C5447 C5452 1.399 . S
C5448 C5444 1.404 . S
C5448 H5449 0.950 . S
C5448 C5450 1.375 . S
H5449 C5448 0.950 . S
C5450 C5448 1.375 . S
C5450 C5452 1.382 . S
C5450 H5454 0.950 . S
H5451 C5446 0.949 . S
C5452 C5447 1.399 . S
C5452 C5450 1.382 . S
C5452 H5453 0.952 . S
H5453 C5452 0.952 . S
H5454 C5450 0.950 . S
H5455 C5456 0.949 . S
C5456 H5455 0.949 . S
C5456 C5457 1.395 . S
C5456 C5458 1.391 . S
C5457 C5456 1.395 . S
C5457 C5460 1.390 . S
C5458 C5456 1.391 . S
C5458 C5462 1.387 . S
C5458 C5463 1.491 . S
H5459 C5460 0.950 . S
C5460 C5457 1.390 . S
C5460 H5459 0.950 . S
C5460 C5461 1.378 . S
C5461 C5460 1.378 . S
C5461 C5462 1.409 . S
C5462 C5458 1.387 . S
C5462 C5461 1.409 . S
C5462 H5464 0.951 . S
C5463 C5458 1.491 . S
C5463 C5465 1.382 . S
C5463 C5467 1.404 . S
H5464 C5462 0.951 . S
C5465 C5463 1.382 . S
C5465 C5466 1.390 1_556 S
C5465 H5470 0.949 . S
C5466 C5465 1.390 1_554 S
C5466 C5471 1.399 . S
C5467 C5463 1.404 . S
C5467 H5468 0.950 . S
C5467 C5469 1.375 1_556 S
H5468 C5467 0.950 . S
C5469 C5467 1.375 1_554 S
C5469 C5471 1.382 . S
C5469 H5473 0.950 . S
H5470 C5465 0.949 . S
C5471 C5466 1.399 . S
C5471 C5469 1.382 . S
C5471 H5472 0.952 . S
H5472 C5471 0.952 . S
H5473 C5469 0.950 . S
H5474 C5475 0.949 . S
C5475 H5474 0.949 . S
C5475 C5476 1.395 . S
C5475 C5477 1.391 . S
C5476 C5475 1.395 . S
C5476 C5479 1.390 . S
C5477 C5475 1.391 . S
C5477 C5481 1.387 . S
C5477 C5482 1.491 . S
H5478 C5479 0.950 . S
C5479 C5476 1.390 . S
C5479 H5478 0.950 . S
C5479 C5480 1.378 . S
C5480 C5479 1.378 . S
C5480 C5481 1.409 . S
C5481 C5477 1.387 . S
C5481 C5480 1.409 . S
C5481 H5483 0.951 . S
C5482 C5477 1.491 . S
C5482 C5484 1.382 . S
C5482 C5486 1.404 . S
H5483 C5481 0.951 . S
C5484 C5482 1.382 . S
C5484 C5485 1.390 . S
C5484 H5489 0.949 . S
C5485 C5484 1.390 . S
C5485 C5490 1.399 . S
C5486 C5482 1.404 . S
C5486 H5487 0.950 . S
C5486 C5488 1.375 . S
H5487 C5486 0.950 . S
C5488 C5486 1.375 . S
C5488 C5490 1.382 . S
C5488 H5492 0.950 . S
H5489 C5484 0.949 . S
C5490 C5485 1.399 . S
C5490 C5488 1.382 . S
C5490 H5491 0.952 . S
H5491 C5490 0.952 . S
H5492 C5488 0.950 . S
H5493 C5494 0.949 . S
C5494 H5493 0.949 . S
C5494 C5495 1.395 . S
C5494 C5496 1.391 . S
C5495 C5494 1.395 . S
C5495 C5498 1.390 . S
C5496 C5494 1.391 . S
C5496 C5500 1.387 . S
C5496 C5501 1.491 . S
H5497 C5498 0.950 . S
C5498 C5495 1.390 . S
C5498 H5497 0.950 . S
C5498 C5499 1.378 . S
C5499 C5498 1.378 . S
C5499 C5500 1.409 . S
C5500 C5496 1.387 . S
C5500 C5499 1.409 . S
C5500 H5502 0.951 . S
C5501 C5496 1.491 . S
C5501 C5503 1.382 . S
C5501 C5505 1.404 . S
H5502 C5500 0.951 . S
C5503 C5501 1.382 . S
C5503 C5504 1.390 . S
C5503 H5508 0.949 . S
C5504 C5503 1.390 . S
C5504 C5509 1.399 . S
C5505 C5501 1.404 . S
C5505 H5506 0.950 . S
C5505 C5507 1.375 . S
H5506 C5505 0.950 . S
C5507 C5505 1.375 . S
C5507 C5509 1.382 . S
C5507 H5511 0.950 . S
H5508 C5503 0.949 . S
C5509 C5504 1.399 . S
C5509 C5507 1.382 . S
C5509 H5510 0.952 . S
H5510 C5509 0.952 . S
H5511 C5507 0.950 . S
H5512 C5513 0.949 . S
C5513 H5512 0.949 . S
C5513 C5514 1.395 . S
C5513 C5515 1.391 . S
C5514 C5513 1.395 . S
C5514 C5517 1.390 . S
C5515 C5513 1.391 . S
C5515 C5519 1.387 . S
C5515 C5520 1.491 . S
H5516 C5517 0.950 . S
C5517 C5514 1.390 . S
C5517 H5516 0.950 . S
C5517 C5518 1.378 . S
C5518 C5517 1.378 . S
C5518 C5519 1.409 . S
C5519 C5515 1.387 . S
C5519 C5518 1.409 . S
C5519 H5521 0.951 . S
C5520 C5515 1.491 . S
C5520 C5522 1.382 . S
C5520 C5524 1.404 . S
H5521 C5519 0.951 . S
C5522 C5520 1.382 . S
C5522 C5523 1.390 . S
C5522 H5527 0.949 . S
C5523 C5522 1.390 . S
C5523 C5528 1.399 . S
C5524 C5520 1.404 . S
C5524 H5525 0.950 . S
C5524 C5526 1.375 . S
H5525 C5524 0.950 . S
C5526 C5524 1.375 . S
C5526 C5528 1.382 . S
C5526 H5530 0.950 . S
H5527 C5522 0.949 . S
C5528 C5523 1.399 . S
C5528 C5526 1.382 . S
C5528 H5529 0.952 . S
H5529 C5528 0.952 . S
H5530 C5526 0.950 . S
H5531 C5532 0.949 . S
C5532 H5531 0.949 . S
C5532 C5533 1.395 . S
C5532 C5534 1.391 . S
C5533 C5532 1.395 . S
C5533 C5536 1.390 . S
C5534 C5532 1.391 . S
C5534 C5538 1.387 . S
C5534 C5539 1.491 . S
H5535 C5536 0.950 . S
C5536 C5533 1.390 . S
C5536 H5535 0.950 . S
C5536 C5537 1.378 . S
C5537 C5536 1.378 . S
C5537 C5538 1.409 . S
C5538 C5534 1.387 . S
C5538 C5537 1.409 . S
C5538 H5540 0.951 . S
C5539 C5534 1.491 . S
C5539 C5541 1.382 . S
C5539 C5543 1.404 . S
H5540 C5538 0.951 . S
C5541 C5539 1.382 . S
C5541 C5542 1.390 . S
C5541 H5546 0.949 . S
C5542 C5541 1.390 . S
C5542 C5547 1.399 . S
C5543 C5539 1.404 . S
C5543 H5544 0.950 . S
C5543 C5545 1.375 . S
H5544 C5543 0.950 . S
C5545 C5543 1.375 . S
C5545 C5547 1.382 . S
C5545 H5549 0.950 . S
H5546 C5541 0.949 . S
C5547 C5542 1.399 . S
C5547 C5545 1.382 . S
C5547 H5548 0.952 . S
H5548 C5547 0.952 . S
H5549 C5545 0.950 . S
H5550 C5551 0.949 . S
C5551 H5550 0.949 . S
C5551 C5552 1.395 . S
C5551 C5553 1.391 . S
C5552 C5551 1.395 . S
C5552 C5555 1.390 . S
C5553 C5551 1.391 . S
C5553 C5557 1.387 . S
C5553 C5558 1.491 . S
H5554 C5555 0.950 . S
C5555 C5552 1.390 . S
C5555 H5554 0.950 . S
C5555 C5556 1.378 . S
C5556 C5555 1.378 . S
C5556 C5557 1.409 . S
C5557 C5553 1.387 . S
C5557 C5556 1.409 . S
C5557 H5559 0.951 . S
C5558 C5553 1.491 . S
C5558 C5560 1.382 . S
C5558 C5562 1.404 . S
H5559 C5557 0.951 . S
C5560 C5558 1.382 . S
C5560 C5561 1.390 1_545 S
C5560 H5565 0.949 . S
C5561 C5560 1.390 1_565 S
C5561 C5566 1.399 . S
C5562 C5558 1.404 . S
C5562 H5563 0.950 . S
C5562 C5564 1.375 1_545 S
H5563 C5562 0.950 . S
C5564 C5562 1.375 1_565 S
C5564 C5566 1.382 . S
C5564 H5568 0.950 . S
H5565 C5560 0.949 . S
C5566 C5561 1.399 . S
C5566 C5564 1.382 . S
C5566 H5567 0.952 . S
H5567 C5566 0.952 . S
H5568 C5564 0.950 . S
H5569 C5570 0.949 . S
C5570 H5569 0.949 . S
C5570 C5571 1.395 . S
C5570 C5572 1.391 . S
C5571 C5570 1.395 . S
C5571 C5574 1.390 . S
C5572 C5570 1.391 . S
C5572 C5576 1.387 . S
C5572 C5577 1.491 . S
H5573 C5574 0.950 . S
C5574 C5571 1.390 . S
C5574 H5573 0.950 . S
C5574 C5575 1.378 . S
C5575 C5574 1.378 . S
C5575 C5576 1.409 . S
C5576 C5572 1.387 . S
C5576 C5575 1.409 . S
C5576 H5578 0.951 . S
C5577 C5572 1.491 . S
C5577 C5579 1.382 . S
C5577 C5581 1.404 . S
H5578 C5576 0.951 . S
C5579 C5577 1.382 . S
C5579 C5580 1.390 . S
C5579 H5584 0.949 . S
C5580 C5579 1.390 . S
C5580 C5585 1.399 . S
C5581 C5577 1.404 . S
C5581 H5582 0.950 . S
C5581 C5583 1.375 . S
H5582 C5581 0.950 . S
C5583 C5581 1.375 . S
C5583 C5585 1.382 . S
C5583 H5587 0.950 . S
H5584 C5579 0.949 . S
C5585 C5580 1.399 . S
C5585 C5583 1.382 . S
C5585 H5586 0.952 . S
H5586 C5585 0.952 . S
H5587 C5583 0.950 . S
H5588 C5589 0.949 . S
C5589 H5588 0.949 . S
C5589 C5590 1.395 . S
C5589 C5591 1.391 . S
C5590 C5589 1.395 . S
C5590 C5593 1.390 . S
C5591 C5589 1.391 . S
C5591 C5595 1.387 . S
C5591 C5596 1.491 . S
H5592 C5593 0.950 . S
C5593 C5590 1.390 . S
C5593 H5592 0.950 . S
C5593 C5594 1.378 . S
C5594 C5593 1.378 . S
C5594 C5595 1.409 . S
C5595 C5591 1.387 . S
C5595 C5594 1.409 . S
C5595 H5597 0.951 . S
C5596 C5591 1.491 . S
C5596 C5598 1.382 . S
C5596 C5600 1.404 . S
H5597 C5595 0.951 . S
C5598 C5596 1.382 . S
C5598 C5599 1.390 . S
C5598 H5603 0.949 . S
C5599 C5598 1.390 . S
C5599 C5604 1.399 . S
C5600 C5596 1.404 . S
C5600 H5601 0.950 . S
C5600 C5602 1.375 . S
H5601 C5600 0.950 . S
C5602 C5600 1.375 . S
C5602 C5604 1.382 . S
C5602 H5606 0.950 . S
H5603 C5598 0.949 . S
C5604 C5599 1.399 . S
C5604 C5602 1.382 . S
C5604 H5605 0.952 . S
H5605 C5604 0.952 . S
H5606 C5602 0.950 . S
H5607 C5608 0.949 . S
C5608 H5607 0.949 . S
C5608 C5609 1.395 . S
C5608 C5610 1.391 . S
C5609 C5608 1.395 . S
C5609 C5612 1.390 . S
C5610 C5608 1.391 . S
C5610 C5614 1.387 . S
C5610 C5615 1.491 . S
H5611 C5612 0.950 . S
C5612 C5609 1.390 . S
C5612 H5611 0.950 . S
C5612 C5613 1.378 . S
C5613 C5612 1.378 . S
C5613 C5614 1.409 . S
C5614 C5610 1.387 . S
C5614 C5613 1.409 . S
C5614 H5616 0.951 . S
C5615 C5610 1.491 . S
C5615 C5617 1.382 . S
C5615 C5619 1.404 . S
H5616 C5614 0.951 . S
C5617 C5615 1.382 . S
C5617 C5618 1.390 . S
C5617 H5622 0.949 . S
C5618 C5617 1.390 . S
C5618 C5623 1.399 . S
C5619 C5615 1.404 . S
C5619 H5620 0.950 . S
C5619 C5621 1.375 . S
H5620 C5619 0.950 . S
C5621 C5619 1.375 . S
C5621 C5623 1.382 . S
C5621 H5625 0.950 . S
H5622 C5617 0.949 . S
C5623 C5618 1.399 . S
C5623 C5621 1.382 . S
C5623 H5624 0.952 . S
H5624 C5623 0.952 . S
H5625 C5621 0.950 . S
H5626 C5627 0.949 . S
C5627 H5626 0.949 . S
C5627 C5628 1.395 . S
C5627 C5629 1.391 . S
C5628 C5627 1.395 . S
C5628 C5631 1.390 . S
C5629 C5627 1.391 . S
C5629 C5633 1.387 . S
C5629 C5634 1.491 . S
H5630 C5631 0.950 . S
C5631 C5628 1.390 . S
C5631 H5630 0.950 . S
C5631 C5632 1.378 . S
C5632 C5631 1.378 . S
C5632 C5633 1.409 . S
C5633 C5629 1.387 . S
C5633 C5632 1.409 . S
C5633 H5635 0.951 . S
C5634 C5629 1.491 . S
C5634 C5636 1.382 . S
C5634 C5638 1.404 . S
H5635 C5633 0.951 . S
C5636 C5634 1.382 . S
C5636 C5637 1.390 1_565 S
C5636 H5641 0.949 . S
C5637 C5636 1.390 1_545 S
C5637 C5642 1.399 . S
C5638 C5634 1.404 . S
C5638 H5639 0.950 . S
C5638 C5640 1.375 1_565 S
H5639 C5638 0.950 . S
C5640 C5638 1.375 1_545 S
C5640 C5642 1.382 . S
C5640 H5644 0.950 . S
H5641 C5636 0.949 . S
C5642 C5637 1.399 . S
C5642 C5640 1.382 . S
C5642 H5643 0.952 . S
H5643 C5642 0.952 . S
H5644 C5640 0.950 . S
H5645 C5646 0.949 . S
C5646 H5645 0.949 . S
C5646 C5647 1.395 . S
C5646 C5648 1.391 . S
C5647 C5646 1.395 . S
C5647 C5650 1.390 . S
C5648 C5646 1.391 . S
C5648 C5652 1.387 . S
C5648 C5653 1.491 . S
H5649 C5650 0.950 . S
C5650 C5647 1.390 . S
C5650 H5649 0.950 . S
C5650 C5651 1.378 . S
C5651 C5650 1.378 . S
C5651 C5652 1.409 . S
C5652 C5648 1.387 . S
C5652 C5651 1.409 . S
C5652 H5654 0.951 . S
C5653 C5648 1.491 . S
C5653 C5655 1.382 . S
C5653 C5657 1.404 . S
H5654 C5652 0.951 . S
C5655 C5653 1.382 . S
C5655 C5656 1.390 1_545 S
C5655 H5660 0.949 . S
C5656 C5655 1.390 1_565 S
C5656 C5661 1.399 . S
C5657 C5653 1.404 . S
C5657 H5658 0.950 . S
C5657 C5659 1.375 1_545 S
H5658 C5657 0.950 . S
C5659 C5657 1.375 1_565 S
C5659 C5661 1.382 . S
C5659 H5663 0.950 . S
H5660 C5655 0.949 . S
C5661 C5656 1.399 . S
C5661 C5659 1.382 . S
C5661 H5662 0.952 . S
H5662 C5661 0.952 . S
H5663 C5659 0.950 . S
C4326 C15 1.588 . S
C5257 C55 1.585 . S
C4364 C95 1.587 . S
C5219 C135 1.584 . S
C4440 C175 1.584 . S
C215 C5295 1.587 . S
C4402 C255 1.585 . S
C5333 C295 1.588 . S
C5637 C335 1.587 . S
C375 C5523 1.585 . S
C5656 C415 1.586 . S
C455 C5618 1.585 . S
C5561 C495 1.585 . S
C4668 C535 1.586 . S
C4687 C575 1.585 . S
C615 C4630 1.587 . S
C655 C5466 1.587 . S
C4516 C695 1.586 . S
C5371 C735 1.585 . S
C4478 C775 1.586 . S
C815 C4497 1.587 . S
C5504 C855 1.585 . S
C5447 C895 1.586 . S
C935 C5485 1.586 . S
C975 C3870 1.775 . S
C1015 C4801 1.765 . S
C3908 C1055 1.766 . S
C1095 C4763 1.764 . S
C3984 C1135 1.776 . S
C1175 C4839 1.766 . S
C3946 C1215 1.765 . S
C4877 C1255 1.766 . S
C1295 C5181 1.774 . S
C5067 C1335 1.765 . S
C1375 C5200 1.774 . S
C5162 C1415 1.765 . S
C5105 C1455 1.777 . S
C1495 C4212 1.765 . S
C1535 C4231 1.777 . S
C4174 C1575 1.766 . S
C1615 C5010 1.774 . S
C4060 C1655 1.775 . S
C1695 C4915 1.765 . S
C4022 C1735 1.766 . S
C1775 C4041 1.766 . S
C5048 C1815 1.765 . S
C4991 C1855 1.765 . S
C5029 C1895 1.766 . S
C1935 C5238 1.588 . S
C4345 C1975 1.585 . S
C5276 C2015 1.587 . S
C4307 C2055 1.584 . S
C2095 C5352 1.584 . S
C4383 C2135 1.587 . S
C5314 C2175 1.585 . S
C4421 C2215 1.588 . S
C2255 C4725 1.587 . S
C4611 C2295 1.585 . S
C4744 C2335 1.586 . S
C2375 C4706 1.585 . S
C2415 C4649 1.585 . S
C2455 C5580 1.586 . S
C2495 C5599 1.585 . S
C5542 C2535 1.587 . S
C2575 C4554 1.587 . S
C5428 C2615 1.586 . S
C4459 C2655 1.585 . S
C5390 C2695 1.586 . S
C2735 C5409 1.587 . S
C2775 C4592 1.585 . S
C4535 C2815 1.586 . S
C2855 C4573 1.586 . S
C2895 C4782 1.766 . S
C3889 C2935 1.765 . S
C4820 C2975 1.776 . S
C3015 C3851 1.764 . S
C4896 C3055 1.764 . S
C3927 C3095 1.766 . S
C3135 C4858 1.774 . S
C3175 C3965 1.766 . S
C4269 C3215 1.766 . S
C3255 C4155 1.765 . S
C4288 C3295 1.765 . S
C4250 C3335 1.765 . S
C3375 C4193 1.765 . S
C3415 C5124 1.765 . S
C5143 C3455 1.765 . S
C3495 C5086 1.766 . S
C4098 C3535 1.766 . S
C4972 C3575 1.765 . S
C3615 C4003 1.765 . S
C3655 C4934 1.776 . S
C3695 C4953 1.766 . S
C3735 C4136 1.776 . S
C3775 C4079 1.765 . S
C4117 C3815 1.766 . S
C4017 C2 1.764 . S
C4036 C42 1.762 . S
C82 C4055 1.764 . S
C122 C3998 1.761 . S
C162 C4131 1.761 . S
C4074 C202 1.764 . S
C4093 C242 1.762 . S
C282 C4112 1.764 . S
C322 C3903 1.764 . S
C362 C3846 1.761 . S
C402 C3865 1.763 . S
C3884 C442 1.762 . S
C482 C3941 1.762 . S
C522 C3960 1.763 . S
C562 C3979 1.761 . S
C602 C3922 1.764 . S
C4188 C642 1.763 . S
C682 C5176 1.763 . S
C4150 C722 1.761 . S
C5195 C762 1.763 . S
C802 C5157 1.763 . S
C842 C5138 1.761 . S
C5081 C882 1.763 . S
C5119 C922 1.763 . S
C4473 C962 1.966 . S
C4492 C1002 1.963 . S
C4511 C1042 1.965 . S
C1082 C4454 1.961 . S
C1122 C4587 1.961 . S
C4530 C1162 1.965 . S
C1202 C4549 1.963 . S
C4568 C1242 1.966 . S
C1282 C4359 1.966 . S
C4302 C1322 1.962 . S
C1362 C4321 1.965 . S
C4340 C1402 1.963 . S
C4397 C1442 1.963 . S
C1482 C4416 1.965 . S
C4435 C1522 1.962 . S
C4378 C1562 1.966 . S
C4644 C1602 1.965 . S
C5632 C1642 1.964 . S
C4606 C1682 1.962 . S
C1722 C5651 1.964 . S
C1762 C5613 1.965 . S
C5594 C1802 1.962 . S
C5537 C1842 1.964 . S
C5575 C1882 1.964 . S
C1922 C4929 1.764 . S
C4948 C1962 1.762 . S
C2002 C4967 1.764 . S
C4910 C2042 1.761 . S
C2082 C5043 1.761 . S
C2122 C4986 1.764 . S
C2162 C5005 1.762 . S
C2202 C5024 1.764 . S
C2242 C4815 1.764 . S
C4758 C2282 1.761 . S
C4777 C2322 1.763 . S
C2362 C4796 1.762 . S
C2402 C4853 1.762 . S
C2442 C4872 1.763 . S
C2482 C4891 1.761 . S
C2522 C4834 1.764 . S
C5100 C2562 1.763 . S
C4264 C2602 1.763 . S
C5062 C2642 1.761 . S
C4283 C2682 1.763 . S
C4245 C2722 1.763 . S
C4226 C2762 1.761 . S
C2802 C4169 1.763 . S
C4207 C2842 1.763 . S
C2882 C5385 1.966 . S
C2922 C5404 1.963 . S
C5423 C2962 1.965 . S
C3002 C5366 1.961 . S
C5499 C3042 1.961 . S
C3082 C5442 1.965 . S
C3122 C5461 1.963 . S
C5480 C3162 1.966 . S
C5271 C3202 1.966 . S
C5214 C3242 1.962 . S
C5233 C3282 1.965 . S
C5252 C3322 1.963 . S
C3362 C5309 1.963 . S
C5328 C3402 1.965 . S
C3442 C5347 1.962 . S
C3482 C5290 1.966 . S
C3522 C5556 1.965 . S
C3562 C4720 1.964 . S
C3602 C5518 1.962 . S
C4739 C3642 1.964 . S
C3682 C4701 1.965 . S
C3722 C4682 1.962 . S
C3762 C4625 1.964 . S
C4663 C3802 1.964 . S
C21 C3842 1.862 . S
C61 C3861 1.858 . S
C101 C3880 1.861 . S
C3899 C141 1.857 . S
C3918 C181 1.857 . S
C221 C3937 1.861 . S
C261 C3956 1.858 . S
C301 C3975 1.862 . S
C3994 C341 1.862 . S
C4013 C381 1.857 . S
C421 C4032 1.860 . S
C4051 C461 1.859 . S
C501 C4070 1.859 . S
C541 C4089 1.860 . S
C581 C4108 1.857 . S
C621 C4127 1.862 . S
C661 C4146 1.861 . S
C701 C4165 1.860 . S
C4184 C741 1.858 . S
C4203 C781 1.860 . S
C4222 C821 1.861 . S
C4241 C861 1.858 . S
C901 C4260 1.860 . S
C4279 C941 1.860 . S
C981 C4298 2.106 . S
C1021 C4317 2.102 . S
C1061 C4336 2.105 . S
C4355 C1101 2.101 . S
C1141 C4374 2.101 . S
C4393 C1181 2.105 . S
C1221 C4412 2.102 . S
C1261 C4431 2.106 . S
C4450 C1301 2.106 . S
C1341 C4469 2.101 . S
C4488 C1381 2.104 . S
C1421 C4507 2.102 . S
C4526 C1461 2.102 . S
C4545 C1501 2.104 . S
C4564 C1541 2.101 . S
C1581 C4583 2.106 . S
C1621 C4602 2.104 . S
C1661 C4621 2.104 . S
C1701 C4640 2.102 . S
C1741 C4659 2.104 . S
C1781 C4678 2.104 . S
C4697 C1821 2.102 . S
C1861 C4716 2.104 . S
C4735 C1901 2.104 . S
C1941 C4754 1.862 . S
C4773 C1981 1.858 . S
C4792 C2021 1.861 . S
C4811 C2061 1.857 . S
C2101 C4830 1.857 . S
C2141 C4849 1.861 . S
C4868 C2181 1.858 . S
C4887 C2221 1.862 . S
C2261 C4906 1.862 . S
C2301 C4925 1.857 . S
C2341 C4944 1.860 . S
C2381 C4963 1.859 . S
C2421 C4982 1.859 . S
C5001 C2461 1.860 . S
C5020 C2501 1.857 . S
C5039 C2541 1.862 . S
C5058 C2581 1.861 . S
C2621 C5077 1.860 . S
C2661 C5096 1.858 . S
C5115 C2701 1.860 . S
C2741 C5134 1.861 . S
C5153 C2781 1.858 . S
C5172 C2821 1.860 . S
C5191 C2861 1.860 . S
C2901 C5210 2.106 . S
C2941 C5229 2.102 . S
C2981 C5248 2.105 . S
C3021 C5267 2.101 . S
C5286 C3061 2.101 . S
C5305 C3101 2.105 . S
C5324 C3141 2.102 . S
C3181 C5343 2.106 . S
C3221 C5362 2.106 . S
C5381 C3261 2.101 . S
C5400 C3301 2.104 . S
C5419 C3341 2.102 . S
C5438 C3381 2.102 . S
C5457 C3421 2.104 . S
C5476 C3461 2.101 . S
C5495 C3501 2.106 . S
C5514 C3541 2.104 . S
C5533 C3581 2.104 . S
C5552 C3621 2.102 . S
C3661 C5571 2.104 . S
C5590 C3701 2.104 . S
C3741 C5609 2.102 . S
C5628 C3781 2.104 . S
C5647 C3821 2.104 . S
