# Generated by pormake.
# Topology ssb, (4,4)-cn, num edge types: 1
# Building blocks:
#     Node 0, Type 0, BuildingBlock: KUFVIS_clean_linker_0, # of connection points: 4
#     Node 1, Type 0, BuildingBlock: KUFVIS_clean_linker_0, # of connection points: 4
#     Node 2, Type 0, BuildingBlock: KUFVIS_clean_linker_0, # of connection points: 4
#     Node 3, Type 0, BuildingBlock: KUFVIS_clean_linker_0, # of connection points: 4
#     Node 4, Type 0, BuildingBlock: KUFVIS_clean_linker_0, # of connection points: 4
#     Node 5, Type 0, BuildingBlock: KUFVIS_clean_linker_0, # of connection points: 4
#     Node 6, Type 0, BuildingBlock: KUFVIS_clean_linker_0, # of connection points: 4
#     Node 7, Type 0, BuildingBlock: KUFVIS_clean_linker_0, # of connection points: 4
#     Node 8, Type 1, BuildingBlock: NAWXER_clean_sbu_0, # of connection points: 4
#     Node 9, Type 1, BuildingBlock: NAWXER_clean_sbu_0, # of connection points: 4
#     Node 10, Type 1, BuildingBlock: NAWXER_clean_sbu_0, # of connection points: 4
#     Node 11, Type 1, BuildingBlock: NAWXER_clean_sbu_0, # of connection points: 4
#     Node 12, Type 1, BuildingBlock: NAWXER_clean_sbu_0, # of connection points: 4
#     Node 13, Type 1, BuildingBlock: NAWXER_clean_sbu_0, # of connection points: 4
#     Node 14, Type 1, BuildingBlock: NAWXER_clean_sbu_0, # of connection points: 4
#     Node 15, Type 1, BuildingBlock: NAWXER_clean_sbu_0, # of connection points: 4
#     Edge 16, Type (0, 1), BuildingBlock: UVAHIK_clean_linker_0, # of connection points: 2
#     Edge 17, Type (0, 1), BuildingBlock: UVAHIK_clean_linker_0, # of connection points: 2
#     Edge 18, Type (0, 1), BuildingBlock: UVAHIK_clean_linker_0, # of connection points: 2
#     Edge 19, Type (0, 1), BuildingBlock: UVAHIK_clean_linker_0, # of connection points: 2
#     Edge 20, Type (0, 1), BuildingBlock: UVAHIK_clean_linker_0, # of connection points: 2
#     Edge 21, Type (0, 1), BuildingBlock: UVAHIK_clean_linker_0, # of connection points: 2
#     Edge 22, Type (0, 1), BuildingBlock: UVAHIK_clean_linker_0, # of connection points: 2
#     Edge 23, Type (0, 1), BuildingBlock: UVAHIK_clean_linker_0, # of connection points: 2
#     Edge 24, Type (0, 1), BuildingBlock: UVAHIK_clean_linker_0, # of connection points: 2
#     Edge 25, Type (0, 1), BuildingBlock: UVAHIK_clean_linker_0, # of connection points: 2
#     Edge 26, Type (0, 1), BuildingBlock: UVAHIK_clean_linker_0, # of connection points: 2
#     Edge 27, Type (0, 1), BuildingBlock: UVAHIK_clean_linker_0, # of connection points: 2
#     Edge 28, Type (0, 1), BuildingBlock: UVAHIK_clean_linker_0, # of connection points: 2
#     Edge 29, Type (0, 1), BuildingBlock: UVAHIK_clean_linker_0, # of connection points: 2
#     Edge 30, Type (0, 1), BuildingBlock: UVAHIK_clean_linker_0, # of connection points: 2
#     Edge 31, Type (0, 1), BuildingBlock: UVAHIK_clean_linker_0, # of connection points: 2
#     Edge 32, Type (0, 1), BuildingBlock: UVAHIK_clean_linker_0, # of connection points: 2
#     Edge 33, Type (0, 1), BuildingBlock: UVAHIK_clean_linker_0, # of connection points: 2
#     Edge 34, Type (0, 1), BuildingBlock: UVAHIK_clean_linker_0, # of connection points: 2
#     Edge 35, Type (0, 1), BuildingBlock: UVAHIK_clean_linker_0, # of connection points: 2
#     Edge 36, Type (0, 1), BuildingBlock: UVAHIK_clean_linker_0, # of connection points: 2
#     Edge 37, Type (0, 1), BuildingBlock: UVAHIK_clean_linker_0, # of connection points: 2
#     Edge 38, Type (0, 1), BuildingBlock: UVAHIK_clean_linker_0, # of connection points: 2
#     Edge 39, Type (0, 1), BuildingBlock: UVAHIK_clean_linker_0, # of connection points: 2
#     Edge 40, Type (0, 1), BuildingBlock: UVAHIK_clean_linker_0, # of connection points: 2
#     Edge 41, Type (0, 1), BuildingBlock: UVAHIK_clean_linker_0, # of connection points: 2
#     Edge 42, Type (0, 1), BuildingBlock: UVAHIK_clean_linker_0, # of connection points: 2
#     Edge 43, Type (0, 1), BuildingBlock: UVAHIK_clean_linker_0, # of connection points: 2
#     Edge 44, Type (0, 1), BuildingBlock: UVAHIK_clean_linker_0, # of connection points: 2
#     Edge 45, Type (0, 1), BuildingBlock: UVAHIK_clean_linker_0, # of connection points: 2
#     Edge 46, Type (0, 1), BuildingBlock: UVAHIK_clean_linker_0, # of connection points: 2
#     Edge 47, Type (0, 1), BuildingBlock: UVAHIK_clean_linker_0, # of connection points: 2
# Relax obj value: 0.000
# Max RMSD: 0.051
# Mean RMSD: 0.025
data_MOF--net-ssb--node1-NAWXER_clean_sbu_0--node2-KUFVIS_clean_linker_0--edge1-UVAHIK_clean_linker_0
_symmetry_space_group_name_H-M    P1
_symmetry_Int_Tables_number       1
_symmetry_cell_setting            triclinic
loop_
_symmetry_equiv_pos_as_xyz
'x, y, z'
_cell_length_a     59.316413
_cell_length_b     59.26394
_cell_length_c     50.61602
_cell_angle_alpha  89.713062
_cell_angle_beta   89.977573
_cell_angle_gamma 90.009476
loop_
_atom_site_label
_atom_site_type_symbol
_atom_site_fract_x
_atom_site_fract_y
_atom_site_fract_z
_atom_type_partial_charge
H0 H 0.20156 0.20806 0.32295 0.0
H1 H 0.24267 0.20103 0.25443 0.0
H2 H 0.20345 0.26212 0.26684 0.0
H3 H 0.21005 0.26941 0.22588 0.0
H4 H 0.26553 0.27205 0.17199 0.0
H5 H 0.26535 0.22183 0.23268 0.0
C6 C 0.20787 0.21506 0.30451 0.0
C7 C 0.20015 0.23601 0.29573 0.0
C8 C 0.22343 0.20283 0.28978 0.0
C9 C 0.23129 0.21146 0.26569 0.0
C10 C 0.22494 0.23333 0.25689 0.0
C11 C 0.20887 0.24532 0.27225 0.0
C12 C 0.23579 0.24376 0.23267 0.0
C13 C 0.22599 0.26251 0.21951 0.0
C14 C 0.23707 0.27319 0.19832 0.0
C15 C 0.25719 0.26404 0.18865 0.0
C16 C 0.26701 0.2451 0.20056 0.0
C17 C 0.2567 0.23558 0.22299 0.0
H18 H 0.71858 0.30891 0.20997 0.0
H19 H 0.77453 0.29332 0.25994 0.0
H20 H 0.71065 0.25874 0.27048 0.0
H21 H 0.73191 0.2319 0.28828 0.0
H22 H 0.77942 0.22879 0.35181 0.0
H23 H 0.77759 0.28767 0.30268 0.0
C24 C 0.72548 0.29944 0.22649 0.0
C25 C 0.71229 0.28297 0.239 0.0
C26 C 0.74769 0.3035 0.23433 0.0
C27 C 0.75706 0.29047 0.25483 0.0
C28 C 0.7439 0.27427 0.2687 0.0
C29 C 0.72142 0.27067 0.26028 0.0
C30 C 0.75345 0.26158 0.29205 0.0
C31 C 0.74513 0.23999 0.2995 0.0
C32 C 0.75442 0.22819 0.32111 0.0
C33 C 0.77236 0.2378 0.33504 0.0
C34 C 0.78105 0.25899 0.32812 0.0
C35 C 0.77116 0.27102 0.30717 0.0
H36 H 0.80869 0.80496 0.29863 0.0
H37 H 0.79723 0.74911 0.24718 0.0
H38 H 0.74443 0.7983 0.26154 0.0
H39 H 0.73312 0.78998 0.22164 0.0
H40 H 0.71244 0.72924 0.18375 0.0
H41 H 0.76912 0.72739 0.23604 0.0
C42 C 0.79781 0.79614 0.28487 0.0
C43 C 0.7761 0.80422 0.28022 0.0
C44 C 0.80507 0.77592 0.27373 0.0
C45 C 0.79085 0.7643 0.25623 0.0
C46 C 0.76883 0.77245 0.2506 0.0
C47 C 0.76151 0.79218 0.26371 0.0
C48 C 0.75333 0.76038 0.23175 0.0
C49 C 0.73549 0.77205 0.21895 0.0
C50 C 0.72022 0.76061 0.20262 0.0
C51 C 0.72358 0.7377 0.19751 0.0
C52 C 0.74154 0.72584 0.20891 0.0
C53 C 0.75604 0.7371 0.22643 0.0
H54 H 0.23919 0.76766 0.35772 0.0
H55 H 0.29671 0.76393 0.30659 0.0
H56 H 0.23972 0.7194 0.29517 0.0
H57 H 0.26528 0.69676 0.27778 0.0
H58 H 0.30943 0.70397 0.21138 0.0
H59 H 0.30032 0.75995 0.26319 0.0
C60 C 0.24785 0.75994 0.3412 0.0
C61 C 0.23754 0.74208 0.32779 0.0
C62 C 0.26902 0.76812 0.33338 0.0
C63 C 0.28005 0.75797 0.31186 0.0
C64 C 0.2699 0.7401 0.29769 0.0
C65 C 0.24847 0.73242 0.30601 0.0
C66 C 0.28126 0.72981 0.27403 0.0
C67 C 0.27649 0.70732 0.26627 0.0
C68 C 0.28659 0.69801 0.24369 0.0
C69 C 0.3017 0.71103 0.22894 0.0
C70 C 0.30682 0.73311 0.23618 0.0
C71 C 0.29664 0.74254 0.25856 0.0
H72 H 0.26253 0.73956 0.86199 0.0
H73 H 0.20937 0.74096 0.80485 0.0
H74 H 0.26779 0.78409 0.79567 0.0
H75 H 0.24629 0.80473 0.7715 0.0
H76 H 0.20755 0.7943 0.70163 0.0
H77 H 0.20599 0.74398 0.76236 0.0
C78 C 0.25518 0.74675 0.84425 0.0
C79 C 0.26681 0.76376 0.83059 0.0
C80 C 0.2348 0.73808 0.8346 0.0
C81 C 0.22561 0.74713 0.81123 0.0
C82 C 0.23714 0.76392 0.79656 0.0
C83 C 0.25803 0.77176 0.80651 0.0
C84 C 0.22786 0.77281 0.77074 0.0
C85 C 0.23517 0.79387 0.76042 0.0
C86 C 0.22853 0.80111 0.73521 0.0
C87 C 0.21323 0.78825 0.72078 0.0
C88 C 0.20457 0.76813 0.73098 0.0
C89 C 0.21212 0.7602 0.75565 0.0
H90 H 0.30111 0.29558 0.82444 0.0
H91 H 0.30099 0.24295 0.76714 0.0
H92 H 0.25993 0.30304 0.75585 0.0
H93 H 0.23774 0.28138 0.73418 0.0
H94 H 0.23809 0.2306 0.67475 0.0
H95 H 0.29512 0.23643 0.72589 0.0
C96 C 0.29504 0.28888 0.80582 0.0
C97 C 0.27915 0.30107 0.79135 0.0
C98 C 0.30338 0.26836 0.79662 0.0
C99 C 0.29513 0.25947 0.77284 0.0
C100 C 0.27884 0.27135 0.75764 0.0
C101 C 0.27169 0.29279 0.76693 0.0
C102 C 0.2683 0.26085 0.73339 0.0
C103 C 0.24687 0.26812 0.72429 0.0
C104 C 0.23615 0.25752 0.70299 0.0
C105 C 0.24647 0.23899 0.69103 0.0
C106 C 0.26742 0.23104 0.69969 0.0
C107 C 0.27865 0.24248 0.72012 0.0
H108 H 0.70621 0.26889 0.84656 0.0
H109 H 0.76058 0.27559 0.79138 0.0
H110 H 0.72781 0.21094 0.80343 0.0
H111 H 0.73547 0.2071 0.76084 0.0
H112 H 0.79533 0.20792 0.71381 0.0
H113 H 0.78943 0.25431 0.778 0.0
C114 C 0.71727 0.26147 0.83191 0.0
C115 C 0.71471 0.23869 0.82556 0.0
C116 C 0.73409 0.27467 0.82012 0.0
C117 C 0.74841 0.26488 0.80126 0.0
C118 C 0.74635 0.24183 0.7945 0.0
C119 C 0.72966 0.22874 0.80755 0.0
C120 C 0.76059 0.23185 0.77291 0.0
C121 C 0.75215 0.21391 0.75742 0.0
C122 C 0.7647 0.20524 0.73633 0.0
C123 C 0.78572 0.21448 0.73034 0.0
C124 C 0.79448 0.23222 0.74513 0.0
C125 C 0.78215 0.24077 0.76657 0.0
H126 H 0.72147 0.7012 0.82137 0.0
H127 H 0.76568 0.70168 0.75496 0.0
H128 H 0.71808 0.75649 0.7673 0.0
H129 H 0.72424 0.7669 0.72793 0.0
H130 H 0.77714 0.77572 0.67175 0.0
H131 H 0.78344 0.72364 0.72968 0.0
C132 C 0.72752 0.70943 0.80352 0.0
C133 C 0.7176 0.7296 0.79521 0.0
C134 C 0.7451 0.69969 0.78922 0.0
C135 C 0.75272 0.71027 0.76596 0.0
C136 C 0.74334 0.73109 0.75708 0.0
C137 C 0.7256 0.74046 0.77233 0.0
C138 C 0.75228 0.74315 0.73264 0.0
C139 C 0.74049 0.76151 0.72076 0.0
C140 C 0.74985 0.77376 0.69954 0.0
C141 C 0.77036 0.76676 0.68872 0.0
C142 C 0.78199 0.74822 0.69912 0.0
C143 C 0.77322 0.73689 0.72127 0.0
C144 C 0.97464 0.26309 0.56387 0.0
C145 C 0.02841 0.26539 0.48996 0.0
O146 O 0.9805 0.28309 0.55692 0.0
Zn147 Zn 0.00119 0.2995 0.52791 0.0
O148 O 0.98235 0.24622 0.55128 0.0
Zn149 Zn 0.00127 0.26301 0.52661 0.0
O150 O 0.02556 0.27775 0.55209 0.0
O151 O 0.02347 0.31492 0.55014 0.0
O152 O 0.02022 0.24776 0.5008 0.0
O153 O 0.02251 0.28488 0.4984 0.0
O154 O 0.97879 0.31588 0.50643 0.0
O155 O 0.97713 0.27891 0.50206 0.0
C156 C 0.03258 0.29714 0.55954 0.0
C157 C 0.96996 0.29858 0.49577 0.0
C158 C 0.74218 0.0267 0.55035 0.0
C159 C 0.74656 0.97355 0.47718 0.0
O160 O 0.76006 0.01838 0.54047 0.0
Zn161 Zn 0.74546 0.99971 0.51424 0.0
O162 O 0.72292 0.02101 0.54103 0.0
Zn163 Zn 0.7091 0.99993 0.51101 0.0
O164 O 0.6921 0.9772 0.53174 0.0
O165 O 0.72879 0.97544 0.53821 0.0
O166 O 0.7264 0.97948 0.48301 0.0
O167 O 0.76304 0.9809 0.49074 0.0
O168 O 0.73191 0.02426 0.48768 0.0
O169 O 0.69476 0.02252 0.48763 0.0
C170 C 0.70893 0.96824 0.54339 0.0
C171 C 0.71291 0.03149 0.47907 0.0
C172 C 0.97302 0.70965 0.53272 0.0
C173 C 0.03521 0.70685 0.46851 0.0
O174 O 0.98095 0.72885 0.52572 0.0
Zn175 Zn 0.00572 0.7431 0.50062 0.0
O176 O 0.98114 0.69176 0.52265 0.0
Zn177 Zn 0.00404 0.70666 0.50049 0.0
O178 O 0.0261 0.72095 0.52937 0.0
O179 O 0.02543 0.75807 0.52588 0.0
O180 O 0.02539 0.68975 0.47863 0.0
O181 O 0.02916 0.72673 0.47536 0.0
O182 O 0.98741 0.76015 0.47557 0.0
O183 O 0.98403 0.72326 0.471 0.0
C184 C 0.03287 0.74034 0.5372 0.0
C185 C 0.97902 0.74334 0.46347 0.0
C186 C 0.29637 0.03606 0.54121 0.0
C187 C 0.29577 0.96939 0.48342 0.0
O188 O 0.31348 0.02642 0.53113 0.0
Zn189 Zn 0.29708 0.00289 0.51202 0.0
O190 O 0.2766 0.02871 0.53576 0.0
Zn191 Zn 0.26108 0.00268 0.51291 0.0
O192 O 0.2451 0.98573 0.53967 0.0
O193 O 0.28212 0.98384 0.54369 0.0
O194 O 0.27609 0.97654 0.48969 0.0
O195 O 0.31308 0.97947 0.49239 0.0
O196 O 0.28091 0.0216 0.48094 0.0
O197 O 0.2441 0.01951 0.48691 0.0
C198 C 0.26236 0.97863 0.55206 0.0
C199 C 0.26084 0.02662 0.47356 0.0
C200 C 0.47477 0.77003 0.04024 0.0
C201 C 0.53126 0.76784 0.96968 0.0
O202 O 0.48062 0.7896 0.03173 0.0
Zn203 Zn 0.50263 0.80423 1.00264 0.0
O204 O 0.48339 0.75248 0.02992 0.0
Zn205 Zn 0.50265 0.76794 1.00473 0.0
O206 O 0.52571 0.7844 0.03048 0.0
O207 O 0.52388 0.82131 0.02455 0.0
O208 O 0.52245 0.75103 0.98153 0.0
O209 O 0.5251 0.78786 0.97586 0.0
O210 O 0.48111 0.81918 0.97897 0.0
O211 O 0.47874 0.78206 0.97805 0.0
C212 C 0.53237 0.80431 0.03638 0.0
C213 C 0.47195 0.80139 0.96991 0.0
C214 C 0.24689 0.52814 0.05182 0.0
C215 C 0.24417 0.47806 0.97531 0.0
O216 O 0.26333 0.5197 0.03912 0.0
Zn217 Zn 0.24584 0.50304 0.01364 0.0
O218 O 0.22664 0.52365 0.0446 0.0
Zn219 Zn 0.21006 0.50399 0.01445 0.0
O220 O 0.19336 0.48175 0.0351 0.0
O221 O 0.23024 0.47792 0.03808 0.0
O222 O 0.22448 0.48383 0.98337 0.0
O223 O 0.26146 0.48523 0.98748 0.0
O224 O 0.23073 0.52935 0.99032 0.0
O225 O 0.19381 0.52703 0.99481 0.0
C226 C 0.21037 0.47151 0.04464 0.0
C227 C 0.21095 0.53673 0.9848 0.0
C228 C 0.53329 0.20209 0.99608 0.0
C229 C 0.47181 0.20754 0.06074 0.0
O230 O 0.5266 0.22233 1.00027 0.0
Zn231 Zn 0.50279 0.23978 0.02453 0.0
O232 O 0.5245 0.18586 1.00902 0.0
Zn233 Zn 0.50301 0.20396 0.02903 0.0
O234 O 0.48127 0.21694 0.99841 0.0
O235 O 0.48392 0.25409 0.99819 0.0
O236 O 0.48139 0.18959 0.05284 0.0
O237 O 0.47841 0.22667 0.05169 0.0
O238 O 0.52164 0.2582 0.04698 0.0
O239 O 0.52476 0.22183 0.05563 0.0
C240 C 0.47552 0.23613 0.98868 0.0
C241 C 0.53035 0.2423 0.0605 0.0
C242 C 0.76056 0.53145 0.04532 0.0
C243 C 0.75693 0.46974 0.9816 0.0
O244 O 0.78 0.52483 0.0374 0.0
Zn245 Zn 0.79405 0.50032 1.01101 0.0
O246 O 0.74291 0.5221 0.03623 0.0
Zn247 Zn 0.75791 0.50062 0.0135 0.0
O248 O 0.77441 0.47936 0.04162 0.0
O249 O 0.81117 0.4807 0.03506 0.0
O250 O 0.7404 0.47938 0.99293 0.0
O251 O 0.7771 0.47607 0.98687 0.0
O252 O 0.80896 0.51943 0.98445 0.0
O253 O 0.77186 0.52159 0.98325 0.0
C254 C 0.79437 0.47308 0.04798 0.0
C255 C 0.79112 0.52739 0.97397 0.0
C256 C 0.18725 0.25233 0.33835 0.0
C257 C 0.18277 0.24748 0.31174 0.0
C258 C 0.1697 0.25762 0.35564 0.0
C259 C 0.12989 0.27562 0.38696 0.0
H260 H 0.07878 0.23491 0.383 0.0
C261 C 0.05361 0.28391 0.45668 0.0
C262 C 0.04485 0.26397 0.46789 0.0
C263 C 0.06946 0.28307 0.43633 0.0
C264 C 0.09298 0.24634 0.38442 0.0
H265 H 0.15674 0.24527 0.28197 0.0
H266 H 0.12585 0.25476 0.31223 0.0
H267 H 0.10823 0.23332 0.34928 0.0
H268 H 0.04576 0.22744 0.4661 0.0
H269 H 0.07369 0.22596 0.43048 0.0
H270 H 0.11502 0.28823 0.42245 0.0
C271 C 0.14294 0.25437 0.31973 0.0
C272 C 0.10969 0.24566 0.3649 0.0
C273 C 0.1606 0.24928 0.30234 0.0
C274 C 0.05216 0.24311 0.45793 0.0
C275 C 0.06806 0.24227 0.43742 0.0
C276 C 0.11314 0.27638 0.40638 0.0
C277 C 0.14724 0.25793 0.34675 0.0
C278 C 0.12846 0.26014 0.36608 0.0
C279 C 0.07703 0.26228 0.42655 0.0
C280 C 0.09457 0.26163 0.40549 0.0
H281 H 0.20421 0.25073 0.34608 0.0
H282 H 0.17361 0.26008 0.37633 0.0
H283 H 0.14407 0.28706 0.3884 0.0
H284 H 0.04831 0.30031 0.46368 0.0
H285 H 0.07573 0.29879 0.42815 0.0
C286 C 0.72344 0.20278 0.338 0.0
C287 C 0.74592 0.20573 0.32984 0.0
C288 C 0.71692 0.18307 0.3516 0.0
C289 C 0.74299 0.14027 0.3947 0.0
H290 H 0.68749 0.10631 0.38724 0.0
C291 C 0.73324 0.05523 0.44601 0.0
C292 C 0.71302 0.05018 0.45931 0.0
C293 C 0.73476 0.07374 0.42902 0.0
C294 C 0.70294 0.1158 0.38974 0.0
H295 H 0.77866 0.18976 0.32751 0.0
H296 H 0.76732 0.15542 0.35059 0.0
H297 H 0.69459 0.13917 0.35854 0.0
H298 H 0.67816 0.06025 0.46414 0.0
H299 H 0.6809 0.09312 0.43434 0.0
H300 H 0.75145 0.11734 0.42579 0.0
C301 C 0.7548 0.16842 0.34722 0.0
C302 C 0.70703 0.13457 0.37327 0.0
C303 C 0.76128 0.18801 0.3338 0.0
C304 C 0.69399 0.06371 0.45427 0.0
C305 C 0.69556 0.0825 0.43717 0.0
C306 C 0.73891 0.12171 0.41108 0.0
C307 C 0.7328 0.16604 0.35723 0.0
C308 C 0.72736 0.14673 0.37522 0.0
C309 C 0.71618 0.088 0.42483 0.0
C310 C 0.71909 0.10889 0.4085 0.0
H311 H 0.7113 0.21625 0.33535 0.0
H312 H 0.69984 0.18176 0.35901 0.0
H313 H 0.75851 0.14962 0.39736 0.0
H314 H 0.74816 0.04499 0.44896 0.0
H315 H 0.75072 0.07702 0.41932 0.0
C316 C 0.82591 0.74885 0.30221 0.0
C317 C 0.82652 0.76636 0.2835 0.0
C318 C 0.84468 0.74441 0.31815 0.0
C319 C 0.88806 0.73433 0.34748 0.0
H320 H 0.92063 0.78792 0.36895 0.0
C321 C 0.961 0.72875 0.42241 0.0
C322 C 0.96371 0.74638 0.4406 0.0
C323 C 0.94603 0.73083 0.40125 0.0
C324 C 0.9116 0.77278 0.36344 0.0
H325 H 0.84746 0.79198 0.2654 0.0
H326 H 0.88079 0.78336 0.29193 0.0
H327 H 0.8918 0.79081 0.33515 0.0
H328 H 0.95291 0.78013 0.45076 0.0
H329 H 0.92601 0.78353 0.41442 0.0
H330 H 0.90681 0.71659 0.37698 0.0
C331 C 0.86565 0.77351 0.29512 0.0
C332 C 0.89527 0.77435 0.34356 0.0
C333 C 0.84673 0.77819 0.27952 0.0
C334 C 0.95126 0.7663 0.43698 0.0
C335 C 0.93593 0.76825 0.41601 0.0
C336 C 0.90415 0.73283 0.36763 0.0
C337 C 0.86457 0.75727 0.31551 0.0
C338 C 0.88316 0.75517 0.33535 0.0
C339 C 0.93298 0.75045 0.39792 0.0
C340 C 0.91611 0.75205 0.376 0.0
H341 H 0.81032 0.73987 0.30604 0.0
H342 H 0.84297 0.73193 0.33371 0.0
H343 H 0.87936 0.71911 0.3416 0.0
H344 H 0.97058 0.71327 0.42442 0.0
H345 H 0.94479 0.71698 0.38747 0.0
C346 C 0.28727 0.80647 0.333 0.0
C347 C 0.27894 0.78786 0.34731 0.0
C348 C 0.29377 0.82622 0.34608 0.0
C349 C 0.30802 0.84992 0.41202 0.0
H350 H 0.28245 0.90508 0.38349 0.0
C351 C 0.31803 0.93752 0.46303 0.0
C352 C 0.29773 0.94957 0.46569 0.0
C353 C 0.31908 0.91827 0.44697 0.0
C354 C 0.2898 0.88985 0.39167 0.0
H355 H 0.27218 0.77492 0.38664 0.0
H356 H 0.28347 0.80928 0.40943 0.0
H357 H 0.27898 0.87004 0.35877 0.0
H358 H 0.26279 0.95108 0.45304 0.0
H359 H 0.2647 0.91793 0.42514 0.0
H360 H 0.31817 0.86971 0.44536 0.0
C361 C 0.28499 0.80869 0.38812 0.0
C362 C 0.288 0.86978 0.37737 0.0
C363 C 0.27834 0.78905 0.37505 0.0
C364 C 0.27871 0.94222 0.45155 0.0
C365 C 0.27983 0.92326 0.43535 0.0
C366 C 0.30998 0.87007 0.42624 0.0
C367 C 0.2923 0.82772 0.37378 0.0
C368 C 0.29666 0.84946 0.38762 0.0
C369 C 0.29995 0.91094 0.43295 0.0
C370 C 0.30042 0.89016 0.4165 0.0
H371 H 0.28783 0.80612 0.31162 0.0
H372 H 0.29953 0.8405 0.33447 0.0
H373 H 0.31507 0.83461 0.42036 0.0
H374 H 0.33297 0.94272 0.47367 0.0
H375 H 0.33485 0.90917 0.44544 0.0
C376 C 0.16475 0.75553 0.72494 0.0
C377 C 0.18699 0.75642 0.71552 0.0
C378 C 0.14699 0.75041 0.70774 0.0
C379 C 0.11427 0.75923 0.66218 0.0
H380 H 0.11811 0.71518 0.60601 0.0
C381 C 0.05749 0.76224 0.56867 0.0
C382 C 0.04933 0.74151 0.55925 0.0
C383 C 0.07331 0.76281 0.58926 0.0
C384 C 0.11665 0.72746 0.6217 0.0
H385 H 0.20838 0.75136 0.68143 0.0
H386 H 0.17756 0.74199 0.65153 0.0
H387 H 0.14701 0.71591 0.64024 0.0
H388 H 0.05118 0.70515 0.56451 0.0
H389 H 0.07845 0.70622 0.60019 0.0
H390 H 0.08395 0.77086 0.6435 0.0
C391 C 0.17369 0.74521 0.67209 0.0
C392 C 0.1333 0.72795 0.64122 0.0
C393 C 0.19136 0.75052 0.68918 0.0
C394 C 0.05716 0.72145 0.57108 0.0
C395 C 0.07292 0.72203 0.59152 0.0
C396 C 0.09765 0.75881 0.64255 0.0
C397 C 0.15122 0.74592 0.68091 0.0
C398 C 0.13242 0.74396 0.66159 0.0
C399 C 0.08133 0.74267 0.60077 0.0
C400 C 0.09872 0.74301 0.62197 0.0
H401 H 0.16097 0.76033 0.74509 0.0
H402 H 0.12987 0.75081 0.71519 0.0
H403 H 0.11325 0.77199 0.67739 0.0
H404 H 0.05181 0.778 0.56002 0.0
H405 H 0.0796 0.77901 0.59579 0.0
C406 C 0.29817 0.20853 0.67733 0.0
C407 C 0.27639 0.20981 0.68816 0.0
C408 C 0.30523 0.18892 0.66416 0.0
C409 C 0.29076 0.12815 0.65557 0.0
H410 H 0.31714 0.13485 0.58585 0.0
C411 C 0.28017 0.0613 0.57568 0.0
C412 C 0.29867 0.05523 0.55984 0.0
C413 C 0.28165 0.07928 0.59326 0.0
C414 C 0.31016 0.13267 0.60547 0.0
H415 H 0.24538 0.19133 0.69485 0.0
H416 H 0.2575 0.15746 0.6721 0.0
H417 H 0.31249 0.16803 0.61402 0.0
H418 H 0.33329 0.06349 0.55009 0.0
H419 H 0.33573 0.09549 0.58076 0.0
H420 H 0.28753 0.09303 0.64666 0.0
C421 C 0.26927 0.17137 0.67366 0.0
C422 C 0.30752 0.15167 0.62164 0.0
C423 C 0.26221 0.19088 0.68653 0.0
C424 C 0.31877 0.06771 0.56205 0.0
C425 C 0.32014 0.08604 0.57951 0.0
C426 C 0.29329 0.10927 0.63942 0.0
C427 C 0.29074 0.17017 0.66198 0.0
C428 C 0.29711 0.14973 0.64656 0.0
C429 C 0.30158 0.09192 0.59541 0.0
C430 C 0.30236 0.1114 0.61387 0.0
H431 H 0.30941 0.22291 0.67826 0.0
H432 H 0.32193 0.18849 0.65551 0.0
H433 H 0.28317 0.12593 0.67487 0.0
H434 H 0.26443 0.05208 0.5746 0.0
H435 H 0.26694 0.08355 0.60491 0.0
C436 C 0.81572 0.25806 0.71566 0.0
C437 C 0.81602 0.2421 0.73619 0.0
C438 C 0.83521 0.26242 0.70095 0.0
C439 C 0.87998 0.27327 0.67519 0.0
H440 H 0.91484 0.21986 0.65853 0.0
C441 C 0.95574 0.27807 0.60424 0.0
C442 C 0.95896 0.26021 0.58647 0.0
C443 C 0.94027 0.27621 0.62493 0.0
C444 C 0.90521 0.23493 0.66277 0.0
H445 H 0.83686 0.21886 0.75833 0.0
H446 H 0.87133 0.22719 0.73351 0.0
H447 H 0.88463 0.21747 0.6909 0.0
H448 H 0.94867 0.22618 0.57676 0.0
H449 H 0.92103 0.22311 0.61244 0.0
H450 H 0.89964 0.29043 0.646 0.0
C451 C 0.856 0.23607 0.72833 0.0
C452 C 0.88808 0.23366 0.68176 0.0
C453 C 0.83641 0.23159 0.7429 0.0
C454 C 0.94662 0.24021 0.59018 0.0
C455 C 0.93085 0.23845 0.61075 0.0
C456 C 0.89695 0.27448 0.65604 0.0
C457 C 0.85544 0.25088 0.70647 0.0
C458 C 0.87506 0.25278 0.68807 0.0
C459 C 0.92729 0.25654 0.62826 0.0
C460 C 0.90971 0.25529 0.64939 0.0
H461 H 0.79999 0.26588 0.70971 0.0
H462 H 0.83392 0.2737 0.68413 0.0
H463 H 0.87054 0.28842 0.67966 0.0
H464 H 0.9652 0.29362 0.60219 0.0
H465 H 0.9385 0.2903 0.63832 0.0
C466 C 0.75196 0.81457 0.68746 0.0
C467 C 0.73918 0.79465 0.68896 0.0
C468 C 0.74334 0.83384 0.67512 0.0
C469 C 0.70386 0.85189 0.62358 0.0
H470 H 0.7179 0.91129 0.65081 0.0
C471 C 0.68761 0.93535 0.56382 0.0
C472 C 0.70649 0.94971 0.56313 0.0
C473 C 0.68694 0.91688 0.58145 0.0
C474 C 0.7138 0.89484 0.6429 0.0
H475 H 0.70712 0.7794 0.67918 0.0
H476 H 0.69193 0.81331 0.65719 0.0
H477 H 0.72507 0.87802 0.67801 0.0
H478 H 0.73905 0.95635 0.58107 0.0
H479 H 0.7378 0.92472 0.61145 0.0
H480 H 0.69336 0.86882 0.58803 0.0
C481 C 0.70867 0.81392 0.66568 0.0
C482 C 0.71792 0.87576 0.65851 0.0
C483 C 0.71726 0.7946 0.67842 0.0
C484 C 0.72425 0.94563 0.58092 0.0
C485 C 0.72347 0.92752 0.59859 0.0
C486 C 0.69974 0.87107 0.60788 0.0
C487 C 0.72173 0.83373 0.66371 0.0
C488 C 0.71372 0.85399 0.64875 0.0
C489 C 0.70495 0.91275 0.599 0.0
C490 C 0.70539 0.89273 0.61704 0.0
H491 H 0.76891 0.81508 0.69541 0.0
H492 H 0.75401 0.84864 0.6737 0.0
H493 H 0.70052 0.83537 0.6154 0.0
H494 H 0.6737 0.93799 0.55031 0.0
H495 H 0.6724 0.90583 0.58132 0.0
C496 C 0.81953 0.75688 0.67884 0.0
C497 C 0.80334 0.74083 0.68643 0.0
C498 C 0.83817 0.75057 0.66381 0.0
C499 C 0.87291 0.70282 0.64066 0.0
H500 H 0.88529 0.74409 0.58275 0.0
C501 C 0.94147 0.6898 0.55744 0.0
C502 C 0.95441 0.70924 0.55231 0.0
C503 C 0.92284 0.69082 0.57461 0.0
C504 C 0.88211 0.73241 0.59887 0.0
H505 H 0.7946 0.70533 0.68541 0.0
H506 H 0.82738 0.69423 0.65892 0.0
H507 H 0.85364 0.75131 0.61195 0.0
H508 H 0.95868 0.74458 0.5625 0.0
H509 H 0.9267 0.74622 0.59199 0.0
H510 H 0.90179 0.68405 0.62733 0.0
C511 C 0.82559 0.71171 0.66472 0.0
C512 C 0.86402 0.7366 0.61568 0.0
C513 C 0.80687 0.71805 0.67988 0.0
C514 C 0.94892 0.72933 0.56552 0.0
C515 C 0.9305 0.73033 0.58245 0.0
C516 C 0.89116 0.69859 0.62368 0.0
C517 C 0.84109 0.72805 0.65587 0.0
C518 C 0.85951 0.72222 0.63718 0.0
C519 C 0.91691 0.71131 0.58675 0.0
C520 C 0.89622 0.7137 0.60302 0.0
H521 H 0.8175 0.77447 0.68405 0.0
H522 H 0.85013 0.76347 0.65791 0.0
H523 H 0.86979 0.69138 0.65701 0.0
H524 H 0.94533 0.67405 0.54766 0.0
H525 H 0.91265 0.67587 0.57768 0.0
C526 C 0.23399 0.84308 0.7344 0.0
C527 C 0.23767 0.82186 0.723 0.0
C528 C 0.23942 0.86277 0.72033 0.0
C529 C 0.23527 0.89839 0.67641 0.0
H530 H 0.28783 0.90184 0.631 0.0
C531 C 0.23926 0.95457 0.58284 0.0
C532 C 0.26007 0.96421 0.57586 0.0
C533 C 0.2377 0.93986 0.60448 0.0
C534 C 0.27321 0.9014 0.64381 0.0
H535 H 0.25089 0.80431 0.68895 0.0
H536 H 0.26051 0.83845 0.66453 0.0
H537 H 0.2849 0.87159 0.66343 0.0
H538 H 0.29534 0.96688 0.5869 0.0
H539 H 0.29252 0.94162 0.62472 0.0
H540 H 0.22349 0.92813 0.65653 0.0
C541 C 0.25353 0.84009 0.68421 0.0
C542 C 0.27146 0.88392 0.66226 0.0
C543 C 0.24794 0.82054 0.6981 0.0
C544 C 0.27909 0.9595 0.59151 0.0
C545 C 0.2775 0.94495 0.61318 0.0
C546 C 0.23703 0.91593 0.65792 0.0
C547 C 0.24885 0.86144 0.69486 0.0
C548 C 0.25224 0.8819 0.67832 0.0
C549 C 0.2569 0.93462 0.61965 0.0
C550 C 0.25582 0.91736 0.64104 0.0
H551 H 0.22594 0.84442 0.75354 0.0
H552 H 0.23578 0.879 0.72909 0.0
H553 H 0.22017 0.89718 0.68836 0.0
H554 H 0.2243 0.95788 0.57118 0.0
H555 H 0.22162 0.932 0.60874 0.0
C556 C 0.19662 0.2493 0.68897 0.0
C557 C 0.21376 0.26517 0.69334 0.0
C558 C 0.17654 0.25568 0.67674 0.0
C559 C 0.1406 0.30392 0.65648 0.0
H560 H 0.12043 0.26104 0.60392 0.0
C561 C 0.06562 0.3169 0.58104 0.0
C562 C 0.05159 0.29789 0.5785 0.0
C563 C 0.08524 0.31574 0.5966 0.0
C564 C 0.12576 0.27316 0.61861 0.0
H565 H 0.22291 0.30042 0.6896 0.0
H566 H 0.18766 0.31165 0.66778 0.0
H567 H 0.15477 0.25362 0.62849 0.0
H568 H 0.04618 0.26345 0.59193 0.0
H569 H 0.07991 0.26155 0.61877 0.0
H570 H 0.11126 0.32345 0.64618 0.0
C571 C 0.18977 0.29427 0.67401 0.0
C572 C 0.14541 0.26886 0.6328 0.0
C573 C 0.20992 0.28786 0.68647 0.0
C574 C 0.05681 0.27828 0.59299 0.0
C575 C 0.0762 0.27715 0.60838 0.0
C576 C 0.12081 0.30829 0.6421 0.0
C577 C 0.17313 0.27808 0.66833 0.0
C578 C 0.15284 0.28387 0.65235 0.0
C579 C 0.09101 0.29555 0.60973 0.0
C580 C 0.11296 0.29264 0.62345 0.0
H581 H 0.19896 0.23177 0.69452 0.0
H582 H 0.16382 0.2429 0.67336 0.0
H583 H 0.14592 0.31585 0.67137 0.0
H584 H 0.06199 0.33225 0.57016 0.0
H585 H 0.09637 0.3302 0.5974 0.0
C586 C 0.75457 0.18976 0.69234 0.0
C587 C 0.75611 0.18671 0.71979 0.0
C588 C 0.75009 0.17148 0.67594 0.0
C589 C 0.7309 0.1312 0.64675 0.0
H590 H 0.76893 0.0787 0.6576 0.0
C591 C 0.72292 0.05229 0.58218 0.0
C592 C 0.74309 0.04322 0.57216 0.0
C593 C 0.72334 0.06857 0.60193 0.0
C594 C 0.75825 0.09326 0.65434 0.0
H595 H 0.75351 0.16258 0.75186 0.0
H596 H 0.74573 0.13029 0.72299 0.0
H597 H 0.77007 0.10974 0.6893 0.0
H598 H 0.77953 0.04377 0.57557 0.0
H599 H 0.78024 0.07246 0.61024 0.0
H600 H 0.71943 0.11507 0.61154 0.0
C601 C 0.74799 0.14685 0.71424 0.0
C602 C 0.75869 0.11088 0.67262 0.0
C603 C 0.7522 0.16527 0.73073 0.0
C604 C 0.76371 0.05046 0.58283 0.0
C605 C 0.76412 0.06677 0.60276 0.0
C606 C 0.73033 0.11355 0.62863 0.0
C607 C 0.74733 0.14975 0.68665 0.0
C608 C 0.74521 0.13013 0.6688 0.0
C609 C 0.74391 0.07618 0.61224 0.0
C610 C 0.74416 0.0945 0.63208 0.0
H611 H 0.75763 0.20618 0.68354 0.0
H612 H 0.74986 0.1742 0.65476 0.0
H613 H 0.72029 0.14581 0.64338 0.0
H614 H 0.7067 0.04702 0.57458 0.0
H615 H 0.7075 0.07527 0.60911 0.0
C616 C 0.81899 0.25346 0.34852 0.0
C617 C 0.80086 0.26792 0.34275 0.0
C618 C 0.83668 0.26063 0.3645 0.0
C619 C 0.86681 0.30905 0.39213 0.0
H620 H 0.88295 0.26513 0.44595 0.0
C621 C 0.93749 0.31936 0.47394 0.0
C622 C 0.95133 0.30016 0.47631 0.0
C623 C 0.91843 0.31896 0.45739 0.0
C624 C 0.87866 0.27759 0.43104 0.0
H625 H 0.78774 0.30173 0.34806 0.0
H626 H 0.81907 0.3144 0.37616 0.0
H627 H 0.85098 0.25791 0.41719 0.0
H628 H 0.95695 0.26622 0.46168 0.0
H629 H 0.92421 0.26564 0.43324 0.0
H630 H 0.8951 0.32848 0.40596 0.0
C631 C 0.81936 0.29745 0.36826 0.0
C632 C 0.86038 0.27343 0.41453 0.0
C633 C 0.80148 0.29021 0.3522 0.0
C634 C 0.94645 0.28116 0.46081 0.0
C635 C 0.92762 0.28078 0.44448 0.0
C636 C 0.88529 0.31324 0.40879 0.0
C637 C 0.83681 0.28247 0.37514 0.0
C638 C 0.85464 0.28873 0.39436 0.0
C639 C 0.91302 0.29935 0.44313 0.0
C640 C 0.89176 0.29716 0.42785 0.0
H641 H 0.8193 0.23638 0.341 0.0
H642 H 0.85017 0.24887 0.3689 0.0
H643 H 0.86268 0.32117 0.3768 0.0
H644 H 0.94089 0.33427 0.48556 0.0
H645 H 0.90746 0.33355 0.45657 0.0
C646 C 0.75202 0.82264 0.31417 0.0
C647 C 0.76864 0.82445 0.2946 0.0
C648 C 0.74835 0.84044 0.33167 0.0
C649 C 0.73839 0.88325 0.36193 0.0
H650 H 0.79226 0.91468 0.38484 0.0
C651 C 0.73324 0.95666 0.43511 0.0
C652 C 0.75007 0.95837 0.45452 0.0
C653 C 0.73555 0.94163 0.41422 0.0
C654 C 0.77708 0.90594 0.37887 0.0
H655 H 0.79352 0.84638 0.27666 0.0
H656 H 0.78642 0.87796 0.30631 0.0
H657 H 0.79502 0.88618 0.35067 0.0
H658 H 0.78271 0.94598 0.46709 0.0
H659 H 0.78651 0.91903 0.43093 0.0
H660 H 0.72065 0.90212 0.39111 0.0
C661 C 0.77671 0.86263 0.30887 0.0
C662 C 0.77857 0.88984 0.35889 0.0
C663 C 0.78059 0.84472 0.29167 0.0
C664 C 0.76952 0.94504 0.45234 0.0
C665 C 0.7717 0.92968 0.43155 0.0
C666 C 0.73694 0.89916 0.3821 0.0
C667 C 0.76111 0.86044 0.32968 0.0
C668 C 0.75925 0.87827 0.35016 0.0
C669 C 0.7546 0.92764 0.41238 0.0
C670 C 0.75626 0.91074 0.39083 0.0
H671 H 0.74289 0.80698 0.31696 0.0
H672 H 0.73637 0.83802 0.34757 0.0
H673 H 0.72313 0.87485 0.35559 0.0
H674 H 0.71819 0.96698 0.43603 0.0
H675 H 0.72233 0.941 0.39949 0.0
C676 C 0.1975 0.74914 0.34093 0.0
C677 C 0.21512 0.7338 0.33651 0.0
C678 C 0.17677 0.74167 0.35069 0.0
C679 C 0.15162 0.69787 0.3917 0.0
H680 H 0.09556 0.7226 0.36492 0.0
C681 C 0.06575 0.6845 0.44554 0.0
C682 C 0.05361 0.70466 0.44886 0.0
C683 C 0.08424 0.68375 0.42818 0.0
C684 C 0.11105 0.71552 0.37265 0.0
H685 H 0.22485 0.69861 0.33849 0.0
H686 H 0.18851 0.68551 0.35607 0.0
H687 H 0.13061 0.72968 0.3411 0.0
H688 H 0.05081 0.73952 0.4358 0.0
H689 H 0.08265 0.73823 0.40611 0.0
H690 H 0.1322 0.68468 0.42401 0.0
C691 C 0.19079 0.70329 0.3518 0.0
C692 C 0.13111 0.71956 0.35898 0.0
C693 C 0.21148 0.71075 0.34162 0.0
C694 C 0.05982 0.72371 0.43388 0.0
C695 C 0.07802 0.72292 0.41656 0.0
C696 C 0.13152 0.69395 0.40554 0.0
C697 C 0.17327 0.71872 0.35655 0.0
C698 C 0.1517 0.71139 0.36879 0.0
C699 C 0.09064 0.70305 0.41364 0.0
C700 C 0.11113 0.7034 0.39663 0.0
H701 H 0.19983 0.76698 0.33702 0.0
H702 H 0.16368 0.754 0.35441 0.0
H703 H 0.16727 0.69143 0.39978 0.0
H704 H 0.06137 0.66956 0.45682 0.0
H705 H 0.09361 0.66816 0.42628 0.0
C706 C 0.22575 0.16066 0.29127 0.0
C707 C 0.23234 0.18171 0.30114 0.0
C708 C 0.23102 0.14089 0.30527 0.0
C709 C 0.22867 0.10644 0.35052 0.0
H710 H 0.28456 0.1002 0.38954 0.0
C711 C 0.2368 0.0513 0.44455 0.0
C712 C 0.25755 0.04075 0.44971 0.0
C713 C 0.23441 0.06576 0.42278 0.0
C714 C 0.26896 0.10138 0.37852 0.0
H715 H 0.25013 0.19892 0.33241 0.0
H716 H 0.25949 0.16465 0.35675 0.0
H717 H 0.2809 0.12989 0.35656 0.0
H718 H 0.29169 0.0361 0.43531 0.0
H719 H 0.28738 0.06078 0.39716 0.0
H720 H 0.21671 0.07792 0.37261 0.0
C721 C 0.2505 0.16312 0.33822 0.0
C722 C 0.2668 0.11858 0.35977 0.0
C723 C 0.24512 0.18276 0.32438 0.0
C724 C 0.27557 0.04425 0.43212 0.0
C725 C 0.27312 0.05847 0.41026 0.0
C726 C 0.23085 0.08914 0.36926 0.0
C727 C 0.24307 0.14199 0.3292 0.0
C728 C 0.24646 0.12167 0.34602 0.0
C729 C 0.25266 0.06977 0.40559 0.0
C730 C 0.25087 0.0867 0.38388 0.0
H731 H 0.21566 0.1596 0.27348 0.0
H732 H 0.22521 0.12483 0.29775 0.0
H733 H 0.2127 0.10847 0.34041 0.0
H734 H 0.22261 0.04894 0.45776 0.0
H735 H 0.21849 0.07437 0.41997 0.0
C736 C 0.67747 0.74238 0.79891 0.0
C737 C 0.69859 0.73884 0.81074 0.0
C738 C 0.65865 0.74752 0.81448 0.0
C739 C 0.62104 0.74007 0.85538 0.0
H740 H 0.62418 0.78275 0.91308 0.0
C741 C 0.55598 0.74326 0.94129 0.0
C742 C 0.54902 0.76482 0.94937 0.0
C743 C 0.57337 0.74085 0.92276 0.0
C744 C 0.62297 0.77087 0.89694 0.0
H745 H 0.71696 0.73893 0.8477 0.0
H746 H 0.68425 0.74829 0.87482 0.0
H747 H 0.65618 0.77883 0.88314 0.0
H748 H 0.55464 0.80076 0.94387 0.0
H749 H 0.58481 0.79652 0.91183 0.0
H750 H 0.58787 0.73196 0.86941 0.0
C751 C 0.68213 0.74702 0.85363 0.0
C752 C 0.64135 0.76855 0.87991 0.0
C753 C 0.70082 0.74162 0.83815 0.0
C754 C 0.55959 0.78388 0.93824 0.0
C755 C 0.577 0.78147 0.91992 0.0
C756 C 0.6027 0.74225 0.87259 0.0
C757 C 0.66074 0.74952 0.84205 0.0
C758 C 0.64063 0.75305 0.85902 0.0
C759 C 0.58424 0.75997 0.91214 0.0
C760 C 0.60351 0.75764 0.8936 0.0
H761 H 0.67533 0.74015 0.77783 0.0
H762 H 0.64239 0.74957 0.80502 0.0
H763 H 0.62011 0.72781 0.83961 0.0
H764 H 0.54816 0.72823 0.94947 0.0
H765 H 0.5787 0.72405 0.91725 0.0
C766 C 0.22316 0.71747 0.87594 0.0
C767 C 0.22412 0.71848 0.8482 0.0
C768 C 0.21635 0.6977 0.88884 0.0
C769 C 0.21632 0.63666 0.87825 0.0
H770 H 0.18459 0.63515 0.94525 0.0
C771 C 0.22744 0.5646 0.95304 0.0
C772 C 0.20855 0.5565 0.96693 0.0
C773 C 0.22575 0.58352 0.93666 0.0
C774 C 0.19321 0.63523 0.92639 0.0
H775 H 0.21756 0.69987 0.81225 0.0
H776 H 0.20538 0.66542 0.83478 0.0
H777 H 0.18655 0.6704 0.92 0.0
H778 H 0.17294 0.5619 0.97429 0.0
H779 H 0.17003 0.59528 0.94564 0.0
H780 H 0.22335 0.60166 0.88481 0.0
C781 C 0.21016 0.67986 0.84655 0.0
C782 C 0.19451 0.65546 0.91204 0.0
C783 C 0.21691 0.69968 0.83364 0.0
C784 C 0.18781 0.56771 0.96385 0.0
C785 C 0.18616 0.58686 0.94756 0.0
C786 C 0.21511 0.61651 0.89262 0.0
C787 C 0.21038 0.67844 0.87431 0.0
C788 C 0.20648 0.65651 0.88805 0.0
C789 C 0.20515 0.59496 0.93379 0.0
C790 C 0.20399 0.61567 0.91714 0.0
H791 H 0.22838 0.73177 0.88771 0.0
H792 H 0.21687 0.69718 0.91022 0.0
H793 H 0.22585 0.63687 0.85999 0.0
H794 H 0.24368 0.55639 0.95489 0.0
H795 H 0.24078 0.5895 0.92667 0.0
C796 C 0.31677 0.25225 0.83937 0.0
C797 C 0.3208 0.25669 0.81251 0.0
C798 C 0.33442 0.24599 0.85608 0.0
C799 C 0.37383 0.22589 0.88633 0.0
H800 H 0.42658 0.26424 0.8801 0.0
C801 C 0.44993 0.21692 0.95654 0.0
C802 C 0.45913 0.23701 0.96657 0.0
C803 C 0.43421 0.21748 0.93601 0.0
C804 C 0.41195 0.25344 0.88212 0.0
H805 H 0.34605 0.25703 0.78167 0.0
H806 H 0.37714 0.24592 0.81097 0.0
H807 H 0.39682 0.26664 0.84688 0.0
H808 H 0.45918 0.27347 0.9626 0.0
H809 H 0.43152 0.27444 0.92683 0.0
H810 H 0.38855 0.21323 0.92201 0.0
C811 C 0.36032 0.2474 0.81909 0.0
C812 C 0.39504 0.25458 0.8629 0.0
C813 C 0.34254 0.25348 0.80228 0.0
C814 C 0.45242 0.25768 0.95535 0.0
C815 C 0.43668 0.25823 0.93473 0.0
C816 C 0.39076 0.22468 0.90547 0.0
C817 C 0.35653 0.24422 0.84632 0.0
C818 C 0.37563 0.24106 0.865 0.0
C819 C 0.42729 0.23812 0.92495 0.0
C820 C 0.40988 0.23866 0.9038 0.0
H821 H 0.30012 0.25476 0.84769 0.0
H822 H 0.33093 0.24386 0.87695 0.0
H823 H 0.35914 0.21518 0.88843 0.0
H824 H 0.45478 0.20067 0.96458 0.0
H825 H 0.42754 0.20167 0.92872 0.0
C826 C 0.75769 0.307 0.83606 0.0
C827 C 0.73659 0.29854 0.82837 0.0
C828 C 0.75931 0.328 0.84848 0.0
C829 C 0.7249 0.36487 0.8901 0.0
H830 H 0.77408 0.40728 0.88126 0.0
C831 C 0.7317 0.44592 0.95307 0.0
C832 C 0.75338 0.45152 0.9621 0.0
C833 C 0.7288 0.42892 0.93423 0.0
C834 C 0.76032 0.39551 0.88411 0.0
H835 H 0.70094 0.30622 0.82545 0.0
H836 H 0.70376 0.34284 0.84697 0.0
H837 H 0.77103 0.37504 0.85163 0.0
H838 H 0.78897 0.44351 0.95857 0.0
H839 H 0.78387 0.41375 0.92642 0.0
H840 H 0.71453 0.38482 0.92301 0.0
C841 C 0.71898 0.33307 0.84401 0.0
C842 C 0.75856 0.37709 0.86707 0.0
C843 C 0.71738 0.31215 0.83162 0.0
C844 C 0.77202 0.43974 0.95197 0.0
C845 C 0.76912 0.42275 0.93331 0.0
C846 C 0.72672 0.3832 0.9072 0.0
C847 C 0.73984 0.3409 0.85337 0.0
C848 C 0.74096 0.36143 0.87005 0.0
C849 C 0.74751 0.41714 0.92411 0.0
C850 C 0.74462 0.3986 0.90466 0.0
H851 H 0.77275 0.29682 0.83392 0.0
H852 H 0.77562 0.33352 0.85555 0.0
H853 H 0.71134 0.35291 0.8932 0.0
H854 H 0.717 0.45476 0.96036 0.0
H855 H 0.71192 0.42517 0.9274 0.0
C856 C 0.67504 0.29649 0.22193 0.0
C857 C 0.68931 0.27842 0.22866 0.0
C858 C 0.65539 0.29279 0.2074 0.0
C859 C 0.61564 0.24927 0.18332 0.0
H860 H 0.60994 0.28971 0.1232 0.0
C861 C 0.55822 0.2292 0.0944 0.0
C862 C 0.54688 0.24706 0.08173 0.0
C863 C 0.57399 0.23344 0.11427 0.0
C864 C 0.61097 0.27848 0.14009 0.0
H865 H 0.69343 0.24215 0.22698 0.0
H866 H 0.65895 0.2356 0.2016 0.0
H867 H 0.63943 0.29612 0.15563 0.0
H868 H 0.54299 0.28342 0.08035 0.0
H869 H 0.57025 0.29083 0.11537 0.0
H870 H 0.58722 0.23154 0.16764 0.0
C871 C 0.66296 0.25265 0.20761 0.0
C872 C 0.62793 0.28215 0.15872 0.0
C873 C 0.68268 0.25637 0.2222 0.0
C874 C 0.55154 0.26928 0.08959 0.0
C875 C 0.56724 0.27353 0.1096 0.0
C876 C 0.59856 0.24565 0.16473 0.0
C877 C 0.64953 0.27093 0.19928 0.0
C878 C 0.63058 0.26751 0.18046 0.0
C879 C 0.57876 0.25565 0.12212 0.0
C880 C 0.59614 0.2601 0.14273 0.0
H881 H 0.67955 0.31364 0.22701 0.0
H882 H 0.64514 0.30716 0.20182 0.0
H883 H 0.61712 0.23782 0.19997 0.0
H884 H 0.55514 0.21186 0.08879 0.0
H885 H 0.58277 0.21926 0.12308 0.0
C886 C 0.72733 0.68723 0.19743 0.0
C887 C 0.74558 0.70209 0.20083 0.0
C888 C 0.7303 0.66661 0.18465 0.0
C889 C 0.76794 0.64126 0.13526 0.0
H890 H 0.73256 0.58738 0.14876 0.0
C891 C 0.77885 0.56069 0.07359 0.0
C892 C 0.7591 0.54975 0.06512 0.0
C893 C 0.77784 0.57795 0.0922 0.0
C894 C 0.74243 0.60237 0.14467 0.0
H895 H 0.78159 0.70614 0.1954 0.0
H896 H 0.78696 0.66979 0.17383 0.0
H897 H 0.73074 0.61892 0.17963 0.0
H898 H 0.72279 0.54825 0.06989 0.0
H899 H 0.72104 0.57861 0.10245 0.0
H900 H 0.7795 0.62484 0.10026 0.0
C901 C 0.7702 0.67437 0.18038 0.0
C902 C 0.74144 0.62043 0.16236 0.0
C903 C 0.7672 0.69507 0.19309 0.0
C904 C 0.73831 0.55637 0.07594 0.0
C905 C 0.73732 0.57364 0.09472 0.0
C906 C 0.76901 0.6232 0.11769 0.0
C907 C 0.75164 0.66027 0.17512 0.0
C908 C 0.75405 0.64019 0.15776 0.0
C909 C 0.75709 0.58471 0.10291 0.0
C910 C 0.75616 0.60362 0.12206 0.0
H911 H 0.71051 0.69202 0.20356 0.0
H912 H 0.7156 0.65627 0.18094 0.0
H913 H 0.77748 0.65636 0.13069 0.0
H914 H 0.79518 0.55599 0.0658 0.0
H915 H 0.7934 0.58594 0.09833 0.0
C916 C 0.31809 0.74965 0.19297 0.0
C917 C 0.32305 0.74574 0.2197 0.0
C918 C 0.33504 0.75627 0.17544 0.0
C919 C 0.37316 0.77698 0.14332 0.0
H920 H 0.42692 0.73992 0.14837 0.0
C921 C 0.4484 0.7881 0.07233 0.0
C922 C 0.45814 0.76836 0.06203 0.0
C923 C 0.43267 0.78693 0.09279 0.0
C924 C 0.41199 0.75034 0.14666 0.0
H925 H 0.34914 0.74657 0.2495 0.0
H926 H 0.379 0.75834 0.21879 0.0
H927 H 0.39796 0.73715 0.18254 0.0
H928 H 0.45906 0.73187 0.06538 0.0
H929 H 0.43137 0.72984 0.10117 0.0
H930 H 0.38685 0.78969 0.10708 0.0
C931 C 0.36201 0.75624 0.21139 0.0
C932 C 0.39555 0.749 0.16642 0.0
C933 C 0.34494 0.74981 0.229 0.0
C934 C 0.45187 0.74739 0.07285 0.0
C935 C 0.43613 0.74623 0.09345 0.0
C936 C 0.38965 0.7784 0.12365 0.0
C937 C 0.35735 0.75885 0.18427 0.0
C938 C 0.37583 0.76212 0.16481 0.0
C939 C 0.42628 0.76601 0.10355 0.0
C940 C 0.40913 0.76492 0.12494 0.0
H941 H 0.30135 0.7463 0.18538 0.0
H942 H 0.33092 0.75794 0.15468 0.0
H943 H 0.3582 0.78734 0.14157 0.0
H944 H 0.45288 0.80455 0.06459 0.0
H945 H 0.42563 0.80248 0.10034 0.0
C946 C 0.20642 0.2974 0.17829 0.0
C947 C 0.22876 0.29483 0.18707 0.0
C948 C 0.19953 0.31758 0.16609 0.0
C949 C 0.21599 0.37768 0.15784 0.0
H950 H 0.18638 0.37396 0.0897 0.0
C951 C 0.22649 0.44553 0.07859 0.0
C952 C 0.2078 0.45253 0.0636 0.0
C953 C 0.22475 0.42749 0.09623 0.0
C954 C 0.19425 0.37533 0.10893 0.0
H955 H 0.26105 0.31155 0.19109 0.0
H956 H 0.24918 0.34647 0.16994 0.0
H957 H 0.19085 0.33987 0.11673 0.0
H958 H 0.17252 0.44604 0.05546 0.0
H959 H 0.16957 0.41395 0.08625 0.0
H960 H 0.22026 0.41288 0.14963 0.0
C961 C 0.2369 0.33309 0.17239 0.0
C962 C 0.1968 0.35581 0.12442 0.0
C963 C 0.24379 0.31299 0.18427 0.0
C964 C 0.1872 0.44106 0.06677 0.0
C965 C 0.18553 0.42268 0.08429 0.0
C966 C 0.2135 0.39709 0.14238 0.0
C967 C 0.21478 0.3356 0.1629 0.0
C968 C 0.2084 0.35667 0.14864 0.0
C969 C 0.20432 0.41578 0.09925 0.0
C970 C 0.2033 0.396 0.11737 0.0
H971 H 0.19452 0.28362 0.1802 0.0
H972 H 0.18235 0.31906 0.15906 0.0
H973 H 0.22456 0.379 0.17666 0.0
H974 H 0.24261 0.454 0.07673 0.0
H975 H 0.23962 0.42238 0.10714 0.0
C976 C 0.30666 0.23038 0.20601 0.0
C977 C 0.28831 0.23572 0.18955 0.0
C978 C 0.32714 0.22313 0.19515 0.0
C979 C 0.35318 0.20077 0.13362 0.0
H980 H 0.40715 0.23034 0.15924 0.0
C981 C 0.44096 0.18686 0.08526 0.0
C982 C 0.45274 0.20692 0.07973 0.0
C983 C 0.4219 0.18712 0.1017 0.0
C984 C 0.39225 0.22186 0.15191 0.0
H985 H 0.27677 0.23669 0.14894 0.0
H986 H 0.31241 0.22434 0.13003 0.0
H987 H 0.37137 0.23638 0.18184 0.0
H988 H 0.45418 0.24282 0.08791 0.0
H989 H 0.42125 0.24323 0.11634 0.0
H990 H 0.37394 0.18703 0.103 0.0
C991 C 0.31104 0.22559 0.15131 0.0
C992 C 0.37176 0.22515 0.16503 0.0
C993 C 0.29067 0.23293 0.16213 0.0
C994 C 0.44549 0.22704 0.09164 0.0
C995 C 0.42667 0.22726 0.10817 0.0
C996 C 0.3737 0.19742 0.12054 0.0
C997 C 0.32965 0.2209 0.16763 0.0
C998 C 0.35186 0.21509 0.15567 0.0
C999 C 0.41445 0.20739 0.11318 0.0
C1000 C 0.39337 0.20838 0.12914 0.0
H1001 H 0.3054 0.23246 0.22721 0.0
H1002 H 0.34109 0.21949 0.20829 0.0
H1003 H 0.33822 0.19253 0.1261 0.0
H1004 H 0.44611 0.17109 0.07637 0.0
H1005 H 0.41291 0.17149 0.10531 0.0
C1006 C 0.78104 0.31788 0.20823 0.0
C1007 C 0.76043 0.32193 0.22105 0.0
C1008 C 0.79107 0.3348 0.19261 0.0
C1009 C 0.78877 0.3966 0.17809 0.0
H1010 H 0.80575 0.37964 0.10692 0.0
C1011 C 0.78025 0.45643 0.09007 0.0
C1012 C 0.79709 0.45727 0.07055 0.0
C1013 C 0.78135 0.44073 0.11063 0.0
C1014 C 0.80153 0.38462 0.12688 0.0
H1015 H 0.73474 0.34699 0.22873 0.0
H1016 H 0.75204 0.37632 0.20182 0.0
H1017 H 0.7978 0.3503 0.13983 0.0
H1018 H 0.82853 0.44243 0.05752 0.0
H1019 H 0.83022 0.41434 0.09352 0.0
H1020 H 0.79136 0.43086 0.16481 0.0
C1021 C 0.76066 0.36029 0.20372 0.0
C1022 C 0.79699 0.36781 0.14577 0.0
C1023 C 0.75062 0.34342 0.21903 0.0
C1024 C 0.81537 0.44223 0.07235 0.0
C1025 C 0.81627 0.42612 0.09283 0.0
C1026 C 0.79319 0.41333 0.15924 0.0
C1027 C 0.78078 0.35612 0.18987 0.0
C1028 C 0.78976 0.37362 0.17135 0.0
C1029 C 0.79918 0.4252 0.11214 0.0
C1030 C 0.79885 0.40754 0.13317 0.0
H1031 H 0.78887 0.3014 0.20937 0.0
H1032 H 0.80664 0.33109 0.18233 0.0
H1033 H 0.78375 0.40169 0.19776 0.0
H1034 H 0.76598 0.46783 0.08934 0.0
H1035 H 0.76777 0.4403 0.12495 0.0
C1036 C 0.67905 0.7619 0.19333 0.0
C1037 C 0.70036 0.77196 0.19066 0.0
C1038 C 0.6608 0.76968 0.17856 0.0
C1039 C 0.63745 0.8152 0.1372 0.0
H1040 H 0.60784 0.76509 0.10252 0.0
C1041 C 0.56687 0.82306 0.05563 0.0
C1042 C 0.54986 0.80656 0.05701 0.0
C1043 C 0.58532 0.82215 0.07308 0.0
C1044 C 0.6157 0.77931 0.11225 0.0
H1045 H 0.71899 0.79904 0.17184 0.0
H1046 H 0.68675 0.81279 0.14568 0.0
H1047 H 0.63966 0.75794 0.13138 0.0
H1048 H 0.53772 0.77754 0.079 0.0
H1049 H 0.56916 0.77637 0.10958 0.0
H1050 H 0.61304 0.83653 0.11794 0.0
C1051 C 0.68429 0.79886 0.15932 0.0
C1052 C 0.63399 0.77519 0.12878 0.0
C1053 C 0.7027 0.79104 0.17426 0.0
C1054 C 0.55078 0.79024 0.07716 0.0
C1055 C 0.56889 0.78949 0.0946 0.0
C1056 C 0.61889 0.81936 0.1206 0.0
C1057 C 0.66339 0.78768 0.16064 0.0
C1058 C 0.64482 0.79297 0.1419 0.0
C1059 C 0.58685 0.80483 0.09217 0.0
C1060 C 0.60752 0.80134 0.1084 0.0
H1061 H 0.67673 0.74736 0.20611 0.0
H1062 H 0.64478 0.76102 0.18044 0.0
H1063 H 0.64558 0.82923 0.14697 0.0
H1064 H 0.56655 0.83581 0.04024 0.0
H1065 H 0.59886 0.83426 0.07076 0.0
C1066 C 0.25897 0.66983 0.22621 0.0
C1067 C 0.28105 0.67512 0.234 0.0
C1068 C 0.25482 0.65082 0.21056 0.0
C1069 C 0.28486 0.61723 0.16112 0.0
H1070 H 0.23194 0.57891 0.16264 0.0
C1071 C 0.27268 0.54613 0.08501 0.0
C1072 C 0.25087 0.54303 0.07484 0.0
C1073 C 0.27631 0.5603 0.10665 0.0
C1074 C 0.24673 0.58961 0.1618 0.0
H1075 H 0.31574 0.66381 0.23368 0.0
H1076 H 0.3085 0.63043 0.20698 0.0
H1077 H 0.23794 0.60632 0.1979 0.0
H1078 H 0.21573 0.55236 0.07957 0.0
H1079 H 0.22211 0.5774 0.11679 0.0
H1080 H 0.29343 0.60117 0.12479 0.0
C1081 C 0.29445 0.64116 0.2123 0.0
C1082 C 0.25018 0.60525 0.18207 0.0
C1083 C 0.29858 0.66012 0.2278 0.0
C1084 C 0.23276 0.55431 0.08693 0.0
C1085 C 0.2364 0.56856 0.10845 0.0
C1086 C 0.28137 0.60173 0.14085 0.0
C1087 C 0.27271 0.63682 0.20251 0.0
C1088 C 0.26929 0.61928 0.18193 0.0
C1089 C 0.25823 0.57183 0.11855 0.0
C1090 C 0.26222 0.58775 0.14081 0.0
H1091 H 0.24522 0.68128 0.23052 0.0
H1092 H 0.23788 0.64798 0.20331 0.0
H1093 H 0.2995 0.62812 0.16003 0.0
H1094 H 0.28699 0.53757 0.07632 0.0
H1095 H 0.29331 0.56211 0.11412 0.0
C1096 C 0.29047 0.77687 0.86872 0.0
C1097 C 0.28837 0.77276 0.84149 0.0
C1098 C 0.31092 0.78416 0.87941 0.0
C1099 C 0.37201 0.78347 0.86582 0.0
H1100 H 0.37423 0.82251 0.92704 0.0
C1101 C 0.44604 0.78231 0.9383 0.0
C1102 C 0.45304 0.80229 0.95073 0.0
C1103 C 0.42722 0.78212 0.92182 0.0
C1104 C 0.374 0.81189 0.9097 0.0
H1105 H 0.30616 0.77361 0.80406 0.0
H1106 H 0.34175 0.78683 0.82262 0.0
H1107 H 0.33854 0.81675 0.90409 0.0
H1108 H 0.446 0.83798 0.95491 0.0
H1109 H 0.41288 0.83768 0.92584 0.0
H1110 H 0.40741 0.77855 0.87144 0.0
C1111 C 0.3276 0.7841 0.83579 0.0
C1112 C 0.35346 0.80833 0.89673 0.0
C1113 C 0.30711 0.77674 0.82509 0.0
C1114 C 0.44105 0.82231 0.94563 0.0
C1115 C 0.42202 0.8221 0.92912 0.0
C1116 C 0.39252 0.78707 0.87873 0.0
C1117 C 0.32986 0.78764 0.86315 0.0
C1118 C 0.35209 0.79363 0.87502 0.0
C1119 C 0.41477 0.80191 0.91722 0.0
C1120 C 0.39368 0.80083 0.90127 0.0
H1121 H 0.2763 0.77427 0.88189 0.0
H1122 H 0.31203 0.78641 0.90058 0.0
H1123 H 0.37165 0.77194 0.8493 0.0
H1124 H 0.45487 0.76655 0.94168 0.0
H1125 H 0.422 0.76619 0.9134 0.0
C1126 C 0.25823 0.31988 0.82749 0.0
C1127 C 0.26969 0.3217 0.80333 0.0
C1128 C 0.2528 0.33911 0.84191 0.0
C1129 C 0.23597 0.38263 0.86548 0.0
H1130 H 0.28424 0.4262 0.87327 0.0
C1131 C 0.2275 0.45774 0.93667 0.0
C1132 C 0.24645 0.46296 0.95216 0.0
C1133 C 0.22927 0.44288 0.91541 0.0
C1134 C 0.27061 0.41416 0.87139 0.0
H1135 H 0.28384 0.34491 0.7747 0.0
H1136 H 0.27413 0.37893 0.79992 0.0
H1137 H 0.28793 0.39587 0.84113 0.0
H1138 H 0.28225 0.45693 0.95711 0.0
H1139 H 0.28526 0.43055 0.92041 0.0
H1140 H 0.21912 0.40011 0.89656 0.0
C1141 C 0.26945 0.36255 0.80776 0.0
C1142 C 0.27258 0.39695 0.85266 0.0
C1143 C 0.27478 0.34318 0.79318 0.0
C1144 C 0.26733 0.45329 0.94556 0.0
C1145 C 0.26907 0.43828 0.92437 0.0
C1146 C 0.23402 0.39976 0.88421 0.0
C1147 C 0.25882 0.36068 0.83259 0.0
C1148 C 0.25547 0.3807 0.84985 0.0
C1149 C 0.25 0.43269 0.90917 0.0
C1150 C 0.25148 0.41554 0.88776 0.0
H1151 H 0.25435 0.30344 0.83578 0.0
H1152 H 0.24492 0.33694 0.86106 0.0
H1153 H 0.22235 0.37056 0.86364 0.0
H1154 H 0.21119 0.46506 0.941 0.0
H1155 H 0.21432 0.43934 0.90389 0.0
C1156 C 0.69896 0.20639 0.85242 0.0
C1157 C 0.69556 0.22606 0.83735 0.0
C1158 C 0.68102 0.19679 0.86671 0.0
C1159 C 0.61832 0.19879 0.87412 0.0
H1160 H 0.6303 0.18711 0.94826 0.0
C1161 C 0.55351 0.21409 0.95528 0.0
C1162 C 0.5508 0.19821 0.97574 0.0
C1163 C 0.57048 0.21155 0.93648 0.0
C1164 C 0.62673 0.18984 0.9275 0.0
H1165 H 0.67073 0.25036 0.8241 0.0
H1166 H 0.63968 0.23387 0.84877 0.0
H1167 H 0.66176 0.19294 0.91772 0.0
H1168 H 0.56368 0.16704 0.99241 0.0
H1169 H 0.59409 0.16291 0.95964 0.0
H1170 H 0.58329 0.19709 0.88423 0.0
C1171 C 0.65595 0.22563 0.84966 0.0
C1172 C 0.64475 0.19314 0.90996 0.0
C1173 C 0.67379 0.23522 0.83564 0.0
C1174 C 0.56535 0.17949 0.9768 0.0
C1175 C 0.58275 0.17717 0.95816 0.0
C1176 C 0.60037 0.19569 0.89164 0.0
C1177 C 0.65938 0.20658 0.86585 0.0
C1178 C 0.64072 0.19851 0.88325 0.0
C1179 C 0.58545 0.19323 0.93783 0.0
C1180 C 0.60437 0.19198 0.91867 0.0
H1181 H 0.71563 0.19908 0.85411 0.0
H1182 H 0.68418 0.18203 0.87884 0.0
H1183 H 0.6146 0.20237 0.85358 0.0
H1184 H 0.54252 0.22865 0.95382 0.0
H1185 H 0.57231 0.22435 0.92127 0.0
C1186 C 0.77843 0.6778 0.80616 0.0
C1187 C 0.75544 0.67859 0.79953 0.0
C1188 C 0.78712 0.65946 0.82058 0.0
C1189 C 0.77391 0.60083 0.84273 0.0
H1190 H 0.80779 0.61645 0.90556 0.0
C1191 C 0.77209 0.5463 0.93594 0.0
C1192 C 0.79183 0.54287 0.9508 0.0
C1193 C 0.77186 0.56114 0.91449 0.0
C1194 C 0.79874 0.61171 0.88786 0.0
H1195 H 0.72382 0.66044 0.80142 0.0
H1196 H 0.73885 0.62848 0.82616 0.0
H1197 H 0.79998 0.64537 0.87216 0.0
H1198 H 0.82696 0.55236 0.95454 0.0
H1199 H 0.82647 0.57883 0.91692 0.0
H1200 H 0.77187 0.56744 0.85887 0.0
C1201 C 0.7503 0.64185 0.82033 0.0
C1202 C 0.79427 0.62828 0.86867 0.0
C1203 C 0.74162 0.6602 0.80623 0.0
C1204 C 0.8115 0.55461 0.94347 0.0
C1205 C 0.81119 0.5698 0.92202 0.0
C1206 C 0.77834 0.58433 0.86186 0.0
C1207 C 0.77302 0.64148 0.8283 0.0
C1208 C 0.78115 0.6232 0.84629 0.0
C1209 C 0.79132 0.57317 0.90728 0.0
C1210 C 0.79015 0.58974 0.88507 0.0
H1211 H 0.78938 0.69188 0.80144 0.0
H1212 H 0.80473 0.65961 0.82622 0.0
H1213 H 0.76417 0.59621 0.82548 0.0
H1214 H 0.75662 0.53753 0.9409 0.0
H1215 H 0.75618 0.56358 0.90389 0.0
loop_
_geom_bond_atom_site_label_1
_geom_bond_atom_site_label_2
_geom_bond_distance
_geom_bond_site_symmetry_2
_ccdc_geom_bond_type
H0 C6 0.930 . S
H1 C9 0.931 . S
H2 C11 0.931 . S
H3 C13 0.930 . S
H4 C15 0.930 . S
H5 C17 0.931 . S
C6 H0 0.930 . S
C6 C7 1.380 . S
C6 C8 1.394 . S
C7 C6 1.380 . S
C7 C11 1.382 . S
C8 C6 1.394 . S
C8 C9 1.400 . S
C9 H1 0.931 . S
C9 C8 1.400 . S
C9 C10 1.375 . S
C10 C9 1.375 . S
C10 C11 1.415 . S
C10 C12 1.501 . S
C11 H2 0.931 . S
C11 C7 1.382 . S
C11 C10 1.415 . S
C12 C10 1.501 . S
C12 C13 1.384 . S
C12 C17 1.408 . S
C13 H3 0.930 . S
C13 C12 1.384 . S
C13 C14 1.389 . S
C14 C13 1.389 . S
C14 C15 1.405 . S
C15 H4 0.930 . S
C15 C14 1.405 . S
C15 C16 1.364 . S
C16 C15 1.364 . S
C16 C17 1.400 . S
C17 H5 0.931 . S
C17 C12 1.408 . S
C17 C16 1.400 . S
H18 C24 0.930 . S
H19 C27 0.931 . S
H20 C29 0.931 . S
H21 C31 0.930 . S
H22 C33 0.930 . S
H23 C35 0.931 . S
C24 H18 0.930 . S
C24 C25 1.380 . S
C24 C26 1.394 . S
C25 C24 1.380 . S
C25 C29 1.382 . S
C26 C24 1.394 . S
C26 C27 1.400 . S
C27 H19 0.931 . S
C27 C26 1.400 . S
C27 C28 1.375 . S
C28 C27 1.375 . S
C28 C29 1.415 . S
C28 C30 1.501 . S
C29 H20 0.931 . S
C29 C25 1.382 . S
C29 C28 1.415 . S
C30 C28 1.501 . S
C30 C31 1.384 . S
C30 C35 1.408 . S
C31 H21 0.930 . S
C31 C30 1.384 . S
C31 C32 1.389 . S
C32 C31 1.389 . S
C32 C33 1.405 . S
C33 H22 0.930 . S
C33 C32 1.405 . S
C33 C34 1.364 . S
C34 C33 1.364 . S
C34 C35 1.400 . S
C35 H23 0.931 . S
C35 C30 1.408 . S
C35 C34 1.400 . S
H36 C42 0.930 . S
H37 C45 0.931 . S
H38 C47 0.931 . S
H39 C49 0.930 . S
H40 C51 0.930 . S
H41 C53 0.931 . S
C42 H36 0.930 . S
C42 C43 1.380 . S
C42 C44 1.394 . S
C43 C42 1.380 . S
C43 C47 1.382 . S
C44 C42 1.394 . S
C44 C45 1.400 . S
C45 H37 0.931 . S
C45 C44 1.400 . S
C45 C46 1.375 . S
C46 C45 1.375 . S
C46 C47 1.415 . S
C46 C48 1.501 . S
C47 H38 0.931 . S
C47 C43 1.382 . S
C47 C46 1.415 . S
C48 C46 1.501 . S
C48 C49 1.384 . S
C48 C53 1.408 . S
C49 H39 0.930 . S
C49 C48 1.384 . S
C49 C50 1.389 . S
C50 C49 1.389 . S
C50 C51 1.405 . S
C51 H40 0.930 . S
C51 C50 1.405 . S
C51 C52 1.364 . S
C52 C51 1.364 . S
C52 C53 1.400 . S
C53 H41 0.931 . S
C53 C48 1.408 . S
C53 C52 1.400 . S
H54 C60 0.930 . S
H55 C63 0.931 . S
H56 C65 0.931 . S
H57 C67 0.930 . S
H58 C69 0.930 . S
H59 C71 0.931 . S
C60 H54 0.930 . S
C60 C61 1.380 . S
C60 C62 1.394 . S
C61 C60 1.380 . S
C61 C65 1.382 . S
C62 C60 1.394 . S
C62 C63 1.400 . S
C63 H55 0.931 . S
C63 C62 1.400 . S
C63 C64 1.375 . S
C64 C63 1.375 . S
C64 C65 1.415 . S
C64 C66 1.501 . S
C65 H56 0.931 . S
C65 C61 1.382 . S
C65 C64 1.415 . S
C66 C64 1.501 . S
C66 C67 1.384 . S
C66 C71 1.408 . S
C67 H57 0.930 . S
C67 C66 1.384 . S
C67 C68 1.389 . S
C68 C67 1.389 . S
C68 C69 1.405 . S
C69 H58 0.930 . S
C69 C68 1.405 . S
C69 C70 1.364 . S
C70 C69 1.364 . S
C70 C71 1.400 . S
C71 H59 0.931 . S
C71 C66 1.408 . S
C71 C70 1.400 . S
H72 C78 0.930 . S
H73 C81 0.931 . S
H74 C83 0.931 . S
H75 C85 0.930 . S
H76 C87 0.930 . S
H77 C89 0.931 . S
C78 H72 0.930 . S
C78 C79 1.380 . S
C78 C80 1.394 . S
C79 C78 1.380 . S
C79 C83 1.382 . S
C80 C78 1.394 . S
C80 C81 1.400 . S
C81 H73 0.931 . S
C81 C80 1.400 . S
C81 C82 1.375 . S
C82 C81 1.375 . S
C82 C83 1.415 . S
C82 C84 1.501 . S
C83 H74 0.931 . S
C83 C79 1.382 . S
C83 C82 1.415 . S
C84 C82 1.501 . S
C84 C85 1.384 . S
C84 C89 1.408 . S
C85 H75 0.930 . S
C85 C84 1.384 . S
C85 C86 1.389 . S
C86 C85 1.389 . S
C86 C87 1.405 . S
C87 H76 0.930 . S
C87 C86 1.405 . S
C87 C88 1.364 . S
C88 C87 1.364 . S
C88 C89 1.400 . S
C89 H77 0.931 . S
C89 C84 1.408 . S
C89 C88 1.400 . S
H90 C96 0.930 . S
H91 C99 0.931 . S
H92 C101 0.931 . S
H93 C103 0.930 . S
H94 C105 0.930 . S
H95 C107 0.931 . S
C96 H90 0.930 . S
C96 C97 1.380 . S
C96 C98 1.394 . S
C97 C96 1.380 . S
C97 C101 1.382 . S
C98 C96 1.394 . S
C98 C99 1.400 . S
C99 H91 0.931 . S
C99 C98 1.400 . S
C99 C100 1.375 . S
C100 C99 1.375 . S
C100 C101 1.415 . S
C100 C102 1.501 . S
C101 H92 0.931 . S
C101 C97 1.382 . S
C101 C100 1.415 . S
C102 C100 1.501 . S
C102 C103 1.384 . S
C102 C107 1.408 . S
C103 H93 0.930 . S
C103 C102 1.384 . S
C103 C104 1.389 . S
C104 C103 1.389 . S
C104 C105 1.405 . S
C105 H94 0.930 . S
C105 C104 1.405 . S
C105 C106 1.364 . S
C106 C105 1.364 . S
C106 C107 1.400 . S
C107 H95 0.931 . S
C107 C102 1.408 . S
C107 C106 1.400 . S
H108 C114 0.930 . S
H109 C117 0.931 . S
H110 C119 0.931 . S
H111 C121 0.930 . S
H112 C123 0.930 . S
H113 C125 0.931 . S
C114 H108 0.930 . S
C114 C115 1.380 . S
C114 C116 1.394 . S
C115 C114 1.380 . S
C115 C119 1.382 . S
C116 C114 1.394 . S
C116 C117 1.400 . S
C117 H109 0.931 . S
C117 C116 1.400 . S
C117 C118 1.375 . S
C118 C117 1.375 . S
C118 C119 1.415 . S
C118 C120 1.501 . S
C119 H110 0.931 . S
C119 C115 1.382 . S
C119 C118 1.415 . S
C120 C118 1.501 . S
C120 C121 1.384 . S
C120 C125 1.408 . S
C121 H111 0.930 . S
C121 C120 1.384 . S
C121 C122 1.389 . S
C122 C121 1.389 . S
C122 C123 1.405 . S
C123 H112 0.930 . S
C123 C122 1.405 . S
C123 C124 1.364 . S
C124 C123 1.364 . S
C124 C125 1.400 . S
C125 H113 0.931 . S
C125 C120 1.408 . S
C125 C124 1.400 . S
H126 C132 0.930 . S
H127 C135 0.931 . S
H128 C137 0.931 . S
H129 C139 0.930 . S
H130 C141 0.930 . S
H131 C143 0.931 . S
C132 H126 0.930 . S
C132 C133 1.380 . S
C132 C134 1.394 . S
C133 C132 1.380 . S
C133 C137 1.382 . S
C134 C132 1.394 . S
C134 C135 1.400 . S
C135 H127 0.931 . S
C135 C134 1.400 . S
C135 C136 1.375 . S
C136 C135 1.375 . S
C136 C137 1.415 . S
C136 C138 1.501 . S
C137 H128 0.931 . S
C137 C133 1.382 . S
C137 C136 1.415 . S
C138 C136 1.501 . S
C138 C139 1.384 . S
C138 C143 1.408 . S
C139 H129 0.930 . S
C139 C138 1.384 . S
C139 C140 1.389 . S
C140 C139 1.389 . S
C140 C141 1.405 . S
C141 H130 0.930 . S
C141 C140 1.405 . S
C141 C142 1.364 . S
C142 C141 1.364 . S
C142 C143 1.400 . S
C143 H131 0.931 . S
C143 C138 1.408 . S
C143 C142 1.400 . S
C144 O146 1.247 . S
C144 O148 1.258 . S
C145 O152 1.247 . S
C145 O153 1.258 . S
O146 C144 1.247 . S
O146 Zn147 2.028 1_655 S
Zn147 O146 2.028 1_455 S
Zn147 O151 2.035 . S
Zn147 O153 2.035 . S
Zn147 O154 2.028 1_455 S
O148 C144 1.258 . S
O148 Zn149 2.035 1_655 S
Zn149 O148 2.035 1_455 S
Zn149 O150 2.028 . S
Zn149 O152 2.028 . S
Zn149 O155 2.035 1_455 S
O150 Zn149 2.028 . S
O150 C156 1.247 . S
O151 Zn147 2.035 . S
O151 C156 1.258 . S
O152 C145 1.247 . S
O152 Zn149 2.028 . S
O153 C145 1.258 . S
O153 Zn147 2.035 . S
O154 Zn147 2.028 1_655 S
O154 C157 1.247 . S
O155 Zn149 2.035 1_655 S
O155 C157 1.258 . S
C156 O150 1.247 . S
C156 O151 1.258 . S
C157 O154 1.247 . S
C157 O155 1.258 . S
C158 O160 1.247 . S
C158 O162 1.258 . S
C159 O166 1.247 . S
C159 O167 1.258 . S
O160 C158 1.247 . S
O160 Zn161 2.028 . S
Zn161 O160 2.028 . S
Zn161 O165 2.035 1_545 S
Zn161 O167 2.035 1_545 S
Zn161 O168 2.028 . S
O162 C158 1.258 . S
O162 Zn163 2.070 . S
Zn163 O162 2.070 . S
Zn163 O164 1.994 1_545 S
Zn163 O166 1.994 1_545 S
Zn163 O169 2.070 . S
O164 Zn163 1.994 1_565 S
O164 C170 1.247 . S
O165 Zn161 2.035 1_565 S
O165 C170 1.258 . S
O166 C159 1.247 . S
O166 Zn163 1.994 1_565 S
O167 C159 1.258 . S
O167 Zn161 2.035 1_565 S
O168 Zn161 2.028 . S
O168 C171 1.247 . S
O169 Zn163 2.070 . S
O169 C171 1.258 . S
C170 O164 1.247 . S
C170 O165 1.258 . S
C171 O168 1.247 . S
C171 O169 1.258 . S
C172 O174 1.247 . S
C172 O176 1.258 . S
C173 O180 1.247 . S
C173 O181 1.258 . S
O174 C172 1.247 . S
O174 Zn175 2.028 1_655 S
Zn175 O174 2.028 1_455 S
Zn175 O179 2.035 . S
Zn175 O181 2.035 . S
Zn175 O182 2.028 1_455 S
O176 C172 1.258 . S
O176 Zn177 2.035 1_655 S
Zn177 O176 2.035 1_455 S
Zn177 O178 2.028 . S
Zn177 O180 2.028 . S
Zn177 O183 2.035 1_455 S
O178 Zn177 2.028 . S
O178 C184 1.247 . S
O179 Zn175 2.035 . S
O179 C184 1.258 . S
O180 C173 1.247 . S
O180 Zn177 2.028 . S
O181 C173 1.258 . S
O181 Zn175 2.035 . S
O182 Zn175 2.028 1_655 S
O182 C185 1.247 . S
O183 Zn177 2.035 1_655 S
O183 C185 1.258 . S
C184 O178 1.247 . S
C184 O179 1.258 . S
C185 O182 1.247 . S
C185 O183 1.258 . S
C186 O188 1.247 . S
C186 O190 1.258 . S
C187 O194 1.247 . S
C187 O195 1.258 . S
O188 C186 1.247 . S
O188 Zn189 2.060 . S
Zn189 O188 2.060 . S
Zn189 O193 2.003 1_545 S
Zn189 O195 2.003 1_545 S
Zn189 O196 2.060 . S
O190 C186 1.258 . S
O190 Zn191 2.053 . S
Zn191 O190 2.053 . S
Zn191 O192 2.010 1_545 S
Zn191 O194 2.010 1_545 S
Zn191 O197 2.053 . S
O192 Zn191 2.010 1_565 S
O192 C198 1.247 . S
O193 Zn189 2.003 1_565 S
O193 C198 1.258 . S
O194 C187 1.247 . S
O194 Zn191 2.010 1_565 S
O195 C187 1.258 . S
O195 Zn189 2.003 1_565 S
O196 Zn189 2.060 . S
O196 C199 1.247 . S
O197 Zn191 2.053 . S
O197 C199 1.258 . S
C198 O192 1.247 . S
C198 O193 1.258 . S
C199 O196 1.247 . S
C199 O197 1.258 . S
C200 O202 1.247 . S
C200 O204 1.258 . S
C201 O208 1.247 . S
C201 O209 1.258 . S
O202 C200 1.247 . S
O202 Zn203 2.028 . S
Zn203 O202 2.028 . S
Zn203 O207 2.035 . S
Zn203 O209 2.036 1_554 S
Zn203 O210 2.028 1_554 S
O204 C200 1.258 . S
O204 Zn205 2.036 . S
Zn205 O204 2.036 . S
Zn205 O206 2.028 . S
Zn205 O208 2.028 1_554 S
Zn205 O211 2.035 1_554 S
O206 Zn205 2.028 . S
O206 C212 1.247 . S
O207 Zn203 2.035 . S
O207 C212 1.258 . S
O208 C201 1.247 . S
O208 Zn205 2.028 1_556 S
O209 C201 1.258 . S
O209 Zn203 2.036 1_556 S
O210 Zn203 2.028 1_556 S
O210 C213 1.247 . S
O211 Zn205 2.035 1_556 S
O211 C213 1.258 . S
C212 O206 1.247 . S
C212 O207 1.258 . S
C213 O210 1.247 . S
C213 O211 1.258 . S
C214 O216 1.247 . S
C214 O218 1.258 . S
C215 O222 1.247 . S
C215 O223 1.258 . S
O216 C214 1.247 . S
O216 Zn217 2.049 . S
Zn217 O216 2.049 . S
Zn217 O221 2.056 . S
Zn217 O223 2.014 1_554 S
Zn217 O224 2.007 1_554 S
O218 C214 1.258 . S
O218 Zn219 2.059 . S
Zn219 O218 2.059 . S
Zn219 O220 2.052 . S
Zn219 O222 2.004 1_554 S
Zn219 O225 2.012 1_554 S
O220 Zn219 2.052 . S
O220 C226 1.247 . S
O221 Zn217 2.056 . S
O221 C226 1.258 . S
O222 C215 1.247 . S
O222 Zn219 2.004 1_556 S
O223 C215 1.258 . S
O223 Zn217 2.014 1_556 S
O224 Zn217 2.007 1_556 S
O224 C227 1.247 . S
O225 Zn219 2.012 1_556 S
O225 C227 1.258 . S
C226 O220 1.247 . S
C226 O221 1.258 . S
C227 O224 1.247 . S
C227 O225 1.258 . S
C228 O230 1.247 . S
C228 O232 1.258 . S
C229 O236 1.247 . S
C229 O237 1.258 . S
O230 C228 1.247 . S
O230 Zn231 2.004 1_556 S
Zn231 O230 2.004 1_554 S
Zn231 O235 2.012 1_554 S
Zn231 O237 2.059 . S
Zn231 O238 2.052 . S
O232 C228 1.258 . S
O232 Zn233 2.011 1_556 S
Zn233 O232 2.011 1_554 S
Zn233 O234 2.004 1_554 S
Zn233 O236 2.053 . S
Zn233 O239 2.060 . S
O234 Zn233 2.004 1_556 S
O234 C240 1.247 . S
O235 Zn231 2.012 1_556 S
O235 C240 1.258 . S
O236 C229 1.247 . S
O236 Zn233 2.053 . S
O237 C229 1.258 . S
O237 Zn231 2.059 . S
O238 Zn231 2.052 . S
O238 C241 1.247 . S
O239 Zn233 2.060 . S
O239 C241 1.258 . S
C240 O234 1.247 . S
C240 O235 1.258 . S
C241 O238 1.247 . S
C241 O239 1.258 . S
C242 O244 1.247 . S
C242 O246 1.258 . S
C243 O250 1.247 . S
C243 O251 1.258 . S
O244 C242 1.247 . S
O244 Zn245 2.038 . S
Zn245 O244 2.038 . S
Zn245 O249 2.045 . S
Zn245 O251 2.026 1_554 S
Zn245 O252 2.018 1_554 S
O246 C242 1.258 . S
O246 Zn247 2.047 . S
Zn247 O246 2.047 . S
Zn247 O248 2.040 . S
Zn247 O250 2.016 1_554 S
Zn247 O253 2.024 1_554 S
O248 Zn247 2.040 . S
O248 C254 1.247 . S
O249 Zn245 2.045 . S
O249 C254 1.258 . S
O250 C243 1.247 . S
O250 Zn247 2.016 1_556 S
O251 C243 1.258 . S
O251 Zn245 2.026 1_556 S
O252 Zn245 2.018 1_556 S
O252 C255 1.247 . S
O253 Zn247 2.024 1_556 S
O253 C255 1.258 . S
C254 O248 1.247 . S
C254 O249 1.258 . S
C255 O252 1.247 . S
C255 O253 1.258 . S
C256 C257 1.349 . S
C256 C258 1.327 . S
C256 H281 0.950 . S
C257 C256 1.349 . S
C257 C273 1.349 . S
C258 C256 1.327 . S
C258 C277 1.429 . S
C258 H282 0.950 . S
C259 C276 1.574 . S
C259 C278 1.368 . S
C259 H283 0.949 . S
H260 C264 0.949 . S
C261 C262 1.349 . S
C261 C263 1.327 . S
C261 H284 0.950 . S
C262 C261 1.349 . S
C262 C274 1.349 . S
C263 C261 1.327 . S
C263 C279 1.429 . S
C263 H285 0.950 . S
C264 H260 0.949 . S
C264 C272 1.574 . S
C264 C280 1.368 . S
H265 C273 0.950 . S
H266 C271 0.950 . S
H267 C272 0.949 . S
H268 C274 0.950 . S
H269 C275 0.950 . S
H270 C276 0.949 . S
C271 H266 0.950 . S
C271 C273 1.327 . S
C271 C277 1.429 . S
C272 C264 1.574 . S
C272 H267 0.949 . S
C272 C278 1.368 . S
C273 C257 1.349 . S
C273 H265 0.950 . S
C273 C271 1.327 . S
C274 C262 1.349 . S
C274 H268 0.950 . S
C274 C275 1.327 . S
C275 H269 0.950 . S
C275 C274 1.327 . S
C275 C279 1.429 . S
C276 C259 1.574 . S
C276 H270 0.949 . S
C276 C280 1.368 . S
C277 C258 1.429 . S
C277 C271 1.429 . S
C277 C278 1.523 . S
C278 C259 1.368 . S
C278 C272 1.368 . S
C278 C277 1.523 . S
C279 C263 1.429 . S
C279 C275 1.429 . S
C279 C280 1.523 . S
C280 C264 1.368 . S
C280 C276 1.368 . S
C280 C279 1.523 . S
H281 C256 0.950 . S
H282 C258 0.950 . S
H283 C259 0.949 . S
H284 C261 0.950 . S
H285 C263 0.950 . S
C286 C287 1.349 . S
C286 C288 1.327 . S
C286 H311 0.950 . S
C287 C286 1.349 . S
C287 C303 1.349 . S
C288 C286 1.327 . S
C288 C307 1.429 . S
C288 H312 0.950 . S
C289 C306 1.574 . S
C289 C308 1.368 . S
C289 H313 0.949 . S
H290 C294 0.949 . S
C291 C292 1.349 . S
C291 C293 1.327 . S
C291 H314 0.950 . S
C292 C291 1.349 . S
C292 C304 1.349 . S
C293 C291 1.327 . S
C293 C309 1.429 . S
C293 H315 0.950 . S
C294 H290 0.949 . S
C294 C302 1.574 . S
C294 C310 1.368 . S
H295 C303 0.950 . S
H296 C301 0.950 . S
H297 C302 0.949 . S
H298 C304 0.950 . S
H299 C305 0.950 . S
H300 C306 0.949 . S
C301 H296 0.950 . S
C301 C303 1.327 . S
C301 C307 1.429 . S
C302 C294 1.574 . S
C302 H297 0.949 . S
C302 C308 1.368 . S
C303 C287 1.349 . S
C303 H295 0.950 . S
C303 C301 1.327 . S
C304 C292 1.349 . S
C304 H298 0.950 . S
C304 C305 1.327 . S
C305 H299 0.950 . S
C305 C304 1.327 . S
C305 C309 1.429 . S
C306 C289 1.574 . S
C306 H300 0.949 . S
C306 C310 1.368 . S
C307 C288 1.429 . S
C307 C301 1.429 . S
C307 C308 1.523 . S
C308 C289 1.368 . S
C308 C302 1.368 . S
C308 C307 1.523 . S
C309 C293 1.429 . S
C309 C305 1.429 . S
C309 C310 1.523 . S
C310 C294 1.368 . S
C310 C306 1.368 . S
C310 C309 1.523 . S
H311 C286 0.950 . S
H312 C288 0.950 . S
H313 C289 0.949 . S
H314 C291 0.950 . S
H315 C293 0.950 . S
C316 C317 1.349 . S
C316 C318 1.327 . S
C316 H341 0.950 . S
C317 C316 1.349 . S
C317 C333 1.349 . S
C318 C316 1.327 . S
C318 C337 1.429 . S
C318 H342 0.950 . S
C319 C336 1.574 . S
C319 C338 1.368 . S
C319 H343 0.949 . S
H320 C324 0.949 . S
C321 C322 1.349 . S
C321 C323 1.327 . S
C321 H344 0.950 . S
C322 C321 1.349 . S
C322 C334 1.349 . S
C323 C321 1.327 . S
C323 C339 1.429 . S
C323 H345 0.950 . S
C324 H320 0.949 . S
C324 C332 1.574 . S
C324 C340 1.368 . S
H325 C333 0.950 . S
H326 C331 0.950 . S
H327 C332 0.949 . S
H328 C334 0.950 . S
H329 C335 0.950 . S
H330 C336 0.949 . S
C331 H326 0.950 . S
C331 C333 1.327 . S
C331 C337 1.429 . S
C332 C324 1.574 . S
C332 H327 0.949 . S
C332 C338 1.368 . S
C333 C317 1.349 . S
C333 H325 0.950 . S
C333 C331 1.327 . S
C334 C322 1.349 . S
C334 H328 0.950 . S
C334 C335 1.327 . S
C335 H329 0.950 . S
C335 C334 1.327 . S
C335 C339 1.429 . S
C336 C319 1.574 . S
C336 H330 0.949 . S
C336 C340 1.368 . S
C337 C318 1.429 . S
C337 C331 1.429 . S
C337 C338 1.523 . S
C338 C319 1.368 . S
C338 C332 1.368 . S
C338 C337 1.523 . S
C339 C323 1.429 . S
C339 C335 1.429 . S
C339 C340 1.523 . S
C340 C324 1.368 . S
C340 C336 1.368 . S
C340 C339 1.523 . S
H341 C316 0.950 . S
H342 C318 0.950 . S
H343 C319 0.949 . S
H344 C321 0.950 . S
H345 C323 0.950 . S
C346 C347 1.349 . S
C346 C348 1.327 . S
C346 H371 0.950 . S
C347 C346 1.349 . S
C347 C363 1.349 . S
C348 C346 1.327 . S
C348 C367 1.429 . S
C348 H372 0.950 . S
C349 C366 1.574 . S
C349 C368 1.368 . S
C349 H373 0.949 . S
H350 C354 0.949 . S
C351 C352 1.349 . S
C351 C353 1.327 . S
C351 H374 0.950 . S
C352 C351 1.349 . S
C352 C364 1.349 . S
C353 C351 1.327 . S
C353 C369 1.429 . S
C353 H375 0.950 . S
C354 H350 0.949 . S
C354 C362 1.574 . S
C354 C370 1.368 . S
H355 C363 0.950 . S
H356 C361 0.950 . S
H357 C362 0.949 . S
H358 C364 0.950 . S
H359 C365 0.950 . S
H360 C366 0.949 . S
C361 H356 0.950 . S
C361 C363 1.327 . S
C361 C367 1.429 . S
C362 C354 1.574 . S
C362 H357 0.949 . S
C362 C368 1.368 . S
C363 C347 1.349 . S
C363 H355 0.950 . S
C363 C361 1.327 . S
C364 C352 1.349 . S
C364 H358 0.950 . S
C364 C365 1.327 . S
C365 H359 0.950 . S
C365 C364 1.327 . S
C365 C369 1.429 . S
C366 C349 1.574 . S
C366 H360 0.949 . S
C366 C370 1.368 . S
C367 C348 1.429 . S
C367 C361 1.429 . S
C367 C368 1.523 . S
C368 C349 1.368 . S
C368 C362 1.368 . S
C368 C367 1.523 . S
C369 C353 1.429 . S
C369 C365 1.429 . S
C369 C370 1.523 . S
C370 C354 1.368 . S
C370 C366 1.368 . S
C370 C369 1.523 . S
H371 C346 0.950 . S
H372 C348 0.950 . S
H373 C349 0.949 . S
H374 C351 0.950 . S
H375 C353 0.950 . S
C376 C377 1.349 . S
C376 C378 1.327 . S
C376 H401 0.950 . S
C377 C376 1.349 . S
C377 C393 1.349 . S
C378 C376 1.327 . S
C378 C397 1.429 . S
C378 H402 0.950 . S
C379 C396 1.574 . S
C379 C398 1.368 . S
C379 H403 0.949 . S
H380 C384 0.949 . S
C381 C382 1.349 . S
C381 C383 1.327 . S
C381 H404 0.950 . S
C382 C381 1.349 . S
C382 C394 1.349 . S
C383 C381 1.327 . S
C383 C399 1.429 . S
C383 H405 0.950 . S
C384 H380 0.949 . S
C384 C392 1.574 . S
C384 C400 1.368 . S
H385 C393 0.950 . S
H386 C391 0.950 . S
H387 C392 0.949 . S
H388 C394 0.950 . S
H389 C395 0.950 . S
H390 C396 0.949 . S
C391 H386 0.950 . S
C391 C393 1.327 . S
C391 C397 1.429 . S
C392 C384 1.574 . S
C392 H387 0.949 . S
C392 C398 1.368 . S
C393 C377 1.349 . S
C393 H385 0.950 . S
C393 C391 1.327 . S
C394 C382 1.349 . S
C394 H388 0.950 . S
C394 C395 1.327 . S
C395 H389 0.950 . S
C395 C394 1.327 . S
C395 C399 1.429 . S
C396 C379 1.574 . S
C396 H390 0.949 . S
C396 C400 1.368 . S
C397 C378 1.429 . S
C397 C391 1.429 . S
C397 C398 1.523 . S
C398 C379 1.368 . S
C398 C392 1.368 . S
C398 C397 1.523 . S
C399 C383 1.429 . S
C399 C395 1.429 . S
C399 C400 1.523 . S
C400 C384 1.368 . S
C400 C396 1.368 . S
C400 C399 1.523 . S
H401 C376 0.950 . S
H402 C378 0.950 . S
H403 C379 0.949 . S
H404 C381 0.950 . S
H405 C383 0.950 . S
C406 C407 1.349 . S
C406 C408 1.327 . S
C406 H431 0.950 . S
C407 C406 1.349 . S
C407 C423 1.349 . S
C408 C406 1.327 . S
C408 C427 1.429 . S
C408 H432 0.950 . S
C409 C426 1.574 . S
C409 C428 1.368 . S
C409 H433 0.949 . S
H410 C414 0.949 . S
C411 C412 1.349 . S
C411 C413 1.327 . S
C411 H434 0.950 . S
C412 C411 1.349 . S
C412 C424 1.349 . S
C413 C411 1.327 . S
C413 C429 1.429 . S
C413 H435 0.950 . S
C414 H410 0.949 . S
C414 C422 1.574 . S
C414 C430 1.368 . S
H415 C423 0.950 . S
H416 C421 0.950 . S
H417 C422 0.949 . S
H418 C424 0.950 . S
H419 C425 0.950 . S
H420 C426 0.949 . S
C421 H416 0.950 . S
C421 C423 1.327 . S
C421 C427 1.429 . S
C422 C414 1.574 . S
C422 H417 0.949 . S
C422 C428 1.368 . S
C423 C407 1.349 . S
C423 H415 0.950 . S
C423 C421 1.327 . S
C424 C412 1.349 . S
C424 H418 0.950 . S
C424 C425 1.327 . S
C425 H419 0.950 . S
C425 C424 1.327 . S
C425 C429 1.429 . S
C426 C409 1.574 . S
C426 H420 0.949 . S
C426 C430 1.368 . S
C427 C408 1.429 . S
C427 C421 1.429 . S
C427 C428 1.523 . S
C428 C409 1.368 . S
C428 C422 1.368 . S
C428 C427 1.523 . S
C429 C413 1.429 . S
C429 C425 1.429 . S
C429 C430 1.523 . S
C430 C414 1.368 . S
C430 C426 1.368 . S
C430 C429 1.523 . S
H431 C406 0.950 . S
H432 C408 0.950 . S
H433 C409 0.949 . S
H434 C411 0.950 . S
H435 C413 0.950 . S
C436 C437 1.349 . S
C436 C438 1.327 . S
C436 H461 0.950 . S
C437 C436 1.349 . S
C437 C453 1.349 . S
C438 C436 1.327 . S
C438 C457 1.429 . S
C438 H462 0.950 . S
C439 C456 1.574 . S
C439 C458 1.368 . S
C439 H463 0.949 . S
H440 C444 0.949 . S
C441 C442 1.349 . S
C441 C443 1.327 . S
C441 H464 0.950 . S
C442 C441 1.349 . S
C442 C454 1.349 . S
C443 C441 1.327 . S
C443 C459 1.429 . S
C443 H465 0.950 . S
C444 H440 0.949 . S
C444 C452 1.574 . S
C444 C460 1.368 . S
H445 C453 0.950 . S
H446 C451 0.950 . S
H447 C452 0.949 . S
H448 C454 0.950 . S
H449 C455 0.950 . S
H450 C456 0.949 . S
C451 H446 0.950 . S
C451 C453 1.327 . S
C451 C457 1.429 . S
C452 C444 1.574 . S
C452 H447 0.949 . S
C452 C458 1.368 . S
C453 C437 1.349 . S
C453 H445 0.950 . S
C453 C451 1.327 . S
C454 C442 1.349 . S
C454 H448 0.950 . S
C454 C455 1.327 . S
C455 H449 0.950 . S
C455 C454 1.327 . S
C455 C459 1.429 . S
C456 C439 1.574 . S
C456 H450 0.949 . S
C456 C460 1.368 . S
C457 C438 1.429 . S
C457 C451 1.429 . S
C457 C458 1.523 . S
C458 C439 1.368 . S
C458 C452 1.368 . S
C458 C457 1.523 . S
C459 C443 1.429 . S
C459 C455 1.429 . S
C459 C460 1.523 . S
C460 C444 1.368 . S
C460 C456 1.368 . S
C460 C459 1.523 . S
H461 C436 0.950 . S
H462 C438 0.950 . S
H463 C439 0.949 . S
H464 C441 0.950 . S
H465 C443 0.950 . S
C466 C467 1.349 . S
C466 C468 1.327 . S
C466 H491 0.950 . S
C467 C466 1.349 . S
C467 C483 1.349 . S
C468 C466 1.327 . S
C468 C487 1.429 . S
C468 H492 0.950 . S
C469 C486 1.574 . S
C469 C488 1.368 . S
C469 H493 0.949 . S
H470 C474 0.949 . S
C471 C472 1.349 . S
C471 C473 1.327 . S
C471 H494 0.950 . S
C472 C471 1.349 . S
C472 C484 1.349 . S
C473 C471 1.327 . S
C473 C489 1.429 . S
C473 H495 0.950 . S
C474 H470 0.949 . S
C474 C482 1.574 . S
C474 C490 1.368 . S
H475 C483 0.950 . S
H476 C481 0.950 . S
H477 C482 0.949 . S
H478 C484 0.950 . S
H479 C485 0.950 . S
H480 C486 0.949 . S
C481 H476 0.950 . S
C481 C483 1.327 . S
C481 C487 1.429 . S
C482 C474 1.574 . S
C482 H477 0.949 . S
C482 C488 1.368 . S
C483 C467 1.349 . S
C483 H475 0.950 . S
C483 C481 1.327 . S
C484 C472 1.349 . S
C484 H478 0.950 . S
C484 C485 1.327 . S
C485 H479 0.950 . S
C485 C484 1.327 . S
C485 C489 1.429 . S
C486 C469 1.574 . S
C486 H480 0.949 . S
C486 C490 1.368 . S
C487 C468 1.429 . S
C487 C481 1.429 . S
C487 C488 1.523 . S
C488 C469 1.368 . S
C488 C482 1.368 . S
C488 C487 1.523 . S
C489 C473 1.429 . S
C489 C485 1.429 . S
C489 C490 1.523 . S
C490 C474 1.368 . S
C490 C486 1.368 . S
C490 C489 1.523 . S
H491 C466 0.950 . S
H492 C468 0.950 . S
H493 C469 0.949 . S
H494 C471 0.950 . S
H495 C473 0.950 . S
C496 C497 1.349 . S
C496 C498 1.327 . S
C496 H521 0.950 . S
C497 C496 1.349 . S
C497 C513 1.349 . S
C498 C496 1.327 . S
C498 C517 1.429 . S
C498 H522 0.950 . S
C499 C516 1.574 . S
C499 C518 1.368 . S
C499 H523 0.949 . S
H500 C504 0.949 . S
C501 C502 1.349 . S
C501 C503 1.327 . S
C501 H524 0.950 . S
C502 C501 1.349 . S
C502 C514 1.349 . S
C503 C501 1.327 . S
C503 C519 1.429 . S
C503 H525 0.950 . S
C504 H500 0.949 . S
C504 C512 1.574 . S
C504 C520 1.368 . S
H505 C513 0.950 . S
H506 C511 0.950 . S
H507 C512 0.949 . S
H508 C514 0.950 . S
H509 C515 0.950 . S
H510 C516 0.949 . S
C511 H506 0.950 . S
C511 C513 1.327 . S
C511 C517 1.429 . S
C512 C504 1.574 . S
C512 H507 0.949 . S
C512 C518 1.368 . S
C513 C497 1.349 . S
C513 H505 0.950 . S
C513 C511 1.327 . S
C514 C502 1.349 . S
C514 H508 0.950 . S
C514 C515 1.327 . S
C515 H509 0.950 . S
C515 C514 1.327 . S
C515 C519 1.429 . S
C516 C499 1.574 . S
C516 H510 0.949 . S
C516 C520 1.368 . S
C517 C498 1.429 . S
C517 C511 1.429 . S
C517 C518 1.523 . S
C518 C499 1.368 . S
C518 C512 1.368 . S
C518 C517 1.523 . S
C519 C503 1.429 . S
C519 C515 1.429 . S
C519 C520 1.523 . S
C520 C504 1.368 . S
C520 C516 1.368 . S
C520 C519 1.523 . S
H521 C496 0.950 . S
H522 C498 0.950 . S
H523 C499 0.949 . S
H524 C501 0.950 . S
H525 C503 0.950 . S
C526 C527 1.349 . S
C526 C528 1.327 . S
C526 H551 0.950 . S
C527 C526 1.349 . S
C527 C543 1.349 . S
C528 C526 1.327 . S
C528 C547 1.429 . S
C528 H552 0.950 . S
C529 C546 1.574 . S
C529 C548 1.368 . S
C529 H553 0.949 . S
H530 C534 0.949 . S
C531 C532 1.349 . S
C531 C533 1.327 . S
C531 H554 0.950 . S
C532 C531 1.349 . S
C532 C544 1.349 . S
C533 C531 1.327 . S
C533 C549 1.429 . S
C533 H555 0.950 . S
C534 H530 0.949 . S
C534 C542 1.574 . S
C534 C550 1.368 . S
H535 C543 0.950 . S
H536 C541 0.950 . S
H537 C542 0.949 . S
H538 C544 0.950 . S
H539 C545 0.950 . S
H540 C546 0.949 . S
C541 H536 0.950 . S
C541 C543 1.327 . S
C541 C547 1.429 . S
C542 C534 1.574 . S
C542 H537 0.949 . S
C542 C548 1.368 . S
C543 C527 1.349 . S
C543 H535 0.950 . S
C543 C541 1.327 . S
C544 C532 1.349 . S
C544 H538 0.950 . S
C544 C545 1.327 . S
C545 H539 0.950 . S
C545 C544 1.327 . S
C545 C549 1.429 . S
C546 C529 1.574 . S
C546 H540 0.949 . S
C546 C550 1.368 . S
C547 C528 1.429 . S
C547 C541 1.429 . S
C547 C548 1.523 . S
C548 C529 1.368 . S
C548 C542 1.368 . S
C548 C547 1.523 . S
C549 C533 1.429 . S
C549 C545 1.429 . S
C549 C550 1.523 . S
C550 C534 1.368 . S
C550 C546 1.368 . S
C550 C549 1.523 . S
H551 C526 0.950 . S
H552 C528 0.950 . S
H553 C529 0.949 . S
H554 C531 0.950 . S
H555 C533 0.950 . S
C556 C557 1.349 . S
C556 C558 1.327 . S
C556 H581 0.950 . S
C557 C556 1.349 . S
C557 C573 1.349 . S
C558 C556 1.327 . S
C558 C577 1.429 . S
C558 H582 0.950 . S
C559 C576 1.574 . S
C559 C578 1.368 . S
C559 H583 0.949 . S
H560 C564 0.949 . S
C561 C562 1.349 . S
C561 C563 1.327 . S
C561 H584 0.950 . S
C562 C561 1.349 . S
C562 C574 1.349 . S
C563 C561 1.327 . S
C563 C579 1.429 . S
C563 H585 0.950 . S
C564 H560 0.949 . S
C564 C572 1.574 . S
C564 C580 1.368 . S
H565 C573 0.950 . S
H566 C571 0.950 . S
H567 C572 0.949 . S
H568 C574 0.950 . S
H569 C575 0.950 . S
H570 C576 0.949 . S
C571 H566 0.950 . S
C571 C573 1.327 . S
C571 C577 1.429 . S
C572 C564 1.574 . S
C572 H567 0.949 . S
C572 C578 1.368 . S
C573 C557 1.349 . S
C573 H565 0.950 . S
C573 C571 1.327 . S
C574 C562 1.349 . S
C574 H568 0.950 . S
C574 C575 1.327 . S
C575 H569 0.950 . S
C575 C574 1.327 . S
C575 C579 1.429 . S
C576 C559 1.574 . S
C576 H570 0.949 . S
C576 C580 1.368 . S
C577 C558 1.429 . S
C577 C571 1.429 . S
C577 C578 1.523 . S
C578 C559 1.368 . S
C578 C572 1.368 . S
C578 C577 1.523 . S
C579 C563 1.429 . S
C579 C575 1.429 . S
C579 C580 1.523 . S
C580 C564 1.368 . S
C580 C576 1.368 . S
C580 C579 1.523 . S
H581 C556 0.950 . S
H582 C558 0.950 . S
H583 C559 0.949 . S
H584 C561 0.950 . S
H585 C563 0.950 . S
C586 C587 1.349 . S
C586 C588 1.327 . S
C586 H611 0.950 . S
C587 C586 1.349 . S
C587 C603 1.349 . S
C588 C586 1.327 . S
C588 C607 1.429 . S
C588 H612 0.950 . S
C589 C606 1.574 . S
C589 C608 1.368 . S
C589 H613 0.949 . S
H590 C594 0.949 . S
C591 C592 1.349 . S
C591 C593 1.327 . S
C591 H614 0.950 . S
C592 C591 1.349 . S
C592 C604 1.349 . S
C593 C591 1.327 . S
C593 C609 1.429 . S
C593 H615 0.950 . S
C594 H590 0.949 . S
C594 C602 1.574 . S
C594 C610 1.368 . S
H595 C603 0.950 . S
H596 C601 0.950 . S
H597 C602 0.949 . S
H598 C604 0.950 . S
H599 C605 0.950 . S
H600 C606 0.949 . S
C601 H596 0.950 . S
C601 C603 1.327 . S
C601 C607 1.429 . S
C602 C594 1.574 . S
C602 H597 0.949 . S
C602 C608 1.368 . S
C603 C587 1.349 . S
C603 H595 0.950 . S
C603 C601 1.327 . S
C604 C592 1.349 . S
C604 H598 0.950 . S
C604 C605 1.327 . S
C605 H599 0.950 . S
C605 C604 1.327 . S
C605 C609 1.429 . S
C606 C589 1.574 . S
C606 H600 0.949 . S
C606 C610 1.368 . S
C607 C588 1.429 . S
C607 C601 1.429 . S
C607 C608 1.523 . S
C608 C589 1.368 . S
C608 C602 1.368 . S
C608 C607 1.523 . S
C609 C593 1.429 . S
C609 C605 1.429 . S
C609 C610 1.523 . S
C610 C594 1.368 . S
C610 C606 1.368 . S
C610 C609 1.523 . S
H611 C586 0.950 . S
H612 C588 0.950 . S
H613 C589 0.949 . S
H614 C591 0.950 . S
H615 C593 0.950 . S
C616 C617 1.349 . S
C616 C618 1.327 . S
C616 H641 0.950 . S
C617 C616 1.349 . S
C617 C633 1.349 . S
C618 C616 1.327 . S
C618 C637 1.429 . S
C618 H642 0.950 . S
C619 C636 1.574 . S
C619 C638 1.368 . S
C619 H643 0.949 . S
H620 C624 0.949 . S
C621 C622 1.349 . S
C621 C623 1.327 . S
C621 H644 0.950 . S
C622 C621 1.349 . S
C622 C634 1.349 . S
C623 C621 1.327 . S
C623 C639 1.429 . S
C623 H645 0.950 . S
C624 H620 0.949 . S
C624 C632 1.574 . S
C624 C640 1.368 . S
H625 C633 0.950 . S
H626 C631 0.950 . S
H627 C632 0.949 . S
H628 C634 0.950 . S
H629 C635 0.950 . S
H630 C636 0.949 . S
C631 H626 0.950 . S
C631 C633 1.327 . S
C631 C637 1.429 . S
C632 C624 1.574 . S
C632 H627 0.949 . S
C632 C638 1.368 . S
C633 C617 1.349 . S
C633 H625 0.950 . S
C633 C631 1.327 . S
C634 C622 1.349 . S
C634 H628 0.950 . S
C634 C635 1.327 . S
C635 H629 0.950 . S
C635 C634 1.327 . S
C635 C639 1.429 . S
C636 C619 1.574 . S
C636 H630 0.949 . S
C636 C640 1.368 . S
C637 C618 1.429 . S
C637 C631 1.429 . S
C637 C638 1.523 . S
C638 C619 1.368 . S
C638 C632 1.368 . S
C638 C637 1.523 . S
C639 C623 1.429 . S
C639 C635 1.429 . S
C639 C640 1.523 . S
C640 C624 1.368 . S
C640 C636 1.368 . S
C640 C639 1.523 . S
H641 C616 0.950 . S
H642 C618 0.950 . S
H643 C619 0.949 . S
H644 C621 0.950 . S
H645 C623 0.950 . S
C646 C647 1.349 . S
C646 C648 1.327 . S
C646 H671 0.950 . S
C647 C646 1.349 . S
C647 C663 1.349 . S
C648 C646 1.327 . S
C648 C667 1.429 . S
C648 H672 0.950 . S
C649 C666 1.574 . S
C649 C668 1.368 . S
C649 H673 0.949 . S
H650 C654 0.949 . S
C651 C652 1.349 . S
C651 C653 1.327 . S
C651 H674 0.950 . S
C652 C651 1.349 . S
C652 C664 1.349 . S
C653 C651 1.327 . S
C653 C669 1.429 . S
C653 H675 0.950 . S
C654 H650 0.949 . S
C654 C662 1.574 . S
C654 C670 1.368 . S
H655 C663 0.950 . S
H656 C661 0.950 . S
H657 C662 0.949 . S
H658 C664 0.950 . S
H659 C665 0.950 . S
H660 C666 0.949 . S
C661 H656 0.950 . S
C661 C663 1.327 . S
C661 C667 1.429 . S
C662 C654 1.574 . S
C662 H657 0.949 . S
C662 C668 1.368 . S
C663 C647 1.349 . S
C663 H655 0.950 . S
C663 C661 1.327 . S
C664 C652 1.349 . S
C664 H658 0.950 . S
C664 C665 1.327 . S
C665 H659 0.950 . S
C665 C664 1.327 . S
C665 C669 1.429 . S
C666 C649 1.574 . S
C666 H660 0.949 . S
C666 C670 1.368 . S
C667 C648 1.429 . S
C667 C661 1.429 . S
C667 C668 1.523 . S
C668 C649 1.368 . S
C668 C662 1.368 . S
C668 C667 1.523 . S
C669 C653 1.429 . S
C669 C665 1.429 . S
C669 C670 1.523 . S
C670 C654 1.368 . S
C670 C666 1.368 . S
C670 C669 1.523 . S
H671 C646 0.950 . S
H672 C648 0.950 . S
H673 C649 0.949 . S
H674 C651 0.950 . S
H675 C653 0.950 . S
C676 C677 1.349 . S
C676 C678 1.327 . S
C676 H701 0.950 . S
C677 C676 1.349 . S
C677 C693 1.349 . S
C678 C676 1.327 . S
C678 C697 1.429 . S
C678 H702 0.950 . S
C679 C696 1.574 . S
C679 C698 1.368 . S
C679 H703 0.949 . S
H680 C684 0.949 . S
C681 C682 1.349 . S
C681 C683 1.327 . S
C681 H704 0.950 . S
C682 C681 1.349 . S
C682 C694 1.349 . S
C683 C681 1.327 . S
C683 C699 1.429 . S
C683 H705 0.950 . S
C684 H680 0.949 . S
C684 C692 1.574 . S
C684 C700 1.368 . S
H685 C693 0.950 . S
H686 C691 0.950 . S
H687 C692 0.949 . S
H688 C694 0.950 . S
H689 C695 0.950 . S
H690 C696 0.949 . S
C691 H686 0.950 . S
C691 C693 1.327 . S
C691 C697 1.429 . S
C692 C684 1.574 . S
C692 H687 0.949 . S
C692 C698 1.368 . S
C693 C677 1.349 . S
C693 H685 0.950 . S
C693 C691 1.327 . S
C694 C682 1.349 . S
C694 H688 0.950 . S
C694 C695 1.327 . S
C695 H689 0.950 . S
C695 C694 1.327 . S
C695 C699 1.429 . S
C696 C679 1.574 . S
C696 H690 0.949 . S
C696 C700 1.368 . S
C697 C678 1.429 . S
C697 C691 1.429 . S
C697 C698 1.523 . S
C698 C679 1.368 . S
C698 C692 1.368 . S
C698 C697 1.523 . S
C699 C683 1.429 . S
C699 C695 1.429 . S
C699 C700 1.523 . S
C700 C684 1.368 . S
C700 C696 1.368 . S
C700 C699 1.523 . S
H701 C676 0.950 . S
H702 C678 0.950 . S
H703 C679 0.949 . S
H704 C681 0.950 . S
H705 C683 0.950 . S
C706 C707 1.349 . S
C706 C708 1.327 . S
C706 H731 0.950 . S
C707 C706 1.349 . S
C707 C723 1.349 . S
C708 C706 1.327 . S
C708 C727 1.429 . S
C708 H732 0.950 . S
C709 C726 1.574 . S
C709 C728 1.368 . S
C709 H733 0.949 . S
H710 C714 0.949 . S
C711 C712 1.349 . S
C711 C713 1.327 . S
C711 H734 0.950 . S
C712 C711 1.349 . S
C712 C724 1.349 . S
C713 C711 1.327 . S
C713 C729 1.429 . S
C713 H735 0.950 . S
C714 H710 0.949 . S
C714 C722 1.574 . S
C714 C730 1.368 . S
H715 C723 0.950 . S
H716 C721 0.950 . S
H717 C722 0.949 . S
H718 C724 0.950 . S
H719 C725 0.950 . S
H720 C726 0.949 . S
C721 H716 0.950 . S
C721 C723 1.327 . S
C721 C727 1.429 . S
C722 C714 1.574 . S
C722 H717 0.949 . S
C722 C728 1.368 . S
C723 C707 1.349 . S
C723 H715 0.950 . S
C723 C721 1.327 . S
C724 C712 1.349 . S
C724 H718 0.950 . S
C724 C725 1.327 . S
C725 H719 0.950 . S
C725 C724 1.327 . S
C725 C729 1.429 . S
C726 C709 1.574 . S
C726 H720 0.949 . S
C726 C730 1.368 . S
C727 C708 1.429 . S
C727 C721 1.429 . S
C727 C728 1.523 . S
C728 C709 1.368 . S
C728 C722 1.368 . S
C728 C727 1.523 . S
C729 C713 1.429 . S
C729 C725 1.429 . S
C729 C730 1.523 . S
C730 C714 1.368 . S
C730 C726 1.368 . S
C730 C729 1.523 . S
H731 C706 0.950 . S
H732 C708 0.950 . S
H733 C709 0.949 . S
H734 C711 0.950 . S
H735 C713 0.950 . S
C736 C737 1.349 . S
C736 C738 1.327 . S
C736 H761 0.950 . S
C737 C736 1.349 . S
C737 C753 1.349 . S
C738 C736 1.327 . S
C738 C757 1.429 . S
C738 H762 0.950 . S
C739 C756 1.574 . S
C739 C758 1.368 . S
C739 H763 0.949 . S
H740 C744 0.949 . S
C741 C742 1.349 . S
C741 C743 1.327 . S
C741 H764 0.950 . S
C742 C741 1.349 . S
C742 C754 1.349 . S
C743 C741 1.327 . S
C743 C759 1.429 . S
C743 H765 0.950 . S
C744 H740 0.949 . S
C744 C752 1.574 . S
C744 C760 1.368 . S
H745 C753 0.950 . S
H746 C751 0.950 . S
H747 C752 0.949 . S
H748 C754 0.950 . S
H749 C755 0.950 . S
H750 C756 0.949 . S
C751 H746 0.950 . S
C751 C753 1.327 . S
C751 C757 1.429 . S
C752 C744 1.574 . S
C752 H747 0.949 . S
C752 C758 1.368 . S
C753 C737 1.349 . S
C753 H745 0.950 . S
C753 C751 1.327 . S
C754 C742 1.349 . S
C754 H748 0.950 . S
C754 C755 1.327 . S
C755 H749 0.950 . S
C755 C754 1.327 . S
C755 C759 1.429 . S
C756 C739 1.574 . S
C756 H750 0.949 . S
C756 C760 1.368 . S
C757 C738 1.429 . S
C757 C751 1.429 . S
C757 C758 1.523 . S
C758 C739 1.368 . S
C758 C752 1.368 . S
C758 C757 1.523 . S
C759 C743 1.429 . S
C759 C755 1.429 . S
C759 C760 1.523 . S
C760 C744 1.368 . S
C760 C756 1.368 . S
C760 C759 1.523 . S
H761 C736 0.950 . S
H762 C738 0.950 . S
H763 C739 0.949 . S
H764 C741 0.950 . S
H765 C743 0.950 . S
C766 C767 1.349 . S
C766 C768 1.327 . S
C766 H791 0.950 . S
C767 C766 1.349 . S
C767 C783 1.349 . S
C768 C766 1.327 . S
C768 C787 1.429 . S
C768 H792 0.950 . S
C769 C786 1.574 . S
C769 C788 1.368 . S
C769 H793 0.949 . S
H770 C774 0.949 . S
C771 C772 1.349 . S
C771 C773 1.327 . S
C771 H794 0.950 . S
C772 C771 1.349 . S
C772 C784 1.349 . S
C773 C771 1.327 . S
C773 C789 1.429 . S
C773 H795 0.950 . S
C774 H770 0.949 . S
C774 C782 1.574 . S
C774 C790 1.368 . S
H775 C783 0.950 . S
H776 C781 0.950 . S
H777 C782 0.949 . S
H778 C784 0.950 . S
H779 C785 0.950 . S
H780 C786 0.949 . S
C781 H776 0.950 . S
C781 C783 1.327 . S
C781 C787 1.429 . S
C782 C774 1.574 . S
C782 H777 0.949 . S
C782 C788 1.368 . S
C783 C767 1.349 . S
C783 H775 0.950 . S
C783 C781 1.327 . S
C784 C772 1.349 . S
C784 H778 0.950 . S
C784 C785 1.327 . S
C785 H779 0.950 . S
C785 C784 1.327 . S
C785 C789 1.429 . S
C786 C769 1.574 . S
C786 H780 0.949 . S
C786 C790 1.368 . S
C787 C768 1.429 . S
C787 C781 1.429 . S
C787 C788 1.523 . S
C788 C769 1.368 . S
C788 C782 1.368 . S
C788 C787 1.523 . S
C789 C773 1.429 . S
C789 C785 1.429 . S
C789 C790 1.523 . S
C790 C774 1.368 . S
C790 C786 1.368 . S
C790 C789 1.523 . S
H791 C766 0.950 . S
H792 C768 0.950 . S
H793 C769 0.949 . S
H794 C771 0.950 . S
H795 C773 0.950 . S
C796 C797 1.349 . S
C796 C798 1.327 . S
C796 H821 0.950 . S
C797 C796 1.349 . S
C797 C813 1.349 . S
C798 C796 1.327 . S
C798 C817 1.429 . S
C798 H822 0.950 . S
C799 C816 1.574 . S
C799 C818 1.368 . S
C799 H823 0.949 . S
H800 C804 0.949 . S
C801 C802 1.349 . S
C801 C803 1.327 . S
C801 H824 0.950 . S
C802 C801 1.349 . S
C802 C814 1.349 . S
C803 C801 1.327 . S
C803 C819 1.429 . S
C803 H825 0.950 . S
C804 H800 0.949 . S
C804 C812 1.574 . S
C804 C820 1.368 . S
H805 C813 0.950 . S
H806 C811 0.950 . S
H807 C812 0.949 . S
H808 C814 0.950 . S
H809 C815 0.950 . S
H810 C816 0.949 . S
C811 H806 0.950 . S
C811 C813 1.327 . S
C811 C817 1.429 . S
C812 C804 1.574 . S
C812 H807 0.949 . S
C812 C818 1.368 . S
C813 C797 1.349 . S
C813 H805 0.950 . S
C813 C811 1.327 . S
C814 C802 1.349 . S
C814 H808 0.950 . S
C814 C815 1.327 . S
C815 H809 0.950 . S
C815 C814 1.327 . S
C815 C819 1.429 . S
C816 C799 1.574 . S
C816 H810 0.949 . S
C816 C820 1.368 . S
C817 C798 1.429 . S
C817 C811 1.429 . S
C817 C818 1.523 . S
C818 C799 1.368 . S
C818 C812 1.368 . S
C818 C817 1.523 . S
C819 C803 1.429 . S
C819 C815 1.429 . S
C819 C820 1.523 . S
C820 C804 1.368 . S
C820 C816 1.368 . S
C820 C819 1.523 . S
H821 C796 0.950 . S
H822 C798 0.950 . S
H823 C799 0.949 . S
H824 C801 0.950 . S
H825 C803 0.950 . S
C826 C827 1.349 . S
C826 C828 1.327 . S
C826 H851 0.950 . S
C827 C826 1.349 . S
C827 C843 1.349 . S
C828 C826 1.327 . S
C828 C847 1.429 . S
C828 H852 0.950 . S
C829 C846 1.574 . S
C829 C848 1.368 . S
C829 H853 0.949 . S
H830 C834 0.949 . S
C831 C832 1.349 . S
C831 C833 1.327 . S
C831 H854 0.950 . S
C832 C831 1.349 . S
C832 C844 1.349 . S
C833 C831 1.327 . S
C833 C849 1.429 . S
C833 H855 0.950 . S
C834 H830 0.949 . S
C834 C842 1.574 . S
C834 C850 1.368 . S
H835 C843 0.950 . S
H836 C841 0.950 . S
H837 C842 0.949 . S
H838 C844 0.950 . S
H839 C845 0.950 . S
H840 C846 0.949 . S
C841 H836 0.950 . S
C841 C843 1.327 . S
C841 C847 1.429 . S
C842 C834 1.574 . S
C842 H837 0.949 . S
C842 C848 1.368 . S
C843 C827 1.349 . S
C843 H835 0.950 . S
C843 C841 1.327 . S
C844 C832 1.349 . S
C844 H838 0.950 . S
C844 C845 1.327 . S
C845 H839 0.950 . S
C845 C844 1.327 . S
C845 C849 1.429 . S
C846 C829 1.574 . S
C846 H840 0.949 . S
C846 C850 1.368 . S
C847 C828 1.429 . S
C847 C841 1.429 . S
C847 C848 1.523 . S
C848 C829 1.368 . S
C848 C842 1.368 . S
C848 C847 1.523 . S
C849 C833 1.429 . S
C849 C845 1.429 . S
C849 C850 1.523 . S
C850 C834 1.368 . S
C850 C846 1.368 . S
C850 C849 1.523 . S
H851 C826 0.950 . S
H852 C828 0.950 . S
H853 C829 0.949 . S
H854 C831 0.950 . S
H855 C833 0.950 . S
C856 C857 1.349 . S
C856 C858 1.327 . S
C856 H881 0.950 . S
C857 C856 1.349 . S
C857 C873 1.349 . S
C858 C856 1.327 . S
C858 C877 1.429 . S
C858 H882 0.950 . S
C859 C876 1.574 . S
C859 C878 1.368 . S
C859 H883 0.949 . S
H860 C864 0.949 . S
C861 C862 1.349 . S
C861 C863 1.327 . S
C861 H884 0.950 . S
C862 C861 1.349 . S
C862 C874 1.349 . S
C863 C861 1.327 . S
C863 C879 1.429 . S
C863 H885 0.950 . S
C864 H860 0.949 . S
C864 C872 1.574 . S
C864 C880 1.368 . S
H865 C873 0.950 . S
H866 C871 0.950 . S
H867 C872 0.949 . S
H868 C874 0.950 . S
H869 C875 0.950 . S
H870 C876 0.949 . S
C871 H866 0.950 . S
C871 C873 1.327 . S
C871 C877 1.429 . S
C872 C864 1.574 . S
C872 H867 0.949 . S
C872 C878 1.368 . S
C873 C857 1.349 . S
C873 H865 0.950 . S
C873 C871 1.327 . S
C874 C862 1.349 . S
C874 H868 0.950 . S
C874 C875 1.327 . S
C875 H869 0.950 . S
C875 C874 1.327 . S
C875 C879 1.429 . S
C876 C859 1.574 . S
C876 H870 0.949 . S
C876 C880 1.368 . S
C877 C858 1.429 . S
C877 C871 1.429 . S
C877 C878 1.523 . S
C878 C859 1.368 . S
C878 C872 1.368 . S
C878 C877 1.523 . S
C879 C863 1.429 . S
C879 C875 1.429 . S
C879 C880 1.523 . S
C880 C864 1.368 . S
C880 C876 1.368 . S
C880 C879 1.523 . S
H881 C856 0.950 . S
H882 C858 0.950 . S
H883 C859 0.949 . S
H884 C861 0.950 . S
H885 C863 0.950 . S
C886 C887 1.349 . S
C886 C888 1.327 . S
C886 H911 0.950 . S
C887 C886 1.349 . S
C887 C903 1.349 . S
C888 C886 1.327 . S
C888 C907 1.429 . S
C888 H912 0.950 . S
C889 C906 1.574 . S
C889 C908 1.368 . S
C889 H913 0.949 . S
H890 C894 0.949 . S
C891 C892 1.349 . S
C891 C893 1.327 . S
C891 H914 0.950 . S
C892 C891 1.349 . S
C892 C904 1.349 . S
C893 C891 1.327 . S
C893 C909 1.429 . S
C893 H915 0.950 . S
C894 H890 0.949 . S
C894 C902 1.574 . S
C894 C910 1.368 . S
H895 C903 0.950 . S
H896 C901 0.950 . S
H897 C902 0.949 . S
H898 C904 0.950 . S
H899 C905 0.950 . S
H900 C906 0.949 . S
C901 H896 0.950 . S
C901 C903 1.327 . S
C901 C907 1.429 . S
C902 C894 1.574 . S
C902 H897 0.949 . S
C902 C908 1.368 . S
C903 C887 1.349 . S
C903 H895 0.950 . S
C903 C901 1.327 . S
C904 C892 1.349 . S
C904 H898 0.950 . S
C904 C905 1.327 . S
C905 H899 0.950 . S
C905 C904 1.327 . S
C905 C909 1.429 . S
C906 C889 1.574 . S
C906 H900 0.949 . S
C906 C910 1.368 . S
C907 C888 1.429 . S
C907 C901 1.429 . S
C907 C908 1.523 . S
C908 C889 1.368 . S
C908 C902 1.368 . S
C908 C907 1.523 . S
C909 C893 1.429 . S
C909 C905 1.429 . S
C909 C910 1.523 . S
C910 C894 1.368 . S
C910 C906 1.368 . S
C910 C909 1.523 . S
H911 C886 0.950 . S
H912 C888 0.950 . S
H913 C889 0.949 . S
H914 C891 0.950 . S
H915 C893 0.950 . S
C916 C917 1.349 . S
C916 C918 1.327 . S
C916 H941 0.950 . S
C917 C916 1.349 . S
C917 C933 1.349 . S
C918 C916 1.327 . S
C918 C937 1.429 . S
C918 H942 0.950 . S
C919 C936 1.574 . S
C919 C938 1.368 . S
C919 H943 0.949 . S
H920 C924 0.949 . S
C921 C922 1.349 . S
C921 C923 1.327 . S
C921 H944 0.950 . S
C922 C921 1.349 . S
C922 C934 1.349 . S
C923 C921 1.327 . S
C923 C939 1.429 . S
C923 H945 0.950 . S
C924 H920 0.949 . S
C924 C932 1.574 . S
C924 C940 1.368 . S
H925 C933 0.950 . S
H926 C931 0.950 . S
H927 C932 0.949 . S
H928 C934 0.950 . S
H929 C935 0.950 . S
H930 C936 0.949 . S
C931 H926 0.950 . S
C931 C933 1.327 . S
C931 C937 1.429 . S
C932 C924 1.574 . S
C932 H927 0.949 . S
C932 C938 1.368 . S
C933 C917 1.349 . S
C933 H925 0.950 . S
C933 C931 1.327 . S
C934 C922 1.349 . S
C934 H928 0.950 . S
C934 C935 1.327 . S
C935 H929 0.950 . S
C935 C934 1.327 . S
C935 C939 1.429 . S
C936 C919 1.574 . S
C936 H930 0.949 . S
C936 C940 1.368 . S
C937 C918 1.429 . S
C937 C931 1.429 . S
C937 C938 1.523 . S
C938 C919 1.368 . S
C938 C932 1.368 . S
C938 C937 1.523 . S
C939 C923 1.429 . S
C939 C935 1.429 . S
C939 C940 1.523 . S
C940 C924 1.368 . S
C940 C936 1.368 . S
C940 C939 1.523 . S
H941 C916 0.950 . S
H942 C918 0.950 . S
H943 C919 0.949 . S
H944 C921 0.950 . S
H945 C923 0.950 . S
C946 C947 1.349 . S
C946 C948 1.327 . S
C946 H971 0.950 . S
C947 C946 1.349 . S
C947 C963 1.349 . S
C948 C946 1.327 . S
C948 C967 1.429 . S
C948 H972 0.950 . S
C949 C966 1.574 . S
C949 C968 1.368 . S
C949 H973 0.949 . S
H950 C954 0.949 . S
C951 C952 1.349 . S
C951 C953 1.327 . S
C951 H974 0.950 . S
C952 C951 1.349 . S
C952 C964 1.349 . S
C953 C951 1.327 . S
C953 C969 1.429 . S
C953 H975 0.950 . S
C954 H950 0.949 . S
C954 C962 1.574 . S
C954 C970 1.368 . S
H955 C963 0.950 . S
H956 C961 0.950 . S
H957 C962 0.949 . S
H958 C964 0.950 . S
H959 C965 0.950 . S
H960 C966 0.949 . S
C961 H956 0.950 . S
C961 C963 1.327 . S
C961 C967 1.429 . S
C962 C954 1.574 . S
C962 H957 0.949 . S
C962 C968 1.368 . S
C963 C947 1.349 . S
C963 H955 0.950 . S
C963 C961 1.327 . S
C964 C952 1.349 . S
C964 H958 0.950 . S
C964 C965 1.327 . S
C965 H959 0.950 . S
C965 C964 1.327 . S
C965 C969 1.429 . S
C966 C949 1.574 . S
C966 H960 0.949 . S
C966 C970 1.368 . S
C967 C948 1.429 . S
C967 C961 1.429 . S
C967 C968 1.523 . S
C968 C949 1.368 . S
C968 C962 1.368 . S
C968 C967 1.523 . S
C969 C953 1.429 . S
C969 C965 1.429 . S
C969 C970 1.523 . S
C970 C954 1.368 . S
C970 C966 1.368 . S
C970 C969 1.523 . S
H971 C946 0.950 . S
H972 C948 0.950 . S
H973 C949 0.949 . S
H974 C951 0.950 . S
H975 C953 0.950 . S
C976 C977 1.349 . S
C976 C978 1.327 . S
C976 H1001 0.950 . S
C977 C976 1.349 . S
C977 C993 1.349 . S
C978 C976 1.327 . S
C978 C997 1.429 . S
C978 H1002 0.950 . S
C979 C996 1.574 . S
C979 C998 1.368 . S
C979 H1003 0.949 . S
H980 C984 0.949 . S
C981 C982 1.349 . S
C981 C983 1.327 . S
C981 H1004 0.950 . S
C982 C981 1.349 . S
C982 C994 1.349 . S
C983 C981 1.327 . S
C983 C999 1.429 . S
C983 H1005 0.950 . S
C984 H980 0.949 . S
C984 C992 1.574 . S
C984 C1000 1.368 . S
H985 C993 0.950 . S
H986 C991 0.950 . S
H987 C992 0.949 . S
H988 C994 0.950 . S
H989 C995 0.950 . S
H990 C996 0.949 . S
C991 H986 0.950 . S
C991 C993 1.327 . S
C991 C997 1.429 . S
C992 C984 1.574 . S
C992 H987 0.949 . S
C992 C998 1.368 . S
C993 C977 1.349 . S
C993 H985 0.950 . S
C993 C991 1.327 . S
C994 C982 1.349 . S
C994 H988 0.950 . S
C994 C995 1.327 . S
C995 H989 0.950 . S
C995 C994 1.327 . S
C995 C999 1.429 . S
C996 C979 1.574 . S
C996 H990 0.949 . S
C996 C1000 1.368 . S
C997 C978 1.429 . S
C997 C991 1.429 . S
C997 C998 1.523 . S
C998 C979 1.368 . S
C998 C992 1.368 . S
C998 C997 1.523 . S
C999 C983 1.429 . S
C999 C995 1.429 . S
C999 C1000 1.523 . S
C1000 C984 1.368 . S
C1000 C996 1.368 . S
C1000 C999 1.523 . S
H1001 C976 0.950 . S
H1002 C978 0.950 . S
H1003 C979 0.949 . S
H1004 C981 0.950 . S
H1005 C983 0.950 . S
C1006 C1007 1.349 . S
C1006 C1008 1.327 . S
C1006 H1031 0.950 . S
C1007 C1006 1.349 . S
C1007 C1023 1.349 . S
C1008 C1006 1.327 . S
C1008 C1027 1.429 . S
C1008 H1032 0.950 . S
C1009 C1026 1.574 . S
C1009 C1028 1.368 . S
C1009 H1033 0.949 . S
H1010 C1014 0.949 . S
C1011 C1012 1.349 . S
C1011 C1013 1.327 . S
C1011 H1034 0.950 . S
C1012 C1011 1.349 . S
C1012 C1024 1.349 . S
C1013 C1011 1.327 . S
C1013 C1029 1.429 . S
C1013 H1035 0.950 . S
C1014 H1010 0.949 . S
C1014 C1022 1.574 . S
C1014 C1030 1.368 . S
H1015 C1023 0.950 . S
H1016 C1021 0.950 . S
H1017 C1022 0.949 . S
H1018 C1024 0.950 . S
H1019 C1025 0.950 . S
H1020 C1026 0.949 . S
C1021 H1016 0.950 . S
C1021 C1023 1.327 . S
C1021 C1027 1.429 . S
C1022 C1014 1.574 . S
C1022 H1017 0.949 . S
C1022 C1028 1.368 . S
C1023 C1007 1.349 . S
C1023 H1015 0.950 . S
C1023 C1021 1.327 . S
C1024 C1012 1.349 . S
C1024 H1018 0.950 . S
C1024 C1025 1.327 . S
C1025 H1019 0.950 . S
C1025 C1024 1.327 . S
C1025 C1029 1.429 . S
C1026 C1009 1.574 . S
C1026 H1020 0.949 . S
C1026 C1030 1.368 . S
C1027 C1008 1.429 . S
C1027 C1021 1.429 . S
C1027 C1028 1.523 . S
C1028 C1009 1.368 . S
C1028 C1022 1.368 . S
C1028 C1027 1.523 . S
C1029 C1013 1.429 . S
C1029 C1025 1.429 . S
C1029 C1030 1.523 . S
C1030 C1014 1.368 . S
C1030 C1026 1.368 . S
C1030 C1029 1.523 . S
H1031 C1006 0.950 . S
H1032 C1008 0.950 . S
H1033 C1009 0.949 . S
H1034 C1011 0.950 . S
H1035 C1013 0.950 . S
C1036 C1037 1.349 . S
C1036 C1038 1.327 . S
C1036 H1061 0.950 . S
C1037 C1036 1.349 . S
C1037 C1053 1.349 . S
C1038 C1036 1.327 . S
C1038 C1057 1.429 . S
C1038 H1062 0.950 . S
C1039 C1056 1.574 . S
C1039 C1058 1.368 . S
C1039 H1063 0.949 . S
H1040 C1044 0.949 . S
C1041 C1042 1.349 . S
C1041 C1043 1.327 . S
C1041 H1064 0.950 . S
C1042 C1041 1.349 . S
C1042 C1054 1.349 . S
C1043 C1041 1.327 . S
C1043 C1059 1.429 . S
C1043 H1065 0.950 . S
C1044 H1040 0.949 . S
C1044 C1052 1.574 . S
C1044 C1060 1.368 . S
H1045 C1053 0.950 . S
H1046 C1051 0.950 . S
H1047 C1052 0.949 . S
H1048 C1054 0.950 . S
H1049 C1055 0.950 . S
H1050 C1056 0.949 . S
C1051 H1046 0.950 . S
C1051 C1053 1.327 . S
C1051 C1057 1.429 . S
C1052 C1044 1.574 . S
C1052 H1047 0.949 . S
C1052 C1058 1.368 . S
C1053 C1037 1.349 . S
C1053 H1045 0.950 . S
C1053 C1051 1.327 . S
C1054 C1042 1.349 . S
C1054 H1048 0.950 . S
C1054 C1055 1.327 . S
C1055 H1049 0.950 . S
C1055 C1054 1.327 . S
C1055 C1059 1.429 . S
C1056 C1039 1.574 . S
C1056 H1050 0.949 . S
C1056 C1060 1.368 . S
C1057 C1038 1.429 . S
C1057 C1051 1.429 . S
C1057 C1058 1.523 . S
C1058 C1039 1.368 . S
C1058 C1052 1.368 . S
C1058 C1057 1.523 . S
C1059 C1043 1.429 . S
C1059 C1055 1.429 . S
C1059 C1060 1.523 . S
C1060 C1044 1.368 . S
C1060 C1056 1.368 . S
C1060 C1059 1.523 . S
H1061 C1036 0.950 . S
H1062 C1038 0.950 . S
H1063 C1039 0.949 . S
H1064 C1041 0.950 . S
H1065 C1043 0.950 . S
C1066 C1067 1.349 . S
C1066 C1068 1.327 . S
C1066 H1091 0.950 . S
C1067 C1066 1.349 . S
C1067 C1083 1.349 . S
C1068 C1066 1.327 . S
C1068 C1087 1.429 . S
C1068 H1092 0.950 . S
C1069 C1086 1.574 . S
C1069 C1088 1.368 . S
C1069 H1093 0.949 . S
H1070 C1074 0.949 . S
C1071 C1072 1.349 . S
C1071 C1073 1.327 . S
C1071 H1094 0.950 . S
C1072 C1071 1.349 . S
C1072 C1084 1.349 . S
C1073 C1071 1.327 . S
C1073 C1089 1.429 . S
C1073 H1095 0.950 . S
C1074 H1070 0.949 . S
C1074 C1082 1.574 . S
C1074 C1090 1.368 . S
H1075 C1083 0.950 . S
H1076 C1081 0.950 . S
H1077 C1082 0.949 . S
H1078 C1084 0.950 . S
H1079 C1085 0.950 . S
H1080 C1086 0.949 . S
C1081 H1076 0.950 . S
C1081 C1083 1.327 . S
C1081 C1087 1.429 . S
C1082 C1074 1.574 . S
C1082 H1077 0.949 . S
C1082 C1088 1.368 . S
C1083 C1067 1.349 . S
C1083 H1075 0.950 . S
C1083 C1081 1.327 . S
C1084 C1072 1.349 . S
C1084 H1078 0.950 . S
C1084 C1085 1.327 . S
C1085 H1079 0.950 . S
C1085 C1084 1.327 . S
C1085 C1089 1.429 . S
C1086 C1069 1.574 . S
C1086 H1080 0.949 . S
C1086 C1090 1.368 . S
C1087 C1068 1.429 . S
C1087 C1081 1.429 . S
C1087 C1088 1.523 . S
C1088 C1069 1.368 . S
C1088 C1082 1.368 . S
C1088 C1087 1.523 . S
C1089 C1073 1.429 . S
C1089 C1085 1.429 . S
C1089 C1090 1.523 . S
C1090 C1074 1.368 . S
C1090 C1086 1.368 . S
C1090 C1089 1.523 . S
H1091 C1066 0.950 . S
H1092 C1068 0.950 . S
H1093 C1069 0.949 . S
H1094 C1071 0.950 . S
H1095 C1073 0.950 . S
C1096 C1097 1.349 . S
C1096 C1098 1.327 . S
C1096 H1121 0.950 . S
C1097 C1096 1.349 . S
C1097 C1113 1.349 . S
C1098 C1096 1.327 . S
C1098 C1117 1.429 . S
C1098 H1122 0.950 . S
C1099 C1116 1.574 . S
C1099 C1118 1.368 . S
C1099 H1123 0.949 . S
H1100 C1104 0.949 . S
C1101 C1102 1.349 . S
C1101 C1103 1.327 . S
C1101 H1124 0.950 . S
C1102 C1101 1.349 . S
C1102 C1114 1.349 . S
C1103 C1101 1.327 . S
C1103 C1119 1.429 . S
C1103 H1125 0.950 . S
C1104 H1100 0.949 . S
C1104 C1112 1.574 . S
C1104 C1120 1.368 . S
H1105 C1113 0.950 . S
H1106 C1111 0.950 . S
H1107 C1112 0.949 . S
H1108 C1114 0.950 . S
H1109 C1115 0.950 . S
H1110 C1116 0.949 . S
C1111 H1106 0.950 . S
C1111 C1113 1.327 . S
C1111 C1117 1.429 . S
C1112 C1104 1.574 . S
C1112 H1107 0.949 . S
C1112 C1118 1.368 . S
C1113 C1097 1.349 . S
C1113 H1105 0.950 . S
C1113 C1111 1.327 . S
C1114 C1102 1.349 . S
C1114 H1108 0.950 . S
C1114 C1115 1.327 . S
C1115 H1109 0.950 . S
C1115 C1114 1.327 . S
C1115 C1119 1.429 . S
C1116 C1099 1.574 . S
C1116 H1110 0.949 . S
C1116 C1120 1.368 . S
C1117 C1098 1.429 . S
C1117 C1111 1.429 . S
C1117 C1118 1.523 . S
C1118 C1099 1.368 . S
C1118 C1112 1.368 . S
C1118 C1117 1.523 . S
C1119 C1103 1.429 . S
C1119 C1115 1.429 . S
C1119 C1120 1.523 . S
C1120 C1104 1.368 . S
C1120 C1116 1.368 . S
C1120 C1119 1.523 . S
H1121 C1096 0.950 . S
H1122 C1098 0.950 . S
H1123 C1099 0.949 . S
H1124 C1101 0.950 . S
H1125 C1103 0.950 . S
C1126 C1127 1.349 . S
C1126 C1128 1.327 . S
C1126 H1151 0.950 . S
C1127 C1126 1.349 . S
C1127 C1143 1.349 . S
C1128 C1126 1.327 . S
C1128 C1147 1.429 . S
C1128 H1152 0.950 . S
C1129 C1146 1.574 . S
C1129 C1148 1.368 . S
C1129 H1153 0.949 . S
H1130 C1134 0.949 . S
C1131 C1132 1.349 . S
C1131 C1133 1.327 . S
C1131 H1154 0.950 . S
C1132 C1131 1.349 . S
C1132 C1144 1.349 . S
C1133 C1131 1.327 . S
C1133 C1149 1.429 . S
C1133 H1155 0.950 . S
C1134 H1130 0.949 . S
C1134 C1142 1.574 . S
C1134 C1150 1.368 . S
H1135 C1143 0.950 . S
H1136 C1141 0.950 . S
H1137 C1142 0.949 . S
H1138 C1144 0.950 . S
H1139 C1145 0.950 . S
H1140 C1146 0.949 . S
C1141 H1136 0.950 . S
C1141 C1143 1.327 . S
C1141 C1147 1.429 . S
C1142 C1134 1.574 . S
C1142 H1137 0.949 . S
C1142 C1148 1.368 . S
C1143 C1127 1.349 . S
C1143 H1135 0.950 . S
C1143 C1141 1.327 . S
C1144 C1132 1.349 . S
C1144 H1138 0.950 . S
C1144 C1145 1.327 . S
C1145 H1139 0.950 . S
C1145 C1144 1.327 . S
C1145 C1149 1.429 . S
C1146 C1129 1.574 . S
C1146 H1140 0.949 . S
C1146 C1150 1.368 . S
C1147 C1128 1.429 . S
C1147 C1141 1.429 . S
C1147 C1148 1.523 . S
C1148 C1129 1.368 . S
C1148 C1142 1.368 . S
C1148 C1147 1.523 . S
C1149 C1133 1.429 . S
C1149 C1145 1.429 . S
C1149 C1150 1.523 . S
C1150 C1134 1.368 . S
C1150 C1146 1.368 . S
C1150 C1149 1.523 . S
H1151 C1126 0.950 . S
H1152 C1128 0.950 . S
H1153 C1129 0.949 . S
H1154 C1131 0.950 . S
H1155 C1133 0.950 . S
C1156 C1157 1.349 . S
C1156 C1158 1.327 . S
C1156 H1181 0.950 . S
C1157 C1156 1.349 . S
C1157 C1173 1.349 . S
C1158 C1156 1.327 . S
C1158 C1177 1.429 . S
C1158 H1182 0.950 . S
C1159 C1176 1.574 . S
C1159 C1178 1.368 . S
C1159 H1183 0.949 . S
H1160 C1164 0.949 . S
C1161 C1162 1.349 . S
C1161 C1163 1.327 . S
C1161 H1184 0.950 . S
C1162 C1161 1.349 . S
C1162 C1174 1.349 . S
C1163 C1161 1.327 . S
C1163 C1179 1.429 . S
C1163 H1185 0.950 . S
C1164 H1160 0.949 . S
C1164 C1172 1.574 . S
C1164 C1180 1.368 . S
H1165 C1173 0.950 . S
H1166 C1171 0.950 . S
H1167 C1172 0.949 . S
H1168 C1174 0.950 . S
H1169 C1175 0.950 . S
H1170 C1176 0.949 . S
C1171 H1166 0.950 . S
C1171 C1173 1.327 . S
C1171 C1177 1.429 . S
C1172 C1164 1.574 . S
C1172 H1167 0.949 . S
C1172 C1178 1.368 . S
C1173 C1157 1.349 . S
C1173 H1165 0.950 . S
C1173 C1171 1.327 . S
C1174 C1162 1.349 . S
C1174 H1168 0.950 . S
C1174 C1175 1.327 . S
C1175 H1169 0.950 . S
C1175 C1174 1.327 . S
C1175 C1179 1.429 . S
C1176 C1159 1.574 . S
C1176 H1170 0.949 . S
C1176 C1180 1.368 . S
C1177 C1158 1.429 . S
C1177 C1171 1.429 . S
C1177 C1178 1.523 . S
C1178 C1159 1.368 . S
C1178 C1172 1.368 . S
C1178 C1177 1.523 . S
C1179 C1163 1.429 . S
C1179 C1175 1.429 . S
C1179 C1180 1.523 . S
C1180 C1164 1.368 . S
C1180 C1176 1.368 . S
C1180 C1179 1.523 . S
H1181 C1156 0.950 . S
H1182 C1158 0.950 . S
H1183 C1159 0.949 . S
H1184 C1161 0.950 . S
H1185 C1163 0.950 . S
C1186 C1187 1.349 . S
C1186 C1188 1.327 . S
C1186 H1211 0.950 . S
C1187 C1186 1.349 . S
C1187 C1203 1.349 . S
C1188 C1186 1.327 . S
C1188 C1207 1.429 . S
C1188 H1212 0.950 . S
C1189 C1206 1.574 . S
C1189 C1208 1.368 . S
C1189 H1213 0.949 . S
H1190 C1194 0.949 . S
C1191 C1192 1.349 . S
C1191 C1193 1.327 . S
C1191 H1214 0.950 . S
C1192 C1191 1.349 . S
C1192 C1204 1.349 . S
C1193 C1191 1.327 . S
C1193 C1209 1.429 . S
C1193 H1215 0.950 . S
C1194 H1190 0.949 . S
C1194 C1202 1.574 . S
C1194 C1210 1.368 . S
H1195 C1203 0.950 . S
H1196 C1201 0.950 . S
H1197 C1202 0.949 . S
H1198 C1204 0.950 . S
H1199 C1205 0.950 . S
H1200 C1206 0.949 . S
C1201 H1196 0.950 . S
C1201 C1203 1.327 . S
C1201 C1207 1.429 . S
C1202 C1194 1.574 . S
C1202 H1197 0.949 . S
C1202 C1208 1.368 . S
C1203 C1187 1.349 . S
C1203 H1195 0.950 . S
C1203 C1201 1.327 . S
C1204 C1192 1.349 . S
C1204 H1198 0.950 . S
C1204 C1205 1.327 . S
C1205 H1199 0.950 . S
C1205 C1204 1.327 . S
C1205 C1209 1.429 . S
C1206 C1189 1.574 . S
C1206 H1200 0.949 . S
C1206 C1210 1.368 . S
C1207 C1188 1.429 . S
C1207 C1201 1.429 . S
C1207 C1208 1.523 . S
C1208 C1189 1.368 . S
C1208 C1202 1.368 . S
C1208 C1207 1.523 . S
C1209 C1193 1.429 . S
C1209 C1205 1.429 . S
C1209 C1210 1.523 . S
C1210 C1194 1.368 . S
C1210 C1206 1.368 . S
C1210 C1209 1.523 . S
H1211 C1186 0.950 . S
H1212 C1188 0.950 . S
H1213 C1189 0.949 . S
H1214 C1191 0.950 . S
H1215 C1193 0.950 . S
C262 C145 1.505 . S
C257 C7 1.445 . S
C292 C171 1.506 . S
C287 C32 1.452 . S
C322 C185 1.501 . S
C317 C44 1.449 . S
C352 C187 1.500 . S
C347 C62 1.447 . S
C377 C88 1.446 . S
C382 C184 1.505 . S
C412 C186 1.503 . S
C407 C106 1.444 . S
C442 C144 1.505 . S
C437 C124 1.446 . S
C472 C170 1.507 . S
C467 C140 1.453 . S
C502 C172 1.504 . S
C497 C142 1.447 . S
C532 C198 1.503 . S
C527 C86 1.449 . S
C562 C156 1.506 . S
C557 C104 1.452 . S
C592 C158 1.506 . S
C587 C122 1.452 . S
C622 C157 1.505 . S
C617 C34 1.447 . S
C652 C159 1.505 . S
C647 C43 1.447 . S
C682 C173 1.501 . S
C677 C61 1.443 . S
C712 C199 1.499 . S
C707 C8 1.447 . S
C742 C201 1.504 . S
C737 C133 1.447 . S
C767 C80 1.452 . S
C772 C227 1.504 . S
C797 C98 1.449 . S
C802 C240 1.501 . S
C827 C116 1.448 . S
C832 C243 1.501 . S
C857 C25 1.446 . S
C862 C241 1.504 . S
C887 C52 1.444 . S
C892 C242 1.503 . S
C917 C70 1.448 . S
C922 C200 1.504 . S
C952 C226 1.507 . S
C947 C14 1.453 . S
C982 C229 1.504 . S
C977 C16 1.446 . S
C1007 C26 1.448 . S
C1012 C254 1.501 . S
C1037 C50 1.452 . S
C1042 C212 1.503 . S
C1067 C68 1.453 . S
C1072 C214 1.506 . S
C1102 C213 1.504 . S
C1097 C79 1.449 . S
C1132 C215 1.505 . S
C1127 C97 1.447 . S
C1157 C115 1.445 . S
C1162 C228 1.503 . S
C1192 C255 1.499 . S
C1187 C134 1.448 . S
