# Generated by pormake.
# Topology anh, (6,3)-cn, num edge types: 1
# Building blocks:
#     Node 0, Type 0, BuildingBlock: BETFEN_clean_sbu_0, # of connection points: 6
#     Node 1, Type 0, BuildingBlock: BETFEN_clean_sbu_0, # of connection points: 6
#     Node 2, Type 0, BuildingBlock: BETFEN_clean_sbu_0, # of connection points: 6
#     Node 3, Type 1, BuildingBlock: ESEHIV_clean_linker_0, # of connection points: 3
#     Node 4, Type 1, BuildingBlock: ESEHIV_clean_linker_0, # of connection points: 3
#     Node 5, Type 1, BuildingBlock: ESEHIV_clean_linker_0, # of connection points: 3
#     Node 6, Type 1, BuildingBlock: ESEHIV_clean_linker_0, # of connection points: 3
#     Node 7, Type 1, BuildingBlock: ESEHIV_clean_linker_0, # of connection points: 3
#     Node 8, Type 1, BuildingBlock: ESEHIV_clean_linker_0, # of connection points: 3
#     Edge 9, Type (0, 1), BuildingBlock: XUDNAN_clean_linker_2, # of connection points: 2
#     Edge 10, Type (0, 1), BuildingBlock: XUDNAN_clean_linker_2, # of connection points: 2
#     Edge 11, Type (0, 1), BuildingBlock: XUDNAN_clean_linker_2, # of connection points: 2
#     Edge 12, Type (0, 1), BuildingBlock: XUDNAN_clean_linker_2, # of connection points: 2
#     Edge 13, Type (0, 1), BuildingBlock: XUDNAN_clean_linker_2, # of connection points: 2
#     Edge 14, Type (0, 1), BuildingBlock: XUDNAN_clean_linker_2, # of connection points: 2
#     Edge 15, Type (0, 1), BuildingBlock: XUDNAN_clean_linker_2, # of connection points: 2
#     Edge 16, Type (0, 1), BuildingBlock: XUDNAN_clean_linker_2, # of connection points: 2
#     Edge 17, Type (0, 1), BuildingBlock: XUDNAN_clean_linker_2, # of connection points: 2
#     Edge 18, Type (0, 1), BuildingBlock: XUDNAN_clean_linker_2, # of connection points: 2
#     Edge 19, Type (0, 1), BuildingBlock: XUDNAN_clean_linker_2, # of connection points: 2
#     Edge 20, Type (0, 1), BuildingBlock: XUDNAN_clean_linker_2, # of connection points: 2
#     Edge 21, Type (0, 1), BuildingBlock: XUDNAN_clean_linker_2, # of connection points: 2
#     Edge 22, Type (0, 1), BuildingBlock: XUDNAN_clean_linker_2, # of connection points: 2
#     Edge 23, Type (0, 1), BuildingBlock: XUDNAN_clean_linker_2, # of connection points: 2
#     Edge 24, Type (0, 1), BuildingBlock: XUDNAN_clean_linker_2, # of connection points: 2
#     Edge 25, Type (0, 1), BuildingBlock: XUDNAN_clean_linker_2, # of connection points: 2
#     Edge 26, Type (0, 1), BuildingBlock: XUDNAN_clean_linker_2, # of connection points: 2
# Relax obj value: 0.216
# Max RMSD: 0.225
# Mean RMSD: 0.165
data_MOF--net-anh--node1-BETFEN_clean_sbu_0--node2-ESEHIV_clean_linker_0--edge1-XUDNAN_clean_linker_2
_symmetry_space_group_name_H-M    P1
_symmetry_Int_Tables_number       1
_symmetry_cell_setting            triclinic
loop_
_symmetry_equiv_pos_as_xyz
'x, y, z'
_cell_length_a     27.340305
_cell_length_b     27.840199
_cell_length_c     51.796836
_cell_angle_alpha  91.569028
_cell_angle_beta   90.3689
_cell_angle_gamma 100.5366
loop_
_atom_site_label
_atom_site_type_symbol
_atom_site_fract_x
_atom_site_fract_y
_atom_site_fract_z
_atom_type_partial_charge
Pr0 Pr 0.08462 0.54583 0.1549 0.0
Pr1 Pr 0.11126 0.65538 0.15574 0.0
C2 C 0.04562 0.45137 0.16262 0.0
C3 C 0.99698 0.42064 0.16801 0.0
C4 C 0.97419 0.38611 0.1493 0.0
C5 C 0.92915 0.35534 0.15446 0.0
C6 C 0.90643 0.35818 0.17855 0.0
C7 C 0.92883 0.3932 0.19712 0.0
C8 C 0.9736 0.42423 0.1919 0.0
C9 C 0.1044 0.58505 0.10629 0.0
C10 C 0.99367 0.61171 0.15239 0.0
C11 C 0.15361 0.74981 0.15029 0.0
C12 C 0.20351 0.77791 0.15642 0.0
C13 C 0.20911 0.82678 0.16505 0.0
C14 C 0.2552 0.85161 0.17445 0.0
C15 C 0.29625 0.82769 0.17556 0.0
C16 C 0.29091 0.77935 0.1659 0.0
C17 C 0.245 0.75473 0.15641 0.0
C18 C 0.08838 0.6166 0.20394 0.0
C19 C 0.20254 0.5888 0.15597 0.0
O20 O 0.06626 0.48164 0.18102 0.0
O21 O 0.05147 0.46972 0.13965 0.0
O22 O 0.07866 0.60153 0.12336 0.0
O23 O 0.12047 0.54654 0.11386 0.0
O24 O 1.02727 0.64964 0.14594 0.0
O25 O 1.00654 0.57038 0.15943 0.0
O26 O 0.15044 0.71698 0.13148 0.0
O27 O 0.12713 0.73415 0.17028 0.0
O28 O 0.11587 0.59996 0.18776 0.0
O29 O 0.07258 0.65461 0.19574 0.0
O30 O 0.16947 0.55005 0.16162 0.0
O31 O 0.18892 0.63061 0.15074 0.0
H32 H 0.99158 0.38245 0.13079 0.0
H33 H 0.91289 0.32835 0.1399 0.0
H34 H 0.91177 0.39647 0.21575 0.0
H35 H 0.99004 0.45059 0.20671 0.0
H36 H 0.17742 0.84514 0.16542 0.0
H37 H 0.25809 0.88872 0.18197 0.0
H38 H 0.322 0.76019 0.16623 0.0
H39 H 0.24165 0.71709 0.14984 0.0
Pr40 Pr 0.57763 0.10064 0.53051 0.0
Pr41 Pr 0.46531 0.08166 0.52226 0.0
C42 C 0.67696 0.13117 0.52817 0.0
C43 C 0.71446 0.17343 0.52097 0.0
C44 C 0.76475 0.16957 0.52176 0.0
C45 C 0.80131 0.20869 0.51467 0.0
C46 C 0.78833 0.25267 0.50667 0.0
C47 C 0.73763 0.2563 0.50571 0.0
C48 C 0.70093 0.21695 0.51284 0.0
C49 C 0.52221 1.07425 0.57435 0.0
C50 C 0.51598 0.19626 0.53213 0.0
C51 C 0.36683 1.04558 0.52195 0.0
C52 C 0.33666 0.9964 0.51765 0.0
C53 C 0.28936 0.99079 0.50613 0.0
C54 C 0.26226 0.94406 0.50004 0.0
C55 C 0.28226 0.90204 0.50515 0.0
C56 C 0.32959 0.90808 0.51699 0.0
C57 C 0.35626 0.95468 0.52332 0.0
C58 C 0.51939 0.11014 0.47852 0.0
C59 C 0.52584 0.98486 0.52406 0.0
O60 O 0.65039 0.10714 0.50926 0.0
O61 O 0.65121 0.13607 0.54897 0.0
O62 O 0.51328 0.10435 0.55809 0.0
O63 O 0.5624 1.05745 0.56893 0.0
O64 O 0.47399 0.16441 0.53417 0.0
O65 O 0.55884 0.18128 0.52807 0.0
O66 O 0.3939 1.0528 0.54314 0.0
O67 O 0.39047 1.06466 0.50176 0.0
O68 O 0.52978 0.079 0.49398 0.0
O69 O 0.47952 0.12645 0.48499 0.0
O70 O 0.56903 1.01531 0.52504 0.0
O71 O 0.48341 1.00141 0.52364 0.0
H72 H 0.7758 0.13608 0.52776 0.0
H73 H 0.83984 0.20424 0.51519 0.0
H74 H 0.72639 0.28974 0.49982 0.0
H75 H 0.66214 0.22045 0.51204 0.0
H76 H 0.27363 1.02257 0.50154 0.0
H77 H 0.22565 0.94094 0.49135 0.0
H78 H 0.34676 0.87688 0.52087 0.0
H79 H 0.39263 0.95806 0.53227 0.0
Pr80 Pr 0.6039 0.57889 0.82873 0.0
Pr81 Pr 0.63072 0.68719 0.84129 0.0
C82 C 0.5848 0.48764 0.80828 0.0
C83 C 0.53802 0.4535 0.80141 0.0
C84 C 0.51281 0.42246 0.81992 0.0
C85 C 0.46739 0.39216 0.8138 0.0
C86 C 0.44616 0.39204 0.78899 0.0
C87 C 0.47152 0.42282 0.77043 0.0
C88 C 0.517 0.45306 0.77654 0.0
C89 C 0.60385 0.60319 0.88129 0.0
C90 C 0.72428 0.63154 0.83617 0.0
C91 C 0.62988 0.77623 0.8619 0.0
C92 C 0.59164 0.8066 0.85901 0.0
C93 C 0.56578 0.80543 0.83544 0.0
C94 C 0.52575 0.82958 0.83317 0.0
C95 C 0.51 0.85482 0.85452 0.0
C96 C 0.53611 0.85618 0.87813 0.0
C97 C 0.57662 0.83214 0.88035 0.0
C98 C 0.63447 0.66503 0.78891 0.0
C99 C 0.50992 0.63551 0.83387 0.0
O100 O 0.59409 0.49704 0.8329 0.0
O101 O 0.59604 0.52642 0.79422 0.0
O102 O 0.63633 0.62133 0.86544 0.0
O103 O 0.57015 0.5697 0.87038 0.0
O104 O 0.70998 0.67027 0.84666 0.0
O105 O 0.69205 0.59418 0.82615 0.0
O106 O 0.61566 0.7363 0.8747 0.0
O107 O 0.65497 0.76925 0.84108 0.0
O108 O 0.60024 0.64514 0.80366 0.0
O109 O 0.66594 0.69916 0.80086 0.0
O110 O 0.52279 0.59374 0.82705 0.0
O111 O 0.54326 0.67448 0.84039 0.0
H112 H 0.52809 0.42156 0.83921 0.0
H113 H 0.44945 0.36804 0.82836 0.0
H114 H 0.45615 0.42365 0.75115 0.0
H115 H 0.53552 0.47635 0.7618 0.0
H116 H 0.57595 0.78511 0.8188 0.0
H117 H 0.50736 0.82863 0.81453 0.0
H118 H 0.52471 0.87503 0.89498 0.0
H119 H 0.59548 0.83254 0.89884 0.0
H120 H 0.54844 1.0366 0.29816 0.0
H121 H 0.6601 0.16518 0.28943 0.0
H122 H 0.60704 1.07355 0.22301 0.0
C123 C 0.5742 1.06009 0.28606 0.0
C124 C 0.57432 1.05026 0.25934 0.0
C125 C 0.60485 0.10172 0.297 0.0
C126 C 0.63674 0.13281 0.28101 0.0
C127 C 0.63813 0.12296 0.25429 0.0
C128 C 0.60638 0.08173 0.24357 0.0
H129 H 0.57879 0.68442 0.59799 0.0
H130 H 0.57366 0.5303 0.60182 0.0
H131 H 0.52535 0.59063 0.53212 0.0
C132 C 0.57104 0.64862 0.58847 0.0
C133 C 0.5519 0.6435 0.56308 0.0
C134 C 0.57852 0.60812 0.60239 0.0
C135 C 0.56775 0.56132 0.59079 0.0
C136 C 0.54919 0.55413 0.56528 0.0
C137 C 0.54022 0.59556 0.55164 0.0
H138 H 1.03394 0.61663 0.91361 0.0
H139 H 0.19188 0.62176 0.91673 0.0
H140 H 0.11786 0.6257 0.84334 0.0
C141 C 0.06893 0.61741 0.90373 0.0
C142 C 0.07014 0.61932 0.87669 0.0
C143 C 0.1126 0.61884 0.91831 0.0
C144 C 0.15789 0.61992 0.90554 0.0
C145 C 0.16014 0.62259 0.87849 0.0
C146 C 0.11619 0.62289 0.86415 0.0
H147 H 0.99594 0.49176 0.39228 0.0
H148 H 0.1029 0.62597 0.3913 0.0
H149 H 0.05192 0.56417 0.46363 0.0
C150 C 1.0191 0.52212 0.40256 0.0
C151 C 1.02107 0.52295 0.4297 0.0
C152 C 0.04826 0.55935 0.38853 0.0
C153 C 0.07998 0.59754 0.402 0.0
C154 C 0.08215 0.59926 0.42916 0.0
C155 C 0.05191 0.5622 0.44272 0.0
H156 H 0.25394 0.08551 0.70359 0.0
H157 H 0.3212 0.97347 0.73724 0.0
H158 H 0.25903 1.07294 0.7858 0.0
C159 C 0.26266 1.06582 0.72025 0.0
C160 C 0.25576 0.08527 0.74498 0.0
C161 C 0.28838 1.02671 0.71703 0.0
C162 C 0.29886 1.00169 0.73906 0.0
C163 C 0.28672 1.01707 0.76393 0.0
C164 C 0.26446 1.05855 0.76661 0.0
H165 H 0.52312 0.60743 0.072 0.0
H166 H 0.68127 0.61405 0.07601 0.0
H167 H 0.59537 0.59641 0.1454 0.0
C168 C 0.55646 0.60654 0.08328 0.0
C169 C 0.55318 0.60055 0.11018 0.0
C170 C 0.60255 0.61193 0.07085 0.0
C171 C 0.64552 0.61013 0.08546 0.0
C172 C 0.64329 0.60457 0.11224 0.0
C173 C 0.59706 0.59997 0.12462 0.0
H174 H 0.27582 0.64738 0.12948 0.0
H175 H 0.24976 0.52107 0.17815 0.0
H176 H 0.33824 0.51357 0.17419 0.0
H177 H 0.3557 0.60055 0.08582 0.0
H178 H 0.3955 0.65871 0.08103 0.0
H179 H 0.33134 0.65628 0.08943 0.0
H180 H 0.35861 0.71439 0.12873 0.0
H181 H 0.42307 0.71684 0.12082 0.0
H182 H 0.40105 0.69837 0.15241 0.0
H183 H 0.42974 0.51888 0.16386 0.0
H184 H 0.51457 0.53306 0.14572 0.0
H185 H 0.47961 0.65436 0.10286 0.0
C186 C 0.28885 0.61863 0.13969 0.0
C187 C 0.25594 0.58513 0.1544 0.0
C188 C 0.27429 0.54724 0.16685 0.0
C189 C 0.32454 0.54282 0.16479 0.0
C190 C 0.35595 0.57634 0.15003 0.0
C191 C 0.33867 0.61333 0.13756 0.0
C192 C 0.37913 0.64278 0.12159 0.0
C193 C 0.36454 0.63935 0.09277 0.0
C194 C 0.39118 0.69626 0.13149 0.0
C195 C 0.42182 0.61637 0.12682 0.0
C196 C 0.40795 0.57852 0.14352 0.0
C197 C 0.44101 0.54853 0.15085 0.0
C198 C 0.4892 0.55698 0.14055 0.0
C199 C 0.50373 0.59471 0.12285 0.0
C200 C 0.46954 0.62501 0.11621 0.0
H201 H 0.78902 0.31516 0.46602 0.0
H202 H 0.87744 0.28452 0.53143 0.0
H203 H 0.9457 0.34988 0.51872 0.0
H204 H 0.88852 0.34057 0.42144 0.0
H205 H 0.86573 0.38977 0.40624 0.0
H206 H 0.82273 0.34136 0.42067 0.0
H207 H 0.78792 0.40481 0.44928 0.0
H208 H 0.83056 0.45345 0.43478 0.0
H209 H 0.82997 0.4478 0.46937 0.0
H210 H 1.00553 0.41572 0.49831 0.0
H211 H 0.05251 0.48095 0.4724 0.0
H212 H 0.92502 0.47235 0.42085 0.0
C213 C 0.82247 0.32265 0.47786 0.0
C214 C 0.82794 0.29432 0.49964 0.0
C215 C 0.87262 0.30503 0.51443 0.0
C216 C 0.91155 0.3423 0.50745 0.0
C217 C 0.9053 0.36887 0.48568 0.0
C218 C 0.86184 0.3599 0.47118 0.0
C219 C 0.86521 0.39378 0.44852 0.0
C220 C 0.86026 0.36461 0.42269 0.0
C221 C 0.8261 0.42693 0.45062 0.0
C222 C 0.91748 0.42285 0.4525 0.0
C223 C 0.93981 0.40776 0.47407 0.0
C224 C 0.98826 0.42828 0.48155 0.0
C225 C 1.01456 0.46557 0.46674 0.0
C226 C 0.9924 0.4824 0.44471 0.0
C227 C 0.94318 0.46032 0.43749 0.0
H228 H 0.42386 0.82472 0.82649 0.0
H229 H 0.50145 0.94489 0.87482 0.0
H230 H 0.4384 0.99391 0.86362 0.0
H231 H 0.40584 0.89308 0.77631 0.0
H232 H 0.34532 0.86005 0.76649 0.0
H233 H 0.38726 0.82946 0.78371 0.0
H234 H 0.32087 0.8048 0.81866 0.0
H235 H 0.27827 0.83511 0.80143 0.0
H236 H 0.29317 0.85113 0.83488 0.0
H237 H 0.38028 1.03556 0.84023 0.0
H238 H 0.33244 1.06707 0.80653 0.0
H239 H 0.29125 0.92091 0.77242 0.0
C240 C 0.42695 0.86096 0.83521 0.0
C241 C 0.46768 0.88097 0.85153 0.0
C242 C 0.47024 0.92841 0.86262 0.0
C243 C 0.43454 0.95659 0.85633 0.0
C244 C 0.3963 0.93666 0.83912 0.0
C245 C 0.392 0.8897 0.82888 0.0
C246 C 0.35229 0.87947 0.80789 0.0
C247 C 0.37401 0.86469 0.78209 0.0
C248 C 0.30854 0.84032 0.81623 0.0
C249 C 0.33738 0.92913 0.80668 0.0
C250 C 0.36219 0.96113 0.82536 0.0
C251 C 0.35933 1.01054 0.82608 0.0
C252 C 0.33166 1.02808 0.80682 0.0
C253 C 0.30719 0.99633 0.78695 0.0
C254 C 0.30896 0.94594 0.7875 0.0
H255 H 0.91473 0.54531 0.1329 0.0
H256 H 0.95347 0.68822 0.1706 0.0
H257 H 0.86485 0.69665 0.16965 0.0
H258 H 0.82913 0.58034 0.08894 0.0
H259 H 0.78687 0.52246 0.08847 0.0
H260 H 0.85187 0.52496 0.09538 0.0
H261 H 0.82916 0.48136 0.13842 0.0
H262 H 0.76399 0.47912 0.1317 0.0
H263 H 0.79131 0.50711 0.16146 0.0
H264 H 0.77235 0.69063 0.16331 0.0
H265 H 0.68579 0.67634 0.14632 0.0
H266 H 0.70847 0.54095 0.10926 0.0
C267 C 0.90424 0.57794 0.14133 0.0
C268 C 0.94057 0.6159 0.15216 0.0
C269 C 0.92597 0.65872 0.16233 0.0
C270 C 0.87575 0.66363 0.16204 0.0
C271 C 0.84068 0.62569 0.1511 0.0
C272 C 0.8544 0.58401 0.14052 0.0
C273 C 0.81043 0.55122 0.12729 0.0
C274 C 0.82017 0.54438 0.09831 0.0
C275 C 0.798 0.50177 0.14051 0.0
C276 C 0.77005 0.58125 0.13176 0.0
C277 C 0.78795 0.62347 0.14612 0.0
C278 C 0.75786 0.65756 0.15219 0.0
C279 C 0.70872 0.64906 0.14265 0.0
C280 C 0.69053 0.60733 0.12685 0.0
C281 C 0.72138 0.5727 0.1217 0.0
H282 H 0.22222 0.87327 0.46224 0.0
H283 H 0.2788 0.81739 0.53174 0.0
H284 H 0.23634 0.73432 0.51897 0.0
H285 H 0.10057 0.79555 0.46376 0.0
H286 H 0.09561 0.78774 0.42912 0.0
H287 H 0.13164 0.84285 0.44337 0.0
H288 H 0.20837 0.8283 0.41724 0.0
H289 H 0.17271 0.77291 0.40309 0.0
H290 H 0.23015 0.7713 0.42003 0.0
H291 H 0.18959 0.65711 0.49839 0.0
H292 H 0.13694 0.59133 0.47284 0.0
H293 H 0.10512 0.69763 0.41825 0.0
C294 C 0.22527 0.84378 0.47499 0.0
C295 C 0.25446 0.85216 0.49794 0.0
C296 C 0.25774 0.81208 0.5138 0.0
C297 C 0.23346 0.76468 0.50679 0.0
C298 C 0.20554 0.75778 0.48398 0.0
C299 C 0.20084 0.79622 0.46844 0.0
C300 C 0.16761 0.77883 0.44519 0.0
C301 C 0.1211 0.80265 0.44539 0.0
C302 C 0.19645 0.78841 0.4199 0.0
C303 C 0.15444 0.72458 0.45013 0.0
C304 C 0.17705 0.71328 0.47252 0.0
C305 C 0.17121 0.66558 0.48098 0.0
C306 C 0.14089 0.62848 0.46638 0.0
C307 C 0.11614 0.63914 0.44365 0.0
C308 C 0.12359 0.688 0.43539 0.0
H309 H 0.42619 0.3367 0.74468 0.0
H310 H 0.36205 0.36739 0.81825 0.0
H311 H 0.29092 0.30028 0.80922 0.0
H312 H 0.30337 0.2933 0.70807 0.0
H313 H 0.3299 0.24719 0.69092 0.0
H314 H 0.36852 0.30484 0.7002 0.0
H315 H 0.42906 0.25902 0.72413 0.0
H316 H 0.39099 0.2018 0.7147 0.0
H317 H 0.40497 0.21603 0.74842 0.0
H318 H 0.23687 0.22036 0.79633 0.0
H319 H 0.20937 0.13407 0.78227 0.0
H320 H 0.30855 0.15764 0.71695 0.0
C321 C 0.39609 0.3308 0.75837 0.0
C322 C 0.39956 0.35741 0.78208 0.0
C323 C 0.36029 0.34726 0.79998 0.0
C324 C 0.31942 0.30959 0.79487 0.0
C325 C 0.31799 0.28284 0.77163 0.0
C326 C 0.35522 0.29339 0.75355 0.0
C327 C 0.34947 0.25496 0.73203 0.0
C328 C 0.33706 0.27637 0.70628 0.0
C329 C 0.39635 0.23158 0.72973 0.0
C330 C 0.30536 0.21935 0.74172 0.0
C331 C 0.28662 0.23658 0.76415 0.0
C332 C 0.25041 0.20698 0.77843 0.0
C333 C 0.23505 0.1579 0.77034 0.0
C334 C 0.25656 0.13875 0.74842 0.0
C335 C 0.28994 0.17098 0.73328 0.0
H336 H 0.59675 0.93366 0.54228 0.0
H337 H 0.44976 0.91231 0.50709 0.0
H338 H 0.44284 0.82292 0.50986 0.0
H339 H 0.63598 0.82573 0.51238 0.0
H340 H 0.66798 0.81229 0.54109 0.0
H341 H 0.66289 0.87449 0.53464 0.0
H342 H 0.62245 0.8824 0.57925 0.0
H343 H 0.62751 0.82033 0.58584 0.0
H344 H 0.56784 0.83899 0.58752 0.0
H345 H 0.45075 0.73396 0.51809 0.0
H346 H 0.47069 0.65622 0.53361 0.0
H347 H 0.61218 0.73506 0.56349 0.0
C348 C 0.56346 0.91019 0.53474 0.0
C349 C 0.52389 0.93052 0.52431 0.0
C350 C 0.48059 0.8981 0.51523 0.0
C351 C 0.47639 0.847 0.51661 0.0
C352 C 0.51576 0.82816 0.52721 0.0
C353 C 0.55844 0.85887 0.5362 0.0
C354 C 0.59412 0.82946 0.54812 0.0
C355 C 0.64315 0.83588 0.53316 0.0
C356 C 0.60352 0.84364 0.57688 0.0
C357 C 0.5648 0.77761 0.54464 0.0
C358 C 0.51987 0.77747 0.5323 0.0
C359 C 0.48604 0.73381 0.52764 0.0
C360 C 0.49784 0.68956 0.53635 0.0
C361 C 0.54297 0.68892 0.54986 0.0
C362 C 0.57714 0.73383 0.5534 0.0
H363 H 0.77552 0.56613 0.85738 0.0
H364 H 0.79386 0.69823 0.81347 0.0
H365 H 0.88521 0.70313 0.81408 0.0
H366 H 0.87568 0.60832 0.89953 0.0
H367 H 0.89474 0.55009 0.90267 0.0
H368 H 0.83091 0.55243 0.89519 0.0
H369 H 0.83487 0.49768 0.85426 0.0
H370 H 0.89889 0.49525 0.86163 0.0
H371 H 0.88232 0.51602 0.83066 0.0
H372 H 0.97461 0.69694 0.82205 0.0
H373 H 0.05513 0.68503 0.84047 0.0
H374 H 0.97915 0.55978 0.88148 0.0
C375 C 0.79891 0.59523 0.84735 0.0
C376 C 0.77805 0.63132 0.83492 0.0
C377 C 0.80949 0.67001 0.8228 0.0
C378 C 0.86127 0.67293 0.82297 0.0
C379 C 0.88103 0.63719 0.83568 0.0
C380 C 0.85087 0.59929 0.84787 0.0
C381 C 0.88174 0.56904 0.86271 0.0
C382 C 0.87007 0.57006 0.89174 0.0
C383 C 0.87399 0.51637 0.85165 0.0
C384 C 0.93379 0.5964 0.8574 0.0
C385 C 0.93264 0.63493 0.8413 0.0
C386 C 0.97601 0.66659 0.83448 0.0
C387 C 1.02162 0.65942 0.8449 0.0
C388 C 1.02339 0.62142 0.86229 0.0
C389 C 0.9789 0.58903 0.86813 0.0
H390 H 0.34623 0.92199 0.17045 0.0
H391 H 0.35171 0.78793 0.2103 0.0
H392 H 0.42692 0.8289 0.23415 0.0
H393 H 0.48137 0.96182 0.16523 0.0
H394 H 0.47816 1.02541 0.17059 0.0
H395 H 0.42673 0.98457 0.15532 0.0
H396 H 0.36723 1.00895 0.19005 0.0
H397 H 0.41841 1.04977 0.20543 0.0
H398 H 0.38114 1.00266 0.22373 0.0
H399 H 0.49664 0.8862 0.2565 0.0
H400 H 0.55892 0.95534 0.27422 0.0
H401 H 0.50954 1.05138 0.21913 0.0
C402 C 0.36354 0.90121 0.18405 0.0
C403 C 0.34331 0.85174 0.18844 0.0
C404 C 0.36704 0.82566 0.20634 0.0
C405 C 0.40962 0.84866 0.22007 0.0
C406 C 0.42829 0.89761 0.2155 0.0
C407 C 0.40633 0.92349 0.19776 0.0
C408 C 0.43298 0.97612 0.19706 0.0
C409 C 0.45619 0.98764 0.17047 0.0
C410 C 0.39784 1.01144 0.20452 0.0
C411 C 0.47262 0.97604 0.21759 0.0
C412 C 0.4693 0.93038 0.22798 0.0
C413 C 0.5001 0.92196 0.24828 0.0
C414 C 0.53514 0.96135 0.25827 0.0
C415 C 0.5392 1.00832 0.24782 0.0
C416 C 0.5078 1.01553 0.22709 0.0
H417 H 0.5899 0.27516 0.54736 0.0
H418 H 0.43699 0.2392 0.51997 0.0
H419 H 0.43115 0.32665 0.52199 0.0
H420 H 0.56866 0.36789 0.59335 0.0
H421 H 0.62789 0.40713 0.58861 0.0
H422 H 0.62149 0.34213 0.58309 0.0
H423 H 0.65446 0.35641 0.53667 0.0
H424 H 0.66076 0.42151 0.54204 0.0
H425 H 0.62411 0.39177 0.51512 0.0
H426 H 0.44143 0.41939 0.52727 0.0
H427 H 0.46424 0.50723 0.53988 0.0
H428 H 0.60856 0.48357 0.5662 0.0
C429 C 0.55536 0.28576 0.54156 0.0
C430 C 0.51396 0.24987 0.53333 0.0
C431 C 0.46925 0.26558 0.52637 0.0
C432 C 0.46562 0.31542 0.52732 0.0
C433 C 0.50683 0.34979 0.53561 0.0
C434 C 0.55072 0.33558 0.54291 0.0
C435 C 0.58832 0.37968 0.55274 0.0
C436 C 0.60241 0.37385 0.58113 0.0
C437 C 0.63466 0.38781 0.53562 0.0
C438 C 0.55867 0.42065 0.54997 0.0
C439 C 0.51201 0.40277 0.53964 0.0
C440 C 0.47792 0.43368 0.53538 0.0
C441 C 0.49131 0.48375 0.54243 0.0
C442 C 0.53816 0.50272 0.55403 0.0
C443 C 0.57237 0.47044 0.55742 0.0
H444 H 0.43275 0.56826 0.85173 0.0
H445 H 0.46797 0.71245 0.81959 0.0
H446 H 0.37992 0.72144 0.82374 0.0
H447 H 0.306 0.53165 0.82528 0.0
H448 H 0.28236 0.5027 0.85451 0.0
H449 H 0.34652 0.50502 0.84593 0.0
H450 H 0.37463 0.5469 0.89022 0.0
H451 H 0.31065 0.54471 0.89892 0.0
H452 H 0.35341 0.6023 0.89981 0.0
H453 H 0.28812 0.71513 0.83221 0.0
H454 H 0.2024 0.69871 0.84927 0.0
H455 H 0.22888 0.56227 0.87982 0.0
C456 C 0.42152 0.60117 0.84502 0.0
C457 C 0.45672 0.63925 0.8348 0.0
C458 C 0.4413 0.68264 0.82715 0.0
C459 C 0.39139 0.68797 0.82936 0.0
C460 C 0.35755 0.6499 0.83973 0.0
C461 C 0.3721 0.60762 0.84779 0.0
C462 C 0.32968 0.57453 0.8608 0.0
C463 C 0.3153 0.52558 0.84572 0.0
C464 C 0.34289 0.56667 0.88911 0.0
C465 C 0.28909 0.60486 0.85893 0.0
C466 C 0.30561 0.64773 0.84621 0.0
C467 C 0.27481 0.68169 0.84218 0.0
C468 C 0.22619 0.67202 0.85181 0.0
C469 C 0.20922 0.62925 0.86573 0.0
C470 C 0.24103 0.59516 0.86914 0.0
H471 H 0.88826 0.30602 0.22231 0.0
H472 H 0.82199 0.33126 0.14876 0.0
H473 H 0.74604 0.27217 0.1595 0.0
H474 H 0.83976 0.17719 0.22355 0.0
H475 H 0.83005 0.17753 0.25794 0.0
H476 H 0.87874 0.22165 0.24428 0.0
H477 H 0.84183 0.2921 0.26579 0.0
H478 H 0.79307 0.24821 0.27954 0.0
H479 H 0.77759 0.29571 0.25978 0.0
H480 H 0.67656 0.21166 0.17918 0.0
H481 H 0.61974 0.15425 0.20582 0.0
H482 H 0.73409 0.16731 0.26548 0.0
C483 C 0.8576 0.2994 0.20855 0.0
C484 C 0.8607 0.32329 0.18479 0.0
C485 C 0.82027 0.31306 0.16704 0.0
C486 C 0.77706 0.27973 0.17299 0.0
C487 C 0.77523 0.2568 0.19666 0.0
C488 C 0.81456 0.26611 0.21408 0.0
C489 C 0.80363 0.23658 0.2381 0.0
C490 C 0.84022 0.20113 0.24113 0.0
C491 C 0.80404 0.27016 0.26222 0.0
C492 C 0.75175 0.20949 0.23163 0.0
C493 C 0.73591 0.22155 0.20768 0.0
C494 C 0.68873 0.20168 0.19788 0.0
C495 C 0.65685 0.16887 0.21308 0.0
C496 C 0.67242 0.15622 0.23776 0.0
C497 C 0.72074 0.17664 0.24688 0.0
H498 H 0.14692 0.54566 0.06479 0.0
H499 H 0.06615 0.6605 0.08702 0.0
H500 H 0.06365 0.68413 0.04152 0.0
H501 H 0.22079 0.61317 0.01362 0.0
H502 H 0.2173 0.55954 0.9929 0.0
H503 H 0.216 0.55382 0.02748 0.0
H504 H 0.13298 0.49189 0.0233 0.0
H505 H 0.13388 0.49758 0.98877 0.0
H506 H 0.08083 0.5091 0.00679 0.0
H507 H 0.06398 0.69125 0.99376 0.0
H508 H 0.06986 0.68362 0.94636 0.0
H509 H 0.15157 0.56508 0.95451 0.0
C510 C 0.12936 0.57621 0.06009 0.0
C511 C 0.10667 0.60128 0.07937 0.0
C512 C 0.08373 0.64084 0.07251 0.0
C513 C 0.08217 0.65455 0.04675 0.0
C514 C 0.10404 0.62856 0.02811 0.0
C515 C 0.12757 0.59048 0.03441 0.0
C516 C 0.14648 0.56751 0.01045 0.0
C517 C 0.20353 0.57391 0.01116 0.0
C518 C 0.12207 0.51331 0.00714 0.0
C519 C 0.12898 0.59798 0.98968 0.0
C520 C 0.10472 0.63306 0.00037 0.0
C521 C 0.08325 0.66425 0.98516 0.0
C522 C 0.0865 0.65942 0.95829 0.0
C523 C 0.11104 0.62371 0.94685 0.0
C524 C 0.13302 0.59297 0.9628 0.0
H525 H 0.55681 1.04731 0.44588 0.0
H526 H 0.53324 0.19657 0.45478 0.0
H527 H 0.56302 0.21328 0.41041 0.0
H528 H 0.66652 1.07125 0.40179 0.0
H529 H 0.64456 1.01625 0.38277 0.0
H530 H 0.6308 1.01858 0.41673 0.0
H531 H 0.53677 0.99322 0.406 0.0
H532 H 0.55012 0.99129 0.37208 0.0
H533 H 0.50794 1.0292 0.3841 0.0
H534 H 0.58591 0.21148 0.36422 0.0
H535 H 0.59767 0.19075 0.31836 0.0
H536 H 0.60246 1.04124 0.33822 0.0
C537 C 0.55965 0.08386 0.43868 0.0
C538 C 0.54368 0.12102 0.45365 0.0
C539 C 0.54589 0.16795 0.4435 0.0
C540 C 0.56287 0.17775 0.41842 0.0
C541 C 0.57695 0.14 0.40373 0.0
C542 C 0.57549 0.09393 0.41341 0.0
C543 C 0.5867 1.05836 0.39255 0.0
C544 C 0.63503 1.04004 0.39884 0.0
C545 C 0.54276 1.01551 0.38845 0.0
C546 C 0.59311 0.09126 0.36953 0.0
C547 C 0.58837 0.13842 0.37656 0.0
C548 C 0.59048 0.17489 0.35852 0.0
C549 C 0.59726 0.1628 0.33254 0.0
C550 C 0.60128 0.1145 0.3248 0.0
C551 C 0.59956 0.07846 0.34363 0.0
H552 H 0.56424 0.60739 0.75685 0.0
H553 H 0.70859 0.70332 0.75714 0.0
H554 H 0.71206 0.69411 0.70987 0.0
H555 H 0.59002 0.52517 0.70381 0.0
H556 H 0.5285 0.51814 0.6898 0.0
H557 H 0.53748 0.5293 0.72407 0.0
H558 H 0.49523 0.60475 0.72198 0.0
H559 H 0.48531 0.59387 0.68776 0.0
H560 H 0.51809 0.65235 0.69985 0.0
H561 H 0.69789 0.68087 0.66283 0.0
H562 H 0.66697 0.66205 0.61805 0.0
H563 H 0.53299 0.57266 0.64691 0.0
C564 C 0.59675 0.62589 0.74692 0.0
C565 C 0.63612 0.65619 0.76066 0.0
C566 C 0.67792 0.6801 0.74702 0.0
C567 C 0.68036 0.67499 0.72015 0.0
C568 C 0.64081 0.64559 0.70709 0.0
C569 C 0.59984 0.62118 0.7199 0.0
C570 C 0.56163 0.59359 0.70083 0.0
C571 C 0.55399 0.53825 0.70487 0.0
C572 C 0.51215 0.61228 0.70272 0.0
C573 C 0.58731 0.60706 0.67541 0.0
C574 C 0.63301 0.63703 0.67958 0.0
C575 C 0.66253 0.65683 0.65927 0.0
C576 C 0.64474 0.64607 0.63396 0.0
C577 C 0.59811 0.61551 0.62918 0.0
C578 C 0.56927 0.59531 0.65015 0.0
H579 H 0.46136 0.12468 0.60017 0.0
H580 H 0.50394 0.9824 0.59388 0.0
H581 H 0.44075 0.95102 0.6265 0.0
H582 H 0.44802 0.12453 0.6685 0.0
H583 H 0.39708 0.15746 0.66808 0.0
H584 H 0.44256 0.16593 0.64292 0.0
H585 H 0.3716 0.1426 0.60878 0.0
H586 H 0.32612 0.1329 0.63403 0.0
H587 H 0.32981 0.08469 0.61057 0.0
H588 H 0.37164 0.93607 0.66001 0.0
H589 H 0.31349 0.94177 0.69578 0.0
H590 H 0.32504 0.09688 0.68212 0.0
C591 C 0.45716 0.08686 0.60563 0.0
C592 C 0.48704 1.05576 0.59464 0.0
C593 C 0.48131 1.00671 0.60234 0.0
C594 C 0.44527 0.98855 0.6206 0.0
C595 C 0.41602 1.02024 0.63107 0.0
C596 C 0.42239 1.06862 0.62417 0.0
C597 C 0.3897 0.09646 0.63974 0.0
C598 C 0.42122 0.13855 0.65576 0.0
C599 C 0.35208 0.11525 0.62223 0.0
C600 C 0.36413 1.05638 0.6567 0.0
C601 C 0.37876 1.01239 0.6511 0.0
C602 C 0.36023 0.97049 0.66466 0.0
C603 C 0.32734 0.9742 0.68507 0.0
C604 C 0.31428 1.01981 0.6922 0.0
C605 C 0.33245 1.06094 0.67721 0.0
H606 H 0.54517 0.55866 0.91992 0.0
H607 H 0.67175 0.67342 0.90578 0.0
H608 H 0.68162 0.69117 0.95264 0.0
H609 H 0.49597 0.62012 0.97503 0.0
H610 H 0.47793 0.56435 0.99222 0.0
H611 H 0.47839 0.56273 0.95741 0.0
H612 H 0.53719 0.49956 0.95786 0.0
H613 H 0.53694 0.50101 0.99262 0.0
H614 H 0.59509 0.51386 0.97572 0.0
H615 H 0.68102 0.69366 0.00064 0.0
H616 H 0.67017 0.68067 0.04732 0.0
H617 H 0.54448 0.56376 0.03102 0.0
C618 C 0.57456 0.58787 0.92673 0.0
C619 C 0.60768 0.61478 0.90928 0.0
C620 C 0.64597 0.65243 0.91885 0.0
C621 C 0.65181 0.66285 0.94541 0.0
C622 C 0.61898 0.63534 0.96215 0.0
C623 C 0.58103 0.59869 0.95327 0.0
C624 C 0.55232 0.57329 0.97556 0.0
C625 C 0.49793 0.58057 0.97501 0.0
C626 C 0.55561 0.5187 0.97543 0.0
C627 C 0.58069 0.60083 -0.00169 0.0
C628 C 0.61875 0.63667 0.99007 0.0
C629 C 0.65122 0.66588 0.00736 0.0
C630 C 0.64495 0.65802 0.03381 0.0
C631 C 0.60664 0.62111 0.04277 0.0
C632 C 0.57375 0.59259 0.02473 0.0
H633 H 0.14911 0.6068 0.2449 0.0
H634 H 0.995 0.58275 0.21974 0.0
H635 H 0.96819 0.55789 0.26371 0.0
H636 H 0.13735 0.50889 0.29334 0.0
H637 H 0.17947 0.54648 0.31579 0.0
H638 H 0.1868 0.55471 0.28155 0.0
H639 H 0.18211 0.64633 0.28808 0.0
H640 H 0.17427 0.63833 0.32226 0.0
H641 H 0.12894 0.66316 0.30394 0.0
H642 H 0.95784 0.54248 0.31086 0.0
H643 H 0.96417 0.54 0.35836 0.0
H644 H 0.125 0.57801 0.35382 0.0
C645 C 0.10991 0.5947 0.2486 0.0
C646 C 0.07395 0.59538 0.22903 0.0
C647 C 1.02287 0.58151 0.23456 0.0
C648 C 1.0074 0.56739 0.25941 0.0
C649 C 0.04357 0.56813 0.27858 0.0
C650 C 0.09379 0.58152 0.27353 0.0
C651 C 0.12459 0.58411 0.29817 0.0
C652 C 0.15909 0.54628 0.29715 0.0
C653 C 0.15421 0.63607 0.30341 0.0
C654 C 0.08384 0.5709 0.31785 0.0
C655 C 1.03746 0.56113 0.30608 0.0
C656 C 0.99399 0.54954 0.32028 0.0
C657 C 0.99796 0.54809 0.34725 0.0
C658 C 0.04503 0.55868 0.35982 0.0
C659 C 0.08847 0.56995 0.34479 0.0
loop_
_geom_bond_atom_site_label_1
_geom_bond_atom_site_label_2
_geom_bond_distance
_geom_bond_site_symmetry_2
_ccdc_geom_bond_type
Pr0 C2 2.880 . S
Pr0 O20 2.562 . S
Pr0 O21 2.490 . S
Pr0 O22 2.695 1_655 S
Pr0 O23 2.512 . S
Pr0 O25 2.437 . S
Pr0 O28 2.436 . S
Pr0 O30 2.438 1_655 S
Pr1 C11 2.880 . S
Pr1 O22 2.436 . S
Pr1 O24 2.438 1_455 S
Pr1 O26 2.562 . S
Pr1 O27 2.490 . S
Pr1 O28 2.695 1_455 S
Pr1 O29 2.512 . S
Pr1 O31 2.437 . S
C2 Pr0 2.880 . S
C2 C3 1.491 . S
C2 O20 1.254 . S
C2 O21 1.225 . S
C3 C2 1.491 . S
C3 C4 1.392 . S
C3 C8 1.356 . S
C4 C3 1.392 . S
C4 C5 1.368 . S
C4 H32 0.929 . S
C5 C4 1.368 . S
C5 C6 1.386 . S
C5 H33 0.929 . S
C6 C5 1.386 . S
C6 C7 1.373 . S
C7 C6 1.373 . S
C7 C8 1.409 . S
C7 H34 0.931 . S
C8 C3 1.356 . S
C8 C7 1.409 . S
C8 H35 0.930 . S
C9 O22 1.270 . S
C9 O23 1.248 1_455 S
C10 O24 1.267 . S
C10 O25 1.278 . S
C11 Pr1 2.880 . S
C11 C12 1.491 . S
C11 O26 1.254 . S
C11 O27 1.225 . S
C12 C11 1.491 . S
C12 C13 1.392 . S
C12 C17 1.356 . S
C13 C12 1.392 . S
C13 C14 1.368 . S
C13 H36 0.929 . S
C14 C13 1.368 . S
C14 C15 1.386 . S
C14 H37 0.929 . S
C15 C14 1.386 . S
C15 C16 1.373 . S
C16 C15 1.373 . S
C16 C17 1.409 . S
C16 H38 0.931 . S
C17 C12 1.356 . S
C17 C16 1.409 . S
C17 H39 0.930 . S
C18 O28 1.270 1_455 S
C18 O29 1.248 . S
C19 O30 1.267 . S
C19 O31 1.278 . S
O20 Pr0 2.562 . S
O20 C2 1.254 . S
O21 Pr0 2.490 . S
O21 C2 1.225 . S
O22 Pr0 2.695 1_455 S
O22 Pr1 2.436 . S
O22 C9 1.270 . S
O23 Pr0 2.512 . S
O23 C9 1.248 1_655 S
O24 Pr1 2.438 1_655 S
O24 C10 1.267 . S
O25 Pr0 2.437 . S
O25 C10 1.278 . S
O26 Pr1 2.562 . S
O26 C11 1.254 . S
O27 Pr1 2.490 . S
O27 C11 1.225 . S
O28 Pr0 2.436 . S
O28 Pr1 2.695 1_655 S
O28 C18 1.270 1_655 S
O29 Pr1 2.512 . S
O29 C18 1.248 . S
O30 Pr0 2.438 1_455 S
O30 C19 1.267 . S
O31 Pr1 2.437 . S
O31 C19 1.278 . S
H32 C4 0.929 . S
H33 C5 0.929 . S
H34 C7 0.931 . S
H35 C8 0.930 . S
H36 C13 0.929 . S
H37 C14 0.929 . S
H38 C16 0.931 . S
H39 C17 0.930 . S
Pr40 C42 2.880 . S
Pr40 O60 2.562 . S
Pr40 O61 2.490 . S
Pr40 O62 2.691 1_545 S
Pr40 O63 2.512 . S
Pr40 O65 2.437 . S
Pr40 O68 2.436 . S
Pr40 O70 2.438 1_545 S
Pr41 C51 2.880 . S
Pr41 O62 2.434 . S
Pr41 O64 2.438 1_565 S
Pr41 O66 2.562 . S
Pr41 O67 2.490 . S
Pr41 O68 2.695 1_565 S
Pr41 O69 2.512 . S
Pr41 O71 2.437 . S
C42 Pr40 2.880 . S
C42 C43 1.491 . S
C42 O60 1.254 . S
C42 O61 1.225 . S
C43 C42 1.491 . S
C43 C44 1.392 . S
C43 C48 1.356 . S
C44 C43 1.392 . S
C44 C45 1.368 . S
C44 H72 0.929 . S
C45 C44 1.368 . S
C45 C46 1.386 . S
C45 H73 0.929 . S
C46 C45 1.386 . S
C46 C47 1.373 . S
C47 C46 1.373 . S
C47 C48 1.409 . S
C47 H74 0.931 . S
C48 C43 1.356 . S
C48 C47 1.409 . S
C48 H75 0.930 . S
C49 O62 1.266 1_545 S
C49 O63 1.248 . S
C50 O64 1.267 . S
C50 O65 1.278 . S
C51 Pr41 2.880 . S
C51 C52 1.491 . S
C51 O66 1.254 . S
C51 O67 1.225 . S
C52 C51 1.491 . S
C52 C53 1.392 . S
C52 C57 1.356 . S
C53 C52 1.392 . S
C53 C54 1.368 . S
C53 H76 0.929 . S
C54 C53 1.368 . S
C54 C55 1.386 . S
C54 H77 0.929 . S
C55 C54 1.386 . S
C55 C56 1.373 . S
C56 C55 1.373 . S
C56 C57 1.409 . S
C56 H78 0.931 . S
C57 C52 1.356 . S
C57 C56 1.409 . S
C57 H79 0.930 . S
C58 O68 1.270 . S
C58 O69 1.248 1_545 S
C59 O70 1.267 . S
C59 O71 1.278 . S
O60 Pr40 2.562 . S
O60 C42 1.254 . S
O61 Pr40 2.490 . S
O61 C42 1.225 . S
O62 Pr40 2.691 1_565 S
O62 Pr41 2.434 . S
O62 C49 1.266 1_565 S
O63 Pr40 2.512 . S
O63 C49 1.248 . S
O64 Pr41 2.438 1_545 S
O64 C50 1.267 . S
O65 Pr40 2.437 . S
O65 C50 1.278 . S
O66 Pr41 2.562 . S
O66 C51 1.254 . S
O67 Pr41 2.490 . S
O67 C51 1.225 . S
O68 Pr40 2.436 . S
O68 Pr41 2.695 1_545 S
O68 C58 1.270 . S
O69 Pr41 2.512 . S
O69 C58 1.248 1_565 S
O70 Pr40 2.438 1_565 S
O70 C59 1.267 . S
O71 Pr41 2.437 . S
O71 C59 1.278 . S
H72 C44 0.929 . S
H73 C45 0.929 . S
H74 C47 0.931 . S
H75 C48 0.930 . S
H76 C53 0.929 . S
H77 C54 0.929 . S
H78 C56 0.931 . S
H79 C57 0.930 . S
Pr80 C82 2.880 . S
Pr80 O100 2.562 . S
Pr80 O101 2.490 . S
Pr80 O102 2.695 . S
Pr80 O103 2.512 . S
Pr80 O105 2.437 . S
Pr80 O108 2.436 . S
Pr80 O110 2.438 . S
Pr81 C91 2.880 . S
Pr81 O102 2.436 . S
Pr81 O104 2.438 . S
Pr81 O106 2.562 . S
Pr81 O107 2.490 . S
Pr81 O108 2.695 . S
Pr81 O109 2.512 . S
Pr81 O111 2.437 . S
C82 Pr80 2.880 . S
C82 C83 1.491 . S
C82 O100 1.254 . S
C82 O101 1.225 . S
C83 C82 1.491 . S
C83 C84 1.392 . S
C83 C88 1.356 . S
C84 C83 1.392 . S
C84 C85 1.368 . S
C84 H112 0.929 . S
C85 C84 1.368 . S
C85 C86 1.386 . S
C85 H113 0.929 . S
C86 C85 1.386 . S
C86 C87 1.373 . S
C87 C86 1.373 . S
C87 C88 1.409 . S
C87 H114 0.931 . S
C88 C83 1.356 . S
C88 C87 1.409 . S
C88 H115 0.930 . S
C89 O102 1.270 . S
C89 O103 1.248 . S
C90 O104 1.267 . S
C90 O105 1.278 . S
C91 Pr81 2.880 . S
C91 C92 1.491 . S
C91 O106 1.254 . S
C91 O107 1.225 . S
C92 C91 1.491 . S
C92 C93 1.392 . S
C92 C97 1.356 . S
C93 C92 1.392 . S
C93 C94 1.368 . S
C93 H116 0.929 . S
C94 C93 1.368 . S
C94 C95 1.386 . S
C94 H117 0.929 . S
C95 C94 1.386 . S
C95 C96 1.373 . S
C96 C95 1.373 . S
C96 C97 1.409 . S
C96 H118 0.931 . S
C97 C92 1.356 . S
C97 C96 1.409 . S
C97 H119 0.930 . S
C98 O108 1.270 . S
C98 O109 1.248 . S
C99 O110 1.267 . S
C99 O111 1.278 . S
O100 Pr80 2.562 . S
O100 C82 1.254 . S
O101 Pr80 2.490 . S
O101 C82 1.225 . S
O102 Pr80 2.695 . S
O102 Pr81 2.436 . S
O102 C89 1.270 . S
O103 Pr80 2.512 . S
O103 C89 1.248 . S
O104 Pr81 2.438 . S
O104 C90 1.267 . S
O105 Pr80 2.437 . S
O105 C90 1.278 . S
O106 Pr81 2.562 . S
O106 C91 1.254 . S
O107 Pr81 2.490 . S
O107 C91 1.225 . S
O108 Pr80 2.436 . S
O108 Pr81 2.695 . S
O108 C98 1.270 . S
O109 Pr81 2.512 . S
O109 C98 1.248 . S
O110 Pr80 2.438 . S
O110 C99 1.267 . S
O111 Pr81 2.437 . S
O111 C99 1.278 . S
H112 C84 0.929 . S
H113 C85 0.929 . S
H114 C87 0.931 . S
H115 C88 0.930 . S
H116 C93 0.929 . S
H117 C94 0.929 . S
H118 C96 0.931 . S
H119 C97 0.930 . S
H120 C123 0.931 . S
H121 C126 0.928 . S
H122 C128 0.930 . S
C123 H120 0.931 . S
C123 C124 1.413 . S
C123 C125 1.360 1_565 S
C124 C123 1.413 . S
C124 C128 1.429 1_565 S
C125 C123 1.360 1_545 S
C125 C126 1.372 . S
C126 H121 0.928 . S
C126 C125 1.372 . S
C126 C127 1.404 . S
C127 C126 1.404 . S
C127 C128 1.391 . S
C128 H122 0.930 . S
C128 C124 1.429 1_545 S
C128 C127 1.391 . S
H129 C132 0.931 . S
H130 C135 0.928 . S
H131 C137 0.930 . S
C132 H129 0.931 . S
C132 C133 1.413 . S
C132 C134 1.360 . S
C133 C132 1.413 . S
C133 C137 1.429 . S
C134 C132 1.360 . S
C134 C135 1.372 . S
C135 H130 0.928 . S
C135 C134 1.372 . S
C135 C136 1.404 . S
C136 C135 1.404 . S
C136 C137 1.391 . S
C137 H131 0.930 . S
C137 C133 1.429 . S
C137 C136 1.391 . S
H138 C141 0.931 . S
H139 C144 0.928 . S
H140 C146 0.930 . S
C141 H138 0.931 . S
C141 C142 1.413 . S
C141 C143 1.360 1_655 S
C142 C141 1.413 . S
C142 C146 1.429 1_655 S
C143 C141 1.360 1_455 S
C143 C144 1.372 . S
C144 H139 0.928 . S
C144 C143 1.372 . S
C144 C145 1.404 . S
C145 C144 1.404 . S
C145 C146 1.391 . S
C146 H140 0.930 . S
C146 C142 1.429 1_455 S
C146 C145 1.391 . S
H147 C150 0.931 . S
H148 C153 0.928 . S
H149 C155 0.930 . S
C150 H147 0.931 . S
C150 C151 1.413 . S
C150 C152 1.359 . S
C151 C150 1.413 . S
C151 C155 1.429 1_655 S
C152 C150 1.359 . S
C152 C153 1.372 1_655 S
C153 H148 0.928 . S
C153 C152 1.372 1_455 S
C153 C154 1.404 . S
C154 C153 1.404 . S
C154 C155 1.391 . S
C155 H149 0.930 . S
C155 C151 1.429 1_455 S
C155 C154 1.391 . S
H156 C159 0.931 . S
H157 C162 0.928 . S
H158 C164 0.930 . S
C159 H156 0.931 . S
C159 C160 1.413 . S
C159 C161 1.360 . S
C160 C159 1.413 . S
C160 C164 1.429 . S
C161 C159 1.360 . S
C161 C162 1.372 1_545 S
C162 H157 0.928 . S
C162 C161 1.372 1_565 S
C162 C163 1.404 . S
C163 C162 1.404 . S
C163 C164 1.391 1_565 S
C164 H158 0.930 . S
C164 C160 1.429 . S
C164 C163 1.391 1_545 S
H165 C168 0.931 . S
H166 C171 0.928 . S
H167 C173 0.930 . S
C168 H165 0.931 . S
C168 C169 1.413 . S
C168 C170 1.360 . S
C169 C168 1.413 . S
C169 C173 1.429 . S
C170 C168 1.360 . S
C170 C171 1.372 . S
C171 H166 0.928 . S
C171 C170 1.372 . S
C171 C172 1.404 . S
C172 C171 1.404 . S
C172 C173 1.391 . S
C173 H167 0.930 . S
C173 C169 1.429 . S
C173 C172 1.391 . S
H174 C186 0.930 . S
H175 C188 0.930 . S
H176 C189 0.930 . S
H177 C193 0.959 . S
H178 C193 0.959 . S
H179 C193 0.961 . S
H180 C194 0.960 . S
H181 C194 0.961 . S
H182 C194 0.959 . S
H183 C197 0.929 . S
H184 C198 0.931 . S
H185 C200 0.930 . S
C186 H174 0.930 . S
C186 C187 1.399 . S
C186 C191 1.399 . S
C187 C186 1.399 . S
C187 C188 1.376 . S
C188 H175 0.930 . S
C188 C187 1.376 . S
C188 C189 1.388 . S
C189 H176 0.930 . S
C189 C188 1.388 . S
C189 C190 1.390 . S
C190 C189 1.390 . S
C190 C191 1.394 . S
C190 C196 1.465 . S
C191 C186 1.399 . S
C191 C190 1.394 . S
C191 C192 1.516 . S
C192 C191 1.516 . S
C192 C193 1.502 . S
C192 C194 1.561 . S
C192 C195 1.526 . S
C193 H177 0.959 . S
C193 H178 0.959 . S
C193 H179 0.961 . S
C193 C192 1.502 . S
C194 H180 0.960 . S
C194 H181 0.961 . S
C194 H182 0.959 . S
C194 C192 1.561 . S
C195 C192 1.526 . S
C195 C196 1.396 . S
C195 C200 1.390 . S
C196 C190 1.465 . S
C196 C195 1.396 . S
C196 C197 1.399 . S
C197 H183 0.929 . S
C197 C196 1.399 . S
C197 C198 1.385 . S
C198 H184 0.931 . S
C198 C197 1.385 . S
C198 C199 1.389 . S
C199 C198 1.389 . S
C199 C200 1.387 . S
C200 H185 0.930 . S
C200 C195 1.390 . S
C200 C199 1.387 . S
H201 C213 0.930 . S
H202 C215 0.930 . S
H203 C216 0.930 . S
H204 C220 0.959 . S
H205 C220 0.959 . S
H206 C220 0.961 . S
H207 C221 0.960 . S
H208 C221 0.961 . S
H209 C221 0.959 . S
H210 C224 0.929 . S
H211 C225 0.931 . S
H212 C227 0.930 . S
C213 H201 0.930 . S
C213 C214 1.399 . S
C213 C218 1.399 . S
C214 C213 1.399 . S
C214 C215 1.376 . S
C215 H202 0.930 . S
C215 C214 1.376 . S
C215 C216 1.388 . S
C216 H203 0.930 . S
C216 C215 1.388 . S
C216 C217 1.390 . S
C217 C216 1.390 . S
C217 C218 1.394 . S
C217 C223 1.465 . S
C218 C213 1.399 . S
C218 C217 1.394 . S
C218 C219 1.516 . S
C219 C218 1.516 . S
C219 C220 1.502 . S
C219 C221 1.561 . S
C219 C222 1.526 . S
C220 H204 0.959 . S
C220 H205 0.959 . S
C220 H206 0.961 . S
C220 C219 1.502 . S
C221 H207 0.960 . S
C221 H208 0.961 . S
C221 H209 0.959 . S
C221 C219 1.561 . S
C222 C219 1.526 . S
C222 C223 1.396 . S
C222 C227 1.390 . S
C223 C217 1.465 . S
C223 C222 1.396 . S
C223 C224 1.399 . S
C224 H210 0.929 . S
C224 C223 1.399 . S
C224 C225 1.385 . S
C225 H211 0.931 . S
C225 C224 1.385 . S
C225 C226 1.389 . S
C226 C225 1.389 . S
C226 C227 1.387 . S
C227 H212 0.930 . S
C227 C222 1.390 . S
C227 C226 1.387 . S
H228 C240 0.930 . S
H229 C242 0.930 . S
H230 C243 0.930 . S
H231 C247 0.959 . S
H232 C247 0.959 . S
H233 C247 0.961 . S
H234 C248 0.960 . S
H235 C248 0.961 . S
H236 C248 0.959 . S
H237 C251 0.929 . S
H238 C252 0.931 . S
H239 C254 0.930 . S
C240 H228 0.930 . S
C240 C241 1.399 . S
C240 C245 1.399 . S
C241 C240 1.399 . S
C241 C242 1.376 . S
C242 H229 0.930 . S
C242 C241 1.376 . S
C242 C243 1.388 . S
C243 H230 0.930 . S
C243 C242 1.388 . S
C243 C244 1.390 . S
C244 C243 1.390 . S
C244 C245 1.394 . S
C244 C250 1.465 . S
C245 C240 1.399 . S
C245 C244 1.394 . S
C245 C246 1.516 . S
C246 C245 1.516 . S
C246 C247 1.502 . S
C246 C248 1.561 . S
C246 C249 1.526 . S
C247 H231 0.959 . S
C247 H232 0.959 . S
C247 H233 0.961 . S
C247 C246 1.502 . S
C248 H234 0.960 . S
C248 H235 0.961 . S
C248 H236 0.959 . S
C248 C246 1.561 . S
C249 C246 1.526 . S
C249 C250 1.396 . S
C249 C254 1.390 . S
C250 C244 1.465 . S
C250 C249 1.396 . S
C250 C251 1.399 . S
C251 H237 0.929 . S
C251 C250 1.399 . S
C251 C252 1.385 . S
C252 H238 0.931 . S
C252 C251 1.385 . S
C252 C253 1.389 . S
C253 C252 1.389 . S
C253 C254 1.387 . S
C254 H239 0.930 . S
C254 C249 1.390 . S
C254 C253 1.387 . S
H255 C267 0.930 . S
H256 C269 0.930 . S
H257 C270 0.930 . S
H258 C274 0.959 . S
H259 C274 0.959 . S
H260 C274 0.961 . S
H261 C275 0.960 . S
H262 C275 0.961 . S
H263 C275 0.959 . S
H264 C278 0.929 . S
H265 C279 0.931 . S
H266 C281 0.930 . S
C267 H255 0.930 . S
C267 C268 1.399 . S
C267 C272 1.399 . S
C268 C267 1.399 . S
C268 C269 1.376 . S
C269 H256 0.930 . S
C269 C268 1.376 . S
C269 C270 1.388 . S
C270 H257 0.930 . S
C270 C269 1.388 . S
C270 C271 1.390 . S
C271 C270 1.390 . S
C271 C272 1.394 . S
C271 C277 1.465 . S
C272 C267 1.399 . S
C272 C271 1.394 . S
C272 C273 1.516 . S
C273 C272 1.516 . S
C273 C274 1.502 . S
C273 C275 1.561 . S
C273 C276 1.526 . S
C274 H258 0.959 . S
C274 H259 0.959 . S
C274 H260 0.961 . S
C274 C273 1.502 . S
C275 H261 0.960 . S
C275 H262 0.961 . S
C275 H263 0.959 . S
C275 C273 1.561 . S
C276 C273 1.526 . S
C276 C277 1.396 . S
C276 C281 1.390 . S
C277 C271 1.465 . S
C277 C276 1.396 . S
C277 C278 1.399 . S
C278 H264 0.929 . S
C278 C277 1.399 . S
C278 C279 1.385 . S
C279 H265 0.931 . S
C279 C278 1.385 . S
C279 C280 1.389 . S
C280 C279 1.389 . S
C280 C281 1.387 . S
C281 H266 0.930 . S
C281 C276 1.390 . S
C281 C280 1.387 . S
H282 C294 0.930 . S
H283 C296 0.930 . S
H284 C297 0.930 . S
H285 C301 0.959 . S
H286 C301 0.959 . S
H287 C301 0.961 . S
H288 C302 0.960 . S
H289 C302 0.961 . S
H290 C302 0.959 . S
H291 C305 0.929 . S
H292 C306 0.931 . S
H293 C308 0.930 . S
C294 H282 0.930 . S
C294 C295 1.399 . S
C294 C299 1.399 . S
C295 C294 1.399 . S
C295 C296 1.376 . S
C296 H283 0.930 . S
C296 C295 1.376 . S
C296 C297 1.388 . S
C297 H284 0.930 . S
C297 C296 1.388 . S
C297 C298 1.390 . S
C298 C297 1.390 . S
C298 C299 1.394 . S
C298 C304 1.465 . S
C299 C294 1.399 . S
C299 C298 1.394 . S
C299 C300 1.516 . S
C300 C299 1.516 . S
C300 C301 1.502 . S
C300 C302 1.561 . S
C300 C303 1.526 . S
C301 H285 0.959 . S
C301 H286 0.959 . S
C301 H287 0.961 . S
C301 C300 1.502 . S
C302 H288 0.960 . S
C302 H289 0.961 . S
C302 H290 0.959 . S
C302 C300 1.561 . S
C303 C300 1.526 . S
C303 C304 1.396 . S
C303 C308 1.390 . S
C304 C298 1.465 . S
C304 C303 1.396 . S
C304 C305 1.399 . S
C305 H291 0.929 . S
C305 C304 1.399 . S
C305 C306 1.385 . S
C306 H292 0.931 . S
C306 C305 1.385 . S
C306 C307 1.389 . S
C307 C306 1.389 . S
C307 C308 1.387 . S
C308 H293 0.930 . S
C308 C303 1.390 . S
C308 C307 1.387 . S
H309 C321 0.930 . S
H310 C323 0.930 . S
H311 C324 0.930 . S
H312 C328 0.959 . S
H313 C328 0.959 . S
H314 C328 0.961 . S
H315 C329 0.960 . S
H316 C329 0.961 . S
H317 C329 0.959 . S
H318 C332 0.929 . S
H319 C333 0.931 . S
H320 C335 0.930 . S
C321 H309 0.930 . S
C321 C322 1.399 . S
C321 C326 1.399 . S
C322 C321 1.399 . S
C322 C323 1.376 . S
C323 H310 0.930 . S
C323 C322 1.376 . S
C323 C324 1.388 . S
C324 H311 0.930 . S
C324 C323 1.388 . S
C324 C325 1.390 . S
C325 C324 1.390 . S
C325 C326 1.394 . S
C325 C331 1.465 . S
C326 C321 1.399 . S
C326 C325 1.394 . S
C326 C327 1.516 . S
C327 C326 1.516 . S
C327 C328 1.502 . S
C327 C329 1.561 . S
C327 C330 1.526 . S
C328 H312 0.959 . S
C328 H313 0.959 . S
C328 H314 0.961 . S
C328 C327 1.502 . S
C329 H315 0.960 . S
C329 H316 0.961 . S
C329 H317 0.959 . S
C329 C327 1.561 . S
C330 C327 1.526 . S
C330 C331 1.396 . S
C330 C335 1.390 . S
C331 C325 1.465 . S
C331 C330 1.396 . S
C331 C332 1.399 . S
C332 H318 0.929 . S
C332 C331 1.399 . S
C332 C333 1.385 . S
C333 H319 0.931 . S
C333 C332 1.385 . S
C333 C334 1.389 . S
C334 C333 1.389 . S
C334 C335 1.387 . S
C335 H320 0.930 . S
C335 C330 1.390 . S
C335 C334 1.387 . S
H336 C348 0.930 . S
H337 C350 0.930 . S
H338 C351 0.930 . S
H339 C355 0.959 . S
H340 C355 0.959 . S
H341 C355 0.961 . S
H342 C356 0.960 . S
H343 C356 0.961 . S
H344 C356 0.959 . S
H345 C359 0.929 . S
H346 C360 0.931 . S
H347 C362 0.930 . S
C348 H336 0.930 . S
C348 C349 1.399 . S
C348 C353 1.399 . S
C349 C348 1.399 . S
C349 C350 1.376 . S
C350 H337 0.930 . S
C350 C349 1.376 . S
C350 C351 1.388 . S
C351 H338 0.930 . S
C351 C350 1.388 . S
C351 C352 1.390 . S
C352 C351 1.390 . S
C352 C353 1.394 . S
C352 C358 1.465 . S
C353 C348 1.399 . S
C353 C352 1.394 . S
C353 C354 1.516 . S
C354 C353 1.516 . S
C354 C355 1.502 . S
C354 C356 1.561 . S
C354 C357 1.526 . S
C355 H339 0.959 . S
C355 H340 0.959 . S
C355 H341 0.961 . S
C355 C354 1.502 . S
C356 H342 0.960 . S
C356 H343 0.961 . S
C356 H344 0.959 . S
C356 C354 1.561 . S
C357 C354 1.526 . S
C357 C358 1.396 . S
C357 C362 1.390 . S
C358 C352 1.465 . S
C358 C357 1.396 . S
C358 C359 1.399 . S
C359 H345 0.929 . S
C359 C358 1.399 . S
C359 C360 1.385 . S
C360 H346 0.931 . S
C360 C359 1.385 . S
C360 C361 1.389 . S
C361 C360 1.389 . S
C361 C362 1.387 . S
C362 H347 0.930 . S
C362 C357 1.390 . S
C362 C361 1.387 . S
H363 C375 0.930 . S
H364 C377 0.930 . S
H365 C378 0.930 . S
H366 C382 0.959 . S
H367 C382 0.959 . S
H368 C382 0.961 . S
H369 C383 0.960 . S
H370 C383 0.961 . S
H371 C383 0.959 . S
H372 C386 0.929 . S
H373 C387 0.931 . S
H374 C389 0.930 . S
C375 H363 0.930 . S
C375 C376 1.399 . S
C375 C380 1.399 . S
C376 C375 1.399 . S
C376 C377 1.376 . S
C377 H364 0.930 . S
C377 C376 1.376 . S
C377 C378 1.388 . S
C378 H365 0.930 . S
C378 C377 1.388 . S
C378 C379 1.390 . S
C379 C378 1.390 . S
C379 C380 1.394 . S
C379 C385 1.465 . S
C380 C375 1.399 . S
C380 C379 1.394 . S
C380 C381 1.516 . S
C381 C380 1.516 . S
C381 C382 1.502 . S
C381 C383 1.561 . S
C381 C384 1.526 . S
C382 H366 0.959 . S
C382 H367 0.959 . S
C382 H368 0.961 . S
C382 C381 1.502 . S
C383 H369 0.960 . S
C383 H370 0.961 . S
C383 H371 0.959 . S
C383 C381 1.561 . S
C384 C381 1.526 . S
C384 C385 1.396 . S
C384 C389 1.390 . S
C385 C379 1.465 . S
C385 C384 1.396 . S
C385 C386 1.399 . S
C386 H372 0.929 . S
C386 C385 1.399 . S
C386 C387 1.385 . S
C387 H373 0.931 . S
C387 C386 1.385 . S
C387 C388 1.389 . S
C388 C387 1.389 . S
C388 C389 1.387 . S
C389 H374 0.930 . S
C389 C384 1.390 . S
C389 C388 1.387 . S
H390 C402 0.930 . S
H391 C404 0.930 . S
H392 C405 0.930 . S
H393 C409 0.959 . S
H394 C409 0.959 . S
H395 C409 0.961 . S
H396 C410 0.960 . S
H397 C410 0.961 . S
H398 C410 0.959 . S
H399 C413 0.929 . S
H400 C414 0.931 . S
H401 C416 0.930 . S
C402 H390 0.930 . S
C402 C403 1.399 . S
C402 C407 1.399 . S
C403 C402 1.399 . S
C403 C404 1.376 . S
C404 H391 0.930 . S
C404 C403 1.376 . S
C404 C405 1.388 . S
C405 H392 0.930 . S
C405 C404 1.388 . S
C405 C406 1.390 . S
C406 C405 1.390 . S
C406 C407 1.394 . S
C406 C412 1.465 . S
C407 C402 1.399 . S
C407 C406 1.394 . S
C407 C408 1.516 . S
C408 C407 1.516 . S
C408 C409 1.502 . S
C408 C410 1.561 . S
C408 C411 1.526 . S
C409 H393 0.959 . S
C409 H394 0.959 . S
C409 H395 0.961 . S
C409 C408 1.502 . S
C410 H396 0.960 . S
C410 H397 0.961 . S
C410 H398 0.959 . S
C410 C408 1.561 . S
C411 C408 1.526 . S
C411 C412 1.396 . S
C411 C416 1.390 . S
C412 C406 1.465 . S
C412 C411 1.396 . S
C412 C413 1.399 . S
C413 H399 0.929 . S
C413 C412 1.399 . S
C413 C414 1.385 . S
C414 H400 0.931 . S
C414 C413 1.385 . S
C414 C415 1.389 . S
C415 C414 1.389 . S
C415 C416 1.387 . S
C416 H401 0.930 . S
C416 C411 1.390 . S
C416 C415 1.387 . S
H417 C429 0.930 . S
H418 C431 0.930 . S
H419 C432 0.930 . S
H420 C436 0.959 . S
H421 C436 0.959 . S
H422 C436 0.961 . S
H423 C437 0.960 . S
H424 C437 0.961 . S
H425 C437 0.959 . S
H426 C440 0.929 . S
H427 C441 0.931 . S
H428 C443 0.930 . S
C429 H417 0.930 . S
C429 C430 1.399 . S
C429 C434 1.399 . S
C430 C429 1.399 . S
C430 C431 1.376 . S
C431 H418 0.930 . S
C431 C430 1.376 . S
C431 C432 1.388 . S
C432 H419 0.930 . S
C432 C431 1.388 . S
C432 C433 1.390 . S
C433 C432 1.390 . S
C433 C434 1.394 . S
C433 C439 1.465 . S
C434 C429 1.399 . S
C434 C433 1.394 . S
C434 C435 1.516 . S
C435 C434 1.516 . S
C435 C436 1.502 . S
C435 C437 1.561 . S
C435 C438 1.526 . S
C436 H420 0.959 . S
C436 H421 0.959 . S
C436 H422 0.961 . S
C436 C435 1.502 . S
C437 H423 0.960 . S
C437 H424 0.961 . S
C437 H425 0.959 . S
C437 C435 1.561 . S
C438 C435 1.526 . S
C438 C439 1.396 . S
C438 C443 1.390 . S
C439 C433 1.465 . S
C439 C438 1.396 . S
C439 C440 1.399 . S
C440 H426 0.929 . S
C440 C439 1.399 . S
C440 C441 1.385 . S
C441 H427 0.931 . S
C441 C440 1.385 . S
C441 C442 1.389 . S
C442 C441 1.389 . S
C442 C443 1.387 . S
C443 H428 0.930 . S
C443 C438 1.390 . S
C443 C442 1.387 . S
H444 C456 0.930 . S
H445 C458 0.930 . S
H446 C459 0.930 . S
H447 C463 0.959 . S
H448 C463 0.959 . S
H449 C463 0.961 . S
H450 C464 0.960 . S
H451 C464 0.961 . S
H452 C464 0.959 . S
H453 C467 0.929 . S
H454 C468 0.931 . S
H455 C470 0.930 . S
C456 H444 0.930 . S
C456 C457 1.399 . S
C456 C461 1.399 . S
C457 C456 1.399 . S
C457 C458 1.376 . S
C458 H445 0.930 . S
C458 C457 1.376 . S
C458 C459 1.388 . S
C459 H446 0.930 . S
C459 C458 1.388 . S
C459 C460 1.390 . S
C460 C459 1.390 . S
C460 C461 1.394 . S
C460 C466 1.465 . S
C461 C456 1.399 . S
C461 C460 1.394 . S
C461 C462 1.516 . S
C462 C461 1.516 . S
C462 C463 1.502 . S
C462 C464 1.561 . S
C462 C465 1.526 . S
C463 H447 0.959 . S
C463 H448 0.959 . S
C463 H449 0.961 . S
C463 C462 1.502 . S
C464 H450 0.960 . S
C464 H451 0.961 . S
C464 H452 0.959 . S
C464 C462 1.561 . S
C465 C462 1.526 . S
C465 C466 1.396 . S
C465 C470 1.390 . S
C466 C460 1.465 . S
C466 C465 1.396 . S
C466 C467 1.399 . S
C467 H453 0.929 . S
C467 C466 1.399 . S
C467 C468 1.385 . S
C468 H454 0.931 . S
C468 C467 1.385 . S
C468 C469 1.389 . S
C469 C468 1.389 . S
C469 C470 1.387 . S
C470 H455 0.930 . S
C470 C465 1.390 . S
C470 C469 1.387 . S
H471 C483 0.930 . S
H472 C485 0.930 . S
H473 C486 0.930 . S
H474 C490 0.959 . S
H475 C490 0.959 . S
H476 C490 0.961 . S
H477 C491 0.960 . S
H478 C491 0.961 . S
H479 C491 0.959 . S
H480 C494 0.929 . S
H481 C495 0.931 . S
H482 C497 0.930 . S
C483 H471 0.930 . S
C483 C484 1.399 . S
C483 C488 1.399 . S
C484 C483 1.399 . S
C484 C485 1.376 . S
C485 H472 0.930 . S
C485 C484 1.376 . S
C485 C486 1.388 . S
C486 H473 0.930 . S
C486 C485 1.388 . S
C486 C487 1.390 . S
C487 C486 1.390 . S
C487 C488 1.394 . S
C487 C493 1.465 . S
C488 C483 1.399 . S
C488 C487 1.394 . S
C488 C489 1.516 . S
C489 C488 1.516 . S
C489 C490 1.502 . S
C489 C491 1.561 . S
C489 C492 1.526 . S
C490 H474 0.959 . S
C490 H475 0.959 . S
C490 H476 0.961 . S
C490 C489 1.502 . S
C491 H477 0.960 . S
C491 H478 0.961 . S
C491 H479 0.959 . S
C491 C489 1.561 . S
C492 C489 1.526 . S
C492 C493 1.396 . S
C492 C497 1.390 . S
C493 C487 1.465 . S
C493 C492 1.396 . S
C493 C494 1.399 . S
C494 H480 0.929 . S
C494 C493 1.399 . S
C494 C495 1.385 . S
C495 H481 0.931 . S
C495 C494 1.385 . S
C495 C496 1.389 . S
C496 C495 1.389 . S
C496 C497 1.387 . S
C497 H482 0.930 . S
C497 C492 1.390 . S
C497 C496 1.387 . S
H498 C510 0.930 . S
H499 C512 0.930 . S
H500 C513 0.930 . S
H501 C517 0.959 . S
H502 C517 0.959 1_556 S
H503 C517 0.961 . S
H504 C518 0.960 . S
H505 C518 0.961 1_556 S
H506 C518 0.959 . S
H507 C521 0.929 . S
H508 C522 0.931 . S
H509 C524 0.930 . S
C510 H498 0.930 . S
C510 C511 1.399 . S
C510 C515 1.399 . S
C511 C510 1.399 . S
C511 C512 1.376 . S
C512 H499 0.930 . S
C512 C511 1.376 . S
C512 C513 1.388 . S
C513 H500 0.930 . S
C513 C512 1.388 . S
C513 C514 1.390 . S
C514 C513 1.390 . S
C514 C515 1.394 . S
C514 C520 1.465 1_554 S
C515 C510 1.399 . S
C515 C514 1.394 . S
C515 C516 1.516 . S
C516 C515 1.516 . S
C516 C517 1.502 . S
C516 C518 1.561 1_455 S
C516 C519 1.526 1_554 S
C517 H501 0.959 . S
C517 H502 0.959 1_554 S
C517 H503 0.961 . S
C517 C516 1.502 . S
C518 H504 0.960 . S
C518 H505 0.961 1_554 S
C518 H506 0.959 . S
C518 C516 1.561 1_655 S
C519 C516 1.526 1_556 S
C519 C520 1.396 . S
C519 C524 1.390 . S
C520 C514 1.465 1_556 S
C520 C519 1.396 . S
C520 C521 1.399 . S
C521 H507 0.929 . S
C521 C520 1.399 . S
C521 C522 1.385 . S
C522 H508 0.931 . S
C522 C521 1.385 . S
C522 C523 1.389 . S
C523 C522 1.389 . S
C523 C524 1.387 . S
C524 H509 0.930 . S
C524 C519 1.390 . S
C524 C523 1.387 . S
H525 C537 0.930 . S
H526 C539 0.930 . S
H527 C540 0.930 . S
H528 C544 0.959 . S
H529 C544 0.959 . S
H530 C544 0.961 . S
H531 C545 0.960 . S
H532 C545 0.961 . S
H533 C545 0.959 . S
H534 C548 0.929 . S
H535 C549 0.931 . S
H536 C551 0.930 . S
C537 H525 0.930 . S
C537 C538 1.399 1_565 S
C537 C542 1.399 . S
C538 C537 1.399 1_545 S
C538 C539 1.376 . S
C539 H526 0.930 . S
C539 C538 1.376 . S
C539 C540 1.388 . S
C540 H527 0.930 . S
C540 C539 1.388 . S
C540 C541 1.390 . S
C541 C540 1.390 . S
C541 C542 1.394 1_545 S
C541 C547 1.465 . S
C542 C537 1.399 . S
C542 C541 1.394 1_565 S
C542 C543 1.516 . S
C543 C542 1.516 . S
C543 C544 1.502 . S
C543 C545 1.561 . S
C543 C546 1.512 1_565 S
C544 H528 0.959 . S
C544 H529 0.959 . S
C544 H530 0.961 . S
C544 C543 1.502 . S
C545 H531 0.960 . S
C545 H532 0.961 . S
C545 H533 0.959 . S
C545 C543 1.561 . S
C546 C543 1.512 1_545 S
C546 C547 1.416 . S
C546 C551 1.386 1_545 S
C547 C541 1.465 . S
C547 C546 1.416 . S
C547 C548 1.399 . S
C548 H534 0.929 . S
C548 C547 1.399 . S
C548 C549 1.385 . S
C549 H535 0.931 . S
C549 C548 1.385 . S
C549 C550 1.389 . S
C550 C549 1.389 . S
C550 C551 1.387 1_545 S
C551 H536 0.930 . S
C551 C546 1.386 1_565 S
C551 C550 1.387 1_565 S
H552 C564 0.930 . S
H553 C566 0.930 . S
H554 C567 0.930 . S
H555 C571 0.959 . S
H556 C571 0.959 . S
H557 C571 0.961 . S
H558 C572 0.960 . S
H559 C572 0.961 . S
H560 C572 0.959 . S
H561 C575 0.929 . S
H562 C576 0.931 . S
H563 C578 0.930 . S
C564 H552 0.930 . S
C564 C565 1.399 . S
C564 C569 1.399 . S
C565 C564 1.399 . S
C565 C566 1.376 . S
C566 H553 0.930 . S
C566 C565 1.376 . S
C566 C567 1.388 . S
C567 H554 0.930 . S
C567 C566 1.388 . S
C567 C568 1.390 . S
C568 C567 1.390 . S
C568 C569 1.394 . S
C568 C574 1.465 . S
C569 C564 1.399 . S
C569 C568 1.394 . S
C569 C570 1.516 . S
C570 C569 1.516 . S
C570 C571 1.502 . S
C570 C572 1.561 . S
C570 C573 1.526 . S
C571 H555 0.959 . S
C571 H556 0.959 . S
C571 H557 0.961 . S
C571 C570 1.502 . S
C572 H558 0.960 . S
C572 H559 0.961 . S
C572 H560 0.959 . S
C572 C570 1.561 . S
C573 C570 1.526 . S
C573 C574 1.396 . S
C573 C578 1.390 . S
C574 C568 1.465 . S
C574 C573 1.396 . S
C574 C575 1.399 . S
C575 H561 0.929 . S
C575 C574 1.399 . S
C575 C576 1.385 . S
C576 H562 0.931 . S
C576 C575 1.385 . S
C576 C577 1.389 . S
C577 C576 1.389 . S
C577 C578 1.387 . S
C578 H563 0.930 . S
C578 C573 1.390 . S
C578 C577 1.387 . S
H579 C591 0.930 . S
H580 C593 0.930 . S
H581 C594 0.930 . S
H582 C598 0.959 . S
H583 C598 0.959 . S
H584 C598 0.961 . S
H585 C599 0.960 . S
H586 C599 0.961 . S
H587 C599 0.959 . S
H588 C602 0.929 . S
H589 C603 0.931 . S
H590 C605 0.930 . S
C591 H579 0.930 . S
C591 C592 1.399 . S
C591 C596 1.399 . S
C592 C591 1.399 . S
C592 C593 1.376 1_545 S
C593 H580 0.930 . S
C593 C592 1.376 1_565 S
C593 C594 1.388 . S
C594 H581 0.930 . S
C594 C593 1.388 . S
C594 C595 1.390 . S
C595 C594 1.390 . S
C595 C596 1.394 1_565 S
C595 C601 1.465 . S
C596 C591 1.399 . S
C596 C595 1.394 1_545 S
C596 C597 1.516 . S
C597 C596 1.516 . S
C597 C598 1.502 . S
C597 C599 1.561 . S
C597 C600 1.526 . S
C598 H582 0.959 . S
C598 H583 0.959 . S
C598 H584 0.961 . S
C598 C597 1.502 . S
C599 H585 0.960 . S
C599 H586 0.961 . S
C599 H587 0.959 . S
C599 C597 1.561 . S
C600 C597 1.526 . S
C600 C601 1.396 1_545 S
C600 C605 1.390 . S
C601 C595 1.465 . S
C601 C600 1.396 1_565 S
C601 C602 1.399 . S
C602 H588 0.929 . S
C602 C601 1.399 . S
C602 C603 1.385 . S
C603 H589 0.931 . S
C603 C602 1.385 . S
C603 C604 1.389 1_565 S
C604 C603 1.389 1_545 S
C604 C605 1.387 . S
C605 H590 0.930 . S
C605 C600 1.390 . S
C605 C604 1.387 . S
H606 C618 0.930 . S
H607 C620 0.930 . S
H608 C621 0.930 . S
H609 C625 0.959 . S
H610 C625 0.959 1_554 S
H611 C625 0.961 . S
H612 C626 0.960 . S
H613 C626 0.961 1_554 S
H614 C626 0.959 . S
H615 C629 0.929 . S
H616 C630 0.931 . S
H617 C632 0.930 . S
C618 H606 0.930 . S
C618 C619 1.399 . S
C618 C623 1.399 . S
C619 C618 1.399 . S
C619 C620 1.376 . S
C620 H607 0.930 . S
C620 C619 1.376 . S
C620 C621 1.388 . S
C621 H608 0.930 . S
C621 C620 1.388 . S
C621 C622 1.390 . S
C622 C621 1.390 . S
C622 C623 1.394 . S
C622 C628 1.465 1_556 S
C623 C618 1.399 . S
C623 C622 1.394 . S
C623 C624 1.516 . S
C624 C623 1.516 . S
C624 C625 1.502 . S
C624 C626 1.561 . S
C624 C627 1.526 1_556 S
C625 H609 0.959 . S
C625 H610 0.959 1_556 S
C625 H611 0.961 . S
C625 C624 1.502 . S
C626 H612 0.960 . S
C626 H613 0.961 1_556 S
C626 H614 0.959 . S
C626 C624 1.561 . S
C627 C624 1.526 1_554 S
C627 C628 1.396 . S
C627 C632 1.390 . S
C628 C622 1.465 1_554 S
C628 C627 1.396 . S
C628 C629 1.399 . S
C629 H615 0.929 . S
C629 C628 1.399 . S
C629 C630 1.385 . S
C630 H616 0.931 . S
C630 C629 1.385 . S
C630 C631 1.389 . S
C631 C630 1.389 . S
C631 C632 1.387 . S
C632 H617 0.930 . S
C632 C627 1.390 . S
C632 C631 1.387 . S
H633 C645 0.930 . S
H634 C647 0.930 . S
H635 C648 0.930 . S
H636 C652 0.959 . S
H637 C652 0.959 . S
H638 C652 0.961 . S
H639 C653 0.960 . S
H640 C653 0.961 . S
H641 C653 0.959 . S
H642 C656 0.929 . S
H643 C657 0.931 . S
H644 C659 0.930 . S
C645 H633 0.930 . S
C645 C646 1.388 1_455 S
C645 C650 1.399 . S
C646 C645 1.388 1_655 S
C646 C647 1.392 . S
C647 H634 0.930 . S
C647 C646 1.392 . S
C647 C648 1.388 . S
C648 H635 0.930 . S
C648 C647 1.388 . S
C648 C649 1.390 . S
C649 C648 1.390 . S
C649 C650 1.394 1_655 S
C649 C655 1.465 . S
C650 C645 1.399 . S
C650 C649 1.394 1_455 S
C650 C651 1.516 . S
C651 C650 1.516 . S
C651 C652 1.502 . S
C651 C653 1.561 . S
C651 C654 1.526 . S
C652 H636 0.959 . S
C652 H637 0.959 . S
C652 H638 0.961 . S
C652 C651 1.502 . S
C653 H639 0.960 . S
C653 H640 0.961 . S
C653 H641 0.959 . S
C653 C651 1.561 . S
C654 C651 1.526 . S
C654 C655 1.396 1_455 S
C654 C659 1.390 . S
C655 C649 1.465 . S
C655 C654 1.396 1_655 S
C655 C656 1.399 . S
C656 H642 0.929 . S
C656 C655 1.399 . S
C656 C657 1.385 . S
C657 H643 0.931 . S
C657 C656 1.385 . S
C657 C658 1.389 . S
C658 C657 1.389 . S
C658 C659 1.387 1_655 S
C659 H644 0.930 . S
C659 C654 1.390 . S
C659 C658 1.387 1_455 S
C187 C19 1.805 . S
C199 C169 1.790 . S
C214 C46 1.368 . S
C226 C151 1.368 . S
C241 C95 0.540 . S
C253 C163 0.571 . S
C268 C10 1.810 . S
C280 C172 1.809 . S
C307 C154 1.376 . S
C295 C55 1.359 . S
C334 C160 0.738 . S
C322 C86 0.742 . S
C349 C59 2.983 . S
C361 C133 2.963 . S
C376 C90 1.883 . S
C388 C142 1.898 . S
C403 C15 1.304 . S
C415 C124 1.398 . S
C442 C136 2.905 . S
C430 C50 2.901 . S
C469 C145 1.770 . S
C457 C99 1.808 . S
C484 C6 1.298 . S
C496 C127 1.294 . S
C523 C143 1.357 . S
C511 C9 1.343 . S
C538 C58 1.418 . S
C550 C125 1.496 . S
C565 C98 1.688 . S
C577 C134 1.786 . S
C604 C161 1.046 . S
C592 C49 1.063 . S
C631 C170 1.345 . S
C619 C89 1.334 . S
C646 C18 1.432 1_655 S
C658 C152 1.478 . S
