# Generated by pormake.
# Topology ptr, (4,4)-cn, num edge types: 1
# Building blocks:
#     Node 0, Type 0, BuildingBlock: KUFVIS_clean_sbu_0, # of connection points: 4
#     Node 1, Type 0, BuildingBlock: KUFVIS_clean_sbu_0, # of connection points: 4
#     Node 2, Type 0, BuildingBlock: KUFVIS_clean_sbu_0, # of connection points: 4
#     Node 3, Type 0, BuildingBlock: KUFVIS_clean_sbu_0, # of connection points: 4
#     Node 4, Type 0, BuildingBlock: KUFVIS_clean_sbu_0, # of connection points: 4
#     Node 5, Type 0, BuildingBlock: KUFVIS_clean_sbu_0, # of connection points: 4
#     Node 6, Type 0, BuildingBlock: KUFVIS_clean_sbu_0, # of connection points: 4
#     Node 7, Type 0, BuildingBlock: KUFVIS_clean_sbu_0, # of connection points: 4
#     Node 8, Type 0, BuildingBlock: KUFVIS_clean_sbu_0, # of connection points: 4
#     Node 9, Type 0, BuildingBlock: KUFVIS_clean_sbu_0, # of connection points: 4
#     Node 10, Type 0, BuildingBlock: KUFVIS_clean_sbu_0, # of connection points: 4
#     Node 11, Type 0, BuildingBlock: KUFVIS_clean_sbu_0, # of connection points: 4
#     Node 12, Type 0, BuildingBlock: KUFVIS_clean_sbu_0, # of connection points: 4
#     Node 13, Type 0, BuildingBlock: KUFVIS_clean_sbu_0, # of connection points: 4
#     Node 14, Type 0, BuildingBlock: KUFVIS_clean_sbu_0, # of connection points: 4
#     Node 15, Type 0, BuildingBlock: KUFVIS_clean_sbu_0, # of connection points: 4
#     Node 16, Type 0, BuildingBlock: KUFVIS_clean_sbu_0, # of connection points: 4
#     Node 17, Type 0, BuildingBlock: KUFVIS_clean_sbu_0, # of connection points: 4
#     Node 18, Type 1, BuildingBlock: GIZVER_clean_linker_0, # of connection points: 4
#     Node 19, Type 1, BuildingBlock: GIZVER_clean_linker_0, # of connection points: 4
#     Node 20, Type 1, BuildingBlock: GIZVER_clean_linker_0, # of connection points: 4
#     Node 21, Type 1, BuildingBlock: GIZVER_clean_linker_0, # of connection points: 4
#     Node 22, Type 1, BuildingBlock: GIZVER_clean_linker_0, # of connection points: 4
#     Node 23, Type 1, BuildingBlock: GIZVER_clean_linker_0, # of connection points: 4
#     Node 24, Type 1, BuildingBlock: GIZVER_clean_linker_0, # of connection points: 4
#     Node 25, Type 1, BuildingBlock: GIZVER_clean_linker_0, # of connection points: 4
#     Node 26, Type 1, BuildingBlock: GIZVER_clean_linker_0, # of connection points: 4
#     Node 27, Type 1, BuildingBlock: GIZVER_clean_linker_0, # of connection points: 4
#     Node 28, Type 1, BuildingBlock: GIZVER_clean_linker_0, # of connection points: 4
#     Node 29, Type 1, BuildingBlock: GIZVER_clean_linker_0, # of connection points: 4
#     Node 30, Type 1, BuildingBlock: GIZVER_clean_linker_0, # of connection points: 4
#     Node 31, Type 1, BuildingBlock: GIZVER_clean_linker_0, # of connection points: 4
#     Node 32, Type 1, BuildingBlock: GIZVER_clean_linker_0, # of connection points: 4
#     Node 33, Type 1, BuildingBlock: GIZVER_clean_linker_0, # of connection points: 4
#     Node 34, Type 1, BuildingBlock: GIZVER_clean_linker_0, # of connection points: 4
#     Node 35, Type 1, BuildingBlock: GIZVER_clean_linker_0, # of connection points: 4
#     Edge 36, Type (0, 1), None
#     Edge 37, Type (0, 1), None
#     Edge 38, Type (0, 1), None
#     Edge 39, Type (0, 1), None
#     Edge 40, Type (0, 1), None
#     Edge 41, Type (0, 1), None
#     Edge 42, Type (0, 1), None
#     Edge 43, Type (0, 1), None
#     Edge 44, Type (0, 1), None
#     Edge 45, Type (0, 1), None
#     Edge 46, Type (0, 1), None
#     Edge 47, Type (0, 1), None
#     Edge 48, Type (0, 1), None
#     Edge 49, Type (0, 1), None
#     Edge 50, Type (0, 1), None
#     Edge 51, Type (0, 1), None
#     Edge 52, Type (0, 1), None
#     Edge 53, Type (0, 1), None
#     Edge 54, Type (0, 1), None
#     Edge 55, Type (0, 1), None
#     Edge 56, Type (0, 1), None
#     Edge 57, Type (0, 1), None
#     Edge 58, Type (0, 1), None
#     Edge 59, Type (0, 1), None
#     Edge 60, Type (0, 1), None
#     Edge 61, Type (0, 1), None
#     Edge 62, Type (0, 1), None
#     Edge 63, Type (0, 1), None
#     Edge 64, Type (0, 1), None
#     Edge 65, Type (0, 1), None
#     Edge 66, Type (0, 1), None
#     Edge 67, Type (0, 1), None
#     Edge 68, Type (0, 1), None
#     Edge 69, Type (0, 1), None
#     Edge 70, Type (0, 1), None
#     Edge 71, Type (0, 1), None
#     Edge 72, Type (0, 1), None
#     Edge 73, Type (0, 1), None
#     Edge 74, Type (0, 1), None
#     Edge 75, Type (0, 1), None
#     Edge 76, Type (0, 1), None
#     Edge 77, Type (0, 1), None
#     Edge 78, Type (0, 1), None
#     Edge 79, Type (0, 1), None
#     Edge 80, Type (0, 1), None
#     Edge 81, Type (0, 1), None
#     Edge 82, Type (0, 1), None
#     Edge 83, Type (0, 1), None
#     Edge 84, Type (0, 1), None
#     Edge 85, Type (0, 1), None
#     Edge 86, Type (0, 1), None
#     Edge 87, Type (0, 1), None
#     Edge 88, Type (0, 1), None
#     Edge 89, Type (0, 1), None
#     Edge 90, Type (0, 1), None
#     Edge 91, Type (0, 1), None
#     Edge 92, Type (0, 1), None
#     Edge 93, Type (0, 1), None
#     Edge 94, Type (0, 1), None
#     Edge 95, Type (0, 1), None
#     Edge 96, Type (0, 1), None
#     Edge 97, Type (0, 1), None
#     Edge 98, Type (0, 1), None
#     Edge 99, Type (0, 1), None
#     Edge 100, Type (0, 1), None
#     Edge 101, Type (0, 1), None
#     Edge 102, Type (0, 1), None
#     Edge 103, Type (0, 1), None
#     Edge 104, Type (0, 1), None
#     Edge 105, Type (0, 1), None
#     Edge 106, Type (0, 1), None
#     Edge 107, Type (0, 1), None
# Relax obj value: 0.052
# Max RMSD: 0.140
# Mean RMSD: 0.085
data_MOF--net-ptr--node1-KUFVIS_clean_sbu_0--node2-GIZVER_clean_linker_0--edge1-none
_symmetry_space_group_name_H-M    P1
_symmetry_Int_Tables_number       1
_symmetry_cell_setting            triclinic
loop_
_symmetry_equiv_pos_as_xyz
'x, y, z'
_cell_length_a     37.401074
_cell_length_b     37.553733
_cell_length_c     22.77878
_cell_angle_alpha  90.432182
_cell_angle_beta   91.001899
_cell_angle_gamma 119.36854
loop_
_atom_site_label
_atom_site_type_symbol
_atom_site_fract_x
_atom_site_fract_y
_atom_site_fract_z
_atom_type_partial_charge
Mn0 Mn 0.9876 0.33861 -0.00131 0.0
Mn1 Mn 0.06273 0.43454 0.02076 0.0
C2 C 0.98693 0.38847 0.9415 0.0
C3 C 0.94873 0.27628 0.94634 0.0
C4 C -0.004 0.39593 0.09936 0.0
O5 O 0.03217 0.32764 0.02834 0.0
O6 O 0.07022 0.39197 0.06436 0.0
C7 C 0.13379 0.43038 0.97348 0.0
N8 N 0.11322 0.45165 0.97986 0.0
C9 C 0.16861 0.51124 0.93566 0.0
C10 C 0.19068 0.49005 0.93159 0.0
C11 C 0.17311 0.44951 0.95 0.0
C12 C 0.13059 0.49159 0.96348 0.0
H13 H 0.12046 0.399 0.98646 0.0
C14 C 0.06199 0.35451 0.05948 0.0
O15 O 0.94156 0.27949 0.00117 0.0
O16 O 0.98054 0.30737 0.92543 0.0
N17 N 0.06103 0.47871 0.98392 0.0
C18 C 0.01788 0.47311 0.96767 0.0
C19 C 0.00608 0.49797 0.91847 0.0
C20 C 0.04236 0.53598 0.87899 0.0
C21 C 0.11553 0.546 0.91374 0.0
C22 C 0.10567 0.50885 0.96449 0.0
H23 H -0.00838 0.4512 0.99105 0.0
O24 O 0.95375 0.35968 0.9635 0.0
O25 O 0.02265 0.39289 0.96133 0.0
O26 O 0.98489 0.35929 0.08378 0.0
O27 O 0.01483 0.42429 0.06423 0.0
C28 C 0.15756 0.56696 0.89713 0.0
C29 C 0.18295 0.54977 0.90918 0.0
H30 H 0.2205 0.50397 0.91159 0.0
H31 H 0.18968 0.43281 0.94535 0.0
H32 H 0.9745 0.4884 0.91626 0.0
H33 H 0.03389 0.54718 0.8409 0.0
H34 H 0.17068 0.59434 0.87124 0.0
H35 H 0.21354 0.56501 0.89156 0.0
Mn36 Mn 0.63164 0.64352 0.01366 0.0
Mn37 Mn 0.62161 0.54935 0.992 0.0
C38 C 0.58574 0.5914 0.07336 0.0
C39 C 0.65771 0.70528 0.06577 0.0
C40 C 0.5828 0.58607 0.91283 0.0
O41 O 0.68448 0.65775 0.97159 0.0
O42 O 0.67324 0.59347 0.95944 0.0
C43 C 0.69184 0.55519 0.05956 0.0
N44 N 0.65173 0.53246 0.04252 0.0
C45 C 0.64762 0.47174 0.08463 0.0
C46 C 0.68964 0.49446 0.09942 0.0
C47 C 0.71164 0.5363 0.08743 0.0
C48 C 0.63017 0.49137 0.05216 0.0
H49 H 0.70859 0.58754 0.05135 0.0
C50 C 0.69512 0.63216 0.95366 0.0
O51 O 0.64169 0.70138 0.01345 0.0
O52 O 0.66263 0.67527 0.08351 0.0
N53 N 0.57431 0.50356 0.01957 0.0
C54 C 0.53692 0.5099 0.03176 0.0
C55 C 0.49917 0.48469 0.07779 0.0
C56 C 0.49661 0.44599 0.11808 0.0
C57 C 0.55972 0.43495 0.09004 0.0
C58 C 0.58834 0.47274 0.04151 0.0
H59 H 0.53424 0.53299 0.00731 0.0
O60 O 0.58066 0.62156 0.05764 0.0
O61 O 0.61703 0.5893 0.0494 0.0
O62 O 0.59858 0.6216 0.93601 0.0
O63 O 0.58907 0.55828 0.9331 0.0
C64 C 0.58026 0.41356 0.11027 0.0
C65 C 0.62318 0.43185 0.10608 0.0
H66 H 0.70486 0.48062 0.1233 0.0
H67 H 0.74369 0.5541 0.10053 0.0
H68 H 0.47629 0.4935 0.07723 0.0
H69 H 0.47726 0.43528 0.15537 0.0
H70 H 0.56511 0.38531 0.13408 0.0
H71 H 0.63806 0.41658 0.12711 0.0
Mn72 Mn 0.35956 0.97958 0.02182 0.0
Mn73 Mn 0.44736 0.06679 0.02927 0.0
C74 C 0.40797 0.98758 0.0923 0.0
C75 C 0.29327 0.94734 0.05478 0.0
C76 C 0.42334 0.00302 0.93102 0.0
O77 O 0.34886 0.01687 0.97143 0.0
O78 O 0.40374 0.07739 -0.00301 0.0
C79 C 0.42813 0.1105 0.12114 0.0
N80 N 0.45157 0.09438 0.10203 0.0
C81 C 0.49077 0.1128 0.19287 0.0
C82 C 0.46722 0.12983 0.21346 0.0
C83 C 0.43572 0.12861 0.17745 0.0
C84 C 0.48167 0.09505 0.13649 0.0
H85 H 0.40371 0.10932 0.09368 0.0
C86 C 0.3692 0.05552 0.96969 0.0
O87 O 0.30245 0.93404 0.00745 0.0
O88 O 0.32217 0.97965 0.08031 0.0
N89 N 0.49103 0.05932 0.05993 0.0
C90 C 0.51125 0.04219 0.03291 0.0
C91 C 0.54482 0.04254 0.06179 0.0
C92 C 0.55687 0.05992 0.11848 0.0
C93 C 0.5354 0.07714 0.14554 0.0
C94 C 0.50292 0.07695 0.11388 0.0
H95 H 0.50231 0.02903 0.98921 0.0
O96 O 0.3789 0.95143 0.07702 0.0
O97 O 0.40722 0.01725 0.06479 0.0
O98 O 0.3922 0.97404 0.95514 0.0
O99 O 0.44457 0.03896 0.95353 0.0
C100 C 0.5453 0.09501 0.2023 0.0
C101 C 0.52282 0.1126 0.22611 0.0
H102 H 0.47298 0.14382 0.25686 0.0
H103 H 0.41731 0.14154 0.19311 0.0
H104 H 0.5616 0.0299 0.03996 0.0
H105 H 0.58301 0.06047 0.1405 0.0
H106 H 0.57013 0.09537 0.228 0.0
H107 H 0.53059 0.12609 0.26988 0.0
Mn108 Mn -0.00432 0.6347 0.98807 0.0
Mn109 Mn 0.08438 0.63232 0.97674 0.0
C110 C -0.00517 0.58731 0.9218 0.0
C111 C 0.95421 0.6591 0.94819 0.0
C112 C 0.02596 0.59459 0.07775 0.0
O113 O 0.03457 0.68793 0.02684 0.0
O114 O 0.09078 0.68155 0.01967 0.0
C115 C 0.12246 0.70275 0.899 0.0
N116 N 0.11129 0.66281 0.90794 0.0
C117 C 0.13069 0.65612 0.80939 0.0
C118 C 0.14271 0.69737 0.80044 0.0
C119 C 0.13878 0.72073 0.84535 0.0
C120 C 0.11593 0.63999 0.86498 0.0
H121 H 0.11856 0.72093 0.93247 0.0
C122 C 0.07196 0.7 0.03792 0.0
O123 O 0.94746 0.64399 0.00073 0.0
O124 O 0.9866 0.66317 0.92345 0.0
N125 N 0.08697 0.58751 0.94043 0.0
C126 C 0.06777 0.5439 0.96682 0.0
C127 C 0.0618 0.49098 0.88292 0.0
C128 C 0.08311 0.51785 0.8213 0.0
C129 C 0.10246 0.56932 0.82068 0.0
C130 C 0.10362 0.59994 0.8773 0.0
H131 H 0.0597 0.53967 0.01295 0.0
O132 O 0.96254 0.58225 0.94791 0.0
O133 O 0.02979 0.61985 0.93886 0.0
O134 O -5e-05 0.60566 0.06171 0.0
O135 O 0.05703 0.60045 0.04745 0.0
C136 C 0.11829 0.58959 0.76847 0.0
C137 C 0.13241 0.63161 0.76339 0.0
H138 H 0.15454 0.7114 0.75862 0.0
H139 H 0.14767 0.75244 0.83823 0.0
H140 H 0.05429 0.45938 0.88446 0.0
H141 H 0.08487 0.50196 0.78261 0.0
H142 H 0.11927 0.57255 0.73056 0.0
H143 H 0.14403 0.64525 0.72129 0.0
Mn144 Mn 0.35292 0.35244 0.00564 0.0
Mn145 Mn 0.44281 0.35198 0.01883 0.0
C146 C 0.40167 0.40037 0.0714 0.0
C147 C 0.28861 0.32673 0.05123 0.0
C148 C 0.42202 0.39106 0.91711 0.0
O149 O 0.33717 0.29828 0.96692 0.0
O150 O 0.39956 0.30436 0.97434 0.0
C151 C 0.40834 0.28046 0.09493 0.0
N152 N 0.43794 0.32005 0.08743 0.0
C153 C 0.46203 0.32478 0.18798 0.0
C154 C 0.432 0.28388 0.19542 0.0
C155 C 0.40531 0.26166 0.14879 0.0
C156 C 0.4649 0.34165 0.13208 0.0
H157 H 0.38657 0.26321 0.06022 0.0
C158 C 0.36233 0.286 0.95579 0.0
O159 O 0.29321 0.34181 -0.0011 0.0
O160 O 0.31939 0.3248 0.07253 0.0
N161 N 0.49072 0.39491 0.05733 0.0
C162 C 0.51589 0.43878 0.0323 0.0
C163 C 0.56067 0.49018 0.11955 0.0
C164 C 0.55367 0.46242 0.18122 0.0
C165 C 0.52156 0.41106 0.17995 0.0
C166 C 0.49341 0.38143 0.12118 0.0
H167 H 0.51331 0.44359 0.98562 0.0
O168 O 0.37413 0.40601 0.04549 0.0
O169 O 0.40268 0.36711 0.0541 0.0
O170 O 0.38503 0.38041 0.93153 0.0
O171 O 0.44746 0.38508 0.94876 0.0
C172 C 0.51579 0.39013 0.23222 0.0
C173 C 0.48744 0.34831 0.23575 0.0
H174 H 0.42865 0.26931 0.2374 0.0
H175 H 0.38179 0.23026 0.15473 0.0
H176 H 0.58578 0.52107 0.11927 0.0
H177 H 0.57062 0.47763 0.22109 0.0
H178 H 0.53297 0.40651 0.27141 0.0
H179 H 0.48427 0.33412 0.27801 0.0
Mn180 Mn 0.63971 -0.0057 0.98859 0.0
Mn181 Mn 0.55489 0.90186 0.988 0.0
C182 C 0.58381 0.97986 0.92403 0.0
C183 C 0.70362 0.03719 0.94558 0.0
C184 C 0.57502 0.967 0.0824 0.0
O185 O 0.6594 0.96037 0.0351 0.0
O186 O 0.60235 0.89913 0.02307 0.0
C187 C 0.58278 0.86232 0.90116 0.0
N188 N 0.55432 0.87249 0.91891 0.0
C189 C 0.51072 0.8385 0.83468 0.0
C190 C 0.53943 0.82741 0.81558 0.0
C191 C 0.57575 0.83962 0.84879 0.0
C192 C 0.51986 0.8619 0.8865 0.0
H193 H 0.61061 0.87151 0.9268 0.0
C194 C 0.63911 0.92177 0.04277 0.0
O195 O 0.69478 0.04684 -0.00384 0.0
O196 O 0.67709 0.00186 0.92405 0.0
N197 N 0.50585 0.89879 0.95612 0.0
C198 C 0.48058 0.91045 0.98216 0.0
C199 C 0.4418 0.89852 0.95668 0.0
C200 C 0.42943 0.87484 0.90459 0.0
C201 C 0.45573 0.86276 0.87899 0.0
C202 C 0.49366 0.87488 0.90706 0.0
H203 H 0.4897 0.92831 0.02244 0.0
O204 O 0.61091 0.01688 0.93892 0.0
O205 O 0.59038 0.9524 0.94841 0.0
O206 O 0.6081 -0.00513 0.0604 0.0
O207 O 0.55325 0.93129 0.05946 0.0
C208 C 0.44556 0.83868 0.82717 0.0
C209 C 0.47327 0.82701 0.80461 0.0
H210 H 0.5339 0.80953 0.77554 0.0
H211 H 0.59813 0.83133 0.83424 0.0
H212 H 0.4216 0.90777 0.97694 0.0
H213 H 0.39966 0.86607 0.88472 0.0
H214 H 0.41656 0.82909 0.80424 0.0
H215 H 0.46524 0.80874 0.76452 0.0
Mn216 Mn 0.65459 0.67228 0.3327 0.0
Mn217 Mn 0.72918 0.76839 0.35496 0.0
C218 C 0.65353 0.72198 0.27553 0.0
C219 C 0.616 0.60998 0.28013 0.0
C220 C 0.66253 0.72934 0.43346 0.0
O221 O 0.69943 0.66166 0.36236 0.0
O222 O 0.73704 0.72599 0.39854 0.0
C223 C 0.80066 0.76494 0.3079 0.0
N224 N 0.77979 0.78592 0.31419 0.0
C225 C 0.83491 0.84575 0.27006 0.0
C226 C 0.85729 0.82487 0.26611 0.0
C227 C 0.84001 0.78435 0.28453 0.0
C228 C 0.79687 0.82583 0.2978 0.0
H229 H 0.78755 0.73358 0.32088 0.0
C230 C 0.72912 0.68862 0.3936 0.0
O231 O 0.60878 0.61304 0.33499 0.0
O232 O 0.64775 0.64119 0.25934 0.0
N233 N 0.72712 0.81241 0.31815 0.0
C234 C 0.68384 0.80649 0.30186 0.0
C235 C 0.6718 0.83115 0.25262 0.0
C236 C 0.70792 0.86928 0.21312 0.0
C237 C 0.7813 0.87985 0.24793 0.0
C238 C 0.77169 0.8428 0.29873 0.0
H239 H 0.65764 0.78445 0.32521 0.0
O240 O 0.62046 0.69306 0.29756 0.0
O241 O 0.68935 0.72666 0.29537 0.0
O242 O 0.65172 0.69276 0.41789 0.0
O243 O 0.68106 0.7577 0.39822 0.0
C244 C 0.82333 0.90109 0.23137 0.0
C245 C 0.84898 0.88423 0.24355 0.0
H246 H 0.88714 0.839 0.24618 0.0
H247 H 0.85682 0.76788 0.27996 0.0
H248 H 0.64017 0.82138 0.25035 0.0
H249 H 0.69933 0.88037 0.17501 0.0
H250 H 0.83628 0.92846 0.20547 0.0
H251 H 0.87959 0.89967 0.22599 0.0
Mn252 Mn 0.2971 0.97739 0.34684 0.0
Mn253 Mn 0.28767 0.88349 0.32522 0.0
C254 C 0.25135 0.92515 0.40649 0.0
C255 C 0.32307 0.03908 0.39899 0.0
C256 C 0.24837 0.91978 0.24611 0.0
O257 O 0.34999 -0.00806 0.30476 0.0
O258 O 0.33909 0.92781 0.29258 0.0
C259 C 0.35819 0.8901 0.39287 0.0
N260 N 0.31813 0.86703 0.37576 0.0
C261 C 0.31465 0.80665 0.41809 0.0
C262 C 0.35664 0.82972 0.43288 0.0
C263 C 0.3783 0.87156 0.42083 0.0
C264 C 0.2969 0.82595 0.38551 0.0
H265 H 0.37464 0.92247 0.38468 0.0
C266 C 0.36081 0.96651 0.28684 0.0
O267 O 0.30694 0.03517 0.34673 0.0
O268 O 0.32807 0.00911 0.41665 0.0
N269 N 0.24062 0.83749 0.35288 0.0
C270 C 0.203 0.84345 0.36507 0.0
C271 C 0.16536 0.81807 0.41119 0.0
C272 C 0.16322 0.7796 0.4516 0.0
C273 C 0.22671 0.76919 0.42359 0.0
C274 C 0.25504 0.80699 0.37493 0.0
H275 H 0.20008 0.8664 0.34059 0.0
O276 O 0.24612 0.95522 0.39083 0.0
O277 O 0.28276 0.92324 0.38257 0.0
O278 O 0.26402 0.95533 0.26923 0.0
O279 O 0.25485 0.89211 0.26638 0.0
C280 C 0.24758 0.74813 0.44391 0.0
C281 C 0.29052 0.76675 0.43966 0.0
H282 H 0.37209 0.81614 0.45685 0.0
H283 H 0.41032 0.88964 0.43398 0.0
H284 H 0.14233 0.82667 0.41067 0.0
H285 H 0.14393 0.76884 0.48896 0.0
H286 H 0.23265 0.71991 0.46782 0.0
H287 H 0.30563 0.75175 0.46077 0.0
Mn288 Mn 0.02606 0.31095 0.35436 0.0
Mn289 Mn 0.11399 0.39789 0.36191 0.0
C290 C 0.0744 0.31857 0.42477 0.0
C291 C 0.95984 0.27908 0.38762 0.0
C292 C 0.08961 0.33423 0.2634 0.0
O293 O 0.01567 0.34852 0.30401 0.0
O294 O 0.07041 0.40886 0.33057 0.0
C295 C 0.09527 0.44117 0.45506 0.0
N296 N 0.11863 0.42521 0.43509 0.0
C297 C 0.15842 0.4433 0.52541 0.0
C298 C 0.13495 0.46018 0.54688 0.0
C299 C 0.10319 0.45903 0.51157 0.0
C300 C 0.14892 0.42571 0.46894 0.0
H301 H 0.07066 0.44005 0.42813 0.0
C302 C 0.03603 0.3872 0.3028 0.0
O303 O 0.96877 0.26564 0.3402 0.0
O304 O 0.98892 0.31134 0.41298 0.0
N305 N 0.15771 0.39017 0.39159 0.0
C306 C 0.17796 0.37343 0.36361 0.0
C307 C 0.21201 0.37412 0.39146 0.0
C308 C 0.2245 0.39142 0.44812 0.0
C309 C 0.20293 0.40811 0.47626 0.0
C310 C 0.17001 0.40769 0.44554 0.0
H311 H 0.16879 0.36047 0.31983 0.0
O312 O 0.04515 0.28251 0.40949 0.0
O313 O 0.07385 0.34834 0.39729 0.0
O314 O 0.05857 0.30521 0.28762 0.0
O315 O 0.11074 0.37022 0.28584 0.0
C316 C 0.21325 0.42584 0.53308 0.0
C317 C 0.19079 0.44314 0.55784 0.0
H318 H 0.14099 0.47402 0.5904 0.0
H319 H 0.08483 0.47183 0.52792 0.0
H320 H 0.22886 0.36191 0.36877 0.0
H321 H 0.25112 0.39241 0.46922 0.0
H322 H 0.23841 0.42634 0.55808 0.0
H323 H 0.19888 0.45653 0.60166 0.0
Mn324 Mn 0.66071 0.96789 0.32211 0.0
Mn325 Mn 0.74949 0.96567 0.31083 0.0
C326 C 0.65998 0.9205 0.25587 0.0
C327 C 0.61945 -0.00748 0.28217 0.0
C328 C 0.69095 0.92772 0.41172 0.0
O329 O 0.69953 0.02107 0.36114 0.0
O330 O 0.75576 0.01478 0.35371 0.0
C331 C 0.78736 0.03613 0.23312 0.0
N332 N 0.77635 -0.00378 0.24205 0.0
C333 C 0.7958 0.98965 0.14349 0.0
C334 C 0.80767 0.03086 0.13455 0.0
C335 C 0.80362 0.05414 0.17946 0.0
C336 C 0.78108 0.97348 0.19907 0.0
H337 H 0.78336 0.05424 0.26657 0.0
C338 C 0.73694 0.03321 0.37206 0.0
O339 O 0.61252 0.97727 0.33462 0.0
O340 O 0.65183 -0.00349 0.25752 0.0
N341 N 0.75228 0.92098 0.27451 0.0
C342 C 0.73335 0.8774 0.30096 0.0
C343 C 0.7278 0.82461 0.21713 0.0
C344 C 0.74898 0.85151 0.1555 0.0
C345 C 0.768 0.90293 0.15481 0.0
C346 C 0.76891 0.93347 0.21138 0.0
H347 H 0.72531 0.87315 0.34709 0.0
O348 O 0.62763 0.91549 0.28171 0.0
O349 O 0.69489 0.95306 0.27301 0.0
O350 O 0.66489 0.93873 0.39566 0.0
O351 O 0.72211 0.93372 0.38149 0.0
C352 C 0.78375 0.92323 0.1026 0.0
C353 C 0.79766 0.96521 0.0975 0.0
H354 H 0.81946 0.04492 0.09272 0.0
H355 H 0.81238 0.08582 0.17234 0.0
H356 H 0.72058 0.7931 0.21874 0.0
H357 H 0.75089 0.83568 0.11684 0.0
H358 H 0.78486 0.90625 0.06471 0.0
H359 H 0.80925 0.97888 0.0554 0.0
Mn360 Mn 0.01978 0.68478 0.33899 0.0
Mn361 Mn 0.11013 0.68528 0.35258 0.0
C362 C 0.06822 0.73302 0.40477 0.0
C363 C 0.95539 0.65869 0.38463 0.0
C364 C 0.08892 0.72385 0.25059 0.0
O365 O 0.0046 0.63071 0.30038 0.0
O366 O 0.06721 0.63733 0.30815 0.0
C367 C 0.07625 0.61393 0.42898 0.0
N368 N 0.10557 0.65361 0.42136 0.0
C369 C 0.12975 0.65876 0.52194 0.0
C370 C 0.10001 0.61777 0.52951 0.0
C371 C 0.07341 0.5953 0.48294 0.0
C372 C 0.13243 0.67547 0.46596 0.0
H373 H 0.05456 0.59647 0.3943 0.0
C374 C 0.03001 0.6187 0.28945 0.0
O375 O 0.9599 0.67369 0.33226 0.0
O376 O 0.98629 0.65698 0.40589 0.0
N377 N 0.15776 0.72861 0.39103 0.0
C378 C 0.18258 0.77248 0.36585 0.0
C379 C 0.22714 0.8242 0.45292 0.0
C380 C 0.22044 0.79661 0.51468 0.0
C381 C 0.18869 0.74519 0.5136 0.0
C382 C 0.16065 0.71533 0.45493 0.0
H383 H 0.17991 0.77716 0.31915 0.0
O384 O 0.04051 0.73833 0.37875 0.0
O385 O 0.06958 0.69993 0.38758 0.0
O386 O 0.05185 0.71292 0.2649 0.0
O387 O 0.11449 0.71813 0.28234 0.0
C388 C 0.18313 0.72439 0.56596 0.0
C389 C 0.15507 0.6825 0.56964 0.0
H390 H 0.09682 0.60331 0.57156 0.0
H391 H 0.05012 0.56382 0.48899 0.0
H392 H 0.25207 0.85518 0.45252 0.0
H393 H 0.23735 0.81197 0.55451 0.0
H394 H 0.20025 0.74093 0.60509 0.0
H395 H 0.15204 0.66843 0.61197 0.0
Mn396 Mn 0.3068 0.32773 0.32097 0.0
Mn397 Mn 0.22245 0.23495 0.3197 0.0
C398 C 0.25089 0.31319 0.25639 0.0
C399 C 0.37069 0.37093 0.27811 0.0
C400 C 0.24208 0.29959 0.41476 0.0
O401 O 0.3267 0.29398 0.3674 0.0
O402 O 0.27012 0.23249 0.35436 0.0
C403 C 0.25087 0.19642 0.232 0.0
N404 N 0.22211 0.20601 0.25024 0.0
C405 C 0.17837 0.17177 0.16623 0.0
C406 C 0.20739 0.16127 0.14662 0.0
C407 C 0.24394 0.1739 0.17946 0.0
C408 C 0.18744 0.19506 0.21816 0.0
H409 H 0.27888 0.20593 0.25737 0.0
C410 C 0.30665 0.25535 0.37473 0.0
O411 O 0.36174 0.38041 0.32873 0.0
O412 O 0.34429 0.3356 0.25645 0.0
N413 N 0.17315 0.23149 0.2882 0.0
C414 C 0.14768 0.24273 0.31462 0.0
C415 C 0.10869 0.23032 0.28956 0.0
C416 C 0.0963 0.20661 0.2375 0.0
C417 C 0.12283 0.19499 0.21148 0.0
C418 C 0.16099 0.20757 0.23914 0.0
H419 H 0.15679 0.26057 0.3549 0.0
O420 O 0.27784 0.35021 0.27149 0.0
O421 O 0.25762 0.28578 0.28056 0.0
O422 O 0.27497 0.32779 0.3928 0.0
O423 O 0.22059 0.26391 0.39157 0.0
C424 C 0.11269 0.17095 0.15963 0.0
C425 C 0.14068 0.15982 0.13658 0.0
H426 H 0.20193 0.14351 0.10648 0.0
H427 H 0.26656 0.16607 0.16451 0.0
H428 H 0.08831 0.23922 0.31014 0.0
H429 H 0.06636 0.19746 0.21796 0.0
H430 H 0.08351 0.161 0.13701 0.0
H431 H 0.13268 0.14161 0.09644 0.0
Mn432 Mn 0.32017 0.006 0.66596 0.0
Mn433 Mn 0.39494 0.10209 0.68799 0.0
C434 C 0.31916 0.05575 0.60879 0.0
C435 C 0.28157 0.9437 0.61336 0.0
C436 C 0.3282 0.06326 0.76647 0.0
O437 O 0.36493 -0.0047 0.69578 0.0
O438 O 0.40263 0.05967 0.73177 0.0
C439 C 0.46616 0.09815 0.64091 0.0
N440 N 0.44549 0.11932 0.64717 0.0
C441 C 0.50073 0.1789 0.60274 0.0
C442 C 0.52292 0.15782 0.59884 0.0
C443 C 0.50547 0.11733 0.61742 0.0
C444 C 0.46273 0.15921 0.6306 0.0
H445 H 0.45291 0.0668 0.65399 0.0
C446 C 0.39464 0.02227 0.72701 0.0
O447 O 0.27429 0.94677 0.66819 0.0
O448 O 0.31337 0.97489 0.59265 0.0
N449 N 0.3931 0.14618 0.65103 0.0
C450 C 0.3499 0.14046 0.63478 0.0
C451 C 0.33797 0.16515 0.58542 0.0
C452 C 0.37417 0.20307 0.54573 0.0
C453 C 0.44743 0.21334 0.58047 0.0
C454 C 0.43771 0.17636 0.63146 0.0
H455 H 0.32367 0.11854 0.65821 0.0
O456 O 0.28609 0.02682 0.63077 0.0
O457 O 0.35497 0.06035 0.62855 0.0
O458 O 0.31729 0.02663 0.75103 0.0
O459 O 0.34688 0.09159 0.73123 0.0
C460 C 0.48944 0.23435 0.56378 0.0
C461 C 0.51494 0.21733 0.57603 0.0
H462 H 0.55273 0.17177 0.57881 0.0
H463 H 0.52212 0.1007 0.61287 0.0
H464 H 0.30637 0.15555 0.58318 0.0
H465 H 0.36562 0.21407 0.50752 0.0
H466 H 0.50247 0.26165 0.53773 0.0
H467 H 0.54552 0.2326 0.55837 0.0
Mn468 Mn 0.96431 0.3094 0.67997 0.0
Mn469 Mn 0.95396 0.21511 0.65842 0.0
C470 C 0.91832 0.25738 0.73971 0.0
C471 C 0.99067 0.37126 0.73189 0.0
C472 C 0.91516 0.25189 0.57936 0.0
O473 O 0.01706 0.32347 0.63784 0.0
O474 O 0.00548 0.25911 0.62547 0.0
C475 C 0.02439 0.22112 0.72563 0.0
N476 N 0.98424 0.19834 0.70882 0.0
C477 C 0.98028 0.13774 0.75115 0.0
C478 C 0.02233 0.1605 0.76567 0.0
C479 C 0.04429 0.2023 0.75346 0.0
C480 C 0.96273 0.15728 0.7187 0.0
H481 H 0.0411 0.25345 0.71728 0.0
C482 C 0.02748 0.29778 0.6197 0.0
O483 O 0.97458 0.36734 0.67961 0.0
O484 O -0.00459 0.34116 0.74973 0.0
N485 N 0.90676 0.16938 0.68634 0.0
C486 C 0.86937 0.1757 0.69864 0.0
C487 C 0.83173 0.15056 0.74487 0.0
C488 C 0.82931 0.11197 0.78527 0.0
C489 C 0.8924 0.10094 0.75706 0.0
C490 C 0.92087 0.13863 0.70832 0.0
H491 H 0.86661 0.19873 0.67415 0.0
O492 O 0.91336 0.28761 0.72401 0.0
O493 O 0.94956 0.25517 0.71577 0.0
O494 O 0.93119 0.28748 0.60238 0.0
O495 O 0.92124 0.22398 0.59972 0.0
C496 C 0.91301 0.07961 0.77728 0.0
C497 C 0.95592 0.0979 0.77284 0.0
H498 H 0.03763 0.14672 0.78953 0.0
H499 H 0.07637 0.22014 0.76637 0.0
H500 H 0.80886 0.15937 0.74437 0.0
H501 H 0.81004 0.10133 0.82266 0.0
H502 H 0.89794 0.05142 0.80124 0.0
H503 H 0.97086 0.0827 0.79385 0.0
Mn504 Mn 0.69418 0.64544 0.68844 0.0
Mn505 Mn 0.78191 0.73258 0.69586 0.0
C506 C 0.7425 0.65334 0.759 0.0
C507 C 0.6279 0.61343 0.72143 0.0
C508 C 0.7577 0.66888 0.59744 0.0
O509 O 0.68362 0.68281 0.63798 0.0
O510 O 0.73821 0.74334 0.66425 0.0
C511 C 0.76307 0.77602 0.78861 0.0
N512 N 0.78645 0.76 0.76891 0.0
C513 C 0.82598 0.77807 0.85946 0.0
C514 C 0.80249 0.79502 0.88065 0.0
C515 C 0.77086 0.79392 0.84509 0.0
C516 C 0.81665 0.76052 0.80296 0.0
H517 H 0.73855 0.77492 0.7615 0.0
C518 C 0.70382 0.72148 0.63659 0.0
O519 O 0.63699 0.60001 0.67413 0.0
O520 O 0.65688 0.6457 0.7469 0.0
N521 N 0.82565 0.72497 0.72581 0.0
C522 C 0.8458 0.70799 0.69819 0.0
C523 C 0.87957 0.70836 0.72649 0.0
C524 C 0.89187 0.7256 0.78322 0.0
C525 C 0.87044 0.74262 0.81092 0.0
C526 C 0.83778 0.74246 0.7798 0.0
H527 H 0.83672 0.69499 0.65443 0.0
O528 O 0.71339 0.61721 0.74372 0.0
O529 O 0.74185 0.68302 0.7314 0.0
O530 O 0.72679 0.63979 0.62179 0.0
O531 O 0.77878 0.70488 0.61985 0.0
C532 C 0.88057 0.76031 0.86778 0.0
C533 C 0.85816 0.77778 0.8922 0.0
H534 H 0.80841 0.80885 0.92417 0.0
H535 H 0.75249 0.80677 0.86123 0.0
H536 H 0.89631 0.69588 0.70416 0.0
H537 H 0.91819 0.72623 0.80475 0.0
H538 H 0.90553 0.76064 0.89308 0.0
H539 H 0.8661 0.79113 0.93605 0.0
Mn540 Mn 0.32791 0.30247 0.65469 0.0
Mn541 Mn 0.41642 0.29979 0.64302 0.0
C542 C 0.32687 0.255 0.5883 0.0
C543 C 0.28659 0.32697 0.61477 0.0
C544 C 0.35798 0.26213 0.74412 0.0
O545 O 0.36693 0.35554 0.69382 0.0
O546 O 0.4231 0.34916 0.68577 0.0
C547 C 0.45429 0.36997 0.56484 0.0
N548 N 0.44319 0.33007 0.57402 0.0
C549 C 0.46227 0.32306 0.4754 0.0
C550 C 0.47423 0.36427 0.4662 0.0
C551 C 0.47042 0.38776 0.51101 0.0
C552 C 0.44768 0.30711 0.53113 0.0
H553 H 0.45046 0.38824 0.59822 0.0
C554 C 0.40438 0.36762 0.70444 0.0
O555 O 0.27977 0.31185 0.6673 0.0
O556 O 0.31911 0.33124 0.59024 0.0
N557 N 0.41878 0.25482 0.60686 0.0
C558 C 0.39968 0.21128 0.63353 0.0
C559 C 0.39373 0.15817 0.54996 0.0
C560 C 0.41493 0.18487 0.48818 0.0
C561 C 0.43418 0.23632 0.48723 0.0
C562 C 0.43535 0.26708 0.54365 0.0
H563 H 0.39171 0.20718 0.67968 0.0
O564 O 0.2946 0.25014 0.61423 0.0
O565 O 0.36186 0.28746 0.6054 0.0
O566 O 0.33193 0.27315 0.72809 0.0
O567 O 0.38912 0.26811 0.71389 0.0
C568 C 0.44987 0.25643 0.43488 0.0
C569 C 0.4639 0.29842 0.42952 0.0
H570 H 0.48592 0.37816 0.42425 0.0
H571 H 0.47924 0.41944 0.50369 0.0
H572 H 0.38637 0.12662 0.55173 0.0
H573 H 0.41668 0.16889 0.44959 0.0
H574 H 0.45079 0.2393 0.39706 0.0
H575 H 0.47539 0.31193 0.38731 0.0
Mn576 Mn 0.68548 0.01798 0.67307 0.0
Mn577 Mn 0.77546 0.01771 0.68635 0.0
C578 C 0.73421 0.06601 0.73876 0.0
C579 C 0.62118 -0.00764 0.71872 0.0
C580 C 0.75456 0.05667 0.58456 0.0
O581 O 0.66984 0.96381 0.63435 0.0
O582 O 0.73224 0.96995 0.64203 0.0
C583 C 0.74119 0.94636 0.76278 0.0
N584 N 0.77073 0.98594 0.7551 0.0
C585 C 0.795 -0.00908 0.8556 0.0
C586 C 0.76502 0.95003 0.86323 0.0
C587 C 0.73826 0.92769 0.81672 0.0
C588 C 0.79774 0.00767 0.79963 0.0
H589 H 0.71938 0.92902 0.72816 0.0
C590 C 0.69503 0.95153 0.62339 0.0
O591 O 0.62578 0.00739 0.66636 0.0
O592 O 0.65192 -0.00966 0.73998 0.0
N593 N 0.82334 0.06078 0.72468 0.0
C594 C 0.84841 0.1046 0.69945 0.0
C595 C 0.89334 0.1562 0.78641 0.0
C596 C 0.88651 0.12858 0.84819 0.0
C597 C 0.85444 0.07721 0.84716 0.0
C598 C 0.82618 0.04744 0.78855 0.0
H599 H 0.84574 0.10931 0.65276 0.0
O600 O 0.70661 0.07156 0.71288 0.0
O601 O 0.73527 0.03277 0.72154 0.0
O602 O 0.71757 0.046 0.599 0.0
O603 O 0.78 0.05066 0.61615 0.0
C604 C 0.84879 0.05638 0.89952 0.0
C605 C 0.82048 0.01456 0.90324 0.0
H606 H 0.76177 0.93555 0.90528 0.0
H607 H 0.71479 0.89629 0.82282 0.0
H608 H 0.91843 0.1871 0.78597 0.0
H609 H 0.90353 0.14387 0.88797 0.0
H610 H 0.86603 0.07286 0.93861 0.0
H611 H 0.8174 0.00047 0.94556 0.0
Mn612 Mn 0.9739 0.66073 0.65453 0.0
Mn613 Mn 0.88947 0.56804 0.65385 0.0
C614 C 0.91794 0.64597 0.58995 0.0
C615 C 0.0377 0.70391 0.61158 0.0
C616 C 0.90927 0.63297 0.74846 0.0
O617 O -0.00611 0.62706 0.70103 0.0
O618 O 0.93713 0.56561 0.68871 0.0
C619 C 0.91763 0.52891 0.56673 0.0
N620 N 0.88903 0.53884 0.58462 0.0
C621 C 0.84547 0.50484 0.50036 0.0
C622 C 0.87433 0.494 0.4811 0.0
C623 C 0.9107 0.50633 0.51426 0.0
C624 C 0.85451 0.52813 0.55228 0.0
H625 H 0.9455 0.53821 0.59231 0.0
C626 C 0.97381 0.58844 0.70857 0.0
O627 O 0.02876 0.71345 0.66217 0.0
O628 O 0.01135 0.66852 0.59001 0.0
N629 N 0.84028 0.56472 0.62212 0.0
C630 C 0.8149 0.57619 0.64826 0.0
C631 C 0.77609 0.56413 0.62283 0.0
C632 C 0.76379 0.54052 0.57068 0.0
C633 C 0.79021 0.52864 0.54495 0.0
C634 C 0.82818 0.54088 0.57299 0.0
H635 H 0.82396 0.59398 0.6886 0.0
O636 O 0.94485 0.68305 0.60485 0.0
O637 O 0.92471 0.61866 0.61436 0.0
O638 O 0.94219 0.66103 0.72636 0.0
O639 O 0.88768 0.59724 0.72549 0.0
C640 C 0.78013 0.50466 0.49305 0.0
C641 C 0.80798 0.49321 0.47035 0.0
H642 H 0.86887 0.47621 0.44099 0.0
H643 H 0.93319 0.49823 0.49958 0.0
H644 H 0.75579 0.57322 0.64318 0.0
H645 H 0.73398 0.53164 0.55085 0.0
H646 H 0.7511 0.49498 0.47015 0.0
H647 H 0.80002 0.47503 0.43019 0.0
H648 H 0.1197 0.28963 0.21476 0.0
H649 H 0.10452 0.31433 0.03424 0.0
H650 H 0.06715 0.36467 0.17508 0.0
H651 H 0.12106 0.24632 0.12044 0.0
H652 H 0.13431 0.27232 0.05281 0.0
H653 H 0.17342 0.28695 0.21271 0.0
H654 H 0.29593 0.32875 0.16587 0.0
H655 H 0.20536 0.30401 0.02904 0.0
C656 C 0.11258 0.3057 0.18219 0.0
C657 C 0.0955 0.32933 0.20117 0.0
C658 C 0.11904 0.30236 0.12202 0.0
C659 C 0.10273 0.3189 0.0809 0.0
C660 C 0.08324 0.34063 0.10018 0.0
C661 C 0.08165 0.3474 0.16014 0.0
C662 C 0.13826 0.27708 0.10126 0.0
C663 C 0.18341 0.29463 0.11878 0.0
C664 C 0.19516 0.29582 0.17856 0.0
C665 C 0.23555 0.30766 0.19495 0.0
C666 C 0.26452 0.31862 0.15173 0.0
C667 C 0.25447 0.31732 0.09177 0.0
C668 C 0.21372 0.30579 0.07517 0.0
H669 H 0.60287 0.75297 0.23921 0.0
H670 H 0.63126 0.76285 0.05627 0.0
H671 H 0.68416 0.71247 0.17699 0.0
H672 H 0.57871 0.77926 0.09347 0.0
H673 H 0.57005 0.77903 0.16988 0.0
H674 H 0.60109 0.84372 0.22628 0.0
H675 H 0.68141 0.9566 0.14682 0.0
H676 H 0.62746 0.84356 0.04537 0.0
C677 C 0.62098 0.75111 0.20396 0.0
C678 C 0.64807 0.73556 0.2159 0.0
C679 C 0.62008 0.76761 0.14812 0.0
C680 C 0.63711 0.75678 0.10081 0.0
C681 C 0.6573 0.73377 0.11076 0.0
C682 C 0.66642 0.72776 0.16865 0.0
C683 C 0.59467 0.78949 0.13702 0.0
C684 C 0.61836 0.83682 0.13851 0.0
C685 C 0.62005 0.85944 0.18942 0.0
C686 C 0.65016 0.9012 0.19595 0.0
C687 C 0.6651 0.9235 0.14427 0.0
C688 C 0.65207 0.90279 0.08926 0.0
C689 C 0.63449 0.85956 0.08741 0.0
H690 H 0.16431 0.78165 0.21995 0.0
H691 H 0.14478 0.76748 0.03316 0.0
H692 H 0.04574 0.69614 0.14799 0.0
H693 H 0.2218 0.80702 0.15108 0.0
H694 H 0.21215 0.80356 0.07358 0.0
H695 H 0.18915 0.84873 0.20703 0.0
H696 H 0.27171 0.96962 0.15411 0.0
H697 H 0.23961 0.86832 0.03548 0.0
C698 C 0.14342 0.76902 0.1825 0.0
C699 C 0.1023 0.74014 0.19126 0.0
C700 C 0.15819 0.7805 0.1256 0.0
C701 C 0.13253 0.76104 0.07703 0.0
C702 C 0.09235 0.73033 0.08494 0.0
C703 C 0.07647 0.72133 0.1419 0.0
C704 C 0.20239 0.81026 0.11626 0.0
C705 C 0.21009 0.85354 0.11867 0.0
C706 C 0.20491 0.86931 0.17185 0.0
C707 C 0.22965 0.91079 0.18642 0.0
C708 C 0.25148 0.9378 0.14204 0.0
C709 C 0.25573 0.9225 0.08732 0.0
C710 C 0.23364 0.88048 0.07515 0.0
H711 H 0.37962 0.20674 0.77904 0.0
H712 H 0.37134 0.22043 0.9643 0.0
H713 H 0.33821 0.28753 0.84409 0.0
H714 H 0.4183 0.18967 0.84953 0.0
H715 H 0.41466 0.19621 0.92646 0.0
H716 H 0.3414 0.13637 0.80162 0.0
H717 H 0.32709 0.02354 0.8674 0.0
H718 H 0.3891 0.13404 0.97222 0.0
C719 C 0.36975 0.21855 0.81502 0.0
C720 C 0.355 0.24571 0.80385 0.0
C721 C 0.37447 0.20851 0.87273 0.0
C722 C 0.36467 0.22587 0.91975 0.0
C723 C 0.3523 0.25484 0.90982 0.0
C724 C 0.34545 0.26328 0.85178 0.0
C725 C 0.39622 0.1848 0.88481 0.0
C726 C 0.36666 0.13976 0.88764 0.0
C727 C 0.34345 0.11878 0.83763 0.0
C728 C 0.33059 0.07703 0.82839 0.0
C729 C 0.33474 0.05506 0.87493 0.0
C730 C 0.35516 0.07563 0.92771 0.0
C731 C 0.37056 0.11774 0.93377 0.0
H732 H 0.83786 0.22212 0.77993 0.0
H733 H 0.86605 0.21664 0.96137 0.0
H734 H 0.96244 0.26664 0.83511 0.0
H735 H 0.79514 0.19177 0.931 0.0
H736 H 0.78402 0.20053 0.85836 0.0
H737 H 0.75418 0.1431 0.78306 0.0
H738 H 0.71823 0.0216 0.836 0.0
H739 H 0.76356 0.12063 0.96381 0.0
C740 C 0.85954 0.22381 0.81338 0.0
C741 C 0.90176 0.24132 0.79929 0.0
C742 C 0.8452 0.20773 0.87008 0.0
C743 C 0.87556 0.22145 0.91615 0.0
C744 C 0.91792 0.24571 0.90385 0.0
C745 C 0.93007 0.25043 0.8452 0.0
C746 C 0.79845 0.18569 0.88414 0.0
C747 C 0.77214 0.13874 0.8724 0.0
C748 C 0.75482 0.12282 0.81592 0.0
C749 C 0.74134 0.08124 0.80095 0.0
C750 C 0.73222 0.05394 0.84673 0.0
C751 C 0.73462 0.06735 0.90536 0.0
C752 C 0.75848 0.10993 0.91855 0.0
H753 H 0.83341 0.60143 0.79501 0.0
H754 H 0.87445 0.63864 0.97349 0.0
H755 H 0.9613 0.67646 0.83428 0.0
H756 H 0.7869 0.57308 0.87932 0.0
H757 H 0.80328 0.59551 0.95118 0.0
H758 H 0.79858 0.63574 0.79861 0.0
H759 H 0.71089 0.67035 0.85096 0.0
H760 H 0.75694 0.61715 0.97587 0.0
C761 C 0.8579 0.62002 0.82615 0.0
C762 C 0.89846 0.6402 0.80761 0.0
C763 C 0.84884 0.62314 0.88503 0.0
C764 C 0.88112 0.64109 0.92712 0.0
C765 C 0.92184 0.65825 0.90925 0.0
C766 C 0.92989 0.66216 0.84884 0.0
C767 C 0.80485 0.60264 0.90365 0.0
C768 C 0.7847 0.62839 0.89119 0.0
C769 C 0.78335 0.64171 0.83399 0.0
C770 C 0.7578 0.65793 0.81974 0.0
C771 C 0.73381 0.66186 0.86341 0.0
C772 C 0.73251 0.64604 0.91932 0.0
C773 C 0.75916 0.63089 0.93351 0.0
H774 H 0.78734 0.624 0.5486 0.0
H775 H 0.77153 0.64829 0.36815 0.0
H776 H 0.73511 0.69934 0.50923 0.0
H777 H 0.78792 0.58027 0.45406 0.0
H778 H 0.80142 0.60637 0.38654 0.0
H779 H 0.84068 0.62079 0.54651 0.0
H780 H 0.96255 0.65978 0.49933 0.0
H781 H 0.87239 0.63707 0.3627 0.0
C782 C 0.78031 0.64016 0.51606 0.0
C783 C 0.76347 0.66397 0.53515 0.0
C784 C 0.78652 0.63663 0.45585 0.0
C785 C 0.77003 0.65308 0.41482 0.0
C786 C 0.75069 0.67495 0.43419 0.0
C787 C 0.74949 0.68199 0.49418 0.0
C788 C 0.80541 0.61105 0.43499 0.0
C789 C 0.85052 0.62805 0.45248 0.0
C790 C 0.86228 0.62916 0.51224 0.0
C791 C 0.90249 0.64019 0.52854 0.0
C792 C 0.93128 0.65032 0.48523 0.0
C793 C 0.92129 0.64934 0.42528 0.0
C794 C 0.88072 0.63863 0.4088 0.0
H795 H 0.26868 0.08699 0.57277 0.0
H796 H 0.29676 0.09673 0.3897 0.0
H797 H 0.34959 0.04613 0.51014 0.0
H798 H 0.24432 0.11329 0.42728 0.0
H799 H 0.23613 0.11347 0.50382 0.0
H800 H 0.26751 0.17839 0.55925 0.0
H801 H 0.3488 0.29061 0.47886 0.0
H802 H 0.29443 0.177 0.3787 0.0
C803 C 0.28664 0.08499 0.53742 0.0
C804 C 0.31368 0.06936 0.54923 0.0
C805 C 0.2857 0.10147 0.48159 0.0
C806 C 0.30261 0.09061 0.4342 0.0
C807 C 0.32274 0.06755 0.44404 0.0
C808 C 0.33189 0.06148 0.50189 0.0
C809 C 0.26053 0.12358 0.47066 0.0
C810 C 0.28466 0.17087 0.4717 0.0
C811 C 0.2865 0.19384 0.52228 0.0
C812 C 0.31693 0.23551 0.52851 0.0
C813 C 0.3322 0.2575 0.47666 0.0
C814 C 0.31929 0.23651 0.42181 0.0
C815 C 0.30135 0.19325 0.42053 0.0
H816 H 0.83022 0.11379 0.55356 0.0
H817 H 0.80986 0.10038 0.3669 0.0
H818 H 0.71097 0.0296 0.48223 0.0
H819 H 0.88738 0.13869 0.48428 0.0
H820 H 0.87745 0.13522 0.40684 0.0
H821 H 0.85548 0.1811 0.54037 0.0
H822 H 0.93889 0.30168 0.48724 0.0
H823 H 0.90576 0.2001 0.36872 0.0
C824 C 0.80915 0.10146 0.51627 0.0
C825 C 0.76792 0.073 0.52525 0.0
C826 C 0.82376 0.11294 0.45929 0.0
C827 C 0.79777 0.09396 0.41086 0.0
C828 C 0.75748 0.06357 0.41896 0.0
C829 C 0.7418 0.05458 0.47602 0.0
C830 C 0.86804 0.14219 0.44962 0.0
C831 C 0.87631 0.18565 0.45199 0.0
C832 C 0.87138 0.2016 0.50515 0.0
C833 C 0.89645 0.24302 0.51967 0.0
C834 C 0.91842 0.26991 0.47523 0.0
C835 C 0.92238 0.25445 0.42046 0.0
C836 C 0.9 0.21243 0.4084 0.0
H837 H 0.04768 0.53929 0.11299 0.0
H838 H 0.03933 0.55326 0.29822 0.0
H839 H 0.00614 0.62008 0.17759 0.0
H840 H 0.08626 0.52219 0.18397 0.0
H841 H 0.0821 0.52831 0.26087 0.0
H842 H 0.00967 0.46914 0.13485 0.0
H843 H -0.00572 0.35579 0.2001 0.0
H844 H 0.05621 0.46584 0.30592 0.0
C845 C 0.03778 0.55112 0.14891 0.0
C846 C 0.02303 0.57828 0.13758 0.0
C847 C 0.04238 0.54108 0.2067 0.0
C848 C 0.03269 0.55863 0.25362 0.0
C849 C 0.02029 0.58756 0.24352 0.0
C850 C 0.01345 0.5959 0.18541 0.0
C851 C 0.06393 0.51717 0.21895 0.0
C852 C 0.03431 0.47207 0.22118 0.0
C853 C 0.0114 0.45137 0.17082 0.0
C854 C -0.00166 0.40959 0.16134 0.0
C855 C 0.00209 0.38734 0.20782 0.0
C856 C 0.0223 0.40763 0.26086 0.0
C857 C 0.03785 0.44977 0.26724 0.0
H858 H 0.50528 0.55608 0.11347 0.0
H859 H 0.53331 0.55034 0.29489 0.0
H860 H 0.62983 0.60058 0.16884 0.0
H861 H 0.46245 0.52555 0.26446 0.0
H862 H 0.45144 0.53457 0.1919 0.0
H863 H 0.42173 0.47741 0.11616 0.0
H864 H 0.38533 0.35566 0.16837 0.0
H865 H 0.43063 0.45432 0.29679 0.0
C866 C 0.52693 0.55772 0.14693 0.0
C867 C 0.56916 0.57527 0.13291 0.0
C868 C 0.51255 0.5416 0.20358 0.0
C869 C 0.54286 0.55522 0.24969 0.0
C870 C 0.58525 0.57949 0.2375 0.0
C871 C 0.59745 0.58432 0.17886 0.0
C872 C 0.46579 0.5196 0.21755 0.0
C873 C 0.43942 0.4727 0.2055 0.0
C874 C 0.42222 0.45699 0.1489 0.0
C875 C 0.40865 0.41542 0.13369 0.0
C876 C 0.39936 0.38797 0.17931 0.0
C877 C 0.4017 0.40122 0.23802 0.0
C878 C 0.4256 0.44376 0.25147 0.0
H879 H 0.4991 0.93586 0.12848 0.0
H880 H 0.53976 0.97245 0.30719 0.0
H881 H 0.62695 0.01036 0.16842 0.0
H882 H 0.45239 0.90738 0.21252 0.0
H883 H 0.46862 0.92965 0.28449 0.0
H884 H 0.46394 0.96978 0.13181 0.0
H885 H 0.37656 0.00478 0.18424 0.0
H886 H 0.42279 0.95183 0.30928 0.0
C887 C 0.52353 0.95433 0.15975 0.0
C888 C 0.56415 0.97437 0.14143 0.0
C889 C 0.51436 0.95735 0.21859 0.0
C890 C 0.54654 0.97505 0.26086 0.0
C891 C 0.58729 -0.00793 0.24319 0.0
C892 C 0.5955 -0.00384 0.18282 0.0
C893 C 0.47033 0.93689 0.23698 0.0
C894 C 0.4503 0.96275 0.22447 0.0
C895 C 0.44885 0.97592 0.16721 0.0
C896 C 0.42335 -0.0078 0.15298 0.0
C897 C 0.39948 -0.00371 0.19668 0.0
C898 C 0.39825 0.98055 0.25262 0.0
C899 C 0.42493 0.96546 0.26685 0.0
H900 H 0.45352 0.95854 0.88255 0.0
H901 H 0.43718 0.98202 0.70187 0.0
H902 H 0.40043 0.03304 0.84261 0.0
H903 H 0.45381 0.9144 0.7881 0.0
H904 H 0.46736 0.94041 0.72054 0.0
H905 H 0.50656 0.95484 0.88055 0.0
H906 H 0.62843 -0.00626 0.8334 0.0
H907 H 0.53829 0.97104 0.69676 0.0
C908 C 0.44628 0.97445 0.84987 0.0
C909 C 0.42919 -0.00191 0.86877 0.0
C910 C 0.45239 0.97074 0.78967 0.0
C911 C 0.4357 0.98692 0.74851 0.0
C912 C 0.41619 0.00866 0.76773 0.0
C913 C 0.41497 0.0158 0.82768 0.0
C914 C 0.47133 0.94515 0.76899 0.0
C915 C 0.51643 0.96214 0.78653 0.0
C916 C 0.52817 0.96322 0.84631 0.0
C917 C 0.56837 0.97419 0.86262 0.0
C918 C 0.59716 0.98431 0.81931 0.0
C919 C 0.58716 0.98327 0.75937 0.0
C920 C 0.54661 0.97264 0.74287 0.0
H921 H 0.93677 0.42 0.90524 0.0
H922 H 0.96475 0.4292 0.72219 0.0
H923 H 0.01734 0.37858 0.84301 0.0
H924 H 0.9127 0.44626 0.7594 0.0
H925 H 0.90408 0.44611 0.83582 0.0
H926 H 0.93542 0.51078 0.89209 0.0
H927 H 0.01636 0.62344 0.8126 0.0
H928 H 0.9622 0.51029 0.71139 0.0
C929 C 0.95473 0.4179 0.86995 0.0
C930 C 0.98161 0.40211 0.88189 0.0
C931 C 0.95384 0.43429 0.81406 0.0
C932 C 0.97062 0.42319 0.76674 0.0
C933 C 0.9906 0.39998 0.77675 0.0
C934 C -0.00024 0.39404 0.83464 0.0
C935 C 0.92867 0.4564 0.80294 0.0
C936 C 0.9527 0.5037 0.80442 0.0
C937 C 0.95446 0.52642 0.85525 0.0
C938 C 0.98481 0.5681 0.8618 0.0
C939 C -0.00011 0.59034 0.8101 0.0
C940 C 0.98686 0.56958 0.75511 0.0
C941 C 0.96917 0.52635 0.75339 0.0
H942 H 0.49771 0.44799 0.88619 0.0
H943 H 0.47754 0.43462 0.69949 0.0
H944 H 0.37845 0.36405 0.81467 0.0
H945 H 0.55492 0.47272 0.81699 0.0
H946 H 0.54508 0.46956 0.73955 0.0
H947 H 0.52331 0.51523 0.87359 0.0
H948 H 0.60666 0.63592 0.82087 0.0
H949 H 0.57366 0.53456 0.70197 0.0
C950 C 0.47666 0.43573 0.84886 0.0
C951 C 0.43541 0.40735 0.85777 0.0
C952 C 0.49134 0.44721 0.79191 0.0
C953 C 0.4654 0.42823 0.74342 0.0
C954 C 0.42506 0.39791 0.75145 0.0
C955 C 0.40932 0.38896 0.80849 0.0
C956 C 0.53567 0.47642 0.7824 0.0
C957 C 0.5441 0.51993 0.78514 0.0
C958 C 0.5392 0.53578 0.83844 0.0
C959 C 0.5642 0.57721 0.85307 0.0
C960 C 0.58622 0.60416 0.80875 0.0
C961 C 0.59031 0.58878 0.75399 0.0
C962 C 0.56788 0.5468 0.74171 0.0
H963 H 0.71295 0.8726 0.44675 0.0
H964 H 0.70434 0.88612 0.63199 0.0
H965 H 0.67089 0.9529 0.51165 0.0
H966 H 0.75208 0.85616 0.51751 0.0
H967 H 0.74799 0.86229 0.59442 0.0
H968 H 0.67543 0.80229 0.46896 0.0
H969 H 0.66188 0.68963 0.53415 0.0
H970 H 0.72332 0.79995 0.63946 0.0
C971 C 0.7029 0.88426 0.4827 0.0
C972 C 0.68797 0.91128 0.47147 0.0
C973 C 0.70761 0.87424 0.54044 0.0
C974 C 0.69764 0.89149 0.58742 0.0
C975 C 0.68511 0.92035 0.57745 0.0
C976 C 0.67825 0.92874 0.51937 0.0
C977 C 0.72975 0.85088 0.5526 0.0
C978 C 0.70066 0.80569 0.55503 0.0
C979 C 0.67763 0.78473 0.50487 0.0
C980 C 0.66502 0.74305 0.49544 0.0
C981 C 0.66938 0.72109 0.54183 0.0
C982 C 0.68974 0.74162 0.59467 0.0
C983 C 0.70486 0.78368 0.60095 0.0
H984 H 0.17085 0.88933 0.44647 0.0
H985 H 0.19891 0.88375 0.62795 0.0
H986 H 0.29548 0.93461 0.502 0.0
H987 H 0.12795 0.85857 0.59728 0.0
H988 H 0.11686 0.86728 0.52459 0.0
H989 H 0.08746 0.80991 0.44918 0.0
H990 H 0.05251 0.68858 0.50195 0.0
H991 H 0.09707 0.78746 0.62992 0.0
C992 C 0.19255 0.89115 0.47998 0.0
C993 C 0.23481 0.90895 0.46602 0.0
C994 C 0.1782 0.87495 0.5366 0.0
C995 C 0.2085 0.88873 0.58277 0.0
C996 C 0.25086 0.91323 0.57064 0.0
C997 C 0.2631 0.91818 0.51201 0.0
C998 C 0.13143 0.8526 0.55043 0.0
C999 C 0.10547 0.80565 0.53855 0.0
C1000 C 0.08826 0.78969 0.48202 0.0
C1001 C 0.07514 0.74819 0.46699 0.0
C1002 C 0.06624 0.7209 0.51273 0.0
C1003 C 0.06854 0.73422 0.57138 0.0
C1004 C 0.09207 0.77681 0.58464 0.0
H1005 H 0.16608 0.26705 0.46109 0.0
H1006 H 0.20648 0.30539 0.63947 0.0
H1007 H 0.29368 0.34386 0.50065 0.0
H1008 H 0.1194 0.23857 0.5449 0.0
H1009 H 0.13548 0.26091 0.61689 0.0
H1010 H 0.13032 0.30064 0.46419 0.0
H1011 H 0.04304 0.33576 0.51686 0.0
H1012 H 0.08929 0.28272 0.64175 0.0
C1013 C 0.19041 0.28596 0.49224 0.0
C1014 C 0.23099 0.30664 0.47383 0.0
C1015 C 0.18112 0.28907 0.55099 0.0
C1016 C 0.21327 0.30773 0.59314 0.0
C1017 C 0.25407 0.32546 0.57547 0.0
C1018 C 0.26222 0.32915 0.51509 0.0
C1019 C 0.1371 0.26811 0.56938 0.0
C1020 C 0.11673 0.29363 0.55686 0.0
C1021 C 0.11522 0.30678 0.4996 0.0
C1022 C 0.08975 0.32309 0.48545 0.0
C1023 C 0.06593 0.3272 0.52922 0.0
C1024 C 0.06476 0.31151 0.58518 0.0
C1025 C 0.09137 0.29632 0.59931 0.0
loop_
_geom_bond_atom_site_label_1
_geom_bond_atom_site_label_2
_geom_bond_distance
_geom_bond_site_symmetry_2
_ccdc_geom_bond_type
Mn0 O5 2.095 1_655 S
Mn0 O15 2.162 . S
Mn0 O16 2.297 1_554 S
Mn0 O24 2.385 1_554 S
Mn0 O25 2.209 1_654 S
Mn0 O26 2.094 . S
Mn1 O6 2.121 . S
Mn1 N8 2.257 1_554 S
Mn1 N17 2.282 1_554 S
Mn1 O25 2.215 1_554 S
Mn1 O27 2.117 . S
C2 O24 1.234 1_455 S
C2 O25 1.283 . S
C3 O15 1.281 1_556 S
C3 O16 1.236 . S
C4 O26 1.240 1_455 S
C4 O27 1.264 . S
O5 Mn0 2.095 1_455 S
O5 C14 1.250 . S
O6 Mn1 2.121 . S
O6 C14 1.258 . S
C7 N8 1.326 . S
C7 C11 1.460 . S
C7 H13 0.929 . S
N8 Mn1 2.257 1_556 S
N8 C7 1.326 . S
N8 C12 1.362 . S
C9 C10 1.258 . S
C9 C12 1.431 . S
C9 C29 1.449 . S
C10 C9 1.258 . S
C10 C11 1.477 . S
C10 H30 0.931 . S
C11 C7 1.460 . S
C11 C10 1.477 . S
C11 H31 0.930 . S
C12 N8 1.362 . S
C12 C9 1.431 . S
C12 C22 1.476 . S
H13 C7 0.929 . S
C14 O5 1.250 . S
C14 O6 1.258 . S
O15 Mn0 2.162 . S
O15 C3 1.281 1_554 S
O16 Mn0 2.297 1_556 S
O16 C3 1.236 . S
N17 Mn1 2.282 1_556 S
N17 C18 1.328 1_556 S
N17 C22 1.318 . S
C18 N17 1.328 1_554 S
C18 C19 1.457 1_554 S
C18 H23 0.929 . S
C19 C18 1.457 1_556 S
C19 C20 1.291 . S
C19 H32 0.931 . S
C20 C19 1.291 . S
C20 C21 1.373 . S
C20 H33 0.929 . S
C21 C20 1.373 . S
C21 C22 1.396 . S
C21 C28 1.403 . S
C22 C12 1.476 . S
C22 N17 1.318 . S
C22 C21 1.396 . S
H23 C18 0.929 . S
O24 Mn0 2.385 1_556 S
O24 C2 1.234 1_655 S
O25 Mn0 2.209 1_456 S
O25 Mn1 2.215 1_556 S
O25 C2 1.283 . S
O26 Mn0 2.094 . S
O26 C4 1.240 1_655 S
O27 Mn1 2.117 . S
O27 C4 1.264 . S
C28 C21 1.403 . S
C28 C29 1.399 . S
C28 H34 0.929 . S
C29 C9 1.449 . S
C29 C28 1.399 . S
C29 H35 0.930 . S
H30 C10 0.931 . S
H31 C11 0.930 . S
H32 C19 0.931 . S
H33 C20 0.929 . S
H34 C28 0.929 . S
H35 C29 0.930 . S
Mn36 O41 2.095 1_554 S
Mn36 O51 2.162 . S
Mn36 O52 2.297 . S
Mn36 O60 2.385 . S
Mn36 O61 2.209 . S
Mn36 O62 2.094 1_554 S
Mn37 O42 2.121 . S
Mn37 N44 2.257 1_556 S
Mn37 N53 2.282 1_556 S
Mn37 O61 2.215 1_556 S
Mn37 O63 2.117 . S
C38 O60 1.234 . S
C38 O61 1.283 . S
C39 O51 1.281 . S
C39 O52 1.236 . S
C40 O62 1.240 . S
C40 O63 1.264 . S
O41 Mn36 2.095 1_556 S
O41 C50 1.250 . S
O42 Mn37 2.121 . S
O42 C50 1.258 . S
C43 N44 1.326 . S
C43 C47 1.460 . S
C43 H49 0.929 . S
N44 Mn37 2.257 1_554 S
N44 C43 1.326 . S
N44 C48 1.362 . S
C45 C46 1.258 . S
C45 C48 1.431 . S
C45 C65 1.449 . S
C46 C45 1.258 . S
C46 C47 1.477 . S
C46 H66 0.931 . S
C47 C43 1.460 . S
C47 C46 1.477 . S
C47 H67 0.930 . S
C48 N44 1.362 . S
C48 C45 1.431 . S
C48 C58 1.476 . S
H49 C43 0.929 . S
C50 O41 1.250 . S
C50 O42 1.258 . S
O51 Mn36 2.162 . S
O51 C39 1.281 . S
O52 Mn36 2.297 . S
O52 C39 1.236 . S
N53 Mn37 2.282 1_554 S
N53 C54 1.328 . S
N53 C58 1.318 . S
C54 N53 1.328 . S
C54 C55 1.457 . S
C54 H59 0.929 1_554 S
C55 C54 1.457 . S
C55 C56 1.291 . S
C55 H68 0.931 . S
C56 C55 1.291 . S
C56 C57 1.373 . S
C56 H69 0.929 . S
C57 C56 1.373 . S
C57 C58 1.396 . S
C57 C64 1.403 . S
C58 C48 1.476 . S
C58 N53 1.318 . S
C58 C57 1.396 . S
H59 C54 0.929 1_556 S
O60 Mn36 2.385 . S
O60 C38 1.234 . S
O61 Mn36 2.209 . S
O61 Mn37 2.215 1_554 S
O61 C38 1.283 . S
O62 Mn36 2.094 1_556 S
O62 C40 1.240 . S
O63 Mn37 2.117 . S
O63 C40 1.264 . S
C64 C57 1.403 . S
C64 C65 1.399 . S
C64 H70 0.929 . S
C65 C45 1.449 . S
C65 C64 1.399 . S
C65 H71 0.930 . S
H66 C46 0.931 . S
H67 C47 0.930 . S
H68 C55 0.931 . S
H69 C56 0.929 . S
H70 C64 0.929 . S
H71 C65 0.930 . S
Mn72 O77 2.095 1_564 S
Mn72 O87 2.162 . S
Mn72 O88 2.297 . S
Mn72 O96 2.385 . S
Mn72 O97 2.209 1_565 S
Mn72 O98 2.094 1_554 S
Mn73 O78 2.121 1_554 S
Mn73 N80 2.257 . S
Mn73 N89 2.282 . S
Mn73 O97 2.215 . S
Mn73 O99 2.117 1_554 S
C74 O96 1.216 1_545 S
C74 O97 1.302 . S
C75 O87 1.281 . S
C75 O88 1.236 . S
C76 O98 1.240 . S
C76 O99 1.264 1_565 S
O77 Mn72 2.095 1_546 S
O77 C86 1.250 . S
O78 Mn73 2.121 1_556 S
O78 C86 1.258 . S
C79 N80 1.326 . S
C79 C83 1.460 . S
C79 H85 0.929 . S
N80 Mn73 2.257 . S
N80 C79 1.326 . S
N80 C84 1.362 . S
C81 C82 1.258 . S
C81 C84 1.431 . S
C81 C101 1.449 . S
C82 C81 1.258 . S
C82 C83 1.477 . S
C82 H102 0.931 . S
C83 C79 1.460 . S
C83 C82 1.477 . S
C83 H103 0.930 . S
C84 N80 1.362 . S
C84 C81 1.431 . S
C84 C94 1.476 . S
H85 C79 0.929 . S
C86 O77 1.250 . S
C86 O78 1.258 . S
O87 Mn72 2.162 . S
O87 C75 1.281 . S
O88 Mn72 2.297 . S
O88 C75 1.236 . S
N89 Mn73 2.282 . S
N89 C90 1.328 . S
N89 C94 1.318 . S
C90 N89 1.328 . S
C90 C91 1.457 . S
C90 H95 0.929 . S
C91 C90 1.457 . S
C91 C92 1.291 . S
C91 H104 0.931 . S
C92 C91 1.291 . S
C92 C93 1.373 . S
C92 H105 0.929 . S
C93 C92 1.373 . S
C93 C94 1.396 . S
C93 C100 1.403 . S
C94 C84 1.476 . S
C94 N89 1.318 . S
C94 C93 1.396 . S
H95 C90 0.929 . S
O96 Mn72 2.385 . S
O96 C74 1.216 1_565 S
O97 Mn72 2.209 1_545 S
O97 Mn73 2.215 . S
O97 C74 1.302 . S
O98 Mn72 2.094 1_556 S
O98 C76 1.240 . S
O99 Mn73 2.117 1_556 S
O99 C76 1.264 1_545 S
C100 C93 1.403 . S
C100 C101 1.399 . S
C100 H106 0.929 . S
C101 C81 1.449 . S
C101 C100 1.399 . S
C101 H107 0.930 . S
H102 C82 0.931 . S
H103 C83 0.930 . S
H104 C91 0.931 . S
H105 C92 0.929 . S
H106 C100 0.929 . S
H107 C101 0.930 . S
Mn108 O113 2.095 1_655 S
Mn108 O123 2.162 . S
Mn108 O124 2.297 1_554 S
Mn108 O132 2.385 1_554 S
Mn108 O133 2.209 1_654 S
Mn108 O134 2.094 . S
Mn109 O114 2.121 . S
Mn109 N116 2.257 1_554 S
Mn109 N125 2.282 1_554 S
Mn109 O133 2.215 1_554 S
Mn109 O135 2.117 . S
C110 O132 1.234 1_455 S
C110 O133 1.283 . S
C111 O123 1.281 1_556 S
C111 O124 1.236 . S
C112 O134 1.240 1_455 S
C112 O135 1.264 . S
O113 Mn108 2.095 1_455 S
O113 C122 1.250 . S
O114 Mn109 2.121 . S
O114 C122 1.258 . S
C115 N116 1.326 . S
C115 C119 1.460 . S
C115 H121 0.929 . S
N116 Mn109 2.257 1_556 S
N116 C115 1.326 . S
N116 C120 1.362 . S
C117 C118 1.258 . S
C117 C120 1.431 . S
C117 C137 1.449 . S
C118 C117 1.258 . S
C118 C119 1.477 . S
C118 H138 0.931 . S
C119 C115 1.460 . S
C119 C118 1.477 . S
C119 H139 0.930 . S
C120 N116 1.362 . S
C120 C117 1.431 . S
C120 C130 1.476 . S
H121 C115 0.929 . S
C122 O113 1.250 . S
C122 O114 1.258 . S
O123 Mn108 2.162 . S
O123 C111 1.281 1_554 S
O124 Mn108 2.297 1_556 S
O124 C111 1.236 . S
N125 Mn109 2.282 1_556 S
N125 C126 1.328 . S
N125 C130 1.318 . S
C126 N125 1.328 . S
C126 C127 1.457 . S
C126 H131 0.929 1_556 S
C127 C126 1.457 . S
C127 C128 1.291 . S
C127 H140 0.931 . S
C128 C127 1.291 . S
C128 C129 1.373 . S
C128 H141 0.929 . S
C129 C128 1.373 . S
C129 C130 1.396 . S
C129 C136 1.403 . S
C130 C120 1.476 . S
C130 N125 1.318 . S
C130 C129 1.396 . S
H131 C126 0.929 1_554 S
O132 Mn108 2.385 1_556 S
O132 C110 1.234 1_655 S
O133 Mn108 2.209 1_456 S
O133 Mn109 2.215 1_556 S
O133 C110 1.283 . S
O134 Mn108 2.094 . S
O134 C112 1.240 1_655 S
O135 Mn109 2.117 . S
O135 C112 1.264 . S
C136 C129 1.403 . S
C136 C137 1.399 . S
C136 H142 0.929 . S
C137 C117 1.449 . S
C137 C136 1.399 . S
C137 H143 0.930 . S
H138 C118 0.931 . S
H139 C119 0.930 . S
H140 C127 0.931 . S
H141 C128 0.929 . S
H142 C136 0.929 . S
H143 C137 0.930 . S
Mn144 O149 2.095 1_554 S
Mn144 O159 2.162 . S
Mn144 O160 2.297 . S
Mn144 O168 2.385 . S
Mn144 O169 2.209 . S
Mn144 O170 2.094 1_554 S
Mn145 O150 2.121 . S
Mn145 N152 2.257 1_556 S
Mn145 N161 2.282 1_556 S
Mn145 O169 2.215 1_556 S
Mn145 O171 2.117 . S
C146 O168 1.234 . S
C146 O169 1.283 . S
C147 O159 1.281 . S
C147 O160 1.236 . S
C148 O170 1.240 . S
C148 O171 1.264 . S
O149 Mn144 2.095 1_556 S
O149 C158 1.250 . S
O150 Mn145 2.121 . S
O150 C158 1.258 . S
C151 N152 1.326 . S
C151 C155 1.460 . S
C151 H157 0.929 . S
N152 Mn145 2.257 1_554 S
N152 C151 1.326 . S
N152 C156 1.362 . S
C153 C154 1.258 . S
C153 C156 1.431 . S
C153 C173 1.449 . S
C154 C153 1.258 . S
C154 C155 1.477 . S
C154 H174 0.931 . S
C155 C151 1.460 . S
C155 C154 1.477 . S
C155 H175 0.930 . S
C156 N152 1.362 . S
C156 C153 1.431 . S
C156 C166 1.476 . S
H157 C151 0.929 . S
C158 O149 1.250 . S
C158 O150 1.258 . S
O159 Mn144 2.162 . S
O159 C147 1.281 . S
O160 Mn144 2.297 . S
O160 C147 1.236 . S
N161 Mn145 2.282 1_554 S
N161 C162 1.328 . S
N161 C166 1.318 . S
C162 N161 1.328 . S
C162 C163 1.457 . S
C162 H167 0.929 1_554 S
C163 C162 1.457 . S
C163 C164 1.291 . S
C163 H176 0.931 . S
C164 C163 1.291 . S
C164 C165 1.373 . S
C164 H177 0.929 . S
C165 C164 1.373 . S
C165 C166 1.396 . S
C165 C172 1.403 . S
C166 C156 1.476 . S
C166 N161 1.318 . S
C166 C165 1.396 . S
H167 C162 0.929 1_556 S
O168 Mn144 2.385 . S
O168 C146 1.234 . S
O169 Mn144 2.209 . S
O169 Mn145 2.215 1_554 S
O169 C146 1.283 . S
O170 Mn144 2.094 1_556 S
O170 C148 1.240 . S
O171 Mn145 2.117 . S
O171 C148 1.264 . S
C172 C165 1.403 . S
C172 C173 1.399 . S
C172 H178 0.929 . S
C173 C153 1.449 . S
C173 C172 1.399 . S
C173 H179 0.930 . S
H174 C154 0.931 . S
H175 C155 0.930 . S
H176 C163 0.931 . S
H177 C164 0.929 . S
H178 C172 0.929 . S
H179 C173 0.930 . S
Mn180 O185 2.095 1_545 S
Mn180 O195 2.162 . S
Mn180 O196 2.297 1_554 S
Mn180 O204 2.385 1_554 S
Mn180 O205 2.209 1_544 S
Mn180 O206 2.094 . S
Mn181 O186 2.121 . S
Mn181 N188 2.257 1_554 S
Mn181 N197 2.282 1_554 S
Mn181 O205 2.215 1_554 S
Mn181 O207 2.117 . S
C182 O204 1.234 1_565 S
C182 O205 1.283 . S
C183 O195 1.281 1_556 S
C183 O196 1.236 . S
C184 O206 1.240 . S
C184 O207 1.264 1_545 S
O185 Mn180 2.095 1_565 S
O185 C194 1.250 . S
O186 Mn181 2.121 . S
O186 C194 1.258 . S
C187 N188 1.326 . S
C187 C191 1.460 . S
C187 H193 0.929 . S
N188 Mn181 2.257 1_556 S
N188 C187 1.326 . S
N188 C192 1.362 . S
C189 C190 1.258 . S
C189 C192 1.431 . S
C189 C209 1.449 . S
C190 C189 1.258 . S
C190 C191 1.477 . S
C190 H210 0.931 . S
C191 C187 1.460 . S
C191 C190 1.477 . S
C191 H211 0.930 . S
C192 N188 1.362 . S
C192 C189 1.431 . S
C192 C202 1.476 . S
H193 C187 0.929 . S
C194 O185 1.250 . S
C194 O186 1.258 . S
O195 Mn180 2.162 . S
O195 C183 1.281 1_554 S
O196 Mn180 2.297 1_556 S
O196 C183 1.236 . S
N197 Mn181 2.282 1_556 S
N197 C198 1.328 . S
N197 C202 1.318 . S
C198 N197 1.328 . S
C198 C199 1.457 . S
C198 H203 0.929 1_556 S
C199 C198 1.457 . S
C199 C200 1.291 . S
C199 H212 0.931 . S
C200 C199 1.291 . S
C200 C201 1.373 . S
C200 H213 0.929 . S
C201 C200 1.373 . S
C201 C202 1.396 . S
C201 C208 1.403 . S
C202 C192 1.476 . S
C202 N197 1.318 . S
C202 C201 1.396 . S
H203 C198 0.929 1_554 S
O204 Mn180 2.385 1_556 S
O204 C182 1.234 1_545 S
O205 Mn180 2.209 1_566 S
O205 Mn181 2.215 1_556 S
O205 C182 1.283 . S
O206 Mn180 2.094 . S
O206 C184 1.240 . S
O207 Mn181 2.117 . S
O207 C184 1.264 1_565 S
C208 C201 1.403 . S
C208 C209 1.399 . S
C208 H214 0.929 . S
C209 C189 1.449 . S
C209 C208 1.399 . S
C209 H215 0.930 . S
H210 C190 0.931 . S
H211 C191 0.930 . S
H212 C199 0.931 . S
H213 C200 0.929 . S
H214 C208 0.929 . S
H215 C209 0.930 . S
Mn216 O221 2.095 . S
Mn216 O231 2.162 . S
Mn216 O232 2.297 . S
Mn216 O240 2.385 . S
Mn216 O241 2.209 . S
Mn216 O242 2.094 . S
Mn217 O222 2.121 . S
Mn217 N224 2.257 . S
Mn217 N233 2.282 . S
Mn217 O241 2.215 . S
Mn217 O243 2.117 . S
C218 O240 1.234 . S
C218 O241 1.283 . S
C219 O231 1.281 . S
C219 O232 1.236 . S
C220 O242 1.240 . S
C220 O243 1.264 . S
O221 Mn216 2.095 . S
O221 C230 1.250 . S
O222 Mn217 2.121 . S
O222 C230 1.258 . S
C223 N224 1.326 . S
C223 C227 1.460 . S
C223 H229 0.929 . S
N224 Mn217 2.257 . S
N224 C223 1.326 . S
N224 C228 1.362 . S
C225 C226 1.258 . S
C225 C228 1.431 . S
C225 C245 1.449 . S
C226 C225 1.258 . S
C226 C227 1.477 . S
C226 H246 0.931 . S
C227 C223 1.460 . S
C227 C226 1.477 . S
C227 H247 0.930 . S
C228 N224 1.362 . S
C228 C225 1.431 . S
C228 C238 1.476 . S
H229 C223 0.929 . S
C230 O221 1.250 . S
C230 O222 1.258 . S
O231 Mn216 2.162 . S
O231 C219 1.281 . S
O232 Mn216 2.297 . S
O232 C219 1.236 . S
N233 Mn217 2.282 . S
N233 C234 1.328 . S
N233 C238 1.318 . S
C234 N233 1.328 . S
C234 C235 1.457 . S
C234 H239 0.929 . S
C235 C234 1.457 . S
C235 C236 1.291 . S
C235 H248 0.931 . S
C236 C235 1.291 . S
C236 C237 1.373 . S
C236 H249 0.929 . S
C237 C236 1.373 . S
C237 C238 1.396 . S
C237 C244 1.403 . S
C238 C228 1.476 . S
C238 N233 1.318 . S
C238 C237 1.396 . S
H239 C234 0.929 . S
O240 Mn216 2.385 . S
O240 C218 1.234 . S
O241 Mn216 2.209 . S
O241 Mn217 2.215 . S
O241 C218 1.283 . S
O242 Mn216 2.094 . S
O242 C220 1.240 . S
O243 Mn217 2.117 . S
O243 C220 1.264 . S
C244 C237 1.403 . S
C244 C245 1.399 . S
C244 H250 0.929 . S
C245 C225 1.449 . S
C245 C244 1.399 . S
C245 H251 0.930 . S
H246 C226 0.931 . S
H247 C227 0.930 . S
H248 C235 0.931 . S
H249 C236 0.929 . S
H250 C244 0.929 . S
H251 C245 0.930 . S
Mn252 O257 2.095 . S
Mn252 O267 2.162 1_565 S
Mn252 O268 2.297 1_565 S
Mn252 O276 2.385 . S
Mn252 O277 2.209 . S
Mn252 O278 2.094 . S
Mn253 O258 2.121 . S
Mn253 N260 2.257 . S
Mn253 N269 2.282 . S
Mn253 O277 2.215 . S
Mn253 O279 2.117 . S
C254 O276 1.234 . S
C254 O277 1.283 . S
C255 O267 1.281 . S
C255 O268 1.236 . S
C256 O278 1.240 . S
C256 O279 1.264 . S
O257 Mn252 2.095 . S
O257 C266 1.250 . S
O258 Mn253 2.121 . S
O258 C266 1.258 . S
C259 N260 1.326 . S
C259 C263 1.460 . S
C259 H265 0.929 . S
N260 Mn253 2.257 . S
N260 C259 1.326 . S
N260 C264 1.362 . S
C261 C262 1.258 . S
C261 C264 1.431 . S
C261 C281 1.449 . S
C262 C261 1.258 . S
C262 C263 1.477 . S
C262 H282 0.931 . S
C263 C259 1.460 . S
C263 C262 1.477 . S
C263 H283 0.930 . S
C264 N260 1.362 . S
C264 C261 1.431 . S
C264 C274 1.476 . S
H265 C259 0.929 . S
C266 O257 1.250 . S
C266 O258 1.258 . S
O267 Mn252 2.162 1_545 S
O267 C255 1.281 . S
O268 Mn252 2.297 1_545 S
O268 C255 1.236 . S
N269 Mn253 2.282 . S
N269 C270 1.328 . S
N269 C274 1.318 . S
C270 N269 1.328 . S
C270 C271 1.457 . S
C270 H275 0.929 . S
C271 C270 1.457 . S
C271 C272 1.291 . S
C271 H284 0.931 . S
C272 C271 1.291 . S
C272 C273 1.373 . S
C272 H285 0.929 . S
C273 C272 1.373 . S
C273 C274 1.396 . S
C273 C280 1.403 . S
C274 C264 1.476 . S
C274 N269 1.318 . S
C274 C273 1.396 . S
H275 C270 0.929 . S
O276 Mn252 2.385 . S
O276 C254 1.234 . S
O277 Mn252 2.209 . S
O277 Mn253 2.215 . S
O277 C254 1.283 . S
O278 Mn252 2.094 . S
O278 C256 1.240 . S
O279 Mn253 2.117 . S
O279 C256 1.264 . S
C280 C273 1.403 . S
C280 C281 1.399 . S
C280 H286 0.929 . S
C281 C261 1.449 . S
C281 C280 1.399 . S
C281 H287 0.930 . S
H282 C262 0.931 . S
H283 C263 0.930 . S
H284 C271 0.931 . S
H285 C272 0.929 . S
H286 C280 0.929 . S
H287 C281 0.930 . S
Mn288 O293 2.095 . S
Mn288 O303 2.162 1_455 S
Mn288 O304 2.297 1_455 S
Mn288 O312 2.385 . S
Mn288 O313 2.209 . S
Mn288 O314 2.094 . S
Mn289 O294 2.121 . S
Mn289 N296 2.257 . S
Mn289 N305 2.282 . S
Mn289 O313 2.215 . S
Mn289 O315 2.117 . S
C290 O312 1.234 . S
C290 O313 1.283 . S
C291 O303 1.281 . S
C291 O304 1.236 . S
C292 O314 1.240 . S
C292 O315 1.264 . S
O293 Mn288 2.095 . S
O293 C302 1.250 . S
O294 Mn289 2.121 . S
O294 C302 1.258 . S
C295 N296 1.326 . S
C295 C299 1.460 . S
C295 H301 0.929 . S
N296 Mn289 2.257 . S
N296 C295 1.326 . S
N296 C300 1.362 . S
C297 C298 1.258 . S
C297 C300 1.431 . S
C297 C317 1.449 . S
C298 C297 1.258 . S
C298 C299 1.477 . S
C298 H318 0.931 . S
C299 C295 1.460 . S
C299 C298 1.477 . S
C299 H319 0.930 . S
C300 N296 1.362 . S
C300 C297 1.431 . S
C300 C310 1.476 . S
H301 C295 0.929 . S
C302 O293 1.250 . S
C302 O294 1.258 . S
O303 Mn288 2.162 1_655 S
O303 C291 1.281 . S
O304 Mn288 2.297 1_655 S
O304 C291 1.236 . S
N305 Mn289 2.282 . S
N305 C306 1.328 . S
N305 C310 1.318 . S
C306 N305 1.328 . S
C306 C307 1.457 . S
C306 H311 0.929 . S
C307 C306 1.457 . S
C307 C308 1.291 . S
C307 H320 0.931 . S
C308 C307 1.291 . S
C308 C309 1.373 . S
C308 H321 0.929 . S
C309 C308 1.373 . S
C309 C310 1.396 . S
C309 C316 1.403 . S
C310 C300 1.476 . S
C310 N305 1.318 . S
C310 C309 1.396 . S
H311 C306 0.929 . S
O312 Mn288 2.385 . S
O312 C290 1.234 . S
O313 Mn288 2.209 . S
O313 Mn289 2.215 . S
O313 C290 1.283 . S
O314 Mn288 2.094 . S
O314 C292 1.240 . S
O315 Mn289 2.117 . S
O315 C292 1.264 . S
C316 C309 1.403 . S
C316 C317 1.399 . S
C316 H322 0.929 . S
C317 C297 1.449 . S
C317 C316 1.399 . S
C317 H323 0.930 . S
H318 C298 0.931 . S
H319 C299 0.930 . S
H320 C307 0.931 . S
H321 C308 0.929 . S
H322 C316 0.929 . S
H323 C317 0.930 . S
Mn324 O329 2.095 1_565 S
Mn324 O339 2.162 . S
Mn324 O340 2.297 1_565 S
Mn324 O348 2.385 . S
Mn324 O349 2.209 . S
Mn324 O350 2.094 . S
Mn325 O330 2.121 1_565 S
Mn325 N332 2.257 1_565 S
Mn325 N341 2.282 . S
Mn325 O349 2.215 . S
Mn325 O351 2.117 . S
C326 O348 1.234 . S
C326 O349 1.283 . S
C327 O339 1.281 . S
C327 O340 1.236 1_565 S
C328 O350 1.240 . S
C328 O351 1.264 . S
O329 Mn324 2.095 1_545 S
O329 C338 1.250 . S
O330 Mn325 2.121 1_545 S
O330 C338 1.258 . S
C331 N332 1.326 . S
C331 C335 1.460 . S
C331 H337 0.929 . S
N332 Mn325 2.257 1_545 S
N332 C331 1.326 . S
N332 C336 1.362 1_545 S
C333 C334 1.258 1_565 S
C333 C336 1.431 . S
C333 C353 1.449 . S
C334 C333 1.258 1_545 S
C334 C335 1.477 . S
C334 H354 0.931 . S
C335 C331 1.460 . S
C335 C334 1.477 . S
C335 H355 0.930 . S
C336 N332 1.362 1_565 S
C336 C333 1.431 . S
C336 C346 1.476 . S
H337 C331 0.929 . S
C338 O329 1.250 . S
C338 O330 1.258 . S
O339 Mn324 2.162 . S
O339 C327 1.281 . S
O340 Mn324 2.297 1_545 S
O340 C327 1.236 1_545 S
N341 Mn325 2.282 . S
N341 C342 1.328 . S
N341 C346 1.318 . S
C342 N341 1.328 . S
C342 C343 1.457 . S
C342 H347 0.929 . S
C343 C342 1.457 . S
C343 C344 1.291 . S
C343 H356 0.931 . S
C344 C343 1.291 . S
C344 C345 1.373 . S
C344 H357 0.929 . S
C345 C344 1.373 . S
C345 C346 1.396 . S
C345 C352 1.403 . S
C346 C336 1.476 . S
C346 N341 1.318 . S
C346 C345 1.396 . S
H347 C342 0.929 . S
O348 Mn324 2.385 . S
O348 C326 1.234 . S
O349 Mn324 2.209 . S
O349 Mn325 2.215 . S
O349 C326 1.283 . S
O350 Mn324 2.094 . S
O350 C328 1.240 . S
O351 Mn325 2.117 . S
O351 C328 1.264 . S
C352 C345 1.403 . S
C352 C353 1.399 . S
C352 H358 0.929 . S
C353 C333 1.449 . S
C353 C352 1.399 . S
C353 H359 0.930 . S
H354 C334 0.931 . S
H355 C335 0.930 . S
H356 C343 0.931 . S
H357 C344 0.929 . S
H358 C352 0.929 . S
H359 C353 0.930 . S
Mn360 O365 2.095 . S
Mn360 O375 2.162 1_455 S
Mn360 O376 2.297 1_455 S
Mn360 O384 2.385 . S
Mn360 O385 2.209 . S
Mn360 O386 2.094 . S
Mn361 O366 2.121 . S
Mn361 N368 2.257 . S
Mn361 N377 2.282 . S
Mn361 O385 2.215 . S
Mn361 O387 2.117 . S
C362 O384 1.234 . S
C362 O385 1.283 . S
C363 O375 1.281 . S
C363 O376 1.236 . S
C364 O386 1.240 . S
C364 O387 1.264 . S
O365 Mn360 2.095 . S
O365 C374 1.250 . S
O366 Mn361 2.121 . S
O366 C374 1.258 . S
C367 N368 1.326 . S
C367 C371 1.460 . S
C367 H373 0.929 . S
N368 Mn361 2.257 . S
N368 C367 1.326 . S
N368 C372 1.362 . S
C369 C370 1.258 . S
C369 C372 1.431 . S
C369 C389 1.449 . S
C370 C369 1.258 . S
C370 C371 1.477 . S
C370 H390 0.931 . S
C371 C367 1.460 . S
C371 C370 1.477 . S
C371 H391 0.930 . S
C372 N368 1.362 . S
C372 C369 1.431 . S
C372 C382 1.476 . S
H373 C367 0.929 . S
C374 O365 1.250 . S
C374 O366 1.258 . S
O375 Mn360 2.162 1_655 S
O375 C363 1.281 . S
O376 Mn360 2.297 1_655 S
O376 C363 1.236 . S
N377 Mn361 2.282 . S
N377 C378 1.328 . S
N377 C382 1.318 . S
C378 N377 1.328 . S
C378 C379 1.457 . S
C378 H383 0.929 . S
C379 C378 1.457 . S
C379 C380 1.291 . S
C379 H392 0.931 . S
C380 C379 1.291 . S
C380 C381 1.373 . S
C380 H393 0.929 . S
C381 C380 1.373 . S
C381 C382 1.396 . S
C381 C388 1.403 . S
C382 C372 1.476 . S
C382 N377 1.318 . S
C382 C381 1.396 . S
H383 C378 0.929 . S
O384 Mn360 2.385 . S
O384 C362 1.234 . S
O385 Mn360 2.209 . S
O385 Mn361 2.215 . S
O385 C362 1.283 . S
O386 Mn360 2.094 . S
O386 C364 1.240 . S
O387 Mn361 2.117 . S
O387 C364 1.264 . S
C388 C381 1.403 . S
C388 C389 1.399 . S
C388 H394 0.929 . S
C389 C369 1.449 . S
C389 C388 1.399 . S
C389 H395 0.930 . S
H390 C370 0.931 . S
H391 C371 0.930 . S
H392 C379 0.931 . S
H393 C380 0.929 . S
H394 C388 0.929 . S
H395 C389 0.930 . S
Mn396 O401 2.095 . S
Mn396 O411 2.162 . S
Mn396 O412 2.297 . S
Mn396 O420 2.385 . S
Mn396 O421 2.209 . S
Mn396 O422 2.094 . S
Mn397 O402 2.121 . S
Mn397 N404 2.257 . S
Mn397 N413 2.282 . S
Mn397 O421 2.215 . S
Mn397 O423 2.117 . S
C398 O420 1.234 . S
C398 O421 1.283 . S
C399 O411 1.281 . S
C399 O412 1.236 . S
C400 O422 1.240 . S
C400 O423 1.264 . S
O401 Mn396 2.095 . S
O401 C410 1.250 . S
O402 Mn397 2.121 . S
O402 C410 1.258 . S
C403 N404 1.326 . S
C403 C407 1.460 . S
C403 H409 0.929 . S
N404 Mn397 2.257 . S
N404 C403 1.326 . S
N404 C408 1.362 . S
C405 C406 1.258 . S
C405 C408 1.431 . S
C405 C425 1.449 . S
C406 C405 1.258 . S
C406 C407 1.477 . S
C406 H426 0.931 . S
C407 C403 1.460 . S
C407 C406 1.477 . S
C407 H427 0.930 . S
C408 N404 1.362 . S
C408 C405 1.431 . S
C408 C418 1.476 . S
H409 C403 0.929 . S
C410 O401 1.250 . S
C410 O402 1.258 . S
O411 Mn396 2.162 . S
O411 C399 1.281 . S
O412 Mn396 2.297 . S
O412 C399 1.236 . S
N413 Mn397 2.282 . S
N413 C414 1.328 . S
N413 C418 1.318 . S
C414 N413 1.328 . S
C414 C415 1.457 . S
C414 H419 0.929 . S
C415 C414 1.457 . S
C415 C416 1.291 . S
C415 H428 0.931 . S
C416 C415 1.291 . S
C416 C417 1.373 . S
C416 H429 0.929 . S
C417 C416 1.373 . S
C417 C418 1.396 . S
C417 C424 1.403 . S
C418 C408 1.476 . S
C418 N413 1.318 . S
C418 C417 1.396 . S
H419 C414 0.929 . S
O420 Mn396 2.385 . S
O420 C398 1.234 . S
O421 Mn396 2.209 . S
O421 Mn397 2.215 . S
O421 C398 1.283 . S
O422 Mn396 2.094 . S
O422 C400 1.240 . S
O423 Mn397 2.117 . S
O423 C400 1.264 . S
C424 C417 1.403 . S
C424 C425 1.399 . S
C424 H430 0.929 . S
C425 C405 1.449 . S
C425 C424 1.399 . S
C425 H431 0.930 . S
H426 C406 0.931 . S
H427 C407 0.930 . S
H428 C415 0.931 . S
H429 C416 0.929 . S
H430 C424 0.929 . S
H431 C425 0.930 . S
Mn432 O437 2.095 . S
Mn432 O447 2.162 1_545 S
Mn432 O448 2.297 1_545 S
Mn432 O456 2.385 . S
Mn432 O457 2.209 . S
Mn432 O458 2.094 . S
Mn433 O438 2.121 . S
Mn433 N440 2.257 . S
Mn433 N449 2.282 . S
Mn433 O457 2.215 . S
Mn433 O459 2.117 . S
C434 O456 1.234 . S
C434 O457 1.283 . S
C435 O447 1.281 . S
C435 O448 1.236 . S
C436 O458 1.240 . S
C436 O459 1.264 . S
O437 Mn432 2.095 . S
O437 C446 1.250 . S
O438 Mn433 2.121 . S
O438 C446 1.258 . S
C439 N440 1.326 . S
C439 C443 1.460 . S
C439 H445 0.929 . S
N440 Mn433 2.257 . S
N440 C439 1.326 . S
N440 C444 1.362 . S
C441 C442 1.258 . S
C441 C444 1.431 . S
C441 C461 1.449 . S
C442 C441 1.258 . S
C442 C443 1.477 . S
C442 H462 0.931 . S
C443 C439 1.460 . S
C443 C442 1.477 . S
C443 H463 0.930 . S
C444 N440 1.362 . S
C444 C441 1.431 . S
C444 C454 1.476 . S
H445 C439 0.929 . S
C446 O437 1.250 . S
C446 O438 1.258 . S
O447 Mn432 2.162 1_565 S
O447 C435 1.281 . S
O448 Mn432 2.297 1_565 S
O448 C435 1.236 . S
N449 Mn433 2.282 . S
N449 C450 1.328 . S
N449 C454 1.318 . S
C450 N449 1.328 . S
C450 C451 1.457 . S
C450 H455 0.929 . S
C451 C450 1.457 . S
C451 C452 1.291 . S
C451 H464 0.931 . S
C452 C451 1.291 . S
C452 C453 1.373 . S
C452 H465 0.929 . S
C453 C452 1.373 . S
C453 C454 1.396 . S
C453 C460 1.403 . S
C454 C444 1.476 . S
C454 N449 1.318 . S
C454 C453 1.396 . S
H455 C450 0.929 . S
O456 Mn432 2.385 . S
O456 C434 1.234 . S
O457 Mn432 2.209 . S
O457 Mn433 2.215 . S
O457 C434 1.283 . S
O458 Mn432 2.094 . S
O458 C436 1.240 . S
O459 Mn433 2.117 . S
O459 C436 1.264 . S
C460 C453 1.403 . S
C460 C461 1.399 . S
C460 H466 0.929 . S
C461 C441 1.449 . S
C461 C460 1.399 . S
C461 H467 0.930 . S
H462 C442 0.931 . S
H463 C443 0.930 . S
H464 C451 0.931 . S
H465 C452 0.929 . S
H466 C460 0.929 . S
H467 C461 0.930 . S
Mn468 O473 2.095 1_655 S
Mn468 O483 2.162 . S
Mn468 O484 2.297 1_655 S
Mn468 O492 2.385 . S
Mn468 O493 2.209 . S
Mn468 O494 2.094 . S
Mn469 O474 2.121 1_655 S
Mn469 N476 2.246 1_655 S
Mn469 N485 2.282 . S
Mn469 O493 2.215 . S
Mn469 O495 2.117 . S
C470 O492 1.234 . S
C470 O493 1.283 . S
C471 O483 1.281 . S
C471 O484 1.236 1_655 S
C472 O494 1.240 . S
C472 O495 1.264 . S
O473 Mn468 2.095 1_455 S
O473 C482 1.250 . S
O474 Mn469 2.121 1_455 S
O474 C482 1.258 . S
C475 N476 1.343 . S
C475 C479 1.460 . S
C475 H481 0.929 . S
N476 Mn469 2.246 1_455 S
N476 C475 1.343 . S
N476 C480 1.356 1_455 S
C477 C478 1.258 1_655 S
C477 C480 1.431 . S
C477 C497 1.449 . S
C478 C477 1.258 1_455 S
C478 C479 1.477 . S
C478 H498 0.931 . S
C479 C475 1.460 . S
C479 C478 1.477 . S
C479 H499 0.930 . S
C480 N476 1.356 1_655 S
C480 C477 1.431 . S
C480 C490 1.476 . S
H481 C475 0.929 . S
C482 O473 1.250 . S
C482 O474 1.258 . S
O483 Mn468 2.162 . S
O483 C471 1.281 . S
O484 Mn468 2.297 1_455 S
O484 C471 1.236 1_455 S
N485 Mn469 2.282 . S
N485 C486 1.328 . S
N485 C490 1.318 . S
C486 N485 1.328 . S
C486 C487 1.457 . S
C486 H491 0.929 . S
C487 C486 1.457 . S
C487 C488 1.291 . S
C487 H500 0.931 . S
C488 C487 1.291 . S
C488 C489 1.373 . S
C488 H501 0.929 . S
C489 C488 1.373 . S
C489 C490 1.396 . S
C489 C496 1.403 . S
C490 C480 1.476 . S
C490 N485 1.318 . S
C490 C489 1.396 . S
H491 C486 0.929 . S
O492 Mn468 2.385 . S
O492 C470 1.234 . S
O493 Mn468 2.209 . S
O493 Mn469 2.215 . S
O493 C470 1.283 . S
O494 Mn468 2.094 . S
O494 C472 1.240 . S
O495 Mn469 2.117 . S
O495 C472 1.264 . S
C496 C489 1.403 . S
C496 C497 1.399 . S
C496 H502 0.929 . S
C497 C477 1.449 . S
C497 C496 1.399 . S
C497 H503 0.930 . S
H498 C478 0.931 . S
H499 C479 0.930 . S
H500 C487 0.931 . S
H501 C488 0.929 . S
H502 C496 0.929 . S
H503 C497 0.930 . S
Mn504 O509 2.095 . S
Mn504 O519 2.162 . S
Mn504 O520 2.297 . S
Mn504 O528 2.385 . S
Mn504 O529 2.209 . S
Mn504 O530 2.094 . S
Mn505 O510 2.121 . S
Mn505 N512 2.257 . S
Mn505 N521 2.282 . S
Mn505 O529 2.215 . S
Mn505 O531 2.117 . S
C506 O528 1.234 . S
C506 O529 1.283 . S
C507 O519 1.281 . S
C507 O520 1.236 . S
C508 O530 1.240 . S
C508 O531 1.264 . S
O509 Mn504 2.095 . S
O509 C518 1.250 . S
O510 Mn505 2.121 . S
O510 C518 1.258 . S
C511 N512 1.326 . S
C511 C515 1.460 . S
C511 H517 0.929 . S
N512 Mn505 2.257 . S
N512 C511 1.326 . S
N512 C516 1.362 . S
C513 C514 1.258 . S
C513 C516 1.431 . S
C513 C533 1.449 . S
C514 C513 1.258 . S
C514 C515 1.477 . S
C514 H534 0.931 . S
C515 C511 1.460 . S
C515 C514 1.477 . S
C515 H535 0.930 . S
C516 N512 1.362 . S
C516 C513 1.431 . S
C516 C526 1.476 . S
H517 C511 0.929 . S
C518 O509 1.250 . S
C518 O510 1.258 . S
O519 Mn504 2.162 . S
O519 C507 1.281 . S
O520 Mn504 2.297 . S
O520 C507 1.236 . S
N521 Mn505 2.282 . S
N521 C522 1.328 . S
N521 C526 1.318 . S
C522 N521 1.328 . S
C522 C523 1.457 . S
C522 H527 0.929 . S
C523 C522 1.457 . S
C523 C524 1.291 . S
C523 H536 0.931 . S
C524 C523 1.291 . S
C524 C525 1.373 . S
C524 H537 0.929 . S
C525 C524 1.373 . S
C525 C526 1.396 . S
C525 C532 1.403 . S
C526 C516 1.476 . S
C526 N521 1.318 . S
C526 C525 1.396 . S
H527 C522 0.929 . S
O528 Mn504 2.385 . S
O528 C506 1.234 . S
O529 Mn504 2.209 . S
O529 Mn505 2.215 . S
O529 C506 1.283 . S
O530 Mn504 2.094 . S
O530 C508 1.240 . S
O531 Mn505 2.117 . S
O531 C508 1.264 . S
C532 C525 1.403 . S
C532 C533 1.399 . S
C532 H538 0.929 . S
C533 C513 1.449 . S
C533 C532 1.399 . S
C533 H539 0.930 . S
H534 C514 0.931 . S
H535 C515 0.930 . S
H536 C523 0.931 . S
H537 C524 0.929 . S
H538 C532 0.929 . S
H539 C533 0.930 . S
Mn540 O545 2.095 . S
Mn540 O555 2.162 . S
Mn540 O556 2.297 . S
Mn540 O564 2.385 . S
Mn540 O565 2.209 . S
Mn540 O566 2.094 . S
Mn541 O546 2.121 . S
Mn541 N548 2.257 . S
Mn541 N557 2.282 . S
Mn541 O565 2.215 . S
Mn541 O567 2.117 . S
C542 O564 1.234 . S
C542 O565 1.283 . S
C543 O555 1.281 . S
C543 O556 1.236 . S
C544 O566 1.240 . S
C544 O567 1.264 . S
O545 Mn540 2.095 . S
O545 C554 1.250 . S
O546 Mn541 2.121 . S
O546 C554 1.258 . S
C547 N548 1.326 . S
C547 C551 1.460 . S
C547 H553 0.929 . S
N548 Mn541 2.257 . S
N548 C547 1.326 . S
N548 C552 1.362 . S
C549 C550 1.258 . S
C549 C552 1.431 . S
C549 C569 1.449 . S
C550 C549 1.258 . S
C550 C551 1.477 . S
C550 H570 0.931 . S
C551 C547 1.460 . S
C551 C550 1.477 . S
C551 H571 0.930 . S
C552 N548 1.362 . S
C552 C549 1.431 . S
C552 C562 1.476 . S
H553 C547 0.929 . S
C554 O545 1.250 . S
C554 O546 1.258 . S
O555 Mn540 2.162 . S
O555 C543 1.281 . S
O556 Mn540 2.297 . S
O556 C543 1.236 . S
N557 Mn541 2.282 . S
N557 C558 1.328 . S
N557 C562 1.318 . S
C558 N557 1.328 . S
C558 C559 1.457 . S
C558 H563 0.929 . S
C559 C558 1.457 . S
C559 C560 1.291 . S
C559 H572 0.931 . S
C560 C559 1.291 . S
C560 C561 1.373 . S
C560 H573 0.929 . S
C561 C560 1.373 . S
C561 C562 1.396 . S
C561 C568 1.403 . S
C562 C552 1.476 . S
C562 N557 1.318 . S
C562 C561 1.396 . S
H563 C558 0.929 . S
O564 Mn540 2.385 . S
O564 C542 1.234 . S
O565 Mn540 2.209 . S
O565 Mn541 2.215 . S
O565 C542 1.283 . S
O566 Mn540 2.094 . S
O566 C544 1.240 . S
O567 Mn541 2.117 . S
O567 C544 1.264 . S
C568 C561 1.403 . S
C568 C569 1.399 . S
C568 H574 0.929 . S
C569 C549 1.449 . S
C569 C568 1.399 . S
C569 H575 0.930 . S
H570 C550 0.931 . S
H571 C551 0.930 . S
H572 C559 0.931 . S
H573 C560 0.929 . S
H574 C568 0.929 . S
H575 C569 0.930 . S
Mn576 O581 2.095 1_545 S
Mn576 O591 2.162 . S
Mn576 O592 2.297 1_545 S
Mn576 O600 2.385 . S
Mn576 O601 2.209 . S
Mn576 O602 2.094 . S
Mn577 O582 2.121 1_545 S
Mn577 N584 2.257 1_545 S
Mn577 N593 2.282 . S
Mn577 O601 2.215 . S
Mn577 O603 2.117 . S
C578 O600 1.234 . S
C578 O601 1.283 . S
C579 O591 1.281 . S
C579 O592 1.236 1_545 S
C580 O602 1.240 . S
C580 O603 1.264 . S
O581 Mn576 2.095 1_565 S
O581 C590 1.250 . S
O582 Mn577 2.121 1_565 S
O582 C590 1.258 . S
C583 N584 1.326 . S
C583 C587 1.460 . S
C583 H589 0.929 . S
N584 Mn577 2.257 1_565 S
N584 C583 1.326 . S
N584 C588 1.362 1_565 S
C585 C586 1.258 1_545 S
C585 C588 1.431 . S
C585 C605 1.449 . S
C586 C585 1.258 1_565 S
C586 C587 1.477 . S
C586 H606 0.931 . S
C587 C583 1.460 . S
C587 C586 1.477 . S
C587 H607 0.930 . S
C588 N584 1.362 1_545 S
C588 C585 1.431 . S
C588 C598 1.476 . S
H589 C583 0.929 . S
C590 O581 1.250 . S
C590 O582 1.258 . S
O591 Mn576 2.162 . S
O591 C579 1.281 . S
O592 Mn576 2.297 1_565 S
O592 C579 1.236 1_565 S
N593 Mn577 2.282 . S
N593 C594 1.328 . S
N593 C598 1.318 . S
C594 N593 1.328 . S
C594 C595 1.457 . S
C594 H599 0.929 . S
C595 C594 1.457 . S
C595 C596 1.291 . S
C595 H608 0.931 . S
C596 C595 1.291 . S
C596 C597 1.373 . S
C596 H609 0.929 . S
C597 C596 1.373 . S
C597 C598 1.396 . S
C597 C604 1.403 . S
C598 C588 1.476 . S
C598 N593 1.318 . S
C598 C597 1.396 . S
H599 C594 0.929 . S
O600 Mn576 2.385 . S
O600 C578 1.234 . S
O601 Mn576 2.209 . S
O601 Mn577 2.215 . S
O601 C578 1.283 . S
O602 Mn576 2.094 . S
O602 C580 1.240 . S
O603 Mn577 2.117 . S
O603 C580 1.264 . S
C604 C597 1.403 . S
C604 C605 1.399 . S
C604 H610 0.929 . S
C605 C585 1.449 . S
C605 C604 1.399 . S
C605 H611 0.930 . S
H606 C586 0.931 . S
H607 C587 0.930 . S
H608 C595 0.931 . S
H609 C596 0.929 . S
H610 C604 0.929 . S
H611 C605 0.930 . S
Mn612 O617 2.095 . S
Mn612 O627 2.162 1_655 S
Mn612 O628 2.297 1_655 S
Mn612 O636 2.385 . S
Mn612 O637 2.209 . S
Mn612 O638 2.094 . S
Mn613 O618 2.121 . S
Mn613 N620 2.257 . S
Mn613 N629 2.282 . S
Mn613 O637 2.215 . S
Mn613 O639 2.117 . S
C614 O636 1.234 . S
C614 O637 1.283 . S
C615 O627 1.281 . S
C615 O628 1.236 . S
C616 O638 1.240 . S
C616 O639 1.264 . S
O617 Mn612 2.095 . S
O617 C626 1.250 . S
O618 Mn613 2.121 . S
O618 C626 1.258 . S
C619 N620 1.326 . S
C619 C623 1.460 . S
C619 H625 0.929 . S
N620 Mn613 2.257 . S
N620 C619 1.326 . S
N620 C624 1.362 . S
C621 C622 1.258 . S
C621 C624 1.431 . S
C621 C641 1.449 . S
C622 C621 1.258 . S
C622 C623 1.477 . S
C622 H642 0.931 . S
C623 C619 1.460 . S
C623 C622 1.477 . S
C623 H643 0.930 . S
C624 N620 1.362 . S
C624 C621 1.431 . S
C624 C634 1.476 . S
H625 C619 0.929 . S
C626 O617 1.250 . S
C626 O618 1.258 . S
O627 Mn612 2.162 1_455 S
O627 C615 1.281 . S
O628 Mn612 2.297 1_455 S
O628 C615 1.236 . S
N629 Mn613 2.282 . S
N629 C630 1.328 . S
N629 C634 1.318 . S
C630 N629 1.328 . S
C630 C631 1.457 . S
C630 H635 0.929 . S
C631 C630 1.457 . S
C631 C632 1.291 . S
C631 H644 0.931 . S
C632 C631 1.291 . S
C632 C633 1.373 . S
C632 H645 0.929 . S
C633 C632 1.373 . S
C633 C634 1.396 . S
C633 C640 1.403 . S
C634 C624 1.476 . S
C634 N629 1.318 . S
C634 C633 1.396 . S
H635 C630 0.929 . S
O636 Mn612 2.385 . S
O636 C614 1.234 . S
O637 Mn612 2.209 . S
O637 Mn613 2.215 . S
O637 C614 1.283 . S
O638 Mn612 2.094 . S
O638 C616 1.240 . S
O639 Mn613 2.117 . S
O639 C616 1.264 . S
C640 C633 1.403 . S
C640 C641 1.399 . S
C640 H646 0.929 . S
C641 C621 1.449 . S
C641 C640 1.399 . S
C641 H647 0.930 . S
H642 C622 0.931 . S
H643 C623 0.930 . S
H644 C631 0.931 . S
H645 C632 0.929 . S
H646 C640 0.929 . S
H647 C641 0.930 . S
H648 C656 0.930 . S
H649 C659 0.930 . S
H650 C661 0.930 . S
H651 C662 0.970 . S
H652 C662 0.970 . S
H653 C664 0.930 . S
H654 C666 0.930 . S
H655 C668 0.930 . S
C656 H648 0.930 . S
C656 C657 1.382 . S
C656 C658 1.426 . S
C657 C656 1.382 . S
C657 C661 1.389 . S
C658 C656 1.426 . S
C658 C659 1.375 . S
C658 C662 1.532 . S
C659 H649 0.930 . S
C659 C658 1.375 . S
C659 C660 1.416 . S
C660 C659 1.416 . S
C660 C661 1.371 . S
C661 H650 0.930 . S
C661 C657 1.389 . S
C661 C660 1.371 . S
C662 H651 0.970 . S
C662 H652 0.970 . S
C662 C658 1.532 . S
C662 C663 1.499 . S
C663 C662 1.499 . S
C663 C664 1.370 . S
C663 C668 1.415 . S
C664 H653 0.930 . S
C664 C663 1.370 . S
C664 C665 1.407 . S
C665 C664 1.407 . S
C665 C666 1.365 . S
C666 H654 0.930 . S
C666 C665 1.365 . S
C666 C667 1.393 . S
C667 C666 1.393 . S
C667 C668 1.387 . S
C668 H655 0.930 . S
C668 C663 1.415 . S
C668 C667 1.387 . S
H669 C677 0.930 . S
H670 C680 0.930 . S
H671 C682 0.930 . S
H672 C683 0.970 . S
H673 C683 0.970 . S
H674 C685 0.930 . S
H675 C687 0.930 . S
H676 C689 0.930 . S
C677 H669 0.930 . S
C677 C678 1.382 . S
C677 C679 1.426 . S
C678 C677 1.382 . S
C678 C682 1.389 . S
C679 C677 1.426 . S
C679 C680 1.375 . S
C679 C683 1.532 . S
C680 H670 0.930 . S
C680 C679 1.375 . S
C680 C681 1.416 . S
C681 C680 1.416 . S
C681 C682 1.371 . S
C682 H671 0.930 . S
C682 C678 1.389 . S
C682 C681 1.371 . S
C683 H672 0.970 . S
C683 H673 0.970 . S
C683 C679 1.532 . S
C683 C684 1.499 . S
C684 C683 1.499 . S
C684 C685 1.370 . S
C684 C689 1.415 . S
C685 H674 0.930 . S
C685 C684 1.370 . S
C685 C686 1.407 . S
C686 C685 1.407 . S
C686 C687 1.365 . S
C687 H675 0.930 . S
C687 C686 1.365 . S
C687 C688 1.393 . S
C688 C687 1.393 . S
C688 C689 1.387 . S
C689 H676 0.930 . S
C689 C684 1.415 . S
C689 C688 1.387 . S
H690 C698 0.930 . S
H691 C701 0.930 . S
H692 C703 0.930 . S
H693 C704 0.970 . S
H694 C704 0.970 . S
H695 C706 0.930 . S
H696 C708 0.930 . S
H697 C710 0.930 . S
C698 H690 0.930 . S
C698 C699 1.382 . S
C698 C700 1.426 . S
C699 C698 1.382 . S
C699 C703 1.389 . S
C700 C698 1.426 . S
C700 C701 1.375 . S
C700 C704 1.532 . S
C701 H691 0.930 . S
C701 C700 1.375 . S
C701 C702 1.416 . S
C702 C701 1.416 . S
C702 C703 1.371 . S
C703 H692 0.930 . S
C703 C699 1.389 . S
C703 C702 1.371 . S
C704 H693 0.970 . S
C704 H694 0.970 . S
C704 C700 1.532 . S
C704 C705 1.499 . S
C705 C704 1.499 . S
C705 C706 1.370 . S
C705 C710 1.415 . S
C706 H695 0.930 . S
C706 C705 1.370 . S
C706 C707 1.407 . S
C707 C706 1.407 . S
C707 C708 1.365 . S
C708 H696 0.930 . S
C708 C707 1.365 . S
C708 C709 1.393 . S
C709 C708 1.393 . S
C709 C710 1.387 . S
C710 H697 0.930 . S
C710 C705 1.415 . S
C710 C709 1.387 . S
H711 C719 0.930 . S
H712 C722 0.930 . S
H713 C724 0.930 . S
H714 C725 0.970 . S
H715 C725 0.970 . S
H716 C727 0.930 . S
H717 C729 0.930 . S
H718 C731 0.930 . S
C719 H711 0.930 . S
C719 C720 1.382 . S
C719 C721 1.426 . S
C720 C719 1.382 . S
C720 C724 1.389 . S
C721 C719 1.426 . S
C721 C722 1.375 . S
C721 C725 1.532 . S
C722 H712 0.930 . S
C722 C721 1.375 . S
C722 C723 1.416 . S
C723 C722 1.416 . S
C723 C724 1.371 . S
C724 H713 0.930 . S
C724 C720 1.389 . S
C724 C723 1.371 . S
C725 H714 0.970 . S
C725 H715 0.970 . S
C725 C721 1.532 . S
C725 C726 1.499 . S
C726 C725 1.499 . S
C726 C727 1.370 . S
C726 C731 1.415 . S
C727 H716 0.930 . S
C727 C726 1.370 . S
C727 C728 1.407 . S
C728 C727 1.407 . S
C728 C729 1.365 . S
C729 H717 0.930 . S
C729 C728 1.365 . S
C729 C730 1.393 . S
C730 C729 1.393 . S
C730 C731 1.387 . S
C731 H718 0.930 . S
C731 C726 1.415 . S
C731 C730 1.387 . S
H732 C740 0.930 . S
H733 C743 0.930 . S
H734 C745 0.930 . S
H735 C746 0.970 . S
H736 C746 0.970 . S
H737 C748 0.930 . S
H738 C750 0.930 . S
H739 C752 0.930 . S
C740 H732 0.930 . S
C740 C741 1.382 . S
C740 C742 1.426 . S
C741 C740 1.382 . S
C741 C745 1.389 . S
C742 C740 1.426 . S
C742 C743 1.375 . S
C742 C746 1.532 . S
C743 H733 0.930 . S
C743 C742 1.375 . S
C743 C744 1.416 . S
C744 C743 1.416 . S
C744 C745 1.371 . S
C745 H734 0.930 . S
C745 C741 1.389 . S
C745 C744 1.371 . S
C746 H735 0.970 . S
C746 H736 0.970 . S
C746 C742 1.532 . S
C746 C747 1.499 . S
C747 C746 1.499 . S
C747 C748 1.370 . S
C747 C752 1.415 . S
C748 H737 0.930 . S
C748 C747 1.370 . S
C748 C749 1.407 . S
C749 C748 1.407 . S
C749 C750 1.365 . S
C750 H738 0.930 . S
C750 C749 1.365 . S
C750 C751 1.393 . S
C751 C750 1.393 . S
C751 C752 1.387 . S
C752 H739 0.930 . S
C752 C747 1.415 . S
C752 C751 1.387 . S
H753 C761 0.930 . S
H754 C764 0.930 . S
H755 C766 0.930 . S
H756 C767 0.970 . S
H757 C767 0.970 . S
H758 C769 0.930 . S
H759 C771 0.930 . S
H760 C773 0.930 . S
C761 H753 0.930 . S
C761 C762 1.382 . S
C761 C763 1.426 . S
C762 C761 1.382 . S
C762 C766 1.389 . S
C763 C761 1.426 . S
C763 C764 1.375 . S
C763 C767 1.532 . S
C764 H754 0.930 . S
C764 C763 1.375 . S
C764 C765 1.416 . S
C765 C764 1.416 . S
C765 C766 1.371 . S
C766 H755 0.930 . S
C766 C762 1.389 . S
C766 C765 1.371 . S
C767 H756 0.970 . S
C767 H757 0.970 . S
C767 C763 1.532 . S
C767 C768 1.499 . S
C768 C767 1.499 . S
C768 C769 1.370 . S
C768 C773 1.415 . S
C769 H758 0.930 . S
C769 C768 1.370 . S
C769 C770 1.407 . S
C770 C769 1.407 . S
C770 C771 1.365 . S
C771 H759 0.930 . S
C771 C770 1.365 . S
C771 C772 1.393 . S
C772 C771 1.393 . S
C772 C773 1.387 . S
C773 H760 0.930 . S
C773 C768 1.415 . S
C773 C772 1.387 . S
H774 C782 0.930 . S
H775 C785 0.930 . S
H776 C787 0.930 . S
H777 C788 0.970 . S
H778 C788 0.970 . S
H779 C790 0.930 . S
H780 C792 0.930 . S
H781 C794 0.930 . S
C782 H774 0.930 . S
C782 C783 1.382 . S
C782 C784 1.426 . S
C783 C782 1.382 . S
C783 C787 1.389 . S
C784 C782 1.426 . S
C784 C785 1.375 . S
C784 C788 1.532 . S
C785 H775 0.930 . S
C785 C784 1.375 . S
C785 C786 1.416 . S
C786 C785 1.416 . S
C786 C787 1.371 . S
C787 H776 0.930 . S
C787 C783 1.389 . S
C787 C786 1.371 . S
C788 H777 0.970 . S
C788 H778 0.970 . S
C788 C784 1.532 . S
C788 C789 1.499 . S
C789 C788 1.499 . S
C789 C790 1.370 . S
C789 C794 1.415 . S
C790 H779 0.930 . S
C790 C789 1.370 . S
C790 C791 1.407 . S
C791 C790 1.407 . S
C791 C792 1.365 . S
C792 H780 0.930 . S
C792 C791 1.365 . S
C792 C793 1.393 . S
C793 C792 1.393 . S
C793 C794 1.387 . S
C794 H781 0.930 . S
C794 C789 1.415 . S
C794 C793 1.387 . S
H795 C803 0.930 . S
H796 C806 0.930 . S
H797 C808 0.930 . S
H798 C809 0.970 . S
H799 C809 0.970 . S
H800 C811 0.930 . S
H801 C813 0.930 . S
H802 C815 0.930 . S
C803 H795 0.930 . S
C803 C804 1.382 . S
C803 C805 1.426 . S
C804 C803 1.382 . S
C804 C808 1.389 . S
C805 C803 1.426 . S
C805 C806 1.375 . S
C805 C809 1.532 . S
C806 H796 0.930 . S
C806 C805 1.375 . S
C806 C807 1.416 . S
C807 C806 1.416 . S
C807 C808 1.371 . S
C808 H797 0.930 . S
C808 C804 1.389 . S
C808 C807 1.371 . S
C809 H798 0.970 . S
C809 H799 0.970 . S
C809 C805 1.532 . S
C809 C810 1.499 . S
C810 C809 1.499 . S
C810 C811 1.370 . S
C810 C815 1.415 . S
C811 H800 0.930 . S
C811 C810 1.370 . S
C811 C812 1.407 . S
C812 C811 1.407 . S
C812 C813 1.365 . S
C813 H801 0.930 . S
C813 C812 1.365 . S
C813 C814 1.393 . S
C814 C813 1.393 . S
C814 C815 1.387 . S
C815 H802 0.930 . S
C815 C810 1.415 . S
C815 C814 1.387 . S
H816 C824 0.930 . S
H817 C827 0.930 . S
H818 C829 0.930 . S
H819 C830 0.970 . S
H820 C830 0.970 . S
H821 C832 0.930 . S
H822 C834 0.930 . S
H823 C836 0.930 . S
C824 H816 0.930 . S
C824 C825 1.382 . S
C824 C826 1.426 . S
C825 C824 1.382 . S
C825 C829 1.389 . S
C826 C824 1.426 . S
C826 C827 1.375 . S
C826 C830 1.532 . S
C827 H817 0.930 . S
C827 C826 1.375 . S
C827 C828 1.416 . S
C828 C827 1.416 . S
C828 C829 1.371 . S
C829 H818 0.930 . S
C829 C825 1.389 . S
C829 C828 1.371 . S
C830 H819 0.970 . S
C830 H820 0.970 . S
C830 C826 1.532 . S
C830 C831 1.499 . S
C831 C830 1.499 . S
C831 C832 1.370 . S
C831 C836 1.415 . S
C832 H821 0.930 . S
C832 C831 1.370 . S
C832 C833 1.407 . S
C833 C832 1.407 . S
C833 C834 1.365 . S
C834 H822 0.930 . S
C834 C833 1.365 . S
C834 C835 1.393 . S
C835 C834 1.393 . S
C835 C836 1.387 . S
C836 H823 0.930 . S
C836 C831 1.415 . S
C836 C835 1.387 . S
H837 C845 0.930 . S
H838 C848 0.930 . S
H839 C850 0.930 . S
H840 C851 0.970 . S
H841 C851 0.970 . S
H842 C853 0.930 . S
H843 C855 0.930 . S
H844 C857 0.930 . S
C845 H837 0.930 . S
C845 C846 1.382 . S
C845 C847 1.426 . S
C846 C845 1.382 . S
C846 C850 1.389 1_455 S
C847 C845 1.426 . S
C847 C848 1.375 . S
C847 C851 1.532 . S
C848 H838 0.930 . S
C848 C847 1.375 . S
C848 C849 1.416 . S
C849 C848 1.416 . S
C849 C850 1.371 1_455 S
C850 H839 0.930 . S
C850 C846 1.389 1_655 S
C850 C849 1.371 1_655 S
C851 H840 0.970 . S
C851 H841 0.970 . S
C851 C847 1.532 . S
C851 C852 1.499 . S
C852 C851 1.499 . S
C852 C853 1.370 . S
C852 C857 1.415 . S
C853 H842 0.930 . S
C853 C852 1.370 . S
C853 C854 1.407 . S
C854 C853 1.407 . S
C854 C855 1.365 1_455 S
C855 H843 0.930 . S
C855 C854 1.365 1_655 S
C855 C856 1.393 1_655 S
C856 C855 1.393 1_455 S
C856 C857 1.387 . S
C857 H844 0.930 . S
C857 C852 1.415 . S
C857 C856 1.387 . S
H858 C866 0.930 . S
H859 C869 0.930 . S
H860 C871 0.930 . S
H861 C872 0.970 . S
H862 C872 0.970 . S
H863 C874 0.930 . S
H864 C876 0.930 . S
H865 C878 0.930 . S
C866 H858 0.930 . S
C866 C867 1.382 . S
C866 C868 1.426 . S
C867 C866 1.382 . S
C867 C871 1.389 . S
C868 C866 1.426 . S
C868 C869 1.375 . S
C868 C872 1.532 . S
C869 H859 0.930 . S
C869 C868 1.375 . S
C869 C870 1.416 . S
C870 C869 1.416 . S
C870 C871 1.371 . S
C871 H860 0.930 . S
C871 C867 1.389 . S
C871 C870 1.371 . S
C872 H861 0.970 . S
C872 H862 0.970 . S
C872 C868 1.532 . S
C872 C873 1.499 . S
C873 C872 1.499 . S
C873 C874 1.370 . S
C873 C878 1.415 . S
C874 H863 0.930 . S
C874 C873 1.370 . S
C874 C875 1.407 . S
C875 C874 1.407 . S
C875 C876 1.365 . S
C876 H864 0.930 . S
C876 C875 1.365 . S
C876 C877 1.393 . S
C877 C876 1.393 . S
C877 C878 1.387 . S
C878 H865 0.930 . S
C878 C873 1.415 . S
C878 C877 1.387 . S
H879 C887 0.930 . S
H880 C890 0.930 . S
H881 C892 0.930 . S
H882 C893 0.970 . S
H883 C893 0.970 . S
H884 C895 0.930 . S
H885 C897 0.930 . S
H886 C899 0.930 . S
C887 H879 0.930 . S
C887 C888 1.382 . S
C887 C889 1.426 . S
C888 C887 1.382 . S
C888 C892 1.389 1_565 S
C889 C887 1.426 . S
C889 C890 1.375 . S
C889 C893 1.532 . S
C890 H880 0.930 . S
C890 C889 1.375 . S
C890 C891 1.416 . S
C891 C890 1.416 . S
C891 C892 1.371 1_565 S
C892 H881 0.930 . S
C892 C888 1.389 1_545 S
C892 C891 1.371 1_545 S
C893 H882 0.970 . S
C893 H883 0.970 . S
C893 C889 1.532 . S
C893 C894 1.499 . S
C894 C893 1.499 . S
C894 C895 1.370 . S
C894 C899 1.415 . S
C895 H884 0.930 . S
C895 C894 1.370 . S
C895 C896 1.407 . S
C896 C895 1.407 . S
C896 C897 1.365 1_565 S
C897 H885 0.930 . S
C897 C896 1.365 1_545 S
C897 C898 1.393 1_545 S
C898 C897 1.393 1_565 S
C898 C899 1.387 . S
C899 H886 0.930 . S
C899 C894 1.415 . S
C899 C898 1.387 . S
H900 C908 0.930 . S
H901 C911 0.930 . S
H902 C913 0.930 . S
H903 C914 0.970 . S
H904 C914 0.970 . S
H905 C916 0.930 . S
H906 C918 0.930 . S
H907 C920 0.930 . S
C908 H900 0.930 . S
C908 C909 1.382 . S
C908 C910 1.426 . S
C909 C908 1.382 . S
C909 C913 1.389 1_565 S
C910 C908 1.426 . S
C910 C911 1.375 . S
C910 C914 1.532 . S
C911 H901 0.930 . S
C911 C910 1.375 . S
C911 C912 1.416 . S
C912 C911 1.416 . S
C912 C913 1.371 1_565 S
C913 H902 0.930 . S
C913 C909 1.389 1_545 S
C913 C912 1.371 1_545 S
C914 H903 0.970 . S
C914 H904 0.970 . S
C914 C910 1.532 . S
C914 C915 1.499 . S
C915 C914 1.499 . S
C915 C916 1.370 . S
C915 C920 1.415 . S
C916 H905 0.930 . S
C916 C915 1.370 . S
C916 C917 1.407 . S
C917 C916 1.407 . S
C917 C918 1.365 1_565 S
C918 H906 0.930 . S
C918 C917 1.365 1_545 S
C918 C919 1.393 1_545 S
C919 C918 1.393 1_565 S
C919 C920 1.387 . S
C920 H907 0.930 . S
C920 C915 1.415 . S
C920 C919 1.387 . S
H921 C929 0.930 . S
H922 C932 0.930 . S
H923 C934 0.930 . S
H924 C935 0.970 . S
H925 C935 0.970 . S
H926 C937 0.930 . S
H927 C939 0.930 . S
H928 C941 0.930 . S
C929 H921 0.930 . S
C929 C930 1.382 . S
C929 C931 1.426 . S
C930 C929 1.382 . S
C930 C934 1.389 1_455 S
C931 C929 1.426 . S
C931 C932 1.375 . S
C931 C935 1.532 . S
C932 H922 0.930 . S
C932 C931 1.375 . S
C932 C933 1.416 . S
C933 C932 1.416 . S
C933 C934 1.371 1_455 S
C934 H923 0.930 . S
C934 C930 1.389 1_655 S
C934 C933 1.371 1_655 S
C935 H924 0.970 . S
C935 H925 0.970 . S
C935 C931 1.532 . S
C935 C936 1.499 . S
C936 C935 1.499 . S
C936 C937 1.370 . S
C936 C941 1.415 . S
C937 H926 0.930 . S
C937 C936 1.370 . S
C937 C938 1.407 . S
C938 C937 1.407 . S
C938 C939 1.365 1_455 S
C939 H927 0.930 . S
C939 C938 1.365 1_655 S
C939 C940 1.393 1_655 S
C940 C939 1.393 1_455 S
C940 C941 1.387 . S
C941 H928 0.930 . S
C941 C936 1.415 . S
C941 C940 1.387 . S
H942 C950 0.930 . S
H943 C953 0.930 . S
H944 C955 0.930 . S
H945 C956 0.970 . S
H946 C956 0.970 . S
H947 C958 0.930 . S
H948 C960 0.930 . S
H949 C962 0.930 . S
C950 H942 0.930 . S
C950 C951 1.382 . S
C950 C952 1.426 . S
C951 C950 1.382 . S
C951 C955 1.389 . S
C952 C950 1.426 . S
C952 C953 1.375 . S
C952 C956 1.532 . S
C953 H943 0.930 . S
C953 C952 1.375 . S
C953 C954 1.416 . S
C954 C953 1.416 . S
C954 C955 1.371 . S
C955 H944 0.930 . S
C955 C951 1.389 . S
C955 C954 1.371 . S
C956 H945 0.970 . S
C956 H946 0.970 . S
C956 C952 1.532 . S
C956 C957 1.499 . S
C957 C956 1.499 . S
C957 C958 1.370 . S
C957 C962 1.415 . S
C958 H947 0.930 . S
C958 C957 1.370 . S
C958 C959 1.407 . S
C959 C958 1.407 . S
C959 C960 1.365 . S
C960 H948 0.930 . S
C960 C959 1.365 . S
C960 C961 1.393 . S
C961 C960 1.393 . S
C961 C962 1.387 . S
C962 H949 0.930 . S
C962 C957 1.415 . S
C962 C961 1.387 . S
H963 C971 0.930 . S
H964 C974 0.930 . S
H965 C976 0.930 . S
H966 C977 0.970 . S
H967 C977 0.970 . S
H968 C979 0.930 . S
H969 C981 0.930 . S
H970 C983 0.930 . S
C971 H963 0.930 . S
C971 C972 1.382 . S
C971 C973 1.426 . S
C972 C971 1.382 . S
C972 C976 1.389 . S
C973 C971 1.426 . S
C973 C974 1.375 . S
C973 C977 1.532 . S
C974 H964 0.930 . S
C974 C973 1.375 . S
C974 C975 1.416 . S
C975 C974 1.416 . S
C975 C976 1.371 . S
C976 H965 0.930 . S
C976 C972 1.389 . S
C976 C975 1.371 . S
C977 H966 0.970 . S
C977 H967 0.970 . S
C977 C973 1.532 . S
C977 C978 1.499 . S
C978 C977 1.499 . S
C978 C979 1.370 . S
C978 C983 1.415 . S
C979 H968 0.930 . S
C979 C978 1.370 . S
C979 C980 1.407 . S
C980 C979 1.407 . S
C980 C981 1.365 . S
C981 H969 0.930 . S
C981 C980 1.365 . S
C981 C982 1.393 . S
C982 C981 1.393 . S
C982 C983 1.387 . S
C983 H970 0.930 . S
C983 C978 1.415 . S
C983 C982 1.387 . S
H984 C992 0.930 . S
H985 C995 0.930 . S
H986 C997 0.930 . S
H987 C998 0.970 . S
H988 C998 0.970 . S
H989 C1000 0.930 . S
H990 C1002 0.930 . S
H991 C1004 0.930 . S
C992 H984 0.930 . S
C992 C993 1.382 . S
C992 C994 1.426 . S
C993 C992 1.382 . S
C993 C997 1.389 . S
C994 C992 1.426 . S
C994 C995 1.375 . S
C994 C998 1.532 . S
C995 H985 0.930 . S
C995 C994 1.375 . S
C995 C996 1.416 . S
C996 C995 1.416 . S
C996 C997 1.371 . S
C997 H986 0.930 . S
C997 C993 1.389 . S
C997 C996 1.371 . S
C998 H987 0.970 . S
C998 H988 0.970 . S
C998 C994 1.532 . S
C998 C999 1.499 . S
C999 C998 1.499 . S
C999 C1000 1.370 . S
C999 C1004 1.415 . S
C1000 H989 0.930 . S
C1000 C999 1.370 . S
C1000 C1001 1.407 . S
C1001 C1000 1.407 . S
C1001 C1002 1.365 . S
C1002 H990 0.930 . S
C1002 C1001 1.365 . S
C1002 C1003 1.393 . S
C1003 C1002 1.393 . S
C1003 C1004 1.387 . S
C1004 H991 0.930 . S
C1004 C999 1.415 . S
C1004 C1003 1.387 . S
H1005 C1013 0.930 . S
H1006 C1016 0.930 . S
H1007 C1018 0.930 . S
H1008 C1019 0.970 . S
H1009 C1019 0.970 . S
H1010 C1021 0.930 . S
H1011 C1023 0.930 . S
H1012 C1025 0.930 . S
C1013 H1005 0.930 . S
C1013 C1014 1.382 . S
C1013 C1015 1.426 . S
C1014 C1013 1.382 . S
C1014 C1018 1.389 . S
C1015 C1013 1.426 . S
C1015 C1016 1.375 . S
C1015 C1019 1.532 . S
C1016 H1006 0.930 . S
C1016 C1015 1.375 . S
C1016 C1017 1.416 . S
C1017 C1016 1.416 . S
C1017 C1018 1.371 . S
C1018 H1007 0.930 . S
C1018 C1014 1.389 . S
C1018 C1017 1.371 . S
C1019 H1008 0.970 . S
C1019 H1009 0.970 . S
C1019 C1015 1.532 . S
C1019 C1020 1.499 . S
C1020 C1019 1.499 . S
C1020 C1021 1.370 . S
C1020 C1025 1.415 . S
C1021 H1010 0.930 . S
C1021 C1020 1.370 . S
C1021 C1022 1.407 . S
C1022 C1021 1.407 . S
C1022 C1023 1.365 . S
C1023 H1011 0.930 . S
C1023 C1022 1.365 . S
C1023 C1024 1.393 . S
C1024 C1023 1.393 . S
C1024 C1025 1.387 . S
C1025 H1012 0.930 . S
C1025 C1020 1.415 . S
C1025 C1024 1.387 . S
C4 C854 1.522 . S
C38 C867 1.913 . S
C896 C74 1.535 1_565 S
C76 C909 1.525 . S
C2 C930 1.730 . S
C40 C959 1.501 . S
C110 C938 1.659 . S
C951 C148 1.496 . S
C917 C182 1.618 . S
C184 C888 1.536 1_545 S
C846 C112 1.518 . S
C146 C875 1.720 . S
C220 C980 1.610 . S
C254 C993 1.993 . S
C1022 C290 1.651 . S
C292 C657 1.696 . S
C218 C678 1.884 . S
C256 C707 1.531 . S
C326 C686 1.814 . S
C364 C699 1.548 . S
C665 C398 1.768 . S
C1014 C400 1.550 . S
C972 C328 1.520 . S
C1001 C362 1.790 . S
C436 C728 1.583 . S
C470 C741 1.966 . S
C506 C770 1.648 . S
C508 C783 1.730 . S
C804 C434 1.898 . S
C833 C472 1.549 . S
C812 C542 1.850 . S
C825 C580 1.550 . S
C614 C791 1.776 . S
C762 C616 1.521 . S
C544 C720 1.525 . S
C749 C578 1.760 . S
C660 C14 1.638 . S
C39 C681 1.431 . S
C709 C75 1.258 . S
C730 C86 1.145 . S
C744 C3 1.470 . S
C772 C50 1.357 . S
C111 C765 1.263 . S
C158 C723 1.220 . S
C183 C751 1.720 . S
C194 C688 1.712 . S
C702 C122 1.278 . S
C147 C667 1.414 . S
C786 C230 1.585 . S
C255 C807 1.461 . S
C291 C835 1.261 . S
C856 C302 1.039 . S
C219 C870 1.429 . S
C266 C898 1.252 . S
C327 C891 1.205 . S
C374 C849 1.102 . S
C877 C399 1.658 . S
C410 C814 1.646 . S
C338 C828 1.237 . S
C793 C363 1.442 . S
C912 C446 1.325 1_565 S
C471 C933 1.307 1_655 S
C507 C961 1.233 . S
C982 C518 1.106 . S
C996 C435 1.462 . S
C482 C1024 1.374 . S
C543 C1017 1.222 . S
C590 C975 1.229 . S
C1003 C615 1.673 . S
C940 C626 1.405 1_455 S
C954 C554 1.231 . S
C579 C919 1.274 1_545 S
