# Generated by pormake.
# Topology rtl, (3,6)-cn, num edge types: 1
# Building blocks:
#     Node 0, Type 0, BuildingBlock: BELTOD_clean_linker_0, # of connection points: 3
#     Node 1, Type 0, BuildingBlock: BELTOD_clean_linker_0, # of connection points: 3
#     Node 2, Type 0, BuildingBlock: BELTOD_clean_linker_0, # of connection points: 3
#     Node 3, Type 0, BuildingBlock: BELTOD_clean_linker_0, # of connection points: 3
#     Node 4, Type 1, BuildingBlock: KUMBOL_clean_sbu_1, # of connection points: 6
#     Node 5, Type 1, BuildingBlock: KUMBOL_clean_sbu_1, # of connection points: 6
#     Edge 6, Type (0, 1), None
#     Edge 7, Type (0, 1), None
#     Edge 8, Type (0, 1), None
#     Edge 9, Type (0, 1), None
#     Edge 10, Type (0, 1), None
#     Edge 11, Type (0, 1), None
#     Edge 12, Type (0, 1), None
#     Edge 13, Type (0, 1), None
#     Edge 14, Type (0, 1), None
#     Edge 15, Type (0, 1), None
#     Edge 16, Type (0, 1), None
#     Edge 17, Type (0, 1), None
# Relax obj value: 0.022
# Max RMSD: 0.159
# Mean RMSD: 0.098
data_MOF--net-rtl--node1-KUMBOL_clean_sbu_1--node2-BELTOD_clean_linker_0--edge1-none
_symmetry_space_group_name_H-M    P1
_symmetry_Int_Tables_number       1
_symmetry_cell_setting            triclinic
loop_
_symmetry_equiv_pos_as_xyz
'x, y, z'
_cell_length_a     19.437414
_cell_length_b     20.387824
_cell_length_c     18.835472
_cell_angle_alpha  69.013608
_cell_angle_beta   100.16292
_cell_angle_gamma 91.233036
loop_
_atom_site_label
_atom_site_type_symbol
_atom_site_fract_x
_atom_site_fract_y
_atom_site_fract_z
_atom_type_partial_charge
P0 P 0.27304 0.88127 0.01566 0.0
H1 H 0.26659 0.96747 0.10957 0.0
H2 H 0.23155 0.94308 0.23445 0.0
H3 H 0.16397 0.73944 0.23591 0.0
H4 H 0.19905 0.76446 0.11009 0.0
H5 H 0.31892 0.83399 0.90134 0.0
H6 H 0.39003 0.73191 0.91308 0.0
H7 H 0.41899 0.66478 0.162 0.0
H8 H 0.34857 0.76675 0.1499 0.0
H9 H 0.2116 0.01623 0.90851 0.0
H10 H 0.18582 0.79844 0.93583 0.0
O11 O 0.32716 0.94741 0.00525 0.0
H12 H 0.13504 0.05219 0.78346 0.0
H13 H 0.10829 0.83421 0.80901 0.0
C14 C 0.2366 0.86719 0.10132 0.0
C15 C 0.24351 0.91787 0.13617 0.0
C16 C 0.22328 0.90396 0.20756 0.0
C17 C 0.19588 0.83897 0.24549 0.0
C18 C 0.18606 0.7895 0.20865 0.0
C19 C 0.20559 0.80388 0.13665 0.0
C20 C 0.32516 0.80589 0.0247 0.0
C21 C 0.33946 0.79655 0.9584 0.0
C22 C 0.38029 0.7384 0.96509 0.0
C23 C 0.40857 0.68944 0.03828 0.0
C24 C 0.39709 0.70099 0.10464 0.0
C25 C 0.35608 0.75898 0.09783 0.0
C26 C 0.20612 0.90492 0.93029 0.0
C27 C 0.18904 0.97604 0.88763 0.0
C28 C 0.14519 0.99643 0.81572 0.0
C29 C 0.11722 0.94599 0.78479 0.0
C30 C 0.13071 0.87431 0.83003 0.0
C31 C 0.17454 0.85389 0.90272 0.0
P32 P 0.76727 0.65899 0.71747 0.0
H33 H 0.8189 0.57729 0.63553 0.0
H34 H 0.75859 0.5296 0.53987 0.0
H35 H 0.56592 0.63615 0.53073 0.0
H36 H 0.62672 0.68562 0.62423 0.0
H37 H 0.8479 0.74207 0.7983 0.0
H38 H 0.90881 0.85166 0.75201 0.0
H39 H 0.8219 0.87543 0.51646 0.0
H40 H 0.75971 0.76742 0.56255 0.0
H41 H 0.67199 0.54736 0.76119 0.0
H42 H 0.72558 0.73238 0.81644 0.0
O43 O 0.83664 0.60469 0.76596 0.0
H44 H 0.5904 0.51748 0.84971 0.0
H45 H 0.64569 0.69943 0.90986 0.0
C46 C 0.72689 0.63385 0.63785 0.0
C47 C 0.76396 0.59115 0.61215 0.0
C48 C 0.72952 0.56375 0.55791 0.0
C49 C 0.65746 0.57808 0.52963 0.0
C50 C 0.6212 0.62326 0.55306 0.0
C51 C 0.65597 0.65187 0.60586 0.0
C52 C 0.79846 0.7468 0.68413 0.0
C53 C 0.83993 0.77214 0.73683 0.0
C54 C 0.87497 0.83452 0.71037 0.0
C55 C 0.87038 0.8714 0.63073 0.0
C56 C 0.82656 0.84758 0.57816 0.0
C57 C 0.79077 0.78585 0.60466 0.0
C58 C 0.70457 0.64266 0.78113 0.0
C59 C 0.66577 0.5822 0.79177 0.0
C60 C 0.61919 0.56477 0.84298 0.0
C61 C 0.61306 0.60519 0.88821 0.0
C62 C 0.65102 0.66647 0.87711 0.0
C63 C 0.69646 0.68538 0.82353 0.0
P64 P 0.85539 0.26734 0.09682 0.0
H65 H 0.97157 0.26577 0.02004 0.0
H66 H 1.00044 0.19321 0.94918 0.0
H67 H 0.80469 0.09134 0.97412 0.0
H68 H 0.77476 0.16541 0.04371 0.0
H69 H 0.75916 0.35991 0.96487 0.0
H70 H 0.64865 0.42 0.95592 0.0
H71 H 0.64329 0.2937 0.19373 0.0
H72 H 0.75422 0.23455 0.20337 0.0
H73 H 0.94504 0.29332 0.22355 0.0
H74 H 0.83854 0.11795 0.18451 0.0
O75 O 0.90012 0.34063 0.07534 0.0
H76 H 0.9893 0.2193 0.35648 0.0
H77 H 0.88293 0.04279 0.31909 0.0
C78 C 0.87042 0.2218 0.03537 0.0
C79 C 0.9342 0.22884 0.00903 0.0
C80 C 0.9511 0.187 0.96961 0.0
C81 C 0.90497 0.13673 0.95773 0.0
C82 C 0.84097 0.12969 0.98372 0.0
C83 C 0.82367 0.17227 0.0224 0.0
C84 C 0.76529 0.29349 0.08483 0.0
C85 C 0.73313 0.34367 0.01438 0.0
C86 C 0.67 0.3779 0.00922 0.0
C87 C 0.63882 0.36257 0.0747 0.0
C88 C 0.66733 0.30718 0.14291 0.0
C89 C 0.73068 0.27322 0.14826 0.0
C90 C 0.88924 0.21098 0.19404 0.0
C91 C 0.9317 0.23866 0.24334 0.0
C92 C 0.95693 0.19611 0.31942 0.0
C93 C 0.93962 0.12515 0.34783 0.0
C94 C 0.89776 0.09698 0.29819 0.0
C95 C 0.87229 0.13997 0.22157 0.0
P96 P 0.36276 0.28427 0.48995 0.0
H97 H 0.40429 0.26699 0.6523 0.0
H98 H 0.38078 0.33853 0.72526 0.0
H99 H 0.30182 0.50891 0.51098 0.0
H100 H 0.32136 0.43501 0.43898 0.0
H101 H 0.28989 0.19845 0.40566 0.0
H102 H 0.19019 0.12265 0.42861 0.0
H103 H 0.15938 0.19501 0.61067 0.0
H104 H 0.2553 0.27159 0.58554 0.0
H105 H 0.49061 0.27595 0.43279 0.0
H106 H 0.28759 0.38266 0.33805 0.0
O107 O 0.423 0.22014 0.54217 0.0
H108 H 0.52954 0.3365 0.31151 0.0
H109 H 0.32794 0.44711 0.21587 0.0
C110 C 0.3648 0.34548 0.53995 0.0
C111 C 0.38353 0.32041 0.62087 0.0
C112 C 0.36997 0.36166 0.66278 0.0
C113 C 0.33796 0.42945 0.62455 0.0
C114 C 0.32436 0.45624 0.54293 0.0
C115 C 0.33656 0.41429 0.50122 0.0
C116 C 0.27983 0.24214 0.49252 0.0
C117 C 0.26011 0.19959 0.44871 0.0
C118 C 0.20353 0.15564 0.46264 0.0
C119 C 0.16645 0.15258 0.52166 0.0
C120 C 0.18563 0.19645 0.56405 0.0
C121 C 0.24128 0.24071 0.54949 0.0
C122 C 0.38607 0.32459 0.39504 0.0
C123 C 0.45388 0.312 0.38558 0.0
C124 C 0.47634 0.34712 0.31578 0.0
C125 C 0.4321 0.39718 0.25368 0.0
C126 C 0.36323 0.40853 0.26219 0.0
C127 C 0.34027 0.37214 0.33225 0.0
C128 C 0.88391 0.23112 0.47304 0.0
C129 C 0.77307 0.20374 0.40995 0.0
C130 C 0.83587 0.18176 0.46431 0.0
C131 C 0.75931 0.27539 0.3652 0.0
C132 C 0.87076 0.30294 0.42726 0.0
C133 C 0.80789 0.32484 0.3741 0.0
N134 N 0.94424 0.20867 0.5252 0.0
C135 C 0.99378 0.25475 0.5343 0.0
C136 C 0.92135 0.35069 0.4362 0.0
C137 C 0.98323 0.32641 0.48984 0.0
Gd138 Gd 0.05505 0.94675 0.53883 0.0
Gd139 Gd 0.95735 0.08843 0.59803 0.0
N140 N 0.8506 0.11252 0.50876 0.0
C141 C 0.72527 0.15322 0.40305 0.0
C142 C 0.80196 0.06395 0.50527 0.0
C143 C 0.7395 0.08317 0.45149 0.0
H144 H 0.80915 0.01082 0.54504 0.0
H145 H 0.70169 0.04404 0.44856 0.0
H146 H 0.21689 0.00738 0.57389 0.0
H147 H 0.04099 0.23626 0.57674 0.0
H148 H 0.32727 0.96603 0.66539 0.0
H149 H 0.67654 0.168 0.3619 0.0
H150 H 0.71089 0.29309 0.32413 0.0
H151 H 0.95677 0.80611 0.56668 0.0
H152 H 0.91322 0.40629 0.4019 0.0
H153 H 0.02262 0.3629 0.49728 0.0
H154 H 0.28792 0.72811 0.81843 0.0
H155 H 0.79632 0.38001 0.33994 0.0
H156 H 0.06693 0.63425 0.75706 0.0
H157 H 0.9611 0.68304 0.65744 0.0
N158 N 0.05694 0.82753 0.61721 0.0
C159 C 0.11699 0.80077 0.66869 0.0
C160 C 0.00228 0.78569 0.61119 0.0
C161 C 0.06498 0.68836 0.71769 0.0
C162 C 0.00508 0.71575 0.66174 0.0
C163 C 0.12214 0.73075 0.72132 0.0
H164 H 0.18781 0.65258 0.81848 0.0
N165 N 0.16547 0.91226 0.61979 0.0
C166 C 0.17305 0.84415 0.66965 0.0
C167 C 0.29137 0.86293 0.72193 0.0
C168 C 0.23572 0.81816 0.7231 0.0
C169 C 0.22063 0.95515 0.61647 0.0
C170 C 0.28401 0.93144 0.66781 0.0
O171 O 0.96974 0.12119 0.47552 0.0
O172 O 0.96181 0.01571 0.45912 0.0
O173 O 0.11884 0.95728 0.45118 0.0
O174 O 0.03629 0.88337 0.4672 0.0
O175 O 0.92724 0.97462 0.64015 0.0
O176 O 0.93983 0.9412 0.53938 0.0
O177 O 0.06196 0.92633 0.668 0.0
O178 O 0.05812 0.03718 0.67272 0.0
O179 O 0.88158 0.07659 0.67234 0.0
O180 O 0.96573 0.1475 0.6748 0.0
O181 O 0.10056 0.05514 0.50751 0.0
O182 O 0.07231 0.10706 0.59171 0.0
C183 C 0.96119 0.08464 0.43066 0.0
C184 C 0.91529 0.93106 0.60271 0.0
C185 C 0.13017 0.85725 0.41643 0.0
C186 C 0.17999 0.82233 0.32425 0.0
C187 C 0.18861 0.74227 0.45756 0.0
C188 C 0.15287 0.79206 0.47443 0.0
C189 C 0.20185 0.75703 0.3829 0.0
C190 C 0.14425 0.87226 0.34177 0.0
C191 C 0.08714 0.90834 0.43029 0.0
C192 C 0.24056 0.74878 0.77644 0.0
C193 C 0.18371 0.70548 0.77603 0.0
H194 H 0.34041 0.84493 0.76193 0.0
C195 C 0.07505 0.97001 0.7056 0.0
C196 C 0.10955 0.10278 0.54065 0.0
C197 C 0.92858 0.08488 0.79144 0.0
C198 C 0.92246 0.09436 0.91454 0.0
C199 C 0.96959 0.98683 0.91065 0.0
C200 C 0.95798 0.01617 0.82994 0.0
C201 C 0.9516 0.02572 0.95309 0.0
C202 C 0.91134 0.12386 0.83388 0.0
C203 C 0.91428 0.11612 0.70716 0.0
H204 H 0.20584 0.69195 0.5024 0.0
H205 H 0.14212 0.77925 0.53219 0.0
H206 H 0.23014 0.71785 0.37135 0.0
H207 H 0.12585 0.92231 0.29679 0.0
H208 H 0.99234 0.93395 0.94023 0.0
H209 H 0.97132 0.98524 0.79766 0.0
H210 H 0.96078 0.00266 0.01564 0.0
H211 H 0.88884 0.17701 0.80422 0.0
C212 C 0.74604 0.56378 0.10883 0.0
C213 C 0.75274 0.69004 0.04631 0.0
C214 C 0.71453 0.63085 0.07945 0.0
C215 C 0.82294 0.68066 0.04159 0.0
C216 C 0.8169 0.55421 0.10563 0.0
C217 C 0.85491 0.61292 0.07106 0.0
N218 N 0.70792 0.5082 0.14228 0.0
C219 C 0.73869 0.44244 0.1781 0.0
C220 C 0.84767 0.48603 0.1383 0.0
C221 C 0.80852 0.42998 0.17534 0.0
Gd222 Gd 0.42937 0.49091 0.9955 0.0
Gd223 Gd 0.59113 0.53444 0.14297 0.0
N224 N 0.64575 0.63798 0.08227 0.0
C225 C 0.71916 0.75686 0.01902 0.0
C226 C 0.61362 0.70304 0.05923 0.0
C227 C 0.64946 0.76337 0.02612 0.0
H228 H 0.56024 0.70818 0.0659 0.0
H229 H 0.62338 0.8148 0.00624 0.0
H230 H 0.48726 0.32031 0.05342 0.0
H231 H 0.70969 0.39998 0.21034 0.0
H232 H 0.44693 0.20389 0.12297 0.0
H233 H 0.74669 0.80369 0.99302 0.0
H234 H 0.85308 0.72547 0.01572 0.0
H235 H 0.30395 0.607 0.98011 0.0
H236 H 0.90192 0.47638 0.13688 0.0
H237 H 0.8324 0.37741 0.20291 0.0
H238 H 0.22231 0.25138 0.17064 0.0
H239 H 0.90929 0.6066 0.06766 0.0
H240 H 0.13786 0.49147 0.08303 0.0
H241 H 0.18731 0.60519 0.01591 0.0
N242 N 0.32057 0.49597 0.02884 0.0
C243 C 0.2939 0.43268 0.06365 0.0
C244 C 0.28316 0.55738 0.01062 0.0
C245 C 0.18909 0.49205 0.06767 0.0
C246 C 0.21693 0.55641 0.03012 0.0
C247 C 0.22757 0.42916 0.08491 0.0
H248 H 0.15138 0.35958 0.14038 0.0
N249 N 0.39913 0.37612 0.06106 0.0
C250 C 0.33451 0.37128 0.08098 0.0
C251 C 0.35041 0.24466 0.13576 0.0
C252 C 0.30886 0.30529 0.11962 0.0
C253 C 0.43858 0.31708 0.07394 0.0
C254 C 0.41523 0.25061 0.1123 0.0
O255 O 0.59581 0.58754 0.01598 0.0
O256 O 0.5191 0.54007 0.9393 0.0
O257 O 0.40102 0.44182 0.90925 0.0
O258 O 0.35817 0.54725 0.88788 0.0
O259 O 0.48533 0.58947 0.1142 0.0
O260 O 0.43963 0.60364 0.98768 0.0
O261 O 0.41843 0.47699 0.11919 0.0
O262 O 0.52855 0.43848 0.18713 0.0
O263 O 0.57579 0.59063 0.21698 0.0
O264 O 0.65543 0.5064 0.25784 0.0
O265 O 0.53457 0.43629 0.01322 0.0
O266 O 0.58499 0.42543 0.13763 0.0
C267 C 0.57187 0.57857 0.95058 0.0
C268 C 0.44912 0.62616 0.04589 0.0
C269 C 0.32357 0.49977 0.78548 0.0
C270 C 0.31319 0.46932 0.66915 0.0
C271 C 0.22513 0.54678 0.68037 0.0
C272 C 0.26134 0.54116 0.75319 0.0
C273 C 0.25047 0.5111 0.63877 0.0
C274 C 0.34945 0.46389 0.7433 0.0
C275 C 0.36211 0.49648 0.86182 0.0
C276 C 0.24269 0.30171 0.14078 0.0
C277 C 0.20219 0.36337 0.12342 0.0
H278 H 0.3325 0.19298 0.16533 0.0
C279 C 0.46046 0.43933 0.18332 0.0
C280 C 0.58365 0.41064 0.07496 0.0
C281 C 0.60467 0.53231 0.35067 0.0
C282 C 0.62008 0.5467 0.47508 0.0
C283 C 0.52213 0.48317 0.4365 0.0
C284 C 0.5442 0.49535 0.36641 0.0
C285 C 0.55938 0.50942 0.49039 0.0
C286 C 0.64312 0.55689 0.40555 0.0
C287 C 0.62368 0.55338 0.2741 0.0
H288 H 0.17681 0.57854 0.65627 0.0
H289 H 0.24043 0.56875 0.78466 0.0
H290 H 0.21975 0.51522 0.58339 0.0
H291 H 0.39834 0.43308 0.76767 0.0
H292 H 0.47519 0.45488 0.4482 0.0
H293 H 0.51313 0.47814 0.32349 0.0
H294 H 0.54073 0.50093 0.54378 0.0
H295 H 0.68893 0.58706 0.39249 0.0
loop_
_geom_bond_atom_site_label_1
_geom_bond_atom_site_label_2
_geom_bond_distance
_geom_bond_site_symmetry_2
_ccdc_geom_bond_type
P0 O11 1.490 1_554 S
P0 C14 1.812 . S
P0 C20 1.803 . S
P0 C26 1.819 1_554 S
H1 C15 0.941 . S
H2 C16 0.939 . S
H3 C18 0.940 . S
H4 C19 0.940 . S
H5 C21 0.939 1_556 S
H6 C22 0.942 . S
H7 C24 0.940 . S
H8 C25 0.939 . S
H9 C27 0.941 . S
H10 C31 0.939 . S
O11 P0 1.490 1_556 S
H12 C28 0.939 . S
H13 C30 0.940 . S
C14 P0 1.812 . S
C14 C15 1.389 . S
C14 C19 1.391 . S
C15 H1 0.941 . S
C15 C14 1.389 . S
C15 C16 1.397 . S
C16 H2 0.939 . S
C16 C15 1.397 . S
C16 C17 1.378 . S
C17 C16 1.378 . S
C17 C18 1.378 . S
C18 H3 0.940 . S
C18 C17 1.378 . S
C18 C19 1.396 . S
C19 H4 0.940 . S
C19 C14 1.391 . S
C19 C18 1.396 . S
C20 P0 1.803 . S
C20 C21 1.378 . S
C20 C25 1.400 . S
C21 H5 0.939 1_554 S
C21 C20 1.378 . S
C21 C22 1.361 . S
C22 H6 0.942 . S
C22 C21 1.361 . S
C22 C23 1.369 . S
C23 C22 1.369 . S
C23 C24 1.404 . S
C24 H7 0.940 . S
C24 C23 1.404 . S
C24 C25 1.389 . S
C25 H8 0.939 . S
C25 C20 1.400 . S
C25 C24 1.389 . S
C26 P0 1.819 1_556 S
C26 C27 1.391 1_565 S
C26 C31 1.391 . S
C27 H9 0.941 . S
C27 C26 1.391 1_545 S
C27 C28 1.396 . S
C28 H12 0.939 . S
C28 C27 1.396 . S
C28 C29 1.397 1_545 S
C29 C28 1.397 1_565 S
C29 C30 1.385 . S
C30 H13 0.940 . S
C30 C29 1.385 . S
C30 C31 1.388 . S
C31 H10 0.939 . S
C31 C26 1.391 . S
C31 C30 1.388 . S
P32 O43 1.490 . S
P32 C46 1.812 . S
P32 C52 1.803 . S
P32 C58 1.819 . S
H33 C47 0.941 . S
H34 C48 0.939 . S
H35 C50 0.940 . S
H36 C51 0.940 . S
H37 C53 0.939 . S
H38 C54 0.942 . S
H39 C56 0.940 . S
H40 C57 0.939 . S
H41 C59 0.941 . S
H42 C63 0.939 . S
O43 P32 1.490 . S
H44 C60 0.939 . S
H45 C62 0.940 . S
C46 P32 1.812 . S
C46 C47 1.389 . S
C46 C51 1.391 . S
C47 H33 0.941 . S
C47 C46 1.389 . S
C47 C48 1.397 . S
C48 H34 0.939 . S
C48 C47 1.397 . S
C48 C49 1.378 . S
C49 C48 1.378 . S
C49 C50 1.378 . S
C50 H35 0.940 . S
C50 C49 1.378 . S
C50 C51 1.396 . S
C51 H36 0.940 . S
C51 C46 1.391 . S
C51 C50 1.396 . S
C52 P32 1.803 . S
C52 C53 1.378 . S
C52 C57 1.400 . S
C53 H37 0.939 . S
C53 C52 1.378 . S
C53 C54 1.361 . S
C54 H38 0.942 . S
C54 C53 1.361 . S
C54 C55 1.369 . S
C55 C54 1.369 . S
C55 C56 1.404 . S
C56 H39 0.940 . S
C56 C55 1.404 . S
C56 C57 1.389 . S
C57 H40 0.939 . S
C57 C52 1.400 . S
C57 C56 1.389 . S
C58 P32 1.819 . S
C58 C59 1.391 . S
C58 C63 1.391 . S
C59 H41 0.941 . S
C59 C58 1.391 . S
C59 C60 1.396 . S
C60 H44 0.939 . S
C60 C59 1.396 . S
C60 C61 1.397 . S
C61 C60 1.397 . S
C61 C62 1.385 . S
C62 H45 0.940 . S
C62 C61 1.385 . S
C62 C63 1.388 . S
C63 H42 0.939 . S
C63 C58 1.391 . S
C63 C62 1.388 . S
P64 O75 1.490 . S
P64 C78 1.812 . S
P64 C84 1.803 . S
P64 C90 1.819 . S
H65 C79 0.941 . S
H66 C80 0.939 . S
H67 C82 0.940 . S
H68 C83 0.940 . S
H69 C85 0.939 . S
H70 C86 0.942 . S
H71 C88 0.940 . S
H72 C89 0.939 . S
H73 C91 0.941 . S
H74 C95 0.939 . S
O75 P64 1.490 . S
H76 C92 0.939 . S
H77 C94 0.940 . S
C78 P64 1.812 . S
C78 C79 1.389 1_554 S
C78 C83 1.391 . S
C79 H65 0.941 . S
C79 C78 1.389 1_556 S
C79 C80 1.397 . S
C80 H66 0.939 . S
C80 C79 1.397 . S
C80 C81 1.378 . S
C81 C80 1.378 . S
C81 C82 1.378 1_556 S
C82 H67 0.940 . S
C82 C81 1.378 1_554 S
C82 C83 1.396 . S
C83 H68 0.940 . S
C83 C78 1.391 . S
C83 C82 1.396 . S
C84 P64 1.803 . S
C84 C85 1.378 . S
C84 C89 1.400 . S
C85 H69 0.939 . S
C85 C84 1.378 . S
C85 C86 1.361 . S
C86 H70 0.942 . S
C86 C85 1.361 . S
C86 C87 1.369 . S
C87 C86 1.369 . S
C87 C88 1.404 . S
C88 H71 0.940 . S
C88 C87 1.404 . S
C88 C89 1.389 . S
C89 H72 0.939 . S
C89 C84 1.400 . S
C89 C88 1.389 . S
C90 P64 1.819 . S
C90 C91 1.391 . S
C90 C95 1.391 . S
C91 H73 0.941 . S
C91 C90 1.391 . S
C91 C92 1.396 . S
C92 H76 0.939 . S
C92 C91 1.396 . S
C92 C93 1.397 . S
C93 C92 1.397 . S
C93 C94 1.385 . S
C94 H77 0.940 . S
C94 C93 1.385 . S
C94 C95 1.388 . S
C95 H74 0.939 . S
C95 C90 1.391 . S
C95 C94 1.388 . S
P96 O107 1.490 . S
P96 C110 1.812 . S
P96 C116 1.803 . S
P96 C122 1.819 . S
H97 C111 0.941 . S
H98 C112 0.939 . S
H99 C114 0.940 . S
H100 C115 0.940 . S
H101 C117 0.939 . S
H102 C118 0.942 . S
H103 C120 0.940 . S
H104 C121 0.939 . S
H105 C123 0.941 . S
H106 C127 0.939 . S
O107 P96 1.490 . S
H108 C124 0.939 . S
H109 C126 0.940 . S
C110 P96 1.812 . S
C110 C111 1.389 . S
C110 C115 1.391 . S
C111 H97 0.941 . S
C111 C110 1.389 . S
C111 C112 1.397 . S
C112 H98 0.939 . S
C112 C111 1.397 . S
C112 C113 1.378 . S
C113 C112 1.378 . S
C113 C114 1.378 . S
C114 H99 0.940 . S
C114 C113 1.378 . S
C114 C115 1.396 . S
C115 H100 0.940 . S
C115 C110 1.391 . S
C115 C114 1.396 . S
C116 P96 1.803 . S
C116 C117 1.378 . S
C116 C121 1.400 . S
C117 H101 0.939 . S
C117 C116 1.378 . S
C117 C118 1.361 . S
C118 H102 0.942 . S
C118 C117 1.361 . S
C118 C119 1.369 . S
C119 C118 1.369 . S
C119 C120 1.404 . S
C120 H103 0.940 . S
C120 C119 1.404 . S
C120 C121 1.389 . S
C121 H104 0.939 . S
C121 C116 1.400 . S
C121 C120 1.389 . S
C122 P96 1.819 . S
C122 C123 1.391 . S
C122 C127 1.391 . S
C123 H105 0.941 . S
C123 C122 1.391 . S
C123 C124 1.396 . S
C124 H108 0.939 . S
C124 C123 1.396 . S
C124 C125 1.397 . S
C125 C124 1.397 . S
C125 C126 1.385 . S
C126 H109 0.940 . S
C126 C125 1.385 . S
C126 C127 1.388 . S
C127 H106 0.939 . S
C127 C122 1.391 . S
C127 C126 1.388 . S
C128 C130 1.422 . S
C128 C132 1.415 . S
C128 N134 1.369 . S
C129 C130 1.421 . S
C129 C131 1.417 . S
C129 C141 1.422 . S
C130 C128 1.422 . S
C130 C129 1.421 . S
C130 N140 1.359 . S
C131 C129 1.417 . S
C131 C133 1.329 . S
C131 H150 0.930 . S
C132 C128 1.415 . S
C132 C133 1.437 . S
C132 C136 1.413 . S
C133 C131 1.329 . S
C133 C132 1.437 . S
C133 H155 0.929 . S
N134 C128 1.369 . S
N134 C135 1.338 . S
N134 Gd139 2.622 . S
C135 N134 1.338 . S
C135 C137 1.378 . S
C135 H147 0.929 1_655 S
C136 C132 1.413 . S
C136 C137 1.348 . S
C136 H152 0.931 . S
C137 C135 1.378 . S
C137 C136 1.348 . S
C137 H153 0.930 1_655 S
Gd138 N158 2.622 . S
Gd138 N165 2.570 . S
Gd138 O172 2.353 1_465 S
Gd138 O173 2.468 . S
Gd138 O174 2.427 . S
Gd138 O176 2.388 1_455 S
Gd138 O177 2.386 . S
Gd138 O181 2.307 1_565 S
Gd138 C191 2.805 . S
Gd139 N134 2.622 . S
Gd139 N140 2.570 . S
Gd139 O171 2.386 . S
Gd139 O175 2.307 1_545 S
Gd139 O178 2.353 1_655 S
Gd139 O179 2.468 . S
Gd139 O180 2.427 . S
Gd139 O182 2.388 1_655 S
Gd139 C203 2.805 . S
N140 C130 1.359 . S
N140 Gd139 2.570 . S
N140 C142 1.343 . S
C141 C129 1.422 . S
C141 C143 1.321 . S
C141 H149 0.931 . S
C142 N140 1.343 . S
C142 C143 1.390 . S
C142 H144 0.931 . S
C143 C141 1.321 . S
C143 C142 1.390 . S
C143 H145 0.930 . S
H144 C142 0.931 . S
H145 C143 0.930 . S
H146 C169 0.931 . S
H147 C135 0.929 1_455 S
H148 C170 0.930 . S
H149 C141 0.931 . S
H150 C131 0.930 . S
H151 C160 0.929 1_655 S
H152 C136 0.931 . S
H153 C137 0.930 1_455 S
H154 C192 0.930 . S
H155 C133 0.929 . S
H156 C161 0.931 . S
H157 C162 0.930 1_655 S
N158 Gd138 2.622 . S
N158 C159 1.369 . S
N158 C160 1.338 . S
C159 N158 1.369 . S
C159 C163 1.415 . S
C159 C166 1.422 . S
C160 H151 0.929 1_455 S
C160 N158 1.338 . S
C160 C162 1.378 . S
C161 H156 0.931 . S
C161 C162 1.348 . S
C161 C163 1.413 . S
C162 H157 0.930 1_455 S
C162 C160 1.378 . S
C162 C161 1.348 . S
C163 C159 1.415 . S
C163 C161 1.413 . S
C163 C193 1.437 . S
H164 C193 0.929 . S
N165 Gd138 2.570 . S
N165 C166 1.359 . S
N165 C169 1.343 . S
C166 C159 1.422 . S
C166 N165 1.359 . S
C166 C168 1.421 . S
C167 C168 1.422 . S
C167 C170 1.321 . S
C167 H194 0.931 . S
C168 C166 1.421 . S
C168 C167 1.422 . S
C168 C192 1.417 . S
C169 H146 0.931 . S
C169 N165 1.343 . S
C169 C170 1.390 . S
C170 H148 0.930 . S
C170 C167 1.321 . S
C170 C169 1.390 . S
O171 Gd139 2.386 . S
O171 C183 1.265 . S
O172 Gd138 2.353 1_645 S
O172 C183 1.242 . S
O173 Gd138 2.468 . S
O173 C191 1.263 . S
O174 Gd138 2.427 . S
O174 C191 1.252 . S
O175 Gd139 2.307 1_565 S
O175 C184 1.261 . S
O176 Gd138 2.388 1_655 S
O176 C184 1.252 . S
O177 Gd138 2.386 . S
O177 C195 1.265 . S
O178 Gd139 2.353 1_455 S
O178 C195 1.242 1_545 S
O179 Gd139 2.468 . S
O179 C203 1.263 . S
O180 Gd139 2.427 . S
O180 C203 1.252 . S
O181 Gd138 2.307 1_545 S
O181 C196 1.261 . S
O182 Gd139 2.388 1_455 S
O182 C196 1.252 . S
C183 O171 1.265 . S
C183 O172 1.242 . S
C184 O175 1.261 . S
C184 O176 1.252 . S
C185 C188 1.394 . S
C185 C190 1.370 . S
C185 C191 1.500 . S
C186 C189 1.383 . S
C186 C190 1.395 . S
C187 C188 1.396 . S
C187 C189 1.365 . S
C187 H204 0.929 . S
C188 C185 1.394 . S
C188 C187 1.396 . S
C188 H205 0.930 . S
C189 C186 1.383 . S
C189 C187 1.365 . S
C189 H206 0.931 . S
C190 C185 1.370 . S
C190 C186 1.395 . S
C190 H207 0.930 . S
C191 Gd138 2.805 . S
C191 O173 1.263 . S
C191 O174 1.252 . S
C191 C185 1.500 . S
C192 H154 0.930 . S
C192 C168 1.417 . S
C192 C193 1.329 . S
C193 C163 1.437 . S
C193 H164 0.929 . S
C193 C192 1.329 . S
H194 C167 0.931 . S
C195 O177 1.265 . S
C195 O178 1.242 1_565 S
C196 O181 1.261 . S
C196 O182 1.252 . S
C197 C200 1.394 . S
C197 C202 1.370 . S
C197 C203 1.500 . S
C198 C201 1.383 . S
C198 C202 1.395 . S
C199 C200 1.396 . S
C199 C201 1.365 . S
C199 H208 0.929 . S
C200 C197 1.394 . S
C200 C199 1.396 . S
C200 H209 0.930 . S
C201 C198 1.383 . S
C201 C199 1.365 . S
C201 H210 0.931 . S
C202 C197 1.370 . S
C202 C198 1.395 . S
C202 H211 0.930 . S
C203 Gd139 2.805 . S
C203 O179 1.263 . S
C203 O180 1.252 . S
C203 C197 1.500 . S
H204 C187 0.929 . S
H205 C188 0.930 . S
H206 C189 0.931 . S
H207 C190 0.930 . S
H208 C199 0.929 . S
H209 C200 0.930 . S
H210 C201 0.931 . S
H211 C202 0.930 . S
C212 C214 1.422 . S
C212 C216 1.415 . S
C212 N218 1.369 . S
C213 C214 1.421 . S
C213 C215 1.417 . S
C213 C225 1.422 . S
C214 C212 1.422 . S
C214 C213 1.421 . S
C214 N224 1.359 . S
C215 C213 1.417 . S
C215 C217 1.329 . S
C215 H234 0.930 . S
C216 C212 1.415 . S
C216 C217 1.437 . S
C216 C220 1.413 . S
C217 C215 1.329 . S
C217 C216 1.437 . S
C217 H239 0.929 . S
N218 C212 1.369 . S
N218 C219 1.338 . S
N218 Gd223 2.622 . S
C219 N218 1.338 . S
C219 C221 1.378 . S
C219 H231 0.929 . S
C220 C216 1.413 . S
C220 C221 1.348 . S
C220 H236 0.931 . S
C221 C219 1.378 . S
C221 C220 1.348 . S
C221 H237 0.930 . S
Gd222 N242 2.622 . S
Gd222 N249 2.570 . S
Gd222 O256 2.353 1_554 S
Gd222 O257 2.468 1_554 S
Gd222 O258 2.427 1_554 S
Gd222 O260 2.388 . S
Gd222 O261 2.386 . S
Gd222 O265 2.307 . S
Gd222 C275 2.805 1_554 S
Gd223 N218 2.622 . S
Gd223 N224 2.570 . S
Gd223 O255 2.386 . S
Gd223 O259 2.307 . S
Gd223 O262 2.353 . S
Gd223 O263 2.468 . S
Gd223 O264 2.427 . S
Gd223 O266 2.388 . S
Gd223 C287 2.805 . S
N224 C214 1.359 . S
N224 Gd223 2.570 . S
N224 C226 1.343 . S
C225 C213 1.422 . S
C225 C227 1.321 . S
C225 H233 0.931 . S
C226 N224 1.343 . S
C226 C227 1.390 . S
C226 H228 0.931 . S
C227 C225 1.321 . S
C227 C226 1.390 . S
C227 H229 0.930 . S
H228 C226 0.931 . S
H229 C227 0.930 . S
H230 C253 0.931 . S
H231 C219 0.929 . S
H232 C254 0.930 . S
H233 C225 0.931 . S
H234 C215 0.930 . S
H235 C244 0.929 . S
H236 C220 0.931 . S
H237 C221 0.930 . S
H238 C276 0.930 . S
H239 C217 0.929 . S
H240 C245 0.931 . S
H241 C246 0.930 . S
N242 Gd222 2.622 . S
N242 C243 1.369 . S
N242 C244 1.338 1_554 S
C243 N242 1.369 . S
C243 C247 1.415 . S
C243 C250 1.422 . S
C244 H235 0.929 . S
C244 N242 1.338 1_556 S
C244 C246 1.378 . S
C245 H240 0.931 . S
C245 C246 1.348 1_554 S
C245 C247 1.413 . S
C246 H241 0.930 . S
C246 C244 1.378 . S
C246 C245 1.348 1_556 S
C247 C243 1.415 . S
C247 C245 1.413 . S
C247 C277 1.437 . S
H248 C277 0.929 . S
N249 Gd222 2.570 . S
N249 C250 1.359 . S
N249 C253 1.343 . S
C250 C243 1.422 . S
C250 N249 1.359 . S
C250 C252 1.421 . S
C251 C252 1.422 . S
C251 C254 1.321 . S
C251 H278 0.931 . S
C252 C250 1.421 . S
C252 C251 1.422 . S
C252 C276 1.417 . S
C253 H230 0.931 . S
C253 N249 1.343 . S
C253 C254 1.390 . S
C254 H232 0.930 . S
C254 C251 1.321 . S
C254 C253 1.390 . S
O255 Gd223 2.386 . S
O255 C267 1.265 1_554 S
O256 Gd222 2.353 1_556 S
O256 C267 1.242 . S
O257 Gd222 2.468 1_556 S
O257 C275 1.263 . S
O258 Gd222 2.427 1_556 S
O258 C275 1.252 . S
O259 Gd223 2.307 . S
O259 C268 1.261 . S
O260 Gd222 2.388 . S
O260 C268 1.252 . S
O261 Gd222 2.386 . S
O261 C279 1.265 . S
O262 Gd223 2.353 . S
O262 C279 1.242 . S
O263 Gd223 2.468 . S
O263 C287 1.263 . S
O264 Gd223 2.427 . S
O264 C287 1.252 . S
O265 Gd222 2.307 . S
O265 C280 1.261 . S
O266 Gd223 2.388 . S
O266 C280 1.252 . S
C267 O255 1.265 1_556 S
C267 O256 1.242 . S
C268 O259 1.261 . S
C268 O260 1.252 . S
C269 C272 1.394 . S
C269 C274 1.370 . S
C269 C275 1.500 . S
C270 C273 1.383 . S
C270 C274 1.395 . S
C271 C272 1.396 . S
C271 C273 1.365 . S
C271 H288 0.929 . S
C272 C269 1.394 . S
C272 C271 1.396 . S
C272 H289 0.930 . S
C273 C270 1.383 . S
C273 C271 1.365 . S
C273 H290 0.931 . S
C274 C269 1.370 . S
C274 C270 1.395 . S
C274 H291 0.930 . S
C275 Gd222 2.805 1_556 S
C275 O257 1.263 . S
C275 O258 1.252 . S
C275 C269 1.500 . S
C276 H238 0.930 . S
C276 C252 1.417 . S
C276 C277 1.329 . S
C277 C247 1.437 . S
C277 H248 0.929 . S
C277 C276 1.329 . S
H278 C251 0.931 . S
C279 O261 1.265 . S
C279 O262 1.242 . S
C280 O265 1.261 . S
C280 O266 1.252 . S
C281 C284 1.394 . S
C281 C286 1.370 . S
C281 C287 1.500 . S
C282 C285 1.383 . S
C282 C286 1.395 . S
C283 C284 1.396 . S
C283 C285 1.365 . S
C283 H292 0.929 . S
C284 C281 1.394 . S
C284 C283 1.396 . S
C284 H293 0.930 . S
C285 C282 1.383 . S
C285 C283 1.365 . S
C285 H294 0.931 . S
C286 C281 1.370 . S
C286 C282 1.395 . S
C286 H295 0.930 . S
C287 Gd223 2.805 . S
C287 O263 1.263 . S
C287 O264 1.252 . S
C287 C281 1.500 . S
H288 C271 0.929 . S
H289 C272 0.930 . S
H290 C273 0.931 . S
H291 C274 0.930 . S
H292 C283 0.929 . S
H293 C284 0.930 . S
H294 C285 0.931 . S
H295 C286 0.930 . S
C196 C119 2.020 . S
C23 C268 2.073 . S
C55 C184 1.840 . S
C87 C280 1.734 . S
C186 C17 1.561 . S
C267 C61 1.694 . S
C93 C183 1.750 . S
C113 C270 1.552 . S
C282 C49 1.287 . S
C198 C81 1.257 . S
C279 C125 1.913 . S
C29 C195 2.192 . S
