# Generated by pormake.
# Topology pyr, (3,6)-cn, num edge types: 1
# Building blocks:
#     Node 0, Type 0, BuildingBlock: BETDIP_clean_linker_0, # of connection points: 3
#     Node 1, Type 0, BuildingBlock: BETDIP_clean_linker_0, # of connection points: 3
#     Node 2, Type 0, BuildingBlock: BETDIP_clean_linker_0, # of connection points: 3
#     Node 3, Type 0, BuildingBlock: BETDIP_clean_linker_0, # of connection points: 3
#     Node 4, Type 0, BuildingBlock: BETDIP_clean_linker_0, # of connection points: 3
#     Node 5, Type 0, BuildingBlock: BETDIP_clean_linker_0, # of connection points: 3
#     Node 6, Type 0, BuildingBlock: BETDIP_clean_linker_0, # of connection points: 3
#     Node 7, Type 0, BuildingBlock: BETDIP_clean_linker_0, # of connection points: 3
#     Node 8, Type 1, BuildingBlock: JUFBIX_clean_sbu_0, # of connection points: 6
#     Node 9, Type 1, BuildingBlock: JUFBIX_clean_sbu_0, # of connection points: 6
#     Node 10, Type 1, BuildingBlock: JUFBIX_clean_sbu_0, # of connection points: 6
#     Node 11, Type 1, BuildingBlock: JUFBIX_clean_sbu_0, # of connection points: 6
#     Edge 12, Type (0, 1), BuildingBlock: KIFKEQ_clean_linker_1, # of connection points: 2
#     Edge 13, Type (0, 1), BuildingBlock: KIFKEQ_clean_linker_1, # of connection points: 2
#     Edge 14, Type (0, 1), BuildingBlock: KIFKEQ_clean_linker_1, # of connection points: 2
#     Edge 15, Type (0, 1), BuildingBlock: KIFKEQ_clean_linker_1, # of connection points: 2
#     Edge 16, Type (0, 1), BuildingBlock: KIFKEQ_clean_linker_1, # of connection points: 2
#     Edge 17, Type (0, 1), BuildingBlock: KIFKEQ_clean_linker_1, # of connection points: 2
#     Edge 18, Type (0, 1), BuildingBlock: KIFKEQ_clean_linker_1, # of connection points: 2
#     Edge 19, Type (0, 1), BuildingBlock: KIFKEQ_clean_linker_1, # of connection points: 2
#     Edge 20, Type (0, 1), BuildingBlock: KIFKEQ_clean_linker_1, # of connection points: 2
#     Edge 21, Type (0, 1), BuildingBlock: KIFKEQ_clean_linker_1, # of connection points: 2
#     Edge 22, Type (0, 1), BuildingBlock: KIFKEQ_clean_linker_1, # of connection points: 2
#     Edge 23, Type (0, 1), BuildingBlock: KIFKEQ_clean_linker_1, # of connection points: 2
#     Edge 24, Type (0, 1), BuildingBlock: KIFKEQ_clean_linker_1, # of connection points: 2
#     Edge 25, Type (0, 1), BuildingBlock: KIFKEQ_clean_linker_1, # of connection points: 2
#     Edge 26, Type (0, 1), BuildingBlock: KIFKEQ_clean_linker_1, # of connection points: 2
#     Edge 27, Type (0, 1), BuildingBlock: KIFKEQ_clean_linker_1, # of connection points: 2
#     Edge 28, Type (0, 1), BuildingBlock: KIFKEQ_clean_linker_1, # of connection points: 2
#     Edge 29, Type (0, 1), BuildingBlock: KIFKEQ_clean_linker_1, # of connection points: 2
#     Edge 30, Type (0, 1), BuildingBlock: KIFKEQ_clean_linker_1, # of connection points: 2
#     Edge 31, Type (0, 1), BuildingBlock: KIFKEQ_clean_linker_1, # of connection points: 2
#     Edge 32, Type (0, 1), BuildingBlock: KIFKEQ_clean_linker_1, # of connection points: 2
#     Edge 33, Type (0, 1), BuildingBlock: KIFKEQ_clean_linker_1, # of connection points: 2
#     Edge 34, Type (0, 1), BuildingBlock: KIFKEQ_clean_linker_1, # of connection points: 2
#     Edge 35, Type (0, 1), BuildingBlock: KIFKEQ_clean_linker_1, # of connection points: 2
# Relax obj value: 0.159
# Max RMSD: 0.200
# Mean RMSD: 0.129
data_MOF--net-pry--node1-JUFBIX_clean_sbu_0--node2-BETDIP_clean_linker_0--edge1-KIFKEQ_clean_linker_1
_symmetry_space_group_name_H-M    P1
_symmetry_Int_Tables_number       1
_symmetry_cell_setting            triclinic
loop_
_symmetry_equiv_pos_as_xyz
'x, y, z'
_cell_length_a     37.160353
_cell_length_b     34.715053
_cell_length_c     38.390282
_cell_angle_alpha  85.903796
_cell_angle_beta   84.835532
_cell_angle_gamma 97.115842
loop_
_atom_site_label
_atom_site_type_symbol
_atom_site_fract_x
_atom_site_fract_y
_atom_site_fract_z
_atom_type_partial_charge
H0 H 0.15763 0.18245 0.24567 0.0
H1 H 0.24096 0.19332 0.1597 0.0
H2 H 0.23771 0.10268 0.24318 0.0
H3 H 0.21897 0.24704 0.14252 0.0
C4 C 0.19203 0.2476 0.15575 0.0
C5 C 0.18125 0.17186 0.23292 0.0
C6 C 0.19554 0.14001 0.2488 0.0
C7 C 0.19693 0.19098 0.20084 0.0
C8 C 0.22835 0.17847 0.18424 0.0
C9 C 0.24381 0.14673 0.19936 0.0
C10 C 0.22701 0.12777 0.23176 0.0
N11 N 0.17934 0.22186 0.18617 0.0
H12 H 0.44206 0.94981 0.67493 0.0
H13 H 0.44081 0.8629 0.60084 0.0
H14 H 0.49134 0.84584 0.69611 0.0
H15 H 0.40124 0.89436 0.57572 0.0
C16 C 0.39617 0.9198 0.58926 0.0
C17 C 0.45015 0.92256 0.66691 0.0
C18 C 0.46829 0.89965 0.68937 0.0
C19 C 0.43967 0.90953 0.63528 0.0
C20 C 0.44875 0.87356 0.62514 0.0
C21 C 0.4675 0.85043 0.64695 0.0
C22 C 0.477 0.86358 0.67913 0.0
N23 N 0.41769 0.93231 0.61613 0.0
H24 H 0.75914 0.43499 0.85645 0.0
H25 H 0.66645 0.34731 0.85687 0.0
H26 H 0.7382 0.34135 0.93824 0.0
H27 H 0.68062 0.3596 0.79795 0.0
C28 C 0.68406 0.39126 0.79574 0.0
C29 C 0.74253 0.40875 0.86851 0.0
C30 C 0.75248 0.38965 0.89908 0.0
C31 C 0.7121 0.39305 0.85252 0.0
C32 C 0.69047 0.3591 0.86848 0.0
C33 C 0.69965 0.34004 0.89933 0.0
C34 C 0.73093 0.35545 0.91424 0.0
N35 N 0.70353 0.41172 0.82056 0.0
H36 H 0.94426 0.56444 0.45599 0.0
H37 H 0.03721 0.6496 0.46284 0.0
H38 H 0.93159 0.6667 0.51007 0.0
H39 H 0.99054 0.52395 0.44471 0.0
C40 C 1.00533 0.54602 0.42536 0.0
C41 C 0.95628 0.59103 0.46581 0.0
C42 C 0.93359 0.61355 0.4845 0.0
C43 C 0.99381 0.60372 0.45824 0.0
C44 C 1.00857 0.63912 0.46975 0.0
C45 C 0.98639 0.66159 0.48912 0.0
C46 C 0.94906 0.64836 0.49679 0.0
N47 N 1.01634 0.58375 0.43584 0.0
H48 H 0.80204 0.85228 0.93544 0.0
H49 H 0.8861 0.8564 0.85113 0.0
H50 H 0.80859 0.9387 0.84756 0.0
H51 H 0.91839 0.83847 0.89613 0.0
C52 C 0.89886 0.81662 0.91171 0.0
C53 C 0.81517 0.86611 0.91057 0.0
C54 C 0.80076 0.89731 0.89342 0.0
C55 C 0.84677 0.85244 0.89628 0.0
C56 C 0.86321 0.86872 0.86322 0.0
C57 C 0.84981 0.89987 0.84511 0.0
C58 C 0.8185 0.914 0.86059 0.0
N59 N 0.86132 0.82213 0.91552 0.0
H60 H 0.62227 0.10451 0.40986 0.0
H61 H 0.61787 0.18962 0.48536 0.0
H62 H 0.57265 0.20764 0.3869 0.0
H63 H 0.66391 0.16263 0.50605 0.0
C64 C 0.66522 0.13423 0.49628 0.0
C65 C 0.61383 0.13169 0.41771 0.0
C66 C 0.59647 0.15457 0.39465 0.0
C67 C 0.622 0.14415 0.45017 0.0
C68 C 0.61164 0.17961 0.46029 0.0
C69 C 0.59365 0.20274 0.43766 0.0
C70 C 0.58601 0.18989 0.40481 0.0
N71 N 0.64234 0.12093 0.47072 0.0
H72 H 0.29697 0.61318 0.23135 0.0
H73 H 0.38983 0.70129 0.22832 0.0
H74 H 0.31548 0.70692 0.14941 0.0
H75 H 0.37669 0.68997 0.28769 0.0
C76 C 0.37342 0.65832 0.29023 0.0
C77 C 0.31321 0.63947 0.21893 0.0
C78 C 0.30257 0.65816 0.18846 0.0
C79 C 0.34391 0.65565 0.23432 0.0
C80 C 0.36506 0.68962 0.21783 0.0
C81 C 0.35511 0.70817 0.18716 0.0
C82 C 0.32366 0.69242 0.17283 0.0
N83 N 0.35334 0.63738 0.26609 0.0
H84 H 0.02916 0.38082 0.6238 0.0
H85 H 0.12617 0.46317 0.61764 0.0
H86 H 0.12511 0.36143 0.55986 0.0
H87 H 1.02076 0.40079 0.67766 0.0
C88 C 0.03669 0.42891 0.67911 0.0
C89 C 0.05698 0.39054 0.61305 0.0
C90 C 0.07456 0.36761 0.58993 0.0
C91 C 0.07566 0.42522 0.62284 0.0
C92 C 0.11153 0.43742 0.60853 0.0
C93 C 0.1299 0.41431 0.58627 0.0
C94 C 0.11088 0.37992 0.57636 0.0
N95 N 0.06114 0.44616 0.65003 0.0
Co96 Co 0.99908 0.01357 0.53333 0.0
C97 C 0.02569 0.94207 0.53604 0.0
Co98 Co 0.04988 0.01342 0.55872 0.0
C99 C 0.92681 0.02914 0.52186 0.0
C100 C 0.94849 0.99473 0.48299 0.0
N101 N 0.9566 0.01255 0.51186 0.0
N102 N 0.90027 0.02244 0.50037 0.0
C103 C 0.91391 1.00069 0.47587 0.0
H104 H 0.92498 0.04624 0.54428 0.0
H105 H 0.96654 0.97834 0.46814 0.0
C106 C 1.02344 0.08495 0.55582 0.0
N107 N 0.09227 0.0146 0.58037 0.0
C108 C 0.12308 1.0 0.56991 0.0
C109 C 0.09915 0.03123 0.61015 0.0
N110 N 0.14902 0.00684 0.59201 0.0
C111 C 0.13397 0.02653 0.61737 0.0
C112 C 0.06173 0.03314 0.48625 0.0
O113 O 0.99827 0.06727 0.54038 0.0
O114 O 0.0486 0.06657 0.56593 0.0
O115 O 0.07781 0.02838 0.51387 0.0
O116 O 0.02705 0.02798 0.48888 0.0
O117 O 0.05085 0.95975 0.55153 0.0
H118 H 0.08014 0.0461 0.62547 0.0
H119 H 0.12616 0.98435 0.54667 0.0
O120 O 1.00035 0.96036 0.52615 0.0
O121 O 0.97113 0.99882 0.57815 0.0
O122 O 1.02181 0.99891 0.60317 0.0
C123 C 0.98714 0.99406 0.6058 0.0
H124 H 0.89986 0.98944 0.45451 0.0
H125 H 0.14729 0.03743 0.63929 0.0
Co126 Co 0.50801 0.02191 1.01993 0.0
C127 C 0.49498 0.96003 0.0721 0.0
Co128 Co 0.53799 0.03089 0.06648 0.0
C129 C 0.49352 0.00635 0.94896 0.0
C130 C 0.44468 1.00461 0.9834 0.0
N131 N 0.48128 0.01233 0.98211 0.0
N132 N 0.46607 0.99462 0.92977 0.0
C133 C 0.43527 0.99386 0.95135 0.0
H134 H 0.5221 0.00838 0.93965 0.0
H135 H 0.42597 1.00492 1.00661 0.0
C136 C 0.5513 0.09271 1.01435 0.0
N137 N 0.56479 0.04016 0.10438 0.0
C138 C 0.55284 0.04683 0.13744 0.0
C139 C 0.60146 0.04403 0.10385 0.0
N140 N 0.58057 0.05445 0.15736 0.0
C141 C 0.61118 0.05251 0.13639 0.0
C142 C 0.57654 0.99627 1.01317 0.0
O143 O 0.52884 0.07173 0.99816 0.0
O144 O 0.55846 0.08024 0.04456 0.0
O145 O 0.57753 0.00797 0.04374 0.0
O146 O 0.54799 0.99898 0.99772 0.0
O147 O 0.51733 0.98121 0.08819 0.0
H148 H 0.62023 0.04211 0.08104 0.0
H149 H 0.52444 0.04654 0.14675 0.0
O150 O 0.48757 0.97242 0.04195 0.0
O151 O 0.46833 0.0448 0.04264 0.0
O152 O 0.49799 0.05373 0.08866 0.0
C153 C 0.46937 0.0564 0.07328 0.0
H154 H 0.40789 0.98508 0.94483 0.0
H155 H 0.63868 0.05845 0.14366 0.0
Co156 Co 0.55717 0.54061 0.52948 0.0
C157 C 0.49969 0.54527 0.48808 0.0
Co158 Co 0.50411 0.51239 0.55533 0.0
C159 C 0.63481 0.55657 0.51124 0.0
C160 C 0.60631 0.59998 0.4877 0.0
N161 N 0.60108 0.56619 0.50821 0.0
N162 N 0.66093 0.58309 0.49352 0.0
C163 C 0.64305 0.61038 0.47854 0.0
H164 H 0.64008 0.5307 0.52635 0.0
H165 H 0.58485 0.61649 0.48055 0.0
C166 C 0.56158 0.50767 0.59674 0.0
N167 N 0.46029 0.48639 0.57653 0.0
C168 C 0.42612 0.49365 0.57178 0.0
C169 C 0.45593 0.4528 0.59726 0.0
N170 N 0.40059 0.46569 0.58846 0.0
C171 C 0.41938 0.44007 0.60467 0.0
C172 C 0.54371 0.46348 0.51705 0.0
O173 O 0.5802 0.52661 0.57021 0.0
O174 O 0.5275 0.4987 0.59581 0.0
O175 O 0.51445 0.46576 0.53615 0.0
O176 O 0.5672 0.4936 0.51031 0.0
O177 O 0.48118 0.52625 0.51463 0.0
H178 H 0.47793 0.43755 0.60517 0.0
H179 H 0.42021 0.51846 0.55562 0.0
O180 O 0.53376 0.55447 0.48897 0.0
O181 O 0.54686 0.58727 0.54874 0.0
O182 O 0.49398 0.55937 0.57442 0.0
C183 C 0.51748 0.58951 0.56773 0.0
H184 H 0.65565 0.63666 0.46306 0.0
H185 H 0.40773 0.41295 0.61935 0.0
Co186 Co 0.04457 0.52353 1.0183 0.0
C187 C 0.97251 0.4871 1.01975 0.0
Co188 Co 1.01117 0.52328 0.06877 0.0
C189 C 0.06265 0.50088 0.94902 0.0
C190 C 0.09586 0.55308 0.95871 0.0
N191 N 0.07028 0.52467 0.97443 0.0
N192 N 0.08153 0.51382 0.91787 0.0
C193 C 0.10289 0.54644 0.92396 0.0
H194 H 0.04227 0.47547 0.95283 0.0
H195 H 0.10683 0.57844 0.97103 0.0
C196 C 0.08299 0.55975 0.06763 0.0
N197 N 0.98553 0.52275 0.11237 0.0
C198 C 0.99925 0.519 0.14359 0.0
C199 C 0.95046 0.52792 0.12026 0.0
N200 N 0.97437 0.52202 0.17075 0.0
C201 C 0.94349 0.52741 0.15619 0.0
C202 C 0.05111 0.45957 0.06325 0.0
O203 O 0.08617 0.55006 0.03631 0.0
O204 O 0.05221 0.55204 0.08562 0.0
O205 O 0.02918 0.47543 0.08344 0.0
O206 O 0.06061 0.47531 0.03229 0.0
O207 O 0.97003 0.49482 0.05166 0.0
H208 H 0.93148 0.5327 0.10111 0.0
H209 H 0.0272 0.51447 0.14626 0.0
O210 O 1.00266 0.49681 1.00105 0.0
O211 O 0.02837 0.57198 1.00432 0.0
O212 O 0.99366 0.57092 0.0537 0.0
C213 C 1.00511 0.58732 1.02333 0.0
H214 H 0.12027 0.56569 0.9042 0.0
H215 H 0.91807 0.53209 0.17033 0.0
H216 H 0.12213 0.12619 0.27002 0.0
H217 H 0.22622 0.10773 0.30539 0.0
H218 H 0.09186 0.10014 0.32657 0.0
H219 H 0.19539 0.07836 0.36161 0.0
H220 H 0.13287 0.06738 0.47216 0.0
H221 H 0.16574 0.0905 0.41508 0.0
H222 H 0.07159 0.04653 0.36429 0.0
H223 H 0.03841 0.02572 0.4213 0.0
C224 C 0.13873 0.11641 0.28981 0.0
C225 C 0.17693 0.1199 0.28292 0.0
C226 C 0.12111 0.10062 0.32239 0.0
C227 C 0.14085 0.08682 0.34925 0.0
C228 C 0.17904 0.08915 0.34206 0.0
C229 C 0.1968 0.10553 0.30945 0.0
C230 C 0.11928 0.06267 0.44873 0.0
C231 C 0.08283 0.04505 0.45141 0.0
C232 C 0.13825 0.07571 0.41581 0.0
C233 C 0.12151 0.07094 0.38454 0.0
C234 C 0.08538 0.05199 0.38745 0.0
C235 C 0.06627 0.03966 0.4203 0.0
H236 H 0.45717 0.85536 0.75205 0.0
H237 H 0.49405 0.97254 0.70643 0.0
H238 H 0.46069 0.87762 0.81059 0.0
H239 H 0.49635 0.99507 0.76506 0.0
H240 H 0.52062 0.01662 0.87761 0.0
H241 H 0.52645 0.99188 0.81958 0.0
H242 H 0.42407 0.91741 0.84547 0.0
H243 H 0.41888 0.94101 0.90349 0.0
C244 C 0.46664 0.88574 0.7545 0.0
C245 C 0.47511 0.91224 0.72461 0.0
C246 C 0.46821 0.89859 0.78805 0.0
C247 C 0.47832 0.9382 0.79246 0.0
C248 C 0.48857 0.96436 0.76256 0.0
C249 C 0.48695 0.95151 0.72899 0.0
C250 C 0.49954 0.99476 0.87096 0.0
C251 C 0.46922 0.98095 0.89517 0.0
C252 C 0.50276 0.98078 0.83767 0.0
C253 C 0.47582 0.95253 0.82801 0.0
C254 C 0.44558 0.93873 0.85226 0.0
C255 C 0.44232 0.95276 0.88539 0.0
H256 H 0.6386 0.35739 0.75291 0.0
H257 H 0.69148 0.4699 0.77424 0.0
H258 H 0.609 0.38809 0.70613 0.0
H259 H 0.66184 0.50086 0.72693 0.0
H260 H 0.63258 0.52688 0.61031 0.0
H261 H 0.66261 0.50137 0.65962 0.0
H262 H 0.56113 0.43307 0.70214 0.0
H263 H 0.5311 0.45843 0.65318 0.0
C264 C 0.64388 0.38875 0.74752 0.0
C265 C 0.66721 0.41124 0.76724 0.0
C266 C 0.62679 0.40635 0.72088 0.0
C267 C 0.63289 0.44691 0.71302 0.0
C268 C 0.65672 0.46951 0.73238 0.0
C269 C 0.67355 0.45185 0.75949 0.0
C270 C 0.61662 0.50668 0.63035 0.0
C271 C 0.57946 0.49454 0.6277 0.0
C272 C 0.63379 0.49225 0.65865 0.0
C273 C 0.61427 0.46504 0.6846 0.0
C274 C 0.57698 0.45366 0.68233 0.0
C275 C 0.55974 0.46835 0.65432 0.0
H276 H 0.97231 0.48308 0.39744 0.0
H277 H 0.03698 0.59481 0.36856 0.0
H278 H 0.96629 0.47441 0.33543 0.0
H279 H 0.03062 0.58647 0.30681 0.0
H280 H 0.03804 0.54451 0.19744 0.0
H281 H 0.04813 0.54697 0.25906 0.0
H282 H 0.93449 0.50454 0.2888 0.0
H283 H 0.92461 0.50094 0.22702 0.0
C284 C 0.9855 0.50557 0.37777 0.0
C285 C 1.00498 0.5396 0.38775 0.0
C286 C 0.98183 0.50077 0.34236 0.0
C287 C 0.99779 0.52986 0.31625 0.0
C288 C 1.01827 0.56338 0.32626 0.0
C289 C 1.02178 0.56824 0.36166 0.0
C290 C 1.0153 0.53511 0.21707 0.0
C291 C 0.98048 0.52246 0.20728 0.0
C292 C 1.02103 0.53693 0.2524 0.0
C293 C 0.99212 0.52603 0.2788 0.0
C294 C 0.95742 0.51278 0.26908 0.0
C295 C 0.95164 0.51112 0.2337 0.0
H296 H 0.26238 0.14529 0.12819 0.0
H297 H 0.30132 0.11724 0.2284 0.0
H298 H 0.31685 0.12617 0.09837 0.0
H299 H 0.35474 0.09531 0.1985 0.0
H300 H 0.4644 0.09145 0.13534 0.0
H301 H 0.41098 0.11365 0.16536 0.0
H302 H 0.34674 0.07427 0.08319 0.0
H303 H 0.40043 0.05381 0.05264 0.0
C304 C 0.2825 0.13508 0.14404 0.0
C305 C 0.27709 0.13327 0.18098 0.0
C306 C 0.31375 0.12338 0.12677 0.0
C307 C 0.34068 0.10888 0.14573 0.0
C308 C 0.33516 0.10674 0.1827 0.0
C309 C 0.304 0.11883 0.2 0.0
C310 C 0.43891 0.0878 0.12357 0.0
C311 C 0.43695 0.07099 0.09137 0.0
C312 C 0.40801 0.10025 0.141 0.0
C313 C 0.37403 0.09593 0.12699 0.0
C314 C 0.37226 0.079 0.09475 0.0
C315 C 0.4032 0.06696 0.07717 0.0
H316 H 0.3423 0.89432 0.54978 0.0
H317 H 0.37344 0.98363 0.61816 0.0
H318 H 0.28262 0.91705 0.54786 0.0
H319 H 0.31432 0.00644 0.61596 0.0
H320 H 0.19121 0.9962 0.64495 0.0
H321 H 0.2524 0.97813 0.64061 0.0
H322 H 0.25052 0.97298 0.52872 0.0
H323 H 0.18913 0.99162 0.53292 0.0
C324 C 0.33657 0.91917 0.56389 0.0
C325 C 0.36227 0.93686 0.58442 0.0
C326 C 0.30252 0.93222 0.56273 0.0
C327 C 0.29366 0.96317 0.58217 0.0
C328 C 0.32012 0.98202 0.6013 0.0
C329 C 0.35407 0.96903 0.60241 0.0
C330 C 0.20387 0.99174 0.61932 0.0
C331 C 0.18519 0.9956 0.58928 0.0
C332 C 0.23901 0.98136 0.61684 0.0
C333 C 0.25638 0.97445 0.58427 0.0
C334 C 0.2377 0.97788 0.55421 0.0
C335 C 0.20249 0.98846 0.55667 0.0
H336 H 0.80867 0.35016 0.91413 0.0
H337 H 0.77079 0.4622 0.92089 0.0
H338 H 0.86205 0.37281 0.94379 0.0
H339 H 0.82401 0.48475 0.95123 0.0
H340 H 0.90052 0.48692 0.04236 0.0
H341 H 0.84752 0.46412 1.01214 0.0
H342 H 0.91864 0.42644 0.92985 0.0
H343 H 0.97162 0.44978 0.95957 0.0
C344 C 0.8119 0.37968 0.92192 0.0
C345 C 0.78573 0.4045 0.91522 0.0
C346 C 0.84241 0.39263 0.93879 0.0
C347 C 0.84702 0.43043 0.94994 0.0
C348 C 0.82092 0.45535 0.94314 0.0
C349 C 0.79071 0.44262 0.92558 0.0
C350 C 0.9048 0.47342 1.01801 0.0
C351 C 0.94024 0.47001 1.00342 0.0
C352 C 0.87452 0.46073 1.00058 0.0
C353 C 0.87904 0.4437 0.9686 0.0
C354 C 0.91438 0.43936 0.95451 0.0
C355 C 0.94467 0.45272 0.97154 0.0
H356 H 0.8845 0.61652 0.54175 0.0
H357 H 0.89172 0.58825 0.43376 0.0
H358 H 0.81796 0.60601 0.54431 0.0
H359 H 0.82554 0.57663 0.43667 0.0
H360 H 0.71142 0.61517 0.44105 0.0
H361 H 0.77739 0.61901 0.44012 0.0
H362 H 0.76485 0.55529 0.54225 0.0
H363 H 0.69869 0.55236 0.54356 0.0
C364 C 0.87188 0.60762 0.51874 0.0
C365 C 0.89337 0.60322 0.48758 0.0
C366 C 0.83383 0.6013 0.52028 0.0
C367 C 0.81655 0.59071 0.49061 0.0
C368 C 0.83807 0.58521 0.45983 0.0
C369 C 0.87601 0.59139 0.45832 0.0
C370 C 0.72272 0.60208 0.46333 0.0
C371 C 0.69983 0.58354 0.49238 0.0
C372 C 0.7605 0.6039 0.46266 0.0
C373 C 0.77631 0.58735 0.49109 0.0
C374 C 0.75345 0.56851 0.52006 0.0
C375 C 0.71558 0.56649 0.52064 0.0
H376 H 0.12165 0.25812 0.17908 0.0
H377 H 0.21155 0.30395 0.10235 0.0
H378 H 0.08558 0.3067 0.15629 0.0
H379 H 0.17608 0.35328 0.08015 0.0
H380 H 0.0944 0.41556 1.02572 0.0
H381 H 0.12628 0.36311 0.04776 0.0
H382 H 0.0795 0.37439 0.15313 0.0
H383 H 0.04673 0.42615 0.13082 0.0
C384 C 0.13381 0.2787 0.15744 0.0
C385 C 0.16954 0.27716 0.1425 0.0
C386 C 0.11315 0.30678 0.14444 0.0
C387 C 0.12769 0.33412 0.11621 0.0
C388 C 0.16353 0.33243 0.10143 0.0
C389 C 0.18407 0.3043 0.11433 0.0
C390 C 0.09058 0.40661 0.05356 0.0
C391 C 0.06793 0.42521 0.07644 0.0
C392 C 0.10919 0.37666 0.06631 0.0
C393 C 0.10596 0.36453 0.1024 0.0
C394 C 0.08251 0.3825 0.12517 0.0
C395 C 0.06372 0.41235 0.11236 0.0
H396 H 0.62495 0.32347 0.90655 0.0
H397 H 0.72257 0.27448 0.92921 0.0
H398 H 0.58781 0.26409 0.93362 0.0
H399 H 0.68534 0.21574 0.95699 0.0
H400 H 0.60663 0.13859 0.03902 0.0
H401 H 0.64132 0.19846 1.01086 0.0
H402 H 0.57538 0.19208 0.92391 0.0
H403 H 0.54033 0.13176 0.95217 0.0
C404 C 0.63854 0.3 0.91704 0.0
C405 C 0.67682 0.30388 0.91577 0.0
C406 C 0.61721 0.26603 0.9326 0.0
C407 C 0.63367 0.2354 0.94755 0.0
C408 C 0.67187 0.23915 0.94615 0.0
C409 C 0.69319 0.27289 0.93034 0.0
C410 C 0.59928 0.14996 1.01399 0.0
C411 C 0.57071 0.13031 0.9978 0.0
C412 C 0.61937 0.18416 0.99777 0.0
C413 C 0.61124 0.19977 0.96509 0.0
C414 C 0.58212 0.18076 0.9492 0.0
C415 C 0.56215 0.14621 0.96532 0.0
H416 H 0.97989 0.69224 0.55261 0.0
H417 H 0.02413 0.72016 0.44461 0.0
H418 H 0.99563 0.76051 0.56439 0.0
H419 H 0.03932 0.78836 0.45629 0.0
H420 H 0.99364 0.90495 0.4848 0.0
H421 H 0.99113 0.83631 0.47405 0.0
H422 H 0.05406 0.81678 0.56129 0.0
H423 H 0.05743 0.88615 0.57168 0.0
C424 C 0.99359 0.71288 0.53164 0.0
C425 C 1.00083 0.70107 0.49774 0.0
C426 C 1.0027 0.75175 0.53839 0.0
C427 C 1.01853 0.77952 0.51118 0.0
C428 C 0.02708 0.76741 0.47764 0.0
C429 C 1.01859 0.72845 0.47105 0.0
C430 C 1.00718 0.88612 0.50155 0.0
C431 C 0.02564 0.9008 0.52914 0.0
C432 C 1.00594 0.84695 0.49524 0.0
C433 C 1.02252 0.82146 0.51678 0.0
C434 C 0.04112 0.836 0.54434 0.0
C435 C 0.04309 0.87555 0.55019 0.0
H436 H 0.49583 0.83295 0.58282 0.0
H437 H 0.45805 0.78108 0.68738 0.0
H438 H 0.50772 0.76939 0.5648 0.0
H439 H 0.47081 0.7175 0.66956 0.0
H440 H 0.45865 0.60516 0.6103 0.0
H441 H 0.44719 0.66816 0.63048 0.0
H442 H 0.54988 0.72167 0.57586 0.0
H443 H 0.56118 0.65913 0.55539 0.0
C444 C 0.49014 0.80794 0.60195 0.0
C445 C 0.47601 0.81197 0.63649 0.0
C446 C 0.49724 0.77161 0.59173 0.0
C447 C 0.49025 0.73845 0.61579 0.0
C448 C 0.4762 0.74247 0.65038 0.0
C449 C 0.46927 0.77891 0.66066 0.0
C450 C 0.47881 0.63036 0.6027 0.0
C451 C 0.51075 0.62715 0.58114 0.0
C452 C 0.47233 0.66638 0.61441 0.0
C453 C 0.49758 0.69988 0.60462 0.0
C454 C 0.52968 0.6965 0.58343 0.0
C455 C 0.53622 0.66057 0.57186 0.0
H456 H 0.8207 0.93 0.78658 0.0
H457 H 0.92341 0.91001 0.82431 0.0
H458 H 0.85263 0.9558 0.72981 0.0
H459 H 0.95467 0.93233 0.76726 0.0
H460 H 1.01059 1.00204 0.67065 0.0
H461 H 0.97684 0.98374 0.7278 0.0
H462 H 0.88205 0.94077 0.67745 0.0
H463 H 0.91555 0.96143 0.62017 0.0
C464 C 0.85004 0.93106 0.78293 0.0
C465 C 0.86917 0.91739 0.81035 0.0
C466 C 0.86843 0.94536 0.74999 0.0
C467 C 0.90653 0.94619 0.74332 0.0
C468 C 0.92554 0.93296 0.771 0.0
C469 C 0.90732 0.91929 0.80389 0.0
C470 C 0.98249 0.98879 0.67177 0.0
C471 C 0.96591 0.98303 0.64072 0.0
C472 C 0.96303 0.97792 0.70472 0.0
C473 C 0.9265 0.9601 0.70782 0.0
C474 C 0.90983 0.95478 0.67658 0.0
C475 C 0.92917 0.96637 0.64355 0.0
H476 H 0.64978 0.141 0.34639 0.0
H477 H 0.53344 0.14068 0.3632 0.0
H478 H 0.64356 0.11654 0.28916 0.0
H479 H 0.5266 0.11428 0.30622 0.0
H480 H 0.53516 0.10116 0.18637 0.0
H481 H 0.53725 0.12684 0.24396 0.0
H482 H 0.62344 0.05819 0.26556 0.0
H483 H 0.62213 0.03417 0.20759 0.0
C484 C 0.62281 0.13547 0.3377 0.0
C485 C 0.59206 0.14238 0.35907 0.0
C486 C 0.61913 0.1211 0.30508 0.0
C487 C 0.58448 0.11261 0.29328 0.0
C488 C 0.5537 0.12061 0.31438 0.0
C489 C 0.55751 0.13562 0.34697 0.0
C490 C 0.55418 0.09135 0.20375 0.0
C491 C 0.57874 0.06602 0.19258 0.0
C492 C 0.5554 0.10598 0.23672 0.0
C493 C 0.58094 0.09513 0.25926 0.0
C494 C 0.6042 0.0682 0.24854 0.0
C495 C 0.60333 0.05414 0.21547 0.0
H496 H 0.36717 0.57988 0.31218 0.0
H497 H 0.41968 0.69317 0.33184 0.0
H498 H 0.39807 0.54982 0.359 0.0
H499 H 0.45049 0.66338 0.37818 0.0
H500 H 0.52944 0.59478 0.43147 0.0
H501 H 0.49877 0.61936 0.38258 0.0
H502 H 0.39818 0.54972 0.42572 0.0
H503 H 0.42882 0.52498 0.47484 0.0
C504 C 0.3853 0.59829 0.32646 0.0
C505 C 0.39114 0.63885 0.3184 0.0
C506 C 0.40286 0.58114 0.35329 0.0
C507 C 0.42691 0.60423 0.37208 0.0
C508 C 0.43257 0.64474 0.36387 0.0
C509 C 0.41476 0.66182 0.33748 0.0
C510 C 0.50086 0.58442 0.43045 0.0
C511 C 0.48156 0.55806 0.45718 0.0
C512 C 0.48326 0.59865 0.4025 0.0
C513 C 0.44602 0.58665 0.40042 0.0
C514 C 0.42695 0.55931 0.4265 0.0
C515 C 0.44448 0.54533 0.45471 0.0
H516 H 1.00759 0.39252 0.74193 0.0
H517 H 0.07438 0.49733 0.69519 0.0
H518 H 1.01859 0.41207 0.8003 0.0
H519 H 0.08466 0.51743 0.75339 0.0
H520 H 0.12977 0.51925 0.86003 0.0
H521 H 0.11761 0.49922 0.80205 0.0
H522 H 1.00561 0.45881 0.84129 0.0
H523 H 1.01791 0.47835 0.899 0.0
C524 C 0.02415 0.42002 0.74422 0.0
C525 C 0.04023 0.44327 0.71412 0.0
C526 C 0.03044 0.43128 0.7776 0.0
C527 C 0.0528 0.46617 0.78153 0.0
C528 C 0.06795 0.48999 0.7513 0.0
C529 C 0.06178 0.47864 0.71794 0.0
C530 C 0.10263 0.50601 0.85618 0.0
C531 C 0.07495 0.50016 0.88416 0.0
C532 C 0.09556 0.49471 0.82297 0.0
C533 C 0.06057 0.47752 0.81697 0.0
C534 C 0.033 0.47139 0.84508 0.0
C535 C 0.04011 0.48251 0.87827 0.0
H536 H 0.74459 0.92705 0.86199 0.0
H537 H 0.78162 0.90286 0.9638 0.0
H538 H 0.69144 0.95155 0.88998 0.0
H539 H 0.72749 0.92436 0.99172 0.0
H540 H 0.6454 0.99942 0.03383 0.0
H541 H 0.69884 0.97755 1.00433 0.0
H542 H 0.63462 0.93588 0.92293 0.0
H543 H 0.58139 0.95964 0.95187 0.0
C544 C 0.74154 0.92685 0.89032 0.0
C545 C 0.76778 0.91264 0.91039 0.0
C546 C 0.71056 0.94042 0.90653 0.0
C547 C 0.70463 0.94007 0.94339 0.0
C548 C 0.73093 0.92586 0.96335 0.0
C549 C 0.76198 0.91273 0.94718 0.0
C550 C 0.64256 0.98552 1.00967 0.0
C551 C 0.60887 0.98123 0.99541 0.0
C552 C 0.67337 0.97264 0.99271 0.0
C553 C 0.67151 0.95449 0.96108 0.0
C554 C 0.63763 0.95012 0.94687 0.0
C555 C 0.60686 0.96348 0.96368 0.0
H556 H 0.67928 0.06336 0.47533 0.0
H557 H 0.72224 0.15868 0.53247 0.0
H558 H 0.73507 0.03411 0.47963 0.0
H559 H 0.7785 0.12925 0.53665 0.0
H560 H 0.86351 0.04586 0.55806 0.0
H561 H 0.80472 0.07051 0.56122 0.0
H562 H 0.79811 0.05459 0.45137 0.0
H563 H 0.85692 0.03077 0.44787 0.0
C564 C 0.7005 0.07791 0.48914 0.0
C565 C 0.69667 0.11363 0.50321 0.0
C566 C 0.73251 0.06118 0.49146 0.0
C567 C 0.7613 0.0797 0.508 0.0
C568 C 0.75669 0.1143 0.52382 0.0
C569 C 0.7246 0.13116 0.52138 0.0
C570 C 0.84974 0.04787 0.53448 0.0
C571 C 0.86514 0.03624 0.50267 0.0
C572 C 0.81598 0.06189 0.53639 0.0
C573 C 0.79676 0.06422 0.50662 0.0
C574 C 0.81199 0.05243 0.47493 0.0
C575 C 0.84577 0.03871 0.47295 0.0
H576 H 0.28456 0.5854 0.16705 0.0
H577 H 0.24566 0.69689 0.17425 0.0
H578 H 0.23129 0.56236 0.13699 0.0
H579 H 0.1923 0.67379 0.14479 0.0
H580 H 0.08338 0.59732 0.12772 0.0
H581 H 0.13605 0.62059 0.15789 0.0
H582 H 0.20779 0.58222 0.07649 0.0
H583 H 0.15514 0.55944 0.04585 0.0
C584 C 0.26438 0.60473 0.16255 0.0
C585 C 0.26911 0.64286 0.17291 0.0
C586 C 0.23415 0.59172 0.14514 0.0
C587 C 0.2078 0.61639 0.13845 0.0
C588 C 0.21212 0.65415 0.1497 0.0
C589 C 0.24262 0.66736 0.16646 0.0
C590 C 0.11041 0.59422 0.11603 0.0
C591 C 0.1151 0.57674 0.08427 0.0
C592 C 0.14052 0.60752 0.13333 0.0
C593 C 0.17595 0.60297 0.11962 0.0
C594 C 0.18073 0.58574 0.08778 0.0
C595 C 0.15063 0.57306 0.07011 0.0
H596 H 0.17895 0.36263 0.59126 0.0
H597 H 0.17182 0.48463 0.56625 0.0
H598 H 0.24489 0.37681 0.58888 0.0
H599 H 0.23826 0.49894 0.5646 0.0
H600 H 0.36402 0.49705 0.53728 0.0
H601 H 0.29851 0.48567 0.53246 0.0
H602 H 0.28353 0.41259 0.62979 0.0
H603 H 0.34854 0.42449 0.63515 0.0
C604 C 0.1915 0.39237 0.58439 0.0
C605 C 0.17014 0.42253 0.57891 0.0
C606 C 0.22927 0.40055 0.58353 0.0
C607 C 0.24658 0.43903 0.5771 0.0
C608 C 0.22556 0.46901 0.56964 0.0
C609 C 0.18761 0.46085 0.57071 0.0
C610 C 0.34675 0.47906 0.55796 0.0
C611 C 0.36172 0.4614 0.5865 0.0
C612 C 0.30925 0.47243 0.55505 0.0
C613 C 0.28609 0.44778 0.58045 0.0
C614 C 0.30089 0.43101 0.60939 0.0
C615 C 0.33818 0.43785 0.61244 0.0
H616 H 0.86127 0.75398 0.95447 0.0
H617 H 0.96921 0.80452 0.91076 0.0
H618 H 0.8869 0.69939 0.98279 0.0
H619 H 0.99489 0.75086 0.93941 0.0
H620 H 0.02453 0.62862 0.95973 0.0
H621 H 0.9979 0.68323 0.93427 0.0
H622 H 0.92461 0.68059 0.02861 0.0
H623 H 0.95094 0.62503 0.05397 0.0
C624 C 0.89046 0.75355 0.95109 0.0
C625 C 0.91323 0.78347 0.93023 0.0
C626 C 0.90522 0.72238 0.96748 0.0
C627 C 0.94305 0.72043 0.96329 0.0
C628 C 0.96564 0.75082 0.94279 0.0
C629 C 0.95093 0.78178 0.92649 0.0
C630 C 1.0029 0.63974 0.97524 0.0
C631 C 0.99007 0.6224 1.00904 0.0
C632 C 0.98765 0.6713 0.96064 0.0
C633 C 0.95908 0.68662 0.97934 0.0
C634 C 0.94629 0.6694 1.01325 0.0
C635 C 0.96163 0.63773 0.02794 0.0
H636 H 0.37777 0.72564 0.11754 0.0
H637 H 0.38285 0.77192 0.21866 0.0
H638 H 0.41375 0.78513 0.08959 0.0
H639 H 0.41816 0.83184 0.19076 0.0
H640 H 0.5079 0.92125 0.13355 0.0
H641 H 0.47611 0.85926 0.16101 0.0
H642 H 0.40773 0.85179 0.07578 0.0
H643 H 0.44016 0.91282 0.04791 0.0
C644 C 0.38638 0.7487 0.13374 0.0
C645 C 0.37742 0.7442 0.17025 0.0
C646 C 0.40695 0.78283 0.11775 0.0
C647 C 0.41879 0.81342 0.13788 0.0
C648 C 0.41003 0.8087 0.17448 0.0
C649 C 0.38968 0.77443 0.19049 0.0
C650 C 0.48622 0.9062 0.12061 0.0
C651 C 0.47662 0.92195 0.08853 0.0
C652 C 0.46783 0.87079 0.13645 0.0
C653 C 0.43929 0.85047 0.12065 0.0
C654 C 0.42994 0.86621 0.08844 0.0
C655 C 0.44843 0.90141 0.07253 0.0
H656 H 0.0714 0.33399 0.5277 0.0
H657 H 0.03994 0.31176 0.63909 0.0
H658 H 0.05213 0.2653 0.51985 0.0
H659 H 1.02073 0.24338 0.63119 0.0
H660 H 0.05844 0.12375 0.60447 0.0
H661 H 0.06312 0.19307 0.61264 0.0
H662 H 0.99557 0.20998 0.52849 0.0
H663 H 0.99031 0.13998 0.52054 0.0
C664 C 0.05968 0.31458 0.55033 0.0
C665 C 0.05726 0.32812 0.58399 0.0
C666 C 0.04849 0.27543 0.54582 0.0
C667 C 0.03519 0.24914 0.57498 0.0
C668 C 0.03107 0.2631 0.60834 0.0
C669 C 0.04181 0.30226 0.61279 0.0
C670 C 0.04429 0.14214 0.58789 0.0
C671 C 0.02411 0.12654 0.5618 0.0
C672 C 0.04677 0.18175 0.59275 0.0
C673 C 0.02959 0.20675 0.57126 0.0
C674 C 1.00905 0.19121 0.54535 0.0
C675 C 1.00597 0.15128 0.54092 0.0
H676 H 0.60432 0.2723 0.39755 0.0
H677 H 0.5626 0.21966 0.50096 0.0
H678 H 0.5913 0.3358 0.41525 0.0
H679 H 0.55054 0.28317 0.51893 0.0
H680 H 0.49903 0.39443 0.52807 0.0
H681 H 0.50987 0.3319 0.50732 0.0
H682 H 0.61407 0.38431 0.45508 0.0
H683 H 0.60303 0.44732 0.47547 0.0
C684 C 0.59212 0.27427 0.42396 0.0
C685 C 0.58441 0.24101 0.44787 0.0
C686 C 0.58507 0.31068 0.4342 0.0
C687 C 0.56997 0.3145 0.46849 0.0
C688 C 0.56186 0.28113 0.49222 0.0
C689 C 0.56905 0.24481 0.48204 0.0
C690 C 0.52423 0.39274 0.51206 0.0
C691 C 0.55024 0.42586 0.5035 0.0
C692 C 0.5305 0.35682 0.50033 0.0
C693 C 0.56288 0.35312 0.47972 0.0
C694 C 0.58869 0.38633 0.47066 0.0
C695 C 0.58246 0.42236 0.48249 0.0
loop_
_geom_bond_atom_site_label_1
_geom_bond_atom_site_label_2
_geom_bond_distance
_geom_bond_site_symmetry_2
_ccdc_geom_bond_type
H0 C5 0.930 . S
H1 C8 0.930 . S
H2 C10 0.930 . S
H3 C4 1.016 . S
C4 H3 1.016 . S
C4 N11 1.286 . S
C5 H0 0.930 . S
C5 C6 1.397 . S
C5 C7 1.361 . S
C6 C5 1.397 . S
C6 C10 1.390 . S
C7 C5 1.361 . S
C7 C8 1.393 . S
C7 N11 1.413 . S
C8 H1 0.930 . S
C8 C7 1.393 . S
C8 C9 1.399 . S
C9 C8 1.399 . S
C9 C10 1.381 . S
C10 H2 0.930 . S
C10 C6 1.390 . S
C10 C9 1.381 . S
N11 C4 1.286 . S
N11 C7 1.413 . S
H12 C17 0.930 . S
H13 C20 0.930 . S
H14 C22 0.930 . S
H15 C16 1.016 . S
C16 H15 1.016 . S
C16 N23 1.286 . S
C17 H12 0.930 . S
C17 C18 1.397 . S
C17 C19 1.361 . S
C18 C17 1.397 . S
C18 C22 1.390 . S
C19 C17 1.361 . S
C19 C20 1.393 . S
C19 N23 1.413 . S
C20 H13 0.930 . S
C20 C19 1.393 . S
C20 C21 1.399 . S
C21 C20 1.399 . S
C21 C22 1.381 . S
C22 H14 0.930 . S
C22 C18 1.390 . S
C22 C21 1.381 . S
N23 C16 1.286 . S
N23 C19 1.413 . S
H24 C29 0.930 . S
H25 C32 0.930 . S
H26 C34 0.930 . S
H27 C28 1.016 . S
C28 H27 1.016 . S
C28 N35 1.286 . S
C29 H24 0.930 . S
C29 C30 1.397 . S
C29 C31 1.361 . S
C30 C29 1.397 . S
C30 C34 1.390 . S
C31 C29 1.361 . S
C31 C32 1.393 . S
C31 N35 1.413 . S
C32 H25 0.930 . S
C32 C31 1.393 . S
C32 C33 1.399 . S
C33 C32 1.399 . S
C33 C34 1.381 . S
C34 H26 0.930 . S
C34 C30 1.390 . S
C34 C33 1.381 . S
N35 C28 1.286 . S
N35 C31 1.413 . S
H36 C41 0.930 . S
H37 C44 0.930 . S
H38 C46 0.930 . S
H39 C40 1.016 . S
C40 H39 1.016 . S
C40 N47 1.286 . S
C41 H36 0.930 . S
C41 C42 1.397 . S
C41 C43 1.361 . S
C42 C41 1.397 . S
C42 C46 1.390 . S
C43 C41 1.361 . S
C43 C44 1.393 . S
C43 N47 1.413 . S
C44 H37 0.930 . S
C44 C43 1.393 . S
C44 C45 1.399 . S
C45 C44 1.399 . S
C45 C46 1.381 . S
C46 H38 0.930 . S
C46 C42 1.390 . S
C46 C45 1.381 . S
N47 C40 1.286 . S
N47 C43 1.413 . S
H48 C53 0.930 . S
H49 C56 0.930 . S
H50 C58 0.930 . S
H51 C52 1.016 . S
C52 H51 1.016 . S
C52 N59 1.286 . S
C53 H48 0.930 . S
C53 C54 1.397 . S
C53 C55 1.361 . S
C54 C53 1.397 . S
C54 C58 1.390 . S
C55 C53 1.361 . S
C55 C56 1.393 . S
C55 N59 1.413 . S
C56 H49 0.930 . S
C56 C55 1.393 . S
C56 C57 1.399 . S
C57 C56 1.399 . S
C57 C58 1.381 . S
C58 H50 0.930 . S
C58 C54 1.390 . S
C58 C57 1.381 . S
N59 C52 1.286 . S
N59 C55 1.413 . S
H60 C65 0.930 . S
H61 C68 0.930 . S
H62 C70 0.930 . S
H63 C64 1.016 . S
C64 H63 1.016 . S
C64 N71 1.286 . S
C65 H60 0.930 . S
C65 C66 1.397 . S
C65 C67 1.361 . S
C66 C65 1.397 . S
C66 C70 1.390 . S
C67 C65 1.361 . S
C67 C68 1.393 . S
C67 N71 1.413 . S
C68 H61 0.930 . S
C68 C67 1.393 . S
C68 C69 1.399 . S
C69 C68 1.399 . S
C69 C70 1.381 . S
C70 H62 0.930 . S
C70 C66 1.390 . S
C70 C69 1.381 . S
N71 C64 1.286 . S
N71 C67 1.413 . S
H72 C77 0.930 . S
H73 C80 0.930 . S
H74 C82 0.930 . S
H75 C76 1.016 . S
C76 H75 1.016 . S
C76 N83 1.286 . S
C77 H72 0.930 . S
C77 C78 1.397 . S
C77 C79 1.361 . S
C78 C77 1.397 . S
C78 C82 1.390 . S
C79 C77 1.361 . S
C79 C80 1.393 . S
C79 N83 1.413 . S
C80 H73 0.930 . S
C80 C79 1.393 . S
C80 C81 1.399 . S
C81 C80 1.399 . S
C81 C82 1.381 . S
C82 H74 0.930 . S
C82 C78 1.390 . S
C82 C81 1.381 . S
N83 C76 1.286 . S
N83 C79 1.413 . S
H84 C89 0.930 . S
H85 C92 0.930 . S
H86 C94 0.930 . S
H87 C88 1.016 . S
C88 H87 1.016 . S
C88 N95 1.286 . S
C89 H84 0.930 . S
C89 C90 1.397 . S
C89 C91 1.361 . S
C90 C89 1.397 . S
C90 C94 1.390 . S
C91 C89 1.361 . S
C91 C92 1.393 . S
C91 N95 1.413 . S
C92 H85 0.930 . S
C92 C91 1.393 . S
C92 C93 1.399 . S
C93 C92 1.399 . S
C93 C94 1.381 . S
C94 H86 0.930 . S
C94 C90 1.390 . S
C94 C93 1.381 . S
N95 C88 1.286 . S
N95 C91 1.413 . S
Co96 N101 2.057 . S
Co96 O113 2.021 . S
Co96 O116 2.062 . S
Co96 O120 2.117 1_545 S
Co96 O121 2.016 1_545 S
C97 O117 1.259 1_655 S
C97 O120 1.258 . S
Co98 N107 2.057 . S
Co98 O114 2.117 1_565 S
Co98 O115 2.020 1_565 S
Co98 O117 2.021 . S
Co98 O122 2.062 . S
C99 N101 1.316 . S
C99 N102 1.347 . S
C99 H104 0.931 . S
C100 N101 1.375 1_565 S
C100 C103 1.350 1_565 S
C100 H105 0.930 . S
N101 Co96 2.057 . S
N101 C99 1.316 . S
N101 C100 1.375 1_545 S
N102 C99 1.347 . S
N102 C103 1.373 . S
C103 C100 1.350 1_545 S
C103 N102 1.373 . S
C103 H124 0.931 1_545 S
H104 C99 0.931 . S
H105 C100 0.930 . S
C106 O113 1.259 1_455 S
C106 O114 1.258 . S
N107 Co98 2.057 . S
N107 C108 1.316 . S
N107 C109 1.375 1_565 S
C108 N107 1.316 . S
C108 N110 1.347 . S
C108 H119 0.931 . S
C109 N107 1.375 1_545 S
C109 C111 1.350 . S
C109 H118 0.930 . S
N110 C108 1.347 . S
N110 C111 1.373 1_565 S
C111 C109 1.350 . S
C111 N110 1.373 1_545 S
C111 H125 0.931 . S
C112 O115 1.256 . S
C112 O116 1.255 1_455 S
O113 Co96 2.021 . S
O113 C106 1.259 1_655 S
O114 Co98 2.117 1_545 S
O114 C106 1.258 . S
O115 Co98 2.020 1_545 S
O115 C112 1.256 . S
O116 Co96 2.062 . S
O116 C112 1.255 1_655 S
O117 C97 1.259 1_455 S
O117 Co98 2.021 . S
H118 C109 0.930 . S
H119 C108 0.931 . S
O120 Co96 2.117 1_565 S
O120 C97 1.258 . S
O121 Co96 2.016 1_565 S
O121 C123 1.261 . S
O122 Co98 2.062 . S
O122 C123 1.255 1_455 S
C123 O121 1.261 . S
C123 O122 1.255 1_655 S
H124 C103 0.931 1_565 S
H125 C111 0.931 . S
Co126 N131 2.057 1_545 S
Co126 O143 2.021 . S
Co126 O146 2.059 1_545 S
Co126 O150 2.117 1_546 S
Co126 O151 2.020 1_556 S
C127 O147 1.259 . S
C127 O150 1.258 . S
Co128 N137 2.057 . S
Co128 O144 2.117 . S
Co128 O145 2.020 . S
Co128 O147 2.021 1_545 S
Co128 O152 2.062 . S
C129 N131 1.316 . S
C129 N132 1.347 . S
C129 H134 0.931 1_565 S
C130 N131 1.375 . S
C130 C133 1.350 . S
C130 H135 0.930 . S
N131 Co126 2.057 1_565 S
N131 C129 1.316 . S
N131 C130 1.375 . S
N132 C129 1.347 . S
N132 C133 1.373 . S
C133 C130 1.350 . S
C133 N132 1.373 . S
C133 H154 0.931 . S
H134 C129 0.931 1_545 S
H135 C130 0.930 . S
C136 O143 1.259 . S
C136 O144 1.258 1_556 S
N137 Co128 2.057 . S
N137 C138 1.316 . S
N137 C139 1.375 . S
C138 N137 1.316 . S
C138 N140 1.347 . S
C138 H149 0.931 . S
C139 N137 1.375 . S
C139 C141 1.350 . S
C139 H148 0.930 . S
N140 C138 1.347 . S
N140 C141 1.373 . S
C141 C139 1.350 . S
C141 N140 1.373 . S
C141 H155 0.931 . S
C142 O145 1.261 1_556 S
C142 O146 1.258 1_545 S
O143 Co126 2.021 . S
O143 C136 1.259 . S
O144 Co128 2.117 . S
O144 C136 1.258 1_554 S
O145 Co128 2.020 . S
O145 C142 1.261 1_554 S
O146 Co126 2.059 1_565 S
O146 C142 1.258 1_565 S
O147 C127 1.259 . S
O147 Co128 2.021 1_565 S
H148 C139 0.930 . S
H149 C138 0.931 . S
O150 Co126 2.117 1_564 S
O150 C127 1.258 . S
O151 Co126 2.020 1_554 S
O151 C153 1.256 . S
O152 Co128 2.062 . S
O152 C153 1.255 . S
C153 O151 1.256 . S
C153 O152 1.255 . S
H154 C133 0.931 . S
H155 C141 0.931 . S
Co156 N161 2.057 . S
Co156 O173 2.021 . S
Co156 O176 2.062 . S
Co156 O180 2.117 . S
Co156 O181 2.020 . S
C157 O177 1.259 . S
C157 O180 1.258 . S
Co158 N167 2.057 . S
Co158 O174 2.117 . S
Co158 O175 2.020 . S
Co158 O177 2.021 . S
Co158 O182 2.062 . S
C159 N161 1.316 . S
C159 N162 1.347 . S
C159 H164 0.931 . S
C160 N161 1.375 . S
C160 C163 1.350 . S
C160 H165 0.930 . S
N161 Co156 2.057 . S
N161 C159 1.316 . S
N161 C160 1.375 . S
N162 C159 1.347 . S
N162 C163 1.373 . S
C163 C160 1.350 . S
C163 N162 1.373 . S
C163 H184 0.931 . S
H164 C159 0.931 . S
H165 C160 0.930 . S
C166 O173 1.259 . S
C166 O174 1.258 . S
N167 Co158 2.057 . S
N167 C168 1.316 . S
N167 C169 1.375 . S
C168 N167 1.316 . S
C168 N170 1.347 . S
C168 H179 0.931 . S
C169 N167 1.375 . S
C169 C171 1.350 . S
C169 H178 0.930 . S
N170 C168 1.347 . S
N170 C171 1.373 . S
C171 C169 1.350 . S
C171 N170 1.373 . S
C171 H185 0.931 . S
C172 O175 1.256 . S
C172 O176 1.255 . S
O173 Co156 2.021 . S
O173 C166 1.259 . S
O174 Co158 2.117 . S
O174 C166 1.258 . S
O175 Co158 2.020 . S
O175 C172 1.256 . S
O176 Co156 2.062 . S
O176 C172 1.255 . S
O177 C157 1.259 . S
O177 Co158 2.021 . S
H178 C169 0.930 . S
H179 C168 0.931 . S
O180 Co156 2.117 . S
O180 C157 1.258 . S
O181 Co156 2.020 . S
O181 C183 1.256 . S
O182 Co158 2.062 . S
O182 C183 1.255 . S
C183 O181 1.256 . S
C183 O182 1.255 . S
H184 C163 0.931 . S
H185 C171 0.931 . S
Co186 N191 2.057 . S
Co186 O203 2.021 . S
Co186 O206 2.049 1_556 S
Co186 O210 2.117 1_455 S
Co186 O211 2.020 . S
C187 O207 1.259 . S
C187 O210 1.258 1_554 S
Co188 N197 2.057 . S
Co188 O204 2.117 1_655 S
Co188 O205 2.020 1_655 S
Co188 O207 2.021 . S
Co188 O212 2.062 . S
C189 N191 1.316 . S
C189 N192 1.347 . S
C189 H194 0.931 . S
C190 N191 1.375 . S
C190 C193 1.350 . S
C190 H195 0.930 1_455 S
N191 Co186 2.057 . S
N191 C189 1.316 . S
N191 C190 1.375 . S
N192 C189 1.347 . S
N192 C193 1.373 . S
C193 C190 1.350 . S
C193 N192 1.373 . S
C193 H214 0.931 . S
H194 C189 0.931 . S
H195 C190 0.930 1_655 S
C196 O203 1.259 1_554 S
C196 O204 1.258 . S
N197 Co188 2.057 . S
N197 C198 1.316 . S
N197 C199 1.375 1_655 S
C198 N197 1.316 . S
C198 N200 1.347 . S
C198 H209 0.931 . S
C199 N197 1.375 1_455 S
C199 C201 1.350 . S
C199 H208 0.930 . S
N200 C198 1.347 . S
N200 C201 1.373 1_655 S
C201 C199 1.350 . S
C201 N200 1.373 1_455 S
C201 H215 0.931 . S
C202 O205 1.256 . S
C202 O206 1.283 . S
O203 Co186 2.021 . S
O203 C196 1.259 1_556 S
O204 Co188 2.117 1_455 S
O204 C196 1.258 . S
O205 Co188 2.020 1_455 S
O205 C202 1.256 . S
O206 Co186 2.049 1_554 S
O206 C202 1.283 . S
O207 C187 1.259 . S
O207 Co188 2.021 . S
H208 C199 0.930 . S
H209 C198 0.931 . S
O210 Co186 2.117 1_655 S
O210 C187 1.258 1_556 S
O211 Co186 2.020 . S
O211 C213 1.256 1_455 S
O212 Co188 2.062 . S
O212 C213 1.255 1_554 S
C213 O211 1.256 1_655 S
C213 O212 1.255 1_556 S
H214 C193 0.931 . S
H215 C201 0.931 . S
H216 C224 0.950 . S
H217 C229 0.950 . S
H218 C226 0.950 . S
H219 C228 0.950 . S
H220 C230 0.950 . S
H221 C232 0.950 . S
H222 C234 0.950 . S
H223 C235 0.950 1_655 S
C224 H216 0.950 . S
C224 C225 1.386 . S
C224 C226 1.391 . S
C225 C224 1.386 . S
C225 C229 1.393 . S
C226 H218 0.950 . S
C226 C224 1.391 . S
C226 C227 1.400 . S
C227 C226 1.400 . S
C227 C228 1.398 . S
C227 C233 1.491 . S
C228 H219 0.950 . S
C228 C227 1.398 . S
C228 C229 1.391 . S
C229 H217 0.950 . S
C229 C225 1.393 . S
C229 C228 1.391 . S
C230 H220 0.950 . S
C230 C231 1.386 . S
C230 C232 1.391 . S
C231 C230 1.386 . S
C231 C235 1.393 . S
C232 H221 0.950 . S
C232 C230 1.391 . S
C232 C233 1.400 . S
C233 C227 1.491 . S
C233 C232 1.400 . S
C233 C234 1.398 . S
C234 H222 0.950 . S
C234 C233 1.398 . S
C234 C235 1.391 . S
C235 H223 0.950 1_455 S
C235 C231 1.393 . S
C235 C234 1.391 . S
H236 C244 0.950 . S
H237 C249 0.950 . S
H238 C246 0.950 . S
H239 C248 0.950 . S
H240 C250 0.950 . S
H241 C252 0.950 . S
H242 C254 0.950 . S
H243 C255 0.950 . S
C244 H236 0.950 . S
C244 C245 1.386 . S
C244 C246 1.391 . S
C245 C244 1.386 . S
C245 C249 1.393 . S
C246 H238 0.950 . S
C246 C244 1.391 . S
C246 C247 1.400 . S
C247 C246 1.400 . S
C247 C248 1.398 . S
C247 C253 1.491 . S
C248 H239 0.950 . S
C248 C247 1.398 . S
C248 C249 1.391 . S
C249 H237 0.950 . S
C249 C245 1.393 . S
C249 C248 1.391 . S
C250 H240 0.950 . S
C250 C251 1.386 . S
C250 C252 1.391 . S
C251 C250 1.386 . S
C251 C255 1.393 . S
C252 H241 0.950 . S
C252 C250 1.391 . S
C252 C253 1.400 . S
C253 C247 1.491 . S
C253 C252 1.400 . S
C253 C254 1.398 . S
C254 H242 0.950 . S
C254 C253 1.398 . S
C254 C255 1.391 . S
C255 H243 0.950 . S
C255 C251 1.393 . S
C255 C254 1.391 . S
H256 C264 0.950 . S
H257 C269 0.950 . S
H258 C266 0.950 . S
H259 C268 0.950 . S
H260 C270 0.950 . S
H261 C272 0.950 . S
H262 C274 0.950 . S
H263 C275 0.950 . S
C264 H256 0.950 . S
C264 C265 1.386 . S
C264 C266 1.391 . S
C265 C264 1.386 . S
C265 C269 1.393 . S
C266 H258 0.950 . S
C266 C264 1.391 . S
C266 C267 1.400 . S
C267 C266 1.400 . S
C267 C268 1.398 . S
C267 C273 1.491 . S
C268 H259 0.950 . S
C268 C267 1.398 . S
C268 C269 1.391 . S
C269 H257 0.950 . S
C269 C265 1.393 . S
C269 C268 1.391 . S
C270 H260 0.950 . S
C270 C271 1.386 . S
C270 C272 1.391 . S
C271 C270 1.386 . S
C271 C275 1.393 . S
C272 H261 0.950 . S
C272 C270 1.391 . S
C272 C273 1.400 . S
C273 C267 1.491 . S
C273 C272 1.400 . S
C273 C274 1.398 . S
C274 H262 0.950 . S
C274 C273 1.398 . S
C274 C275 1.391 . S
C275 H263 0.950 . S
C275 C271 1.393 . S
C275 C274 1.391 . S
H276 C284 0.950 . S
H277 C289 0.950 . S
H278 C286 0.950 . S
H279 C288 0.950 . S
H280 C290 0.950 . S
H281 C292 0.950 . S
H282 C294 0.950 . S
H283 C295 0.950 . S
C284 H276 0.950 . S
C284 C285 1.386 . S
C284 C286 1.391 . S
C285 C284 1.386 . S
C285 C289 1.393 . S
C286 H278 0.950 . S
C286 C284 1.391 . S
C286 C287 1.400 . S
C287 C286 1.400 . S
C287 C288 1.398 . S
C287 C293 1.491 . S
C288 H279 0.950 . S
C288 C287 1.398 . S
C288 C289 1.391 . S
C289 H277 0.950 . S
C289 C285 1.393 . S
C289 C288 1.391 . S
C290 H280 0.950 . S
C290 C291 1.386 . S
C290 C292 1.391 . S
C291 C290 1.386 . S
C291 C295 1.393 . S
C292 H281 0.950 . S
C292 C290 1.391 . S
C292 C293 1.400 . S
C293 C287 1.491 . S
C293 C292 1.400 . S
C293 C294 1.398 . S
C294 H282 0.950 . S
C294 C293 1.398 . S
C294 C295 1.391 . S
C295 H283 0.950 . S
C295 C291 1.393 . S
C295 C294 1.391 . S
H296 C304 0.950 . S
H297 C309 0.950 . S
H298 C306 0.950 . S
H299 C308 0.950 . S
H300 C310 0.950 . S
H301 C312 0.950 . S
H302 C314 0.950 . S
H303 C315 0.950 . S
C304 H296 0.950 . S
C304 C305 1.386 . S
C304 C306 1.391 . S
C305 C304 1.386 . S
C305 C309 1.393 . S
C306 H298 0.950 . S
C306 C304 1.391 . S
C306 C307 1.400 . S
C307 C306 1.400 . S
C307 C308 1.398 . S
C307 C313 1.491 . S
C308 H299 0.950 . S
C308 C307 1.398 . S
C308 C309 1.391 . S
C309 H297 0.950 . S
C309 C305 1.393 . S
C309 C308 1.391 . S
C310 H300 0.950 . S
C310 C311 1.386 . S
C310 C312 1.391 . S
C311 C310 1.386 . S
C311 C315 1.393 . S
C312 H301 0.950 . S
C312 C310 1.391 . S
C312 C313 1.400 . S
C313 C307 1.491 . S
C313 C312 1.400 . S
C313 C314 1.398 . S
C314 H302 0.950 . S
C314 C313 1.398 . S
C314 C315 1.391 . S
C315 H303 0.950 . S
C315 C311 1.393 . S
C315 C314 1.391 . S
H316 C324 0.950 . S
H317 C329 0.950 . S
H318 C326 0.950 . S
H319 C328 0.950 . S
H320 C330 0.950 . S
H321 C332 0.950 . S
H322 C334 0.950 . S
H323 C335 0.950 . S
C324 H316 0.950 . S
C324 C325 1.386 . S
C324 C326 1.391 . S
C325 C324 1.386 . S
C325 C329 1.393 . S
C326 H318 0.950 . S
C326 C324 1.391 . S
C326 C327 1.400 . S
C327 C326 1.400 . S
C327 C328 1.398 . S
C327 C333 1.491 . S
C328 H319 0.950 . S
C328 C327 1.398 . S
C328 C329 1.391 . S
C329 H317 0.950 . S
C329 C325 1.393 . S
C329 C328 1.391 . S
C330 H320 0.950 . S
C330 C331 1.386 . S
C330 C332 1.391 . S
C331 C330 1.386 . S
C331 C335 1.393 . S
C332 H321 0.950 . S
C332 C330 1.391 . S
C332 C333 1.400 . S
C333 C327 1.491 . S
C333 C332 1.400 . S
C333 C334 1.398 . S
C334 H322 0.950 . S
C334 C333 1.398 . S
C334 C335 1.391 . S
C335 H323 0.950 . S
C335 C331 1.393 . S
C335 C334 1.391 . S
H336 C344 0.950 . S
H337 C349 0.950 . S
H338 C346 0.950 . S
H339 C348 0.950 . S
H340 C350 0.950 1_554 S
H341 C352 0.950 . S
H342 C354 0.950 . S
H343 C355 0.950 . S
C344 H336 0.950 . S
C344 C345 1.386 . S
C344 C346 1.391 . S
C345 C344 1.386 . S
C345 C349 1.393 . S
C346 H338 0.950 . S
C346 C344 1.391 . S
C346 C347 1.400 . S
C347 C346 1.400 . S
C347 C348 1.398 . S
C347 C353 1.491 . S
C348 H339 0.950 . S
C348 C347 1.398 . S
C348 C349 1.391 . S
C349 H337 0.950 . S
C349 C345 1.393 . S
C349 C348 1.391 . S
C350 H340 0.950 1_556 S
C350 C351 1.386 . S
C350 C352 1.391 . S
C351 C350 1.386 . S
C351 C355 1.393 . S
C352 H341 0.950 . S
C352 C350 1.391 . S
C352 C353 1.400 . S
C353 C347 1.491 . S
C353 C352 1.400 . S
C353 C354 1.398 . S
C354 H342 0.950 . S
C354 C353 1.398 . S
C354 C355 1.391 . S
C355 H343 0.950 . S
C355 C351 1.393 . S
C355 C354 1.391 . S
H356 C364 0.950 . S
H357 C369 0.950 . S
H358 C366 0.950 . S
H359 C368 0.950 . S
H360 C370 0.950 . S
H361 C372 0.950 . S
H362 C374 0.950 . S
H363 C375 0.950 . S
C364 H356 0.950 . S
C364 C365 1.386 . S
C364 C366 1.391 . S
C365 C364 1.386 . S
C365 C369 1.393 . S
C366 H358 0.950 . S
C366 C364 1.391 . S
C366 C367 1.400 . S
C367 C366 1.400 . S
C367 C368 1.398 . S
C367 C373 1.491 . S
C368 H359 0.950 . S
C368 C367 1.398 . S
C368 C369 1.391 . S
C369 H357 0.950 . S
C369 C365 1.393 . S
C369 C368 1.391 . S
C370 H360 0.950 . S
C370 C371 1.386 . S
C370 C372 1.391 . S
C371 C370 1.386 . S
C371 C375 1.393 . S
C372 H361 0.950 . S
C372 C370 1.391 . S
C372 C373 1.400 . S
C373 C367 1.491 . S
C373 C372 1.400 . S
C373 C374 1.398 . S
C374 H362 0.950 . S
C374 C373 1.398 . S
C374 C375 1.391 . S
C375 H363 0.950 . S
C375 C371 1.393 . S
C375 C374 1.391 . S
H376 C384 0.950 . S
H377 C389 0.950 . S
H378 C386 0.950 . S
H379 C388 0.950 . S
H380 C390 0.950 1_556 S
H381 C392 0.950 . S
H382 C394 0.950 . S
H383 C395 0.950 . S
C384 H376 0.950 . S
C384 C385 1.386 . S
C384 C386 1.391 . S
C385 C384 1.386 . S
C385 C389 1.393 . S
C386 H378 0.950 . S
C386 C384 1.391 . S
C386 C387 1.400 . S
C387 C386 1.400 . S
C387 C388 1.398 . S
C387 C393 1.491 . S
C388 H379 0.950 . S
C388 C387 1.398 . S
C388 C389 1.391 . S
C389 H377 0.950 . S
C389 C385 1.393 . S
C389 C388 1.391 . S
C390 H380 0.950 1_554 S
C390 C391 1.386 . S
C390 C392 1.391 . S
C391 C390 1.386 . S
C391 C395 1.393 . S
C392 H381 0.950 . S
C392 C390 1.391 . S
C392 C393 1.400 . S
C393 C387 1.491 . S
C393 C392 1.400 . S
C393 C394 1.398 . S
C394 H382 0.950 . S
C394 C393 1.398 . S
C394 C395 1.391 . S
C395 H383 0.950 . S
C395 C391 1.393 . S
C395 C394 1.391 . S
H396 C404 0.950 . S
H397 C409 0.950 . S
H398 C406 0.950 . S
H399 C408 0.950 . S
H400 C410 0.950 . S
H401 C412 0.950 . S
H402 C414 0.950 . S
H403 C415 0.950 . S
C404 H396 0.950 . S
C404 C405 1.386 . S
C404 C406 1.391 . S
C405 C404 1.386 . S
C405 C409 1.393 . S
C406 H398 0.950 . S
C406 C404 1.391 . S
C406 C407 1.400 . S
C407 C406 1.400 . S
C407 C408 1.398 . S
C407 C413 1.491 . S
C408 H399 0.950 . S
C408 C407 1.398 . S
C408 C409 1.391 . S
C409 H397 0.950 . S
C409 C405 1.393 . S
C409 C408 1.391 . S
C410 H400 0.950 . S
C410 C411 1.386 . S
C410 C412 1.391 . S
C411 C410 1.386 . S
C411 C415 1.393 . S
C412 H401 0.950 . S
C412 C410 1.391 . S
C412 C413 1.400 . S
C413 C407 1.491 . S
C413 C412 1.400 . S
C413 C414 1.398 . S
C414 H402 0.950 . S
C414 C413 1.398 . S
C414 C415 1.391 . S
C415 H403 0.950 . S
C415 C411 1.393 . S
C415 C414 1.391 . S
H416 C424 0.950 . S
H417 C429 0.950 . S
H418 C426 0.950 . S
H419 C428 0.950 . S
H420 C430 0.950 . S
H421 C432 0.950 . S
H422 C434 0.950 1_455 S
H423 C435 0.933 1_455 S
C424 H416 0.950 . S
C424 C425 1.386 . S
C424 C426 1.391 . S
C425 C424 1.386 . S
C425 C429 1.393 . S
C426 H418 0.950 . S
C426 C424 1.391 . S
C426 C427 1.400 . S
C427 C426 1.400 . S
C427 C428 1.398 . S
C427 C433 1.491 . S
C428 H419 0.950 . S
C428 C427 1.398 . S
C428 C429 1.391 . S
C429 H417 0.950 . S
C429 C425 1.393 . S
C429 C428 1.391 . S
C430 H420 0.950 . S
C430 C431 1.386 . S
C430 C432 1.391 . S
C431 C430 1.386 . S
C431 C435 1.408 . S
C432 H421 0.950 . S
C432 C430 1.391 . S
C432 C433 1.400 . S
C433 C427 1.491 . S
C433 C432 1.400 . S
C433 C434 1.398 . S
C434 H422 0.950 1_655 S
C434 C433 1.398 . S
C434 C435 1.393 . S
C435 H423 0.933 1_655 S
C435 C431 1.408 . S
C435 C434 1.393 . S
H436 C444 0.950 . S
H437 C449 0.950 . S
H438 C446 0.950 . S
H439 C448 0.950 . S
H440 C450 0.950 . S
H441 C452 0.950 . S
H442 C454 0.950 . S
H443 C455 0.950 . S
C444 H436 0.950 . S
C444 C445 1.386 . S
C444 C446 1.391 . S
C445 C444 1.386 . S
C445 C449 1.393 . S
C446 H438 0.950 . S
C446 C444 1.391 . S
C446 C447 1.400 . S
C447 C446 1.400 . S
C447 C448 1.398 . S
C447 C453 1.491 . S
C448 H439 0.950 . S
C448 C447 1.398 . S
C448 C449 1.391 . S
C449 H437 0.950 . S
C449 C445 1.393 . S
C449 C448 1.391 . S
C450 H440 0.950 . S
C450 C451 1.386 . S
C450 C452 1.391 . S
C451 C450 1.386 . S
C451 C455 1.393 . S
C452 H441 0.950 . S
C452 C450 1.391 . S
C452 C453 1.400 . S
C453 C447 1.491 . S
C453 C452 1.400 . S
C453 C454 1.398 . S
C454 H442 0.950 . S
C454 C453 1.398 . S
C454 C455 1.391 . S
C455 H443 0.950 . S
C455 C451 1.393 . S
C455 C454 1.391 . S
H456 C464 0.950 . S
H457 C469 0.950 . S
H458 C466 0.950 . S
H459 C468 0.950 . S
H460 C470 0.950 . S
H461 C472 0.950 . S
H462 C474 0.950 . S
H463 C475 0.950 1_545 S
C464 H456 0.950 . S
C464 C465 1.386 . S
C464 C466 1.391 . S
C465 C464 1.386 . S
C465 C469 1.393 . S
C466 H458 0.950 . S
C466 C464 1.391 . S
C466 C467 1.400 . S
C467 C466 1.400 . S
C467 C468 1.398 . S
C467 C473 1.491 . S
C468 H459 0.950 . S
C468 C467 1.398 . S
C468 C469 1.391 . S
C469 H457 0.950 . S
C469 C465 1.393 . S
C469 C468 1.391 . S
C470 H460 0.950 . S
C470 C471 1.386 . S
C470 C472 1.391 . S
C471 C470 1.386 . S
C471 C475 1.393 . S
C472 H461 0.950 . S
C472 C470 1.391 . S
C472 C473 1.400 . S
C473 C467 1.491 . S
C473 C472 1.400 . S
C473 C474 1.398 . S
C474 H462 0.950 . S
C474 C473 1.398 . S
C474 C475 1.391 . S
C475 H463 0.950 1_565 S
C475 C471 1.393 . S
C475 C474 1.391 . S
H476 C484 0.950 . S
H477 C489 0.950 . S
H478 C486 0.950 . S
H479 C488 0.950 . S
H480 C490 0.950 . S
H481 C492 0.950 . S
H482 C494 0.950 . S
H483 C495 0.950 . S
C484 H476 0.950 . S
C484 C485 1.386 . S
C484 C486 1.391 . S
C485 C484 1.386 . S
C485 C489 1.393 . S
C486 H478 0.950 . S
C486 C484 1.391 . S
C486 C487 1.400 . S
C487 C486 1.400 . S
C487 C488 1.398 . S
C487 C493 1.491 . S
C488 H479 0.950 . S
C488 C487 1.398 . S
C488 C489 1.391 . S
C489 H477 0.950 . S
C489 C485 1.393 . S
C489 C488 1.391 . S
C490 H480 0.950 . S
C490 C491 1.386 . S
C490 C492 1.391 . S
C491 C490 1.386 . S
C491 C495 1.393 . S
C492 H481 0.950 . S
C492 C490 1.391 . S
C492 C493 1.400 . S
C493 C487 1.491 . S
C493 C492 1.400 . S
C493 C494 1.398 . S
C494 H482 0.950 . S
C494 C493 1.398 . S
C494 C495 1.391 . S
C495 H483 0.950 . S
C495 C491 1.393 . S
C495 C494 1.391 . S
H496 C504 0.950 . S
H497 C509 0.950 . S
H498 C506 0.950 . S
H499 C508 0.950 . S
H500 C510 0.950 . S
H501 C512 0.950 . S
H502 C514 0.950 . S
H503 C515 0.950 . S
C504 H496 0.950 . S
C504 C505 1.386 . S
C504 C506 1.391 . S
C505 C504 1.386 . S
C505 C509 1.393 . S
C506 H498 0.950 . S
C506 C504 1.391 . S
C506 C507 1.400 . S
C507 C506 1.400 . S
C507 C508 1.398 . S
C507 C513 1.491 . S
C508 H499 0.950 . S
C508 C507 1.398 . S
C508 C509 1.391 . S
C509 H497 0.950 . S
C509 C505 1.393 . S
C509 C508 1.391 . S
C510 H500 0.950 . S
C510 C511 1.386 . S
C510 C512 1.391 . S
C511 C510 1.386 . S
C511 C515 1.393 . S
C512 H501 0.950 . S
C512 C510 1.391 . S
C512 C513 1.400 . S
C513 C507 1.491 . S
C513 C512 1.400 . S
C513 C514 1.398 . S
C514 H502 0.950 . S
C514 C513 1.398 . S
C514 C515 1.391 . S
C515 H503 0.950 . S
C515 C511 1.393 . S
C515 C514 1.391 . S
H516 C524 0.950 . S
H517 C529 0.950 . S
H518 C526 0.950 . S
H519 C528 0.950 . S
H520 C530 0.950 . S
H521 C532 0.950 . S
H522 C534 0.950 . S
H523 C535 0.950 . S
C524 H516 0.950 . S
C524 C525 1.386 . S
C524 C526 1.391 . S
C525 C524 1.386 . S
C525 C529 1.393 . S
C526 H518 0.950 . S
C526 C524 1.391 . S
C526 C527 1.400 . S
C527 C526 1.400 . S
C527 C528 1.398 . S
C527 C533 1.491 . S
C528 H519 0.950 . S
C528 C527 1.398 . S
C528 C529 1.391 . S
C529 H517 0.950 . S
C529 C525 1.393 . S
C529 C528 1.391 . S
C530 H520 0.950 . S
C530 C531 1.386 . S
C530 C532 1.391 . S
C531 C530 1.386 . S
C531 C535 1.393 . S
C532 H521 0.950 . S
C532 C530 1.391 . S
C532 C533 1.400 . S
C533 C527 1.491 . S
C533 C532 1.400 . S
C533 C534 1.398 . S
C534 H522 0.950 . S
C534 C533 1.398 . S
C534 C535 1.391 . S
C535 H523 0.950 . S
C535 C531 1.393 . S
C535 C534 1.391 . S
H536 C544 0.949 . S
H537 C549 0.950 . S
H538 C546 0.950 1_545 S
H539 C548 0.950 . S
H540 C550 0.952 . S
H541 C552 0.950 . S
H542 C554 0.950 . S
H543 C555 0.950 . S
C544 H536 0.949 . S
C544 C545 1.386 . S
C544 C546 1.391 . S
C545 C544 1.386 . S
C545 C549 1.393 . S
C546 H538 0.950 1_565 S
C546 C544 1.391 . S
C546 C547 1.400 . S
C547 C546 1.400 . S
C547 C548 1.398 . S
C547 C553 1.491 . S
C548 H539 0.950 . S
C548 C547 1.398 . S
C548 C549 1.391 . S
C549 H537 0.950 . S
C549 C545 1.393 . S
C549 C548 1.391 . S
C550 H540 0.952 . S
C550 C551 1.386 . S
C550 C552 1.391 . S
C551 C550 1.386 . S
C551 C555 1.393 1_565 S
C552 H541 0.950 . S
C552 C550 1.391 . S
C552 C553 1.400 . S
C553 C547 1.491 . S
C553 C552 1.400 . S
C553 C554 1.398 1_565 S
C554 H542 0.950 . S
C554 C553 1.398 1_545 S
C554 C555 1.391 . S
C555 H543 0.950 . S
C555 C551 1.393 1_545 S
C555 C554 1.391 . S
H556 C564 0.950 . S
H557 C569 0.950 . S
H558 C566 0.950 . S
H559 C568 0.950 . S
H560 C570 0.950 . S
H561 C572 0.950 . S
H562 C574 0.950 . S
H563 C575 0.950 . S
C564 H556 0.950 . S
C564 C565 1.386 . S
C564 C566 1.391 . S
C565 C564 1.386 . S
C565 C569 1.393 . S
C566 H558 0.950 . S
C566 C564 1.391 . S
C566 C567 1.400 . S
C567 C566 1.400 . S
C567 C568 1.398 . S
C567 C573 1.491 . S
C568 H559 0.950 . S
C568 C567 1.398 . S
C568 C569 1.391 . S
C569 H557 0.950 . S
C569 C565 1.393 . S
C569 C568 1.391 . S
C570 H560 0.950 . S
C570 C571 1.386 . S
C570 C572 1.391 . S
C571 C570 1.386 . S
C571 C575 1.393 . S
C572 H561 0.950 . S
C572 C570 1.391 . S
C572 C573 1.400 . S
C573 C567 1.491 . S
C573 C572 1.400 . S
C573 C574 1.398 . S
C574 H562 0.950 . S
C574 C573 1.398 . S
C574 C575 1.391 . S
C575 H563 0.950 . S
C575 C571 1.393 . S
C575 C574 1.391 . S
H576 C584 0.950 . S
H577 C589 0.950 . S
H578 C586 0.950 . S
H579 C588 0.950 . S
H580 C590 0.950 . S
H581 C592 0.950 . S
H582 C594 0.950 . S
H583 C595 0.950 . S
C584 H576 0.950 . S
C584 C585 1.386 . S
C584 C586 1.391 . S
C585 C584 1.386 . S
C585 C589 1.393 . S
C586 H578 0.950 . S
C586 C584 1.391 . S
C586 C587 1.400 . S
C587 C586 1.400 . S
C587 C588 1.398 . S
C587 C593 1.491 . S
C588 H579 0.950 . S
C588 C587 1.398 . S
C588 C589 1.391 . S
C589 H577 0.950 . S
C589 C585 1.393 . S
C589 C588 1.391 . S
C590 H580 0.950 . S
C590 C591 1.386 . S
C590 C592 1.391 . S
C591 C590 1.386 . S
C591 C595 1.393 . S
C592 H581 0.950 . S
C592 C590 1.391 . S
C592 C593 1.400 . S
C593 C587 1.491 . S
C593 C592 1.400 . S
C593 C594 1.398 . S
C594 H582 0.950 . S
C594 C593 1.398 . S
C594 C595 1.391 . S
C595 H583 0.950 . S
C595 C591 1.393 . S
C595 C594 1.391 . S
H596 C604 0.950 . S
H597 C609 0.950 . S
H598 C606 0.950 . S
H599 C608 0.950 . S
H600 C610 0.950 . S
H601 C612 0.950 . S
H602 C614 0.950 . S
H603 C615 0.950 . S
C604 H596 0.950 . S
C604 C605 1.386 . S
C604 C606 1.391 . S
C605 C604 1.386 . S
C605 C609 1.393 . S
C606 H598 0.950 . S
C606 C604 1.391 . S
C606 C607 1.400 . S
C607 C606 1.400 . S
C607 C608 1.398 . S
C607 C613 1.491 . S
C608 H599 0.950 . S
C608 C607 1.398 . S
C608 C609 1.391 . S
C609 H597 0.950 . S
C609 C605 1.393 . S
C609 C608 1.391 . S
C610 H600 0.950 . S
C610 C611 1.386 . S
C610 C612 1.391 . S
C611 C610 1.386 . S
C611 C615 1.393 . S
C612 H601 0.950 . S
C612 C610 1.391 . S
C612 C613 1.400 . S
C613 C607 1.491 . S
C613 C612 1.400 . S
C613 C614 1.398 . S
C614 H602 0.950 . S
C614 C613 1.398 . S
C614 C615 1.391 . S
C615 H603 0.950 . S
C615 C611 1.393 . S
C615 C614 1.391 . S
H616 C624 0.950 . S
H617 C629 0.950 . S
H618 C626 0.950 . S
H619 C628 0.931 1_455 S
H620 C630 0.950 . S
H621 C632 0.940 1_455 S
H622 C634 0.950 . S
H623 C635 0.950 . S
C624 H616 0.950 . S
C624 C625 1.386 . S
C624 C626 1.391 . S
C625 C624 1.386 . S
C625 C629 1.393 . S
C626 H618 0.950 . S
C626 C624 1.391 . S
C626 C627 1.400 . S
C627 C626 1.400 . S
C627 C628 1.398 . S
C627 C633 1.491 . S
C628 H619 0.931 1_655 S
C628 C627 1.398 . S
C628 C629 1.391 . S
C629 H617 0.950 . S
C629 C625 1.393 . S
C629 C628 1.391 . S
C630 H620 0.950 . S
C630 C631 1.386 1_455 S
C630 C632 1.382 1_455 S
C631 C630 1.386 1_655 S
C631 C635 1.393 . S
C632 H621 0.940 1_655 S
C632 C630 1.382 1_655 S
C632 C633 1.419 . S
C633 C627 1.491 . S
C633 C632 1.419 . S
C633 C634 1.398 . S
C634 H622 0.950 . S
C634 C633 1.398 . S
C634 C635 1.391 . S
C635 H623 0.950 . S
C635 C631 1.393 . S
C635 C634 1.391 . S
H636 C644 0.950 . S
H637 C649 0.950 . S
H638 C646 0.950 . S
H639 C648 0.950 . S
H640 C650 0.950 . S
H641 C652 0.950 . S
H642 C654 0.950 . S
H643 C655 0.950 . S
C644 H636 0.950 . S
C644 C645 1.386 . S
C644 C646 1.391 . S
C645 C644 1.386 . S
C645 C649 1.393 . S
C646 H638 0.950 . S
C646 C644 1.391 . S
C646 C647 1.400 . S
C647 C646 1.400 . S
C647 C648 1.398 . S
C647 C653 1.491 . S
C648 H639 0.950 . S
C648 C647 1.398 . S
C648 C649 1.391 . S
C649 H637 0.950 . S
C649 C645 1.393 . S
C649 C648 1.391 . S
C650 H640 0.950 . S
C650 C651 1.386 . S
C650 C652 1.391 . S
C651 C650 1.386 . S
C651 C655 1.393 . S
C652 H641 0.950 . S
C652 C650 1.391 . S
C652 C653 1.400 . S
C653 C647 1.491 . S
C653 C652 1.400 . S
C653 C654 1.398 . S
C654 H642 0.950 . S
C654 C653 1.398 . S
C654 C655 1.391 . S
C655 H643 0.950 . S
C655 C651 1.393 . S
C655 C654 1.391 . S
H656 C664 0.950 . S
H657 C669 0.950 . S
H658 C666 0.950 . S
H659 C668 0.950 . S
H660 C670 0.950 . S
H661 C672 0.950 . S
H662 C674 0.932 1_655 S
H663 C675 0.950 1_655 S
C664 H656 0.950 . S
C664 C665 1.386 . S
C664 C666 1.391 . S
C665 C664 1.386 . S
C665 C669 1.393 . S
C666 H658 0.950 . S
C666 C664 1.391 . S
C666 C667 1.400 . S
C667 C666 1.400 . S
C667 C668 1.398 . S
C667 C673 1.491 . S
C668 H659 0.950 . S
C668 C667 1.398 . S
C668 C669 1.391 . S
C669 H657 0.950 . S
C669 C665 1.393 . S
C669 C668 1.391 . S
C670 H660 0.950 . S
C670 C671 1.386 . S
C670 C672 1.391 . S
C671 C670 1.386 . S
C671 C675 1.393 . S
C672 H661 0.950 . S
C672 C670 1.391 . S
C672 C673 1.400 . S
C673 C667 1.491 . S
C673 C672 1.400 . S
C673 C674 1.398 . S
C674 H662 0.932 1_455 S
C674 C673 1.398 . S
C674 C675 1.391 . S
C675 H663 0.950 1_455 S
C675 C671 1.393 . S
C675 C674 1.391 . S
H676 C684 0.950 . S
H677 C689 0.950 . S
H678 C686 0.950 . S
H679 C688 0.950 . S
H680 C690 0.950 . S
H681 C692 0.950 . S
H682 C694 0.950 . S
H683 C695 0.950 . S
C684 H676 0.950 . S
C684 C685 1.386 . S
C684 C686 1.391 . S
C685 C684 1.386 . S
C685 C689 1.393 . S
C686 H678 0.950 . S
C686 C684 1.391 . S
C686 C687 1.400 . S
C687 C686 1.400 . S
C687 C688 1.398 . S
C687 C693 1.491 . S
C688 H679 0.950 . S
C688 C687 1.398 . S
C688 C689 1.391 . S
C689 H677 0.950 . S
C689 C685 1.393 . S
C689 C688 1.391 . S
C690 H680 0.950 . S
C690 C691 1.386 . S
C690 C692 1.391 . S
C691 C690 1.386 . S
C691 C695 1.393 . S
C692 H681 0.950 . S
C692 C690 1.391 . S
C692 C693 1.400 . S
C693 C687 1.491 . S
C693 C692 1.400 . S
C693 C694 1.398 . S
C694 H682 0.950 . S
C694 C693 1.398 . S
C694 C695 1.391 . S
C695 H683 0.950 . S
C695 C691 1.393 . S
C695 C694 1.391 . S
C225 C6 2.324 . S
C231 C112 2.332 . S
C245 C18 1.365 . S
C251 N132 1.357 . S
C271 C166 2.011 . S
C265 C28 1.990 . S
C285 C40 0.863 . S
C291 N200 0.860 . S
C311 C153 2.572 . S
C305 C9 2.562 . S
C331 N110 1.082 . S
C325 C16 1.120 . S
C351 C187 2.013 1_556 S
C345 C30 2.010 . S
C371 N162 0.811 . S
C365 C42 0.808 . S
C385 C4 1.770 . S
C391 C202 1.790 . S
C411 C136 1.722 . S
C405 C33 1.711 . S
C425 C45 1.111 . S
C431 C97 1.126 . S
C445 C21 1.674 . S
C451 C183 1.699 . S
C471 C123 2.378 . S
C465 C57 2.375 . S
C485 C66 1.354 . S
C491 N140 1.328 . S
C505 C76 2.039 . S
C511 C157 2.052 . S
C525 C88 0.800 . S
C531 N192 0.787 . S
C545 C54 2.530 . S
C551 C142 2.529 1_565 S
C571 N102 1.126 . S
C565 C64 1.151 . S
C591 C196 1.906 . S
C585 C78 1.883 . S
C611 N170 0.833 . S
C605 C93 0.822 . S
C625 C52 1.707 . S
C631 C213 1.737 . S
C651 C127 1.726 . S
C645 C81 1.707 . S
C671 C106 1.126 . S
C665 C90 1.128 . S
C685 C69 1.727 . S
C691 C172 1.741 . S
