# Generated by pormake.
# Topology eea, (3,6)-cn, num edge types: 1
# Building blocks:
#     Node 0, Type 0, BuildingBlock: KAKCAD_clean_linker_0, # of connection points: 3
#     Node 1, Type 0, BuildingBlock: KAKCAD_clean_linker_0, # of connection points: 3
#     Node 2, Type 0, BuildingBlock: KAKCAD_clean_linker_0, # of connection points: 3
#     Node 3, Type 0, BuildingBlock: KAKCAD_clean_linker_0, # of connection points: 3
#     Node 4, Type 0, BuildingBlock: KAKCAD_clean_linker_0, # of connection points: 3
#     Node 5, Type 0, BuildingBlock: KAKCAD_clean_linker_0, # of connection points: 3
#     Node 6, Type 0, BuildingBlock: KAKCAD_clean_linker_0, # of connection points: 3
#     Node 7, Type 0, BuildingBlock: KAKCAD_clean_linker_0, # of connection points: 3
#     Node 8, Type 0, BuildingBlock: KAKCAD_clean_linker_0, # of connection points: 3
#     Node 9, Type 0, BuildingBlock: KAKCAD_clean_linker_0, # of connection points: 3
#     Node 10, Type 0, BuildingBlock: KAKCAD_clean_linker_0, # of connection points: 3
#     Node 11, Type 0, BuildingBlock: KAKCAD_clean_linker_0, # of connection points: 3
#     Node 12, Type 0, BuildingBlock: KAKCAD_clean_linker_0, # of connection points: 3
#     Node 13, Type 0, BuildingBlock: KAKCAD_clean_linker_0, # of connection points: 3
#     Node 14, Type 0, BuildingBlock: KAKCAD_clean_linker_0, # of connection points: 3
#     Node 15, Type 0, BuildingBlock: KAKCAD_clean_linker_0, # of connection points: 3
#     Node 16, Type 0, BuildingBlock: KAKCAD_clean_linker_0, # of connection points: 3
#     Node 17, Type 0, BuildingBlock: KAKCAD_clean_linker_0, # of connection points: 3
#     Node 18, Type 1, BuildingBlock: HISSIN_clean_sbu_0, # of connection points: 6
#     Node 19, Type 1, BuildingBlock: HISSIN_clean_sbu_0, # of connection points: 6
#     Node 20, Type 1, BuildingBlock: HISSIN_clean_sbu_0, # of connection points: 6
#     Node 21, Type 1, BuildingBlock: HISSIN_clean_sbu_0, # of connection points: 6
#     Node 22, Type 1, BuildingBlock: HISSIN_clean_sbu_0, # of connection points: 6
#     Node 23, Type 1, BuildingBlock: HISSIN_clean_sbu_0, # of connection points: 6
#     Node 24, Type 1, BuildingBlock: HISSIN_clean_sbu_0, # of connection points: 6
#     Node 25, Type 1, BuildingBlock: HISSIN_clean_sbu_0, # of connection points: 6
#     Node 26, Type 1, BuildingBlock: HISSIN_clean_sbu_0, # of connection points: 6
#     Edge 27, Type (0, 1), BuildingBlock: OJICUG_clean_linker_0, # of connection points: 2
#     Edge 28, Type (0, 1), BuildingBlock: OJICUG_clean_linker_0, # of connection points: 2
#     Edge 29, Type (0, 1), BuildingBlock: OJICUG_clean_linker_0, # of connection points: 2
#     Edge 30, Type (0, 1), BuildingBlock: OJICUG_clean_linker_0, # of connection points: 2
#     Edge 31, Type (0, 1), BuildingBlock: OJICUG_clean_linker_0, # of connection points: 2
#     Edge 32, Type (0, 1), BuildingBlock: OJICUG_clean_linker_0, # of connection points: 2
#     Edge 33, Type (0, 1), BuildingBlock: OJICUG_clean_linker_0, # of connection points: 2
#     Edge 34, Type (0, 1), BuildingBlock: OJICUG_clean_linker_0, # of connection points: 2
#     Edge 35, Type (0, 1), BuildingBlock: OJICUG_clean_linker_0, # of connection points: 2
#     Edge 36, Type (0, 1), BuildingBlock: OJICUG_clean_linker_0, # of connection points: 2
#     Edge 37, Type (0, 1), BuildingBlock: OJICUG_clean_linker_0, # of connection points: 2
#     Edge 38, Type (0, 1), BuildingBlock: OJICUG_clean_linker_0, # of connection points: 2
#     Edge 39, Type (0, 1), BuildingBlock: OJICUG_clean_linker_0, # of connection points: 2
#     Edge 40, Type (0, 1), BuildingBlock: OJICUG_clean_linker_0, # of connection points: 2
#     Edge 41, Type (0, 1), BuildingBlock: OJICUG_clean_linker_0, # of connection points: 2
#     Edge 42, Type (0, 1), BuildingBlock: OJICUG_clean_linker_0, # of connection points: 2
#     Edge 43, Type (0, 1), BuildingBlock: OJICUG_clean_linker_0, # of connection points: 2
#     Edge 44, Type (0, 1), BuildingBlock: OJICUG_clean_linker_0, # of connection points: 2
#     Edge 45, Type (0, 1), BuildingBlock: OJICUG_clean_linker_0, # of connection points: 2
#     Edge 46, Type (0, 1), BuildingBlock: OJICUG_clean_linker_0, # of connection points: 2
#     Edge 47, Type (0, 1), BuildingBlock: OJICUG_clean_linker_0, # of connection points: 2
#     Edge 48, Type (0, 1), BuildingBlock: OJICUG_clean_linker_0, # of connection points: 2
#     Edge 49, Type (0, 1), BuildingBlock: OJICUG_clean_linker_0, # of connection points: 2
#     Edge 50, Type (0, 1), BuildingBlock: OJICUG_clean_linker_0, # of connection points: 2
#     Edge 51, Type (0, 1), BuildingBlock: OJICUG_clean_linker_0, # of connection points: 2
#     Edge 52, Type (0, 1), BuildingBlock: OJICUG_clean_linker_0, # of connection points: 2
#     Edge 53, Type (0, 1), BuildingBlock: OJICUG_clean_linker_0, # of connection points: 2
#     Edge 54, Type (0, 1), BuildingBlock: OJICUG_clean_linker_0, # of connection points: 2
#     Edge 55, Type (0, 1), BuildingBlock: OJICUG_clean_linker_0, # of connection points: 2
#     Edge 56, Type (0, 1), BuildingBlock: OJICUG_clean_linker_0, # of connection points: 2
#     Edge 57, Type (0, 1), BuildingBlock: OJICUG_clean_linker_0, # of connection points: 2
#     Edge 58, Type (0, 1), BuildingBlock: OJICUG_clean_linker_0, # of connection points: 2
#     Edge 59, Type (0, 1), BuildingBlock: OJICUG_clean_linker_0, # of connection points: 2
#     Edge 60, Type (0, 1), BuildingBlock: OJICUG_clean_linker_0, # of connection points: 2
#     Edge 61, Type (0, 1), BuildingBlock: OJICUG_clean_linker_0, # of connection points: 2
#     Edge 62, Type (0, 1), BuildingBlock: OJICUG_clean_linker_0, # of connection points: 2
#     Edge 63, Type (0, 1), BuildingBlock: OJICUG_clean_linker_0, # of connection points: 2
#     Edge 64, Type (0, 1), BuildingBlock: OJICUG_clean_linker_0, # of connection points: 2
#     Edge 65, Type (0, 1), BuildingBlock: OJICUG_clean_linker_0, # of connection points: 2
#     Edge 66, Type (0, 1), BuildingBlock: OJICUG_clean_linker_0, # of connection points: 2
#     Edge 67, Type (0, 1), BuildingBlock: OJICUG_clean_linker_0, # of connection points: 2
#     Edge 68, Type (0, 1), BuildingBlock: OJICUG_clean_linker_0, # of connection points: 2
#     Edge 69, Type (0, 1), BuildingBlock: OJICUG_clean_linker_0, # of connection points: 2
#     Edge 70, Type (0, 1), BuildingBlock: OJICUG_clean_linker_0, # of connection points: 2
#     Edge 71, Type (0, 1), BuildingBlock: OJICUG_clean_linker_0, # of connection points: 2
#     Edge 72, Type (0, 1), BuildingBlock: OJICUG_clean_linker_0, # of connection points: 2
#     Edge 73, Type (0, 1), BuildingBlock: OJICUG_clean_linker_0, # of connection points: 2
#     Edge 74, Type (0, 1), BuildingBlock: OJICUG_clean_linker_0, # of connection points: 2
#     Edge 75, Type (0, 1), BuildingBlock: OJICUG_clean_linker_0, # of connection points: 2
#     Edge 76, Type (0, 1), BuildingBlock: OJICUG_clean_linker_0, # of connection points: 2
#     Edge 77, Type (0, 1), BuildingBlock: OJICUG_clean_linker_0, # of connection points: 2
#     Edge 78, Type (0, 1), BuildingBlock: OJICUG_clean_linker_0, # of connection points: 2
#     Edge 79, Type (0, 1), BuildingBlock: OJICUG_clean_linker_0, # of connection points: 2
#     Edge 80, Type (0, 1), BuildingBlock: OJICUG_clean_linker_0, # of connection points: 2
# Relax obj value: 0.034
# Max RMSD: 0.132
# Mean RMSD: 0.087
data_MOF--net-eea--node1-HISSIN_clean_sbu_0--node2-KAKCAD_clean_linker_0--edge1-OJICUG_clean_linker_0
_symmetry_space_group_name_H-M    P1
_symmetry_Int_Tables_number       1
_symmetry_cell_setting            triclinic
loop_
_symmetry_equiv_pos_as_xyz
'x, y, z'
_cell_length_a     48.456886
_cell_length_b     48.755772
_cell_length_c     73.961336
_cell_angle_alpha  93.423982
_cell_angle_beta   92.960378
_cell_angle_gamma 119.92045
loop_
_atom_site_label
_atom_site_type_symbol
_atom_site_fract_x
_atom_site_fract_y
_atom_site_fract_z
_atom_type_partial_charge
C0 C 0.32558 0.19095 0.48685 0.0
C1 C 0.34604 0.17994 0.4927 0.0
C2 C 0.31344 0.18531 0.46863 0.0
C3 C 0.32168 0.16871 0.45584 0.0
C4 C 0.34337 0.15905 0.46157 0.0
C5 C 0.35531 0.16448 0.47982 0.0
C6 C 0.30559 0.15923 0.43702 0.0
C7 C 0.29857 0.17978 0.42783 0.0
C8 C 0.27997 0.16946 0.41095 0.0
C9 C 0.26915 0.13841 0.4031 0.0
C10 C 0.27666 0.11792 0.41185 0.0
C11 C 0.29487 0.12846 0.42876 0.0
C12 C 0.26419 0.08493 0.40373 0.0
C13 C 0.23193 0.06608 0.39693 0.0
C14 C 0.28437 0.07203 0.40282 0.0
C15 C 0.27256 0.04093 0.39509 0.0
C16 C 0.24027 0.02202 0.38823 0.0
C17 C 0.27002 0.19015 0.40201 0.0
C18 C 0.26216 0.20987 0.41248 0.0
C19 C 0.26649 0.189 0.38293 0.0
C20 C 0.2541 0.20601 0.37455 0.0
C21 C 0.24541 0.22504 0.38504 0.0
C22 C 0.25031 0.22729 0.40411 0.0
C23 C 0.22007 0.03493 0.38932 0.0
H24 H 0.31775 0.20263 0.49651 0.0
H25 H 0.29644 0.19267 0.46477 0.0
H26 H 0.35065 0.14672 0.45201 0.0
H27 H 0.37144 0.15616 0.48393 0.0
H28 H 0.30745 0.20379 0.43394 0.0
H29 H 0.29926 0.11202 0.43589 0.0
H30 H 0.25426 0.12979 0.3903 0.0
H31 H 0.21573 0.07528 0.39774 0.0
H32 H 0.3094 0.08618 0.40785 0.0
H33 H 0.28889 0.0319 0.39422 0.0
H34 H 0.26419 0.21119 0.4272 0.0
H35 H 0.27287 0.17458 0.37439 0.0
H36 H 0.19495 0.02085 0.3845 0.0
H37 H 0.24466 0.24229 0.41267 0.0
H38 H 0.25053 0.20346 0.35984 0.0
C39 C 0.88289 0.18395 0.48943 0.0
C40 C 0.87346 0.16082 0.50191 0.0
C41 C 0.89071 0.17821 0.47217 0.0
C42 C 0.88899 0.14917 0.46704 0.0
C43 C 0.8811 0.12676 0.47977 0.0
C44 C 0.87363 0.13258 0.49702 0.0
C45 C 0.89186 0.1405 0.44796 0.0
C46 C 0.91878 0.15991 0.43891 0.0
C47 C 0.92099 0.15086 0.42079 0.0
C48 C 0.89543 0.12242 0.41186 0.0
C49 C 0.86854 0.10279 0.42079 0.0
C50 C 0.86699 0.11213 0.43881 0.0
C51 C 0.84246 0.07213 0.41144 0.0
C52 C 0.83238 0.06968 0.39295 0.0
C53 C 0.82802 0.04482 0.42087 0.0
C54 C 0.80449 0.01567 0.41194 0.0
C55 C 0.79511 0.01313 0.39335 0.0
C56 C 0.94974 0.17059 0.41102 0.0
C57 C 0.96638 0.20398 0.41392 0.0
C58 C 0.96021 0.15608 0.39819 0.0
C59 C 0.98555 0.17433 0.38802 0.0
C60 C 1.00192 0.20774 0.39068 0.0
C61 C 0.99227 0.22226 0.40403 0.0
C62 C 0.80907 0.04045 0.38398 0.0
H63 H 0.88289 0.2059 0.49269 0.0
H64 H 0.89651 0.19576 0.46252 0.0
H65 H 0.87995 0.10431 0.47619 0.0
H66 H 0.86741 0.11461 0.50642 0.0
H67 H 0.93823 0.18142 0.44621 0.0
H68 H 0.846 0.09753 0.4457 0.0
H69 H 0.89649 0.11529 0.39789 0.0
H70 H 0.84251 0.09034 0.38537 0.0
H71 H 0.83553 0.04572 0.43505 0.0
H72 H 0.79438 0.99489 0.41943 0.0
H73 H 0.95909 0.21615 0.42358 0.0
H74 H 0.94875 0.13046 0.39586 0.0
H75 H 0.80196 0.0392 0.36969 0.0
H76 H 0.00466 0.24786 0.40692 0.0
H77 H 0.99182 0.16203 0.37783 0.0
C78 C 0.89282 0.72203 0.49435 0.0
C79 C 0.86096 0.70195 0.498 0.0
C80 C 0.89984 0.73491 0.47758 0.0
C81 C 0.87516 0.72789 0.46399 0.0
C82 C 0.84338 0.70702 0.46751 0.0
C83 C 0.83639 0.69438 0.48428 0.0
C84 C 0.88213 0.74303 0.44648 0.0
C85 C 0.909 0.74791 0.43747 0.0
C86 C 0.91534 0.76218 0.42095 0.0
C87 C 0.89412 0.77136 0.41355 0.0
C88 C 0.86704 0.76647 0.42216 0.0
C89 C 0.86158 0.75268 0.43871 0.0
C90 C 0.84414 0.77517 0.41363 0.0
C91 C 0.85512 0.80242 0.40415 0.0
C92 C 0.81095 0.75572 0.41442 0.0
C93 C 0.78939 0.76311 0.40582 0.0
C94 C 0.80043 0.7899 0.39602 0.0
C95 C 0.94401 0.76784 0.41131 0.0
C96 C 0.97326 0.77614 0.42107 0.0
C97 C 0.94273 0.76629 0.39218 0.0
C98 C 0.97002 0.77415 0.38314 0.0
C99 C 0.99948 0.78307 0.39287 0.0
C100 C 1.00047 0.78336 0.41199 0.0
C101 C 0.83353 0.80955 0.39535 0.0
H102 H 0.91233 0.72853 0.50465 0.0
H103 H 0.92456 0.75109 0.47547 0.0
H104 H 0.82373 0.70036 0.45728 0.0
H105 H 0.81163 0.67849 0.48646 0.0
H106 H 0.92447 0.73984 0.44309 0.0
H107 H 0.8415 0.75004 0.44578 0.0
H108 H 0.89862 0.78236 0.40093 0.0
H109 H 0.88046 0.81839 0.40355 0.0
H110 H 0.80147 0.73427 0.42131 0.0
H111 H 0.76399 0.74735 0.40642 0.0
H112 H 0.97548 0.77782 0.43578 0.0
H113 H 0.9206 0.75918 0.38402 0.0
H114 H 0.84276 0.83062 0.38812 0.0
H115 H 0.02231 0.78927 0.42008 0.0
H116 H 0.96795 0.77385 0.36849 0.0
C117 C 0.14192 0.25879 0.51702 0.0
C118 C 0.13791 0.28469 0.51342 0.0
C119 C 0.13549 0.24608 0.53379 0.0
C120 C 0.12461 0.25871 0.54742 0.0
C121 C 0.11972 0.284 0.5437 0.0
C122 C 0.12638 0.2969 0.52695 0.0
C123 C 0.11983 0.24645 0.5657 0.0
C124 C 0.14271 0.24059 0.57429 0.0
C125 C 0.13937 0.2303 0.59177 0.0
C126 C 0.11262 0.22541 0.60066 0.0
C127 C 0.08866 0.22989 0.59214 0.0
C128 C 0.09278 0.24086 0.57469 0.0
C129 C 0.05932 0.22249 0.60146 0.0
C130 C 0.04601 0.19693 0.61234 0.0
C131 C 0.04445 0.24085 0.59974 0.0
C132 C 0.01727 0.23396 0.60874 0.0
C133 C 0.00449 0.2088 0.61985 0.0
C134 C 0.16363 0.2242 0.60073 0.0
C135 C 0.17153 0.20293 0.59207 0.0
C136 C 0.17843 0.23898 0.61817 0.0
C137 C 0.20078 0.23265 0.62678 0.0
C138 C 0.20814 0.21087 0.61827 0.0
C139 C 0.19332 0.19603 0.60086 0.0
C140 C 0.01916 0.19037 0.62151 0.0
H141 H 0.14999 0.24818 0.50685 0.0
H142 H 0.13902 0.22626 0.53609 0.0
H143 H 0.11168 0.29449 0.55397 0.0
H144 H 0.12331 0.31703 0.52482 0.0
H145 H 0.16373 0.24493 0.56761 0.0
H146 H 0.07454 0.24421 0.56782 0.0
H147 H 0.11044 0.21777 0.61423 0.0
H148 H 0.0561 0.18164 0.61366 0.0
H149 H 0.05411 0.26094 0.59172 0.0
H150 H 0.00659 0.24874 0.60729 0.0
H151 H 0.16031 0.19113 0.57867 0.0
H152 H 0.17276 0.25551 0.6251 0.0
H153 H 0.00955 0.17047 0.62971 0.0
H154 H 0.19871 0.1792 0.59405 0.0
H155 H 0.21186 0.24425 0.64024 0.0
C156 C 0.66995 0.80806 0.52802 0.0
C157 C 0.68304 0.83237 0.51634 0.0
C158 C 0.68247 0.81362 0.54621 0.0
C159 C 0.70809 0.84362 0.55302 0.0
C160 C 0.72174 0.86754 0.54123 0.0
C161 C 0.70946 0.86196 0.5231 0.0
C162 C 0.71991 0.85079 0.57253 0.0
C163 C 0.72832 0.83104 0.58146 0.0
C164 C 0.74121 0.83911 0.59979 0.0
C165 C 0.74513 0.8671 0.60904 0.0
C166 C 0.7374 0.88732 0.60013 0.0
C167 C 0.72421 0.8786 0.58199 0.0
C168 C 0.74538 0.91868 0.60927 0.0
C169 C 0.74174 0.92231 0.62786 0.0
C170 C 0.75826 0.94565 0.59953 0.0
C171 C 0.7675 0.97553 0.60817 0.0
C172 C 0.76445 0.9792 0.62678 0.0
C173 C 0.75204 0.81935 0.60908 0.0
C174 C 0.73584 0.78612 0.60514 0.0
C175 C 0.77895 0.8337 0.62198 0.0
C176 C 0.78892 0.81537 0.63097 0.0
C177 C 0.77294 0.78217 0.62694 0.0
C178 C 0.74635 0.76782 0.6138 0.0
C179 C 0.7514 0.95236 0.63656 0.0
H180 H 0.64948 0.78505 0.52327 0.0
H181 H 0.6715 0.79485 0.55508 0.0
H182 H 0.74191 0.89072 0.54609 0.0
H183 H 0.72069 0.88091 0.51437 0.0
H184 H 0.72608 0.81023 0.57386 0.0
H185 H 0.71741 0.89365 0.5751 0.0
H186 H 0.75507 0.8737 0.6231 0.0
H187 H 0.73151 0.90197 0.63569 0.0
H188 H 0.76211 0.9439 0.58532 0.0
H189 H 0.77792 0.99595 0.60039 0.0
H190 H 0.71485 0.77409 0.59545 0.0
H191 H 0.79269 0.85925 0.62512 0.0
H192 H 0.74857 0.95464 0.65091 0.0
H193 H 0.7337 0.74243 0.61 0.0
H194 H 0.80913 0.82741 0.64118 0.0
C195 C 0.11074 0.81471 0.5196 0.0
C196 C 0.14208 0.82345 0.51573 0.0
C197 C 0.10447 0.82111 0.53716 0.0
C198 C 0.12943 0.83642 0.5512 0.0
C199 C 0.16049 0.84405 0.54746 0.0
C200 C 0.16675 0.83778 0.52997 0.0
C201 C 0.12384 0.84622 0.56945 0.0
C202 C 0.09676 0.82605 0.57817 0.0
C203 C 0.09247 0.83557 0.59564 0.0
C204 C 0.11537 0.86552 0.60429 0.0
C205 C 0.14201 0.88635 0.59555 0.0
C206 C 0.14593 0.87646 0.57814 0.0
C207 C 0.16541 0.91868 0.60436 0.0
C208 C 0.15499 0.93651 0.61456 0.0
C209 C 0.19829 0.93221 0.60238 0.0
C210 C 0.22015 0.96287 0.61031 0.0
C211 C 0.20965 0.98043 0.62059 0.0
C212 C 0.06369 0.81489 0.60482 0.0
C213 C 0.03307 0.80223 0.59575 0.0
C214 C 0.06658 0.80927 0.62304 0.0
C215 C 0.03935 0.79147 0.63206 0.0
C216 C 0.00856 0.77923 0.62313 0.0
C217 C 0.00584 0.78484 0.60482 0.0
C218 C 0.17691 0.96697 0.62269 0.0
H219 H 0.09107 0.80321 0.50902 0.0
H220 H 0.0803 0.81501 0.53958 0.0
H221 H 0.18018 0.85541 0.55804 0.0
H222 H 0.19122 0.84517 0.52751 0.0
H223 H 0.07942 0.80272 0.57159 0.0
H224 H 0.16587 0.89273 0.57107 0.0
H225 H 0.11211 0.87276 0.61777 0.0
H226 H 0.12983 0.92717 0.61607 0.0
H227 H 0.20724 0.919 0.59488 0.0
H228 H 0.24534 0.97261 0.60869 0.0
H229 H 0.03018 0.80665 0.58179 0.0
H230 H 0.08997 0.81862 0.63031 0.0
H231 H 0.1682 0.98022 0.63041 0.0
H232 H 0.98265 0.77641 0.59755 0.0
H233 H 0.0425 0.78718 0.64601 0.0
C234 C 0.98876 0.5219 0.82042 0.0
C235 C 0.0103 0.51222 0.82631 0.0
C236 C 0.97713 0.51647 0.80212 0.0
C237 C 0.98701 0.50145 0.7893 0.0
C238 C 0.00947 0.49282 0.79514 0.0
C239 C 0.02088 0.49801 0.81346 0.0
C240 C 0.97262 0.4932 0.77014 0.0
C241 C 0.96563 0.51395 0.76121 0.0
C242 C 0.95021 0.50521 0.7435 0.0
C243 C 0.94248 0.47579 0.73451 0.0
C244 C 0.94873 0.45446 0.74332 0.0
C245 C 0.96391 0.46345 0.7611 0.0
C246 C 0.93733 0.42194 0.73455 0.0
C247 C 0.90739 0.405 0.72428 0.0
C248 C 0.95557 0.40705 0.73699 0.0
C249 C 0.94387 0.37578 0.72961 0.0
C250 C 0.91394 0.35898 0.71944 0.0
C251 C 0.93948 0.52541 0.735 0.0
C252 C 0.92249 0.53662 0.74482 0.0
C253 C 0.94434 0.53202 0.71684 0.0
C254 C 0.93238 0.54957 0.70864 0.0
C255 C 0.91503 0.56053 0.71842 0.0
C256 C 0.91024 0.5538 0.73661 0.0
C257 C 0.89593 0.37393 0.71671 0.0
H258 H 0.97994 0.53258 0.83008 0.0
H259 H 0.95949 0.52298 0.79816 0.0
H260 H 0.018 0.48172 0.78556 0.0
H261 H 0.03781 0.4907 0.81762 0.0
H262 H 0.97196 0.53688 0.76806 0.0
H263 H 0.96752 0.4466 0.76829 0.0
H264 H 0.93049 0.46905 0.72086 0.0
H265 H 0.89236 0.4154 0.72246 0.0
H266 H 0.9789 0.41955 0.7446 0.0
H267 H 0.95832 0.3648 0.73172 0.0
H268 H 0.91783 0.53128 0.75873 0.0
H269 H 0.95746 0.52367 0.709 0.0
H270 H 0.8726 0.3613 0.70908 0.0
H271 H 0.8964 0.5612 0.74444 0.0
H272 H 0.9369 0.5547 0.69471 0.0
C273 C 0.55673 0.52616 0.82294 0.0
C274 C 0.5467 0.50357 0.83572 0.0
C275 C 0.56219 0.51856 0.8054 0.0
C276 C 0.55732 0.48813 0.80027 0.0
C277 C 0.54797 0.46586 0.81319 0.0
C278 C 0.54277 0.47349 0.83069 0.0
C279 C 0.56032 0.47872 0.78132 0.0
C280 C 0.58699 0.4983 0.77215 0.0
C281 C 0.59012 0.48829 0.75449 0.0
C282 C 0.56596 0.45874 0.746 0.0
C283 C 0.53885 0.43921 0.75482 0.0
C284 C 0.5363 0.44945 0.77247 0.0
C285 C 0.51332 0.40805 0.74567 0.0
C286 C 0.50391 0.40475 0.72699 0.0
C287 C 0.4984 0.38127 0.75549 0.0
C288 C 0.47493 0.35184 0.74679 0.0
C289 C 0.4661 0.34848 0.72806 0.0
C290 C 0.61857 0.50838 0.74482 0.0
C291 C 0.62997 0.54105 0.74453 0.0
C292 C 0.63399 0.49479 0.73537 0.0
C293 C 0.66016 0.51343 0.72579 0.0
C294 C 0.6715 0.54612 0.72537 0.0
C295 C 0.65601 0.55967 0.73486 0.0
C296 C 0.48065 0.37527 0.71828 0.0
H297 H 0.56019 0.54962 0.82646 0.0
H298 H 0.56928 0.53614 0.79569 0.0
H299 H 0.54432 0.44231 0.80969 0.0
H300 H 0.53474 0.45543 0.84012 0.0
H301 H 0.60576 0.52078 0.77896 0.0
H302 H 0.51522 0.43484 0.77928 0.0
H303 H 0.56833 0.45091 0.73244 0.0
H304 H 0.51441 0.42498 0.71909 0.0
H305 H 0.50537 0.38284 0.76983 0.0
H306 H 0.46436 0.33148 0.75461 0.0
H307 H 0.61831 0.55211 0.75147 0.0
H308 H 0.62601 0.46973 0.73553 0.0
H309 H 0.47399 0.37343 0.70386 0.0
H310 H 0.6637 0.58464 0.73461 0.0
H311 H 0.6718 0.50228 0.71894 0.0
C312 C 0.56213 0.05596 0.82798 0.0
C313 C 0.53037 0.03479 0.83132 0.0
C314 C 0.56904 0.06985 0.81151 0.0
C315 C 0.54436 0.06272 0.79789 0.0
C316 C 0.51269 0.04083 0.80111 0.0
C317 C 0.5058 0.02722 0.8176 0.0
C318 C 0.55125 0.07842 0.78057 0.0
C319 C 0.5788 0.08477 0.77187 0.0
C320 C 0.58479 0.09901 0.75538 0.0
C321 C 0.56277 0.1068 0.74764 0.0
C322 C 0.53527 0.10095 0.75609 0.0
C323 C 0.52994 0.08702 0.77261 0.0
C324 C 0.51202 0.10908 0.74747 0.0
C325 C 0.52274 0.13649 0.73816 0.0
C326 C 0.47885 0.08908 0.74804 0.0
C327 C 0.45707 0.09612 0.73938 0.0
C328 C 0.46789 0.12309 0.72975 0.0
C329 C 0.614 0.10607 0.74611 0.0
C330 C 0.64396 0.11872 0.75614 0.0
C331 C 0.61236 0.1015 0.72701 0.0
C332 C 0.63995 0.10999 0.71817 0.0
C333 C 0.66996 0.12307 0.72816 0.0
C334 C 0.67158 0.12708 0.74727 0.0
C335 C 0.50095 0.14326 0.7293 0.0
H336 H 0.5816 0.06249 0.83832 0.0
H337 H 0.59367 0.08681 0.80966 0.0
H338 H 0.49307 0.03405 0.79084 0.0
H339 H 0.48114 0.01057 0.81958 0.0
H340 H 0.59515 0.07785 0.77764 0.0
H341 H 0.50938 0.08345 0.7795 0.0
H342 H 0.56711 0.11752 0.73492 0.0
H343 H 0.54804 0.15288 0.73774 0.0
H344 H 0.46961 0.06753 0.75481 0.0
H345 H 0.4317 0.08 0.73982 0.0
H346 H 0.64622 0.12295 0.77082 0.0
H347 H 0.58965 0.09122 0.71884 0.0
H348 H 0.50998 0.16448 0.72222 0.0
H349 H 0.69434 0.13734 0.7554 0.0
H350 H 0.6377 0.10594 0.70347 0.0
C351 C 0.80871 0.60312 0.85064 0.0
C352 C 0.80486 0.62918 0.84738 0.0
C353 C 0.80211 0.58993 0.86725 0.0
C354 C 0.79118 0.60222 0.88103 0.0
C355 C 0.78691 0.62805 0.87775 0.0
C356 C 0.79395 0.64157 0.86115 0.0
C357 C 0.78466 0.58797 0.89873 0.0
C358 C 0.80675 0.58106 0.90736 0.0
C359 C 0.80019 0.56501 0.92322 0.0
C360 C 0.77068 0.5559 0.9303 0.0
C361 C 0.74902 0.56398 0.92243 0.0
C362 C 0.75618 0.58019 0.90669 0.0
C363 C 0.71894 0.55519 0.93089 0.0
C364 C 0.69651 0.52309 0.93222 0.0
C365 C 0.71365 0.57882 0.93889 0.0
C366 C 0.68676 0.57048 0.94848 0.0
C367 C 0.66435 0.53835 0.94989 0.0
C368 C 0.82411 0.5581 0.93247 0.0
C369 C 0.846 0.55376 0.9226 0.0
C370 C 0.82557 0.55607 0.95138 0.0
C371 C 0.84768 0.54953 0.96004 0.0
C372 C 0.87008 0.54594 0.95027 0.0
C373 C 0.86889 0.54832 0.93138 0.0
C374 C 0.66927 0.51474 0.94144 0.0
H375 H 0.81733 0.59317 0.84041 0.0
H376 H 0.80537 0.56986 0.86926 0.0
H377 H 0.77864 0.63812 0.88812 0.0
H378 H 0.79056 0.66152 0.85902 0.0
H379 H 0.82939 0.58882 0.90173 0.0
H380 H 0.73906 0.58565 0.90032 0.0
H381 H 0.7643 0.54259 0.94209 0.0
H382 H 0.70022 0.50449 0.92625 0.0
H383 H 0.7308 0.60372 0.93817 0.0
H384 H 0.68343 0.58913 0.95478 0.0
H385 H 0.84555 0.55438 0.908 0.0
H386 H 0.80985 0.55986 0.95973 0.0
H387 H 0.65245 0.48981 0.94237 0.0
H388 H 0.8858 0.54631 0.92322 0.0
H389 H 0.84686 0.54715 0.97448 0.0
C390 C 0.32888 0.13408 0.86288 0.0
C391 C 0.34308 0.15916 0.85176 0.0
C392 C 0.33997 0.13853 0.88128 0.0
C393 C 0.36521 0.16819 0.88887 0.0
C394 C 0.37995 0.19289 0.87766 0.0
C395 C 0.36912 0.1884 0.85932 0.0
C396 C 0.37575 0.17427 0.90856 0.0
C397 C 0.38408 0.15433 0.91734 0.0
C398 C 0.39701 0.16221 0.93564 0.0
C399 C 0.40102 0.19006 0.94508 0.0
C400 C 0.39283 0.21021 0.93643 0.0
C401 C 0.37959 0.20169 0.91828 0.0
C402 C 0.40043 0.24132 0.94582 0.0
C403 C 0.39763 0.24473 0.96456 0.0
C404 C 0.41203 0.26833 0.93612 0.0
C405 C 0.42071 0.29795 0.94491 0.0
C406 C 0.41855 0.30139 0.96364 0.0
C407 C 0.4082 0.14257 0.94465 0.0
C408 C 0.3908 0.1092 0.94157 0.0
C409 C 0.43671 0.15722 0.95632 0.0
C410 C 0.44746 0.13899 0.96477 0.0
C411 C 0.43021 0.10573 0.96156 0.0
C412 C 0.40178 0.09097 0.94989 0.0
C413 C 0.40689 0.27459 0.97342 0.0
H414 H 0.30868 0.1113 0.8575 0.0
H415 H 0.32822 0.11917 0.8897 0.0
H416 H 0.39988 0.21582 0.88312 0.0
H417 H 0.38121 0.20793 0.85107 0.0
H418 H 0.38198 0.13364 0.90965 0.0
H419 H 0.37257 0.21669 0.91152 0.0
H420 H 0.41142 0.19654 0.95907 0.0
H421 H 0.38839 0.2244 0.9724 0.0
H422 H 0.41533 0.26687 0.9218 0.0
H423 H 0.43013 0.31842 0.93715 0.0
H424 H 0.36858 0.09715 0.93285 0.0
H425 H 0.45118 0.18286 0.95867 0.0
H426 H 0.40489 0.27675 0.9879 0.0
H427 H 0.38794 0.0653 0.94728 0.0
H428 H 0.46974 0.15098 0.97345 0.0
C429 C 0.77733 0.15301 0.85446 0.0
C430 C 0.80874 0.16198 0.85062 0.0
C431 C 0.77106 0.16016 0.87186 0.0
C432 C 0.79605 0.17641 0.88582 0.0
C433 C 0.82721 0.18429 0.88214 0.0
C434 C 0.8335 0.17732 0.86478 0.0
C435 C 0.79024 0.1867 0.90391 0.0
C436 C 0.763 0.16674 0.9126 0.0
C437 C 0.75806 0.17678 0.92978 0.0
C438 C 0.78073 0.20705 0.93818 0.0
C439 C 0.80785 0.22739 0.92966 0.0
C440 C 0.81224 0.21708 0.9125 0.0
C441 C 0.83154 0.25946 0.93867 0.0
C442 C 0.82142 0.2778 0.94864 0.0
C443 C 0.8645 0.27194 0.93744 0.0
C444 C 0.88673 0.30205 0.9459 0.0
C445 C 0.87652 0.32012 0.95596 0.0
C446 C 0.72917 0.15614 0.93903 0.0
C447 C 0.69892 0.13895 0.92917 0.0
C448 C 0.73147 0.15457 0.95795 0.0
C449 C 0.70415 0.13659 0.96683 0.0
C450 C 0.67391 0.11955 0.95699 0.0
C451 C 0.67161 0.12085 0.93805 0.0
C452 C 0.8437 0.30771 0.95729 0.0
H453 H 0.75759 0.14074 0.84396 0.0
H454 H 0.7468 0.15383 0.8742 0.0
H455 H 0.84696 0.19634 0.89265 0.0
H456 H 0.85802 0.18492 0.86236 0.0
H457 H 0.74605 0.14315 0.9062 0.0
H458 H 0.83253 0.2331 0.90557 0.0
H459 H 0.77713 0.21488 0.95141 0.0
H460 H 0.79624 0.26926 0.94958 0.0
H461 H 0.87319 0.25828 0.93015 0.0
H462 H 0.91197 0.31102 0.94482 0.0
H463 H 0.69623 0.14004 0.91464 0.0
H464 H 0.75447 0.16709 0.96592 0.0
H465 H 0.83522 0.32141 0.96478 0.0
H466 H 0.64858 0.1082 0.9301 0.0
H467 H 0.70677 0.1356 0.98137 0.0
C468 C 0.64891 0.84485 0.15182 0.0
C469 C 0.67017 0.83494 0.15792 0.0
C470 C 0.63763 0.83949 0.13346 0.0
C471 C 0.64757 0.82433 0.12076 0.0
C472 C 0.66959 0.81527 0.12682 0.0
C473 C 0.68065 0.82039 0.14522 0.0
C474 C 0.63379 0.8166 0.10147 0.0
C475 C 0.62746 0.83784 0.0926 0.0
C476 C 0.61218 0.82959 0.07484 0.0
C477 C 0.6043 0.80017 0.06571 0.0
C478 C 0.61052 0.77864 0.07429 0.0
C479 C 0.62517 0.78705 0.0922 0.0
C480 C 0.6001 0.74667 0.06498 0.0
C481 C 0.57073 0.72978 0.05414 0.0
C482 C 0.61892 0.73238 0.0673 0.0
C483 C 0.60826 0.70165 0.05933 0.0
C484 C 0.57881 0.68481 0.04867 0.0
C485 C 0.6024 0.85059 0.06628 0.0
C486 C 0.58955 0.86588 0.07666 0.0
C487 C 0.60415 0.85419 0.04756 0.0
C488 C 0.59279 0.8722 0.03938 0.0
C489 C 0.57977 0.88723 0.04978 0.0
C490 C 0.57848 0.88408 0.06851 0.0
C491 C 0.56032 0.69926 0.04596 0.0
H492 H 0.64013 0.85576 0.16135 0.0
H493 H 0.62029 0.84629 0.12934 0.0
H494 H 0.67815 0.80403 0.11736 0.0
H495 H 0.69736 0.81289 0.14953 0.0
H496 H 0.63434 0.86084 0.09956 0.0
H497 H 0.62858 0.76994 0.09923 0.0
H498 H 0.5925 0.79365 0.05203 0.0
H499 H 0.55528 0.73971 0.05235 0.0
H500 H 0.64188 0.74489 0.07531 0.0
H501 H 0.62304 0.69104 0.06147 0.0
H502 H 0.5872 0.86308 0.09101 0.0
H503 H 0.6143 0.84307 0.03923 0.0
H504 H 0.53731 0.68655 0.03799 0.0
H505 H 0.56818 0.8951 0.07681 0.0
H506 H 0.59442 0.87461 0.02495 0.0
C507 C 0.2179 0.866 0.15363 0.0
C508 C 0.20923 0.84303 0.16614 0.0
C509 C 0.22337 0.85948 0.13588 0.0
C510 C 0.21966 0.82969 0.1303 0.0
C511 C 0.21169 0.80707 0.14291 0.0
C512 C 0.20671 0.81372 0.16066 0.0
C513 C 0.22173 0.82102 0.11108 0.0
C514 C 0.24896 0.83973 0.10209 0.0
C515 C 0.25109 0.83021 0.08408 0.0
C516 C 0.22522 0.8021 0.07513 0.0
C517 C 0.19788 0.78323 0.08393 0.0
C518 C 0.19634 0.79302 0.10188 0.0
C519 C 0.17162 0.75262 0.07463 0.0
C520 C 0.16262 0.74969 0.05591 0.0
C521 C 0.15627 0.72567 0.08428 0.0
C522 C 0.133 0.69641 0.07535 0.0
C523 C 0.12488 0.69337 0.05657 0.0
C524 C 0.28042 0.8488 0.07462 0.0
C525 C 0.29747 0.88224 0.07691 0.0
C526 C 0.29136 0.83309 0.06295 0.0
C527 C 0.31818 0.85029 0.05356 0.0
C528 C 0.33511 0.88362 0.05586 0.0
C529 C 0.32462 0.89945 0.0677 0.0
C530 C 0.13966 0.72031 0.04695 0.0
H531 H 0.22019 0.88886 0.15755 0.0
H532 H 0.22936 0.87722 0.12635 0.0
H533 H 0.20881 0.78396 0.13893 0.0
H534 H 0.19979 0.79546 0.16992 0.0
H535 H 0.26884 0.86093 0.10939 0.0
H536 H 0.17517 0.77895 0.10876 0.0
H537 H 0.22658 0.79458 0.0613 0.0
H538 H 0.17345 0.77006 0.04813 0.0
H539 H 0.16294 0.72687 0.09863 0.0
H540 H 0.12221 0.67588 0.08302 0.0
H541 H 0.28958 0.89517 0.08559 0.0
H542 H 0.27944 0.80738 0.06119 0.0
H543 H 0.13352 0.71858 0.03247 0.0
H544 H 0.33722 0.92519 0.06966 0.0
H545 H 0.32611 0.83751 0.04479 0.0
C546 C 0.22583 0.39352 0.16168 0.0
C547 C 0.19415 0.37161 0.16487 0.0
C548 C 0.23272 0.40724 0.14517 0.0
C549 C 0.20812 0.39944 0.13139 0.0
C550 C 0.17652 0.37725 0.13451 0.0
C551 C 0.16964 0.36361 0.151 0.0
C552 C 0.21507 0.41465 0.11393 0.0
C553 C 0.24235 0.42016 0.10521 0.0
C554 C 0.24841 0.43379 0.08855 0.0
C555 C 0.22671 0.4419 0.08066 0.0
C556 C 0.1995 0.43697 0.08916 0.0
C557 C 0.19409 0.42351 0.10584 0.0
C558 C 0.17666 0.44566 0.08052 0.0
C559 C 0.18779 0.4727 0.07083 0.0
C560 C 0.14347 0.42673 0.08158 0.0
C561 C 0.12208 0.43446 0.0731 0.0
C562 C 0.13329 0.46106 0.06313 0.0
C563 C 0.27733 0.43976 0.07927 0.0
C564 C 0.30728 0.45206 0.08925 0.0
C565 C 0.27542 0.4342 0.06022 0.0
C566 C 0.30273 0.44125 0.05138 0.0
C567 C 0.33274 0.45394 0.06132 0.0
C568 C 0.33462 0.45904 0.0804 0.0
C569 C 0.16637 0.48013 0.06214 0.0
H570 H 0.24542 0.4 0.17192 0.0
H571 H 0.2573 0.42438 0.14333 0.0
H572 H 0.15696 0.37027 0.12416 0.0
H573 H 0.14493 0.34714 0.15296 0.0
H574 H 0.25841 0.41299 0.11113 0.0
H575 H 0.17377 0.42053 0.11279 0.0
H576 H 0.2311 0.45215 0.0678 0.0
H577 H 0.21314 0.48833 0.07002 0.0
H578 H 0.13386 0.40546 0.08864 0.0
H579 H 0.09668 0.41916 0.07395 0.0
H580 H 0.30977 0.45703 0.1039 0.0
H581 H 0.25269 0.42418 0.05209 0.0
H582 H 0.17572 0.50104 0.05476 0.0
H583 H 0.35737 0.4691 0.0885 0.0
H584 H 0.30022 0.43639 0.03672 0.0
C585 C 0.47423 0.92368 0.18209 0.0
C586 C 0.47083 0.94996 0.17862 0.0
C587 C 0.46731 0.9107 0.19878 0.0
C588 C 0.45653 0.92346 0.21242 0.0
C589 C 0.45227 0.94917 0.20879 0.0
C590 C 0.45951 0.96237 0.19213 0.0
C591 C 0.45165 0.91124 0.23072 0.0
C592 C 0.47454 0.90544 0.23936 0.0
C593 C 0.47149 0.89582 0.25697 0.0
C594 C 0.44512 0.89161 0.26601 0.0
C595 C 0.42081 0.89555 0.25742 0.0
C596 C 0.42466 0.90586 0.23975 0.0
C597 C 0.39147 0.88827 0.26686 0.0
C598 C 0.37994 0.86481 0.27916 0.0
C599 C 0.37472 0.90456 0.26385 0.0
C600 C 0.34752 0.89766 0.27286 0.0
C601 C 0.3365 0.87473 0.28552 0.0
C602 C 0.49557 0.88947 0.2659 0.0
C603 C 0.5012 0.86605 0.25792 0.0
C604 C 0.5123 0.90603 0.28269 0.0
C605 C 0.53438 0.89934 0.29132 0.0
C606 C 0.53947 0.87543 0.28352 0.0
C607 C 0.52268 0.85882 0.26677 0.0
C608 C 0.35334 0.85854 0.28851 0.0
H609 H 0.48308 0.91363 0.17206 0.0
H610 H 0.47062 0.89075 0.20107 0.0
H611 H 0.44424 0.95971 0.21903 0.0
H612 H 0.45629 0.98237 0.18985 0.0
H613 H 0.49537 0.90937 0.23261 0.0
H614 H 0.40636 0.90892 0.23274 0.0
H615 H 0.44356 0.88485 0.27977 0.0
H616 H 0.39129 0.85092 0.28163 0.0
H617 H 0.38273 0.923 0.25468 0.0
H618 H 0.33511 0.91034 0.26974 0.0
H619 H 0.48843 0.85288 0.24503 0.0
H620 H 0.50832 0.92418 0.28908 0.0
H621 H 0.34637 0.84111 0.29828 0.0
H622 H 0.52631 0.84034 0.26051 0.0
H623 H 0.54701 0.91236 0.30427 0.0
C624 C 1.00194 0.464 0.19514 0.0
C625 C 0.01613 0.4861 0.18237 0.0
C626 C 0.01315 0.47236 0.21358 0.0
C627 C 0.03851 0.50306 0.21957 0.0
C628 C 0.05276 0.52502 0.20676 0.0
C629 C 0.04172 0.51664 0.18838 0.0
C630 C 0.05026 0.51242 0.2391 0.0
C631 C 0.05611 0.49238 0.24951 0.0
C632 C 0.06938 0.50224 0.26767 0.0
C633 C 0.0759 0.53203 0.27554 0.0
C634 C 0.07005 0.55221 0.26532 0.0
C635 C 0.05722 0.54227 0.24714 0.0
C636 C 0.07896 0.58436 0.27337 0.0
C637 C 0.07002 0.58871 0.29058 0.0
C638 C 0.09739 0.61101 0.26409 0.0
C639 C 0.10726 0.64155 0.27202 0.0
C640 C 0.0986 0.64608 0.28933 0.0
C641 C 0.07859 0.48247 0.27799 0.0
C642 C 0.05776 0.44957 0.27766 0.0
C643 C 0.10895 0.49633 0.28766 0.0
C644 C 0.11858 0.47757 0.29649 0.0
C645 C 0.098 0.44453 0.29592 0.0
C646 C 0.06731 0.4308 0.2866 0.0
C647 C 0.07956 0.61924 0.29843 0.0
H648 H 0.98228 0.44026 0.19087 0.0
H649 H 1.00167 0.45501 0.22319 0.0
H650 H 0.07261 0.54871 0.21095 0.0
H651 H 0.05288 0.53433 0.17891 0.0
H652 H 0.05188 0.4698 0.24319 0.0
H653 H 0.05256 0.55782 0.23926 0.0
H654 H 0.08635 0.53988 0.28951 0.0
H655 H 0.05553 0.56846 0.29791 0.0
H656 H 0.10494 0.60827 0.25089 0.0
H657 H 0.12236 0.66164 0.26475 0.0
H658 H 0.0341 0.43835 0.27046 0.0
H659 H 0.12568 0.52158 0.28791 0.0
H660 H 0.07193 0.62178 0.31163 0.0
H661 H 0.05066 0.40551 0.28616 0.0
H662 H 0.14255 0.48885 0.30327 0.0
C663 C 0.44414 0.47885 0.18715 0.0
C664 C 0.4757 0.48751 0.18391 0.0
C665 C 0.43688 0.48436 0.20463 0.0
C666 C 0.46106 0.49854 0.21915 0.0
C667 C 0.49217 0.50546 0.21603 0.0
C668 C 0.49942 0.50013 0.19863 0.0
C669 C 0.45494 0.50855 0.23718 0.0
C670 C 0.42741 0.48878 0.2457 0.0
C671 C 0.42289 0.49865 0.26304 0.0
C672 C 0.44592 0.52855 0.27169 0.0
C673 C 0.47295 0.549 0.2631 0.0
C674 C 0.47713 0.53874 0.24587 0.0
C675 C 0.49646 0.58135 0.27184 0.0
C676 C 0.48613 0.59962 0.28168 0.0
C677 C 0.52937 0.59455 0.27004 0.0
C678 C 0.55132 0.62534 0.27772 0.0
C679 C 0.54089 0.64337 0.28761 0.0
C680 C 0.39378 0.47843 0.2721 0.0
C681 C 0.36336 0.46653 0.26294 0.0
C682 C 0.39621 0.47265 0.29034 0.0
C683 C 0.36873 0.45534 0.29927 0.0
C684 C 0.33814 0.44378 0.29023 0.0
C685 C 0.33589 0.44967 0.27193 0.0
C686 C 0.50814 0.63022 0.28958 0.0
H687 H 0.42538 0.46912 0.17603 0.0
H688 H 0.41272 0.47887 0.20659 0.0
H689 H 0.51119 0.51572 0.22701 0.0
H690 H 0.5238 0.50639 0.19664 0.0
H691 H 0.40993 0.46554 0.23907 0.0
H692 H 0.49741 0.55471 0.23891 0.0
H693 H 0.44247 0.53604 0.28506 0.0
H694 H 0.46096 0.59054 0.28304 0.0
H695 H 0.53827 0.581 0.26283 0.0
H696 H 0.57652 0.63486 0.27622 0.0
H697 H 0.36084 0.47113 0.24897 0.0
H698 H 0.41945 0.48149 0.29769 0.0
H699 H 0.49951 0.64382 0.29701 0.0
H700 H 0.31289 0.44182 0.26456 0.0
H701 H 0.37153 0.45084 0.31321 0.0
Eu702 Eu 0.49256 0.97404 0.98607 0.0
Eu703 Eu 0.51741 0.01936 0.02592 0.0
C704 C 0.48257 0.03364 0.99269 0.0
C705 C 0.48426 0.95744 0.93509 0.0
C706 C 0.48591 0.98633 0.93188 0.0
C707 C 0.49851 0.95348 0.9043 0.0
C708 C 0.49331 -0.00157 0.91501 0.0
C709 C 0.49074 0.94118 0.92117 0.0
C710 C 0.49972 0.98219 0.90099 0.0
C711 C 0.47729 0.9451 0.95312 0.0
O712 O 0.47684 0.9715 0.03045 0.0
O713 O 0.4493 0.95567 1.0022 0.0
C714 C 0.45007 0.95497 0.01996 0.0
O715 O 0.50522 0.94698 0.00525 0.0
O716 O 0.50528 0.04061 0.04876 0.0
O717 O 0.55157 0.04397 0.04992 0.0
O718 O 0.54142 0.99009 0.0248 0.0
C719 C 0.52905 0.96031 0.01815 0.0
O720 O 0.54499 0.0093 0.98628 0.0
O721 O 0.55238 0.05033 0.00676 0.0
O722 O 0.48522 0.03265 0.01036 0.0
O723 O 0.50183 0.94928 0.9636 0.0
O724 O 0.4582 0.95133 0.96208 0.0
O725 O 0.49174 0.01861 0.98147 0.0
C726 C 0.52514 0.03467 0.07705 0.0
C727 C 0.52477 0.00627 0.07996 0.0
C728 C 0.5089 0.03624 0.10754 0.0
C729 C 0.51662 0.99303 0.09652 0.0
C730 C 0.51727 0.04957 0.091 0.0
C731 C 0.50824 0.00763 0.11053 0.0
C732 C 0.53092 0.04733 0.05907 0.0
C733 C 0.56123 0.03931 0.99288 0.0
H734 H 0.4817 -0.00029 0.94248 0.0
H735 H 0.50317 0.94032 0.89377 0.0
H736 H 0.49453 0.02083 0.91303 0.0
H737 H 0.48993 0.91903 0.92338 0.0
H738 H 0.53035 0.99404 0.06932 0.0
H739 H 0.50214 0.04799 0.1178 0.0
H740 H 0.51691 0.9713 0.09832 0.0
H741 H 0.5169 0.07121 0.08896 0.0
Eu742 Eu 0.0264 0.51442 0.98892 0.0
Eu743 Eu 0.98241 0.49797 0.02414 0.0
C744 C 0.96568 0.44591 0.9903 0.0
C745 C 0.05471 0.5254 0.94148 0.0
C746 C 0.02746 0.49902 0.93225 0.0
C747 C 0.06981 0.54819 0.91283 0.0
C748 C 0.0216 0.49712 0.91341 0.0
C749 C 0.07584 0.54993 0.93166 0.0
C750 C 0.04266 0.52173 0.90354 0.0
C751 C 0.0609 0.52812 0.96134 0.0
O752 O 0.02738 0.49873 0.03453 0.0
O753 O 0.04376 0.48975 0.0073 0.0
C754 C 0.04506 0.49078 0.02515 0.0
O755 O 0.05369 0.5543 0.01099 0.0
O756 O 0.94414 0.46386 0.03904 0.0
O757 O 0.97093 0.51341 0.04948 0.0
O758 O 0.01097 0.55117 0.02437 0.0
C759 C 0.04107 0.56722 0.02117 0.0
O760 O 0.98911 0.52776 0.98126 0.0
O761 O 0.95286 0.50525 1.00265 0.0
O762 O 0.96876 0.45149 0.00809 0.0
O763 O 0.05581 0.54863 0.97051 0.0
O764 O 0.05032 0.50152 0.96886 0.0
O765 O 0.9814 0.46856 0.97989 0.0
C766 C 0.95454 0.47627 0.07085 0.0
C767 C 0.97648 0.46602 0.07443 0.0
C768 C 0.94687 0.47775 0.10294 0.0
C769 C 0.98406 0.46225 0.09224 0.0
C770 C 0.93932 0.4815 0.08511 0.0
C771 C 0.9699 0.46882 0.10675 0.0
C772 C 0.94995 0.48473 0.05271 0.0
C773 C 0.96152 0.5196 0.98775 0.0
H774 H 0.01058 0.47999 0.9396 0.0
H775 H 0.08648 0.56739 0.9055 0.0
H776 H 1.00027 0.47669 0.90661 0.0
H777 H 0.0969 0.57051 0.93859 0.0
H778 H 0.98849 0.46194 0.06352 0.0
H779 H 0.93586 0.48342 0.11381 0.0
H780 H 1.00161 0.455 0.09471 0.0
H781 H 0.92253 0.48969 0.08257 0.0
Eu782 Eu 0.51519 0.48589 0.0257 0.0
Eu783 Eu 0.48445 0.49869 0.98841 0.0
C784 C 0.526 0.55408 0.02005 0.0
C785 C 0.52879 0.47757 0.07528 0.0
C786 C 0.52845 0.50458 0.08276 0.0
C787 C 0.51158 0.45314 0.10339 0.0
C788 C 0.51998 0.50592 0.10043 0.0
C789 C 0.52039 0.45193 0.08576 0.0
C790 C 0.51129 0.48016 0.1109 0.0
C791 C 0.53563 0.47492 0.05623 0.0
O792 O 0.52573 0.49312 0.98033 0.0
O793 O 0.556 0.50825 0.00778 0.0
C794 C 0.55334 0.50396 0.98989 0.0
O795 O 0.4989 0.44358 0.0053 0.0
O796 O 0.47992 0.53063 0.9705 0.0
O797 O 0.45642 0.48033 0.96202 0.0
O798 O 0.45738 0.44638 0.99147 0.0
C799 C 0.47123 0.43004 0.99553 0.0
O800 O 0.46438 0.4719 0.03067 0.0
O801 O 0.45118 0.4969 0.00921 0.0
O802 O 0.52207 0.54623 1.00245 0.0
O803 O 0.51177 0.45287 0.04534 0.0
O804 O 0.55145 0.5014 0.04869 0.0
O805 O 0.51733 0.53249 0.03157 0.0
C806 C 0.47977 0.51479 0.93968 0.0
C807 C 0.51212 0.52386 0.93918 0.0
C808 C 0.47382 0.51093 0.90667 0.0
C809 C 0.52512 0.52598 0.92254 0.0
C810 C 0.46082 0.50878 0.92336 0.0
C811 C 0.50597 0.51896 0.90605 0.0
C812 C 0.46516 0.50846 0.95702 0.0
C813 C 0.44558 0.4819 0.02403 0.0
H814 H 0.53428 0.52451 0.07489 0.0
H815 H 0.50524 0.43305 0.1112 0.0
H816 H 0.5196 0.52689 0.10578 0.0
H817 H 0.52023 0.43078 0.0802 0.0
H818 H 0.52714 0.52846 0.95165 0.0
H819 H 0.45829 0.50497 0.89425 0.0
H820 H 0.55004 0.53259 0.92257 0.0
H821 H 0.43573 0.5014 0.92349 0.0
Eu822 Eu 0.15521 0.30722 0.31905 0.0
Eu823 Eu 0.17795 0.35066 0.35907 0.0
C824 C 0.14445 0.36718 0.32678 0.0
C825 C 0.14729 0.29137 0.26808 0.0
C826 C 0.15483 0.32283 0.26634 0.0
C827 C 0.1545 0.28549 0.23604 0.0
C828 C 0.16214 0.33552 0.24959 0.0
C829 C 0.14712 0.27279 0.25282 0.0
C830 C 0.1623 0.31712 0.23421 0.0
C831 C 0.14191 0.27878 0.28603 0.0
O832 O 0.12467 0.31712 0.35712 0.0
O833 O 0.12035 0.27591 0.33815 0.0
C834 C 0.1094 0.28694 0.35086 0.0
O835 O 0.18908 0.2961 0.33473 0.0
O836 O 0.16835 0.37416 0.38205 0.0
O837 O 0.21184 0.37182 0.38332 0.0
O838 O 0.17637 0.30467 0.36294 0.0
C839 C 0.18845 0.29207 0.35211 0.0
O840 O 0.19568 0.35513 0.31481 0.0
O841 O 0.22205 0.37016 0.34338 0.0
O842 O 0.16708 0.37941 0.34037 0.0
O843 O 0.16779 0.28624 0.29633 0.0
O844 O 0.1211 0.28194 0.29513 0.0
O845 O 0.13245 0.3378 0.31939 0.0
C846 C 0.18571 0.36495 0.41035 0.0
C847 C 0.18595 0.33698 0.4137 0.0
C848 C 0.16974 0.3674 0.44085 0.0
C849 C 0.17848 0.32453 0.43049 0.0
C850 C 0.1775 0.38001 0.42407 0.0
C851 C 0.17024 0.33954 0.44428 0.0
C852 C 0.19275 0.37779 0.39245 0.0
C853 C 0.22204 0.37154 0.32564 0.0
H854 H 0.15538 0.3377 0.278 0.0
H855 H 0.15481 0.27071 0.22462 0.0
H856 H 0.16755 0.35977 0.2487 0.0
H857 H 0.14179 0.24861 0.25394 0.0
H858 H 0.19171 0.32454 0.40328 0.0
H859 H 0.16372 0.37967 0.45121 0.0
H860 H 0.17864 0.3028 0.43256 0.0
H861 H 0.17694 0.40147 0.42177 0.0
Eu862 Eu 0.69011 0.83922 0.32122 0.0
Eu863 Eu 0.64553 0.81942 0.35578 0.0
C864 C 0.63011 0.76962 0.32134 0.0
C865 C 0.71631 0.85095 0.27321 0.0
C866 C 0.68903 0.82424 0.26425 0.0
C867 C 0.73033 0.87316 0.24432 0.0
C868 C 0.68263 0.82189 0.24542 0.0
C869 C 0.73688 0.87537 0.26315 0.0
C870 C 0.70319 0.84635 0.23528 0.0
C871 C 0.7233 0.85394 0.29304 0.0
O872 O 0.69152 0.8229 0.36667 0.0
O873 O 0.70949 0.81604 0.33956 0.0
C874 C 0.71034 0.81646 0.35739 0.0
O875 O 0.71898 0.87781 0.34368 0.0
O876 O 0.62049 0.78535 0.37518 0.0
O877 O 0.61688 0.82784 0.37474 0.0
O878 O 0.67837 0.87257 0.36051 0.0
C879 C 0.70784 0.88906 0.35609 0.0
O880 O 0.65668 0.85869 0.31771 0.0
O881 O 0.61554 0.8224 0.33246 0.0
O882 O 0.63347 0.77423 0.33914 0.0
O883 O 0.71758 0.87377 0.30243 0.0
O884 O 0.714 0.82753 0.30056 0.0
O885 O 0.64526 0.79317 0.31136 0.0
C886 C 0.61835 0.80871 0.40319 0.0
C887 C 0.64541 0.83664 0.41124 0.0
C888 C 0.60839 0.78825 0.43273 0.0
C889 C 0.65387 0.84036 0.42992 0.0
C890 C 0.59976 0.78467 0.41405 0.0
C891 C 0.63566 0.81604 0.44081 0.0
C892 C 0.61101 0.80316 0.38337 0.0
C893 C 0.62647 0.8441 0.32094 0.0
H894 H 0.67259 0.80527 0.27179 0.0
H895 H 0.74665 0.89226 0.23681 0.0
H896 H 0.66131 0.80117 0.23883 0.0
H897 H 0.75798 0.89619 0.26986 0.0
H898 H 0.66043 0.85526 0.40303 0.0
H899 H 0.59385 0.76925 0.44084 0.0
H900 H 0.67525 0.86183 0.43576 0.0
H901 H 0.57899 0.76284 0.40801 0.0
Eu902 Eu 0.18276 0.82425 0.35773 0.0
Eu903 Eu 0.15594 0.8425 0.32121 0.0
C904 C 0.19124 0.89362 0.35542 0.0
C905 C 0.19466 0.81269 0.4069 0.0
C906 C 0.1877 0.83616 0.41306 0.0
C907 C 0.18456 0.79174 0.43633 0.0
C908 C 0.17925 0.83743 0.43074 0.0
C909 C 0.1932 0.79062 0.41866 0.0
C910 C 0.17721 0.81501 0.44255 0.0
C911 C 0.20032 0.80916 0.38779 0.0
O912 O 0.20891 0.8617 0.31971 0.0
O913 O 0.21549 0.82688 0.33635 0.0
C914 C 0.22497 0.84755 0.32417 0.0
O915 O 0.14832 0.77845 0.3409 0.0
O916 O 0.16188 0.87737 0.30226 0.0
O917 O 0.1214 0.82943 0.29758 0.0
O918 O 0.15527 0.79714 0.31296 0.0
C919 C 0.14624 0.77358 0.32314 0.0
O920 O 0.14117 0.82912 0.36588 0.0
O921 O 0.11342 0.81739 0.33777 0.0
O922 O 0.16677 0.88139 0.34301 0.0
O923 O 0.17483 0.7896 0.37709 0.0
O924 O 0.21855 0.83523 0.38043 0.0
O925 O 0.20507 0.87758 0.36036 0.0
C926 C 0.14702 0.8543 0.27201 0.0
C927 C 0.15221 0.82963 0.26575 0.0
C928 C 0.16327 0.878 0.24363 0.0
C929 C 0.16276 0.8291 0.24859 0.0
C930 C 0.15248 0.87838 0.2608 0.0
C931 C 0.16882 0.85347 0.23737 0.0
C932 C 0.13853 0.85635 0.29071 0.0
C933 C 0.11443 0.81963 0.35567 0.0
H934 H 0.18829 0.8532 0.40409 0.0
H935 H 0.18282 0.77383 0.44493 0.0
H936 H 0.17427 0.85598 0.43513 0.0
H937 H 0.19799 0.77202 0.41403 0.0
H938 H 0.14853 0.81092 0.27422 0.0
H939 H 0.168 0.89733 0.23546 0.0
H940 H 0.16615 0.80951 0.24413 0.0
H941 H 0.14903 0.89785 0.26549 0.0
Eu942 Eu 0.82428 0.64441 0.6538 0.0
Eu943 Eu 0.85114 0.69024 0.69341 0.0
C944 C 0.81664 0.70554 0.66143 0.0
C945 C 0.81388 0.62733 0.60253 0.0
C946 C 0.81451 0.65566 0.59906 0.0
C947 C 0.82852 0.62333 0.57186 0.0
C948 C 0.82186 0.66759 0.5821 0.0
C949 C 0.8209 0.61128 0.58878 0.0
C950 C 0.82915 0.65168 0.5683 0.0
C951 C 0.80827 0.61558 0.62076 0.0
O952 O 0.79834 0.65609 0.69344 0.0
O953 O 0.79022 0.61419 0.67352 0.0
C954 C 0.78185 0.62582 0.68734 0.0
O955 O 0.85592 0.62995 0.66894 0.0
O956 O 0.84299 0.71659 0.71549 0.0
O957 O 0.88525 0.71209 0.71754 0.0
O958 O 0.85134 0.64543 0.69798 0.0
C959 C 0.85964 0.62976 0.68664 0.0
O960 O 0.86679 0.69081 0.64884 0.0
O961 O 0.89424 0.70733 0.67722 0.0
O962 O 0.8416 0.71836 0.67354 0.0
O963 O 0.83375 0.62105 0.63077 0.0
O964 O 0.78903 0.62092 0.63015 0.0
O965 O 0.80176 0.67516 0.65567 0.0
C966 C 0.85881 0.70764 0.74428 0.0
C967 C 0.85614 0.67847 0.74785 0.0
C968 C 0.84294 0.71223 0.77455 0.0
C969 C 0.84719 0.66641 0.76461 0.0
C970 C 0.85217 0.72442 0.75778 0.0
C971 C 0.84018 0.68294 0.77819 0.0
C972 C 0.8668 0.71966 0.72622 0.0
C973 C 0.89356 0.70732 0.6594 0.0
H974 H 0.80978 0.66887 0.60954 0.0
H975 H 0.83373 0.61033 0.56151 0.0
H976 H 0.82253 0.68967 0.57992 0.0
H977 H 0.82087 0.58956 0.5912 0.0
H978 H 0.86078 0.66481 0.73764 0.0
H979 H 0.83735 0.7255 0.7845 0.0
H980 H 0.84597 0.64413 0.76691 0.0
H981 H 0.85369 0.74678 0.75527 0.0
Eu982 Eu 0.35911 0.17536 0.65587 0.0
Eu983 Eu 0.31437 0.15507 0.69041 0.0
C984 C 0.29868 0.10591 0.65547 0.0
C985 C 0.38677 0.18939 0.60809 0.0
C986 C 0.35944 0.16358 0.59854 0.0
C987 C 0.40295 0.21316 0.57978 0.0
C988 C 0.3541 0.16243 0.5797 0.0
C989 C 0.40843 0.21416 0.59861 0.0
C990 C 0.3758 0.1872 0.57014 0.0
C991 C 0.39287 0.19102 0.62791 0.0
O992 O 0.35989 0.15741 0.70104 0.0
O993 O 0.37765 0.15091 0.67377 0.0
C994 C 0.37839 0.15077 0.69157 0.0
O995 O 0.38827 0.21284 0.67876 0.0
O996 O 0.28864 0.12037 0.70939 0.0
O997 O 0.28628 0.16361 0.70974 0.0
O998 O 0.34781 0.20817 0.6955 0.0
C999 C 0.37742 0.2243 0.69121 0.0
O1000 O 0.32592 0.19518 0.65267 0.0
O1001 O 0.28461 0.15856 0.6672 0.0
O1002 O 0.30179 0.11009 0.67328 0.0
O1003 O 0.3874 0.2107 0.63765 0.0
O1004 O 0.38271 0.164 0.63487 0.0
O1005 O 0.31416 0.12969 0.64568 0.0
C1006 C 0.28625 0.14254 0.73777 0.0
C1007 C 0.31315 0.16994 0.74645 0.0
C1008 C 0.27456 0.12021 0.76676 0.0
C1009 C 0.32063 0.17248 0.76518 0.0
C1010 C 0.26691 0.11782 0.74805 0.0
C1011 C 0.3016 0.1475 0.77549 0.0
C1012 C 0.27958 0.13827 0.7179 0.0
C1013 C 0.29565 0.18045 0.6558 0.0
H1014 H 0.3422 0.14436 0.60563 0.0
H1015 H 0.42013 0.23247 0.57273 0.0
H1016 H 0.33275 0.14237 0.57265 0.0
H1017 H 0.42959 0.2343 0.60578 0.0
H1018 H 0.32872 0.18907 0.7387 0.0
H1019 H 0.25938 0.10073 0.77441 0.0
H1020 H 0.34184 0.1936 0.77153 0.0
H1021 H 0.24623 0.09638 0.74152 0.0
Eu1022 Eu 0.85289 0.16017 0.69311 0.0
Eu1023 Eu 0.82383 0.17608 0.65603 0.0
C1024 C 0.86242 0.22906 0.68951 0.0
C1025 C 0.8637 0.15002 0.74248 0.0
C1026 C 0.85473 0.17223 0.74815 0.0
C1027 C 0.85319 0.12914 0.77194 0.0
C1028 C 0.84525 0.17301 0.7656 0.0
C1029 C 0.86289 0.12852 0.75449 0.0
C1030 C 0.84414 0.15135 0.77771 0.0
C1031 C 0.87166 0.14777 0.72371 0.0
O1032 O 0.86522 0.17091 0.64779 0.0
O1033 O 0.89412 0.18206 0.67554 0.0
C1034 C 0.89218 0.17971 0.65763 0.0
O1035 O 0.83921 0.11918 0.67214 0.0
O1036 O 0.83097 0.20906 0.63566 0.0
O1037 O 0.78749 0.16335 0.63335 0.0
O1038 O 0.80069 0.12298 0.65499 0.0
C1039 C 0.81408 0.10674 0.66018 0.0
O1040 O 0.80091 0.14311 0.69611 0.0
O1041 O 0.791 0.17372 0.67732 0.0
O1042 O 0.85831 0.22281 0.6718 0.0
O1043 O 0.84816 0.12625 0.71242 0.0
O1044 O 0.88803 0.17459 0.71659 0.0
O1045 O 0.85506 0.20663 0.70038 0.0
C1046 C 0.81157 0.18282 0.60636 0.0
C1047 C 0.81526 0.15673 0.60117 0.0
C1048 C 0.82595 0.20191 0.57672 0.0
C1049 C 0.8241 0.15321 0.58388 0.0
C1050 C 0.81682 0.20529 0.59399 0.0
C1051 C 0.82984 0.17591 0.57152 0.0
C1052 C 0.80565 0.18843 0.62519 0.0
C1053 C 0.78353 0.15546 0.69077 0.0
H1054 H 0.85479 0.18883 0.73902 0.0
H1055 H 0.8522 0.11179 0.78077 0.0
H1056 H 0.83898 0.19078 0.76962 0.0
H1057 H 0.86927 0.1109 0.75026 0.0
H1058 H 0.81203 0.13944 0.61063 0.0
H1059 H 0.83001 0.21965 0.56744 0.0
H1060 H 0.82735 0.13318 0.58038 0.0
H1061 H 0.81452 0.2258 0.59784 0.0
C1062 C 0.39244 0.92575 0.05626 0.0
C1063 C 0.36427 0.90177 0.04641 0.0
H1064 H 0.44151 0.96091 0.05569 0.0
C1065 C 0.36437 0.89501 0.02766 0.0
H1066 H 0.39313 0.93123 0.07075 0.0
C1067 C 0.39215 0.91223 0.01889 0.0
C1068 C 0.42041 0.93608 0.02882 0.0
H1069 H 0.34285 0.87665 0.01975 0.0
H1070 H 0.39154 0.90675 1.00441 0.0
C1071 C 0.42022 0.94255 0.04761 0.0
C1072 C 0.11353 0.47541 0.03525 0.0
C1073 C 0.11056 0.4686 0.05348 0.0
H1074 H 0.09508 0.48737 0.01199 0.0
C1075 C 0.08578 0.469 0.06235 0.0
H1076 H 0.13223 0.47502 0.02802 0.0
C1077 C 0.06463 0.47641 0.05323 0.0
C1078 C 0.06746 0.48302 0.03493 0.0
H1079 H 0.08304 0.46403 0.07643 0.0
H1080 H 0.04595 0.47675 0.06049 0.0
C1081 C 0.0921 0.4823 0.02605 0.0
C1082 C 0.55455 0.64206 0.0227 0.0
C1083 C 0.56663 0.65169 0.04104 0.0
H1084 H 0.53251 0.60354 1.00157 0.0
C1085 C 0.56595 0.62924 0.0523 0.0
H1086 H 0.55497 0.65904 0.01375 0.0
C1087 C 0.5528 0.59752 0.04544 0.0
C1088 C 0.54051 0.58777 0.02711 0.0
H1089 H 0.57488 0.63607 0.06654 0.0
H1090 H 0.55225 0.58064 0.05451 0.0
C1091 C 0.54184 0.61039 0.01574 0.0
C1092 C 0.92386 0.37445 0.9552 0.0
C1093 C 0.90001 0.352 0.96493 0.0
H1094 H 0.96325 0.4219 0.95556 0.0
C1095 C 0.89837 0.36033 0.98319 0.0
H1096 H 0.92547 0.36864 0.94107 0.0
C1097 C 0.92013 0.39066 0.99155 0.0
C1098 C 0.94364 0.41337 0.98173 0.0
H1099 H 0.88031 0.34331 0.991 0.0
H1100 H 0.91815 0.39647 0.00562 0.0
C1101 C 0.94534 0.40494 0.96348 0.0
C1102 C 0.63969 0.54226 0.97835 0.0
C1103 C 0.63603 0.52938 0.96027 0.0
H1104 H 0.61655 0.54381 1.00207 0.0
C1105 C 0.60513 0.50762 0.95219 0.0
H1106 H 0.66328 0.55895 0.98494 0.0
C1107 C 0.5784 0.4993 0.96186 0.0
C1108 C 0.58198 0.512 0.98 0.0
H1109 H 0.6016 0.49744 0.93826 0.0
H1110 H 0.55488 0.48282 0.95511 0.0
C1111 C 0.61297 0.53341 0.98819 0.0
C1112 C 0.44432 0.06299 0.95901 0.0
C1113 C 0.44262 0.08665 0.96982 0.0
H1114 H 0.45837 0.02789 0.95775 0.0
C1115 C 0.4538 0.09259 0.98836 0.0
H1116 H 0.43614 0.05814 0.94465 0.0
C1117 C 0.46651 0.07517 0.99593 0.0
C1118 C 0.4687 0.05187 0.98501 0.0
H1119 H 0.45258 0.11061 0.99701 0.0
H1120 H 0.475 0.08025 0.01024 0.0
C1121 C 0.45735 0.04591 0.9665 0.0
C1122 C 0.62246 0.06892 0.95849 0.0
C1123 C 0.64497 0.0996 0.96631 0.0
H1124 H 0.57875 0.02613 0.96066 0.0
C1125 C 0.63975 0.11069 0.98309 0.0
H1126 H 0.62594 0.05951 0.94571 0.0
C1127 C 0.61246 0.09141 0.99181 0.0
C1128 C 0.59014 0.06058 0.98398 0.0
H1129 H 0.65661 0.13438 0.98938 0.0
H1130 H 0.60901 0.10053 1.00468 0.0
C1131 C 0.59548 0.04967 0.9672 0.0
C1132 C 0.90734 0.5233 0.95044 0.0
C1133 C 0.89439 0.53978 0.95976 0.0
H1134 H 0.93929 0.50471 0.95191 0.0
C1135 C 0.9048 0.55013 0.97836 0.0
H1136 H 0.89975 0.51417 0.93629 0.0
C1137 C 0.9264 0.54331 0.98741 0.0
C1138 C 0.93919 0.5271 0.978 0.0
H1139 H 0.89657 0.56377 0.98607 0.0
H1140 H 0.93354 0.5512 1.00176 0.0
C1141 C 0.92989 0.51754 0.95939 0.0
C1142 C 0.41942 0.35304 0.96592 0.0
C1143 C 0.42981 0.33328 0.97292 0.0
H1144 H 0.42415 0.39913 0.96774 0.0
C1145 C 0.45273 0.34494 0.98802 0.0
H1146 H 0.40166 0.34444 0.9543 0.0
C1147 C 0.46594 0.37636 0.99558 0.0
C1148 C 0.45607 0.39638 0.98831 0.0
H1149 H 0.46125 0.33014 0.99355 0.0
H1150 H 0.48413 0.38504 0.00696 0.0
C1151 C 0.43224 0.38426 0.97363 0.0
C1152 C 0.07296 0.64174 0.0536 0.0
C1153 C 0.10236 0.66179 0.0469 0.0
H1154 H 0.0302 0.59611 0.05052 0.0
C1155 C 0.1109 0.65098 0.03132 0.0
H1156 H 0.06584 0.64964 0.06556 0.0
C1157 C 0.09078 0.62034 0.02286 0.0
C1158 C 0.06153 0.60009 0.02966 0.0
H1159 H 0.13358 0.66591 0.026 0.0
H1160 H 0.09825 0.61246 0.01105 0.0
C1161 C 0.05257 0.61123 0.04495 0.0
C1162 C 0.38485 0.45473 0.05914 0.0
C1163 C 0.36189 0.46162 0.05183 0.0
H1164 H 0.42892 0.45558 0.05621 0.0
C1165 C 0.36691 0.47569 0.03532 0.0
H1166 H 0.38165 0.44359 0.0717 0.0
C1167 C 0.39411 0.48253 0.02634 0.0
C1168 C 0.41691 0.47536 0.03359 0.0
H1169 H 0.34995 0.48171 0.0294 0.0
H1170 H 0.39713 0.49331 0.01366 0.0
C1171 C 0.41193 0.46145 0.05015 0.0
C1172 C 0.57533 0.93605 0.04958 0.0
C1173 C 0.56742 0.90613 0.04122 0.0
H1174 H 0.56953 0.97655 0.04885 0.0
C1175 C 0.54711 0.89417 0.02496 0.0
H1176 H 0.59117 0.94595 0.06203 0.0
C1177 C 0.53451 0.91167 0.01737 0.0
C1178 C 0.54234 0.94157 0.02582 0.0
H1179 H 0.54045 0.87102 0.01833 0.0
H1180 H 0.51869 0.90179 1.00493 0.0
C1181 C 0.56303 0.95362 0.04194 0.0
C1182 C 0.03445 0.25732 0.37513 0.0
C1183 C 0.02864 0.22728 0.3795 0.0
H1184 H 0.0645 0.29958 0.36267 0.0
C1185 C 0.0487 0.21627 0.37313 0.0
H1186 H 0.01918 0.26642 0.37923 0.0
C1187 C 0.07401 0.23494 0.36295 0.0
C1188 C 0.08029 0.26531 0.3593 0.0
H1189 H 0.04556 0.19361 0.3764 0.0
H1190 H 0.08952 0.22621 0.35866 0.0
C1191 C 0.0602 0.27623 0.36539 0.0
C1192 C 0.78092 0.80453 0.36812 0.0
C1193 C 0.77747 0.79698 0.38622 0.0
H1194 H 0.76234 0.81623 0.34478 0.0
C1195 C 0.75178 0.79595 0.39479 0.0
H1196 H 0.80031 0.80523 0.36111 0.0
C1197 C 0.73014 0.80251 0.3855 0.0
C1198 C 0.73342 0.80977 0.36732 0.0
H1199 H 0.74863 0.7904 0.40877 0.0
H1200 H 0.71067 0.8016 0.39252 0.0
C1201 C 0.75903 0.81063 0.35874 0.0
C1202 C 0.20551 0.97711 0.36438 0.0
C1203 C 0.22768 0.98902 0.37988 0.0
H1204 H 0.17662 0.93775 0.34454 0.0
C1205 C 0.23768 0.96916 0.38731 0.0
H1206 H 0.19769 0.99191 0.35812 0.0
C1207 C 0.22588 0.93818 0.37937 0.0
C1208 C 0.20366 0.92632 0.3639 0.0
H1209 H 0.25435 0.97741 0.3994 0.0
H1210 H 0.234 0.92346 0.38545 0.0
C1211 C 0.19354 0.94608 0.35653 0.0
C1212 C 0.56327 0.68398 0.31449 0.0
C1213 C 0.56412 0.67566 0.29614 0.0
H1214 H 0.58365 0.72005 0.33686 0.0
C1215 C 0.58711 0.69833 0.28605 0.0
H1216 H 0.54592 0.66683 0.32258 0.0
C1217 C 0.60862 0.72901 0.29417 0.0
C1218 C 0.6078 0.73729 0.31258 0.0
H1219 H 0.58809 0.69245 0.27183 0.0
H1220 H 0.62594 0.74616 0.28607 0.0
C1221 C 0.58501 0.7144 0.32267 0.0
C1222 C 0.29962 0.89135 0.29947 0.0
C1223 C 0.30784 0.86778 0.29559 0.0
H1224 H 0.26706 0.90337 0.31132 0.0
C1225 C 0.28842 0.83751 0.30159 0.0
H1226 H 0.31405 0.91516 0.2956 0.0
C1227 C 0.26211 0.83123 0.3113 0.0
C1228 C 0.25386 0.85469 0.31482 0.0
H1229 H 0.29305 0.81827 0.29859 0.0
H1230 H 0.24767 0.80768 0.31558 0.0
C1231 C 0.27276 0.88474 0.30872 0.0
C1232 C 0.10128 0.39481 0.29532 0.0
C1233 C 0.10908 0.42435 0.30429 0.0
H1234 H 0.10634 0.35377 0.29533 0.0
C1235 C 0.12837 0.43481 0.32094 0.0
H1236 H 0.08701 0.38629 0.28232 0.0
C1237 C 0.13987 0.41628 0.32833 0.0
C1238 C 0.13212 0.38682 0.31928 0.0
H1239 H 0.13451 0.45729 0.32831 0.0
H1240 H 0.15473 0.42501 0.34114 0.0
C1241 C 0.11257 0.37624 0.30275 0.0
C1242 C 0.28083 0.40045 0.28995 0.0
C1243 C 0.30866 0.42539 0.29969 0.0
H1244 H 0.23212 0.36442 0.29041 0.0
C1245 C 0.30786 0.43243 0.31838 0.0
H1246 H 0.28055 0.39362 0.27572 0.0
C1247 C 0.27991 0.41499 0.32702 0.0
C1248 C 0.25208 0.3905 0.31708 0.0
H1249 H 0.32866 0.4517 0.32632 0.0
H1250 H 0.27996 0.42095 0.34138 0.0
C1251 C 0.25295 0.38349 0.29847 0.0
C1252 C 0.55063 0.83687 0.29853 0.0
C1253 C 0.56182 0.86744 0.29301 0.0
H1254 H 0.56226 0.8057 0.31202 0.0
C1255 C 0.59438 0.8903 0.29668 0.0
H1256 H 0.52557 0.81891 0.29588 0.0
C1257 C 0.61551 0.8826 0.30553 0.0
C1258 C 0.60426 0.85214 0.31131 0.0
H1259 H 0.60351 0.91401 0.29251 0.0
H1260 H 0.64055 0.90062 0.30811 0.0
C1261 C 0.57157 0.82941 0.30781 0.0
C1262 C 0.11263 0.7029 0.28761 0.0
C1263 C 0.11011 0.67868 0.29804 0.0
H1264 H 0.12613 0.75187 0.28732 0.0
C1265 C 0.11933 0.68601 0.31684 0.0
H1266 H 0.10527 0.698 0.27315 0.0
C1267 C 0.13078 0.71676 0.325 0.0
C1268 C 0.13364 0.74098 0.31451 0.0
H1269 H 0.1183 0.66815 0.32526 0.0
H1270 H 0.13788 0.72163 0.33949 0.0
C1271 C 0.12445 0.73376 0.29574 0.0
C1272 C 0.77875 0.97208 0.36696 0.0
C1273 C 0.77196 0.98178 0.38358 0.0
H1274 H 0.76392 0.93518 0.34532 0.0
C1275 C 0.74356 0.96099 0.391 0.0
H1276 H 0.80064 0.9875 0.36104 0.0
C1277 C 0.72236 0.93099 0.38194 0.0
C1278 C 0.72945 0.92111 0.36545 0.0
H1279 H 0.73772 0.96799 0.40376 0.0
H1280 H 0.70072 0.91537 0.38801 0.0
C1281 C 0.75781 0.94202 0.35804 0.0
C1282 C 0.05951 0.81515 0.39161 0.0
C1283 C 0.029 0.79255 0.38316 0.0
H1284 H 0.11007 0.84119 0.38967 0.0
C1285 C 0.02707 0.77952 0.36525 0.0
H1286 H 0.0623 0.82649 0.40514 0.0
C1287 C 0.05462 0.78891 0.35612 0.0
C1288 C 0.08494 0.81101 0.36477 0.0
H1289 H 0.00434 0.7616 0.35827 0.0
H1290 H 0.05224 0.77819 0.34245 0.0
C1291 C 0.08705 0.82394 0.38264 0.0
C1292 C 0.23952 0.25435 0.35947 0.0
C1293 C 0.23039 0.24169 0.37621 0.0
H1294 H 0.23312 0.27989 0.33859 0.0
C1295 C 0.20647 0.24485 0.38447 0.0
H1296 H 0.25812 0.25277 0.3528 0.0
C1297 C 0.19271 0.26093 0.3765 0.0
C1298 C 0.20203 0.27373 0.35989 0.0
H1299 H 0.19812 0.23472 0.39707 0.0
H1300 H 0.1746 0.26321 0.38334 0.0
C1301 C 0.22528 0.26998 0.35132 0.0
C1302 C 0.7223 0.59723 0.72275 0.0
C1303 C 0.6997 0.56618 0.71541 0.0
H1304 H 0.76558 0.64006 0.71976 0.0
C1305 C 0.70445 0.55462 0.69862 0.0
H1306 H 0.71993 0.60675 0.73581 0.0
C1307 C 0.7311 0.57377 0.6894 0.0
C1308 C 0.75341 0.60493 0.69672 0.0
H1309 H 0.68736 0.53091 0.69246 0.0
H1310 H 0.73405 0.56427 0.67649 0.0
C1311 C 0.74867 0.61634 0.71352 0.0
C1312 C 0.44842 0.13792 0.70195 0.0
C1313 C 0.4448 0.12998 0.71997 0.0
H1314 H 0.43017 0.15034 0.67878 0.0
C1315 C 0.41903 0.1287 0.72855 0.0
H1316 H 0.4679 0.13882 0.69494 0.0
C1317 C 0.39754 0.13556 0.71936 0.0
C1318 C 0.40108 0.14338 0.7013 0.0
H1319 H 0.41576 0.12283 0.74247 0.0
H1320 H 0.37805 0.13456 0.72641 0.0
C1321 C 0.42668 0.14433 0.69267 0.0
C1322 C 0.88888 0.31651 0.69349 0.0
C1323 C 0.90126 0.32579 0.71179 0.0
H1324 H 0.86707 0.27866 0.67208 0.0
C1325 C 0.90088 0.30312 0.72278 0.0
H1326 H 0.88908 0.33364 0.68474 0.0
C1327 C 0.88798 0.27153 0.71561 0.0
C1328 C 0.8757 0.26225 0.69727 0.0
H1329 H 0.91009 0.30973 0.73698 0.0
H1330 H 0.88785 0.25447 0.7244 0.0
C1331 C 0.87641 0.28508 0.68627 0.0
C1332 C 0.23185 0.02029 0.64786 0.0
C1333 C 0.23281 0.01254 0.62942 0.0
H1334 H 0.25209 0.05572 0.67055 0.0
C1335 C 0.25585 0.0356 0.61954 0.0
H1336 H 0.21447 0.00284 0.6558 0.0
C1337 C 0.27731 0.06608 0.62793 0.0
C1338 C 0.27638 0.07378 0.64642 0.0
H1339 H 0.25692 0.03018 0.60526 0.0
H1340 H 0.29467 0.08351 0.61998 0.0
C1341 C 0.25353 0.05052 0.6563 0.0
C1342 C 0.97519 0.196 0.64808 0.0
C1343 C 0.97585 0.20161 0.62962 0.0
H1344 H 0.94852 0.18503 0.67148 0.0
C1345 C 0.94881 0.19995 0.62051 0.0
H1346 H 0.99575 0.19731 0.6555 0.0
C1347 C 0.92165 0.19257 0.62958 0.0
C1348 C 0.92102 0.18713 0.64808 0.0
H1349 H 0.94848 0.20388 0.60625 0.0
H1350 H 0.90121 0.19137 0.62208 0.0
C1351 C 0.94819 0.18909 0.65725 0.0
C1352 C 0.81683 0.77522 0.64176 0.0
C1353 C 0.78411 0.76274 0.63632 0.0
H1354 H 0.85262 0.76706 0.65432 0.0
C1355 C 0.76222 0.73145 0.63987 0.0
H1356 H 0.83461 0.79886 0.63895 0.0
C1357 C 0.77283 0.71296 0.64814 0.0
C1358 C 0.80541 0.7256 0.65354 0.0
H1359 H 0.7368 0.72115 0.63635 0.0
H1360 H 0.75548 0.68881 0.65046 0.0
C1361 C 0.82728 0.75698 0.6505 0.0
C1362 C 0.95163 0.73522 0.62329 0.0
C1363 C 0.97939 0.76068 0.63277 0.0
H1364 H 0.90311 0.69881 0.62418 0.0
C1365 C 0.97882 0.76826 0.65141 0.0
H1366 H 0.95123 0.72804 0.60909 0.0
C1367 C 0.95113 0.75089 0.66024 0.0
C1368 C 0.92332 0.7259 0.65056 0.0
H1369 H 0.99956 0.78796 0.65914 0.0
H1370 H 0.95135 0.75736 0.67454 0.0
C1371 C 0.92396 0.71827 0.63201 0.0
C1372 C 0.22042 0.17188 0.63176 0.0
C1373 C 0.23073 0.20313 0.62771 0.0
H1374 H 0.23285 0.14036 0.64417 0.0
C1375 C 0.26256 0.22691 0.63288 0.0
H1376 H 0.19594 0.1532 0.62793 0.0
C1377 C 0.28388 0.21946 0.64176 0.0
C1378 C 0.27342 0.1883 0.6461 0.0
H1379 H 0.27099 0.25117 0.62987 0.0
H1380 H 0.30836 0.23818 0.64553 0.0
C1381 C 0.24146 0.16462 0.64109 0.0
C1382 C 0.79632 0.0219 0.65207 0.0
C1383 C 0.7758 0.01122 0.63594 0.0
H1384 H 0.82488 0.06075 0.67235 0.0
C1385 C 0.76737 0.03184 0.62809 0.0
H1386 H 0.80335 0.00647 0.65828 0.0
C1387 C 0.77952 0.06275 0.63613 0.0
C1388 C 0.80062 0.07373 0.65206 0.0
H1389 H 0.75144 0.02406 0.61569 0.0
H1390 H 0.77278 0.07818 0.62966 0.0
C1391 C 0.80881 0.05299 0.66002 0.0
C1392 C 0.44961 0.30649 0.70219 0.0
C1393 C 0.44278 0.31689 0.71857 0.0
H1394 H 0.43445 0.26917 0.6808 0.0
C1395 C 0.41401 0.29673 0.72588 0.0
H1396 H 0.47176 0.32137 0.69635 0.0
C1397 C 0.39243 0.26673 0.71692 0.0
C1398 C 0.3995 0.25623 0.70062 0.0
H1399 H 0.40812 0.30427 0.73846 0.0
H1400 H 0.37047 0.25164 0.72287 0.0
C1401 C 0.4283 0.27646 0.69336 0.0
C1402 C 0.72241 0.12501 0.7255 0.0
C1403 C 0.69934 0.1321 0.71867 0.0
H1404 H 0.76673 0.1267 0.72215 0.0
C1405 C 0.70442 0.14751 0.70262 0.0
H1406 H 0.71917 0.1129 0.7377 0.0
C1407 C 0.73184 0.15548 0.69361 0.0
C1408 C 0.75468 0.14798 0.70035 0.0
H1409 H 0.68729 0.15365 0.6971 0.0
H1410 H 0.73497 0.16725 0.68128 0.0
C1411 C 0.74963 0.13276 0.71645 0.0
C1412 C 0.90144 0.60383 0.72008 0.0
C1413 C 0.90176 0.57881 0.70982 0.0
H1414 H 0.88785 0.63925 0.72083 0.0
C1415 C 0.88867 0.57107 0.69154 0.0
H1416 H 0.912 0.61102 0.73403 0.0
C1417 C 0.87518 0.58775 0.68383 0.0
C1418 C 0.8742 0.61216 0.69432 0.0
H1419 H 0.88821 0.55171 0.6833 0.0
H1420 H 0.86502 0.58114 0.66979 0.0
C1421 C 0.88764 0.62012 0.71247 0.0
C1422 C 0.49734 0.99798 0.16102 0.0
C1423 C 0.4798 0.96473 0.16115 0.0
H1424 H 0.52074 0.03751 0.14525 0.0
C1425 C 0.47151 0.94572 0.1445 0.0
H1426 H 0.50455 0.01335 0.17361 0.0
C1427 C 0.48055 0.95957 0.12816 0.0
C1428 C 0.4984 0.99286 0.128 0.0
H1429 H 0.45765 0.92005 0.14405 0.0
H1430 H 0.47313 0.94408 0.11561 0.0
C1431 C 0.50661 0.01185 0.1447 0.0
C1432 C 0.02532 0.4877 0.14936 0.0
C1433 C 1.0039 0.47803 0.16287 0.0
H1434 H 0.03139 0.49248 0.12111 0.0
C1435 C 0.97089 0.46259 0.15764 0.0
H1436 H 0.05087 0.49929 0.15298 0.0
C1437 C 0.95965 0.45837 0.13931 0.0
C1438 C 0.9812 0.46938 0.12588 0.0
H1439 H 0.95382 0.45498 0.16775 0.0
H1440 H 0.93413 0.44714 0.1357 0.0
C1441 C 0.01411 0.48344 0.13108 0.0
C1442 C 0.466 0.45772 0.15307 0.0
C1443 C 0.48452 0.48519 0.16517 0.0
H1444 H 0.4601 0.43448 0.12641 0.0
C1445 C 0.5118 0.51085 0.15928 0.0
H1446 H 0.44493 0.43756 0.15727 0.0
C1447 C 0.52039 0.50915 0.1417 0.0
C1448 C 0.50207 0.48165 0.12962 0.0
H1449 H 0.52634 0.53248 0.16822 0.0
H1450 H 0.5416 0.5293 0.13761 0.0
C1451 C 0.47483 0.45588 0.1355 0.0
C1452 C 0.01928 0.48953 0.85394 0.0
C1453 C 0.02036 0.51541 0.84592 0.0
H1454 H 0.02552 0.4713 0.8785 0.0
C1455 C 0.02982 0.54376 0.85688 0.0
H1456 H 0.01176 0.46729 0.84584 0.0
C1457 C 0.03773 0.54606 0.87555 0.0
C1458 C 0.03595 0.51992 0.88362 0.0
H1459 H 0.031 0.56411 0.851 0.0
H1460 H 0.04449 0.56802 0.88376 0.0
C1461 C 0.02685 0.49172 0.87263 0.0
C1462 C 0.52067 0.52542 0.85604 0.0
C1463 C 0.53897 0.51054 0.85403 0.0
H1464 H 0.4961 0.54002 0.87405 0.0
C1465 C 0.54802 0.50039 0.86949 0.0
H1466 H 0.51312 0.53331 0.84438 0.0
C1467 C 0.53809 0.50401 0.88642 0.0
C1468 C 0.51881 0.51784 0.88833 0.0
H1469 H 0.56239 0.48914 0.86843 0.0
H1470 H 0.54462 0.4949 0.89788 0.0
C1471 C 0.51063 0.52895 0.873 0.0
C1472 C 0.49706 0.02001 0.85789 0.0
C1473 C 0.52264 0.02114 0.84914 0.0
H1474 H 0.4698 0.00688 0.88098 0.0
C1475 C 0.54059 0.00913 0.85754 0.0
H1476 H 0.48292 0.02931 0.8519 0.0
C1477 C 0.53296 0.99613 0.87423 0.0
C1478 C 0.50751 0.99526 0.88303 0.0
H1479 H 0.56031 0.00946 0.8511 0.0
H1480 H 0.54731 0.98721 0.88039 0.0
C1481 C 0.48969 0.00739 0.87465 0.0
C1482 C 0.17267 0.30146 0.48734 0.0
C1483 C 0.14627 0.29915 0.49577 0.0
H1484 H 0.20102 0.31615 0.46476 0.0
C1485 C 0.12811 0.31079 0.48718 0.0
H1486 H 0.18772 0.29348 0.49368 0.0
C1487 C 0.13602 0.32416 0.47062 0.0
C1488 C 0.16217 0.32605 0.46214 0.0
H1489 H 0.10738 0.30909 0.49307 0.0
H1490 H 0.12124 0.33242 0.46425 0.0
C1491 C 0.18041 0.31459 0.47075 0.0
C1492 C 0.66698 0.85182 0.48937 0.0
C1493 C 0.66918 0.82731 0.49723 0.0
H1494 H 0.65444 0.86733 0.46545 0.0
C1495 C 0.65873 0.79843 0.48657 0.0
H1496 H 0.6741 0.8741 0.49731 0.0
C1497 C 0.6471 0.79447 0.46834 0.0
C1498 C 0.64585 0.81936 0.46041 0.0
H1499 H 0.66038 0.7792 0.49214 0.0
H1500 H 0.64002 0.77228 0.4603 0.0
C1501 C 0.65561 0.84794 0.47115 0.0
C1502 C 0.17281 0.81074 0.49357 0.0
C1503 C 0.14952 0.81916 0.49683 0.0
H1504 H 0.20024 0.80344 0.47411 0.0
C1505 C 0.13463 0.82512 0.48197 0.0
H1506 H 0.18449 0.80555 0.50463 0.0
C1507 C 0.14329 0.82336 0.46439 0.0
C1508 C 0.1672 0.81576 0.4612 0.0
H1509 H 0.11684 0.83199 0.48396 0.0
H1510 H 0.13124 0.82802 0.45328 0.0
C1511 C 0.18161 0.80916 0.476 0.0
C1512 C 0.68968 0.86707 0.18832 0.0
C1513 C 0.68019 0.83851 0.17758 0.0
H1514 H 0.70452 0.89197 0.21504 0.0
C1515 C 0.67918 0.81286 0.18585 0.0
H1516 H 0.69084 0.88727 0.18226 0.0
C1517 C 0.6869 0.81551 0.20457 0.0
C1518 C 0.69607 0.84395 0.21535 0.0
H1519 H 0.67167 0.79046 0.17792 0.0
H1520 H 0.68569 0.79529 0.21062 0.0
C1521 C 0.69772 0.86983 0.20702 0.0
C1522 C 0.1803 0.86038 0.18696 0.0
C1523 C 0.20128 0.84868 0.1846 0.0
H1524 H 0.15302 0.87043 0.20533 0.0
C1525 C 0.21287 0.8403 0.19984 0.0
H1526 H 0.17071 0.8667 0.17542 0.0
C1527 C 0.203 0.84268 0.21699 0.0
C1528 C 0.181 0.85318 0.2193 0.0
H1529 H 0.22941 0.83162 0.19846 0.0
H1530 H 0.21252 0.83608 0.22843 0.0
C1531 C 0.17017 0.86251 0.20412 0.0
C1532 C 0.16254 0.32553 0.18324 0.0
C1533 C 0.18654 0.35743 0.18262 0.0
H1534 H 0.13581 0.28802 0.19977 0.0
C1535 C 0.20276 0.3758 0.19915 0.0
H1536 H 0.14978 0.31046 0.17083 0.0
C1537 C 0.19503 0.36274 0.21579 0.0
C1538 C 0.17081 0.33093 0.21641 0.0
H1539 H 0.22114 0.40052 0.19928 0.0
H1540 H 0.20827 0.3776 0.22818 0.0
C1541 C 0.15477 0.31249 0.19988 0.0
C1542 C 0.8024 0.62349 0.81322 0.0
C1543 C 0.81245 0.64326 0.82966 0.0
H1544 H 0.80224 0.62029 0.78427 0.0
C1545 C 0.83072 0.67636 0.82904 0.0
H1546 H 0.78785 0.59792 0.81318 0.0
C1547 C 0.83946 0.68929 0.81241 0.0
C1548 C 0.82992 0.66946 0.79595 0.0
H1549 H 0.83909 0.69223 0.84148 0.0
H1550 H 0.85444 0.71481 0.81255 0.0
C1551 C 0.81084 0.63638 0.79661 0.0
C1552 C 0.32958 0.18048 0.82474 0.0
C1553 C 0.33079 0.15531 0.8324 0.0
H1554 H 0.31924 0.19762 0.80083 0.0
C1555 C 0.32092 0.12696 0.82131 0.0
H1556 H 0.33627 0.20237 0.83298 0.0
C1557 C 0.31079 0.12416 0.8029 0.0
C1558 C 0.3105 0.1497 0.7952 0.0
H1559 H 0.32185 0.10725 0.82671 0.0
H1560 H 0.30408 0.10234 0.79456 0.0
C1561 C 0.31972 0.17776 0.80635 0.0
C1562 C 0.84001 0.14909 0.82888 0.0
C1563 C 0.81612 0.15683 0.83181 0.0
H1564 H 0.86795 0.14186 0.80975 0.0
C1565 C 0.80053 0.16128 0.81666 0.0
H1566 H 0.85222 0.14501 0.84016 0.0
C1567 C 0.80914 0.15885 0.79914 0.0
C1568 C 0.83374 0.15213 0.79628 0.0
H1569 H 0.78224 0.16757 0.81836 0.0
H1570 H 0.79657 0.16244 0.78782 0.0
C1571 C 0.84878 0.14688 0.81136 0.0
C1572 C 0.35345 0.15619 0.5203 0.0
C1573 C 0.35583 0.18266 0.51234 0.0
H1574 H 0.35795 0.13693 0.54481 0.0
C1575 C 0.36591 0.21103 0.52344 0.0
H1576 H 0.34541 0.13391 0.51211 0.0
C1577 C 0.37305 0.21274 0.54218 0.0
C1578 C 0.36989 0.186 0.55017 0.0
H1579 H 0.36808 0.23183 0.51765 0.0
H1580 H 0.38023 0.23472 0.55047 0.0
C1581 C 0.36029 0.15781 0.53903 0.0
C1582 C 0.83619 0.13925 0.52639 0.0
C1583 C 0.86205 0.16521 0.51961 0.0
H1584 H 0.80566 0.12236 0.54789 0.0
C1585 C 0.87658 0.19509 0.52983 0.0
H1586 H 0.82382 0.11606 0.5187 0.0
C1587 C 0.86582 0.19874 0.54653 0.0
C1588 C 0.8404 0.17257 0.55341 0.0
H1589 H 0.89669 0.21554 0.52512 0.0
H1590 H 0.8779 0.22189 0.55427 0.0
C1591 C 0.82562 0.14286 0.54309 0.0
C1592 C 0.82766 0.68886 0.52466 0.0
C1593 C 0.85314 0.68931 0.5161 0.0
H1594 H 0.80013 0.67672 0.54767 0.0
C1595 C 0.87083 0.67743 0.52494 0.0
H1596 H 0.81373 0.69812 0.51835 0.0
C1597 C 0.86299 0.66511 0.54178 0.0
C1598 C 0.8375 0.66468 0.55033 0.0
H1599 H 0.89047 0.67723 0.5187 0.0
H1600 H 0.87715 0.65622 0.54822 0.0
C1601 C 0.82003 0.67685 0.54157 0.0
loop_
_geom_bond_atom_site_label_1
_geom_bond_atom_site_label_2
_geom_bond_distance
_geom_bond_site_symmetry_2
_ccdc_geom_bond_type
C0 C1 1.386 . S
C0 C2 1.397 . S
C0 H24 0.931 . S
C1 C0 1.386 . S
C1 C5 1.397 . S
C2 C0 1.397 . S
C2 C3 1.384 . S
C2 H25 0.930 . S
C3 C2 1.384 . S
C3 C4 1.377 . S
C3 C6 1.481 . S
C4 C3 1.377 . S
C4 C5 1.389 . S
C4 H26 0.929 . S
C5 C1 1.397 . S
C5 C4 1.389 . S
C5 H27 0.931 . S
C6 C3 1.481 . S
C6 C7 1.387 . S
C6 C11 1.390 . S
C7 C6 1.387 . S
C7 C8 1.401 . S
C7 H28 0.930 . S
C8 C7 1.401 . S
C8 C9 1.376 . S
C8 C17 1.511 . S
C9 C8 1.376 . S
C9 C10 1.392 . S
C9 H30 0.931 . S
C10 C9 1.392 . S
C10 C11 1.361 . S
C10 C12 1.500 . S
C11 C6 1.390 . S
C11 C10 1.361 . S
C11 H29 0.931 . S
C12 C10 1.500 . S
C12 C13 1.371 . S
C12 C14 1.365 . S
C13 C12 1.371 . S
C13 C23 1.386 . S
C13 H31 0.931 . S
C14 C12 1.365 . S
C14 C15 1.409 . S
C14 H32 0.929 . S
C15 C14 1.409 . S
C15 C16 1.380 . S
C15 H33 0.930 . S
C16 C15 1.380 . S
C16 C23 1.357 . S
C17 C8 1.511 . S
C17 C18 1.341 . S
C17 C19 1.371 . S
C18 C17 1.341 . S
C18 C22 1.394 . S
C18 H34 0.930 . S
C19 C17 1.371 . S
C19 C20 1.392 . S
C19 H35 0.931 . S
C20 C19 1.392 . S
C20 C21 1.331 . S
C20 H38 0.932 . S
C21 C20 1.331 . S
C21 C22 1.336 . S
C22 C18 1.394 . S
C22 C21 1.336 . S
C22 H37 0.929 . S
C23 C13 1.386 . S
C23 C16 1.357 . S
C23 H36 0.928 . S
H24 C0 0.931 . S
H25 C2 0.930 . S
H26 C4 0.929 . S
H27 C5 0.931 . S
H28 C7 0.930 . S
H29 C11 0.931 . S
H30 C9 0.931 . S
H31 C13 0.931 . S
H32 C14 0.929 . S
H33 C15 0.930 . S
H34 C18 0.930 . S
H35 C19 0.931 . S
H36 C23 0.928 . S
H37 C22 0.929 . S
H38 C20 0.932 . S
C39 C40 1.386 . S
C39 C41 1.397 . S
C39 H63 0.931 . S
C40 C39 1.386 . S
C40 C44 1.397 . S
C41 C39 1.397 . S
C41 C42 1.384 . S
C41 H64 0.930 . S
C42 C41 1.384 . S
C42 C43 1.377 . S
C42 C45 1.481 . S
C43 C42 1.377 . S
C43 C44 1.389 . S
C43 H65 0.929 . S
C44 C40 1.397 . S
C44 C43 1.389 . S
C44 H66 0.931 . S
C45 C42 1.481 . S
C45 C46 1.387 . S
C45 C50 1.390 . S
C46 C45 1.387 . S
C46 C47 1.401 . S
C46 H67 0.930 . S
C47 C46 1.401 . S
C47 C48 1.376 . S
C47 C56 1.511 . S
C48 C47 1.376 . S
C48 C49 1.392 . S
C48 H69 0.931 . S
C49 C48 1.392 . S
C49 C50 1.361 . S
C49 C51 1.500 . S
C50 C45 1.390 . S
C50 C49 1.361 . S
C50 H68 0.931 . S
C51 C49 1.500 . S
C51 C52 1.371 . S
C51 C53 1.365 . S
C52 C51 1.371 . S
C52 C62 1.386 . S
C52 H70 0.931 . S
C53 C51 1.365 . S
C53 C54 1.409 . S
C53 H71 0.929 . S
C54 C53 1.409 . S
C54 C55 1.380 . S
C54 H72 0.930 . S
C55 C54 1.380 . S
C55 C62 1.357 . S
C56 C47 1.511 . S
C56 C57 1.341 . S
C56 C58 1.371 . S
C57 C56 1.341 . S
C57 C61 1.394 . S
C57 H73 0.930 . S
C58 C56 1.371 . S
C58 C59 1.392 . S
C58 H74 0.931 . S
C59 C58 1.392 . S
C59 C60 1.331 . S
C59 H77 0.932 . S
C60 C59 1.331 . S
C60 C61 1.336 . S
C61 C57 1.394 . S
C61 C60 1.336 . S
C61 H76 0.929 . S
C62 C52 1.386 . S
C62 C55 1.357 . S
C62 H75 0.928 . S
H63 C39 0.931 . S
H64 C41 0.930 . S
H65 C43 0.929 . S
H66 C44 0.931 . S
H67 C46 0.930 . S
H68 C50 0.931 . S
H69 C48 0.931 . S
H70 C52 0.931 . S
H71 C53 0.929 . S
H72 C54 0.930 . S
H73 C57 0.930 . S
H74 C58 0.931 . S
H75 C62 0.928 . S
H76 C61 0.929 . S
H77 C59 0.932 . S
C78 C79 1.386 . S
C78 C80 1.397 . S
C78 H102 0.931 . S
C79 C78 1.386 . S
C79 C83 1.397 . S
C80 C78 1.397 . S
C80 C81 1.384 . S
C80 H103 0.930 . S
C81 C80 1.384 . S
C81 C82 1.377 . S
C81 C84 1.481 . S
C82 C81 1.377 . S
C82 C83 1.389 . S
C82 H104 0.929 . S
C83 C79 1.397 . S
C83 C82 1.389 . S
C83 H105 0.931 . S
C84 C81 1.481 . S
C84 C85 1.387 . S
C84 C89 1.390 . S
C85 C84 1.387 . S
C85 C86 1.401 . S
C85 H106 0.930 . S
C86 C85 1.401 . S
C86 C87 1.376 . S
C86 C95 1.511 . S
C87 C86 1.376 . S
C87 C88 1.392 . S
C87 H108 0.931 . S
C88 C87 1.392 . S
C88 C89 1.361 . S
C88 C90 1.500 . S
C89 C84 1.390 . S
C89 C88 1.361 . S
C89 H107 0.931 . S
C90 C88 1.500 . S
C90 C91 1.371 . S
C90 C92 1.365 . S
C91 C90 1.371 . S
C91 C101 1.386 . S
C91 H109 0.931 . S
C92 C90 1.365 . S
C92 C93 1.409 . S
C92 H110 0.929 . S
C93 C92 1.409 . S
C93 C94 1.380 . S
C93 H111 0.930 . S
C94 C93 1.380 . S
C94 C101 1.357 . S
C95 C86 1.511 . S
C95 C96 1.341 . S
C95 C97 1.371 . S
C96 C95 1.341 . S
C96 C100 1.394 . S
C96 H112 0.930 . S
C97 C95 1.371 . S
C97 C98 1.392 . S
C97 H113 0.931 . S
C98 C97 1.392 . S
C98 C99 1.331 . S
C98 H116 0.932 . S
C99 C98 1.331 . S
C99 C100 1.336 . S
C100 C96 1.394 . S
C100 C99 1.336 . S
C100 H115 0.929 1_655 S
C101 C91 1.386 . S
C101 C94 1.357 . S
C101 H114 0.928 . S
H102 C78 0.931 . S
H103 C80 0.930 . S
H104 C82 0.929 . S
H105 C83 0.931 . S
H106 C85 0.930 . S
H107 C89 0.931 . S
H108 C87 0.931 . S
H109 C91 0.931 . S
H110 C92 0.929 . S
H111 C93 0.930 . S
H112 C96 0.930 . S
H113 C97 0.931 . S
H114 C101 0.928 . S
H115 C100 0.929 1_455 S
H116 C98 0.932 . S
C117 C118 1.386 . S
C117 C119 1.397 . S
C117 H141 0.931 . S
C118 C117 1.386 . S
C118 C122 1.397 . S
C119 C117 1.397 . S
C119 C120 1.384 . S
C119 H142 0.930 . S
C120 C119 1.384 . S
C120 C121 1.377 . S
C120 C123 1.481 . S
C121 C120 1.377 . S
C121 C122 1.389 . S
C121 H143 0.929 . S
C122 C118 1.397 . S
C122 C121 1.389 . S
C122 H144 0.931 . S
C123 C120 1.481 . S
C123 C124 1.387 . S
C123 C128 1.390 . S
C124 C123 1.387 . S
C124 C125 1.401 . S
C124 H145 0.930 . S
C125 C124 1.401 . S
C125 C126 1.376 . S
C125 C134 1.511 . S
C126 C125 1.376 . S
C126 C127 1.392 . S
C126 H147 0.931 . S
C127 C126 1.392 . S
C127 C128 1.361 . S
C127 C129 1.500 . S
C128 C123 1.390 . S
C128 C127 1.361 . S
C128 H146 0.931 . S
C129 C127 1.500 . S
C129 C130 1.371 . S
C129 C131 1.365 . S
C130 C129 1.371 . S
C130 C140 1.386 . S
C130 H148 0.931 . S
C131 C129 1.365 . S
C131 C132 1.409 . S
C131 H149 0.929 . S
C132 C131 1.409 . S
C132 C133 1.380 . S
C132 H150 0.930 . S
C133 C132 1.380 . S
C133 C140 1.357 . S
C134 C125 1.511 . S
C134 C135 1.341 . S
C134 C136 1.371 . S
C135 C134 1.341 . S
C135 C139 1.394 . S
C135 H151 0.930 . S
C136 C134 1.371 . S
C136 C137 1.392 . S
C136 H152 0.931 . S
C137 C136 1.392 . S
C137 C138 1.331 . S
C137 H155 0.932 . S
C138 C137 1.331 . S
C138 C139 1.336 . S
C139 C135 1.394 . S
C139 C138 1.336 . S
C139 H154 0.929 . S
C140 C130 1.386 . S
C140 C133 1.357 . S
C140 H153 0.928 . S
H141 C117 0.931 . S
H142 C119 0.930 . S
H143 C121 0.929 . S
H144 C122 0.931 . S
H145 C124 0.930 . S
H146 C128 0.931 . S
H147 C126 0.931 . S
H148 C130 0.931 . S
H149 C131 0.929 . S
H150 C132 0.930 . S
H151 C135 0.930 . S
H152 C136 0.931 . S
H153 C140 0.928 . S
H154 C139 0.929 . S
H155 C137 0.932 . S
C156 C157 1.386 . S
C156 C158 1.397 . S
C156 H180 0.931 . S
C157 C156 1.386 . S
C157 C161 1.397 . S
C158 C156 1.397 . S
C158 C159 1.384 . S
C158 H181 0.930 . S
C159 C158 1.384 . S
C159 C160 1.377 . S
C159 C162 1.481 . S
C160 C159 1.377 . S
C160 C161 1.389 . S
C160 H182 0.929 . S
C161 C157 1.397 . S
C161 C160 1.389 . S
C161 H183 0.931 . S
C162 C159 1.481 . S
C162 C163 1.387 . S
C162 C167 1.390 . S
C163 C162 1.387 . S
C163 C164 1.401 . S
C163 H184 0.930 . S
C164 C163 1.401 . S
C164 C165 1.376 . S
C164 C173 1.511 . S
C165 C164 1.376 . S
C165 C166 1.392 . S
C165 H186 0.931 . S
C166 C165 1.392 . S
C166 C167 1.361 . S
C166 C168 1.500 . S
C167 C162 1.390 . S
C167 C166 1.361 . S
C167 H185 0.931 . S
C168 C166 1.500 . S
C168 C169 1.371 . S
C168 C170 1.365 . S
C169 C168 1.371 . S
C169 C179 1.386 . S
C169 H187 0.931 . S
C170 C168 1.365 . S
C170 C171 1.409 . S
C170 H188 0.929 . S
C171 C170 1.409 . S
C171 C172 1.380 . S
C171 H189 0.930 . S
C172 C171 1.380 . S
C172 C179 1.357 . S
C173 C164 1.511 . S
C173 C174 1.341 . S
C173 C175 1.371 . S
C174 C173 1.341 . S
C174 C178 1.394 . S
C174 H190 0.930 . S
C175 C173 1.371 . S
C175 C176 1.392 . S
C175 H191 0.931 . S
C176 C175 1.392 . S
C176 C177 1.331 . S
C176 H194 0.932 . S
C177 C176 1.331 . S
C177 C178 1.336 . S
C178 C174 1.394 . S
C178 C177 1.336 . S
C178 H193 0.929 . S
C179 C169 1.386 . S
C179 C172 1.357 . S
C179 H192 0.928 . S
H180 C156 0.931 . S
H181 C158 0.930 . S
H182 C160 0.929 . S
H183 C161 0.931 . S
H184 C163 0.930 . S
H185 C167 0.931 . S
H186 C165 0.931 . S
H187 C169 0.931 . S
H188 C170 0.929 . S
H189 C171 0.930 . S
H190 C174 0.930 . S
H191 C175 0.931 . S
H192 C179 0.928 . S
H193 C178 0.929 . S
H194 C176 0.932 . S
C195 C196 1.386 . S
C195 C197 1.397 . S
C195 H219 0.931 . S
C196 C195 1.386 . S
C196 C200 1.397 . S
C197 C195 1.397 . S
C197 C198 1.384 . S
C197 H220 0.930 . S
C198 C197 1.384 . S
C198 C199 1.377 . S
C198 C201 1.481 . S
C199 C198 1.377 . S
C199 C200 1.389 . S
C199 H221 0.929 . S
C200 C196 1.397 . S
C200 C199 1.389 . S
C200 H222 0.931 . S
C201 C198 1.481 . S
C201 C202 1.387 . S
C201 C206 1.390 . S
C202 C201 1.387 . S
C202 C203 1.401 . S
C202 H223 0.930 . S
C203 C202 1.401 . S
C203 C204 1.376 . S
C203 C212 1.511 . S
C204 C203 1.376 . S
C204 C205 1.392 . S
C204 H225 0.931 . S
C205 C204 1.392 . S
C205 C206 1.361 . S
C205 C207 1.500 . S
C206 C201 1.390 . S
C206 C205 1.361 . S
C206 H224 0.931 . S
C207 C205 1.500 . S
C207 C208 1.371 . S
C207 C209 1.365 . S
C208 C207 1.371 . S
C208 C218 1.386 . S
C208 H226 0.931 . S
C209 C207 1.365 . S
C209 C210 1.409 . S
C209 H227 0.929 . S
C210 C209 1.409 . S
C210 C211 1.380 . S
C210 H228 0.930 . S
C211 C210 1.380 . S
C211 C218 1.357 . S
C212 C203 1.511 . S
C212 C213 1.341 . S
C212 C214 1.371 . S
C213 C212 1.341 . S
C213 C217 1.394 . S
C213 H229 0.930 . S
C214 C212 1.371 . S
C214 C215 1.392 . S
C214 H230 0.931 . S
C215 C214 1.392 . S
C215 C216 1.331 . S
C215 H233 0.932 . S
C216 C215 1.331 . S
C216 C217 1.336 . S
C217 C213 1.394 . S
C217 C216 1.336 . S
C217 H232 0.929 . S
C218 C208 1.386 . S
C218 C211 1.357 . S
C218 H231 0.928 . S
H219 C195 0.931 . S
H220 C197 0.930 . S
H221 C199 0.929 . S
H222 C200 0.931 . S
H223 C202 0.930 . S
H224 C206 0.931 . S
H225 C204 0.931 . S
H226 C208 0.931 . S
H227 C209 0.929 . S
H228 C210 0.930 . S
H229 C213 0.930 . S
H230 C214 0.931 . S
H231 C218 0.928 . S
H232 C217 0.929 . S
H233 C215 0.932 . S
C234 C235 1.386 . S
C234 C236 1.397 . S
C234 H258 0.931 . S
C235 C234 1.386 . S
C235 C239 1.397 1_655 S
C236 C234 1.397 . S
C236 C237 1.384 . S
C236 H259 0.930 . S
C237 C236 1.384 . S
C237 C238 1.377 1_655 S
C237 C240 1.481 . S
C238 C237 1.377 1_455 S
C238 C239 1.389 . S
C238 H260 0.929 . S
C239 C235 1.397 1_455 S
C239 C238 1.389 . S
C239 H261 0.931 . S
C240 C237 1.481 . S
C240 C241 1.387 . S
C240 C245 1.390 . S
C241 C240 1.387 . S
C241 C242 1.401 . S
C241 H262 0.930 . S
C242 C241 1.401 . S
C242 C243 1.376 . S
C242 C251 1.511 . S
C243 C242 1.376 . S
C243 C244 1.392 . S
C243 H264 0.931 . S
C244 C243 1.392 . S
C244 C245 1.361 . S
C244 C246 1.500 . S
C245 C240 1.390 . S
C245 C244 1.361 . S
C245 H263 0.931 . S
C246 C244 1.500 . S
C246 C247 1.371 . S
C246 C248 1.365 . S
C247 C246 1.371 . S
C247 C257 1.386 . S
C247 H265 0.931 . S
C248 C246 1.365 . S
C248 C249 1.409 . S
C248 H266 0.929 . S
C249 C248 1.409 . S
C249 C250 1.380 . S
C249 H267 0.930 . S
C250 C249 1.380 . S
C250 C257 1.357 . S
C251 C242 1.511 . S
C251 C252 1.341 . S
C251 C253 1.371 . S
C252 C251 1.341 . S
C252 C256 1.394 . S
C252 H268 0.930 . S
C253 C251 1.371 . S
C253 C254 1.392 . S
C253 H269 0.931 . S
C254 C253 1.392 . S
C254 C255 1.331 . S
C254 H272 0.932 . S
C255 C254 1.331 . S
C255 C256 1.336 . S
C256 C252 1.394 . S
C256 C255 1.336 . S
C256 H271 0.929 . S
C257 C247 1.386 . S
C257 C250 1.357 . S
C257 H270 0.928 . S
H258 C234 0.931 . S
H259 C236 0.930 . S
H260 C238 0.929 . S
H261 C239 0.931 . S
H262 C241 0.930 . S
H263 C245 0.931 . S
H264 C243 0.931 . S
H265 C247 0.931 . S
H266 C248 0.929 . S
H267 C249 0.930 . S
H268 C252 0.930 . S
H269 C253 0.931 . S
H270 C257 0.928 . S
H271 C256 0.929 . S
H272 C254 0.932 . S
C273 C274 1.386 . S
C273 C275 1.397 . S
C273 H297 0.931 . S
C274 C273 1.386 . S
C274 C278 1.397 . S
C275 C273 1.397 . S
C275 C276 1.384 . S
C275 H298 0.930 . S
C276 C275 1.384 . S
C276 C277 1.377 . S
C276 C279 1.481 . S
C277 C276 1.377 . S
C277 C278 1.389 . S
C277 H299 0.929 . S
C278 C274 1.397 . S
C278 C277 1.389 . S
C278 H300 0.931 . S
C279 C276 1.481 . S
C279 C280 1.387 . S
C279 C284 1.390 . S
C280 C279 1.387 . S
C280 C281 1.401 . S
C280 H301 0.930 . S
C281 C280 1.401 . S
C281 C282 1.376 . S
C281 C290 1.511 . S
C282 C281 1.376 . S
C282 C283 1.392 . S
C282 H303 0.931 . S
C283 C282 1.392 . S
C283 C284 1.361 . S
C283 C285 1.500 . S
C284 C279 1.390 . S
C284 C283 1.361 . S
C284 H302 0.931 . S
C285 C283 1.500 . S
C285 C286 1.371 . S
C285 C287 1.365 . S
C286 C285 1.371 . S
C286 C296 1.386 . S
C286 H304 0.931 . S
C287 C285 1.365 . S
C287 C288 1.409 . S
C287 H305 0.929 . S
C288 C287 1.409 . S
C288 C289 1.380 . S
C288 H306 0.930 . S
C289 C288 1.380 . S
C289 C296 1.357 . S
C290 C281 1.511 . S
C290 C291 1.341 . S
C290 C292 1.371 . S
C291 C290 1.341 . S
C291 C295 1.394 . S
C291 H307 0.930 . S
C292 C290 1.371 . S
C292 C293 1.392 . S
C292 H308 0.931 . S
C293 C292 1.392 . S
C293 C294 1.331 . S
C293 H311 0.932 . S
C294 C293 1.331 . S
C294 C295 1.336 . S
C295 C291 1.394 . S
C295 C294 1.336 . S
C295 H310 0.929 . S
C296 C286 1.386 . S
C296 C289 1.357 . S
C296 H309 0.928 . S
H297 C273 0.931 . S
H298 C275 0.930 . S
H299 C277 0.929 . S
H300 C278 0.931 . S
H301 C280 0.930 . S
H302 C284 0.931 . S
H303 C282 0.931 . S
H304 C286 0.931 . S
H305 C287 0.929 . S
H306 C288 0.930 . S
H307 C291 0.930 . S
H308 C292 0.931 . S
H309 C296 0.928 . S
H310 C295 0.929 . S
H311 C293 0.932 . S
C312 C313 1.386 . S
C312 C314 1.397 . S
C312 H336 0.931 . S
C313 C312 1.386 . S
C313 C317 1.397 . S
C314 C312 1.397 . S
C314 C315 1.384 . S
C314 H337 0.930 . S
C315 C314 1.384 . S
C315 C316 1.377 . S
C315 C318 1.481 . S
C316 C315 1.377 . S
C316 C317 1.389 . S
C316 H338 0.929 . S
C317 C313 1.397 . S
C317 C316 1.389 . S
C317 H339 0.931 . S
C318 C315 1.481 . S
C318 C319 1.387 . S
C318 C323 1.390 . S
C319 C318 1.387 . S
C319 C320 1.401 . S
C319 H340 0.930 . S
C320 C319 1.401 . S
C320 C321 1.376 . S
C320 C329 1.511 . S
C321 C320 1.376 . S
C321 C322 1.392 . S
C321 H342 0.931 . S
C322 C321 1.392 . S
C322 C323 1.361 . S
C322 C324 1.500 . S
C323 C318 1.390 . S
C323 C322 1.361 . S
C323 H341 0.931 . S
C324 C322 1.500 . S
C324 C325 1.371 . S
C324 C326 1.365 . S
C325 C324 1.371 . S
C325 C335 1.386 . S
C325 H343 0.931 . S
C326 C324 1.365 . S
C326 C327 1.409 . S
C326 H344 0.929 . S
C327 C326 1.409 . S
C327 C328 1.380 . S
C327 H345 0.930 . S
C328 C327 1.380 . S
C328 C335 1.357 . S
C329 C320 1.511 . S
C329 C330 1.341 . S
C329 C331 1.371 . S
C330 C329 1.341 . S
C330 C334 1.394 . S
C330 H346 0.930 . S
C331 C329 1.371 . S
C331 C332 1.392 . S
C331 H347 0.931 . S
C332 C331 1.392 . S
C332 C333 1.331 . S
C332 H350 0.932 . S
C333 C332 1.331 . S
C333 C334 1.336 . S
C334 C330 1.394 . S
C334 C333 1.336 . S
C334 H349 0.929 . S
C335 C325 1.386 . S
C335 C328 1.357 . S
C335 H348 0.928 . S
H336 C312 0.931 . S
H337 C314 0.930 . S
H338 C316 0.929 . S
H339 C317 0.931 . S
H340 C319 0.930 . S
H341 C323 0.931 . S
H342 C321 0.931 . S
H343 C325 0.931 . S
H344 C326 0.929 . S
H345 C327 0.930 . S
H346 C330 0.930 . S
H347 C331 0.931 . S
H348 C335 0.928 . S
H349 C334 0.929 . S
H350 C332 0.932 . S
C351 C352 1.386 . S
C351 C353 1.397 . S
C351 H375 0.931 . S
C352 C351 1.386 . S
C352 C356 1.397 . S
C353 C351 1.397 . S
C353 C354 1.384 . S
C353 H376 0.930 . S
C354 C353 1.384 . S
C354 C355 1.377 . S
C354 C357 1.481 . S
C355 C354 1.377 . S
C355 C356 1.389 . S
C355 H377 0.929 . S
C356 C352 1.397 . S
C356 C355 1.389 . S
C356 H378 0.931 . S
C357 C354 1.481 . S
C357 C358 1.387 . S
C357 C362 1.390 . S
C358 C357 1.387 . S
C358 C359 1.401 . S
C358 H379 0.930 . S
C359 C358 1.401 . S
C359 C360 1.376 . S
C359 C368 1.511 . S
C360 C359 1.376 . S
C360 C361 1.392 . S
C360 H381 0.931 . S
C361 C360 1.392 . S
C361 C362 1.361 . S
C361 C363 1.500 . S
C362 C357 1.390 . S
C362 C361 1.361 . S
C362 H380 0.931 . S
C363 C361 1.500 . S
C363 C364 1.371 . S
C363 C365 1.365 . S
C364 C363 1.371 . S
C364 C374 1.386 . S
C364 H382 0.931 . S
C365 C363 1.365 . S
C365 C366 1.409 . S
C365 H383 0.929 . S
C366 C365 1.409 . S
C366 C367 1.380 . S
C366 H384 0.930 . S
C367 C366 1.380 . S
C367 C374 1.357 . S
C368 C359 1.511 . S
C368 C369 1.341 . S
C368 C370 1.371 . S
C369 C368 1.341 . S
C369 C373 1.394 . S
C369 H385 0.930 . S
C370 C368 1.371 . S
C370 C371 1.392 . S
C370 H386 0.931 . S
C371 C370 1.392 . S
C371 C372 1.331 . S
C371 H389 0.932 . S
C372 C371 1.331 . S
C372 C373 1.336 . S
C373 C369 1.394 . S
C373 C372 1.336 . S
C373 H388 0.929 . S
C374 C364 1.386 . S
C374 C367 1.357 . S
C374 H387 0.928 . S
H375 C351 0.931 . S
H376 C353 0.930 . S
H377 C355 0.929 . S
H378 C356 0.931 . S
H379 C358 0.930 . S
H380 C362 0.931 . S
H381 C360 0.931 . S
H382 C364 0.931 . S
H383 C365 0.929 . S
H384 C366 0.930 . S
H385 C369 0.930 . S
H386 C370 0.931 . S
H387 C374 0.928 . S
H388 C373 0.929 . S
H389 C371 0.932 . S
C390 C391 1.386 . S
C390 C392 1.397 . S
C390 H414 0.931 . S
C391 C390 1.386 . S
C391 C395 1.397 . S
C392 C390 1.397 . S
C392 C393 1.384 . S
C392 H415 0.930 . S
C393 C392 1.384 . S
C393 C394 1.377 . S
C393 C396 1.481 . S
C394 C393 1.377 . S
C394 C395 1.389 . S
C394 H416 0.929 . S
C395 C391 1.397 . S
C395 C394 1.389 . S
C395 H417 0.931 . S
C396 C393 1.481 . S
C396 C397 1.387 . S
C396 C401 1.390 . S
C397 C396 1.387 . S
C397 C398 1.401 . S
C397 H418 0.930 . S
C398 C397 1.401 . S
C398 C399 1.376 . S
C398 C407 1.511 . S
C399 C398 1.376 . S
C399 C400 1.392 . S
C399 H420 0.931 . S
C400 C399 1.392 . S
C400 C401 1.361 . S
C400 C402 1.500 . S
C401 C396 1.390 . S
C401 C400 1.361 . S
C401 H419 0.931 . S
C402 C400 1.500 . S
C402 C403 1.371 . S
C402 C404 1.365 . S
C403 C402 1.371 . S
C403 C413 1.386 . S
C403 H421 0.931 . S
C404 C402 1.365 . S
C404 C405 1.409 . S
C404 H422 0.929 . S
C405 C404 1.409 . S
C405 C406 1.380 . S
C405 H423 0.930 . S
C406 C405 1.380 . S
C406 C413 1.357 . S
C407 C398 1.511 . S
C407 C408 1.341 . S
C407 C409 1.371 . S
C408 C407 1.341 . S
C408 C412 1.394 . S
C408 H424 0.930 . S
C409 C407 1.371 . S
C409 C410 1.392 . S
C409 H425 0.931 . S
C410 C409 1.392 . S
C410 C411 1.331 . S
C410 H428 0.932 . S
C411 C410 1.331 . S
C411 C412 1.336 . S
C412 C408 1.394 . S
C412 C411 1.336 . S
C412 H427 0.929 . S
C413 C403 1.386 . S
C413 C406 1.357 . S
C413 H426 0.928 1_556 S
H414 C390 0.931 . S
H415 C392 0.930 . S
H416 C394 0.929 . S
H417 C395 0.931 . S
H418 C397 0.930 . S
H419 C401 0.931 . S
H420 C399 0.931 . S
H421 C403 0.931 . S
H422 C404 0.929 . S
H423 C405 0.930 . S
H424 C408 0.930 . S
H425 C409 0.931 . S
H426 C413 0.928 1_554 S
H427 C412 0.929 . S
H428 C410 0.932 . S
C429 C430 1.386 . S
C429 C431 1.397 . S
C429 H453 0.931 . S
C430 C429 1.386 . S
C430 C434 1.397 . S
C431 C429 1.397 . S
C431 C432 1.384 . S
C431 H454 0.930 . S
C432 C431 1.384 . S
C432 C433 1.377 . S
C432 C435 1.481 . S
C433 C432 1.377 . S
C433 C434 1.389 . S
C433 H455 0.929 . S
C434 C430 1.397 . S
C434 C433 1.389 . S
C434 H456 0.931 . S
C435 C432 1.481 . S
C435 C436 1.387 . S
C435 C440 1.390 . S
C436 C435 1.387 . S
C436 C437 1.401 . S
C436 H457 0.930 . S
C437 C436 1.401 . S
C437 C438 1.376 . S
C437 C446 1.511 . S
C438 C437 1.376 . S
C438 C439 1.392 . S
C438 H459 0.931 . S
C439 C438 1.392 . S
C439 C440 1.361 . S
C439 C441 1.500 . S
C440 C435 1.390 . S
C440 C439 1.361 . S
C440 H458 0.931 . S
C441 C439 1.500 . S
C441 C442 1.371 . S
C441 C443 1.365 . S
C442 C441 1.371 . S
C442 C452 1.386 . S
C442 H460 0.931 . S
C443 C441 1.365 . S
C443 C444 1.409 . S
C443 H461 0.929 . S
C444 C443 1.409 . S
C444 C445 1.380 . S
C444 H462 0.930 . S
C445 C444 1.380 . S
C445 C452 1.357 . S
C446 C437 1.511 . S
C446 C447 1.341 . S
C446 C448 1.371 . S
C447 C446 1.341 . S
C447 C451 1.394 . S
C447 H463 0.930 . S
C448 C446 1.371 . S
C448 C449 1.392 . S
C448 H464 0.931 . S
C449 C448 1.392 . S
C449 C450 1.331 . S
C449 H467 0.932 . S
C450 C449 1.331 . S
C450 C451 1.336 . S
C451 C447 1.394 . S
C451 C450 1.336 . S
C451 H466 0.929 . S
C452 C442 1.386 . S
C452 C445 1.357 . S
C452 H465 0.928 . S
H453 C429 0.931 . S
H454 C431 0.930 . S
H455 C433 0.929 . S
H456 C434 0.931 . S
H457 C436 0.930 . S
H458 C440 0.931 . S
H459 C438 0.931 . S
H460 C442 0.931 . S
H461 C443 0.929 . S
H462 C444 0.930 . S
H463 C447 0.930 . S
H464 C448 0.931 . S
H465 C452 0.928 . S
H466 C451 0.929 . S
H467 C449 0.932 . S
C468 C469 1.386 . S
C468 C470 1.397 . S
C468 H492 0.931 . S
C469 C468 1.386 . S
C469 C473 1.397 . S
C470 C468 1.397 . S
C470 C471 1.384 . S
C470 H493 0.930 . S
C471 C470 1.384 . S
C471 C472 1.377 . S
C471 C474 1.481 . S
C472 C471 1.377 . S
C472 C473 1.389 . S
C472 H494 0.929 . S
C473 C469 1.397 . S
C473 C472 1.389 . S
C473 H495 0.931 . S
C474 C471 1.481 . S
C474 C475 1.387 . S
C474 C479 1.390 . S
C475 C474 1.387 . S
C475 C476 1.401 . S
C475 H496 0.930 . S
C476 C475 1.401 . S
C476 C477 1.376 . S
C476 C485 1.511 . S
C477 C476 1.376 . S
C477 C478 1.392 . S
C477 H498 0.931 . S
C478 C477 1.392 . S
C478 C479 1.361 . S
C478 C480 1.500 . S
C479 C474 1.390 . S
C479 C478 1.361 . S
C479 H497 0.931 . S
C480 C478 1.500 . S
C480 C481 1.371 . S
C480 C482 1.365 . S
C481 C480 1.371 . S
C481 C491 1.386 . S
C481 H499 0.931 . S
C482 C480 1.365 . S
C482 C483 1.409 . S
C482 H500 0.929 . S
C483 C482 1.409 . S
C483 C484 1.380 . S
C483 H501 0.930 . S
C484 C483 1.380 . S
C484 C491 1.357 . S
C485 C476 1.511 . S
C485 C486 1.341 . S
C485 C487 1.371 . S
C486 C485 1.341 . S
C486 C490 1.394 . S
C486 H502 0.930 . S
C487 C485 1.371 . S
C487 C488 1.392 . S
C487 H503 0.931 . S
C488 C487 1.392 . S
C488 C489 1.331 . S
C488 H506 0.932 . S
C489 C488 1.331 . S
C489 C490 1.336 . S
C490 C486 1.394 . S
C490 C489 1.336 . S
C490 H505 0.929 . S
C491 C481 1.386 . S
C491 C484 1.357 . S
C491 H504 0.928 . S
H492 C468 0.931 . S
H493 C470 0.930 . S
H494 C472 0.929 . S
H495 C473 0.931 . S
H496 C475 0.930 . S
H497 C479 0.931 . S
H498 C477 0.931 . S
H499 C481 0.931 . S
H500 C482 0.929 . S
H501 C483 0.930 . S
H502 C486 0.930 . S
H503 C487 0.931 . S
H504 C491 0.928 . S
H505 C490 0.929 . S
H506 C488 0.932 . S
C507 C508 1.386 . S
C507 C509 1.397 . S
C507 H531 0.931 . S
C508 C507 1.386 . S
C508 C512 1.397 . S
C509 C507 1.397 . S
C509 C510 1.384 . S
C509 H532 0.930 . S
C510 C509 1.384 . S
C510 C511 1.377 . S
C510 C513 1.481 . S
C511 C510 1.377 . S
C511 C512 1.389 . S
C511 H533 0.929 . S
C512 C508 1.397 . S
C512 C511 1.389 . S
C512 H534 0.931 . S
C513 C510 1.481 . S
C513 C514 1.387 . S
C513 C518 1.390 . S
C514 C513 1.387 . S
C514 C515 1.401 . S
C514 H535 0.930 . S
C515 C514 1.401 . S
C515 C516 1.376 . S
C515 C524 1.511 . S
C516 C515 1.376 . S
C516 C517 1.392 . S
C516 H537 0.931 . S
C517 C516 1.392 . S
C517 C518 1.361 . S
C517 C519 1.500 . S
C518 C513 1.390 . S
C518 C517 1.361 . S
C518 H536 0.931 . S
C519 C517 1.500 . S
C519 C520 1.371 . S
C519 C521 1.365 . S
C520 C519 1.371 . S
C520 C530 1.386 . S
C520 H538 0.931 . S
C521 C519 1.365 . S
C521 C522 1.409 . S
C521 H539 0.929 . S
C522 C521 1.409 . S
C522 C523 1.380 . S
C522 H540 0.930 . S
C523 C522 1.380 . S
C523 C530 1.357 . S
C524 C515 1.511 . S
C524 C525 1.341 . S
C524 C526 1.371 . S
C525 C524 1.341 . S
C525 C529 1.394 . S
C525 H541 0.930 . S
C526 C524 1.371 . S
C526 C527 1.392 . S
C526 H542 0.931 . S
C527 C526 1.392 . S
C527 C528 1.331 . S
C527 H545 0.932 . S
C528 C527 1.331 . S
C528 C529 1.336 . S
C529 C525 1.394 . S
C529 C528 1.336 . S
C529 H544 0.929 . S
C530 C520 1.386 . S
C530 C523 1.357 . S
C530 H543 0.928 . S
H531 C507 0.931 . S
H532 C509 0.930 . S
H533 C511 0.929 . S
H534 C512 0.931 . S
H535 C514 0.930 . S
H536 C518 0.931 . S
H537 C516 0.931 . S
H538 C520 0.931 . S
H539 C521 0.929 . S
H540 C522 0.930 . S
H541 C525 0.930 . S
H542 C526 0.931 . S
H543 C530 0.928 . S
H544 C529 0.929 . S
H545 C527 0.932 . S
C546 C547 1.386 . S
C546 C548 1.397 . S
C546 H570 0.931 . S
C547 C546 1.386 . S
C547 C551 1.397 . S
C548 C546 1.397 . S
C548 C549 1.384 . S
C548 H571 0.930 . S
C549 C548 1.384 . S
C549 C550 1.377 . S
C549 C552 1.481 . S
C550 C549 1.377 . S
C550 C551 1.389 . S
C550 H572 0.929 . S
C551 C547 1.397 . S
C551 C550 1.389 . S
C551 H573 0.931 . S
C552 C549 1.481 . S
C552 C553 1.387 . S
C552 C557 1.390 . S
C553 C552 1.387 . S
C553 C554 1.401 . S
C553 H574 0.930 . S
C554 C553 1.401 . S
C554 C555 1.376 . S
C554 C563 1.511 . S
C555 C554 1.376 . S
C555 C556 1.392 . S
C555 H576 0.931 . S
C556 C555 1.392 . S
C556 C557 1.361 . S
C556 C558 1.500 . S
C557 C552 1.390 . S
C557 C556 1.361 . S
C557 H575 0.931 . S
C558 C556 1.500 . S
C558 C559 1.371 . S
C558 C560 1.365 . S
C559 C558 1.371 . S
C559 C569 1.386 . S
C559 H577 0.931 . S
C560 C558 1.365 . S
C560 C561 1.409 . S
C560 H578 0.929 . S
C561 C560 1.409 . S
C561 C562 1.380 . S
C561 H579 0.930 . S
C562 C561 1.380 . S
C562 C569 1.357 . S
C563 C554 1.511 . S
C563 C564 1.341 . S
C563 C565 1.371 . S
C564 C563 1.341 . S
C564 C568 1.394 . S
C564 H580 0.930 . S
C565 C563 1.371 . S
C565 C566 1.392 . S
C565 H581 0.931 . S
C566 C565 1.392 . S
C566 C567 1.331 . S
C566 H584 0.932 . S
C567 C566 1.331 . S
C567 C568 1.336 . S
C568 C564 1.394 . S
C568 C567 1.336 . S
C568 H583 0.929 . S
C569 C559 1.386 . S
C569 C562 1.357 . S
C569 H582 0.928 . S
H570 C546 0.931 . S
H571 C548 0.930 . S
H572 C550 0.929 . S
H573 C551 0.931 . S
H574 C553 0.930 . S
H575 C557 0.931 . S
H576 C555 0.931 . S
H577 C559 0.931 . S
H578 C560 0.929 . S
H579 C561 0.930 . S
H580 C564 0.930 . S
H581 C565 0.931 . S
H582 C569 0.928 . S
H583 C568 0.929 . S
H584 C566 0.932 . S
C585 C586 1.386 . S
C585 C587 1.397 . S
C585 H609 0.931 . S
C586 C585 1.386 . S
C586 C590 1.397 . S
C587 C585 1.397 . S
C587 C588 1.384 . S
C587 H610 0.930 . S
C588 C587 1.384 . S
C588 C589 1.377 . S
C588 C591 1.481 . S
C589 C588 1.377 . S
C589 C590 1.389 . S
C589 H611 0.929 . S
C590 C586 1.397 . S
C590 C589 1.389 . S
C590 H612 0.931 . S
C591 C588 1.481 . S
C591 C592 1.387 . S
C591 C596 1.390 . S
C592 C591 1.387 . S
C592 C593 1.401 . S
C592 H613 0.930 . S
C593 C592 1.401 . S
C593 C594 1.376 . S
C593 C602 1.511 . S
C594 C593 1.376 . S
C594 C595 1.392 . S
C594 H615 0.931 . S
C595 C594 1.392 . S
C595 C596 1.361 . S
C595 C597 1.500 . S
C596 C591 1.390 . S
C596 C595 1.361 . S
C596 H614 0.931 . S
C597 C595 1.500 . S
C597 C598 1.371 . S
C597 C599 1.365 . S
C598 C597 1.371 . S
C598 C608 1.386 . S
C598 H616 0.931 . S
C599 C597 1.365 . S
C599 C600 1.409 . S
C599 H617 0.929 . S
C600 C599 1.409 . S
C600 C601 1.380 . S
C600 H618 0.930 . S
C601 C600 1.380 . S
C601 C608 1.357 . S
C602 C593 1.511 . S
C602 C603 1.341 . S
C602 C604 1.371 . S
C603 C602 1.341 . S
C603 C607 1.394 . S
C603 H619 0.930 . S
C604 C602 1.371 . S
C604 C605 1.392 . S
C604 H620 0.931 . S
C605 C604 1.392 . S
C605 C606 1.331 . S
C605 H623 0.932 . S
C606 C605 1.331 . S
C606 C607 1.336 . S
C607 C603 1.394 . S
C607 C606 1.336 . S
C607 H622 0.929 . S
C608 C598 1.386 . S
C608 C601 1.357 . S
C608 H621 0.928 . S
H609 C585 0.931 . S
H610 C587 0.930 . S
H611 C589 0.929 . S
H612 C590 0.931 . S
H613 C592 0.930 . S
H614 C596 0.931 . S
H615 C594 0.931 . S
H616 C598 0.931 . S
H617 C599 0.929 . S
H618 C600 0.930 . S
H619 C603 0.930 . S
H620 C604 0.931 . S
H621 C608 0.928 . S
H622 C607 0.929 . S
H623 C605 0.932 . S
C624 C625 1.386 1_655 S
C624 C626 1.397 . S
C624 H648 0.931 . S
C625 C624 1.386 1_455 S
C625 C629 1.397 . S
C626 C624 1.397 . S
C626 C627 1.384 1_655 S
C626 H649 0.930 . S
C627 C626 1.384 1_455 S
C627 C628 1.377 . S
C627 C630 1.481 . S
C628 C627 1.377 . S
C628 C629 1.389 . S
C628 H650 0.929 . S
C629 C625 1.397 . S
C629 C628 1.389 . S
C629 H651 0.931 . S
C630 C627 1.481 . S
C630 C631 1.387 . S
C630 C635 1.390 . S
C631 C630 1.387 . S
C631 C632 1.401 . S
C631 H652 0.930 . S
C632 C631 1.401 . S
C632 C633 1.376 . S
C632 C641 1.511 . S
C633 C632 1.376 . S
C633 C634 1.392 . S
C633 H654 0.931 . S
C634 C633 1.392 . S
C634 C635 1.361 . S
C634 C636 1.500 . S
C635 C630 1.390 . S
C635 C634 1.361 . S
C635 H653 0.931 . S
C636 C634 1.500 . S
C636 C637 1.371 . S
C636 C638 1.365 . S
C637 C636 1.371 . S
C637 C647 1.386 . S
C637 H655 0.931 . S
C638 C636 1.365 . S
C638 C639 1.409 . S
C638 H656 0.929 . S
C639 C638 1.409 . S
C639 C640 1.380 . S
C639 H657 0.930 . S
C640 C639 1.380 . S
C640 C647 1.357 . S
C641 C632 1.511 . S
C641 C642 1.341 . S
C641 C643 1.371 . S
C642 C641 1.341 . S
C642 C646 1.394 . S
C642 H658 0.930 . S
C643 C641 1.371 . S
C643 C644 1.392 . S
C643 H659 0.931 . S
C644 C643 1.392 . S
C644 C645 1.331 . S
C644 H662 0.932 . S
C645 C644 1.331 . S
C645 C646 1.336 . S
C646 C642 1.394 . S
C646 C645 1.336 . S
C646 H661 0.929 . S
C647 C637 1.386 . S
C647 C640 1.357 . S
C647 H660 0.928 . S
H648 C624 0.931 . S
H649 C626 0.930 . S
H650 C628 0.929 . S
H651 C629 0.931 . S
H652 C631 0.930 . S
H653 C635 0.931 . S
H654 C633 0.931 . S
H655 C637 0.931 . S
H656 C638 0.929 . S
H657 C639 0.930 . S
H658 C642 0.930 . S
H659 C643 0.931 . S
H660 C647 0.928 . S
H661 C646 0.929 . S
H662 C644 0.932 . S
C663 C664 1.386 . S
C663 C665 1.397 . S
C663 H687 0.931 . S
C664 C663 1.386 . S
C664 C668 1.397 . S
C665 C663 1.397 . S
C665 C666 1.384 . S
C665 H688 0.930 . S
C666 C665 1.384 . S
C666 C667 1.377 . S
C666 C669 1.481 . S
C667 C666 1.377 . S
C667 C668 1.389 . S
C667 H689 0.929 . S
C668 C664 1.397 . S
C668 C667 1.389 . S
C668 H690 0.931 . S
C669 C666 1.481 . S
C669 C670 1.387 . S
C669 C674 1.390 . S
C670 C669 1.387 . S
C670 C671 1.401 . S
C670 H691 0.930 . S
C671 C670 1.401 . S
C671 C672 1.376 . S
C671 C680 1.511 . S
C672 C671 1.376 . S
C672 C673 1.392 . S
C672 H693 0.931 . S
C673 C672 1.392 . S
C673 C674 1.361 . S
C673 C675 1.500 . S
C674 C669 1.390 . S
C674 C673 1.361 . S
C674 H692 0.931 . S
C675 C673 1.500 . S
C675 C676 1.371 . S
C675 C677 1.365 . S
C676 C675 1.371 . S
C676 C686 1.386 . S
C676 H694 0.931 . S
C677 C675 1.365 . S
C677 C678 1.409 . S
C677 H695 0.929 . S
C678 C677 1.409 . S
C678 C679 1.380 . S
C678 H696 0.930 . S
C679 C678 1.380 . S
C679 C686 1.357 . S
C680 C671 1.511 . S
C680 C681 1.341 . S
C680 C682 1.371 . S
C681 C680 1.341 . S
C681 C685 1.394 . S
C681 H697 0.930 . S
C682 C680 1.371 . S
C682 C683 1.392 . S
C682 H698 0.931 . S
C683 C682 1.392 . S
C683 C684 1.331 . S
C683 H701 0.932 . S
C684 C683 1.331 . S
C684 C685 1.336 . S
C685 C681 1.394 . S
C685 C684 1.336 . S
C685 H700 0.929 . S
C686 C676 1.386 . S
C686 C679 1.357 . S
C686 H699 0.928 . S
H687 C663 0.931 . S
H688 C665 0.930 . S
H689 C667 0.929 . S
H690 C668 0.931 . S
H691 C670 0.930 . S
H692 C674 0.931 . S
H693 C672 0.931 . S
H694 C676 0.931 . S
H695 C677 0.929 . S
H696 C678 0.930 . S
H697 C681 0.930 . S
H698 C682 0.931 . S
H699 C686 0.928 . S
H700 C685 0.929 . S
H701 C683 0.932 . S
Eu702 C711 2.828 . S
Eu702 O713 2.392 . S
Eu702 O715 2.418 . S
Eu702 O720 2.373 1_565 S
Eu702 O723 2.488 . S
Eu702 O724 2.464 1_565 S
Eu702 O725 2.349 1_565 S
Eu703 O712 2.373 1_545 S
Eu703 O716 2.488 . S
Eu703 O717 2.477 . S
Eu703 O718 2.349 1_545 S
Eu703 O721 2.392 . S
Eu703 O722 2.418 . S
Eu703 C732 2.828 . S
C704 O722 1.244 1_556 S
C704 O725 1.265 . S
C705 C706 1.379 1_565 S
C705 C709 1.373 . S
C705 C711 1.505 . S
C706 C705 1.379 1_545 S
C706 C708 1.369 . S
C706 H734 0.930 . S
C707 C709 1.383 . S
C707 C710 1.382 1_565 S
C707 H735 0.930 . S
C708 C706 1.369 . S
C708 C710 1.392 . S
C708 H736 0.930 . S
C709 C705 1.373 . S
C709 C707 1.383 . S
C709 H737 0.931 . S
C710 C707 1.382 1_545 S
C710 C708 1.392 . S
C711 Eu702 2.828 . S
C711 C705 1.505 . S
C711 O723 1.249 . S
C711 O724 1.233 1_565 S
O712 Eu703 2.373 1_565 S
O712 C714 1.258 . S
O713 Eu702 2.392 . S
O713 C714 1.242 1_556 S
C714 O712 1.258 . S
C714 O713 1.242 1_554 S
O715 Eu702 2.418 . S
O715 C719 1.244 1_556 S
O716 Eu703 2.488 . S
O716 C732 1.249 . S
O717 Eu703 2.477 . S
O717 C732 1.253 . S
O718 Eu703 2.349 1_565 S
O718 C719 1.265 . S
C719 O715 1.244 1_554 S
C719 O718 1.265 . S
O720 Eu702 2.373 1_545 S
O720 C733 1.258 . S
O721 Eu703 2.392 . S
O721 C733 1.242 1_554 S
O722 Eu703 2.418 . S
O722 C704 1.244 1_554 S
O723 Eu702 2.488 . S
O723 C711 1.249 . S
O724 Eu702 2.464 1_545 S
O724 C711 1.233 1_545 S
O725 Eu702 2.349 1_545 S
O725 C704 1.265 . S
C726 C727 1.379 1_545 S
C726 C730 1.373 . S
C726 C732 1.505 . S
C727 C726 1.379 1_565 S
C727 C729 1.369 . S
C727 H738 0.930 . S
C728 C730 1.383 . S
C728 C731 1.382 1_545 S
C728 H739 0.930 . S
C729 C727 1.369 . S
C729 C731 1.392 . S
C729 H740 0.930 . S
C730 C726 1.373 . S
C730 C728 1.383 . S
C730 H741 0.931 . S
C731 C728 1.382 1_565 S
C731 C729 1.392 . S
C732 Eu703 2.828 . S
C732 O716 1.249 . S
C732 O717 1.253 . S
C732 C726 1.505 . S
C733 O720 1.258 . S
C733 O721 1.242 1_556 S
H734 C706 0.930 . S
H735 C707 0.930 . S
H736 C708 0.930 . S
H737 C709 0.931 . S
H738 C727 0.930 . S
H739 C728 0.930 . S
H740 C729 0.930 . S
H741 C730 0.931 . S
Eu742 C751 2.828 . S
Eu742 O753 2.392 1_556 S
Eu742 O755 2.418 . S
Eu742 O760 2.373 1_455 S
Eu742 O763 2.488 . S
Eu742 O764 2.471 1_455 S
Eu742 O765 2.349 1_455 S
Eu743 O752 2.373 1_655 S
Eu743 O756 2.488 . S
Eu743 O757 2.471 1_655 S
Eu743 O758 2.349 1_655 S
Eu743 O761 2.392 1_554 S
Eu743 O762 2.418 . S
Eu743 C772 2.828 . S
C744 O762 1.244 1_556 S
C744 O765 1.265 . S
C745 C746 1.379 1_455 S
C745 C749 1.373 . S
C745 C751 1.505 . S
C746 C745 1.379 1_655 S
C746 C748 1.369 . S
C746 H774 0.930 . S
C747 C749 1.383 . S
C747 C750 1.382 1_455 S
C747 H775 0.930 . S
C748 C746 1.369 . S
C748 C750 1.392 . S
C748 H776 0.930 . S
C749 C745 1.373 . S
C749 C747 1.383 . S
C749 H777 0.931 . S
C750 C747 1.382 1_655 S
C750 C748 1.392 . S
C751 Eu742 2.828 . S
C751 C745 1.505 . S
C751 O763 1.249 . S
C751 O764 1.244 1_455 S
O752 Eu743 2.373 1_455 S
O752 C754 1.258 . S
O753 Eu742 2.392 1_554 S
O753 C754 1.242 . S
C754 O752 1.258 . S
C754 O753 1.242 . S
O755 Eu742 2.418 . S
O755 C759 1.244 1_556 S
O756 Eu743 2.488 . S
O756 C772 1.249 . S
O757 Eu743 2.471 1_455 S
O757 C772 1.244 1_455 S
O758 Eu743 2.349 1_455 S
O758 C759 1.265 . S
C759 O755 1.244 1_554 S
C759 O758 1.265 . S
O760 Eu742 2.373 1_655 S
O760 C773 1.258 . S
O761 Eu743 2.392 1_556 S
O761 C773 1.242 . S
O762 Eu743 2.418 . S
O762 C744 1.244 1_554 S
O763 Eu742 2.488 . S
O763 C751 1.249 . S
O764 Eu742 2.471 1_655 S
O764 C751 1.244 1_655 S
O765 Eu742 2.349 1_655 S
O765 C744 1.265 . S
C766 C767 1.379 1_655 S
C766 C770 1.373 . S
C766 C772 1.505 . S
C767 C766 1.379 1_455 S
C767 C769 1.369 . S
C767 H778 0.930 . S
C768 C770 1.383 . S
C768 C771 1.382 1_655 S
C768 H779 0.930 . S
C769 C767 1.369 . S
C769 C771 1.392 . S
C769 H780 0.930 . S
C770 C766 1.373 . S
C770 C768 1.383 . S
C770 H781 0.931 . S
C771 C768 1.382 1_455 S
C771 C769 1.392 . S
C772 Eu743 2.828 . S
C772 O756 1.249 . S
C772 O757 1.244 1_655 S
C772 C766 1.505 . S
C773 O760 1.258 . S
C773 O761 1.242 . S
H774 C746 0.930 . S
H775 C747 0.930 . S
H776 C748 0.930 . S
H777 C749 0.931 . S
H778 C767 0.930 . S
H779 C768 0.930 . S
H780 C769 0.930 . S
H781 C770 0.931 . S
Eu782 C791 2.828 . S
Eu782 O793 2.432 . S
Eu782 O795 2.418 . S
Eu782 O800 2.373 . S
Eu782 O803 2.488 . S
Eu782 O804 2.471 . S
Eu782 O805 2.349 . S
Eu783 O792 2.373 . S
Eu783 O796 2.488 . S
Eu783 O797 2.471 . S
Eu783 O798 2.349 . S
Eu783 O801 2.392 1_556 S
Eu783 O802 2.418 . S
Eu783 C812 2.828 . S
C784 O802 1.244 1_554 S
C784 O805 1.265 . S
C785 C786 1.379 . S
C785 C789 1.373 . S
C785 C791 1.505 . S
C786 C785 1.379 . S
C786 C788 1.369 . S
C786 H814 0.930 . S
C787 C789 1.383 . S
C787 C790 1.382 . S
C787 H815 0.930 . S
C788 C786 1.369 . S
C788 C790 1.392 . S
C788 H816 0.930 . S
C789 C785 1.373 . S
C789 C787 1.383 . S
C789 H817 0.931 . S
C790 C787 1.382 . S
C790 C788 1.392 . S
C791 Eu782 2.828 . S
C791 C785 1.505 . S
C791 O803 1.249 . S
C791 O804 1.244 . S
O792 Eu783 2.373 . S
O792 C794 1.258 . S
O793 Eu782 2.432 . S
O793 C794 1.197 1_554 S
C794 O792 1.258 . S
C794 O793 1.197 1_556 S
O795 Eu782 2.418 . S
O795 C799 1.244 1_554 S
O796 Eu783 2.488 . S
O796 C812 1.249 . S
O797 Eu783 2.471 . S
O797 C812 1.244 . S
O798 Eu783 2.349 . S
O798 C799 1.265 . S
C799 O795 1.244 1_556 S
C799 O798 1.265 . S
O800 Eu782 2.373 . S
O800 C813 1.258 . S
O801 Eu783 2.392 1_554 S
O801 C813 1.242 . S
O802 Eu783 2.418 . S
O802 C784 1.244 1_556 S
O803 Eu782 2.488 . S
O803 C791 1.249 . S
O804 Eu782 2.471 . S
O804 C791 1.244 . S
O805 Eu782 2.349 . S
O805 C784 1.265 . S
C806 C807 1.379 . S
C806 C810 1.373 . S
C806 C812 1.505 . S
C807 C806 1.379 . S
C807 C809 1.369 . S
C807 H818 0.930 . S
C808 C810 1.383 . S
C808 C811 1.382 . S
C808 H819 0.930 . S
C809 C807 1.369 . S
C809 C811 1.392 . S
C809 H820 0.930 . S
C810 C806 1.373 . S
C810 C808 1.383 . S
C810 H821 0.931 . S
C811 C808 1.382 . S
C811 C809 1.392 . S
C812 Eu783 2.828 . S
C812 O796 1.249 . S
C812 O797 1.244 . S
C812 C806 1.505 . S
C813 O800 1.258 . S
C813 O801 1.242 . S
H814 C786 0.930 . S
H815 C787 0.930 . S
H816 C788 0.930 . S
H817 C789 0.931 . S
H818 C807 0.930 . S
H819 C808 0.930 . S
H820 C809 0.930 . S
H821 C810 0.931 . S
Eu822 C831 2.828 . S
Eu822 O833 2.392 . S
Eu822 O835 2.418 . S
Eu822 O840 2.373 . S
Eu822 O843 2.488 . S
Eu822 O844 2.471 . S
Eu822 O845 2.349 . S
Eu823 O832 2.373 . S
Eu823 O836 2.488 . S
Eu823 O837 2.471 . S
Eu823 O838 2.349 . S
Eu823 O841 2.392 . S
Eu823 O842 2.418 . S
Eu823 C852 2.828 . S
C824 O842 1.244 . S
C824 O845 1.265 . S
C825 C826 1.379 . S
C825 C829 1.373 . S
C825 C831 1.505 . S
C826 C825 1.379 . S
C826 C828 1.369 . S
C826 H854 0.930 . S
C827 C829 1.383 . S
C827 C830 1.382 . S
C827 H855 0.930 . S
C828 C826 1.369 . S
C828 C830 1.392 . S
C828 H856 0.930 . S
C829 C825 1.373 . S
C829 C827 1.383 . S
C829 H857 0.931 . S
C830 C827 1.382 . S
C830 C828 1.392 . S
C831 Eu822 2.828 . S
C831 C825 1.505 . S
C831 O843 1.249 . S
C831 O844 1.244 . S
O832 Eu823 2.373 . S
O832 C834 1.258 . S
O833 Eu822 2.392 . S
O833 C834 1.242 . S
C834 O832 1.258 . S
C834 O833 1.242 . S
O835 Eu822 2.418 . S
O835 C839 1.244 . S
O836 Eu823 2.488 . S
O836 C852 1.249 . S
O837 Eu823 2.471 . S
O837 C852 1.244 . S
O838 Eu823 2.349 . S
O838 C839 1.265 . S
C839 O835 1.244 . S
C839 O838 1.265 . S
O840 Eu822 2.373 . S
O840 C853 1.258 . S
O841 Eu823 2.392 . S
O841 C853 1.242 . S
O842 Eu823 2.418 . S
O842 C824 1.244 . S
O843 Eu822 2.488 . S
O843 C831 1.249 . S
O844 Eu822 2.471 . S
O844 C831 1.244 . S
O845 Eu822 2.349 . S
O845 C824 1.265 . S
C846 C847 1.379 . S
C846 C850 1.373 . S
C846 C852 1.505 . S
C847 C846 1.379 . S
C847 C849 1.369 . S
C847 H858 0.930 . S
C848 C850 1.383 . S
C848 C851 1.382 . S
C848 H859 0.930 . S
C849 C847 1.369 . S
C849 C851 1.392 . S
C849 H860 0.930 . S
C850 C846 1.373 . S
C850 C848 1.383 . S
C850 H861 0.931 . S
C851 C848 1.382 . S
C851 C849 1.392 . S
C852 Eu823 2.828 . S
C852 O836 1.249 . S
C852 O837 1.244 . S
C852 C846 1.505 . S
C853 O840 1.258 . S
C853 O841 1.242 . S
H854 C826 0.930 . S
H855 C827 0.930 . S
H856 C828 0.930 . S
H857 C829 0.931 . S
H858 C847 0.930 . S
H859 C848 0.930 . S
H860 C849 0.930 . S
H861 C850 0.931 . S
Eu862 C871 2.828 . S
Eu862 O873 2.392 . S
Eu862 O875 2.418 . S
Eu862 O880 2.373 . S
Eu862 O883 2.488 . S
Eu862 O884 2.471 . S
Eu862 O885 2.349 . S
Eu863 O872 2.373 . S
Eu863 O876 2.488 . S
Eu863 O877 2.471 . S
Eu863 O878 2.349 . S
Eu863 O881 2.392 . S
Eu863 O882 2.418 . S
Eu863 C892 2.828 . S
C864 O882 1.244 . S
C864 O885 1.265 . S
C865 C866 1.379 . S
C865 C869 1.373 . S
C865 C871 1.505 . S
C866 C865 1.379 . S
C866 C868 1.369 . S
C866 H894 0.930 . S
C867 C869 1.383 . S
C867 C870 1.382 . S
C867 H895 0.930 . S
C868 C866 1.369 . S
C868 C870 1.392 . S
C868 H896 0.930 . S
C869 C865 1.373 . S
C869 C867 1.383 . S
C869 H897 0.931 . S
C870 C867 1.382 . S
C870 C868 1.392 . S
C871 Eu862 2.828 . S
C871 C865 1.505 . S
C871 O883 1.249 . S
C871 O884 1.244 . S
O872 Eu863 2.373 . S
O872 C874 1.258 . S
O873 Eu862 2.392 . S
O873 C874 1.242 . S
C874 O872 1.258 . S
C874 O873 1.242 . S
O875 Eu862 2.418 . S
O875 C879 1.244 . S
O876 Eu863 2.488 . S
O876 C892 1.249 . S
O877 Eu863 2.471 . S
O877 C892 1.244 . S
O878 Eu863 2.349 . S
O878 C879 1.265 . S
C879 O875 1.244 . S
C879 O878 1.265 . S
O880 Eu862 2.373 . S
O880 C893 1.258 . S
O881 Eu863 2.392 . S
O881 C893 1.242 . S
O882 Eu863 2.418 . S
O882 C864 1.244 . S
O883 Eu862 2.488 . S
O883 C871 1.249 . S
O884 Eu862 2.471 . S
O884 C871 1.244 . S
O885 Eu862 2.349 . S
O885 C864 1.265 . S
C886 C887 1.379 . S
C886 C890 1.373 . S
C886 C892 1.505 . S
C887 C886 1.379 . S
C887 C889 1.369 . S
C887 H898 0.930 . S
C888 C890 1.383 . S
C888 C891 1.382 . S
C888 H899 0.930 . S
C889 C887 1.369 . S
C889 C891 1.392 . S
C889 H900 0.930 . S
C890 C886 1.373 . S
C890 C888 1.383 . S
C890 H901 0.931 . S
C891 C888 1.382 . S
C891 C889 1.392 . S
C892 Eu863 2.828 . S
C892 O876 1.249 . S
C892 O877 1.244 . S
C892 C886 1.505 . S
C893 O880 1.258 . S
C893 O881 1.242 . S
H894 C866 0.930 . S
H895 C867 0.930 . S
H896 C868 0.930 . S
H897 C869 0.931 . S
H898 C887 0.930 . S
H899 C888 0.930 . S
H900 C889 0.930 . S
H901 C890 0.931 . S
Eu902 C911 2.828 . S
Eu902 O913 2.392 . S
Eu902 O915 2.418 . S
Eu902 O920 2.373 . S
Eu902 O923 2.488 . S
Eu902 O924 2.471 . S
Eu902 O925 2.349 . S
Eu903 O912 2.373 . S
Eu903 O916 2.488 . S
Eu903 O917 2.471 . S
Eu903 O918 2.349 . S
Eu903 O921 2.392 . S
Eu903 O922 2.418 . S
Eu903 C932 2.828 . S
C904 O922 1.244 . S
C904 O925 1.265 . S
C905 C906 1.379 . S
C905 C909 1.373 . S
C905 C911 1.505 . S
C906 C905 1.379 . S
C906 C908 1.369 . S
C906 H934 0.930 . S
C907 C909 1.383 . S
C907 C910 1.382 . S
C907 H935 0.930 . S
C908 C906 1.369 . S
C908 C910 1.392 . S
C908 H936 0.930 . S
C909 C905 1.373 . S
C909 C907 1.383 . S
C909 H937 0.931 . S
C910 C907 1.382 . S
C910 C908 1.392 . S
C911 Eu902 2.828 . S
C911 C905 1.505 . S
C911 O923 1.249 . S
C911 O924 1.244 . S
O912 Eu903 2.373 . S
O912 C914 1.258 . S
O913 Eu902 2.392 . S
O913 C914 1.242 . S
C914 O912 1.258 . S
C914 O913 1.242 . S
O915 Eu902 2.418 . S
O915 C919 1.244 . S
O916 Eu903 2.488 . S
O916 C932 1.249 . S
O917 Eu903 2.471 . S
O917 C932 1.244 . S
O918 Eu903 2.349 . S
O918 C919 1.265 . S
C919 O915 1.244 . S
C919 O918 1.265 . S
O920 Eu902 2.373 . S
O920 C933 1.258 . S
O921 Eu903 2.392 . S
O921 C933 1.242 . S
O922 Eu903 2.418 . S
O922 C904 1.244 . S
O923 Eu902 2.488 . S
O923 C911 1.249 . S
O924 Eu902 2.471 . S
O924 C911 1.244 . S
O925 Eu902 2.349 . S
O925 C904 1.265 . S
C926 C927 1.379 . S
C926 C930 1.373 . S
C926 C932 1.505 . S
C927 C926 1.379 . S
C927 C929 1.369 . S
C927 H938 0.930 . S
C928 C930 1.383 . S
C928 C931 1.382 . S
C928 H939 0.930 . S
C929 C927 1.369 . S
C929 C931 1.392 . S
C929 H940 0.930 . S
C930 C926 1.373 . S
C930 C928 1.383 . S
C930 H941 0.931 . S
C931 C928 1.382 . S
C931 C929 1.392 . S
C932 Eu903 2.828 . S
C932 O916 1.249 . S
C932 O917 1.244 . S
C932 C926 1.505 . S
C933 O920 1.258 . S
C933 O921 1.242 . S
H934 C906 0.930 . S
H935 C907 0.930 . S
H936 C908 0.930 . S
H937 C909 0.931 . S
H938 C927 0.930 . S
H939 C928 0.930 . S
H940 C929 0.930 . S
H941 C930 0.931 . S
Eu942 C951 2.828 . S
Eu942 O953 2.392 . S
Eu942 O955 2.418 . S
Eu942 O960 2.373 . S
Eu942 O963 2.488 . S
Eu942 O964 2.471 . S
Eu942 O965 2.349 . S
Eu943 O952 2.373 . S
Eu943 O956 2.488 . S
Eu943 O957 2.471 . S
Eu943 O958 2.349 . S
Eu943 O961 2.392 . S
Eu943 O962 2.418 . S
Eu943 C972 2.828 . S
C944 O962 1.244 . S
C944 O965 1.265 . S
C945 C946 1.379 . S
C945 C949 1.373 . S
C945 C951 1.505 . S
C946 C945 1.379 . S
C946 C948 1.369 . S
C946 H974 0.930 . S
C947 C949 1.383 . S
C947 C950 1.382 . S
C947 H975 0.930 . S
C948 C946 1.369 . S
C948 C950 1.392 . S
C948 H976 0.930 . S
C949 C945 1.373 . S
C949 C947 1.383 . S
C949 H977 0.931 . S
C950 C947 1.382 . S
C950 C948 1.392 . S
C951 Eu942 2.828 . S
C951 C945 1.505 . S
C951 O963 1.249 . S
C951 O964 1.244 . S
O952 Eu943 2.373 . S
O952 C954 1.258 . S
O953 Eu942 2.392 . S
O953 C954 1.242 . S
C954 O952 1.258 . S
C954 O953 1.242 . S
O955 Eu942 2.418 . S
O955 C959 1.244 . S
O956 Eu943 2.488 . S
O956 C972 1.249 . S
O957 Eu943 2.471 . S
O957 C972 1.244 . S
O958 Eu943 2.349 . S
O958 C959 1.265 . S
C959 O955 1.244 . S
C959 O958 1.265 . S
O960 Eu942 2.373 . S
O960 C973 1.258 . S
O961 Eu943 2.392 . S
O961 C973 1.242 . S
O962 Eu943 2.418 . S
O962 C944 1.244 . S
O963 Eu942 2.488 . S
O963 C951 1.249 . S
O964 Eu942 2.471 . S
O964 C951 1.244 . S
O965 Eu942 2.349 . S
O965 C944 1.265 . S
C966 C967 1.379 . S
C966 C970 1.373 . S
C966 C972 1.505 . S
C967 C966 1.379 . S
C967 C969 1.369 . S
C967 H978 0.930 . S
C968 C970 1.383 . S
C968 C971 1.382 . S
C968 H979 0.930 . S
C969 C967 1.369 . S
C969 C971 1.392 . S
C969 H980 0.930 . S
C970 C966 1.373 . S
C970 C968 1.383 . S
C970 H981 0.931 . S
C971 C968 1.382 . S
C971 C969 1.392 . S
C972 Eu943 2.828 . S
C972 O956 1.249 . S
C972 O957 1.244 . S
C972 C966 1.505 . S
C973 O960 1.258 . S
C973 O961 1.242 . S
H974 C946 0.930 . S
H975 C947 0.930 . S
H976 C948 0.930 . S
H977 C949 0.931 . S
H978 C967 0.930 . S
H979 C968 0.930 . S
H980 C969 0.930 . S
H981 C970 0.931 . S
Eu982 C991 2.828 . S
Eu982 O993 2.392 . S
Eu982 O995 2.418 . S
Eu982 O1000 2.373 . S
Eu982 O1003 2.488 . S
Eu982 O1004 2.471 . S
Eu982 O1005 2.349 . S
Eu983 O992 2.373 . S
Eu983 O996 2.488 . S
Eu983 O997 2.471 . S
Eu983 O998 2.349 . S
Eu983 O1001 2.392 . S
Eu983 O1002 2.418 . S
Eu983 C1012 2.828 . S
C984 O1002 1.244 . S
C984 O1005 1.265 . S
C985 C986 1.379 . S
C985 C989 1.373 . S
C985 C991 1.505 . S
C986 C985 1.379 . S
C986 C988 1.369 . S
C986 H1014 0.930 . S
C987 C989 1.383 . S
C987 C990 1.382 . S
C987 H1015 0.930 . S
C988 C986 1.369 . S
C988 C990 1.392 . S
C988 H1016 0.930 . S
C989 C985 1.373 . S
C989 C987 1.383 . S
C989 H1017 0.931 . S
C990 C987 1.382 . S
C990 C988 1.392 . S
C991 Eu982 2.828 . S
C991 C985 1.505 . S
C991 O1003 1.249 . S
C991 O1004 1.244 . S
O992 Eu983 2.373 . S
O992 C994 1.258 . S
O993 Eu982 2.392 . S
O993 C994 1.242 . S
C994 O992 1.258 . S
C994 O993 1.242 . S
O995 Eu982 2.418 . S
O995 C999 1.244 . S
O996 Eu983 2.488 . S
O996 C1012 1.249 . S
O997 Eu983 2.471 . S
O997 C1012 1.244 . S
O998 Eu983 2.349 . S
O998 C999 1.265 . S
C999 O995 1.244 . S
C999 O998 1.265 . S
O1000 Eu982 2.373 . S
O1000 C1013 1.258 . S
O1001 Eu983 2.392 . S
O1001 C1013 1.242 . S
O1002 Eu983 2.418 . S
O1002 C984 1.244 . S
O1003 Eu982 2.488 . S
O1003 C991 1.249 . S
O1004 Eu982 2.471 . S
O1004 C991 1.244 . S
O1005 Eu982 2.349 . S
O1005 C984 1.265 . S
C1006 C1007 1.379 . S
C1006 C1010 1.373 . S
C1006 C1012 1.505 . S
C1007 C1006 1.379 . S
C1007 C1009 1.369 . S
C1007 H1018 0.930 . S
C1008 C1010 1.383 . S
C1008 C1011 1.382 . S
C1008 H1019 0.930 . S
C1009 C1007 1.369 . S
C1009 C1011 1.392 . S
C1009 H1020 0.930 . S
C1010 C1006 1.373 . S
C1010 C1008 1.383 . S
C1010 H1021 0.931 . S
C1011 C1008 1.382 . S
C1011 C1009 1.392 . S
C1012 Eu983 2.828 . S
C1012 O996 1.249 . S
C1012 O997 1.244 . S
C1012 C1006 1.505 . S
C1013 O1000 1.258 . S
C1013 O1001 1.242 . S
H1014 C986 0.930 . S
H1015 C987 0.930 . S
H1016 C988 0.930 . S
H1017 C989 0.931 . S
H1018 C1007 0.930 . S
H1019 C1008 0.930 . S
H1020 C1009 0.930 . S
H1021 C1010 0.931 . S
Eu1022 C1031 2.828 . S
Eu1022 O1033 2.392 . S
Eu1022 O1035 2.418 . S
Eu1022 O1040 2.373 . S
Eu1022 O1043 2.488 . S
Eu1022 O1044 2.471 . S
Eu1022 O1045 2.349 . S
Eu1023 O1032 2.373 . S
Eu1023 O1036 2.488 . S
Eu1023 O1037 2.471 . S
Eu1023 O1038 2.349 . S
Eu1023 O1041 2.392 . S
Eu1023 O1042 2.418 . S
Eu1023 C1052 2.828 . S
C1024 O1042 1.244 . S
C1024 O1045 1.265 . S
C1025 C1026 1.379 . S
C1025 C1029 1.373 . S
C1025 C1031 1.505 . S
C1026 C1025 1.379 . S
C1026 C1028 1.369 . S
C1026 H1054 0.930 . S
C1027 C1029 1.383 . S
C1027 C1030 1.382 . S
C1027 H1055 0.930 . S
C1028 C1026 1.369 . S
C1028 C1030 1.392 . S
C1028 H1056 0.930 . S
C1029 C1025 1.373 . S
C1029 C1027 1.383 . S
C1029 H1057 0.931 . S
C1030 C1027 1.382 . S
C1030 C1028 1.392 . S
C1031 Eu1022 2.828 . S
C1031 C1025 1.505 . S
C1031 O1043 1.249 . S
C1031 O1044 1.244 . S
O1032 Eu1023 2.373 . S
O1032 C1034 1.258 . S
O1033 Eu1022 2.392 . S
O1033 C1034 1.242 . S
C1034 O1032 1.258 . S
C1034 O1033 1.242 . S
O1035 Eu1022 2.418 . S
O1035 C1039 1.244 . S
O1036 Eu1023 2.488 . S
O1036 C1052 1.249 . S
O1037 Eu1023 2.471 . S
O1037 C1052 1.244 . S
O1038 Eu1023 2.349 . S
O1038 C1039 1.265 . S
C1039 O1035 1.244 . S
C1039 O1038 1.265 . S
O1040 Eu1022 2.373 . S
O1040 C1053 1.258 . S
O1041 Eu1023 2.392 . S
O1041 C1053 1.242 . S
O1042 Eu1023 2.418 . S
O1042 C1024 1.244 . S
O1043 Eu1022 2.488 . S
O1043 C1031 1.249 . S
O1044 Eu1022 2.471 . S
O1044 C1031 1.244 . S
O1045 Eu1022 2.349 . S
O1045 C1024 1.265 . S
C1046 C1047 1.379 . S
C1046 C1050 1.373 . S
C1046 C1052 1.505 . S
C1047 C1046 1.379 . S
C1047 C1049 1.369 . S
C1047 H1058 0.930 . S
C1048 C1050 1.383 . S
C1048 C1051 1.382 . S
C1048 H1059 0.930 . S
C1049 C1047 1.369 . S
C1049 C1051 1.392 . S
C1049 H1060 0.930 . S
C1050 C1046 1.373 . S
C1050 C1048 1.383 . S
C1050 H1061 0.931 . S
C1051 C1048 1.382 . S
C1051 C1049 1.392 . S
C1052 Eu1023 2.828 . S
C1052 O1036 1.249 . S
C1052 O1037 1.244 . S
C1052 C1046 1.505 . S
C1053 O1040 1.258 . S
C1053 O1041 1.242 . S
H1054 C1026 0.930 . S
H1055 C1027 0.930 . S
H1056 C1028 0.930 . S
H1057 C1029 0.931 . S
H1058 C1047 0.930 . S
H1059 C1048 0.930 . S
H1060 C1049 0.930 . S
H1061 C1050 0.931 . S
C1062 C1063 1.387 . S
C1062 H1066 0.950 . S
C1062 C1071 1.390 . S
C1063 C1062 1.387 . S
C1063 C1065 1.387 . S
H1064 C1071 0.950 . S
C1065 C1063 1.387 . S
C1065 C1067 1.390 . S
C1065 H1069 0.950 . S
H1066 C1062 0.950 . S
C1067 C1065 1.390 . S
C1067 C1068 1.387 . S
C1067 H1070 0.950 . S
C1068 C1067 1.387 . S
C1068 C1071 1.387 . S
H1069 C1065 0.950 . S
H1070 C1067 0.950 . S
C1071 C1062 1.390 . S
C1071 H1064 0.950 . S
C1071 C1068 1.387 . S
C1072 C1073 1.387 . S
C1072 H1076 0.950 . S
C1072 C1081 1.390 . S
C1073 C1072 1.387 . S
C1073 C1075 1.387 . S
H1074 C1081 0.950 . S
C1075 C1073 1.387 . S
C1075 C1077 1.390 . S
C1075 H1079 0.950 . S
H1076 C1072 0.950 . S
C1077 C1075 1.390 . S
C1077 C1078 1.387 . S
C1077 H1080 0.950 . S
C1078 C1077 1.387 . S
C1078 C1081 1.387 . S
H1079 C1075 0.950 . S
H1080 C1077 0.950 . S
C1081 C1072 1.390 . S
C1081 H1074 0.950 . S
C1081 C1078 1.387 . S
C1082 C1083 1.348 1_556 S
C1082 H1086 0.993 . S
C1082 C1091 1.388 . S
C1083 C1082 1.348 1_554 S
C1083 C1085 1.387 . S
H1084 C1091 0.950 . S
C1085 C1083 1.387 . S
C1085 C1087 1.390 . S
C1085 H1089 0.950 . S
H1086 C1082 0.993 . S
C1087 C1085 1.390 . S
C1087 C1088 1.387 . S
C1087 H1090 0.950 . S
C1088 C1087 1.387 . S
C1088 C1091 1.387 1_554 S
H1089 C1085 0.950 . S
H1090 C1087 0.950 . S
C1091 C1082 1.388 . S
C1091 H1084 0.950 . S
C1091 C1088 1.387 1_556 S
C1092 C1093 1.387 . S
C1092 H1096 0.950 . S
C1092 C1101 1.390 . S
C1093 C1092 1.387 . S
C1093 C1095 1.387 . S
H1094 C1101 0.950 . S
C1095 C1093 1.387 . S
C1095 C1097 1.389 1_556 S
C1095 H1099 0.950 1_556 S
H1096 C1092 0.950 . S
C1097 C1095 1.389 1_554 S
C1097 C1098 1.356 1_554 S
C1097 H1100 0.982 . S
C1098 C1097 1.356 1_556 S
C1098 C1101 1.387 . S
H1099 C1095 0.950 1_554 S
H1100 C1097 0.982 . S
C1101 C1092 1.390 . S
C1101 H1094 0.950 . S
C1101 C1098 1.387 . S
C1102 C1103 1.387 . S
C1102 H1106 0.950 . S
C1102 C1111 1.390 . S
C1103 C1102 1.387 . S
C1103 C1105 1.387 . S
H1104 C1111 0.950 . S
C1105 C1103 1.387 . S
C1105 C1107 1.390 . S
C1105 H1109 0.950 . S
H1106 C1102 0.950 . S
C1107 C1105 1.390 . S
C1107 C1108 1.387 . S
C1107 H1110 0.950 . S
C1108 C1107 1.387 . S
C1108 C1111 1.387 . S
H1109 C1105 0.950 . S
H1110 C1107 0.950 . S
C1111 C1102 1.390 . S
C1111 H1104 0.950 . S
C1111 C1108 1.387 . S
C1112 C1113 1.387 . S
C1112 H1116 0.950 . S
C1112 C1121 1.390 . S
C1113 C1112 1.387 . S
C1113 C1115 1.411 . S
H1114 C1121 0.950 . S
C1115 C1113 1.411 . S
C1115 C1117 1.387 1_556 S
C1115 H1119 0.930 1_556 S
H1116 C1112 0.950 . S
C1117 C1115 1.387 1_554 S
C1117 C1118 1.387 1_554 S
C1117 H1120 0.950 . S
C1118 C1117 1.387 1_556 S
C1118 C1121 1.387 . S
H1119 C1115 0.930 1_554 S
H1120 C1117 0.950 . S
C1121 C1112 1.390 . S
C1121 H1114 0.950 . S
C1121 C1118 1.387 . S
C1122 C1123 1.387 . S
C1122 H1126 0.950 . S
C1122 C1131 1.390 . S
C1123 C1122 1.387 . S
C1123 C1125 1.387 . S
H1124 C1131 0.950 . S
C1125 C1123 1.387 . S
C1125 C1127 1.390 . S
C1125 H1129 0.950 . S
H1126 C1122 0.950 . S
C1127 C1125 1.390 . S
C1127 C1128 1.387 . S
C1127 H1130 0.950 . S
C1128 C1127 1.387 . S
C1128 C1131 1.387 . S
H1129 C1125 0.950 . S
H1130 C1127 0.950 . S
C1131 C1122 1.390 . S
C1131 H1124 0.950 . S
C1131 C1128 1.387 . S
C1132 C1133 1.387 . S
C1132 H1136 0.950 . S
C1132 C1141 1.390 . S
C1133 C1132 1.387 . S
C1133 C1135 1.387 . S
H1134 C1141 0.950 . S
C1135 C1133 1.387 . S
C1135 C1137 1.390 . S
C1135 H1139 0.950 . S
H1136 C1132 0.950 . S
C1137 C1135 1.390 . S
C1137 C1138 1.387 . S
C1137 H1140 0.950 1_556 S
C1138 C1137 1.387 . S
C1138 C1141 1.387 . S
H1139 C1135 0.950 . S
H1140 C1137 0.950 1_554 S
C1141 C1132 1.390 . S
C1141 H1134 0.950 . S
C1141 C1138 1.387 . S
C1142 C1143 1.387 . S
C1142 H1146 0.950 . S
C1142 C1151 1.390 . S
C1143 C1142 1.387 . S
C1143 C1145 1.387 1_556 S
H1144 C1151 0.950 . S
C1145 C1143 1.387 1_554 S
C1145 C1147 1.390 . S
C1145 H1149 0.950 . S
H1146 C1142 0.950 . S
C1147 C1145 1.390 . S
C1147 C1148 1.387 1_554 S
C1147 H1150 0.950 . S
C1148 C1147 1.387 1_556 S
C1148 C1151 1.387 . S
H1149 C1145 0.950 . S
H1150 C1147 0.950 . S
C1151 C1142 1.390 . S
C1151 H1144 0.950 . S
C1151 C1148 1.387 . S
C1152 C1153 1.387 . S
C1152 H1156 0.950 . S
C1152 C1161 1.390 . S
C1153 C1152 1.387 . S
C1153 C1155 1.387 . S
H1154 C1161 0.950 . S
C1155 C1153 1.387 . S
C1155 C1157 1.390 . S
C1155 H1159 0.950 1_554 S
H1156 C1152 0.950 . S
C1157 C1155 1.390 . S
C1157 C1158 1.387 . S
C1157 H1160 0.950 1_554 S
C1158 C1157 1.387 . S
C1158 C1161 1.387 . S
H1159 C1155 0.950 1_556 S
H1160 C1157 0.950 1_556 S
C1161 C1152 1.390 . S
C1161 H1154 0.950 . S
C1161 C1158 1.387 . S
C1162 C1163 1.387 . S
C1162 H1166 0.950 . S
C1162 C1171 1.390 . S
C1163 C1162 1.387 . S
C1163 C1165 1.387 . S
H1164 C1171 0.950 . S
C1165 C1163 1.387 . S
C1165 C1167 1.390 . S
C1165 H1169 0.950 . S
H1166 C1162 0.950 . S
C1167 C1165 1.390 . S
C1167 C1168 1.387 . S
C1167 H1170 0.950 . S
C1168 C1167 1.387 . S
C1168 C1171 1.387 . S
H1169 C1165 0.950 . S
H1170 C1167 0.950 . S
C1171 C1162 1.390 . S
C1171 H1164 0.950 . S
C1171 C1168 1.387 . S
C1172 C1173 1.387 . S
C1172 H1176 0.950 . S
C1172 C1181 1.390 . S
C1173 C1172 1.387 . S
C1173 C1175 1.387 . S
H1174 C1181 0.950 . S
C1175 C1173 1.387 . S
C1175 C1177 1.385 1_554 S
C1175 H1179 0.950 1_554 S
H1176 C1172 0.950 . S
C1177 C1175 1.385 1_556 S
C1177 C1178 1.357 1_556 S
C1177 H1180 0.987 . S
C1178 C1177 1.357 1_554 S
C1178 C1181 1.387 . S
H1179 C1175 0.950 1_556 S
H1180 C1177 0.987 . S
C1181 C1172 1.390 . S
C1181 H1174 0.950 . S
C1181 C1178 1.387 . S
C1182 C1183 1.387 . S
C1182 H1186 0.950 . S
C1182 C1191 1.390 . S
C1183 C1182 1.387 . S
C1183 C1185 1.387 . S
H1184 C1191 0.950 . S
C1185 C1183 1.387 . S
C1185 C1187 1.390 . S
C1185 H1189 0.950 1_455 S
H1186 C1182 0.950 . S
C1187 C1185 1.390 . S
C1187 C1188 1.387 . S
C1187 H1190 0.950 . S
C1188 C1187 1.387 . S
C1188 C1191 1.387 . S
H1189 C1185 0.950 1_655 S
H1190 C1187 0.950 . S
C1191 C1182 1.390 . S
C1191 H1184 0.950 . S
C1191 C1188 1.387 . S
C1192 C1193 1.387 . S
C1192 H1196 0.950 . S
C1192 C1201 1.390 . S
C1193 C1192 1.387 . S
C1193 C1195 1.387 . S
H1194 C1201 0.950 . S
C1195 C1193 1.387 . S
C1195 C1197 1.390 . S
C1195 H1199 0.950 . S
H1196 C1192 0.950 . S
C1197 C1195 1.390 . S
C1197 C1198 1.387 . S
C1197 H1200 0.950 . S
C1198 C1197 1.387 . S
C1198 C1201 1.387 . S
H1199 C1195 0.950 . S
H1200 C1197 0.950 . S
C1201 C1192 1.390 . S
C1201 H1194 0.950 . S
C1201 C1198 1.387 . S
C1202 C1203 1.387 1_565 S
C1202 H1206 0.950 . S
C1202 C1211 1.390 . S
C1203 C1202 1.387 1_545 S
C1203 C1205 1.387 1_545 S
H1204 C1211 0.950 . S
C1205 C1203 1.387 1_565 S
C1205 C1207 1.390 . S
C1205 H1209 0.950 1_565 S
H1206 C1202 0.950 . S
C1207 C1205 1.390 . S
C1207 C1208 1.387 . S
C1207 H1210 0.950 . S
C1208 C1207 1.387 . S
C1208 C1211 1.387 . S
H1209 C1205 0.950 1_545 S
H1210 C1207 0.950 . S
C1211 C1202 1.390 . S
C1211 H1204 0.950 . S
C1211 C1208 1.387 . S
C1212 C1213 1.387 . S
C1212 H1216 0.950 . S
C1212 C1221 1.390 . S
C1213 C1212 1.387 . S
C1213 C1215 1.387 . S
H1214 C1221 0.950 . S
C1215 C1213 1.387 . S
C1215 C1217 1.390 . S
C1215 H1219 0.950 . S
H1216 C1212 0.950 . S
C1217 C1215 1.390 . S
C1217 C1218 1.387 . S
C1217 H1220 0.950 . S
C1218 C1217 1.387 . S
C1218 C1221 1.387 . S
H1219 C1215 0.950 . S
H1220 C1217 0.950 . S
C1221 C1212 1.390 . S
C1221 H1214 0.950 . S
C1221 C1218 1.387 . S
C1222 C1223 1.387 . S
C1222 H1226 0.950 . S
C1222 C1231 1.390 . S
C1223 C1222 1.387 . S
C1223 C1225 1.387 . S
H1224 C1231 0.950 . S
C1225 C1223 1.387 . S
C1225 C1227 1.390 . S
C1225 H1229 0.950 . S
H1226 C1222 0.950 . S
C1227 C1225 1.390 . S
C1227 C1228 1.387 . S
C1227 H1230 0.950 . S
C1228 C1227 1.387 . S
C1228 C1231 1.387 . S
H1229 C1225 0.950 . S
H1230 C1227 0.950 . S
C1231 C1222 1.390 . S
C1231 H1224 0.950 . S
C1231 C1228 1.387 . S
C1232 C1233 1.387 . S
C1232 H1236 0.950 . S
C1232 C1241 1.390 . S
C1233 C1232 1.387 . S
C1233 C1235 1.387 . S
H1234 C1241 0.950 . S
C1235 C1233 1.387 . S
C1235 C1237 1.390 . S
C1235 H1239 0.950 . S
H1236 C1232 0.950 . S
C1237 C1235 1.390 . S
C1237 C1238 1.387 . S
C1237 H1240 0.950 . S
C1238 C1237 1.387 . S
C1238 C1241 1.387 . S
H1239 C1235 0.950 . S
H1240 C1237 0.950 . S
C1241 C1232 1.390 . S
C1241 H1234 0.950 . S
C1241 C1238 1.387 . S
C1242 C1243 1.387 . S
C1242 H1246 0.950 . S
C1242 C1251 1.390 . S
C1243 C1242 1.387 . S
C1243 C1245 1.387 . S
H1244 C1251 0.950 . S
C1245 C1243 1.387 . S
C1245 C1247 1.390 . S
C1245 H1249 0.950 . S
H1246 C1242 0.950 . S
C1247 C1245 1.390 . S
C1247 C1248 1.387 . S
C1247 H1250 0.950 . S
C1248 C1247 1.387 . S
C1248 C1251 1.387 . S
H1249 C1245 0.950 . S
H1250 C1247 0.950 . S
C1251 C1242 1.390 . S
C1251 H1244 0.950 . S
C1251 C1248 1.387 . S
C1252 C1253 1.387 . S
C1252 H1256 0.950 . S
C1252 C1261 1.390 . S
C1253 C1252 1.387 . S
C1253 C1255 1.387 . S
H1254 C1261 0.950 . S
C1255 C1253 1.387 . S
C1255 C1257 1.390 . S
C1255 H1259 0.950 . S
H1256 C1252 0.950 . S
C1257 C1255 1.390 . S
C1257 C1258 1.387 . S
C1257 H1260 0.950 . S
C1258 C1257 1.387 . S
C1258 C1261 1.387 . S
H1259 C1255 0.950 . S
H1260 C1257 0.950 . S
C1261 C1252 1.390 . S
C1261 H1254 0.950 . S
C1261 C1258 1.387 . S
C1262 C1263 1.387 . S
C1262 H1266 0.950 . S
C1262 C1271 1.390 . S
C1263 C1262 1.387 . S
C1263 C1265 1.387 . S
H1264 C1271 0.950 . S
C1265 C1263 1.387 . S
C1265 C1267 1.390 . S
C1265 H1269 0.950 . S
H1266 C1262 0.950 . S
C1267 C1265 1.390 . S
C1267 C1268 1.387 . S
C1267 H1270 0.950 . S
C1268 C1267 1.387 . S
C1268 C1271 1.387 . S
H1269 C1265 0.950 . S
H1270 C1267 0.950 . S
C1271 C1262 1.390 . S
C1271 H1264 0.950 . S
C1271 C1268 1.387 . S
C1272 C1273 1.387 . S
C1272 H1276 0.950 . S
C1272 C1281 1.390 . S
C1273 C1272 1.387 . S
C1273 C1275 1.387 . S
H1274 C1281 0.950 . S
C1275 C1273 1.387 . S
C1275 C1277 1.390 . S
C1275 H1279 0.950 . S
H1276 C1272 0.950 . S
C1277 C1275 1.390 . S
C1277 C1278 1.387 . S
C1277 H1280 0.950 . S
C1278 C1277 1.387 . S
C1278 C1281 1.387 . S
H1279 C1275 0.950 . S
H1280 C1277 0.950 . S
C1281 C1272 1.390 . S
C1281 H1274 0.950 . S
C1281 C1278 1.387 . S
C1282 C1283 1.387 . S
C1282 H1286 0.950 . S
C1282 C1291 1.390 . S
C1283 C1282 1.387 . S
C1283 C1285 1.387 . S
H1284 C1291 0.950 . S
C1285 C1283 1.387 . S
C1285 C1287 1.390 . S
C1285 H1289 0.950 . S
H1286 C1282 0.950 . S
C1287 C1285 1.390 . S
C1287 C1288 1.387 . S
C1287 H1290 0.950 . S
C1288 C1287 1.387 . S
C1288 C1291 1.387 . S
H1289 C1285 0.950 . S
H1290 C1287 0.950 . S
C1291 C1282 1.390 . S
C1291 H1284 0.950 . S
C1291 C1288 1.387 . S
C1292 C1293 1.387 . S
C1292 H1296 0.950 . S
C1292 C1301 1.390 . S
C1293 C1292 1.387 . S
C1293 C1295 1.387 . S
H1294 C1301 0.950 . S
C1295 C1293 1.387 . S
C1295 C1297 1.390 . S
C1295 H1299 0.950 . S
H1296 C1292 0.950 . S
C1297 C1295 1.390 . S
C1297 C1298 1.387 . S
C1297 H1300 0.950 . S
C1298 C1297 1.387 . S
C1298 C1301 1.387 . S
H1299 C1295 0.950 . S
H1300 C1297 0.950 . S
C1301 C1292 1.390 . S
C1301 H1294 0.950 . S
C1301 C1298 1.387 . S
C1302 C1303 1.387 . S
C1302 H1306 0.950 . S
C1302 C1311 1.390 . S
C1303 C1302 1.387 . S
C1303 C1305 1.387 . S
H1304 C1311 0.950 . S
C1305 C1303 1.387 . S
C1305 C1307 1.390 . S
C1305 H1309 0.950 . S
H1306 C1302 0.950 . S
C1307 C1305 1.390 . S
C1307 C1308 1.387 . S
C1307 H1310 0.950 . S
C1308 C1307 1.387 . S
C1308 C1311 1.387 . S
H1309 C1305 0.950 . S
H1310 C1307 0.950 . S
C1311 C1302 1.390 . S
C1311 H1304 0.950 . S
C1311 C1308 1.387 . S
C1312 C1313 1.387 . S
C1312 H1316 0.950 . S
C1312 C1321 1.390 . S
C1313 C1312 1.387 . S
C1313 C1315 1.387 . S
H1314 C1321 0.950 . S
C1315 C1313 1.387 . S
C1315 C1317 1.390 . S
C1315 H1319 0.950 . S
H1316 C1312 0.950 . S
C1317 C1315 1.390 . S
C1317 C1318 1.387 . S
C1317 H1320 0.950 . S
C1318 C1317 1.387 . S
C1318 C1321 1.387 . S
H1319 C1315 0.950 . S
H1320 C1317 0.950 . S
C1321 C1312 1.390 . S
C1321 H1314 0.950 . S
C1321 C1318 1.387 . S
C1322 C1323 1.387 . S
C1322 H1326 0.950 . S
C1322 C1331 1.390 . S
C1323 C1322 1.387 . S
C1323 C1325 1.387 . S
H1324 C1331 0.950 . S
C1325 C1323 1.387 . S
C1325 C1327 1.390 . S
C1325 H1329 0.950 . S
H1326 C1322 0.950 . S
C1327 C1325 1.390 . S
C1327 C1328 1.387 . S
C1327 H1330 0.950 . S
C1328 C1327 1.387 . S
C1328 C1331 1.387 . S
H1329 C1325 0.950 . S
H1330 C1327 0.950 . S
C1331 C1322 1.390 . S
C1331 H1324 0.950 . S
C1331 C1328 1.387 . S
C1332 C1333 1.387 . S
C1332 H1336 0.950 . S
C1332 C1341 1.390 . S
C1333 C1332 1.387 . S
C1333 C1335 1.387 . S
H1334 C1341 0.950 . S
C1335 C1333 1.387 . S
C1335 C1337 1.390 . S
C1335 H1339 0.950 . S
H1336 C1332 0.950 . S
C1337 C1335 1.390 . S
C1337 C1338 1.387 . S
C1337 H1340 0.950 . S
C1338 C1337 1.387 . S
C1338 C1341 1.387 . S
H1339 C1335 0.950 . S
H1340 C1337 0.950 . S
C1341 C1332 1.390 . S
C1341 H1334 0.950 . S
C1341 C1338 1.387 . S
C1342 C1343 1.387 . S
C1342 H1346 0.950 . S
C1342 C1351 1.390 . S
C1343 C1342 1.387 . S
C1343 C1345 1.387 . S
H1344 C1351 0.950 . S
C1345 C1343 1.387 . S
C1345 C1347 1.390 . S
C1345 H1349 0.950 . S
H1346 C1342 0.950 . S
C1347 C1345 1.390 . S
C1347 C1348 1.387 . S
C1347 H1350 0.950 . S
C1348 C1347 1.387 . S
C1348 C1351 1.387 . S
H1349 C1345 0.950 . S
H1350 C1347 0.950 . S
C1351 C1342 1.390 . S
C1351 H1344 0.950 . S
C1351 C1348 1.387 . S
C1352 C1353 1.387 . S
C1352 H1356 0.950 . S
C1352 C1361 1.390 . S
C1353 C1352 1.387 . S
C1353 C1355 1.387 . S
H1354 C1361 0.950 . S
C1355 C1353 1.387 . S
C1355 C1357 1.390 . S
C1355 H1359 0.950 . S
H1356 C1352 0.950 . S
C1357 C1355 1.390 . S
C1357 C1358 1.387 . S
C1357 H1360 0.950 . S
C1358 C1357 1.387 . S
C1358 C1361 1.387 . S
H1359 C1355 0.950 . S
H1360 C1357 0.950 . S
C1361 C1352 1.390 . S
C1361 H1354 0.950 . S
C1361 C1358 1.387 . S
C1362 C1363 1.387 . S
C1362 H1366 0.950 . S
C1362 C1371 1.390 . S
C1363 C1362 1.387 . S
C1363 C1365 1.387 . S
H1364 C1371 0.950 . S
C1365 C1363 1.387 . S
C1365 C1367 1.390 . S
C1365 H1369 0.941 1_655 S
H1366 C1362 0.950 . S
C1367 C1365 1.390 . S
C1367 C1368 1.387 . S
C1367 H1370 0.950 . S
C1368 C1367 1.387 . S
C1368 C1371 1.387 . S
H1369 C1365 0.941 1_455 S
H1370 C1367 0.950 . S
C1371 C1362 1.390 . S
C1371 H1364 0.950 . S
C1371 C1368 1.387 . S
C1372 C1373 1.387 . S
C1372 H1376 0.950 . S
C1372 C1381 1.390 . S
C1373 C1372 1.387 . S
C1373 C1375 1.387 . S
H1374 C1381 0.950 . S
C1375 C1373 1.387 . S
C1375 C1377 1.390 . S
C1375 H1379 0.950 . S
H1376 C1372 0.950 . S
C1377 C1375 1.390 . S
C1377 C1378 1.387 . S
C1377 H1380 0.950 . S
C1378 C1377 1.387 . S
C1378 C1381 1.387 . S
H1379 C1375 0.950 . S
H1380 C1377 0.950 . S
C1381 C1372 1.390 . S
C1381 H1374 0.950 . S
C1381 C1378 1.387 . S
C1382 C1383 1.387 1_545 S
C1382 H1386 0.950 . S
C1382 C1391 1.390 . S
C1383 C1382 1.387 1_565 S
C1383 C1385 1.387 1_565 S
H1384 C1391 0.950 . S
C1385 C1383 1.387 1_545 S
C1385 C1387 1.390 . S
C1385 H1389 0.948 1_545 S
H1386 C1382 0.950 . S
C1387 C1385 1.390 . S
C1387 C1388 1.387 . S
C1387 H1390 0.950 . S
C1388 C1387 1.387 . S
C1388 C1391 1.387 . S
H1389 C1385 0.948 1_565 S
H1390 C1387 0.950 . S
C1391 C1382 1.390 . S
C1391 H1384 0.950 . S
C1391 C1388 1.387 . S
C1392 C1393 1.387 . S
C1392 H1396 0.950 . S
C1392 C1401 1.390 . S
C1393 C1392 1.387 . S
C1393 C1395 1.387 . S
H1394 C1401 0.950 . S
C1395 C1393 1.387 . S
C1395 C1397 1.390 . S
C1395 H1399 0.950 . S
H1396 C1392 0.950 . S
C1397 C1395 1.390 . S
C1397 C1398 1.387 . S
C1397 H1400 0.950 . S
C1398 C1397 1.387 . S
C1398 C1401 1.387 . S
H1399 C1395 0.950 . S
H1400 C1397 0.950 . S
C1401 C1392 1.390 . S
C1401 H1394 0.950 . S
C1401 C1398 1.387 . S
C1402 C1403 1.387 . S
C1402 H1406 0.950 . S
C1402 C1411 1.390 . S
C1403 C1402 1.387 . S
C1403 C1405 1.387 . S
H1404 C1411 0.950 . S
C1405 C1403 1.387 . S
C1405 C1407 1.390 . S
C1405 H1409 0.950 . S
H1406 C1402 0.950 . S
C1407 C1405 1.390 . S
C1407 C1408 1.387 . S
C1407 H1410 0.950 . S
C1408 C1407 1.387 . S
C1408 C1411 1.387 . S
H1409 C1405 0.950 . S
H1410 C1407 0.950 . S
C1411 C1402 1.390 . S
C1411 H1404 0.950 . S
C1411 C1408 1.387 . S
C1412 C1413 1.387 . S
C1412 H1416 0.950 . S
C1412 C1421 1.390 . S
C1413 C1412 1.387 . S
C1413 C1415 1.387 . S
H1414 C1421 0.950 . S
C1415 C1413 1.387 . S
C1415 C1417 1.390 . S
C1415 H1419 0.950 . S
H1416 C1412 0.950 . S
C1417 C1415 1.390 . S
C1417 C1418 1.387 . S
C1417 H1420 0.950 . S
C1418 C1417 1.387 . S
C1418 C1421 1.387 . S
H1419 C1415 0.950 . S
H1420 C1417 0.950 . S
C1421 C1412 1.390 . S
C1421 H1414 0.950 . S
C1421 C1418 1.387 . S
C1422 C1423 1.387 1_545 S
C1422 H1426 0.950 . S
C1422 C1431 1.390 . S
C1423 C1422 1.387 1_565 S
C1423 C1425 1.387 . S
H1424 C1431 0.950 . S
C1425 C1423 1.387 . S
C1425 C1427 1.390 . S
C1425 H1429 0.950 . S
H1426 C1422 0.950 . S
C1427 C1425 1.390 . S
C1427 C1428 1.387 . S
C1427 H1430 0.950 . S
C1428 C1427 1.387 . S
C1428 C1431 1.387 1_565 S
H1429 C1425 0.950 . S
H1430 C1427 0.950 . S
C1431 C1422 1.390 . S
C1431 H1424 0.950 . S
C1431 C1428 1.387 1_545 S
C1432 C1433 1.387 . S
C1432 H1436 0.950 . S
C1432 C1441 1.390 . S
C1433 C1432 1.387 . S
C1433 C1435 1.387 1_455 S
H1434 C1441 0.950 . S
C1435 C1433 1.387 1_655 S
C1435 C1437 1.390 . S
C1435 H1439 0.950 . S
H1436 C1432 0.950 . S
C1437 C1435 1.390 . S
C1437 C1438 1.387 1_655 S
C1437 H1440 0.950 . S
C1438 C1437 1.387 1_455 S
C1438 C1441 1.387 . S
H1439 C1435 0.950 . S
H1440 C1437 0.950 . S
C1441 C1432 1.390 . S
C1441 H1434 0.950 . S
C1441 C1438 1.387 . S
C1442 C1443 1.387 . S
C1442 H1446 0.950 . S
C1442 C1451 1.390 . S
C1443 C1442 1.387 . S
C1443 C1445 1.387 . S
H1444 C1451 0.950 . S
C1445 C1443 1.387 . S
C1445 C1447 1.390 . S
C1445 H1449 0.950 . S
H1446 C1442 0.950 . S
C1447 C1445 1.390 . S
C1447 C1448 1.387 . S
C1447 H1450 0.950 . S
C1448 C1447 1.387 . S
C1448 C1451 1.387 . S
H1449 C1445 0.950 . S
H1450 C1447 0.950 . S
C1451 C1442 1.390 . S
C1451 H1444 0.950 . S
C1451 C1448 1.387 . S
C1452 C1453 1.387 . S
C1452 H1456 0.950 . S
C1452 C1461 1.390 . S
C1453 C1452 1.387 . S
C1453 C1455 1.387 . S
H1454 C1461 0.950 . S
C1455 C1453 1.387 . S
C1455 C1457 1.390 . S
C1455 H1459 0.950 . S
H1456 C1452 0.950 . S
C1457 C1455 1.390 . S
C1457 C1458 1.387 . S
C1457 H1460 0.950 . S
C1458 C1457 1.387 . S
C1458 C1461 1.387 . S
H1459 C1455 0.950 . S
H1460 C1457 0.950 . S
C1461 C1452 1.390 . S
C1461 H1454 0.950 . S
C1461 C1458 1.387 . S
C1462 C1463 1.387 . S
C1462 H1466 0.950 . S
C1462 C1471 1.390 . S
C1463 C1462 1.387 . S
C1463 C1465 1.387 . S
H1464 C1471 0.950 . S
C1465 C1463 1.387 . S
C1465 C1467 1.390 . S
C1465 H1469 0.950 . S
H1466 C1462 0.950 . S
C1467 C1465 1.390 . S
C1467 C1468 1.387 . S
C1467 H1470 0.950 . S
C1468 C1467 1.387 . S
C1468 C1471 1.387 . S
H1469 C1465 0.950 . S
H1470 C1467 0.950 . S
C1471 C1462 1.390 . S
C1471 H1464 0.950 . S
C1471 C1468 1.387 . S
C1472 C1473 1.387 . S
C1472 H1476 0.950 . S
C1472 C1481 1.390 . S
C1473 C1472 1.387 . S
C1473 C1475 1.387 . S
H1474 C1481 0.950 . S
C1475 C1473 1.387 . S
C1475 C1477 1.390 1_545 S
C1475 H1479 0.950 1_545 S
H1476 C1472 0.950 . S
C1477 C1475 1.390 1_565 S
C1477 C1478 1.387 1_565 S
C1477 H1480 0.950 . S
C1478 C1477 1.387 1_545 S
C1478 C1481 1.387 . S
H1479 C1475 0.950 1_565 S
H1480 C1477 0.950 . S
C1481 C1472 1.390 . S
C1481 H1474 0.950 . S
C1481 C1478 1.387 . S
C1482 C1483 1.387 . S
C1482 H1486 0.950 . S
C1482 C1491 1.390 . S
C1483 C1482 1.387 . S
C1483 C1485 1.387 . S
H1484 C1491 0.950 . S
C1485 C1483 1.387 . S
C1485 C1487 1.390 . S
C1485 H1489 0.950 . S
H1486 C1482 0.950 . S
C1487 C1485 1.390 . S
C1487 C1488 1.387 . S
C1487 H1490 0.950 . S
C1488 C1487 1.387 . S
C1488 C1491 1.387 . S
H1489 C1485 0.950 . S
H1490 C1487 0.950 . S
C1491 C1482 1.390 . S
C1491 H1484 0.950 . S
C1491 C1488 1.387 . S
C1492 C1493 1.387 . S
C1492 H1496 0.950 . S
C1492 C1501 1.390 . S
C1493 C1492 1.387 . S
C1493 C1495 1.387 . S
H1494 C1501 0.950 . S
C1495 C1493 1.387 . S
C1495 C1497 1.390 . S
C1495 H1499 0.950 . S
H1496 C1492 0.950 . S
C1497 C1495 1.390 . S
C1497 C1498 1.387 . S
C1497 H1500 0.950 . S
C1498 C1497 1.387 . S
C1498 C1501 1.387 . S
H1499 C1495 0.950 . S
H1500 C1497 0.950 . S
C1501 C1492 1.390 . S
C1501 H1494 0.950 . S
C1501 C1498 1.387 . S
C1502 C1503 1.387 . S
C1502 H1506 0.950 . S
C1502 C1511 1.390 . S
C1503 C1502 1.387 . S
C1503 C1505 1.387 . S
H1504 C1511 0.950 . S
C1505 C1503 1.387 . S
C1505 C1507 1.390 . S
C1505 H1509 0.950 . S
H1506 C1502 0.950 . S
C1507 C1505 1.390 . S
C1507 C1508 1.387 . S
C1507 H1510 0.950 . S
C1508 C1507 1.387 . S
C1508 C1511 1.387 . S
H1509 C1505 0.950 . S
H1510 C1507 0.950 . S
C1511 C1502 1.390 . S
C1511 H1504 0.950 . S
C1511 C1508 1.387 . S
C1512 C1513 1.387 . S
C1512 H1516 0.950 . S
C1512 C1521 1.390 . S
C1513 C1512 1.387 . S
C1513 C1515 1.387 . S
H1514 C1521 0.950 . S
C1515 C1513 1.387 . S
C1515 C1517 1.390 . S
C1515 H1519 0.950 . S
H1516 C1512 0.950 . S
C1517 C1515 1.390 . S
C1517 C1518 1.387 . S
C1517 H1520 0.950 . S
C1518 C1517 1.387 . S
C1518 C1521 1.387 . S
H1519 C1515 0.950 . S
H1520 C1517 0.950 . S
C1521 C1512 1.390 . S
C1521 H1514 0.950 . S
C1521 C1518 1.387 . S
C1522 C1523 1.387 . S
C1522 H1526 0.950 . S
C1522 C1531 1.390 . S
C1523 C1522 1.387 . S
C1523 C1525 1.387 . S
H1524 C1531 0.950 . S
C1525 C1523 1.387 . S
C1525 C1527 1.390 . S
C1525 H1529 0.950 . S
H1526 C1522 0.950 . S
C1527 C1525 1.390 . S
C1527 C1528 1.387 . S
C1527 H1530 0.950 . S
C1528 C1527 1.387 . S
C1528 C1531 1.387 . S
H1529 C1525 0.950 . S
H1530 C1527 0.950 . S
C1531 C1522 1.390 . S
C1531 H1524 0.950 . S
C1531 C1528 1.387 . S
C1532 C1533 1.387 . S
C1532 H1536 0.950 . S
C1532 C1541 1.390 . S
C1533 C1532 1.387 . S
C1533 C1535 1.387 . S
H1534 C1541 0.950 . S
C1535 C1533 1.387 . S
C1535 C1537 1.390 . S
C1535 H1539 0.950 . S
H1536 C1532 0.950 . S
C1537 C1535 1.390 . S
C1537 C1538 1.387 . S
C1537 H1540 0.950 . S
C1538 C1537 1.387 . S
C1538 C1541 1.387 . S
H1539 C1535 0.950 . S
H1540 C1537 0.950 . S
C1541 C1532 1.390 . S
C1541 H1534 0.950 . S
C1541 C1538 1.387 . S
C1542 C1543 1.387 . S
C1542 H1546 0.950 . S
C1542 C1551 1.390 . S
C1543 C1542 1.387 . S
C1543 C1545 1.387 . S
H1544 C1551 0.950 . S
C1545 C1543 1.387 . S
C1545 C1547 1.390 . S
C1545 H1549 0.950 . S
H1546 C1542 0.950 . S
C1547 C1545 1.390 . S
C1547 C1548 1.387 . S
C1547 H1550 0.950 . S
C1548 C1547 1.387 . S
C1548 C1551 1.387 . S
H1549 C1545 0.950 . S
H1550 C1547 0.950 . S
C1551 C1542 1.390 . S
C1551 H1544 0.950 . S
C1551 C1548 1.387 . S
C1552 C1553 1.387 . S
C1552 H1556 0.950 . S
C1552 C1561 1.390 . S
C1553 C1552 1.387 . S
C1553 C1555 1.387 . S
H1554 C1561 0.950 . S
C1555 C1553 1.387 . S
C1555 C1557 1.390 . S
C1555 H1559 0.950 . S
H1556 C1552 0.950 . S
C1557 C1555 1.390 . S
C1557 C1558 1.387 . S
C1557 H1560 0.950 . S
C1558 C1557 1.387 . S
C1558 C1561 1.387 . S
H1559 C1555 0.950 . S
H1560 C1557 0.950 . S
C1561 C1552 1.390 . S
C1561 H1554 0.950 . S
C1561 C1558 1.387 . S
C1562 C1563 1.387 . S
C1562 H1566 0.950 . S
C1562 C1571 1.390 . S
C1563 C1562 1.387 . S
C1563 C1565 1.387 . S
H1564 C1571 0.950 . S
C1565 C1563 1.387 . S
C1565 C1567 1.390 . S
C1565 H1569 0.950 . S
H1566 C1562 0.950 . S
C1567 C1565 1.390 . S
C1567 C1568 1.387 . S
C1567 H1570 0.950 . S
C1568 C1567 1.387 . S
C1568 C1571 1.387 . S
H1569 C1565 0.950 . S
H1570 C1567 0.950 . S
C1571 C1562 1.390 . S
C1571 H1564 0.950 . S
C1571 C1568 1.387 . S
C1572 C1573 1.387 . S
C1572 H1576 0.950 . S
C1572 C1581 1.390 . S
C1573 C1572 1.387 . S
C1573 C1575 1.387 . S
H1574 C1581 0.950 . S
C1575 C1573 1.387 . S
C1575 C1577 1.390 . S
C1575 H1579 0.950 . S
H1576 C1572 0.950 . S
C1577 C1575 1.390 . S
C1577 C1578 1.387 . S
C1577 H1580 0.950 . S
C1578 C1577 1.387 . S
C1578 C1581 1.387 . S
H1579 C1575 0.950 . S
H1580 C1577 0.950 . S
C1581 C1572 1.390 . S
C1581 H1574 0.950 . S
C1581 C1578 1.387 . S
C1582 C1583 1.387 . S
C1582 H1586 0.950 . S
C1582 C1591 1.390 . S
C1583 C1582 1.387 . S
C1583 C1585 1.387 . S
H1584 C1591 0.950 . S
C1585 C1583 1.387 . S
C1585 C1587 1.390 . S
C1585 H1589 0.950 . S
H1586 C1582 0.950 . S
C1587 C1585 1.390 . S
C1587 C1588 1.387 . S
C1587 H1590 0.950 . S
C1588 C1587 1.387 . S
C1588 C1591 1.387 . S
H1589 C1585 0.950 . S
H1590 C1587 0.950 . S
C1591 C1582 1.390 . S
C1591 H1584 0.950 . S
C1591 C1588 1.387 . S
C1592 C1593 1.387 . S
C1592 H1596 0.950 . S
C1592 C1601 1.390 . S
C1593 C1592 1.387 . S
C1593 C1595 1.387 . S
H1594 C1601 0.950 . S
C1595 C1593 1.387 . S
C1595 C1597 1.390 . S
C1595 H1599 0.950 . S
H1596 C1592 0.950 . S
C1597 C1595 1.390 . S
C1597 C1598 1.387 . S
C1597 H1600 0.950 . S
C1598 C1597 1.387 . S
C1598 C1601 1.387 . S
H1599 C1595 0.950 . S
H1600 C1597 0.950 . S
C1601 C1592 1.390 . S
C1601 H1594 0.950 . S
C1601 C1598 1.387 . S
C1063 C528 1.720 . S
C1068 C714 1.745 . S
C1073 C562 1.794 . S
C1078 C754 1.802 . S
C1083 C484 1.792 . S
C1088 C784 1.823 . S
C1093 C445 1.628 . S
C1098 C744 1.638 . S
C1108 C794 1.556 . S
C1103 C367 1.538 . S
C1113 C411 1.534 . S
C1118 C704 1.577 . S
C1128 C733 1.759 . S
C1123 C450 1.713 . S
C1138 C773 1.786 . S
C1133 C372 1.769 . S
C1143 C406 1.787 . S
C1148 C799 1.824 . S
C1153 C523 1.621 . S
C1158 C759 1.638 . S
C1163 C567 1.510 . S
C1168 C813 1.537 . S
C1178 C719 1.592 . S
C1173 C489 1.524 . S
C1188 C834 1.745 . S
C1183 C60 1.720 1_455 S
C1193 C94 1.794 . S
C1198 C874 1.802 . S
C1203 C16 1.792 . S
C1208 C904 1.824 . S
C1213 C679 1.626 . S
C1218 C864 1.638 . S
C1223 C601 1.538 . S
C1228 C914 1.556 . S
C1233 C645 1.535 . S
C1238 C824 1.577 . S
C1243 C684 1.713 . S
C1248 C853 1.759 . S
C1253 C606 1.770 . S
C1258 C893 1.786 . S
C1268 C919 1.824 . S
C1263 C640 1.787 . S
C1273 C55 1.624 1_565 S
C1278 C879 1.639 . S
C1288 C933 1.538 . S
C1283 C99 1.510 1_455 S
C1293 C21 1.529 . S
C1298 C839 1.595 . S
C1308 C954 1.745 . S
C1303 C294 1.720 . S
C1313 C328 1.794 . S
C1318 C994 1.801 . S
C1328 C1024 1.824 . S
C1323 C250 1.792 . S
C1338 C984 1.638 . S
C1333 C211 1.626 1_545 S
C1348 C1034 1.555 . S
C1343 C133 1.537 1_655 S
C1353 C177 1.531 . S
C1358 C944 1.575 . S
C1363 C216 1.713 1_655 S
C1368 C973 1.759 . S
C1373 C138 1.770 . S
C1378 C1013 1.786 . S
C1388 C1039 1.826 . S
C1383 C172 1.790 . S
C1393 C289 1.624 . S
C1398 C999 1.638 . S
C1403 C333 1.510 . S
C1408 C1053 1.537 . S
C1413 C255 1.525 . S
C1418 C959 1.593 . S
C1423 C586 1.411 . S
C1428 C731 1.392 . S
C1438 C771 1.812 . S
C1433 C625 1.829 . S
C1443 C664 1.572 . S
C1448 C790 1.578 . S
C1453 C235 1.828 . S
C1458 C750 1.819 . S
C1463 C274 1.564 . S
C1468 C811 1.565 . S
C1478 C710 1.391 . S
C1473 C313 1.408 . S
C1483 C118 1.411 . S
C1488 C851 1.394 . S
C1493 C157 1.829 . S
C1498 C891 1.812 . S
C1503 C196 1.572 . S
C1508 C910 1.578 . S
C1513 C469 1.830 . S
C1518 C870 1.821 . S
C1528 C931 1.565 . S
C1523 C508 1.565 . S
C1533 C547 1.409 . S
C1538 C830 1.393 . S
C1543 C352 1.411 . S
C1548 C971 1.394 . S
C1553 C391 1.829 . S
C1558 C1011 1.812 . S
C1568 C1030 1.577 . S
C1563 C430 1.571 . S
C1573 C1 1.828 . S
C1578 C990 1.819 . S
C1583 C40 1.565 . S
C1588 C1051 1.566 . S
C1593 C79 1.408 . S
C1598 C950 1.392 . S
