# Generated by pormake.
# Topology anh, (6,3)-cn, num edge types: 1
# Building blocks:
#     Node 0, Type 0, BuildingBlock: VOLQOD_clean_sbu_1, # of connection points: 6
#     Node 1, Type 0, BuildingBlock: VOLQOD_clean_sbu_1, # of connection points: 6
#     Node 2, Type 0, BuildingBlock: VOLQOD_clean_sbu_1, # of connection points: 6
#     Node 3, Type 1, BuildingBlock: INOVEN_clean_linker_0, # of connection points: 3
#     Node 4, Type 1, BuildingBlock: INOVEN_clean_linker_0, # of connection points: 3
#     Node 5, Type 1, BuildingBlock: INOVEN_clean_linker_0, # of connection points: 3
#     Node 6, Type 1, BuildingBlock: INOVEN_clean_linker_0, # of connection points: 3
#     Node 7, Type 1, BuildingBlock: INOVEN_clean_linker_0, # of connection points: 3
#     Node 8, Type 1, BuildingBlock: INOVEN_clean_linker_0, # of connection points: 3
#     Edge 9, Type (0, 1), BuildingBlock: OJICUG_clean_linker_0, # of connection points: 2
#     Edge 10, Type (0, 1), BuildingBlock: OJICUG_clean_linker_0, # of connection points: 2
#     Edge 11, Type (0, 1), BuildingBlock: OJICUG_clean_linker_0, # of connection points: 2
#     Edge 12, Type (0, 1), BuildingBlock: OJICUG_clean_linker_0, # of connection points: 2
#     Edge 13, Type (0, 1), BuildingBlock: OJICUG_clean_linker_0, # of connection points: 2
#     Edge 14, Type (0, 1), BuildingBlock: OJICUG_clean_linker_0, # of connection points: 2
#     Edge 15, Type (0, 1), BuildingBlock: OJICUG_clean_linker_0, # of connection points: 2
#     Edge 16, Type (0, 1), BuildingBlock: OJICUG_clean_linker_0, # of connection points: 2
#     Edge 17, Type (0, 1), BuildingBlock: OJICUG_clean_linker_0, # of connection points: 2
#     Edge 18, Type (0, 1), BuildingBlock: OJICUG_clean_linker_0, # of connection points: 2
#     Edge 19, Type (0, 1), BuildingBlock: OJICUG_clean_linker_0, # of connection points: 2
#     Edge 20, Type (0, 1), BuildingBlock: OJICUG_clean_linker_0, # of connection points: 2
#     Edge 21, Type (0, 1), BuildingBlock: OJICUG_clean_linker_0, # of connection points: 2
#     Edge 22, Type (0, 1), BuildingBlock: OJICUG_clean_linker_0, # of connection points: 2
#     Edge 23, Type (0, 1), BuildingBlock: OJICUG_clean_linker_0, # of connection points: 2
#     Edge 24, Type (0, 1), BuildingBlock: OJICUG_clean_linker_0, # of connection points: 2
#     Edge 25, Type (0, 1), BuildingBlock: OJICUG_clean_linker_0, # of connection points: 2
#     Edge 26, Type (0, 1), BuildingBlock: OJICUG_clean_linker_0, # of connection points: 2
# Relax obj value: 0.157
# Max RMSD: 0.216
# Mean RMSD: 0.130
data_MOF--net-anh--node1-VOLQOD_clean_sbu_1--node2-INOVEN_clean_linker_0--edge1-OJICUG_clean_linker_0
_symmetry_space_group_name_H-M    P1
_symmetry_Int_Tables_number       1
_symmetry_cell_setting            triclinic
loop_
_symmetry_equiv_pos_as_xyz
'x, y, z'
_cell_length_a     22.162635
_cell_length_b     22.059901
_cell_length_c     41.609878
_cell_angle_alpha  92.959276
_cell_angle_beta   92.445095
_cell_angle_gamma 120.2555
loop_
_atom_site_label
_atom_site_type_symbol
_atom_site_fract_x
_atom_site_fract_y
_atom_site_fract_z
_atom_type_partial_charge
O0 O 0.01059 0.61526 0.23352 0.0
Zn1 Zn 0.0076 0.63019 0.18613 0.0
O2 O 0.01235 0.55544 0.16041 0.0
Zn3 Zn 0.92649 0.49863 0.13275 0.0
Zn4 Zn 0.02785 0.49515 0.18848 0.0
Zn5 Zn 0.08885 0.59788 0.13309 0.0
O6 O 0.94252 0.506 0.08511 0.0
O7 O 0.0561 0.58428 0.08646 0.0
O8 O 0.91752 0.63046 0.17429 0.0
O9 O 0.85993 0.53191 0.1416 0.0
O10 O 0.87653 0.39785 0.14313 0.0
O11 O 0.94415 0.39657 0.18366 0.0
O12 O 0.11596 0.49209 0.17998 0.0
O13 O 0.09352 0.72551 0.18196 0.0
O14 O 0.14905 0.55528 0.13752 0.0
O15 O 0.15106 0.70047 0.14629 0.0
C16 C 0.02472 0.57511 0.2491 0.0
C17 C -0.00282 0.54452 0.07072 0.0
C18 C 0.88841 0.36556 0.16474 0.0
C19 C 0.86236 0.58405 0.15742 0.0
C20 C 0.15656 0.51732 0.15743 0.0
C21 C 0.14686 0.74435 0.16577 0.0
O22 O 0.03522 0.52938 0.23465 0.0
O23 O 0.48642 0.05362 0.4228 0.0
Zn24 Zn 0.47362 0.05283 0.47054 0.0
O25 O 0.54592 0.04092 0.4934 0.0
Zn26 Zn 0.60493 0.12124 0.52354 0.0
Zn27 Zn 0.60494 0.02932 0.46309 0.0
Zn28 Zn 0.50177 0.96052 0.51838 0.0
O29 O 0.60355 0.0975 0.5694 0.0
O30 O 0.51431 0.98768 0.56594 0.0
O31 O 0.47573 0.14248 0.48758 0.0
O32 O 0.56664 0.18456 0.52397 0.0
O33 O 0.70253 0.17829 0.51035 0.0
O34 O 0.70043 0.11706 0.46593 0.0
O35 O 0.61598 0.94544 0.47178 0.0
O36 O 0.37739 0.96827 0.47435 0.0
O37 O 0.5442 0.90106 0.51098 0.0
O38 O 0.39971 0.90178 0.50527 0.0
C39 C 0.52106 0.03498 0.40524 0.0
C40 C 0.55997 0.04333 0.5827 0.0
C41 C 0.73203 0.17126 0.48604 0.0
C42 C 0.5174 0.18899 0.50969 0.0
C43 C 0.5874 0.89996 0.4922 0.0
C44 C 0.3569 0.91165 0.48823 0.0
O45 O 0.56462 0.01935 0.41759 0.0
O46 O 0.46458 0.49305 0.75409 0.0
Zn47 Zn 0.45253 0.46404 0.79937 0.0
O48 O 0.53226 0.53161 0.82829 0.0
Zn49 Zn 0.50463 0.58301 0.85672 0.0
Zn50 Zn 0.60719 0.59807 0.80352 0.0
Zn51 Zn 0.56247 0.48026 0.85484 0.0
O52 O 0.53876 0.58816 0.90235 0.0
O53 O 0.56255 0.50184 0.90266 0.0
O54 O 0.36073 0.4504 0.81432 0.0
O55 O 0.40083 0.53262 0.85567 0.0
O56 O 0.54027 0.6813 0.84449 0.0
O57 O 0.62263 0.69601 0.81199 0.0
O58 O 0.69763 0.59802 0.81378 0.0
O59 O 0.45151 0.37237 0.79682 0.0
O60 O 0.66116 0.51206 0.8469 0.0
O61 O 0.51137 0.37599 0.84178 0.0
C62 C 0.51883 0.53362 0.73995 0.0
C63 C 0.5565 0.55026 0.9175 0.0
C64 C 0.58966 0.7201 0.82743 0.0
C65 C 0.35049 0.48229 0.83799 0.0
C66 C 0.7084 0.55782 0.83105 0.0
C67 C 0.47422 0.3434 0.81571 0.0
O68 O 0.57807 0.57302 0.75572 0.0
H69 H 0.46188 0.02358 0.1728 0.0
H70 H 0.3732 0.95095 0.26308 0.0
H71 H 0.59291 0.09837 0.26166 0.0
N72 N 0.59238 0.10703 0.19745 0.0
N73 N 0.65354 0.13219 0.20964 0.0
C74 C 0.46751 0.02367 0.1988 0.0
C75 C 0.40876 0.9821 0.21585 0.0
C76 C 0.53409 0.0647 0.21509 0.0
C77 C 0.54182 0.06544 0.24883 0.0
C78 C 0.48371 0.0257 0.26628 0.0
C79 C 0.41746 0.98415 0.24967 0.0
H80 H 0.52297 0.47957 0.50893 0.0
H81 H 0.48163 0.40031 0.60282 0.0
H82 H 0.54003 0.61477 0.5914 0.0
N83 N 0.55064 0.60834 0.52746 0.0
N84 N 0.59044 0.67071 0.53829 0.0
C85 C 0.5174 0.48674 0.53438 0.0
C86 C 0.501 0.43196 0.55436 0.0
C87 C 0.53236 0.5529 0.5477 0.0
C88 C 0.52867 0.56368 0.58103 0.0
C89 C 0.50898 0.50837 0.6009 0.0
C90 C 0.49445 0.44255 0.58731 0.0
H91 H -0.01743 0.5173 0.83738 0.0
H92 H 0.90952 0.56317 0.92455 0.0
H93 H 0.06154 0.4974 0.93008 0.0
N94 N 0.07251 0.48754 0.86599 0.0
N95 N 0.10751 0.46726 0.88147 0.0
C96 C -0.01665 0.52105 0.86349 0.0
C97 C 0.94115 0.54251 0.87881 0.0
C98 C 0.02701 0.50487 0.88178 0.0
C99 C 0.02794 0.50985 0.91569 0.0
C100 C -0.01408 0.53102 0.93127 0.0
C101 C 0.9426 0.5473 0.91267 0.0
H102 H 0.06491 0.60711 0.48238 0.0
H103 H 0.12312 0.70657 0.39325 0.0
H104 H 0.96867 0.48742 0.39149 0.0
N105 N 0.97474 0.47926 0.45552 0.0
N106 N 0.94943 0.41943 0.44119 0.0
C107 C 0.05908 0.6049 0.45629 0.0
C108 C 0.09943 0.66554 0.44007 0.0
C109 C 0.01302 0.54041 0.43887 0.0
C110 C 0.00521 0.53697 0.40505 0.0
C111 C 0.04373 0.59706 0.38856 0.0
C112 C 0.09055 0.66114 0.40618 0.0
H113 H 0.53126 0.08534 0.81273 0.0
H114 H 0.49911 0.13187 0.71581 0.0
H115 H 0.57209 -0.01089 0.73065 0.0
N116 N 0.56558 -0.00994 0.79467 0.0
N117 N 0.60265 0.96549 0.78586 0.0
C118 C 0.53157 0.07851 0.78682 0.0
C119 C 0.51444 0.1175 0.76617 0.0
C120 C 0.55191 0.03187 0.77412 0.0
C121 C 0.5557 0.02437 0.74066 0.0
C122 C 0.5382 0.06172 0.71991 0.0
C123 C 0.5157 0.10622 0.73259 0.0
H124 H 0.54713 0.55916 0.14826 0.0
H125 H 0.67689 0.59992 0.06838 0.0
H126 H 0.46321 0.54815 0.05169 0.0
N127 N 0.43077 0.53493 0.11036 0.0
N128 N 0.41303 0.52847 0.13857 0.0
C129 C 0.55405 0.56453 0.12274 0.0
C130 C 0.61933 0.58298 0.11093 0.0
C131 C 0.49798 0.55278 0.10104 0.0
C132 C 0.50727 0.5586 0.06819 0.0
C133 C 0.57128 0.57538 0.05621 0.0
C134 C 0.62737 0.58788 0.07766 0.0
C135 C 0.2621 0.5156 0.1806 0.0
C136 C 0.21551 0.50522 0.15405 0.0
H137 H 0.36367 0.53184 0.19606 0.0
C138 C 0.23107 0.49328 0.12294 0.0
H139 H 0.25111 0.52534 0.20483 0.0
C140 C 0.29408 0.49627 0.11805 0.0
C141 C 0.34386 0.51266 0.1442 0.0
H142 H 0.19565 0.48463 0.10215 0.0
H143 H 0.30511 0.48916 0.09348 0.0
C144 C 0.32628 0.51958 0.17563 0.0
C145 C 0.82962 0.29622 0.49772 0.0
C146 C 0.79891 0.23223 0.47817 0.0
H147 H 0.9025 0.40732 0.50136 0.0
C148 C 0.82662 0.23046 0.44859 0.0
H149 H 0.8099 0.29945 0.52074 0.0
C150 C 0.87954 0.29239 0.43758 0.0
C151 C 0.90589 0.35684 0.45588 0.0
H152 H 0.80458 0.18214 0.43298 0.0
H153 H 0.8973 0.29072 0.41387 0.0
C154 C 0.88263 0.35815 0.48665 0.0
C155 C 0.65217 0.8325 0.80073 0.0
C156 C 0.60328 0.79172 0.82234 0.0
H157 H 0.6897 0.92134 0.77248 0.0
C158 C 0.56188 0.81659 0.83598 0.0
H159 H 0.68528 0.81535 0.78996 0.0
C160 C 0.56506 0.87767 0.82605 0.0
C161 C 0.60989 0.91475 0.80239 0.0
H162 H 0.52406 0.78676 0.85289 0.0
H163 H 0.52936 0.89307 0.83527 0.0
C164 C 0.65512 0.89331 0.79082 0.0
C165 C 0.7333 0.52993 0.15515 0.0
C166 C 0.79957 0.59052 0.15441 0.0
H167 H 0.62288 0.48124 0.14286 0.0
C168 C 0.80428 0.6529 0.14517 0.0
H169 H 0.72866 0.48123 0.16219 0.0
C170 C 0.74384 0.65247 0.13359 0.0
C171 C 0.67816 0.59019 0.13196 0.0
H172 H 0.85493 0.69995 0.14415 0.0
H173 H 0.74888 0.69922 0.12379 0.0
C174 C 0.67287 0.52998 0.14432 0.0
C175 C 0.26398 0.78694 0.49329 0.0
C176 C 0.28418 0.85235 0.4812 0.0
H177 H 0.19012 0.67665 0.48961 0.0
C178 C 0.23721 0.85762 0.45937 0.0
H179 H 0.29854 0.78101 0.51038 0.0
C180 C 0.17415 0.79752 0.44777 0.0
C181 C 0.15708 0.73102 0.45765 0.0
H182 H 0.25071 0.90736 0.44989 0.0
H183 H 0.14036 0.8026 0.42988 0.0
C184 C 0.20128 0.72692 0.48156 0.0
C185 C 0.50065 0.28253 0.77242 0.0
C186 C 0.47526 0.28072 0.80277 0.0
H187 H 0.53829 0.23753 0.73854 0.0
C188 C 0.46108 0.22434 0.82133 0.0
H189 H 0.51432 0.32678 0.75813 0.0
C190 C 0.47133 0.16982 0.80925 0.0
C191 C 0.49887 0.17251 0.77901 0.0
H192 H 0.44241 0.22264 0.84509 0.0
H193 H 0.45817 0.12622 0.8238 0.0
C194 C 0.51385 0.23036 0.76107 0.0
C195 C 0.65194 0.85465 0.52229 0.0
C196 C 0.60553 0.84552 0.49606 0.0
H197 H 0.68299 0.80355 0.55618 0.0
C198 C 0.56237 0.77829 0.48021 0.0
H199 H 0.68441 0.90604 0.53524 0.0
C200 C 0.56147 0.71982 0.49221 0.0
C201 C 0.60329 0.72841 0.52043 0.0
H202 H 0.52505 0.77025 0.4604 0.0
H203 H 0.524 0.66781 0.4811 0.0
C204 C 0.65083 0.7963 0.53435 0.0
C205 C 0.7834 0.5057 0.82559 0.0
C206 C 0.7774 0.56448 0.83459 0.0
H207 H 0.84189 0.45358 0.83225 0.0
C208 C 0.83146 0.62118 0.85411 0.0
H209 H 0.74135 0.46093 0.811 0.0
C210 C 0.88809 0.61634 0.86687 0.0
C211 C 0.89145 0.55515 0.85981 0.0
H212 H 0.82683 0.66625 0.8618 0.0
H213 H 0.927 0.65843 0.88376 0.0
C214 C 0.84059 0.50141 0.83782 0.0
C215 C 0.27188 0.83256 0.15845 0.0
C216 C 0.2101 0.81474 0.17355 0.0
H217 H 0.38307 0.89892 0.16013 0.0
C218 C 0.21283 0.85991 0.19939 0.0
H219 H 0.27173 0.79937 0.13829 0.0
C220 C 0.27697 0.91773 0.21175 0.0
C221 C 0.33965 0.9314 0.19858 0.0
H222 H 0.16619 0.84827 0.21139 0.0
H223 H 0.2779 0.94968 0.23263 0.0
C224 C 0.33594 0.89009 0.17088 0.0
C225 C 0.54419 0.2876 0.54998 0.0
C226 C 0.50918 0.2491 0.5205 0.0
H227 H 0.5695 0.37509 0.58321 0.0
C228 C 0.46918 0.27006 0.50209 0.0
H229 H 0.57529 0.27301 0.56494 0.0
C230 C 0.46566 0.32951 0.5129 0.0
C231 C 0.50118 0.36771 0.54241 0.0
H232 H 0.44181 0.24145 0.47925 0.0
H233 H 0.43524 0.34549 0.49833 0.0
C234 C 0.54034 0.34597 0.56071 0.0
C235 C 0.23274 0.46699 0.82427 0.0
C236 C 0.27937 0.46149 0.84614 0.0
H237 H 0.13963 0.47375 0.81846 0.0
C238 C 0.26275 0.44816 0.87811 0.0
H239 H 0.24531 0.4781 0.79959 0.0
C240 C 0.20244 0.44469 0.88869 0.0
C241 C 0.15886 0.45615 0.86777 0.0
H242 H 0.29839 0.44412 0.89534 0.0
H243 H 0.19227 0.43797 0.91388 0.0
C244 C 0.17277 0.4649 0.8351 0.0
C245 C 0.83805 0.26356 0.19893 0.0
C246 C 0.83108 0.2952 0.17161 0.0
H247 H 0.78501 0.18577 0.23227 0.0
C248 C 0.76523 0.26449 0.15406 0.0
H249 H 0.88793 0.28548 0.21295 0.0
C250 C 0.70655 0.20746 0.16524 0.0
C251 C 0.71296 0.18007 0.19411 0.0
H252 H 0.75798 0.28717 0.1328 0.0
H253 H 0.65583 0.18761 0.15233 0.0
C254 C 0.77935 0.20661 0.21005 0.0
C255 C 0.92845 0.50822 0.01658 0.0
C256 C -0.00669 0.54237 0.03503 0.0
H257 H 0.87528 0.47826 0.96912 0.0
C258 C 0.05531 0.57422 0.01902 0.0
H259 H 0.87977 0.48338 0.02817 0.0
C260 C 0.05265 0.57097 0.9854 0.0
C261 C -0.01202 0.53636 0.96697 0.0
H262 H 0.10621 0.60104 0.03243 0.0
H263 H 0.10132 0.59573 0.97378 0.0
C264 C 0.92583 0.50561 0.98283 0.0
C265 C 0.55637 0.02312 0.34993 0.0
C266 C 0.51085 0.03178 0.36967 0.0
H267 H 0.58324 0.01418 0.3018 0.0
C268 C 0.45577 0.03759 0.35508 0.0
H269 H 0.59934 0.01846 0.36036 0.0
C270 C 0.44651 0.03489 0.3215 0.0
C271 C 0.4925 0.027 0.30186 0.0
H272 H 0.41966 0.04413 0.36957 0.0
H273 H 0.40402 0.04011 0.3109 0.0
C274 C 0.54744 0.02104 0.3164 0.0
C275 C 0.56916 0.58178 0.68795 0.0
C276 C 0.51358 0.53163 0.70427 0.0
H277 H 0.61079 0.61407 0.64227 0.0
C278 C 0.45413 0.4771 0.6861 0.0
H279 H 0.61553 0.62462 0.70122 0.0
C280 C 0.45169 0.47099 0.65245 0.0
C281 C 0.50819 0.51973 0.63623 0.0
H282 H 0.41031 0.43762 0.69786 0.0
H283 H 0.4061 0.42732 0.63908 0.0
C284 C 0.5663 0.57608 0.65422 0.0
C285 C 0.52121 0.98579 0.63415 0.0
C286 C 0.55847 0.04728 0.61814 0.0
H287 H 0.48581 0.94226 0.67919 0.0
C288 C 0.5905 0.11317 0.63604 0.0
H289 H 0.49601 0.93429 0.62098 0.0
C290 C 0.58372 0.1176 0.6691 0.0
C291 C 0.54568 0.05625 0.68497 0.0
H292 H 0.61923 0.16153 0.62439 0.0
H293 H 0.60825 0.16904 0.68232 0.0
C294 C 0.51536 -0.00975 0.66738 0.0
C295 C 0.54991 0.60719 0.96958 0.0
C296 C 0.56736 0.56152 0.9531 0.0
H297 H 0.53836 0.64776 0.01527 0.0
C298 C 0.59274 0.52554 0.97103 0.0
H299 H 0.53062 0.63611 0.95659 0.0
C300 C 0.59786 0.53304 0.00479 0.0
C301 C 0.57704 0.57604 0.02103 0.0
H302 H 0.6071 0.49041 0.95903 0.0
H303 H 0.61499 0.50281 0.01815 0.0
C304 C 0.55439 0.61407 0.00318 0.0
C305 C 0.02751 0.63677 0.30208 0.0
C306 C 0.02898 0.58111 0.28478 0.0
H307 H 0.03101 0.68544 0.34864 0.0
C308 C 0.03504 0.53091 0.30192 0.0
H309 H 0.02301 0.67637 0.28959 0.0
C310 C 0.03945 0.5361 0.33554 0.0
C311 C 0.03818 0.59173 0.35284 0.0
H312 H 0.03637 0.48736 0.2894 0.0
H313 H 0.04487 0.49701 0.34804 0.0
C314 C 0.03241 0.6422 0.33583 0.0
loop_
_geom_bond_atom_site_label_1
_geom_bond_atom_site_label_2
_geom_bond_distance
_geom_bond_site_symmetry_2
_ccdc_geom_bond_type
O0 Zn1 1.953 . S
O0 C16 1.225 . S
Zn1 O0 1.953 . S
Zn1 O2 1.949 . S
Zn1 O8 1.919 1_455 S
Zn1 O13 1.924 . S
O2 Zn1 1.949 . S
O2 Zn3 1.923 1_455 S
O2 Zn4 1.950 . S
O2 Zn5 1.945 . S
Zn3 O2 1.923 1_655 S
Zn3 O6 1.933 . S
Zn3 O9 1.941 . S
Zn3 O10 1.965 . S
Zn4 O2 1.950 . S
Zn4 O11 1.938 1_455 S
Zn4 O12 1.906 . S
Zn4 O22 1.953 . S
Zn5 O2 1.945 . S
Zn5 O7 1.932 . S
Zn5 O14 1.977 . S
Zn5 O15 1.910 . S
O6 Zn3 1.933 . S
O6 C17 1.226 1_655 S
O7 Zn5 1.932 . S
O7 C17 1.307 . S
O8 Zn1 1.919 1_655 S
O8 C19 1.253 . S
O9 Zn3 1.941 . S
O9 C19 1.283 . S
O10 Zn3 1.965 . S
O10 C18 1.303 . S
O11 Zn4 1.938 1_655 S
O11 C18 1.247 . S
O12 Zn4 1.906 . S
O12 C20 1.304 . S
O13 Zn1 1.924 . S
O13 C21 1.311 . S
O14 Zn5 1.977 . S
O14 C20 1.272 . S
O15 Zn5 1.910 . S
O15 C21 1.231 . S
C16 O0 1.225 . S
C16 O22 1.298 . S
C17 O6 1.226 1_455 S
C17 O7 1.307 . S
C18 O10 1.303 . S
C18 O11 1.247 . S
C19 O8 1.253 . S
C19 O9 1.283 . S
C20 O12 1.304 . S
C20 O14 1.272 . S
C21 O13 1.311 . S
C21 O15 1.231 . S
O22 Zn4 1.953 . S
O22 C16 1.298 . S
O23 Zn24 1.953 . S
O23 C39 1.225 . S
Zn24 O23 1.953 . S
Zn24 O25 1.949 . S
Zn24 O31 1.919 . S
Zn24 O36 1.924 1_545 S
O25 Zn24 1.949 . S
O25 Zn26 1.923 . S
O25 Zn27 1.950 . S
O25 Zn28 1.945 1_545 S
Zn26 O25 1.923 . S
Zn26 O29 1.933 . S
Zn26 O32 1.941 . S
Zn26 O33 1.965 . S
Zn27 O25 1.950 . S
Zn27 O34 1.938 . S
Zn27 O35 1.906 1_545 S
Zn27 O45 1.953 . S
Zn28 O25 1.945 1_565 S
Zn28 O30 1.932 1_565 S
Zn28 O37 1.977 . S
Zn28 O38 1.910 . S
O29 Zn26 1.933 . S
O29 C40 1.226 . S
O30 Zn28 1.932 1_545 S
O30 C40 1.307 . S
O31 Zn24 1.919 . S
O31 C42 1.253 . S
O32 Zn26 1.941 . S
O32 C42 1.283 . S
O33 Zn26 1.965 . S
O33 C41 1.303 . S
O34 Zn27 1.938 . S
O34 C41 1.247 . S
O35 Zn27 1.906 1_565 S
O35 C43 1.304 . S
O36 Zn24 1.924 1_565 S
O36 C44 1.311 . S
O37 Zn28 1.977 . S
O37 C43 1.272 . S
O38 Zn28 1.910 . S
O38 C44 1.231 . S
C39 O23 1.225 . S
C39 O45 1.298 . S
C40 O29 1.226 . S
C40 O30 1.307 . S
C41 O33 1.303 . S
C41 O34 1.247 . S
C42 O31 1.253 . S
C42 O32 1.283 . S
C43 O35 1.304 . S
C43 O37 1.272 . S
C44 O36 1.311 . S
C44 O38 1.231 . S
O45 Zn27 1.953 . S
O45 C39 1.298 . S
O46 Zn47 1.953 . S
O46 C62 1.225 . S
Zn47 O46 1.953 . S
Zn47 O48 1.949 . S
Zn47 O54 1.919 . S
Zn47 O59 1.924 . S
O48 Zn47 1.949 . S
O48 Zn49 1.923 . S
O48 Zn50 1.950 . S
O48 Zn51 1.945 . S
Zn49 O48 1.923 . S
Zn49 O52 1.933 . S
Zn49 O55 1.941 . S
Zn49 O56 1.965 . S
Zn50 O48 1.950 . S
Zn50 O57 1.938 . S
Zn50 O58 1.906 . S
Zn50 O68 1.953 . S
Zn51 O48 1.945 . S
Zn51 O53 1.932 . S
Zn51 O60 1.977 . S
Zn51 O61 1.910 . S
O52 Zn49 1.933 . S
O52 C63 1.226 . S
O53 Zn51 1.932 . S
O53 C63 1.307 . S
O54 Zn47 1.919 . S
O54 C65 1.253 . S
O55 Zn49 1.941 . S
O55 C65 1.283 . S
O56 Zn49 1.965 . S
O56 C64 1.303 . S
O57 Zn50 1.938 . S
O57 C64 1.247 . S
O58 Zn50 1.906 . S
O58 C66 1.304 . S
O59 Zn47 1.924 . S
O59 C67 1.311 . S
O60 Zn51 1.977 . S
O60 C66 1.272 . S
O61 Zn51 1.910 . S
O61 C67 1.231 . S
C62 O46 1.225 . S
C62 O68 1.298 . S
C63 O52 1.226 . S
C63 O53 1.307 . S
C64 O56 1.303 . S
C64 O57 1.247 . S
C65 O54 1.253 . S
C65 O55 1.283 . S
C66 O58 1.304 . S
C66 O60 1.272 . S
C67 O59 1.311 . S
C67 O61 1.231 . S
O68 Zn50 1.953 . S
O68 C62 1.298 . S
H69 C74 0.929 . S
H70 C79 0.931 . S
H71 C77 0.930 . S
N72 N73 1.234 . S
N72 C76 1.453 . S
N73 N72 1.234 . S
C74 H69 0.929 . S
C74 C75 1.373 1_545 S
C74 C76 1.368 . S
C75 C74 1.373 1_565 S
C75 C79 1.397 . S
C76 N72 1.453 . S
C76 C74 1.368 . S
C76 C77 1.373 . S
C77 H71 0.930 . S
C77 C76 1.373 . S
C77 C78 1.371 . S
C78 C77 1.371 . S
C78 C79 1.383 1_545 S
C79 H70 0.931 . S
C79 C75 1.397 . S
C79 C78 1.383 1_565 S
H80 C85 0.929 . S
H81 C90 0.931 . S
H82 C88 0.930 . S
N83 N84 1.234 . S
N83 C87 1.453 . S
N84 N83 1.234 . S
C85 H80 0.929 . S
C85 C86 1.373 . S
C85 C87 1.368 . S
C86 C85 1.373 . S
C86 C90 1.397 . S
C87 N83 1.453 . S
C87 C85 1.368 . S
C87 C88 1.373 . S
C88 H82 0.930 . S
C88 C87 1.373 . S
C88 C89 1.371 . S
C89 C88 1.371 . S
C89 C90 1.383 . S
C90 H81 0.931 . S
C90 C86 1.397 . S
C90 C89 1.383 . S
H91 C96 0.929 . S
H92 C101 0.931 . S
H93 C99 0.930 . S
N94 N95 1.234 . S
N94 C98 1.453 . S
N95 N94 1.234 . S
C96 H91 0.929 . S
C96 C97 1.373 1_455 S
C96 C98 1.368 . S
C97 C96 1.373 1_655 S
C97 C101 1.397 . S
C98 N94 1.453 . S
C98 C96 1.368 . S
C98 C99 1.373 . S
C99 H93 0.930 . S
C99 C98 1.373 . S
C99 C100 1.371 . S
C100 C99 1.371 . S
C100 C101 1.383 1_455 S
C101 H92 0.931 . S
C101 C97 1.397 . S
C101 C100 1.383 1_655 S
H102 C107 0.929 . S
H103 C112 0.931 . S
H104 C110 0.930 1_655 S
N105 N106 1.234 . S
N105 C109 1.453 1_655 S
N106 N105 1.234 . S
C107 H102 0.929 . S
C107 C108 1.373 . S
C107 C109 1.368 . S
C108 C107 1.373 . S
C108 C112 1.397 . S
C109 N105 1.453 1_455 S
C109 C107 1.368 . S
C109 C110 1.373 . S
C110 H104 0.930 1_455 S
C110 C109 1.373 . S
C110 C111 1.371 . S
C111 C110 1.371 . S
C111 C112 1.383 . S
C112 H103 0.931 . S
C112 C108 1.397 . S
C112 C111 1.383 . S
H113 C118 0.929 . S
H114 C123 0.931 . S
H115 C121 0.930 1_565 S
N116 N117 1.234 . S
N116 C120 1.453 1_565 S
N117 N116 1.234 . S
C118 H113 0.929 . S
C118 C119 1.373 . S
C118 C120 1.368 . S
C119 C118 1.373 . S
C119 C123 1.397 . S
C120 N116 1.453 1_545 S
C120 C118 1.368 . S
C120 C121 1.373 . S
C121 H115 0.930 1_545 S
C121 C120 1.373 . S
C121 C122 1.371 . S
C122 C121 1.371 . S
C122 C123 1.383 . S
C123 H114 0.931 . S
C123 C119 1.397 . S
C123 C122 1.383 . S
H124 C129 0.929 . S
H125 C134 0.931 . S
H126 C132 0.930 . S
N127 N128 1.234 . S
N127 C131 1.453 . S
N128 N127 1.234 . S
C129 H124 0.929 . S
C129 C130 1.373 . S
C129 C131 1.368 . S
C130 C129 1.373 . S
C130 C134 1.397 . S
C131 N127 1.453 . S
C131 C129 1.368 . S
C131 C132 1.373 . S
C132 H126 0.930 . S
C132 C131 1.373 . S
C132 C133 1.371 . S
C133 C132 1.371 . S
C133 C134 1.383 . S
C134 H125 0.931 . S
C134 C130 1.397 . S
C134 C133 1.383 . S
C135 C136 1.387 . S
C135 H139 0.950 . S
C135 C144 1.390 . S
C136 C135 1.387 . S
C136 C138 1.387 . S
H137 C144 0.950 . S
C138 C136 1.387 . S
C138 C140 1.390 . S
C138 H142 0.950 . S
H139 C135 0.950 . S
C140 C138 1.390 . S
C140 C141 1.387 . S
C140 H143 0.950 . S
C141 C140 1.387 . S
C141 C144 1.387 . S
H142 C138 0.950 . S
H143 C140 0.950 . S
C144 C135 1.390 . S
C144 H137 0.950 . S
C144 C141 1.387 . S
C145 C146 1.387 . S
C145 H149 0.950 . S
C145 C154 1.390 . S
C146 C145 1.387 . S
C146 C148 1.387 . S
H147 C154 0.950 . S
C148 C146 1.387 . S
C148 C150 1.390 . S
C148 H152 0.950 . S
H149 C145 0.950 . S
C150 C148 1.390 . S
C150 C151 1.387 . S
C150 H153 0.950 . S
C151 C150 1.387 . S
C151 C154 1.387 . S
H152 C148 0.950 . S
H153 C150 0.950 . S
C154 C145 1.390 . S
C154 H147 0.950 . S
C154 C151 1.387 . S
C155 C156 1.387 . S
C155 H159 0.950 . S
C155 C164 1.390 . S
C156 C155 1.387 . S
C156 C158 1.387 . S
H157 C164 0.950 . S
C158 C156 1.387 . S
C158 C160 1.390 . S
C158 H162 0.950 . S
H159 C155 0.950 . S
C160 C158 1.390 . S
C160 C161 1.387 . S
C160 H163 0.950 . S
C161 C160 1.387 . S
C161 C164 1.387 . S
H162 C158 0.950 . S
H163 C160 0.950 . S
C164 C155 1.390 . S
C164 H157 0.950 . S
C164 C161 1.387 . S
C165 C166 1.387 . S
C165 H169 0.950 . S
C165 C174 1.390 . S
C166 C165 1.387 . S
C166 C168 1.387 . S
H167 C174 0.950 . S
C168 C166 1.387 . S
C168 C170 1.390 . S
C168 H172 0.950 . S
H169 C165 0.950 . S
C170 C168 1.390 . S
C170 C171 1.387 . S
C170 H173 0.950 . S
C171 C170 1.387 . S
C171 C174 1.387 . S
H172 C168 0.950 . S
H173 C170 0.950 . S
C174 C165 1.390 . S
C174 H167 0.950 . S
C174 C171 1.387 . S
C175 C176 1.387 . S
C175 H179 0.950 . S
C175 C184 1.390 . S
C176 C175 1.387 . S
C176 C178 1.387 . S
H177 C184 0.950 . S
C178 C176 1.387 . S
C178 C180 1.390 . S
C178 H182 0.950 . S
H179 C175 0.950 . S
C180 C178 1.390 . S
C180 C181 1.387 . S
C180 H183 0.950 . S
C181 C180 1.387 . S
C181 C184 1.387 . S
H182 C178 0.950 . S
H183 C180 0.950 . S
C184 C175 1.390 . S
C184 H177 0.950 . S
C184 C181 1.387 . S
C185 C186 1.387 . S
C185 H189 0.950 . S
C185 C194 1.390 . S
C186 C185 1.387 . S
C186 C188 1.387 . S
H187 C194 0.950 . S
C188 C186 1.387 . S
C188 C190 1.390 . S
C188 H192 0.950 . S
H189 C185 0.950 . S
C190 C188 1.390 . S
C190 C191 1.387 . S
C190 H193 0.950 . S
C191 C190 1.387 . S
C191 C194 1.387 . S
H192 C188 0.950 . S
H193 C190 0.950 . S
C194 C185 1.390 . S
C194 H187 0.950 . S
C194 C191 1.387 . S
C195 C196 1.387 . S
C195 H199 0.950 . S
C195 C204 1.390 . S
C196 C195 1.387 . S
C196 C198 1.387 . S
H197 C204 0.950 . S
C198 C196 1.387 . S
C198 C200 1.390 . S
C198 H202 0.950 . S
H199 C195 0.950 . S
C200 C198 1.390 . S
C200 C201 1.387 . S
C200 H203 0.950 . S
C201 C200 1.387 . S
C201 C204 1.387 . S
H202 C198 0.950 . S
H203 C200 0.950 . S
C204 C195 1.390 . S
C204 H197 0.950 . S
C204 C201 1.387 . S
C205 C206 1.387 . S
C205 H209 0.950 . S
C205 C214 1.390 . S
C206 C205 1.387 . S
C206 C208 1.387 . S
H207 C214 0.950 . S
C208 C206 1.387 . S
C208 C210 1.390 . S
C208 H212 0.950 . S
H209 C205 0.950 . S
C210 C208 1.390 . S
C210 C211 1.387 . S
C210 H213 0.950 . S
C211 C210 1.387 . S
C211 C214 1.387 . S
H212 C208 0.950 . S
H213 C210 0.950 . S
C214 C205 1.390 . S
C214 H207 0.950 . S
C214 C211 1.387 . S
C215 C216 1.387 . S
C215 H219 0.950 . S
C215 C224 1.390 . S
C216 C215 1.387 . S
C216 C218 1.387 . S
H217 C224 0.950 . S
C218 C216 1.387 . S
C218 C220 1.390 . S
C218 H222 0.950 . S
H219 C215 0.950 . S
C220 C218 1.390 . S
C220 C221 1.387 . S
C220 H223 0.950 . S
C221 C220 1.387 . S
C221 C224 1.387 . S
H222 C218 0.950 . S
H223 C220 0.950 . S
C224 C215 1.390 . S
C224 H217 0.950 . S
C224 C221 1.387 . S
C225 C226 1.387 . S
C225 H229 0.950 . S
C225 C234 1.390 . S
C226 C225 1.387 . S
C226 C228 1.387 . S
H227 C234 0.950 . S
C228 C226 1.387 . S
C228 C230 1.390 . S
C228 H232 0.950 . S
H229 C225 0.950 . S
C230 C228 1.390 . S
C230 C231 1.387 . S
C230 H233 0.950 . S
C231 C230 1.387 . S
C231 C234 1.387 . S
H232 C228 0.950 . S
H233 C230 0.950 . S
C234 C225 1.390 . S
C234 H227 0.950 . S
C234 C231 1.387 . S
C235 C236 1.387 . S
C235 H239 0.950 . S
C235 C244 1.390 . S
C236 C235 1.387 . S
C236 C238 1.387 . S
H237 C244 0.950 . S
C238 C236 1.387 . S
C238 C240 1.390 . S
C238 H242 0.950 . S
H239 C235 0.950 . S
C240 C238 1.390 . S
C240 C241 1.387 . S
C240 H243 0.950 . S
C241 C240 1.387 . S
C241 C244 1.387 . S
H242 C238 0.950 . S
H243 C240 0.950 . S
C244 C235 1.390 . S
C244 H237 0.950 . S
C244 C241 1.387 . S
C245 C246 1.387 . S
C245 H249 0.950 . S
C245 C254 1.390 . S
C246 C245 1.387 . S
C246 C248 1.387 . S
H247 C254 0.950 . S
C248 C246 1.387 . S
C248 C250 1.390 . S
C248 H252 0.950 . S
H249 C245 0.950 . S
C250 C248 1.390 . S
C250 C251 1.387 . S
C250 H253 0.950 . S
C251 C250 1.387 . S
C251 C254 1.387 . S
H252 C248 0.950 . S
H253 C250 0.950 . S
C254 C245 1.390 . S
C254 H247 0.950 . S
C254 C251 1.387 . S
C255 C256 1.387 . S
C255 H259 0.950 . S
C255 C264 1.390 1_554 S
C256 C255 1.387 . S
C256 C258 1.387 . S
H257 C264 0.950 . S
C258 C256 1.387 . S
C258 C260 1.390 1_554 S
C258 H262 0.950 . S
H259 C255 0.950 . S
C260 C258 1.390 1_556 S
C260 C261 1.387 . S
C260 H263 0.950 . S
C261 C260 1.387 . S
C261 C264 1.387 . S
H262 C258 0.950 . S
H263 C260 0.950 . S
C264 C255 1.390 1_556 S
C264 H257 0.950 . S
C264 C261 1.387 . S
C265 C266 1.387 1_565 S
C265 H269 0.950 . S
C265 C274 1.390 . S
C266 C265 1.387 1_545 S
C266 C268 1.387 . S
H267 C274 0.950 . S
C268 C266 1.387 . S
C268 C270 1.390 . S
C268 H272 0.950 . S
H269 C265 0.950 . S
C270 C268 1.390 . S
C270 C271 1.387 . S
C270 H273 0.950 . S
C271 C270 1.387 . S
C271 C274 1.387 1_545 S
H272 C268 0.950 . S
H273 C270 0.950 . S
C274 C265 1.390 . S
C274 H267 0.950 . S
C274 C271 1.387 1_565 S
C275 C276 1.387 . S
C275 H279 0.950 . S
C275 C284 1.390 . S
C276 C275 1.387 . S
C276 C278 1.387 . S
H277 C284 0.950 . S
C278 C276 1.387 . S
C278 C280 1.390 . S
C278 H282 0.950 . S
H279 C275 0.950 . S
C280 C278 1.390 . S
C280 C281 1.387 . S
C280 H283 0.950 . S
C281 C280 1.387 . S
C281 C284 1.387 . S
H282 C278 0.950 . S
H283 C280 0.950 . S
C284 C275 1.390 . S
C284 H277 0.950 . S
C284 C281 1.387 . S
C285 C286 1.387 1_565 S
C285 H289 0.950 . S
C285 C294 1.390 . S
C286 C285 1.387 1_545 S
C286 C288 1.387 . S
H287 C294 0.950 . S
C288 C286 1.387 . S
C288 C290 1.390 . S
C288 H292 0.950 . S
H289 C285 0.950 . S
C290 C288 1.390 . S
C290 C291 1.387 . S
C290 H293 0.950 . S
C291 C290 1.387 . S
C291 C294 1.387 1_545 S
H292 C288 0.950 . S
H293 C290 0.950 . S
C294 C285 1.390 . S
C294 H287 0.950 . S
C294 C291 1.387 1_565 S
C295 C296 1.387 . S
C295 H299 0.950 . S
C295 C304 1.390 1_556 S
C296 C295 1.387 . S
C296 C298 1.387 . S
H297 C304 0.950 . S
C298 C296 1.387 . S
C298 C300 1.390 1_556 S
C298 H302 0.950 . S
H299 C295 0.950 . S
C300 C298 1.390 1_554 S
C300 C301 1.387 . S
C300 H303 0.950 . S
C301 C300 1.387 . S
C301 C304 1.387 . S
H302 C298 0.950 . S
H303 C300 0.950 . S
C304 C295 1.390 1_554 S
C304 H297 0.950 . S
C304 C301 1.387 . S
C305 C306 1.387 . S
C305 H309 0.950 . S
C305 C314 1.390 . S
C306 C305 1.387 . S
C306 C308 1.386 1_455 S
H307 C314 0.950 . S
C308 C306 1.386 1_655 S
C308 C310 1.390 . S
C308 H312 0.951 . S
H309 C305 0.950 . S
C310 C308 1.390 . S
C310 C311 1.387 1_655 S
C310 H313 0.950 . S
C311 C310 1.387 1_455 S
C311 C314 1.387 . S
H312 C308 0.951 . S
H313 C310 0.950 . S
C314 C305 1.390 . S
C314 H307 0.950 . S
C314 C311 1.387 . S
C136 C20 1.350 . S
C141 N128 1.368 . S
C146 C41 1.400 . S
C151 N106 1.377 . S
C156 C64 1.435 . S
C161 N117 1.413 . S
C166 C19 1.365 . S
C171 C130 1.469 . S
C181 C108 1.428 . S
C176 C44 1.405 . S
C191 C119 1.373 . S
C186 C67 1.360 . S
C196 C43 1.347 . S
C201 N84 1.368 . S
C206 C66 1.290 . S
C211 C97 1.359 . S
C216 C21 1.401 . S
C221 C75 1.426 . S
C231 C86 1.451 . S
C226 C42 1.355 . S
C241 N95 1.411 . S
C236 C65 1.364 . S
C246 C18 1.402 . S
C251 N73 1.378 . S
C261 C100 1.517 . S
C256 C17 1.518 . S
C266 C39 1.531 . S
C271 C78 1.524 . S
C276 C62 1.529 . S
C281 C89 1.521 . S
C291 C122 1.514 . S
C286 C40 1.512 . S
C301 C133 1.512 . S
C296 C63 1.520 . S
C306 C16 1.529 . S
C311 C111 1.521 . S
