# Generated by pormake.
# Topology anh, (6,3)-cn, num edge types: 1
# Building blocks:
#     Node 0, Type 0, BuildingBlock: PAMTOO_clean_sbu_0, # of connection points: 6
#     Node 1, Type 0, BuildingBlock: PAMTOO_clean_sbu_0, # of connection points: 6
#     Node 2, Type 0, BuildingBlock: PAMTOO_clean_sbu_0, # of connection points: 6
#     Node 3, Type 1, BuildingBlock: CUQRIR_clean_linker_1, # of connection points: 3
#     Node 4, Type 1, BuildingBlock: CUQRIR_clean_linker_1, # of connection points: 3
#     Node 5, Type 1, BuildingBlock: CUQRIR_clean_linker_1, # of connection points: 3
#     Node 6, Type 1, BuildingBlock: CUQRIR_clean_linker_1, # of connection points: 3
#     Node 7, Type 1, BuildingBlock: CUQRIR_clean_linker_1, # of connection points: 3
#     Node 8, Type 1, BuildingBlock: CUQRIR_clean_linker_1, # of connection points: 3
#     Edge 9, Type (0, 1), BuildingBlock: UVAHIK_clean_linker_0, # of connection points: 2
#     Edge 10, Type (0, 1), BuildingBlock: UVAHIK_clean_linker_0, # of connection points: 2
#     Edge 11, Type (0, 1), BuildingBlock: UVAHIK_clean_linker_0, # of connection points: 2
#     Edge 12, Type (0, 1), BuildingBlock: UVAHIK_clean_linker_0, # of connection points: 2
#     Edge 13, Type (0, 1), BuildingBlock: UVAHIK_clean_linker_0, # of connection points: 2
#     Edge 14, Type (0, 1), BuildingBlock: UVAHIK_clean_linker_0, # of connection points: 2
#     Edge 15, Type (0, 1), BuildingBlock: UVAHIK_clean_linker_0, # of connection points: 2
#     Edge 16, Type (0, 1), BuildingBlock: UVAHIK_clean_linker_0, # of connection points: 2
#     Edge 17, Type (0, 1), BuildingBlock: UVAHIK_clean_linker_0, # of connection points: 2
#     Edge 18, Type (0, 1), BuildingBlock: UVAHIK_clean_linker_0, # of connection points: 2
#     Edge 19, Type (0, 1), BuildingBlock: UVAHIK_clean_linker_0, # of connection points: 2
#     Edge 20, Type (0, 1), BuildingBlock: UVAHIK_clean_linker_0, # of connection points: 2
#     Edge 21, Type (0, 1), BuildingBlock: UVAHIK_clean_linker_0, # of connection points: 2
#     Edge 22, Type (0, 1), BuildingBlock: UVAHIK_clean_linker_0, # of connection points: 2
#     Edge 23, Type (0, 1), BuildingBlock: UVAHIK_clean_linker_0, # of connection points: 2
#     Edge 24, Type (0, 1), BuildingBlock: UVAHIK_clean_linker_0, # of connection points: 2
#     Edge 25, Type (0, 1), BuildingBlock: UVAHIK_clean_linker_0, # of connection points: 2
#     Edge 26, Type (0, 1), BuildingBlock: UVAHIK_clean_linker_0, # of connection points: 2
# Relax obj value: 0.170
# Max RMSD: 0.219
# Mean RMSD: 0.159
data_MOF--net-anh--node1-PAMTOO_clean_sbu_0--node2-CUQRIR_clean_linker_1--edge1-UVAHIK_clean_linker_0
_symmetry_space_group_name_H-M    P1
_symmetry_Int_Tables_number       1
_symmetry_cell_setting            triclinic
loop_
_symmetry_equiv_pos_as_xyz
'x, y, z'
_cell_length_a     36.714764
_cell_length_b     36.060148
_cell_length_c     61.276649
_cell_angle_alpha  83.811672
_cell_angle_beta   95.506638
_cell_angle_gamma 104.35465
loop_
_atom_site_label
_atom_site_type_symbol
_atom_site_fract_x
_atom_site_fract_y
_atom_site_fract_z
_atom_type_partial_charge
Dy0 Dy 1.0395 0.55202 0.14824 0.0
Dy1 Dy 1.0158 0.45917 0.14404 0.0
C2 C 1.02456 0.51845 0.10247 0.0
O3 O 0.9782 0.53499 0.15504 0.0
O4 O 0.96112 0.47769 0.13916 0.0
O5 O 1.05979 0.60884 0.13243 0.0
O6 O 1.0459 0.60164 0.16646 0.0
O7 O 1.00836 0.4688 0.17858 0.0
O8 O 1.05554 0.5232 0.18044 0.0
O9 O 0.07891 0.4725 0.1504 0.0
O10 O 0.09355 0.53792 0.14168 0.0
O11 O 1.01864 0.40163 0.15647 0.0
O12 O 0.98529 0.41104 0.12614 0.0
C13 C 0.95213 0.50636 0.14729 0.0
O14 O 1.01331 0.54069 0.11454 0.0
O15 O 1.03574 0.4883 0.11175 0.0
C16 C 0.0968 0.65269 0.15596 0.0
C17 C 0.16648 0.70535 0.16411 0.0
C18 C 0.13405 0.71839 0.15642 0.0
C19 C 0.09954 0.69225 0.15238 0.0
C20 C 0.12888 0.6394 0.16377 0.0
C21 C 0.16343 0.66551 0.16785 0.0
C22 C 1.06095 0.62558 0.15039 0.0
C23 C 1.03343 0.49295 0.19016 0.0
C24 C 0.10378 0.50523 0.1462 0.0
C25 C 0.96225 0.35505 0.14915 0.0
C26 C 0.90092 0.29612 0.16343 0.0
C27 C 0.91472 0.3286 0.17532 0.0
C28 C 0.94499 0.35792 0.16818 0.0
C29 C 0.94864 0.32272 0.13727 0.0
C30 C 0.91818 0.29353 0.1443 0.0
C31 C 0.99395 0.38578 0.14134 0.0
H32 H 0.13549 0.7488 0.15304 0.0
H33 H 0.07509 0.70293 0.14614 0.0
H34 H 0.12724 0.60885 0.16651 0.0
H35 H 0.18769 0.65449 0.17401 0.0
H36 H 0.9017 0.33165 0.18995 0.0
H37 H 0.95482 0.38288 0.17747 0.0
H38 H 0.96156 0.32008 0.12252 0.0
H39 H 0.90837 0.26872 0.13491 0.0
Dy40 Dy 0.59298 0.98987 0.51784 0.0
Dy41 Dy 0.6861 0.01182 0.52162 0.0
C42 C 0.63944 0.00154 0.56333 0.0
O43 O 0.60867 0.05317 0.50877 0.0
O44 O 0.67072 0.06783 0.52255 0.0
O45 O 0.54108 0.9669 0.5336 0.0
O46 O 0.53973 0.9884 0.49918 0.0
O47 O 0.6665 0.02497 0.48662 0.0
O48 O 0.61222 0.97776 0.48657 0.0
O49 O 0.66955 0.94841 0.51868 0.0
O50 O 0.6085 0.93436 0.52874 0.0
O51 O 0.73861 0.00982 0.50926 0.0
O52 O 0.73887 0.03833 0.5387 0.0
C53 C 0.63985 0.07823 0.51454 0.0
O54 O 0.61341 0.01301 0.55013 0.0
O55 O 0.66688 0.99103 0.55533 0.0
C56 C 0.49061 0.93618 0.51044 0.0
C57 C 0.43354 0.86981 0.50227 0.0
C58 C 0.42466 0.90232 0.50916 0.0
C59 C 0.45298 0.9352 0.51319 0.0
C60 C 0.49979 0.90396 0.50357 0.0
C61 C 0.47146 0.87104 0.49949 0.0
C62 C 0.52008 0.97045 0.51547 0.0
C63 C 0.63881 0.002 0.47593 0.0
C64 C 0.63874 0.92356 0.52483 0.0
C65 C 0.78686 0.06562 0.51492 0.0
C66 C 0.83985 0.13198 0.49944 0.0
C67 C 0.80448 0.12017 0.48789 0.0
C68 C 0.77817 0.08742 0.49562 0.0
C69 C 0.82206 0.07703 0.52642 0.0
C70 C 0.84832 0.10993 0.51879 0.0
C71 C 0.75892 0.03195 0.52368 0.0
H72 H 0.39587 0.90215 0.5118 0.0
H73 H 0.44552 0.95977 0.51867 0.0
H74 H 0.52884 0.90428 0.50145 0.0
H75 H 0.47923 0.84669 0.49397 0.0
H76 H 0.79714 0.1361 0.4728 0.0
H77 H 0.75096 0.07924 0.48659 0.0
H78 H 0.82907 0.06075 0.54148 0.0
H79 H 0.87495 0.11848 0.52834 0.0
Dy80 Dy 0.65257 0.53777 0.84107 0.0
Dy81 Dy 0.56061 0.51339 0.84028 0.0
C82 C 0.60101 0.52477 0.79581 0.0
O83 O 0.63544 0.59041 0.84783 0.0
O84 O 0.57645 0.57655 0.83029 0.0
O85 O 0.70361 0.58035 0.83433 0.0
O86 O 0.70649 0.52363 0.84912 0.0
O87 O 0.58222 0.53722 0.87232 0.0
O88 O 0.63846 0.5202 0.87603 0.0
O89 O 0.58017 0.45923 0.84883 0.0
O90 O 0.63573 0.47735 0.83222 0.0
O91 O 0.51147 0.47907 0.85564 0.0
O92 O 0.50512 0.51832 0.82697 0.0
C93 C 0.60589 0.60146 0.83825 0.0
O94 O 0.63128 0.54555 0.80583 0.0
O95 O 0.57299 0.50361 0.80679 0.0
C96 C 0.75159 0.55466 0.8241 0.0
C97 C 0.80525 0.55841 0.79359 0.0
C98 C 0.7673 0.55597 0.78632 0.0
C99 C 0.74058 0.55389 0.80151 0.0
C100 C 0.78898 0.55561 0.83144 0.0
C101 C 0.81559 0.55745 0.81636 0.0
C102 C 0.72496 0.55643 0.84008 0.0
C103 C 0.61098 0.52949 0.88468 0.0
C104 C 0.60861 0.45056 0.84082 0.0
C105 C 0.46545 0.51378 0.85541 0.0
C106 C 0.4217 0.54914 0.87787 0.0
C107 C 0.46084 0.55599 0.88279 0.0
C108 C 0.48251 0.53859 0.87159 0.0
C109 C 0.42644 0.50641 0.85059 0.0
C110 C 0.40468 0.52398 0.86172 0.0
C111 C 0.48867 0.49649 0.84335 0.0
H112 H 0.7585 0.55653 0.76893 0.0
H113 H 0.7116 0.55282 0.7956 0.0
H114 H 0.79789 0.55621 0.84881 0.0
H115 H 0.84468 0.56009 0.82253 0.0
H116 H 0.47475 0.57485 0.89527 0.0
H117 H 0.51268 0.54469 0.87549 0.0
H118 H 0.41292 0.4875 0.83805 0.0
H119 H 0.37468 0.51861 0.85728 0.0
C120 C 0.54537 0.99182 0.21103 0.0
N121 N 0.57034 0.01106 0.22613 0.0
N122 N 0.5135 0.97209 0.22046 0.0
C123 C 0.55091 0.99444 0.18687 0.0
C124 C 0.52 0.97999 0.24178 0.0
N125 N 0.55432 0.00398 0.24516 0.0
C126 C 0.49402 0.96201 0.25963 0.0
H127 H 0.52345 0.98871 0.17701 0.0
H128 H 0.56615 0.97265 0.18393 0.0
H129 H 0.56805 0.02322 0.1813 0.0
H130 H 0.51026 0.95789 0.27556 0.0
H131 H 0.47594 0.93384 0.25536 0.0
H132 H 0.47562 0.9814 0.26169 0.0
C133 C 0.6257 0.49503 0.53411 0.0
N134 N 0.61941 0.51746 0.54909 0.0
N135 N 0.61746 0.45759 0.54208 0.0
C136 C 0.63803 0.50921 0.5114 0.0
C137 C 0.60621 0.45801 0.56241 0.0
N138 N 0.60705 0.49428 0.5666 0.0
C139 C 0.59745 0.42334 0.57883 0.0
H140 H 0.62886 0.48608 0.50008 0.0
H141 H 0.66926 0.5185 0.51224 0.0
H142 H 0.62652 0.53419 0.50479 0.0
H143 H 0.61129 0.40083 0.57523 0.0
H144 H 0.56652 0.4112 0.57797 0.0
H145 H 0.60676 0.43131 0.59582 0.0
C146 C 0.12814 0.72441 0.85882 0.0
N147 N 0.13053 0.7119 0.88042 0.0
N148 N 0.09166 0.71939 0.85087 0.0
C149 C 0.16145 0.73785 0.84498 0.0
C150 C 0.07192 0.70371 0.86864 0.0
N151 N 0.09555 0.69875 0.8865 0.0
C152 C 1.02957 0.69048 0.868 0.0
H153 H 0.15344 0.75078 0.82852 0.0
H154 H 0.17349 0.71314 0.84304 0.0
H155 H 0.18368 0.75955 0.85332 0.0
H156 H 1.02009 0.66508 0.85831 0.0
H157 H 1.01649 0.71339 0.85984 0.0
H158 H 1.01924 0.68307 0.8847 0.0
C159 C 0.12366 0.50982 0.45373 0.0
N160 N 0.10061 0.48831 0.43879 0.0
N161 N 0.14158 0.54411 0.44392 0.0
C162 C 0.12689 0.49843 0.47804 0.0
C163 C 0.12862 0.54266 0.42251 0.0
N164 N 0.10342 0.50892 0.41945 0.0
C165 C 0.14307 0.5727 0.4043 0.0
H166 H 0.13523 0.52412 0.48752 0.0
H167 H 0.14878 0.48178 0.48158 0.0
H168 H 0.09982 0.48002 0.48354 0.0
H169 H 0.1427 0.55945 0.38873 0.0
H170 H 0.17222 0.58903 0.40867 0.0
H171 H 0.12455 0.59309 0.40149 0.0
C172 C 0.61499 0.02886 0.82655 0.0
N173 N 0.61281 0.00441 0.81085 0.0
N174 N 0.61288 0.06407 0.81716 0.0
C175 C 0.6181 0.01831 0.85092 0.0
C176 C 0.6093 0.06031 0.79532 0.0
N177 N 0.60891 0.02401 0.79147 0.0
C178 C 0.60748 0.09247 0.77772 0.0
H179 H 0.60737 0.038 0.85996 0.0
H180 H 0.64819 0.02068 0.85645 0.0
H181 H 0.60227 0.98824 0.85494 0.0
H182 H 0.6237 0.09039 0.76371 0.0
H183 H 0.61851 0.12105 0.78413 0.0
H184 H 0.57767 0.08997 0.77149 0.0
C185 C 0.52919 0.51039 0.14353 0.0
N186 N 0.5569 0.51479 0.12947 0.0
N187 N 0.49625 0.51423 0.13233 0.0
C188 C 0.53466 0.50454 0.16812 0.0
C189 C 0.50484 0.52081 0.11108 0.0
N190 N 0.54146 0.52146 0.10933 0.0
C191 C 0.47664 0.52433 0.09189 0.0
H192 H 0.53116 0.4734 0.17303 0.0
H193 H 0.51346 0.5147 0.17609 0.0
H194 H 0.56347 0.5198 0.17396 0.0
H195 H 0.47707 0.55514 0.0877 0.0
H196 H 0.4477 0.50889 0.09602 0.0
H197 H 0.48371 0.51268 0.07723 0.0
C198 C 0.15717 0.47138 0.15207 0.0
C199 C 0.14475 0.50542 0.14674 0.0
C200 C 0.19564 0.4717 0.15277 0.0
C201 C 0.29228 0.53791 0.15607 0.0
H202 H 0.32252 0.45281 0.13555 0.0
C203 C 0.44601 0.54692 0.13633 0.0
C204 C 0.46029 0.51393 0.14029 0.0
C205 C 0.40842 0.54537 0.13977 0.0
C206 C 0.31469 0.4766 0.14168 0.0
H207 H 0.16381 0.56666 0.13792 0.0
H208 H 0.23037 0.56712 0.13875 0.0
H209 H 0.25575 0.45115 0.13563 0.0
H210 H 0.44672 0.45355 0.15134 0.0
H211 H 0.38085 0.45056 0.15773 0.0
H212 H 0.35127 0.56362 0.16176 0.0
C213 C 0.2105 0.54011 0.14278 0.0
C214 C 0.27618 0.47568 0.14171 0.0
C215 C 0.17206 0.5398 0.14212 0.0
C216 C 0.4365 0.47949 0.14851 0.0
C217 C 0.39867 0.47778 0.15184 0.0
C218 C 0.33076 0.53888 0.15597 0.0
C219 C 0.22302 0.50607 0.14814 0.0
C220 C 0.26427 0.50647 0.14874 0.0
C221 C 0.38382 0.51057 0.1471 0.0
C222 C 0.34264 0.50838 0.14861 0.0
H223 H 0.13717 0.44433 0.15585 0.0
H224 H 0.20392 0.44493 0.15727 0.0
H225 H 0.28454 0.56187 0.16206 0.0
H226 H 0.46367 0.57362 0.12963 0.0
H227 H 0.3982 0.57114 0.13565 0.0
C228 C 0.90639 0.16921 0.4935 0.0
C229 C 0.86751 0.1675 0.49159 0.0
C230 C 0.93238 0.2029 0.48667 0.0
C231 C 0.94165 0.2929 0.45081 0.0
H232 H 1.02939 0.33048 0.49 0.0
C233 C 1.0368 0.44587 0.43737 0.0
C234 C 0.07553 0.45117 0.44298 0.0
C235 C 1.0121 0.41026 0.44224 0.0
C236 C 1.00541 0.32014 0.47866 0.0
H237 H 0.82569 0.20024 0.48102 0.0
H238 H 0.87104 0.25869 0.46875 0.0
H239 H 0.98518 0.27 0.50031 0.0
H240 H 0.11937 0.42379 0.45723 0.0
H241 H 0.07648 0.36103 0.46546 0.0
H242 H 0.9619 0.34279 0.42906 0.0
C243 C 0.88129 0.23379 0.47541 0.0
C244 C 0.98002 0.2855 0.48463 0.0
C245 C 0.85531 0.20022 0.4824 0.0
C246 C 0.08944 0.42022 0.45307 0.0
C247 C 0.06484 0.38448 0.45782 0.0
C248 C 0.96721 0.3274 0.44474 0.0
C249 C 0.92011 0.23557 0.4776 0.0
C250 C 0.94773 0.27166 0.47085 0.0
C251 C 1.02577 0.37914 0.45268 0.0
C252 C 0.99928 0.34163 0.45868 0.0
H253 H 0.91679 0.1444 0.50013 0.0
H254 H 0.96211 0.20329 0.48831 0.0
H255 H 0.91724 0.28268 0.43973 0.0
H256 H 1.02565 0.46963 0.4297 0.0
H257 H 0.9822 0.40746 0.43833 0.0
C258 C 0.63644 0.66986 0.84544 0.0
C259 C 0.60586 0.64282 0.83631 0.0
C260 C 0.63686 0.70897 0.84314 0.0
C261 C 0.59608 0.78062 0.80827 0.0
H262 H 0.63067 0.84324 0.85728 0.0
C263 C 0.58224 0.93723 0.8044 0.0
C264 C 0.6121 0.9641 0.81407 0.0
C265 C 0.58142 0.89806 0.80731 0.0
C266 C 0.62137 0.82629 0.84334 0.0
H267 H 0.55151 0.6358 0.81779 0.0
H268 H 0.55226 0.70399 0.81386 0.0
H269 H 0.62909 0.77483 0.86215 0.0
H270 H 0.66482 0.97172 0.83398 0.0
H271 H 0.6638 0.90315 0.83908 0.0
H272 H 0.58862 0.83201 0.78939 0.0
C273 C 0.57609 0.69495 0.82261 0.0
C274 C 0.62041 0.78704 0.84616 0.0
C275 C 0.57558 0.65581 0.82498 0.0
C276 C 0.64126 0.9513 0.82667 0.0
C277 C 0.64056 0.91211 0.82957 0.0
C278 C 0.59716 0.81986 0.80544 0.0
C279 C 0.6068 0.72202 0.83158 0.0
C280 C 0.60769 0.76373 0.82866 0.0
C281 C 0.6106 0.88497 0.81992 0.0
C282 C 0.60975 0.84321 0.82294 0.0
H283 H 0.66026 0.66091 0.85426 0.0
H284 H 0.66112 0.7291 0.85006 0.0
H285 H 0.58672 0.76361 0.79436 0.0
H286 H 0.55932 0.94661 0.79479 0.0
H287 H 0.55763 0.87801 0.79993 0.0
C288 C 0.88318 0.48 0.13605 0.0
C289 C 0.91137 0.50667 0.14729 0.0
C290 C 0.84502 0.48072 0.13563 0.0
C291 C 0.78216 0.54414 0.14567 0.0
H292 H 0.70422 0.44978 0.14247 0.0
C293 C 0.62463 0.5456 0.12597 0.0
C294 C 0.59645 0.51518 0.13467 0.0
C295 C 0.66273 0.54456 0.12892 0.0
C296 C 0.72546 0.47646 0.14364 0.0
H297 H 0.92085 0.55467 0.16731 0.0
H298 H 0.85461 0.55532 0.16711 0.0
H299 H 0.77017 0.44748 0.14542 0.0
H300 H 0.58637 0.46016 0.1538 0.0
H301 H 0.65302 0.45875 0.15983 0.0
H302 H 0.73753 0.573 0.14462 0.0
C303 C 0.86191 0.53433 0.15807 0.0
C304 C 0.7636 0.47521 0.14498 0.0
C305 C 0.90012 0.53381 0.15832 0.0
C306 C 0.60746 0.48415 0.14705 0.0
C307 C 0.64573 0.48318 0.15018 0.0
C308 C 0.74406 0.54535 0.1445 0.0
C309 C 0.83363 0.50793 0.14661 0.0
C310 C 0.79269 0.50907 0.14584 0.0
C311 C 0.67405 0.51319 0.14093 0.0
C312 C 0.71495 0.51159 0.14326 0.0
H313 H 0.89059 0.45874 0.12725 0.0
H314 H 0.82455 0.46026 0.12627 0.0
H315 H 0.80333 0.571 0.14604 0.0
H316 H 0.61702 0.57002 0.11648 0.0
H317 H 0.68318 0.56806 0.1212 0.0
C318 C 0.36828 0.83797 0.48766 0.0
C319 C 0.40332 0.83479 0.49811 0.0
C320 C 0.33967 0.80516 0.48396 0.0
C321 C 0.32327 0.70176 0.47828 0.0
H322 H 0.21992 0.7004 0.48757 0.0
C323 C 0.20184 0.56777 0.46522 0.0
C324 C 0.16905 0.57477 0.45363 0.0
C325 C 0.22998 0.59818 0.47303 0.0
C326 C 0.24859 0.70042 0.48475 0.0
H327 H 0.43554 0.79451 0.51308 0.0
H328 H 0.38562 0.73718 0.50642 0.0
H329 H 0.27028 0.75619 0.49628 0.0
H330 H 0.13901 0.61823 0.44165 0.0
H331 H 0.18829 0.67169 0.45491 0.0
H332 H 0.30158 0.64634 0.46635 0.0
C333 C 0.38048 0.76513 0.50092 0.0
C334 C 0.27743 0.73238 0.48974 0.0
C335 C 0.40909 0.79797 0.50469 0.0
C336 C 0.16425 0.61239 0.4505 0.0
C337 C 0.19232 0.64281 0.45825 0.0
C338 C 0.29441 0.66982 0.47323 0.0
C339 C 0.34542 0.76837 0.49056 0.0
C340 C 0.31504 0.73359 0.48633 0.0
C341 C 0.22576 0.63615 0.46936 0.0
C342 C 0.25667 0.66894 0.47618 0.0
H343 H 0.36309 0.86584 0.48203 0.0
H344 H 0.31321 0.80861 0.47558 0.0
H345 H 0.3519 0.70199 0.47523 0.0
H346 H 0.20608 0.5389 0.46766 0.0
H347 H 0.25518 0.59201 0.48175 0.0
C348 C 0.64405 0.40059 0.83769 0.0
C349 C 0.61039 0.40986 0.84156 0.0
C350 C 0.64595 0.36228 0.83829 0.0
C351 C 0.59588 0.26215 0.85665 0.0
H352 H 0.65404 0.2362 0.81351 0.0
C353 C 0.58189 0.10812 0.83171 0.0
C354 C 0.61503 0.09849 0.82742 0.0
C355 C 0.58304 0.1451 0.83717 0.0
C356 C 0.63815 0.24303 0.82589 0.0
H357 H 0.55227 0.38609 0.84916 0.0
H358 H 0.55519 0.31921 0.84951 0.0
H359 H 0.65201 0.30271 0.8149 0.0
H360 H 0.67527 0.11849 0.82601 0.0
H361 H 0.67769 0.18342 0.8357 0.0
H362 H 0.58101 0.20185 0.867 0.0
C363 C 0.58045 0.34152 0.84653 0.0
C364 C 0.63699 0.28125 0.82672 0.0
C365 C 0.57868 0.37991 0.84617 0.0
C366 C 0.64958 0.12552 0.82961 0.0
C367 C 0.6508 0.16257 0.8349 0.0
C368 C 0.59676 0.22376 0.85566 0.0
C369 C 0.61409 0.33219 0.8425 0.0
C370 C 0.61579 0.29138 0.84207 0.0
C371 C 0.61738 0.17308 0.8381 0.0
C372 C 0.61789 0.21383 0.84024 0.0
H373 H 0.66915 0.42295 0.83435 0.0
H374 H 0.67256 0.35631 0.83556 0.0
H375 H 0.57973 0.26889 0.86892 0.0
H376 H 0.55498 0.08761 0.82968 0.0
H377 H 0.55681 0.15243 0.83935 0.0
C378 C 0.66975 0.8689 0.52385 0.0
C379 C 0.63789 0.88191 0.52742 0.0
C380 C 0.66876 0.82961 0.52629 0.0
C381 C 0.61654 0.73674 0.55253 0.0
H382 H 0.66211 0.69246 0.51045 0.0
C383 C 0.59178 0.5728 0.55028 0.0
C384 C 0.62242 0.55831 0.5464 0.0
C385 C 0.59456 0.61237 0.54811 0.0
C386 C 0.64965 0.70442 0.52251 0.0
H387 H 0.57983 0.86347 0.53621 0.0
H388 H 0.57812 0.7952 0.54031 0.0
H389 H 0.66536 0.76125 0.50643 0.0
H390 H 0.68015 0.57342 0.53754 0.0
H391 H 0.68532 0.64289 0.53365 0.0
H392 H 0.60079 0.68 0.56861 0.0
C393 C 0.60407 0.81539 0.53592 0.0
C394 C 0.65151 0.74389 0.5202 0.0
C395 C 0.60502 0.85462 0.53345 0.0
C396 C 0.656 0.58404 0.54027 0.0
C397 C 0.65886 0.6237 0.53807 0.0
C398 C 0.61472 0.69732 0.55485 0.0
C399 C 0.63593 0.80236 0.53241 0.0
C400 C 0.63478 0.76051 0.53511 0.0
C401 C 0.62817 0.63839 0.54201 0.0
C402 C 0.63104 0.68059 0.5398 0.0
H403 H 0.69557 0.88905 0.51922 0.0
H404 H 0.69394 0.82062 0.52368 0.0
H405 H 0.60395 0.74866 0.56455 0.0
H406 H 0.56553 0.55336 0.55483 0.0
H407 H 0.57017 0.62254 0.55093 0.0
C408 C 0.86652 0.55073 0.78265 0.0
C409 C 0.83517 0.56659 0.77788 0.0
C410 C 0.90016 0.56775 0.77298 0.0
C411 C 0.94486 0.66771 0.75435 0.0
H412 H 1.02988 0.62415 0.77348 0.0
C413 C 1.04782 0.73373 0.81994 0.0
C414 C 0.07735 0.71694 0.82821 0.0
C415 C 1.02748 0.72324 0.80019 0.0
C416 C 1.00724 0.63771 0.7676 0.0
H417 H 0.81209 0.60797 0.75612 0.0
H418 H 0.87012 0.63632 0.73825 0.0
H419 H 0.97286 0.58393 0.75854 0.0
H420 H 0.11245 0.68031 0.82096 0.0
H421 H 0.08019 0.66543 0.78546 0.0
H422 H 0.9798 0.72195 0.76209 0.0
C423 C 0.86969 0.61224 0.75048 0.0
C424 C 0.97384 0.61402 0.75927 0.0
C425 C 0.8361 0.59558 0.76051 0.0
C426 C 0.0895 0.6935 0.81502 0.0
C427 C 0.07027 0.68429 0.79479 0.0
C428 C 0.97882 0.69181 0.76167 0.0
C429 C 0.90308 0.60085 0.75805 0.0
C430 C 0.94093 0.6277 0.75523 0.0
C431 C 1.03709 0.69656 0.78783 0.0
C432 C 1.00898 0.67625 0.77095 0.0
H433 H 0.86619 0.52744 0.79543 0.0
H434 H 0.92458 0.55719 0.77927 0.0
H435 H 0.92091 0.68028 0.75048 0.0
H436 H 1.03886 0.75299 0.82949 0.0
H437 H 1.00253 0.73398 0.79583 0.0
C438 C 0.23686 0.72595 0.16208 0.0
C439 C 0.20335 0.73325 0.16797 0.0
C440 C 0.27141 0.75245 0.16547 0.0
C441 C 0.31265 0.85468 0.17407 0.0
H442 H 0.39997 0.81873 0.19935 0.0
C443 C 0.44472 0.95491 0.21271 0.0
C444 C 0.48012 0.94821 0.21044 0.0
C445 C 0.41186 0.92971 0.20492 0.0
C446 C 0.37606 0.82925 0.19192 0.0
H447 H 0.18012 0.77389 0.18244 0.0
H448 H 0.24027 0.8201 0.18825 0.0
H449 H 0.3408 0.77231 0.19109 0.0
H450 H 0.50945 0.91099 0.19778 0.0
H451 H 0.45189 0.86687 0.18367 0.0
H452 H 0.34774 0.91161 0.1751 0.0
C453 C 0.23975 0.79415 0.18068 0.0
C454 C 0.34211 0.80262 0.18724 0.0
C455 C 0.20525 0.76764 0.17736 0.0
C456 C 0.48232 0.91663 0.19958 0.0
C457 C 0.44942 0.89131 0.19175 0.0
C458 C 0.3466 0.88129 0.1787 0.0
C459 C 0.27322 0.78691 0.17476 0.0
C460 C 0.30988 0.81506 0.17854 0.0
C461 C 0.41376 0.89726 0.19463 0.0
C462 C 0.37858 0.86893 0.18797 0.0
H463 H 0.23635 0.70004 0.1545 0.0
H464 H 0.29664 0.74622 0.16051 0.0
H465 H 0.28851 0.86516 0.16699 0.0
H466 H 0.44257 0.97926 0.22098 0.0
H467 H 0.38494 0.93497 0.20766 0.0
C468 C 0.67382 0.14786 0.51472 0.0
C469 C 0.63985 0.1196 0.51263 0.0
C470 C 0.67365 0.18675 0.51393 0.0
C471 C 0.61207 0.25547 0.49882 0.0
H472 H 0.68151 0.31711 0.5402 0.0
C473 C 0.58966 0.39406 0.52883 0.0
C474 C 0.62123 0.42456 0.53212 0.0
C475 C 0.59385 0.35935 0.52249 0.0
C476 C 0.66234 0.30051 0.52828 0.0
H477 H 0.57905 0.11025 0.5078 0.0
H478 H 0.57865 0.17769 0.50704 0.0
H479 H 0.68517 0.25145 0.53709 0.0
H480 H 0.68161 0.44371 0.53083 0.0
H481 H 0.6893 0.3827 0.51976 0.0
H482 H 0.58829 0.30431 0.49077 0.0
C483 C 0.60557 0.17006 0.50878 0.0
C484 C 0.66445 0.26278 0.52646 0.0
C485 C 0.60577 0.13123 0.50936 0.0
C486 C 0.65695 0.4205 0.52815 0.0
C487 C 0.66128 0.3856 0.52204 0.0
C488 C 0.60975 0.2931 0.50081 0.0
C489 C 0.63949 0.19837 0.51124 0.0
C490 C 0.639 0.23952 0.51192 0.0
C491 C 0.62982 0.35438 0.51958 0.0
C492 C 0.63456 0.31587 0.51576 0.0
H493 H 0.70063 0.13996 0.51704 0.0
H494 H 0.70038 0.20769 0.51547 0.0
H495 H 0.5925 0.23879 0.48712 0.0
H496 H 0.56196 0.39674 0.53201 0.0
H497 H 0.56913 0.33578 0.52095 0.0
C498 C 0.36259 0.55041 0.89484 0.0
C499 C 0.39891 0.56941 0.8888 0.0
C500 C 0.33966 0.57052 0.90298 0.0
C501 C 0.32515 0.6675 0.8978 0.0
H502 H 0.24526 0.61997 0.93618 0.0
C503 C 0.19586 0.72918 0.89686 0.0
C504 C 0.16296 0.70122 0.8918 0.0
C505 C 0.22898 0.7182 0.9048 0.0
C506 C 0.26771 0.63385 0.92565 0.0
H507 H 0.44037 0.6241 0.88766 0.0
H508 H 0.40058 0.65901 0.90231 0.0
H509 H 0.29799 0.59028 0.935 0.0
H510 H 0.13781 0.64034 0.89183 0.0
H511 H 0.19516 0.62089 0.90595 0.0
H512 H 0.29399 0.70987 0.88756 0.0
C513 C 0.38967 0.62864 0.90046 0.0
C514 C 0.29777 0.6168 0.9249 0.0
C515 C 0.41257 0.60853 0.89223 0.0
C516 C 0.16285 0.66224 0.89599 0.0
C517 C 0.19566 0.65122 0.90412 0.0
C518 C 0.29521 0.68459 0.89862 0.0
C519 C 0.35259 0.6101 0.90535 0.0
C520 C 0.32587 0.63248 0.91018 0.0
C521 C 0.22938 0.67907 0.90794 0.0
C522 C 0.26531 0.66693 0.91176 0.0
H523 H 0.3515 0.52013 0.89276 0.0
H524 H 0.3111 0.55539 0.90634 0.0
H525 H 0.34612 0.68023 0.88615 0.0
H526 H 0.19618 0.75939 0.89383 0.0
H527 H 0.25457 0.74023 0.90768 0.0
C528 C 0.83904 0.24941 0.15563 0.0
C529 C 0.86842 0.26523 0.17083 0.0
C530 C 0.80823 0.22063 0.16259 0.0
C531 C 0.75793 0.17741 0.21237 0.0
H532 H 0.71128 0.09613 0.17482 0.0
C533 C 0.61235 0.07572 0.22723 0.0
C534 C 0.60591 0.03756 0.22217 0.0
C535 C 0.64591 0.10223 0.22218 0.0
C536 C 0.7242 0.1183 0.18568 0.0
H537 H 0.88889 0.26277 0.2052 0.0
H538 H 0.83546 0.21207 0.21734 0.0
H539 H 0.76722 0.14393 0.16374 0.0
H540 H 0.62942 0.99641 0.20873 0.0
H541 H 0.68869 0.04239 0.20019 0.0
H542 H 0.71544 0.15119 0.23457 0.0
C543 C 0.83575 0.22246 0.20009 0.0
C544 C 0.75602 0.14611 0.17915 0.0
C545 C 0.86643 0.25146 0.19314 0.0
C546 C 0.63385 0.02591 0.21251 0.0
C547 C 0.66757 0.0523 0.20756 0.0
C548 C 0.72623 0.14944 0.21897 0.0
C549 C 0.80617 0.20672 0.18491 0.0
C550 C 0.77311 0.17626 0.1923 0.0
C551 C 0.67385 0.09096 0.21207 0.0
C552 C 0.70873 0.1197 0.20562 0.0
H553 H 0.83951 0.25981 0.13838 0.0
H554 H 0.78569 0.20978 0.15048 0.0
H555 H 0.77007 0.20037 0.22284 0.0
H556 H 0.59087 0.08522 0.23451 0.0
H557 H 0.64942 0.13179 0.2256 0.0
C558 C 1.05276 0.51733 0.06697 0.0
C559 C 1.02754 0.52972 0.07869 0.0
C560 C 1.05864 0.53169 0.04511 0.0
C561 C 1.01761 0.57836 0.99591 0.0
H562 H 0.1212 0.62465 0.98272 0.0
C563 C 1.06247 0.64082 0.90862 0.0
C564 C 0.08589 0.67815 0.90747 0.0
C565 C 1.05459 0.62034 0.92899 0.0
C566 C 0.09217 0.61178 0.98619 0.0
H567 H 0.98743 0.56538 0.07647 0.0
H568 H 0.99709 0.58972 0.0382 0.0
H569 H 0.10766 0.59103 0.019 0.0
H570 H 0.12069 0.72275 0.92641 0.0
H571 H 0.10752 0.68666 0.96225 0.0
H572 H 1.00213 0.59932 0.96312 0.0
C573 C 1.01251 0.5692 0.04594 0.0
C574 C 0.08445 0.59228 0.00683 0.0
C575 C 1.00713 0.55539 0.06787 0.0
C576 C 0.10215 0.69421 0.92701 0.0
C577 C 0.09479 0.67353 0.94739 0.0
C578 C 1.02537 0.59735 0.97513 0.0
C579 C 1.03886 0.5581 0.03449 0.0
C580 C 1.04707 0.57583 0.01198 0.0
C581 C 0.07079 0.63645 0.94857 0.0
C582 C 1.06269 0.6147 0.9702 0.0
H583 H 0.06901 0.4977 0.07492 0.0
H584 H 0.07896 0.52254 0.03658 0.0
H585 H 0.98856 0.56582 -0.00054 0.0
H586 H 1.05079 0.62732 0.89372 0.0
H587 H 1.03648 0.59159 0.92945 0.0
C588 C 0.60689 0.97957 0.44017 0.0
C589 C 0.63596 0.00493 0.45157 0.0
C590 C 0.60226 0.98378 0.41725 0.0
C591 C 0.64954 0.02791 0.36694 0.0
H592 H 0.5465 0.01397 0.3419 0.0
C593 C 0.55452 0.03673 0.27827 0.0
C594 C 0.57178 0.01615 0.26602 0.0
C595 C 0.56701 0.04228 0.30018 0.0
C596 C 0.57552 0.0186 0.34854 0.0
H597 H 0.68372 0.05398 0.44774 0.0
H598 H 0.67535 0.06152 0.40757 0.0
H599 H 0.559 0.00909 0.38154 0.0
H600 H 0.61664 0.98715 0.26616 0.0
H601 H 0.63843 0.9961 0.30475 0.0
H602 H 0.66594 0.03767 0.33374 0.0
C603 C 0.65632 0.03822 0.41644 0.0
C604 C 0.58264 0.01517 0.37133 0.0
C605 C 0.66101 0.03396 0.43945 0.0
C606 C 0.60324 0.00331 0.27545 0.0
C607 C 0.61562 0.00852 0.29747 0.0
C608 C 0.6424 0.03138 0.34403 0.0
C609 C 0.62648 0.01354 0.40512 0.0
C610 C 0.61963 0.0192 0.38083 0.0
C611 C 0.59674 0.02689 0.31032 0.0
C612 C 0.60523 0.02642 0.33457 0.0
H613 H 0.58727 0.95667 0.44895 0.0
H614 H 0.57949 0.96375 0.40902 0.0
H615 H 0.67837 0.03108 0.37376 0.0
H616 H 0.53033 0.047 0.27109 0.0
H617 H 0.55241 0.05736 0.30943 0.0
C618 C 0.62876 0.5463 0.75939 0.0
C619 C 0.59847 0.52539 0.7715 0.0
C620 C 0.62652 0.54664 0.73648 0.0
C621 C 0.57622 0.49071 0.69114 0.0
H622 H 0.619 0.58288 0.65444 0.0
C623 C 0.56719 0.49011 0.59726 0.0
C624 C 0.60111 0.50612 0.58738 0.0
C625 C 0.56346 0.49676 0.61887 0.0
C626 C 0.60707 0.55689 0.66449 0.0
H627 H 0.54177 0.48895 0.7689 0.0
H628 H 0.53777 0.48985 0.72895 0.0
H629 H 0.61925 0.58556 0.69414 0.0
H630 H 0.65702 0.54295 0.59155 0.0
H631 H 0.6508 0.55479 0.62947 0.0
H632 H 0.56458 0.46185 0.66166 0.0
C633 C 0.56348 0.50555 0.73721 0.0
C634 C 0.60726 0.55839 0.68722 0.0
C635 C 0.56574 0.50515 0.76013 0.0
C636 C 0.63055 0.53064 0.59892 0.0
C637 C 0.6269 0.53734 0.62056 0.0
C638 C 0.57599 0.48923 0.66846 0.0
C639 C 0.59391 0.52613 0.72512 0.0
C640 C 0.59214 0.52522 0.70083 0.0
C641 C 0.59367 0.51955 0.631 0.0
C642 C 0.59167 0.5222 0.65487 0.0
H643 H 0.65443 0.5622 0.76759 0.0
H644 H 0.65068 0.56234 0.72771 0.0
H645 H 0.56492 0.46448 0.70116 0.0
H646 H 0.54411 0.4714 0.58845 0.0
H647 H 0.53725 0.48326 0.62628 0.0
C648 C 0.66539 0.99044 0.60239 0.0
C649 C 0.637 5e-05 0.58739 0.0
C650 C 0.66248 0.98929 0.6251 0.0
C651 C 0.61423 0.02667 0.66501 0.0
H652 H 0.64107 0.94662 0.70624 0.0
C653 C 0.57886 0.01305 0.75444 0.0
C654 C 0.60854 0.01047 0.77022 0.0
C655 C 0.58145 0.00684 0.73263 0.0
C656 C 0.63367 0.96924 0.6949 0.0
H657 H 0.58289 0.01508 0.58455 0.0
H658 H 0.5777 0.0126 0.62382 0.0
H659 H 0.64865 0.94671 0.66692 0.0
H660 H 0.66302 0.99718 0.77633 0.0
H661 H 0.66783 0.98613 0.73795 0.0
H662 H 0.59923 0.04924 0.69275 0.0
C663 C 0.60259 0.00672 0.61816 0.0
C664 C 0.63813 0.96939 0.67242 0.0
C665 C 0.60553 0.00799 0.59558 0.0
C666 C 0.63981 -0.00093 0.76429 0.0
C667 C 0.64248 0.99283 0.7424 0.0
C668 C 0.60966 0.02642 0.68733 0.0
C669 C 0.63114 0.99772 0.63321 0.0
C670 C 0.6281 0.99795 0.65721 0.0
C671 C 0.61387 0.998 0.72622 0.0
C672 C 0.61896 0.99754 0.70252 0.0
H673 H 0.68996 0.9841 0.5966 0.0
H674 H 0.68508 0.98252 0.63629 0.0
H675 H 0.60711 0.04963 0.65384 0.0
H676 H 0.55439 0.02143 0.75888 0.0
H677 H 0.55858 0.0102 0.72063 0.0
C678 C 0.59292 0.55676 0.91643 0.0
C679 C 0.61221 0.53241 0.90858 0.0
C680 C 0.59125 0.55792 0.93895 0.0
C681 C 0.63114 0.52771 0.99447 0.0
H682 H 0.53582 0.53934 0.01154 0.0
C683 C 0.57587 0.49827 0.08302 0.0
C684 C 0.55977 0.52677 0.08909 0.0
C685 C 0.58844 0.50095 0.0619 0.0
C686 C 0.56271 0.53637 0.007 0.0
H687 H 0.64579 0.4909 0.91807 0.0
H688 H 0.64156 0.49159 0.95766 0.0
H689 H 0.54493 0.53906 0.97289 0.0
H690 H 0.54672 0.58154 0.07894 0.0
H691 H 0.56783 0.58596 0.04183 0.0
H692 H 0.64788 0.52341 0.0291 0.0
C693 C 0.62847 0.51054 0.9464 0.0
C694 C 0.5681 0.53645 0.98481 0.0
C695 C 0.63078 0.50998 0.92373 0.0
C696 C 0.55852 0.55904 0.07435 0.0
C697 C 0.57061 0.56153 0.05325 0.0
C698 C 0.62544 0.527 0.01683 0.0
C699 C 0.60803 0.53403 0.95427 0.0
C700 C 0.60256 0.53272 0.97816 0.0
C701 C 0.58464 0.53198 0.04662 0.0
C702 C 0.59132 0.53187 0.02321 0.0
H703 H 0.57887 0.57488 0.90512 0.0
H704 H 0.57635 0.57734 0.94431 0.0
H705 H 0.65811 0.52497 0.98999 0.0
H706 H 0.57696 0.47315 0.09422 0.0
H707 H 0.59907 0.47777 0.05711 0.0
C708 C 0.06865 0.50687 0.22645 0.0
C709 C 1.03694 0.48631 0.21443 0.0
C710 C 0.072 0.50132 0.24937 0.0
C711 C 1.01681 0.47334 0.29721 0.0
H712 H 0.11275 0.46618 0.32769 0.0
C713 C 0.09487 0.46388 0.39091 0.0
C714 C 0.08651 0.49577 0.39867 0.0
C715 C 0.08346 0.45475 0.36931 0.0
C716 C 0.08558 0.46753 0.31948 0.0
H717 H 0.98386 0.44367 0.21701 0.0
H718 H 0.98952 0.43447 0.25729 0.0
H719 H 0.10446 0.46531 0.28776 0.0
H720 H 1.05806 0.54175 0.3909 0.0
H721 H 1.03777 0.52591 0.35306 0.0
H722 H 0.99838 0.47686 0.32893 0.0
C723 C 1.0118 0.45473 0.24885 0.0
C724 C 0.08098 0.46741 0.2966 0.0
C725 C 1.00866 0.45991 0.22583 0.0
C726 C 0.06471 0.51707 0.38507 0.0
C727 C 1.05301 0.50783 0.36355 0.0
C728 C 1.02155 0.47386 0.32011 0.0
C729 C 1.04354 0.47538 0.26082 0.0
C730 C 1.04682 0.47109 0.28521 0.0
C731 C 1.06323 0.47726 0.35524 0.0
C732 C 1.05622 0.47166 0.33143 0.0
H733 H 0.09098 0.52735 0.21818 0.0
H734 H 0.09656 0.51797 0.25819 0.0
H735 H 0.99023 0.47637 0.28882 0.0
H736 H 0.11183 0.44731 0.40123 0.0
H737 H 0.09145 0.43086 0.3634 0.0
loop_
_geom_bond_atom_site_label_1
_geom_bond_atom_site_label_2
_geom_bond_distance
_geom_bond_site_symmetry_2
_ccdc_geom_bond_type
Dy0 O3 2.307 1_455 S
Dy0 O5 2.395 . S
Dy0 O6 2.379 . S
Dy0 O8 2.339 . S
Dy0 O10 2.298 . S
Dy0 O14 2.275 . S
Dy0 C22 2.738 . S
Dy1 O4 2.298 . S
Dy1 O7 2.274 1_655 S
Dy1 O9 2.307 1_655 S
Dy1 O11 2.395 . S
Dy1 O12 2.379 . S
Dy1 O15 2.339 . S
Dy1 C31 2.738 . S
C2 O14 1.254 . S
C2 O15 1.257 1_455 S
O3 Dy0 2.307 1_655 S
O3 C13 1.266 . S
O4 Dy1 2.298 . S
O4 C13 1.236 . S
O5 Dy0 2.395 . S
O5 C22 1.255 . S
O6 Dy0 2.379 . S
O6 C22 1.249 . S
O7 Dy1 2.274 1_455 S
O7 C23 1.254 . S
O8 Dy0 2.339 . S
O8 C23 1.257 . S
O9 Dy1 2.307 1_455 S
O9 C24 1.266 . S
O10 Dy0 2.298 . S
O10 C24 1.236 . S
O11 Dy1 2.395 . S
O11 C31 1.255 . S
O12 Dy1 2.379 . S
O12 C31 1.249 . S
C13 O3 1.266 . S
C13 O4 1.236 . S
O14 Dy0 2.275 . S
O14 C2 1.254 . S
O15 Dy1 2.339 . S
O15 C2 1.257 1_655 S
C16 C19 1.344 . S
C16 C20 1.328 . S
C16 C22 1.516 . S
C17 C18 1.304 . S
C17 C21 1.323 . S
C18 C17 1.304 . S
C18 C19 1.371 . S
C18 H32 0.930 . S
C19 C16 1.344 . S
C19 C18 1.371 . S
C19 H33 0.931 . S
C20 C16 1.328 . S
C20 C21 1.433 . S
C20 H34 0.931 . S
C21 C17 1.323 . S
C21 C20 1.433 . S
C21 H35 0.933 . S
C22 Dy0 2.738 . S
C22 O5 1.255 . S
C22 O6 1.249 . S
C22 C16 1.516 . S
C23 O7 1.254 . S
C23 O8 1.257 . S
C24 O9 1.266 . S
C24 O10 1.236 . S
C25 C28 1.344 . S
C25 C29 1.328 . S
C25 C31 1.516 . S
C26 C27 1.304 . S
C26 C30 1.323 . S
C27 C26 1.304 . S
C27 C28 1.371 . S
C27 H36 0.930 . S
C28 C25 1.344 . S
C28 C27 1.371 . S
C28 H37 0.931 . S
C29 C25 1.328 . S
C29 C30 1.433 . S
C29 H38 0.931 . S
C30 C26 1.323 . S
C30 C29 1.433 . S
C30 H39 0.933 . S
C31 Dy1 2.738 . S
C31 O11 1.255 . S
C31 O12 1.249 . S
C31 C25 1.516 . S
H32 C18 0.930 . S
H33 C19 0.931 . S
H34 C20 0.931 . S
H35 C21 0.933 . S
H36 C27 0.930 . S
H37 C28 0.931 . S
H38 C29 0.931 . S
H39 C30 0.933 . S
Dy40 O43 2.307 1_565 S
Dy40 O45 2.395 . S
Dy40 O46 2.379 . S
Dy40 O48 2.339 1_565 S
Dy40 O50 2.298 . S
Dy40 O54 2.275 1_565 S
Dy40 C62 2.738 . S
Dy41 O44 2.298 . S
Dy41 O47 2.275 . S
Dy41 O49 2.307 1_545 S
Dy41 O51 2.395 . S
Dy41 O52 2.379 . S
Dy41 O55 2.339 . S
Dy41 C71 2.738 . S
C42 O54 1.254 . S
C42 O55 1.257 . S
O43 Dy40 2.307 1_545 S
O43 C53 1.266 . S
O44 Dy41 2.298 . S
O44 C53 1.236 . S
O45 Dy40 2.395 . S
O45 C62 1.255 . S
O46 Dy40 2.379 . S
O46 C62 1.249 . S
O47 Dy41 2.275 . S
O47 C63 1.254 . S
O48 Dy40 2.339 1_545 S
O48 C63 1.257 . S
O49 Dy41 2.307 1_565 S
O49 C64 1.266 . S
O50 Dy40 2.298 . S
O50 C64 1.236 . S
O51 Dy41 2.395 . S
O51 C71 1.255 . S
O52 Dy41 2.379 . S
O52 C71 1.249 . S
C53 O43 1.266 . S
C53 O44 1.236 . S
O54 Dy40 2.275 1_545 S
O54 C42 1.254 . S
O55 Dy41 2.339 . S
O55 C42 1.257 . S
C56 C59 1.344 . S
C56 C60 1.328 . S
C56 C62 1.516 . S
C57 C58 1.304 . S
C57 C61 1.323 . S
C58 C57 1.304 . S
C58 C59 1.371 . S
C58 H72 0.930 . S
C59 C56 1.344 . S
C59 C58 1.371 . S
C59 H73 0.931 . S
C60 C56 1.328 . S
C60 C61 1.433 . S
C60 H74 0.931 . S
C61 C57 1.323 . S
C61 C60 1.433 . S
C61 H75 0.933 . S
C62 Dy40 2.738 . S
C62 O45 1.255 . S
C62 O46 1.249 . S
C62 C56 1.516 . S
C63 O47 1.254 . S
C63 O48 1.257 . S
C64 O49 1.266 . S
C64 O50 1.236 . S
C65 C68 1.344 . S
C65 C69 1.328 . S
C65 C71 1.516 . S
C66 C67 1.304 . S
C66 C70 1.323 . S
C67 C66 1.304 . S
C67 C68 1.371 . S
C67 H76 0.930 . S
C68 C65 1.344 . S
C68 C67 1.371 . S
C68 H77 0.931 . S
C69 C65 1.328 . S
C69 C70 1.433 . S
C69 H78 0.931 . S
C70 C66 1.323 . S
C70 C69 1.433 . S
C70 H79 0.933 . S
C71 Dy41 2.738 . S
C71 O51 1.255 . S
C71 O52 1.249 . S
C71 C65 1.516 . S
H72 C58 0.930 . S
H73 C59 0.931 . S
H74 C60 0.931 . S
H75 C61 0.933 . S
H76 C67 0.930 . S
H77 C68 0.931 . S
H78 C69 0.931 . S
H79 C70 0.933 . S
Dy80 O83 2.307 . S
Dy80 O85 2.395 . S
Dy80 O86 2.379 . S
Dy80 O88 2.339 . S
Dy80 O90 2.298 . S
Dy80 O94 2.275 . S
Dy80 C102 2.738 . S
Dy81 O84 2.298 . S
Dy81 O87 2.275 . S
Dy81 O89 2.307 . S
Dy81 O91 2.395 . S
Dy81 O92 2.379 . S
Dy81 O95 2.339 . S
Dy81 C111 2.738 . S
C82 O94 1.254 . S
C82 O95 1.257 . S
O83 Dy80 2.307 . S
O83 C93 1.266 . S
O84 Dy81 2.298 . S
O84 C93 1.236 . S
O85 Dy80 2.395 . S
O85 C102 1.255 . S
O86 Dy80 2.379 . S
O86 C102 1.249 . S
O87 Dy81 2.275 . S
O87 C103 1.254 . S
O88 Dy80 2.339 . S
O88 C103 1.257 . S
O89 Dy81 2.307 . S
O89 C104 1.266 . S
O90 Dy80 2.298 . S
O90 C104 1.236 . S
O91 Dy81 2.395 . S
O91 C111 1.255 . S
O92 Dy81 2.379 . S
O92 C111 1.249 . S
C93 O83 1.266 . S
C93 O84 1.236 . S
O94 Dy80 2.275 . S
O94 C82 1.254 . S
O95 Dy81 2.339 . S
O95 C82 1.257 . S
C96 C99 1.344 . S
C96 C100 1.328 . S
C96 C102 1.516 . S
C97 C98 1.304 . S
C97 C101 1.323 . S
C98 C97 1.304 . S
C98 C99 1.371 . S
C98 H112 0.930 . S
C99 C96 1.344 . S
C99 C98 1.371 . S
C99 H113 0.931 . S
C100 C96 1.328 . S
C100 C101 1.433 . S
C100 H114 0.931 . S
C101 C97 1.323 . S
C101 C100 1.433 . S
C101 H115 0.933 . S
C102 Dy80 2.738 . S
C102 O85 1.255 . S
C102 O86 1.249 . S
C102 C96 1.516 . S
C103 O87 1.254 . S
C103 O88 1.257 . S
C104 O89 1.266 . S
C104 O90 1.236 . S
C105 C108 1.344 . S
C105 C109 1.328 . S
C105 C111 1.516 . S
C106 C107 1.304 . S
C106 C110 1.323 . S
C107 C106 1.304 . S
C107 C108 1.371 . S
C107 H116 0.930 . S
C108 C105 1.344 . S
C108 C107 1.371 . S
C108 H117 0.931 . S
C109 C105 1.328 . S
C109 C110 1.433 . S
C109 H118 0.931 . S
C110 C106 1.323 . S
C110 C109 1.433 . S
C110 H119 0.933 . S
C111 Dy81 2.738 . S
C111 O91 1.255 . S
C111 O92 1.249 . S
C111 C105 1.516 . S
H112 C98 0.930 . S
H113 C99 0.931 . S
H114 C100 0.931 . S
H115 C101 0.933 . S
H116 C107 0.930 . S
H117 C108 0.931 . S
H118 C109 0.931 . S
H119 C110 0.933 . S
C120 N121 1.317 . S
C120 N122 1.348 1_545 S
C120 C123 1.485 . S
N121 C120 1.317 . S
N121 N125 1.370 . S
N122 C120 1.348 1_565 S
N122 C124 1.346 . S
C123 C120 1.485 . S
C123 H127 0.960 . S
C123 H128 0.961 . S
C123 H129 0.960 . S
C124 N122 1.346 . S
C124 N125 1.307 1_565 S
C124 C126 1.486 . S
N125 N121 1.370 . S
N125 C124 1.307 1_545 S
C126 C124 1.486 . S
C126 H130 0.960 . S
C126 H131 0.960 . S
C126 H132 0.959 . S
H127 C123 0.960 . S
H128 C123 0.961 . S
H129 C123 0.960 . S
H130 C126 0.960 . S
H131 C126 0.960 . S
H132 C126 0.959 . S
C133 N134 1.317 . S
C133 N135 1.348 . S
C133 C136 1.485 . S
N134 C133 1.317 . S
N134 N138 1.370 . S
N135 C133 1.348 . S
N135 C137 1.346 . S
C136 C133 1.485 . S
C136 H140 0.960 . S
C136 H141 0.961 . S
C136 H142 0.960 . S
C137 N135 1.346 . S
C137 N138 1.307 . S
C137 C139 1.486 . S
N138 N134 1.370 . S
N138 C137 1.307 . S
C139 C137 1.486 . S
C139 H143 0.960 . S
C139 H144 0.960 . S
C139 H145 0.959 . S
H140 C136 0.960 . S
H141 C136 0.961 . S
H142 C136 0.960 . S
H143 C139 0.960 . S
H144 C139 0.960 . S
H145 C139 0.959 . S
C146 N147 1.317 . S
C146 N148 1.348 1_455 S
C146 C149 1.485 . S
N147 C146 1.317 . S
N147 N151 1.370 . S
N148 C146 1.348 1_655 S
N148 C150 1.346 . S
C149 C146 1.485 . S
C149 H153 0.960 . S
C149 H154 0.961 1_455 S
C149 H155 0.960 . S
C150 N148 1.346 . S
C150 N151 1.307 1_655 S
C150 C152 1.486 . S
N151 N147 1.370 . S
N151 C150 1.307 1_455 S
C152 C150 1.486 . S
C152 H156 0.960 . S
C152 H157 0.960 . S
C152 H158 0.959 . S
H153 C149 0.960 . S
H154 C149 0.961 1_655 S
H155 C149 0.960 . S
H156 C152 0.960 . S
H157 C152 0.960 . S
H158 C152 0.959 . S
C159 N160 1.317 . S
C159 N161 1.348 . S
C159 C162 1.485 . S
N160 C159 1.317 . S
N160 N164 1.370 . S
N161 C159 1.348 . S
N161 C163 1.346 . S
C162 C159 1.485 . S
C162 H166 0.960 . S
C162 H167 0.961 . S
C162 H168 0.960 . S
C163 N161 1.346 . S
C163 N164 1.307 . S
C163 C165 1.486 . S
N164 N160 1.370 . S
N164 C163 1.307 . S
C165 C163 1.486 . S
C165 H169 0.960 . S
C165 H170 0.960 . S
C165 H171 0.959 . S
H166 C162 0.960 . S
H167 C162 0.961 . S
H168 C162 0.960 . S
H169 C165 0.960 . S
H170 C165 0.960 . S
H171 C165 0.959 . S
C172 N173 1.317 . S
C172 N174 1.348 . S
C172 C175 1.485 . S
N173 C172 1.317 . S
N173 N177 1.370 . S
N174 C172 1.348 . S
N174 C176 1.346 . S
C175 C172 1.485 . S
C175 H179 0.960 . S
C175 H180 0.961 . S
C175 H181 0.960 . S
C176 N174 1.346 . S
C176 N177 1.307 . S
C176 C178 1.486 . S
N177 N173 1.370 . S
N177 C176 1.307 . S
C178 C176 1.486 . S
C178 H182 0.960 . S
C178 H183 0.960 . S
C178 H184 0.959 . S
H179 C175 0.960 . S
H180 C175 0.961 . S
H181 C175 0.960 . S
H182 C178 0.960 . S
H183 C178 0.960 . S
H184 C178 0.959 . S
C185 N186 1.317 . S
C185 N187 1.348 . S
C185 C188 1.485 . S
N186 C185 1.317 . S
N186 N190 1.370 . S
N187 C185 1.348 . S
N187 C189 1.346 . S
C188 C185 1.485 . S
C188 H192 0.960 . S
C188 H193 0.961 . S
C188 H194 0.960 . S
C189 N187 1.346 . S
C189 N190 1.307 . S
C189 C191 1.486 . S
N190 N186 1.370 . S
N190 C189 1.307 . S
C191 C189 1.486 . S
C191 H195 0.960 . S
C191 H196 0.960 . S
C191 H197 0.959 . S
H192 C188 0.960 . S
H193 C188 0.961 . S
H194 C188 0.960 . S
H195 C191 0.960 . S
H196 C191 0.960 . S
H197 C191 0.959 . S
C198 C199 1.349 . S
C198 C200 1.327 . S
C198 H223 0.950 . S
C199 C198 1.349 . S
C199 C215 1.349 . S
C200 C198 1.327 . S
C200 C219 1.429 . S
C200 H224 0.950 . S
C201 C218 1.574 . S
C201 C220 1.368 . S
C201 H225 0.949 . S
H202 C206 0.949 . S
C203 C204 1.349 . S
C203 C205 1.327 . S
C203 H226 0.950 . S
C204 C203 1.349 . S
C204 C216 1.349 . S
C205 C203 1.327 . S
C205 C221 1.429 . S
C205 H227 0.950 . S
C206 H202 0.949 . S
C206 C214 1.574 . S
C206 C222 1.368 . S
H207 C215 0.950 . S
H208 C213 0.950 . S
H209 C214 0.949 . S
H210 C216 0.950 . S
H211 C217 0.950 . S
H212 C218 0.949 . S
C213 H208 0.950 . S
C213 C215 1.327 . S
C213 C219 1.429 . S
C214 C206 1.574 . S
C214 H209 0.949 . S
C214 C220 1.368 . S
C215 C199 1.349 . S
C215 H207 0.950 . S
C215 C213 1.327 . S
C216 C204 1.349 . S
C216 H210 0.950 . S
C216 C217 1.327 . S
C217 H211 0.950 . S
C217 C216 1.327 . S
C217 C221 1.429 . S
C218 C201 1.574 . S
C218 H212 0.949 . S
C218 C222 1.368 . S
C219 C200 1.429 . S
C219 C213 1.429 . S
C219 C220 1.523 . S
C220 C201 1.368 . S
C220 C214 1.368 . S
C220 C219 1.523 . S
C221 C205 1.429 . S
C221 C217 1.429 . S
C221 C222 1.523 . S
C222 C206 1.368 . S
C222 C218 1.368 . S
C222 C221 1.523 . S
H223 C198 0.950 . S
H224 C200 0.950 . S
H225 C201 0.949 . S
H226 C203 0.950 . S
H227 C205 0.950 . S
C228 C229 1.349 . S
C228 C230 1.327 . S
C228 H253 0.950 . S
C229 C228 1.349 . S
C229 C245 1.349 . S
C230 C228 1.327 . S
C230 C249 1.429 . S
C230 H254 0.950 . S
C231 C248 1.574 . S
C231 C250 1.368 . S
C231 H255 0.949 . S
H232 C236 0.949 . S
C233 C234 1.349 1_655 S
C233 C235 1.327 . S
C233 H256 0.950 . S
C234 C233 1.349 1_455 S
C234 C246 1.349 . S
C235 C233 1.327 . S
C235 C251 1.429 . S
C235 H257 0.950 . S
C236 H232 0.949 . S
C236 C244 1.574 . S
C236 C252 1.368 . S
H237 C245 0.950 . S
H238 C243 0.950 . S
H239 C244 0.949 . S
H240 C246 0.950 . S
H241 C247 0.950 . S
H242 C248 0.949 . S
C243 H238 0.950 . S
C243 C245 1.327 . S
C243 C249 1.429 . S
C244 C236 1.574 . S
C244 H239 0.949 . S
C244 C250 1.368 . S
C245 C229 1.349 . S
C245 H237 0.950 . S
C245 C243 1.327 . S
C246 C234 1.349 . S
C246 H240 0.950 . S
C246 C247 1.327 1_455 S
C247 H241 0.950 . S
C247 C246 1.327 1_655 S
C247 C251 1.429 . S
C248 C231 1.574 . S
C248 H242 0.949 . S
C248 C252 1.368 . S
C249 C230 1.429 . S
C249 C243 1.429 . S
C249 C250 1.523 . S
C250 C231 1.368 . S
C250 C244 1.368 . S
C250 C249 1.523 . S
C251 C235 1.429 . S
C251 C247 1.429 . S
C251 C252 1.523 . S
C252 C236 1.368 . S
C252 C248 1.368 . S
C252 C251 1.523 . S
H253 C228 0.950 . S
H254 C230 0.950 . S
H255 C231 0.949 . S
H256 C233 0.950 . S
H257 C235 0.950 . S
C258 C259 1.349 . S
C258 C260 1.327 . S
C258 H283 0.950 . S
C259 C258 1.349 . S
C259 C275 1.349 . S
C260 C258 1.327 . S
C260 C279 1.429 . S
C260 H284 0.950 . S
C261 C278 1.574 . S
C261 C280 1.368 . S
C261 H285 0.949 . S
H262 C266 0.949 . S
C263 C264 1.349 . S
C263 C265 1.327 . S
C263 H286 0.950 . S
C264 C263 1.349 . S
C264 C276 1.349 . S
C265 C263 1.327 . S
C265 C281 1.429 . S
C265 H287 0.950 . S
C266 H262 0.949 . S
C266 C274 1.574 . S
C266 C282 1.368 . S
H267 C275 0.950 . S
H268 C273 0.950 . S
H269 C274 0.949 . S
H270 C276 0.950 . S
H271 C277 0.950 . S
H272 C278 0.949 . S
C273 H268 0.950 . S
C273 C275 1.327 . S
C273 C279 1.429 . S
C274 C266 1.574 . S
C274 H269 0.949 . S
C274 C280 1.368 . S
C275 C259 1.349 . S
C275 H267 0.950 . S
C275 C273 1.327 . S
C276 C264 1.349 . S
C276 H270 0.950 . S
C276 C277 1.327 . S
C277 H271 0.950 . S
C277 C276 1.327 . S
C277 C281 1.429 . S
C278 C261 1.574 . S
C278 H272 0.949 . S
C278 C282 1.368 . S
C279 C260 1.429 . S
C279 C273 1.429 . S
C279 C280 1.523 . S
C280 C261 1.368 . S
C280 C274 1.368 . S
C280 C279 1.523 . S
C281 C265 1.429 . S
C281 C277 1.429 . S
C281 C282 1.523 . S
C282 C266 1.368 . S
C282 C278 1.368 . S
C282 C281 1.523 . S
H283 C258 0.950 . S
H284 C260 0.950 . S
H285 C261 0.949 . S
H286 C263 0.950 . S
H287 C265 0.950 . S
C288 C289 1.349 . S
C288 C290 1.327 . S
C288 H313 0.950 . S
C289 C288 1.349 . S
C289 C305 1.349 . S
C290 C288 1.327 . S
C290 C309 1.429 . S
C290 H314 0.950 . S
C291 C308 1.574 . S
C291 C310 1.368 . S
C291 H315 0.949 . S
H292 C296 0.949 . S
C293 C294 1.349 . S
C293 C295 1.327 . S
C293 H316 0.950 . S
C294 C293 1.349 . S
C294 C306 1.349 . S
C295 C293 1.327 . S
C295 C311 1.429 . S
C295 H317 0.950 . S
C296 H292 0.949 . S
C296 C304 1.574 . S
C296 C312 1.368 . S
H297 C305 0.950 . S
H298 C303 0.950 . S
H299 C304 0.949 . S
H300 C306 0.950 . S
H301 C307 0.950 . S
H302 C308 0.949 . S
C303 H298 0.950 . S
C303 C305 1.327 . S
C303 C309 1.429 . S
C304 C296 1.574 . S
C304 H299 0.949 . S
C304 C310 1.368 . S
C305 C289 1.349 . S
C305 H297 0.950 . S
C305 C303 1.327 . S
C306 C294 1.349 . S
C306 H300 0.950 . S
C306 C307 1.327 . S
C307 H301 0.950 . S
C307 C306 1.327 . S
C307 C311 1.429 . S
C308 C291 1.574 . S
C308 H302 0.949 . S
C308 C312 1.368 . S
C309 C290 1.429 . S
C309 C303 1.429 . S
C309 C310 1.523 . S
C310 C291 1.368 . S
C310 C304 1.368 . S
C310 C309 1.523 . S
C311 C295 1.429 . S
C311 C307 1.429 . S
C311 C312 1.523 . S
C312 C296 1.368 . S
C312 C308 1.368 . S
C312 C311 1.523 . S
H313 C288 0.950 . S
H314 C290 0.950 . S
H315 C291 0.949 . S
H316 C293 0.950 . S
H317 C295 0.950 . S
C318 C319 1.349 . S
C318 C320 1.327 . S
C318 H343 0.950 . S
C319 C318 1.349 . S
C319 C335 1.349 . S
C320 C318 1.327 . S
C320 C339 1.429 . S
C320 H344 0.950 . S
C321 C338 1.574 . S
C321 C340 1.368 . S
C321 H345 0.949 . S
H322 C326 0.949 . S
C323 C324 1.349 . S
C323 C325 1.327 . S
C323 H346 0.950 . S
C324 C323 1.349 . S
C324 C336 1.349 . S
C325 C323 1.327 . S
C325 C341 1.429 . S
C325 H347 0.950 . S
C326 H322 0.949 . S
C326 C334 1.574 . S
C326 C342 1.368 . S
H327 C335 0.950 . S
H328 C333 0.950 . S
H329 C334 0.949 . S
H330 C336 0.950 . S
H331 C337 0.950 . S
H332 C338 0.949 . S
C333 H328 0.950 . S
C333 C335 1.327 . S
C333 C339 1.429 . S
C334 C326 1.574 . S
C334 H329 0.949 . S
C334 C340 1.368 . S
C335 C319 1.349 . S
C335 H327 0.950 . S
C335 C333 1.327 . S
C336 C324 1.349 . S
C336 H330 0.950 . S
C336 C337 1.327 . S
C337 H331 0.950 . S
C337 C336 1.327 . S
C337 C341 1.429 . S
C338 C321 1.574 . S
C338 H332 0.949 . S
C338 C342 1.368 . S
C339 C320 1.429 . S
C339 C333 1.429 . S
C339 C340 1.523 . S
C340 C321 1.368 . S
C340 C334 1.368 . S
C340 C339 1.523 . S
C341 C325 1.429 . S
C341 C337 1.429 . S
C341 C342 1.523 . S
C342 C326 1.368 . S
C342 C338 1.368 . S
C342 C341 1.523 . S
H343 C318 0.950 . S
H344 C320 0.950 . S
H345 C321 0.949 . S
H346 C323 0.950 . S
H347 C325 0.950 . S
C348 C349 1.349 . S
C348 C350 1.327 . S
C348 H373 0.950 . S
C349 C348 1.349 . S
C349 C365 1.349 . S
C350 C348 1.327 . S
C350 C369 1.429 . S
C350 H374 0.950 . S
C351 C368 1.574 . S
C351 C370 1.368 . S
C351 H375 0.949 . S
H352 C356 0.949 . S
C353 C354 1.349 . S
C353 C355 1.327 . S
C353 H376 0.950 . S
C354 C353 1.349 . S
C354 C366 1.349 . S
C355 C353 1.327 . S
C355 C371 1.429 . S
C355 H377 0.950 . S
C356 H352 0.949 . S
C356 C364 1.574 . S
C356 C372 1.368 . S
H357 C365 0.950 . S
H358 C363 0.950 . S
H359 C364 0.949 . S
H360 C366 0.950 . S
H361 C367 0.950 . S
H362 C368 0.949 . S
C363 H358 0.950 . S
C363 C365 1.327 . S
C363 C369 1.429 . S
C364 C356 1.574 . S
C364 H359 0.949 . S
C364 C370 1.368 . S
C365 C349 1.349 . S
C365 H357 0.950 . S
C365 C363 1.327 . S
C366 C354 1.349 . S
C366 H360 0.950 . S
C366 C367 1.327 . S
C367 H361 0.950 . S
C367 C366 1.327 . S
C367 C371 1.429 . S
C368 C351 1.574 . S
C368 H362 0.949 . S
C368 C372 1.368 . S
C369 C350 1.429 . S
C369 C363 1.429 . S
C369 C370 1.523 . S
C370 C351 1.368 . S
C370 C364 1.368 . S
C370 C369 1.523 . S
C371 C355 1.429 . S
C371 C367 1.429 . S
C371 C372 1.523 . S
C372 C356 1.368 . S
C372 C368 1.368 . S
C372 C371 1.523 . S
H373 C348 0.950 . S
H374 C350 0.950 . S
H375 C351 0.949 . S
H376 C353 0.950 . S
H377 C355 0.950 . S
C378 C379 1.349 . S
C378 C380 1.327 . S
C378 H403 0.950 . S
C379 C378 1.349 . S
C379 C395 1.349 . S
C380 C378 1.327 . S
C380 C399 1.429 . S
C380 H404 0.950 . S
C381 C398 1.574 . S
C381 C400 1.368 . S
C381 H405 0.949 . S
H382 C386 0.949 . S
C383 C384 1.349 . S
C383 C385 1.327 . S
C383 H406 0.950 . S
C384 C383 1.349 . S
C384 C396 1.349 . S
C385 C383 1.327 . S
C385 C401 1.429 . S
C385 H407 0.950 . S
C386 H382 0.949 . S
C386 C394 1.574 . S
C386 C402 1.368 . S
H387 C395 0.950 . S
H388 C393 0.950 . S
H389 C394 0.949 . S
H390 C396 0.950 . S
H391 C397 0.950 . S
H392 C398 0.949 . S
C393 H388 0.950 . S
C393 C395 1.327 . S
C393 C399 1.429 . S
C394 C386 1.574 . S
C394 H389 0.949 . S
C394 C400 1.368 . S
C395 C379 1.349 . S
C395 H387 0.950 . S
C395 C393 1.327 . S
C396 C384 1.349 . S
C396 H390 0.950 . S
C396 C397 1.327 . S
C397 H391 0.950 . S
C397 C396 1.327 . S
C397 C401 1.429 . S
C398 C381 1.574 . S
C398 H392 0.949 . S
C398 C402 1.368 . S
C399 C380 1.429 . S
C399 C393 1.429 . S
C399 C400 1.523 . S
C400 C381 1.368 . S
C400 C394 1.368 . S
C400 C399 1.523 . S
C401 C385 1.429 . S
C401 C397 1.429 . S
C401 C402 1.523 . S
C402 C386 1.368 . S
C402 C398 1.368 . S
C402 C401 1.523 . S
H403 C378 0.950 . S
H404 C380 0.950 . S
H405 C381 0.949 . S
H406 C383 0.950 . S
H407 C385 0.950 . S
C408 C409 1.349 . S
C408 C410 1.327 . S
C408 H433 0.950 . S
C409 C408 1.349 . S
C409 C425 1.349 . S
C410 C408 1.327 . S
C410 C429 1.429 . S
C410 H434 0.950 . S
C411 C428 1.574 . S
C411 C430 1.368 . S
C411 H435 0.949 . S
H412 C416 0.949 . S
C413 C414 1.349 . S
C413 C415 1.327 . S
C413 H436 0.950 . S
C414 C413 1.349 . S
C414 C426 1.349 . S
C415 C413 1.327 . S
C415 C431 1.429 . S
C415 H437 0.950 . S
C416 H412 0.949 . S
C416 C424 1.574 . S
C416 C432 1.368 . S
H417 C425 0.950 . S
H418 C423 0.950 . S
H419 C424 0.949 . S
H420 C426 0.950 . S
H421 C427 0.950 . S
H422 C428 0.949 . S
C423 H418 0.950 . S
C423 C425 1.327 . S
C423 C429 1.429 . S
C424 C416 1.574 . S
C424 H419 0.949 . S
C424 C430 1.368 . S
C425 C409 1.349 . S
C425 H417 0.950 . S
C425 C423 1.327 . S
C426 C414 1.349 . S
C426 H420 0.950 . S
C426 C427 1.327 . S
C427 H421 0.950 . S
C427 C426 1.327 . S
C427 C431 1.429 . S
C428 C411 1.574 . S
C428 H422 0.949 . S
C428 C432 1.368 . S
C429 C410 1.429 . S
C429 C423 1.429 . S
C429 C430 1.523 . S
C430 C411 1.368 . S
C430 C424 1.368 . S
C430 C429 1.523 . S
C431 C415 1.429 . S
C431 C427 1.429 . S
C431 C432 1.523 . S
C432 C416 1.368 . S
C432 C428 1.368 . S
C432 C431 1.523 . S
H433 C408 0.950 . S
H434 C410 0.950 . S
H435 C411 0.949 . S
H436 C413 0.950 . S
H437 C415 0.950 . S
C438 C439 1.349 . S
C438 C440 1.327 . S
C438 H463 0.950 . S
C439 C438 1.349 . S
C439 C455 1.349 . S
C440 C438 1.327 . S
C440 C459 1.429 . S
C440 H464 0.950 . S
C441 C458 1.574 . S
C441 C460 1.368 . S
C441 H465 0.949 . S
H442 C446 0.949 . S
C443 C444 1.349 . S
C443 C445 1.327 . S
C443 H466 0.950 . S
C444 C443 1.349 . S
C444 C456 1.349 . S
C445 C443 1.327 . S
C445 C461 1.429 . S
C445 H467 0.950 . S
C446 H442 0.949 . S
C446 C454 1.574 . S
C446 C462 1.368 . S
H447 C455 0.950 . S
H448 C453 0.950 . S
H449 C454 0.949 . S
H450 C456 0.950 . S
H451 C457 0.950 . S
H452 C458 0.949 . S
C453 H448 0.950 . S
C453 C455 1.327 . S
C453 C459 1.429 . S
C454 C446 1.574 . S
C454 H449 0.949 . S
C454 C460 1.368 . S
C455 C439 1.349 . S
C455 H447 0.950 . S
C455 C453 1.327 . S
C456 C444 1.349 . S
C456 H450 0.950 . S
C456 C457 1.327 . S
C457 H451 0.950 . S
C457 C456 1.327 . S
C457 C461 1.429 . S
C458 C441 1.574 . S
C458 H452 0.949 . S
C458 C462 1.368 . S
C459 C440 1.429 . S
C459 C453 1.429 . S
C459 C460 1.523 . S
C460 C441 1.368 . S
C460 C454 1.368 . S
C460 C459 1.523 . S
C461 C445 1.429 . S
C461 C457 1.429 . S
C461 C462 1.523 . S
C462 C446 1.368 . S
C462 C458 1.368 . S
C462 C461 1.523 . S
H463 C438 0.950 . S
H464 C440 0.950 . S
H465 C441 0.949 . S
H466 C443 0.950 . S
H467 C445 0.950 . S
C468 C469 1.349 . S
C468 C470 1.327 . S
C468 H493 0.950 . S
C469 C468 1.349 . S
C469 C485 1.349 . S
C470 C468 1.327 . S
C470 C489 1.429 . S
C470 H494 0.950 . S
C471 C488 1.574 . S
C471 C490 1.368 . S
C471 H495 0.949 . S
H472 C476 0.949 . S
C473 C474 1.349 . S
C473 C475 1.327 . S
C473 H496 0.950 . S
C474 C473 1.349 . S
C474 C486 1.349 . S
C475 C473 1.327 . S
C475 C491 1.429 . S
C475 H497 0.950 . S
C476 H472 0.949 . S
C476 C484 1.574 . S
C476 C492 1.368 . S
H477 C485 0.950 . S
H478 C483 0.950 . S
H479 C484 0.949 . S
H480 C486 0.950 . S
H481 C487 0.950 . S
H482 C488 0.949 . S
C483 H478 0.950 . S
C483 C485 1.327 . S
C483 C489 1.429 . S
C484 C476 1.574 . S
C484 H479 0.949 . S
C484 C490 1.368 . S
C485 C469 1.349 . S
C485 H477 0.950 . S
C485 C483 1.327 . S
C486 C474 1.349 . S
C486 H480 0.950 . S
C486 C487 1.327 . S
C487 H481 0.950 . S
C487 C486 1.327 . S
C487 C491 1.429 . S
C488 C471 1.574 . S
C488 H482 0.949 . S
C488 C492 1.368 . S
C489 C470 1.429 . S
C489 C483 1.429 . S
C489 C490 1.523 . S
C490 C471 1.368 . S
C490 C484 1.368 . S
C490 C489 1.523 . S
C491 C475 1.429 . S
C491 C487 1.429 . S
C491 C492 1.523 . S
C492 C476 1.368 . S
C492 C488 1.368 . S
C492 C491 1.523 . S
H493 C468 0.950 . S
H494 C470 0.950 . S
H495 C471 0.949 . S
H496 C473 0.950 . S
H497 C475 0.950 . S
C498 C499 1.349 . S
C498 C500 1.327 . S
C498 H523 0.950 . S
C499 C498 1.349 . S
C499 C515 1.349 . S
C500 C498 1.327 . S
C500 C519 1.429 . S
C500 H524 0.950 . S
C501 C518 1.574 . S
C501 C520 1.368 . S
C501 H525 0.949 . S
H502 C506 0.949 . S
C503 C504 1.349 . S
C503 C505 1.327 . S
C503 H526 0.950 . S
C504 C503 1.349 . S
C504 C516 1.349 . S
C505 C503 1.327 . S
C505 C521 1.429 . S
C505 H527 0.950 . S
C506 H502 0.949 . S
C506 C514 1.574 . S
C506 C522 1.368 . S
H507 C515 0.950 . S
H508 C513 0.950 . S
H509 C514 0.949 . S
H510 C516 0.950 . S
H511 C517 0.950 . S
H512 C518 0.949 . S
C513 H508 0.950 . S
C513 C515 1.327 . S
C513 C519 1.429 . S
C514 C506 1.574 . S
C514 H509 0.949 . S
C514 C520 1.368 . S
C515 C499 1.349 . S
C515 H507 0.950 . S
C515 C513 1.327 . S
C516 C504 1.349 . S
C516 H510 0.950 . S
C516 C517 1.327 . S
C517 H511 0.950 . S
C517 C516 1.327 . S
C517 C521 1.429 . S
C518 C501 1.574 . S
C518 H512 0.949 . S
C518 C522 1.368 . S
C519 C500 1.429 . S
C519 C513 1.429 . S
C519 C520 1.523 . S
C520 C501 1.368 . S
C520 C514 1.368 . S
C520 C519 1.523 . S
C521 C505 1.429 . S
C521 C517 1.429 . S
C521 C522 1.523 . S
C522 C506 1.368 . S
C522 C518 1.368 . S
C522 C521 1.523 . S
H523 C498 0.950 . S
H524 C500 0.950 . S
H525 C501 0.949 . S
H526 C503 0.950 . S
H527 C505 0.950 . S
C528 C529 1.349 . S
C528 C530 1.327 . S
C528 H553 0.950 . S
C529 C528 1.349 . S
C529 C545 1.349 . S
C530 C528 1.327 . S
C530 C549 1.429 . S
C530 H554 0.950 . S
C531 C548 1.574 . S
C531 C550 1.368 . S
C531 H555 0.949 . S
H532 C536 0.949 . S
C533 C534 1.349 . S
C533 C535 1.327 . S
C533 H556 0.950 . S
C534 C533 1.349 . S
C534 C546 1.349 . S
C535 C533 1.327 . S
C535 C551 1.429 . S
C535 H557 0.950 . S
C536 H532 0.949 . S
C536 C544 1.574 . S
C536 C552 1.368 . S
H537 C545 0.950 . S
H538 C543 0.950 . S
H539 C544 0.949 . S
H540 C546 0.950 . S
H541 C547 0.950 . S
H542 C548 0.949 . S
C543 H538 0.950 . S
C543 C545 1.327 . S
C543 C549 1.429 . S
C544 C536 1.574 . S
C544 H539 0.949 . S
C544 C550 1.368 . S
C545 C529 1.349 . S
C545 H537 0.950 . S
C545 C543 1.327 . S
C546 C534 1.349 . S
C546 H540 0.950 . S
C546 C547 1.327 . S
C547 H541 0.950 . S
C547 C546 1.327 . S
C547 C551 1.429 . S
C548 C531 1.574 . S
C548 H542 0.949 . S
C548 C552 1.368 . S
C549 C530 1.429 . S
C549 C543 1.429 . S
C549 C550 1.523 . S
C550 C531 1.368 . S
C550 C544 1.368 . S
C550 C549 1.523 . S
C551 C535 1.429 . S
C551 C547 1.429 . S
C551 C552 1.523 . S
C552 C536 1.368 . S
C552 C548 1.368 . S
C552 C551 1.523 . S
H553 C528 0.950 . S
H554 C530 0.950 . S
H555 C531 0.949 . S
H556 C533 0.950 . S
H557 C535 0.950 . S
C558 C559 1.349 . S
C558 C560 1.327 . S
C558 H583 0.950 . S
C559 C558 1.349 . S
C559 C575 1.349 1_455 S
C560 C558 1.327 . S
C560 C579 1.429 . S
C560 H584 0.950 . S
C561 C578 1.574 1_554 S
C561 C580 1.368 1_655 S
C561 H585 0.949 . S
H562 C566 0.946 1_556 S
C563 C564 1.349 1_655 S
C563 C565 1.327 . S
C563 H586 0.950 . S
C564 C563 1.349 1_455 S
C564 C576 1.349 . S
C565 C563 1.327 . S
C565 C581 1.429 1_655 S
C565 H587 0.950 . S
C566 H562 0.946 1_554 S
C566 C574 1.581 . S
C566 C582 1.364 1_554 S
H567 C575 0.950 . S
H568 C573 0.950 . S
H569 C574 0.949 . S
H570 C576 0.950 . S
H571 C577 0.950 . S
H572 C578 0.949 . S
C573 H568 0.950 . S
C573 C575 1.327 . S
C573 C579 1.429 1_655 S
C574 C566 1.581 . S
C574 H569 0.949 . S
C574 C580 1.368 . S
C575 C559 1.349 1_655 S
C575 H567 0.950 . S
C575 C573 1.327 . S
C576 C564 1.349 . S
C576 H570 0.950 . S
C576 C577 1.327 . S
C577 H571 0.950 . S
C577 C576 1.327 . S
C577 C581 1.429 . S
C578 C561 1.574 1_556 S
C578 H572 0.949 . S
C578 C582 1.368 1_655 S
C579 C560 1.429 . S
C579 C573 1.429 1_455 S
C579 C580 1.523 . S
C580 C561 1.368 1_455 S
C580 C574 1.368 . S
C580 C579 1.523 . S
C581 C565 1.429 1_455 S
C581 C577 1.429 . S
C581 C582 1.523 . S
C582 C566 1.364 1_556 S
C582 C578 1.368 1_455 S
C582 C581 1.523 . S
H583 C558 0.950 . S
H584 C560 0.950 . S
H585 C561 0.949 . S
H586 C563 0.950 . S
H587 C565 0.950 . S
C588 C589 1.349 . S
C588 C590 1.327 . S
C588 H613 0.950 1_545 S
C589 C588 1.349 . S
C589 C605 1.349 . S
C590 C588 1.327 . S
C590 C609 1.429 . S
C590 H614 0.950 1_545 S
C591 C608 1.574 . S
C591 C610 1.368 . S
C591 H615 0.949 . S
H592 C596 0.949 1_565 S
C593 C594 1.349 . S
C593 C595 1.327 . S
C593 H616 0.950 . S
C594 C593 1.349 . S
C594 C606 1.349 . S
C595 C593 1.327 . S
C595 C611 1.429 . S
C595 H617 0.950 . S
C596 H592 0.949 1_545 S
C596 C604 1.574 . S
C596 C612 1.368 . S
H597 C605 0.950 . S
H598 C603 0.950 . S
H599 C604 0.949 1_565 S
H600 C606 0.950 1_565 S
H601 C607 0.950 1_565 S
H602 C608 0.949 . S
C603 H598 0.950 . S
C603 C605 1.327 . S
C603 C609 1.429 . S
C604 C596 1.574 . S
C604 H599 0.949 1_545 S
C604 C610 1.368 . S
C605 C589 1.349 . S
C605 H597 0.950 . S
C605 C603 1.327 . S
C606 C594 1.349 . S
C606 H600 0.950 1_545 S
C606 C607 1.327 . S
C607 H601 0.950 1_545 S
C607 C606 1.327 . S
C607 C611 1.429 . S
C608 C591 1.574 . S
C608 H602 0.949 . S
C608 C612 1.368 . S
C609 C590 1.429 . S
C609 C603 1.429 . S
C609 C610 1.523 . S
C610 C591 1.368 . S
C610 C604 1.368 . S
C610 C609 1.523 . S
C611 C595 1.429 . S
C611 C607 1.429 . S
C611 C612 1.523 . S
C612 C596 1.368 . S
C612 C608 1.368 . S
C612 C611 1.523 . S
H613 C588 0.950 1_565 S
H614 C590 0.950 1_565 S
H615 C591 0.949 . S
H616 C593 0.950 . S
H617 C595 0.950 . S
C618 C619 1.349 . S
C618 C620 1.327 . S
C618 H643 0.950 . S
C619 C618 1.349 . S
C619 C635 1.349 . S
C620 C618 1.327 . S
C620 C639 1.429 . S
C620 H644 0.950 . S
C621 C638 1.574 . S
C621 C640 1.368 . S
C621 H645 0.949 . S
H622 C626 0.949 . S
C623 C624 1.349 . S
C623 C625 1.327 . S
C623 H646 0.950 . S
C624 C623 1.349 . S
C624 C636 1.349 . S
C625 C623 1.327 . S
C625 C641 1.429 . S
C625 H647 0.950 . S
C626 H622 0.949 . S
C626 C634 1.574 . S
C626 C642 1.368 . S
H627 C635 0.950 . S
H628 C633 0.950 . S
H629 C634 0.949 . S
H630 C636 0.950 . S
H631 C637 0.950 . S
H632 C638 0.949 . S
C633 H628 0.950 . S
C633 C635 1.327 . S
C633 C639 1.429 . S
C634 C626 1.574 . S
C634 H629 0.949 . S
C634 C640 1.368 . S
C635 C619 1.349 . S
C635 H627 0.950 . S
C635 C633 1.327 . S
C636 C624 1.349 . S
C636 H630 0.950 . S
C636 C637 1.327 . S
C637 H631 0.950 . S
C637 C636 1.327 . S
C637 C641 1.429 . S
C638 C621 1.574 . S
C638 H632 0.949 . S
C638 C642 1.368 . S
C639 C620 1.429 . S
C639 C633 1.429 . S
C639 C640 1.523 . S
C640 C621 1.368 . S
C640 C634 1.368 . S
C640 C639 1.523 . S
C641 C625 1.429 . S
C641 C637 1.429 . S
C641 C642 1.523 . S
C642 C626 1.368 . S
C642 C638 1.368 . S
C642 C641 1.523 . S
H643 C618 0.950 . S
H644 C620 0.950 . S
H645 C621 0.949 . S
H646 C623 0.950 . S
H647 C625 0.950 . S
C648 C649 1.349 1_565 S
C648 C650 1.327 . S
C648 H673 0.950 . S
C649 C648 1.349 1_545 S
C649 C665 1.349 . S
C650 C648 1.327 . S
C650 C669 1.429 1_565 S
C650 H674 0.950 . S
C651 C668 1.574 . S
C651 C670 1.368 . S
C651 H675 0.949 . S
H652 C656 0.949 . S
C653 C654 1.349 . S
C653 C655 1.327 . S
C653 H676 0.950 . S
C654 C653 1.349 . S
C654 C666 1.349 1_545 S
C655 C653 1.327 . S
C655 C671 1.429 . S
C655 H677 0.950 . S
C656 H652 0.949 . S
C656 C664 1.574 . S
C656 C672 1.368 1_565 S
H657 C665 0.950 . S
H658 C663 0.950 . S
H659 C664 0.949 . S
H660 C666 0.950 . S
H661 C667 0.950 . S
H662 C668 0.949 . S
C663 H658 0.950 . S
C663 C665 1.327 . S
C663 C669 1.429 . S
C664 C656 1.574 . S
C664 H659 0.949 . S
C664 C670 1.368 1_565 S
C665 C649 1.349 . S
C665 H657 0.950 . S
C665 C663 1.327 . S
C666 C654 1.349 1_565 S
C666 H660 0.950 . S
C666 C667 1.327 . S
C667 H661 0.950 . S
C667 C666 1.327 . S
C667 C671 1.429 1_565 S
C668 C651 1.574 . S
C668 H662 0.949 . S
C668 C672 1.368 . S
C669 C650 1.429 1_545 S
C669 C663 1.429 . S
C669 C670 1.523 . S
C670 C651 1.368 . S
C670 C664 1.368 1_545 S
C670 C669 1.523 . S
C671 C655 1.429 . S
C671 C667 1.429 1_545 S
C671 C672 1.523 . S
C672 C656 1.368 1_545 S
C672 C668 1.368 . S
C672 C671 1.523 . S
H673 C648 0.950 . S
H674 C650 0.950 . S
H675 C651 0.949 . S
H676 C653 0.950 . S
H677 C655 0.950 . S
C678 C679 1.349 . S
C678 C680 1.327 . S
C678 H703 0.950 . S
C679 C678 1.349 . S
C679 C695 1.349 . S
C680 C678 1.327 . S
C680 C699 1.429 . S
C680 H704 0.950 . S
C681 C698 1.521 1_556 S
C681 C700 1.368 . S
C681 H705 0.949 . S
H682 C686 0.975 . S
C683 C684 1.349 . S
C683 C685 1.327 . S
C683 H706 0.950 . S
C684 C683 1.349 . S
C684 C696 1.349 . S
C685 C683 1.327 . S
C685 C701 1.429 . S
C685 H707 0.950 . S
C686 H682 0.975 . S
C686 C694 1.531 1_554 S
C686 C702 1.383 . S
H687 C695 0.950 . S
H688 C693 0.950 . S
H689 C694 0.949 . S
H690 C696 0.950 . S
H691 C697 0.950 . S
H692 C698 0.977 . S
C693 H688 0.950 . S
C693 C695 1.327 . S
C693 C699 1.429 . S
C694 C686 1.531 1_556 S
C694 H689 0.949 . S
C694 C700 1.368 . S
C695 C679 1.349 . S
C695 H687 0.950 . S
C695 C693 1.327 . S
C696 C684 1.349 . S
C696 H690 0.950 . S
C696 C697 1.327 . S
C697 H691 0.950 . S
C697 C696 1.327 . S
C697 C701 1.429 . S
C698 C681 1.521 1_554 S
C698 H692 0.977 . S
C698 C702 1.393 . S
C699 C680 1.429 . S
C699 C693 1.429 . S
C699 C700 1.523 . S
C700 C681 1.368 . S
C700 C694 1.368 . S
C700 C699 1.523 . S
C701 C685 1.429 . S
C701 C697 1.429 . S
C701 C702 1.523 . S
C702 C686 1.383 . S
C702 C698 1.393 . S
C702 C701 1.523 . S
H703 C678 0.950 . S
H704 C680 0.950 . S
H705 C681 0.949 . S
H706 C683 0.950 . S
H707 C685 0.950 . S
C708 C709 1.349 . S
C708 C710 1.327 . S
C708 H733 0.950 1_455 S
C709 C708 1.349 . S
C709 C725 1.349 . S
C710 C708 1.327 . S
C710 C729 1.429 . S
C710 H734 0.950 . S
C711 C728 1.574 . S
C711 C730 1.368 . S
C711 H735 0.949 . S
H712 C716 0.949 . S
C713 C714 1.349 . S
C713 C715 1.327 . S
C713 H736 0.950 . S
C714 C713 1.349 . S
C714 C726 1.349 . S
C715 C713 1.327 . S
C715 C731 1.429 . S
C715 H737 0.950 . S
C716 H712 0.949 . S
C716 C724 1.574 . S
C716 C732 1.368 . S
H717 C725 0.950 . S
H718 C723 0.950 . S
H719 C724 0.949 . S
H720 C726 0.950 . S
H721 C727 0.950 . S
H722 C728 0.949 . S
C723 H718 0.950 . S
C723 C725 1.327 . S
C723 C729 1.429 . S
C724 C716 1.574 . S
C724 H719 0.949 . S
C724 C730 1.368 . S
C725 C709 1.349 . S
C725 H717 0.950 . S
C725 C723 1.327 . S
C726 C714 1.349 . S
C726 H720 0.950 . S
C726 C727 1.327 . S
C727 H721 0.950 . S
C727 C726 1.327 . S
C727 C731 1.429 . S
C728 C711 1.574 . S
C728 H722 0.949 . S
C728 C732 1.368 . S
C729 C710 1.429 . S
C729 C723 1.429 . S
C729 C730 1.523 . S
C730 C711 1.368 . S
C730 C724 1.368 . S
C730 C729 1.523 . S
C731 C715 1.429 . S
C731 C727 1.429 . S
C731 C732 1.523 . S
C732 C716 1.368 . S
C732 C728 1.368 . S
C732 C731 1.523 . S
H733 C708 0.950 1_655 S
H734 C710 0.950 . S
H735 C711 0.949 . S
H736 C713 0.950 . S
H737 C715 0.950 . S
C199 C24 2.589 . S
C204 N187 2.561 . S
C229 C66 1.008 . S
C234 N160 1.014 . S
C259 C93 1.611 . S
C264 N173 1.622 1_565 S
C289 C13 3.336 . S
C294 N186 3.357 . S
C324 N161 1.292 . S
C319 C57 1.295 . S
C354 N174 1.936 . S
C349 C104 1.961 . S
C379 C64 1.786 . S
C384 N134 1.784 . S
C409 C97 0.236 . S
C414 N148 0.318 . S
C439 C17 1.283 . S
C444 N122 1.288 . S
C474 N135 1.776 . S
C469 C53 1.776 . S
C504 N147 0.422 . S
C499 C106 0.455 . S
C529 C26 1.022 . S
C534 N121 1.030 . S
C564 N151 1.263 . S
C559 C2 1.277 . S
C589 C63 1.542 . S
C594 N125 1.605 . S
C619 C82 1.453 . S
C624 N138 1.456 . S
C654 N177 1.562 . S
C649 C42 1.548 . S
C684 N190 1.721 . S
C679 C103 1.693 . S
C709 C23 1.510 . S
C714 N164 1.562 . S
