# Generated by pormake.
# Topology zzz, (3,6)-cn, num edge types: 1
# Building blocks:
#     Node 0, Type 0, BuildingBlock: PAMTOO_clean_linker_0, # of connection points: 3
#     Node 1, Type 0, BuildingBlock: PAMTOO_clean_linker_0, # of connection points: 3
#     Node 2, Type 0, BuildingBlock: PAMTOO_clean_linker_0, # of connection points: 3
#     Node 3, Type 0, BuildingBlock: PAMTOO_clean_linker_0, # of connection points: 3
#     Node 4, Type 0, BuildingBlock: PAMTOO_clean_linker_0, # of connection points: 3
#     Node 5, Type 0, BuildingBlock: PAMTOO_clean_linker_0, # of connection points: 3
#     Node 6, Type 0, BuildingBlock: PAMTOO_clean_linker_0, # of connection points: 3
#     Node 7, Type 0, BuildingBlock: PAMTOO_clean_linker_0, # of connection points: 3
#     Node 8, Type 1, BuildingBlock: KUMJIN_clean_sbu_0, # of connection points: 6
#     Node 9, Type 1, BuildingBlock: KUMJIN_clean_sbu_0, # of connection points: 6
#     Node 10, Type 1, BuildingBlock: KUMJIN_clean_sbu_0, # of connection points: 6
#     Node 11, Type 1, BuildingBlock: KUMJIN_clean_sbu_0, # of connection points: 6
#     Edge 12, Type (0, 1), BuildingBlock: OJICUG_clean_linker_0, # of connection points: 2
#     Edge 13, Type (0, 1), BuildingBlock: OJICUG_clean_linker_0, # of connection points: 2
#     Edge 14, Type (0, 1), BuildingBlock: OJICUG_clean_linker_0, # of connection points: 2
#     Edge 15, Type (0, 1), BuildingBlock: OJICUG_clean_linker_0, # of connection points: 2
#     Edge 16, Type (0, 1), BuildingBlock: OJICUG_clean_linker_0, # of connection points: 2
#     Edge 17, Type (0, 1), BuildingBlock: OJICUG_clean_linker_0, # of connection points: 2
#     Edge 18, Type (0, 1), BuildingBlock: OJICUG_clean_linker_0, # of connection points: 2
#     Edge 19, Type (0, 1), BuildingBlock: OJICUG_clean_linker_0, # of connection points: 2
#     Edge 20, Type (0, 1), BuildingBlock: OJICUG_clean_linker_0, # of connection points: 2
#     Edge 21, Type (0, 1), BuildingBlock: OJICUG_clean_linker_0, # of connection points: 2
#     Edge 22, Type (0, 1), BuildingBlock: OJICUG_clean_linker_0, # of connection points: 2
#     Edge 23, Type (0, 1), BuildingBlock: OJICUG_clean_linker_0, # of connection points: 2
#     Edge 24, Type (0, 1), BuildingBlock: OJICUG_clean_linker_0, # of connection points: 2
#     Edge 25, Type (0, 1), BuildingBlock: OJICUG_clean_linker_0, # of connection points: 2
#     Edge 26, Type (0, 1), BuildingBlock: OJICUG_clean_linker_0, # of connection points: 2
#     Edge 27, Type (0, 1), BuildingBlock: OJICUG_clean_linker_0, # of connection points: 2
#     Edge 28, Type (0, 1), BuildingBlock: OJICUG_clean_linker_0, # of connection points: 2
#     Edge 29, Type (0, 1), BuildingBlock: OJICUG_clean_linker_0, # of connection points: 2
#     Edge 30, Type (0, 1), BuildingBlock: OJICUG_clean_linker_0, # of connection points: 2
#     Edge 31, Type (0, 1), BuildingBlock: OJICUG_clean_linker_0, # of connection points: 2
#     Edge 32, Type (0, 1), BuildingBlock: OJICUG_clean_linker_0, # of connection points: 2
#     Edge 33, Type (0, 1), BuildingBlock: OJICUG_clean_linker_0, # of connection points: 2
#     Edge 34, Type (0, 1), BuildingBlock: OJICUG_clean_linker_0, # of connection points: 2
#     Edge 35, Type (0, 1), BuildingBlock: OJICUG_clean_linker_0, # of connection points: 2
# Relax obj value: 0.232
# Max RMSD: 0.184
# Mean RMSD: 0.118
data_MOF--net-zzz--node1-KUMJIN_clean_sbu_0--node2-PAMTOO_clean_linker_0--edge1-OJICUG_clean_linker_0
_symmetry_space_group_name_H-M    P1
_symmetry_Int_Tables_number       1
_symmetry_cell_setting            triclinic
loop_
_symmetry_equiv_pos_as_xyz
'x, y, z'
_cell_length_a     35.798573
_cell_length_b     35.798995
_cell_length_c     10.775979
_cell_angle_alpha  92.697835
_cell_angle_beta   89.731902
_cell_angle_gamma 89.856938
loop_
_atom_site_label
_atom_site_type_symbol
_atom_site_fract_x
_atom_site_fract_y
_atom_site_fract_z
_atom_type_partial_charge
H0 H 0.86998 0.48019 0.29314 0.0
H1 H 0.76963 0.50962 0.10662 0.0
H2 H 0.79754 0.56603 0.45674 0.0
H3 H 0.69816 0.56695 0.36341 0.0
C4 C 0.71029 0.5483 0.28846 0.0
O5 O 0.74682 0.5603 0.26572 0.0
H6 H 0.71096 0.5199 0.32644 0.0
C7 C 0.84417 0.49615 0.29452 0.0
C8 C 0.83732 0.5228 0.39187 0.0
C9 C 0.82008 0.49142 0.1931 0.0
C10 C 0.78767 0.51289 0.18695 0.0
C11 C 0.77842 0.53916 0.28185 0.0
C12 C 0.80373 0.54478 0.38477 0.0
H13 H 0.96193 0.85214 0.29504 0.0
H14 H 0.97825 0.73927 0.15427 0.0
H15 H 0.04763 0.78426 0.44786 0.0
H16 H 0.99262 0.69072 0.32613 0.0
C17 C 1.02238 0.68906 0.29791 0.0
O18 O 0.03546 0.72525 0.27928 0.0
H19 H 0.03763 0.67787 0.37775 0.0
C20 C 0.97579 0.82568 0.2987 0.0
C21 C 1.00365 0.822 0.38928 0.0
C22 C 0.96933 0.79775 0.204 0.0
C23 C 0.98516 0.76241 0.21793 0.0
C24 C 1.0144 0.75723 0.29975 0.0
C25 C 1.02412 0.78737 0.38638 0.0
H26 H 0.69238 0.10501 0.32702 0.0
H27 H 0.7937 0.0741 0.13913 0.0
H28 H 0.7652 1.02232 0.4804 0.0
H29 H 0.86547 1.02546 0.38193 0.0
C30 C 0.85235 0.03914 0.30249 0.0
O31 O 0.81593 1.02527 0.28891 0.0
H32 H 0.85175 0.06956 0.32945 0.0
C33 C 0.71822 0.08921 0.32751 0.0
C34 C 0.72492 0.06402 0.42167 0.0
C35 C 0.7432 0.09349 0.22875 0.0
C36 C 0.7752 0.07148 0.21807 0.0
C37 C 0.78412 0.04635 0.3083 0.0
C38 C 0.75878 0.04227 0.41113 0.0
H39 H 0.60115 0.73181 0.28156 0.0
H40 H 0.61303 0.84763 0.2026 0.0
H41 H 0.55361 0.81677 0.52972 0.0
H42 H 0.51606 0.89318 0.36525 0.0
C43 C 0.53972 0.8863 0.30101 0.0
O44 O 0.56918 0.8732 0.37248 0.0
H45 H 0.52924 0.86367 0.23584 0.0
C46 C 0.59792 0.76114 0.3091 0.0
C47 C 0.58036 0.77052 0.42333 0.0
C48 C 0.60733 0.78876 0.22509 0.0
C49 C 0.60394 0.82634 0.26379 0.0
C50 C 0.58141 0.83682 0.36478 0.0
C51 C 0.57012 0.80888 0.44822 0.0
H52 H 0.23084 0.48826 0.20739 0.0
H53 H 0.34581 0.47693 0.31179 0.0
H54 H 0.31697 0.53899 0.9933 0.0
H55 H 0.36513 0.55339 0.32382 0.0
C56 C 0.38613 0.54834 0.24835 0.0
O57 O 0.37279 0.52152 0.1597 0.0
H58 H 0.3885 0.5752 0.20134 0.0
C59 C 0.26022 0.49205 0.18766 0.0
C60 C 0.27003 0.51097 0.08093 0.0
C61 C 0.28718 0.482 0.27548 0.0
C62 C 0.32499 0.48608 0.24714 0.0
C63 C 0.33616 0.50967 0.15533 0.0
C64 C 0.3086 0.52173 0.06838 0.0
H65 H 0.05327 0.20644 0.23634 0.0
H66 H 0.06 0.32285 0.3432 0.0
H67 H 0.04623 0.28858 0.95793 0.0
H68 H 0.07439 0.39374 0.07382 0.0
C69 C 0.07379 0.37636 0.15604 0.0
O70 O 0.04799 0.34759 0.13165 0.0
H71 H 0.10244 0.36451 0.16359 0.0
C72 C 0.05578 0.23498 0.20936 0.0
C73 C 0.05217 0.24255 0.08291 0.0
C74 C 0.05821 0.26374 0.30284 0.0
C75 C 0.05913 0.30079 0.27073 0.0
C76 C 0.05471 0.31048 0.14878 0.0
C77 C 0.05148 0.28128 0.05262 0.0
H78 H 0.35686 0.08071 0.25297 0.0
H79 H 0.23835 0.09099 0.30874 0.0
H80 H 0.28149 0.03966 0.96819 0.0
H81 H 0.22165 1.00351 0.18993 0.0
C82 C 0.20074 1.025 0.16535 0.0
O83 O 0.21912 0.05497 0.11268 0.0
H84 H 0.18298 1.01135 0.09232 0.0
C85 C 0.32879 0.07801 0.21649 0.0
C86 C 0.32412 0.06176 0.09622 0.0
C87 C 0.29802 0.08749 0.2945 0.0
C88 C 0.26197 0.08378 0.24874 0.0
C89 C 0.25544 0.06445 0.1367 0.0
C90 C 0.28651 0.05414 0.05697 0.0
H91 H 0.54786 0.38684 0.22088 0.0
H92 H 0.53113 0.27735 0.35389 0.0
H93 H 0.53879 0.29209 0.95989 0.0
H94 H 0.58397 0.23777 0.24688 0.0
C95 C 0.56422 0.21976 0.19168 0.0
O96 O 0.53482 0.24124 0.1458 0.0
H97 H 0.58082 0.20846 0.11209 0.0
C98 C 0.54232 0.35738 0.20094 0.0
C99 C 0.54052 0.3438 0.07679 0.0
C100 C 0.54012 0.33318 0.29946 0.0
C101 C 0.53281 0.2955 0.27639 0.0
C102 C 0.53441 0.27965 0.15647 0.0
C103 C 0.53791 0.30393 0.05414 0.0
Eu104 Eu 0.0573 1.01885 0.83887 0.0
C105 C 0.95245 0.97723 0.48536 0.0
C106 C 0.99066 0.95545 0.31061 0.0
C107 C 0.9333 0.923 0.35589 0.0
C108 C 0.98349 0.98144 0.41026 0.0
C109 C 0.92658 0.94826 0.45699 0.0
C110 C 0.96545 0.92657 0.28345 0.0
C111 C 0.8878 0.9726 0.62478 0.0
N112 N 0.94709 1.00161 0.58429 0.0
C113 C 0.91408 1.00071 0.64949 0.0
C114 C 0.89434 0.94586 0.52938 0.0
Eu115 Eu 0.99427 0.04839 0.61815 0.0
N116 N 1.00676 1.01078 0.43377 0.0
C117 C 0.03415 1.01804 0.3493 0.0
C118 C 1.02314 0.95922 0.24069 0.0
C119 C 0.04454 0.9913 0.25792 0.0
H120 H 0.90647 1.02224 0.71802 0.0
H121 H 0.06853 0.99607 0.19948 0.0
H122 H 0.97041 0.90754 0.20439 0.0
H123 H 0.86213 0.97202 0.67812 0.0
H124 H 0.04826 0.04439 0.34932 0.0
H125 H 1.00199 0.10008 0.2466 0.0
H126 H 1.03131 0.93803 0.1715 0.0
H127 H 0.14987 1.01217 0.76186 0.0
H128 H 1.0047 0.04787 0.09634 0.0
H129 H 0.20608 0.0514 0.77565 0.0
H130 H 0.91362 0.90088 0.33236 0.0
H131 H 0.05399 0.14474 0.26445 0.0
H132 H 0.11556 0.167 0.18314 0.0
H133 H 0.87383 0.92417 0.51005 0.0
H134 H 0.17039 0.15508 0.04833 0.0
N135 N 0.05537 0.06477 1.00919 0.0
C136 C 1.02661 0.06807 0.09331 0.0
C137 C 0.05461 0.12286 0.19183 0.0
C138 C 0.08496 0.11861 0.11055 0.0
C139 C 1.02537 0.09746 0.18301 0.0
C140 C 0.08486 0.08845 1.02085 0.0
H141 H 0.20488 0.11138 0.89901 0.0
N142 N 0.11568 0.05064 0.86929 0.0
C143 C 0.18065 0.06064 0.82253 0.0
C144 C 0.1157 0.0816 0.94651 0.0
C145 C 0.14846 0.03863 0.81427 0.0
C146 C 0.17985 0.09447 0.89203 0.0
C147 C 0.14748 0.10482 0.95821 0.0
O148 O 0.09963 0.98036 0.90697 0.0
O149 O 1.01473 0.99481 0.69943 0.0
O150 O 0.96007 0.04791 0.79652 0.0
O151 O 0.99735 1.01178 0.91732 0.0
O152 O 0.06934 0.97507 0.68548 0.0
O153 O 0.04332 0.97866 0.9758 0.0
O154 O 0.94132 0.07165 0.55591 0.0
O155 O 0.03729 0.07242 0.75527 0.0
O156 O 0.09125 1.02267 0.66175 0.0
O157 O 0.05483 0.06226 0.55097 0.0
O158 O 0.9842 0.09531 0.76337 0.0
O159 O 0.99307 0.09107 0.48096 0.0
C160 C 0.03588 0.9698 0.64484 0.0
C161 C 0.06974 0.92126 0.90545 0.0
C162 C 1.02694 0.86929 0.85412 0.0
C163 C 0.0354 0.90309 0.91996 0.0
C164 C 0.0539 0.85422 0.76988 0.0
C165 C 0.0966 0.90475 0.82466 0.0
C166 C 0.08849 0.87164 0.75667 0.0
C167 C 0.96511 1.02882 0.89661 0.0
C168 C 0.0743 0.96002 0.95786 0.0
C169 C 0.14652 0.13661 0.03969 0.0
C170 C 0.11539 0.1433 0.11681 0.0
C171 C 1.01747 0.09892 0.80678 0.0
C172 C 0.95022 0.13663 0.55846 0.0
C173 C 0.97803 0.16356 0.55019 0.0
C174 C 0.97949 0.19463 0.63413 0.0
C175 C 0.95025 0.20094 0.71956 0.0
C176 C 0.92079 0.14325 0.64404 0.0
C177 C 0.92072 0.17546 0.72314 0.0
C178 C 0.08685 0.04392 0.56665 0.0
C179 C 0.95792 0.09885 0.50268 0.0
H180 H 1.01517 0.91572 0.98336 0.0
H181 H 0.04869 0.82893 0.71402 0.0
H182 H 0.12319 0.91823 0.80973 0.0
H183 H 0.10894 0.85964 0.692 0.0
H184 H 0.99978 0.15932 0.48048 0.0
H185 H 0.95024 0.22542 0.7826 0.0
H186 H 0.89891 0.12276 0.65419 0.0
H187 H 0.89828 0.18013 0.78975 0.0
Eu188 Eu 0.53116 0.0949 0.86444 0.0
C189 C 0.5782 0.94321 0.62157 0.0
C190 C 0.62367 0.95488 0.46132 0.0
C191 C 0.62777 0.89796 0.57429 0.0
C192 C 0.59234 0.96644 0.53405 0.0
C193 C 0.59491 0.90804 0.63912 0.0
C194 C 0.64205 0.9213 0.48513 0.0
C195 C 0.54245 0.89281 0.76842 0.0
N196 N 0.54616 0.95344 0.68156 0.0
C197 C 0.52697 0.92787 0.74817 0.0
C198 C 0.57705 0.88318 0.71615 0.0
Eu199 Eu 0.52335 1.01519 0.65346 0.0
N200 N 0.57371 0.99868 0.51257 0.0
C201 C 0.58278 1.01796 0.4096 0.0
C202 C 0.63481 0.97661 0.36355 0.0
C203 C 0.61378 1.00784 0.33609 0.0
H204 H 0.50033 0.93507 0.79011 0.0
H205 H 0.6209 1.02375 0.25637 0.0
H206 H 0.66643 0.91237 0.4315 0.0
H207 H 0.52777 0.87331 0.82484 0.0
H208 H 0.56579 0.04032 0.3781 0.0
H209 H 0.49604 0.07534 0.35363 0.0
H210 H 0.65858 0.96863 0.30552 0.0
H211 H 0.46968 0.11935 0.63655 0.0
H212 H 0.5375 0.07562 0.1725 0.0
H213 H 0.41244 0.15571 0.62199 0.0
H214 H 0.64123 0.87132 0.58777 0.0
H215 H 0.43525 0.10745 0.35239 0.0
H216 H 0.38896 0.14464 0.23695 0.0
H217 H 0.58892 0.85592 0.73152 0.0
H218 H 0.36733 0.16838 0.03969 0.0
N219 N 0.49631 0.09839 0.05442 0.0
C220 C 0.5095 0.08658 0.1649 0.0
C221 C 0.45225 0.10562 0.26879 0.0
C222 C 0.44028 0.12109 0.15944 0.0
C223 C 0.48671 0.08773 0.27041 0.0
C224 C 0.46275 0.11628 0.05147 0.0
H225 H 0.37609 0.17312 0.81118 0.0
N226 N 0.47007 0.11997 0.83477 0.0
C227 C 0.42284 0.14869 0.71217 0.0
C228 C 0.45005 0.12874 0.93957 0.0
C229 C 0.45617 0.12865 0.72142 0.0
C230 C 0.40243 0.15848 0.81903 0.0
C231 C 0.41539 0.14771 0.93412 0.0
O232 O 0.53804 0.15418 0.83283 0.0
O233 O 0.56168 0.0599 0.71781 0.0
O234 O 0.54971 0.99469 0.83231 0.0
O235 O 0.5377 0.04259 0.98039 0.0
O236 O 0.59279 0.07539 0.86719 0.0
O237 O 0.56274 0.13061 0.99479 0.0
O238 O 0.49333 0.97134 0.54714 0.0
O239 O 0.48959 0.05601 0.77749 0.0
O240 O 0.53494 0.12042 0.67563 0.0
O241 O 0.53498 0.0684 0.53845 0.0
O242 O 0.4794 1.0005 0.80002 0.0
O243 O 0.4785 1.02879 0.52704 0.0
C244 C 0.59435 0.05704 0.76084 0.0
C245 C 0.59702 0.17703 0.89148 0.0
C246 C 0.66471 0.1794 0.90514 0.0
C247 C 0.63082 0.16178 0.9293 0.0
C248 C 0.66512 0.21241 0.8405 0.0
C249 C 0.5975 0.20994 0.82526 0.0
C250 C 0.63147 0.22737 0.79922 0.0
C251 C 0.54713 1.00741 0.94959 0.0
C252 C 0.56139 0.15926 0.92392 0.0
C253 C 0.39398 0.15401 0.04245 0.0
C254 C 0.40622 0.1404 0.1546 0.0
C255 C 0.46925 0.03366 0.83655 0.0
C256 C 0.42931 0.98711 0.55683 0.0
C257 C 0.40249 1.01474 0.54128 0.0
C258 C 0.36941 1.0159 0.61184 0.0
C259 C 0.36174 0.9867 0.69072 0.0
C260 C 0.42114 0.95771 0.63481 0.0
C261 C 0.38735 0.95745 0.70046 0.0
C262 C 0.5365 0.10553 0.56146 0.0
C263 C 0.46761 0.99422 0.51308 0.0
H264 H 0.63096 0.13676 0.98232 0.0
H265 H 0.69117 0.22668 0.8236 0.0
H266 H 0.57165 0.22233 0.79497 0.0
H267 H 0.63163 0.25286 0.74904 0.0
H268 H 0.40848 0.03646 0.47728 0.0
H269 H 0.33633 0.9867 0.74562 0.0
H270 H 0.44141 0.93587 0.64948 0.0
H271 H 0.38152 0.93513 0.762 0.0
Eu272 Eu 0.59473 0.54792 0.64256 0.0
C273 C 0.44187 0.51613 0.87133 0.0
C274 C 0.39613 0.53316 0.71863 0.0
C275 C 0.38246 0.48329 0.857 0.0
C276 C 0.43201 0.53702 0.77137 0.0
C277 C 0.417 0.48923 0.91578 0.0
C278 C 0.37186 0.50551 0.75958 0.0
C279 C 0.45953 0.47993 0.08468 0.0
N280 N 0.47481 0.52369 0.92978 0.0
C281 C 0.48259 0.50782 0.04025 0.0
C282 C 0.42692 0.47011 1.02105 0.0
Eu283 Eu 0.51465 0.56733 0.83292 0.0
N284 N 0.45599 0.56356 0.73346 0.0
C285 C 0.4444 0.58962 0.65334 0.0
C286 C 0.38498 0.55857 0.63117 0.0
C287 C 0.40893 0.58735 0.60033 0.0
H288 H 0.5072 0.51537 0.09263 0.0
H289 H 0.40008 0.60781 0.53568 0.0
H290 H 0.34439 0.50183 0.71925 0.0
H291 H 0.4668 0.46623 0.16869 0.0
H292 H 0.46237 0.61234 0.62978 0.0
H293 H 0.71608 0.63315 0.77113 0.0
H294 H 0.35746 0.55735 0.59084 0.0
H295 H 0.55525 0.53751 0.34399 0.0
H296 H 0.66918 0.58369 0.79227 0.0
H297 H 0.54337 0.57909 0.18005 0.0
H298 H 0.36305 0.46271 0.88976 0.0
H299 H 0.71574 0.67142 0.58585 0.0
H300 H 0.68654 0.68582 0.38225 0.0
H301 H 0.40875 0.449 0.05726 0.0
H302 H 0.63869 0.67182 0.22398 0.0
N303 N 0.64214 0.59371 0.62222 0.0
C304 C 0.66869 0.60007 0.71135 0.0
C305 C 0.69534 0.64937 0.59426 0.0
C306 C 0.66895 0.64189 0.50114 0.0
C307 C 0.69549 0.62799 0.69916 0.0
C308 C 0.64315 0.61266 0.51624 0.0
H309 H 0.58364 0.63407 0.15226 0.0
N310 N 0.5947 0.57349 0.43928 0.0
C311 C 0.56539 0.58565 0.2451 0.0
C312 C 0.6175 0.60346 0.42479 0.0
C313 C 0.57109 0.56284 0.34463 0.0
C314 C 0.58755 0.61699 0.23161 0.0
C315 C 0.6152 0.6253 0.31911 0.0
O316 O 0.63809 0.51464 0.54546 0.0
O317 O 0.53229 0.55719 0.63585 0.0
O318 O 0.51829 0.50345 0.81924 0.0
O319 O 0.57944 0.49475 0.75094 0.0
O320 O 0.55143 0.51195 0.53171 0.0
O321 O 0.63946 0.52296 0.74601 0.0
O322 O 0.52639 0.6118 0.97265 0.0
O323 O 0.57794 0.56869 0.8308 0.0
O324 O 0.59002 0.61039 0.69822 0.0
O325 O 0.52663 0.61274 0.69016 0.0
O326 O 0.55361 0.54662 0.98357 0.0
O327 O 0.47038 0.6044 0.90823 0.0
C328 C 0.52141 0.53073 0.5625 0.0
C329 C 0.6591 0.4652 0.66657 0.0
C330 C 0.63056 0.40371 0.65462 0.0
C331 C 0.63299 0.44031 0.61545 0.0
C332 C 0.65703 0.39099 0.73892 0.0
C333 C 0.68518 0.45267 0.75215 0.0
C334 C 0.68446 0.41544 0.7866 0.0
C335 C 0.54822 0.48201 0.80248 0.0
C336 C 0.65388 0.50517 0.64916 0.0
C337 C 0.64003 0.65509 0.30498 0.0
C338 C 0.66726 0.66301 0.39491 0.0
C339 C 0.58523 0.55453 0.9339 0.0
C340 C 0.49441 0.66564 0.91519 0.0
C341 C 0.52633 0.68736 0.93551 0.0
C342 C 0.53266 0.71975 0.86993 0.0
C343 C 0.50492 0.73173 0.7887 0.0
C344 C 0.46679 0.67815 0.83435 0.0
C345 C 0.47203 0.71115 0.77219 0.0
C346 C 0.55936 0.62941 0.67571 0.0
C347 C 0.49389 0.62742 0.96111 0.0
H348 H 0.61332 0.45014 0.54804 0.0
H349 H 0.65603 0.36264 0.76963 0.0
H350 H 0.70514 0.47188 0.79509 0.0
H351 H 0.70445 0.40585 0.85318 0.0
H352 H 0.5466 0.6784 1.00231 0.0
H353 H 0.50864 0.75679 0.7376 0.0
H354 H 0.44176 0.66194 0.81607 0.0
H355 H 0.4509 0.72038 0.70891 0.0
Eu356 Eu 0.06174 0.56969 0.65009 0.0
C357 C 0.10413 0.4733 0.05561 0.0
C358 C 0.14577 0.42349 0.98098 0.0
C359 C 0.15627 0.45415 0.18293 0.0
C360 C 0.11516 0.44758 0.9632 0.0
C361 C 0.12517 0.47721 0.16593 0.0
C362 C 0.16636 0.42704 0.09124 0.0
C363 C 0.08205 0.52478 0.23904 0.0
N364 N 0.07276 0.49411 0.03852 0.0
C365 C 0.0603 0.51759 0.1339 0.0
C366 C 0.11453 0.50438 0.25597 0.0
Eu367 Eu 0.0475 0.49073 0.83134 0.0
N368 N 0.09598 0.4462 0.85499 0.0
C369 C 0.10341 0.41873 0.76599 0.0
C370 C 0.15463 0.39646 0.88747 0.0
C371 C 0.13296 0.39371 0.7802 0.0
H372 H 0.03406 0.53196 0.13191 0.0
H373 H 0.13902 0.37241 0.70829 0.0
H374 H 0.19011 0.40902 0.10644 0.0
H375 H 0.07351 0.54635 0.30629 0.0
H376 H 0.08655 0.41605 0.68382 0.0
H377 H 0.09074 0.69089 0.95967 0.0
H378 H 0.17776 0.3773 0.8979 0.0
H379 H 1.01046 0.5712 0.37825 0.0
H380 H 0.10203 0.62846 0.85916 0.0
H381 H 0.95619 0.60459 0.30247 0.0
H382 H 0.17216 0.45662 0.26796 0.0
H383 H 0.03528 0.72737 0.9037 0.0
H384 H 0.97846 0.73335 0.76732 0.0
H385 H 0.13071 0.50914 0.33975 0.0
H386 H 0.94093 0.70888 0.59243 0.0
N387 N 0.05269 0.62918 0.75041 0.0
C388 C 0.07755 0.64407 0.83451 0.0
C389 C 0.03984 0.69997 0.85961 0.0
C390 C 1.01575 0.68554 0.76737 0.0
C391 C 0.07134 0.6795 0.89118 0.0
C392 C 1.02362 0.64996 0.7114 0.0
H393 H 0.93147 0.66011 0.42088 0.0
N394 N 1.01496 0.60481 0.5475 0.0
C395 C 0.96905 0.61383 0.38924 0.0
C396 C 1.00374 0.63712 0.60814 0.0
C397 C 0.99994 0.59472 0.43378 0.0
C398 C 0.95508 0.64504 0.45664 0.0
C399 C 0.97364 0.65819 0.56391 0.0
O400 O 0.10584 0.55964 0.51276 0.0
O401 O 0.06687 0.50638 0.64539 0.0
O402 O 0.10956 0.49785 0.78249 0.0
O403 O 0.10909 0.56135 0.79662 0.0
O404 O 0.04205 0.52872 0.4949 0.0
O405 O 0.09642 0.61544 0.5855 0.0
O406 O 1.01792 0.4458 0.92039 0.0
O407 O 0.05417 0.55346 0.84472 0.0
O408 O 0.99797 0.56241 0.65694 0.0
O409 O 0.99196 0.50251 0.72843 0.0
O410 O 1.00951 0.5333 0.9398 0.0
O411 O 1.02407 0.44452 0.71907 0.0
C412 C 0.05188 0.49779 0.54111 0.0
C413 C 0.1586 0.59353 0.57921 0.0
C414 C 0.21378 0.55637 0.62392 0.0
C415 C 0.18136 0.56229 0.55476 0.0
C416 C 0.225 0.58421 0.71237 0.0
C417 C 0.17034 0.62124 0.66727 0.0
C418 C 0.20357 0.61664 0.7325 0.0
C419 C 0.12736 0.52935 0.81078 0.0
C420 C 0.12011 0.59274 0.53046 0.0
C421 C 0.96392 0.69229 0.62515 0.0
C422 C 0.98526 0.70618 0.72546 0.0
C423 C 1.02728 0.56369 0.91512 0.0
C424 C 0.97349 0.41118 0.79732 0.0
C425 C 0.94175 0.42806 0.85136 0.0
C426 C 0.90675 0.41084 0.83808 0.0
C427 C 0.90344 0.37689 0.76883 0.0
C428 C 0.96993 0.37749 0.72631 0.0
C429 C 0.93499 0.36051 0.71182 0.0
C430 C 0.97761 0.53233 0.67598 0.0
C431 C 1.01059 0.42786 0.81437 0.0
H432 H 0.17301 0.54202 0.48256 0.0
H433 H 0.25001 0.58086 0.76683 0.0
H434 H 0.1533 0.64574 0.68897 0.0
H435 H 0.21219 0.6378 0.80144 0.0
H436 H 0.94438 0.45401 0.90678 0.0
H437 H 0.87663 0.36308 0.75971 0.0
H438 H 0.99424 0.36417 0.68305 0.0
H439 H 0.93247 0.33437 0.65787 0.0
C440 C 0.15001 0.06529 0.28373 0.0
C441 C 0.17524 0.03495 0.27911 0.0
H442 H 0.10292 0.09291 0.37634 0.0
C443 C 0.1719 1.00928 0.37365 0.0
H444 H 0.15169 0.08534 0.21307 0.0
C445 C 0.1443 1.01331 0.46702 0.0
C446 C 0.11816 0.04302 0.47007 0.0
H447 H 0.19 0.98498 0.37311 0.0
H448 H 0.14265 0.99191 0.53451 0.0
C449 C 0.12197 0.06942 0.37748 0.0
C450 C 0.52406 0.19193 0.36537 0.0
C451 C 0.55253 0.18768 0.27511 0.0
H452 H 0.49702 0.17 0.52498 0.0
C453 C 0.57512 0.15522 0.27866 0.0
H454 H 0.50655 0.21661 0.36879 0.0
C455 C 0.56926 0.12792 0.36744 0.0
C456 C 0.54104 0.13243 0.45823 0.0
H457 H 0.59837 0.15147 0.21457 0.0
H458 H 0.58787 0.10406 0.36797 0.0
C459 C 0.51866 0.165 0.45572 0.0
C460 C 0.45105 0.56811 0.32676 0.0
C461 C 0.42398 0.53955 0.31231 0.0
H462 H 0.50067 0.58867 0.41831 0.0
C463 C 0.43009 0.50712 0.37991 0.0
H464 H 0.44734 0.59405 0.28042 0.0
C465 C 0.46189 0.5036 0.45789 0.0
C466 C 0.48794 0.53301 0.47553 0.0
H467 H 0.4098 0.48479 0.37513 0.0
H468 H 0.4653 0.47836 0.5083 0.0
C469 C 0.48196 0.56507 0.40691 0.0
C470 C 1.0317 0.42393 0.27929 0.0
C471 C 0.06474 0.40245 0.27163 0.0
H472 H 1.00163 0.46974 0.37087 0.0
C473 C 0.09236 0.41078 0.36235 0.0
H474 H 1.01024 0.41945 0.20971 0.0
C475 C 0.08769 0.44016 0.45406 0.0
C476 C 0.05483 0.46188 0.4608 0.0
H477 H 0.11877 0.39596 0.3579 0.0
H478 H 0.11089 0.4474 0.51458 0.0
C479 C 1.02686 0.45299 0.37199 0.0
C480 C 0.90368 1.00354 0.1763 0.0
C481 C 0.8775 1.03308 0.1857 0.0
H482 H 0.95168 0.97895 0.08128 0.0
C483 C 0.87912 0.05972 0.09353 0.0
H484 H 0.9032 0.98253 0.24455 0.0
C485 C 0.90656 0.05751 0.99846 0.0
C486 C 0.93394 1.02892 0.99282 0.0
H487 H 0.86007 0.08327 0.09779 0.0
H488 H 0.90716 0.07924 0.93184 0.0
C489 C 0.93163 1.00165 0.0827 0.0
C490 C 0.57101 0.91737 0.11494 0.0
C491 C 0.5489 0.92055 0.22371 0.0
H492 H 0.58853 0.94198 0.94553 0.0
C493 C 0.52923 0.95442 0.2456 0.0
H494 H 0.58584 0.89176 0.09128 0.0
C495 C 0.53049 0.98337 0.1612 0.0
C496 C 0.55119 0.97947 0.04987 0.0
H497 H 0.51092 0.95773 0.32489 0.0
H498 H 0.51327 1.00785 0.18001 0.0
C499 C 0.57217 0.94627 0.02978 0.0
C500 C 0.65955 0.51757 0.15154 0.0
C501 C 0.68344 0.54839 0.17558 0.0
H502 H 0.61098 0.49537 0.05753 0.0
C503 C 0.67633 0.58078 0.10921 0.0
H504 H 0.66297 0.49247 0.20269 0.0
C505 C 0.64608 0.58234 0.02432 0.0
C506 C 0.62197 0.55155 1.00251 0.0
H507 H 0.69292 0.60563 0.12798 0.0
H508 H 0.6402 0.60849 0.98164 0.0
C509 C 0.62947 0.51921 0.06769 0.0
C510 C 0.99459 0.65166 0.10879 0.0
C511 C 1.02582 0.66076 0.18434 0.0
H512 H 0.97023 0.61433 0.96791 0.0
C513 C 0.05802 0.63831 0.16562 0.0
H514 H 0.96894 0.66749 0.12146 0.0
C515 C 0.05874 0.60776 0.07694 0.0
C516 C 1.02722 0.59816 1.00358 0.0
H517 H 0.08239 0.64361 0.22284 0.0
H518 H 0.08403 0.59121 0.06688 0.0
C519 C 0.99515 0.62075 1.0213 0.0
C520 C 1.0192 0.2747 0.49182 0.0
C521 C 0.04957 0.25586 0.43294 0.0
H522 H 0.97256 0.26946 0.61328 0.0
C523 C 0.06474 0.22445 0.4868 0.0
H524 H 1.00727 0.29956 0.45409 0.0
C525 C 0.04531 0.20801 0.5822 0.0
C526 C 1.0097 0.22179 0.61737 0.0
H527 H 0.08874 0.2101 0.44531 0.0
H528 H 0.05438 0.18072 0.60936 0.0
C529 C 0.99934 0.25769 0.58479 0.0
C530 C 0.33604 0.10308 0.48028 0.0
C531 C 0.30307 0.0881 0.43038 0.0
H532 H 0.38481 0.09026 0.57957 0.0
C533 C 0.28476 0.05977 0.4939 0.0
H534 H 0.34976 0.12618 0.43739 0.0
C535 C 0.30504 0.03855 0.57503 0.0
C536 C 0.34278 0.04686 0.59475 0.0
H537 H 0.25808 0.04878 0.46255 0.0
H538 H 0.29312 1.01251 0.60354 0.0
C539 C 0.35626 0.08208 0.56186 0.0
C540 C 0.54363 0.37838 0.48089 0.0
C541 C 0.55538 0.345 0.42092 0.0
H542 H 0.5579 0.42267 0.60921 0.0
C543 C 0.58707 0.32628 0.46401 0.0
H544 H 0.519 0.39288 0.44995 0.0
C545 C 0.60983 0.34354 0.55371 0.0
C546 C 0.60089 0.37952 0.60106 0.0
H547 H 0.59655 0.30025 0.41882 0.0
H548 H 0.63629 0.33059 0.57472 0.0
C549 C 0.56599 0.39526 0.57217 0.0
C550 C 0.29563 0.50621 0.49205 0.0
C551 C 0.27633 0.4817 0.40875 0.0
H552 H 0.29006 0.55089 0.62769 0.0
C553 C 0.24055 0.47001 0.44287 0.0
H554 H 0.32407 0.51441 0.474 0.0
C555 C 0.22098 0.4906 0.53532 0.0
C556 C 0.23725 0.52309 0.59105 0.0
H557 H 0.22594 0.44903 0.38641 0.0
H558 H 0.19164 0.48454 0.5488 0.0
C559 C 0.27595 0.52746 0.58166 0.0
C560 C 0.94677 0.84516 0.05479 0.0
C561 C 0.95867 0.80852 0.07528 0.0
H562 H 0.95815 0.89451 0.95712 0.0
C563 C 0.97551 0.78885 0.97298 0.0
H564 H 0.92885 0.86019 0.12113 0.0
C565 C 0.99406 0.80852 0.88306 0.0
C566 C 0.99296 0.84773 0.88932 0.0
H567 H 0.98086 0.75925 0.97297 0.0
H568 H 1.01311 0.79298 0.82202 0.0
C569 C 0.96397 0.86491 0.96106 0.0
C570 C 0.725 0.15703 0.16673 0.0
C571 C 0.73406 0.1198 0.13236 0.0
H572 H 0.69689 0.20668 0.11468 0.0
C573 C 0.72903 0.10653 1.00899 0.0
H574 H 0.72898 0.16776 0.26145 0.0
C575 C 0.71079 0.12879 0.92523 0.0
C576 C 0.698 0.16456 0.96406 0.0
H577 H 0.73582 0.07785 0.98093 0.0
H578 H 0.7031 0.11665 0.83495 0.0
C579 C 0.70728 0.17944 0.08249 0.0
C580 C 0.58182 0.79961 1.0164 0.0
C581 C 0.6065 0.77915 0.08952 0.0
H582 H 0.53794 0.79605 0.8847 0.0
C583 C 0.61828 0.74375 0.04358 0.0
H584 H 0.57282 0.82757 0.04468 0.0
C585 C 0.59828 0.72566 0.94769 0.0
C586 C 0.56599 0.74274 0.90126 0.0
H587 H 0.63883 0.72806 0.09322 0.0
H588 H 0.60428 0.69643 0.92536 0.0
C589 C 0.56135 0.78131 0.92292 0.0
C590 C 0.84136 0.42963 0.10395 0.0
C591 C 0.83208 0.46712 0.0866 0.0
H592 H 0.87198 0.38162 0.03368 0.0
C593 C 0.84129 0.48328 0.97446 0.0
H594 H 0.83459 0.41688 0.19043 0.0
C595 C 0.86304 0.46342 0.88623 0.0
C596 C 0.87504 0.42705 0.9085 0.0
H597 H 0.83468 0.51232 0.9602 0.0
H598 H 0.87278 0.47738 0.80531 0.0
C599 C 0.86253 0.40954 1.01458 0.0
C600 C 0.0695 0.19126 0.91319 0.0
C601 C 0.04286 0.20918 0.99389 0.0
H602 H 0.08352 0.1429 0.79192 0.0
C603 C 1.0088 0.19019 1.00906 0.0
H604 H 0.09646 0.20419 0.90043 0.0
C605 C 1.00172 0.15499 0.949 0.0
C606 C 1.02856 0.13615 0.87233 0.0
H607 H 0.98771 0.2022 0.07146 0.0
H608 H 0.97499 0.14191 0.96521 0.0
C609 C 0.06238 0.15551 0.85275 0.0
C610 C 0.36712 0.06538 0.90496 0.0
C611 C 0.35953 0.05117 1.02214 0.0
H612 H 0.40745 0.07165 0.75795 0.0
C613 C 0.38889 1.03112 0.07711 0.0
H614 H 0.34601 0.08153 0.85964 0.0
C615 C 0.42413 1.02577 1.018 0.0
C616 C 0.43213 0.04126 0.90308 0.0
H617 H 0.38474 1.01982 0.16762 0.0
H618 H 0.44548 1.01001 0.06373 0.0
C619 C 0.40269 0.06041 0.84719 0.0
C620 C 0.5116 0.38928 0.92902 0.0
C621 C 0.54384 0.37298 0.97884 0.0
H622 H 0.48755 0.43536 0.83459 0.0
C623 C 0.57793 0.39206 0.96246 0.0
H624 H 0.48459 0.37661 0.94352 0.0
C625 C 0.5796 0.42627 0.90138 0.0
C626 C 0.54723 0.44313 0.85473 0.0
H627 H 0.60321 0.38153 1.0034 0.0
H628 H 0.60615 0.44052 0.89634 0.0
C629 C 0.51327 0.42355 0.86811 0.0
C630 C 0.22435 0.49223 0.90819 0.0
C631 C 0.23803 0.52008 0.99319 0.0
H632 H 0.18024 0.47326 0.78549 0.0
C633 C 0.21499 0.55199 1.01473 0.0
H634 H 0.24005 0.46654 0.89203 0.0
C635 C 0.18 0.55582 0.95358 0.0
C636 C 0.16621 0.52758 0.86975 0.0
H637 H 0.22333 0.57345 0.08311 0.0
H638 H 0.16316 0.58045 0.97528 0.0
C639 C 0.18943 0.49589 0.84808 0.0
C640 C 0.98701 0.87515 0.55048 0.0
C641 C 1.0135 0.8572 0.46917 0.0
H642 H 0.97286 0.92322 0.67201 0.0
C643 C 0.0467 0.87705 0.44808 0.0
H644 H 0.96075 0.8614 0.56833 0.0
C645 C 0.05289 0.91323 0.50366 0.0
C646 C 1.02621 0.93162 0.58279 0.0
H647 H 0.06751 0.86514 0.38451 0.0
H648 H 0.0788 0.92725 0.48293 0.0
C649 C 0.99356 0.91122 0.60819 0.0
C650 C 0.68444 1.0279 0.57752 0.0
C651 C 0.69496 0.06165 0.52382 0.0
H652 H 0.64542 0.99986 0.69617 0.0
C653 C 0.67333 0.09374 0.55944 0.0
H654 H 0.70003 1.00251 0.55516 0.0
C655 C 0.64111 0.0917 0.63431 0.0
C656 C 0.62938 0.05778 0.6815 0.0
H657 H 0.68082 0.12093 0.52738 0.0
H658 H 0.62513 0.117 0.65511 0.0
C659 C 0.65248 1.02618 0.65659 0.0
C660 C 0.53869 0.71698 0.4892 0.0
C661 C 0.5714 0.73859 0.50637 0.0
H662 H 0.50892 0.6664 0.52855 0.0
C663 C 0.59939 0.72413 0.58232 0.0
H664 H 0.51709 0.72627 0.42769 0.0
C665 C 0.59501 0.68949 0.63852 0.0
C666 C 0.56249 0.66768 0.62109 0.0
H667 H 0.62552 0.73901 0.59441 0.0
H668 H 0.61759 0.67946 0.69467 0.0
C669 C 0.5342 0.6823 0.54619 0.0
C670 C 0.88565 0.49461 0.53412 0.0
C671 C 0.86776 0.52693 0.49104 0.0
H672 H 0.93329 0.47062 0.62208 0.0
C673 C 0.88434 0.56161 0.52511 0.0
H674 H 0.87399 0.46722 0.51202 0.0
C675 C 0.91855 0.56348 0.59174 0.0
C676 C 0.93792 0.53088 0.62487 0.0
H677 H 0.87205 0.58723 0.49441 0.0
H678 H 0.93046 0.59061 0.61441 0.0
C679 C 0.91998 0.4965 0.59836 0.0
loop_
_geom_bond_atom_site_label_1
_geom_bond_atom_site_label_2
_geom_bond_distance
_geom_bond_site_symmetry_2
_ccdc_geom_bond_type
H0 C7 0.929 . S
H1 C10 0.930 . S
H2 C12 0.929 . S
H3 C4 0.969 . S
C4 H3 0.969 . S
C4 O5 1.550 . S
C4 H6 0.973 . S
O5 C4 1.550 . S
O5 C11 1.412 . S
H6 C4 0.973 . S
C7 H0 0.929 . S
C7 C8 1.400 . S
C7 C9 1.364 . S
C8 C7 1.400 . S
C8 C12 1.377 . S
C9 C7 1.364 . S
C9 C10 1.374 . S
C10 H1 0.930 . S
C10 C9 1.374 . S
C10 C11 1.383 . S
C11 O5 1.412 . S
C11 C10 1.383 . S
C11 C12 1.394 . S
C12 H2 0.929 . S
C12 C8 1.377 . S
C12 C11 1.394 . S
H13 C20 0.929 . S
H14 C23 0.930 . S
H15 C25 0.929 . S
H16 C17 0.969 . S
C17 H16 0.969 . S
C17 O18 1.550 . S
C17 H19 0.973 . S
O18 C17 1.550 . S
O18 C24 1.412 . S
H19 C17 0.973 . S
C20 H13 0.929 . S
C20 C21 1.400 . S
C20 C22 1.364 . S
C21 C20 1.400 . S
C21 C25 1.377 . S
C22 C20 1.364 . S
C22 C23 1.374 . S
C23 H14 0.930 . S
C23 C22 1.374 . S
C23 C24 1.383 . S
C24 O18 1.412 . S
C24 C23 1.383 . S
C24 C25 1.394 . S
C25 H15 0.929 . S
C25 C21 1.377 . S
C25 C24 1.394 . S
H26 C33 0.929 . S
H27 C36 0.930 . S
H28 C38 0.929 . S
H29 C30 0.941 1_545 S
C30 H29 0.941 1_565 S
C30 O31 1.550 . S
C30 H32 0.973 . S
O31 C30 1.550 . S
O31 C37 1.412 . S
H32 C30 0.973 . S
C33 H26 0.929 . S
C33 C34 1.400 . S
C33 C35 1.364 . S
C34 C33 1.400 . S
C34 C38 1.377 . S
C35 C33 1.364 . S
C35 C36 1.374 . S
C36 H27 0.930 . S
C36 C35 1.374 . S
C36 C37 1.383 . S
C37 O31 1.412 . S
C37 C36 1.383 . S
C37 C38 1.394 . S
C38 H28 0.929 . S
C38 C34 1.377 . S
C38 C37 1.394 . S
H39 C46 0.929 . S
H40 C49 0.930 . S
H41 C51 0.929 . S
H42 C43 0.969 . S
C43 H42 0.969 . S
C43 O44 1.550 . S
C43 H45 0.973 . S
O44 C43 1.550 . S
O44 C50 1.412 . S
H45 C43 0.973 . S
C46 H39 0.929 . S
C46 C47 1.400 . S
C46 C48 1.364 . S
C47 C46 1.400 . S
C47 C51 1.377 . S
C48 C46 1.364 . S
C48 C49 1.374 . S
C49 H40 0.930 . S
C49 C48 1.374 . S
C49 C50 1.383 . S
C50 O44 1.412 . S
C50 C49 1.383 . S
C50 C51 1.394 . S
C51 H41 0.929 . S
C51 C47 1.377 . S
C51 C50 1.394 . S
H52 C59 0.929 . S
H53 C62 0.930 . S
H54 C64 0.929 . S
H55 C56 0.969 . S
C56 H55 0.969 . S
C56 O57 1.550 . S
C56 H58 0.973 . S
O57 C56 1.550 . S
O57 C63 1.412 . S
H58 C56 0.973 . S
C59 H52 0.929 . S
C59 C60 1.400 . S
C59 C61 1.364 1_556 S
C60 C59 1.400 . S
C60 C64 1.377 . S
C61 C59 1.364 1_554 S
C61 C62 1.374 . S
C62 H53 0.930 . S
C62 C61 1.374 . S
C62 C63 1.383 . S
C63 O57 1.412 . S
C63 C62 1.383 . S
C63 C64 1.394 1_554 S
C64 H54 0.929 . S
C64 C60 1.377 . S
C64 C63 1.394 1_556 S
H65 C72 0.929 . S
H66 C75 0.930 . S
H67 C77 0.929 . S
H68 C69 0.969 . S
C69 H68 0.969 . S
C69 O70 1.550 . S
C69 H71 0.973 . S
O70 C69 1.550 . S
O70 C76 1.412 . S
H71 C69 0.973 . S
C72 H65 0.929 . S
C72 C73 1.400 . S
C72 C74 1.364 1_556 S
C73 C72 1.400 . S
C73 C77 1.377 . S
C74 C72 1.364 1_554 S
C74 C75 1.374 . S
C75 H66 0.930 . S
C75 C74 1.374 . S
C75 C76 1.383 . S
C76 O70 1.412 . S
C76 C75 1.383 . S
C76 C77 1.394 1_554 S
C77 H67 0.929 . S
C77 C73 1.377 . S
C77 C76 1.394 1_556 S
H78 C85 0.929 . S
H79 C88 0.930 . S
H80 C90 0.929 . S
H81 C82 0.969 . S
C82 H81 0.969 . S
C82 O83 1.550 . S
C82 H84 0.973 . S
O83 C82 1.550 . S
O83 C89 1.412 . S
H84 C82 0.973 . S
C85 H78 0.929 . S
C85 C86 1.400 . S
C85 C87 1.364 1_556 S
C86 C85 1.400 . S
C86 C90 1.377 . S
C87 C85 1.364 1_554 S
C87 C88 1.374 . S
C88 H79 0.930 . S
C88 C87 1.374 . S
C88 C89 1.383 . S
C89 O83 1.412 . S
C89 C88 1.383 . S
C89 C90 1.394 1_554 S
C90 H80 0.929 . S
C90 C86 1.377 . S
C90 C89 1.394 1_556 S
H91 C98 0.929 . S
H92 C101 0.930 . S
H93 C103 0.929 . S
H94 C95 0.969 . S
C95 H94 0.969 . S
C95 O96 1.550 . S
C95 H97 0.973 . S
O96 C95 1.550 . S
O96 C102 1.412 . S
H97 C95 0.973 . S
C98 H91 0.929 . S
C98 C99 1.400 . S
C98 C100 1.364 1_556 S
C99 C98 1.400 . S
C99 C103 1.377 . S
C100 C98 1.364 1_554 S
C100 C101 1.374 . S
C101 H92 0.930 . S
C101 C100 1.374 . S
C101 C102 1.383 . S
C102 O96 1.412 . S
C102 C101 1.383 . S
C102 C103 1.394 1_554 S
C103 H93 0.929 . S
C103 C99 1.377 . S
C103 C102 1.394 1_556 S
Eu104 N135 2.657 1_566 S
Eu104 N142 2.609 1_565 S
Eu104 O148 2.558 . S
Eu104 O149 2.612 1_455 S
Eu104 O151 2.339 1_455 S
Eu104 O152 2.563 . S
Eu104 O153 2.419 1_556 S
Eu104 O155 2.380 1_565 S
Eu104 O156 2.432 . S
Eu104 C168 2.848 . S
C105 C108 1.429 . S
C105 C109 1.411 . S
C105 N112 1.377 1_565 S
C106 C108 1.420 . S
C106 C110 1.423 . S
C106 C118 1.392 . S
C107 C109 1.420 . S
C107 C110 1.351 . S
C107 H130 0.931 . S
C108 C105 1.429 . S
C108 C106 1.420 . S
C108 N116 1.362 . S
C109 C105 1.411 . S
C109 C107 1.420 . S
C109 C114 1.395 1_565 S
C110 C106 1.423 . S
C110 C107 1.351 . S
C110 H122 0.930 . S
C111 C113 1.400 . S
C111 C114 1.386 . S
C111 H123 0.930 . S
N112 C105 1.377 1_545 S
N112 C113 1.321 . S
N112 Eu115 2.609 . S
C113 C111 1.400 . S
C113 N112 1.321 . S
C113 H120 0.930 . S
C114 C109 1.395 1_545 S
C114 C111 1.386 . S
C114 H133 0.930 . S
Eu115 N112 2.609 . S
Eu115 N116 2.657 1_545 S
Eu115 O149 2.380 1_545 S
Eu115 O150 2.432 . S
Eu115 O154 2.558 . S
Eu115 O155 2.612 1_655 S
Eu115 O157 2.339 1_655 S
Eu115 O158 2.563 1_655 S
Eu115 O159 2.419 . S
Eu115 C179 2.848 . S
N116 C108 1.362 . S
N116 Eu115 2.657 1_565 S
N116 C117 1.334 1_655 S
C117 N116 1.334 1_455 S
C117 C119 1.413 . S
C117 H124 0.929 . S
C118 C106 1.392 . S
C118 C119 1.367 1_655 S
C118 H126 0.930 . S
C119 C117 1.413 . S
C119 C118 1.367 1_455 S
C119 H121 0.930 . S
H120 C113 0.930 . S
H121 C119 0.930 . S
H122 C110 0.930 . S
H123 C111 0.930 . S
H124 C117 0.929 . S
H125 C139 0.930 1_655 S
H126 C118 0.930 . S
H127 C145 0.930 . S
H128 C136 0.929 1_655 S
H129 C143 0.930 . S
H130 C107 0.931 . S
H131 C137 0.930 . S
H132 C170 0.930 . S
H133 C114 0.930 . S
H134 C169 0.931 . S
N135 Eu104 2.657 1_544 S
N135 C136 1.334 . S
N135 C140 1.362 . S
C136 H128 0.929 1_455 S
C136 N135 1.334 . S
C136 C139 1.413 . S
C137 H131 0.930 . S
C137 C138 1.392 . S
C137 C139 1.367 . S
C138 C137 1.392 . S
C138 C140 1.420 . S
C138 C170 1.423 . S
C139 H125 0.930 1_455 S
C139 C136 1.413 . S
C139 C137 1.367 . S
C140 N135 1.362 . S
C140 C138 1.420 . S
C140 C144 1.429 . S
H141 C146 0.930 . S
N142 Eu104 2.609 1_545 S
N142 C144 1.377 1_556 S
N142 C145 1.321 1_545 S
C143 H129 0.930 . S
C143 C145 1.400 . S
C143 C146 1.386 1_566 S
C144 C140 1.429 . S
C144 N142 1.377 1_554 S
C144 C147 1.411 . S
C145 H127 0.930 . S
C145 N142 1.321 1_565 S
C145 C143 1.400 . S
C146 H141 0.930 . S
C146 C143 1.386 1_544 S
C146 C147 1.395 . S
C147 C144 1.411 . S
C147 C146 1.395 . S
C147 C169 1.420 . S
O148 Eu104 2.558 . S
O148 C168 1.257 . S
O149 Eu104 2.612 1_655 S
O149 Eu115 2.380 1_565 S
O149 C160 1.276 . S
O150 Eu115 2.432 . S
O150 C167 1.264 . S
O151 Eu104 2.339 1_655 S
O151 C167 1.254 1_565 S
O152 Eu104 2.563 . S
O152 C160 1.235 1_455 S
O153 Eu104 2.419 1_554 S
O153 C168 1.249 1_554 S
O154 Eu115 2.558 . S
O154 C179 1.257 . S
O155 Eu104 2.380 1_545 S
O155 Eu115 2.612 1_455 S
O155 C171 1.276 . S
O156 Eu104 2.432 . S
O156 C178 1.264 1_565 S
O157 Eu115 2.339 1_455 S
O157 C178 1.254 . S
O158 Eu115 2.563 1_455 S
O158 C171 1.235 . S
O159 Eu115 2.419 . S
O159 C179 1.249 . S
C160 O149 1.276 . S
C160 O152 1.235 1_655 S
C161 C163 1.393 . S
C161 C165 1.395 . S
C161 C168 1.492 1_554 S
C162 C163 1.392 . S
C162 C164 1.386 . S
C163 C161 1.393 . S
C163 C162 1.392 . S
C163 H180 0.930 . S
C164 C162 1.386 . S
C164 C166 1.395 . S
C164 H181 0.930 . S
C165 C161 1.395 . S
C165 C166 1.379 . S
C165 H182 0.930 . S
C166 C164 1.395 . S
C166 C165 1.379 . S
C166 H183 0.930 . S
C167 O150 1.264 . S
C167 O151 1.254 1_545 S
C168 Eu104 2.848 . S
C168 O148 1.257 . S
C168 O153 1.249 1_556 S
C168 C161 1.492 1_556 S
C169 H134 0.931 . S
C169 C147 1.420 . S
C169 C170 1.351 . S
C170 H132 0.930 . S
C170 C138 1.423 . S
C170 C169 1.351 . S
C171 O155 1.276 . S
C171 O158 1.235 . S
C172 C173 1.393 . S
C172 C176 1.395 . S
C172 C179 1.492 . S
C173 C172 1.393 . S
C173 C174 1.392 . S
C173 H184 0.930 1_655 S
C174 C173 1.392 . S
C174 C175 1.386 . S
C175 C174 1.386 . S
C175 C177 1.395 . S
C175 H185 0.930 . S
C176 C172 1.395 . S
C176 C177 1.379 . S
C176 H186 0.930 . S
C177 C175 1.395 . S
C177 C176 1.379 . S
C177 H187 0.930 . S
C178 O156 1.264 1_545 S
C178 O157 1.254 . S
C179 Eu115 2.848 . S
C179 O154 1.257 . S
C179 O159 1.249 . S
C179 C172 1.492 . S
H180 C163 0.930 . S
H181 C164 0.930 . S
H182 C165 0.930 . S
H183 C166 0.930 . S
H184 C173 0.930 1_455 S
H185 C175 0.930 . S
H186 C176 0.930 . S
H187 C177 0.930 . S
Eu188 N219 2.657 1_556 S
Eu188 N226 2.609 . S
Eu188 O232 2.558 . S
Eu188 O233 2.612 1_545 S
Eu188 O235 2.339 1_545 S
Eu188 O236 2.563 . S
Eu188 O237 2.419 1_556 S
Eu188 O239 2.380 . S
Eu188 O240 2.432 . S
Eu188 C252 2.848 . S
C189 C192 1.429 . S
C189 C193 1.411 . S
C189 N196 1.377 . S
C190 C192 1.420 . S
C190 C194 1.423 . S
C190 C202 1.392 . S
C191 C193 1.420 . S
C191 C194 1.351 . S
C191 H214 0.931 . S
C192 C189 1.429 . S
C192 C190 1.420 . S
C192 N200 1.362 . S
C193 C189 1.411 . S
C193 C191 1.420 . S
C193 C198 1.395 . S
C194 C190 1.423 . S
C194 C191 1.351 . S
C194 H206 0.930 . S
C195 C197 1.400 . S
C195 C198 1.386 . S
C195 H207 0.930 . S
N196 C189 1.377 . S
N196 C197 1.321 . S
N196 Eu199 2.609 . S
C197 C195 1.400 . S
C197 N196 1.321 . S
C197 H204 0.930 . S
C198 C193 1.395 . S
C198 C195 1.386 . S
C198 H217 0.930 . S
Eu199 N196 2.609 . S
Eu199 N200 2.657 . S
Eu199 O233 2.380 . S
Eu199 O234 2.432 . S
Eu199 O238 2.558 . S
Eu199 O239 2.612 1_565 S
Eu199 O241 2.339 1_565 S
Eu199 O242 2.563 1_565 S
Eu199 O243 2.419 . S
Eu199 C263 2.848 . S
N200 C192 1.362 . S
N200 Eu199 2.657 . S
N200 C201 1.334 1_565 S
C201 N200 1.334 1_545 S
C201 C203 1.413 . S
C201 H208 0.929 . S
C202 C190 1.392 . S
C202 C203 1.367 1_565 S
C202 H210 0.930 . S
C203 C201 1.413 . S
C203 C202 1.367 1_545 S
C203 H205 0.930 . S
H204 C197 0.930 . S
H205 C203 0.930 . S
H206 C194 0.930 . S
H207 C195 0.930 . S
H208 C201 0.929 . S
H209 C223 0.930 1_565 S
H210 C202 0.930 . S
H211 C229 0.930 . S
H212 C220 0.929 1_565 S
H213 C227 0.930 . S
H214 C191 0.931 . S
H215 C221 0.930 . S
H216 C254 0.930 . S
H217 C198 0.930 . S
H218 C253 0.931 . S
N219 Eu188 2.657 1_554 S
N219 C220 1.334 . S
N219 C224 1.362 . S
C220 H212 0.929 1_545 S
C220 N219 1.334 . S
C220 C223 1.413 . S
C221 H215 0.930 . S
C221 C222 1.392 . S
C221 C223 1.367 . S
C222 C221 1.392 . S
C222 C224 1.420 . S
C222 C254 1.423 . S
C223 H209 0.930 1_545 S
C223 C220 1.413 . S
C223 C221 1.367 . S
C224 N219 1.362 . S
C224 C222 1.420 . S
C224 C228 1.429 . S
H225 C230 0.930 . S
N226 Eu188 2.609 . S
N226 C228 1.377 1_556 S
N226 C229 1.321 . S
C227 H213 0.930 . S
C227 C229 1.400 . S
C227 C230 1.386 1_556 S
C228 C224 1.429 . S
C228 N226 1.377 1_554 S
C228 C231 1.411 . S
C229 H211 0.930 . S
C229 N226 1.321 . S
C229 C227 1.400 . S
C230 H225 0.930 . S
C230 C227 1.386 1_554 S
C230 C231 1.395 . S
C231 C228 1.411 . S
C231 C230 1.395 . S
C231 C253 1.420 . S
O232 Eu188 2.558 . S
O232 C252 1.257 . S
O233 Eu188 2.612 1_565 S
O233 Eu199 2.380 . S
O233 C244 1.276 . S
O234 Eu199 2.432 . S
O234 C251 1.264 . S
O235 Eu188 2.339 1_565 S
O235 C251 1.254 . S
O236 Eu188 2.563 . S
O236 C244 1.235 1_545 S
O237 Eu188 2.419 1_554 S
O237 C252 1.249 1_554 S
O238 Eu199 2.558 . S
O238 C263 1.257 . S
O239 Eu188 2.380 . S
O239 Eu199 2.612 1_545 S
O239 C255 1.276 . S
O240 Eu188 2.432 . S
O240 C262 1.264 . S
O241 Eu199 2.339 1_545 S
O241 C262 1.254 . S
O242 Eu199 2.563 1_545 S
O242 C255 1.235 . S
O243 Eu199 2.419 . S
O243 C263 1.249 . S
C244 O233 1.276 . S
C244 O236 1.235 1_565 S
C245 C247 1.393 . S
C245 C249 1.395 . S
C245 C252 1.492 1_554 S
C246 C247 1.392 . S
C246 C248 1.386 . S
C247 C245 1.393 . S
C247 C246 1.392 . S
C247 H264 0.930 . S
C248 C246 1.386 . S
C248 C250 1.395 . S
C248 H265 0.930 . S
C249 C245 1.395 . S
C249 C250 1.379 . S
C249 H266 0.930 . S
C250 C248 1.395 . S
C250 C249 1.379 . S
C250 H267 0.930 . S
C251 O234 1.264 . S
C251 O235 1.254 . S
C252 Eu188 2.848 . S
C252 O232 1.257 . S
C252 O237 1.249 1_556 S
C252 C245 1.492 1_556 S
C253 H218 0.931 . S
C253 C231 1.420 . S
C253 C254 1.351 . S
C254 H216 0.930 . S
C254 C222 1.423 . S
C254 C253 1.351 . S
C255 O239 1.276 . S
C255 O242 1.235 . S
C256 C257 1.393 . S
C256 C260 1.395 . S
C256 C263 1.492 . S
C257 C256 1.393 . S
C257 C258 1.392 . S
C257 H268 0.930 1_565 S
C258 C257 1.392 . S
C258 C259 1.386 . S
C259 C258 1.386 . S
C259 C261 1.395 . S
C259 H269 0.930 . S
C260 C256 1.395 . S
C260 C261 1.379 . S
C260 H270 0.930 . S
C261 C259 1.395 . S
C261 C260 1.379 . S
C261 H271 0.930 . S
C262 O240 1.264 . S
C262 O241 1.254 . S
C263 Eu199 2.848 . S
C263 O238 1.257 . S
C263 O243 1.249 . S
C263 C256 1.492 . S
H264 C247 0.930 . S
H265 C248 0.930 . S
H266 C249 0.930 . S
H267 C250 0.930 . S
H268 C257 0.930 1_545 S
H269 C259 0.930 . S
H270 C260 0.930 . S
H271 C261 0.930 . S
Eu272 N303 2.657 . S
Eu272 N310 2.609 . S
Eu272 O316 2.558 . S
Eu272 O317 2.612 . S
Eu272 O319 2.339 . S
Eu272 O320 2.563 . S
Eu272 O321 2.419 . S
Eu272 O323 2.380 . S
Eu272 O324 2.432 . S
Eu272 C336 2.848 . S
C273 C276 1.429 . S
C273 C277 1.411 . S
C273 N280 1.377 . S
C274 C276 1.420 . S
C274 C278 1.423 . S
C274 C286 1.392 . S
C275 C277 1.420 . S
C275 C278 1.351 . S
C275 H298 0.931 . S
C276 C273 1.429 . S
C276 C274 1.420 . S
C276 N284 1.362 . S
C277 C273 1.411 . S
C277 C275 1.420 . S
C277 C282 1.395 1_556 S
C278 C274 1.423 . S
C278 C275 1.351 . S
C278 H290 0.930 . S
C279 C281 1.400 . S
C279 C282 1.386 . S
C279 H291 0.930 . S
N280 C273 1.377 . S
N280 C281 1.321 1_556 S
N280 Eu283 2.609 . S
C281 C279 1.400 . S
C281 N280 1.321 1_554 S
C281 H288 0.930 . S
C282 C277 1.395 1_554 S
C282 C279 1.386 . S
C282 H301 0.930 . S
Eu283 N280 2.609 . S
Eu283 N284 2.657 . S
Eu283 O317 2.380 . S
Eu283 O318 2.432 . S
Eu283 O322 2.558 1_556 S
Eu283 O323 2.612 . S
Eu283 O325 2.339 . S
Eu283 O326 2.563 . S
Eu283 O327 2.419 . S
Eu283 C347 2.848 1_556 S
N284 C276 1.362 . S
N284 Eu283 2.657 . S
N284 C285 1.334 . S
C285 N284 1.334 . S
C285 C287 1.413 . S
C285 H292 0.929 . S
C286 C274 1.392 . S
C286 C287 1.367 . S
C286 H294 0.930 . S
C287 C285 1.413 . S
C287 C286 1.367 . S
C287 H289 0.930 . S
H288 C281 0.930 . S
H289 C287 0.930 . S
H290 C278 0.930 . S
H291 C279 0.930 . S
H292 C285 0.929 . S
H293 C307 0.930 . S
H294 C286 0.930 . S
H295 C313 0.930 . S
H296 C304 0.929 . S
H297 C311 0.930 . S
H298 C275 0.931 . S
H299 C305 0.930 . S
H300 C338 0.930 . S
H301 C282 0.930 . S
H302 C337 0.931 . S
N303 Eu272 2.657 . S
N303 C304 1.334 . S
N303 C308 1.362 . S
C304 H296 0.929 . S
C304 N303 1.334 . S
C304 C307 1.413 . S
C305 H299 0.930 . S
C305 C306 1.392 . S
C305 C307 1.367 . S
C306 C305 1.392 . S
C306 C308 1.420 . S
C306 C338 1.423 . S
C307 H293 0.930 . S
C307 C304 1.413 . S
C307 C305 1.367 . S
C308 N303 1.362 . S
C308 C306 1.420 . S
C308 C312 1.429 . S
H309 C314 0.930 . S
N310 Eu272 2.609 . S
N310 C312 1.377 . S
N310 C313 1.321 . S
C311 H297 0.930 . S
C311 C313 1.400 . S
C311 C314 1.386 . S
C312 C308 1.429 . S
C312 N310 1.377 . S
C312 C315 1.411 . S
C313 H295 0.930 . S
C313 N310 1.321 . S
C313 C311 1.400 . S
C314 H309 0.930 . S
C314 C311 1.386 . S
C314 C315 1.395 . S
C315 C312 1.411 . S
C315 C314 1.395 . S
C315 C337 1.420 . S
O316 Eu272 2.558 . S
O316 C336 1.257 . S
O317 Eu272 2.612 . S
O317 Eu283 2.380 . S
O317 C328 1.276 . S
O318 Eu283 2.432 . S
O318 C335 1.264 . S
O319 Eu272 2.339 . S
O319 C335 1.254 . S
O320 Eu272 2.563 . S
O320 C328 1.235 . S
O321 Eu272 2.419 . S
O321 C336 1.249 . S
O322 Eu283 2.558 1_554 S
O322 C347 1.257 . S
O323 Eu272 2.380 . S
O323 Eu283 2.612 . S
O323 C339 1.276 . S
O324 Eu272 2.432 . S
O324 C346 1.264 . S
O325 Eu283 2.339 . S
O325 C346 1.254 . S
O326 Eu283 2.563 . S
O326 C339 1.235 . S
O327 Eu283 2.419 . S
O327 C347 1.249 1_556 S
C328 O317 1.276 . S
C328 O320 1.235 . S
C329 C331 1.393 . S
C329 C333 1.395 . S
C329 C336 1.492 . S
C330 C331 1.392 . S
C330 C332 1.386 . S
C331 C329 1.393 . S
C331 C330 1.392 . S
C331 H348 0.930 . S
C332 C330 1.386 . S
C332 C334 1.395 . S
C332 H349 0.930 . S
C333 C329 1.395 . S
C333 C334 1.379 . S
C333 H350 0.930 . S
C334 C332 1.395 . S
C334 C333 1.379 . S
C334 H351 0.930 . S
C335 O318 1.264 . S
C335 O319 1.254 . S
C336 Eu272 2.848 . S
C336 O316 1.257 . S
C336 O321 1.249 . S
C336 C329 1.492 . S
C337 H302 0.931 . S
C337 C315 1.420 . S
C337 C338 1.351 . S
C338 H300 0.930 . S
C338 C306 1.423 . S
C338 C337 1.351 . S
C339 O323 1.276 . S
C339 O326 1.235 . S
C340 C341 1.393 . S
C340 C344 1.395 . S
C340 C347 1.492 . S
C341 C340 1.393 . S
C341 C342 1.392 . S
C341 H352 0.930 . S
C342 C341 1.392 . S
C342 C343 1.386 . S
C343 C342 1.386 . S
C343 C345 1.395 . S
C343 H353 0.930 . S
C344 C340 1.395 . S
C344 C345 1.379 . S
C344 H354 0.930 . S
C345 C343 1.395 . S
C345 C344 1.379 . S
C345 H355 0.930 . S
C346 O324 1.264 . S
C346 O325 1.254 . S
C347 Eu283 2.848 1_554 S
C347 O322 1.257 . S
C347 O327 1.249 1_554 S
C347 C340 1.492 . S
H348 C331 0.930 . S
H349 C332 0.930 . S
H350 C333 0.930 . S
H351 C334 0.930 . S
H352 C341 0.930 . S
H353 C343 0.930 . S
H354 C344 0.930 . S
H355 C345 0.930 . S
Eu356 N387 2.657 . S
Eu356 N394 2.609 . S
Eu356 O400 2.558 . S
Eu356 O401 2.612 . S
Eu356 O403 2.339 . S
Eu356 O404 2.563 . S
Eu356 O405 2.419 . S
Eu356 O407 2.380 . S
Eu356 O408 2.432 1_455 S
Eu356 C420 2.848 . S
C357 C360 1.429 . S
C357 C361 1.411 . S
C357 N364 1.380 . S
C358 C360 1.420 . S
C358 C362 1.423 . S
C358 C370 1.392 . S
C359 C361 1.420 . S
C359 C362 1.351 . S
C359 H382 0.931 . S
C360 C357 1.429 . S
C360 C358 1.420 . S
C360 N368 1.362 . S
C361 C357 1.411 . S
C361 C359 1.420 . S
C361 C366 1.395 1_656 S
C362 C358 1.423 . S
C362 C359 1.351 . S
C362 H374 0.930 . S
C363 C365 1.400 . S
C363 C366 1.386 . S
C363 H375 0.930 . S
N364 C357 1.380 . S
N364 C365 1.317 1_656 S
N364 Eu367 2.611 . S
C365 C363 1.400 . S
C365 N364 1.317 1_454 S
C365 H372 0.930 . S
C366 C361 1.395 1_454 S
C366 C363 1.386 . S
C366 H385 0.930 . S
Eu367 N364 2.611 . S
Eu367 N368 2.657 . S
Eu367 O401 2.380 1_655 S
Eu367 O402 2.432 1_655 S
Eu367 O406 2.558 1_556 S
Eu367 O407 2.612 1_655 S
Eu367 O409 2.339 . S
Eu367 O410 2.563 . S
Eu367 O411 2.419 . S
Eu367 C431 2.848 1_556 S
N368 C360 1.362 . S
N368 Eu367 2.657 . S
N368 C369 1.334 . S
C369 N368 1.334 . S
C369 C371 1.413 . S
C369 H376 0.929 . S
C370 C358 1.392 . S
C370 C371 1.367 . S
C370 H378 0.930 . S
C371 C369 1.413 . S
C371 C370 1.367 . S
C371 H373 0.930 . S
H372 C365 0.930 . S
H373 C371 0.930 . S
H374 C362 0.930 . S
H375 C363 0.930 . S
H376 C369 0.929 . S
H377 C391 0.930 . S
H378 C370 0.930 . S
H379 C397 0.930 . S
H380 C388 0.929 . S
H381 C395 0.930 . S
H382 C359 0.931 . S
H383 C389 0.930 . S
H384 C422 0.930 . S
H385 C366 0.930 . S
H386 C421 0.931 . S
N387 Eu356 2.657 . S
N387 C388 1.334 . S
N387 C392 1.362 . S
C388 H380 0.929 . S
C388 N387 1.334 . S
C388 C391 1.413 . S
C389 H383 0.930 . S
C389 C390 1.392 . S
C389 C391 1.367 . S
C390 C389 1.392 . S
C390 C392 1.420 . S
C390 C422 1.423 . S
C391 H377 0.930 . S
C391 C388 1.413 . S
C391 C389 1.367 . S
C392 N387 1.362 . S
C392 C390 1.420 . S
C392 C396 1.429 . S
H393 C398 0.929 1_655 S
N394 Eu356 2.609 . S
N394 C396 1.377 . S
N394 C397 1.321 1_455 S
C395 H381 0.930 . S
C395 C397 1.400 . S
C395 C398 1.386 1_655 S
C396 C392 1.429 . S
C396 N394 1.377 . S
C396 C399 1.411 . S
C397 H379 0.930 . S
C397 N394 1.321 1_655 S
C397 C395 1.400 . S
C398 H393 0.929 1_455 S
C398 C395 1.386 1_455 S
C398 C399 1.395 . S
C399 C396 1.411 . S
C399 C398 1.395 . S
C399 C421 1.420 . S
O400 Eu356 2.558 . S
O400 C420 1.257 . S
O401 Eu356 2.612 . S
O401 Eu367 2.380 1_455 S
O401 C412 1.276 . S
O402 Eu367 2.432 1_455 S
O402 C419 1.264 . S
O403 Eu356 2.339 . S
O403 C419 1.254 . S
O404 Eu356 2.563 . S
O404 C412 1.235 . S
O405 Eu356 2.419 . S
O405 C420 1.249 . S
O406 Eu367 2.558 1_554 S
O406 C431 1.257 . S
O407 Eu356 2.380 . S
O407 Eu367 2.612 1_455 S
O407 C423 1.276 1_455 S
O408 Eu356 2.432 1_655 S
O408 C430 1.264 . S
O409 Eu367 2.339 . S
O409 C430 1.254 . S
O410 Eu367 2.563 . S
O410 C423 1.235 . S
O411 Eu367 2.419 . S
O411 C431 1.249 1_556 S
C412 O401 1.276 . S
C412 O404 1.235 . S
C413 C415 1.393 . S
C413 C417 1.395 . S
C413 C420 1.492 . S
C414 C415 1.392 . S
C414 C416 1.386 . S
C415 C413 1.393 . S
C415 C414 1.392 . S
C415 H432 0.930 . S
C416 C414 1.386 . S
C416 C418 1.395 . S
C416 H433 0.930 . S
C417 C413 1.395 . S
C417 C418 1.379 . S
C417 H434 0.930 . S
C418 C416 1.395 . S
C418 C417 1.379 . S
C418 H435 0.930 . S
C419 O402 1.264 . S
C419 O403 1.254 . S
C420 Eu356 2.848 . S
C420 O400 1.257 . S
C420 O405 1.249 . S
C420 C413 1.492 . S
C421 H386 0.931 . S
C421 C399 1.420 . S
C421 C422 1.351 . S
C422 H384 0.930 . S
C422 C390 1.423 . S
C422 C421 1.351 . S
C423 O407 1.276 1_655 S
C423 O410 1.235 . S
C424 C425 1.393 . S
C424 C428 1.395 . S
C424 C431 1.492 . S
C425 C424 1.393 . S
C425 C426 1.392 . S
C425 H436 0.930 . S
C426 C425 1.392 . S
C426 C427 1.386 . S
C427 C426 1.386 . S
C427 C429 1.395 . S
C427 H437 0.930 . S
C428 C424 1.395 . S
C428 C429 1.379 . S
C428 H438 0.930 . S
C429 C427 1.395 . S
C429 C428 1.379 . S
C429 H439 0.930 . S
C430 O408 1.264 . S
C430 O409 1.254 . S
C431 Eu367 2.848 1_554 S
C431 O406 1.257 . S
C431 O411 1.249 1_554 S
C431 C424 1.492 . S
H432 C415 0.930 . S
H433 C416 0.930 . S
H434 C417 0.930 . S
H435 C418 0.930 . S
H436 C425 0.930 . S
H437 C427 0.930 . S
H438 C428 0.930 . S
H439 C429 0.930 . S
C440 C441 1.387 . S
C440 H444 0.950 . S
C440 C449 1.390 . S
C441 C440 1.387 . S
C441 C443 1.387 . S
H442 C449 0.950 . S
C443 C441 1.387 . S
C443 C445 1.390 . S
C443 H447 0.950 . S
H444 C440 0.950 . S
C445 C443 1.390 . S
C445 C446 1.387 . S
C445 H448 0.950 1_545 S
C446 C445 1.387 . S
C446 C449 1.387 . S
H447 C443 0.950 . S
H448 C445 0.950 1_565 S
C449 C440 1.390 . S
C449 H442 0.950 . S
C449 C446 1.387 . S
C450 C451 1.387 . S
C450 H454 0.950 . S
C450 C459 1.390 . S
C451 C450 1.387 . S
C451 C453 1.387 . S
H452 C459 0.950 . S
C453 C451 1.387 . S
C453 C455 1.390 . S
C453 H457 0.950 . S
H454 C450 0.950 . S
C455 C453 1.390 . S
C455 C456 1.387 . S
C455 H458 0.950 . S
C456 C455 1.387 . S
C456 C459 1.387 . S
H457 C453 0.950 . S
H458 C455 0.950 . S
C459 C450 1.390 . S
C459 H452 0.950 . S
C459 C456 1.387 . S
C460 C461 1.387 . S
C460 H464 0.950 . S
C460 C469 1.390 . S
C461 C460 1.387 . S
C461 C463 1.387 . S
H462 C469 0.950 . S
C463 C461 1.387 . S
C463 C465 1.390 . S
C463 H467 0.950 . S
H464 C460 0.950 . S
C465 C463 1.390 . S
C465 C466 1.387 . S
C465 H468 0.950 . S
C466 C465 1.387 . S
C466 C469 1.387 . S
H467 C463 0.950 . S
H468 C465 0.950 . S
C469 C460 1.390 . S
C469 H462 0.950 . S
C469 C466 1.387 . S
C470 C471 1.387 . S
C470 H474 0.950 . S
C470 C479 1.390 . S
C471 C470 1.387 . S
C471 C473 1.387 . S
H472 C479 0.950 . S
C473 C471 1.387 . S
C473 C475 1.390 . S
C473 H477 0.950 . S
H474 C470 0.950 . S
C475 C473 1.390 . S
C475 C476 1.387 . S
C475 H478 0.950 . S
C476 C475 1.387 . S
C476 C479 1.387 . S
H477 C473 0.950 . S
H478 C475 0.950 . S
C479 C470 1.390 . S
C479 H472 0.950 . S
C479 C476 1.387 . S
C480 C481 1.387 . S
C480 H484 0.950 . S
C480 C489 1.390 . S
C481 C480 1.387 . S
C481 C483 1.387 1_565 S
H482 C489 0.950 1_556 S
C483 C481 1.387 1_545 S
C483 C485 1.390 . S
C483 H487 0.950 . S
H484 C480 0.950 . S
C485 C483 1.390 . S
C485 C486 1.392 1_545 S
C485 H488 0.950 . S
C486 C485 1.392 1_565 S
C486 C489 1.391 . S
H487 C483 0.950 . S
H488 C485 0.950 . S
C489 C480 1.390 . S
C489 H482 0.950 1_554 S
C489 C486 1.391 . S
C490 C491 1.387 . S
C490 H494 0.950 . S
C490 C499 1.390 . S
C491 C490 1.387 . S
C491 C493 1.387 . S
H492 C499 0.950 . S
C493 C491 1.387 . S
C493 C495 1.390 . S
C493 H497 0.950 . S
H494 C490 0.950 . S
C495 C493 1.390 . S
C495 C496 1.387 1_554 S
C495 H498 0.950 1_554 S
C496 C495 1.387 1_556 S
C496 C499 1.387 1_556 S
H497 C493 0.950 . S
H498 C495 0.950 1_556 S
C499 C490 1.390 . S
C499 H492 0.950 . S
C499 C496 1.387 1_554 S
C500 C501 1.387 . S
C500 H504 0.950 . S
C500 C509 1.390 . S
C501 C500 1.387 . S
C501 C503 1.387 . S
H502 C509 0.950 . S
C503 C501 1.387 . S
C503 C505 1.390 . S
C503 H507 0.950 . S
H504 C500 0.950 . S
C505 C503 1.390 . S
C505 C506 1.387 1_554 S
C505 H508 0.950 1_554 S
C506 C505 1.387 1_556 S
C506 C509 1.387 1_556 S
H507 C503 0.950 . S
H508 C505 0.950 1_556 S
C509 C500 1.390 . S
C509 H502 0.950 . S
C509 C506 1.387 1_554 S
C510 C511 1.387 . S
C510 H514 0.950 . S
C510 C519 1.390 . S
C511 C510 1.387 . S
C511 C513 1.387 . S
H512 C519 0.950 1_556 S
C513 C511 1.387 . S
C513 C515 1.390 . S
C513 H517 0.950 . S
H514 C510 0.950 . S
C515 C513 1.390 . S
C515 C516 1.387 1_554 S
C515 H518 0.950 . S
C516 C515 1.387 1_556 S
C516 C519 1.387 1_556 S
H517 C513 0.950 . S
H518 C515 0.950 . S
C519 C510 1.390 . S
C519 H512 0.950 1_554 S
C519 C516 1.387 1_554 S
C520 C521 1.387 . S
C520 H524 0.950 . S
C520 C529 1.390 . S
C521 C520 1.387 . S
C521 C523 1.387 . S
H522 C529 0.950 1_655 S
C523 C521 1.387 . S
C523 C525 1.390 . S
C523 H527 0.950 . S
H524 C520 0.950 . S
C525 C523 1.390 . S
C525 C526 1.368 1_455 S
C525 H528 0.950 . S
C526 C525 1.368 1_655 S
C526 C529 1.386 1_655 S
H527 C523 0.950 . S
H528 C525 0.950 . S
C529 C520 1.390 . S
C529 H522 0.950 1_455 S
C529 C526 1.386 1_455 S
C530 C531 1.387 . S
C530 H534 0.950 . S
C530 C539 1.390 . S
C531 C530 1.387 . S
C531 C533 1.387 . S
H532 C539 0.950 . S
C533 C531 1.387 . S
C533 C535 1.390 . S
C533 H537 0.950 . S
H534 C530 0.950 . S
C535 C533 1.390 . S
C535 C536 1.379 1_545 S
C535 H538 0.947 1_545 S
C536 C535 1.379 1_565 S
C536 C539 1.376 1_565 S
H537 C533 0.950 . S
H538 C535 0.947 1_565 S
C539 C530 1.390 . S
C539 H532 0.950 . S
C539 C536 1.376 1_545 S
C540 C541 1.387 . S
C540 H544 0.950 . S
C540 C549 1.390 . S
C541 C540 1.387 . S
C541 C543 1.387 . S
H542 C549 0.950 . S
C543 C541 1.387 . S
C543 C545 1.390 . S
C543 H547 0.950 1_554 S
H544 C540 0.950 . S
C545 C543 1.390 . S
C545 C546 1.387 . S
C545 H548 0.950 . S
C546 C545 1.387 . S
C546 C549 1.387 . S
H547 C543 0.950 1_556 S
H548 C545 0.950 . S
C549 C540 1.390 . S
C549 H542 0.950 . S
C549 C546 1.387 . S
C550 C551 1.387 . S
C550 H554 0.950 1_554 S
C550 C559 1.390 . S
C551 C550 1.387 . S
C551 C553 1.387 . S
H552 C559 0.950 . S
C553 C551 1.387 . S
C553 C555 1.390 . S
C553 H557 0.950 . S
H554 C550 0.950 1_556 S
C555 C553 1.390 . S
C555 C556 1.387 . S
C555 H558 0.950 . S
C556 C555 1.387 . S
C556 C559 1.387 . S
H557 C553 0.950 . S
H558 C555 0.950 . S
C559 C550 1.390 . S
C559 H552 0.950 . S
C559 C556 1.387 . S
C560 C561 1.387 . S
C560 H564 0.950 . S
C560 C569 1.390 . S
C561 C560 1.387 . S
C561 C563 1.387 . S
H562 C569 0.950 . S
C563 C561 1.387 . S
C563 C565 1.390 1_655 S
C563 H567 0.950 . S
H564 C560 0.950 . S
C565 C563 1.390 1_455 S
C565 C566 1.387 . S
C565 H568 0.950 . S
C566 C565 1.387 . S
C566 C569 1.387 1_455 S
H567 C563 0.950 . S
H568 C565 0.950 . S
C569 C560 1.390 . S
C569 H562 0.950 . S
C569 C566 1.387 1_655 S
C570 C571 1.387 . S
C570 H574 0.950 . S
C570 C579 1.390 1_565 S
C571 C570 1.387 . S
C571 C573 1.387 . S
H572 C579 0.950 . S
C573 C571 1.387 . S
C573 C575 1.390 1_565 S
C573 H577 0.950 . S
H574 C570 0.950 . S
C575 C573 1.390 1_545 S
C575 C576 1.387 . S
C575 H578 0.950 . S
C576 C575 1.387 . S
C576 C579 1.387 . S
H577 C573 0.950 . S
H578 C575 0.950 . S
C579 C570 1.390 1_545 S
C579 H572 0.950 . S
C579 C576 1.387 . S
C580 C581 1.387 . S
C580 H584 0.950 . S
C580 C589 1.390 . S
C581 C580 1.387 . S
C581 C583 1.387 . S
H582 C589 0.950 . S
C583 C581 1.387 . S
C583 C585 1.390 . S
C583 H587 0.950 . S
H584 C580 0.950 . S
C585 C583 1.390 . S
C585 C586 1.387 . S
C585 H588 0.950 . S
C586 C585 1.387 . S
C586 C589 1.387 . S
H587 C583 0.950 . S
H588 C585 0.950 . S
C589 C580 1.390 . S
C589 H582 0.950 . S
C589 C586 1.387 . S
C590 C591 1.387 . S
C590 H594 0.950 . S
C590 C599 1.390 . S
C591 C590 1.387 . S
C591 C593 1.387 . S
H592 C599 0.950 . S
C593 C591 1.387 . S
C593 C595 1.390 . S
C593 H597 0.950 . S
H594 C590 0.950 . S
C595 C593 1.390 . S
C595 C596 1.387 . S
C595 H598 0.950 . S
C596 C595 1.387 . S
C596 C599 1.387 . S
H597 C593 0.950 . S
H598 C595 0.950 . S
C599 C590 1.390 . S
C599 H592 0.950 . S
C599 C596 1.387 . S
C600 C601 1.387 . S
C600 H604 0.950 . S
C600 C609 1.390 . S
C601 C600 1.387 . S
C601 C603 1.387 . S
H602 C609 0.950 . S
C603 C601 1.387 . S
C603 C605 1.390 . S
C603 H607 0.950 . S
H604 C600 0.950 . S
C605 C603 1.390 . S
C605 C606 1.387 . S
C605 H608 0.950 . S
C606 C605 1.387 . S
C606 C609 1.387 . S
H607 C603 0.950 . S
H608 C605 0.950 . S
C609 C600 1.390 . S
C609 H602 0.950 . S
C609 C606 1.387 . S
C610 C611 1.387 . S
C610 H614 0.950 . S
C610 C619 1.390 . S
C611 C610 1.387 . S
C611 C613 1.387 . S
H612 C619 0.950 . S
C613 C611 1.387 . S
C613 C615 1.390 . S
C613 H617 0.950 . S
H614 C610 0.950 . S
C615 C613 1.390 . S
C615 C616 1.387 . S
C615 H618 0.950 . S
C616 C615 1.387 . S
C616 C619 1.387 . S
H617 C613 0.950 . S
H618 C615 0.950 . S
C619 C610 1.390 . S
C619 H612 0.950 . S
C619 C616 1.387 . S
C620 C621 1.387 . S
C620 H624 0.950 . S
C620 C629 1.390 . S
C621 C620 1.387 . S
C621 C623 1.387 . S
H622 C629 0.950 . S
C623 C621 1.387 . S
C623 C625 1.390 . S
C623 H627 0.950 1_556 S
H624 C620 0.950 . S
C625 C623 1.390 . S
C625 C626 1.387 . S
C625 H628 0.950 1_556 S
C626 C625 1.387 . S
C626 C629 1.387 . S
H627 C623 0.950 1_554 S
H628 C625 0.950 1_554 S
C629 C620 1.390 . S
C629 H622 0.950 . S
C629 C626 1.387 . S
C630 C631 1.387 . S
C630 H634 0.950 . S
C630 C639 1.390 . S
C631 C630 1.387 . S
C631 C633 1.387 . S
H632 C639 0.950 . S
C633 C631 1.387 . S
C633 C635 1.390 . S
C633 H637 0.950 1_556 S
H634 C630 0.950 . S
C635 C633 1.390 . S
C635 C636 1.387 . S
C635 H638 0.950 1_556 S
C636 C635 1.387 . S
C636 C639 1.387 . S
H637 C633 0.950 1_554 S
H638 C635 0.950 1_554 S
C639 C630 1.390 . S
C639 H632 0.950 . S
C639 C636 1.387 . S
C640 C641 1.387 . S
C640 H644 0.950 . S
C640 C649 1.390 . S
C641 C640 1.387 . S
C641 C643 1.387 . S
H642 C649 0.950 . S
C643 C641 1.387 . S
C643 C645 1.390 . S
C643 H647 0.950 . S
H644 C640 0.950 . S
C645 C643 1.390 . S
C645 C646 1.387 . S
C645 H648 0.950 . S
C646 C645 1.387 . S
C646 C649 1.387 . S
H647 C643 0.950 . S
H648 C645 0.950 . S
C649 C640 1.390 . S
C649 H642 0.950 . S
C649 C646 1.387 . S
C650 C651 1.387 . S
C650 H654 0.950 . S
C650 C659 1.390 . S
C651 C650 1.387 . S
C651 C653 1.387 . S
H652 C659 0.950 . S
C653 C651 1.387 . S
C653 C655 1.390 . S
C653 H657 0.950 . S
H654 C650 0.950 . S
C655 C653 1.390 . S
C655 C656 1.387 . S
C655 H658 0.950 . S
C656 C655 1.387 . S
C656 C659 1.387 . S
H657 C653 0.950 . S
H658 C655 0.950 . S
C659 C650 1.390 . S
C659 H652 0.950 . S
C659 C656 1.387 . S
C660 C661 1.387 . S
C660 H664 0.950 . S
C660 C669 1.390 . S
C661 C660 1.387 . S
C661 C663 1.387 . S
H662 C669 0.950 . S
C663 C661 1.387 . S
C663 C665 1.390 . S
C663 H667 0.950 . S
H664 C660 0.950 . S
C665 C663 1.390 . S
C665 C666 1.387 . S
C665 H668 0.950 . S
C666 C665 1.387 . S
C666 C669 1.387 . S
H667 C663 0.950 . S
H668 C665 0.950 . S
C669 C660 1.390 . S
C669 H662 0.950 . S
C669 C666 1.387 . S
C670 C671 1.387 . S
C670 H674 0.950 . S
C670 C679 1.390 . S
C671 C670 1.387 . S
C671 C673 1.387 . S
H672 C679 0.950 . S
C673 C671 1.387 . S
C673 C675 1.390 . S
C673 H677 0.950 . S
H674 C670 0.950 . S
C675 C673 1.390 . S
C675 C676 1.387 . S
C675 H678 0.950 . S
C676 C675 1.387 . S
C676 C679 1.387 . S
H677 C673 0.950 . S
H678 C675 0.950 . S
C679 C670 1.390 . S
C679 H672 0.950 . S
C679 C676 1.387 . S
C441 C82 1.803 . S
C446 C178 2.085 . S
C456 C262 2.094 . S
C451 C95 1.817 . S
C466 C328 2.006 . S
C461 C56 1.896 . S
C476 C412 1.997 . S
C471 C69 1.880 . S
C486 C167 2.080 1_564 S
C481 C30 1.752 . S
C491 C43 1.756 . S
C496 C251 2.096 . S
C501 C4 1.822 . S
C506 C339 2.003 . S
C511 C17 1.818 . S
C516 C423 1.997 . S
C526 C174 0.978 . S
C521 C74 0.902 . S
C536 C258 0.942 . S
C531 C87 0.870 . S
C546 C330 0.894 . S
C541 C100 0.851 . S
C551 C61 0.873 . S
C556 C414 0.926 . S
C561 C22 0.899 . S
C566 C162 0.953 . S
C576 C246 0.917 . S
C571 C35 0.872 . S
C586 C342 0.894 . S
C581 C48 0.851 . S
C591 C9 0.867 . S
C596 C426 0.927 . S
C601 C73 2.110 . S
C606 C171 2.213 . S
C611 C86 2.088 . S
C616 C255 2.193 . S
C626 C335 2.281 . S
C621 C99 2.009 . S
C636 C419 2.301 . S
C631 C60 2.029 . S
C641 C21 2.105 . S
C646 C160 2.210 . S
C656 C244 2.189 . S
C651 C34 2.084 . S
C666 C346 2.282 . S
C661 C47 2.005 . S
C671 C8 2.025 . S
C676 C430 2.301 . S
