# Generated by pormake.
# Topology zzz, (3,6)-cn, num edge types: 1
# Building blocks:
#     Node 0, Type 0, BuildingBlock: ESEHIV_clean_linker_0, # of connection points: 3
#     Node 1, Type 0, BuildingBlock: ESEHIV_clean_linker_0, # of connection points: 3
#     Node 2, Type 0, BuildingBlock: ESEHIV_clean_linker_0, # of connection points: 3
#     Node 3, Type 0, BuildingBlock: ESEHIV_clean_linker_0, # of connection points: 3
#     Node 4, Type 0, BuildingBlock: ESEHIV_clean_linker_0, # of connection points: 3
#     Node 5, Type 0, BuildingBlock: ESEHIV_clean_linker_0, # of connection points: 3
#     Node 6, Type 0, BuildingBlock: ESEHIV_clean_linker_0, # of connection points: 3
#     Node 7, Type 0, BuildingBlock: ESEHIV_clean_linker_0, # of connection points: 3
#     Node 8, Type 1, BuildingBlock: CUKXOW_clean_sbu_0, # of connection points: 6
#     Node 9, Type 1, BuildingBlock: CUKXOW_clean_sbu_0, # of connection points: 6
#     Node 10, Type 1, BuildingBlock: CUKXOW_clean_sbu_0, # of connection points: 6
#     Node 11, Type 1, BuildingBlock: CUKXOW_clean_sbu_0, # of connection points: 6
#     Edge 12, Type (0, 1), BuildingBlock: OJICUG_clean_linker_0, # of connection points: 2
#     Edge 13, Type (0, 1), BuildingBlock: OJICUG_clean_linker_0, # of connection points: 2
#     Edge 14, Type (0, 1), BuildingBlock: OJICUG_clean_linker_0, # of connection points: 2
#     Edge 15, Type (0, 1), BuildingBlock: OJICUG_clean_linker_0, # of connection points: 2
#     Edge 16, Type (0, 1), BuildingBlock: OJICUG_clean_linker_0, # of connection points: 2
#     Edge 17, Type (0, 1), BuildingBlock: OJICUG_clean_linker_0, # of connection points: 2
#     Edge 18, Type (0, 1), BuildingBlock: OJICUG_clean_linker_0, # of connection points: 2
#     Edge 19, Type (0, 1), BuildingBlock: OJICUG_clean_linker_0, # of connection points: 2
#     Edge 20, Type (0, 1), BuildingBlock: OJICUG_clean_linker_0, # of connection points: 2
#     Edge 21, Type (0, 1), BuildingBlock: OJICUG_clean_linker_0, # of connection points: 2
#     Edge 22, Type (0, 1), BuildingBlock: OJICUG_clean_linker_0, # of connection points: 2
#     Edge 23, Type (0, 1), BuildingBlock: OJICUG_clean_linker_0, # of connection points: 2
#     Edge 24, Type (0, 1), BuildingBlock: OJICUG_clean_linker_0, # of connection points: 2
#     Edge 25, Type (0, 1), BuildingBlock: OJICUG_clean_linker_0, # of connection points: 2
#     Edge 26, Type (0, 1), BuildingBlock: OJICUG_clean_linker_0, # of connection points: 2
#     Edge 27, Type (0, 1), BuildingBlock: OJICUG_clean_linker_0, # of connection points: 2
#     Edge 28, Type (0, 1), BuildingBlock: OJICUG_clean_linker_0, # of connection points: 2
#     Edge 29, Type (0, 1), BuildingBlock: OJICUG_clean_linker_0, # of connection points: 2
#     Edge 30, Type (0, 1), BuildingBlock: OJICUG_clean_linker_0, # of connection points: 2
#     Edge 31, Type (0, 1), BuildingBlock: OJICUG_clean_linker_0, # of connection points: 2
#     Edge 32, Type (0, 1), BuildingBlock: OJICUG_clean_linker_0, # of connection points: 2
#     Edge 33, Type (0, 1), BuildingBlock: OJICUG_clean_linker_0, # of connection points: 2
#     Edge 34, Type (0, 1), BuildingBlock: OJICUG_clean_linker_0, # of connection points: 2
#     Edge 35, Type (0, 1), BuildingBlock: OJICUG_clean_linker_0, # of connection points: 2
# Relax obj value: 0.204
# Max RMSD: 0.229
# Mean RMSD: 0.181
data_MOF--net-zzz--node1-CUKXOW_clean_sbu_0--node2-ESEHIV_clean_linker_0--edge1-OJICUG_clean_linker_0
_symmetry_space_group_name_H-M    P1
_symmetry_Int_Tables_number       1
_symmetry_cell_setting            triclinic
loop_
_symmetry_equiv_pos_as_xyz
'x, y, z'
_cell_length_a     30.776823
_cell_length_b     32.255978
_cell_length_c     12.055456
_cell_angle_alpha  93.163543
_cell_angle_beta   87.070778
_cell_angle_gamma 96.533909
loop_
_atom_site_label
_atom_site_type_symbol
_atom_site_fract_x
_atom_site_fract_y
_atom_site_fract_z
_atom_type_partial_charge
H0 H 0.85236 0.48893 0.25322 0.0
H1 H 0.78404 0.49279 0.95306 0.0
H2 H 0.71688 0.50986 0.27337 0.0
C3 C 0.82262 0.49244 0.2116 0.0
C4 C 0.78512 0.50013 0.27596 0.0
C5 C 0.82308 0.49072 0.09569 0.0
C6 C 0.78418 0.49432 0.04311 0.0
C7 C 0.74543 0.50044 0.10654 0.0
C8 C 0.74605 0.50374 0.22383 0.0
H9 H 1.01185 0.84628 0.14988 0.0
H10 H 0.05805 0.75448 0.91522 0.0
H11 H 0.97547 0.71601 0.20019 0.0
C12 C 1.01384 0.81385 0.12319 0.0
C13 C 0.99097 0.7824 0.1856 0.0
C14 C 0.03841 0.80426 0.02632 0.0
C15 C 0.03991 0.76225 -0.00843 0.0
C16 C 0.01719 0.73022 0.05373 0.0
C17 C 0.99286 0.74044 0.15147 0.0
H18 H 0.67671 0.04939 0.19973 0.0
H19 H 0.77481 0.02975 0.94423 0.0
H20 H 0.79998 0.01175 0.2868 0.0
C21 C 0.70987 0.04275 0.17624 0.0
C22 C 0.73679 0.03152 0.25697 0.0
C23 C 0.72322 0.04183 0.06441 0.0
C24 C 0.76483 0.03108 0.03185 0.0
C25 C 0.79335 0.02143 0.11186 0.0
C26 C 0.77903 0.02096 0.22513 0.0
H27 H 0.55601 0.65489 0.28273 0.0
H28 H 0.58498 0.7879 0.2768 0.0
H29 H 0.56184 0.71338 0.97187 0.0
C30 C 0.56183 0.68268 0.23501 0.0
C31 C 0.55564 0.67985 0.1209 0.0
C32 C 0.57436 0.72127 0.28999 0.0
C33 C 0.5782 0.75809 0.23171 0.0
C34 C 0.57187 0.75582 0.11612 0.0
C35 C 0.56344 0.71617 0.06148 0.0
H36 H 0.19478 0.5159 0.16836 0.0
H37 H 0.26639 0.52652 0.46684 0.0
H38 H 0.32983 0.49321 0.15215 0.0
C39 C 0.22531 0.5159 0.20965 0.0
C40 C 0.26218 0.50477 0.14739 0.0
C41 C 0.22611 0.52347 0.32452 0.0
C42 C 0.26528 0.52093 0.37746 0.0
C43 C 0.30301 0.51065 0.31585 0.0
C44 C 0.30142 0.50247 0.19994 0.0
H45 H 0.0304 0.14355 0.26826 0.0
H46 H 0.98457 0.23534 0.50355 0.0
H47 H 0.06805 0.27381 0.2202 0.0
C48 C 0.02859 0.17598 0.29524 0.0
C49 C 0.05185 0.20742 0.23351 0.0
C50 C 1.004 0.18559 0.39208 0.0
C51 C 1.00273 0.22757 0.42722 0.0
C52 C 0.02582 0.25955 0.36574 0.0
C53 C 0.05028 0.24938 0.2682 0.0
H54 H 0.37129 0.96067 0.21886 0.0
H55 H 0.26948 0.96962 0.47129 0.0
H56 H 0.24423 0.98792 0.12883 0.0
C57 C 0.33733 0.96462 0.24159 0.0
C58 C 0.30949 0.97366 0.16034 0.0
C59 C 0.32319 0.96333 0.35273 0.0
C60 C 0.28015 0.97 0.38415 0.0
C61 C 0.25105 0.97792 0.30355 0.0
C62 C 0.26593 0.9804 0.19095 0.0
H63 H 0.492 0.35419 0.14264 0.0
H64 H 0.46274 0.22125 0.14746 0.0
H65 H 0.48633 0.29534 0.45299 0.0
C66 C 0.4862 0.32635 0.19016 0.0
C67 C 0.49239 0.32906 0.30427 0.0
C68 C 0.47361 0.28784 0.1349 0.0
C69 C 0.46965 0.25096 0.19288 0.0
C70 C 0.47597 0.25304 0.30848 0.0
C71 C 0.48466 0.29263 0.36341 0.0
Tb72 Tb 0.9936 0.96072 0.64504 0.0
C73 C 0.08903 -0.00477 0.54767 0.0
Tb74 Tb 0.04983 0.02945 0.77361 0.0
O75 O 0.947 0.00395 0.60902 0.0
O76 O 1.01247 0.02532 0.6308 0.0
O77 O 0.05676 0.96393 0.54871 0.0
C78 C 0.0828 0.10054 0.8776 0.0
O79 O 0.09001 0.02756 0.62088 0.0
C80 C 0.06802 0.95304 0.79727 0.0
C81 C 0.95406 -0.00428 0.87002 0.0
O82 O 0.08514 0.0632 0.90982 0.0
O83 O 0.06175 0.09772 0.78674 0.0
O84 O 0.09633 0.98587 0.80876 0.0
O85 O 0.03083 0.96492 0.78786 0.0
O86 O 0.98673 0.02662 0.86959 0.0
O87 O 0.95289 0.9633 0.79699 0.0
C88 C 0.96074 0.8895 0.54151 0.0
O89 O 0.95854 0.92678 0.50875 0.0
O90 O 0.98163 0.89242 0.63267 0.0
C91 C 0.97515 0.03688 0.62085 0.0
Tb92 Tb 0.51275 0.04596 0.66617 0.0
C93 C 0.59989 0.00857 0.57949 0.0
Tb94 Tb 0.53347 0.96091 0.75271 0.0
O95 O 0.56823 0.08137 0.7474 0.0
O96 O 0.54015 0.02455 0.80657 0.0
O97 O 0.57094 0.035 0.5629 0.0
C98 C 0.56144 0.90069 0.86267 0.0
O99 O 0.59286 0.97818 0.65038 0.0
C100 C 0.47363 0.95463 0.6048 0.0
C101 C 0.44605 -0.00201 0.83816 0.0
O102 O 0.55473 0.89892 0.75691 0.0
O103 O 0.55248 0.93647 0.907 0.0
O104 O 0.47803 0.92538 0.67165 0.0
O105 O 0.506 0.98227 0.6126 0.0
O106 O 0.47514 0.97177 0.8554 0.0
O107 O 0.45301 0.02829 0.76696 0.0
C108 C 0.48512 0.10687 0.5581 0.0
O109 O 0.49136 0.10797 0.66403 0.0
O110 O 0.49432 0.07133 0.51253 0.0
C111 C 0.57253 0.05215 0.81434 0.0
Tb112 Tb 0.54213 0.54809 0.67081 0.0
C113 C 0.45341 0.50534 0.57926 0.0
Tb114 Tb 0.50513 0.46116 0.75419 0.0
O115 O 0.55163 0.52086 0.50196 0.0
O116 O 0.55427 0.48542 0.63956 0.0
O117 O 0.47853 0.54118 0.5971 0.0
C118 C 0.47832 0.38051 0.78305 0.0
O119 O 0.46023 0.4699 0.62386 0.0
C120 C 0.49298 0.52555 0.88985 0.0
C121 C 0.59386 0.50419 0.84583 0.0
O122 O 0.51621 0.3952 0.74061 0.0
O123 O 0.45549 0.41152 0.80785 0.0
O124 O 0.49559 0.48834 0.92312 0.0
O125 O 0.49306 0.52375 0.78553 0.0
O126 O 0.5688 0.46829 0.82811 0.0
O127 O 0.58692 0.53957 0.80123 0.0
C128 C 0.56905 0.62872 0.64192 0.0
O129 O 0.59184 0.59768 0.61724 0.0
O130 O 0.53111 0.61407 0.68422 0.0
C131 C 0.55433 0.48369 0.53525 0.0
Tb132 Tb 0.98051 0.50381 0.65304 0.0
C133 C 0.02442 0.42297 0.57931 0.0
Tb134 Tb 0.06496 0.48568 0.77134 0.0
O135 O 0.01906 0.5176 0.49679 0.0
O136 O 0.04793 0.52408 0.64937 0.0
O137 O 0.98794 0.44149 0.58343 0.0
C138 C 0.14742 0.48037 0.82469 0.0
O139 O 0.05946 0.4372 0.63623 0.0
C140 C 0.98977 0.4665 0.87864 0.0
C141 C 0.01977 0.56613 0.84463 0.0
O142 O 0.1154 0.45042 0.83114 0.0
O143 O 0.13268 0.51319 0.78986 0.0
O144 O 0.02666 0.47506 0.92762 0.0
O145 O 0.99762 0.46503 0.77553 0.0
O146 O 0.05683 0.54848 0.83738 0.0
O147 O 0.9843 0.55082 0.79095 0.0
C148 C 0.89805 0.51199 0.60451 0.0
O149 O 0.93144 0.54015 0.59162 0.0
O150 O 0.9114 0.47922 0.64368 0.0
C151 C 0.05594 0.52423 0.54648 0.0
C152 C 0.17218 0.95238 0.34059 0.0
C153 C 0.20612 0.98537 0.34183 0.0
H154 H 0.10805 0.92958 0.4043 0.0
C155 C 0.19935 0.023 0.40037 0.0
H156 H 0.17711 0.92281 0.29743 0.0
C157 C 0.16018 0.02693 0.46188 0.0
C158 C 0.12705 0.99308 0.46711 0.0
H159 H 0.22539 0.0486 0.40358 0.0
H160 H 0.15684 0.05593 0.5096 0.0
C161 C 0.13283 0.95624 0.40244 0.0
C162 C 0.45232 0.17646 0.34168 0.0
C163 C 0.47659 0.21476 0.37247 0.0
H164 H 0.43646 0.11154 0.37615 0.0
C165 C 0.50283 0.21633 0.46559 0.0
H166 H 0.4315 0.17379 0.2714 0.0
C167 C 0.50351 0.18158 0.52816 0.0
C168 C 0.47989 0.14363 0.4964 0.0
H169 H 0.52392 0.24414 0.48984 0.0
H170 H 0.52417 0.18397 0.59895 0.0
C171 C 0.45465 0.14092 0.40215 0.0
C172 C 0.34246 0.47723 0.45657 0.0
C173 C 0.3431 0.50684 0.37522 0.0
H174 H 0.37721 0.4531 0.58381 0.0
C175 C 0.38087 0.53479 0.35773 0.0
H176 H 0.31351 0.45546 0.47149 0.0
C177 C 0.41693 0.53415 0.42366 0.0
C178 C 0.41607 0.50496 0.50654 0.0
H179 H 0.38188 0.55802 0.29579 0.0
H180 H 0.44541 0.55661 0.41009 0.0
C181 C 0.37882 0.47593 0.5207 0.0
C182 C 0.06526 0.32803 0.42849 0.0
C183 C 0.02571 0.30333 0.4076 0.0
H184 H 0.09592 0.38553 0.5003 0.0
C185 C 0.98592 0.3194 0.4358 0.0
H186 H 0.09632 0.31605 0.40783 0.0
C187 C 0.9856 0.35911 0.48752 0.0
C188 C 0.0251 0.3831 0.51371 0.0
H189 H 0.95506 0.30083 0.41994 0.0
H190 H 0.95435 0.37024 0.51091 0.0
C191 C 0.06498 0.36754 0.48198 0.0
C192 C 0.87428 0.03953 0.08496 0.0
C193 C 0.83708 0.01046 0.07258 0.0
H194 H 0.94083 0.05777 0.03063 0.0
C195 C 0.84022 0.97434 0.00378 0.0
H196 H 0.87232 0.06793 0.13645 0.0
C197 C 0.87916 0.96841 0.94332 0.0
C198 C 0.91571 -0.00117 0.94907 0.0
H199 H 0.81174 0.95176 -0.00778 0.0
H200 H 0.87971 0.94094 0.88763 0.0
C201 C 0.91332 0.0338 0.02362 0.0
C202 C 0.54404 0.79187 0.9594 0.0
C203 C 0.57075 0.79388 0.05171 0.0
H204 H 0.52211 0.82352 0.82554 0.0
C205 C 0.59505 0.83231 0.08099 0.0
H206 H 0.52288 0.76393 0.93649 0.0
C207 C 0.59245 0.86754 0.01945 0.0
C208 C 0.56684 0.86433 0.92575 0.0
H209 H 0.61613 0.83529 0.1508 0.0
H210 H 0.61073 0.89703 0.0441 0.0
C211 C 0.54307 0.82627 0.89578 0.0
C212 C 0.70453 0.53403 0.96876 0.0
C213 C 0.70492 0.50388 0.04829 0.0
H214 H 0.66884 0.55811 0.84347 0.0
C215 C 0.66781 0.47495 0.06465 0.0
H216 H 0.73287 0.55662 0.95476 0.0
C217 C 0.6315 0.47515 -0.00073 0.0
C218 C 0.63142 0.50483 0.91806 0.0
H219 H 0.66754 0.45127 0.12509 0.0
H220 H 0.60361 0.45194 0.01191 0.0
C221 C 0.66794 0.53482 0.90518 0.0
C222 C 0.05769 0.67085 -0.01733 0.0
C223 C 0.01776 0.68634 0.01292 0.0
H224 H 0.08962 0.62032 0.90714 0.0
C225 C 0.97839 0.66077 -0.00423 0.0
H226 H 0.08844 0.69002 -0.00413 0.0
C227 C 0.97894 0.62102 0.94375 0.0
C228 C 0.01891 0.60611 0.90962 0.0
H229 H 0.9472 0.67221 0.01821 0.0
H230 H 0.9481 0.60235 0.92829 0.0
C231 C 0.05829 0.63095 0.93231 0.0
C232 C 0.99223 0.15137 0.5738 0.0
C233 C 0.984 0.15098 0.4602 0.0
H234 H 0.99313 0.11481 0.71654 0.0
C235 C 0.9635 0.11428 0.40818 0.0
H236 H 1.0076 0.17924 0.61643 0.0
C237 C 0.95657 0.07736 0.46477 0.0
C238 C 0.96977 0.07684 0.5741 0.0
H239 H 0.95597 0.11338 0.32119 0.0
H240 H 0.94438 0.04865 0.42012 0.0
C241 C 0.98493 0.11442 0.63044 0.0
C242 C 0.37842 -0.00333 0.48004 0.0
C243 C 0.3561 0.95997 0.43434 0.0
H244 H 0.43305 0.02367 0.57014 0.0
C245 C 0.37165 0.92146 0.44772 0.0
H246 H 0.3672 0.02674 0.46864 0.0
C247 C 0.40978 0.91987 0.50473 0.0
C248 C 0.43341 0.95687 0.54577 0.0
H249 H 0.35525 0.89294 0.41052 0.0
H250 H 0.42161 0.88989 0.51347 0.0
C251 C 0.41683 -0.00493 0.53518 0.0
C252 C 0.49677 0.40744 0.32904 0.0
C253 C 0.50932 0.36933 0.36072 0.0
H254 H 0.50231 0.47392 0.35803 0.0
C255 C 0.53932 0.36993 0.4453 0.0
H256 H 0.47344 0.40822 0.26516 0.0
C257 C 0.55511 0.40747 0.49949 0.0
C258 C 0.54186 0.44515 0.46901 0.0
H259 H 0.55076 0.34139 0.46973 0.0
H260 H 0.57745 0.40705 0.56594 0.0
C261 C 0.51332 0.44509 0.38196 0.0
C262 C 0.17364 0.5057 0.4835 0.0
C263 C 0.18435 0.52839 0.3883 0.0
H264 H 0.1243 0.48501 0.60294 0.0
C265 C 0.15252 0.55093 0.34671 0.0
H266 H 0.19668 0.4869 0.51572 0.0
C267 C 0.11049 0.54958 0.39769 0.0
C268 C 0.09997 0.52633 0.49199 0.0
H269 H 0.15982 0.56885 0.27335 0.0
H270 H 0.08634 0.56665 0.36365 0.0
C271 C 0.13193 0.50464 0.53412 0.0
C272 C 0.07883 0.87562 0.01058 0.0
C273 C 0.05847 0.8389 0.95831 0.0
H274 H 0.09804 0.94125 -0.00119 0.0
C275 C 0.05061 0.83851 0.84449 0.0
H276 H 0.08613 0.87654 0.09773 0.0
C277 C 0.05815 0.87546 0.7878 0.0
C278 C 0.07316 0.91305 0.84433 0.0
H279 H 0.03538 0.81062 0.80162 0.0
H280 H 0.0503 0.87504 0.70144 0.0
C281 C 0.08596 0.91254 0.954 0.0
C282 C 0.66837 0.00964 0.93466 0.0
C283 C 0.69019 0.04596 -0.0164 0.0
H284 H 0.61392 0.98311 0.84356 0.0
C285 C 0.67406 0.08448 0.97389 0.0
H286 H 0.67997 0.97953 0.94328 0.0
C287 C 0.63593 0.0864 0.91712 0.0
C288 C 0.61278 0.04967 0.87302 0.0
H289 H 0.69008 0.1127 0.01353 0.0
H290 H 0.6237 0.11636 0.91102 0.0
C291 C 0.62985 0.01151 0.88031 0.0
C292 C 0.5508 0.60145 0.09632 0.0
C293 C 0.53847 0.63964 0.06466 0.0
H294 H 0.54494 0.53498 0.06714 0.0
C295 C 0.50846 0.63921 -0.01985 0.0
H296 H 0.5741 0.60055 0.16023 0.0
C297 C 0.49252 0.60176 0.92579 0.0
C298 C 0.50561 0.56401 0.95612 0.0
H299 H 0.49713 0.66782 0.95582 0.0
H300 H 0.4702 0.60231 0.85936 0.0
C301 C 0.53409 0.56389 0.04326 0.0
C302 C 0.86755 0.45856 0.93944 0.0
C303 C 0.86512 0.4864 0.03281 0.0
H304 H 0.90974 0.42976 0.81813 0.0
C305 C 0.90398 0.5083 0.0721 0.0
H306 H 0.83823 0.44111 0.90777 0.0
C307 C 0.94445 0.501 0.02313 0.0
C308 C 0.94692 0.47261 0.93167 0.0
H309 H 0.90317 0.53083 0.14202 0.0
H310 H 0.9738 0.5181 0.05583 0.0
C311 C 0.9083 0.45184 0.88891 0.0
C312 C 0.10575 0.16523 0.13723 0.0
C313 C 0.07553 0.19441 0.13065 0.0
H314 H 0.13203 0.11182 0.05896 0.0
C315 C 0.05797 0.19979 0.02803 0.0
H316 H 0.11965 0.16071 0.21591 0.0
C317 C 0.06521 0.17189 0.93782 0.0
C318 C 0.08968 0.13839 0.95075 0.0
H319 H 0.0344 0.22197 0.02158 0.0
H320 H 0.04747 0.1736 0.86315 0.0
C321 C 0.11257 0.13712 0.04781 0.0
C322 C 0.34503 0.01937 0.01518 0.0
C323 C 0.32984 0.9789 0.04777 0.0
H324 H 0.39441 0.05738 0.92217 0.0
C325 C 0.34846 0.94471 -0.00445 0.0
H326 H 0.33184 0.04626 0.05619 0.0
C327 C 0.38514 0.95109 0.92312 0.0
C328 C 0.40324 0.99174 0.89949 0.0
H329 H 0.33776 0.91329 0.02067 0.0
H330 H 0.40076 0.92426 0.8903 0.0
C331 C 0.38135 0.02575 0.94041 0.0
C332 C 0.50327 0.29158 0.94195 0.0
C333 C 0.46635 0.28863 0.0155 0.0
H334 H 0.53574 0.32341 0.80464 0.0
C335 C 0.42836 0.30483 -0.01404 0.0
H336 H 0.533 0.27951 0.96372 0.0
C337 C 0.4301 0.33068 0.89633 0.0
C338 C 0.46977 0.34006 0.83547 0.0
H339 H 0.3996 0.30304 0.04202 0.0
H340 H 0.4023 0.3475 0.88438 0.0
C341 C 0.50492 0.31714 0.85152 0.0
C342 C 0.25105 0.52373 0.95774 0.0
C343 C 0.25528 0.49197 0.03008 0.0
H344 H 0.21251 0.54471 0.8337 0.0
C345 C 0.23271 0.45216 0.00881 0.0
H346 H 0.26787 0.55474 0.97315 0.0
C347 C 0.20003 0.44665 0.93124 0.0
C348 C 0.19048 0.48073 0.87305 0.0
H349 H 0.23526 0.42731 0.06427 0.0
H350 H 0.17921 0.41724 0.92624 0.0
C351 C 0.21867 0.51815 0.87949 0.0
C352 C 0.9855 0.79022 0.3911 0.0
C353 C 0.96755 0.79543 0.28885 0.0
H354 H 0.99648 0.81661 0.55559 0.0
C355 C 0.93715 0.82447 0.2828 0.0
H356 H 1.0092 0.76814 0.39714 0.0
C357 C 0.93054 0.85265 0.3722 0.0
C358 C 0.95378 0.85156 0.46876 0.0
H359 H 0.92296 0.82886 0.20442 0.0
H360 H 0.91093 0.87786 0.36136 0.0
C361 C 0.97844 0.81818 0.48133 0.0
C362 C 0.69765 0.06111 0.42107 0.0
C363 C 0.71611 0.0267 0.36946 0.0
H364 H 0.6454 0.08204 0.52566 0.0
C365 C 0.70081 0.98639 0.403 0.0
H366 H 0.70855 0.09244 0.39553 0.0
C367 C 0.66442 0.98035 0.47768 0.0
C368 C 0.64262 0.01453 0.51769 0.0
H369 H 0.71393 0.95932 0.36277 0.0
H370 H 0.65127 0.94881 0.49665 0.0
C371 C 0.6609 0.05506 0.49337 0.0
C372 C 0.54449 0.71773 0.48276 0.0
C373 C 0.5815 0.72063 0.40949 0.0
H374 H 0.51178 0.68592 0.61979 0.0
C375 C 0.61941 0.70439 0.43943 0.0
H376 H 0.51482 0.72984 0.4607 0.0
C377 C 0.6175 0.67852 0.52906 0.0
C378 C 0.57774 0.66918 0.58956 0.0
H379 H 0.64824 0.70614 0.38362 0.0
H380 H 0.64524 0.66166 0.54128 0.0
C381 C 0.54266 0.69215 0.57319 0.0
C382 C 0.81297 0.54664 0.42958 0.0
C383 C 0.79118 0.50763 0.39614 0.0
H384 H 0.86551 0.57856 0.52191 0.0
C385 C 0.79588 0.47284 0.45777 0.0
H386 H 0.81018 0.57384 0.38257 0.0
C387 C 0.82775 0.47545 0.5374 0.0
C388 C 0.85517 0.51286 0.55557 0.0
H389 H 0.77982 0.44235 0.43277 0.0
H390 H 0.83426 0.44707 0.5745 0.0
C391 C 0.8453 0.54916 0.50784 0.0
loop_
_geom_bond_atom_site_label_1
_geom_bond_atom_site_label_2
_geom_bond_distance
_geom_bond_site_symmetry_2
_ccdc_geom_bond_type
H0 C3 0.931 . S
H1 C6 0.928 . S
H2 C8 0.930 . S
C3 H0 0.931 . S
C3 C4 1.413 . S
C3 C5 1.360 1_554 S
C4 C3 1.413 . S
C4 C8 1.429 . S
C5 C3 1.360 1_556 S
C5 C6 1.372 . S
C6 H1 0.928 . S
C6 C5 1.372 . S
C6 C7 1.404 1_556 S
C7 C6 1.404 1_554 S
C7 C8 1.391 . S
C8 H2 0.930 . S
C8 C4 1.429 . S
C8 C7 1.391 . S
H9 C12 0.931 . S
H10 C15 0.928 . S
H11 C17 0.930 . S
C12 H9 0.931 . S
C12 C13 1.413 . S
C12 C14 1.360 1_554 S
C13 C12 1.413 . S
C13 C17 1.429 . S
C14 C12 1.360 1_556 S
C14 C15 1.372 . S
C15 H10 0.928 . S
C15 C14 1.372 . S
C15 C16 1.404 . S
C16 C15 1.404 . S
C16 C17 1.391 1_556 S
C17 H11 0.930 . S
C17 C13 1.429 . S
C17 C16 1.391 1_554 S
H18 C21 0.931 . S
H19 C24 0.928 1_556 S
H20 C26 0.930 . S
C21 H18 0.931 . S
C21 C22 1.414 . S
C21 C23 1.360 . S
C22 C21 1.414 . S
C22 C26 1.430 1_565 S
C23 C21 1.360 . S
C23 C24 1.374 . S
C24 H19 0.928 1_554 S
C24 C23 1.374 . S
C24 C25 1.403 . S
C25 C24 1.403 . S
C25 C26 1.391 1_565 S
C26 H20 0.930 . S
C26 C22 1.430 1_545 S
C26 C25 1.391 1_545 S
H27 C30 0.931 . S
H28 C33 0.928 . S
H29 C35 0.930 . S
C30 H27 0.931 . S
C30 C31 1.413 1_554 S
C30 C32 1.360 . S
C31 C30 1.413 1_556 S
C31 C35 1.429 . S
C32 C30 1.360 . S
C32 C33 1.372 . S
C33 H28 0.928 . S
C33 C32 1.372 . S
C33 C34 1.404 . S
C34 C33 1.404 . S
C34 C35 1.391 1_554 S
C35 H29 0.930 . S
C35 C31 1.429 . S
C35 C34 1.391 1_556 S
H36 C39 0.931 . S
H37 C42 0.928 . S
H38 C44 0.930 . S
C39 H36 0.931 . S
C39 C40 1.413 . S
C39 C41 1.360 . S
C40 C39 1.413 . S
C40 C44 1.429 . S
C41 C39 1.360 . S
C41 C42 1.372 . S
C42 H37 0.928 . S
C42 C41 1.372 . S
C42 C43 1.404 . S
C43 C42 1.404 . S
C43 C44 1.391 . S
C44 H38 0.930 . S
C44 C40 1.429 . S
C44 C43 1.391 . S
H45 C48 0.931 . S
H46 C51 0.928 . S
H47 C53 0.930 . S
C48 H45 0.931 . S
C48 C49 1.413 . S
C48 C50 1.360 . S
C49 C48 1.413 . S
C49 C53 1.429 . S
C50 C48 1.360 . S
C50 C51 1.372 . S
C51 H46 0.928 . S
C51 C50 1.372 . S
C51 C52 1.404 . S
C52 C51 1.404 . S
C52 C53 1.391 . S
C53 H47 0.930 . S
C53 C49 1.429 . S
C53 C52 1.391 . S
H54 C57 0.931 . S
H55 C60 0.928 . S
H56 C62 0.930 . S
C57 H54 0.931 . S
C57 C58 1.413 . S
C57 C59 1.360 . S
C58 C57 1.413 . S
C58 C62 1.429 . S
C59 C57 1.360 . S
C59 C60 1.372 . S
C60 H55 0.928 . S
C60 C59 1.372 . S
C60 C61 1.404 . S
C61 C60 1.404 . S
C61 C62 1.391 . S
C62 H56 0.930 . S
C62 C58 1.429 . S
C62 C61 1.391 . S
H63 C66 0.931 . S
H64 C69 0.928 . S
H65 C71 0.930 . S
C66 H63 0.931 . S
C66 C67 1.413 . S
C66 C68 1.360 . S
C67 C66 1.413 . S
C67 C71 1.429 . S
C68 C66 1.360 . S
C68 C69 1.372 . S
C69 H64 0.928 . S
C69 C68 1.372 . S
C69 C70 1.404 . S
C70 C69 1.404 . S
C70 C71 1.391 . S
C71 H65 0.930 . S
C71 C67 1.429 . S
C71 C70 1.391 . S
Tb72 O75 2.453 1_665 S
Tb72 O76 2.596 1_665 S
Tb72 O77 2.374 1_655 S
Tb72 O85 2.343 . S
Tb72 O87 2.353 1_565 S
Tb72 O89 2.427 . S
Tb72 O90 2.513 . S
C73 O77 1.251 . S
C73 O79 1.263 . S
Tb74 O76 2.343 . S
Tb74 O79 2.353 1_545 S
Tb74 O82 2.427 . S
Tb74 O83 2.513 . S
Tb74 O84 2.453 1_545 S
Tb74 O85 2.596 1_445 S
Tb74 O86 2.374 1_455 S
O75 Tb72 2.453 1_445 S
O75 C91 1.245 . S
O76 Tb72 2.596 1_445 S
O76 Tb74 2.343 . S
O76 C91 1.259 . S
O77 Tb72 2.374 1_455 S
O77 C73 1.251 . S
C78 O82 1.275 . S
C78 O83 1.246 . S
O79 C73 1.263 . S
O79 Tb74 2.353 1_565 S
C80 O84 1.245 1_655 S
C80 O85 1.259 . S
C81 O86 1.250 . S
C81 O87 1.263 . S
O82 Tb74 2.427 . S
O82 C78 1.275 . S
O83 Tb74 2.513 . S
O83 C78 1.246 . S
O84 Tb74 2.453 1_565 S
O84 C80 1.245 1_455 S
O85 Tb72 2.343 . S
O85 Tb74 2.596 1_665 S
O85 C80 1.259 . S
O86 Tb74 2.374 1_655 S
O86 C81 1.250 . S
O87 Tb72 2.353 1_545 S
O87 C81 1.263 . S
C88 O89 1.275 . S
C88 O90 1.246 . S
O89 Tb72 2.427 . S
O89 C88 1.275 . S
O90 Tb72 2.513 . S
O90 C88 1.246 . S
C91 O75 1.245 . S
C91 O76 1.259 . S
Tb92 O95 2.453 . S
Tb92 O96 2.596 1_545 S
Tb92 O97 2.374 . S
Tb92 O105 2.343 . S
Tb92 O107 2.353 . S
Tb92 O109 2.427 . S
Tb92 O110 2.513 . S
C93 O97 1.251 . S
C93 O99 1.263 1_545 S
Tb94 O96 2.343 . S
Tb94 O99 2.353 . S
Tb94 O102 2.427 . S
Tb94 O103 2.513 . S
Tb94 O104 2.453 . S
Tb94 O105 2.596 1_565 S
Tb94 O106 2.374 . S
O95 Tb92 2.453 . S
O95 C111 1.245 . S
O96 Tb92 2.596 1_565 S
O96 Tb94 2.343 . S
O96 C111 1.259 1_565 S
O97 Tb92 2.374 . S
O97 C93 1.251 . S
C98 O102 1.275 . S
C98 O103 1.246 . S
O99 C93 1.263 1_565 S
O99 Tb94 2.353 . S
C100 O104 1.245 . S
C100 O105 1.259 1_565 S
C101 O106 1.250 1_545 S
C101 O107 1.263 . S
O102 Tb94 2.427 . S
O102 C98 1.275 . S
O103 Tb94 2.513 . S
O103 C98 1.246 . S
O104 Tb94 2.453 . S
O104 C100 1.245 . S
O105 Tb92 2.343 . S
O105 Tb94 2.596 1_545 S
O105 C100 1.259 1_545 S
O106 Tb94 2.374 . S
O106 C101 1.250 1_565 S
O107 Tb92 2.353 . S
O107 C101 1.263 . S
C108 O109 1.275 . S
C108 O110 1.246 . S
O109 Tb92 2.427 . S
O109 C108 1.275 . S
O110 Tb92 2.513 . S
O110 C108 1.246 . S
C111 O95 1.245 . S
C111 O96 1.259 1_545 S
Tb112 O115 2.453 . S
Tb112 O116 2.596 . S
Tb112 O117 2.374 . S
Tb112 O125 2.343 . S
Tb112 O127 2.353 . S
Tb112 O129 2.427 . S
Tb112 O130 2.513 . S
C113 O117 1.251 . S
C113 O119 1.263 . S
Tb114 O116 2.343 . S
Tb114 O119 2.353 . S
Tb114 O122 2.427 . S
Tb114 O123 2.513 . S
Tb114 O124 2.453 . S
Tb114 O125 2.596 . S
Tb114 O126 2.374 . S
O115 Tb112 2.453 . S
O115 C131 1.245 . S
O116 Tb112 2.596 . S
O116 Tb114 2.343 . S
O116 C131 1.259 . S
O117 Tb112 2.374 . S
O117 C113 1.251 . S
C118 O122 1.275 . S
C118 O123 1.246 . S
O119 C113 1.263 . S
O119 Tb114 2.353 . S
C120 O124 1.245 . S
C120 O125 1.259 . S
C121 O126 1.250 . S
C121 O127 1.263 . S
O122 Tb114 2.427 . S
O122 C118 1.275 . S
O123 Tb114 2.513 . S
O123 C118 1.246 . S
O124 Tb114 2.453 . S
O124 C120 1.245 . S
O125 Tb112 2.343 . S
O125 Tb114 2.596 . S
O125 C120 1.259 . S
O126 Tb114 2.374 . S
O126 C121 1.250 . S
O127 Tb112 2.353 . S
O127 C121 1.263 . S
C128 O129 1.275 . S
C128 O130 1.246 . S
O129 Tb112 2.427 . S
O129 C128 1.275 . S
O130 Tb112 2.513 . S
O130 C128 1.246 . S
C131 O115 1.245 . S
C131 O116 1.259 . S
Tb132 O135 2.453 1_655 S
Tb132 O136 2.596 1_655 S
Tb132 O137 2.374 1_655 S
Tb132 O145 2.343 . S
Tb132 O147 2.353 . S
Tb132 O149 2.427 . S
Tb132 O150 2.513 . S
C133 O137 1.251 . S
C133 O139 1.263 . S
Tb134 O136 2.343 . S
Tb134 O139 2.353 . S
Tb134 O142 2.427 . S
Tb134 O143 2.513 . S
Tb134 O144 2.453 1_455 S
Tb134 O145 2.596 1_455 S
Tb134 O146 2.374 1_455 S
O135 Tb132 2.453 1_455 S
O135 C151 1.245 . S
O136 Tb132 2.596 1_455 S
O136 Tb134 2.343 . S
O136 C151 1.259 . S
O137 Tb132 2.374 1_455 S
O137 C133 1.251 . S
C138 O142 1.275 . S
C138 O143 1.246 . S
O139 C133 1.263 . S
O139 Tb134 2.353 . S
C140 O144 1.245 . S
C140 O145 1.259 . S
C141 O146 1.250 . S
C141 O147 1.263 . S
O142 Tb134 2.427 . S
O142 C138 1.275 . S
O143 Tb134 2.513 . S
O143 C138 1.246 . S
O144 Tb134 2.453 1_655 S
O144 C140 1.245 . S
O145 Tb132 2.343 . S
O145 Tb134 2.596 1_655 S
O145 C140 1.259 . S
O146 Tb134 2.374 1_655 S
O146 C141 1.250 . S
O147 Tb132 2.353 . S
O147 C141 1.263 . S
C148 O149 1.275 . S
C148 O150 1.246 . S
O149 Tb132 2.427 . S
O149 C148 1.275 . S
O150 Tb132 2.513 . S
O150 C148 1.246 . S
C151 O135 1.245 . S
C151 O136 1.259 . S
C152 C153 1.387 1_565 S
C152 H156 0.950 . S
C152 C161 1.390 . S
C153 C152 1.387 1_545 S
C153 C155 1.387 . S
H154 C161 0.950 . S
C155 C153 1.387 . S
C155 C157 1.390 . S
C155 H159 0.950 . S
H156 C152 0.950 . S
C157 C155 1.390 . S
C157 C158 1.387 . S
C157 H160 0.950 . S
C158 C157 1.387 . S
C158 C161 1.387 1_545 S
H159 C155 0.950 . S
H160 C157 0.950 . S
C161 C152 1.390 . S
C161 H154 0.950 . S
C161 C158 1.387 1_565 S
C162 C163 1.387 . S
C162 H166 0.950 . S
C162 C171 1.390 . S
C163 C162 1.387 . S
C163 C165 1.387 . S
H164 C171 0.950 . S
C165 C163 1.387 . S
C165 C167 1.390 . S
C165 H169 0.950 . S
H166 C162 0.950 . S
C167 C165 1.390 . S
C167 C168 1.387 . S
C167 H170 0.950 . S
C168 C167 1.387 . S
C168 C171 1.387 . S
H169 C165 0.950 . S
H170 C167 0.950 . S
C171 C162 1.390 . S
C171 H164 0.950 . S
C171 C168 1.387 . S
C172 C173 1.387 . S
C172 H176 0.950 . S
C172 C181 1.390 . S
C173 C172 1.387 . S
C173 C175 1.387 . S
H174 C181 0.950 . S
C175 C173 1.387 . S
C175 C177 1.390 . S
C175 H179 0.950 . S
H176 C172 0.950 . S
C177 C175 1.390 . S
C177 C178 1.387 . S
C177 H180 0.950 . S
C178 C177 1.387 . S
C178 C181 1.387 . S
H179 C175 0.950 . S
H180 C177 0.950 . S
C181 C172 1.390 . S
C181 H174 0.950 . S
C181 C178 1.387 . S
C182 C183 1.387 . S
C182 H186 0.950 . S
C182 C191 1.390 . S
C183 C182 1.387 . S
C183 C185 1.387 . S
H184 C191 0.950 . S
C185 C183 1.387 . S
C185 C187 1.390 . S
C185 H189 0.950 . S
H186 C182 0.950 . S
C187 C185 1.390 . S
C187 C188 1.387 . S
C187 H190 0.950 . S
C188 C187 1.387 . S
C188 C191 1.387 . S
H189 C185 0.950 . S
H190 C187 0.950 . S
C191 C182 1.390 . S
C191 H184 0.950 . S
C191 C188 1.387 . S
C192 C193 1.388 . S
C192 H196 0.950 . S
C192 C201 1.389 1_554 S
C193 C192 1.388 . S
C193 C195 1.387 1_544 S
H194 C201 0.950 . S
C195 C193 1.387 1_566 S
C195 C197 1.390 . S
C195 H199 0.950 1_556 S
H196 C192 0.950 . S
C197 C195 1.390 . S
C197 C198 1.387 1_565 S
C197 H200 0.950 . S
C198 C197 1.387 1_545 S
C198 C201 1.387 . S
H199 C195 0.950 1_554 S
H200 C197 0.950 . S
C201 C192 1.389 1_556 S
C201 H194 0.950 . S
C201 C198 1.387 . S
C202 C203 1.387 1_556 S
C202 H206 0.950 . S
C202 C211 1.390 . S
C203 C202 1.387 1_554 S
C203 C205 1.387 . S
H204 C211 0.950 . S
C205 C203 1.387 . S
C205 C207 1.390 . S
C205 H209 0.950 . S
H206 C202 0.950 . S
C207 C205 1.390 . S
C207 C208 1.387 1_554 S
C207 H210 0.950 . S
C208 C207 1.387 1_556 S
C208 C211 1.387 . S
H209 C205 0.950 . S
H210 C207 0.950 . S
C211 C202 1.390 . S
C211 H204 0.950 . S
C211 C208 1.387 . S
C212 C213 1.387 1_554 S
C212 H216 0.950 . S
C212 C221 1.390 1_554 S
C213 C212 1.387 1_556 S
C213 C215 1.387 . S
H214 C221 0.950 . S
C215 C213 1.387 . S
C215 C217 1.390 . S
C215 H219 0.950 . S
H216 C212 0.950 . S
C217 C215 1.390 . S
C217 C218 1.387 . S
C217 H220 0.950 . S
C218 C217 1.387 . S
C218 C221 1.387 . S
H219 C215 0.950 . S
H220 C217 0.950 . S
C221 C212 1.390 1_556 S
C221 H214 0.950 . S
C221 C218 1.387 . S
C222 C223 1.387 1_554 S
C222 H226 0.950 . S
C222 C231 1.390 1_554 S
C223 C222 1.387 1_556 S
C223 C225 1.387 . S
H224 C231 0.950 1_554 S
C225 C223 1.387 . S
C225 C227 1.390 . S
C225 H229 0.950 . S
H226 C222 0.950 . S
C227 C225 1.390 . S
C227 C228 1.387 . S
C227 H230 0.950 . S
C228 C227 1.387 . S
C228 C231 1.387 . S
H229 C225 0.950 . S
H230 C227 0.950 . S
C231 C222 1.390 1_556 S
C231 H224 0.950 1_556 S
C231 C228 1.387 . S
C232 C233 1.387 . S
C232 H236 0.950 . S
C232 C241 1.390 . S
C233 C232 1.387 . S
C233 C235 1.387 . S
H234 C241 0.950 . S
C235 C233 1.387 . S
C235 C237 1.390 . S
C235 H239 0.950 . S
H236 C232 0.950 . S
C237 C235 1.390 . S
C237 C238 1.387 . S
C237 H240 0.950 . S
C238 C237 1.387 . S
C238 C241 1.387 . S
H239 C235 0.950 . S
H240 C237 0.950 . S
C241 C232 1.390 . S
C241 H234 0.950 . S
C241 C238 1.387 . S
C242 C243 1.387 . S
C242 H246 0.950 . S
C242 C251 1.390 . S
C243 C242 1.387 . S
C243 C245 1.387 1_545 S
H244 C251 0.950 . S
C245 C243 1.387 1_565 S
C245 C247 1.390 . S
C245 H249 0.950 . S
H246 C242 0.950 . S
C247 C245 1.390 . S
C247 C248 1.387 1_565 S
C247 H250 0.950 . S
C248 C247 1.387 1_545 S
C248 C251 1.387 . S
H249 C245 0.950 . S
H250 C247 0.950 . S
C251 C242 1.390 . S
C251 H244 0.950 . S
C251 C248 1.387 . S
C252 C253 1.387 . S
C252 H256 0.950 . S
C252 C261 1.390 . S
C253 C252 1.387 . S
C253 C255 1.387 . S
H254 C261 0.950 . S
C255 C253 1.387 . S
C255 C257 1.390 . S
C255 H259 0.950 . S
H256 C252 0.950 . S
C257 C255 1.390 . S
C257 C258 1.387 . S
C257 H260 0.950 . S
C258 C257 1.387 . S
C258 C261 1.387 . S
H259 C255 0.950 . S
H260 C257 0.950 . S
C261 C252 1.390 . S
C261 H254 0.950 . S
C261 C258 1.387 . S
C262 C263 1.387 . S
C262 H266 0.950 . S
C262 C271 1.390 . S
C263 C262 1.387 . S
C263 C265 1.387 . S
H264 C271 0.950 . S
C265 C263 1.387 . S
C265 C267 1.390 . S
C265 H269 0.950 . S
H266 C262 0.950 . S
C267 C265 1.390 . S
C267 C268 1.387 . S
C267 H270 0.950 . S
C268 C267 1.387 . S
C268 C271 1.387 . S
H269 C265 0.950 . S
H270 C267 0.950 . S
C271 C262 1.390 . S
C271 H264 0.950 . S
C271 C268 1.387 . S
C272 C273 1.387 . S
C272 H276 0.950 1_556 S
C272 C281 1.390 . S
C273 C272 1.387 . S
C273 C275 1.387 . S
H274 C281 0.950 . S
C275 C273 1.387 . S
C275 C277 1.390 . S
C275 H279 0.950 . S
H276 C272 0.950 1_554 S
C277 C275 1.390 . S
C277 C278 1.387 . S
C277 H280 0.950 . S
C278 C277 1.387 . S
C278 C281 1.387 . S
H279 C275 0.950 . S
H280 C277 0.950 . S
C281 C272 1.390 . S
C281 H274 0.950 . S
C281 C278 1.387 . S
C282 C283 1.372 1_565 S
C282 H286 0.950 . S
C282 C291 1.390 . S
C283 C282 1.372 1_545 S
C283 C285 1.407 . S
H284 C291 0.950 . S
C285 C283 1.407 . S
C285 C287 1.390 . S
C285 H289 0.950 1_556 S
H286 C282 0.950 . S
C287 C285 1.390 . S
C287 C288 1.387 . S
C287 H290 0.950 . S
C288 C287 1.387 . S
C288 C291 1.387 1_545 S
H289 C285 0.950 1_554 S
H290 C287 0.950 . S
C291 C282 1.390 . S
C291 H284 0.950 . S
C291 C288 1.387 1_565 S
C292 C293 1.387 1_554 S
C292 H296 0.950 . S
C292 C301 1.390 1_554 S
C293 C292 1.387 1_556 S
C293 C295 1.387 . S
H294 C301 0.950 1_554 S
C295 C293 1.387 . S
C295 C297 1.390 . S
C295 H299 0.950 . S
H296 C292 0.950 . S
C297 C295 1.390 . S
C297 C298 1.387 . S
C297 H300 0.950 . S
C298 C297 1.387 . S
C298 C301 1.387 . S
H299 C295 0.950 . S
H300 C297 0.950 . S
C301 C292 1.390 1_556 S
C301 H294 0.950 1_556 S
C301 C298 1.387 . S
C302 C303 1.387 . S
C302 H306 0.950 . S
C302 C311 1.390 . S
C303 C302 1.387 . S
C303 C305 1.387 . S
H304 C311 0.950 . S
C305 C303 1.387 . S
C305 C307 1.390 . S
C305 H309 0.950 . S
H306 C302 0.950 . S
C307 C305 1.390 . S
C307 C308 1.387 . S
C307 H310 0.950 . S
C308 C307 1.387 . S
C308 C311 1.387 . S
H309 C305 0.950 . S
H310 C307 0.950 . S
C311 C302 1.390 . S
C311 H304 0.950 . S
C311 C308 1.387 . S
C312 C313 1.387 . S
C312 H316 0.950 . S
C312 C321 1.390 . S
C313 C312 1.387 . S
C313 C315 1.387 . S
H314 C321 0.950 1_556 S
C315 C313 1.387 . S
C315 C317 1.390 . S
C315 H319 0.950 . S
H316 C312 0.950 . S
C317 C315 1.390 . S
C317 C318 1.387 . S
C317 H320 0.950 . S
C318 C317 1.387 . S
C318 C321 1.387 . S
H319 C315 0.950 . S
H320 C317 0.950 . S
C321 C312 1.390 . S
C321 H314 0.950 1_554 S
C321 C318 1.387 . S
C322 C323 1.387 . S
C322 H326 0.950 . S
C322 C331 1.395 . S
C323 C322 1.387 . S
C323 C325 1.387 1_545 S
H324 C331 0.945 1_556 S
C325 C323 1.387 1_565 S
C325 C327 1.390 . S
C325 H329 0.950 . S
H326 C322 0.950 . S
C327 C325 1.390 . S
C327 C328 1.387 1_564 S
C327 H330 0.950 . S
C328 C327 1.387 1_546 S
C328 C331 1.387 1_556 S
H329 C325 0.950 . S
H330 C327 0.950 . S
C331 C322 1.395 . S
C331 H324 0.945 1_554 S
C331 C328 1.387 1_554 S
C332 C333 1.387 . S
C332 H336 0.950 . S
C332 C341 1.390 . S
C333 C332 1.387 . S
C333 C335 1.387 . S
H334 C341 0.950 . S
C335 C333 1.387 . S
C335 C337 1.390 1_554 S
C335 H339 0.950 . S
H336 C332 0.950 . S
C337 C335 1.390 1_556 S
C337 C338 1.387 1_556 S
C337 H340 0.950 . S
C338 C337 1.387 1_554 S
C338 C341 1.387 . S
H339 C335 0.950 . S
H340 C337 0.950 . S
C341 C332 1.390 . S
C341 H334 0.950 . S
C341 C338 1.387 . S
C342 C343 1.387 . S
C342 H346 0.950 . S
C342 C351 1.390 . S
C343 C342 1.387 . S
C343 C345 1.387 . S
H344 C351 0.950 . S
C345 C343 1.387 . S
C345 C347 1.390 . S
C345 H349 0.950 . S
H346 C342 0.950 . S
C347 C345 1.390 . S
C347 C348 1.387 . S
C347 H350 0.950 . S
C348 C347 1.387 . S
C348 C351 1.387 . S
H349 C345 0.950 . S
H350 C347 0.950 . S
C351 C342 1.390 . S
C351 H344 0.950 . S
C351 C348 1.387 . S
C352 C353 1.387 . S
C352 H356 0.950 . S
C352 C361 1.390 . S
C353 C352 1.387 . S
C353 C355 1.387 . S
H354 C361 0.950 . S
C355 C353 1.387 . S
C355 C357 1.390 . S
C355 H359 0.950 . S
H356 C352 0.950 . S
C357 C355 1.390 . S
C357 C358 1.387 . S
C357 H360 0.950 . S
C358 C357 1.387 . S
C358 C361 1.387 . S
H359 C355 0.950 . S
H360 C357 0.950 . S
C361 C352 1.390 . S
C361 H354 0.950 . S
C361 C358 1.387 . S
C362 C363 1.399 . S
C362 H366 0.950 . S
C362 C371 1.390 . S
C363 C362 1.399 . S
C363 C365 1.377 1_545 S
H364 C371 0.950 . S
C365 C363 1.377 1_565 S
C365 C367 1.390 . S
C365 H369 0.950 . S
H366 C362 0.950 . S
C367 C365 1.390 . S
C367 C368 1.387 1_565 S
C367 H370 0.950 . S
C368 C367 1.387 1_545 S
C368 C371 1.387 . S
H369 C365 0.950 . S
H370 C367 0.950 . S
C371 C362 1.390 . S
C371 H364 0.950 . S
C371 C368 1.387 . S
C372 C373 1.387 . S
C372 H376 0.950 . S
C372 C381 1.390 . S
C373 C372 1.387 . S
C373 C375 1.387 . S
H374 C381 0.950 . S
C375 C373 1.387 . S
C375 C377 1.390 . S
C375 H379 0.950 . S
H376 C372 0.950 . S
C377 C375 1.390 . S
C377 C378 1.387 . S
C377 H380 0.950 . S
C378 C377 1.387 . S
C378 C381 1.387 . S
H379 C375 0.950 . S
H380 C377 0.950 . S
C381 C372 1.390 . S
C381 H374 0.950 . S
C381 C378 1.387 . S
C382 C383 1.387 . S
C382 H386 0.950 . S
C382 C391 1.390 . S
C383 C382 1.387 . S
C383 C385 1.387 . S
H384 C391 0.950 . S
C385 C383 1.387 . S
C385 C387 1.390 . S
C385 H389 0.950 . S
H386 C382 0.950 . S
C387 C385 1.390 . S
C387 C388 1.387 . S
C387 H390 0.950 . S
C388 C387 1.387 . S
C388 C391 1.387 . S
H389 C385 0.950 . S
H390 C387 0.950 . S
C391 C382 1.390 . S
C391 H384 0.950 . S
C391 C388 1.387 . S
C153 C61 1.482 . S
C158 C73 1.504 1_545 S
C168 C108 1.725 . S
C163 C70 1.626 . S
C178 C113 1.360 . S
C173 C43 1.352 . S
C188 C133 1.653 . S
C183 C52 1.571 . S
C198 C81 1.502 . S
C193 C25 1.481 1_545 S
C203 C34 1.616 . S
C208 C98 1.725 . S
C213 C7 1.348 1_556 S
C218 C121 1.360 . S
C223 C16 1.581 . S
C228 C141 1.653 . S
C238 C91 1.397 . S
C233 C50 1.304 . S
C248 C100 1.015 1_545 S
C243 C59 1.018 . S
C258 C131 1.430 . S
C253 C67 1.331 . S
C263 C41 1.036 . S
C268 C151 1.029 . S
C273 C14 1.317 . S
C278 C80 1.397 . S
C288 C111 1.015 . S
C283 C23 1.016 1_546 S
C298 C120 1.429 . S
C293 C31 1.328 . S
C303 C5 1.034 . S
C308 C140 1.032 . S
C313 C49 1.584 . S
C318 C78 1.622 1_554 S
C323 C58 1.495 . S
C328 C101 1.576 . S
C338 C118 1.678 1_554 S
C333 C68 1.614 . S
C348 C138 1.606 1_554 S
C343 C40 1.572 . S
C353 C13 1.589 . S
C358 C88 1.622 . S
C368 C93 1.576 . S
C363 C22 1.495 1_545 S
C378 C128 1.677 . S
C373 C32 1.606 . S
C383 C4 1.569 . S
C388 C148 1.606 . S
