# Generated by pormake.
# Topology zzz, (3,6)-cn, num edge types: 1
# Building blocks:
#     Node 0, Type 0, BuildingBlock: BETDAH_clean_linker_0, # of connection points: 3
#     Node 1, Type 0, BuildingBlock: BETDAH_clean_linker_0, # of connection points: 3
#     Node 2, Type 0, BuildingBlock: BETDAH_clean_linker_0, # of connection points: 3
#     Node 3, Type 0, BuildingBlock: BETDAH_clean_linker_0, # of connection points: 3
#     Node 4, Type 0, BuildingBlock: BETDAH_clean_linker_0, # of connection points: 3
#     Node 5, Type 0, BuildingBlock: BETDAH_clean_linker_0, # of connection points: 3
#     Node 6, Type 0, BuildingBlock: BETDAH_clean_linker_0, # of connection points: 3
#     Node 7, Type 0, BuildingBlock: BETDAH_clean_linker_0, # of connection points: 3
#     Node 8, Type 1, BuildingBlock: BETFAJ_clean_sbu_0, # of connection points: 6
#     Node 9, Type 1, BuildingBlock: BETFAJ_clean_sbu_0, # of connection points: 6
#     Node 10, Type 1, BuildingBlock: BETFAJ_clean_sbu_0, # of connection points: 6
#     Node 11, Type 1, BuildingBlock: BETFAJ_clean_sbu_0, # of connection points: 6
#     Edge 12, Type (0, 1), BuildingBlock: XIVTED_clean_linker_0, # of connection points: 2
#     Edge 13, Type (0, 1), BuildingBlock: XIVTED_clean_linker_0, # of connection points: 2
#     Edge 14, Type (0, 1), BuildingBlock: XIVTED_clean_linker_0, # of connection points: 2
#     Edge 15, Type (0, 1), BuildingBlock: XIVTED_clean_linker_0, # of connection points: 2
#     Edge 16, Type (0, 1), BuildingBlock: XIVTED_clean_linker_0, # of connection points: 2
#     Edge 17, Type (0, 1), BuildingBlock: XIVTED_clean_linker_0, # of connection points: 2
#     Edge 18, Type (0, 1), BuildingBlock: XIVTED_clean_linker_0, # of connection points: 2
#     Edge 19, Type (0, 1), BuildingBlock: XIVTED_clean_linker_0, # of connection points: 2
#     Edge 20, Type (0, 1), BuildingBlock: XIVTED_clean_linker_0, # of connection points: 2
#     Edge 21, Type (0, 1), BuildingBlock: XIVTED_clean_linker_0, # of connection points: 2
#     Edge 22, Type (0, 1), BuildingBlock: XIVTED_clean_linker_0, # of connection points: 2
#     Edge 23, Type (0, 1), BuildingBlock: XIVTED_clean_linker_0, # of connection points: 2
#     Edge 24, Type (0, 1), BuildingBlock: XIVTED_clean_linker_0, # of connection points: 2
#     Edge 25, Type (0, 1), BuildingBlock: XIVTED_clean_linker_0, # of connection points: 2
#     Edge 26, Type (0, 1), BuildingBlock: XIVTED_clean_linker_0, # of connection points: 2
#     Edge 27, Type (0, 1), BuildingBlock: XIVTED_clean_linker_0, # of connection points: 2
#     Edge 28, Type (0, 1), BuildingBlock: XIVTED_clean_linker_0, # of connection points: 2
#     Edge 29, Type (0, 1), BuildingBlock: XIVTED_clean_linker_0, # of connection points: 2
#     Edge 30, Type (0, 1), BuildingBlock: XIVTED_clean_linker_0, # of connection points: 2
#     Edge 31, Type (0, 1), BuildingBlock: XIVTED_clean_linker_0, # of connection points: 2
#     Edge 32, Type (0, 1), BuildingBlock: XIVTED_clean_linker_0, # of connection points: 2
#     Edge 33, Type (0, 1), BuildingBlock: XIVTED_clean_linker_0, # of connection points: 2
#     Edge 34, Type (0, 1), BuildingBlock: XIVTED_clean_linker_0, # of connection points: 2
#     Edge 35, Type (0, 1), BuildingBlock: XIVTED_clean_linker_0, # of connection points: 2
# Relax obj value: 0.277
# Max RMSD: 0.191
# Mean RMSD: 0.163
data_MOF--net-zzz--node1-BETFAJ_clean_sbu_0--node2-BETDAH_clean_linker_0--edge1-XIVTED_clean_linker_0
_symmetry_space_group_name_H-M    P1
_symmetry_Int_Tables_number       1
_symmetry_cell_setting            triclinic
loop_
_symmetry_equiv_pos_as_xyz
'x, y, z'
_cell_length_a     52.560896
_cell_length_b     52.651523
_cell_length_c     13.479197
_cell_angle_alpha  89.762201
_cell_angle_beta   89.888095
_cell_angle_gamma 90.080204
loop_
_atom_site_label
_atom_site_type_symbol
_atom_site_fract_x
_atom_site_fract_y
_atom_site_fract_z
_atom_type_partial_charge
H0 H 0.81009 0.48326 0.42583 0.0
H1 H 0.73887 0.49882 0.28255 0.0
H2 H 0.76813 0.54989 0.50504 0.0
C3 C 0.79283 0.49448 0.42011 0.0
C4 C 0.79102 0.5168 0.4751 0.0
C5 C 0.77434 0.488 0.34976 0.0
C6 C 0.75288 0.50357 0.33832 0.0
C7 C 0.75013 0.52563 0.39665 0.0
C8 C 0.76956 0.53237 0.46351 0.0
N9 N 0.72867 0.54191 0.3872 0.0
C10 C 0.70889 0.53812 0.32014 0.0
H11 H 0.05828 0.80373 0.41934 0.0
H12 H 0.0496 0.73001 0.28872 0.0
H13 H 0.99591 0.75633 0.5089 0.0
C14 C 0.04862 0.7855 0.41657 0.0
C15 C 0.0266 0.78212 0.47297 0.0
C16 C 0.05692 0.76697 0.34966 0.0
C17 C 0.0434 0.74405 0.34199 0.0
C18 C 0.02166 0.73972 0.40153 0.0
C19 C 1.01315 0.75907 0.46596 0.0
N20 N 1.00758 0.7166 0.39605 0.0
C21 C 1.0126 0.69709 0.32889 0.0
H22 H 0.73169 0.04927 0.38166 0.0
H23 H 0.80805 0.03803 0.27823 0.0
H24 H 0.77759 0.99103 0.51394 0.0
C25 C 0.75004 0.04002 0.38918 0.0
C26 C 0.75239 0.01999 0.4567 0.0
C27 C 0.76987 0.0464 0.32395 0.0
C28 C 0.79301 0.03329 0.33009 0.0
C29 C 0.79625 1.01359 0.40017 0.0
C30 C 0.77564 1.00679 0.4626 0.0
N31 N 0.81951 0.99973 0.40642 0.0
C32 C 0.8398 1.00282 0.34019 0.0
H33 H 0.48195 0.73221 0.43507 0.0
H34 H 0.49212 0.80477 0.29406 0.0
H35 H 0.5456 0.77875 0.51533 0.0
C36 C 0.49198 0.75021 0.42962 0.0
C37 C 0.51418 0.75348 0.48478 0.0
C38 C 0.48408 0.76841 0.36005 0.0
C39 C 0.49807 0.79096 0.34904 0.0
C40 C 0.52 0.7952 0.40698 0.0
C41 C 0.5282 0.77612 0.47366 0.0
N42 N 0.53461 0.81793 0.39739 0.0
C43 C 0.52986 0.83695 0.32727 0.0
H44 H 0.23296 0.55649 0.09327 0.0
H45 H 0.30352 0.54395 0.24603 0.0
H46 H 0.27547 0.48872 0.03694 0.0
C47 C 0.25024 0.54554 0.10347 0.0
C48 C 0.25239 0.52223 0.05517 0.0
C49 C 0.26835 0.55341 0.17336 0.0
C50 C 0.28978 0.53813 0.1908 0.0
C51 C 0.29282 0.515 0.13951 0.0
C52 C 0.2738 0.50699 0.07305 0.0
N53 N 0.31413 0.49888 0.156 0.0
C54 C 0.33286 0.50326 0.22693 0.0
H55 H 0.985 0.22454 0.08956 0.0
H56 H 0.9953 0.29754 0.22447 0.0
H57 H 0.04923 0.27027 0.00706 0.0
C58 C 0.99519 0.24246 0.09382 0.0
C59 C 0.01758 0.24533 0.03921 0.0
C60 C 0.98716 0.26101 0.16124 0.0
C61 C 1.00131 0.28349 0.17089 0.0
C62 C 0.02344 0.28735 0.11313 0.0
C63 C 0.03171 0.26792 0.04856 0.0
N64 N 0.03812 0.31007 0.12055 0.0
C65 C 0.03317 0.32965 0.1875 0.0
H66 H 0.30536 0.97162 0.05346 0.0
H67 H 0.23287 0.98301 0.19363 0.0
H68 H 0.25857 0.03406 0.96209 0.0
C69 C 0.28734 0.98164 0.05739 0.0
C70 C 0.28398 1.00318 0.9983 0.0
C71 C 0.26921 0.9744 0.12847 0.0
C72 C 0.24661 0.9884 0.13739 0.0
C73 C 0.24224 1.00962 0.07529 0.0
C74 C 0.26128 0.01717 0.00699 0.0
N75 N 0.21941 0.02414 0.08187 0.0
C76 C 0.20014 0.01996 0.15163 0.0
H77 H 0.48498 0.31069 0.16981 0.0
H78 H 0.49175 0.23157 0.23813 0.0
H79 H 0.52187 0.26124 0.96199 0.0
C80 C 0.49043 0.29168 0.1472 0.0
C81 C 0.50372 0.28856 0.0583 0.0
C82 C 0.48607 0.27126 0.2118 0.0
C83 C 0.49441 0.24698 0.18583 0.0
C84 C 0.50673 0.24295 0.09406 0.0
C85 C 0.51142 0.26395 0.03047 0.0
N86 N 0.5155 0.21835 0.06628 0.0
C87 C 0.51341 0.19683 0.12687 0.0
Sm88 Sm 0.03571 1.00601 0.85382 0.0
Sm89 Sm 1.00624 0.02204 0.64709 0.0
C90 C 0.04809 0.98633 0.02644 0.0
C91 C 0.06379 0.96375 0.0439 0.0
C92 C 0.06688 0.95368 0.13932 0.0
C93 C 0.07925 0.93037 0.15232 0.0
C94 C 0.08852 0.91681 0.06983 0.0
C95 C 0.08639 0.92766 0.97494 0.0
C96 C 0.07412 0.9509 0.96215 0.0
C97 C 0.06925 1.00797 0.69343 0.0
C98 C 0.01637 0.96159 0.69442 0.0
C99 C 0.99387 0.04182 0.47468 0.0
C100 C 0.97811 0.06439 0.45773 0.0
C101 C 0.96755 0.07694 0.53975 0.0
C102 C 0.9553 0.10021 0.52774 0.0
C103 C 0.95342 0.11141 0.43337 0.0
C104 C 0.96291 0.09814 0.35053 0.0
C105 C 0.97527 0.07479 0.36275 0.0
C106 C 0.97257 0.01954 0.80695 0.0
C107 C 0.02555 0.06651 0.80638 0.0
O108 O 0.02626 0.98164 0.98309 0.0
O109 O 0.06012 1.0059 0.988 0.0
O110 O 0.04567 1.01205 0.69361 0.0
O111 O 0.07606 1.0028 0.78362 0.0
O112 O 0.02361 0.96757 0.78572 0.0
O113 O 1.01116 0.97888 0.6254 0.0
O114 O 1.01568 0.04651 0.51813 0.0
O115 O 0.98189 0.02217 0.51274 0.0
O116 O 0.99622 0.01579 0.80719 0.0
O117 O 0.96582 0.02475 0.71673 0.0
O118 O 0.01813 0.06047 0.71541 0.0
O119 O 0.03102 0.04925 0.87526 0.0
H120 H 0.05891 0.96332 0.20307 0.0
H121 H 0.08028 0.92233 0.22627 0.0
H122 H 0.09345 0.91779 0.91017 0.0
H123 H 0.07182 0.95838 0.88774 0.0
H124 H 0.96967 0.06921 0.61385 0.0
H125 H 0.94807 0.10986 0.59276 0.0
H126 H 0.96209 0.10646 0.27698 0.0
H127 H 0.98343 0.06541 0.29881 0.0
Sm128 Sm 0.52214 0.02927 0.79385 0.0
Sm129 Sm 0.5094 0.99605 0.61142 0.0
C130 C 0.54386 0.04999 0.95099 0.0
C131 C 0.57088 0.05387 0.97451 0.0
C132 C 0.58918 0.03788 0.93253 0.0
C133 C 0.61496 0.04346 0.94067 0.0
C134 C 0.62335 0.06456 0.99562 0.0
C135 C 0.60481 0.08002 0.04145 0.0
C136 C 0.57881 0.07492 0.02961 0.0
C137 C 0.5081 0.05575 0.62655 0.0
C138 C 0.56916 1.00822 0.64681 0.0
C139 C 0.48976 0.98044 0.44297 0.0
C140 C 0.46707 0.96461 0.429 0.0
C141 C 0.45684 0.9608 0.3345 0.0
C142 C 0.43319 0.94884 0.32421 0.0
C143 C 0.41944 0.94073 0.40851 0.0
C144 C 0.43048 0.94346 0.50263 0.0
C145 C 0.45408 0.95529 0.51272 0.0
C146 C 0.51242 0.96401 0.77484 0.0
C147 C 0.46323 1.01486 0.7648 0.0
O148 O 0.53599 0.02638 0.94914 0.0
O149 O 0.53559 0.06327 0.87564 0.0
O150 O 0.52283 0.03672 0.62785 0.0
O151 O 0.50017 0.06114 0.71541 0.0
O152 O 0.56186 0.01949 0.72965 0.0
O153 O 0.55257 0.99853 0.58385 0.0
O154 O 0.48506 1.00293 0.48014 0.0
O155 O 0.50917 0.96912 0.48507 0.0
O156 O 0.51563 0.98775 0.77471 0.0
O157 O 0.50786 0.95646 0.68546 0.0
O158 O 0.46986 1.00753 0.67448 0.0
O159 O 0.48037 0.02148 0.83144 0.0
H160 H 0.58361 0.02125 0.89121 0.0
H161 H 0.6281 0.03124 0.90185 0.0
H162 H 0.61019 0.09602 0.08692 0.0
H163 H 0.56493 0.08753 0.06268 0.0
H164 H 0.46657 0.96801 0.26925 0.0
H165 H 0.42503 0.94733 0.25076 0.0
H166 H 0.42044 0.9373 0.56875 0.0
H167 H 0.46169 0.95816 0.58645 0.0
Sm168 Sm 0.50639 0.52861 0.87857 0.0
Sm169 Sm 0.53056 0.51558 0.68962 0.0
C170 C 0.49001 0.54974 0.04402 0.0
C171 C 0.47505 0.57298 0.05667 0.0
C172 C 0.47096 0.58317 0.151 0.0
C173 C 0.45884 0.60666 0.16091 0.0
C174 C 0.45081 0.62031 0.07643 0.0
C175 C 0.45408 0.60944 0.9823 0.0
C176 C 0.46606 0.58595 0.97257 0.0
C177 C 0.47197 0.51812 0.73 0.0
C178 C 0.5246 0.57523 0.72423 0.0
C179 C 0.53885 0.49058 0.5251 0.0
C180 C 0.52729 0.4657 0.5028 0.0
C181 C 0.50092 0.46209 0.51552 0.0
C182 C 0.49057 0.4377 0.51826 0.0
C183 C 0.50634 0.41635 0.50901 0.0
C184 C 0.53253 0.41999 0.49177 0.0
C185 C 0.54289 0.44445 0.48871 0.0
C186 C 0.56553 0.52685 0.83394 0.0
C187 C 0.51527 0.4702 0.84564 0.0
O188 O 0.51301 0.55326 0.00924 0.0
O189 O 0.47811 0.53105 1.00062 0.0
O190 O 0.49176 0.53141 0.72071 0.0
O191 O 0.46944 0.51018 0.82049 0.0
O192 O 0.51698 0.56833 0.81404 0.0
O193 O 0.52983 0.55818 0.65578 0.0
O194 O 0.52322 0.5099 0.52897 0.0
O195 O 0.55504 0.49031 0.59864 0.0
O196 O 0.54572 0.51359 0.84757 0.0
O197 O 0.56795 0.53358 0.74148 0.0
O198 O 0.51438 0.47752 0.75203 0.0
O199 O 0.51701 0.48744 0.9158 0.0
H200 H 0.47785 0.57339 0.21652 0.0
H201 H 0.45697 0.61471 0.23437 0.0
H202 H 0.44801 0.61942 0.91604 0.0
H203 H 0.46899 0.57823 0.89903 0.0
H204 H 0.48836 0.47802 0.52865 0.0
H205 H 0.47037 0.43559 0.53201 0.0
H206 H 0.54509 0.40391 0.48181 0.0
H207 H 0.56327 0.4467 0.48003 0.0
Sm208 Sm 1.01439 0.49939 0.86195 0.0
Sm209 Sm 0.03047 0.52815 0.65184 0.0
C210 C 0.99427 0.48781 0.03475 0.0
C211 C 0.97112 0.47282 0.05189 0.0
C212 C 0.95821 0.46266 0.96999 0.0
C213 C 0.93439 0.45135 0.98192 0.0
C214 C 0.92304 0.44998 0.07612 0.0
C215 C 0.93663 0.45902 0.15891 0.0
C216 C 0.96051 0.47046 0.14675 0.0
C217 C 0.01604 0.46551 0.70358 0.0
C218 C 0.97 0.5198 0.70325 0.0
C219 C 0.05068 0.53909 0.47882 0.0
C220 C 0.07522 0.5519 0.45805 0.0
C221 C 0.09815 0.54069 0.48886 0.0
C222 C 0.12102 0.55389 0.48092 0.0
C223 C 0.1217 0.57871 0.44209 0.0
C224 C 0.09887 0.58979 0.40903 0.0
C225 C 0.07582 0.5765 0.41715 0.0
C226 C 0.02921 0.56189 0.81048 0.0
C227 C 0.07483 0.50918 0.81282 0.0
O228 O 0.99029 0.50968 0.99053 0.0
O229 O 1.01355 0.47524 0.99729 0.0
O230 O 0.01996 0.4891 0.70238 0.0
O231 O 1.01105 0.45891 0.7943 0.0
O232 O 0.97619 0.5121 0.7939 0.0
O233 O 0.98705 0.52491 0.6331 0.0
O234 O 0.05209 0.51636 0.51887 0.0
O235 O 0.033 0.5533 0.51921 0.0
O236 O 0.02494 0.53837 0.81149 0.0
O237 O 0.03444 0.56852 0.71991 0.0
O238 O 0.06878 0.51612 0.72107 0.0
O239 O 0.05764 0.50414 0.88257 0.0
H240 H 0.96609 0.46442 0.89598 0.0
H241 H 0.92447 0.44448 0.91696 0.0
H242 H 0.92821 0.45857 0.23229 0.0
H243 H 0.97016 0.47834 0.21057 0.0
H244 H 0.09852 0.5218 0.52089 0.0
H245 H 0.13829 0.54441 0.50425 0.0
H246 H 0.09877 0.60881 0.37822 0.0
H247 H 0.0584 0.58566 0.39345 0.0
H248 H 0.14931 0.027 0.12656 0.0
H249 H 0.11974 0.9994 0.70129 0.0
H250 H 0.20569 1.00646 0.34371 0.0
H251 H 0.06053 0.01908 0.49391 0.0
H252 H 0.15079 1.00129 0.56803 0.0
H253 H 0.11608 0.0235 0.25532 0.0
C254 C 0.1546 0.02163 0.2014 0.0
C255 C 0.18014 0.01696 0.22516 0.0
C256 C 0.13106 1.00523 0.5509 0.0
C257 C 0.1425 1.0131 0.37238 0.0
C258 C 0.11322 1.00417 0.62732 0.0
C259 C 0.08744 1.00923 0.60903 0.0
C260 C 0.12331 1.01144 0.45426 0.0
C261 C 0.08022 0.0152 0.51139 0.0
C262 C 0.13569 0.01968 0.27474 0.0
C263 C 0.18617 1.01017 0.32268 0.0
N264 N 0.0981 0.0162 0.4375 0.0
N265 N 0.16752 1.00849 0.39261 0.0
H266 H 0.54423 0.15551 0.13009 0.0
H267 H 0.47652 0.09647 0.61213 0.0
H268 H 0.47815 0.18802 0.26966 0.0
H269 H 0.53585 0.05745 0.45277 0.0
H270 H 0.47645 0.12957 0.4847 0.0
H271 H 0.54144 0.11905 0.24451 0.0
C272 C 0.5291 0.15488 0.18479 0.0
C273 C 0.51148 0.17475 0.1913 0.0
C274 C 0.48939 0.11371 0.47686 0.0
C275 C 0.50818 0.13336 0.32239 0.0
C276 C 0.4894 0.09476 0.54969 0.0
C277 C 0.50628 0.07421 0.54334 0.0
C278 C 0.50657 0.11236 0.39702 0.0
C279 C 0.52251 0.07296 0.46057 0.0
C280 C 0.52748 0.1341 0.24993 0.0
C281 C 0.49222 0.17313 0.26292 0.0
N282 N 0.52243 0.0919 0.39111 0.0
N283 N 0.49116 0.15289 0.32597 0.0
H284 H 0.33133 0.48738 0.41728 0.0
H285 H 0.47257 0.53653 0.53954 0.0
H286 H 0.37901 0.52544 0.20313 0.0
H287 H 0.42597 0.49432 0.74608 0.0
H288 H 0.43858 0.53335 0.41579 0.0
H289 H 0.36552 0.49078 0.54024 0.0
C290 C 0.34904 0.49656 0.39665 0.0
C291 C 0.35253 0.50621 0.30078 0.0
C292 C 0.43579 0.52476 0.48813 0.0
C293 C 0.39173 0.51008 0.43996 0.0
C294 C 0.45519 0.52656 0.55872 0.0
C295 C 0.45202 0.51574 0.65325 0.0
C296 C 0.41301 0.51211 0.5124 0.0
C297 C 0.42917 0.50299 0.67416 0.0
C298 C 0.36857 0.49845 0.46651 0.0
C299 C 0.37572 0.51785 0.27685 0.0
N300 N 0.41054 0.50159 0.60449 0.0
N301 N 0.3945 0.51947 0.34603 0.0
H302 H 0.01812 0.32452 0.37783 0.0
H303 H 0.02592 0.47385 0.50287 0.0
H304 H 0.03955 0.38045 0.1591 0.0
H305 H 1.01029 0.41472 0.71666 0.0
H306 H 0.02936 0.44115 0.37275 0.0
H307 H 1.01315 0.35837 0.50039 0.0
C308 C 0.02165 0.34403 0.35579 0.0
C309 C 0.02921 0.34983 0.25885 0.0
C310 C 0.02521 0.43542 0.44831 0.0
C311 C 0.02375 0.38881 0.39838 0.0
C312 C 0.02334 0.45408 0.52248 0.0
C313 C 0.01807 0.44702 0.62095 0.0
C314 C 0.02165 0.40961 0.47311 0.0
C315 C 1.0145 0.42111 0.64196 0.0
C316 C 0.01888 0.36339 0.42563 0.0
C317 C 0.03364 0.37534 0.23357 0.0
N318 N 0.01637 0.40348 0.56913 0.0
N319 N 0.03089 0.39395 0.30297 0.0
H320 H 0.8909 0.99854 0.37023 0.0
H321 H 0.92185 0.02601 0.79639 0.0
H322 H 0.83464 1.0134 0.14563 0.0
H323 H 0.98098 1.00831 0.00681 0.0
H324 H 0.89037 0.02242 0.92738 0.0
H325 H 0.92461 1.00287 0.24352 0.0
C326 C 0.88572 1.00277 0.29418 0.0
C327 C 0.86008 1.00567 0.26775 0.0
C328 C 0.91016 0.01926 0.9457 0.0
C329 C 0.89827 1.01058 0.12308 0.0
C330 C 0.92826 0.02132 0.87056 0.0
C331 C 0.95416 0.01732 0.89033 0.0
C332 C 0.91776 1.01314 0.04262 0.0
C333 C 0.96121 1.01139 0.98821 0.0
C334 C 0.90491 1.00521 0.22203 0.0
C335 C 0.85423 1.01108 0.16879 0.0
N336 N 0.94308 1.00945 0.06092 0.0
N337 N 0.87313 1.01335 0.10024 0.0
H338 H 0.53677 0.8879 0.34572 0.0
H339 H 0.50303 0.91358 0.77367 0.0
H340 H 0.5143 0.83001 0.13875 0.0
H341 H 0.52506 0.9739 0.97124 0.0
H342 H 0.50603 0.88341 0.90994 0.0
H343 H 0.53155 0.92018 0.21437 0.0
C344 C 0.53062 0.88208 0.27257 0.0
C345 C 0.52593 0.85639 0.25237 0.0
C346 C 0.51021 0.90321 0.92422 0.0
C347 C 0.52007 0.89295 0.10224 0.0
C348 C 0.50851 0.92053 0.8461 0.0
C349 C 0.5139 0.94635 0.86082 0.0
C350 C 0.51745 0.91155 0.01881 0.0
C351 C 0.52079 0.95416 0.95661 0.0
C352 C 0.52768 0.90045 0.19775 0.0
C353 C 0.51808 0.84968 0.15697 0.0
N354 N 0.52245 0.9368 0.03207 0.0
N355 N 0.51545 0.86781 0.0855 0.0
H356 H 0.66209 0.51873 0.357 0.0
H357 H 0.61209 0.54869 0.80648 0.0
H358 H 0.70859 0.55191 0.1271 0.0
H359 H 0.56659 0.51009 0.02712 0.0
H360 H 0.64713 0.55105 0.92488 0.0
H361 H 0.6265 0.516 0.23938 0.0
C362 C 0.66474 0.52531 0.28141 0.0
C363 C 0.68811 0.53549 0.25091 0.0
C364 C 0.62951 0.54207 0.94767 0.0
C365 C 0.64772 0.53266 0.11656 0.0
C366 C 0.60945 0.54076 0.88007 0.0
C367 C 0.58642 0.52911 0.90692 0.0
C368 C 0.62655 0.53173 0.04329 0.0
C369 C 0.58407 0.51919 0.00335 0.0
C370 C 0.64448 0.52381 0.21442 0.0
C371 C 0.69076 0.5439 0.15287 0.0
N372 N 0.60389 0.52071 0.06806 0.0
N373 N 0.67078 0.54234 0.08911 0.0
H374 H 0.02915 0.70221 0.14041 0.0
H375 H 0.01711 0.55352 0.00907 0.0
H376 H 1.00488 0.64643 0.35521 0.0
H377 H 0.03787 0.61234 0.80058 0.0
H378 H 1.01401 0.58602 0.14011 0.0
H379 H 0.03421 0.66845 0.01753 0.0
C380 C 0.02502 0.68275 0.16154 0.0
C381 C 0.01664 0.67696 0.25745 0.0
C382 C 0.01925 0.59172 0.06556 0.0
C383 C 0.02218 0.6381 0.11751 0.0
C384 C 0.02098 0.57318 0.99091 0.0
C385 C 0.02757 0.58023 0.89364 0.0
C386 C 0.02425 0.6174 0.04241 0.0
C387 C 0.03261 0.60598 0.87432 0.0
C388 C 0.02785 0.66344 0.09151 0.0
C389 C 1.01143 0.65152 0.28156 0.0
N390 N 0.03081 0.6235 0.94757 0.0
N391 N 1.01423 0.63297 0.21195 0.0
H392 H 0.99042 0.25948 0.3625 0.0
H393 H 0.92228 0.13192 0.29049 0.0
H394 H 0.939 0.24416 0.12167 0.0
H395 H 0.9651 0.15177 0.55178 0.0
H396 H 0.91665 0.17706 0.25428 0.0
H397 H 0.96889 0.22721 0.46198 0.0
C398 C 0.97371 0.25025 0.33236 0.0
C399 C 0.96704 0.25369 0.23263 0.0
C400 C 0.92672 0.1716 0.32103 0.0
C401 C 0.94316 0.21594 0.34368 0.0
C402 C 0.93007 0.1458 0.34124 0.0
C403 C 0.94474 0.13808 0.42271 0.0
C404 C 0.93866 0.18979 0.38143 0.0
C405 C 0.95386 0.15683 0.48748 0.0
C406 C 0.9616 0.23148 0.3887 0.0
C407 C 0.94514 0.24141 0.1976 0.0
N408 N 0.95121 0.18179 0.46412 0.0
N409 N 0.93456 0.22231 0.25163 0.0
H410 H 0.27151 0.98023 0.3287 0.0
H411 H 0.39829 0.90852 0.27147 0.0
H412 H 0.28646 0.92612 0.09715 0.0
H413 H 0.37905 0.95512 0.52315 0.0
H414 H 0.35303 0.90392 0.23477 0.0
H415 H 0.30368 0.9597 0.43132 0.0
C416 C 0.28066 0.9632 0.3014 0.0
C417 C 0.27706 0.95535 0.20322 0.0
C418 C 0.35863 0.91462 0.2996 0.0
C419 C 0.31466 0.93253 0.31781 0.0
C420 C 0.38451 0.91736 0.32011 0.0
C421 C 0.39247 0.93274 0.39888 0.0
C422 C 0.34064 0.92785 0.35691 0.0
C423 C 0.3738 0.94326 0.46101 0.0
C424 C 0.29936 0.95164 0.3595 0.0
C425 C 0.28928 0.93311 0.17177 0.0
N426 N 0.3488 0.94114 0.43728 0.0
N427 N 0.30827 0.92301 0.22742 0.0
H428 H 0.44017 0.29067 0.26688 0.0
H429 H 0.52642 0.37439 0.6019 0.0
H430 H 0.51293 0.26793 0.38279 0.0
H431 H 0.46119 0.3991 0.43335 0.0
H432 H 0.51193 0.33042 0.58538 0.0
H433 H 0.43687 0.32255 0.39713 0.0
C434 C 0.45477 0.29143 0.32344 0.0
C435 C 0.47724 0.2774 0.31262 0.0
C436 C 0.5005 0.34554 0.55406 0.0
C437 C 0.47429 0.31446 0.45782 0.0
C438 C 0.50892 0.3706 0.5623 0.0
C439 C 0.49553 0.39034 0.51546 0.0
C440 C 0.47866 0.34023 0.49792 0.0
C441 C 0.47239 0.38449 0.46913 0.0
C442 C 0.45311 0.3099 0.39694 0.0
C443 C 0.49555 0.27889 0.38771 0.0
N444 N 0.46499 0.35992 0.45974 0.0
N445 N 0.49419 0.29792 0.4552 0.0
H446 H 0.26792 0.5531 0.37567 0.0
H447 H 0.1384 0.60782 0.28533 0.0
H448 H 0.25099 0.601 0.12455 0.0
H449 H 0.16202 0.57946 0.57142 0.0
H450 H 0.18245 0.61834 0.24735 0.0
H451 H 0.23599 0.57553 0.47208 0.0
C452 C 0.25839 0.56922 0.34214 0.0
C453 C 0.26115 0.57442 0.24061 0.0
C454 C 0.17802 0.61044 0.31967 0.0
C455 C 0.2237 0.5993 0.34872 0.0
C456 C 0.15272 0.60447 0.34148 0.0
C457 C 0.14664 0.59172 0.42998 0.0
C458 C 0.19735 0.60303 0.38578 0.0
C459 C 0.16605 0.58818 0.50021 0.0
C460 C 0.23982 0.58189 0.39701 0.0
C461 C 0.24859 0.59577 0.20179 0.0
N462 N 0.19063 0.59307 0.47548 0.0
N463 N 0.22956 0.60676 0.25452 0.0
H464 H 0.05291 0.76826 0.14862 0.0
H465 H 0.12007 0.89687 0.21256 0.0
H466 H 0.10484 0.78476 0.38654 0.0
H467 H 0.07661 0.87599 0.95416 0.0
H468 H 0.12602 0.85188 0.25072 0.0
H469 H 0.07362 0.80073 0.04733 0.0
C470 C 0.06957 0.77781 0.1777 0.0
C471 C 0.07664 0.77459 0.2771 0.0
C472 C 0.11573 0.85708 0.18417 0.0
C473 C 0.09958 0.81254 0.16404 0.0
C474 C 0.1122 0.8828 0.16286 0.0
C475 C 0.09728 0.89019 0.08163 0.0
C476 C 0.10373 0.83864 0.12512 0.0
C477 C 0.08805 0.87119 0.01821 0.0
C478 C 0.0812 0.79669 0.12035 0.0
C479 C 0.09843 0.7873 0.31084 0.0
N480 N 0.09089 0.84632 0.04264 0.0
N481 N 0.10855 0.80646 0.25583 0.0
H482 H 0.77512 0.03433 0.12955 0.0
H483 H 0.64823 0.11029 0.03296 0.0
H484 H 0.7486 0.094 0.3214 0.0
H485 H 0.6631 0.0303 0.98674 0.0
H486 H 0.69317 0.11606 0.0748 0.0
H487 H 0.74457 0.0479 0.00422 0.0
C488 C 0.7639 0.05122 0.14319 0.0
C489 C 0.76352 0.06244 0.23726 0.0
C490 C 0.68645 0.0975 0.05223 0.0
C491 C 0.72829 0.07749 0.096 0.0
C492 C 0.66068 0.09397 0.0302 0.0
C493 C 0.65121 0.06957 0.00799 0.0
C494 C 0.703 0.07669 0.04924 0.0
C495 C 0.6689 0.04957 0.00185 0.0
C496 C 0.74625 0.05878 0.07197 0.0
C497 C 0.74876 0.08439 0.25054 0.0
N498 N 0.69373 0.05359 0.02297 0.0
N499 N 0.73093 0.09069 0.18199 0.0
H500 H 0.48774 0.76804 0.15858 0.0
H501 H 0.41752 0.64017 0.21282 0.0
H502 H 0.43636 0.74983 0.39792 0.0
H503 H 0.46454 0.66124 0.96293 0.0
H504 H 0.41203 0.68509 0.25169 0.0
H505 H 0.46644 0.7367 0.05524 0.0
C506 C 0.47114 0.75833 0.18783 0.0
C507 C 0.46436 0.76073 0.28795 0.0
C508 C 0.42301 0.67997 0.18674 0.0
C509 C 0.4407 0.72408 0.17214 0.0
C510 C 0.42626 0.65429 0.16498 0.0
C511 C 0.44209 0.64695 0.08633 0.0
C512 C 0.43617 0.69839 0.13077 0.0
C513 C 0.4524 0.66601 0.02508 0.0
C514 C 0.45914 0.74012 0.12917 0.0
C515 C 0.4426 0.74786 0.32172 0.0
N516 N 0.44979 0.69082 0.05008 0.0
N517 N 0.43209 0.72936 0.26516 0.0
H518 H 0.77652 0.49255 0.14876 0.0
H519 H 0.90126 0.41948 0.21876 0.0
H520 H 0.7892 0.43901 0.38587 0.0
H521 H 0.88313 0.46341 0.95749 0.0
H522 H 0.85585 0.41549 0.25463 0.0
H523 H 0.80801 0.47045 0.04855 0.0
C524 C 0.78498 0.47532 0.1779 0.0
C525 C 0.78108 0.46814 0.27699 0.0
C526 C 0.86172 0.42545 0.18795 0.0
C527 C 0.81799 0.44353 0.16507 0.0
C528 C 0.88768 0.42786 0.16794 0.0
C529 C 0.89599 0.44234 0.08657 0.0
C530 C 0.844 0.43817 0.1275 0.0
C531 C 0.8776 0.45228 0.02172 0.0
C532 C 0.80332 0.46286 0.12112 0.0
C533 C 0.79237 0.44556 0.31058 0.0
N534 N 0.85251 0.45055 0.04492 0.0
N535 N 0.81111 0.43459 0.25624 0.0
H536 H 0.0549 0.21196 0.09029 0.0
H537 H 1.00747 0.1073 0.70043 0.0
H538 H 0.9982 0.22641 0.86722 0.0
H539 H 0.04821 0.08879 0.96893 0.0
H540 H 1.01017 0.15227 0.74306 0.0
H541 H 0.0598 0.16856 0.02652 0.0
C542 C 0.04426 0.20628 0.02528 0.0
C543 C 0.02651 0.22291 0.98256 0.0
C544 C 0.01863 0.1384 0.79245 0.0
C545 C 0.03128 0.17308 0.91136 0.0
C546 C 0.01712 0.11263 0.76819 0.0
C547 C 0.02753 0.09403 0.83139 0.0
C548 C 0.03085 0.14588 0.88024 0.0
C549 C 0.03974 0.10232 0.91821 0.0
C550 C 0.04672 0.1814 0.98997 0.0
C551 C 1.01245 0.21432 0.90084 0.0
N552 N 0.04105 0.12757 0.94 0.0
N553 N 1.01503 0.19 0.86828 0.0
H554 H 0.30254 0.98193 0.82885 0.0
H555 H 0.44088 0.03821 0.92477 0.0
H556 H 0.31712 0.04148 0.0391 0.0
H557 H 0.42255 0.99466 0.66387 0.0
H558 H 0.39559 0.03983 0.96663 0.0
H559 H 0.3457 0.98738 0.76216 0.0
C560 C 0.31456 0.99683 0.85833 0.0
C561 C 0.3061 1.01167 0.93804 0.0
C562 C 0.40144 0.03007 0.89984 0.0
C563 C 0.35599 0.01716 0.86591 0.0
C564 C 0.42737 0.02898 0.87618 0.0
C565 C 0.43568 0.01619 0.79079 0.0
C566 C 0.38355 0.01798 0.83856 0.0
C567 C 0.41713 1.00475 0.73046 0.0
C568 C 0.3393 0.99973 0.8212 0.0
C569 C 0.32273 0.03008 0.97608 0.0
N570 N 0.39203 1.00573 0.75592 0.0
N571 N 0.34697 0.03204 0.94075 0.0
H572 H 0.48767 0.30665 0.87597 0.0
H573 H 0.52789 0.44765 0.02223 0.0
H574 H 0.53577 0.32483 0.1241 0.0
H575 H 0.5028 0.42976 0.72624 0.0
H576 H 0.52884 0.40232 0.06128 0.0
H577 H 0.49234 0.35078 0.81561 0.0
C578 C 0.49985 0.3197 0.91585 0.0
C579 C 0.51152 0.31209 0.00469 0.0
C580 C 0.52321 0.40824 0.98751 0.0
C581 C 0.51603 0.36263 0.9391 0.0
C582 C 0.52248 0.4342 0.96542 0.0
C583 C 0.51519 0.44262 0.8708 0.0
C584 C 0.51627 0.39036 0.91508 0.0
C585 C 0.50856 0.42415 0.80006 0.0
C586 C 0.50227 0.34493 0.8822 0.0
C587 C 0.52659 0.32991 0.05494 0.0
N588 N 0.50907 0.39892 0.82374 0.0
N589 N 0.5281 0.35432 0.02239 0.0
H590 H 0.22054 0.48294 0.09974 0.0
H591 H 0.11536 0.52787 0.707 0.0
H592 H 0.23263 0.54289 0.88644 0.0
H593 H 0.0972 0.4868 0.97594 0.0
H594 H 0.16033 0.52636 0.75137 0.0
H595 H 0.17763 0.47635 0.03217 0.0
C596 C 0.21446 0.49405 0.03627 0.0
C597 C 0.23015 0.51327 0.99765 0.0
C598 C 0.14652 0.51754 0.80038 0.0
C599 C 0.18106 0.50634 0.92179 0.0
C600 C 0.12078 0.51834 0.77509 0.0
C601 C 0.10232 0.50756 0.83809 0.0
C602 C 0.15406 0.50565 0.88897 0.0
C603 C 0.11067 0.49556 0.92547 0.0
C604 C 0.18988 0.49056 0.99875 0.0
C605 C 0.22116 0.52769 0.91734 0.0
N606 N 0.1359 0.49495 0.94835 0.0
N607 N 0.19717 0.52404 0.88242 0.0
H608 H 0.04353 0.79988 0.65068 0.0
H609 H 0.99478 0.93988 0.529 0.0
H610 H 0.99106 0.81646 0.41456 0.0
H611 H 0.03309 0.92037 0.80185 0.0
H612 H 0.99228 0.89468 0.48824 0.0
H613 H 0.03804 0.84323 0.71325 0.0
C614 C 0.03007 0.8124 0.61446 0.0
C615 C 0.01724 0.80444 0.52889 0.0
C616 C 1.00107 0.90028 0.55738 0.0
C617 C 1.01185 0.85453 0.59649 0.0
C618 C 1.00264 0.92615 0.5805 0.0
C619 C 1.01425 0.93411 0.66892 0.0
C620 C 1.01142 0.88209 0.62247 0.0
C621 C 0.02394 0.91527 0.73284 0.0
C622 C 0.02718 0.83726 0.64924 0.0
C623 C 1.00078 0.8217 0.48222 0.0
N624 N 0.02249 0.89026 0.70802 0.0
N625 N 0.99882 0.84601 0.51571 0.0
H626 H 0.7299 0.04367 0.61299 0.0
H627 H 0.59485 0.97723 0.51517 0.0
H628 H 0.72048 0.98059 0.41438 0.0
H629 H 0.60705 0.0372 0.72668 0.0
H630 H 0.64091 0.97615 0.48332 0.0
H631 H 0.68566 0.0386 0.66713 0.0
C632 C 0.71871 0.02815 0.58353 0.0
C633 C 0.729 1.01215 0.51092 0.0
C634 C 0.63351 0.98938 0.5374 0.0
C635 C 0.67781 1.00696 0.56842 0.0
C636 C 0.60717 0.99011 0.55519 0.0
C637 C 0.59697 1.00716 0.62461 0.0
C638 C 0.64981 1.00598 0.5888 0.0
C639 C 0.61397 0.02337 0.67415 0.0
C640 C 0.69332 0.02545 0.61325 0.0
C641 C 0.71342 0.9929 0.47234 0.0
N642 N 0.63938 0.02242 0.65517 0.0
N643 N 0.68854 0.99102 0.5006 0.0
H644 H 0.55297 0.72126 0.43998 0.0
H645 H 0.50634 0.61557 0.83116 0.0
H646 H 0.49384 0.73408 0.65533 0.0
H647 H 0.54756 0.59801 0.56287 0.0
H648 H 0.50841 0.66069 0.78783 0.0
H649 H 0.55879 0.67816 0.50696 0.0
C650 C 0.54194 0.71532 0.50398 0.0
C651 C 0.52323 0.73136 0.54346 0.0
C652 C 0.51714 0.64699 0.73874 0.0
C653 C 0.52914 0.68189 0.61845 0.0
C654 C 0.516 0.62116 0.76342 0.0
C655 C 0.52666 0.60282 0.70025 0.0
C656 C 0.52929 0.65473 0.6507 0.0
C657 C 0.5389 0.61138 0.61348 0.0
C658 C 0.54495 0.6906 0.54113 0.0
C659 C 0.50878 0.72243 0.62409 0.0
N660 N 0.53986 0.63665 0.5913 0.0
N661 N 0.51192 0.69828 0.65855 0.0
H662 H 0.82414 0.55519 0.43413 0.0
H663 H 0.92937 0.50156 0.80962 0.0
H664 H 0.8103 0.49403 0.64037 0.0
H665 H 0.9477 0.54444 0.54513 0.0
H666 H 0.88424 0.50551 0.77001 0.0
H667 H 0.86765 0.55914 0.49873 0.0
C668 C 0.82999 0.54329 0.49571 0.0
C669 C 0.81361 0.52451 0.53312 0.0
C670 C 0.89813 0.51418 0.72093 0.0
C671 C 0.86338 0.52834 0.60524 0.0
C672 C 0.92396 0.51195 0.74342 0.0
C673 C 0.94249 0.52256 0.68024 0.0
C674 C 0.8906 0.52734 0.63512 0.0
C675 C 0.93416 0.53576 0.59554 0.0
C676 C 0.85491 0.54525 0.53143 0.0
C677 C 0.82231 0.50898 0.61071 0.0
N678 N 0.90885 0.53777 0.57545 0.0
N679 N 0.84664 0.51112 0.6438 0.0
loop_
_geom_bond_atom_site_label_1
_geom_bond_atom_site_label_2
_geom_bond_distance
_geom_bond_site_symmetry_2
_ccdc_geom_bond_type
H0 C3 0.929 . S
H1 C6 0.929 . S
H2 C8 0.930 . S
C3 H0 0.929 . S
C3 C4 1.398 . S
C3 C5 1.396 . S
C4 C3 1.398 . S
C4 C8 1.407 . S
C5 C3 1.396 . S
C5 C6 1.394 . S
C6 H1 0.929 . S
C6 C5 1.394 . S
C6 C7 1.382 . S
C7 C6 1.382 . S
C7 C8 1.392 . S
C7 N9 1.420 . S
C8 H2 0.930 . S
C8 C4 1.407 . S
C8 C7 1.392 . S
N9 C7 1.420 . S
N9 C10 1.244 . S
C10 N9 1.244 . S
H11 C14 0.929 . S
H12 C17 0.929 . S
H13 C19 0.930 . S
C14 H11 0.929 . S
C14 C15 1.395 1_655 S
C14 C16 1.395 1_655 S
C15 C14 1.395 1_455 S
C15 C19 1.413 . S
C16 C14 1.395 1_455 S
C16 C17 1.397 . S
C17 H12 0.929 . S
C17 C16 1.397 . S
C17 C18 1.382 . S
C18 C17 1.382 . S
C18 C19 1.392 . S
C18 N20 1.420 . S
C19 H13 0.930 . S
C19 C15 1.413 . S
C19 C18 1.392 . S
N20 C18 1.420 . S
N20 C21 1.232 1_455 S
C21 N20 1.232 1_655 S
H22 C25 0.929 . S
H23 C28 0.929 . S
H24 C30 0.930 . S
C25 H22 0.929 . S
C25 C26 1.395 1_565 S
C25 C27 1.395 1_565 S
C26 C25 1.395 1_545 S
C26 C30 1.413 . S
C27 C25 1.395 1_545 S
C27 C28 1.397 . S
C28 H23 0.929 . S
C28 C27 1.397 . S
C28 C29 1.382 . S
C29 C28 1.382 . S
C29 C30 1.392 . S
C29 N31 1.420 . S
C30 H24 0.930 . S
C30 C26 1.413 . S
C30 C29 1.392 . S
N31 C29 1.420 . S
N31 C32 1.232 1_545 S
C32 N31 1.232 1_565 S
H33 C36 0.929 . S
H34 C39 0.929 . S
H35 C41 0.930 . S
C36 H33 0.929 . S
C36 C37 1.398 . S
C36 C38 1.396 . S
C37 C36 1.398 . S
C37 C41 1.407 . S
C38 C36 1.396 . S
C38 C39 1.394 . S
C39 H34 0.929 . S
C39 C38 1.394 . S
C39 C40 1.382 . S
C40 C39 1.382 . S
C40 C41 1.392 . S
C40 N42 1.420 . S
C41 H35 0.930 . S
C41 C37 1.407 . S
C41 C40 1.392 . S
N42 C40 1.420 . S
N42 C43 1.244 . S
C43 N42 1.244 . S
H44 C47 0.929 . S
H45 C50 0.929 . S
H46 C52 0.930 . S
C47 H44 0.929 . S
C47 C48 1.398 1_554 S
C47 C49 1.396 . S
C48 C47 1.398 1_556 S
C48 C52 1.407 . S
C49 C47 1.396 . S
C49 C50 1.394 . S
C50 H45 0.929 . S
C50 C49 1.394 . S
C50 C51 1.382 . S
C51 C50 1.382 . S
C51 C52 1.392 1_554 S
C51 N53 1.420 . S
C52 H46 0.930 . S
C52 C48 1.407 . S
C52 C51 1.392 1_556 S
N53 C51 1.420 . S
N53 C54 1.244 . S
C54 N53 1.244 . S
H55 C58 0.929 . S
H56 C61 0.929 . S
H57 C63 0.930 . S
C58 H55 0.929 . S
C58 C59 1.395 1_654 S
C58 C60 1.394 1_655 S
C59 C58 1.395 1_456 S
C59 C63 1.416 . S
C60 C58 1.394 1_455 S
C60 C61 1.398 . S
C61 H56 0.929 . S
C61 C60 1.398 . S
C61 C62 1.382 . S
C62 C61 1.382 . S
C62 C63 1.392 1_554 S
C62 N64 1.420 . S
C63 H57 0.930 . S
C63 C59 1.416 . S
C63 C62 1.392 1_556 S
N64 C62 1.420 . S
N64 C65 1.236 1_455 S
C65 N64 1.236 1_655 S
H66 C69 0.929 . S
H67 C72 0.929 . S
H68 C74 0.930 . S
C69 H66 0.929 . S
C69 C70 1.395 1_564 S
C69 C71 1.394 1_565 S
C70 C69 1.395 1_546 S
C70 C74 1.416 . S
C71 C69 1.394 1_545 S
C71 C72 1.398 . S
C72 H67 0.929 . S
C72 C71 1.398 . S
C72 C73 1.382 . S
C73 C72 1.382 . S
C73 C74 1.392 1_554 S
C73 N75 1.420 . S
C74 H68 0.930 . S
C74 C70 1.416 . S
C74 C73 1.392 1_556 S
N75 C73 1.420 . S
N75 C76 1.236 1_545 S
C76 N75 1.236 1_565 S
H77 C80 0.929 . S
H78 C83 0.929 . S
H79 C85 0.930 . S
C80 H77 0.929 . S
C80 C81 1.398 1_554 S
C80 C82 1.396 . S
C81 C80 1.398 1_556 S
C81 C85 1.407 . S
C82 C80 1.396 . S
C82 C83 1.394 . S
C83 H78 0.929 . S
C83 C82 1.394 . S
C83 C84 1.382 . S
C84 C83 1.382 . S
C84 C85 1.392 1_554 S
C84 N86 1.420 . S
C85 H79 0.930 . S
C85 C81 1.407 . S
C85 C84 1.392 1_556 S
N86 C84 1.420 . S
N86 C87 1.244 . S
C87 N86 1.244 . S
Sm88 C90 2.846 . S
Sm88 O108 2.543 . S
Sm88 O109 2.450 . S
Sm88 O110 2.681 1_565 S
Sm88 O111 2.464 . S
Sm88 O112 2.396 . S
Sm88 O116 2.386 1_455 S
Sm88 O119 2.408 1_565 S
Sm89 C99 2.846 . S
Sm89 O110 2.386 1_655 S
Sm89 O113 2.408 1_545 S
Sm89 O114 2.543 . S
Sm89 O115 2.450 . S
Sm89 O116 2.681 1_545 S
Sm89 O117 2.464 . S
Sm89 O118 2.396 . S
C90 Sm88 2.846 . S
C90 C91 1.506 1_556 S
C90 O108 1.261 . S
C90 O109 1.242 . S
C91 C90 1.506 1_554 S
C91 C92 1.358 . S
C91 C96 1.382 . S
C92 C91 1.358 . S
C92 C93 1.385 . S
C92 H120 0.930 1_455 S
C93 C92 1.385 . S
C93 C94 1.395 . S
C93 H121 0.929 1_455 S
C94 C93 1.395 . S
C94 C95 1.335 . S
C95 C94 1.335 . S
C95 C96 1.398 . S
C95 H122 0.930 . S
C96 C91 1.382 . S
C96 C95 1.398 . S
C96 H123 0.929 1_554 S
C97 O110 1.271 1_565 S
C97 O111 1.251 . S
C98 O112 1.252 1_655 S
C98 O113 1.272 . S
C99 Sm89 2.846 . S
C99 C100 1.506 . S
C99 O114 1.261 . S
C99 O115 1.242 . S
C100 C99 1.506 . S
C100 C101 1.358 . S
C100 C105 1.382 . S
C101 C100 1.358 . S
C101 C102 1.385 . S
C101 H124 0.930 1_655 S
C102 C101 1.385 . S
C102 C103 1.395 . S
C102 H125 0.929 1_655 S
C103 C102 1.395 . S
C103 C104 1.335 . S
C104 C103 1.335 . S
C104 C105 1.398 . S
C104 H126 0.930 . S
C105 C100 1.382 . S
C105 C104 1.398 . S
C105 H127 0.929 . S
C106 O116 1.271 1_545 S
C106 O117 1.251 . S
C107 O118 1.252 1_455 S
C107 O119 1.272 . S
O108 Sm88 2.543 . S
O108 C90 1.261 . S
O109 Sm88 2.450 . S
O109 C90 1.242 . S
O110 Sm88 2.681 1_545 S
O110 Sm89 2.386 1_455 S
O110 C97 1.271 1_545 S
O111 Sm88 2.464 . S
O111 C97 1.251 . S
O112 Sm88 2.396 . S
O112 C98 1.252 1_455 S
O113 Sm89 2.408 1_565 S
O113 C98 1.272 . S
O114 Sm89 2.543 . S
O114 C99 1.261 . S
O115 Sm89 2.450 . S
O115 C99 1.242 . S
O116 Sm88 2.386 1_655 S
O116 Sm89 2.681 1_565 S
O116 C106 1.271 1_565 S
O117 Sm89 2.464 . S
O117 C106 1.251 . S
O118 Sm89 2.396 . S
O118 C107 1.252 1_655 S
O119 Sm88 2.408 1_545 S
O119 C107 1.272 . S
H120 C92 0.930 1_655 S
H121 C93 0.929 1_655 S
H122 C95 0.930 . S
H123 C96 0.929 1_556 S
H124 C101 0.930 1_455 S
H125 C102 0.929 1_455 S
H126 C104 0.930 . S
H127 C105 0.929 . S
Sm128 C130 2.846 . S
Sm128 O148 2.543 . S
Sm128 O149 2.450 . S
Sm128 O150 2.681 . S
Sm128 O151 2.464 . S
Sm128 O152 2.396 . S
Sm128 O156 2.386 1_545 S
Sm128 O159 2.408 . S
Sm129 C139 2.846 . S
Sm129 O150 2.386 1_565 S
Sm129 O153 2.408 . S
Sm129 O154 2.543 . S
Sm129 O155 2.450 . S
Sm129 O156 2.681 . S
Sm129 O157 2.464 . S
Sm129 O158 2.396 . S
C130 Sm128 2.846 . S
C130 C131 1.506 1_556 S
C130 O148 1.261 . S
C130 O149 1.242 . S
C131 C130 1.506 1_554 S
C131 C132 1.358 . S
C131 C136 1.382 . S
C132 C131 1.358 . S
C132 C133 1.385 . S
C132 H160 0.930 1_545 S
C133 C132 1.385 . S
C133 C134 1.395 . S
C133 H161 0.929 1_545 S
C134 C133 1.395 . S
C134 C135 1.335 . S
C135 C134 1.335 . S
C135 C136 1.398 . S
C135 H162 0.930 . S
C136 C131 1.382 . S
C136 C135 1.398 . S
C136 H163 0.929 1_554 S
C137 O150 1.271 . S
C137 O151 1.251 . S
C138 O152 1.252 1_565 S
C138 O153 1.272 . S
C139 Sm129 2.846 . S
C139 C140 1.506 . S
C139 O154 1.261 . S
C139 O155 1.242 . S
C140 C139 1.506 . S
C140 C141 1.358 . S
C140 C145 1.382 . S
C141 C140 1.358 . S
C141 C142 1.385 . S
C141 H164 0.930 1_565 S
C142 C141 1.385 . S
C142 C143 1.395 . S
C142 H165 0.929 1_565 S
C143 C142 1.395 . S
C143 C144 1.335 . S
C144 C143 1.335 . S
C144 C145 1.398 . S
C144 H166 0.930 . S
C145 C140 1.382 . S
C145 C144 1.398 . S
C145 H167 0.929 . S
C146 O156 1.271 . S
C146 O157 1.251 . S
C147 O158 1.252 1_545 S
C147 O159 1.272 . S
O148 Sm128 2.543 . S
O148 C130 1.261 . S
O149 Sm128 2.450 . S
O149 C130 1.242 . S
O150 Sm128 2.681 . S
O150 Sm129 2.386 1_545 S
O150 C137 1.271 . S
O151 Sm128 2.464 . S
O151 C137 1.251 . S
O152 Sm128 2.396 . S
O152 C138 1.252 1_545 S
O153 Sm129 2.408 . S
O153 C138 1.272 . S
O154 Sm129 2.543 . S
O154 C139 1.261 . S
O155 Sm129 2.450 . S
O155 C139 1.242 . S
O156 Sm128 2.386 1_565 S
O156 Sm129 2.681 . S
O156 C146 1.271 . S
O157 Sm129 2.464 . S
O157 C146 1.251 . S
O158 Sm129 2.396 . S
O158 C147 1.252 1_565 S
O159 Sm128 2.408 . S
O159 C147 1.272 . S
H160 C132 0.930 1_565 S
H161 C133 0.929 1_565 S
H162 C135 0.930 . S
H163 C136 0.929 1_556 S
H164 C141 0.930 1_545 S
H165 C142 0.929 1_545 S
H166 C144 0.930 . S
H167 C145 0.929 . S
Sm168 C170 2.846 . S
Sm168 O188 2.543 . S
Sm168 O189 2.450 . S
Sm168 O190 2.681 . S
Sm168 O191 2.464 . S
Sm168 O192 2.396 . S
Sm168 O196 2.386 . S
Sm168 O199 2.408 . S
Sm169 C179 2.846 . S
Sm169 O190 2.386 . S
Sm169 O193 2.408 . S
Sm169 O194 2.543 . S
Sm169 O195 2.450 . S
Sm169 O196 2.681 . S
Sm169 O197 2.464 . S
Sm169 O198 2.396 . S
C170 Sm168 2.846 . S
C170 C171 1.506 1_556 S
C170 O188 1.261 . S
C170 O189 1.242 . S
C171 C170 1.506 1_554 S
C171 C172 1.358 . S
C171 C176 1.382 . S
C172 C171 1.358 . S
C172 C173 1.385 . S
C172 H200 0.930 . S
C173 C172 1.385 . S
C173 C174 1.395 . S
C173 H201 0.929 . S
C174 C173 1.395 . S
C174 C175 1.335 . S
C175 C174 1.335 . S
C175 C176 1.398 . S
C175 H202 0.930 . S
C176 C171 1.382 . S
C176 C175 1.398 . S
C176 H203 0.929 . S
C177 O190 1.271 . S
C177 O191 1.251 . S
C178 O192 1.252 . S
C178 O193 1.272 . S
C179 Sm169 2.846 . S
C179 C180 1.506 . S
C179 O194 1.261 . S
C179 O195 1.242 . S
C180 C179 1.506 . S
C180 C181 1.358 . S
C180 C185 1.382 . S
C181 C180 1.358 . S
C181 C182 1.385 . S
C181 H204 0.930 . S
C182 C181 1.385 . S
C182 C183 1.395 . S
C182 H205 0.929 . S
C183 C182 1.395 . S
C183 C184 1.335 . S
C184 C183 1.335 . S
C184 C185 1.398 . S
C184 H206 0.930 . S
C185 C180 1.382 . S
C185 C184 1.398 . S
C185 H207 0.929 . S
C186 O196 1.271 . S
C186 O197 1.251 . S
C187 O198 1.252 . S
C187 O199 1.272 . S
O188 Sm168 2.543 . S
O188 C170 1.261 . S
O189 Sm168 2.450 . S
O189 C170 1.242 . S
O190 Sm168 2.681 . S
O190 Sm169 2.386 . S
O190 C177 1.271 . S
O191 Sm168 2.464 . S
O191 C177 1.251 . S
O192 Sm168 2.396 . S
O192 C178 1.252 . S
O193 Sm169 2.408 . S
O193 C178 1.272 . S
O194 Sm169 2.543 . S
O194 C179 1.261 . S
O195 Sm169 2.450 . S
O195 C179 1.242 . S
O196 Sm168 2.386 . S
O196 Sm169 2.681 . S
O196 C186 1.271 . S
O197 Sm169 2.464 . S
O197 C186 1.251 . S
O198 Sm169 2.396 . S
O198 C187 1.252 . S
O199 Sm168 2.408 . S
O199 C187 1.272 . S
H200 C172 0.930 . S
H201 C173 0.929 . S
H202 C175 0.930 . S
H203 C176 0.929 . S
H204 C181 0.930 . S
H205 C182 0.929 . S
H206 C184 0.930 . S
H207 C185 0.929 . S
Sm208 C210 2.846 . S
Sm208 O228 2.543 . S
Sm208 O229 2.450 . S
Sm208 O230 2.681 1_655 S
Sm208 O231 2.464 . S
Sm208 O232 2.396 . S
Sm208 O236 2.386 . S
Sm208 O239 2.408 1_655 S
Sm209 C219 2.846 . S
Sm209 O230 2.386 . S
Sm209 O233 2.408 1_455 S
Sm209 O234 2.543 . S
Sm209 O235 2.450 . S
Sm209 O236 2.681 1_455 S
Sm209 O237 2.464 . S
Sm209 O238 2.396 . S
C210 Sm208 2.846 . S
C210 C211 1.506 1_556 S
C210 O228 1.261 . S
C210 O229 1.242 . S
C211 C210 1.506 1_554 S
C211 C212 1.358 . S
C211 C216 1.382 . S
C212 C211 1.358 . S
C212 C213 1.385 . S
C212 H240 0.930 . S
C213 C212 1.385 . S
C213 C214 1.395 . S
C213 H241 0.929 . S
C214 C213 1.395 . S
C214 C215 1.335 . S
C215 C214 1.335 . S
C215 C216 1.398 . S
C215 H242 0.930 . S
C216 C211 1.382 . S
C216 C215 1.398 . S
C216 H243 0.929 . S
C217 O230 1.260 1_655 S
C217 O231 1.269 . S
C218 O232 1.252 . S
C218 O233 1.272 . S
C219 Sm209 2.846 . S
C219 C220 1.506 . S
C219 O234 1.261 . S
C219 O235 1.242 . S
C220 C219 1.506 . S
C220 C221 1.358 . S
C220 C225 1.382 . S
C221 C220 1.358 . S
C221 C222 1.385 . S
C221 H244 0.930 . S
C222 C221 1.385 . S
C222 C223 1.395 . S
C222 H245 0.929 . S
C223 C222 1.395 . S
C223 C224 1.335 . S
C224 C223 1.335 . S
C224 C225 1.398 . S
C224 H246 0.930 . S
C225 C220 1.382 . S
C225 C224 1.398 . S
C225 H247 0.929 . S
C226 O236 1.271 1_455 S
C226 O237 1.251 . S
C227 O238 1.252 . S
C227 O239 1.272 . S
O228 Sm208 2.543 . S
O228 C210 1.261 . S
O229 Sm208 2.450 . S
O229 C210 1.242 . S
O230 Sm208 2.681 1_455 S
O230 Sm209 2.386 . S
O230 C217 1.260 1_455 S
O231 Sm208 2.464 . S
O231 C217 1.269 . S
O232 Sm208 2.396 . S
O232 C218 1.252 . S
O233 Sm209 2.408 1_655 S
O233 C218 1.272 . S
O234 Sm209 2.543 . S
O234 C219 1.261 . S
O235 Sm209 2.450 . S
O235 C219 1.242 . S
O236 Sm208 2.386 . S
O236 Sm209 2.681 1_655 S
O236 C226 1.271 1_655 S
O237 Sm209 2.464 . S
O237 C226 1.251 . S
O238 Sm209 2.396 . S
O238 C227 1.252 . S
O239 Sm208 2.408 1_455 S
O239 C227 1.272 . S
H240 C212 0.930 . S
H241 C213 0.929 . S
H242 C215 0.930 . S
H243 C216 0.929 . S
H244 C221 0.930 . S
H245 C222 0.929 . S
H246 C224 0.930 . S
H247 C225 0.929 . S
H248 C254 0.930 . S
H249 C258 0.930 . S
H250 C263 0.929 . S
H251 C261 0.929 . S
H252 C256 0.929 . S
H253 C262 0.929 . S
C254 H248 0.930 . S
C254 C255 1.388 . S
C254 C262 1.378 . S
C255 C254 1.388 . S
C255 C263 1.412 1_545 S
C256 H252 0.929 . S
C256 C258 1.378 . S
C256 C260 1.348 1_565 S
C257 C260 1.463 . S
C257 C262 1.350 . S
C257 N265 1.427 1_545 S
C258 H249 0.930 . S
C258 C256 1.378 . S
C258 C259 1.345 1_565 S
C259 C258 1.345 1_545 S
C259 C261 1.455 . S
C260 C256 1.348 1_545 S
C260 C257 1.463 . S
C260 N264 1.430 . S
C261 H251 0.929 . S
C261 C259 1.455 . S
C261 N264 1.384 . S
C262 H253 0.929 . S
C262 C254 1.378 . S
C262 C257 1.350 . S
C263 H250 0.929 . S
C263 C255 1.412 1_565 S
C263 N265 1.384 . S
N264 C260 1.430 . S
N264 C261 1.384 . S
N265 C257 1.427 1_565 S
N265 C263 1.384 . S
H266 C272 0.930 . S
H267 C276 0.930 . S
H268 C281 0.929 . S
H269 C279 0.929 . S
H270 C274 0.929 . S
H271 C280 0.929 . S
C272 H266 0.930 . S
C272 C273 1.367 . S
C272 C280 1.378 . S
C273 C272 1.367 . S
C273 C281 1.433 . S
C274 H270 0.929 . S
C274 C276 1.378 . S
C274 C278 1.350 . S
C275 C278 1.463 . S
C275 C280 1.350 . S
C275 N283 1.427 . S
C276 H267 0.930 . S
C276 C274 1.378 . S
C276 C277 1.367 . S
C277 C276 1.367 . S
C277 C279 1.433 . S
C278 C274 1.350 . S
C278 C275 1.463 . S
C278 N282 1.427 . S
C279 H269 0.929 . S
C279 C277 1.433 . S
C279 N282 1.384 . S
C280 H271 0.929 . S
C280 C272 1.378 . S
C280 C275 1.350 . S
C281 H268 0.929 . S
C281 C273 1.433 . S
C281 N283 1.384 . S
N282 C278 1.427 . S
N282 C279 1.384 . S
N283 C275 1.427 . S
N283 C281 1.384 . S
H284 C290 0.930 . S
H285 C294 0.930 . S
H286 C299 0.929 . S
H287 C297 0.929 . S
H288 C292 0.929 . S
H289 C298 0.929 . S
C290 H284 0.930 . S
C290 C291 1.367 . S
C290 C298 1.378 . S
C291 C290 1.367 . S
C291 C299 1.433 . S
C292 H288 0.929 . S
C292 C294 1.378 . S
C292 C296 1.350 . S
C293 C296 1.463 . S
C293 C298 1.350 . S
C293 N301 1.427 . S
C294 H285 0.930 . S
C294 C292 1.378 . S
C294 C295 1.367 . S
C295 C294 1.367 . S
C295 C297 1.433 . S
C296 C292 1.350 . S
C296 C293 1.463 . S
C296 N300 1.427 . S
C297 H287 0.929 . S
C297 C295 1.433 . S
C297 N300 1.384 . S
C298 H289 0.929 . S
C298 C290 1.378 . S
C298 C293 1.350 . S
C299 H286 0.929 . S
C299 C291 1.433 . S
C299 N301 1.384 . S
N300 C296 1.427 . S
N300 C297 1.384 . S
N301 C293 1.427 . S
N301 C299 1.384 . S
H302 C308 0.930 . S
H303 C312 0.930 . S
H304 C317 0.929 . S
H305 C315 0.929 . S
H306 C310 0.929 . S
H307 C316 0.929 . S
C308 H302 0.930 . S
C308 C309 1.379 . S
C308 C316 1.378 . S
C309 C308 1.379 . S
C309 C317 1.422 1_455 S
C310 H306 0.929 . S
C310 C312 1.378 . S
C310 C314 1.336 1_655 S
C311 C314 1.463 . S
C311 C316 1.350 . S
C311 N319 1.427 1_455 S
C312 H303 0.930 . S
C312 C310 1.378 . S
C312 C313 1.367 1_655 S
C313 C312 1.367 1_455 S
C313 C315 1.433 . S
C314 C310 1.336 1_455 S
C314 C311 1.463 . S
C314 N318 1.442 . S
C315 H305 0.929 . S
C315 C313 1.433 . S
C315 N318 1.384 . S
C316 H307 0.929 . S
C316 C308 1.378 . S
C316 C311 1.350 . S
C317 H304 0.929 . S
C317 C309 1.422 1_655 S
C317 N319 1.384 . S
N318 C314 1.442 . S
N318 C315 1.384 . S
N319 C311 1.427 1_655 S
N319 C317 1.384 . S
H320 C326 0.930 . S
H321 C330 0.930 . S
H322 C335 0.929 . S
H323 C333 0.929 . S
H324 C328 0.929 . S
H325 C334 0.929 . S
C326 H320 0.930 . S
C326 C327 1.371 . S
C326 C334 1.378 . S
C327 C326 1.371 . S
C327 C335 1.429 1_545 S
C328 H324 0.929 . S
C328 C330 1.378 1_554 S
C328 C332 1.350 . S
C329 C332 1.463 1_545 S
C329 C334 1.349 . S
C329 N337 1.428 1_545 S
C330 H321 0.930 . S
C330 C328 1.378 1_556 S
C330 C331 1.367 . S
C331 C330 1.367 . S
C331 C333 1.433 1_566 S
C332 C328 1.350 . S
C332 C329 1.463 1_565 S
C332 N336 1.427 1_565 S
C333 H323 0.929 . S
C333 C331 1.433 1_544 S
C333 N336 1.384 . S
C334 H325 0.929 . S
C334 C326 1.378 . S
C334 C329 1.349 . S
C335 H322 0.929 . S
C335 C327 1.429 1_565 S
C335 N337 1.384 . S
N336 C332 1.427 1_545 S
N336 C333 1.384 . S
N337 C329 1.428 1_565 S
N337 C335 1.384 . S
H338 C344 0.930 . S
H339 C348 0.930 . S
H340 C353 0.929 . S
H341 C351 0.929 . S
H342 C346 0.929 . S
H343 C352 0.929 . S
C344 H338 0.930 . S
C344 C345 1.367 . S
C344 C352 1.378 . S
C345 C344 1.367 . S
C345 C353 1.433 . S
C346 H342 0.929 . S
C346 C348 1.378 1_554 S
C346 C350 1.350 . S
C347 C350 1.463 . S
C347 C352 1.350 . S
C347 N355 1.427 . S
C348 H339 0.930 . S
C348 C346 1.378 1_556 S
C348 C349 1.367 . S
C349 C348 1.367 . S
C349 C351 1.433 1_556 S
C350 C346 1.350 . S
C350 C347 1.463 . S
C350 N354 1.427 . S
C351 H341 0.929 . S
C351 C349 1.433 1_554 S
C351 N354 1.384 . S
C352 H343 0.929 . S
C352 C344 1.378 . S
C352 C347 1.350 . S
C353 H340 0.929 . S
C353 C345 1.433 . S
C353 N355 1.384 . S
N354 C350 1.427 . S
N354 C351 1.384 . S
N355 C347 1.427 . S
N355 C353 1.384 . S
H356 C362 0.930 . S
H357 C366 0.930 . S
H358 C371 0.929 . S
H359 C369 0.929 . S
H360 C364 0.929 . S
H361 C370 0.929 . S
C362 H356 0.930 . S
C362 C363 1.367 . S
C362 C370 1.378 . S
C363 C362 1.367 . S
C363 C371 1.433 . S
C364 H360 0.929 . S
C364 C366 1.378 1_554 S
C364 C368 1.350 . S
C365 C368 1.463 . S
C365 C370 1.350 . S
C365 N373 1.427 . S
C366 H357 0.930 . S
C366 C364 1.378 1_556 S
C366 C367 1.367 . S
C367 C366 1.367 . S
C367 C369 1.433 . S
C368 C364 1.350 . S
C368 C365 1.463 . S
C368 N372 1.427 . S
C369 H359 0.929 . S
C369 C367 1.433 . S
C369 N372 1.384 1_556 S
C370 H361 0.929 . S
C370 C362 1.378 . S
C370 C365 1.350 . S
C371 H358 0.929 . S
C371 C363 1.433 . S
C371 N373 1.384 . S
N372 C368 1.427 . S
N372 C369 1.384 1_554 S
N373 C365 1.427 . S
N373 C371 1.384 . S
H374 C380 0.930 . S
H375 C384 0.930 . S
H376 C389 0.929 . S
H377 C387 0.929 . S
H378 C382 0.929 . S
H379 C388 0.929 . S
C380 H374 0.930 . S
C380 C381 1.366 1_455 S
C380 C388 1.378 . S
C381 C380 1.366 1_655 S
C381 C389 1.434 . S
C382 H378 0.929 . S
C382 C384 1.378 . S
C382 C386 1.350 . S
C383 C386 1.463 . S
C383 C388 1.343 1_655 S
C383 N391 1.435 . S
C384 H375 0.930 . S
C384 C382 1.378 . S
C384 C385 1.367 1_554 S
C385 C384 1.367 1_556 S
C385 C387 1.433 1_655 S
C386 C382 1.350 . S
C386 C383 1.463 . S
C386 N390 1.427 1_654 S
C387 H377 0.929 . S
C387 C385 1.433 1_455 S
C387 N390 1.384 . S
C388 H379 0.929 . S
C388 C380 1.378 . S
C388 C383 1.343 1_455 S
C389 H376 0.929 . S
C389 C381 1.434 . S
C389 N391 1.384 . S
N390 C386 1.427 1_456 S
N390 C387 1.384 . S
N391 C383 1.435 . S
N391 C389 1.384 . S
H392 C398 0.930 . S
H393 C402 0.930 . S
H394 C407 0.929 . S
H395 C405 0.929 . S
H396 C400 0.929 . S
H397 C406 0.934 . S
C398 H392 0.930 . S
C398 C399 1.367 . S
C398 C406 1.384 . S
C399 C398 1.367 . S
C399 C407 1.433 1_455 S
C400 H396 0.929 . S
C400 C402 1.378 . S
C400 C404 1.350 . S
C401 C404 1.463 . S
C401 C406 1.338 1_655 S
C401 N409 1.427 . S
C402 H393 0.930 . S
C402 C400 1.378 . S
C402 C403 1.367 . S
C403 C402 1.367 . S
C403 C405 1.433 . S
C404 C400 1.350 . S
C404 C401 1.463 . S
C404 N408 1.427 . S
C405 H395 0.929 . S
C405 C403 1.433 . S
C405 N408 1.384 . S
C406 H397 0.934 . S
C406 C398 1.384 . S
C406 C401 1.338 1_455 S
C407 H394 0.929 . S
C407 C399 1.433 1_655 S
C407 N409 1.384 . S
N408 C404 1.427 . S
N408 C405 1.384 . S
N409 C401 1.427 . S
N409 C407 1.384 . S
H410 C416 0.930 . S
H411 C420 0.930 . S
H412 C425 0.929 . S
H413 C423 0.929 . S
H414 C418 0.929 . S
H415 C424 0.929 . S
C416 H410 0.930 . S
C416 C417 1.367 . S
C416 C424 1.378 . S
C417 C416 1.367 . S
C417 C425 1.433 1_545 S
C418 H414 0.929 . S
C418 C420 1.378 . S
C418 C422 1.350 . S
C419 C422 1.463 . S
C419 C424 1.350 1_565 S
C419 N427 1.427 . S
C420 H411 0.930 . S
C420 C418 1.378 . S
C420 C421 1.367 . S
C421 C420 1.367 . S
C421 C423 1.433 . S
C422 C418 1.350 . S
C422 C419 1.463 . S
C422 N426 1.427 . S
C423 H413 0.929 . S
C423 C421 1.433 . S
C423 N426 1.384 . S
C424 H415 0.929 . S
C424 C416 1.378 . S
C424 C419 1.350 1_545 S
C425 H412 0.929 . S
C425 C417 1.433 1_565 S
C425 N427 1.384 . S
N426 C422 1.427 . S
N426 C423 1.384 . S
N427 C419 1.427 . S
N427 C425 1.384 . S
H428 C434 0.930 . S
H429 C438 0.930 . S
H430 C443 0.929 . S
H431 C441 0.929 . S
H432 C436 0.929 . S
H433 C442 0.929 . S
C434 H428 0.930 . S
C434 C435 1.367 . S
C434 C442 1.378 . S
C435 C434 1.367 . S
C435 C443 1.433 . S
C436 H432 0.929 . S
C436 C438 1.378 . S
C436 C440 1.350 . S
C437 C440 1.463 . S
C437 C442 1.350 . S
C437 N445 1.427 . S
C438 H429 0.930 . S
C438 C436 1.378 . S
C438 C439 1.367 . S
C439 C438 1.367 . S
C439 C441 1.433 . S
C440 C436 1.350 . S
C440 C437 1.463 . S
C440 N444 1.427 . S
C441 H431 0.929 . S
C441 C439 1.433 . S
C441 N444 1.384 . S
C442 H433 0.929 . S
C442 C434 1.378 . S
C442 C437 1.350 . S
C443 H430 0.929 . S
C443 C435 1.433 . S
C443 N445 1.384 . S
N444 C440 1.427 . S
N444 C441 1.384 . S
N445 C437 1.427 . S
N445 C443 1.384 . S
H446 C452 0.930 . S
H447 C456 0.930 . S
H448 C461 0.929 . S
H449 C459 0.929 . S
H450 C454 0.929 . S
H451 C460 0.929 . S
C452 H446 0.930 . S
C452 C453 1.367 . S
C452 C460 1.378 . S
C453 C452 1.367 . S
C453 C461 1.433 . S
C454 H450 0.929 . S
C454 C456 1.378 . S
C454 C458 1.350 . S
C455 C458 1.463 . S
C455 C460 1.350 . S
C455 N463 1.427 . S
C456 H447 0.930 . S
C456 C454 1.378 . S
C456 C457 1.367 . S
C457 C456 1.367 . S
C457 C459 1.433 . S
C458 C454 1.350 . S
C458 C455 1.463 . S
C458 N462 1.427 . S
C459 H449 0.929 . S
C459 C457 1.433 . S
C459 N462 1.384 . S
C460 H451 0.929 . S
C460 C452 1.378 . S
C460 C455 1.350 . S
C461 H448 0.929 . S
C461 C453 1.433 . S
C461 N463 1.384 . S
N462 C458 1.427 . S
N462 C459 1.384 . S
N463 C455 1.427 . S
N463 C461 1.384 . S
H464 C470 0.930 . S
H465 C474 0.930 . S
H466 C479 0.929 . S
H467 C477 0.929 . S
H468 C472 0.929 . S
H469 C478 0.929 . S
C470 H464 0.930 . S
C470 C471 1.367 . S
C470 C478 1.378 . S
C471 C470 1.367 . S
C471 C479 1.433 1_655 S
C472 H468 0.929 . S
C472 C474 1.378 . S
C472 C476 1.350 . S
C473 C476 1.463 . S
C473 C478 1.350 1_455 S
C473 N481 1.427 . S
C474 H465 0.930 . S
C474 C472 1.378 . S
C474 C475 1.367 . S
C475 C474 1.367 . S
C475 C477 1.433 . S
C476 C472 1.350 . S
C476 C473 1.463 . S
C476 N480 1.427 . S
C477 H467 0.929 . S
C477 C475 1.433 . S
C477 N480 1.384 . S
C478 H469 0.929 . S
C478 C470 1.378 . S
C478 C473 1.350 1_655 S
C479 H466 0.929 . S
C479 C471 1.433 1_455 S
C479 N481 1.384 . S
N480 C476 1.427 . S
N480 C477 1.384 . S
N481 C473 1.427 . S
N481 C479 1.384 . S
H482 C488 0.930 . S
H483 C492 0.930 . S
H484 C497 0.929 . S
H485 C495 0.929 . S
H486 C490 0.929 . S
H487 C496 0.929 . S
C488 H482 0.930 . S
C488 C489 1.367 . S
C488 C496 1.378 1_565 S
C489 C488 1.367 . S
C489 C497 1.433 1_565 S
C490 H486 0.929 . S
C490 C492 1.378 . S
C490 C494 1.350 . S
C491 C494 1.463 . S
C491 C496 1.350 . S
C491 N499 1.427 . S
C492 H483 0.930 . S
C492 C490 1.378 . S
C492 C493 1.367 . S
C493 C492 1.367 . S
C493 C495 1.433 . S
C494 C490 1.350 . S
C494 C491 1.463 . S
C494 N498 1.427 . S
C495 H485 0.929 . S
C495 C493 1.433 . S
C495 N498 1.384 . S
C496 H487 0.929 . S
C496 C488 1.378 1_545 S
C496 C491 1.350 . S
C497 H484 0.929 . S
C497 C489 1.433 1_545 S
C497 N499 1.384 . S
N498 C494 1.427 . S
N498 C495 1.384 . S
N499 C491 1.427 . S
N499 C497 1.384 . S
H500 C506 0.930 . S
H501 C510 0.930 . S
H502 C515 0.929 . S
H503 C513 0.929 . S
H504 C508 0.929 . S
H505 C514 0.929 . S
C506 H500 0.930 . S
C506 C507 1.367 . S
C506 C514 1.378 . S
C507 C506 1.367 . S
C507 C515 1.433 . S
C508 H504 0.929 . S
C508 C510 1.378 . S
C508 C512 1.350 . S
C509 C512 1.463 . S
C509 C514 1.350 . S
C509 N517 1.427 . S
C510 H501 0.930 . S
C510 C508 1.378 . S
C510 C511 1.367 . S
C511 C510 1.367 . S
C511 C513 1.433 . S
C512 C508 1.350 . S
C512 C509 1.463 . S
C512 N516 1.427 . S
C513 H503 0.929 . S
C513 C511 1.433 . S
C513 N516 1.384 . S
C514 H505 0.929 . S
C514 C506 1.378 . S
C514 C509 1.350 . S
C515 H502 0.929 . S
C515 C507 1.433 . S
C515 N517 1.384 . S
N516 C512 1.427 . S
N516 C513 1.384 . S
N517 C509 1.427 . S
N517 C515 1.384 . S
H518 C524 0.930 . S
H519 C528 0.930 . S
H520 C533 0.929 . S
H521 C531 0.929 . S
H522 C526 0.929 . S
H523 C532 0.929 . S
C524 H518 0.930 . S
C524 C525 1.367 . S
C524 C532 1.378 . S
C525 C524 1.367 . S
C525 C533 1.433 . S
C526 H522 0.929 . S
C526 C528 1.378 . S
C526 C530 1.350 . S
C527 C530 1.463 . S
C527 C532 1.350 . S
C527 N535 1.427 . S
C528 H519 0.930 . S
C528 C526 1.378 . S
C528 C529 1.367 . S
C529 C528 1.367 . S
C529 C531 1.433 . S
C530 C526 1.350 . S
C530 C527 1.463 . S
C530 N534 1.427 . S
C531 H521 0.929 . S
C531 C529 1.433 . S
C531 N534 1.384 . S
C532 H523 0.929 . S
C532 C524 1.378 . S
C532 C527 1.350 . S
C533 H520 0.929 . S
C533 C525 1.433 . S
C533 N535 1.384 . S
N534 C530 1.427 . S
N534 C531 1.384 . S
N535 C527 1.427 . S
N535 C533 1.384 . S
H536 C542 0.930 1_554 S
H537 C546 0.930 . S
H538 C551 0.929 . S
H539 C549 0.922 1_655 S
H540 C544 0.929 . S
H541 C550 0.929 . S
C542 H536 0.930 1_556 S
C542 C543 1.367 1_655 S
C542 C550 1.378 . S
C543 C542 1.367 1_455 S
C543 C551 1.433 . S
C544 H540 0.929 . S
C544 C546 1.378 . S
C544 C548 1.350 . S
C545 C548 1.463 . S
C545 C550 1.350 1_455 S
C545 N553 1.427 . S
C546 H537 0.930 . S
C546 C544 1.378 . S
C546 C547 1.367 . S
C547 C546 1.367 . S
C547 C549 1.433 . S
C548 C544 1.350 . S
C548 C545 1.463 . S
C548 N552 1.427 . S
C549 H539 0.922 1_455 S
C549 C547 1.433 . S
C549 N552 1.384 . S
C550 H541 0.929 . S
C550 C542 1.378 . S
C550 C545 1.350 1_655 S
C551 H538 0.929 . S
C551 C543 1.433 . S
C551 N553 1.384 . S
N552 C548 1.427 . S
N552 C549 1.384 . S
N553 C545 1.427 . S
N553 C551 1.384 . S
H554 C560 0.930 . S
H555 C564 0.930 . S
H556 C569 0.929 . S
H557 C567 0.929 . S
H558 C562 0.929 . S
H559 C568 0.929 . S
C560 H554 0.930 . S
C560 C561 1.367 1_565 S
C560 C568 1.378 . S
C561 C560 1.367 1_545 S
C561 C569 1.433 . S
C562 H558 0.929 . S
C562 C564 1.378 . S
C562 C566 1.350 . S
C563 C566 1.463 . S
C563 C568 1.350 1_545 S
C563 N571 1.427 . S
C564 H555 0.930 . S
C564 C562 1.378 . S
C564 C565 1.367 . S
C565 C564 1.367 . S
C565 C567 1.433 1_545 S
C566 C562 1.350 . S
C566 C563 1.463 . S
C566 N570 1.427 1_545 S
C567 H557 0.929 . S
C567 C565 1.433 1_565 S
C567 N570 1.384 . S
C568 H559 0.929 . S
C568 C560 1.378 . S
C568 C563 1.350 1_565 S
C569 H556 0.929 . S
C569 C561 1.433 . S
C569 N571 1.384 . S
N570 C566 1.427 1_565 S
N570 C567 1.384 . S
N571 C563 1.427 . S
N571 C569 1.384 . S
H572 C578 0.930 . S
H573 C582 0.930 . S
H574 C587 0.929 . S
H575 C585 0.929 . S
H576 C580 0.929 . S
H577 C586 0.929 . S
C578 H572 0.930 . S
C578 C579 1.367 . S
C578 C586 1.378 . S
C579 C578 1.367 . S
C579 C587 1.433 . S
C580 H576 0.929 . S
C580 C582 1.378 . S
C580 C584 1.350 . S
C581 C584 1.463 . S
C581 C586 1.350 . S
C581 N589 1.427 . S
C582 H573 0.930 . S
C582 C580 1.378 . S
C582 C583 1.367 . S
C583 C582 1.367 . S
C583 C585 1.433 . S
C584 C580 1.350 . S
C584 C581 1.463 . S
C584 N588 1.427 . S
C585 H575 0.929 . S
C585 C583 1.433 . S
C585 N588 1.384 . S
C586 H577 0.929 . S
C586 C578 1.378 . S
C586 C581 1.350 . S
C587 H574 0.929 . S
C587 C579 1.433 . S
C587 N589 1.384 . S
N588 C584 1.427 . S
N588 C585 1.384 . S
N589 C581 1.427 . S
N589 C587 1.384 . S
H590 C596 0.930 . S
H591 C600 0.930 . S
H592 C605 0.929 . S
H593 C603 0.929 . S
H594 C598 0.929 . S
H595 C604 0.929 . S
C596 H590 0.930 . S
C596 C597 1.367 . S
C596 C604 1.378 . S
C597 C596 1.367 . S
C597 C605 1.433 . S
C598 H594 0.929 . S
C598 C600 1.378 . S
C598 C602 1.350 . S
C599 C602 1.463 . S
C599 C604 1.350 . S
C599 N607 1.427 . S
C600 H591 0.930 . S
C600 C598 1.378 . S
C600 C601 1.367 . S
C601 C600 1.367 . S
C601 C603 1.433 . S
C602 C598 1.350 . S
C602 C599 1.463 . S
C602 N606 1.427 . S
C603 H593 0.929 . S
C603 C601 1.433 . S
C603 N606 1.384 . S
C604 H595 0.929 . S
C604 C596 1.378 . S
C604 C599 1.350 . S
C605 H592 0.929 . S
C605 C597 1.433 . S
C605 N607 1.384 . S
N606 C602 1.427 . S
N606 C603 1.384 . S
N607 C599 1.427 . S
N607 C605 1.384 . S
H608 C614 0.930 . S
H609 C618 0.930 . S
H610 C623 0.929 . S
H611 C621 0.929 . S
H612 C616 0.929 . S
H613 C622 0.929 . S
C614 H608 0.930 . S
C614 C615 1.367 1_455 S
C614 C622 1.378 . S
C615 C614 1.367 1_655 S
C615 C623 1.433 . S
C616 H612 0.929 . S
C616 C618 1.378 . S
C616 C620 1.350 . S
C617 C620 1.463 . S
C617 C622 1.350 1_655 S
C617 N625 1.427 . S
C618 H609 0.930 . S
C618 C616 1.378 . S
C618 C619 1.367 . S
C619 C618 1.367 . S
C619 C621 1.433 1_655 S
C620 C616 1.350 . S
C620 C617 1.463 . S
C620 N624 1.427 1_655 S
C621 H611 0.929 . S
C621 C619 1.433 1_455 S
C621 N624 1.384 . S
C622 H613 0.929 . S
C622 C614 1.378 . S
C622 C617 1.350 1_455 S
C623 H610 0.929 . S
C623 C615 1.433 . S
C623 N625 1.384 . S
N624 C620 1.427 1_455 S
N624 C621 1.384 . S
N625 C617 1.427 . S
N625 C623 1.384 . S
H626 C632 0.930 . S
H627 C636 0.930 . S
H628 C641 0.929 . S
H629 C639 0.929 . S
H630 C634 0.929 . S
H631 C640 0.929 . S
C632 H626 0.930 . S
C632 C633 1.367 1_545 S
C632 C640 1.378 . S
C633 C632 1.367 1_565 S
C633 C641 1.433 . S
C634 H630 0.929 . S
C634 C636 1.378 . S
C634 C638 1.350 . S
C635 C638 1.463 . S
C635 C640 1.350 1_565 S
C635 N643 1.427 . S
C636 H627 0.930 . S
C636 C634 1.378 . S
C636 C637 1.367 . S
C637 C636 1.367 . S
C637 C639 1.433 1_565 S
C638 C634 1.350 . S
C638 C635 1.463 . S
C638 N642 1.427 1_565 S
C639 H629 0.929 . S
C639 C637 1.433 1_545 S
C639 N642 1.384 . S
C640 H631 0.929 . S
C640 C632 1.378 . S
C640 C635 1.350 1_545 S
C641 H628 0.929 . S
C641 C633 1.433 . S
C641 N643 1.384 . S
N642 C638 1.427 1_545 S
N642 C639 1.384 . S
N643 C635 1.427 . S
N643 C641 1.384 . S
H644 C650 0.930 . S
H645 C654 0.930 . S
H646 C659 0.929 . S
H647 C657 0.929 . S
H648 C652 0.929 . S
H649 C658 0.929 . S
C650 H644 0.930 . S
C650 C651 1.367 . S
C650 C658 1.378 . S
C651 C650 1.367 . S
C651 C659 1.433 . S
C652 H648 0.929 . S
C652 C654 1.378 . S
C652 C656 1.350 . S
C653 C656 1.463 . S
C653 C658 1.350 . S
C653 N661 1.427 . S
C654 H645 0.930 . S
C654 C652 1.378 . S
C654 C655 1.367 . S
C655 C654 1.367 . S
C655 C657 1.433 . S
C656 C652 1.350 . S
C656 C653 1.463 . S
C656 N660 1.427 . S
C657 H647 0.929 . S
C657 C655 1.433 . S
C657 N660 1.384 . S
C658 H649 0.929 . S
C658 C650 1.378 . S
C658 C653 1.350 . S
C659 H646 0.929 . S
C659 C651 1.433 . S
C659 N661 1.384 . S
N660 C656 1.427 . S
N660 C657 1.384 . S
N661 C653 1.427 . S
N661 C659 1.384 . S
H662 C668 0.930 . S
H663 C672 0.930 . S
H664 C677 0.929 . S
H665 C675 0.929 . S
H666 C670 0.929 . S
H667 C676 0.929 . S
C668 H662 0.930 . S
C668 C669 1.367 . S
C668 C676 1.378 . S
C669 C668 1.367 . S
C669 C677 1.433 . S
C670 H666 0.929 . S
C670 C672 1.378 . S
C670 C674 1.350 . S
C671 C674 1.463 . S
C671 C676 1.350 . S
C671 N679 1.427 . S
C672 H663 0.930 . S
C672 C670 1.378 . S
C672 C673 1.367 . S
C673 C672 1.367 . S
C673 C675 1.433 . S
C674 C670 1.350 . S
C674 C671 1.463 . S
C674 N678 1.427 . S
C675 H665 0.929 . S
C675 C673 1.433 . S
C675 N678 1.384 . S
C676 H667 0.929 . S
C676 C668 1.378 . S
C676 C671 1.350 . S
C677 H664 0.929 . S
C677 C669 1.433 . S
C677 N679 1.384 . S
N678 C674 1.427 . S
N678 C675 1.384 . S
N679 C671 1.427 . S
N679 C677 1.384 . S
C255 C76 1.824 1_545 S
C259 C97 1.947 1_545 S
C277 C137 1.962 . S
C273 C87 1.834 . S
C295 C177 1.969 . S
C291 C54 1.828 . S
C313 C217 1.956 1_455 S
C309 C65 1.818 1_455 S
C331 C106 1.954 1_565 S
C327 C32 1.831 1_545 S
C345 C43 1.832 . S
C349 C146 1.960 . S
C363 C10 1.834 . S
C367 C186 1.963 . S
C381 C21 1.819 . S
C385 C226 1.962 1_655 S
C403 C103 0.517 . S
C399 C60 0.513 . S
C421 C143 0.525 . S
C417 C71 0.551 . S
C439 C183 0.535 . S
C435 C82 0.535 . S
C453 C49 0.543 . S
C457 C223 0.516 . S
C471 C16 0.547 1_655 S
C475 C94 0.521 . S
C493 C134 0.520 . S
C489 C27 0.519 1_565 S
C511 C174 0.533 . S
C507 C38 0.556 . S
C525 C5 0.540 . S
C529 C214 0.533 . S
C543 C59 2.031 . S
C547 C107 2.278 . S
C561 C70 2.013 . S
C565 C147 2.264 . S
C583 C187 2.248 . S
C579 C81 2.013 . S
C601 C227 2.270 . S
C597 C48 2.016 . S
C615 C15 2.047 1_655 S
C619 C98 2.292 . S
C637 C138 2.264 . S
C633 C26 2.024 1_565 S
C655 C178 2.246 . S
C651 C37 2.015 . S
C669 C4 2.038 . S
C673 C218 2.274 . S
