# Generated by pormake.
# Topology ssa, (4,4)-cn, num edge types: 1
# Building blocks:
#     Node 0, Type 0, BuildingBlock: ESEHIV_clean_sbu_0, # of connection points: 4
#     Node 1, Type 0, BuildingBlock: ESEHIV_clean_sbu_0, # of connection points: 4
#     Node 2, Type 0, BuildingBlock: ESEHIV_clean_sbu_0, # of connection points: 4
#     Node 3, Type 0, BuildingBlock: ESEHIV_clean_sbu_0, # of connection points: 4
#     Node 4, Type 0, BuildingBlock: ESEHIV_clean_sbu_0, # of connection points: 4
#     Node 5, Type 0, BuildingBlock: ESEHIV_clean_sbu_0, # of connection points: 4
#     Node 6, Type 1, BuildingBlock: GIZVER_clean_linker_0, # of connection points: 4
#     Node 7, Type 1, BuildingBlock: GIZVER_clean_linker_0, # of connection points: 4
#     Node 8, Type 1, BuildingBlock: GIZVER_clean_linker_0, # of connection points: 4
#     Node 9, Type 1, BuildingBlock: GIZVER_clean_linker_0, # of connection points: 4
#     Node 10, Type 1, BuildingBlock: GIZVER_clean_linker_0, # of connection points: 4
#     Node 11, Type 1, BuildingBlock: GIZVER_clean_linker_0, # of connection points: 4
#     Edge 12, Type (0, 1), BuildingBlock: UVAHIK_clean_linker_0, # of connection points: 2
#     Edge 13, Type (0, 1), BuildingBlock: UVAHIK_clean_linker_0, # of connection points: 2
#     Edge 14, Type (0, 1), BuildingBlock: UVAHIK_clean_linker_0, # of connection points: 2
#     Edge 15, Type (0, 1), BuildingBlock: UVAHIK_clean_linker_0, # of connection points: 2
#     Edge 16, Type (0, 1), BuildingBlock: UVAHIK_clean_linker_0, # of connection points: 2
#     Edge 17, Type (0, 1), BuildingBlock: UVAHIK_clean_linker_0, # of connection points: 2
#     Edge 18, Type (0, 1), BuildingBlock: UVAHIK_clean_linker_0, # of connection points: 2
#     Edge 19, Type (0, 1), BuildingBlock: UVAHIK_clean_linker_0, # of connection points: 2
#     Edge 20, Type (0, 1), BuildingBlock: UVAHIK_clean_linker_0, # of connection points: 2
#     Edge 21, Type (0, 1), BuildingBlock: UVAHIK_clean_linker_0, # of connection points: 2
#     Edge 22, Type (0, 1), BuildingBlock: UVAHIK_clean_linker_0, # of connection points: 2
#     Edge 23, Type (0, 1), BuildingBlock: UVAHIK_clean_linker_0, # of connection points: 2
#     Edge 24, Type (0, 1), BuildingBlock: UVAHIK_clean_linker_0, # of connection points: 2
#     Edge 25, Type (0, 1), BuildingBlock: UVAHIK_clean_linker_0, # of connection points: 2
#     Edge 26, Type (0, 1), BuildingBlock: UVAHIK_clean_linker_0, # of connection points: 2
#     Edge 27, Type (0, 1), BuildingBlock: UVAHIK_clean_linker_0, # of connection points: 2
#     Edge 28, Type (0, 1), BuildingBlock: UVAHIK_clean_linker_0, # of connection points: 2
#     Edge 29, Type (0, 1), BuildingBlock: UVAHIK_clean_linker_0, # of connection points: 2
#     Edge 30, Type (0, 1), BuildingBlock: UVAHIK_clean_linker_0, # of connection points: 2
#     Edge 31, Type (0, 1), BuildingBlock: UVAHIK_clean_linker_0, # of connection points: 2
#     Edge 32, Type (0, 1), BuildingBlock: UVAHIK_clean_linker_0, # of connection points: 2
#     Edge 33, Type (0, 1), BuildingBlock: UVAHIK_clean_linker_0, # of connection points: 2
#     Edge 34, Type (0, 1), BuildingBlock: UVAHIK_clean_linker_0, # of connection points: 2
#     Edge 35, Type (0, 1), BuildingBlock: UVAHIK_clean_linker_0, # of connection points: 2
# Relax obj value: 0.004
# Max RMSD: 0.106
# Mean RMSD: 0.064
data_MOF--net-ssa--node1-ESEHIV_clean_sbu_0--node2-GIZVER_clean_linker_0--edge1-UVAHIK_clean_linker_0
_symmetry_space_group_name_H-M    P1
_symmetry_Int_Tables_number       1
_symmetry_cell_setting            triclinic
loop_
_symmetry_equiv_pos_as_xyz
'x, y, z'
_cell_length_a     68.616184
_cell_length_b     72.376479
_cell_length_c     39.002321
_cell_angle_alpha  88.210007
_cell_angle_beta   90.746391
_cell_angle_gamma 121.92009
loop_
_atom_site_label
_atom_site_type_symbol
_atom_site_fract_x
_atom_site_fract_y
_atom_site_fract_z
_atom_type_partial_charge
Cu0 Cu 0.02897 0.52925 0.97842 0.0
N1 N 0.02162 0.51237 0.9398 0.0
N2 N 1.00043 0.48479 0.90514 0.0
C3 C 1.00256 0.49252 0.93685 0.0
C4 C 0.01893 0.50038 0.88742 0.0
C5 C 0.03208 0.51738 0.90899 0.0
O6 O 0.99985 0.52475 -0.00595 0.0
C7 C 0.0637 0.52392 0.00084 0.0
O8 O 0.07122 0.53299 0.97028 0.0
H9 H 0.98993 0.48437 0.95713 0.0
H10 H 0.04778 0.53254 0.90241 0.0
N11 N 0.0495 0.55867 0.96729 0.0
N12 N 0.07842 0.5931 0.9735 0.0
C13 C 0.06617 0.57291 0.98804 0.0
C14 C 0.05103 0.57017 0.93859 0.0
C15 C 0.06888 0.59145 0.94234 0.0
C16 C 0.99669 0.54021 -0.00018 0.0
O17 O 1.01455 0.56015 0.00173 0.0
H18 H 0.0689 0.56851 0.01362 0.0
H19 H 0.03992 0.56356 0.91658 0.0
O20 O 0.04422 0.52 0.01083 0.0
H21 H 0.02247 0.4997 0.86068 0.0
H22 H 0.07447 0.60457 0.92344 0.0
Cu23 Cu 0.51272 1.00388 0.53771 0.0
N24 N 0.51792 0.98157 0.54879 0.0
N25 N 0.52164 0.95312 0.5411 0.0
C26 C 0.51128 0.96375 0.5304 0.0
C27 C 0.5352 0.96461 0.56741 0.0
C28 C 0.5328 0.98213 0.57216 0.0
O29 O 0.48779 0.99306 0.50526 0.0
C30 C 0.54491 0.04634 0.5085 0.0
O31 O 0.52713 0.04793 0.50085 0.0
H32 H 0.50042 0.95953 0.50801 0.0
H33 H 0.5423 0.9951 0.58997 0.0
N34 N 0.50317 0.01182 0.57608 0.0
N35 N 0.49356 0.03112 0.60755 0.0
C36 C 0.50644 0.03158 0.58133 0.0
C37 C 0.48786 0.99842 0.60006 0.0
C38 C 0.48187 0.01029 0.61953 0.0
C39 C 0.48845 0.9883 0.47442 0.0
O40 O 0.50806 0.99281 0.4612 0.0
H41 H 0.5168 0.04569 0.5648 0.0
H42 H 0.48058 0.98103 0.60193 0.0
O43 O 0.5417 0.02867 0.52176 0.0
H44 H 0.54671 0.9611 0.58125 0.0
H45 H 0.46927 1.00393 0.64002 0.0
Cu46 Cu 0.51887 0.50214 0.0351 0.0
N47 N 0.51032 0.47365 0.04742 0.0
N48 N 0.50521 0.44069 0.04249 0.0
C49 C 0.51496 0.46106 0.02887 0.0
C50 C 0.49395 0.44045 0.0708 0.0
C51 C 0.49722 0.46089 0.07385 0.0
O52 O 0.54462 0.51343 0.00364 0.0
C53 C 0.47387 0.48571 0.00808 0.0
O54 O 0.47217 0.46676 0.0086 0.0
H55 H 0.5245 0.4665 0.00499 0.0
H56 H 0.49007 0.46592 0.09338 0.0
N57 N 0.52803 0.5196 0.07339 0.0
N58 N 0.53554 0.54721 0.10671 0.0
C59 C 0.5286 0.53841 0.0755 0.0
C60 C 0.53481 0.51627 0.10424 0.0
C61 C 0.53947 0.53329 0.12485 0.0
C62 C 0.56249 0.51428 0.01532 0.0
O63 O 0.56261 0.50855 0.04758 0.0
H64 H 0.52355 0.54521 0.05467 0.0
H65 H 0.53622 0.50245 0.11123 0.0
O66 O 0.4929 0.50269 0.01576 0.0
H67 H 0.4839 0.42649 0.08784 0.0
H68 H 0.54548 0.53528 0.15106 0.0
Cu69 Cu 0.0268 0.50507 0.50126 0.0
N70 N 0.05026 0.50044 0.51341 0.0
N71 N 0.07939 0.49552 0.50523 0.0
C72 C 0.06197 0.49644 0.49058 0.0
C73 C 0.07841 0.49893 0.53887 0.0
C74 C 0.06045 0.50206 0.54382 0.0
O75 O 0.03929 0.52552 0.46234 0.0
C76 C 0.99483 0.45971 0.50491 0.0
O77 O 1.01131 0.4598 0.52253 0.0
H78 H 0.05774 0.49444 0.4636 0.0
H79 H 0.05552 0.50576 0.56766 0.0
N80 N 0.02053 0.51781 0.53666 0.0
N81 N 1.00015 0.52622 0.56963 0.0
C82 C 0.99941 0.51222 0.54685 0.0
C83 C 0.03523 0.53588 0.55366 0.0
C84 C 0.02266 0.54115 0.57405 0.0
C85 C 0.03709 0.54179 0.45739 0.0
O86 O 0.02239 0.54353 0.4761 0.0
H87 H 0.98378 0.49885 0.53628 0.0
H88 H 0.05367 0.54504 0.55035 0.0
O89 O 0.99839 0.47756 0.49162 0.0
H90 H 0.09024 0.4998 0.55833 0.0
H91 H 0.02952 0.5551 0.59028 0.0
Cu92 Cu 0.54459 1.00699 0.98088 0.0
N93 N 0.53393 0.0155 0.94308 0.0
N94 N 0.52492 0.03718 0.91457 0.0
C95 C 0.53674 0.03534 0.94082 0.0
C96 C 0.51421 0.01772 0.89941 0.0
C97 C 0.51994 1.00435 0.91697 0.0
O98 O 0.57199 0.0343 -0.00562 0.0
C99 C 0.50205 0.97571 0.00407 0.0
O100 O 0.50263 0.96925 0.97323 0.0
H101 H 0.54612 0.04776 0.95954 0.0
H102 H 0.51349 0.98748 0.9119 0.0
N103 N 0.55165 0.98602 0.97138 0.0
N104 N 0.55831 0.95952 0.98383 0.0
C105 C 0.55721 0.97618 -0.00405 0.0
C106 C 0.54912 0.97522 0.94252 0.0
C107 C 0.5531 0.9587 0.95022 0.0
C108 C 0.59212 0.03866 0.98736 0.0
O109 O 0.59486 0.02279 0.9787 0.0
H110 H 0.5592 0.98045 0.02268 0.0
H111 H 0.54381 0.97849 0.91804 0.0
O112 O 0.51964 0.9932 0.0145 0.0
H113 H 0.50262 0.01331 0.87786 0.0
H114 H 0.55175 0.94675 0.93276 0.0
Cu115 Cu 0.51664 0.51546 0.53642 0.0
N116 N 0.52276 0.54218 0.5519 0.0
N117 N 0.53049 0.57629 0.54662 0.0
C118 C 0.53043 0.55984 0.53111 0.0
C119 C 0.5229 0.5687 0.57888 0.0
C120 C 0.51808 0.54759 0.58204 0.0
O121 O 0.49979 0.51037 0.49351 0.0
C122 C 0.55547 0.51949 0.56257 0.0
O123 O 0.54548 0.52137 0.58962 0.0
H124 H 0.53512 0.56016 0.50463 0.0
H125 H 0.51076 0.53669 0.60417 0.0
N126 N 0.49808 0.49228 0.56665 0.0
N127 N 0.48371 0.45991 0.59346 0.0
C128 C 0.50009 0.47493 0.57208 0.0
C129 C 0.47972 0.48815 0.5852 0.0
C130 C 0.47075 0.4681 0.60176 0.0
C131 C 0.48325 0.51358 0.49497 0.0
O132 O 0.47887 0.51922 0.5242 0.0
H133 H 0.51303 0.47312 0.55982 0.0
H134 H 0.47315 0.4988 0.58631 0.0
O135 O 0.54585 0.51708 0.53348 0.0
H136 H 0.51995 0.57731 0.5983 0.0
H137 H 0.45597 0.46022 0.61867 0.0
H138 H 0.25012 0.50942 0.17868 0.0
H139 H 0.26049 0.50247 0.28621 0.0
H140 H 0.19258 0.47882 0.24831 0.0
H141 H 0.28764 0.53197 0.20344 0.0
H142 H 0.29149 0.53167 0.24859 0.0
H143 H 0.29121 0.50672 0.16689 0.0
H144 H 0.33212 0.48283 0.20903 0.0
H145 H 0.30244 0.50775 0.27581 0.0
C146 C 0.24305 0.50326 0.20411 0.0
C147 C 0.21926 0.49319 0.20976 0.0
C148 C 0.25803 0.50661 0.23154 0.0
C149 C 0.249 0.49921 0.26477 0.0
C150 C 0.22528 0.48863 0.27065 0.0
C151 C 0.21063 0.48557 0.24307 0.0
C152 C 0.28367 0.52092 0.22628 0.0
C153 C 0.29488 0.50793 0.222 0.0
C154 C 0.29803 0.50258 0.18902 0.0
C155 C 0.31111 0.49311 0.18436 0.0
C156 C 0.32076 0.48874 0.21303 0.0
C157 C 0.31803 0.49413 0.24617 0.0
C158 C 0.30453 0.50326 0.2505 0.0
H159 H 0.73734 0.24378 0.66465 0.0
H160 H 0.73673 0.24081 0.77507 0.0
H161 H 0.70768 0.18202 0.71798 0.0
H162 H 0.74161 0.27412 0.69976 0.0
H163 H 0.74565 0.27394 0.74492 0.0
H164 H 0.77311 0.27808 0.65924 0.0
H165 H 0.84079 0.32228 0.69718 0.0
H166 H 0.78358 0.29276 0.76683 0.0
C167 C 0.73378 0.23446 0.68852 0.0
C168 C 0.72233 0.21171 0.68778 0.0
C169 C 0.73975 0.24516 0.71993 0.0
C170 C 0.7334 0.23269 0.7509 0.0
C171 C 0.72129 0.20977 0.75054 0.0
C172 C 0.7168 0.19962 0.71876 0.0
C173 C 0.7498 0.26946 0.72023 0.0
C174 C 0.7755 0.28257 0.71421 0.0
C175 C 0.78451 0.28575 0.68069 0.0
C176 C 0.80819 0.29971 0.67462 0.0
C177 C 0.82268 0.31067 0.70208 0.0
C178 C 0.81393 0.30869 0.7351 0.0
C179 C 0.79045 0.29401 0.74141 0.0
H180 H 0.52154 0.73532 0.22895 0.0
H181 H 0.52397 0.74793 0.33666 0.0
H182 H 0.55678 0.7159 0.29892 0.0
H183 H 0.49743 0.74687 0.25086 0.0
H184 H 0.49265 0.74492 0.29598 0.0
H185 H 0.52823 0.78165 0.22359 0.0
H186 H 0.54708 0.83945 0.27863 0.0
H187 H 0.51179 0.77702 0.33087 0.0
C188 C 0.52774 0.73505 0.25455 0.0
C189 C 0.54046 0.72514 0.26049 0.0
C190 C 0.52212 0.74374 0.28183 0.0
C191 C 0.52918 0.74225 0.31531 0.0
C192 C 0.54207 0.73256 0.32147 0.0
C193 C 0.54797 0.72449 0.29386 0.0
C194 C 0.50632 0.75215 0.27596 0.0
C195 C 0.51907 0.77668 0.27723 0.0
C196 C 0.52906 0.7895 0.24725 0.0
C197 C 0.53929 0.81224 0.24743 0.0
C198 C 0.5401 0.82207 0.27839 0.0
C199 C 0.53025 0.80953 0.30853 0.0
C200 C 0.51981 0.78683 0.30782 0.0
H201 H 0.77943 0.5604 0.7055 0.0
H202 H 0.77019 0.55834 0.81504 0.0
H203 H 0.71166 0.53063 0.74815 0.0
H204 H 0.81187 0.58431 0.74346 0.0
H205 H 0.80784 0.58343 0.78874 0.0
H206 H 0.81717 0.55693 0.71602 0.0
H207 H 0.84096 0.52403 0.78125 0.0
H208 H 0.81235 0.55814 0.82597 0.0
C209 C 0.76825 0.55521 0.72775 0.0
C210 C 0.74438 0.5443 0.72327 0.0
C211 C 0.77768 0.56001 0.76099 0.0
C212 C 0.76298 0.55411 0.78952 0.0
C213 C 0.7391 0.54338 0.78512 0.0
C214 C 0.73 0.53821 0.75196 0.0
C215 C 0.80337 0.57306 0.76594 0.0
C216 C 0.81278 0.55841 0.77044 0.0
C217 C 0.81921 0.55172 0.74147 0.0
C218 C 0.82919 0.53915 0.74531 0.0
C219 C 0.83223 0.53286 0.77829 0.0
C220 C 0.82646 0.53977 0.80754 0.0
C221 C 0.81653 0.55243 0.8035 0.0
H222 H 0.30047 0.79414 0.20305 0.0
H223 H 0.28824 0.79679 0.3104 0.0
H224 H 0.32741 0.85583 0.24994 0.0
H225 H 0.28877 0.76267 0.24197 0.0
H226 H 0.28433 0.76405 0.28651 0.0
H227 H 0.25881 0.76343 0.19965 0.0
H228 H 0.19021 0.71704 0.23504 0.0
H229 H 0.24599 0.74345 0.30635 0.0
C230 C 0.30168 0.80345 0.22509 0.0
C231 C 0.31424 0.82632 0.22243 0.0
C232 C 0.29169 0.79261 0.2566 0.0
C233 C 0.29476 0.80495 0.28568 0.0
C234 C 0.30745 0.82782 0.28329 0.0
C235 C 0.3165 0.83821 0.25143 0.0
C236 C 0.28079 0.76822 0.2604 0.0
C237 C 0.25519 0.75576 0.25398 0.0
C238 C 0.24684 0.75442 0.2204 0.0
C239 C 0.22333 0.74062 0.21325 0.0
C240 C 0.20816 0.72862 0.24039 0.0
C241 C 0.21612 0.72953 0.27393 0.0
C242 C 0.23967 0.7432 0.28065 0.0
H243 H 0.46408 0.24681 0.84535 0.0
H244 H 0.45289 0.24809 0.73646 0.0
H245 H 0.48944 0.30784 0.79074 0.0
H246 H 0.43462 0.21363 0.81559 0.0
H247 H 0.43113 0.21413 0.77019 0.0
H248 H 0.46596 0.21043 0.84089 0.0
H249 H 0.49648 0.18561 0.77623 0.0
H250 H 0.45444 0.20761 0.73159 0.0
C251 C 0.46672 0.25589 0.82143 0.0
C252 C 0.47844 0.27873 0.82149 0.0
C253 C 0.45787 0.24472 0.79065 0.0
C254 C 0.46041 0.2566 0.76 0.0
C255 C 0.47203 0.27942 0.75989 0.0
C256 C 0.48135 0.29028 0.79053 0.0
C257 C 0.44419 0.22014 0.79094 0.0
C258 C 0.45965 0.21138 0.78648 0.0
C259 C 0.46955 0.20738 0.8154 0.0
C260 C 0.4831 0.19836 0.81154 0.0
C261 C 0.48708 0.19375 0.77876 0.0
C262 C 0.47654 0.19662 0.74989 0.0
C263 C 0.46303 0.20574 0.75373 0.0
C264 C 0.06947 0.50383 0.05 0.0
C265 C 0.07854 0.51959 0.02316 0.0
C266 C 0.08397 0.49956 0.06979 0.0
C267 C 0.14326 0.52487 0.09867 0.0
H268 H 0.1321 0.46655 0.10817 0.0
C269 C 0.2113 0.51148 0.16036 0.0
C270 C 0.20372 0.49326 0.18262 0.0
C271 C 0.19581 0.51331 0.13906 0.0
C272 C 0.13536 0.48291 0.10623 0.0
H273 H 0.10988 0.54354 -0.00346 0.0
H274 H 0.13502 0.53649 0.0315 0.0
H275 H 0.1045 0.47251 0.07743 0.0
H276 H 0.17403 0.46187 0.1977 0.0
H277 H 0.14693 0.46554 0.16199 0.0
H278 H 0.17361 0.5354 0.12808 0.0
C279 C 0.11677 0.52727 0.03702 0.0
C280 C 0.11952 0.48627 0.08858 0.0
C281 C 0.10232 0.53122 0.01692 0.0
C282 C 0.18045 0.47636 0.18147 0.0
C283 C 0.16489 0.47836 0.16058 0.0
C284 C 0.15887 0.52149 0.11672 0.0
C285 C 0.10777 0.51135 0.06352 0.0
C286 C 0.12348 0.50733 0.08432 0.0
C287 C 0.17224 0.49716 0.13979 0.0
C288 C 0.15535 0.50051 0.12043 0.0
H289 H 0.0512 0.49458 0.05528 0.0
H290 H 0.07665 0.48725 0.09022 0.0
H291 H 0.1466 0.54124 0.09605 0.0
H292 H 0.22899 0.52493 0.16052 0.0
H293 H 0.20232 0.52774 0.12266 0.0
C294 C 0.57165 0.08688 0.51019 0.0
C295 C 0.56835 0.06601 0.50934 0.0
C296 C 0.59307 0.10486 0.51896 0.0
C297 C 0.64195 0.11522 0.57196 0.0
H298 H 0.6678 0.17537 0.54213 0.0
C299 C 0.7157 0.18272 0.64741 0.0
C300 C 0.71298 0.2 0.65538 0.0
C301 C 0.70283 0.16863 0.6212 0.0
C302 C 0.66078 0.15865 0.55079 0.0
H303 H 0.58545 0.04799 0.51351 0.0
H304 H 0.62279 0.07932 0.5281 0.0
H305 H 0.63591 0.14623 0.51031 0.0
H306 H 0.69575 0.21693 0.64101 0.0
H307 H 0.67284 0.19212 0.59588 0.0
H308 H 0.66576 0.12735 0.61327 0.0
C309 C 0.60874 0.08175 0.52296 0.0
C310 C 0.64254 0.14197 0.53251 0.0
C311 C 0.58735 0.06381 0.51441 0.0
C312 C 0.69833 0.20384 0.63514 0.0
C313 C 0.68521 0.18959 0.60922 0.0
C314 C 0.66002 0.13181 0.59026 0.0
C315 C 0.61159 0.10229 0.52686 0.0
C316 C 0.63268 0.12007 0.54324 0.0
C317 C 0.68663 0.1713 0.60281 0.0
C318 C 0.66945 0.15379 0.58034 0.0
H319 H 0.55735 0.08912 0.50645 0.0
H320 H 0.59464 0.12042 0.52184 0.0
H321 H 0.6345 0.09859 0.58144 0.0
H322 H 0.72704 0.17953 0.6625 0.0
H323 H 0.70484 0.15507 0.6164 0.0
C324 C 0.53668 0.57017 0.15346 0.0
C325 C 0.53782 0.56704 0.11832 0.0
C326 C 0.53872 0.58927 0.16472 0.0
C327 C 0.53295 0.63531 0.13613 0.0
H328 H 0.56714 0.66109 0.21918 0.0
C329 C 0.52408 0.69696 0.21525 0.0
C330 C 0.54325 0.71257 0.23363 0.0
C331 C 0.52537 0.68167 0.1959 0.0
C332 C 0.5578 0.65435 0.19565 0.0
H333 H 0.54238 0.58193 0.06752 0.0
H334 H 0.54586 0.61519 0.08718 0.0
H335 H 0.56576 0.62948 0.19666 0.0
H336 H 0.57929 0.72563 0.24373 0.0
H337 H 0.58171 0.69926 0.20944 0.0
H338 H 0.52501 0.66028 0.13521 0.0
C339 C 0.54308 0.60269 0.10599 0.0
C340 C 0.55674 0.63599 0.18301 0.0
C341 C 0.54107 0.58358 0.09472 0.0
C342 C 0.56417 0.71363 0.23013 0.0
C343 C 0.5655 0.69842 0.21069 0.0
C344 C 0.53398 0.6537 0.14884 0.0
C345 C 0.54197 0.60578 0.14115 0.0
C346 C 0.54406 0.62606 0.15336 0.0
C347 C 0.54588 0.68172 0.19444 0.0
C348 C 0.54624 0.66332 0.17897 0.0
H349 H 0.5338 0.5577 0.17236 0.0
H350 H 0.53736 0.59093 0.19194 0.0
H351 H 0.52293 0.628 0.11333 0.0
H352 H 0.50765 0.69557 0.21776 0.0
H353 H 0.50989 0.66898 0.18391 0.0
C354 C 0.98218 0.54581 0.59001 0.0
C355 C 0.98079 0.52615 0.58358 0.0
C356 C 0.96309 0.54571 0.60239 0.0
C357 C 0.91031 0.51221 0.65162 0.0
H358 H 0.89269 0.55127 0.61284 0.0
C359 C 0.8358 0.51436 0.71093 0.0
C360 C 0.83982 0.53522 0.71592 0.0
C361 C 0.84975 0.51151 0.68869 0.0
C362 C 0.89745 0.54036 0.62414 0.0
H363 H 0.95847 0.49101 0.58548 0.0
H364 H 0.92517 0.4908 0.60761 0.0
H365 H 0.92439 0.55021 0.5873 0.0
H366 H 0.86065 0.56925 0.70038 0.0
H367 H 0.88539 0.56449 0.66228 0.0
H368 H 0.8843 0.50301 0.68938 0.0
C369 C 0.94099 0.50628 0.60283 0.0
C370 C 0.91559 0.53975 0.60945 0.0
C371 C 0.95998 0.50639 0.59003 0.0
C372 C 0.85703 0.55295 0.69662 0.0
C373 C 0.87121 0.55018 0.67477 0.0
C374 C 0.8924 0.513 0.66656 0.0
C375 C 0.94232 0.52593 0.60901 0.0
C376 C 0.92234 0.52582 0.62328 0.0
C377 C 0.8683 0.52953 0.6715 0.0
C378 C 0.88585 0.52725 0.65327 0.0
H379 H 0.9979 0.56128 0.5849 0.0
H380 H 0.96466 0.56109 0.60725 0.0
H381 H 0.91531 0.50149 0.66304 0.0
H382 H 0.82255 0.50043 0.72548 0.0
H383 H 0.84656 0.49529 0.6861 0.0
C384 C 0.48141 0.96438 0.06126 0.0
C385 C 0.48139 0.96193 0.02565 0.0
C386 C 0.46209 0.94971 0.08115 0.0
C387 C 0.41092 0.89367 0.07858 0.0
H388 H 0.38892 0.91168 0.15376 0.0
C389 C 0.34371 0.83325 0.17828 0.0
C390 C 0.32829 0.83839 0.19167 0.0
C391 C 0.36099 0.8477 0.15532 0.0
C392 C 0.39469 0.9064 0.13258 0.0
H393 H 0.46066 0.94287 0.98286 0.0
H394 H 0.42727 0.91782 0.01715 0.0
H395 H 0.42226 0.93898 0.12045 0.0
H396 H 0.31769 0.86178 0.18948 0.0
H397 H 0.34753 0.88679 0.14889 0.0
H398 H 0.38325 0.86116 0.09037 0.0
C399 C 0.44227 0.93058 0.03 0.0
C400 C 0.41401 0.92203 0.11382 0.0
C401 C 0.46144 0.94509 0.01029 0.0
C402 C 0.32945 0.85748 0.17972 0.0
C403 C 0.34669 0.8719 0.15678 0.0
C404 C 0.39166 0.87806 0.09735 0.0
C405 C 0.44245 0.93239 0.06573 0.0
C406 C 0.42229 0.91586 0.08649 0.0
C407 C 0.36316 0.86756 0.14525 0.0
C408 C 0.38326 0.88422 0.12454 0.0
H409 H 0.49653 0.97717 0.07382 0.0
H410 H 0.46279 0.95152 0.10867 0.0
H411 H 0.41702 0.8883 0.05798 0.0
H412 H 0.34345 0.81883 0.18739 0.0
H413 H 0.37343 0.84387 0.14706 0.0
C414 C 0.45878 0.42107 0.61095 0.0
C415 C 0.48076 0.4394 0.60448 0.0
C416 C 0.45603 0.40108 0.62098 0.0
C417 C 0.48734 0.37165 0.62546 0.0
H418 H 0.44248 0.33697 0.69628 0.0
C419 C 0.49261 0.31119 0.71884 0.0
C420 C 0.47213 0.2922 0.72943 0.0
C421 C 0.49211 0.32617 0.69596 0.0
C422 C 0.45479 0.34623 0.67601 0.0
H423 H 0.51711 0.4513 0.6041 0.0
H424 H 0.51248 0.41678 0.6225 0.0
H425 H 0.44453 0.36942 0.6725 0.0
H426 H 0.43523 0.27326 0.72293 0.0
H427 H 0.43431 0.29954 0.68291 0.0
H428 H 0.49831 0.34891 0.63047 0.0
C429 C 0.49723 0.4175 0.61878 0.0
C430 C 0.45598 0.36488 0.66233 0.0
C431 C 0.49993 0.43737 0.60841 0.0
C432 C 0.45128 0.2877 0.71491 0.0
C433 C 0.45073 0.30282 0.69233 0.0
C434 C 0.4863 0.35312 0.63944 0.0
C435 C 0.47524 0.39905 0.62515 0.0
C436 C 0.47257 0.37809 0.63734 0.0
C437 C 0.47107 0.32255 0.68359 0.0
C438 C 0.47026 0.34042 0.66526 0.0
H439 H 0.44368 0.4221 0.60766 0.0
H440 H 0.43881 0.38719 0.62518 0.0
H441 H 0.49998 0.38112 0.60569 0.0
H442 H 0.50889 0.31502 0.72979 0.0
H443 H 0.50804 0.34127 0.68987 0.0
C444 C 0.50077 0.91899 0.50934 0.0
C445 C 0.52116 0.93552 0.52402 0.0
C446 C 0.50063 0.90277 0.49054 0.0
C447 C 0.53655 0.87953 0.46898 0.0
H448 H 0.49692 0.85933 0.38936 0.0
C449 C 0.54873 0.83879 0.35193 0.0
C450 C 0.52899 0.82021 0.33953 0.0
C451 C 0.54707 0.85049 0.37843 0.0
C452 C 0.50789 0.86463 0.41174 0.0
H453 H 0.5574 0.94809 0.5306 0.0
H454 H 0.55751 0.92045 0.49677 0.0
H455 H 0.49535 0.88446 0.42749 0.0
H456 H 0.49214 0.79904 0.34546 0.0
H457 H 0.48917 0.81977 0.39141 0.0
H458 H 0.54988 0.86044 0.45169 0.0
C459 C 0.54135 0.91939 0.50063 0.0
C460 C 0.50693 0.87899 0.43381 0.0
C461 C 0.54136 0.93534 0.51999 0.0
C462 C 0.50764 0.81318 0.35478 0.0
C463 C 0.50593 0.82511 0.38084 0.0
C464 C 0.53778 0.86548 0.44648 0.0
C465 C 0.52103 0.90296 0.48528 0.0
C466 C 0.52132 0.88677 0.46272 0.0
C467 C 0.52558 0.84406 0.39255 0.0
C468 C 0.52351 0.85796 0.4176 0.0
H469 H 0.48494 0.91868 0.51238 0.0
H470 H 0.4845 0.89017 0.47996 0.0
H471 H 0.54759 0.88473 0.49124 0.0
H472 H 0.56537 0.84455 0.34053 0.0
H473 H 0.56247 0.86512 0.38683 0.0
C474 C 0.58204 0.52468 0.95765 0.0
C475 C 0.58209 0.51965 -0.00727 0.0
C476 C 0.60006 0.52833 0.93628 0.0
C477 C 0.66001 0.54053 0.93787 0.0
H478 H 0.64455 0.51533 0.84791 0.0
C479 C 0.72845 0.55657 0.83601 0.0
C480 C 0.72353 0.53956 0.81417 0.0
C481 C 0.71203 0.55422 0.85956 0.0
C482 C 0.64916 0.52227 0.8731 0.0
H483 H 0.60134 0.51491 0.03295 0.0
H484 H 0.63237 0.5209 -0.00422 0.0
H485 H 0.61439 0.51188 0.88472 0.0
H486 H 0.69822 0.50631 0.80132 0.0
H487 H 0.66976 0.50197 0.84296 0.0
H488 H 0.69471 0.55038 0.92659 0.0
C489 C 0.61867 0.52238 0.98475 0.0
C490 C 0.63189 0.52061 0.89401 0.0
C491 C 0.60075 0.5188 0.00606 0.0
C492 C 0.70236 0.51976 0.81762 0.0
C493 C 0.68601 0.51736 0.84127 0.0
C494 C 0.67729 0.54214 0.91699 0.0
C495 C 0.61848 0.527 0.94953 0.0
C496 C 0.63707 0.52964 0.92671 0.0
C497 C 0.69039 0.53476 0.86187 0.0
C498 C 0.67207 0.53294 0.8844 0.0
H499 H 0.56795 0.52551 0.94661 0.0
H500 H 0.59953 0.53216 0.90935 0.0
H501 H 0.66467 0.5479 0.96276 0.0
H502 H 0.74451 0.57211 0.8336 0.0
H503 H 0.71594 0.56801 0.87481 0.0
C504 C 0.05142 0.5782 0.42805 0.0
C505 C 0.05401 0.56048 0.43542 0.0
C506 C 0.06882 0.59695 0.41092 0.0
C507 C 0.12299 0.61829 0.36024 0.0
H508 H 0.13476 0.67434 0.38773 0.0
C509 C 0.20422 0.69869 0.31633 0.0
C510 C 0.19989 0.71378 0.3002 0.0
C511 C 0.18697 0.68093 0.33537 0.0
C512 C 0.13162 0.65879 0.37979 0.0
H513 H 0.07682 0.54847 0.42996 0.0
H514 H 0.10721 0.58114 0.4012 0.0
H515 H 0.10297 0.64099 0.41387 0.0
H516 H 0.17469 0.7229 0.29291 0.0
H517 H 0.14471 0.69216 0.32701 0.0
H518 H 0.15204 0.63624 0.32677 0.0
C519 C 0.0916 0.58053 0.40777 0.0
C520 C 0.11327 0.63962 0.39453 0.0
C521 C 0.07411 0.56172 0.42444 0.0
C522 C 0.17848 0.71153 0.30523 0.0
C523 C 0.16135 0.69396 0.32472 0.0
C524 C 0.14151 0.63745 0.34594 0.0
C525 C 0.08937 0.59856 0.40112 0.0
C526 C 0.10865 0.61906 0.38492 0.0
C527 C 0.16518 0.6781 0.33905 0.0
C528 C 0.14602 0.6579 0.35551 0.0
H529 H 0.03612 0.57776 0.43606 0.0
H530 H 0.06618 0.61024 0.40563 0.0
H531 H 0.11979 0.60287 0.35154 0.0
H532 H 0.22047 0.6999 0.31251 0.0
H533 H 0.19045 0.66904 0.34642 0.0
C534 C 0.50074 0.05209 0.89929 0.0
C535 C 0.52229 0.05539 0.90773 0.0
C536 C 0.49786 0.06981 0.89593 0.0
C537 C 0.52812 0.12754 0.87441 0.0
H538 H 0.47879 0.12708 0.92265 0.0
C539 C 0.51232 0.1961 0.84662 0.0
C540 C 0.48925 0.18913 0.84088 0.0
C541 C 0.51804 0.18252 0.86433 0.0
C542 C 0.49257 0.12746 0.90879 0.0
H543 H 0.5578 0.07965 0.91838 0.0
H544 H 0.55294 0.11073 0.9114 0.0
H545 H 0.48477 0.09685 0.93141 0.0
H546 H 0.45408 0.16349 0.85114 0.0
H547 H 0.46379 0.13951 0.881 0.0
H548 H 0.53523 0.15724 0.85006 0.0
C549 C 0.53824 0.09445 0.90791 0.0
C550 C 0.49598 0.11014 0.9139 0.0
C551 C 0.54102 0.07673 0.9119 0.0
C552 C 0.47201 0.16935 0.85585 0.0
C553 C 0.47767 0.15555 0.87289 0.0
C554 C 0.52448 0.14463 0.86879 0.0
C555 C 0.51658 0.09114 0.90032 0.0
C556 C 0.51361 0.10992 0.8964 0.0
C557 C 0.50075 0.16145 0.87567 0.0
C558 C 0.50644 0.14473 0.88553 0.0
H559 H 0.48601 0.03578 0.89635 0.0
H560 H 0.48103 0.06687 0.88973 0.0
H561 H 0.54175 0.12768 0.86045 0.0
H562 H 0.52588 0.21124 0.835 0.0
H563 H 0.53602 0.18798 0.86699 0.0
C564 C 0.45988 0.52509 0.46279 0.0
C565 C 0.46919 0.51186 0.46485 0.0
C566 C 0.44463 0.52253 0.43675 0.0
C567 C 0.40097 0.48222 0.38155 0.0
H568 H 0.40637 0.53255 0.33384 0.0
C569 C 0.33654 0.4762 0.27717 0.0
C570 C 0.3321 0.4931 0.2748 0.0
C571 C 0.35297 0.47728 0.30007 0.0
C572 C 0.40438 0.51832 0.34726 0.0
H573 H 0.47019 0.48577 0.44097 0.0
H574 H 0.44284 0.4809 0.39524 0.0
H575 H 0.43703 0.53718 0.37171 0.0
H576 H 0.34072 0.52383 0.29626 0.0
H577 H 0.3684 0.52518 0.33714 0.0
H578 H 0.36796 0.46342 0.35794 0.0
C579 C 0.44762 0.49338 0.41388 0.0
C580 C 0.42208 0.52098 0.36871 0.0
C581 C 0.46334 0.49626 0.43977 0.0
C582 C 0.34348 0.51041 0.29744 0.0
C583 C 0.35974 0.5114 0.32051 0.0
C584 C 0.38309 0.47956 0.36025 0.0
C585 C 0.43802 0.50643 0.41233 0.0
C586 C 0.42044 0.50303 0.38647 0.0
C587 C 0.36525 0.49522 0.32136 0.0
C588 C 0.38442 0.49765 0.34327 0.0
H589 H 0.46415 0.53731 0.48172 0.0
H590 H 0.43739 0.53269 0.43642 0.0
H591 H 0.39915 0.46813 0.39523 0.0
H592 H 0.32786 0.46245 0.26047 0.0
H593 H 0.35671 0.4645 0.29998 0.0
C594 C 0.96894 0.44641 0.91351 0.0
C595 C 0.981 0.46519 0.89223 0.0
C596 C 0.94911 0.42783 0.90171 0.0
C597 C 0.90207 0.4119 0.84221 0.0
H598 H 0.89459 0.35491 0.84173 0.0
C599 C 0.8404 0.34704 0.7511 0.0
C600 C 0.82893 0.32486 0.76061 0.0
C601 C 0.85633 0.36276 0.77286 0.0
C602 C 0.89615 0.37058 0.84241 0.0
H603 H 0.98189 0.47923 0.842 0.0
H604 H 0.94707 0.4469 0.82153 0.0
H605 H 0.92852 0.38523 0.86857 0.0
H606 H 0.82434 0.30166 0.80094 0.0
H607 H 0.85247 0.32948 0.83975 0.0
H608 H 0.86994 0.39758 0.81614 0.0
C609 C 0.95305 0.44653 0.84724 0.0
C610 C 0.91563 0.38794 0.85757 0.0
C611 C 0.97306 0.46494 0.8588 0.0
C612 C 0.83303 0.3187 0.79309 0.0
C613 C 0.8492 0.33457 0.81507 0.0
C614 C 0.88253 0.39458 0.82754 0.0
C615 C 0.94078 0.4279 0.86869 0.0
C616 C 0.91907 0.40888 0.85655 0.0
C617 C 0.86119 0.35679 0.80496 0.0
C618 C 0.87971 0.3739 0.82631 0.0
H619 H 0.97482 0.44618 0.93932 0.0
H620 H 0.93995 0.41364 0.91868 0.0
H621 H 0.90411 0.42781 0.84176 0.0
H622 H 0.83738 0.35223 0.72628 0.0
H623 H 0.86545 0.3796 0.76387 0.0
C624 C 0.97031 0.55433 -0.00488 0.0
C625 C 0.97333 0.53655 -0.00382 0.0
C626 C 0.94943 0.5517 0.98456 0.0
C627 C 0.90114 0.51613 0.92879 0.0
H628 H 0.87739 0.55152 0.95664 0.0
C629 C 0.82981 0.51538 0.85087 0.0
C630 C 0.83411 0.53611 0.84146 0.0
C631 C 0.84188 0.51281 0.87783 0.0
C632 C 0.88381 0.54152 0.94856 0.0
H633 H 0.95602 0.50166 0.98987 0.0
H634 H 0.91952 0.497 0.97216 0.0
H635 H 0.90784 0.55158 0.99005 0.0
H636 H 0.85316 0.57014 0.85437 0.0
H637 H 0.87448 0.56579 0.9012 0.0
H638 H 0.87793 0.50666 0.8867 0.0
C639 C 0.93349 0.51312 0.97862 0.0
C640 C 0.90127 0.54155 0.96771 0.0
C641 C 0.9544 0.51577 0.98905 0.0
C642 C 0.84933 0.55394 0.86132 0.0
C643 C 0.86159 0.55141 0.88815 0.0
C644 C 0.88376 0.51609 0.90973 0.0
C645 C 0.93102 0.53119 0.97495 0.0
C646 C 0.91047 0.52916 0.95767 0.0
C647 C 0.85874 0.53097 0.89574 0.0
C648 C 0.87513 0.52908 0.91893 0.0
H649 H 0.98448 0.57058 0.00051 0.0
H650 H 0.94827 0.56602 0.98191 0.0
H651 H 0.90806 0.50672 0.91977 0.0
H652 H 0.81806 0.50134 0.83607 0.0
H653 H 0.83881 0.49674 0.88352 0.0
C654 C 0.46644 0.96815 0.42232 0.0
C655 C 0.46657 0.97456 0.45599 0.0
C656 C 0.44572 0.9532 0.4066 0.0
C657 C 0.38783 0.90788 0.42782 0.0
H658 H 0.37491 0.91419 0.3326 0.0
C659 C 0.31619 0.86123 0.3138 0.0
C660 C 0.31535 0.84139 0.31416 0.0
C661 C 0.33046 0.8775 0.33647 0.0
C662 C 0.37807 0.91231 0.35939 0.0
H663 H 0.44491 0.97083 0.49912 0.0
H664 H 0.40894 0.94472 0.47172 0.0
H665 H 0.40912 0.94374 0.3595 0.0
H666 H 0.3268 0.82214 0.34093 0.0
H667 H 0.35141 0.8504 0.38095 0.0
H668 H 0.35709 0.87614 0.42735 0.0
C669 C 0.42485 0.95116 0.4576 0.0
C670 C 0.3978 0.92914 0.37463 0.0
C671 C 0.44549 0.96624 0.47316 0.0
C672 C 0.32695 0.83719 0.34021 0.0
C673 C 0.34117 0.85346 0.36303 0.0
C674 C 0.3682 0.89092 0.41245 0.0
C675 C 0.42477 0.94423 0.42437 0.0
C676 C 0.40304 0.927 0.40886 0.0
C677 C 0.34402 0.87417 0.36009 0.0
C678 C 0.36323 0.89287 0.37796 0.0
H679 H 0.48235 0.97422 0.40841 0.0
H680 H 0.44618 0.94805 0.381 0.0
H681 H 0.39154 0.90572 0.45421 0.0
H682 H 0.30725 0.86481 0.29415 0.0
H683 H 0.33197 0.89316 0.33411 0.0
C684 C 0.48647 0.40134 0.03146 0.0
C685 C 0.50546 0.42276 0.02786 0.0
C686 C 0.48593 0.38433 0.01435 0.0
C687 C 0.51137 0.3757 0.9384 0.0
H688 H 0.4823 0.31639 0.97457 0.0
C689 C 0.50721 0.30995 0.85622 0.0
C690 C 0.48541 0.2909 0.85378 0.0
C691 C 0.51204 0.32445 0.88247 0.0
C692 C 0.49043 0.33287 0.96412 0.0
H693 H 0.53937 0.44288 0.0054 0.0
H694 H 0.53862 0.41331 0.97601 0.0
H695 H 0.48615 0.34506 0.01105 0.0
H696 H 0.45208 0.2713 0.87815 0.0
H697 H 0.4604 0.29672 0.924 0.0
H698 H 0.51525 0.36365 0.89138 0.0
C699 C 0.52384 0.40967 0.99121 0.0
C700 C 0.4926 0.34929 0.98498 0.0
C701 C 0.5243 0.42663 0.00809 0.0
C702 C 0.4691 0.28578 0.87964 0.0
C703 C 0.47388 0.30039 0.90585 0.0
C704 C 0.50925 0.35937 0.91767 0.0
C705 C 0.50443 0.38838 -0.00656 0.0
C706 C 0.50299 0.3709 0.97227 0.0
C707 C 0.49509 0.32033 0.90671 0.0
C708 C 0.49865 0.33772 0.93013 0.0
H709 H 0.47163 0.39786 0.04631 0.0
H710 H 0.47061 0.36821 0.01641 0.0
H711 H 0.51897 0.39202 0.92741 0.0
H712 H 0.52013 0.31419 0.83672 0.0
H713 H 0.52874 0.33939 0.88286 0.0
C714 C 0.0997 0.49703 0.45237 0.0
C715 C 0.09595 0.49253 0.48784 0.0
C716 C 0.11487 0.49333 0.43497 0.0
C717 C 0.1651 0.48895 0.44342 0.0
H718 H 0.14356 0.46017 0.35662 0.0
C719 C 0.19566 0.46343 0.31359 0.0
C720 C 0.21561 0.48365 0.30585 0.0
C721 C 0.18282 0.46059 0.34294 0.0
C722 C 0.14982 0.46783 0.38108 0.0
H723 H 0.10594 0.48117 0.53291 0.0
H724 H 0.13297 0.47509 0.50227 0.0
H725 H 0.1172 0.46301 0.39369 0.0
H726 H 0.23885 0.51614 0.32403 0.0
H727 H 0.21627 0.51137 0.37505 0.0
H728 H 0.19801 0.49431 0.43013 0.0
C729 C 0.12386 0.48134 0.48814 0.0
C730 C 0.13473 0.46968 0.40214 0.0
C731 C 0.10843 0.48487 0.50564 0.0
C732 C 0.22362 0.50034 0.32957 0.0
C733 C 0.21065 0.49757 0.35882 0.0
C734 C 0.18033 0.48719 0.42215 0.0
C735 C 0.1269 0.48521 0.45252 0.0
C736 C 0.14233 0.48077 0.43303 0.0
C737 C 0.1895 0.47802 0.3649 0.0
C738 C 0.17297 0.47703 0.39035 0.0
H739 H 0.09105 0.50356 0.43784 0.0
H740 H 0.11729 0.49696 0.40764 0.0
H741 H 0.17139 0.49758 0.46713 0.0
H742 H 0.18925 0.45026 0.29578 0.0
H743 H 0.1669 0.44515 0.34731 0.0
C744 C 0.63292 0.06596 0.97148 0.0
C745 C 0.61083 0.06143 0.9792 0.0
C746 C 0.64904 0.0856 0.95506 0.0
C747 C 0.66692 0.11534 0.89213 0.0
H748 H 0.6775 0.173 0.90366 0.0
C749 C 0.68928 0.17691 0.78151 0.0
C750 C 0.71123 0.19607 0.78253 0.0
C751 C 0.68002 0.16312 0.81033 0.0
C752 C 0.6749 0.15703 0.90048 0.0
H753 H 0.58916 0.07496 0.97863 0.0
H754 H 0.61734 0.10926 0.94987 0.0
H755 H 0.65644 0.14436 0.94814 0.0
H756 H 0.73999 0.21622 0.81577 0.0
H757 H 0.7232 0.1921 0.86689 0.0
H758 H 0.68424 0.12759 0.84381 0.0
C759 C 0.62218 0.09759 0.95656 0.0
C760 C 0.66276 0.14064 0.92573 0.0
C761 C 0.606 0.07789 0.97306 0.0
C762 C 0.72311 0.2016 0.81397 0.0
C763 C 0.71357 0.18784 0.84318 0.0
C764 C 0.67867 0.13154 0.86683 0.0
C765 C 0.64349 0.10121 0.94596 0.0
C766 C 0.65841 0.11952 0.92159 0.0
C767 C 0.69213 0.16828 0.84128 0.0
C768 C 0.68249 0.15242 0.87052 0.0
H769 H 0.63732 0.05377 0.97618 0.0
H770 H 0.66548 0.08808 0.94784 0.0
H771 H 0.66356 0.0992 0.88779 0.0
H772 H 0.67915 0.17242 0.75829 0.0
H773 H 0.66332 0.14826 0.80842 0.0
C774 C 0.54078 0.6147 0.55035 0.0
C775 C 0.53532 0.5966 0.53063 0.0
C776 C 0.54533 0.63426 0.53444 0.0
C777 C 0.56336 0.66426 0.45135 0.0
H778 H 0.53096 0.69199 0.47887 0.0
C779 C 0.52792 0.71497 0.37936 0.0
C780 C 0.54642 0.72744 0.35676 0.0
C781 C 0.53054 0.70461 0.40836 0.0
C782 C 0.54027 0.68453 0.47103 0.0
H783 H 0.52958 0.58493 0.47854 0.0
H784 H 0.53792 0.61878 0.45126 0.0
H785 H 0.52772 0.66175 0.51386 0.0
H786 H 0.5827 0.7409 0.34859 0.0
H787 H 0.58753 0.72342 0.39976 0.0
H788 H 0.57491 0.6859 0.40769 0.0
C789 C 0.53909 0.61802 0.47895 0.0
C790 C 0.53855 0.66735 0.49121 0.0
C791 C 0.53437 0.59855 0.49473 0.0
C792 C 0.56813 0.73121 0.36551 0.0
C793 C 0.57081 0.72105 0.39465 0.0
C794 C 0.56513 0.68138 0.43133 0.0
C795 C 0.54473 0.63613 0.49852 0.0
C796 C 0.54947 0.65658 0.48087 0.0
C797 C 0.55177 0.70666 0.41535 0.0
C798 C 0.55307 0.69133 0.4403 0.0
H799 H 0.54178 0.61387 0.578 0.0
H800 H 0.54963 0.64799 0.55014 0.0
H801 H 0.5722 0.65645 0.443 0.0
H802 H 0.51095 0.71165 0.37305 0.0
H803 H 0.51546 0.69359 0.42356 0.0
C804 C 0.50907 0.0703 0.61483 0.0
C805 C 0.4906 0.04858 0.61708 0.0
C806 C 0.50604 0.08733 0.62286 0.0
C807 C 0.46608 0.09831 0.66869 0.0
H808 H 0.50168 0.15475 0.62216 0.0
C809 C 0.45555 0.16787 0.70706 0.0
C810 C 0.47636 0.18582 0.71816 0.0
C811 C 0.45557 0.15243 0.68636 0.0
C812 C 0.49153 0.13903 0.6352 0.0
H813 H 0.45435 0.0277 0.62863 0.0
H814 H 0.44882 0.05729 0.64182 0.0
H815 H 0.50504 0.12453 0.60396 0.0
H816 H 0.51336 0.20299 0.71348 0.0
H817 H 0.51342 0.17633 0.67668 0.0
H818 H 0.45267 0.11283 0.69995 0.0
C819 C 0.46587 0.06127 0.63488 0.0
C820 C 0.49359 0.12173 0.62504 0.0
C821 C 0.469 0.04424 0.62733 0.0
C822 C 0.49709 0.18936 0.70503 0.0
C823 C 0.4971 0.17404 0.68407 0.0
C824 C 0.46382 0.11548 0.6785 0.0
C825 C 0.48436 0.08308 0.63289 0.0
C826 C 0.48117 0.10121 0.64205 0.0
C827 C 0.47639 0.15482 0.67616 0.0
C828 C 0.47675 0.13612 0.66224 0.0
H829 H 0.52594 0.07408 0.60721 0.0
H830 H 0.52082 0.10381 0.62168 0.0
H831 H 0.45655 0.08297 0.68292 0.0
H832 H 0.43936 0.16462 0.71712 0.0
H833 H 0.43933 0.1379 0.68025 0.0
C834 C 0.45439 0.5068 0.00301 0.0
C835 C 0.45285 0.48669 0.00646 0.0
C836 C 0.43509 0.50817 0.00847 0.0
C837 C 0.37168 0.47453 0.02816 0.0
H838 H 0.38708 0.52303 0.08589 0.0
C839 C 0.31761 0.47185 0.14155 0.0
C840 C 0.31809 0.49086 0.14969 0.0
C841 C 0.32953 0.47163 0.11295 0.0
C842 C 0.38237 0.50962 0.06918 0.0
H843 H 0.42948 0.45202 0.01582 0.0
H844 H 0.39624 0.45446 0.02667 0.0
H845 H 0.41728 0.52255 0.05544 0.0
H846 H 0.32988 0.52398 0.13292 0.0
H847 H 0.3508 0.52363 0.08291 0.0
H848 H 0.33681 0.46094 0.04445 0.0
C849 C 0.41209 0.4692 0.01903 0.0
C850 C 0.39976 0.50934 0.05152 0.0
C851 C 0.43128 0.46779 0.01298 0.0
C852 C 0.3291 0.50906 0.12712 0.0
C853 C 0.34122 0.50892 0.09867 0.0
C854 C 0.35428 0.47468 0.04629 0.0
C855 C 0.41391 0.48952 0.01816 0.0
C856 C 0.3948 0.49148 0.03157 0.0
C857 C 0.34235 0.4905 0.09216 0.0
C858 C 0.35957 0.49197 0.06773 0.0
H859 H 0.47073 0.52163 -0.00244 0.0
H860 H 0.43705 0.52402 0.00653 0.0
H861 H 0.36708 0.46073 0.01246 0.0
H862 H 0.30921 0.45761 0.15857 0.0
H863 H 0.33018 0.45724 0.10876 0.0
C864 C 0.95195 0.44024 0.49725 0.0
C865 C 0.97164 0.43959 0.50512 0.0
C866 C 0.92998 0.42178 0.50302 0.0
C867 C 0.89861 0.36199 0.52496 0.0
H868 H 0.85905 0.37405 0.57701 0.0
C869 C 0.83779 0.30575 0.63179 0.0
C870 C 0.81812 0.30618 0.63961 0.0
C871 C 0.85193 0.31823 0.60423 0.0
C872 C 0.86952 0.37026 0.56179 0.0
H873 H 0.98366 0.41866 0.52305 0.0
H874 H 0.94569 0.38679 0.53329 0.0
H875 H 0.89302 0.40388 0.54884 0.0
H876 H 0.79674 0.3185 0.62319 0.0
H877 H 0.82132 0.34019 0.5746 0.0
H878 H 0.87566 0.32843 0.53961 0.0
C879 C 0.94701 0.40138 0.52248 0.0
C880 C 0.8891 0.38745 0.54559 0.0
C881 C 0.96887 0.41978 0.51686 0.0
C882 C 0.81168 0.3177 0.61746 0.0
C883 C 0.82593 0.33034 0.58996 0.0
C884 C 0.87906 0.34479 0.54127 0.0
C885 C 0.92726 0.40227 0.51656 0.0
C886 C 0.90434 0.38363 0.52797 0.0
C887 C 0.84678 0.33155 0.58404 0.0
C888 C 0.86469 0.34881 0.56086 0.0
H889 H 0.95349 0.45525 0.48816 0.0
H890 H 0.91514 0.42297 0.49779 0.0
H891 H 0.90972 0.35839 0.51101 0.0
H892 H 0.84321 0.29714 0.64871 0.0
H893 H 0.86788 0.31883 0.60065 0.0
C894 C 0.54812 0.92203 -0.00086 0.0
C895 C 0.56172 0.94454 0.00417 0.0
C896 C 0.54929 0.90738 0.02215 0.0
C897 C 0.56629 0.90504 0.11206 0.0
H898 H 0.55475 0.84861 0.08747 0.0
C899 C 0.56659 0.8468 0.21453 0.0
C900 C 0.54693 0.82565 0.21501 0.0
C901 C 0.5716 0.8608 0.18602 0.0
C902 C 0.558 0.86433 0.09466 0.0
H903 H 0.58831 0.9695 0.03544 0.0
H904 H 0.5911 0.94417 0.07477 0.0
H905 H 0.55796 0.87438 0.04239 0.0
H906 H 0.51787 0.80228 0.18496 0.0
H907 H 0.5268 0.82666 0.13506 0.0
H908 H 0.56621 0.89502 0.1642 0.0
C909 C 0.57886 0.93763 0.05399 0.0
C910 C 0.55974 0.87908 0.06888 0.0
C911 C 0.57742 0.95219 0.03137 0.0
C912 C 0.53327 0.81837 0.18537 0.0
C913 C 0.53836 0.83237 0.15676 0.0
C914 C 0.56476 0.89044 0.13768 0.0
C915 C 0.5643 0.915 0.05038 0.0
C916 C 0.56373 0.89958 0.07728 0.0
C917 C 0.55715 0.85396 0.15723 0.0
C918 C 0.56042 0.86985 0.12936 0.0
H919 H 0.53575 0.91574 0.97852 0.0
H920 H 0.53766 0.8901 0.01864 0.0
H921 H 0.56877 0.92039 0.11975 0.0
H922 H 0.57771 0.85278 0.23669 0.0
H923 H 0.58646 0.87722 0.18689 0.0
C924 C 0.59198 0.52337 0.54029 0.0
C925 C 0.57662 0.51895 0.56735 0.0
C926 C 0.61246 0.52381 0.54651 0.0
C927 C 0.63932 0.50489 0.60999 0.0
H928 H 0.69724 0.55674 0.58381 0.0
C929 C 0.72058 0.52029 0.67604 0.0
C930 C 0.73385 0.54126 0.68904 0.0
C931 C 0.70488 0.51607 0.64963 0.0
C932 C 0.68123 0.54208 0.59119 0.0
H933 H 0.57032 0.51086 0.62176 0.0
H934 H 0.60547 0.51147 0.63236 0.0
H935 H 0.66136 0.55122 0.56023 0.0
H936 H 0.74227 0.5745 0.68375 0.0
H937 H 0.71455 0.56723 0.63842 0.0
H938 H 0.65855 0.49636 0.64283 0.0
C939 C 0.60191 0.51459 0.60639 0.0
C940 C 0.6607 0.53882 0.57735 0.0
C941 C 0.5818 0.51445 0.60033 0.0
C942 C 0.73246 0.55828 0.67362 0.0
C943 C 0.71652 0.55404 0.64758 0.0
C944 C 0.65972 0.50816 0.62387 0.0
C945 C 0.61757 0.51938 0.57971 0.0
C946 C 0.63947 0.52062 0.58778 0.0
C947 C 0.70171 0.53265 0.63639 0.0
C948 C 0.68092 0.52721 0.61573 0.0
H949 H 0.58843 0.52695 0.51462 0.0
H950 H 0.62426 0.52759 0.52547 0.0
H951 H 0.62324 0.49053 0.61812 0.0
H952 H 0.72126 0.5069 0.68787 0.0
H953 H 0.69421 0.49952 0.64114 0.0
C954 C 0.11 0.61012 0.01553 0.0
C955 C 0.09738 0.61223 0.98869 0.0
C956 C 0.12744 0.62843 0.03178 0.0
C957 C 0.14716 0.68572 0.04806 0.0
H958 H 0.19826 0.68442 0.08872 0.0
C959 C 0.19256 0.73149 0.16951 0.0
C960 C 0.21468 0.73595 0.17738 0.0
C961 C 0.18195 0.72171 0.13881 0.0
C962 C 0.18448 0.68549 0.07703 0.0
H963 H 0.09386 0.63556 0.95726 0.0
H964 H 0.1248 0.66763 0.98503 0.0
H965 H 0.17344 0.6568 0.04872 0.0
H966 H 0.24393 0.73581 0.15727 0.0
H967 H 0.22595 0.7199 0.10298 0.0
H968 H 0.15842 0.71461 0.0761 0.0
C969 C 0.12084 0.65168 -0.00607 0.0
C970 C 0.16993 0.66931 0.05445 0.0
C971 C 0.10323 0.63328 0.97775 0.0
C972 C 0.22687 0.73257 0.15219 0.0
C973 C 0.21637 0.72308 0.1212 0.0
C974 C 0.16194 0.70211 0.07033 0.0
C975 C 0.133 0.64947 0.02144 0.0
C976 C 0.15056 0.6687 0.04072 0.0
C977 C 0.19334 0.71646 0.11488 0.0
C978 C 0.18031 0.70176 0.08614 0.0
H979 H 0.10637 0.59427 0.0243 0.0
H980 H 0.13611 0.62595 0.05317 0.0
H981 H 0.13244 0.68583 0.03802 0.0
H982 H 0.18287 0.73433 0.18804 0.0
H983 H 0.16423 0.71691 0.13513 0.0
loop_
_geom_bond_atom_site_label_1
_geom_bond_atom_site_label_2
_geom_bond_distance
_geom_bond_site_symmetry_2
_ccdc_geom_bond_type
Cu0 N1 1.999 1_454 S
Cu0 O6 1.974 1_454 S
Cu0 N11 1.985 . S
Cu0 O20 1.959 . S
N1 Cu0 1.999 1_656 S
N1 C3 1.263 . S
N1 C5 1.389 1_556 S
N2 C3 1.358 . S
N2 C4 1.400 . S
C3 N1 1.263 . S
C3 N2 1.358 . S
C3 H9 0.930 . S
C4 N2 1.400 . S
C4 C5 1.351 1_556 S
C4 H21 0.928 1_556 S
C5 N1 1.389 1_554 S
C5 C4 1.351 1_554 S
C5 H10 0.930 . S
O6 Cu0 1.974 1_656 S
O6 C16 1.282 . S
C7 O8 1.261 1_554 S
C7 O20 1.251 . S
O8 C7 1.261 1_556 S
H9 C3 0.930 . S
H10 C5 0.930 . S
N11 Cu0 1.985 . S
N11 C13 1.335 . S
N11 C14 1.390 . S
N12 C13 1.345 . S
N12 C15 1.336 . S
C13 N11 1.335 . S
C13 N12 1.345 . S
C13 H18 0.930 . S
C14 N11 1.390 . S
C14 C15 1.346 . S
C14 H19 0.930 1_554 S
C15 N12 1.336 . S
C15 C14 1.346 . S
C15 H22 0.929 . S
C16 O6 1.282 . S
C16 O17 1.216 1_655 S
O17 C16 1.216 1_455 S
H18 C13 0.930 . S
H19 C14 0.930 1_556 S
O20 Cu0 1.959 . S
O20 C7 1.251 . S
H21 C4 0.928 1_554 S
H22 C15 0.929 . S
Cu23 N24 1.999 . S
Cu23 O29 1.974 . S
Cu23 N34 1.985 1_565 S
Cu23 O43 1.959 1_565 S
N24 Cu23 1.999 . S
N24 C26 1.263 . S
N24 C28 1.389 . S
N25 C26 1.358 . S
N25 C27 1.400 . S
C26 N24 1.263 . S
C26 N25 1.358 . S
C26 H32 0.930 . S
C27 N25 1.400 . S
C27 C28 1.351 . S
C27 H44 0.930 . S
C28 N24 1.389 . S
C28 C27 1.351 . S
C28 H33 0.930 . S
O29 Cu23 1.974 . S
O29 C39 1.282 . S
C30 O31 1.261 . S
C30 O43 1.251 . S
O31 C30 1.261 . S
H32 C26 0.930 . S
H33 C28 0.930 . S
N34 Cu23 1.985 1_545 S
N34 C36 1.335 . S
N34 C37 1.390 . S
N35 C36 1.345 . S
N35 C38 1.336 . S
C36 N34 1.335 . S
C36 N35 1.345 . S
C36 H41 0.930 . S
C37 N34 1.390 . S
C37 C38 1.346 . S
C37 H42 0.930 . S
C38 N35 1.336 . S
C38 C37 1.346 . S
C38 H45 0.929 . S
C39 O29 1.282 . S
C39 O40 1.216 . S
O40 C39 1.216 . S
H41 C36 0.930 . S
H42 C37 0.930 . S
O43 Cu23 1.959 1_545 S
O43 C30 1.251 . S
H44 C27 0.930 . S
H45 C38 0.929 . S
Cu46 N47 1.999 1_554 S
Cu46 O52 1.974 1_554 S
Cu46 N57 1.985 . S
Cu46 O66 1.959 . S
N47 Cu46 1.999 1_556 S
N47 C49 1.263 . S
N47 C51 1.389 . S
N48 C49 1.358 . S
N48 C50 1.400 . S
C49 N47 1.263 . S
C49 N48 1.358 . S
C49 H55 0.930 . S
C50 N48 1.400 . S
C50 C51 1.351 . S
C50 H67 0.930 . S
C51 N47 1.389 . S
C51 C50 1.351 . S
C51 H56 0.930 . S
O52 Cu46 1.974 1_556 S
O52 C62 1.282 1_556 S
C53 O54 1.261 . S
C53 O66 1.251 . S
O54 C53 1.261 . S
H55 C49 0.930 . S
H56 C51 0.930 . S
N57 Cu46 1.985 . S
N57 C59 1.335 . S
N57 C60 1.390 . S
N58 C59 1.345 . S
N58 C61 1.336 . S
C59 N57 1.335 . S
C59 N58 1.345 . S
C59 H64 0.930 . S
C60 N57 1.390 . S
C60 C61 1.346 . S
C60 H65 0.930 . S
C61 N58 1.336 . S
C61 C60 1.346 . S
C61 H68 0.929 . S
C62 O52 1.282 1_554 S
C62 O63 1.216 . S
O63 C62 1.216 . S
H64 C59 0.930 . S
H65 C60 0.930 . S
O66 Cu46 1.959 . S
O66 C53 1.251 . S
H67 C50 0.930 . S
H68 C61 0.929 . S
Cu69 N70 1.999 1_655 S
Cu69 O75 1.974 1_655 S
Cu69 N80 1.985 . S
Cu69 O89 1.959 . S
N70 Cu69 1.999 1_455 S
N70 C72 1.263 . S
N70 C74 1.394 1_455 S
N71 C72 1.358 . S
N71 C73 1.400 . S
C72 N70 1.263 . S
C72 N71 1.358 . S
C72 H78 0.930 . S
C73 N71 1.400 . S
C73 C74 1.305 1_455 S
C73 H90 0.930 . S
C74 N70 1.394 1_655 S
C74 C73 1.305 1_655 S
C74 H79 0.967 . S
O75 Cu69 1.974 1_455 S
O75 C85 1.282 . S
C76 O77 1.261 . S
C76 O89 1.251 . S
O77 C76 1.261 . S
H78 C72 0.930 . S
H79 C74 0.967 . S
N80 Cu69 1.985 . S
N80 C82 1.335 . S
N80 C83 1.390 . S
N81 C82 1.345 . S
N81 C84 1.336 . S
C82 N80 1.335 . S
C82 N81 1.345 . S
C82 H87 0.930 . S
C83 N80 1.390 . S
C83 C84 1.346 . S
C83 H88 0.930 1_655 S
C84 N81 1.336 . S
C84 C83 1.346 . S
C84 H91 0.929 . S
C85 O75 1.282 . S
C85 O86 1.216 . S
O86 C85 1.216 . S
H87 C82 0.930 . S
H88 C83 0.930 1_455 S
O89 Cu69 1.959 . S
O89 C76 1.251 . S
H90 C73 0.930 . S
H91 C84 0.929 . S
Cu92 N93 1.999 . S
Cu92 O98 1.974 . S
Cu92 N103 1.985 1_545 S
Cu92 O112 1.959 1_545 S
N93 Cu92 1.999 . S
N93 C95 1.263 1_554 S
N93 C97 1.389 . S
N94 C95 1.358 . S
N94 C96 1.400 1_556 S
C95 N93 1.263 1_556 S
C95 N94 1.358 . S
C95 H101 0.930 . S
C96 N94 1.400 1_554 S
C96 C97 1.351 . S
C96 H113 0.930 . S
C97 N93 1.389 . S
C97 C96 1.351 . S
C97 H102 0.930 . S
O98 Cu92 1.974 . S
O98 C108 1.282 1_554 S
C99 O100 1.261 . S
C99 O112 1.251 . S
O100 C99 1.261 . S
H101 C95 0.930 . S
H102 C97 0.930 . S
N103 Cu92 1.985 1_565 S
N103 C105 1.335 . S
N103 C106 1.390 . S
N104 C105 1.345 . S
N104 C107 1.336 . S
C105 N103 1.335 . S
C105 N104 1.345 . S
C105 H110 0.930 . S
C106 N103 1.390 . S
C106 C107 1.346 . S
C106 H111 0.911 1_565 S
C107 N104 1.336 . S
C107 C106 1.346 . S
C107 H114 0.929 . S
C108 O98 1.282 1_556 S
C108 O109 1.216 . S
O109 C108 1.216 . S
H110 C105 0.930 . S
H111 C106 0.911 1_545 S
O112 Cu92 1.959 1_565 S
O112 C99 1.251 . S
H113 C96 0.930 . S
H114 C107 0.929 . S
Cu115 N116 1.999 . S
Cu115 O121 1.974 . S
Cu115 N126 1.985 . S
Cu115 O135 1.959 . S
N116 Cu115 1.999 . S
N116 C118 1.263 . S
N116 C120 1.389 . S
N117 C118 1.358 . S
N117 C119 1.400 . S
C118 N116 1.263 . S
C118 N117 1.358 . S
C118 H124 0.930 . S
C119 N117 1.400 . S
C119 C120 1.351 . S
C119 H136 0.930 . S
C120 N116 1.389 . S
C120 C119 1.351 . S
C120 H125 0.930 . S
O121 Cu115 1.974 . S
O121 C131 1.282 . S
C122 O123 1.261 . S
C122 O135 1.251 . S
O123 C122 1.261 . S
H124 C118 0.930 . S
H125 C120 0.930 . S
N126 Cu115 1.985 . S
N126 C128 1.335 . S
N126 C129 1.390 . S
N127 C128 1.345 . S
N127 C130 1.336 . S
C128 N126 1.335 . S
C128 N127 1.345 . S
C128 H133 0.930 . S
C129 N126 1.390 . S
C129 C130 1.346 . S
C129 H134 0.930 . S
C130 N127 1.336 . S
C130 C129 1.346 . S
C130 H137 0.929 . S
C131 O121 1.282 . S
C131 O132 1.216 . S
O132 C131 1.216 . S
H133 C128 0.930 . S
H134 C129 0.930 . S
O135 Cu115 1.959 . S
O135 C122 1.251 . S
H136 C119 0.930 . S
H137 C130 0.929 . S
H138 C146 0.930 . S
H139 C149 0.930 . S
H140 C151 0.930 . S
H141 C152 0.970 . S
H142 C152 0.970 . S
H143 C154 0.930 . S
H144 C156 0.930 . S
H145 C158 0.930 . S
C146 H138 0.930 . S
C146 C147 1.382 . S
C146 C148 1.426 . S
C147 C146 1.382 . S
C147 C151 1.389 . S
C148 C146 1.426 . S
C148 C149 1.375 . S
C148 C152 1.532 . S
C149 H139 0.930 . S
C149 C148 1.375 . S
C149 C150 1.416 . S
C150 C149 1.416 . S
C150 C151 1.371 . S
C151 H140 0.930 . S
C151 C147 1.389 . S
C151 C150 1.371 . S
C152 H141 0.970 . S
C152 H142 0.970 . S
C152 C148 1.532 . S
C152 C153 1.499 . S
C153 C152 1.499 . S
C153 C154 1.370 . S
C153 C158 1.415 . S
C154 H143 0.930 . S
C154 C153 1.370 . S
C154 C155 1.407 . S
C155 C154 1.407 . S
C155 C156 1.365 . S
C156 H144 0.930 . S
C156 C155 1.365 . S
C156 C157 1.393 . S
C157 C156 1.393 . S
C157 C158 1.387 . S
C158 H145 0.930 . S
C158 C153 1.415 . S
C158 C157 1.387 . S
H159 C167 0.930 . S
H160 C170 0.930 . S
H161 C172 0.930 . S
H162 C173 0.970 . S
H163 C173 0.970 . S
H164 C175 0.930 . S
H165 C177 0.930 . S
H166 C179 0.930 . S
C167 H159 0.930 . S
C167 C168 1.382 . S
C167 C169 1.426 . S
C168 C167 1.382 . S
C168 C172 1.389 . S
C169 C167 1.426 . S
C169 C170 1.375 . S
C169 C173 1.532 . S
C170 H160 0.930 . S
C170 C169 1.375 . S
C170 C171 1.416 . S
C171 C170 1.416 . S
C171 C172 1.371 . S
C172 H161 0.930 . S
C172 C168 1.389 . S
C172 C171 1.371 . S
C173 H162 0.970 . S
C173 H163 0.970 . S
C173 C169 1.532 . S
C173 C174 1.499 . S
C174 C173 1.499 . S
C174 C175 1.370 . S
C174 C179 1.415 . S
C175 H164 0.930 . S
C175 C174 1.370 . S
C175 C176 1.407 . S
C176 C175 1.407 . S
C176 C177 1.365 . S
C177 H165 0.930 . S
C177 C176 1.365 . S
C177 C178 1.393 . S
C178 C177 1.393 . S
C178 C179 1.387 . S
C179 H166 0.930 . S
C179 C174 1.415 . S
C179 C178 1.387 . S
H180 C188 0.930 . S
H181 C191 0.930 . S
H182 C193 0.930 . S
H183 C194 0.970 . S
H184 C194 0.970 . S
H185 C196 0.930 . S
H186 C198 0.930 . S
H187 C200 0.930 . S
C188 H180 0.930 . S
C188 C189 1.382 . S
C188 C190 1.426 . S
C189 C188 1.382 . S
C189 C193 1.389 . S
C190 C188 1.426 . S
C190 C191 1.375 . S
C190 C194 1.532 . S
C191 H181 0.930 . S
C191 C190 1.375 . S
C191 C192 1.416 . S
C192 C191 1.416 . S
C192 C193 1.371 . S
C193 H182 0.930 . S
C193 C189 1.389 . S
C193 C192 1.371 . S
C194 H183 0.970 . S
C194 H184 0.970 . S
C194 C190 1.532 . S
C194 C195 1.499 . S
C195 C194 1.499 . S
C195 C196 1.370 . S
C195 C200 1.415 . S
C196 H185 0.930 . S
C196 C195 1.370 . S
C196 C197 1.407 . S
C197 C196 1.407 . S
C197 C198 1.365 . S
C198 H186 0.930 . S
C198 C197 1.365 . S
C198 C199 1.393 . S
C199 C198 1.393 . S
C199 C200 1.387 . S
C200 H187 0.930 . S
C200 C195 1.415 . S
C200 C199 1.387 . S
H201 C209 0.930 . S
H202 C212 0.930 . S
H203 C214 0.930 . S
H204 C215 0.970 . S
H205 C215 0.970 . S
H206 C217 0.930 . S
H207 C219 0.930 . S
H208 C221 0.930 . S
C209 H201 0.930 . S
C209 C210 1.382 . S
C209 C211 1.426 . S
C210 C209 1.382 . S
C210 C214 1.389 . S
C211 C209 1.426 . S
C211 C212 1.375 . S
C211 C215 1.532 . S
C212 H202 0.930 . S
C212 C211 1.375 . S
C212 C213 1.416 . S
C213 C212 1.416 . S
C213 C214 1.371 . S
C214 H203 0.930 . S
C214 C210 1.389 . S
C214 C213 1.371 . S
C215 H204 0.970 . S
C215 H205 0.970 . S
C215 C211 1.532 . S
C215 C216 1.499 . S
C216 C215 1.499 . S
C216 C217 1.370 . S
C216 C221 1.415 . S
C217 H206 0.930 . S
C217 C216 1.370 . S
C217 C218 1.407 . S
C218 C217 1.407 . S
C218 C219 1.365 . S
C219 H207 0.930 . S
C219 C218 1.365 . S
C219 C220 1.393 . S
C220 C219 1.393 . S
C220 C221 1.387 . S
C221 H208 0.930 . S
C221 C216 1.415 . S
C221 C220 1.387 . S
H222 C230 0.930 . S
H223 C233 0.930 . S
H224 C235 0.930 . S
H225 C236 0.970 . S
H226 C236 0.970 . S
H227 C238 0.930 . S
H228 C240 0.930 . S
H229 C242 0.930 . S
C230 H222 0.930 . S
C230 C231 1.382 . S
C230 C232 1.426 . S
C231 C230 1.382 . S
C231 C235 1.389 . S
C232 C230 1.426 . S
C232 C233 1.375 . S
C232 C236 1.532 . S
C233 H223 0.930 . S
C233 C232 1.375 . S
C233 C234 1.416 . S
C234 C233 1.416 . S
C234 C235 1.371 . S
C235 H224 0.930 . S
C235 C231 1.389 . S
C235 C234 1.371 . S
C236 H225 0.970 . S
C236 H226 0.970 . S
C236 C232 1.532 . S
C236 C237 1.499 . S
C237 C236 1.499 . S
C237 C238 1.370 . S
C237 C242 1.415 . S
C238 H227 0.930 . S
C238 C237 1.370 . S
C238 C239 1.407 . S
C239 C238 1.407 . S
C239 C240 1.365 . S
C240 H228 0.930 . S
C240 C239 1.365 . S
C240 C241 1.393 . S
C241 C240 1.393 . S
C241 C242 1.387 . S
C242 H229 0.930 . S
C242 C237 1.415 . S
C242 C241 1.387 . S
H243 C251 0.930 . S
H244 C254 0.930 . S
H245 C256 0.930 . S
H246 C257 0.970 . S
H247 C257 0.970 . S
H248 C259 0.930 . S
H249 C261 0.930 . S
H250 C263 0.930 . S
C251 H243 0.930 . S
C251 C252 1.382 . S
C251 C253 1.426 . S
C252 C251 1.382 . S
C252 C256 1.389 . S
C253 C251 1.426 . S
C253 C254 1.375 . S
C253 C257 1.532 . S
C254 H244 0.930 . S
C254 C253 1.375 . S
C254 C255 1.416 . S
C255 C254 1.416 . S
C255 C256 1.371 . S
C256 H245 0.930 . S
C256 C252 1.389 . S
C256 C255 1.371 . S
C257 H246 0.970 . S
C257 H247 0.970 . S
C257 C253 1.532 . S
C257 C258 1.499 . S
C258 C257 1.499 . S
C258 C259 1.370 . S
C258 C263 1.415 . S
C259 H248 0.930 . S
C259 C258 1.370 . S
C259 C260 1.407 . S
C260 C259 1.407 . S
C260 C261 1.365 . S
C261 H249 0.930 . S
C261 C260 1.365 . S
C261 C262 1.393 . S
C262 C261 1.393 . S
C262 C263 1.387 . S
C263 H250 0.930 . S
C263 C258 1.415 . S
C263 C262 1.387 . S
C264 C265 1.349 . S
C264 C266 1.327 . S
C264 H289 0.950 . S
C265 C264 1.349 . S
C265 C281 1.349 . S
C266 C264 1.327 . S
C266 C285 1.429 . S
C266 H290 0.950 . S
C267 C284 1.574 . S
C267 C286 1.368 . S
C267 H291 0.949 . S
H268 C272 0.949 . S
C269 C270 1.349 . S
C269 C271 1.327 . S
C269 H292 0.950 . S
C270 C269 1.349 . S
C270 C282 1.349 . S
C271 C269 1.327 . S
C271 C287 1.429 . S
C271 H293 0.950 . S
C272 H268 0.949 . S
C272 C280 1.574 . S
C272 C288 1.368 . S
H273 C281 0.950 . S
H274 C279 0.950 . S
H275 C280 0.949 . S
H276 C282 0.950 . S
H277 C283 0.950 . S
H278 C284 0.949 . S
C279 H274 0.950 . S
C279 C281 1.327 . S
C279 C285 1.429 . S
C280 C272 1.574 . S
C280 H275 0.949 . S
C280 C286 1.368 . S
C281 C265 1.349 . S
C281 H273 0.950 . S
C281 C279 1.327 . S
C282 C270 1.349 . S
C282 H276 0.950 . S
C282 C283 1.327 . S
C283 H277 0.950 . S
C283 C282 1.327 . S
C283 C287 1.429 . S
C284 C267 1.574 . S
C284 H278 0.949 . S
C284 C288 1.368 . S
C285 C266 1.429 . S
C285 C279 1.429 . S
C285 C286 1.523 . S
C286 C267 1.368 . S
C286 C280 1.368 . S
C286 C285 1.523 . S
C287 C271 1.429 . S
C287 C283 1.429 . S
C287 C288 1.523 . S
C288 C272 1.368 . S
C288 C284 1.368 . S
C288 C287 1.523 . S
H289 C264 0.950 . S
H290 C266 0.950 . S
H291 C267 0.949 . S
H292 C269 0.950 . S
H293 C271 0.950 . S
C294 C295 1.349 . S
C294 C296 1.327 . S
C294 H319 0.950 . S
C295 C294 1.349 . S
C295 C311 1.349 . S
C296 C294 1.327 . S
C296 C315 1.429 . S
C296 H320 0.950 . S
C297 C314 1.574 . S
C297 C316 1.368 . S
C297 H321 0.949 . S
H298 C302 0.949 . S
C299 C300 1.349 . S
C299 C301 1.327 . S
C299 H322 0.950 . S
C300 C299 1.349 . S
C300 C312 1.349 . S
C301 C299 1.327 . S
C301 C317 1.429 . S
C301 H323 0.950 . S
C302 H298 0.949 . S
C302 C310 1.574 . S
C302 C318 1.368 . S
H303 C311 0.950 . S
H304 C309 0.950 . S
H305 C310 0.949 . S
H306 C312 0.950 . S
H307 C313 0.950 . S
H308 C314 0.949 . S
C309 H304 0.950 . S
C309 C311 1.327 . S
C309 C315 1.429 . S
C310 C302 1.574 . S
C310 H305 0.949 . S
C310 C316 1.368 . S
C311 C295 1.349 . S
C311 H303 0.950 . S
C311 C309 1.327 . S
C312 C300 1.349 . S
C312 H306 0.950 . S
C312 C313 1.327 . S
C313 H307 0.950 . S
C313 C312 1.327 . S
C313 C317 1.429 . S
C314 C297 1.574 . S
C314 H308 0.949 . S
C314 C318 1.368 . S
C315 C296 1.429 . S
C315 C309 1.429 . S
C315 C316 1.523 . S
C316 C297 1.368 . S
C316 C310 1.368 . S
C316 C315 1.523 . S
C317 C301 1.429 . S
C317 C313 1.429 . S
C317 C318 1.523 . S
C318 C302 1.368 . S
C318 C314 1.368 . S
C318 C317 1.523 . S
H319 C294 0.950 . S
H320 C296 0.950 . S
H321 C297 0.949 . S
H322 C299 0.950 . S
H323 C301 0.950 . S
C324 C325 1.349 . S
C324 C326 1.327 . S
C324 H349 0.950 . S
C325 C324 1.349 . S
C325 C341 1.349 . S
C326 C324 1.327 . S
C326 C345 1.429 . S
C326 H350 0.950 . S
C327 C344 1.574 . S
C327 C346 1.368 . S
C327 H351 0.949 . S
H328 C332 0.949 . S
C329 C330 1.349 . S
C329 C331 1.327 . S
C329 H352 0.950 . S
C330 C329 1.349 . S
C330 C342 1.349 . S
C331 C329 1.327 . S
C331 C347 1.429 . S
C331 H353 0.950 . S
C332 H328 0.949 . S
C332 C340 1.574 . S
C332 C348 1.368 . S
H333 C341 0.950 . S
H334 C339 0.950 . S
H335 C340 0.949 . S
H336 C342 0.950 . S
H337 C343 0.950 . S
H338 C344 0.949 . S
C339 H334 0.950 . S
C339 C341 1.327 . S
C339 C345 1.429 . S
C340 C332 1.574 . S
C340 H335 0.949 . S
C340 C346 1.368 . S
C341 C325 1.349 . S
C341 H333 0.950 . S
C341 C339 1.327 . S
C342 C330 1.349 . S
C342 H336 0.950 . S
C342 C343 1.327 . S
C343 H337 0.950 . S
C343 C342 1.327 . S
C343 C347 1.429 . S
C344 C327 1.574 . S
C344 H338 0.949 . S
C344 C348 1.368 . S
C345 C326 1.429 . S
C345 C339 1.429 . S
C345 C346 1.523 . S
C346 C327 1.368 . S
C346 C340 1.368 . S
C346 C345 1.523 . S
C347 C331 1.429 . S
C347 C343 1.429 . S
C347 C348 1.523 . S
C348 C332 1.368 . S
C348 C344 1.368 . S
C348 C347 1.523 . S
H349 C324 0.950 . S
H350 C326 0.950 . S
H351 C327 0.949 . S
H352 C329 0.950 . S
H353 C331 0.950 . S
C354 C355 1.349 . S
C354 C356 1.327 . S
C354 H379 0.950 . S
C355 C354 1.349 . S
C355 C371 1.349 . S
C356 C354 1.327 . S
C356 C375 1.429 . S
C356 H380 0.950 . S
C357 C374 1.574 . S
C357 C376 1.368 . S
C357 H381 0.949 . S
H358 C362 0.949 . S
C359 C360 1.349 . S
C359 C361 1.327 . S
C359 H382 0.950 . S
C360 C359 1.349 . S
C360 C372 1.349 . S
C361 C359 1.327 . S
C361 C377 1.429 . S
C361 H383 0.950 . S
C362 H358 0.949 . S
C362 C370 1.574 . S
C362 C378 1.368 . S
H363 C371 0.950 . S
H364 C369 0.950 . S
H365 C370 0.949 . S
H366 C372 0.950 . S
H367 C373 0.950 . S
H368 C374 0.949 . S
C369 H364 0.950 . S
C369 C371 1.327 . S
C369 C375 1.429 . S
C370 C362 1.574 . S
C370 H365 0.949 . S
C370 C376 1.368 . S
C371 C355 1.349 . S
C371 H363 0.950 . S
C371 C369 1.327 . S
C372 C360 1.349 . S
C372 H366 0.950 . S
C372 C373 1.327 . S
C373 H367 0.950 . S
C373 C372 1.327 . S
C373 C377 1.429 . S
C374 C357 1.574 . S
C374 H368 0.949 . S
C374 C378 1.368 . S
C375 C356 1.429 . S
C375 C369 1.429 . S
C375 C376 1.523 . S
C376 C357 1.368 . S
C376 C370 1.368 . S
C376 C375 1.523 . S
C377 C361 1.429 . S
C377 C373 1.429 . S
C377 C378 1.523 . S
C378 C362 1.368 . S
C378 C374 1.368 . S
C378 C377 1.523 . S
H379 C354 0.950 . S
H380 C356 0.950 . S
H381 C357 0.949 . S
H382 C359 0.950 . S
H383 C361 0.950 . S
C384 C385 1.349 . S
C384 C386 1.327 . S
C384 H409 0.950 . S
C385 C384 1.349 . S
C385 C401 1.349 . S
C386 C384 1.327 . S
C386 C405 1.429 . S
C386 H410 0.950 . S
C387 C404 1.574 . S
C387 C406 1.368 . S
C387 H411 0.949 . S
H388 C392 0.949 . S
C389 C390 1.349 . S
C389 C391 1.327 . S
C389 H412 0.950 . S
C390 C389 1.349 . S
C390 C402 1.349 . S
C391 C389 1.327 . S
C391 C407 1.429 . S
C391 H413 0.950 . S
C392 H388 0.949 . S
C392 C400 1.574 . S
C392 C408 1.368 . S
H393 C401 0.950 . S
H394 C399 0.950 . S
H395 C400 0.949 . S
H396 C402 0.950 . S
H397 C403 0.950 . S
H398 C404 0.949 . S
C399 H394 0.950 . S
C399 C401 1.327 . S
C399 C405 1.429 . S
C400 C392 1.574 . S
C400 H395 0.949 . S
C400 C406 1.368 . S
C401 C385 1.349 . S
C401 H393 0.950 . S
C401 C399 1.327 . S
C402 C390 1.349 . S
C402 H396 0.950 . S
C402 C403 1.327 . S
C403 H397 0.950 . S
C403 C402 1.327 . S
C403 C407 1.429 . S
C404 C387 1.574 . S
C404 H398 0.949 . S
C404 C408 1.368 . S
C405 C386 1.429 . S
C405 C399 1.429 . S
C405 C406 1.523 . S
C406 C387 1.368 . S
C406 C400 1.368 . S
C406 C405 1.523 . S
C407 C391 1.429 . S
C407 C403 1.429 . S
C407 C408 1.523 . S
C408 C392 1.368 . S
C408 C404 1.368 . S
C408 C407 1.523 . S
H409 C384 0.950 . S
H410 C386 0.950 . S
H411 C387 0.949 . S
H412 C389 0.950 . S
H413 C391 0.950 . S
C414 C415 1.349 . S
C414 C416 1.327 . S
C414 H439 0.950 . S
C415 C414 1.349 . S
C415 C431 1.349 . S
C416 C414 1.327 . S
C416 C435 1.429 . S
C416 H440 0.950 . S
C417 C434 1.574 . S
C417 C436 1.368 . S
C417 H441 0.949 . S
H418 C422 0.949 . S
C419 C420 1.349 . S
C419 C421 1.327 . S
C419 H442 0.950 . S
C420 C419 1.349 . S
C420 C432 1.349 . S
C421 C419 1.327 . S
C421 C437 1.429 . S
C421 H443 0.950 . S
C422 H418 0.949 . S
C422 C430 1.574 . S
C422 C438 1.368 . S
H423 C431 0.950 . S
H424 C429 0.950 . S
H425 C430 0.949 . S
H426 C432 0.950 . S
H427 C433 0.950 . S
H428 C434 0.949 . S
C429 H424 0.950 . S
C429 C431 1.327 . S
C429 C435 1.429 . S
C430 C422 1.574 . S
C430 H425 0.949 . S
C430 C436 1.368 . S
C431 C415 1.349 . S
C431 H423 0.950 . S
C431 C429 1.327 . S
C432 C420 1.349 . S
C432 H426 0.950 . S
C432 C433 1.327 . S
C433 H427 0.950 . S
C433 C432 1.327 . S
C433 C437 1.429 . S
C434 C417 1.574 . S
C434 H428 0.949 . S
C434 C438 1.368 . S
C435 C416 1.429 . S
C435 C429 1.429 . S
C435 C436 1.523 . S
C436 C417 1.368 . S
C436 C430 1.368 . S
C436 C435 1.523 . S
C437 C421 1.429 . S
C437 C433 1.429 . S
C437 C438 1.523 . S
C438 C422 1.368 . S
C438 C434 1.368 . S
C438 C437 1.523 . S
H439 C414 0.950 . S
H440 C416 0.950 . S
H441 C417 0.949 . S
H442 C419 0.950 . S
H443 C421 0.950 . S
C444 C445 1.349 . S
C444 C446 1.327 . S
C444 H469 0.950 . S
C445 C444 1.349 . S
C445 C461 1.349 . S
C446 C444 1.327 . S
C446 C465 1.429 . S
C446 H470 0.950 . S
C447 C464 1.574 . S
C447 C466 1.368 . S
C447 H471 0.949 . S
H448 C452 0.949 . S
C449 C450 1.349 . S
C449 C451 1.327 . S
C449 H472 0.950 . S
C450 C449 1.349 . S
C450 C462 1.349 . S
C451 C449 1.327 . S
C451 C467 1.429 . S
C451 H473 0.950 . S
C452 H448 0.949 . S
C452 C460 1.574 . S
C452 C468 1.368 . S
H453 C461 0.950 . S
H454 C459 0.950 . S
H455 C460 0.949 . S
H456 C462 0.950 . S
H457 C463 0.950 . S
H458 C464 0.949 . S
C459 H454 0.950 . S
C459 C461 1.327 . S
C459 C465 1.429 . S
C460 C452 1.574 . S
C460 H455 0.949 . S
C460 C466 1.368 . S
C461 C445 1.349 . S
C461 H453 0.950 . S
C461 C459 1.327 . S
C462 C450 1.349 . S
C462 H456 0.950 . S
C462 C463 1.327 . S
C463 H457 0.950 . S
C463 C462 1.327 . S
C463 C467 1.429 . S
C464 C447 1.574 . S
C464 H458 0.949 . S
C464 C468 1.368 . S
C465 C446 1.429 . S
C465 C459 1.429 . S
C465 C466 1.523 . S
C466 C447 1.368 . S
C466 C460 1.368 . S
C466 C465 1.523 . S
C467 C451 1.429 . S
C467 C463 1.429 . S
C467 C468 1.523 . S
C468 C452 1.368 . S
C468 C464 1.368 . S
C468 C467 1.523 . S
H469 C444 0.950 . S
H470 C446 0.950 . S
H471 C447 0.949 . S
H472 C449 0.950 . S
H473 C451 0.950 . S
C474 C475 1.349 . S
C474 C476 1.327 . S
C474 H499 0.950 . S
C475 C474 1.349 . S
C475 C491 1.349 . S
C476 C474 1.327 . S
C476 C495 1.429 . S
C476 H500 0.950 . S
C477 C494 1.574 . S
C477 C496 1.368 . S
C477 H501 0.949 . S
H478 C482 0.949 . S
C479 C480 1.349 . S
C479 C481 1.327 . S
C479 H502 0.950 . S
C480 C479 1.349 . S
C480 C492 1.349 . S
C481 C479 1.327 . S
C481 C497 1.429 . S
C481 H503 0.950 . S
C482 H478 0.949 . S
C482 C490 1.574 . S
C482 C498 1.368 . S
H483 C491 0.950 1_554 S
H484 C489 0.950 . S
H485 C490 0.949 . S
H486 C492 0.950 . S
H487 C493 0.950 . S
H488 C494 0.949 . S
C489 H484 0.950 . S
C489 C491 1.327 . S
C489 C495 1.429 . S
C490 C482 1.574 . S
C490 H485 0.949 . S
C490 C496 1.368 . S
C491 C475 1.349 . S
C491 H483 0.950 1_556 S
C491 C489 1.327 . S
C492 C480 1.349 . S
C492 H486 0.950 . S
C492 C493 1.327 . S
C493 H487 0.950 . S
C493 C492 1.327 . S
C493 C497 1.429 . S
C494 C477 1.574 . S
C494 H488 0.949 . S
C494 C498 1.368 . S
C495 C476 1.429 . S
C495 C489 1.429 . S
C495 C496 1.523 . S
C496 C477 1.368 . S
C496 C490 1.368 . S
C496 C495 1.523 . S
C497 C481 1.429 . S
C497 C493 1.429 . S
C497 C498 1.523 . S
C498 C482 1.368 . S
C498 C494 1.368 . S
C498 C497 1.523 . S
H499 C474 0.950 . S
H500 C476 0.950 . S
H501 C477 0.949 . S
H502 C479 0.950 . S
H503 C481 0.950 . S
C504 C505 1.349 . S
C504 C506 1.327 . S
C504 H529 0.950 . S
C505 C504 1.349 . S
C505 C521 1.349 . S
C506 C504 1.327 . S
C506 C525 1.429 . S
C506 H530 0.950 . S
C507 C524 1.574 . S
C507 C526 1.368 . S
C507 H531 0.949 . S
H508 C512 0.949 . S
C509 C510 1.349 . S
C509 C511 1.327 . S
C509 H532 0.950 . S
C510 C509 1.349 . S
C510 C522 1.349 . S
C511 C509 1.327 . S
C511 C527 1.429 . S
C511 H533 0.950 . S
C512 H508 0.949 . S
C512 C520 1.574 . S
C512 C528 1.368 . S
H513 C521 0.950 . S
H514 C519 0.950 . S
H515 C520 0.949 . S
H516 C522 0.950 . S
H517 C523 0.950 . S
H518 C524 0.949 . S
C519 H514 0.950 . S
C519 C521 1.327 . S
C519 C525 1.429 . S
C520 C512 1.574 . S
C520 H515 0.949 . S
C520 C526 1.368 . S
C521 C505 1.349 . S
C521 H513 0.950 . S
C521 C519 1.327 . S
C522 C510 1.349 . S
C522 H516 0.950 . S
C522 C523 1.327 . S
C523 H517 0.950 . S
C523 C522 1.327 . S
C523 C527 1.429 . S
C524 C507 1.574 . S
C524 H518 0.949 . S
C524 C528 1.368 . S
C525 C506 1.429 . S
C525 C519 1.429 . S
C525 C526 1.523 . S
C526 C507 1.368 . S
C526 C520 1.368 . S
C526 C525 1.523 . S
C527 C511 1.429 . S
C527 C523 1.429 . S
C527 C528 1.523 . S
C528 C512 1.368 . S
C528 C524 1.368 . S
C528 C527 1.523 . S
H529 C504 0.950 . S
H530 C506 0.950 . S
H531 C507 0.949 . S
H532 C509 0.950 . S
H533 C511 0.950 . S
C534 C535 1.349 . S
C534 C536 1.327 . S
C534 H559 0.950 . S
C535 C534 1.349 . S
C535 C551 1.349 . S
C536 C534 1.327 . S
C536 C555 1.429 . S
C536 H560 0.950 . S
C537 C554 1.574 . S
C537 C556 1.368 . S
C537 H561 0.949 . S
H538 C542 0.949 . S
C539 C540 1.349 . S
C539 C541 1.327 . S
C539 H562 0.950 . S
C540 C539 1.349 . S
C540 C552 1.349 . S
C541 C539 1.327 . S
C541 C557 1.429 . S
C541 H563 0.950 . S
C542 H538 0.949 . S
C542 C550 1.574 . S
C542 C558 1.368 . S
H543 C551 0.950 . S
H544 C549 0.950 . S
H545 C550 0.949 . S
H546 C552 0.950 . S
H547 C553 0.950 . S
H548 C554 0.949 . S
C549 H544 0.950 . S
C549 C551 1.327 . S
C549 C555 1.429 . S
C550 C542 1.574 . S
C550 H545 0.949 . S
C550 C556 1.368 . S
C551 C535 1.349 . S
C551 H543 0.950 . S
C551 C549 1.327 . S
C552 C540 1.349 . S
C552 H546 0.950 . S
C552 C553 1.327 . S
C553 H547 0.950 . S
C553 C552 1.327 . S
C553 C557 1.429 . S
C554 C537 1.574 . S
C554 H548 0.949 . S
C554 C558 1.368 . S
C555 C536 1.429 . S
C555 C549 1.429 . S
C555 C556 1.523 . S
C556 C537 1.368 . S
C556 C550 1.368 . S
C556 C555 1.523 . S
C557 C541 1.429 . S
C557 C553 1.429 . S
C557 C558 1.523 . S
C558 C542 1.368 . S
C558 C554 1.368 . S
C558 C557 1.523 . S
H559 C534 0.950 . S
H560 C536 0.950 . S
H561 C537 0.949 . S
H562 C539 0.950 . S
H563 C541 0.950 . S
C564 C565 1.349 . S
C564 C566 1.327 . S
C564 H589 0.950 . S
C565 C564 1.349 . S
C565 C581 1.349 . S
C566 C564 1.327 . S
C566 C585 1.429 . S
C566 H590 0.950 . S
C567 C584 1.574 . S
C567 C586 1.368 . S
C567 H591 0.949 . S
H568 C572 0.949 . S
C569 C570 1.349 . S
C569 C571 1.327 . S
C569 H592 0.950 . S
C570 C569 1.349 . S
C570 C582 1.349 . S
C571 C569 1.327 . S
C571 C587 1.429 . S
C571 H593 0.950 . S
C572 H568 0.949 . S
C572 C580 1.574 . S
C572 C588 1.368 . S
H573 C581 0.950 . S
H574 C579 0.950 . S
H575 C580 0.949 . S
H576 C582 0.950 . S
H577 C583 0.950 . S
H578 C584 0.949 . S
C579 H574 0.950 . S
C579 C581 1.327 . S
C579 C585 1.429 . S
C580 C572 1.574 . S
C580 H575 0.949 . S
C580 C586 1.368 . S
C581 C565 1.349 . S
C581 H573 0.950 . S
C581 C579 1.327 . S
C582 C570 1.349 . S
C582 H576 0.950 . S
C582 C583 1.327 . S
C583 H577 0.950 . S
C583 C582 1.327 . S
C583 C587 1.429 . S
C584 C567 1.574 . S
C584 H578 0.949 . S
C584 C588 1.368 . S
C585 C566 1.429 . S
C585 C579 1.429 . S
C585 C586 1.523 . S
C586 C567 1.368 . S
C586 C580 1.368 . S
C586 C585 1.523 . S
C587 C571 1.429 . S
C587 C583 1.429 . S
C587 C588 1.523 . S
C588 C572 1.368 . S
C588 C584 1.368 . S
C588 C587 1.523 . S
H589 C564 0.950 . S
H590 C566 0.950 . S
H591 C567 0.949 . S
H592 C569 0.950 . S
H593 C571 0.950 . S
C594 C595 1.349 . S
C594 C596 1.327 . S
C594 H619 0.950 . S
C595 C594 1.349 . S
C595 C611 1.349 . S
C596 C594 1.327 . S
C596 C615 1.429 . S
C596 H620 0.950 . S
C597 C614 1.574 . S
C597 C616 1.368 . S
C597 H621 0.949 . S
H598 C602 0.949 . S
C599 C600 1.349 . S
C599 C601 1.327 . S
C599 H622 0.950 . S
C600 C599 1.349 . S
C600 C612 1.349 . S
C601 C599 1.327 . S
C601 C617 1.429 . S
C601 H623 0.950 . S
C602 H598 0.949 . S
C602 C610 1.574 . S
C602 C618 1.368 . S
H603 C611 0.950 . S
H604 C609 0.950 . S
H605 C610 0.949 . S
H606 C612 0.950 . S
H607 C613 0.950 . S
H608 C614 0.949 . S
C609 H604 0.950 . S
C609 C611 1.327 . S
C609 C615 1.429 . S
C610 C602 1.574 . S
C610 H605 0.949 . S
C610 C616 1.368 . S
C611 C595 1.349 . S
C611 H603 0.950 . S
C611 C609 1.327 . S
C612 C600 1.349 . S
C612 H606 0.950 . S
C612 C613 1.327 . S
C613 H607 0.950 . S
C613 C612 1.327 . S
C613 C617 1.429 . S
C614 C597 1.574 . S
C614 H608 0.949 . S
C614 C618 1.368 . S
C615 C596 1.429 . S
C615 C609 1.429 . S
C615 C616 1.523 . S
C616 C597 1.368 . S
C616 C610 1.368 . S
C616 C615 1.523 . S
C617 C601 1.429 . S
C617 C613 1.429 . S
C617 C618 1.523 . S
C618 C602 1.368 . S
C618 C614 1.368 . S
C618 C617 1.523 . S
H619 C594 0.950 . S
H620 C596 0.950 . S
H621 C597 0.949 . S
H622 C599 0.950 . S
H623 C601 0.950 . S
C624 C625 1.349 . S
C624 C626 1.327 . S
C624 H649 0.950 . S
C625 C624 1.349 . S
C625 C641 1.349 . S
C626 C624 1.327 . S
C626 C645 1.429 . S
C626 H650 0.950 . S
C627 C644 1.574 . S
C627 C646 1.368 . S
C627 H651 0.949 . S
H628 C632 0.949 . S
C629 C630 1.349 . S
C629 C631 1.327 . S
C629 H652 0.950 . S
C630 C629 1.349 . S
C630 C642 1.349 . S
C631 C629 1.327 . S
C631 C647 1.429 . S
C631 H653 0.950 . S
C632 H628 0.949 . S
C632 C640 1.574 . S
C632 C648 1.368 . S
H633 C641 0.950 . S
H634 C639 0.950 . S
H635 C640 0.949 . S
H636 C642 0.950 . S
H637 C643 0.950 . S
H638 C644 0.949 . S
C639 H634 0.950 . S
C639 C641 1.327 . S
C639 C645 1.429 . S
C640 C632 1.574 . S
C640 H635 0.949 . S
C640 C646 1.368 . S
C641 C625 1.349 . S
C641 H633 0.950 . S
C641 C639 1.327 . S
C642 C630 1.349 . S
C642 H636 0.950 . S
C642 C643 1.327 . S
C643 H637 0.950 . S
C643 C642 1.327 . S
C643 C647 1.429 . S
C644 C627 1.574 . S
C644 H638 0.949 . S
C644 C648 1.368 . S
C645 C626 1.429 . S
C645 C639 1.429 . S
C645 C646 1.523 . S
C646 C627 1.368 . S
C646 C640 1.368 . S
C646 C645 1.523 . S
C647 C631 1.429 . S
C647 C643 1.429 . S
C647 C648 1.523 . S
C648 C632 1.368 . S
C648 C644 1.368 . S
C648 C647 1.523 . S
H649 C624 0.950 . S
H650 C626 0.950 . S
H651 C627 0.949 . S
H652 C629 0.950 . S
H653 C631 0.950 . S
C654 C655 1.349 . S
C654 C656 1.327 . S
C654 H679 0.950 . S
C655 C654 1.349 . S
C655 C671 1.349 . S
C656 C654 1.327 . S
C656 C675 1.429 . S
C656 H680 0.950 . S
C657 C674 1.574 . S
C657 C676 1.368 . S
C657 H681 0.949 . S
H658 C662 0.949 . S
C659 C660 1.349 . S
C659 C661 1.327 . S
C659 H682 0.950 . S
C660 C659 1.349 . S
C660 C672 1.349 . S
C661 C659 1.327 . S
C661 C677 1.429 . S
C661 H683 0.950 . S
C662 H658 0.949 . S
C662 C670 1.574 . S
C662 C678 1.368 . S
H663 C671 0.950 . S
H664 C669 0.950 . S
H665 C670 0.949 . S
H666 C672 0.950 . S
H667 C673 0.950 . S
H668 C674 0.949 . S
C669 H664 0.950 . S
C669 C671 1.327 . S
C669 C675 1.429 . S
C670 C662 1.574 . S
C670 H665 0.949 . S
C670 C676 1.368 . S
C671 C655 1.349 . S
C671 H663 0.950 . S
C671 C669 1.327 . S
C672 C660 1.349 . S
C672 H666 0.950 . S
C672 C673 1.327 . S
C673 H667 0.950 . S
C673 C672 1.327 . S
C673 C677 1.429 . S
C674 C657 1.574 . S
C674 H668 0.949 . S
C674 C678 1.368 . S
C675 C656 1.429 . S
C675 C669 1.429 . S
C675 C676 1.523 . S
C676 C657 1.368 . S
C676 C670 1.368 . S
C676 C675 1.523 . S
C677 C661 1.429 . S
C677 C673 1.429 . S
C677 C678 1.523 . S
C678 C662 1.368 . S
C678 C674 1.368 . S
C678 C677 1.523 . S
H679 C654 0.950 . S
H680 C656 0.950 . S
H681 C657 0.949 . S
H682 C659 0.950 . S
H683 C661 0.950 . S
C684 C685 1.349 . S
C684 C686 1.327 . S
C684 H709 0.950 . S
C685 C684 1.349 . S
C685 C701 1.349 . S
C686 C684 1.327 . S
C686 C705 1.429 . S
C686 H710 0.950 . S
C687 C704 1.574 . S
C687 C706 1.368 . S
C687 H711 0.949 . S
H688 C692 0.949 . S
C689 C690 1.349 . S
C689 C691 1.327 . S
C689 H712 0.950 . S
C690 C689 1.349 . S
C690 C702 1.349 . S
C691 C689 1.327 . S
C691 C707 1.429 . S
C691 H713 0.950 . S
C692 H688 0.949 . S
C692 C700 1.574 . S
C692 C708 1.368 . S
H693 C701 0.950 . S
H694 C699 0.950 . S
H695 C700 0.949 . S
H696 C702 0.950 . S
H697 C703 0.950 . S
H698 C704 0.949 . S
C699 H694 0.950 . S
C699 C701 1.327 . S
C699 C705 1.429 . S
C700 C692 1.574 . S
C700 H695 0.949 . S
C700 C706 1.368 . S
C701 C685 1.349 . S
C701 H693 0.950 . S
C701 C699 1.327 . S
C702 C690 1.349 . S
C702 H696 0.950 . S
C702 C703 1.327 . S
C703 H697 0.950 . S
C703 C702 1.327 . S
C703 C707 1.429 . S
C704 C687 1.574 . S
C704 H698 0.949 . S
C704 C708 1.368 . S
C705 C686 1.429 . S
C705 C699 1.429 . S
C705 C706 1.523 . S
C706 C687 1.368 . S
C706 C700 1.368 . S
C706 C705 1.523 . S
C707 C691 1.429 . S
C707 C703 1.429 . S
C707 C708 1.523 . S
C708 C692 1.368 . S
C708 C704 1.368 . S
C708 C707 1.523 . S
H709 C684 0.950 . S
H710 C686 0.950 . S
H711 C687 0.949 . S
H712 C689 0.950 . S
H713 C691 0.950 . S
C714 C715 1.349 . S
C714 C716 1.327 . S
C714 H739 0.950 . S
C715 C714 1.349 . S
C715 C731 1.349 . S
C716 C714 1.327 . S
C716 C735 1.429 . S
C716 H740 0.950 . S
C717 C734 1.574 . S
C717 C736 1.368 . S
C717 H741 0.949 . S
H718 C722 0.949 . S
C719 C720 1.349 . S
C719 C721 1.327 . S
C719 H742 0.950 . S
C720 C719 1.349 . S
C720 C732 1.349 . S
C721 C719 1.327 . S
C721 C737 1.429 . S
C721 H743 0.950 . S
C722 H718 0.949 . S
C722 C730 1.574 . S
C722 C738 1.368 . S
H723 C731 0.950 . S
H724 C729 0.950 . S
H725 C730 0.949 . S
H726 C732 0.950 . S
H727 C733 0.950 . S
H728 C734 0.949 . S
C729 H724 0.950 . S
C729 C731 1.327 . S
C729 C735 1.429 . S
C730 C722 1.574 . S
C730 H725 0.949 . S
C730 C736 1.368 . S
C731 C715 1.349 . S
C731 H723 0.950 . S
C731 C729 1.327 . S
C732 C720 1.349 . S
C732 H726 0.950 . S
C732 C733 1.327 . S
C733 H727 0.950 . S
C733 C732 1.327 . S
C733 C737 1.429 . S
C734 C717 1.574 . S
C734 H728 0.949 . S
C734 C738 1.368 . S
C735 C716 1.429 . S
C735 C729 1.429 . S
C735 C736 1.523 . S
C736 C717 1.368 . S
C736 C730 1.368 . S
C736 C735 1.523 . S
C737 C721 1.429 . S
C737 C733 1.429 . S
C737 C738 1.523 . S
C738 C722 1.368 . S
C738 C734 1.368 . S
C738 C737 1.523 . S
H739 C714 0.950 . S
H740 C716 0.950 . S
H741 C717 0.949 . S
H742 C719 0.950 . S
H743 C721 0.950 . S
C744 C745 1.349 . S
C744 C746 1.327 . S
C744 H769 0.950 . S
C745 C744 1.349 . S
C745 C761 1.349 . S
C746 C744 1.327 . S
C746 C765 1.429 . S
C746 H770 0.950 . S
C747 C764 1.574 . S
C747 C766 1.368 . S
C747 H771 0.949 . S
H748 C752 0.949 . S
C749 C750 1.349 . S
C749 C751 1.327 . S
C749 H772 0.950 . S
C750 C749 1.349 . S
C750 C762 1.349 . S
C751 C749 1.327 . S
C751 C767 1.429 . S
C751 H773 0.950 . S
C752 H748 0.949 . S
C752 C760 1.574 . S
C752 C768 1.368 . S
H753 C761 0.950 . S
H754 C759 0.950 . S
H755 C760 0.949 . S
H756 C762 0.950 . S
H757 C763 0.950 . S
H758 C764 0.949 . S
C759 H754 0.950 . S
C759 C761 1.327 . S
C759 C765 1.429 . S
C760 C752 1.574 . S
C760 H755 0.949 . S
C760 C766 1.368 . S
C761 C745 1.349 . S
C761 H753 0.950 . S
C761 C759 1.327 . S
C762 C750 1.349 . S
C762 H756 0.950 . S
C762 C763 1.327 . S
C763 H757 0.950 . S
C763 C762 1.327 . S
C763 C767 1.429 . S
C764 C747 1.574 . S
C764 H758 0.949 . S
C764 C768 1.368 . S
C765 C746 1.429 . S
C765 C759 1.429 . S
C765 C766 1.523 . S
C766 C747 1.368 . S
C766 C760 1.368 . S
C766 C765 1.523 . S
C767 C751 1.429 . S
C767 C763 1.429 . S
C767 C768 1.523 . S
C768 C752 1.368 . S
C768 C764 1.368 . S
C768 C767 1.523 . S
H769 C744 0.950 . S
H770 C746 0.950 . S
H771 C747 0.949 . S
H772 C749 0.950 . S
H773 C751 0.950 . S
C774 C775 1.349 . S
C774 C776 1.327 . S
C774 H799 0.950 . S
C775 C774 1.349 . S
C775 C791 1.349 . S
C776 C774 1.327 . S
C776 C795 1.429 . S
C776 H800 0.950 . S
C777 C794 1.574 . S
C777 C796 1.368 . S
C777 H801 0.949 . S
H778 C782 0.949 . S
C779 C780 1.349 . S
C779 C781 1.327 . S
C779 H802 0.950 . S
C780 C779 1.349 . S
C780 C792 1.349 . S
C781 C779 1.327 . S
C781 C797 1.429 . S
C781 H803 0.950 . S
C782 H778 0.949 . S
C782 C790 1.574 . S
C782 C798 1.368 . S
H783 C791 0.950 . S
H784 C789 0.950 . S
H785 C790 0.949 . S
H786 C792 0.950 . S
H787 C793 0.950 . S
H788 C794 0.949 . S
C789 H784 0.950 . S
C789 C791 1.327 . S
C789 C795 1.429 . S
C790 C782 1.574 . S
C790 H785 0.949 . S
C790 C796 1.368 . S
C791 C775 1.349 . S
C791 H783 0.950 . S
C791 C789 1.327 . S
C792 C780 1.349 . S
C792 H786 0.950 . S
C792 C793 1.327 . S
C793 H787 0.950 . S
C793 C792 1.327 . S
C793 C797 1.429 . S
C794 C777 1.574 . S
C794 H788 0.949 . S
C794 C798 1.368 . S
C795 C776 1.429 . S
C795 C789 1.429 . S
C795 C796 1.523 . S
C796 C777 1.368 . S
C796 C790 1.368 . S
C796 C795 1.523 . S
C797 C781 1.429 . S
C797 C793 1.429 . S
C797 C798 1.523 . S
C798 C782 1.368 . S
C798 C794 1.368 . S
C798 C797 1.523 . S
H799 C774 0.950 . S
H800 C776 0.950 . S
H801 C777 0.949 . S
H802 C779 0.950 . S
H803 C781 0.950 . S
C804 C805 1.349 . S
C804 C806 1.327 . S
C804 H829 0.950 . S
C805 C804 1.349 . S
C805 C821 1.349 . S
C806 C804 1.327 . S
C806 C825 1.429 . S
C806 H830 0.950 . S
C807 C824 1.574 . S
C807 C826 1.368 . S
C807 H831 0.949 . S
H808 C812 0.949 . S
C809 C810 1.349 . S
C809 C811 1.327 . S
C809 H832 0.950 . S
C810 C809 1.349 . S
C810 C822 1.349 . S
C811 C809 1.327 . S
C811 C827 1.429 . S
C811 H833 0.950 . S
C812 H808 0.949 . S
C812 C820 1.574 . S
C812 C828 1.368 . S
H813 C821 0.950 . S
H814 C819 0.950 . S
H815 C820 0.949 . S
H816 C822 0.950 . S
H817 C823 0.950 . S
H818 C824 0.949 . S
C819 H814 0.950 . S
C819 C821 1.327 . S
C819 C825 1.429 . S
C820 C812 1.574 . S
C820 H815 0.949 . S
C820 C826 1.368 . S
C821 C805 1.349 . S
C821 H813 0.950 . S
C821 C819 1.327 . S
C822 C810 1.349 . S
C822 H816 0.950 . S
C822 C823 1.327 . S
C823 H817 0.950 . S
C823 C822 1.327 . S
C823 C827 1.429 . S
C824 C807 1.574 . S
C824 H818 0.949 . S
C824 C828 1.368 . S
C825 C806 1.429 . S
C825 C819 1.429 . S
C825 C826 1.523 . S
C826 C807 1.368 . S
C826 C820 1.368 . S
C826 C825 1.523 . S
C827 C811 1.429 . S
C827 C823 1.429 . S
C827 C828 1.523 . S
C828 C812 1.368 . S
C828 C824 1.368 . S
C828 C827 1.523 . S
H829 C804 0.950 . S
H830 C806 0.950 . S
H831 C807 0.949 . S
H832 C809 0.950 . S
H833 C811 0.950 . S
C834 C835 1.349 . S
C834 C836 1.327 . S
C834 H859 0.950 . S
C835 C834 1.349 . S
C835 C851 1.349 . S
C836 C834 1.327 . S
C836 C855 1.429 . S
C836 H860 0.950 . S
C837 C854 1.574 . S
C837 C856 1.368 . S
C837 H861 0.949 . S
H838 C842 0.949 . S
C839 C840 1.349 . S
C839 C841 1.327 . S
C839 H862 0.950 . S
C840 C839 1.349 . S
C840 C852 1.349 . S
C841 C839 1.327 . S
C841 C857 1.429 . S
C841 H863 0.950 . S
C842 H838 0.949 . S
C842 C850 1.574 . S
C842 C858 1.368 . S
H843 C851 0.950 . S
H844 C849 0.950 . S
H845 C850 0.949 . S
H846 C852 0.950 . S
H847 C853 0.950 . S
H848 C854 0.949 . S
C849 H844 0.950 . S
C849 C851 1.327 . S
C849 C855 1.429 . S
C850 C842 1.574 . S
C850 H845 0.949 . S
C850 C856 1.368 . S
C851 C835 1.349 . S
C851 H843 0.950 . S
C851 C849 1.327 . S
C852 C840 1.349 . S
C852 H846 0.950 . S
C852 C853 1.327 . S
C853 H847 0.950 . S
C853 C852 1.327 . S
C853 C857 1.429 . S
C854 C837 1.574 . S
C854 H848 0.949 . S
C854 C858 1.368 . S
C855 C836 1.429 . S
C855 C849 1.429 . S
C855 C856 1.523 . S
C856 C837 1.368 . S
C856 C850 1.368 . S
C856 C855 1.523 . S
C857 C841 1.429 . S
C857 C853 1.429 . S
C857 C858 1.523 . S
C858 C842 1.368 . S
C858 C854 1.368 . S
C858 C857 1.523 . S
H859 C834 0.950 . S
H860 C836 0.950 . S
H861 C837 0.949 . S
H862 C839 0.950 . S
H863 C841 0.950 . S
C864 C865 1.349 . S
C864 C866 1.327 . S
C864 H889 0.950 . S
C865 C864 1.349 . S
C865 C881 1.349 . S
C866 C864 1.327 . S
C866 C885 1.429 . S
C866 H890 0.950 . S
C867 C884 1.574 . S
C867 C886 1.368 . S
C867 H891 0.949 . S
H868 C872 0.949 . S
C869 C870 1.349 . S
C869 C871 1.327 . S
C869 H892 0.950 . S
C870 C869 1.349 . S
C870 C882 1.349 . S
C871 C869 1.327 . S
C871 C887 1.429 . S
C871 H893 0.950 . S
C872 H868 0.949 . S
C872 C880 1.574 . S
C872 C888 1.368 . S
H873 C881 0.950 . S
H874 C879 0.950 . S
H875 C880 0.949 . S
H876 C882 0.950 . S
H877 C883 0.950 . S
H878 C884 0.949 . S
C879 H874 0.950 . S
C879 C881 1.327 . S
C879 C885 1.429 . S
C880 C872 1.574 . S
C880 H875 0.949 . S
C880 C886 1.368 . S
C881 C865 1.349 . S
C881 H873 0.950 . S
C881 C879 1.327 . S
C882 C870 1.349 . S
C882 H876 0.950 . S
C882 C883 1.327 . S
C883 H877 0.950 . S
C883 C882 1.327 . S
C883 C887 1.429 . S
C884 C867 1.574 . S
C884 H878 0.949 . S
C884 C888 1.368 . S
C885 C866 1.429 . S
C885 C879 1.429 . S
C885 C886 1.523 . S
C886 C867 1.368 . S
C886 C880 1.368 . S
C886 C885 1.523 . S
C887 C871 1.429 . S
C887 C883 1.429 . S
C887 C888 1.523 . S
C888 C872 1.368 . S
C888 C884 1.368 . S
C888 C887 1.523 . S
H889 C864 0.950 . S
H890 C866 0.950 . S
H891 C867 0.949 . S
H892 C869 0.950 . S
H893 C871 0.950 . S
C894 C895 1.349 . S
C894 C896 1.327 . S
C894 H919 0.950 . S
C895 C894 1.349 . S
C895 C911 1.349 . S
C896 C894 1.327 . S
C896 C915 1.429 . S
C896 H920 0.950 . S
C897 C914 1.574 . S
C897 C916 1.368 . S
C897 H921 0.949 . S
H898 C902 0.949 . S
C899 C900 1.349 . S
C899 C901 1.327 . S
C899 H922 0.950 . S
C900 C899 1.349 . S
C900 C912 1.349 . S
C901 C899 1.327 . S
C901 C917 1.429 . S
C901 H923 0.950 . S
C902 H898 0.949 . S
C902 C910 1.574 . S
C902 C918 1.368 . S
H903 C911 0.950 . S
H904 C909 0.950 . S
H905 C910 0.949 . S
H906 C912 0.950 . S
H907 C913 0.950 . S
H908 C914 0.949 . S
C909 H904 0.950 . S
C909 C911 1.327 . S
C909 C915 1.429 . S
C910 C902 1.574 . S
C910 H905 0.949 . S
C910 C916 1.368 . S
C911 C895 1.349 . S
C911 H903 0.950 . S
C911 C909 1.327 . S
C912 C900 1.349 . S
C912 H906 0.950 . S
C912 C913 1.327 . S
C913 H907 0.950 . S
C913 C912 1.327 . S
C913 C917 1.429 . S
C914 C897 1.574 . S
C914 H908 0.949 . S
C914 C918 1.368 . S
C915 C896 1.429 . S
C915 C909 1.429 . S
C915 C916 1.523 . S
C916 C897 1.368 . S
C916 C910 1.368 . S
C916 C915 1.523 . S
C917 C901 1.429 . S
C917 C913 1.429 . S
C917 C918 1.523 . S
C918 C902 1.368 . S
C918 C914 1.368 . S
C918 C917 1.523 . S
H919 C894 0.950 . S
H920 C896 0.950 . S
H921 C897 0.949 . S
H922 C899 0.950 . S
H923 C901 0.950 . S
C924 C925 1.349 . S
C924 C926 1.327 . S
C924 H949 0.950 . S
C925 C924 1.349 . S
C925 C941 1.349 . S
C926 C924 1.327 . S
C926 C945 1.429 . S
C926 H950 0.950 . S
C927 C944 1.574 . S
C927 C946 1.368 . S
C927 H951 0.949 . S
H928 C932 0.949 . S
C929 C930 1.349 . S
C929 C931 1.327 . S
C929 H952 0.950 . S
C930 C929 1.349 . S
C930 C942 1.349 . S
C931 C929 1.327 . S
C931 C947 1.429 . S
C931 H953 0.950 . S
C932 H928 0.949 . S
C932 C940 1.574 . S
C932 C948 1.368 . S
H933 C941 0.950 . S
H934 C939 0.950 . S
H935 C940 0.949 . S
H936 C942 0.950 . S
H937 C943 0.950 . S
H938 C944 0.949 . S
C939 H934 0.950 . S
C939 C941 1.327 . S
C939 C945 1.429 . S
C940 C932 1.574 . S
C940 H935 0.949 . S
C940 C946 1.368 . S
C941 C925 1.349 . S
C941 H933 0.950 . S
C941 C939 1.327 . S
C942 C930 1.349 . S
C942 H936 0.950 . S
C942 C943 1.327 . S
C943 H937 0.950 . S
C943 C942 1.327 . S
C943 C947 1.429 . S
C944 C927 1.574 . S
C944 H938 0.949 . S
C944 C948 1.368 . S
C945 C926 1.429 . S
C945 C939 1.429 . S
C945 C946 1.523 . S
C946 C927 1.368 . S
C946 C940 1.368 . S
C946 C945 1.523 . S
C947 C931 1.429 . S
C947 C943 1.429 . S
C947 C948 1.523 . S
C948 C932 1.368 . S
C948 C944 1.368 . S
C948 C947 1.523 . S
H949 C924 0.950 . S
H950 C926 0.950 . S
H951 C927 0.949 . S
H952 C929 0.950 . S
H953 C931 0.950 . S
C954 C955 1.349 . S
C954 C956 1.327 . S
C954 H979 0.950 . S
C955 C954 1.349 . S
C955 C971 1.349 . S
C956 C954 1.327 . S
C956 C975 1.429 . S
C956 H980 0.950 . S
C957 C974 1.574 . S
C957 C976 1.368 . S
C957 H981 0.949 . S
H958 C962 0.949 . S
C959 C960 1.349 . S
C959 C961 1.327 . S
C959 H982 0.950 . S
C960 C959 1.349 . S
C960 C972 1.349 . S
C961 C959 1.327 . S
C961 C977 1.429 . S
C961 H983 0.950 . S
C962 H958 0.949 . S
C962 C970 1.574 . S
C962 C978 1.368 . S
H963 C971 0.950 . S
H964 C969 0.950 . S
H965 C970 0.949 . S
H966 C972 0.950 . S
H967 C973 0.950 . S
H968 C974 0.949 . S
C969 H964 0.950 . S
C969 C971 1.327 . S
C969 C975 1.429 . S
C970 C962 1.574 . S
C970 H965 0.949 . S
C970 C976 1.368 . S
C971 C955 1.349 . S
C971 H963 0.950 . S
C971 C969 1.327 . S
C972 C960 1.349 . S
C972 H966 0.950 . S
C972 C973 1.327 . S
C973 H967 0.950 . S
C973 C972 1.327 . S
C973 C977 1.429 . S
C974 C957 1.574 . S
C974 H968 0.949 . S
C974 C978 1.368 . S
C975 C956 1.429 . S
C975 C969 1.429 . S
C975 C976 1.523 . S
C976 C957 1.368 . S
C976 C970 1.368 . S
C976 C975 1.523 . S
C977 C961 1.429 . S
C977 C973 1.429 . S
C977 C978 1.523 . S
C978 C962 1.368 . S
C978 C974 1.368 . S
C978 C977 1.523 . S
H979 C954 0.950 . S
H980 C956 0.950 . S
H981 C957 0.949 . S
H982 C959 0.950 . S
H983 C961 0.950 . S
C265 C7 1.747 . S
C270 C147 1.601 . S
C295 C30 1.543 . S
C300 C168 1.416 . S
C330 C189 1.502 . S
C325 N58 1.603 . S
C360 C218 1.374 . S
C355 N81 1.394 . S
C390 C231 1.516 . S
C385 C99 1.631 . S
C420 C255 1.385 . S
C415 N127 1.419 . S
C445 N25 1.587 . S
C450 C199 1.504 . S
C475 C62 1.534 1_556 S
C480 C213 1.460 . S
C510 C241 1.575 . S
C505 C85 1.691 . S
C540 C260 1.402 . S
C535 N94 1.437 . S
C565 C131 1.663 . S
C570 C157 1.563 . S
C600 C178 1.332 . S
C595 N2 1.389 . S
C630 C220 1.642 . S
C625 C16 1.728 . S
C655 C39 1.542 . S
C660 C234 1.383 . S
C690 C252 1.582 . S
C685 N48 1.625 . S
C715 N71 1.425 . S
C720 C150 1.311 . S
C745 C108 1.674 . S
C750 C171 1.518 . S
C775 N117 1.448 . S
C780 C192 1.316 . S
C805 N35 1.614 . S
C810 C262 1.578 . S
C840 C155 1.421 . S
C835 C53 1.579 . S
C865 C76 1.765 . S
C870 C176 1.589 . S
C895 N104 1.455 . S
C900 C197 1.333 . S
C925 C122 1.659 . S
C930 C210 1.588 . S
C955 N12 1.399 . S
C960 C239 1.303 . S
