# Generated by pormake.
# Topology anh, (6,3)-cn, num edge types: 1
# Building blocks:
#     Node 0, Type 0, BuildingBlock: BETFAJ_clean_sbu_0, # of connection points: 6
#     Node 1, Type 0, BuildingBlock: BETFAJ_clean_sbu_0, # of connection points: 6
#     Node 2, Type 0, BuildingBlock: BETFAJ_clean_sbu_0, # of connection points: 6
#     Node 3, Type 1, BuildingBlock: ESEHIV_clean_linker_0, # of connection points: 3
#     Node 4, Type 1, BuildingBlock: ESEHIV_clean_linker_0, # of connection points: 3
#     Node 5, Type 1, BuildingBlock: ESEHIV_clean_linker_0, # of connection points: 3
#     Node 6, Type 1, BuildingBlock: ESEHIV_clean_linker_0, # of connection points: 3
#     Node 7, Type 1, BuildingBlock: ESEHIV_clean_linker_0, # of connection points: 3
#     Node 8, Type 1, BuildingBlock: ESEHIV_clean_linker_0, # of connection points: 3
#     Edge 9, Type (0, 1), BuildingBlock: UVAHIK_clean_linker_0, # of connection points: 2
#     Edge 10, Type (0, 1), BuildingBlock: UVAHIK_clean_linker_0, # of connection points: 2
#     Edge 11, Type (0, 1), BuildingBlock: UVAHIK_clean_linker_0, # of connection points: 2
#     Edge 12, Type (0, 1), BuildingBlock: UVAHIK_clean_linker_0, # of connection points: 2
#     Edge 13, Type (0, 1), BuildingBlock: UVAHIK_clean_linker_0, # of connection points: 2
#     Edge 14, Type (0, 1), BuildingBlock: UVAHIK_clean_linker_0, # of connection points: 2
#     Edge 15, Type (0, 1), BuildingBlock: UVAHIK_clean_linker_0, # of connection points: 2
#     Edge 16, Type (0, 1), BuildingBlock: UVAHIK_clean_linker_0, # of connection points: 2
#     Edge 17, Type (0, 1), BuildingBlock: UVAHIK_clean_linker_0, # of connection points: 2
#     Edge 18, Type (0, 1), BuildingBlock: UVAHIK_clean_linker_0, # of connection points: 2
#     Edge 19, Type (0, 1), BuildingBlock: UVAHIK_clean_linker_0, # of connection points: 2
#     Edge 20, Type (0, 1), BuildingBlock: UVAHIK_clean_linker_0, # of connection points: 2
#     Edge 21, Type (0, 1), BuildingBlock: UVAHIK_clean_linker_0, # of connection points: 2
#     Edge 22, Type (0, 1), BuildingBlock: UVAHIK_clean_linker_0, # of connection points: 2
#     Edge 23, Type (0, 1), BuildingBlock: UVAHIK_clean_linker_0, # of connection points: 2
#     Edge 24, Type (0, 1), BuildingBlock: UVAHIK_clean_linker_0, # of connection points: 2
#     Edge 25, Type (0, 1), BuildingBlock: UVAHIK_clean_linker_0, # of connection points: 2
#     Edge 26, Type (0, 1), BuildingBlock: UVAHIK_clean_linker_0, # of connection points: 2
# Relax obj value: 0.182
# Max RMSD: 0.208
# Mean RMSD: 0.156
data_MOF--net-anh--node1-BETFAJ_clean_sbu_0--node2-ESEHIV_clean_linker_0--edge1-UVAHIK_clean_linker_0
_symmetry_space_group_name_H-M    P1
_symmetry_Int_Tables_number       1
_symmetry_cell_setting            triclinic
loop_
_symmetry_equiv_pos_as_xyz
'x, y, z'
_cell_length_a     37.011429
_cell_length_b     44.183349
_cell_length_c     67.806717
_cell_angle_alpha  92.65209
_cell_angle_beta   88.543886
_cell_angle_gamma 128.01041
loop_
_atom_site_label
_atom_site_type_symbol
_atom_site_fract_x
_atom_site_fract_y
_atom_site_fract_z
_atom_type_partial_charge
Sm0 Sm 0.10735 0.50463 0.14313 0.0
Sm1 Sm 1.0523 0.53217 0.15456 0.0
C2 C 0.16825 0.49627 0.12947 0.0
C3 C 0.21863 0.52095 0.13101 0.0
C4 C 0.24682 0.55827 0.12373 0.0
C5 C 0.29426 0.5821 0.12691 0.0
C6 C 0.31392 0.5692 0.13775 0.0
C7 C 0.2857 0.53197 0.14498 0.0
C8 C 0.2386 0.50801 0.14152 0.0
C9 C 0.0846 0.49858 0.1823 0.0
C10 C 0.16285 0.59774 0.15146 0.0
C11 C 1.00584 0.55198 0.17307 0.0
C12 C 0.95608 0.53017 0.17618 0.0
C13 C 0.93791 0.51868 0.19524 0.0
C14 C 0.89056 0.49204 0.19803 0.0
C15 C 0.86052 0.47656 0.18178 0.0
C16 C 0.87869 0.48984 0.16287 0.0
C17 C 0.92592 0.51617 0.16007 0.0
C18 C 1.04977 0.51482 0.11483 0.0
C19 C 0.99893 0.44065 0.14635 0.0
O20 O 0.15027 0.50758 0.11851 0.0
O21 O 0.14663 0.48253 0.14611 0.0
O22 O 0.09874 0.52693 0.172 0.0
O23 O 0.0824 0.47199 0.17204 0.0
O24 O 0.16561 0.56935 0.14902 0.0
O25 O 0.123 0.59127 0.1531 0.0
O26 O 1.02385 0.53855 0.18209 0.0
O27 O 1.02135 0.56224 0.15504 0.0
O28 O 0.08456 0.53238 0.12585 0.0
O29 O 1.01429 0.50679 0.12454 0.0
O30 O 1.00115 0.46673 0.15784 0.0
O31 O 1.03444 0.44998 0.13551 0.0
H32 H 0.2323 0.56923 0.11578 0.0
H33 H 0.31553 0.61062 0.12106 0.0
H34 H 0.30024 0.52107 0.15299 0.0
H35 H 0.21759 0.47944 0.14733 0.0
H36 H 0.9605 0.52895 0.2079 0.0
H37 H 0.87768 0.48247 0.21277 0.0
H38 H 0.85641 0.47938 0.1501 0.0
H39 H 0.93871 0.5244 0.14518 0.0
Sm40 Sm 0.60414 0.00546 0.47457 0.0
Sm41 Sm 0.54215 0.02556 0.46591 0.0
C42 C 0.64223 0.97647 0.4892 0.0
C43 C 0.63073 0.93865 0.49274 0.0
C44 C 0.6306 0.92889 0.51216 0.0
C45 C 0.6212 0.89386 0.51593 0.0
C46 C 0.61206 0.8679 0.50033 0.0
C47 C 0.61199 0.87758 0.48087 0.0
C48 C 0.62109 0.91256 0.47711 0.0
C49 C 0.5993 0.01524 0.43532 0.0
C50 C 0.49342 0.93614 0.46637 0.0
C51 C 0.50481 0.05699 0.45406 0.0
C52 C 0.51378 0.09362 0.45963 0.0
C53 C 0.49708 0.10805 0.44805 0.0
C54 C 0.50605 0.1431 0.45344 0.0
C55 C 0.53187 0.16425 0.47053 0.0
C56 C 0.5486 0.1495 0.48202 0.0
C57 C 0.53984 0.11468 0.47656 0.0
C58 C 0.55001 0.01793 0.50526 0.0
C59 C 0.65407 0.09533 0.47169 0.0
O60 O 0.62103 0.98632 0.50009 0.0
O61 O 0.6474 0.98661 0.47089 0.0
O62 O 0.56549 0.99761 0.44687 0.0
O63 O 0.63688 0.02685 0.44409 0.0
O64 O 0.53073 0.94698 0.47587 0.0
O65 O 0.49194 0.9615 0.45776 0.0
O66 O 0.53781 0.0598 0.44446 0.0
O67 O 0.48722 0.03193 0.46792 0.0
O68 O 0.58249 0.03509 0.49315 0.0
O69 O 0.51157 0.00505 0.49698 0.0
O70 O 0.6146 0.08398 0.46432 0.0
O71 O 0.65832 0.07064 0.47919 0.0
H72 H 0.63824 0.9486 0.52445 0.0
H73 H 0.62213 0.88749 0.53106 0.0
H74 H 0.60467 0.85801 0.46857 0.0
H75 H 0.62081 0.91919 0.46196 0.0
H76 H 0.47722 0.09227 0.43483 0.0
H77 H 0.49317 0.1538 0.4441 0.0
H78 H 0.56791 0.16453 0.49544 0.0
H79 H 0.55321 0.10403 0.48565 0.0
Sm80 Sm 0.61755 0.55881 0.83353 0.0
Sm81 Sm 0.55477 0.47302 0.83976 0.0
C82 C 0.65766 0.62879 0.82094 0.0
C83 C 0.64617 0.65483 0.81743 0.0
C84 C 0.63636 0.65844 0.7982 0.0
C85 C 0.62646 0.68349 0.79456 0.0
C86 C 0.62649 0.70578 0.81004 0.0
C87 C 0.63656 0.70237 0.82929 0.0
C88 C 0.64631 0.67717 0.83295 0.0
C89 C 0.60697 0.53852 0.87204 0.0
C90 C 0.50523 0.51302 0.83932 0.0
C91 C 0.51635 0.40263 0.85106 0.0
C92 C 0.52347 0.37416 0.84535 0.0
C93 C 0.51344 0.34655 0.85861 0.0
C94 C 0.52128 0.32004 0.85332 0.0
C95 C 0.53924 0.32071 0.83463 0.0
C96 C 0.54926 0.34861 0.82143 0.0
C97 C 0.54173 0.3752 0.82678 0.0
C98 C 0.56646 0.49181 0.80083 0.0
C99 C 0.66829 0.52006 0.83639 0.0
O100 O 0.63867 0.5983 0.80912 0.0
O101 O 0.65988 0.62193 0.83927 0.0
O102 O 0.5755 0.5232 0.85936 0.0
O103 O 0.64589 0.56727 0.86494 0.0
O104 O 0.54417 0.5424 0.8315 0.0
O105 O 0.50243 0.48431 0.84655 0.0
O106 O 0.55027 0.43348 0.86067 0.0
O107 O 0.49883 0.41022 0.83744 0.0
O108 O 0.59773 0.50839 0.81371 0.0
O109 O 0.52818 0.46268 0.80802 0.0
O110 O 0.62784 0.48933 0.84228 0.0
O111 O 0.67282 0.55004 0.82991 0.0
H112 H 0.63668 0.64209 0.78588 0.0
H113 H 0.61968 0.68596 0.77951 0.0
H114 H 0.6366 0.71901 0.84155 0.0
H115 H 0.6541 0.67534 0.84794 0.0
H116 H 0.49982 0.34566 0.8731 0.0
H117 H 0.5138 0.29935 0.86397 0.0
H118 H 0.56243 0.34968 0.80682 0.0
H119 H 0.5501 0.39656 0.81638 0.0
H120 H 0.53303 0.96054 0.22038 0.0
H121 H 0.63895 0.08287 0.2221 0.0
H122 H 0.58629 0.0205 0.16616 0.0
C123 C 0.55624 0.9872 0.21281 0.0
C124 C 0.55612 0.98651 0.1921 0.0
C125 C 0.58592 0.02181 0.22377 0.0
C126 C 0.61592 0.05598 0.21373 0.0
C127 C 0.61654 0.05592 0.19297 0.0
C128 C 0.58642 0.02093 0.18215 0.0
H129 H 0.59682 0.57159 0.59124 0.0
H130 H 0.59937 0.47584 0.58483 0.0
H131 H 0.5856 0.52155 0.5334 0.0
C132 C 0.59572 0.55053 0.58182 0.0
C133 C 0.59084 0.54995 0.56127 0.0
C134 C 0.59843 0.52373 0.5904 0.0
C135 C 0.59738 0.49667 0.57823 0.0
C136 C 0.59314 0.49589 0.55767 0.0
C137 C 0.58956 0.52244 0.54924 0.0
H138 H 1.02737 0.51972 0.89983 0.0
H139 H 0.13151 0.50491 0.89971 0.0
H140 H 0.08875 0.51994 0.84482 0.0
C141 C 1.05135 0.51748 0.89176 0.0
C142 C 1.05409 0.52034 0.87112 0.0
C143 C 0.07903 0.51202 0.90219 0.0
C144 C 0.11022 0.50938 0.89172 0.0
C145 C 0.11445 0.51229 0.8711 0.0
C146 C 0.08603 0.51773 0.86071 0.0
H147 H 1.00538 0.45135 0.39785 0.0
H148 H 0.1259 0.56926 0.39611 0.0
H149 H 0.07122 0.5162 0.45202 0.0
C150 C 1.03291 0.47792 0.4054 0.0
C151 C 1.03474 0.47989 0.42611 0.0
C152 C 0.06572 0.5099 0.39441 0.0
C153 C 0.10016 0.5444 0.40445 0.0
C154 C 0.1024 0.54709 0.42518 0.0
C155 C 0.07006 0.51439 0.43603 0.0
H156 H 0.58865 0.06732 0.72045 0.0
H157 H 0.58037 0.96601 0.71593 0.0
H158 H 0.58466 0.01459 0.77318 0.0
C159 C 0.58768 0.04533 0.72754 0.0
C160 C 0.58713 0.0445 0.74825 0.0
C161 C 0.5846 0.01678 0.71587 0.0
C162 C 0.58185 0.98761 0.725 0.0
C163 C 0.58242 0.98682 0.74568 0.0
C164 C 0.58485 0.01529 0.75722 0.0
H165 H 0.57571 0.4965 0.06981 0.0
H166 H 0.54243 0.3859 0.0762 0.0
H167 H 0.54508 0.44927 0.12726 0.0
C168 C 0.56585 0.4734 0.07925 0.0
C169 C 0.55933 0.47626 0.09951 0.0
C170 C 0.55934 0.44082 0.07085 0.0
C171 C 0.54717 0.4109 0.08286 0.0
C172 C 0.54333 0.41411 0.10344 0.0
C173 C 0.54855 0.44661 0.11152 0.0
C174 C 0.39201 0.60472 0.1234 0.0
C175 C 0.36407 0.59255 0.14015 0.0
C176 C 0.43655 0.61645 0.1248 0.0
C177 C 0.49057 0.58831 0.15494 0.0
H178 H 0.57685 0.63339 0.11165 0.0
C179 C 0.57852 0.52458 0.12716 0.0
C180 C 0.56223 0.50951 0.10784 0.0
C181 C 0.57615 0.55292 0.13547 0.0
C182 C 0.55385 0.62141 0.12416 0.0
H183 H 0.36223 0.58824 0.17189 0.0
H184 H 0.44077 0.61017 0.17455 0.0
H185 H 0.53219 0.6558 0.12016 0.0
H186 H 0.53242 0.51398 0.08198 0.0
H187 H 0.52994 0.56382 0.09616 0.0
H188 H 0.51027 0.55239 0.15814 0.0
C189 C 0.42796 0.6093 0.16018 0.0
C190 C 0.52799 0.63398 0.12895 0.0
C191 C 0.38309 0.59691 0.15871 0.0
C192 C 0.54622 0.5252 0.0967 0.0
C193 C 0.54483 0.55397 0.10484 0.0
C194 C 0.51691 0.57621 0.15034 0.0
C195 C 0.45406 0.61656 0.14306 0.0
C196 C 0.49335 0.6153 0.14331 0.0
C197 C 0.55851 0.56734 0.12445 0.0
C198 C 0.54612 0.59058 0.13396 0.0
H199 H 0.37803 0.60159 0.10894 0.0
H200 H 0.4552 0.62158 0.11121 0.0
H201 H 0.46449 0.57314 0.16614 0.0
H202 H 0.59211 0.51392 0.13605 0.0
H203 H 0.58669 0.56268 0.15067 0.0
C204 C 0.73847 0.14983 0.47605 0.0
C205 C 0.69415 0.13663 0.47099 0.0
C206 C 0.77639 0.18849 0.47391 0.0
C207 C 0.81234 0.27162 0.44522 0.0
H208 H 0.91246 0.3318 0.48288 0.0
C209 C 0.95237 0.43151 0.43432 0.0
C210 C 0.99791 0.44571 0.43686 0.0
C211 C 0.91622 0.39554 0.44112 0.0
C212 C 0.88492 0.31526 0.47216 0.0
H213 H 0.65482 0.15424 0.46061 0.0
H214 H 0.72048 0.22117 0.45705 0.0
H215 H 0.84767 0.2651 0.48965 0.0
H216 H 1.04181 0.43453 0.44915 0.0
H217 H 0.97834 0.37094 0.46091 0.0
H218 H 0.84931 0.32102 0.42756 0.0
C219 C 0.72619 0.20163 0.46229 0.0
C220 C 0.84784 0.27707 0.47604 0.0
C221 C 0.68846 0.16318 0.46441 0.0
C222 C 1.00688 0.42421 0.44723 0.0
C223 C 0.97054 0.38786 0.45392 0.0
C224 C 0.84924 0.30953 0.44134 0.0
C225 C 0.77072 0.21465 0.46664 0.0
C226 C 0.81091 0.25496 0.46267 0.0
C227 C 0.92472 0.3726 0.45036 0.0
C228 C 0.88583 0.33205 0.45482 0.0
H229 H 0.74406 0.13016 0.48118 0.0
H230 H 0.81027 0.19758 0.47732 0.0
H231 H 0.78507 0.25515 0.43437 0.0
H232 H 0.94473 0.4477 0.42638 0.0
H233 H 0.88147 0.38519 0.43857 0.0
C234 C 0.58197 0.72228 0.79268 0.0
C235 C 0.61697 0.73301 0.80594 0.0
C236 C 0.57476 0.74856 0.78782 0.0
C237 C 0.5994 0.84104 0.8035 0.0
H238 H 0.58057 0.84495 0.74797 0.0
C239 C 0.6115 0.96579 0.77044 0.0
C240 C 0.58112 0.95644 0.75502 0.0
C241 C 0.61288 0.93761 0.77804 0.0
C242 C 0.58508 0.8439 0.76358 0.0
H243 H 0.6713 0.77958 0.82479 0.0
H244 H 0.65876 0.82556 0.81626 0.0
H245 H 0.58829 0.79748 0.75874 0.0
H246 H 0.52663 0.9099 0.73624 0.0
H247 H 0.52866 0.86069 0.74959 0.0
H248 H 0.59656 0.88784 0.80825 0.0
C249 C 0.63656 0.79665 0.80979 0.0
C250 C 0.58954 0.81666 0.76975 0.0
C251 C 0.64376 0.77032 0.81467 0.0
C252 C 0.55099 0.91809 0.74787 0.0
C253 C 0.55223 0.88994 0.7555 0.0
C254 C 0.59486 0.86834 0.79731 0.0
C255 C 0.6024 0.78623 0.79609 0.0
C256 C 0.59677 0.81488 0.78977 0.0
C257 C 0.58378 0.89947 0.77041 0.0
C258 C 0.58765 0.87008 0.77726 0.0
H259 H 0.56017 0.69353 0.78599 0.0
H260 H 0.54756 0.73939 0.77751 0.0
H261 H 0.60451 0.84016 0.81906 0.0
H262 H 0.63539 0.99518 0.77613 0.0
H263 H 0.63788 0.94601 0.78938 0.0
C264 C 0.78563 0.41617 0.16998 0.0
C265 C 0.81041 0.44631 0.18423 0.0
C266 C 0.73789 0.39105 0.17032 0.0
C267 C 0.64739 0.39701 0.1858 0.0
H268 H 0.5789 0.30564 0.15129 0.0
C269 C 0.56539 0.37306 0.1124 0.0
C270 C 0.54033 0.38678 0.11681 0.0
C271 C 0.57436 0.35731 0.12701 0.0
C272 C 0.5968 0.33049 0.16143 0.0
H273 H 0.80466 0.47099 0.21138 0.0
H274 H 0.72111 0.42625 0.21238 0.0
H275 H 0.64645 0.32275 0.16869 0.0
H276 H 0.49836 0.38833 0.13919 0.0
H277 H 0.51659 0.36294 0.16505 0.0
H278 H 0.5995 0.40601 0.17767 0.0
C279 C 0.73857 0.42281 0.20051 0.0
C280 C 0.63584 0.34061 0.17123 0.0
C281 C 0.78653 0.44835 0.20001 0.0
C282 C 0.51941 0.37958 0.13548 0.0
C283 C 0.52921 0.36449 0.15024 0.0
C284 C 0.60796 0.3865 0.17632 0.0
C285 C 0.71355 0.39507 0.1851 0.0
C286 C 0.66391 0.37592 0.18202 0.0
C287 C 0.55916 0.35552 0.14643 0.0
C288 C 0.58474 0.35506 0.1627 0.0
H289 H 0.80307 0.41297 0.15798 0.0
H290 H 0.72036 0.37041 0.15806 0.0
H291 H 0.66754 0.42421 0.19408 0.0
H292 H 0.58218 0.37796 0.09829 0.0
H293 H 0.59779 0.35087 0.12359 0.0
C294 C 0.45299 0.86686 0.47404 0.0
C295 C 0.45271 0.89494 0.46524 0.0
C296 C 0.41417 0.82811 0.47304 0.0
C297 C 0.28863 0.76538 0.46359 0.0
H298 H 0.30194 0.68623 0.45093 0.0
C299 C 0.14348 0.61765 0.42945 0.0
C300 C 0.13804 0.58484 0.43503 0.0
C301 C 0.18008 0.65413 0.43669 0.0
C302 C 0.29763 0.70788 0.45483 0.0
H303 H 0.4113 0.90409 0.4484 0.0
H304 H 0.34424 0.83687 0.44647 0.0
H305 H 0.3702 0.75282 0.45641 0.0
H306 H 0.16575 0.56424 0.45302 0.0
H307 H 0.23045 0.62853 0.46574 0.0
H308 H 0.21618 0.72069 0.46146 0.0
C309 C 0.37409 0.84473 0.45444 0.0
C310 C 0.33678 0.74609 0.45795 0.0
C311 C 0.41279 0.88335 0.45541 0.0
C312 C 0.16912 0.58911 0.44858 0.0
C313 C 0.20625 0.62585 0.4557 0.0
C314 C 0.2496 0.72729 0.46044 0.0
C315 C 0.37416 0.81659 0.46328 0.0
C316 C 0.33275 0.77544 0.46191 0.0
C317 C 0.21244 0.65881 0.4496 0.0
C318 C 0.25363 0.69821 0.45558 0.0
H319 H 0.48314 0.87478 0.48176 0.0
H320 H 0.41532 0.80723 0.48011 0.0
H321 H 0.2842 0.78709 0.46707 0.0
H322 H 0.11989 0.61511 0.41906 0.0
H323 H 0.18403 0.67884 0.43151 0.0
C324 C 0.58537 0.30329 0.81727 0.0
C325 C 0.54714 0.29231 0.82876 0.0
C326 C 0.59156 0.27628 0.81083 0.0
C327 C 0.5267 0.17145 0.80191 0.0
H328 H 0.64823 0.19925 0.79617 0.0
C329 C 0.55488 0.06127 0.77569 0.0
C330 C 0.58676 0.07316 0.76035 0.0
C331 C 0.55183 0.08776 0.78599 0.0
C332 C 0.61411 0.19114 0.79765 0.0
H333 H 0.48589 0.24418 0.84281 0.0
H334 H 0.49757 0.19739 0.8322 0.0
H335 H 0.63942 0.24578 0.81096 0.0
H336 H 0.64165 0.12227 0.7443 0.0
H337 H 0.63642 0.16862 0.76235 0.0
H338 H 0.50148 0.11679 0.7886 0.0
C339 C 0.5223 0.22679 0.82779 0.0
C340 C 0.60901 0.21781 0.80606 0.0
C341 C 0.51592 0.25378 0.83411 0.0
C342 C 0.61654 0.11227 0.75596 0.0
C343 C 0.61378 0.13882 0.76639 0.0
C344 C 0.53179 0.1447 0.79367 0.0
C345 C 0.5599 0.23759 0.81586 0.0
C346 C 0.56527 0.20848 0.80807 0.0
C347 C 0.58091 0.12674 0.7813 0.0
C348 C 0.57556 0.1544 0.79124 0.0
H349 H 0.61055 0.33282 0.81313 0.0
H350 H 0.62065 0.28564 0.80149 0.0
H351 H 0.49256 0.1634 0.80288 0.0
H352 H 0.53126 0.03127 0.77929 0.0
H353 H 0.52642 0.0777 0.79752 0.0
C354 C 0.62526 0.8191 0.49306 0.0
C355 C 0.60382 0.83136 0.50443 0.0
C356 C 0.62003 0.78612 0.49783 0.0
C357 C 0.5912 0.72521 0.54014 0.0
H358 H 0.58221 0.6547 0.50048 0.0
C359 C 0.55949 0.58664 0.56182 0.0
C360 C 0.58686 0.5781 0.55261 0.0
C361 C 0.55834 0.6152 0.55475 0.0
C362 C 0.58503 0.67431 0.51171 0.0
H363 H 0.55828 0.81759 0.5291 0.0
H364 H 0.5487 0.75989 0.5373 0.0
H365 H 0.58552 0.70872 0.49027 0.0
H366 H 0.63338 0.59205 0.52833 0.0
H367 H 0.63142 0.64213 0.51592 0.0
H368 H 0.59097 0.6911 0.56156 0.0
C369 C 0.57049 0.77624 0.52499 0.0
C370 C 0.58695 0.70527 0.50587 0.0
C371 C 0.5759 0.80926 0.52028 0.0
C372 C 0.61175 0.59781 0.53567 0.0
C373 C 0.61061 0.62648 0.52857 0.0
C374 C 0.58916 0.6943 0.54595 0.0
C375 C 0.5931 0.76459 0.51403 0.0
C376 C 0.59006 0.7311 0.52004 0.0
C377 C 0.58453 0.63596 0.53826 0.0
C378 C 0.58604 0.66846 0.53183 0.0
H379 H 0.64736 0.83573 0.48088 0.0
H380 H 0.63833 0.77826 0.48921 0.0
H381 H 0.59462 0.74497 0.55144 0.0
H382 H 0.53912 0.57137 0.57464 0.0
H383 H 0.53712 0.62121 0.56229 0.0
C384 C 0.70637 0.49088 0.84597 0.0
C385 C 0.70932 0.52065 0.83721 0.0
C386 C 0.74488 0.49169 0.84718 0.0
C387 C 0.87386 0.55864 0.84385 0.0
H388 H 0.85879 0.4637 0.84321 0.0
C389 C 1.01947 0.55441 0.86907 0.0
C390 C 1.02245 0.52581 0.86143 0.0
C391 C 0.98361 0.55503 0.86364 0.0
C392 C 0.86402 0.49064 0.84316 0.0
H393 H 0.75586 0.57445 0.82255 0.0
H394 H 0.82237 0.57549 0.82421 0.0
H395 H 0.79234 0.46169 0.83848 0.0
H396 H 0.99046 0.47625 0.84129 0.0
H397 H 0.92836 0.47784 0.83123 0.0
H398 H 0.94561 0.58765 0.84805 0.0
C399 C 0.79052 0.55176 0.8306 0.0
C400 C 0.82545 0.48947 0.84076 0.0
C401 C 0.75204 0.55106 0.82951 0.0
C402 C 0.98963 0.49896 0.84731 0.0
C403 C 0.95348 0.49954 0.84182 0.0
C404 C 0.9124 0.55982 0.84615 0.0
C405 C 0.78781 0.52218 0.83956 0.0
C406 C 0.82949 0.52343 0.84128 0.0
C407 C 0.94918 0.52707 0.85027 0.0
C408 C 0.90824 0.52584 0.84613 0.0
H409 H 0.6743 0.46699 0.85217 0.0
H410 H 0.741 0.46859 0.8545 0.0
H411 H 0.87896 0.58556 0.84456 0.0
H412 H 1.04392 0.57543 0.88008 0.0
H413 H 0.98182 0.5765 0.87076 0.0
C414 C 0.24871 0.64571 0.15405 0.0
C415 C 0.20583 0.63797 0.15264 0.0
C416 C 0.28912 0.68361 0.1556 0.0
C417 C 0.33885 0.78407 0.14627 0.0
H418 H 0.42436 0.80934 0.18783 0.0
C419 C 0.48296 0.9408 0.17335 0.0
C420 C 0.52294 0.94933 0.1814 0.0
C421 C 0.44693 0.90311 0.16703 0.0
C422 C 0.40153 0.80285 0.17584 0.0
H423 H 0.17213 0.66423 0.15126 0.0
H424 H 0.2427 0.7303 0.15383 0.0
H425 H 0.35667 0.74307 0.18219 0.0
H426 H 0.55798 0.92613 0.18837 0.0
H427 H 0.49634 0.86073 0.17646 0.0
H428 H 0.38375 0.84379 0.13981 0.0
C429 C 0.24496 0.70699 0.15374 0.0
C430 C 0.36249 0.76474 0.1727 0.0
C431 C 0.20449 0.66909 0.15242 0.0
C432 C 0.52746 0.92014 0.18208 0.0
C433 C 0.49182 0.8826 0.17551 0.0
C434 C 0.37824 0.8222 0.14926 0.0
C435 C 0.2877 0.71468 0.15553 0.0
C436 C 0.33043 0.75495 0.15803 0.0
C437 C 0.45037 0.87323 0.16853 0.0
C438 C 0.40994 0.83224 0.16425 0.0
H439 H 0.25112 0.6225 0.15418 0.0
H440 H 0.32157 0.68862 0.15679 0.0
H441 H 0.31501 0.77732 0.13469 0.0
H442 H 0.47851 0.96283 0.17303 0.0
H443 H 0.41553 0.89714 0.16198 0.0
C444 C 0.58322 0.23167 0.48525 0.0
C445 C 0.54094 0.20123 0.47663 0.0
C446 C 0.59079 0.26543 0.49218 0.0
C447 C 0.55172 0.32398 0.48845 0.0
H448 H 0.60144 0.36021 0.54143 0.0
C449 C 0.5551 0.442 0.53198 0.0
C450 C 0.59139 0.46646 0.5453 0.0
C451 C 0.55082 0.41142 0.52205 0.0
C452 C 0.58834 0.35104 0.52648 0.0
H453 H 0.47386 0.18308 0.46819 0.0
H454 H 0.48758 0.24245 0.47998 0.0
H455 H 0.59089 0.30399 0.52679 0.0
H456 H 0.65308 0.47972 0.55784 0.0
H457 H 0.64673 0.42741 0.54008 0.0
H458 H 0.54958 0.3713 0.48805 0.0
C459 C 0.51479 0.24001 0.48132 0.0
C460 C 0.58212 0.31864 0.51812 0.0
C461 C 0.50701 0.20602 0.47452 0.0
C462 C 0.62444 0.46092 0.54783 0.0
C463 C 0.62055 0.43076 0.53775 0.0
C464 C 0.5584 0.35673 0.49674 0.0
C465 C 0.5565 0.2698 0.4905 0.0
C466 C 0.56369 0.3047 0.49905 0.0
C467 C 0.58308 0.40498 0.52509 0.0
C468 C 0.57676 0.37067 0.51589 0.0
H469 H 0.61056 0.22943 0.4867 0.0
H470 H 0.62357 0.28817 0.49891 0.0
H471 H 0.53775 0.31401 0.47365 0.0
H472 H 0.52896 0.44552 0.5299 0.0
H473 H 0.52128 0.39202 0.51259 0.0
C474 C 0.46714 0.54436 0.83462 0.0
C475 C 0.46445 0.51287 0.84059 0.0
C476 C 0.42898 0.54425 0.83617 0.0
C477 C 0.31513 0.49446 0.86175 0.0
H478 H 0.29241 0.54333 0.82332 0.0
C479 C 0.14708 0.47706 0.86445 0.0
C480 C 0.1493 0.50947 0.86142 0.0
C481 C 0.18439 0.47714 0.85999 0.0
C482 C 0.29832 0.52977 0.83431 0.0
H483 H 0.4184 0.45621 0.85259 0.0
H484 H 0.3523 0.45569 0.85496 0.0
H485 H 0.3591 0.54437 0.81967 0.0
H486 H 0.19253 0.56711 0.85066 0.0
H487 H 0.25788 0.56738 0.84267 0.0
H488 H 0.2547 0.47993 0.87642 0.0
C489 C 0.38411 0.481 0.84945 0.0
C490 C 0.33684 0.53042 0.83223 0.0
C491 C 0.42221 0.48117 0.84796 0.0
C492 C 0.18927 0.5414 0.85282 0.0
C493 C 0.22691 0.54156 0.84837 0.0
C494 C 0.27672 0.49373 0.86378 0.0
C495 C 0.38674 0.51262 0.84371 0.0
C496 C 0.34586 0.51258 0.84588 0.0
C497 C 0.22561 0.50982 0.85248 0.0
C498 C 0.26732 0.51113 0.85005 0.0
H499 H 0.49895 0.56941 0.82891 0.0
H500 H 0.43299 0.56941 0.83178 0.0
H501 H 0.32103 0.4812 0.87292 0.0
H502 H 0.11697 0.45207 0.87118 0.0
H503 H 0.1812 0.45172 0.86293 0.0
C504 C 0.91801 0.39143 0.15715 0.0
C505 C 0.9567 0.40012 0.1469 0.0
C506 C 0.87943 0.35337 0.15947 0.0
C507 C 0.81935 0.25261 0.14136 0.0
H508 H 0.7689 0.23052 0.19423 0.0
C509 C 0.6811 0.09749 0.16928 0.0
C510 C 0.64928 0.09289 0.1831 0.0
C511 C 0.71677 0.13411 0.1626 0.0
C512 C 0.78196 0.23615 0.17928 0.0
H513 H 0.98423 0.37535 0.13032 0.0
H514 H 0.91654 0.30847 0.13451 0.0
H515 H 0.83441 0.29552 0.18675 0.0
H516 H 0.62758 0.12225 0.19963 0.0
H517 H 0.68859 0.18565 0.18767 0.0
H518 H 0.76654 0.19282 0.13401 0.0
C519 C 0.91622 0.33136 0.14067 0.0
C520 C 0.81971 0.27354 0.175 0.0
C521 C 0.95505 0.36967 0.13832 0.0
C522 C 0.65203 0.12508 0.18917 0.0
C523 C 0.68724 0.16144 0.18242 0.0
C524 C 0.78124 0.21499 0.14565 0.0
C525 C 0.87836 0.3228 0.15166 0.0
C526 C 0.83869 0.28241 0.15596 0.0
C527 C 0.72103 0.16673 0.16958 0.0
C528 C 0.76179 0.20639 0.16465 0.0
H529 H 0.91768 0.41407 0.16374 0.0
H530 H 0.85051 0.34787 0.16763 0.0
H531 H 0.83306 0.25852 0.12652 0.0
H532 H 0.67987 0.07315 0.16445 0.0
H533 H 0.74219 0.13708 0.15276 0.0
C534 C 0.09376 0.52656 0.08377 0.0
C535 C 1.05163 0.51084 0.09313 0.0
C536 C 0.09629 0.5247 0.06321 0.0
C537 C 1.02721 0.47344 0.01808 0.0
H538 H 0.12645 0.56592 0.99252 0.0
C539 C 1.03275 0.48925 0.93352 0.0
C540 C 0.07564 0.50953 0.92411 0.0
C541 C 1.02967 0.48797 0.95411 0.0
C542 C 0.09889 0.53964 -0.00061 0.0
H543 H 0.97891 0.48001 0.08837 0.0
H544 H 0.98326 0.47673 0.05233 0.0
H545 H 0.12117 0.56583 0.02837 0.0
H546 H 0.14896 0.5442 0.92913 0.0
H547 H 0.14354 0.54105 0.96494 0.0
H548 H 1.00502 0.44718 0.98907 0.0
C549 C 1.01433 0.49039 0.06092 0.0
C550 C 0.09583 0.53963 0.01997 0.0
C551 C 1.01185 0.49242 0.08154 0.0
C552 C 0.11533 0.52801 0.93583 0.0
C553 C 0.11224 0.52662 0.95642 0.0
C554 C 1.0304 0.47338 -0.00254 0.0
C555 C 1.0567 0.50692 0.05151 0.0
C556 C 0.05994 0.50656 0.02958 0.0
C557 C 0.0694 0.50684 0.96585 0.0
C558 C 0.06625 0.50652 0.98783 0.0
H559 H 0.125 0.54087 0.09233 0.0
H560 H 0.12933 0.53722 0.05645 0.0
H561 H 0.99946 0.44736 0.02503 0.0
H562 H 1.00142 0.47424 0.92496 0.0
H563 H 0.99613 0.47277 0.96083 0.0
C564 C 0.55303 -0.00028 0.40486 0.0
C565 C 0.59586 0.01794 0.41394 0.0
C566 C 0.55005 0.00132 0.38445 0.0
C567 C 0.61833 0.05641 0.3411 0.0
H568 H 0.52784 0.96219 0.31127 0.0
C569 C 0.62689 0.04389 0.25641 0.0
C570 C 0.58555 0.02228 0.24569 0.0
C571 C 0.62659 0.04415 0.27703 0.0
C572 C 0.55288 0.9889 0.31938 0.0
H573 H 0.66912 0.05274 0.409 0.0
H574 H 0.66398 0.05555 0.37344 0.0
H575 H 0.52965 0.96172 0.34718 0.0
H576 H 0.51147 0.98455 0.24822 0.0
H577 H 0.51089 0.98522 0.28423 0.0
H578 H 0.64168 0.08363 0.31337 0.0
C579 C 0.63272 0.04018 0.38202 0.0
C580 C 0.55391 0.9886 0.33997 0.0
C581 C 0.63565 0.03837 0.40237 0.0
C582 C 0.54389 0.00106 0.25606 0.0
C583 C 0.54358 0.00143 0.27669 0.0
C584 C 0.61719 0.05676 0.32054 0.0
C585 C 0.58988 0.02146 0.3728 0.0
C586 C 0.58697 0.02226 0.35104 0.0
C587 C 0.58494 0.02294 0.28744 0.0
C588 C 0.58478 0.02291 0.30939 0.0
H589 H 0.52181 0.98389 0.41347 0.0
H590 H 0.5166 0.98694 0.37779 0.0
H591 H 0.64376 0.08296 0.34925 0.0
H592 H 0.65954 0.06009 0.24884 0.0
H593 H 0.65909 0.06047 0.2848 0.0
C594 C 0.53977 0.47188 0.76598 0.0
C595 C 0.5743 0.4986 0.77952 0.0
C596 C 0.54718 0.47704 0.74573 0.0
C597 C 0.60886 0.54742 0.70843 0.0
H598 H 0.58632 0.463 0.67566 0.0
C599 C 0.63215 0.55658 0.62348 0.0
C600 C 0.60043 0.5229 0.61215 0.0
C601 C 0.6334 0.55552 0.64404 0.0
C602 C 0.59219 0.4867 0.68451 0.0
H603 H 0.64339 0.55196 0.78258 0.0
H604 H 0.65578 0.5617 0.74693 0.0
H605 H 0.57955 0.45798 0.71138 0.0
H606 H 0.54451 0.46197 0.61333 0.0
H607 H 0.54543 0.46016 0.64908 0.0
H608 H 0.61937 0.57551 0.68161 0.0
C609 C 0.62324 0.5366 0.75212 0.0
C610 C 0.58864 0.48387 0.70498 0.0
C611 C 0.61615 0.53104 0.77244 0.0
C612 C 0.5698 0.48824 0.62171 0.0
C613 C 0.57057 0.48724 0.64222 0.0
C614 C 0.61168 0.55003 0.68787 0.0
C615 C 0.58896 0.50935 0.73862 0.0
C616 C 0.59638 0.51397 0.71709 0.0
C617 C 0.6025 0.52081 0.6537 0.0
C618 C 0.60272 0.51943 0.67562 0.0
H619 H 0.50716 0.44662 0.771 0.0
H620 H 0.5201 0.45582 0.73559 0.0
H621 H 0.61473 0.57091 0.71751 0.0
H622 H 0.65634 0.58364 0.61641 0.0
H623 H 0.65888 0.58184 0.65231 0.0
C624 C 0.51761 0.99083 0.53825 0.0
C625 C 0.55577 0.01669 0.52654 0.0
C626 C 0.52284 0.99015 0.55853 0.0
C627 C 0.5912 0.0505 0.60044 0.0
H628 H 0.54672 0.95629 0.62562 0.0
C629 C 0.61762 0.04948 0.68389 0.0
C630 C 0.58319 0.01685 0.6941 0.0
C631 C 0.61631 0.04932 0.6633 0.0
C632 C 0.55868 0.98277 0.61894 0.0
H633 H 0.62927 0.06195 0.52666 0.0
H634 H 0.63813 0.0616 0.56235 0.0
H635 H 0.53977 0.95586 0.58992 0.0
H636 H 0.51999 0.95879 0.69104 0.0
H637 H 0.51622 0.9589 0.65524 0.0
H638 H 0.60819 0.07727 0.6293 0.0
C639 C 0.60437 0.04165 0.55575 0.0
C640 C 0.55497 0.98248 0.59846 0.0
C641 C 0.5993 0.04176 0.5354 0.0
C642 C 0.54719 0.98417 0.68343 0.0
C643 C 0.54532 0.98422 0.66288 0.0
C644 C 0.59408 0.05067 0.62096 0.0
C645 C 0.56616 0.01585 0.56747 0.0
C646 C 0.57118 0.01633 0.58906 0.0
C647 C 0.57996 0.01675 0.65248 0.0
C648 C 0.57779 0.01678 0.63053 0.0
H649 H 0.48373 0.97112 0.53173 0.0
H650 H 0.49288 0.97012 0.56731 0.0
H651 H 0.60352 0.07688 0.59349 0.0
H652 H 0.64594 0.07491 0.69185 0.0
H653 H 0.64412 0.07465 0.65589 0.0
C654 C 0.63836 0.54021 0.90458 0.0
C655 C 0.6012 0.52257 0.89148 0.0
C656 C 0.6329 0.52442 0.92282 0.0
C657 C 0.54379 0.45987 0.95882 0.0
H658 H 0.64274 0.4658 0.98209 0.0
C659 C 0.60707 0.46914 0.04077 0.0
C660 C 0.56587 0.43901 0.04941 0.0
C661 C 0.61098 0.47147 0.02031 0.0
C662 C 0.61474 0.46377 0.97571 0.0
H663 H 0.52934 0.47454 0.88697 0.0
H664 H 0.51997 0.4465 0.9186 0.0
H665 H 0.64998 0.4859 0.94833 0.0
H666 H 0.4973 0.38657 0.04373 0.0
H667 H 0.50391 0.39074 0.00767 0.0
H668 H 0.50897 0.43843 0.98632 0.0
C669 C 0.55314 0.47285 0.91501 0.0
C670 C 0.61898 0.47551 0.95645 0.0
C671 C 0.55854 0.48883 0.89686 0.0
C672 C 0.52944 0.40996 0.0373 0.0
C673 C 0.53314 0.41251 0.01676 0.0
C674 C 0.53945 0.44789 0.97801 0.0
C675 C 0.5902 0.49053 0.92826 0.0
C676 C 0.584 0.47457 0.94796 0.0
C677 C 0.57356 0.44388 0.00812 0.0
C678 C 0.57532 0.45057 0.9868 0.0
H679 H 0.67161 0.56627 0.90076 0.0
H680 H 0.66195 0.53918 0.93281 0.0
H681 H 0.51641 0.45917 0.95286 0.0
H682 H 0.63559 0.49181 0.0499 0.0
H683 H 0.64237 0.49615 0.0141 0.0
C684 C 0.08549 0.52972 0.21421 0.0
C685 C 0.07728 0.4978 0.20379 0.0
C686 C 0.08072 0.52958 0.23473 0.0
C687 C 0.08353 0.48423 0.27813 0.0
H688 H 1.02861 0.52617 0.30505 0.0
C689 C 1.05387 0.47454 0.36216 0.0
C690 C 0.06396 0.50729 0.37248 0.0
C691 C 1.05301 0.4723 0.34154 0.0
C692 C 1.04445 0.51471 0.29775 0.0
H693 H 1.05651 0.44037 0.20646 0.0
H694 H 1.04802 0.44003 0.24229 0.0
H695 H 1.03102 0.52405 0.26902 0.0
H696 H 0.0801 0.56303 0.36917 0.0
H697 H 0.07973 0.55953 0.33318 0.0
H698 H 0.09754 0.47531 0.30677 0.0
C699 C 0.05869 0.46535 0.23467 0.0
C700 C 1.04577 0.51345 0.27712 0.0
C701 C 0.06333 0.46546 0.21416 0.0
C702 C 0.07277 0.5376 0.36168 0.0
C703 C 0.07197 0.53538 0.34105 0.0
C704 C 0.08233 0.48557 0.29873 0.0
C705 C 0.06781 0.49756 0.24521 0.0
C706 C 0.06538 0.49823 0.26709 0.0
C707 C 0.06231 0.50278 0.33074 0.0
C708 C 0.06284 0.50087 0.3088 0.0
H709 H 0.09643 0.55509 0.20656 0.0
H710 H 0.0884 0.55497 0.24244 0.0
H711 H 0.0996 0.47295 0.27085 0.0
H712 H 1.04732 0.45082 0.37002 0.0
H713 H 1.04489 0.44657 0.33407 0.0
loop_
_geom_bond_atom_site_label_1
_geom_bond_atom_site_label_2
_geom_bond_distance
_geom_bond_site_symmetry_2
_ccdc_geom_bond_type
Sm0 C2 2.846 . S
Sm0 O20 2.543 . S
Sm0 O21 2.450 . S
Sm0 O22 2.681 . S
Sm0 O23 2.464 . S
Sm0 O24 2.396 . S
Sm0 O28 2.386 . S
Sm0 O31 2.408 1_455 S
Sm1 C11 2.846 . S
Sm1 O22 2.386 1_655 S
Sm1 O25 2.408 1_655 S
Sm1 O26 2.543 . S
Sm1 O27 2.450 . S
Sm1 O28 2.681 1_655 S
Sm1 O29 2.464 . S
Sm1 O30 2.396 . S
C2 Sm0 2.846 . S
C2 C3 1.506 . S
C2 O20 1.261 . S
C2 O21 1.242 . S
C3 C2 1.506 . S
C3 C4 1.358 . S
C3 C8 1.382 . S
C4 C3 1.358 . S
C4 C5 1.385 . S
C4 H32 0.930 . S
C5 C4 1.385 . S
C5 C6 1.395 . S
C5 H33 0.929 . S
C6 C5 1.395 . S
C6 C7 1.335 . S
C7 C6 1.335 . S
C7 C8 1.398 . S
C7 H34 0.930 . S
C8 C3 1.382 . S
C8 C7 1.398 . S
C8 H35 0.929 . S
C9 O22 1.271 . S
C9 O23 1.251 . S
C10 O24 1.252 . S
C10 O25 1.272 . S
C11 Sm1 2.846 . S
C11 C12 1.506 . S
C11 O26 1.261 . S
C11 O27 1.242 . S
C12 C11 1.506 . S
C12 C13 1.358 . S
C12 C17 1.382 . S
C13 C12 1.358 . S
C13 C14 1.385 . S
C13 H36 0.930 . S
C14 C13 1.385 . S
C14 C15 1.395 . S
C14 H37 0.929 . S
C15 C14 1.395 . S
C15 C16 1.335 . S
C16 C15 1.335 . S
C16 C17 1.398 . S
C16 H38 0.930 . S
C17 C12 1.382 . S
C17 C16 1.398 . S
C17 H39 0.929 . S
C18 O28 1.271 . S
C18 O29 1.251 1_455 S
C19 O30 1.252 . S
C19 O31 1.272 . S
O20 Sm0 2.543 . S
O20 C2 1.261 . S
O21 Sm0 2.450 . S
O21 C2 1.242 . S
O22 Sm0 2.681 . S
O22 Sm1 2.386 1_455 S
O22 C9 1.271 . S
O23 Sm0 2.464 . S
O23 C9 1.251 . S
O24 Sm0 2.396 . S
O24 C10 1.252 . S
O25 Sm1 2.408 1_455 S
O25 C10 1.272 . S
O26 Sm1 2.543 . S
O26 C11 1.261 . S
O27 Sm1 2.450 . S
O27 C11 1.242 . S
O28 Sm0 2.386 . S
O28 Sm1 2.681 1_455 S
O28 C18 1.271 . S
O29 Sm1 2.464 . S
O29 C18 1.251 1_655 S
O30 Sm1 2.396 . S
O30 C19 1.252 . S
O31 Sm0 2.408 1_655 S
O31 C19 1.272 . S
H32 C4 0.930 . S
H33 C5 0.929 . S
H34 C7 0.930 . S
H35 C8 0.929 . S
H36 C13 0.930 . S
H37 C14 0.929 . S
H38 C16 0.930 . S
H39 C17 0.929 . S
Sm40 C42 2.846 . S
Sm40 O60 2.543 . S
Sm40 O61 2.450 . S
Sm40 O62 2.681 1_565 S
Sm40 O63 2.464 . S
Sm40 O64 2.396 . S
Sm40 O68 2.386 . S
Sm40 O71 2.408 1_565 S
Sm41 C51 2.846 . S
Sm41 O62 2.386 . S
Sm41 O65 2.408 1_545 S
Sm41 O66 2.543 . S
Sm41 O67 2.450 . S
Sm41 O68 2.681 1_545 S
Sm41 O69 2.464 . S
Sm41 O70 2.396 . S
C42 Sm40 2.846 . S
C42 C43 1.506 . S
C42 O60 1.261 . S
C42 O61 1.242 . S
C43 C42 1.506 . S
C43 C44 1.358 . S
C43 C48 1.382 . S
C44 C43 1.358 . S
C44 C45 1.385 . S
C44 H72 0.930 . S
C45 C44 1.385 . S
C45 C46 1.395 . S
C45 H73 0.929 . S
C46 C45 1.395 . S
C46 C47 1.335 . S
C47 C46 1.335 . S
C47 C48 1.398 . S
C47 H74 0.930 . S
C48 C43 1.382 . S
C48 C47 1.398 . S
C48 H75 0.929 . S
C49 O62 1.271 . S
C49 O63 1.251 1_545 S
C50 O64 1.252 . S
C50 O65 1.272 . S
C51 Sm41 2.846 . S
C51 C52 1.506 . S
C51 O66 1.261 . S
C51 O67 1.242 . S
C52 C51 1.506 . S
C52 C53 1.358 . S
C52 C57 1.382 . S
C53 C52 1.358 . S
C53 C54 1.385 . S
C53 H76 0.930 . S
C54 C53 1.385 . S
C54 C55 1.395 . S
C54 H77 0.929 . S
C55 C54 1.395 . S
C55 C56 1.335 . S
C56 C55 1.335 . S
C56 C57 1.398 . S
C56 H78 0.930 . S
C57 C52 1.382 . S
C57 C56 1.398 . S
C57 H79 0.929 . S
C58 O68 1.271 1_545 S
C58 O69 1.251 . S
C59 O70 1.252 . S
C59 O71 1.272 . S
O60 Sm40 2.543 . S
O60 C42 1.261 . S
O61 Sm40 2.450 . S
O61 C42 1.242 . S
O62 Sm40 2.681 1_545 S
O62 Sm41 2.386 . S
O62 C49 1.271 . S
O63 Sm40 2.464 . S
O63 C49 1.251 1_565 S
O64 Sm40 2.396 . S
O64 C50 1.252 . S
O65 Sm41 2.408 1_565 S
O65 C50 1.272 . S
O66 Sm41 2.543 . S
O66 C51 1.261 . S
O67 Sm41 2.450 . S
O67 C51 1.242 . S
O68 Sm40 2.386 . S
O68 Sm41 2.681 1_565 S
O68 C58 1.271 1_565 S
O69 Sm41 2.464 . S
O69 C58 1.251 . S
O70 Sm41 2.396 . S
O70 C59 1.252 . S
O71 Sm40 2.408 1_545 S
O71 C59 1.272 . S
H72 C44 0.930 . S
H73 C45 0.929 . S
H74 C47 0.930 . S
H75 C48 0.929 . S
H76 C53 0.930 . S
H77 C54 0.929 . S
H78 C56 0.930 . S
H79 C57 0.929 . S
Sm80 C82 2.846 . S
Sm80 O100 2.543 . S
Sm80 O101 2.450 . S
Sm80 O102 2.681 . S
Sm80 O103 2.464 . S
Sm80 O104 2.396 . S
Sm80 O108 2.386 . S
Sm80 O111 2.408 . S
Sm81 C91 2.846 . S
Sm81 O102 2.386 . S
Sm81 O105 2.408 . S
Sm81 O106 2.543 . S
Sm81 O107 2.450 . S
Sm81 O108 2.681 . S
Sm81 O109 2.464 . S
Sm81 O110 2.396 . S
C82 Sm80 2.846 . S
C82 C83 1.506 . S
C82 O100 1.261 . S
C82 O101 1.242 . S
C83 C82 1.506 . S
C83 C84 1.358 . S
C83 C88 1.382 . S
C84 C83 1.358 . S
C84 C85 1.385 . S
C84 H112 0.930 . S
C85 C84 1.385 . S
C85 C86 1.395 . S
C85 H113 0.929 . S
C86 C85 1.395 . S
C86 C87 1.335 . S
C87 C86 1.335 . S
C87 C88 1.398 . S
C87 H114 0.930 . S
C88 C83 1.382 . S
C88 C87 1.398 . S
C88 H115 0.929 . S
C89 O102 1.271 . S
C89 O103 1.251 . S
C90 O104 1.252 . S
C90 O105 1.272 . S
C91 Sm81 2.846 . S
C91 C92 1.506 . S
C91 O106 1.261 . S
C91 O107 1.242 . S
C92 C91 1.506 . S
C92 C93 1.358 . S
C92 C97 1.382 . S
C93 C92 1.358 . S
C93 C94 1.385 . S
C93 H116 0.930 . S
C94 C93 1.385 . S
C94 C95 1.395 . S
C94 H117 0.929 . S
C95 C94 1.395 . S
C95 C96 1.335 . S
C96 C95 1.335 . S
C96 C97 1.398 . S
C96 H118 0.930 . S
C97 C92 1.382 . S
C97 C96 1.398 . S
C97 H119 0.929 . S
C98 O108 1.271 . S
C98 O109 1.251 . S
C99 O110 1.252 . S
C99 O111 1.272 . S
O100 Sm80 2.543 . S
O100 C82 1.261 . S
O101 Sm80 2.450 . S
O101 C82 1.242 . S
O102 Sm80 2.681 . S
O102 Sm81 2.386 . S
O102 C89 1.271 . S
O103 Sm80 2.464 . S
O103 C89 1.251 . S
O104 Sm80 2.396 . S
O104 C90 1.252 . S
O105 Sm81 2.408 . S
O105 C90 1.272 . S
O106 Sm81 2.543 . S
O106 C91 1.261 . S
O107 Sm81 2.450 . S
O107 C91 1.242 . S
O108 Sm80 2.386 . S
O108 Sm81 2.681 . S
O108 C98 1.271 . S
O109 Sm81 2.464 . S
O109 C98 1.251 . S
O110 Sm81 2.396 . S
O110 C99 1.252 . S
O111 Sm80 2.408 . S
O111 C99 1.272 . S
H112 C84 0.930 . S
H113 C85 0.929 . S
H114 C87 0.930 . S
H115 C88 0.929 . S
H116 C93 0.930 . S
H117 C94 0.929 . S
H118 C96 0.930 . S
H119 C97 0.929 . S
H120 C123 0.931 . S
H121 C126 0.928 . S
H122 C128 0.930 . S
C123 H120 0.931 . S
C123 C124 1.413 . S
C123 C125 1.360 1_565 S
C124 C123 1.413 . S
C124 C128 1.429 1_565 S
C125 C123 1.360 1_545 S
C125 C126 1.372 . S
C126 H121 0.928 . S
C126 C125 1.372 . S
C126 C127 1.404 . S
C127 C126 1.404 . S
C127 C128 1.391 . S
C128 H122 0.930 . S
C128 C124 1.429 1_545 S
C128 C127 1.391 . S
H129 C132 0.931 . S
H130 C135 0.928 . S
H131 C137 0.930 . S
C132 H129 0.931 . S
C132 C133 1.413 . S
C132 C134 1.360 . S
C133 C132 1.413 . S
C133 C137 1.429 . S
C134 C132 1.360 . S
C134 C135 1.372 . S
C135 H130 0.928 . S
C135 C134 1.372 . S
C135 C136 1.404 . S
C136 C135 1.404 . S
C136 C137 1.391 . S
C137 H131 0.930 . S
C137 C133 1.429 . S
C137 C136 1.391 . S
H138 C141 0.931 1_655 S
H139 C144 0.928 . S
H140 C146 0.930 . S
C141 H138 0.931 1_455 S
C141 C142 1.413 . S
C141 C143 1.360 . S
C142 C141 1.413 . S
C142 C146 1.429 . S
C143 C141 1.360 . S
C143 C144 1.372 . S
C144 H139 0.928 . S
C144 C143 1.372 . S
C144 C145 1.404 . S
C145 C144 1.404 . S
C145 C146 1.391 . S
C146 H140 0.930 . S
C146 C142 1.429 . S
C146 C145 1.391 . S
H147 C150 0.931 . S
H148 C153 0.928 . S
H149 C155 0.930 . S
C150 H147 0.931 . S
C150 C151 1.413 . S
C150 C152 1.360 1_655 S
C151 C150 1.413 . S
C151 C155 1.429 1_655 S
C152 C150 1.360 1_455 S
C152 C153 1.371 . S
C153 H148 0.928 . S
C153 C152 1.371 . S
C153 C154 1.404 . S
C154 C153 1.404 . S
C154 C155 1.391 . S
C155 H149 0.930 . S
C155 C151 1.429 1_455 S
C155 C154 1.391 . S
H156 C159 0.931 . S
H157 C162 0.928 . S
H158 C164 0.930 . S
C159 H156 0.931 . S
C159 C160 1.413 . S
C159 C161 1.381 . S
C160 C159 1.413 . S
C160 C164 1.429 . S
C161 C159 1.381 . S
C161 C162 1.350 1_545 S
C162 H157 0.928 . S
C162 C161 1.350 1_565 S
C162 C163 1.404 . S
C163 C162 1.404 . S
C163 C164 1.391 1_565 S
C164 H158 0.930 . S
C164 C160 1.429 . S
C164 C163 1.391 1_545 S
H165 C168 0.931 . S
H166 C171 0.928 . S
H167 C173 0.930 . S
C168 H165 0.931 . S
C168 C169 1.413 . S
C168 C170 1.360 . S
C169 C168 1.413 . S
C169 C173 1.429 . S
C170 C168 1.360 . S
C170 C171 1.372 . S
C171 H166 0.928 . S
C171 C170 1.372 . S
C171 C172 1.404 . S
C172 C171 1.404 . S
C172 C173 1.391 . S
C173 H167 0.930 . S
C173 C169 1.429 . S
C173 C172 1.391 . S
C174 C175 1.349 . S
C174 C176 1.327 . S
C174 H199 0.950 . S
C175 C174 1.349 . S
C175 C191 1.349 . S
C176 C174 1.327 . S
C176 C195 1.429 . S
C176 H200 0.950 . S
C177 C194 1.574 . S
C177 C196 1.368 . S
C177 H201 0.949 . S
H178 C182 0.949 . S
C179 C180 1.349 . S
C179 C181 1.327 . S
C179 H202 0.950 . S
C180 C179 1.349 . S
C180 C192 1.349 . S
C181 C179 1.327 . S
C181 C197 1.429 . S
C181 H203 0.950 . S
C182 H178 0.949 . S
C182 C190 1.574 . S
C182 C198 1.368 . S
H183 C191 0.950 . S
H184 C189 0.950 . S
H185 C190 0.949 . S
H186 C192 0.950 . S
H187 C193 0.950 . S
H188 C194 0.949 . S
C189 H184 0.950 . S
C189 C191 1.327 . S
C189 C195 1.429 . S
C190 C182 1.574 . S
C190 H185 0.949 . S
C190 C196 1.368 . S
C191 C175 1.349 . S
C191 H183 0.950 . S
C191 C189 1.327 . S
C192 C180 1.349 . S
C192 H186 0.950 . S
C192 C193 1.327 . S
C193 H187 0.950 . S
C193 C192 1.327 . S
C193 C197 1.429 . S
C194 C177 1.574 . S
C194 H188 0.949 . S
C194 C198 1.368 . S
C195 C176 1.429 . S
C195 C189 1.429 . S
C195 C196 1.523 . S
C196 C177 1.368 . S
C196 C190 1.368 . S
C196 C195 1.523 . S
C197 C181 1.429 . S
C197 C193 1.429 . S
C197 C198 1.523 . S
C198 C182 1.368 . S
C198 C194 1.368 . S
C198 C197 1.523 . S
H199 C174 0.950 . S
H200 C176 0.950 . S
H201 C177 0.949 . S
H202 C179 0.950 . S
H203 C181 0.950 . S
C204 C205 1.349 . S
C204 C206 1.327 . S
C204 H229 0.950 . S
C205 C204 1.349 . S
C205 C221 1.349 . S
C206 C204 1.327 . S
C206 C225 1.429 . S
C206 H230 0.950 . S
C207 C224 1.574 . S
C207 C226 1.368 . S
C207 H231 0.949 . S
H208 C212 0.949 . S
C209 C210 1.349 . S
C209 C211 1.327 . S
C209 H232 0.950 . S
C210 C209 1.349 . S
C210 C222 1.349 . S
C211 C209 1.327 . S
C211 C227 1.429 . S
C211 H233 0.950 . S
C212 H208 0.949 . S
C212 C220 1.574 . S
C212 C228 1.368 . S
H213 C221 0.950 . S
H214 C219 0.950 . S
H215 C220 0.949 . S
H216 C222 0.950 . S
H217 C223 0.950 . S
H218 C224 0.949 . S
C219 H214 0.950 . S
C219 C221 1.327 . S
C219 C225 1.429 . S
C220 C212 1.574 . S
C220 H215 0.949 . S
C220 C226 1.368 . S
C221 C205 1.349 . S
C221 H213 0.950 . S
C221 C219 1.327 . S
C222 C210 1.349 . S
C222 H216 0.950 . S
C222 C223 1.327 . S
C223 H217 0.950 . S
C223 C222 1.327 . S
C223 C227 1.429 . S
C224 C207 1.574 . S
C224 H218 0.949 . S
C224 C228 1.368 . S
C225 C206 1.429 . S
C225 C219 1.429 . S
C225 C226 1.523 . S
C226 C207 1.368 . S
C226 C220 1.368 . S
C226 C225 1.523 . S
C227 C211 1.429 . S
C227 C223 1.429 . S
C227 C228 1.523 . S
C228 C212 1.368 . S
C228 C224 1.368 . S
C228 C227 1.523 . S
H229 C204 0.950 . S
H230 C206 0.950 . S
H231 C207 0.949 . S
H232 C209 0.950 . S
H233 C211 0.950 . S
C234 C235 1.349 . S
C234 C236 1.327 . S
C234 H259 0.950 . S
C235 C234 1.349 . S
C235 C251 1.349 . S
C236 C234 1.327 . S
C236 C255 1.429 . S
C236 H260 0.950 . S
C237 C254 1.574 . S
C237 C256 1.368 . S
C237 H261 0.949 . S
H238 C242 0.949 . S
C239 C240 1.349 . S
C239 C241 1.327 . S
C239 H262 0.950 . S
C240 C239 1.349 . S
C240 C252 1.349 . S
C241 C239 1.327 . S
C241 C257 1.429 . S
C241 H263 0.950 . S
C242 H238 0.949 . S
C242 C250 1.574 . S
C242 C258 1.368 . S
H243 C251 0.950 . S
H244 C249 0.950 . S
H245 C250 0.949 . S
H246 C252 0.950 . S
H247 C253 0.950 . S
H248 C254 0.949 . S
C249 H244 0.950 . S
C249 C251 1.327 . S
C249 C255 1.429 . S
C250 C242 1.574 . S
C250 H245 0.949 . S
C250 C256 1.368 . S
C251 C235 1.349 . S
C251 H243 0.950 . S
C251 C249 1.327 . S
C252 C240 1.349 . S
C252 H246 0.950 . S
C252 C253 1.327 . S
C253 H247 0.950 . S
C253 C252 1.327 . S
C253 C257 1.429 . S
C254 C237 1.574 . S
C254 H248 0.949 . S
C254 C258 1.368 . S
C255 C236 1.429 . S
C255 C249 1.429 . S
C255 C256 1.523 . S
C256 C237 1.368 . S
C256 C250 1.368 . S
C256 C255 1.523 . S
C257 C241 1.429 . S
C257 C253 1.429 . S
C257 C258 1.523 . S
C258 C242 1.368 . S
C258 C254 1.368 . S
C258 C257 1.523 . S
H259 C234 0.950 . S
H260 C236 0.950 . S
H261 C237 0.949 . S
H262 C239 0.950 . S
H263 C241 0.950 . S
C264 C265 1.349 . S
C264 C266 1.327 . S
C264 H289 0.950 . S
C265 C264 1.349 . S
C265 C281 1.349 . S
C266 C264 1.327 . S
C266 C285 1.429 . S
C266 H290 0.950 . S
C267 C284 1.574 . S
C267 C286 1.368 . S
C267 H291 0.949 . S
H268 C272 0.949 . S
C269 C270 1.349 . S
C269 C271 1.327 . S
C269 H292 0.950 . S
C270 C269 1.349 . S
C270 C282 1.349 . S
C271 C269 1.327 . S
C271 C287 1.429 . S
C271 H293 0.950 . S
C272 H268 0.949 . S
C272 C280 1.574 . S
C272 C288 1.368 . S
H273 C281 0.950 . S
H274 C279 0.950 . S
H275 C280 0.949 . S
H276 C282 0.950 . S
H277 C283 0.950 . S
H278 C284 0.949 . S
C279 H274 0.950 . S
C279 C281 1.327 . S
C279 C285 1.429 . S
C280 C272 1.574 . S
C280 H275 0.949 . S
C280 C286 1.368 . S
C281 C265 1.349 . S
C281 H273 0.950 . S
C281 C279 1.327 . S
C282 C270 1.349 . S
C282 H276 0.950 . S
C282 C283 1.327 . S
C283 H277 0.950 . S
C283 C282 1.327 . S
C283 C287 1.429 . S
C284 C267 1.574 . S
C284 H278 0.949 . S
C284 C288 1.368 . S
C285 C266 1.429 . S
C285 C279 1.429 . S
C285 C286 1.523 . S
C286 C267 1.368 . S
C286 C280 1.368 . S
C286 C285 1.523 . S
C287 C271 1.429 . S
C287 C283 1.429 . S
C287 C288 1.523 . S
C288 C272 1.368 . S
C288 C284 1.368 . S
C288 C287 1.523 . S
H289 C264 0.950 . S
H290 C266 0.950 . S
H291 C267 0.949 . S
H292 C269 0.950 . S
H293 C271 0.950 . S
C294 C295 1.349 . S
C294 C296 1.327 . S
C294 H319 0.950 . S
C295 C294 1.349 . S
C295 C311 1.349 . S
C296 C294 1.327 . S
C296 C315 1.429 . S
C296 H320 0.950 . S
C297 C314 1.574 . S
C297 C316 1.368 . S
C297 H321 0.949 . S
H298 C302 0.949 . S
C299 C300 1.349 . S
C299 C301 1.327 . S
C299 H322 0.950 . S
C300 C299 1.349 . S
C300 C312 1.349 . S
C301 C299 1.327 . S
C301 C317 1.429 . S
C301 H323 0.950 . S
C302 H298 0.949 . S
C302 C310 1.574 . S
C302 C318 1.368 . S
H303 C311 0.950 . S
H304 C309 0.950 . S
H305 C310 0.949 . S
H306 C312 0.950 . S
H307 C313 0.950 . S
H308 C314 0.949 . S
C309 H304 0.950 . S
C309 C311 1.327 . S
C309 C315 1.429 . S
C310 C302 1.574 . S
C310 H305 0.949 . S
C310 C316 1.368 . S
C311 C295 1.349 . S
C311 H303 0.950 . S
C311 C309 1.327 . S
C312 C300 1.349 . S
C312 H306 0.950 . S
C312 C313 1.327 . S
C313 H307 0.950 . S
C313 C312 1.327 . S
C313 C317 1.429 . S
C314 C297 1.574 . S
C314 H308 0.949 . S
C314 C318 1.368 . S
C315 C296 1.429 . S
C315 C309 1.429 . S
C315 C316 1.523 . S
C316 C297 1.368 . S
C316 C310 1.368 . S
C316 C315 1.523 . S
C317 C301 1.429 . S
C317 C313 1.429 . S
C317 C318 1.523 . S
C318 C302 1.368 . S
C318 C314 1.368 . S
C318 C317 1.523 . S
H319 C294 0.950 . S
H320 C296 0.950 . S
H321 C297 0.949 . S
H322 C299 0.950 . S
H323 C301 0.950 . S
C324 C325 1.349 . S
C324 C326 1.327 . S
C324 H349 0.950 . S
C325 C324 1.349 . S
C325 C341 1.349 . S
C326 C324 1.327 . S
C326 C345 1.429 . S
C326 H350 0.950 . S
C327 C344 1.574 . S
C327 C346 1.368 . S
C327 H351 0.949 . S
H328 C332 0.949 . S
C329 C330 1.349 . S
C329 C331 1.327 . S
C329 H352 0.950 . S
C330 C329 1.349 . S
C330 C342 1.349 . S
C331 C329 1.327 . S
C331 C347 1.429 . S
C331 H353 0.950 . S
C332 H328 0.949 . S
C332 C340 1.574 . S
C332 C348 1.368 . S
H333 C341 0.950 . S
H334 C339 0.950 . S
H335 C340 0.949 . S
H336 C342 0.950 . S
H337 C343 0.950 . S
H338 C344 0.949 . S
C339 H334 0.950 . S
C339 C341 1.327 . S
C339 C345 1.429 . S
C340 C332 1.574 . S
C340 H335 0.949 . S
C340 C346 1.368 . S
C341 C325 1.349 . S
C341 H333 0.950 . S
C341 C339 1.327 . S
C342 C330 1.349 . S
C342 H336 0.950 . S
C342 C343 1.327 . S
C343 H337 0.950 . S
C343 C342 1.327 . S
C343 C347 1.429 . S
C344 C327 1.574 . S
C344 H338 0.949 . S
C344 C348 1.368 . S
C345 C326 1.429 . S
C345 C339 1.429 . S
C345 C346 1.523 . S
C346 C327 1.368 . S
C346 C340 1.368 . S
C346 C345 1.523 . S
C347 C331 1.429 . S
C347 C343 1.429 . S
C347 C348 1.523 . S
C348 C332 1.368 . S
C348 C344 1.368 . S
C348 C347 1.523 . S
H349 C324 0.950 . S
H350 C326 0.950 . S
H351 C327 0.949 . S
H352 C329 0.950 . S
H353 C331 0.950 . S
C354 C355 1.349 . S
C354 C356 1.327 . S
C354 H379 0.950 . S
C355 C354 1.349 . S
C355 C371 1.349 . S
C356 C354 1.327 . S
C356 C375 1.429 . S
C356 H380 0.950 . S
C357 C374 1.574 . S
C357 C376 1.368 . S
C357 H381 0.949 . S
H358 C362 0.949 . S
C359 C360 1.349 . S
C359 C361 1.327 . S
C359 H382 0.950 . S
C360 C359 1.349 . S
C360 C372 1.349 . S
C361 C359 1.327 . S
C361 C377 1.429 . S
C361 H383 0.950 . S
C362 H358 0.949 . S
C362 C370 1.574 . S
C362 C378 1.368 . S
H363 C371 0.950 . S
H364 C369 0.950 . S
H365 C370 0.949 . S
H366 C372 0.950 . S
H367 C373 0.950 . S
H368 C374 0.949 . S
C369 H364 0.950 . S
C369 C371 1.327 . S
C369 C375 1.429 . S
C370 C362 1.574 . S
C370 H365 0.949 . S
C370 C376 1.368 . S
C371 C355 1.349 . S
C371 H363 0.950 . S
C371 C369 1.327 . S
C372 C360 1.349 . S
C372 H366 0.950 . S
C372 C373 1.327 . S
C373 H367 0.950 . S
C373 C372 1.327 . S
C373 C377 1.429 . S
C374 C357 1.574 . S
C374 H368 0.949 . S
C374 C378 1.368 . S
C375 C356 1.429 . S
C375 C369 1.429 . S
C375 C376 1.523 . S
C376 C357 1.368 . S
C376 C370 1.368 . S
C376 C375 1.523 . S
C377 C361 1.429 . S
C377 C373 1.429 . S
C377 C378 1.523 . S
C378 C362 1.368 . S
C378 C374 1.368 . S
C378 C377 1.523 . S
H379 C354 0.950 . S
H380 C356 0.950 . S
H381 C357 0.949 . S
H382 C359 0.950 . S
H383 C361 0.950 . S
C384 C385 1.349 . S
C384 C386 1.327 . S
C384 H409 0.950 . S
C385 C384 1.349 . S
C385 C401 1.349 . S
C386 C384 1.327 . S
C386 C405 1.429 . S
C386 H410 0.950 . S
C387 C404 1.574 . S
C387 C406 1.368 . S
C387 H411 0.949 . S
H388 C392 0.949 . S
C389 C390 1.349 . S
C389 C391 1.327 . S
C389 H412 0.950 . S
C390 C389 1.349 . S
C390 C402 1.349 . S
C391 C389 1.327 . S
C391 C407 1.429 . S
C391 H413 0.950 . S
C392 H388 0.949 . S
C392 C400 1.574 . S
C392 C408 1.368 . S
H393 C401 0.950 . S
H394 C399 0.950 . S
H395 C400 0.949 . S
H396 C402 0.950 . S
H397 C403 0.950 . S
H398 C404 0.949 . S
C399 H394 0.950 . S
C399 C401 1.327 . S
C399 C405 1.429 . S
C400 C392 1.574 . S
C400 H395 0.949 . S
C400 C406 1.368 . S
C401 C385 1.349 . S
C401 H393 0.950 . S
C401 C399 1.327 . S
C402 C390 1.349 . S
C402 H396 0.950 . S
C402 C403 1.327 . S
C403 H397 0.950 . S
C403 C402 1.327 . S
C403 C407 1.429 . S
C404 C387 1.574 . S
C404 H398 0.949 . S
C404 C408 1.368 . S
C405 C386 1.429 . S
C405 C399 1.429 . S
C405 C406 1.523 . S
C406 C387 1.368 . S
C406 C400 1.368 . S
C406 C405 1.523 . S
C407 C391 1.429 . S
C407 C403 1.429 . S
C407 C408 1.523 . S
C408 C392 1.368 . S
C408 C404 1.368 . S
C408 C407 1.523 . S
H409 C384 0.950 . S
H410 C386 0.950 . S
H411 C387 0.949 . S
H412 C389 0.950 . S
H413 C391 0.950 . S
C414 C415 1.349 . S
C414 C416 1.327 . S
C414 H439 0.950 . S
C415 C414 1.349 . S
C415 C431 1.349 . S
C416 C414 1.327 . S
C416 C435 1.429 . S
C416 H440 0.950 . S
C417 C434 1.574 . S
C417 C436 1.368 . S
C417 H441 0.949 . S
H418 C422 0.949 . S
C419 C420 1.349 . S
C419 C421 1.327 . S
C419 H442 0.950 . S
C420 C419 1.349 . S
C420 C432 1.349 . S
C421 C419 1.327 . S
C421 C437 1.429 . S
C421 H443 0.950 . S
C422 H418 0.949 . S
C422 C430 1.574 . S
C422 C438 1.368 . S
H423 C431 0.950 . S
H424 C429 0.950 . S
H425 C430 0.949 . S
H426 C432 0.950 . S
H427 C433 0.950 . S
H428 C434 0.949 . S
C429 H424 0.950 . S
C429 C431 1.327 . S
C429 C435 1.429 . S
C430 C422 1.574 . S
C430 H425 0.949 . S
C430 C436 1.368 . S
C431 C415 1.349 . S
C431 H423 0.950 . S
C431 C429 1.327 . S
C432 C420 1.349 . S
C432 H426 0.950 . S
C432 C433 1.327 . S
C433 H427 0.950 . S
C433 C432 1.327 . S
C433 C437 1.429 . S
C434 C417 1.574 . S
C434 H428 0.949 . S
C434 C438 1.368 . S
C435 C416 1.429 . S
C435 C429 1.429 . S
C435 C436 1.523 . S
C436 C417 1.368 . S
C436 C430 1.368 . S
C436 C435 1.523 . S
C437 C421 1.429 . S
C437 C433 1.429 . S
C437 C438 1.523 . S
C438 C422 1.368 . S
C438 C434 1.368 . S
C438 C437 1.523 . S
H439 C414 0.950 . S
H440 C416 0.950 . S
H441 C417 0.949 . S
H442 C419 0.950 . S
H443 C421 0.950 . S
C444 C445 1.349 . S
C444 C446 1.327 . S
C444 H469 0.950 . S
C445 C444 1.349 . S
C445 C461 1.349 . S
C446 C444 1.327 . S
C446 C465 1.429 . S
C446 H470 0.950 . S
C447 C464 1.574 . S
C447 C466 1.368 . S
C447 H471 0.949 . S
H448 C452 0.949 . S
C449 C450 1.349 . S
C449 C451 1.327 . S
C449 H472 0.950 . S
C450 C449 1.349 . S
C450 C462 1.349 . S
C451 C449 1.327 . S
C451 C467 1.429 . S
C451 H473 0.950 . S
C452 H448 0.949 . S
C452 C460 1.574 . S
C452 C468 1.368 . S
H453 C461 0.950 . S
H454 C459 0.950 . S
H455 C460 0.949 . S
H456 C462 0.950 . S
H457 C463 0.950 . S
H458 C464 0.949 . S
C459 H454 0.950 . S
C459 C461 1.327 . S
C459 C465 1.429 . S
C460 C452 1.574 . S
C460 H455 0.949 . S
C460 C466 1.368 . S
C461 C445 1.349 . S
C461 H453 0.950 . S
C461 C459 1.327 . S
C462 C450 1.349 . S
C462 H456 0.950 . S
C462 C463 1.327 . S
C463 H457 0.950 . S
C463 C462 1.327 . S
C463 C467 1.429 . S
C464 C447 1.574 . S
C464 H458 0.949 . S
C464 C468 1.368 . S
C465 C446 1.429 . S
C465 C459 1.429 . S
C465 C466 1.523 . S
C466 C447 1.368 . S
C466 C460 1.368 . S
C466 C465 1.523 . S
C467 C451 1.429 . S
C467 C463 1.429 . S
C467 C468 1.523 . S
C468 C452 1.368 . S
C468 C464 1.368 . S
C468 C467 1.523 . S
H469 C444 0.950 . S
H470 C446 0.950 . S
H471 C447 0.949 . S
H472 C449 0.950 . S
H473 C451 0.950 . S
C474 C475 1.349 . S
C474 C476 1.327 . S
C474 H499 0.950 . S
C475 C474 1.349 . S
C475 C491 1.349 . S
C476 C474 1.327 . S
C476 C495 1.429 . S
C476 H500 0.950 . S
C477 C494 1.574 . S
C477 C496 1.368 . S
C477 H501 0.949 . S
H478 C482 0.949 . S
C479 C480 1.349 . S
C479 C481 1.327 . S
C479 H502 0.950 . S
C480 C479 1.349 . S
C480 C492 1.349 . S
C481 C479 1.327 . S
C481 C497 1.429 . S
C481 H503 0.950 . S
C482 H478 0.949 . S
C482 C490 1.574 . S
C482 C498 1.368 . S
H483 C491 0.950 . S
H484 C489 0.950 . S
H485 C490 0.949 . S
H486 C492 0.950 . S
H487 C493 0.950 . S
H488 C494 0.949 . S
C489 H484 0.950 . S
C489 C491 1.327 . S
C489 C495 1.429 . S
C490 C482 1.574 . S
C490 H485 0.949 . S
C490 C496 1.368 . S
C491 C475 1.349 . S
C491 H483 0.950 . S
C491 C489 1.327 . S
C492 C480 1.349 . S
C492 H486 0.950 . S
C492 C493 1.327 . S
C493 H487 0.950 . S
C493 C492 1.327 . S
C493 C497 1.429 . S
C494 C477 1.574 . S
C494 H488 0.949 . S
C494 C498 1.368 . S
C495 C476 1.429 . S
C495 C489 1.429 . S
C495 C496 1.523 . S
C496 C477 1.368 . S
C496 C490 1.368 . S
C496 C495 1.523 . S
C497 C481 1.429 . S
C497 C493 1.429 . S
C497 C498 1.523 . S
C498 C482 1.368 . S
C498 C494 1.368 . S
C498 C497 1.523 . S
H499 C474 0.950 . S
H500 C476 0.950 . S
H501 C477 0.949 . S
H502 C479 0.950 . S
H503 C481 0.950 . S
C504 C505 1.349 . S
C504 C506 1.327 . S
C504 H529 0.950 . S
C505 C504 1.349 . S
C505 C521 1.349 . S
C506 C504 1.327 . S
C506 C525 1.429 . S
C506 H530 0.950 . S
C507 C524 1.574 . S
C507 C526 1.368 . S
C507 H531 0.949 . S
H508 C512 0.949 . S
C509 C510 1.349 . S
C509 C511 1.327 . S
C509 H532 0.950 . S
C510 C509 1.349 . S
C510 C522 1.349 . S
C511 C509 1.327 . S
C511 C527 1.429 . S
C511 H533 0.950 . S
C512 H508 0.949 . S
C512 C520 1.574 . S
C512 C528 1.368 . S
H513 C521 0.950 . S
H514 C519 0.950 . S
H515 C520 0.949 . S
H516 C522 0.950 . S
H517 C523 0.950 . S
H518 C524 0.949 . S
C519 H514 0.950 . S
C519 C521 1.327 . S
C519 C525 1.429 . S
C520 C512 1.574 . S
C520 H515 0.949 . S
C520 C526 1.368 . S
C521 C505 1.349 . S
C521 H513 0.950 . S
C521 C519 1.327 . S
C522 C510 1.349 . S
C522 H516 0.950 . S
C522 C523 1.327 . S
C523 H517 0.950 . S
C523 C522 1.327 . S
C523 C527 1.429 . S
C524 C507 1.574 . S
C524 H518 0.949 . S
C524 C528 1.368 . S
C525 C506 1.429 . S
C525 C519 1.429 . S
C525 C526 1.523 . S
C526 C507 1.368 . S
C526 C520 1.368 . S
C526 C525 1.523 . S
C527 C511 1.429 . S
C527 C523 1.429 . S
C527 C528 1.523 . S
C528 C512 1.368 . S
C528 C524 1.368 . S
C528 C527 1.523 . S
H529 C504 0.950 . S
H530 C506 0.950 . S
H531 C507 0.949 . S
H532 C509 0.950 . S
H533 C511 0.950 . S
C534 C535 1.349 . S
C534 C536 1.327 . S
C534 H559 0.950 . S
C535 C534 1.349 . S
C535 C551 1.349 1_455 S
C536 C534 1.327 . S
C536 C555 1.429 . S
C536 H560 0.950 . S
C537 C554 1.574 . S
C537 C556 1.368 1_655 S
C537 H561 0.949 . S
H538 C542 0.949 . S
C539 C540 1.349 . S
C539 C541 1.327 . S
C539 H562 0.950 1_455 S
C540 C539 1.349 . S
C540 C552 1.349 . S
C541 C539 1.327 . S
C541 C557 1.429 . S
C541 H563 0.950 1_455 S
C542 H538 0.949 . S
C542 C550 1.574 . S
C542 C558 1.393 . S
H543 C551 0.950 . S
H544 C549 0.950 . S
H545 C550 0.949 . S
H546 C552 0.950 . S
H547 C553 0.950 . S
H548 C554 0.949 1_556 S
C549 H544 0.950 . S
C549 C551 1.327 . S
C549 C555 1.429 1_655 S
C550 C542 1.574 . S
C550 H545 0.949 . S
C550 C556 1.368 . S
C551 C535 1.349 1_655 S
C551 H543 0.950 . S
C551 C549 1.327 . S
C552 C540 1.349 . S
C552 H546 0.950 . S
C552 C553 1.327 . S
C553 H547 0.950 . S
C553 C552 1.327 . S
C553 C557 1.429 . S
C554 C537 1.574 . S
C554 H548 0.949 1_554 S
C554 C558 1.388 1_655 S
C555 C536 1.429 . S
C555 C549 1.429 1_455 S
C555 C556 1.523 . S
C556 C537 1.368 1_455 S
C556 C550 1.368 . S
C556 C555 1.523 . S
C557 C541 1.429 . S
C557 C553 1.429 . S
C557 C558 1.468 1_556 S
C558 C542 1.393 . S
C558 C554 1.388 1_455 S
C558 C557 1.468 1_554 S
H559 C534 0.950 . S
H560 C536 0.950 . S
H561 C537 0.949 . S
H562 C539 0.950 1_655 S
H563 C541 0.950 1_655 S
C564 C565 1.349 1_565 S
C564 C566 1.327 . S
C564 H589 0.950 . S
C565 C564 1.349 1_545 S
C565 C581 1.349 . S
C566 C564 1.327 . S
C566 C585 1.429 1_565 S
C566 H590 0.950 . S
C567 C584 1.574 . S
C567 C586 1.368 . S
C567 H591 0.949 . S
H568 C572 0.949 . S
C569 C570 1.349 . S
C569 C571 1.327 . S
C569 H592 0.950 . S
C570 C569 1.349 . S
C570 C582 1.349 1_545 S
C571 C569 1.327 . S
C571 C587 1.429 . S
C571 H593 0.950 . S
C572 H568 0.949 . S
C572 C580 1.574 . S
C572 C588 1.368 1_565 S
H573 C581 0.950 . S
H574 C579 0.950 . S
H575 C580 0.949 . S
H576 C582 0.950 . S
H577 C583 0.950 . S
H578 C584 0.949 . S
C579 H574 0.950 . S
C579 C581 1.327 . S
C579 C585 1.429 . S
C580 C572 1.574 . S
C580 H575 0.949 . S
C580 C586 1.368 1_565 S
C581 C565 1.349 . S
C581 H573 0.950 . S
C581 C579 1.327 . S
C582 C570 1.349 1_565 S
C582 H576 0.950 . S
C582 C583 1.327 . S
C583 H577 0.950 . S
C583 C582 1.327 . S
C583 C587 1.429 1_565 S
C584 C567 1.574 . S
C584 H578 0.949 . S
C584 C588 1.368 . S
C585 C566 1.429 1_545 S
C585 C579 1.429 . S
C585 C586 1.523 . S
C586 C567 1.368 . S
C586 C580 1.368 1_545 S
C586 C585 1.523 . S
C587 C571 1.429 . S
C587 C583 1.429 1_545 S
C587 C588 1.523 . S
C588 C572 1.368 1_545 S
C588 C584 1.368 . S
C588 C587 1.523 . S
H589 C564 0.950 . S
H590 C566 0.950 . S
H591 C567 0.949 . S
H592 C569 0.950 . S
H593 C571 0.950 . S
C594 C595 1.349 . S
C594 C596 1.327 . S
C594 H619 0.950 . S
C595 C594 1.349 . S
C595 C611 1.349 . S
C596 C594 1.327 . S
C596 C615 1.429 . S
C596 H620 0.950 . S
C597 C614 1.574 . S
C597 C616 1.368 . S
C597 H621 0.949 . S
H598 C602 0.949 . S
C599 C600 1.349 . S
C599 C601 1.327 . S
C599 H622 0.950 . S
C600 C599 1.349 . S
C600 C612 1.349 . S
C601 C599 1.327 . S
C601 C617 1.429 . S
C601 H623 0.950 . S
C602 H598 0.949 . S
C602 C610 1.574 . S
C602 C618 1.368 . S
H603 C611 0.950 . S
H604 C609 0.950 . S
H605 C610 0.949 . S
H606 C612 0.950 . S
H607 C613 0.950 . S
H608 C614 0.949 . S
C609 H604 0.950 . S
C609 C611 1.327 . S
C609 C615 1.429 . S
C610 C602 1.574 . S
C610 H605 0.949 . S
C610 C616 1.368 . S
C611 C595 1.349 . S
C611 H603 0.950 . S
C611 C609 1.327 . S
C612 C600 1.349 . S
C612 H606 0.950 . S
C612 C613 1.327 . S
C613 H607 0.950 . S
C613 C612 1.327 . S
C613 C617 1.429 . S
C614 C597 1.574 . S
C614 H608 0.949 . S
C614 C618 1.368 . S
C615 C596 1.429 . S
C615 C609 1.429 . S
C615 C616 1.523 . S
C616 C597 1.368 . S
C616 C610 1.368 . S
C616 C615 1.523 . S
C617 C601 1.429 . S
C617 C613 1.429 . S
C617 C618 1.523 . S
C618 C602 1.368 . S
C618 C614 1.368 . S
C618 C617 1.523 . S
H619 C594 0.950 . S
H620 C596 0.950 . S
H621 C597 0.949 . S
H622 C599 0.950 . S
H623 C601 0.950 . S
C624 C625 1.349 1_565 S
C624 C626 1.327 . S
C624 H649 0.950 . S
C625 C624 1.349 1_545 S
C625 C641 1.349 . S
C626 C624 1.327 . S
C626 C645 1.429 1_565 S
C626 H650 0.950 . S
C627 C644 1.574 . S
C627 C646 1.368 . S
C627 H651 0.949 . S
H628 C632 0.949 . S
C629 C630 1.373 . S
C629 C631 1.327 . S
C629 H652 0.950 . S
C630 C629 1.373 . S
C630 C642 1.327 1_545 S
C631 C629 1.327 . S
C631 C647 1.429 . S
C631 H653 0.950 . S
C632 H628 0.949 . S
C632 C640 1.574 . S
C632 C648 1.368 1_565 S
H633 C641 0.950 . S
H634 C639 0.950 . S
H635 C640 0.949 . S
H636 C642 0.950 . S
H637 C643 0.950 . S
H638 C644 0.949 . S
C639 H634 0.950 . S
C639 C641 1.327 . S
C639 C645 1.429 . S
C640 C632 1.574 . S
C640 H635 0.949 . S
C640 C646 1.368 1_565 S
C641 C625 1.349 . S
C641 H633 0.950 . S
C641 C639 1.327 . S
C642 C630 1.327 1_565 S
C642 H636 0.950 . S
C642 C643 1.327 . S
C643 H637 0.950 . S
C643 C642 1.327 . S
C643 C647 1.429 1_565 S
C644 C627 1.574 . S
C644 H638 0.949 . S
C644 C648 1.368 . S
C645 C626 1.429 1_545 S
C645 C639 1.429 . S
C645 C646 1.523 . S
C646 C627 1.368 . S
C646 C640 1.368 1_545 S
C646 C645 1.523 . S
C647 C631 1.429 . S
C647 C643 1.429 1_545 S
C647 C648 1.523 . S
C648 C632 1.368 1_545 S
C648 C644 1.368 . S
C648 C647 1.523 . S
H649 C624 0.950 . S
H650 C626 0.950 . S
H651 C627 0.949 . S
H652 C629 0.950 . S
H653 C631 0.950 . S
C654 C655 1.349 . S
C654 C656 1.327 . S
C654 H679 0.950 . S
C655 C654 1.349 . S
C655 C671 1.349 . S
C656 C654 1.327 . S
C656 C675 1.429 . S
C656 H680 0.950 . S
C657 C674 1.574 . S
C657 C676 1.368 . S
C657 H681 0.949 . S
H658 C662 0.949 . S
C659 C660 1.349 . S
C659 C661 1.327 . S
C659 H682 0.950 . S
C660 C659 1.349 . S
C660 C672 1.349 . S
C661 C659 1.327 . S
C661 C677 1.429 . S
C661 H683 0.950 . S
C662 H658 0.949 . S
C662 C670 1.574 . S
C662 C678 1.368 . S
H663 C671 0.950 . S
H664 C669 0.950 . S
H665 C670 0.949 . S
H666 C672 0.950 . S
H667 C673 0.950 . S
H668 C674 0.949 . S
C669 H664 0.950 . S
C669 C671 1.327 . S
C669 C675 1.429 . S
C670 C662 1.574 . S
C670 H665 0.949 . S
C670 C676 1.368 . S
C671 C655 1.349 . S
C671 H663 0.950 . S
C671 C669 1.327 . S
C672 C660 1.349 . S
C672 H666 0.950 . S
C672 C673 1.327 . S
C673 H667 0.950 . S
C673 C672 1.327 . S
C673 C677 1.429 . S
C674 C657 1.574 . S
C674 H668 0.949 . S
C674 C678 1.368 . S
C675 C656 1.429 . S
C675 C669 1.429 . S
C675 C676 1.523 . S
C676 C657 1.368 . S
C676 C670 1.368 . S
C676 C675 1.523 . S
C677 C661 1.429 . S
C677 C673 1.429 . S
C677 C678 1.523 1_554 S
C678 C662 1.368 . S
C678 C674 1.368 . S
C678 C677 1.523 1_556 S
H679 C654 0.950 . S
H680 C656 0.950 . S
H681 C657 0.949 . S
H682 C659 0.950 . S
H683 C661 0.950 . S
C684 C685 1.349 . S
C684 C686 1.327 . S
C684 H709 0.950 . S
C685 C684 1.349 . S
C685 C701 1.349 . S
C686 C684 1.327 . S
C686 C705 1.429 . S
C686 H710 0.950 . S
C687 C704 1.574 . S
C687 C706 1.368 . S
C687 H711 0.949 . S
H688 C692 0.949 . S
C689 C690 1.349 1_455 S
C689 C691 1.327 . S
C689 H712 0.950 . S
C690 C689 1.349 1_655 S
C690 C702 1.348 . S
C691 C689 1.327 . S
C691 C707 1.429 . S
C691 H713 0.950 . S
C692 H688 0.949 . S
C692 C700 1.574 . S
C692 C708 1.368 . S
H693 C701 0.950 . S
H694 C699 0.950 . S
H695 C700 0.949 . S
H696 C702 0.950 . S
H697 C703 0.950 . S
H698 C704 0.949 . S
C699 H694 0.950 . S
C699 C701 1.327 . S
C699 C705 1.429 . S
C700 C692 1.574 . S
C700 H695 0.949 . S
C700 C706 1.368 . S
C701 C685 1.349 . S
C701 H693 0.950 . S
C701 C699 1.327 . S
C702 C690 1.348 . S
C702 H696 0.950 . S
C702 C703 1.327 1_655 S
C703 H697 0.950 . S
C703 C702 1.327 1_455 S
C703 C707 1.429 . S
C704 C687 1.574 . S
C704 H698 0.949 . S
C704 C708 1.368 . S
C705 C686 1.429 . S
C705 C699 1.429 . S
C705 C706 1.523 . S
C706 C687 1.368 . S
C706 C700 1.368 . S
C706 C705 1.523 . S
C707 C691 1.429 . S
C707 C703 1.429 . S
C707 C708 1.523 . S
C708 C692 1.368 . S
C708 C704 1.368 . S
C708 C707 1.523 . S
H709 C684 0.950 . S
H710 C686 0.950 . S
H711 C687 0.949 . S
H712 C689 0.950 . S
H713 C691 0.950 . S
C175 C6 0.495 . S
C180 C169 0.445 . S
C205 C59 1.773 . S
C210 C151 1.755 . S
C235 C86 1.180 . S
C240 C163 1.194 . S
C265 C15 0.437 . S
C270 C172 0.297 . S
C300 C154 1.789 . S
C295 C50 1.788 . S
C330 C160 1.285 . S
C325 C95 1.262 . S
C355 C46 1.181 . S
C360 C133 1.196 . S
C385 C99 2.947 . S
C390 C142 2.916 1_655 S
C415 C10 1.827 . S
C420 C124 1.845 . S
C450 C136 1.259 . S
C445 C55 1.233 . S
C480 C145 2.828 . S
C475 C90 2.817 . S
C505 C19 1.753 . S
C510 C127 1.737 . S
C540 C143 1.773 . S
C535 C18 1.705 . S
C565 C49 1.329 . S
C570 C125 1.377 . S
C595 C98 1.451 . S
C600 C134 1.508 . S
C630 C161 1.486 . S
C625 C58 1.438 . S
C660 C170 1.089 . S
C655 C89 1.068 . S
C685 C9 1.324 . S
C690 C152 1.366 1_655 S
