# Generated by pormake.
# Topology ctn, (3,4)-cn, num edge types: 1
# Building blocks:
#     Node 0, Type 0, BuildingBlock: VETTIZ_charged_linker_0, # of connection points: 3
#     Node 1, Type 0, BuildingBlock: VETTIZ_charged_linker_0, # of connection points: 3
#     Node 2, Type 0, BuildingBlock: VETTIZ_charged_linker_0, # of connection points: 3
#     Node 3, Type 0, BuildingBlock: VETTIZ_charged_linker_0, # of connection points: 3
#     Node 4, Type 0, BuildingBlock: VETTIZ_charged_linker_0, # of connection points: 3
#     Node 5, Type 0, BuildingBlock: VETTIZ_charged_linker_0, # of connection points: 3
#     Node 6, Type 0, BuildingBlock: VETTIZ_charged_linker_0, # of connection points: 3
#     Node 7, Type 0, BuildingBlock: VETTIZ_charged_linker_0, # of connection points: 3
#     Node 8, Type 0, BuildingBlock: VETTIZ_charged_linker_0, # of connection points: 3
#     Node 9, Type 0, BuildingBlock: VETTIZ_charged_linker_0, # of connection points: 3
#     Node 10, Type 0, BuildingBlock: VETTIZ_charged_linker_0, # of connection points: 3
#     Node 11, Type 0, BuildingBlock: VETTIZ_charged_linker_0, # of connection points: 3
#     Node 12, Type 0, BuildingBlock: VETTIZ_charged_linker_0, # of connection points: 3
#     Node 13, Type 0, BuildingBlock: VETTIZ_charged_linker_0, # of connection points: 3
#     Node 14, Type 0, BuildingBlock: VETTIZ_charged_linker_0, # of connection points: 3
#     Node 15, Type 0, BuildingBlock: VETTIZ_charged_linker_0, # of connection points: 3
#     Node 16, Type 1, BuildingBlock: AZAVOO_clean_sbu_0, # of connection points: 4
#     Node 17, Type 1, BuildingBlock: AZAVOO_clean_sbu_0, # of connection points: 4
#     Node 18, Type 1, BuildingBlock: AZAVOO_clean_sbu_0, # of connection points: 4
#     Node 19, Type 1, BuildingBlock: AZAVOO_clean_sbu_0, # of connection points: 4
#     Node 20, Type 1, BuildingBlock: AZAVOO_clean_sbu_0, # of connection points: 4
#     Node 21, Type 1, BuildingBlock: AZAVOO_clean_sbu_0, # of connection points: 4
#     Node 22, Type 1, BuildingBlock: AZAVOO_clean_sbu_0, # of connection points: 4
#     Node 23, Type 1, BuildingBlock: AZAVOO_clean_sbu_0, # of connection points: 4
#     Node 24, Type 1, BuildingBlock: AZAVOO_clean_sbu_0, # of connection points: 4
#     Node 25, Type 1, BuildingBlock: AZAVOO_clean_sbu_0, # of connection points: 4
#     Node 26, Type 1, BuildingBlock: AZAVOO_clean_sbu_0, # of connection points: 4
#     Node 27, Type 1, BuildingBlock: AZAVOO_clean_sbu_0, # of connection points: 4
#     Edge 28, Type (0, 1), None
#     Edge 29, Type (0, 1), None
#     Edge 30, Type (0, 1), None
#     Edge 31, Type (0, 1), None
#     Edge 32, Type (0, 1), None
#     Edge 33, Type (0, 1), None
#     Edge 34, Type (0, 1), None
#     Edge 35, Type (0, 1), None
#     Edge 36, Type (0, 1), None
#     Edge 37, Type (0, 1), None
#     Edge 38, Type (0, 1), None
#     Edge 39, Type (0, 1), None
#     Edge 40, Type (0, 1), None
#     Edge 41, Type (0, 1), None
#     Edge 42, Type (0, 1), None
#     Edge 43, Type (0, 1), None
#     Edge 44, Type (0, 1), None
#     Edge 45, Type (0, 1), None
#     Edge 46, Type (0, 1), None
#     Edge 47, Type (0, 1), None
#     Edge 48, Type (0, 1), None
#     Edge 49, Type (0, 1), None
#     Edge 50, Type (0, 1), None
#     Edge 51, Type (0, 1), None
#     Edge 52, Type (0, 1), None
#     Edge 53, Type (0, 1), None
#     Edge 54, Type (0, 1), None
#     Edge 55, Type (0, 1), None
#     Edge 56, Type (0, 1), None
#     Edge 57, Type (0, 1), None
#     Edge 58, Type (0, 1), None
#     Edge 59, Type (0, 1), None
#     Edge 60, Type (0, 1), None
#     Edge 61, Type (0, 1), None
#     Edge 62, Type (0, 1), None
#     Edge 63, Type (0, 1), None
#     Edge 64, Type (0, 1), None
#     Edge 65, Type (0, 1), None
#     Edge 66, Type (0, 1), None
#     Edge 67, Type (0, 1), None
#     Edge 68, Type (0, 1), None
#     Edge 69, Type (0, 1), None
#     Edge 70, Type (0, 1), None
#     Edge 71, Type (0, 1), None
#     Edge 72, Type (0, 1), None
#     Edge 73, Type (0, 1), None
#     Edge 74, Type (0, 1), None
#     Edge 75, Type (0, 1), None
# Relax obj value: 0.002
# Max RMSD: 0.039
# Mean RMSD: 0.025
data_MOF--net-ctn--node1-AZAVOO_clean_sbu_0--node2-VETTIZ_charged_linker_0--edge1-none
_symmetry_space_group_name_H-M    P1
_symmetry_Int_Tables_number       1
_symmetry_cell_setting            triclinic
loop_
_symmetry_equiv_pos_as_xyz
'x, y, z'
_cell_length_a     35.687667
_cell_length_b     36.350488
_cell_length_c     36.260627
_cell_angle_alpha  89.830984
_cell_angle_beta   93.551152
_cell_angle_gamma 93.899382
loop_
_atom_site_label
_atom_site_type_symbol
_atom_site_fract_x
_atom_site_fract_y
_atom_site_fract_z
_atom_type_partial_charge
C0 C 0.0514 0.13751 0.93294 0.0
C1 C 0.02672 0.16595 0.93629 0.0
C2 C 0.99738 0.1608 0.96041 0.0
C3 C 0.01928 0.10177 0.9798 0.0
C4 C 0.04723 0.10572 0.95507 0.0
C5 C 0.07209 0.07358 0.95712 0.0
H6 H 0.11491 0.91292 0.04217 0.0
C7 C 0.02405 0.06742 0.00092 0.0
C8 C 0.05483 0.05038 0.98765 0.0
H9 H 0.17279 0.96633 0.95324 0.0
H10 H 0.12881 0.01483 0.95167 0.0
H11 H 0.11136 0.9812 0.08705 0.0
H12 H 0.0293 0.92582 0.01139 0.0
H13 H 0.0061 0.93748 0.05077 0.0
H14 H 0.04448 0.90775 0.05556 0.0
H15 H 0.08119 0.94315 0.10148 0.0
H16 H 0.06799 0.99013 0.10399 0.0
C17 C 0.11282 0.08844 0.9683 0.0
C18 C 0.06785 0.05338 0.91952 0.0
C19 C 0.94503 0.03998 0.11104 0.0
C20 C 0.94745 0.0138 0.13958 0.0
C21 C 0.97149 0.985 0.13662 0.0
C22 C 0.99389 0.98307 0.10636 0.0
C23 C 0.99296 0.01075 0.07916 0.0
C24 C 0.96839 0.03828 0.0815 0.0
C25 C 0.97311 0.06675 0.05158 0.0
C26 C 0.00496 0.05201 0.03122 0.0
C27 C 0.01621 0.01919 0.04738 0.0
C28 C 0.98479 0.10446 0.07039 0.0
C29 C 0.93597 0.0659 0.02698 0.0
C30 C 0.11812 0.9347 0.02192 0.0
C31 C 0.14726 0.93552 0.99761 0.0
C32 C 0.15053 0.96498 0.97228 0.0
C33 C 0.12498 0.99307 0.97144 0.0
C34 C 0.09621 0.99187 0.9965 0.0
C35 C 0.09344 0.96285 0.02112 0.0
C36 C 0.06292 0.96622 0.04719 0.0
C37 C 0.04666 0.00147 0.03364 0.0
C38 C 0.06605 0.01675 0.00394 0.0
C39 C 0.0815 0.97016 0.08705 0.0
C40 C 0.03415 0.93254 0.0413 0.0
H41 H 0.97073 0.12719 1.0 0.0
H42 H 0.07433 0.14059 0.91473 0.0
H43 H 0.0378 0.05065 0.90909 0.0
H44 H 0.07696 0.02501 0.92126 0.0
H45 H 0.084 0.06885 0.89855 0.0
H46 H 0.113 0.10979 0.99025 0.0
H47 H 0.12661 0.10123 0.94431 0.0
H48 H 0.13042 0.06698 0.98004 0.0
H49 H 0.92726 0.06284 0.11288 0.0
H50 H 0.97365 0.96442 0.15814 0.0
H51 H 0.01193 0.96068 0.10598 0.0
H52 H 0.00271 0.10081 0.0962 0.0
H53 H 0.95976 0.11868 0.07791 0.0
H54 H 0.0022 0.12314 0.05335 0.0
H55 H 0.92242 0.03743 0.02481 0.0
H56 H 0.94039 0.07417 0.99813 0.0
H57 H 0.91551 0.08372 0.03857 0.0
H58 H 0.97774 0.18175 0.96342 0.0
C59 C 0.99336 0.12892 0.98184 0.0
C60 C 0.2332 0.61522 0.25907 0.0
C61 C 0.19536 0.61038 0.24661 0.0
C62 C 0.17909 0.63741 0.2242 0.0
C63 C 0.23947 0.67288 0.22577 0.0
C64 C 0.25433 0.64682 0.2491 0.0
C65 C 0.2938 0.65737 0.26333 0.0
H66 H 0.4337 0.78808 0.29197 0.0
C67 C 0.26955 0.70229 0.2211 0.0
C68 C 0.3009 0.69384 0.24379 0.0
H69 H 0.41669 0.6811 0.34313 0.0
H70 H 0.36547 0.66497 0.29952 0.0
H71 H 0.34761 0.80938 0.27652 0.0
H72 H 0.41168 0.74864 0.20228 0.0
H73 H 0.38613 0.78184 0.17815 0.0
H74 H 0.42317 0.79667 0.21199 0.0
H75 H 0.38991 0.82932 0.25781 0.0
H76 H 0.34585 0.8277 0.23099 0.0
C77 C 0.29396 0.66167 0.30609 0.0
C78 C 0.31939 0.62791 0.2499 0.0
C79 C 0.25184 0.79656 0.12064 0.0
C80 C 0.27507 0.82518 0.10683 0.0
C81 C 0.30983 0.83542 0.12585 0.0
C82 C 0.32181 0.81604 0.15779 0.0
C83 C 0.29878 0.78613 0.17038 0.0
C84 C 0.26406 0.77748 0.1521 0.0
C85 C 0.24295 0.74508 0.1686 0.0
C86 C 0.27167 0.7338 0.19812 0.0
C87 C 0.30439 0.75801 0.1997 0.0
C88 C 0.20736 0.75865 0.18537 0.0
C89 C 0.23453 0.71506 0.1384 0.0
C90 C 0.41889 0.76114 0.29316 0.0
C91 C 0.42837 0.736 0.32153 0.0
C92 C 0.40924 0.70102 0.32206 0.0
C93 C 0.3792 0.69183 0.29688 0.0
C94 C 0.36744 0.71809 0.2711 0.0
C95 C 0.38802 0.75141 0.26792 0.0
C96 C 0.37153 0.77407 0.23638 0.0
C97 C 0.33534 0.75074 0.22505 0.0
C98 C 0.33365 0.71814 0.24589 0.0
C99 C 0.36333 0.81233 0.25101 0.0
C100 C 0.39952 0.77575 0.20549 0.0
H101 H 0.18775 0.68821 0.19568 0.0
H102 H 0.24597 0.59512 0.27714 0.0
H103 H 0.30991 0.61827 0.22152 0.0
H104 H 0.34891 0.63866 0.24775 0.0
H105 H 0.31874 0.60342 0.26831 0.0
H106 H 0.26524 0.66431 0.3157 0.0
H107 H 0.30545 0.63755 0.3206 0.0
H108 H 0.31007 0.68712 0.31627 0.0
H109 H 0.22495 0.78843 0.10643 0.0
H110 H 0.3281 0.85756 0.11539 0.0
H111 H 0.34857 0.82468 0.17124 0.0
H112 H 0.21068 0.78861 0.19202 0.0
H113 H 0.18217 0.75417 0.16594 0.0
H114 H 0.20165 0.74508 0.21203 0.0
H115 H 0.2601 0.71118 0.12318 0.0
H116 H 0.22592 0.68779 0.14957 0.0
H117 H 0.21194 0.72296 0.11805 0.0
H118 H 0.14976 0.63389 0.21442 0.0
C119 C 0.20117 0.66869 0.21339 0.0
C120 C 0.02151 0.38156 0.96351 0.0
C121 C 0.99336 0.36731 0.93791 0.0
C122 C 0.96071 0.38639 0.93071 0.0
C123 C 0.9838 0.4326 0.97628 0.0
C124 C 0.01579 0.41355 0.98298 0.0
C125 C 0.03973 0.42814 0.01589 0.0
H126 H 0.06241 0.5409 0.16442 0.0
C127 C 0.98494 0.46256 0.00389 0.0
C128 C 0.0173 0.45954 0.02754 0.0
H129 H 0.13447 0.45753 0.13187 0.0
H130 H 0.09418 0.44437 0.07703 0.0
H131 H 0.97865 0.49864 0.13709 0.0
H132 H 0.05757 0.57647 0.08978 0.0
H133 H 0.01451 0.58351 0.06552 0.0
H134 H 0.01978 0.5917 0.11478 0.0
H135 H 0.99131 0.54467 0.15361 0.0
H136 H 0.95469 0.53592 0.1179 0.0
C137 C 0.04131 0.39714 0.04547 0.0
C138 C 0.07852 0.44227 0.00252 0.0
C139 C 0.88394 0.55553 0.99944 0.0
C140 C 0.88036 0.58751 0.02032 0.0
C141 C 0.90734 0.59703 0.04936 0.0
C142 C 0.93705 0.57494 0.05803 0.0
C143 C 0.94039 0.54313 0.0372 0.0
C144 C 0.91466 0.5341 0.00798 0.0
C145 C 0.9244 0.50005 0.988 0.0
C146 C 0.96048 0.49095 0.0097 0.0
C147 C 0.96896 0.51582 0.03906 0.0
C148 C 0.89227 0.4697 0.99203 0.0
C149 C 0.93143 0.5107 0.94756 0.0
C150 C 0.06878 0.51929 0.14575 0.0
C151 C 0.10088 0.4995 0.1526 0.0
C152 C 0.1095 0.4727 0.12711 0.0
C153 C 0.08614 0.46518 0.0953 0.0
C154 C 0.05401 0.48502 0.08863 0.0
C155 C 0.04609 0.51199 0.11326 0.0
C156 C 0.01274 0.53253 0.09961 0.0
C157 C 0.00058 0.51163 0.06406 0.0
C158 C 0.02478 0.48383 0.05802 0.0
C159 C 0.98263 0.52799 0.12851 0.0
C160 C 0.02659 0.57318 0.09218 0.0
H161 H 0.93035 0.43258 0.9433 0.0
H162 H 0.04603 0.36633 0.97061 0.0
H163 H 0.07526 0.4559 0.9751 0.0
H164 H 0.09321 0.46351 0.02092 0.0
H165 H 0.097 0.4192 0.99963 0.0
H166 H 0.01545 0.37816 0.04325 0.0
H167 H 0.06573 0.38028 0.04232 0.0
H168 H 0.04235 0.40769 0.07407 0.0
H169 H 0.8637 0.54768 0.97687 0.0
H170 H 0.90506 0.62131 0.06612 0.0
H171 H 0.95611 0.58344 0.08083 0.0
H172 H 0.87848 0.47272 0.01845 0.0
H173 H 0.87022 0.47104 0.96915 0.0
H174 H 0.9025 0.44167 0.99321 0.0
H175 H 0.94938 0.5369 0.94659 0.0
H176 H 0.94647 0.49008 0.93314 0.0
H177 H 0.90448 0.5148 0.93153 0.0
H178 H 0.93835 0.37508 0.91162 0.0
C179 C 0.95602 0.41941 0.9494 0.0
C180 C 0.62865 0.81053 0.28802 0.0
C181 C 0.59999 0.78177 0.28386 0.0
C182 C 0.59922 0.75808 0.25313 0.0
C183 C 0.65869 0.78631 0.23601 0.0
C184 C 0.65774 0.81244 0.26346 0.0
C185 C 0.69173 0.83981 0.2636 0.0
H186 H 0.8696 0.87534 0.208 0.0
C187 C 0.6956 0.79045 0.2203 0.0
C188 C 0.7155 0.82169 0.23621 0.0
H189 H 0.80303 0.95123 0.26256 0.0
H190 H 0.75131 0.90391 0.26381 0.0
H191 H 0.80181 0.84559 0.1487 0.0
H192 H 0.84918 0.80562 0.25181 0.0
H193 H 0.82994 0.76606 0.22788 0.0
H194 H 0.86781 0.79417 0.20888 0.0
H195 H 0.84953 0.83331 0.15729 0.0
H196 H 0.81289 0.79928 0.14381 0.0
C197 C 0.67855 0.87723 0.24911 0.0
C198 C 0.71146 0.84215 0.30272 0.0
C199 C 0.73306 0.69351 0.13199 0.0
C200 C 0.76805 0.68547 0.11978 0.0
C201 C 0.8012 0.70349 0.13573 0.0
C202 C 0.79929 0.73185 0.16135 0.0
C203 C 0.7639 0.74189 0.171 0.0
C204 C 0.73178 0.72121 0.15845 0.0
C205 C 0.69735 0.73272 0.17591 0.0
C206 C 0.7139 0.76585 0.19841 0.0
C207 C 0.75251 0.77175 0.19421 0.0
C208 C 0.66865 0.74431 0.14497 0.0
C209 C 0.68245 0.70036 0.2004 0.0
C210 C 0.84399 0.88191 0.22034 0.0
C211 C 0.84039 0.91702 0.23509 0.0
C212 C 0.80637 0.92444 0.25066 0.0
C213 C 0.77642 0.89711 0.25126 0.0
C214 C 0.78039 0.86237 0.23555 0.0
C215 C 0.81375 0.85549 0.22023 0.0
C216 C 0.8125 0.8183 0.20225 0.0
C217 C 0.77229 0.80443 0.20795 0.0
C218 C 0.75372 0.82984 0.22816 0.0
C219 C 0.81964 0.82412 0.16083 0.0
C220 C 0.84142 0.79474 0.22351 0.0
H221 H 0.62672 0.74084 0.20697 0.0
H222 H 0.62929 0.82989 0.31072 0.0
H223 H 0.71695 0.8141 0.31316 0.0
H224 H 0.73884 0.85828 0.30326 0.0
H225 H 0.69369 0.85523 0.32235 0.0
H226 H 0.65241 0.87347 0.23075 0.0
H227 H 0.67255 0.8955 0.27222 0.0
H228 H 0.6993 0.89177 0.23182 0.0
H229 H 0.70733 0.6794 0.12034 0.0
H230 H 0.82839 0.69751 0.12634 0.0
H231 H 0.82526 0.74589 0.17145 0.0
H232 H 0.68303 0.76161 0.12401 0.0
H233 H 0.65441 0.71976 0.1306 0.0
H234 H 0.64697 0.76121 0.1554 0.0
H235 H 0.70246 0.67823 0.20376 0.0
H236 H 0.67835 0.70941 0.22895 0.0
H237 H 0.65551 0.6871 0.18834 0.0
H238 H 0.57697 0.73651 0.24847 0.0
C239 C 0.62838 0.76024 0.22924 0.0
C240 C 0.04097 0.86856 0.55937 0.0
C241 C 0.00935 0.84331 0.555 0.0
C242 C 0.97903 0.85135 0.53037 0.0
C243 C 0.01298 0.90761 0.51226 0.0
C244 C 0.04171 0.90112 0.53832 0.0
C245 C 0.07187 0.93237 0.5401 0.0
H246 H 0.12972 0.10342 0.48063 0.0
C247 C 0.02255 0.94266 0.49366 0.0
C248 C 0.05634 0.95825 0.51071 0.0
H249 H 0.18865 0.0364 0.56038 0.0
H250 H 0.13907 0.98714 0.55177 0.0
H251 H 0.0432 0.08198 0.50289 0.0
H252 H 0.11741 0.04711 0.42437 0.0
H253 H 0.07314 0.03182 0.40435 0.0
H254 H 0.08426 0.08044 0.41209 0.0
H255 H 0.05875 0.10793 0.46378 0.0
H256 H 0.0173 0.07659 0.45993 0.0
C257 C 0.07367 0.94953 0.57917 0.0
C258 C 0.10923 0.91719 0.52951 0.0
C259 C 0.95683 0.97258 0.37028 0.0
C260 C 0.96073 0.0033 0.34693 0.0
C261 C 0.98123 0.03554 0.35991 0.0
C262 C 0.00035 0.03621 0.39479 0.0
C263 C 0.99863 0.00439 0.41684 0.0
C264 C 0.97547 0.974 0.40551 0.0
C265 C 0.97467 0.94418 0.43449 0.0
C266 C 0.00512 0.9599 0.46256 0.0
C267 C 0.01918 0.99489 0.45169 0.0
C268 C 0.93508 0.94136 0.45026 0.0
C269 C 0.98546 0.90785 0.41712 0.0
C270 C 0.13172 0.07824 0.49653 0.0
C271 C 0.16249 0.07376 0.5216 0.0
C272 C 0.16493 0.04028 0.54097 0.0
C273 C 0.13608 0.01196 0.53608 0.0
C274 C 0.10505 0.01713 0.51106 0.0
C275 C 0.10391 0.0496 0.4912 0.0
C276 C 0.07134 0.04936 0.46304 0.0
C277 C 0.052 0.01187 0.47016 0.0
C278 C 0.07125 0.99328 0.4988 0.0
C279 C 0.04627 0.08072 0.47257 0.0
C280 C 0.08706 0.05249 0.42396 0.0
H281 H 0.95728 0.88762 0.48994 0.0
H282 H 0.06454 0.86291 0.57832 0.0
H283 H 0.10401 0.89613 0.50725 0.0
H284 H 0.12872 0.93861 0.5182 0.0
H285 H 0.12364 0.90397 0.5536 0.0
H286 H 0.04483 0.95296 0.58808 0.0
H287 H 0.08794 0.93156 0.59968 0.0
H288 H 0.08818 0.97728 0.58059 0.0
H289 H 0.94036 0.94788 0.3609 0.0
H290 H 0.98422 0.0595 0.34221 0.0
H291 H 0.01672 0.06104 0.40276 0.0
H292 H 0.91772 0.96427 0.44076 0.0
H293 H 0.91891 0.91526 0.4417 0.0
H294 H 0.93686 0.94314 0.48089 0.0
H295 H 0.01232 0.91238 0.40324 0.0
H296 H 0.98943 0.88587 0.43774 0.0
H297 H 0.96331 0.89725 0.39622 0.0
H298 H 0.95463 0.83199 0.52659 0.0
C299 C 0.98072 0.88334 0.50892 0.0
C300 C 0.30044 0.6144 0.76827 0.0
C301 C 0.29586 0.58912 0.73885 0.0
C302 C 0.26378 0.58979 0.71422 0.0
C303 C 0.24263 0.64154 0.7474 0.0
C304 C 0.27363 0.64025 0.77193 0.0
C305 C 0.27497 0.6697 0.801 0.0
H306 H 0.19213 0.804 0.88692 0.0
C307 C 0.22079 0.67228 0.75865 0.0
C308 C 0.23927 0.68869 0.79011 0.0
H309 H 0.30031 0.75902 0.91164 0.0
H310 H 0.29213 0.72209 0.8578 0.0
H311 H 0.14481 0.72804 0.85646 0.0
H312 H 0.20688 0.80968 0.79227 0.0
H313 H 0.16122 0.79867 0.77201 0.0
H314 H 0.16666 0.82095 0.8164 0.0
H315 H 0.13116 0.77467 0.85229 0.0
H316 H 0.118 0.74125 0.8165 0.0
C317 C 0.27293 0.65022 0.83901 0.0
C318 C 0.31098 0.69556 0.79672 0.0
C319 C 0.10732 0.70292 0.67816 0.0
C320 C 0.07999 0.72851 0.68014 0.0
C321 C 0.08041 0.7511 0.71181 0.0
C322 C 0.10902 0.74908 0.74033 0.0
C323 C 0.13703 0.72393 0.73717 0.0
C324 C 0.13503 0.70088 0.70671 0.0
C325 C 0.16527 0.67437 0.70799 0.0
C326 C 0.18725 0.68626 0.74332 0.0
C327 C 0.17106 0.71551 0.76061 0.0
C328 C 0.14645 0.63472 0.7108 0.0
C329 C 0.18871 0.68128 0.67368 0.0
C330 C 0.21401 0.7863 0.88037 0.0
C331 C 0.24643 0.78374 0.90454 0.0
C332 C 0.27456 0.76095 0.89448 0.0
C333 C 0.26985 0.73927 0.8629 0.0
C334 C 0.23671 0.74009 0.84039 0.0
C335 C 0.2099 0.76421 0.84809 0.0
C336 C 0.17784 0.76222 0.8185 0.0
C337 C 0.18938 0.73171 0.7934 0.0
C338 C 0.22374 0.71878 0.80715 0.0
C339 C 0.14079 0.75114 0.83673 0.0
C340 C 0.17779 0.79986 0.79868 0.0
H341 H 0.21375 0.61526 0.69832 0.0
H342 H 0.32482 0.61476 0.78764 0.0
H343 H 0.32132 0.69406 0.76847 0.0
H344 H 0.30586 0.72503 0.8003 0.0
H345 H 0.33427 0.68824 0.81654 0.0
H346 H 0.25248 0.62568 0.83714 0.0
H347 H 0.30076 0.6406 0.84862 0.0
H348 H 0.26292 0.66763 0.86071 0.0
H349 H 0.10715 0.68451 0.65467 0.0
H350 H 0.05925 0.77084 0.71404 0.0
H351 H 0.10835 0.76708 0.76365 0.0
H352 H 0.11883 0.63467 0.72347 0.0
H353 H 0.14135 0.62169 0.68311 0.0
H354 H 0.16317 0.61666 0.72901 0.0
H355 H 0.19271 0.71131 0.66781 0.0
H356 H 0.21742 0.67182 0.6774 0.0
H357 H 0.17437 0.66774 0.64872 0.0
H358 H 0.25956 0.57064 0.69127 0.0
C359 C 0.23716 0.61581 0.71836 0.0
C360 C 0.86401 0.43718 0.50458 0.0
C361 C 0.85897 0.40393 0.48495 0.0
C362 C 0.88425 0.39625 0.45812 0.0
C363 C 0.91873 0.45522 0.47032 0.0
C364 C 0.89438 0.46198 0.49738 0.0
C365 C 0.90575 0.49689 0.51835 0.0
H366 H 0.01284 0.65662 0.5346 0.0
C367 C 0.94736 0.48661 0.47001 0.0
C368 C 0.94012 0.51079 0.49851 0.0
H369 H 0.92596 0.61439 0.60461 0.0
H370 H 0.91916 0.55774 0.5702 0.0
H371 H 0.97377 0.62651 0.45739 0.0
H372 H 0.05496 0.58296 0.53505 0.0
H373 H 0.06613 0.56709 0.49171 0.0
H374 H 0.06861 0.61607 0.50083 0.0
H375 H 0.02128 0.64576 0.46512 0.0
H376 H 0.0093 0.6093 0.43211 0.0
C377 C 0.87326 0.52293 0.51292 0.0
C378 C 0.91588 0.48679 0.55925 0.0
C379 C 0.04493 0.49516 0.37224 0.0
C380 C 0.07473 0.5215 0.36627 0.0
C381 C 0.07981 0.55299 0.38914 0.0
C382 C 0.05618 0.55822 0.41761 0.0
C383 C 0.02698 0.53166 0.42376 0.0
C384 C 0.02158 0.5007 0.40142 0.0
C385 C 0.98976 0.47492 0.41361 0.0
C386 C 0.97712 0.49581 0.44655 0.0
C387 C 0.99906 0.5291 0.45211 0.0
C388 C 0.95897 0.47155 0.38165 0.0
C389 C 0.00589 0.43784 0.42531 0.0
C390 C 0.99262 0.63502 0.54271 0.0
C391 C 0.96966 0.64022 0.57216 0.0
C392 C 0.94402 0.61118 0.58206 0.0
C393 C 0.93991 0.57828 0.56186 0.0
C394 C 0.96185 0.57406 0.53153 0.0
C395 C 0.98847 0.60165 0.52307 0.0
C396 C 0.01047 0.59134 0.49098 0.0
C397 C 0.99188 0.55344 0.48107 0.0
C398 C 0.96304 0.54389 0.50454 0.0
C399 C 0.00375 0.61968 0.45966 0.0
C400 C 0.05228 0.58944 0.50502 0.0
H401 H 0.93217 0.41474 0.42951 0.0
H402 H 0.84558 0.44309 0.52616 0.0
H403 H 0.92354 0.45771 0.56214 0.0
H404 H 0.94097 0.50332 0.57106 0.0
H405 H 0.8919 0.49018 0.57678 0.0
H406 H 0.86256 0.52323 0.48344 0.0
H407 H 0.84939 0.51366 0.52971 0.0
H408 H 0.88184 0.55187 0.52001 0.0
H409 H 0.04059 0.4705 0.35541 0.0
H410 H 0.10229 0.57389 0.38508 0.0
H411 H 0.06181 0.58275 0.43389 0.0
H412 H 0.95368 0.49921 0.37 0.0
H413 H 0.96775 0.4542 0.35896 0.0
H414 H 0.9316 0.45995 0.39041 0.0
H415 H 0.03544 0.44215 0.43698 0.0
H416 H 0.99055 0.42394 0.44758 0.0
H417 H 0.00577 0.4188 0.40139 0.0
H418 H 0.88088 0.37043 0.44303 0.0
C419 C 0.91391 0.42193 0.45038 0.0
C420 C 0.76477 0.69572 0.89544 0.0
C421 C 0.7356 0.70097 0.91889 0.0
C422 C 0.7084 0.72605 0.90826 0.0
C423 C 0.7423 0.74366 0.85464 0.0
C424 C 0.76755 0.71735 0.86351 0.0
C425 C 0.79802 0.71715 0.83663 0.0
H426 H 0.87859 0.79358 0.6876 0.0
C427 C 0.75462 0.76369 0.82168 0.0
C428 C 0.78695 0.74787 0.8105 0.0
H429 H 0.91435 0.70091 0.75266 0.0
H430 H 0.86247 0.70592 0.79162 0.0
H431 H 0.85539 0.84327 0.75998 0.0
H432 H 0.7979 0.77038 0.67891 0.0
H433 H 0.76389 0.80006 0.69118 0.0
H434 H 0.80554 0.81871 0.66984 0.0
H435 H 0.85159 0.85187 0.71112 0.0
H436 H 0.81592 0.86444 0.74041 0.0
C437 C 0.83634 0.72672 0.8581 0.0
C438 C 0.79493 0.67916 0.81707 0.0
C439 C 0.69637 0.88297 0.782 0.0
C440 C 0.70402 0.90741 0.75278 0.0
C441 C 0.72682 0.89635 0.72492 0.0
C442 C 0.74468 0.86353 0.72781 0.0
C443 C 0.74004 0.84132 0.75893 0.0
C444 C 0.7146 0.84981 0.78432 0.0
C445 C 0.71126 0.8205 0.81369 0.0
C446 C 0.74111 0.79501 0.803 0.0
C447 C 0.75838 0.80812 0.77145 0.0
C448 C 0.7214 0.83886 0.85178 0.0
C449 C 0.67102 0.80133 0.8097 0.0
C450 C 0.87567 0.77469 0.71057 0.0
C451 C 0.90077 0.74697 0.71711 0.0
C452 C 0.8955 0.72265 0.74705 0.0
C453 C 0.8652 0.72546 0.76955 0.0
C454 C 0.83987 0.75289 0.7621 0.0
C455 C 0.84551 0.77699 0.73312 0.0
C456 C 0.81569 0.8041 0.72877 0.0
C457 C 0.79096 0.79223 0.75989 0.0
C458 C 0.80532 0.76237 0.77944 0.0
C459 C 0.83537 0.84309 0.73519 0.0
C460 C 0.7947 0.79836 0.69018 0.0
H461 H 0.69065 0.76661 0.87026 0.0
H462 H 0.7861 0.67668 0.90267 0.0
H463 H 0.76496 0.66886 0.8121 0.0
H464 H 0.80631 0.68025 0.78943 0.0
H465 H 0.80939 0.65833 0.83413 0.0
H466 H 0.83352 0.74782 0.87974 0.0
H467 H 0.84716 0.70197 0.87202 0.0
H468 H 0.858 0.73902 0.8405 0.0
H469 H 0.67815 0.8902 0.80326 0.0
H470 H 0.73217 0.91384 0.70131 0.0
H471 H 0.76254 0.85745 0.70628 0.0
H472 H 0.74798 0.85664 0.85105 0.0
H473 H 0.69886 0.85643 0.85957 0.0
H474 H 0.72604 0.8188 0.87417 0.0
H475 H 0.65713 0.80579 0.78187 0.0
H476 H 0.67118 0.77097 0.81246 0.0
H477 H 0.65268 0.81194 0.83035 0.0
H478 H 0.68534 0.73038 0.92548 0.0
C479 C 0.71156 0.74728 0.87625 0.0
C480 C 0.26477 0.19572 0.39544 0.0
C481 C 0.2356 0.20097 0.41889 0.0
C482 C 0.2084 0.22605 0.40826 0.0
C483 C 0.2423 0.24366 0.35463 0.0
C484 C 0.26755 0.21735 0.36351 0.0
C485 C 0.29802 0.21715 0.33663 0.0
H486 H 0.37859 0.29358 0.1876 0.0
C487 C 0.25462 0.26369 0.32168 0.0
C488 C 0.28695 0.24787 0.3105 0.0
H489 H 0.41435 0.20091 0.25266 0.0
H490 H 0.36247 0.20592 0.29162 0.0
H491 H 0.35539 0.34327 0.25998 0.0
H492 H 0.2979 0.27038 0.17891 0.0
H493 H 0.26389 0.30005 0.19118 0.0
H494 H 0.30554 0.31871 0.16984 0.0
H495 H 0.35159 0.35187 0.21112 0.0
H496 H 0.31591 0.36444 0.24041 0.0
C497 C 0.33634 0.22672 0.35809 0.0
C498 C 0.29493 0.17916 0.31707 0.0
C499 C 0.19636 0.38297 0.282 0.0
C500 C 0.20402 0.40741 0.25278 0.0
C501 C 0.22682 0.39635 0.22492 0.0
C502 C 0.24468 0.36353 0.22781 0.0
C503 C 0.24004 0.34132 0.25893 0.0
C504 C 0.2146 0.34981 0.28432 0.0
C505 C 0.21126 0.3205 0.31369 0.0
C506 C 0.2411 0.295 0.303 0.0
C507 C 0.25838 0.30812 0.27144 0.0
C508 C 0.2214 0.33886 0.35178 0.0
C509 C 0.17102 0.30133 0.3097 0.0
C510 C 0.37567 0.27469 0.21057 0.0
C511 C 0.40077 0.24697 0.21711 0.0
C512 C 0.3955 0.22265 0.24705 0.0
C513 C 0.3652 0.22546 0.26955 0.0
C514 C 0.33987 0.25289 0.2621 0.0
C515 C 0.34551 0.27699 0.23312 0.0
C516 C 0.31569 0.3041 0.22877 0.0
C517 C 0.29096 0.29223 0.25989 0.0
C518 C 0.30532 0.26237 0.27944 0.0
C519 C 0.33536 0.34309 0.23519 0.0
C520 C 0.2947 0.29836 0.19018 0.0
H521 H 0.19065 0.26661 0.37026 0.0
H522 H 0.2861 0.17668 0.40267 0.0
H523 H 0.26496 0.16886 0.3121 0.0
H524 H 0.30631 0.18025 0.28943 0.0
H525 H 0.30939 0.15833 0.33413 0.0
H526 H 0.33352 0.24782 0.37974 0.0
H527 H 0.34716 0.20197 0.37202 0.0
H528 H 0.358 0.23902 0.3405 0.0
H529 H 0.17815 0.3902 0.30326 0.0
H530 H 0.23216 0.41384 0.20131 0.0
H531 H 0.26254 0.35745 0.20628 0.0
H532 H 0.24798 0.35664 0.35105 0.0
H533 H 0.19886 0.35643 0.35957 0.0
H534 H 0.22604 0.3188 0.37417 0.0
H535 H 0.15712 0.30579 0.28187 0.0
H536 H 0.17118 0.27097 0.31245 0.0
H537 H 0.15268 0.31194 0.33035 0.0
H538 H 0.18534 0.23038 0.42548 0.0
C539 C 0.21156 0.24728 0.37625 0.0
C540 C 0.5215 0.88156 0.46351 0.0
C541 C 0.49336 0.86731 0.43791 0.0
C542 C 0.4607 0.88639 0.43071 0.0
C543 C 0.4838 0.9326 0.47628 0.0
C544 C 0.51579 0.91355 0.48299 0.0
C545 C 0.53973 0.92813 0.51589 0.0
H546 H 0.5624 0.0409 0.66442 0.0
C547 C 0.48494 0.96256 0.5039 0.0
C548 C 0.5173 0.95954 0.52754 0.0
H549 H 0.63446 0.95753 0.63187 0.0
H550 H 0.59418 0.94436 0.57704 0.0
H551 H 0.47865 0.99864 0.6371 0.0
H552 H 0.55757 0.07647 0.58978 0.0
H553 H 0.51451 0.08351 0.56553 0.0
H554 H 0.51978 0.0917 0.61479 0.0
H555 H 0.49131 0.04467 0.65361 0.0
H556 H 0.45469 0.03592 0.6179 0.0
C557 C 0.54131 0.89714 0.54548 0.0
C558 C 0.57851 0.94227 0.50253 0.0
C559 C 0.38394 0.05552 0.49944 0.0
C560 C 0.38036 0.0875 0.52032 0.0
C561 C 0.40734 0.09703 0.54936 0.0
C562 C 0.43705 0.07494 0.55804 0.0
C563 C 0.44039 0.04313 0.5372 0.0
C564 C 0.41466 0.0341 0.50798 0.0
C565 C 0.4244 5e-05 0.488 0.0
C566 C 0.46048 0.99094 0.5097 0.0
C567 C 0.46896 0.01581 0.53906 0.0
C568 C 0.39227 0.9697 0.49203 0.0
C569 C 0.43143 0.0107 0.44756 0.0
C570 C 0.56877 0.01928 0.64575 0.0
C571 C 0.60088 -0.0005 0.65261 0.0
C572 C 0.6095 0.9727 0.62711 0.0
C573 C 0.58614 0.96518 0.59531 0.0
C574 C 0.55401 0.98502 0.58864 0.0
C575 C 0.54608 0.01199 0.61326 0.0
C576 C 0.51274 0.03252 0.59961 0.0
C577 C 0.50058 0.01163 0.56406 0.0
C578 C 0.52478 0.98383 0.55802 0.0
C579 C 0.48263 0.02798 0.62852 0.0
C580 C 0.52658 0.07318 0.59218 0.0
H581 H 0.43035 0.93258 0.4433 0.0
H582 H 0.54603 0.86633 0.47061 0.0
H583 H 0.57525 0.9559 0.4751 0.0
H584 H 0.59321 0.96351 0.52092 0.0
H585 H 0.597 0.9192 0.49964 0.0
H586 H 0.51545 0.87815 0.54325 0.0
H587 H 0.56572 0.88028 0.54232 0.0
H588 H 0.54235 0.90769 0.57407 0.0
H589 H 0.3637 0.04768 0.47687 0.0
H590 H 0.40506 0.12131 0.56613 0.0
H591 H 0.45611 0.08343 0.58084 0.0
H592 H 0.37848 0.97272 0.51845 0.0
H593 H 0.37022 0.97104 0.46915 0.0
H594 H 0.40249 0.94167 0.49321 0.0
H595 H 0.44937 0.0369 0.4466 0.0
H596 H 0.44647 0.99008 0.43314 0.0
H597 H 0.40448 0.0148 0.43153 0.0
H598 H 0.43835 0.87508 0.41162 0.0
C599 C 0.45602 0.91941 0.4494 0.0
C600 C 0.12865 0.31053 0.78802 0.0
C601 C 0.09999 0.28178 0.78385 0.0
C602 C 0.09922 0.25808 0.75313 0.0
C603 C 0.15869 0.28631 0.73601 0.0
C604 C 0.15774 0.31244 0.76345 0.0
C605 C 0.19173 0.33981 0.7636 0.0
H606 H 0.3696 0.37534 0.708 0.0
C607 C 0.1956 0.29045 0.72029 0.0
C608 C 0.2155 0.32169 0.73621 0.0
H609 H 0.30303 0.45123 0.76256 0.0
H610 H 0.25131 0.40391 0.76381 0.0
H611 H 0.30181 0.34559 0.6487 0.0
H612 H 0.34918 0.30563 0.75181 0.0
H613 H 0.32994 0.26606 0.72788 0.0
H614 H 0.36781 0.29418 0.70888 0.0
H615 H 0.34953 0.33331 0.65729 0.0
H616 H 0.31289 0.29928 0.64381 0.0
C617 C 0.17855 0.37723 0.7491 0.0
C618 C 0.21146 0.34215 0.80272 0.0
C619 C 0.23306 0.19352 0.63199 0.0
C620 C 0.26805 0.18547 0.61978 0.0
C621 C 0.3012 0.20349 0.63573 0.0
C622 C 0.29929 0.23185 0.66135 0.0
C623 C 0.2639 0.24189 0.671 0.0
C624 C 0.23178 0.22121 0.65845 0.0
C625 C 0.19735 0.23272 0.67591 0.0
C626 C 0.21389 0.26585 0.69841 0.0
C627 C 0.25251 0.27175 0.69421 0.0
C628 C 0.16865 0.24431 0.64497 0.0
C629 C 0.18245 0.20036 0.7004 0.0
C630 C 0.34399 0.38192 0.72034 0.0
C631 C 0.34039 0.41702 0.73509 0.0
C632 C 0.30636 0.42444 0.75066 0.0
C633 C 0.27642 0.39712 0.75126 0.0
C634 C 0.28039 0.36237 0.73555 0.0
C635 C 0.31375 0.35549 0.72023 0.0
C636 C 0.3125 0.3183 0.70225 0.0
C637 C 0.27229 0.30443 0.70795 0.0
C638 C 0.25372 0.32984 0.72816 0.0
C639 C 0.31964 0.32412 0.66083 0.0
C640 C 0.34141 0.29474 0.72351 0.0
H641 H 0.12672 0.24084 0.70696 0.0
H642 H 0.12929 0.32989 0.81071 0.0
H643 H 0.21695 0.3141 0.81316 0.0
H644 H 0.23884 0.35828 0.80326 0.0
H645 H 0.19369 0.35523 0.82235 0.0
H646 H 0.15241 0.37348 0.73074 0.0
H647 H 0.17255 0.3955 0.77222 0.0
H648 H 0.1993 0.39177 0.73182 0.0
H649 H 0.20733 0.1794 0.62034 0.0
H650 H 0.32839 0.19751 0.62634 0.0
H651 H 0.32526 0.24589 0.67145 0.0
H652 H 0.18303 0.26161 0.62401 0.0
H653 H 0.1544 0.21976 0.6306 0.0
H654 H 0.14697 0.26122 0.6554 0.0
H655 H 0.20246 0.17824 0.70376 0.0
H656 H 0.17835 0.20941 0.72895 0.0
H657 H 0.15551 0.1871 0.68834 0.0
H658 H 0.07696 0.23651 0.74847 0.0
C659 C 0.12838 0.26025 0.72923 0.0
C660 C 0.73319 0.11522 0.75907 0.0
C661 C 0.69536 0.11038 0.74661 0.0
C662 C 0.67909 0.13741 0.7242 0.0
C663 C 0.73947 0.17288 0.72578 0.0
C664 C 0.75432 0.14682 0.7491 0.0
C665 C 0.7938 0.15737 0.76333 0.0
H666 H 0.9337 0.28808 0.79197 0.0
C667 C 0.76955 0.20229 0.7211 0.0
C668 C 0.8009 0.19384 0.7438 0.0
H669 H 0.91669 0.1811 0.84313 0.0
H670 H 0.86547 0.16497 0.79952 0.0
H671 H 0.84761 0.30938 0.77652 0.0
H672 H 0.91168 0.24864 0.70228 0.0
H673 H 0.88613 0.28184 0.67815 0.0
H674 H 0.92316 0.29667 0.712 0.0
H675 H 0.8899 0.32933 0.75781 0.0
H676 H 0.84585 0.3277 0.731 0.0
C677 C 0.79396 0.16168 0.8061 0.0
C678 C 0.81938 0.12791 0.7499 0.0
C679 C 0.75184 0.29656 0.62064 0.0
C680 C 0.77507 0.32518 0.60683 0.0
C681 C 0.80983 0.33542 0.62585 0.0
C682 C 0.82181 0.31604 0.65779 0.0
C683 C 0.79878 0.28613 0.67039 0.0
C684 C 0.76406 0.27748 0.6521 0.0
C685 C 0.74295 0.24508 0.6686 0.0
C686 C 0.77167 0.2338 0.69812 0.0
C687 C 0.80438 0.25801 0.6997 0.0
C688 C 0.70736 0.25865 0.68537 0.0
C689 C 0.73453 0.21506 0.6384 0.0
C690 C 0.91889 0.26114 0.79317 0.0
C691 C 0.92837 0.236 0.82153 0.0
C692 C 0.90924 0.20102 0.82206 0.0
C693 C 0.8792 0.19183 0.79688 0.0
C694 C 0.86744 0.21809 0.7711 0.0
C695 C 0.88802 0.25141 0.76792 0.0
C696 C 0.87153 0.27407 0.73638 0.0
C697 C 0.83534 0.25074 0.72505 0.0
C698 C 0.83364 0.21814 0.74589 0.0
C699 C 0.86333 0.31233 0.75101 0.0
C700 C 0.89952 0.27575 0.70549 0.0
H701 H 0.68775 0.18821 0.69568 0.0
H702 H 0.74597 0.09512 0.77714 0.0
H703 H 0.80991 0.11827 0.72153 0.0
H704 H 0.84891 0.13866 0.74775 0.0
H705 H 0.81874 0.10342 0.76831 0.0
H706 H 0.76524 0.16431 0.8157 0.0
H707 H 0.80544 0.13755 0.8206 0.0
H708 H 0.81007 0.18712 0.81627 0.0
H709 H 0.72494 0.28843 0.60643 0.0
H710 H 0.8281 0.35756 0.61539 0.0
H711 H 0.84857 0.32468 0.67125 0.0
H712 H 0.71068 0.28861 0.69202 0.0
H713 H 0.68217 0.25417 0.66594 0.0
H714 H 0.70164 0.24508 0.71203 0.0
H715 H 0.7601 0.21118 0.62318 0.0
H716 H 0.72592 0.18779 0.64957 0.0
H717 H 0.71194 0.22296 0.61805 0.0
H718 H 0.64976 0.13389 0.71442 0.0
C719 C 0.70116 0.16869 0.71339 0.0
C720 C 0.55139 0.63751 0.43294 0.0
C721 C 0.52672 0.66595 0.43629 0.0
C722 C 0.49738 0.6608 0.46041 0.0
C723 C 0.51928 0.60177 0.4798 0.0
C724 C 0.54723 0.60572 0.45507 0.0
C725 C 0.57209 0.57358 0.45712 0.0
H726 H 0.61491 0.41292 0.54217 0.0
C727 C 0.52404 0.56742 0.50092 0.0
C728 C 0.55483 0.55038 0.48765 0.0
H729 H 0.67279 0.46633 0.45324 0.0
H730 H 0.62881 0.51483 0.45167 0.0
H731 H 0.61136 0.4812 0.58705 0.0
H732 H 0.5293 0.42582 0.51139 0.0
H733 H 0.5061 0.43748 0.55077 0.0
H734 H 0.54448 0.40775 0.55555 0.0
H735 H 0.58119 0.44315 0.60148 0.0
H736 H 0.56798 0.49013 0.60399 0.0
C737 C 0.61282 0.58844 0.4683 0.0
C738 C 0.56785 0.55338 0.41952 0.0
C739 C 0.44503 0.53998 0.61104 0.0
C740 C 0.44745 0.5138 0.63958 0.0
C741 C 0.47149 0.485 0.63662 0.0
C742 C 0.49389 0.48307 0.60636 0.0
C743 C 0.49296 0.51075 0.57916 0.0
C744 C 0.46839 0.53828 0.5815 0.0
C745 C 0.47311 0.56675 0.55158 0.0
C746 C 0.50496 0.55201 0.53122 0.0
C747 C 0.5162 0.51918 0.54738 0.0
C748 C 0.48479 0.60446 0.57039 0.0
C749 C 0.43597 0.5659 0.52698 0.0
C750 C 0.61812 0.4347 0.52192 0.0
C751 C 0.64726 0.43552 0.49761 0.0
C752 C 0.65053 0.46498 0.47228 0.0
C753 C 0.62498 0.49307 0.47144 0.0
C754 C 0.5962 0.49187 0.4965 0.0
C755 C 0.59344 0.46285 0.52112 0.0
C756 C 0.56292 0.46622 0.54719 0.0
C757 C 0.54666 0.50147 0.53364 0.0
C758 C 0.56605 0.51675 0.50394 0.0
C759 C 0.5815 0.47015 0.58705 0.0
C760 C 0.53414 0.43254 0.5413 0.0
H761 H 0.47073 0.62719 0.5 0.0
H762 H 0.57433 0.64059 0.41473 0.0
H763 H 0.5378 0.55065 0.40909 0.0
H764 H 0.57696 0.52501 0.42126 0.0
H765 H 0.584 0.56885 0.39855 0.0
H766 H 0.613 0.60979 0.49025 0.0
H767 H 0.62661 0.60123 0.44431 0.0
H768 H 0.63042 0.56698 0.48004 0.0
H769 H 0.42726 0.56284 0.61288 0.0
H770 H 0.47365 0.46442 0.65814 0.0
H771 H 0.51193 0.46068 0.60598 0.0
H772 H 0.50271 0.60081 0.5962 0.0
H773 H 0.45976 0.61868 0.57791 0.0
H774 H 0.5022 0.62314 0.55335 0.0
H775 H 0.42242 0.53743 0.52481 0.0
H776 H 0.44039 0.57417 0.49813 0.0
H777 H 0.41551 0.58372 0.53857 0.0
H778 H 0.47774 0.68175 0.46342 0.0
C779 C 0.49336 0.62892 0.48184 0.0
C780 C 0.54097 0.36856 0.05937 0.0
C781 C 0.50936 0.34331 0.055 0.0
C782 C 0.47903 0.35135 0.03037 0.0
C783 C 0.51298 0.40761 0.01226 0.0
C784 C 0.54171 0.40112 0.03832 0.0
C785 C 0.57187 0.43237 0.0401 0.0
H786 H 0.62972 0.60342 0.98063 0.0
C787 C 0.52255 0.44266 0.99366 0.0
C788 C 0.55634 0.45825 0.01071 0.0
H789 H 0.68865 0.5364 0.06038 0.0
H790 H 0.63907 0.48714 0.05177 0.0
H791 H 0.5432 0.58198 0.00289 0.0
H792 H 0.61741 0.54711 0.92437 0.0
H793 H 0.57314 0.53181 0.90435 0.0
H794 H 0.58426 0.58044 0.91209 0.0
H795 H 0.55875 0.60793 0.96378 0.0
H796 H 0.5173 0.57659 0.95993 0.0
C797 C 0.57367 0.44953 0.07917 0.0
C798 C 0.60923 0.41719 0.02951 0.0
C799 C 0.45683 0.47258 0.87028 0.0
C800 C 0.46073 0.5033 0.84693 0.0
C801 C 0.48123 0.53554 0.85991 0.0
C802 C 0.50035 0.53621 0.89479 0.0
C803 C 0.49863 0.50439 0.91684 0.0
C804 C 0.47547 0.474 0.90551 0.0
C805 C 0.47467 0.44418 0.93449 0.0
C806 C 0.50512 0.4599 0.96256 0.0
C807 C 0.51918 0.49489 0.95169 0.0
C808 C 0.43508 0.44136 0.95026 0.0
C809 C 0.48546 0.40785 0.91712 0.0
C810 C 0.63172 0.57824 0.99653 0.0
C811 C 0.66249 0.57376 0.02159 0.0
C812 C 0.66493 0.54028 0.04097 0.0
C813 C 0.63608 0.51196 0.03608 0.0
C814 C 0.60505 0.51712 0.01106 0.0
C815 C 0.60391 0.5496 0.9912 0.0
C816 C 0.57134 0.54936 0.96304 0.0
C817 C 0.552 0.51187 0.97016 0.0
C818 C 0.57125 0.49328 0.9988 0.0
C819 C 0.54627 0.58072 0.97257 0.0
C820 C 0.58706 0.55249 0.92396 0.0
H821 H 0.45728 0.38762 0.98994 0.0
H822 H 0.56454 0.36291 0.07832 0.0
H823 H 0.60401 0.39613 0.00725 0.0
H824 H 0.62872 0.43861 0.0182 0.0
H825 H 0.62364 0.40397 0.0536 0.0
H826 H 0.54483 0.45296 0.08808 0.0
H827 H 0.58794 0.43156 0.09968 0.0
H828 H 0.58818 0.47728 0.08059 0.0
H829 H 0.44036 0.44788 0.8609 0.0
H830 H 0.48422 0.5595 0.84221 0.0
H831 H 0.51672 0.56104 0.90276 0.0
H832 H 0.41772 0.46427 0.94076 0.0
H833 H 0.41891 0.41526 0.9417 0.0
H834 H 0.43686 0.44314 0.98089 0.0
H835 H 0.51232 0.41238 0.90324 0.0
H836 H 0.48943 0.38587 0.93774 0.0
H837 H 0.46331 0.39724 0.89622 0.0
H838 H 0.45463 0.33199 0.02659 0.0
C839 C 0.48072 0.38334 0.00892 0.0
C840 C 0.80044 0.1144 0.26828 0.0
C841 C 0.79585 0.08912 0.23885 0.0
C842 C 0.76378 0.08979 0.21422 0.0
C843 C 0.74263 0.14154 0.2474 0.0
C844 C 0.77363 0.14025 0.27193 0.0
C845 C 0.77497 0.1697 0.301 0.0
H846 H 0.69213 0.304 0.38692 0.0
C847 C 0.72079 0.17228 0.25865 0.0
C848 C 0.73927 0.18869 0.29011 0.0
H849 H 0.80031 0.25901 0.41164 0.0
H850 H 0.79213 0.22208 0.35781 0.0
H851 H 0.64481 0.22804 0.35646 0.0
H852 H 0.70688 0.30968 0.29227 0.0
H853 H 0.66122 0.29867 0.27201 0.0
H854 H 0.66666 0.32095 0.3164 0.0
H855 H 0.63116 0.27467 0.35229 0.0
H856 H 0.618 0.24125 0.31651 0.0
C857 C 0.77293 0.15022 0.33901 0.0
C858 C 0.81097 0.19556 0.29672 0.0
C859 C 0.60732 0.20292 0.17816 0.0
C860 C 0.57999 0.22851 0.18015 0.0
C861 C 0.58041 0.2511 0.21181 0.0
C862 C 0.60902 0.24908 0.24033 0.0
C863 C 0.63703 0.22393 0.23717 0.0
C864 C 0.63503 0.20087 0.20671 0.0
C865 C 0.66527 0.17437 0.20799 0.0
C866 C 0.68725 0.18626 0.24332 0.0
C867 C 0.67106 0.21551 0.26061 0.0
C868 C 0.64645 0.13472 0.2108 0.0
C869 C 0.68871 0.18127 0.17368 0.0
C870 C 0.71401 0.2863 0.38037 0.0
C871 C 0.74643 0.28374 0.40454 0.0
C872 C 0.77456 0.26095 0.39448 0.0
C873 C 0.76985 0.23927 0.3629 0.0
C874 C 0.73671 0.24009 0.34039 0.0
C875 C 0.7099 0.2642 0.34809 0.0
C876 C 0.67784 0.26222 0.3185 0.0
C877 C 0.68937 0.2317 0.2934 0.0
C878 C 0.72374 0.21878 0.30715 0.0
C879 C 0.64079 0.25114 0.33674 0.0
C880 C 0.67779 0.29986 0.29868 0.0
H881 H 0.71375 0.11525 0.19832 0.0
H882 H 0.82482 0.11476 0.28764 0.0
H883 H 0.82132 0.19406 0.26847 0.0
H884 H 0.80586 0.22503 0.3003 0.0
H885 H 0.83427 0.18823 0.31654 0.0
H886 H 0.75248 0.12568 0.33714 0.0
H887 H 0.80076 0.1406 0.34862 0.0
H888 H 0.76291 0.16762 0.36071 0.0
H889 H 0.60715 0.18451 0.15467 0.0
H890 H 0.55925 0.27084 0.21404 0.0
H891 H 0.60835 0.26708 0.26365 0.0
H892 H 0.61883 0.13467 0.22347 0.0
H893 H 0.64134 0.12169 0.18311 0.0
H894 H 0.66317 0.11666 0.22901 0.0
H895 H 0.6927 0.21131 0.16781 0.0
H896 H 0.71742 0.17182 0.1774 0.0
H897 H 0.67437 0.16774 0.14872 0.0
H898 H 0.75956 0.07064 0.19127 0.0
C899 C 0.73716 0.11581 0.21836 0.0
C900 C 0.36401 0.93718 0.00458 0.0
C901 C 0.35897 0.90393 0.98495 0.0
C902 C 0.38425 0.89625 0.95812 0.0
C903 C 0.41873 0.95522 0.97032 0.0
C904 C 0.39439 0.96198 0.99739 0.0
C905 C 0.40575 0.99689 0.01835 0.0
H906 H 0.51285 0.15662 0.03461 0.0
C907 C 0.44736 0.9866 0.97001 0.0
C908 C 0.44012 0.01079 0.99851 0.0
H909 H 0.42596 0.11439 0.10461 0.0
H910 H 0.41917 0.05774 0.0702 0.0
H911 H 0.47377 0.12651 0.95739 0.0
H912 H 0.55496 0.08296 0.03505 0.0
H913 H 0.56614 0.06708 0.99172 0.0
H914 H 0.56861 0.11607 0.00083 0.0
H915 H 0.52128 0.14575 0.96512 0.0
H916 H 0.50931 0.10929 0.93211 0.0
C917 C 0.37327 0.02293 0.01292 0.0
C918 C 0.41588 0.98679 0.05925 0.0
C919 C 0.54493 0.99516 0.87224 0.0
C920 C 0.57473 0.0215 0.86627 0.0
C921 C 0.57981 0.05299 0.88915 0.0
C922 C 0.55619 0.05822 0.91762 0.0
C923 C 0.52698 0.03166 0.92376 0.0
C924 C 0.52158 0.0007 0.90143 0.0
C925 C 0.48977 0.97492 0.91362 0.0
C926 C 0.47712 0.9958 0.94655 0.0
C927 C 0.49907 0.0291 0.95211 0.0
C928 C 0.45897 0.97155 0.88165 0.0
C929 C 0.50589 0.93783 0.92532 0.0
C930 C 0.49263 0.13502 0.04271 0.0
C931 C 0.46966 0.14022 0.07217 0.0
C932 C 0.44402 0.11118 0.08206 0.0
C933 C 0.43991 0.07827 0.06186 0.0
C934 C 0.46185 0.07405 0.03153 0.0
C935 C 0.48848 0.10164 0.02307 0.0
C936 C 0.51048 0.09134 0.99098 0.0
C937 C 0.49189 0.05344 0.98108 0.0
C938 C 0.46304 0.04389 0.00454 0.0
C939 C 0.50375 0.11968 0.95967 0.0
C940 C 0.55228 0.08944 0.00503 0.0
H941 H 0.43217 0.91474 0.92951 0.0
H942 H 0.34558 0.94309 0.02616 0.0
H943 H 0.42354 0.95771 0.06214 0.0
H944 H 0.44097 0.00332 0.07106 0.0
H945 H 0.3919 0.99018 0.07678 0.0
H946 H 0.36257 0.02323 0.98344 0.0
H947 H 0.34939 0.01366 0.02971 0.0
H948 H 0.38185 0.05187 0.02001 0.0
H949 H 0.54059 0.97049 0.85541 0.0
H950 H 0.6023 0.07389 0.88508 0.0
H951 H 0.56182 0.08275 0.93389 0.0
H952 H 0.45368 -0.00079 0.87001 0.0
H953 H 0.46775 0.9542 0.85897 0.0
H954 H 0.43161 0.95995 0.89042 0.0
H955 H 0.53544 0.94214 0.93699 0.0
H956 H 0.49055 0.92394 0.94759 0.0
H957 H 0.50577 0.9188 0.90139 0.0
H958 H 0.38088 0.87043 0.94303 0.0
C959 C 0.41391 0.92193 0.95038 0.0
Mg960 Mg 0.23736 0.85888 0.00683 0.0
O961 O 0.2952 0.88679 0.99502 0.0
O962 O 0.33749 0.84394 0.00205 0.0
Mg963 Mg 0.30766 0.79005 0.02062 0.0
C964 C 0.32874 0.87661 0.99406 0.0
C965 C 0.17395 0.90588 0.00049 0.0
O966 O 0.16679 0.87747 0.02209 0.0
O967 O 0.23341 0.82931 0.9498 0.0
O968 O 0.27561 0.78824 0.96441 0.0
O969 O 0.24803 0.87185 0.06787 0.0
O970 O 0.26333 0.82091 0.0416 0.0
C971 C 0.25162 0.80167 0.94146 0.0
C972 C 0.26358 0.84081 0.07078 0.0
O973 O 0.20502 0.90785 0.98495 0.0
Mg974 Mg 0.14569 0.51452 0.27525 0.0
O975 O 0.11562 0.50781 0.21705 0.0
O976 O 0.16202 0.51407 0.1778 0.0
Mg977 Mg 0.21891 0.52603 0.20844 0.0
C978 C 0.12739 0.50825 0.18437 0.0
C979 C 0.10204 0.51701 0.33777 0.0
O980 O 0.1351 0.53532 0.34179 0.0
O981 O 0.1658 0.45558 0.27129 0.0
O982 O 0.21046 0.46831 0.23159 0.0
O983 O 0.14237 0.57619 0.27161 0.0
O984 O 0.18951 0.54562 0.25389 0.0
C985 C 0.19221 0.44565 0.25191 0.0
C986 C 0.17446 0.57636 0.25696 0.0
O987 O 0.09421 0.49847 0.30817 0.0
Mg988 Mg 0.77835 0.64027 0.02284 0.0
O989 O 0.72569 0.59982 0.02523 0.0
O990 O 0.67855 0.63678 0.0313 0.0
Mg991 Mg 0.70006 0.69672 0.04011 0.0
C992 C 0.69076 0.60489 0.02741 0.0
C993 C 0.84849 0.61092 0.01383 0.0
O994 O 0.85191 0.64498 0.02634 0.0
O995 O 0.75905 0.66013 0.96528 0.0
O996 O 0.71612 0.69893 0.97994 0.0
O997 O 0.79168 0.63783 0.08382 0.0
O998 O 0.75472 0.67689 0.05563 0.0
C999 C 0.73606 0.68468 0.95635 0.0
C1000 C 0.77004 0.66475 0.08577 0.0
O1001 O 0.81587 0.59745 0.00294 0.0
Mg1002 Mg 0.90371 0.03377 0.23556 0.0
O1003 O 0.86652 0.97931 0.23573 0.0
O1004 O 0.90516 0.93401 0.23053 0.0
Mg1005 Mg 0.96539 0.95842 0.22739 0.0
C1006 C 0.87237 0.94511 0.23392 0.0
C1007 C 0.82552 0.06394 0.23244 0.0
O1008 O 0.82308 0.04292 0.20286 0.0
O1009 O 0.92474 0.02332 0.29472 0.0
O1010 O 0.96345 0.97817 0.28761 0.0
O1011 O 0.89905 0.03807 0.17414 0.0
O1012 O 0.94369 0.0099 0.20558 0.0
C1013 C 0.94781 0.00063 0.30784 0.0
C1014 C 0.92873 0.01954 0.17407 0.0
O1015 O 0.85538 0.065 0.25348 0.0
Mg1016 Mg 0.27835 0.14028 0.52284 0.0
O1017 O 0.22569 0.09982 0.52523 0.0
O1018 O 0.17855 0.13678 0.5313 0.0
Mg1019 Mg 0.20006 0.19672 0.54011 0.0
C1020 C 0.19076 0.10489 0.52741 0.0
C1021 C 0.34849 0.11092 0.51383 0.0
O1022 O 0.35191 0.14498 0.52634 0.0
O1023 O 0.25905 0.16013 0.46528 0.0
O1024 O 0.21612 0.19893 0.47994 0.0
O1025 O 0.29168 0.13783 0.58382 0.0
O1026 O 0.25472 0.17689 0.55563 0.0
C1027 C 0.23606 0.18468 0.45635 0.0
C1028 C 0.27004 0.16476 0.58577 0.0
O1029 O 0.31587 0.09745 0.50294 0.0
Mg1030 Mg 0.40371 0.53377 0.73556 0.0
O1031 O 0.36652 0.47931 0.73573 0.0
O1032 O 0.40516 0.43401 0.73053 0.0
Mg1033 Mg 0.46539 0.45842 0.72739 0.0
C1034 C 0.37237 0.44511 0.73392 0.0
C1035 C 0.32552 0.56394 0.73244 0.0
O1036 O 0.32308 0.54292 0.70286 0.0
O1037 O 0.42474 0.52332 0.79472 0.0
O1038 O 0.46345 0.47817 0.78761 0.0
O1039 O 0.39905 0.53807 0.67414 0.0
O1040 O 0.44369 0.5099 0.70558 0.0
C1041 C 0.4478 0.50063 0.80784 0.0
C1042 C 0.42873 0.51954 0.67407 0.0
O1043 O 0.35538 0.565 0.75348 0.0
Mg1044 Mg 0.73736 0.35888 0.50683 0.0
O1045 O 0.7952 0.38679 0.49502 0.0
O1046 O 0.83749 0.34394 0.50205 0.0
Mg1047 Mg 0.80767 0.29005 0.52062 0.0
C1048 C 0.82874 0.37661 0.49406 0.0
C1049 C 0.67395 0.40587 0.50049 0.0
O1050 O 0.66679 0.37747 0.52209 0.0
O1051 O 0.73341 0.32931 0.44981 0.0
O1052 O 0.77561 0.28824 0.46441 0.0
O1053 O 0.74803 0.37185 0.56787 0.0
O1054 O 0.76333 0.32091 0.5416 0.0
C1055 C 0.75162 0.30167 0.44146 0.0
C1056 C 0.76358 0.34081 0.57078 0.0
O1057 O 0.70502 0.40785 0.48496 0.0
Mg1058 Mg 0.64569 0.01452 0.77525 0.0
O1059 O 0.61562 0.00781 0.71705 0.0
O1060 O 0.66202 0.01407 0.6778 0.0
Mg1061 Mg 0.71891 0.02603 0.70844 0.0
C1062 C 0.62739 0.00825 0.68437 0.0
C1063 C 0.60204 0.01701 0.83778 0.0
O1064 O 0.6351 0.03532 0.84179 0.0
O1065 O 0.6658 0.95558 0.77129 0.0
O1066 O 0.71046 0.96831 0.73159 0.0
O1067 O 0.64237 0.07619 0.77161 0.0
O1068 O 0.68951 0.04562 0.75389 0.0
C1069 C 0.69221 0.94565 0.75191 0.0
C1070 C 0.67446 0.07636 0.75696 0.0
O1071 O 0.59421 0.99847 0.80817 0.0
Mg1072 Mg 0.0419 0.26621 0.88912 0.0
O1073 O 0.9889 0.25543 0.8491 0.0
O1074 O 0.94195 0.23989 0.88544 0.0
Mg1075 Mg 0.96238 0.24215 0.94597 0.0
C1076 C 0.95438 0.24593 0.85358 0.0
C1077 C 0.07325 0.27337 0.81278 0.0
O1078 O 0.05097 0.24306 0.81035 0.0
O1079 O 0.0216 0.32167 0.90501 0.0
O1080 O 0.97457 0.30461 0.94086 0.0
O1081 O 0.05439 0.20601 0.88994 0.0
O1082 O 0.01868 0.23113 0.92892 0.0
C1083 C 0.99527 0.32933 0.92536 0.0
C1084 C 0.03312 0.20202 0.9175 0.0
O1085 O 0.07527 0.29171 0.84263 0.0
Mg1086 Mg 0.54189 0.76621 0.38912 0.0
O1087 O 0.4889 0.75543 0.3491 0.0
O1088 O 0.44195 0.73989 0.38544 0.0
Mg1089 Mg 0.46238 0.74215 0.44596 0.0
C1090 C 0.45439 0.74593 0.35358 0.0
C1091 C 0.57326 0.77336 0.31278 0.0
O1092 O 0.55097 0.74306 0.31035 0.0
O1093 O 0.5216 0.82167 0.40501 0.0
O1094 O 0.47457 0.80461 0.44086 0.0
O1095 O 0.55439 0.70601 0.38994 0.0
O1096 O 0.51868 0.73112 0.42892 0.0
C1097 C 0.49527 0.82933 0.42536 0.0
C1098 C 0.53312 0.70202 0.4175 0.0
O1099 O 0.57527 0.79171 0.34263 0.0
Mg1100 Mg 0.96445 0.74061 0.61561 0.0
O1101 O 0.01833 0.73749 0.65377 0.0
O1102 O 0.0632 0.72504 0.61625 0.0
Mg1103 Mg 0.04002 0.72124 0.5563 0.0
C1104 C 0.05232 0.73125 0.64839 0.0
C1105 C 0.92987 0.74119 0.69079 0.0
O1106 O 0.94815 0.71101 0.6927 0.0
O1107 O 0.98463 0.79747 0.5949 0.0
O1108 O 0.02835 0.78286 0.55662 0.0
O1109 O 0.95064 0.68029 0.61937 0.0
O1110 O 0.98403 0.70609 0.57583 0.0
C1111 C 0.00909 0.80646 0.5716 0.0
C1112 C 0.96924 0.67655 0.59027 0.0
O1113 O 0.93348 0.76233 0.663 0.0
Mg1114 Mg 0.46445 0.24061 0.11561 0.0
O1115 O 0.51833 0.23749 0.15377 0.0
O1116 O 0.5632 0.22504 0.11625 0.0
Mg1117 Mg 0.54002 0.22124 0.0563 0.0
C1118 C 0.55232 0.23125 0.14839 0.0
C1119 C 0.42987 0.24119 0.19079 0.0
O1120 O 0.44815 0.21101 0.1927 0.0
O1121 O 0.48463 0.29747 0.0949 0.0
O1122 O 0.52836 0.28286 0.05663 0.0
O1123 O 0.45064 0.18029 0.11937 0.0
O1124 O 0.48403 0.20609 0.07583 0.0
C1125 C 0.50909 0.30646 0.0716 0.0
C1126 C 0.46924 0.17655 0.09027 0.0
O1127 O 0.43348 0.26233 0.163 0.0
loop_
_geom_bond_atom_site_label_1
_geom_bond_atom_site_label_2
_geom_bond_distance
_geom_bond_site_symmetry_2
_ccdc_geom_bond_type
C0 C1 1.391 . S
C0 C4 1.391 . S
C0 H42 0.948 . S
C1 C0 1.391 . S
C1 C2 1.391 1_455 S
C2 C1 1.391 1_655 S
C2 H58 0.947 . S
C2 C59 1.392 . S
C3 C4 1.391 . S
C3 C7 1.397 1_556 S
C3 C59 1.419 1_455 S
C4 C0 1.391 . S
C4 C3 1.391 . S
C4 C5 1.399 . S
C5 C4 1.399 . S
C5 C8 1.396 . S
C5 C17 1.453 . S
C5 C18 1.684 . S
H6 C30 0.948 . S
C7 C3 1.397 1_554 S
C7 C8 1.394 1_554 S
C7 C26 1.723 1_455 S
C8 C5 1.396 . S
C8 C7 1.394 1_556 S
C8 C38 1.723 1_556 S
H9 C32 0.947 . S
H10 C33 0.948 1_545 S
H11 C39 0.982 . S
H12 C40 0.979 . S
H13 C40 0.980 . S
H14 C40 0.983 . S
H15 C39 0.979 . S
H16 C39 0.977 . S
C17 C5 1.453 . S
C17 H46 0.982 . S
C17 H47 0.979 . S
C17 H48 0.977 . S
C18 C5 1.684 . S
C18 H43 0.979 . S
C18 H44 0.980 . S
C18 H45 0.983 . S
C19 C20 1.391 . S
C19 C24 1.391 . S
C19 H49 0.948 . S
C20 C19 1.391 . S
C20 C21 1.391 1_545 S
C21 C20 1.391 1_565 S
C21 C22 1.392 . S
C21 H50 0.947 . S
C22 C21 1.392 . S
C22 C23 1.419 1_565 S
C22 H51 0.948 1_655 S
C23 C22 1.419 1_545 S
C23 C24 1.391 . S
C23 C27 1.397 1_655 S
C24 C19 1.391 . S
C24 C23 1.391 . S
C24 C25 1.399 . S
C25 C24 1.399 . S
C25 C26 1.396 . S
C25 C28 1.453 . S
C25 C29 1.684 . S
C26 C7 1.723 1_655 S
C26 C25 1.396 . S
C26 C27 1.394 1_655 S
C27 C23 1.397 1_455 S
C27 C26 1.394 1_455 S
C27 C37 1.723 . S
C28 C25 1.453 . S
C28 H52 0.982 . S
C28 H53 0.979 . S
C28 H54 0.977 . S
C29 C25 1.684 . S
C29 H55 0.979 . S
C29 H56 0.980 . S
C29 H57 0.983 . S
C30 H6 0.948 . S
C30 C31 1.395 . S
C30 C35 1.391 . S
C31 C30 1.395 . S
C31 C32 1.388 1_554 S
C32 H9 0.947 . S
C32 C31 1.388 1_556 S
C32 C33 1.392 . S
C33 H10 0.948 1_565 S
C33 C32 1.392 . S
C33 C34 1.419 1_556 S
C34 C33 1.419 1_554 S
C34 C35 1.391 . S
C34 C38 1.397 1_565 S
C35 C30 1.391 . S
C35 C34 1.391 . S
C35 C36 1.399 . S
C36 C35 1.399 . S
C36 C37 1.396 1_565 S
C36 C39 1.453 . S
C36 C40 1.684 . S
C37 C27 1.723 . S
C37 C36 1.396 1_545 S
C37 C38 1.394 . S
C38 C8 1.723 1_554 S
C38 C34 1.397 1_545 S
C38 C37 1.394 . S
C39 H11 0.982 . S
C39 H15 0.979 . S
C39 H16 0.977 . S
C39 C36 1.453 . S
C40 H12 0.979 . S
C40 H13 0.980 . S
C40 H14 0.983 . S
C40 C36 1.684 . S
H41 C59 0.948 1_554 S
H42 C0 0.948 . S
H43 C18 0.979 . S
H44 C18 0.980 . S
H45 C18 0.983 . S
H46 C17 0.982 . S
H47 C17 0.979 . S
H48 C17 0.977 . S
H49 C19 0.948 . S
H50 C21 0.947 . S
H51 C22 0.948 1_455 S
H52 C28 0.982 . S
H53 C28 0.979 . S
H54 C28 0.977 . S
H55 C29 0.979 . S
H56 C29 0.980 . S
H57 C29 0.983 . S
H58 C2 0.947 . S
C59 C2 1.392 . S
C59 C3 1.419 1_655 S
C59 H41 0.948 1_556 S
C60 C61 1.391 . S
C60 C64 1.391 . S
C60 H102 0.948 . S
C61 C60 1.391 . S
C61 C62 1.391 . S
C62 C61 1.391 . S
C62 H118 0.947 . S
C62 C119 1.392 . S
C63 C64 1.391 . S
C63 C67 1.397 . S
C63 C119 1.419 . S
C64 C60 1.391 . S
C64 C63 1.391 . S
C64 C65 1.399 . S
C65 C64 1.399 . S
C65 C68 1.396 . S
C65 C77 1.453 . S
C65 C78 1.684 . S
H66 C90 0.948 . S
C67 C63 1.397 . S
C67 C68 1.394 . S
C67 C86 1.723 . S
C68 C65 1.396 . S
C68 C67 1.394 . S
C68 C98 1.723 . S
H69 C92 0.947 . S
H70 C93 0.948 . S
H71 C99 0.982 . S
H72 C100 0.979 . S
H73 C100 0.980 . S
H74 C100 0.983 . S
H75 C99 0.979 . S
H76 C99 0.977 . S
C77 C65 1.453 . S
C77 H106 0.982 . S
C77 H107 0.979 . S
C77 H108 0.977 . S
C78 C65 1.684 . S
C78 H103 0.979 . S
C78 H104 0.980 . S
C78 H105 0.983 . S
C79 C80 1.391 . S
C79 C84 1.391 . S
C79 H109 0.948 . S
C80 C79 1.391 . S
C80 C81 1.391 . S
C81 C80 1.391 . S
C81 C82 1.392 . S
C81 H110 0.947 . S
C82 C81 1.392 . S
C82 C83 1.419 . S
C82 H111 0.948 . S
C83 C82 1.419 . S
C83 C84 1.391 . S
C83 C87 1.397 . S
C84 C79 1.391 . S
C84 C83 1.391 . S
C84 C85 1.399 . S
C85 C84 1.399 . S
C85 C86 1.396 . S
C85 C88 1.453 . S
C85 C89 1.684 . S
C86 C67 1.723 . S
C86 C85 1.396 . S
C86 C87 1.394 . S
C87 C83 1.397 . S
C87 C86 1.394 . S
C87 C97 1.723 . S
C88 C85 1.453 . S
C88 H112 0.982 . S
C88 H113 0.979 . S
C88 H114 0.977 . S
C89 C85 1.684 . S
C89 H115 0.979 . S
C89 H116 0.980 . S
C89 H117 0.983 . S
C90 H66 0.948 . S
C90 C91 1.391 . S
C90 C95 1.391 . S
C91 C90 1.391 . S
C91 C92 1.391 . S
C92 H69 0.947 . S
C92 C91 1.391 . S
C92 C93 1.392 . S
C93 H70 0.948 . S
C93 C92 1.392 . S
C93 C94 1.419 . S
C94 C93 1.419 . S
C94 C95 1.391 . S
C94 C98 1.397 . S
C95 C90 1.391 . S
C95 C94 1.391 . S
C95 C96 1.399 . S
C96 C95 1.399 . S
C96 C97 1.396 . S
C96 C99 1.453 . S
C96 C100 1.684 . S
C97 C87 1.723 . S
C97 C96 1.396 . S
C97 C98 1.394 . S
C98 C68 1.723 . S
C98 C94 1.397 . S
C98 C97 1.394 . S
C99 H71 0.982 . S
C99 H75 0.979 . S
C99 H76 0.977 . S
C99 C96 1.453 . S
C100 H72 0.979 . S
C100 H73 0.980 . S
C100 H74 0.983 . S
C100 C96 1.684 . S
H101 C119 0.948 . S
H102 C60 0.948 . S
H103 C78 0.979 . S
H104 C78 0.980 . S
H105 C78 0.983 . S
H106 C77 0.982 . S
H107 C77 0.979 . S
H108 C77 0.977 . S
H109 C79 0.948 . S
H110 C81 0.947 . S
H111 C82 0.948 . S
H112 C88 0.982 . S
H113 C88 0.979 . S
H114 C88 0.977 . S
H115 C89 0.979 . S
H116 C89 0.980 . S
H117 C89 0.983 . S
H118 C62 0.947 . S
C119 C62 1.392 . S
C119 C63 1.419 . S
C119 H101 0.948 . S
C120 C121 1.391 1_455 S
C120 C124 1.393 . S
C120 H162 0.948 . S
C121 C120 1.391 1_655 S
C121 C122 1.391 . S
C122 C121 1.391 . S
C122 H178 0.947 . S
C122 C179 1.392 . S
C123 C124 1.392 1_655 S
C123 C127 1.397 1_556 S
C123 C179 1.419 . S
C124 C120 1.393 . S
C124 C123 1.392 1_455 S
C124 C125 1.396 1_556 S
C125 C124 1.396 1_554 S
C125 C128 1.396 . S
C125 C137 1.453 . S
C125 C138 1.684 . S
H126 C150 0.948 . S
C127 C123 1.397 1_554 S
C127 C128 1.394 1_655 S
C127 C146 1.723 . S
C128 C125 1.396 . S
C128 C127 1.394 1_455 S
C128 C158 1.723 . S
H129 C152 0.947 . S
H130 C153 0.948 . S
H131 C159 0.982 . S
H132 C160 0.989 . S
H133 C160 0.968 1_655 S
H134 C160 0.985 . S
H135 C159 0.979 . S
H136 C159 0.977 . S
C137 C125 1.453 . S
C137 H166 0.982 . S
C137 H167 0.979 . S
C137 H168 0.977 . S
C138 C125 1.684 . S
C138 H163 0.979 . S
C138 H164 0.980 . S
C138 H165 0.983 . S
C139 C140 1.391 . S
C139 C144 1.391 . S
C139 H169 0.948 1_554 S
C140 C139 1.391 . S
C140 C141 1.391 . S
C141 C140 1.391 . S
C141 C142 1.392 . S
C141 H170 0.947 . S
C142 C141 1.392 . S
C142 C143 1.419 . S
C142 H171 0.948 . S
C143 C142 1.419 . S
C143 C144 1.391 . S
C143 C147 1.397 . S
C144 C139 1.391 . S
C144 C143 1.391 . S
C144 C145 1.399 1_554 S
C145 C144 1.399 1_556 S
C145 C146 1.396 1_556 S
C145 C148 1.453 . S
C145 C149 1.684 . S
C146 C127 1.723 . S
C146 C145 1.396 1_554 S
C146 C147 1.394 . S
C147 C143 1.397 . S
C147 C146 1.394 . S
C147 C157 1.723 . S
C148 C145 1.453 . S
C148 H172 0.982 1_556 S
C148 H173 0.979 . S
C148 H174 0.977 . S
C149 C145 1.684 . S
C149 H175 0.979 . S
C149 H176 0.980 . S
C149 H177 0.983 . S
C150 H126 0.948 . S
C150 C151 1.391 . S
C150 C155 1.391 . S
C151 C150 1.391 . S
C151 C152 1.391 . S
C152 H129 0.947 . S
C152 C151 1.391 . S
C152 C153 1.392 . S
C153 H130 0.948 . S
C153 C152 1.392 . S
C153 C154 1.419 . S
C154 C153 1.419 . S
C154 C155 1.391 . S
C154 C158 1.397 . S
C155 C150 1.391 . S
C155 C154 1.391 . S
C155 C156 1.377 1_455 S
C156 C155 1.377 1_655 S
C156 C157 1.405 . S
C156 C159 1.475 . S
C156 C160 1.686 1_655 S
C157 C147 1.723 . S
C157 C156 1.405 . S
C157 C158 1.394 1_655 S
C158 C128 1.723 . S
C158 C154 1.397 . S
C158 C157 1.394 1_455 S
C159 H131 0.982 . S
C159 H135 0.979 . S
C159 H136 0.977 . S
C159 C156 1.475 . S
C160 H132 0.989 . S
C160 H133 0.968 1_455 S
C160 H134 0.985 . S
C160 C156 1.686 1_455 S
H161 C179 0.948 . S
H162 C120 0.948 . S
H163 C138 0.979 . S
H164 C138 0.980 . S
H165 C138 0.983 . S
H166 C137 0.982 . S
H167 C137 0.979 . S
H168 C137 0.977 . S
H169 C139 0.948 1_556 S
H170 C141 0.947 . S
H171 C142 0.948 . S
H172 C148 0.982 1_554 S
H173 C148 0.979 . S
H174 C148 0.977 . S
H175 C149 0.979 . S
H176 C149 0.980 . S
H177 C149 0.983 . S
H178 C122 0.947 . S
C179 C122 1.392 . S
C179 C123 1.419 . S
C179 H161 0.948 . S
C180 C181 1.391 . S
C180 C184 1.391 . S
C180 H222 0.948 . S
C181 C180 1.391 . S
C181 C182 1.391 . S
C182 C181 1.391 . S
C182 H238 0.947 . S
C182 C239 1.392 . S
C183 C184 1.391 . S
C183 C187 1.397 . S
C183 C239 1.419 . S
C184 C180 1.391 . S
C184 C183 1.391 . S
C184 C185 1.399 . S
C185 C184 1.399 . S
C185 C188 1.396 . S
C185 C197 1.453 . S
C185 C198 1.684 . S
H186 C210 0.948 . S
C187 C183 1.397 . S
C187 C188 1.394 . S
C187 C206 1.723 . S
C188 C185 1.396 . S
C188 C187 1.394 . S
C188 C218 1.723 . S
H189 C212 0.947 . S
H190 C213 0.948 . S
H191 C219 0.982 . S
H192 C220 0.979 . S
H193 C220 0.980 . S
H194 C220 0.983 . S
H195 C219 0.979 . S
H196 C219 0.977 . S
C197 C185 1.453 . S
C197 H226 0.982 . S
C197 H227 0.979 . S
C197 H228 0.977 . S
C198 C185 1.684 . S
C198 H223 0.979 . S
C198 H224 0.980 . S
C198 H225 0.983 . S
C199 C200 1.391 . S
C199 C204 1.391 . S
C199 H229 0.948 . S
C200 C199 1.391 . S
C200 C201 1.391 . S
C201 C200 1.391 . S
C201 C202 1.392 . S
C201 H230 0.947 . S
C202 C201 1.392 . S
C202 C203 1.419 . S
C202 H231 0.948 . S
C203 C202 1.419 . S
C203 C204 1.391 . S
C203 C207 1.397 . S
C204 C199 1.391 . S
C204 C203 1.391 . S
C204 C205 1.399 . S
C205 C204 1.399 . S
C205 C206 1.396 . S
C205 C208 1.453 . S
C205 C209 1.684 . S
C206 C187 1.723 . S
C206 C205 1.396 . S
C206 C207 1.394 . S
C207 C203 1.397 . S
C207 C206 1.394 . S
C207 C217 1.723 . S
C208 C205 1.453 . S
C208 H232 0.982 . S
C208 H233 0.979 . S
C208 H234 0.977 . S
C209 C205 1.684 . S
C209 H235 0.979 . S
C209 H236 0.980 . S
C209 H237 0.983 . S
C210 H186 0.948 . S
C210 C211 1.391 . S
C210 C215 1.391 . S
C211 C210 1.391 . S
C211 C212 1.391 . S
C212 H189 0.947 . S
C212 C211 1.391 . S
C212 C213 1.392 . S
C213 H190 0.948 . S
C213 C212 1.392 . S
C213 C214 1.419 . S
C214 C213 1.419 . S
C214 C215 1.391 . S
C214 C218 1.397 . S
C215 C210 1.391 . S
C215 C214 1.391 . S
C215 C216 1.399 . S
C216 C215 1.399 . S
C216 C217 1.396 . S
C216 C219 1.453 . S
C216 C220 1.684 . S
C217 C207 1.723 . S
C217 C216 1.396 . S
C217 C218 1.394 . S
C218 C188 1.723 . S
C218 C214 1.397 . S
C218 C217 1.394 . S
C219 H191 0.982 . S
C219 H195 0.979 . S
C219 H196 0.977 . S
C219 C216 1.453 . S
C220 H192 0.979 . S
C220 H193 0.980 . S
C220 H194 0.983 . S
C220 C216 1.684 . S
H221 C239 0.948 . S
H222 C180 0.948 . S
H223 C198 0.979 . S
H224 C198 0.980 . S
H225 C198 0.983 . S
H226 C197 0.982 . S
H227 C197 0.979 . S
H228 C197 0.977 . S
H229 C199 0.948 . S
H230 C201 0.947 . S
H231 C202 0.948 . S
H232 C208 0.982 . S
H233 C208 0.979 . S
H234 C208 0.977 . S
H235 C209 0.979 . S
H236 C209 0.980 . S
H237 C209 0.983 . S
H238 C182 0.947 . S
C239 C182 1.392 . S
C239 C183 1.419 . S
C239 H221 0.948 . S
C240 C241 1.391 . S
C240 C244 1.391 . S
C240 H282 0.948 . S
C241 C240 1.391 . S
C241 C242 1.391 1_455 S
C242 C241 1.391 1_655 S
C242 H298 0.947 . S
C242 C299 1.392 1_655 S
C243 C244 1.391 . S
C243 C247 1.397 . S
C243 C299 1.419 . S
C244 C240 1.391 . S
C244 C243 1.391 . S
C244 C245 1.399 . S
C245 C244 1.399 . S
C245 C248 1.396 . S
C245 C257 1.453 . S
C245 C258 1.684 . S
H246 C270 0.948 . S
C247 C243 1.397 . S
C247 C248 1.394 . S
C247 C266 1.723 . S
C248 C245 1.396 . S
C248 C247 1.394 . S
C248 C278 1.723 . S
H249 C272 0.947 . S
H250 C273 0.948 1_565 S
H251 C279 0.982 . S
H252 C280 0.979 . S
H253 C280 0.980 . S
H254 C280 0.983 . S
H255 C279 0.979 . S
H256 C279 0.977 . S
C257 C245 1.453 . S
C257 H286 0.982 . S
C257 H287 0.979 . S
C257 H288 0.977 . S
C258 C245 1.684 . S
C258 H283 0.979 . S
C258 H284 0.980 . S
C258 H285 0.983 . S
C259 C260 1.391 1_565 S
C259 C264 1.391 . S
C259 H289 0.948 . S
C260 C259 1.391 1_545 S
C260 C261 1.391 . S
C261 C260 1.391 . S
C261 C262 1.392 1_655 S
C261 H290 0.947 . S
C262 C261 1.392 1_455 S
C262 C263 1.419 1_545 S
C262 H291 0.948 . S
C263 C262 1.419 1_565 S
C263 C264 1.391 1_455 S
C263 C267 1.397 . S
C264 C259 1.391 . S
C264 C263 1.391 1_655 S
C264 C265 1.399 . S
C265 C264 1.399 . S
C265 C266 1.396 1_655 S
C265 C268 1.453 . S
C265 C269 1.684 . S
C266 C247 1.723 . S
C266 C265 1.396 1_455 S
C266 C267 1.394 . S
C267 C263 1.397 . S
C267 C266 1.394 . S
C267 C277 1.723 1_565 S
C268 C265 1.453 . S
C268 H292 0.982 . S
C268 H293 0.979 . S
C268 H294 0.977 . S
C269 C265 1.684 . S
C269 H295 0.979 . S
C269 H296 0.980 . S
C269 H297 0.983 . S
C270 H246 0.948 . S
C270 C271 1.391 . S
C270 C275 1.391 . S
C271 C270 1.391 . S
C271 C272 1.391 . S
C272 H249 0.947 . S
C272 C271 1.391 . S
C272 C273 1.392 . S
C273 H250 0.948 1_545 S
C273 C272 1.392 . S
C273 C274 1.419 . S
C274 C273 1.419 . S
C274 C275 1.391 . S
C274 C278 1.397 1_545 S
C275 C270 1.391 . S
C275 C274 1.391 . S
C275 C276 1.399 . S
C276 C275 1.399 . S
C276 C277 1.396 . S
C276 C279 1.453 . S
C276 C280 1.684 . S
C277 C267 1.723 1_545 S
C277 C276 1.396 . S
C277 C278 1.394 1_545 S
C278 C248 1.723 . S
C278 C274 1.397 1_565 S
C278 C277 1.394 1_565 S
C279 H251 0.982 . S
C279 H255 0.979 . S
C279 H256 0.977 . S
C279 C276 1.453 . S
C280 H252 0.979 . S
C280 H253 0.980 . S
C280 H254 0.983 . S
C280 C276 1.684 . S
H281 C299 0.948 1_655 S
H282 C240 0.948 . S
H283 C258 0.979 . S
H284 C258 0.980 . S
H285 C258 0.983 . S
H286 C257 0.982 . S
H287 C257 0.979 . S
H288 C257 0.977 . S
H289 C259 0.948 . S
H290 C261 0.947 . S
H291 C262 0.948 . S
H292 C268 0.982 . S
H293 C268 0.979 . S
H294 C268 0.977 . S
H295 C269 0.979 . S
H296 C269 0.980 . S
H297 C269 0.983 . S
H298 C242 0.947 . S
C299 C242 1.392 1_455 S
C299 C243 1.419 . S
C299 H281 0.948 1_455 S
C300 C301 1.391 . S
C300 C304 1.391 . S
C300 H342 0.948 . S
C301 C300 1.391 . S
C301 C302 1.391 . S
C302 C301 1.391 . S
C302 H358 0.947 . S
C302 C359 1.392 . S
C303 C304 1.391 . S
C303 C307 1.397 . S
C303 C359 1.419 . S
C304 C300 1.391 . S
C304 C303 1.391 . S
C304 C305 1.399 . S
C305 C304 1.399 . S
C305 C308 1.396 . S
C305 C317 1.453 . S
C305 C318 1.684 . S
H306 C330 0.948 . S
C307 C303 1.397 . S
C307 C308 1.394 . S
C307 C326 1.723 . S
C308 C305 1.396 . S
C308 C307 1.394 . S
C308 C338 1.723 . S
H309 C332 0.947 . S
H310 C333 0.948 . S
H311 C339 0.982 . S
H312 C340 0.979 . S
H313 C340 0.980 . S
H314 C340 0.983 . S
H315 C339 0.979 . S
H316 C339 0.977 . S
C317 C305 1.453 . S
C317 H346 0.982 . S
C317 H347 0.979 . S
C317 H348 0.977 . S
C318 C305 1.684 . S
C318 H343 0.979 . S
C318 H344 0.980 . S
C318 H345 0.983 . S
C319 C320 1.391 . S
C319 C324 1.391 . S
C319 H349 0.948 . S
C320 C319 1.391 . S
C320 C321 1.391 . S
C321 C320 1.391 . S
C321 C322 1.392 . S
C321 H350 0.947 . S
C322 C321 1.392 . S
C322 C323 1.419 . S
C322 H351 0.948 . S
C323 C322 1.419 . S
C323 C324 1.391 . S
C323 C327 1.397 . S
C324 C319 1.391 . S
C324 C323 1.391 . S
C324 C325 1.399 . S
C325 C324 1.399 . S
C325 C326 1.396 . S
C325 C328 1.453 . S
C325 C329 1.684 . S
C326 C307 1.723 . S
C326 C325 1.396 . S
C326 C327 1.394 . S
C327 C323 1.397 . S
C327 C326 1.394 . S
C327 C337 1.723 . S
C328 C325 1.453 . S
C328 H352 0.982 . S
C328 H353 0.979 . S
C328 H354 0.977 . S
C329 C325 1.684 . S
C329 H355 0.979 . S
C329 H356 0.980 . S
C329 H357 0.983 . S
C330 H306 0.948 . S
C330 C331 1.391 . S
C330 C335 1.391 . S
C331 C330 1.391 . S
C331 C332 1.391 . S
C332 H309 0.947 . S
C332 C331 1.391 . S
C332 C333 1.392 . S
C333 H310 0.948 . S
C333 C332 1.392 . S
C333 C334 1.419 . S
C334 C333 1.419 . S
C334 C335 1.391 . S
C334 C338 1.397 . S
C335 C330 1.391 . S
C335 C334 1.391 . S
C335 C336 1.399 . S
C336 C335 1.399 . S
C336 C337 1.396 . S
C336 C339 1.453 . S
C336 C340 1.684 . S
C337 C327 1.723 . S
C337 C336 1.396 . S
C337 C338 1.394 . S
C338 C308 1.723 . S
C338 C334 1.397 . S
C338 C337 1.394 . S
C339 H311 0.982 . S
C339 H315 0.979 . S
C339 H316 0.977 . S
C339 C336 1.453 . S
C340 H312 0.979 . S
C340 H313 0.980 . S
C340 H314 0.983 . S
C340 C336 1.684 . S
H341 C359 0.948 . S
H342 C300 0.948 . S
H343 C318 0.979 . S
H344 C318 0.980 . S
H345 C318 0.983 . S
H346 C317 0.982 . S
H347 C317 0.979 . S
H348 C317 0.977 . S
H349 C319 0.948 . S
H350 C321 0.947 . S
H351 C322 0.948 . S
H352 C328 0.982 . S
H353 C328 0.979 . S
H354 C328 0.977 . S
H355 C329 0.979 . S
H356 C329 0.980 . S
H357 C329 0.983 . S
H358 C302 0.947 . S
C359 C302 1.392 . S
C359 C303 1.419 . S
C359 H341 0.948 . S
C360 C361 1.391 . S
C360 C364 1.391 . S
C360 H402 0.948 . S
C361 C360 1.391 . S
C361 C362 1.391 . S
C362 C361 1.391 . S
C362 H418 0.947 . S
C362 C419 1.392 . S
C363 C364 1.391 . S
C363 C367 1.397 . S
C363 C419 1.419 . S
C364 C360 1.391 . S
C364 C363 1.391 . S
C364 C365 1.399 . S
C365 C364 1.399 . S
C365 C368 1.396 . S
C365 C377 1.453 . S
C365 C378 1.684 . S
H366 C390 0.948 . S
C367 C363 1.397 . S
C367 C368 1.394 . S
C367 C386 1.723 . S
C368 C365 1.396 . S
C368 C367 1.394 . S
C368 C398 1.723 . S
H369 C392 0.947 . S
H370 C393 0.948 . S
H371 C399 0.982 1_655 S
H372 C400 0.979 . S
H373 C400 0.980 . S
H374 C400 0.983 . S
H375 C399 0.979 . S
H376 C399 0.977 . S
C377 C365 1.453 . S
C377 H406 0.982 . S
C377 H407 0.979 . S
C377 H408 0.977 . S
C378 C365 1.684 . S
C378 H403 0.979 . S
C378 H404 0.980 . S
C378 H405 0.983 . S
C379 C380 1.391 . S
C379 C384 1.391 . S
C379 H409 0.948 . S
C380 C379 1.391 . S
C380 C381 1.391 . S
C381 C380 1.391 . S
C381 C382 1.392 . S
C381 H410 0.947 . S
C382 C381 1.392 . S
C382 C383 1.419 . S
C382 H411 0.948 . S
C383 C382 1.419 . S
C383 C384 1.391 . S
C383 C387 1.397 1_455 S
C384 C379 1.391 . S
C384 C383 1.391 . S
C384 C385 1.399 1_455 S
C385 C384 1.399 1_655 S
C385 C386 1.396 . S
C385 C388 1.453 . S
C385 C389 1.684 . S
C386 C367 1.723 . S
C386 C385 1.396 . S
C386 C387 1.394 . S
C387 C383 1.397 1_655 S
C387 C386 1.394 . S
C387 C397 1.723 . S
C388 C385 1.453 . S
C388 H412 0.982 . S
C388 H413 0.979 . S
C388 H414 0.977 . S
C389 C385 1.684 . S
C389 H415 0.979 . S
C389 H416 0.980 . S
C389 H417 0.983 . S
C390 H366 0.948 . S
C390 C391 1.391 1_455 S
C390 C395 1.394 . S
C391 C390 1.391 1_655 S
C391 C392 1.391 . S
C392 H369 0.947 . S
C392 C391 1.391 . S
C392 C393 1.392 . S
C393 H370 0.948 . S
C393 C392 1.392 . S
C393 C394 1.419 . S
C394 C393 1.419 . S
C394 C395 1.372 1_655 S
C394 C398 1.397 . S
C395 C390 1.394 . S
C395 C394 1.372 1_455 S
C395 C396 1.411 . S
C396 C395 1.411 . S
C396 C397 1.396 1_455 S
C396 C399 1.453 . S
C396 C400 1.684 . S
C397 C387 1.723 . S
C397 C396 1.396 1_655 S
C397 C398 1.394 . S
C398 C368 1.723 . S
C398 C394 1.397 . S
C398 C397 1.394 . S
C399 H371 0.982 1_455 S
C399 H375 0.979 . S
C399 H376 0.977 . S
C399 C396 1.453 . S
C400 H372 0.979 . S
C400 H373 0.980 . S
C400 H374 0.983 . S
C400 C396 1.684 . S
H401 C419 0.948 . S
H402 C360 0.948 . S
H403 C378 0.979 . S
H404 C378 0.980 . S
H405 C378 0.983 . S
H406 C377 0.982 . S
H407 C377 0.979 . S
H408 C377 0.977 . S
H409 C379 0.948 . S
H410 C381 0.947 . S
H411 C382 0.948 . S
H412 C388 0.982 . S
H413 C388 0.979 . S
H414 C388 0.977 . S
H415 C389 0.979 . S
H416 C389 0.980 . S
H417 C389 0.983 . S
H418 C362 0.947 . S
C419 C362 1.392 . S
C419 C363 1.419 . S
C419 H401 0.948 . S
C420 C421 1.391 . S
C420 C424 1.391 . S
C420 H462 0.948 . S
C421 C420 1.391 . S
C421 C422 1.391 . S
C422 C421 1.391 . S
C422 H478 0.947 . S
C422 C479 1.392 . S
C423 C424 1.391 . S
C423 C427 1.397 . S
C423 C479 1.419 . S
C424 C420 1.391 . S
C424 C423 1.391 . S
C424 C425 1.399 . S
C425 C424 1.399 . S
C425 C428 1.396 . S
C425 C437 1.453 . S
C425 C438 1.684 . S
H426 C450 0.948 . S
C427 C423 1.397 . S
C427 C428 1.394 . S
C427 C446 1.723 . S
C428 C425 1.396 . S
C428 C427 1.394 . S
C428 C458 1.723 . S
H429 C452 0.947 . S
H430 C453 0.948 . S
H431 C459 0.982 . S
H432 C460 0.979 . S
H433 C460 0.980 . S
H434 C460 0.983 . S
H435 C459 0.979 . S
H436 C459 0.977 . S
C437 C425 1.453 . S
C437 H466 0.982 . S
C437 H467 0.979 . S
C437 H468 0.977 . S
C438 C425 1.684 . S
C438 H463 0.979 . S
C438 H464 0.980 . S
C438 H465 0.983 . S
C439 C440 1.391 . S
C439 C444 1.391 . S
C439 H469 0.948 . S
C440 C439 1.391 . S
C440 C441 1.391 . S
C441 C440 1.391 . S
C441 C442 1.392 . S
C441 H470 0.947 . S
C442 C441 1.392 . S
C442 C443 1.419 . S
C442 H471 0.948 . S
C443 C442 1.419 . S
C443 C444 1.391 . S
C443 C447 1.397 . S
C444 C439 1.391 . S
C444 C443 1.391 . S
C444 C445 1.399 . S
C445 C444 1.399 . S
C445 C446 1.396 . S
C445 C448 1.453 . S
C445 C449 1.684 . S
C446 C427 1.723 . S
C446 C445 1.396 . S
C446 C447 1.394 . S
C447 C443 1.397 . S
C447 C446 1.394 . S
C447 C457 1.723 . S
C448 C445 1.453 . S
C448 H472 0.982 . S
C448 H473 0.979 . S
C448 H474 0.977 . S
C449 C445 1.684 . S
C449 H475 0.979 . S
C449 H476 0.980 . S
C449 H477 0.983 . S
C450 H426 0.948 . S
C450 C451 1.391 . S
C450 C455 1.391 . S
C451 C450 1.391 . S
C451 C452 1.391 . S
C452 H429 0.947 . S
C452 C451 1.391 . S
C452 C453 1.392 . S
C453 H430 0.948 . S
C453 C452 1.392 . S
C453 C454 1.419 . S
C454 C453 1.419 . S
C454 C455 1.391 . S
C454 C458 1.397 . S
C455 C450 1.391 . S
C455 C454 1.391 . S
C455 C456 1.399 . S
C456 C455 1.399 . S
C456 C457 1.396 . S
C456 C459 1.453 . S
C456 C460 1.684 . S
C457 C447 1.723 . S
C457 C456 1.396 . S
C457 C458 1.394 . S
C458 C428 1.723 . S
C458 C454 1.397 . S
C458 C457 1.394 . S
C459 H431 0.982 . S
C459 H435 0.979 . S
C459 H436 0.977 . S
C459 C456 1.453 . S
C460 H432 0.979 . S
C460 H433 0.980 . S
C460 H434 0.983 . S
C460 C456 1.684 . S
H461 C479 0.948 . S
H462 C420 0.948 . S
H463 C438 0.979 . S
H464 C438 0.980 . S
H465 C438 0.983 . S
H466 C437 0.982 . S
H467 C437 0.979 . S
H468 C437 0.977 . S
H469 C439 0.948 . S
H470 C441 0.947 . S
H471 C442 0.948 . S
H472 C448 0.982 . S
H473 C448 0.979 . S
H474 C448 0.977 . S
H475 C449 0.979 . S
H476 C449 0.980 . S
H477 C449 0.983 . S
H478 C422 0.947 . S
C479 C422 1.392 . S
C479 C423 1.419 . S
C479 H461 0.948 . S
C480 C481 1.391 . S
C480 C484 1.391 . S
C480 H522 0.948 . S
C481 C480 1.391 . S
C481 C482 1.391 . S
C482 C481 1.391 . S
C482 H538 0.947 . S
C482 C539 1.392 . S
C483 C484 1.391 . S
C483 C487 1.397 . S
C483 C539 1.419 . S
C484 C480 1.391 . S
C484 C483 1.391 . S
C484 C485 1.399 . S
C485 C484 1.399 . S
C485 C488 1.396 . S
C485 C497 1.453 . S
C485 C498 1.684 . S
H486 C510 0.948 . S
C487 C483 1.397 . S
C487 C488 1.394 . S
C487 C506 1.723 . S
C488 C485 1.396 . S
C488 C487 1.394 . S
C488 C518 1.723 . S
H489 C512 0.947 . S
H490 C513 0.948 . S
H491 C519 0.982 . S
H492 C520 0.979 . S
H493 C520 0.980 . S
H494 C520 0.983 . S
H495 C519 0.979 . S
H496 C519 0.977 . S
C497 C485 1.453 . S
C497 H526 0.982 . S
C497 H527 0.979 . S
C497 H528 0.977 . S
C498 C485 1.684 . S
C498 H523 0.979 . S
C498 H524 0.980 . S
C498 H525 0.983 . S
C499 C500 1.391 . S
C499 C504 1.391 . S
C499 H529 0.948 . S
C500 C499 1.391 . S
C500 C501 1.391 . S
C501 C500 1.391 . S
C501 C502 1.392 . S
C501 H530 0.947 . S
C502 C501 1.392 . S
C502 C503 1.419 . S
C502 H531 0.948 . S
C503 C502 1.419 . S
C503 C504 1.391 . S
C503 C507 1.397 . S
C504 C499 1.391 . S
C504 C503 1.391 . S
C504 C505 1.399 . S
C505 C504 1.399 . S
C505 C506 1.396 . S
C505 C508 1.453 . S
C505 C509 1.684 . S
C506 C487 1.723 . S
C506 C505 1.396 . S
C506 C507 1.394 . S
C507 C503 1.397 . S
C507 C506 1.394 . S
C507 C517 1.723 . S
C508 C505 1.453 . S
C508 H532 0.982 . S
C508 H533 0.979 . S
C508 H534 0.977 . S
C509 C505 1.684 . S
C509 H535 0.979 . S
C509 H536 0.980 . S
C509 H537 0.983 . S
C510 H486 0.948 . S
C510 C511 1.391 . S
C510 C515 1.391 . S
C511 C510 1.391 . S
C511 C512 1.391 . S
C512 H489 0.947 . S
C512 C511 1.391 . S
C512 C513 1.392 . S
C513 H490 0.948 . S
C513 C512 1.392 . S
C513 C514 1.419 . S
C514 C513 1.419 . S
C514 C515 1.391 . S
C514 C518 1.397 . S
C515 C510 1.391 . S
C515 C514 1.391 . S
C515 C516 1.399 . S
C516 C515 1.399 . S
C516 C517 1.396 . S
C516 C519 1.453 . S
C516 C520 1.684 . S
C517 C507 1.723 . S
C517 C516 1.396 . S
C517 C518 1.394 . S
C518 C488 1.723 . S
C518 C514 1.397 . S
C518 C517 1.394 . S
C519 H491 0.982 . S
C519 H495 0.979 . S
C519 H496 0.977 . S
C519 C516 1.453 . S
C520 H492 0.979 . S
C520 H493 0.980 . S
C520 H494 0.983 . S
C520 C516 1.684 . S
H521 C539 0.948 . S
H522 C480 0.948 . S
H523 C498 0.979 . S
H524 C498 0.980 . S
H525 C498 0.983 . S
H526 C497 0.982 . S
H527 C497 0.979 . S
H528 C497 0.977 . S
H529 C499 0.948 . S
H530 C501 0.947 . S
H531 C502 0.948 . S
H532 C508 0.982 . S
H533 C508 0.979 . S
H534 C508 0.977 . S
H535 C509 0.979 . S
H536 C509 0.980 . S
H537 C509 0.983 . S
H538 C482 0.947 . S
C539 C482 1.392 . S
C539 C483 1.419 . S
C539 H521 0.948 . S
C540 C541 1.391 . S
C540 C544 1.391 . S
C540 H582 0.948 . S
C541 C540 1.391 . S
C541 C542 1.391 . S
C542 C541 1.391 . S
C542 H598 0.947 . S
C542 C599 1.392 . S
C543 C544 1.391 . S
C543 C547 1.397 . S
C543 C599 1.419 . S
C544 C540 1.391 . S
C544 C543 1.391 . S
C544 C545 1.399 . S
C545 C544 1.399 . S
C545 C548 1.396 . S
C545 C557 1.453 . S
C545 C558 1.684 . S
H546 C570 0.948 . S
C547 C543 1.397 . S
C547 C548 1.394 . S
C547 C566 1.723 . S
C548 C545 1.396 . S
C548 C547 1.394 . S
C548 C578 1.723 . S
H549 C572 0.947 . S
H550 C573 0.948 . S
H551 C579 0.982 1_565 S
H552 C580 0.979 . S
H553 C580 0.980 . S
H554 C580 0.983 . S
H555 C579 0.979 . S
H556 C579 0.977 . S
C557 C545 1.453 . S
C557 H586 0.982 . S
C557 H587 0.979 . S
C557 H588 0.977 . S
C558 C545 1.684 . S
C558 H583 0.979 . S
C558 H584 0.980 . S
C558 H585 0.983 . S
C559 C560 1.391 . S
C559 C564 1.391 . S
C559 H589 0.948 . S
C560 C559 1.391 . S
C560 C561 1.391 . S
C561 C560 1.391 . S
C561 C562 1.392 . S
C561 H590 0.947 . S
C562 C561 1.392 . S
C562 C563 1.419 . S
C562 H591 0.948 . S
C563 C562 1.419 . S
C563 C564 1.391 . S
C563 C567 1.397 1_545 S
C564 C559 1.391 . S
C564 C563 1.391 . S
C564 C565 1.399 1_545 S
C565 C564 1.399 1_565 S
C565 C566 1.396 . S
C565 C568 1.453 . S
C565 C569 1.684 . S
C566 C547 1.723 . S
C566 C565 1.396 . S
C566 C567 1.394 . S
C567 C563 1.397 1_565 S
C567 C566 1.394 . S
C567 C577 1.723 . S
C568 C565 1.453 . S
C568 H592 0.982 . S
C568 H593 0.979 . S
C568 H594 0.977 . S
C569 C565 1.684 . S
C569 H595 0.979 1_565 S
C569 H596 0.980 . S
C569 H597 0.983 . S
C570 H546 0.948 . S
C570 C571 1.391 1_545 S
C570 C575 1.394 . S
C571 C570 1.391 1_565 S
C571 C572 1.391 . S
C572 H549 0.947 . S
C572 C571 1.391 . S
C572 C573 1.392 . S
C573 H550 0.948 . S
C573 C572 1.392 . S
C573 C574 1.419 . S
C574 C573 1.419 . S
C574 C575 1.379 1_565 S
C574 C578 1.397 . S
C575 C570 1.394 . S
C575 C574 1.379 1_545 S
C575 C576 1.406 . S
C576 C575 1.406 . S
C576 C577 1.396 1_545 S
C576 C579 1.453 . S
C576 C580 1.684 . S
C577 C567 1.723 . S
C577 C576 1.396 1_565 S
C577 C578 1.394 . S
C578 C548 1.723 . S
C578 C574 1.397 . S
C578 C577 1.394 . S
C579 H551 0.982 1_545 S
C579 H555 0.979 . S
C579 H556 0.977 . S
C579 C576 1.453 . S
C580 H552 0.979 . S
C580 H553 0.980 . S
C580 H554 0.983 . S
C580 C576 1.684 . S
H581 C599 0.948 . S
H582 C540 0.948 . S
H583 C558 0.979 . S
H584 C558 0.980 . S
H585 C558 0.983 . S
H586 C557 0.982 . S
H587 C557 0.979 . S
H588 C557 0.977 . S
H589 C559 0.948 . S
H590 C561 0.947 . S
H591 C562 0.948 . S
H592 C568 0.982 . S
H593 C568 0.979 . S
H594 C568 0.977 . S
H595 C569 0.979 1_545 S
H596 C569 0.980 . S
H597 C569 0.983 . S
H598 C542 0.947 . S
C599 C542 1.392 . S
C599 C543 1.419 . S
C599 H581 0.948 . S
C600 C601 1.391 . S
C600 C604 1.391 . S
C600 H642 0.948 . S
C601 C600 1.391 . S
C601 C602 1.391 . S
C602 C601 1.391 . S
C602 H658 0.947 . S
C602 C659 1.392 . S
C603 C604 1.391 . S
C603 C607 1.397 . S
C603 C659 1.419 . S
C604 C600 1.391 . S
C604 C603 1.391 . S
C604 C605 1.399 . S
C605 C604 1.399 . S
C605 C608 1.396 . S
C605 C617 1.453 . S
C605 C618 1.684 . S
H606 C630 0.948 . S
C607 C603 1.397 . S
C607 C608 1.394 . S
C607 C626 1.723 . S
C608 C605 1.396 . S
C608 C607 1.394 . S
C608 C638 1.723 . S
H609 C632 0.947 . S
H610 C633 0.948 . S
H611 C639 0.982 . S
H612 C640 0.979 . S
H613 C640 0.980 . S
H614 C640 0.983 . S
H615 C639 0.979 . S
H616 C639 0.977 . S
C617 C605 1.453 . S
C617 H646 0.982 . S
C617 H647 0.979 . S
C617 H648 0.977 . S
C618 C605 1.684 . S
C618 H643 0.979 . S
C618 H644 0.980 . S
C618 H645 0.983 . S
C619 C620 1.391 . S
C619 C624 1.391 . S
C619 H649 0.948 . S
C620 C619 1.391 . S
C620 C621 1.391 . S
C621 C620 1.391 . S
C621 C622 1.392 . S
C621 H650 0.947 . S
C622 C621 1.392 . S
C622 C623 1.419 . S
C622 H651 0.948 . S
C623 C622 1.419 . S
C623 C624 1.391 . S
C623 C627 1.397 . S
C624 C619 1.391 . S
C624 C623 1.391 . S
C624 C625 1.399 . S
C625 C624 1.399 . S
C625 C626 1.396 . S
C625 C628 1.453 . S
C625 C629 1.684 . S
C626 C607 1.723 . S
C626 C625 1.396 . S
C626 C627 1.394 . S
C627 C623 1.397 . S
C627 C626 1.394 . S
C627 C637 1.723 . S
C628 C625 1.453 . S
C628 H652 0.982 . S
C628 H653 0.979 . S
C628 H654 0.977 . S
C629 C625 1.684 . S
C629 H655 0.979 . S
C629 H656 0.980 . S
C629 H657 0.983 . S
C630 H606 0.948 . S
C630 C631 1.391 . S
C630 C635 1.391 . S
C631 C630 1.391 . S
C631 C632 1.391 . S
C632 H609 0.947 . S
C632 C631 1.391 . S
C632 C633 1.392 . S
C633 H610 0.948 . S
C633 C632 1.392 . S
C633 C634 1.419 . S
C634 C633 1.419 . S
C634 C635 1.391 . S
C634 C638 1.397 . S
C635 C630 1.391 . S
C635 C634 1.391 . S
C635 C636 1.399 . S
C636 C635 1.399 . S
C636 C637 1.396 . S
C636 C639 1.453 . S
C636 C640 1.684 . S
C637 C627 1.723 . S
C637 C636 1.396 . S
C637 C638 1.394 . S
C638 C608 1.723 . S
C638 C634 1.397 . S
C638 C637 1.394 . S
C639 H611 0.982 . S
C639 H615 0.979 . S
C639 H616 0.977 . S
C639 C636 1.453 . S
C640 H612 0.979 . S
C640 H613 0.980 . S
C640 H614 0.983 . S
C640 C636 1.684 . S
H641 C659 0.948 . S
H642 C600 0.948 . S
H643 C618 0.979 . S
H644 C618 0.980 . S
H645 C618 0.983 . S
H646 C617 0.982 . S
H647 C617 0.979 . S
H648 C617 0.977 . S
H649 C619 0.948 . S
H650 C621 0.947 . S
H651 C622 0.948 . S
H652 C628 0.982 . S
H653 C628 0.979 . S
H654 C628 0.977 . S
H655 C629 0.979 . S
H656 C629 0.980 . S
H657 C629 0.983 . S
H658 C602 0.947 . S
C659 C602 1.392 . S
C659 C603 1.419 . S
C659 H641 0.948 . S
C660 C661 1.391 . S
C660 C664 1.391 . S
C660 H702 0.948 . S
C661 C660 1.391 . S
C661 C662 1.391 . S
C662 C661 1.391 . S
C662 H718 0.947 . S
C662 C719 1.392 . S
C663 C664 1.391 . S
C663 C667 1.397 . S
C663 C719 1.419 . S
C664 C660 1.391 . S
C664 C663 1.391 . S
C664 C665 1.399 . S
C665 C664 1.399 . S
C665 C668 1.396 . S
C665 C677 1.453 . S
C665 C678 1.684 . S
H666 C690 0.948 . S
C667 C663 1.397 . S
C667 C668 1.394 . S
C667 C686 1.723 . S
C668 C665 1.396 . S
C668 C667 1.394 . S
C668 C698 1.723 . S
H669 C692 0.947 . S
H670 C693 0.948 . S
H671 C699 0.982 . S
H672 C700 0.979 . S
H673 C700 0.980 . S
H674 C700 0.983 . S
H675 C699 0.979 . S
H676 C699 0.977 . S
C677 C665 1.453 . S
C677 H706 0.982 . S
C677 H707 0.979 . S
C677 H708 0.977 . S
C678 C665 1.684 . S
C678 H703 0.979 . S
C678 H704 0.980 . S
C678 H705 0.983 . S
C679 C680 1.391 . S
C679 C684 1.391 . S
C679 H709 0.948 . S
C680 C679 1.391 . S
C680 C681 1.391 . S
C681 C680 1.391 . S
C681 C682 1.392 . S
C681 H710 0.947 . S
C682 C681 1.392 . S
C682 C683 1.419 . S
C682 H711 0.948 . S
C683 C682 1.419 . S
C683 C684 1.391 . S
C683 C687 1.397 . S
C684 C679 1.391 . S
C684 C683 1.391 . S
C684 C685 1.399 . S
C685 C684 1.399 . S
C685 C686 1.396 . S
C685 C688 1.453 . S
C685 C689 1.684 . S
C686 C667 1.723 . S
C686 C685 1.396 . S
C686 C687 1.394 . S
C687 C683 1.397 . S
C687 C686 1.394 . S
C687 C697 1.723 . S
C688 C685 1.453 . S
C688 H712 0.982 . S
C688 H713 0.979 . S
C688 H714 0.977 . S
C689 C685 1.684 . S
C689 H715 0.979 . S
C689 H716 0.980 . S
C689 H717 0.983 . S
C690 H666 0.948 . S
C690 C691 1.391 . S
C690 C695 1.391 . S
C691 C690 1.391 . S
C691 C692 1.391 . S
C692 H669 0.947 . S
C692 C691 1.391 . S
C692 C693 1.392 . S
C693 H670 0.948 . S
C693 C692 1.392 . S
C693 C694 1.419 . S
C694 C693 1.419 . S
C694 C695 1.391 . S
C694 C698 1.397 . S
C695 C690 1.391 . S
C695 C694 1.391 . S
C695 C696 1.399 . S
C696 C695 1.399 . S
C696 C697 1.396 . S
C696 C699 1.453 . S
C696 C700 1.684 . S
C697 C687 1.723 . S
C697 C696 1.396 . S
C697 C698 1.394 . S
C698 C668 1.723 . S
C698 C694 1.397 . S
C698 C697 1.394 . S
C699 H671 0.982 . S
C699 H675 0.979 . S
C699 H676 0.977 . S
C699 C696 1.453 . S
C700 H672 0.979 . S
C700 H673 0.980 . S
C700 H674 0.983 . S
C700 C696 1.684 . S
H701 C719 0.948 . S
H702 C660 0.948 . S
H703 C678 0.979 . S
H704 C678 0.980 . S
H705 C678 0.983 . S
H706 C677 0.982 . S
H707 C677 0.979 . S
H708 C677 0.977 . S
H709 C679 0.948 . S
H710 C681 0.947 . S
H711 C682 0.948 . S
H712 C688 0.982 . S
H713 C688 0.979 . S
H714 C688 0.977 . S
H715 C689 0.979 . S
H716 C689 0.980 . S
H717 C689 0.983 . S
H718 C662 0.947 . S
C719 C662 1.392 . S
C719 C663 1.419 . S
C719 H701 0.948 . S
C720 C721 1.391 . S
C720 C724 1.391 . S
C720 H762 0.948 . S
C721 C720 1.391 . S
C721 C722 1.391 . S
C722 C721 1.391 . S
C722 H778 0.947 . S
C722 C779 1.392 . S
C723 C724 1.391 . S
C723 C727 1.397 . S
C723 C779 1.419 . S
C724 C720 1.391 . S
C724 C723 1.391 . S
C724 C725 1.399 . S
C725 C724 1.399 . S
C725 C728 1.396 . S
C725 C737 1.453 . S
C725 C738 1.684 . S
H726 C750 0.948 . S
C727 C723 1.397 . S
C727 C728 1.394 . S
C727 C746 1.723 . S
C728 C725 1.396 . S
C728 C727 1.394 . S
C728 C758 1.723 . S
H729 C752 0.947 . S
H730 C753 0.948 . S
H731 C759 0.982 . S
H732 C760 0.979 . S
H733 C760 0.980 . S
H734 C760 0.983 . S
H735 C759 0.979 . S
H736 C759 0.977 . S
C737 C725 1.453 . S
C737 H766 0.982 . S
C737 H767 0.979 . S
C737 H768 0.977 . S
C738 C725 1.684 . S
C738 H763 0.979 . S
C738 H764 0.980 . S
C738 H765 0.983 . S
C739 C740 1.391 . S
C739 C744 1.391 . S
C739 H769 0.948 . S
C740 C739 1.391 . S
C740 C741 1.391 . S
C741 C740 1.391 . S
C741 C742 1.392 . S
C741 H770 0.947 . S
C742 C741 1.392 . S
C742 C743 1.419 . S
C742 H771 0.948 . S
C743 C742 1.419 . S
C743 C744 1.391 . S
C743 C747 1.397 . S
C744 C739 1.391 . S
C744 C743 1.391 . S
C744 C745 1.399 . S
C745 C744 1.399 . S
C745 C746 1.396 . S
C745 C748 1.453 . S
C745 C749 1.684 . S
C746 C727 1.723 . S
C746 C745 1.396 . S
C746 C747 1.394 . S
C747 C743 1.397 . S
C747 C746 1.394 . S
C747 C757 1.723 . S
C748 C745 1.453 . S
C748 H772 0.982 . S
C748 H773 0.979 . S
C748 H774 0.977 . S
C749 C745 1.684 . S
C749 H775 0.979 . S
C749 H776 0.980 . S
C749 H777 0.983 . S
C750 H726 0.948 . S
C750 C751 1.391 . S
C750 C755 1.391 . S
C751 C750 1.391 . S
C751 C752 1.391 . S
C752 H729 0.947 . S
C752 C751 1.391 . S
C752 C753 1.392 . S
C753 H730 0.948 . S
C753 C752 1.392 . S
C753 C754 1.419 . S
C754 C753 1.419 . S
C754 C755 1.391 . S
C754 C758 1.397 . S
C755 C750 1.391 . S
C755 C754 1.391 . S
C755 C756 1.399 . S
C756 C755 1.399 . S
C756 C757 1.396 . S
C756 C759 1.453 . S
C756 C760 1.684 . S
C757 C747 1.723 . S
C757 C756 1.396 . S
C757 C758 1.394 . S
C758 C728 1.723 . S
C758 C754 1.397 . S
C758 C757 1.394 . S
C759 H731 0.982 . S
C759 H735 0.979 . S
C759 H736 0.977 . S
C759 C756 1.453 . S
C760 H732 0.979 . S
C760 H733 0.980 . S
C760 H734 0.983 . S
C760 C756 1.684 . S
H761 C779 0.948 . S
H762 C720 0.948 . S
H763 C738 0.979 . S
H764 C738 0.980 . S
H765 C738 0.983 . S
H766 C737 0.982 . S
H767 C737 0.979 . S
H768 C737 0.977 . S
H769 C739 0.948 . S
H770 C741 0.947 . S
H771 C742 0.948 . S
H772 C748 0.982 . S
H773 C748 0.979 . S
H774 C748 0.977 . S
H775 C749 0.979 . S
H776 C749 0.980 . S
H777 C749 0.983 . S
H778 C722 0.947 . S
C779 C722 1.392 . S
C779 C723 1.419 . S
C779 H761 0.948 . S
C780 C781 1.391 . S
C780 C784 1.391 . S
C780 H822 0.948 . S
C781 C780 1.391 . S
C781 C782 1.391 . S
C782 C781 1.391 . S
C782 H838 0.947 . S
C782 C839 1.392 1_554 S
C783 C784 1.391 . S
C783 C787 1.397 1_554 S
C783 C839 1.419 1_554 S
C784 C780 1.391 . S
C784 C783 1.391 . S
C784 C785 1.399 . S
C785 C784 1.399 . S
C785 C788 1.396 . S
C785 C797 1.453 . S
C785 C798 1.684 . S
H786 C810 0.948 . S
C787 C783 1.397 1_556 S
C787 C788 1.394 1_556 S
C787 C806 1.723 . S
C788 C785 1.396 . S
C788 C787 1.394 1_554 S
C788 C818 1.723 1_554 S
H789 C812 0.947 . S
H790 C813 0.948 . S
H791 C819 0.982 . S
H792 C820 0.979 . S
H793 C820 0.980 . S
H794 C820 0.983 . S
H795 C819 0.979 . S
H796 C819 0.977 . S
C797 C785 1.453 . S
C797 H826 0.982 . S
C797 H827 0.979 . S
C797 H828 0.977 . S
C798 C785 1.684 . S
C798 H823 0.979 . S
C798 H824 0.980 . S
C798 H825 0.983 . S
C799 C800 1.391 . S
C799 C804 1.391 . S
C799 H829 0.948 . S
C800 C799 1.391 . S
C800 C801 1.391 . S
C801 C800 1.391 . S
C801 C802 1.392 . S
C801 H830 0.947 . S
C802 C801 1.392 . S
C802 C803 1.419 . S
C802 H831 0.948 . S
C803 C802 1.419 . S
C803 C804 1.391 . S
C803 C807 1.397 . S
C804 C799 1.391 . S
C804 C803 1.391 . S
C804 C805 1.399 . S
C805 C804 1.399 . S
C805 C806 1.396 . S
C805 C808 1.453 . S
C805 C809 1.684 . S
C806 C787 1.723 . S
C806 C805 1.396 . S
C806 C807 1.394 . S
C807 C803 1.397 . S
C807 C806 1.394 . S
C807 C817 1.723 . S
C808 C805 1.453 . S
C808 H832 0.982 . S
C808 H833 0.979 . S
C808 H834 0.977 . S
C809 C805 1.684 . S
C809 H835 0.979 . S
C809 H836 0.980 . S
C809 H837 0.983 . S
C810 H786 0.948 . S
C810 C811 1.415 . S
C810 C815 1.391 . S
C811 C810 1.415 . S
C811 C812 1.371 1_556 S
C812 H789 0.947 . S
C812 C811 1.371 1_554 S
C812 C813 1.392 . S
C813 H790 0.948 . S
C813 C812 1.392 . S
C813 C814 1.419 1_554 S
C814 C813 1.419 1_556 S
C814 C815 1.391 . S
C814 C818 1.397 . S
C815 C810 1.391 . S
C815 C814 1.391 . S
C815 C816 1.399 . S
C816 C815 1.399 . S
C816 C817 1.396 . S
C816 C819 1.453 . S
C816 C820 1.684 . S
C817 C807 1.723 . S
C817 C816 1.396 . S
C817 C818 1.394 . S
C818 C788 1.723 1_556 S
C818 C814 1.397 . S
C818 C817 1.394 . S
C819 H791 0.982 . S
C819 H795 0.979 . S
C819 H796 0.977 . S
C819 C816 1.453 . S
C820 H792 0.979 . S
C820 H793 0.980 . S
C820 H794 0.983 . S
C820 C816 1.684 . S
H821 C839 0.948 . S
H822 C780 0.948 . S
H823 C798 0.979 . S
H824 C798 0.980 . S
H825 C798 0.983 . S
H826 C797 0.982 . S
H827 C797 0.979 . S
H828 C797 0.977 . S
H829 C799 0.948 . S
H830 C801 0.947 . S
H831 C802 0.948 . S
H832 C808 0.982 . S
H833 C808 0.979 . S
H834 C808 0.977 . S
H835 C809 0.979 . S
H836 C809 0.980 . S
H837 C809 0.983 . S
H838 C782 0.947 . S
C839 C782 1.392 1_556 S
C839 C783 1.419 1_556 S
C839 H821 0.948 . S
C840 C841 1.391 . S
C840 C844 1.391 . S
C840 H882 0.948 . S
C841 C840 1.391 . S
C841 C842 1.391 . S
C842 C841 1.391 . S
C842 H898 0.947 . S
C842 C899 1.392 . S
C843 C844 1.391 . S
C843 C847 1.397 . S
C843 C899 1.419 . S
C844 C840 1.391 . S
C844 C843 1.391 . S
C844 C845 1.399 . S
C845 C844 1.399 . S
C845 C848 1.396 . S
C845 C857 1.453 . S
C845 C858 1.684 . S
H846 C870 0.948 . S
C847 C843 1.397 . S
C847 C848 1.394 . S
C847 C866 1.723 . S
C848 C845 1.396 . S
C848 C847 1.394 . S
C848 C878 1.723 . S
H849 C872 0.947 . S
H850 C873 0.948 . S
H851 C879 0.982 . S
H852 C880 0.979 . S
H853 C880 0.980 . S
H854 C880 0.983 . S
H855 C879 0.979 . S
H856 C879 0.977 . S
C857 C845 1.453 . S
C857 H886 0.982 . S
C857 H887 0.979 . S
C857 H888 0.977 . S
C858 C845 1.684 . S
C858 H883 0.979 . S
C858 H884 0.980 . S
C858 H885 0.983 . S
C859 C860 1.391 . S
C859 C864 1.391 . S
C859 H889 0.948 . S
C860 C859 1.391 . S
C860 C861 1.391 . S
C861 C860 1.391 . S
C861 C862 1.392 . S
C861 H890 0.947 . S
C862 C861 1.392 . S
C862 C863 1.419 . S
C862 H891 0.948 . S
C863 C862 1.419 . S
C863 C864 1.391 . S
C863 C867 1.397 . S
C864 C859 1.391 . S
C864 C863 1.391 . S
C864 C865 1.399 . S
C865 C864 1.399 . S
C865 C866 1.396 . S
C865 C868 1.453 . S
C865 C869 1.684 . S
C866 C847 1.723 . S
C866 C865 1.396 . S
C866 C867 1.394 . S
C867 C863 1.397 . S
C867 C866 1.394 . S
C867 C877 1.723 . S
C868 C865 1.453 . S
C868 H892 0.982 . S
C868 H893 0.979 . S
C868 H894 0.977 . S
C869 C865 1.684 . S
C869 H895 0.979 . S
C869 H896 0.980 . S
C869 H897 0.983 . S
C870 H846 0.948 . S
C870 C871 1.391 . S
C870 C875 1.391 . S
C871 C870 1.391 . S
C871 C872 1.391 . S
C872 H849 0.947 . S
C872 C871 1.391 . S
C872 C873 1.392 . S
C873 H850 0.948 . S
C873 C872 1.392 . S
C873 C874 1.419 . S
C874 C873 1.419 . S
C874 C875 1.391 . S
C874 C878 1.397 . S
C875 C870 1.391 . S
C875 C874 1.391 . S
C875 C876 1.399 . S
C876 C875 1.399 . S
C876 C877 1.396 . S
C876 C879 1.453 . S
C876 C880 1.684 . S
C877 C867 1.723 . S
C877 C876 1.396 . S
C877 C878 1.394 . S
C878 C848 1.723 . S
C878 C874 1.397 . S
C878 C877 1.394 . S
C879 H851 0.982 . S
C879 H855 0.979 . S
C879 H856 0.977 . S
C879 C876 1.453 . S
C880 H852 0.979 . S
C880 H853 0.980 . S
C880 H854 0.983 . S
C880 C876 1.684 . S
H881 C899 0.948 . S
H882 C840 0.948 . S
H883 C858 0.979 . S
H884 C858 0.980 . S
H885 C858 0.983 . S
H886 C857 0.982 . S
H887 C857 0.979 . S
H888 C857 0.977 . S
H889 C859 0.948 . S
H890 C861 0.947 . S
H891 C862 0.948 . S
H892 C868 0.982 . S
H893 C868 0.979 . S
H894 C868 0.977 . S
H895 C869 0.979 . S
H896 C869 0.980 . S
H897 C869 0.983 . S
H898 C842 0.947 . S
C899 C842 1.392 . S
C899 C843 1.419 . S
C899 H881 0.948 . S
C900 C901 1.391 1_554 S
C900 C904 1.391 . S
C900 H942 0.948 . S
C901 C900 1.391 1_556 S
C901 C902 1.391 . S
C902 C901 1.391 . S
C902 H958 0.947 . S
C902 C959 1.392 . S
C903 C904 1.391 1_556 S
C903 C907 1.397 1_565 S
C903 C959 1.419 . S
C904 C900 1.391 . S
C904 C903 1.391 1_554 S
C904 C905 1.399 1_565 S
C905 C904 1.399 1_545 S
C905 C908 1.398 . S
C905 C917 1.453 . S
C905 C918 1.684 . S
H906 C930 0.948 . S
C907 C903 1.397 1_545 S
C907 C908 1.393 1_556 S
C907 C926 1.723 . S
C908 C905 1.398 . S
C908 C907 1.393 1_554 S
C908 C938 1.723 . S
H909 C932 0.947 . S
H910 C933 0.948 . S
H911 C939 0.982 . S
H912 C940 0.979 1_554 S
H913 C940 0.980 . S
H914 C940 0.987 . S
H915 C939 0.979 . S
H916 C939 0.977 . S
C917 C905 1.453 . S
C917 H946 0.982 1_554 S
C917 H947 0.979 . S
C917 H948 0.977 . S
C918 C905 1.684 . S
C918 H943 0.979 1_545 S
C918 H944 0.980 . S
C918 H945 0.983 . S
C919 C920 1.391 1_565 S
C919 C924 1.391 . S
C919 H949 0.948 . S
C920 C919 1.391 1_545 S
C920 C921 1.391 . S
C921 C920 1.391 . S
C921 C922 1.392 . S
C921 H950 0.947 . S
C922 C921 1.392 . S
C922 C923 1.419 . S
C922 H951 0.948 . S
C923 C922 1.419 . S
C923 C924 1.391 1_545 S
C923 C927 1.397 . S
C924 C919 1.391 . S
C924 C923 1.391 1_565 S
C924 C925 1.399 . S
C925 C924 1.399 . S
C925 C926 1.396 1_565 S
C925 C928 1.453 . S
C925 C929 1.684 . S
C926 C907 1.723 . S
C926 C925 1.396 1_545 S
C926 C927 1.394 . S
C927 C923 1.397 . S
C927 C926 1.394 . S
C927 C937 1.723 . S
C928 C925 1.453 . S
C928 H952 0.982 . S
C928 H953 0.979 . S
C928 H954 0.977 . S
C929 C925 1.684 . S
C929 H955 0.979 . S
C929 H956 0.980 . S
C929 H957 0.983 . S
C930 H906 0.948 . S
C930 C931 1.391 . S
C930 C935 1.391 . S
C931 C930 1.391 . S
C931 C932 1.391 . S
C932 H909 0.947 . S
C932 C931 1.391 . S
C932 C933 1.392 . S
C933 H910 0.948 . S
C933 C932 1.392 . S
C933 C934 1.419 . S
C934 C933 1.419 . S
C934 C935 1.391 . S
C934 C938 1.407 . S
C935 C930 1.391 . S
C935 C934 1.391 . S
C935 C936 1.399 1_554 S
C936 C935 1.399 1_556 S
C936 C937 1.396 . S
C936 C939 1.453 . S
C936 C940 1.684 . S
C937 C927 1.723 . S
C937 C936 1.396 . S
C937 C938 1.384 1_556 S
C938 C908 1.723 . S
C938 C934 1.407 . S
C938 C937 1.384 1_554 S
C939 H911 0.982 . S
C939 H915 0.979 . S
C939 H916 0.977 . S
C939 C936 1.453 . S
C940 H912 0.979 1_556 S
C940 H913 0.980 . S
C940 H914 0.987 . S
C940 C936 1.684 . S
H941 C959 0.948 . S
H942 C900 0.948 . S
H943 C918 0.979 1_565 S
H944 C918 0.980 . S
H945 C918 0.983 . S
H946 C917 0.982 1_556 S
H947 C917 0.979 . S
H948 C917 0.977 . S
H949 C919 0.948 . S
H950 C921 0.947 . S
H951 C922 0.948 . S
H952 C928 0.982 . S
H953 C928 0.979 . S
H954 C928 0.977 . S
H955 C929 0.979 . S
H956 C929 0.980 . S
H957 C929 0.983 . S
H958 C902 0.947 . S
C959 C902 1.392 . S
C959 C903 1.419 . S
C959 H941 0.948 . S
Mg960 O961 2.028 . S
Mg960 O967 1.986 1_554 S
Mg960 O969 2.114 . S
Mg960 O970 2.251 . S
Mg960 O973 2.010 . S
O961 Mg960 2.028 . S
O961 C964 1.250 1_554 S
O962 Mg963 2.028 . S
O962 C964 1.248 . S
Mg963 O962 2.028 . S
Mg963 O968 2.032 . S
Mg963 O970 2.079 1_556 S
C964 O961 1.250 1_556 S
C964 O962 1.248 . S
C965 O966 1.264 . S
C965 O973 1.249 . S
O966 C965 1.264 . S
O967 Mg960 1.986 1_556 S
O967 C971 1.246 . S
O968 Mg963 2.032 . S
O968 C971 1.259 . S
O969 Mg960 2.114 . S
O969 C972 1.252 . S
O970 Mg960 2.251 . S
O970 Mg963 2.079 1_554 S
O970 C972 1.273 . S
C971 O967 1.246 . S
C971 O968 1.259 . S
C972 O969 1.252 . S
C972 O970 1.273 . S
O973 Mg960 2.010 . S
O973 C965 1.249 . S
Mg974 O975 2.028 . S
Mg974 O981 1.986 . S
Mg974 O983 2.114 . S
Mg974 O984 2.251 . S
Mg974 O987 2.010 . S
O975 Mg974 2.028 . S
O975 C978 1.250 . S
O976 Mg977 2.028 . S
O976 C978 1.248 . S
Mg977 O976 2.028 . S
Mg977 O982 2.032 . S
Mg977 O984 2.079 . S
C978 O975 1.250 . S
C978 O976 1.248 . S
C979 O980 1.264 . S
C979 O987 1.249 . S
O980 C979 1.264 . S
O981 Mg974 1.986 . S
O981 C985 1.246 . S
O982 Mg977 2.032 . S
O982 C985 1.259 . S
O983 Mg974 2.114 . S
O983 C986 1.252 . S
O984 Mg974 2.251 . S
O984 Mg977 2.079 . S
O984 C986 1.273 . S
C985 O981 1.246 . S
C985 O982 1.259 . S
C986 O983 1.252 . S
C986 O984 1.273 . S
O987 Mg974 2.010 . S
O987 C979 1.249 . S
Mg988 O989 2.028 . S
Mg988 O995 1.986 1_554 S
Mg988 O997 2.114 . S
Mg988 O998 2.251 . S
Mg988 O1001 2.010 . S
O989 Mg988 2.028 . S
O989 C992 1.248 1_554 S
O990 Mg991 2.028 . S
O990 C992 1.249 . S
Mg991 O990 2.028 . S
Mg991 O996 2.032 . S
Mg991 O998 2.079 1_556 S
C992 O989 1.248 1_556 S
C992 O990 1.249 . S
C993 O994 1.264 . S
C993 O1001 1.249 . S
O994 C993 1.264 . S
O995 Mg988 1.986 1_556 S
O995 C999 1.246 . S
O996 Mg991 2.032 . S
O996 C999 1.259 . S
O997 Mg988 2.114 . S
O997 C1000 1.252 . S
O998 Mg988 2.251 . S
O998 Mg991 2.079 1_554 S
O998 C1000 1.273 . S
C999 O995 1.246 . S
C999 O996 1.259 . S
C1000 O997 1.252 . S
C1000 O998 1.273 . S
O1001 Mg988 2.010 . S
O1001 C993 1.249 . S
Mg1002 O1003 2.028 1_545 S
Mg1002 O1009 1.986 . S
Mg1002 O1011 2.114 . S
Mg1002 O1012 2.265 . S
Mg1002 O1015 2.010 . S
O1003 Mg1002 2.028 1_565 S
O1003 C1006 1.250 . S
O1004 Mg1005 2.028 . S
O1004 C1006 1.248 . S
Mg1005 O1004 2.028 . S
Mg1005 O1010 2.032 . S
Mg1005 O1012 2.056 1_565 S
C1006 O1003 1.250 . S
C1006 O1004 1.248 . S
C1007 O1008 1.264 . S
C1007 O1015 1.249 . S
O1008 C1007 1.264 . S
O1009 Mg1002 1.986 . S
O1009 C1013 1.246 1_545 S
O1010 Mg1005 2.032 . S
O1010 C1013 1.259 . S
O1011 Mg1002 2.114 . S
O1011 C1014 1.252 . S
O1012 Mg1002 2.265 . S
O1012 Mg1005 2.056 1_545 S
O1012 C1014 1.288 . S
C1013 O1009 1.246 1_565 S
C1013 O1010 1.259 . S
C1014 O1011 1.252 . S
C1014 O1012 1.288 . S
O1015 Mg1002 2.010 . S
O1015 C1007 1.249 . S
Mg1016 O1017 2.028 . S
Mg1016 O1023 1.986 . S
Mg1016 O1025 2.114 . S
Mg1016 O1026 2.251 . S
Mg1016 O1029 2.010 . S
O1017 Mg1016 2.028 . S
O1017 C1020 1.250 . S
O1018 Mg1019 2.028 . S
O1018 C1020 1.248 . S
Mg1019 O1018 2.028 . S
Mg1019 O1024 2.032 . S
Mg1019 O1026 2.079 . S
C1020 O1017 1.250 . S
C1020 O1018 1.248 . S
C1021 O1022 1.264 . S
C1021 O1029 1.249 . S
O1022 C1021 1.264 . S
O1023 Mg1016 1.986 . S
O1023 C1027 1.246 . S
O1024 Mg1019 2.032 . S
O1024 C1027 1.259 . S
O1025 Mg1016 2.114 . S
O1025 C1028 1.252 . S
O1026 Mg1016 2.251 . S
O1026 Mg1019 2.079 . S
O1026 C1028 1.273 . S
C1027 O1023 1.246 . S
C1027 O1024 1.259 . S
C1028 O1025 1.252 . S
C1028 O1026 1.273 . S
O1029 Mg1016 2.010 . S
O1029 C1021 1.249 . S
Mg1030 O1031 2.028 . S
Mg1030 O1037 1.986 . S
Mg1030 O1039 2.114 . S
Mg1030 O1040 2.251 . S
Mg1030 O1043 2.010 . S
O1031 Mg1030 2.028 . S
O1031 C1034 1.250 . S
O1032 Mg1033 2.028 . S
O1032 C1034 1.248 . S
Mg1033 O1032 2.028 . S
Mg1033 O1038 2.032 . S
Mg1033 O1040 2.079 . S
C1034 O1031 1.250 . S
C1034 O1032 1.248 . S
C1035 O1036 1.264 . S
C1035 O1043 1.249 . S
O1036 C1035 1.264 . S
O1037 Mg1030 1.986 . S
O1037 C1041 1.246 . S
O1038 Mg1033 2.032 . S
O1038 C1041 1.259 . S
O1039 Mg1030 2.114 . S
O1039 C1042 1.252 . S
O1040 Mg1030 2.251 . S
O1040 Mg1033 2.079 . S
O1040 C1042 1.273 . S
C1041 O1037 1.246 . S
C1041 O1038 1.259 . S
C1042 O1039 1.252 . S
C1042 O1040 1.273 . S
O1043 Mg1030 2.010 . S
O1043 C1035 1.249 . S
Mg1044 O1045 2.028 . S
Mg1044 O1051 1.986 . S
Mg1044 O1053 2.114 . S
Mg1044 O1054 2.251 . S
Mg1044 O1057 2.010 . S
O1045 Mg1044 2.028 . S
O1045 C1048 1.250 . S
O1046 Mg1047 2.028 . S
O1046 C1048 1.248 . S
Mg1047 O1046 2.028 . S
Mg1047 O1052 2.032 . S
Mg1047 O1054 2.079 . S
C1048 O1045 1.250 . S
C1048 O1046 1.248 . S
C1049 O1050 1.264 . S
C1049 O1057 1.249 . S
O1050 C1049 1.264 . S
O1051 Mg1044 1.986 . S
O1051 C1055 1.246 . S
O1052 Mg1047 2.032 . S
O1052 C1055 1.259 . S
O1053 Mg1044 2.114 . S
O1053 C1056 1.252 . S
O1054 Mg1044 2.251 . S
O1054 Mg1047 2.079 . S
O1054 C1056 1.273 . S
C1055 O1051 1.246 . S
C1055 O1052 1.259 . S
C1056 O1053 1.252 . S
C1056 O1054 1.273 . S
O1057 Mg1044 2.010 . S
O1057 C1049 1.249 . S
Mg1058 O1059 2.028 1_545 S
Mg1058 O1065 1.986 1_545 S
Mg1058 O1067 2.114 . S
Mg1058 O1068 2.251 . S
Mg1058 O1071 2.010 . S
O1059 Mg1058 2.028 1_565 S
O1059 C1062 1.250 . S
O1060 Mg1061 2.028 . S
O1060 C1062 1.248 . S
Mg1061 O1060 2.028 . S
Mg1061 O1066 2.032 . S
Mg1061 O1068 2.079 1_565 S
C1062 O1059 1.250 . S
C1062 O1060 1.248 . S
C1063 O1064 1.264 . S
C1063 O1071 1.249 . S
O1064 C1063 1.264 . S
O1065 Mg1058 1.986 1_565 S
O1065 C1069 1.246 . S
O1066 Mg1061 2.032 . S
O1066 C1069 1.259 . S
O1067 Mg1058 2.114 . S
O1067 C1070 1.252 . S
O1068 Mg1058 2.251 . S
O1068 Mg1061 2.079 1_545 S
O1068 C1070 1.273 . S
C1069 O1065 1.246 . S
C1069 O1066 1.259 . S
C1070 O1067 1.252 . S
C1070 O1068 1.273 . S
O1071 Mg1058 2.010 . S
O1071 C1063 1.249 . S
Mg1072 O1073 2.028 1_455 S
Mg1072 O1079 1.986 . S
Mg1072 O1081 2.114 . S
Mg1072 O1082 2.251 1_455 S
Mg1072 O1085 2.010 . S
O1073 Mg1072 2.028 1_655 S
O1073 C1076 1.250 . S
O1074 Mg1075 2.028 . S
O1074 C1076 1.248 . S
Mg1075 O1074 2.028 . S
Mg1075 O1080 2.032 . S
Mg1075 O1082 2.079 . S
C1076 O1073 1.250 . S
C1076 O1074 1.248 . S
C1077 O1078 1.264 . S
C1077 O1085 1.249 . S
O1078 C1077 1.264 . S
O1079 Mg1072 1.986 . S
O1079 C1083 1.246 1_455 S
O1080 Mg1075 2.032 . S
O1080 C1083 1.259 . S
O1081 Mg1072 2.114 . S
O1081 C1084 1.252 . S
O1082 Mg1072 2.251 1_655 S
O1082 Mg1075 2.079 . S
O1082 C1084 1.273 1_655 S
C1083 O1079 1.246 1_655 S
C1083 O1080 1.259 . S
C1084 O1081 1.252 . S
C1084 O1082 1.273 1_455 S
O1085 Mg1072 2.010 . S
O1085 C1077 1.249 . S
Mg1086 O1087 2.028 . S
Mg1086 O1093 1.986 . S
Mg1086 O1095 2.114 . S
Mg1086 O1096 2.251 . S
Mg1086 O1099 2.010 . S
O1087 Mg1086 2.028 . S
O1087 C1090 1.250 . S
O1088 Mg1089 2.028 . S
O1088 C1090 1.248 . S
Mg1089 O1088 2.028 . S
Mg1089 O1094 2.032 . S
Mg1089 O1096 2.079 . S
C1090 O1087 1.250 . S
C1090 O1088 1.248 . S
C1091 O1092 1.264 . S
C1091 O1099 1.249 . S
O1092 C1091 1.264 . S
O1093 Mg1086 1.986 . S
O1093 C1097 1.246 . S
O1094 Mg1089 2.032 . S
O1094 C1097 1.259 . S
O1095 Mg1086 2.114 . S
O1095 C1098 1.252 . S
O1096 Mg1086 2.251 . S
O1096 Mg1089 2.079 . S
O1096 C1098 1.273 . S
C1097 O1093 1.246 . S
C1097 O1094 1.259 . S
C1098 O1095 1.252 . S
C1098 O1096 1.273 . S
O1099 Mg1086 2.010 . S
O1099 C1091 1.249 . S
Mg1100 O1101 2.028 1_655 S
Mg1100 O1107 1.992 . S
Mg1100 O1109 2.114 . S
Mg1100 O1110 2.251 1_655 S
Mg1100 O1113 2.010 . S
O1101 Mg1100 2.028 1_455 S
O1101 C1104 1.250 . S
O1102 Mg1103 2.028 . S
O1102 C1104 1.248 . S
Mg1103 O1102 2.028 . S
Mg1103 O1108 2.032 . S
Mg1103 O1110 2.079 . S
C1104 O1101 1.250 . S
C1104 O1102 1.248 . S
C1105 O1106 1.264 . S
C1105 O1113 1.249 . S
O1106 C1105 1.264 . S
O1107 Mg1100 1.992 . S
O1107 C1111 1.228 1_655 S
O1108 Mg1103 2.032 . S
O1108 C1111 1.259 . S
O1109 Mg1100 2.114 . S
O1109 C1112 1.252 . S
O1110 Mg1100 2.251 1_455 S
O1110 Mg1103 2.079 . S
O1110 C1112 1.273 1_455 S
C1111 O1107 1.228 1_455 S
C1111 O1108 1.259 . S
C1112 O1109 1.252 . S
C1112 O1110 1.273 1_655 S
O1113 Mg1100 2.010 . S
O1113 C1105 1.249 . S
Mg1114 O1115 2.028 . S
Mg1114 O1121 1.986 . S
Mg1114 O1123 2.114 . S
Mg1114 O1124 2.251 . S
Mg1114 O1127 2.010 . S
O1115 Mg1114 2.028 . S
O1115 C1118 1.250 . S
O1116 Mg1117 2.028 . S
O1116 C1118 1.248 . S
Mg1117 O1116 2.028 . S
Mg1117 O1122 2.032 . S
Mg1117 O1124 2.079 . S
C1118 O1115 1.250 . S
C1118 O1116 1.248 . S
C1119 O1120 1.264 . S
C1119 O1127 1.249 . S
O1120 C1119 1.264 . S
O1121 Mg1114 1.986 . S
O1121 C1125 1.246 . S
O1122 Mg1117 2.032 . S
O1122 C1125 1.259 . S
O1123 Mg1114 2.114 . S
O1123 C1126 1.252 . S
O1124 Mg1114 2.251 . S
O1124 Mg1117 2.079 . S
O1124 C1126 1.273 . S
C1125 O1121 1.246 . S
C1125 O1122 1.259 . S
C1126 O1123 1.252 . S
C1126 O1124 1.273 . S
O1127 Mg1114 2.010 . S
O1127 C1119 1.249 . S
C971 C331 1.407 . S
C979 C380 1.108 . S
C421 C999 1.389 . S
C1013 C260 1.480 1_565 S
C1028 C620 1.517 . S
C1042 C740 1.618 . S
C680 C1056 1.567 . S
C1062 C571 1.354 . S
C691 C1076 1.449 . S
C1097 C541 1.549 . S
C601 C1077 1.299 . S
C1098 C721 1.619 . S
C451 C1105 1.145 . S
C241 C1111 1.469 . S
C320 C1104 1.416 . S
C391 C1112 1.526 . S
C211 C1006 1.435 . S
C841 C1007 1.271 . S
C964 C901 1.486 . S
C985 C500 1.445 . S
C271 C1020 1.493 . S
C1070 C661 1.515 . S
C1021 C560 1.019 . S
C1049 C751 1.300 . S
C1055 C871 1.407 . S
C920 C1063 1.108 . S
C481 C1027 1.389 . S
C1041 C800 1.480 . S
C200 C1000 1.517 . S
C1014 C20 1.618 . S
C972 C80 1.567 . S
C978 C151 1.354 . S
C91 C1090 1.449 . S
C121 C1083 1.549 . S
C181 C1091 1.299 . S
C1 C1084 1.619 . S
C1119 C511 1.145 . S
C1125 C781 1.469 . S
C1118 C860 1.416 . S
C931 C1126 1.526 . S
C631 C1034 1.435 . S
C1035 C301 1.271 . S
C1048 C361 1.486 . S
C1069 C440 1.445 . S
C811 C992 1.494 . S
C986 C61 1.515 . S
C140 C993 1.018 . S
C965 C31 1.302 . S
