# Generated by pormake.
# Topology nom, (4,4)-cn, num edge types: 1
# Building blocks:
#     Node 0, Type 0, BuildingBlock: KUFVIS_clean_linker_0, # of connection points: 4
#     Node 1, Type 0, BuildingBlock: KUFVIS_clean_linker_0, # of connection points: 4
#     Node 2, Type 0, BuildingBlock: KUFVIS_clean_linker_0, # of connection points: 4
#     Node 3, Type 0, BuildingBlock: KUFVIS_clean_linker_0, # of connection points: 4
#     Node 4, Type 0, BuildingBlock: KUFVIS_clean_linker_0, # of connection points: 4
#     Node 5, Type 0, BuildingBlock: KUFVIS_clean_linker_0, # of connection points: 4
#     Node 6, Type 1, BuildingBlock: KUFVIS_clean_sbu_0, # of connection points: 4
#     Node 7, Type 1, BuildingBlock: KUFVIS_clean_sbu_0, # of connection points: 4
#     Node 8, Type 1, BuildingBlock: KUFVIS_clean_sbu_0, # of connection points: 4
#     Node 9, Type 1, BuildingBlock: KUFVIS_clean_sbu_0, # of connection points: 4
#     Node 10, Type 1, BuildingBlock: KUFVIS_clean_sbu_0, # of connection points: 4
#     Node 11, Type 1, BuildingBlock: KUFVIS_clean_sbu_0, # of connection points: 4
#     Edge 12, Type (0, 1), BuildingBlock: UVAHIK_clean_linker_0, # of connection points: 2
#     Edge 13, Type (0, 1), BuildingBlock: UVAHIK_clean_linker_0, # of connection points: 2
#     Edge 14, Type (0, 1), BuildingBlock: UVAHIK_clean_linker_0, # of connection points: 2
#     Edge 15, Type (0, 1), BuildingBlock: UVAHIK_clean_linker_0, # of connection points: 2
#     Edge 16, Type (0, 1), BuildingBlock: UVAHIK_clean_linker_0, # of connection points: 2
#     Edge 17, Type (0, 1), BuildingBlock: UVAHIK_clean_linker_0, # of connection points: 2
#     Edge 18, Type (0, 1), BuildingBlock: UVAHIK_clean_linker_0, # of connection points: 2
#     Edge 19, Type (0, 1), BuildingBlock: UVAHIK_clean_linker_0, # of connection points: 2
#     Edge 20, Type (0, 1), BuildingBlock: UVAHIK_clean_linker_0, # of connection points: 2
#     Edge 21, Type (0, 1), BuildingBlock: UVAHIK_clean_linker_0, # of connection points: 2
#     Edge 22, Type (0, 1), BuildingBlock: UVAHIK_clean_linker_0, # of connection points: 2
#     Edge 23, Type (0, 1), BuildingBlock: UVAHIK_clean_linker_0, # of connection points: 2
#     Edge 24, Type (0, 1), BuildingBlock: UVAHIK_clean_linker_0, # of connection points: 2
#     Edge 25, Type (0, 1), BuildingBlock: UVAHIK_clean_linker_0, # of connection points: 2
#     Edge 26, Type (0, 1), BuildingBlock: UVAHIK_clean_linker_0, # of connection points: 2
#     Edge 27, Type (0, 1), BuildingBlock: UVAHIK_clean_linker_0, # of connection points: 2
#     Edge 28, Type (0, 1), BuildingBlock: UVAHIK_clean_linker_0, # of connection points: 2
#     Edge 29, Type (0, 1), BuildingBlock: UVAHIK_clean_linker_0, # of connection points: 2
#     Edge 30, Type (0, 1), BuildingBlock: UVAHIK_clean_linker_0, # of connection points: 2
#     Edge 31, Type (0, 1), BuildingBlock: UVAHIK_clean_linker_0, # of connection points: 2
#     Edge 32, Type (0, 1), BuildingBlock: UVAHIK_clean_linker_0, # of connection points: 2
#     Edge 33, Type (0, 1), BuildingBlock: UVAHIK_clean_linker_0, # of connection points: 2
#     Edge 34, Type (0, 1), BuildingBlock: UVAHIK_clean_linker_0, # of connection points: 2
#     Edge 35, Type (0, 1), BuildingBlock: UVAHIK_clean_linker_0, # of connection points: 2
# Relax obj value: 0.004
# Max RMSD: 0.051
# Mean RMSD: 0.040
data_MOF--net-nom--node1-KUFVIS_clean_sbu_0--node2-KUFVIS_clean_linker_0--edge1-UVAHIK_clean_linker_0
_symmetry_space_group_name_H-M    P1
_symmetry_Int_Tables_number       1
_symmetry_cell_setting            triclinic
loop_
_symmetry_equiv_pos_as_xyz
'x, y, z'
_cell_length_a     58.074335
_cell_length_b     58.559933
_cell_length_c     59.797069
_cell_angle_alpha  90.465301
_cell_angle_beta   90.533905
_cell_angle_gamma 120.06379
loop_
_atom_site_label
_atom_site_type_symbol
_atom_site_fract_x
_atom_site_fract_y
_atom_site_fract_z
_atom_type_partial_charge
H0 H 0.11932 0.59833 0.32869 0.0
H1 H 0.05617 0.57317 0.28043 0.0
H2 H 0.03961 0.5438 0.3482 0.0
H3 H 1.00015 0.54058 0.341 0.0
H4 H 0.93951 0.49369 0.2927 0.0
H5 H 0.02084 0.53396 0.27265 0.0
C6 C 0.09826 0.58664 0.32456 0.0
C7 C 0.08029 0.57136 0.34099 0.0
C8 C 0.08964 0.58692 0.30278 0.0
C9 C 0.06244 0.57213 0.2973 0.0
C10 C 0.04367 0.55643 0.3136 0.0
C11 C 0.05309 0.55629 0.3355 0.0
C12 C 1.01463 0.5395 0.3077 0.0
C13 C 0.99483 0.53267 0.32413 0.0
C14 C 0.96786 0.51536 0.31888 0.0
C15 C 0.96047 0.50594 0.29696 0.0
C16 C 0.97939 0.51306 0.28021 0.0
C17 C 1.00642 0.52952 0.28565 0.0
H18 H 0.54105 0.11138 0.50816 0.0
H19 H 0.52594 0.05681 0.45417 0.0
H20 H 0.49019 0.02884 0.51893 0.0
H21 H 0.49323 0.99316 0.50822 0.0
H22 H 0.45453 0.93856 0.45376 0.0
H23 H 0.48718 0.02107 0.44263 0.0
C24 C 0.53146 0.09125 0.50173 0.0
C25 C 0.51554 0.07058 0.51588 0.0
C26 C 0.53523 0.08646 0.47951 0.0
C27 C 0.5225 0.06032 0.47129 0.0
C28 C 0.50614 0.03893 0.48535 0.0
C29 C 0.50293 0.04451 0.50779 0.0
C30 C 0.49216 1.011 0.47663 0.0
C31 C 0.48664 0.98963 0.4909 0.0
C32 C 0.4732 0.96348 0.48266 0.0
C33 C 0.4651 0.95869 0.46021 0.0
C34 C 0.47036 0.97935 0.44584 0.0
C35 C 0.48385 1.00541 0.45395 0.0
H36 H 0.54602 0.4536 0.63434 0.0
H37 H 0.51561 0.4847 0.68328 0.0
H38 H 0.52693 0.51251 0.61496 0.0
H39 H 0.49363 0.52026 0.62348 0.0
H40 H 0.48656 0.56932 0.67313 0.0
H41 H 0.52393 0.52488 0.69092 0.0
C42 C 0.53841 0.46662 0.6386 0.0
C43 C 0.53674 0.48257 0.62216 0.0
C44 C 0.53126 0.46774 0.66059 0.0
C45 C 0.52161 0.48468 0.66622 0.0
C46 C 0.51956 0.50107 0.64991 0.0
C47 C 0.52724 0.49969 0.62775 0.0
C48 C 0.51042 0.52014 0.6562 0.0
C49 C 0.49778 0.52829 0.64035 0.0
C50 C 0.49014 0.54681 0.64629 0.0
C51 C 0.49397 0.5563 0.66832 0.0
C52 C 0.50531 0.54775 0.68454 0.0
C53 C 0.51413 0.5303 0.67832 0.0
H54 H 0.11134 0.57094 0.78766 0.0
H55 H 0.05501 0.52547 0.83766 0.0
H56 H 0.02826 0.53202 0.77125 0.0
H57 H 0.9924 0.49373 0.78032 0.0
H58 H 0.9351 0.47568 0.83168 0.0
H59 H 1.01772 0.5248 0.8478 0.0
C60 C 0.09081 0.55905 0.79278 0.0
C61 C 0.07037 0.55212 0.77706 0.0
C62 C 0.08538 0.54972 0.81461 0.0
C63 C 0.05884 0.53319 0.82088 0.0
C64 C 0.03756 0.5269 0.80563 0.0
C65 C 0.0438 0.53631 0.78348 0.0
C66 C 1.00911 0.51153 0.81296 0.0
C67 C 0.98818 0.49609 0.7975 0.0
C68 C 0.96146 0.48379 0.8041 0.0
C69 C 0.95566 0.48588 0.82638 0.0
C70 C 0.97587 0.50005 0.84215 0.0
C71 C 1.00248 0.51302 0.83547 0.0
H72 H 0.48757 0.93549 0.00493 0.0
H73 H 0.52501 0.98918 0.9515 0.0
H74 H 0.52609 0.01818 0.01891 0.0
H75 H 0.56014 0.05462 0.00795 0.0
H76 H 0.57341 0.10875 0.95553 0.0
H77 H 0.52813 0.02606 0.94103 0.0
C78 C 0.49845 0.95562 -0.00097 0.0
C79 C 0.5068 0.97647 0.01434 0.0
C80 C 0.50441 0.96013 0.97637 0.0
C81 C 0.5198 0.98621 0.96896 0.0
C82 C 0.52778 1.00796 0.98396 0.0
C83 C 0.52109 1.00251 0.00682 0.0
C84 C 0.54179 0.03604 0.97579 0.0
C85 C 0.55674 0.05768 0.99071 0.0
C86 C 0.56722 0.08379 0.98356 0.0
C87 C 0.56437 0.08854 0.96118 0.0
C88 C 0.55104 0.06779 0.94579 0.0
C89 C 0.53946 0.04166 0.95311 0.0
H90 H 0.50135 0.58689 0.13284 0.0
H91 H 0.54274 0.56843 0.18244 0.0
H92 H 0.53094 0.53554 0.11514 0.0
H93 H 0.56594 0.53173 0.12344 0.0
H94 H 0.57996 0.48859 0.17405 0.0
H95 H 0.54045 0.53093 0.19161 0.0
C96 C 0.5117 0.57648 0.13753 0.0
C97 C 0.51582 0.56151 0.12147 0.0
C98 C 0.52082 0.57851 0.15951 0.0
C99 C 0.53516 0.56595 0.16547 0.0
C100 C 0.539 0.5499 0.14972 0.0
C101 C 0.52922 0.54809 0.12757 0.0
C102 C 0.5516 0.53387 0.15656 0.0
C103 C 0.56391 0.52545 0.14063 0.0
C104 C 0.57327 0.50832 0.14668 0.0
C105 C 0.57176 0.50087 0.16902 0.0
C106 C 0.56042 0.50936 0.18516 0.0
C107 C 0.55019 0.52562 0.17896 0.0
Mn108 Mn 0.65116 0.3932 0.4075 0.0
Mn109 Mn 0.67756 0.45667 0.42517 0.0
C110 C 0.62878 0.4045 0.43317 0.0
C111 C 0.64641 0.35123 0.41045 0.0
C112 C 0.64917 0.43647 0.38043 0.0
O113 O 0.69001 0.40991 0.39799 0.0
O114 O 0.70553 0.45085 0.41219 0.0
C115 C 0.71137 0.45564 0.46207 0.0
N116 N 0.69195 0.46045 0.45472 0.0
C117 C 0.68773 0.47509 0.49137 0.0
C118 C 0.70779 0.47044 0.49932 0.0
C119 C 0.71959 0.46059 0.48461 0.0
C120 C 0.6803 0.4697 0.46876 0.0
H121 H 0.72049 0.44809 0.45081 0.0
C122 C 0.70893 0.43339 0.40213 0.0
O123 O 0.64136 0.35922 0.39183 0.0
O124 O 0.65511 0.36794 0.42711 0.0
N125 N 0.65316 0.46565 0.43834 0.0
C126 C 0.63361 0.46841 0.42816 0.0
C127 C 0.61978 0.47804 0.44057 0.0
C128 C 0.62641 0.48505 0.46321 0.0
C129 C 0.64679 0.48232 0.47326 0.0
C130 C 0.66003 0.47283 0.46 0.0
H131 H 0.62859 0.46332 0.41071 0.0
O132 O 0.61614 0.38287 0.42142 0.0
O133 O 0.65425 0.41867 0.42997 0.0
O134 O 0.64337 0.41252 0.38274 0.0
O135 O 0.66255 0.45458 0.39497 0.0
C136 C 0.65424 0.48831 0.49598 0.0
C137 C 0.6746 0.48457 0.50506 0.0
H138 H 0.71419 0.47423 0.5167 0.0
H139 H 0.73501 0.45685 0.49064 0.0
H140 H 0.60409 0.48011 0.43269 0.0
H141 H 0.61567 0.49244 0.47273 0.0
H142 H 0.64419 0.49547 0.50668 0.0
H143 H 0.67992 0.48892 0.52261 0.0
Mn144 Mn 0.28236 0.65662 0.56048 0.0
Mn145 Mn 0.24779 0.59121 0.54793 0.0
C146 C 0.24791 0.64039 0.53428 0.0
C147 C 0.31816 0.69934 0.55558 0.0
C148 C 0.23748 0.61493 0.58911 0.0
O149 O 0.30666 0.6437 0.57296 0.0
O150 O 0.28188 0.60082 0.56332 0.0
C151 C 0.28522 0.59075 0.51486 0.0
N152 N 0.26017 0.58498 0.52033 0.0
C153 C 0.2426 0.56326 0.48482 0.0
C154 C 0.26817 0.56884 0.47884 0.0
C155 C 0.2896 0.58279 0.49388 0.0
C156 C 0.23951 0.572 0.50584 0.0
H157 H 0.30171 0.60126 0.52645 0.0
C158 C 0.30281 0.62025 0.57202 0.0
O159 O 0.30508 0.69239 0.5741 0.0
O160 O 0.31093 0.68127 0.54008 0.0
N161 N 0.21433 0.57823 0.53269 0.0
C162 C 0.19105 0.57509 0.54076 0.0
C163 C 0.16776 0.56196 0.52756 0.0
C164 C 0.16847 0.55159 0.50647 0.0
C165 C 0.19252 0.55456 0.49873 0.0
C166 C 0.21515 0.56808 0.51252 0.0
H167 H 0.19028 0.58261 0.55711 0.0
O168 O 0.25597 0.66297 0.5442 0.0
O169 O 0.26065 0.62807 0.53942 0.0
O170 O 0.25565 0.63869 0.58568 0.0
O171 O 0.23314 0.59566 0.5762 0.0
C172 C 0.19498 0.54473 0.47784 0.0
C173 C 0.22004 0.54935 0.47077 0.0
H174 H 0.2716 0.56257 0.46273 0.0
H175 H 0.30942 0.58724 0.48937 0.0
H176 H 0.14925 0.55967 0.53369 0.0
H177 H 0.15045 0.54145 0.49636 0.0
H178 H 0.17775 0.53381 0.46696 0.0
H179 H 0.22174 0.54208 0.45451 0.0
Mn180 Mn 0.64128 0.27204 0.72892 0.0
Mn181 Mn 0.66742 0.23638 0.70757 0.0
C182 C 0.61666 0.23789 0.70386 0.0
C183 C 0.63448 0.3081 0.72832 0.0
C184 C 0.64356 0.22747 0.7537 0.0
O185 O 0.68087 0.29518 0.73623 0.0
O186 O 0.69608 0.27034 0.72052 0.0
C187 C 0.69695 0.27208 0.67053 0.0
N188 N 0.6787 0.24765 0.67774 0.0
C189 C 0.67077 0.22976 0.64027 0.0
C190 C 0.68961 0.25469 0.63246 0.0
C191 C 0.70269 0.27595 0.64765 0.0
C192 C 0.66584 0.22711 0.66324 0.0
H193 H 0.70703 0.28849 0.68214 0.0
C194 C 0.69981 0.29115 0.73095 0.0
O195 O 0.63237 0.29547 0.74661 0.0
O196 O 0.64157 0.30043 0.71055 0.0
N197 N 0.64253 0.20306 0.69418 0.0
C198 C 0.62466 0.18035 0.70436 0.0
C199 C 0.60987 0.1572 0.69148 0.0
C200 C 0.61386 0.15753 0.66833 0.0
C201 C 0.63268 0.181 0.65828 0.0
C202 C 0.64698 0.2034 0.672 0.0
H203 H 0.62161 0.17989 0.72217 0.0
O204 O 0.60503 0.24656 0.71704 0.0
O205 O 0.64253 0.24989 0.70522 0.0
O206 O 0.63745 0.24557 0.75284 0.0
O207 O 0.65545 0.22283 0.73796 0.0
C208 C 0.63757 0.18311 0.63514 0.0
C209 C 0.65652 0.20751 0.62613 0.0
H210 H 0.69409 0.25776 0.61482 0.0
H211 H 0.71718 0.29527 0.64174 0.0
H212 H 0.59543 0.13915 0.69937 0.0
H213 H 0.60232 0.13968 0.65843 0.0
H214 H 0.62666 0.16617 0.6241 0.0
H215 H 0.65991 0.20896 0.60828 0.0
Mn216 Mn 0.40211 0.6502 0.90555 0.0
Mn217 Mn 0.36928 0.58532 0.91851 0.0
C218 C 0.41989 0.63434 0.93197 0.0
C219 C 0.41095 0.69358 0.90974 0.0
C220 C 0.40313 0.60655 0.87744 0.0
O221 O 0.36477 0.63773 0.89285 0.0
O222 O 0.34557 0.5952 0.90263 0.0
C223 C 0.33243 0.58775 0.95107 0.0
N224 N 0.35091 0.5808 0.94589 0.0
C225 C 0.3457 0.55991 0.98141 0.0
C226 C 0.32651 0.56671 0.9871 0.0
C227 C 0.31998 0.58085 0.97192 0.0
C228 C 0.35772 0.56768 0.96054 0.0
H229 H 0.32716 0.59838 0.93936 0.0
C230 C 0.34465 0.61448 0.89369 0.0
O231 O 0.41628 0.68528 0.89142 0.0
O232 O 0.39975 0.67647 0.9255 0.0
N233 N 0.38878 0.5719 0.93413 0.0
C234 C 0.40815 0.56742 0.92629 0.0
C235 C 0.41714 0.55368 0.93954 0.0
C236 C 0.40566 0.54408 0.96043 0.0
C237 C 0.38543 0.54853 0.96799 0.0
C238 C 0.37744 0.56254 0.95414 0.0
H239 H 0.41667 0.57428 0.91005 0.0
O240 O 0.43487 0.65637 0.92191 0.0
O241 O 0.39459 0.62236 0.92691 0.0
O242 O 0.40949 0.63058 0.88064 0.0
O243 O 0.38803 0.58799 0.89048 0.0
C244 C 0.37293 0.5397 0.98876 0.0
C245 C 0.35332 0.54567 0.99558 0.0
H246 H 0.31671 0.56123 0.00309 0.0
H247 H 0.30524 0.58624 0.97621 0.0
H248 H 0.43272 0.55028 0.93357 0.0
H249 H 0.41257 0.53337 0.97054 0.0
H250 H 0.37842 0.52852 -0.00027 0.0
H251 H 0.34418 0.53914 0.01173 0.0
Mn252 Mn 0.77287 0.40391 0.06429 0.0
Mn253 Mn 0.80884 0.37565 0.08045 0.0
C254 C 0.80724 0.42506 0.09018 0.0
C255 C 0.73683 0.41097 0.06735 0.0
C256 C 0.81729 0.40419 0.03666 0.0
O257 O 0.74927 0.36548 0.05412 0.0
O258 O 0.77436 0.34881 0.06681 0.0
C259 C 0.77356 0.34239 0.11644 0.0
N260 N 0.79808 0.36116 0.10956 0.0
C261 C 0.81714 0.36421 0.14614 0.0
C262 C 0.79212 0.34481 0.15359 0.0
C263 C 0.77022 0.33393 0.13868 0.0
C264 C 0.81923 0.37191 0.1238 0.0
H265 H 0.75669 0.33397 0.10504 0.0
C266 C 0.7533 0.34619 0.0573 0.0
O267 O 0.74969 0.41503 0.04883 0.0
O268 O 0.74419 0.40175 0.08392 0.0
N269 N 0.84271 0.39886 0.09421 0.0
C270 C 0.8653 0.41798 0.08459 0.0
C271 C 0.889 0.43096 0.09729 0.0
C272 C 0.88934 0.42393 0.11964 0.0
C273 C 0.86594 0.404 0.1291 0.0
C274 C 0.84296 0.39161 0.11557 0.0
H275 H 0.86525 0.42334 0.06737 0.0
O276 O 0.79885 0.4383 0.07882 0.0
O277 O 0.79506 0.39972 0.08642 0.0
O278 O 0.79932 0.41034 0.03945 0.0
O279 O 0.82204 0.39067 0.05067 0.0
C280 C 0.86441 0.39623 0.15153 0.0
C281 C 0.84 0.37644 0.16007 0.0
H282 H 0.78945 0.33823 0.17073 0.0
H283 H 0.75083 0.31902 0.14433 0.0
H284 H 0.90698 0.44633 0.08987 0.0
H285 H 0.90763 0.43404 0.1294 0.0
H286 H 0.88181 0.40561 0.16244 0.0
H287 H 0.83899 0.37088 0.17743 0.0
Mn288 Mn 0.39994 0.77683 0.23537 0.0
Mn289 Mn 0.4625 0.81501 0.256 0.0
C290 C 0.40954 0.81175 0.25933 0.0
C291 C 0.35707 0.74027 0.23741 0.0
C292 C 0.44559 0.82144 0.20953 0.0
O293 O 0.41702 0.75433 0.22897 0.0
O294 O 0.45778 0.78126 0.24368 0.0
C295 C 0.45838 0.78078 0.29373 0.0
N296 N 0.46369 0.80474 0.28606 0.0
C297 C 0.47402 0.82352 0.32326 0.0
C298 C 0.46884 0.79908 0.33154 0.0
C299 C 0.46091 0.7776 0.31671 0.0
C300 C 0.47113 0.82548 0.3002 0.0
H301 H 0.45224 0.7642 0.28241 0.0
C302 C 0.44069 0.75972 0.23391 0.0
O303 O 0.3667 0.7518 0.21855 0.0
O304 O 0.37284 0.74913 0.25477 0.0
N305 N 0.47045 0.84832 0.26876 0.0
C306 C 0.47446 0.87049 0.25812 0.0
C307 C 0.48246 0.89377 0.2706 0.0
C308 C 0.48661 0.89412 0.2938 0.0
C309 C 0.48287 0.87122 0.30431 0.0
C310 C 0.4751 0.84866 0.29099 0.0
H311 H 0.47145 0.87041 0.24027 0.0
O312 O 0.38876 0.80204 0.24623 0.0
O313 O 0.4239 0.80041 0.25848 0.0
O314 O 0.42155 0.80255 0.21062 0.0
O315 O 0.46268 0.82744 0.22537 0.0
C316 C 0.48623 0.8698 0.32753 0.0
C317 C 0.4817 0.84593 0.337 0.0
H318 H 0.47074 0.79654 0.34926 0.0
H319 H 0.45677 0.75865 0.32299 0.0
H320 H 0.48538 0.91139 0.26235 0.0
H321 H 0.49264 0.91206 0.30339 0.0
H322 H 0.49202 0.88686 0.33827 0.0
H323 H 0.48409 0.845 0.3549 0.0
C324 C 0.12101 0.58958 0.27354 0.0
C325 C 0.11016 0.60214 0.28612 0.0
C326 C 0.14583 0.60441 0.2635 0.0
C327 C 0.19825 0.64164 0.24018 0.0
H328 H 0.24806 0.69523 0.28175 0.0
C329 C 0.31049 0.71397 0.22172 0.0
C330 C 0.32855 0.72021 0.23971 0.0
C331 C 0.28303 0.69817 0.22495 0.0
C332 C 0.23448 0.68023 0.26999 0.0
H333 H 0.11558 0.63982 0.29701 0.0
H334 H 0.15843 0.6659 0.27884 0.0
H335 H 0.20097 0.67167 0.29004 0.0
H336 H 0.33202 0.71339 0.27486 0.0
H337 H 0.28438 0.68569 0.2804 0.0
H338 H 0.23224 0.64998 0.22043 0.0
C339 C 0.14813 0.64462 0.27697 0.0
C340 C 0.20735 0.66699 0.27456 0.0
C341 C 0.12343 0.62978 0.28709 0.0
C342 C 0.31867 0.70916 0.26067 0.0
C343 C 0.29132 0.69342 0.2639 0.0
C344 C 0.22554 0.65505 0.23553 0.0
C345 C 0.16024 0.63208 0.266 0.0
C346 C 0.18884 0.6474 0.25982 0.0
C347 C 0.27311 0.68835 0.24625 0.0
C348 C 0.244 0.67428 0.25056 0.0
H349 H 0.11134 0.56823 0.27302 0.0
H350 H 0.15459 0.59408 0.25532 0.0
H351 H 0.18454 0.62671 0.22845 0.0
H352 H 0.31745 0.7222 0.20536 0.0
H353 H 0.26955 0.69467 0.21102 0.0
C354 C 0.54181 0.11521 0.44642 0.0
C355 C 0.55229 0.10953 0.46547 0.0
C356 C 0.5555 0.14033 0.43684 0.0
C357 C 0.59957 0.20792 0.45595 0.0
H358 H 0.60811 0.2268 0.3934 0.0
C359 C 0.65088 0.31688 0.43159 0.0
C360 C 0.64041 0.32366 0.41322 0.0
C361 C 0.64304 0.29049 0.43561 0.0
C362 C 0.60565 0.22188 0.41095 0.0
H363 H 0.5862 0.12457 0.48815 0.0
H364 H 0.6101 0.1681 0.47141 0.0
H365 H 0.58894 0.18045 0.40376 0.0
H366 H 0.61408 0.30814 0.38427 0.0
H367 H 0.59959 0.26204 0.39169 0.0
H368 H 0.61494 0.2487 0.46342 0.0
C369 C 0.5912 0.15348 0.46408 0.0
C370 C 0.59476 0.19531 0.41685 0.0
C371 C 0.57762 0.12852 0.47356 0.0
C372 C 0.6226 0.30355 0.39852 0.0
C373 C 0.61438 0.27706 0.40275 0.0
C374 C 0.61006 0.23428 0.45012 0.0
C375 C 0.57978 0.16006 0.44625 0.0
C376 C 0.59176 0.18809 0.43944 0.0
C377 C 0.62407 0.27009 0.42163 0.0
C378 C 0.6134 0.24177 0.42754 0.0
H379 H 0.52222 0.10098 0.44 0.0
H380 H 0.54621 0.14484 0.42311 0.0
H381 H 0.59694 0.20296 0.47352 0.0
H382 H 0.66486 0.33196 0.44309 0.0
H383 H 0.65162 0.28612 0.44994 0.0
C384 C 0.45114 0.5371 0.62162 0.0
C385 C 0.47624 0.5554 0.63052 0.0
C386 C 0.43492 0.5458 0.61184 0.0
C387 C 0.42453 0.60289 0.61585 0.0
H388 H 0.37319 0.56671 0.56792 0.0
C389 C 0.35009 0.6354 0.58446 0.0
C390 C 0.32404 0.61487 0.57971 0.0
C391 C 0.37041 0.62976 0.58931 0.0
C392 C 0.38732 0.57694 0.58144 0.0
H393 H 0.50501 0.59695 0.63469 0.0
H394 H 0.47716 0.61219 0.61703 0.0
H395 H 0.40617 0.55383 0.57677 0.0
H396 H 0.29885 0.57223 0.57729 0.0
H397 H 0.3339 0.5626 0.58595 0.0
H398 H 0.4054 0.6257 0.62075 0.0
C399 C 0.4696 0.59116 0.61808 0.0
C400 C 0.40624 0.56956 0.58648 0.0
C401 C 0.48568 0.58247 0.62794 0.0
C402 C 0.31868 0.58864 0.58064 0.0
C403 C 0.33887 0.58305 0.58542 0.0
C404 C 0.40563 0.61029 0.61078 0.0
C405 C 0.44359 0.57296 0.61075 0.0
C406 C 0.42488 0.5822 0.60395 0.0
C407 C 0.36507 0.60349 0.58945 0.0
C408 C 0.38651 0.59711 0.59376 0.0
H409 H 0.4433 0.51613 0.6237 0.0
H410 H 0.41496 0.53121 0.60648 0.0
H411 H 0.43826 0.61279 0.62968 0.0
H412 H 0.35498 0.65582 0.5838 0.0
H413 H 0.39042 0.64598 0.59232 0.0
C414 C 0.91767 0.47326 0.78749 0.0
C415 C 0.93885 0.46815 0.78843 0.0
C416 C 0.89354 0.45535 0.77715 0.0
C417 C 0.85362 0.38427 0.76471 0.0
H418 H 0.80597 0.40401 0.73625 0.0
C419 C 0.74875 0.30689 0.73204 0.0
C420 C 0.72775 0.31171 0.73637 0.0
C421 C 0.77517 0.32629 0.73637 0.0
C422 C 0.81898 0.3982 0.74433 0.0
H423 H 0.95206 0.44117 0.77805 0.0
H424 H 0.90987 0.40984 0.75944 0.0
H425 H 0.85183 0.43782 0.74498 0.0
H426 H 0.71835 0.341 0.7487 0.0
H427 H 0.76456 0.37485 0.75638 0.0
H428 H 0.82071 0.34471 0.76427 0.0
C429 C 0.91181 0.42757 0.76707 0.0
C430 C 0.84531 0.41756 0.74927 0.0
C431 C 0.93608 0.44563 0.77743 0.0
C432 C 0.73395 0.33653 0.7452 0.0
C433 C 0.76046 0.35602 0.74943 0.0
C434 C 0.82735 0.36491 0.75968 0.0
C435 C 0.88995 0.4318 0.76747 0.0
C436 C 0.86289 0.41091 0.75982 0.0
C437 C 0.78139 0.35112 0.74505 0.0
C438 C 0.8096 0.37167 0.74969 0.0
H439 H 0.91932 0.49051 0.79589 0.0
H440 H 0.87721 0.45925 0.778 0.0
H441 H 0.86637 0.37843 0.77322 0.0
H442 H 0.74487 0.2881 0.72517 0.0
H443 H 0.79078 0.32193 0.73257 0.0
C444 C 0.51091 0.93151 0.94837 0.0
C445 C 0.49385 0.93679 0.96113 0.0
C446 C 0.50149 0.90637 0.93868 0.0
C447 C 0.45687 0.83966 0.95297 0.0
H448 H 0.4557 0.81771 0.89148 0.0
C449 C 0.40755 0.72942 0.92994 0.0
C450 C 0.41875 0.72166 0.91291 0.0
C451 C 0.41604 0.75613 0.93365 0.0
C452 C 0.45624 0.82348 0.90881 0.0
H453 H 0.45323 0.92099 0.97201 0.0
H454 H 0.43703 0.87727 0.95543 0.0
H455 H 0.47293 0.86445 0.90051 0.0
H456 H 0.44751 0.73576 0.88628 0.0
H457 H 0.46319 0.78231 0.89332 0.0
H458 H 0.44138 0.79943 0.96175 0.0
C459 C 0.45758 0.89234 0.95301 0.0
C460 C 0.46601 0.85026 0.91388 0.0
C461 C 0.46685 0.91734 0.96243 0.0
C462 C 0.43837 0.74113 0.89946 0.0
C463 C 0.44726 0.76789 0.90344 0.0
C464 C 0.44762 0.8131 0.94802 0.0
C465 C 0.475 0.88632 0.94179 0.0
C466 C 0.46606 0.85845 0.93599 0.0
C467 C 0.43642 0.77585 0.92075 0.0
C468 C 0.4468 0.80447 0.92584 0.0
H469 H 0.53183 0.94611 0.94725 0.0
H470 H 0.51527 0.90209 0.93009 0.0
H471 H 0.45705 0.8456 0.97022 0.0
H472 H 0.39221 0.71484 0.94043 0.0
H473 H 0.40659 0.76125 0.94672 0.0
C474 C 0.57744 0.47081 0.13129 0.0
C475 C 0.58462 0.49753 0.13025 0.0
C476 C 0.59125 0.46113 0.11925 0.0
C477 C 0.65708 0.48482 0.09331 0.0
H478 H 0.6261 0.41031 0.07902 0.0
C479 C 0.71616 0.43775 0.0559 0.0
C480 C 0.7163 0.41867 0.06996 0.0
C481 C 0.69852 0.44707 0.05959 0.0
C482 C 0.63495 0.43117 0.08286 0.0
H483 H 0.61053 0.5346 0.11421 0.0
H484 H 0.63408 0.51745 0.09219 0.0
H485 H 0.59728 0.42764 0.08968 0.0
H486 H 0.69746 0.39371 0.09838 0.0
H487 H 0.66584 0.40932 0.10428 0.0
H488 H 0.69474 0.48815 0.08594 0.0
C489 C 0.61833 0.50413 0.10306 0.0
C490 C 0.61851 0.44116 0.08913 0.0
C491 C 0.6046 0.51393 0.11542 0.0
C492 C 0.69779 0.4084 0.08728 0.0
C493 C 0.67969 0.41726 0.09062 0.0
C494 C 0.67343 0.4749 0.08653 0.0
C495 C 0.61242 0.47777 0.1054 0.0
C496 C 0.62939 0.468 0.09516 0.0
C497 C 0.68022 0.43699 0.07704 0.0
C498 C 0.66257 0.44788 0.08183 0.0
H499 H 0.56181 0.45753 0.14231 0.0
H500 H 0.5861 0.44086 0.12186 0.0
H501 H 0.6664 0.50546 0.09807 0.0
H502 H 0.73031 0.44617 0.0425 0.0
H503 H 0.69926 0.46227 0.0489 0.0
C504 C 0.4504 0.93495 0.51565 0.0
C505 C 0.46668 0.94042 0.49691 0.0
C506 C 0.43861 0.90991 0.52541 0.0
C507 C 0.41441 0.84199 0.50723 0.0
H508 H 0.40395 0.82426 0.57 0.0
C509 C 0.35622 0.73342 0.53351 0.0
C510 C 0.33917 0.72703 0.55177 0.0
C511 C 0.37466 0.75976 0.52892 0.0
C512 C 0.40642 0.82885 0.55238 0.0
H513 H 0.48536 0.92508 0.47498 0.0
H514 H 0.46506 0.88168 0.49201 0.0
H515 H 0.43151 0.87039 0.55916 0.0
H516 H 0.32845 0.74327 0.57986 0.0
H517 H 0.35983 0.78918 0.57144 0.0
H518 H 0.38865 0.80103 0.50017 0.0
C519 C 0.46096 0.8964 0.49896 0.0
C520 C 0.42233 0.8553 0.54622 0.0
C521 C 0.47272 0.92128 0.48931 0.0
C522 C 0.3414 0.74754 0.56569 0.0
C523 C 0.35956 0.77393 0.56091 0.0
C524 C 0.3983 0.81572 0.51334 0.0
C525 C 0.44289 0.89004 0.51648 0.0
C526 C 0.42658 0.86211 0.52355 0.0
C527 C 0.37621 0.78047 0.54224 0.0
C528 C 0.39408 0.80866 0.536 0.0
H529 H 0.44527 0.94929 0.5217 0.0
H530 H 0.42476 0.90557 0.5389 0.0
H531 H 0.41679 0.84663 0.4896 0.0
H532 H 0.35517 0.71805 0.5226 0.0
H533 H 0.38755 0.76384 0.51474 0.0
C534 C 0.52403 0.42493 0.67513 0.0
C535 C 0.53633 0.45246 0.67751 0.0
C536 C 0.53382 0.41095 0.68685 0.0
C537 C 0.59741 0.42094 0.70641 0.0
H538 H 0.55559 0.35069 0.73045 0.0
C539 C 0.63218 0.34426 0.70815 0.0
C540 C 0.62686 0.32872 0.72728 0.0
C541 C 0.62258 0.36182 0.70619 0.0
C542 C 0.56759 0.37043 0.72404 0.0
H543 H 0.56758 0.4869 0.69467 0.0
H544 H 0.58493 0.46245 0.71518 0.0
H545 H 0.53405 0.37629 0.72127 0.0
H546 H 0.60789 0.31991 0.75961 0.0
H547 H 0.5908 0.35035 0.756 0.0
H548 H 0.63072 0.41468 0.70832 0.0
C549 C 0.56762 0.45168 0.70436 0.0
C550 C 0.55523 0.385 0.71869 0.0
C551 C 0.55754 0.46561 0.69286 0.0
C552 C 0.61237 0.33165 0.74468 0.0
C553 C 0.60245 0.34895 0.74258 0.0
C554 C 0.60968 0.40624 0.71148 0.0
C555 C 0.55641 0.42433 0.70087 0.0
C556 C 0.56993 0.41025 0.70948 0.0
C557 C 0.60717 0.36397 0.72319 0.0
C558 C 0.59482 0.38066 0.72 0.0
H559 H 0.50789 0.41448 0.66312 0.0
H560 H 0.5249 0.38995 0.68366 0.0
H561 H 0.60921 0.44021 0.69909 0.0
H562 H 0.64326 0.34245 0.69446 0.0
H563 H 0.62635 0.37298 0.69096 0.0
C564 C 0.12832 0.5833 0.83241 0.0
C565 C 0.10822 0.55675 0.82996 0.0
C566 C 0.15286 0.58995 0.84219 0.0
C567 C 0.19598 0.56151 0.84828 0.0
H568 H 0.24011 0.62374 0.88487 0.0
C569 C 0.29692 0.58287 0.8842 0.0
C570 C 0.31823 0.60906 0.88516 0.0
C571 C 0.2714 0.57722 0.87802 0.0
C572 C 0.22815 0.6065 0.8744 0.0
H573 H 0.0973 0.51644 0.83711 0.0
H574 H 0.14022 0.52801 0.85455 0.0
H575 H 0.1942 0.61178 0.87582 0.0
H576 H 0.32922 0.64987 0.87993 0.0
H577 H 0.28436 0.63986 0.86869 0.0
H578 H 0.22983 0.55636 0.84647 0.0
C579 C 0.13708 0.54368 0.84864 0.0
C580 C 0.2018 0.59954 0.86935 0.0
C581 C 0.11241 0.53705 0.83894 0.0
C582 C 0.31333 0.62948 0.8793 0.0
C583 C 0.28758 0.62376 0.87307 0.0
C584 C 0.22226 0.56849 0.85324 0.0
C585 C 0.15789 0.57014 0.84963 0.0
C586 C 0.18538 0.5769 0.85628 0.0
C587 C 0.26629 0.59752 0.87249 0.0
C588 C 0.23868 0.591 0.86644 0.0
H589 H 0.12553 0.59885 0.82557 0.0
H590 H 0.16842 0.61047 0.84259 0.0
H591 H 0.18415 0.54435 0.83768 0.0
H592 H 0.29977 0.56654 0.8886 0.0
H593 H 0.25549 0.55684 0.87809 0.0
C594 C 0.60617 0.11321 0.00844 0.0
C595 C 0.58152 0.10689 -0.00119 0.0
C596 C 0.62258 0.13826 0.01809 0.0
C597 C 0.63499 0.20609 0.01237 0.0
H598 H 0.68232 0.22148 0.06342 0.0
C599 C 0.70678 0.3132 0.04384 0.0
C600 C 0.73238 0.31896 0.05073 0.0
C601 C 0.68691 0.28711 0.03906 0.0
C602 C 0.66938 0.21752 0.04901 0.0
H603 H 0.55373 0.12074 0.9931 0.0
H604 H 0.58191 0.16407 0.01041 0.0
H605 H 0.64986 0.1757 0.05381 0.0
H606 H 0.75716 0.30161 0.05749 0.0
H607 H 0.72293 0.25665 0.04879 0.0
H608 H 0.65479 0.24776 0.00724 0.0
C609 C 0.58898 0.15011 0.01009 0.0
C610 C 0.65073 0.19126 0.04354 0.0
C611 C 0.57271 0.12522 0.00042 0.0
C612 C 0.73768 0.29804 0.05237 0.0
C613 C 0.71792 0.2721 0.04756 0.0
C614 C 0.65365 0.2323 0.01779 0.0
C615 C 0.61454 0.15733 0.01825 0.0
C616 C 0.63342 0.18521 0.02505 0.0
C617 C 0.69221 0.26621 0.04104 0.0
C618 C 0.67128 0.23837 0.03604 0.0
H619 H 0.61349 0.09949 0.00714 0.0
H620 H 0.64219 0.14319 0.02415 0.0
H621 H 0.62232 0.20216 -0.00224 0.0
H622 H 0.70192 0.32875 0.04253 0.0
H623 H 0.66726 0.28327 0.03422 0.0
C624 C 0.53378 0.61737 0.18516 0.0
C625 C 0.51402 0.59338 0.17576 0.0
C626 C 0.52676 0.63449 0.19567 0.0
C627 C 0.46867 0.63961 0.21639 0.0
H628 H 0.51106 0.7123 0.19796 0.0
C629 C 0.4309 0.7145 0.22091 0.0
C630 C 0.44918 0.74017 0.22861 0.0
C631 C 0.43924 0.69619 0.21659 0.0
C632 C 0.49915 0.69214 0.20348 0.0
H633 H 0.47159 0.56759 0.17114 0.0
H634 H 0.4593 0.59716 0.1893 0.0
H635 H 0.52553 0.68091 0.18885 0.0
H636 H 0.4907 0.76656 0.23772 0.0
H637 H 0.50502 0.73483 0.23014 0.0
H638 H 0.44191 0.65085 0.23047 0.0
C639 C 0.48016 0.60294 0.18888 0.0
C640 C 0.50755 0.67413 0.19838 0.0
C641 C 0.48717 0.58595 0.17842 0.0
C642 C 0.47598 0.74704 0.23176 0.0
C643 C 0.48429 0.72886 0.22732 0.0
C644 C 0.46019 0.65761 0.22138 0.0
C645 C 0.49987 0.62786 0.19695 0.0
C646 C 0.4923 0.64754 0.20456 0.0
C647 C 0.46607 0.70321 0.2197 0.0
C648 C 0.47522 0.68406 0.21482 0.0
H649 H 0.55462 0.62361 0.18312 0.0
H650 H 0.54245 0.65334 0.20204 0.0
H651 H 0.45658 0.61939 0.22169 0.0
H652 H 0.41012 0.70847 0.21834 0.0
H653 H 0.42474 0.67665 0.21052 0.0
C654 C 0.94234 0.52615 0.34655 0.0
C655 C 0.94646 0.50729 0.33552 0.0
C656 C 0.91846 0.51838 0.35773 0.0
C657 C 0.85604 0.45963 0.37758 0.0
H658 H 0.82455 0.50245 0.36272 0.0
C659 C 0.74316 0.42302 0.38676 0.0
C660 C 0.73657 0.44133 0.39556 0.0
C661 C 0.76955 0.43097 0.38126 0.0
C662 C 0.83313 0.4904 0.36726 0.0
H663 H 0.93002 0.4655 0.32899 0.0
H664 H 0.88854 0.45194 0.34829 0.0
H665 H 0.87019 0.51712 0.35229 0.0
H666 H 0.75286 0.48247 0.40546 0.0
H667 H 0.79834 0.49605 0.39598 0.0
H668 H 0.81858 0.43261 0.39213 0.0
C669 C 0.90352 0.47268 0.3485 0.0
C670 C 0.85942 0.49891 0.36139 0.0
C671 C 0.92728 0.48044 0.33736 0.0
C672 C 0.757 0.46773 0.39865 0.0
C673 C 0.78319 0.47563 0.39311 0.0
C674 C 0.82966 0.45106 0.3834 0.0
C675 C 0.89835 0.49161 0.35809 0.0
C676 C 0.8712 0.48358 0.36634 0.0
C677 C 0.78984 0.45742 0.38432 0.0
C678 C 0.81786 0.46631 0.37821 0.0
H679 H 0.95675 0.54698 0.34528 0.0
H680 H 0.91533 0.53344 0.36531 0.0
H681 H 0.86454 0.44743 0.38185 0.0
H682 H 0.728 0.40254 0.38421 0.0
H683 H 0.774 0.41649 0.37434 0.0
C684 C 0.113 0.56805 0.36599 0.0
C685 C 0.0907 0.57122 0.36367 0.0
C686 C 0.12586 0.57212 0.38663 0.0
C687 C 0.13691 0.60869 0.43959 0.0
H688 H 0.1735 0.57096 0.45532 0.0
C689 C 0.2041 0.63202 0.51926 0.0
C690 C 0.22782 0.63161 0.51619 0.0
C691 C 0.18491 0.62343 0.50207 0.0
C692 C 0.1634 0.58165 0.45122 0.0
H693 H 0.06341 0.57972 0.38131 0.0
H694 H 0.08571 0.58643 0.41785 0.0
H695 H 0.14202 0.55521 0.42415 0.0
H696 H 0.25156 0.62476 0.49236 0.0
H697 H 0.2181 0.60961 0.46229 0.0
H698 H 0.15853 0.63513 0.46686 0.0
C699 C 0.09349 0.58122 0.40351 0.0
C700 C 0.14537 0.57268 0.43329 0.0
C701 C 0.08055 0.57709 0.38271 0.0
C702 C 0.23289 0.62417 0.49532 0.0
C703 C 0.21378 0.6156 0.47816 0.0
C704 C 0.15478 0.61746 0.45781 0.0
C705 C 0.11666 0.57933 0.40558 0.0
C706 C 0.13247 0.58651 0.42681 0.0
C707 C 0.18938 0.6147 0.48146 0.0
C708 C 0.16871 0.60438 0.46344 0.0
H709 H 0.12112 0.56335 0.35158 0.0
H710 H 0.14379 0.57079 0.38745 0.0
H711 H 0.12755 0.61999 0.43494 0.0
H712 H 0.20012 0.63828 0.53514 0.0
H713 H 0.16636 0.62303 0.50509 0.0
C714 C 0.50109 0.09227 0.54374 0.0
C715 C 0.51322 0.07723 0.53926 0.0
C716 C 0.50553 0.10553 0.56423 0.0
C717 C 0.53671 0.11549 0.62095 0.0
H718 H 0.55634 0.18837 0.61097 0.0
C719 C 0.57831 0.1945 0.6919 0.0
C720 C 0.60102 0.21831 0.68637 0.0
C721 C 0.56351 0.17582 0.67521 0.0
C722 C 0.55096 0.1681 0.61406 0.0
H723 H 0.53807 0.06277 0.5528 0.0
H724 H 0.54618 0.08613 0.58867 0.0
H725 H 0.53647 0.15624 0.58062 0.0
H726 H 0.62468 0.24274 0.65925 0.0
H727 H 0.59912 0.21013 0.62999 0.0
H728 H 0.55235 0.12781 0.65422 0.0
C729 C 0.53285 0.0874 0.57661 0.0
C730 C 0.53918 0.14954 0.59673 0.0
C731 C 0.52819 0.07395 0.55613 0.0
C732 C 0.60771 0.22406 0.66387 0.0
C733 C 0.59283 0.20554 0.64715 0.0
C734 C 0.54848 0.13411 0.63835 0.0
C735 C 0.52255 0.10431 0.58047 0.0
C736 C 0.53225 0.12307 0.59984 0.0
C737 C 0.57082 0.181 0.65266 0.0
C738 C 0.55618 0.16073 0.63494 0.0
H739 H 0.48963 0.09518 0.53083 0.0
H740 H 0.49683 0.11792 0.56686 0.0
H741 H 0.53148 0.09525 0.62393 0.0
H742 H 0.57245 0.19008 0.70919 0.0
H743 H 0.54639 0.15733 0.67994 0.0
C744 C 0.51154 0.58087 0.71422 0.0
C745 C 0.50486 0.55498 0.7083 0.0
C746 C 0.50489 0.58639 0.73517 0.0
C747 C 0.45332 0.5526 0.77659 0.0
H748 H 0.49251 0.61828 0.81019 0.0
C749 C 0.41113 0.57433 0.85582 0.0
C750 C 0.41523 0.60001 0.85849 0.0
C751 C 0.42394 0.56852 0.83894 0.0
C752 C 0.48125 0.59993 0.80087 0.0
H753 H 0.48802 0.515 0.72027 0.0
H754 H 0.47683 0.52472 0.75707 0.0
H755 H 0.51394 0.60881 0.77938 0.0
H756 H 0.4358 0.63961 0.84512 0.0
H757 H 0.45767 0.62927 0.81541 0.0
H758 H 0.42042 0.54396 0.79759 0.0
C759 C 0.48678 0.54066 0.74536 0.0
C760 C 0.49357 0.59446 0.78331 0.0
C761 C 0.49349 0.53516 0.7244 0.0
C762 C 0.43218 0.61963 0.84362 0.0
C763 C 0.44494 0.61377 0.82669 0.0
C764 C 0.441 0.55808 0.79409 0.0
C765 C 0.49141 0.5661 0.7506 0.0
C766 C 0.47963 0.57085 0.77081 0.0
C767 C 0.4411 0.58818 0.82425 0.0
C768 C 0.45469 0.58194 0.80627 0.0
H769 H 0.52051 0.59656 0.70216 0.0
H770 H 0.5087 0.60617 0.73864 0.0
H771 H 0.44181 0.53448 0.76702 0.0
H772 H 0.39838 0.55873 0.86702 0.0
H773 H 0.42075 0.54867 0.83768 0.0
C774 C 0.97487 0.48698 0.88193 0.0
C775 C 0.96824 0.49995 0.86567 0.0
C776 C 0.96157 0.48018 0.90235 0.0
C777 C 0.89604 0.46402 0.92328 0.0
H778 H 0.92456 0.4608 0.98127 0.0
C779 C 0.83109 0.43095 0.00168 0.0
C780 C 0.83469 0.41479 0.01692 0.0
C781 C 0.84857 0.44253 0.984 0.0
C782 C 0.91628 0.46134 0.96511 0.0
H783 H 0.94446 0.51806 0.85848 0.0
H784 H 0.92185 0.50701 0.89431 0.0
H785 H 0.95475 0.48134 0.95005 0.0
H786 H 0.85954 0.39797 0.02521 0.0
H787 H 0.88972 0.41781 0.99408 0.0
H788 H 0.85764 0.44373 0.93803 0.0
C789 C 0.93672 0.50142 0.8912 0.0
C790 C 0.93359 0.47319 0.94727 0.0
C791 C 0.94985 0.50803 0.87082 0.0
C792 C 0.85607 0.41024 0.01381 0.0
C793 C 0.87357 0.42184 -0.00392 0.0
C794 C 0.87881 0.45218 0.94103 0.0
C795 C 0.94149 0.48632 0.90675 0.0
C796 C 0.92365 0.47475 0.92616 0.0
C797 C 0.8701 0.43822 0.98102 0.0
C798 C 0.88867 0.45071 0.96218 0.0
H799 H 0.98877 0.4803 0.87817 0.0
H800 H 0.96568 0.46851 0.91395 0.0
H801 H 0.8876 0.46422 0.9071 0.0
H802 H 0.815 0.43509 0.00358 0.0
H803 H 0.84548 0.4553 0.97289 0.0
C804 C 0.52159 0.97852 0.05411 0.0
C805 C 0.50085 0.97009 0.03826 0.0
C806 C 0.51669 0.96698 0.07525 0.0
C807 C 0.46268 0.92206 0.1135 0.0
H808 H 0.51227 0.89855 0.12949 0.0
C809 C 0.43458 0.8358 0.17344 0.0
C810 C 0.45354 0.83886 0.18977 0.0
C811 C 0.44142 0.854 0.15622 0.0
C812 C 0.4984 0.90522 0.12544 0.0
H813 H 0.45851 0.94477 0.03249 0.0
H814 H 0.44989 0.92469 0.06917 0.0
H815 H 0.52241 0.92899 0.09869 0.0
H816 H 0.49488 0.86322 0.2003 0.0
H817 H 0.50673 0.89478 0.17022 0.0
H818 H 0.43834 0.89768 0.1399 0.0
C819 C 0.46992 0.94015 0.06554 0.0
C820 C 0.50427 0.92281 0.10786 0.0
C821 C 0.47483 0.95159 0.04447 0.0
C822 C 0.47973 0.86014 0.18802 0.0
C823 C 0.48657 0.87827 0.17074 0.0
C824 C 0.45677 0.90441 0.13103 0.0
C825 C 0.49094 0.94693 0.08087 0.0
C826 C 0.48628 0.93111 0.10142 0.0
C827 C 0.4674 0.87564 0.15484 0.0
C828 C 0.47436 0.89545 0.13696 0.0
H829 H 0.54184 0.99265 0.04964 0.0
H830 H 0.53325 0.97294 0.08683 0.0
H831 H 0.44856 0.92833 0.10919 0.0
H832 H 0.41423 0.81971 0.17421 0.0
H833 H 0.4263 0.85115 0.14398 0.0
C834 C 0.57464 0.51993 0.22529 0.0
C835 C 0.56012 0.50111 0.20851 0.0
C836 C 0.58028 0.51207 0.24571 0.0
C837 C 0.5897 0.4585 0.26647 0.0
H838 H 0.59631 0.49096 0.32469 0.0
C839 C 0.62101 0.4239 0.34534 0.0
C840 C 0.63852 0.44348 0.3606 0.0
C841 C 0.60959 0.43034 0.32756 0.0
C842 C 0.59479 0.48187 0.30849 0.0
H843 H 0.53809 0.45936 0.20039 0.0
H844 H 0.54725 0.44553 0.23617 0.0
H845 H 0.57765 0.50304 0.29317 0.0
H846 H 0.65798 0.48534 0.36879 0.0
H847 H 0.63852 0.49654 0.33758 0.0
H848 H 0.60726 0.43775 0.2815 0.0
C849 C 0.55492 0.46636 0.23347 0.0
C850 C 0.58402 0.48874 0.29047 0.0
C851 C 0.54944 0.47422 0.2131 0.0
C852 C 0.64458 0.4697 0.35742 0.0
C853 C 0.63321 0.47612 0.33962 0.0
C854 C 0.60049 0.45169 0.28442 0.0
C855 C 0.57139 0.48525 0.24961 0.0
C856 C 0.58141 0.47716 0.26924 0.0
C857 C 0.61544 0.45651 0.32455 0.0
C858 C 0.6033 0.46337 0.30563 0.0
H859 H 0.58327 0.54079 0.22201 0.0
H860 H 0.59307 0.52712 0.25778 0.0
H861 H 0.58856 0.44964 0.25023 0.0
H862 H 0.61569 0.40348 0.34732 0.0
H863 H 0.59577 0.41468 0.3164 0.0
C864 C 0.43476 0.9571 0.41695 0.0
C865 C 0.46194 0.97269 0.42223 0.0
C866 C 0.42655 0.9438 0.39639 0.0
C867 C 0.44939 0.93445 0.34076 0.0
H868 H 0.39713 0.861 0.3506 0.0
C869 C 0.41357 0.85469 0.27045 0.0
C870 C 0.4133 0.83146 0.27645 0.0
C871 C 0.41711 0.87341 0.28683 0.0
C872 C 0.41173 0.88143 0.34756 0.0
H873 H 0.50185 0.98815 0.40995 0.0
H874 H 0.48762 0.96472 0.37394 0.0
H875 H 0.40823 0.8932 0.38061 0.0
H876 H 0.41369 0.80804 0.30406 0.0
H877 H 0.42006 0.8407 0.33278 0.0
H878 H 0.45355 0.92224 0.30788 0.0
C879 C 0.47257 0.96304 0.38545 0.0
C880 C 0.41785 0.90001 0.36467 0.0
C881 C 0.48078 0.97652 0.40601 0.0
C882 C 0.41476 0.82629 0.29908 0.0
C883 C 0.41803 0.84483 0.31548 0.0
C884 C 0.44318 0.91581 0.32357 0.0
C885 C 0.4454 0.94555 0.38087 0.0
C886 C 0.43701 0.92669 0.36162 0.0
C887 C 0.41966 0.86879 0.30951 0.0
C888 C 0.42463 0.88901 0.32695 0.0
H889 H 0.41995 0.95377 0.42935 0.0
H890 H 0.40546 0.93094 0.39318 0.0
H891 H 0.46415 0.95485 0.33785 0.0
H892 H 0.41173 0.85864 0.25305 0.0
H893 H 0.41782 0.89146 0.28176 0.0
C894 C 0.5284 0.4724 0.58107 0.0
C895 C 0.54605 0.48129 0.59951 0.0
C896 C 0.53543 0.46472 0.56116 0.0
C897 C 0.5749 0.43538 0.54496 0.0
H898 H 0.56978 0.45425 0.48392 0.0
C899 C 0.62615 0.4138 0.47327 0.0
C900 C 0.61542 0.40969 0.45158 0.0
C901 C 0.61444 0.42003 0.49075 0.0
C902 C 0.57091 0.4484 0.50083 0.0
H903 H 0.5855 0.49143 0.61117 0.0
H904 H 0.59778 0.47822 0.57655 0.0
H905 H 0.55658 0.47289 0.51467 0.0
H906 H 0.58263 0.40588 0.43129 0.0
H907 H 0.56182 0.41673 0.46195 0.0
H908 H 0.58882 0.41071 0.53151 0.0
C909 C 0.57845 0.47674 0.57748 0.0
C910 C 0.56346 0.45921 0.5184 0.0
C911 C 0.57152 0.48446 0.59719 0.0
C912 C 0.59158 0.40976 0.44787 0.0
C913 C 0.57982 0.41609 0.46538 0.0
C914 C 0.58205 0.4244 0.52749 0.0
C915 C 0.5601 0.46577 0.55963 0.0
C916 C 0.56602 0.45325 0.54064 0.0
C917 C 0.59149 0.42193 0.48694 0.0
C918 C 0.58081 0.43125 0.50522 0.0
H919 H 0.50859 0.46963 0.58258 0.0
H920 H 0.52098 0.45638 0.54757 0.0
H921 H 0.57646 0.42997 0.56196 0.0
H922 H 0.64408 0.41294 0.47657 0.0
H923 H 0.6242 0.42456 0.50701 0.0
C924 C 0.073 0.5414 0.73708 0.0
C925 C 0.07789 0.56039 0.75372 0.0
C926 C 0.08701 0.54886 0.71702 0.0
C927 C 0.15213 0.601 0.69802 0.0
H928 H 0.1276 0.56678 0.64 0.0
C929 C 0.22157 0.63015 0.62194 0.0
C930 C 0.21921 0.60951 0.60811 0.0
C931 C 0.2031 0.62521 0.63873 0.0
C932 C 0.13478 0.57638 0.65617 0.0
H933 H 0.09918 0.60213 0.76185 0.0
H934 H 0.12293 0.61535 0.72658 0.0
H935 H 0.0956 0.55681 0.66985 0.0
H936 H 0.19559 0.56732 0.60147 0.0
H937 H 0.16379 0.55875 0.63093 0.0
H938 H 0.19131 0.62016 0.68458 0.0
C939 C 0.10892 0.59464 0.72915 0.0
C940 C 0.11642 0.57072 0.67324 0.0
C941 C 0.09509 0.58715 0.7492 0.0
C942 C 0.19812 0.58376 0.61176 0.0
C943 C 0.17966 0.57884 0.62853 0.0
C944 C 0.17044 0.60664 0.68099 0.0
C945 C 0.10605 0.57547 0.71331 0.0
C946 C 0.12491 0.58284 0.69443 0.0
C947 C 0.1818 0.59953 0.64212 0.0
C948 C 0.16205 0.59424 0.65992 0.0
H949 H 0.0601 0.52061 0.74034 0.0
H950 H 0.08436 0.53357 0.70523 0.0
H951 H 0.15951 0.61026 0.71427 0.0
H952 H 0.23743 0.65026 0.61957 0.0
H953 H 0.20521 0.64164 0.64879 0.0
C954 C 0.56271 0.06612 0.90591 0.0
C955 C 0.55083 0.07437 0.92197 0.0
C956 C 0.56912 0.07799 0.88491 0.0
C957 C 0.56005 0.12361 0.84737 0.0
H958 H 0.6333 0.14771 0.83174 0.0
C959 C 0.61835 0.21168 0.78947 0.0
C960 C 0.63422 0.20935 0.773 0.0
C961 C 0.60702 0.19289 0.80622 0.0
C962 C 0.61271 0.14087 0.83567 0.0
H963 H 0.53429 0.09968 0.92822 0.0
H964 H 0.54529 0.1203 0.89174 0.0
H965 H 0.613 0.11651 0.862 0.0
H966 H 0.65121 0.18564 0.76177 0.0
H967 H 0.63151 0.15298 0.79109 0.0
H968 H 0.56004 0.14858 0.82142 0.0
C969 C 0.54971 0.10474 0.89513 0.0
C970 C 0.60099 0.12285 0.85295 0.0
C971 C 0.54343 0.09299 0.91607 0.0
C972 C 0.63916 0.18817 0.77418 0.0
C973 C 0.62788 0.16941 0.791 0.0
C974 C 0.57178 0.14167 0.83014 0.0
C975 C 0.5636 0.09817 0.87963 0.0
C976 C 0.57467 0.11437 0.85929 0.0
C977 C 0.61132 0.17133 0.80699 0.0
C978 C 0.5984 0.15088 0.82437 0.0
H979 H 0.56876 0.05192 0.91014 0.0
H980 H 0.57943 0.0722 0.87319 0.0
H981 H 0.53962 0.1172 0.85161 0.0
H982 H 0.61411 0.2277 0.78917 0.0
H983 H 0.59478 0.19521 0.81856 0.0
C984 C 0.47942 0.55523 0.0954 0.0
C985 C 0.50553 0.56024 0.09847 0.0
C986 C 0.47103 0.55967 0.07484 0.0
C987 C 0.49845 0.60016 0.02458 0.0
H988 H 0.42408 0.5631 0.00686 0.0
C989 C 0.45508 0.62539 0.94619 0.0
C990 C 0.43128 0.62553 0.9497 0.0
C991 C 0.46566 0.61656 0.96291 0.0
C992 C 0.4449 0.57357 0.01149 0.0
H993 H 0.54282 0.57193 0.08208 0.0
H994 H 0.52786 0.57893 0.04558 0.0
H995 H 0.43917 0.5455 0.03647 0.0
H996 H 0.40144 0.61952 0.97395 0.0
H997 H 0.4196 0.60367 0.00314 0.0
H998 H 0.50393 0.62797 -0.00093 0.0
C999 C 0.51408 0.57222 0.05932 0.0
C1000 C 0.45361 0.56359 0.02859 0.0
C1001 C 0.52254 0.56786 0.08008 0.0
C1002 C 0.41919 0.61848 0.97061 0.0
C1003 C 0.42966 0.60956 0.98728 0.0
C1004 C 0.48974 0.60983 0.00704 0.0
C1005 C 0.48846 0.56897 0.05667 0.0
C1006 C 0.48033 0.57718 0.03591 0.0
C1007 C 0.45272 0.60804 0.98345 0.0
C1008 C 0.46271 0.59696 0.00074 0.0
H1009 H 0.46588 0.54923 0.10932 0.0
H1010 H 0.45131 0.55723 0.07369 0.0
H1011 H 0.51911 0.61137 0.02989 0.0
H1012 H 0.46503 0.63137 0.93029 0.0
H1013 H 0.4835 0.6157 0.95954 0.0
C1014 C 0.94969 0.4781 0.25276 0.0
C1015 C 0.96988 0.50428 0.25693 0.0
C1016 C 0.93512 0.47122 0.23276 0.0
C1017 C 0.92965 0.48727 0.17541 0.0
H1018 H 0.85566 0.46159 0.18956 0.0
C1019 C 0.85037 0.46117 0.1057 0.0
C1020 C 0.82619 0.43779 0.10883 0.0
C1021 C 0.86887 0.47228 0.12335 0.0
C1022 C 0.87612 0.46839 0.18521 0.0
H1023 H 0.9925 0.54313 0.24261 0.0
H1024 H 0.96724 0.53078 0.20712 0.0
H1025 H 0.88824 0.47307 0.21962 0.0
H1026 H 0.80069 0.40938 0.13306 0.0
H1027 H 0.83294 0.428 0.16368 0.0
H1028 H 0.91747 0.48165 0.14098 0.0
C1029 C 0.96261 0.5158 0.21956 0.0
C1030 C 0.89479 0.47506 0.20247 0.0
C1031 C 0.97711 0.5228 0.23976 0.0
C1032 C 0.81971 0.42693 0.13017 0.0
C1033 C 0.83809 0.43794 0.14779 0.0
C1034 C 0.91084 0.48016 0.15804 0.0
C1035 C 0.9407 0.49028 0.21643 0.0
C1036 C 0.92161 0.48422 0.19774 0.0
C1037 C 0.86323 0.46037 0.14449 0.0
C1038 C 0.88373 0.47025 0.16275 0.0
H1039 H 0.94397 0.46336 0.26562 0.0
H1040 H 0.91853 0.45131 0.23053 0.0
H1041 H 0.95029 0.49439 0.17143 0.0
H1042 H 0.85534 0.47026 0.08942 0.0
H1043 H 0.88768 0.48997 0.12033 0.0
loop_
_geom_bond_atom_site_label_1
_geom_bond_atom_site_label_2
_geom_bond_distance
_geom_bond_site_symmetry_2
_ccdc_geom_bond_type
H0 C6 0.930 . S
H1 C9 0.931 . S
H2 C11 0.931 . S
H3 C13 0.930 . S
H4 C15 0.930 . S
H5 C17 0.931 . S
C6 H0 0.930 . S
C6 C7 1.380 . S
C6 C8 1.394 . S
C7 C6 1.380 . S
C7 C11 1.382 . S
C8 C6 1.394 . S
C8 C9 1.400 . S
C9 H1 0.931 . S
C9 C8 1.400 . S
C9 C10 1.375 . S
C10 C9 1.375 . S
C10 C11 1.415 . S
C10 C12 1.501 1_455 S
C11 H2 0.931 . S
C11 C7 1.382 . S
C11 C10 1.415 . S
C12 C10 1.501 1_655 S
C12 C13 1.384 . S
C12 C17 1.408 . S
C13 H3 0.930 . S
C13 C12 1.384 . S
C13 C14 1.389 . S
C14 C13 1.389 . S
C14 C15 1.405 . S
C15 H4 0.930 . S
C15 C14 1.405 . S
C15 C16 1.364 . S
C16 C15 1.364 . S
C16 C17 1.400 . S
C17 H5 0.931 . S
C17 C12 1.408 . S
C17 C16 1.400 . S
H18 C24 0.930 . S
H19 C27 0.931 . S
H20 C29 0.931 . S
H21 C31 0.930 . S
H22 C33 0.930 . S
H23 C35 0.931 1_545 S
C24 H18 0.930 . S
C24 C25 1.380 . S
C24 C26 1.394 . S
C25 C24 1.380 . S
C25 C29 1.382 . S
C26 C24 1.394 . S
C26 C27 1.400 . S
C27 H19 0.931 . S
C27 C26 1.400 . S
C27 C28 1.375 . S
C28 C27 1.375 . S
C28 C29 1.415 . S
C28 C30 1.501 1_545 S
C29 H20 0.931 . S
C29 C25 1.382 . S
C29 C28 1.415 . S
C30 C28 1.501 1_565 S
C30 C31 1.384 . S
C30 C35 1.408 . S
C31 H21 0.930 . S
C31 C30 1.384 . S
C31 C32 1.389 . S
C32 C31 1.389 . S
C32 C33 1.405 . S
C33 H22 0.930 . S
C33 C32 1.405 . S
C33 C34 1.364 . S
C34 C33 1.364 . S
C34 C35 1.400 . S
C35 H23 0.931 1_565 S
C35 C30 1.408 . S
C35 C34 1.400 . S
H36 C42 0.930 . S
H37 C45 0.931 . S
H38 C47 0.931 . S
H39 C49 0.930 . S
H40 C51 0.930 . S
H41 C53 0.931 . S
C42 H36 0.930 . S
C42 C43 1.380 . S
C42 C44 1.394 . S
C43 C42 1.380 . S
C43 C47 1.382 . S
C44 C42 1.394 . S
C44 C45 1.400 . S
C45 H37 0.931 . S
C45 C44 1.400 . S
C45 C46 1.375 . S
C46 C45 1.375 . S
C46 C47 1.415 . S
C46 C48 1.501 . S
C47 H38 0.931 . S
C47 C43 1.382 . S
C47 C46 1.415 . S
C48 C46 1.501 . S
C48 C49 1.384 . S
C48 C53 1.408 . S
C49 H39 0.930 . S
C49 C48 1.384 . S
C49 C50 1.389 . S
C50 C49 1.389 . S
C50 C51 1.405 . S
C51 H40 0.930 . S
C51 C50 1.405 . S
C51 C52 1.364 . S
C52 C51 1.364 . S
C52 C53 1.400 . S
C53 H41 0.931 . S
C53 C48 1.408 . S
C53 C52 1.400 . S
H54 C60 0.930 . S
H55 C63 0.931 . S
H56 C65 0.931 . S
H57 C67 0.930 . S
H58 C69 0.930 . S
H59 C71 0.928 1_455 S
C60 H54 0.930 . S
C60 C61 1.380 . S
C60 C62 1.394 . S
C61 C60 1.380 . S
C61 C65 1.382 . S
C62 C60 1.394 . S
C62 C63 1.400 . S
C63 H55 0.931 . S
C63 C62 1.400 . S
C63 C64 1.375 . S
C64 C63 1.375 . S
C64 C65 1.415 . S
C64 C66 1.501 1_455 S
C65 H56 0.931 . S
C65 C61 1.382 . S
C65 C64 1.415 . S
C66 C64 1.501 1_655 S
C66 C67 1.384 . S
C66 C71 1.408 . S
C67 H57 0.930 . S
C67 C66 1.384 . S
C67 C68 1.389 . S
C68 C67 1.389 . S
C68 C69 1.405 . S
C69 H58 0.930 . S
C69 C68 1.405 . S
C69 C70 1.364 . S
C70 C69 1.364 . S
C70 C71 1.400 . S
C71 H59 0.928 1_655 S
C71 C66 1.408 . S
C71 C70 1.400 . S
H72 C78 0.930 . S
H73 C81 0.931 . S
H74 C83 0.931 1_545 S
H75 C85 0.930 . S
H76 C87 0.930 . S
H77 C89 0.931 . S
C78 H72 0.930 . S
C78 C79 1.380 . S
C78 C80 1.394 1_554 S
C79 C78 1.380 . S
C79 C83 1.382 . S
C80 C78 1.394 1_556 S
C80 C81 1.400 . S
C81 H73 0.931 . S
C81 C80 1.400 . S
C81 C82 1.375 1_565 S
C82 C81 1.375 1_545 S
C82 C83 1.415 1_546 S
C82 C84 1.501 . S
C83 H74 0.931 1_565 S
C83 C79 1.382 . S
C83 C82 1.415 1_564 S
C84 C82 1.501 . S
C84 C85 1.384 1_556 S
C84 C89 1.408 . S
C85 H75 0.930 . S
C85 C84 1.384 1_554 S
C85 C86 1.389 1_554 S
C86 C85 1.389 1_556 S
C86 C87 1.405 . S
C87 H76 0.930 . S
C87 C86 1.405 . S
C87 C88 1.364 . S
C88 C87 1.364 . S
C88 C89 1.400 . S
C89 H77 0.931 . S
C89 C84 1.408 . S
C89 C88 1.400 . S
H90 C96 0.930 . S
H91 C99 0.931 . S
H92 C101 0.931 . S
H93 C103 0.930 . S
H94 C105 0.930 . S
H95 C107 0.931 . S
C96 H90 0.930 . S
C96 C97 1.380 . S
C96 C98 1.394 . S
C97 C96 1.380 . S
C97 C101 1.382 . S
C98 C96 1.394 . S
C98 C99 1.400 . S
C99 H91 0.931 . S
C99 C98 1.400 . S
C99 C100 1.375 . S
C100 C99 1.375 . S
C100 C101 1.415 . S
C100 C102 1.501 . S
C101 H92 0.931 . S
C101 C97 1.382 . S
C101 C100 1.415 . S
C102 C100 1.501 . S
C102 C103 1.384 . S
C102 C107 1.408 . S
C103 H93 0.930 . S
C103 C102 1.384 . S
C103 C104 1.389 . S
C104 C103 1.389 . S
C104 C105 1.405 . S
C105 H94 0.930 . S
C105 C104 1.405 . S
C105 C106 1.364 . S
C106 C105 1.364 . S
C106 C107 1.400 . S
C107 H95 0.931 . S
C107 C102 1.408 . S
C107 C106 1.400 . S
Mn108 O113 2.095 . S
Mn108 O123 2.162 . S
Mn108 O124 2.297 . S
Mn108 O132 2.385 . S
Mn108 O133 2.209 . S
Mn108 O134 2.094 . S
Mn109 O114 2.121 . S
Mn109 N116 2.257 . S
Mn109 N125 2.282 . S
Mn109 O133 2.215 . S
Mn109 O135 2.117 . S
C110 O132 1.234 . S
C110 O133 1.283 . S
C111 O123 1.281 . S
C111 O124 1.236 . S
C112 O134 1.240 . S
C112 O135 1.264 . S
O113 Mn108 2.095 . S
O113 C122 1.250 . S
O114 Mn109 2.121 . S
O114 C122 1.258 . S
C115 N116 1.326 . S
C115 C119 1.460 . S
C115 H121 0.929 . S
N116 Mn109 2.257 . S
N116 C115 1.326 . S
N116 C120 1.362 . S
C117 C118 1.258 . S
C117 C120 1.431 . S
C117 C137 1.449 . S
C118 C117 1.258 . S
C118 C119 1.477 . S
C118 H138 0.931 . S
C119 C115 1.460 . S
C119 C118 1.477 . S
C119 H139 0.930 . S
C120 N116 1.362 . S
C120 C117 1.431 . S
C120 C130 1.476 . S
H121 C115 0.929 . S
C122 O113 1.250 . S
C122 O114 1.258 . S
O123 Mn108 2.162 . S
O123 C111 1.281 . S
O124 Mn108 2.297 . S
O124 C111 1.236 . S
N125 Mn109 2.282 . S
N125 C126 1.328 . S
N125 C130 1.318 . S
C126 N125 1.328 . S
C126 C127 1.457 . S
C126 H131 0.929 . S
C127 C126 1.457 . S
C127 C128 1.291 . S
C127 H140 0.931 . S
C128 C127 1.291 . S
C128 C129 1.373 . S
C128 H141 0.929 . S
C129 C128 1.373 . S
C129 C130 1.396 . S
C129 C136 1.403 . S
C130 C120 1.476 . S
C130 N125 1.318 . S
C130 C129 1.396 . S
H131 C126 0.929 . S
O132 Mn108 2.385 . S
O132 C110 1.234 . S
O133 Mn108 2.209 . S
O133 Mn109 2.215 . S
O133 C110 1.283 . S
O134 Mn108 2.094 . S
O134 C112 1.240 . S
O135 Mn109 2.117 . S
O135 C112 1.264 . S
C136 C129 1.403 . S
C136 C137 1.399 . S
C136 H142 0.929 . S
C137 C117 1.449 . S
C137 C136 1.399 . S
C137 H143 0.930 . S
H138 C118 0.931 . S
H139 C119 0.930 . S
H140 C127 0.931 . S
H141 C128 0.929 . S
H142 C136 0.929 . S
H143 C137 0.930 . S
Mn144 O149 2.095 . S
Mn144 O159 2.162 . S
Mn144 O160 2.297 . S
Mn144 O168 2.385 . S
Mn144 O169 2.209 . S
Mn144 O170 2.094 . S
Mn145 O150 2.121 . S
Mn145 N152 2.257 . S
Mn145 N161 2.282 . S
Mn145 O169 2.215 . S
Mn145 O171 2.117 . S
C146 O168 1.234 . S
C146 O169 1.283 . S
C147 O159 1.281 . S
C147 O160 1.236 . S
C148 O170 1.240 . S
C148 O171 1.264 . S
O149 Mn144 2.095 . S
O149 C158 1.250 . S
O150 Mn145 2.121 . S
O150 C158 1.258 . S
C151 N152 1.326 . S
C151 C155 1.460 . S
C151 H157 0.929 . S
N152 Mn145 2.257 . S
N152 C151 1.326 . S
N152 C156 1.362 . S
C153 C154 1.258 . S
C153 C156 1.431 . S
C153 C173 1.449 . S
C154 C153 1.258 . S
C154 C155 1.477 . S
C154 H174 0.931 . S
C155 C151 1.460 . S
C155 C154 1.477 . S
C155 H175 0.930 . S
C156 N152 1.362 . S
C156 C153 1.431 . S
C156 C166 1.476 . S
H157 C151 0.929 . S
C158 O149 1.250 . S
C158 O150 1.258 . S
O159 Mn144 2.162 . S
O159 C147 1.281 . S
O160 Mn144 2.297 . S
O160 C147 1.236 . S
N161 Mn145 2.282 . S
N161 C162 1.328 . S
N161 C166 1.318 . S
C162 N161 1.328 . S
C162 C163 1.457 . S
C162 H167 0.929 . S
C163 C162 1.457 . S
C163 C164 1.291 . S
C163 H176 0.931 . S
C164 C163 1.291 . S
C164 C165 1.373 . S
C164 H177 0.929 . S
C165 C164 1.373 . S
C165 C166 1.396 . S
C165 C172 1.403 . S
C166 C156 1.476 . S
C166 N161 1.318 . S
C166 C165 1.396 . S
H167 C162 0.929 . S
O168 Mn144 2.385 . S
O168 C146 1.234 . S
O169 Mn144 2.209 . S
O169 Mn145 2.215 . S
O169 C146 1.283 . S
O170 Mn144 2.094 . S
O170 C148 1.240 . S
O171 Mn145 2.117 . S
O171 C148 1.264 . S
C172 C165 1.403 . S
C172 C173 1.399 . S
C172 H178 0.929 . S
C173 C153 1.449 . S
C173 C172 1.399 . S
C173 H179 0.930 . S
H174 C154 0.931 . S
H175 C155 0.930 . S
H176 C163 0.931 . S
H177 C164 0.929 . S
H178 C172 0.929 . S
H179 C173 0.930 . S
Mn180 O185 2.095 . S
Mn180 O195 2.162 . S
Mn180 O196 2.297 . S
Mn180 O204 2.385 . S
Mn180 O205 2.209 . S
Mn180 O206 2.094 . S
Mn181 O186 2.121 . S
Mn181 N188 2.257 . S
Mn181 N197 2.282 . S
Mn181 O205 2.215 . S
Mn181 O207 2.117 . S
C182 O204 1.234 . S
C182 O205 1.283 . S
C183 O195 1.281 . S
C183 O196 1.236 . S
C184 O206 1.240 . S
C184 O207 1.264 . S
O185 Mn180 2.095 . S
O185 C194 1.250 . S
O186 Mn181 2.121 . S
O186 C194 1.258 . S
C187 N188 1.326 . S
C187 C191 1.460 . S
C187 H193 0.929 . S
N188 Mn181 2.257 . S
N188 C187 1.326 . S
N188 C192 1.362 . S
C189 C190 1.258 . S
C189 C192 1.431 . S
C189 C209 1.449 . S
C190 C189 1.258 . S
C190 C191 1.477 . S
C190 H210 0.931 . S
C191 C187 1.460 . S
C191 C190 1.477 . S
C191 H211 0.930 . S
C192 N188 1.362 . S
C192 C189 1.431 . S
C192 C202 1.476 . S
H193 C187 0.929 . S
C194 O185 1.250 . S
C194 O186 1.258 . S
O195 Mn180 2.162 . S
O195 C183 1.281 . S
O196 Mn180 2.297 . S
O196 C183 1.236 . S
N197 Mn181 2.282 . S
N197 C198 1.328 . S
N197 C202 1.318 . S
C198 N197 1.328 . S
C198 C199 1.457 . S
C198 H203 0.929 . S
C199 C198 1.457 . S
C199 C200 1.291 . S
C199 H212 0.931 . S
C200 C199 1.291 . S
C200 C201 1.373 . S
C200 H213 0.929 . S
C201 C200 1.373 . S
C201 C202 1.396 . S
C201 C208 1.403 . S
C202 C192 1.476 . S
C202 N197 1.318 . S
C202 C201 1.396 . S
H203 C198 0.929 . S
O204 Mn180 2.385 . S
O204 C182 1.234 . S
O205 Mn180 2.209 . S
O205 Mn181 2.215 . S
O205 C182 1.283 . S
O206 Mn180 2.094 . S
O206 C184 1.240 . S
O207 Mn181 2.117 . S
O207 C184 1.264 . S
C208 C201 1.403 . S
C208 C209 1.399 . S
C208 H214 0.929 . S
C209 C189 1.449 . S
C209 C208 1.399 . S
C209 H215 0.930 . S
H210 C190 0.931 . S
H211 C191 0.930 . S
H212 C199 0.931 . S
H213 C200 0.929 . S
H214 C208 0.929 . S
H215 C209 0.930 . S
Mn216 O221 2.095 . S
Mn216 O231 2.162 . S
Mn216 O232 2.297 . S
Mn216 O240 2.385 . S
Mn216 O241 2.209 . S
Mn216 O242 2.094 . S
Mn217 O222 2.121 . S
Mn217 N224 2.257 . S
Mn217 N233 2.282 . S
Mn217 O241 2.215 . S
Mn217 O243 2.117 . S
C218 O240 1.234 . S
C218 O241 1.283 . S
C219 O231 1.281 . S
C219 O232 1.236 . S
C220 O242 1.240 . S
C220 O243 1.264 . S
O221 Mn216 2.095 . S
O221 C230 1.250 . S
O222 Mn217 2.121 . S
O222 C230 1.258 . S
C223 N224 1.326 . S
C223 C227 1.460 . S
C223 H229 0.929 . S
N224 Mn217 2.257 . S
N224 C223 1.326 . S
N224 C228 1.362 . S
C225 C226 1.258 . S
C225 C228 1.431 . S
C225 C245 1.449 . S
C226 C225 1.258 . S
C226 C227 1.477 . S
C226 H246 0.931 . S
C227 C223 1.460 . S
C227 C226 1.477 . S
C227 H247 0.930 . S
C228 N224 1.362 . S
C228 C225 1.431 . S
C228 C238 1.476 . S
H229 C223 0.929 . S
C230 O221 1.250 . S
C230 O222 1.258 . S
O231 Mn216 2.162 . S
O231 C219 1.281 . S
O232 Mn216 2.297 . S
O232 C219 1.236 . S
N233 Mn217 2.282 . S
N233 C234 1.328 . S
N233 C238 1.318 . S
C234 N233 1.328 . S
C234 C235 1.457 . S
C234 H239 0.929 . S
C235 C234 1.457 . S
C235 C236 1.291 . S
C235 H248 0.931 . S
C236 C235 1.291 . S
C236 C237 1.373 . S
C236 H249 0.929 . S
C237 C236 1.373 . S
C237 C238 1.396 . S
C237 C244 1.403 . S
C238 C228 1.476 . S
C238 N233 1.318 . S
C238 C237 1.396 . S
H239 C234 0.929 . S
O240 Mn216 2.385 . S
O240 C218 1.234 . S
O241 Mn216 2.209 . S
O241 Mn217 2.215 . S
O241 C218 1.283 . S
O242 Mn216 2.094 . S
O242 C220 1.240 . S
O243 Mn217 2.117 . S
O243 C220 1.264 . S
C244 C237 1.403 . S
C244 C245 1.399 . S
C244 H250 0.929 . S
C245 C225 1.449 . S
C245 C244 1.399 . S
C245 H251 0.930 . S
H246 C226 0.931 . S
H247 C227 0.930 . S
H248 C235 0.931 . S
H249 C236 0.929 . S
H250 C244 0.929 . S
H251 C245 0.930 . S
Mn252 O257 2.095 . S
Mn252 O267 2.162 . S
Mn252 O268 2.297 . S
Mn252 O276 2.385 . S
Mn252 O277 2.209 . S
Mn252 O278 2.094 . S
Mn253 O258 2.121 . S
Mn253 N260 2.257 . S
Mn253 N269 2.282 . S
Mn253 O277 2.215 . S
Mn253 O279 2.117 . S
C254 O276 1.234 . S
C254 O277 1.283 . S
C255 O267 1.281 . S
C255 O268 1.236 . S
C256 O278 1.240 . S
C256 O279 1.264 . S
O257 Mn252 2.095 . S
O257 C266 1.250 . S
O258 Mn253 2.121 . S
O258 C266 1.258 . S
C259 N260 1.326 . S
C259 C263 1.460 . S
C259 H265 0.929 . S
N260 Mn253 2.257 . S
N260 C259 1.326 . S
N260 C264 1.362 . S
C261 C262 1.258 . S
C261 C264 1.431 . S
C261 C281 1.449 . S
C262 C261 1.258 . S
C262 C263 1.477 . S
C262 H282 0.931 . S
C263 C259 1.460 . S
C263 C262 1.477 . S
C263 H283 0.930 . S
C264 N260 1.362 . S
C264 C261 1.431 . S
C264 C274 1.476 . S
H265 C259 0.929 . S
C266 O257 1.250 . S
C266 O258 1.258 . S
O267 Mn252 2.162 . S
O267 C255 1.281 . S
O268 Mn252 2.297 . S
O268 C255 1.236 . S
N269 Mn253 2.282 . S
N269 C270 1.328 . S
N269 C274 1.318 . S
C270 N269 1.328 . S
C270 C271 1.457 . S
C270 H275 0.929 . S
C271 C270 1.457 . S
C271 C272 1.291 . S
C271 H284 0.931 . S
C272 C271 1.291 . S
C272 C273 1.373 . S
C272 H285 0.929 . S
C273 C272 1.373 . S
C273 C274 1.396 . S
C273 C280 1.403 . S
C274 C264 1.476 . S
C274 N269 1.318 . S
C274 C273 1.396 . S
H275 C270 0.929 . S
O276 Mn252 2.385 . S
O276 C254 1.234 . S
O277 Mn252 2.209 . S
O277 Mn253 2.215 . S
O277 C254 1.283 . S
O278 Mn252 2.094 . S
O278 C256 1.240 . S
O279 Mn253 2.117 . S
O279 C256 1.264 . S
C280 C273 1.403 . S
C280 C281 1.399 . S
C280 H286 0.929 . S
C281 C261 1.449 . S
C281 C280 1.399 . S
C281 H287 0.930 . S
H282 C262 0.931 . S
H283 C263 0.930 . S
H284 C271 0.931 . S
H285 C272 0.929 . S
H286 C280 0.929 . S
H287 C281 0.930 . S
Mn288 O293 2.095 . S
Mn288 O303 2.162 . S
Mn288 O304 2.297 . S
Mn288 O312 2.385 . S
Mn288 O313 2.209 . S
Mn288 O314 2.094 . S
Mn289 O294 2.121 . S
Mn289 N296 2.257 . S
Mn289 N305 2.282 . S
Mn289 O313 2.215 . S
Mn289 O315 2.117 . S
C290 O312 1.234 . S
C290 O313 1.283 . S
C291 O303 1.281 . S
C291 O304 1.236 . S
C292 O314 1.240 . S
C292 O315 1.264 . S
O293 Mn288 2.095 . S
O293 C302 1.250 . S
O294 Mn289 2.121 . S
O294 C302 1.258 . S
C295 N296 1.326 . S
C295 C299 1.460 . S
C295 H301 0.929 . S
N296 Mn289 2.257 . S
N296 C295 1.326 . S
N296 C300 1.362 . S
C297 C298 1.258 . S
C297 C300 1.431 . S
C297 C317 1.449 . S
C298 C297 1.258 . S
C298 C299 1.477 . S
C298 H318 0.931 . S
C299 C295 1.460 . S
C299 C298 1.477 . S
C299 H319 0.930 . S
C300 N296 1.362 . S
C300 C297 1.431 . S
C300 C310 1.476 . S
H301 C295 0.929 . S
C302 O293 1.250 . S
C302 O294 1.258 . S
O303 Mn288 2.162 . S
O303 C291 1.281 . S
O304 Mn288 2.297 . S
O304 C291 1.236 . S
N305 Mn289 2.282 . S
N305 C306 1.328 . S
N305 C310 1.318 . S
C306 N305 1.328 . S
C306 C307 1.457 . S
C306 H311 0.929 . S
C307 C306 1.457 . S
C307 C308 1.291 . S
C307 H320 0.931 . S
C308 C307 1.291 . S
C308 C309 1.373 . S
C308 H321 0.929 . S
C309 C308 1.373 . S
C309 C310 1.396 . S
C309 C316 1.403 . S
C310 C300 1.476 . S
C310 N305 1.318 . S
C310 C309 1.396 . S
H311 C306 0.929 . S
O312 Mn288 2.385 . S
O312 C290 1.234 . S
O313 Mn288 2.209 . S
O313 Mn289 2.215 . S
O313 C290 1.283 . S
O314 Mn288 2.094 . S
O314 C292 1.240 . S
O315 Mn289 2.117 . S
O315 C292 1.264 . S
C316 C309 1.403 . S
C316 C317 1.399 . S
C316 H322 0.929 . S
C317 C297 1.449 . S
C317 C316 1.399 . S
C317 H323 0.930 . S
H318 C298 0.931 . S
H319 C299 0.930 . S
H320 C307 0.931 . S
H321 C308 0.929 . S
H322 C316 0.929 . S
H323 C317 0.930 . S
C324 C325 1.349 . S
C324 C326 1.327 . S
C324 H349 0.950 . S
C325 C324 1.349 . S
C325 C341 1.349 . S
C326 C324 1.327 . S
C326 C345 1.429 . S
C326 H350 0.950 . S
C327 C344 1.574 . S
C327 C346 1.368 . S
C327 H351 0.949 . S
H328 C332 0.949 . S
C329 C330 1.349 . S
C329 C331 1.327 . S
C329 H352 0.950 . S
C330 C329 1.349 . S
C330 C342 1.349 . S
C331 C329 1.327 . S
C331 C347 1.429 . S
C331 H353 0.950 . S
C332 H328 0.949 . S
C332 C340 1.574 . S
C332 C348 1.368 . S
H333 C341 0.950 . S
H334 C339 0.950 . S
H335 C340 0.949 . S
H336 C342 0.950 . S
H337 C343 0.950 . S
H338 C344 0.949 . S
C339 H334 0.950 . S
C339 C341 1.327 . S
C339 C345 1.429 . S
C340 C332 1.574 . S
C340 H335 0.949 . S
C340 C346 1.368 . S
C341 C325 1.349 . S
C341 H333 0.950 . S
C341 C339 1.327 . S
C342 C330 1.349 . S
C342 H336 0.950 . S
C342 C343 1.327 . S
C343 H337 0.950 . S
C343 C342 1.327 . S
C343 C347 1.429 . S
C344 C327 1.574 . S
C344 H338 0.949 . S
C344 C348 1.368 . S
C345 C326 1.429 . S
C345 C339 1.429 . S
C345 C346 1.523 . S
C346 C327 1.368 . S
C346 C340 1.368 . S
C346 C345 1.523 . S
C347 C331 1.429 . S
C347 C343 1.429 . S
C347 C348 1.523 . S
C348 C332 1.368 . S
C348 C344 1.368 . S
C348 C347 1.523 . S
H349 C324 0.950 . S
H350 C326 0.950 . S
H351 C327 0.949 . S
H352 C329 0.950 . S
H353 C331 0.950 . S
C354 C355 1.349 . S
C354 C356 1.327 . S
C354 H379 0.950 . S
C355 C354 1.349 . S
C355 C371 1.349 . S
C356 C354 1.327 . S
C356 C375 1.429 . S
C356 H380 0.950 . S
C357 C374 1.574 . S
C357 C376 1.368 . S
C357 H381 0.949 . S
H358 C362 0.949 . S
C359 C360 1.349 . S
C359 C361 1.327 . S
C359 H382 0.950 . S
C360 C359 1.349 . S
C360 C372 1.349 . S
C361 C359 1.327 . S
C361 C377 1.429 . S
C361 H383 0.950 . S
C362 H358 0.949 . S
C362 C370 1.574 . S
C362 C378 1.368 . S
H363 C371 0.950 . S
H364 C369 0.950 . S
H365 C370 0.949 . S
H366 C372 0.950 . S
H367 C373 0.950 . S
H368 C374 0.949 . S
C369 H364 0.950 . S
C369 C371 1.327 . S
C369 C375 1.429 . S
C370 C362 1.574 . S
C370 H365 0.949 . S
C370 C376 1.368 . S
C371 C355 1.349 . S
C371 H363 0.950 . S
C371 C369 1.327 . S
C372 C360 1.349 . S
C372 H366 0.950 . S
C372 C373 1.327 . S
C373 H367 0.950 . S
C373 C372 1.327 . S
C373 C377 1.429 . S
C374 C357 1.574 . S
C374 H368 0.949 . S
C374 C378 1.368 . S
C375 C356 1.429 . S
C375 C369 1.429 . S
C375 C376 1.523 . S
C376 C357 1.368 . S
C376 C370 1.368 . S
C376 C375 1.523 . S
C377 C361 1.429 . S
C377 C373 1.429 . S
C377 C378 1.523 . S
C378 C362 1.368 . S
C378 C374 1.368 . S
C378 C377 1.523 . S
H379 C354 0.950 . S
H380 C356 0.950 . S
H381 C357 0.949 . S
H382 C359 0.950 . S
H383 C361 0.950 . S
C384 C385 1.349 . S
C384 C386 1.327 . S
C384 H409 0.950 . S
C385 C384 1.349 . S
C385 C401 1.349 . S
C386 C384 1.327 . S
C386 C405 1.429 . S
C386 H410 0.950 . S
C387 C404 1.574 . S
C387 C406 1.368 . S
C387 H411 0.949 . S
H388 C392 0.949 . S
C389 C390 1.349 . S
C389 C391 1.327 . S
C389 H412 0.950 . S
C390 C389 1.349 . S
C390 C402 1.349 . S
C391 C389 1.327 . S
C391 C407 1.429 . S
C391 H413 0.950 . S
C392 H388 0.949 . S
C392 C400 1.574 . S
C392 C408 1.368 . S
H393 C401 0.950 . S
H394 C399 0.950 . S
H395 C400 0.949 . S
H396 C402 0.950 . S
H397 C403 0.950 . S
H398 C404 0.949 . S
C399 H394 0.950 . S
C399 C401 1.327 . S
C399 C405 1.429 . S
C400 C392 1.574 . S
C400 H395 0.949 . S
C400 C406 1.368 . S
C401 C385 1.349 . S
C401 H393 0.950 . S
C401 C399 1.327 . S
C402 C390 1.349 . S
C402 H396 0.950 . S
C402 C403 1.327 . S
C403 H397 0.950 . S
C403 C402 1.327 . S
C403 C407 1.429 . S
C404 C387 1.574 . S
C404 H398 0.949 . S
C404 C408 1.368 . S
C405 C386 1.429 . S
C405 C399 1.429 . S
C405 C406 1.523 . S
C406 C387 1.368 . S
C406 C400 1.368 . S
C406 C405 1.523 . S
C407 C391 1.429 . S
C407 C403 1.429 . S
C407 C408 1.523 . S
C408 C392 1.368 . S
C408 C404 1.368 . S
C408 C407 1.523 . S
H409 C384 0.950 . S
H410 C386 0.950 . S
H411 C387 0.949 . S
H412 C389 0.950 . S
H413 C391 0.950 . S
C414 C415 1.349 . S
C414 C416 1.327 . S
C414 H439 0.950 . S
C415 C414 1.349 . S
C415 C431 1.349 . S
C416 C414 1.327 . S
C416 C435 1.429 . S
C416 H440 0.950 . S
C417 C434 1.574 . S
C417 C436 1.368 . S
C417 H441 0.949 . S
H418 C422 0.949 . S
C419 C420 1.349 . S
C419 C421 1.327 . S
C419 H442 0.950 . S
C420 C419 1.349 . S
C420 C432 1.349 . S
C421 C419 1.327 . S
C421 C437 1.429 . S
C421 H443 0.950 . S
C422 H418 0.949 . S
C422 C430 1.574 . S
C422 C438 1.368 . S
H423 C431 0.950 . S
H424 C429 0.950 . S
H425 C430 0.949 . S
H426 C432 0.950 . S
H427 C433 0.950 . S
H428 C434 0.949 . S
C429 H424 0.950 . S
C429 C431 1.327 . S
C429 C435 1.429 . S
C430 C422 1.574 . S
C430 H425 0.949 . S
C430 C436 1.368 . S
C431 C415 1.349 . S
C431 H423 0.950 . S
C431 C429 1.327 . S
C432 C420 1.349 . S
C432 H426 0.950 . S
C432 C433 1.327 . S
C433 H427 0.950 . S
C433 C432 1.327 . S
C433 C437 1.429 . S
C434 C417 1.574 . S
C434 H428 0.949 . S
C434 C438 1.368 . S
C435 C416 1.429 . S
C435 C429 1.429 . S
C435 C436 1.523 . S
C436 C417 1.368 . S
C436 C430 1.368 . S
C436 C435 1.523 . S
C437 C421 1.429 . S
C437 C433 1.429 . S
C437 C438 1.523 . S
C438 C422 1.368 . S
C438 C434 1.368 . S
C438 C437 1.523 . S
H439 C414 0.950 . S
H440 C416 0.950 . S
H441 C417 0.949 . S
H442 C419 0.950 . S
H443 C421 0.950 . S
C444 C445 1.349 . S
C444 C446 1.327 . S
C444 H469 0.950 . S
C445 C444 1.349 . S
C445 C461 1.349 . S
C446 C444 1.327 . S
C446 C465 1.429 . S
C446 H470 0.950 . S
C447 C464 1.574 . S
C447 C466 1.368 . S
C447 H471 0.949 . S
H448 C452 0.949 . S
C449 C450 1.349 . S
C449 C451 1.327 . S
C449 H472 0.950 . S
C450 C449 1.349 . S
C450 C462 1.349 . S
C451 C449 1.327 . S
C451 C467 1.429 . S
C451 H473 0.950 . S
C452 H448 0.949 . S
C452 C460 1.574 . S
C452 C468 1.368 . S
H453 C461 0.950 . S
H454 C459 0.950 . S
H455 C460 0.949 . S
H456 C462 0.950 . S
H457 C463 0.950 . S
H458 C464 0.949 . S
C459 H454 0.950 . S
C459 C461 1.327 . S
C459 C465 1.429 . S
C460 C452 1.574 . S
C460 H455 0.949 . S
C460 C466 1.368 . S
C461 C445 1.349 . S
C461 H453 0.950 . S
C461 C459 1.327 . S
C462 C450 1.349 . S
C462 H456 0.950 . S
C462 C463 1.327 . S
C463 H457 0.950 . S
C463 C462 1.327 . S
C463 C467 1.429 . S
C464 C447 1.574 . S
C464 H458 0.949 . S
C464 C468 1.368 . S
C465 C446 1.429 . S
C465 C459 1.429 . S
C465 C466 1.523 . S
C466 C447 1.368 . S
C466 C460 1.368 . S
C466 C465 1.523 . S
C467 C451 1.429 . S
C467 C463 1.429 . S
C467 C468 1.523 . S
C468 C452 1.368 . S
C468 C464 1.368 . S
C468 C467 1.523 . S
H469 C444 0.950 . S
H470 C446 0.950 . S
H471 C447 0.949 . S
H472 C449 0.950 . S
H473 C451 0.950 . S
C474 C475 1.349 . S
C474 C476 1.327 . S
C474 H499 0.950 . S
C475 C474 1.349 . S
C475 C491 1.349 . S
C476 C474 1.327 . S
C476 C495 1.429 . S
C476 H500 0.950 . S
C477 C494 1.574 . S
C477 C496 1.368 . S
C477 H501 0.949 . S
H478 C482 0.949 . S
C479 C480 1.349 . S
C479 C481 1.327 . S
C479 H502 0.950 . S
C480 C479 1.349 . S
C480 C492 1.349 . S
C481 C479 1.327 . S
C481 C497 1.429 . S
C481 H503 0.950 . S
C482 H478 0.949 . S
C482 C490 1.574 . S
C482 C498 1.368 . S
H483 C491 0.950 . S
H484 C489 0.950 . S
H485 C490 0.949 . S
H486 C492 0.950 . S
H487 C493 0.950 . S
H488 C494 0.949 . S
C489 H484 0.950 . S
C489 C491 1.327 . S
C489 C495 1.429 . S
C490 C482 1.574 . S
C490 H485 0.949 . S
C490 C496 1.368 . S
C491 C475 1.349 . S
C491 H483 0.950 . S
C491 C489 1.327 . S
C492 C480 1.349 . S
C492 H486 0.950 . S
C492 C493 1.327 . S
C493 H487 0.950 . S
C493 C492 1.327 . S
C493 C497 1.429 . S
C494 C477 1.574 . S
C494 H488 0.949 . S
C494 C498 1.368 . S
C495 C476 1.429 . S
C495 C489 1.429 . S
C495 C496 1.523 . S
C496 C477 1.368 . S
C496 C490 1.368 . S
C496 C495 1.523 . S
C497 C481 1.429 . S
C497 C493 1.429 . S
C497 C498 1.523 . S
C498 C482 1.368 . S
C498 C494 1.368 . S
C498 C497 1.523 . S
H499 C474 0.950 . S
H500 C476 0.950 . S
H501 C477 0.949 . S
H502 C479 0.950 . S
H503 C481 0.950 . S
C504 C505 1.349 . S
C504 C506 1.327 . S
C504 H529 0.950 . S
C505 C504 1.349 . S
C505 C521 1.349 . S
C506 C504 1.327 . S
C506 C525 1.429 . S
C506 H530 0.950 . S
C507 C524 1.574 . S
C507 C526 1.368 . S
C507 H531 0.949 . S
H508 C512 0.949 . S
C509 C510 1.349 . S
C509 C511 1.327 . S
C509 H532 0.950 . S
C510 C509 1.349 . S
C510 C522 1.349 . S
C511 C509 1.327 . S
C511 C527 1.429 . S
C511 H533 0.950 . S
C512 H508 0.949 . S
C512 C520 1.574 . S
C512 C528 1.368 . S
H513 C521 0.950 . S
H514 C519 0.950 . S
H515 C520 0.949 . S
H516 C522 0.950 . S
H517 C523 0.950 . S
H518 C524 0.949 . S
C519 H514 0.950 . S
C519 C521 1.327 . S
C519 C525 1.429 . S
C520 C512 1.574 . S
C520 H515 0.949 . S
C520 C526 1.368 . S
C521 C505 1.349 . S
C521 H513 0.950 . S
C521 C519 1.327 . S
C522 C510 1.349 . S
C522 H516 0.950 . S
C522 C523 1.327 . S
C523 H517 0.950 . S
C523 C522 1.327 . S
C523 C527 1.429 . S
C524 C507 1.574 . S
C524 H518 0.949 . S
C524 C528 1.368 . S
C525 C506 1.429 . S
C525 C519 1.429 . S
C525 C526 1.523 . S
C526 C507 1.368 . S
C526 C520 1.368 . S
C526 C525 1.523 . S
C527 C511 1.429 . S
C527 C523 1.429 . S
C527 C528 1.523 . S
C528 C512 1.368 . S
C528 C524 1.368 . S
C528 C527 1.523 . S
H529 C504 0.950 . S
H530 C506 0.950 . S
H531 C507 0.949 . S
H532 C509 0.950 . S
H533 C511 0.950 . S
C534 C535 1.349 . S
C534 C536 1.327 . S
C534 H559 0.950 . S
C535 C534 1.349 . S
C535 C551 1.349 . S
C536 C534 1.327 . S
C536 C555 1.429 . S
C536 H560 0.950 . S
C537 C554 1.574 . S
C537 C556 1.368 . S
C537 H561 0.949 . S
H538 C542 0.949 . S
C539 C540 1.349 . S
C539 C541 1.327 . S
C539 H562 0.950 . S
C540 C539 1.349 . S
C540 C552 1.349 . S
C541 C539 1.327 . S
C541 C557 1.429 . S
C541 H563 0.950 . S
C542 H538 0.949 . S
C542 C550 1.574 . S
C542 C558 1.368 . S
H543 C551 0.950 . S
H544 C549 0.950 . S
H545 C550 0.949 . S
H546 C552 0.950 . S
H547 C553 0.950 . S
H548 C554 0.949 . S
C549 H544 0.950 . S
C549 C551 1.327 . S
C549 C555 1.429 . S
C550 C542 1.574 . S
C550 H545 0.949 . S
C550 C556 1.368 . S
C551 C535 1.349 . S
C551 H543 0.950 . S
C551 C549 1.327 . S
C552 C540 1.349 . S
C552 H546 0.950 . S
C552 C553 1.327 . S
C553 H547 0.950 . S
C553 C552 1.327 . S
C553 C557 1.429 . S
C554 C537 1.574 . S
C554 H548 0.949 . S
C554 C558 1.368 . S
C555 C536 1.429 . S
C555 C549 1.429 . S
C555 C556 1.523 . S
C556 C537 1.368 . S
C556 C550 1.368 . S
C556 C555 1.523 . S
C557 C541 1.429 . S
C557 C553 1.429 . S
C557 C558 1.523 . S
C558 C542 1.368 . S
C558 C554 1.368 . S
C558 C557 1.523 . S
H559 C534 0.950 . S
H560 C536 0.950 . S
H561 C537 0.949 . S
H562 C539 0.950 . S
H563 C541 0.950 . S
C564 C565 1.349 . S
C564 C566 1.327 . S
C564 H589 0.950 . S
C565 C564 1.349 . S
C565 C581 1.349 . S
C566 C564 1.327 . S
C566 C585 1.429 . S
C566 H590 0.950 . S
C567 C584 1.574 . S
C567 C586 1.368 . S
C567 H591 0.949 . S
H568 C572 0.949 . S
C569 C570 1.349 . S
C569 C571 1.327 . S
C569 H592 0.950 . S
C570 C569 1.349 . S
C570 C582 1.349 . S
C571 C569 1.327 . S
C571 C587 1.429 . S
C571 H593 0.950 . S
C572 H568 0.949 . S
C572 C580 1.574 . S
C572 C588 1.368 . S
H573 C581 0.950 . S
H574 C579 0.950 . S
H575 C580 0.949 . S
H576 C582 0.950 . S
H577 C583 0.950 . S
H578 C584 0.949 . S
C579 H574 0.950 . S
C579 C581 1.327 . S
C579 C585 1.429 . S
C580 C572 1.574 . S
C580 H575 0.949 . S
C580 C586 1.368 . S
C581 C565 1.349 . S
C581 H573 0.950 . S
C581 C579 1.327 . S
C582 C570 1.349 . S
C582 H576 0.950 . S
C582 C583 1.327 . S
C583 H577 0.950 . S
C583 C582 1.327 . S
C583 C587 1.429 . S
C584 C567 1.574 . S
C584 H578 0.949 . S
C584 C588 1.368 . S
C585 C566 1.429 . S
C585 C579 1.429 . S
C585 C586 1.523 . S
C586 C567 1.368 . S
C586 C580 1.368 . S
C586 C585 1.523 . S
C587 C571 1.429 . S
C587 C583 1.429 . S
C587 C588 1.523 . S
C588 C572 1.368 . S
C588 C584 1.368 . S
C588 C587 1.523 . S
H589 C564 0.950 . S
H590 C566 0.950 . S
H591 C567 0.949 . S
H592 C569 0.950 . S
H593 C571 0.950 . S
C594 C595 1.349 . S
C594 C596 1.327 . S
C594 H619 0.950 . S
C595 C594 1.349 . S
C595 C611 1.349 1_554 S
C596 C594 1.327 . S
C596 C615 1.429 . S
C596 H620 0.950 . S
C597 C614 1.574 . S
C597 C616 1.368 . S
C597 H621 0.949 . S
H598 C602 0.949 . S
C599 C600 1.349 . S
C599 C601 1.327 . S
C599 H622 0.950 . S
C600 C599 1.349 . S
C600 C612 1.349 . S
C601 C599 1.327 . S
C601 C617 1.429 . S
C601 H623 0.950 . S
C602 H598 0.949 . S
C602 C610 1.574 . S
C602 C618 1.368 . S
H603 C611 0.950 . S
H604 C609 0.950 1_556 S
H605 C610 0.949 . S
H606 C612 0.950 . S
H607 C613 0.950 . S
H608 C614 0.949 . S
C609 H604 0.950 1_554 S
C609 C611 1.327 1_554 S
C609 C615 1.429 . S
C610 C602 1.574 . S
C610 H605 0.949 . S
C610 C616 1.368 . S
C611 C595 1.349 1_556 S
C611 H603 0.950 . S
C611 C609 1.327 1_556 S
C612 C600 1.349 . S
C612 H606 0.950 . S
C612 C613 1.327 . S
C613 H607 0.950 . S
C613 C612 1.327 . S
C613 C617 1.429 . S
C614 C597 1.574 . S
C614 H608 0.949 . S
C614 C618 1.368 . S
C615 C596 1.429 . S
C615 C609 1.429 . S
C615 C616 1.523 . S
C616 C597 1.368 . S
C616 C610 1.368 . S
C616 C615 1.523 . S
C617 C601 1.429 . S
C617 C613 1.429 . S
C617 C618 1.523 . S
C618 C602 1.368 . S
C618 C614 1.368 . S
C618 C617 1.523 . S
H619 C594 0.950 . S
H620 C596 0.950 . S
H621 C597 0.949 . S
H622 C599 0.950 . S
H623 C601 0.950 . S
C624 C625 1.349 . S
C624 C626 1.327 . S
C624 H649 0.950 . S
C625 C624 1.349 . S
C625 C641 1.349 . S
C626 C624 1.327 . S
C626 C645 1.429 . S
C626 H650 0.950 . S
C627 C644 1.574 . S
C627 C646 1.368 . S
C627 H651 0.949 . S
H628 C632 0.949 . S
C629 C630 1.349 . S
C629 C631 1.327 . S
C629 H652 0.950 . S
C630 C629 1.349 . S
C630 C642 1.349 . S
C631 C629 1.327 . S
C631 C647 1.429 . S
C631 H653 0.950 . S
C632 H628 0.949 . S
C632 C640 1.574 . S
C632 C648 1.368 . S
H633 C641 0.950 . S
H634 C639 0.950 . S
H635 C640 0.949 . S
H636 C642 0.950 . S
H637 C643 0.950 . S
H638 C644 0.949 . S
C639 H634 0.950 . S
C639 C641 1.327 . S
C639 C645 1.429 . S
C640 C632 1.574 . S
C640 H635 0.949 . S
C640 C646 1.368 . S
C641 C625 1.349 . S
C641 H633 0.950 . S
C641 C639 1.327 . S
C642 C630 1.349 . S
C642 H636 0.950 . S
C642 C643 1.327 . S
C643 H637 0.950 . S
C643 C642 1.327 . S
C643 C647 1.429 . S
C644 C627 1.574 . S
C644 H638 0.949 . S
C644 C648 1.368 . S
C645 C626 1.429 . S
C645 C639 1.429 . S
C645 C646 1.523 . S
C646 C627 1.368 . S
C646 C640 1.368 . S
C646 C645 1.523 . S
C647 C631 1.429 . S
C647 C643 1.429 . S
C647 C648 1.523 . S
C648 C632 1.368 . S
C648 C644 1.368 . S
C648 C647 1.523 . S
H649 C624 0.950 . S
H650 C626 0.950 . S
H651 C627 0.949 . S
H652 C629 0.950 . S
H653 C631 0.950 . S
C654 C655 1.349 . S
C654 C656 1.327 . S
C654 H679 0.950 . S
C655 C654 1.349 . S
C655 C671 1.349 . S
C656 C654 1.327 . S
C656 C675 1.429 . S
C656 H680 0.950 . S
C657 C674 1.574 . S
C657 C676 1.368 . S
C657 H681 0.949 . S
H658 C662 0.949 . S
C659 C660 1.349 . S
C659 C661 1.327 . S
C659 H682 0.950 . S
C660 C659 1.349 . S
C660 C672 1.349 . S
C661 C659 1.327 . S
C661 C677 1.429 . S
C661 H683 0.950 . S
C662 H658 0.949 . S
C662 C670 1.574 . S
C662 C678 1.368 . S
H663 C671 0.950 . S
H664 C669 0.950 . S
H665 C670 0.949 . S
H666 C672 0.950 . S
H667 C673 0.950 . S
H668 C674 0.949 . S
C669 H664 0.950 . S
C669 C671 1.327 . S
C669 C675 1.429 . S
C670 C662 1.574 . S
C670 H665 0.949 . S
C670 C676 1.368 . S
C671 C655 1.349 . S
C671 H663 0.950 . S
C671 C669 1.327 . S
C672 C660 1.349 . S
C672 H666 0.950 . S
C672 C673 1.327 . S
C673 H667 0.950 . S
C673 C672 1.327 . S
C673 C677 1.429 . S
C674 C657 1.574 . S
C674 H668 0.949 . S
C674 C678 1.368 . S
C675 C656 1.429 . S
C675 C669 1.429 . S
C675 C676 1.523 . S
C676 C657 1.368 . S
C676 C670 1.368 . S
C676 C675 1.523 . S
C677 C661 1.429 . S
C677 C673 1.429 . S
C677 C678 1.523 . S
C678 C662 1.368 . S
C678 C674 1.368 . S
C678 C677 1.523 . S
H679 C654 0.950 . S
H680 C656 0.950 . S
H681 C657 0.949 . S
H682 C659 0.950 . S
H683 C661 0.950 . S
C684 C685 1.349 . S
C684 C686 1.327 . S
C684 H709 0.950 . S
C685 C684 1.349 . S
C685 C701 1.349 . S
C686 C684 1.327 . S
C686 C705 1.429 . S
C686 H710 0.950 . S
C687 C704 1.574 . S
C687 C706 1.368 . S
C687 H711 0.949 . S
H688 C692 0.949 . S
C689 C690 1.349 . S
C689 C691 1.327 . S
C689 H712 0.950 . S
C690 C689 1.349 . S
C690 C702 1.349 . S
C691 C689 1.327 . S
C691 C707 1.429 . S
C691 H713 0.950 . S
C692 H688 0.949 . S
C692 C700 1.574 . S
C692 C708 1.368 . S
H693 C701 0.950 . S
H694 C699 0.950 . S
H695 C700 0.949 . S
H696 C702 0.950 . S
H697 C703 0.950 . S
H698 C704 0.949 . S
C699 H694 0.950 . S
C699 C701 1.327 . S
C699 C705 1.429 . S
C700 C692 1.574 . S
C700 H695 0.949 . S
C700 C706 1.368 . S
C701 C685 1.349 . S
C701 H693 0.950 . S
C701 C699 1.327 . S
C702 C690 1.349 . S
C702 H696 0.950 . S
C702 C703 1.327 . S
C703 H697 0.950 . S
C703 C702 1.327 . S
C703 C707 1.429 . S
C704 C687 1.574 . S
C704 H698 0.949 . S
C704 C708 1.368 . S
C705 C686 1.429 . S
C705 C699 1.429 . S
C705 C706 1.523 . S
C706 C687 1.368 . S
C706 C700 1.368 . S
C706 C705 1.523 . S
C707 C691 1.429 . S
C707 C703 1.429 . S
C707 C708 1.523 . S
C708 C692 1.368 . S
C708 C704 1.368 . S
C708 C707 1.523 . S
H709 C684 0.950 . S
H710 C686 0.950 . S
H711 C687 0.949 . S
H712 C689 0.950 . S
H713 C691 0.950 . S
C714 C715 1.349 . S
C714 C716 1.327 . S
C714 H739 0.950 . S
C715 C714 1.349 . S
C715 C731 1.349 . S
C716 C714 1.327 . S
C716 C735 1.429 . S
C716 H740 0.950 . S
C717 C734 1.574 . S
C717 C736 1.368 . S
C717 H741 0.949 . S
H718 C722 0.949 . S
C719 C720 1.349 . S
C719 C721 1.327 . S
C719 H742 0.950 . S
C720 C719 1.349 . S
C720 C732 1.349 . S
C721 C719 1.327 . S
C721 C737 1.429 . S
C721 H743 0.950 . S
C722 H718 0.949 . S
C722 C730 1.574 . S
C722 C738 1.368 . S
H723 C731 0.950 . S
H724 C729 0.950 . S
H725 C730 0.949 . S
H726 C732 0.950 . S
H727 C733 0.950 . S
H728 C734 0.949 . S
C729 H724 0.950 . S
C729 C731 1.327 . S
C729 C735 1.429 . S
C730 C722 1.574 . S
C730 H725 0.949 . S
C730 C736 1.368 . S
C731 C715 1.349 . S
C731 H723 0.950 . S
C731 C729 1.327 . S
C732 C720 1.349 . S
C732 H726 0.950 . S
C732 C733 1.327 . S
C733 H727 0.950 . S
C733 C732 1.327 . S
C733 C737 1.429 . S
C734 C717 1.574 . S
C734 H728 0.949 . S
C734 C738 1.368 . S
C735 C716 1.429 . S
C735 C729 1.429 . S
C735 C736 1.523 . S
C736 C717 1.368 . S
C736 C730 1.368 . S
C736 C735 1.523 . S
C737 C721 1.429 . S
C737 C733 1.429 . S
C737 C738 1.523 . S
C738 C722 1.368 . S
C738 C734 1.368 . S
C738 C737 1.523 . S
H739 C714 0.950 . S
H740 C716 0.950 . S
H741 C717 0.949 . S
H742 C719 0.950 . S
H743 C721 0.950 . S
C744 C745 1.349 . S
C744 C746 1.327 . S
C744 H769 0.950 . S
C745 C744 1.349 . S
C745 C761 1.349 . S
C746 C744 1.327 . S
C746 C765 1.429 . S
C746 H770 0.950 . S
C747 C764 1.574 . S
C747 C766 1.368 . S
C747 H771 0.949 . S
H748 C752 0.949 . S
C749 C750 1.349 . S
C749 C751 1.327 . S
C749 H772 0.950 . S
C750 C749 1.349 . S
C750 C762 1.349 . S
C751 C749 1.327 . S
C751 C767 1.429 . S
C751 H773 0.950 . S
C752 H748 0.949 . S
C752 C760 1.574 . S
C752 C768 1.368 . S
H753 C761 0.950 . S
H754 C759 0.950 . S
H755 C760 0.949 . S
H756 C762 0.950 . S
H757 C763 0.950 . S
H758 C764 0.949 . S
C759 H754 0.950 . S
C759 C761 1.327 . S
C759 C765 1.429 . S
C760 C752 1.574 . S
C760 H755 0.949 . S
C760 C766 1.368 . S
C761 C745 1.349 . S
C761 H753 0.950 . S
C761 C759 1.327 . S
C762 C750 1.349 . S
C762 H756 0.950 . S
C762 C763 1.327 . S
C763 H757 0.950 . S
C763 C762 1.327 . S
C763 C767 1.429 . S
C764 C747 1.574 . S
C764 H758 0.949 . S
C764 C768 1.368 . S
C765 C746 1.429 . S
C765 C759 1.429 . S
C765 C766 1.523 . S
C766 C747 1.368 . S
C766 C760 1.368 . S
C766 C765 1.523 . S
C767 C751 1.429 . S
C767 C763 1.429 . S
C767 C768 1.523 . S
C768 C752 1.368 . S
C768 C764 1.368 . S
C768 C767 1.523 . S
H769 C744 0.950 . S
H770 C746 0.950 . S
H771 C747 0.949 . S
H772 C749 0.950 . S
H773 C751 0.950 . S
C774 C775 1.349 . S
C774 C776 1.327 . S
C774 H799 0.950 . S
C775 C774 1.349 . S
C775 C791 1.349 . S
C776 C774 1.327 . S
C776 C795 1.429 . S
C776 H800 0.950 . S
C777 C794 1.574 . S
C777 C796 1.368 . S
C777 H801 0.949 . S
H778 C782 0.949 . S
C779 C780 1.349 1_556 S
C779 C781 1.327 . S
C779 H802 0.951 . S
C780 C779 1.349 1_554 S
C780 C792 1.349 . S
C781 C779 1.327 . S
C781 C797 1.429 . S
C781 H803 0.950 . S
C782 H778 0.949 . S
C782 C790 1.574 . S
C782 C798 1.368 . S
H783 C791 0.950 . S
H784 C789 0.950 . S
H785 C790 0.949 . S
H786 C792 0.950 . S
H787 C793 0.950 . S
H788 C794 0.949 . S
C789 H784 0.950 . S
C789 C791 1.327 . S
C789 C795 1.429 . S
C790 C782 1.574 . S
C790 H785 0.949 . S
C790 C796 1.368 . S
C791 C775 1.349 . S
C791 H783 0.950 . S
C791 C789 1.327 . S
C792 C780 1.349 . S
C792 H786 0.950 . S
C792 C793 1.327 1_554 S
C793 H787 0.950 . S
C793 C792 1.327 1_556 S
C793 C797 1.429 . S
C794 C777 1.574 . S
C794 H788 0.949 . S
C794 C798 1.368 . S
C795 C776 1.429 . S
C795 C789 1.429 . S
C795 C796 1.523 . S
C796 C777 1.368 . S
C796 C790 1.368 . S
C796 C795 1.523 . S
C797 C781 1.429 . S
C797 C793 1.429 . S
C797 C798 1.523 . S
C798 C782 1.368 . S
C798 C794 1.368 . S
C798 C797 1.523 . S
H799 C774 0.950 . S
H800 C776 0.950 . S
H801 C777 0.949 . S
H802 C779 0.951 . S
H803 C781 0.950 . S
C804 C805 1.349 . S
C804 C806 1.327 . S
C804 H829 0.950 . S
C805 C804 1.349 . S
C805 C821 1.349 . S
C806 C804 1.327 . S
C806 C825 1.429 . S
C806 H830 0.950 . S
C807 C824 1.574 . S
C807 C826 1.368 . S
C807 H831 0.949 . S
H808 C812 0.949 . S
C809 C810 1.349 . S
C809 C811 1.327 . S
C809 H832 0.950 . S
C810 C809 1.349 . S
C810 C822 1.349 . S
C811 C809 1.327 . S
C811 C827 1.429 . S
C811 H833 0.950 . S
C812 H808 0.949 . S
C812 C820 1.574 . S
C812 C828 1.368 . S
H813 C821 0.950 . S
H814 C819 0.950 . S
H815 C820 0.949 . S
H816 C822 0.950 . S
H817 C823 0.950 . S
H818 C824 0.949 . S
C819 H814 0.950 . S
C819 C821 1.327 . S
C819 C825 1.429 . S
C820 C812 1.574 . S
C820 H815 0.949 . S
C820 C826 1.368 . S
C821 C805 1.349 . S
C821 H813 0.950 . S
C821 C819 1.327 . S
C822 C810 1.349 . S
C822 H816 0.950 . S
C822 C823 1.327 . S
C823 H817 0.950 . S
C823 C822 1.327 . S
C823 C827 1.429 . S
C824 C807 1.574 . S
C824 H818 0.949 . S
C824 C828 1.368 . S
C825 C806 1.429 . S
C825 C819 1.429 . S
C825 C826 1.523 . S
C826 C807 1.368 . S
C826 C820 1.368 . S
C826 C825 1.523 . S
C827 C811 1.429 . S
C827 C823 1.429 . S
C827 C828 1.523 . S
C828 C812 1.368 . S
C828 C824 1.368 . S
C828 C827 1.523 . S
H829 C804 0.950 . S
H830 C806 0.950 . S
H831 C807 0.949 . S
H832 C809 0.950 . S
H833 C811 0.950 . S
C834 C835 1.349 . S
C834 C836 1.327 . S
C834 H859 0.950 . S
C835 C834 1.349 . S
C835 C851 1.349 . S
C836 C834 1.327 . S
C836 C855 1.429 . S
C836 H860 0.950 . S
C837 C854 1.574 . S
C837 C856 1.368 . S
C837 H861 0.949 . S
H838 C842 0.949 . S
C839 C840 1.349 . S
C839 C841 1.327 . S
C839 H862 0.950 . S
C840 C839 1.349 . S
C840 C852 1.349 . S
C841 C839 1.327 . S
C841 C857 1.429 . S
C841 H863 0.950 . S
C842 H838 0.949 . S
C842 C850 1.574 . S
C842 C858 1.368 . S
H843 C851 0.950 . S
H844 C849 0.950 . S
H845 C850 0.949 . S
H846 C852 0.950 . S
H847 C853 0.950 . S
H848 C854 0.949 . S
C849 H844 0.950 . S
C849 C851 1.327 . S
C849 C855 1.429 . S
C850 C842 1.574 . S
C850 H845 0.949 . S
C850 C856 1.368 . S
C851 C835 1.349 . S
C851 H843 0.950 . S
C851 C849 1.327 . S
C852 C840 1.349 . S
C852 H846 0.950 . S
C852 C853 1.327 . S
C853 H847 0.950 . S
C853 C852 1.327 . S
C853 C857 1.429 . S
C854 C837 1.574 . S
C854 H848 0.949 . S
C854 C858 1.368 . S
C855 C836 1.429 . S
C855 C849 1.429 . S
C855 C856 1.523 . S
C856 C837 1.368 . S
C856 C850 1.368 . S
C856 C855 1.523 . S
C857 C841 1.429 . S
C857 C853 1.429 . S
C857 C858 1.523 . S
C858 C842 1.368 . S
C858 C854 1.368 . S
C858 C857 1.523 . S
H859 C834 0.950 . S
H860 C836 0.950 . S
H861 C837 0.949 . S
H862 C839 0.950 . S
H863 C841 0.950 . S
C864 C865 1.349 . S
C864 C866 1.327 . S
C864 H889 0.950 . S
C865 C864 1.349 . S
C865 C881 1.349 . S
C866 C864 1.327 . S
C866 C885 1.429 . S
C866 H890 0.950 . S
C867 C884 1.574 . S
C867 C886 1.368 . S
C867 H891 0.949 . S
H868 C872 0.949 . S
C869 C870 1.349 . S
C869 C871 1.327 . S
C869 H892 0.950 . S
C870 C869 1.349 . S
C870 C882 1.349 . S
C871 C869 1.327 . S
C871 C887 1.429 . S
C871 H893 0.950 . S
C872 H868 0.949 . S
C872 C880 1.574 . S
C872 C888 1.368 . S
H873 C881 0.950 . S
H874 C879 0.950 . S
H875 C880 0.949 . S
H876 C882 0.950 . S
H877 C883 0.950 . S
H878 C884 0.949 . S
C879 H874 0.950 . S
C879 C881 1.327 . S
C879 C885 1.429 . S
C880 C872 1.574 . S
C880 H875 0.949 . S
C880 C886 1.368 . S
C881 C865 1.349 . S
C881 H873 0.950 . S
C881 C879 1.327 . S
C882 C870 1.349 . S
C882 H876 0.950 . S
C882 C883 1.327 . S
C883 H877 0.950 . S
C883 C882 1.327 . S
C883 C887 1.429 . S
C884 C867 1.574 . S
C884 H878 0.949 . S
C884 C888 1.368 . S
C885 C866 1.429 . S
C885 C879 1.429 . S
C885 C886 1.523 . S
C886 C867 1.368 . S
C886 C880 1.368 . S
C886 C885 1.523 . S
C887 C871 1.429 . S
C887 C883 1.429 . S
C887 C888 1.523 . S
C888 C872 1.368 . S
C888 C884 1.368 . S
C888 C887 1.523 . S
H889 C864 0.950 . S
H890 C866 0.950 . S
H891 C867 0.949 . S
H892 C869 0.950 . S
H893 C871 0.950 . S
C894 C895 1.349 . S
C894 C896 1.327 . S
C894 H919 0.950 . S
C895 C894 1.349 . S
C895 C911 1.349 . S
C896 C894 1.327 . S
C896 C915 1.429 . S
C896 H920 0.950 . S
C897 C914 1.574 . S
C897 C916 1.368 . S
C897 H921 0.949 . S
H898 C902 0.949 . S
C899 C900 1.349 . S
C899 C901 1.327 . S
C899 H922 0.950 . S
C900 C899 1.349 . S
C900 C912 1.349 . S
C901 C899 1.327 . S
C901 C917 1.429 . S
C901 H923 0.950 . S
C902 H898 0.949 . S
C902 C910 1.574 . S
C902 C918 1.368 . S
H903 C911 0.950 . S
H904 C909 0.950 . S
H905 C910 0.949 . S
H906 C912 0.950 . S
H907 C913 0.950 . S
H908 C914 0.949 . S
C909 H904 0.950 . S
C909 C911 1.327 . S
C909 C915 1.429 . S
C910 C902 1.574 . S
C910 H905 0.949 . S
C910 C916 1.368 . S
C911 C895 1.349 . S
C911 H903 0.950 . S
C911 C909 1.327 . S
C912 C900 1.349 . S
C912 H906 0.950 . S
C912 C913 1.327 . S
C913 H907 0.950 . S
C913 C912 1.327 . S
C913 C917 1.429 . S
C914 C897 1.574 . S
C914 H908 0.949 . S
C914 C918 1.368 . S
C915 C896 1.429 . S
C915 C909 1.429 . S
C915 C916 1.523 . S
C916 C897 1.368 . S
C916 C910 1.368 . S
C916 C915 1.523 . S
C917 C901 1.429 . S
C917 C913 1.429 . S
C917 C918 1.523 . S
C918 C902 1.368 . S
C918 C914 1.368 . S
C918 C917 1.523 . S
H919 C894 0.950 . S
H920 C896 0.950 . S
H921 C897 0.949 . S
H922 C899 0.950 . S
H923 C901 0.950 . S
C924 C925 1.349 . S
C924 C926 1.327 . S
C924 H949 0.950 . S
C925 C924 1.349 . S
C925 C941 1.349 . S
C926 C924 1.327 . S
C926 C945 1.429 . S
C926 H950 0.950 . S
C927 C944 1.574 . S
C927 C946 1.368 . S
C927 H951 0.949 . S
H928 C932 0.949 . S
C929 C930 1.349 . S
C929 C931 1.327 . S
C929 H952 0.950 . S
C930 C929 1.349 . S
C930 C942 1.349 . S
C931 C929 1.327 . S
C931 C947 1.429 . S
C931 H953 0.950 . S
C932 H928 0.949 . S
C932 C940 1.574 . S
C932 C948 1.368 . S
H933 C941 0.950 . S
H934 C939 0.950 . S
H935 C940 0.949 . S
H936 C942 0.950 . S
H937 C943 0.950 . S
H938 C944 0.949 . S
C939 H934 0.950 . S
C939 C941 1.327 . S
C939 C945 1.429 . S
C940 C932 1.574 . S
C940 H935 0.949 . S
C940 C946 1.368 . S
C941 C925 1.349 . S
C941 H933 0.950 . S
C941 C939 1.327 . S
C942 C930 1.349 . S
C942 H936 0.950 . S
C942 C943 1.327 . S
C943 H937 0.950 . S
C943 C942 1.327 . S
C943 C947 1.429 . S
C944 C927 1.574 . S
C944 H938 0.949 . S
C944 C948 1.368 . S
C945 C926 1.429 . S
C945 C939 1.429 . S
C945 C946 1.523 . S
C946 C927 1.368 . S
C946 C940 1.368 . S
C946 C945 1.523 . S
C947 C931 1.429 . S
C947 C943 1.429 . S
C947 C948 1.523 . S
C948 C932 1.368 . S
C948 C944 1.368 . S
C948 C947 1.523 . S
H949 C924 0.950 . S
H950 C926 0.950 . S
H951 C927 0.949 . S
H952 C929 0.950 . S
H953 C931 0.950 . S
C954 C955 1.349 . S
C954 C956 1.327 . S
C954 H979 0.950 . S
C955 C954 1.349 . S
C955 C971 1.349 . S
C956 C954 1.327 . S
C956 C975 1.429 . S
C956 H980 0.950 . S
C957 C974 1.574 . S
C957 C976 1.368 . S
C957 H981 0.949 . S
H958 C962 0.949 . S
C959 C960 1.349 . S
C959 C961 1.327 . S
C959 H982 0.950 . S
C960 C959 1.349 . S
C960 C972 1.349 . S
C961 C959 1.327 . S
C961 C977 1.429 . S
C961 H983 0.950 . S
C962 H958 0.949 . S
C962 C970 1.574 . S
C962 C978 1.368 . S
H963 C971 0.950 . S
H964 C969 0.950 . S
H965 C970 0.949 . S
H966 C972 0.950 . S
H967 C973 0.950 . S
H968 C974 0.949 . S
C969 H964 0.950 . S
C969 C971 1.327 . S
C969 C975 1.429 . S
C970 C962 1.574 . S
C970 H965 0.949 . S
C970 C976 1.368 . S
C971 C955 1.349 . S
C971 H963 0.950 . S
C971 C969 1.327 . S
C972 C960 1.349 . S
C972 H966 0.950 . S
C972 C973 1.327 . S
C973 H967 0.950 . S
C973 C972 1.327 . S
C973 C977 1.429 . S
C974 C957 1.574 . S
C974 H968 0.949 . S
C974 C978 1.368 . S
C975 C956 1.429 . S
C975 C969 1.429 . S
C975 C976 1.523 . S
C976 C957 1.368 . S
C976 C970 1.368 . S
C976 C975 1.523 . S
C977 C961 1.429 . S
C977 C973 1.429 . S
C977 C978 1.523 . S
C978 C962 1.368 . S
C978 C974 1.368 . S
C978 C977 1.523 . S
H979 C954 0.950 . S
H980 C956 0.950 . S
H981 C957 0.949 . S
H982 C959 0.950 . S
H983 C961 0.950 . S
C984 C985 1.349 . S
C984 C986 1.327 . S
C984 H1009 0.950 . S
C985 C984 1.349 . S
C985 C1001 1.349 . S
C986 C984 1.327 . S
C986 C1005 1.429 . S
C986 H1010 0.950 . S
C987 C1004 1.574 . S
C987 C1006 1.368 . S
C987 H1011 0.949 . S
H988 C992 0.949 . S
C989 C990 1.349 . S
C989 C991 1.327 . S
C989 H1012 0.950 . S
C990 C989 1.349 . S
C990 C1002 1.349 . S
C991 C989 1.327 . S
C991 C1007 1.429 . S
C991 H1013 0.950 . S
C992 H988 0.949 . S
C992 C1000 1.574 . S
C992 C1008 1.368 . S
H993 C1001 0.950 . S
H994 C999 0.950 . S
H995 C1000 0.949 . S
H996 C1002 0.950 . S
H997 C1003 0.950 . S
H998 C1004 0.949 . S
C999 H994 0.950 . S
C999 C1001 1.327 . S
C999 C1005 1.429 . S
C1000 C992 1.574 . S
C1000 H995 0.949 . S
C1000 C1006 1.368 . S
C1001 C985 1.349 . S
C1001 H993 0.950 . S
C1001 C999 1.327 . S
C1002 C990 1.349 . S
C1002 H996 0.950 . S
C1002 C1003 1.327 . S
C1003 H997 0.950 . S
C1003 C1002 1.327 . S
C1003 C1007 1.429 . S
C1004 C987 1.574 . S
C1004 H998 0.949 . S
C1004 C1008 1.368 . S
C1005 C986 1.429 . S
C1005 C999 1.429 . S
C1005 C1006 1.523 . S
C1006 C987 1.368 . S
C1006 C1000 1.368 . S
C1006 C1005 1.523 . S
C1007 C991 1.429 . S
C1007 C1003 1.429 . S
C1007 C1008 1.523 1_556 S
C1008 C992 1.368 . S
C1008 C1004 1.368 . S
C1008 C1007 1.523 1_554 S
H1009 C984 0.950 . S
H1010 C986 0.950 . S
H1011 C987 0.949 . S
H1012 C989 0.950 . S
H1013 C991 0.950 . S
C1014 C1015 1.349 . S
C1014 C1016 1.327 . S
C1014 H1039 0.950 . S
C1015 C1014 1.349 . S
C1015 C1031 1.349 . S
C1016 C1014 1.327 . S
C1016 C1035 1.429 . S
C1016 H1040 0.950 . S
C1017 C1034 1.574 . S
C1017 C1036 1.368 . S
C1017 H1041 0.949 . S
H1018 C1022 0.949 . S
C1019 C1020 1.349 . S
C1019 C1021 1.327 . S
C1019 H1042 0.950 . S
C1020 C1019 1.349 . S
C1020 C1032 1.349 . S
C1021 C1019 1.327 . S
C1021 C1037 1.429 . S
C1021 H1043 0.950 . S
C1022 H1018 0.949 . S
C1022 C1030 1.574 . S
C1022 C1038 1.368 . S
H1023 C1031 0.950 . S
H1024 C1029 0.950 . S
H1025 C1030 0.949 . S
H1026 C1032 0.950 . S
H1027 C1033 0.950 . S
H1028 C1034 0.949 . S
C1029 H1024 0.950 . S
C1029 C1031 1.327 . S
C1029 C1035 1.429 . S
C1030 C1022 1.574 . S
C1030 H1025 0.949 . S
C1030 C1036 1.368 . S
C1031 C1015 1.349 . S
C1031 H1023 0.950 . S
C1031 C1029 1.327 . S
C1032 C1020 1.349 . S
C1032 H1026 0.950 . S
C1032 C1033 1.327 . S
C1033 H1027 0.950 . S
C1033 C1032 1.327 . S
C1033 C1037 1.429 . S
C1034 C1017 1.574 . S
C1034 H1028 0.949 . S
C1034 C1038 1.368 . S
C1035 C1016 1.429 . S
C1035 C1029 1.429 . S
C1035 C1036 1.523 . S
C1036 C1017 1.368 . S
C1036 C1030 1.368 . S
C1036 C1035 1.523 . S
C1037 C1021 1.429 . S
C1037 C1033 1.429 . S
C1037 C1038 1.523 . S
C1038 C1022 1.368 . S
C1038 C1034 1.368 . S
C1038 C1037 1.523 . S
H1039 C1014 0.950 . S
H1040 C1016 0.950 . S
H1041 C1017 0.949 . S
H1042 C1019 0.950 . S
H1043 C1021 0.950 . S
C330 C291 1.595 . S
C325 C8 1.549 . S
C355 C26 1.580 . S
C360 C111 1.629 . S
C385 C50 1.553 . S
C390 C158 1.563 . S
C415 C68 1.503 . S
C420 C194 1.506 . S
C450 C219 1.576 . S
C445 C80 1.529 . S
C475 C104 1.540 . S
C480 C255 1.594 . S
C505 C32 1.574 . S
C510 C147 1.629 . S
C535 C44 1.530 . S
C540 C183 1.574 . S
C565 C62 1.492 . S
C570 C230 1.491 . S
C600 C266 1.531 . S
C595 C86 1.523 1_554 S
C630 C302 1.534 . S
C625 C98 1.533 . S
C660 C122 1.552 . S
C655 C14 1.546 . S
C685 C7 1.463 . S
C690 C146 1.503 . S
C715 C25 1.479 . S
C720 C182 1.519 . S
C750 C220 1.513 . S
C745 C52 1.470 . S
C775 C70 1.474 . S
C780 C256 1.518 . S
C810 C292 1.488 . S
C805 C79 1.442 . S
C840 C112 1.472 . S
C835 C106 1.428 . S
C870 C290 1.494 . S
C865 C34 1.458 . S
C895 C43 1.458 . S
C900 C110 1.496 . S
C930 C148 1.498 . S
C925 C61 1.455 . S
C955 C88 1.469 . S
C960 C184 1.511 . S
C985 C97 1.504 . S
C990 C218 1.541 . S
C1015 C16 1.490 . S
C1020 C254 1.525 . S
