# Generated by pormake.
# Topology rtl, (3,6)-cn, num edge types: 1
# Building blocks:
#     Node 0, Type 0, BuildingBlock: KAKCAD_clean_linker_0, # of connection points: 3
#     Node 1, Type 0, BuildingBlock: KAKCAD_clean_linker_0, # of connection points: 3
#     Node 2, Type 0, BuildingBlock: KAKCAD_clean_linker_0, # of connection points: 3
#     Node 3, Type 0, BuildingBlock: KAKCAD_clean_linker_0, # of connection points: 3
#     Node 4, Type 1, BuildingBlock: KUMJIN_clean_sbu_1, # of connection points: 6
#     Node 5, Type 1, BuildingBlock: KUMJIN_clean_sbu_1, # of connection points: 6
#     Edge 6, Type (0, 1), BuildingBlock: AJUNOK_clean_linker_0, # of connection points: 2
#     Edge 7, Type (0, 1), BuildingBlock: AJUNOK_clean_linker_0, # of connection points: 2
#     Edge 8, Type (0, 1), BuildingBlock: AJUNOK_clean_linker_0, # of connection points: 2
#     Edge 9, Type (0, 1), BuildingBlock: AJUNOK_clean_linker_0, # of connection points: 2
#     Edge 10, Type (0, 1), BuildingBlock: AJUNOK_clean_linker_0, # of connection points: 2
#     Edge 11, Type (0, 1), BuildingBlock: AJUNOK_clean_linker_0, # of connection points: 2
#     Edge 12, Type (0, 1), BuildingBlock: AJUNOK_clean_linker_0, # of connection points: 2
#     Edge 13, Type (0, 1), BuildingBlock: AJUNOK_clean_linker_0, # of connection points: 2
#     Edge 14, Type (0, 1), BuildingBlock: AJUNOK_clean_linker_0, # of connection points: 2
#     Edge 15, Type (0, 1), BuildingBlock: AJUNOK_clean_linker_0, # of connection points: 2
#     Edge 16, Type (0, 1), BuildingBlock: AJUNOK_clean_linker_0, # of connection points: 2
#     Edge 17, Type (0, 1), BuildingBlock: AJUNOK_clean_linker_0, # of connection points: 2
# Relax obj value: 0.019
# Max RMSD: 0.113
# Mean RMSD: 0.068
data_MOF--net-rtl--node1-KUMJIN_clean_sbu_1--node2-KAKCAD_clean_linker_0--edge1-AJUNOK_clean_linker_0
_symmetry_space_group_name_H-M    P1
_symmetry_Int_Tables_number       1
_symmetry_cell_setting            triclinic
loop_
_symmetry_equiv_pos_as_xyz
'x, y, z'
_cell_length_a     31.414705
_cell_length_b     32.129895
_cell_length_c     28.307864
_cell_angle_alpha  77.504661
_cell_angle_beta   99.109377
_cell_angle_gamma 91.211696
loop_
_atom_site_label
_atom_site_type_symbol
_atom_site_fract_x
_atom_site_fract_y
_atom_site_fract_z
_atom_type_partial_charge
C0 C 0.13143 0.86715 0.83728 0.0
C1 C 0.12029 0.91063 0.82692 0.0
C2 C 0.14924 0.84634 0.8846 0.0
C3 C 0.15677 0.86851 0.92283 0.0
C4 C 0.14466 0.91182 0.91279 0.0
C5 C 0.12649 0.93264 0.86532 0.0
C6 C 0.17843 0.84649 0.97236 0.0
C7 C 0.21239 0.81752 0.97658 0.0
C8 C 0.23221 0.79471 0.02247 0.0
C9 C 0.21853 0.80182 0.06491 0.0
C10 C 0.18464 0.83074 0.06178 0.0
C11 C 0.16492 0.8532 0.01528 0.0
C12 C 0.16894 0.83602 0.10711 0.0
C13 C 0.16439 0.80022 0.14451 0.0
C14 C 0.15872 0.87661 0.11363 0.0
C15 C 0.14466 0.88126 0.15678 0.0
C16 C 0.14029 0.84539 0.19416 0.0
C17 C 0.26607 0.76231 0.02554 0.0
C18 C 0.26 0.7333 0.99445 0.0
C19 C 0.30446 0.76009 0.05913 0.0
C20 C 0.33648 0.7299 0.06089 0.0
C21 C 0.3306 0.70136 0.02919 0.0
C22 C 0.29179 0.70303 0.99643 0.0
C23 C 0.15033 0.80487 0.18751 0.0
H24 H 0.12703 0.8493 0.80852 0.0
H25 H 0.15727 0.81275 0.89115 0.0
H26 H 0.15005 0.92986 0.94134 0.0
H27 H 0.1173 0.96595 0.85869 0.0
H28 H 0.22382 0.81282 0.9439 0.0
H29 H 0.13801 0.87461 0.01244 0.0
H30 H 0.23385 0.78422 0.10042 0.0
H31 H 0.17125 0.76843 0.14037 0.0
H32 H 0.16237 0.90485 0.08577 0.0
H33 H 0.1379 0.91297 0.16125 0.0
H34 H 0.23035 0.73367 0.96891 0.0
H35 H 0.31005 0.78218 0.08338 0.0
H36 H 0.14687 0.77662 0.21545 0.0
H37 H 0.28579 0.68062 0.9726 0.0
H38 H 0.36609 0.72927 0.08654 0.0
C39 C 0.59968 0.65967 0.76857 0.0
C40 C 0.62721 0.64344 0.81265 0.0
C41 C 0.61657 0.67617 0.72562 0.0
C42 C 0.66137 0.67716 0.72589 0.0
C43 C 0.68898 0.6624 0.77038 0.0
C44 C 0.67203 0.64532 0.81329 0.0
C45 C 0.6789 0.69028 0.67918 0.0
C46 C 0.71252 0.7198 0.67451 0.0
C47 C 0.72948 0.73115 0.63035 0.0
C48 C 0.71277 0.71211 0.59111 0.0
C49 C 0.67924 0.68249 0.59514 0.0
C50 C 0.66234 0.67213 0.63926 0.0
C51 C 0.6623 0.66193 0.55362 0.0
C52 C 0.65726 0.68533 0.50486 0.0
C53 C 0.65152 0.61848 0.56241 0.0
C54 C 0.63617 0.59897 0.52353 0.0
C55 C 0.63144 0.62236 0.47495 0.0
C56 C 0.7642 0.76329 0.62445 0.0
C57 C 0.76162 0.80191 0.63962 0.0
C58 C 0.79912 0.75646 0.60135 0.0
C59 C 0.83031 0.78775 0.59287 0.0
C60 C 0.82738 0.82667 0.60726 0.0
C61 C 0.79273 0.83334 0.63088 0.0
C62 C 0.64223 0.66569 0.46596 0.0
H63 H 0.56501 0.65808 0.76691 0.0
H64 H 0.59455 0.68744 0.69187 0.0
H65 H 0.72362 0.66245 0.77153 0.0
H66 H 0.6939 0.63289 0.84684 0.0
H67 H 0.72542 0.73388 0.70521 0.0
H68 H 0.63634 0.64952 0.6428 0.0
H69 H 0.726 0.72042 0.55725 0.0
H70 H 0.6646 0.71896 0.49669 0.0
H71 H 0.65577 0.59922 0.59933 0.0
H72 H 0.62888 0.5653 0.5314 0.0
H73 H 0.73479 0.8084 0.65684 0.0
H74 H 0.80232 0.72686 0.58972 0.0
H75 H 0.63873 0.68443 0.4288 0.0
H76 H 0.78898 0.86332 0.64148 0.0
H77 H 0.8568 0.78149 0.575 0.0
C78 C 0.82341 0.09041 0.26053 0.0
C79 C 0.86857 0.08748 0.26864 0.0
C80 C 0.80108 0.10473 0.21307 0.0
C81 C 0.82364 0.11617 0.17307 0.0
C82 C 0.86873 0.1113 0.18128 0.0
C83 C 0.89089 0.09684 0.2285 0.0
C84 C 0.80084 0.13566 0.12337 0.0
C85 C 0.76898 0.16703 0.11723 0.0
C86 C 0.74865 0.18803 0.07025 0.0
C87 C 0.76289 0.17803 0.0289 0.0
C88 C 0.79675 0.14841 0.03474 0.0
C89 C 0.81388 0.12606 0.08194 0.0
C90 C 0.81771 0.14305 0.99284 0.0
C91 C 0.79367 0.13837 0.94802 0.0
C92 C 0.86301 0.14153 0.99855 0.0
C93 C 0.8838 0.13363 0.96141 0.0
C94 C 0.85994 0.12752 0.91731 0.0
C95 C 0.7154 0.22235 0.06546 0.0
C96 C 0.69263 0.22344 0.10436 0.0
C97 C 0.7078 0.25586 0.02367 0.0
C98 C 0.6796 0.28956 0.02164 0.0
C99 C 0.65954 0.29206 0.0621 0.0
C100 C 0.6666 0.25834 0.10348 0.0
C101 C 0.81468 0.13062 0.91046 0.0
H102 H 0.80558 0.08318 0.29102 0.0
H103 H 0.76628 0.10762 0.20776 0.0
H104 H 0.8872 0.12023 0.1515 0.0
H105 H 0.92573 0.09414 0.23384 0.0
H106 H 0.76195 0.17642 0.14964 0.0
H107 H 0.83865 0.10191 0.08647 0.0
H108 H 0.74903 0.19404 0.99221 0.0
H109 H 0.75877 0.13942 0.94258 0.0
H110 H 0.88255 0.14618 0.0321 0.0
H111 H 0.91872 0.13211 0.96726 0.0
H112 H 0.69542 0.19786 0.13657 0.0
H113 H 0.72441 0.25725 0.99275 0.0
H114 H 0.79561 0.12587 0.87671 0.0
H115 H 0.65335 0.25909 0.13627 0.0
H116 H 0.67442 0.31424 0.98847 0.0
C117 C 0.36051 0.37448 0.2814 0.0
C118 C 0.40102 0.394 0.28433 0.0
C119 C 0.34222 0.35894 0.32384 0.0
C120 C 0.36416 0.3624 0.37023 0.0
C121 C 0.40556 0.38024 0.37315 0.0
C122 C 0.42374 0.39579 0.3308 0.0
C123 C 0.34293 0.3501 0.41488 0.0
C124 C 0.31745 0.31319 0.42264 0.0
C125 C 0.29492 0.30327 0.4631 0.0
C126 C 0.29818 0.33152 0.49518 0.0
C127 C 0.32484 0.36714 0.48944 0.0
C128 C 0.34711 0.37629 0.44934 0.0
C129 C 0.3299 0.39368 0.52682 0.0
C130 C 0.29342 0.40761 0.54236 0.0
C131 C 0.37104 0.40127 0.55084 0.0
C132 C 0.37553 0.42045 0.5913 0.0
C133 C 0.33894 0.43294 0.60804 0.0
C134 C 0.26729 0.26436 0.47214 0.0
C135 C 0.24726 0.24606 0.43349 0.0
C136 C 0.25914 0.24603 0.51984 0.0
C137 C 0.2291 0.21361 0.52791 0.0
C138 C 0.20755 0.19676 0.48897 0.0
C139 C 0.21871 0.21212 0.44202 0.0
C140 C 0.2979 0.42712 0.58241 0.0
H141 H 0.34228 0.37259 0.2461 0.0
H142 H 0.31018 0.34571 0.32008 0.0
H143 H 0.42386 0.38259 0.40825 0.0
H144 H 0.45552 0.40964 0.33436 0.0
H145 H 0.31596 0.29204 0.39745 0.0
H146 H 0.36653 0.40472 0.44423 0.0
H147 H 0.28013 0.32596 0.52543 0.0
H148 H 0.26133 0.4024 0.52424 0.0
H149 H 0.39965 0.39034 0.53996 0.0
H150 H 0.40757 0.42371 0.61076 0.0
H151 H 0.25248 0.25845 0.39621 0.0
H152 H 0.27534 0.25701 0.55146 0.0
H153 H 0.26912 0.43684 0.59402 0.0
H154 H 0.20498 0.19846 0.41137 0.0
H155 H 0.22208 0.20261 0.56475 0.0
Eu156 Eu 0.04421 0.97657 0.51423 0.0
C157 C 0.95962 0.14811 0.49227 0.0
N158 N 0.99177 0.13074 0.52879 0.0
C159 C 0.03138 0.19576 0.51422 0.0
C160 C 0.96321 0.18935 0.46343 0.0
C161 C 0.02597 0.15498 0.54217 0.0
C162 C 1.00033 0.21266 0.47393 0.0
C163 C 0.88617 0.1442 0.45138 0.0
C164 C 0.9215 0.12604 0.48646 0.0
C165 C 0.89057 0.18405 0.42041 0.0
C166 C 0.929 0.20664 0.4265 0.0
Eu167 Eu 0.9816 0.05953 0.57034 0.0
N168 N 0.91819 0.08773 0.51707 0.0
C169 C 0.84707 0.12238 0.44966 0.0
C170 C 0.87931 0.0679 0.51828 0.0
C171 C 0.84341 0.08445 0.48387 0.0
H172 H 0.04947 0.14285 0.57425 0.0
H173 H 0.81302 0.06794 0.48369 0.0
H174 H 0.00875 0.88184 0.56822 0.0
H175 H 0.21033 0.03364 0.52325 0.0
H176 H 0.87682 0.03829 0.54447 0.0
H177 H 0.81919 0.13521 0.42314 0.0
H178 H 0.13412 0.03058 0.48639 0.0
H179 H 0.05934 0.21422 0.52396 0.0
H180 H 0.864 0.19829 0.39274 0.0
H181 H 0.93144 0.238 0.40349 0.0
H182 H 0.03474 0.82091 0.63603 0.0
H183 H 1.00443 0.24437 0.45253 0.0
H184 H 0.23971 0.98097 0.59834 0.0
N185 N 0.06766 0.91534 0.57543 0.0
C186 C 0.1092 0.91476 0.59797 0.0
C187 C 0.05593 0.84719 0.62585 0.0
C188 C 0.1253 0.88092 0.63703 0.0
C189 C 0.04132 0.88162 0.58753 0.0
C190 C 0.09792 0.8471 0.65117 0.0
N191 N 0.11924 0.97939 0.54268 0.0
C192 C 0.14604 0.00843 0.5202 0.0
C193 C 0.17925 0.94792 0.60317 0.0
C194 C 0.13559 0.94808 0.58152 0.0
C195 C 0.20599 0.97996 0.58281 0.0
C196 C 0.18951 0.00978 0.54049 0.0
H197 H 0.10907 0.82052 0.68105 0.0
H198 H 0.181 0.85627 0.69074 0.0
H199 H 0.22839 0.91478 0.66085 0.0
O200 O 0.08075 0.95674 0.46306 0.0
O201 O 0.03783 0.96488 0.59514 0.0
O202 O 0.04539 0.03108 0.6116 0.0
O203 O 0.01388 0.93974 0.46166 0.0
O204 O 0.06058 0.04715 0.49508 0.0
O205 O 0.0533 0.0698 0.56519 0.0
O206 O 0.95501 0.0371 0.638 0.0
O207 O 0.95254 0.03886 0.50063 0.0
O208 O 0.01194 0.03609 0.46489 0.0
O209 O 0.9651 0.10415 0.61315 0.0
O210 O 0.95608 0.99154 0.58325 0.0
O211 O 0.97562 0.95669 0.52504 0.0
C212 C 0.05162 0.98983 0.62514 0.0
C213 C 0.05908 0.8953 0.43325 0.0
C214 C 0.08322 0.85551 0.37774 0.0
C215 C 0.08005 0.81746 0.41246 0.0
C216 C 0.05573 0.85701 0.46725 0.0
C217 C 0.06631 0.8183 0.45687 0.0
C218 C 0.07293 0.89441 0.38868 0.0
C219 C 0.0717 0.07218 0.526 0.0
C220 C 0.04884 0.93668 0.44325 0.0
C221 C 0.16815 0.88173 0.66028 0.0
C222 C 0.19509 0.91513 0.64335 0.0
C223 C 0.97074 0.04353 0.4615 0.0
C224 C 0.97267 0.07745 0.69808 0.0
C225 C 0.96277 0.08919 0.77788 0.0
C226 C 0.00739 0.08289 0.79388 0.0
C227 C 0.01709 0.0716 0.71443 0.0
C228 C 0.94562 0.086 0.72983 0.0
C229 C 0.0343 0.07411 0.76228 0.0
C230 C 0.95263 0.95998 0.55952 0.0
C231 C 0.9541 0.07461 0.64806 0.0
H232 H 0.0877 0.78703 0.405 0.0
H233 H 0.04498 0.857 0.50164 0.0
H234 H 0.06372 0.78881 0.48325 0.0
H235 H 0.07613 0.92412 0.36274 0.0
H236 H 0.02151 0.08521 0.83068 0.0
H237 H 0.03832 0.06518 0.69018 0.0
H238 H 0.9112 0.08972 0.71722 0.0
H239 H 0.06859 0.06944 0.77484 0.0
Eu240 Eu 0.47275 0.48616 0.99106 0.0
C241 C 0.64139 0.56403 0.04715 0.0
N242 N 0.62521 0.52789 0.07257 0.0
C243 C 0.69073 0.49004 0.07449 0.0
C244 C 0.68199 0.56377 0.03189 0.0
C245 C 0.65038 0.49194 0.08895 0.0
C246 C 0.70621 0.52582 0.04492 0.0
C247 C 0.63459 0.64033 0.01361 0.0
C248 C 0.61824 0.60199 0.03834 0.0
C249 C 0.67404 0.63975 0.99635 0.0
C250 C 0.69768 0.60156 1.00546 0.0
Eu251 Eu 0.55507 0.53444 0.09176 0.0
N252 N 0.57947 0.60138 0.05395 0.0
C253 C 0.61093 0.67813 0.00737 0.0
C254 C 0.55715 0.63826 0.05014 0.0
C255 C 0.57235 0.67717 0.02636 0.0
H256 H 0.63991 0.46465 0.11372 0.0
H257 H 0.55416 0.7063 0.02229 0.0
H258 H 0.37704 0.52031 1.00658 0.0
H259 H 0.52186 0.3252 0.9859 0.0
H260 H 0.5271 0.63727 0.06441 0.0
H261 H 0.62241 0.70825 0.98854 0.0
H262 H 0.5257 0.40375 0.96955 0.0
H263 H 0.71005 0.46108 0.08659 0.0
H264 H 0.6869 0.66878 0.97668 0.0
H265 H 0.72854 0.60179 0.9929 0.0
H266 H 0.31048 0.48983 0.0361 0.0
H267 H 0.73756 0.52429 0.03397 0.0
H268 H 0.46237 0.28841 0.02519 0.0
N269 N 0.40753 0.45991 0.01685 0.0
C270 C 0.40365 0.41689 0.02832 0.0
C271 C 0.33654 0.46898 0.03438 0.0
C272 C 0.36641 0.39811 0.04529 0.0
C273 C 0.37406 0.48613 0.01758 0.0
C274 C 0.33293 0.42479 0.04895 0.0
N275 N 0.47077 0.41107 1.00251 0.0
C276 C 0.50024 0.38795 0.9879 0.0
C277 C 0.43247 0.34701 0.03052 0.0
C278 C 0.43641 0.39173 0.02131 0.0
C279 C 0.46421 0.32285 0.01869 0.0
C280 C 0.49783 0.34349 0.99648 0.0
H281 H 0.30379 0.41158 0.06186 0.0
H282 H 0.33521 0.33843 0.07053 0.0
H283 H 0.39299 0.29365 0.05739 0.0
O284 O 0.45212 0.46531 0.92246 0.0
O285 O 0.4548 0.47975 0.06758 0.0
O286 O 0.51958 0.4744 0.12004 0.0
O287 O 0.44484 0.53146 0.92459 0.0
O288 O 0.54254 0.46367 0.01146 0.0
O289 O 0.5631 0.46367 0.09309 0.0
O290 O 0.54018 0.56355 0.15037 0.0
O291 O 0.53958 0.56723 0.01093 0.0
O292 O 0.53817 0.51041 0.9755 0.0
O293 O 0.6029 0.53544 0.15653 0.0
O294 O 0.48614 0.55909 0.07863 0.0
O295 O 0.45626 0.55233 0.99978 0.0
C296 C 0.47794 0.4679 0.11132 0.0
C297 C 0.39538 0.50387 0.86682 0.0
C298 C 0.35295 0.49156 0.79111 0.0
C299 C 0.31558 0.50426 0.80606 0.0
C300 C 0.35781 0.51691 0.88089 0.0
C301 C 0.31812 0.51699 0.8506 0.0
C302 C 0.39279 0.49131 0.8219 0.0
C303 C 0.56134 0.44525 0.05555 0.0
C304 C 0.43757 0.50268 0.89828 0.0
C305 C 0.36338 0.35349 0.05694 0.0
C306 C 0.39633 0.32799 0.04955 0.0
C307 C 0.54818 0.55006 0.97554 0.0
C308 C 0.57448 0.53116 0.22942 0.0
C309 C 0.58084 0.53414 0.31569 0.0
C310 C 0.56994 0.49079 0.3267 0.0
C311 C 0.56374 0.48794 0.24113 0.0
C312 C 0.58295 0.55413 0.26669 0.0
C313 C 0.56124 0.46799 0.28954 0.0
C314 C 0.45815 0.57015 0.03795 0.0
C315 C 0.57682 0.55255 0.1785 0.0
H316 H 0.28449 0.50469 0.78305 0.0
H317 H 0.35912 0.52702 0.91513 0.0
H318 H 0.28921 0.52697 0.86167 0.0
H319 H 0.42173 0.48074 0.81128 0.0
H320 H 0.56899 0.47424 0.36414 0.0
H321 H 0.55722 0.4697 0.21286 0.0
H322 H 0.59109 0.58757 0.2575 0.0
H323 H 0.55289 0.43465 0.29837 0.0
C324 C 0.17585 0.13355 0.54185 0.0
C325 C 0.17279 0.16444 0.49745 0.0
C326 C 0.14262 0.10441 0.55141 0.0
C327 C 0.10584 0.10386 0.51624 0.0
H328 H 0.2042 0.13158 0.56954 0.0
H329 H 0.14624 0.08141 0.58604 0.0
S330 S 0.07971 0.17894 0.39626 0.0
N331 N 0.12706 0.19447 0.42015 0.0
N332 N 0.0673 0.13692 0.43646 0.0
C333 C 0.10234 0.13396 0.47185 0.0
C334 C 0.13513 0.16483 0.46283 0.0
C335 C 0.38358 0.64406 0.0758 0.0
C336 C 0.36449 0.66937 0.0307 0.0
C337 C 0.41426 0.61238 0.07788 0.0
C338 C 0.42678 0.60469 0.03492 0.0
H339 H 0.37408 0.64815 0.10968 0.0
H340 H 0.42754 0.59321 0.11337 0.0
S341 S 0.38991 0.66534 0.9081 0.0
N342 N 0.36292 0.68697 0.94245 0.0
N343 N 0.42 0.62705 0.94624 0.0
C344 C 0.40874 0.6305 0.98969 0.0
C345 C 0.37776 0.66291 0.98761 0.0
C346 C 0.87186 0.8712 0.54928 0.0
C347 C 0.85974 0.86058 0.59623 0.0
C348 C 0.90195 0.90325 0.53772 0.0
C349 C 0.9209 0.9262 0.57253 0.0
H350 H 0.85755 0.85497 0.52097 0.0
H351 H 0.90995 0.91045 0.501 0.0
S352 S 0.90333 0.90812 0.70206 0.0
N353 N 0.87137 0.87372 0.67867 0.0
N354 N 0.92734 0.93426 0.65687 0.0
C355 C 0.90958 0.9155 0.61983 0.0
C356 C 0.87915 0.88269 0.63167 0.0
C357 C 0.64563 0.37123 0.03689 0.0
C358 C 0.63365 0.3308 0.06188 0.0
C359 C 0.62221 0.40817 0.03537 0.0
C360 C 0.58733 0.40664 0.06094 0.0
H361 H 0.67345 0.37471 0.01826 0.0
H362 H 0.63163 0.43826 0.01421 0.0
S363 S 0.5405 0.31044 0.13015 0.0
N364 N 0.58122 0.29217 0.10973 0.0
N365 N 0.54076 0.36275 0.11115 0.0
C366 C 0.57524 0.36724 0.08698 0.0
C367 C 0.59758 0.32908 0.08653 0.0
C368 C 0.14856 0.82865 0.28585 0.0
C369 C 0.12576 0.84981 0.24038 0.0
C370 C 0.13477 0.83092 0.32998 0.0
C371 C 0.09764 0.85448 0.33042 0.0
H372 H 0.17744 0.81026 0.28735 0.0
H373 H 0.15347 0.81426 0.36409 0.0
S374 S 0.02514 0.9138 0.22131 0.0
N375 N 0.0634 0.89393 0.19846 0.0
N376 N 0.03748 0.89824 0.28142 0.0
C377 C 0.07452 0.87581 0.28525 0.0
C378 C 0.08858 0.87348 0.24027 0.0
C379 C 0.62091 0.57901 0.87887 0.0
C380 C 0.60895 0.62157 0.85668 0.0
C381 C 0.60104 0.55609 0.91739 0.0
C382 C 0.56914 0.57518 0.93564 0.0
H383 H 0.64486 0.56291 0.86536 0.0
H384 H 0.61078 0.52321 0.93307 0.0
S385 S 0.52754 0.68616 0.89175 0.0
N386 N 0.56403 0.68221 0.85678 0.0
N387 N 0.527 0.63917 0.92949 0.0
C388 C 0.55769 0.61797 0.91474 0.0
C389 C 0.57749 0.64115 0.87513 0.0
C390 C 0.88439 0.04056 0.35285 0.0
C391 C 0.893 0.07746 0.31889 0.0
C392 C 0.90946 0.02991 0.39957 0.0
C393 C 0.94401 0.05559 0.41316 0.0
H394 H 0.85881 0.01944 0.34288 0.0
H395 H 0.90245 1.001 0.42478 0.0
S396 S 0.97461 0.15885 0.34075 0.0
N397 N 0.9346 0.14227 0.30446 0.0
N398 N 0.98235 0.12141 0.39154 0.0
C399 C 0.95167 0.09324 0.38036 0.0
C400 C 0.92593 0.10442 0.33334 0.0
C401 C 0.31663 0.43257 0.6893 0.0
C402 C 0.34307 0.44917 0.65402 0.0
C403 C 0.31996 0.44658 0.7333 0.0
C404 C 0.35005 0.47757 0.74399 0.0
H405 H 0.29353 0.40802 0.68322 0.0
H406 H 0.29922 0.43257 0.75952 0.0
S407 S 0.42498 0.53321 0.66294 0.0
N408 N 0.39902 0.49982 0.63197 0.0
N409 N 0.40561 0.52576 0.71504 0.0
C410 C 0.37651 0.49469 0.70904 0.0
C411 C 0.37297 0.48058 0.66403 0.0
C412 C 0.64133 0.6042 0.3957 0.0
C413 C 0.61669 0.60121 0.43364 0.0
C414 C 0.62917 0.58292 0.35742 0.0
C415 C 0.59176 0.55801 0.35547 0.0
H416 H 0.67082 0.62231 0.39625 0.0
H417 H 0.64979 0.5852 0.32973 0.0
S418 S 0.51372 0.54378 0.44319 0.0
N419 N 0.55174 0.57384 0.46531 0.0
N420 N 0.52844 0.53435 0.39297 0.0
C421 C 0.56615 0.55584 0.39246 0.0
C422 C 0.57871 0.5773 0.4316 0.0
C423 C 0.91333 0.0829 0.89316 0.0
C424 C 0.88304 0.11669 0.87969 0.0
C425 C 0.93841 0.0739 0.8598 0.0
C426 C 0.93431 0.09845 0.81168 0.0
H427 H 0.91792 0.06345 0.93002 0.0
H428 H 0.96132 0.04756 0.87186 0.0
S429 S 0.86043 0.19126 0.7587 0.0
N430 N 0.85045 0.175 0.8153 0.0
N431 N 0.89799 0.15851 0.75247 0.0
C432 C 0.90375 0.13208 0.79754 0.0
C433 C 0.87801 0.14108 0.83156 0.0
C434 C 0.42128 0.39076 0.20235 0.0
C435 C 0.41909 0.41373 0.23911 0.0
C436 C 0.43964 0.40866 0.16035 0.0
C437 C 0.45604 0.4502 0.15361 0.0
H438 H 0.40966 0.35838 0.20663 0.0
H439 H 0.44197 0.38955 0.13368 0.0
S440 S 0.45348 0.52549 0.23547 0.0
N441 N 0.43202 0.48152 0.26361 0.0
N442 N 0.46593 0.51491 0.18473 0.0
C443 C 0.45275 0.47392 0.18906 0.0
C444 C 0.4344 0.45577 0.23179 0.0
C445 C 0.06992 0.91273 0.74838 0.0
C446 C 0.10233 0.93246 0.77598 0.0
C447 C 0.0537 0.93153 0.6996 0.0
C448 C 0.06912 0.97087 0.67662 0.0
H449 H 0.05685 0.88251 0.76468 0.0
H450 H 0.0286 0.9153 0.67991 0.0
S451 S 0.15535 0.03456 0.73125 0.0
N452 N 0.15044 0.99284 0.77573 0.0
N453 N 0.11944 0.02835 0.68407 0.0
C454 C 0.10144 0.991 0.70353 0.0
C455 C 0.11814 0.97179 0.7532 0.0
loop_
_geom_bond_atom_site_label_1
_geom_bond_atom_site_label_2
_geom_bond_distance
_geom_bond_site_symmetry_2
_ccdc_geom_bond_type
C0 C1 1.386 . S
C0 C2 1.397 . S
C0 H24 0.931 . S
C1 C0 1.386 . S
C1 C5 1.397 . S
C2 C0 1.397 . S
C2 C3 1.384 . S
C2 H25 0.930 . S
C3 C2 1.384 . S
C3 C4 1.377 . S
C3 C6 1.481 . S
C4 C3 1.377 . S
C4 C5 1.389 . S
C4 H26 0.929 . S
C5 C1 1.397 . S
C5 C4 1.389 . S
C5 H27 0.931 1_565 S
C6 C3 1.481 . S
C6 C7 1.387 . S
C6 C11 1.390 1_556 S
C7 C6 1.387 . S
C7 C8 1.401 1_556 S
C7 H28 0.930 . S
C8 C7 1.401 1_554 S
C8 C9 1.376 . S
C8 C17 1.511 . S
C9 C8 1.376 . S
C9 C10 1.392 . S
C9 H30 0.931 . S
C10 C9 1.392 . S
C10 C11 1.361 . S
C10 C12 1.500 . S
C11 C6 1.390 1_554 S
C11 C10 1.361 . S
C11 H29 0.931 . S
C12 C10 1.500 . S
C12 C13 1.371 . S
C12 C14 1.365 . S
C13 C12 1.371 . S
C13 C23 1.386 . S
C13 H31 0.931 . S
C14 C12 1.365 . S
C14 C15 1.409 . S
C14 H32 0.929 . S
C15 C14 1.409 . S
C15 C16 1.380 . S
C15 H33 0.930 . S
C16 C15 1.380 . S
C16 C23 1.357 . S
C17 C8 1.511 . S
C17 C18 1.341 1_554 S
C17 C19 1.371 . S
C18 C17 1.341 1_556 S
C18 C22 1.394 1_556 S
C18 H34 0.930 . S
C19 C17 1.371 . S
C19 C20 1.392 . S
C19 H35 0.931 . S
C20 C19 1.392 . S
C20 C21 1.331 . S
C20 H38 0.932 . S
C21 C20 1.331 . S
C21 C22 1.336 . S
C22 C18 1.394 1_554 S
C22 C21 1.336 . S
C22 H37 0.929 1_554 S
C23 C13 1.386 . S
C23 C16 1.357 . S
C23 H36 0.928 . S
H24 C0 0.931 . S
H25 C2 0.930 . S
H26 C4 0.929 . S
H27 C5 0.931 1_545 S
H28 C7 0.930 . S
H29 C11 0.931 . S
H30 C9 0.931 . S
H31 C13 0.931 . S
H32 C14 0.929 . S
H33 C15 0.930 . S
H34 C18 0.930 . S
H35 C19 0.931 . S
H36 C23 0.928 . S
H37 C22 0.929 1_556 S
H38 C20 0.932 . S
C39 C40 1.386 . S
C39 C41 1.397 . S
C39 H63 0.931 . S
C40 C39 1.386 . S
C40 C44 1.397 . S
C41 C39 1.397 . S
C41 C42 1.384 . S
C41 H64 0.930 . S
C42 C41 1.384 . S
C42 C43 1.377 . S
C42 C45 1.481 . S
C43 C42 1.377 . S
C43 C44 1.389 . S
C43 H65 0.929 . S
C44 C40 1.397 . S
C44 C43 1.389 . S
C44 H66 0.931 . S
C45 C42 1.481 . S
C45 C46 1.387 . S
C45 C50 1.390 . S
C46 C45 1.387 . S
C46 C47 1.401 . S
C46 H67 0.930 . S
C47 C46 1.401 . S
C47 C48 1.376 . S
C47 C56 1.511 . S
C48 C47 1.376 . S
C48 C49 1.392 . S
C48 H69 0.931 . S
C49 C48 1.392 . S
C49 C50 1.361 . S
C49 C51 1.500 . S
C50 C45 1.390 . S
C50 C49 1.361 . S
C50 H68 0.931 . S
C51 C49 1.500 . S
C51 C52 1.371 . S
C51 C53 1.365 . S
C52 C51 1.371 . S
C52 C62 1.386 . S
C52 H70 0.931 . S
C53 C51 1.365 . S
C53 C54 1.409 . S
C53 H71 0.929 . S
C54 C53 1.409 . S
C54 C55 1.380 . S
C54 H72 0.930 . S
C55 C54 1.380 . S
C55 C62 1.357 . S
C56 C47 1.511 . S
C56 C57 1.341 . S
C56 C58 1.371 . S
C57 C56 1.341 . S
C57 C61 1.394 . S
C57 H73 0.930 . S
C58 C56 1.371 . S
C58 C59 1.392 . S
C58 H74 0.931 . S
C59 C58 1.392 . S
C59 C60 1.331 . S
C59 H77 0.932 . S
C60 C59 1.331 . S
C60 C61 1.336 . S
C61 C57 1.394 . S
C61 C60 1.336 . S
C61 H76 0.929 . S
C62 C52 1.386 . S
C62 C55 1.357 . S
C62 H75 0.928 . S
H63 C39 0.931 . S
H64 C41 0.930 . S
H65 C43 0.929 . S
H66 C44 0.931 . S
H67 C46 0.930 . S
H68 C50 0.931 . S
H69 C48 0.931 . S
H70 C52 0.931 . S
H71 C53 0.929 . S
H72 C54 0.930 . S
H73 C57 0.930 . S
H74 C58 0.931 . S
H75 C62 0.928 . S
H76 C61 0.929 . S
H77 C59 0.932 . S
C78 C79 1.386 . S
C78 C80 1.397 . S
C78 H102 0.931 . S
C79 C78 1.386 . S
C79 C83 1.397 . S
C80 C78 1.397 . S
C80 C81 1.384 . S
C80 H103 0.930 . S
C81 C80 1.384 . S
C81 C82 1.377 . S
C81 C84 1.481 . S
C82 C81 1.377 . S
C82 C83 1.389 . S
C82 H104 0.929 . S
C83 C79 1.397 . S
C83 C82 1.389 . S
C83 H105 0.931 . S
C84 C81 1.481 . S
C84 C85 1.387 . S
C84 C89 1.390 . S
C85 C84 1.387 . S
C85 C86 1.401 . S
C85 H106 0.930 . S
C86 C85 1.401 . S
C86 C87 1.376 . S
C86 C95 1.511 . S
C87 C86 1.376 . S
C87 C88 1.392 . S
C87 H108 0.931 1_554 S
C88 C87 1.392 . S
C88 C89 1.361 . S
C88 C90 1.500 1_554 S
C89 C84 1.390 . S
C89 C88 1.361 . S
C89 H107 0.931 . S
C90 C88 1.500 1_556 S
C90 C91 1.371 . S
C90 C92 1.365 . S
C91 C90 1.371 . S
C91 C101 1.386 . S
C91 H109 0.931 . S
C92 C90 1.365 . S
C92 C93 1.409 . S
C92 H110 0.929 1_556 S
C93 C92 1.409 . S
C93 C94 1.380 . S
C93 H111 0.930 . S
C94 C93 1.380 . S
C94 C101 1.357 . S
C95 C86 1.511 . S
C95 C96 1.341 . S
C95 C97 1.371 . S
C96 C95 1.341 . S
C96 C100 1.394 . S
C96 H112 0.930 . S
C97 C95 1.371 . S
C97 C98 1.392 1_554 S
C97 H113 0.931 1_554 S
C98 C97 1.392 1_556 S
C98 C99 1.332 1_556 S
C98 H116 0.931 . S
C99 C98 1.332 1_554 S
C99 C100 1.336 . S
C100 C96 1.394 . S
C100 C99 1.336 . S
C100 H115 0.929 . S
C101 C91 1.386 . S
C101 C94 1.357 . S
C101 H114 0.928 . S
H102 C78 0.931 . S
H103 C80 0.930 . S
H104 C82 0.929 . S
H105 C83 0.931 . S
H106 C85 0.930 . S
H107 C89 0.931 . S
H108 C87 0.931 1_556 S
H109 C91 0.931 . S
H110 C92 0.929 1_554 S
H111 C93 0.930 . S
H112 C96 0.930 . S
H113 C97 0.931 1_556 S
H114 C101 0.928 . S
H115 C100 0.929 . S
H116 C98 0.931 . S
C117 C118 1.386 . S
C117 C119 1.397 . S
C117 H141 0.931 . S
C118 C117 1.386 . S
C118 C122 1.397 . S
C119 C117 1.397 . S
C119 C120 1.384 . S
C119 H142 0.930 . S
C120 C119 1.384 . S
C120 C121 1.377 . S
C120 C123 1.481 . S
C121 C120 1.377 . S
C121 C122 1.389 . S
C121 H143 0.929 . S
C122 C118 1.397 . S
C122 C121 1.389 . S
C122 H144 0.931 . S
C123 C120 1.481 . S
C123 C124 1.387 . S
C123 C128 1.390 . S
C124 C123 1.387 . S
C124 C125 1.401 . S
C124 H145 0.930 . S
C125 C124 1.401 . S
C125 C126 1.376 . S
C125 C134 1.511 . S
C126 C125 1.376 . S
C126 C127 1.392 . S
C126 H147 0.931 . S
C127 C126 1.392 . S
C127 C128 1.361 . S
C127 C129 1.500 . S
C128 C123 1.390 . S
C128 C127 1.361 . S
C128 H146 0.931 . S
C129 C127 1.500 . S
C129 C130 1.371 . S
C129 C131 1.365 . S
C130 C129 1.371 . S
C130 C140 1.386 . S
C130 H148 0.931 . S
C131 C129 1.365 . S
C131 C132 1.409 . S
C131 H149 0.929 . S
C132 C131 1.409 . S
C132 C133 1.380 . S
C132 H150 0.930 . S
C133 C132 1.380 . S
C133 C140 1.357 . S
C134 C125 1.511 . S
C134 C135 1.341 . S
C134 C136 1.371 . S
C135 C134 1.341 . S
C135 C139 1.394 . S
C135 H151 0.930 . S
C136 C134 1.371 . S
C136 C137 1.392 . S
C136 H152 0.931 . S
C137 C136 1.392 . S
C137 C138 1.331 . S
C137 H155 0.932 . S
C138 C137 1.331 . S
C138 C139 1.336 . S
C139 C135 1.394 . S
C139 C138 1.336 . S
C139 H154 0.929 . S
C140 C130 1.386 . S
C140 C133 1.357 . S
C140 H153 0.928 . S
H141 C117 0.931 . S
H142 C119 0.930 . S
H143 C121 0.929 . S
H144 C122 0.931 . S
H145 C124 0.930 . S
H146 C128 0.931 . S
H147 C126 0.931 . S
H148 C130 0.931 . S
H149 C131 0.929 . S
H150 C132 0.930 . S
H151 C135 0.930 . S
H152 C136 0.931 . S
H153 C140 0.928 . S
H154 C139 0.929 . S
H155 C137 0.932 . S
Eu156 N185 2.600 . S
Eu156 N191 2.562 . S
Eu156 O200 2.462 . S
Eu156 O201 2.373 . S
Eu156 O203 2.432 . S
Eu156 O204 2.291 1_565 S
Eu156 O208 2.335 1_465 S
Eu156 O211 2.372 1_455 S
Eu156 C220 2.787 . S
C157 N158 1.365 . S
C157 C160 1.405 . S
C157 C164 1.448 . S
N158 C157 1.365 . S
N158 C161 1.319 . S
N158 Eu167 2.600 . S
C159 C161 1.397 . S
C159 C162 1.367 . S
C159 H179 0.931 1_655 S
C160 C157 1.405 . S
C160 C162 1.403 . S
C160 C166 1.439 . S
C161 N158 1.319 . S
C161 C159 1.397 . S
C161 H172 0.930 1_655 S
C162 C159 1.367 . S
C162 C160 1.403 . S
C162 H183 0.929 . S
C163 C164 1.430 . S
C163 C165 1.387 . S
C163 C169 1.404 . S
C164 C157 1.448 . S
C164 C163 1.430 . S
C164 N168 1.351 . S
C165 C163 1.387 . S
C165 C166 1.374 . S
C165 H180 0.931 . S
C166 C160 1.439 . S
C166 C165 1.374 . S
C166 H181 0.931 . S
Eu167 N158 2.600 . S
Eu167 N168 2.562 . S
Eu167 O202 2.335 1_655 S
Eu167 O205 2.372 1_655 S
Eu167 O206 2.462 . S
Eu167 O207 2.373 . S
Eu167 O209 2.432 . S
Eu167 O210 2.291 1_545 S
Eu167 C231 2.787 . S
N168 C164 1.351 . S
N168 Eu167 2.562 . S
N168 C170 1.325 . S
C169 C163 1.404 . S
C169 C171 1.366 . S
C169 H177 0.930 . S
C170 N168 1.325 . S
C170 C171 1.416 . S
C170 H176 0.929 . S
C171 C169 1.366 . S
C171 C170 1.416 . S
C171 H173 0.930 . S
H172 C161 0.930 1_455 S
H173 C171 0.930 . S
H174 C189 0.930 1_655 S
H175 C196 0.930 . S
H176 C170 0.929 . S
H177 C169 0.930 . S
H178 C192 0.929 . S
H179 C159 0.931 1_455 S
H180 C165 0.931 . S
H181 C166 0.931 . S
H182 C187 0.931 1_655 S
H183 C162 0.929 . S
H184 C195 0.930 . S
N185 Eu156 2.600 . S
N185 C186 1.365 . S
N185 C189 1.319 . S
C186 N185 1.365 . S
C186 C188 1.405 . S
C186 C194 1.448 . S
C187 H182 0.931 1_455 S
C187 C189 1.397 . S
C187 C190 1.367 . S
C188 C186 1.405 . S
C188 C190 1.403 . S
C188 C221 1.439 . S
C189 H174 0.930 1_455 S
C189 N185 1.319 . S
C189 C187 1.397 . S
C190 C187 1.367 . S
C190 C188 1.403 . S
C190 H197 0.929 . S
N191 Eu156 2.562 . S
N191 C192 1.325 . S
N191 C194 1.351 . S
C192 H178 0.929 . S
C192 N191 1.325 . S
C192 C196 1.416 . S
C193 C194 1.430 . S
C193 C195 1.404 . S
C193 C222 1.387 . S
C194 C186 1.448 . S
C194 N191 1.351 . S
C194 C193 1.430 . S
C195 H184 0.930 . S
C195 C193 1.404 . S
C195 C196 1.366 . S
C196 H175 0.930 . S
C196 C192 1.416 . S
C196 C195 1.366 . S
H197 C190 0.929 . S
H198 C221 0.931 . S
H199 C222 0.931 . S
O200 Eu156 2.462 . S
O200 C220 1.252 . S
O201 Eu156 2.373 . S
O201 C212 1.249 . S
O202 Eu167 2.335 1_455 S
O202 C212 1.264 1_545 S
O203 Eu156 2.432 . S
O203 C220 1.268 . S
O204 Eu156 2.291 1_545 S
O204 C219 1.255 . S
O205 Eu167 2.372 1_455 S
O205 C219 1.257 . S
O206 Eu167 2.462 . S
O206 C231 1.252 . S
O207 Eu167 2.373 . S
O207 C223 1.249 . S
O208 Eu156 2.335 1_645 S
O208 C223 1.263 . S
O209 Eu167 2.432 . S
O209 C231 1.268 . S
O210 Eu167 2.291 1_565 S
O210 C230 1.255 . S
O211 Eu156 2.372 1_655 S
O211 C230 1.257 . S
C212 O201 1.249 . S
C212 O202 1.264 1_565 S
C213 C216 1.382 . S
C213 C218 1.390 . S
C213 C220 1.506 . S
C214 C215 1.398 . S
C214 C218 1.392 . S
C215 C214 1.398 . S
C215 C217 1.372 . S
C215 H232 0.931 . S
C216 C213 1.382 . S
C216 C217 1.390 . S
C216 H233 0.931 . S
C217 C215 1.372 . S
C217 C216 1.390 . S
C217 H234 0.929 . S
C218 C213 1.390 . S
C218 C214 1.392 . S
C218 H235 0.930 . S
C219 O204 1.255 . S
C219 O205 1.257 . S
C220 Eu156 2.787 . S
C220 O200 1.252 . S
C220 O203 1.268 . S
C220 C213 1.506 . S
C221 C188 1.439 . S
C221 H198 0.931 . S
C221 C222 1.374 . S
C222 C193 1.387 . S
C222 H199 0.931 . S
C222 C221 1.374 . S
C223 O207 1.249 . S
C223 O208 1.263 . S
C224 C227 1.382 . S
C224 C228 1.390 . S
C224 C231 1.506 . S
C225 C226 1.398 . S
C225 C228 1.392 . S
C226 C225 1.398 . S
C226 C229 1.372 . S
C226 H236 0.931 . S
C227 C224 1.382 . S
C227 C229 1.390 . S
C227 H237 0.931 . S
C228 C224 1.390 . S
C228 C225 1.392 . S
C228 H238 0.930 . S
C229 C226 1.372 . S
C229 C227 1.390 . S
C229 H239 0.929 . S
C230 O210 1.255 . S
C230 O211 1.257 . S
C231 Eu167 2.787 . S
C231 O206 1.252 . S
C231 O209 1.268 . S
C231 C224 1.506 . S
H232 C215 0.931 . S
H233 C216 0.931 . S
H234 C217 0.929 . S
H235 C218 0.930 . S
H236 C226 0.931 . S
H237 C227 0.931 . S
H238 C228 0.930 . S
H239 C229 0.929 . S
Eu240 N269 2.600 . S
Eu240 N275 2.562 1_556 S
Eu240 O284 2.462 . S
Eu240 O285 2.373 1_556 S
Eu240 O287 2.432 . S
Eu240 O288 2.291 1_556 S
Eu240 O292 2.335 . S
Eu240 O295 2.372 1_556 S
Eu240 C304 2.787 . S
C241 N242 1.365 . S
C241 C244 1.405 . S
C241 C248 1.448 . S
N242 C241 1.365 . S
N242 C245 1.319 . S
N242 Eu251 2.600 . S
C243 C245 1.397 . S
C243 C246 1.367 . S
C243 H263 0.931 . S
C244 C241 1.405 . S
C244 C246 1.403 . S
C244 C250 1.439 . S
C245 N242 1.319 . S
C245 C243 1.397 . S
C245 H256 0.930 . S
C246 C243 1.367 . S
C246 C244 1.403 . S
C246 H267 0.929 . S
C247 C248 1.430 . S
C247 C249 1.387 . S
C247 C253 1.404 . S
C248 C241 1.448 . S
C248 C247 1.430 . S
C248 N252 1.351 . S
C249 C247 1.387 . S
C249 C250 1.374 . S
C249 H264 0.931 . S
C250 C244 1.439 . S
C250 C249 1.374 . S
C250 H265 0.931 . S
Eu251 N242 2.600 . S
Eu251 N252 2.562 . S
Eu251 O286 2.335 . S
Eu251 O289 2.372 . S
Eu251 O290 2.462 . S
Eu251 O291 2.373 . S
Eu251 O293 2.432 . S
Eu251 O294 2.291 . S
Eu251 C315 2.787 . S
N252 C248 1.351 . S
N252 Eu251 2.562 . S
N252 C254 1.325 . S
C253 C247 1.404 . S
C253 C255 1.366 . S
C253 H261 0.930 . S
C254 N252 1.325 . S
C254 C255 1.416 . S
C254 H260 0.929 . S
C255 C253 1.366 . S
C255 C254 1.416 . S
C255 H257 0.930 . S
H256 C245 0.930 . S
H257 C255 0.930 . S
H258 C273 0.930 . S
H259 C280 0.930 . S
H260 C254 0.929 . S
H261 C253 0.930 . S
H262 C276 0.929 . S
H263 C243 0.931 . S
H264 C249 0.931 . S
H265 C250 0.931 . S
H266 C271 0.931 . S
H267 C246 0.929 . S
H268 C279 0.930 . S
N269 Eu240 2.600 . S
N269 C270 1.365 1_556 S
N269 C273 1.319 . S
C270 N269 1.365 1_554 S
C270 C272 1.405 . S
C270 C278 1.448 . S
C271 H266 0.931 . S
C271 C273 1.397 . S
C271 C274 1.367 1_556 S
C272 C270 1.405 . S
C272 C274 1.403 . S
C272 C305 1.439 . S
C273 H258 0.930 . S
C273 N269 1.319 . S
C273 C271 1.397 . S
C274 C271 1.367 1_554 S
C274 C272 1.403 . S
C274 H281 0.929 . S
N275 Eu240 2.562 1_554 S
N275 C276 1.325 . S
N275 C278 1.351 . S
C276 H262 0.929 . S
C276 N275 1.325 . S
C276 C280 1.416 . S
C277 C278 1.430 . S
C277 C279 1.404 . S
C277 C306 1.387 . S
C278 C270 1.448 . S
C278 N275 1.351 . S
C278 C277 1.430 . S
C279 H268 0.930 . S
C279 C277 1.404 . S
C279 C280 1.366 . S
C280 H259 0.930 . S
C280 C276 1.416 . S
C280 C279 1.366 . S
H281 C274 0.929 . S
H282 C305 0.931 . S
H283 C306 0.931 . S
O284 Eu240 2.462 . S
O284 C304 1.252 . S
O285 Eu240 2.373 1_554 S
O285 C296 1.249 . S
O286 Eu251 2.335 . S
O286 C296 1.264 . S
O287 Eu240 2.432 . S
O287 C304 1.268 . S
O288 Eu240 2.291 1_554 S
O288 C303 1.255 . S
O289 Eu251 2.372 . S
O289 C303 1.257 . S
O290 Eu251 2.462 . S
O290 C315 1.252 . S
O291 Eu251 2.373 . S
O291 C307 1.249 1_554 S
O292 Eu240 2.335 . S
O292 C307 1.264 . S
O293 Eu251 2.432 . S
O293 C315 1.268 . S
O294 Eu251 2.291 . S
O294 C314 1.255 . S
O295 Eu240 2.372 1_554 S
O295 C314 1.257 . S
C296 O285 1.249 . S
C296 O286 1.264 . S
C297 C300 1.382 . S
C297 C302 1.390 . S
C297 C304 1.506 . S
C298 C299 1.398 . S
C298 C302 1.392 . S
C299 C298 1.398 . S
C299 C301 1.372 . S
C299 H316 0.931 . S
C300 C297 1.382 . S
C300 C301 1.390 . S
C300 H317 0.931 . S
C301 C299 1.372 . S
C301 C300 1.390 . S
C301 H318 0.929 . S
C302 C297 1.390 . S
C302 C298 1.392 . S
C302 H319 0.930 . S
C303 O288 1.255 . S
C303 O289 1.257 . S
C304 Eu240 2.787 . S
C304 O284 1.252 . S
C304 O287 1.268 . S
C304 C297 1.506 . S
C305 C272 1.439 . S
C305 H282 0.931 . S
C305 C306 1.374 . S
C306 C277 1.387 . S
C306 H283 0.931 . S
C306 C305 1.374 . S
C307 O291 1.249 1_556 S
C307 O292 1.264 . S
C308 C311 1.382 . S
C308 C312 1.390 . S
C308 C315 1.506 . S
C309 C310 1.398 . S
C309 C312 1.392 . S
C310 C309 1.398 . S
C310 C313 1.372 . S
C310 H320 0.931 . S
C311 C308 1.382 . S
C311 C313 1.390 . S
C311 H321 0.931 . S
C312 C308 1.390 . S
C312 C309 1.392 . S
C312 H322 0.930 . S
C313 C310 1.372 . S
C313 C311 1.390 . S
C313 H323 0.929 . S
C314 O294 1.255 . S
C314 O295 1.257 . S
C315 Eu251 2.787 . S
C315 O290 1.252 . S
C315 O293 1.268 . S
C315 C308 1.506 . S
H316 C299 0.931 . S
H317 C300 0.931 . S
H318 C301 0.929 . S
H319 C302 0.930 . S
H320 C310 0.931 . S
H321 C311 0.931 . S
H322 C312 0.930 . S
H323 C313 0.929 . S
C324 C325 1.369 . S
C324 C326 1.419 . S
C324 H328 0.930 . S
C325 C324 1.369 . S
C325 C334 1.429 . S
C326 C324 1.419 . S
C326 C327 1.363 . S
C326 H329 0.929 . S
C327 C326 1.363 . S
C327 C333 1.428 . S
H328 C324 0.930 . S
H329 C326 0.929 . S
S330 N331 1.613 . S
S330 N332 1.610 . S
N331 S330 1.613 . S
N331 C334 1.350 . S
N332 S330 1.610 . S
N332 C333 1.351 . S
C333 C327 1.428 . S
C333 N332 1.351 . S
C333 C334 1.434 . S
C334 C325 1.429 . S
C334 N331 1.350 . S
C334 C333 1.434 . S
C335 C336 1.369 . S
C335 C337 1.419 . S
C335 H339 0.930 . S
C336 C335 1.369 . S
C336 C345 1.429 . S
C337 C335 1.419 . S
C337 C338 1.363 . S
C337 H340 0.929 . S
C338 C337 1.363 . S
C338 C344 1.428 . S
H339 C335 0.930 . S
H340 C337 0.929 . S
S341 N342 1.613 . S
S341 N343 1.610 . S
N342 S341 1.613 . S
N342 C345 1.350 1_556 S
N343 S341 1.610 . S
N343 C344 1.351 1_556 S
C344 C338 1.428 . S
C344 N343 1.351 1_554 S
C344 C345 1.434 . S
C345 C336 1.429 . S
C345 N342 1.350 1_554 S
C345 C344 1.434 . S
C346 C347 1.369 . S
C346 C348 1.419 . S
C346 H350 0.930 . S
C347 C346 1.369 . S
C347 C356 1.429 . S
C348 C346 1.419 . S
C348 C349 1.363 . S
C348 H351 0.929 . S
C349 C348 1.363 . S
C349 C355 1.428 . S
H350 C346 0.930 . S
H351 C348 0.929 . S
S352 N353 1.613 . S
S352 N354 1.610 . S
N353 S352 1.613 . S
N353 C356 1.350 . S
N354 S352 1.610 . S
N354 C355 1.351 . S
C355 C349 1.428 . S
C355 N354 1.351 . S
C355 C356 1.434 . S
C356 C347 1.429 . S
C356 N353 1.350 . S
C356 C355 1.434 . S
C357 C358 1.369 . S
C357 C359 1.419 . S
C357 H361 0.930 . S
C358 C357 1.369 . S
C358 C367 1.429 . S
C359 C357 1.419 . S
C359 C360 1.363 . S
C359 H362 0.929 . S
C360 C359 1.363 . S
C360 C366 1.428 . S
H361 C357 0.930 . S
H362 C359 0.929 . S
S363 N364 1.613 . S
S363 N365 1.610 . S
N364 S363 1.613 . S
N364 C367 1.350 . S
N365 S363 1.610 . S
N365 C366 1.351 . S
C366 C360 1.428 . S
C366 N365 1.351 . S
C366 C367 1.434 . S
C367 C358 1.429 . S
C367 N364 1.350 . S
C367 C366 1.434 . S
C368 C369 1.369 . S
C368 C370 1.419 . S
C368 H372 0.930 . S
C369 C368 1.369 . S
C369 C378 1.429 . S
C370 C368 1.419 . S
C370 C371 1.363 . S
C370 H373 0.929 . S
C371 C370 1.363 . S
C371 C377 1.428 . S
H372 C368 0.930 . S
H373 C370 0.929 . S
S374 N375 1.613 . S
S374 N376 1.610 . S
N375 S374 1.613 . S
N375 C378 1.350 . S
N376 S374 1.610 . S
N376 C377 1.351 . S
C377 C371 1.428 . S
C377 N376 1.351 . S
C377 C378 1.434 . S
C378 C369 1.429 . S
C378 N375 1.350 . S
C378 C377 1.434 . S
C379 C380 1.369 . S
C379 C381 1.419 . S
C379 H383 0.930 . S
C380 C379 1.369 . S
C380 C389 1.429 . S
C381 C379 1.419 . S
C381 C382 1.363 . S
C381 H384 0.929 . S
C382 C381 1.363 . S
C382 C388 1.428 . S
H383 C379 0.930 . S
H384 C381 0.929 . S
S385 N386 1.613 . S
S385 N387 1.610 . S
N386 S385 1.613 . S
N386 C389 1.350 . S
N387 S385 1.610 . S
N387 C388 1.351 . S
C388 C382 1.428 . S
C388 N387 1.351 . S
C388 C389 1.434 . S
C389 C380 1.429 . S
C389 N386 1.350 . S
C389 C388 1.434 . S
C390 C391 1.369 . S
C390 C392 1.419 . S
C390 H394 0.930 1_545 S
C391 C390 1.369 . S
C391 C400 1.429 . S
C392 C390 1.419 . S
C392 C393 1.363 . S
C392 H395 0.929 1_545 S
C393 C392 1.363 . S
C393 C399 1.428 . S
H394 C390 0.930 1_565 S
H395 C392 0.929 1_565 S
S396 N397 1.613 . S
S396 N398 1.610 . S
N397 S396 1.613 . S
N397 C400 1.350 . S
N398 S396 1.610 . S
N398 C399 1.351 . S
C399 C393 1.428 . S
C399 N398 1.351 . S
C399 C400 1.434 . S
C400 C391 1.429 . S
C400 N397 1.350 . S
C400 C399 1.434 . S
C401 C402 1.369 . S
C401 C403 1.419 . S
C401 H405 0.930 . S
C402 C401 1.369 . S
C402 C411 1.429 . S
C403 C401 1.419 . S
C403 C404 1.363 . S
C403 H406 0.929 . S
C404 C403 1.363 . S
C404 C410 1.428 . S
H405 C401 0.930 . S
H406 C403 0.929 . S
S407 N408 1.613 . S
S407 N409 1.610 . S
N408 S407 1.613 . S
N408 C411 1.350 . S
N409 S407 1.610 . S
N409 C410 1.351 . S
C410 C404 1.428 . S
C410 N409 1.351 . S
C410 C411 1.434 . S
C411 C402 1.429 . S
C411 N408 1.350 . S
C411 C410 1.434 . S
C412 C413 1.369 . S
C412 C414 1.419 . S
C412 H416 0.930 . S
C413 C412 1.369 . S
C413 C422 1.429 . S
C414 C412 1.419 . S
C414 C415 1.363 . S
C414 H417 0.929 . S
C415 C414 1.363 . S
C415 C421 1.428 . S
H416 C412 0.930 . S
H417 C414 0.929 . S
S418 N419 1.613 . S
S418 N420 1.610 . S
N419 S418 1.613 . S
N419 C422 1.350 . S
N420 S418 1.610 . S
N420 C421 1.351 . S
C421 C415 1.428 . S
C421 N420 1.351 . S
C421 C422 1.434 . S
C422 C413 1.429 . S
C422 N419 1.350 . S
C422 C421 1.434 . S
C423 C424 1.369 . S
C423 C425 1.419 . S
C423 H427 0.930 . S
C424 C423 1.369 . S
C424 C433 1.429 . S
C425 C423 1.419 . S
C425 C426 1.363 . S
C425 H428 0.929 . S
C426 C425 1.363 . S
C426 C432 1.428 . S
H427 C423 0.930 . S
H428 C425 0.929 . S
S429 N430 1.613 . S
S429 N431 1.610 . S
N430 S429 1.613 . S
N430 C433 1.350 . S
N431 S429 1.610 . S
N431 C432 1.351 . S
C432 C426 1.428 . S
C432 N431 1.351 . S
C432 C433 1.434 . S
C433 C424 1.429 . S
C433 N430 1.350 . S
C433 C432 1.434 . S
C434 C435 1.369 . S
C434 C436 1.419 . S
C434 H438 0.930 . S
C435 C434 1.369 . S
C435 C444 1.429 . S
C436 C434 1.419 . S
C436 C437 1.363 . S
C436 H439 0.929 . S
C437 C436 1.363 . S
C437 C443 1.428 . S
H438 C434 0.930 . S
H439 C436 0.929 . S
S440 N441 1.613 . S
S440 N442 1.610 . S
N441 S440 1.613 . S
N441 C444 1.350 . S
N442 S440 1.610 . S
N442 C443 1.351 . S
C443 C437 1.428 . S
C443 N442 1.351 . S
C443 C444 1.434 . S
C444 C435 1.429 . S
C444 N441 1.350 . S
C444 C443 1.434 . S
C445 C446 1.369 . S
C445 C447 1.419 . S
C445 H449 0.930 . S
C446 C445 1.369 . S
C446 C455 1.429 1_565 S
C447 C445 1.419 . S
C447 C448 1.363 . S
C447 H450 0.929 . S
C448 C447 1.363 . S
C448 C454 1.428 1_565 S
H449 C445 0.930 . S
H450 C447 0.929 . S
S451 N452 1.613 . S
S451 N453 1.610 . S
N452 S451 1.613 . S
N452 C455 1.350 . S
N453 S451 1.610 . S
N453 C454 1.351 . S
C454 C448 1.428 1_545 S
C454 N453 1.351 . S
C454 C455 1.434 . S
C455 C446 1.429 1_545 S
C455 N452 1.350 . S
C455 C454 1.434 . S
C327 C219 1.683 . S
C325 C138 1.642 . S
C336 C21 1.639 . S
C338 C314 1.667 . S
C347 C60 1.656 . S
C349 C230 1.683 . S
C358 C99 1.656 . S
C360 C303 1.668 . S
C371 C214 1.430 . S
C369 C16 1.551 . S
C382 C307 1.636 . S
C380 C40 1.619 . S
C391 C79 1.632 . S
C393 C223 1.674 . S
C402 C133 1.537 . S
C404 C298 1.411 . S
C415 C309 1.416 . S
C413 C55 1.538 . S
C426 C225 1.433 . S
C424 C94 1.552 . S
C437 C296 1.637 . S
C435 C118 1.610 . S
C446 C1 1.631 . S
C448 C212 1.671 . S
