# Generated by pormake.
# Topology ftw, (4,12)-cn, num edge types: 1
# Building blocks:
#     Node 0, Type 0, BuildingBlock: AZAVOO_clean_linker_0, # of connection points: 4
#     Node 1, Type 0, BuildingBlock: AZAVOO_clean_linker_0, # of connection points: 4
#     Node 2, Type 0, BuildingBlock: AZAVOO_clean_linker_0, # of connection points: 4
#     Node 3, Type 1, BuildingBlock: QEWDON_clean_sbu_0, # of connection points: 12
#     Edge 4, Type (0, 1), None
#     Edge 5, Type (0, 1), None
#     Edge 6, Type (0, 1), None
#     Edge 7, Type (0, 1), None
#     Edge 8, Type (0, 1), None
#     Edge 9, Type (0, 1), None
#     Edge 10, Type (0, 1), None
#     Edge 11, Type (0, 1), None
#     Edge 12, Type (0, 1), None
#     Edge 13, Type (0, 1), None
#     Edge 14, Type (0, 1), None
#     Edge 15, Type (0, 1), None
# Relax obj value: 0.105
# Max RMSD: 0.222
# Mean RMSD: 0.195
data_MOF--net-ftw--node1-QEWDON_clean_sbu_0--node2-AZAVOO_clean_linker_0--edge1-none
_symmetry_space_group_name_H-M    P1
_symmetry_Int_Tables_number       1
_symmetry_cell_setting            triclinic
loop_
_symmetry_equiv_pos_as_xyz
'x, y, z'
_cell_length_a     17.238025
_cell_length_b     16.614813
_cell_length_c     16.402528
_cell_angle_alpha  91.746899
_cell_angle_beta   89.046037
_cell_angle_gamma 91.318217
loop_
_atom_site_label
_atom_site_type_symbol
_atom_site_fract_x
_atom_site_fract_y
_atom_site_fract_z
_atom_type_partial_charge
H0 H 0.07107 0.98191 0.36967 0.0
H1 H -0.00148 0.4814 0.05212 0.0
H2 H 0.10231 0.41226 0.33089 0.0
H3 H 0.07243 0.30251 0.23251 0.0
H4 H 0.83084 0.36576 0.24456 0.0
H5 H 0.86061 0.47241 0.3444 0.0
H6 H 0.11742 0.3184 0.4763 0.0
H7 H 0.12148 0.17626 0.43303 0.0
H8 H 0.8723 0.17205 0.40565 0.0
H9 H 0.86913 0.3143 0.44948 0.0
H10 H 0.10777 0.35013 0.64292 0.0
H11 H 0.09586 0.24093 0.74131 0.0
H12 H 0.84669 0.26166 0.74169 0.0
H13 H 0.85872 0.36696 0.64071 0.0
H14 H 0.11803 0.56633 0.68117 0.0
H15 H 0.13705 0.57676 0.82891 0.0
H16 H 0.89806 0.50306 0.86844 0.0
H17 H 0.87734 0.50063 0.72117 0.0
H18 H 0.10749 0.68065 0.56094 0.0
H19 H 0.11624 0.78949 0.66384 0.0
H20 H 0.86923 0.76726 0.70983 0.0
H21 H 0.86167 0.65658 0.60811 0.0
H22 H 0.11502 0.61203 0.38447 0.0
H23 H 0.12959 0.71504 0.28365 0.0
H24 H 0.88217 0.75259 0.29215 0.0
H25 H 0.86847 0.64777 0.39608 0.0
O26 O 0.06812 0.03827 0.38593 0.0
O27 O 0.94007 0.03937 0.37217 0.0
O28 O 0.08318 0.5796 0.98022 0.0
O29 O -0.01075 0.48653 0.99449 0.0
C30 C -0.00997 0.47486 0.43334 0.0
C31 C -0.00871 0.41314 0.49153 0.0
C32 C -0.01037 0.43267 0.57529 0.0
C33 C -0.0115 0.51405 0.60182 0.0
C34 C -0.01469 0.57632 0.54447 0.0
C35 C -0.01443 0.55707 0.45943 0.0
C36 C -0.01677 0.4491 0.34635 0.0
C37 C 0.04372 0.40554 0.30836 0.0
C38 C 0.02647 0.34204 0.2528 0.0
C39 C 0.9489 0.32366 0.23349 0.0
C40 C 0.89096 0.37702 0.26032 0.0
C41 C 0.90805 0.43937 0.31635 0.0
C42 C -0.00691 0.32666 0.46525 0.0
C43 C 0.06383 0.2866 0.46092 0.0
C44 C 0.06597 0.20548 0.43608 0.0
C45 C -0.00274 0.16284 0.41564 0.0
C46 C 0.9263 0.20315 0.42083 0.0
C47 C 0.92427 0.28433 0.44575 0.0
C48 C -0.01592 0.36708 0.63543 0.0
C49 C 0.05073 0.33069 0.66411 0.0
C50 C 0.04389 0.26856 0.7201 0.0
C51 C -0.02959 0.24378 0.74968 0.0
C52 C 0.90406 0.28048 0.72079 0.0
C53 C 0.91079 0.34047 0.66313 0.0
C54 C -0.00374 0.5329 0.69047 0.0
C55 C 0.06902 0.55555 0.72187 0.0
C56 C 0.07992 0.56084 0.80611 0.0
C57 C 0.01885 0.54059 0.86 0.0
C58 C 0.94575 0.51954 0.82836 0.0
C59 C 0.93401 0.51775 0.74433 0.0
C60 C -0.01599 0.66064 0.57687 0.0
C61 C 0.05466 0.7019 0.59019 0.0
C62 C 0.0596 0.76351 0.64996 0.0
C63 C -0.00638 0.78604 0.69625 0.0
C64 C 0.92121 0.75115 0.6757 0.0
C65 C 0.91658 0.68849 0.61676 0.0
C66 C -0.00903 0.62209 0.39821 0.0
C67 C 0.06379 0.64244 0.36519 0.0
C68 C 0.07173 0.70194 0.30717 0.0
C69 C 0.00694 0.74315 0.27924 0.0
C70 C 0.93331 0.72264 0.31212 0.0
C71 C 0.9255 0.6628 0.37154 0.0
C72 C -0.00021 0.07654 0.38974 0.0
C73 C 0.03213 0.53763 0.9486 0.0
H74 H 0.58077 0.86134 0.99559 0.0
H75 H 0.94997 0.10126 0.61659 0.0
H76 H 0.62987 0.87585 0.48532 0.0
H77 H 0.74308 0.86437 0.3946 0.0
H78 H 0.71811 0.11187 0.32693 0.0
H79 H 0.60533 0.12261 0.41853 0.0
H80 H 0.52157 0.85639 0.34767 0.0
H81 H 0.55431 0.83559 0.20289 0.0
H82 H 0.49305 0.08124 0.1592 0.0
H83 H 0.46494 0.1027 0.30472 0.0
H84 H 0.32023 0.88812 0.33746 0.0
H85 H 0.22325 0.91821 0.23415 0.0
H86 H 0.23348 0.16885 0.31376 0.0
H87 H 0.32926 0.13859 0.41378 0.0
H88 H 0.25984 0.8794 0.52735 0.0
H89 H 0.11967 0.88866 0.55082 0.0
H90 H 0.1468 0.14466 0.60003 0.0
H91 H 0.28602 0.13544 0.57176 0.0
H92 H 0.36976 0.89188 0.69722 0.0
H93 H 0.27722 0.91986 0.80907 0.0
H94 H 0.31147 0.17495 0.77441 0.0
H95 H 0.40919 0.1466 0.66877 0.0
H96 H 0.52125 0.89658 0.69308 0.0
H97 H 0.62315 0.89403 0.79472 0.0
H98 H 0.73102 0.10603 0.69233 0.0
H99 H 0.62623 0.11095 0.59347 0.0
O100 O 0.5682 0.87108 0.05272 0.0
O101 O 0.54131 -0.00051 0.03445 0.0
O102 O -0.00467 0.96276 0.58989 0.0
O103 O 0.00532 0.09575 0.60816 0.0
C104 C 0.52673 -0.00275 0.48557 0.0
C105 C 0.4691 -0.00787 0.4245 0.0
C106 C 0.39008 -0.00322 0.4463 0.0
C107 C 0.36778 0.00123 0.52906 0.0
C108 C 0.4247 0.00323 0.59074 0.0
C109 C 0.50506 0.00188 0.56969 0.0
C110 C 0.60906 -0.0003 0.45787 0.0
C111 C 0.65115 0.92863 0.45399 0.0
C112 C 0.71542 0.92213 0.40132 0.0
C113 C 0.73813 -0.0134 0.35161 0.0
C114 C 0.70158 0.06083 0.36346 0.0
C115 C 0.63743 0.06726 0.41627 0.0
C116 C 0.49121 0.98109 0.3368 0.0
C117 C 0.51648 0.90602 0.30691 0.0
C118 C 0.53474 0.89419 0.22411 0.0
C119 C 0.52707 0.95707 0.16952 0.0
C120 C 0.50112 0.03209 0.19974 0.0
C121 C 0.48428 0.04427 0.28276 0.0
C122 C 0.33142 0.0113 0.3832 0.0
C123 C 0.30101 0.9493 0.33208 0.0
C124 C 0.24554 0.96647 0.2735 0.0
C125 C 0.2202 0.04579 0.26571 0.0
C126 C 0.25111 0.10696 0.31772 0.0
C127 C 0.30604 0.08994 0.37529 0.0
C128 C 0.28351 0.0063 0.55018 0.0
C129 C 0.2355 0.93722 0.54417 0.0
C130 C 0.15552 0.94261 0.55794 0.0
C131 C 0.12219 0.0171 0.57893 0.0
C132 C 0.17058 0.08621 0.58487 0.0
C133 C 0.25032 0.08096 0.56962 0.0
C134 C 0.397 0.01728 0.67566 0.0
C135 C 0.36108 0.9537 0.71761 0.0
C136 C 0.30704 0.96979 0.78023 0.0
C137 C 0.28622 0.04951 0.79916 0.0
C138 C 0.32598 0.11288 0.76051 0.0
C139 C 0.38306 0.09686 0.70142 0.0
C140 C 0.56564 0.00365 0.63472 0.0
C141 C 0.56568 0.9437 0.69343 0.0
C142 C 0.62444 0.94211 0.75154 0.0
C143 C 0.68583 -0.00048 0.75153 0.0
C144 C 0.68508 0.06047 0.69379 0.0
C145 C 0.62528 0.06302 0.63677 0.0
C146 C 0.54585 0.94416 0.08148 0.0
C147 C 0.03717 0.02319 0.59283 0.0
H148 H 0.36624 0.95066 0.99517 0.0
H149 H 0.92256 0.5784 0.19436 0.0
H150 H 0.29743 0.44238 0.85734 0.0
H151 H 0.16846 0.38048 0.86111 0.0
H152 H 0.153 0.4329 0.12076 0.0
H153 H 0.28144 0.49708 0.11548 0.0
H154 H 0.41396 0.27374 0.87568 0.0
H155 H 0.39597 0.13129 0.9026 0.0
H156 H 0.30135 0.19106 0.14123 0.0
H157 H 0.33092 0.33339 0.11877 0.0
H158 H 0.57214 0.3137 0.87374 0.0
H159 H 0.65545 0.19716 0.87833 0.0
H160 H 0.59813 0.17486 0.1348 0.0
H161 H 0.51313 0.28959 0.12834 0.0
H162 H 0.66417 0.48837 0.90687 0.0
H163 H 0.79248 0.53924 0.9457 0.0
H164 H 0.74452 0.47509 0.195 0.0
H165 H 0.61431 0.42847 0.15625 0.0
H166 H 0.56556 0.62641 0.89504 0.0
H167 H 0.68095 0.71282 0.90512 0.0
H168 H 0.67883 0.6863 0.16722 0.0
H169 H 0.56317 0.59916 0.15557 0.0
H170 H 0.37326 0.61247 0.87065 0.0
H171 H 0.30202 0.73756 0.86915 0.0
H172 H 0.33285 0.76949 0.12968 0.0
H173 H 0.40466 0.64412 0.12981 0.0
O174 O 0.36594 0.0075 0.98413 0.0
O175 O 0.31931 0.04015 0.10752 0.0
O176 O 0.8831 0.60281 0.0535 0.0
O177 O 0.87628 0.54961 0.17611 0.0
C178 C 0.38371 0.46766 0.99248 0.0
C179 C 0.41931 0.39171 0.9938 0.0
C180 C 0.50034 0.38828 1.00173 0.0
C181 C 0.54494 0.4589 0.01321 0.0
C182 C 0.50857 0.53404 0.01414 0.0
C183 C 0.42863 0.53901 1.00202 0.0
C184 C 0.29909 0.47059 0.98678 0.0
C185 C 0.26404 0.44509 0.91388 0.0
C186 C 0.1902 0.4097 0.91639 0.0
C187 C 0.15347 0.39751 0.99238 0.0
C188 C 0.18172 0.43923 0.06194 0.0
C189 C 0.25503 0.47589 0.05907 0.0
C190 C 0.37394 0.31441 0.99517 0.0
C191 C 0.38647 0.2565 0.9326 0.0
C192 C 0.37574 0.17482 0.94782 0.0
C193 C 0.34579 0.14964 0.02309 0.0
C194 C 0.32447 0.20838 0.08237 0.0
C195 C 0.3396 0.29011 0.06894 0.0
C196 C 0.53908 0.31054 1.00133 0.0
C197 C 0.57604 0.2817 0.93005 0.0
C198 C 0.62253 0.21453 0.93265 0.0
C199 C 0.63432 0.17784 1.00742 0.0
C200 C 0.59006 0.20187 0.07638 0.0
C201 C 0.54265 0.26812 0.07332 0.0
C202 C 0.62959 0.45602 0.02895 0.0
C203 C 0.68259 0.48214 0.96915 0.0
C204 C 0.75594 0.51151 0.99157 0.0
C205 C 0.77839 0.51221 0.07361 0.0
C206 C 0.72879 0.47596 0.13141 0.0
C207 C 0.65464 0.44828 0.10923 0.0
C208 C 0.55697 0.607 0.02451 0.0
C209 C 0.58867 0.64173 0.95472 0.0
C210 C 0.65579 0.68902 0.9606 0.0
C211 C 0.69101 0.70315 0.0367 0.0
C212 C 0.65472 0.67387 0.10748 0.0
C213 C 0.58755 0.62632 0.10137 0.0
C214 C 0.3922 0.61863 1.00056 0.0
C215 C 0.36546 0.64725 0.92704 0.0
C216 C 0.32552 0.71923 0.92637 0.0
C217 C 0.31071 0.76315 0.99961 0.0
C218 C 0.34289 0.73711 0.07229 0.0
C219 C 0.38326 0.66519 0.07269 0.0
C220 C 0.34209 0.06256 0.04091 0.0
C221 C 0.84952 0.55699 0.09992 0.0
Zn222 Zn 0.08902 0.16267 0.92111 0.0
Zn223 Zn 0.07689 0.1824 0.11352 0.0
O224 O 0.07183 0.10006 0.02285 0.0
H225 H 0.05225 0.04533 0.0247 0.0
C226 C 0.96155 0.17924 0.80945 0.0
O227 O 0.00224 0.11356 0.80124 0.0
Zn228 Zn 0.85474 0.86502 0.15381 0.0
Zn229 Zn 0.82704 0.90503 0.95424 0.0
O230 O 0.84146 0.95147 0.07051 0.0
H231 H 0.8035 -0.00813 0.08288 0.0
Zn232 Zn 0.86636 0.10057 0.94863 0.0
O233 O 0.91341 0.08971 0.06247 0.0
Zn234 Zn 0.83018 0.11501 0.14829 0.0
H235 H 0.89727 0.09333 1.00661 0.0
Zn236 Zn 0.11037 0.88953 0.91453 0.0
O237 O 0.04554 0.89306 0.02019 0.0
H238 H -0.01016 0.89715 0.025 0.0
Zn239 Zn 0.12429 0.90043 0.11108 0.0
C240 C 0.00273 0.83642 0.77196 0.0
O241 O 0.94189 0.86078 0.81438 0.0
O242 O 0.0844 0.28461 0.93958 0.0
O243 O 0.11505 0.28755 0.07065 0.0
O244 O 0.77382 0.80001 0.98088 0.0
O245 O 0.7884 0.77303 0.11238 0.0
O246 O 0.74889 0.11742 0.95742 0.0
O247 O 0.73287 0.13628 0.09129 0.0
C248 C 0.1642 0.06839 0.20306 0.0
O249 O 0.21195 0.8345 0.93757 0.0
O250 O 0.22549 0.85178 0.07145 0.0
O251 O 0.74561 0.94795 0.86986 0.0
C252 C 0.10842 0.3226 1.0031 0.0
O253 O 0.18197 0.1303 0.84656 0.0
C254 C 0.78947 0.9719 0.2796 0.0
O255 O 0.90901 0.18457 0.86464 0.0
C256 C 0.75851 0.75788 0.04272 0.0
O257 O 0.06991 0.84494 0.80226 0.0
C258 C 0.92502 0.24436 0.19759 0.0
O259 O 0.14716 0.14231 0.19856 0.0
O260 O 0.13378 0.01804 0.15192 0.0
C261 C 0.70648 0.13502 0.01934 0.0
O262 O 0.80715 0.90001 0.26041 0.0
O263 O 0.80476 0.02743 0.22958 0.0
C264 C 0.02058 0.80572 0.2161 0.0
O265 O 0.85566 0.21937 0.20698 0.0
O266 O -0.02917 0.19766 0.15903 0.0
C267 C 0.2495 0.82415 1.00233 0.0
O268 O 0.09037 0.82608 0.19966 0.0
O269 O 0.96751 0.84062 0.17768 0.0
C270 C 0.75216 -0.00724 0.80823 0.0
O271 O 0.81969 0.02695 0.79108 0.0
C272 C 0.22056 0.06701 0.85516 0.0
O273 O 0.20043 0.01704 0.91262 0.0
loop_
_geom_bond_atom_site_label_1
_geom_bond_atom_site_label_2
_geom_bond_distance
_geom_bond_site_symmetry_2
_ccdc_geom_bond_type
H0 O26 0.856 1_565 S
H1 O29 0.854 . S
H2 C37 0.930 . S
H3 C38 0.930 . S
H4 C40 0.930 . S
H5 C41 0.930 . S
H6 C43 0.931 . S
H7 C44 0.930 . S
H8 C46 0.930 . S
H9 C47 0.929 . S
H10 C49 0.930 . S
H11 C50 0.931 . S
H12 C52 0.930 . S
H13 C53 0.929 . S
H14 C55 0.931 . S
H15 C56 0.930 . S
H16 C58 0.930 . S
H17 C59 0.932 . S
H18 C61 0.930 . S
H19 C62 0.929 . S
H20 C64 0.931 . S
H21 C65 0.930 . S
H22 C67 0.929 . S
H23 C68 0.931 . S
H24 C70 0.930 . S
H25 C71 0.929 . S
O26 H0 0.856 1_545 S
O26 C72 1.300 1_455 S
O27 C72 1.209 . S
O28 C73 1.199 1_455 S
O29 H1 0.854 . S
O29 C73 1.297 1_554 S
C30 C31 1.404 1_455 S
C30 C35 1.397 . S
C30 C36 1.492 . S
C31 C30 1.404 1_655 S
C31 C32 1.396 . S
C31 C42 1.492 . S
C32 C31 1.396 . S
C32 C33 1.397 . S
C32 C48 1.509 . S
C33 C32 1.397 . S
C33 C34 1.412 1_655 S
C33 C54 1.485 . S
C34 C33 1.412 1_455 S
C34 C35 1.388 . S
C34 C60 1.490 . S
C35 C30 1.397 . S
C35 C34 1.388 . S
C35 C66 1.519 . S
C36 C30 1.492 . S
C36 C37 1.363 . S
C36 C41 1.390 1_455 S
C37 H2 0.930 . S
C37 C36 1.363 . S
C37 C38 1.372 . S
C38 H3 0.930 . S
C38 C37 1.372 . S
C38 C39 1.383 . S
C39 C38 1.383 . S
C39 C40 1.395 1_455 S
C40 H4 0.930 . S
C40 C39 1.395 1_655 S
C40 C41 1.362 . S
C41 H5 0.930 . S
C41 C36 1.390 1_655 S
C41 C40 1.362 . S
C42 C31 1.492 . S
C42 C43 1.377 1_655 S
C42 C47 1.397 . S
C43 H6 0.931 . S
C43 C42 1.377 1_455 S
C43 C44 1.376 . S
C44 H7 0.930 . S
C44 C43 1.376 . S
C44 C45 1.376 1_455 S
C45 C44 1.376 1_655 S
C45 C46 1.378 . S
C45 C72 1.486 . S
C46 H8 0.930 . S
C46 C45 1.378 . S
C46 C47 1.376 . S
C47 H9 0.929 . S
C47 C42 1.397 . S
C47 C46 1.376 . S
C48 C32 1.509 . S
C48 C49 1.391 1_655 S
C48 C53 1.386 . S
C49 H10 0.930 . S
C49 C48 1.391 1_455 S
C49 C50 1.375 . S
C50 H11 0.931 . S
C50 C49 1.375 . S
C50 C51 1.375 1_455 S
C51 C50 1.375 1_655 S
C51 C52 1.361 . S
C52 H12 0.930 . S
C52 C51 1.361 . S
C52 C53 1.399 . S
C53 H13 0.929 . S
C53 C48 1.386 . S
C53 C52 1.399 . S
C54 C33 1.485 . S
C54 C55 1.394 1_655 S
C54 C59 1.360 . S
C55 H14 0.931 . S
C55 C54 1.394 1_455 S
C55 C56 1.372 . S
C56 H15 0.930 . S
C56 C55 1.372 . S
C56 C57 1.397 1_455 S
C57 C56 1.397 1_655 S
C57 C58 1.390 . S
C57 C73 1.476 . S
C58 H16 0.930 . S
C58 C57 1.390 . S
C58 C59 1.366 . S
C59 H17 0.932 . S
C59 C54 1.360 . S
C59 C58 1.366 . S
C60 C34 1.490 . S
C60 C61 1.380 . S
C60 C65 1.386 1_455 S
C61 H18 0.930 . S
C61 C60 1.380 . S
C61 C62 1.381 . S
C62 H19 0.929 . S
C62 C61 1.381 . S
C62 C63 1.371 . S
C63 C62 1.371 . S
C63 C64 1.380 1_455 S
C64 H20 0.931 . S
C64 C63 1.380 1_655 S
C64 C65 1.387 . S
C65 H21 0.930 . S
C65 C60 1.386 1_655 S
C65 C64 1.387 . S
C66 C35 1.519 . S
C66 C67 1.377 . S
C66 C71 1.361 1_455 S
C67 H22 0.929 . S
C67 C66 1.377 . S
C67 C68 1.386 . S
C68 H23 0.931 . S
C68 C67 1.386 . S
C68 C69 1.363 1_455 S
C69 C68 1.363 1_655 S
C69 C70 1.385 . S
C70 H24 0.930 . S
C70 C69 1.385 . S
C70 C71 1.396 . S
C71 H25 0.929 . S
C71 C66 1.361 1_655 S
C71 C70 1.396 . S
C72 O26 1.300 1_655 S
C72 O27 1.209 . S
C72 C45 1.486 . S
C73 O28 1.199 1_655 S
C73 O29 1.297 1_556 S
C73 C57 1.476 . S
H74 O100 0.856 1_546 S
H75 O103 0.854 . S
H76 C111 0.930 . S
H77 C112 0.930 . S
H78 C114 0.930 . S
H79 C115 0.930 . S
H80 C117 0.931 . S
H81 C118 0.930 . S
H82 C120 0.930 . S
H83 C121 0.929 . S
H84 C123 0.930 . S
H85 C124 0.931 . S
H86 C126 0.930 . S
H87 C127 0.929 . S
H88 C129 0.931 . S
H89 C130 0.930 . S
H90 C132 0.930 . S
H91 C133 0.932 . S
H92 C135 0.930 . S
H93 C136 0.929 . S
H94 C138 0.931 . S
H95 C139 0.930 . S
H96 C141 0.929 . S
H97 C142 0.931 . S
H98 C144 0.930 . S
H99 C145 0.929 . S
O100 H74 0.856 1_564 S
O100 C146 1.300 1_565 S
O101 C146 1.209 . S
O102 C147 1.199 1_665 S
O103 H75 0.854 . S
O103 C147 1.297 1_655 S
C104 C105 1.404 . S
C104 C109 1.397 . S
C104 C110 1.492 . S
C105 C104 1.404 . S
C105 C106 1.396 . S
C105 C116 1.492 . S
C106 C105 1.396 . S
C106 C107 1.397 . S
C106 C122 1.509 . S
C107 C106 1.397 . S
C107 C108 1.412 . S
C107 C128 1.485 . S
C108 C107 1.412 . S
C108 C109 1.388 . S
C108 C134 1.490 . S
C109 C104 1.397 . S
C109 C108 1.388 . S
C109 C140 1.519 . S
C110 C104 1.492 . S
C110 C111 1.363 1_545 S
C110 C115 1.390 . S
C111 H76 0.930 . S
C111 C110 1.363 1_565 S
C111 C112 1.372 . S
C112 H77 0.930 . S
C112 C111 1.372 . S
C112 C113 1.383 . S
C113 C112 1.383 . S
C113 C114 1.395 1_565 S
C114 H78 0.930 . S
C114 C113 1.395 1_545 S
C114 C115 1.362 . S
C115 H79 0.930 . S
C115 C110 1.390 . S
C115 C114 1.362 . S
C116 C105 1.492 . S
C116 C117 1.377 1_545 S
C116 C121 1.397 . S
C117 H80 0.931 . S
C117 C116 1.377 1_565 S
C117 C118 1.376 . S
C118 H81 0.930 . S
C118 C117 1.376 . S
C118 C119 1.376 1_565 S
C119 C118 1.376 1_545 S
C119 C120 1.378 . S
C119 C146 1.486 . S
C120 H82 0.930 . S
C120 C119 1.378 . S
C120 C121 1.376 . S
C121 H83 0.929 . S
C121 C116 1.397 . S
C121 C120 1.376 . S
C122 C106 1.509 . S
C122 C123 1.391 1_545 S
C122 C127 1.386 . S
C123 H84 0.930 . S
C123 C122 1.391 1_565 S
C123 C124 1.375 . S
C124 H85 0.931 . S
C124 C123 1.375 . S
C124 C125 1.375 1_565 S
C125 C124 1.375 1_545 S
C125 C126 1.361 . S
C126 H86 0.930 . S
C126 C125 1.361 . S
C126 C127 1.399 . S
C127 H87 0.929 . S
C127 C122 1.386 . S
C127 C126 1.399 . S
C128 C107 1.485 . S
C128 C129 1.394 1_545 S
C128 C133 1.360 . S
C129 H88 0.931 . S
C129 C128 1.394 1_565 S
C129 C130 1.372 . S
C130 H89 0.930 . S
C130 C129 1.372 . S
C130 C131 1.397 1_565 S
C131 C130 1.397 1_545 S
C131 C132 1.390 . S
C131 C147 1.476 . S
C132 H90 0.930 . S
C132 C131 1.390 . S
C132 C133 1.366 . S
C133 H91 0.932 . S
C133 C128 1.360 . S
C133 C132 1.366 . S
C134 C108 1.490 . S
C134 C135 1.380 1_545 S
C134 C139 1.386 . S
C135 H92 0.930 . S
C135 C134 1.380 1_565 S
C135 C136 1.381 . S
C136 H93 0.929 . S
C136 C135 1.381 . S
C136 C137 1.371 . S
C137 C136 1.371 . S
C137 C138 1.380 1_565 S
C138 H94 0.931 . S
C138 C137 1.380 1_545 S
C138 C139 1.387 . S
C139 H95 0.930 . S
C139 C134 1.386 . S
C139 C138 1.387 . S
C140 C109 1.519 . S
C140 C141 1.377 1_545 S
C140 C145 1.361 . S
C141 H96 0.929 . S
C141 C140 1.377 1_565 S
C141 C142 1.386 . S
C142 H97 0.931 . S
C142 C141 1.386 . S
C142 C143 1.363 1_565 S
C143 C142 1.363 1_545 S
C143 C144 1.385 . S
C144 H98 0.930 . S
C144 C143 1.385 . S
C144 C145 1.396 . S
C145 H99 0.929 . S
C145 C140 1.361 . S
C145 C144 1.396 . S
C146 O100 1.300 1_545 S
C146 O101 1.209 . S
C146 C119 1.486 . S
C147 O102 1.199 1_445 S
C147 O103 1.297 1_455 S
C147 C131 1.476 . S
H148 O174 0.856 1_565 S
H149 O177 0.854 . S
H150 C185 0.930 . S
H151 C186 0.930 . S
H152 C188 0.930 . S
H153 C189 0.930 . S
H154 C191 0.931 . S
H155 C192 0.930 . S
H156 C194 0.930 . S
H157 C195 0.929 . S
H158 C197 0.930 . S
H159 C198 0.931 . S
H160 C200 0.930 . S
H161 C201 0.929 . S
H162 C203 0.931 . S
H163 C204 0.930 . S
H164 C206 0.930 . S
H165 C207 0.932 . S
H166 C209 0.930 . S
H167 C210 0.929 . S
H168 C212 0.931 . S
H169 C213 0.930 . S
H170 C215 0.929 . S
H171 C216 0.931 . S
H172 C218 0.930 . S
H173 C219 0.929 . S
O174 H148 0.856 1_545 S
O174 C220 1.300 1_556 S
O175 C220 1.209 . S
O176 C221 1.199 1_456 S
O177 H149 0.854 . S
O177 C221 1.297 1_455 S
C178 C179 1.404 . S
C178 C183 1.397 . S
C178 C184 1.492 . S
C179 C178 1.404 . S
C179 C180 1.396 . S
C179 C190 1.492 . S
C180 C179 1.396 . S
C180 C181 1.397 . S
C180 C196 1.509 . S
C181 C180 1.397 . S
C181 C182 1.412 . S
C181 C202 1.485 . S
C182 C181 1.412 . S
C182 C183 1.388 . S
C182 C208 1.490 . S
C183 C178 1.397 . S
C183 C182 1.388 . S
C183 C214 1.519 . S
C184 C178 1.492 . S
C184 C185 1.363 1_554 S
C184 C189 1.390 . S
C185 H150 0.930 . S
C185 C184 1.363 1_556 S
C185 C186 1.372 . S
C186 H151 0.930 . S
C186 C185 1.372 . S
C186 C187 1.383 . S
C187 C186 1.383 . S
C187 C188 1.395 1_556 S
C188 H152 0.930 . S
C188 C187 1.395 1_554 S
C188 C189 1.362 . S
C189 H153 0.930 . S
C189 C184 1.390 . S
C189 C188 1.362 . S
C190 C179 1.492 . S
C190 C191 1.377 1_554 S
C190 C195 1.397 . S
C191 H154 0.931 . S
C191 C190 1.377 1_556 S
C191 C192 1.376 . S
C192 H155 0.930 . S
C192 C191 1.376 . S
C192 C193 1.376 1_556 S
C193 C192 1.376 1_554 S
C193 C194 1.378 . S
C193 C220 1.486 . S
C194 H156 0.930 . S
C194 C193 1.378 . S
C194 C195 1.376 . S
C195 H157 0.929 . S
C195 C190 1.397 . S
C195 C194 1.376 . S
C196 C180 1.509 . S
C196 C197 1.391 1_554 S
C196 C201 1.386 . S
C197 H158 0.930 . S
C197 C196 1.391 1_556 S
C197 C198 1.375 . S
C198 H159 0.931 . S
C198 C197 1.375 . S
C198 C199 1.375 1_556 S
C199 C198 1.375 1_554 S
C199 C200 1.361 . S
C200 H160 0.930 . S
C200 C199 1.361 . S
C200 C201 1.399 . S
C201 H161 0.929 . S
C201 C196 1.386 . S
C201 C200 1.399 . S
C202 C181 1.485 . S
C202 C203 1.394 1_554 S
C202 C207 1.360 . S
C203 H162 0.931 . S
C203 C202 1.394 1_556 S
C203 C204 1.372 . S
C204 H163 0.930 . S
C204 C203 1.372 . S
C204 C205 1.397 1_556 S
C205 C204 1.397 1_554 S
C205 C206 1.390 . S
C205 C221 1.476 . S
C206 H164 0.930 . S
C206 C205 1.390 . S
C206 C207 1.366 . S
C207 H165 0.932 . S
C207 C202 1.360 . S
C207 C206 1.366 . S
C208 C182 1.490 . S
C208 C209 1.380 1_554 S
C208 C213 1.386 . S
C209 H166 0.930 . S
C209 C208 1.380 1_556 S
C209 C210 1.381 . S
C210 H167 0.929 . S
C210 C209 1.381 . S
C210 C211 1.371 . S
C211 C210 1.371 . S
C211 C212 1.380 1_556 S
C212 H168 0.931 . S
C212 C211 1.380 1_554 S
C212 C213 1.387 . S
C213 H169 0.930 . S
C213 C208 1.386 . S
C213 C212 1.387 . S
C214 C183 1.519 . S
C214 C215 1.377 1_554 S
C214 C219 1.361 . S
C215 H170 0.929 . S
C215 C214 1.377 1_556 S
C215 C216 1.386 . S
C216 H171 0.931 . S
C216 C215 1.386 . S
C216 C217 1.363 1_556 S
C217 C216 1.363 1_554 S
C217 C218 1.385 . S
C218 H172 0.930 . S
C218 C217 1.385 . S
C218 C219 1.396 . S
C219 H173 0.929 . S
C219 C214 1.361 . S
C219 C218 1.396 . S
C220 O174 1.300 1_554 S
C220 O175 1.209 . S
C220 C193 1.486 . S
C221 O176 1.199 1_654 S
C221 O177 1.297 1_655 S
C221 C205 1.476 . S
Zn222 O224 1.933 1_556 S
Zn222 O242 1.985 . S
Zn222 O253 1.955 . S
Zn223 O224 1.911 . S
Zn223 O243 1.970 . S
Zn223 O259 1.945 . S
Zn223 O266 1.981 . S
O224 Zn222 1.933 1_554 S
O224 Zn223 1.911 . S
O224 H225 0.840 1_554 S
H225 O224 0.840 1_556 S
C226 O227 1.246 . S
C226 O255 1.276 1_455 S
O227 C226 1.246 . S
Zn228 O230 1.911 . S
Zn228 O245 1.970 . S
Zn228 O262 1.945 . S
Zn228 O269 1.981 . S
Zn229 O230 1.933 1_556 S
Zn229 O244 1.985 . S
Zn229 O251 1.955 . S
O230 Zn228 1.911 . S
O230 Zn229 1.933 1_554 S
O230 H231 0.841 1_565 S
H231 O230 0.841 1_545 S
Zn232 O233 1.933 1_556 S
Zn232 O246 1.985 . S
Zn232 O255 1.955 . S
O233 Zn232 1.933 1_554 S
O233 Zn234 1.911 . S
O233 H235 0.841 . S
Zn234 O233 1.911 . S
Zn234 O247 1.970 . S
Zn234 O263 1.981 . S
Zn234 O265 1.945 . S
H235 O233 0.841 . S
Zn236 O237 1.933 1_556 S
Zn236 O249 1.985 . S
Zn236 O257 1.955 . S
O237 Zn236 1.933 1_554 S
O237 H238 0.841 1_554 S
O237 Zn239 1.911 . S
H238 O237 0.841 1_556 S
Zn239 O237 1.911 . S
Zn239 O250 1.970 . S
Zn239 O260 1.981 . S
Zn239 O268 1.945 . S
C240 O241 1.246 . S
C240 O257 1.276 1_655 S
O241 C240 1.246 . S
O242 Zn222 1.985 . S
O242 C252 1.245 1_556 S
O243 Zn223 1.970 . S
O243 C252 1.263 . S
O244 Zn229 1.985 . S
O244 C256 1.245 1_556 S
O245 Zn228 1.970 . S
O245 C256 1.263 . S
O246 Zn232 1.985 . S
O246 C261 1.245 1_556 S
O247 Zn234 1.970 . S
O247 C261 1.263 . S
C248 O259 1.262 . S
C248 O260 1.245 1_545 S
O249 Zn236 1.985 . S
O249 C267 1.245 . S
O250 Zn239 1.970 . S
O250 C267 1.263 1_554 S
O251 Zn229 1.955 . S
O251 C270 1.276 1_565 S
C252 O242 1.245 1_554 S
C252 O243 1.263 . S
O253 Zn222 1.955 . S
O253 C272 1.276 . S
C254 O262 1.262 1_545 S
C254 O263 1.245 . S
O255 C226 1.276 1_655 S
O255 Zn232 1.955 . S
C256 O244 1.245 1_554 S
C256 O245 1.263 . S
O257 Zn236 1.955 . S
O257 C240 1.276 1_455 S
C258 O265 1.262 1_455 S
C258 O266 1.245 . S
O259 Zn223 1.945 . S
O259 C248 1.262 . S
O260 Zn239 1.981 . S
O260 C248 1.245 1_565 S
C261 O246 1.245 1_554 S
C261 O247 1.263 . S
O262 Zn228 1.945 . S
O262 C254 1.262 1_565 S
O263 Zn234 1.981 . S
O263 C254 1.245 . S
C264 O268 1.262 1_655 S
C264 O269 1.245 . S
O265 Zn234 1.945 . S
O265 C258 1.262 1_655 S
O266 Zn223 1.981 . S
O266 C258 1.245 . S
C267 O249 1.245 . S
C267 O250 1.263 1_556 S
O268 Zn239 1.945 . S
O268 C264 1.262 1_455 S
O269 Zn228 1.981 . S
O269 C264 1.245 . S
C270 O251 1.276 1_545 S
C270 O271 1.246 . S
O271 C270 1.246 . S
C272 O253 1.276 . S
C272 O273 1.246 1_545 S
O273 C272 1.246 1_565 S
C258 C39 2.569 . S
C254 C113 2.811 1_545 S
C264 C69 2.548 . S
C248 C125 0.752 . S
C63 C240 2.789 1_455 S
C272 C137 2.755 1_545 S
C51 C226 1.075 1_655 S
C143 C270 2.730 . S
C187 C252 1.770 1_556 S
C217 C267 1.726 1_554 S
C261 C199 0.716 . S
C256 C211 2.450 1_554 S
