# Generated by pormake.
# Topology ssb, (4,4)-cn, num edge types: 1
# Building blocks:
#     Node 0, Type 0, BuildingBlock: MUDLON_clean_linker_0, # of connection points: 4
#     Node 1, Type 0, BuildingBlock: MUDLON_clean_linker_0, # of connection points: 4
#     Node 2, Type 0, BuildingBlock: MUDLON_clean_linker_0, # of connection points: 4
#     Node 3, Type 0, BuildingBlock: MUDLON_clean_linker_0, # of connection points: 4
#     Node 4, Type 0, BuildingBlock: MUDLON_clean_linker_0, # of connection points: 4
#     Node 5, Type 0, BuildingBlock: MUDLON_clean_linker_0, # of connection points: 4
#     Node 6, Type 0, BuildingBlock: MUDLON_clean_linker_0, # of connection points: 4
#     Node 7, Type 0, BuildingBlock: MUDLON_clean_linker_0, # of connection points: 4
#     Node 8, Type 1, BuildingBlock: KOZSID_clean_sbu_0, # of connection points: 4
#     Node 9, Type 1, BuildingBlock: KOZSID_clean_sbu_0, # of connection points: 4
#     Node 10, Type 1, BuildingBlock: KOZSID_clean_sbu_0, # of connection points: 4
#     Node 11, Type 1, BuildingBlock: KOZSID_clean_sbu_0, # of connection points: 4
#     Node 12, Type 1, BuildingBlock: KOZSID_clean_sbu_0, # of connection points: 4
#     Node 13, Type 1, BuildingBlock: KOZSID_clean_sbu_0, # of connection points: 4
#     Node 14, Type 1, BuildingBlock: KOZSID_clean_sbu_0, # of connection points: 4
#     Node 15, Type 1, BuildingBlock: KOZSID_clean_sbu_0, # of connection points: 4
#     Edge 16, Type (0, 1), BuildingBlock: UVAHIK_clean_linker_0, # of connection points: 2
#     Edge 17, Type (0, 1), BuildingBlock: UVAHIK_clean_linker_0, # of connection points: 2
#     Edge 18, Type (0, 1), BuildingBlock: UVAHIK_clean_linker_0, # of connection points: 2
#     Edge 19, Type (0, 1), BuildingBlock: UVAHIK_clean_linker_0, # of connection points: 2
#     Edge 20, Type (0, 1), BuildingBlock: UVAHIK_clean_linker_0, # of connection points: 2
#     Edge 21, Type (0, 1), BuildingBlock: UVAHIK_clean_linker_0, # of connection points: 2
#     Edge 22, Type (0, 1), BuildingBlock: UVAHIK_clean_linker_0, # of connection points: 2
#     Edge 23, Type (0, 1), BuildingBlock: UVAHIK_clean_linker_0, # of connection points: 2
#     Edge 24, Type (0, 1), BuildingBlock: UVAHIK_clean_linker_0, # of connection points: 2
#     Edge 25, Type (0, 1), BuildingBlock: UVAHIK_clean_linker_0, # of connection points: 2
#     Edge 26, Type (0, 1), BuildingBlock: UVAHIK_clean_linker_0, # of connection points: 2
#     Edge 27, Type (0, 1), BuildingBlock: UVAHIK_clean_linker_0, # of connection points: 2
#     Edge 28, Type (0, 1), BuildingBlock: UVAHIK_clean_linker_0, # of connection points: 2
#     Edge 29, Type (0, 1), BuildingBlock: UVAHIK_clean_linker_0, # of connection points: 2
#     Edge 30, Type (0, 1), BuildingBlock: UVAHIK_clean_linker_0, # of connection points: 2
#     Edge 31, Type (0, 1), BuildingBlock: UVAHIK_clean_linker_0, # of connection points: 2
#     Edge 32, Type (0, 1), BuildingBlock: UVAHIK_clean_linker_0, # of connection points: 2
#     Edge 33, Type (0, 1), BuildingBlock: UVAHIK_clean_linker_0, # of connection points: 2
#     Edge 34, Type (0, 1), BuildingBlock: UVAHIK_clean_linker_0, # of connection points: 2
#     Edge 35, Type (0, 1), BuildingBlock: UVAHIK_clean_linker_0, # of connection points: 2
#     Edge 36, Type (0, 1), BuildingBlock: UVAHIK_clean_linker_0, # of connection points: 2
#     Edge 37, Type (0, 1), BuildingBlock: UVAHIK_clean_linker_0, # of connection points: 2
#     Edge 38, Type (0, 1), BuildingBlock: UVAHIK_clean_linker_0, # of connection points: 2
#     Edge 39, Type (0, 1), BuildingBlock: UVAHIK_clean_linker_0, # of connection points: 2
#     Edge 40, Type (0, 1), BuildingBlock: UVAHIK_clean_linker_0, # of connection points: 2
#     Edge 41, Type (0, 1), BuildingBlock: UVAHIK_clean_linker_0, # of connection points: 2
#     Edge 42, Type (0, 1), BuildingBlock: UVAHIK_clean_linker_0, # of connection points: 2
#     Edge 43, Type (0, 1), BuildingBlock: UVAHIK_clean_linker_0, # of connection points: 2
#     Edge 44, Type (0, 1), BuildingBlock: UVAHIK_clean_linker_0, # of connection points: 2
#     Edge 45, Type (0, 1), BuildingBlock: UVAHIK_clean_linker_0, # of connection points: 2
#     Edge 46, Type (0, 1), BuildingBlock: UVAHIK_clean_linker_0, # of connection points: 2
#     Edge 47, Type (0, 1), BuildingBlock: UVAHIK_clean_linker_0, # of connection points: 2
# Relax obj value: 0.003
# Max RMSD: 0.054
# Mean RMSD: 0.023
data_MOF--net-ssb--node1-KOZSID_clean_sbu_0--node2-MUDLON_clean_linker_0--edge1-UVAHIK_clean_linker_0
_symmetry_space_group_name_H-M    P1
_symmetry_Int_Tables_number       1
_symmetry_cell_setting            triclinic
loop_
_symmetry_equiv_pos_as_xyz
'x, y, z'
_cell_length_a     84.143459
_cell_length_b     84.135492
_cell_length_c     62.029555
_cell_angle_alpha  91.814079
_cell_angle_beta   93.559583
_cell_angle_gamma 89.971835
loop_
_atom_site_label
_atom_site_type_symbol
_atom_site_fract_x
_atom_site_fract_y
_atom_site_fract_z
_atom_type_partial_charge
H0 H 0.29475 0.30192 0.20937 0.0
N1 N 0.3061 0.30191 0.25176 0.0
H2 H 0.28542 0.32495 0.18943 0.0
H3 H 0.3008 0.331 0.26777 0.0
H4 H 0.29121 0.35423 0.2479 0.0
H5 H 0.33529 0.31394 0.25497 0.0
H6 H 0.35789 0.30598 0.23432 0.0
H7 H 0.3074 0.27551 0.22462 0.0
H8 H 0.33013 0.26691 0.20479 0.0
H9 H 0.27921 0.28713 0.23306 0.0
H10 H 0.30976 0.29099 0.29141 0.0
H11 H 0.26225 0.26846 0.25003 0.0
H12 H 0.29314 0.2717 0.30837 0.0
H13 H 0.20551 0.23098 0.30372 0.0
H14 H 0.18285 0.2399 0.32402 0.0
H15 H 0.21348 0.24259 0.38255 0.0
H16 H 0.23588 0.23358 0.36231 0.0
H17 H 0.2613 0.22229 0.34745 0.0
H18 H 0.27043 0.19849 0.36596 0.0
H19 H 0.23257 0.17137 0.33186 0.0
H20 H 0.22385 0.19518 0.31295 0.0
H21 H 0.2437 0.22362 0.27902 0.0
H22 H 0.26143 0.24194 0.2622 0.0
H23 H 0.26769 0.26891 0.32264 0.0
N24 N 0.23488 0.22456 0.31935 0.0
H25 H 0.25055 0.25023 0.3394 0.0
C26 C 0.29849 0.31475 0.24017 0.0
C27 C 0.29374 0.31319 0.21804 0.0
C28 C 0.28835 0.32641 0.20663 0.0
C29 C 0.28765 0.34146 0.21704 0.0
C30 C 0.29181 0.34284 0.23935 0.0
C31 C 0.29715 0.32959 0.25076 0.0
C32 C 0.3197 0.29534 0.24153 0.0
C33 C 0.33422 0.30352 0.24427 0.0
C34 C 0.34715 0.29888 0.23249 0.0
C35 C 0.34589 0.28579 0.21777 0.0
C36 C 0.33148 0.27721 0.21567 0.0
C37 C 0.31848 0.282 0.22726 0.0
C38 C 0.29574 0.29069 0.26111 0.0
C39 C 0.28232 0.284 0.24954 0.0
C40 C 0.27267 0.27312 0.25924 0.0
C41 C 0.27628 0.26854 0.28062 0.0
C42 C 0.28981 0.27513 0.29203 0.0
C43 C 0.29939 0.28609 0.28235 0.0
C44 C 0.22233 0.2315 0.3314 0.0
C45 C 0.20733 0.23373 0.32087 0.0
C46 C 0.19444 0.23886 0.33247 0.0
C47 C 0.19636 0.24182 0.35493 0.0
C48 C 0.21157 0.24017 0.36533 0.0
C49 C 0.22443 0.23509 0.35371 0.0
C50 C 0.24189 0.21048 0.32865 0.0
C51 C 0.25517 0.21118 0.3436 0.0
C52 C 0.26029 0.19755 0.35436 0.0
C53 C 0.25219 0.18299 0.35053 0.0
C54 C 0.23925 0.18228 0.33503 0.0
C55 C 0.2342 0.19588 0.32424 0.0
C56 C 0.24564 0.23556 0.31033 0.0
C57 C 0.24897 0.23347 0.28859 0.0
C58 C 0.25901 0.24403 0.279 0.0
C59 C 0.26592 0.25702 0.291 0.0
C60 C 0.26273 0.25897 0.31294 0.0
C61 C 0.25276 0.24833 0.32254 0.0
H62 H 0.72225 0.33956 0.24958 0.0
N63 N 0.71937 0.30874 0.23978 0.0
H64 H 0.73427 0.35998 0.22843 0.0
H65 H 0.73587 0.30347 0.20341 0.0
H66 H 0.74805 0.32365 0.18246 0.0
H67 H 0.72197 0.28094 0.21595 0.0
H68 H 0.70089 0.26829 0.19239 0.0
H69 H 0.68909 0.31721 0.23524 0.0
H70 H 0.6679 0.30459 0.21186 0.0
H71 H 0.71172 0.30552 0.28011 0.0
H72 H 0.74712 0.29194 0.2357 0.0
H73 H 0.72626 0.29112 0.30868 0.0
H74 H 0.76209 0.27811 0.26429 0.0
H75 H 0.7919 0.25722 0.3978 0.0
H76 H 0.81971 0.26333 0.40845 0.0
H77 H 0.8305 0.26251 0.34115 0.0
H78 H 0.80286 0.25565 0.3308 0.0
H79 H 0.79701 0.22616 0.34515 0.0
H80 H 0.7918 0.19827 0.35078 0.0
H81 H 0.74696 0.21093 0.37731 0.0
H82 H 0.75301 0.239 0.37322 0.0
H83 H 0.76413 0.27924 0.36061 0.0
H84 H 0.75009 0.2933 0.33128 0.0
H85 H 0.76165 0.25529 0.28636 0.0
N86 N 0.77893 0.25151 0.35829 0.0
H87 H 0.77624 0.24172 0.31567 0.0
C88 C 0.72801 0.32006 0.22807 0.0
C89 C 0.72806 0.33604 0.23509 0.0
C90 C 0.73501 0.34764 0.22306 0.0
C91 C 0.74202 0.34342 0.2037 0.0
C92 C 0.74254 0.32729 0.19714 0.0
C93 C 0.73561 0.31571 0.2092 0.0
C94 C 0.70705 0.3001 0.22726 0.0
C95 C 0.71019 0.28611 0.21526 0.0
C96 C 0.69815 0.27891 0.20177 0.0
C97 C 0.68276 0.28546 0.2003 0.0
C98 C 0.67958 0.29915 0.21286 0.0
C99 C 0.69164 0.30641 0.22614 0.0
C100 C 0.72837 0.29998 0.25592 0.0
C101 C 0.7227 0.29951 0.27662 0.0
C102 C 0.73109 0.29137 0.29292 0.0
C103 C 0.74545 0.28359 0.28886 0.0
C104 C 0.75102 0.28387 0.26794 0.0
C105 C 0.74251 0.29192 0.25158 0.0
C106 C 0.79524 0.25614 0.36362 0.0
C107 C 0.80029 0.25848 0.3854 0.0
C108 C 0.81616 0.26208 0.3914 0.0
C109 C 0.82737 0.26352 0.37565 0.0
C110 C 0.82224 0.26134 0.35372 0.0
C111 C 0.80636 0.25758 0.34775 0.0
C112 C 0.77557 0.23475 0.35943 0.0
C113 C 0.78612 0.22298 0.35236 0.0
C114 C 0.78298 0.20692 0.3553 0.0
C115 C 0.76903 0.20223 0.36481 0.0
C116 C 0.75807 0.21403 0.37059 0.0
C117 C 0.76141 0.2301 0.3681 0.0
C118 C 0.77103 0.25943 0.3404 0.0
C119 C 0.76364 0.27403 0.34439 0.0
C120 C 0.75554 0.28195 0.32764 0.0
C121 C 0.75458 0.27534 0.30648 0.0
C122 C 0.76225 0.26078 0.30241 0.0
C123 C 0.77048 0.25292 0.3192 0.0
H124 H 0.79235 0.76328 0.37575 0.0
N125 N 0.7788 0.78327 0.34794 0.0
H126 H 0.82083 0.75983 0.3848 0.0
H127 H 0.80295 0.79595 0.32651 0.0
H128 H 0.83143 0.79234 0.33503 0.0
H129 H 0.77845 0.8106 0.32535 0.0
H130 H 0.77476 0.83756 0.34049 0.0
H131 H 0.76875 0.79103 0.38646 0.0
H132 H 0.76437 0.81776 0.40154 0.0
H133 H 0.75331 0.76581 0.35332 0.0
H134 H 0.7828 0.78248 0.30442 0.0
H135 H 0.73743 0.75026 0.32597 0.0
H136 H 0.76758 0.76628 0.27696 0.0
H137 H 0.70517 0.68638 0.2378 0.0
H138 H 0.71616 0.66437 0.21677 0.0
H139 H 0.75037 0.69648 0.19237 0.0
H140 H 0.7391 0.71847 0.21332 0.0
H141 H 0.71292 0.72908 0.19836 0.0
H142 H 0.68973 0.73987 0.17851 0.0
H143 H 0.66187 0.73356 0.23393 0.0
H144 H 0.68506 0.72189 0.25321 0.0
H145 H 0.72329 0.71035 0.27903 0.0
H146 H 0.73954 0.72689 0.30481 0.0
H147 H 0.74297 0.76245 0.25644 0.0
N148 N 0.71374 0.71671 0.23877 0.0
H149 H 0.72739 0.74534 0.23046 0.0
C150 C 0.79554 0.77981 0.35052 0.0
C151 C 0.80087 0.76939 0.36656 0.0
C152 C 0.81714 0.76742 0.37163 0.0
C153 C 0.82843 0.77588 0.36071 0.0
C154 C 0.82304 0.78582 0.34395 0.0
C155 C 0.80675 0.78778 0.33892 0.0
C156 C 0.77405 0.7989 0.35497 0.0
C157 C 0.77524 0.81213 0.34191 0.0
C158 C 0.77303 0.82751 0.35057 0.0
C159 C 0.76954 0.82985 0.37237 0.0
C160 C 0.76743 0.81644 0.38488 0.0
C161 C 0.76974 0.80115 0.37626 0.0
C162 C 0.76931 0.77509 0.33099 0.0
C163 C 0.75636 0.76604 0.33662 0.0
C164 C 0.74742 0.75703 0.32096 0.0
C165 C 0.75138 0.75671 0.29923 0.0
C166 C 0.76413 0.76624 0.29348 0.0
C167 C 0.77296 0.77544 0.30922 0.0
C168 C 0.7213 0.70399 0.22717 0.0
C169 C 0.71513 0.68859 0.22805 0.0
C170 C 0.72149 0.67604 0.2161 0.0
C171 C 0.73418 0.67865 0.20291 0.0
C172 C 0.7405 0.6941 0.20222 0.0
C173 C 0.73415 0.70667 0.21428 0.0
C174 C 0.70063 0.7244 0.22721 0.0
C175 C 0.70184 0.72996 0.20623 0.0
C176 C 0.68854 0.73632 0.19495 0.0
C177 C 0.67381 0.73752 0.2045 0.0
C178 C 0.67287 0.73251 0.22583 0.0
C179 C 0.68613 0.72596 0.23698 0.0
C180 C 0.72394 0.72666 0.25301 0.0
C181 C 0.72766 0.72168 0.27402 0.0
C182 C 0.73682 0.73126 0.28877 0.0
C183 C 0.74236 0.74621 0.28291 0.0
C184 C 0.73898 0.75102 0.26155 0.0
C185 C 0.72995 0.74129 0.24668 0.0
H186 H 0.30603 0.7462 0.17664 0.0
N187 N 0.30862 0.73601 0.21825 0.0
H188 H 0.32771 0.75552 0.15593 0.0
H189 H 0.33833 0.74262 0.23297 0.0
H190 H 0.36023 0.75188 0.21225 0.0
H191 H 0.32253 0.70818 0.22588 0.0
H192 H 0.31668 0.68253 0.20733 0.0
H193 H 0.28434 0.72982 0.18768 0.0
H194 H 0.27814 0.70424 0.16945 0.0
H195 H 0.30047 0.76722 0.20813 0.0
H196 H 0.28696 0.72719 0.2451 0.0
H197 H 0.27827 0.78222 0.22079 0.0
H198 H 0.26411 0.74207 0.25696 0.0
H199 H 0.20765 0.83236 0.26954 0.0
H200 H 0.21714 0.85689 0.28823 0.0
H201 H 0.25824 0.8317 0.31496 0.0
H202 H 0.24824 0.80731 0.29762 0.0
H203 H 0.22136 0.79727 0.31557 0.0
H204 H 0.1993 0.78855 0.33596 0.0
H205 H 0.16882 0.78632 0.27727 0.0
H206 H 0.19107 0.79523 0.25688 0.0
H207 H 0.22968 0.80201 0.2323 0.0
H208 H 0.25035 0.785 0.21786 0.0
H209 H 0.25733 0.76315 0.27992 0.0
N210 N 0.2202 0.80344 0.27234 0.0
H211 H 0.23629 0.77949 0.29368 0.0
C212 C 0.32061 0.74363 0.20642 0.0
C213 C 0.31777 0.74753 0.18461 0.0
C214 C 0.3302 0.75283 0.17276 0.0
C215 C 0.34572 0.75428 0.18239 0.0
C216 C 0.34838 0.75101 0.20442 0.0
C217 C 0.33592 0.7457 0.21627 0.0
C218 C 0.30392 0.72086 0.20822 0.0
C219 C 0.31274 0.7073 0.21371 0.0
C220 C 0.30932 0.69268 0.20317 0.0
C221 C 0.29697 0.69136 0.18687 0.0
C222 C 0.28789 0.70491 0.1817 0.0
C223 C 0.29135 0.71953 0.1922 0.0
C224 C 0.29542 0.74566 0.2252 0.0
C225 C 0.29268 0.76138 0.2186 0.0
C226 C 0.27977 0.77008 0.22582 0.0
C227 C 0.26922 0.76335 0.23974 0.0
C228 C 0.27203 0.74774 0.24644 0.0
C229 C 0.28505 0.73914 0.2395 0.0
C230 C 0.22715 0.81793 0.28189 0.0
C231 C 0.21877 0.83222 0.27931 0.0
C232 C 0.22429 0.84624 0.28992 0.0
C233 C 0.23846 0.84631 0.30323 0.0
C234 C 0.24712 0.83208 0.30523 0.0
C235 C 0.24146 0.81803 0.29496 0.0
C236 C 0.20785 0.79689 0.28459 0.0
C237 C 0.21003 0.79469 0.30698 0.0
C238 C 0.19739 0.78964 0.31865 0.0
C239 C 0.1823 0.78677 0.30824 0.0
C240 C 0.18026 0.78859 0.28577 0.0
C241 C 0.19295 0.79357 0.27409 0.0
C242 C 0.23135 0.79211 0.26398 0.0
C243 C 0.23551 0.79333 0.24259 0.0
C244 C 0.24746 0.78372 0.23449 0.0
C245 C 0.25567 0.77277 0.24777 0.0
C246 C 0.25116 0.77125 0.26907 0.0
C247 C 0.23907 0.7807 0.27704 0.0
H248 H 0.23399 0.81732 0.69946 0.0
N249 N 0.24949 0.78981 0.68882 0.0
H250 H 0.23927 0.84377 0.68646 0.0
H251 H 0.27393 0.79858 0.66663 0.0
H252 H 0.27923 0.82505 0.65327 0.0
H253 H 0.24035 0.78024 0.64881 0.0
H254 H 0.21329 0.77542 0.63362 0.0
H255 H 0.22247 0.79028 0.7114 0.0
H256 H 0.1954 0.78459 0.69673 0.0
H257 H 0.25392 0.80688 0.72768 0.0
H258 H 0.25635 0.75991 0.69808 0.0
H259 H 0.26277 0.79645 0.76227 0.0
H260 H 0.26413 0.74908 0.73318 0.0
H261 H 0.29228 0.75663 0.87534 0.0
H262 H 0.3183 0.76341 0.89272 0.0
H263 H 0.33863 0.76111 0.83033 0.0
H264 H 0.313 0.75333 0.81347 0.0
H265 H 0.30433 0.7228 0.82658 0.0
H266 H 0.30079 0.69606 0.83974 0.0
H267 H 0.25586 0.71036 0.86446 0.0
H268 H 0.25983 0.73726 0.85184 0.0
H269 H 0.26516 0.77217 0.82615 0.0
H270 H 0.25562 0.782 0.79106 0.0
H271 H 0.2845 0.74678 0.7595 0.0
N272 N 0.28529 0.74852 0.83417 0.0
H273 H 0.29294 0.73641 0.79457 0.0
C274 C 0.25359 0.80593 0.68393 0.0
C275 C 0.24402 0.81894 0.68965 0.0
C276 C 0.247 0.83405 0.68209 0.0
C277 C 0.25957 0.83649 0.66864 0.0
C278 C 0.26954 0.82361 0.66374 0.0
C279 C 0.26653 0.80848 0.67131 0.0
C280 C 0.23348 0.78546 0.68118 0.0
C281 C 0.23057 0.78103 0.65935 0.0
C282 C 0.21507 0.77819 0.65076 0.0
C283 C 0.20206 0.77955 0.66392 0.0
C284 C 0.20505 0.78364 0.686 0.0
C285 C 0.22058 0.78671 0.69451 0.0
C286 C 0.25464 0.78419 0.70994 0.0
C287 C 0.25626 0.79429 0.7285 0.0
C288 C 0.26118 0.78821 0.74855 0.0
C289 C 0.26421 0.77185 0.75076 0.0
C290 C 0.2623 0.76178 0.73221 0.0
C291 C 0.25771 0.76792 0.71209 0.0
C292 C 0.30048 0.75453 0.84312 0.0
C293 C 0.30235 0.75778 0.86544 0.0
C294 C 0.31726 0.76174 0.87531 0.0
C295 C 0.33071 0.76277 0.863 0.0
C296 C 0.32868 0.76011 0.84047 0.0
C297 C 0.31383 0.75583 0.83067 0.0
C298 C 0.28237 0.73207 0.83847 0.0
C299 C 0.2936 0.7201 0.8345 0.0
C300 C 0.29152 0.70477 0.84199 0.0
C301 C 0.27814 0.70109 0.85345 0.0
C302 C 0.26648 0.71287 0.85614 0.0
C303 C 0.26862 0.72819 0.84877 0.0
C304 C 0.27985 0.75372 0.81303 0.0
C305 C 0.2693 0.76655 0.81158 0.0
C306 C 0.26401 0.77225 0.79146 0.0
C307 C 0.26939 0.76536 0.77224 0.0
C308 C 0.27987 0.75231 0.77379 0.0
C309 C 0.28487 0.74642 0.79393 0.0
H310 H 0.30314 0.27274 0.87941 0.0
N311 N 0.28931 0.2866 0.84536 0.0
H312 H 0.33165 0.2686 0.88764 0.0
H313 H 0.31337 0.29177 0.81799 0.0
H314 H 0.34158 0.28747 0.82592 0.0
H315 H 0.30162 0.31539 0.83504 0.0
H316 H 0.29511 0.34127 0.8507 0.0
H317 H 0.26789 0.29304 0.87404 0.0
H318 H 0.26108 0.3191 0.88968 0.0
H319 H 0.27009 0.26168 0.83991 0.0
H320 H 0.28908 0.30051 0.80583 0.0
H321 H 0.25543 0.25228 0.80677 0.0
H322 H 0.27606 0.29042 0.77237 0.0
H323 H 0.22214 0.21842 0.71021 0.0
H324 H 0.22987 0.19168 0.69897 0.0
H325 H 0.27289 0.21051 0.67472 0.0
H326 H 0.26459 0.23742 0.68517 0.0
H327 H 0.22784 0.25478 0.66504 0.0
H328 H 0.20049 0.26022 0.65206 0.0
H329 H 0.18476 0.25199 0.71588 0.0
H330 H 0.21209 0.24566 0.72827 0.0
H331 H 0.24605 0.22886 0.7406 0.0
H332 H 0.25781 0.23923 0.77458 0.0
H333 H 0.25333 0.28707 0.7512 0.0
N334 N 0.23828 0.24603 0.70406 0.0
H335 H 0.24301 0.27632 0.71619 0.0
C336 C 0.30597 0.28256 0.84818 0.0
C337 C 0.31148 0.27572 0.86753 0.0
C338 C 0.32775 0.27331 0.87215 0.0
C339 C 0.33887 0.27779 0.85745 0.0
C340 C 0.33332 0.28408 0.83768 0.0
C341 C 0.31705 0.28646 0.83307 0.0
C342 C 0.28523 0.30221 0.85346 0.0
C343 C 0.29267 0.31603 0.84679 0.0
C344 C 0.28887 0.33089 0.85571 0.0
C345 C 0.27759 0.33224 0.87145 0.0
C346 C 0.26996 0.31843 0.87778 0.0
C347 C 0.27376 0.30357 0.86881 0.0
C348 C 0.28101 0.2815 0.82534 0.0
C349 C 0.27131 0.26799 0.82516 0.0
C350 C 0.26306 0.26258 0.80609 0.0
C351 C 0.26464 0.2704 0.78658 0.0
C352 C 0.27426 0.28412 0.78696 0.0
C353 C 0.28209 0.28977 0.80616 0.0
C354 C 0.2427 0.22998 0.69811 0.0
C355 C 0.23315 0.21683 0.70227 0.0
C356 C 0.23772 0.20149 0.69611 0.0
C357 C 0.25201 0.19891 0.68589 0.0
C358 C 0.26169 0.21207 0.68221 0.0
C359 C 0.25703 0.22743 0.68823 0.0
C360 C 0.22204 0.25002 0.69757 0.0
C361 C 0.21846 0.25425 0.67619 0.0
C362 C 0.20281 0.25747 0.66889 0.0
C363 C 0.19035 0.25671 0.68296 0.0
C364 C 0.19398 0.25254 0.70452 0.0
C365 C 0.20965 0.24909 0.71172 0.0
C366 C 0.24392 0.25181 0.7254 0.0
C367 C 0.24769 0.24157 0.74252 0.0
C368 C 0.25427 0.24761 0.76231 0.0
C369 C 0.25675 0.26406 0.76584 0.0
C370 C 0.25215 0.27431 0.74904 0.0
C371 C 0.24605 0.26821 0.72903 0.0
H372 H 0.78243 0.25979 0.65908 0.0
N373 N 0.77888 0.24768 0.69742 0.0
H374 H 0.80714 0.26813 0.64403 0.0
H375 H 0.8083 0.25008 0.71939 0.0
H376 H 0.83283 0.25897 0.7049 0.0
H377 H 0.79823 0.22236 0.7072 0.0
H378 H 0.79513 0.19527 0.69228 0.0
H379 H 0.75409 0.23578 0.67377 0.0
H380 H 0.75063 0.20855 0.65912 0.0
H381 H 0.75723 0.26988 0.70408 0.0
H382 H 0.78871 0.23723 0.73757 0.0
H383 H 0.74788 0.2797 0.73852 0.0
H384 H 0.78045 0.2477 0.7721 0.0
H385 H 0.72991 0.31749 0.83173 0.0
H386 H 0.73747 0.34361 0.84705 0.0
H387 H 0.77817 0.32284 0.88151 0.0
H388 H 0.77028 0.29655 0.8663 0.0
H389 H 0.73687 0.27673 0.87763 0.0
H390 H 0.71021 0.27179 0.88956 0.0
H391 H 0.68971 0.28768 0.82834 0.0
H392 H 0.71648 0.29284 0.81675 0.0
H393 H 0.74592 0.30563 0.80325 0.0
H394 H 0.7545 0.29529 0.76899 0.0
H395 H 0.76046 0.24871 0.79597 0.0
N396 N 0.74454 0.28914 0.84091 0.0
H397 H 0.75293 0.25957 0.83083 0.0
C398 C 0.79338 0.25439 0.69034 0.0
C399 C 0.79338 0.25983 0.66923 0.0
C400 C 0.80752 0.26465 0.6607 0.0
C401 C 0.82204 0.26419 0.67321 0.0
C402 C 0.82193 0.25925 0.69467 0.0
C403 C 0.80779 0.2543 0.70311 0.0
C404 C 0.77637 0.23113 0.69147 0.0
C405 C 0.78768 0.2194 0.69703 0.0
C406 C 0.78586 0.20387 0.6885 0.0
C407 C 0.77271 0.19976 0.6743 0.0
C408 C 0.76105 0.21137 0.66966 0.0
C409 C 0.76291 0.22688 0.67815 0.0
C410 C 0.77378 0.25301 0.71819 0.0
C411 C 0.76225 0.26498 0.71894 0.0
C412 C 0.75705 0.27067 0.73871 0.0
C413 C 0.76348 0.26467 0.75832 0.0
C414 C 0.77501 0.25253 0.75746 0.0
C415 C 0.77996 0.24664 0.73762 0.0
C416 C 0.74956 0.30499 0.84793 0.0
C417 C 0.74054 0.31852 0.8424 0.0
C418 C 0.74494 0.33352 0.8511 0.0
C419 C 0.75841 0.33533 0.86558 0.0
C420 C 0.76763 0.32184 0.87062 0.0
C421 C 0.76323 0.30684 0.86185 0.0
C422 C 0.72867 0.2851 0.84639 0.0
C423 C 0.7266 0.27895 0.86673 0.0
C424 C 0.71136 0.27608 0.87345 0.0
C425 C 0.6978 0.27933 0.8599 0.0
C426 C 0.6999 0.28521 0.83926 0.0
C427 C 0.71519 0.28806 0.83255 0.0
C428 C 0.74905 0.28342 0.81993 0.0
C429 C 0.74922 0.29325 0.80201 0.0
C430 C 0.75398 0.2872 0.78215 0.0
C431 C 0.75828 0.2711 0.77951 0.0
C432 C 0.75765 0.26124 0.79736 0.0
C433 C 0.75321 0.26738 0.81731 0.0
H434 H 0.76364 0.79697 0.65576 0.0
N435 N 0.78452 0.78126 0.68072 0.0
H436 H 0.76044 0.82574 0.65386 0.0
H437 H 0.79916 0.80356 0.70836 0.0
H438 H 0.79543 0.83222 0.70753 0.0
H439 H 0.81063 0.77629 0.70834 0.0
H440 H 0.83822 0.77365 0.69794 0.0
H441 H 0.79427 0.77753 0.64121 0.0
H442 H 0.8217 0.77479 0.63067 0.0
H443 H 0.76835 0.75488 0.67018 0.0
H444 H 0.78368 0.78518 0.72486 0.0
H445 H 0.75372 0.73827 0.6938 0.0
H446 H 0.76836 0.7694 0.74827 0.0
H447 H 0.69142 0.70579 0.78016 0.0
H448 H 0.67006 0.71827 0.79946 0.0
H449 H 0.70005 0.75937 0.81449 0.0
H450 H 0.72157 0.74641 0.79613 0.0
H451 H 0.73329 0.72239 0.8184 0.0
H452 H 0.74542 0.70305 0.84276 0.0
H453 H 0.73853 0.6663 0.79279 0.0
H454 H 0.72655 0.68591 0.76828 0.0
H455 H 0.71448 0.7231 0.73593 0.0
H456 H 0.7305 0.73867 0.71273 0.0
H457 H 0.76618 0.74536 0.76551 0.0
N458 N 0.7208 0.71644 0.77706 0.0
H459 H 0.74969 0.73077 0.78878 0.0
C460 C 0.7815 0.7981 0.68219 0.0
C461 C 0.7704 0.80465 0.66728 0.0
C462 C 0.76855 0.82111 0.66636 0.0
C463 C 0.77771 0.83138 0.68054 0.0
C464 C 0.78836 0.82472 0.69614 0.0
C465 C 0.79036 0.80826 0.69682 0.0
C466 C 0.80044 0.77713 0.67544 0.0
C467 C 0.81295 0.77566 0.69138 0.0
C468 C 0.82868 0.77414 0.68542 0.0
C469 C 0.83209 0.77422 0.66351 0.0
C470 C 0.81945 0.77494 0.64768 0.0
C471 C 0.8038 0.77636 0.65363 0.0
C472 C 0.77691 0.77137 0.69557 0.0
C473 C 0.7685 0.75796 0.68728 0.0
C474 C 0.76002 0.7486 0.7008 0.0
C475 C 0.75962 0.75259 0.72297 0.0
C476 C 0.76846 0.76584 0.73136 0.0
C477 C 0.77715 0.77504 0.71786 0.0
C478 C 0.70802 0.72512 0.78652 0.0
C479 C 0.69327 0.71757 0.78741 0.0
C480 C 0.68105 0.7248 0.79836 0.0
C481 C 0.68328 0.73988 0.80857 0.0
C482 C 0.69796 0.74767 0.80711 0.0
C483 C 0.71026 0.74033 0.79635 0.0
C484 C 0.72888 0.70552 0.79149 0.0
C485 C 0.73443 0.71021 0.81261 0.0
C486 C 0.74134 0.69912 0.82657 0.0
C487 C 0.74283 0.68312 0.81976 0.0
C488 C 0.73768 0.67856 0.79846 0.0
C489 C 0.73077 0.68969 0.78448 0.0
C490 C 0.73086 0.72553 0.76397 0.0
C491 C 0.72576 0.72797 0.74242 0.0
C492 C 0.73503 0.73675 0.72916 0.0
C493 C 0.74976 0.74319 0.73713 0.0
C494 C 0.75484 0.74077 0.75882 0.0
C495 C 0.74544 0.73219 0.77216 0.0
C496 C 0.03393 0.28561 0.55742 0.0
C497 C 0.03916 0.30013 0.56652 0.0
C498 C 0.03242 0.31162 0.55393 0.0
C499 C 0.02341 0.30352 0.53804 0.0
N500 N 0.02376 0.28753 0.53989 0.0
Co501 Co 0.01234 0.27124 0.52037 0.0
N502 N 0.00309 0.28812 0.50123 0.0
C503 C 0.00563 0.30398 0.50331 0.0
C504 C 0.99743 0.31257 0.48786 0.0
C505 C 0.98891 0.30156 0.47536 0.0
C506 C 0.99238 0.28686 0.48405 0.0
N507 N 0.00092 0.25493 0.50075 0.0
C508 C 0.99026 0.2569 0.48374 0.0
C509 C 0.98449 0.2424 0.47523 0.0
C510 C 0.99168 0.23089 0.48734 0.0
C511 C 0.00132 0.23895 0.50256 0.0
N512 N 0.02157 0.25434 0.5396 0.0
C513 C 0.01918 0.23846 0.53725 0.0
C514 C 0.02768 0.22979 0.55228 0.0
C515 C 0.03618 0.24074 0.56489 0.0
C516 C 0.03225 0.25557 0.55688 0.0
N517 N 0.99343 0.27283 0.53798 0.0
C518 C 0.96572 0.27497 0.56122 0.0
C519 C 0.97174 0.26023 0.55479 0.0
C520 C 0.98553 0.25943 0.54341 0.0
C521 C 0.97394 0.28864 0.55615 0.0
C522 C 0.98762 0.28731 0.54452 0.0
N523 N 0.03124 0.26963 0.50269 0.0
C524 C 0.05064 0.25359 0.48476 0.0
C525 C 0.05844 0.26714 0.4784 0.0
C526 C 0.05233 0.28199 0.48425 0.0
C527 C 0.03887 0.28295 0.49638 0.0
C528 C 0.03718 0.25509 0.4967 0.0
H529 H 0.03496 0.2946 0.5006 0.0
H530 H 0.03185 0.24428 0.50094 0.0
H531 H 0.98948 0.24784 0.53905 0.0
H532 H 0.99317 0.29816 0.5408 0.0
C533 C 0.01499 0.31054 0.52073 0.0
C534 C 0.03961 0.27038 0.56541 0.0
C535 C 0.98448 0.27222 0.47616 0.0
C536 C 0.00982 0.23194 0.51981 0.0
H537 H 0.04729 0.30217 0.58055 0.0
H538 H 0.03414 0.32434 0.55588 0.0
H539 H 0.9973 0.32534 0.48627 0.0
H540 H 0.98072 0.30407 0.46174 0.0
H541 H 0.97563 0.24029 0.46207 0.0
H542 H 0.98965 0.21819 0.48576 0.0
H543 H 0.0281 0.21698 0.55346 0.0
H544 H 0.04462 0.23797 0.57808 0.0
H545 H 0.9659 0.2493 0.55864 0.0
H546 H 0.96965 0.30033 0.5607 0.0
H547 H 0.0548 0.24181 0.48035 0.0
H548 H 0.05807 0.29284 0.47984 0.0
C549 C 0.75483 0.04217 0.54889 0.0
C550 C 0.74038 0.04813 0.55522 0.0
C551 C 0.72878 0.03861 0.54545 0.0
C552 C 0.73675 0.02741 0.5338 0.0
N553 N 0.75279 0.02908 0.53568 0.0
Co554 Co 0.76888 0.01566 0.52088 0.0
N555 N 0.75175 0.00178 0.50625 0.0
C556 C 0.73591 0.00279 0.50872 0.0
C557 C 0.72715 0.99119 0.49749 0.0
C558 C 0.73803 0.98211 0.48734 0.0
C559 C 0.75287 0.98879 0.49288 0.0
N560 N 0.78493 0.00258 0.50553 0.0
C561 C 0.78287 0.98987 0.49166 0.0
C562 C 0.79723 0.98464 0.48411 0.0
C563 C 0.80881 0.99421 0.49385 0.0
C564 C 0.8009 0.00476 0.50658 0.0
N565 N 0.78603 0.02923 0.536 0.0
C566 C 0.80193 0.02754 0.5347 0.0
C567 C 0.81076 0.0386 0.54691 0.0
C568 C 0.79987 0.04796 0.55658 0.0
C569 C 0.78494 0.04203 0.54971 0.0
N570 N 0.77032 0.00102 0.54542 0.0
C571 C 0.77198 0.97895 0.5788 0.0
C572 C 0.78558 0.98315 0.56842 0.0
C573 C 0.78451 0.99421 0.55206 0.0
C574 C 0.75765 0.98641 0.57259 0.0
C575 C 0.75707 0.9972 0.55596 0.0
N576 N 0.76741 0.0303 0.49641 0.0
C577 C 0.77987 0.04814 0.47271 0.0
C578 C 0.76502 0.05309 0.46415 0.0
C579 C 0.75142 0.04598 0.47133 0.0
C580 C 0.75288 0.03462 0.4872 0.0
C581 C 0.78079 0.03684 0.48875 0.0
H582 H 0.74206 0.02971 0.49203 0.0
H583 H 0.79242 0.03384 0.49502 0.0
H584 H 0.79531 0.99685 0.54483 0.0
H585 H 0.74571 0.00214 0.55184 0.0
C586 C 0.72958 0.01494 0.52141 0.0
C587 C 0.77012 0.04936 0.55592 0.0
C588 C 0.76768 0.98211 0.4855 0.0
C589 C 0.80818 0.01623 0.52063 0.0
H590 H 0.73843 0.05831 0.56583 0.0
H591 H 0.71605 0.03968 0.54674 0.0
H592 H 0.71438 0.98949 0.49685 0.0
H593 H 0.73532 0.97165 0.47718 0.0
H594 H 0.79917 0.97481 0.47291 0.0
H595 H 0.82151 0.9934 0.49212 0.0
H596 H 0.82358 0.03995 0.54817 0.0
H597 H 0.80261 0.05819 0.56716 0.0
H598 H 0.79697 0.97765 0.57241 0.0
H599 H 0.74682 0.9839 0.58042 0.0
H600 H 0.79074 0.05339 0.46766 0.0
H601 H 0.73967 0.0493 0.46487 0.0
C602 C 0.04359 0.7883 0.53689 0.0
C603 C 0.05016 0.80298 0.5433 0.0
C604 C 0.04131 0.8142 0.53268 0.0
C605 C 0.02998 0.80581 0.52029 0.0
N606 N 0.03095 0.78987 0.52243 0.0
Co607 Co 0.01755 0.77321 0.50605 0.0
N608 N 0.00476 0.7898 0.49016 0.0
C609 C 0.00653 0.80577 0.49228 0.0
C610 C 0.99572 0.81413 0.4797 0.0
C611 C 0.98631 0.80284 0.46908 0.0
C612 C 0.99195 0.7882 0.47589 0.0
N613 N 0.00438 0.75655 0.48933 0.0
C614 C 0.99182 0.75812 0.47476 0.0
C615 C 0.98595 0.74344 0.46714 0.0
C616 C 0.99507 0.73219 0.4773 0.0
C617 C 0.00593 0.74059 0.49052 0.0
N618 N 0.03008 0.75663 0.52231 0.0
C619 C 0.02789 0.74069 0.5207 0.0
C620 C 0.03796 0.73235 0.53436 0.0
C621 C 0.04723 0.74361 0.54527 0.0
C622 C 0.04235 0.75823 0.53744 0.0
N623 N 0.002 0.77391 0.52886 0.0
C624 C 0.97856 0.77504 0.55944 0.0
C625 C 0.98363 0.76053 0.55071 0.0
C626 C 0.99526 0.76024 0.5356 0.0
C627 C 0.98574 0.78894 0.55301 0.0
C628 C 0.99735 0.78811 0.53789 0.0
N629 N 0.0331 0.77251 0.48319 0.0
C630 C 0.05073 0.75766 0.46068 0.0
C631 C 0.05586 0.77161 0.45164 0.0
C632 C 0.04926 0.78599 0.45849 0.0
C633 C 0.03804 0.78617 0.47414 0.0
C634 C 0.03942 0.75837 0.47623 0.0
H635 H 0.03365 0.79754 0.47877 0.0
H636 H 0.03603 0.74732 0.48244 0.0
H637 H 0.99841 0.74883 0.52936 0.0
H638 H 0.00227 0.79913 0.53357 0.0
C639 C 0.01842 0.81256 0.50632 0.0
C640 C 0.05005 0.77321 0.54452 0.0
C641 C 0.98454 0.77317 0.46857 0.0
C642 C 0.01679 0.73386 0.50551 0.0
H643 H 0.06043 0.80541 0.55426 0.0
H644 H 0.04308 0.82696 0.53364 0.0
H645 H 0.99471 0.8269 0.47854 0.0
H646 H 0.97633 0.80512 0.45774 0.0
H647 H 0.97587 0.74107 0.45581 0.0
H648 H 0.99364 0.71941 0.47576 0.0
H649 H 0.03863 0.71959 0.53597 0.0
H650 H 0.05664 0.74129 0.55745 0.0
H651 H 0.97833 0.74943 0.55501 0.0
H652 H 0.9824 0.80046 0.55958 0.0
H653 H 0.05535 0.74619 0.45569 0.0
H654 H 0.05299 0.79716 0.45215 0.0
C655 C 0.28566 0.98685 0.54378 0.0
C656 C 0.30045 0.98172 0.55196 0.0
C657 C 0.31153 0.99112 0.54346 0.0
C658 C 0.30291 0.00147 0.53074 0.0
N659 N 0.28698 0.99923 0.53052 0.0
Co660 Co 0.27009 0.01211 0.5149 0.0
N661 N 0.28644 0.02532 0.50144 0.0
C662 C 0.30242 0.02342 0.50331 0.0
C663 C 0.31059 0.03394 0.4917 0.0
C664 C 0.29915 0.04311 0.48173 0.0
C665 C 0.28461 0.03768 0.48799 0.0
N666 N 0.25319 0.02552 0.50017 0.0
C667 C 0.25452 0.03827 0.48758 0.0
C668 C 0.23974 0.04463 0.48153 0.0
C669 C 0.22866 0.03555 0.49057 0.0
C670 C 0.23726 0.02428 0.50168 0.0
N671 N 0.25372 0.99836 0.52746 0.0
C672 C 0.23772 0.99931 0.52392 0.0
C673 C 0.22955 0.98788 0.53396 0.0
C674 C 0.24099 0.97902 0.54444 0.0
C675 C 0.25556 0.98565 0.54028 0.0
N676 N 0.27019 0.02705 0.5403 0.0
C677 C 0.26952 0.05053 0.57367 0.0
C678 C 0.25593 0.04165 0.56715 0.0
C679 C 0.2565 0.03014 0.55054 0.0
C680 C 0.28366 0.04685 0.56391 0.0
C681 C 0.28376 0.03506 0.54756 0.0
N682 N 0.26994 0.99724 0.48942 0.0
C683 C 0.25566 0.98365 0.45925 0.0
C684 C 0.26952 0.97597 0.45347 0.0
C685 C 0.28364 0.97915 0.46585 0.0
C686 C 0.28361 0.98986 0.48353 0.0
C687 C 0.2561 0.99407 0.47721 0.0
H688 H 0.29479 0.99192 0.49218 0.0
H689 H 0.24505 0.99929 0.48096 0.0
H690 H 0.24562 0.02412 0.54608 0.0
H691 H 0.29489 0.03289 0.54073 0.0
C692 C 0.30943 0.01251 0.51747 0.0
C693 C 0.27075 0.97945 0.5489 0.0
C694 C 0.26944 0.04479 0.48096 0.0
C695 C 0.23073 0.01174 0.51239 0.0
H696 H 0.30298 0.97208 0.56279 0.0
H697 H 0.32435 0.99032 0.54594 0.0
H698 H 0.32336 0.03501 0.49091 0.0
H699 H 0.30127 0.05282 0.47123 0.0
H700 H 0.23722 0.05475 0.47153 0.0
H701 H 0.21585 0.03688 0.48901 0.0
H702 H 0.21677 0.98632 0.5339 0.0
H703 H 0.23886 0.96886 0.55415 0.0
H704 H 0.24478 0.04368 0.5746 0.0
H705 H 0.29454 0.05336 0.5683 0.0
H706 H 0.2444 0.98136 0.45025 0.0
H707 H 0.29469 0.9735 0.46182 0.0
C708 C 0.54221 0.79021 0.04187 0.0
C709 C 0.54822 0.8048 0.04971 0.0
C710 C 0.54334 0.81585 0.03493 0.0
C711 C 0.53451 0.8075 0.01904 0.0
N712 N 0.5334 0.79192 0.02307 0.0
Co713 Co 0.52147 0.77575 0.00462 0.0
N714 N 0.50884 0.79229 0.98938 0.0
C715 C 0.51269 0.80775 0.98849 0.0
C716 C 0.50151 0.81628 0.97662 0.0
C717 C 0.48997 0.80544 0.96961 0.0
C718 C 0.49476 0.7909 0.97771 0.0
N719 N 0.50962 0.75964 0.98602 0.0
C720 C 0.49541 0.76093 0.97479 0.0
C721 C 0.49102 0.74652 0.96458 0.0
C722 C 0.50315 0.73604 0.96928 0.0
C723 C 0.51415 0.74452 0.98222 0.0
N724 N 0.53409 0.75915 0.01978 0.0
C725 C 0.53621 0.74413 0.01237 0.0
C726 C 0.54604 0.73545 0.02597 0.0
C727 C 0.55049 0.74571 0.04288 0.0
C728 C 0.54303 0.76013 0.03867 0.0
N729 N 0.50538 0.77464 0.02585 0.0
C730 C 0.48065 0.77306 0.05382 0.0
C731 C 0.4873 0.75917 0.0452 0.0
C732 C 0.49969 0.76021 0.03137 0.0
C733 C 0.48696 0.78776 0.04861 0.0
C734 C 0.49929 0.78829 0.03458 0.0
N735 N 0.53754 0.77685 0.98327 0.0
C736 C 0.56503 0.77655 0.97471 0.0
C737 C 0.5606 0.77688 0.95255 0.0
C738 C 0.54433 0.77753 0.9462 0.0
C739 C 0.53303 0.77744 0.96176 0.0
C740 C 0.55337 0.77664 0.98974 0.0
H741 H 0.52061 0.77769 0.95633 0.0
H742 H 0.55719 0.77627 0.00662 0.0
H743 H 0.50449 0.74934 0.02481 0.0
H744 H 0.50366 0.79976 0.03043 0.0
C745 C 0.52504 0.81418 0.00226 0.0
C746 C 0.5461 0.77486 0.05164 0.0
C747 C 0.48637 0.77582 0.97283 0.0
C748 C 0.52697 0.73803 0.99444 0.0
H749 H 0.55545 0.80723 0.06448 0.0
H750 H 0.54548 0.82854 0.03609 0.0
H751 H 0.50139 0.82895 0.97415 0.0
H752 H 0.47928 0.80794 0.95967 0.0
H753 H 0.48019 0.74373 0.95492 0.0
H754 H 0.50347 0.72352 0.96475 0.0
H755 H 0.54928 0.72305 0.02412 0.0
H756 H 0.55856 0.74293 0.0565 0.0
H757 H 0.48294 0.74755 0.04907 0.0
H758 H 0.4821 0.79879 0.05479 0.0
H759 H 0.57741 0.7758 0.98048 0.0
H760 H 0.54029 0.77808 0.92932 0.0
C761 C 0.26227 0.53865 0.05523 0.0
C762 C 0.24828 0.54478 0.06283 0.0
C763 C 0.23606 0.53705 0.05145 0.0
C764 C 0.24326 0.52667 0.03767 0.0
N765 N 0.25936 0.52718 0.03967 0.0
Co766 Co 0.27459 0.5142 0.02278 0.0
N767 N 0.2566 0.50358 0.00509 0.0
C768 C 0.24084 0.50643 0.00621 0.0
C769 C 0.23138 0.49709 0.9922 0.0
C770 C 0.24169 0.48757 0.98164 0.0
C771 C 0.25689 0.49168 0.98989 0.0
N772 N 0.28981 0.50101 0.00613 0.0
C773 C 0.28687 0.48921 0.99105 0.0
C774 C 0.30084 0.48266 0.98398 0.0
C775 C 0.31309 0.49046 0.9952 0.0
C776 C 0.30592 0.50127 0.00842 0.0
N777 N 0.2926 0.52498 0.04028 0.0
C778 C 0.30838 0.52256 0.03856 0.0
C779 C 0.31786 0.53209 0.05229 0.0
C780 C 0.30754 0.54129 0.0633 0.0
C781 C 0.2923 0.53678 0.05563 0.0
N782 N 0.27404 0.49724 0.04432 0.0
C783 C 0.27333 0.47292 0.07456 0.0
C784 C 0.28776 0.47874 0.06806 0.0
C785 C 0.28784 0.49076 0.05304 0.0
C786 C 0.25925 0.4795 0.06566 0.0
C787 C 0.25988 0.49156 0.05075 0.0
N788 N 0.27516 0.5312 0.00127 0.0
C789 C 0.29002 0.54836 0.97922 0.0
C790 C 0.27622 0.55662 0.9727 0.0
C791 C 0.26181 0.55164 0.98034 0.0
C792 C 0.26155 0.53901 0.99441 0.0
C793 C 0.28922 0.53583 0.99335 0.0
H794 H 0.25022 0.53596 -0.00023 0.0
H795 H 0.3002 0.53018 0.99779 0.0
H796 H 0.29923 0.49453 0.04865 0.0
H797 H 0.24873 0.49608 0.04462 0.0
C798 C 0.23526 0.51705 0.02176 0.0
C799 C 0.27798 0.54453 0.06275 0.0
C800 C 0.27114 0.4834 0.98358 0.0
C801 C 0.31394 0.51146 0.02361 0.0
H802 H 0.24706 0.55408 0.07508 0.0
H803 H 0.22344 0.53904 0.05271 0.0
H804 H 0.2185 0.49689 0.99037 0.0
H805 H 0.23839 0.47837 0.96959 0.0
H806 H 0.30204 0.47304 0.97218 0.0
H807 H 0.3257 0.4883 0.99415 0.0
H808 H 0.33074 0.53247 0.05386 0.0
H809 H 0.31087 0.55046 0.07536 0.0
H810 H 0.299 0.47387 0.07424 0.0
H811 H 0.24776 0.47551 0.07035 0.0
H812 H 0.30145 0.55154 0.97346 0.0
H813 H 0.25078 0.55771 0.97596 0.0
C814 C 0.4939 0.28985 0.98858 0.0
C815 C 0.48921 0.30536 0.98441 0.0
C816 C 0.49476 0.31464 0.00181 0.0
C817 C 0.50265 0.30439 0.0155 0.0
N818 N 0.50261 0.28927 0.00764 0.0
Co819 Co 0.51299 0.27087 0.02193 0.0
N820 N 0.52628 0.28503 0.04179 0.0
C821 C 0.5235 0.30046 0.04651 0.0
C822 C 0.53492 0.30712 0.06079 0.0
C823 C 0.54549 0.29509 0.06536 0.0
C824 C 0.53987 0.28173 0.05356 0.0
N825 N 0.52342 0.25255 0.03627 0.0
C826 C 0.53729 0.25201 0.04845 0.0
C827 C 0.54032 0.23676 0.05552 0.0
C828 C 0.52778 0.22747 0.04747 0.0
C829 C 0.51787 0.23755 0.03599 0.0
N830 N 0.49962 0.25662 0.00225 0.0
C831 C 0.4966 0.24117 0.00541 0.0
C832 C 0.48644 0.23441 0.98957 0.0
C833 C 0.48268 0.2464 0.97574 0.0
C834 C 0.49081 0.25989 0.98392 0.0
N835 N 0.5295 0.27085 0.00114 0.0
C836 C 0.55403 0.27077 0.9726 0.0
C837 C 0.54639 0.2566 0.97731 0.0
C838 C 0.53416 0.25691 0.99157 0.0
C839 C 0.54894 0.285 0.98231 0.0
C840 C 0.5367 0.28478 0.99647 0.0
N841 N 0.49648 0.27091 0.0428 0.0
C842 C 0.48878 0.26864 0.07932 0.0
C843 C 0.47272 0.27081 0.07259 0.0
C844 C 0.4689 0.27311 0.05058 0.0
C845 C 0.48088 0.27302 0.03602 0.0
C846 C 0.50044 0.26881 0.06423 0.0
H847 H 0.47745 0.27472 0.01924 0.0
H848 H 0.51268 0.26717 0.06994 0.0
H849 H 0.52857 0.24582 0.995 0.0
H850 H 0.5332 0.29588 0.00388 0.0
C851 C 0.51208 0.30884 0.03409 0.0
C852 C 0.48823 0.27588 0.97545 0.0
C853 C 0.54714 0.26593 0.05474 0.0
C854 C 0.50503 0.23298 0.02175 0.0
H855 H 0.48221 0.30949 0.97047 0.0
H856 H 0.49355 0.32739 0.00392 0.0
H857 H 0.53589 0.31942 0.06639 0.0
H858 H 0.55612 0.29607 0.07607 0.0
H859 H 0.55047 0.23278 0.06549 0.0
H860 H 0.52643 0.21478 0.04905 0.0
H861 H 0.48245 0.22217 0.98805 0.0
H862 H 0.47452 0.24537 0.96158 0.0
H863 H 0.54978 0.24535 0.97 0.0
H864 H 0.55462 0.29621 0.97941 0.0
H865 H 0.49237 0.26662 0.09607 0.0
H866 H 0.45674 0.27516 0.04458 0.0
C867 C 0.75404 0.53965 0.05022 0.0
C868 C 0.73894 0.54419 0.05586 0.0
C869 C 0.72834 0.53568 0.04258 0.0
C870 C 0.73752 0.52644 0.02968 0.0
N871 N 0.75337 0.5285 0.03394 0.0
Co872 Co 0.77097 0.51723 0.01926 0.0
N873 N 0.75533 0.50533 0.99897 0.0
C874 C 0.73931 0.50705 0.9975 0.0
C875 C 0.73172 0.49714 0.98223 0.0
C876 C 0.74356 0.48845 0.97354 0.0
C877 C 0.75777 0.4936 0.98404 0.0
N878 N 0.78852 0.50546 0.00515 0.0
C879 C 0.78775 0.49331 0.99022 0.0
C880 C 0.80279 0.48792 0.98558 0.0
C881 C 0.81346 0.49678 0.99832 0.0
C882 C 0.80436 0.50704 0.00994 0.0
N883 N 0.78661 0.52955 0.03902 0.0
C884 C 0.80268 0.52886 0.03919 0.0
C885 C 0.81028 0.53915 0.05399 0.0
C886 C 0.79835 0.54704 0.06373 0.0
C887 C 0.78413 0.54104 0.05428 0.0
N888 N 0.77027 0.50006 0.04032 0.0
C889 C 0.76945 0.47419 0.06786 0.0
C890 C 0.78362 0.4824 0.06558 0.0
C891 C 0.78378 0.49519 0.05174 0.0
C892 C 0.75563 0.47944 0.05668 0.0
C893 C 0.75627 0.49234 0.04325 0.0
N894 N 0.77169 0.53441 0.99809 0.0
C895 C 0.78654 0.55186 0.97639 0.0
C896 C 0.77256 0.55946 0.96913 0.0
C897 C 0.75816 0.55418 0.97628 0.0
C898 C 0.75798 0.54171 0.99052 0.0
C899 C 0.78584 0.5395 0.99085 0.0
H900 H 0.74659 0.53827 0.9952 0.0
H901 H 0.79693 0.53437 0.99604 0.0
H902 H 0.795 0.50079 0.0503 0.0
H903 H 0.74532 0.49573 0.03521 0.0
C904 C 0.73164 0.51668 0.01238 0.0
C905 C 0.76859 0.54674 0.06025 0.0
C906 C 0.77312 0.4863 0.9803 0.0
C907 C 0.81029 0.51813 0.02562 0.0
H908 H 0.73591 0.55297 0.06805 0.0
H909 H 0.71548 0.53643 0.04202 0.0
H910 H 0.71903 0.49589 0.97853 0.0
H911 H 0.74183 0.47903 0.96134 0.0
H912 H 0.80572 0.47843 0.97432 0.0
H913 H 0.8263 0.49573 0.99923 0.0
H914 H 0.82297 0.54074 0.05728 0.0
H915 H 0.79993 0.55621 0.07632 0.0
H916 H 0.79462 0.47872 0.07397 0.0
H917 H 0.7443 0.47361 0.05832 0.0
H918 H 0.79799 0.55563 0.97132 0.0
H919 H 0.74699 0.55956 0.97077 0.0
C920 C 0.18046 0.23807 0.3872 0.0
C921 C 0.18241 0.24565 0.36767 0.0
C922 C 0.16706 0.24104 0.39886 0.0
C923 C 0.13493 0.26983 0.40713 0.0
H924 H 0.11372 0.23364 0.42988 0.0
C925 C 0.07485 0.27516 0.44799 0.0
C926 C 0.07289 0.26568 0.4659 0.0
C927 C 0.08818 0.27324 0.43575 0.0
C928 C 0.11961 0.24391 0.4239 0.0
H929 H 0.17193 0.26254 0.34526 0.0
H930 H 0.14839 0.26773 0.36571 0.0
H931 H 0.13703 0.22942 0.40907 0.0
H932 H 0.08367 0.24722 0.48552 0.0
H933 H 0.10697 0.24401 0.46444 0.0
H934 H 0.11759 0.28434 0.4222 0.0
C935 C 0.15732 0.25951 0.37197 0.0
C936 C 0.13295 0.24148 0.41192 0.0
C937 C 0.17071 0.25645 0.3602 0.0
C938 C 0.0847 0.2545 0.47158 0.0
C939 C 0.09804 0.25264 0.45945 0.0
C940 C 0.1216 0.27228 0.41924 0.0
C941 C 0.15528 0.25171 0.39133 0.0
C942 C 0.14083 0.2544 0.40353 0.0
C943 C 0.09988 0.26184 0.44123 0.0
C944 C 0.11384 0.25935 0.42791 0.0
H945 H 0.18916 0.22955 0.39327 0.0
H946 H 0.16591 0.23497 0.41384 0.0
H947 H 0.14084 0.28003 0.40101 0.0
H948 H 0.06587 0.28378 0.44311 0.0
H949 H 0.08913 0.28041 0.4217 0.0
C950 C 0.77193 0.17278 0.3566 0.0
C951 C 0.76635 0.18525 0.36983 0.0
C952 C 0.77048 0.15695 0.36243 0.0
C953 C 0.74807 0.13034 0.39463 0.0
H954 H 0.78749 0.10706 0.40456 0.0
C955 C 0.753 0.07878 0.45254 0.0
C956 C 0.76366 0.06629 0.44893 0.0
C957 C 0.75229 0.0918 0.43916 0.0
C958 C 0.7763 0.11317 0.40141 0.0
H959 H 0.75472 0.19057 0.39956 0.0
H960 H 0.75159 0.16303 0.40902 0.0
H961 H 0.78776 0.13259 0.38702 0.0
H962 H 0.78159 0.05733 0.42812 0.0
H963 H 0.78009 0.07994 0.40427 0.0
H964 H 0.73652 0.11108 0.40896 0.0
C965 C 0.7571 0.16558 0.39418 0.0
C966 C 0.7765 0.12782 0.39142 0.0
C967 C 0.75883 0.18139 0.38863 0.0
C968 C 0.77336 0.06689 0.43135 0.0
C969 C 0.77252 0.07986 0.41775 0.0
C970 C 0.74781 0.11559 0.40428 0.0
C971 C 0.76311 0.15325 0.38132 0.0
C972 C 0.76246 0.13672 0.38856 0.0
C973 C 0.76209 0.09258 0.42166 0.0
C974 C 0.76201 0.10706 0.40847 0.0
H975 H 0.77752 0.17522 0.3418 0.0
H976 H 0.77515 0.14758 0.35223 0.0
H977 H 0.73707 0.13695 0.39235 0.0
H978 H 0.74557 0.07875 0.4662 0.0
H979 H 0.7444 0.1015 0.44306 0.0
C980 C 0.85476 0.78927 0.36971 0.0
C981 C 0.8456 0.77526 0.36795 0.0
C982 C 0.87045 0.78905 0.37849 0.0
C983 C 0.90439 0.7625 0.39299 0.0
H984 H 0.91616 0.7965 0.4346 0.0
C985 C 0.96803 0.76925 0.43376 0.0
C986 C 0.969 0.77325 0.45592 0.0
C987 C 0.95335 0.76955 0.4219 0.0
C988 C 0.91304 0.78688 0.4231 0.0
H989 H 0.84604 0.74989 0.37313 0.0
H990 H 0.87336 0.74956 0.38881 0.0
H991 H 0.89002 0.79671 0.41545 0.0
H992 H 0.95575 0.78074 0.4832 0.0
H993 H 0.92999 0.78121 0.46261 0.0
H994 H 0.92731 0.75247 0.40114 0.0
C995 C 0.86842 0.7607 0.38327 0.0
C996 C 0.89813 0.7871 0.41191 0.0
C997 C 0.85271 0.76093 0.37449 0.0
C998 C 0.95518 0.77763 0.46609 0.0
C999 C 0.94051 0.77797 0.45426 0.0
C1000 C 0.91935 0.7623 0.40417 0.0
C1001 C 0.87738 0.77482 0.38573 0.0
C1002 C 0.89357 0.77487 0.39682 0.0
C1003 C 0.93942 0.77396 0.43202 0.0
C1004 C 0.92378 0.77442 0.4195 0.0
H1005 H 0.84964 0.80056 0.36505 0.0
H1006 H 0.8771 0.8001 0.37987 0.0
H1007 H 0.9013 0.75297 0.38134 0.0
H1008 H 0.97865 0.76595 0.42567 0.0
H1009 H 0.95293 0.76658 0.40476 0.0
C1010 C 0.24149 0.87611 0.30731 0.0
C1011 C 0.24382 0.8609 0.31582 0.0
C1012 C 0.24592 0.88976 0.31968 0.0
C1013 C 0.27181 0.9041 0.36593 0.0
H1014 H 0.23928 0.93596 0.37429 0.0
C1015 C 0.2759 0.94923 0.43759 0.0
C1016 C 0.26905 0.96431 0.43509 0.0
C1017 C 0.27433 0.93774 0.42085 0.0
C1018 C 0.24865 0.9274 0.37182 0.0
H1019 H 0.2526 0.84829 0.3442 0.0
H1020 H 0.26076 0.87203 0.36531 0.0
H1021 H 0.23396 0.9139 0.34846 0.0
H1022 H 0.25584 0.97953 0.41288 0.0
H1023 H 0.25349 0.95964 0.38334 0.0
H1024 H 0.28655 0.91751 0.38919 0.0
C1025 C 0.25559 0.87333 0.34903 0.0
C1026 C 0.24556 0.91474 0.35705 0.0
C1027 C 0.25095 0.85972 0.33684 0.0
C1028 C 0.26107 0.9679 0.41528 0.0
C1029 C 0.25967 0.95648 0.39843 0.0
C1030 C 0.275 0.91687 0.38048 0.0
C1031 C 0.25299 0.88847 0.34065 0.0
C1032 C 0.25697 0.9028 0.35433 0.0
C1033 C 0.26604 0.94115 0.40113 0.0
C1034 C 0.26332 0.9285 0.38399 0.0
H1035 H 0.23626 0.87748 0.29108 0.0
H1036 H 0.24387 0.90133 0.31284 0.0
H1037 H 0.28087 0.89512 0.36391 0.0
H1038 H 0.28196 0.94611 0.45279 0.0
H1039 H 0.27915 0.926 0.42371 0.0
C1040 C 0.18211 0.7662 0.6373 0.0
C1041 C 0.18547 0.77734 0.65437 0.0
C1042 C 0.16683 0.765 0.6272 0.0
C1043 C 0.1292 0.78795 0.61971 0.0
H1044 H 0.11321 0.74792 0.59433 0.0
C1045 C 0.06548 0.77974 0.57963 0.0
C1046 C 0.06499 0.773 0.55861 0.0
C1047 C 0.07967 0.77979 0.59262 0.0
C1048 C 0.11757 0.75917 0.60134 0.0
H1049 H 0.17506 0.79568 0.67449 0.0
H1050 H 0.14831 0.79295 0.65773 0.0
H1051 H 0.13864 0.74857 0.6155 0.0
H1052 H 0.07861 0.76074 0.53475 0.0
H1053 H 0.1034 0.76043 0.55771 0.0
H1054 H 0.10786 0.79841 0.60579 0.0
C1055 C 0.15761 0.78546 0.65166 0.0
C1056 C 0.13217 0.75959 0.61337 0.0
C1057 C 0.17296 0.78684 0.66156 0.0
C1058 C 0.07877 0.76599 0.55094 0.0
C1059 C 0.09287 0.76578 0.56405 0.0
C1060 C 0.11447 0.78746 0.60798 0.0
C1061 C 0.15439 0.77472 0.63409 0.0
C1062 C 0.13832 0.77404 0.62247 0.0
C1063 C 0.09349 0.7728 0.58495 0.0
C1064 C 0.10863 0.77311 0.59845 0.0
H1065 H 0.19132 0.75846 0.63154 0.0
H1066 H 0.16493 0.7567 0.61358 0.0
H1067 H 0.1336 0.79936 0.62607 0.0
H1068 H 0.05492 0.78507 0.58589 0.0
H1069 H 0.07983 0.78519 0.60873 0.0
C1070 C 0.25335 0.16936 0.69078 0.0
C1071 C 0.25649 0.18264 0.67847 0.0
C1072 C 0.2565 0.15399 0.68298 0.0
C1073 C 0.25259 0.12418 0.65376 0.0
H1074 H 0.29055 0.11373 0.62381 0.0
C1075 C 0.25511 0.07376 0.58959 0.0
C1076 C 0.26871 0.06403 0.58965 0.0
C1077 C 0.25453 0.08695 0.6037 0.0
C1078 C 0.27999 0.1164 0.63238 0.0
H1079 H 0.26568 0.1901 0.64845 0.0
H1080 H 0.2714 0.16333 0.63508 0.0
H1081 H 0.28864 0.1395 0.64285 0.0
H1082 H 0.29223 0.06039 0.60515 0.0
H1083 H 0.29132 0.08379 0.62943 0.0
H1084 H 0.24373 0.10129 0.64274 0.0
C1085 C 0.26661 0.16485 0.65083 0.0
C1086 C 0.27884 0.13118 0.6431 0.0
C1087 C 0.26334 0.1802 0.65852 0.0
C1088 C 0.28166 0.06775 0.60441 0.0
C1089 C 0.28114 0.08109 0.61839 0.0
C1090 C 0.25367 0.10948 0.64287 0.0
C1091 C 0.26299 0.15158 0.66282 0.0
C1092 C 0.26502 0.13532 0.65355 0.0
C1093 C 0.26759 0.09085 0.61806 0.0
C1094 C 0.26725 0.10558 0.63173 0.0
H1095 H 0.24836 0.17082 0.70639 0.0
H1096 H 0.25375 0.14396 0.69264 0.0
H1097 H 0.24175 0.1271 0.66155 0.0
H1098 H 0.24505 0.07153 0.57816 0.0
H1099 H 0.24404 0.09443 0.60283 0.0
C1100 C 0.85106 0.25893 0.66843 0.0
C1101 C 0.8373 0.26797 0.6635 0.0
C1102 C 0.86512 0.26172 0.6583 0.0
C1103 C 0.89549 0.27552 0.64194 0.0
H1104 H 0.89185 0.27865 0.57957 0.0
C1105 C 0.94989 0.28616 0.59121 0.0
C1106 C 0.95087 0.27601 0.5729 0.0
C1107 C 0.93602 0.2867 0.60254 0.0
C1108 C 0.89305 0.27781 0.59699 0.0
H1109 H 0.82783 0.28745 0.64453 0.0
H1110 H 0.85234 0.2921 0.62656 0.0
H1111 H 0.8678 0.27697 0.5995 0.0
H1112 H 0.93795 0.25882 0.55175 0.0
H1113 H 0.91375 0.25976 0.5715 0.0
H1114 H 0.92076 0.27603 0.63935 0.0
C1115 C 0.85214 0.28278 0.6382 0.0
C1116 C 0.87928 0.277 0.60841 0.0
C1117 C 0.83809 0.28008 0.64846 0.0
C1118 C 0.9376 0.26664 0.56593 0.0
C1119 C 0.92369 0.26729 0.57711 0.0
C1120 C 0.90926 0.27648 0.63052 0.0
C1121 C 0.86575 0.27353 0.64286 0.0
C1122 C 0.88036 0.27562 0.63098 0.0
C1123 C 0.92278 0.27725 0.59562 0.0
C1124 C 0.90818 0.27739 0.60789 0.0
H1125 H 0.85085 0.24931 0.6796 0.0
H1126 H 0.87535 0.25425 0.66201 0.0
H1127 H 0.89669 0.27459 0.65934 0.0
H1128 H 0.95997 0.29345 0.59702 0.0
H1129 H 0.93562 0.29455 0.61667 0.0
C1130 C 0.7627 0.85636 0.67113 0.0
C1131 C 0.77704 0.84889 0.67783 0.0
C1132 C 0.76253 0.87236 0.66577 0.0
C1133 C 0.78973 0.90271 0.64714 0.0
H1134 H 0.75267 0.9298 0.65108 0.0
C1135 C 0.78608 0.96453 0.60944 0.0
C1136 C 0.77256 0.96641 0.59522 0.0
C1137 C 0.78698 0.95199 0.62372 0.0
C1138 C 0.76313 0.92237 0.64999 0.0
H1139 H 0.80234 0.85279 0.68526 0.0
H1140 H 0.80187 0.88079 0.67701 0.0
H1141 H 0.75375 0.9046 0.66962 0.0
H1142 H 0.74927 0.95658 0.58526 0.0
H1143 H 0.75073 0.93507 0.61052 0.0
H1144 H 0.799 0.92045 0.62735 0.0
C1145 C 0.79081 0.87415 0.67524 0.0
C1146 C 0.76373 0.90791 0.66049 0.0
C1147 C 0.79103 0.8581 0.68031 0.0
C1148 C 0.75975 0.95575 0.5962 0.0
C1149 C 0.76058 0.94337 0.61066 0.0
C1150 C 0.7892 0.91724 0.63689 0.0
C1151 C 0.77666 0.88136 0.66725 0.0
C1152 C 0.77686 0.89769 0.65871 0.0
C1153 C 0.77429 0.94122 0.6243 0.0
C1154 C 0.77573 0.92701 0.63775 0.0
H1155 H 0.75164 0.84974 0.66945 0.0
H1156 H 0.75141 0.87742 0.65954 0.0
H1157 H 0.79993 0.89509 0.64506 0.0
H1158 H 0.79604 0.97268 0.60945 0.0
H1159 H 0.79765 0.95063 0.6342 0.0
C1160 C 0.86031 0.76417 0.66557 0.0
C1161 C 0.84874 0.77466 0.65701 0.0
C1162 C 0.87584 0.76444 0.65864 0.0
C1163 C 0.90406 0.7898 0.63185 0.0
H1164 H 0.92257 0.75002 0.61254 0.0
C1165 C 0.95351 0.78731 0.57213 0.0
C1166 C 0.96543 0.77568 0.57439 0.0
C1167 C 0.94066 0.78746 0.58533 0.0
C1168 C 0.91774 0.76122 0.61822 0.0
H1169 H 0.84446 0.79407 0.63523 0.0
H1170 H 0.8714 0.79451 0.62312 0.0
H1171 H 0.8976 0.74977 0.63054 0.0
H1172 H 0.97346 0.75538 0.5928 0.0
H1173 H 0.95099 0.75567 0.61593 0.0
H1174 H 0.924 0.8013 0.61922 0.0
C1175 C 0.86856 0.78607 0.63514 0.0
C1176 C 0.90342 0.76106 0.62853 0.0
C1177 C 0.85307 0.78569 0.64188 0.0
C1178 C 0.96435 0.76437 0.59046 0.0
C1179 C 0.95149 0.76453 0.60371 0.0
C1180 C 0.91839 0.78996 0.62163 0.0
C1181 C 0.88009 0.77538 0.64329 0.0
C1182 C 0.89624 0.77537 0.63497 0.0
C1183 C 0.93942 0.77601 0.60117 0.0
C1184 C 0.92519 0.7757 0.61422 0.0
H1185 H 0.85726 0.75555 0.67725 0.0
H1186 H 0.88452 0.75611 0.66526 0.0
H1187 H 0.89895 0.80101 0.63698 0.0
H1188 H 0.95382 0.79602 0.55968 0.0
H1189 H 0.93143 0.79629 0.58264 0.0
C1190 C 0.27688 0.85858 0.65667 0.0
C1191 C 0.26164 0.85215 0.65865 0.0
C1192 C 0.27872 0.87296 0.64634 0.0
C1193 C 0.25643 0.9088 0.62825 0.0
H1194 H 0.29032 0.9124 0.58909 0.0
C1195 C 0.27453 0.9503 0.55392 0.0
C1196 C 0.27103 0.96536 0.56268 0.0
C1197 C 0.27429 0.93692 0.56669 0.0
C1198 C 0.28074 0.91156 0.59988 0.0
H1199 H 0.2364 0.85573 0.6511 0.0
H1200 H 0.23959 0.88067 0.63308 0.0
H1201 H 0.28794 0.88828 0.60942 0.0
H1202 H 0.2648 0.97854 0.5914 0.0
H1203 H 0.26459 0.95519 0.61401 0.0
H1204 H 0.24887 0.93182 0.61814 0.0
C1205 C 0.25013 0.87482 0.63989 0.0
C1206 C 0.27949 0.89781 0.61176 0.0
C1207 C 0.24829 0.86049 0.65024 0.0
C1208 C 0.26748 0.96695 0.58441 0.0
C1209 C 0.26728 0.95359 0.59723 0.0
C1210 C 0.25765 0.92253 0.61634 0.0
C1211 C 0.26536 0.88121 0.6377 0.0
C1212 C 0.26723 0.89619 0.62594 0.0
C1213 C 0.27058 0.93838 0.58849 0.0
C1214 C 0.26973 0.92404 0.60186 0.0
H1215 H 0.28739 0.85252 0.66317 0.0
H1216 H 0.29061 0.87765 0.64521 0.0
H1217 H 0.24696 0.90806 0.63923 0.0
H1218 H 0.27723 0.9489 0.53711 0.0
H1219 H 0.27666 0.92539 0.55933 0.0
C1220 C 0.16089 0.25107 0.68206 0.0
C1221 C 0.17364 0.25987 0.67487 0.0
C1222 C 0.14535 0.25338 0.67337 0.0
C1223 C 0.12049 0.28072 0.63871 0.0
H1224 H 0.09415 0.24316 0.62778 0.0
C1225 C 0.06862 0.27542 0.57361 0.0
C1226 C 0.05405 0.26999 0.58041 0.0
C1227 C 0.08229 0.27518 0.58753 0.0
C1228 C 0.10133 0.25376 0.63098 0.0
H1229 H 0.17979 0.27858 0.65354 0.0
H1230 H 0.15308 0.28192 0.63756 0.0
H1231 H 0.11984 0.24093 0.64789 0.0
H1232 H 0.04209 0.2604 0.60704 0.0
H1233 H 0.06632 0.25931 0.63127 0.0
H1234 H 0.10224 0.29326 0.62057 0.0
C1235 C 0.15491 0.27346 0.65026 0.0
C1236 C 0.11603 0.25254 0.6426 0.0
C1237 C 0.17037 0.27133 0.65918 0.0
C1238 C 0.0533 0.26443 0.60142 0.0
C1239 C 0.06706 0.26385 0.61522 0.0
C1240 C 0.10595 0.28184 0.62673 0.0
C1241 C 0.14219 0.26441 0.65706 0.0
C1242 C 0.12593 0.26597 0.64637 0.0
C1243 C 0.08165 0.26926 0.60837 0.0
C1244 C 0.09635 0.26834 0.62256 0.0
H1245 H 0.16292 0.24205 0.69398 0.0
H1246 H 0.13586 0.24638 0.67932 0.0
H1247 H 0.12755 0.2914 0.64172 0.0
H1248 H 0.06941 0.2798 0.55747 0.0
H1249 H 0.09345 0.27931 0.58187 0.0
C1250 C 0.77604 0.16996 0.67444 0.0
C1251 C 0.7716 0.18376 0.66333 0.0
C1252 C 0.7755 0.15505 0.66374 0.0
C1253 C 0.75767 0.13384 0.61478 0.0
H1254 H 0.79257 0.10432 0.62472 0.0
C1255 C 0.7659 0.07873 0.55906 0.0
C1256 C 0.77052 0.06453 0.56885 0.0
C1257 C 0.76586 0.09299 0.57124 0.0
C1258 C 0.78264 0.11235 0.62195 0.0
H1259 H 0.76339 0.19265 0.63213 0.0
H1260 H 0.76241 0.16675 0.61358 0.0
H1261 H 0.79256 0.12964 0.64506 0.0
H1262 H 0.77869 0.05383 0.59877 0.0
H1263 H 0.77861 0.0788 0.62027 0.0
H1264 H 0.7478 0.11663 0.59158 0.0
C1265 C 0.76602 0.16738 0.63065 0.0
C1266 C 0.78262 0.12685 0.63363 0.0
C1267 C 0.76656 0.18226 0.64132 0.0
C1268 C 0.77517 0.06474 0.59096 0.0
C1269 C 0.77518 0.07901 0.60317 0.0
C1270 C 0.7577 0.11936 0.60311 0.0
C1271 C 0.77051 0.15359 0.64169 0.0
C1272 C 0.7702 0.13784 0.63005 0.0
C1273 C 0.77045 0.0933 0.59347 0.0
C1274 C 0.77024 0.10849 0.60641 0.0
H1275 H 0.77982 0.17068 0.69145 0.0
H1276 H 0.77886 0.14464 0.67278 0.0
H1277 H 0.74778 0.14189 0.6119 0.0
H1278 H 0.76229 0.07875 0.54199 0.0
H1279 H 0.76238 0.1038 0.56319 0.0
C1280 C 0.85659 0.25911 0.37133 0.0
C1281 C 0.8444 0.26673 0.38222 0.0
C1282 C 0.87255 0.26131 0.37845 0.0
C1283 C 0.89946 0.28668 0.41519 0.0
H1284 H 0.92614 0.24907 0.41576 0.0
C1285 C 0.95588 0.27987 0.47164 0.0
C1286 C 0.96933 0.27315 0.46272 0.0
C1287 C 0.94142 0.28047 0.4594 0.0
C1288 C 0.9189 0.25973 0.41543 0.0
H1289 H 0.83955 0.28323 0.4086 0.0
H1290 H 0.8672 0.28649 0.42158 0.0
H1291 H 0.89932 0.2476 0.39865 0.0
H1292 H 0.97863 0.26235 0.43401 0.0
H1293 H 0.9531 0.263 0.41257 0.0
H1294 H 0.91892 0.29854 0.43292 0.0
C1295 C 0.86452 0.27902 0.40729 0.0
C1296 C 0.90353 0.25892 0.40556 0.0
C1297 C 0.8486 0.27695 0.40004 0.0
C1298 C 0.96828 0.26737 0.44122 0.0
C1299 C 0.95374 0.26776 0.42904 0.0
C1300 C 0.91476 0.28742 0.42529 0.0
C1301 C 0.8767 0.27107 0.39676 0.0
C1302 C 0.89352 0.27233 0.40558 0.0
C1303 C 0.94017 0.27424 0.43807 0.0
C1304 C 0.92453 0.27389 0.42575 0.0
H1305 H 0.85382 0.25105 0.35765 0.0
H1306 H 0.88161 0.25519 0.36973 0.0
H1307 H 0.89223 0.29733 0.41513 0.0
H1308 H 0.95652 0.28443 0.48821 0.0
H1309 H 0.93111 0.2854 0.46681 0.0
C1310 C 0.76208 0.85892 0.37152 0.0
C1311 C 0.76911 0.8461 0.38256 0.0
C1312 C 0.76195 0.87416 0.38133 0.0
C1313 C 0.78231 0.89849 0.42578 0.0
H1314 H 0.74436 0.92463 0.42107 0.0
C1315 C 0.77387 0.95312 0.48203 0.0
C1316 C 0.76746 0.96687 0.47272 0.0
C1317 C 0.77412 0.93882 0.46997 0.0
C1318 C 0.75511 0.91754 0.42233 0.0
H1319 H 0.78184 0.83939 0.4124 0.0
H1320 H 0.78123 0.86567 0.42958 0.0
H1321 H 0.74478 0.89891 0.40165 0.0
H1322 H 0.7563 0.97667 0.44376 0.0
H1323 H 0.75661 0.95156 0.42251 0.0
H1324 H 0.79256 0.91697 0.44668 0.0
C1325 C 0.77594 0.86406 0.41329 0.0
C1326 C 0.75536 0.90282 0.41118 0.0
C1327 C 0.77607 0.8489 0.40353 0.0
C1328 C 0.7612 0.96613 0.45122 0.0
C1329 C 0.76136 0.95179 0.43916 0.0
C1330 C 0.78203 0.91315 0.43696 0.0
C1331 C 0.76893 0.87691 0.40233 0.0
C1332 C 0.7689 0.89302 0.413 0.0
C1333 C 0.76791 0.93799 0.44837 0.0
C1334 C 0.76837 0.92276 0.43559 0.0
H1335 H 0.75655 0.85716 0.35538 0.0
H1336 H 0.75655 0.88382 0.37236 0.0
H1337 H 0.79306 0.89142 0.42717 0.0
H1338 H 0.77872 0.95348 0.49863 0.0
H1339 H 0.77904 0.92837 0.47764 0.0
C1340 C 0.17039 0.77199 0.3379 0.0
C1341 C 0.16859 0.78273 0.32102 0.0
C1342 C 0.1578 0.7691 0.35093 0.0
C1343 C 0.11411 0.77395 0.35417 0.0
H1344 H 0.12434 0.77251 0.4159 0.0
C1345 C 0.06679 0.78093 0.41745 0.0
C1346 C 0.06819 0.77123 0.43551 0.0
C1347 C 0.07869 0.78101 0.40271 0.0
C1348 C 0.1213 0.77266 0.39868 0.0
H1349 H 0.1521 0.79873 0.30445 0.0
H1350 H 0.13019 0.79378 0.32723 0.0
H1351 H 0.14569 0.77484 0.39143 0.0
H1352 H 0.08317 0.75395 0.45219 0.0
H1353 H 0.10387 0.75396 0.42632 0.0
H1354 H 0.08966 0.77208 0.36155 0.0
C1355 C 0.14123 0.78737 0.3302 0.0
C1356 C 0.13354 0.77398 0.38463 0.0
C1357 C 0.1538 0.79022 0.31713 0.0
C1358 C 0.08167 0.76145 0.43834 0.0
C1359 C 0.0936 0.76158 0.42365 0.0
C1360 C 0.10185 0.77269 0.36824 0.0
C1361 C 0.14314 0.77693 0.34743 0.0
C1362 C 0.1301 0.77474 0.36221 0.0
C1363 C 0.0923 0.77144 0.40575 0.0
C1364 C 0.10531 0.77213 0.39067 0.0
H1365 H 0.18157 0.76587 0.3411 0.0
H1366 H 0.15958 0.76077 0.36381 0.0
H1367 H 0.11106 0.77428 0.33697 0.0
H1368 H 0.05648 0.78847 0.41469 0.0
H1369 H 0.0774 0.78884 0.38919 0.0
C1370 C 0.26058 0.17063 0.38581 0.0
C1371 C 0.25651 0.16886 0.36352 0.0
C1372 C 0.2634 0.15732 0.39841 0.0
C1373 C 0.27183 0.11394 0.39533 0.0
H1374 H 0.25405 0.11458 0.45156 0.0
C1375 C 0.2655 0.05747 0.44509 0.0
C1376 C 0.26919 0.059 0.4674 0.0
C1377 C 0.26494 0.07092 0.43239 0.0
C1378 C 0.25926 0.11427 0.43601 0.0
H1379 H 0.25284 0.15163 0.33692 0.0
H1380 H 0.25733 0.12841 0.35898 0.0
H1381 H 0.25154 0.13793 0.42942 0.0
H1382 H 0.27533 0.07541 0.49412 0.0
H1383 H 0.27439 0.09906 0.47196 0.0
H1384 H 0.27928 0.09012 0.40187 0.0
C1385 C 0.25851 0.14011 0.3667 0.0
C1386 C 0.25785 0.12768 0.42331 0.0
C1387 C 0.25575 0.15344 0.35408 0.0
C1388 C 0.27243 0.07407 0.4769 0.0
C1389 C 0.2718 0.08754 0.46424 0.0
C1390 C 0.27317 0.10049 0.40801 0.0
C1391 C 0.26216 0.14188 0.38909 0.0
C1392 C 0.26409 0.12769 0.40279 0.0
C1393 C 0.26799 0.08613 0.44184 0.0
C1394 C 0.26687 0.10049 0.42848 0.0
H1395 H 0.26112 0.1823 0.39371 0.0
H1396 H 0.26643 0.15915 0.41553 0.0
H1397 H 0.27697 0.1136 0.37975 0.0
H1398 H 0.26294 0.04588 0.43757 0.0
H1399 H 0.2618 0.06945 0.41524 0.0
C1400 C 0.67466 0.75539 0.84118 0.0
C1401 C 0.67063 0.74699 0.82164 0.0
C1402 C 0.66282 0.76097 0.85431 0.0
C1403 C 0.61901 0.76796 0.85524 0.0
H1404 H 0.62737 0.76362 0.91696 0.0
C1405 C 0.57001 0.76722 0.9167 0.0
C1406 C 0.57288 0.776 0.93625 0.0
C1407 C 0.58184 0.76563 0.90194 0.0
C1408 C 0.62493 0.76508 0.89978 0.0
H1409 H 0.65084 0.73854 0.8002 0.0
H1410 H 0.63029 0.74757 0.82351 0.0
H1411 H 0.64821 0.75726 0.89263 0.0
H1412 H 0.59034 0.79054 0.95507 0.0
H1413 H 0.61111 0.78734 0.92955 0.0
H1414 H 0.59544 0.77516 0.86257 0.0
C1415 C 0.64259 0.75012 0.82856 0.0
C1416 C 0.6369 0.7615 0.88579 0.0
C1417 C 0.65443 0.74471 0.81531 0.0
C1418 C 0.58779 0.78341 0.94042 0.0
C1419 C 0.59968 0.78165 0.92578 0.0
C1420 C 0.60697 0.77135 0.86924 0.0
C1421 C 0.64663 0.75813 0.8484 0.0
C1422 C 0.63409 0.76279 0.86331 0.0
C1423 C 0.59687 0.77263 0.90649 0.0
C1424 C 0.6098 0.76986 0.89164 0.0
H1425 H 0.68699 0.75726 0.84675 0.0
H1426 H 0.6664 0.76734 0.86926 0.0
H1427 H 0.61648 0.76937 0.83808 0.0
H1428 H 0.55879 0.76113 0.91305 0.0
H1429 H 0.57942 0.75845 0.8873 0.0
C1430 C 0.27148 0.68485 0.88493 0.0
C1431 C 0.27695 0.68551 0.864 0.0
C1432 C 0.27125 0.67049 0.89557 0.0
C1433 C 0.27253 0.62675 0.88721 0.0
H1434 H 0.28581 0.62798 0.94823 0.0
C1435 C 0.26479 0.57336 0.94254 0.0
C1436 C 0.27691 0.5706 0.95864 0.0
C1437 C 0.26514 0.58689 0.93003 0.0
C1438 C 0.28222 0.62737 0.93115 0.0
H1439 H 0.2861 0.67137 0.83768 0.0
H1440 H 0.28599 0.64629 0.85649 0.0
H1441 H 0.28575 0.65233 0.92816 0.0
H1442 H 0.29898 0.57993 0.97402 0.0
H1443 H 0.29979 0.60324 0.95189 0.0
H1444 H 0.26929 0.60167 0.8902 0.0
C1445 C 0.28173 0.65692 0.86456 0.0
C1446 C 0.28197 0.64139 0.91969 0.0
C1447 C 0.28194 0.67133 0.85386 0.0
C1448 C 0.28953 0.58156 0.96164 0.0
C1449 C 0.28989 0.59506 0.94912 0.0
C1450 C 0.27278 0.61268 0.8987 0.0
C1451 C 0.27656 0.65638 0.88566 0.0
C1452 C 0.27704 0.64129 0.89761 0.0
C1453 C 0.27761 0.59799 0.93331 0.0
C1454 C 0.2776 0.61283 0.92084 0.0
H1455 H 0.26776 0.69554 0.8934 0.0
H1456 H 0.26696 0.67048 0.91168 0.0
H1457 H 0.26857 0.62626 0.87025 0.0
H1458 H 0.25499 0.56507 0.93961 0.0
H1459 H 0.25543 0.58883 0.91812 0.0
C1460 C 0.36611 0.28996 0.85956 0.0
C1461 C 0.3562 0.27704 0.86346 0.0
C1462 C 0.38207 0.2901 0.8672 0.0
C1463 C 0.41505 0.26517 0.88945 0.0
H1464 H 0.42753 0.30366 0.92224 0.0
C1465 C 0.47639 0.273 0.93732 0.0
C1466 C 0.47493 0.27794 0.95892 0.0
C1467 C 0.46322 0.27366 0.9224 0.0
C1468 C 0.42426 0.29289 0.91299 0.0
H1469 H 0.35549 0.25378 0.87743 0.0
H1470 H 0.38337 0.25409 0.89101 0.0
H1471 H 0.40201 0.30265 0.90136 0.0
H1472 H 0.45879 0.28716 0.98211 0.0
H1473 H 0.43597 0.28878 0.95603 0.0
H1474 H 0.43714 0.25526 0.90183 0.0
C1475 C 0.37879 0.26407 0.88193 0.0
C1476 C 0.40971 0.29234 0.9009 0.0
C1477 C 0.36279 0.26396 0.87437 0.0
C1478 C 0.46025 0.28367 0.96538 0.0
C1479 C 0.44723 0.28457 0.95048 0.0
C1480 C 0.4297 0.26577 0.90142 0.0
C1481 C 0.38849 0.27731 0.87885 0.0
C1482 C 0.40478 0.27836 0.88941 0.0
C1483 C 0.44853 0.27945 0.92889 0.0
C1484 C 0.43423 0.27951 0.91373 0.0
H1485 H 0.36137 0.30028 0.85137 0.0
H1486 H 0.3893 0.3004 0.86443 0.0
H1487 H 0.4116 0.25428 0.88059 0.0
H1488 H 0.48758 0.26832 0.93217 0.0
H1489 H 0.4645 0.26962 0.90584 0.0
C1490 C 0.76693 0.35232 0.89829 0.0
C1491 C 0.76232 0.3511 0.87611 0.0
C1492 C 0.76963 0.36719 0.90855 0.0
C1493 C 0.75924 0.40955 0.90301 0.0
H1494 H 0.79278 0.41605 0.94818 0.0
C1495 C 0.7712 0.47105 0.94488 0.0
C1496 C 0.77376 0.47118 0.96743 0.0
C1497 C 0.77105 0.45667 0.93292 0.0
C1498 C 0.78328 0.41439 0.9357 0.0
H1499 H 0.75752 0.36455 0.84719 0.0
H1500 H 0.7623 0.39051 0.86509 0.0
H1501 H 0.7904 0.39045 0.92863 0.0
H1502 H 0.77855 0.45674 0.99529 0.0
H1503 H 0.77823 0.43149 0.97449 0.0
H1504 H 0.75202 0.43342 0.91021 0.0
C1505 C 0.76354 0.37997 0.87462 0.0
C1506 C 0.78192 0.39972 0.9245 0.0
C1507 C 0.76082 0.36509 0.86436 0.0
C1508 C 0.77656 0.45682 0.97786 0.0
C1509 C 0.77645 0.44244 0.96593 0.0
C1510 C 0.76062 0.42422 0.91418 0.0
C1511 C 0.76781 0.38122 0.8969 0.0
C1512 C 0.7698 0.39707 0.90813 0.0
C1513 C 0.77353 0.44217 0.94333 0.0
C1514 C 0.77258 0.42679 0.93079 0.0
H1515 H 0.76795 0.34181 0.9079 0.0
H1516 H 0.77266 0.36771 0.92579 0.0
H1517 H 0.7496 0.40786 0.89074 0.0
H1518 H 0.76911 0.48207 0.93658 0.0
H1519 H 0.76898 0.4569 0.91553 0.0
C1520 C 0.65455 0.27697 0.19116 0.0
C1521 C 0.67021 0.27864 0.18491 0.0
C1522 C 0.64237 0.27215 0.17607 0.0
C1523 C 0.63149 0.27368 0.11839 0.0
H1524 H 0.59693 0.24597 0.13194 0.0
C1525 C 0.57672 0.26322 0.05891 0.0
C1526 C 0.56202 0.2639 0.06829 0.0
C1527 C 0.59083 0.26225 0.07197 0.0
C1528 C 0.60646 0.25379 0.12794 0.0
H1529 H 0.6855 0.27612 0.15813 0.0
H1530 H 0.66416 0.26764 0.13172 0.0
H1531 H 0.62019 0.24903 0.15727 0.0
H1532 H 0.55015 0.26385 0.0982 0.0
H1533 H 0.57473 0.26248 0.1212 0.0
H1534 H 0.61757 0.27895 0.0895 0.0
C1535 C 0.66133 0.27012 0.14829 0.0
C1536 C 0.61978 0.2555 0.14243 0.0
C1537 C 0.67355 0.27483 0.16344 0.0
C1538 C 0.56147 0.26327 0.09077 0.0
C1539 C 0.57552 0.26236 0.10383 0.0
C1540 C 0.61813 0.27204 0.10396 0.0
C1541 C 0.64557 0.26899 0.15438 0.0
C1542 C 0.6323 0.2657 0.13799 0.0
C1543 C 0.59039 0.26201 0.09463 0.0
C1544 C 0.60531 0.26232 0.10877 0.0
H1545 H 0.65167 0.27971 0.20765 0.0
H1546 H 0.63032 0.27152 0.18122 0.0
H1547 H 0.64086 0.28178 0.11464 0.0
H1548 H 0.57728 0.26366 0.04153 0.0
H1549 H 0.60206 0.26182 0.06436 0.0
C1550 C 0.74384 0.66764 0.16788 0.0
C1551 C 0.74034 0.66533 0.18944 0.0
C1552 C 0.74852 0.65485 0.15476 0.0
C1553 C 0.74566 0.61112 0.14976 0.0
H1554 H 0.77767 0.61547 0.10798 0.0
C1555 C 0.76568 0.55755 0.09781 0.0
C1556 C 0.76748 0.56029 0.07594 0.0
C1557 C 0.76368 0.57032 0.11237 0.0
C1558 C 0.76861 0.6141 0.11945 0.0
H1559 H 0.73976 0.64789 0.21437 0.0
H1560 H 0.74794 0.62561 0.19154 0.0
H1561 H 0.77194 0.63792 0.13217 0.0
H1562 H 0.76882 0.57819 0.0519 0.0
H1563 H 0.76517 0.60064 0.07725 0.0
H1564 H 0.74216 0.58741 0.13692 0.0
C1565 C 0.74676 0.63725 0.18463 0.0
C1566 C 0.76533 0.62697 0.13332 0.0
C1567 C 0.74208 0.65002 0.19773 0.0
C1568 C 0.76753 0.57592 0.0688 0.0
C1569 C 0.76552 0.58871 0.08333 0.0
C1570 C 0.74893 0.59827 0.13591 0.0
C1571 C 0.74982 0.63946 0.1629 0.0
C1572 C 0.75376 0.62565 0.14859 0.0
C1573 C 0.76341 0.58606 0.10527 0.0
C1574 C 0.76039 0.59961 0.1205 0.0
H1575 H 0.74243 0.67923 0.16089 0.0
H1576 H 0.7506 0.65694 0.13803 0.0
H1577 H 0.73648 0.60977 0.16106 0.0
H1578 H 0.76563 0.54552 0.10353 0.0
H1579 H 0.7623 0.56786 0.12918 0.0
C1580 C 0.37138 0.76862 0.17714 0.0
C1581 C 0.35922 0.75818 0.16914 0.0
C1582 C 0.38436 0.7717 0.16482 0.0
C1583 C 0.39754 0.76825 0.10878 0.0
H1584 H 0.43996 0.76968 0.13705 0.0
C1585 C 0.45409 0.76192 0.06163 0.0
C1586 C 0.46686 0.77224 0.06754 0.0
C1587 C 0.44092 0.76132 0.0742 0.0
C1588 C 0.42817 0.7695 0.12897 0.0
H1589 H 0.35128 0.74259 0.14209 0.0
H1590 H 0.37386 0.74783 0.12076 0.0
H1591 H 0.41691 0.76684 0.15865 0.0
H1592 H 0.47592 0.7899 0.0914 0.0
H1593 H 0.45284 0.78883 0.11345 0.0
H1594 H 0.40885 0.77055 0.07906 0.0
C1595 C 0.37324 0.75396 0.1363 0.0
C1596 C 0.41495 0.76791 0.14134 0.0
C1597 C 0.36028 0.75095 0.14855 0.0
C1598 C 0.46621 0.7819 0.08638 0.0
C1599 C 0.45307 0.7812 0.09907 0.0
C1600 C 0.41075 0.76974 0.09643 0.0
C1601 C 0.38548 0.76434 0.14428 0.0
C1602 C 0.39948 0.76707 0.13136 0.0
C1603 C 0.44025 0.77096 0.09305 0.0
C1604 C 0.42622 0.7702 0.10635 0.0
H1605 H 0.37083 0.77448 0.19288 0.0
H1606 H 0.39347 0.7799 0.17135 0.0
H1607 H 0.38579 0.76798 0.1006 0.0
H1608 H 0.45417 0.75446 0.04708 0.0
H1609 H 0.43131 0.75318 0.06927 0.0
C1610 C 0.29262 0.36983 0.20802 0.0
C1611 C 0.28367 0.35579 0.20435 0.0
C1612 C 0.28981 0.38291 0.19499 0.0
C1613 C 0.27312 0.39307 0.14079 0.0
H1614 H 0.27671 0.43635 0.16397 0.0
C1615 C 0.26196 0.44747 0.08724 0.0
C1616 C 0.273 0.46 0.09034 0.0
C1617 C 0.26198 0.43508 0.10175 0.0
C1618 C 0.27578 0.42433 0.15723 0.0
H1619 H 0.2643 0.34474 0.1846 0.0
H1620 H 0.25933 0.36762 0.16191 0.0
H1621 H 0.2787 0.41422 0.18847 0.0
H1622 H 0.29246 0.46952 0.11143 0.0
H1623 H 0.29264 0.44782 0.13657 0.0
H1624 H 0.27036 0.40317 0.10955 0.0
C1625 C 0.26872 0.3684 0.17464 0.0
C1626 C 0.27692 0.41164 0.17127 0.0
C1627 C 0.27155 0.3553 0.18767 0.0
C1628 C 0.28391 0.45996 0.10845 0.0
C1629 C 0.28389 0.44761 0.123 0.0
C1630 C 0.27195 0.40576 0.12676 0.0
C1631 C 0.27797 0.38229 0.17796 0.0
C1632 C 0.27577 0.39584 0.1632 0.0
C1633 C 0.273 0.43497 0.11975 0.0
C1634 C 0.27343 0.42153 0.13479 0.0
H1635 H 0.30221 0.37053 0.22048 0.0
H1636 H 0.29732 0.39331 0.19781 0.0
H1637 H 0.27243 0.38106 0.13397 0.0
H1638 H 0.25349 0.44707 0.07336 0.0
H1639 H 0.25334 0.42559 0.0989 0.0
C1640 C 0.35605 0.27669 0.18212 0.0
C1641 C 0.35921 0.2818 0.20377 0.0
C1642 C 0.36845 0.27408 0.16848 0.0
C1643 C 0.41255 0.26923 0.16814 0.0
H1644 H 0.4053 0.28212 0.10886 0.0
C1645 C 0.46281 0.27738 0.10936 0.0
C1646 C 0.46003 0.27077 0.08832 0.0
C1647 C 0.45072 0.27771 0.12386 0.0
C1648 C 0.40745 0.27834 0.12532 0.0
H1649 H 0.37813 0.28752 0.22818 0.0
H1650 H 0.39967 0.28371 0.20419 0.0
H1651 H 0.38389 0.28452 0.13338 0.0
H1652 H 0.44239 0.25883 0.06645 0.0
H1653 H 0.42124 0.25987 0.09155 0.0
H1654 H 0.43636 0.26358 0.16002 0.0
C1655 C 0.38759 0.28143 0.1978 0.0
C1656 C 0.39515 0.27963 0.13939 0.0
C1657 C 0.37518 0.28386 0.21152 0.0
C1658 C 0.4449 0.26435 0.0823 0.0
C1659 C 0.43278 0.26486 0.0967 0.0
C1660 C 0.42493 0.26814 0.1541 0.0
C1661 C 0.38438 0.27671 0.176 0.0
C1662 C 0.3975 0.27506 0.16099 0.0
C1663 C 0.43554 0.27161 0.11759 0.0
C1664 C 0.42247 0.27265 0.13254 0.0
H1665 H 0.34394 0.27515 0.17542 0.0
H1666 H 0.3655 0.27014 0.15193 0.0
H1667 H 0.41476 0.26537 0.18453 0.0
H1668 H 0.4742 0.28265 0.11451 0.0
H1669 H 0.45312 0.28313 0.13981 0.0
C1670 C 0.75609 0.36923 0.19832 0.0
C1671 C 0.74762 0.35588 0.18958 0.0
C1672 C 0.76013 0.38154 0.18505 0.0
C1673 C 0.74632 0.39969 0.13454 0.0
H1674 H 0.78749 0.42064 0.13784 0.0
C1675 C 0.7608 0.44635 0.07357 0.0
C1676 C 0.76896 0.46009 0.08147 0.0
C1677 C 0.75949 0.4333 0.08663 0.0
C1678 C 0.77588 0.41501 0.1369 0.0
H1679 H 0.73698 0.34488 0.16002 0.0
H1680 H 0.74416 0.36626 0.13692 0.0
H1681 H 0.78297 0.39834 0.16113 0.0
H1682 H 0.78247 0.47085 0.109 0.0
H1683 H 0.77994 0.44808 0.13211 0.0
H1684 H 0.73903 0.4164 0.11073 0.0
C1685 C 0.7476 0.36724 0.15403 0.0
C1686 C 0.77332 0.40224 0.15019 0.0
C1687 C 0.74365 0.35492 0.16723 0.0
C1688 C 0.77618 0.46036 0.10251 0.0
C1689 C 0.77475 0.44731 0.11569 0.0
C1690 C 0.74883 0.41247 0.1214 0.0
C1691 C 0.75565 0.38079 0.16284 0.0
C1692 C 0.75854 0.3944 0.149 0.0
C1693 C 0.76619 0.43371 0.10798 0.0
C1694 C 0.76367 0.42022 0.12227 0.0
H1695 H 0.75942 0.37022 0.21546 0.0
H1696 H 0.76629 0.39189 0.19228 0.0
H1697 H 0.7347 0.39409 0.1336 0.0
H1698 H 0.75539 0.44572 0.05725 0.0
H1699 H 0.75316 0.42287 0.07999 0.0
C1700 C 0.64435 0.73664 0.19442 0.0
C1701 C 0.65939 0.74342 0.192 0.0
C1702 C 0.63096 0.74157 0.18193 0.0
C1703 C 0.61621 0.77345 0.14515 0.0
H1704 H 0.58628 0.74079 0.12355 0.0
C1705 C 0.57318 0.77957 0.06973 0.0
C1706 C 0.55747 0.7742 0.0709 0.0
C1707 C 0.58445 0.77734 0.08685 0.0
C1708 C 0.5944 0.75009 0.12971 0.0
H1709 H 0.6719 0.76118 0.17487 0.0
H1710 H 0.64881 0.7692 0.15241 0.0
H1711 H 0.6083 0.73389 0.14883 0.0
H1712 H 0.54119 0.76211 0.0905 0.0
H1713 H 0.56106 0.75792 0.12052 0.0
H1714 H 0.60259 0.78945 0.12509 0.0
C1715 C 0.64724 0.76028 0.1643 0.0
C1716 C 0.60703 0.74616 0.14427 0.0
C1717 C 0.6606 0.75548 0.17698 0.0
C1718 C 0.55319 0.76657 0.08948 0.0
C1719 C 0.56454 0.76411 0.10651 0.0
C1720 C 0.60368 0.77732 0.13037 0.0
C1721 C 0.63226 0.75329 0.16645 0.0
C1722 C 0.61822 0.75775 0.15202 0.0
C1723 C 0.58032 0.76936 0.10526 0.0
C1724 C 0.59276 0.76564 0.12234 0.0
H1725 H 0.64292 0.72719 0.2056 0.0
H1726 H 0.61959 0.73608 0.18433 0.0
H1727 H 0.62436 0.78278 0.15108 0.0
H1728 H 0.57685 0.78506 0.05527 0.0
H1729 H 0.59657 0.78126 0.08528 0.0
C1730 C 0.29485 0.66153 0.18527 0.0
C1731 C 0.294 0.67606 0.17468 0.0
C1732 C 0.29271 0.64714 0.17356 0.0
C1733 C 0.29484 0.62982 0.11842 0.0
H1734 H 0.27077 0.59517 0.14031 0.0
C1735 C 0.27749 0.57407 0.06619 0.0
C1736 C 0.27937 0.5594 0.07607 0.0
C1737 C 0.27905 0.58819 0.07856 0.0
C1738 C 0.27765 0.60469 0.1341 0.0
H1739 H 0.2902 0.68685 0.14346 0.0
H1740 H 0.28606 0.66183 0.12317 0.0
H1741 H 0.27373 0.62013 0.16136 0.0
H1742 H 0.28415 0.54762 0.10625 0.0
H1743 H 0.28698 0.57241 0.12811 0.0
H1744 H 0.29871 0.61443 0.09115 0.0
C1745 C 0.28859 0.66153 0.14049 0.0
C1746 C 0.27936 0.61898 0.14615 0.0
C1747 C 0.29075 0.67589 0.15217 0.0
C1748 C 0.28267 0.55892 0.09845 0.0
C1749 C 0.28419 0.57305 0.11088 0.0
C1750 C 0.2931 0.61557 0.10637 0.0
C1751 C 0.28968 0.64698 0.15101 0.0
C1752 C 0.28793 0.63172 0.1384 0.0
C1753 C 0.28248 0.58784 0.10103 0.0
C1754 C 0.28444 0.60288 0.11404 0.0
H1755 H 0.29719 0.66127 0.20262 0.0
H1756 H 0.29374 0.63614 0.18213 0.0
H1757 H 0.30178 0.63928 0.11219 0.0
H1758 H 0.27488 0.57457 0.0489 0.0
H1759 H 0.27746 0.59939 0.07056 0.0
C1760 C 0.36033 0.75828 0.86566 0.0
C1761 C 0.34686 0.76575 0.87371 0.0
C1762 C 0.37538 0.76042 0.87615 0.0
C1763 C 0.39817 0.78565 0.918 0.0
H1764 H 0.42695 0.74963 0.918 0.0
C1765 C 0.45704 0.78089 0.97233 0.0
C1766 C 0.47037 0.77595 0.96138 0.0
C1767 C 0.44189 0.78067 0.96165 0.0
C1768 C 0.41906 0.75981 0.91802 0.0
H1769 H 0.33893 0.78175 0.89901 0.0
H1770 H 0.36497 0.78477 0.91793 0.0
H1771 H 0.40063 0.74709 0.89968 0.0
H1772 H 0.47868 0.76797 0.93054 0.0
H1773 H 0.45211 0.76703 0.91201 0.0
H1774 H 0.41664 0.79809 0.93714 0.0
C1775 C 0.36397 0.77752 0.90318 0.0
C1776 C 0.40399 0.75842 0.9074 0.0
C1777 C 0.34893 0.77557 0.89247 0.0
C1778 C 0.46846 0.77138 0.93942 0.0
C1779 C 0.45332 0.7709 0.92886 0.0
C1780 C 0.41319 0.78693 0.92897 0.0
C1781 C 0.37739 0.76986 0.89526 0.0
C1782 C 0.39337 0.77137 0.90702 0.0
C1783 C 0.43988 0.77539 0.93992 0.0
C1784 C 0.42381 0.77406 0.92888 0.0
H1785 H 0.35929 0.75042 0.85148 0.0
H1786 H 0.38543 0.75459 0.86923 0.0
H1787 H 0.39046 0.79595 0.91786 0.0
H1788 H 0.45836 0.78469 0.9892 0.0
H1789 H 0.43169 0.78421 0.9705 0.0
C1790 C 0.27302 0.36167 0.86948 0.0
C1791 C 0.27428 0.34794 0.8818 0.0
C1792 C 0.27086 0.37657 0.87946 0.0
C1793 C 0.25877 0.3963 0.93007 0.0
H1794 H 0.28487 0.431 0.9125 0.0
C1795 C 0.26925 0.45387 0.98178 0.0
C1796 C 0.26963 0.46822 0.971 0.0
C1797 C 0.26838 0.43943 0.97004 0.0
C1798 C 0.27732 0.42151 0.91738 0.0
H1799 H 0.27416 0.33907 0.91425 0.0
H1800 H 0.27041 0.36504 0.93165 0.0
H1801 H 0.28572 0.40529 0.89342 0.0
H1802 H 0.26924 0.47912 0.9399 0.0
H1803 H 0.26759 0.45381 0.91912 0.0
H1804 H 0.25056 0.41248 0.95427 0.0
C1805 C 0.27085 0.36428 0.91424 0.0
C1806 C 0.2778 0.40677 0.90644 0.0
C1807 C 0.273 0.34939 0.90426 0.0
C1808 C 0.26897 0.46808 0.94838 0.0
C1809 C 0.26811 0.45364 0.9366 0.0
C1810 C 0.25829 0.41104 0.94102 0.0
C1811 C 0.26993 0.37806 0.90198 0.0
C1812 C 0.26865 0.39396 0.9128 0.0
C1813 C 0.2679 0.43915 0.94732 0.0
C1814 C 0.26769 0.42376 0.93494 0.0
H1815 H 0.27372 0.3609 0.8521 0.0
H1816 H 0.26995 0.38693 0.86954 0.0
H1817 H 0.2514 0.38673 0.93514 0.0
H1818 H 0.26983 0.45386 0.99928 0.0
H1819 H 0.26846 0.42849 0.97878 0.0
C1820 C 0.66973 0.28875 0.8638 0.0
C1821 C 0.6816 0.27725 0.86777 0.0
C1822 C 0.65493 0.28747 0.87269 0.0
C1823 C 0.6285 0.25932 0.89855 0.0
H1824 H 0.61149 0.2978 0.92432 0.0
C1825 C 0.57914 0.25875 0.95935 0.0
C1826 C 0.56748 0.27073 0.95811 0.0
C1827 C 0.59219 0.25913 0.94647 0.0
C1828 C 0.61594 0.28697 0.91694 0.0
H1829 H 0.68694 0.25503 0.88347 0.0
H1830 H 0.66127 0.25297 0.89932 0.0
H1831 H 0.6357 0.29913 0.9049 0.0
H1832 H 0.56014 0.29218 0.94176 0.0
H1833 H 0.58293 0.29285 0.91934 0.0
H1834 H 0.60884 0.24714 0.91096 0.0
C1835 C 0.66334 0.26293 0.8892 0.0
C1836 C 0.62982 0.28774 0.90577 0.0
C1837 C 0.67813 0.2642 0.88031 0.0
C1838 C 0.56904 0.28292 0.94339 0.0
C1839 C 0.5821 0.2833 0.93053 0.0
C1840 C 0.61461 0.25855 0.90976 0.0
C1841 C 0.65163 0.27467 0.88576 0.0
C1842 C 0.63636 0.27391 0.89658 0.0
C1843 C 0.59391 0.27149 0.93206 0.0
C1844 C 0.60824 0.27235 0.91924 0.0
H1845 H 0.67203 0.29902 0.85437 0.0
H1846 H 0.64611 0.29661 0.86948 0.0
H1847 H 0.63307 0.24848 0.89139 0.0
H1848 H 0.57843 0.24932 0.97073 0.0
H1849 H 0.60118 0.24997 0.94828 0.0
C1850 C 0.75947 0.6591 0.82872 0.0
C1851 C 0.74902 0.67114 0.83517 0.0
C1852 C 0.76478 0.64753 0.84318 0.0
C1853 C 0.76805 0.63883 0.90159 0.0
H1854 H 0.76749 0.59477 0.88123 0.0
C1855 C 0.76378 0.58657 0.95817 0.0
C1856 C 0.77289 0.5729 0.9543 0.0
C1857 C 0.76341 0.59898 0.94378 0.0
C1858 C 0.76797 0.60703 0.88708 0.0
H1859 H 0.73581 0.68036 0.86176 0.0
H1860 H 0.74495 0.66022 0.88686 0.0
H1861 H 0.76215 0.61578 0.85555 0.0
H1862 H 0.78892 0.56155 0.93253 0.0
H1863 H 0.78822 0.58334 0.9072 0.0
H1864 H 0.77334 0.63003 0.93323 0.0
C1865 C 0.74936 0.65988 0.87082 0.0
C1866 C 0.76492 0.61908 0.87238 0.0
C1867 C 0.7441 0.67143 0.85641 0.0
C1868 C 0.78186 0.572 0.93594 0.0
C1869 C 0.78137 0.58439 0.9214 0.0
C1870 C 0.77101 0.6268 0.91628 0.0
C1871 C 0.75971 0.64776 0.86437 0.0
C1872 C 0.7646 0.63509 0.87954 0.0
C1873 C 0.77206 0.59796 0.92512 0.0
C1874 C 0.77069 0.61076 0.90924 0.0
H1875 H 0.76361 0.65867 0.81251 0.0
H1876 H 0.77289 0.63845 0.83779 0.0
H1877 H 0.76822 0.65107 0.90757 0.0
H1878 H 0.75688 0.58764 0.97232 0.0
H1879 H 0.75599 0.60921 0.94697 0.0
loop_
_geom_bond_atom_site_label_1
_geom_bond_atom_site_label_2
_geom_bond_distance
_geom_bond_site_symmetry_2
_ccdc_geom_bond_type
H0 C27 0.929 . S
N1 C26 1.433 . S
N1 C32 1.435 . S
N1 C38 1.423 . S
H2 C28 0.930 . S
H3 C31 0.931 . S
H4 C30 0.929 . S
H5 C33 0.930 . S
H6 C34 0.932 . S
H7 C37 0.929 . S
H8 C36 0.931 . S
H9 C39 0.929 . S
H10 C43 0.932 . S
H11 C40 0.931 . S
H12 C42 0.929 . S
H13 C45 0.929 . S
H14 C46 0.930 . S
H15 C48 0.929 . S
H16 C49 0.931 . S
H17 C51 0.930 . S
H18 C52 0.932 . S
H19 C54 0.931 . S
H20 C55 0.929 . S
H21 C57 0.929 . S
H22 C58 0.931 . S
H23 C60 0.929 . S
N24 C44 1.433 . S
N24 C50 1.435 . S
N24 C56 1.423 . S
H25 C61 0.932 . S
C26 N1 1.433 . S
C26 C27 1.363 . S
C26 C31 1.370 . S
C27 H0 0.929 . S
C27 C26 1.363 . S
C27 C28 1.385 . S
C28 H2 0.930 . S
C28 C27 1.385 . S
C28 C29 1.357 . S
C29 C28 1.357 . S
C29 C30 1.406 . S
C30 H4 0.929 . S
C30 C29 1.406 . S
C30 C31 1.391 . S
C31 H3 0.931 . S
C31 C26 1.370 . S
C31 C30 1.391 . S
C32 N1 1.435 . S
C32 C33 1.358 . S
C32 C37 1.371 . S
C33 H5 0.930 . S
C33 C32 1.358 . S
C33 C34 1.405 . S
C34 H6 0.932 . S
C34 C33 1.405 . S
C34 C35 1.383 . S
C35 C34 1.383 . S
C35 C36 1.393 . S
C36 H8 0.931 . S
C36 C35 1.393 . S
C36 C37 1.382 . S
C37 H7 0.929 . S
C37 C32 1.371 . S
C37 C36 1.382 . S
C38 N1 1.423 . S
C38 C39 1.362 . S
C38 C43 1.388 . S
C39 H9 0.929 . S
C39 C38 1.362 . S
C39 C40 1.376 . S
C40 H11 0.931 . S
C40 C39 1.376 . S
C40 C41 1.396 . S
C41 C40 1.396 . S
C41 C42 1.348 . S
C41 C59 1.472 . S
C42 H12 0.929 . S
C42 C41 1.348 . S
C42 C43 1.443 . S
C43 H10 0.932 . S
C43 C38 1.388 . S
C43 C42 1.443 . S
C44 N24 1.433 . S
C44 C45 1.363 . S
C44 C49 1.370 . S
C45 H13 0.929 . S
C45 C44 1.363 . S
C45 C46 1.385 . S
C46 H14 0.930 . S
C46 C45 1.385 . S
C46 C47 1.357 . S
C47 C46 1.357 . S
C47 C48 1.406 . S
C48 H15 0.929 . S
C48 C47 1.406 . S
C48 C49 1.391 . S
C49 H16 0.931 . S
C49 C44 1.370 . S
C49 C48 1.391 . S
C50 N24 1.435 . S
C50 C51 1.358 . S
C50 C55 1.371 . S
C51 H17 0.930 . S
C51 C50 1.358 . S
C51 C52 1.405 . S
C52 H18 0.932 . S
C52 C51 1.405 . S
C52 C53 1.383 . S
C53 C52 1.383 . S
C53 C54 1.393 . S
C54 H19 0.931 . S
C54 C53 1.393 . S
C54 C55 1.382 . S
C55 H20 0.929 . S
C55 C50 1.371 . S
C55 C54 1.382 . S
C56 N24 1.423 . S
C56 C57 1.362 . S
C56 C61 1.388 . S
C57 H21 0.929 . S
C57 C56 1.362 . S
C57 C58 1.376 . S
C58 H22 0.931 . S
C58 C57 1.376 . S
C58 C59 1.396 . S
C59 C41 1.472 . S
C59 C58 1.396 . S
C59 C60 1.348 . S
C60 H23 0.929 . S
C60 C59 1.348 . S
C60 C61 1.443 . S
C61 H25 0.932 . S
C61 C56 1.388 . S
C61 C60 1.443 . S
H62 C89 0.929 . S
N63 C88 1.433 . S
N63 C94 1.435 . S
N63 C100 1.423 . S
H64 C90 0.930 . S
H65 C93 0.931 . S
H66 C92 0.929 . S
H67 C95 0.930 . S
H68 C96 0.932 . S
H69 C99 0.929 . S
H70 C98 0.931 . S
H71 C101 0.929 . S
H72 C105 0.932 . S
H73 C102 0.931 . S
H74 C104 0.929 . S
H75 C107 0.929 . S
H76 C108 0.930 . S
H77 C110 0.929 . S
H78 C111 0.931 . S
H79 C113 0.930 . S
H80 C114 0.932 . S
H81 C116 0.931 . S
H82 C117 0.929 . S
H83 C119 0.929 . S
H84 C120 0.931 . S
H85 C122 0.929 . S
N86 C106 1.433 . S
N86 C112 1.435 . S
N86 C118 1.423 . S
H87 C123 0.932 . S
C88 N63 1.433 . S
C88 C89 1.363 . S
C88 C93 1.370 . S
C89 H62 0.929 . S
C89 C88 1.363 . S
C89 C90 1.385 . S
C90 H64 0.930 . S
C90 C89 1.385 . S
C90 C91 1.357 . S
C91 C90 1.357 . S
C91 C92 1.406 . S
C92 H66 0.929 . S
C92 C91 1.406 . S
C92 C93 1.391 . S
C93 H65 0.931 . S
C93 C88 1.370 . S
C93 C92 1.391 . S
C94 N63 1.435 . S
C94 C95 1.358 . S
C94 C99 1.371 . S
C95 H67 0.930 . S
C95 C94 1.358 . S
C95 C96 1.405 . S
C96 H68 0.932 . S
C96 C95 1.405 . S
C96 C97 1.383 . S
C97 C96 1.383 . S
C97 C98 1.393 . S
C98 H70 0.931 . S
C98 C97 1.393 . S
C98 C99 1.382 . S
C99 H69 0.929 . S
C99 C94 1.371 . S
C99 C98 1.382 . S
C100 N63 1.423 . S
C100 C101 1.362 . S
C100 C105 1.388 . S
C101 H71 0.929 . S
C101 C100 1.362 . S
C101 C102 1.376 . S
C102 H73 0.931 . S
C102 C101 1.376 . S
C102 C103 1.396 . S
C103 C102 1.396 . S
C103 C104 1.348 . S
C103 C121 1.472 . S
C104 H74 0.929 . S
C104 C103 1.348 . S
C104 C105 1.443 . S
C105 H72 0.932 . S
C105 C100 1.388 . S
C105 C104 1.443 . S
C106 N86 1.433 . S
C106 C107 1.363 . S
C106 C111 1.370 . S
C107 H75 0.929 . S
C107 C106 1.363 . S
C107 C108 1.385 . S
C108 H76 0.930 . S
C108 C107 1.385 . S
C108 C109 1.357 . S
C109 C108 1.357 . S
C109 C110 1.406 . S
C110 H77 0.929 . S
C110 C109 1.406 . S
C110 C111 1.391 . S
C111 H78 0.931 . S
C111 C106 1.370 . S
C111 C110 1.391 . S
C112 N86 1.435 . S
C112 C113 1.358 . S
C112 C117 1.371 . S
C113 H79 0.930 . S
C113 C112 1.358 . S
C113 C114 1.405 . S
C114 H80 0.932 . S
C114 C113 1.405 . S
C114 C115 1.383 . S
C115 C114 1.383 . S
C115 C116 1.393 . S
C116 H81 0.931 . S
C116 C115 1.393 . S
C116 C117 1.382 . S
C117 H82 0.929 . S
C117 C112 1.371 . S
C117 C116 1.382 . S
C118 N86 1.423 . S
C118 C119 1.362 . S
C118 C123 1.388 . S
C119 H83 0.929 . S
C119 C118 1.362 . S
C119 C120 1.376 . S
C120 H84 0.931 . S
C120 C119 1.376 . S
C120 C121 1.396 . S
C121 C103 1.472 . S
C121 C120 1.396 . S
C121 C122 1.348 . S
C122 H85 0.929 . S
C122 C121 1.348 . S
C122 C123 1.443 . S
C123 H87 0.932 . S
C123 C118 1.388 . S
C123 C122 1.443 . S
H124 C151 0.929 . S
N125 C150 1.433 . S
N125 C156 1.435 . S
N125 C162 1.423 . S
H126 C152 0.930 . S
H127 C155 0.931 . S
H128 C154 0.929 . S
H129 C157 0.930 . S
H130 C158 0.932 . S
H131 C161 0.929 . S
H132 C160 0.931 . S
H133 C163 0.929 . S
H134 C167 0.932 . S
H135 C164 0.931 . S
H136 C166 0.929 . S
H137 C169 0.929 . S
H138 C170 0.930 . S
H139 C172 0.929 . S
H140 C173 0.931 . S
H141 C175 0.930 . S
H142 C176 0.932 . S
H143 C178 0.931 . S
H144 C179 0.929 . S
H145 C181 0.929 . S
H146 C182 0.931 . S
H147 C184 0.929 . S
N148 C168 1.433 . S
N148 C174 1.435 . S
N148 C180 1.423 . S
H149 C185 0.932 . S
C150 N125 1.433 . S
C150 C151 1.363 . S
C150 C155 1.370 . S
C151 H124 0.929 . S
C151 C150 1.363 . S
C151 C152 1.385 . S
C152 H126 0.930 . S
C152 C151 1.385 . S
C152 C153 1.357 . S
C153 C152 1.357 . S
C153 C154 1.406 . S
C154 H128 0.929 . S
C154 C153 1.406 . S
C154 C155 1.391 . S
C155 H127 0.931 . S
C155 C150 1.370 . S
C155 C154 1.391 . S
C156 N125 1.435 . S
C156 C157 1.358 . S
C156 C161 1.371 . S
C157 H129 0.930 . S
C157 C156 1.358 . S
C157 C158 1.405 . S
C158 H130 0.932 . S
C158 C157 1.405 . S
C158 C159 1.383 . S
C159 C158 1.383 . S
C159 C160 1.393 . S
C160 H132 0.931 . S
C160 C159 1.393 . S
C160 C161 1.382 . S
C161 H131 0.929 . S
C161 C156 1.371 . S
C161 C160 1.382 . S
C162 N125 1.423 . S
C162 C163 1.362 . S
C162 C167 1.388 . S
C163 H133 0.929 . S
C163 C162 1.362 . S
C163 C164 1.376 . S
C164 H135 0.931 . S
C164 C163 1.376 . S
C164 C165 1.396 . S
C165 C164 1.396 . S
C165 C166 1.348 . S
C165 C183 1.472 . S
C166 H136 0.929 . S
C166 C165 1.348 . S
C166 C167 1.443 . S
C167 H134 0.932 . S
C167 C162 1.388 . S
C167 C166 1.443 . S
C168 N148 1.433 . S
C168 C169 1.363 . S
C168 C173 1.370 . S
C169 H137 0.929 . S
C169 C168 1.363 . S
C169 C170 1.385 . S
C170 H138 0.930 . S
C170 C169 1.385 . S
C170 C171 1.357 . S
C171 C170 1.357 . S
C171 C172 1.406 . S
C172 H139 0.929 . S
C172 C171 1.406 . S
C172 C173 1.391 . S
C173 H140 0.931 . S
C173 C168 1.370 . S
C173 C172 1.391 . S
C174 N148 1.435 . S
C174 C175 1.358 . S
C174 C179 1.371 . S
C175 H141 0.930 . S
C175 C174 1.358 . S
C175 C176 1.405 . S
C176 H142 0.932 . S
C176 C175 1.405 . S
C176 C177 1.383 . S
C177 C176 1.383 . S
C177 C178 1.393 . S
C178 H143 0.931 . S
C178 C177 1.393 . S
C178 C179 1.382 . S
C179 H144 0.929 . S
C179 C174 1.371 . S
C179 C178 1.382 . S
C180 N148 1.423 . S
C180 C181 1.362 . S
C180 C185 1.388 . S
C181 H145 0.929 . S
C181 C180 1.362 . S
C181 C182 1.376 . S
C182 H146 0.931 . S
C182 C181 1.376 . S
C182 C183 1.396 . S
C183 C165 1.472 . S
C183 C182 1.396 . S
C183 C184 1.348 . S
C184 H147 0.929 . S
C184 C183 1.348 . S
C184 C185 1.443 . S
C185 H149 0.932 . S
C185 C180 1.388 . S
C185 C184 1.443 . S
H186 C213 0.929 . S
N187 C212 1.433 . S
N187 C218 1.435 . S
N187 C224 1.423 . S
H188 C214 0.930 . S
H189 C217 0.931 . S
H190 C216 0.929 . S
H191 C219 0.930 . S
H192 C220 0.932 . S
H193 C223 0.929 . S
H194 C222 0.931 . S
H195 C225 0.929 . S
H196 C229 0.932 . S
H197 C226 0.931 . S
H198 C228 0.929 . S
H199 C231 0.929 . S
H200 C232 0.930 . S
H201 C234 0.929 . S
H202 C235 0.931 . S
H203 C237 0.930 . S
H204 C238 0.932 . S
H205 C240 0.931 . S
H206 C241 0.929 . S
H207 C243 0.929 . S
H208 C244 0.931 . S
H209 C246 0.929 . S
N210 C230 1.433 . S
N210 C236 1.435 . S
N210 C242 1.423 . S
H211 C247 0.932 . S
C212 N187 1.433 . S
C212 C213 1.363 . S
C212 C217 1.370 . S
C213 H186 0.929 . S
C213 C212 1.363 . S
C213 C214 1.385 . S
C214 H188 0.930 . S
C214 C213 1.385 . S
C214 C215 1.357 . S
C215 C214 1.357 . S
C215 C216 1.406 . S
C216 H190 0.929 . S
C216 C215 1.406 . S
C216 C217 1.391 . S
C217 H189 0.931 . S
C217 C212 1.370 . S
C217 C216 1.391 . S
C218 N187 1.435 . S
C218 C219 1.358 . S
C218 C223 1.371 . S
C219 H191 0.930 . S
C219 C218 1.358 . S
C219 C220 1.405 . S
C220 H192 0.932 . S
C220 C219 1.405 . S
C220 C221 1.383 . S
C221 C220 1.383 . S
C221 C222 1.393 . S
C222 H194 0.931 . S
C222 C221 1.393 . S
C222 C223 1.382 . S
C223 H193 0.929 . S
C223 C218 1.371 . S
C223 C222 1.382 . S
C224 N187 1.423 . S
C224 C225 1.362 . S
C224 C229 1.388 . S
C225 H195 0.929 . S
C225 C224 1.362 . S
C225 C226 1.376 . S
C226 H197 0.931 . S
C226 C225 1.376 . S
C226 C227 1.396 . S
C227 C226 1.396 . S
C227 C228 1.348 . S
C227 C245 1.472 . S
C228 H198 0.929 . S
C228 C227 1.348 . S
C228 C229 1.443 . S
C229 H196 0.932 . S
C229 C224 1.388 . S
C229 C228 1.443 . S
C230 N210 1.433 . S
C230 C231 1.363 . S
C230 C235 1.370 . S
C231 H199 0.929 . S
C231 C230 1.363 . S
C231 C232 1.385 . S
C232 H200 0.930 . S
C232 C231 1.385 . S
C232 C233 1.357 . S
C233 C232 1.357 . S
C233 C234 1.406 . S
C234 H201 0.929 . S
C234 C233 1.406 . S
C234 C235 1.391 . S
C235 H202 0.931 . S
C235 C230 1.370 . S
C235 C234 1.391 . S
C236 N210 1.435 . S
C236 C237 1.358 . S
C236 C241 1.371 . S
C237 H203 0.930 . S
C237 C236 1.358 . S
C237 C238 1.405 . S
C238 H204 0.932 . S
C238 C237 1.405 . S
C238 C239 1.383 . S
C239 C238 1.383 . S
C239 C240 1.393 . S
C240 H205 0.931 . S
C240 C239 1.393 . S
C240 C241 1.382 . S
C241 H206 0.929 . S
C241 C236 1.371 . S
C241 C240 1.382 . S
C242 N210 1.423 . S
C242 C243 1.362 . S
C242 C247 1.388 . S
C243 H207 0.929 . S
C243 C242 1.362 . S
C243 C244 1.376 . S
C244 H208 0.931 . S
C244 C243 1.376 . S
C244 C245 1.396 . S
C245 C227 1.472 . S
C245 C244 1.396 . S
C245 C246 1.348 . S
C246 H209 0.929 . S
C246 C245 1.348 . S
C246 C247 1.443 . S
C247 H211 0.932 . S
C247 C242 1.388 . S
C247 C246 1.443 . S
H248 C275 0.929 . S
N249 C274 1.433 . S
N249 C280 1.435 . S
N249 C286 1.423 . S
H250 C276 0.930 . S
H251 C279 0.931 . S
H252 C278 0.929 . S
H253 C281 0.930 . S
H254 C282 0.932 . S
H255 C285 0.929 . S
H256 C284 0.931 . S
H257 C287 0.929 . S
H258 C291 0.932 . S
H259 C288 0.931 . S
H260 C290 0.929 . S
H261 C293 0.929 . S
H262 C294 0.930 . S
H263 C296 0.929 . S
H264 C297 0.931 . S
H265 C299 0.930 . S
H266 C300 0.932 . S
H267 C302 0.931 . S
H268 C303 0.929 . S
H269 C305 0.929 . S
H270 C306 0.931 . S
H271 C308 0.929 . S
N272 C292 1.433 . S
N272 C298 1.435 . S
N272 C304 1.423 . S
H273 C309 0.932 . S
C274 N249 1.433 . S
C274 C275 1.363 . S
C274 C279 1.370 . S
C275 H248 0.929 . S
C275 C274 1.363 . S
C275 C276 1.385 . S
C276 H250 0.930 . S
C276 C275 1.385 . S
C276 C277 1.357 . S
C277 C276 1.357 . S
C277 C278 1.406 . S
C278 H252 0.929 . S
C278 C277 1.406 . S
C278 C279 1.391 . S
C279 H251 0.931 . S
C279 C274 1.370 . S
C279 C278 1.391 . S
C280 N249 1.435 . S
C280 C281 1.358 . S
C280 C285 1.371 . S
C281 H253 0.930 . S
C281 C280 1.358 . S
C281 C282 1.405 . S
C282 H254 0.932 . S
C282 C281 1.405 . S
C282 C283 1.383 . S
C283 C282 1.383 . S
C283 C284 1.393 . S
C284 H256 0.931 . S
C284 C283 1.393 . S
C284 C285 1.382 . S
C285 H255 0.929 . S
C285 C280 1.371 . S
C285 C284 1.382 . S
C286 N249 1.423 . S
C286 C287 1.362 . S
C286 C291 1.388 . S
C287 H257 0.929 . S
C287 C286 1.362 . S
C287 C288 1.376 . S
C288 H259 0.931 . S
C288 C287 1.376 . S
C288 C289 1.396 . S
C289 C288 1.396 . S
C289 C290 1.348 . S
C289 C307 1.472 . S
C290 H260 0.929 . S
C290 C289 1.348 . S
C290 C291 1.443 . S
C291 H258 0.932 . S
C291 C286 1.388 . S
C291 C290 1.443 . S
C292 N272 1.433 . S
C292 C293 1.363 . S
C292 C297 1.370 . S
C293 H261 0.929 . S
C293 C292 1.363 . S
C293 C294 1.385 . S
C294 H262 0.930 . S
C294 C293 1.385 . S
C294 C295 1.357 . S
C295 C294 1.357 . S
C295 C296 1.406 . S
C296 H263 0.929 . S
C296 C295 1.406 . S
C296 C297 1.391 . S
C297 H264 0.931 . S
C297 C292 1.370 . S
C297 C296 1.391 . S
C298 N272 1.435 . S
C298 C299 1.358 . S
C298 C303 1.371 . S
C299 H265 0.930 . S
C299 C298 1.358 . S
C299 C300 1.405 . S
C300 H266 0.932 . S
C300 C299 1.405 . S
C300 C301 1.383 . S
C301 C300 1.383 . S
C301 C302 1.393 . S
C302 H267 0.931 . S
C302 C301 1.393 . S
C302 C303 1.382 . S
C303 H268 0.929 . S
C303 C298 1.371 . S
C303 C302 1.382 . S
C304 N272 1.423 . S
C304 C305 1.362 . S
C304 C309 1.388 . S
C305 H269 0.929 . S
C305 C304 1.362 . S
C305 C306 1.376 . S
C306 H270 0.931 . S
C306 C305 1.376 . S
C306 C307 1.396 . S
C307 C289 1.472 . S
C307 C306 1.396 . S
C307 C308 1.348 . S
C308 H271 0.929 . S
C308 C307 1.348 . S
C308 C309 1.443 . S
C309 H273 0.932 . S
C309 C304 1.388 . S
C309 C308 1.443 . S
H310 C337 0.929 . S
N311 C336 1.433 . S
N311 C342 1.435 . S
N311 C348 1.423 . S
H312 C338 0.930 . S
H313 C341 0.931 . S
H314 C340 0.929 . S
H315 C343 0.930 . S
H316 C344 0.932 . S
H317 C347 0.929 . S
H318 C346 0.931 . S
H319 C349 0.929 . S
H320 C353 0.932 . S
H321 C350 0.931 . S
H322 C352 0.929 . S
H323 C355 0.929 . S
H324 C356 0.930 . S
H325 C358 0.929 . S
H326 C359 0.931 . S
H327 C361 0.930 . S
H328 C362 0.932 . S
H329 C364 0.931 . S
H330 C365 0.929 . S
H331 C367 0.929 . S
H332 C368 0.931 . S
H333 C370 0.929 . S
N334 C354 1.433 . S
N334 C360 1.435 . S
N334 C366 1.423 . S
H335 C371 0.932 . S
C336 N311 1.433 . S
C336 C337 1.363 . S
C336 C341 1.370 . S
C337 H310 0.929 . S
C337 C336 1.363 . S
C337 C338 1.385 . S
C338 H312 0.930 . S
C338 C337 1.385 . S
C338 C339 1.357 . S
C339 C338 1.357 . S
C339 C340 1.406 . S
C340 H314 0.929 . S
C340 C339 1.406 . S
C340 C341 1.391 . S
C341 H313 0.931 . S
C341 C336 1.370 . S
C341 C340 1.391 . S
C342 N311 1.435 . S
C342 C343 1.358 . S
C342 C347 1.371 . S
C343 H315 0.930 . S
C343 C342 1.358 . S
C343 C344 1.405 . S
C344 H316 0.932 . S
C344 C343 1.405 . S
C344 C345 1.383 . S
C345 C344 1.383 . S
C345 C346 1.393 . S
C346 H318 0.931 . S
C346 C345 1.393 . S
C346 C347 1.382 . S
C347 H317 0.929 . S
C347 C342 1.371 . S
C347 C346 1.382 . S
C348 N311 1.423 . S
C348 C349 1.362 . S
C348 C353 1.388 . S
C349 H319 0.929 . S
C349 C348 1.362 . S
C349 C350 1.376 . S
C350 H321 0.931 . S
C350 C349 1.376 . S
C350 C351 1.396 . S
C351 C350 1.396 . S
C351 C352 1.348 . S
C351 C369 1.472 . S
C352 H322 0.929 . S
C352 C351 1.348 . S
C352 C353 1.443 . S
C353 H320 0.932 . S
C353 C348 1.388 . S
C353 C352 1.443 . S
C354 N334 1.433 . S
C354 C355 1.363 . S
C354 C359 1.370 . S
C355 H323 0.929 . S
C355 C354 1.363 . S
C355 C356 1.385 . S
C356 H324 0.930 . S
C356 C355 1.385 . S
C356 C357 1.357 . S
C357 C356 1.357 . S
C357 C358 1.406 . S
C358 H325 0.929 . S
C358 C357 1.406 . S
C358 C359 1.391 . S
C359 H326 0.931 . S
C359 C354 1.370 . S
C359 C358 1.391 . S
C360 N334 1.435 . S
C360 C361 1.358 . S
C360 C365 1.371 . S
C361 H327 0.930 . S
C361 C360 1.358 . S
C361 C362 1.405 . S
C362 H328 0.932 . S
C362 C361 1.405 . S
C362 C363 1.383 . S
C363 C362 1.383 . S
C363 C364 1.393 . S
C364 H329 0.931 . S
C364 C363 1.393 . S
C364 C365 1.382 . S
C365 H330 0.929 . S
C365 C360 1.371 . S
C365 C364 1.382 . S
C366 N334 1.423 . S
C366 C367 1.362 . S
C366 C371 1.388 . S
C367 H331 0.929 . S
C367 C366 1.362 . S
C367 C368 1.376 . S
C368 H332 0.931 . S
C368 C367 1.376 . S
C368 C369 1.396 . S
C369 C351 1.472 . S
C369 C368 1.396 . S
C369 C370 1.348 . S
C370 H333 0.929 . S
C370 C369 1.348 . S
C370 C371 1.443 . S
C371 H335 0.932 . S
C371 C366 1.388 . S
C371 C370 1.443 . S
H372 C399 0.929 . S
N373 C398 1.433 . S
N373 C404 1.435 . S
N373 C410 1.423 . S
H374 C400 0.930 . S
H375 C403 0.931 . S
H376 C402 0.929 . S
H377 C405 0.930 . S
H378 C406 0.932 . S
H379 C409 0.929 . S
H380 C408 0.931 . S
H381 C411 0.929 . S
H382 C415 0.932 . S
H383 C412 0.931 . S
H384 C414 0.929 . S
H385 C417 0.929 . S
H386 C418 0.930 . S
H387 C420 0.929 . S
H388 C421 0.931 . S
H389 C423 0.930 . S
H390 C424 0.932 . S
H391 C426 0.931 . S
H392 C427 0.929 . S
H393 C429 0.929 . S
H394 C430 0.931 . S
H395 C432 0.929 . S
N396 C416 1.433 . S
N396 C422 1.435 . S
N396 C428 1.423 . S
H397 C433 0.932 . S
C398 N373 1.433 . S
C398 C399 1.363 . S
C398 C403 1.370 . S
C399 H372 0.929 . S
C399 C398 1.363 . S
C399 C400 1.385 . S
C400 H374 0.930 . S
C400 C399 1.385 . S
C400 C401 1.357 . S
C401 C400 1.357 . S
C401 C402 1.406 . S
C402 H376 0.929 . S
C402 C401 1.406 . S
C402 C403 1.391 . S
C403 H375 0.931 . S
C403 C398 1.370 . S
C403 C402 1.391 . S
C404 N373 1.435 . S
C404 C405 1.358 . S
C404 C409 1.371 . S
C405 H377 0.930 . S
C405 C404 1.358 . S
C405 C406 1.405 . S
C406 H378 0.932 . S
C406 C405 1.405 . S
C406 C407 1.383 . S
C407 C406 1.383 . S
C407 C408 1.393 . S
C408 H380 0.931 . S
C408 C407 1.393 . S
C408 C409 1.382 . S
C409 H379 0.929 . S
C409 C404 1.371 . S
C409 C408 1.382 . S
C410 N373 1.423 . S
C410 C411 1.362 . S
C410 C415 1.388 . S
C411 H381 0.929 . S
C411 C410 1.362 . S
C411 C412 1.376 . S
C412 H383 0.931 . S
C412 C411 1.376 . S
C412 C413 1.396 . S
C413 C412 1.396 . S
C413 C414 1.348 . S
C413 C431 1.472 . S
C414 H384 0.929 . S
C414 C413 1.348 . S
C414 C415 1.443 . S
C415 H382 0.932 . S
C415 C410 1.388 . S
C415 C414 1.443 . S
C416 N396 1.433 . S
C416 C417 1.363 . S
C416 C421 1.370 . S
C417 H385 0.929 . S
C417 C416 1.363 . S
C417 C418 1.385 . S
C418 H386 0.930 . S
C418 C417 1.385 . S
C418 C419 1.357 . S
C419 C418 1.357 . S
C419 C420 1.406 . S
C420 H387 0.929 . S
C420 C419 1.406 . S
C420 C421 1.391 . S
C421 H388 0.931 . S
C421 C416 1.370 . S
C421 C420 1.391 . S
C422 N396 1.435 . S
C422 C423 1.358 . S
C422 C427 1.371 . S
C423 H389 0.930 . S
C423 C422 1.358 . S
C423 C424 1.405 . S
C424 H390 0.932 . S
C424 C423 1.405 . S
C424 C425 1.383 . S
C425 C424 1.383 . S
C425 C426 1.393 . S
C426 H391 0.931 . S
C426 C425 1.393 . S
C426 C427 1.382 . S
C427 H392 0.929 . S
C427 C422 1.371 . S
C427 C426 1.382 . S
C428 N396 1.423 . S
C428 C429 1.362 . S
C428 C433 1.388 . S
C429 H393 0.929 . S
C429 C428 1.362 . S
C429 C430 1.376 . S
C430 H394 0.931 . S
C430 C429 1.376 . S
C430 C431 1.396 . S
C431 C413 1.472 . S
C431 C430 1.396 . S
C431 C432 1.348 . S
C432 H395 0.929 . S
C432 C431 1.348 . S
C432 C433 1.443 . S
C433 H397 0.932 . S
C433 C428 1.388 . S
C433 C432 1.443 . S
H434 C461 0.929 . S
N435 C460 1.433 . S
N435 C466 1.435 . S
N435 C472 1.423 . S
H436 C462 0.930 . S
H437 C465 0.931 . S
H438 C464 0.929 . S
H439 C467 0.930 . S
H440 C468 0.932 . S
H441 C471 0.929 . S
H442 C470 0.931 . S
H443 C473 0.929 . S
H444 C477 0.932 . S
H445 C474 0.931 . S
H446 C476 0.929 . S
H447 C479 0.929 . S
H448 C480 0.930 . S
H449 C482 0.929 . S
H450 C483 0.931 . S
H451 C485 0.930 . S
H452 C486 0.932 . S
H453 C488 0.931 . S
H454 C489 0.929 . S
H455 C491 0.929 . S
H456 C492 0.931 . S
H457 C494 0.929 . S
N458 C478 1.433 . S
N458 C484 1.435 . S
N458 C490 1.423 . S
H459 C495 0.932 . S
C460 N435 1.433 . S
C460 C461 1.363 . S
C460 C465 1.370 . S
C461 H434 0.929 . S
C461 C460 1.363 . S
C461 C462 1.385 . S
C462 H436 0.930 . S
C462 C461 1.385 . S
C462 C463 1.357 . S
C463 C462 1.357 . S
C463 C464 1.406 . S
C464 H438 0.929 . S
C464 C463 1.406 . S
C464 C465 1.391 . S
C465 H437 0.931 . S
C465 C460 1.370 . S
C465 C464 1.391 . S
C466 N435 1.435 . S
C466 C467 1.358 . S
C466 C471 1.371 . S
C467 H439 0.930 . S
C467 C466 1.358 . S
C467 C468 1.405 . S
C468 H440 0.932 . S
C468 C467 1.405 . S
C468 C469 1.383 . S
C469 C468 1.383 . S
C469 C470 1.393 . S
C470 H442 0.931 . S
C470 C469 1.393 . S
C470 C471 1.382 . S
C471 H441 0.929 . S
C471 C466 1.371 . S
C471 C470 1.382 . S
C472 N435 1.423 . S
C472 C473 1.362 . S
C472 C477 1.388 . S
C473 H443 0.929 . S
C473 C472 1.362 . S
C473 C474 1.376 . S
C474 H445 0.931 . S
C474 C473 1.376 . S
C474 C475 1.396 . S
C475 C474 1.396 . S
C475 C476 1.348 . S
C475 C493 1.472 . S
C476 H446 0.929 . S
C476 C475 1.348 . S
C476 C477 1.443 . S
C477 H444 0.932 . S
C477 C472 1.388 . S
C477 C476 1.443 . S
C478 N458 1.433 . S
C478 C479 1.363 . S
C478 C483 1.370 . S
C479 H447 0.929 . S
C479 C478 1.363 . S
C479 C480 1.385 . S
C480 H448 0.930 . S
C480 C479 1.385 . S
C480 C481 1.357 . S
C481 C480 1.357 . S
C481 C482 1.406 . S
C482 H449 0.929 . S
C482 C481 1.406 . S
C482 C483 1.391 . S
C483 H450 0.931 . S
C483 C478 1.370 . S
C483 C482 1.391 . S
C484 N458 1.435 . S
C484 C485 1.358 . S
C484 C489 1.371 . S
C485 H451 0.930 . S
C485 C484 1.358 . S
C485 C486 1.405 . S
C486 H452 0.932 . S
C486 C485 1.405 . S
C486 C487 1.383 . S
C487 C486 1.383 . S
C487 C488 1.393 . S
C488 H453 0.931 . S
C488 C487 1.393 . S
C488 C489 1.382 . S
C489 H454 0.929 . S
C489 C484 1.371 . S
C489 C488 1.382 . S
C490 N458 1.423 . S
C490 C491 1.362 . S
C490 C495 1.388 . S
C491 H455 0.929 . S
C491 C490 1.362 . S
C491 C492 1.376 . S
C492 H456 0.931 . S
C492 C491 1.376 . S
C492 C493 1.396 . S
C493 C475 1.472 . S
C493 C492 1.396 . S
C493 C494 1.348 . S
C494 H457 0.929 . S
C494 C493 1.348 . S
C494 C495 1.443 . S
C495 H459 0.932 . S
C495 C490 1.388 . S
C495 C494 1.443 . S
C496 C497 1.443 . S
C496 N500 1.376 . S
C496 C534 1.389 . S
C497 C496 1.443 . S
C497 C498 1.340 . S
C497 H537 0.951 . S
C498 C497 1.340 . S
C498 C499 1.439 . S
C498 H538 0.950 . S
C499 C498 1.439 . S
C499 N500 1.374 . S
C499 C533 1.395 . S
N500 C496 1.376 . S
N500 C499 1.374 . S
N500 Co501 2.008 . S
Co501 N500 2.008 . S
Co501 N502 1.991 . S
Co501 N507 2.008 1_455 S
Co501 N512 1.995 . S
Co501 N517 2.282 1_455 S
Co501 N523 2.282 . S
N502 Co501 1.991 . S
N502 C503 1.375 . S
N502 C506 1.389 1_455 S
C503 N502 1.375 . S
C503 C504 1.446 1_455 S
C503 C533 1.391 . S
C504 C503 1.446 1_655 S
C504 C505 1.339 . S
C504 H539 0.949 . S
C505 C504 1.339 . S
C505 C506 1.439 . S
C505 H540 0.950 . S
C506 N502 1.389 1_655 S
C506 C505 1.439 . S
C506 C535 1.392 . S
N507 Co501 2.008 1_655 S
N507 C508 1.376 . S
N507 C511 1.374 . S
C508 N507 1.376 . S
C508 C509 1.443 . S
C508 C535 1.389 . S
C509 C508 1.443 . S
C509 C510 1.340 . S
C509 H541 0.951 . S
C510 C509 1.340 . S
C510 C511 1.439 . S
C510 H542 0.950 . S
C511 N507 1.374 . S
C511 C510 1.439 . S
C511 C536 1.395 1_655 S
N512 Co501 1.995 . S
N512 C513 1.376 . S
N512 C516 1.383 . S
C513 N512 1.376 . S
C513 C514 1.446 . S
C513 C536 1.391 . S
C514 C513 1.446 . S
C514 C515 1.339 . S
C514 H543 0.949 . S
C515 C514 1.339 . S
C515 C516 1.439 . S
C515 H544 0.950 . S
C516 N512 1.383 . S
C516 C515 1.439 . S
C516 C534 1.392 . S
N517 Co501 2.282 1_655 S
N517 C520 1.332 . S
N517 C522 1.332 . S
C518 C519 1.386 . S
C518 C521 1.388 . S
C519 C518 1.386 . S
C519 C520 1.382 . S
C519 H545 0.950 . S
C520 N517 1.332 . S
C520 C519 1.382 . S
C520 H531 0.952 . S
C521 C518 1.388 . S
C521 C522 1.382 . S
C521 H546 0.950 . S
C522 N517 1.332 . S
C522 C521 1.382 . S
C522 H532 0.948 . S
N523 Co501 2.282 . S
N523 C527 1.332 . S
N523 C528 1.332 . S
C524 C525 1.388 . S
C524 C528 1.382 . S
C524 H547 0.950 . S
C525 C524 1.388 . S
C525 C526 1.386 . S
C526 C525 1.386 . S
C526 C527 1.382 . S
C526 H548 0.950 . S
C527 N523 1.332 . S
C527 C526 1.382 . S
C527 H529 0.952 . S
C528 N523 1.332 . S
C528 C524 1.382 . S
C528 H530 0.948 . S
H529 C527 0.952 . S
H530 C528 0.948 . S
H531 C520 0.952 . S
H532 C522 0.948 . S
C533 C499 1.395 . S
C533 C503 1.391 . S
C534 C496 1.389 . S
C534 C516 1.392 . S
C535 C506 1.392 . S
C535 C508 1.389 . S
C536 C511 1.395 1_455 S
C536 C513 1.391 . S
H537 C497 0.951 . S
H538 C498 0.950 . S
H539 C504 0.949 . S
H540 C505 0.950 . S
H541 C509 0.951 . S
H542 C510 0.950 . S
H543 C514 0.949 . S
H544 C515 0.950 . S
H545 C519 0.950 . S
H546 C521 0.950 . S
H547 C524 0.950 . S
H548 C526 0.950 . S
C549 C550 1.443 . S
C549 N553 1.376 . S
C549 C587 1.389 . S
C550 C549 1.443 . S
C550 C551 1.340 . S
C550 H590 0.951 . S
C551 C550 1.340 . S
C551 C552 1.439 . S
C551 H591 0.950 . S
C552 C551 1.439 . S
C552 N553 1.374 . S
C552 C586 1.395 . S
N553 C549 1.376 . S
N553 C552 1.374 . S
N553 Co554 2.008 . S
Co554 N553 2.008 . S
Co554 N555 2.031 . S
Co554 N560 1.970 1_545 S
Co554 N565 1.995 . S
Co554 N570 2.282 1_545 S
Co554 N576 2.282 . S
N555 Co554 2.031 . S
N555 C556 1.389 . S
N555 C559 1.325 1_545 S
C556 N555 1.389 . S
C556 C557 1.446 1_545 S
C556 C586 1.391 . S
C557 C556 1.446 1_565 S
C557 C558 1.339 . S
C557 H592 0.949 . S
C558 C557 1.339 . S
C558 C559 1.439 . S
C558 H593 0.950 . S
C559 N555 1.325 1_565 S
C559 C558 1.439 . S
C559 C588 1.392 . S
N560 Co554 1.970 1_565 S
N560 C561 1.433 . S
N560 C564 1.374 . S
C561 N560 1.433 . S
C561 C562 1.443 . S
C561 C588 1.389 . S
C562 C561 1.443 . S
C562 C563 1.340 . S
C562 H594 0.951 . S
C563 C562 1.340 . S
C563 C564 1.471 . S
C563 H595 0.950 . S
C564 N560 1.374 . S
C564 C563 1.471 . S
C564 C589 1.369 1_565 S
N565 Co554 1.995 . S
N565 C566 1.376 . S
N565 C569 1.383 . S
C566 N565 1.376 . S
C566 C567 1.446 . S
C566 C589 1.391 . S
C567 C566 1.446 . S
C567 C568 1.339 . S
C567 H596 0.949 . S
C568 C567 1.339 . S
C568 C569 1.439 . S
C568 H597 0.950 . S
C569 N565 1.383 . S
C569 C568 1.439 . S
C569 C587 1.392 . S
N570 Co554 2.282 1_565 S
N570 C573 1.332 . S
N570 C575 1.332 . S
C571 C572 1.386 . S
C571 C574 1.388 . S
C572 C571 1.386 . S
C572 C573 1.382 . S
C572 H598 0.950 . S
C573 N570 1.332 . S
C573 C572 1.382 . S
C573 H584 0.952 . S
C574 C571 1.388 . S
C574 C575 1.382 . S
C574 H599 0.950 . S
C575 N570 1.332 . S
C575 C574 1.382 . S
C575 H585 0.948 . S
N576 Co554 2.282 . S
N576 C580 1.332 . S
N576 C581 1.332 . S
C577 C578 1.388 . S
C577 C581 1.382 . S
C577 H600 0.950 . S
C578 C577 1.388 . S
C578 C579 1.386 . S
C579 C578 1.386 . S
C579 C580 1.382 . S
C579 H601 0.950 . S
C580 N576 1.332 . S
C580 C579 1.382 . S
C580 H582 0.952 . S
C581 N576 1.332 . S
C581 C577 1.382 . S
C581 H583 0.948 . S
H582 C580 0.952 . S
H583 C581 0.948 . S
H584 C573 0.952 . S
H585 C575 0.948 . S
C586 C552 1.395 . S
C586 C556 1.391 . S
C587 C549 1.389 . S
C587 C569 1.392 . S
C588 C559 1.392 . S
C588 C561 1.389 . S
C589 C564 1.369 1_545 S
C589 C566 1.391 . S
H590 C550 0.951 . S
H591 C551 0.950 . S
H592 C557 0.949 . S
H593 C558 0.950 . S
H594 C562 0.951 . S
H595 C563 0.950 . S
H596 C567 0.949 . S
H597 C568 0.950 . S
H598 C572 0.950 . S
H599 C574 0.950 . S
H600 C577 0.950 . S
H601 C579 0.950 . S
C602 C603 1.443 . S
C602 N606 1.376 . S
C602 C640 1.389 . S
C603 C602 1.443 . S
C603 C604 1.340 . S
C603 H643 0.951 . S
C604 C603 1.340 . S
C604 C605 1.439 . S
C604 H644 0.950 . S
C605 C604 1.439 . S
C605 N606 1.374 . S
C605 C639 1.395 . S
N606 C602 1.376 . S
N606 C605 1.374 . S
N606 Co607 2.008 . S
Co607 N606 2.008 . S
Co607 N608 1.995 1_455 S
Co607 N613 2.008 1_455 S
Co607 N618 1.995 . S
Co607 N623 2.282 1_455 S
Co607 N629 2.282 . S
N608 Co607 1.995 1_655 S
N608 C609 1.370 1_655 S
N608 C612 1.383 . S
C609 N608 1.370 1_455 S
C609 C610 1.406 1_455 S
C609 C639 1.432 . S
C610 C609 1.406 1_655 S
C610 C611 1.339 . S
C610 H645 0.949 . S
C611 C610 1.339 . S
C611 C612 1.439 . S
C611 H646 0.950 . S
C612 N608 1.383 . S
C612 C611 1.439 . S
C612 C641 1.392 . S
N613 Co607 2.008 1_655 S
N613 C614 1.376 . S
N613 C617 1.374 . S
C614 N613 1.376 . S
C614 C615 1.443 . S
C614 C641 1.389 . S
C615 C614 1.443 . S
C615 C616 1.340 . S
C615 H647 0.951 . S
C616 C615 1.340 . S
C616 C617 1.439 . S
C616 H648 0.950 . S
C617 N613 1.374 . S
C617 C616 1.439 . S
C617 C642 1.395 1_655 S
N618 Co607 1.995 . S
N618 C619 1.376 . S
N618 C622 1.383 . S
C619 N618 1.376 . S
C619 C620 1.446 . S
C619 C642 1.391 . S
C620 C619 1.446 . S
C620 C621 1.339 . S
C620 H649 0.949 . S
C621 C620 1.339 . S
C621 C622 1.439 . S
C621 H650 0.950 . S
C622 N618 1.383 . S
C622 C621 1.439 . S
C622 C640 1.392 . S
N623 Co607 2.282 1_655 S
N623 C626 1.332 . S
N623 C628 1.332 . S
C624 C625 1.386 . S
C624 C627 1.388 . S
C625 C624 1.386 . S
C625 C626 1.382 . S
C625 H651 0.950 . S
C626 N623 1.332 . S
C626 C625 1.382 . S
C626 H637 0.952 . S
C627 C624 1.388 . S
C627 C628 1.382 . S
C627 H652 0.950 . S
C628 N623 1.332 . S
C628 C627 1.382 . S
C628 H638 0.948 . S
N629 Co607 2.282 . S
N629 C633 1.332 . S
N629 C634 1.332 . S
C630 C631 1.388 . S
C630 C634 1.382 . S
C630 H653 0.950 . S
C631 C630 1.388 . S
C631 C632 1.386 . S
C632 C631 1.386 . S
C632 C633 1.382 . S
C632 H654 0.950 . S
C633 N629 1.332 . S
C633 C632 1.382 . S
C633 H635 0.952 . S
C634 N629 1.332 . S
C634 C630 1.382 . S
C634 H636 0.948 . S
H635 C633 0.952 . S
H636 C634 0.948 . S
H637 C626 0.952 . S
H638 C628 0.948 . S
C639 C605 1.395 . S
C639 C609 1.432 . S
C640 C602 1.389 . S
C640 C622 1.392 . S
C641 C612 1.392 . S
C641 C614 1.389 . S
C642 C617 1.395 1_455 S
C642 C619 1.391 . S
H643 C603 0.951 . S
H644 C604 0.950 . S
H645 C610 0.949 . S
H646 C611 0.950 . S
H647 C615 0.951 . S
H648 C616 0.950 . S
H649 C620 0.949 . S
H650 C621 0.950 . S
H651 C625 0.950 . S
H652 C627 0.950 . S
H653 C630 0.950 . S
H654 C632 0.950 . S
C655 C656 1.443 . S
C655 N659 1.371 . S
C655 C693 1.389 . S
C656 C655 1.443 . S
C656 C657 1.340 . S
C656 H696 0.951 . S
C657 C656 1.340 . S
C657 C658 1.416 1_565 S
C657 H697 0.950 . S
C658 C657 1.416 1_545 S
C658 N659 1.373 1_545 S
C658 C692 1.415 . S
N659 C655 1.371 . S
N659 C658 1.373 1_565 S
N659 Co660 2.012 1_565 S
Co660 N659 2.012 1_545 S
Co660 N661 1.995 . S
Co660 N666 2.008 . S
Co660 N671 1.995 . S
Co660 N676 2.282 . S
Co660 N682 2.282 1_545 S
N661 Co660 1.995 . S
N661 C662 1.376 . S
N661 C665 1.383 . S
C662 N661 1.376 . S
C662 C663 1.446 . S
C662 C692 1.391 . S
C663 C662 1.446 . S
C663 C664 1.339 . S
C663 H698 0.949 . S
C664 C663 1.339 . S
C664 C665 1.439 . S
C664 H699 0.950 . S
C665 N661 1.383 . S
C665 C664 1.439 . S
C665 C694 1.392 . S
N666 Co660 2.008 . S
N666 C667 1.376 . S
N666 C670 1.374 . S
C667 N666 1.376 . S
C667 C668 1.443 . S
C667 C694 1.389 . S
C668 C667 1.443 . S
C668 C669 1.340 . S
C668 H700 0.951 . S
C669 C668 1.340 . S
C669 C670 1.439 . S
C669 H701 0.950 . S
C670 N666 1.374 . S
C670 C669 1.439 . S
C670 C695 1.395 . S
N671 Co660 1.995 . S
N671 C672 1.376 . S
N671 C675 1.383 1_545 S
C672 N671 1.376 . S
C672 C673 1.446 1_545 S
C672 C695 1.391 . S
C673 C672 1.446 1_565 S
C673 C674 1.339 . S
C673 H702 0.949 . S
C674 C673 1.339 . S
C674 C675 1.439 . S
C674 H703 0.950 . S
C675 N671 1.383 1_565 S
C675 C674 1.439 . S
C675 C693 1.392 . S
N676 Co660 2.282 . S
N676 C679 1.332 . S
N676 C681 1.332 . S
C677 C678 1.386 . S
C677 C680 1.388 . S
C678 C677 1.386 . S
C678 C679 1.382 . S
C678 H704 0.950 . S
C679 N676 1.332 . S
C679 C678 1.382 . S
C679 H690 0.952 . S
C680 C677 1.388 . S
C680 C681 1.382 . S
C680 H705 0.950 . S
C681 N676 1.332 . S
C681 C680 1.382 . S
C681 H691 0.948 . S
N682 Co660 2.282 1_565 S
N682 C686 1.332 . S
N682 C687 1.332 . S
C683 C684 1.388 . S
C683 C687 1.382 . S
C683 H706 0.950 . S
C684 C683 1.388 . S
C684 C685 1.386 . S
C685 C684 1.386 . S
C685 C686 1.382 . S
C685 H707 0.950 . S
C686 N682 1.332 . S
C686 C685 1.382 . S
C686 H688 0.952 . S
C687 N682 1.332 . S
C687 C683 1.382 . S
C687 H689 0.948 . S
H688 C686 0.952 . S
H689 C687 0.948 . S
H690 C679 0.952 . S
H691 C681 0.948 . S
C692 C658 1.415 . S
C692 C662 1.391 . S
C693 C655 1.389 . S
C693 C675 1.392 . S
C694 C665 1.392 . S
C694 C667 1.389 . S
C695 C670 1.395 . S
C695 C672 1.391 . S
H696 C656 0.951 . S
H697 C657 0.950 . S
H698 C663 0.949 . S
H699 C664 0.950 . S
H700 C668 0.951 . S
H701 C669 0.950 . S
H702 C673 0.949 . S
H703 C674 0.950 . S
H704 C678 0.950 . S
H705 C680 0.950 . S
H706 C683 0.950 . S
H707 C685 0.950 . S
C708 C709 1.443 . S
C708 N712 1.376 . S
C708 C746 1.389 . S
C709 C708 1.443 . S
C709 C710 1.340 . S
C709 H749 0.951 . S
C710 C709 1.340 . S
C710 C711 1.439 . S
C710 H750 0.950 . S
C711 C710 1.439 . S
C711 N712 1.374 . S
C711 C745 1.365 1_554 S
N712 C708 1.376 . S
N712 C711 1.374 . S
N712 Co713 2.027 . S
Co713 N712 2.027 . S
Co713 N714 1.973 1_554 S
Co713 N719 1.991 1_554 S
Co713 N724 2.017 . S
Co713 N729 2.314 . S
Co713 N735 2.251 1_554 S
N714 Co713 1.973 1_556 S
N714 C715 1.376 . S
N714 C718 1.383 . S
C715 N714 1.376 . S
C715 C716 1.446 . S
C715 C745 1.420 . S
C716 C715 1.446 . S
C716 C717 1.339 . S
C716 H751 0.949 . S
C717 C716 1.339 . S
C717 C718 1.439 . S
C717 H752 0.950 . S
C718 N714 1.383 . S
C718 C717 1.439 . S
C718 C747 1.392 . S
N719 Co713 1.991 1_556 S
N719 C720 1.376 . S
N719 C723 1.374 . S
C720 N719 1.376 . S
C720 C721 1.443 . S
C720 C747 1.389 . S
C721 C720 1.443 . S
C721 C722 1.340 . S
C721 H753 0.951 . S
C722 C721 1.340 . S
C722 C723 1.439 . S
C722 H754 0.950 . S
C723 N719 1.374 . S
C723 C722 1.439 . S
C723 C748 1.395 1_556 S
N724 Co713 2.017 . S
N724 C725 1.376 . S
N724 C728 1.383 . S
C725 N724 1.376 . S
C725 C726 1.446 . S
C725 C748 1.391 . S
C726 C725 1.446 . S
C726 C727 1.339 . S
C726 H755 0.949 . S
C727 C726 1.339 . S
C727 C728 1.439 . S
C727 H756 0.950 . S
C728 N724 1.383 . S
C728 C727 1.439 . S
C728 C746 1.392 . S
N729 Co713 2.314 . S
N729 C732 1.332 . S
N729 C734 1.332 . S
C730 C731 1.386 . S
C730 C733 1.388 . S
C731 C730 1.386 . S
C731 C732 1.382 . S
C731 H757 0.950 . S
C732 N729 1.332 . S
C732 C731 1.382 . S
C732 H743 0.952 . S
C733 C730 1.388 . S
C733 C734 1.382 . S
C733 H758 0.950 . S
C734 N729 1.332 . S
C734 C733 1.382 . S
C734 H744 0.948 . S
N735 Co713 2.251 1_556 S
N735 C739 1.332 . S
N735 C740 1.332 . S
C736 C737 1.388 . S
C736 C740 1.382 . S
C736 H759 0.950 . S
C737 C736 1.388 . S
C737 C738 1.386 . S
C738 C737 1.386 . S
C738 C739 1.382 . S
C738 H760 0.950 . S
C739 N735 1.332 . S
C739 C738 1.382 . S
C739 H741 0.952 . S
C740 N735 1.332 . S
C740 C736 1.382 . S
C740 H742 0.948 . S
H741 C739 0.952 . S
H742 C740 0.948 . S
H743 C732 0.952 . S
H744 C734 0.948 . S
C745 C711 1.365 1_556 S
C745 C715 1.420 . S
C746 C708 1.389 . S
C746 C728 1.392 . S
C747 C718 1.392 . S
C747 C720 1.389 . S
C748 C723 1.395 1_554 S
C748 C725 1.391 . S
H749 C709 0.951 . S
H750 C710 0.950 . S
H751 C716 0.949 . S
H752 C717 0.950 . S
H753 C721 0.951 . S
H754 C722 0.950 . S
H755 C726 0.949 . S
H756 C727 0.950 . S
H757 C731 0.950 . S
H758 C733 0.950 . S
H759 C736 0.950 . S
H760 C738 0.950 . S
C761 C762 1.443 . S
C761 N765 1.376 . S
C761 C799 1.389 . S
C762 C761 1.443 . S
C762 C763 1.340 . S
C762 H802 0.951 . S
C763 C762 1.340 . S
C763 C764 1.439 . S
C763 H803 0.950 . S
C764 C763 1.439 . S
C764 N765 1.374 . S
C764 C798 1.395 . S
N765 C761 1.376 . S
N765 C764 1.374 . S
N765 Co766 2.008 . S
Co766 N765 2.008 . S
Co766 N767 1.995 . S
Co766 N772 2.008 . S
Co766 N777 1.995 . S
Co766 N782 2.282 . S
Co766 N788 2.282 . S
N767 Co766 1.995 . S
N767 C768 1.376 . S
N767 C771 1.368 1_554 S
C768 N767 1.376 . S
C768 C769 1.446 1_554 S
C768 C798 1.391 . S
C769 C768 1.446 1_556 S
C769 C770 1.339 . S
C769 H804 0.949 . S
C770 C769 1.339 . S
C770 C771 1.448 . S
C770 H805 0.950 . S
C771 N767 1.368 1_556 S
C771 C770 1.448 . S
C771 C800 1.397 . S
N772 Co766 2.008 . S
N772 C773 1.376 . S
N772 C776 1.374 . S
C773 N772 1.376 . S
C773 C774 1.443 . S
C773 C800 1.389 1_554 S
C774 C773 1.443 . S
C774 C775 1.340 . S
C774 H806 0.951 1_554 S
C775 C774 1.340 . S
C775 C776 1.439 . S
C775 H807 0.950 . S
C776 N772 1.374 . S
C776 C775 1.439 . S
C776 C801 1.395 . S
N777 Co766 1.995 . S
N777 C778 1.376 . S
N777 C781 1.383 . S
C778 N777 1.376 . S
C778 C779 1.446 . S
C778 C801 1.391 . S
C779 C778 1.446 . S
C779 C780 1.339 . S
C779 H808 0.949 . S
C780 C779 1.339 . S
C780 C781 1.439 . S
C780 H809 0.950 . S
C781 N777 1.383 . S
C781 C780 1.439 . S
C781 C799 1.392 . S
N782 Co766 2.282 . S
N782 C785 1.332 . S
N782 C787 1.332 . S
C783 C784 1.386 . S
C783 C786 1.388 . S
C784 C783 1.386 . S
C784 C785 1.382 . S
C784 H810 0.950 . S
C785 N782 1.332 . S
C785 C784 1.382 . S
C785 H796 0.952 . S
C786 C783 1.388 . S
C786 C787 1.382 . S
C786 H811 0.950 . S
C787 N782 1.332 . S
C787 C786 1.382 . S
C787 H797 0.948 . S
N788 Co766 2.282 . S
N788 C792 1.332 1_554 S
N788 C793 1.332 . S
C789 C790 1.388 . S
C789 C793 1.382 1_556 S
C789 H812 0.950 . S
C790 C789 1.388 . S
C790 C791 1.386 . S
C791 C790 1.386 . S
C791 C792 1.382 . S
C791 H813 0.950 . S
C792 N788 1.332 1_556 S
C792 C791 1.382 . S
C792 H794 0.952 . S
C793 N788 1.332 . S
C793 C789 1.382 1_554 S
C793 H795 0.948 . S
H794 C792 0.952 . S
H795 C793 0.948 . S
H796 C785 0.952 . S
H797 C787 0.948 . S
C798 C764 1.395 . S
C798 C768 1.391 . S
C799 C761 1.389 . S
C799 C781 1.392 . S
C800 C771 1.397 . S
C800 C773 1.389 1_556 S
C801 C776 1.395 . S
C801 C778 1.391 . S
H802 C762 0.951 . S
H803 C763 0.950 . S
H804 C769 0.949 . S
H805 C770 0.950 . S
H806 C774 0.951 1_556 S
H807 C775 0.950 . S
H808 C779 0.949 . S
H809 C780 0.950 . S
H810 C784 0.950 . S
H811 C786 0.950 . S
H812 C789 0.950 . S
H813 C791 0.950 . S
C814 C815 1.443 . S
C814 N818 1.376 1_556 S
C814 C852 1.389 . S
C815 C814 1.443 . S
C815 C816 1.340 1_556 S
C815 H855 0.951 . S
C816 C815 1.340 1_554 S
C816 C817 1.439 . S
C816 H856 0.950 . S
C817 C816 1.439 . S
C817 N818 1.374 . S
C817 C851 1.395 . S
N818 C814 1.376 1_554 S
N818 C817 1.374 . S
N818 Co819 2.008 . S
Co819 N818 2.008 . S
Co819 N820 1.995 . S
Co819 N825 2.008 . S
Co819 N830 1.995 . S
Co819 N835 2.282 1_554 S
Co819 N841 2.282 . S
N820 Co819 1.995 . S
N820 C821 1.376 . S
N820 C824 1.383 . S
C821 N820 1.376 . S
C821 C822 1.446 . S
C821 C851 1.391 . S
C822 C821 1.446 . S
C822 C823 1.339 . S
C822 H857 0.949 . S
C823 C822 1.339 . S
C823 C824 1.439 . S
C823 H858 0.950 . S
C824 N820 1.383 . S
C824 C823 1.439 . S
C824 C853 1.392 . S
N825 Co819 2.008 . S
N825 C826 1.376 . S
N825 C829 1.374 . S
C826 N825 1.376 . S
C826 C827 1.443 . S
C826 C853 1.389 . S
C827 C826 1.443 . S
C827 C828 1.340 . S
C827 H859 0.951 . S
C828 C827 1.340 . S
C828 C829 1.439 . S
C828 H860 0.950 . S
C829 N825 1.374 . S
C829 C828 1.439 . S
C829 C854 1.395 . S
N830 Co819 1.995 . S
N830 C831 1.376 . S
N830 C834 1.383 1_554 S
C831 N830 1.376 . S
C831 C832 1.446 1_554 S
C831 C854 1.391 . S
C832 C831 1.446 1_556 S
C832 C833 1.339 . S
C832 H861 0.949 . S
C833 C832 1.339 . S
C833 C834 1.439 . S
C833 H862 0.950 . S
C834 N830 1.383 1_556 S
C834 C833 1.439 . S
C834 C852 1.392 . S
N835 Co819 2.282 1_556 S
N835 C838 1.332 . S
N835 C840 1.332 . S
C836 C837 1.386 . S
C836 C839 1.388 . S
C837 C836 1.386 . S
C837 C838 1.382 . S
C837 H863 0.950 . S
C838 N835 1.332 . S
C838 C837 1.382 . S
C838 H849 0.952 . S
C839 C836 1.388 . S
C839 C840 1.382 . S
C839 H864 0.950 . S
C840 N835 1.332 . S
C840 C839 1.382 . S
C840 H850 0.948 1_556 S
N841 Co819 2.282 . S
N841 C845 1.332 . S
N841 C846 1.332 . S
C842 C843 1.388 . S
C842 C846 1.382 . S
C842 H865 0.950 . S
C843 C842 1.388 . S
C843 C844 1.386 . S
C844 C843 1.386 . S
C844 C845 1.382 . S
C844 H866 0.950 . S
C845 N841 1.332 . S
C845 C844 1.382 . S
C845 H847 0.952 . S
C846 N841 1.332 . S
C846 C842 1.382 . S
C846 H848 0.948 . S
H847 C845 0.952 . S
H848 C846 0.948 . S
H849 C838 0.952 . S
H850 C840 0.948 1_554 S
C851 C817 1.395 . S
C851 C821 1.391 . S
C852 C814 1.389 . S
C852 C834 1.392 . S
C853 C824 1.392 . S
C853 C826 1.389 . S
C854 C829 1.395 . S
C854 C831 1.391 . S
H855 C815 0.951 . S
H856 C816 0.950 . S
H857 C822 0.949 . S
H858 C823 0.950 . S
H859 C827 0.951 . S
H860 C828 0.950 . S
H861 C832 0.949 . S
H862 C833 0.950 . S
H863 C837 0.950 . S
H864 C839 0.950 . S
H865 C842 0.950 . S
H866 C844 0.950 . S
C867 C868 1.443 . S
C867 N871 1.376 . S
C867 C905 1.389 . S
C868 C867 1.443 . S
C868 C869 1.340 . S
C868 H908 0.951 . S
C869 C868 1.340 . S
C869 C870 1.439 . S
C869 H909 0.950 . S
C870 C869 1.439 . S
C870 N871 1.374 . S
C870 C904 1.395 . S
N871 C867 1.376 . S
N871 C870 1.374 . S
N871 Co872 2.008 . S
Co872 N871 2.008 . S
Co872 N873 1.995 . S
Co872 N878 2.008 . S
Co872 N883 1.995 . S
Co872 N888 2.282 . S
Co872 N894 2.282 1_554 S
N873 Co872 1.995 . S
N873 C874 1.376 . S
N873 C877 1.383 1_554 S
C874 N873 1.376 . S
C874 C875 1.446 1_554 S
C874 C904 1.391 . S
C875 C874 1.446 1_556 S
C875 C876 1.339 . S
C875 H910 0.949 . S
C876 C875 1.339 . S
C876 C877 1.439 . S
C876 H911 0.950 . S
C877 N873 1.383 1_556 S
C877 C876 1.439 . S
C877 C906 1.392 . S
N878 Co872 2.008 . S
N878 C879 1.376 1_554 S
N878 C882 1.374 . S
C879 N878 1.376 1_556 S
C879 C880 1.443 . S
C879 C906 1.389 . S
C880 C879 1.443 . S
C880 C881 1.340 1_556 S
C880 H912 0.951 . S
C881 C880 1.340 1_554 S
C881 C882 1.439 . S
C881 H913 0.950 . S
C882 N878 1.374 . S
C882 C881 1.439 . S
C882 C907 1.395 . S
N883 Co872 1.995 . S
N883 C884 1.376 . S
N883 C887 1.383 . S
C884 N883 1.376 . S
C884 C885 1.446 . S
C884 C907 1.391 . S
C885 C884 1.446 . S
C885 C886 1.339 . S
C885 H914 0.949 . S
C886 C885 1.339 . S
C886 C887 1.439 . S
C886 H915 0.950 . S
C887 N883 1.383 . S
C887 C886 1.439 . S
C887 C905 1.392 . S
N888 Co872 2.282 . S
N888 C891 1.332 . S
N888 C893 1.332 . S
C889 C890 1.386 . S
C889 C892 1.388 . S
C890 C889 1.386 . S
C890 C891 1.382 . S
C890 H916 0.950 . S
C891 N888 1.332 . S
C891 C890 1.382 . S
C891 H902 0.952 . S
C892 C889 1.388 . S
C892 C893 1.382 . S
C892 H917 0.950 . S
C893 N888 1.332 . S
C893 C892 1.382 . S
C893 H903 0.948 . S
N894 Co872 2.282 1_556 S
N894 C898 1.332 . S
N894 C899 1.332 . S
C895 C896 1.388 . S
C895 C899 1.382 . S
C895 H918 0.950 . S
C896 C895 1.388 . S
C896 C897 1.386 . S
C897 C896 1.386 . S
C897 C898 1.382 . S
C897 H919 0.950 . S
C898 N894 1.332 . S
C898 C897 1.382 . S
C898 H900 0.952 . S
C899 N894 1.332 . S
C899 C895 1.382 . S
C899 H901 0.948 1_556 S
H900 C898 0.952 . S
H901 C899 0.948 1_554 S
H902 C891 0.952 . S
H903 C893 0.948 . S
C904 C870 1.395 . S
C904 C874 1.391 . S
C905 C867 1.389 . S
C905 C887 1.392 . S
C906 C877 1.392 . S
C906 C879 1.389 . S
C907 C882 1.395 . S
C907 C884 1.391 . S
H908 C868 0.951 . S
H909 C869 0.950 . S
H910 C875 0.949 . S
H911 C876 0.950 . S
H912 C880 0.951 . S
H913 C881 0.950 . S
H914 C885 0.949 . S
H915 C886 0.950 . S
H916 C890 0.950 . S
H917 C892 0.950 . S
H918 C895 0.950 . S
H919 C897 0.950 . S
C920 C921 1.349 . S
C920 C922 1.327 . S
C920 H945 0.950 . S
C921 C920 1.349 . S
C921 C937 1.349 . S
C922 C920 1.327 . S
C922 C941 1.429 . S
C922 H946 0.950 . S
C923 C940 1.574 . S
C923 C942 1.368 . S
C923 H947 0.949 . S
H924 C928 0.949 . S
C925 C926 1.349 . S
C925 C927 1.327 . S
C925 H948 0.950 . S
C926 C925 1.349 . S
C926 C938 1.349 . S
C927 C925 1.327 . S
C927 C943 1.429 . S
C927 H949 0.950 . S
C928 H924 0.949 . S
C928 C936 1.574 . S
C928 C944 1.368 . S
H929 C937 0.950 . S
H930 C935 0.950 . S
H931 C936 0.949 . S
H932 C938 0.950 . S
H933 C939 0.950 . S
H934 C940 0.949 . S
C935 H930 0.950 . S
C935 C937 1.327 . S
C935 C941 1.429 . S
C936 C928 1.574 . S
C936 H931 0.949 . S
C936 C942 1.368 . S
C937 C921 1.349 . S
C937 H929 0.950 . S
C937 C935 1.327 . S
C938 C926 1.349 . S
C938 H932 0.950 . S
C938 C939 1.327 . S
C939 H933 0.950 . S
C939 C938 1.327 . S
C939 C943 1.429 . S
C940 C923 1.574 . S
C940 H934 0.949 . S
C940 C944 1.368 . S
C941 C922 1.429 . S
C941 C935 1.429 . S
C941 C942 1.523 . S
C942 C923 1.368 . S
C942 C936 1.368 . S
C942 C941 1.523 . S
C943 C927 1.429 . S
C943 C939 1.429 . S
C943 C944 1.523 . S
C944 C928 1.368 . S
C944 C940 1.368 . S
C944 C943 1.523 . S
H945 C920 0.950 . S
H946 C922 0.950 . S
H947 C923 0.949 . S
H948 C925 0.950 . S
H949 C927 0.950 . S
C950 C951 1.349 . S
C950 C952 1.327 . S
C950 H975 0.950 . S
C951 C950 1.349 . S
C951 C967 1.349 . S
C952 C950 1.327 . S
C952 C971 1.429 . S
C952 H976 0.950 . S
C953 C970 1.574 . S
C953 C972 1.368 . S
C953 H977 0.949 . S
H954 C958 0.949 . S
C955 C956 1.349 . S
C955 C957 1.327 . S
C955 H978 0.950 . S
C956 C955 1.349 . S
C956 C968 1.349 . S
C957 C955 1.327 . S
C957 C973 1.429 . S
C957 H979 0.950 . S
C958 H954 0.949 . S
C958 C966 1.574 . S
C958 C974 1.368 . S
H959 C967 0.950 . S
H960 C965 0.950 . S
H961 C966 0.949 . S
H962 C968 0.950 . S
H963 C969 0.950 . S
H964 C970 0.949 . S
C965 H960 0.950 . S
C965 C967 1.327 . S
C965 C971 1.429 . S
C966 C958 1.574 . S
C966 H961 0.949 . S
C966 C972 1.368 . S
C967 C951 1.349 . S
C967 H959 0.950 . S
C967 C965 1.327 . S
C968 C956 1.349 . S
C968 H962 0.950 . S
C968 C969 1.327 . S
C969 H963 0.950 . S
C969 C968 1.327 . S
C969 C973 1.429 . S
C970 C953 1.574 . S
C970 H964 0.949 . S
C970 C974 1.368 . S
C971 C952 1.429 . S
C971 C965 1.429 . S
C971 C972 1.523 . S
C972 C953 1.368 . S
C972 C966 1.368 . S
C972 C971 1.523 . S
C973 C957 1.429 . S
C973 C969 1.429 . S
C973 C974 1.523 . S
C974 C958 1.368 . S
C974 C970 1.368 . S
C974 C973 1.523 . S
H975 C950 0.950 . S
H976 C952 0.950 . S
H977 C953 0.949 . S
H978 C955 0.950 . S
H979 C957 0.950 . S
C980 C981 1.349 . S
C980 C982 1.327 . S
C980 H1005 0.950 . S
C981 C980 1.349 . S
C981 C997 1.349 . S
C982 C980 1.327 . S
C982 C1001 1.429 . S
C982 H1006 0.950 . S
C983 C1000 1.574 . S
C983 C1002 1.368 . S
C983 H1007 0.949 . S
H984 C988 0.949 . S
C985 C986 1.349 . S
C985 C987 1.327 . S
C985 H1008 0.950 . S
C986 C985 1.349 . S
C986 C998 1.349 . S
C987 C985 1.327 . S
C987 C1003 1.429 . S
C987 H1009 0.950 . S
C988 H984 0.949 . S
C988 C996 1.574 . S
C988 C1004 1.368 . S
H989 C997 0.950 . S
H990 C995 0.950 . S
H991 C996 0.949 . S
H992 C998 0.950 . S
H993 C999 0.950 . S
H994 C1000 0.949 . S
C995 H990 0.950 . S
C995 C997 1.327 . S
C995 C1001 1.429 . S
C996 C988 1.574 . S
C996 H991 0.949 . S
C996 C1002 1.368 . S
C997 C981 1.349 . S
C997 H989 0.950 . S
C997 C995 1.327 . S
C998 C986 1.349 . S
C998 H992 0.950 . S
C998 C999 1.327 . S
C999 H993 0.950 . S
C999 C998 1.327 . S
C999 C1003 1.429 . S
C1000 C983 1.574 . S
C1000 H994 0.949 . S
C1000 C1004 1.368 . S
C1001 C982 1.429 . S
C1001 C995 1.429 . S
C1001 C1002 1.523 . S
C1002 C983 1.368 . S
C1002 C996 1.368 . S
C1002 C1001 1.523 . S
C1003 C987 1.429 . S
C1003 C999 1.429 . S
C1003 C1004 1.523 . S
C1004 C988 1.368 . S
C1004 C1000 1.368 . S
C1004 C1003 1.523 . S
H1005 C980 0.950 . S
H1006 C982 0.950 . S
H1007 C983 0.949 . S
H1008 C985 0.950 . S
H1009 C987 0.950 . S
C1010 C1011 1.349 . S
C1010 C1012 1.327 . S
C1010 H1035 0.950 . S
C1011 C1010 1.349 . S
C1011 C1027 1.349 . S
C1012 C1010 1.327 . S
C1012 C1031 1.429 . S
C1012 H1036 0.950 . S
C1013 C1030 1.574 . S
C1013 C1032 1.368 . S
C1013 H1037 0.949 . S
H1014 C1018 0.949 . S
C1015 C1016 1.349 . S
C1015 C1017 1.327 . S
C1015 H1038 0.950 . S
C1016 C1015 1.349 . S
C1016 C1028 1.349 . S
C1017 C1015 1.327 . S
C1017 C1033 1.429 . S
C1017 H1039 0.950 . S
C1018 H1014 0.949 . S
C1018 C1026 1.574 . S
C1018 C1034 1.368 . S
H1019 C1027 0.950 . S
H1020 C1025 0.950 . S
H1021 C1026 0.949 . S
H1022 C1028 0.950 . S
H1023 C1029 0.950 . S
H1024 C1030 0.949 . S
C1025 H1020 0.950 . S
C1025 C1027 1.327 . S
C1025 C1031 1.429 . S
C1026 C1018 1.574 . S
C1026 H1021 0.949 . S
C1026 C1032 1.368 . S
C1027 C1011 1.349 . S
C1027 H1019 0.950 . S
C1027 C1025 1.327 . S
C1028 C1016 1.349 . S
C1028 H1022 0.950 . S
C1028 C1029 1.327 . S
C1029 H1023 0.950 . S
C1029 C1028 1.327 . S
C1029 C1033 1.429 . S
C1030 C1013 1.574 . S
C1030 H1024 0.949 . S
C1030 C1034 1.368 . S
C1031 C1012 1.429 . S
C1031 C1025 1.429 . S
C1031 C1032 1.523 . S
C1032 C1013 1.368 . S
C1032 C1026 1.368 . S
C1032 C1031 1.523 . S
C1033 C1017 1.429 . S
C1033 C1029 1.429 . S
C1033 C1034 1.523 . S
C1034 C1018 1.368 . S
C1034 C1030 1.368 . S
C1034 C1033 1.523 . S
H1035 C1010 0.950 . S
H1036 C1012 0.950 . S
H1037 C1013 0.949 . S
H1038 C1015 0.950 . S
H1039 C1017 0.950 . S
C1040 C1041 1.349 . S
C1040 C1042 1.327 . S
C1040 H1065 0.950 . S
C1041 C1040 1.349 . S
C1041 C1057 1.349 . S
C1042 C1040 1.327 . S
C1042 C1061 1.429 . S
C1042 H1066 0.950 . S
C1043 C1060 1.574 . S
C1043 C1062 1.368 . S
C1043 H1067 0.949 . S
H1044 C1048 0.949 . S
C1045 C1046 1.349 . S
C1045 C1047 1.327 . S
C1045 H1068 0.950 . S
C1046 C1045 1.349 . S
C1046 C1058 1.349 . S
C1047 C1045 1.327 . S
C1047 C1063 1.429 . S
C1047 H1069 0.950 . S
C1048 H1044 0.949 . S
C1048 C1056 1.574 . S
C1048 C1064 1.368 . S
H1049 C1057 0.950 . S
H1050 C1055 0.950 . S
H1051 C1056 0.949 . S
H1052 C1058 0.950 . S
H1053 C1059 0.950 . S
H1054 C1060 0.949 . S
C1055 H1050 0.950 . S
C1055 C1057 1.327 . S
C1055 C1061 1.429 . S
C1056 C1048 1.574 . S
C1056 H1051 0.949 . S
C1056 C1062 1.368 . S
C1057 C1041 1.349 . S
C1057 H1049 0.950 . S
C1057 C1055 1.327 . S
C1058 C1046 1.349 . S
C1058 H1052 0.950 . S
C1058 C1059 1.327 . S
C1059 H1053 0.950 . S
C1059 C1058 1.327 . S
C1059 C1063 1.429 . S
C1060 C1043 1.574 . S
C1060 H1054 0.949 . S
C1060 C1064 1.368 . S
C1061 C1042 1.429 . S
C1061 C1055 1.429 . S
C1061 C1062 1.523 . S
C1062 C1043 1.368 . S
C1062 C1056 1.368 . S
C1062 C1061 1.523 . S
C1063 C1047 1.429 . S
C1063 C1059 1.429 . S
C1063 C1064 1.523 . S
C1064 C1048 1.368 . S
C1064 C1060 1.368 . S
C1064 C1063 1.523 . S
H1065 C1040 0.950 . S
H1066 C1042 0.950 . S
H1067 C1043 0.949 . S
H1068 C1045 0.950 . S
H1069 C1047 0.950 . S
C1070 C1071 1.349 . S
C1070 C1072 1.327 . S
C1070 H1095 0.950 . S
C1071 C1070 1.349 . S
C1071 C1087 1.349 . S
C1072 C1070 1.327 . S
C1072 C1091 1.429 . S
C1072 H1096 0.950 . S
C1073 C1090 1.574 . S
C1073 C1092 1.368 . S
C1073 H1097 0.949 . S
H1074 C1078 0.949 . S
C1075 C1076 1.349 . S
C1075 C1077 1.327 . S
C1075 H1098 0.950 . S
C1076 C1075 1.349 . S
C1076 C1088 1.349 . S
C1077 C1075 1.327 . S
C1077 C1093 1.429 . S
C1077 H1099 0.950 . S
C1078 H1074 0.949 . S
C1078 C1086 1.574 . S
C1078 C1094 1.368 . S
H1079 C1087 0.950 . S
H1080 C1085 0.950 . S
H1081 C1086 0.949 . S
H1082 C1088 0.950 . S
H1083 C1089 0.950 . S
H1084 C1090 0.949 . S
C1085 H1080 0.950 . S
C1085 C1087 1.327 . S
C1085 C1091 1.429 . S
C1086 C1078 1.574 . S
C1086 H1081 0.949 . S
C1086 C1092 1.368 . S
C1087 C1071 1.349 . S
C1087 H1079 0.950 . S
C1087 C1085 1.327 . S
C1088 C1076 1.349 . S
C1088 H1082 0.950 . S
C1088 C1089 1.327 . S
C1089 H1083 0.950 . S
C1089 C1088 1.327 . S
C1089 C1093 1.429 . S
C1090 C1073 1.574 . S
C1090 H1084 0.949 . S
C1090 C1094 1.368 . S
C1091 C1072 1.429 . S
C1091 C1085 1.429 . S
C1091 C1092 1.523 . S
C1092 C1073 1.368 . S
C1092 C1086 1.368 . S
C1092 C1091 1.523 . S
C1093 C1077 1.429 . S
C1093 C1089 1.429 . S
C1093 C1094 1.523 . S
C1094 C1078 1.368 . S
C1094 C1090 1.368 . S
C1094 C1093 1.523 . S
H1095 C1070 0.950 . S
H1096 C1072 0.950 . S
H1097 C1073 0.949 . S
H1098 C1075 0.950 . S
H1099 C1077 0.950 . S
C1100 C1101 1.349 . S
C1100 C1102 1.327 . S
C1100 H1125 0.950 . S
C1101 C1100 1.349 . S
C1101 C1117 1.349 . S
C1102 C1100 1.327 . S
C1102 C1121 1.429 . S
C1102 H1126 0.950 . S
C1103 C1120 1.574 . S
C1103 C1122 1.368 . S
C1103 H1127 0.949 . S
H1104 C1108 0.949 . S
C1105 C1106 1.349 . S
C1105 C1107 1.327 . S
C1105 H1128 0.950 . S
C1106 C1105 1.349 . S
C1106 C1118 1.349 . S
C1107 C1105 1.327 . S
C1107 C1123 1.429 . S
C1107 H1129 0.950 . S
C1108 H1104 0.949 . S
C1108 C1116 1.574 . S
C1108 C1124 1.368 . S
H1109 C1117 0.950 . S
H1110 C1115 0.950 . S
H1111 C1116 0.949 . S
H1112 C1118 0.950 . S
H1113 C1119 0.950 . S
H1114 C1120 0.949 . S
C1115 H1110 0.950 . S
C1115 C1117 1.327 . S
C1115 C1121 1.429 . S
C1116 C1108 1.574 . S
C1116 H1111 0.949 . S
C1116 C1122 1.368 . S
C1117 C1101 1.349 . S
C1117 H1109 0.950 . S
C1117 C1115 1.327 . S
C1118 C1106 1.349 . S
C1118 H1112 0.950 . S
C1118 C1119 1.327 . S
C1119 H1113 0.950 . S
C1119 C1118 1.327 . S
C1119 C1123 1.429 . S
C1120 C1103 1.574 . S
C1120 H1114 0.949 . S
C1120 C1124 1.368 . S
C1121 C1102 1.429 . S
C1121 C1115 1.429 . S
C1121 C1122 1.523 . S
C1122 C1103 1.368 . S
C1122 C1116 1.368 . S
C1122 C1121 1.523 . S
C1123 C1107 1.429 . S
C1123 C1119 1.429 . S
C1123 C1124 1.523 . S
C1124 C1108 1.368 . S
C1124 C1120 1.368 . S
C1124 C1123 1.523 . S
H1125 C1100 0.950 . S
H1126 C1102 0.950 . S
H1127 C1103 0.949 . S
H1128 C1105 0.950 . S
H1129 C1107 0.950 . S
C1130 C1131 1.349 . S
C1130 C1132 1.327 . S
C1130 H1155 0.950 . S
C1131 C1130 1.349 . S
C1131 C1147 1.349 . S
C1132 C1130 1.327 . S
C1132 C1151 1.429 . S
C1132 H1156 0.950 . S
C1133 C1150 1.574 . S
C1133 C1152 1.368 . S
C1133 H1157 0.949 . S
H1134 C1138 0.949 . S
C1135 C1136 1.349 . S
C1135 C1137 1.327 . S
C1135 H1158 0.950 . S
C1136 C1135 1.349 . S
C1136 C1148 1.349 . S
C1137 C1135 1.327 . S
C1137 C1153 1.429 . S
C1137 H1159 0.950 . S
C1138 H1134 0.949 . S
C1138 C1146 1.574 . S
C1138 C1154 1.368 . S
H1139 C1147 0.950 . S
H1140 C1145 0.950 . S
H1141 C1146 0.949 . S
H1142 C1148 0.950 . S
H1143 C1149 0.950 . S
H1144 C1150 0.949 . S
C1145 H1140 0.950 . S
C1145 C1147 1.327 . S
C1145 C1151 1.429 . S
C1146 C1138 1.574 . S
C1146 H1141 0.949 . S
C1146 C1152 1.368 . S
C1147 C1131 1.349 . S
C1147 H1139 0.950 . S
C1147 C1145 1.327 . S
C1148 C1136 1.349 . S
C1148 H1142 0.950 . S
C1148 C1149 1.327 . S
C1149 H1143 0.950 . S
C1149 C1148 1.327 . S
C1149 C1153 1.429 . S
C1150 C1133 1.574 . S
C1150 H1144 0.949 . S
C1150 C1154 1.368 . S
C1151 C1132 1.429 . S
C1151 C1145 1.429 . S
C1151 C1152 1.523 . S
C1152 C1133 1.368 . S
C1152 C1146 1.368 . S
C1152 C1151 1.523 . S
C1153 C1137 1.429 . S
C1153 C1149 1.429 . S
C1153 C1154 1.523 . S
C1154 C1138 1.368 . S
C1154 C1150 1.368 . S
C1154 C1153 1.523 . S
H1155 C1130 0.950 . S
H1156 C1132 0.950 . S
H1157 C1133 0.949 . S
H1158 C1135 0.950 . S
H1159 C1137 0.950 . S
C1160 C1161 1.349 . S
C1160 C1162 1.327 . S
C1160 H1185 0.950 . S
C1161 C1160 1.349 . S
C1161 C1177 1.349 . S
C1162 C1160 1.327 . S
C1162 C1181 1.429 . S
C1162 H1186 0.950 . S
C1163 C1180 1.574 . S
C1163 C1182 1.368 . S
C1163 H1187 0.949 . S
H1164 C1168 0.949 . S
C1165 C1166 1.349 . S
C1165 C1167 1.327 . S
C1165 H1188 0.950 . S
C1166 C1165 1.349 . S
C1166 C1178 1.349 . S
C1167 C1165 1.327 . S
C1167 C1183 1.429 . S
C1167 H1189 0.950 . S
C1168 H1164 0.949 . S
C1168 C1176 1.574 . S
C1168 C1184 1.368 . S
H1169 C1177 0.950 . S
H1170 C1175 0.950 . S
H1171 C1176 0.949 . S
H1172 C1178 0.950 . S
H1173 C1179 0.950 . S
H1174 C1180 0.949 . S
C1175 H1170 0.950 . S
C1175 C1177 1.327 . S
C1175 C1181 1.429 . S
C1176 C1168 1.574 . S
C1176 H1171 0.949 . S
C1176 C1182 1.368 . S
C1177 C1161 1.349 . S
C1177 H1169 0.950 . S
C1177 C1175 1.327 . S
C1178 C1166 1.349 . S
C1178 H1172 0.950 . S
C1178 C1179 1.327 . S
C1179 H1173 0.950 . S
C1179 C1178 1.327 . S
C1179 C1183 1.429 . S
C1180 C1163 1.574 . S
C1180 H1174 0.949 . S
C1180 C1184 1.368 . S
C1181 C1162 1.429 . S
C1181 C1175 1.429 . S
C1181 C1182 1.523 . S
C1182 C1163 1.368 . S
C1182 C1176 1.368 . S
C1182 C1181 1.523 . S
C1183 C1167 1.429 . S
C1183 C1179 1.429 . S
C1183 C1184 1.523 . S
C1184 C1168 1.368 . S
C1184 C1180 1.368 . S
C1184 C1183 1.523 . S
H1185 C1160 0.950 . S
H1186 C1162 0.950 . S
H1187 C1163 0.949 . S
H1188 C1165 0.950 . S
H1189 C1167 0.950 . S
C1190 C1191 1.349 . S
C1190 C1192 1.327 . S
C1190 H1215 0.950 . S
C1191 C1190 1.349 . S
C1191 C1207 1.349 . S
C1192 C1190 1.327 . S
C1192 C1211 1.429 . S
C1192 H1216 0.950 . S
C1193 C1210 1.574 . S
C1193 C1212 1.368 . S
C1193 H1217 0.949 . S
H1194 C1198 0.949 . S
C1195 C1196 1.349 . S
C1195 C1197 1.327 . S
C1195 H1218 0.950 . S
C1196 C1195 1.349 . S
C1196 C1208 1.349 . S
C1197 C1195 1.327 . S
C1197 C1213 1.429 . S
C1197 H1219 0.950 . S
C1198 H1194 0.949 . S
C1198 C1206 1.574 . S
C1198 C1214 1.368 . S
H1199 C1207 0.950 . S
H1200 C1205 0.950 . S
H1201 C1206 0.949 . S
H1202 C1208 0.950 . S
H1203 C1209 0.950 . S
H1204 C1210 0.949 . S
C1205 H1200 0.950 . S
C1205 C1207 1.327 . S
C1205 C1211 1.429 . S
C1206 C1198 1.574 . S
C1206 H1201 0.949 . S
C1206 C1212 1.368 . S
C1207 C1191 1.349 . S
C1207 H1199 0.950 . S
C1207 C1205 1.327 . S
C1208 C1196 1.349 . S
C1208 H1202 0.950 . S
C1208 C1209 1.327 . S
C1209 H1203 0.950 . S
C1209 C1208 1.327 . S
C1209 C1213 1.429 . S
C1210 C1193 1.574 . S
C1210 H1204 0.949 . S
C1210 C1214 1.368 . S
C1211 C1192 1.429 . S
C1211 C1205 1.429 . S
C1211 C1212 1.523 . S
C1212 C1193 1.368 . S
C1212 C1206 1.368 . S
C1212 C1211 1.523 . S
C1213 C1197 1.429 . S
C1213 C1209 1.429 . S
C1213 C1214 1.523 . S
C1214 C1198 1.368 . S
C1214 C1210 1.368 . S
C1214 C1213 1.523 . S
H1215 C1190 0.950 . S
H1216 C1192 0.950 . S
H1217 C1193 0.949 . S
H1218 C1195 0.950 . S
H1219 C1197 0.950 . S
C1220 C1221 1.349 . S
C1220 C1222 1.327 . S
C1220 H1245 0.950 . S
C1221 C1220 1.349 . S
C1221 C1237 1.349 . S
C1222 C1220 1.327 . S
C1222 C1241 1.429 . S
C1222 H1246 0.950 . S
C1223 C1240 1.574 . S
C1223 C1242 1.368 . S
C1223 H1247 0.949 . S
H1224 C1228 0.949 . S
C1225 C1226 1.349 . S
C1225 C1227 1.327 . S
C1225 H1248 0.950 . S
C1226 C1225 1.349 . S
C1226 C1238 1.349 . S
C1227 C1225 1.327 . S
C1227 C1243 1.429 . S
C1227 H1249 0.950 . S
C1228 H1224 0.949 . S
C1228 C1236 1.574 . S
C1228 C1244 1.368 . S
H1229 C1237 0.950 . S
H1230 C1235 0.950 . S
H1231 C1236 0.949 . S
H1232 C1238 0.950 . S
H1233 C1239 0.950 . S
H1234 C1240 0.949 . S
C1235 H1230 0.950 . S
C1235 C1237 1.327 . S
C1235 C1241 1.429 . S
C1236 C1228 1.574 . S
C1236 H1231 0.949 . S
C1236 C1242 1.368 . S
C1237 C1221 1.349 . S
C1237 H1229 0.950 . S
C1237 C1235 1.327 . S
C1238 C1226 1.349 . S
C1238 H1232 0.950 . S
C1238 C1239 1.327 . S
C1239 H1233 0.950 . S
C1239 C1238 1.327 . S
C1239 C1243 1.429 . S
C1240 C1223 1.574 . S
C1240 H1234 0.949 . S
C1240 C1244 1.368 . S
C1241 C1222 1.429 . S
C1241 C1235 1.429 . S
C1241 C1242 1.523 . S
C1242 C1223 1.368 . S
C1242 C1236 1.368 . S
C1242 C1241 1.523 . S
C1243 C1227 1.429 . S
C1243 C1239 1.429 . S
C1243 C1244 1.523 . S
C1244 C1228 1.368 . S
C1244 C1240 1.368 . S
C1244 C1243 1.523 . S
H1245 C1220 0.950 . S
H1246 C1222 0.950 . S
H1247 C1223 0.949 . S
H1248 C1225 0.950 . S
H1249 C1227 0.950 . S
C1250 C1251 1.349 . S
C1250 C1252 1.327 . S
C1250 H1275 0.950 . S
C1251 C1250 1.349 . S
C1251 C1267 1.349 . S
C1252 C1250 1.327 . S
C1252 C1271 1.429 . S
C1252 H1276 0.950 . S
C1253 C1270 1.574 . S
C1253 C1272 1.368 . S
C1253 H1277 0.949 . S
H1254 C1258 0.949 . S
C1255 C1256 1.349 . S
C1255 C1257 1.327 . S
C1255 H1278 0.950 . S
C1256 C1255 1.349 . S
C1256 C1268 1.349 . S
C1257 C1255 1.327 . S
C1257 C1273 1.429 . S
C1257 H1279 0.950 . S
C1258 H1254 0.949 . S
C1258 C1266 1.574 . S
C1258 C1274 1.368 . S
H1259 C1267 0.950 . S
H1260 C1265 0.950 . S
H1261 C1266 0.949 . S
H1262 C1268 0.950 . S
H1263 C1269 0.950 . S
H1264 C1270 0.949 . S
C1265 H1260 0.950 . S
C1265 C1267 1.327 . S
C1265 C1271 1.429 . S
C1266 C1258 1.574 . S
C1266 H1261 0.949 . S
C1266 C1272 1.368 . S
C1267 C1251 1.349 . S
C1267 H1259 0.950 . S
C1267 C1265 1.327 . S
C1268 C1256 1.349 . S
C1268 H1262 0.950 . S
C1268 C1269 1.327 . S
C1269 H1263 0.950 . S
C1269 C1268 1.327 . S
C1269 C1273 1.429 . S
C1270 C1253 1.574 . S
C1270 H1264 0.949 . S
C1270 C1274 1.368 . S
C1271 C1252 1.429 . S
C1271 C1265 1.429 . S
C1271 C1272 1.523 . S
C1272 C1253 1.368 . S
C1272 C1266 1.368 . S
C1272 C1271 1.523 . S
C1273 C1257 1.429 . S
C1273 C1269 1.429 . S
C1273 C1274 1.523 . S
C1274 C1258 1.368 . S
C1274 C1270 1.368 . S
C1274 C1273 1.523 . S
H1275 C1250 0.950 . S
H1276 C1252 0.950 . S
H1277 C1253 0.949 . S
H1278 C1255 0.950 . S
H1279 C1257 0.950 . S
C1280 C1281 1.349 . S
C1280 C1282 1.327 . S
C1280 H1305 0.950 . S
C1281 C1280 1.349 . S
C1281 C1297 1.349 . S
C1282 C1280 1.327 . S
C1282 C1301 1.429 . S
C1282 H1306 0.950 . S
C1283 C1300 1.574 . S
C1283 C1302 1.368 . S
C1283 H1307 0.949 . S
H1284 C1288 0.949 . S
C1285 C1286 1.349 . S
C1285 C1287 1.327 . S
C1285 H1308 0.950 . S
C1286 C1285 1.349 . S
C1286 C1298 1.349 . S
C1287 C1285 1.327 . S
C1287 C1303 1.429 . S
C1287 H1309 0.950 . S
C1288 H1284 0.949 . S
C1288 C1296 1.574 . S
C1288 C1304 1.368 . S
H1289 C1297 0.950 . S
H1290 C1295 0.950 . S
H1291 C1296 0.949 . S
H1292 C1298 0.950 . S
H1293 C1299 0.950 . S
H1294 C1300 0.949 . S
C1295 H1290 0.950 . S
C1295 C1297 1.327 . S
C1295 C1301 1.429 . S
C1296 C1288 1.574 . S
C1296 H1291 0.949 . S
C1296 C1302 1.368 . S
C1297 C1281 1.349 . S
C1297 H1289 0.950 . S
C1297 C1295 1.327 . S
C1298 C1286 1.349 . S
C1298 H1292 0.950 . S
C1298 C1299 1.327 . S
C1299 H1293 0.950 . S
C1299 C1298 1.327 . S
C1299 C1303 1.429 . S
C1300 C1283 1.574 . S
C1300 H1294 0.949 . S
C1300 C1304 1.368 . S
C1301 C1282 1.429 . S
C1301 C1295 1.429 . S
C1301 C1302 1.523 . S
C1302 C1283 1.368 . S
C1302 C1296 1.368 . S
C1302 C1301 1.523 . S
C1303 C1287 1.429 . S
C1303 C1299 1.429 . S
C1303 C1304 1.523 . S
C1304 C1288 1.368 . S
C1304 C1300 1.368 . S
C1304 C1303 1.523 . S
H1305 C1280 0.950 . S
H1306 C1282 0.950 . S
H1307 C1283 0.949 . S
H1308 C1285 0.950 . S
H1309 C1287 0.950 . S
C1310 C1311 1.349 . S
C1310 C1312 1.327 . S
C1310 H1335 0.950 . S
C1311 C1310 1.349 . S
C1311 C1327 1.349 . S
C1312 C1310 1.327 . S
C1312 C1331 1.429 . S
C1312 H1336 0.950 . S
C1313 C1330 1.574 . S
C1313 C1332 1.368 . S
C1313 H1337 0.949 . S
H1314 C1318 0.949 . S
C1315 C1316 1.349 . S
C1315 C1317 1.327 . S
C1315 H1338 0.950 . S
C1316 C1315 1.349 . S
C1316 C1328 1.349 . S
C1317 C1315 1.327 . S
C1317 C1333 1.429 . S
C1317 H1339 0.950 . S
C1318 H1314 0.949 . S
C1318 C1326 1.574 . S
C1318 C1334 1.368 . S
H1319 C1327 0.950 . S
H1320 C1325 0.950 . S
H1321 C1326 0.949 . S
H1322 C1328 0.950 . S
H1323 C1329 0.950 . S
H1324 C1330 0.949 . S
C1325 H1320 0.950 . S
C1325 C1327 1.327 . S
C1325 C1331 1.429 . S
C1326 C1318 1.574 . S
C1326 H1321 0.949 . S
C1326 C1332 1.368 . S
C1327 C1311 1.349 . S
C1327 H1319 0.950 . S
C1327 C1325 1.327 . S
C1328 C1316 1.349 . S
C1328 H1322 0.950 . S
C1328 C1329 1.327 . S
C1329 H1323 0.950 . S
C1329 C1328 1.327 . S
C1329 C1333 1.429 . S
C1330 C1313 1.574 . S
C1330 H1324 0.949 . S
C1330 C1334 1.368 . S
C1331 C1312 1.429 . S
C1331 C1325 1.429 . S
C1331 C1332 1.523 . S
C1332 C1313 1.368 . S
C1332 C1326 1.368 . S
C1332 C1331 1.523 . S
C1333 C1317 1.429 . S
C1333 C1329 1.429 . S
C1333 C1334 1.523 . S
C1334 C1318 1.368 . S
C1334 C1330 1.368 . S
C1334 C1333 1.523 . S
H1335 C1310 0.950 . S
H1336 C1312 0.950 . S
H1337 C1313 0.949 . S
H1338 C1315 0.950 . S
H1339 C1317 0.950 . S
C1340 C1341 1.349 . S
C1340 C1342 1.327 . S
C1340 H1365 0.950 . S
C1341 C1340 1.349 . S
C1341 C1357 1.349 . S
C1342 C1340 1.327 . S
C1342 C1361 1.429 . S
C1342 H1366 0.950 . S
C1343 C1360 1.574 . S
C1343 C1362 1.368 . S
C1343 H1367 0.949 . S
H1344 C1348 0.949 . S
C1345 C1346 1.349 . S
C1345 C1347 1.327 . S
C1345 H1368 0.950 . S
C1346 C1345 1.349 . S
C1346 C1358 1.349 . S
C1347 C1345 1.327 . S
C1347 C1363 1.429 . S
C1347 H1369 0.950 . S
C1348 H1344 0.949 . S
C1348 C1356 1.574 . S
C1348 C1364 1.368 . S
H1349 C1357 0.950 . S
H1350 C1355 0.950 . S
H1351 C1356 0.949 . S
H1352 C1358 0.950 . S
H1353 C1359 0.950 . S
H1354 C1360 0.949 . S
C1355 H1350 0.950 . S
C1355 C1357 1.327 . S
C1355 C1361 1.429 . S
C1356 C1348 1.574 . S
C1356 H1351 0.949 . S
C1356 C1362 1.368 . S
C1357 C1341 1.349 . S
C1357 H1349 0.950 . S
C1357 C1355 1.327 . S
C1358 C1346 1.349 . S
C1358 H1352 0.950 . S
C1358 C1359 1.327 . S
C1359 H1353 0.950 . S
C1359 C1358 1.327 . S
C1359 C1363 1.429 . S
C1360 C1343 1.574 . S
C1360 H1354 0.949 . S
C1360 C1364 1.368 . S
C1361 C1342 1.429 . S
C1361 C1355 1.429 . S
C1361 C1362 1.523 . S
C1362 C1343 1.368 . S
C1362 C1356 1.368 . S
C1362 C1361 1.523 . S
C1363 C1347 1.429 . S
C1363 C1359 1.429 . S
C1363 C1364 1.523 . S
C1364 C1348 1.368 . S
C1364 C1360 1.368 . S
C1364 C1363 1.523 . S
H1365 C1340 0.950 . S
H1366 C1342 0.950 . S
H1367 C1343 0.949 . S
H1368 C1345 0.950 . S
H1369 C1347 0.950 . S
C1370 C1371 1.349 . S
C1370 C1372 1.327 . S
C1370 H1395 0.950 . S
C1371 C1370 1.349 . S
C1371 C1387 1.349 . S
C1372 C1370 1.327 . S
C1372 C1391 1.429 . S
C1372 H1396 0.950 . S
C1373 C1390 1.574 . S
C1373 C1392 1.368 . S
C1373 H1397 0.949 . S
H1374 C1378 0.949 . S
C1375 C1376 1.349 . S
C1375 C1377 1.327 . S
C1375 H1398 0.950 . S
C1376 C1375 1.349 . S
C1376 C1388 1.349 . S
C1377 C1375 1.327 . S
C1377 C1393 1.429 . S
C1377 H1399 0.950 . S
C1378 H1374 0.949 . S
C1378 C1386 1.574 . S
C1378 C1394 1.368 . S
H1379 C1387 0.950 . S
H1380 C1385 0.950 . S
H1381 C1386 0.949 . S
H1382 C1388 0.950 . S
H1383 C1389 0.950 . S
H1384 C1390 0.949 . S
C1385 H1380 0.950 . S
C1385 C1387 1.327 . S
C1385 C1391 1.429 . S
C1386 C1378 1.574 . S
C1386 H1381 0.949 . S
C1386 C1392 1.368 . S
C1387 C1371 1.349 . S
C1387 H1379 0.950 . S
C1387 C1385 1.327 . S
C1388 C1376 1.349 . S
C1388 H1382 0.950 . S
C1388 C1389 1.327 . S
C1389 H1383 0.950 . S
C1389 C1388 1.327 . S
C1389 C1393 1.429 . S
C1390 C1373 1.574 . S
C1390 H1384 0.949 . S
C1390 C1394 1.368 . S
C1391 C1372 1.429 . S
C1391 C1385 1.429 . S
C1391 C1392 1.523 . S
C1392 C1373 1.368 . S
C1392 C1386 1.368 . S
C1392 C1391 1.523 . S
C1393 C1377 1.429 . S
C1393 C1389 1.429 . S
C1393 C1394 1.523 . S
C1394 C1378 1.368 . S
C1394 C1390 1.368 . S
C1394 C1393 1.523 . S
H1395 C1370 0.950 . S
H1396 C1372 0.950 . S
H1397 C1373 0.949 . S
H1398 C1375 0.950 . S
H1399 C1377 0.950 . S
C1400 C1401 1.349 . S
C1400 C1402 1.327 . S
C1400 H1425 0.950 . S
C1401 C1400 1.349 . S
C1401 C1417 1.349 . S
C1402 C1400 1.327 . S
C1402 C1421 1.429 . S
C1402 H1426 0.950 . S
C1403 C1420 1.574 . S
C1403 C1422 1.368 . S
C1403 H1427 0.949 . S
H1404 C1408 0.949 . S
C1405 C1406 1.349 . S
C1405 C1407 1.327 . S
C1405 H1428 0.950 . S
C1406 C1405 1.349 . S
C1406 C1418 1.349 . S
C1407 C1405 1.327 . S
C1407 C1423 1.429 . S
C1407 H1429 0.950 . S
C1408 H1404 0.949 . S
C1408 C1416 1.574 . S
C1408 C1424 1.368 . S
H1409 C1417 0.950 . S
H1410 C1415 0.950 . S
H1411 C1416 0.949 . S
H1412 C1418 0.950 . S
H1413 C1419 0.950 . S
H1414 C1420 0.949 . S
C1415 H1410 0.950 . S
C1415 C1417 1.327 . S
C1415 C1421 1.429 . S
C1416 C1408 1.574 . S
C1416 H1411 0.949 . S
C1416 C1422 1.368 . S
C1417 C1401 1.349 . S
C1417 H1409 0.950 . S
C1417 C1415 1.327 . S
C1418 C1406 1.349 . S
C1418 H1412 0.950 . S
C1418 C1419 1.327 . S
C1419 H1413 0.950 . S
C1419 C1418 1.327 . S
C1419 C1423 1.429 . S
C1420 C1403 1.574 . S
C1420 H1414 0.949 . S
C1420 C1424 1.368 . S
C1421 C1402 1.429 . S
C1421 C1415 1.429 . S
C1421 C1422 1.523 . S
C1422 C1403 1.368 . S
C1422 C1416 1.368 . S
C1422 C1421 1.523 . S
C1423 C1407 1.429 . S
C1423 C1419 1.429 . S
C1423 C1424 1.523 . S
C1424 C1408 1.368 . S
C1424 C1420 1.368 . S
C1424 C1423 1.523 . S
H1425 C1400 0.950 . S
H1426 C1402 0.950 . S
H1427 C1403 0.949 . S
H1428 C1405 0.950 . S
H1429 C1407 0.950 . S
C1430 C1431 1.349 . S
C1430 C1432 1.327 . S
C1430 H1455 0.950 . S
C1431 C1430 1.349 . S
C1431 C1447 1.349 . S
C1432 C1430 1.327 . S
C1432 C1451 1.429 . S
C1432 H1456 0.950 . S
C1433 C1450 1.574 . S
C1433 C1452 1.368 . S
C1433 H1457 0.949 . S
H1434 C1438 0.949 . S
C1435 C1436 1.349 . S
C1435 C1437 1.327 . S
C1435 H1458 0.950 . S
C1436 C1435 1.349 . S
C1436 C1448 1.349 . S
C1437 C1435 1.327 . S
C1437 C1453 1.429 . S
C1437 H1459 0.950 . S
C1438 H1434 0.949 . S
C1438 C1446 1.574 . S
C1438 C1454 1.368 . S
H1439 C1447 0.950 . S
H1440 C1445 0.950 . S
H1441 C1446 0.949 . S
H1442 C1448 0.950 . S
H1443 C1449 0.950 . S
H1444 C1450 0.949 . S
C1445 H1440 0.950 . S
C1445 C1447 1.327 . S
C1445 C1451 1.429 . S
C1446 C1438 1.574 . S
C1446 H1441 0.949 . S
C1446 C1452 1.368 . S
C1447 C1431 1.349 . S
C1447 H1439 0.950 . S
C1447 C1445 1.327 . S
C1448 C1436 1.349 . S
C1448 H1442 0.950 . S
C1448 C1449 1.327 . S
C1449 H1443 0.950 . S
C1449 C1448 1.327 . S
C1449 C1453 1.429 . S
C1450 C1433 1.574 . S
C1450 H1444 0.949 . S
C1450 C1454 1.368 . S
C1451 C1432 1.429 . S
C1451 C1445 1.429 . S
C1451 C1452 1.523 . S
C1452 C1433 1.368 . S
C1452 C1446 1.368 . S
C1452 C1451 1.523 . S
C1453 C1437 1.429 . S
C1453 C1449 1.429 . S
C1453 C1454 1.523 . S
C1454 C1438 1.368 . S
C1454 C1450 1.368 . S
C1454 C1453 1.523 . S
H1455 C1430 0.950 . S
H1456 C1432 0.950 . S
H1457 C1433 0.949 . S
H1458 C1435 0.950 . S
H1459 C1437 0.950 . S
C1460 C1461 1.349 . S
C1460 C1462 1.327 . S
C1460 H1485 0.950 . S
C1461 C1460 1.349 . S
C1461 C1477 1.349 . S
C1462 C1460 1.327 . S
C1462 C1481 1.429 . S
C1462 H1486 0.950 . S
C1463 C1480 1.574 . S
C1463 C1482 1.368 . S
C1463 H1487 0.949 . S
H1464 C1468 0.949 . S
C1465 C1466 1.349 . S
C1465 C1467 1.327 . S
C1465 H1488 0.950 . S
C1466 C1465 1.349 . S
C1466 C1478 1.349 . S
C1467 C1465 1.327 . S
C1467 C1483 1.429 . S
C1467 H1489 0.950 . S
C1468 H1464 0.949 . S
C1468 C1476 1.574 . S
C1468 C1484 1.368 . S
H1469 C1477 0.950 . S
H1470 C1475 0.950 . S
H1471 C1476 0.949 . S
H1472 C1478 0.950 . S
H1473 C1479 0.950 . S
H1474 C1480 0.949 . S
C1475 H1470 0.950 . S
C1475 C1477 1.327 . S
C1475 C1481 1.429 . S
C1476 C1468 1.574 . S
C1476 H1471 0.949 . S
C1476 C1482 1.368 . S
C1477 C1461 1.349 . S
C1477 H1469 0.950 . S
C1477 C1475 1.327 . S
C1478 C1466 1.349 . S
C1478 H1472 0.950 . S
C1478 C1479 1.327 . S
C1479 H1473 0.950 . S
C1479 C1478 1.327 . S
C1479 C1483 1.429 . S
C1480 C1463 1.574 . S
C1480 H1474 0.949 . S
C1480 C1484 1.368 . S
C1481 C1462 1.429 . S
C1481 C1475 1.429 . S
C1481 C1482 1.523 . S
C1482 C1463 1.368 . S
C1482 C1476 1.368 . S
C1482 C1481 1.523 . S
C1483 C1467 1.429 . S
C1483 C1479 1.429 . S
C1483 C1484 1.523 . S
C1484 C1468 1.368 . S
C1484 C1480 1.368 . S
C1484 C1483 1.523 . S
H1485 C1460 0.950 . S
H1486 C1462 0.950 . S
H1487 C1463 0.949 . S
H1488 C1465 0.950 . S
H1489 C1467 0.950 . S
C1490 C1491 1.349 . S
C1490 C1492 1.327 . S
C1490 H1515 0.950 . S
C1491 C1490 1.349 . S
C1491 C1507 1.349 . S
C1492 C1490 1.327 . S
C1492 C1511 1.429 . S
C1492 H1516 0.950 . S
C1493 C1510 1.574 . S
C1493 C1512 1.368 . S
C1493 H1517 0.949 . S
H1494 C1498 0.949 . S
C1495 C1496 1.349 . S
C1495 C1497 1.327 . S
C1495 H1518 0.950 . S
C1496 C1495 1.349 . S
C1496 C1508 1.349 . S
C1497 C1495 1.327 . S
C1497 C1513 1.429 . S
C1497 H1519 0.950 . S
C1498 H1494 0.949 . S
C1498 C1506 1.574 . S
C1498 C1514 1.368 . S
H1499 C1507 0.950 . S
H1500 C1505 0.950 . S
H1501 C1506 0.949 . S
H1502 C1508 0.950 . S
H1503 C1509 0.950 . S
H1504 C1510 0.949 . S
C1505 H1500 0.950 . S
C1505 C1507 1.327 . S
C1505 C1511 1.429 . S
C1506 C1498 1.574 . S
C1506 H1501 0.949 . S
C1506 C1512 1.368 . S
C1507 C1491 1.349 . S
C1507 H1499 0.950 . S
C1507 C1505 1.327 . S
C1508 C1496 1.349 . S
C1508 H1502 0.950 . S
C1508 C1509 1.327 . S
C1509 H1503 0.950 . S
C1509 C1508 1.327 . S
C1509 C1513 1.429 . S
C1510 C1493 1.574 . S
C1510 H1504 0.949 . S
C1510 C1514 1.368 . S
C1511 C1492 1.429 . S
C1511 C1505 1.429 . S
C1511 C1512 1.523 . S
C1512 C1493 1.368 . S
C1512 C1506 1.368 . S
C1512 C1511 1.523 . S
C1513 C1497 1.429 . S
C1513 C1509 1.429 . S
C1513 C1514 1.523 . S
C1514 C1498 1.368 . S
C1514 C1510 1.368 . S
C1514 C1513 1.523 . S
H1515 C1490 0.950 . S
H1516 C1492 0.950 . S
H1517 C1493 0.949 . S
H1518 C1495 0.950 . S
H1519 C1497 0.950 . S
C1520 C1521 1.349 . S
C1520 C1522 1.327 . S
C1520 H1545 0.950 . S
C1521 C1520 1.349 . S
C1521 C1537 1.349 . S
C1522 C1520 1.327 . S
C1522 C1541 1.429 . S
C1522 H1546 0.950 . S
C1523 C1540 1.574 . S
C1523 C1542 1.368 . S
C1523 H1547 0.949 . S
H1524 C1528 0.949 . S
C1525 C1526 1.349 . S
C1525 C1527 1.327 . S
C1525 H1548 0.950 . S
C1526 C1525 1.349 . S
C1526 C1538 1.349 . S
C1527 C1525 1.327 . S
C1527 C1543 1.429 . S
C1527 H1549 0.950 . S
C1528 H1524 0.949 . S
C1528 C1536 1.574 . S
C1528 C1544 1.368 . S
H1529 C1537 0.950 . S
H1530 C1535 0.950 . S
H1531 C1536 0.949 . S
H1532 C1538 0.950 . S
H1533 C1539 0.950 . S
H1534 C1540 0.949 . S
C1535 H1530 0.950 . S
C1535 C1537 1.327 . S
C1535 C1541 1.429 . S
C1536 C1528 1.574 . S
C1536 H1531 0.949 . S
C1536 C1542 1.368 . S
C1537 C1521 1.349 . S
C1537 H1529 0.950 . S
C1537 C1535 1.327 . S
C1538 C1526 1.349 . S
C1538 H1532 0.950 . S
C1538 C1539 1.327 . S
C1539 H1533 0.950 . S
C1539 C1538 1.327 . S
C1539 C1543 1.429 . S
C1540 C1523 1.574 . S
C1540 H1534 0.949 . S
C1540 C1544 1.368 . S
C1541 C1522 1.429 . S
C1541 C1535 1.429 . S
C1541 C1542 1.523 . S
C1542 C1523 1.368 . S
C1542 C1536 1.368 . S
C1542 C1541 1.523 . S
C1543 C1527 1.429 . S
C1543 C1539 1.429 . S
C1543 C1544 1.523 . S
C1544 C1528 1.368 . S
C1544 C1540 1.368 . S
C1544 C1543 1.523 . S
H1545 C1520 0.950 . S
H1546 C1522 0.950 . S
H1547 C1523 0.949 . S
H1548 C1525 0.950 . S
H1549 C1527 0.950 . S
C1550 C1551 1.349 . S
C1550 C1552 1.327 . S
C1550 H1575 0.950 . S
C1551 C1550 1.349 . S
C1551 C1567 1.349 . S
C1552 C1550 1.327 . S
C1552 C1571 1.429 . S
C1552 H1576 0.950 . S
C1553 C1570 1.574 . S
C1553 C1572 1.368 . S
C1553 H1577 0.949 . S
H1554 C1558 0.949 . S
C1555 C1556 1.349 . S
C1555 C1557 1.327 . S
C1555 H1578 0.950 . S
C1556 C1555 1.349 . S
C1556 C1568 1.349 . S
C1557 C1555 1.327 . S
C1557 C1573 1.429 . S
C1557 H1579 0.950 . S
C1558 H1554 0.949 . S
C1558 C1566 1.574 . S
C1558 C1574 1.368 . S
H1559 C1567 0.950 . S
H1560 C1565 0.950 . S
H1561 C1566 0.949 . S
H1562 C1568 0.950 . S
H1563 C1569 0.950 . S
H1564 C1570 0.949 . S
C1565 H1560 0.950 . S
C1565 C1567 1.327 . S
C1565 C1571 1.429 . S
C1566 C1558 1.574 . S
C1566 H1561 0.949 . S
C1566 C1572 1.368 . S
C1567 C1551 1.349 . S
C1567 H1559 0.950 . S
C1567 C1565 1.327 . S
C1568 C1556 1.349 . S
C1568 H1562 0.950 . S
C1568 C1569 1.327 . S
C1569 H1563 0.950 . S
C1569 C1568 1.327 . S
C1569 C1573 1.429 . S
C1570 C1553 1.574 . S
C1570 H1564 0.949 . S
C1570 C1574 1.368 . S
C1571 C1552 1.429 . S
C1571 C1565 1.429 . S
C1571 C1572 1.523 . S
C1572 C1553 1.368 . S
C1572 C1566 1.368 . S
C1572 C1571 1.523 . S
C1573 C1557 1.429 . S
C1573 C1569 1.429 . S
C1573 C1574 1.523 . S
C1574 C1558 1.368 . S
C1574 C1570 1.368 . S
C1574 C1573 1.523 . S
H1575 C1550 0.950 . S
H1576 C1552 0.950 . S
H1577 C1553 0.949 . S
H1578 C1555 0.950 . S
H1579 C1557 0.950 . S
C1580 C1581 1.349 . S
C1580 C1582 1.327 . S
C1580 H1605 0.950 . S
C1581 C1580 1.349 . S
C1581 C1597 1.349 . S
C1582 C1580 1.327 . S
C1582 C1601 1.429 . S
C1582 H1606 0.950 . S
C1583 C1600 1.574 . S
C1583 C1602 1.368 . S
C1583 H1607 0.949 . S
H1584 C1588 0.949 . S
C1585 C1586 1.349 . S
C1585 C1587 1.327 . S
C1585 H1608 0.950 . S
C1586 C1585 1.349 . S
C1586 C1598 1.349 . S
C1587 C1585 1.327 . S
C1587 C1603 1.429 . S
C1587 H1609 0.950 . S
C1588 H1584 0.949 . S
C1588 C1596 1.574 . S
C1588 C1604 1.368 . S
H1589 C1597 0.950 . S
H1590 C1595 0.950 . S
H1591 C1596 0.949 . S
H1592 C1598 0.950 . S
H1593 C1599 0.950 . S
H1594 C1600 0.949 . S
C1595 H1590 0.950 . S
C1595 C1597 1.327 . S
C1595 C1601 1.429 . S
C1596 C1588 1.574 . S
C1596 H1591 0.949 . S
C1596 C1602 1.368 . S
C1597 C1581 1.349 . S
C1597 H1589 0.950 . S
C1597 C1595 1.327 . S
C1598 C1586 1.349 . S
C1598 H1592 0.950 . S
C1598 C1599 1.327 . S
C1599 H1593 0.950 . S
C1599 C1598 1.327 . S
C1599 C1603 1.429 . S
C1600 C1583 1.574 . S
C1600 H1594 0.949 . S
C1600 C1604 1.368 . S
C1601 C1582 1.429 . S
C1601 C1595 1.429 . S
C1601 C1602 1.523 . S
C1602 C1583 1.368 . S
C1602 C1596 1.368 . S
C1602 C1601 1.523 . S
C1603 C1587 1.429 . S
C1603 C1599 1.429 . S
C1603 C1604 1.523 . S
C1604 C1588 1.368 . S
C1604 C1600 1.368 . S
C1604 C1603 1.523 . S
H1605 C1580 0.950 . S
H1606 C1582 0.950 . S
H1607 C1583 0.949 . S
H1608 C1585 0.950 . S
H1609 C1587 0.950 . S
C1610 C1611 1.349 . S
C1610 C1612 1.327 . S
C1610 H1635 0.950 . S
C1611 C1610 1.349 . S
C1611 C1627 1.349 . S
C1612 C1610 1.327 . S
C1612 C1631 1.429 . S
C1612 H1636 0.950 . S
C1613 C1630 1.574 . S
C1613 C1632 1.368 . S
C1613 H1637 0.949 . S
H1614 C1618 0.949 . S
C1615 C1616 1.349 . S
C1615 C1617 1.327 . S
C1615 H1638 0.950 . S
C1616 C1615 1.349 . S
C1616 C1628 1.349 . S
C1617 C1615 1.327 . S
C1617 C1633 1.429 . S
C1617 H1639 0.950 . S
C1618 H1614 0.949 . S
C1618 C1626 1.574 . S
C1618 C1634 1.368 . S
H1619 C1627 0.950 . S
H1620 C1625 0.950 . S
H1621 C1626 0.949 . S
H1622 C1628 0.950 . S
H1623 C1629 0.950 . S
H1624 C1630 0.949 . S
C1625 H1620 0.950 . S
C1625 C1627 1.327 . S
C1625 C1631 1.429 . S
C1626 C1618 1.574 . S
C1626 H1621 0.949 . S
C1626 C1632 1.368 . S
C1627 C1611 1.349 . S
C1627 H1619 0.950 . S
C1627 C1625 1.327 . S
C1628 C1616 1.349 . S
C1628 H1622 0.950 . S
C1628 C1629 1.327 . S
C1629 H1623 0.950 . S
C1629 C1628 1.327 . S
C1629 C1633 1.429 . S
C1630 C1613 1.574 . S
C1630 H1624 0.949 . S
C1630 C1634 1.368 . S
C1631 C1612 1.429 . S
C1631 C1625 1.429 . S
C1631 C1632 1.523 . S
C1632 C1613 1.368 . S
C1632 C1626 1.368 . S
C1632 C1631 1.523 . S
C1633 C1617 1.429 . S
C1633 C1629 1.429 . S
C1633 C1634 1.523 . S
C1634 C1618 1.368 . S
C1634 C1630 1.368 . S
C1634 C1633 1.523 . S
H1635 C1610 0.950 . S
H1636 C1612 0.950 . S
H1637 C1613 0.949 . S
H1638 C1615 0.950 . S
H1639 C1617 0.950 . S
C1640 C1641 1.349 . S
C1640 C1642 1.327 . S
C1640 H1665 0.950 . S
C1641 C1640 1.349 . S
C1641 C1657 1.349 . S
C1642 C1640 1.327 . S
C1642 C1661 1.429 . S
C1642 H1666 0.950 . S
C1643 C1660 1.574 . S
C1643 C1662 1.368 . S
C1643 H1667 0.949 . S
H1644 C1648 0.949 . S
C1645 C1646 1.349 . S
C1645 C1647 1.327 . S
C1645 H1668 0.950 . S
C1646 C1645 1.349 . S
C1646 C1658 1.349 . S
C1647 C1645 1.327 . S
C1647 C1663 1.429 . S
C1647 H1669 0.950 . S
C1648 H1644 0.949 . S
C1648 C1656 1.574 . S
C1648 C1664 1.368 . S
H1649 C1657 0.950 . S
H1650 C1655 0.950 . S
H1651 C1656 0.949 . S
H1652 C1658 0.950 . S
H1653 C1659 0.950 . S
H1654 C1660 0.949 . S
C1655 H1650 0.950 . S
C1655 C1657 1.327 . S
C1655 C1661 1.429 . S
C1656 C1648 1.574 . S
C1656 H1651 0.949 . S
C1656 C1662 1.368 . S
C1657 C1641 1.349 . S
C1657 H1649 0.950 . S
C1657 C1655 1.327 . S
C1658 C1646 1.349 . S
C1658 H1652 0.950 . S
C1658 C1659 1.327 . S
C1659 H1653 0.950 . S
C1659 C1658 1.327 . S
C1659 C1663 1.429 . S
C1660 C1643 1.574 . S
C1660 H1654 0.949 . S
C1660 C1664 1.368 . S
C1661 C1642 1.429 . S
C1661 C1655 1.429 . S
C1661 C1662 1.523 . S
C1662 C1643 1.368 . S
C1662 C1656 1.368 . S
C1662 C1661 1.523 . S
C1663 C1647 1.429 . S
C1663 C1659 1.429 . S
C1663 C1664 1.523 . S
C1664 C1648 1.368 . S
C1664 C1660 1.368 . S
C1664 C1663 1.523 . S
H1665 C1640 0.950 . S
H1666 C1642 0.950 . S
H1667 C1643 0.949 . S
H1668 C1645 0.950 . S
H1669 C1647 0.950 . S
C1670 C1671 1.349 . S
C1670 C1672 1.327 . S
C1670 H1695 0.950 . S
C1671 C1670 1.349 . S
C1671 C1687 1.349 . S
C1672 C1670 1.327 . S
C1672 C1691 1.429 . S
C1672 H1696 0.950 . S
C1673 C1690 1.574 . S
C1673 C1692 1.368 . S
C1673 H1697 0.949 . S
H1674 C1678 0.949 . S
C1675 C1676 1.349 . S
C1675 C1677 1.327 . S
C1675 H1698 0.950 . S
C1676 C1675 1.349 . S
C1676 C1688 1.349 . S
C1677 C1675 1.327 . S
C1677 C1693 1.429 . S
C1677 H1699 0.950 . S
C1678 H1674 0.949 . S
C1678 C1686 1.574 . S
C1678 C1694 1.368 . S
H1679 C1687 0.950 . S
H1680 C1685 0.950 . S
H1681 C1686 0.949 . S
H1682 C1688 0.950 . S
H1683 C1689 0.950 . S
H1684 C1690 0.949 . S
C1685 H1680 0.950 . S
C1685 C1687 1.327 . S
C1685 C1691 1.429 . S
C1686 C1678 1.574 . S
C1686 H1681 0.949 . S
C1686 C1692 1.368 . S
C1687 C1671 1.349 . S
C1687 H1679 0.950 . S
C1687 C1685 1.327 . S
C1688 C1676 1.349 . S
C1688 H1682 0.950 . S
C1688 C1689 1.327 . S
C1689 H1683 0.950 . S
C1689 C1688 1.327 . S
C1689 C1693 1.429 . S
C1690 C1673 1.574 . S
C1690 H1684 0.949 . S
C1690 C1694 1.368 . S
C1691 C1672 1.429 . S
C1691 C1685 1.429 . S
C1691 C1692 1.523 . S
C1692 C1673 1.368 . S
C1692 C1686 1.368 . S
C1692 C1691 1.523 . S
C1693 C1677 1.429 . S
C1693 C1689 1.429 . S
C1693 C1694 1.523 . S
C1694 C1678 1.368 . S
C1694 C1690 1.368 . S
C1694 C1693 1.523 . S
H1695 C1670 0.950 . S
H1696 C1672 0.950 . S
H1697 C1673 0.949 . S
H1698 C1675 0.950 . S
H1699 C1677 0.950 . S
C1700 C1701 1.349 . S
C1700 C1702 1.327 . S
C1700 H1725 0.950 . S
C1701 C1700 1.349 . S
C1701 C1717 1.349 . S
C1702 C1700 1.327 . S
C1702 C1721 1.429 . S
C1702 H1726 0.950 . S
C1703 C1720 1.574 . S
C1703 C1722 1.368 . S
C1703 H1727 0.949 . S
H1704 C1708 0.949 . S
C1705 C1706 1.349 . S
C1705 C1707 1.327 . S
C1705 H1728 0.950 . S
C1706 C1705 1.349 . S
C1706 C1718 1.349 . S
C1707 C1705 1.327 . S
C1707 C1723 1.429 . S
C1707 H1729 0.950 . S
C1708 H1704 0.949 . S
C1708 C1716 1.574 . S
C1708 C1724 1.368 . S
H1709 C1717 0.950 . S
H1710 C1715 0.950 . S
H1711 C1716 0.949 . S
H1712 C1718 0.950 . S
H1713 C1719 0.950 . S
H1714 C1720 0.949 . S
C1715 H1710 0.950 . S
C1715 C1717 1.327 . S
C1715 C1721 1.429 . S
C1716 C1708 1.574 . S
C1716 H1711 0.949 . S
C1716 C1722 1.368 . S
C1717 C1701 1.349 . S
C1717 H1709 0.950 . S
C1717 C1715 1.327 . S
C1718 C1706 1.349 . S
C1718 H1712 0.950 . S
C1718 C1719 1.327 . S
C1719 H1713 0.950 . S
C1719 C1718 1.327 . S
C1719 C1723 1.429 . S
C1720 C1703 1.574 . S
C1720 H1714 0.949 . S
C1720 C1724 1.368 . S
C1721 C1702 1.429 . S
C1721 C1715 1.429 . S
C1721 C1722 1.523 . S
C1722 C1703 1.368 . S
C1722 C1716 1.368 . S
C1722 C1721 1.523 . S
C1723 C1707 1.429 . S
C1723 C1719 1.429 . S
C1723 C1724 1.523 . S
C1724 C1708 1.368 . S
C1724 C1720 1.368 . S
C1724 C1723 1.523 . S
H1725 C1700 0.950 . S
H1726 C1702 0.950 . S
H1727 C1703 0.949 . S
H1728 C1705 0.950 . S
H1729 C1707 0.950 . S
C1730 C1731 1.349 . S
C1730 C1732 1.327 . S
C1730 H1755 0.950 . S
C1731 C1730 1.349 . S
C1731 C1747 1.349 . S
C1732 C1730 1.327 . S
C1732 C1751 1.429 . S
C1732 H1756 0.950 . S
C1733 C1750 1.574 . S
C1733 C1752 1.368 . S
C1733 H1757 0.949 . S
H1734 C1738 0.949 . S
C1735 C1736 1.349 . S
C1735 C1737 1.327 . S
C1735 H1758 0.950 . S
C1736 C1735 1.349 . S
C1736 C1748 1.349 . S
C1737 C1735 1.327 . S
C1737 C1753 1.429 . S
C1737 H1759 0.950 . S
C1738 H1734 0.949 . S
C1738 C1746 1.574 . S
C1738 C1754 1.368 . S
H1739 C1747 0.950 . S
H1740 C1745 0.950 . S
H1741 C1746 0.949 . S
H1742 C1748 0.950 . S
H1743 C1749 0.950 . S
H1744 C1750 0.949 . S
C1745 H1740 0.950 . S
C1745 C1747 1.327 . S
C1745 C1751 1.429 . S
C1746 C1738 1.574 . S
C1746 H1741 0.949 . S
C1746 C1752 1.368 . S
C1747 C1731 1.349 . S
C1747 H1739 0.950 . S
C1747 C1745 1.327 . S
C1748 C1736 1.349 . S
C1748 H1742 0.950 . S
C1748 C1749 1.327 . S
C1749 H1743 0.950 . S
C1749 C1748 1.327 . S
C1749 C1753 1.429 . S
C1750 C1733 1.574 . S
C1750 H1744 0.949 . S
C1750 C1754 1.368 . S
C1751 C1732 1.429 . S
C1751 C1745 1.429 . S
C1751 C1752 1.523 . S
C1752 C1733 1.368 . S
C1752 C1746 1.368 . S
C1752 C1751 1.523 . S
C1753 C1737 1.429 . S
C1753 C1749 1.429 . S
C1753 C1754 1.523 . S
C1754 C1738 1.368 . S
C1754 C1750 1.368 . S
C1754 C1753 1.523 . S
H1755 C1730 0.950 . S
H1756 C1732 0.950 . S
H1757 C1733 0.949 . S
H1758 C1735 0.950 . S
H1759 C1737 0.950 . S
C1760 C1761 1.349 . S
C1760 C1762 1.327 . S
C1760 H1785 0.950 . S
C1761 C1760 1.349 . S
C1761 C1777 1.349 . S
C1762 C1760 1.327 . S
C1762 C1781 1.429 . S
C1762 H1786 0.950 . S
C1763 C1780 1.574 . S
C1763 C1782 1.368 . S
C1763 H1787 0.949 . S
H1764 C1768 0.949 . S
C1765 C1766 1.349 . S
C1765 C1767 1.327 . S
C1765 H1788 0.950 . S
C1766 C1765 1.349 . S
C1766 C1778 1.349 . S
C1767 C1765 1.327 . S
C1767 C1783 1.429 . S
C1767 H1789 0.950 . S
C1768 H1764 0.949 . S
C1768 C1776 1.574 . S
C1768 C1784 1.368 . S
H1769 C1777 0.950 . S
H1770 C1775 0.950 . S
H1771 C1776 0.949 . S
H1772 C1778 0.950 . S
H1773 C1779 0.950 . S
H1774 C1780 0.949 . S
C1775 H1770 0.950 . S
C1775 C1777 1.327 . S
C1775 C1781 1.429 . S
C1776 C1768 1.574 . S
C1776 H1771 0.949 . S
C1776 C1782 1.368 . S
C1777 C1761 1.349 . S
C1777 H1769 0.950 . S
C1777 C1775 1.327 . S
C1778 C1766 1.349 . S
C1778 H1772 0.950 . S
C1778 C1779 1.327 . S
C1779 H1773 0.950 . S
C1779 C1778 1.327 . S
C1779 C1783 1.429 . S
C1780 C1763 1.574 . S
C1780 H1774 0.949 . S
C1780 C1784 1.368 . S
C1781 C1762 1.429 . S
C1781 C1775 1.429 . S
C1781 C1782 1.523 . S
C1782 C1763 1.368 . S
C1782 C1776 1.368 . S
C1782 C1781 1.523 . S
C1783 C1767 1.429 . S
C1783 C1779 1.429 . S
C1783 C1784 1.523 . S
C1784 C1768 1.368 . S
C1784 C1780 1.368 . S
C1784 C1783 1.523 . S
H1785 C1760 0.950 . S
H1786 C1762 0.950 . S
H1787 C1763 0.949 . S
H1788 C1765 0.950 . S
H1789 C1767 0.950 . S
C1790 C1791 1.349 . S
C1790 C1792 1.327 . S
C1790 H1815 0.950 . S
C1791 C1790 1.349 . S
C1791 C1807 1.349 . S
C1792 C1790 1.327 . S
C1792 C1811 1.429 . S
C1792 H1816 0.950 . S
C1793 C1810 1.574 . S
C1793 C1812 1.368 . S
C1793 H1817 0.949 . S
H1794 C1798 0.949 . S
C1795 C1796 1.349 . S
C1795 C1797 1.327 . S
C1795 H1818 0.950 1_556 S
C1796 C1795 1.349 . S
C1796 C1808 1.349 . S
C1797 C1795 1.327 . S
C1797 C1813 1.429 . S
C1797 H1819 0.950 . S
C1798 H1794 0.949 . S
C1798 C1806 1.574 . S
C1798 C1814 1.368 . S
H1799 C1807 0.950 . S
H1800 C1805 0.950 . S
H1801 C1806 0.949 . S
H1802 C1808 0.950 . S
H1803 C1809 0.950 . S
H1804 C1810 0.949 . S
C1805 H1800 0.950 . S
C1805 C1807 1.327 . S
C1805 C1811 1.429 . S
C1806 C1798 1.574 . S
C1806 H1801 0.949 . S
C1806 C1812 1.368 . S
C1807 C1791 1.349 . S
C1807 H1799 0.950 . S
C1807 C1805 1.327 . S
C1808 C1796 1.349 . S
C1808 H1802 0.950 . S
C1808 C1809 1.327 . S
C1809 H1803 0.950 . S
C1809 C1808 1.327 . S
C1809 C1813 1.429 . S
C1810 C1793 1.574 . S
C1810 H1804 0.949 . S
C1810 C1814 1.368 . S
C1811 C1792 1.429 . S
C1811 C1805 1.429 . S
C1811 C1812 1.523 . S
C1812 C1793 1.368 . S
C1812 C1806 1.368 . S
C1812 C1811 1.523 . S
C1813 C1797 1.429 . S
C1813 C1809 1.429 . S
C1813 C1814 1.523 . S
C1814 C1798 1.368 . S
C1814 C1810 1.368 . S
C1814 C1813 1.523 . S
H1815 C1790 0.950 . S
H1816 C1792 0.950 . S
H1817 C1793 0.949 . S
H1818 C1795 0.950 1_554 S
H1819 C1797 0.950 . S
C1820 C1821 1.349 . S
C1820 C1822 1.327 . S
C1820 H1845 0.950 . S
C1821 C1820 1.349 . S
C1821 C1837 1.349 . S
C1822 C1820 1.327 . S
C1822 C1841 1.429 . S
C1822 H1846 0.950 . S
C1823 C1840 1.574 . S
C1823 C1842 1.368 . S
C1823 H1847 0.949 . S
H1824 C1828 0.949 . S
C1825 C1826 1.349 . S
C1825 C1827 1.327 . S
C1825 H1848 0.950 . S
C1826 C1825 1.349 . S
C1826 C1838 1.349 . S
C1827 C1825 1.327 . S
C1827 C1843 1.429 . S
C1827 H1849 0.950 . S
C1828 H1824 0.949 . S
C1828 C1836 1.574 . S
C1828 C1844 1.368 . S
H1829 C1837 0.950 . S
H1830 C1835 0.950 . S
H1831 C1836 0.949 . S
H1832 C1838 0.950 . S
H1833 C1839 0.950 . S
H1834 C1840 0.949 . S
C1835 H1830 0.950 . S
C1835 C1837 1.327 . S
C1835 C1841 1.429 . S
C1836 C1828 1.574 . S
C1836 H1831 0.949 . S
C1836 C1842 1.368 . S
C1837 C1821 1.349 . S
C1837 H1829 0.950 . S
C1837 C1835 1.327 . S
C1838 C1826 1.349 . S
C1838 H1832 0.950 . S
C1838 C1839 1.327 . S
C1839 H1833 0.950 . S
C1839 C1838 1.327 . S
C1839 C1843 1.429 . S
C1840 C1823 1.574 . S
C1840 H1834 0.949 . S
C1840 C1844 1.368 . S
C1841 C1822 1.429 . S
C1841 C1835 1.429 . S
C1841 C1842 1.523 . S
C1842 C1823 1.368 . S
C1842 C1836 1.368 . S
C1842 C1841 1.523 . S
C1843 C1827 1.429 . S
C1843 C1839 1.429 . S
C1843 C1844 1.523 . S
C1844 C1828 1.368 . S
C1844 C1840 1.368 . S
C1844 C1843 1.523 . S
H1845 C1820 0.950 . S
H1846 C1822 0.950 . S
H1847 C1823 0.949 . S
H1848 C1825 0.950 . S
H1849 C1827 0.950 . S
C1850 C1851 1.349 . S
C1850 C1852 1.327 . S
C1850 H1875 0.950 . S
C1851 C1850 1.349 . S
C1851 C1867 1.349 . S
C1852 C1850 1.327 . S
C1852 C1871 1.429 . S
C1852 H1876 0.950 . S
C1853 C1870 1.574 . S
C1853 C1872 1.368 . S
C1853 H1877 0.949 . S
H1854 C1858 0.949 . S
C1855 C1856 1.349 . S
C1855 C1857 1.327 . S
C1855 H1878 0.950 . S
C1856 C1855 1.349 . S
C1856 C1868 1.349 . S
C1857 C1855 1.327 . S
C1857 C1873 1.429 . S
C1857 H1879 0.950 . S
C1858 H1854 0.949 . S
C1858 C1866 1.574 . S
C1858 C1874 1.368 . S
H1859 C1867 0.950 . S
H1860 C1865 0.950 . S
H1861 C1866 0.949 . S
H1862 C1868 0.950 . S
H1863 C1869 0.950 . S
H1864 C1870 0.949 . S
C1865 H1860 0.950 . S
C1865 C1867 1.327 . S
C1865 C1871 1.429 . S
C1866 C1858 1.574 . S
C1866 H1861 0.949 . S
C1866 C1872 1.368 . S
C1867 C1851 1.349 . S
C1867 H1859 0.950 . S
C1867 C1865 1.327 . S
C1868 C1856 1.349 . S
C1868 H1862 0.950 . S
C1868 C1869 1.327 . S
C1869 H1863 0.950 . S
C1869 C1868 1.327 . S
C1869 C1873 1.429 . S
C1870 C1853 1.574 . S
C1870 H1864 0.949 . S
C1870 C1874 1.368 . S
C1871 C1852 1.429 . S
C1871 C1865 1.429 . S
C1871 C1872 1.523 . S
C1872 C1853 1.368 . S
C1872 C1866 1.368 . S
C1872 C1871 1.523 . S
C1873 C1857 1.429 . S
C1873 C1869 1.429 . S
C1873 C1874 1.523 . S
C1874 C1858 1.368 . S
C1874 C1870 1.368 . S
C1874 C1873 1.523 . S
H1875 C1850 0.950 . S
H1876 C1852 0.950 . S
H1877 C1853 0.949 . S
H1878 C1855 0.950 . S
H1879 C1857 0.950 . S
C926 C525 1.604 . S
C921 C47 1.493 . S
C956 C578 1.332 . S
C951 C115 1.301 . S
C986 C641 1.576 . S
C981 C153 1.457 . S
C1016 C684 1.436 . S
C1011 C233 1.329 . S
C1041 C283 1.524 . S
C1046 C640 1.560 . S
C1076 C677 1.440 . S
C1071 C357 1.347 . S
C1106 C518 1.638 . S
C1101 C401 1.515 . S
C1136 C571 1.315 . S
C1131 C463 1.205 . S
C1166 C624 1.418 . S
C1161 C469 1.375 . S
C1196 C693 1.805 . S
C1191 C277 1.685 . S
C1226 C534 1.572 . S
C1221 C363 1.549 . S
C1256 C587 1.615 . S
C1251 C407 1.583 . S
C1286 C535 1.567 . S
C1281 C109 1.456 . S
C1316 C588 1.682 . S
C1311 C159 1.641 . S
C1346 C631 1.393 . S
C1341 C239 1.357 . S
C1376 C694 1.730 . S
C1371 C53 1.700 . S
C1406 C737 1.585 . S
C1401 C481 1.471 . S
C1431 C301 1.661 . S
C1436 C790 1.704 . S
C1461 C339 1.479 . S
C1466 C852 1.599 . S
C1491 C419 1.720 . S
C1496 C906 1.848 . S
C1521 C97 1.490 . S
C1526 C853 1.525 . S
C1551 C171 1.757 . S
C1556 C905 1.871 . S
C1581 C215 1.532 . S
C1586 C730 1.653 . S
C1616 C783 1.709 . S
C1611 C29 1.560 . S
C1646 C843 1.389 . S
C1641 C35 1.348 . S
C1671 C91 1.259 . S
C1676 C889 1.356 . S
C1701 C177 1.585 . S
C1706 C746 1.606 . S
C1731 C221 1.221 . S
C1736 C799 1.242 . S
C1766 C747 1.547 . S
C1761 C295 1.434 . S
C1796 C800 1.300 . S
C1791 C345 1.272 . S
C1821 C425 1.376 . S
C1826 C836 1.413 . S
C1856 C896 1.299 . S
C1851 C487 1.276 . S
