# Generated by pormake.
# Topology zzz, (3,6)-cn, num edge types: 1
# Building blocks:
#     Node 0, Type 0, BuildingBlock: PAMTOO_clean_linker_0, # of connection points: 3
#     Node 1, Type 0, BuildingBlock: PAMTOO_clean_linker_0, # of connection points: 3
#     Node 2, Type 0, BuildingBlock: PAMTOO_clean_linker_0, # of connection points: 3
#     Node 3, Type 0, BuildingBlock: PAMTOO_clean_linker_0, # of connection points: 3
#     Node 4, Type 0, BuildingBlock: PAMTOO_clean_linker_0, # of connection points: 3
#     Node 5, Type 0, BuildingBlock: PAMTOO_clean_linker_0, # of connection points: 3
#     Node 6, Type 0, BuildingBlock: PAMTOO_clean_linker_0, # of connection points: 3
#     Node 7, Type 0, BuildingBlock: PAMTOO_clean_linker_0, # of connection points: 3
#     Node 8, Type 1, BuildingBlock: CUKXOW_clean_sbu_0, # of connection points: 6
#     Node 9, Type 1, BuildingBlock: CUKXOW_clean_sbu_0, # of connection points: 6
#     Node 10, Type 1, BuildingBlock: CUKXOW_clean_sbu_0, # of connection points: 6
#     Node 11, Type 1, BuildingBlock: CUKXOW_clean_sbu_0, # of connection points: 6
#     Edge 12, Type (0, 1), BuildingBlock: XUDNAN_clean_linker_2, # of connection points: 2
#     Edge 13, Type (0, 1), BuildingBlock: XUDNAN_clean_linker_2, # of connection points: 2
#     Edge 14, Type (0, 1), BuildingBlock: XUDNAN_clean_linker_2, # of connection points: 2
#     Edge 15, Type (0, 1), BuildingBlock: XUDNAN_clean_linker_2, # of connection points: 2
#     Edge 16, Type (0, 1), BuildingBlock: XUDNAN_clean_linker_2, # of connection points: 2
#     Edge 17, Type (0, 1), BuildingBlock: XUDNAN_clean_linker_2, # of connection points: 2
#     Edge 18, Type (0, 1), BuildingBlock: XUDNAN_clean_linker_2, # of connection points: 2
#     Edge 19, Type (0, 1), BuildingBlock: XUDNAN_clean_linker_2, # of connection points: 2
#     Edge 20, Type (0, 1), BuildingBlock: XUDNAN_clean_linker_2, # of connection points: 2
#     Edge 21, Type (0, 1), BuildingBlock: XUDNAN_clean_linker_2, # of connection points: 2
#     Edge 22, Type (0, 1), BuildingBlock: XUDNAN_clean_linker_2, # of connection points: 2
#     Edge 23, Type (0, 1), BuildingBlock: XUDNAN_clean_linker_2, # of connection points: 2
#     Edge 24, Type (0, 1), BuildingBlock: XUDNAN_clean_linker_2, # of connection points: 2
#     Edge 25, Type (0, 1), BuildingBlock: XUDNAN_clean_linker_2, # of connection points: 2
#     Edge 26, Type (0, 1), BuildingBlock: XUDNAN_clean_linker_2, # of connection points: 2
#     Edge 27, Type (0, 1), BuildingBlock: XUDNAN_clean_linker_2, # of connection points: 2
#     Edge 28, Type (0, 1), BuildingBlock: XUDNAN_clean_linker_2, # of connection points: 2
#     Edge 29, Type (0, 1), BuildingBlock: XUDNAN_clean_linker_2, # of connection points: 2
#     Edge 30, Type (0, 1), BuildingBlock: XUDNAN_clean_linker_2, # of connection points: 2
#     Edge 31, Type (0, 1), BuildingBlock: XUDNAN_clean_linker_2, # of connection points: 2
#     Edge 32, Type (0, 1), BuildingBlock: XUDNAN_clean_linker_2, # of connection points: 2
#     Edge 33, Type (0, 1), BuildingBlock: XUDNAN_clean_linker_2, # of connection points: 2
#     Edge 34, Type (0, 1), BuildingBlock: XUDNAN_clean_linker_2, # of connection points: 2
#     Edge 35, Type (0, 1), BuildingBlock: XUDNAN_clean_linker_2, # of connection points: 2
# Relax obj value: 0.065
# Max RMSD: 0.118
# Mean RMSD: 0.080
data_MOF--net-zzz--node1-CUKXOW_clean_sbu_0--node2-PAMTOO_clean_linker_0--edge1-XUDNAN_clean_linker_2
_symmetry_space_group_name_H-M    P1
_symmetry_Int_Tables_number       1
_symmetry_cell_setting            triclinic
loop_
_symmetry_equiv_pos_as_xyz
'x, y, z'
_cell_length_a     50.519021
_cell_length_b     52.609754
_cell_length_c     15.704699
_cell_angle_alpha  93.387578
_cell_angle_beta   86.678928
_cell_angle_gamma 93.798327
loop_
_atom_site_label
_atom_site_type_symbol
_atom_site_fract_x
_atom_site_fract_y
_atom_site_fract_z
_atom_type_partial_charge
H0 H 0.83786 0.522 0.14184 0.0
H1 H 0.77177 0.5214 0.98087 0.0
H2 H 0.76376 0.54955 0.24392 0.0
H3 H 0.70737 0.53412 0.1811 0.0
C4 C 0.7175 0.52554 0.12265 0.0
O5 O 0.73938 0.54132 0.09963 0.0
H6 H 0.72349 0.50651 0.13941 0.0
C7 C 0.81728 0.52552 0.13337 0.0
C8 C 0.80227 0.53637 0.20196 0.0
C9 C 0.80664 0.51987 0.05369 0.0
C10 C 0.78019 0.52515 0.0426 0.0
C11 C 0.76465 0.53568 0.11135 0.0
C12 C 0.77569 0.54124 0.19125 0.0
H13 H 0.95838 0.83889 0.09761 0.0
H14 H 0.96877 0.7843 0.88529 0.0
H15 H 0.9777 0.76273 0.14239 0.0
H16 H 0.01931 0.74955 0.99053 0.0
C17 C 0.00391 0.74077 0.94799 0.0
O18 O 0.97894 0.74683 0.97978 0.0
H19 H 0.00794 0.74866 0.88403 0.0
C20 C 0.96236 0.81973 0.07288 0.0
C21 C 0.9677 0.80161 0.12998 0.0
C22 C 0.96258 0.81379 0.98477 0.0
C23 C 0.96841 0.78916 0.95333 0.0
C24 C 0.97381 0.7707 0.01022 0.0
C25 C 0.97356 0.77697 0.0987 0.0
H26 H 0.66608 0.98456 0.21343 0.0
H27 H 0.72608 0.98222 0.00784 0.0
H28 H 0.74826 0.99934 0.26686 0.0
H29 H 0.78474 0.02656 0.13393 0.0
C30 C 0.7793 0.01376 0.07789 0.0
O31 O 0.76615 0.99178 0.10682 0.0
H32 H 0.76623 0.02392 0.03842 0.0
C33 C 0.68687 0.98547 0.19133 0.0
C34 C 0.70623 0.99164 0.25057 0.0
C35 C 0.69361 0.98221 0.10382 0.0
C36 C 0.72047 0.9847 0.07532 0.0
C37 C 0.74023 0.99054 0.13426 0.0
C38 C 0.73305 0.9944 0.2218 0.0
H39 H 0.53206 0.6755 0.19899 0.0
H40 H 0.53306 0.7309 0.00741 0.0
H41 H 0.55078 0.7546 0.2663 0.0
H42 H 0.52115 0.79402 0.18705 0.0
C43 C 0.52296 0.78578 0.12026 0.0
O44 O 0.54403 0.7702 0.11275 0.0
H45 H 0.50401 0.77463 0.10668 0.0
C46 C 0.53492 0.69506 0.18019 0.0
C47 C 0.54176 0.7142 0.24188 0.0
C48 C 0.5324 0.70054 0.09493 0.0
C49 C 0.53519 0.72611 0.07271 0.0
C50 C 0.5414 0.74565 0.13477 0.0
C51 C 0.54528 0.73962 0.21912 0.0
H52 H 0.18623 0.48662 0.2705 0.0
H53 H 0.25376 0.48913 0.42606 0.0
H54 H 0.26467 0.50089 0.1567 0.0
H55 H 0.31634 0.48223 0.21785 0.0
C56 C 0.30643 0.47948 0.282 0.0
O57 O 0.28888 0.49838 0.30016 0.0
H58 H 0.29579 0.46022 0.27894 0.0
C59 C 0.20755 0.48841 0.27659 0.0
C60 C 0.22397 0.49386 0.20433 0.0
C61 C 0.21775 0.48675 0.357 0.0
C62 C 0.2454 0.48983 0.36432 0.0
C63 C 0.26235 0.4945 0.29183 0.0
C64 C 0.25161 0.49657 0.21181 0.0
H65 H 0.03507 0.17537 0.26148 0.0
H66 H 0.0215 0.23375 0.45897 0.0
H67 H 0.04391 0.25429 0.20181 0.0
H68 H 0.0687 0.28803 0.33617 0.0
C69 C 0.05236 0.28739 0.38672 0.0
O70 O 0.03115 0.27186 0.35841 0.0
H71 H 0.05975 0.27951 0.44448 0.0
C72 C 0.03474 0.19544 0.28167 0.0
C73 C 0.0411 0.21385 0.2218 0.0
C74 C 0.02735 0.20222 0.36661 0.0
C75 C 0.02708 0.22815 0.39323 0.0
C76 C 0.03317 0.24696 0.33379 0.0
C77 C 0.03982 0.23978 0.24777 0.0
H78 H 0.35451 0.03889 0.25231 0.0
H79 H 0.29384 0.03961 0.45581 0.0
H80 H 0.27319 0.01919 0.19706 0.0
H81 H 0.23396 0.05127 0.3015 0.0
C82 C 0.23658 0.04386 0.36514 0.0
O83 O 0.25476 0.02526 0.3573 0.0
H84 H 0.24406 0.05989 0.40858 0.0
C85 C 0.3337 0.03688 0.27384 0.0
C86 C 0.31488 0.0287 0.21477 0.0
C87 C 0.32646 0.04104 0.36053 0.0
C88 C 0.29967 0.03723 0.38848 0.0
C89 C 0.28035 0.02991 0.32931 0.0
C90 C 0.28797 0.02564 0.24217 0.0
H91 H 0.46832 0.34122 0.25111 0.0
H92 H 0.47378 0.2816 0.4235 0.0
H93 H 0.45813 0.26283 0.15993 0.0
H94 H 0.43579 0.2186 0.28055 0.0
C95 C 0.44448 0.22952 0.33611 0.0
O96 O 0.46641 0.24438 0.30772 0.0
H97 H 0.42878 0.24151 0.3666 0.0
C98 C 0.46625 0.32115 0.26414 0.0
C99 C 0.46136 0.30316 0.19666 0.0
C100 C 0.47041 0.31386 0.34638 0.0
C101 C 0.47016 0.28776 0.36082 0.0
C102 C 0.46554 0.26941 0.29376 0.0
C103 C 0.46123 0.27708 0.21163 0.0
Tb104 Tb 0.99688 0.98377 0.61932 0.0
C105 C 0.05645 0.00505 0.6225 0.0
Tb106 Tb 0.01217 0.02706 0.75867 0.0
O107 O 1.00158 0.01094 0.51562 0.0
O108 O 0.9939 0.02308 0.642 0.0
O109 O 0.03958 0.98616 0.59648 0.0
C110 C 0.02244 0.07395 0.8279 0.0
O111 O 0.04968 0.02348 0.68018 0.0
C112 C 0.00713 0.98048 0.81029 0.0
C113 C 0.95306 0.00335 0.75866 0.0
O114 O 0.03566 0.0542 0.84074 0.0
O115 O 1.00335 0.06705 0.7782 0.0
O116 O 0.00468 1.00072 0.86164 0.0
O117 O 0.0151 0.98753 0.73753 0.0
O118 O 0.96909 0.02322 0.78315 0.0
O119 O 0.96082 0.98484 0.7032 0.0
C120 C 0.98399 0.93794 0.54574 0.0
O121 O 0.96919 0.95732 0.55003 0.0
O122 O 0.00611 0.94449 0.58141 0.0
C123 C 1.00052 0.03074 0.56936 0.0
Tb124 Tb 0.51191 0.04472 0.71449 0.0
C125 C 0.56172 0.01506 0.65104 0.0
Tb126 Tb 0.51155 0.98659 0.74748 0.0
O127 O 0.54455 0.05365 0.79949 0.0
O128 O 0.5185 0.02189 0.81635 0.0
O129 O 0.54801 0.0353 0.64126 0.0
C130 C 0.52025 0.9408 0.80188 0.0
O131 O 0.5522 0.99513 0.69449 0.0
C132 C 0.48319 0.99818 0.62215 0.0
C133 C 0.46184 0.0168 0.81125 0.0
O134 O 0.52093 0.94655 0.7224 0.0
O135 O 0.5146 0.96076 0.85018 0.0
O136 O 0.47889 0.97744 0.66323 0.0
O137 O 0.50459 0.00937 0.64584 0.0
O138 O 0.47567 0.99672 0.82285 0.0
O139 O 0.47136 0.03612 0.76532 0.0
C140 C 0.50154 0.08988 0.65915 0.0
O141 O 0.50153 0.08451 0.7389 0.0
O142 O 0.50781 0.07003 0.61129 0.0
C143 C 0.53988 0.03293 0.84053 0.0
Tb144 Tb 0.52076 0.52784 0.64348 0.0
C145 C 0.46484 0.49849 0.62634 0.0
Tb146 Tb 0.50542 0.48359 0.76303 0.0
O147 O 0.52192 0.50048 0.53202 0.0
O148 O 0.53022 0.49001 0.65307 0.0
O149 O 0.47977 0.51949 0.60805 0.0
C150 C 0.49211 0.43736 0.81979 0.0
O151 O 0.47206 0.4816 0.67907 0.0
C152 C 0.49986 0.53005 0.82779 0.0
C153 C 0.56172 0.51074 0.7755 0.0
O154 O 0.48302 0.45856 0.85244 0.0
O155 O 0.50891 0.44232 0.75659 0.0
O156 O 0.50561 0.51145 0.87332 0.0
O157 O 0.49586 0.52157 0.7531 0.0
O158 O 0.54724 0.48909 0.78633 0.0
O159 O 0.55356 0.52968 0.73249 0.0
C160 C 0.5339 0.57405 0.58656 0.0
O161 O 0.54811 0.55435 0.57357 0.0
O162 O 0.51213 0.5676 0.63009 0.0
C163 C 0.52695 0.48169 0.57779 0.0
Tb164 Tb 0.99493 0.5175 0.62099 0.0
C165 C 0.0174 0.46231 0.60995 0.0
Tb166 Tb 0.03249 0.50304 0.7625 0.0
O167 O 0.02866 0.51708 0.5259 0.0
O168 O 0.03425 0.5255 0.65559 0.0
O169 O 1.00057 0.4778 0.58109 0.0
C170 C 0.07766 0.49473 0.83371 0.0
O171 O 0.0319 0.46832 0.67747 0.0
C172 C 0.98132 0.49752 0.80231 0.0
C173 C 0.01242 0.55877 0.76822 0.0
O174 O 0.07262 0.48922 0.75447 0.0
O175 O 0.05694 0.50417 0.87353 0.0
O176 O 0.99909 0.49768 0.85926 0.0
O177 O 0.99315 0.49621 0.72996 0.0
O178 O 0.03155 0.54417 0.78714 0.0
O179 O 0.99478 0.55148 0.71026 0.0
C180 C 0.94939 0.52372 0.54883 0.0
O181 O 0.97095 0.53857 0.53937 0.0
O182 O 0.9539 0.50534 0.59635 0.0
C183 C 0.04608 0.52133 0.58425 0.0
H184 H 0.20187 0.0654 0.48713 0.0
H185 H 0.21084 0.99818 0.31701 0.0
H186 H 0.16685 0.98032 0.36981 0.0
H187 H 0.16722 0.03345 0.66478 0.0
H188 H 0.14531 0.05879 0.69098 0.0
H189 H 0.17803 0.06588 0.64292 0.0
H190 H 0.15745 0.08765 0.5209 0.0
H191 H 0.1247 0.08066 0.56864 0.0
H192 H 0.13254 0.0701 0.45936 0.0
H193 H 0.12209 0.97004 0.43879 0.0
H194 H 0.07808 0.96851 0.51401 0.0
H195 H 0.09693 0.04299 0.63852 0.0
C196 C 0.19465 0.04678 0.46192 0.0
C197 C 0.21003 0.0328 0.39967 0.0
C198 C 0.19964 0.00887 0.36618 0.0
C199 C 0.17468 0.99862 0.39568 0.0
C200 C 0.1602 0.0127 0.45792 0.0
C201 C 0.16966 0.03633 0.49038 0.0
C202 C 0.14952 0.0479 0.55437 0.0
C203 C 0.16069 0.05173 0.64355 0.0
C204 C 0.14052 0.07307 0.52397 0.0
C205 C 0.1272 0.02713 0.55239 0.0
C206 C 0.13394 0.00697 0.49666 0.0
C207 C 0.11659 0.98569 0.48267 0.0
C208 C 0.09155 0.98505 0.52592 0.0
C209 C 0.08387 0.00563 0.58253 0.0
C210 C 0.10216 0.02686 0.59629 0.0
H211 H 0.45822 0.17985 0.30709 0.0
H212 H 0.45019 0.23954 0.50734 0.0
H213 H 0.46432 0.21057 0.61272 0.0
H214 H 0.43395 0.12721 0.4341 0.0
H215 H 0.45703 0.10557 0.38352 0.0
H216 H 0.44609 0.13102 0.32508 0.0
H217 H 0.49519 0.14704 0.2937 0.0
H218 H 0.50616 0.1217 0.35261 0.0
H219 H 0.51644 0.15439 0.38135 0.0
H220 H 0.47844 0.17454 0.69641 0.0
H221 H 0.49266 0.13462 0.75104 0.0
H222 H 0.49231 0.09903 0.49488 0.0
C223 C 0.45932 0.18669 0.37328 0.0
C224 C 0.45271 0.21169 0.39987 0.0
C225 C 0.45482 0.22027 0.48646 0.0
C226 C 0.46284 0.20399 0.54647 0.0
C227 C 0.4689 0.17929 0.5185 0.0
C228 C 0.46729 0.1707 0.43388 0.0
C229 C 0.47506 0.14338 0.42018 0.0
C230 C 0.45164 0.12577 0.38889 0.0
C231 C 0.49968 0.14153 0.35831 0.0
C232 C 0.48135 0.13795 0.51017 0.0
C233 C 0.47756 0.15884 0.56612 0.0
C234 C 0.4816 0.15811 0.65308 0.0
C235 C 0.48966 0.13542 0.68355 0.0
C236 C 0.49377 0.11393 0.62702 0.0
C237 C 0.4896 0.1153 0.53935 0.0
H238 H 0.35355 0.50917 0.28729 0.0
H239 H 0.30529 0.45252 0.42627 0.0
H240 H 0.34007 0.45201 0.53084 0.0
H241 H 0.41624 0.48407 0.31289 0.0
H242 H 0.43411 0.51471 0.32667 0.0
H243 H 0.40504 0.51145 0.26478 0.0
H244 H 0.38368 0.54709 0.36122 0.0
H245 H 0.41275 0.55051 0.4232 0.0
H246 H 0.38044 0.54416 0.4752 0.0
H247 H 0.38113 0.45549 0.61395 0.0
H248 H 0.4244 0.46476 0.67718 0.0
H249 H 0.44611 0.52036 0.48741 0.0
C250 C 0.35033 0.49683 0.34022 0.0
C251 C 0.32698 0.48058 0.34839 0.0
C252 C 0.3232 0.46486 0.41865 0.0
C253 C 0.34283 0.46447 0.47819 0.0
C254 C 0.36595 0.4802 0.46717 0.0
C255 C 0.3697 0.49631 0.40055 0.0
C256 C 0.39653 0.51111 0.40318 0.0
C257 C 0.41401 0.50496 0.32206 0.0
C258 C 0.39314 0.53993 0.41651 0.0
C259 C 0.40738 0.50058 0.48108 0.0
C260 C 0.38942 0.48272 0.51673 0.0
C261 C 0.39523 0.46964 0.58716 0.0
C262 C 0.41996 0.47503 0.62249 0.0
C263 C 0.43869 0.49345 0.58782 0.0
C264 C 0.43216 0.50641 0.51614 0.0
H265 H 0.06643 0.32067 0.52155 0.0
H266 H 0.02072 0.31498 0.29507 0.0
H267 H 0.00728 0.35903 0.32703 0.0
H268 H 0.02182 0.35734 0.6568 0.0
H269 H 0.04773 0.37687 0.70752 0.0
H270 H 0.05387 0.34496 0.66676 0.0
H271 H 0.09441 0.36263 0.57502 0.0
H272 H 0.08834 0.3947 0.61448 0.0
H273 H 0.09009 0.38679 0.50115 0.0
H274 H 0.9978 0.40298 0.38547 0.0
H275 H 0.99391 0.44463 0.46329 0.0
H276 H 0.04686 0.42267 0.65083 0.0
C277 C 0.05346 0.3287 0.47911 0.0
C278 C 0.04397 0.31421 0.40712 0.0
C279 C 0.02764 0.32556 0.35165 0.0
C280 C 0.02002 0.35057 0.36911 0.0
C281 C 0.02929 0.36417 0.44145 0.0
C282 C 0.04582 0.35376 0.49527 0.0
C283 C 0.05321 0.37267 0.56814 0.0
C284 C 0.04357 0.36234 0.65493 0.0
C285 C 0.0833 0.3796 0.56445 0.0
C286 C 0.03786 0.39515 0.5477 0.0
C287 C 0.02428 0.38983 0.47421 0.0
C288 C 0.00841 0.4074 0.44295 0.0
C289 C 0.00629 0.43105 0.48797 0.0
C290 C 0.01998 0.43704 0.56368 0.0
C291 C 0.03609 0.41877 0.59339 0.0
H292 H 0.82887 0.0392 0.07438 0.0
H293 H 0.78435 0.97481 0.95464 0.0
H294 H 0.82395 0.96499 0.8614 0.0
H295 H 0.86475 0.05891 0.88278 0.0
H296 H 0.89507 0.06829 0.93456 0.0
H297 H 0.86357 0.06975 0.99392 0.0
H298 H 0.87977 0.04092 0.10599 0.0
H299 H 0.91135 0.03945 0.04706 0.0
H300 H 0.89215 0.01042 0.0714 0.0
H301 H 0.86832 0.96206 0.78213 0.0
H302 H 0.91391 0.96685 0.7183 0.0
H303 H 0.92962 0.03407 0.88656 0.0
C304 C 0.82761 0.02287 0.02914 0.0
C305 C 0.8038 0.0073 0.02325 0.0
C306 C 0.80261 0.98656 0.96156 0.0
C307 C 0.82495 0.98091 0.90823 0.0
C308 C 0.84823 0.99643 0.91643 0.0
C309 C 0.8497 0.01707 0.97501 0.0
C310 C 0.87693 0.03109 0.96916 0.0
C311 C 0.87495 0.05864 0.94357 0.0
C312 C 0.89087 0.03042 0.05341 0.0
C313 C 0.89054 0.01509 0.89823 0.0
C314 C 0.87364 0.99516 0.869 0.0
C315 C 0.8817 0.97765 0.80429 0.0
C316 C 0.90771 0.98058 0.76836 0.0
C317 C 0.92544 1.00095 0.79681 0.0
C318 C 0.91659 0.01839 0.86278 0.0
H319 H 0.52174 0.83774 0.15316 0.0
H320 H 0.53189 0.78031 0.94655 0.0
H321 H 0.53494 0.81401 0.84186 0.0
H322 H 0.48024 0.87537 0.04829 0.0
H323 H 0.49395 0.90552 0.09201 0.0
H324 H 0.49494 0.87724 0.15057 0.0
H325 H 0.54603 0.88473 0.15717 0.0
H326 H 0.54519 0.91311 0.09877 0.0
H327 H 0.56623 0.88815 0.05956 0.0
H328 H 0.53429 0.85393 0.75963 0.0
H329 H 0.52966 0.89676 0.70656 0.0
H330 H 0.51958 0.92779 0.96756 0.0
C331 C 0.5251 0.83236 0.08597 0.0
C332 C 0.52704 0.80653 0.05768 0.0
C333 C 0.5308 0.80008 0.96922 0.0
C334 C 0.53251 0.81906 0.90953 0.0
C335 C 0.53037 0.84438 0.93946 0.0
C336 C 0.52683 0.85105 0.02568 0.0
C337 C 0.52381 0.87944 0.04105 0.0
C338 C 0.49662 0.88469 0.08559 0.0
C339 C 0.54668 0.8921 0.09216 0.0
C340 C 0.52569 0.88765 0.95002 0.0
C341 C 0.52969 0.86722 0.89228 0.0
C342 C 0.53134 0.87008 0.80433 0.0
C343 C 0.52867 0.89443 0.77476 0.0
C344 C 0.52427 0.91548 0.833 0.0
C345 C 0.52299 0.91201 0.92162 0.0
H346 H 0.67563 0.55456 0.09394 0.0
H347 H 0.71692 0.48893 0.99142 0.0
H348 H 0.68354 0.48055 0.88212 0.0
H349 H 0.61132 0.5278 0.07445 0.0
H350 H 0.59697 0.55599 0.04308 0.0
H351 H 0.62556 0.55895 0.10686 0.0
H352 H 0.65146 0.58636 0.99534 0.0
H353 H 0.62337 0.58392 0.92903 0.0
H354 H 0.65514 0.57425 0.88578 0.0
H355 H 0.64295 0.47601 0.79777 0.0
H356 H 0.59907 0.47707 0.73667 0.0
H357 H 0.58457 0.5469 0.88697 0.0
C358 C 0.6778 0.5387 0.04741 0.0
C359 C 0.69859 0.52215 0.05133 0.0
C360 C 0.70096 0.50163 0.9896 0.0
C361 C 0.68216 0.4968 0.92736 0.0
C362 C 0.66138 0.51297 0.92678 0.0
C363 C 0.65925 0.53372 0.9844 0.0
C364 C 0.63431 0.54741 0.9722 0.0
C365 C 0.61597 0.54755 0.05396 0.0
C366 C 0.64149 0.5746 0.94394 0.0
C367 C 0.62225 0.5306 0.90069 0.0
C368 C 0.63832 0.51091 0.87536 0.0
C369 C 0.63051 0.49164 0.81562 0.0
C370 C 0.60558 0.49236 0.78143 0.0
C371 C 0.58886 0.51234 0.80609 0.0
C372 C 0.59743 0.5319 0.86551 0.0
H373 H 0.98294 0.70685 0.82564 0.0
H374 H 0.02839 0.71065 0.05232 0.0
H375 H 0.03354 0.66417 0.03442 0.0
H376 H 0.94858 0.64396 0.86109 0.0
H377 H 0.94979 0.63429 0.74897 0.0
H378 H 0.94829 0.66755 0.78249 0.0
H379 H 0.99104 0.6782 0.68879 0.0
H380 H 0.99271 0.645 0.65528 0.0
H381 H 0.02064 0.66201 0.70382 0.0
H382 H 0.03671 0.61839 0.98608 0.0
H383 H 0.03612 0.57545 0.91457 0.0
H384 H 0.98748 0.60047 0.72016 0.0
C385 C 0.99372 0.69773 0.87178 0.0
C386 C 0.00553 0.71223 0.93987 0.0
C387 C 0.01941 0.69983 -0.00056 0.0
C388 C 0.02238 0.67348 0.98982 0.0
C389 C 0.01103 0.65979 0.92093 0.0
C390 C 0.99675 0.67138 0.86333 0.0
C391 C 0.98716 0.65229 0.79375 0.0
C392 C 0.95664 0.64935 0.79679 0.0
C393 C 0.99858 0.65983 0.70519 0.0
C394 C 0.99882 0.6283 0.82015 0.0
C395 C 0.01243 0.6331 0.89385 0.0
C396 C 0.0259 0.61433 0.92883 0.0
C397 C 0.02553 0.59 0.88739 0.0
C398 C 0.01173 0.58453 0.81172 0.0
C399 C 0.99799 0.60396 0.77829 0.0
H400 H 0.99282 0.161 0.33958 0.0
H401 H 0.04786 0.19571 0.52076 0.0
H402 H 0.04529 0.15551 0.59634 0.0
H403 H 0.9527 0.11899 0.48969 0.0
H404 H 0.94943 0.09355 0.40818 0.0
H405 H 0.95193 0.1263 0.37917 0.0
H406 H 0.99194 0.11631 0.27459 0.0
H407 H 0.99015 0.08376 0.30492 0.0
H408 H 0.02063 0.10331 0.31443 0.0
H409 H 0.04273 0.11012 0.63557 0.0
H410 H 0.03538 0.06414 0.6508 0.0
H411 H 0.98175 0.05813 0.44439 0.0
C412 C 0.00362 0.16037 0.39696 0.0
C413 C 0.02048 0.1814 0.42489 0.0
C414 C 0.03456 0.17992 0.49939 0.0
C415 C 0.0334 0.15711 0.54198 0.0
C416 C 0.01792 0.1362 0.50929 0.0
C417 C 1.00283 0.13777 0.43951 0.0
C418 C 0.98947 0.11206 0.41307 0.0
C419 C 0.95908 0.11277 0.42317 0.0
C420 C 0.9986 0.10336 0.32134 0.0
C421 C 0.99988 0.09556 0.47776 0.0
C422 C 0.01621 0.10994 0.53255 0.0
C423 C 0.02938 0.09886 0.59462 0.0
C424 C 0.02497 0.0726 0.60305 0.0
C425 C 0.00733 0.05765 0.55094 0.0
C426 C 0.99512 0.06918 0.48588 0.0
H427 H 0.3359 0.01368 0.49611 0.0
H428 H 0.3667 0.07804 0.3526 0.0
H429 H 0.41012 0.07657 0.41578 0.0
H430 H 0.37667 0.0308 0.68999 0.0
H431 H 0.38183 0.99782 0.70566 0.0
H432 H 0.35131 0.0064 0.66402 0.0
H433 H 0.35806 0.97604 0.53145 0.0
H434 H 0.38842 0.96653 0.57055 0.0
H435 H 0.38852 0.97899 0.46602 0.0
H436 H 0.45218 0.06062 0.46124 0.0
H437 H 0.48831 0.037 0.51316 0.0
H438 H 0.43 0.98585 0.63909 0.0
C439 C 0.35133 0.02835 0.48205 0.0
C440 C 0.34804 0.04604 0.42009 0.0
C441 C 0.36891 0.06446 0.40059 0.0
C442 C 0.39365 0.06369 0.43577 0.0
C443 C 0.39695 0.04472 0.49169 0.0
C444 C 0.37613 0.02791 0.51713 0.0
C445 C 0.38555 0.00796 0.57205 0.0
C446 C 0.37312 0.0109 0.66343 0.0
C447 C 0.37979 0.98079 0.53259 0.0
C448 C 0.41506 0.01526 0.56912 0.0
C449 C 0.42126 0.03653 0.52255 0.0
C450 C 0.44752 0.04479 0.50162 0.0
C451 C 0.46791 0.03145 0.53169 0.0
C452 C 0.4619 0.01061 0.58355 0.0
C453 C 0.43515 0.00219 0.60123 0.0
H454 H 0.44821 0.35966 0.37676 0.0
H455 H 0.5095 0.3145 0.46135 0.0
H456 H 0.52853 0.35254 0.5416 0.0
H457 H 0.49004 0.40954 0.32334 0.0
H458 H 0.46806 0.43451 0.35433 0.0
H459 H 0.45455 0.40305 0.3237 0.0
H460 H 0.42726 0.40047 0.46847 0.0
H461 H 0.43997 0.43241 0.49771 0.0
H462 H 0.44386 0.40689 0.56678 0.0
H463 H 0.54466 0.39666 0.59435 0.0
H464 H 0.55533 0.44301 0.62097 0.0
H465 H 0.48666 0.45953 0.48575 0.0
C466 C 0.46519 0.35757 0.41422 0.0
C467 C 0.47743 0.33412 0.41262 0.0
C468 C 0.49956 0.33214 0.46257 0.0
C469 C 0.51063 0.35372 0.50779 0.0
C470 C 0.49929 0.377 0.50217 0.0
C471 C 0.47683 0.37898 0.45741 0.0
C472 C 0.4705 0.40654 0.45128 0.0
C473 C 0.47083 0.41382 0.35762 0.0
C474 C 0.44382 0.41188 0.49895 0.0
C475 C 0.49349 0.41985 0.49683 0.0
C476 C 0.50953 0.40251 0.52749 0.0
C477 C 0.53216 0.41036 0.57105 0.0
C478 C 0.53821 0.43661 0.5851 0.0
C479 C 0.52199 0.45453 0.55417 0.0
C480 C 0.49956 0.44608 0.50872 0.0
H481 H 0.17182 0.45668 0.3714 0.0
H482 H 0.21907 0.51574 0.5078 0.0
H483 H 0.17977 0.52565 0.60133 0.0
H484 H 0.12407 0.49332 0.34305 0.0
H485 H 0.09607 0.47034 0.35127 0.0
H486 H 0.12842 0.45986 0.31924 0.0
H487 H 0.12607 0.42922 0.44326 0.0
H488 H 0.09316 0.43894 0.47433 0.0
H489 H 0.1185 0.44136 0.55106 0.0
H490 H 0.13403 0.53613 0.65607 0.0
H491 H 0.08651 0.54547 0.66915 0.0
H492 H 0.0686 0.48437 0.48012 0.0
C493 C 0.17415 0.47086 0.42373 0.0
C494 C 0.19846 0.4855 0.43213 0.0
C495 C 0.2008 0.50401 0.50083 0.0
C496 C 0.17843 0.50991 0.55389 0.0
C497 C 0.154 0.49712 0.53723 0.0
C498 C 0.1518 0.47767 0.47432 0.0
C499 C 0.12297 0.4706 0.45629 0.0
C500 C 0.1176 0.47373 0.36193 0.0
C501 C 0.11469 0.44342 0.48283 0.0
C502 C 0.10942 0.49022 0.51455 0.0
C503 C 0.1275 0.50465 0.56322 0.0
C504 C 0.11972 0.52473 0.619 0.0
C505 C 0.09283 0.53008 0.62532 0.0
C506 C 0.07426 0.51592 0.57432 0.0
C507 C 0.08262 0.4957 0.51866 0.0
H508 H 0.99514 0.83194 0.85344 0.0
H509 H 0.92042 0.8432 0.99569 0.0
H510 H 0.92041 0.88649 0.94472 0.0
H511 H 0.02568 0.88608 0.89725 0.0
H512 H 0.04189 0.89333 0.79547 0.0
H513 H 0.0328 0.86079 0.81827 0.0
H514 H 0.00514 0.85468 0.68404 0.0
H515 H 0.01481 0.88711 0.65876 0.0
H516 H 0.98015 0.87661 0.66829 0.0
H517 H 0.936 0.9307 0.92463 0.0
H518 H 0.96065 0.97195 0.9023 0.0
H519 H 0.02272 0.93324 0.75508 0.0
C520 C 0.978 0.84298 0.86893 0.0
C521 C 0.95783 0.83442 0.92851 0.0
C522 C 0.93601 0.84953 0.94998 0.0
C523 C 0.93586 0.87414 0.92137 0.0
C524 C 0.95719 0.88301 0.86884 0.0
C525 C 0.9773 0.86758 0.83909 0.0
C526 C 0.99922 0.88287 0.79056 0.0
C527 C 0.02648 0.88063 0.82769 0.0
C528 C 0.99986 0.87484 0.69475 0.0
C529 C 0.98969 0.90956 0.80651 0.0
C530 C 0.96525 0.9091 0.85101 0.0
C531 C 0.95446 0.93134 0.88606 0.0
C532 C 0.96874 0.95465 0.87402 0.0
C533 C 0.99316 0.95563 0.82535 0.0
C534 C 0.00365 0.93286 0.79043 0.0
H535 H 0.68595 0.01005 0.9665 0.0
H536 H 0.65107 0.94777 0.11288 0.0
H537 H 0.6081 0.95162 0.04971 0.0
H538 H 0.63682 0.0481 0.99227 0.0
H539 H 0.63701 0.05979 0.88661 0.0
H540 H 0.66682 0.04852 0.92407 0.0
H541 H 0.6704 0.01571 0.79457 0.0
H542 H 0.64118 0.02778 0.75483 0.0
H543 H 0.64218 0.99422 0.7705 0.0
H544 H 0.56748 0.9696 0.00378 0.0
H545 H 0.53285 0.99482 0.95079 0.0
H546 H 0.59369 0.04296 0.82284 0.0
C547 C 0.66966 0.99631 0.98126 0.0
C548 C 0.67172 0.97866 0.04457 0.0
C549 C 0.6498 0.96143 0.06447 0.0
C550 C 0.62532 0.9635 0.02906 0.0
C551 C 0.62329 0.98244 0.97199 0.0
C552 C 0.64508 0.99791 0.9453 0.0
C553 C 0.63687 0.01815 0.88889 0.0
C554 C 0.64485 0.04523 0.92521 0.0
C555 C 0.64834 0.01368 0.79675 0.0
C556 C 0.60699 0.0129 0.8941 0.0
C557 C 0.59961 0.99204 0.94156 0.0
C558 C 0.57303 0.98521 0.96312 0.0
C559 C 0.5535 0.99951 0.93268 0.0
C560 C 0.56061 0.02 0.88016 0.0
C561 C 0.58771 0.02704 0.86182 0.0
H562 H 0.55517 0.65488 0.08369 0.0
H563 H 0.49793 0.69716 0.96388 0.0
H564 H 0.48516 0.65833 0.87438 0.0
H565 H 0.57345 0.61248 0.89888 0.0
H566 H 0.57543 0.58585 0.96452 0.0
H567 H 0.58299 0.61776 0.00777 0.0
H568 H 0.54789 0.6102 0.13203 0.0
H569 H 0.54023 0.5783 0.08895 0.0
H570 H 0.51419 0.6001 0.10827 0.0
H571 H 0.47637 0.61351 0.80706 0.0
H572 H 0.47221 0.56714 0.76811 0.0
H573 H 0.53238 0.55434 0.94385 0.0
C574 C 0.54006 0.65613 0.03818 0.0
C575 C 0.52735 0.679 0.03126 0.0
C576 C 0.50807 0.6799 0.96975 0.0
C577 C 0.5006 0.65791 0.91913 0.0
C578 C 0.51264 0.63532 0.93112 0.0
C579 C 0.53204 0.63441 0.98904 0.0
C580 C 0.54057 0.60762 0.99532 0.0
C581 C 0.56986 0.60587 0.96476 0.0
C582 C 0.53539 0.59853 0.08655 0.0
C583 C 0.52237 0.59325 0.93372 0.0
C584 C 0.50678 0.60959 0.89586 0.0
C585 C 0.4885 0.60061 0.83631 0.0
C586 C 0.48622 0.57432 0.81483 0.0
C587 C 0.5018 0.55737 0.85384 0.0
C588 C 0.51999 0.56694 0.91418 0.0
H589 H 0.84083 0.48192 0.05325 0.0
H590 H 0.81526 0.5401 0.89777 0.0
H591 H 0.85589 0.53639 0.80387 0.0
H592 H 0.90318 0.50551 0.0634 0.0
H593 H 0.9195 0.47598 0.05954 0.0
H594 H 0.88551 0.47689 0.09953 0.0
H595 H 0.87087 0.44116 0.98848 0.0
H596 H 0.90502 0.43936 0.94965 0.0
H597 H 0.87988 0.44454 0.87677 0.0
H598 H 0.90308 0.53507 0.75331 0.0
H599 H 0.95101 0.53081 0.73183 0.0
H600 H 0.94734 0.47322 0.91828 0.0
C601 C 0.84324 0.49294 0.99689 0.0
C602 C 0.82493 0.51122 0.98229 0.0
C603 C 0.8288 0.5257 0.9091 0.0
C604 C 0.85198 0.52386 0.856 0.0
C605 C 0.87078 0.50728 0.87673 0.0
C606 C 0.8664 0.49156 0.9442 0.0
C607 C 0.89111 0.478 0.96 0.0
C608 C 0.90035 0.4845 0.05097 0.0
C609 C 0.88644 0.44904 0.94265 0.0
C610 C 0.91048 0.48946 0.89351 0.0
C611 C 0.89822 0.50611 0.84581 0.0
C612 C 0.91256 0.52116 0.78723 0.0
C613 C 0.93988 0.51846 0.77486 0.0
C614 C 0.95266 0.50068 0.81956 0.0
C615 C 0.93785 0.48637 0.88111 0.0
H616 H 0.07559 0.17871 0.16382 0.0
H617 H 0.01631 0.22616 0.081 0.0
H618 H 0.01202 0.1983 0.9497 0.0
H619 H 0.10251 0.15295 0.94213 0.0
H620 H 0.10449 0.12193 0.98349 0.0
H621 H 0.1104 0.15031 0.05162 0.0
H622 H 0.07423 0.13303 0.16063 0.0
H623 H 0.06743 0.10511 0.09234 0.0
H624 H 0.04098 0.12532 0.12709 0.0
H625 H 0.00521 0.15996 0.85097 0.0
H626 H 0.99831 0.11604 0.78857 0.0
H627 H 0.05934 0.09137 0.94233 0.0
C628 C 0.06288 0.184 0.11539 0.0
C629 C 0.04641 0.20461 0.13187 0.0
C630 C 0.02946 0.21076 0.0687 0.0
C631 C 0.02677 0.19485 0.99425 0.0
C632 C 0.04129 0.17306 0.98419 0.0
C633 C 0.05942 0.16786 0.04254 0.0
C634 C 0.06857 0.14101 0.02722 0.0
C635 C 0.09826 0.14159 -0.00058 0.0
C636 C 0.06241 0.12521 0.10648 0.0
C637 C 0.05161 0.13133 0.95447 0.0
C638 C 0.03654 0.1503 0.92906 0.0
C639 C 0.01739 0.14519 0.86892 0.0
C640 C 0.01344 0.12013 0.83445 0.0
C641 C 0.0283 0.10041 0.86096 0.0
C642 C 0.04795 0.1062 0.92043 0.0
H643 H 0.34632 0.99077 0.16259 0.0
H644 H 0.30887 0.05508 0.07353 0.0
H645 H 0.33938 0.05458 0.94427 0.0
H646 H 0.40792 0.01258 0.12049 0.0
H647 H 0.42235 0.98297 0.08655 0.0
H648 H 0.3931 0.98278 0.15715 0.0
H649 H 0.36765 0.95174 0.05189 0.0
H650 H 0.39715 0.95109 0.98159 0.0
H651 H 0.36629 0.95952 0.94203 0.0
H652 H 0.38011 0.05379 0.84647 0.0
H653 H 0.42479 0.04998 0.77758 0.0
H654 H 0.43676 0.98646 0.93244 0.0
C655 C 0.34355 0.00366 0.11297 0.0
C656 C 0.32493 0.02256 0.12632 0.0
C657 C 0.32249 0.04002 0.06277 0.0
C658 C 0.33992 0.03996 0.9897 0.0
C659 C 0.35941 0.02219 0.98133 0.0
C660 C 0.36091 0.00393 0.0404 0.0
C661 C 0.38585 0.98945 0.0239 0.0
C662 C 0.40332 0.99213 0.10162 0.0
C663 C 0.37881 0.96128 -0.0017 0.0
C664 C 0.39892 0.0033 0.94928 0.0
C665 C 0.38319 0.02187 0.92495 0.0
C666 C 0.39225 0.03887 0.86349 0.0
C667 C 0.41784 0.0367 0.82532 0.0
C668 C 0.43436 0.01787 0.84947 0.0
C669 C 0.42452 1.00078 0.91155 0.0
H670 H 0.4318 0.34145 0.15598 0.0
H671 H 0.48788 0.28821 0.04638 0.0
H672 H 0.49568 0.31416 0.92001 0.0
H673 H 0.40858 0.36527 0.94917 0.0
H674 H 0.40847 0.3973 0.9967 0.0
H675 H 0.40055 0.37047 0.06194 0.0
H676 H 0.43733 0.38747 0.16251 0.0
H677 H 0.44598 0.41388 0.09693 0.0
H678 H 0.47097 0.39265 0.1193 0.0
H679 H 0.50481 0.35046 0.82308 0.0
H680 H 0.51376 0.39287 0.76364 0.0
H681 H 0.45501 0.4242 0.94543 0.0
C682 C 0.44477 0.33463 0.10337 0.0
C683 C 0.45915 0.31279 0.11057 0.0
C684 C 0.4763 0.30461 0.04144 0.0
C685 C 0.48097 0.31938 0.96969 0.0
C686 C 0.46824 0.34213 0.96828 0.0
C687 C 0.45019 0.34954 0.03311 0.0
C688 C 0.44284 0.37673 0.02548 0.0
C689 C 0.41336 0.37748 0.00719 0.0
C690 C 0.44971 0.39366 0.10576 0.0
C691 C 0.46057 0.384 0.94877 0.0
C692 C 0.47452 0.36362 0.91512 0.0
C693 C 0.4936 0.36636 0.84795 0.0
C694 C 0.49868 0.39054 0.81497 0.0
C695 C 0.48509 0.41171 0.85035 0.0
C696 C 0.46554 0.40825 0.91703 0.0
H697 H 0.18309 0.52344 0.18578 0.0
H698 H 0.23408 0.47097 0.0441 0.0
H699 H 0.20389 0.46858 0.92406 0.0
H700 H 0.12581 0.4892 0.14259 0.0
H701 H 0.10558 0.51596 0.13699 0.0
H702 H 0.13415 0.51895 0.20073 0.0
H703 H 0.15367 0.5577 0.11831 0.0
H704 H 0.12478 0.55544 0.05549 0.0
H705 H 0.1575 0.55496 0.00335 0.0
H706 H 0.16437 0.46811 0.82749 0.0
H707 H 0.12038 0.46942 0.76568 0.0
H708 H 0.094 0.51803 0.98225 0.0
C709 C 0.1884 0.51209 0.12826 0.0
C710 C 0.21094 0.49745 0.12385 0.0
C711 C 0.21712 0.48263 0.04808 0.0
C712 C 0.19995 0.48104 0.98004 0.0
C713 C 0.17679 0.49436 0.98931 0.0
C714 C 0.1712 0.50975 0.06165 0.0
C715 C 0.14364 0.51938 0.06254 0.0
C716 C 0.12629 0.51032 0.14027 0.0
C717 C 0.14499 0.54861 0.05971 0.0
C718 C 0.13417 0.50662 0.98023 0.0
C719 C 0.15366 0.49269 0.93765 0.0
C720 C 0.14908 0.47903 0.86038 0.0
C721 C 0.12404 0.47975 0.82603 0.0
C722 C 0.10379 0.49351 0.87005 0.0
C723 C 0.10904 0.5071 0.94784 0.0
H724 H 0.0088 0.8208 0.22284 0.0
H725 H 0.92375 0.80424 0.23554 0.0
H726 H 0.9193 0.8336 0.36335 0.0
H727 H 0.01559 0.83316 0.46872 0.0
H728 H 0.04085 0.85828 0.44919 0.0
H729 H 0.03811 0.83069 0.37566 0.0
H730 H 0.03444 0.86053 0.25216 0.0
H731 H 0.0363 0.8881 0.32504 0.0
H732 H 0.00837 0.8825 0.25848 0.0
H733 H 0.92265 0.87283 0.45904 0.0
H734 H 0.93453 0.91459 0.53273 0.0
H735 H 0.01778 0.90469 0.46663 0.0
C736 C 0.98957 0.82206 0.25652 0.0
C737 C 0.96669 0.80974 0.22152 0.0
C738 C 0.94152 0.81289 0.26353 0.0
C739 C 0.93883 0.82971 0.33567 0.0
C740 C 0.96158 0.84294 0.36563 0.0
C741 C 0.98664 0.8387 0.32916 0.0
C742 C 0.0074 0.85769 0.36639 0.0
C743 C 0.02663 0.84414 0.41808 0.0
C744 C 0.02249 0.8731 0.29634 0.0
C745 C 0.98991 0.87434 0.42446 0.0
C746 C 0.96356 0.86538 0.42374 0.0
C747 C 0.9433 0.87952 0.46272 0.0
C748 C 0.95016 0.90329 0.50361 0.0
C749 C 0.97702 0.91252 0.50592 0.0
C750 C 0.99713 0.89766 0.46731 0.0
H751 H 0.67724 0.95966 0.35418 0.0
H752 H 0.7116 0.03697 0.34251 0.0
H753 H 0.68211 0.05035 0.46589 0.0
H754 H 0.61526 0.97358 0.37914 0.0
H755 H 0.60302 0.94993 0.45269 0.0
H756 H 0.63178 0.94436 0.38335 0.0
H757 H 0.65963 0.93785 0.51281 0.0
H758 H 0.63063 0.9426 0.58303 0.0
H759 H 0.66095 0.96186 0.59956 0.0
H760 H 0.64145 0.0573 0.55977 0.0
H761 H 0.59649 0.05638 0.6307 0.0
H762 H 0.5887 0.97422 0.58571 0.0
C763 C 0.67962 0.97903 0.38135 0.0
C764 C 0.69694 0.99724 0.34032 0.0
C765 C 0.69894 0.02267 0.37468 0.0
C766 C 0.68209 0.03043 0.44432 0.0
C767 C 0.66378 0.01237 0.47954 0.0
C768 C 0.66298 0.98697 0.45084 0.0
C769 C 0.63919 0.97208 0.49093 0.0
C770 C 0.62127 0.95926 0.42244 0.0
C771 C 0.64814 0.95244 0.55012 0.0
C772 C 0.62564 0.99335 0.54172 0.0
C773 C 0.64032 0.01639 0.53535 0.0
C774 C 0.63022 0.03927 0.56745 0.0
C775 C 0.60455 0.0386 0.60674 0.0
C776 C 0.58926 0.0152 0.61387 0.0
C777 C 0.60022 0.99228 0.58261 0.0
H778 H 0.50505 0.69773 0.3615 0.0
H779 H 0.58963 0.70851 0.3046 0.0
H780 H 0.59765 0.67726 0.41008 0.0
H781 H 0.50913 0.68186 0.60012 0.0
H782 H 0.48142 0.65871 0.58923 0.0
H783 H 0.48306 0.68736 0.53099 0.0
H784 H 0.47804 0.65959 0.39061 0.0
H785 H 0.47735 0.63088 0.44712 0.0
H786 H 0.50179 0.63609 0.36062 0.0
H787 H 0.59542 0.63664 0.48478 0.0
H788 H 0.58354 0.59447 0.54328 0.0
H789 H 0.50043 0.61078 0.55857 0.0
C790 C 0.52527 0.69483 0.37629 0.0
C791 C 0.54679 0.70594 0.32721 0.0
C792 C 0.57302 0.7008 0.34393 0.0
C793 C 0.5777 0.68285 0.40308 0.0
C794 C 0.5559 0.67064 0.44586 0.0
C795 C 0.53018 0.67704 0.43544 0.0
C796 C 0.51006 0.65874 0.47921 0.0
C797 C 0.49503 0.67249 0.55438 0.0
C798 C 0.4907 0.64556 0.41556 0.0
C799 C 0.52832 0.64004 0.51047 0.0
C800 C 0.5547 0.64733 0.49135 0.0
C801 C 0.57492 0.63124 0.50303 0.0
C802 C 0.56801 0.60724 0.53542 0.0
C803 C 0.54116 0.59968 0.55625 0.0
C804 C 0.52118 0.61646 0.54501 0.0
H805 H 0.84775 0.56542 0.22647 0.0
H806 H 0.78787 0.5168 0.35629 0.0
H807 H 0.81804 0.51337 0.47325 0.0
H808 H 0.89838 0.53035 0.25482 0.0
H809 H 0.9237 0.55573 0.27044 0.0
H810 H 0.89552 0.5608 0.2103 0.0
H811 H 0.88388 0.59972 0.31083 0.0
H812 H 0.91258 0.59538 0.37028 0.0
H813 H 0.8802 0.59636 0.42456 0.0
H814 H 0.85773 0.5069 0.55528 0.0
H815 H 0.90222 0.50163 0.60592 0.0
H816 H 0.93702 0.55448 0.42287 0.0
C817 C 0.84054 0.55523 0.28201 0.0
C818 C 0.81541 0.54168 0.28347 0.0
C819 C 0.80679 0.52778 0.35527 0.0
C820 C 0.82392 0.52558 0.42146 0.0
C821 C 0.84939 0.53765 0.41492 0.0
C822 C 0.85748 0.5527 0.34783 0.0
C823 C 0.88686 0.56073 0.34904 0.0
C824 C 0.90198 0.55133 0.26628 0.0
C825 C 0.89113 0.58978 0.36464 0.0
C826 C 0.89441 0.54691 0.42501 0.0
C827 C 0.87245 0.5339 0.46257 0.0
C828 C 0.87487 0.51758 0.52794 0.0
C829 C 0.90027 0.51456 0.5558 0.0
C830 C 0.92296 0.52787 0.51875 0.0
C831 C 0.91992 0.54447 0.45325 0.0
loop_
_geom_bond_atom_site_label_1
_geom_bond_atom_site_label_2
_geom_bond_distance
_geom_bond_site_symmetry_2
_ccdc_geom_bond_type
H0 C7 0.929 . S
H1 C10 0.930 1_556 S
H2 C12 0.929 . S
H3 C4 0.969 . S
C4 H3 0.969 . S
C4 O5 1.550 1_556 S
C4 H6 0.973 . S
O5 C4 1.550 1_554 S
O5 C11 1.412 . S
H6 C4 0.973 . S
C7 H0 0.929 . S
C7 C8 1.400 . S
C7 C9 1.364 . S
C8 C7 1.400 . S
C8 C12 1.377 . S
C9 C7 1.364 . S
C9 C10 1.374 . S
C10 H1 0.930 1_554 S
C10 C9 1.374 . S
C10 C11 1.383 . S
C11 O5 1.412 . S
C11 C10 1.383 . S
C11 C12 1.394 . S
C12 H2 0.929 . S
C12 C8 1.377 . S
C12 C11 1.394 . S
H13 C20 0.929 . S
H14 C23 0.930 . S
H15 C25 0.929 . S
H16 C17 0.969 . S
C17 H16 0.969 . S
C17 O18 1.550 1_556 S
C17 H19 0.973 . S
O18 C17 1.550 1_554 S
O18 C24 1.412 . S
H19 C17 0.973 . S
C20 H13 0.929 . S
C20 C21 1.400 . S
C20 C22 1.364 1_554 S
C21 C20 1.400 . S
C21 C25 1.377 . S
C22 C20 1.364 1_556 S
C22 C23 1.374 . S
C23 H14 0.930 . S
C23 C22 1.374 . S
C23 C24 1.383 1_556 S
C24 O18 1.412 . S
C24 C23 1.383 1_554 S
C24 C25 1.394 . S
C25 H15 0.929 . S
C25 C21 1.377 . S
C25 C24 1.394 . S
H26 C33 0.929 . S
H27 C36 0.930 1_556 S
H28 C38 0.929 . S
H29 C30 0.969 . S
C30 H29 0.969 . S
C30 O31 1.550 1_556 S
C30 H32 0.973 . S
O31 C30 1.550 1_554 S
O31 C37 1.412 . S
H32 C30 0.973 . S
C33 H26 0.929 . S
C33 C34 1.400 . S
C33 C35 1.364 . S
C34 C33 1.400 . S
C34 C38 1.377 . S
C35 C33 1.364 . S
C35 C36 1.374 . S
C36 H27 0.930 1_554 S
C36 C35 1.374 . S
C36 C37 1.383 . S
C37 O31 1.412 . S
C37 C36 1.383 . S
C37 C38 1.394 . S
C38 H28 0.929 . S
C38 C34 1.377 . S
C38 C37 1.394 . S
H39 C46 0.929 . S
H40 C49 0.930 1_556 S
H41 C51 0.929 . S
H42 C43 0.969 . S
C43 H42 0.969 . S
C43 O44 1.550 . S
C43 H45 0.973 1_554 S
O44 C43 1.550 . S
O44 C50 1.412 . S
H45 C43 0.973 1_556 S
C46 H39 0.929 . S
C46 C47 1.400 . S
C46 C48 1.364 . S
C47 C46 1.400 . S
C47 C51 1.377 . S
C48 C46 1.364 . S
C48 C49 1.374 . S
C49 H40 0.930 1_554 S
C49 C48 1.374 . S
C49 C50 1.383 . S
C50 O44 1.412 . S
C50 C49 1.383 . S
C50 C51 1.394 . S
C51 H41 0.929 . S
C51 C47 1.377 . S
C51 C50 1.394 . S
H52 C59 0.929 . S
H53 C62 0.930 . S
H54 C64 0.929 . S
H55 C56 0.969 . S
C56 H55 0.969 . S
C56 O57 1.550 . S
C56 H58 0.973 . S
O57 C56 1.550 . S
O57 C63 1.412 . S
H58 C56 0.973 . S
C59 H52 0.929 . S
C59 C60 1.400 . S
C59 C61 1.364 . S
C60 C59 1.400 . S
C60 C64 1.377 . S
C61 C59 1.364 . S
C61 C62 1.374 . S
C62 H53 0.930 . S
C62 C61 1.374 . S
C62 C63 1.383 . S
C63 O57 1.412 . S
C63 C62 1.383 . S
C63 C64 1.394 . S
C64 H54 0.929 . S
C64 C60 1.377 . S
C64 C63 1.394 . S
H65 C72 0.929 . S
H66 C75 0.930 . S
H67 C77 0.929 . S
H68 C69 0.969 . S
C69 H68 0.969 . S
C69 O70 1.550 . S
C69 H71 0.973 . S
O70 C69 1.550 . S
O70 C76 1.412 . S
H71 C69 0.973 . S
C72 H65 0.929 . S
C72 C73 1.400 . S
C72 C74 1.364 . S
C73 C72 1.400 . S
C73 C77 1.377 . S
C74 C72 1.364 . S
C74 C75 1.374 . S
C75 H66 0.930 . S
C75 C74 1.374 . S
C75 C76 1.383 . S
C76 O70 1.412 . S
C76 C75 1.383 . S
C76 C77 1.394 . S
C77 H67 0.929 . S
C77 C73 1.377 . S
C77 C76 1.394 . S
H78 C85 0.929 . S
H79 C88 0.930 . S
H80 C90 0.929 . S
H81 C82 0.969 . S
C82 H81 0.969 . S
C82 O83 1.550 . S
C82 H84 0.973 . S
O83 C82 1.550 . S
O83 C89 1.412 . S
H84 C82 0.973 . S
C85 H78 0.929 . S
C85 C86 1.400 . S
C85 C87 1.364 . S
C86 C85 1.400 . S
C86 C90 1.377 . S
C87 C85 1.364 . S
C87 C88 1.374 . S
C88 H79 0.930 . S
C88 C87 1.374 . S
C88 C89 1.383 . S
C89 O83 1.412 . S
C89 C88 1.383 . S
C89 C90 1.394 . S
C90 H80 0.929 . S
C90 C86 1.377 . S
C90 C89 1.394 . S
H91 C98 0.929 . S
H92 C101 0.930 . S
H93 C103 0.929 . S
H94 C95 0.969 . S
C95 H94 0.969 . S
C95 O96 1.550 . S
C95 H97 0.973 . S
O96 C95 1.550 . S
O96 C102 1.412 . S
H97 C95 0.973 . S
C98 H91 0.929 . S
C98 C99 1.400 . S
C98 C100 1.364 . S
C99 C98 1.400 . S
C99 C103 1.377 . S
C100 C98 1.364 . S
C100 C101 1.374 . S
C101 H92 0.930 . S
C101 C100 1.374 . S
C101 C102 1.383 . S
C102 O96 1.412 . S
C102 C101 1.383 . S
C102 C103 1.394 . S
C103 H93 0.929 . S
C103 C99 1.377 . S
C103 C102 1.394 . S
Tb104 O107 2.412 1_565 S
Tb104 O108 2.568 1_665 S
Tb104 O109 2.374 1_665 S
Tb104 O117 2.364 1_655 S
Tb104 O119 2.347 1_565 S
Tb104 O121 2.460 . S
Tb104 O122 2.550 1_655 S
C105 O109 1.251 . S
C105 O111 1.263 . S
Tb106 O108 2.343 . S
Tb106 O111 2.353 . S
Tb106 O114 2.427 . S
Tb106 O115 2.522 . S
Tb106 O116 2.453 1_545 S
Tb106 O117 2.596 1_545 S
Tb106 O118 2.374 1_455 S
O107 Tb104 2.412 1_545 S
O107 C123 1.245 1_655 S
O108 Tb104 2.568 1_445 S
O108 Tb106 2.343 . S
O108 C123 1.259 . S
O109 Tb104 2.374 1_445 S
O109 C105 1.251 . S
C110 O114 1.275 . S
C110 O115 1.269 . S
O111 C105 1.263 . S
O111 Tb106 2.353 . S
C112 O116 1.245 . S
C112 O117 1.259 . S
C113 O118 1.250 . S
C113 O119 1.263 . S
O114 Tb106 2.427 . S
O114 C110 1.275 . S
O115 Tb106 2.522 . S
O115 C110 1.269 . S
O116 Tb106 2.453 1_565 S
O116 C112 1.245 . S
O117 Tb104 2.364 1_455 S
O117 Tb106 2.596 1_565 S
O117 C112 1.259 . S
O118 Tb106 2.374 1_655 S
O118 C113 1.250 . S
O119 Tb104 2.347 1_545 S
O119 C113 1.263 . S
C120 O121 1.275 . S
C120 O122 1.246 1_655 S
O121 Tb104 2.460 . S
O121 C120 1.275 . S
O122 Tb104 2.550 1_455 S
O122 C120 1.246 1_455 S
C123 O107 1.245 1_455 S
C123 O108 1.259 . S
Tb124 O127 2.453 . S
Tb124 O128 2.596 1_545 S
Tb124 O129 2.374 . S
Tb124 O137 2.343 . S
Tb124 O139 2.353 . S
Tb124 O141 2.427 . S
Tb124 O142 2.513 . S
C125 O129 1.245 1_565 S
C125 O131 1.267 . S
Tb126 O128 2.343 . S
Tb126 O131 2.353 . S
Tb126 O134 2.427 . S
Tb126 O135 2.513 . S
Tb126 O136 2.453 . S
Tb126 O137 2.596 1_565 S
Tb126 O138 2.374 . S
O127 Tb124 2.453 . S
O127 C143 1.245 . S
O128 Tb124 2.596 1_565 S
O128 Tb126 2.343 . S
O128 C143 1.259 1_565 S
O129 Tb124 2.374 . S
O129 C125 1.245 1_545 S
C130 O134 1.275 . S
C130 O135 1.246 . S
O131 C125 1.267 . S
O131 Tb126 2.353 . S
C132 O136 1.245 1_545 S
C132 O137 1.259 . S
C133 O138 1.250 1_545 S
C133 O139 1.263 . S
O134 Tb126 2.427 . S
O134 C130 1.275 . S
O135 Tb126 2.513 . S
O135 C130 1.246 . S
O136 Tb126 2.453 . S
O136 C132 1.245 1_565 S
O137 Tb124 2.343 . S
O137 Tb126 2.596 1_545 S
O137 C132 1.259 . S
O138 Tb126 2.374 . S
O138 C133 1.250 1_565 S
O139 Tb124 2.353 . S
O139 C133 1.263 . S
C140 O141 1.275 . S
C140 O142 1.246 . S
O141 Tb124 2.427 . S
O141 C140 1.275 . S
O142 Tb124 2.513 . S
O142 C140 1.246 . S
C143 O127 1.245 . S
C143 O128 1.259 1_545 S
Tb144 O147 2.453 . S
Tb144 O148 2.596 . S
Tb144 O149 2.374 . S
Tb144 O157 2.343 . S
Tb144 O159 2.353 . S
Tb144 O161 2.427 . S
Tb144 O162 2.513 . S
C145 O149 1.251 . S
C145 O151 1.263 . S
Tb146 O148 2.343 . S
Tb146 O151 2.353 . S
Tb146 O154 2.427 . S
Tb146 O155 2.513 . S
Tb146 O156 2.453 . S
Tb146 O157 2.596 . S
Tb146 O158 2.374 . S
O147 Tb144 2.453 . S
O147 C163 1.245 . S
O148 Tb144 2.596 . S
O148 Tb146 2.343 . S
O148 C163 1.259 . S
O149 Tb144 2.374 . S
O149 C145 1.251 . S
C150 O154 1.275 . S
C150 O155 1.246 . S
O151 C145 1.263 . S
O151 Tb146 2.353 . S
C152 O156 1.245 . S
C152 O157 1.259 . S
C153 O158 1.250 . S
C153 O159 1.263 . S
O154 Tb146 2.427 . S
O154 C150 1.275 . S
O155 Tb146 2.513 . S
O155 C150 1.246 . S
O156 Tb146 2.453 . S
O156 C152 1.245 . S
O157 Tb144 2.343 . S
O157 Tb146 2.596 . S
O157 C152 1.259 . S
O158 Tb146 2.374 . S
O158 C153 1.250 . S
O159 Tb144 2.353 . S
O159 C153 1.263 . S
C160 O161 1.275 . S
C160 O162 1.246 . S
O161 Tb144 2.427 . S
O161 C160 1.275 . S
O162 Tb144 2.513 . S
O162 C160 1.246 . S
C163 O147 1.245 . S
C163 O148 1.259 . S
Tb164 O167 2.453 1_655 S
Tb164 O168 2.596 1_655 S
Tb164 O169 2.374 1_655 S
Tb164 O177 2.343 . S
Tb164 O179 2.353 1_655 S
Tb164 O181 2.427 . S
Tb164 O182 2.513 . S
C165 O169 1.251 . S
C165 O171 1.263 . S
Tb166 O168 2.343 . S
Tb166 O171 2.353 . S
Tb166 O174 2.427 . S
Tb166 O175 2.513 . S
Tb166 O176 2.453 1_455 S
Tb166 O177 2.596 1_455 S
Tb166 O178 2.374 . S
O167 Tb164 2.453 1_455 S
O167 C183 1.245 . S
O168 Tb164 2.596 1_455 S
O168 Tb166 2.343 . S
O168 C183 1.259 . S
O169 Tb164 2.374 1_455 S
O169 C165 1.251 . S
C170 O174 1.275 . S
C170 O175 1.246 . S
O171 C165 1.263 . S
O171 Tb166 2.353 . S
C172 O176 1.245 . S
C172 O177 1.259 . S
C173 O178 1.250 . S
C173 O179 1.263 . S
O174 Tb166 2.427 . S
O174 C170 1.275 . S
O175 Tb166 2.513 . S
O175 C170 1.246 . S
O176 Tb166 2.453 1_655 S
O176 C172 1.245 . S
O177 Tb164 2.343 . S
O177 Tb166 2.596 1_655 S
O177 C172 1.259 . S
O178 Tb166 2.374 . S
O178 C173 1.250 . S
O179 Tb164 2.353 1_455 S
O179 C173 1.263 . S
C180 O181 1.275 . S
C180 O182 1.246 . S
O181 Tb164 2.427 . S
O181 C180 1.275 . S
O182 Tb164 2.513 . S
O182 C180 1.246 . S
C183 O167 1.245 . S
C183 O168 1.259 . S
H184 C196 0.930 . S
H185 C198 0.930 . S
H186 C199 0.930 . S
H187 C203 0.959 . S
H188 C203 0.959 . S
H189 C203 0.961 . S
H190 C204 0.960 . S
H191 C204 0.961 . S
H192 C204 0.959 . S
H193 C207 0.929 . S
H194 C208 0.931 . S
H195 C210 0.930 . S
C196 H184 0.930 . S
C196 C197 1.399 . S
C196 C201 1.399 . S
C197 C196 1.399 . S
C197 C198 1.376 . S
C198 H185 0.930 . S
C198 C197 1.376 . S
C198 C199 1.388 . S
C199 H186 0.930 . S
C199 C198 1.388 . S
C199 C200 1.390 . S
C200 C199 1.390 . S
C200 C201 1.394 . S
C200 C206 1.465 . S
C201 C196 1.399 . S
C201 C200 1.394 . S
C201 C202 1.516 . S
C202 C201 1.516 . S
C202 C203 1.502 . S
C202 C204 1.561 . S
C202 C205 1.526 . S
C203 H187 0.959 . S
C203 H188 0.959 . S
C203 H189 0.961 . S
C203 C202 1.502 . S
C204 H190 0.960 . S
C204 H191 0.961 . S
C204 H192 0.959 . S
C204 C202 1.561 . S
C205 C202 1.526 . S
C205 C206 1.396 . S
C205 C210 1.390 . S
C206 C200 1.465 . S
C206 C205 1.396 . S
C206 C207 1.399 . S
C207 H193 0.929 . S
C207 C206 1.399 . S
C207 C208 1.385 . S
C208 H194 0.931 . S
C208 C207 1.385 . S
C208 C209 1.389 . S
C209 C208 1.389 . S
C209 C210 1.387 . S
C210 H195 0.930 . S
C210 C205 1.390 . S
C210 C209 1.387 . S
H211 C223 0.930 . S
H212 C225 0.930 . S
H213 C226 0.930 . S
H214 C230 0.959 . S
H215 C230 0.959 . S
H216 C230 0.961 . S
H217 C231 0.960 . S
H218 C231 0.961 . S
H219 C231 0.959 . S
H220 C234 0.929 . S
H221 C235 0.931 . S
H222 C237 0.930 . S
C223 H211 0.930 . S
C223 C224 1.399 . S
C223 C228 1.399 . S
C224 C223 1.399 . S
C224 C225 1.376 . S
C225 H212 0.930 . S
C225 C224 1.376 . S
C225 C226 1.388 . S
C226 H213 0.930 . S
C226 C225 1.388 . S
C226 C227 1.390 . S
C227 C226 1.390 . S
C227 C228 1.394 . S
C227 C233 1.465 . S
C228 C223 1.399 . S
C228 C227 1.394 . S
C228 C229 1.516 . S
C229 C228 1.516 . S
C229 C230 1.502 . S
C229 C231 1.561 . S
C229 C232 1.526 . S
C230 H214 0.959 . S
C230 H215 0.959 . S
C230 H216 0.961 . S
C230 C229 1.502 . S
C231 H217 0.960 . S
C231 H218 0.961 . S
C231 H219 0.959 . S
C231 C229 1.561 . S
C232 C229 1.526 . S
C232 C233 1.396 . S
C232 C237 1.390 . S
C233 C227 1.465 . S
C233 C232 1.396 . S
C233 C234 1.399 . S
C234 H220 0.929 . S
C234 C233 1.399 . S
C234 C235 1.385 . S
C235 H221 0.931 . S
C235 C234 1.385 . S
C235 C236 1.389 . S
C236 C235 1.389 . S
C236 C237 1.387 . S
C237 H222 0.930 . S
C237 C232 1.390 . S
C237 C236 1.387 . S
H238 C250 0.930 . S
H239 C252 0.930 . S
H240 C253 0.930 . S
H241 C257 0.959 . S
H242 C257 0.959 . S
H243 C257 0.961 . S
H244 C258 0.960 . S
H245 C258 0.961 . S
H246 C258 0.959 . S
H247 C261 0.929 . S
H248 C262 0.931 . S
H249 C264 0.930 . S
C250 H238 0.930 . S
C250 C251 1.399 . S
C250 C255 1.399 . S
C251 C250 1.399 . S
C251 C252 1.376 . S
C252 H239 0.930 . S
C252 C251 1.376 . S
C252 C253 1.388 . S
C253 H240 0.930 . S
C253 C252 1.388 . S
C253 C254 1.390 . S
C254 C253 1.390 . S
C254 C255 1.394 . S
C254 C260 1.465 . S
C255 C250 1.399 . S
C255 C254 1.394 . S
C255 C256 1.516 . S
C256 C255 1.516 . S
C256 C257 1.502 . S
C256 C258 1.561 . S
C256 C259 1.526 . S
C257 H241 0.959 . S
C257 H242 0.959 . S
C257 H243 0.961 . S
C257 C256 1.502 . S
C258 H244 0.960 . S
C258 H245 0.961 . S
C258 H246 0.959 . S
C258 C256 1.561 . S
C259 C256 1.526 . S
C259 C260 1.396 . S
C259 C264 1.390 . S
C260 C254 1.465 . S
C260 C259 1.396 . S
C260 C261 1.399 . S
C261 H247 0.929 . S
C261 C260 1.399 . S
C261 C262 1.385 . S
C262 H248 0.931 . S
C262 C261 1.385 . S
C262 C263 1.389 . S
C263 C262 1.389 . S
C263 C264 1.387 . S
C264 H249 0.930 . S
C264 C259 1.390 . S
C264 C263 1.387 . S
H265 C277 0.930 . S
H266 C279 0.930 . S
H267 C280 0.930 . S
H268 C284 0.959 . S
H269 C284 0.959 . S
H270 C284 0.961 . S
H271 C285 0.960 . S
H272 C285 0.961 . S
H273 C285 0.959 . S
H274 C288 0.929 . S
H275 C289 0.931 . S
H276 C291 0.900 1_655 S
C277 H265 0.930 . S
C277 C278 1.399 . S
C277 C282 1.399 . S
C278 C277 1.399 . S
C278 C279 1.376 . S
C279 H266 0.930 . S
C279 C278 1.376 . S
C279 C280 1.388 . S
C280 H267 0.930 . S
C280 C279 1.388 . S
C280 C281 1.390 . S
C281 C280 1.390 . S
C281 C282 1.394 . S
C281 C287 1.465 . S
C282 C277 1.399 . S
C282 C281 1.394 . S
C282 C283 1.516 . S
C283 C282 1.516 . S
C283 C284 1.502 1_455 S
C283 C285 1.561 . S
C283 C286 1.526 . S
C284 H268 0.959 . S
C284 H269 0.959 . S
C284 H270 0.961 . S
C284 C283 1.502 1_655 S
C285 H271 0.960 . S
C285 H272 0.961 . S
C285 H273 0.959 . S
C285 C283 1.561 . S
C286 C283 1.526 . S
C286 C287 1.396 . S
C286 C291 1.390 . S
C287 C281 1.465 . S
C287 C286 1.396 . S
C287 C288 1.399 . S
C288 H274 0.929 . S
C288 C287 1.399 . S
C288 C289 1.385 . S
C289 H275 0.931 . S
C289 C288 1.385 . S
C289 C290 1.389 . S
C290 C289 1.389 . S
C290 C291 1.387 . S
C291 H276 0.900 1_455 S
C291 C286 1.390 . S
C291 C290 1.387 . S
H292 C304 0.930 1_545 S
H293 C306 0.930 1_554 S
H294 C307 0.930 . S
H295 C311 0.959 . S
H296 C311 0.959 . S
H297 C311 0.961 . S
H298 C312 0.960 . S
H299 C312 0.961 . S
H300 C312 0.959 1_554 S
H301 C315 0.929 . S
H302 C316 0.931 . S
H303 C318 0.930 . S
C304 H292 0.930 1_565 S
C304 C305 1.399 . S
C304 C309 1.399 . S
C305 C304 1.399 . S
C305 C306 1.376 . S
C306 H293 0.930 1_556 S
C306 C305 1.376 . S
C306 C307 1.388 . S
C307 H294 0.930 . S
C307 C306 1.388 . S
C307 C308 1.390 . S
C308 C307 1.390 . S
C308 C309 1.394 . S
C308 C314 1.465 . S
C309 C304 1.399 . S
C309 C308 1.394 . S
C309 C310 1.516 1_565 S
C310 C309 1.516 1_545 S
C310 C311 1.502 . S
C310 C312 1.561 . S
C310 C313 1.505 1_545 S
C311 H295 0.959 . S
C311 H296 0.959 . S
C311 H297 0.961 . S
C311 C310 1.502 . S
C312 H298 0.960 . S
C312 H299 0.961 . S
C312 H300 0.959 1_556 S
C312 C310 1.561 . S
C313 C310 1.505 1_565 S
C313 C314 1.438 . S
C313 C318 1.374 1_565 S
C314 C308 1.465 . S
C314 C313 1.438 . S
C314 C315 1.399 . S
C315 H301 0.929 . S
C315 C314 1.399 . S
C315 C316 1.385 . S
C316 H302 0.931 . S
C316 C315 1.385 . S
C316 C317 1.389 . S
C317 C316 1.389 . S
C317 C318 1.387 1_565 S
C318 H303 0.930 . S
C318 C313 1.374 1_545 S
C318 C317 1.387 1_545 S
H319 C331 0.930 . S
H320 C333 0.930 . S
H321 C334 0.930 . S
H322 C338 0.959 1_556 S
H323 C338 0.959 . S
H324 C338 0.961 . S
H325 C339 0.960 . S
H326 C339 0.961 . S
H327 C339 0.959 . S
H328 C342 0.929 . S
H329 C343 0.931 . S
H330 C345 0.930 . S
C331 H319 0.930 . S
C331 C332 1.399 . S
C331 C336 1.399 1_554 S
C332 C331 1.399 . S
C332 C333 1.376 1_554 S
C333 H320 0.930 . S
C333 C332 1.376 1_556 S
C333 C334 1.388 . S
C334 H321 0.930 . S
C334 C333 1.388 . S
C334 C335 1.390 . S
C335 C334 1.390 . S
C335 C336 1.394 . S
C335 C341 1.465 . S
C336 C331 1.399 1_556 S
C336 C335 1.394 . S
C336 C337 1.516 1_556 S
C337 C336 1.516 1_554 S
C337 C338 1.502 . S
C337 C339 1.561 . S
C337 C340 1.526 1_554 S
C338 H322 0.959 1_554 S
C338 H323 0.959 . S
C338 H324 0.961 . S
C338 C337 1.502 . S
C339 H325 0.960 . S
C339 H326 0.961 . S
C339 H327 0.959 . S
C339 C337 1.561 . S
C340 C337 1.526 1_556 S
C340 C341 1.396 . S
C340 C345 1.390 . S
C341 C335 1.465 . S
C341 C340 1.396 . S
C341 C342 1.399 . S
C342 H328 0.929 . S
C342 C341 1.399 . S
C342 C343 1.385 . S
C343 H329 0.931 . S
C343 C342 1.385 . S
C343 C344 1.389 . S
C344 C343 1.389 . S
C344 C345 1.387 . S
C345 H330 0.930 . S
C345 C340 1.390 . S
C345 C344 1.387 . S
H346 C358 0.930 . S
H347 C360 0.930 . S
H348 C361 0.930 . S
H349 C365 0.959 . S
H350 C365 0.959 . S
H351 C365 0.961 . S
H352 C366 0.960 . S
H353 C366 0.961 . S
H354 C366 0.959 . S
H355 C369 0.929 . S
H356 C370 0.931 . S
H357 C372 0.930 . S
C358 H346 0.930 . S
C358 C359 1.399 . S
C358 C363 1.399 . S
C359 C358 1.399 . S
C359 C360 1.376 . S
C360 H347 0.930 . S
C360 C359 1.376 . S
C360 C361 1.388 . S
C361 H348 0.930 . S
C361 C360 1.388 . S
C361 C362 1.390 . S
C362 C361 1.390 . S
C362 C363 1.394 . S
C362 C368 1.465 . S
C363 C358 1.399 . S
C363 C362 1.394 . S
C363 C364 1.516 . S
C364 C363 1.516 . S
C364 C365 1.502 . S
C364 C366 1.561 . S
C364 C367 1.526 . S
C365 H349 0.959 . S
C365 H350 0.959 . S
C365 H351 0.961 . S
C365 C364 1.502 . S
C366 H352 0.960 . S
C366 H353 0.961 . S
C366 H354 0.959 . S
C366 C364 1.561 . S
C367 C364 1.526 . S
C367 C368 1.396 . S
C367 C372 1.390 . S
C368 C362 1.465 . S
C368 C367 1.396 . S
C368 C369 1.399 . S
C369 H355 0.929 . S
C369 C368 1.399 . S
C369 C370 1.385 . S
C370 H356 0.931 . S
C370 C369 1.385 . S
C370 C371 1.389 . S
C371 C370 1.389 . S
C371 C372 1.387 . S
C372 H357 0.930 . S
C372 C367 1.390 . S
C372 C371 1.387 . S
H373 C385 0.923 1_554 S
H374 C387 0.930 . S
H375 C388 0.918 1_455 S
H376 C392 0.959 . S
H377 C392 0.959 . S
H378 C392 0.961 . S
H379 C393 0.960 . S
H380 C393 0.961 . S
H381 C393 0.959 . S
H382 C396 0.929 . S
H383 C397 0.931 . S
H384 C399 0.930 . S
C385 H373 0.923 1_556 S
C385 C386 1.399 . S
C385 C390 1.399 . S
C386 C385 1.399 . S
C386 C387 1.376 . S
C387 H374 0.930 . S
C387 C386 1.376 . S
C387 C388 1.388 . S
C388 H375 0.918 1_655 S
C388 C387 1.388 . S
C388 C389 1.390 . S
C389 C388 1.390 . S
C389 C390 1.394 . S
C389 C395 1.465 . S
C390 C385 1.399 . S
C390 C389 1.394 . S
C390 C391 1.516 . S
C391 C390 1.516 . S
C391 C392 1.502 1_556 S
C391 C393 1.561 . S
C391 C394 1.526 . S
C392 H376 0.959 . S
C392 H377 0.959 . S
C392 H378 0.961 . S
C392 C391 1.502 1_554 S
C393 H379 0.960 . S
C393 H380 0.961 . S
C393 H381 0.959 . S
C393 C391 1.561 . S
C394 C391 1.526 . S
C394 C395 1.396 . S
C394 C399 1.390 . S
C395 C389 1.465 . S
C395 C394 1.396 . S
C395 C396 1.399 1_655 S
C396 H382 0.929 . S
C396 C395 1.399 1_455 S
C396 C397 1.385 . S
C397 H383 0.931 . S
C397 C396 1.385 . S
C397 C398 1.389 1_455 S
C398 C397 1.389 1_655 S
C398 C399 1.387 . S
C399 H384 0.930 . S
C399 C394 1.390 . S
C399 C398 1.387 . S
H400 C412 0.930 . S
H401 C414 0.930 . S
H402 C415 0.930 . S
H403 C419 0.959 1_655 S
H404 C419 0.959 1_655 S
H405 C419 0.961 . S
H406 C420 0.960 . S
H407 C420 0.961 . S
H408 C420 0.959 . S
H409 C423 0.929 . S
H410 C424 0.931 . S
H411 C426 0.930 . S
C412 H400 0.930 . S
C412 C413 1.399 . S
C412 C417 1.399 . S
C413 C412 1.399 . S
C413 C414 1.376 . S
C414 H401 0.930 . S
C414 C413 1.376 . S
C414 C415 1.388 . S
C415 H402 0.930 . S
C415 C414 1.388 . S
C415 C416 1.390 . S
C416 C415 1.390 . S
C416 C417 1.394 . S
C416 C422 1.465 . S
C417 C412 1.399 . S
C417 C416 1.394 . S
C417 C418 1.516 . S
C418 C417 1.516 . S
C418 C419 1.502 . S
C418 C420 1.561 . S
C418 C421 1.526 . S
C419 H403 0.959 1_455 S
C419 H404 0.959 1_455 S
C419 H405 0.961 . S
C419 C418 1.502 . S
C420 H406 0.960 . S
C420 H407 0.961 . S
C420 H408 0.959 . S
C420 C418 1.561 . S
C421 C418 1.526 . S
C421 C422 1.396 . S
C421 C426 1.390 . S
C422 C416 1.465 . S
C422 C421 1.396 . S
C422 C423 1.399 . S
C423 H409 0.929 . S
C423 C422 1.399 . S
C423 C424 1.385 . S
C424 H410 0.931 . S
C424 C423 1.385 . S
C424 C425 1.389 . S
C425 C424 1.389 . S
C425 C426 1.387 . S
C426 H411 0.930 . S
C426 C421 1.390 . S
C426 C425 1.387 . S
H427 C439 0.930 . S
H428 C441 0.930 . S
H429 C442 0.930 . S
H430 C446 0.959 . S
H431 C446 0.959 1_565 S
H432 C446 0.966 . S
H433 C447 0.960 . S
H434 C447 0.961 . S
H435 C447 0.959 . S
H436 C450 0.929 . S
H437 C451 0.931 . S
H438 C453 0.930 1_565 S
C439 H427 0.930 . S
C439 C440 1.399 . S
C439 C444 1.399 . S
C440 C439 1.399 . S
C440 C441 1.376 . S
C441 H428 0.930 . S
C441 C440 1.376 . S
C441 C442 1.388 . S
C442 H429 0.930 . S
C442 C441 1.388 . S
C442 C443 1.390 . S
C443 C442 1.390 . S
C443 C444 1.394 . S
C443 C449 1.465 . S
C444 C439 1.399 . S
C444 C443 1.394 . S
C444 C445 1.516 . S
C445 C444 1.516 . S
C445 C446 1.502 . S
C445 C447 1.561 1_545 S
C445 C448 1.526 . S
C446 H430 0.959 . S
C446 H431 0.959 1_545 S
C446 H432 0.966 . S
C446 C445 1.502 . S
C447 H433 0.960 . S
C447 H434 0.961 . S
C447 H435 0.959 . S
C447 C445 1.561 1_565 S
C448 C445 1.526 . S
C448 C449 1.396 . S
C448 C453 1.390 . S
C449 C443 1.465 . S
C449 C448 1.396 . S
C449 C450 1.399 . S
C450 H436 0.929 . S
C450 C449 1.399 . S
C450 C451 1.385 . S
C451 H437 0.931 . S
C451 C450 1.385 . S
C451 C452 1.389 . S
C452 C451 1.389 . S
C452 C453 1.387 . S
C453 H438 0.930 1_545 S
C453 C448 1.390 . S
C453 C452 1.387 . S
H454 C466 0.930 . S
H455 C468 0.930 . S
H456 C469 0.930 . S
H457 C473 0.959 . S
H458 C473 0.959 . S
H459 C473 0.961 . S
H460 C474 0.960 . S
H461 C474 0.961 . S
H462 C474 0.959 . S
H463 C477 0.929 . S
H464 C478 0.931 . S
H465 C480 0.930 . S
C466 H454 0.930 . S
C466 C467 1.399 . S
C466 C471 1.399 . S
C467 C466 1.399 . S
C467 C468 1.376 . S
C468 H455 0.930 . S
C468 C467 1.376 . S
C468 C469 1.388 . S
C469 H456 0.930 . S
C469 C468 1.388 . S
C469 C470 1.390 . S
C470 C469 1.390 . S
C470 C471 1.394 . S
C470 C476 1.465 . S
C471 C466 1.399 . S
C471 C470 1.394 . S
C471 C472 1.516 . S
C472 C471 1.516 . S
C472 C473 1.502 . S
C472 C474 1.561 . S
C472 C475 1.526 . S
C473 H457 0.959 . S
C473 H458 0.959 . S
C473 H459 0.961 . S
C473 C472 1.502 . S
C474 H460 0.960 . S
C474 H461 0.961 . S
C474 H462 0.959 . S
C474 C472 1.561 . S
C475 C472 1.526 . S
C475 C476 1.396 . S
C475 C480 1.390 . S
C476 C470 1.465 . S
C476 C475 1.396 . S
C476 C477 1.399 . S
C477 H463 0.929 . S
C477 C476 1.399 . S
C477 C478 1.385 . S
C478 H464 0.931 . S
C478 C477 1.385 . S
C478 C479 1.389 . S
C479 C478 1.389 . S
C479 C480 1.387 . S
C480 H465 0.930 . S
C480 C475 1.390 . S
C480 C479 1.387 . S
H481 C493 0.930 . S
H482 C495 0.930 . S
H483 C496 0.930 . S
H484 C500 0.959 . S
H485 C500 0.959 . S
H486 C500 0.961 . S
H487 C501 0.960 . S
H488 C501 0.961 . S
H489 C501 0.959 . S
H490 C504 0.929 . S
H491 C505 0.931 . S
H492 C507 0.930 . S
C493 H481 0.930 . S
C493 C494 1.399 . S
C493 C498 1.399 . S
C494 C493 1.399 . S
C494 C495 1.376 . S
C495 H482 0.930 . S
C495 C494 1.376 . S
C495 C496 1.388 . S
C496 H483 0.930 . S
C496 C495 1.388 . S
C496 C497 1.390 . S
C497 C496 1.390 . S
C497 C498 1.394 . S
C497 C503 1.465 . S
C498 C493 1.399 . S
C498 C497 1.394 . S
C498 C499 1.516 . S
C499 C498 1.516 . S
C499 C500 1.502 . S
C499 C501 1.561 . S
C499 C502 1.526 . S
C500 H484 0.959 . S
C500 H485 0.959 . S
C500 H486 0.961 . S
C500 C499 1.502 . S
C501 H487 0.960 . S
C501 H488 0.961 . S
C501 H489 0.959 . S
C501 C499 1.561 . S
C502 C499 1.526 . S
C502 C503 1.396 . S
C502 C507 1.390 . S
C503 C497 1.465 . S
C503 C502 1.396 . S
C503 C504 1.399 . S
C504 H490 0.929 . S
C504 C503 1.399 . S
C504 C505 1.385 . S
C505 H491 0.931 . S
C505 C504 1.385 . S
C505 C506 1.389 . S
C506 C505 1.389 . S
C506 C507 1.387 . S
C507 H492 0.930 . S
C507 C502 1.390 . S
C507 C506 1.387 . S
H508 C520 0.930 . S
H509 C522 0.930 1_554 S
H510 C523 0.930 1_554 S
H511 C527 0.959 1_455 S
H512 C527 0.959 1_455 S
H513 C527 0.961 . S
H514 C528 0.960 . S
H515 C528 0.961 . S
H516 C528 0.959 . S
H517 C531 0.929 . S
H518 C532 0.931 . S
H519 C534 0.930 . S
C520 H508 0.930 . S
C520 C521 1.399 . S
C520 C525 1.399 . S
C521 C520 1.399 . S
C521 C522 1.376 . S
C522 H509 0.930 1_556 S
C522 C521 1.376 . S
C522 C523 1.388 . S
C523 H510 0.930 1_556 S
C523 C522 1.388 . S
C523 C524 1.390 . S
C524 C523 1.390 . S
C524 C525 1.394 . S
C524 C530 1.465 . S
C525 C520 1.399 . S
C525 C524 1.394 . S
C525 C526 1.516 . S
C526 C525 1.516 . S
C526 C527 1.502 . S
C526 C528 1.561 . S
C526 C529 1.526 . S
C527 H511 0.959 1_655 S
C527 H512 0.959 1_655 S
C527 H513 0.961 . S
C527 C526 1.502 . S
C528 H514 0.960 . S
C528 H515 0.961 . S
C528 H516 0.959 . S
C528 C526 1.561 . S
C529 C526 1.526 . S
C529 C530 1.396 . S
C529 C534 1.390 . S
C530 C524 1.465 . S
C530 C529 1.396 . S
C530 C531 1.399 . S
C531 H517 0.929 . S
C531 C530 1.399 . S
C531 C532 1.385 . S
C532 H518 0.931 . S
C532 C531 1.385 . S
C532 C533 1.389 . S
C533 C532 1.389 . S
C533 C534 1.387 . S
C534 H519 0.930 . S
C534 C529 1.390 . S
C534 C533 1.387 . S
H535 C547 0.922 1_545 S
H536 C549 0.930 . S
H537 C550 0.930 . S
H538 C554 0.959 . S
H539 C554 0.959 . S
H540 C554 0.961 . S
H541 C555 0.960 . S
H542 C555 0.961 . S
H543 C555 0.959 1_565 S
H544 C558 0.929 . S
H545 C559 0.931 . S
H546 C561 0.930 . S
C547 H535 0.922 1_565 S
C547 C548 1.399 . S
C547 C552 1.399 . S
C548 C547 1.399 . S
C548 C549 1.376 . S
C549 H536 0.930 . S
C549 C548 1.376 . S
C549 C550 1.388 . S
C550 H537 0.930 . S
C550 C549 1.388 . S
C550 C551 1.390 . S
C551 C550 1.390 . S
C551 C552 1.394 . S
C551 C557 1.465 . S
C552 C547 1.399 . S
C552 C551 1.394 . S
C552 C553 1.516 1_565 S
C553 C552 1.516 1_545 S
C553 C554 1.502 . S
C553 C555 1.561 . S
C553 C556 1.526 1_545 S
C554 H538 0.959 . S
C554 H539 0.959 . S
C554 H540 0.961 . S
C554 C553 1.502 . S
C555 H541 0.960 . S
C555 H542 0.961 . S
C555 H543 0.959 1_545 S
C555 C553 1.561 . S
C556 C553 1.526 1_565 S
C556 C557 1.396 . S
C556 C561 1.390 1_565 S
C557 C551 1.465 . S
C557 C556 1.396 . S
C557 C558 1.399 . S
C558 H544 0.929 . S
C558 C557 1.399 . S
C558 C559 1.385 . S
C559 H545 0.931 . S
C559 C558 1.385 . S
C559 C560 1.389 . S
C560 C559 1.389 . S
C560 C561 1.387 1_565 S
C561 H546 0.930 . S
C561 C556 1.390 1_545 S
C561 C560 1.387 1_545 S
H562 C574 0.930 1_554 S
H563 C576 0.930 . S
H564 C577 0.930 . S
H565 C581 0.959 . S
H566 C581 0.959 . S
H567 C581 0.961 1_554 S
H568 C582 0.960 . S
H569 C582 0.961 . S
H570 C582 0.959 . S
H571 C585 0.929 . S
H572 C586 0.931 . S
H573 C588 0.930 . S
C574 H562 0.930 1_556 S
C574 C575 1.399 . S
C574 C579 1.399 . S
C575 C574 1.399 . S
C575 C576 1.376 . S
C576 H563 0.930 . S
C576 C575 1.376 . S
C576 C577 1.388 . S
C577 H564 0.930 . S
C577 C576 1.388 . S
C577 C578 1.390 . S
C578 C577 1.390 . S
C578 C579 1.394 . S
C578 C584 1.465 . S
C579 C574 1.399 . S
C579 C578 1.394 . S
C579 C580 1.516 . S
C580 C579 1.516 . S
C580 C581 1.502 . S
C580 C582 1.561 1_556 S
C580 C583 1.526 . S
C581 H565 0.959 . S
C581 H566 0.959 . S
C581 H567 0.961 1_556 S
C581 C580 1.502 . S
C582 H568 0.960 . S
C582 H569 0.961 . S
C582 H570 0.959 . S
C582 C580 1.561 1_554 S
C583 C580 1.526 . S
C583 C584 1.396 . S
C583 C588 1.390 . S
C584 C578 1.465 . S
C584 C583 1.396 . S
C584 C585 1.399 . S
C585 H571 0.929 . S
C585 C584 1.399 . S
C585 C586 1.385 . S
C586 H572 0.931 . S
C586 C585 1.385 . S
C586 C587 1.389 . S
C587 C586 1.389 . S
C587 C588 1.387 . S
C588 H573 0.930 . S
C588 C583 1.390 . S
C588 C587 1.387 . S
H589 C601 0.930 1_554 S
H590 C603 0.930 . S
H591 C604 0.930 . S
H592 C608 0.959 . S
H593 C608 0.959 . S
H594 C608 0.961 . S
H595 C609 0.960 . S
H596 C609 0.961 . S
H597 C609 0.959 . S
H598 C612 0.929 . S
H599 C613 0.931 . S
H600 C615 0.930 . S
C601 H589 0.930 1_556 S
C601 C602 1.399 . S
C601 C606 1.399 . S
C602 C601 1.399 . S
C602 C603 1.376 . S
C603 H590 0.930 . S
C603 C602 1.376 . S
C603 C604 1.388 . S
C604 H591 0.930 . S
C604 C603 1.388 . S
C604 C605 1.390 . S
C605 C604 1.390 . S
C605 C606 1.394 . S
C605 C611 1.465 . S
C606 C601 1.399 . S
C606 C605 1.394 . S
C606 C607 1.516 . S
C607 C606 1.516 . S
C607 C608 1.502 1_556 S
C607 C609 1.561 . S
C607 C610 1.526 . S
C608 H592 0.959 . S
C608 H593 0.959 . S
C608 H594 0.961 . S
C608 C607 1.502 1_554 S
C609 H595 0.960 . S
C609 H596 0.961 . S
C609 H597 0.959 . S
C609 C607 1.561 . S
C610 C607 1.526 . S
C610 C611 1.396 . S
C610 C615 1.390 . S
C611 C605 1.465 . S
C611 C610 1.396 . S
C611 C612 1.399 . S
C612 H598 0.929 . S
C612 C611 1.399 . S
C612 C613 1.385 . S
C613 H599 0.931 . S
C613 C612 1.385 . S
C613 C614 1.389 . S
C614 C613 1.389 . S
C614 C615 1.387 . S
C615 H600 0.930 . S
C615 C610 1.390 . S
C615 C614 1.387 . S
H616 C628 0.930 . S
H617 C630 0.930 . S
H618 C631 0.930 1_655 S
H619 C635 0.959 . S
H620 C635 0.959 . S
H621 C635 0.961 1_554 S
H622 C636 0.960 . S
H623 C636 0.961 . S
H624 C636 0.959 . S
H625 C639 0.929 1_655 S
H626 C640 0.931 1_655 S
H627 C642 0.930 . S
C628 H616 0.930 . S
C628 C629 1.399 . S
C628 C633 1.399 . S
C629 C628 1.399 . S
C629 C630 1.376 . S
C630 H617 0.930 . S
C630 C629 1.376 . S
C630 C631 1.388 . S
C631 H618 0.930 1_455 S
C631 C630 1.388 . S
C631 C632 1.390 . S
C632 C631 1.390 . S
C632 C633 1.394 . S
C632 C638 1.465 . S
C633 C628 1.399 . S
C633 C632 1.394 . S
C633 C634 1.516 . S
C634 C633 1.516 . S
C634 C635 1.502 1_554 S
C634 C636 1.561 . S
C634 C637 1.526 . S
C635 H619 0.959 . S
C635 H620 0.959 . S
C635 H621 0.961 1_556 S
C635 C634 1.502 1_556 S
C636 H622 0.960 . S
C636 H623 0.961 . S
C636 H624 0.959 . S
C636 C634 1.561 . S
C637 C634 1.526 . S
C637 C638 1.396 . S
C637 C642 1.390 1_554 S
C638 C632 1.465 . S
C638 C637 1.396 . S
C638 C639 1.399 . S
C639 H625 0.929 1_455 S
C639 C638 1.399 . S
C639 C640 1.385 1_554 S
C640 H626 0.931 1_455 S
C640 C639 1.385 1_556 S
C640 C641 1.389 . S
C641 C640 1.389 . S
C641 C642 1.387 . S
C642 H627 0.930 . S
C642 C637 1.390 1_556 S
C642 C641 1.387 . S
H643 C655 0.930 . S
H644 C657 0.930 . S
H645 C658 0.930 . S
H646 C662 0.959 1_554 S
H647 C662 0.959 . S
H648 C662 0.961 1_554 S
H649 C663 0.960 . S
H650 C663 0.961 . S
H651 C663 0.959 . S
H652 C666 0.929 . S
H653 C667 0.931 . S
H654 C669 0.927 1_565 S
C655 H643 0.930 . S
C655 C656 1.399 . S
C655 C660 1.399 . S
C656 C655 1.399 . S
C656 C657 1.376 . S
C657 H644 0.930 . S
C657 C656 1.376 . S
C657 C658 1.388 . S
C658 H645 0.930 . S
C658 C657 1.388 . S
C658 C659 1.390 . S
C659 C658 1.390 . S
C659 C660 1.394 . S
C659 C665 1.465 . S
C660 C655 1.399 . S
C660 C659 1.394 . S
C660 C661 1.516 1_554 S
C661 C660 1.516 1_556 S
C661 C662 1.502 1_545 S
C661 C663 1.561 . S
C661 C664 1.526 . S
C662 H646 0.959 1_556 S
C662 H647 0.959 . S
C662 H648 0.961 1_556 S
C662 C661 1.502 1_565 S
C663 H649 0.960 . S
C663 H650 0.961 . S
C663 H651 0.959 . S
C663 C661 1.561 . S
C664 C661 1.526 . S
C664 C665 1.396 1_556 S
C664 C669 1.390 . S
C665 C659 1.465 . S
C665 C664 1.396 1_554 S
C665 C666 1.399 . S
C666 H652 0.929 . S
C666 C665 1.399 . S
C666 C667 1.385 1_554 S
C667 H653 0.931 . S
C667 C666 1.385 1_556 S
C667 C668 1.389 . S
C668 C667 1.389 . S
C668 C669 1.387 . S
C669 H654 0.927 1_545 S
C669 C664 1.390 . S
C669 C668 1.387 . S
H670 C682 0.930 . S
H671 C684 0.930 . S
H672 C685 0.930 . S
H673 C689 0.959 . S
H674 C689 0.959 . S
H675 C689 0.961 . S
H676 C690 0.960 . S
H677 C690 0.961 1_556 S
H678 C690 0.959 . S
H679 C693 0.929 . S
H680 C694 0.931 . S
H681 C696 0.930 . S
C682 H670 0.930 . S
C682 C683 1.399 . S
C682 C687 1.399 . S
C683 C682 1.399 . S
C683 C684 1.376 . S
C684 H671 0.930 . S
C684 C683 1.376 . S
C684 C685 1.388 . S
C685 H672 0.930 . S
C685 C684 1.388 . S
C685 C686 1.390 . S
C686 C685 1.390 . S
C686 C687 1.394 . S
C686 C692 1.465 . S
C687 C682 1.399 . S
C687 C686 1.394 . S
C687 C688 1.516 1_554 S
C688 C687 1.516 1_556 S
C688 C689 1.502 . S
C688 C690 1.561 1_556 S
C688 C691 1.526 . S
C689 H673 0.959 . S
C689 H674 0.959 . S
C689 H675 0.961 . S
C689 C688 1.502 . S
C690 H676 0.960 . S
C690 H677 0.961 1_554 S
C690 H678 0.959 . S
C690 C688 1.561 1_554 S
C691 C688 1.526 . S
C691 C692 1.396 1_556 S
C691 C696 1.390 . S
C692 C686 1.465 . S
C692 C691 1.396 1_554 S
C692 C693 1.399 . S
C693 H679 0.929 . S
C693 C692 1.399 . S
C693 C694 1.385 1_554 S
C694 H680 0.931 . S
C694 C693 1.385 1_556 S
C694 C695 1.389 . S
C695 C694 1.389 . S
C695 C696 1.387 . S
C696 H681 0.930 . S
C696 C691 1.390 . S
C696 C695 1.387 . S
H697 C709 0.930 . S
H698 C711 0.930 . S
H699 C712 0.930 1_556 S
H700 C716 0.959 . S
H701 C716 0.959 . S
H702 C716 0.961 . S
H703 C717 0.960 . S
H704 C717 0.961 . S
H705 C717 0.959 . S
H706 C720 0.929 . S
H707 C721 0.931 . S
H708 C723 0.930 . S
C709 H697 0.930 . S
C709 C710 1.399 . S
C709 C714 1.399 . S
C710 C709 1.399 . S
C710 C711 1.376 . S
C711 H698 0.930 . S
C711 C710 1.376 . S
C711 C712 1.388 . S
C712 H699 0.930 1_554 S
C712 C711 1.388 . S
C712 C713 1.390 . S
C713 C712 1.390 . S
C713 C714 1.394 . S
C713 C719 1.465 1_554 S
C714 C709 1.399 . S
C714 C713 1.394 . S
C714 C715 1.516 . S
C715 C714 1.516 . S
C715 C716 1.502 . S
C715 C717 1.561 . S
C715 C718 1.526 . S
C716 H700 0.959 . S
C716 H701 0.959 . S
C716 H702 0.961 . S
C716 C715 1.502 . S
C717 H703 0.960 . S
C717 H704 0.961 . S
C717 H705 0.959 . S
C717 C715 1.561 . S
C718 C715 1.526 . S
C718 C719 1.396 1_554 S
C718 C723 1.390 1_554 S
C719 C713 1.465 1_556 S
C719 C718 1.396 1_556 S
C719 C720 1.399 . S
C720 H706 0.929 . S
C720 C719 1.399 . S
C720 C721 1.385 . S
C721 H707 0.931 . S
C721 C720 1.385 . S
C721 C722 1.389 . S
C722 C721 1.389 . S
C722 C723 1.387 . S
C723 H708 0.930 . S
C723 C718 1.390 1_556 S
C723 C722 1.387 . S
H724 C736 0.930 . S
H725 C738 0.930 . S
H726 C739 0.930 . S
H727 C743 0.959 . S
H728 C743 0.959 . S
H729 C743 0.961 . S
H730 C744 0.960 . S
H731 C744 0.961 . S
H732 C744 0.959 . S
H733 C747 0.929 . S
H734 C748 0.931 . S
H735 C750 0.930 . S
C736 H724 0.930 . S
C736 C737 1.399 . S
C736 C741 1.399 . S
C737 C736 1.399 . S
C737 C738 1.376 . S
C738 H725 0.930 . S
C738 C737 1.376 . S
C738 C739 1.388 . S
C739 H726 0.930 . S
C739 C738 1.388 . S
C739 C740 1.390 . S
C740 C739 1.390 . S
C740 C741 1.394 . S
C740 C746 1.465 . S
C741 C736 1.399 . S
C741 C740 1.394 . S
C741 C742 1.516 . S
C742 C741 1.516 . S
C742 C743 1.502 . S
C742 C744 1.561 1_655 S
C742 C745 1.526 . S
C743 H727 0.959 . S
C743 H728 0.959 . S
C743 H729 0.961 . S
C743 C742 1.502 . S
C744 H730 0.960 . S
C744 H731 0.961 . S
C744 H732 0.959 . S
C744 C742 1.561 1_455 S
C745 C742 1.526 . S
C745 C746 1.396 . S
C745 C750 1.390 . S
C746 C740 1.465 . S
C746 C745 1.396 . S
C746 C747 1.399 . S
C747 H733 0.929 . S
C747 C746 1.399 . S
C747 C748 1.385 . S
C748 H734 0.931 . S
C748 C747 1.385 . S
C748 C749 1.389 . S
C749 C748 1.389 . S
C749 C750 1.387 . S
C750 H735 0.930 . S
C750 C745 1.390 . S
C750 C749 1.387 . S
H751 C763 0.930 . S
H752 C765 0.930 1_545 S
H753 C766 0.930 . S
H754 C770 0.959 . S
H755 C770 0.959 . S
H756 C770 0.961 . S
H757 C771 0.960 . S
H758 C771 0.961 . S
H759 C771 0.959 . S
H760 C774 0.929 . S
H761 C775 0.931 . S
H762 C777 0.930 . S
C763 H751 0.930 . S
C763 C764 1.399 . S
C763 C768 1.399 . S
C764 C763 1.399 . S
C764 C765 1.376 . S
C765 H752 0.930 1_565 S
C765 C764 1.376 . S
C765 C766 1.388 1_565 S
C766 H753 0.930 . S
C766 C765 1.388 1_545 S
C766 C767 1.390 1_545 S
C767 C766 1.390 1_565 S
C767 C768 1.394 . S
C767 C773 1.465 . S
C768 C763 1.399 . S
C768 C767 1.394 . S
C768 C769 1.516 . S
C769 C768 1.516 . S
C769 C770 1.502 . S
C769 C771 1.561 . S
C769 C772 1.526 . S
C770 H754 0.959 . S
C770 H755 0.959 . S
C770 H756 0.961 . S
C770 C769 1.502 . S
C771 H757 0.960 . S
C771 H758 0.961 . S
C771 H759 0.959 . S
C771 C769 1.561 . S
C772 C769 1.526 . S
C772 C773 1.396 . S
C772 C777 1.390 . S
C773 C767 1.465 . S
C773 C772 1.396 . S
C773 C774 1.399 1_565 S
C774 H760 0.929 . S
C774 C773 1.399 1_545 S
C774 C775 1.385 . S
C775 H761 0.931 . S
C775 C774 1.385 . S
C775 C776 1.389 1_545 S
C776 C775 1.389 1_565 S
C776 C777 1.387 . S
C777 H762 0.930 . S
C777 C772 1.390 . S
C777 C776 1.387 . S
H778 C790 0.930 . S
H779 C792 0.930 . S
H780 C793 0.930 . S
H781 C797 0.959 . S
H782 C797 0.959 . S
H783 C797 0.961 . S
H784 C798 0.960 . S
H785 C798 0.961 . S
H786 C798 0.959 . S
H787 C801 0.929 . S
H788 C802 0.931 . S
H789 C804 0.930 . S
C790 H778 0.930 . S
C790 C791 1.399 . S
C790 C795 1.399 . S
C791 C790 1.399 . S
C791 C792 1.376 . S
C792 H779 0.930 . S
C792 C791 1.376 . S
C792 C793 1.388 . S
C793 H780 0.930 . S
C793 C792 1.388 . S
C793 C794 1.390 . S
C794 C793 1.390 . S
C794 C795 1.394 . S
C794 C800 1.465 . S
C795 C790 1.399 . S
C795 C794 1.394 . S
C795 C796 1.516 . S
C796 C795 1.516 . S
C796 C797 1.502 . S
C796 C798 1.561 . S
C796 C799 1.526 . S
C797 H781 0.959 . S
C797 H782 0.959 . S
C797 H783 0.961 . S
C797 C796 1.502 . S
C798 H784 0.960 . S
C798 H785 0.961 . S
C798 H786 0.959 . S
C798 C796 1.561 . S
C799 C796 1.526 . S
C799 C800 1.396 . S
C799 C804 1.390 . S
C800 C794 1.465 . S
C800 C799 1.396 . S
C800 C801 1.399 . S
C801 H787 0.929 . S
C801 C800 1.399 . S
C801 C802 1.385 . S
C802 H788 0.931 . S
C802 C801 1.385 . S
C802 C803 1.389 . S
C803 C802 1.389 . S
C803 C804 1.387 . S
C804 H789 0.930 . S
C804 C799 1.390 . S
C804 C803 1.387 . S
H805 C817 0.930 . S
H806 C819 0.930 . S
H807 C820 0.930 . S
H808 C824 0.959 . S
H809 C824 0.959 . S
H810 C824 0.961 . S
H811 C825 0.960 . S
H812 C825 0.961 . S
H813 C825 0.959 . S
H814 C828 0.929 . S
H815 C829 0.931 . S
H816 C831 0.930 . S
C817 H805 0.930 . S
C817 C818 1.399 . S
C817 C822 1.399 . S
C818 C817 1.399 . S
C818 C819 1.376 . S
C819 H806 0.930 . S
C819 C818 1.376 . S
C819 C820 1.388 . S
C820 H807 0.930 . S
C820 C819 1.388 . S
C820 C821 1.390 . S
C821 C820 1.390 . S
C821 C822 1.394 . S
C821 C827 1.465 . S
C822 C817 1.399 . S
C822 C821 1.394 . S
C822 C823 1.516 . S
C823 C822 1.516 . S
C823 C824 1.502 . S
C823 C825 1.561 . S
C823 C826 1.526 . S
C824 H808 0.959 . S
C824 H809 0.959 . S
C824 H810 0.961 . S
C824 C823 1.502 . S
C825 H811 0.960 . S
C825 H812 0.961 . S
C825 H813 0.959 . S
C825 C823 1.561 . S
C826 C823 1.526 . S
C826 C827 1.396 . S
C826 C831 1.390 . S
C827 C821 1.465 . S
C827 C826 1.396 . S
C827 C828 1.399 . S
C828 H814 0.929 . S
C828 C827 1.399 . S
C828 C829 1.385 . S
C829 H815 0.931 . S
C829 C828 1.385 . S
C829 C830 1.389 . S
C830 C829 1.389 . S
C830 C831 1.387 . S
C831 H816 0.930 . S
C831 C826 1.390 . S
C831 C830 1.387 . S
C197 C82 1.557 . S
C209 C105 1.588 . S
C236 C140 1.602 . S
C224 C95 1.475 . S
C263 C145 1.341 . S
C251 C56 1.204 . S
C290 C165 1.470 . S
C278 C69 1.426 . S
C317 C113 1.600 1_565 S
C305 C30 1.522 . S
C332 C43 1.451 . S
C344 C130 1.605 . S
C359 C4 1.171 . S
C371 C153 1.315 . S
C386 C17 1.307 . S
C398 C173 1.461 1_655 S
C425 C123 1.293 . S
C413 C74 1.278 . S
C452 C132 1.025 . S
C440 C87 0.949 . S
C479 C163 1.359 . S
C467 C100 1.347 . S
C494 C61 1.027 . S
C506 C183 1.004 . S
C521 C22 1.197 . S
C533 C112 1.216 1_655 S
C560 C143 1.039 1_565 S
C548 C35 1.016 1_556 S
C587 C152 1.345 . S
C575 C48 1.296 1_556 S
C602 C9 1.043 1_556 S
C614 C172 1.039 . S
C629 C73 1.438 . S
C641 C110 1.466 . S
C656 C86 1.452 . S
C668 C133 1.502 . S
C695 C150 1.558 . S
C683 C99 1.499 . S
C722 C170 1.593 . S
C710 C60 1.584 . S
C737 C21 1.424 . S
C749 C120 1.446 . S
C776 C125 1.505 . S
C764 C34 1.455 . S
C803 C160 1.571 . S
C791 C47 1.520 . S
C818 C8 1.578 . S
C830 C180 1.592 . S
