# Generated by pormake.
# Topology ant, (3,6)-cn, num edge types: 1
# Building blocks:
#     Node 0, Type 0, BuildingBlock: MIDCAF_clean_linker_0, # of connection points: 3
#     Node 1, Type 0, BuildingBlock: MIDCAF_clean_linker_0, # of connection points: 3
#     Node 2, Type 0, BuildingBlock: MIDCAF_clean_linker_0, # of connection points: 3
#     Node 3, Type 0, BuildingBlock: MIDCAF_clean_linker_0, # of connection points: 3
#     Node 4, Type 0, BuildingBlock: MIDCAF_clean_linker_0, # of connection points: 3
#     Node 5, Type 0, BuildingBlock: MIDCAF_clean_linker_0, # of connection points: 3
#     Node 6, Type 0, BuildingBlock: MIDCAF_clean_linker_0, # of connection points: 3
#     Node 7, Type 0, BuildingBlock: MIDCAF_clean_linker_0, # of connection points: 3
#     Node 8, Type 1, BuildingBlock: MIDCAF_clean_sbu_0, # of connection points: 6
#     Node 9, Type 1, BuildingBlock: MIDCAF_clean_sbu_0, # of connection points: 6
#     Node 10, Type 1, BuildingBlock: MIDCAF_clean_sbu_0, # of connection points: 6
#     Node 11, Type 1, BuildingBlock: MIDCAF_clean_sbu_0, # of connection points: 6
#     Edge 12, Type (0, 1), BuildingBlock: KIFKEQ_clean_linker_1, # of connection points: 2
#     Edge 13, Type (0, 1), BuildingBlock: KIFKEQ_clean_linker_1, # of connection points: 2
#     Edge 14, Type (0, 1), BuildingBlock: KIFKEQ_clean_linker_1, # of connection points: 2
#     Edge 15, Type (0, 1), BuildingBlock: KIFKEQ_clean_linker_1, # of connection points: 2
#     Edge 16, Type (0, 1), BuildingBlock: KIFKEQ_clean_linker_1, # of connection points: 2
#     Edge 17, Type (0, 1), BuildingBlock: KIFKEQ_clean_linker_1, # of connection points: 2
#     Edge 18, Type (0, 1), BuildingBlock: KIFKEQ_clean_linker_1, # of connection points: 2
#     Edge 19, Type (0, 1), BuildingBlock: KIFKEQ_clean_linker_1, # of connection points: 2
#     Edge 20, Type (0, 1), BuildingBlock: KIFKEQ_clean_linker_1, # of connection points: 2
#     Edge 21, Type (0, 1), BuildingBlock: KIFKEQ_clean_linker_1, # of connection points: 2
#     Edge 22, Type (0, 1), BuildingBlock: KIFKEQ_clean_linker_1, # of connection points: 2
#     Edge 23, Type (0, 1), BuildingBlock: KIFKEQ_clean_linker_1, # of connection points: 2
#     Edge 24, Type (0, 1), BuildingBlock: KIFKEQ_clean_linker_1, # of connection points: 2
#     Edge 25, Type (0, 1), BuildingBlock: KIFKEQ_clean_linker_1, # of connection points: 2
#     Edge 26, Type (0, 1), BuildingBlock: KIFKEQ_clean_linker_1, # of connection points: 2
#     Edge 27, Type (0, 1), BuildingBlock: KIFKEQ_clean_linker_1, # of connection points: 2
#     Edge 28, Type (0, 1), BuildingBlock: KIFKEQ_clean_linker_1, # of connection points: 2
#     Edge 29, Type (0, 1), BuildingBlock: KIFKEQ_clean_linker_1, # of connection points: 2
#     Edge 30, Type (0, 1), BuildingBlock: KIFKEQ_clean_linker_1, # of connection points: 2
#     Edge 31, Type (0, 1), BuildingBlock: KIFKEQ_clean_linker_1, # of connection points: 2
#     Edge 32, Type (0, 1), BuildingBlock: KIFKEQ_clean_linker_1, # of connection points: 2
#     Edge 33, Type (0, 1), BuildingBlock: KIFKEQ_clean_linker_1, # of connection points: 2
#     Edge 34, Type (0, 1), BuildingBlock: KIFKEQ_clean_linker_1, # of connection points: 2
#     Edge 35, Type (0, 1), BuildingBlock: KIFKEQ_clean_linker_1, # of connection points: 2
# Relax obj value: 0.104
# Max RMSD: 0.159
# Mean RMSD: 0.105
data_MOF--net-ant--node1-MIDCAF_clean_sbu_0--node2-MIDCAF_clean_linker_0--edge1-KIFKEQ_clean_linker_1
_symmetry_space_group_name_H-M    P1
_symmetry_Int_Tables_number       1
_symmetry_cell_setting            triclinic
loop_
_symmetry_equiv_pos_as_xyz
'x, y, z'
_cell_length_a     34.466256
_cell_length_b     34.206566
_cell_length_c     94.646709
_cell_angle_alpha  90.272293
_cell_angle_beta   93.905271
_cell_angle_gamma 89.942737
loop_
_atom_site_label
_atom_site_type_symbol
_atom_site_fract_x
_atom_site_fract_y
_atom_site_fract_z
_atom_type_partial_charge
C0 C 0.21739 0.3629 0.06078 0.0
C1 C 0.21851 0.37137 0.07533 0.0
C2 C 0.22539 0.34061 0.08502 0.0
C3 C 0.231 0.3023 0.08025 0.0
H4 H 0.2325 0.16889 0.09096 0.0
H5 H 0.24588 0.10723 0.10343 0.0
H6 H 0.32041 0.07155 0.07075 0.0
H7 H 0.30535 0.13198 0.05808 0.0
H8 H 0.21071 0.13599 0.03028 0.0
H9 H 0.18997 0.12003 0.00572 0.0
H10 H 0.20276 0.24106 0.99427 0.0
H11 H 0.22298 0.25735 0.01885 0.0
H12 H 0.22136 0.31932 0.0447 0.0
H13 H 0.21184 0.38582 0.05304 0.0
H14 H 0.22685 0.34623 0.09631 0.0
H15 H 0.23619 0.27937 0.088 0.0
N16 N 0.24787 0.224 0.06937 0.0
N17 N 0.24385 0.17936 0.05039 0.0
N18 N 0.22581 0.24456 0.04653 0.0
C19 C 0.253 0.18717 0.06428 0.0
C20 C 0.23002 0.2077 0.04147 0.0
C21 C 0.23462 0.25307 0.06044 0.0
C22 C 0.26747 0.15483 0.07349 0.0
C23 C 0.2524 0.14813 0.08667 0.0
C24 C 0.26019 0.1128 0.09381 0.0
C25 C 0.28362 0.0839 0.08795 0.0
C26 C 0.3013 0.09248 0.07537 0.0
C27 C 0.29294 0.12726 0.06815 0.0
C28 C 0.21852 0.19799 0.02651 0.0
C29 C 0.2093 0.15921 0.02252 0.0
C30 C 0.19727 0.15002 0.00849 0.0
C31 C 0.19496 0.17927 -0.00186 0.0
C32 C 0.20468 0.21791 0.00205 0.0
C33 C 0.21602 0.22725 0.01613 0.0
C34 C 0.22949 0.29375 0.06567 0.0
C35 C 0.22264 0.32461 0.05601 0.0
C36 C 0.20859 0.8399 0.32256 0.0
C37 C 0.21366 0.83134 0.33708 0.0
C38 C 0.18074 0.82129 0.34432 0.0
C39 C 0.1439 0.81865 0.33709 0.0
H40 H 0.01634 0.82339 0.33992 0.0
H41 H 0.95458 0.8126 0.35064 0.0
H42 H 0.90818 0.75647 0.3122 0.0
H43 H 0.96943 0.7672 0.30146 0.0
H44 H 0.00589 0.79427 0.27259 0.0
H45 H 0.00843 0.78102 0.24725 0.0
H46 H 0.13239 0.80057 0.25068 0.0
H47 H 0.13023 0.81371 0.27586 0.0
H48 H 0.16972 0.84313 0.30411 0.0
H49 H 0.23321 0.84713 0.31655 0.0
H50 H 0.18354 0.81486 0.35554 0.0
H51 H 0.11937 0.80986 0.34289 0.0
N52 N 0.06816 0.81236 0.32074 0.0
N53 N 0.03448 0.80224 0.29857 0.0
N54 N 0.10082 0.81697 0.29986 0.0
C55 C 0.03442 0.8041 0.31292 0.0
C56 C 0.0675 0.80877 0.29195 0.0
C57 C 0.10157 0.81889 0.31421 0.0
C58 C 0.99782 0.79637 0.31981 0.0
C59 C 0.99304 0.80855 0.33379 0.0
C60 C 0.95766 0.80256 0.3399 0.0
C61 C 0.92659 0.78372 0.33224 0.0
C62 C 0.93169 0.77078 0.3184 0.0
C63 C 0.96676 0.77722 0.31223 0.0
C64 C 0.06795 0.80455 0.27635 0.0
C65 C 0.03365 0.79614 0.26793 0.0
C66 C 0.03499 0.78877 0.2534 0.0
C67 C 0.07065 0.78935 0.24707 0.0
C68 C 0.10458 0.79938 0.25535 0.0
C69 C 0.10325 0.80699 0.26979 0.0
C70 C 0.13929 0.82573 0.32244 0.0
C71 C 0.17201 0.83718 0.31537 0.0
C72 C 0.7205 0.86406 0.56416 0.0
C73 C 0.72202 0.87284 0.57869 0.0
C74 C 0.72729 0.84208 0.58846 0.0
C75 C 0.73071 0.80337 0.58379 0.0
H76 H 0.74918 0.6801 0.59701 0.0
H77 H 0.76883 0.62214 0.61101 0.0
H78 H 0.79604 0.56212 0.57264 0.0
H79 H 0.77706 0.61924 0.55891 0.0
H80 H 0.68947 0.63759 0.53552 0.0
H81 H 0.66459 0.62179 0.51133 0.0
H82 H 0.68916 0.73946 0.49839 0.0
H83 H 0.71331 0.7557 0.52261 0.0
H84 H 0.72171 0.81978 0.5482 0.0
H85 H 0.71621 0.88705 0.55637 0.0
H86 H 0.72895 0.84799 0.59974 0.0
H87 H 0.73448 0.78037 0.59159 0.0
N88 N 0.7439 0.72408 0.57283 0.0
N89 N 0.73219 0.67877 0.55432 0.0
N90 N 0.71754 0.74479 0.55052 0.0
C91 C 0.74538 0.68667 0.56788 0.0
C92 C 0.71815 0.70749 0.54561 0.0
C93 C 0.73016 0.75341 0.56412 0.0
C94 C 0.76113 0.65412 0.57684 0.0
C95 C 0.76006 0.65469 0.59167 0.0
C96 C 0.77116 0.62149 0.59966 0.0
C97 C 0.78414 0.58748 0.59296 0.0
C98 C 0.78685 0.58787 0.57822 0.0
C99 C 0.77544 0.62061 0.57029 0.0
C100 C 0.70337 0.69792 0.53096 0.0
C101 C 0.68963 0.66009 0.52751 0.0
C102 C 0.67528 0.65102 0.51371 0.0
C103 C 0.67523 0.67935 0.50305 0.0
C104 C 0.68925 0.71704 0.50644 0.0
C105 C 0.70283 0.72636 0.5203 0.0
C106 C 0.72842 0.7945 0.56924 0.0
C107 C 0.72343 0.82539 0.55949 0.0
C108 C 0.70836 0.37113 0.82305 0.0
C109 C 0.71768 0.34579 0.83447 0.0
C110 C 0.68762 0.32301 0.8396 0.0
C111 C 0.64997 0.32407 0.83303 0.0
H112 H 0.51498 0.35219 0.83633 0.0
H113 H 0.45153 0.34229 0.846 0.0
H114 H 0.41275 0.27666 0.80863 0.0
H115 H 0.47564 0.28701 0.79884 0.0
H116 H 0.51126 0.3223 0.76996 0.0
H117 H 0.51564 0.30933 0.74472 0.0
H118 H 0.63891 0.33265 0.74906 0.0
H119 H 0.63493 0.34547 0.7742 0.0
H120 H 0.66532 0.38997 0.80713 0.0
H121 H 0.73015 0.39008 0.81903 0.0
H122 H 0.69346 0.30276 0.84824 0.0
H123 H 0.62798 0.3049 0.83683 0.0
N124 N 0.5707 0.33537 0.81859 0.0
N125 N 0.53812 0.32925 0.79605 0.0
N126 N 0.60455 0.34382 0.79811 0.0
C127 C 0.53731 0.32875 0.81038 0.0
C128 C 0.57157 0.33688 0.78982 0.0
C129 C 0.60444 0.34308 0.81244 0.0
C130 C 0.50022 0.32057 0.8168 0.0
C131 C 0.49302 0.33539 0.83025 0.0
C132 C 0.45673 0.32991 0.83574 0.0
C133 C 0.42735 0.30879 0.82802 0.0
C134 C 0.43499 0.29289 0.81481 0.0
C135 C 0.47091 0.29903 0.8092 0.0
C136 C 0.57288 0.33429 0.77421 0.0
C137 C 0.53924 0.32523 0.76552 0.0
C138 C 0.54162 0.31801 0.75103 0.0
C139 C 0.57767 0.31951 0.745 0.0
C140 C 0.61083 0.33073 0.7535 0.0
C141 C 0.60847 0.33813 0.76792 0.0
C142 C 0.64172 0.34727 0.82101 0.0
C143 C 0.67103 0.37143 0.81629 0.0
C144 C 0.98888 0.59725 0.91303 0.0
C145 C 0.99214 0.59677 0.89832 0.0
C146 C 0.00622 0.63038 0.89182 0.0
C147 C 0.01807 0.66319 0.89997 0.0
H148 H 0.05205 0.78731 0.90053 0.0
H149 H 0.05888 0.85505 0.89283 0.0
H150 H 0.06455 0.89386 0.93637 0.0
H151 H 0.05814 0.82642 0.94412 0.0
H152 H 0.09118 0.76359 0.96714 0.0
H153 H 0.11563 0.74692 0.99104 0.0
H154 H 0.09518 0.62451 0.98187 0.0
H155 H 0.06973 0.64117 0.95804 0.0
H156 H 0.99921 0.62832 0.93251 0.0
H157 H 0.97876 0.57176 0.91844 0.0
H158 H 0.00895 0.63093 0.88049 0.0
H159 H 0.02991 0.6882 0.89477 0.0
N160 N 0.03658 0.73173 0.91906 0.0
N161 N 0.06506 0.75116 0.94127 0.0
N162 N 0.04705 0.68597 0.93734 0.0
C163 C 0.05197 0.76037 0.92782 0.0
C164 C 0.06299 0.71396 0.94608 0.0
C165 C 0.03368 0.69444 0.92388 0.0
C166 C 0.05467 0.80139 0.92294 0.0
C167 C 0.0546 0.81029 0.90845 0.0
C168 C 0.05875 0.84902 0.90405 0.0
C169 C 0.06234 0.87967 0.91401 0.0
C170 C 0.06165 0.87086 0.92846 0.0
C171 C 0.05818 0.83216 0.93288 0.0
C172 C 0.07833 0.7038 0.96063 0.0
C173 C 0.09193 0.73309 0.97017 0.0
C174 C 0.1063 0.72347 0.98387 0.0
C175 C 0.10763 0.68431 0.98837 0.0
C176 C 0.09424 0.65498 0.97881 0.0
C177 C 0.07973 0.6646 0.96511 0.0
C178 C 0.01666 0.6626 0.91478 0.0
C179 C 1.00108 0.62962 0.92114 0.0
C180 C 0.54405 0.84413 0.17201 0.0
C181 C 0.53938 0.83459 0.15754 0.0
C182 C 0.57271 0.82459 0.15045 0.0
C183 C 0.60958 0.82338 0.15779 0.0
H184 H 0.73294 0.79987 0.1549 0.0
H185 H 0.79551 0.78661 0.1451 0.0
H186 H 0.85398 0.80536 0.18641 0.0
H187 H 0.7921 0.81751 0.19621 0.0
H188 H 0.74545 0.80688 0.22303 0.0
H189 H 0.74123 0.79491 0.2483 0.0
H190 H 0.61898 0.82354 0.24437 0.0
H191 H 0.62279 0.83514 0.2192 0.0
H192 H 0.5824 0.84993 0.19048 0.0
H193 H 0.51921 0.85118 0.17797 0.0
H194 H 0.57027 0.81732 0.13928 0.0
H195 H 0.63449 0.81483 0.15211 0.0
N196 N 0.6857 0.82139 0.17456 0.0
N197 N 0.71891 0.81748 0.19706 0.0
N198 N 0.65194 0.82836 0.19515 0.0
C199 C 0.71961 0.81661 0.18272 0.0
C200 C 0.68528 0.82333 0.20337 0.0
C201 C 0.65165 0.82757 0.18079 0.0
C202 C 0.75729 0.80964 0.17636 0.0
C203 C 0.75917 0.80115 0.16187 0.0
C204 C 0.79508 0.79362 0.15625 0.0
C205 C 0.82987 0.79457 0.16499 0.0
C206 C 0.82784 0.80342 0.17942 0.0
C207 C 0.79215 0.81073 0.18502 0.0
C208 C 0.68429 0.82128 0.21899 0.0
C209 C 0.71776 0.81117 0.22757 0.0
C210 C 0.71546 0.80451 0.24207 0.0
C211 C 0.67967 0.80776 0.24823 0.0
C212 C 0.64681 0.82014 0.23984 0.0
C213 C 0.64908 0.82683 0.2254 0.0
C214 C 0.61379 0.8319 0.17237 0.0
C215 C 0.58056 0.84294 0.17928 0.0
C216 C 0.48563 0.08449 0.41607 0.0
C217 C 0.47969 0.08808 0.4013 0.0
C218 C 0.48268 0.12551 0.39529 0.0
C219 C 0.49258 0.15819 0.40385 0.0
H220 H 0.51847 0.28156 0.40489 0.0
H221 H 0.52252 0.34897 0.39698 0.0
H222 H 0.54058 0.38764 0.44047 0.0
H223 H 0.53784 0.32024 0.44834 0.0
H224 H 0.54831 0.25652 0.47346 0.0
H225 H 0.57032 0.23909 0.49771 0.0
H226 H 0.58601 0.11937 0.48466 0.0
H227 H 0.5638 0.13649 0.46044 0.0
H228 H 0.50035 0.1122 0.43584 0.0
H229 H 0.48457 0.05626 0.42115 0.0
H230 H 0.47805 0.12947 0.38395 0.0
H231 H 0.49556 0.1864 0.3989 0.0
N232 N 0.51407 0.22461 0.42322 0.0
N233 N 0.53958 0.24533 0.44573 0.0
N234 N 0.52681 0.17913 0.44141 0.0
C235 C 0.52694 0.25403 0.43216 0.0
C236 C 0.5398 0.20785 0.45038 0.0
C237 C 0.51366 0.18698 0.42788 0.0
C238 C 0.52789 0.29527 0.42725 0.0
C239 C 0.52319 0.30441 0.41278 0.0
C240 C 0.52533 0.34323 0.40824 0.0
C241 C 0.53186 0.37401 0.41807 0.0
C242 C 0.53618 0.36482 0.43256 0.0
C243 C 0.53435 0.32602 0.43708 0.0
C244 C 0.55414 0.19791 0.46502 0.0
C245 C 0.55653 0.22652 0.47574 0.0
C246 C 0.56888 0.2165 0.48963 0.0
C247 C 0.57963 0.17783 0.49303 0.0
C248 C 0.57796 0.14938 0.4823 0.0
C249 C 0.56506 0.15924 0.46846 0.0
C250 C 0.49984 0.15398 0.41857 0.0
C251 C 0.49536 0.11682 0.42454 0.0
C252 C 0.052 0.35045 0.67101 0.0
C253 C 0.0462 0.34345 0.65637 0.0
C254 C 0.0789 0.33523 0.64869 0.0
C255 C 0.11622 0.33291 0.6556 0.0
H256 H 0.24848 0.34682 0.65363 0.0
H257 H 0.31147 0.33863 0.64331 0.0
H258 H 0.35013 0.26333 0.67792 0.0
H259 H 0.28787 0.27193 0.68834 0.0
H260 H 0.25626 0.3011 0.71875 0.0
H261 H 0.2561 0.29429 0.7444 0.0
H262 H 0.13695 0.3342 0.74276 0.0
H263 H 0.13713 0.34163 0.71728 0.0
H264 H 0.09176 0.35303 0.68921 0.0
H265 H 0.02767 0.3561 0.67739 0.0
H266 H 0.07561 0.33003 0.63738 0.0
H267 H 0.1406 0.32559 0.64945 0.0
N268 N 0.19288 0.32564 0.67136 0.0
N269 N 0.22807 0.31658 0.6933 0.0
N270 N 0.1618 0.33139 0.69259 0.0
C271 C 0.22709 0.3177 0.67892 0.0
C272 C 0.19562 0.32365 0.70022 0.0
C273 C 0.15994 0.33237 0.67821 0.0
C274 C 0.26333 0.3102 0.67182 0.0
C275 C 0.27031 0.3282 0.65893 0.0
C276 C 0.30634 0.32372 0.65308 0.0
C277 C 0.3356 0.30041 0.65986 0.0
C278 C 0.32802 0.28128 0.67245 0.0
C279 C 0.29244 0.2864 0.67843 0.0
C280 C 0.19661 0.32166 0.71589 0.0
C281 C 0.23014 0.30881 0.72387 0.0
C282 C 0.23005 0.30478 0.73857 0.0
C283 C 0.19655 0.31372 0.74562 0.0
C284 C 0.16345 0.32761 0.7377 0.0
C285 C 0.16347 0.33151 0.72303 0.0
C286 C 0.12157 0.33863 0.67034 0.0
C287 C 0.08901 0.34822 0.67786 0.0
Zn288 Zn 0.21715 0.69216 0.14133 0.0
Zn289 Zn 0.14229 0.78167 0.10393 0.0
Zn290 Zn 0.18063 0.73404 0.12141 0.0
C291 C 0.15601 0.71125 0.08941 0.0
C292 C 0.21041 0.82009 0.11207 0.0
O293 O 0.14537 0.73224 0.14026 0.0
O294 O 0.17956 0.69632 0.15601 0.0
C295 C 0.20216 0.64241 0.11773 0.0
O296 O 0.17175 0.70037 0.10149 0.0
O297 O 0.14188 0.74509 0.08777 0.0
O298 O 0.17874 0.82594 0.10494 0.0
O299 O 0.21692 0.78725 0.11846 0.0
O300 O 0.21648 0.64302 0.13037 0.0
O301 O 0.18822 0.67413 0.11199 0.0
O302 O 0.23866 0.76098 0.12695 0.0
O303 O 0.26583 0.72319 0.14379 0.0
C304 C 0.26759 0.75243 0.13578 0.0
O305 O 0.12241 0.75005 0.12938 0.0
O306 O 0.09361 0.78872 0.11319 0.0
C307 C 0.1498 0.71656 0.15264 0.0
C308 C 0.09278 0.77066 0.12474 0.0
Zn309 Zn 0.53686 0.69496 0.35361 0.0
Zn310 Zn 0.60835 0.77648 0.39064 0.0
Zn311 Zn 0.57372 0.73582 0.37328 0.0
C312 C 0.55453 0.82576 0.37884 0.0
C313 C 0.6648 0.75678 0.37361 0.0
O314 O 0.56457 0.67629 0.3825 0.0
O315 O 0.53925 0.64464 0.36367 0.0
C316 C 0.48642 0.7548 0.36001 0.0
O317 O 0.54041 0.79191 0.37528 0.0
O318 O 0.58828 0.82804 0.38478 0.0
O319 O 0.66283 0.76647 0.38641 0.0
O320 O 0.63332 0.74759 0.36615 0.0
O321 O 0.48727 0.72467 0.35229 0.0
O322 O 0.51634 0.76449 0.36822 0.0
O323 O 0.60925 0.73525 0.35453 0.0
O324 O 0.57251 0.70239 0.33849 0.0
C325 C 0.60293 0.72171 0.34183 0.0
O326 O 0.58083 0.70207 0.39325 0.0
O327 O 0.58913 0.75244 0.40779 0.0
C328 C 0.55189 0.64434 0.3765 0.0
C329 C 0.58349 0.71633 0.40591 0.0
Zn330 Zn 0.65579 0.28373 0.60136 0.0
Zn331 Zn 0.7238 0.19853 0.64202 0.0
Zn332 Zn 0.6889 0.239 0.6212 0.0
C333 C 0.77505 0.25794 0.636 0.0
C334 C 0.71014 0.1463 0.61934 0.0
O335 O 0.63064 0.25749 0.62787 0.0
O336 O 0.60617 0.29384 0.61017 0.0
C337 C 0.7236 0.32133 0.60945 0.0
O338 O 0.74673 0.26576 0.62683 0.0
O339 O 0.77263 0.22948 0.64434 0.0
O340 O 0.7236 0.14773 0.63207 0.0
O341 O 0.69671 0.17763 0.61318 0.0
O342 O 0.6944 0.32581 0.60085 0.0
O343 O 0.72636 0.291 0.61752 0.0
O344 O 0.67916 0.20108 0.60225 0.0
O345 O 0.65545 0.24388 0.58638 0.0
C346 C 0.66626 0.20962 0.58954 0.0
O347 O 0.65262 0.24196 0.63967 0.0
O348 O 0.68492 0.20649 0.65606 0.0
C349 C 0.60246 0.27794 0.62201 0.0
C350 C 0.6562 0.2278 0.6523 0.0
Zn351 Zn 0.0427 0.19976 0.85085 0.0
Zn352 Zn 0.11116 0.29058 0.88897 0.0
Zn353 Zn 0.07826 0.24451 0.86986 0.0
C354 C 0.10086 0.21978 0.90217 0.0
C355 C 0.04454 0.3289 0.88001 0.0
O356 O 0.11156 0.24722 0.8508 0.0
O357 O 0.07341 0.21564 0.83483 0.0
C358 C 0.06718 0.1504 0.8727 0.0
O359 O 0.09029 0.20935 0.88938 0.0
O360 O 0.10927 0.25487 0.90508 0.0
O361 O 0.07464 0.33459 0.88807 0.0
O362 O 0.04022 0.29677 0.87287 0.0
O363 O 0.05522 0.14914 0.85981 0.0
O364 O 0.07482 0.18373 0.87875 0.0
O365 O 0.01913 0.26879 0.86491 0.0
O366 O 0.98942 0.22125 0.85248 0.0
C367 C 0.98808 0.25389 0.8587 0.0
O368 O 0.13519 0.26245 0.86216 0.0
O369 O 0.16153 0.29649 0.88025 0.0
C370 C 0.10352 0.23576 0.83794 0.0
C371 C 0.16423 0.28145 0.86815 0.0
H372 H 0.17379 0.39556 0.09648 0.0
H373 H 0.24899 0.43939 0.06553 0.0
H374 H 0.1654 0.46172 0.10541 0.0
H375 H 0.24124 0.50571 0.07463 0.0
H376 H 0.19864 0.62595 0.089 0.0
H377 H 0.19816 0.56132 0.07763 0.0
H378 H 0.20433 0.50738 0.11892 0.0
H379 H 0.20303 0.57113 0.12998 0.0
C380 C 0.18872 0.41934 0.09164 0.0
C381 C 0.2124 0.4121 0.0804 0.0
C382 C 0.18391 0.45734 0.09674 0.0
C383 C 0.20295 0.48917 0.09085 0.0
C384 C 0.22579 0.48207 0.07933 0.0
C385 C 0.23038 0.444 0.07415 0.0
C386 C 0.19889 0.60027 0.09554 0.0
C387 C 0.20042 0.60392 0.11034 0.0
C388 C 0.19921 0.56317 0.08908 0.0
C389 C 0.20097 0.52894 0.09735 0.0
C390 C 0.20217 0.53283 0.11215 0.0
C391 C 0.20185 0.56963 0.11852 0.0
H392 H 0.88162 0.71783 0.33222 0.0
H393 H 0.88535 0.8383 0.34598 0.0
H394 H 0.81845 0.70992 0.34208 0.0
H395 H 0.82178 0.83107 0.35539 0.0
H396 H 0.72825 0.79752 0.38376 0.0
H397 H 0.79124 0.80221 0.37404 0.0
H398 H 0.7514 0.72624 0.3394 0.0
H399 H 0.68907 0.71902 0.34996 0.0
C400 C 0.86874 0.74268 0.33728 0.0
C401 C 0.88851 0.7786 0.33843 0.0
C402 C 0.83243 0.73825 0.34286 0.0
C403 C 0.81487 0.76979 0.34959 0.0
C404 C 0.83466 0.80582 0.35058 0.0
C405 C 0.87111 0.81008 0.34516 0.0
C406 C 0.73289 0.78159 0.3741 0.0
C407 C 0.70311 0.7587 0.3674 0.0
C408 C 0.76902 0.78468 0.36841 0.0
C409 C 0.77642 0.76525 0.35575 0.0
C410 C 0.74686 0.74168 0.34916 0.0
C411 C 0.71074 0.73817 0.35502 0.0
H412 H 0.74073 0.55588 0.61323 0.0
H413 H 0.84236 0.53388 0.59009 0.0
H414 H 0.74146 0.4881 0.62104 0.0
H415 H 0.84259 0.4658 0.59773 0.0
H416 H 0.7465 0.36302 0.63314 0.0
H417 H 0.77483 0.42896 0.63331 0.0
H418 H 0.79095 0.41795 0.58861 0.0
H419 H 0.76198 0.35308 0.58846 0.0
C420 C 0.76411 0.53703 0.61024 0.0
C421 C 0.79096 0.5501 0.60077 0.0
C422 C 0.76455 0.4981 0.61474 0.0
C423 C 0.79176 0.47147 0.60982 0.0
C424 C 0.82098 0.48554 0.60154 0.0
C425 C 0.82069 0.52448 0.59711 0.0
C426 C 0.75769 0.37425 0.62353 0.0
C427 C 0.75212 0.35329 0.61077 0.0
C428 C 0.77356 0.412 0.6236 0.0
C429 C 0.78479 0.42876 0.61095 0.0
C430 C 0.78292 0.40584 0.59855 0.0
C431 C 0.76633 0.36866 0.59844 0.0
H432 H 0.74571 0.3288 0.86183 0.0
H433 H 0.78396 0.3504 0.81996 0.0
H434 H 0.81243 0.31231 0.87006 0.0
H435 H 0.85037 0.33603 0.82848 0.0
H436 H 0.97155 0.32847 0.85026 0.0
H437 H 0.90679 0.35827 0.84654 0.0
H438 H 0.85524 0.25375 0.86248 0.0
H439 H 0.91978 0.2242 0.86607 0.0
C440 C 0.76815 0.33049 0.8544 0.0
C441 C 0.75897 0.34074 0.84016 0.0
C442 C 0.80643 0.32137 0.85918 0.0
C443 C 0.83654 0.32305 0.84992 0.0
C444 C 0.82785 0.33511 0.83591 0.0
C445 C 0.78958 0.34351 0.83106 0.0
C446 C 0.94643 0.31259 0.85339 0.0
C447 C 0.95046 0.27437 0.85859 0.0
C448 C 0.90943 0.32937 0.85114 0.0
C449 C 0.87604 0.3083 0.85426 0.0
C450 C 0.88046 0.27083 0.86015 0.0
C451 C 0.91729 0.25386 0.86214 0.0
H452 H 0.03664 0.56408 0.87857 0.0
H453 H 0.93226 0.54471 0.90032 0.0
H454 H 0.03462 0.49676 0.87022 0.0
H455 H 0.93021 0.47706 0.89194 0.0
H456 H 0.9997 0.35818 0.89977 0.0
H457 H 0.97386 0.42439 0.90018 0.0
H458 H 0.00473 0.44122 0.85713 0.0
H459 H 0.03094 0.37461 0.8569 0.0
C460 C 0.01241 0.54589 0.88113 0.0
C461 C 0.98504 0.55957 0.89033 0.0
C462 C 0.01119 0.50716 0.87632 0.0
C463 C 0.98255 0.48127 0.88059 0.0
C464 C 0.95304 0.49605 0.88867 0.0
C465 C 0.95426 0.53479 0.89348 0.0
C466 C 0.99914 0.37544 0.89018 0.0
C467 C 0.01676 0.36135 0.87826 0.0
C468 C 0.9844 0.41346 0.89039 0.0
C469 C 0.98764 0.43836 0.87873 0.0
C470 C 1.00214 0.42291 0.86632 0.0
C471 C 0.01668 0.38467 0.86611 0.0
H472 H 0.89271 0.75473 0.17722 0.0
H473 H 0.85454 0.81863 0.13951 0.0
H474 H 0.95757 0.74867 0.16862 0.0
H475 H 0.91863 0.81077 0.13061 0.0
H476 H 0.04512 0.83315 0.12584 0.0
H477 H 0.9823 0.83708 0.13595 0.0
H478 H 0.99565 0.71819 0.15077 0.0
H479 H 0.05931 0.71461 0.14072 0.0
C480 C 0.89805 0.76733 0.16706 0.0
C481 C 0.86839 0.78757 0.15914 0.0
C482 C 0.93517 0.76343 0.16206 0.0
C483 C 0.94352 0.7796 0.149 0.0
C484 C 0.91348 0.79864 0.14086 0.0
C485 C 0.87647 0.80266 0.14588 0.0
C486 C 0.03481 0.80795 0.13137 0.0
C487 C 0.05711 0.77359 0.13251 0.0
C488 C 0.99863 0.81007 0.13707 0.0
C489 C 0.98349 0.77771 0.14394 0.0
C490 C 0.00646 0.7437 0.14557 0.0
C491 C 0.04296 0.74165 0.13988 0.0
H492 H 0.48912 0.40936 0.39621 0.0
H493 H 0.57982 0.43295 0.42896 0.0
H494 H 0.49539 0.47557 0.38737 0.0
H495 H 0.58515 0.49983 0.42025 0.0
H496 H 0.54897 0.62923 0.40517 0.0
H497 H 0.54508 0.5648 0.41642 0.0
H498 H 0.54952 0.5093 0.37552 0.0
H499 H 0.55452 0.57273 0.36448 0.0
C500 C 0.51049 0.42852 0.40152 0.0
C501 C 0.53429 0.4154 0.41321 0.0
C502 C 0.51391 0.46661 0.39649 0.0
C503 C 0.54097 0.4928 0.40306 0.0
C504 C 0.56386 0.48036 0.41504 0.0
C505 C 0.56071 0.44201 0.42002 0.0
C506 C 0.55023 0.60324 0.3987 0.0
C507 C 0.55234 0.60623 0.38397 0.0
C508 C 0.54761 0.56638 0.4051 0.0
C509 C 0.54646 0.53204 0.3968 0.0
C510 C 0.54958 0.5352 0.38216 0.0
C511 C 0.55254 0.57167 0.37585 0.0
H512 H 0.98389 0.39006 0.66177 0.0
H513 H 0.0164 0.29262 0.6358 0.0
H514 H 0.91549 0.37781 0.65481 0.0
H515 H 0.94797 0.28174 0.62842 0.0
H516 H 0.81592 0.28588 0.61435 0.0
H517 H 0.88126 0.31537 0.61652 0.0
H518 H 0.87964 0.31228 0.66206 0.0
H519 H 0.81545 0.28197 0.6599 0.0
C520 C 0.97661 0.3665 0.65438 0.0
C521 C 0.00577 0.34175 0.64963 0.0
C522 C 0.93744 0.35978 0.65031 0.0
C523 C 0.92654 0.32871 0.64116 0.0
C524 C 0.95567 0.30611 0.6354 0.0
C525 C 0.99492 0.31243 0.63964 0.0
C526 C 0.82936 0.29232 0.62478 0.0
C527 C 0.81091 0.28159 0.63697 0.0
C528 C 0.86665 0.30896 0.62601 0.0
C529 C 0.88535 0.31608 0.63945 0.0
C530 C 0.86574 0.30743 0.65158 0.0
C531 C 0.82913 0.28995 0.65035 0.0
H532 H 0.3766 0.23405 0.65482 0.0
H533 H 0.38274 0.35975 0.65258 0.0
H534 H 0.44157 0.22896 0.64623 0.0
H535 H 0.44843 0.35516 0.64471 0.0
H536 H 0.54769 0.33413 0.61664 0.0
H537 H 0.48366 0.33903 0.62559 0.0
H538 H 0.50808 0.23725 0.65167 0.0
H539 H 0.57101 0.23048 0.64162 0.0
C540 C 0.39207 0.26059 0.65255 0.0
C541 C 0.37459 0.29727 0.65423 0.0
C542 C 0.4295 0.25777 0.64776 0.0
C543 C 0.45062 0.29163 0.64476 0.0
C544 C 0.43299 0.32834 0.64659 0.0
C545 C 0.39532 0.33109 0.65114 0.0
C546 C 0.53947 0.31282 0.62432 0.0
C547 C 0.56491 0.28235 0.62864 0.0
C548 C 0.50273 0.31585 0.62959 0.0
C549 C 0.49043 0.28874 0.63948 0.0
C550 C 0.51617 0.2585 0.64396 0.0
C551 C 0.55275 0.25507 0.63845 0.0
H552 H 0.47753 0.8835 0.16111 0.0
H553 H 0.51008 0.78069 0.13794 0.0
H554 H 0.40936 0.87175 0.15368 0.0
H555 H 0.44186 0.77016 0.13006 0.0
H556 H 0.3112 0.77514 0.11419 0.0
H557 H 0.37725 0.80301 0.11656 0.0
H558 H 0.37058 0.80929 0.16189 0.0
H559 H 0.30561 0.78057 0.15953 0.0
C560 C 0.47033 0.85879 0.15423 0.0
C561 C 0.49938 0.83251 0.15042 0.0
C562 C 0.43128 0.85232 0.1499 0.0
C563 C 0.42039 0.81992 0.14139 0.0
C564 C 0.44955 0.79554 0.13654 0.0
C565 C 0.48867 0.80166 0.14106 0.0
C566 C 0.32365 0.78347 0.12458 0.0
C567 C 0.3035 0.77594 0.13669 0.0
C568 C 0.36139 0.79909 0.12595 0.0
C569 C 0.37891 0.8083 0.13941 0.0
C570 C 0.35764 0.80282 0.15138 0.0
C571 C 0.32055 0.78635 0.15005 0.0
H572 H 0.38569 0.24173 0.83084 0.0
H573 H 0.38084 0.36654 0.83712 0.0
H574 H 0.32136 0.23501 0.8399 0.0
H575 H 0.31584 0.36049 0.84545 0.0
H576 H 0.22118 0.33463 0.87459 0.0
H577 H 0.28392 0.34028 0.86479 0.0
H578 H 0.2542 0.2448 0.83594 0.0
H579 H 0.19239 0.23704 0.84675 0.0
C580 C 0.37058 0.26774 0.83406 0.0
C581 C 0.38829 0.30459 0.83346 0.0
C582 C 0.33357 0.26401 0.83914 0.0
C583 C 0.31318 0.29717 0.8435 0.0
C584 C 0.33084 0.33412 0.84256 0.0
C585 C 0.36808 0.33771 0.83774 0.0
C586 C 0.22795 0.31479 0.86614 0.0
C587 C 0.20134 0.28584 0.86126 0.0
C588 C 0.26393 0.31832 0.86038 0.0
C589 C 0.27429 0.29334 0.84941 0.0
C590 C 0.24753 0.26442 0.84445 0.0
C591 C 0.21168 0.26042 0.85044 0.0
H592 H 0.27456 0.88137 0.33369 0.0
H593 H 0.24376 0.77768 0.35629 0.0
H594 H 0.34274 0.87164 0.34162 0.0
H595 H 0.31178 0.76852 0.36441 0.0
H596 H 0.43784 0.76777 0.38104 0.0
H597 H 0.37161 0.79474 0.37827 0.0
H598 H 0.38789 0.81895 0.33431 0.0
H599 H 0.45348 0.79181 0.33714 0.0
C600 C 0.2822 0.85682 0.34051 0.0
C601 C 0.25367 0.82992 0.34414 0.0
C602 C 0.32126 0.85137 0.34509 0.0
C603 C 0.33269 0.81911 0.35352 0.0
C604 C 0.30387 0.79387 0.35803 0.0
C605 C 0.2648 0.79916 0.35337 0.0
C606 C 0.42742 0.77996 0.37094 0.0
C607 C 0.45057 0.77821 0.35932 0.0
C608 C 0.38957 0.79508 0.36932 0.0
C609 C 0.37452 0.80893 0.35607 0.0
C610 C 0.39874 0.80904 0.3447 0.0
C611 C 0.43623 0.79345 0.34628 0.0
H612 H 0.75684 0.9389 0.56921 0.0
H613 H 0.67652 0.89957 0.59916 0.0
H614 H 0.75101 0.00585 0.57796 0.0
H615 H 0.66973 0.96638 0.60765 0.0
H616 H 0.70631 0.07595 0.63201 0.0
H617 H 0.70741 0.0115 0.62146 0.0
H618 H 0.71086 0.06316 0.57997 0.0
H619 H 0.71221 0.12838 0.59086 0.0
C620 C 0.73757 0.94468 0.57755 0.0
C621 C 0.71753 0.91387 0.58363 0.0
C622 C 0.73404 0.9831 0.58252 0.0
C623 C 0.71013 0.99165 0.59361 0.0
C624 C 0.68914 0.96089 0.59933 0.0
C625 C 0.69299 0.92251 0.59448 0.0
C626 C 0.70723 0.07374 0.62061 0.0
C627 C 0.70853 0.10749 0.61223 0.0
C628 C 0.7074 0.03658 0.61452 0.0
C629 C 0.70871 0.03185 0.59981 0.0
C630 C 0.70986 0.06562 0.59134 0.0
C631 C 0.70987 0.10308 0.59752 0.0
H632 H 0.28827 0.06108 0.116 0.0
H633 H 0.28329 0.01488 0.07334 0.0
H634 H 0.28404 0.99454 0.12516 0.0
H635 H 0.27945 0.94924 0.0824 0.0
H636 H 0.27723 0.83146 0.09884 0.0
H637 H 0.30806 0.89502 0.09553 0.0
H638 H 0.23154 0.94752 0.12461 0.0
H639 H 0.20192 0.88404 0.12807 0.0
C640 C 0.28676 0.03684 0.10859 0.0
C641 C 0.28606 0.04356 0.09391 0.0
C642 C 0.28451 0.99869 0.11384 0.0
C643 C 0.28152 0.9664 0.10454 0.0
C644 C 0.28264 0.97313 0.08994 0.0
C645 C 0.28477 0.01107 0.08471 0.0
C646 C 0.26853 0.85633 0.10501 0.0
C647 C 0.23756 0.85308 0.11378 0.0
C648 C 0.28571 0.89281 0.103 0.0
C649 C 0.27178 0.92661 0.1096 0.0
C650 C 0.24329 0.92228 0.11943 0.0
C651 C 0.22625 0.88588 0.12143 0.0
H652 H 0.50917 0.07227 0.37559 0.0
H653 H 0.43873 0.02155 0.4068 0.0
H654 H 0.51513 0.00848 0.36457 0.0
H655 H 0.44773 0.95734 0.39664 0.0
H656 H 0.47629 0.84085 0.3804 0.0
H657 H 0.44543 0.90549 0.38033 0.0
H658 H 0.55585 0.95823 0.3723 0.0
H659 H 0.58517 0.89434 0.37163 0.0
C660 C 0.4942 0.04777 0.37996 0.0
C661 C 0.47465 0.05196 0.39243 0.0
C662 C 0.49811 0.01089 0.37374 0.0
C663 C 0.48336 0.97723 0.38003 0.0
C664 C 0.45992 0.98224 0.3915 0.0
C665 C 0.45529 0.0192 0.39752 0.0
C666 C 0.49323 0.86626 0.37802 0.0
C667 C 0.53305 0.86264 0.37609 0.0
C668 C 0.47582 0.90341 0.37818 0.0
C669 C 0.49811 0.93749 0.37649 0.0
C670 C 0.53728 0.93312 0.37347 0.0
C671 C 0.5544 0.89629 0.37326 0.0
H672 H 0.02282 0.94456 0.92209 0.0
H673 H 0.11314 0.90735 0.89563 0.0
H674 H 0.02852 0.01139 0.91348 0.0
H675 H 0.12018 0.97421 0.88743 0.0
H676 H 0.08368 0.08054 0.86118 0.0
H677 H 0.08544 0.01691 0.87218 0.0
H678 H 0.06509 0.07043 0.9125 0.0
H679 H 0.0607 0.13453 0.90103 0.0
C680 C 0.04429 0.95087 0.91458 0.0
C681 C 0.06715 0.9207 0.90936 0.0
C682 C 0.0478 0.98924 0.90971 0.0
C683 C 0.0746 0.99837 0.89964 0.0
C684 C 0.09853 0.96826 0.89491 0.0
C685 C 0.09459 0.92989 0.89961 0.0
C686 C 0.07984 0.07888 0.87243 0.0
C687 C 0.07253 0.11275 0.88028 0.0
C688 C 0.08128 0.04225 0.87881 0.0
C689 C 0.07572 0.03824 0.8933 0.0
C690 C 0.06931 0.07229 0.9013 0.0
C691 C 0.06757 0.10919 0.89482 0.0
H692 H 0.2301 0.19817 0.97423 0.0
H693 H 0.12929 0.13985 0.98872 0.0
H694 H 0.20411 0.19038 0.94975 0.0
H695 H 0.10295 0.1322 0.96412 0.0
H696 H 0.05635 0.21233 0.92429 0.0
H697 H 0.07889 0.1871 0.94748 0.0
H698 H 0.18262 0.14267 0.92986 0.0
H699 H 0.15946 0.16764 0.90655 0.0
C700 C 0.20267 0.1831 0.97212 0.0
C701 C 0.18149 0.16997 0.98332 0.0
C702 C 0.18798 0.17818 0.95812 0.0
C703 C 0.15155 0.16051 0.95503 0.0
C704 C 0.13115 0.14579 0.96621 0.0
C705 C 0.14618 0.15017 0.98024 0.0
C706 C 0.08289 0.19524 0.92526 0.0
C707 C 0.10616 0.19163 0.91374 0.0
C708 C 0.0959 0.18087 0.93852 0.0
C709 C 0.1328 0.16346 0.9405 0.0
C710 C 0.1542 0.15625 0.92862 0.0
C711 C 0.14084 0.17015 0.91528 0.0
H712 H 0.02612 0.81287 0.22338 0.0
H713 H 0.12129 0.73706 0.23726 0.0
H714 H 0.03361 0.79281 0.1987 0.0
H715 H 0.129 0.71754 0.21293 0.0
H716 H 0.12452 0.66505 0.17148 0.0
H717 H 0.09468 0.68063 0.19343 0.0
H718 H 0.08593 0.80186 0.18106 0.0
H719 H 0.11521 0.78591 0.15886 0.0
C720 C 0.04835 0.79175 0.22115 0.0
C721 C 0.07338 0.77675 0.23218 0.0
C722 C 0.05269 0.78041 0.20707 0.0
C723 C 0.08163 0.75335 0.2039 0.0
C724 C 0.10595 0.73789 0.21503 0.0
C725 C 0.10191 0.74945 0.22896 0.0
C726 C 0.11505 0.69478 0.17326 0.0
C727 C 0.12247 0.72437 0.16361 0.0
C728 C 0.09814 0.70374 0.18583 0.0
C729 C 0.08891 0.74261 0.18911 0.0
C730 C 0.09278 0.77165 0.17882 0.0
C731 C 0.10952 0.76256 0.16612 0.0
H732 H 0.60419 0.64926 0.49444 0.0
H733 H 0.7119 0.68921 0.47881 0.0
H734 H 0.57609 0.6424 0.47002 0.0
H735 H 0.68422 0.68186 0.45449 0.0
H736 H 0.6336 0.65641 0.41168 0.0
H737 H 0.6541 0.63328 0.43554 0.0
H738 H 0.56123 0.69965 0.45254 0.0
H739 H 0.54153 0.72324 0.42885 0.0
C740 C 0.62208 0.65562 0.48576 0.0
C741 C 0.66001 0.67012 0.48843 0.0
C742 C 0.60607 0.65167 0.47184 0.0
C743 C 0.62806 0.66137 0.46039 0.0
C744 C 0.66679 0.67359 0.4631 0.0
C745 C 0.6825 0.67823 0.47699 0.0
C746 C 0.61659 0.66448 0.42046 0.0
C747 C 0.58606 0.6915 0.41854 0.0
C748 C 0.62845 0.65154 0.43409 0.0
C749 C 0.60948 0.66504 0.44587 0.0
C750 C 0.57621 0.68855 0.44366 0.0
C751 C 0.56489 0.70204 0.43011 0.0
H752 H 0.63061 0.26801 0.73627 0.0
H753 H 0.53357 0.33932 0.72073 0.0
H754 H 0.63876 0.24456 0.71241 0.0
H755 H 0.54166 0.31535 0.69653 0.0
H756 H 0.62349 0.29935 0.65666 0.0
H757 H 0.5953 0.32102 0.67849 0.0
H758 H 0.60191 0.20281 0.69429 0.0
H759 H 0.63047 0.18148 0.67269 0.0
C760 C 0.61106 0.27875 0.7277 0.0
C761 C 0.5817 0.30574 0.73032 0.0
C762 C 0.61537 0.26492 0.71406 0.0
C763 C 0.59052 0.27778 0.70264 0.0
C764 C 0.5611 0.3049 0.70517 0.0
C765 C 0.55644 0.31849 0.71896 0.0
C766 C 0.61759 0.27789 0.66462 0.0
C767 C 0.62955 0.2389 0.66315 0.0
C768 C 0.60147 0.29025 0.67709 0.0
C769 C 0.5973 0.2637 0.68818 0.0
C770 C 0.60559 0.22401 0.68601 0.0
C771 C 0.62179 0.21178 0.67366 0.0
H772 H 0.16922 0.7161 0.00417 0.0
H773 H 0.07778 0.63037 0.00605 0.0
H774 H 0.18584 0.70779 0.02929 0.0
H775 H 0.09586 0.62037 0.03112 0.0
H776 H 0.09233 0.67929 0.07607 0.0
H777 H 0.08582 0.66013 0.05126 0.0
H778 H 0.21033 0.67022 0.04906 0.0
H779 H 0.21622 0.69085 0.07391 0.0
C780 C 0.15306 0.69498 0.0099 0.0
C781 C 0.12163 0.67456 0.00315 0.0
C782 C 0.16306 0.68965 0.0243 0.0
C783 C 0.14204 0.66353 0.03231 0.0
C784 C 0.11233 0.6411 0.02533 0.0
C785 C 0.10216 0.64662 0.01091 0.0
C786 C 0.1184 0.67563 0.07041 0.0
C787 C 0.15476 0.68601 0.07684 0.0
C788 C 0.11477 0.66466 0.05617 0.0
C789 C 0.14751 0.66423 0.04805 0.0
C790 C 0.18445 0.67097 0.05493 0.0
C791 C 0.18798 0.68221 0.06919 0.0
H792 H 0.72629 0.82478 0.27229 0.0
H793 H 0.62374 0.76045 0.25729 0.0
H794 H 0.71813 0.80157 0.29649 0.0
H795 H 0.61538 0.73802 0.28115 0.0
H796 H 0.62176 0.67425 0.32048 0.0
H797 H 0.64943 0.69374 0.29859 0.0
H798 H 0.66789 0.81044 0.31531 0.0
H799 H 0.64084 0.79045 0.3375 0.0
C800 C 0.70215 0.80569 0.27417 0.0
C801 C 0.67545 0.79465 0.26295 0.0
C802 C 0.69745 0.79255 0.28797 0.0
C803 C 0.66641 0.76763 0.29066 0.0
C804 C 0.64001 0.7566 0.27939 0.0
C805 C 0.64446 0.76991 0.26574 0.0
C806 C 0.63278 0.70375 0.31963 0.0
C807 C 0.62868 0.73105 0.33053 0.0
C808 C 0.64846 0.71495 0.3071 0.0
C809 C 0.65982 0.75385 0.30513 0.0
C810 C 0.65925 0.78028 0.31654 0.0
C811 C 0.64376 0.7689 0.32921 0.0
H812 H 0.64445 0.13666 0.50232 0.0
H813 H 0.54375 0.19551 0.51694 0.0
H814 H 0.66877 0.12551 0.52693 0.0
H815 H 0.56784 0.18457 0.54139 0.0
H816 H 0.60671 0.15928 0.5842 0.0
H817 H 0.58549 0.13576 0.56046 0.0
H818 H 0.69379 0.17525 0.54504 0.0
H819 H 0.71461 0.19858 0.56872 0.0
C820 C 0.6272 0.1465 0.5108 0.0
C821 C 0.5925 0.16739 0.50778 0.0
C822 C 0.64108 0.14011 0.52485 0.0
C823 C 0.62013 0.15395 0.53609 0.0
C824 C 0.58437 0.17294 0.53299 0.0
C825 C 0.57082 0.17975 0.519 0.0
C826 C 0.62676 0.16074 0.57588 0.0
C827 C 0.66225 0.18046 0.57818 0.0
C828 C 0.61449 0.14776 0.56228 0.0
C829 C 0.63765 0.15444 0.55085 0.0
C830 C 0.67533 0.16955 0.55361 0.0
C831 C 0.68739 0.18278 0.56718 0.0
H832 H 0.22455 0.25016 0.76047 0.0
H833 H 0.16402 0.35947 0.7655 0.0
H834 H 0.21255 0.23254 0.78472 0.0
H835 H 0.15088 0.34125 0.78958 0.0
H836 H 0.14229 0.30463 0.83482 0.0
H837 H 0.17565 0.32559 0.81407 0.0
H838 H 0.15116 0.2134 0.79426 0.0
H839 H 0.11874 0.19252 0.81497 0.0
C840 C 0.20943 0.27082 0.76684 0.0
C841 C 0.19476 0.30599 0.761 0.0
C842 C 0.20228 0.26057 0.7807 0.0
C843 C 0.18034 0.28526 0.78901 0.0
C844 C 0.16803 0.32164 0.7835 0.0
C845 C 0.17514 0.33188 0.76964 0.0
C846 C 0.14498 0.28426 0.82615 0.0
C847 C 0.12807 0.24697 0.82646 0.0
C848 C 0.1638 0.2963 0.81426 0.0
C849 C 0.166 0.27117 0.80252 0.0
C850 C 0.15051 0.23329 0.80318 0.0
C851 C 0.13161 0.22142 0.81499 0.0
loop_
_geom_bond_atom_site_label_1
_geom_bond_atom_site_label_2
_geom_bond_distance
_geom_bond_site_symmetry_2
_ccdc_geom_bond_type
C0 C1 1.384 . S
C0 H13 0.947 . S
C0 C35 1.382 . S
C1 C0 1.384 . S
C1 C2 1.378 . S
C2 C1 1.378 . S
C2 C3 1.378 . S
C2 H14 0.952 . S
C3 C2 1.378 . S
C3 H15 0.950 . S
C3 C34 1.383 . S
H4 C23 0.947 . S
H5 C24 0.946 . S
H6 C26 0.953 . S
H7 C27 0.945 . S
H8 C29 0.952 . S
H9 C30 0.949 . S
H10 C32 0.950 . S
H11 C33 0.948 . S
H12 C35 0.951 . S
H13 C0 0.947 . S
H14 C2 0.952 . S
H15 C3 0.950 . S
N16 C19 1.382 . S
N16 C21 1.363 . S
N17 C19 1.371 . S
N17 C20 1.372 . S
N18 C20 1.361 . S
N18 C21 1.377 . S
C19 N16 1.382 . S
C19 N17 1.371 . S
C19 C22 1.480 . S
C20 N17 1.372 . S
C20 N18 1.361 . S
C20 C28 1.457 . S
C21 N16 1.363 . S
C21 N18 1.377 . S
C21 C34 1.479 . S
C22 C19 1.480 . S
C22 C23 1.383 . S
C22 C27 1.385 . S
C23 H4 0.947 . S
C23 C22 1.383 . S
C23 C24 1.388 . S
C24 H5 0.946 . S
C24 C23 1.388 . S
C24 C25 1.384 . S
C25 C24 1.384 . S
C25 C26 1.377 . S
C26 H6 0.953 . S
C26 C25 1.377 . S
C26 C27 1.369 . S
C27 H7 0.945 . S
C27 C22 1.385 . S
C27 C26 1.369 . S
C28 C20 1.457 . S
C28 C29 1.372 . S
C28 C33 1.364 . S
C29 H8 0.952 . S
C29 C28 1.372 . S
C29 C30 1.389 . S
C30 H9 0.949 . S
C30 C29 1.389 . S
C30 C31 1.387 . S
C31 C30 1.387 . S
C31 C32 1.372 . S
C32 H10 0.950 . S
C32 C31 1.372 . S
C32 C33 1.379 . S
C33 H11 0.948 . S
C33 C28 1.364 . S
C33 C32 1.379 . S
C34 C3 1.383 . S
C34 C21 1.479 . S
C34 C35 1.398 . S
C35 C0 1.382 . S
C35 H12 0.951 . S
C35 C34 1.398 . S
C36 C37 1.384 . S
C36 H49 0.947 . S
C36 C71 1.382 . S
C37 C36 1.384 . S
C37 C38 1.378 . S
C38 C37 1.378 . S
C38 C39 1.378 . S
C38 H50 0.952 . S
C39 C38 1.378 . S
C39 H51 0.950 . S
C39 C70 1.383 . S
H40 C59 0.947 . S
H41 C60 0.946 . S
H42 C62 0.953 . S
H43 C63 0.945 . S
H44 C65 0.952 . S
H45 C66 0.949 . S
H46 C68 0.950 . S
H47 C69 0.948 . S
H48 C71 0.951 . S
H49 C36 0.947 . S
H50 C38 0.952 . S
H51 C39 0.950 . S
N52 C55 1.382 . S
N52 C57 1.363 . S
N53 C55 1.371 . S
N53 C56 1.372 . S
N54 C56 1.361 . S
N54 C57 1.377 . S
C55 N52 1.382 . S
C55 N53 1.371 . S
C55 C58 1.480 . S
C56 N53 1.372 . S
C56 N54 1.361 . S
C56 C64 1.457 . S
C57 N52 1.363 . S
C57 N54 1.377 . S
C57 C70 1.479 . S
C58 C55 1.480 . S
C58 C59 1.383 . S
C58 C63 1.385 . S
C59 H40 0.947 . S
C59 C58 1.383 . S
C59 C60 1.388 . S
C60 H41 0.946 . S
C60 C59 1.388 . S
C60 C61 1.384 1_455 S
C61 C60 1.384 1_655 S
C61 C62 1.377 . S
C62 H42 0.953 . S
C62 C61 1.377 . S
C62 C63 1.369 1_655 S
C63 H43 0.945 . S
C63 C58 1.385 . S
C63 C62 1.369 1_455 S
C64 C56 1.457 . S
C64 C65 1.372 . S
C64 C69 1.364 . S
C65 H44 0.952 . S
C65 C64 1.372 . S
C65 C66 1.389 . S
C66 H45 0.949 . S
C66 C65 1.389 . S
C66 C67 1.387 . S
C67 C66 1.387 . S
C67 C68 1.372 . S
C68 H46 0.950 . S
C68 C67 1.372 . S
C68 C69 1.379 . S
C69 H47 0.948 . S
C69 C64 1.364 . S
C69 C68 1.379 . S
C70 C39 1.383 . S
C70 C57 1.479 . S
C70 C71 1.398 . S
C71 C36 1.382 . S
C71 H48 0.951 . S
C71 C70 1.398 . S
C72 C73 1.384 . S
C72 H85 0.947 . S
C72 C107 1.382 . S
C73 C72 1.384 . S
C73 C74 1.378 . S
C74 C73 1.378 . S
C74 C75 1.378 . S
C74 H86 0.952 . S
C75 C74 1.378 . S
C75 H87 0.950 . S
C75 C106 1.383 . S
H76 C95 0.947 . S
H77 C96 0.946 . S
H78 C98 0.953 . S
H79 C99 0.945 . S
H80 C101 0.952 . S
H81 C102 0.949 . S
H82 C104 0.950 . S
H83 C105 0.948 . S
H84 C107 0.951 . S
H85 C72 0.947 . S
H86 C74 0.952 . S
H87 C75 0.950 . S
N88 C91 1.382 . S
N88 C93 1.363 . S
N89 C91 1.371 . S
N89 C92 1.372 . S
N90 C92 1.361 . S
N90 C93 1.377 . S
C91 N88 1.382 . S
C91 N89 1.371 . S
C91 C94 1.480 . S
C92 N89 1.372 . S
C92 N90 1.361 . S
C92 C100 1.457 . S
C93 N88 1.363 . S
C93 N90 1.377 . S
C93 C106 1.479 . S
C94 C91 1.480 . S
C94 C95 1.383 . S
C94 C99 1.385 . S
C95 H76 0.947 . S
C95 C94 1.383 . S
C95 C96 1.388 . S
C96 H77 0.946 . S
C96 C95 1.388 . S
C96 C97 1.384 . S
C97 C96 1.384 . S
C97 C98 1.377 . S
C98 H78 0.953 . S
C98 C97 1.377 . S
C98 C99 1.369 . S
C99 H79 0.945 . S
C99 C94 1.385 . S
C99 C98 1.369 . S
C100 C92 1.457 . S
C100 C101 1.372 . S
C100 C105 1.364 . S
C101 H80 0.952 . S
C101 C100 1.372 . S
C101 C102 1.389 . S
C102 H81 0.949 . S
C102 C101 1.389 . S
C102 C103 1.387 . S
C103 C102 1.387 . S
C103 C104 1.372 . S
C104 H82 0.950 . S
C104 C103 1.372 . S
C104 C105 1.379 . S
C105 H83 0.948 . S
C105 C100 1.364 . S
C105 C104 1.379 . S
C106 C75 1.383 . S
C106 C93 1.479 . S
C106 C107 1.398 . S
C107 C72 1.382 . S
C107 H84 0.951 . S
C107 C106 1.398 . S
C108 C109 1.384 . S
C108 H121 0.947 . S
C108 C143 1.382 . S
C109 C108 1.384 . S
C109 C110 1.378 . S
C110 C109 1.378 . S
C110 C111 1.378 . S
C110 H122 0.952 . S
C111 C110 1.378 . S
C111 H123 0.950 . S
C111 C142 1.383 . S
H112 C131 0.947 . S
H113 C132 0.946 . S
H114 C134 0.953 . S
H115 C135 0.945 . S
H116 C137 0.952 . S
H117 C138 0.949 . S
H118 C140 0.950 . S
H119 C141 0.948 . S
H120 C143 0.951 . S
H121 C108 0.947 . S
H122 C110 0.952 . S
H123 C111 0.950 . S
N124 C127 1.382 . S
N124 C129 1.363 . S
N125 C127 1.371 . S
N125 C128 1.372 . S
N126 C128 1.361 . S
N126 C129 1.377 . S
C127 N124 1.382 . S
C127 N125 1.371 . S
C127 C130 1.480 . S
C128 N125 1.372 . S
C128 N126 1.361 . S
C128 C136 1.457 . S
C129 N124 1.363 . S
C129 N126 1.377 . S
C129 C142 1.479 . S
C130 C127 1.480 . S
C130 C131 1.383 . S
C130 C135 1.385 . S
C131 H112 0.947 . S
C131 C130 1.383 . S
C131 C132 1.388 . S
C132 H113 0.946 . S
C132 C131 1.388 . S
C132 C133 1.384 . S
C133 C132 1.384 . S
C133 C134 1.377 . S
C134 H114 0.953 . S
C134 C133 1.377 . S
C134 C135 1.369 . S
C135 H115 0.945 . S
C135 C130 1.385 . S
C135 C134 1.369 . S
C136 C128 1.457 . S
C136 C137 1.372 . S
C136 C141 1.364 . S
C137 H116 0.952 . S
C137 C136 1.372 . S
C137 C138 1.389 . S
C138 H117 0.949 . S
C138 C137 1.389 . S
C138 C139 1.387 . S
C139 C138 1.387 . S
C139 C140 1.372 . S
C140 H118 0.950 . S
C140 C139 1.372 . S
C140 C141 1.379 . S
C141 H119 0.948 . S
C141 C136 1.364 . S
C141 C140 1.379 . S
C142 C111 1.383 . S
C142 C129 1.479 . S
C142 C143 1.398 . S
C143 C108 1.382 . S
C143 H120 0.951 . S
C143 C142 1.398 . S
C144 C145 1.384 . S
C144 H157 0.947 . S
C144 C179 1.382 . S
C145 C144 1.384 . S
C145 C146 1.378 . S
C146 C145 1.378 . S
C146 C147 1.378 . S
C146 H158 0.952 . S
C147 C146 1.378 . S
C147 H159 0.950 . S
C147 C178 1.383 . S
H148 C167 0.947 . S
H149 C168 0.946 . S
H150 C170 0.953 . S
H151 C171 0.945 . S
H152 C173 0.952 . S
H153 C174 0.949 . S
H154 C176 0.950 . S
H155 C177 0.948 . S
H156 C179 0.951 . S
H157 C144 0.947 . S
H158 C146 0.952 . S
H159 C147 0.950 . S
N160 C163 1.382 . S
N160 C165 1.363 . S
N161 C163 1.371 . S
N161 C164 1.372 . S
N162 C164 1.361 . S
N162 C165 1.377 . S
C163 N160 1.382 . S
C163 N161 1.371 . S
C163 C166 1.480 . S
C164 N161 1.372 . S
C164 N162 1.361 . S
C164 C172 1.457 . S
C165 N160 1.363 . S
C165 N162 1.377 . S
C165 C178 1.479 . S
C166 C163 1.480 . S
C166 C167 1.383 . S
C166 C171 1.385 . S
C167 H148 0.947 . S
C167 C166 1.383 . S
C167 C168 1.388 . S
C168 H149 0.946 . S
C168 C167 1.388 . S
C168 C169 1.384 . S
C169 C168 1.384 . S
C169 C170 1.377 . S
C170 H150 0.953 . S
C170 C169 1.377 . S
C170 C171 1.369 . S
C171 H151 0.945 . S
C171 C166 1.385 . S
C171 C170 1.369 . S
C172 C164 1.457 . S
C172 C173 1.372 . S
C172 C177 1.364 . S
C173 H152 0.952 . S
C173 C172 1.372 . S
C173 C174 1.389 . S
C174 H153 0.949 . S
C174 C173 1.389 . S
C174 C175 1.387 . S
C175 C174 1.387 . S
C175 C176 1.372 . S
C176 H154 0.950 . S
C176 C175 1.372 . S
C176 C177 1.379 . S
C177 H155 0.948 . S
C177 C172 1.364 . S
C177 C176 1.379 . S
C178 C147 1.383 . S
C178 C165 1.479 . S
C178 C179 1.398 . S
C179 C144 1.382 . S
C179 H156 0.951 . S
C179 C178 1.398 . S
C180 C181 1.384 . S
C180 H193 0.947 . S
C180 C215 1.382 . S
C181 C180 1.384 . S
C181 C182 1.378 . S
C182 C181 1.378 . S
C182 C183 1.378 . S
C182 H194 0.952 . S
C183 C182 1.378 . S
C183 H195 0.950 . S
C183 C214 1.383 . S
H184 C203 0.947 . S
H185 C204 0.946 . S
H186 C206 0.953 . S
H187 C207 0.945 . S
H188 C209 0.952 . S
H189 C210 0.949 . S
H190 C212 0.950 . S
H191 C213 0.948 . S
H192 C215 0.951 . S
H193 C180 0.947 . S
H194 C182 0.952 . S
H195 C183 0.950 . S
N196 C199 1.382 . S
N196 C201 1.363 . S
N197 C199 1.371 . S
N197 C200 1.372 . S
N198 C200 1.361 . S
N198 C201 1.377 . S
C199 N196 1.382 . S
C199 N197 1.371 . S
C199 C202 1.480 . S
C200 N197 1.372 . S
C200 N198 1.361 . S
C200 C208 1.457 . S
C201 N196 1.363 . S
C201 N198 1.377 . S
C201 C214 1.479 . S
C202 C199 1.480 . S
C202 C203 1.383 . S
C202 C207 1.385 . S
C203 H184 0.947 . S
C203 C202 1.383 . S
C203 C204 1.388 . S
C204 H185 0.946 . S
C204 C203 1.388 . S
C204 C205 1.384 . S
C205 C204 1.384 . S
C205 C206 1.377 . S
C206 H186 0.953 . S
C206 C205 1.377 . S
C206 C207 1.369 . S
C207 H187 0.945 . S
C207 C202 1.385 . S
C207 C206 1.369 . S
C208 C200 1.457 . S
C208 C209 1.372 . S
C208 C213 1.364 . S
C209 H188 0.952 . S
C209 C208 1.372 . S
C209 C210 1.389 . S
C210 H189 0.949 . S
C210 C209 1.389 . S
C210 C211 1.387 . S
C211 C210 1.387 . S
C211 C212 1.372 . S
C212 H190 0.950 . S
C212 C211 1.372 . S
C212 C213 1.379 . S
C213 H191 0.948 . S
C213 C208 1.364 . S
C213 C212 1.379 . S
C214 C183 1.383 . S
C214 C201 1.479 . S
C214 C215 1.398 . S
C215 C180 1.382 . S
C215 H192 0.951 . S
C215 C214 1.398 . S
C216 C217 1.384 . S
C216 H229 0.947 . S
C216 C251 1.382 . S
C217 C216 1.384 . S
C217 C218 1.378 . S
C218 C217 1.378 . S
C218 C219 1.378 . S
C218 H230 0.952 . S
C219 C218 1.378 . S
C219 H231 0.950 . S
C219 C250 1.383 . S
H220 C239 0.947 . S
H221 C240 0.946 . S
H222 C242 0.953 . S
H223 C243 0.945 . S
H224 C245 0.952 . S
H225 C246 0.949 . S
H226 C248 0.950 . S
H227 C249 0.948 . S
H228 C251 0.951 . S
H229 C216 0.947 . S
H230 C218 0.952 . S
H231 C219 0.950 . S
N232 C235 1.382 . S
N232 C237 1.363 . S
N233 C235 1.371 . S
N233 C236 1.372 . S
N234 C236 1.361 . S
N234 C237 1.377 . S
C235 N232 1.382 . S
C235 N233 1.371 . S
C235 C238 1.480 . S
C236 N233 1.372 . S
C236 N234 1.361 . S
C236 C244 1.457 . S
C237 N232 1.363 . S
C237 N234 1.377 . S
C237 C250 1.479 . S
C238 C235 1.480 . S
C238 C239 1.383 . S
C238 C243 1.385 . S
C239 H220 0.947 . S
C239 C238 1.383 . S
C239 C240 1.388 . S
C240 H221 0.946 . S
C240 C239 1.388 . S
C240 C241 1.384 . S
C241 C240 1.384 . S
C241 C242 1.377 . S
C242 H222 0.953 . S
C242 C241 1.377 . S
C242 C243 1.369 . S
C243 H223 0.945 . S
C243 C238 1.385 . S
C243 C242 1.369 . S
C244 C236 1.457 . S
C244 C245 1.372 . S
C244 C249 1.364 . S
C245 H224 0.952 . S
C245 C244 1.372 . S
C245 C246 1.389 . S
C246 H225 0.949 . S
C246 C245 1.389 . S
C246 C247 1.387 . S
C247 C246 1.387 . S
C247 C248 1.372 . S
C248 H226 0.950 . S
C248 C247 1.372 . S
C248 C249 1.379 . S
C249 H227 0.948 . S
C249 C244 1.364 . S
C249 C248 1.379 . S
C250 C219 1.383 . S
C250 C237 1.479 . S
C250 C251 1.398 . S
C251 C216 1.382 . S
C251 H228 0.951 . S
C251 C250 1.398 . S
C252 C253 1.384 1_455 S
C252 H265 0.924 1_455 S
C252 C287 1.405 . S
C253 C252 1.384 1_655 S
C253 C254 1.378 1_655 S
C254 C253 1.378 1_455 S
C254 C255 1.378 . S
C254 H266 0.952 . S
C255 C254 1.378 . S
C255 H267 0.950 . S
C255 C286 1.383 . S
H256 C275 0.947 . S
H257 C276 0.946 . S
H258 C278 0.953 . S
H259 C279 0.945 . S
H260 C281 0.952 . S
H261 C282 0.949 . S
H262 C284 0.950 . S
H263 C285 0.948 . S
H264 C287 0.951 . S
H265 C252 0.924 1_655 S
H266 C254 0.952 . S
H267 C255 0.950 . S
N268 C271 1.382 . S
N268 C273 1.363 . S
N269 C271 1.371 . S
N269 C272 1.372 . S
N270 C272 1.361 . S
N270 C273 1.377 . S
C271 N268 1.382 . S
C271 N269 1.371 . S
C271 C274 1.480 . S
C272 N269 1.372 . S
C272 N270 1.361 . S
C272 C280 1.457 . S
C273 N268 1.363 . S
C273 N270 1.377 . S
C273 C286 1.479 . S
C274 C271 1.480 . S
C274 C275 1.383 . S
C274 C279 1.385 . S
C275 H256 0.947 . S
C275 C274 1.383 . S
C275 C276 1.388 . S
C276 H257 0.946 . S
C276 C275 1.388 . S
C276 C277 1.384 . S
C277 C276 1.384 . S
C277 C278 1.377 . S
C278 H258 0.953 . S
C278 C277 1.377 . S
C278 C279 1.369 . S
C279 H259 0.945 . S
C279 C274 1.385 . S
C279 C278 1.369 . S
C280 C272 1.457 . S
C280 C281 1.372 . S
C280 C285 1.364 . S
C281 H260 0.952 . S
C281 C280 1.372 . S
C281 C282 1.389 . S
C282 H261 0.949 . S
C282 C281 1.389 . S
C282 C283 1.387 . S
C283 C282 1.387 . S
C283 C284 1.372 . S
C284 H262 0.950 . S
C284 C283 1.372 . S
C284 C285 1.379 . S
C285 H263 0.948 . S
C285 C280 1.364 . S
C285 C284 1.379 . S
C286 C255 1.383 . S
C286 C273 1.479 . S
C286 C287 1.398 . S
C287 C252 1.405 . S
C287 H264 0.951 . S
C287 C286 1.398 . S
Zn288 O294 1.920 . S
Zn288 O300 1.898 . S
Zn288 O303 1.905 . S
Zn289 O297 1.905 . S
Zn289 O298 1.898 . S
Zn289 O306 1.920 . S
Zn290 O293 2.080 . S
Zn290 O296 2.114 . S
Zn290 O299 2.120 . S
Zn290 O301 2.120 . S
Zn290 O302 2.114 . S
Zn290 O305 2.080 . S
C291 O296 1.166 . S
C291 O297 1.182 . S
C292 O298 1.167 . S
C292 O299 1.299 . S
O293 Zn290 2.080 . S
O293 C307 1.305 . S
O294 Zn288 1.920 . S
O294 C307 1.234 . S
C295 O300 1.167 . S
C295 O301 1.299 . S
O296 Zn290 2.114 . S
O296 C291 1.166 . S
O297 Zn289 1.905 . S
O297 C291 1.182 . S
O298 Zn289 1.898 . S
O298 C292 1.167 . S
O299 Zn290 2.120 . S
O299 C292 1.299 . S
O300 Zn288 1.898 . S
O300 C295 1.167 . S
O301 Zn290 2.120 . S
O301 C295 1.299 . S
O302 Zn290 2.114 . S
O302 C304 1.166 . S
O303 Zn288 1.905 . S
O303 C304 1.182 . S
C304 O302 1.166 . S
C304 O303 1.182 . S
O305 Zn290 2.080 . S
O305 C308 1.305 . S
O306 Zn289 1.920 . S
O306 C308 1.234 . S
C307 O293 1.305 . S
C307 O294 1.234 . S
C308 O305 1.305 . S
C308 O306 1.234 . S
Zn309 O315 1.920 . S
Zn309 O321 1.898 . S
Zn309 O324 1.905 . S
Zn310 O318 1.905 . S
Zn310 O319 1.898 . S
Zn310 O327 1.920 . S
Zn311 O314 2.080 . S
Zn311 O317 2.114 . S
Zn311 O320 2.120 . S
Zn311 O322 2.120 . S
Zn311 O323 2.114 . S
Zn311 O326 2.080 . S
C312 O317 1.166 . S
C312 O318 1.182 . S
C313 O319 1.167 . S
C313 O320 1.299 . S
O314 Zn311 2.080 . S
O314 C328 1.305 . S
O315 Zn309 1.920 . S
O315 C328 1.234 . S
C316 O321 1.167 . S
C316 O322 1.299 . S
O317 Zn311 2.114 . S
O317 C312 1.166 . S
O318 Zn310 1.905 . S
O318 C312 1.182 . S
O319 Zn310 1.898 . S
O319 C313 1.167 . S
O320 Zn311 2.120 . S
O320 C313 1.299 . S
O321 Zn309 1.898 . S
O321 C316 1.167 . S
O322 Zn311 2.120 . S
O322 C316 1.299 . S
O323 Zn311 2.114 . S
O323 C325 1.166 . S
O324 Zn309 1.905 . S
O324 C325 1.182 . S
C325 O323 1.166 . S
C325 O324 1.182 . S
O326 Zn311 2.080 . S
O326 C329 1.305 . S
O327 Zn310 1.920 . S
O327 C329 1.234 . S
C328 O314 1.305 . S
C328 O315 1.234 . S
C329 O326 1.305 . S
C329 O327 1.234 . S
Zn330 O336 1.920 . S
Zn330 O342 1.898 . S
Zn330 O345 1.905 . S
Zn331 O339 1.905 . S
Zn331 O340 1.898 . S
Zn331 O348 1.920 . S
Zn332 O335 2.080 . S
Zn332 O338 2.114 . S
Zn332 O341 2.120 . S
Zn332 O343 2.120 . S
Zn332 O344 2.114 . S
Zn332 O347 2.080 . S
C333 O338 1.166 . S
C333 O339 1.182 . S
C334 O340 1.167 . S
C334 O341 1.299 . S
O335 Zn332 2.080 . S
O335 C349 1.305 . S
O336 Zn330 1.920 . S
O336 C349 1.234 . S
C337 O342 1.167 . S
C337 O343 1.299 . S
O338 Zn332 2.114 . S
O338 C333 1.166 . S
O339 Zn331 1.905 . S
O339 C333 1.182 . S
O340 Zn331 1.898 . S
O340 C334 1.167 . S
O341 Zn332 2.120 . S
O341 C334 1.299 . S
O342 Zn330 1.898 . S
O342 C337 1.167 . S
O343 Zn332 2.120 . S
O343 C337 1.299 . S
O344 Zn332 2.114 . S
O344 C346 1.166 . S
O345 Zn330 1.905 . S
O345 C346 1.182 . S
C346 O344 1.166 . S
C346 O345 1.182 . S
O347 Zn332 2.080 . S
O347 C350 1.305 . S
O348 Zn331 1.920 . S
O348 C350 1.234 . S
C349 O335 1.305 . S
C349 O336 1.234 . S
C350 O347 1.305 . S
C350 O348 1.234 . S
Zn351 O357 1.920 . S
Zn351 O363 1.898 . S
Zn351 O366 1.905 . S
Zn352 O360 1.905 . S
Zn352 O361 1.898 . S
Zn352 O369 1.920 . S
Zn353 O356 2.080 . S
Zn353 O359 2.114 . S
Zn353 O362 2.120 . S
Zn353 O364 2.120 . S
Zn353 O365 2.114 . S
Zn353 O368 2.080 . S
C354 O359 1.166 . S
C354 O360 1.182 . S
C355 O361 1.167 . S
C355 O362 1.299 . S
O356 Zn353 2.080 . S
O356 C370 1.305 . S
O357 Zn351 1.920 . S
O357 C370 1.234 . S
C358 O363 1.167 . S
C358 O364 1.299 . S
O359 Zn353 2.114 . S
O359 C354 1.166 . S
O360 Zn352 1.905 . S
O360 C354 1.182 . S
O361 Zn352 1.898 . S
O361 C355 1.167 . S
O362 Zn353 2.120 . S
O362 C355 1.299 . S
O363 Zn351 1.898 . S
O363 C358 1.167 . S
O364 Zn353 2.120 . S
O364 C358 1.299 . S
O365 Zn353 2.114 . S
O365 C367 1.166 . S
O366 Zn351 1.905 . S
O366 C367 1.182 . S
C367 O365 1.166 . S
C367 O366 1.182 . S
O368 Zn353 2.080 . S
O368 C371 1.305 . S
O369 Zn352 1.920 . S
O369 C371 1.234 . S
C370 O356 1.305 . S
C370 O357 1.234 . S
C371 O368 1.305 . S
C371 O369 1.234 . S
H372 C380 0.950 . S
H373 C385 0.950 . S
H374 C382 0.950 . S
H375 C384 0.950 . S
H376 C386 0.950 . S
H377 C388 0.950 . S
H378 C390 0.950 . S
H379 C391 0.950 . S
C380 H372 0.950 . S
C380 C381 1.386 . S
C380 C382 1.391 . S
C381 C380 1.386 . S
C381 C385 1.393 . S
C382 H374 0.950 . S
C382 C380 1.391 . S
C382 C383 1.400 . S
C383 C382 1.400 . S
C383 C384 1.398 . S
C383 C389 1.491 . S
C384 H375 0.950 . S
C384 C383 1.398 . S
C384 C385 1.391 . S
C385 H373 0.950 . S
C385 C381 1.393 . S
C385 C384 1.391 . S
C386 H376 0.950 . S
C386 C387 1.386 . S
C386 C388 1.391 . S
C387 C386 1.386 . S
C387 C391 1.393 . S
C388 H377 0.950 . S
C388 C386 1.391 . S
C388 C389 1.400 . S
C389 C383 1.491 . S
C389 C388 1.400 . S
C389 C390 1.398 . S
C390 H378 0.950 . S
C390 C389 1.398 . S
C390 C391 1.391 . S
C391 H379 0.950 . S
C391 C387 1.393 . S
C391 C390 1.391 . S
H392 C400 0.950 . S
H393 C405 0.950 . S
H394 C402 0.950 . S
H395 C404 0.950 . S
H396 C406 0.950 . S
H397 C408 0.950 . S
H398 C410 0.950 . S
H399 C411 0.950 . S
C400 H392 0.950 . S
C400 C401 1.386 . S
C400 C402 1.391 . S
C401 C400 1.386 . S
C401 C405 1.393 . S
C402 H394 0.950 . S
C402 C400 1.391 . S
C402 C403 1.400 . S
C403 C402 1.400 . S
C403 C404 1.398 . S
C403 C409 1.491 . S
C404 H395 0.950 . S
C404 C403 1.398 . S
C404 C405 1.391 . S
C405 H393 0.950 . S
C405 C401 1.393 . S
C405 C404 1.391 . S
C406 H396 0.950 . S
C406 C407 1.386 . S
C406 C408 1.391 . S
C407 C406 1.386 . S
C407 C411 1.393 . S
C408 H397 0.950 . S
C408 C406 1.391 . S
C408 C409 1.400 . S
C409 C403 1.491 . S
C409 C408 1.400 . S
C409 C410 1.398 . S
C410 H398 0.950 . S
C410 C409 1.398 . S
C410 C411 1.391 . S
C411 H399 0.950 . S
C411 C407 1.393 . S
C411 C410 1.391 . S
H412 C420 0.950 . S
H413 C425 0.950 . S
H414 C422 0.950 . S
H415 C424 0.950 . S
H416 C426 0.950 . S
H417 C428 0.950 . S
H418 C430 0.950 . S
H419 C431 0.950 . S
C420 H412 0.950 . S
C420 C421 1.386 . S
C420 C422 1.391 . S
C421 C420 1.386 . S
C421 C425 1.393 . S
C422 H414 0.950 . S
C422 C420 1.391 . S
C422 C423 1.400 . S
C423 C422 1.400 . S
C423 C424 1.398 . S
C423 C429 1.491 . S
C424 H415 0.950 . S
C424 C423 1.398 . S
C424 C425 1.391 . S
C425 H413 0.950 . S
C425 C421 1.393 . S
C425 C424 1.391 . S
C426 H416 0.950 . S
C426 C427 1.386 . S
C426 C428 1.391 . S
C427 C426 1.386 . S
C427 C431 1.393 . S
C428 H417 0.950 . S
C428 C426 1.391 . S
C428 C429 1.400 . S
C429 C423 1.491 . S
C429 C428 1.400 . S
C429 C430 1.398 . S
C430 H418 0.950 . S
C430 C429 1.398 . S
C430 C431 1.391 . S
C431 H419 0.950 . S
C431 C427 1.393 . S
C431 C430 1.391 . S
H432 C440 0.950 . S
H433 C445 0.950 . S
H434 C442 0.950 . S
H435 C444 0.950 . S
H436 C446 0.950 1_455 S
H437 C448 0.950 . S
H438 C450 0.950 . S
H439 C451 0.950 . S
C440 H432 0.950 . S
C440 C441 1.386 . S
C440 C442 1.391 . S
C441 C440 1.386 . S
C441 C445 1.393 . S
C442 H434 0.950 . S
C442 C440 1.391 . S
C442 C443 1.400 . S
C443 C442 1.400 . S
C443 C444 1.398 . S
C443 C449 1.491 . S
C444 H435 0.950 . S
C444 C443 1.398 . S
C444 C445 1.391 . S
C445 H433 0.950 . S
C445 C441 1.393 . S
C445 C444 1.391 . S
C446 H436 0.950 1_655 S
C446 C447 1.386 1_655 S
C446 C448 1.391 . S
C447 C446 1.386 1_455 S
C447 C451 1.393 1_455 S
C448 H437 0.950 . S
C448 C446 1.391 . S
C448 C449 1.400 . S
C449 C443 1.491 . S
C449 C448 1.400 . S
C449 C450 1.398 . S
C450 H438 0.950 . S
C450 C449 1.398 . S
C450 C451 1.391 . S
C451 H439 0.950 . S
C451 C447 1.393 1_655 S
C451 C450 1.391 . S
H452 C460 0.950 . S
H453 C465 0.950 . S
H454 C462 0.950 . S
H455 C464 0.950 . S
H456 C466 0.950 . S
H457 C468 0.950 . S
H458 C470 0.950 . S
H459 C471 0.950 . S
C460 H452 0.950 . S
C460 C461 1.386 . S
C460 C462 1.391 . S
C461 C460 1.386 . S
C461 C465 1.393 . S
C462 H454 0.950 . S
C462 C460 1.391 . S
C462 C463 1.400 . S
C463 C462 1.400 . S
C463 C464 1.398 . S
C463 C469 1.491 . S
C464 H455 0.950 . S
C464 C463 1.398 . S
C464 C465 1.391 . S
C465 H453 0.950 . S
C465 C461 1.393 . S
C465 C464 1.391 . S
C466 H456 0.950 . S
C466 C467 1.386 . S
C466 C468 1.391 . S
C467 C466 1.386 . S
C467 C471 1.393 . S
C468 H457 0.950 . S
C468 C466 1.391 . S
C468 C469 1.400 . S
C469 C463 1.491 . S
C469 C468 1.400 . S
C469 C470 1.398 . S
C470 H458 0.950 . S
C470 C469 1.398 . S
C470 C471 1.391 . S
C471 H459 0.950 . S
C471 C467 1.393 . S
C471 C470 1.391 . S
H472 C480 0.950 . S
H473 C485 0.950 . S
H474 C482 0.950 . S
H475 C484 0.950 . S
H476 C486 0.962 . S
H477 C488 0.950 . S
H478 C490 0.950 . S
H479 C491 0.950 1_455 S
C480 H472 0.950 . S
C480 C481 1.386 . S
C480 C482 1.391 . S
C481 C480 1.386 . S
C481 C485 1.393 . S
C482 H474 0.950 . S
C482 C480 1.391 . S
C482 C483 1.400 . S
C483 C482 1.400 . S
C483 C484 1.398 . S
C483 C489 1.491 . S
C484 H475 0.950 . S
C484 C483 1.398 . S
C484 C485 1.391 . S
C485 H473 0.950 . S
C485 C481 1.393 . S
C485 C484 1.391 . S
C486 H476 0.962 . S
C486 C487 1.386 1_655 S
C486 C488 1.391 . S
C487 C486 1.386 1_455 S
C487 C491 1.393 1_455 S
C488 H477 0.950 . S
C488 C486 1.391 . S
C488 C489 1.400 . S
C489 C483 1.491 . S
C489 C488 1.400 . S
C489 C490 1.398 . S
C490 H478 0.950 . S
C490 C489 1.398 . S
C490 C491 1.391 . S
C491 H479 0.950 1_655 S
C491 C487 1.393 1_655 S
C491 C490 1.391 . S
H492 C500 0.950 . S
H493 C505 0.950 . S
H494 C502 0.950 . S
H495 C504 0.950 . S
H496 C506 0.950 . S
H497 C508 0.950 . S
H498 C510 0.950 . S
H499 C511 0.950 . S
C500 H492 0.950 . S
C500 C501 1.386 . S
C500 C502 1.391 . S
C501 C500 1.386 . S
C501 C505 1.393 . S
C502 H494 0.950 . S
C502 C500 1.391 . S
C502 C503 1.400 . S
C503 C502 1.400 . S
C503 C504 1.398 . S
C503 C509 1.491 . S
C504 H495 0.950 . S
C504 C503 1.398 . S
C504 C505 1.391 . S
C505 H493 0.950 . S
C505 C501 1.393 . S
C505 C504 1.391 . S
C506 H496 0.950 . S
C506 C507 1.386 . S
C506 C508 1.391 . S
C507 C506 1.386 . S
C507 C511 1.393 . S
C508 H497 0.950 . S
C508 C506 1.391 . S
C508 C509 1.400 . S
C509 C503 1.491 . S
C509 C508 1.400 . S
C509 C510 1.398 . S
C510 H498 0.950 . S
C510 C509 1.398 . S
C510 C511 1.391 . S
C511 H499 0.950 . S
C511 C507 1.393 . S
C511 C510 1.391 . S
H512 C520 0.950 . S
H513 C525 0.950 . S
H514 C522 0.950 . S
H515 C524 0.950 . S
H516 C526 0.950 . S
H517 C528 0.950 . S
H518 C530 0.950 . S
H519 C531 0.950 . S
C520 H512 0.950 . S
C520 C521 1.386 . S
C520 C522 1.391 . S
C521 C520 1.386 . S
C521 C525 1.393 . S
C522 H514 0.950 . S
C522 C520 1.391 . S
C522 C523 1.400 . S
C523 C522 1.400 . S
C523 C524 1.398 . S
C523 C529 1.491 . S
C524 H515 0.950 . S
C524 C523 1.398 . S
C524 C525 1.391 . S
C525 H513 0.950 . S
C525 C521 1.393 . S
C525 C524 1.391 . S
C526 H516 0.950 . S
C526 C527 1.386 . S
C526 C528 1.391 . S
C527 C526 1.386 . S
C527 C531 1.393 . S
C528 H517 0.950 . S
C528 C526 1.391 . S
C528 C529 1.400 . S
C529 C523 1.491 . S
C529 C528 1.400 . S
C529 C530 1.398 . S
C530 H518 0.950 . S
C530 C529 1.398 . S
C530 C531 1.391 . S
C531 H519 0.950 . S
C531 C527 1.393 . S
C531 C530 1.391 . S
H532 C540 0.950 . S
H533 C545 0.950 . S
H534 C542 0.950 . S
H535 C544 0.950 . S
H536 C546 0.950 . S
H537 C548 0.950 . S
H538 C550 0.950 . S
H539 C551 0.950 . S
C540 H532 0.950 . S
C540 C541 1.386 . S
C540 C542 1.391 . S
C541 C540 1.386 . S
C541 C545 1.393 . S
C542 H534 0.950 . S
C542 C540 1.391 . S
C542 C543 1.400 . S
C543 C542 1.400 . S
C543 C544 1.398 . S
C543 C549 1.491 . S
C544 H535 0.950 . S
C544 C543 1.398 . S
C544 C545 1.391 . S
C545 H533 0.950 . S
C545 C541 1.393 . S
C545 C544 1.391 . S
C546 H536 0.950 . S
C546 C547 1.386 . S
C546 C548 1.391 . S
C547 C546 1.386 . S
C547 C551 1.393 . S
C548 H537 0.950 . S
C548 C546 1.391 . S
C548 C549 1.400 . S
C549 C543 1.491 . S
C549 C548 1.400 . S
C549 C550 1.398 . S
C550 H538 0.950 . S
C550 C549 1.398 . S
C550 C551 1.391 . S
C551 H539 0.950 . S
C551 C547 1.393 . S
C551 C550 1.391 . S
H552 C560 0.950 . S
H553 C565 0.950 . S
H554 C562 0.950 . S
H555 C564 0.950 . S
H556 C566 0.950 . S
H557 C568 0.950 . S
H558 C570 0.950 . S
H559 C571 0.950 . S
C560 H552 0.950 . S
C560 C561 1.386 . S
C560 C562 1.391 . S
C561 C560 1.386 . S
C561 C565 1.393 . S
C562 H554 0.950 . S
C562 C560 1.391 . S
C562 C563 1.400 . S
C563 C562 1.400 . S
C563 C564 1.398 . S
C563 C569 1.491 . S
C564 H555 0.950 . S
C564 C563 1.398 . S
C564 C565 1.391 . S
C565 H553 0.950 . S
C565 C561 1.393 . S
C565 C564 1.391 . S
C566 H556 0.950 . S
C566 C567 1.386 . S
C566 C568 1.391 . S
C567 C566 1.386 . S
C567 C571 1.393 . S
C568 H557 0.950 . S
C568 C566 1.391 . S
C568 C569 1.400 . S
C569 C563 1.491 . S
C569 C568 1.400 . S
C569 C570 1.398 . S
C570 H558 0.950 . S
C570 C569 1.398 . S
C570 C571 1.391 . S
C571 H559 0.950 . S
C571 C567 1.393 . S
C571 C570 1.391 . S
H572 C580 0.950 . S
H573 C585 0.950 . S
H574 C582 0.950 . S
H575 C584 0.950 . S
H576 C586 0.950 . S
H577 C588 0.950 . S
H578 C590 0.950 . S
H579 C591 0.950 . S
C580 H572 0.950 . S
C580 C581 1.386 . S
C580 C582 1.391 . S
C581 C580 1.386 . S
C581 C585 1.393 . S
C582 H574 0.950 . S
C582 C580 1.391 . S
C582 C583 1.400 . S
C583 C582 1.400 . S
C583 C584 1.398 . S
C583 C589 1.491 . S
C584 H575 0.950 . S
C584 C583 1.398 . S
C584 C585 1.391 . S
C585 H573 0.950 . S
C585 C581 1.393 . S
C585 C584 1.391 . S
C586 H576 0.950 . S
C586 C587 1.386 . S
C586 C588 1.391 . S
C587 C586 1.386 . S
C587 C591 1.393 . S
C588 H577 0.950 . S
C588 C586 1.391 . S
C588 C589 1.400 . S
C589 C583 1.491 . S
C589 C588 1.400 . S
C589 C590 1.398 . S
C590 H578 0.950 . S
C590 C589 1.398 . S
C590 C591 1.391 . S
C591 H579 0.950 . S
C591 C587 1.393 . S
C591 C590 1.391 . S
H592 C600 0.950 . S
H593 C605 0.950 . S
H594 C602 0.950 . S
H595 C604 0.950 . S
H596 C606 0.950 . S
H597 C608 0.950 . S
H598 C610 0.950 . S
H599 C611 0.950 . S
C600 H592 0.950 . S
C600 C601 1.386 . S
C600 C602 1.391 . S
C601 C600 1.386 . S
C601 C605 1.393 . S
C602 H594 0.950 . S
C602 C600 1.391 . S
C602 C603 1.400 . S
C603 C602 1.400 . S
C603 C604 1.398 . S
C603 C609 1.491 . S
C604 H595 0.950 . S
C604 C603 1.398 . S
C604 C605 1.391 . S
C605 H593 0.950 . S
C605 C601 1.393 . S
C605 C604 1.391 . S
C606 H596 0.950 . S
C606 C607 1.386 . S
C606 C608 1.391 . S
C607 C606 1.386 . S
C607 C611 1.393 . S
C608 H597 0.950 . S
C608 C606 1.391 . S
C608 C609 1.400 . S
C609 C603 1.491 . S
C609 C608 1.400 . S
C609 C610 1.398 . S
C610 H598 0.950 . S
C610 C609 1.398 . S
C610 C611 1.391 . S
C611 H599 0.950 . S
C611 C607 1.393 . S
C611 C610 1.391 . S
H612 C620 0.950 . S
H613 C625 0.950 . S
H614 C622 0.950 1_545 S
H615 C624 0.950 . S
H616 C626 0.950 . S
H617 C628 0.950 . S
H618 C630 0.950 . S
H619 C631 0.950 . S
C620 H612 0.950 . S
C620 C621 1.386 . S
C620 C622 1.391 . S
C621 C620 1.386 . S
C621 C625 1.393 . S
C622 H614 0.950 1_565 S
C622 C620 1.391 . S
C622 C623 1.400 . S
C623 C622 1.400 . S
C623 C624 1.398 . S
C623 C629 1.491 1_565 S
C624 H615 0.950 . S
C624 C623 1.398 . S
C624 C625 1.391 . S
C625 H613 0.950 . S
C625 C621 1.393 . S
C625 C624 1.391 . S
C626 H616 0.950 . S
C626 C627 1.386 . S
C626 C628 1.391 . S
C627 C626 1.386 . S
C627 C631 1.393 . S
C628 H617 0.950 . S
C628 C626 1.391 . S
C628 C629 1.400 . S
C629 C623 1.491 1_545 S
C629 C628 1.400 . S
C629 C630 1.398 . S
C630 H618 0.950 . S
C630 C629 1.398 . S
C630 C631 1.391 . S
C631 H619 0.950 . S
C631 C627 1.393 . S
C631 C630 1.391 . S
H632 C640 0.950 . S
H633 C645 0.950 . S
H634 C642 0.950 . S
H635 C644 0.960 . S
H636 C646 0.950 . S
H637 C648 0.950 . S
H638 C650 0.950 . S
H639 C651 0.950 . S
C640 H632 0.950 . S
C640 C641 1.386 . S
C640 C642 1.391 . S
C641 C640 1.386 . S
C641 C645 1.393 . S
C642 H634 0.950 . S
C642 C640 1.391 . S
C642 C643 1.400 1_545 S
C643 C642 1.400 1_565 S
C643 C644 1.404 . S
C643 C649 1.491 . S
C644 H635 0.960 . S
C644 C643 1.404 . S
C644 C645 1.375 1_565 S
C645 H633 0.950 . S
C645 C641 1.393 . S
C645 C644 1.375 1_545 S
C646 H636 0.950 . S
C646 C647 1.386 . S
C646 C648 1.391 . S
C647 C646 1.386 . S
C647 C651 1.393 . S
C648 H637 0.950 . S
C648 C646 1.391 . S
C648 C649 1.400 . S
C649 C643 1.491 . S
C649 C648 1.400 . S
C649 C650 1.398 . S
C650 H638 0.950 . S
C650 C649 1.398 . S
C650 C651 1.391 . S
C651 H639 0.950 . S
C651 C647 1.393 . S
C651 C650 1.391 . S
H652 C660 0.950 . S
H653 C665 0.950 . S
H654 C662 0.950 . S
H655 C664 0.950 . S
H656 C666 0.950 . S
H657 C668 0.950 . S
H658 C670 0.950 . S
H659 C671 0.950 . S
C660 H652 0.950 . S
C660 C661 1.386 . S
C660 C662 1.391 . S
C661 C660 1.386 . S
C661 C665 1.393 . S
C662 H654 0.950 . S
C662 C660 1.391 . S
C662 C663 1.400 1_545 S
C663 C662 1.400 1_565 S
C663 C664 1.398 . S
C663 C669 1.491 . S
C664 H655 0.950 . S
C664 C663 1.398 . S
C664 C665 1.391 1_565 S
C665 H653 0.950 . S
C665 C661 1.393 . S
C665 C664 1.391 1_545 S
C666 H656 0.950 . S
C666 C667 1.386 . S
C666 C668 1.391 . S
C667 C666 1.386 . S
C667 C671 1.393 . S
C668 H657 0.950 . S
C668 C666 1.391 . S
C668 C669 1.400 . S
C669 C663 1.491 . S
C669 C668 1.400 . S
C669 C670 1.398 . S
C670 H658 0.950 . S
C670 C669 1.398 . S
C670 C671 1.391 . S
C671 H659 0.950 . S
C671 C667 1.393 . S
C671 C670 1.391 . S
H672 C680 0.950 . S
H673 C685 0.950 . S
H674 C682 0.950 1_545 S
H675 C684 0.950 . S
H676 C686 0.950 . S
H677 C688 0.950 . S
H678 C690 0.950 . S
H679 C691 0.950 . S
C680 H672 0.950 . S
C680 C681 1.386 . S
C680 C682 1.391 . S
C681 C680 1.386 . S
C681 C685 1.393 . S
C682 H674 0.950 1_565 S
C682 C680 1.391 . S
C682 C683 1.400 . S
C683 C682 1.400 . S
C683 C684 1.398 . S
C683 C689 1.491 1_565 S
C684 H675 0.950 . S
C684 C683 1.398 . S
C684 C685 1.391 . S
C685 H673 0.950 . S
C685 C681 1.393 . S
C685 C684 1.391 . S
C686 H676 0.950 . S
C686 C687 1.386 . S
C686 C688 1.391 . S
C687 C686 1.386 . S
C687 C691 1.393 . S
C688 H677 0.950 . S
C688 C686 1.391 . S
C688 C689 1.400 . S
C689 C683 1.491 1_545 S
C689 C688 1.400 . S
C689 C690 1.398 . S
C690 H678 0.950 . S
C690 C689 1.398 . S
C690 C691 1.391 . S
C691 H679 0.950 . S
C691 C687 1.393 . S
C691 C690 1.391 . S
H692 C700 0.950 . S
H693 C705 0.950 . S
H694 C702 0.950 . S
H695 C704 0.950 . S
H696 C706 0.950 . S
H697 C708 0.950 . S
H698 C710 0.950 . S
H699 C711 0.950 . S
C700 H692 0.950 . S
C700 C701 1.386 . S
C700 C702 1.391 . S
C701 C700 1.386 . S
C701 C705 1.393 . S
C702 H694 0.950 . S
C702 C700 1.391 . S
C702 C703 1.400 . S
C703 C702 1.400 . S
C703 C704 1.398 . S
C703 C709 1.491 . S
C704 H695 0.950 . S
C704 C703 1.398 . S
C704 C705 1.391 . S
C705 H693 0.950 . S
C705 C701 1.393 . S
C705 C704 1.391 . S
C706 H696 0.950 . S
C706 C707 1.386 . S
C706 C708 1.391 . S
C707 C706 1.386 . S
C707 C711 1.393 . S
C708 H697 0.950 . S
C708 C706 1.391 . S
C708 C709 1.400 . S
C709 C703 1.491 . S
C709 C708 1.400 . S
C709 C710 1.398 . S
C710 H698 0.950 . S
C710 C709 1.398 . S
C710 C711 1.391 . S
C711 H699 0.950 . S
C711 C707 1.393 . S
C711 C710 1.391 . S
H712 C720 0.950 . S
H713 C725 0.950 . S
H714 C722 0.950 . S
H715 C724 0.950 . S
H716 C726 0.950 . S
H717 C728 0.950 . S
H718 C730 0.950 . S
H719 C731 0.950 . S
C720 H712 0.950 . S
C720 C721 1.386 . S
C720 C722 1.391 . S
C721 C720 1.386 . S
C721 C725 1.393 . S
C722 H714 0.950 . S
C722 C720 1.391 . S
C722 C723 1.400 . S
C723 C722 1.400 . S
C723 C724 1.398 . S
C723 C729 1.491 . S
C724 H715 0.950 . S
C724 C723 1.398 . S
C724 C725 1.391 . S
C725 H713 0.950 . S
C725 C721 1.393 . S
C725 C724 1.391 . S
C726 H716 0.950 . S
C726 C727 1.386 . S
C726 C728 1.391 . S
C727 C726 1.386 . S
C727 C731 1.393 . S
C728 H717 0.950 . S
C728 C726 1.391 . S
C728 C729 1.400 . S
C729 C723 1.491 . S
C729 C728 1.400 . S
C729 C730 1.398 . S
C730 H718 0.950 . S
C730 C729 1.398 . S
C730 C731 1.391 . S
C731 H719 0.950 . S
C731 C727 1.393 . S
C731 C730 1.391 . S
H732 C740 0.950 . S
H733 C745 0.950 . S
H734 C742 0.950 . S
H735 C744 0.950 . S
H736 C746 0.950 . S
H737 C748 0.950 . S
H738 C750 0.950 . S
H739 C751 0.950 . S
C740 H732 0.950 . S
C740 C741 1.386 . S
C740 C742 1.391 . S
C741 C740 1.386 . S
C741 C745 1.393 . S
C742 H734 0.950 . S
C742 C740 1.391 . S
C742 C743 1.400 . S
C743 C742 1.400 . S
C743 C744 1.398 . S
C743 C749 1.491 . S
C744 H735 0.950 . S
C744 C743 1.398 . S
C744 C745 1.391 . S
C745 H733 0.950 . S
C745 C741 1.393 . S
C745 C744 1.391 . S
C746 H736 0.950 . S
C746 C747 1.386 . S
C746 C748 1.391 . S
C747 C746 1.386 . S
C747 C751 1.393 . S
C748 H737 0.950 . S
C748 C746 1.391 . S
C748 C749 1.400 . S
C749 C743 1.491 . S
C749 C748 1.400 . S
C749 C750 1.398 . S
C750 H738 0.950 . S
C750 C749 1.398 . S
C750 C751 1.391 . S
C751 H739 0.950 . S
C751 C747 1.393 . S
C751 C750 1.391 . S
H752 C760 0.950 . S
H753 C765 0.950 . S
H754 C762 0.950 . S
H755 C764 0.950 . S
H756 C766 0.950 . S
H757 C768 0.950 . S
H758 C770 0.950 . S
H759 C771 0.950 . S
C760 H752 0.950 . S
C760 C761 1.386 . S
C760 C762 1.391 . S
C761 C760 1.386 . S
C761 C765 1.393 . S
C762 H754 0.950 . S
C762 C760 1.391 . S
C762 C763 1.400 . S
C763 C762 1.400 . S
C763 C764 1.398 . S
C763 C769 1.491 . S
C764 H755 0.950 . S
C764 C763 1.398 . S
C764 C765 1.391 . S
C765 H753 0.950 . S
C765 C761 1.393 . S
C765 C764 1.391 . S
C766 H756 0.950 . S
C766 C767 1.386 . S
C766 C768 1.391 . S
C767 C766 1.386 . S
C767 C771 1.393 . S
C768 H757 0.950 . S
C768 C766 1.391 . S
C768 C769 1.400 . S
C769 C763 1.491 . S
C769 C768 1.400 . S
C769 C770 1.398 . S
C770 H758 0.950 . S
C770 C769 1.398 . S
C770 C771 1.391 . S
C771 H759 0.950 . S
C771 C767 1.393 . S
C771 C770 1.391 . S
H772 C780 0.950 . S
H773 C785 0.950 . S
H774 C782 0.950 . S
H775 C784 0.950 . S
H776 C786 0.950 . S
H777 C788 0.950 . S
H778 C790 0.950 . S
H779 C791 0.950 . S
C780 H772 0.950 . S
C780 C781 1.386 . S
C780 C782 1.391 . S
C781 C780 1.386 . S
C781 C785 1.393 . S
C782 H774 0.950 . S
C782 C780 1.391 . S
C782 C783 1.400 . S
C783 C782 1.400 . S
C783 C784 1.398 . S
C783 C789 1.491 . S
C784 H775 0.950 . S
C784 C783 1.398 . S
C784 C785 1.391 . S
C785 H773 0.950 . S
C785 C781 1.393 . S
C785 C784 1.391 . S
C786 H776 0.950 . S
C786 C787 1.386 . S
C786 C788 1.391 . S
C787 C786 1.386 . S
C787 C791 1.393 . S
C788 H777 0.950 . S
C788 C786 1.391 . S
C788 C789 1.400 . S
C789 C783 1.491 . S
C789 C788 1.400 . S
C789 C790 1.398 . S
C790 H778 0.950 . S
C790 C789 1.398 . S
C790 C791 1.391 . S
C791 H779 0.950 . S
C791 C787 1.393 . S
C791 C790 1.391 . S
H792 C800 0.950 . S
H793 C805 0.950 . S
H794 C802 0.950 . S
H795 C804 0.950 . S
H796 C806 0.950 . S
H797 C808 0.950 . S
H798 C810 0.950 . S
H799 C811 0.950 . S
C800 H792 0.950 . S
C800 C801 1.386 . S
C800 C802 1.391 . S
C801 C800 1.386 . S
C801 C805 1.393 . S
C802 H794 0.950 . S
C802 C800 1.391 . S
C802 C803 1.400 . S
C803 C802 1.400 . S
C803 C804 1.398 . S
C803 C809 1.491 . S
C804 H795 0.950 . S
C804 C803 1.398 . S
C804 C805 1.391 . S
C805 H793 0.950 . S
C805 C801 1.393 . S
C805 C804 1.391 . S
C806 H796 0.950 . S
C806 C807 1.386 . S
C806 C808 1.391 . S
C807 C806 1.386 . S
C807 C811 1.393 . S
C808 H797 0.950 . S
C808 C806 1.391 . S
C808 C809 1.400 . S
C809 C803 1.491 . S
C809 C808 1.400 . S
C809 C810 1.398 . S
C810 H798 0.950 . S
C810 C809 1.398 . S
C810 C811 1.391 . S
C811 H799 0.950 . S
C811 C807 1.393 . S
C811 C810 1.391 . S
H812 C820 0.950 . S
H813 C825 0.950 . S
H814 C822 0.950 . S
H815 C824 0.950 . S
H816 C826 0.950 . S
H817 C828 0.950 . S
H818 C830 0.950 . S
H819 C831 0.950 . S
C820 H812 0.950 . S
C820 C821 1.386 . S
C820 C822 1.391 . S
C821 C820 1.386 . S
C821 C825 1.393 . S
C822 H814 0.950 . S
C822 C820 1.391 . S
C822 C823 1.400 . S
C823 C822 1.400 . S
C823 C824 1.398 . S
C823 C829 1.491 . S
C824 H815 0.950 . S
C824 C823 1.398 . S
C824 C825 1.391 . S
C825 H813 0.950 . S
C825 C821 1.393 . S
C825 C824 1.391 . S
C826 H816 0.950 . S
C826 C827 1.386 . S
C826 C828 1.391 . S
C827 C826 1.386 . S
C827 C831 1.393 . S
C828 H817 0.950 . S
C828 C826 1.391 . S
C828 C829 1.400 . S
C829 C823 1.491 . S
C829 C828 1.400 . S
C829 C830 1.398 . S
C830 H818 0.950 . S
C830 C829 1.398 . S
C830 C831 1.391 . S
C831 H819 0.950 . S
C831 C827 1.393 . S
C831 C830 1.391 . S
H832 C840 0.950 . S
H833 C845 0.950 . S
H834 C842 0.950 . S
H835 C844 0.950 . S
H836 C846 0.950 . S
H837 C848 0.950 . S
H838 C850 0.950 . S
H839 C851 0.950 . S
C840 H832 0.950 . S
C840 C841 1.386 . S
C840 C842 1.391 . S
C841 C840 1.386 . S
C841 C845 1.393 . S
C842 H834 0.950 . S
C842 C840 1.391 . S
C842 C843 1.400 . S
C843 C842 1.400 . S
C843 C844 1.398 . S
C843 C849 1.491 . S
C844 H835 0.950 . S
C844 C843 1.398 . S
C844 C845 1.391 . S
C845 H833 0.950 . S
C845 C841 1.393 . S
C845 C844 1.391 . S
C846 H836 0.950 . S
C846 C847 1.386 . S
C846 C848 1.391 . S
C847 C846 1.386 . S
C847 C851 1.393 . S
C848 H837 0.950 . S
C848 C846 1.391 . S
C848 C849 1.400 . S
C849 C843 1.491 . S
C849 C848 1.400 . S
C849 C850 1.398 . S
C850 H838 0.950 . S
C850 C849 1.398 . S
C850 C851 1.391 . S
C851 H839 0.950 . S
C851 C847 1.393 . S
C851 C850 1.391 . S
C387 C295 1.529 . S
C381 C1 1.674 . S
C407 C313 1.307 . S
C401 C61 1.383 . S
C421 C97 1.390 . S
C427 C337 1.322 . S
C447 C367 1.341 . S
C441 C109 1.456 . S
C467 C355 1.342 . S
C461 C145 1.391 . S
C481 C205 1.401 . S
C487 C308 1.337 . S
C501 C241 1.607 . S
C507 C328 1.504 . S
C521 C253 1.465 . S
C527 C333 1.298 . S
C541 C277 1.385 . S
C547 C349 1.313 . S
C561 C181 1.467 . S
C567 C304 1.295 . S
C587 C371 1.309 . S
C581 C133 1.382 . S
C607 C316 1.302 . S
C601 C37 1.467 . S
C621 C73 1.657 . S
C627 C334 1.486 . S
C641 C25 1.408 . S
C647 C292 1.342 . S
C667 C312 1.329 . S
C661 C217 1.383 . S
C687 C358 1.491 . S
C681 C169 1.609 . S
C707 C354 1.306 . S
C701 C31 1.513 1_556 S
C727 C307 1.372 . S
C721 C67 1.428 . S
C741 C103 1.496 . S
C747 C329 1.330 . S
C761 C139 1.458 . S
C767 C350 1.352 . S
C787 C291 1.350 . S
C781 C175 1.495 1_554 S
C801 C211 1.475 . S
C807 C325 1.409 . S
C827 C346 1.359 . S
C821 C247 1.504 . S
C847 C370 1.362 . S
C841 C283 1.461 . S
