# Generated by pormake.
# Topology zzz, (3,6)-cn, num edge types: 1
# Building blocks:
#     Node 0, Type 0, BuildingBlock: BELTOD_clean_linker_0, # of connection points: 3
#     Node 1, Type 0, BuildingBlock: BELTOD_clean_linker_0, # of connection points: 3
#     Node 2, Type 0, BuildingBlock: BELTOD_clean_linker_0, # of connection points: 3
#     Node 3, Type 0, BuildingBlock: BELTOD_clean_linker_0, # of connection points: 3
#     Node 4, Type 0, BuildingBlock: BELTOD_clean_linker_0, # of connection points: 3
#     Node 5, Type 0, BuildingBlock: BELTOD_clean_linker_0, # of connection points: 3
#     Node 6, Type 0, BuildingBlock: BELTOD_clean_linker_0, # of connection points: 3
#     Node 7, Type 0, BuildingBlock: BELTOD_clean_linker_0, # of connection points: 3
#     Node 8, Type 1, BuildingBlock: KUMBOL_clean_sbu_1, # of connection points: 6
#     Node 9, Type 1, BuildingBlock: KUMBOL_clean_sbu_1, # of connection points: 6
#     Node 10, Type 1, BuildingBlock: KUMBOL_clean_sbu_1, # of connection points: 6
#     Node 11, Type 1, BuildingBlock: KUMBOL_clean_sbu_1, # of connection points: 6
#     Edge 12, Type (0, 1), BuildingBlock: EZIPEK_clean_linker_0, # of connection points: 2
#     Edge 13, Type (0, 1), BuildingBlock: EZIPEK_clean_linker_0, # of connection points: 2
#     Edge 14, Type (0, 1), BuildingBlock: EZIPEK_clean_linker_0, # of connection points: 2
#     Edge 15, Type (0, 1), BuildingBlock: EZIPEK_clean_linker_0, # of connection points: 2
#     Edge 16, Type (0, 1), BuildingBlock: EZIPEK_clean_linker_0, # of connection points: 2
#     Edge 17, Type (0, 1), BuildingBlock: EZIPEK_clean_linker_0, # of connection points: 2
#     Edge 18, Type (0, 1), BuildingBlock: EZIPEK_clean_linker_0, # of connection points: 2
#     Edge 19, Type (0, 1), BuildingBlock: EZIPEK_clean_linker_0, # of connection points: 2
#     Edge 20, Type (0, 1), BuildingBlock: EZIPEK_clean_linker_0, # of connection points: 2
#     Edge 21, Type (0, 1), BuildingBlock: EZIPEK_clean_linker_0, # of connection points: 2
#     Edge 22, Type (0, 1), BuildingBlock: EZIPEK_clean_linker_0, # of connection points: 2
#     Edge 23, Type (0, 1), BuildingBlock: EZIPEK_clean_linker_0, # of connection points: 2
#     Edge 24, Type (0, 1), BuildingBlock: EZIPEK_clean_linker_0, # of connection points: 2
#     Edge 25, Type (0, 1), BuildingBlock: EZIPEK_clean_linker_0, # of connection points: 2
#     Edge 26, Type (0, 1), BuildingBlock: EZIPEK_clean_linker_0, # of connection points: 2
#     Edge 27, Type (0, 1), BuildingBlock: EZIPEK_clean_linker_0, # of connection points: 2
#     Edge 28, Type (0, 1), BuildingBlock: EZIPEK_clean_linker_0, # of connection points: 2
#     Edge 29, Type (0, 1), BuildingBlock: EZIPEK_clean_linker_0, # of connection points: 2
#     Edge 30, Type (0, 1), BuildingBlock: EZIPEK_clean_linker_0, # of connection points: 2
#     Edge 31, Type (0, 1), BuildingBlock: EZIPEK_clean_linker_0, # of connection points: 2
#     Edge 32, Type (0, 1), BuildingBlock: EZIPEK_clean_linker_0, # of connection points: 2
#     Edge 33, Type (0, 1), BuildingBlock: EZIPEK_clean_linker_0, # of connection points: 2
#     Edge 34, Type (0, 1), BuildingBlock: EZIPEK_clean_linker_0, # of connection points: 2
#     Edge 35, Type (0, 1), BuildingBlock: EZIPEK_clean_linker_0, # of connection points: 2
# Relax obj value: 0.350
# Max RMSD: 0.189
# Mean RMSD: 0.175
data_MOF--net-zzz--node1-KUMBOL_clean_sbu_1--node2-BELTOD_clean_linker_0--edge1-EZIPEK_clean_linker_0
_symmetry_space_group_name_H-M    P1
_symmetry_Int_Tables_number       1
_symmetry_cell_setting            triclinic
loop_
_symmetry_equiv_pos_as_xyz
'x, y, z'
_cell_length_a     40.38631
_cell_length_b     40.711227
_cell_length_c     15.139152
_cell_angle_alpha  89.823971
_cell_angle_beta   89.647228
_cell_angle_gamma 90.463971
loop_
_atom_site_label
_atom_site_type_symbol
_atom_site_fract_x
_atom_site_fract_y
_atom_site_fract_z
_atom_type_partial_charge
P0 P 0.73293 0.48756 0.32578 0.0
H1 H 0.7612 0.461 0.48753 0.0
H2 H 0.81394 0.46873 0.5624 0.0
H3 H 0.83835 0.54866 0.38619 0.0
H4 H 0.78463 0.54114 0.3106 0.0
H5 H 0.66137 0.49911 0.34721 0.0
H6 H 0.62002 0.51202 0.23544 0.0
H7 H 0.69732 0.54511 0.05858 0.0
H8 H 0.73904 0.53177 0.17035 0.0
H9 H 0.69977 0.44326 0.20396 0.0
H10 H 0.79939 0.47932 0.24549 0.0
O11 O 0.71013 0.4624 0.38925 0.0
H12 H 0.71713 0.42037 0.06097 0.0
H13 H 0.81629 0.45655 0.10432 0.0
C14 C 0.76812 0.50088 0.39379 0.0
C15 C 0.77713 0.48102 0.46606 0.0
C16 C 0.8076 0.48521 0.50888 0.0
C17 C 0.83043 0.50918 0.48028 0.0
C18 C 0.82119 0.53002 0.40997 0.0
C19 C 0.79032 0.52596 0.36727 0.0
C20 C 0.70378 0.51434 0.26827 0.0
C21 C 0.66966 0.51057 0.28628 0.0
C22 C 0.64581 0.51766 0.22174 0.0
C23 C 0.65539 0.52911 0.13765 0.0
C24 C 0.68916 0.53634 0.12279 0.0
C25 C 0.71307 0.5291 0.18743 0.0
C26 C 0.74822 0.46301 0.2359 0.0
C27 C 0.72549 0.4454 0.1839 0.0
C28 C 0.73522 0.43255 0.1023 0.0
C29 C 0.76784 0.43713 0.07253 0.0
C30 C 0.79095 0.453 0.12661 0.0
C31 C 0.78123 0.46594 0.20761 0.0
P32 P 0.01383 0.74207 0.24348 0.0
H33 H 0.03243 0.75308 0.42975 0.0
H34 H 0.02939 0.80299 0.52131 0.0
H35 H 0.96428 0.847 0.33157 0.0
H36 H 0.96779 0.7986 0.2403 0.0
H37 H 0.06434 0.69484 0.19654 0.0
H38 H 0.05797 0.64386 0.11669 0.0
H39 H 0.95575 0.63754 0.19873 0.0
H40 H 0.96153 0.6908 0.27442 0.0
H41 H 0.0379 0.75025 0.06381 0.0
H42 H 0.94328 0.74369 0.19568 0.0
O43 O 0.05318 0.75382 0.22827 0.0
H44 H 0.01105 0.76312 0.92695 0.0
H45 H 0.91544 0.75779 0.0576 0.0
C46 C 0.9995 0.77078 0.32838 0.0
C47 C 0.0162 0.77275 0.40968 0.0
C48 C 0.01486 0.80154 0.46155 0.0
C49 C 0.99675 0.82903 0.43316 0.0
C50 C 0.97836 0.82625 0.35527 0.0
C51 C 0.97998 0.79784 0.30338 0.0
C52 C 0.01342 0.69733 0.2421 0.0
C53 C 0.0407 0.68225 0.20113 0.0
C54 C 0.03699 0.65299 0.15392 0.0
C55 C 1.0061 0.63708 0.14859 0.0
C56 C 0.97974 0.64962 0.19976 0.0
C57 C 0.98323 0.67977 0.24491 0.0
C58 C 0.99271 0.74894 0.14114 0.0
C59 C 0.01116 0.75191 0.0633 0.0
C60 C 0.99544 0.7587 0.9841 0.0
C61 C 0.96082 0.76339 0.98151 0.0
C62 C 0.94211 0.75579 0.05763 0.0
C63 C 0.95801 0.74819 0.13682 0.0
P64 P 0.79636 0.04144 0.29845 0.0
H65 H 0.78331 0.04941 0.48852 0.0
H66 H 0.7321 0.04131 0.57247 0.0
H67 H 0.69365 0.98029 0.36476 0.0
H68 H 0.74508 0.98871 0.27949 0.0
H69 H 0.81716 0.06672 0.12678 0.0
H70 H 0.86035 0.05358 0.02198 0.0
H71 H 0.89223 0.97431 0.18932 0.0
H72 H 0.84649 0.98634 0.29415 0.0
H73 H 0.75398 0.09686 0.33949 0.0
H74 H 0.76575 0.02681 0.1282 0.0
O75 O 0.81677 0.07026 0.35491 0.0
H76 H 0.69902 0.11054 0.28343 0.0
H77 H 0.71239 0.04256 0.06853 0.0
C78 C 0.76896 0.01944 0.37684 0.0
C79 C 0.76479 0.03286 0.46205 0.0
C80 C 0.73507 0.02858 0.51022 0.0
C81 C 0.70841 0.0105 0.47525 0.0
C82 C 0.7136 0.99443 0.39384 0.0
C83 C 0.74342 0.99881 0.34543 0.0
C84 C 0.82661 0.0263 0.21693 0.0
C85 C 0.83204 0.04533 0.14012 0.0
C86 C 0.85739 0.03818 0.08006 0.0
C87 C 0.87974 0.01273 0.09619 0.0
C88 C 0.87514 0.99383 0.17406 0.0
C89 C 0.84883 1.00056 0.23385 0.0
C90 C 0.76439 0.06141 0.23694 0.0
C91 C 0.74574 0.08595 0.27819 0.0
C92 C 0.71441 0.09371 0.24645 0.0
C93 C 0.70184 0.07733 0.1724 0.0
C94 C 0.72193 0.05547 0.12559 0.0
C95 C 0.7526 0.04679 0.15925 0.0
P96 P 0.52161 0.78891 0.2573 0.0
H97 H 0.49861 0.77786 0.43935 0.0
H98 H 0.5003 0.729 0.53368 0.0
H99 H 0.57586 0.68774 0.36754 0.0
H100 H 0.57304 0.73571 0.26989 0.0
H101 H 0.48027 0.84566 0.21983 0.0
H102 H 0.49005 0.89302 0.12578 0.0
H103 H 0.595 0.87565 0.13314 0.0
H104 H 0.58519 0.82715 0.22845 0.0
H105 H 0.47729 0.76522 0.11968 0.0
H106 H 0.58275 0.77634 0.15587 0.0
O107 O 0.48057 0.78817 0.27204 0.0
H108 H 0.48674 0.74577 0.97082 0.0
H109 H 0.59227 0.75798 1.00407 0.0
C110 C 0.53565 0.76123 0.34609 0.0
C111 C 0.51655 0.75903 0.42425 0.0
C112 C 0.51737 0.73085 0.47865 0.0
C113 C 0.53812 0.70427 0.45863 0.0
C114 C 0.55957 0.7077 0.38518 0.0
C115 C 0.55811 0.73557 0.32929 0.0
C116 C 0.53188 0.83199 0.23226 0.0
C117 C 0.50568 0.85219 0.20464 0.0
C118 C 0.51118 0.87929 0.14896 0.0
C119 C 0.54315 0.88752 0.11898 0.0
C120 C 0.56992 0.86945 0.15307 0.0
C121 C 0.56432 0.84193 0.20891 0.0
C122 C 0.52932 0.77126 0.15038 0.0
C123 C 0.50254 0.76352 0.09596 0.0
C124 C 0.50795 0.7532 1.0097 0.0
C125 C 0.5403 0.75065 0.97549 0.0
C126 C 0.56714 0.75962 0.02878 0.0
C127 C 0.56166 0.76976 0.1158 0.0
P128 P 0.28791 0.44266 0.15053 0.0
H129 H 0.27301 0.43008 0.96209 0.0
H130 H 0.22503 0.44454 0.87166 0.0
H131 H 0.19271 0.51176 0.07334 0.0
H132 H 0.24264 0.50011 0.1585 0.0
H133 H 0.34912 0.40789 0.18622 0.0
H134 H 0.39577 0.42112 0.27383 0.0
H135 H 0.36444 0.52238 0.28219 0.0
H136 H 0.31659 0.5078 0.19601 0.0
H137 H 0.21719 0.4336 0.19356 0.0
H138 H 0.30769 0.44876 0.33942 0.0
O139 O 0.29076 0.40356 0.11878 0.0
H140 H 0.18568 0.45648 0.31734 0.0
H141 H 0.27614 0.47061 0.4624 0.0
C142 C 0.26151 0.46336 0.06887 0.0
C143 C 0.25651 0.44905 0.98541 0.0
C144 C 0.22859 0.45693 0.93414 0.0
C145 C 0.20406 0.47842 0.96631 0.0
C146 C 0.21058 0.49471 0.04659 0.0
C147 C 0.23942 0.48811 0.09545 0.0
C148 C 0.32977 0.45708 0.17838 0.0
C149 C 0.35354 0.43356 0.20091 0.0
C150 C 0.3815 0.44168 0.25154 0.0
C151 C 0.38847 0.47434 0.27865 0.0
C152 C 0.36377 0.49775 0.2562 0.0
C153 C 0.33547 0.48944 0.2062 0.0
C154 C 0.26502 0.44251 0.2536 0.0
C155 C 0.23028 0.44092 0.25263 0.0
C156 C 0.21221 0.45364 0.32342 0.0
C157 C 0.22893 0.46624 0.39689 0.0
C158 C 0.26307 0.46165 0.40488 0.0
C159 C 0.28109 0.4496 0.33352 0.0
P160 P 0.07828 0.26832 0.17044 0.0
H161 H 0.11768 0.2472 0.01665 0.0
H162 H 0.1067 0.20383 0.90834 0.0
H163 H 1.00375 0.20303 0.98346 0.0
H164 H 0.01435 0.24688 0.09008 0.0
H165 H 0.11973 0.30286 0.29535 0.0
H166 H 0.1106 0.35166 0.38366 0.0
H167 H 0.02863 0.37798 0.21779 0.0
H168 H 0.03769 0.32817 0.12837 0.0
H169 H 0.08095 0.20824 0.2777 0.0
H170 H 0.01227 0.28726 0.23232 0.0
O171 O 0.11581 0.2535 0.19231 0.0
H172 H 0.04052 0.18209 0.37803 0.0
H173 H 0.97256 0.26141 0.33274 0.0
C174 C 0.06706 0.25049 0.06345 0.0
C175 C 0.09238 0.23897 1.00737 0.0
C176 C 0.08619 0.21385 0.94565 0.0
C177 C 0.05446 0.19964 0.93831 0.0
C178 C 0.02848 0.21336 0.9879 0.0
C179 C 0.03463 0.2387 0.04897 0.0
C180 C 0.07962 0.31149 0.20386 0.0
C181 C 0.10062 0.31964 0.2746 0.0
C182 C 0.09527 0.34763 0.32616 0.0
C183 C 0.06869 0.36858 0.30879 0.0
C184 C 0.04931 0.36223 0.23315 0.0
C185 C 0.05465 0.33387 0.18139 0.0
C186 C 0.05006 0.25018 0.24921 0.0
C187 C 0.05763 0.22031 0.29047 0.0
C188 C 0.03466 0.2054 0.34746 0.0
C189 C 1.00393 0.22019 0.3629 0.0
C190 C 0.99644 0.25007 0.32229 0.0
C191 C 0.01929 0.26488 0.26543 0.0
P192 P 0.23087 0.10398 0.06404 0.0
H193 H 0.26769 0.12562 0.90736 0.0
H194 H 0.31866 0.10665 0.83823 0.0
H195 H 0.31134 0.01605 0.98501 0.0
H196 H 0.26066 0.03586 0.0576 0.0
H197 H 0.16152 0.12322 0.09358 0.0
H198 H 0.12013 0.10648 0.20415 0.0
H199 H 0.18275 0.02681 0.28462 0.0
H200 H 0.22348 0.04261 0.17163 0.0
H201 H 0.29916 0.13109 0.06609 0.0
H202 H 0.22129 0.11471 0.25814 0.0
O203 O 0.21603 0.13615 1.00886 0.0
H204 H 0.34003 0.11553 0.17509 0.0
H205 H 0.26235 0.09889 0.36684 0.0
C206 C 0.25969 0.08248 0.98896 0.0
C207 C 0.27618 0.10117 0.92333 0.0
C208 C 0.30587 0.09045 0.88418 0.0
C209 C 0.31981 0.06 0.90676 0.0
C210 C 0.30181 0.03991 0.96683 0.0
C211 C 0.27246 0.05117 1.00816 0.0
C212 C 0.19585 0.08389 0.12148 0.0
C213 C 0.16605 0.10136 0.13235 0.0
C214 C 0.14245 0.09214 0.19694 0.0
C215 C 0.14837 0.06575 0.25482 0.0
C216 C 0.17749 0.04744 0.24173 0.0
C217 C 0.20071 0.05619 0.17565 0.0
C218 C 0.25707 0.11968 0.15081 0.0
C219 C 0.29072 0.1253 0.13218 0.0
C220 C 0.31426 0.11694 0.19498 0.0
C221 C 0.30376 0.10422 0.27659 0.0
C222 C 0.27063 0.1076 0.30265 0.0
C223 C 0.24715 0.11604 0.23955 0.0
P224 P 0.46124 0.24117 0.09164 0.0
H225 H 0.44301 0.26554 0.91511 0.0
H226 H 0.4605 0.3155 0.83702 0.0
H227 H 0.54489 0.32407 1.00772 0.0
H228 H 0.52748 0.27383 0.08629 0.0
H229 H 0.42437 0.20352 0.21959 0.0
H230 H 0.43807 0.16027 0.32453 0.0
H231 H 0.53394 0.15034 0.20243 0.0
H232 H 0.52091 0.1959 0.09912 0.0
H233 H 0.42907 0.30484 0.1115 0.0
H234 H 0.49697 0.24426 0.25884 0.0
O235 O 0.42224 0.23689 0.05737 0.0
H236 H 0.445 0.35222 0.2032 0.0
H237 H 0.51185 0.29056 0.34884 0.0
C238 C 0.48393 0.26505 1.00703 0.0
C239 C 0.46621 0.27698 0.93367 0.0
C240 C 0.47597 0.30602 0.88926 0.0
C241 C 0.50386 0.32407 0.91662 0.0
C242 C 0.52327 0.31076 0.98488 0.0
C243 C 0.51355 0.28157 0.02911 0.0
C244 C 0.47118 0.20273 0.14919 0.0
C245 C 0.44821 0.19173 0.21339 0.0
C246 C 0.45615 0.16714 0.27448 0.0
C247 C 0.48703 0.15161 0.2718 0.0
C248 C 0.50986 0.1617 0.2056 0.0
C249 C 0.50229 0.18743 0.14581 0.0
C250 C 0.46143 0.27083 0.17869 0.0
C251 C 0.44596 0.30126 0.16593 0.0
C252 C 0.45513 0.32823 0.21742 0.0
C253 C 0.47986 0.32457 0.28116 0.0
C254 C 0.4928 0.29359 0.29936 0.0
C255 C 0.48391 0.26697 0.24807 0.0
C256 C 0.13365 0.0148 0.76789 0.0
C257 C 0.13992 0.03395 0.918 0.0
C258 C 0.12008 0.02158 0.84935 0.0
C259 C 0.1733 0.04178 0.90097 0.0
C260 C 0.16766 0.02064 0.75182 0.0
C261 C 0.18713 0.03532 0.81772 0.0
N262 N 0.11438 0.99909 0.70808 0.0
C263 C 0.12856 0.98548 0.63466 0.0
C264 C 0.18141 0.00975 0.67222 0.0
C265 C 0.1619 0.99146 0.61422 0.0
Gd266 Gd 0.97938 0.03073 0.61887 0.0
Gd267 Gd 0.05736 0.99384 0.74426 0.0
N268 N 0.08817 0.01274 0.86409 0.0
C269 C 0.12602 0.03633 1.0026 0.0
C270 C 0.07506 0.01318 0.94718 0.0
C271 C 0.09351 0.02564 0.01747 0.0
H272 H 0.05017 1.00421 0.95908 0.0
H273 H 0.08271 0.02673 0.08294 0.0
H274 H 1.00129 0.10326 0.52492 0.0
H275 H 0.11426 0.96987 0.59157 0.0
H276 H 0.01316 0.12576 0.37672 0.0
H277 H 0.14056 0.04491 0.05746 0.0
H278 H 0.18894 0.05156 0.95253 0.0
H279 H 0.92767 0.96674 0.58441 0.0
H280 H 0.2074 0.01379 0.65716 0.0
H281 H 0.17267 0.98146 0.55454 0.0
H282 H 0.98475 0.0376 0.18107 0.0
H283 H 0.21323 0.04028 0.80646 0.0
H284 H 0.92749 0.94511 0.30779 0.0
H285 H 0.90976 0.93164 0.46045 0.0
N286 N 0.95729 0.99834 0.50347 0.0
C287 C 0.96503 0.00758 0.41968 0.0
C288 C 0.936 0.97255 0.51808 0.0
C289 C 0.93567 0.96041 0.36199 0.0
C290 C 0.9256 0.95274 0.44803 0.0
C291 C 0.95484 0.98866 0.34658 0.0
H292 H 0.95607 0.98467 0.20374 0.0
N293 N 0.98786 0.05588 0.47882 0.0
C294 C 0.981 0.0373 0.40693 0.0
C295 C 0.99988 0.08098 0.30999 0.0
C296 C 0.98725 0.0491 0.32059 0.0
C297 C 0.99755 0.08795 0.4682 0.0
C298 C 1.00441 0.10071 0.38416 0.0
O299 O 0.05174 0.04839 0.77534 0.0
O300 O 1.00743 0.07068 0.69645 0.0
O301 O 0.92878 0.04328 0.58531 0.0
O302 O 0.94944 0.06037 0.70707 0.0
O303 O 0.01322 0.01203 0.82692 0.0
O304 O 0.9714 0.99687 0.73661 0.0
O305 O 0.98472 0.97549 0.63858 0.0
O306 O 0.0397 0.96798 0.61912 0.0
O307 O 0.02923 0.95211 0.79116 0.0
O308 O 0.0837 0.95172 0.7984 0.0
O309 O 0.03126 0.04644 0.56705 0.0
O310 O 0.06555 1.00351 0.59897 0.0
C311 C 0.03259 0.07336 0.75263 0.0
C312 C 0.98163 1.00508 0.8157 0.0
C313 C 0.90842 0.09247 0.64147 0.0
C314 C 0.91162 0.14646 0.5747 0.0
C315 C 0.8595 0.12659 0.63524 0.0
C316 C 0.87464 0.09705 0.65902 0.0
C317 C 0.87781 0.15114 0.59163 0.0
C318 C 0.92692 0.11767 0.6025 0.0
C319 C 0.9238 0.06058 0.6559 0.0
C320 C 0.97939 0.0293 0.24773 0.0
C321 C 0.96311 0.99914 0.26068 0.0
H322 H 1.00497 0.09098 0.24484 0.0
C323 C 0.00909 0.9577 0.60749 0.0
C324 C 0.0578 0.02868 0.54939 0.0
C325 C 0.05389 0.90274 0.84894 0.0
C326 C 0.02159 0.85305 0.87366 0.0
C327 C 0.07985 0.85461 0.91199 0.0
C328 C 0.08202 0.88715 0.88262 0.0
C329 C 0.04978 0.8375 0.90714 0.0
C330 C 0.02381 0.88555 0.84527 0.0
C331 C 0.05588 0.93591 0.81143 0.0
H332 H 0.83336 0.13 0.64798 0.0
H333 H 0.85994 0.07763 0.68925 0.0
H334 H 0.86562 0.17326 0.56948 0.0
H335 H 0.95292 0.11418 0.58931 0.0
H336 H 0.10155 0.84257 0.93786 0.0
H337 H 0.10562 0.89992 0.88549 0.0
H338 H 0.04847 0.81227 0.92976 0.0
H339 H 1.00194 0.89731 0.82059 0.0
C340 C 0.53736 0.91733 0.58816 0.0
C341 C 0.52657 0.87466 0.69653 0.0
C342 C 0.52239 0.90708 0.66578 0.0
C343 C 0.54758 0.85333 0.65019 0.0
C344 C 0.55695 0.8955 0.53851 0.0
C345 C 0.5627 0.86372 0.57115 0.0
N346 N 0.53058 0.94786 0.55776 0.0
C347 C 0.54061 0.9574 0.47513 0.0
C348 C 0.56908 0.90589 0.45609 0.0
C349 C 0.56052 0.93685 0.42383 0.0
Gd350 Gd 0.52447 0.06475 0.76641 0.0
Gd351 Gd 0.49858 0.98175 0.6497 0.0
N352 N 0.5017 0.92808 0.70755 0.0
C353 C 0.5085 0.86436 0.77094 0.0
C354 C 0.48205 0.91727 0.77567 0.0
C355 C 0.48576 0.88559 0.80984 0.0
H356 H 0.46381 0.93334 0.80474 0.0
H357 H 0.47092 0.8775 0.86569 0.0
H358 H 0.59561 0.04508 0.86853 0.0
H359 H 0.53373 0.98116 0.44951 0.0
H360 H 0.65163 0.06814 0.88682 0.0
H361 H 0.51114 0.83984 0.79739 0.0
H362 H 0.55142 0.82844 0.67324 0.0
H363 H 0.47876 0.12586 0.68548 0.0
H364 H 0.58418 0.88985 0.41579 0.0
H365 H 0.56915 0.94485 0.3594 0.0
H366 H 0.64796 0.17205 0.73678 0.0
H367 H 0.57793 0.84666 0.53443 0.0
H368 H 0.54314 0.20713 0.62533 0.0
H369 H 0.48716 0.18199 0.6261 0.0
N370 N 0.52983 0.11865 0.71233 0.0
C371 C 0.56047 0.13251 0.71607 0.0
C372 C 0.50342 0.1364 0.68351 0.0
C373 C 0.53967 0.18236 0.65033 0.0
C374 C 0.50803 0.16826 0.65062 0.0
C375 C 0.56629 0.1647 0.68465 0.0
H376 H 0.60323 0.20305 0.666 0.0
N377 N 0.57859 0.0848 0.7893 0.0
C378 C 0.58564 0.11501 0.75564 0.0
C379 C 0.64149 0.11184 0.81144 0.0
C380 C 0.61736 0.12927 0.76517 0.0
C381 C 0.60161 0.06835 0.83798 0.0
C382 C 0.63342 0.08143 0.84894 0.0
O383 O 0.5046 0.97924 0.79805 0.0
O384 O 0.54458 0.01732 0.83127 0.0
O385 O 0.49591 0.05639 0.88479 0.0
O386 O 0.51899 0.10369 0.86352 0.0
O387 O 0.46652 1.0015 0.76198 0.0
O388 O 0.47075 0.05543 0.7274 0.0
O389 O 0.49932 0.07122 0.63416 0.0
O390 O 0.51294 0.02462 0.55747 0.0
O391 O 0.45338 1.00025 0.5953 0.0
O392 O 0.46485 0.94859 0.58148 0.0
O393 O 0.56872 0.0435 0.69114 0.0
O394 O 0.55311 0.99452 0.62234 0.0
C395 C 0.52998 0.98853 0.84546 0.0
C396 C 0.45321 0.0309 0.7607 0.0
C397 C 0.51497 0.0837 1.00948 0.0
C398 C 0.56139 0.0813 0.1102 0.0
C399 C 0.50678 0.06421 0.15914 0.0
C400 C 0.49387 0.07221 0.07675 0.0
C401 C 0.54015 0.06962 0.17711 0.0
C402 C 0.54868 0.08846 0.02674 0.0
C403 C 0.50285 0.08485 0.91877 0.0
C404 C 0.62368 0.1608 0.73074 0.0
C405 C 0.5982 0.17847 0.69049 0.0
H406 H 0.6661 0.12201 0.82054 0.0
C407 C 0.50582 0.05628 0.55933 0.0
C408 C 0.57514 0.01774 0.64086 0.0
C409 C 0.43063 0.9737 0.47424 0.0
C410 C 0.39453 1.0042 0.37799 0.0
C411 C 0.43501 0.96674 0.31571 0.0
C412 C 0.44602 0.95922 0.40074 0.0
C413 C 0.40973 0.98965 0.30408 0.0
C414 C 0.40362 0.99437 0.46246 0.0
C415 C 0.44426 0.97202 0.56302 0.0
H416 H 0.49137 0.05181 0.20714 0.0
H417 H 0.46803 0.06697 0.06342 0.0
H418 H 0.54983 0.06263 0.24101 0.0
H419 H 0.56543 0.09609 0.9744 0.0
H420 H 0.44698 0.95592 0.25876 0.0
H421 H 0.46707 0.94319 0.40875 0.0
H422 H 0.40242 0.99646 0.2378 0.0
H423 H 0.39139 1.00513 0.51938 0.0
C424 C 0.42583 0.47284 0.82431 0.0
C425 C 0.43059 0.46042 0.98036 0.0
C426 C 0.44112 0.47784 0.90444 0.0
C427 C 0.40615 0.4359 0.97281 0.0
C428 C 0.39976 0.44965 0.81759 0.0
C429 C 0.39092 0.43034 0.89129 0.0
N430 N 0.43389 0.49321 0.75599 0.0
C431 C 0.4135 0.49454 0.6843 0.0
C432 C 0.3819 0.44809 0.73892 0.0
C433 C 0.38825 0.47127 0.67286 0.0
Gd434 Gd 0.55779 0.50784 0.62561 0.0
Gd435 Gd 0.47954 0.5294 0.77954 0.0
N436 N 0.46457 0.50167 0.90961 0.0
C437 C 0.44403 0.46909 0.06209 0.0
C438 C 0.4773 0.51076 0.98928 0.0
C439 C 0.46721 0.49466 0.06678 0.0
H440 H 0.49532 0.53046 0.99313 0.0
H441 H 0.47742 0.50183 0.12987 0.0
H442 H 0.5229 0.48162 0.43222 0.0
H443 H 0.41563 0.51409 0.63674 0.0
H444 H 0.51331 0.50345 0.28367 0.0
H445 H 0.43622 0.45662 0.12187 0.0
H446 H 0.39811 0.42188 0.03012 0.0
H447 H 0.61822 0.5546 0.71075 0.0
H448 H 0.36176 0.43063 0.73096 0.0
H449 H 0.37301 0.47191 0.6143 0.0
H450 H 0.57315 0.60546 0.2775 0.0
H451 H 0.3712 0.41221 0.88705 0.0
H452 H 0.63934 0.63272 0.52825 0.0
H453 H 0.64953 0.60508 0.67115 0.0
N454 N 0.58965 0.55482 0.59317 0.0
C455 C 0.58522 0.5683 0.51183 0.0
C456 C 0.61361 0.56663 0.64836 0.0
C457 C 0.62552 0.61065 0.54534 0.0
C458 C 0.63135 0.59513 0.6261 0.0
C459 C 0.60276 0.59693 0.48629 0.0
H460 H 0.61052 0.6328 0.38203 0.0
N461 N 0.54811 0.52454 0.47822 0.0
C462 C 0.5638 0.55288 0.45302 0.0
C463 C 0.54064 0.5482 0.3065 0.0
C464 C 0.56003 0.56567 0.36682 0.0
C465 C 0.53188 0.50597 0.41664 0.0
C466 C 0.52705 0.51792 0.33107 0.0
O467 O 0.50564 0.48169 0.81428 0.0
O468 O 0.5302 0.46307 0.68646 0.0
O469 O 0.59292 0.491 0.52748 0.0
O470 O 0.59822 0.47545 0.66206 0.0
O471 O 0.5298 0.53516 0.84953 0.0
O472 O 0.57388 0.51418 0.76674 0.0
O473 O 0.54799 0.56002 0.67408 0.0
O474 O 0.49257 0.56556 0.66837 0.0
O475 O 0.48077 0.57162 0.86394 0.0
O476 O 0.43393 0.55594 0.80776 0.0
O477 O 0.50727 0.48788 0.58247 0.0
O478 O 0.47256 0.52775 0.63121 0.0
C479 C 0.52056 0.45817 0.76974 0.0
C480 C 0.56118 0.52588 0.84059 0.0
C481 C 0.60531 0.43631 0.55018 0.0
C482 C 0.5743 0.39333 0.47602 0.0
C483 C 0.62994 0.38289 0.52855 0.0
C484 C 0.63214 0.41509 0.56024 0.0
C485 C 0.60122 0.37207 0.48579 0.0
C486 C 0.57625 0.42506 0.50962 0.0
C487 C 0.60679 0.47034 0.58048 0.0
C488 C 0.57631 0.59499 0.34275 0.0
C489 C 0.59759 0.61058 0.40231 0.0
H490 H 0.53714 0.55723 0.23982 0.0
C491 C 0.52223 0.5774 0.65075 0.0
C492 C 0.47919 0.5041 0.57544 0.0
C493 C 0.44322 0.61309 0.82681 0.0
C494 C 0.46754 0.66753 0.81729 0.0
C495 C 0.40863 0.66091 0.84635 0.0
C496 C 0.4122 0.62678 0.84513 0.0
C497 C 0.43644 0.68127 0.83586 0.0
C498 C 0.46975 0.63377 0.80282 0.0
C499 C 0.44977 0.57876 0.85068 0.0
H500 H 0.65068 0.36646 0.53594 0.0
H501 H 0.65464 0.42342 0.59202 0.0
H502 H 0.60012 0.34739 0.4594 0.0
H503 H 0.55524 0.44119 0.50235 0.0
H504 H 0.38483 0.6715 0.8621 0.0
H505 H 0.3913 0.61121 0.86285 0.0
H506 H 0.43402 0.70743 0.84667 0.0
H507 H 0.49379 0.62345 0.78821 0.0
C508 C 0.04367 0.40276 0.86215 0.0
C509 C 0.06088 0.41514 0.0118 0.0
C510 C 0.0433 0.42338 0.93472 0.0
C511 C 0.08013 0.38658 0.01317 0.0
C512 C 0.06148 0.37308 0.86519 0.0
C513 C 0.08027 0.36549 0.94024 0.0
N514 N 0.02514 0.41078 0.79069 0.0
C515 C 0.02091 0.38862 0.72386 0.0
C516 C 0.05922 0.35155 0.79363 0.0
C517 C 0.03839 0.35911 0.72337 0.0
Gd518 Gd 0.0315 0.54002 0.6573 0.0
Gd519 Gd 0.99874 0.46237 0.79628 0.0
N520 N 0.02439 0.45076 0.93146 0.0
C521 C 0.05773 0.4353 0.08608 0.0
C522 C 0.01916 0.46901 1.00565 0.0
C523 C 0.03625 0.462 0.08349 0.0
H524 H 1.00213 0.48926 1.00472 0.0
H525 H 0.03273 0.4771 0.14147 0.0
H526 H 0.06044 0.51257 0.45822 0.0
H527 H 1.00363 0.39324 0.67127 0.0
H528 H 0.0416 0.51084 0.30444 0.0
H529 H 0.07083 0.42982 0.14656 0.0
H530 H 0.09432 0.38017 0.07114 0.0
H531 H 0.988 0.59889 0.75364 0.0
H532 H 0.07252 0.32854 0.79341 0.0
H533 H 0.03541 0.34202 0.66932 0.0
H534 H 0.94445 0.57762 0.3026 0.0
H535 H 0.09443 0.34302 0.94329 0.0
H536 H 0.91512 0.63288 0.57076 0.0
H537 H 0.94029 0.63467 0.71946 0.0
N538 N 0.98774 0.57581 0.62835 0.0
C539 C 0.97605 0.57622 0.54443 0.0
C540 C 0.97653 0.59768 0.68951 0.0
C541 C 0.93572 0.61699 0.58591 0.0
C542 C 0.94982 0.61805 0.66997 0.0
C543 C 0.94927 0.59643 0.52128 0.0
H544 H 0.91678 0.6113 0.41524 0.0
N545 N 0.0185 0.53917 0.50511 0.0
C546 C 0.99173 0.55719 0.48115 0.0
C547 C 0.99841 0.54013 0.3293 0.0
C548 C 0.98086 0.55797 0.39271 0.0
C549 C 0.03725 0.52402 0.4418 0.0
C550 C 0.02706 0.52358 0.3537 0.0
O551 O 0.04904 0.48341 0.83624 0.0
O552 O 0.07141 0.50544 0.70824 0.0
O553 O 0.06251 0.57166 0.57555 0.0
O554 O 0.05861 0.5809 0.71513 0.0
O555 O 0.98798 0.51254 0.8582 0.0
O556 O 0.02758 0.54911 0.80451 0.0
O557 O 0.97635 0.53055 0.68279 0.0
O558 O 0.97372 0.4756 0.66755 0.0
O559 O 0.94892 0.46963 0.84667 0.0
O560 O 0.96812 0.42048 0.8334 0.0
O561 O 0.04799 0.49088 0.59926 0.0
O562 O 0.01254 0.45072 0.65423 0.0
C563 C 0.07471 0.49368 0.7891 0.0
C564 C 1.00623 0.53951 0.86543 0.0
C565 C 0.11116 0.58686 0.65057 0.0
C566 C 0.16402 0.56159 0.61655 0.0
C567 C 0.16176 0.60824 0.71545 0.0
C568 C 0.12739 0.60963 0.70499 0.0
C569 C 0.18013 0.58436 0.67111 0.0
C570 C 0.12965 0.56262 0.6074 0.0
C571 C 0.07491 0.58714 0.64278 0.0
C572 C 0.95328 0.57697 0.37003 0.0
C573 C 0.93752 0.59616 0.43417 0.0
H574 H 0.99067 0.53988 0.26089 0.0
C575 C 0.96081 0.50446 0.65311 0.0
C576 C 0.03418 0.46131 0.59485 0.0
C577 C 0.91249 0.42885 0.7956 0.0
C578 C 0.85298 0.42036 0.79049 0.0
C579 C 0.88586 0.41419 0.65735 0.0
C580 C 0.91453 0.42165 0.70495 0.0
C581 C 0.85504 0.41348 0.69995 0.0
C582 C 0.8817 0.42816 0.83784 0.0
C583 C 0.942 0.43834 0.84597 0.0
H584 H 0.17417 0.62578 0.75769 0.0
H585 H 0.11347 0.6282 0.73995 0.0
H586 H 0.20677 0.58379 0.67851 0.0
H587 H 0.1175 0.5446 0.56577 0.0
H588 H 0.88755 0.40892 0.58744 0.0
H589 H 0.93818 0.42183 0.67103 0.0
H590 H 0.83295 0.40764 0.66276 0.0
H591 H 0.87997 0.43386 0.90769 0.0
C592 C 0.11883 0.0788 0.4016 0.0
C593 C 0.12443 0.05709 0.32922 0.0
C594 C 0.09081 0.01515 0.4074 0.0
C595 C 0.08151 0.03813 0.47435 0.0
N596 N 0.09314 0.09044 0.54207 0.0
N597 N 0.10941 1.00657 0.25695 0.0
C598 C 0.09687 0.06972 0.47216 0.0
C599 C 0.10847 0.02594 0.33046 0.0
N600 N 0.13525 0.10803 0.40786 0.0
N601 N 0.08538 0.98234 0.41915 0.0
H602 H 0.12221 0.01317 0.19955 0.0
H603 H 0.09478 0.98553 0.25004 0.0
H604 H 0.07513 0.9723 0.47597 0.0
H605 H 0.095 0.96453 0.3771 0.0
H606 H 0.15294 0.11641 0.36244 0.0
H607 H 0.15294 0.11641 0.36244 0.0
H608 H 0.10334 0.11408 0.54306 0.0
H609 H 0.08165 0.08312 0.60079 0.0
C610 C 0.51966 0.13062 0.40488 0.0
C611 C 0.49505 0.12519 0.33929 0.0
C612 C 0.48473 0.07 0.40358 0.0
C613 C 0.50594 0.07709 0.47543 0.0
N614 N 0.55372 0.10768 0.52135 0.0
N615 N 0.45158 0.09031 0.28224 0.0
C616 C 0.52626 0.1057 0.46956 0.0
C617 C 0.47688 0.09506 0.34061 0.0
N618 N 0.53522 0.1605 0.40941 0.0
N619 N 0.47407 0.03859 0.39078 0.0
H620 H 0.44678 0.10618 0.22981 0.0
H621 H 0.43506 0.07058 0.28598 0.0
H622 H 0.48019 0.01936 0.43254 0.0
H623 H 0.4625 0.03103 0.33313 0.0
H624 H 0.55065 0.1674 0.46104 0.0
H625 H 0.53066 0.17961 0.36526 0.0
H626 H 0.57206 0.1256 0.5138 0.0
H627 H 0.55997 0.08908 0.56556 0.0
C628 C 0.43913 0.45922 0.37818 0.0
C629 C 0.4179 0.4831 0.34025 0.0
C630 C 0.43819 0.52247 0.4517 0.0
C631 C 0.45595 0.49719 0.49761 0.0
N632 N 0.46358 0.43857 0.5117 0.0
N633 N 0.42164 0.54067 0.30695 0.0
C634 C 0.45371 0.46481 0.46258 0.0
C635 C 0.42417 0.51585 0.36717 0.0
N636 N 0.45085 0.43425 0.32758 0.0
N637 N 0.4324 0.55248 0.48841 0.0
H638 H 0.41684 0.53594 0.24045 0.0
H639 H 0.42916 0.56472 0.32025 0.0
H640 H 0.43942 0.55958 0.55121 0.0
H641 H 0.41697 0.56962 0.45848 0.0
H642 H 0.469 0.41825 0.34993 0.0
H643 H 0.44714 0.43359 0.25954 0.0
H644 H 0.45914 0.41452 0.4913 0.0
H645 H 0.47158 0.44059 0.57682 0.0
C646 C 0.02873 0.39072 0.42386 0.0
C647 C 0.05903 0.394 0.37676 0.0
C648 C 0.0752 0.43821 0.47983 0.0
C649 C 0.04277 0.43842 0.51837 0.0
N650 N 0.98592 0.41835 0.50424 0.0
N651 N 0.10853 0.42597 0.35005 0.0
C652 C 0.01875 0.41575 0.48377 0.0
C653 C 0.08137 0.41948 0.40147 0.0
N654 N 0.00985 0.3629 0.41522 0.0
N655 N 0.10095 0.45372 0.52085 0.0
H656 H 0.11358 0.41302 0.29218 0.0
H657 H 0.12394 0.44626 0.36018 0.0
H658 H 0.09892 0.46446 0.58292 0.0
H659 H 0.12537 0.45204 0.49879 0.0
H660 H 0.98947 0.35782 0.45579 0.0
H661 H 0.01647 0.34327 0.37496 0.0
H662 H 0.96762 0.40457 0.47269 0.0
H663 H 0.97617 0.43639 0.54436 0.0
C664 C 0.91249 0.97944 0.98151 0.0
C665 C 0.90874 0.00834 0.0331 0.0
C666 C 0.95154 0.03547 0.94069 0.0
C667 C 0.95742 1.00588 0.89336 0.0
N668 N 0.94873 0.94738 0.88766 0.0
N669 N 0.93204 0.06053 0.07617 0.0
C670 C 0.93935 0.97718 0.91938 0.0
C671 C 0.93069 0.03521 0.01723 0.0
N672 N 0.88977 0.95455 0.98892 0.0
N673 N 0.96395 0.06452 0.90969 0.0
H674 H 0.91804 0.06071 0.13433 0.0
H675 H 0.94976 0.07925 0.0724 0.0
H676 H 0.97805 0.06607 0.85235 0.0
H677 H 0.95754 0.08726 0.93592 0.0
H678 H 0.8892 0.93449 0.94636 0.0
H679 H 0.86979 0.95527 0.03274 0.0
H680 H 0.93832 0.92521 0.90879 0.0
H681 H 0.96968 0.94483 0.84827 0.0
C682 C 0.53713 0.94715 0.07597 0.0
C683 C 0.54735 0.91518 0.05233 0.0
C684 C 0.55645 0.93545 0.89922 0.0
C685 C 0.54057 0.96561 0.9199 0.0
N686 N 0.51183 0.9974 0.02956 0.0
N687 N 0.565 0.87803 0.93783 0.0
C688 C 0.53026 0.97079 1.00897 0.0
C689 C 0.55703 0.90919 0.96307 0.0
N690 N 0.53414 0.95516 0.16327 0.0
N691 N 0.57103 0.93193 0.81825 0.0
H692 H 0.5652 0.85822 0.98158 0.0
H693 H 0.56925 0.87128 0.87252 0.0
H694 H 0.57048 0.95034 0.77024 0.0
H695 H 0.58581 0.91206 0.80127 0.0
H696 H 0.52991 0.97903 0.18514 0.0
H697 H 0.53927 0.93857 0.21394 0.0
H698 H 0.49888 0.99971 0.08893 0.0
H699 H 0.50757 0.01566 0.98401 0.0
C700 C 0.6294 0.50126 1.00521 0.0
C701 C 0.63091 0.52884 0.0624 0.0
C702 C 0.58723 0.55541 0.97382 0.0
C703 C 0.58401 0.52682 0.92014 0.0
N704 N 0.59725 0.46937 0.90161 0.0
N705 N 0.60733 0.57989 0.11019 0.0
C706 C 0.6039 0.49895 0.9404 0.0
C707 C 0.60851 0.55515 0.04954 0.0
N708 N 0.65252 0.47704 0.01235 0.0
N709 N 0.5715 0.58358 0.95005 0.0
H710 H 0.62331 0.58117 0.164 0.0
H711 H 0.58898 0.59772 0.11093 0.0
H712 H 0.55608 0.58527 0.8955 0.0
H713 H 0.57619 0.60607 0.9799 0.0
H714 H 0.65558 0.45869 0.96526 0.0
H715 H 0.67037 0.47651 0.06175 0.0
H716 H 0.60811 0.44742 0.92107 0.0
H717 H 0.57823 0.46586 0.85671 0.0
C718 C 0.02364 0.58181 0.08827 0.0
C719 C 1.00182 0.60897 0.08433 0.0
C720 C 0.977 0.58465 0.95058 0.0
C721 C 1.00266 0.56105 0.94592 0.0
N722 N 0.05352 0.54038 1.00711 0.0
N723 N 0.96154 0.63903 0.99894 0.0
C724 C 0.02681 0.5605 0.01406 0.0
C725 C 0.97917 0.61098 0.01264 0.0
N726 N 0.04109 0.57605 0.16368 0.0
N727 N 0.95064 0.58227 0.89507 0.0
H728 H 0.96358 0.65976 0.0387 0.0
H729 H 0.9475 0.64301 0.94244 0.0
H730 H 0.94873 0.56389 0.84772 0.0
H731 H 0.92962 0.5968 0.90116 0.0
H732 H 0.05508 0.55497 0.17354 0.0
H733 H 0.03859 0.59053 0.22006 0.0
H734 H 0.07383 0.54171 0.04912 0.0
H735 H 0.0565 0.524 0.95534 0.0
C736 C 0.95829 0.17897 0.37537 0.0
C737 C 0.97836 0.20318 0.41624 0.0
C738 C 0.94864 0.19549 0.55647 0.0
C739 C 0.9309 0.1691 0.51771 0.0
N740 N 0.91947 0.1338 0.39351 0.0
N741 N 0.99399 0.23499 0.54349 0.0
C742 C 0.93566 0.16051 0.42773 0.0
C743 C 0.97375 0.21181 0.50622 0.0
N744 N 0.96045 0.17415 0.28606 0.0
N745 N 0.94151 0.20452 0.64141 0.0
H746 H 0.01251 0.24738 0.50812 0.0
H747 H 0.99365 0.24129 0.60994 0.0
H748 H 0.92346 0.19264 0.67966 0.0
H749 H 0.95182 0.22477 0.67294 0.0
H750 H 0.94405 0.15949 0.25063 0.0
H751 H 0.97731 0.18669 0.24552 0.0
H752 H 0.9254 0.12325 0.33297 0.0
H753 H 0.90103 0.12088 0.42784 0.0
C754 C 0.34937 0.08636 0.37595 0.0
C755 C 0.3238 0.07817 0.31682 0.0
C756 C 0.33941 0.02032 0.32207 0.0
C757 C 0.3686 0.02936 0.36689 0.0
N758 N 0.40155 0.07108 0.44043 0.0
N759 N 0.29557 0.03775 0.22662 0.0
C760 C 0.37345 0.06233 0.3964 0.0
C761 C 0.31885 0.04519 0.28869 0.0
N762 N 0.35041 0.11702 0.41249 0.0
N763 N 0.33097 0.9879 0.31328 0.0
H764 H 0.27943 0.05496 0.20074 0.0
H765 H 0.294 0.01499 0.1956 0.0
H766 H 0.3452 0.96893 0.33924 0.0
H767 H 0.30819 0.97997 0.289 0.0
H768 H 0.36643 0.12372 0.46307 0.0
H769 H 0.33313 0.13507 0.39727 0.0
H770 H 0.40845 0.09529 0.45314 0.0
H771 H 0.41916 0.05433 0.46077 0.0
C772 C 0.49054 0.35719 0.41439 0.0
C773 C 0.4961 0.35278 0.32321 0.0
C774 C 0.54702 0.38537 0.33039 0.0
C775 C 0.54507 0.38349 0.42365 0.0
N776 N 0.51334 0.37256 0.55579 0.0
N777 N 0.52826 0.36323 0.19112 0.0
C778 C 0.51602 0.37131 0.46615 0.0
C779 C 0.52347 0.36788 0.27965 0.0
N780 N 0.46098 0.34729 0.45047 0.0
N781 N 0.57142 0.40379 0.29083 0.0
H782 H 0.51113 0.35107 0.15156 0.0
H783 H 0.54984 0.36995 0.15747 0.0
H784 H 0.5893 0.41664 0.3266 0.0
H785 H 0.57224 0.40878 0.22336 0.0
H786 H 0.45408 0.35109 0.51592 0.0
H787 H 0.44201 0.33739 0.41196 0.0
H788 H 0.49466 0.36121 0.59264 0.0
H789 H 0.53055 0.38505 0.59365 0.0
C790 C 0.19746 0.48024 0.53446 0.0
C791 C 0.21256 0.49041 0.45438 0.0
C792 C 0.1961 0.54733 0.48082 0.0
C793 C 0.1829 0.53755 0.56375 0.0
N794 N 0.17504 0.49637 0.67628 0.0
N795 N 0.23118 0.5339 0.35629 0.0
C796 C 0.18473 0.50441 0.59251 0.0
C797 C 0.21334 0.52407 0.42899 0.0
N798 N 0.19474 0.44751 0.55389 0.0
N799 N 0.19108 0.57854 0.45014 0.0
H800 H 0.2434 0.51764 0.31449 0.0
H801 H 0.23602 0.55841 0.34078 0.0
H802 H 0.17935 0.59667 0.48714 0.0
H803 H 0.19638 0.58592 0.38565 0.0
H804 H 0.18085 0.43824 0.60663 0.0
H805 H 0.20445 0.42928 0.51317 0.0
H806 H 0.17867 0.47343 0.705 0.0
H807 H 0.1659 0.51388 0.71961 0.0
C808 C 0.96312 0.78319 0.82841 0.0
C809 C 0.94682 0.7847 0.91079 0.0
C810 C 0.96435 0.84074 0.9316 0.0
C811 C 0.98977 0.83503 0.86834 0.0
N812 N 1.00633 0.80739 0.73467 0.0
N813 N 0.91076 0.82174 0.98623 0.0
C814 C 0.98631 0.80868 0.80745 0.0
C815 C 0.93956 0.81631 0.94192 0.0
N816 N 0.95984 0.75536 0.77962 0.0
N817 N 0.96523 0.86746 0.98568 0.0
H818 H 0.89287 0.8032 0.99253 0.0
H819 H 0.90372 0.84496 1.00792 0.0
H820 H 0.98337 0.88572 0.98068 0.0
H821 H 0.9487 0.87052 0.03811 0.0
H822 H 0.97178 0.75142 0.71955 0.0
H823 H 0.94391 0.73649 0.80068 0.0
H824 H 1.00571 0.78846 0.6887 0.0
H825 H 0.02291 0.82638 0.71909 0.0
C826 C 0.64637 0.05005 0.16639 0.0
C827 C 0.66611 0.07867 0.15308 0.0
C828 C 0.61677 0.11007 0.11593 0.0
C829 C 0.59763 0.08074 0.12255 0.0
N830 N 0.59633 0.02135 0.12624 0.0
N831 N 0.67154 0.1341 0.0982 0.0
C832 C 0.61304 0.05025 0.13949 0.0
C833 C 0.65174 0.10823 0.12282 0.0
N834 N 0.65897 0.023 0.20767 0.0
N835 N 0.60158 0.13967 0.10542 0.0
H836 H 0.69731 0.13339 0.10187 0.0
H837 H 0.66265 0.15503 0.06688 0.0
H838 H 0.57606 0.14199 0.09844 0.0
H839 H 0.614 0.16211 0.11004 0.0
H840 H 0.64432 1.00305 0.2273 0.0
H841 H 0.68313 0.02182 0.231 0.0
H842 H 0.60763 0.99845 0.12955 0.0
H843 H 0.57224 0.0203 0.1021 0.0
C844 C 0.54947 0.69832 0.90854 0.0
C845 C 0.54494 0.73181 0.89289 0.0
C846 C 0.50243 0.71786 0.78524 0.0
C847 C 0.49829 0.68724 0.82974 0.0
N848 N 0.51743 0.65084 0.94755 0.0
N849 N 0.52667 0.77298 0.79313 0.0
C850 C 0.52232 0.67732 0.89321 0.0
C851 C 0.52529 0.74114 0.82059 0.0
N852 N 0.57742 0.68774 0.94896 0.0
N853 N 0.48385 0.72477 0.71272 0.0
H854 H 0.54366 0.78938 0.82104 0.0
H855 H 0.51135 0.78288 0.74509 0.0
H856 H 0.46791 0.7074 0.68486 0.0
H857 H 0.4857 0.74665 0.67736 0.0
H858 H 0.58206 0.66292 0.95986 0.0
H859 H 0.59709 0.70375 0.96185 0.0
H860 H 0.53328 0.64564 0.99977 0.0
H861 H 0.49578 0.63688 0.94958 0.0
C862 C 0.77962 0.45232 0.91647 0.0
C863 C 0.77827 0.42763 0.98254 0.0
C864 C 0.81374 0.39241 0.89318 0.0
C865 C 0.82107 0.41984 0.83863 0.0
N866 N 0.80951 0.4749 0.79016 0.0
N867 N 0.79033 0.37289 0.03212 0.0
C868 C 0.80285 0.44928 0.84627 0.0
C869 C 0.79356 0.39687 0.96924 0.0
N870 N 0.7593 0.47889 0.92287 0.0
N871 N 0.82691 0.36255 0.87286 0.0
H872 H 0.77462 0.3753 0.08667 0.0
H873 H 0.80376 0.35119 0.03199 0.0
H874 H 0.84182 0.35911 0.81713 0.0
H875 H 0.82099 0.34088 0.9062 0.0
H876 H 0.75724 0.49677 0.87398 0.0
H877 H 0.74226 0.48151 0.97446 0.0
H878 H 0.80003 0.4984 0.79808 0.0
H879 H 0.82569 0.47284 0.73651 0.0
C880 C 0.03975 0.16739 0.79909 0.0
C881 C 0.04941 0.16777 0.88906 0.0
C882 C 0.04429 0.10743 0.89245 0.0
C883 C 0.03837 0.10628 0.79932 0.0
N884 N 0.0371 0.13681 0.66232 0.0
N885 N 0.06698 0.13722 0.01682 0.0
C886 C 0.03772 0.13681 0.7523 0.0
C887 C 0.05375 0.13749 0.93388 0.0
N888 N 0.03227 0.19629 0.7581 0.0
N889 N 0.03829 0.08047 0.94387 0.0
H890 H 0.07297 0.15854 0.05145 0.0
H891 H 0.07463 0.11575 0.04809 0.0
H892 H 0.02893 0.05868 0.91901 0.0
H893 H 0.03847 0.08097 0.01268 0.0
H894 H 0.02137 0.19743 0.69604 0.0
H895 H 0.03454 0.21902 0.78923 0.0
H896 H 0.03975 0.15792 0.62378 0.0
H897 H 0.03771 0.11529 0.626 0.0
C898 C 0.35946 0.05047 0.77643 0.0
C899 C 0.35356 0.05024 0.86934 0.0
C900 C 0.41126 0.03135 0.88919 0.0
C901 C 0.41855 0.03658 0.7978 0.0
N902 N 0.39924 0.05644 0.65681 0.0
N903 N 0.37765 0.04748 0.0149 0.0
C904 C 0.39258 0.0479 0.74237 0.0
C905 C 0.38049 0.04245 0.92596 0.0
N906 N 0.33325 0.05161 0.71994 0.0
N907 N 0.43351 0.01568 0.94173 0.0
H908 H 0.35653 0.05718 0.04447 0.0
H909 H 0.39755 0.04549 0.05804 0.0
H910 H 0.45598 1.0069 0.91826 0.0
H911 H 0.42817 0.0085 1.00645 0.0
H912 H 0.33567 0.04855 0.65189 0.0
H913 H 0.30872 0.05188 0.74184 0.0
H914 H 0.38215 0.06839 0.61698 0.0
H915 H 0.42253 0.05412 0.62779 0.0
C916 C 0.50033 0.38623 0.92963 0.0
C917 C 0.5107 0.35835 0.88089 0.0
C918 C 0.53778 0.39628 0.77404 0.0
C919 C 0.52233 0.42385 0.81412 0.0
N920 N 0.51327 0.44261 0.96298 0.0
N921 N 0.53991 0.337 0.75475 0.0
C922 C 0.51006 0.41845 0.90151 0.0
C923 C 0.52965 0.36346 0.80252 0.0
N924 N 0.48083 0.38224 1.00292 0.0
N925 N 0.56439 0.40151 0.72031 0.0
H926 H 0.5353 0.31284 0.7748 0.0
H927 H 0.55106 0.33911 0.69271 0.0
H928 H 0.57422 0.42485 0.71141 0.0
H929 H 0.57934 0.38276 0.69629 0.0
H930 H 0.47049 0.40197 0.03669 0.0
H931 H 0.47287 0.35927 0.02567 0.0
H932 H 0.50859 0.43861 0.02997 0.0
H933 H 0.52627 0.46433 0.95007 0.0
C934 C 0.1592 0.51457 0.89686 0.0
C935 C 0.17122 0.48272 0.91836 0.0
C936 C 0.12329 0.45903 0.83876 0.0
C937 C 0.10888 0.49047 0.82912 0.0
N938 N 0.11198 0.54839 0.86124 0.0
N939 N 0.15878 0.42455 0.92691 0.0
C940 C 0.12644 0.51828 0.86228 0.0
C941 C 0.15162 0.4549 0.89388 0.0
N942 N 0.17976 0.54124 0.90351 0.0
N943 N 0.11075 0.43312 0.7925 0.0
H944 H 0.17744 0.4206 0.97288 0.0
H945 H 0.14373 0.40403 0.9165 0.0
H946 H 0.09093 0.43556 0.74913 0.0
H947 H 0.12225 0.4103 0.79014 0.0
H948 H 0.17353 0.56451 0.88043 0.0
H949 H 0.20444 0.53944 0.92254 0.0
H950 H 0.12195 0.56884 0.89295 0.0
H951 H 0.0886 0.55212 0.83518 0.0
C952 C 0.01676 0.88808 0.43874 0.0
C953 C 0.999 0.86179 0.47942 0.0
C954 C 0.98372 0.89911 0.60163 0.0
C955 C 1.00229 0.92523 0.56105 0.0
N956 N 0.02202 0.94687 0.42271 0.0
N957 N 0.96058 0.84353 0.59131 0.0
C958 C 0.01482 0.92032 0.47449 0.0
C959 C 0.981 0.8677 0.5587 0.0
N960 N 0.03631 0.88228 0.36658 0.0
N961 N 0.96841 0.90432 0.68073 0.0
H962 H 0.95854 0.82041 0.56224 0.0
H963 H 0.94427 0.84647 0.64401 0.0
H964 H 0.96792 0.92714 0.71074 0.0
H965 H 0.95703 0.8861 0.71869 0.0
H966 H 0.05234 0.89997 0.33996 0.0
H967 H 0.03883 0.85907 0.33841 0.0
H968 H 0.02724 0.94513 0.35536 0.0
H969 H 0.0194 0.97085 0.44538 0.0
C970 C 0.66793 0.99726 0.60281 0.0
C971 C 0.67426 0.01177 0.51848 0.0
C972 C 0.61518 0.02703 0.51093 0.0
C973 C 0.60936 0.01536 0.59865 0.0
N974 N 0.63221 0.99358 0.7329 0.0
N975 N 0.65501 0.04811 0.40415 0.0
C976 C 0.63642 1.00177 0.64599 0.0
C977 C 0.64813 0.02871 0.47589 0.0
N978 N 0.6917 0.97824 0.64058 0.0
N979 N 0.58918 0.03607 0.45953 0.0
H980 H 0.67884 0.05113 0.37839 0.0
H981 H 0.63781 0.06388 0.376 0.0
H982 H 0.56493 0.0356 0.48222 0.0
H983 H 0.5914 0.04109 0.39219 0.0
H984 H 0.68767 0.96416 0.69723 0.0
H985 H 0.71472 0.97432 0.61093 0.0
H986 H 0.6516 0.98691 0.77407 0.0
H987 H 0.6096 0.99597 0.7658 0.0
C988 C 0.54757 0.6679 0.59505 0.0
C989 C 0.53461 0.67177 0.50833 0.0
C990 C 0.51311 0.61452 0.51561 0.0
C991 C 0.5266 0.61019 0.60185 0.0
N992 N 0.55945 0.6322 0.72039 0.0
N993 N 0.50639 0.64833 0.3837 0.0
C994 C 0.54469 0.63679 0.64036 0.0
C995 C 0.51768 0.64491 0.46832 0.0
N996 N 0.56223 0.69435 0.6348 0.0
N997 N 0.49631 0.58908 0.47775 0.0
H998 H 0.50668 0.6706 0.34959 0.0
H999 H 0.49782 0.62914 0.34472 0.0
H1000 H 0.49638 0.56551 0.50401 0.0
H1001 H 0.48241 0.59079 0.42044 0.0
H1002 H 0.5692 0.69499 0.70075 0.0
H1003 H 0.56606 0.71674 0.60256 0.0
H1004 H 0.57618 0.64857 0.74855 0.0
H1005 H 0.55607 0.611 0.75797 0.0
C1006 C 0.86875 0.52375 0.60749 0.0
C1007 C 0.8645 0.51059 0.52141 0.0
C1008 C 0.92407 0.49697 0.51779 0.0
C1009 C 0.92767 0.50722 0.60715 0.0
N1010 N 0.90137 0.52518 0.74158 0.0
N1011 N 0.88731 0.48023 0.39936 0.0
C1012 C 0.89945 0.51943 0.65298 0.0
C1013 C 0.89201 0.49608 0.47782 0.0
N1014 N 0.84348 0.54091 0.6455 0.0
N1015 N 0.95153 0.48909 0.46963 0.0
H1016 H 0.86457 0.47949 0.36714 0.0
H1017 H 0.90521 0.46564 0.36953 0.0
H1018 H 0.97524 0.48945 0.49617 0.0
H1019 H 0.9513 0.48498 0.4018 0.0
H1020 H 0.84598 0.55414 0.70386 0.0
H1021 H 0.82074 0.54428 0.61458 0.0
H1022 H 0.88093 0.53045 0.78116 0.0
H1023 H 0.92297 0.52155 0.77723 0.0
loop_
_geom_bond_atom_site_label_1
_geom_bond_atom_site_label_2
_geom_bond_distance
_geom_bond_site_symmetry_2
_ccdc_geom_bond_type
P0 O11 1.490 . S
P0 C14 1.812 . S
P0 C20 1.803 . S
P0 C26 1.819 . S
H1 C15 0.941 . S
H2 C16 0.939 . S
H3 C18 0.940 . S
H4 C19 0.940 . S
H5 C21 0.939 . S
H6 C22 0.942 . S
H7 C24 0.940 . S
H8 C25 0.939 . S
H9 C27 0.941 . S
H10 C31 0.939 . S
O11 P0 1.490 . S
H12 C28 0.939 . S
H13 C30 0.940 . S
C14 P0 1.812 . S
C14 C15 1.389 . S
C14 C19 1.391 . S
C15 H1 0.941 . S
C15 C14 1.389 . S
C15 C16 1.397 . S
C16 H2 0.939 . S
C16 C15 1.397 . S
C16 C17 1.378 . S
C17 C16 1.378 . S
C17 C18 1.378 . S
C18 H3 0.940 . S
C18 C17 1.378 . S
C18 C19 1.396 . S
C19 H4 0.940 . S
C19 C14 1.391 . S
C19 C18 1.396 . S
C20 P0 1.803 . S
C20 C21 1.378 . S
C20 C25 1.400 . S
C21 H5 0.939 . S
C21 C20 1.378 . S
C21 C22 1.361 . S
C22 H6 0.942 . S
C22 C21 1.361 . S
C22 C23 1.369 . S
C23 C22 1.369 . S
C23 C24 1.404 . S
C24 H7 0.940 . S
C24 C23 1.404 . S
C24 C25 1.389 . S
C25 H8 0.939 . S
C25 C20 1.400 . S
C25 C24 1.389 . S
C26 P0 1.819 . S
C26 C27 1.391 . S
C26 C31 1.391 . S
C27 H9 0.941 . S
C27 C26 1.391 . S
C27 C28 1.396 . S
C28 H12 0.939 . S
C28 C27 1.396 . S
C28 C29 1.397 . S
C29 C28 1.397 . S
C29 C30 1.385 . S
C30 H13 0.940 . S
C30 C29 1.385 . S
C30 C31 1.388 . S
C31 H10 0.939 . S
C31 C26 1.391 . S
C31 C30 1.388 . S
P32 O43 1.490 . S
P32 C46 1.812 . S
P32 C52 1.803 . S
P32 C58 1.819 . S
H33 C47 0.941 . S
H34 C48 0.939 . S
H35 C50 0.940 . S
H36 C51 0.940 . S
H37 C53 0.939 . S
H38 C54 0.942 . S
H39 C56 0.940 . S
H40 C57 0.939 . S
H41 C59 0.941 . S
H42 C63 0.939 . S
O43 P32 1.490 . S
H44 C60 0.939 . S
H45 C62 0.940 . S
C46 P32 1.812 . S
C46 C47 1.389 . S
C46 C51 1.391 1_455 S
C47 H33 0.941 . S
C47 C46 1.389 . S
C47 C48 1.397 . S
C48 H34 0.939 . S
C48 C47 1.397 . S
C48 C49 1.378 1_455 S
C49 C48 1.378 1_655 S
C49 C50 1.378 . S
C50 H35 0.940 . S
C50 C49 1.378 . S
C50 C51 1.396 . S
C51 H36 0.940 . S
C51 C46 1.391 1_655 S
C51 C50 1.396 . S
C52 P32 1.803 . S
C52 C53 1.378 . S
C52 C57 1.400 1_455 S
C53 H37 0.939 . S
C53 C52 1.378 . S
C53 C54 1.361 . S
C54 H38 0.942 . S
C54 C53 1.361 . S
C54 C55 1.369 1_455 S
C55 C54 1.369 1_655 S
C55 C56 1.404 . S
C56 H39 0.940 . S
C56 C55 1.404 . S
C56 C57 1.389 . S
C57 H40 0.939 . S
C57 C52 1.400 1_655 S
C57 C56 1.389 . S
C58 P32 1.819 . S
C58 C59 1.391 . S
C58 C63 1.391 1_455 S
C59 H41 0.941 . S
C59 C58 1.391 . S
C59 C60 1.396 . S
C60 H44 0.939 . S
C60 C59 1.396 . S
C60 C61 1.397 1_455 S
C61 C60 1.397 1_655 S
C61 C62 1.385 . S
C62 H45 0.940 . S
C62 C61 1.385 . S
C62 C63 1.388 . S
C63 H42 0.939 . S
C63 C58 1.391 1_655 S
C63 C62 1.388 . S
P64 O75 1.490 . S
P64 C78 1.812 . S
P64 C84 1.803 . S
P64 C90 1.819 . S
H65 C79 0.941 . S
H66 C80 0.939 . S
H67 C82 0.940 . S
H68 C83 0.940 . S
H69 C85 0.939 . S
H70 C86 0.942 . S
H71 C88 0.940 . S
H72 C89 0.939 . S
H73 C91 0.941 . S
H74 C95 0.939 . S
O75 P64 1.490 . S
H76 C92 0.939 . S
H77 C94 0.940 . S
C78 P64 1.812 . S
C78 C79 1.389 . S
C78 C83 1.391 1_545 S
C79 H65 0.941 . S
C79 C78 1.389 . S
C79 C80 1.397 . S
C80 H66 0.939 . S
C80 C79 1.397 . S
C80 C81 1.378 1_545 S
C81 C80 1.378 1_565 S
C81 C82 1.378 . S
C82 H67 0.940 . S
C82 C81 1.378 . S
C82 C83 1.396 . S
C83 H68 0.940 . S
C83 C78 1.391 1_565 S
C83 C82 1.396 . S
C84 P64 1.803 . S
C84 C85 1.378 . S
C84 C89 1.400 1_545 S
C85 H69 0.939 . S
C85 C84 1.378 . S
C85 C86 1.361 . S
C86 H70 0.942 . S
C86 C85 1.361 . S
C86 C87 1.369 1_545 S
C87 C86 1.369 1_565 S
C87 C88 1.404 . S
C88 H71 0.940 . S
C88 C87 1.404 . S
C88 C89 1.389 . S
C89 H72 0.939 . S
C89 C84 1.400 1_565 S
C89 C88 1.389 . S
C90 P64 1.819 . S
C90 C91 1.391 . S
C90 C95 1.391 1_545 S
C91 H73 0.941 . S
C91 C90 1.391 . S
C91 C92 1.396 . S
C92 H76 0.939 . S
C92 C91 1.396 . S
C92 C93 1.397 1_545 S
C93 C92 1.397 1_565 S
C93 C94 1.385 . S
C94 H77 0.940 . S
C94 C93 1.385 . S
C94 C95 1.388 . S
C95 H74 0.939 . S
C95 C90 1.391 1_565 S
C95 C94 1.388 . S
P96 O107 1.490 . S
P96 C110 1.812 . S
P96 C116 1.803 . S
P96 C122 1.819 . S
H97 C111 0.941 . S
H98 C112 0.939 . S
H99 C114 0.940 . S
H100 C115 0.940 . S
H101 C117 0.939 . S
H102 C118 0.942 . S
H103 C120 0.940 . S
H104 C121 0.939 . S
H105 C123 0.941 . S
H106 C127 0.939 . S
O107 P96 1.490 . S
H108 C124 0.939 . S
H109 C126 0.940 . S
C110 P96 1.812 . S
C110 C111 1.389 . S
C110 C115 1.391 . S
C111 H97 0.941 . S
C111 C110 1.389 . S
C111 C112 1.397 . S
C112 H98 0.939 . S
C112 C111 1.397 . S
C112 C113 1.378 . S
C113 C112 1.378 . S
C113 C114 1.378 . S
C114 H99 0.940 . S
C114 C113 1.378 . S
C114 C115 1.396 . S
C115 H100 0.940 . S
C115 C110 1.391 . S
C115 C114 1.396 . S
C116 P96 1.803 . S
C116 C117 1.378 . S
C116 C121 1.400 . S
C117 H101 0.939 . S
C117 C116 1.378 . S
C117 C118 1.361 . S
C118 H102 0.942 . S
C118 C117 1.361 . S
C118 C119 1.369 . S
C119 C118 1.369 . S
C119 C120 1.404 . S
C120 H103 0.940 . S
C120 C119 1.404 . S
C120 C121 1.389 . S
C121 H104 0.939 . S
C121 C116 1.400 . S
C121 C120 1.389 . S
C122 P96 1.819 . S
C122 C123 1.391 . S
C122 C127 1.391 . S
C123 H105 0.941 . S
C123 C122 1.391 . S
C123 C124 1.396 . S
C124 H108 0.939 . S
C124 C123 1.396 . S
C124 C125 1.397 . S
C125 C124 1.397 . S
C125 C126 1.385 . S
C126 H109 0.940 . S
C126 C125 1.385 . S
C126 C127 1.388 . S
C127 H106 0.939 . S
C127 C122 1.391 . S
C127 C126 1.388 . S
P128 O139 1.490 . S
P128 C142 1.812 1_554 S
P128 C148 1.803 . S
P128 C154 1.819 . S
H129 C143 0.941 . S
H130 C144 0.939 . S
H131 C146 0.940 . S
H132 C147 0.940 . S
H133 C149 0.939 . S
H134 C150 0.942 . S
H135 C152 0.940 . S
H136 C153 0.939 . S
H137 C155 0.941 . S
H138 C159 0.939 . S
O139 P128 1.490 . S
H140 C156 0.939 . S
H141 C158 0.940 . S
C142 P128 1.812 1_556 S
C142 C143 1.389 . S
C142 C147 1.391 . S
C143 H129 0.941 . S
C143 C142 1.389 . S
C143 C144 1.397 . S
C144 H130 0.939 . S
C144 C143 1.397 . S
C144 C145 1.378 . S
C145 C144 1.378 . S
C145 C146 1.378 . S
C146 H131 0.940 . S
C146 C145 1.378 . S
C146 C147 1.396 . S
C147 H132 0.940 . S
C147 C142 1.391 . S
C147 C146 1.396 . S
C148 P128 1.803 . S
C148 C149 1.378 . S
C148 C153 1.400 . S
C149 H133 0.939 . S
C149 C148 1.378 . S
C149 C150 1.361 . S
C150 H134 0.942 . S
C150 C149 1.361 . S
C150 C151 1.369 . S
C151 C150 1.369 . S
C151 C152 1.404 . S
C152 H135 0.940 . S
C152 C151 1.404 . S
C152 C153 1.389 . S
C153 H136 0.939 . S
C153 C148 1.400 . S
C153 C152 1.389 . S
C154 P128 1.819 . S
C154 C155 1.391 . S
C154 C159 1.391 . S
C155 H137 0.941 . S
C155 C154 1.391 . S
C155 C156 1.396 . S
C156 H140 0.939 . S
C156 C155 1.396 . S
C156 C157 1.397 . S
C157 C156 1.397 . S
C157 C158 1.385 . S
C158 H141 0.940 . S
C158 C157 1.385 . S
C158 C159 1.388 . S
C159 H138 0.939 . S
C159 C154 1.391 . S
C159 C158 1.388 . S
P160 O171 1.490 . S
P160 C174 1.812 1_554 S
P160 C180 1.803 . S
P160 C186 1.819 . S
H161 C175 0.941 . S
H162 C176 0.939 . S
H163 C178 0.940 . S
H164 C179 0.940 . S
H165 C181 0.939 . S
H166 C182 0.942 . S
H167 C184 0.940 . S
H168 C185 0.939 . S
H169 C187 0.941 . S
H170 C191 0.939 . S
O171 P160 1.490 . S
H172 C188 0.939 . S
H173 C190 0.940 . S
C174 P160 1.812 1_556 S
C174 C175 1.389 . S
C174 C179 1.391 . S
C175 H161 0.941 . S
C175 C174 1.389 . S
C175 C176 1.397 . S
C176 H162 0.939 . S
C176 C175 1.397 . S
C176 C177 1.378 . S
C177 C176 1.378 . S
C177 C178 1.378 . S
C178 H163 0.940 . S
C178 C177 1.378 . S
C178 C179 1.396 . S
C179 H164 0.940 . S
C179 C174 1.391 . S
C179 C178 1.396 . S
C180 P160 1.803 . S
C180 C181 1.378 . S
C180 C185 1.400 . S
C181 H165 0.939 . S
C181 C180 1.378 . S
C181 C182 1.361 . S
C182 H166 0.942 . S
C182 C181 1.361 . S
C182 C183 1.369 . S
C183 C182 1.369 . S
C183 C184 1.404 . S
C184 H167 0.940 . S
C184 C183 1.404 . S
C184 C185 1.389 . S
C185 H168 0.939 . S
C185 C180 1.400 . S
C185 C184 1.389 . S
C186 P160 1.819 . S
C186 C187 1.391 . S
C186 C191 1.391 . S
C187 H169 0.941 . S
C187 C186 1.391 . S
C187 C188 1.396 . S
C188 H172 0.939 . S
C188 C187 1.396 . S
C188 C189 1.397 . S
C189 C188 1.397 . S
C189 C190 1.385 . S
C190 H173 0.940 . S
C190 C189 1.385 . S
C190 C191 1.388 . S
C191 H170 0.939 . S
C191 C186 1.391 . S
C191 C190 1.388 . S
P192 O203 1.490 . S
P192 C206 1.812 1_554 S
P192 C212 1.803 . S
P192 C218 1.819 . S
H193 C207 0.941 . S
H194 C208 0.939 . S
H195 C210 0.940 . S
H196 C211 0.940 . S
H197 C213 0.939 . S
H198 C214 0.942 . S
H199 C216 0.940 . S
H200 C217 0.939 . S
H201 C219 0.941 . S
H202 C223 0.939 . S
O203 P192 1.490 . S
H204 C220 0.939 . S
H205 C222 0.940 . S
C206 P192 1.812 1_556 S
C206 C207 1.389 . S
C206 C211 1.391 . S
C207 H193 0.941 . S
C207 C206 1.389 . S
C207 C208 1.397 . S
C208 H194 0.939 . S
C208 C207 1.397 . S
C208 C209 1.378 . S
C209 C208 1.378 . S
C209 C210 1.378 . S
C210 H195 0.940 . S
C210 C209 1.378 . S
C210 C211 1.396 . S
C211 H196 0.940 . S
C211 C206 1.391 . S
C211 C210 1.396 . S
C212 P192 1.803 . S
C212 C213 1.378 . S
C212 C217 1.400 . S
C213 H197 0.939 . S
C213 C212 1.378 . S
C213 C214 1.361 . S
C214 H198 0.942 . S
C214 C213 1.361 . S
C214 C215 1.369 . S
C215 C214 1.369 . S
C215 C216 1.404 . S
C216 H199 0.940 . S
C216 C215 1.404 . S
C216 C217 1.389 . S
C217 H200 0.939 . S
C217 C212 1.400 . S
C217 C216 1.389 . S
C218 P192 1.819 . S
C218 C219 1.391 . S
C218 C223 1.391 . S
C219 H201 0.941 . S
C219 C218 1.391 . S
C219 C220 1.396 . S
C220 H204 0.939 . S
C220 C219 1.396 . S
C220 C221 1.397 . S
C221 C220 1.397 . S
C221 C222 1.385 . S
C222 H205 0.940 . S
C222 C221 1.385 . S
C222 C223 1.388 . S
C223 H202 0.939 . S
C223 C218 1.391 . S
C223 C222 1.388 . S
P224 O235 1.490 . S
P224 C238 1.812 1_554 S
P224 C244 1.803 . S
P224 C250 1.819 . S
H225 C239 0.941 . S
H226 C240 0.939 . S
H227 C242 0.940 . S
H228 C243 0.940 . S
H229 C245 0.939 . S
H230 C246 0.942 . S
H231 C248 0.940 . S
H232 C249 0.939 . S
H233 C251 0.941 . S
H234 C255 0.939 . S
O235 P224 1.490 . S
H236 C252 0.939 . S
H237 C254 0.940 . S
C238 P224 1.812 1_556 S
C238 C239 1.389 . S
C238 C243 1.391 . S
C239 H225 0.941 . S
C239 C238 1.389 . S
C239 C240 1.397 . S
C240 H226 0.939 . S
C240 C239 1.397 . S
C240 C241 1.378 . S
C241 C240 1.378 . S
C241 C242 1.378 . S
C242 H227 0.940 . S
C242 C241 1.378 . S
C242 C243 1.396 . S
C243 H228 0.940 . S
C243 C238 1.391 . S
C243 C242 1.396 . S
C244 P224 1.803 . S
C244 C245 1.378 . S
C244 C249 1.400 . S
C245 H229 0.939 . S
C245 C244 1.378 . S
C245 C246 1.361 . S
C246 H230 0.942 . S
C246 C245 1.361 . S
C246 C247 1.369 . S
C247 C246 1.369 . S
C247 C248 1.404 . S
C248 H231 0.940 . S
C248 C247 1.404 . S
C248 C249 1.389 . S
C249 H232 0.939 . S
C249 C244 1.400 . S
C249 C248 1.389 . S
C250 P224 1.819 . S
C250 C251 1.391 . S
C250 C255 1.391 . S
C251 H233 0.941 . S
C251 C250 1.391 . S
C251 C252 1.396 . S
C252 H236 0.939 . S
C252 C251 1.396 . S
C252 C253 1.397 . S
C253 C252 1.397 . S
C253 C254 1.385 . S
C254 H237 0.940 . S
C254 C253 1.385 . S
C254 C255 1.388 . S
C255 H234 0.939 . S
C255 C250 1.391 . S
C255 C254 1.388 . S
C256 C258 1.422 . S
C256 C260 1.415 . S
C256 N262 1.369 . S
C257 C258 1.421 1_554 S
C257 C259 1.417 . S
C257 C269 1.422 . S
C258 C256 1.422 . S
C258 C257 1.421 1_556 S
C258 N268 1.359 . S
C259 C257 1.417 . S
C259 C261 1.329 1_554 S
C259 H278 0.930 . S
C260 C256 1.415 . S
C260 C261 1.437 . S
C260 C264 1.413 . S
C261 C259 1.329 1_556 S
C261 C260 1.437 . S
C261 H283 0.929 1_556 S
N262 C256 1.369 . S
N262 C263 1.338 1_545 S
N262 Gd267 2.622 1_545 S
C263 N262 1.338 1_565 S
C263 C265 1.378 1_565 S
C263 H275 0.929 . S
C264 C260 1.413 . S
C264 C265 1.348 . S
C264 H280 0.931 . S
C265 C263 1.378 1_545 S
C265 C264 1.348 . S
C265 H281 0.930 . S
Gd266 N286 2.622 . S
Gd266 N293 2.570 . S
Gd266 O300 2.353 1_655 S
Gd266 O301 2.468 . S
Gd266 O302 2.427 . S
Gd266 O304 2.388 . S
Gd266 O305 2.386 1_545 S
Gd266 O309 2.307 1_655 S
Gd266 C319 2.805 . S
Gd267 N262 2.622 1_565 S
Gd267 N268 2.570 1_565 S
Gd267 O299 2.386 1_565 S
Gd267 O303 2.304 1_465 S
Gd267 O306 2.353 . S
Gd267 O307 2.468 . S
Gd267 O308 2.427 . S
Gd267 O310 2.388 . S
Gd267 C331 2.805 . S
N268 C258 1.359 . S
N268 Gd267 2.570 1_545 S
N268 C270 1.343 . S
C269 C257 1.422 . S
C269 C271 1.321 . S
C269 H277 0.931 . S
C270 N268 1.343 . S
C270 C271 1.390 1_556 S
C270 H272 0.931 . S
C271 C269 1.321 . S
C271 C270 1.390 1_554 S
C271 H273 0.930 . S
H272 C270 0.931 . S
H273 C271 0.930 . S
H274 C297 0.931 1_455 S
H275 C263 0.929 . S
H276 C298 0.930 1_455 S
H277 C269 0.931 . S
H278 C259 0.930 . S
H279 C288 0.929 . S
H280 C264 0.931 . S
H281 C265 0.930 . S
H282 C320 0.930 . S
H283 C261 0.929 1_554 S
H284 C289 0.931 . S
H285 C290 0.930 . S
N286 Gd266 2.622 . S
N286 C287 1.369 1_545 S
N286 C288 1.338 . S
C287 N286 1.369 1_565 S
C287 C291 1.415 . S
C287 C294 1.422 . S
C288 H279 0.929 . S
C288 N286 1.338 . S
C288 C290 1.378 . S
C289 H284 0.931 . S
C289 C290 1.348 1_565 S
C289 C291 1.413 . S
C290 H285 0.930 . S
C290 C288 1.378 . S
C290 C289 1.348 1_545 S
C291 C287 1.415 . S
C291 C289 1.413 . S
C291 C321 1.437 . S
H292 C321 0.929 . S
N293 Gd266 2.570 . S
N293 C294 1.359 1_545 S
N293 C297 1.343 . S
C294 C287 1.422 . S
C294 N293 1.359 1_565 S
C294 C296 1.421 . S
C295 C296 1.422 . S
C295 C298 1.321 . S
C295 H322 0.931 . S
C296 C294 1.421 . S
C296 C295 1.422 . S
C296 C320 1.417 . S
C297 H274 0.931 1_655 S
C297 N293 1.343 . S
C297 C298 1.390 1_545 S
C298 H276 0.930 1_655 S
C298 C295 1.321 . S
C298 C297 1.390 1_565 S
O299 Gd267 2.386 1_545 S
O299 C311 1.265 . S
O300 Gd266 2.353 1_455 S
O300 C311 1.242 . S
O301 Gd266 2.468 . S
O301 C319 1.263 . S
O302 Gd266 2.427 . S
O302 C319 1.252 . S
O303 Gd267 2.304 1_645 S
O303 C312 1.263 . S
O304 Gd266 2.388 . S
O304 C312 1.252 . S
O305 Gd266 2.386 1_565 S
O305 C323 1.265 . S
O306 Gd267 2.353 . S
O306 C323 1.242 1_455 S
O307 Gd267 2.468 . S
O307 C331 1.263 . S
O308 Gd267 2.427 . S
O308 C331 1.252 . S
O309 Gd266 2.307 1_455 S
O309 C324 1.261 . S
O310 Gd267 2.388 . S
O310 C324 1.252 1_565 S
C311 O299 1.265 . S
C311 O300 1.242 . S
C312 O303 1.263 . S
C312 O304 1.252 . S
C313 C316 1.394 . S
C313 C318 1.370 . S
C313 C319 1.500 . S
C314 C317 1.383 . S
C314 C318 1.395 . S
C315 C316 1.396 . S
C315 C317 1.365 . S
C315 H332 0.929 . S
C316 C313 1.394 . S
C316 C315 1.396 . S
C316 H333 0.930 . S
C317 C314 1.383 . S
C317 C315 1.365 . S
C317 H334 0.931 . S
C318 C313 1.370 . S
C318 C314 1.395 . S
C318 H335 0.930 1_655 S
C319 Gd266 2.805 . S
C319 O301 1.263 . S
C319 O302 1.252 . S
C319 C313 1.500 . S
C320 H282 0.930 . S
C320 C296 1.417 . S
C320 C321 1.329 . S
C321 C291 1.437 . S
C321 H292 0.929 . S
C321 C320 1.329 . S
H322 C295 0.931 . S
C323 O305 1.265 . S
C323 O306 1.242 1_655 S
C324 O309 1.261 . S
C324 O310 1.252 1_545 S
C325 C328 1.394 . S
C325 C330 1.370 . S
C325 C331 1.500 . S
C326 C329 1.383 . S
C326 C330 1.395 . S
C327 C328 1.396 . S
C327 C329 1.365 . S
C327 H336 0.929 . S
C328 C325 1.394 . S
C328 C327 1.396 . S
C328 H337 0.930 . S
C329 C326 1.383 . S
C329 C327 1.365 . S
C329 H338 0.931 1_556 S
C330 C325 1.370 . S
C330 C326 1.395 . S
C330 H339 0.930 . S
C331 Gd267 2.805 . S
C331 O307 1.263 . S
C331 O308 1.252 . S
C331 C325 1.500 . S
H332 C315 0.929 . S
H333 C316 0.930 . S
H334 C317 0.931 . S
H335 C318 0.930 1_455 S
H336 C327 0.929 . S
H337 C328 0.930 . S
H338 C329 0.931 1_554 S
H339 C330 0.930 . S
C340 C342 1.422 . S
C340 C344 1.415 . S
C340 N346 1.369 . S
C341 C342 1.421 . S
C341 C343 1.417 . S
C341 C353 1.422 . S
C342 C340 1.422 . S
C342 C341 1.421 . S
C342 N352 1.359 . S
C343 C341 1.417 . S
C343 C345 1.329 . S
C343 H362 0.930 . S
C344 C340 1.415 . S
C344 C345 1.437 . S
C344 C348 1.413 . S
C345 C343 1.329 . S
C345 C344 1.437 . S
C345 H367 0.929 . S
N346 C340 1.369 . S
N346 C347 1.338 . S
N346 Gd351 2.622 . S
C347 N346 1.338 . S
C347 C349 1.378 . S
C347 H359 0.929 . S
C348 C344 1.413 . S
C348 C349 1.348 . S
C348 H364 0.931 . S
C349 C347 1.378 . S
C349 C348 1.348 . S
C349 H365 0.930 . S
Gd350 N370 2.622 . S
Gd350 N377 2.570 . S
Gd350 O384 2.353 1_545 S
Gd350 O385 2.468 . S
Gd350 O386 2.427 . S
Gd350 O388 2.388 . S
Gd350 O389 2.386 . S
Gd350 O393 2.307 . S
Gd350 C403 2.805 . S
Gd351 N346 2.622 . S
Gd351 N352 2.570 . S
Gd351 O383 2.386 . S
Gd351 O387 2.307 1_565 S
Gd351 O390 2.353 1_565 S
Gd351 O391 2.468 . S
Gd351 O392 2.427 . S
Gd351 O394 2.388 . S
Gd351 C415 2.805 . S
N352 C342 1.359 . S
N352 Gd351 2.570 . S
N352 C354 1.343 . S
C353 C341 1.422 . S
C353 C355 1.321 . S
C353 H361 0.931 . S
C354 N352 1.343 . S
C354 C355 1.390 . S
C354 H356 0.931 . S
C355 C353 1.321 . S
C355 C354 1.390 . S
C355 H357 0.930 . S
H356 C354 0.931 . S
H357 C355 0.930 . S
H358 C381 0.931 . S
H359 C347 0.929 . S
H360 C382 0.930 . S
H361 C353 0.931 . S
H362 C343 0.930 . S
H363 C372 0.929 . S
H364 C348 0.931 . S
H365 C349 0.930 . S
H366 C404 0.930 . S
H367 C345 0.929 . S
H368 C373 0.931 . S
H369 C374 0.930 . S
N370 Gd350 2.622 . S
N370 C371 1.369 . S
N370 C372 1.338 . S
C371 N370 1.369 . S
C371 C375 1.415 . S
C371 C378 1.422 . S
C372 H363 0.929 . S
C372 N370 1.338 . S
C372 C374 1.378 . S
C373 H368 0.931 . S
C373 C374 1.348 . S
C373 C375 1.413 . S
C374 H369 0.930 . S
C374 C372 1.378 . S
C374 C373 1.348 . S
C375 C371 1.415 . S
C375 C373 1.413 . S
C375 C405 1.437 . S
H376 C405 0.929 . S
N377 Gd350 2.570 . S
N377 C378 1.359 . S
N377 C381 1.343 . S
C378 C371 1.422 . S
C378 N377 1.359 . S
C378 C380 1.421 . S
C379 C380 1.422 . S
C379 C382 1.321 . S
C379 H406 0.931 . S
C380 C378 1.421 . S
C380 C379 1.422 . S
C380 C404 1.417 . S
C381 H358 0.931 . S
C381 N377 1.343 . S
C381 C382 1.390 . S
C382 H360 0.930 . S
C382 C379 1.321 . S
C382 C381 1.390 . S
O383 Gd351 2.386 . S
O383 C395 1.265 . S
O384 Gd350 2.353 1_565 S
O384 C395 1.242 . S
O385 Gd350 2.468 . S
O385 C403 1.263 . S
O386 Gd350 2.427 . S
O386 C403 1.252 . S
O387 Gd351 2.307 1_545 S
O387 C396 1.261 . S
O388 Gd350 2.388 . S
O388 C396 1.252 . S
O389 Gd350 2.386 . S
O389 C407 1.265 . S
O390 Gd351 2.353 1_545 S
O390 C407 1.242 . S
O391 Gd351 2.468 . S
O391 C415 1.263 . S
O392 Gd351 2.427 . S
O392 C415 1.252 . S
O393 Gd350 2.307 . S
O393 C408 1.261 1_545 S
O394 Gd351 2.388 . S
O394 C408 1.252 . S
C395 O383 1.265 . S
C395 O384 1.242 . S
C396 O387 1.261 . S
C396 O388 1.252 . S
C397 C400 1.394 1_556 S
C397 C402 1.370 . S
C397 C403 1.500 . S
C398 C401 1.383 . S
C398 C402 1.395 1_554 S
C399 C400 1.396 . S
C399 C401 1.365 . S
C399 H416 0.929 . S
C400 C397 1.394 1_554 S
C400 C399 1.396 . S
C400 H417 0.930 . S
C401 C398 1.383 . S
C401 C399 1.365 . S
C401 H418 0.931 . S
C402 C397 1.370 . S
C402 C398 1.395 1_556 S
C402 H419 0.930 . S
C403 Gd350 2.805 . S
C403 O385 1.263 . S
C403 O386 1.252 . S
C403 C397 1.500 . S
C404 H366 0.930 . S
C404 C380 1.417 . S
C404 C405 1.329 . S
C405 C375 1.437 . S
C405 H376 0.929 . S
C405 C404 1.329 . S
H406 C379 0.931 . S
C407 O389 1.265 . S
C407 O390 1.242 . S
C408 O393 1.261 1_565 S
C408 O394 1.252 . S
C409 C412 1.394 . S
C409 C414 1.370 . S
C409 C415 1.500 . S
C410 C413 1.383 . S
C410 C414 1.395 . S
C411 C412 1.396 . S
C411 C413 1.365 . S
C411 H420 0.929 . S
C412 C409 1.394 . S
C412 C411 1.396 . S
C412 H421 0.930 . S
C413 C410 1.383 . S
C413 C411 1.365 . S
C413 H422 0.931 . S
C414 C409 1.370 . S
C414 C410 1.395 . S
C414 H423 0.930 . S
C415 Gd351 2.805 . S
C415 O391 1.263 . S
C415 O392 1.252 . S
C415 C409 1.500 . S
H416 C399 0.929 . S
H417 C400 0.930 . S
H418 C401 0.931 . S
H419 C402 0.930 . S
H420 C411 0.929 . S
H421 C412 0.930 . S
H422 C413 0.931 . S
H423 C414 0.930 . S
C424 C426 1.422 . S
C424 C428 1.415 . S
C424 N430 1.369 . S
C425 C426 1.421 1_554 S
C425 C427 1.417 . S
C425 C437 1.422 . S
C426 C424 1.422 . S
C426 C425 1.421 1_556 S
C426 N436 1.359 . S
C427 C425 1.417 . S
C427 C429 1.329 1_554 S
C427 H446 0.930 . S
C428 C424 1.415 . S
C428 C429 1.437 . S
C428 C432 1.413 . S
C429 C427 1.329 1_556 S
C429 C428 1.437 . S
C429 H451 0.929 1_556 S
N430 C424 1.369 . S
N430 C431 1.338 . S
N430 Gd435 2.622 . S
C431 N430 1.338 . S
C431 C433 1.378 . S
C431 H443 0.929 . S
C432 C428 1.413 . S
C432 C433 1.348 . S
C432 H448 0.931 . S
C433 C431 1.378 . S
C433 C432 1.348 . S
C433 H449 0.930 . S
Gd434 N454 2.622 . S
Gd434 N461 2.570 . S
Gd434 O468 2.353 . S
Gd434 O469 2.468 . S
Gd434 O470 2.427 . S
Gd434 O472 2.388 . S
Gd434 O473 2.386 . S
Gd434 O477 2.307 . S
Gd434 C487 2.805 . S
Gd435 N430 2.622 . S
Gd435 N436 2.570 . S
Gd435 O467 2.386 . S
Gd435 O471 2.307 . S
Gd435 O474 2.353 . S
Gd435 O475 2.468 . S
Gd435 O476 2.427 . S
Gd435 O478 2.388 . S
Gd435 C499 2.805 . S
N436 C426 1.359 . S
N436 Gd435 2.570 . S
N436 C438 1.343 . S
C437 C425 1.422 . S
C437 C439 1.321 . S
C437 H445 0.931 . S
C438 N436 1.343 . S
C438 C439 1.390 1_556 S
C438 H440 0.931 . S
C439 C437 1.321 . S
C439 C438 1.390 1_554 S
C439 H441 0.930 . S
H440 C438 0.931 . S
H441 C439 0.930 . S
H442 C465 0.931 . S
H443 C431 0.929 . S
H444 C466 0.930 . S
H445 C437 0.931 . S
H446 C427 0.930 . S
H447 C456 0.929 . S
H448 C432 0.931 . S
H449 C433 0.930 . S
H450 C488 0.930 . S
H451 C429 0.929 1_554 S
H452 C457 0.931 . S
H453 C458 0.930 . S
N454 Gd434 2.622 . S
N454 C455 1.369 . S
N454 C456 1.338 . S
C455 N454 1.369 . S
C455 C459 1.415 . S
C455 C462 1.422 . S
C456 H447 0.929 . S
C456 N454 1.338 . S
C456 C458 1.378 . S
C457 H452 0.931 . S
C457 C458 1.348 . S
C457 C459 1.413 . S
C458 H453 0.930 . S
C458 C456 1.378 . S
C458 C457 1.348 . S
C459 C455 1.415 . S
C459 C457 1.413 . S
C459 C489 1.437 . S
H460 C489 0.929 . S
N461 Gd434 2.570 . S
N461 C462 1.359 . S
N461 C465 1.343 . S
C462 C455 1.422 . S
C462 N461 1.359 . S
C462 C464 1.421 . S
C463 C464 1.422 . S
C463 C466 1.321 . S
C463 H490 0.931 . S
C464 C462 1.421 . S
C464 C463 1.422 . S
C464 C488 1.417 . S
C465 H442 0.931 . S
C465 N461 1.343 . S
C465 C466 1.390 . S
C466 H444 0.930 . S
C466 C463 1.321 . S
C466 C465 1.390 . S
O467 Gd435 2.386 . S
O467 C479 1.265 . S
O468 Gd434 2.353 . S
O468 C479 1.242 . S
O469 Gd434 2.468 . S
O469 C487 1.263 . S
O470 Gd434 2.427 . S
O470 C487 1.252 . S
O471 Gd435 2.307 . S
O471 C480 1.261 . S
O472 Gd434 2.388 . S
O472 C480 1.252 . S
O473 Gd434 2.386 . S
O473 C491 1.265 . S
O474 Gd435 2.353 . S
O474 C491 1.242 . S
O475 Gd435 2.468 . S
O475 C499 1.263 . S
O476 Gd435 2.427 . S
O476 C499 1.252 . S
O477 Gd434 2.307 . S
O477 C492 1.261 . S
O478 Gd435 2.388 . S
O478 C492 1.252 . S
C479 O467 1.265 . S
C479 O468 1.242 . S
C480 O471 1.261 . S
C480 O472 1.252 . S
C481 C484 1.394 . S
C481 C486 1.370 . S
C481 C487 1.500 . S
C482 C485 1.383 . S
C482 C486 1.395 . S
C483 C484 1.396 . S
C483 C485 1.365 . S
C483 H500 0.929 . S
C484 C481 1.394 . S
C484 C483 1.396 . S
C484 H501 0.930 . S
C485 C482 1.383 . S
C485 C483 1.365 . S
C485 H502 0.931 . S
C486 C481 1.370 . S
C486 C482 1.395 . S
C486 H503 0.930 . S
C487 Gd434 2.805 . S
C487 O469 1.263 . S
C487 O470 1.252 . S
C487 C481 1.500 . S
C488 H450 0.930 . S
C488 C464 1.417 . S
C488 C489 1.329 . S
C489 C459 1.437 . S
C489 H460 0.929 . S
C489 C488 1.329 . S
H490 C463 0.931 . S
C491 O473 1.265 . S
C491 O474 1.242 . S
C492 O477 1.261 . S
C492 O478 1.252 . S
C493 C496 1.394 . S
C493 C498 1.370 . S
C493 C499 1.500 . S
C494 C497 1.383 1_554 S
C494 C498 1.395 1_554 S
C495 C496 1.396 . S
C495 C497 1.365 . S
C495 H504 0.929 . S
C496 C493 1.394 . S
C496 C495 1.396 . S
C496 H505 0.930 . S
C497 C494 1.383 1_556 S
C497 C495 1.365 . S
C497 H506 0.931 1_556 S
C498 C493 1.370 . S
C498 C494 1.395 1_556 S
C498 H507 0.930 . S
C499 Gd435 2.805 . S
C499 O475 1.263 . S
C499 O476 1.252 . S
C499 C493 1.500 . S
H500 C483 0.929 . S
H501 C484 0.930 . S
H502 C485 0.931 . S
H503 C486 0.930 . S
H504 C495 0.929 . S
H505 C496 0.930 . S
H506 C497 0.931 1_554 S
H507 C498 0.930 . S
C508 C510 1.422 . S
C508 C512 1.415 . S
C508 N514 1.369 1_455 S
C509 C510 1.421 1_554 S
C509 C511 1.417 . S
C509 C521 1.422 . S
C510 C508 1.422 . S
C510 C509 1.421 1_556 S
C510 N520 1.359 . S
C511 C509 1.417 . S
C511 C513 1.329 1_554 S
C511 H530 0.930 . S
C512 C508 1.415 . S
C512 C513 1.437 . S
C512 C516 1.413 . S
C513 C511 1.329 1_556 S
C513 C512 1.437 . S
C513 H535 0.929 1_556 S
N514 C508 1.369 1_655 S
N514 C515 1.338 . S
N514 Gd519 2.622 . S
C515 N514 1.338 . S
C515 C517 1.378 1_655 S
C515 H527 0.929 . S
C516 C512 1.413 . S
C516 C517 1.348 . S
C516 H532 0.931 . S
C517 C515 1.378 1_455 S
C517 C516 1.348 . S
C517 H533 0.930 . S
Gd518 N538 2.622 . S
Gd518 N545 2.570 . S
Gd518 O552 2.353 . S
Gd518 O553 2.468 . S
Gd518 O554 2.427 . S
Gd518 O556 2.388 . S
Gd518 O557 2.386 1_455 S
Gd518 O561 2.307 . S
Gd518 C571 2.805 . S
Gd519 N514 2.622 . S
Gd519 N520 2.570 1_655 S
Gd519 O551 2.386 1_655 S
Gd519 O555 2.307 . S
Gd519 O558 2.353 . S
Gd519 O559 2.468 . S
Gd519 O560 2.427 . S
Gd519 O562 2.388 . S
Gd519 C583 2.805 . S
N520 C510 1.359 . S
N520 Gd519 2.570 1_455 S
N520 C522 1.343 . S
C521 C509 1.422 . S
C521 C523 1.321 . S
C521 H529 0.931 . S
C522 N520 1.343 . S
C522 C523 1.390 1_556 S
C522 H524 0.945 . S
C523 C521 1.321 . S
C523 C522 1.390 1_554 S
C523 H525 0.930 . S
H524 C522 0.945 . S
H525 C523 0.930 . S
H526 C549 0.931 . S
H527 C515 0.929 . S
H528 C550 0.930 . S
H529 C521 0.931 . S
H530 C511 0.930 . S
H531 C540 0.929 . S
H532 C516 0.931 . S
H533 C517 0.930 . S
H534 C572 0.930 . S
H535 C513 0.929 1_554 S
H536 C541 0.931 . S
H537 C542 0.930 . S
N538 Gd518 2.622 . S
N538 C539 1.369 1_455 S
N538 C540 1.338 . S
C539 N538 1.369 1_655 S
C539 C543 1.415 . S
C539 C546 1.422 . S
C540 H531 0.929 . S
C540 N538 1.338 . S
C540 C542 1.378 . S
C541 H536 0.931 . S
C541 C542 1.348 1_655 S
C541 C543 1.413 . S
C542 H537 0.930 . S
C542 C540 1.378 . S
C542 C541 1.348 1_455 S
C543 C539 1.415 . S
C543 C541 1.413 . S
C543 C573 1.437 . S
H544 C573 0.929 . S
N545 Gd518 2.570 . S
N545 C546 1.359 1_455 S
N545 C549 1.343 . S
C546 C539 1.422 . S
C546 N545 1.359 1_655 S
C546 C548 1.421 . S
C547 C548 1.422 . S
C547 C550 1.321 . S
C547 H574 0.931 . S
C548 C546 1.421 . S
C548 C547 1.422 . S
C548 C572 1.417 . S
C549 H526 0.931 . S
C549 N545 1.343 . S
C549 C550 1.390 1_455 S
C550 H528 0.930 . S
C550 C547 1.321 . S
C550 C549 1.390 1_655 S
O551 Gd519 2.386 1_455 S
O551 C563 1.265 . S
O552 Gd518 2.353 . S
O552 C563 1.242 . S
O553 Gd518 2.468 . S
O553 C571 1.263 . S
O554 Gd518 2.427 . S
O554 C571 1.252 . S
O555 Gd519 2.307 . S
O555 C564 1.261 1_655 S
O556 Gd518 2.388 . S
O556 C564 1.252 . S
O557 Gd518 2.386 1_655 S
O557 C575 1.265 . S
O558 Gd519 2.353 . S
O558 C575 1.242 . S
O559 Gd519 2.468 . S
O559 C583 1.263 . S
O560 Gd519 2.427 . S
O560 C583 1.252 . S
O561 Gd518 2.307 . S
O561 C576 1.261 . S
O562 Gd519 2.388 . S
O562 C576 1.252 1_655 S
C563 O551 1.265 . S
C563 O552 1.242 . S
C564 O555 1.261 1_455 S
C564 O556 1.252 . S
C565 C568 1.394 . S
C565 C570 1.370 . S
C565 C571 1.500 . S
C566 C569 1.383 . S
C566 C570 1.395 . S
C567 C568 1.396 . S
C567 C569 1.365 . S
C567 H584 0.929 . S
C568 C565 1.394 . S
C568 C567 1.396 . S
C568 H585 0.930 . S
C569 C566 1.383 . S
C569 C567 1.365 . S
C569 H586 0.931 . S
C570 C565 1.370 . S
C570 C566 1.395 . S
C570 H587 0.930 . S
C571 Gd518 2.805 . S
C571 O553 1.263 . S
C571 O554 1.252 . S
C571 C565 1.500 . S
C572 H534 0.930 . S
C572 C548 1.417 . S
C572 C573 1.329 . S
C573 C543 1.437 . S
C573 H544 0.929 . S
C573 C572 1.329 . S
H574 C547 0.931 . S
C575 O557 1.265 . S
C575 O558 1.242 . S
C576 O561 1.261 . S
C576 O562 1.252 1_455 S
C577 C580 1.394 . S
C577 C582 1.370 . S
C577 C583 1.500 . S
C578 C581 1.384 . S
C578 C582 1.396 . S
C579 C580 1.396 . S
C579 C581 1.365 . S
C579 H588 0.929 . S
C580 C577 1.394 . S
C580 C579 1.396 . S
C580 H589 0.930 . S
C581 C578 1.384 . S
C581 C579 1.365 . S
C581 H590 0.931 1_556 S
C582 C577 1.370 . S
C582 C578 1.396 . S
C582 H591 0.930 . S
C583 Gd519 2.805 . S
C583 O559 1.263 . S
C583 O560 1.252 . S
C583 C577 1.500 . S
H584 C567 0.929 . S
H585 C568 0.930 . S
H586 C569 0.931 . S
H587 C570 0.930 . S
H588 C579 0.929 . S
H589 C580 0.930 . S
H590 C581 0.931 1_554 S
H591 C582 0.930 . S
C592 C593 1.363 . S
C592 C598 1.379 . S
C592 N600 1.356 . S
C593 C592 1.363 . S
C593 C599 1.363 . S
C594 C595 1.363 . S
C594 C599 1.379 . S
C594 N601 1.356 1_545 S
C595 C594 1.363 . S
C595 C598 1.363 . S
N596 C598 1.356 . S
N596 H608 0.984 . S
N596 H609 0.985 . S
N597 C599 1.356 1_565 S
N597 H602 0.977 1_565 S
N597 H603 0.985 . S
C598 C592 1.379 . S
C598 C595 1.363 . S
C598 N596 1.356 . S
C599 C593 1.363 . S
C599 C594 1.379 . S
C599 N597 1.356 1_545 S
N600 C592 1.356 . S
N600 H606 0.984 . S
N600 H607 0.984 . S
N601 C594 1.356 1_565 S
N601 H604 0.984 . S
N601 H605 0.985 . S
H602 N597 0.977 1_545 S
H603 N597 0.985 . S
H604 N601 0.984 . S
H605 N601 0.985 . S
H606 N600 0.984 . S
H607 N600 0.984 . S
H608 N596 0.984 . S
H609 N596 0.985 . S
C610 C611 1.363 . S
C610 C616 1.379 . S
C610 N618 1.356 . S
C611 C610 1.363 . S
C611 C617 1.363 . S
C612 C613 1.363 . S
C612 C617 1.379 . S
C612 N619 1.356 . S
C613 C612 1.363 . S
C613 C616 1.363 . S
N614 C616 1.356 . S
N614 H626 0.984 . S
N614 H627 0.985 . S
N615 C617 1.356 . S
N615 H620 0.984 . S
N615 H621 0.985 . S
C616 C610 1.379 . S
C616 C613 1.363 . S
C616 N614 1.356 . S
C617 C611 1.363 . S
C617 C612 1.379 . S
C617 N615 1.356 . S
N618 C610 1.356 . S
N618 H624 0.984 . S
N618 H625 0.984 . S
N619 C612 1.356 . S
N619 H622 0.984 . S
N619 H623 0.985 . S
H620 N615 0.984 . S
H621 N615 0.985 . S
H622 N619 0.984 . S
H623 N619 0.985 . S
H624 N618 0.984 . S
H625 N618 0.984 . S
H626 N614 0.984 . S
H627 N614 0.985 . S
C628 C629 1.363 . S
C628 C634 1.379 . S
C628 N636 1.356 . S
C629 C628 1.363 . S
C629 C635 1.363 . S
C630 C631 1.363 . S
C630 C635 1.379 . S
C630 N637 1.356 . S
C631 C630 1.363 . S
C631 C634 1.363 . S
N632 C634 1.356 . S
N632 H644 0.984 . S
N632 H645 0.985 . S
N633 C635 1.356 . S
N633 H638 0.984 . S
N633 H639 0.985 . S
C634 C628 1.379 . S
C634 C631 1.363 . S
C634 N632 1.356 . S
C635 C629 1.363 . S
C635 C630 1.379 . S
C635 N633 1.356 . S
N636 C628 1.356 . S
N636 H642 0.984 . S
N636 H643 0.984 . S
N637 C630 1.356 . S
N637 H640 0.984 . S
N637 H641 0.985 . S
H638 N633 0.984 . S
H639 N633 0.985 . S
H640 N637 0.984 . S
H641 N637 0.985 . S
H642 N636 0.984 . S
H643 N636 0.984 . S
H644 N632 0.984 . S
H645 N632 0.985 . S
C646 C647 1.363 . S
C646 C652 1.379 . S
C646 N654 1.356 . S
C647 C646 1.363 . S
C647 C653 1.363 . S
C648 C649 1.363 . S
C648 C653 1.379 . S
C648 N655 1.356 . S
C649 C648 1.363 . S
C649 C652 1.363 . S
N650 C652 1.356 1_655 S
N650 H662 0.984 . S
N650 H663 0.985 . S
N651 C653 1.356 . S
N651 H656 0.984 . S
N651 H657 0.985 . S
C652 C646 1.379 . S
C652 C649 1.363 . S
C652 N650 1.356 1_455 S
C653 C647 1.363 . S
C653 C648 1.379 . S
C653 N651 1.356 . S
N654 C646 1.356 . S
N654 H660 0.984 1_455 S
N654 H661 0.984 . S
N655 C648 1.356 . S
N655 H658 0.984 . S
N655 H659 0.985 . S
H656 N651 0.984 . S
H657 N651 0.985 . S
H658 N655 0.984 . S
H659 N655 0.985 . S
H660 N654 0.984 1_655 S
H661 N654 0.984 . S
H662 N650 0.984 . S
H663 N650 0.985 . S
C664 C665 1.363 . S
C664 C670 1.379 1_554 S
C664 N672 1.356 . S
C665 C664 1.363 . S
C665 C671 1.363 . S
C666 C667 1.357 1_544 S
C666 C671 1.375 1_545 S
C666 N673 1.366 1_554 S
C667 C666 1.357 1_566 S
C667 C670 1.363 . S
N668 C670 1.356 . S
N668 H680 0.984 . S
N668 H681 0.985 . S
N669 C671 1.356 1_545 S
N669 H674 0.984 1_545 S
N669 H675 0.985 . S
C670 C664 1.379 1_556 S
C670 C667 1.363 . S
C670 N668 1.356 . S
C671 C665 1.363 . S
C671 C666 1.375 1_565 S
C671 N669 1.356 1_565 S
N672 C664 1.356 . S
N672 H678 0.984 . S
N672 H679 0.984 . S
N673 C666 1.366 1_556 S
N673 H676 0.984 . S
N673 H677 0.985 1_655 S
H674 N669 0.984 1_565 S
H675 N669 0.985 . S
H676 N673 0.984 . S
H677 N673 0.985 1_455 S
H678 N672 0.984 . S
H679 N672 0.984 . S
H680 N668 0.984 . S
H681 N668 0.985 . S
C682 C683 1.363 . S
C682 C688 1.379 . S
C682 N690 1.356 . S
C683 C682 1.363 . S
C683 C689 1.363 . S
C684 C685 1.363 . S
C684 C689 1.379 1_556 S
C684 N691 1.356 . S
C685 C684 1.363 . S
C685 C688 1.363 1_556 S
N686 C688 1.356 1_556 S
N686 H698 0.984 . S
N686 H699 0.985 . S
N687 C689 1.356 . S
N687 H692 0.984 . S
N687 H693 0.985 . S
C688 C682 1.379 . S
C688 C685 1.363 1_554 S
C688 N686 1.356 1_554 S
C689 C683 1.363 . S
C689 C684 1.379 1_554 S
C689 N687 1.356 . S
N690 C682 1.356 . S
N690 H696 0.984 . S
N690 H697 0.984 . S
N691 C684 1.356 . S
N691 H694 0.984 . S
N691 H695 0.985 . S
H692 N687 0.984 . S
H693 N687 0.985 . S
H694 N691 0.984 . S
H695 N691 0.985 . S
H696 N690 0.984 . S
H697 N690 0.984 . S
H698 N686 0.984 . S
H699 N686 0.985 . S
C700 C701 1.363 . S
C700 C706 1.379 1_554 S
C700 N708 1.356 . S
C701 C700 1.363 . S
C701 C707 1.363 . S
C702 C703 1.363 . S
C702 C707 1.379 1_556 S
C702 N709 1.356 . S
C703 C702 1.363 . S
C703 C706 1.363 . S
N704 C706 1.356 . S
N704 H716 0.984 . S
N704 H717 0.985 . S
N705 C707 1.356 . S
N705 H710 0.984 . S
N705 H711 0.985 . S
C706 C700 1.379 1_556 S
C706 C703 1.363 . S
C706 N704 1.356 . S
C707 C701 1.363 . S
C707 C702 1.379 1_554 S
C707 N705 1.356 . S
N708 C700 1.356 . S
N708 H714 0.984 . S
N708 H715 0.984 . S
N709 C702 1.356 . S
N709 H712 0.984 . S
N709 H713 0.985 . S
H710 N705 0.984 . S
H711 N705 0.985 . S
H712 N709 0.984 . S
H713 N709 0.985 . S
H714 N708 0.984 . S
H715 N708 0.984 . S
H716 N704 0.984 . S
H717 N704 0.985 . S
C718 C719 1.363 1_455 S
C718 C724 1.379 . S
C718 N726 1.356 . S
C719 C718 1.363 1_655 S
C719 C725 1.363 . S
C720 C721 1.363 . S
C720 C725 1.379 1_556 S
C720 N727 1.356 . S
C721 C720 1.363 . S
C721 C724 1.363 1_656 S
N722 C724 1.356 1_556 S
N722 H734 0.984 . S
N722 H735 0.985 . S
N723 C725 1.356 . S
N723 H728 0.984 . S
N723 H729 0.985 . S
C724 C718 1.379 . S
C724 C721 1.363 1_454 S
C724 N722 1.356 1_554 S
C725 C719 1.363 . S
C725 C720 1.379 1_554 S
C725 N723 1.356 . S
N726 C718 1.356 . S
N726 H732 0.984 . S
N726 H733 0.984 . S
N727 C720 1.356 . S
N727 H730 0.984 . S
N727 H731 0.985 . S
H728 N723 0.984 . S
H729 N723 0.985 . S
H730 N727 0.984 . S
H731 N727 0.985 . S
H732 N726 0.984 . S
H733 N726 0.984 . S
H734 N722 0.984 . S
H735 N722 0.985 . S
C736 C737 1.363 . S
C736 C742 1.379 1_455 S
C736 N744 1.356 . S
C737 C736 1.363 . S
C737 C743 1.363 . S
C738 C739 1.363 1_455 S
C738 C743 1.379 . S
C738 N745 1.356 . S
C739 C738 1.363 1_655 S
C739 C742 1.363 . S
N740 C742 1.356 . S
N740 H752 0.984 . S
N740 H753 0.985 . S
N741 C743 1.356 . S
N741 H746 0.984 . S
N741 H747 0.985 . S
C742 C736 1.379 1_655 S
C742 C739 1.363 . S
C742 N740 1.356 . S
C743 C737 1.363 . S
C743 C738 1.379 . S
C743 N741 1.356 . S
N744 C736 1.356 . S
N744 H750 0.984 1_455 S
N744 H751 0.984 . S
N745 C738 1.356 . S
N745 H748 0.984 1_455 S
N745 H749 0.985 . S
H746 N741 0.984 . S
H747 N741 0.985 . S
H748 N745 0.984 1_655 S
H749 N745 0.985 . S
H750 N744 0.984 1_655 S
H751 N744 0.984 . S
H752 N740 0.984 . S
H753 N740 0.985 . S
C754 C755 1.363 . S
C754 C760 1.379 . S
C754 N762 1.356 . S
C755 C754 1.363 . S
C755 C761 1.363 . S
C756 C757 1.363 . S
C756 C761 1.379 1_565 S
C756 N763 1.356 . S
C757 C756 1.363 . S
C757 C760 1.363 1_565 S
N758 C760 1.356 . S
N758 H770 0.984 . S
N758 H771 0.985 . S
N759 C761 1.356 . S
N759 H764 0.984 . S
N759 H765 0.985 1_545 S
C760 C754 1.379 . S
C760 C757 1.363 1_545 S
C760 N758 1.356 . S
C761 C755 1.363 . S
C761 C756 1.379 1_545 S
C761 N759 1.356 . S
N762 C754 1.356 . S
N762 H768 0.984 . S
N762 H769 0.984 . S
N763 C756 1.356 . S
N763 H766 0.984 . S
N763 H767 0.985 . S
H764 N759 0.984 . S
H765 N759 0.985 1_565 S
H766 N763 0.984 . S
H767 N763 0.985 . S
H768 N762 0.984 . S
H769 N762 0.984 . S
H770 N758 0.984 . S
H771 N758 0.985 . S
C772 C773 1.363 . S
C772 C778 1.379 . S
C772 N780 1.356 . S
C773 C772 1.363 . S
C773 C779 1.363 . S
C774 C775 1.363 . S
C774 C779 1.379 . S
C774 N781 1.356 . S
C775 C774 1.363 . S
C775 C778 1.363 . S
N776 C778 1.356 . S
N776 H788 0.984 . S
N776 H789 0.985 . S
N777 C779 1.356 . S
N777 H782 0.984 . S
N777 H783 0.985 . S
C778 C772 1.379 . S
C778 C775 1.363 . S
C778 N776 1.356 . S
C779 C773 1.363 . S
C779 C774 1.379 . S
C779 N777 1.356 . S
N780 C772 1.356 . S
N780 H786 0.984 . S
N780 H787 0.984 . S
N781 C774 1.356 . S
N781 H784 0.984 . S
N781 H785 0.985 . S
H782 N777 0.984 . S
H783 N777 0.985 . S
H784 N781 0.984 . S
H785 N781 0.985 . S
H786 N780 0.984 . S
H787 N780 0.984 . S
H788 N776 0.984 . S
H789 N776 0.985 . S
C790 C791 1.363 . S
C790 C796 1.379 . S
C790 N798 1.356 . S
C791 C790 1.363 . S
C791 C797 1.363 . S
C792 C793 1.363 . S
C792 C797 1.379 . S
C792 N799 1.356 . S
C793 C792 1.363 . S
C793 C796 1.363 . S
N794 C796 1.356 . S
N794 H806 0.984 . S
N794 H807 0.985 . S
N795 C797 1.356 . S
N795 H800 0.984 . S
N795 H801 0.985 . S
C796 C790 1.379 . S
C796 C793 1.363 . S
C796 N794 1.356 . S
C797 C791 1.363 . S
C797 C792 1.379 . S
C797 N795 1.356 . S
N798 C790 1.356 . S
N798 H804 0.984 . S
N798 H805 0.984 . S
N799 C792 1.356 . S
N799 H802 0.984 . S
N799 H803 0.985 . S
H800 N795 0.984 . S
H801 N795 0.985 . S
H802 N799 0.984 . S
H803 N799 0.985 . S
H804 N798 0.984 . S
H805 N798 0.984 . S
H806 N794 0.984 . S
H807 N794 0.985 . S
C808 C809 1.363 . S
C808 C814 1.379 1_654 S
C808 N816 1.356 . S
C809 C808 1.363 . S
C809 C815 1.363 . S
C810 C811 1.363 . S
C810 C815 1.379 1_455 S
C810 N817 1.356 . S
C811 C810 1.363 . S
C811 C814 1.363 1_554 S
N812 C814 1.356 . S
N812 H824 0.984 . S
N812 H825 0.985 . S
N813 C815 1.356 . S
N813 H818 0.984 . S
N813 H819 0.985 . S
C814 C808 1.379 1_456 S
C814 C811 1.363 1_556 S
C814 N812 1.356 . S
C815 C809 1.363 . S
C815 C810 1.379 1_655 S
C815 N813 1.356 . S
N816 C808 1.356 . S
N816 H822 0.984 1_554 S
N816 H823 0.984 . S
N817 C810 1.356 . S
N817 H820 0.984 . S
N817 H821 0.985 . S
H818 N813 0.984 . S
H819 N813 0.985 . S
H820 N817 0.984 . S
H821 N817 0.985 . S
H822 N816 0.984 1_556 S
H823 N816 0.984 . S
H824 N812 0.984 . S
H825 N812 0.985 . S
C826 C827 1.363 . S
C826 C832 1.379 1_565 S
C826 N834 1.356 . S
C827 C826 1.363 . S
C827 C833 1.363 . S
C828 C829 1.363 1_556 S
C828 C833 1.379 1_546 S
C828 N835 1.356 . S
C829 C828 1.363 1_554 S
C829 C832 1.363 . S
N830 C832 1.356 . S
N830 H842 0.984 . S
N830 H843 0.985 . S
N831 C833 1.356 . S
N831 H836 0.984 . S
N831 H837 0.985 1_554 S
C832 C826 1.379 1_545 S
C832 C829 1.363 . S
C832 N830 1.356 . S
C833 C827 1.363 . S
C833 C828 1.379 1_564 S
C833 N831 1.356 . S
N834 C826 1.356 . S
N834 H840 0.984 . S
N834 H841 0.984 . S
N835 C828 1.356 . S
N835 H838 0.984 . S
N835 H839 0.985 . S
H836 N831 0.984 . S
H837 N831 0.985 1_556 S
H838 N835 0.984 . S
H839 N835 0.985 . S
H840 N834 0.984 . S
H841 N834 0.984 . S
H842 N830 0.984 . S
H843 N830 0.985 . S
C844 C845 1.363 . S
C844 C850 1.379 . S
C844 N852 1.356 . S
C845 C844 1.363 . S
C845 C851 1.363 . S
C846 C847 1.363 . S
C846 C851 1.379 . S
C846 N853 1.356 1_554 S
C847 C846 1.363 . S
C847 C850 1.363 . S
N848 C850 1.356 . S
N848 H860 0.984 . S
N848 H861 0.985 . S
N849 C851 1.356 . S
N849 H854 0.984 . S
N849 H855 0.985 . S
C850 C844 1.379 . S
C850 C847 1.363 . S
C850 N848 1.356 . S
C851 C845 1.363 . S
C851 C846 1.379 . S
C851 N849 1.356 . S
N852 C844 1.356 . S
N852 H858 0.984 . S
N852 H859 0.984 . S
N853 C846 1.356 1_556 S
N853 H856 0.984 . S
N853 H857 0.985 . S
H854 N849 0.984 . S
H855 N849 0.985 . S
H856 N853 0.984 . S
H857 N853 0.985 . S
H858 N852 0.984 . S
H859 N852 0.984 . S
H860 N848 0.984 . S
H861 N848 0.985 . S
C862 C863 1.363 . S
C862 C868 1.379 1_554 S
C862 N870 1.356 1_554 S
C863 C862 1.363 . S
C863 C869 1.363 . S
C864 C865 1.363 . S
C864 C869 1.379 . S
C864 N871 1.356 . S
C865 C864 1.363 . S
C865 C868 1.363 1_554 S
N866 C868 1.356 . S
N866 H878 0.984 . S
N866 H879 0.985 . S
N867 C869 1.356 . S
N867 H872 0.984 . S
N867 H873 0.985 . S
C868 C862 1.379 1_556 S
C868 C865 1.363 1_556 S
C868 N866 1.356 . S
C869 C863 1.363 . S
C869 C864 1.379 . S
C869 N867 1.356 . S
N870 C862 1.356 1_556 S
N870 H876 0.984 . S
N870 H877 0.984 1_556 S
N871 C864 1.356 . S
N871 H874 0.984 . S
N871 H875 0.985 . S
H872 N867 0.984 . S
H873 N867 0.985 . S
H874 N871 0.984 . S
H875 N871 0.985 . S
H876 N870 0.984 . S
H877 N870 0.984 1_554 S
H878 N866 0.984 . S
H879 N866 0.985 . S
C880 C881 1.363 . S
C880 C886 1.379 . S
C880 N888 1.356 . S
C881 C880 1.363 . S
C881 C887 1.363 . S
C882 C883 1.363 . S
C882 C887 1.379 . S
C882 N889 1.356 . S
C883 C882 1.363 . S
C883 C886 1.363 . S
N884 C886 1.347 1_655 S
N884 H896 0.996 . S
N884 H897 0.982 1_655 S
N885 C887 1.356 . S
N885 H890 0.984 . S
N885 H891 0.985 . S
C886 C880 1.379 . S
C886 C883 1.363 . S
C886 N884 1.347 1_455 S
C887 C881 1.363 . S
C887 C882 1.379 . S
C887 N885 1.356 . S
N888 C880 1.356 . S
N888 H894 0.984 1_455 S
N888 H895 0.984 . S
N889 C882 1.356 . S
N889 H892 0.984 . S
N889 H893 0.985 . S
H890 N885 0.984 . S
H891 N885 0.985 . S
H892 N889 0.984 . S
H893 N889 0.985 . S
H894 N888 0.984 1_655 S
H895 N888 0.984 . S
H896 N884 0.996 . S
H897 N884 0.982 1_455 S
C898 C899 1.363 . S
C898 C904 1.379 . S
C898 N906 1.356 1_545 S
C899 C898 1.363 . S
C899 C905 1.363 . S
C900 C901 1.363 . S
C900 C905 1.379 . S
C900 N907 1.356 . S
C901 C900 1.363 . S
C901 C904 1.363 . S
N902 C904 1.356 1_565 S
N902 H914 0.984 . S
N902 H915 0.985 . S
N903 C905 1.356 . S
N903 H908 0.984 . S
N903 H909 0.985 . S
C904 C898 1.379 . S
C904 C901 1.363 . S
C904 N902 1.356 1_545 S
C905 C899 1.363 . S
C905 C900 1.379 . S
C905 N903 1.356 . S
N906 C898 1.356 1_565 S
N906 H912 0.984 . S
N906 H913 0.984 1_565 S
N907 C900 1.356 . S
N907 H910 0.984 . S
N907 H911 0.985 . S
H908 N903 0.984 . S
H909 N903 0.985 . S
H910 N907 0.984 . S
H911 N907 0.985 . S
H912 N906 0.984 . S
H913 N906 0.984 1_545 S
H914 N902 0.984 . S
H915 N902 0.985 . S
C916 C917 1.363 . S
C916 C922 1.379 . S
C916 N924 1.356 . S
C917 C916 1.363 . S
C917 C923 1.363 . S
C918 C919 1.363 . S
C918 C923 1.379 . S
C918 N925 1.356 . S
C919 C918 1.363 . S
C919 C922 1.363 . S
N920 C922 1.356 . S
N920 H932 0.984 . S
N920 H933 0.985 . S
N921 C923 1.356 . S
N921 H926 0.984 . S
N921 H927 0.985 . S
C922 C916 1.379 . S
C922 C919 1.363 . S
C922 N920 1.356 . S
C923 C917 1.363 . S
C923 C918 1.379 . S
C923 N921 1.356 . S
N924 C916 1.356 . S
N924 H930 0.984 . S
N924 H931 0.984 . S
N925 C918 1.356 . S
N925 H928 0.984 . S
N925 H929 0.985 . S
H926 N921 0.984 . S
H927 N921 0.985 . S
H928 N925 0.984 . S
H929 N925 0.985 . S
H930 N924 0.984 . S
H931 N924 0.984 . S
H932 N920 0.984 . S
H933 N920 0.985 . S
C934 C935 1.363 . S
C934 C940 1.379 . S
C934 N942 1.356 . S
C935 C934 1.363 . S
C935 C941 1.363 . S
C936 C937 1.363 . S
C936 C941 1.379 . S
C936 N943 1.356 . S
C937 C936 1.363 . S
C937 C940 1.363 . S
N938 C940 1.356 . S
N938 H950 0.984 . S
N938 H951 0.985 . S
N939 C941 1.356 . S
N939 H944 0.984 . S
N939 H945 0.985 . S
C940 C934 1.379 . S
C940 C937 1.363 . S
C940 N938 1.356 . S
C941 C935 1.363 . S
C941 C936 1.379 . S
C941 N939 1.356 . S
N942 C934 1.356 . S
N942 H948 0.984 . S
N942 H949 0.984 . S
N943 C936 1.356 . S
N943 H946 0.984 . S
N943 H947 0.985 . S
H944 N939 0.984 . S
H945 N939 0.985 . S
H946 N943 0.984 . S
H947 N943 0.985 . S
H948 N942 0.984 . S
H949 N942 0.984 . S
H950 N938 0.984 . S
H951 N938 0.985 . S
C952 C953 1.363 . S
C952 C958 1.380 . S
C952 N960 1.356 1_655 S
C953 C952 1.363 . S
C953 C959 1.363 . S
C954 C955 1.363 . S
C954 C959 1.379 . S
C954 N961 1.356 . S
C955 C954 1.363 . S
C955 C958 1.373 . S
N956 C958 1.347 1_455 S
N956 H968 0.984 . S
N956 H969 0.985 . S
N957 C959 1.356 . S
N957 H962 0.984 . S
N957 H963 0.985 . S
C958 C952 1.380 . S
C958 C955 1.373 . S
C958 N956 1.347 1_655 S
C959 C953 1.363 . S
C959 C954 1.379 . S
C959 N957 1.356 . S
N960 C952 1.356 1_455 S
N960 H966 0.984 . S
N960 H967 0.984 . S
N961 C954 1.356 . S
N961 H964 0.984 . S
N961 H965 0.985 . S
H962 N957 0.984 . S
H963 N957 0.985 . S
H964 N961 0.984 . S
H965 N961 0.985 . S
H966 N960 0.984 . S
H967 N960 0.984 . S
H968 N956 0.984 . S
H969 N956 0.985 . S
C970 C971 1.363 . S
C970 C976 1.379 . S
C970 N978 1.356 . S
C971 C970 1.363 . S
C971 C977 1.363 . S
C972 C973 1.363 . S
C972 C977 1.379 . S
C972 N979 1.356 1_565 S
C973 C972 1.363 . S
C973 C976 1.363 . S
N974 C976 1.356 . S
N974 H986 0.984 . S
N974 H987 0.985 . S
N975 C977 1.356 1_545 S
N975 H980 0.984 1_545 S
N975 H981 0.985 . S
C976 C970 1.379 . S
C976 C973 1.363 . S
C976 N974 1.356 . S
C977 C971 1.363 . S
C977 C972 1.379 . S
C977 N975 1.356 1_565 S
N978 C970 1.356 . S
N978 H984 0.984 . S
N978 H985 0.984 . S
N979 C972 1.356 1_545 S
N979 H982 0.984 . S
N979 H983 0.985 . S
H980 N975 0.984 1_565 S
H981 N975 0.985 . S
H982 N979 0.984 . S
H983 N979 0.985 . S
H984 N978 0.984 . S
H985 N978 0.984 . S
H986 N974 0.984 . S
H987 N974 0.985 . S
C988 C989 1.363 . S
C988 C994 1.379 . S
C988 N996 1.356 . S
C989 C988 1.363 . S
C989 C995 1.363 . S
C990 C991 1.363 . S
C990 C995 1.379 . S
C990 N997 1.356 . S
C991 C990 1.363 . S
C991 C994 1.363 . S
N992 C994 1.356 . S
N992 H1004 0.984 . S
N992 H1005 0.985 . S
N993 C995 1.356 . S
N993 H998 0.984 . S
N993 H999 0.985 . S
C994 C988 1.379 . S
C994 C991 1.363 . S
C994 N992 1.356 . S
C995 C989 1.363 . S
C995 C990 1.379 . S
C995 N993 1.356 . S
N996 C988 1.356 . S
N996 H1002 0.984 . S
N996 H1003 0.984 . S
N997 C990 1.356 . S
N997 H1000 0.984 . S
N997 H1001 0.985 . S
H998 N993 0.984 . S
H999 N993 0.985 . S
H1000 N997 0.984 . S
H1001 N997 0.985 . S
H1002 N996 0.984 . S
H1003 N996 0.984 . S
H1004 N992 0.984 . S
H1005 N992 0.985 . S
C1006 C1007 1.363 . S
C1006 C1012 1.379 . S
C1006 N1014 1.356 . S
C1007 C1006 1.363 . S
C1007 C1013 1.363 . S
C1008 C1009 1.363 . S
C1008 C1013 1.379 . S
C1008 N1015 1.356 . S
C1009 C1008 1.363 . S
C1009 C1012 1.363 . S
N1010 C1012 1.356 . S
N1010 H1022 0.984 . S
N1010 H1023 0.985 . S
N1011 C1013 1.356 . S
N1011 H1016 0.984 . S
N1011 H1017 0.985 . S
C1012 C1006 1.379 . S
C1012 C1009 1.363 . S
C1012 N1010 1.356 . S
C1013 C1007 1.363 . S
C1013 C1008 1.379 . S
C1013 N1011 1.356 . S
N1014 C1006 1.356 . S
N1014 H1020 0.984 . S
N1014 H1021 0.984 . S
N1015 C1008 1.356 . S
N1015 H1018 0.984 . S
N1015 H1019 0.985 . S
H1016 N1011 0.984 . S
H1017 N1011 0.985 . S
H1018 N1015 0.984 . S
H1019 N1015 0.985 . S
H1020 N1014 0.984 . S
H1021 N1014 0.984 . S
H1022 N1010 0.984 . S
H1023 N1010 0.985 . S
C593 C215 2.389 . S
C595 C324 2.577 . S
C613 C407 2.577 . S
C611 C247 2.397 . S
C631 C492 2.581 . S
C629 C151 2.391 . S
C649 C576 2.560 . S
C647 C183 2.372 . S
C667 C312 2.577 1_565 S
C665 C87 2.327 . S
C683 C119 2.334 . S
C685 C395 2.577 . S
C701 C23 2.332 . S
C703 C480 2.581 . S
C719 C55 2.314 . S
C721 C564 2.560 1_655 S
C739 C314 0.768 . S
C737 C189 0.768 . S
C757 C410 0.754 . S
C755 C221 0.754 . S
C775 C482 0.786 . S
C773 C253 0.786 . S
C791 C157 0.759 . S
C793 C566 0.759 . S
C809 C61 0.758 . S
C811 C326 0.768 1_554 S
C829 C398 0.753 . S
C827 C93 0.752 . S
C847 C494 0.786 . S
C845 C125 0.766 . S
C863 C29 0.754 . S
C865 C578 0.758 1_554 S
C881 C177 2.587 . S
C883 C311 2.895 . S
C899 C209 2.593 . S
C901 C396 2.975 . S
C919 C479 2.915 . S
C917 C241 2.607 . S
C937 C563 2.918 . S
C935 C145 2.610 . S
C953 C49 2.559 . S
C955 C323 2.895 . S
C973 C408 2.975 . S
C971 C81 2.559 . S
C991 C491 2.915 . S
C989 C113 2.575 . S
C1007 C17 2.581 . S
C1009 C575 2.917 . S
