# Generated by pormake.
# Topology ctn, (3,4)-cn, num edge types: 1
# Building blocks:
#     Node 0, Type 0, BuildingBlock: PAMTOO_clean_linker_0, # of connection points: 3
#     Node 1, Type 0, BuildingBlock: PAMTOO_clean_linker_0, # of connection points: 3
#     Node 2, Type 0, BuildingBlock: PAMTOO_clean_linker_0, # of connection points: 3
#     Node 3, Type 0, BuildingBlock: PAMTOO_clean_linker_0, # of connection points: 3
#     Node 4, Type 0, BuildingBlock: PAMTOO_clean_linker_0, # of connection points: 3
#     Node 5, Type 0, BuildingBlock: PAMTOO_clean_linker_0, # of connection points: 3
#     Node 6, Type 0, BuildingBlock: PAMTOO_clean_linker_0, # of connection points: 3
#     Node 7, Type 0, BuildingBlock: PAMTOO_clean_linker_0, # of connection points: 3
#     Node 8, Type 0, BuildingBlock: PAMTOO_clean_linker_0, # of connection points: 3
#     Node 9, Type 0, BuildingBlock: PAMTOO_clean_linker_0, # of connection points: 3
#     Node 10, Type 0, BuildingBlock: PAMTOO_clean_linker_0, # of connection points: 3
#     Node 11, Type 0, BuildingBlock: PAMTOO_clean_linker_0, # of connection points: 3
#     Node 12, Type 0, BuildingBlock: PAMTOO_clean_linker_0, # of connection points: 3
#     Node 13, Type 0, BuildingBlock: PAMTOO_clean_linker_0, # of connection points: 3
#     Node 14, Type 0, BuildingBlock: PAMTOO_clean_linker_0, # of connection points: 3
#     Node 15, Type 0, BuildingBlock: PAMTOO_clean_linker_0, # of connection points: 3
#     Node 16, Type 1, BuildingBlock: NAHDIM_clean_sbu_0, # of connection points: 4
#     Node 17, Type 1, BuildingBlock: NAHDIM_clean_sbu_0, # of connection points: 4
#     Node 18, Type 1, BuildingBlock: NAHDIM_clean_sbu_0, # of connection points: 4
#     Node 19, Type 1, BuildingBlock: NAHDIM_clean_sbu_0, # of connection points: 4
#     Node 20, Type 1, BuildingBlock: NAHDIM_clean_sbu_0, # of connection points: 4
#     Node 21, Type 1, BuildingBlock: NAHDIM_clean_sbu_0, # of connection points: 4
#     Node 22, Type 1, BuildingBlock: NAHDIM_clean_sbu_0, # of connection points: 4
#     Node 23, Type 1, BuildingBlock: NAHDIM_clean_sbu_0, # of connection points: 4
#     Node 24, Type 1, BuildingBlock: NAHDIM_clean_sbu_0, # of connection points: 4
#     Node 25, Type 1, BuildingBlock: NAHDIM_clean_sbu_0, # of connection points: 4
#     Node 26, Type 1, BuildingBlock: NAHDIM_clean_sbu_0, # of connection points: 4
#     Node 27, Type 1, BuildingBlock: NAHDIM_clean_sbu_0, # of connection points: 4
#     Edge 28, Type (0, 1), BuildingBlock: ZUJKAS_clean_linker_0, # of connection points: 2
#     Edge 29, Type (0, 1), BuildingBlock: ZUJKAS_clean_linker_0, # of connection points: 2
#     Edge 30, Type (0, 1), BuildingBlock: ZUJKAS_clean_linker_0, # of connection points: 2
#     Edge 31, Type (0, 1), BuildingBlock: ZUJKAS_clean_linker_0, # of connection points: 2
#     Edge 32, Type (0, 1), BuildingBlock: ZUJKAS_clean_linker_0, # of connection points: 2
#     Edge 33, Type (0, 1), BuildingBlock: ZUJKAS_clean_linker_0, # of connection points: 2
#     Edge 34, Type (0, 1), BuildingBlock: ZUJKAS_clean_linker_0, # of connection points: 2
#     Edge 35, Type (0, 1), BuildingBlock: ZUJKAS_clean_linker_0, # of connection points: 2
#     Edge 36, Type (0, 1), BuildingBlock: ZUJKAS_clean_linker_0, # of connection points: 2
#     Edge 37, Type (0, 1), BuildingBlock: ZUJKAS_clean_linker_0, # of connection points: 2
#     Edge 38, Type (0, 1), BuildingBlock: ZUJKAS_clean_linker_0, # of connection points: 2
#     Edge 39, Type (0, 1), BuildingBlock: ZUJKAS_clean_linker_0, # of connection points: 2
#     Edge 40, Type (0, 1), BuildingBlock: ZUJKAS_clean_linker_0, # of connection points: 2
#     Edge 41, Type (0, 1), BuildingBlock: ZUJKAS_clean_linker_0, # of connection points: 2
#     Edge 42, Type (0, 1), BuildingBlock: ZUJKAS_clean_linker_0, # of connection points: 2
#     Edge 43, Type (0, 1), BuildingBlock: ZUJKAS_clean_linker_0, # of connection points: 2
#     Edge 44, Type (0, 1), BuildingBlock: ZUJKAS_clean_linker_0, # of connection points: 2
#     Edge 45, Type (0, 1), BuildingBlock: ZUJKAS_clean_linker_0, # of connection points: 2
#     Edge 46, Type (0, 1), BuildingBlock: ZUJKAS_clean_linker_0, # of connection points: 2
#     Edge 47, Type (0, 1), BuildingBlock: ZUJKAS_clean_linker_0, # of connection points: 2
#     Edge 48, Type (0, 1), BuildingBlock: ZUJKAS_clean_linker_0, # of connection points: 2
#     Edge 49, Type (0, 1), BuildingBlock: ZUJKAS_clean_linker_0, # of connection points: 2
#     Edge 50, Type (0, 1), BuildingBlock: ZUJKAS_clean_linker_0, # of connection points: 2
#     Edge 51, Type (0, 1), BuildingBlock: ZUJKAS_clean_linker_0, # of connection points: 2
#     Edge 52, Type (0, 1), BuildingBlock: ZUJKAS_clean_linker_0, # of connection points: 2
#     Edge 53, Type (0, 1), BuildingBlock: ZUJKAS_clean_linker_0, # of connection points: 2
#     Edge 54, Type (0, 1), BuildingBlock: ZUJKAS_clean_linker_0, # of connection points: 2
#     Edge 55, Type (0, 1), BuildingBlock: ZUJKAS_clean_linker_0, # of connection points: 2
#     Edge 56, Type (0, 1), BuildingBlock: ZUJKAS_clean_linker_0, # of connection points: 2
#     Edge 57, Type (0, 1), BuildingBlock: ZUJKAS_clean_linker_0, # of connection points: 2
#     Edge 58, Type (0, 1), BuildingBlock: ZUJKAS_clean_linker_0, # of connection points: 2
#     Edge 59, Type (0, 1), BuildingBlock: ZUJKAS_clean_linker_0, # of connection points: 2
#     Edge 60, Type (0, 1), BuildingBlock: ZUJKAS_clean_linker_0, # of connection points: 2
#     Edge 61, Type (0, 1), BuildingBlock: ZUJKAS_clean_linker_0, # of connection points: 2
#     Edge 62, Type (0, 1), BuildingBlock: ZUJKAS_clean_linker_0, # of connection points: 2
#     Edge 63, Type (0, 1), BuildingBlock: ZUJKAS_clean_linker_0, # of connection points: 2
#     Edge 64, Type (0, 1), BuildingBlock: ZUJKAS_clean_linker_0, # of connection points: 2
#     Edge 65, Type (0, 1), BuildingBlock: ZUJKAS_clean_linker_0, # of connection points: 2
#     Edge 66, Type (0, 1), BuildingBlock: ZUJKAS_clean_linker_0, # of connection points: 2
#     Edge 67, Type (0, 1), BuildingBlock: ZUJKAS_clean_linker_0, # of connection points: 2
#     Edge 68, Type (0, 1), BuildingBlock: ZUJKAS_clean_linker_0, # of connection points: 2
#     Edge 69, Type (0, 1), BuildingBlock: ZUJKAS_clean_linker_0, # of connection points: 2
#     Edge 70, Type (0, 1), BuildingBlock: ZUJKAS_clean_linker_0, # of connection points: 2
#     Edge 71, Type (0, 1), BuildingBlock: ZUJKAS_clean_linker_0, # of connection points: 2
#     Edge 72, Type (0, 1), BuildingBlock: ZUJKAS_clean_linker_0, # of connection points: 2
#     Edge 73, Type (0, 1), BuildingBlock: ZUJKAS_clean_linker_0, # of connection points: 2
#     Edge 74, Type (0, 1), BuildingBlock: ZUJKAS_clean_linker_0, # of connection points: 2
#     Edge 75, Type (0, 1), BuildingBlock: ZUJKAS_clean_linker_0, # of connection points: 2
# Relax obj value: 0.061
# Max RMSD: 0.181
# Mean RMSD: 0.113
data_MOF--net-ctn--node1-NAHDIM_clean_sbu_0--node2-PAMTOO_clean_linker_0--edge1-ZUJKAS_clean_linker_0
_symmetry_space_group_name_H-M    P1
_symmetry_Int_Tables_number       1
_symmetry_cell_setting            triclinic
loop_
_symmetry_equiv_pos_as_xyz
'x, y, z'
_cell_length_a     69.963203
_cell_length_b     70.740586
_cell_length_c     71.151535
_cell_angle_alpha  86.194631
_cell_angle_beta   92.346396
_cell_angle_gamma 99.33145
loop_
_atom_site_label
_atom_site_type_symbol
_atom_site_fract_x
_atom_site_fract_y
_atom_site_fract_z
_atom_type_partial_charge
H0 H 0.01237 0.07557 0.05065 0.0
H1 H 0.04005 0.02607 0.06433 0.0
H2 H 0.05282 0.0598 0.01276 0.0
H3 H 0.04776 0.01836 0.00971 0.0
C4 C 0.05433 0.01405 0.02353 0.0
O5 O 0.06015 0.02997 0.03376 0.0
H6 H 0.04313 0.00384 0.03128 0.0
C7 C 0.02224 0.06611 0.04712 0.0
C8 C 0.03218 0.0697 0.03015 0.0
C9 C 0.02489 0.05042 0.05958 0.0
C10 C 0.03766 0.03818 0.05488 0.0
C11 C 0.0477 0.04166 0.03805 0.0
C12 C 0.04505 0.0574 0.02579 0.0
H13 H 0.30443 0.69551 0.25402 0.0
H14 H 0.26849 0.70949 0.20608 0.0
H15 H 0.31922 0.74877 0.22089 0.0
H16 H 0.28536 0.76693 0.20998 0.0
C17 C 0.27805 0.75655 0.19985 0.0
O18 O 0.28939 0.74269 0.19759 0.0
H19 H 0.26386 0.74982 0.20572 0.0
C20 C 0.3014 0.70521 0.24224 0.0
C21 C 0.31399 0.72263 0.23887 0.0
C22 C 0.28487 0.70026 0.23055 0.0
C23 C 0.28104 0.71302 0.21538 0.0
C24 C 0.29341 0.73042 0.21201 0.0
C25 C 0.30989 0.73514 0.22361 0.0
H26 H 0.97067 0.49626 0.08934 0.0
H27 H 0.9557 0.47376 0.0349 0.0
H28 H 1.00002 0.45264 0.06955 0.0
H29 H 0.00823 0.46189 0.02939 0.0
C30 C 0.99382 0.45577 0.02326 0.0
O31 O 0.98083 0.45011 0.0374 0.0
H32 H 0.98865 0.46715 0.01377 0.0
C33 C 0.97272 0.48665 0.07862 0.0
C34 C 0.98666 0.47439 0.08171 0.0
C35 C 0.96148 0.48668 0.06175 0.0
C36 C 0.9643 0.47418 0.04793 0.0
C37 C 0.97815 0.46198 0.05083 0.0
C38 C 0.9892 0.46202 0.06766 0.0
H39 H 0.70831 0.83053 0.24463 0.0
H40 H 0.69148 0.77477 0.22245 0.0
H41 H 0.74158 0.81202 0.20174 0.0
H42 H 0.7116 0.79322 0.17405 0.0
C43 C 0.71076 0.77844 0.18078 0.0
O44 O 0.71938 0.77897 0.19856 0.0
H45 H 0.69516 0.7722 0.18185 0.0
C46 C 0.71084 0.8196 0.23547 0.0
C47 C 0.7267 0.82336 0.2235 0.0
C48 C 0.69791 0.80216 0.23526 0.0
C49 C 0.70103 0.78843 0.22277 0.0
C50 C 0.71661 0.79217 0.21062 0.0
C51 C 0.72942 0.80951 0.21103 0.0
H52 H 0.08318 0.9724 0.50094 0.0
H53 H 0.03045 0.96297 0.467 0.0
H54 H 0.07219 0.01346 0.45596 0.0
H55 H 0.0328 0.02111 0.45156 0.0
C56 C 0.02512 0.00642 0.44899 0.0
O57 O 0.03846 0.99467 0.44596 0.0
H58 H 0.01664 0.00097 0.46169 0.0
C59 C 0.07398 0.97693 0.48945 0.0
C60 C 0.08004 0.99427 0.47896 0.0
C61 C 0.05612 0.96546 0.48536 0.0
C62 C 0.04424 0.97158 0.47053 0.0
C63 C 0.05011 0.98883 0.46002 0.0
C64 C 0.06799 1.00005 0.46411 0.0
H65 H 0.19721 0.76204 0.80438 0.0
H66 H 0.21266 0.71951 0.76973 0.0
H67 H 0.24706 0.73486 0.81921 0.0
H68 H 0.26978 0.73041 0.78711 0.0
C69 C 0.25963 0.7193 0.77979 0.0
O70 O 0.24323 0.71373 0.79018 0.0
H71 H 0.25557 0.72562 0.76573 0.0
C72 C 0.2065 0.75171 0.80171 0.0
C73 C 0.22246 0.74977 0.81395 0.0
C74 C 0.20271 0.74087 0.78572 0.0
C75 C 0.21534 0.72815 0.78187 0.0
C76 C 0.23134 0.72619 0.79387 0.0
C77 C 0.23481 0.73684 0.8099 0.0
H78 H 0.95597 0.56354 0.50691 0.0
H79 H 0.97741 0.53529 0.46222 0.0
H80 H 0.01289 0.58379 0.48551 0.0
H81 H 0.018 0.58328 0.44481 0.0
C82 C 0.01171 0.568 0.44303 0.0
O83 O 0.01061 0.55812 0.46043 0.0
H84 H 0.99699 0.56769 0.43635 0.0
C85 C 0.96734 0.56239 0.49735 0.0
C86 C 0.98471 0.57557 0.49785 0.0
C87 C 0.96453 0.5477 0.48466 0.0
C88 C 0.97932 0.54635 0.47228 0.0
C89 C 0.99657 0.55948 0.47252 0.0
C90 C 0.99931 0.57394 0.48532 0.0
H91 H 0.78275 0.80932 0.84249 0.0
H92 H 0.8253 0.78238 0.81682 0.0
H93 H 0.80416 0.83009 0.78771 0.0
H94 H 0.81137 0.80266 0.76164 0.0
C95 C 0.82063 0.7944 0.77097 0.0
O96 O 0.8274 0.8049 0.78622 0.0
H97 H 0.81155 0.78063 0.77577 0.0
C98 C 0.79187 0.80833 0.83076 0.0
C99 C 0.79184 0.8215 0.81503 0.0
C100 C 0.80401 0.79423 0.83169 0.0
C101 C 0.81609 0.79333 0.81659 0.0
C102 C 0.81606 0.80623 0.80084 0.0
C103 C 0.80414 0.82036 0.80013 0.0
H104 H 0.2855 0.31047 0.33898 0.0
H105 H 0.32998 0.28386 0.31624 0.0
H106 H 0.30745 0.3289 0.28385 0.0
H107 H 0.31301 0.2957 0.26244 0.0
C108 C 0.32559 0.29128 0.27068 0.0
O109 O 0.33143 0.30423 0.28428 0.0
H110 H 0.32102 0.27669 0.27745 0.0
C111 C 0.29521 0.30942 0.32775 0.0
C112 C 0.29486 0.32152 0.31125 0.0
C113 C 0.30789 0.29582 0.3298 0.0
C114 C 0.32033 0.29444 0.31513 0.0
C115 C 0.31989 0.30618 0.29856 0.0
C116 C 0.30734 0.31974 0.29668 0.0
H117 H 0.47202 0.99916 0.58973 0.0
H118 H 0.45689 0.97561 0.53575 0.0
H119 H 0.4986 0.95257 0.57224 0.0
H120 H 0.50968 0.95884 0.53345 0.0
C121 C 0.49522 0.95599 0.52616 0.0
O122 O 0.48099 0.95102 0.53928 0.0
H123 H 0.49269 0.96932 0.51788 0.0
C124 C 0.47338 0.98875 0.57957 0.0
C125 C 0.48653 0.97576 0.58333 0.0
C126 C 0.46253 0.98892 0.56245 0.0
C127 C 0.46511 0.97592 0.549 0.0
C128 C 0.47826 0.96309 0.55252 0.0
C129 C 0.48873 0.96285 0.56967 0.0
H130 H 0.20958 0.33078 0.74326 0.0
H131 H 0.18795 0.27662 0.71957 0.0
H132 H 0.23996 0.31084 0.69897 0.0
H133 H 0.20951 0.29458 0.67133 0.0
C134 C 0.20699 0.27966 0.67785 0.0
O135 O 0.21567 0.27902 0.69558 0.0
H136 H 0.19106 0.27515 0.67896 0.0
C137 C 0.21088 0.31998 0.73347 0.0
C138 C 0.2265 0.32291 0.72124 0.0
C139 C 0.19681 0.30337 0.73305 0.0
C140 C 0.1987 0.28945 0.72033 0.0
C141 C 0.21417 0.29227 0.70804 0.0
C142 C 0.22802 0.30891 0.70851 0.0
H143 H 0.80378 0.192 0.75214 0.0
H144 H 0.7704 0.20788 0.70305 0.0
H145 H 0.81868 0.24744 0.72282 0.0
H146 H 0.78477 0.26532 0.71138 0.0
C147 C 0.7781 0.25525 0.70069 0.0
O148 O 0.79022 0.2422 0.69795 0.0
H149 H 0.764 0.24768 0.70611 0.0
C150 C 0.80136 0.20217 0.74056 0.0
C151 C 0.81339 0.22016 0.73904 0.0
C152 C 0.78574 0.19751 0.72771 0.0
C153 C 0.78223 0.21113 0.71323 0.0
C154 C 0.79398 0.2291 0.7117 0.0
C155 C 0.80958 0.23354 0.72443 0.0
H156 H 0.51348 0.57511 0.54907 0.0
H157 H 0.54032 0.5251 0.56314 0.0
H158 H 0.55577 0.56001 0.51287 0.0
H159 H 0.54855 0.51801 0.509 0.0
C160 C 0.55523 0.51343 0.52268 0.0
O161 O 0.56124 0.52914 0.53316 0.0
H162 H 0.54406 0.50315 0.53039 0.0
C163 C 0.52376 0.56586 0.54607 0.0
C164 C 0.53456 0.56981 0.52964 0.0
C165 C 0.52566 0.54982 0.55837 0.0
C166 C 0.53842 0.53747 0.55385 0.0
C167 C 0.54901 0.54108 0.53736 0.0
C168 C 0.54717 0.55724 0.52537 0.0
H169 H 0.58341 0.47873 0.99949 0.0
H170 H 0.53055 0.46322 0.96688 0.0
H171 H 0.56851 0.51541 0.95222 0.0
H172 H 0.5269 0.51863 0.95141 0.0
C173 C 0.52077 0.504 0.94703 0.0
O174 O 0.53562 0.49395 0.94419 0.0
H175 H 0.51147 0.49657 0.95849 0.0
C176 C 0.57377 0.48158 0.9877 0.0
C177 C 0.57832 0.4985 0.97613 0.0
C178 C 0.55655 0.46869 0.98462 0.0
C179 C 0.54381 0.47297 0.96972 0.0
C180 C 0.54809 0.48988 0.95829 0.0
C181 C 0.5653 0.50253 0.96141 0.0
H182 H 0.69947 0.26211 0.30643 0.0
H183 H 0.71644 0.21789 0.27506 0.0
H184 H 0.75099 0.2382 0.32291 0.0
H185 H 0.77373 0.23109 0.29014 0.0
C186 C 0.763 0.21966 0.28388 0.0
O187 O 0.7476 0.21475 0.29571 0.0
H188 H 0.75793 0.22532 0.26991 0.0
C189 C 0.70924 0.25201 0.30453 0.0
C190 C 0.7255 0.25161 0.31677 0.0
C191 C 0.70579 0.23995 0.28942 0.0
C192 C 0.71889 0.22742 0.28653 0.0
C193 C 0.7352 0.22698 0.29852 0.0
C194 C 0.73846 0.23897 0.3136 0.0
H195 H 0.45403 0.06425 0.01172 0.0
H196 H 0.47119 0.03378 0.96637 0.0
H197 H 0.50867 0.08338 0.98531 0.0
H198 H 0.50691 0.08095 0.94377 0.0
C199 C 0.50293 0.06512 0.94317 0.0
O200 O 0.50397 0.05661 0.96112 0.0
H201 H 0.48788 0.06197 0.9372 0.0
C202 C 0.46459 0.06235 0.00156 0.0
C203 C 0.48193 0.07548 1.00029 0.0
C204 C 0.46042 0.04726 0.98938 0.0
C205 C 0.47394 0.0454 0.9758 0.0
C206 C 0.49117 0.0585 0.97431 0.0
C207 C 0.49517 0.07347 0.98651 0.0
C208 C 0.21812 0.92136 0.99204 0.0
O209 O 0.22973 0.92756 0.97811 0.0
O210 O 0.2399 0.87768 0.97684 0.0
Zn211 Zn 0.24473 0.89428 0.99902 0.0
O212 O 0.26847 0.91412 0.99458 0.0
C213 C 0.24037 0.86099 0.02537 0.0
O214 O 0.22716 0.85402 0.01291 0.0
O215 O 0.22163 0.90718 0.0028 0.0
C216 C 0.27767 0.92207 0.00849 0.0
O217 O 0.27112 0.91757 0.02552 0.0
C218 C 0.25414 0.87167 0.96999 0.0
O219 O 0.27157 0.87663 0.97749 0.0
O220 O 0.24961 0.87785 0.02237 0.0
C221 C 0.17116 0.46597 0.28968 0.0
O222 O 0.17818 0.4834 0.29452 0.0
O223 O 0.12389 0.48867 0.29864 0.0
Zn224 Zn 0.13932 0.48479 0.2762 0.0
O225 O 0.15807 0.50903 0.27003 0.0
C226 C 0.1048 0.48488 0.25236 0.0
O227 O 0.09922 0.4936 0.26642 0.0
O228 O 0.15439 0.46287 0.2818 0.0
C229 C 0.1521 0.52498 0.26661 0.0
O230 O 0.13345 0.52553 0.26704 0.0
C231 C 0.13131 0.49914 0.31176 0.0
O232 O 0.14967 0.50687 0.31113 0.0
O233 O 0.12131 0.47947 0.25351 0.0
C234 C 0.81776 0.60967 0.02334 0.0
O235 O 0.80507 0.60539 0.00954 0.0
O236 O 0.80029 0.65781 0.00465 0.0
Zn237 Zn 0.79429 0.63876 0.02695 0.0
O238 O 0.77008 0.62036 0.02079 0.0
C239 C 0.79504 0.67041 0.05119 0.0
O240 O 0.80666 0.67984 0.0385 0.0
O241 O 0.81634 0.62387 0.03298 0.0
C242 C 0.75435 0.62685 0.01708 0.0
O243 O 0.75434 0.6454 0.0174 0.0
C244 C 0.79542 0.65327 0.98792 0.0
O245 O 0.78705 0.63565 0.98507 0.0
O246 O 0.78859 0.65274 0.04938 0.0
C247 C 0.85084 0.05381 0.25372 0.0
O248 O 0.83995 0.03702 0.25194 0.0
O249 O 0.90037 0.02962 0.2738 0.0
Zn250 Zn 0.8828 0.03228 0.25094 0.0
O251 O 0.86363 0.00785 0.24874 0.0
C252 C 0.91083 0.02487 0.22559 0.0
O253 O 0.91184 0.01066 0.23827 0.0
O254 O 0.86918 0.05507 0.25349 0.0
C255 C 0.8565 0.0026 0.23284 0.0
O256 O 0.86154 0.01347 0.21758 0.0
C257 C 0.89486 0.01879 0.28819 0.0
O258 O 0.87717 0.00911 0.28824 0.0
O259 O 0.8992 0.03651 0.22794 0.0
C260 C 0.32544 0.11835 0.51977 0.0
O261 O 0.32045 0.12166 0.502 0.0
O262 O 0.30136 0.15776 0.50213 0.0
Zn263 Zn 0.29452 0.13938 0.52484 0.0
O264 O 0.27116 0.12013 0.51795 0.0
C265 C 0.27155 0.16009 0.54569 0.0
O266 O 0.25948 0.15569 0.53144 0.0
O267 O 0.31655 0.12495 0.53246 0.0
C268 C 0.26095 0.10977 0.53029 0.0
O269 O 0.26601 0.11118 0.54819 0.0
C270 C 0.28793 0.16103 0.49034 0.0
O271 O 0.27018 0.15222 0.49315 0.0
O272 O 0.28796 0.15448 0.54625 0.0
C273 C 0.35965 0.55847 0.7645 0.0
O274 O 0.36224 0.54721 0.77952 0.0
O275 O 0.39756 0.53053 0.77131 0.0
Zn276 Zn 0.38069 0.53264 0.74779 0.0
O277 O 0.36129 0.50841 0.74574 0.0
C278 C 0.40474 0.52226 0.71976 0.0
O279 O 0.40064 0.50544 0.72894 0.0
O280 O 0.36639 0.5551 0.74896 0.0
C281 C 0.35286 0.50398 0.73012 0.0
O282 O 0.35655 0.51569 0.71513 0.0
C283 C 0.39952 0.51435 0.77938 0.0
O284 O 0.39032 0.49861 0.77227 0.0
O285 O 0.39775 0.5364 0.72525 0.0
C286 C 0.71996 0.42183 0.49182 0.0
O287 O 0.73018 0.4261 0.47659 0.0
O288 O 0.74438 0.37957 0.47974 0.0
Zn289 Zn 0.74839 0.39692 0.50145 0.0
O290 O 0.77218 0.41686 0.49768 0.0
C291 C 0.74236 0.36465 0.52862 0.0
O292 O 0.72868 0.35827 0.51635 0.0
O293 O 0.72499 0.40968 0.50423 0.0
C294 C 0.78849 0.41129 0.49689 0.0
O295 O 0.78918 0.3928 0.49831 0.0
C296 C 0.7507 0.38486 0.46341 0.0
O297 O 0.75977 0.40248 0.46021 0.0
O298 O 0.75262 0.38098 0.52528 0.0
C299 C 0.66694 0.96509 0.79517 0.0
O300 O 0.6721 0.98153 0.803 0.0
O301 O 0.62305 0.9901 0.80142 0.0
Zn302 Zn 0.63762 0.98534 0.77851 0.0
O303 O 0.6573 0.00884 0.77183 0.0
C304 C 0.60198 0.98428 0.75566 0.0
O305 O 0.59598 0.99202 0.77017 0.0
O306 O 0.65205 0.96302 0.78418 0.0
C307 C 0.6583 0.0174 0.75553 0.0
O308 O 0.64635 0.0106 0.74197 0.0
C309 C 0.62387 0.00707 0.80668 0.0
O310 O 0.63448 0.02134 0.79729 0.0
O311 O 0.61894 0.97991 0.7563 0.0
C312 C 0.00089 0.23611 0.91267 0.0
O313 O 0.98343 0.24066 0.9105 0.0
O314 O 0.98799 0.26254 0.86938 0.0
Zn315 Zn 0.01132 0.26932 0.8867 0.0
O316 O 0.008 0.2917 0.90176 0.0
C317 C 0.03418 0.28331 0.85425 0.0
O318 O 0.01757 0.28755 0.84739 0.0
O319 O 0.01483 0.24638 0.90406 0.0
C320 C 0.01826 0.29553 0.9166 0.0
O321 O 0.03142 0.28483 0.922 0.0
C322 C 0.97139 0.2665 0.87259 0.0
O323 O 0.96905 0.27512 0.88794 0.0
O324 O 0.03506 0.27588 0.87097 0.0
C325 C 0.50368 0.73824 0.41517 0.0
O326 O 0.48798 0.74569 0.41755 0.0
O327 O 0.48637 0.76419 0.37248 0.0
Zn328 Zn 0.51126 0.77022 0.38785 0.0
O329 O 0.50933 0.79111 0.40541 0.0
C330 C 0.53429 0.76817 0.35617 0.0
O331 O 0.5202 0.75392 0.35305 0.0
O332 O 0.51582 0.74636 0.40319 0.0
C333 C 0.51271 0.80883 0.40015 0.0
O334 O 0.51786 0.81386 0.38275 0.0
C335 C 0.48208 0.77539 0.3588 0.0
O336 O 0.49397 0.7914 0.35483 0.0
O337 O 0.53367 0.77785 0.3705 0.0
C338 C 0.00282 0.79773 0.60917 0.0
O339 O 0.98463 0.7906 0.6124 0.0
O340 O 0.98704 0.77056 0.65109 0.0
Zn341 Zn 0.00965 0.76686 0.63569 0.0
O342 O 0.00286 0.74353 0.62037 0.0
C343 C 0.03328 0.76356 0.67028 0.0
O344 O 0.01721 0.76478 0.67869 0.0
O345 O 0.01615 0.78994 0.61766 0.0
C346 C 0.0083 0.72764 0.62554 0.0
O347 O 0.01798 0.72612 0.64163 0.0
C348 C 0.97573 0.7567 0.65899 0.0
O349 O 0.97868 0.73905 0.65719 0.0
O350 O 0.03333 0.76426 0.65237 0.0
C351 C 0.51043 0.3015 0.11099 0.0
O352 O 0.49222 0.29371 0.11305 0.0
O353 O 0.49457 0.27123 0.15234 0.0
Zn354 Zn 0.51694 0.26914 0.13587 0.0
O355 O 0.51046 0.24721 0.11887 0.0
C356 C 0.53872 0.25885 0.16943 0.0
O357 O 0.52145 0.25514 0.17668 0.0
O358 O 0.52363 0.29359 0.11958 0.0
C359 C 0.50639 0.22988 0.12527 0.0
O360 O 0.50574 0.22612 0.14359 0.0
C361 C 0.47688 0.26532 0.14808 0.0
O362 O 0.47238 0.25728 0.13203 0.0
O363 O 0.54032 0.26498 0.15226 0.0
H364 H 0.25739 0.76756 0.828 0.0
H365 H 0.26329 0.78717 0.85534 0.0
H366 H 0.2019 0.77864 0.86476 0.0
H367 H 0.19594 0.75837 0.838 0.0
H368 H 0.25016 0.82074 0.86073 0.0
H369 H 0.22357 0.76571 0.91681 0.0
H370 H 0.22839 0.75962 0.89342 0.0
H371 H 0.20609 0.76784 0.89794 0.0
C372 C 0.24517 0.76955 0.8361 0.0
C373 C 0.22619 0.76133 0.83082 0.0
C374 C 0.24856 0.78088 0.85164 0.0
C375 C 0.23306 0.78415 0.86225 0.0
C376 C 0.21412 0.776 0.85702 0.0
H377 H 0.21977 0.85583 0.9534 0.0
H378 H 0.21507 0.83481 0.92704 0.0
C379 C 0.21072 0.76462 0.84155 0.0
C380 C 0.23661 0.79674 0.87831 0.0
H381 H 0.22918 0.79825 0.9253 0.0
C382 C 0.24572 0.81579 0.87488 0.0
C383 C 0.23078 0.79024 0.89676 0.0
C384 C 0.22184 0.76968 0.90153 0.0
C385 C 0.24877 0.82863 0.88933 0.0
C386 C 0.24271 0.82218 0.90768 0.0
C387 C 0.23371 0.80313 0.91116 0.0
C388 C 0.24566 0.835 0.92351 0.0
C389 C 0.25808 0.84911 0.88479 0.0
C390 C 0.26441 0.8419 0.93032 0.0
C391 C 0.26716 0.85384 0.9454 0.0
C392 C 0.25118 0.85911 0.95394 0.0
C393 C 0.23239 0.85211 0.94709 0.0
C394 C 0.22966 0.84008 0.93207 0.0
H395 H 0.25819 0.85281 0.86937 0.0
H396 H 0.25037 0.85924 0.89163 0.0
H397 H 0.2733 0.85118 0.89028 0.0
H398 H 0.27693 0.83791 0.92405 0.0
H399 H 0.28182 0.85893 0.95036 0.0
H400 H 1.00032 0.53952 0.41882 0.0
H401 H 0.02058 0.52539 0.39799 0.0
H402 H 0.0713 0.5621 0.41876 0.0
H403 H 0.05107 0.57612 0.43969 0.0
H404 H 0.04394 0.54545 0.36953 0.0
H405 H 0.08766 0.50872 0.42284 0.0
H406 H 0.06544 0.51676 0.42839 0.0
H407 H 0.08756 0.53359 0.42647 0.0
C408 C 0.0158 0.5445 0.41892 0.0
C409 C 0.02416 0.5591 0.43055 0.0
C410 C 0.02734 0.53642 0.40709 0.0
C411 C 0.04744 0.54259 0.40695 0.0
C412 C 0.05586 0.55693 0.41886 0.0
H413 H 0.14206 0.52294 0.34043 0.0
H414 H 0.12126 0.53251 0.36369 0.0
C415 C 0.04432 0.56503 0.43066 0.0
C416 C 0.05947 0.53478 0.39363 0.0
H417 H 0.09798 0.511 0.39119 0.0
C418 C 0.05566 0.53777 0.37424 0.0
C419 C 0.07477 0.52485 0.39986 0.0
C420 C 0.07905 0.52061 0.42052 0.0
C421 C 0.06706 0.53153 0.36087 0.0
C422 C 0.08244 0.52167 0.36708 0.0
C423 C 0.08616 0.51854 0.38648 0.0
C424 C 0.09511 0.51494 0.35361 0.0
C425 C 0.06291 0.53608 0.34022 0.0
C426 C 0.08739 0.50153 0.34051 0.0
C427 C 0.09921 0.49607 0.32715 0.0
C428 C 0.11904 0.50382 0.32673 0.0
C429 C 0.12685 0.51674 0.34031 0.0
C430 C 0.11499 0.52222 0.35363 0.0
H431 H 0.05396 0.54769 0.33802 0.0
H432 H 0.07658 0.54048 0.33253 0.0
H433 H 0.05482 0.52307 0.33395 0.0
H434 H 0.07215 0.49543 0.34051 0.0
H435 H 0.09275 0.48599 0.31698 0.0
H436 H 0.83516 0.78254 0.85083 0.0
H437 H 0.8349 0.75907 0.87773 0.0
H438 H 0.77243 0.75093 0.87684 0.0
H439 H 0.7726 0.77452 0.85005 0.0
H440 H 0.78804 0.75439 0.91246 0.0
H441 H 0.82095 0.70127 0.87589 0.0
H442 H 0.83534 0.72473 0.87545 0.0
H443 H 0.81201 0.7213 0.86346 0.0
C444 C 0.82137 0.77565 0.8563 0.0
C445 C 0.80389 0.7803 0.84826 0.0
C446 C 0.82124 0.76221 0.87164 0.0
C447 C 0.80363 0.75299 0.87908 0.0
C448 C 0.78618 0.75783 0.87128 0.0
H449 H 0.78302 0.64912 0.95131 0.0
H450 H 0.78553 0.67372 0.92538 0.0
C451 C 0.7863 0.77135 0.85602 0.0
C452 C 0.80335 0.73842 0.8951 0.0
H453 H 0.81695 0.69522 0.90881 0.0
C454 C 0.79435 0.74144 0.91167 0.0
C455 C 0.81138 0.72143 0.89395 0.0
C456 C 0.8203 0.71684 0.87618 0.0
C457 C 0.79322 0.72798 0.92717 0.0
C458 C 0.80172 0.71123 0.9262 0.0
C459 C 0.81064 0.70817 0.90959 0.0
C460 C 0.80081 0.69632 0.94196 0.0
C461 C 0.78249 0.73158 0.94422 0.0
C462 C 0.80889 0.70075 0.95983 0.0
C463 C 0.80738 0.68673 0.97475 0.0
C464 C 0.79794 0.66794 0.97199 0.0
C465 C 0.79036 0.66343 0.95394 0.0
C466 C 0.79178 0.67748 0.93908 0.0
H467 H 0.77265 0.74227 0.94083 0.0
H468 H 0.77381 0.7181 0.95009 0.0
H469 H 0.79311 0.7373 0.95527 0.0
H470 H 0.81632 0.71508 0.96227 0.0
H471 H 0.8135 0.69064 0.98845 0.0
H472 H 0.98945 0.9848 0.4431 0.0
H473 H 0.96756 0.98612 0.41533 0.0
H474 H 0.00908 0.03067 0.38885 0.0
H475 H 0.03102 0.02928 0.41657 0.0
H476 H 0.95184 0.01874 0.40009 0.0
H477 H 0.99616 0.99096 0.34843 0.0
H478 H 1.00044 0.98801 0.37358 0.0
H479 H 0.0087 0.01062 0.36115 0.0
C480 C 0.99383 0.99486 0.43133 0.0
C481 C 0.01171 0.00717 0.432 0.0
C482 C 0.98138 0.99559 0.41551 0.0
C483 C 0.98678 0.00839 0.40001 0.0
C484 C 0.00476 0.02051 0.40057 0.0
H485 H 0.93177 0.03796 0.29321 0.0
H486 H 0.95368 0.03537 0.3206 0.0
C487 C 0.01719 0.01982 0.4164 0.0
C488 C 0.97329 0.00952 0.38352 0.0
H489 H 0.96843 0.00354 0.33625 0.0
C490 C 0.95539 0.01533 0.38614 0.0
C491 C 0.97804 0.00511 0.36537 0.0
C492 C 0.9968 0.99816 0.3619 0.0
C493 C 0.94222 0.01722 0.37098 0.0
C494 C 0.94695 0.01279 0.3528 0.0
C495 C 0.96485 0.00693 0.3502 0.0
C496 C 0.93357 0.01424 0.33626 0.0
C497 C 0.92359 0.02441 0.37447 0.0
C498 C 0.91508 0.00304 0.33589 0.0
C499 C 0.90248 0.00453 0.32029 0.0
C500 C 0.90822 0.01715 0.30469 0.0
C501 C 0.92687 0.02815 0.305 0.0
C502 C 0.93943 0.02667 0.32063 0.0
H503 H 0.92449 0.03191 0.38779 0.0
H504 H 0.91987 0.03438 0.36268 0.0
H505 H 0.91164 0.01204 0.37562 0.0
H506 H 0.91043 0.99304 0.34763 0.0
H507 H 0.88829 0.99574 0.32045 0.0
H508 H 0.24133 0.28701 0.65976 0.0
H509 H 0.25451 0.2664 0.6388 0.0
H510 H 0.20463 0.22256 0.6478 0.0
H511 H 0.19159 0.24305 0.66894 0.0
H512 H 0.24011 0.20833 0.64895 0.0
H513 H 0.23231 0.2567 0.58525 0.0
H514 H 0.24617 0.26786 0.6045 0.0
H515 H 0.22079 0.25897 0.60704 0.0
C516 C 0.23324 0.27296 0.6572 0.0
C517 C 0.21529 0.26673 0.66555 0.0
C518 C 0.24072 0.26125 0.64525 0.0
C519 C 0.23035 0.24312 0.64148 0.0
C520 C 0.21278 0.23657 0.65042 0.0
H521 H 0.23753 0.17372 0.54824 0.0
H522 H 0.22852 0.19341 0.57227 0.0
C523 C 0.20531 0.24827 0.66239 0.0
C524 C 0.23753 0.23112 0.62787 0.0
H525 H 0.24726 0.22965 0.58141 0.0
C526 C 0.24175 0.21298 0.63419 0.0
C527 C 0.23944 0.23718 0.60859 0.0
C528 C 0.23429 0.25616 0.60084 0.0
C529 C 0.24784 0.20071 0.62171 0.0
C530 C 0.24994 0.20688 0.60248 0.0
C531 C 0.24577 0.22503 0.59619 0.0
C532 C 0.25551 0.1944 0.5884 0.0
C533 C 0.25142 0.18106 0.62908 0.0
C534 C 0.27374 0.18845 0.58946 0.0
C535 C 0.27897 0.17713 0.57571 0.0
C536 C 0.26608 0.17167 0.56061 0.0
C537 C 0.24783 0.17765 0.55966 0.0
C538 C 0.24263 0.18893 0.57338 0.0
H539 H 0.24514 0.17698 0.64315 0.0
H540 H 0.24518 0.17003 0.61919 0.0
H541 H 0.26727 0.181 0.63045 0.0
H542 H 0.28402 0.19279 0.60077 0.0
H543 H 0.29316 0.17282 0.57681 0.0
H544 H 0.51766 0.57597 0.58242 0.0
H545 H 0.49725 0.57007 0.60993 0.0
H546 H 0.48759 0.50942 0.60161 0.0
H547 H 0.50758 0.51519 0.57369 0.0
H548 H 0.45631 0.54979 0.60913 0.0
H549 H 0.50599 0.51551 0.65873 0.0
H550 H 0.51462 0.53083 0.63849 0.0
H551 H 0.50238 0.50688 0.63541 0.0
C552 C 0.51112 0.56136 0.58634 0.0
C553 C 0.51419 0.54606 0.57576 0.0
C554 C 0.49957 0.55803 0.60213 0.0
C555 C 0.49105 0.53933 0.60781 0.0
C556 C 0.49427 0.52395 0.59754 0.0
H557 H 0.41826 0.49425 0.70194 0.0
H558 H 0.43858 0.49815 0.67436 0.0
C559 C 0.50574 0.52727 0.58164 0.0
C560 C 0.47819 0.53607 0.62408 0.0
H561 H 0.47502 0.51755 0.66957 0.0
C562 C 0.46035 0.54275 0.62237 0.0
C563 C 0.48352 0.52676 0.64121 0.0
C564 C 0.50271 0.51964 0.64375 0.0
C565 C 0.44758 0.54026 0.63736 0.0
C566 C 0.45308 0.53131 0.65468 0.0
C567 C 0.47087 0.52446 0.6563 0.0
C568 C 0.44064 0.52905 0.67134 0.0
C569 C 0.42818 0.54688 0.63434 0.0
C570 C 0.43525 0.54515 0.67895 0.0
C571 C 0.42351 0.54296 0.69462 0.0
C572 C 0.41717 0.52464 0.70316 0.0
C573 C 0.42287 0.50856 0.69569 0.0
C574 C 0.4345 0.51076 0.67994 0.0
H575 H 0.42392 0.548 0.61914 0.0
H576 H 0.41664 0.53695 0.64186 0.0
H577 H 0.42906 0.56132 0.63983 0.0
H578 H 0.44023 0.55945 0.67285 0.0
H579 H 0.41953 0.55565 0.70013 0.0
H580 H 0.75109 0.2448 0.67288 0.0
H581 H 0.74541 0.26253 0.64284 0.0
H582 H 0.79196 0.30761 0.65724 0.0
H583 H 0.79779 0.28978 0.68713 0.0
H584 H 0.73557 0.29936 0.63773 0.0
H585 H 0.80502 0.29588 0.60415 0.0
H586 H 0.79671 0.28063 0.62452 0.0
H587 H 0.80784 0.3051 0.62718 0.0
C588 C 0.76007 0.25849 0.66955 0.0
C589 C 0.77466 0.26613 0.68233 0.0
C590 C 0.75685 0.26857 0.65245 0.0
C591 C 0.76837 0.28629 0.64776 0.0
C592 C 0.78311 0.29382 0.66045 0.0
H593 H 0.76963 0.37359 0.55665 0.0
H594 H 0.77539 0.35423 0.58547 0.0
C595 C 0.78633 0.28374 0.67755 0.0
C596 C 0.76451 0.29722 0.62991 0.0
H597 H 0.78514 0.31696 0.589 0.0
C598 C 0.74634 0.3031 0.627 0.0
C599 C 0.77862 0.30209 0.61598 0.0
C600 C 0.79809 0.29546 0.61798 0.0
C601 C 0.74205 0.31413 0.61071 0.0
C602 C 0.75621 0.31912 0.59685 0.0
C603 C 0.77434 0.31314 0.59969 0.0
C604 C 0.75258 0.33073 0.57936 0.0
C605 C 0.72259 0.32077 0.6087 0.0
C606 C 0.73798 0.32381 0.56629 0.0
C607 C 0.73462 0.33484 0.54981 0.0
C608 C 0.74588 0.35295 0.54607 0.0
C609 C 0.76064 0.35974 0.55913 0.0
C610 C 0.76398 0.34869 0.57559 0.0
H611 H 0.71531 0.31973 0.62241 0.0
H612 H 0.7241 0.33584 0.60278 0.0
H613 H 0.71307 0.3116 0.59891 0.0
H614 H 0.72926 0.30981 0.56877 0.0
H615 H 0.72322 0.32914 0.54 0.0
H616 H 0.47491 0.98036 0.6189 0.0
H617 H 0.49449 0.98144 0.64822 0.0
H618 H 0.54384 0.97175 0.61798 0.0
H619 H 0.52468 0.9715 0.58851 0.0
H620 H 0.5135 0.954 0.66632 0.0
H621 H 0.56598 0.01892 0.6459 0.0
H622 H 0.54364 0.01195 0.63272 0.0
H623 H 0.56428 1.0004 0.62957 0.0
C624 C 0.49001 0.97872 0.61843 0.0
C625 C 0.49824 0.97596 0.6013 0.0
C626 C 0.50113 0.9792 0.63523 0.0
C627 C 0.52071 0.97699 0.63524 0.0
C628 C 0.52888 0.97388 0.61825 0.0
H629 H 0.61162 0.97334 0.72155 0.0
H630 H 0.59143 0.97063 0.69263 0.0
C631 C 0.51781 0.97349 0.60144 0.0
C632 C 0.53252 0.97768 0.65306 0.0
H633 H 0.5735 0.00128 0.67407 0.0
C634 C 0.52656 0.96439 0.66806 0.0
C635 C 0.54956 0.99128 0.6553 0.0
C636 C 0.55617 0.00657 0.64009 0.0
C637 C 0.53737 0.96412 0.68513 0.0
C638 C 0.55447 0.9776 0.68727 0.0
C639 C 0.56043 0.99089 0.67231 0.0
C640 C 0.56629 0.97837 0.70504 0.0
C641 C 0.53063 0.94923 0.70062 0.0
C642 C 0.55882 0.98368 0.72156 0.0
C643 C 0.57033 0.98531 0.73809 0.0
C644 C 0.58952 0.98167 0.73839 0.0
C645 C 0.59688 0.97617 0.72183 0.0
C646 C 0.58539 0.97464 0.70529 0.0
H647 H 0.51977 0.93737 0.69534 0.0
H648 H 0.54306 0.94308 0.70732 0.0
H649 H 0.52383 0.95609 0.71164 0.0
H650 H 0.54421 0.9869 0.72157 0.0
H651 H 0.56423 0.98963 0.75057 0.0
H652 H 0.83885 0.19711 0.75392 0.0
H653 H 0.86529 0.20509 0.77706 0.0
H654 H 0.85151 0.26221 0.77836 0.0
H655 H 0.82483 0.2543 0.75546 0.0
H656 H 0.89166 0.26054 0.77452 0.0
H657 H 0.8594 0.21232 0.83378 0.0
H658 H 0.8604 0.201 0.81204 0.0
H659 H 0.8453 0.2191 0.81334 0.0
C660 C 0.84129 0.21131 0.75928 0.0
C661 C 0.82966 0.22505 0.75288 0.0
C662 C 0.85641 0.21584 0.77248 0.0
C663 C 0.86017 0.23415 0.77956 0.0
C664 C 0.84879 0.24798 0.77307 0.0
H665 H 0.93364 0.27118 0.87599 0.0
H666 H 0.90669 0.26367 0.85325 0.0
C667 C 0.83363 0.24346 0.7599 0.0
C668 C 0.87618 0.23901 0.79354 0.0
H669 H 0.89196 0.22745 0.83823 0.0
C670 C 0.89173 0.25335 0.78846 0.0
C671 C 0.87608 0.22973 0.81177 0.0
C672 C 0.85934 0.21479 0.81819 0.0
C673 C 0.9074 0.25844 0.80107 0.0
C674 C 0.90756 0.24879 0.81912 0.0
C675 C 0.89185 0.23469 0.82431 0.0
C676 C 0.92389 0.2532 0.83285 0.0
C677 C 0.92355 0.27426 0.79507 0.0
C678 C 0.9424 0.24956 0.82897 0.0
C679 C 0.95782 0.25379 0.84193 0.0
C680 C 0.95497 0.26171 0.85902 0.0
C681 C 0.93634 0.26515 0.86293 0.0
C682 C 0.92092 0.26085 0.84998 0.0
H683 H 0.91913 0.28316 0.7827 0.0
H684 H 0.92831 0.28372 0.80679 0.0
H685 H 0.93616 0.26782 0.79112 0.0
H686 H 0.94491 0.24337 0.81595 0.0
H687 H 0.97197 0.2509 0.8385 0.0
H688 H 0.49617 0.95816 0.48759 0.0
H689 H 0.49839 0.93236 0.46681 0.0
H690 H 0.49766 0.89205 0.51508 0.0
H691 H 0.49549 0.91789 0.53596 0.0
H692 H 0.52873 0.90863 0.4692 0.0
H693 H 0.45505 0.86617 0.47777 0.0
H694 H 0.46087 0.89102 0.48342 0.0
H695 H 0.46854 0.87258 0.49911 0.0
C696 C 0.49622 0.94374 0.49373 0.0
C697 C 0.49526 0.93989 0.51333 0.0
C698 C 0.49754 0.92906 0.48187 0.0
C699 C 0.4979 0.91028 0.4894 0.0
C700 C 0.49702 0.90638 0.50898 0.0
H701 H 0.50574 0.80363 0.4379 0.0
H702 H 0.50277 0.82819 0.45977 0.0
C703 C 0.49579 0.9211 0.52086 0.0
C704 C 0.50009 0.89498 0.47679 0.0
H705 H 0.47678 0.85309 0.45977 0.0
C706 C 0.51737 0.89649 0.46709 0.0
C707 C 0.4853 0.87912 0.47422 0.0
C708 C 0.46631 0.87708 0.48405 0.0
C709 C 0.52035 0.88246 0.45495 0.0
C710 C 0.50542 0.86675 0.45208 0.0
C711 C 0.48819 0.86516 0.46194 0.0
C712 C 0.50732 0.85191 0.43877 0.0
C713 C 0.53963 0.88441 0.44564 0.0
C714 C 0.51062 0.85704 0.41963 0.0
C715 C 0.51247 0.84306 0.40712 0.0
C716 C 0.51079 0.82362 0.41345 0.0
C717 C 0.50716 0.81848 0.43257 0.0
C718 C 0.50543 0.83249 0.44509 0.0
H719 H 0.55118 0.89371 0.45346 0.0
H720 H 0.54416 0.87019 0.44459 0.0
H721 H 0.53838 0.89111 0.43118 0.0
H722 H 0.51163 0.87186 0.41433 0.0
H723 H 0.51507 0.8475 0.39247 0.0
H724 H 0.17502 0.33032 0.74136 0.0
H725 H 0.14796 0.32647 0.76267 0.0
H726 H 0.15323 0.26691 0.7743 0.0
H727 H 0.18052 0.27067 0.7531 0.0
H728 H 0.11487 0.27349 0.76652 0.0
H729 H 0.15189 0.32082 0.8206 0.0
H730 H 0.15255 0.33176 0.79708 0.0
H731 H 0.16485 0.3116 0.80274 0.0
C732 C 0.17059 0.31645 0.74861 0.0
C733 C 0.18005 0.30084 0.74567 0.0
C734 C 0.15511 0.31428 0.76077 0.0
C735 C 0.14883 0.2965 0.77029 0.0
C736 C 0.15795 0.28078 0.76714 0.0
H737 H 0.07053 0.27562 0.86394 0.0
H738 H 0.09832 0.27845 0.84359 0.0
C739 C 0.17347 0.28293 0.75497 0.0
C740 C 0.1325 0.29429 0.78329 0.0
H741 H 0.11792 0.31092 0.82344 0.0
C742 C 0.11554 0.2816 0.77901 0.0
C743 C 0.13354 0.30472 0.79969 0.0
C744 C 0.15174 0.31786 0.80545 0.0
C745 C 0.09939 0.27938 0.7905 0.0
C746 C 0.10018 0.29035 0.80651 0.0
C747 C 0.1173 0.3027 0.81103 0.0
C748 C 0.08342 0.28907 0.81885 0.0
C749 C 0.08169 0.26517 0.78551 0.0
C750 C 0.06596 0.29449 0.81177 0.0
C751 C 0.05005 0.29292 0.82335 0.0
C752 C 0.05134 0.28596 0.84227 0.0
C753 C 0.06902 0.28097 0.84943 0.0
C754 C 0.08492 0.28257 0.83783 0.0
H755 H 0.08511 0.25461 0.77579 0.0
H756 H 0.07527 0.25728 0.79836 0.0
H757 H 0.07063 0.273 0.77839 0.0
H758 H 0.06463 0.29991 0.79725 0.0
H759 H 0.03669 0.29697 0.81741 0.0
H760 H 0.53228 0.60591 0.5399 0.0
H761 H 0.52737 0.63394 0.51943 0.0
H762 H 0.5282 0.60119 0.47054 0.0
H763 H 0.53245 0.57282 0.49098 0.0
H764 H 0.55027 0.65345 0.49124 0.0
H765 H 0.47745 0.62297 0.46284 0.0
H766 H 0.48874 0.61217 0.48318 0.0
H767 H 0.49603 0.60871 0.45989 0.0
C768 C 0.53122 0.60459 0.52479 0.0
C769 C 0.53255 0.58707 0.51707 0.0
C770 C 0.52856 0.62067 0.51312 0.0
C771 C 0.52712 0.61956 0.49349 0.0
C772 C 0.52891 0.60225 0.48568 0.0
H773 H 0.53402 0.71857 0.41278 0.0
H774 H 0.53994 0.68965 0.43137 0.0
C775 C 0.53156 0.58612 0.49736 0.0
C776 C 0.52381 0.63662 0.48132 0.0
H777 H 0.49157 0.6534 0.44968 0.0
C778 C 0.53747 0.65345 0.48212 0.0
C779 C 0.50695 0.63662 0.46964 0.0
C780 C 0.49134 0.61922 0.4689 0.0
C781 C 0.53476 0.6703 0.47149 0.0
C782 C 0.5181 0.67018 0.45952 0.0
C783 C 0.5044 0.65338 0.45877 0.0
C784 C 0.51438 0.68751 0.44799 0.0
C785 C 0.54952 0.68819 0.47354 0.0
C786 C 0.49777 0.6956 0.45084 0.0
C787 C 0.49426 0.71206 0.44015 0.0
C788 C 0.50727 0.72069 0.42636 0.0
C789 C 0.52377 0.71237 0.42338 0.0
C790 C 0.52724 0.6959 0.43405 0.0
H791 H 0.55867 0.68721 0.4866 0.0
H792 H 0.55919 0.69021 0.46135 0.0
H793 H 0.54234 0.70107 0.47378 0.0
H794 H 0.48762 0.68929 0.46148 0.0
H795 H 0.48139 0.71805 0.44277 0.0
H796 H 0.83323 0.76003 0.76745 0.0
H797 H 0.86015 0.75389 0.7489 0.0
H798 H 0.87269 0.81407 0.73148 0.0
H799 H 0.84575 0.82024 0.75006 0.0
H800 H 0.86443 0.76232 0.70908 0.0
H801 H 0.92566 0.80034 0.75129 0.0
H802 H 0.90168 0.79321 0.76042 0.0
H803 H 0.9067 0.81401 0.74442 0.0
C804 C 0.8418 0.77193 0.7597 0.0
C805 C 0.83743 0.7906 0.76005 0.0
C806 C 0.85713 0.76842 0.74914 0.0
C807 C 0.86849 0.78355 0.73897 0.0
C808 C 0.86426 0.80224 0.73945 0.0
H809 H 0.96542 0.79144 0.66509 0.0
H810 H 0.93908 0.79766 0.68416 0.0
C811 C 0.84887 0.80575 0.74995 0.0
C812 C 0.88431 0.77964 0.72732 0.0
H813 H 0.93333 0.78906 0.72236 0.0
C814 C 0.87951 0.76808 0.712 0.0
C815 C 0.90393 0.78727 0.73116 0.0
C816 C 0.90991 0.79928 0.7478 0.0
C817 C 0.89381 0.76418 0.7002 0.0
C818 C 0.91346 0.77171 0.70409 0.0
C819 C 0.91825 0.78329 0.71942 0.0
C820 C 0.92929 0.76778 0.69242 0.0
C821 C 0.88769 0.75241 0.68341 0.0
C822 C 0.93265 0.74892 0.69088 0.0
C823 C 0.94766 0.74529 0.67994 0.0
C824 C 0.9597 0.76049 0.67045 0.0
C825 C 0.9564 0.77939 0.67217 0.0
C826 C 0.94136 0.78299 0.68309 0.0
H827 H 0.8721 0.75215 0.67955 0.0
H828 H 0.8964 0.7581 0.67098 0.0
H829 H 0.88999 0.73741 0.68688 0.0
H830 H 0.92376 0.737 0.69828 0.0
H831 H 0.94988 0.73059 0.67902 0.0
H832 H 0.01989 0.95144 0.49838 0.0
H833 H 0.01013 0.92234 0.51858 0.0
H834 H 0.06834 0.90961 0.51876 0.0
H835 H 0.07816 0.93838 0.49826 0.0
H836 H 0.01432 0.88222 0.51237 0.0
H837 H 0.05514 0.91144 0.57558 0.0
H838 H 0.04894 0.9266 0.55557 0.0
H839 H 0.06862 0.91333 0.55437 0.0
C840 C 0.03056 0.94231 0.50249 0.0
C841 C 0.04985 0.94733 0.49682 0.0
C842 C 0.02497 0.92576 0.51411 0.0
C843 C 0.03859 0.91404 0.52034 0.0
C844 C 0.05771 0.91869 0.51433 0.0
H845 H 0.0387 0.8141 0.59711 0.0
H846 H 0.04674 0.8419 0.57495 0.0
C847 C 0.06329 0.93517 0.50268 0.0
C848 C 0.03293 0.89705 0.53334 0.0
H849 H 0.04078 0.87878 0.57807 0.0
C850 C 0.02 0.88144 0.52676 0.0
C851 C 0.04045 0.89615 0.55206 0.0
C852 C 0.05395 0.9128 0.55995 0.0
C853 C 0.0147 0.8647 0.53835 0.0
C854 C 0.02221 0.86379 0.55711 0.0
C855 C 0.03506 0.87949 0.56368 0.0
C856 C 0.0171 0.84666 0.57017 0.0
C857 C 0.00154 0.84796 0.53022 0.0
C858 C 0.99777 0.84022 0.57498 0.0
C859 C 0.99311 0.82426 0.58758 0.0
C860 C 0.00772 0.81459 0.59577 0.0
C861 C 0.02709 0.82121 0.59106 0.0
C862 C 0.03172 0.8371 0.57839 0.0
H863 H 0.00143 0.84895 0.51457 0.0
H864 H 0.00601 0.83412 0.53537 0.0
H865 H 0.98651 0.84791 0.53466 0.0
H866 H 0.98631 0.84767 0.56916 0.0
H867 H 0.97807 0.81962 0.59101 0.0
H868 H 0.20049 0.74279 0.74707 0.0
H869 H 0.1722 0.74681 0.72661 0.0
H870 H 0.13795 0.74741 0.77553 0.0
H871 H 0.16603 0.74327 0.79604 0.0
H872 H 0.13543 0.72353 0.72474 0.0
H873 H 0.12992 0.79687 0.74487 0.0
H874 H 0.15126 0.78592 0.75009 0.0
H875 H 0.1304 0.77964 0.76451 0.0
C876 C 0.18689 0.74365 0.75346 0.0
C877 C 0.18555 0.74287 0.77318 0.0
C878 C 0.17079 0.74603 0.74176 0.0
C879 C 0.1531 0.74776 0.74957 0.0
C880 C 0.1516 0.74658 0.76922 0.0
H881 H 0.03798 0.76115 0.70865 0.0
H882 H 0.06736 0.75699 0.7272 0.0
C883 C 0.16766 0.74422 0.78092 0.0
C884 C 0.13609 0.75054 0.73722 0.0
H885 H 0.10345 0.78101 0.72685 0.0
C886 C 0.1285 0.73615 0.72507 0.0
C887 C 0.12713 0.76703 0.73771 0.0
C888 C 0.13517 0.78334 0.74986 0.0
C889 C 0.1118 0.73756 0.71376 0.0
C890 C 0.10269 0.75395 0.71444 0.0
C891 C 0.11043 0.76844 0.72642 0.0
C892 C 0.08494 0.75627 0.70302 0.0
C893 C 0.10372 0.72127 0.70161 0.0
C894 C 0.08515 0.75745 0.68327 0.0
C895 C 0.06838 0.75981 0.67261 0.0
C896 C 0.0511 0.76116 0.68152 0.0
C897 C 0.05101 0.76014 0.70133 0.0
C898 C 0.06779 0.75777 0.71196 0.0
H899 H 0.10956 0.70792 0.70608 0.0
H900 H 0.08766 0.71823 0.70203 0.0
H901 H 0.10776 0.72532 0.68679 0.0
H902 H 0.09835 0.7567 0.6761 0.0
H903 H 0.06898 0.76063 0.65738 0.0
H904 H 0.00093 0.61329 0.49152 0.0
H905 H 0.00497 0.63868 0.51378 0.0
H906 H 0.97854 0.59828 0.55691 0.0
H907 H 0.97468 0.57275 0.53486 0.0
H908 H 0.96349 0.63325 0.5531 0.0
H909 H 0.04392 0.64522 0.55902 0.0
H910 H 0.03404 0.6462 0.53532 0.0
H911 H 0.03009 0.624 0.54946 0.0
C912 C 0.99622 0.60974 0.50582 0.0
C913 C 0.98751 0.59097 0.51141 0.0
C914 C 0.99851 0.62427 0.5185 0.0
C915 C 0.99223 0.62029 0.53703 0.0
C916 C 0.98349 0.60162 0.54267 0.0
H917 H 0.01965 0.69247 0.63157 0.0
H918 H 0.01491 0.66612 0.61042 0.0
C919 C 0.98122 0.58708 0.53001 0.0
C920 C 0.99435 0.63568 0.55045 0.0
H921 H 0.0279 0.6674 0.57332 0.0
C922 C 0.97756 0.6407 0.55757 0.0
C923 C 0.01274 0.6452 0.55639 0.0
C924 C 0.03126 0.63982 0.54981 0.0
C925 C 0.97866 0.65523 0.57027 0.0
C926 C 0.99703 0.66511 0.57581 0.0
C927 C 0.01383 0.65988 0.56892 0.0
C928 C 0.99918 0.68086 0.58883 0.0
C929 C 0.96018 0.65972 0.57785 0.0
C930 C 0.99193 0.69789 0.58367 0.0
C931 C 0.9946 0.71299 0.59572 0.0
C932 C 0.00466 0.71135 0.61313 0.0
C933 C 0.0118 0.6942 0.61829 0.0
C934 C 0.00914 0.67913 0.60622 0.0
H935 H 0.94786 0.64789 0.57591 0.0
H936 H 0.96199 0.6624 0.59307 0.0
H937 H 0.95642 0.67288 0.57021 0.0
H938 H 0.98449 0.69963 0.57017 0.0
H939 H 0.989 0.72603 0.59127 0.0
H940 H 0.74213 0.84662 0.19375 0.0
H941 H 0.76463 0.87696 0.19492 0.0
H942 H 0.76418 0.87217 0.25564 0.0
H943 H 0.74205 0.84168 0.25462 0.0
H944 H 0.75861 0.91094 0.2123 0.0
H945 H 0.82242 0.88128 0.24348 0.0
H946 H 0.80203 0.86653 0.23255 0.0
H947 H 0.80038 0.87403 0.25599 0.0
C948 C 0.747 0.85193 0.20735 0.0
C949 C 0.74037 0.84173 0.2241 0.0
C950 C 0.75975 0.8693 0.20798 0.0
C951 C 0.76622 0.87666 0.22536 0.0
C952 C 0.75957 0.86657 0.24209 0.0
H953 H 0.84197 0.97763 0.26172 0.0
H954 H 0.81959 0.94743 0.25944 0.0
C955 C 0.74678 0.84926 0.24147 0.0
C956 C 0.77959 0.89511 0.22603 0.0
H957 H 0.82471 0.91517 0.24143 0.0
C958 C 0.77311 0.91189 0.21856 0.0
C959 C 0.79844 0.89625 0.23426 0.0
C960 C 0.80636 0.87856 0.2419 0.0
C961 C 0.78487 0.92991 0.21948 0.0
C962 C 0.80373 0.93106 0.22776 0.0
C963 C 0.81023 0.91424 0.23513 0.0
C964 C 0.81696 0.94958 0.229 0.0
C965 C 0.7768 0.94758 0.21205 0.0
C966 C 0.82303 0.96072 0.21262 0.0
C967 C 0.83576 0.97802 0.21387 0.0
C968 C 0.84281 0.98441 0.23153 0.0
C969 C 0.8368 0.97314 0.2479 0.0
C970 C 0.82403 0.95587 0.24664 0.0
H971 H 0.76072 0.94483 0.21084 0.0
H972 H 0.78133 0.95966 0.2213 0.0
H973 H 0.7824 0.95205 0.1978 0.0
H974 H 0.81809 0.95592 0.19885 0.0
H975 H 0.8402 0.98628 0.20098 0.0
H976 H 0.80143 0.21579 0.28755 0.0
H977 H 0.81623 0.18768 0.28174 0.0
H978 H 0.75982 0.15629 0.26784 0.0
H979 H 0.74505 0.18458 0.27315 0.0
H980 H 0.81037 0.15166 0.299 0.0
H981 H 0.7905 0.14819 0.22289 0.0
H982 H 0.78841 0.16875 0.23592 0.0
H983 H 0.7701 0.14773 0.23749 0.0
C984 C 0.79222 0.20287 0.28326 0.0
C985 C 0.7721 0.20223 0.28096 0.0
C986 C 0.80067 0.18685 0.27993 0.0
C987 C 0.78917 0.16997 0.27411 0.0
C988 C 0.76903 0.16928 0.27194 0.0
H989 H 0.81224 0.05644 0.25319 0.0
H990 H 0.79748 0.08469 0.25832 0.0
C991 C 0.76059 0.18534 0.27515 0.0
C992 C 0.79823 0.15298 0.27072 0.0
H993 H 0.80359 0.12166 0.23749 0.0
C994 C 0.80898 0.14517 0.28552 0.0
C995 C 0.7964 0.14453 0.25311 0.0
C996 C 0.78589 0.15282 0.23638 0.0
C997 C 0.81767 0.12894 0.28329 0.0
C998 C 0.81572 0.12044 0.26574 0.0
C999 C 0.80499 0.12822 0.25094 0.0
C1000 C 0.82476 0.10346 0.26246 0.0
C1001 C 0.82857 0.12079 0.29982 0.0
C1002 C 0.84499 0.10477 0.26283 0.0
C1003 C 0.85349 0.08868 0.25985 0.0
C1004 C 0.84188 0.07099 0.25643 0.0
C1005 C 0.8216 0.06982 0.25585 0.0
C1006 C 0.81313 0.08594 0.25875 0.0
H1007 H 0.82513 0.12632 0.31333 0.0
H1008 H 0.82517 0.10487 0.3009 0.0
H1009 H 0.84437 0.12488 0.29775 0.0
H1010 H 0.85422 0.11826 0.26537 0.0
H1011 H 0.86915 0.0901 0.26033 0.0
H1012 H 0.43655 0.03276 0.96046 0.0
H1013 H 0.40525 0.01158 0.96279 0.0
H1014 H 0.4108 0.01028 0.02341 0.0
H1015 H 0.44219 0.03118 0.02125 0.0
H1016 H 0.39622 0.97411 0.98181 0.0
H1017 H 0.3577 0.02784 0.01101 0.0
H1018 H 0.3806 0.03438 0.99954 0.0
H1019 H 0.37987 0.02434 0.02342 0.0
C1020 C 0.43122 0.0278 0.97429 0.0
C1021 C 0.44181 0.03377 0.99068 0.0
C1022 C 0.4133 0.01579 0.97558 0.0
C1023 C 0.40561 0.00966 0.99326 0.0
C1024 C 0.41632 0.01521 0.00964 0.0
H1025 H 0.30192 0.93963 0.03544 0.0
H1026 H 0.33286 0.96079 0.03092 0.0
C1027 C 0.43423 0.02716 0.00837 0.0
C1028 C 0.38642 0.99737 0.99465 0.0
H1029 H 0.34089 0.99591 0.01077 0.0
C1030 C 0.38406 0.97888 0.98802 0.0
C1031 C 0.37064 0.00369 0.00277 0.0
C1032 C 0.37219 0.0237 0.00946 0.0
C1033 C 0.36643 0.96628 0.98978 0.0
C1034 C 0.35067 0.97255 0.99804 0.0
C1035 C 0.353 0.99114 0.00447 0.0
C1036 C 0.33177 0.95991 0.00055 0.0
C1037 C 0.36503 0.94619 0.98332 0.0
C1038 C 0.32074 0.95266 0.98494 0.0
C1039 C 0.30306 0.9405 0.98747 0.0
C1040 C 0.29602 0.93551 0.00568 0.0
C1041 C 0.30693 0.94315 0.02124 0.0
C1042 C 0.32461 0.95525 0.01869 0.0
H1043 H 0.37956 0.94216 0.98179 0.0
H1044 H 0.35675 0.93556 0.99337 0.0
H1045 H 0.35732 0.94534 0.96939 0.0
H1046 H 0.32579 0.95643 0.97079 0.0
H1047 H 0.29496 0.93497 0.97518 0.0
H1048 H 0.28579 0.34468 0.33786 0.0
H1049 H 0.26358 0.36814 0.33435 0.0
H1050 H 0.25145 0.35455 0.27646 0.0
H1051 H 0.2734 0.33083 0.27989 0.0
H1052 H 0.26034 0.39432 0.28198 0.0
H1053 H 0.20373 0.35732 0.33017 0.0
H1054 H 0.22796 0.36047 0.34018 0.0
H1055 H 0.22181 0.34522 0.3209 0.0
C1056 C 0.2782 0.34647 0.32445 0.0
C1057 C 0.28135 0.33581 0.30917 0.0
C1058 C 0.26552 0.3599 0.32247 0.0
C1059 C 0.25569 0.36289 0.30522 0.0
C1060 C 0.25887 0.35241 0.28991 0.0
H1061 H 0.16099 0.4281 0.28202 0.0
H1062 H 0.18134 0.4029 0.28569 0.0
C1063 C 0.27151 0.33894 0.29187 0.0
C1064 C 0.24257 0.37742 0.30295 0.0
H1065 H 0.20098 0.38924 0.31907 0.0
C1066 C 0.24733 0.39319 0.29004 0.0
C1067 C 0.2255 0.37578 0.31334 0.0
C1068 C 0.21929 0.35871 0.32682 0.0
C1069 C 0.23566 0.40759 0.28749 0.0
C1070 C 0.21892 0.40625 0.2983 0.0
C1071 C 0.21393 0.39029 0.31093 0.0
C1072 C 0.20644 0.42136 0.29666 0.0
C1073 C 0.24123 0.42404 0.27314 0.0
C1074 C 0.21373 0.43996 0.30196 0.0
C1075 C 0.20216 0.45437 0.29994 0.0
C1076 C 0.18305 0.45043 0.29259 0.0
C1077 C 0.17566 0.43164 0.28766 0.0
C1078 C 0.18725 0.41722 0.28975 0.0
H1079 H 0.2517 0.42067 0.26301 0.0
H1080 H 0.22825 0.42775 0.26514 0.0
H1081 H 0.24815 0.43686 0.28051 0.0
H1082 H 0.22841 0.44336 0.30761 0.0
H1083 H 0.20829 0.46864 0.30396 0.0
H1084 H 0.10712 0.01344 0.45473 0.0
H1085 H 0.13834 0.03277 0.46283 0.0
H1086 H 0.12666 0.02168 0.52191 0.0
H1087 H 0.09538 0.00261 0.51399 0.0
H1088 H 0.14574 0.0658 0.48486 0.0
H1089 H 0.18032 0.00547 0.51682 0.0
H1090 H 0.15875 0.00181 0.50182 0.0
H1091 H 0.15714 0.0071 0.52601 0.0
C1092 C 0.11114 0.01524 0.46944 0.0
C1093 C 0.09883 0.00635 0.48372 0.0
C1094 C 0.12901 0.02619 0.47403 0.0
C1095 C 0.13492 0.02835 0.49296 0.0
C1096 C 0.12254 0.01981 0.50722 0.0
H1097 H 0.2343 0.08777 0.55303 0.0
H1098 H 0.20383 0.06814 0.54341 0.0
C1099 C 0.10469 0.0089 0.50266 0.0
C1100 C 0.15389 0.03981 0.49785 0.0
H1101 H 0.19725 0.03693 0.52077 0.0
C1102 C 0.15708 0.0595 0.49259 0.0
C1103 C 0.16858 0.03151 0.50798 0.0
C1104 C 0.16617 0.01028 0.51337 0.0
C1105 C 0.17444 0.07125 0.49763 0.0
C1106 C 0.18911 0.06297 0.50785 0.0
C1107 C 0.18596 0.04324 0.51297 0.0
C1108 C 0.20777 0.07457 0.51353 0.0
C1109 C 0.17669 0.09252 0.49243 0.0
C1110 C 0.22025 0.08438 0.4999 0.0
C1111 C 0.23764 0.09564 0.50534 0.0
C1112 C 0.24295 0.09717 0.52453 0.0
C1113 C 0.23063 0.08694 0.53814 0.0
C1114 C 0.21322 0.07572 0.53268 0.0
H1115 H 0.16248 0.09723 0.48905 0.0
H1116 H 0.18404 0.10094 0.50404 0.0
H1117 H 0.18567 0.09589 0.47978 0.0
H1118 H 0.21653 0.08334 0.48504 0.0
H1119 H 0.24685 0.10323 0.49449 0.0
H1120 H 0.79616 0.16218 0.73649 0.0
H1121 H 0.77484 0.13128 0.74058 0.0
H1122 H 0.72508 0.15903 0.72702 0.0
H1123 H 0.74621 0.19008 0.72357 0.0
H1124 H 0.72038 0.13434 0.75866 0.0
H1125 H 0.74639 0.09875 0.69965 0.0
H1126 H 0.76526 0.1083 0.71589 0.0
H1127 H 0.75202 0.12432 0.70202 0.0
C1128 C 0.78067 0.16172 0.73445 0.0
C1129 C 0.77289 0.1786 0.72965 0.0
C1130 C 0.76853 0.14402 0.73658 0.0
C1131 C 0.74841 0.14282 0.73381 0.0
C1132 C 0.74059 0.15962 0.72907 0.0
H1133 H 0.66289 0.04026 0.72296 0.0
H1134 H 0.68485 0.07064 0.71782 0.0
C1135 C 0.7527 0.17734 0.72697 0.0
C1136 C 0.73541 0.12418 0.73652 0.0
H1137 H 0.72514 0.07897 0.72078 0.0
C1138 C 0.72138 0.12224 0.75035 0.0
C1139 C 0.73661 0.10851 0.7255 0.0
C1140 C 0.75075 0.11006 0.70981 0.0
C1141 C 0.70865 0.10496 0.75365 0.0
C1142 C 0.71026 0.08909 0.74305 0.0
C1143 C 0.7241 0.09111 0.72902 0.0
C1144 C 0.69744 0.07039 0.7461 0.0
C1145 C 0.69338 0.10396 0.76822 0.0
C1146 C 0.69753 0.06001 0.7636 0.0
C1147 C 0.68496 0.04268 0.76661 0.0
C1148 C 0.67219 0.03533 0.75211 0.0
C1149 C 0.6725 0.04553 0.73444 0.0
C1150 C 0.68505 0.06289 0.73146 0.0
H1151 H 0.69084 0.11847 0.7715 0.0
H1152 H 0.67943 0.0956 0.76338 0.0
H1153 H 0.69823 0.0967 0.78145 0.0
H1154 H 0.70727 0.06536 0.77496 0.0
H1155 H 0.68519 0.03512 0.78034 0.0
H1156 H 0.43787 1.00033 0.5869 0.0
H1157 H 0.41508 0.02297 0.58028 0.0
H1158 H 0.43284 0.03128 0.52263 0.0
H1159 H 0.45597 0.00905 0.52916 0.0
H1160 H 0.42341 0.06289 0.5649 0.0
H1161 H 0.3726 0.01558 0.51953 0.0
H1162 H 0.3901 0.00655 0.53563 0.0
H1163 H 0.39769 0.01871 0.51358 0.0
C1164 C 0.43708 0.0071 0.57285 0.0
C1165 C 0.44871 0.00276 0.55854 0.0
C1166 C 0.42398 0.01996 0.56908 0.0
C1167 C 0.42213 0.02858 0.55092 0.0
C1168 C 0.43383 0.0245 0.53666 0.0
H1169 H 0.34889 0.10446 0.4961 0.0
H1170 H 0.3729 0.08351 0.50432 0.0
C1171 C 0.44699 0.01173 0.54042 0.0
C1172 C 0.40802 0.04194 0.54685 0.0
H1173 H 0.36686 0.04747 0.52106 0.0
C1174 C 0.41098 0.05954 0.55539 0.0
C1175 C 0.39188 0.03748 0.53441 0.0
C1176 C 0.3877 0.0185 0.52533 0.0
C1177 C 0.39845 0.07304 0.55146 0.0
C1178 C 0.38228 0.06859 0.53899 0.0
C1179 C 0.37928 0.05089 0.53058 0.0
C1180 C 0.36834 0.08207 0.53431 0.0
C1181 C 0.40296 0.09213 0.56029 0.0
C1182 C 0.35775 0.08822 0.54844 0.0
C1183 C 0.34409 0.10033 0.54379 0.0
C1184 C 0.34057 0.10631 0.52489 0.0
C1185 C 0.35123 0.10014 0.51079 0.0
C1186 C 0.36495 0.08814 0.51546 0.0
H1187 H 0.41839 0.09533 0.56507 0.0
H1188 H 0.39971 0.10397 0.55024 0.0
H1189 H 0.3939 0.0918 0.57278 0.0
H1190 H 0.35978 0.08337 0.56303 0.0
H1191 H 0.33602 0.10469 0.55498 0.0
H1192 H 0.5785 0.51874 0.4921 0.0
H1193 H 0.60638 0.50297 0.48658 0.0
H1194 H 0.59884 0.47167 0.5406 0.0
H1195 H 0.57079 0.48723 0.54599 0.0
H1196 H 0.64078 0.50317 0.50778 0.0
H1197 H 0.60026 0.42911 0.50469 0.0
H1198 H 0.58837 0.45 0.50309 0.0
H1199 H 0.59652 0.44072 0.52562 0.0
C1200 C 0.58274 0.50835 0.50267 0.0
C1201 C 0.5723 0.50379 0.51925 0.0
C1202 C 0.59865 0.49942 0.49956 0.0
C1203 C 0.60441 0.48585 0.51301 0.0
C1204 C 0.59432 0.48171 0.52983 0.0
H1205 H 0.6965 0.41704 0.52218 0.0
H1206 H 0.66879 0.43304 0.52706 0.0
C1207 C 0.57839 0.49062 0.53293 0.0
C1208 C 0.62123 0.47632 0.50959 0.0
H1209 H 0.63459 0.4325 0.50533 0.0
C1210 C 0.63944 0.48773 0.50714 0.0
C1211 C 0.6194 0.45618 0.50878 0.0
C1212 C 0.60007 0.44327 0.51051 0.0
C1213 C 0.65597 0.47949 0.50429 0.0
C1214 C 0.65415 0.45934 0.50354 0.0
C1215 C 0.63593 0.44794 0.50594 0.0
C1216 C 0.671 0.44975 0.50044 0.0
C1217 C 0.67531 0.49239 0.50255 0.0
C1218 C 0.68128 0.45366 0.48372 0.0
C1219 C 0.69716 0.44457 0.48089 0.0
C1220 C 0.70297 0.43129 0.49467 0.0
C1221 C 0.69245 0.42722 0.51129 0.0
C1222 C 0.6766 0.43633 0.51411 0.0
H1223 H 0.67507 0.50664 0.50816 0.0
H1224 H 0.68696 0.48574 0.51015 0.0
H1225 H 0.67896 0.49474 0.48746 0.0
H1226 H 0.67695 0.46367 0.47281 0.0
H1227 H 0.70486 0.44795 0.46788 0.0
H1228 H 0.69869 0.26096 0.34005 0.0
H1229 H 0.704 0.28372 0.36485 0.0
H1230 H 0.76523 0.29404 0.35467 0.0
H1231 H 0.76005 0.27163 0.32946 0.0
H1232 H 0.75407 0.28741 0.3944 0.0
H1233 H 0.71897 0.34336 0.35432 0.0
H1234 H 0.70517 0.31956 0.35535 0.0
H1235 H 0.72753 0.32428 0.34309 0.0
C1236 C 0.71328 0.26818 0.34294 0.0
C1237 C 0.72892 0.26459 0.33261 0.0
C1238 C 0.71628 0.28112 0.35716 0.0
C1239 C 0.73495 0.2907 0.36139 0.0
C1240 C 0.75069 0.2868 0.35155 0.0
H1241 H 0.76397 0.39098 0.42753 0.0
H1242 H 0.7609 0.36797 0.40296 0.0
C1243 C 0.74771 0.27391 0.33722 0.0
C1244 C 0.73797 0.30491 0.376 0.0
H1245 H 0.7273 0.34837 0.38642 0.0
C1246 C 0.7483 0.30078 0.39267 0.0
C1247 C 0.73059 0.3224 0.37355 0.0
C1248 C 0.72007 0.32783 0.35557 0.0
C1249 C 0.75109 0.31356 0.40719 0.0
C1250 C 0.74317 0.33078 0.40499 0.0
C1251 C 0.73321 0.33508 0.38813 0.0
C1252 C 0.74508 0.34459 0.42 0.0
C1253 C 0.76268 0.30861 0.42467 0.0
C1254 C 0.73695 0.33914 0.43763 0.0
C1255 C 0.73868 0.35224 0.4517 0.0
C1256 C 0.74847 0.3711 0.44836 0.0
C1257 C 0.75636 0.37658 0.43058 0.0
C1258 C 0.75463 0.36346 0.41652 0.0
H1259 H 0.77184 0.29764 0.42215 0.0
H1260 H 0.77214 0.32156 0.42971 0.0
H1261 H 0.7526 0.30269 0.43602 0.0
H1262 H 0.72915 0.32478 0.44046 0.0
H1263 H 0.73234 0.34758 0.4652 0.0
H1264 H 0.53491 0.08453 0.9251 0.0
H1265 H 0.55561 0.07192 0.90362 0.0
H1266 H 0.52177 0.01551 0.91193 0.0
H1267 H 0.50078 0.02823 0.93314 0.0
H1268 H 0.57821 0.04311 0.90957 0.0
H1269 H 0.5206 0.02437 0.85473 0.0
H1270 H 0.51764 0.03931 0.87366 0.0
H1271 H 0.51509 0.0137 0.87788 0.0
C1272 C 0.53192 0.06945 0.92231 0.0
C1273 C 0.51621 0.05733 0.93062 0.0
C1274 C 0.54374 0.06226 0.91009 0.0
C1275 C 0.54004 0.04285 0.90594 0.0
C1276 C 0.52464 0.03061 0.91461 0.0
H1277 H 0.59713 0.98185 0.82684 0.0
H1278 H 0.57734 0.98906 0.8523 0.0
C1279 C 0.51275 0.03783 0.92679 0.0
C1280 C 0.55233 0.03554 0.89248 0.0
H1281 H 0.55126 0.01609 0.84969 0.0
C1282 C 0.57232 0.03716 0.8965 0.0
C1283 C 0.54458 0.02771 0.87546 0.0
C1284 C 0.52334 0.02629 0.87003 0.0
C1285 C 0.5848 0.03127 0.88391 0.0
C1286 C 0.57711 0.02381 0.86674 0.0
C1287 C 0.55708 0.02176 0.86291 0.0
C1288 C 0.58973 0.01915 0.85205 0.0
C1289 C 0.60612 0.03306 0.88908 0.0
C1290 C 0.60314 0.0337 0.84343 0.0
C1291 C 0.61439 0.02966 0.8289 0.0
C1292 C 0.61243 0.01098 0.82263 0.0
C1293 C 0.59906 0.99637 0.83139 0.0
C1294 C 0.58773 1.00046 0.84591 0.0
H1295 H 0.60883 0.03383 0.90453 0.0
H1296 H 0.61232 0.02077 0.8843 0.0
H1297 H 0.6139 0.04644 0.8821 0.0
H1298 H 0.60464 0.0483 0.8477 0.0
H1299 H 0.62449 0.04127 0.82244 0.0
H1300 H 0.27629 0.27603 0.34769 0.0
H1301 H 0.2758 0.25345 0.37533 0.0
H1302 H 0.33827 0.26263 0.37795 0.0
H1303 H 0.3389 0.28548 0.35041 0.0
H1304 H 0.29452 0.21901 0.37784 0.0
H1305 H 0.32143 0.27047 0.43257 0.0
H1306 H 0.31093 0.27796 0.41024 0.0
H1307 H 0.335 0.27219 0.41141 0.0
C1308 C 0.28993 0.27346 0.35431 0.0
C1309 C 0.30764 0.28259 0.34693 0.0
C1310 C 0.28962 0.26049 0.37001 0.0
C1311 C 0.30699 0.25653 0.37873 0.0
C1312 C 0.32471 0.26567 0.37152 0.0
H1313 H 0.32304 0.18107 0.47919 0.0
H1314 H 0.32921 0.20368 0.45161 0.0
C1315 C 0.32504 0.27859 0.35572 0.0
C1316 C 0.30643 0.24229 0.39498 0.0
H1317 H 0.31482 0.23769 0.44254 0.0
C1318 C 0.29902 0.22305 0.39198 0.0
C1319 C 0.31252 0.24763 0.41333 0.0
C1320 C 0.32033 0.26819 0.41724 0.0
C1321 C 0.29731 0.20899 0.40694 0.0
C1322 C 0.30271 0.21443 0.42544 0.0
C1323 C 0.31064 0.23358 0.42835 0.0
C1324 C 0.29918 0.20065 0.44203 0.0
C1325 C 0.28979 0.18843 0.40275 0.0
C1326 C 0.28024 0.1917 0.44592 0.0
C1327 C 0.27669 0.1788 0.46154 0.0
C1328 C 0.29199 0.17469 0.47377 0.0
C1329 C 0.31095 0.18387 0.47001 0.0
C1330 C 0.3145 0.19679 0.45429 0.0
H1331 H 0.29213 0.18574 0.38787 0.0
H1332 H 0.29691 0.1783 0.41214 0.0
H1333 H 0.27396 0.18534 0.40504 0.0
H1334 H 0.26814 0.19483 0.43691 0.0
H1335 H 0.26189 0.17213 0.46408 0.0
H1336 H 0.49638 0.47495 0.93111 0.0
H1337 H 0.47637 0.47651 0.90203 0.0
H1338 H 0.49775 0.53715 0.89413 0.0
H1339 H 0.51802 0.5355 0.92294 0.0
H1340 H 0.44727 0.49795 0.89381 0.0
H1341 H 0.5063 0.51805 0.84301 0.0
H1342 H 0.51061 0.50922 0.86694 0.0
H1343 H 0.50769 0.53386 0.8619 0.0
C1344 C 0.4968 0.48855 0.92305 0.0
C1345 C 0.50861 0.50511 0.92921 0.0
C1346 C 0.48542 0.48945 0.90651 0.0
C1347 C 0.48577 0.5069 0.8958 0.0
C1348 C 0.49756 0.52347 0.90197 0.0
H1349 H 0.42225 0.5439 0.79657 0.0
H1350 H 0.4429 0.54188 0.82501 0.0
C1351 C 0.509 0.52255 0.91847 0.0
C1352 C 0.4733 0.50787 0.87852 0.0
H1353 H 0.47428 0.51986 0.83123 0.0
C1354 C 0.45317 0.50263 0.8801 0.0
C1355 C 0.48106 0.514 0.86067 0.0
C1356 C 0.50261 0.51893 0.85793 0.0
C1357 C 0.44055 0.50367 0.86436 0.0
C1358 C 0.44831 0.50992 0.84656 0.0
C1359 C 0.46841 0.51514 0.84494 0.0
C1360 C 0.43576 0.51104 0.82939 0.0
C1361 C 0.419 0.49845 0.86693 0.0
C1362 C 0.4251 0.49432 0.82237 0.0
C1363 C 0.41333 0.4954 0.80611 0.0
C1364 C 0.41204 0.51323 0.79657 0.0
C1365 C 0.42286 0.52995 0.80361 0.0
C1366 C 0.43469 0.52883 0.81983 0.0
H1367 H 0.4152 0.49811 0.88197 0.0
H1368 H 0.41108 0.50879 0.85869 0.0
H1369 H 0.41392 0.48398 0.86173 0.0
H1370 H 0.42598 0.48042 0.82941 0.0
H1371 H 0.40524 0.48224 0.80104 0.0
H1372 H 0.70288 0.73962 0.17737 0.0
H1373 H 0.71887 0.72019 0.15748 0.0
H1374 H 0.7572 0.77106 0.13776 0.0
H1375 H 0.74142 0.79041 0.15786 0.0
H1376 H 0.72106 0.72405 0.11868 0.0
H1377 H 0.79475 0.73372 0.15206 0.0
H1378 H 0.77404 0.73963 0.16338 0.0
H1379 H 0.78615 0.75588 0.14551 0.0
C1380 C 0.71477 0.74656 0.16881 0.0
C1381 C 0.72076 0.76649 0.16884 0.0
C1382 C 0.7239 0.7355 0.15751 0.0
C1383 C 0.73934 0.74415 0.14628 0.0
C1384 C 0.74555 0.76403 0.14656 0.0
H1385 H 0.80474 0.70838 0.05831 0.0
H1386 H 0.79144 0.72559 0.08213 0.0
C1387 C 0.73643 0.77509 0.15788 0.0
C1388 C 0.74824 0.73255 0.13349 0.0
H1389 H 0.79122 0.71976 0.12226 0.0
C1390 C 0.73637 0.72296 0.11956 0.0
C1391 C 0.76822 0.73121 0.13464 0.0
C1392 C 0.78152 0.7405 0.14981 0.0
C1393 C 0.74401 0.71246 0.10646 0.0
C1394 C 0.76402 0.71126 0.10751 0.0
C1395 C 0.77589 0.72072 0.1215 0.0
C1396 C 0.7729 0.70052 0.09393 0.0
C1397 C 0.73071 0.70319 0.09126 0.0
C1398 C 0.76722 0.68065 0.09301 0.0
C1399 C 0.77477 0.67077 0.07941 0.0
C1400 C 0.78821 0.68058 0.06654 0.0
C1401 C 0.79437 0.7004 0.06795 0.0
C1402 C 0.7868 0.71026 0.08156 0.0
H1403 H 0.71694 0.70915 0.08974 0.0
H1404 H 0.73786 0.70514 0.07746 0.0
H1405 H 0.72709 0.68756 0.09494 0.0
H1406 H 0.75677 0.67282 0.10266 0.0
H1407 H 0.7698 0.6555 0.0788 0.0
H1408 H 0.00597 0.01628 0.07487 0.0
H1409 H 0.98714 0.01098 0.10362 0.0
H1410 H 1.00066 0.07133 0.11307 0.0
H1411 H 0.01976 0.07669 0.0846 0.0
H1412 H 0.00496 0.04593 0.14574 0.0
H1413 H 0.93358 0.02864 0.10814 0.0
H1414 H 0.9519 0.01506 0.10226 0.0
H1415 H 0.95508 0.04043 0.09638 0.0
C1416 C 0.00508 0.02837 0.08319 0.0
C1417 C 0.01422 0.04693 0.07742 0.0
C1418 C 0.9942 0.02535 0.09949 0.0
C1419 C 0.99232 0.04081 0.11028 0.0
C1420 C 0.00185 0.05924 0.10484 0.0
H1421 H 0.91036 0.05093 0.19542 0.0
H1422 H 0.93051 0.05453 0.16767 0.0
C1423 C 0.01264 0.06229 0.08853 0.0
C1424 C 0.98031 0.0379 0.12719 0.0
H1425 H 0.93365 0.02591 0.14144 0.0
C1426 C 0.98938 0.0415 0.14484 0.0
C1427 C 0.95997 0.03236 0.12588 0.0
C1428 C 0.94945 0.02902 0.10716 0.0
C1429 C 0.97863 0.03956 0.16128 0.0
C1430 C 0.95833 0.03373 0.16001 0.0
C1431 C 0.94924 0.03026 0.14234 0.0
C1432 C 0.94621 0.03145 0.17683 0.0
C1433 C 0.98899 0.04411 0.17985 0.0
C1434 C 0.94827 0.01715 0.19104 0.0
C1435 C 0.93677 0.01502 0.20689 0.0
C1436 C 0.92299 0.02716 0.20879 0.0
C1437 C 0.92089 0.0414 0.19443 0.0
C1438 C 0.93235 0.04346 0.17856 0.0
H1439 H 0.0038 0.05228 0.17788 0.0
H1440 H 0.98068 0.05255 0.18819 0.0
H1441 H 0.9903 0.03051 0.18815 0.0
H1442 H 0.95869 0.00756 0.18982 0.0
H1443 H 0.9387 0.00386 0.21764 0.0
H1444 H 0.25213 0.7442 0.17182 0.0
H1445 H 0.24632 0.7607 0.14114 0.0
H1446 H 0.29059 0.80802 0.15517 0.0
H1447 H 0.2966 0.79139 0.18566 0.0
H1448 H 0.23455 0.79623 0.13451 0.0
H1449 H 0.30577 0.79621 0.10301 0.0
H1450 H 0.29785 0.78121 0.12365 0.0
H1451 H 0.30751 0.80616 0.1257 0.0
C1452 C 0.2606 0.7581 0.16825 0.0
C1453 C 0.27461 0.76669 0.18109 0.0
C1454 C 0.25732 0.76749 0.15079 0.0
C1455 C 0.26816 0.78549 0.14581 0.0
C1456 C 0.2823 0.79399 0.15858 0.0
H1457 H 0.26663 0.87128 0.05389 0.0
H1458 H 0.2729 0.85236 0.08284 0.0
C1459 C 0.28561 0.78459 0.17603 0.0
C1460 C 0.26413 0.79573 0.1276 0.0
H1461 H 0.28502 0.81598 0.08697 0.0
C1462 C 0.24552 0.80042 0.12404 0.0
C1463 C 0.2785 0.80118 0.11399 0.0
C1464 C 0.29848 0.79579 0.11665 0.0
C1465 C 0.24103 0.81086 0.10743 0.0
C1466 C 0.25546 0.81649 0.09392 0.0
C1467 C 0.27401 0.81166 0.09739 0.0
C1468 C 0.25168 0.82771 0.07623 0.0
C1469 C 0.22105 0.81625 0.10472 0.0
C1470 C 0.23783 0.82 0.06282 0.0
C1471 C 0.23417 0.83078 0.04625 0.0
C1472 C 0.24438 0.84944 0.04278 0.0
C1473 C 0.25845 0.85699 0.05615 0.0
C1474 C 0.26209 0.8462 0.07269 0.0
H1475 H 0.21325 0.81479 0.11817 0.0
H1476 H 0.22184 0.83124 0.09871 0.0
H1477 H 0.2124 0.80662 0.09473 0.0
H1478 H 0.22989 0.80562 0.06514 0.0
H1479 H 0.22333 0.82449 0.0362 0.0
H1480 H 0.99709 0.44376 0.10305 0.0
H1481 H 0.01724 0.44439 0.132 0.0
H1482 H 0.02321 0.50613 0.12973 0.0
H1483 H 0.00365 0.50569 0.10044 0.0
H1484 H 0.05802 0.49273 0.1371 0.0
H1485 H 0.00106 0.45488 0.18443 0.0
H1486 H 0.00461 0.44216 0.16416 0.0
H1487 H 0.99558 0.46458 0.1611 0.0
C1488 C 0.00279 0.45748 0.10864 0.0
C1489 C 0.99868 0.47467 0.09946 0.0
C1490 C 0.01412 0.4578 0.12531 0.0
C1491 C 0.02146 0.47528 0.13317 0.0
C1492 C 0.01756 0.49246 0.12396 0.0
H1493 H 0.0696 0.49624 0.24501 0.0
H1494 H 0.04979 0.49334 0.21595 0.0
C1495 C 0.00625 0.49217 0.1073 0.0
C1496 C 0.03356 0.47576 0.15079 0.0
H1497 H 0.03303 0.46103 0.19749 0.0
C1498 C 0.05258 0.4858 0.15031 0.0
C1499 C 0.02633 0.46688 0.16804 0.0
C1500 C 0.00573 0.45666 0.16959 0.0
C1501 C 0.06462 0.48712 0.1666 0.0
C1502 C 0.05754 0.47788 0.18376 0.0
C1503 C 0.03848 0.46793 0.18427 0.0
C1504 C 0.06944 0.479 0.20151 0.0
C1505 C 0.08464 0.49881 0.1654 0.0
C1506 C 0.08691 0.4716 0.20315 0.0
C1507 C 0.09833 0.47328 0.21974 0.0
C1508 C 0.0924 0.48229 0.23505 0.0
C1509 C 0.07464 0.48927 0.23349 0.0
C1510 C 0.06327 0.48761 0.2169 0.0
H1511 H 0.08609 0.50868 0.15254 0.0
H1512 H 0.08821 0.5074 0.17794 0.0
H1513 H 0.09545 0.48899 0.16488 0.0
H1514 H 0.09174 0.46455 0.19157 0.0
H1515 H 0.11185 0.46764 0.22052 0.0
H1516 H 0.31613 0.71927 0.27739 0.0
H1517 H 0.34458 0.72826 0.29805 0.0
H1518 H 0.37914 0.74711 0.24949 0.0
H1519 H 0.35083 0.73789 0.2287 0.0
H1520 H 0.39604 0.72275 0.27775 0.0
H1521 H 0.37025 0.78451 0.30751 0.0
H1522 H 0.35354 0.76231 0.30839 0.0
H1523 H 0.36007 0.77431 0.28599 0.0
C1524 C 0.32982 0.72521 0.27111 0.0
C1525 C 0.33125 0.72791 0.25142 0.0
C1526 C 0.346 0.73049 0.28293 0.0
C1527 C 0.36386 0.73854 0.27527 0.0
C1528 C 0.36542 0.74102 0.25564 0.0
H1529 H 0.46772 0.79692 0.32989 0.0
H1530 H 0.43898 0.78772 0.30973 0.0
C1531 C 0.34923 0.73585 0.24382 0.0
C1532 C 0.38101 0.74419 0.28773 0.0
H1533 H 0.39927 0.77556 0.32091 0.0
C1534 C 0.39678 0.73428 0.2872 0.0
C1535 C 0.38194 0.75937 0.29986 0.0
C1536 C 0.36564 0.77089 0.30045 0.0
C1537 C 0.41343 0.73902 0.2987 0.0
C1538 C 0.4142 0.75394 0.31112 0.0
C1539 C 0.39853 0.76402 0.31147 0.0
C1540 C 0.43133 0.75953 0.32363 0.0
C1541 C 0.43019 0.72823 0.29731 0.0
C1542 C 0.43633 0.7468 0.33828 0.0
C1543 C 0.4527 0.75203 0.34987 0.0
C1544 C 0.46436 0.77008 0.34699 0.0
C1545 C 0.45911 0.78289 0.33245 0.0
C1546 C 0.44268 0.77768 0.32093 0.0
H1547 H 0.42896 0.72004 0.2844 0.0
H1548 H 0.44417 0.73824 0.29729 0.0
H1549 H 0.43046 0.71791 0.30973 0.0
H1550 H 0.42756 0.73283 0.34074 0.0
H1551 H 0.4563 0.74184 0.36097 0.0
H1552 H 0.01925 0.4303 0.0299 0.0
H1553 H 0.02271 0.4028 0.01171 0.0
H1554 H 0.97544 0.41499 0.97445 0.0
H1555 H 0.97216 0.44264 0.99249 0.0
H1556 H 0.99554 0.37029 0.00394 0.0
H1557 H 0.019 0.41288 0.93812 0.0
H1558 H 0.01885 0.4236 0.96043 0.0
H1559 H 0.99665 0.41754 0.94697 0.0
C1560 C 0.00973 0.42714 0.01773 0.0
C1561 C 0.99577 0.43879 0.01225 0.0
C1562 C 0.01165 0.41144 0.00741 0.0
C1563 C 0.9996 0.40711 0.9915 0.0
C1564 C 0.98521 0.41838 0.98639 0.0
H1565 H 0.99166 0.31981 0.90986 0.0
H1566 H 0.98668 0.3464 0.92845 0.0
C1567 C 0.9833 0.43408 0.99671 0.0
C1568 C 0.002 0.3907 0.98036 0.0
H1569 H 0.0129 0.37908 0.93666 0.0
C1570 C 0.99939 0.37219 0.98925 0.0
C1571 C 0.00699 0.39325 0.96119 0.0
C1572 C 0.01072 0.41289 0.95111 0.0
C1573 C 0.00138 0.3561 0.97939 0.0
C1574 C 0.00646 0.35866 0.96023 0.0
C1575 C 0.00899 0.37716 0.95134 0.0
C1576 C 0.00938 0.34236 0.94919 0.0
C1577 C 0.99767 0.33646 0.98947 0.0
C1578 C 0.02396 0.33142 0.95456 0.0
C1579 C 0.02684 0.3162 0.94398 0.0
C1580 C 0.01527 0.31172 0.92775 0.0
C1581 C 1.00081 0.32285 0.9223 0.0
C1582 C 0.99794 0.33805 0.9329 0.0
H1583 H 0.989 0.33641 0.00222 0.0
H1584 H 0.98993 0.32565 0.98003 0.0
H1585 H 0.01173 0.33203 0.99402 0.0
H1586 H 0.03324 0.33475 0.96684 0.0
H1587 H 0.03818 0.308 0.94852 0.0
H1588 H 0.66087 0.78431 0.22734 0.0
H1589 H 0.63326 0.77868 0.24815 0.0
H1590 H 0.66896 0.80638 0.29237 0.0
H1591 H 0.69685 0.81157 0.27195 0.0
H1592 H 0.63249 0.75876 0.28738 0.0
H1593 H 0.61949 0.83452 0.28406 0.0
H1594 H 0.63227 0.82523 0.26607 0.0
H1595 H 0.64405 0.83038 0.28843 0.0
C1596 C 0.66296 0.789 0.24156 0.0
C1597 C 0.68111 0.79845 0.24793 0.0
C1598 C 0.64712 0.78589 0.25337 0.0
C1599 C 0.64908 0.79232 0.27167 0.0
C1600 C 0.66714 0.80157 0.27818 0.0
H1601 H 0.5684 0.79269 0.36127 0.0
H1602 H 0.59639 0.79825 0.3409 0.0
C1603 C 0.68302 0.80458 0.26644 0.0
C1604 C 0.63227 0.78916 0.28407 0.0
H1605 H 0.60021 0.81242 0.30455 0.0
C1606 C 0.62536 0.77044 0.29112 0.0
C1607 C 0.62319 0.8045 0.28898 0.0
C1608 C 0.62997 0.82482 0.28145 0.0
C1609 C 0.60967 0.76665 0.30323 0.0
C1610 C 0.60033 0.78195 0.30794 0.0
C1611 C 0.60734 0.80071 0.3009 0.0
C1612 C 0.58322 0.77879 0.32008 0.0
C1613 C 0.60358 0.74635 0.31122 0.0
C1614 C 0.56638 0.76632 0.31495 0.0
C1615 C 0.55045 0.76301 0.32662 0.0
C1616 C 0.55093 0.77232 0.34352 0.0
C1617 C 0.56759 0.78525 0.34837 0.0
C1618 C 0.58359 0.78845 0.33675 0.0
H1619 H 0.61547 0.73773 0.31084 0.0
H1620 H 0.59899 0.74612 0.326 0.0
H1621 H 0.59116 0.73931 0.30264 0.0
H1622 H 0.56555 0.75914 0.3019 0.0
H1623 H 0.53777 0.75312 0.32237 0.0
H1624 H 0.05943 0.09512 0.01093 0.0
H1625 H 0.05422 0.12328 0.99056 0.0
H1626 H 0.99282 0.10996 0.99962 0.0
H1627 H 0.99785 0.08176 0.01983 0.0
H1628 H 0.03045 0.12574 0.95733 0.0
H1629 H 0.00727 0.16586 0.01459 0.0
H1630 H 0.01943 0.14531 0.01919 0.0
H1631 H 0.99404 0.14204 0.0128 0.0
C1632 C 0.0448 0.0981 0.00844 0.0
C1633 C 0.02907 0.08631 0.01714 0.0
C1634 C 0.04187 0.11422 0.99689 0.0
C1635 C 0.02319 0.11887 0.99389 0.0
C1636 C 0.00741 0.10686 0.00212 0.0
H1637 H 0.97418 0.21022 0.93193 0.0
H1638 H 0.97983 0.18157 0.95118 0.0
C1639 C 0.01031 0.09077 0.01367 0.0
C1640 C 0.02015 0.13625 0.98212 0.0
H1641 H 0.00376 0.17904 0.98336 0.0
C1642 C 0.02471 0.13746 0.96301 0.0
C1643 C 0.01263 0.15146 0.9896 0.0
C1644 C 0.0082 0.15126 0.0102 0.0
C1645 C 0.02156 0.15334 0.95106 0.0
C1646 C 0.014 0.16854 0.95854 0.0
C1647 C 0.00951 0.16734 0.97766 0.0
C1648 C 0.01068 0.18586 0.94678 0.0
C1649 C 0.02592 0.1535 0.93045 0.0
C1650 C 0.02621 0.1979 0.93817 0.0
C1651 C 0.02305 0.21426 0.92714 0.0
C1652 C 0.00428 0.21896 0.92464 0.0
C1653 C 0.98879 0.207 0.93353 0.0
C1654 C 0.99199 0.19062 0.94454 0.0
H1655 H 0.02674 0.13887 0.92607 0.0
H1656 H 0.01473 0.15952 0.92148 0.0
H1657 H 0.04014 0.16262 0.92782 0.0
H1658 H 0.04082 0.19471 0.94006 0.0
H1659 H 0.03532 0.22322 0.9206 0.0
H1660 H 0.364 0.29085 0.28021 0.0
H1661 H 0.39023 0.28771 0.25938 0.0
H1662 H 0.34977 0.28434 0.21185 0.0
H1663 H 0.32369 0.28809 0.23253 0.0
H1664 H 0.39389 0.25851 0.23812 0.0
H1665 H 0.39289 0.32442 0.19167 0.0
H1666 H 0.38035 0.3203 0.21358 0.0
H1667 H 0.36968 0.30936 0.1927 0.0
C1668 C 0.36084 0.28986 0.26525 0.0
C1669 C 0.34198 0.29034 0.25786 0.0
C1670 C 0.37578 0.28795 0.25339 0.0
C1671 C 0.37207 0.28625 0.23397 0.0
C1672 C 0.35312 0.28627 0.22666 0.0
H1673 H 0.43766 0.25964 0.14117 0.0
H1674 H 0.41241 0.26456 0.16238 0.0
C1675 C 0.33822 0.28832 0.23849 0.0
C1676 C 0.38781 0.28356 0.22151 0.0
H1677 H 0.41111 0.30152 0.18131 0.0
C1678 C 0.39776 0.26801 0.22579 0.0
C1679 C 0.39286 0.29598 0.20542 0.0
C1680 C 0.38352 0.31356 0.20065 0.0
C1681 C 0.41234 0.26433 0.21421 0.0
C1682 C 0.4171 0.27654 0.19799 0.0
C1683 C 0.40727 0.29213 0.19373 0.0
C1684 C 0.43238 0.27341 0.18532 0.0
C1685 C 0.42234 0.24723 0.21916 0.0
C1686 C 0.45193 0.27689 0.19123 0.0
C1687 C 0.46639 0.27421 0.17914 0.0
C1688 C 0.46153 0.26793 0.16095 0.0
C1689 C 0.44189 0.26441 0.15511 0.0
C1690 C 0.42745 0.26725 0.16717 0.0
H1691 H 0.41482 0.23743 0.23035 0.0
H1692 H 0.42316 0.23904 0.2065 0.0
H1693 H 0.43739 0.25228 0.22426 0.0
H1694 H 0.456 0.28181 0.20515 0.0
H1695 H 0.48137 0.27705 0.18408 0.0
H1696 H 0.58109 0.44454 0.99924 0.0
H1697 H 0.57328 0.41604 0.02066 0.0
H1698 H 0.51349 0.42416 0.01965 0.0
H1699 H 0.52118 0.45291 0.99857 0.0
H1700 H 0.55551 0.4145 0.05721 0.0
H1701 H 0.51195 0.36729 0.00639 0.0
H1702 H 0.52855 0.38852 0.99895 0.0
H1703 H 0.50533 0.39068 0.00766 0.0
C1704 C 0.56629 0.44035 0.00365 0.0
C1705 C 0.55175 0.45102 0.99716 0.0
C1706 C 0.56186 0.42401 0.0158 0.0
C1707 C 0.5428 0.41793 0.02154 0.0
C1708 C 0.52824 0.42846 0.0151 0.0
H1709 H 0.48571 0.32334 0.09284 0.0
H1710 H 0.49398 0.35196 0.07174 0.0
C1711 C 0.53266 0.44485 0.00301 0.0
C1712 C 0.53823 0.40084 0.03469 0.0
H1713 H 0.51252 0.35551 0.03828 0.0
C1714 C 0.54618 0.40155 0.0531 0.0
C1715 C 0.526 0.38407 0.02923 0.0
C1716 C 0.51754 0.38242 0.00945 0.0
C1717 C 0.54192 0.38599 0.06637 0.0
C1718 C 0.52974 0.36914 0.0609 0.0
C1719 C 0.52184 0.36845 0.04245 0.0
C1720 C 0.52493 0.35206 0.07409 0.0
C1721 C 0.55008 0.38795 0.08624 0.0
C1722 C 0.53958 0.34254 0.08232 0.0
C1723 C 0.53492 0.32624 0.09449 0.0
C1724 C 0.51547 0.31902 0.09847 0.0
C1725 C 0.50082 0.32853 0.09009 0.0
C1726 C 0.50552 0.34487 0.07801 0.0
H1727 H 0.55443 0.40323 0.08944 0.0
H1728 H 0.53939 0.38095 0.09668 0.0
H1729 H 0.56315 0.3809 0.08796 0.0
H1730 H 0.55463 0.34756 0.07915 0.0
H1731 H 0.54653 0.31917 0.10059 0.0
H1732 H 0.7042 0.24099 0.25088 0.0
H1733 H 0.67603 0.24389 0.22987 0.0
H1734 H 0.64046 0.24316 0.2781 0.0
H1735 H 0.66856 0.24051 0.29913 0.0
H1736 H 0.64092 0.22062 0.22595 0.0
H1737 H 0.63041 0.29166 0.24853 0.0
H1738 H 0.65202 0.28146 0.25469 0.0
H1739 H 0.63033 0.27391 0.26775 0.0
C1740 C 0.69033 0.24134 0.25698 0.0
C1741 C 0.6886 0.24071 0.27663 0.0
C1742 C 0.67429 0.24305 0.24498 0.0
C1743 C 0.65625 0.24416 0.25242 0.0
C1744 C 0.65436 0.24289 0.27205 0.0
H1745 H 0.54076 0.25012 0.20736 0.0
H1746 H 0.56959 0.24612 0.22691 0.0
C1747 C 0.67041 0.24132 0.28404 0.0
C1748 C 0.63937 0.24653 0.2397 0.0
H1749 H 0.60506 0.27527 0.22946 0.0
C1750 C 0.63316 0.23264 0.22661 0.0
C1751 C 0.62933 0.26228 0.24054 0.0
C1752 C 0.63596 0.27828 0.2535 0.0
C1753 C 0.61686 0.23383 0.21467 0.0
C1754 C 0.60663 0.24935 0.21581 0.0
C1755 C 0.61292 0.26333 0.22875 0.0
C1756 C 0.58924 0.25131 0.20378 0.0
C1757 C 0.61039 0.21829 0.20119 0.0
C1758 C 0.59084 0.25568 0.18434 0.0
C1759 C 0.57442 0.25809 0.17313 0.0
C1760 C 0.55612 0.25613 0.1812 0.0
C1761 C 0.55461 0.25167 0.20069 0.0
C1762 C 0.57105 0.2494 0.21189 0.0
H1763 H 0.61776 0.20561 0.20434 0.0
H1764 H 0.59448 0.21358 0.20172 0.0
H1765 H 0.61379 0.22405 0.18661 0.0
H1766 H 0.60483 0.25744 0.17789 0.0
H1767 H 0.57609 0.26153 0.15816 0.0
H1768 H 0.49591 0.11335 0.99154 0.0
H1769 H 0.50101 0.13973 0.01282 0.0
H1770 H 0.48156 0.09999 0.05932 0.0
H1771 H 0.47672 0.07355 0.03825 0.0
H1772 H 0.47157 0.15067 0.03535 0.0
H1773 H 0.53365 0.1302 0.07884 0.0
H1774 H 0.52694 0.12102 0.05599 0.0
H1775 H 0.5133 0.11137 0.07626 0.0
C1776 C 0.49301 0.11021 0.00636 0.0
C1777 C 0.48593 0.09138 0.01324 0.0
C1778 C 0.49581 0.12528 0.01845 0.0
C1779 C 0.49183 0.12175 0.03765 0.0
C1780 C 0.48496 0.10297 0.04459 0.0
H1781 H 0.49621 0.19138 0.13403 0.0
H1782 H 0.492 0.16537 0.11245 0.0
C1783 C 0.48205 0.08792 0.03251 0.0
C1784 C 0.49405 0.1378 0.0503 0.0
H1785 H 0.51888 0.1553 0.08939 0.0
C1786 C 0.48199 0.15179 0.04711 0.0
C1787 C 0.50756 0.13908 0.06567 0.0
C1788 C 0.52124 0.12473 0.06938 0.0
C1789 C 0.48281 0.16688 0.05913 0.0
C1790 C 0.49637 0.16821 0.07449 0.0
C1791 C 0.50847 0.15423 0.07763 0.0
C1792 C 0.49835 0.18407 0.08741 0.0
C1793 C 0.4688 0.18094 0.05554 0.0
C1794 C 0.50342 0.2032 0.0805 0.0
C1795 C 0.50573 0.21809 0.09276 0.0
C1796 C 0.50323 0.21413 0.11223 0.0
C1797 C 0.49821 0.19494 0.11912 0.0
C1798 C 0.49583 0.18005 0.10682 0.0
H1799 H 0.45602 0.17492 0.04679 0.0
H1800 H 0.46363 0.18515 0.06898 0.0
H1801 H 0.47621 0.19407 0.04785 0.0
H1802 H 0.50588 0.2066 0.06564 0.0
H1803 H 0.50974 0.23269 0.087 0.0
H1804 H 0.24123 0.34603 0.69119 0.0
H1805 H 0.26379 0.37638 0.6919 0.0
H1806 H 0.26629 0.37075 0.75263 0.0
H1807 H 0.24403 0.34028 0.75204 0.0
H1808 H 0.25733 0.4096 0.71071 0.0
H1809 H 0.32391 0.38207 0.73757 0.0
H1810 H 0.30351 0.36691 0.7271 0.0
H1811 H 0.30262 0.37361 0.75093 0.0
C1812 C 0.24684 0.35112 0.70467 0.0
C1813 C 0.24089 0.34078 0.72156 0.0
C1814 C 0.25961 0.36848 0.70505 0.0
C1815 C 0.26682 0.37567 0.7223 0.0
C1816 C 0.26109 0.36529 0.73917 0.0
H1817 H 0.3408 0.47745 0.75865 0.0
H1818 H 0.31951 0.44664 0.75617 0.0
C1819 C 0.24825 0.348 0.73881 0.0
C1820 C 0.27965 0.39445 0.72274 0.0
H1821 H 0.32487 0.4158 0.73651 0.0
C1822 C 0.27215 0.41099 0.71621 0.0
C1823 C 0.29891 0.39615 0.73003 0.0
C1824 C 0.30784 0.37875 0.73668 0.0
C1825 C 0.28328 0.42931 0.71721 0.0
C1826 C 0.30255 0.43104 0.72455 0.0
C1827 C 0.31009 0.41444 0.73092 0.0
C1828 C 0.31511 0.44993 0.72593 0.0
C1829 C 0.2741 0.44666 0.71093 0.0
C1830 C 0.3198 0.46194 0.70972 0.0
C1831 C 0.33187 0.47962 0.7111 0.0
C1832 C 0.33965 0.48551 0.7287 0.0
C1833 C 0.33502 0.47337 0.74489 0.0
C1834 C 0.32288 0.45574 0.7435 0.0
H1835 H 0.25802 0.44325 0.71054 0.0
H1836 H 0.27864 0.45854 0.72041 0.0
H1837 H 0.27876 0.45177 0.6965 0.0
H1838 H 0.31431 0.45754 0.69597 0.0
H1839 H 0.33528 0.48854 0.69834 0.0
H1840 H 0.27407 0.69679 0.80775 0.0
H1841 H 0.29083 0.66925 0.80461 0.0
H1842 H 0.28446 0.67619 0.74411 0.0
H1843 H 0.26768 0.70366 0.74721 0.0
H1844 H 0.27616 0.63437 0.78498 0.0
H1845 H 0.34364 0.67593 0.75509 0.0
H1846 H 0.32684 0.68696 0.76764 0.0
H1847 H 0.32125 0.68058 0.74381 0.0
C1848 C 0.27626 0.69236 0.79382 0.0
C1849 C 0.26961 0.70227 0.77773 0.0
C1850 C 0.28579 0.67669 0.79203 0.0
C1851 C 0.28903 0.67085 0.77413 0.0
C1852 C 0.28231 0.68066 0.75804 0.0
H1853 H 0.34889 0.5826 0.7357 0.0
H1854 H 0.33106 0.60938 0.7379 0.0
C1855 C 0.27268 0.69626 0.75982 0.0
C1856 C 0.29925 0.65434 0.7723 0.0
H1857 H 0.34087 0.64214 0.75677 0.0
C1858 C 0.29033 0.63603 0.77886 0.0
C1859 C 0.31766 0.6566 0.7642 0.0
C1860 C 0.32805 0.67607 0.75738 0.0
C1861 C 0.29925 0.61981 0.77733 0.0
C1862 C 0.31781 0.62209 0.76945 0.0
C1863 C 0.32666 0.64042 0.76281 0.0
C1864 C 0.32839 0.60568 0.76817 0.0
C1865 C 0.28852 0.60036 0.78379 0.0
C1866 C 0.33304 0.59486 0.78447 0.0
C1867 C 0.34312 0.57949 0.78326 0.0
C1868 C 0.34898 0.57478 0.76572 0.0
C1869 C 0.34456 0.58583 0.74943 0.0
C1870 C 0.33438 0.60114 0.75065 0.0
H1871 H 0.27266 0.60035 0.78417 0.0
H1872 H 0.29112 0.58914 0.77443 0.0
H1873 H 0.29369 0.59647 0.79826 0.0
H1874 H 0.32901 0.5984 0.79819 0.0
H1875 H 0.34643 0.5714 0.79611 0.0
H1876 H 0.96024 0.50875 0.4828 0.0
H1877 H 0.93007 0.48569 0.48341 0.0
H1878 H 0.89743 0.53194 0.4873 0.0
H1879 H 0.92747 0.55512 0.48629 0.0
H1880 H 0.90272 0.48015 0.51271 0.0
H1881 H 0.86973 0.50132 0.44374 0.0
H1882 H 0.8952 0.50803 0.44956 0.0
H1883 H 0.87771 0.52068 0.45878 0.0
C1884 C 0.94661 0.51403 0.4835 0.0
C1885 C 0.94622 0.53375 0.48447 0.0
C1886 C 0.92942 0.50084 0.48396 0.0
C1887 C 0.91154 0.50715 0.48519 0.0
C1888 C 0.91107 0.52682 0.48606 0.0
H1889 H 0.79238 0.45052 0.49479 0.0
H1890 H 0.82236 0.47364 0.49206 0.0
C1891 C 0.92825 0.54001 0.48568 0.0
C1892 C 0.89343 0.49307 0.48639 0.0
H1893 H 0.84985 0.47911 0.46395 0.0
C1894 C 0.89119 0.47982 0.50202 0.0
C1895 C 0.87842 0.49281 0.47245 0.0
C1896 C 0.88036 0.50635 0.45509 0.0
C1897 C 0.87415 0.46648 0.50425 0.0
C1898 C 0.85914 0.46614 0.49027 0.0
C1899 C 0.86139 0.47941 0.47464 0.0
C1900 C 0.841 0.45209 0.49161 0.0
C1901 C 0.87217 0.45317 0.52179 0.0
C1902 C 0.84153 0.43233 0.49194 0.0
C1903 C 0.82446 0.41909 0.49355 0.0
C1904 C 0.8065 0.42537 0.49472 0.0
C1905 C 0.80597 0.44521 0.49399 0.0
C1906 C 0.82308 0.45844 0.49241 0.0
H1907 H 0.88249 0.45862 0.53323 0.0
H1908 H 0.85722 0.45121 0.52707 0.0
H1909 H 0.87535 0.43892 0.51844 0.0
H1910 H 0.85517 0.42714 0.49092 0.0
H1911 H 0.82536 0.40393 0.49392 0.0
H1912 H 0.80031 0.85931 0.80259 0.0
H1913 H 0.77866 0.88333 0.80027 0.0
H1914 H 0.73237 0.84116 0.8227 0.0
H1915 H 0.75389 0.81702 0.825 0.0
H1916 H 0.74411 0.88264 0.77969 0.0
H1917 H 0.73253 0.88614 0.85601 0.0
H1918 H 0.75168 0.87509 0.84735 0.0
H1919 H 0.72725 0.86238 0.8477 0.0
C1920 C 0.78551 0.85512 0.80699 0.0
C1921 C 0.77885 0.83625 0.81403 0.0
C1922 C 0.77318 0.86889 0.80573 0.0
C1923 C 0.75399 0.8641 0.81155 0.0
C1924 C 0.74725 0.84528 0.81853 0.0
H1925 H 0.66087 0.9296 0.78064 0.0
H1926 H 0.68157 0.90478 0.78484 0.0
C1927 C 0.75958 0.8315 0.81983 0.0
C1928 C 0.74087 0.87868 0.80972 0.0
H1929 H 0.71285 0.90263 0.83483 0.0
C1930 C 0.73729 0.88703 0.79174 0.0
C1931 C 0.73216 0.88453 0.8255 0.0
C1932 C 0.7362 0.87672 0.84526 0.0
C1933 C 0.72508 0.90096 0.78907 0.0
C1934 C 0.71595 0.90644 0.80478 0.0
C1935 C 0.7197 0.89824 0.82279 0.0
C1936 C 0.70292 0.92107 0.80285 0.0
C1937 C 0.72238 0.90998 0.76952 0.0
C1938 C 0.70773 0.93821 0.81206 0.0
C1939 C 0.69588 0.95238 0.80979 0.0
C1940 C 0.67892 0.94964 0.79831 0.0
C1941 C 0.67388 0.93223 0.78948 0.0
C1942 C 0.68575 0.91806 0.79178 0.0
H1943 H 0.73395 0.90775 0.76005 0.0
H1944 H 0.70826 0.90333 0.76335 0.0
H1945 H 0.72231 0.92563 0.76994 0.0
H1946 H 0.72087 0.94078 0.82075 0.0
H1947 H 0.70017 0.96558 0.81685 0.0
H1948 H 0.6145 0.4898 0.98463 0.0
H1949 H 0.64428 0.51202 0.99129 0.0
H1950 H 0.61327 0.55988 0.98162 0.0
H1951 H 0.58331 0.53775 0.97545 0.0
H1952 H 0.66331 0.54268 0.96777 0.0
H1953 H 0.6396 0.56804 0.03396 0.0
H1954 H 0.62726 0.54668 0.02345 0.0
H1955 H 0.62336 0.56997 0.01395 0.0
C1956 C 0.61398 0.50505 0.9841 0.0
C1957 C 0.59651 0.51201 0.97963 0.0
C1958 C 0.63102 0.51771 0.98779 0.0
C1959 C 0.63089 0.53754 0.9872 0.0
C1960 C 0.61359 0.54459 0.98244 0.0
H1961 H 0.71858 0.63622 0.00795 0.0
H1962 H 0.68886 0.61454 0.99999 0.0
C1963 C 0.59653 0.53194 0.97873 0.0
C1964 C 0.64894 0.55086 0.99141 0.0
H1965 H 0.6695 0.58393 0.02214 0.0
C1966 C 0.66472 0.55167 0.97967 0.0
C1967 C 0.65066 0.56256 0.00695 0.0
C1968 C 0.6344 0.56172 0.02043 0.0
C1969 C 0.68215 0.56412 0.9829 0.0
C1970 C 0.6839 0.57578 0.99848 0.0
C1971 C 0.66809 0.57499 0.01019 0.0
C1972 C 0.70205 0.58883 0.00298 0.0
C1973 C 0.69838 0.56497 0.96939 0.0
C1974 C 0.71926 0.58152 0.00749 0.0
C1975 C 0.73629 0.59386 0.01201 0.0
C1976 C 0.73636 0.61374 0.01225 0.0
C1977 C 0.71904 0.62099 0.00787 0.0
C1978 C 0.70203 0.60863 0.00333 0.0
H1979 H 0.69304 0.55911 0.95569 0.0
H1980 H 0.70587 0.57994 0.96673 0.0
H1981 H 0.70915 0.55626 0.97561 0.0
H1982 H 0.71949 0.56624 0.00769 0.0
H1983 H 0.74935 0.5878 0.01541 0.0
H1984 H 0.24523 0.69437 0.22953 0.0
H1985 H 0.22327 0.66415 0.23563 0.0
H1986 H 0.27224 0.63451 0.24593 0.0
H1987 H 0.29433 0.66467 0.23983 0.0
H1988 H 0.21994 0.63024 0.21712 0.0
H1989 H 0.24018 0.61844 0.29278 0.0
H1990 H 0.2468 0.64122 0.2798 0.0
H1991 H 0.26023 0.62196 0.27726 0.0
C1992 C 0.25133 0.6814 0.23301 0.0
C1993 C 0.27153 0.68192 0.23427 0.0
C1994 C 0.23877 0.66418 0.23657 0.0
C1995 C 0.24613 0.64716 0.24151 0.0
C1996 C 0.26626 0.64756 0.24257 0.0
H1997 H 0.19168 0.52914 0.26637 0.0
H1998 H 0.21456 0.55864 0.25966 0.0
C1999 C 0.27886 0.6648 0.23906 0.0
C2000 C 0.23269 0.62894 0.24514 0.0
H2001 H 0.21913 0.59314 0.27883 0.0
C2002 C 0.21971 0.62214 0.23062 0.0
C2003 C 0.23247 0.61841 0.26277 0.0
C2004 C 0.24553 0.62542 0.27912 0.0
C2005 C 0.20663 0.60497 0.23319 0.0
C2006 C 0.20637 0.5945 0.25083 0.0
C2007 C 0.21942 0.60121 0.26532 0.0
C2008 C 0.19245 0.57665 0.25464 0.0
C2009 C 0.19343 0.59802 0.21691 0.0
C2010 C 0.17246 0.57709 0.25423 0.0
C2011 C 0.15935 0.56029 0.25807 0.0
C2012 C 0.166 0.54275 0.26245 0.0
C2013 C 0.18607 0.5424 0.26297 0.0
C2014 C 0.19917 0.55923 0.25916 0.0
H2015 H 0.19872 0.60496 0.20322 0.0
H2016 H 0.19206 0.58221 0.21626 0.0
H2017 H 0.17879 0.60155 0.21888 0.0
H2018 H 0.16701 0.59047 0.25111 0.0
H2019 H 0.14401 0.56108 0.25765 0.0
H2020 H 0.95422 0.50793 0.02943 0.0
H2021 H 0.93021 0.52945 0.02413 0.0
H2022 H 0.9122 0.51718 0.08148 0.0
H2023 H 0.93579 0.49518 0.08676 0.0
H2024 H 0.88138 0.51533 0.05531 0.0
H2025 H 0.93305 0.58302 0.04382 0.0
H2026 H 0.93675 0.56441 0.02903 0.0
H2027 H 0.9404 0.56121 0.05413 0.0
C2028 C 0.94507 0.50971 0.04089 0.0
C2029 C 0.94696 0.49987 0.05854 0.0
C2030 C 0.93152 0.5222 0.0379 0.0
C2031 C 0.91965 0.52516 0.05251 0.0
C2032 C 0.92135 0.51523 0.07007 0.0
H2033 H 0.8463 0.61417 0.05105 0.0
H2034 H 0.87091 0.59366 0.0589 0.0
C2035 C 0.93491 0.50275 0.07309 0.0
C2036 C 0.90505 0.53816 0.04927 0.0
H2037 H 0.8998 0.58443 0.0362 0.0
C2038 C 0.8854 0.53046 0.05124 0.0
C2039 C 0.91036 0.55795 0.0442 0.0
C2040 C 0.93129 0.56722 0.04283 0.0
C2041 C 0.87087 0.54191 0.04778 0.0
C2042 C 0.87613 0.56152 0.04195 0.0
C2043 C 0.8958 0.56935 0.04048 0.0
C2044 C 0.86138 0.57406 0.03707 0.0
C2045 C 0.85001 0.53295 0.05054 0.0
C2046 C 0.8481 0.57001 0.022 0.0
C2047 C 0.83405 0.58168 0.01748 0.0
C2048 C 0.83306 0.5977 0.02789 0.0
C2049 C 0.84662 0.60191 0.04279 0.0
C2050 C 0.8607 0.59022 0.04729 0.0
H2051 H 0.84881 0.5195 0.05971 0.0
H2052 H 0.84184 0.54304 0.05686 0.0
H2053 H 0.84305 0.52935 0.03665 0.0
H2054 H 0.84862 0.55783 0.0137 0.0
H2055 H 0.82392 0.57806 0.00586 0.0
H2056 H 0.06703 0.98445 0.04464 0.0
H2057 H 0.09534 0.96916 0.03949 0.0
H2058 H 0.1088 0.00741 0.99037 0.0
H2059 H 0.08061 0.02281 0.99562 0.0
H2060 H 0.10291 0.9506 0.0073 0.0
H2061 H 0.16031 0.01262 0.02088 0.0
H2062 H 0.1356 0.01154 0.02781 0.0
H2063 H 0.14199 0.0177 0.00372 0.0
C2064 C 0.07606 0.98953 0.03275 0.0
C2065 C 0.07156 0.00456 0.02033 0.0
C2066 C 0.09219 0.98084 0.02984 0.0
C2067 C 0.10424 0.98726 0.01464 0.0
C2068 C 0.09985 0.00242 0.00233 0.0
H2069 H 0.20632 0.95172 0.97149 0.0
H2070 H 0.17841 0.96731 0.97686 0.0
C2071 C 0.08371 0.01109 0.00523 0.0
C2072 C 0.12108 0.97772 0.01138 0.0
H2073 H 0.17038 0.98556 0.00863 0.0
C2074 C 0.11768 0.9582 0.00767 0.0
C2075 C 0.1403 0.98771 0.01182 0.0
C2076 C 0.14486 0.00851 0.01643 0.0
C2077 C 0.13297 0.94846 0.00408 0.0
C2078 C 0.15221 0.95843 0.00455 0.0
C2079 C 0.15561 0.97796 0.00825 0.0
C2080 C 0.16903 0.94885 0.00132 0.0
C2081 C 0.12837 0.92768 0.99938 0.0
C2082 C 0.17313 0.93344 0.01343 0.0
C2083 C 0.18903 0.92447 0.01039 0.0
C2084 C 0.20123 0.93083 0.99524 0.0
C2085 C 0.19719 0.94642 0.98325 0.0
C2086 C 0.18127 0.95536 0.9863 0.0
H2087 H 0.11297 0.92369 0.99473 0.0
H2088 H 0.13776 0.92462 0.98812 0.0
H2089 H 0.13099 0.91843 0.01212 0.0
H2090 H 0.16411 0.92844 0.02534 0.0
H2091 H 0.1918 0.9126 0.01997 0.0
loop_
_geom_bond_atom_site_label_1
_geom_bond_atom_site_label_2
_geom_bond_distance
_geom_bond_site_symmetry_2
_ccdc_geom_bond_type
H0 C7 0.929 . S
H1 C10 0.930 . S
H2 C12 0.929 . S
H3 C4 0.969 . S
C4 H3 0.969 . S
C4 O5 1.550 . S
C4 H6 0.973 . S
O5 C4 1.550 . S
O5 C11 1.412 . S
H6 C4 0.973 . S
C7 H0 0.929 . S
C7 C8 1.400 . S
C7 C9 1.364 . S
C8 C7 1.400 . S
C8 C12 1.377 . S
C9 C7 1.364 . S
C9 C10 1.374 . S
C10 H1 0.930 . S
C10 C9 1.374 . S
C10 C11 1.383 . S
C11 O5 1.412 . S
C11 C10 1.383 . S
C11 C12 1.394 . S
C12 H2 0.929 . S
C12 C8 1.377 . S
C12 C11 1.394 . S
H13 C20 0.929 . S
H14 C23 0.930 . S
H15 C25 0.929 . S
H16 C17 0.969 . S
C17 H16 0.969 . S
C17 O18 1.550 . S
C17 H19 0.973 . S
O18 C17 1.550 . S
O18 C24 1.412 . S
H19 C17 0.973 . S
C20 H13 0.929 . S
C20 C21 1.400 . S
C20 C22 1.364 . S
C21 C20 1.400 . S
C21 C25 1.377 . S
C22 C20 1.364 . S
C22 C23 1.374 . S
C23 H14 0.930 . S
C23 C22 1.374 . S
C23 C24 1.383 . S
C24 O18 1.412 . S
C24 C23 1.383 . S
C24 C25 1.394 . S
C25 H15 0.929 . S
C25 C21 1.377 . S
C25 C24 1.394 . S
H26 C33 0.929 . S
H27 C36 0.930 . S
H28 C38 0.934 . S
H29 C30 0.969 . S
C30 H29 0.969 . S
C30 O31 1.550 . S
C30 H32 0.973 . S
O31 C30 1.550 . S
O31 C37 1.412 . S
H32 C30 0.973 . S
C33 H26 0.929 . S
C33 C34 1.400 . S
C33 C35 1.364 . S
C34 C33 1.400 . S
C34 C38 1.377 . S
C35 C33 1.364 . S
C35 C36 1.374 . S
C36 H27 0.930 . S
C36 C35 1.374 . S
C36 C37 1.383 . S
C37 O31 1.412 . S
C37 C36 1.383 . S
C37 C38 1.394 . S
C38 H28 0.934 . S
C38 C34 1.377 . S
C38 C37 1.394 . S
H39 C46 0.929 . S
H40 C49 0.930 . S
H41 C51 0.929 . S
H42 C43 0.969 . S
C43 H42 0.969 . S
C43 O44 1.550 . S
C43 H45 0.973 . S
O44 C43 1.550 . S
O44 C50 1.412 . S
H45 C43 0.973 . S
C46 H39 0.929 . S
C46 C47 1.400 . S
C46 C48 1.364 . S
C47 C46 1.400 . S
C47 C51 1.377 . S
C48 C46 1.364 . S
C48 C49 1.374 . S
C49 H40 0.930 . S
C49 C48 1.374 . S
C49 C50 1.383 . S
C50 O44 1.412 . S
C50 C49 1.383 . S
C50 C51 1.394 . S
C51 H41 0.929 . S
C51 C47 1.377 . S
C51 C50 1.394 . S
H52 C59 0.929 . S
H53 C62 0.930 . S
H54 C64 0.925 1_545 S
H55 C56 0.969 . S
C56 H55 0.969 . S
C56 O57 1.550 . S
C56 H58 0.973 . S
O57 C56 1.550 . S
O57 C63 1.412 . S
H58 C56 0.973 . S
C59 H52 0.929 . S
C59 C60 1.400 . S
C59 C61 1.364 . S
C60 C59 1.400 . S
C60 C64 1.378 . S
C61 C59 1.364 . S
C61 C62 1.374 . S
C62 H53 0.930 . S
C62 C61 1.374 . S
C62 C63 1.383 . S
C63 O57 1.412 . S
C63 C62 1.383 . S
C63 C64 1.397 . S
C64 H54 0.925 1_565 S
C64 C60 1.378 . S
C64 C63 1.397 . S
H65 C72 0.929 . S
H66 C75 0.930 . S
H67 C77 0.929 . S
H68 C69 0.969 . S
C69 H68 0.969 . S
C69 O70 1.550 . S
C69 H71 0.973 . S
O70 C69 1.550 . S
O70 C76 1.412 . S
H71 C69 0.973 . S
C72 H65 0.929 . S
C72 C73 1.400 . S
C72 C74 1.364 . S
C73 C72 1.400 . S
C73 C77 1.377 . S
C74 C72 1.364 . S
C74 C75 1.374 . S
C75 H66 0.930 . S
C75 C74 1.374 . S
C75 C76 1.383 . S
C76 O70 1.412 . S
C76 C75 1.383 . S
C76 C77 1.394 . S
C77 H67 0.929 . S
C77 C73 1.377 . S
C77 C76 1.394 . S
H78 C85 0.929 . S
H79 C88 0.930 . S
H80 C90 0.929 1_455 S
H81 C82 0.969 1_655 S
C82 H81 0.969 1_455 S
C82 O83 1.550 . S
C82 H84 0.973 1_455 S
O83 C82 1.550 . S
O83 C89 1.412 1_455 S
H84 C82 0.973 1_655 S
C85 H78 0.929 . S
C85 C86 1.400 . S
C85 C87 1.364 . S
C86 C85 1.400 . S
C86 C90 1.377 . S
C87 C85 1.364 . S
C87 C88 1.374 . S
C88 H79 0.930 . S
C88 C87 1.374 . S
C88 C89 1.383 . S
C89 O83 1.412 1_655 S
C89 C88 1.383 . S
C89 C90 1.394 . S
C90 H80 0.929 1_655 S
C90 C86 1.377 . S
C90 C89 1.394 . S
H91 C98 0.929 . S
H92 C101 0.930 . S
H93 C103 0.929 . S
H94 C95 0.969 . S
C95 H94 0.969 . S
C95 O96 1.550 . S
C95 H97 0.973 . S
O96 C95 1.550 . S
O96 C102 1.412 . S
H97 C95 0.973 . S
C98 H91 0.929 . S
C98 C99 1.400 . S
C98 C100 1.364 . S
C99 C98 1.400 . S
C99 C103 1.377 . S
C100 C98 1.364 . S
C100 C101 1.374 . S
C101 H92 0.930 . S
C101 C100 1.374 . S
C101 C102 1.383 . S
C102 O96 1.412 . S
C102 C101 1.383 . S
C102 C103 1.394 . S
C103 H93 0.929 . S
C103 C99 1.377 . S
C103 C102 1.394 . S
H104 C111 0.929 . S
H105 C114 0.930 . S
H106 C116 0.929 . S
H107 C108 0.969 . S
C108 H107 0.969 . S
C108 O109 1.550 . S
C108 H110 0.973 . S
O109 C108 1.550 . S
O109 C115 1.412 . S
H110 C108 0.973 . S
C111 H104 0.929 . S
C111 C112 1.400 . S
C111 C113 1.364 . S
C112 C111 1.400 . S
C112 C116 1.377 . S
C113 C111 1.364 . S
C113 C114 1.374 . S
C114 H105 0.930 . S
C114 C113 1.374 . S
C114 C115 1.383 . S
C115 O109 1.412 . S
C115 C114 1.383 . S
C115 C116 1.394 . S
C116 H106 0.929 . S
C116 C112 1.377 . S
C116 C115 1.394 . S
H117 C124 0.929 . S
H118 C127 0.930 . S
H119 C129 0.929 . S
H120 C121 0.969 . S
C121 H120 0.969 . S
C121 O122 1.550 . S
C121 H123 0.973 . S
O122 C121 1.550 . S
O122 C128 1.412 . S
H123 C121 0.973 . S
C124 H117 0.929 . S
C124 C125 1.400 . S
C124 C126 1.364 . S
C125 C124 1.400 . S
C125 C129 1.377 . S
C126 C124 1.364 . S
C126 C127 1.374 . S
C127 H118 0.930 . S
C127 C126 1.374 . S
C127 C128 1.383 . S
C128 O122 1.412 . S
C128 C127 1.383 . S
C128 C129 1.394 . S
C129 H119 0.929 . S
C129 C125 1.377 . S
C129 C128 1.394 . S
H130 C137 0.929 . S
H131 C140 0.930 . S
H132 C142 0.929 . S
H133 C134 0.969 . S
C134 H133 0.969 . S
C134 O135 1.550 . S
C134 H136 0.973 . S
O135 C134 1.550 . S
O135 C141 1.412 . S
H136 C134 0.973 . S
C137 H130 0.929 . S
C137 C138 1.400 . S
C137 C139 1.364 . S
C138 C137 1.400 . S
C138 C142 1.377 . S
C139 C137 1.364 . S
C139 C140 1.374 . S
C140 H131 0.930 . S
C140 C139 1.374 . S
C140 C141 1.383 . S
C141 O135 1.412 . S
C141 C140 1.383 . S
C141 C142 1.394 . S
C142 H132 0.929 . S
C142 C138 1.377 . S
C142 C141 1.394 . S
H143 C150 0.929 . S
H144 C153 0.930 . S
H145 C155 0.929 . S
H146 C147 0.969 . S
C147 H146 0.969 . S
C147 O148 1.550 . S
C147 H149 0.973 . S
O148 C147 1.550 . S
O148 C154 1.412 . S
H149 C147 0.973 . S
C150 H143 0.929 . S
C150 C151 1.400 . S
C150 C152 1.364 . S
C151 C150 1.400 . S
C151 C155 1.377 . S
C152 C150 1.364 . S
C152 C153 1.374 . S
C153 H144 0.930 . S
C153 C152 1.374 . S
C153 C154 1.383 . S
C154 O148 1.412 . S
C154 C153 1.383 . S
C154 C155 1.394 . S
C155 H145 0.929 . S
C155 C151 1.377 . S
C155 C154 1.394 . S
H156 C163 0.929 . S
H157 C166 0.930 . S
H158 C168 0.929 . S
H159 C160 0.969 . S
C160 H159 0.969 . S
C160 O161 1.550 . S
C160 H162 0.973 . S
O161 C160 1.550 . S
O161 C167 1.412 . S
H162 C160 0.973 . S
C163 H156 0.929 . S
C163 C164 1.400 . S
C163 C165 1.364 . S
C164 C163 1.400 . S
C164 C168 1.377 . S
C165 C163 1.364 . S
C165 C166 1.374 . S
C166 H157 0.930 . S
C166 C165 1.374 . S
C166 C167 1.383 . S
C167 O161 1.412 . S
C167 C166 1.383 . S
C167 C168 1.394 . S
C168 H158 0.929 . S
C168 C164 1.377 . S
C168 C167 1.394 . S
H169 C176 0.929 . S
H170 C179 0.930 . S
H171 C181 0.929 . S
H172 C173 0.969 . S
C173 H172 0.969 . S
C173 O174 1.550 . S
C173 H175 0.973 . S
O174 C173 1.550 . S
O174 C180 1.412 . S
H175 C173 0.973 . S
C176 H169 0.929 . S
C176 C177 1.400 . S
C176 C178 1.364 . S
C177 C176 1.400 . S
C177 C181 1.377 . S
C178 C176 1.364 . S
C178 C179 1.374 . S
C179 H170 0.930 . S
C179 C178 1.374 . S
C179 C180 1.383 . S
C180 O174 1.412 . S
C180 C179 1.383 . S
C180 C181 1.394 . S
C181 H171 0.929 . S
C181 C177 1.377 . S
C181 C180 1.394 . S
H182 C189 0.929 . S
H183 C192 0.930 . S
H184 C194 0.929 . S
H185 C186 0.969 . S
C186 H185 0.969 . S
C186 O187 1.550 . S
C186 H188 0.973 . S
O187 C186 1.550 . S
O187 C193 1.412 . S
H188 C186 0.973 . S
C189 H182 0.929 . S
C189 C190 1.400 . S
C189 C191 1.364 . S
C190 C189 1.400 . S
C190 C194 1.377 . S
C191 C189 1.364 . S
C191 C192 1.374 . S
C192 H183 0.930 . S
C192 C191 1.374 . S
C192 C193 1.383 . S
C193 O187 1.412 . S
C193 C192 1.383 . S
C193 C194 1.394 . S
C194 H184 0.929 . S
C194 C190 1.377 . S
C194 C193 1.394 . S
H195 C202 0.929 1_554 S
H196 C205 0.930 . S
H197 C207 0.929 . S
H198 C199 0.969 . S
C199 H198 0.969 . S
C199 O200 1.550 . S
C199 H201 0.973 . S
O200 C199 1.550 . S
O200 C206 1.412 . S
H201 C199 0.973 . S
C202 H195 0.929 1_556 S
C202 C203 1.400 . S
C202 C204 1.364 . S
C203 C202 1.400 . S
C203 C207 1.377 . S
C204 C202 1.364 . S
C204 C205 1.374 . S
C205 H196 0.930 . S
C205 C204 1.374 . S
C205 C206 1.383 . S
C206 O200 1.412 . S
C206 C205 1.383 . S
C206 C207 1.394 . S
C207 H197 0.929 . S
C207 C203 1.377 . S
C207 C206 1.394 . S
C208 O209 1.188 . S
C208 O215 1.166 1_556 S
O209 C208 1.188 . S
O210 Zn211 1.899 1_556 S
O210 C218 1.284 . S
Zn211 O210 1.899 1_554 S
Zn211 O212 2.032 1_554 S
Zn211 O215 2.086 . S
Zn211 O220 1.977 . S
O212 Zn211 2.032 1_556 S
O212 C216 1.280 . S
C213 O214 1.203 . S
C213 O220 1.267 . S
O214 C213 1.203 . S
O215 C208 1.166 1_554 S
O215 Zn211 2.086 . S
C216 O212 1.280 . S
C216 O217 1.205 1_556 S
O217 C216 1.205 1_554 S
C218 O210 1.284 . S
C218 O219 1.273 . S
O219 C218 1.273 . S
O220 Zn211 1.977 . S
O220 C213 1.267 . S
C221 O222 1.160 . S
C221 O228 1.185 . S
O222 C221 1.160 . S
O223 Zn224 1.899 . S
O223 C231 1.284 . S
Zn224 O223 1.899 . S
Zn224 O225 2.032 . S
Zn224 O228 2.086 . S
Zn224 O233 1.977 . S
O225 Zn224 2.032 . S
O225 C229 1.278 . S
C226 O227 1.203 . S
C226 O233 1.267 . S
O227 C226 1.203 . S
O228 C221 1.185 . S
O228 Zn224 2.086 . S
C229 O225 1.278 . S
C229 O230 1.211 . S
O230 C229 1.211 . S
C231 O223 1.284 . S
C231 O232 1.273 . S
O232 C231 1.273 . S
O233 Zn224 1.977 . S
O233 C226 1.267 . S
C234 O235 1.160 . S
C234 O241 1.185 . S
O235 C234 1.160 . S
O236 Zn237 1.899 . S
O236 C244 1.284 . S
Zn237 O236 1.899 . S
Zn237 O238 2.032 . S
Zn237 O241 2.086 . S
Zn237 O246 1.977 . S
O238 Zn237 2.032 . S
O238 C242 1.278 . S
C239 O240 1.203 . S
C239 O246 1.267 . S
O240 C239 1.203 . S
O241 C234 1.185 . S
O241 Zn237 2.086 . S
C242 O238 1.278 . S
C242 O243 1.211 . S
O243 C242 1.211 . S
C244 O236 1.284 . S
C244 O245 1.274 . S
O245 C244 1.274 . S
O246 Zn237 1.977 . S
O246 C239 1.267 . S
C247 O248 1.160 . S
C247 O254 1.185 . S
O248 C247 1.160 . S
O249 Zn250 1.899 . S
O249 C257 1.284 . S
Zn250 O249 1.899 . S
Zn250 O251 2.032 . S
Zn250 O254 2.086 . S
Zn250 O259 1.977 . S
O251 Zn250 2.032 . S
O251 C255 1.278 1_545 S
C252 O253 1.203 . S
C252 O259 1.267 . S
O253 C252 1.203 . S
O254 C247 1.185 . S
O254 Zn250 2.086 . S
C255 O251 1.278 1_565 S
C255 O256 1.211 . S
O256 C255 1.211 . S
C257 O249 1.284 . S
C257 O258 1.273 . S
O258 C257 1.273 . S
O259 Zn250 1.977 . S
O259 C252 1.267 . S
C260 O261 1.160 . S
C260 O267 1.185 . S
O261 C260 1.160 . S
O262 Zn263 1.899 . S
O262 C270 1.284 . S
Zn263 O262 1.899 . S
Zn263 O264 2.032 . S
Zn263 O267 2.086 . S
Zn263 O272 1.977 . S
O264 Zn263 2.032 . S
O264 C268 1.278 . S
C265 O266 1.203 . S
C265 O272 1.267 . S
O266 C265 1.203 . S
O267 C260 1.185 . S
O267 Zn263 2.086 . S
C268 O264 1.278 . S
C268 O269 1.211 . S
O269 C268 1.211 . S
C270 O262 1.284 . S
C270 O271 1.273 . S
O271 C270 1.273 . S
O272 Zn263 1.977 . S
O272 C265 1.267 . S
C273 O274 1.160 . S
C273 O280 1.185 . S
O274 C273 1.160 . S
O275 Zn276 1.899 . S
O275 C283 1.284 . S
Zn276 O275 1.899 . S
Zn276 O277 2.032 . S
Zn276 O280 2.086 . S
Zn276 O285 1.977 . S
O277 Zn276 2.032 . S
O277 C281 1.278 . S
C278 O279 1.203 . S
C278 O285 1.267 . S
O279 C278 1.203 . S
O280 C273 1.185 . S
O280 Zn276 2.086 . S
C281 O277 1.278 . S
C281 O282 1.211 . S
O282 C281 1.211 . S
C283 O275 1.284 . S
C283 O284 1.273 . S
O284 C283 1.273 . S
O285 Zn276 1.977 . S
O285 C278 1.267 . S
C286 O287 1.160 . S
C286 O293 1.185 . S
O287 C286 1.160 . S
O288 Zn289 1.899 . S
O288 C296 1.284 . S
Zn289 O288 1.899 . S
Zn289 O290 2.032 . S
Zn289 O293 2.086 . S
Zn289 O298 1.977 . S
O290 Zn289 2.032 . S
O290 C294 1.278 . S
C291 O292 1.203 . S
C291 O298 1.267 . S
O292 C291 1.203 . S
O293 C286 1.185 . S
O293 Zn289 2.086 . S
C294 O290 1.278 . S
C294 O295 1.211 . S
O295 C294 1.211 . S
C296 O288 1.284 . S
C296 O297 1.273 . S
O297 C296 1.273 . S
O298 Zn289 1.977 . S
O298 C291 1.267 . S
C299 O300 1.160 . S
C299 O306 1.185 . S
O300 C299 1.160 . S
O301 Zn302 1.899 . S
O301 C309 1.284 1_565 S
Zn302 O301 1.899 . S
Zn302 O303 2.032 1_565 S
Zn302 O306 2.086 . S
Zn302 O311 1.977 . S
O303 Zn302 2.032 1_545 S
O303 C307 1.278 . S
C304 O305 1.203 1_565 S
C304 O311 1.267 . S
O305 C304 1.203 1_545 S
O306 C299 1.185 . S
O306 Zn302 2.086 . S
C307 O303 1.278 . S
C307 O308 1.211 . S
O308 C307 1.211 . S
C309 O301 1.284 1_545 S
C309 O310 1.273 . S
O310 C309 1.273 . S
O311 Zn302 1.977 . S
O311 C304 1.267 . S
C312 O313 1.160 . S
C312 O319 1.185 1_655 S
O313 C312 1.160 . S
O314 Zn315 1.899 1_655 S
O314 C322 1.284 . S
Zn315 O314 1.899 1_455 S
Zn315 O316 2.032 1_455 S
Zn315 O319 2.086 . S
Zn315 O324 1.977 . S
O316 Zn315 2.032 1_655 S
O316 C320 1.278 1_655 S
C317 O318 1.203 . S
C317 O324 1.267 . S
O318 C317 1.203 . S
O319 C312 1.185 1_455 S
O319 Zn315 2.086 . S
C320 O316 1.278 1_455 S
C320 O321 1.211 . S
O321 C320 1.211 . S
C322 O314 1.284 . S
C322 O323 1.273 . S
O323 C322 1.273 . S
O324 Zn315 1.977 . S
O324 C317 1.267 . S
C325 O326 1.160 . S
C325 O332 1.185 . S
O326 C325 1.160 . S
O327 Zn328 1.899 . S
O327 C335 1.284 . S
Zn328 O327 1.899 . S
Zn328 O329 2.032 . S
Zn328 O332 2.086 . S
Zn328 O337 1.977 . S
O329 Zn328 2.032 . S
O329 C333 1.278 . S
C330 O331 1.203 . S
C330 O337 1.267 . S
O331 C330 1.203 . S
O332 C325 1.185 . S
O332 Zn328 2.086 . S
C333 O329 1.278 . S
C333 O334 1.211 . S
O334 C333 1.211 . S
C335 O327 1.284 . S
C335 O336 1.273 . S
O336 C335 1.273 . S
O337 Zn328 1.977 . S
O337 C330 1.267 . S
C338 O339 1.160 . S
C338 O345 1.185 . S
O339 C338 1.160 . S
O340 Zn341 1.899 . S
O340 C348 1.284 1_455 S
Zn341 O340 1.899 . S
Zn341 O342 2.032 . S
Zn341 O345 2.086 . S
Zn341 O350 1.977 . S
O342 Zn341 2.032 . S
O342 C346 1.278 . S
C343 O344 1.203 . S
C343 O350 1.267 . S
O344 C343 1.203 . S
O345 C338 1.185 . S
O345 Zn341 2.086 . S
C346 O342 1.278 . S
C346 O347 1.211 . S
O347 C346 1.211 . S
C348 O340 1.284 1_655 S
C348 O349 1.273 . S
O349 C348 1.273 . S
O350 Zn341 1.977 . S
O350 C343 1.267 . S
C351 O352 1.160 . S
C351 O358 1.185 . S
O352 C351 1.160 . S
O353 Zn354 1.899 . S
O353 C361 1.284 . S
Zn354 O353 1.899 . S
Zn354 O355 2.032 . S
Zn354 O358 2.086 . S
Zn354 O363 1.977 . S
O355 Zn354 2.032 . S
O355 C359 1.278 . S
C356 O357 1.203 . S
C356 O363 1.267 . S
O357 C356 1.203 . S
O358 C351 1.185 . S
O358 Zn354 2.086 . S
C359 O355 1.278 . S
C359 O360 1.211 . S
O360 C359 1.211 . S
C361 O353 1.284 . S
C361 O362 1.273 . S
O362 C361 1.273 . S
O363 Zn354 1.977 . S
O363 C356 1.267 . S
H364 C372 0.929 . S
H365 C374 0.930 . S
H366 C376 0.930 . S
H367 C379 0.929 . S
H368 C382 0.930 . S
H369 C384 0.960 . S
H370 C384 0.960 . S
H371 C384 0.960 . S
C372 H364 0.929 . S
C372 C373 1.377 . S
C372 C374 1.384 . S
C373 C372 1.377 . S
C373 C379 1.390 . S
C374 H365 0.930 . S
C374 C372 1.384 . S
C374 C375 1.372 . S
C375 C374 1.372 . S
C375 C376 1.400 . S
C375 C380 1.490 . S
C376 H366 0.930 . S
C376 C375 1.400 . S
C376 C379 1.386 . S
H377 C393 0.930 . S
H378 C394 0.931 . S
C379 H367 0.929 . S
C379 C373 1.390 . S
C379 C376 1.386 . S
C380 C375 1.490 . S
C380 C382 1.395 . S
C380 C383 1.403 . S
H381 C387 0.930 . S
C382 H368 0.930 . S
C382 C380 1.395 . S
C382 C385 1.403 . S
C383 C380 1.403 . S
C383 C384 1.524 . S
C383 C387 1.400 . S
C384 H369 0.960 . S
C384 H370 0.960 . S
C384 H371 0.960 . S
C384 C383 1.524 . S
C385 C382 1.403 . S
C385 C386 1.392 . S
C385 C389 1.495 . S
C386 C385 1.392 . S
C386 C387 1.385 . S
C386 C388 1.478 . S
C387 H381 0.930 . S
C387 C383 1.400 . S
C387 C386 1.385 . S
C388 C386 1.478 . S
C388 C390 1.381 . S
C388 C394 1.383 . S
C389 C385 1.495 . S
C389 H395 0.959 . S
C389 H396 0.961 . S
C389 H397 0.960 . S
C390 C388 1.381 . S
C390 C391 1.394 . S
C390 H398 0.930 . S
C391 C390 1.394 . S
C391 C392 1.383 . S
C391 H399 0.929 . S
C392 C391 1.383 . S
C392 C393 1.377 . S
C393 H377 0.930 . S
C393 C392 1.377 . S
C393 C394 1.379 . S
C394 H378 0.931 . S
C394 C388 1.383 . S
C394 C393 1.379 . S
H395 C389 0.959 . S
H396 C389 0.961 . S
H397 C389 0.960 . S
H398 C390 0.930 . S
H399 C391 0.929 . S
H400 C408 0.929 . S
H401 C410 0.930 . S
H402 C412 0.930 . S
H403 C415 0.929 . S
H404 C418 0.930 . S
H405 C420 0.960 . S
H406 C420 0.960 . S
H407 C420 0.960 . S
C408 H400 0.929 . S
C408 C409 1.377 . S
C408 C410 1.384 . S
C409 C408 1.377 . S
C409 C415 1.390 . S
C410 H401 0.930 . S
C410 C408 1.384 . S
C410 C411 1.372 . S
C411 C410 1.372 . S
C411 C412 1.400 . S
C411 C416 1.490 . S
C412 H402 0.930 . S
C412 C411 1.400 . S
C412 C415 1.386 . S
H413 C429 0.930 . S
H414 C430 0.931 . S
C415 H403 0.929 . S
C415 C409 1.390 . S
C415 C412 1.386 . S
C416 C411 1.490 . S
C416 C418 1.395 . S
C416 C419 1.403 . S
H417 C423 0.930 . S
C418 H404 0.930 . S
C418 C416 1.395 . S
C418 C421 1.403 . S
C419 C416 1.403 . S
C419 C420 1.524 . S
C419 C423 1.400 . S
C420 H405 0.960 . S
C420 H406 0.960 . S
C420 H407 0.960 . S
C420 C419 1.524 . S
C421 C418 1.403 . S
C421 C422 1.392 . S
C421 C425 1.495 . S
C422 C421 1.392 . S
C422 C423 1.385 . S
C422 C424 1.478 . S
C423 H417 0.930 . S
C423 C419 1.400 . S
C423 C422 1.385 . S
C424 C422 1.478 . S
C424 C426 1.381 . S
C424 C430 1.383 . S
C425 C421 1.495 . S
C425 H431 0.959 . S
C425 H432 0.961 . S
C425 H433 0.960 . S
C426 C424 1.381 . S
C426 C427 1.394 . S
C426 H434 0.930 . S
C427 C426 1.394 . S
C427 C428 1.383 . S
C427 H435 0.929 . S
C428 C427 1.383 . S
C428 C429 1.377 . S
C429 H413 0.930 . S
C429 C428 1.377 . S
C429 C430 1.379 . S
C430 H414 0.931 . S
C430 C424 1.383 . S
C430 C429 1.379 . S
H431 C425 0.959 . S
H432 C425 0.961 . S
H433 C425 0.960 . S
H434 C426 0.930 . S
H435 C427 0.929 . S
H436 C444 0.929 . S
H437 C446 0.930 . S
H438 C448 0.930 . S
H439 C451 0.929 . S
H440 C454 0.930 . S
H441 C456 0.960 . S
H442 C456 0.960 . S
H443 C456 0.960 . S
C444 H436 0.929 . S
C444 C445 1.377 . S
C444 C446 1.384 . S
C445 C444 1.377 . S
C445 C451 1.390 . S
C446 H437 0.930 . S
C446 C444 1.384 . S
C446 C447 1.372 . S
C447 C446 1.372 . S
C447 C448 1.400 . S
C447 C452 1.490 . S
C448 H438 0.930 . S
C448 C447 1.400 . S
C448 C451 1.386 . S
H449 C465 0.930 . S
H450 C466 0.931 . S
C451 H439 0.929 . S
C451 C445 1.390 . S
C451 C448 1.386 . S
C452 C447 1.490 . S
C452 C454 1.395 . S
C452 C455 1.403 . S
H453 C459 0.930 . S
C454 H440 0.930 . S
C454 C452 1.395 . S
C454 C457 1.403 . S
C455 C452 1.403 . S
C455 C456 1.524 . S
C455 C459 1.400 . S
C456 H441 0.960 . S
C456 H442 0.960 . S
C456 H443 0.960 . S
C456 C455 1.524 . S
C457 C454 1.403 . S
C457 C458 1.392 . S
C457 C461 1.495 . S
C458 C457 1.392 . S
C458 C459 1.385 . S
C458 C460 1.478 . S
C459 H453 0.930 . S
C459 C455 1.400 . S
C459 C458 1.385 . S
C460 C458 1.478 . S
C460 C462 1.381 . S
C460 C466 1.383 . S
C461 C457 1.495 . S
C461 H467 0.959 . S
C461 H468 0.961 . S
C461 H469 0.960 . S
C462 C460 1.381 . S
C462 C463 1.394 . S
C462 H470 0.930 . S
C463 C462 1.394 . S
C463 C464 1.383 . S
C463 H471 0.929 . S
C464 C463 1.383 . S
C464 C465 1.377 . S
C465 H449 0.930 . S
C465 C464 1.377 . S
C465 C466 1.379 . S
C466 H450 0.931 . S
C466 C460 1.383 . S
C466 C465 1.379 . S
H467 C461 0.959 . S
H468 C461 0.961 . S
H469 C461 0.960 . S
H470 C462 0.930 . S
H471 C463 0.929 . S
H472 C480 0.929 . S
H473 C482 0.930 . S
H474 C484 0.930 . S
H475 C487 0.929 . S
H476 C490 0.930 . S
H477 C492 0.960 . S
H478 C492 0.960 . S
H479 C492 0.960 1_455 S
C480 H472 0.929 . S
C480 C481 1.377 1_655 S
C480 C482 1.384 . S
C481 C480 1.377 1_455 S
C481 C487 1.390 1_565 S
C482 H473 0.930 . S
C482 C480 1.384 . S
C482 C483 1.372 . S
C483 C482 1.372 . S
C483 C484 1.400 1_665 S
C483 C488 1.490 1_565 S
C484 H474 0.930 . S
C484 C483 1.400 1_445 S
C484 C487 1.386 . S
H485 C501 0.930 . S
H486 C502 0.931 . S
C487 H475 0.929 . S
C487 C481 1.390 1_545 S
C487 C484 1.386 . S
C488 C483 1.490 1_545 S
C488 C490 1.395 . S
C488 C491 1.403 1_545 S
H489 C495 0.930 . S
C490 H476 0.930 . S
C490 C488 1.395 . S
C490 C493 1.403 . S
C491 C488 1.403 1_565 S
C491 C492 1.524 . S
C491 C495 1.400 1_565 S
C492 H477 0.960 . S
C492 H478 0.960 . S
C492 H479 0.960 1_655 S
C492 C491 1.524 . S
C493 C490 1.403 . S
C493 C494 1.392 . S
C493 C497 1.495 . S
C494 C493 1.392 . S
C494 C495 1.385 . S
C494 C496 1.478 . S
C495 H489 0.930 . S
C495 C491 1.400 1_545 S
C495 C494 1.385 . S
C496 C494 1.478 . S
C496 C498 1.381 . S
C496 C502 1.383 . S
C497 C493 1.495 . S
C497 H503 0.959 . S
C497 H504 0.961 . S
C497 H505 0.960 . S
C498 C496 1.381 . S
C498 C499 1.394 . S
C498 H506 0.930 1_545 S
C499 C498 1.394 . S
C499 C500 1.383 . S
C499 H507 0.951 . S
C500 C499 1.383 . S
C500 C501 1.377 . S
C501 H485 0.930 . S
C501 C500 1.377 . S
C501 C502 1.379 . S
C502 H486 0.931 . S
C502 C496 1.383 . S
C502 C501 1.379 . S
H503 C497 0.959 . S
H504 C497 0.961 . S
H505 C497 0.960 . S
H506 C498 0.930 1_565 S
H507 C499 0.951 . S
H508 C516 0.929 . S
H509 C518 0.930 . S
H510 C520 0.930 . S
H511 C523 0.929 . S
H512 C526 0.930 . S
H513 C528 0.960 . S
H514 C528 0.960 . S
H515 C528 0.960 . S
C516 H508 0.929 . S
C516 C517 1.377 . S
C516 C518 1.384 . S
C517 C516 1.377 . S
C517 C523 1.390 . S
C518 H509 0.930 . S
C518 C516 1.384 . S
C518 C519 1.372 . S
C519 C518 1.372 . S
C519 C520 1.400 . S
C519 C524 1.490 . S
C520 H510 0.930 . S
C520 C519 1.400 . S
C520 C523 1.386 . S
H521 C537 0.930 . S
H522 C538 0.931 . S
C523 H511 0.929 . S
C523 C517 1.390 . S
C523 C520 1.386 . S
C524 C519 1.490 . S
C524 C526 1.395 . S
C524 C527 1.403 . S
H525 C531 0.930 . S
C526 H512 0.930 . S
C526 C524 1.395 . S
C526 C529 1.403 . S
C527 C524 1.403 . S
C527 C528 1.524 . S
C527 C531 1.400 . S
C528 H513 0.960 . S
C528 H514 0.960 . S
C528 H515 0.960 . S
C528 C527 1.524 . S
C529 C526 1.403 . S
C529 C530 1.392 . S
C529 C533 1.495 . S
C530 C529 1.392 . S
C530 C531 1.385 . S
C530 C532 1.478 . S
C531 H525 0.930 . S
C531 C527 1.400 . S
C531 C530 1.385 . S
C532 C530 1.478 . S
C532 C534 1.381 . S
C532 C538 1.383 . S
C533 C529 1.495 . S
C533 H539 0.959 . S
C533 H540 0.961 . S
C533 H541 0.960 . S
C534 C532 1.381 . S
C534 C535 1.394 . S
C534 H542 0.930 . S
C535 C534 1.394 . S
C535 C536 1.383 . S
C535 H543 0.929 . S
C536 C535 1.383 . S
C536 C537 1.377 . S
C537 H521 0.930 . S
C537 C536 1.377 . S
C537 C538 1.379 . S
C538 H522 0.931 . S
C538 C532 1.383 . S
C538 C537 1.379 . S
H539 C533 0.959 . S
H540 C533 0.961 . S
H541 C533 0.960 . S
H542 C534 0.930 . S
H543 C535 0.929 . S
H544 C552 0.929 . S
H545 C554 0.930 . S
H546 C556 0.930 . S
H547 C559 0.929 . S
H548 C562 0.930 . S
H549 C564 0.960 . S
H550 C564 0.960 . S
H551 C564 0.960 . S
C552 H544 0.929 . S
C552 C553 1.377 . S
C552 C554 1.384 . S
C553 C552 1.377 . S
C553 C559 1.390 . S
C554 H545 0.930 . S
C554 C552 1.384 . S
C554 C555 1.372 . S
C555 C554 1.372 . S
C555 C556 1.400 . S
C555 C560 1.490 . S
C556 H546 0.930 . S
C556 C555 1.400 . S
C556 C559 1.386 . S
H557 C573 0.930 . S
H558 C574 0.931 . S
C559 H547 0.929 . S
C559 C553 1.390 . S
C559 C556 1.386 . S
C560 C555 1.490 . S
C560 C562 1.395 . S
C560 C563 1.403 . S
H561 C567 0.930 . S
C562 H548 0.930 . S
C562 C560 1.395 . S
C562 C565 1.403 . S
C563 C560 1.403 . S
C563 C564 1.524 . S
C563 C567 1.400 . S
C564 H549 0.960 . S
C564 H550 0.960 . S
C564 H551 0.960 . S
C564 C563 1.524 . S
C565 C562 1.403 . S
C565 C566 1.392 . S
C565 C569 1.495 . S
C566 C565 1.392 . S
C566 C567 1.385 . S
C566 C568 1.478 . S
C567 H561 0.930 . S
C567 C563 1.400 . S
C567 C566 1.385 . S
C568 C566 1.478 . S
C568 C570 1.381 . S
C568 C574 1.383 . S
C569 C565 1.495 . S
C569 H575 0.959 . S
C569 H576 0.961 . S
C569 H577 0.960 . S
C570 C568 1.381 . S
C570 C571 1.394 . S
C570 H578 0.930 . S
C571 C570 1.394 . S
C571 C572 1.383 . S
C571 H579 0.929 . S
C572 C571 1.383 . S
C572 C573 1.377 . S
C573 H557 0.930 . S
C573 C572 1.377 . S
C573 C574 1.379 . S
C574 H558 0.931 . S
C574 C568 1.383 . S
C574 C573 1.379 . S
H575 C569 0.959 . S
H576 C569 0.961 . S
H577 C569 0.960 . S
H578 C570 0.930 . S
H579 C571 0.929 . S
H580 C588 0.929 . S
H581 C590 0.930 . S
H582 C592 0.930 . S
H583 C595 0.929 . S
H584 C598 0.930 . S
H585 C600 0.960 . S
H586 C600 0.960 . S
H587 C600 0.960 . S
C588 H580 0.929 . S
C588 C589 1.377 . S
C588 C590 1.384 . S
C589 C588 1.377 . S
C589 C595 1.390 . S
C590 H581 0.930 . S
C590 C588 1.384 . S
C590 C591 1.372 . S
C591 C590 1.372 . S
C591 C592 1.400 . S
C591 C596 1.490 . S
C592 H582 0.930 . S
C592 C591 1.400 . S
C592 C595 1.386 . S
H593 C609 0.930 . S
H594 C610 0.931 . S
C595 H583 0.929 . S
C595 C589 1.390 . S
C595 C592 1.386 . S
C596 C591 1.490 . S
C596 C598 1.395 . S
C596 C599 1.403 . S
H597 C603 0.930 . S
C598 H584 0.930 . S
C598 C596 1.395 . S
C598 C601 1.403 . S
C599 C596 1.403 . S
C599 C600 1.524 . S
C599 C603 1.400 . S
C600 H585 0.960 . S
C600 H586 0.960 . S
C600 H587 0.960 . S
C600 C599 1.524 . S
C601 C598 1.403 . S
C601 C602 1.392 . S
C601 C605 1.495 . S
C602 C601 1.392 . S
C602 C603 1.385 . S
C602 C604 1.478 . S
C603 H597 0.930 . S
C603 C599 1.400 . S
C603 C602 1.385 . S
C604 C602 1.478 . S
C604 C606 1.381 . S
C604 C610 1.383 . S
C605 C601 1.495 . S
C605 H611 0.959 . S
C605 H612 0.961 . S
C605 H613 0.960 . S
C606 C604 1.381 . S
C606 C607 1.394 . S
C606 H614 0.930 . S
C607 C606 1.394 . S
C607 C608 1.383 . S
C607 H615 0.929 . S
C608 C607 1.383 . S
C608 C609 1.377 . S
C609 H593 0.930 . S
C609 C608 1.377 . S
C609 C610 1.379 . S
C610 H594 0.931 . S
C610 C604 1.383 . S
C610 C609 1.379 . S
H611 C605 0.959 . S
H612 C605 0.961 . S
H613 C605 0.960 . S
H614 C606 0.930 . S
H615 C607 0.929 . S
H616 C624 0.929 . S
H617 C626 0.930 . S
H618 C628 0.930 . S
H619 C631 0.929 . S
H620 C634 0.930 . S
H621 C636 0.949 1_545 S
H622 C636 0.932 1_545 S
H623 C636 0.987 . S
C624 H616 0.929 . S
C624 C625 1.377 . S
C624 C626 1.384 . S
C625 C624 1.377 . S
C625 C631 1.390 . S
C626 H617 0.930 . S
C626 C624 1.384 . S
C626 C627 1.372 . S
C627 C626 1.372 . S
C627 C628 1.400 . S
C627 C632 1.490 . S
C628 H618 0.930 . S
C628 C627 1.400 . S
C628 C631 1.386 . S
H629 C645 0.930 . S
H630 C646 0.931 . S
C631 H619 0.929 . S
C631 C625 1.390 . S
C631 C628 1.386 . S
C632 C627 1.490 . S
C632 C634 1.395 . S
C632 C635 1.403 . S
H633 C639 0.930 . S
C634 H620 0.930 . S
C634 C632 1.395 . S
C634 C637 1.403 . S
C635 C632 1.403 . S
C635 C636 1.538 . S
C635 C639 1.400 . S
C636 H621 0.949 1_565 S
C636 H622 0.932 1_565 S
C636 H623 0.987 . S
C636 C635 1.538 . S
C637 C634 1.403 . S
C637 C638 1.392 . S
C637 C641 1.495 . S
C638 C637 1.392 . S
C638 C639 1.385 . S
C638 C640 1.478 . S
C639 H633 0.930 . S
C639 C635 1.400 . S
C639 C638 1.385 . S
C640 C638 1.478 . S
C640 C642 1.381 . S
C640 C646 1.383 . S
C641 C637 1.495 . S
C641 H647 0.959 . S
C641 H648 0.961 . S
C641 H649 0.960 . S
C642 C640 1.381 . S
C642 C643 1.394 . S
C642 H650 0.930 . S
C643 C642 1.394 . S
C643 C644 1.383 . S
C643 H651 0.929 1_565 S
C644 C643 1.383 . S
C644 C645 1.377 . S
C645 H629 0.930 . S
C645 C644 1.377 . S
C645 C646 1.379 . S
C646 H630 0.931 . S
C646 C640 1.383 . S
C646 C645 1.379 . S
H647 C641 0.959 . S
H648 C641 0.961 . S
H649 C641 0.960 . S
H650 C642 0.930 . S
H651 C643 0.929 1_545 S
H652 C660 0.929 . S
H653 C662 0.930 . S
H654 C664 0.930 . S
H655 C667 0.929 . S
H656 C670 0.930 . S
H657 C672 0.960 . S
H658 C672 0.960 . S
H659 C672 0.960 . S
C660 H652 0.929 . S
C660 C661 1.377 . S
C660 C662 1.384 . S
C661 C660 1.377 . S
C661 C667 1.390 . S
C662 H653 0.930 . S
C662 C660 1.384 . S
C662 C663 1.372 . S
C663 C662 1.372 . S
C663 C664 1.400 . S
C663 C668 1.490 . S
C664 H654 0.930 . S
C664 C663 1.400 . S
C664 C667 1.386 . S
H665 C681 0.930 . S
H666 C682 0.931 . S
C667 H655 0.929 . S
C667 C661 1.390 . S
C667 C664 1.386 . S
C668 C663 1.490 . S
C668 C670 1.395 . S
C668 C671 1.403 . S
H669 C675 0.930 . S
C670 H656 0.930 . S
C670 C668 1.395 . S
C670 C673 1.403 . S
C671 C668 1.403 . S
C671 C672 1.524 . S
C671 C675 1.400 . S
C672 H657 0.960 . S
C672 H658 0.960 . S
C672 H659 0.960 . S
C672 C671 1.524 . S
C673 C670 1.403 . S
C673 C674 1.392 . S
C673 C677 1.495 . S
C674 C673 1.392 . S
C674 C675 1.385 . S
C674 C676 1.478 . S
C675 H669 0.930 . S
C675 C671 1.400 . S
C675 C674 1.385 . S
C676 C674 1.478 . S
C676 C678 1.381 . S
C676 C682 1.383 . S
C677 C673 1.495 . S
C677 H683 0.959 . S
C677 H684 0.961 . S
C677 H685 0.960 . S
C678 C676 1.381 . S
C678 C679 1.394 . S
C678 H686 0.930 . S
C679 C678 1.394 . S
C679 C680 1.383 . S
C679 H687 0.929 . S
C680 C679 1.383 . S
C680 C681 1.377 . S
C681 H665 0.930 . S
C681 C680 1.377 . S
C681 C682 1.379 . S
C682 H666 0.931 . S
C682 C676 1.383 . S
C682 C681 1.379 . S
H683 C677 0.959 . S
H684 C677 0.961 . S
H685 C677 0.960 . S
H686 C678 0.930 . S
H687 C679 0.929 . S
H688 C696 0.929 . S
H689 C698 0.930 . S
H690 C700 0.930 . S
H691 C703 0.929 . S
H692 C706 0.930 . S
H693 C708 0.960 . S
H694 C708 0.960 . S
H695 C708 0.960 . S
C696 H688 0.929 . S
C696 C697 1.377 . S
C696 C698 1.384 . S
C697 C696 1.377 . S
C697 C703 1.390 . S
C698 H689 0.930 . S
C698 C696 1.384 . S
C698 C699 1.372 . S
C699 C698 1.372 . S
C699 C700 1.400 . S
C699 C704 1.490 . S
C700 H690 0.930 . S
C700 C699 1.400 . S
C700 C703 1.386 . S
H701 C717 0.930 . S
H702 C718 0.931 . S
C703 H691 0.929 . S
C703 C697 1.390 . S
C703 C700 1.386 . S
C704 C699 1.490 . S
C704 C706 1.395 . S
C704 C707 1.403 . S
H705 C711 0.930 . S
C706 H692 0.930 . S
C706 C704 1.395 . S
C706 C709 1.403 . S
C707 C704 1.403 . S
C707 C708 1.524 . S
C707 C711 1.400 . S
C708 H693 0.960 . S
C708 H694 0.960 . S
C708 H695 0.960 . S
C708 C707 1.524 . S
C709 C706 1.403 . S
C709 C710 1.392 . S
C709 C713 1.495 . S
C710 C709 1.392 . S
C710 C711 1.385 . S
C710 C712 1.478 . S
C711 H705 0.930 . S
C711 C707 1.400 . S
C711 C710 1.385 . S
C712 C710 1.478 . S
C712 C714 1.381 . S
C712 C718 1.383 . S
C713 C709 1.495 . S
C713 H719 0.959 . S
C713 H720 0.961 . S
C713 H721 0.960 . S
C714 C712 1.381 . S
C714 C715 1.394 . S
C714 H722 0.930 . S
C715 C714 1.394 . S
C715 C716 1.383 . S
C715 H723 0.929 . S
C716 C715 1.383 . S
C716 C717 1.377 . S
C717 H701 0.930 . S
C717 C716 1.377 . S
C717 C718 1.379 . S
C718 H702 0.931 . S
C718 C712 1.383 . S
C718 C717 1.379 . S
H719 C713 0.959 . S
H720 C713 0.961 . S
H721 C713 0.960 . S
H722 C714 0.930 . S
H723 C715 0.929 . S
H724 C732 0.929 . S
H725 C734 0.930 . S
H726 C736 0.930 . S
H727 C739 0.929 . S
H728 C742 0.930 . S
H729 C744 0.960 . S
H730 C744 0.960 . S
H731 C744 0.960 . S
C732 H724 0.929 . S
C732 C733 1.377 . S
C732 C734 1.384 . S
C733 C732 1.377 . S
C733 C739 1.390 . S
C734 H725 0.930 . S
C734 C732 1.384 . S
C734 C735 1.372 . S
C735 C734 1.372 . S
C735 C736 1.400 . S
C735 C740 1.490 . S
C736 H726 0.930 . S
C736 C735 1.400 . S
C736 C739 1.386 . S
H737 C753 0.930 . S
H738 C754 0.931 . S
C739 H727 0.929 . S
C739 C733 1.390 . S
C739 C736 1.386 . S
C740 C735 1.490 . S
C740 C742 1.395 . S
C740 C743 1.403 . S
H741 C747 0.930 . S
C742 H728 0.930 . S
C742 C740 1.395 . S
C742 C745 1.403 . S
C743 C740 1.403 . S
C743 C744 1.524 . S
C743 C747 1.400 . S
C744 H729 0.960 . S
C744 H730 0.960 . S
C744 H731 0.960 . S
C744 C743 1.524 . S
C745 C742 1.403 . S
C745 C746 1.392 . S
C745 C749 1.495 . S
C746 C745 1.392 . S
C746 C747 1.385 . S
C746 C748 1.478 . S
C747 H741 0.930 . S
C747 C743 1.400 . S
C747 C746 1.385 . S
C748 C746 1.478 . S
C748 C750 1.381 . S
C748 C754 1.383 . S
C749 C745 1.495 . S
C749 H755 0.959 . S
C749 H756 0.961 . S
C749 H757 0.960 . S
C750 C748 1.381 . S
C750 C751 1.394 . S
C750 H758 0.930 . S
C751 C750 1.394 . S
C751 C752 1.383 . S
C751 H759 0.929 . S
C752 C751 1.383 . S
C752 C753 1.377 . S
C753 H737 0.930 . S
C753 C752 1.377 . S
C753 C754 1.379 . S
C754 H738 0.931 . S
C754 C748 1.383 . S
C754 C753 1.379 . S
H755 C749 0.959 . S
H756 C749 0.961 . S
H757 C749 0.960 . S
H758 C750 0.930 . S
H759 C751 0.929 . S
H760 C768 0.929 . S
H761 C770 0.930 . S
H762 C772 0.930 . S
H763 C775 0.929 . S
H764 C778 0.930 . S
H765 C780 0.960 . S
H766 C780 0.960 . S
H767 C780 0.960 . S
C768 H760 0.929 . S
C768 C769 1.377 . S
C768 C770 1.384 . S
C769 C768 1.377 . S
C769 C775 1.390 . S
C770 H761 0.930 . S
C770 C768 1.384 . S
C770 C771 1.372 . S
C771 C770 1.372 . S
C771 C772 1.400 . S
C771 C776 1.490 . S
C772 H762 0.930 . S
C772 C771 1.400 . S
C772 C775 1.386 . S
H773 C789 0.930 . S
H774 C790 0.931 . S
C775 H763 0.929 . S
C775 C769 1.390 . S
C775 C772 1.386 . S
C776 C771 1.490 . S
C776 C778 1.395 . S
C776 C779 1.403 . S
H777 C783 0.930 . S
C778 H764 0.930 . S
C778 C776 1.395 . S
C778 C781 1.403 . S
C779 C776 1.403 . S
C779 C780 1.524 . S
C779 C783 1.400 . S
C780 H765 0.960 . S
C780 H766 0.960 . S
C780 H767 0.960 . S
C780 C779 1.524 . S
C781 C778 1.403 . S
C781 C782 1.392 . S
C781 C785 1.495 . S
C782 C781 1.392 . S
C782 C783 1.385 . S
C782 C784 1.478 . S
C783 H777 0.930 . S
C783 C779 1.400 . S
C783 C782 1.385 . S
C784 C782 1.478 . S
C784 C786 1.381 . S
C784 C790 1.383 . S
C785 C781 1.495 . S
C785 H791 0.959 . S
C785 H792 0.961 . S
C785 H793 0.960 . S
C786 C784 1.381 . S
C786 C787 1.394 . S
C786 H794 0.930 . S
C787 C786 1.394 . S
C787 C788 1.383 . S
C787 H795 0.929 . S
C788 C787 1.383 . S
C788 C789 1.377 . S
C789 H773 0.930 . S
C789 C788 1.377 . S
C789 C790 1.379 . S
C790 H774 0.931 . S
C790 C784 1.383 . S
C790 C789 1.379 . S
H791 C785 0.959 . S
H792 C785 0.961 . S
H793 C785 0.960 . S
H794 C786 0.930 . S
H795 C787 0.929 . S
H796 C804 0.929 . S
H797 C806 0.930 . S
H798 C808 0.930 . S
H799 C811 0.929 . S
H800 C814 0.930 . S
H801 C816 0.960 . S
H802 C816 0.960 . S
H803 C816 0.960 . S
C804 H796 0.929 . S
C804 C805 1.377 . S
C804 C806 1.384 . S
C805 C804 1.377 . S
C805 C811 1.390 . S
C806 H797 0.930 . S
C806 C804 1.384 . S
C806 C807 1.372 . S
C807 C806 1.372 . S
C807 C808 1.400 . S
C807 C812 1.490 . S
C808 H798 0.930 . S
C808 C807 1.400 . S
C808 C811 1.386 . S
H809 C825 0.930 . S
H810 C826 0.931 . S
C811 H799 0.929 . S
C811 C805 1.390 . S
C811 C808 1.386 . S
C812 C807 1.490 . S
C812 C814 1.395 . S
C812 C815 1.403 . S
H813 C819 0.930 . S
C814 H800 0.930 . S
C814 C812 1.395 . S
C814 C817 1.403 . S
C815 C812 1.403 . S
C815 C816 1.524 . S
C815 C819 1.400 . S
C816 H801 0.960 . S
C816 H802 0.960 . S
C816 H803 0.960 . S
C816 C815 1.524 . S
C817 C814 1.403 . S
C817 C818 1.392 . S
C817 C821 1.495 . S
C818 C817 1.392 . S
C818 C819 1.385 . S
C818 C820 1.478 . S
C819 H813 0.930 . S
C819 C815 1.400 . S
C819 C818 1.385 . S
C820 C818 1.478 . S
C820 C822 1.381 . S
C820 C826 1.383 . S
C821 C817 1.495 . S
C821 H827 0.959 . S
C821 H828 0.961 . S
C821 H829 0.960 . S
C822 C820 1.381 . S
C822 C823 1.394 . S
C822 H830 0.930 . S
C823 C822 1.394 . S
C823 C824 1.383 . S
C823 H831 0.929 . S
C824 C823 1.383 . S
C824 C825 1.377 . S
C825 H809 0.930 . S
C825 C824 1.377 . S
C825 C826 1.379 . S
C826 H810 0.931 . S
C826 C820 1.383 . S
C826 C825 1.379 . S
H827 C821 0.959 . S
H828 C821 0.961 . S
H829 C821 0.960 . S
H830 C822 0.930 . S
H831 C823 0.929 . S
H832 C840 0.929 . S
H833 C842 0.930 . S
H834 C844 0.930 . S
H835 C847 0.929 . S
H836 C850 0.930 . S
H837 C852 0.960 . S
H838 C852 0.960 . S
H839 C852 0.960 . S
C840 H832 0.929 . S
C840 C841 1.377 . S
C840 C842 1.384 . S
C841 C840 1.377 . S
C841 C847 1.390 . S
C842 H833 0.930 . S
C842 C840 1.384 . S
C842 C843 1.372 . S
C843 C842 1.372 . S
C843 C844 1.400 . S
C843 C848 1.490 . S
C844 H834 0.930 . S
C844 C843 1.400 . S
C844 C847 1.386 . S
H845 C861 0.930 . S
H846 C862 0.931 . S
C847 H835 0.929 . S
C847 C841 1.390 . S
C847 C844 1.386 . S
C848 C843 1.490 . S
C848 C850 1.395 . S
C848 C851 1.403 . S
H849 C855 0.930 . S
C850 H836 0.930 . S
C850 C848 1.395 . S
C850 C853 1.403 . S
C851 C848 1.403 . S
C851 C852 1.524 . S
C851 C855 1.400 . S
C852 H837 0.960 . S
C852 H838 0.960 . S
C852 H839 0.960 . S
C852 C851 1.524 . S
C853 C850 1.403 . S
C853 C854 1.392 . S
C853 C857 1.495 . S
C854 C853 1.392 . S
C854 C855 1.385 . S
C854 C856 1.478 . S
C855 H849 0.930 . S
C855 C851 1.400 . S
C855 C854 1.385 . S
C856 C854 1.478 . S
C856 C858 1.381 . S
C856 C862 1.383 . S
C857 C853 1.495 . S
C857 H863 0.959 . S
C857 H864 0.961 . S
C857 H865 0.960 . S
C858 C856 1.381 . S
C858 C859 1.394 . S
C858 H866 0.930 . S
C859 C858 1.394 . S
C859 C860 1.383 . S
C859 H867 0.929 1_455 S
C860 C859 1.383 . S
C860 C861 1.377 . S
C861 H845 0.930 . S
C861 C860 1.377 . S
C861 C862 1.379 . S
C862 H846 0.931 . S
C862 C856 1.383 . S
C862 C861 1.379 . S
H863 C857 0.959 . S
H864 C857 0.961 . S
H865 C857 0.960 . S
H866 C858 0.930 . S
H867 C859 0.929 1_655 S
H868 C876 0.929 . S
H869 C878 0.930 . S
H870 C880 0.930 . S
H871 C883 0.929 . S
H872 C886 0.930 . S
H873 C888 0.960 . S
H874 C888 0.960 . S
H875 C888 0.960 . S
C876 H868 0.929 . S
C876 C877 1.377 . S
C876 C878 1.384 . S
C877 C876 1.377 . S
C877 C883 1.390 . S
C878 H869 0.930 . S
C878 C876 1.384 . S
C878 C879 1.372 . S
C879 C878 1.372 . S
C879 C880 1.400 . S
C879 C884 1.490 . S
C880 H870 0.930 . S
C880 C879 1.400 . S
C880 C883 1.386 . S
H881 C897 0.930 . S
H882 C898 0.931 . S
C883 H871 0.929 . S
C883 C877 1.390 . S
C883 C880 1.386 . S
C884 C879 1.490 . S
C884 C886 1.395 . S
C884 C887 1.403 . S
H885 C891 0.930 . S
C886 H872 0.930 . S
C886 C884 1.395 . S
C886 C889 1.403 . S
C887 C884 1.403 . S
C887 C888 1.524 . S
C887 C891 1.400 . S
C888 H873 0.960 . S
C888 H874 0.960 . S
C888 H875 0.960 . S
C888 C887 1.524 . S
C889 C886 1.403 . S
C889 C890 1.392 . S
C889 C893 1.495 . S
C890 C889 1.392 . S
C890 C891 1.385 . S
C890 C892 1.478 . S
C891 H885 0.930 . S
C891 C887 1.400 . S
C891 C890 1.385 . S
C892 C890 1.478 . S
C892 C894 1.381 . S
C892 C898 1.383 . S
C893 C889 1.495 . S
C893 H899 0.959 . S
C893 H900 0.961 . S
C893 H901 0.960 . S
C894 C892 1.381 . S
C894 C895 1.394 . S
C894 H902 0.930 . S
C895 C894 1.394 . S
C895 C896 1.383 . S
C895 H903 0.929 . S
C896 C895 1.383 . S
C896 C897 1.377 . S
C897 H881 0.930 . S
C897 C896 1.377 . S
C897 C898 1.379 . S
C898 H882 0.931 . S
C898 C892 1.383 . S
C898 C897 1.379 . S
H899 C893 0.959 . S
H900 C893 0.961 . S
H901 C893 0.960 . S
H902 C894 0.930 . S
H903 C895 0.929 . S
H904 C912 0.929 . S
H905 C914 0.930 . S
H906 C916 0.930 . S
H907 C919 0.929 . S
H908 C922 0.930 . S
H909 C924 0.960 . S
H910 C924 0.960 . S
H911 C924 0.960 . S
C912 H904 0.929 . S
C912 C913 1.377 . S
C912 C914 1.384 . S
C913 C912 1.377 . S
C913 C919 1.390 . S
C914 H905 0.930 . S
C914 C912 1.384 . S
C914 C915 1.372 . S
C915 C914 1.372 . S
C915 C916 1.400 . S
C915 C920 1.490 . S
C916 H906 0.930 . S
C916 C915 1.400 . S
C916 C919 1.386 . S
H917 C933 0.930 . S
H918 C934 0.931 . S
C919 H907 0.929 . S
C919 C913 1.390 . S
C919 C916 1.386 . S
C920 C915 1.490 . S
C920 C922 1.395 . S
C920 C923 1.403 1_655 S
H921 C927 0.930 . S
C922 H908 0.930 . S
C922 C920 1.395 . S
C922 C925 1.403 . S
C923 C920 1.403 1_455 S
C923 C924 1.524 . S
C923 C927 1.400 . S
C924 H909 0.960 . S
C924 H910 0.960 . S
C924 H911 0.960 . S
C924 C923 1.524 . S
C925 C922 1.403 . S
C925 C926 1.392 . S
C925 C929 1.495 . S
C926 C925 1.392 . S
C926 C927 1.385 1_655 S
C926 C928 1.478 . S
C927 H921 0.930 . S
C927 C923 1.400 . S
C927 C926 1.385 1_455 S
C928 C926 1.478 . S
C928 C930 1.381 1_655 S
C928 C934 1.383 . S
C929 C925 1.495 . S
C929 H935 0.959 . S
C929 H936 0.961 . S
C929 H937 0.960 . S
C930 C928 1.381 1_455 S
C930 C931 1.394 . S
C930 H938 0.930 . S
C931 C930 1.394 . S
C931 C932 1.383 . S
C931 H939 0.929 . S
C932 C931 1.383 . S
C932 C933 1.377 1_455 S
C933 H917 0.930 . S
C933 C932 1.377 1_655 S
C933 C934 1.379 . S
C934 H918 0.931 . S
C934 C928 1.383 . S
C934 C933 1.379 . S
H935 C929 0.959 . S
H936 C929 0.961 . S
H937 C929 0.960 . S
H938 C930 0.930 . S
H939 C931 0.929 . S
H940 C948 0.929 . S
H941 C950 0.930 . S
H942 C952 0.930 . S
H943 C955 0.929 . S
H944 C958 0.930 . S
H945 C960 0.960 . S
H946 C960 0.960 . S
H947 C960 0.960 . S
C948 H940 0.929 . S
C948 C949 1.377 . S
C948 C950 1.384 . S
C949 C948 1.377 . S
C949 C955 1.390 . S
C950 H941 0.930 . S
C950 C948 1.384 . S
C950 C951 1.372 . S
C951 C950 1.372 . S
C951 C952 1.400 . S
C951 C956 1.490 . S
C952 H942 0.930 . S
C952 C951 1.400 . S
C952 C955 1.386 . S
H953 C969 0.930 . S
H954 C970 0.931 . S
C955 H943 0.929 . S
C955 C949 1.390 . S
C955 C952 1.386 . S
C956 C951 1.490 . S
C956 C958 1.395 . S
C956 C959 1.403 . S
H957 C963 0.930 . S
C958 H944 0.930 . S
C958 C956 1.395 . S
C958 C961 1.403 . S
C959 C956 1.403 . S
C959 C960 1.524 . S
C959 C963 1.400 . S
C960 H945 0.960 . S
C960 H946 0.960 . S
C960 H947 0.960 . S
C960 C959 1.524 . S
C961 C958 1.403 . S
C961 C962 1.392 . S
C961 C965 1.495 . S
C962 C961 1.392 . S
C962 C963 1.385 . S
C962 C964 1.478 . S
C963 H957 0.930 . S
C963 C959 1.400 . S
C963 C962 1.385 . S
C964 C962 1.478 . S
C964 C966 1.381 . S
C964 C970 1.383 . S
C965 C961 1.495 . S
C965 H971 0.959 . S
C965 H972 0.961 . S
C965 H973 0.960 . S
C966 C964 1.381 . S
C966 C967 1.394 . S
C966 H974 0.930 . S
C967 C966 1.394 . S
C967 C968 1.383 . S
C967 H975 0.929 . S
C968 C967 1.383 . S
C968 C969 1.377 . S
C969 H953 0.930 . S
C969 C968 1.377 . S
C969 C970 1.379 . S
C970 H954 0.931 . S
C970 C964 1.383 . S
C970 C969 1.379 . S
H971 C965 0.959 . S
H972 C965 0.961 . S
H973 C965 0.960 . S
H974 C966 0.930 . S
H975 C967 0.929 . S
H976 C984 0.929 . S
H977 C986 0.930 . S
H978 C988 0.930 . S
H979 C991 0.929 . S
H980 C994 0.930 . S
H981 C996 0.960 . S
H982 C996 0.960 . S
H983 C996 0.960 . S
C984 H976 0.929 . S
C984 C985 1.377 . S
C984 C986 1.384 . S
C985 C984 1.377 . S
C985 C991 1.390 . S
C986 H977 0.930 . S
C986 C984 1.384 . S
C986 C987 1.372 . S
C987 C986 1.372 . S
C987 C988 1.400 . S
C987 C992 1.490 . S
C988 H978 0.930 . S
C988 C987 1.400 . S
C988 C991 1.386 . S
H989 C1005 0.930 . S
H990 C1006 0.931 . S
C991 H979 0.929 . S
C991 C985 1.390 . S
C991 C988 1.386 . S
C992 C987 1.490 . S
C992 C994 1.395 . S
C992 C995 1.403 . S
H993 C999 0.930 . S
C994 H980 0.930 . S
C994 C992 1.395 . S
C994 C997 1.403 . S
C995 C992 1.403 . S
C995 C996 1.524 . S
C995 C999 1.400 . S
C996 H981 0.960 . S
C996 H982 0.960 . S
C996 H983 0.960 . S
C996 C995 1.524 . S
C997 C994 1.403 . S
C997 C998 1.392 . S
C997 C1001 1.495 . S
C998 C997 1.392 . S
C998 C999 1.385 . S
C998 C1000 1.478 . S
C999 H993 0.930 . S
C999 C995 1.400 . S
C999 C998 1.385 . S
C1000 C998 1.478 . S
C1000 C1002 1.381 . S
C1000 C1006 1.383 . S
C1001 C997 1.495 . S
C1001 H1007 0.959 . S
C1001 H1008 0.961 . S
C1001 H1009 0.960 . S
C1002 C1000 1.381 . S
C1002 C1003 1.394 . S
C1002 H1010 0.930 . S
C1003 C1002 1.394 . S
C1003 C1004 1.383 . S
C1003 H1011 0.929 . S
C1004 C1003 1.383 . S
C1004 C1005 1.377 . S
C1005 H989 0.930 . S
C1005 C1004 1.377 . S
C1005 C1006 1.379 . S
C1006 H990 0.931 . S
C1006 C1000 1.383 . S
C1006 C1005 1.379 . S
H1007 C1001 0.959 . S
H1008 C1001 0.961 . S
H1009 C1001 0.960 . S
H1010 C1002 0.930 . S
H1011 C1003 0.929 . S
H1012 C1020 0.929 . S
H1013 C1022 0.930 . S
H1014 C1024 0.931 1_565 S
H1015 C1027 0.929 . S
H1016 C1030 0.930 . S
H1017 C1032 0.960 . S
H1018 C1032 0.960 . S
H1019 C1032 0.960 . S
C1020 H1012 0.929 . S
C1020 C1021 1.377 . S
C1020 C1022 1.384 . S
C1021 C1020 1.377 . S
C1021 C1027 1.390 1_556 S
C1022 H1013 0.930 . S
C1022 C1020 1.384 . S
C1022 C1023 1.372 . S
C1023 C1022 1.372 . S
C1023 C1024 1.400 1_556 S
C1023 C1028 1.490 1_545 S
C1024 H1014 0.931 1_545 S
C1024 C1023 1.400 1_554 S
C1024 C1027 1.386 . S
H1025 C1041 0.930 . S
H1026 C1042 0.931 . S
C1027 H1015 0.929 . S
C1027 C1021 1.390 1_554 S
C1027 C1024 1.386 . S
C1028 C1023 1.490 1_565 S
C1028 C1030 1.395 . S
C1028 C1031 1.403 1_556 S
H1029 C1035 0.930 . S
C1030 H1016 0.930 . S
C1030 C1028 1.395 . S
C1030 C1033 1.403 . S
C1031 C1028 1.403 1_554 S
C1031 C1032 1.524 1_565 S
C1031 C1035 1.400 . S
C1032 H1017 0.960 . S
C1032 H1018 0.960 . S
C1032 H1019 0.960 . S
C1032 C1031 1.524 1_545 S
C1033 C1030 1.403 . S
C1033 C1034 1.392 . S
C1033 C1037 1.495 . S
C1034 C1033 1.392 . S
C1034 C1035 1.385 1_556 S
C1034 C1036 1.478 . S
C1035 H1029 0.930 . S
C1035 C1031 1.400 . S
C1035 C1034 1.385 1_554 S
C1036 C1034 1.478 . S
C1036 C1038 1.381 . S
C1036 C1042 1.383 1_556 S
C1037 C1033 1.495 . S
C1037 H1043 0.959 . S
C1037 H1044 0.961 . S
C1037 H1045 0.960 . S
C1038 C1036 1.381 . S
C1038 C1039 1.394 . S
C1038 H1046 0.930 . S
C1039 C1038 1.394 . S
C1039 C1040 1.383 . S
C1039 H1047 0.929 . S
C1040 C1039 1.383 . S
C1040 C1041 1.377 1_556 S
C1041 H1025 0.930 . S
C1041 C1040 1.377 1_554 S
C1041 C1042 1.379 . S
C1042 H1026 0.931 . S
C1042 C1036 1.383 1_554 S
C1042 C1041 1.379 . S
H1043 C1037 0.959 . S
H1044 C1037 0.961 . S
H1045 C1037 0.960 . S
H1046 C1038 0.930 . S
H1047 C1039 0.929 . S
H1048 C1056 0.929 . S
H1049 C1058 0.930 . S
H1050 C1060 0.930 . S
H1051 C1063 0.929 . S
H1052 C1066 0.930 . S
H1053 C1068 0.960 . S
H1054 C1068 0.960 . S
H1055 C1068 0.960 . S
C1056 H1048 0.929 . S
C1056 C1057 1.377 . S
C1056 C1058 1.384 . S
C1057 C1056 1.377 . S
C1057 C1063 1.390 . S
C1058 H1049 0.930 . S
C1058 C1056 1.384 . S
C1058 C1059 1.372 . S
C1059 C1058 1.372 . S
C1059 C1060 1.400 . S
C1059 C1064 1.490 . S
C1060 H1050 0.930 . S
C1060 C1059 1.400 . S
C1060 C1063 1.386 . S
H1061 C1077 0.930 . S
H1062 C1078 0.931 . S
C1063 H1051 0.929 . S
C1063 C1057 1.390 . S
C1063 C1060 1.386 . S
C1064 C1059 1.490 . S
C1064 C1066 1.395 . S
C1064 C1067 1.403 . S
H1065 C1071 0.930 . S
C1066 H1052 0.930 . S
C1066 C1064 1.395 . S
C1066 C1069 1.403 . S
C1067 C1064 1.403 . S
C1067 C1068 1.524 . S
C1067 C1071 1.400 . S
C1068 H1053 0.960 . S
C1068 H1054 0.960 . S
C1068 H1055 0.960 . S
C1068 C1067 1.524 . S
C1069 C1066 1.403 . S
C1069 C1070 1.392 . S
C1069 C1073 1.495 . S
C1070 C1069 1.392 . S
C1070 C1071 1.385 . S
C1070 C1072 1.478 . S
C1071 H1065 0.930 . S
C1071 C1067 1.400 . S
C1071 C1070 1.385 . S
C1072 C1070 1.478 . S
C1072 C1074 1.381 . S
C1072 C1078 1.383 . S
C1073 C1069 1.495 . S
C1073 H1079 0.959 . S
C1073 H1080 0.961 . S
C1073 H1081 0.960 . S
C1074 C1072 1.381 . S
C1074 C1075 1.394 . S
C1074 H1082 0.930 . S
C1075 C1074 1.394 . S
C1075 C1076 1.383 . S
C1075 H1083 0.929 . S
C1076 C1075 1.383 . S
C1076 C1077 1.377 . S
C1077 H1061 0.930 . S
C1077 C1076 1.377 . S
C1077 C1078 1.379 . S
C1078 H1062 0.931 . S
C1078 C1072 1.383 . S
C1078 C1077 1.379 . S
H1079 C1073 0.959 . S
H1080 C1073 0.961 . S
H1081 C1073 0.960 . S
H1082 C1074 0.930 . S
H1083 C1075 0.929 . S
H1084 C1092 0.935 . S
H1085 C1094 0.930 . S
H1086 C1096 0.930 . S
H1087 C1099 0.929 . S
H1088 C1102 0.930 . S
H1089 C1104 0.960 . S
H1090 C1104 0.960 . S
H1091 C1104 0.960 . S
C1092 H1084 0.935 . S
C1092 C1093 1.377 . S
C1092 C1094 1.384 . S
C1093 C1092 1.377 . S
C1093 C1099 1.390 . S
C1094 H1085 0.930 . S
C1094 C1092 1.384 . S
C1094 C1095 1.372 . S
C1095 C1094 1.372 . S
C1095 C1096 1.400 . S
C1095 C1100 1.490 . S
C1096 H1086 0.930 . S
C1096 C1095 1.400 . S
C1096 C1099 1.386 . S
H1097 C1113 0.930 . S
H1098 C1114 0.931 . S
C1099 H1087 0.929 . S
C1099 C1093 1.390 . S
C1099 C1096 1.386 . S
C1100 C1095 1.490 . S
C1100 C1102 1.395 . S
C1100 C1103 1.403 . S
H1101 C1107 0.930 . S
C1102 H1088 0.930 . S
C1102 C1100 1.395 . S
C1102 C1105 1.403 . S
C1103 C1100 1.403 . S
C1103 C1104 1.524 . S
C1103 C1107 1.400 . S
C1104 H1089 0.960 . S
C1104 H1090 0.960 . S
C1104 H1091 0.960 . S
C1104 C1103 1.524 . S
C1105 C1102 1.403 . S
C1105 C1106 1.392 . S
C1105 C1109 1.495 . S
C1106 C1105 1.392 . S
C1106 C1107 1.385 . S
C1106 C1108 1.478 . S
C1107 H1101 0.930 . S
C1107 C1103 1.400 . S
C1107 C1106 1.385 . S
C1108 C1106 1.478 . S
C1108 C1110 1.381 . S
C1108 C1114 1.383 . S
C1109 C1105 1.495 . S
C1109 H1115 0.959 . S
C1109 H1116 0.961 . S
C1109 H1117 0.960 . S
C1110 C1108 1.381 . S
C1110 C1111 1.394 . S
C1110 H1118 0.930 . S
C1111 C1110 1.394 . S
C1111 C1112 1.383 . S
C1111 H1119 0.929 . S
C1112 C1111 1.383 . S
C1112 C1113 1.377 . S
C1113 H1097 0.930 . S
C1113 C1112 1.377 . S
C1113 C1114 1.379 . S
C1114 H1098 0.931 . S
C1114 C1108 1.383 . S
C1114 C1113 1.379 . S
H1115 C1109 0.959 . S
H1116 C1109 0.961 . S
H1117 C1109 0.960 . S
H1118 C1110 0.930 . S
H1119 C1111 0.929 . S
H1120 C1128 0.929 . S
H1121 C1130 0.930 . S
H1122 C1132 0.930 . S
H1123 C1135 0.929 . S
H1124 C1138 0.930 . S
H1125 C1140 0.960 . S
H1126 C1140 0.960 . S
H1127 C1140 0.960 . S
C1128 H1120 0.929 . S
C1128 C1129 1.377 . S
C1128 C1130 1.384 . S
C1129 C1128 1.377 . S
C1129 C1135 1.390 . S
C1130 H1121 0.930 . S
C1130 C1128 1.384 . S
C1130 C1131 1.372 . S
C1131 C1130 1.372 . S
C1131 C1132 1.400 . S
C1131 C1136 1.490 . S
C1132 H1122 0.930 . S
C1132 C1131 1.400 . S
C1132 C1135 1.386 . S
H1133 C1149 0.930 . S
H1134 C1150 0.931 . S
C1135 H1123 0.929 . S
C1135 C1129 1.390 . S
C1135 C1132 1.386 . S
C1136 C1131 1.490 . S
C1136 C1138 1.395 . S
C1136 C1139 1.403 . S
H1137 C1143 0.930 . S
C1138 H1124 0.930 . S
C1138 C1136 1.395 . S
C1138 C1141 1.403 . S
C1139 C1136 1.403 . S
C1139 C1140 1.524 . S
C1139 C1143 1.400 . S
C1140 H1125 0.960 . S
C1140 H1126 0.960 . S
C1140 H1127 0.960 . S
C1140 C1139 1.524 . S
C1141 C1138 1.403 . S
C1141 C1142 1.392 . S
C1141 C1145 1.495 . S
C1142 C1141 1.392 . S
C1142 C1143 1.385 . S
C1142 C1144 1.478 . S
C1143 H1137 0.930 . S
C1143 C1139 1.400 . S
C1143 C1142 1.385 . S
C1144 C1142 1.478 . S
C1144 C1146 1.381 . S
C1144 C1150 1.383 . S
C1145 C1141 1.495 . S
C1145 H1151 0.959 . S
C1145 H1152 0.961 . S
C1145 H1153 0.960 . S
C1146 C1144 1.381 . S
C1146 C1147 1.394 . S
C1146 H1154 0.930 . S
C1147 C1146 1.394 . S
C1147 C1148 1.383 . S
C1147 H1155 0.929 . S
C1148 C1147 1.383 . S
C1148 C1149 1.377 . S
C1149 H1133 0.930 . S
C1149 C1148 1.377 . S
C1149 C1150 1.379 . S
C1150 H1134 0.931 . S
C1150 C1144 1.383 . S
C1150 C1149 1.379 . S
H1151 C1145 0.959 . S
H1152 C1145 0.961 . S
H1153 C1145 0.960 . S
H1154 C1146 0.930 . S
H1155 C1147 0.929 . S
H1156 C1164 0.929 . S
H1157 C1166 0.930 . S
H1158 C1168 0.930 . S
H1159 C1171 0.929 . S
H1160 C1174 0.930 . S
H1161 C1176 0.960 . S
H1162 C1176 0.960 1_565 S
H1163 C1176 0.941 1_565 S
C1164 H1156 0.929 . S
C1164 C1165 1.377 . S
C1164 C1166 1.384 1_565 S
C1165 C1164 1.377 . S
C1165 C1171 1.390 . S
C1166 H1157 0.930 . S
C1166 C1164 1.384 1_545 S
C1166 C1167 1.372 . S
C1167 C1166 1.372 . S
C1167 C1168 1.400 . S
C1167 C1172 1.490 . S
C1168 H1158 0.930 . S
C1168 C1167 1.400 . S
C1168 C1171 1.386 1_545 S
H1169 C1185 0.930 . S
H1170 C1186 0.931 . S
C1171 H1159 0.929 . S
C1171 C1165 1.390 . S
C1171 C1168 1.386 1_565 S
C1172 C1167 1.490 . S
C1172 C1174 1.395 . S
C1172 C1175 1.403 . S
H1173 C1179 0.930 . S
C1174 H1160 0.930 . S
C1174 C1172 1.395 . S
C1174 C1177 1.403 . S
C1175 C1172 1.403 . S
C1175 C1176 1.524 . S
C1175 C1179 1.400 . S
C1176 H1161 0.960 . S
C1176 H1162 0.960 1_545 S
C1176 H1163 0.941 1_545 S
C1176 C1175 1.524 . S
C1177 C1174 1.403 . S
C1177 C1178 1.392 . S
C1177 C1181 1.495 . S
C1178 C1177 1.392 . S
C1178 C1179 1.385 . S
C1178 C1180 1.478 . S
C1179 H1173 0.930 . S
C1179 C1175 1.400 . S
C1179 C1178 1.385 . S
C1180 C1178 1.478 . S
C1180 C1182 1.381 . S
C1180 C1186 1.383 . S
C1181 C1177 1.495 . S
C1181 H1187 0.959 . S
C1181 H1188 0.961 . S
C1181 H1189 0.960 . S
C1182 C1180 1.381 . S
C1182 C1183 1.394 . S
C1182 H1190 0.930 . S
C1183 C1182 1.394 . S
C1183 C1184 1.383 . S
C1183 H1191 0.929 . S
C1184 C1183 1.383 . S
C1184 C1185 1.377 . S
C1185 H1169 0.930 . S
C1185 C1184 1.377 . S
C1185 C1186 1.379 . S
C1186 H1170 0.931 . S
C1186 C1180 1.383 . S
C1186 C1185 1.379 . S
H1187 C1181 0.959 . S
H1188 C1181 0.961 . S
H1189 C1181 0.960 . S
H1190 C1182 0.930 . S
H1191 C1183 0.929 . S
H1192 C1200 0.929 . S
H1193 C1202 0.930 . S
H1194 C1204 0.930 . S
H1195 C1207 0.929 . S
H1196 C1210 0.930 . S
H1197 C1212 0.960 . S
H1198 C1212 0.960 . S
H1199 C1212 0.960 . S
C1200 H1192 0.929 . S
C1200 C1201 1.377 . S
C1200 C1202 1.384 . S
C1201 C1200 1.377 . S
C1201 C1207 1.390 . S
C1202 H1193 0.930 . S
C1202 C1200 1.384 . S
C1202 C1203 1.372 . S
C1203 C1202 1.372 . S
C1203 C1204 1.400 . S
C1203 C1208 1.490 . S
C1204 H1194 0.930 . S
C1204 C1203 1.400 . S
C1204 C1207 1.386 . S
H1205 C1221 0.930 . S
H1206 C1222 0.931 . S
C1207 H1195 0.929 . S
C1207 C1201 1.390 . S
C1207 C1204 1.386 . S
C1208 C1203 1.490 . S
C1208 C1210 1.395 . S
C1208 C1211 1.403 . S
H1209 C1215 0.930 . S
C1210 H1196 0.930 . S
C1210 C1208 1.395 . S
C1210 C1213 1.403 . S
C1211 C1208 1.403 . S
C1211 C1212 1.524 . S
C1211 C1215 1.400 . S
C1212 H1197 0.960 . S
C1212 H1198 0.960 . S
C1212 H1199 0.960 . S
C1212 C1211 1.524 . S
C1213 C1210 1.403 . S
C1213 C1214 1.392 . S
C1213 C1217 1.495 . S
C1214 C1213 1.392 . S
C1214 C1215 1.385 . S
C1214 C1216 1.478 . S
C1215 H1209 0.930 . S
C1215 C1211 1.400 . S
C1215 C1214 1.385 . S
C1216 C1214 1.478 . S
C1216 C1218 1.381 . S
C1216 C1222 1.383 . S
C1217 C1213 1.495 . S
C1217 H1223 0.959 . S
C1217 H1224 0.961 . S
C1217 H1225 0.960 . S
C1218 C1216 1.381 . S
C1218 C1219 1.394 . S
C1218 H1226 0.930 . S
C1219 C1218 1.394 . S
C1219 C1220 1.383 . S
C1219 H1227 0.929 . S
C1220 C1219 1.383 . S
C1220 C1221 1.377 . S
C1221 H1205 0.930 . S
C1221 C1220 1.377 . S
C1221 C1222 1.379 . S
C1222 H1206 0.931 . S
C1222 C1216 1.383 . S
C1222 C1221 1.379 . S
H1223 C1217 0.959 . S
H1224 C1217 0.961 . S
H1225 C1217 0.960 . S
H1226 C1218 0.930 . S
H1227 C1219 0.929 . S
H1228 C1236 0.929 . S
H1229 C1238 0.930 . S
H1230 C1240 0.930 . S
H1231 C1243 0.929 . S
H1232 C1246 0.930 . S
H1233 C1248 0.960 . S
H1234 C1248 0.960 . S
H1235 C1248 0.960 . S
C1236 H1228 0.929 . S
C1236 C1237 1.377 . S
C1236 C1238 1.384 . S
C1237 C1236 1.377 . S
C1237 C1243 1.390 . S
C1238 H1229 0.930 . S
C1238 C1236 1.384 . S
C1238 C1239 1.372 . S
C1239 C1238 1.372 . S
C1239 C1240 1.400 . S
C1239 C1244 1.490 . S
C1240 H1230 0.930 . S
C1240 C1239 1.400 . S
C1240 C1243 1.386 . S
H1241 C1257 0.930 . S
H1242 C1258 0.931 . S
C1243 H1231 0.929 . S
C1243 C1237 1.390 . S
C1243 C1240 1.386 . S
C1244 C1239 1.490 . S
C1244 C1246 1.395 . S
C1244 C1247 1.403 . S
H1245 C1251 0.930 . S
C1246 H1232 0.930 . S
C1246 C1244 1.395 . S
C1246 C1249 1.403 . S
C1247 C1244 1.403 . S
C1247 C1248 1.524 . S
C1247 C1251 1.400 . S
C1248 H1233 0.960 . S
C1248 H1234 0.960 . S
C1248 H1235 0.960 . S
C1248 C1247 1.524 . S
C1249 C1246 1.403 . S
C1249 C1250 1.392 . S
C1249 C1253 1.495 . S
C1250 C1249 1.392 . S
C1250 C1251 1.385 . S
C1250 C1252 1.478 . S
C1251 H1245 0.930 . S
C1251 C1247 1.400 . S
C1251 C1250 1.385 . S
C1252 C1250 1.478 . S
C1252 C1254 1.381 . S
C1252 C1258 1.383 . S
C1253 C1249 1.495 . S
C1253 H1259 0.959 . S
C1253 H1260 0.961 . S
C1253 H1261 0.960 . S
C1254 C1252 1.381 . S
C1254 C1255 1.394 . S
C1254 H1262 0.930 . S
C1255 C1254 1.394 . S
C1255 C1256 1.383 . S
C1255 H1263 0.929 . S
C1256 C1255 1.383 . S
C1256 C1257 1.377 . S
C1257 H1241 0.930 . S
C1257 C1256 1.377 . S
C1257 C1258 1.379 . S
C1258 H1242 0.931 . S
C1258 C1252 1.383 . S
C1258 C1257 1.379 . S
H1259 C1253 0.959 . S
H1260 C1253 0.961 . S
H1261 C1253 0.960 . S
H1262 C1254 0.930 . S
H1263 C1255 0.929 . S
H1264 C1272 0.929 . S
H1265 C1274 0.930 . S
H1266 C1276 0.930 . S
H1267 C1279 0.929 . S
H1268 C1282 0.930 . S
H1269 C1284 0.960 . S
H1270 C1284 0.960 . S
H1271 C1284 0.960 . S
C1272 H1264 0.929 . S
C1272 C1273 1.377 . S
C1272 C1274 1.384 . S
C1273 C1272 1.377 . S
C1273 C1279 1.390 . S
C1274 H1265 0.930 . S
C1274 C1272 1.384 . S
C1274 C1275 1.372 . S
C1275 C1274 1.372 . S
C1275 C1276 1.400 . S
C1275 C1280 1.490 . S
C1276 H1266 0.930 . S
C1276 C1275 1.400 . S
C1276 C1279 1.386 . S
H1277 C1293 0.930 . S
H1278 C1294 0.918 1_565 S
C1279 H1267 0.929 . S
C1279 C1273 1.390 . S
C1279 C1276 1.386 . S
C1280 C1275 1.490 . S
C1280 C1282 1.395 . S
C1280 C1283 1.403 . S
H1281 C1287 0.930 . S
C1282 H1268 0.930 . S
C1282 C1280 1.395 . S
C1282 C1285 1.403 . S
C1283 C1280 1.403 . S
C1283 C1284 1.524 . S
C1283 C1287 1.400 . S
C1284 H1269 0.960 . S
C1284 H1270 0.960 . S
C1284 H1271 0.960 . S
C1284 C1283 1.524 . S
C1285 C1282 1.403 . S
C1285 C1286 1.392 . S
C1285 C1289 1.495 . S
C1286 C1285 1.392 . S
C1286 C1287 1.385 . S
C1286 C1288 1.478 . S
C1287 H1281 0.930 . S
C1287 C1283 1.400 . S
C1287 C1286 1.385 . S
C1288 C1286 1.478 . S
C1288 C1290 1.381 . S
C1288 C1294 1.405 . S
C1289 C1285 1.495 . S
C1289 H1295 0.959 . S
C1289 H1296 0.961 . S
C1289 H1297 0.960 . S
C1290 C1288 1.381 . S
C1290 C1291 1.394 . S
C1290 H1298 0.930 . S
C1291 C1290 1.394 . S
C1291 C1292 1.383 . S
C1291 H1299 0.929 . S
C1292 C1291 1.383 . S
C1292 C1293 1.377 1_545 S
C1293 H1277 0.930 . S
C1293 C1292 1.377 1_565 S
C1293 C1294 1.370 1_565 S
C1294 H1278 0.918 1_545 S
C1294 C1288 1.405 . S
C1294 C1293 1.370 1_545 S
H1295 C1289 0.959 . S
H1296 C1289 0.961 . S
H1297 C1289 0.960 . S
H1298 C1290 0.930 . S
H1299 C1291 0.929 . S
H1300 C1308 0.929 . S
H1301 C1310 0.930 . S
H1302 C1312 0.930 . S
H1303 C1315 0.929 . S
H1304 C1318 0.930 . S
H1305 C1320 0.960 . S
H1306 C1320 0.960 . S
H1307 C1320 0.960 . S
C1308 H1300 0.929 . S
C1308 C1309 1.377 . S
C1308 C1310 1.384 . S
C1309 C1308 1.377 . S
C1309 C1315 1.390 . S
C1310 H1301 0.930 . S
C1310 C1308 1.384 . S
C1310 C1311 1.372 . S
C1311 C1310 1.372 . S
C1311 C1312 1.400 . S
C1311 C1316 1.490 . S
C1312 H1302 0.930 . S
C1312 C1311 1.400 . S
C1312 C1315 1.386 . S
H1313 C1329 0.930 . S
H1314 C1330 0.931 . S
C1315 H1303 0.929 . S
C1315 C1309 1.390 . S
C1315 C1312 1.386 . S
C1316 C1311 1.490 . S
C1316 C1318 1.395 . S
C1316 C1319 1.403 . S
H1317 C1323 0.930 . S
C1318 H1304 0.930 . S
C1318 C1316 1.395 . S
C1318 C1321 1.403 . S
C1319 C1316 1.403 . S
C1319 C1320 1.524 . S
C1319 C1323 1.400 . S
C1320 H1305 0.960 . S
C1320 H1306 0.960 . S
C1320 H1307 0.960 . S
C1320 C1319 1.524 . S
C1321 C1318 1.403 . S
C1321 C1322 1.392 . S
C1321 C1325 1.495 . S
C1322 C1321 1.392 . S
C1322 C1323 1.385 . S
C1322 C1324 1.478 . S
C1323 H1317 0.930 . S
C1323 C1319 1.400 . S
C1323 C1322 1.385 . S
C1324 C1322 1.478 . S
C1324 C1326 1.381 . S
C1324 C1330 1.383 . S
C1325 C1321 1.495 . S
C1325 H1331 0.959 . S
C1325 H1332 0.961 . S
C1325 H1333 0.960 . S
C1326 C1324 1.381 . S
C1326 C1327 1.394 . S
C1326 H1334 0.930 . S
C1327 C1326 1.394 . S
C1327 C1328 1.383 . S
C1327 H1335 0.929 . S
C1328 C1327 1.383 . S
C1328 C1329 1.377 . S
C1329 H1313 0.930 . S
C1329 C1328 1.377 . S
C1329 C1330 1.379 . S
C1330 H1314 0.931 . S
C1330 C1324 1.383 . S
C1330 C1329 1.379 . S
H1331 C1325 0.959 . S
H1332 C1325 0.961 . S
H1333 C1325 0.960 . S
H1334 C1326 0.930 . S
H1335 C1327 0.929 . S
H1336 C1344 0.929 . S
H1337 C1346 0.930 . S
H1338 C1348 0.930 . S
H1339 C1351 0.929 . S
H1340 C1354 0.930 . S
H1341 C1356 0.960 . S
H1342 C1356 0.960 . S
H1343 C1356 0.960 . S
C1344 H1336 0.929 . S
C1344 C1345 1.377 . S
C1344 C1346 1.384 . S
C1345 C1344 1.377 . S
C1345 C1351 1.390 . S
C1346 H1337 0.930 . S
C1346 C1344 1.384 . S
C1346 C1347 1.372 . S
C1347 C1346 1.372 . S
C1347 C1348 1.400 . S
C1347 C1352 1.490 . S
C1348 H1338 0.930 . S
C1348 C1347 1.400 . S
C1348 C1351 1.386 . S
H1349 C1365 0.930 . S
H1350 C1366 0.931 . S
C1351 H1339 0.929 . S
C1351 C1345 1.390 . S
C1351 C1348 1.386 . S
C1352 C1347 1.490 . S
C1352 C1354 1.395 . S
C1352 C1355 1.403 . S
H1353 C1359 0.930 . S
C1354 H1340 0.930 . S
C1354 C1352 1.395 . S
C1354 C1357 1.403 . S
C1355 C1352 1.403 . S
C1355 C1356 1.524 . S
C1355 C1359 1.400 . S
C1356 H1341 0.960 . S
C1356 H1342 0.960 . S
C1356 H1343 0.960 . S
C1356 C1355 1.524 . S
C1357 C1354 1.403 . S
C1357 C1358 1.392 . S
C1357 C1361 1.495 . S
C1358 C1357 1.392 . S
C1358 C1359 1.385 . S
C1358 C1360 1.478 . S
C1359 H1353 0.930 . S
C1359 C1355 1.400 . S
C1359 C1358 1.385 . S
C1360 C1358 1.478 . S
C1360 C1362 1.381 . S
C1360 C1366 1.383 . S
C1361 C1357 1.495 . S
C1361 H1367 0.959 . S
C1361 H1368 0.961 . S
C1361 H1369 0.960 . S
C1362 C1360 1.381 . S
C1362 C1363 1.394 . S
C1362 H1370 0.930 . S
C1363 C1362 1.394 . S
C1363 C1364 1.383 . S
C1363 H1371 0.929 . S
C1364 C1363 1.383 . S
C1364 C1365 1.377 . S
C1365 H1349 0.930 . S
C1365 C1364 1.377 . S
C1365 C1366 1.379 . S
C1366 H1350 0.931 . S
C1366 C1360 1.383 . S
C1366 C1365 1.379 . S
H1367 C1361 0.959 . S
H1368 C1361 0.961 . S
H1369 C1361 0.960 . S
H1370 C1362 0.930 . S
H1371 C1363 0.929 . S
H1372 C1380 0.929 . S
H1373 C1382 0.930 . S
H1374 C1384 0.930 . S
H1375 C1387 0.929 . S
H1376 C1390 0.930 . S
H1377 C1392 0.960 . S
H1378 C1392 0.960 . S
H1379 C1392 0.960 . S
C1380 H1372 0.929 . S
C1380 C1381 1.377 . S
C1380 C1382 1.384 . S
C1381 C1380 1.377 . S
C1381 C1387 1.390 . S
C1382 H1373 0.930 . S
C1382 C1380 1.384 . S
C1382 C1383 1.372 . S
C1383 C1382 1.372 . S
C1383 C1384 1.400 . S
C1383 C1388 1.490 . S
C1384 H1374 0.930 . S
C1384 C1383 1.400 . S
C1384 C1387 1.386 . S
H1385 C1401 0.930 . S
H1386 C1402 0.931 . S
C1387 H1375 0.929 . S
C1387 C1381 1.390 . S
C1387 C1384 1.386 . S
C1388 C1383 1.490 . S
C1388 C1390 1.395 . S
C1388 C1391 1.403 . S
H1389 C1395 0.930 . S
C1390 H1376 0.930 . S
C1390 C1388 1.395 . S
C1390 C1393 1.403 . S
C1391 C1388 1.403 . S
C1391 C1392 1.524 . S
C1391 C1395 1.400 . S
C1392 H1377 0.960 . S
C1392 H1378 0.960 . S
C1392 H1379 0.960 . S
C1392 C1391 1.524 . S
C1393 C1390 1.403 . S
C1393 C1394 1.392 . S
C1393 C1397 1.495 . S
C1394 C1393 1.392 . S
C1394 C1395 1.385 . S
C1394 C1396 1.478 . S
C1395 H1389 0.930 . S
C1395 C1391 1.400 . S
C1395 C1394 1.385 . S
C1396 C1394 1.478 . S
C1396 C1398 1.381 . S
C1396 C1402 1.383 . S
C1397 C1393 1.495 . S
C1397 H1403 0.959 . S
C1397 H1404 0.961 . S
C1397 H1405 0.960 . S
C1398 C1396 1.381 . S
C1398 C1399 1.394 . S
C1398 H1406 0.930 . S
C1399 C1398 1.394 . S
C1399 C1400 1.383 . S
C1399 H1407 0.929 . S
C1400 C1399 1.383 . S
C1400 C1401 1.377 . S
C1401 H1385 0.930 . S
C1401 C1400 1.377 . S
C1401 C1402 1.379 . S
C1402 H1386 0.931 . S
C1402 C1396 1.383 . S
C1402 C1401 1.379 . S
H1403 C1397 0.959 . S
H1404 C1397 0.961 . S
H1405 C1397 0.960 . S
H1406 C1398 0.930 . S
H1407 C1399 0.929 . S
H1408 C1416 0.929 . S
H1409 C1418 0.930 . S
H1410 C1420 0.930 . S
H1411 C1423 0.929 . S
H1412 C1426 0.930 . S
H1413 C1428 0.960 . S
H1414 C1428 0.960 . S
H1415 C1428 0.960 . S
C1416 H1408 0.929 . S
C1416 C1417 1.377 . S
C1416 C1418 1.384 1_455 S
C1417 C1416 1.377 . S
C1417 C1423 1.390 1_455 S
C1418 H1409 0.930 . S
C1418 C1416 1.384 1_655 S
C1418 C1419 1.372 . S
C1419 C1418 1.372 . S
C1419 C1420 1.400 . S
C1419 C1424 1.490 . S
C1420 H1410 0.930 . S
C1420 C1419 1.400 . S
C1420 C1423 1.386 . S
H1421 C1437 0.930 . S
H1422 C1438 0.931 . S
C1423 H1411 0.929 . S
C1423 C1417 1.390 1_655 S
C1423 C1420 1.386 . S
C1424 C1419 1.490 . S
C1424 C1426 1.395 . S
C1424 C1427 1.403 . S
H1425 C1431 0.930 . S
C1426 H1412 0.930 . S
C1426 C1424 1.395 . S
C1426 C1429 1.403 . S
C1427 C1424 1.403 . S
C1427 C1428 1.524 . S
C1427 C1431 1.400 . S
C1428 H1413 0.960 . S
C1428 H1414 0.960 . S
C1428 H1415 0.960 . S
C1428 C1427 1.524 . S
C1429 C1426 1.403 . S
C1429 C1430 1.392 . S
C1429 C1433 1.495 . S
C1430 C1429 1.392 . S
C1430 C1431 1.385 . S
C1430 C1432 1.478 . S
C1431 H1425 0.930 . S
C1431 C1427 1.400 . S
C1431 C1430 1.385 . S
C1432 C1430 1.478 . S
C1432 C1434 1.381 . S
C1432 C1438 1.383 . S
C1433 C1429 1.495 . S
C1433 H1439 0.959 . S
C1433 H1440 0.961 . S
C1433 H1441 0.960 . S
C1434 C1432 1.381 . S
C1434 C1435 1.394 . S
C1434 H1442 0.930 . S
C1435 C1434 1.394 . S
C1435 C1436 1.383 . S
C1435 H1443 0.929 . S
C1436 C1435 1.383 . S
C1436 C1437 1.377 . S
C1437 H1421 0.930 . S
C1437 C1436 1.377 . S
C1437 C1438 1.379 . S
C1438 H1422 0.931 . S
C1438 C1432 1.383 . S
C1438 C1437 1.379 . S
H1439 C1433 0.959 . S
H1440 C1433 0.961 . S
H1441 C1433 0.960 . S
H1442 C1434 0.930 . S
H1443 C1435 0.929 . S
H1444 C1452 0.929 . S
H1445 C1454 0.930 . S
H1446 C1456 0.930 . S
H1447 C1459 0.929 . S
H1448 C1462 0.930 . S
H1449 C1464 0.960 . S
H1450 C1464 0.960 . S
H1451 C1464 0.960 . S
C1452 H1444 0.929 . S
C1452 C1453 1.377 . S
C1452 C1454 1.384 . S
C1453 C1452 1.377 . S
C1453 C1459 1.390 . S
C1454 H1445 0.930 . S
C1454 C1452 1.384 . S
C1454 C1455 1.372 . S
C1455 C1454 1.372 . S
C1455 C1456 1.400 . S
C1455 C1460 1.490 . S
C1456 H1446 0.930 . S
C1456 C1455 1.400 . S
C1456 C1459 1.386 . S
H1457 C1473 0.930 . S
H1458 C1474 0.931 . S
C1459 H1447 0.929 . S
C1459 C1453 1.390 . S
C1459 C1456 1.386 . S
C1460 C1455 1.490 . S
C1460 C1462 1.395 . S
C1460 C1463 1.403 . S
H1461 C1467 0.930 . S
C1462 H1448 0.930 . S
C1462 C1460 1.395 . S
C1462 C1465 1.403 . S
C1463 C1460 1.403 . S
C1463 C1464 1.524 . S
C1463 C1467 1.400 . S
C1464 H1449 0.960 . S
C1464 H1450 0.960 . S
C1464 H1451 0.960 . S
C1464 C1463 1.524 . S
C1465 C1462 1.403 . S
C1465 C1466 1.392 . S
C1465 C1469 1.495 . S
C1466 C1465 1.392 . S
C1466 C1467 1.385 . S
C1466 C1468 1.478 . S
C1467 H1461 0.930 . S
C1467 C1463 1.400 . S
C1467 C1466 1.385 . S
C1468 C1466 1.478 . S
C1468 C1470 1.381 . S
C1468 C1474 1.383 . S
C1469 C1465 1.495 . S
C1469 H1475 0.959 . S
C1469 H1476 0.961 . S
C1469 H1477 0.960 . S
C1470 C1468 1.381 . S
C1470 C1471 1.394 . S
C1470 H1478 0.930 . S
C1471 C1470 1.394 . S
C1471 C1472 1.383 . S
C1471 H1479 0.929 . S
C1472 C1471 1.383 . S
C1472 C1473 1.377 . S
C1473 H1457 0.930 . S
C1473 C1472 1.377 . S
C1473 C1474 1.379 . S
C1474 H1458 0.931 . S
C1474 C1468 1.383 . S
C1474 C1473 1.379 . S
H1475 C1469 0.959 . S
H1476 C1469 0.961 . S
H1477 C1469 0.960 . S
H1478 C1470 0.930 . S
H1479 C1471 0.929 . S
H1480 C1488 0.929 1_655 S
H1481 C1490 0.930 . S
H1482 C1492 0.930 . S
H1483 C1495 0.929 . S
H1484 C1498 0.930 . S
H1485 C1500 0.960 . S
H1486 C1500 0.960 . S
H1487 C1500 0.960 . S
C1488 H1480 0.929 1_455 S
C1488 C1489 1.377 . S
C1488 C1490 1.384 . S
C1489 C1488 1.377 . S
C1489 C1495 1.390 . S
C1490 H1481 0.930 . S
C1490 C1488 1.384 . S
C1490 C1491 1.372 . S
C1491 C1490 1.372 . S
C1491 C1492 1.400 . S
C1491 C1496 1.490 . S
C1492 H1482 0.930 . S
C1492 C1491 1.400 . S
C1492 C1495 1.386 . S
H1493 C1509 0.930 . S
H1494 C1510 0.931 . S
C1495 H1483 0.929 . S
C1495 C1489 1.390 . S
C1495 C1492 1.386 . S
C1496 C1491 1.490 . S
C1496 C1498 1.395 . S
C1496 C1499 1.403 . S
H1497 C1503 0.930 . S
C1498 H1484 0.930 . S
C1498 C1496 1.395 . S
C1498 C1501 1.403 . S
C1499 C1496 1.403 . S
C1499 C1500 1.524 . S
C1499 C1503 1.400 . S
C1500 H1485 0.960 . S
C1500 H1486 0.960 . S
C1500 H1487 0.960 . S
C1500 C1499 1.524 . S
C1501 C1498 1.403 . S
C1501 C1502 1.392 . S
C1501 C1505 1.495 . S
C1502 C1501 1.392 . S
C1502 C1503 1.385 . S
C1502 C1504 1.478 . S
C1503 H1497 0.930 . S
C1503 C1499 1.400 . S
C1503 C1502 1.385 . S
C1504 C1502 1.478 . S
C1504 C1506 1.381 . S
C1504 C1510 1.383 . S
C1505 C1501 1.495 . S
C1505 H1511 0.959 . S
C1505 H1512 0.961 . S
C1505 H1513 0.960 . S
C1506 C1504 1.381 . S
C1506 C1507 1.394 . S
C1506 H1514 0.930 . S
C1507 C1506 1.394 . S
C1507 C1508 1.383 . S
C1507 H1515 0.929 . S
C1508 C1507 1.383 . S
C1508 C1509 1.377 . S
C1509 H1493 0.930 . S
C1509 C1508 1.377 . S
C1509 C1510 1.379 . S
C1510 H1494 0.931 . S
C1510 C1504 1.383 . S
C1510 C1509 1.379 . S
H1511 C1505 0.959 . S
H1512 C1505 0.961 . S
H1513 C1505 0.960 . S
H1514 C1506 0.930 . S
H1515 C1507 0.929 . S
H1516 C1524 0.929 . S
H1517 C1526 0.930 . S
H1518 C1528 0.930 . S
H1519 C1531 0.929 . S
H1520 C1534 0.930 . S
H1521 C1536 0.960 . S
H1522 C1536 0.960 . S
H1523 C1536 0.960 . S
C1524 H1516 0.929 . S
C1524 C1525 1.377 . S
C1524 C1526 1.384 . S
C1525 C1524 1.377 . S
C1525 C1531 1.390 . S
C1526 H1517 0.930 . S
C1526 C1524 1.384 . S
C1526 C1527 1.372 . S
C1527 C1526 1.372 . S
C1527 C1528 1.400 . S
C1527 C1532 1.490 . S
C1528 H1518 0.930 . S
C1528 C1527 1.400 . S
C1528 C1531 1.386 . S
H1529 C1545 0.930 . S
H1530 C1546 0.931 . S
C1531 H1519 0.929 . S
C1531 C1525 1.390 . S
C1531 C1528 1.386 . S
C1532 C1527 1.490 . S
C1532 C1534 1.395 . S
C1532 C1535 1.403 . S
H1533 C1539 0.930 . S
C1534 H1520 0.930 . S
C1534 C1532 1.395 . S
C1534 C1537 1.403 . S
C1535 C1532 1.403 . S
C1535 C1536 1.524 . S
C1535 C1539 1.400 . S
C1536 H1521 0.960 . S
C1536 H1522 0.960 . S
C1536 H1523 0.960 . S
C1536 C1535 1.524 . S
C1537 C1534 1.403 . S
C1537 C1538 1.392 . S
C1537 C1541 1.495 . S
C1538 C1537 1.392 . S
C1538 C1539 1.385 . S
C1538 C1540 1.478 . S
C1539 H1533 0.930 . S
C1539 C1535 1.400 . S
C1539 C1538 1.385 . S
C1540 C1538 1.478 . S
C1540 C1542 1.381 . S
C1540 C1546 1.383 . S
C1541 C1537 1.495 . S
C1541 H1547 0.959 . S
C1541 H1548 0.961 . S
C1541 H1549 0.960 . S
C1542 C1540 1.381 . S
C1542 C1543 1.394 . S
C1542 H1550 0.930 . S
C1543 C1542 1.394 . S
C1543 C1544 1.383 . S
C1543 H1551 0.929 . S
C1544 C1543 1.383 . S
C1544 C1545 1.377 . S
C1545 H1529 0.930 . S
C1545 C1544 1.377 . S
C1545 C1546 1.379 . S
C1546 H1530 0.931 . S
C1546 C1540 1.383 . S
C1546 C1545 1.379 . S
H1547 C1541 0.959 . S
H1548 C1541 0.961 . S
H1549 C1541 0.960 . S
H1550 C1542 0.930 . S
H1551 C1543 0.929 . S
H1552 C1560 0.929 1_455 S
H1553 C1562 0.930 1_455 S
H1554 C1564 0.930 . S
H1555 C1567 0.929 . S
H1556 C1570 0.930 1_455 S
H1557 C1572 0.960 . S
H1558 C1572 0.960 . S
H1559 C1572 0.960 . S
C1560 H1552 0.929 1_655 S
C1560 C1561 1.377 . S
C1560 C1562 1.384 1_554 S
C1561 C1560 1.377 . S
C1561 C1567 1.390 . S
C1562 H1553 0.930 1_655 S
C1562 C1560 1.384 1_556 S
C1562 C1563 1.372 . S
C1563 C1562 1.372 . S
C1563 C1564 1.400 . S
C1563 C1568 1.490 . S
C1564 H1554 0.930 . S
C1564 C1563 1.400 . S
C1564 C1567 1.386 1_556 S
H1565 C1581 0.930 . S
H1566 C1582 0.931 . S
C1567 H1555 0.929 . S
C1567 C1561 1.390 . S
C1567 C1564 1.386 1_554 S
C1568 C1563 1.490 . S
C1568 C1570 1.395 . S
C1568 C1571 1.403 . S
H1569 C1575 0.930 . S
C1570 H1556 0.930 1_655 S
C1570 C1568 1.395 . S
C1570 C1573 1.403 1_655 S
C1571 C1568 1.403 . S
C1571 C1572 1.524 . S
C1571 C1575 1.400 . S
C1572 H1557 0.960 . S
C1572 H1558 0.960 . S
C1572 H1559 0.960 . S
C1572 C1571 1.524 . S
C1573 C1570 1.403 1_455 S
C1573 C1574 1.392 1_455 S
C1573 C1577 1.495 . S
C1574 C1573 1.392 1_655 S
C1574 C1575 1.385 . S
C1574 C1576 1.478 . S
C1575 H1569 0.930 . S
C1575 C1571 1.400 . S
C1575 C1574 1.385 . S
C1576 C1574 1.478 . S
C1576 C1578 1.381 1_655 S
C1576 C1582 1.383 . S
C1577 C1573 1.495 . S
C1577 H1583 0.959 . S
C1577 H1584 0.961 . S
C1577 H1585 0.960 . S
C1578 C1576 1.381 1_455 S
C1578 C1579 1.394 . S
C1578 H1586 0.930 . S
C1579 C1578 1.394 . S
C1579 C1580 1.383 1_455 S
C1579 H1587 0.929 . S
C1580 C1579 1.383 1_655 S
C1580 C1581 1.377 . S
C1581 H1565 0.930 . S
C1581 C1580 1.377 . S
C1581 C1582 1.379 . S
C1582 H1566 0.931 . S
C1582 C1576 1.383 . S
C1582 C1581 1.379 . S
H1583 C1577 0.959 . S
H1584 C1577 0.961 . S
H1585 C1577 0.960 . S
H1586 C1578 0.930 . S
H1587 C1579 0.929 . S
H1588 C1596 0.929 . S
H1589 C1598 0.930 . S
H1590 C1600 0.930 . S
H1591 C1603 0.929 . S
H1592 C1606 0.930 . S
H1593 C1608 0.960 . S
H1594 C1608 0.960 . S
H1595 C1608 0.960 . S
C1596 H1588 0.929 . S
C1596 C1597 1.377 . S
C1596 C1598 1.384 . S
C1597 C1596 1.377 . S
C1597 C1603 1.390 . S
C1598 H1589 0.930 . S
C1598 C1596 1.384 . S
C1598 C1599 1.372 . S
C1599 C1598 1.372 . S
C1599 C1600 1.400 . S
C1599 C1604 1.490 . S
C1600 H1590 0.930 . S
C1600 C1599 1.400 . S
C1600 C1603 1.386 . S
H1601 C1617 0.930 . S
H1602 C1618 0.931 . S
C1603 H1591 0.929 . S
C1603 C1597 1.390 . S
C1603 C1600 1.386 . S
C1604 C1599 1.490 . S
C1604 C1606 1.395 . S
C1604 C1607 1.403 . S
H1605 C1611 0.930 . S
C1606 H1592 0.930 . S
C1606 C1604 1.395 . S
C1606 C1609 1.403 . S
C1607 C1604 1.403 . S
C1607 C1608 1.524 . S
C1607 C1611 1.400 . S
C1608 H1593 0.960 . S
C1608 H1594 0.960 . S
C1608 H1595 0.960 . S
C1608 C1607 1.524 . S
C1609 C1606 1.403 . S
C1609 C1610 1.392 . S
C1609 C1613 1.495 . S
C1610 C1609 1.392 . S
C1610 C1611 1.385 . S
C1610 C1612 1.478 . S
C1611 H1605 0.930 . S
C1611 C1607 1.400 . S
C1611 C1610 1.385 . S
C1612 C1610 1.478 . S
C1612 C1614 1.381 . S
C1612 C1618 1.383 . S
C1613 C1609 1.495 . S
C1613 H1619 0.959 . S
C1613 H1620 0.961 . S
C1613 H1621 0.960 . S
C1614 C1612 1.381 . S
C1614 C1615 1.394 . S
C1614 H1622 0.930 . S
C1615 C1614 1.394 . S
C1615 C1616 1.383 . S
C1615 H1623 0.929 . S
C1616 C1615 1.383 . S
C1616 C1617 1.377 . S
C1617 H1601 0.930 . S
C1617 C1616 1.377 . S
C1617 C1618 1.379 . S
C1618 H1602 0.931 . S
C1618 C1612 1.383 . S
C1618 C1617 1.379 . S
H1619 C1613 0.959 . S
H1620 C1613 0.961 . S
H1621 C1613 0.960 . S
H1622 C1614 0.930 . S
H1623 C1615 0.929 . S
H1624 C1632 0.929 . S
H1625 C1634 0.930 . S
H1626 C1636 0.930 1_655 S
H1627 C1639 0.937 . S
H1628 C1642 0.930 . S
H1629 C1644 0.960 . S
H1630 C1644 0.988 . S
H1631 C1644 0.960 . S
C1632 H1624 0.929 . S
C1632 C1633 1.377 . S
C1632 C1634 1.384 . S
C1633 C1632 1.377 . S
C1633 C1639 1.390 1_554 S
C1634 H1625 0.930 . S
C1634 C1632 1.384 . S
C1634 C1635 1.372 1_554 S
C1635 C1634 1.372 1_556 S
C1635 C1636 1.400 . S
C1635 C1640 1.490 . S
C1636 H1626 0.930 1_455 S
C1636 C1635 1.400 . S
C1636 C1639 1.386 . S
H1637 C1653 0.930 . S
H1638 C1654 0.931 . S
C1639 H1627 0.937 . S
C1639 C1633 1.390 1_556 S
C1639 C1636 1.386 . S
C1640 C1635 1.490 . S
C1640 C1642 1.395 . S
C1640 C1643 1.403 1_455 S
H1641 C1647 0.930 . S
C1642 H1628 0.930 . S
C1642 C1640 1.395 . S
C1642 C1645 1.403 . S
C1643 C1640 1.403 1_655 S
C1643 C1644 1.524 . S
C1643 C1647 1.400 . S
C1644 H1629 0.960 . S
C1644 H1630 0.988 . S
C1644 H1631 0.960 . S
C1644 C1643 1.524 . S
C1645 C1642 1.403 . S
C1645 C1646 1.392 . S
C1645 C1649 1.495 . S
C1646 C1645 1.392 . S
C1646 C1647 1.385 1_455 S
C1646 C1648 1.478 . S
C1647 H1641 0.930 . S
C1647 C1643 1.400 . S
C1647 C1646 1.385 1_655 S
C1648 C1646 1.478 . S
C1648 C1650 1.381 . S
C1648 C1654 1.383 1_455 S
C1649 C1645 1.495 . S
C1649 H1655 0.959 . S
C1649 H1656 0.961 . S
C1649 H1657 0.960 . S
C1650 C1648 1.381 . S
C1650 C1651 1.394 . S
C1650 H1658 0.930 . S
C1651 C1650 1.394 . S
C1651 C1652 1.383 . S
C1651 H1659 0.929 . S
C1652 C1651 1.383 . S
C1652 C1653 1.377 1_455 S
C1653 H1637 0.930 . S
C1653 C1652 1.377 1_655 S
C1653 C1654 1.379 . S
C1654 H1638 0.931 . S
C1654 C1648 1.383 1_655 S
C1654 C1653 1.379 . S
H1655 C1649 0.959 . S
H1656 C1649 0.961 . S
H1657 C1649 0.960 . S
H1658 C1650 0.930 . S
H1659 C1651 0.929 . S
H1660 C1668 0.929 . S
H1661 C1670 0.930 . S
H1662 C1672 0.930 . S
H1663 C1675 0.929 . S
H1664 C1678 0.930 . S
H1665 C1680 0.960 . S
H1666 C1680 0.960 . S
H1667 C1680 0.960 . S
C1668 H1660 0.929 . S
C1668 C1669 1.377 . S
C1668 C1670 1.384 . S
C1669 C1668 1.377 . S
C1669 C1675 1.390 . S
C1670 H1661 0.930 . S
C1670 C1668 1.384 . S
C1670 C1671 1.372 . S
C1671 C1670 1.372 . S
C1671 C1672 1.400 . S
C1671 C1676 1.490 . S
C1672 H1662 0.930 . S
C1672 C1671 1.400 . S
C1672 C1675 1.386 . S
H1673 C1689 0.930 . S
H1674 C1690 0.931 . S
C1675 H1663 0.929 . S
C1675 C1669 1.390 . S
C1675 C1672 1.386 . S
C1676 C1671 1.490 . S
C1676 C1678 1.395 . S
C1676 C1679 1.403 . S
H1677 C1683 0.930 . S
C1678 H1664 0.930 . S
C1678 C1676 1.395 . S
C1678 C1681 1.403 . S
C1679 C1676 1.403 . S
C1679 C1680 1.524 . S
C1679 C1683 1.400 . S
C1680 H1665 0.960 . S
C1680 H1666 0.960 . S
C1680 H1667 0.960 . S
C1680 C1679 1.524 . S
C1681 C1678 1.403 . S
C1681 C1682 1.392 . S
C1681 C1685 1.495 . S
C1682 C1681 1.392 . S
C1682 C1683 1.385 . S
C1682 C1684 1.478 . S
C1683 H1677 0.930 . S
C1683 C1679 1.400 . S
C1683 C1682 1.385 . S
C1684 C1682 1.478 . S
C1684 C1686 1.381 . S
C1684 C1690 1.383 . S
C1685 C1681 1.495 . S
C1685 H1691 0.959 . S
C1685 H1692 0.961 . S
C1685 H1693 0.960 . S
C1686 C1684 1.381 . S
C1686 C1687 1.394 . S
C1686 H1694 0.930 . S
C1687 C1686 1.394 . S
C1687 C1688 1.383 . S
C1687 H1695 0.929 . S
C1688 C1687 1.383 . S
C1688 C1689 1.377 . S
C1689 H1673 0.930 . S
C1689 C1688 1.377 . S
C1689 C1690 1.379 . S
C1690 H1674 0.931 . S
C1690 C1684 1.383 . S
C1690 C1689 1.379 . S
H1691 C1685 0.959 . S
H1692 C1685 0.961 . S
H1693 C1685 0.960 . S
H1694 C1686 0.930 . S
H1695 C1687 0.929 . S
H1696 C1704 0.929 . S
H1697 C1706 0.930 . S
H1698 C1708 0.930 . S
H1699 C1711 0.929 . S
H1700 C1714 0.930 . S
H1701 C1716 0.960 . S
H1702 C1716 0.960 1_556 S
H1703 C1716 0.961 1_556 S
C1704 H1696 0.929 . S
C1704 C1705 1.377 . S
C1704 C1706 1.384 1_556 S
C1705 C1704 1.377 . S
C1705 C1711 1.390 . S
C1706 H1697 0.930 . S
C1706 C1704 1.384 1_554 S
C1706 C1707 1.372 . S
C1707 C1706 1.372 . S
C1707 C1708 1.400 . S
C1707 C1712 1.490 . S
C1708 H1698 0.930 . S
C1708 C1707 1.400 . S
C1708 C1711 1.386 1_554 S
H1709 C1725 0.930 . S
H1710 C1726 0.931 . S
C1711 H1699 0.929 . S
C1711 C1705 1.390 . S
C1711 C1708 1.386 1_556 S
C1712 C1707 1.490 . S
C1712 C1714 1.395 . S
C1712 C1715 1.403 . S
H1713 C1719 0.930 . S
C1714 H1700 0.930 . S
C1714 C1712 1.395 . S
C1714 C1717 1.403 . S
C1715 C1712 1.403 . S
C1715 C1716 1.524 . S
C1715 C1719 1.400 . S
C1716 H1701 0.960 . S
C1716 H1702 0.960 1_554 S
C1716 H1703 0.961 1_554 S
C1716 C1715 1.524 . S
C1717 C1714 1.403 . S
C1717 C1718 1.392 . S
C1717 C1721 1.495 . S
C1718 C1717 1.392 . S
C1718 C1719 1.385 . S
C1718 C1720 1.478 . S
C1719 H1713 0.930 . S
C1719 C1715 1.400 . S
C1719 C1718 1.385 . S
C1720 C1718 1.478 . S
C1720 C1722 1.381 . S
C1720 C1726 1.383 . S
C1721 C1717 1.495 . S
C1721 H1727 0.959 . S
C1721 H1728 0.961 . S
C1721 H1729 0.960 . S
C1722 C1720 1.381 . S
C1722 C1723 1.394 . S
C1722 H1730 0.930 . S
C1723 C1722 1.394 . S
C1723 C1724 1.383 . S
C1723 H1731 0.929 . S
C1724 C1723 1.383 . S
C1724 C1725 1.377 . S
C1725 H1709 0.930 . S
C1725 C1724 1.377 . S
C1725 C1726 1.379 . S
C1726 H1710 0.931 . S
C1726 C1720 1.383 . S
C1726 C1725 1.379 . S
H1727 C1721 0.959 . S
H1728 C1721 0.961 . S
H1729 C1721 0.960 . S
H1730 C1722 0.930 . S
H1731 C1723 0.929 . S
H1732 C1740 0.929 . S
H1733 C1742 0.930 . S
H1734 C1744 0.930 . S
H1735 C1747 0.929 . S
H1736 C1750 0.930 . S
H1737 C1752 0.960 . S
H1738 C1752 0.960 . S
H1739 C1752 0.960 . S
C1740 H1732 0.929 . S
C1740 C1741 1.377 . S
C1740 C1742 1.384 . S
C1741 C1740 1.377 . S
C1741 C1747 1.390 . S
C1742 H1733 0.930 . S
C1742 C1740 1.384 . S
C1742 C1743 1.372 . S
C1743 C1742 1.372 . S
C1743 C1744 1.400 . S
C1743 C1748 1.490 . S
C1744 H1734 0.930 . S
C1744 C1743 1.400 . S
C1744 C1747 1.386 . S
H1745 C1761 0.930 . S
H1746 C1762 0.931 . S
C1747 H1735 0.929 . S
C1747 C1741 1.390 . S
C1747 C1744 1.386 . S
C1748 C1743 1.490 . S
C1748 C1750 1.395 . S
C1748 C1751 1.403 . S
H1749 C1755 0.930 . S
C1750 H1736 0.930 . S
C1750 C1748 1.395 . S
C1750 C1753 1.403 . S
C1751 C1748 1.403 . S
C1751 C1752 1.524 . S
C1751 C1755 1.400 . S
C1752 H1737 0.960 . S
C1752 H1738 0.960 . S
C1752 H1739 0.960 . S
C1752 C1751 1.524 . S
C1753 C1750 1.403 . S
C1753 C1754 1.392 . S
C1753 C1757 1.495 . S
C1754 C1753 1.392 . S
C1754 C1755 1.385 . S
C1754 C1756 1.478 . S
C1755 H1749 0.930 . S
C1755 C1751 1.400 . S
C1755 C1754 1.385 . S
C1756 C1754 1.478 . S
C1756 C1758 1.381 . S
C1756 C1762 1.383 . S
C1757 C1753 1.495 . S
C1757 H1763 0.959 . S
C1757 H1764 0.961 . S
C1757 H1765 0.960 . S
C1758 C1756 1.381 . S
C1758 C1759 1.394 . S
C1758 H1766 0.930 . S
C1759 C1758 1.394 . S
C1759 C1760 1.383 . S
C1759 H1767 0.929 . S
C1760 C1759 1.383 . S
C1760 C1761 1.377 . S
C1761 H1745 0.930 . S
C1761 C1760 1.377 . S
C1761 C1762 1.379 . S
C1762 H1746 0.931 . S
C1762 C1756 1.383 . S
C1762 C1761 1.379 . S
H1763 C1757 0.959 . S
H1764 C1757 0.961 . S
H1765 C1757 0.960 . S
H1766 C1758 0.930 . S
H1767 C1759 0.929 . S
H1768 C1776 0.929 1_556 S
H1769 C1778 0.930 . S
H1770 C1780 0.930 . S
H1771 C1783 0.929 . S
H1772 C1786 0.930 . S
H1773 C1788 0.960 . S
H1774 C1788 0.960 . S
H1775 C1788 0.960 . S
C1776 H1768 0.929 1_554 S
C1776 C1777 1.377 . S
C1776 C1778 1.384 . S
C1777 C1776 1.377 . S
C1777 C1783 1.390 . S
C1778 H1769 0.930 . S
C1778 C1776 1.384 . S
C1778 C1779 1.372 . S
C1779 C1778 1.372 . S
C1779 C1780 1.400 . S
C1779 C1784 1.490 . S
C1780 H1770 0.930 . S
C1780 C1779 1.400 . S
C1780 C1783 1.386 . S
H1781 C1797 0.930 . S
H1782 C1798 0.931 . S
C1783 H1771 0.929 . S
C1783 C1777 1.390 . S
C1783 C1780 1.386 . S
C1784 C1779 1.490 . S
C1784 C1786 1.395 . S
C1784 C1787 1.403 . S
H1785 C1791 0.930 . S
C1786 H1772 0.930 . S
C1786 C1784 1.395 . S
C1786 C1789 1.403 . S
C1787 C1784 1.403 . S
C1787 C1788 1.524 . S
C1787 C1791 1.400 . S
C1788 H1773 0.960 . S
C1788 H1774 0.960 . S
C1788 H1775 0.960 . S
C1788 C1787 1.524 . S
C1789 C1786 1.403 . S
C1789 C1790 1.392 . S
C1789 C1793 1.495 . S
C1790 C1789 1.392 . S
C1790 C1791 1.385 . S
C1790 C1792 1.478 . S
C1791 H1785 0.930 . S
C1791 C1787 1.400 . S
C1791 C1790 1.385 . S
C1792 C1790 1.478 . S
C1792 C1794 1.381 . S
C1792 C1798 1.383 . S
C1793 C1789 1.495 . S
C1793 H1799 0.959 . S
C1793 H1800 0.961 . S
C1793 H1801 0.960 . S
C1794 C1792 1.381 . S
C1794 C1795 1.394 . S
C1794 H1802 0.930 . S
C1795 C1794 1.394 . S
C1795 C1796 1.383 . S
C1795 H1803 0.929 . S
C1796 C1795 1.383 . S
C1796 C1797 1.377 . S
C1797 H1781 0.930 . S
C1797 C1796 1.377 . S
C1797 C1798 1.379 . S
C1798 H1782 0.931 . S
C1798 C1792 1.383 . S
C1798 C1797 1.379 . S
H1799 C1793 0.959 . S
H1800 C1793 0.961 . S
H1801 C1793 0.960 . S
H1802 C1794 0.930 . S
H1803 C1795 0.929 . S
H1804 C1812 0.929 . S
H1805 C1814 0.930 . S
H1806 C1816 0.930 . S
H1807 C1819 0.929 . S
H1808 C1822 0.930 . S
H1809 C1824 0.960 . S
H1810 C1824 0.960 . S
H1811 C1824 0.960 . S
C1812 H1804 0.929 . S
C1812 C1813 1.377 . S
C1812 C1814 1.384 . S
C1813 C1812 1.377 . S
C1813 C1819 1.390 . S
C1814 H1805 0.930 . S
C1814 C1812 1.384 . S
C1814 C1815 1.372 . S
C1815 C1814 1.372 . S
C1815 C1816 1.400 . S
C1815 C1820 1.490 . S
C1816 H1806 0.930 . S
C1816 C1815 1.400 . S
C1816 C1819 1.386 . S
H1817 C1833 0.930 . S
H1818 C1834 0.931 . S
C1819 H1807 0.929 . S
C1819 C1813 1.390 . S
C1819 C1816 1.386 . S
C1820 C1815 1.490 . S
C1820 C1822 1.395 . S
C1820 C1823 1.403 . S
H1821 C1827 0.930 . S
C1822 H1808 0.930 . S
C1822 C1820 1.395 . S
C1822 C1825 1.403 . S
C1823 C1820 1.403 . S
C1823 C1824 1.524 . S
C1823 C1827 1.400 . S
C1824 H1809 0.960 . S
C1824 H1810 0.960 . S
C1824 H1811 0.960 . S
C1824 C1823 1.524 . S
C1825 C1822 1.403 . S
C1825 C1826 1.392 . S
C1825 C1829 1.495 . S
C1826 C1825 1.392 . S
C1826 C1827 1.385 . S
C1826 C1828 1.478 . S
C1827 H1821 0.930 . S
C1827 C1823 1.400 . S
C1827 C1826 1.385 . S
C1828 C1826 1.478 . S
C1828 C1830 1.381 . S
C1828 C1834 1.383 . S
C1829 C1825 1.495 . S
C1829 H1835 0.959 . S
C1829 H1836 0.961 . S
C1829 H1837 0.960 . S
C1830 C1828 1.381 . S
C1830 C1831 1.394 . S
C1830 H1838 0.930 . S
C1831 C1830 1.394 . S
C1831 C1832 1.383 . S
C1831 H1839 0.929 . S
C1832 C1831 1.383 . S
C1832 C1833 1.377 . S
C1833 H1817 0.930 . S
C1833 C1832 1.377 . S
C1833 C1834 1.379 . S
C1834 H1818 0.931 . S
C1834 C1828 1.383 . S
C1834 C1833 1.379 . S
H1835 C1829 0.959 . S
H1836 C1829 0.961 . S
H1837 C1829 0.960 . S
H1838 C1830 0.930 . S
H1839 C1831 0.929 . S
H1840 C1848 0.929 . S
H1841 C1850 0.930 . S
H1842 C1852 0.930 . S
H1843 C1855 0.929 . S
H1844 C1858 0.930 . S
H1845 C1860 0.960 . S
H1846 C1860 0.960 . S
H1847 C1860 0.960 . S
C1848 H1840 0.929 . S
C1848 C1849 1.377 . S
C1848 C1850 1.384 . S
C1849 C1848 1.377 . S
C1849 C1855 1.390 . S
C1850 H1841 0.930 . S
C1850 C1848 1.384 . S
C1850 C1851 1.372 . S
C1851 C1850 1.372 . S
C1851 C1852 1.400 . S
C1851 C1856 1.490 . S
C1852 H1842 0.930 . S
C1852 C1851 1.400 . S
C1852 C1855 1.386 . S
H1853 C1869 0.930 . S
H1854 C1870 0.931 . S
C1855 H1843 0.929 . S
C1855 C1849 1.390 . S
C1855 C1852 1.386 . S
C1856 C1851 1.490 . S
C1856 C1858 1.395 . S
C1856 C1859 1.403 . S
H1857 C1863 0.930 . S
C1858 H1844 0.930 . S
C1858 C1856 1.395 . S
C1858 C1861 1.403 . S
C1859 C1856 1.403 . S
C1859 C1860 1.524 . S
C1859 C1863 1.400 . S
C1860 H1845 0.960 . S
C1860 H1846 0.960 . S
C1860 H1847 0.960 . S
C1860 C1859 1.524 . S
C1861 C1858 1.403 . S
C1861 C1862 1.392 . S
C1861 C1865 1.495 . S
C1862 C1861 1.392 . S
C1862 C1863 1.385 . S
C1862 C1864 1.478 . S
C1863 H1857 0.930 . S
C1863 C1859 1.400 . S
C1863 C1862 1.385 . S
C1864 C1862 1.478 . S
C1864 C1866 1.381 . S
C1864 C1870 1.383 . S
C1865 C1861 1.495 . S
C1865 H1871 0.959 . S
C1865 H1872 0.961 . S
C1865 H1873 0.960 . S
C1866 C1864 1.381 . S
C1866 C1867 1.394 . S
C1866 H1874 0.930 . S
C1867 C1866 1.394 . S
C1867 C1868 1.383 . S
C1867 H1875 0.929 . S
C1868 C1867 1.383 . S
C1868 C1869 1.377 . S
C1869 H1853 0.930 . S
C1869 C1868 1.377 . S
C1869 C1870 1.379 . S
C1870 H1854 0.931 . S
C1870 C1864 1.383 . S
C1870 C1869 1.379 . S
H1871 C1865 0.959 . S
H1872 C1865 0.961 . S
H1873 C1865 0.960 . S
H1874 C1866 0.930 . S
H1875 C1867 0.929 . S
H1876 C1884 0.929 . S
H1877 C1886 0.930 . S
H1878 C1888 0.930 . S
H1879 C1891 0.929 . S
H1880 C1894 0.930 . S
H1881 C1896 0.960 . S
H1882 C1896 0.960 . S
H1883 C1896 0.960 . S
C1884 H1876 0.929 . S
C1884 C1885 1.377 . S
C1884 C1886 1.384 . S
C1885 C1884 1.377 . S
C1885 C1891 1.390 . S
C1886 H1877 0.930 . S
C1886 C1884 1.384 . S
C1886 C1887 1.372 . S
C1887 C1886 1.372 . S
C1887 C1888 1.400 . S
C1887 C1892 1.490 . S
C1888 H1878 0.930 . S
C1888 C1887 1.400 . S
C1888 C1891 1.386 . S
H1889 C1905 0.930 . S
H1890 C1906 0.931 . S
C1891 H1879 0.929 . S
C1891 C1885 1.390 . S
C1891 C1888 1.386 . S
C1892 C1887 1.490 . S
C1892 C1894 1.395 . S
C1892 C1895 1.403 . S
H1893 C1899 0.930 . S
C1894 H1880 0.930 . S
C1894 C1892 1.395 . S
C1894 C1897 1.403 . S
C1895 C1892 1.403 . S
C1895 C1896 1.524 . S
C1895 C1899 1.400 . S
C1896 H1881 0.960 . S
C1896 H1882 0.960 . S
C1896 H1883 0.960 . S
C1896 C1895 1.524 . S
C1897 C1894 1.403 . S
C1897 C1898 1.392 . S
C1897 C1901 1.495 . S
C1898 C1897 1.392 . S
C1898 C1899 1.385 . S
C1898 C1900 1.478 . S
C1899 H1893 0.930 . S
C1899 C1895 1.400 . S
C1899 C1898 1.385 . S
C1900 C1898 1.478 . S
C1900 C1902 1.381 . S
C1900 C1906 1.383 . S
C1901 C1897 1.495 . S
C1901 H1907 0.959 . S
C1901 H1908 0.961 . S
C1901 H1909 0.960 . S
C1902 C1900 1.381 . S
C1902 C1903 1.394 . S
C1902 H1910 0.930 . S
C1903 C1902 1.394 . S
C1903 C1904 1.383 . S
C1903 H1911 0.929 . S
C1904 C1903 1.383 . S
C1904 C1905 1.377 . S
C1905 H1889 0.930 . S
C1905 C1904 1.377 . S
C1905 C1906 1.379 . S
C1906 H1890 0.931 . S
C1906 C1900 1.383 . S
C1906 C1905 1.379 . S
H1907 C1901 0.959 . S
H1908 C1901 0.961 . S
H1909 C1901 0.960 . S
H1910 C1902 0.930 . S
H1911 C1903 0.929 . S
H1912 C1920 0.929 . S
H1913 C1922 0.930 . S
H1914 C1924 0.930 . S
H1915 C1927 0.929 . S
H1916 C1930 0.930 . S
H1917 C1932 0.960 . S
H1918 C1932 0.960 . S
H1919 C1932 0.960 . S
C1920 H1912 0.929 . S
C1920 C1921 1.377 . S
C1920 C1922 1.384 . S
C1921 C1920 1.377 . S
C1921 C1927 1.390 . S
C1922 H1913 0.930 . S
C1922 C1920 1.384 . S
C1922 C1923 1.372 . S
C1923 C1922 1.372 . S
C1923 C1924 1.400 . S
C1923 C1928 1.490 . S
C1924 H1914 0.930 . S
C1924 C1923 1.400 . S
C1924 C1927 1.386 . S
H1925 C1941 0.930 . S
H1926 C1942 0.931 . S
C1927 H1915 0.929 . S
C1927 C1921 1.390 . S
C1927 C1924 1.386 . S
C1928 C1923 1.490 . S
C1928 C1930 1.395 . S
C1928 C1931 1.403 . S
H1929 C1935 0.930 . S
C1930 H1916 0.930 . S
C1930 C1928 1.395 . S
C1930 C1933 1.403 . S
C1931 C1928 1.403 . S
C1931 C1932 1.524 . S
C1931 C1935 1.400 . S
C1932 H1917 0.960 . S
C1932 H1918 0.960 . S
C1932 H1919 0.960 . S
C1932 C1931 1.524 . S
C1933 C1930 1.403 . S
C1933 C1934 1.392 . S
C1933 C1937 1.495 . S
C1934 C1933 1.392 . S
C1934 C1935 1.385 . S
C1934 C1936 1.478 . S
C1935 H1929 0.930 . S
C1935 C1931 1.400 . S
C1935 C1934 1.385 . S
C1936 C1934 1.478 . S
C1936 C1938 1.381 . S
C1936 C1942 1.383 . S
C1937 C1933 1.495 . S
C1937 H1943 0.959 . S
C1937 H1944 0.961 . S
C1937 H1945 0.960 . S
C1938 C1936 1.381 . S
C1938 C1939 1.394 . S
C1938 H1946 0.930 . S
C1939 C1938 1.394 . S
C1939 C1940 1.383 . S
C1939 H1947 0.929 . S
C1940 C1939 1.383 . S
C1940 C1941 1.377 . S
C1941 H1925 0.930 . S
C1941 C1940 1.377 . S
C1941 C1942 1.379 . S
C1942 H1926 0.931 . S
C1942 C1936 1.383 . S
C1942 C1941 1.379 . S
H1943 C1937 0.959 . S
H1944 C1937 0.961 . S
H1945 C1937 0.960 . S
H1946 C1938 0.930 . S
H1947 C1939 0.929 . S
H1948 C1956 0.929 . S
H1949 C1958 0.930 1_554 S
H1950 C1960 0.930 . S
H1951 C1963 0.929 . S
H1952 C1966 0.930 . S
H1953 C1968 0.950 1_554 S
H1954 C1968 0.943 1_554 S
H1955 C1968 0.983 . S
C1956 H1948 0.929 . S
C1956 C1957 1.377 . S
C1956 C1958 1.384 . S
C1957 C1956 1.377 . S
C1957 C1963 1.390 . S
C1958 H1949 0.930 1_556 S
C1958 C1956 1.384 . S
C1958 C1959 1.372 . S
C1959 C1958 1.372 . S
C1959 C1960 1.400 . S
C1959 C1964 1.490 . S
C1960 H1950 0.930 . S
C1960 C1959 1.400 . S
C1960 C1963 1.386 . S
H1961 C1977 0.930 1_556 S
H1962 C1978 0.931 . S
C1963 H1951 0.929 . S
C1963 C1957 1.390 . S
C1963 C1960 1.386 . S
C1964 C1959 1.490 . S
C1964 C1966 1.395 . S
C1964 C1967 1.403 . S
H1965 C1971 0.930 . S
C1966 H1952 0.930 . S
C1966 C1964 1.395 . S
C1966 C1969 1.403 . S
C1967 C1964 1.403 . S
C1967 C1968 1.529 . S
C1967 C1971 1.400 1_556 S
C1968 H1953 0.950 1_556 S
C1968 H1954 0.943 1_556 S
C1968 H1955 0.983 . S
C1968 C1967 1.529 . S
C1969 C1966 1.403 . S
C1969 C1970 1.384 1_556 S
C1969 C1973 1.495 . S
C1970 C1969 1.384 1_554 S
C1970 C1971 1.388 . S
C1970 C1972 1.484 . S
C1971 H1965 0.930 . S
C1971 C1967 1.400 1_554 S
C1971 C1970 1.388 . S
C1972 C1970 1.484 . S
C1972 C1974 1.381 . S
C1972 C1978 1.383 1_554 S
C1973 C1969 1.495 . S
C1973 H1979 0.959 . S
C1973 H1980 0.961 . S
C1973 H1981 0.960 1_556 S
C1974 C1972 1.381 . S
C1974 C1975 1.394 . S
C1974 H1982 0.930 . S
C1975 C1974 1.394 . S
C1975 C1976 1.383 . S
C1975 H1983 0.929 . S
C1976 C1975 1.383 . S
C1976 C1977 1.377 . S
C1977 H1961 0.930 1_554 S
C1977 C1976 1.377 . S
C1977 C1978 1.379 1_554 S
C1978 H1962 0.931 . S
C1978 C1972 1.383 1_556 S
C1978 C1977 1.379 1_556 S
H1979 C1973 0.959 . S
H1980 C1973 0.961 . S
H1981 C1973 0.960 1_554 S
H1982 C1974 0.930 . S
H1983 C1975 0.929 . S
H1984 C1992 0.929 . S
H1985 C1994 0.930 . S
H1986 C1996 0.930 . S
H1987 C1999 0.929 . S
H1988 C2002 0.930 . S
H1989 C2004 0.960 . S
H1990 C2004 0.960 . S
H1991 C2004 0.960 . S
C1992 H1984 0.929 . S
C1992 C1993 1.377 . S
C1992 C1994 1.384 . S
C1993 C1992 1.377 . S
C1993 C1999 1.390 . S
C1994 H1985 0.930 . S
C1994 C1992 1.384 . S
C1994 C1995 1.372 . S
C1995 C1994 1.372 . S
C1995 C1996 1.400 . S
C1995 C2000 1.490 . S
C1996 H1986 0.930 . S
C1996 C1995 1.400 . S
C1996 C1999 1.386 . S
H1997 C2013 0.930 . S
H1998 C2014 0.931 . S
C1999 H1987 0.929 . S
C1999 C1993 1.390 . S
C1999 C1996 1.386 . S
C2000 C1995 1.490 . S
C2000 C2002 1.395 . S
C2000 C2003 1.403 . S
H2001 C2007 0.930 . S
C2002 H1988 0.930 . S
C2002 C2000 1.395 . S
C2002 C2005 1.403 . S
C2003 C2000 1.403 . S
C2003 C2004 1.524 . S
C2003 C2007 1.400 . S
C2004 H1989 0.960 . S
C2004 H1990 0.960 . S
C2004 H1991 0.960 . S
C2004 C2003 1.524 . S
C2005 C2002 1.403 . S
C2005 C2006 1.392 . S
C2005 C2009 1.495 . S
C2006 C2005 1.392 . S
C2006 C2007 1.385 . S
C2006 C2008 1.478 . S
C2007 H2001 0.930 . S
C2007 C2003 1.400 . S
C2007 C2006 1.385 . S
C2008 C2006 1.478 . S
C2008 C2010 1.381 . S
C2008 C2014 1.383 . S
C2009 C2005 1.495 . S
C2009 H2015 0.959 . S
C2009 H2016 0.961 . S
C2009 H2017 0.960 . S
C2010 C2008 1.381 . S
C2010 C2011 1.394 . S
C2010 H2018 0.930 . S
C2011 C2010 1.394 . S
C2011 C2012 1.383 . S
C2011 H2019 0.929 . S
C2012 C2011 1.383 . S
C2012 C2013 1.377 . S
C2013 H1997 0.930 . S
C2013 C2012 1.377 . S
C2013 C2014 1.379 . S
C2014 H1998 0.931 . S
C2014 C2008 1.383 . S
C2014 C2013 1.379 . S
H2015 C2009 0.959 . S
H2016 C2009 0.961 . S
H2017 C2009 0.960 . S
H2018 C2010 0.930 . S
H2019 C2011 0.929 . S
H2020 C2028 0.929 . S
H2021 C2030 0.930 . S
H2022 C2032 0.930 . S
H2023 C2035 0.929 . S
H2024 C2038 0.930 . S
H2025 C2040 0.960 . S
H2026 C2040 0.960 . S
H2027 C2040 0.960 . S
C2028 H2020 0.929 . S
C2028 C2029 1.377 . S
C2028 C2030 1.384 . S
C2029 C2028 1.377 . S
C2029 C2035 1.390 . S
C2030 H2021 0.930 . S
C2030 C2028 1.384 . S
C2030 C2031 1.372 . S
C2031 C2030 1.372 . S
C2031 C2032 1.400 . S
C2031 C2036 1.490 . S
C2032 H2022 0.930 . S
C2032 C2031 1.400 . S
C2032 C2035 1.386 . S
H2033 C2049 0.930 . S
H2034 C2050 0.931 . S
C2035 H2023 0.929 . S
C2035 C2029 1.390 . S
C2035 C2032 1.386 . S
C2036 C2031 1.490 . S
C2036 C2038 1.395 . S
C2036 C2039 1.403 . S
H2037 C2043 0.930 . S
C2038 H2024 0.930 . S
C2038 C2036 1.395 . S
C2038 C2041 1.403 . S
C2039 C2036 1.403 . S
C2039 C2040 1.524 . S
C2039 C2043 1.400 . S
C2040 H2025 0.960 . S
C2040 H2026 0.960 . S
C2040 H2027 0.960 . S
C2040 C2039 1.524 . S
C2041 C2038 1.403 . S
C2041 C2042 1.392 . S
C2041 C2045 1.495 . S
C2042 C2041 1.392 . S
C2042 C2043 1.385 . S
C2042 C2044 1.478 . S
C2043 H2037 0.930 . S
C2043 C2039 1.400 . S
C2043 C2042 1.385 . S
C2044 C2042 1.478 . S
C2044 C2046 1.381 . S
C2044 C2050 1.383 . S
C2045 C2041 1.495 . S
C2045 H2051 0.959 . S
C2045 H2052 0.961 . S
C2045 H2053 0.960 . S
C2046 C2044 1.381 . S
C2046 C2047 1.394 . S
C2046 H2054 0.930 . S
C2047 C2046 1.394 . S
C2047 C2048 1.383 . S
C2047 H2055 0.929 . S
C2048 C2047 1.383 . S
C2048 C2049 1.377 . S
C2049 H2033 0.930 . S
C2049 C2048 1.377 . S
C2049 C2050 1.379 . S
C2050 H2034 0.931 . S
C2050 C2044 1.383 . S
C2050 C2049 1.379 . S
H2051 C2045 0.959 . S
H2052 C2045 0.961 . S
H2053 C2045 0.960 . S
H2054 C2046 0.930 . S
H2055 C2047 0.929 . S
H2056 C2064 0.929 . S
H2057 C2066 0.930 . S
H2058 C2068 0.930 . S
H2059 C2071 0.929 . S
H2060 C2074 0.930 . S
H2061 C2076 0.960 . S
H2062 C2076 0.960 . S
H2063 C2076 0.960 . S
C2064 H2056 0.929 . S
C2064 C2065 1.377 1_565 S
C2064 C2066 1.384 . S
C2065 C2064 1.377 1_545 S
C2065 C2071 1.390 . S
C2066 H2057 0.930 . S
C2066 C2064 1.384 . S
C2066 C2067 1.372 . S
C2067 C2066 1.372 . S
C2067 C2068 1.400 1_565 S
C2067 C2072 1.490 . S
C2068 H2058 0.930 . S
C2068 C2067 1.400 1_545 S
C2068 C2071 1.386 . S
H2069 C2085 0.930 . S
H2070 C2086 0.931 . S
C2071 H2059 0.929 . S
C2071 C2065 1.390 . S
C2071 C2068 1.386 . S
C2072 C2067 1.490 . S
C2072 C2074 1.395 . S
C2072 C2075 1.403 . S
H2073 C2079 0.930 . S
C2074 H2060 0.930 . S
C2074 C2072 1.395 . S
C2074 C2077 1.403 . S
C2075 C2072 1.403 . S
C2075 C2076 1.524 1_565 S
C2075 C2079 1.400 . S
C2076 H2061 0.960 . S
C2076 H2062 0.960 . S
C2076 H2063 0.960 . S
C2076 C2075 1.524 1_545 S
C2077 C2074 1.403 . S
C2077 C2078 1.392 . S
C2077 C2081 1.495 . S
C2078 C2077 1.392 . S
C2078 C2079 1.385 . S
C2078 C2080 1.478 . S
C2079 H2073 0.930 . S
C2079 C2075 1.400 . S
C2079 C2078 1.385 . S
C2080 C2078 1.478 . S
C2080 C2082 1.381 . S
C2080 C2086 1.383 1_554 S
C2081 C2077 1.495 . S
C2081 H2087 0.959 . S
C2081 H2088 0.961 1_554 S
C2081 H2089 0.960 . S
C2082 C2080 1.381 . S
C2082 C2083 1.394 . S
C2082 H2090 0.930 . S
C2083 C2082 1.394 . S
C2083 C2084 1.383 . S
C2083 H2091 0.929 . S
C2084 C2083 1.383 . S
C2084 C2085 1.377 1_554 S
C2085 H2069 0.930 . S
C2085 C2084 1.377 1_556 S
C2085 C2086 1.379 . S
C2086 H2070 0.931 . S
C2086 C2080 1.383 1_556 S
C2086 C2085 1.379 . S
H2087 C2081 0.959 . S
H2088 C2081 0.961 1_556 S
H2089 C2081 0.960 . S
H2090 C2082 0.930 . S
H2091 C2083 0.929 . S
C392 C218 1.678 . S
C373 C73 1.716 . S
C428 C231 1.334 . S
C409 C82 1.293 . S
C445 C100 1.872 . S
C464 C244 1.840 1_556 S
C500 C257 1.317 . S
C481 C56 1.289 . S
C536 C265 1.322 . S
C517 C134 1.324 . S
C572 C278 1.650 . S
C553 C165 1.665 . S
C589 C147 1.132 . S
C608 C291 1.155 . S
C644 C304 1.858 . S
C625 C125 1.891 . S
C661 C151 1.287 . S
C680 C322 1.280 . S
C716 C333 1.437 . S
C697 C121 1.428 . S
C733 C139 1.766 . S
C752 C317 1.731 . S
C788 C325 1.242 . S
C769 C164 1.242 . S
C805 C95 1.287 . S
C824 C348 1.343 . S
C841 C61 1.490 . S
C860 C338 1.480 . S
C877 C74 1.406 . S
C896 C343 1.376 . S
C913 C86 1.861 . S
C932 C346 1.834 . S
C949 C47 1.301 . S
C968 C255 1.292 . S
C985 C186 1.154 . S
C1004 C247 1.152 . S
C1040 C216 1.523 . S
C1021 C204 1.565 . S
C1076 C221 1.957 . S
C1057 C112 1.969 . S
C1093 C60 1.405 1_545 S
C1112 C268 1.374 . S
C1148 C307 1.410 . S
C1129 C152 1.430 . S
C1184 C260 1.919 . S
C1165 C126 1.969 . S
C1220 C286 1.175 . S
C1201 C160 1.173 . S
C1256 C296 1.695 . S
C1237 C190 1.716 . S
C1273 C199 1.284 . S
C1292 C309 1.309 . S
C1309 C113 1.870 . S
C1328 C270 1.833 . S
C1364 C283 1.307 . S
C1345 C173 1.292 . S
C1381 C43 1.321 . S
C1400 C239 1.288 . S
C1436 C252 1.629 . S
C1417 C9 1.668 . S
C1472 C213 1.137 . S
C1453 C17 1.135 . S
C1508 C226 1.873 . S
C1489 C34 1.891 1_455 S
C1525 C21 1.286 . S
C1544 C335 1.290 . S
C1561 C30 1.426 . S
C1580 C320 1.459 1_655 S
C1597 C48 1.766 . S
C1616 C330 1.736 . S
C1633 C8 1.241 . S
C1652 C312 1.227 1_455 S
C1688 C361 1.339 . S
C1669 C108 1.299 . S
C1724 C351 1.468 . S
C1705 C178 1.490 . S
C1760 C356 1.381 . S
C1741 C191 1.406 . S
C1777 C203 1.861 1_554 S
C1796 C359 1.833 . S
C1813 C138 1.301 . S
C1832 C281 1.287 . S
C1868 C273 1.179 . S
C1849 C69 1.166 . S
C1904 C294 1.492 . S
C1885 C87 1.567 . S
C1940 C299 1.959 . S
C1921 C99 1.969 . S
C1957 C177 1.404 . S
C1976 C242 1.397 . S
C2012 C229 1.378 . S
C1993 C22 1.429 . S
C2029 C35 1.970 . S
C2048 C234 1.932 . S
C2084 C208 1.147 1_554 S
C2065 C4 1.176 . S
