# Generated by pormake.
# Topology zzz, (3,6)-cn, num edge types: 1
# Building blocks:
#     Node 0, Type 0, BuildingBlock: MIDCAF_clean_linker_0, # of connection points: 3
#     Node 1, Type 0, BuildingBlock: MIDCAF_clean_linker_0, # of connection points: 3
#     Node 2, Type 0, BuildingBlock: MIDCAF_clean_linker_0, # of connection points: 3
#     Node 3, Type 0, BuildingBlock: MIDCAF_clean_linker_0, # of connection points: 3
#     Node 4, Type 0, BuildingBlock: MIDCAF_clean_linker_0, # of connection points: 3
#     Node 5, Type 0, BuildingBlock: MIDCAF_clean_linker_0, # of connection points: 3
#     Node 6, Type 0, BuildingBlock: MIDCAF_clean_linker_0, # of connection points: 3
#     Node 7, Type 0, BuildingBlock: MIDCAF_clean_linker_0, # of connection points: 3
#     Node 8, Type 1, BuildingBlock: KUMJIN_clean_sbu_0, # of connection points: 6
#     Node 9, Type 1, BuildingBlock: KUMJIN_clean_sbu_0, # of connection points: 6
#     Node 10, Type 1, BuildingBlock: KUMJIN_clean_sbu_0, # of connection points: 6
#     Node 11, Type 1, BuildingBlock: KUMJIN_clean_sbu_0, # of connection points: 6
#     Edge 12, Type (0, 1), BuildingBlock: UVAHIK_clean_linker_0, # of connection points: 2
#     Edge 13, Type (0, 1), BuildingBlock: UVAHIK_clean_linker_0, # of connection points: 2
#     Edge 14, Type (0, 1), BuildingBlock: UVAHIK_clean_linker_0, # of connection points: 2
#     Edge 15, Type (0, 1), BuildingBlock: UVAHIK_clean_linker_0, # of connection points: 2
#     Edge 16, Type (0, 1), BuildingBlock: UVAHIK_clean_linker_0, # of connection points: 2
#     Edge 17, Type (0, 1), BuildingBlock: UVAHIK_clean_linker_0, # of connection points: 2
#     Edge 18, Type (0, 1), BuildingBlock: UVAHIK_clean_linker_0, # of connection points: 2
#     Edge 19, Type (0, 1), BuildingBlock: UVAHIK_clean_linker_0, # of connection points: 2
#     Edge 20, Type (0, 1), BuildingBlock: UVAHIK_clean_linker_0, # of connection points: 2
#     Edge 21, Type (0, 1), BuildingBlock: UVAHIK_clean_linker_0, # of connection points: 2
#     Edge 22, Type (0, 1), BuildingBlock: UVAHIK_clean_linker_0, # of connection points: 2
#     Edge 23, Type (0, 1), BuildingBlock: UVAHIK_clean_linker_0, # of connection points: 2
#     Edge 24, Type (0, 1), BuildingBlock: UVAHIK_clean_linker_0, # of connection points: 2
#     Edge 25, Type (0, 1), BuildingBlock: UVAHIK_clean_linker_0, # of connection points: 2
#     Edge 26, Type (0, 1), BuildingBlock: UVAHIK_clean_linker_0, # of connection points: 2
#     Edge 27, Type (0, 1), BuildingBlock: UVAHIK_clean_linker_0, # of connection points: 2
#     Edge 28, Type (0, 1), BuildingBlock: UVAHIK_clean_linker_0, # of connection points: 2
#     Edge 29, Type (0, 1), BuildingBlock: UVAHIK_clean_linker_0, # of connection points: 2
#     Edge 30, Type (0, 1), BuildingBlock: UVAHIK_clean_linker_0, # of connection points: 2
#     Edge 31, Type (0, 1), BuildingBlock: UVAHIK_clean_linker_0, # of connection points: 2
#     Edge 32, Type (0, 1), BuildingBlock: UVAHIK_clean_linker_0, # of connection points: 2
#     Edge 33, Type (0, 1), BuildingBlock: UVAHIK_clean_linker_0, # of connection points: 2
#     Edge 34, Type (0, 1), BuildingBlock: UVAHIK_clean_linker_0, # of connection points: 2
#     Edge 35, Type (0, 1), BuildingBlock: UVAHIK_clean_linker_0, # of connection points: 2
# Relax obj value: 0.277
# Max RMSD: 0.228
# Mean RMSD: 0.211
data_MOF--net-zzz--node1-KUMJIN_clean_sbu_0--node2-MIDCAF_clean_linker_0--edge1-UVAHIK_clean_linker_0
_symmetry_space_group_name_H-M    P1
_symmetry_Int_Tables_number       1
_symmetry_cell_setting            triclinic
loop_
_symmetry_equiv_pos_as_xyz
'x, y, z'
_cell_length_a     70.851994
_cell_length_b     70.783883
_cell_length_c     24.731391
_cell_angle_alpha  90.400702
_cell_angle_beta   90.174253
_cell_angle_gamma 89.978742
loop_
_atom_site_label
_atom_site_type_symbol
_atom_site_fract_x
_atom_site_fract_y
_atom_site_fract_z
_atom_type_partial_charge
C0 C 0.79347 0.55799 0.24659 0.0
C1 C 0.79632 0.53853 0.2542 0.0
C2 C 0.78577 0.52577 0.222 0.0
C3 C 0.7737 0.53237 0.18094 0.0
H4 H 0.71011 0.54479 0.09662 0.0
H5 H 0.67882 0.54021 0.05507 0.0
H6 H 0.69979 0.56297 0.90534 0.0
H7 H 0.73041 0.56768 0.94598 0.0
H8 H 0.76449 0.5968 0.94785 0.0
H9 H 0.78788 0.61049 0.88748 0.0
H10 H 0.8323 0.59239 0.99584 0.0
H11 H 0.80909 0.5798 0.05674 0.0
H12 H 0.78084 0.57959 0.19836 0.0
H13 H 0.80142 0.5683 0.26985 0.0
H14 H 0.78744 0.51068 0.22706 0.0
H15 H 0.76678 0.52226 0.15443 0.0
N16 N 0.74729 0.55428 0.09876 0.0
N17 N 0.75385 0.57212 0.02098 0.0
N18 N 0.77638 0.56998 0.0895 0.0
C19 C 0.74173 0.56111 0.04946 0.0
C20 C 0.77117 0.57658 0.04051 0.0
C21 C 0.7647 0.55894 0.11895 0.0
C22 C 0.72285 0.55684 0.02514 0.0
C23 C 0.70801 0.54872 0.0548 0.0
C24 C 0.69009 0.54608 0.03094 0.0
C25 C 0.68665 0.55156 0.97706 0.0
C26 C 0.70168 0.55907 0.94729 0.0
C27 C 0.7194 0.56168 0.97082 0.0
C28 C 0.7849 0.587 0.00687 0.0
C29 C 0.77926 0.5961 0.95912 0.0
C30 C 0.7927 0.60388 0.92435 0.0
C31 C 0.81211 0.60248 0.93617 0.0
C32 C 0.81757 0.59417 0.98538 0.0
C33 C 0.80417 0.5867 0.02037 0.0
C34 C 0.77209 0.55182 0.17109 0.0
C35 C 0.78162 0.56451 0.20548 0.0
C36 C 0.97272 0.79351 0.26405 0.0
C37 C 0.9854 0.80791 0.249 0.0
C38 C 0.99341 0.80691 0.19693 0.0
C39 C 0.98799 0.79275 0.16007 0.0
H40 H 0.99387 0.72546 0.05747 0.0
H41 H 0.99991 0.69515 0.01103 0.0
H42 H 0.93995 0.68669 0.992 0.0
H43 H 0.934 0.71683 0.03706 0.0
H44 H 0.93957 0.7742 0.95393 0.0
H45 H 0.92489 0.79961 0.90416 0.0
H46 H 0.89737 0.81883 0.05079 0.0
H47 H 0.9137 0.79423 0.10104 0.0
H48 H 0.95646 0.76936 0.23849 0.0
H49 H 0.96644 0.79353 0.30391 0.0
H50 H 1.00298 0.81777 0.18319 0.0
H51 H 0.99332 0.79327 0.11908 0.0
N52 N 0.96902 0.75108 0.1136 0.0
N53 N 0.94558 0.75301 0.04592 0.0
N54 N 0.95037 0.77845 0.10513 0.0
C55 C 0.95933 0.74296 0.07135 0.0
C56 C 0.94101 0.77067 0.06279 0.0
C57 C 0.9643 0.7689 0.13077 0.0
C58 C 0.96346 0.72354 0.05102 0.0
C59 C 0.98203 0.71692 0.04418 0.0
C60 C 0.98547 0.69967 0.01716 0.0
C61 C 0.9704 0.68849 0.99766 0.0
C62 C 0.95187 0.69481 0.00675 0.0
C63 C 0.94847 0.71214 0.03251 0.0
C64 C 0.92797 0.78251 0.03129 0.0
C65 C 0.93 0.78361 0.97509 0.0
C66 C 0.92139 0.79824 0.94648 0.0
C67 C 0.91016 0.81183 0.97334 0.0
C68 C 0.90648 0.80924 0.02879 0.0
C69 C 0.91563 0.79499 0.05766 0.0
C70 C 0.97455 0.77909 0.17427 0.0
C71 C 0.96727 0.77937 0.22699 0.0
C72 C 0.70795 0.95307 0.2432 0.0
C73 C 0.70778 0.97191 0.26157 0.0
C74 C 0.72139 0.98445 0.24069 0.0
C75 C 0.73415 0.97848 0.20051 0.0
H76 H 0.77544 0.97182 0.97041 0.0
H77 H 0.80589 0.97712 0.92825 0.0
H78 H 0.83396 0.96096 0.07613 0.0
H79 H 0.80301 0.95597 0.11901 0.0
H80 H 0.75332 0.91927 0.95541 0.0
H81 H 0.73419 0.90847 0.87924 0.0
H82 H 0.68381 0.92614 0.96426 0.0
H83 H 0.70279 0.93577 0.04084 0.0
H84 H 0.71951 0.93281 0.18811 0.0
H85 H 0.69764 0.94302 0.25762 0.0
H86 H 0.72183 0.99901 0.25431 0.0
H87 H 0.74379 0.98865 0.18328 0.0
N88 N 0.76077 0.961 0.11591 0.0
N89 N 0.75844 0.94512 0.03211 0.0
N90 N 0.73365 0.94329 0.09359 0.0
C91 C 0.76843 0.95617 0.06695 0.0
C92 C 0.74113 0.93857 0.04506 0.0
C93 C 0.74326 0.95434 0.1294 0.0
C94 C 0.78685 0.96343 0.04794 0.0
C95 C 0.78809 0.9698 0.99441 0.0
C96 C 0.80558 0.97264 0.97004 0.0
C97 C 0.82241 0.96898 0.99824 0.0
C98 C 0.82125 0.96385 0.05318 0.0
C99 C 0.80357 0.9611 0.07789 0.0
C100 C 0.72959 0.92869 1.00373 0.0
C101 C 0.73811 0.92037 0.95818 0.0
C102 C 0.72712 0.91428 0.91435 0.0
C103 C 0.7074 0.91676 0.91468 0.0
C104 C 0.69887 0.92373 0.9622 0.0
C105 C 0.70982 0.92946 0.00633 0.0
C106 C 0.73338 0.95992 0.18001 0.0
C107 C 0.72049 0.94721 0.203 0.0
C108 C 0.6002 0.69966 0.01449 0.0
C109 C 0.59728 0.70233 0.9588 0.0
C110 C 0.59432 0.72084 0.93995 0.0
C111 C 0.5921 0.73588 0.97646 0.0
H112 H 0.59349 0.79805 0.02384 0.0
H113 H 0.58606 0.82878 0.98547 0.0
H114 H 0.53382 0.83013 0.0747 0.0
H115 H 0.54144 0.79926 0.11416 0.0
H116 H 0.53605 0.75658 0.20636 0.0
H117 H 0.52388 0.73653 0.27916 0.0
H118 H 0.57815 0.70885 0.28975 0.0
H119 H 0.59013 0.72893 0.219 0.0
H120 H 0.5992 0.71173 0.09363 0.0
H121 H 0.60245 0.6857 0.03089 0.0
H122 H 0.59249 0.7235 0.89719 0.0
H123 H 0.58837 0.74965 0.96087 0.0
N124 N 0.58138 0.7647 0.05637 0.0
N125 N 0.56601 0.77033 0.13946 0.0
N126 N 0.57989 0.74089 0.12091 0.0
C127 C 0.57197 0.77667 0.09024 0.0
C128 C 0.57033 0.7524 0.15515 0.0
C129 C 0.58534 0.74675 0.07144 0.0
C130 C 0.568 0.79618 0.07187 0.0
C131 C 0.58051 0.80498 0.03588 0.0
C132 C 0.57633 0.82265 0.01413 0.0
C133 C 0.55936 0.83186 0.02704 0.0
C134 C 0.54698 0.82331 0.06396 0.0
C135 C 0.55138 0.80572 0.08672 0.0
C136 C 0.56401 0.74428 0.20703 0.0
C137 C 0.54547 0.74666 0.22582 0.0
C138 C 0.53846 0.73498 0.26695 0.0
C139 C 0.54995 0.72089 0.2902 0.0
C140 C 0.56888 0.7196 0.27364 0.0
C141 C 0.57577 0.7311 0.23271 0.0
C142 C 0.59287 0.73267 0.03245 0.0
C143 C 0.5981 0.71466 0.05079 0.0
C144 C 0.21838 0.45736 0.91179 0.0
C145 C 0.21891 0.47601 0.89268 0.0
C146 C 0.23201 0.48864 0.91645 0.0
C147 C 0.24354 0.48295 0.95994 0.0
H148 H 0.29864 0.48827 0.06645 0.0
H149 H 0.32971 0.4965 0.10494 0.0
H150 H 0.32468 0.45054 0.21779 0.0
H151 H 0.29434 0.44231 0.17989 0.0
H152 H 0.24934 0.43941 0.22593 0.0
H153 H 0.22519 0.42815 0.28778 0.0
H154 H 0.19018 0.41196 0.15191 0.0
H155 H 0.21406 0.42362 0.09004 0.0
H156 H 0.22821 0.4375 0.96997 0.0
H157 H 0.2084 0.44723 0.89544 0.0
H158 H 0.233 0.50306 0.90243 0.0
H159 H 0.25277 0.49319 0.97917 0.0
N160 N 0.26792 0.4651 0.05047 0.0
N161 N 0.26349 0.44881 0.13226 0.0
N162 N 0.23985 0.4483 0.06658 0.0
C163 C 0.27462 0.45957 0.09996 0.0
C164 C 0.24613 0.44313 0.11597 0.0
C165 C 0.25044 0.45921 0.03355 0.0
C166 C 0.29387 0.46465 0.11998 0.0
C167 C 0.30429 0.47987 0.09915 0.0
C168 C 0.32202 0.48466 0.12143 0.0
C169 C 0.32977 0.4741 0.16428 0.0
C170 C 0.31937 0.45882 0.18434 0.0
C171 C 0.30177 0.45419 0.16269 0.0
C172 C 0.23343 0.43286 0.15305 0.0
C173 C 0.23668 0.43306 0.20918 0.0
C174 C 0.22287 0.42647 0.24471 0.0
C175 C 0.20562 0.41945 0.22476 0.0
C176 C 0.20316 0.41766 0.16854 0.0
C177 C 0.21686 0.42436 0.13309 0.0
C178 C 0.24202 0.46459 0.98074 0.0
C179 C 0.22972 0.45177 0.95502 0.0
C180 C 0.05546 0.21255 0.92804 0.0
C181 C 0.03702 0.21188 0.907 0.0
C182 C 0.02384 0.22534 0.9261 0.0
C183 C 0.02887 0.23861 0.96651 0.0
H184 H 0.01792 0.29488 0.10006 0.0
H185 H 0.0117 0.32573 0.14288 0.0
H186 H 0.07173 0.33497 0.15901 0.0
H187 H 0.0777 0.30419 0.11822 0.0
H188 H 0.0784 0.26173 0.22442 0.0
H189 H 0.09062 0.24277 0.29863 0.0
H190 H 0.09244 0.19391 0.19309 0.0
H191 H 0.08069 0.2128 0.1189 0.0
H192 H 0.07454 0.22504 0.985 0.0
H193 H 0.06599 0.20238 0.91521 0.0
H194 H 0.00954 0.22537 0.91057 0.0
H195 H 0.01826 0.24825 0.98192 0.0
N196 N 0.04664 0.2678 0.0478 0.0
N197 N 0.0631 0.2676 0.1309 0.0
N198 N 0.06264 0.24049 0.07686 0.0
C199 C 0.0525 0.27699 0.09393 0.0
C200 C 0.0681 0.24934 0.123 0.0
C201 C 0.05205 0.24942 0.03898 0.0
C202 C 0.04829 0.29717 0.1056 0.0
C203 C 0.02971 0.30382 0.11136 0.0
C204 C 0.02619 0.32147 0.13624 0.0
C205 C 0.0412 0.33278 0.15573 0.0
C206 C 0.05976 0.32653 0.14618 0.0
C207 C 0.06322 0.30896 0.12198 0.0
C208 C 0.0782 0.23873 0.16581 0.0
C209 C 0.08175 0.24703 0.21671 0.0
C210 C 0.08873 0.23616 0.25936 0.0
C211 C 0.09235 0.21678 0.25203 0.0
C212 C 0.09001 0.20883 0.20017 0.0
C213 C 0.08305 0.21967 0.15761 0.0
C214 C 0.04709 0.23849 0.98916 0.0
C215 C 0.06037 0.22556 0.96847 0.0
C216 C 0.30888 0.06233 0.9101 0.0
C217 C 0.30808 0.04368 0.8904 0.0
C218 C 0.29362 0.03177 0.90945 0.0
C219 C 0.28073 0.03822 0.94871 0.0
H220 H 0.22641 0.02968 0.06738 0.0
H221 H 0.19548 0.0217 0.10608 0.0
H222 H 0.18623 0.08055 0.14466 0.0
H223 H 0.21699 0.08834 0.10709 0.0
H224 H 0.25948 0.09133 0.20141 0.0
H225 H 0.27891 0.10045 0.27873 0.0
H226 H 0.3287 0.09762 0.17862 0.0
H227 H 0.30938 0.089 0.10125 0.0
H228 H 0.29786 0.08288 0.96519 0.0
H229 H 0.31989 0.07186 0.89703 0.0
H230 H 0.29251 0.01736 0.89483 0.0
H231 H 0.27022 0.02857 0.96417 0.0
N232 N 0.25313 0.05777 0.02724 0.0
N233 N 0.25353 0.07503 0.10909 0.0
N234 N 0.28065 0.07354 0.05606 0.0
C235 C 0.24401 0.06428 0.07237 0.0
C236 C 0.27189 0.07959 0.10156 0.0
C237 C 0.27151 0.0628 0.01859 0.0
C238 C 0.22405 0.05962 0.08412 0.0
C239 C 0.21749 0.0409 0.08278 0.0
C240 C 0.19989 0.03635 0.10539 0.0
C241 C 0.18841 0.0505 0.12863 0.0
C242 C 0.19458 0.06933 0.12672 0.0
C243 C 0.21224 0.0738 0.10526 0.0
C244 C 0.2829 0.08895 0.14529 0.0
C245 C 0.27452 0.09309 0.1955 0.0
C246 C 0.28566 0.09828 0.23993 0.0
C247 C 0.30539 0.09943 0.23514 0.0
C248 C 0.31355 0.09696 0.18382 0.0
C249 C 0.30243 0.09182 0.1394 0.0
C250 C 0.28231 0.05658 0.97023 0.0
C251 C 0.29627 0.06863 0.94953 0.0
C252 C 0.40976 0.31532 0.16583 0.0
C253 C 0.40562 0.30923 0.21851 0.0
C254 C 0.40548 0.28971 0.22889 0.0
C255 C 0.41107 0.27677 0.18902 0.0
H256 H 0.41809 0.21823 0.13909 0.0
H257 H 0.42499 0.18762 0.17859 0.0
H258 H 0.48043 0.18843 0.10667 0.0
H259 H 0.47342 0.21931 0.0664 0.0
H260 H 0.48169 0.26301 0.98288 0.0
H261 H 0.49641 0.28297 0.91373 0.0
H262 H 0.44261 0.30973 0.88405 0.0
H263 H 0.42815 0.29007 0.95267 0.0
H264 H 0.41932 0.30781 0.08688 0.0
H265 H 0.41019 0.3302 0.15617 0.0
H266 H 0.40198 0.28449 0.26868 0.0
H267 H 0.41183 0.26195 0.1994 0.0
N268 N 0.43029 0.25202 0.11336 0.0
N269 N 0.44945 0.24813 0.03643 0.0
N270 N 0.4342 0.27705 0.05353 0.0
C271 C 0.44148 0.24085 0.08202 0.0
C272 C 0.44547 0.26624 0.02163 0.0
C273 C 0.42667 0.27017 0.09965 0.0
C274 C 0.44525 0.22124 0.09981 0.0
C275 C 0.43168 0.2118 0.13102 0.0
C276 C 0.43558 0.19418 0.15342 0.0
C277 C 0.45326 0.18561 0.14586 0.0
C278 C 0.46671 0.19476 0.11339 0.0
C279 C 0.46266 0.21234 0.09006 0.0
C280 C 0.4538 0.27503 0.97312 0.0
C281 C 0.47299 0.27281 0.96039 0.0
C282 C 0.48141 0.28434 0.92122 0.0
C283 C 0.47069 0.29799 0.8935 0.0
C284 C 0.45126 0.29926 0.90411 0.0
C285 C 0.44297 0.28804 0.94365 0.0
C286 C 0.41685 0.28308 0.13785 0.0
C287 C 0.41522 0.3024 0.12598 0.0
Eu288 Eu 0.0279 0.00759 0.63084 0.0
C289 C 0.95647 0.98399 0.49513 0.0
C290 C 0.96787 0.96433 0.42167 0.0
C291 C 0.9363 0.95947 0.45691 0.0
C292 C 0.97075 0.979 0.45983 0.0
C293 C 0.93892 0.97458 0.49323 0.0
C294 C 0.95075 0.95435 0.42121 0.0
C295 C 0.92726 0.99681 0.55978 0.0
N296 N 0.95939 0.99867 0.52958 0.0
C297 C 0.94487 0.00571 0.56008 0.0
C298 C 0.92435 0.98099 0.52679 0.0
Eu299 Eu 0.98967 0.01287 0.52916 0.0
N300 N 0.98719 0.98889 0.46144 0.0
C301 C 1.00078 0.98559 0.42333 0.0
C302 C 0.98215 0.96034 0.38442 0.0
C303 C 0.99857 0.97118 0.38486 0.0
H304 H 0.94716 0.01786 0.586 0.0
H305 H 0.0096 0.96839 0.35569 0.0
H306 H 0.9484 0.94292 0.39261 0.0
H307 H 0.91599 1.00211 0.58511 0.0
H308 H 0.01364 0.99365 0.42254 0.0
H309 H 0.00738 0.05544 0.79624 0.0
H310 H 0.98052 0.94915 0.35465 0.0
H311 H 0.07189 0.99813 0.59158 0.0
H312 H 0.00386 0.02876 0.73358 0.0
H313 H 0.10339 0.01324 0.59158 0.0
H314 H 0.92299 0.95194 0.45523 0.0
H315 H 0.03626 0.07499 0.79461 0.0
H316 H 0.06874 0.08035 0.75724 0.0
H317 H 0.91068 0.97413 0.52651 0.0
H318 H 0.09494 0.06903 0.70044 0.0
N319 N 0.03038 0.03292 0.69491 0.0
C320 C 0.01665 0.03688 0.73207 0.0
C321 C 0.03485 0.06315 0.7669 0.0
C322 C 0.04937 0.05837 0.73119 0.0
C323 C 0.01857 0.05212 0.76802 0.0
C324 C 0.04676 0.04283 0.69584 0.0
H325 H 0.10814 0.04377 0.63915 0.0
N326 N 0.05878 0.02055 0.63486 0.0
C327 C 0.09167 0.02008 0.61172 0.0
C328 C 0.06142 0.03652 0.66423 0.0
C329 C 0.07383 0.01163 0.61151 0.0
C330 C 0.09428 0.03732 0.63848 0.0
C331 C 0.07918 0.0455 0.66653 0.0
O332 O 0.04556 0.98406 0.65696 0.0
O333 O 0.00925 0.99323 0.57046 0.0
O334 O 0.97883 0.99476 0.59794 0.0
O335 O 0.99826 0.00542 0.66752 0.0
O336 O 0.03681 0.98386 0.57344 0.0
O337 O 0.02266 0.99357 0.70772 0.0
O338 O 0.96899 0.03428 0.50729 0.0
O339 O 0.00892 0.02776 0.58764 0.0
O340 O 0.04149 0.02066 0.55702 0.0
O341 O 0.01859 0.01648 0.48918 0.0
O342 O 0.98085 0.03576 0.58884 0.0
O343 O 0.99276 0.02873 0.45434 0.0
C344 C 0.02061 0.98132 0.55073 0.0
C345 C 0.0276 0.96048 0.69935 0.0
C346 C 1.00168 0.93808 0.71128 0.0
C347 C 0.00877 0.95662 0.71347 0.0
C348 C 0.01376 0.92336 0.69475 0.0
C349 C 0.03941 0.94551 0.6835 0.0
C350 C 0.03247 0.92709 0.68105 0.0
C351 C 0.9826 0.99708 0.65 0.0
C352 C 0.03473 0.98008 0.6977 0.0
C353 C 0.08149 0.06177 0.69869 0.0
C354 C 0.06659 0.0682 0.73107 0.0
C355 C 0.99735 0.0393 0.6083 0.0
C356 C 0.98199 0.06028 0.4635 0.0
C357 C 0.99948 0.068 0.47915 0.0
C358 C 1.0023 0.08768 0.47882 0.0
C359 C 0.98715 0.09947 0.46384 0.0
C360 C 0.96715 0.07228 0.44881 0.0
C361 C 0.96972 0.09179 0.44922 0.0
C362 C 0.03597 0.0206 0.5057 0.0
C363 C 0.97855 0.03987 0.46549 0.0
H364 H 0.99954 0.96803 0.72567 0.0
H365 H 0.00893 0.90885 0.69372 0.0
H366 H 0.05395 0.94809 0.67235 0.0
H367 H 0.04166 0.91564 0.6687 0.0
H368 H 0.01083 0.0587 0.49158 0.0
H369 H 0.98888 0.11465 0.46175 0.0
H370 H 0.95352 0.06654 0.43738 0.0
H371 H 0.95823 0.10101 0.43759 0.0
Eu372 Eu 0.51075 0.02859 0.6275 0.0
C373 C 0.53672 0.95639 0.49769 0.0
C374 C 0.55547 0.96879 0.42462 0.0
C375 C 0.56288 0.93797 0.46159 0.0
C376 C 0.5406 0.97076 0.46222 0.0
C377 C 0.54746 0.93958 0.49681 0.0
C378 C 0.56688 0.95257 0.42551 0.0
C379 C 0.52563 0.92636 0.561 0.0
N380 N 0.52162 0.9583 0.53062 0.0
C381 C 0.51538 0.94323 0.55992 0.0
C382 C 0.54197 0.92464 0.52999 0.0
Eu383 Eu 0.50573 0.98793 0.53223 0.0
N384 N 0.52935 0.98631 0.46287 0.0
C385 C 0.53153 0.99975 0.42381 0.0
C386 C 0.55823 0.98299 0.38658 0.0
C387 C 0.54601 0.99838 0.38567 0.0
H388 H 0.50259 0.94442 0.58337 0.0
H389 H 0.54783 0.00935 0.35586 0.0
H390 H 0.57853 0.95097 0.39754 0.0
H391 H 0.52088 0.9147 0.58553 0.0
H392 H 0.52261 0.01192 0.42191 0.0
H393 H 0.46759 0.00996 0.80346 0.0
H394 H 0.56952 0.98205 0.35721 0.0
H395 H 0.5135 0.07018 0.56443 0.0
H396 H 0.4932 0.00605 0.73845 0.0
H397 H 0.49613 0.10048 0.56036 0.0
H398 H 0.57145 0.92529 0.46083 0.0
H399 H 0.44659 0.03776 0.79882 0.0
H400 H 0.43857 0.06865 0.75553 0.0
H401 H 0.54984 0.91152 0.53053 0.0
H402 H 0.44625 0.09325 0.68941 0.0
N403 N 0.48696 0.03132 0.69507 0.0
C404 C 0.48441 0.01838 0.73527 0.0
C405 C 0.45796 0.03621 0.76991 0.0
C406 C 0.4612 0.04992 0.73062 0.0
C407 C 0.46979 0.02051 0.77268 0.0
C408 C 0.4761 0.04714 0.6936 0.0
H409 H 0.46786 0.10539 0.61727 0.0
N410 N 0.49509 0.05813 0.62255 0.0
C411 C 0.49147 0.08946 0.58734 0.0
C412 C 0.48028 0.06093 0.65618 0.0
C413 C 0.5013 0.07236 0.58989 0.0
C414 C 0.47549 0.09215 0.61938 0.0
C415 C 0.46987 0.07793 0.65496 0.0
O416 O 0.53087 0.05107 0.6449 0.0
O417 O 0.52543 0.00849 0.57119 0.0
O418 O 0.51977 0.97701 0.60841 0.0
O419 O 0.51617 1.00115 0.67306 0.0
O420 O 0.5327 0.03665 0.56468 0.0
O421 O 0.52791 0.02786 0.70104 0.0
O422 O 0.48651 0.96554 0.50589 0.0
O423 O 0.4917 0.00706 0.59145 0.0
O424 O 0.49147 0.03704 0.55849 0.0
O425 O 0.50147 0.01648 0.49053 0.0
O426 O 0.48428 0.97897 0.59567 0.0
O427 O 0.48454 0.99293 0.46927 0.0
C428 C 0.53634 0.01981 0.54771 0.0
C429 C 0.55846 0.04059 0.68651 0.0
C430 C 0.58678 0.02173 0.67121 0.0
C431 C 0.56706 0.02306 0.67578 0.0
C432 C 0.59777 0.03819 0.67663 0.0
C433 C 0.56966 0.05681 0.69222 0.0
C434 C 0.58922 0.05559 0.68713 0.0
C435 C 0.52046 0.9836 0.65861 0.0
C436 C 0.53784 0.04259 0.68698 0.0
C437 C 0.45455 0.0804 0.69018 0.0
C438 C 0.4502 0.0664 0.72787 0.0
C439 C 0.48092 0.9956 0.61487 0.0
C440 C 0.45596 0.97844 0.49676 0.0
C441 C 0.44573 0.99532 0.49003 0.0
C442 C 0.42827 0.99811 0.5161 0.0
C443 C 0.42107 0.98355 0.54859 0.0
C444 C 0.44799 0.96386 0.5276 0.0
C445 C 0.43074 0.96649 0.55349 0.0
C446 C 0.49295 0.03222 0.50692 0.0
C447 C 0.47586 0.97707 0.4787 0.0
H448 H 0.55845 0.01052 0.67035 0.0
H449 H 0.61301 0.03754 0.67413 0.0
H450 H 0.56323 0.07046 0.69978 0.0
H451 H 0.5978 0.06817 0.69152 0.0
H452 H 0.45155 0.00636 0.465 0.0
H453 H 0.40803 0.98534 0.57073 0.0
H454 H 0.45547 0.95069 0.53362 0.0
H455 H 0.42501 0.95538 0.57843 0.0
Eu456 Eu 0.53113 0.50095 0.54136 0.0
C457 C 0.44706 0.50308 0.54492 0.0
C458 C 0.43117 0.53286 0.52926 0.0
C459 C 0.41649 0.50357 0.49959 0.0
C460 C 0.4467 0.52252 0.54934 0.0
C461 C 0.43186 0.49336 0.52026 0.0
C462 C 0.41617 0.52329 0.5039 0.0
C463 C 0.44837 0.46415 0.53638 0.0
N464 N 0.46237 0.49368 0.56406 0.0
C465 C 0.46318 0.47439 0.55986 0.0
C466 C 0.4326 0.47366 0.51664 0.0
Eu467 Eu 0.48611 0.5121 0.6085 0.0
N468 N 0.4614 0.53134 0.57391 0.0
C469 C 0.46077 0.55041 0.58333 0.0
C470 C 0.43102 0.55249 0.53598 0.0
C471 C 0.44582 0.56129 0.56364 0.0
H472 H 0.47532 0.46659 0.57313 0.0
H473 H 0.44565 0.57642 0.57025 0.0
H474 H 0.40419 0.53099 0.48797 0.0
H475 H 0.44925 0.44892 0.53293 0.0
H476 H 0.47197 0.55728 0.60587 0.0
H477 H 0.57991 0.48586 0.70667 0.0
H478 H 0.41938 0.56093 0.52102 0.0
H479 H 0.53959 0.52604 0.42859 0.0
H480 H 0.55127 0.48184 0.65092 0.0
H481 H 0.56231 0.5498 0.39608 0.0
H482 H 0.40479 0.49635 0.48013 0.0
H483 H 0.60268 0.51123 0.6857 0.0
H484 H 0.61251 0.53761 0.62448 0.0
H485 H 0.42122 0.46569 0.49809 0.0
H486 H 0.60758 0.55521 0.54011 0.0
N487 N 0.55774 0.50463 0.59854 0.0
C488 C 0.56116 0.49285 0.64094 0.0
C489 C 0.5902 0.50943 0.66074 0.0
C490 C 0.587 0.52095 0.6159 0.0
C491 C 0.57741 0.49506 0.67263 0.0
C492 C 0.5706 0.5179 0.58452 0.0
H493 H 0.58906 0.55964 0.45427 0.0
N494 N 0.5528 0.52316 0.50553 0.0
C495 C 0.564 0.54376 0.43587 0.0
C496 C 0.56798 0.52758 0.53674 0.0
C497 C 0.55117 0.53028 0.4544 0.0
C498 C 0.57906 0.54931 0.4689 0.0
C499 C 0.58145 0.54089 0.5195 0.0
O500 O 0.53365 0.48448 0.46652 0.0
O501 O 0.49955 0.49861 0.53738 0.0
O502 O 0.49442 0.48278 0.63504 0.0
O503 O 0.52326 0.4759 0.59417 0.0
O504 O 0.51338 0.50684 0.46694 0.0
O505 O 0.5515 0.47789 0.53443 0.0
O506 O 0.47635 0.49708 0.68034 0.0
O507 O 0.51738 0.50881 0.61963 0.0
O508 O 0.52723 0.53276 0.53808 0.0
O509 O 0.49486 0.53683 0.55419 0.0
O510 O 0.50517 0.53355 0.64933 0.0
O511 O 0.47205 0.52706 0.67457 0.0
C512 C 0.49722 0.50362 0.48869 0.0
C513 C 0.5409 0.45234 0.48202 0.0
C514 C 0.51776 0.42682 0.47632 0.0
C515 C 0.52204 0.4462 0.47953 0.0
C516 C 0.53267 0.41366 0.47687 0.0
C517 C 0.55551 0.439 0.48244 0.0
C518 C 0.55138 0.41975 0.48008 0.0
C519 C 0.50885 0.47144 0.62545 0.0
C520 C 0.54555 0.47251 0.48711 0.0
C521 C 0.59718 0.54488 0.55238 0.0
C522 C 0.59998 0.53487 0.60042 0.0
C523 C 0.52055 0.52396 0.64572 0.0
C524 C 0.48135 0.51504 0.75974 0.0
C525 C 0.49203 0.53132 0.77107 0.0
C526 C 0.50237 0.53314 0.81938 0.0
C527 C 0.5016 0.51844 0.85725 0.0
C528 C 0.48069 0.50058 0.79818 0.0
C529 C 0.49072 0.50234 0.84673 0.0
C530 C 0.51156 0.54301 0.53735 0.0
C531 C 0.47216 0.51252 0.70641 0.0
H532 H 0.51073 0.4565 0.4807 0.0
H533 H 0.52993 0.39864 0.47352 0.0
H534 H 0.5701 0.44349 0.48499 0.0
H535 H 0.56272 0.4095 0.4803 0.0
H536 H 0.49279 0.54245 0.74147 0.0
H537 H 0.50922 0.51946 0.89518 0.0
H538 H 0.47265 0.48783 0.79029 0.0
H539 H 0.4902 0.4911 0.87614 0.0
Eu540 Eu 0.01578 0.53619 0.53683 0.0
C541 C 0.02604 0.45094 0.5969 0.0
C542 C 0.01091 0.43241 0.52638 0.0
C543 C 0.03748 0.41931 0.57583 0.0
C544 C 0.01244 0.44931 0.55681 0.0
C545 C 0.03848 0.43581 0.60752 0.0
C546 C 0.02368 0.41759 0.53549 0.0
C547 C 0.05072 0.45358 0.68365 0.0
N548 N 0.02653 0.46692 0.62734 0.0
C549 C 0.03797 0.46807 0.67197 0.0
C550 C 0.05116 0.43747 0.65081 0.0
Eu551 Eu 0.00475 0.49106 0.60469 0.0
N552 N 1.00034 0.46395 0.54867 0.0
C553 C 0.98567 0.46203 0.51296 0.0
C554 C 0.9964 0.43077 0.4882 0.0
C555 C 0.98362 0.44557 0.48191 0.0
H556 H 0.03764 0.48055 0.69746 0.0
H557 H 0.97219 0.44434 0.45298 0.0
H558 H 0.02279 0.4046 0.5122 0.0
H559 H 0.06015 0.45483 0.71799 0.0
H560 H 0.97552 0.47314 0.50723 0.0
H561 H 0.03517 0.58485 0.70079 0.0
H562 H 0.9948 0.41807 0.46393 0.0
H563 H 0.99375 0.54712 0.42177 0.0
H564 H 0.03703 0.55582 0.64588 0.0
H565 H 0.97253 0.57185 0.38605 0.0
H566 H 0.047 0.40761 0.58312 0.0
H567 H 0.01184 0.60954 0.67811 0.0
H568 H 0.98634 0.62113 0.61587 0.0
H569 H 0.06096 0.42619 0.66013 0.0
H570 H 0.96888 0.61741 0.53027 0.0
N571 N 0.01441 0.56344 0.59344 0.0
C572 C 0.02667 0.56636 0.63552 0.0
C573 C 0.01244 0.59671 0.65407 0.0
C574 C 1.00064 0.59415 0.60917 0.0
C575 C 0.0257 0.58286 0.66681 0.0
C576 C 1.00223 0.57729 0.57869 0.0
H577 H 0.96392 0.59924 0.44364 0.0
N578 N 0.99598 0.55974 0.49969 0.0
C579 C 0.9779 0.57291 0.42697 0.0
C580 C 0.99256 0.57528 0.53047 0.0
C581 C 0.98987 0.55892 0.44733 0.0
C582 C 0.97302 0.58831 0.45966 0.0
C583 C 0.98082 0.58993 0.51156 0.0
O584 O 0.03196 0.53883 0.46197 0.0
O585 O 0.01681 0.50472 0.53234 0.0
O586 O 0.0365 0.49381 0.59397 0.0
O587 O 0.03911 0.52642 0.59463 0.0
O588 O 0.01069 0.51841 0.46078 0.0
O589 O 0.04124 0.55338 0.5342 0.0
O590 O 0.9986 0.48036 0.68492 0.0
O591 O 1.00289 0.5226 0.60957 0.0
O592 O 0.98405 0.53298 0.52859 0.0
O593 O 0.97941 0.5014 0.55464 0.0
O594 O 0.01141 0.50898 0.67906 0.0
O595 O 0.97617 0.4821 0.6251 0.0
C596 C 0.01315 0.50212 0.48284 0.0
C597 C 0.06472 0.543 0.47521 0.0
C598 C 0.08944 0.51901 0.47748 0.0
C599 C 0.07039 0.52423 0.48365 0.0
C600 C 0.10259 0.53294 0.46228 0.0
C601 C 0.07804 0.55662 0.46059 0.0
C602 C 0.0969 0.55157 0.45408 0.0
C603 C 0.04644 0.5094 0.60172 0.0
C604 C 0.04521 0.54892 0.48452 0.0
C605 C 0.97804 0.60611 0.54377 0.0
C606 C 0.98799 0.60824 0.59247 0.0
C607 C 0.00693 0.5251 0.6589 0.0
C608 C 0.9687 0.48815 0.7169 0.0
C609 C 0.96215 0.50673 0.71035 0.0
C610 C 0.95239 0.51587 0.75246 0.0
C611 C 0.94923 0.50611 0.80102 0.0
C612 C 0.96538 0.47866 0.76546 0.0
C613 C 0.95566 0.48762 0.8073 0.0
C614 C 0.97349 0.51756 0.5331 0.0
C615 C 0.98053 0.47909 0.67575 0.0
H616 H 0.06 0.51384 0.49533 0.0
H617 H 0.11727 0.52942 0.4554 0.0
H618 H 0.07385 0.57117 0.45448 0.0
H619 H 0.10714 0.56211 0.44238 0.0
H620 H 0.96491 0.51415 0.67299 0.0
H621 H 0.94142 0.51262 0.8338 0.0
H622 H 0.97057 0.46441 0.77126 0.0
H623 H 0.95312 0.48023 0.84475 0.0
C624 C 0.1713 0.03136 0.19832 0.0
C625 C 0.17096 0.04571 0.15933 0.0
C626 C 0.15586 0.02852 0.23255 0.0
C627 C 0.10488 0.0371 0.25077 0.0
H628 H 0.11695 0.03425 0.40343 0.0
C629 C 0.04659 0.03473 0.41749 0.0
C630 C 0.05052 0.02403 0.46384 0.0
C631 C 0.06069 0.03796 0.37868 0.0
C632 C 0.11323 0.0347 0.36097 0.0
H633 H 0.15371 0.06775 0.12409 0.0
H634 H 0.12656 0.06253 0.18329 0.0
H635 H 0.1422 0.03757 0.33789 0.0
H636 H 0.07165 0.00675 0.50259 0.0
H637 H 0.09592 0.01196 0.43587 0.0
H638 H 0.07591 0.03376 0.27369 0.0
C639 C 0.13886 0.05358 0.18758 0.0
C640 C 0.12779 0.03667 0.32334 0.0
C641 C 0.15444 0.05661 0.15384 0.0
C642 C 0.06849 0.01595 0.46923 0.0
C643 C 0.08243 0.01889 0.43041 0.0
C644 C 0.09026 0.03485 0.28847 0.0
C645 C 0.13956 0.03979 0.2282 0.0
C646 C 0.12383 0.03778 0.26776 0.0
C647 C 0.07891 0.03016 0.38481 0.0
C648 C 0.09424 0.03345 0.3442 0.0
H649 H 0.18385 0.02285 0.20401 0.0
H650 H 0.15677 0.01766 0.26308 0.0
H651 H 0.10137 0.03788 0.20819 0.0
H652 H 0.03273 0.04086 0.41173 0.0
H653 H 0.05734 0.04676 0.34435 0.0
C654 C 0.44467 0.15298 0.17704 0.0
C655 C 0.45783 0.16784 0.17496 0.0
C656 C 0.44802 0.13718 0.20941 0.0
C657 C 0.46368 0.10125 0.26269 0.0
H658 H 0.48071 0.11166 0.40908 0.0
C659 C 0.49086 0.04391 0.41107 0.0
C660 C 0.48577 0.04571 0.4658 0.0
C661 C 0.48596 0.05787 0.37377 0.0
C662 C 0.47583 0.10852 0.36846 0.0
H663 H 0.485 0.17754 0.20438 0.0
H664 H 0.49085 0.14995 0.26102 0.0
H665 H 0.47613 0.13771 0.34621 0.0
H666 H 0.46955 0.0626 0.52255 0.0
H667 H 0.46147 0.0872 0.45793 0.0
H668 H 0.46349 0.072 0.28505 0.0
C669 C 0.47792 0.15057 0.23764 0.0
C670 C 0.47342 0.12343 0.33225 0.0
C671 C 0.47467 0.16627 0.20476 0.0
C672 C 0.4745 0.06117 0.48138 0.0
C673 C 0.46975 0.07522 0.44425 0.0
C674 C 0.46632 0.08629 0.29877 0.0
C675 C 0.46451 0.13598 0.24096 0.0
C676 C 0.46733 0.11998 0.27893 0.0
C677 C 0.47581 0.07396 0.39029 0.0
C678 C 0.47239 0.08977 0.3521 0.0
H679 H 0.4316 0.15375 0.15431 0.0
H680 H 0.43738 0.12621 0.21124 0.0
H681 H 0.45902 0.09814 0.22183 0.0
H682 H 0.49912 0.03203 0.39708 0.0
H683 H 0.49078 0.05644 0.33242 0.0
C684 C 0.36092 0.46427 0.20406 0.0
C685 C 0.34841 0.47883 0.18949 0.0
C686 C 0.37726 0.46813 0.23394 0.0
C687 C 0.41036 0.50584 0.27807 0.0
H688 H 0.42061 0.47099 0.39477 0.0
C689 C 0.47046 0.51809 0.43689 0.0
C690 C 0.47982 0.50199 0.45607 0.0
C691 C 0.45448 0.51626 0.40349 0.0
C692 C 0.41816 0.48077 0.36205 0.0
H693 H 0.34388 0.50909 0.19301 0.0
H694 H 0.37262 0.5159 0.24515 0.0
H695 H 0.39313 0.46616 0.33749 0.0
H696 H 0.4812 0.47164 0.45155 0.0
H697 H 0.45383 0.46819 0.3922 0.0
H698 H 0.43557 0.52039 0.30269 0.0
C699 C 0.36969 0.50144 0.23332 0.0
C700 C 0.40233 0.47799 0.32907 0.0
C701 C 0.35324 0.49754 0.2033 0.0
C702 C 0.47376 0.48415 0.43863 0.0
C703 C 0.45803 0.48226 0.40477 0.0
C704 C 0.42631 0.50861 0.31111 0.0
C705 C 0.38167 0.48669 0.25018 0.0
C706 C 0.3983 0.49033 0.28619 0.0
C707 C 0.44792 0.49826 0.38737 0.0
C708 C 0.43056 0.49597 0.35322 0.0
H709 H 0.35789 0.44973 0.19313 0.0
H710 H 0.38637 0.45647 0.24488 0.0
H711 H 0.40775 0.51558 0.24531 0.0
H712 H 0.47528 0.53206 0.44855 0.0
H713 H 0.4471 0.52891 0.39115 0.0
C714 C 0.02303 0.36295 0.17694 0.0
C715 C 0.03782 0.35034 0.18887 0.0
C716 C 0.02025 0.37939 0.20829 0.0
C717 C 0.03232 0.40096 0.34278 0.0
H718 H 0.01801 0.44784 0.27389 0.0
C719 C 0.03089 0.47209 0.46187 0.0
C720 C 0.01607 0.48463 0.45047 0.0
C721 C 0.0339 0.45603 0.42928 0.0
C722 C 0.02181 0.43485 0.29406 0.0
H723 H 0.06087 0.34512 0.24488 0.0
H724 H 0.05634 0.37368 0.29805 0.0
H725 H 0.02186 0.41929 0.21932 0.0
H726 H 0.99346 0.49081 0.39441 0.0
H727 H 0.99818 0.46261 0.33864 0.0
H728 H 0.03237 0.41649 0.41739 0.0
C729 C 0.04676 0.37092 0.26473 0.0
C730 C 0.02399 0.4184 0.26259 0.0
C731 C 0.04954 0.35457 0.2335 0.0
C732 C 0.00479 0.48119 0.40467 0.0
C733 C 0.00764 0.46508 0.3724 0.0
C734 C 0.03016 0.4174 0.37419 0.0
C735 C 0.03209 0.38363 0.25272 0.0
C736 C 0.02931 0.40118 0.28641 0.0
C737 C 0.02217 0.45214 0.3843 0.0
C738 C 0.02484 0.43463 0.35042 0.0
H739 H 0.01373 0.36027 0.14292 0.0
H740 H 0.00866 0.38868 0.19798 0.0
H741 H 0.03612 0.38798 0.36298 0.0
H742 H 0.04019 0.47471 0.49594 0.0
H743 H 0.04547 0.44668 0.43933 0.0
C744 C 0.85705 0.97766 0.99152 0.0
C745 C 0.84079 0.96943 0.96867 0.0
C746 C 0.87386 0.9788 0.96167 0.0
C747 C 0.89809 0.95924 0.83919 0.0
H748 H 0.92522 0.00674 0.84242 0.0
C749 C 0.95278 0.97981 0.6752 0.0
C750 C 0.96821 0.99118 0.69039 0.0
C751 C 0.93854 0.97549 0.71241 0.0
C752 C 0.91805 0.99324 0.84152 0.0
H753 H 0.82986 0.95505 0.89742 0.0
H754 H 0.85881 0.95729 0.84554 0.0
H755 H 0.89845 1.00218 0.90232 0.0
H756 H 0.98137 0.00566 0.75828 0.0
H757 H 0.95689 0.99792 0.82301 0.0
H758 H 0.91741 0.95045 0.7775 0.0
C759 C 0.85872 0.96286 0.88643 0.0
C760 C 0.90264 0.99062 0.87606 0.0
C761 C 0.84198 0.96181 0.91604 0.0
C762 C 0.96953 0.99724 0.74456 0.0
C763 C 0.95537 0.99288 0.78179 0.0
C764 C 0.91348 0.96187 0.80455 0.0
C765 C 0.87486 0.97155 0.90847 0.0
C766 C 0.89228 0.97368 0.87494 0.0
C767 C 0.93944 0.98229 0.76604 0.0
C768 C 0.92359 0.97898 0.80483 0.0
H769 H 0.85665 0.98364 0.03192 0.0
H770 H 0.88607 0.9854 0.98022 0.0
H771 H 0.89067 0.94586 0.83775 0.0
H772 H 0.95154 0.97439 0.63431 0.0
H773 H 0.92656 0.96728 0.69857 0.0
C774 C 0.56745 0.86436 0.99362 0.0
C775 C 0.55424 0.84965 0.99884 0.0
C776 C 0.56338 0.88015 0.96176 0.0
C777 C 0.53648 0.89287 0.84227 0.0
H778 H 0.54412 0.94501 0.88617 0.0
C779 C 0.51339 0.95317 0.70336 0.0
C780 C 0.52417 0.96974 0.70161 0.0
C781 C 0.51693 0.93946 0.74233 0.0
C782 C 0.54218 0.93054 0.87285 0.0
H783 H 0.52628 0.84016 0.97569 0.0
H784 H 0.51929 0.8676 0.91934 0.0
H785 H 0.55042 0.91956 0.95026 0.0
H786 H 0.5464 0.9856 0.74089 0.0
H787 H 0.55349 0.96115 0.80788 0.0
H788 H 0.52902 0.90343 0.76456 0.0
C789 C 0.53274 0.86695 0.94022 0.0
C790 C 0.54568 0.91597 0.90979 0.0
C791 C 0.53667 0.85133 0.9728 0.0
C792 C 0.53819 0.97271 0.74088 0.0
C793 C 0.54206 0.95876 0.77951 0.0
C794 C 0.53331 0.90733 0.80517 0.0
C795 C 0.54616 0.88138 0.93368 0.0
C796 C 0.54264 0.897 0.89501 0.0
C797 C 0.5316 0.94179 0.78035 0.0
C798 C 0.53584 0.92643 0.81998 0.0
H799 H 0.58108 0.86346 0.01338 0.0
H800 H 0.57402 0.89102 0.9573 0.0
H801 H 0.5344 0.87836 0.82936 0.0
H802 H 0.5019 0.95097 0.67512 0.0
H803 H 0.50801 0.92705 0.74271 0.0
C804 C 0.65643 0.53353 0.95753 0.0
C805 C 0.66761 0.54978 0.95108 0.0
C806 C 0.63943 0.53138 0.92861 0.0
C807 C 0.61596 0.54825 0.80379 0.0
H808 H 0.5709 0.52616 0.86501 0.0
C809 C 0.54732 0.54395 0.67834 0.0
C810 C 0.53647 0.5275 0.683 0.0
C811 C 0.56216 0.54755 0.71457 0.0
C812 C 0.58336 0.53222 0.84693 0.0
H813 H 0.6689 0.57706 0.91179 0.0
H814 H 0.63953 0.57331 0.86171 0.0
H815 H 0.59888 0.53041 0.92142 0.0
H816 H 0.53096 0.50305 0.73239 0.0
H817 H 0.55721 0.50883 0.7947 0.0
H818 H 0.6008 0.54974 0.72917 0.0
C819 C 0.64406 0.56199 0.88796 0.0
C820 C 0.59946 0.53465 0.87947 0.0
C821 C 0.66094 0.56413 0.91681 0.0
C822 C 0.53971 0.51544 0.72682 0.0
C823 C 0.55458 0.51896 0.763 0.0
C824 C 0.59994 0.54576 0.77127 0.0
C825 C 0.63324 0.54544 0.89257 0.0
C826 C 0.61597 0.54275 0.85837 0.0
C827 C 0.56636 0.53485 0.75669 0.0
C828 C 0.58332 0.53779 0.79228 0.0
H829 H 0.66114 0.52216 0.98335 0.0
H830 H 0.6315 0.51842 0.93304 0.0
H831 H 0.62853 0.55417 0.78573 0.0
H832 H 0.54452 0.55385 0.64608 0.0
H833 H 0.57037 0.56029 0.70933 0.0
C834 C 0.96326 0.65427 0.9763 0.0
C835 C 0.97372 0.67075 0.96574 0.0
C836 C 0.9654 0.63801 0.94406 0.0
C837 C 0.97974 0.62219 0.80777 0.0
H838 H 0.98639 0.57306 0.87343 0.0
C839 C 0.00951 0.54395 0.74429 0.0
C840 C 1.00064 0.54102 0.69407 0.0
C841 C 0.00413 0.55896 0.77806 0.0
C842 C 0.98453 0.58666 0.85436 0.0
H843 H 0.99461 0.68295 0.91264 0.0
H844 H 0.9982 0.65464 0.85594 0.0
H845 H 0.98187 0.60097 0.9308 0.0
H846 H 0.97797 0.55053 0.64202 0.0
H847 H 0.96873 0.57712 0.70065 0.0
H848 H 0.98221 0.6079 0.73136 0.0
C849 C 0.98837 0.65431 0.88939 0.0
C850 C 0.98183 0.60266 0.88731 0.0
C851 C 0.98648 0.67047 0.92224 0.0
C852 C 0.98551 0.55286 0.67964 0.0
C853 C 0.9802 0.56804 0.71332 0.0
C854 C 0.98209 0.60614 0.77478 0.0
C855 C 0.97781 0.63788 0.89974 0.0
C856 C 0.97975 0.6207 0.8645 0.0
C857 C 0.98961 0.57142 0.76278 0.0
C858 C 0.98497 0.5882 0.79762 0.0
H859 H 0.95335 0.65398 0.00953 0.0
H860 H 0.95701 0.62565 0.95311 0.0
H861 H 0.97788 0.63582 0.78882 0.0
H862 H 0.02099 0.53486 0.75691 0.0
H863 H 0.01179 0.56114 0.81554 0.0
C864 C 0.10788 0.18849 0.29434 0.0
C865 C 0.09591 0.20428 0.29905 0.0
C866 C 0.10755 0.17427 0.3333 0.0
C867 C 0.08578 0.15994 0.46474 0.0
H868 H 0.07307 0.11476 0.38329 0.0
C869 C 0.02307 0.11389 0.5133 0.0
C870 C 0.02129 0.096 0.48884 0.0
C871 C 0.03991 0.12402 0.50926 0.0
C872 C 0.07707 0.12689 0.40765 0.0
H873 H 0.07562 0.21833 0.35116 0.0
H874 H 0.07502 0.19369 0.41854 0.0
H875 H 0.09002 0.13983 0.33969 0.0
H876 H 0.03676 0.07354 0.44856 0.0
H877 H 0.06633 0.09073 0.44396 0.0
H878 H 0.0718 0.14726 0.53202 0.0
C879 C 0.08479 0.19226 0.38518 0.0
C880 C 0.08686 0.14141 0.38231 0.0
C881 C 0.08511 0.20645 0.34628 0.0
C882 C 0.0375 0.08738 0.4672 0.0
C883 C 0.05445 0.09738 0.46397 0.0
C884 C 0.07607 0.1453 0.49036 0.0
C885 C 0.09525 0.17556 0.3777 0.0
C886 C 0.09037 0.15853 0.40958 0.0
C887 C 0.05545 0.11633 0.48136 0.0
C888 C 0.0706 0.12906 0.4611 0.0
H889 H 0.11669 0.18661 0.259 0.0
H890 H 0.11603 0.16173 0.32691 0.0
H891 H 0.08863 0.17284 0.48715 0.0
H892 H 0.01105 0.12066 0.53223 0.0
H893 H 0.04005 0.13848 0.52376 0.0
C894 C 0.3133 0.08861 0.32839 0.0
C895 C 0.31765 0.1001 0.28403 0.0
C896 C 0.32654 0.08563 0.36927 0.0
C897 C 0.37781 0.08335 0.38204 0.0
H898 H 0.36446 0.06481 0.52403 0.0
C899 C 0.42669 0.03336 0.50051 0.0
C900 C 0.41743 0.01598 0.5086 0.0
C901 C 0.41641 0.0496 0.48749 0.0
C902 C 0.3685 0.07023 0.48487 0.0
H903 H 0.3386 0.11901 0.25071 0.0
H904 H 0.36176 0.11392 0.32262 0.0
H905 H 0.34221 0.08463 0.47454 0.0
H906 H 0.38988 1.00254 0.51188 0.0
H907 H 0.37214 0.03082 0.49138 0.0
H908 H 0.40379 0.06827 0.39163 0.0
C909 C 0.34823 0.10688 0.32506 0.0
C910 C 0.35574 0.08148 0.45635 0.0
C911 C 0.33496 0.10981 0.2839 0.0
C912 C 0.39759 0.01559 0.50679 0.0
C913 C 0.38735 0.03186 0.49496 0.0
C914 C 0.39066 0.07232 0.41089 0.0
C915 C 0.34447 0.09411 0.36704 0.0
C916 C 0.35979 0.08723 0.40328 0.0
C917 C 0.39665 0.04888 0.48372 0.0
C918 C 0.38568 0.06481 0.46125 0.0
H919 H 0.30024 0.08068 0.32958 0.0
H920 H 0.32315 0.07548 0.40032 0.0
H921 H 0.38145 0.0874 0.34124 0.0
H922 H 0.4419 0.03439 0.50315 0.0
H923 H 0.42391 0.06259 0.47918 0.0
C924 C 0.41415 0.3198 0.31232 0.0
C925 C 0.40459 0.32331 0.26345 0.0
C926 C 0.41772 0.33448 0.34893 0.0
C927 C 0.42954 0.38342 0.33741 0.0
H928 H 0.43784 0.38001 0.492 0.0
C929 C 0.48564 0.42989 0.43428 0.0
C930 C 0.49796 0.42029 0.46927 0.0
C931 C 0.46793 0.4224 0.42163 0.0
C932 C 0.43564 0.38122 0.44882 0.0
H933 H 0.3891 0.34449 0.21839 0.0
H934 H 0.39578 0.37023 0.28189 0.0
H935 H 0.41653 0.35771 0.44709 0.0
H936 H 0.50067 0.39606 0.52184 0.0
H937 H 0.47056 0.38221 0.49667 0.0
H938 H 0.44972 0.40562 0.33743 0.0
C939 C 0.40067 0.35614 0.29139 0.0
C940 C 0.42331 0.36853 0.42325 0.0
C941 C 0.39695 0.34141 0.25493 0.0
C942 C 0.49169 0.40359 0.49376 0.0
C943 C 0.47418 0.39583 0.48003 0.0
C944 C 0.44203 0.39589 0.36271 0.0
C945 C 0.41192 0.35299 0.33735 0.0
C946 C 0.42073 0.36904 0.36693 0.0
C947 C 0.46234 0.40477 0.44217 0.0
C948 C 0.44589 0.39446 0.41841 0.0
H949 H 0.42039 0.30614 0.3203 0.0
H950 H 0.42655 0.33161 0.38377 0.0
H951 H 0.42806 0.38406 0.29384 0.0
H952 H 0.49011 0.4426 0.41397 0.0
H953 H 0.45904 0.42998 0.39346 0.0
C954 C 0.17175 0.42463 0.2472 0.0
C955 C 0.18932 0.41698 0.26168 0.0
C956 C 0.15713 0.42567 0.28454 0.0
C957 C 0.15096 0.42958 0.43177 0.0
H958 H 0.10053 0.4408 0.38091 0.0
C959 C 0.11385 0.49486 0.50223 0.0
C960 C 0.09562 0.49901 0.48332 0.0
C961 C 0.12151 0.47688 0.49502 0.0
C962 C 0.11426 0.43739 0.39734 0.0
H963 H 0.20482 0.40301 0.32561 0.0
H964 H 0.179 0.40441 0.39102 0.0
H965 H 0.12094 0.42145 0.32643 0.0
H966 H 0.07003 0.48658 0.45041 0.0
H967 H 0.08267 0.45492 0.44255 0.0
H968 H 0.14407 0.4448 0.50376 0.0
C969 C 0.1767 0.41005 0.35098 0.0
C970 C 0.12621 0.42646 0.3651 0.0
C971 C 0.19149 0.4092 0.3135 0.0
C972 C 0.08425 0.48405 0.46463 0.0
C973 C 0.09171 0.46584 0.45909 0.0
C974 C 0.13876 0.43992 0.46506 0.0
C975 C 0.15952 0.41894 0.33757 0.0
C976 C 0.14523 0.42392 0.3796 0.0
C977 C 0.11095 0.46234 0.47001 0.0
C978 C 0.12084 0.44552 0.44608 0.0
H979 H 0.16965 0.43108 0.20806 0.0
H980 H 0.14443 0.43304 0.2725 0.0
H981 H 0.16536 0.42757 0.44534 0.0
H982 H 0.12272 0.50583 0.51939 0.0
H983 H 0.13626 0.4751 0.50507 0.0
C984 C 0.90361 0.83089 0.88915 0.0
C985 C 0.90513 0.82995 0.94588 0.0
C986 C 0.90458 0.84827 0.86274 0.0
C987 C 0.92745 0.89366 0.89177 0.0
H988 H 0.91585 0.90268 0.74094 0.0
C989 C 0.97459 0.94279 0.7753 0.0
C990 C 0.98213 0.93383 0.72924 0.0
C991 C 0.95783 0.9363 0.79821 0.0
C992 C 0.91907 0.90047 0.78326 0.0
H993 H 0.90581 0.84723 0.01913 0.0
H994 H 0.90589 0.87715 0.97344 0.0
H995 H 0.89792 0.87901 0.7908 0.0
H996 H 0.97666 0.91273 0.66715 0.0
H997 H 0.94796 0.90087 0.70835 0.0
H998 H 0.94915 0.91419 0.88402 0.0
C999 C 0.90517 0.86439 0.94912 0.0
C1000 C 0.90884 0.88687 0.81182 0.0
C1001 C 0.90479 0.84703 0.9755 0.0
C1002 C 0.97155 0.91953 0.70365 0.0
C1003 C 0.95487 0.91295 0.7268 0.0
C1004 C 0.93754 0.90723 0.86346 0.0
C1005 C 0.90654 0.86518 0.8925 0.0
C1006 C 0.91354 0.88266 0.86577 0.0
C1007 C 0.94833 0.92063 0.77589 0.0
C1008 C 0.93414 0.91015 0.80818 0.0
H1009 H 0.90296 0.81817 0.86472 0.0
H1010 H 0.90535 0.84821 0.81904 0.0
H1011 H 0.93179 0.89079 0.93289 0.0
H1012 H 0.98222 0.95397 0.79592 0.0
H1013 H 0.95293 0.94284 0.83534 0.0
C1014 C 0.67669 0.91083 0.86567 0.0
C1015 C 0.69609 0.91505 0.86386 0.0
C1016 C 0.66501 0.91479 0.82157 0.0
C1017 C 0.66531 0.95015 0.71461 0.0
H1018 H 0.61383 0.93288 0.69485 0.0
C1019 C 0.61153 1.00093 0.62981 0.0
C1020 C 0.59614 1.00314 0.66492 0.0
C1021 C 0.62273 0.98471 0.6321 0.0
C1022 C 0.62824 0.93777 0.69945 0.0
H1023 H 0.71872 0.92403 0.81062 0.0
H1024 H 0.69862 0.92963 0.73323 0.0
H1025 H 0.63686 0.91233 0.73897 0.0
H1026 H 0.57952 0.98954 0.72678 0.0
H1027 H 0.59899 0.96135 0.73108 0.0
H1028 H 0.65664 0.97587 0.67802 0.0
C1029 C 0.69224 0.92423 0.76975 0.0
C1030 C 0.64142 0.92603 0.72484 0.0
C1031 C 0.70387 0.92071 0.81423 0.0
C1032 C 0.59117 0.98814 0.69886 0.0
C1033 C 0.60236 0.97193 0.70121 0.0
C1034 C 0.65222 0.96177 0.68908 0.0
C1035 C 0.67253 0.92267 0.7742 0.0
C1036 C 0.6599 0.93246 0.73506 0.0
C1037 C 0.61879 0.97044 0.66971 0.0
C1038 C 0.63332 0.9561 0.68346 0.0
H1039 H 0.67027 0.90575 0.90246 0.0
H1040 H 0.64992 0.9132 0.82665 0.0
H1041 H 0.67925 0.95585 0.72223 0.0
H1042 H 0.61544 0.01214 0.60243 0.0
H1043 H 0.63512 0.98383 0.60665 0.0
C1044 C 0.60294 0.66827 0.93262 0.0
C1045 C 0.59373 0.6856 0.92326 0.0
C1046 C 0.59574 0.65145 0.91078 0.0
C1047 C 0.54918 0.63361 0.87546 0.0
H1048 H 0.57505 0.58792 0.83006 0.0
C1049 C 0.50763 0.56804 0.81165 0.0
C1050 C 0.51408 0.55029 0.82899 0.0
C1051 C 0.51885 0.58406 0.81778 0.0
C1052 C 0.56769 0.60055 0.84314 0.0
H1053 H 0.57102 0.6989 0.8781 0.0
H1054 H 0.55912 0.66985 0.83863 0.0
H1055 H 0.59311 0.61711 0.84482 0.0
H1056 H 0.53742 0.53562 0.86698 0.0
H1057 H 0.55683 0.5639 0.87956 0.0
H1058 H 0.52394 0.61726 0.87553 0.0
C1059 C 0.57152 0.66919 0.86431 0.0
C1060 C 0.578 0.61725 0.85129 0.0
C1061 C 0.57857 0.68594 0.88644 0.0
C1062 C 0.53198 0.54908 0.85349 0.0
C1063 C 0.54322 0.56521 0.85996 0.0
C1064 C 0.53896 0.61703 0.86763 0.0
C1065 C 0.57933 0.65169 0.87881 0.0
C1066 C 0.56878 0.63399 0.8672 0.0
C1067 C 0.53672 0.5829 0.84228 0.0
C1068 C 0.54802 0.60032 0.85109 0.0
H1069 H 0.61495 0.66754 0.95971 0.0
H1070 H 0.60219 0.63819 0.92233 0.0
H1071 H 0.54172 0.64607 0.8894 0.0
H1072 H 0.4938 0.56964 0.79349 0.0
H1073 H 0.51347 0.59742 0.80317 0.0
C1074 C 0.82355 0.60377 0.83994 0.0
C1075 C 0.82675 0.60735 0.89526 0.0
C1076 C 0.83855 0.60363 0.80338 0.0
C1077 C 0.89172 0.6078 0.79548 0.0
H1078 H 0.88554 0.56117 0.7145 0.0
C1079 C 0.94496 0.54822 0.78811 0.0
C1080 C 0.94444 0.53507 0.74531 0.0
C1081 C 0.93389 0.56452 0.78635 0.0
C1082 C 0.88758 0.57451 0.7354 0.0
H1083 H 0.84788 0.61657 0.95345 0.0
H1084 H 0.87407 0.61477 0.89132 0.0
H1085 H 0.85814 0.57716 0.74878 0.0
H1086 H 0.93383 0.52984 0.66422 0.0
H1087 H 0.91444 0.5583 0.66121 0.0
H1088 H 0.92156 0.60381 0.78585 0.0
C1089 C 0.86004 0.61227 0.87545 0.0
C1090 C 0.8717 0.58383 0.75524 0.0
C1091 C 0.84496 0.61293 0.91167 0.0
C1092 C 0.93434 0.53959 0.69814 0.0
C1093 C 0.9232 0.55588 0.69645 0.0
C1094 C 0.90769 0.59828 0.77613 0.0
C1095 C 0.8572 0.60649 0.82145 0.0
C1096 C 0.87356 0.60007 0.78804 0.0
C1097 C 0.922 0.5679 0.74184 0.0
C1098 C 0.90578 0.58102 0.74818 0.0
H1099 H 0.80975 0.5996 0.82523 0.0
H1100 H 0.83564 0.59989 0.76165 0.0
H1101 H 0.89373 0.62059 0.81908 0.0
H1102 H 0.9531 0.54537 0.8243 0.0
H1103 H 0.9334 0.5735 0.82195 0.0
C1104 C 0.01435 0.18669 0.87352 0.0
C1105 C 0.0316 0.19635 0.8682 0.0
C1106 C 0.01032 0.17068 0.84161 0.0
C1107 C 0.02527 0.14372 0.71772 0.0
H1108 H 1.00111 0.1019 0.79033 0.0
C1109 C 0.01848 0.06769 0.62336 0.0
C1110 C 1.00175 0.05776 0.63434 0.0
C1111 C 0.02202 0.08531 0.64816 0.0
C1112 C 0.00764 0.1135 0.76903 0.0
H1113 H 0.05766 0.19711 0.82244 0.0
H1114 H 0.05077 0.16921 0.7676 0.0
H1115 H 0.00686 0.13123 0.83944 0.0
H1116 H 0.97502 0.05914 0.67622 0.0
H1117 H 0.98115 0.08956 0.71966 0.0
H1118 H 0.02614 0.12576 0.64729 0.0
C1119 C 0.04029 0.17397 0.7964 0.0
C1120 C 0.01093 0.13041 0.79732 0.0
C1121 C 0.04433 0.18995 0.82836 0.0
C1122 C 0.98826 0.06623 0.66818 0.0
C1123 C 0.99183 0.08366 0.69325 0.0
C1124 C 0.02196 0.12674 0.68931 0.0
C1125 C 0.02338 0.16384 0.80322 0.0
C1126 C 0.01971 0.14586 0.77216 0.0
C1127 C 0.0089 0.09334 0.68449 0.0
C1128 C 0.01297 0.11141 0.71449 0.0
H1129 H 0.00422 0.19103 0.90386 0.0
H1130 H 0.99699 0.16351 0.84753 0.0
H1131 H 0.03194 0.15528 0.69666 0.0
H1132 H 0.02887 0.06178 0.59601 0.0
H1133 H 0.03528 0.09234 0.64013 0.0
C1134 C 0.33038 0.04817 0.81216 0.0
C1135 C 0.32323 0.03662 0.85344 0.0
C1136 C 0.34628 0.0427 0.78233 0.0
C1137 C 0.38861 0.01246 0.79398 0.0
H1138 H 0.39485 0.02322 0.64152 0.0
C1139 C 0.45442 0.98745 0.67646 0.0
C1140 C 0.46266 1.00027 0.64056 0.0
C1141 C 0.43683 0.99127 0.69968 0.0
C1142 C 0.39341 0.02029 0.68425 0.0
H1143 H 0.32691 0.00983 0.89408 0.0
H1144 H 0.35443 1.00013 0.84152 0.0
H1145 H 0.3649 0.03049 0.68593 0.0
H1146 H 0.45826 0.02638 0.59723 0.0
H1147 H 0.42768 0.0333 0.63835 0.0
H1148 H 0.41715 1.00254 0.79268 0.0
C1149 C 0.34788 0.0136 0.83272 0.0
C1150 C 0.37621 0.02442 0.70971 0.0
C1151 C 0.33192 0.01905 0.86243 0.0
C1152 C 0.45255 0.01658 0.62626 0.0
C1153 C 0.43488 0.02038 0.64927 0.0
C1154 C 0.40579 0.00838 0.76862 0.0
C1155 C 0.35552 0.02553 0.79303 0.0
C1156 C 0.37357 0.02056 0.76498 0.0
C1157 C 0.42688 0.00788 0.68685 0.0
C1158 C 0.40844 0.01222 0.71342 0.0
H1159 H 0.32394 0.06172 0.80372 0.0
H1160 H 0.35176 0.0523 0.75233 0.0
H1161 H 0.38729 0.00966 0.8368 0.0
H1162 H 0.46171 0.97452 0.68698 0.0
H1163 H 0.43095 0.98109 0.72743 0.0
C1164 C 0.49597 0.32194 0.87483 0.0
C1165 C 0.47971 0.31219 0.85767 0.0
C1166 C 0.50257 0.33756 0.84601 0.0
C1167 C 0.49864 0.36359 0.71618 0.0
H1168 H 0.50758 0.40773 0.80642 0.0
C1169 C 0.51943 0.43749 0.63101 0.0
C1170 C 0.50861 0.4526 0.65146 0.0
C1171 C 0.51822 0.4195 0.65423 0.0
C1172 C 0.5052 0.39552 0.78065 0.0
H1173 H 0.45842 0.31042 0.79473 0.0
H1174 H 0.46993 0.33763 0.74444 0.0
H1175 H 0.50183 0.37722 0.84842 0.0
H1176 H 0.48844 0.46069 0.71331 0.0
H1177 H 0.48665 0.4296 0.75413 0.0
H1178 H 0.50155 0.38215 0.64837 0.0
C1179 C 0.47758 0.33324 0.7802 0.0
C1180 C 0.50208 0.37798 0.8047 0.0
C1181 C 0.4709 0.31772 0.80923 0.0
C1182 C 0.49692 0.4494 0.6963 0.0
C1183 C 0.49597 0.43158 0.71999 0.0
C1184 C 0.50196 0.38114 0.69205 0.0
C1185 C 0.49316 0.34371 0.79913 0.0
C1186 C 0.49844 0.36185 0.77285 0.0
C1187 C 0.5065 0.41638 0.69912 0.0
C1188 C 0.50489 0.39738 0.7241 0.0
H1189 H 0.50301 0.31815 0.91215 0.0
H1190 H 0.51474 0.34517 0.86132 0.0
H1191 H 0.496 0.35141 0.6905 0.0
H1192 H 0.52858 0.43946 0.59656 0.0
H1193 H 0.52656 0.40808 0.63737 0.0
C1194 C 0.19851 0.46987 0.81035 0.0
C1195 C 0.20468 0.48229 0.85153 0.0
C1196 C 0.18314 0.47448 0.77719 0.0
C1197 C 0.14075 0.50559 0.77653 0.0
H1198 H 0.13503 0.48663 0.62987 0.0
C1199 C 0.07494 0.52314 0.648 0.0
C1200 C 0.06618 0.50778 0.62177 0.0
C1201 C 0.09296 0.52124 0.67074 0.0
C1202 C 0.13639 0.49195 0.67088 0.0
H1203 H 0.19993 0.5099 0.88754 0.0
H1204 H 0.17375 0.51828 0.82836 0.0
H1205 H 0.16479 0.48184 0.6781 0.0
H1206 H 0.07009 0.47874 0.5956 0.0
H1207 H 0.10157 0.47544 0.63528 0.0
H1208 H 0.11238 0.51572 0.76922 0.0
C1209 C 0.18042 0.50465 0.82277 0.0
C1210 C 0.15346 0.48918 0.6987 0.0
C1211 C 0.19572 0.49996 0.85628 0.0
C1212 C 0.07627 0.49074 0.61651 0.0
C1213 C 0.0944 0.4889 0.63881 0.0
C1214 C 0.12379 0.5085 0.74858 0.0
C1215 C 0.17354 0.49176 0.7837 0.0
C1216 C 0.15585 0.4958 0.75223 0.0
C1217 C 0.10281 0.50402 0.66727 0.0
C1218 C 0.1213 0.50159 0.69559 0.0
H1219 H 0.20524 0.45627 0.80462 0.0
H1220 H 0.17834 0.46409 0.74794 0.0
H1221 H 0.14175 0.51056 0.81793 0.0
H1222 H 0.06767 0.53651 0.65241 0.0
H1223 H 0.09913 0.53326 0.69158 0.0
C1224 C 0.00689 0.8336 0.28634 0.0
C1225 C 0.98915 0.82462 0.28546 0.0
C1226 C 0.00995 0.84998 0.31748 0.0
C1227 C 0.98414 0.88942 0.38708 0.0
H1228 H 0.03305 0.89883 0.45245 0.0
C1229 C 0.99891 0.95392 0.52984 0.0
C1230 C 0.01592 0.96362 0.52109 0.0
C1231 C 0.99526 0.93666 0.5033 0.0
C1232 C 0.01933 0.89653 0.43413 0.0
H1233 H 0.96073 0.82619 0.31772 0.0
H1234 H 0.96624 0.85418 0.37317 0.0
H1235 H 0.02753 0.86942 0.40323 0.0
H1236 H 0.04286 0.96236 0.48035 0.0
H1237 H 0.03654 0.93246 0.43377 0.0
H1238 H 0.97597 0.91654 0.41864 0.0
C1239 C 0.97776 0.84876 0.34896 0.0
C1240 C 0.01616 0.87961 0.40564 0.0
C1241 C 0.97468 0.83241 0.31765 0.0
C1242 C 0.02948 0.95536 0.48704 0.0
C1243 C 0.02589 0.93814 0.46068 0.0
C1244 C 0.98729 0.9063 0.41594 0.0
C1245 C 0.99541 0.85794 0.34906 0.0
C1246 C 0.99856 0.87581 0.38118 0.0
C1247 C 0.00871 0.92854 0.46821 0.0
C1248 C 0.00499 0.91019 0.43945 0.0
H1249 H 0.01849 0.82802 0.26271 0.0
H1250 H 0.02369 0.85663 0.31574 0.0
H1251 H 0.97048 0.88727 0.36831 0.0
H1252 H 0.98847 0.95961 0.55738 0.0
H1253 H 0.982 0.92956 0.51078 0.0
C1254 C 0.68572 0.96677 0.34027 0.0
C1255 C 0.69245 0.9785 0.29879 0.0
C1256 C 0.66978 0.97183 0.37056 0.0
C1257 C 0.62694 1.00192 0.3622 0.0
H1258 H 0.62183 0.99 0.51409 0.0
C1259 C 0.56277 0.02764 0.48544 0.0
C1260 C 0.55457 0.01497 0.52187 0.0
C1261 C 0.58006 0.02347 0.46089 0.0
C1262 C 0.62294 0.9933 0.47163 0.0
H1263 H 0.68783 0.00518 0.25827 0.0
H1264 H 0.66041 0.01422 0.31187 0.0
H1265 H 0.65131 0.98284 0.46751 0.0
H1266 H 0.55879 0.98881 0.56509 0.0
H1267 H 0.58898 0.98131 0.52178 0.0
H1268 H 0.59857 0.01225 0.36618 0.0
C1269 C 0.66726 1.00089 0.32034 0.0
C1270 C 0.63989 0.98918 0.44477 0.0
C1271 C 0.68321 0.99583 0.29005 0.0
C1272 C 0.56453 0.99853 0.53576 0.0
C1273 C 0.58194 0.99438 0.51141 0.0
C1274 C 0.61004 0.00605 0.38907 0.0
C1275 C 0.66007 0.98879 0.36033 0.0
C1276 C 0.64216 0.99348 0.38964 0.0
C1277 C 0.58978 0.00665 0.47282 0.0
C1278 C 0.60781 1.0019 0.44427 0.0
H1279 H 0.69257 0.95343 0.3487 0.0
H1280 H 0.66469 0.96207 0.40073 0.0
H1281 H 0.62791 0.00503 0.3195 0.0
H1282 H 0.55561 0.04066 0.47515 0.0
H1283 H 0.58584 0.03351 0.43257 0.0
C1284 C 0.55336 0.69871 0.36891 0.0
C1285 C 0.54213 0.70628 0.32731 0.0
C1286 C 0.54754 0.68273 0.39728 0.0
C1287 C 0.51537 0.64146 0.38196 0.0
H1288 H 0.53262 0.63082 0.52753 0.0
C1289 C 0.49735 0.57201 0.49545 0.0
C1290 C 0.51303 0.56271 0.51791 0.0
C1291 C 0.49906 0.59043 0.47567 0.0
C1292 C 0.52772 0.63361 0.48682 0.0
H1293 H 0.51527 0.70351 0.28569 0.0
H1294 H 0.5047 0.67626 0.33695 0.0
H1295 H 0.53791 0.66203 0.48927 0.0
H1296 H 0.54269 0.56564 0.53838 0.0
H1297 H 0.54557 0.59781 0.50456 0.0
H1298 H 0.50503 0.61298 0.38014 0.0
C1299 C 0.51836 0.68228 0.34639 0.0
C1300 C 0.53081 0.65149 0.46468 0.0
C1301 C 0.5243 0.69818 0.31752 0.0
C1302 C 0.53036 0.57235 0.52101 0.0
C1303 C 0.53198 0.59084 0.50205 0.0
C1304 C 0.51203 0.62368 0.40447 0.0
C1305 C 0.53016 0.67395 0.38554 0.0
C1306 C 0.52504 0.65558 0.41145 0.0
C1307 C 0.5164 0.60005 0.47883 0.0
C1308 C 0.51849 0.61944 0.45675 0.0
H1309 H 0.56703 0.70474 0.37837 0.0
H1310 H 0.55715 0.67679 0.42672 0.0
H1311 H 0.51097 0.64384 0.34061 0.0
H1312 H 0.48385 0.56492 0.49215 0.0
H1313 H 0.4868 0.59721 0.45811 0.0
C1314 C 0.82398 0.51731 0.27537 0.0
C1315 C 0.81169 0.53193 0.29134 0.0
C1316 C 0.84014 0.5131 0.30587 0.0
C1317 C 0.86435 0.52169 0.43878 0.0
H1318 H 0.90964 0.51427 0.35372 0.0
C1319 C 0.9391 0.50813 0.53378 0.0
C1320 C 0.95411 0.51798 0.50976 0.0
C1321 C 0.92099 0.50829 0.51022 0.0
C1322 C 0.89716 0.51637 0.37822 0.0
H1323 H 0.80628 0.55269 0.35433 0.0
H1324 H 0.83454 0.54559 0.40684 0.0
H1325 H 0.87927 0.51691 0.30849 0.0
H1326 H 0.96189 0.53484 0.44088 0.0
H1327 H 0.93067 0.53564 0.40084 0.0
H1328 H 0.88253 0.52172 0.50849 0.0
C1329 C 0.83169 0.5373 0.37078 0.0
C1330 C 0.87963 0.51764 0.35223 0.0
C1331 C 0.81552 0.54151 0.34028 0.0
C1332 C 0.95063 0.52774 0.46156 0.0
C1333 C 0.9327 0.52783 0.43792 0.0
C1334 C 0.88195 0.52034 0.46488 0.0
C1335 C 0.84452 0.52337 0.35326 0.0
C1336 C 0.86297 0.52056 0.38197 0.0
C1337 C 0.91761 0.51804 0.46161 0.0
C1338 C 0.89863 0.51799 0.43483 0.0
H1339 H 0.82165 0.50969 0.23783 0.0
H1340 H 0.84948 0.50204 0.29151 0.0
H1341 H 0.85183 0.52374 0.46314 0.0
H1342 H 0.94135 0.50037 0.57086 0.0
H1343 H 0.90975 0.50048 0.52945 0.0
loop_
_geom_bond_atom_site_label_1
_geom_bond_atom_site_label_2
_geom_bond_distance
_geom_bond_site_symmetry_2
_ccdc_geom_bond_type
C0 C1 1.384 . S
C0 H13 0.947 . S
C0 C35 1.382 . S
C1 C0 1.384 . S
C1 C2 1.378 . S
C2 C1 1.378 . S
C2 C3 1.378 . S
C2 H14 0.952 . S
C3 C2 1.378 . S
C3 H15 0.950 . S
C3 C34 1.383 . S
H4 C23 0.947 . S
H5 C24 0.946 . S
H6 C26 0.953 . S
H7 C27 0.945 . S
H8 C29 0.949 1_556 S
H9 C30 0.949 . S
H10 C32 0.950 . S
H11 C33 0.948 . S
H12 C35 0.951 . S
H13 C0 0.947 . S
H14 C2 0.952 . S
H15 C3 0.950 . S
N16 C19 1.382 . S
N16 C21 1.363 . S
N17 C19 1.371 . S
N17 C20 1.372 . S
N18 C20 1.361 . S
N18 C21 1.377 . S
C19 N16 1.382 . S
C19 N17 1.371 . S
C19 C22 1.480 . S
C20 N17 1.372 . S
C20 N18 1.361 . S
C20 C28 1.457 . S
C21 N16 1.363 . S
C21 N18 1.377 . S
C21 C34 1.479 . S
C22 C19 1.480 . S
C22 C23 1.383 . S
C22 C27 1.385 . S
C23 H4 0.947 . S
C23 C22 1.383 . S
C23 C24 1.388 . S
C24 H5 0.946 . S
C24 C23 1.388 . S
C24 C25 1.384 . S
C25 C24 1.384 . S
C25 C26 1.377 . S
C26 H6 0.953 . S
C26 C25 1.377 . S
C26 C27 1.369 . S
C27 H7 0.945 . S
C27 C22 1.385 . S
C27 C26 1.369 . S
C28 C20 1.457 . S
C28 C29 1.372 . S
C28 C33 1.364 . S
C29 H8 0.949 1_554 S
C29 C28 1.372 . S
C29 C30 1.389 1_554 S
C30 H9 0.949 . S
C30 C29 1.389 1_556 S
C30 C31 1.387 . S
C31 C30 1.387 . S
C31 C32 1.372 1_556 S
C32 H10 0.950 . S
C32 C31 1.372 1_554 S
C32 C33 1.379 . S
C33 H11 0.948 . S
C33 C28 1.364 . S
C33 C32 1.379 . S
C34 C3 1.383 . S
C34 C21 1.479 . S
C34 C35 1.398 . S
C35 C0 1.382 . S
C35 H12 0.951 . S
C35 C34 1.398 . S
C36 C37 1.384 . S
C36 H49 0.947 . S
C36 C71 1.382 . S
C37 C36 1.384 . S
C37 C38 1.378 . S
C38 C37 1.378 . S
C38 C39 1.378 . S
C38 H50 0.952 . S
C39 C38 1.378 . S
C39 H51 0.950 . S
C39 C70 1.383 . S
H40 C59 0.947 . S
H41 C60 0.946 . S
H42 C62 0.953 . S
H43 C63 0.945 . S
H44 C65 0.952 . S
H45 C66 0.949 . S
H46 C68 0.950 . S
H47 C69 0.948 . S
H48 C71 0.951 . S
H49 C36 0.947 . S
H50 C38 0.952 . S
H51 C39 0.950 . S
N52 C55 1.382 . S
N52 C57 1.363 . S
N53 C55 1.371 . S
N53 C56 1.372 . S
N54 C56 1.361 . S
N54 C57 1.377 . S
C55 N52 1.382 . S
C55 N53 1.371 . S
C55 C58 1.480 . S
C56 N53 1.372 . S
C56 N54 1.361 . S
C56 C64 1.457 . S
C57 N52 1.363 . S
C57 N54 1.377 . S
C57 C70 1.479 . S
C58 C55 1.480 . S
C58 C59 1.383 . S
C58 C63 1.385 . S
C59 H40 0.947 . S
C59 C58 1.383 . S
C59 C60 1.388 . S
C60 H41 0.946 . S
C60 C59 1.388 . S
C60 C61 1.384 . S
C61 C60 1.384 . S
C61 C62 1.377 . S
C62 H42 0.953 . S
C62 C61 1.377 . S
C62 C63 1.369 . S
C63 H43 0.945 . S
C63 C58 1.385 . S
C63 C62 1.369 . S
C64 C56 1.457 . S
C64 C65 1.372 . S
C64 C69 1.364 . S
C65 H44 0.952 . S
C65 C64 1.372 . S
C65 C66 1.389 1_554 S
C66 H45 0.949 . S
C66 C65 1.389 1_556 S
C66 C67 1.387 . S
C67 C66 1.387 . S
C67 C68 1.372 1_556 S
C68 H46 0.950 . S
C68 C67 1.372 1_554 S
C68 C69 1.379 . S
C69 H47 0.948 . S
C69 C64 1.364 . S
C69 C68 1.379 . S
C70 C39 1.383 . S
C70 C57 1.479 . S
C70 C71 1.398 . S
C71 C36 1.382 . S
C71 H48 0.951 . S
C71 C70 1.398 . S
C72 C73 1.384 . S
C72 H85 0.947 . S
C72 C107 1.382 . S
C73 C72 1.384 . S
C73 C74 1.378 . S
C74 C73 1.378 . S
C74 C75 1.378 . S
C74 H86 0.952 . S
C75 C74 1.378 . S
C75 H87 0.950 . S
C75 C106 1.383 . S
H76 C95 0.947 . S
H77 C96 0.946 . S
H78 C98 0.953 . S
H79 C99 0.945 . S
H80 C101 0.952 . S
H81 C102 0.949 . S
H82 C104 0.950 . S
H83 C105 0.948 . S
H84 C107 0.951 . S
H85 C72 0.947 . S
H86 C74 0.952 . S
H87 C75 0.950 . S
N88 C91 1.382 . S
N88 C93 1.363 . S
N89 C91 1.371 . S
N89 C92 1.372 . S
N90 C92 1.361 . S
N90 C93 1.377 . S
C91 N88 1.382 . S
C91 N89 1.371 . S
C91 C94 1.480 . S
C92 N89 1.372 . S
C92 N90 1.361 . S
C92 C100 1.457 . S
C93 N88 1.363 . S
C93 N90 1.377 . S
C93 C106 1.479 . S
C94 C91 1.480 . S
C94 C95 1.383 . S
C94 C99 1.385 . S
C95 H76 0.947 . S
C95 C94 1.383 . S
C95 C96 1.388 . S
C96 H77 0.946 . S
C96 C95 1.388 . S
C96 C97 1.384 . S
C97 C96 1.384 . S
C97 C98 1.377 . S
C98 H78 0.953 . S
C98 C97 1.377 . S
C98 C99 1.369 . S
C99 H79 0.945 . S
C99 C94 1.385 . S
C99 C98 1.369 . S
C100 C92 1.457 . S
C100 C101 1.372 . S
C100 C105 1.364 . S
C101 H80 0.952 . S
C101 C100 1.372 . S
C101 C102 1.389 1_554 S
C102 H81 0.949 . S
C102 C101 1.389 1_556 S
C102 C103 1.387 . S
C103 C102 1.387 . S
C103 C104 1.372 1_556 S
C104 H82 0.950 . S
C104 C103 1.372 1_554 S
C104 C105 1.379 . S
C105 H83 0.948 . S
C105 C100 1.364 . S
C105 C104 1.379 . S
C106 C75 1.383 . S
C106 C93 1.479 . S
C106 C107 1.398 . S
C107 C72 1.382 . S
C107 H84 0.951 . S
C107 C106 1.398 . S
C108 C109 1.384 1_554 S
C108 H121 0.947 . S
C108 C143 1.382 . S
C109 C108 1.384 1_556 S
C109 C110 1.378 . S
C110 C109 1.378 . S
C110 C111 1.378 1_556 S
C110 H122 0.952 . S
C111 C110 1.378 1_554 S
C111 H123 0.950 1_554 S
C111 C142 1.383 . S
H112 C131 0.947 . S
H113 C132 0.946 . S
H114 C134 0.953 . S
H115 C135 0.945 . S
H116 C137 0.952 . S
H117 C138 0.949 . S
H118 C140 0.950 . S
H119 C141 0.948 . S
H120 C143 0.951 . S
H121 C108 0.947 . S
H122 C110 0.952 . S
H123 C111 0.950 1_556 S
N124 C127 1.382 . S
N124 C129 1.363 . S
N125 C127 1.371 . S
N125 C128 1.372 . S
N126 C128 1.361 . S
N126 C129 1.377 . S
C127 N124 1.382 . S
C127 N125 1.371 . S
C127 C130 1.480 . S
C128 N125 1.372 . S
C128 N126 1.361 . S
C128 C136 1.457 . S
C129 N124 1.363 . S
C129 N126 1.377 . S
C129 C142 1.479 . S
C130 C127 1.480 . S
C130 C131 1.383 . S
C130 C135 1.385 . S
C131 H112 0.947 . S
C131 C130 1.383 . S
C131 C132 1.388 . S
C132 H113 0.946 . S
C132 C131 1.388 . S
C132 C133 1.384 . S
C133 C132 1.384 . S
C133 C134 1.377 . S
C134 H114 0.953 . S
C134 C133 1.377 . S
C134 C135 1.369 . S
C135 H115 0.945 . S
C135 C130 1.385 . S
C135 C134 1.369 . S
C136 C128 1.457 . S
C136 C137 1.372 . S
C136 C141 1.364 . S
C137 H116 0.952 . S
C137 C136 1.372 . S
C137 C138 1.389 . S
C138 H117 0.949 . S
C138 C137 1.389 . S
C138 C139 1.387 . S
C139 C138 1.387 . S
C139 C140 1.372 . S
C140 H118 0.950 . S
C140 C139 1.372 . S
C140 C141 1.379 . S
C141 H119 0.948 . S
C141 C136 1.364 . S
C141 C140 1.379 . S
C142 C111 1.383 . S
C142 C129 1.479 . S
C142 C143 1.398 . S
C143 C108 1.382 . S
C143 H120 0.951 . S
C143 C142 1.398 . S
C144 C145 1.384 . S
C144 H157 0.947 . S
C144 C179 1.382 . S
C145 C144 1.384 . S
C145 C146 1.378 . S
C146 C145 1.378 . S
C146 C147 1.378 . S
C146 H158 0.952 . S
C147 C146 1.378 . S
C147 H159 0.950 . S
C147 C178 1.383 . S
H148 C167 0.947 1_556 S
H149 C168 0.946 1_556 S
H150 C170 0.953 . S
H151 C171 0.945 . S
H152 C173 0.952 . S
H153 C174 0.949 . S
H154 C176 0.950 . S
H155 C177 0.948 . S
H156 C179 0.951 . S
H157 C144 0.947 . S
H158 C146 0.952 . S
H159 C147 0.950 . S
N160 C163 1.382 1_556 S
N160 C165 1.363 . S
N161 C163 1.371 . S
N161 C164 1.372 . S
N162 C164 1.361 . S
N162 C165 1.377 1_554 S
C163 N160 1.382 1_554 S
C163 N161 1.371 . S
C163 C166 1.480 . S
C164 N161 1.372 . S
C164 N162 1.361 . S
C164 C172 1.457 . S
C165 N160 1.363 . S
C165 N162 1.377 1_556 S
C165 C178 1.479 . S
C166 C163 1.480 . S
C166 C167 1.383 . S
C166 C171 1.385 . S
C167 H148 0.947 1_554 S
C167 C166 1.383 . S
C167 C168 1.388 . S
C168 H149 0.946 1_554 S
C168 C167 1.388 . S
C168 C169 1.384 . S
C169 C168 1.384 . S
C169 C170 1.377 . S
C170 H150 0.953 . S
C170 C169 1.377 . S
C170 C171 1.369 . S
C171 H151 0.945 . S
C171 C166 1.385 . S
C171 C170 1.369 . S
C172 C164 1.457 . S
C172 C173 1.372 . S
C172 C177 1.364 . S
C173 H152 0.952 . S
C173 C172 1.372 . S
C173 C174 1.389 . S
C174 H153 0.949 . S
C174 C173 1.389 . S
C174 C175 1.387 . S
C175 C174 1.387 . S
C175 C176 1.372 . S
C176 H154 0.950 . S
C176 C175 1.372 . S
C176 C177 1.379 . S
C177 H155 0.948 . S
C177 C172 1.364 . S
C177 C176 1.379 . S
C178 C147 1.383 . S
C178 C165 1.479 . S
C178 C179 1.398 . S
C179 C144 1.382 . S
C179 H156 0.951 . S
C179 C178 1.398 . S
C180 C181 1.384 . S
C180 H193 0.947 . S
C180 C215 1.382 . S
C181 C180 1.384 . S
C181 C182 1.378 . S
C182 C181 1.378 . S
C182 C183 1.378 . S
C182 H194 0.952 . S
C183 C182 1.378 . S
C183 H195 0.950 . S
C183 C214 1.383 . S
H184 C203 0.947 . S
H185 C204 0.946 1_556 S
H186 C206 0.953 . S
H187 C207 0.945 . S
H188 C209 0.952 . S
H189 C210 0.949 . S
H190 C212 0.950 . S
H191 C213 0.948 . S
H192 C215 0.951 . S
H193 C180 0.947 . S
H194 C182 0.952 . S
H195 C183 0.950 . S
N196 C199 1.382 1_556 S
N196 C201 1.363 . S
N197 C199 1.371 . S
N197 C200 1.372 . S
N198 C200 1.373 . S
N198 C201 1.367 1_554 S
C199 N196 1.382 1_554 S
C199 N197 1.371 . S
C199 C202 1.480 . S
C200 N197 1.372 . S
C200 N198 1.373 . S
C200 C208 1.457 . S
C201 N196 1.363 . S
C201 N198 1.367 1_556 S
C201 C214 1.479 . S
C202 C199 1.480 . S
C202 C203 1.383 1_554 S
C202 C207 1.385 . S
C203 H184 0.947 . S
C203 C202 1.383 1_556 S
C203 C204 1.388 1_556 S
C204 H185 0.946 1_554 S
C204 C203 1.388 1_554 S
C204 C205 1.384 . S
C205 C204 1.384 . S
C205 C206 1.377 . S
C206 H186 0.953 . S
C206 C205 1.377 . S
C206 C207 1.369 . S
C207 H187 0.945 . S
C207 C202 1.385 . S
C207 C206 1.369 . S
C208 C200 1.457 . S
C208 C209 1.372 . S
C208 C213 1.364 . S
C209 H188 0.952 . S
C209 C208 1.372 . S
C209 C210 1.389 . S
C210 H189 0.949 . S
C210 C209 1.389 . S
C210 C211 1.387 . S
C211 C210 1.387 . S
C211 C212 1.372 . S
C212 H190 0.950 . S
C212 C211 1.372 . S
C212 C213 1.379 . S
C213 H191 0.948 . S
C213 C208 1.364 . S
C213 C212 1.379 . S
C214 C183 1.383 . S
C214 C201 1.479 . S
C214 C215 1.398 . S
C215 C180 1.382 . S
C215 H192 0.951 . S
C215 C214 1.398 . S
C216 C217 1.384 . S
C216 H229 0.947 . S
C216 C251 1.382 . S
C217 C216 1.384 . S
C217 C218 1.378 . S
C218 C217 1.378 . S
C218 C219 1.378 . S
C218 H230 0.952 . S
C219 C218 1.378 . S
C219 H231 0.950 . S
C219 C250 1.383 . S
H220 C239 0.947 . S
H221 C240 0.946 1_556 S
H222 C242 0.953 . S
H223 C243 0.945 . S
H224 C245 0.952 . S
H225 C246 0.949 . S
H226 C248 0.950 . S
H227 C249 0.948 . S
H228 C251 0.951 . S
H229 C216 0.947 . S
H230 C218 0.952 . S
H231 C219 0.950 . S
N232 C235 1.382 1_556 S
N232 C237 1.363 . S
N233 C235 1.371 . S
N233 C236 1.372 . S
N234 C236 1.354 1_556 S
N234 C237 1.382 . S
C235 N232 1.382 1_554 S
C235 N233 1.371 . S
C235 C238 1.480 . S
C236 N233 1.372 . S
C236 N234 1.354 1_554 S
C236 C244 1.457 . S
C237 N232 1.363 . S
C237 N234 1.382 . S
C237 C250 1.479 . S
C238 C235 1.480 . S
C238 C239 1.383 1_554 S
C238 C243 1.385 . S
C239 H220 0.947 . S
C239 C238 1.383 1_556 S
C239 C240 1.388 1_556 S
C240 H221 0.946 1_554 S
C240 C239 1.388 1_554 S
C240 C241 1.384 . S
C241 C240 1.384 . S
C241 C242 1.377 . S
C242 H222 0.953 . S
C242 C241 1.377 . S
C242 C243 1.369 . S
C243 H223 0.945 . S
C243 C238 1.385 . S
C243 C242 1.369 . S
C244 C236 1.457 . S
C244 C245 1.372 . S
C244 C249 1.364 . S
C245 H224 0.952 . S
C245 C244 1.372 . S
C245 C246 1.389 . S
C246 H225 0.949 . S
C246 C245 1.389 . S
C246 C247 1.387 . S
C247 C246 1.387 . S
C247 C248 1.372 . S
C248 H226 0.950 . S
C248 C247 1.372 . S
C248 C249 1.379 . S
C249 H227 0.948 . S
C249 C244 1.364 . S
C249 C248 1.379 . S
C250 C219 1.383 . S
C250 C237 1.479 . S
C250 C251 1.398 . S
C251 C216 1.382 . S
C251 H228 0.951 . S
C251 C250 1.398 . S
C252 C253 1.384 . S
C252 H265 0.947 . S
C252 C287 1.382 . S
C253 C252 1.384 . S
C253 C254 1.378 . S
C254 C253 1.378 . S
C254 C255 1.378 . S
C254 H266 0.952 . S
C255 C254 1.378 . S
C255 H267 0.950 . S
C255 C286 1.383 . S
H256 C275 0.947 . S
H257 C276 0.946 . S
H258 C278 0.953 1_556 S
H259 C279 0.961 . S
H260 C281 0.952 . S
H261 C282 0.949 . S
H262 C284 0.950 . S
H263 C285 0.948 . S
H264 C287 0.951 . S
H265 C252 0.947 . S
H266 C254 0.952 . S
H267 C255 0.950 . S
N268 C271 1.382 . S
N268 C273 1.363 . S
N269 C271 1.371 1_556 S
N269 C272 1.372 . S
N270 C272 1.360 1_554 S
N270 C273 1.378 . S
C271 N268 1.382 . S
C271 N269 1.371 1_554 S
C271 C274 1.480 . S
C272 N269 1.372 . S
C272 N270 1.360 1_556 S
C272 C280 1.457 . S
C273 N268 1.363 . S
C273 N270 1.378 . S
C273 C286 1.479 . S
C274 C271 1.480 . S
C274 C275 1.383 . S
C274 C279 1.373 1_554 S
C275 H256 0.947 . S
C275 C274 1.383 . S
C275 C276 1.388 . S
C276 H257 0.946 . S
C276 C275 1.388 . S
C276 C277 1.384 . S
C277 C276 1.384 . S
C277 C278 1.377 . S
C278 H258 0.953 1_554 S
C278 C277 1.377 . S
C278 C279 1.365 1_554 S
C279 H259 0.961 . S
C279 C274 1.373 1_556 S
C279 C278 1.365 1_556 S
C280 C272 1.457 . S
C280 C281 1.372 . S
C280 C285 1.364 . S
C281 H260 0.952 . S
C281 C280 1.372 . S
C281 C282 1.389 . S
C282 H261 0.949 . S
C282 C281 1.389 . S
C282 C283 1.387 . S
C283 C282 1.387 . S
C283 C284 1.372 . S
C284 H262 0.950 . S
C284 C283 1.372 . S
C284 C285 1.379 . S
C285 H263 0.948 . S
C285 C280 1.364 . S
C285 C284 1.379 . S
C286 C255 1.383 . S
C286 C273 1.479 . S
C286 C287 1.398 . S
C287 C252 1.382 . S
C287 H264 0.951 . S
C287 C286 1.398 . S
Eu288 N319 2.657 1_565 S
Eu288 N326 2.609 . S
Eu288 O332 2.558 . S
Eu288 O333 2.612 1_455 S
Eu288 O335 2.339 1_455 S
Eu288 O336 2.563 . S
Eu288 O337 2.419 . S
Eu288 O339 2.380 1_565 S
Eu288 O340 2.432 . S
Eu288 C352 2.848 . S
C289 C292 1.414 1_545 S
C289 C293 1.411 . S
C289 N296 1.377 . S
C290 C292 1.441 . S
C290 C294 1.423 . S
C290 C302 1.392 . S
C291 C293 1.420 1_565 S
C291 C294 1.351 . S
C291 H314 0.931 . S
C292 C289 1.414 1_565 S
C292 C290 1.441 . S
C292 N300 1.356 1_565 S
C293 C289 1.411 . S
C293 C291 1.420 1_545 S
C293 C298 1.395 . S
C294 C290 1.423 . S
C294 C291 1.351 . S
C294 H306 0.930 . S
C295 C297 1.400 . S
C295 C298 1.386 . S
C295 H307 0.930 . S
N296 C289 1.377 . S
N296 C297 1.321 . S
N296 Eu299 2.609 . S
C297 C295 1.400 . S
C297 N296 1.321 . S
C297 H304 0.930 . S
C298 C293 1.395 . S
C298 C295 1.386 . S
C298 H317 0.930 . S
Eu299 N296 2.609 . S
Eu299 N300 2.657 . S
Eu299 O333 2.380 1_545 S
Eu299 O334 2.432 . S
Eu299 O338 2.558 . S
Eu299 O339 2.612 1_655 S
Eu299 O341 2.339 1_655 S
Eu299 O342 2.563 1_655 S
Eu299 O343 2.419 . S
Eu299 C363 2.848 . S
N300 C292 1.356 1_545 S
N300 Eu299 2.657 . S
N300 C301 1.334 1_645 S
C301 N300 1.334 1_465 S
C301 C303 1.413 . S
C301 H308 0.929 . S
C302 C290 1.392 . S
C302 C303 1.367 1_655 S
C302 H310 0.930 . S
C303 C301 1.413 . S
C303 C302 1.367 1_455 S
C303 H305 0.930 . S
H304 C297 0.930 . S
H305 C303 0.930 . S
H306 C294 0.930 . S
H307 C295 0.930 . S
H308 C301 0.929 . S
H309 C323 0.930 1_655 S
H310 C302 0.930 . S
H311 C329 0.930 . S
H312 C320 0.929 1_655 S
H313 C327 0.930 . S
H314 C291 0.931 . S
H315 C321 0.930 . S
H316 C354 0.930 . S
H317 C298 0.930 . S
H318 C353 0.931 . S
N319 Eu288 2.657 1_545 S
N319 C320 1.334 . S
N319 C324 1.362 . S
C320 H312 0.929 1_455 S
C320 N319 1.334 . S
C320 C323 1.413 . S
C321 H315 0.930 . S
C321 C322 1.392 . S
C321 C323 1.367 . S
C322 C321 1.392 . S
C322 C324 1.420 . S
C322 C354 1.423 . S
C323 H309 0.930 1_455 S
C323 C320 1.413 . S
C323 C321 1.367 . S
C324 N319 1.362 . S
C324 C322 1.420 . S
C324 C328 1.429 . S
H325 C330 0.930 . S
N326 Eu288 2.609 . S
N326 C328 1.377 1_565 S
N326 C329 1.321 . S
C327 H313 0.930 . S
C327 C329 1.400 . S
C327 C330 1.386 . S
C328 C324 1.429 . S
C328 N326 1.377 1_545 S
C328 C331 1.411 . S
C329 H311 0.930 . S
C329 N326 1.321 . S
C329 C327 1.400 . S
C330 H325 0.930 . S
C330 C327 1.386 . S
C330 C331 1.395 1_565 S
C331 C328 1.411 . S
C331 C330 1.395 1_545 S
C331 C353 1.420 . S
O332 Eu288 2.558 . S
O332 C352 1.257 . S
O333 Eu288 2.612 1_655 S
O333 Eu299 2.380 1_565 S
O333 C344 1.276 . S
O334 Eu299 2.432 . S
O334 C351 1.264 . S
O335 Eu288 2.339 1_655 S
O335 C351 1.254 1_565 S
O336 Eu288 2.563 . S
O336 C344 1.235 1_455 S
O337 Eu288 2.419 . S
O337 C352 1.249 . S
O338 Eu299 2.558 . S
O338 C363 1.257 . S
O339 Eu288 2.380 1_545 S
O339 Eu299 2.612 1_455 S
O339 C355 1.276 . S
O340 Eu288 2.432 . S
O340 C362 1.264 1_565 S
O341 Eu299 2.339 1_455 S
O341 C362 1.254 . S
O342 Eu299 2.563 1_455 S
O342 C355 1.235 . S
O343 Eu299 2.419 . S
O343 C363 1.249 . S
C344 O333 1.276 . S
C344 O336 1.235 1_655 S
C345 C347 1.393 . S
C345 C349 1.395 . S
C345 C352 1.492 . S
C346 C347 1.392 . S
C346 C348 1.386 . S
C347 C345 1.393 . S
C347 C346 1.392 . S
C347 H364 0.930 1_455 S
C348 C346 1.386 . S
C348 C350 1.395 . S
C348 H365 0.930 . S
C349 C345 1.395 . S
C349 C350 1.379 . S
C349 H366 0.930 . S
C350 C348 1.395 . S
C350 C349 1.379 . S
C350 H367 0.930 . S
C351 O334 1.264 . S
C351 O335 1.254 1_545 S
C352 Eu288 2.848 . S
C352 O332 1.257 . S
C352 O337 1.249 . S
C352 C345 1.492 . S
C353 H318 0.931 . S
C353 C331 1.420 . S
C353 C354 1.351 . S
C354 H316 0.930 . S
C354 C322 1.423 . S
C354 C353 1.351 . S
C355 O339 1.276 . S
C355 O342 1.235 . S
C356 C357 1.393 . S
C356 C360 1.395 . S
C356 C363 1.492 . S
C357 C356 1.393 . S
C357 C358 1.392 . S
C357 H368 0.930 1_655 S
C358 C357 1.392 . S
C358 C359 1.386 . S
C359 C358 1.386 . S
C359 C361 1.395 . S
C359 H369 0.930 . S
C360 C356 1.395 . S
C360 C361 1.379 . S
C360 H370 0.930 . S
C361 C359 1.395 . S
C361 C360 1.379 . S
C361 H371 0.930 . S
C362 O340 1.264 1_545 S
C362 O341 1.254 . S
C363 Eu299 2.848 . S
C363 O338 1.257 . S
C363 O343 1.249 . S
C363 C356 1.492 . S
H364 C347 0.930 1_655 S
H365 C348 0.930 . S
H366 C349 0.930 . S
H367 C350 0.930 . S
H368 C357 0.930 1_455 S
H369 C359 0.930 . S
H370 C360 0.930 . S
H371 C361 0.930 . S
Eu372 N403 2.657 . S
Eu372 N410 2.609 . S
Eu372 O416 2.558 . S
Eu372 O417 2.612 1_545 S
Eu372 O419 2.339 1_545 S
Eu372 O420 2.563 . S
Eu372 O421 2.419 . S
Eu372 O423 2.380 . S
Eu372 O424 2.432 . S
Eu372 C436 2.848 . S
C373 C376 1.429 . S
C373 C377 1.411 . S
C373 N380 1.377 . S
C374 C376 1.420 . S
C374 C378 1.423 . S
C374 C386 1.392 . S
C375 C377 1.420 . S
C375 C378 1.351 . S
C375 H398 0.931 . S
C376 C373 1.429 . S
C376 C374 1.420 . S
C376 N384 1.362 . S
C377 C373 1.411 . S
C377 C375 1.420 . S
C377 C382 1.395 . S
C378 C374 1.423 . S
C378 C375 1.351 . S
C378 H390 0.930 . S
C379 C381 1.400 . S
C379 C382 1.386 . S
C379 H391 0.930 . S
N380 C373 1.377 . S
N380 C381 1.321 . S
N380 Eu383 2.609 . S
C381 C379 1.400 . S
C381 N380 1.321 . S
C381 H388 0.930 . S
C382 C377 1.395 . S
C382 C379 1.386 . S
C382 H401 0.930 . S
Eu383 N380 2.609 . S
Eu383 N384 2.657 . S
Eu383 O417 2.380 . S
Eu383 O418 2.432 . S
Eu383 O422 2.558 . S
Eu383 O423 2.612 1_565 S
Eu383 O425 2.339 1_565 S
Eu383 O426 2.563 1_565 S
Eu383 O427 2.419 . S
Eu383 C447 2.848 . S
N384 C376 1.362 . S
N384 Eu383 2.657 . S
N384 C385 1.334 1_565 S
C385 N384 1.334 1_545 S
C385 C387 1.413 . S
C385 H392 0.929 . S
C386 C374 1.392 . S
C386 C387 1.367 1_565 S
C386 H394 0.930 . S
C387 C385 1.413 . S
C387 C386 1.367 1_545 S
C387 H389 0.930 . S
H388 C381 0.930 . S
H389 C387 0.930 . S
H390 C378 0.930 . S
H391 C379 0.930 . S
H392 C385 0.929 . S
H393 C407 0.930 1_565 S
H394 C386 0.930 . S
H395 C413 0.930 . S
H396 C404 0.929 1_565 S
H397 C411 0.930 . S
H398 C375 0.931 . S
H399 C405 0.930 . S
H400 C438 0.930 . S
H401 C382 0.930 . S
H402 C437 0.931 . S
N403 Eu372 2.657 . S
N403 C404 1.334 . S
N403 C408 1.362 . S
C404 H396 0.929 1_545 S
C404 N403 1.334 . S
C404 C407 1.413 . S
C405 H399 0.930 . S
C405 C406 1.392 . S
C405 C407 1.367 . S
C406 C405 1.392 . S
C406 C408 1.420 . S
C406 C438 1.423 . S
C407 H393 0.930 1_545 S
C407 C404 1.413 . S
C407 C405 1.367 . S
C408 N403 1.362 . S
C408 C406 1.420 . S
C408 C412 1.429 . S
H409 C414 0.930 . S
N410 Eu372 2.609 . S
N410 C412 1.377 . S
N410 C413 1.321 . S
C411 H397 0.930 . S
C411 C413 1.400 . S
C411 C414 1.386 . S
C412 C408 1.429 . S
C412 N410 1.377 . S
C412 C415 1.411 . S
C413 H395 0.930 . S
C413 N410 1.321 . S
C413 C411 1.400 . S
C414 H409 0.930 . S
C414 C411 1.386 . S
C414 C415 1.395 . S
C415 C412 1.411 . S
C415 C414 1.395 . S
C415 C437 1.420 . S
O416 Eu372 2.558 . S
O416 C436 1.257 . S
O417 Eu372 2.612 1_565 S
O417 Eu383 2.380 . S
O417 C428 1.276 . S
O418 Eu383 2.432 . S
O418 C435 1.264 . S
O419 Eu372 2.339 1_565 S
O419 C435 1.254 . S
O420 Eu372 2.563 . S
O420 C428 1.235 1_545 S
O421 Eu372 2.419 . S
O421 C436 1.249 . S
O422 Eu383 2.558 . S
O422 C447 1.257 . S
O423 Eu372 2.380 . S
O423 Eu383 2.612 1_545 S
O423 C439 1.276 . S
O424 Eu372 2.432 . S
O424 C446 1.264 . S
O425 Eu383 2.339 1_545 S
O425 C446 1.254 . S
O426 Eu383 2.563 1_545 S
O426 C439 1.235 . S
O427 Eu383 2.419 . S
O427 C447 1.249 . S
C428 O417 1.276 . S
C428 O420 1.235 1_565 S
C429 C431 1.393 . S
C429 C433 1.395 . S
C429 C436 1.492 . S
C430 C431 1.392 . S
C430 C432 1.386 . S
C431 C429 1.393 . S
C431 C430 1.392 . S
C431 H448 0.942 . S
C432 C430 1.386 . S
C432 C434 1.395 . S
C432 H449 0.930 . S
C433 C429 1.395 . S
C433 C434 1.379 . S
C433 H450 0.930 . S
C434 C432 1.395 . S
C434 C433 1.379 . S
C434 H451 0.930 . S
C435 O418 1.264 . S
C435 O419 1.254 . S
C436 Eu372 2.848 . S
C436 O416 1.257 . S
C436 O421 1.249 . S
C436 C429 1.492 . S
C437 H402 0.931 . S
C437 C415 1.420 . S
C437 C438 1.351 . S
C438 H400 0.930 . S
C438 C406 1.423 . S
C438 C437 1.351 . S
C439 O423 1.276 . S
C439 O426 1.235 . S
C440 C441 1.393 . S
C440 C444 1.395 . S
C440 C447 1.492 . S
C441 C440 1.393 . S
C441 C442 1.392 . S
C441 H452 0.930 1_565 S
C442 C441 1.392 . S
C442 C443 1.386 . S
C443 C442 1.386 . S
C443 C445 1.395 . S
C443 H453 0.930 . S
C444 C440 1.395 . S
C444 C445 1.379 . S
C444 H454 0.930 . S
C445 C443 1.395 . S
C445 C444 1.379 . S
C445 H455 0.930 . S
C446 O424 1.264 . S
C446 O425 1.254 . S
C447 Eu383 2.848 . S
C447 O422 1.257 . S
C447 O427 1.249 . S
C447 C440 1.492 . S
H448 C431 0.942 . S
H449 C432 0.930 . S
H450 C433 0.930 . S
H451 C434 0.930 . S
H452 C441 0.930 1_545 S
H453 C443 0.930 . S
H454 C444 0.930 . S
H455 C445 0.930 . S
Eu456 N487 2.657 . S
Eu456 N494 2.609 . S
Eu456 O500 2.558 . S
Eu456 O501 2.612 . S
Eu456 O503 2.339 . S
Eu456 O504 2.563 . S
Eu456 O505 2.419 . S
Eu456 O507 2.380 . S
Eu456 O508 2.432 . S
Eu456 C520 2.848 . S
C457 C460 1.429 . S
C457 C461 1.411 . S
C457 N464 1.377 . S
C458 C460 1.420 . S
C458 C462 1.423 . S
C458 C470 1.392 . S
C459 C461 1.420 . S
C459 C462 1.351 . S
C459 H482 0.931 . S
C460 C457 1.429 . S
C460 C458 1.420 . S
C460 N468 1.362 . S
C461 C457 1.411 . S
C461 C459 1.420 . S
C461 C466 1.395 . S
C462 C458 1.423 . S
C462 C459 1.351 . S
C462 H474 0.930 . S
C463 C465 1.400 . S
C463 C466 1.386 . S
C463 H475 0.930 . S
N464 C457 1.377 . S
N464 C465 1.321 . S
N464 Eu467 2.609 . S
C465 C463 1.400 . S
C465 N464 1.321 . S
C465 H472 0.930 . S
C466 C461 1.395 . S
C466 C463 1.386 . S
C466 H485 0.930 . S
Eu467 N464 2.609 . S
Eu467 N468 2.657 . S
Eu467 O501 2.380 . S
Eu467 O502 2.432 . S
Eu467 O506 2.558 . S
Eu467 O507 2.612 . S
Eu467 O509 2.339 . S
Eu467 O510 2.563 . S
Eu467 O511 2.419 . S
Eu467 C531 2.848 . S
N468 C460 1.362 . S
N468 Eu467 2.657 . S
N468 C469 1.334 . S
C469 N468 1.334 . S
C469 C471 1.413 . S
C469 H476 0.929 . S
C470 C458 1.392 . S
C470 C471 1.367 . S
C470 H478 0.930 . S
C471 C469 1.413 . S
C471 C470 1.367 . S
C471 H473 0.930 . S
H472 C465 0.930 . S
H473 C471 0.930 . S
H474 C462 0.930 . S
H475 C463 0.930 . S
H476 C469 0.929 . S
H477 C491 0.930 . S
H478 C470 0.930 . S
H479 C497 0.930 . S
H480 C488 0.929 . S
H481 C495 0.930 . S
H482 C459 0.931 . S
H483 C489 0.930 . S
H484 C522 0.930 . S
H485 C466 0.930 . S
H486 C521 0.931 . S
N487 Eu456 2.657 . S
N487 C488 1.334 . S
N487 C492 1.362 . S
C488 H480 0.929 . S
C488 N487 1.334 . S
C488 C491 1.413 . S
C489 H483 0.930 . S
C489 C490 1.392 . S
C489 C491 1.367 . S
C490 C489 1.392 . S
C490 C492 1.420 . S
C490 C522 1.423 . S
C491 H477 0.930 . S
C491 C488 1.413 . S
C491 C489 1.367 . S
C492 N487 1.362 . S
C492 C490 1.420 . S
C492 C496 1.429 . S
H493 C498 0.930 . S
N494 Eu456 2.609 . S
N494 C496 1.377 . S
N494 C497 1.321 . S
C495 H481 0.930 . S
C495 C497 1.400 . S
C495 C498 1.386 . S
C496 C492 1.429 . S
C496 N494 1.377 . S
C496 C499 1.411 . S
C497 H479 0.930 . S
C497 N494 1.321 . S
C497 C495 1.400 . S
C498 H493 0.930 . S
C498 C495 1.386 . S
C498 C499 1.395 . S
C499 C496 1.411 . S
C499 C498 1.395 . S
C499 C521 1.420 . S
O500 Eu456 2.558 . S
O500 C520 1.257 . S
O501 Eu456 2.612 . S
O501 Eu467 2.380 . S
O501 C512 1.276 . S
O502 Eu467 2.432 . S
O502 C519 1.264 . S
O503 Eu456 2.339 . S
O503 C519 1.254 . S
O504 Eu456 2.563 . S
O504 C512 1.235 . S
O505 Eu456 2.419 . S
O505 C520 1.249 . S
O506 Eu467 2.558 . S
O506 C531 1.257 . S
O507 Eu456 2.380 . S
O507 Eu467 2.612 . S
O507 C523 1.276 . S
O508 Eu456 2.432 . S
O508 C530 1.264 . S
O509 Eu467 2.339 . S
O509 C530 1.254 . S
O510 Eu467 2.563 . S
O510 C523 1.235 . S
O511 Eu467 2.419 . S
O511 C531 1.249 . S
C512 O501 1.276 . S
C512 O504 1.235 . S
C513 C515 1.393 . S
C513 C517 1.395 . S
C513 C520 1.492 . S
C514 C515 1.392 . S
C514 C516 1.386 . S
C515 C513 1.393 . S
C515 C514 1.392 . S
C515 H532 0.930 . S
C516 C514 1.386 . S
C516 C518 1.395 . S
C516 H533 0.930 . S
C517 C513 1.395 . S
C517 C518 1.379 . S
C517 H534 0.930 . S
C518 C516 1.395 . S
C518 C517 1.379 . S
C518 H535 0.930 . S
C519 O502 1.264 . S
C519 O503 1.254 . S
C520 Eu456 2.848 . S
C520 O500 1.257 . S
C520 O505 1.249 . S
C520 C513 1.492 . S
C521 H486 0.931 . S
C521 C499 1.420 . S
C521 C522 1.351 . S
C522 H484 0.930 . S
C522 C490 1.423 . S
C522 C521 1.351 . S
C523 O507 1.276 . S
C523 O510 1.235 . S
C524 C525 1.393 . S
C524 C528 1.395 . S
C524 C531 1.492 . S
C525 C524 1.393 . S
C525 C526 1.392 . S
C525 H536 0.930 . S
C526 C525 1.392 . S
C526 C527 1.386 . S
C527 C526 1.386 . S
C527 C529 1.395 . S
C527 H537 0.930 . S
C528 C524 1.395 . S
C528 C529 1.379 . S
C528 H538 0.930 . S
C529 C527 1.395 . S
C529 C528 1.379 . S
C529 H539 0.930 . S
C530 O508 1.264 . S
C530 O509 1.254 . S
C531 Eu467 2.848 . S
C531 O506 1.257 . S
C531 O511 1.249 . S
C531 C524 1.492 . S
H532 C515 0.930 . S
H533 C516 0.930 . S
H534 C517 0.930 . S
H535 C518 0.930 . S
H536 C525 0.930 . S
H537 C527 0.930 . S
H538 C528 0.930 . S
H539 C529 0.930 . S
Eu540 N571 2.657 . S
Eu540 N578 2.609 . S
Eu540 O584 2.558 . S
Eu540 O585 2.612 . S
Eu540 O587 2.339 . S
Eu540 O588 2.563 . S
Eu540 O589 2.419 . S
Eu540 O591 2.402 . S
Eu540 O592 2.432 1_455 S
Eu540 C604 2.848 . S
C541 C544 1.429 . S
C541 C545 1.411 . S
C541 N548 1.377 . S
C542 C544 1.420 . S
C542 C546 1.423 . S
C542 C554 1.392 . S
C543 C545 1.420 . S
C543 C546 1.351 . S
C543 H566 0.931 . S
C544 C541 1.429 . S
C544 C542 1.420 . S
C544 N552 1.362 . S
C545 C541 1.411 . S
C545 C543 1.420 . S
C545 C550 1.395 . S
C546 C542 1.423 . S
C546 C543 1.351 . S
C546 H558 0.930 . S
C547 C549 1.400 . S
C547 C550 1.386 1_455 S
C547 H559 0.930 . S
N548 C541 1.377 . S
N548 C549 1.321 1_655 S
N548 Eu551 2.609 . S
C549 C547 1.400 . S
C549 N548 1.321 1_455 S
C549 H556 0.930 . S
C550 C545 1.395 . S
C550 C547 1.386 1_655 S
C550 H569 0.930 . S
Eu551 N548 2.609 . S
Eu551 N552 2.657 . S
Eu551 O585 2.380 1_655 S
Eu551 O586 2.432 1_655 S
Eu551 O590 2.558 . S
Eu551 O591 2.599 1_655 S
Eu551 O593 2.339 . S
Eu551 O594 2.563 . S
Eu551 O595 2.419 . S
Eu551 C615 2.848 . S
N552 C544 1.362 . S
N552 Eu551 2.657 . S
N552 C553 1.334 . S
C553 N552 1.334 . S
C553 C555 1.413 . S
C553 H560 0.929 . S
C554 C542 1.392 . S
C554 C555 1.367 . S
C554 H562 0.930 . S
C555 C553 1.413 . S
C555 C554 1.367 . S
C555 H557 0.930 . S
H556 C549 0.930 . S
H557 C555 0.930 . S
H558 C546 0.930 . S
H559 C547 0.930 . S
H560 C553 0.929 . S
H561 C575 0.930 . S
H562 C554 0.930 . S
H563 C581 0.930 1_655 S
H564 C572 0.929 . S
H565 C579 0.930 1_655 S
H566 C543 0.931 . S
H567 C573 0.930 . S
H568 C606 0.930 . S
H569 C550 0.930 . S
H570 C605 0.931 . S
N571 Eu540 2.657 . S
N571 C572 1.334 . S
N571 C576 1.362 . S
C572 H564 0.929 . S
C572 N571 1.334 . S
C572 C575 1.413 . S
C573 H567 0.930 . S
C573 C574 1.392 . S
C573 C575 1.367 . S
C574 C573 1.392 . S
C574 C576 1.420 . S
C574 C606 1.423 . S
C575 H561 0.930 . S
C575 C572 1.413 . S
C575 C573 1.367 . S
C576 N571 1.362 . S
C576 C574 1.420 . S
C576 C580 1.429 . S
H577 C582 0.930 . S
N578 Eu540 2.609 . S
N578 C580 1.377 . S
N578 C581 1.321 . S
C579 H565 0.930 1_455 S
C579 C581 1.400 . S
C579 C582 1.386 . S
C580 C576 1.429 . S
C580 N578 1.377 . S
C580 C583 1.411 . S
C581 H563 0.930 1_455 S
C581 N578 1.321 . S
C581 C579 1.400 . S
C582 H577 0.930 . S
C582 C579 1.386 . S
C582 C583 1.395 . S
C583 C580 1.411 . S
C583 C582 1.395 . S
C583 C605 1.420 . S
O584 Eu540 2.558 . S
O584 C604 1.257 . S
O585 Eu540 2.612 . S
O585 Eu551 2.380 1_455 S
O585 C596 1.276 . S
O586 Eu551 2.432 1_455 S
O586 C603 1.264 . S
O587 Eu540 2.339 . S
O587 C603 1.254 . S
O588 Eu540 2.563 . S
O588 C596 1.235 . S
O589 Eu540 2.419 . S
O589 C604 1.249 . S
O590 Eu551 2.558 . S
O590 C615 1.257 . S
O591 Eu540 2.402 . S
O591 Eu551 2.599 1_455 S
O591 C607 1.261 1_455 S
O592 Eu540 2.432 1_655 S
O592 C614 1.264 . S
O593 Eu551 2.339 . S
O593 C614 1.254 . S
O594 Eu551 2.563 . S
O594 C607 1.235 . S
O595 Eu551 2.419 . S
O595 C615 1.249 . S
C596 O585 1.276 . S
C596 O588 1.235 . S
C597 C599 1.393 . S
C597 C601 1.395 . S
C597 C604 1.492 . S
C598 C599 1.392 . S
C598 C600 1.386 . S
C599 C597 1.393 . S
C599 C598 1.392 . S
C599 H616 0.930 . S
C600 C598 1.386 . S
C600 C602 1.395 . S
C600 H617 0.930 . S
C601 C597 1.395 . S
C601 C602 1.379 . S
C601 H618 0.930 . S
C602 C600 1.395 . S
C602 C601 1.379 . S
C602 H619 0.930 . S
C603 O586 1.264 . S
C603 O587 1.254 . S
C604 Eu540 2.848 . S
C604 O584 1.257 . S
C604 O589 1.249 . S
C604 C597 1.492 . S
C605 H570 0.931 . S
C605 C583 1.420 . S
C605 C606 1.351 . S
C606 H568 0.930 . S
C606 C574 1.423 . S
C606 C605 1.351 . S
C607 O591 1.261 1_655 S
C607 O594 1.235 . S
C608 C609 1.393 . S
C608 C612 1.395 . S
C608 C615 1.492 . S
C609 C608 1.393 . S
C609 C610 1.392 . S
C609 H620 0.930 . S
C610 C609 1.392 . S
C610 C611 1.386 . S
C611 C610 1.386 . S
C611 C613 1.395 . S
C611 H621 0.930 . S
C612 C608 1.395 . S
C612 C613 1.379 . S
C612 H622 0.930 . S
C613 C611 1.395 . S
C613 C612 1.379 . S
C613 H623 0.930 . S
C614 O592 1.264 . S
C614 O593 1.254 . S
C615 Eu551 2.848 . S
C615 O590 1.257 . S
C615 O595 1.249 . S
C615 C608 1.492 . S
H616 C599 0.930 . S
H617 C600 0.930 . S
H618 C601 0.930 . S
H619 C602 0.930 . S
H620 C609 0.930 . S
H621 C611 0.930 . S
H622 C612 0.930 . S
H623 C613 0.930 . S
C624 C625 1.349 . S
C624 C626 1.327 . S
C624 H649 0.950 . S
C625 C624 1.349 . S
C625 C641 1.349 . S
C626 C624 1.327 . S
C626 C645 1.429 . S
C626 H650 0.950 . S
C627 C644 1.574 . S
C627 C646 1.368 . S
C627 H651 0.949 . S
H628 C632 0.949 . S
C629 C630 1.349 . S
C629 C631 1.327 . S
C629 H652 0.950 . S
C630 C629 1.349 . S
C630 C642 1.349 . S
C631 C629 1.327 . S
C631 C647 1.429 . S
C631 H653 0.950 . S
C632 H628 0.949 . S
C632 C640 1.574 . S
C632 C648 1.368 . S
H633 C641 0.950 . S
H634 C639 0.950 . S
H635 C640 0.949 . S
H636 C642 0.950 . S
H637 C643 0.950 . S
H638 C644 0.949 . S
C639 H634 0.950 . S
C639 C641 1.327 . S
C639 C645 1.429 . S
C640 C632 1.574 . S
C640 H635 0.949 . S
C640 C646 1.368 . S
C641 C625 1.349 . S
C641 H633 0.950 . S
C641 C639 1.327 . S
C642 C630 1.349 . S
C642 H636 0.950 . S
C642 C643 1.327 . S
C643 H637 0.950 . S
C643 C642 1.327 . S
C643 C647 1.429 . S
C644 C627 1.574 . S
C644 H638 0.949 . S
C644 C648 1.368 . S
C645 C626 1.429 . S
C645 C639 1.429 . S
C645 C646 1.523 . S
C646 C627 1.368 . S
C646 C640 1.368 . S
C646 C645 1.523 . S
C647 C631 1.429 . S
C647 C643 1.429 . S
C647 C648 1.523 . S
C648 C632 1.368 . S
C648 C644 1.368 . S
C648 C647 1.523 . S
H649 C624 0.950 . S
H650 C626 0.950 . S
H651 C627 0.949 . S
H652 C629 0.950 . S
H653 C631 0.950 . S
C654 C655 1.349 . S
C654 C656 1.327 . S
C654 H679 0.950 . S
C655 C654 1.349 . S
C655 C671 1.349 . S
C656 C654 1.327 . S
C656 C675 1.429 . S
C656 H680 0.950 . S
C657 C674 1.574 . S
C657 C676 1.368 . S
C657 H681 0.949 . S
H658 C662 0.949 . S
C659 C660 1.349 . S
C659 C661 1.327 . S
C659 H682 0.950 . S
C660 C659 1.349 . S
C660 C672 1.349 . S
C661 C659 1.327 . S
C661 C677 1.429 . S
C661 H683 0.950 . S
C662 H658 0.949 . S
C662 C670 1.574 . S
C662 C678 1.368 . S
H663 C671 0.950 . S
H664 C669 0.950 . S
H665 C670 0.949 . S
H666 C672 0.950 . S
H667 C673 0.950 . S
H668 C674 0.949 . S
C669 H664 0.950 . S
C669 C671 1.327 . S
C669 C675 1.429 . S
C670 C662 1.574 . S
C670 H665 0.949 . S
C670 C676 1.368 . S
C671 C655 1.349 . S
C671 H663 0.950 . S
C671 C669 1.327 . S
C672 C660 1.349 . S
C672 H666 0.950 . S
C672 C673 1.327 . S
C673 H667 0.950 . S
C673 C672 1.327 . S
C673 C677 1.429 . S
C674 C657 1.574 . S
C674 H668 0.949 . S
C674 C678 1.368 . S
C675 C656 1.429 . S
C675 C669 1.429 . S
C675 C676 1.523 . S
C676 C657 1.368 . S
C676 C670 1.368 . S
C676 C675 1.523 . S
C677 C661 1.429 . S
C677 C673 1.429 . S
C677 C678 1.523 . S
C678 C662 1.368 . S
C678 C674 1.368 . S
C678 C677 1.523 . S
H679 C654 0.950 . S
H680 C656 0.950 . S
H681 C657 0.949 . S
H682 C659 0.950 . S
H683 C661 0.950 . S
C684 C685 1.349 . S
C684 C686 1.327 . S
C684 H709 0.950 . S
C685 C684 1.349 . S
C685 C701 1.349 . S
C686 C684 1.327 . S
C686 C705 1.429 . S
C686 H710 0.950 . S
C687 C704 1.574 . S
C687 C706 1.368 . S
C687 H711 0.949 . S
H688 C692 0.949 . S
C689 C690 1.349 . S
C689 C691 1.327 . S
C689 H712 0.950 . S
C690 C689 1.349 . S
C690 C702 1.349 . S
C691 C689 1.327 . S
C691 C707 1.429 . S
C691 H713 0.950 . S
C692 H688 0.949 . S
C692 C700 1.574 . S
C692 C708 1.368 . S
H693 C701 0.950 . S
H694 C699 0.950 . S
H695 C700 0.949 . S
H696 C702 0.950 . S
H697 C703 0.950 . S
H698 C704 0.949 . S
C699 H694 0.950 . S
C699 C701 1.327 . S
C699 C705 1.429 . S
C700 C692 1.574 . S
C700 H695 0.949 . S
C700 C706 1.368 . S
C701 C685 1.349 . S
C701 H693 0.950 . S
C701 C699 1.327 . S
C702 C690 1.349 . S
C702 H696 0.950 . S
C702 C703 1.327 . S
C703 H697 0.950 . S
C703 C702 1.327 . S
C703 C707 1.429 . S
C704 C687 1.574 . S
C704 H698 0.949 . S
C704 C708 1.368 . S
C705 C686 1.429 . S
C705 C699 1.429 . S
C705 C706 1.523 . S
C706 C687 1.368 . S
C706 C700 1.368 . S
C706 C705 1.523 . S
C707 C691 1.429 . S
C707 C703 1.429 . S
C707 C708 1.523 . S
C708 C692 1.368 . S
C708 C704 1.368 . S
C708 C707 1.523 . S
H709 C684 0.950 . S
H710 C686 0.950 . S
H711 C687 0.949 . S
H712 C689 0.950 . S
H713 C691 0.950 . S
C714 C715 1.349 . S
C714 C716 1.327 . S
C714 H739 0.950 . S
C715 C714 1.349 . S
C715 C731 1.349 . S
C716 C714 1.327 . S
C716 C735 1.429 . S
C716 H740 0.950 . S
C717 C734 1.574 . S
C717 C736 1.368 . S
C717 H741 0.949 . S
H718 C722 0.949 . S
C719 C720 1.349 . S
C719 C721 1.327 . S
C719 H742 0.950 . S
C720 C719 1.349 . S
C720 C732 1.349 . S
C721 C719 1.327 . S
C721 C737 1.429 . S
C721 H743 0.950 . S
C722 H718 0.949 . S
C722 C730 1.574 . S
C722 C738 1.368 . S
H723 C731 0.950 . S
H724 C729 0.950 . S
H725 C730 0.949 . S
H726 C732 0.950 . S
H727 C733 0.950 . S
H728 C734 0.949 . S
C729 H724 0.950 . S
C729 C731 1.327 . S
C729 C735 1.429 . S
C730 C722 1.574 . S
C730 H725 0.949 . S
C730 C736 1.368 . S
C731 C715 1.349 . S
C731 H723 0.950 . S
C731 C729 1.327 . S
C732 C720 1.349 . S
C732 H726 0.950 . S
C732 C733 1.327 . S
C733 H727 0.950 . S
C733 C732 1.327 . S
C733 C737 1.429 . S
C734 C717 1.574 . S
C734 H728 0.949 . S
C734 C738 1.368 . S
C735 C716 1.429 . S
C735 C729 1.429 . S
C735 C736 1.523 . S
C736 C717 1.368 . S
C736 C730 1.368 . S
C736 C735 1.523 . S
C737 C721 1.429 . S
C737 C733 1.429 . S
C737 C738 1.523 . S
C738 C722 1.368 . S
C738 C734 1.368 . S
C738 C737 1.523 . S
H739 C714 0.950 . S
H740 C716 0.950 . S
H741 C717 0.949 . S
H742 C719 0.950 . S
H743 C721 0.950 . S
C744 C745 1.349 . S
C744 C746 1.327 1_554 S
C744 H769 0.950 . S
C745 C744 1.349 . S
C745 C761 1.349 . S
C746 C744 1.327 1_556 S
C746 C765 1.429 . S
C746 H770 0.950 . S
C747 C764 1.574 . S
C747 C766 1.368 . S
C747 H771 0.949 . S
H748 C752 0.949 . S
C749 C750 1.349 . S
C749 C751 1.327 . S
C749 H772 0.950 1_565 S
C750 C749 1.349 . S
C750 C762 1.349 . S
C751 C749 1.327 . S
C751 C767 1.429 . S
C751 H773 0.950 . S
C752 H748 0.949 . S
C752 C760 1.574 . S
C752 C768 1.368 . S
H753 C761 0.950 . S
H754 C759 0.950 . S
H755 C760 0.949 . S
H756 C762 0.950 . S
H757 C763 0.950 . S
H758 C764 0.949 . S
C759 H754 0.950 . S
C759 C761 1.327 1_556 S
C759 C765 1.429 . S
C760 C752 1.574 . S
C760 H755 0.949 . S
C760 C766 1.368 . S
C761 C745 1.349 . S
C761 H753 0.950 . S
C761 C759 1.327 1_554 S
C762 C750 1.349 . S
C762 H756 0.950 . S
C762 C763 1.327 . S
C763 H757 0.950 . S
C763 C762 1.327 . S
C763 C767 1.429 . S
C764 C747 1.574 . S
C764 H758 0.949 . S
C764 C768 1.368 . S
C765 C746 1.429 . S
C765 C759 1.429 . S
C765 C766 1.523 . S
C766 C747 1.368 . S
C766 C760 1.368 . S
C766 C765 1.523 . S
C767 C751 1.429 . S
C767 C763 1.429 . S
C767 C768 1.523 . S
C768 C752 1.368 . S
C768 C764 1.368 . S
C768 C767 1.523 . S
H769 C744 0.950 . S
H770 C746 0.950 . S
H771 C747 0.949 . S
H772 C749 0.950 1_545 S
H773 C751 0.950 . S
C774 C775 1.349 . S
C774 C776 1.327 1_554 S
C774 H799 0.950 . S
C775 C774 1.349 . S
C775 C791 1.349 1_554 S
C776 C774 1.327 1_556 S
C776 C795 1.429 . S
C776 H800 0.950 . S
C777 C794 1.574 . S
C777 C796 1.368 . S
C777 H801 0.949 . S
H778 C782 0.949 . S
C779 C780 1.349 . S
C779 C781 1.327 . S
C779 H802 0.950 . S
C780 C779 1.349 . S
C780 C792 1.349 . S
C781 C779 1.327 . S
C781 C797 1.429 . S
C781 H803 0.950 . S
C782 H778 0.949 . S
C782 C790 1.574 . S
C782 C798 1.368 . S
H783 C791 0.950 1_554 S
H784 C789 0.950 . S
H785 C790 0.949 . S
H786 C792 0.950 . S
H787 C793 0.950 . S
H788 C794 0.949 . S
C789 H784 0.950 . S
C789 C791 1.327 . S
C789 C795 1.429 . S
C790 C782 1.574 . S
C790 H785 0.949 . S
C790 C796 1.368 . S
C791 C775 1.349 1_556 S
C791 H783 0.950 1_556 S
C791 C789 1.327 . S
C792 C780 1.349 . S
C792 H786 0.950 . S
C792 C793 1.327 . S
C793 H787 0.950 . S
C793 C792 1.327 . S
C793 C797 1.429 . S
C794 C777 1.574 . S
C794 H788 0.949 . S
C794 C798 1.368 . S
C795 C776 1.429 . S
C795 C789 1.429 . S
C795 C796 1.523 . S
C796 C777 1.368 . S
C796 C790 1.368 . S
C796 C795 1.523 . S
C797 C781 1.429 . S
C797 C793 1.429 . S
C797 C798 1.523 . S
C798 C782 1.368 . S
C798 C794 1.368 . S
C798 C797 1.523 . S
H799 C774 0.950 . S
H800 C776 0.950 . S
H801 C777 0.949 . S
H802 C779 0.950 . S
H803 C781 0.950 . S
C804 C805 1.349 . S
C804 C806 1.327 . S
C804 H829 0.950 . S
C805 C804 1.349 . S
C805 C821 1.349 1_554 S
C806 C804 1.327 . S
C806 C825 1.429 1_554 S
C806 H830 0.950 . S
C807 C824 1.574 . S
C807 C826 1.368 . S
C807 H831 0.949 . S
H808 C812 0.949 . S
C809 C810 1.349 . S
C809 C811 1.327 . S
C809 H832 0.950 . S
C810 C809 1.349 . S
C810 C822 1.349 . S
C811 C809 1.327 . S
C811 C827 1.429 . S
C811 H833 0.950 . S
C812 H808 0.949 . S
C812 C820 1.574 . S
C812 C828 1.368 . S
H813 C821 0.950 . S
H814 C819 0.950 . S
H815 C820 0.949 . S
H816 C822 0.950 . S
H817 C823 0.950 . S
H818 C824 0.949 . S
C819 H814 0.950 . S
C819 C821 1.327 . S
C819 C825 1.429 . S
C820 C812 1.574 . S
C820 H815 0.949 . S
C820 C826 1.368 . S
C821 C805 1.349 1_556 S
C821 H813 0.950 . S
C821 C819 1.327 . S
C822 C810 1.349 . S
C822 H816 0.950 . S
C822 C823 1.327 . S
C823 H817 0.950 . S
C823 C822 1.327 . S
C823 C827 1.429 . S
C824 C807 1.574 . S
C824 H818 0.949 . S
C824 C828 1.368 . S
C825 C806 1.429 1_556 S
C825 C819 1.429 . S
C825 C826 1.523 . S
C826 C807 1.368 . S
C826 C820 1.368 . S
C826 C825 1.523 . S
C827 C811 1.429 . S
C827 C823 1.429 . S
C827 C828 1.523 . S
C828 C812 1.368 . S
C828 C824 1.368 . S
C828 C827 1.523 . S
H829 C804 0.950 . S
H830 C806 0.950 . S
H831 C807 0.949 . S
H832 C809 0.950 . S
H833 C811 0.950 . S
C834 C835 1.349 . S
C834 C836 1.327 1_554 S
C834 H859 0.950 . S
C835 C834 1.349 . S
C835 C851 1.349 . S
C836 C834 1.327 1_556 S
C836 C855 1.429 . S
C836 H860 0.950 . S
C837 C854 1.574 . S
C837 C856 1.368 . S
C837 H861 0.949 . S
H838 C842 0.949 . S
C839 C840 1.349 . S
C839 C841 1.327 . S
C839 H862 0.950 1_655 S
C840 C839 1.349 . S
C840 C852 1.349 . S
C841 C839 1.327 . S
C841 C857 1.429 . S
C841 H863 0.950 . S
C842 H838 0.949 . S
C842 C850 1.574 . S
C842 C858 1.368 . S
H843 C851 0.950 . S
H844 C849 0.950 . S
H845 C850 0.949 . S
H846 C852 0.950 . S
H847 C853 0.950 . S
H848 C854 0.949 . S
C849 H844 0.950 . S
C849 C851 1.327 1_556 S
C849 C855 1.429 . S
C850 C842 1.574 . S
C850 H845 0.949 . S
C850 C856 1.368 . S
C851 C835 1.349 . S
C851 H843 0.950 . S
C851 C849 1.327 1_554 S
C852 C840 1.349 . S
C852 H846 0.950 . S
C852 C853 1.327 . S
C853 H847 0.950 . S
C853 C852 1.327 . S
C853 C857 1.429 . S
C854 C837 1.574 . S
C854 H848 0.949 . S
C854 C858 1.368 . S
C855 C836 1.429 . S
C855 C849 1.429 . S
C855 C856 1.523 . S
C856 C837 1.368 . S
C856 C850 1.368 . S
C856 C855 1.523 . S
C857 C841 1.429 . S
C857 C853 1.429 . S
C857 C858 1.523 . S
C858 C842 1.368 . S
C858 C854 1.368 . S
C858 C857 1.523 . S
H859 C834 0.950 . S
H860 C836 0.950 . S
H861 C837 0.949 . S
H862 C839 0.950 1_455 S
H863 C841 0.950 . S
C864 C865 1.349 . S
C864 C866 1.327 . S
C864 H889 0.950 . S
C865 C864 1.349 . S
C865 C881 1.349 . S
C866 C864 1.327 . S
C866 C885 1.429 . S
C866 H890 0.950 . S
C867 C884 1.574 . S
C867 C886 1.368 . S
C867 H891 0.949 . S
H868 C872 0.949 . S
C869 C870 1.349 . S
C869 C871 1.327 . S
C869 H892 0.950 . S
C870 C869 1.349 . S
C870 C882 1.349 . S
C871 C869 1.327 . S
C871 C887 1.429 . S
C871 H893 0.950 . S
C872 H868 0.949 . S
C872 C880 1.574 . S
C872 C888 1.368 . S
H873 C881 0.950 . S
H874 C879 0.950 . S
H875 C880 0.949 . S
H876 C882 0.950 . S
H877 C883 0.950 . S
H878 C884 0.949 . S
C879 H874 0.950 . S
C879 C881 1.327 . S
C879 C885 1.429 . S
C880 C872 1.574 . S
C880 H875 0.949 . S
C880 C886 1.368 . S
C881 C865 1.349 . S
C881 H873 0.950 . S
C881 C879 1.327 . S
C882 C870 1.349 . S
C882 H876 0.950 . S
C882 C883 1.327 . S
C883 H877 0.950 . S
C883 C882 1.327 . S
C883 C887 1.429 . S
C884 C867 1.574 . S
C884 H878 0.949 . S
C884 C888 1.368 . S
C885 C866 1.429 . S
C885 C879 1.429 . S
C885 C886 1.523 . S
C886 C867 1.368 . S
C886 C880 1.368 . S
C886 C885 1.523 . S
C887 C871 1.429 . S
C887 C883 1.429 . S
C887 C888 1.523 . S
C888 C872 1.368 . S
C888 C884 1.368 . S
C888 C887 1.523 . S
H889 C864 0.950 . S
H890 C866 0.950 . S
H891 C867 0.949 . S
H892 C869 0.950 . S
H893 C871 0.950 . S
C894 C895 1.349 . S
C894 C896 1.327 . S
C894 H919 0.950 . S
C895 C894 1.349 . S
C895 C911 1.349 . S
C896 C894 1.327 . S
C896 C915 1.429 . S
C896 H920 0.950 . S
C897 C914 1.574 . S
C897 C916 1.368 . S
C897 H921 0.949 . S
H898 C902 0.949 . S
C899 C900 1.349 . S
C899 C901 1.327 . S
C899 H922 0.950 . S
C900 C899 1.349 . S
C900 C912 1.349 1_545 S
C901 C899 1.327 . S
C901 C917 1.429 . S
C901 H923 0.950 . S
C902 H898 0.949 . S
C902 C910 1.574 . S
C902 C918 1.368 . S
H903 C911 0.950 . S
H904 C909 0.950 . S
H905 C910 0.949 . S
H906 C912 0.950 . S
H907 C913 0.950 1_565 S
H908 C914 0.949 . S
C909 H904 0.950 . S
C909 C911 1.327 . S
C909 C915 1.429 . S
C910 C902 1.574 . S
C910 H905 0.949 . S
C910 C916 1.368 . S
C911 C895 1.349 . S
C911 H903 0.950 . S
C911 C909 1.327 . S
C912 C900 1.349 1_565 S
C912 H906 0.950 . S
C912 C913 1.327 1_565 S
C913 H907 0.950 1_545 S
C913 C912 1.327 1_545 S
C913 C917 1.429 . S
C914 C897 1.574 . S
C914 H908 0.949 . S
C914 C918 1.368 . S
C915 C896 1.429 . S
C915 C909 1.429 . S
C915 C916 1.523 . S
C916 C897 1.368 . S
C916 C910 1.368 . S
C916 C915 1.523 . S
C917 C901 1.429 . S
C917 C913 1.429 . S
C917 C918 1.523 . S
C918 C902 1.368 . S
C918 C914 1.368 . S
C918 C917 1.523 . S
H919 C894 0.950 . S
H920 C896 0.950 . S
H921 C897 0.949 . S
H922 C899 0.950 . S
H923 C901 0.950 . S
C924 C925 1.349 . S
C924 C926 1.327 . S
C924 H949 0.950 . S
C925 C924 1.349 . S
C925 C941 1.349 . S
C926 C924 1.327 . S
C926 C945 1.429 . S
C926 H950 0.950 . S
C927 C944 1.574 . S
C927 C946 1.368 . S
C927 H951 0.949 . S
H928 C932 0.949 . S
C929 C930 1.349 . S
C929 C931 1.327 . S
C929 H952 0.950 . S
C930 C929 1.349 . S
C930 C942 1.349 . S
C931 C929 1.327 . S
C931 C947 1.429 . S
C931 H953 0.950 . S
C932 H928 0.949 . S
C932 C940 1.574 . S
C932 C948 1.368 . S
H933 C941 0.950 . S
H934 C939 0.950 . S
H935 C940 0.949 . S
H936 C942 0.950 . S
H937 C943 0.950 . S
H938 C944 0.949 . S
C939 H934 0.950 . S
C939 C941 1.327 . S
C939 C945 1.429 . S
C940 C932 1.574 . S
C940 H935 0.949 . S
C940 C946 1.368 . S
C941 C925 1.349 . S
C941 H933 0.950 . S
C941 C939 1.327 . S
C942 C930 1.349 . S
C942 H936 0.950 . S
C942 C943 1.327 . S
C943 H937 0.950 . S
C943 C942 1.327 . S
C943 C947 1.429 . S
C944 C927 1.574 . S
C944 H938 0.949 . S
C944 C948 1.368 . S
C945 C926 1.429 . S
C945 C939 1.429 . S
C945 C946 1.523 . S
C946 C927 1.368 . S
C946 C940 1.368 . S
C946 C945 1.523 . S
C947 C931 1.429 . S
C947 C943 1.429 . S
C947 C948 1.523 . S
C948 C932 1.368 . S
C948 C944 1.368 . S
C948 C947 1.523 . S
H949 C924 0.950 . S
H950 C926 0.950 . S
H951 C927 0.949 . S
H952 C929 0.950 . S
H953 C931 0.950 . S
C954 C955 1.349 . S
C954 C956 1.327 . S
C954 H979 0.950 . S
C955 C954 1.349 . S
C955 C971 1.349 . S
C956 C954 1.327 . S
C956 C975 1.429 . S
C956 H980 0.950 . S
C957 C974 1.574 . S
C957 C976 1.368 . S
C957 H981 0.949 . S
H958 C962 0.949 . S
C959 C960 1.349 . S
C959 C961 1.327 . S
C959 H982 0.950 . S
C960 C959 1.349 . S
C960 C972 1.349 . S
C961 C959 1.327 . S
C961 C977 1.429 . S
C961 H983 0.950 . S
C962 H958 0.949 . S
C962 C970 1.574 . S
C962 C978 1.368 . S
H963 C971 0.950 . S
H964 C969 0.950 . S
H965 C970 0.949 . S
H966 C972 0.950 . S
H967 C973 0.950 . S
H968 C974 0.949 . S
C969 H964 0.950 . S
C969 C971 1.327 . S
C969 C975 1.429 . S
C970 C962 1.574 . S
C970 H965 0.949 . S
C970 C976 1.368 . S
C971 C955 1.349 . S
C971 H963 0.950 . S
C971 C969 1.327 . S
C972 C960 1.349 . S
C972 H966 0.950 . S
C972 C973 1.327 . S
C973 H967 0.950 . S
C973 C972 1.327 . S
C973 C977 1.429 . S
C974 C957 1.574 . S
C974 H968 0.949 . S
C974 C978 1.368 . S
C975 C956 1.429 . S
C975 C969 1.429 . S
C975 C976 1.523 . S
C976 C957 1.368 . S
C976 C970 1.368 . S
C976 C975 1.523 . S
C977 C961 1.429 . S
C977 C973 1.429 . S
C977 C978 1.523 . S
C978 C962 1.368 . S
C978 C974 1.368 . S
C978 C977 1.523 . S
H979 C954 0.950 . S
H980 C956 0.950 . S
H981 C957 0.949 . S
H982 C959 0.950 . S
H983 C961 0.950 . S
C984 C985 1.349 . S
C984 C986 1.327 . S
C984 H1009 0.950 . S
C985 C984 1.349 . S
C985 C1001 1.343 1_556 S
C986 C984 1.327 . S
C986 C1005 1.429 . S
C986 H1010 0.950 . S
C987 C1004 1.574 . S
C987 C1006 1.368 . S
C987 H1011 0.949 . S
H988 C992 0.949 . S
C989 C990 1.349 . S
C989 C991 1.327 1_455 S
C989 H1012 0.950 . S
C990 C989 1.349 . S
C990 C1002 1.349 1_455 S
C991 C989 1.327 1_655 S
C991 C1007 1.429 . S
C991 H1013 0.950 . S
C992 H988 0.949 . S
C992 C1000 1.574 . S
C992 C1008 1.368 . S
H993 C1001 0.961 . S
H994 C999 0.950 . S
H995 C1000 0.949 . S
H996 C1002 0.950 . S
H997 C1003 0.950 . S
H998 C1004 0.949 . S
C999 H994 0.950 . S
C999 C1001 1.322 1_556 S
C999 C1005 1.429 . S
C1000 C992 1.574 . S
C1000 H995 0.949 . S
C1000 C1006 1.368 . S
C1001 C985 1.343 1_554 S
C1001 H993 0.961 . S
C1001 C999 1.322 1_554 S
C1002 C990 1.349 1_655 S
C1002 H996 0.950 . S
C1002 C1003 1.327 . S
C1003 H997 0.950 . S
C1003 C1002 1.327 . S
C1003 C1007 1.429 . S
C1004 C987 1.574 . S
C1004 H998 0.949 . S
C1004 C1008 1.368 . S
C1005 C986 1.429 . S
C1005 C999 1.429 . S
C1005 C1006 1.523 . S
C1006 C987 1.368 . S
C1006 C1000 1.368 . S
C1006 C1005 1.523 . S
C1007 C991 1.429 . S
C1007 C1003 1.429 . S
C1007 C1008 1.523 . S
C1008 C992 1.368 . S
C1008 C1004 1.368 . S
C1008 C1007 1.523 . S
H1009 C984 0.950 . S
H1010 C986 0.950 . S
H1011 C987 0.949 . S
H1012 C989 0.950 . S
H1013 C991 0.950 . S
C1014 C1015 1.349 . S
C1014 C1016 1.327 . S
C1014 H1039 0.950 . S
C1015 C1014 1.349 . S
C1015 C1031 1.349 . S
C1016 C1014 1.327 . S
C1016 C1035 1.429 . S
C1016 H1040 0.950 . S
C1017 C1034 1.574 . S
C1017 C1036 1.368 . S
C1017 H1041 0.949 . S
H1018 C1022 0.949 . S
C1019 C1020 1.349 . S
C1019 C1021 1.327 . S
C1019 H1042 0.950 . S
C1020 C1019 1.349 . S
C1020 C1032 1.349 1_545 S
C1021 C1019 1.327 . S
C1021 C1037 1.429 1_545 S
C1021 H1043 0.950 . S
C1022 H1018 0.949 . S
C1022 C1030 1.574 . S
C1022 C1038 1.368 . S
H1023 C1031 0.950 . S
H1024 C1029 0.950 . S
H1025 C1030 0.949 . S
H1026 C1032 0.950 . S
H1027 C1033 0.950 . S
H1028 C1034 0.949 1_545 S
C1029 H1024 0.950 . S
C1029 C1031 1.327 . S
C1029 C1035 1.429 . S
C1030 C1022 1.574 . S
C1030 H1025 0.949 . S
C1030 C1036 1.368 . S
C1031 C1015 1.349 . S
C1031 H1023 0.950 . S
C1031 C1029 1.327 . S
C1032 C1020 1.349 1_565 S
C1032 H1026 0.950 . S
C1032 C1033 1.327 . S
C1033 H1027 0.950 . S
C1033 C1032 1.327 . S
C1033 C1037 1.429 . S
C1034 C1017 1.574 . S
C1034 H1028 0.949 1_565 S
C1034 C1038 1.368 . S
C1035 C1016 1.429 . S
C1035 C1029 1.429 . S
C1035 C1036 1.523 . S
C1036 C1017 1.368 . S
C1036 C1030 1.368 . S
C1036 C1035 1.523 . S
C1037 C1021 1.429 1_565 S
C1037 C1033 1.429 . S
C1037 C1038 1.523 . S
C1038 C1022 1.368 . S
C1038 C1034 1.368 . S
C1038 C1037 1.523 . S
H1039 C1014 0.950 . S
H1040 C1016 0.950 . S
H1041 C1017 0.949 . S
H1042 C1019 0.950 . S
H1043 C1021 0.950 . S
C1044 C1045 1.349 . S
C1044 C1046 1.327 . S
C1044 H1069 0.950 . S
C1045 C1044 1.349 . S
C1045 C1061 1.349 . S
C1046 C1044 1.327 . S
C1046 C1065 1.429 . S
C1046 H1070 0.950 . S
C1047 C1064 1.574 . S
C1047 C1066 1.368 . S
C1047 H1071 0.949 . S
H1048 C1052 0.949 . S
C1049 C1050 1.349 . S
C1049 C1051 1.327 . S
C1049 H1072 0.950 . S
C1050 C1049 1.349 . S
C1050 C1062 1.349 . S
C1051 C1049 1.327 . S
C1051 C1067 1.429 . S
C1051 H1073 0.950 . S
C1052 H1048 0.949 . S
C1052 C1060 1.574 . S
C1052 C1068 1.368 . S
H1053 C1061 0.950 . S
H1054 C1059 0.950 . S
H1055 C1060 0.949 . S
H1056 C1062 0.950 . S
H1057 C1063 0.950 . S
H1058 C1064 0.949 . S
C1059 H1054 0.950 . S
C1059 C1061 1.327 . S
C1059 C1065 1.429 . S
C1060 C1052 1.574 . S
C1060 H1055 0.949 . S
C1060 C1066 1.368 . S
C1061 C1045 1.349 . S
C1061 H1053 0.950 . S
C1061 C1059 1.327 . S
C1062 C1050 1.349 . S
C1062 H1056 0.950 . S
C1062 C1063 1.327 . S
C1063 H1057 0.950 . S
C1063 C1062 1.327 . S
C1063 C1067 1.429 . S
C1064 C1047 1.574 . S
C1064 H1058 0.949 . S
C1064 C1068 1.368 . S
C1065 C1046 1.429 . S
C1065 C1059 1.429 . S
C1065 C1066 1.523 . S
C1066 C1047 1.368 . S
C1066 C1060 1.368 . S
C1066 C1065 1.523 . S
C1067 C1051 1.429 . S
C1067 C1063 1.429 . S
C1067 C1068 1.523 . S
C1068 C1052 1.368 . S
C1068 C1064 1.368 . S
C1068 C1067 1.523 . S
H1069 C1044 0.950 . S
H1070 C1046 0.950 . S
H1071 C1047 0.949 . S
H1072 C1049 0.950 . S
H1073 C1051 0.950 . S
C1074 C1075 1.349 . S
C1074 C1076 1.327 . S
C1074 H1099 0.950 . S
C1075 C1074 1.349 . S
C1075 C1091 1.349 . S
C1076 C1074 1.327 . S
C1076 C1095 1.429 . S
C1076 H1100 0.950 . S
C1077 C1094 1.574 . S
C1077 C1096 1.368 . S
C1077 H1101 0.949 . S
H1078 C1082 0.949 . S
C1079 C1080 1.349 . S
C1079 C1081 1.327 . S
C1079 H1102 0.950 . S
C1080 C1079 1.349 . S
C1080 C1092 1.349 . S
C1081 C1079 1.327 . S
C1081 C1097 1.429 . S
C1081 H1103 0.950 . S
C1082 H1078 0.949 . S
C1082 C1090 1.574 . S
C1082 C1098 1.368 . S
H1083 C1091 0.950 . S
H1084 C1089 0.950 . S
H1085 C1090 0.949 . S
H1086 C1092 0.950 . S
H1087 C1093 0.950 . S
H1088 C1094 0.949 . S
C1089 H1084 0.950 . S
C1089 C1091 1.327 . S
C1089 C1095 1.429 . S
C1090 C1082 1.574 . S
C1090 H1085 0.949 . S
C1090 C1096 1.368 . S
C1091 C1075 1.349 . S
C1091 H1083 0.950 . S
C1091 C1089 1.327 . S
C1092 C1080 1.349 . S
C1092 H1086 0.950 . S
C1092 C1093 1.327 . S
C1093 H1087 0.950 . S
C1093 C1092 1.327 . S
C1093 C1097 1.429 . S
C1094 C1077 1.574 . S
C1094 H1088 0.949 . S
C1094 C1098 1.368 . S
C1095 C1076 1.429 . S
C1095 C1089 1.429 . S
C1095 C1096 1.523 . S
C1096 C1077 1.368 . S
C1096 C1090 1.368 . S
C1096 C1095 1.523 . S
C1097 C1081 1.429 . S
C1097 C1093 1.429 . S
C1097 C1098 1.523 . S
C1098 C1082 1.368 . S
C1098 C1094 1.368 . S
C1098 C1097 1.523 . S
H1099 C1074 0.950 . S
H1100 C1076 0.950 . S
H1101 C1077 0.949 . S
H1102 C1079 0.950 . S
H1103 C1081 0.950 . S
C1104 C1105 1.349 . S
C1104 C1106 1.327 . S
C1104 H1129 0.950 . S
C1105 C1104 1.349 . S
C1105 C1121 1.349 . S
C1106 C1104 1.327 . S
C1106 C1125 1.429 . S
C1106 H1130 0.950 . S
C1107 C1124 1.574 . S
C1107 C1126 1.368 . S
C1107 H1131 0.949 . S
H1108 C1112 0.949 . S
C1109 C1110 1.349 . S
C1109 C1111 1.327 . S
C1109 H1132 0.950 . S
C1110 C1109 1.349 . S
C1110 C1122 1.349 . S
C1111 C1109 1.327 . S
C1111 C1127 1.429 . S
C1111 H1133 0.950 . S
C1112 H1108 0.949 . S
C1112 C1120 1.574 . S
C1112 C1128 1.368 . S
H1113 C1121 0.950 . S
H1114 C1119 0.950 . S
H1115 C1120 0.949 . S
H1116 C1122 0.950 . S
H1117 C1123 0.950 . S
H1118 C1124 0.949 . S
C1119 H1114 0.950 . S
C1119 C1121 1.327 . S
C1119 C1125 1.429 . S
C1120 C1112 1.574 . S
C1120 H1115 0.949 . S
C1120 C1126 1.368 . S
C1121 C1105 1.349 . S
C1121 H1113 0.950 . S
C1121 C1119 1.327 . S
C1122 C1110 1.349 . S
C1122 H1116 0.950 . S
C1122 C1123 1.327 . S
C1123 H1117 0.950 . S
C1123 C1122 1.327 . S
C1123 C1127 1.429 . S
C1124 C1107 1.574 . S
C1124 H1118 0.949 . S
C1124 C1128 1.368 . S
C1125 C1106 1.429 . S
C1125 C1119 1.429 . S
C1125 C1126 1.523 . S
C1126 C1107 1.368 . S
C1126 C1120 1.368 . S
C1126 C1125 1.523 . S
C1127 C1111 1.429 . S
C1127 C1123 1.429 . S
C1127 C1128 1.523 . S
C1128 C1112 1.368 . S
C1128 C1124 1.368 . S
C1128 C1127 1.523 . S
H1129 C1104 0.950 . S
H1130 C1106 0.950 . S
H1131 C1107 0.949 . S
H1132 C1109 0.950 . S
H1133 C1111 0.950 . S
C1134 C1135 1.349 . S
C1134 C1136 1.327 . S
C1134 H1159 0.950 . S
C1135 C1134 1.349 . S
C1135 C1151 1.349 . S
C1136 C1134 1.327 . S
C1136 C1155 1.429 . S
C1136 H1160 0.950 . S
C1137 C1154 1.574 . S
C1137 C1156 1.368 . S
C1137 H1161 0.949 . S
H1138 C1142 0.949 . S
C1139 C1140 1.349 . S
C1139 C1141 1.327 . S
C1139 H1162 0.950 . S
C1140 C1139 1.349 . S
C1140 C1152 1.349 . S
C1141 C1139 1.327 . S
C1141 C1157 1.429 . S
C1141 H1163 0.950 . S
C1142 H1138 0.949 . S
C1142 C1150 1.574 . S
C1142 C1158 1.368 . S
H1143 C1151 0.950 . S
H1144 C1149 0.950 . S
H1145 C1150 0.949 . S
H1146 C1152 0.950 . S
H1147 C1153 0.950 . S
H1148 C1154 0.949 . S
C1149 H1144 0.950 . S
C1149 C1151 1.327 . S
C1149 C1155 1.429 . S
C1150 C1142 1.574 . S
C1150 H1145 0.949 . S
C1150 C1156 1.368 . S
C1151 C1135 1.349 . S
C1151 H1143 0.950 . S
C1151 C1149 1.327 . S
C1152 C1140 1.349 . S
C1152 H1146 0.950 . S
C1152 C1153 1.327 . S
C1153 H1147 0.950 . S
C1153 C1152 1.327 . S
C1153 C1157 1.429 . S
C1154 C1137 1.574 . S
C1154 H1148 0.949 . S
C1154 C1158 1.368 . S
C1155 C1136 1.429 . S
C1155 C1149 1.429 . S
C1155 C1156 1.523 . S
C1156 C1137 1.368 . S
C1156 C1150 1.368 . S
C1156 C1155 1.523 . S
C1157 C1141 1.429 . S
C1157 C1153 1.429 . S
C1157 C1158 1.523 . S
C1158 C1142 1.368 . S
C1158 C1154 1.368 . S
C1158 C1157 1.523 . S
H1159 C1134 0.950 . S
H1160 C1136 0.950 . S
H1161 C1137 0.949 . S
H1162 C1139 0.950 . S
H1163 C1141 0.950 . S
C1164 C1165 1.349 . S
C1164 C1166 1.327 . S
C1164 H1189 0.950 . S
C1165 C1164 1.349 . S
C1165 C1181 1.349 . S
C1166 C1164 1.327 . S
C1166 C1185 1.429 . S
C1166 H1190 0.950 . S
C1167 C1184 1.574 . S
C1167 C1186 1.368 . S
C1167 H1191 0.949 . S
H1168 C1172 0.949 . S
C1169 C1170 1.349 . S
C1169 C1171 1.327 . S
C1169 H1192 0.950 . S
C1170 C1169 1.349 . S
C1170 C1182 1.349 . S
C1171 C1169 1.327 . S
C1171 C1187 1.429 . S
C1171 H1193 0.950 . S
C1172 H1168 0.949 . S
C1172 C1180 1.574 . S
C1172 C1188 1.368 . S
H1173 C1181 0.950 . S
H1174 C1179 0.950 . S
H1175 C1180 0.949 . S
H1176 C1182 0.950 . S
H1177 C1183 0.950 . S
H1178 C1184 0.949 . S
C1179 H1174 0.950 . S
C1179 C1181 1.327 . S
C1179 C1185 1.429 . S
C1180 C1172 1.574 . S
C1180 H1175 0.949 . S
C1180 C1186 1.368 . S
C1181 C1165 1.349 . S
C1181 H1173 0.950 . S
C1181 C1179 1.327 . S
C1182 C1170 1.349 . S
C1182 H1176 0.950 . S
C1182 C1183 1.327 . S
C1183 H1177 0.950 . S
C1183 C1182 1.327 . S
C1183 C1187 1.429 . S
C1184 C1167 1.574 . S
C1184 H1178 0.949 . S
C1184 C1188 1.368 . S
C1185 C1166 1.429 . S
C1185 C1179 1.429 . S
C1185 C1186 1.523 . S
C1186 C1167 1.368 . S
C1186 C1180 1.368 . S
C1186 C1185 1.523 . S
C1187 C1171 1.429 . S
C1187 C1183 1.429 . S
C1187 C1188 1.523 . S
C1188 C1172 1.368 . S
C1188 C1184 1.368 . S
C1188 C1187 1.523 . S
H1189 C1164 0.950 . S
H1190 C1166 0.950 . S
H1191 C1167 0.949 . S
H1192 C1169 0.950 . S
H1193 C1171 0.950 . S
C1194 C1195 1.349 . S
C1194 C1196 1.327 . S
C1194 H1219 0.950 . S
C1195 C1194 1.349 . S
C1195 C1211 1.349 . S
C1196 C1194 1.327 . S
C1196 C1215 1.429 . S
C1196 H1220 0.950 . S
C1197 C1214 1.574 . S
C1197 C1216 1.368 . S
C1197 H1221 0.949 . S
H1198 C1202 0.949 . S
C1199 C1200 1.349 . S
C1199 C1201 1.327 . S
C1199 H1222 0.950 . S
C1200 C1199 1.349 . S
C1200 C1212 1.349 . S
C1201 C1199 1.327 . S
C1201 C1217 1.429 . S
C1201 H1223 0.950 . S
C1202 H1198 0.949 . S
C1202 C1210 1.574 . S
C1202 C1218 1.368 . S
H1203 C1211 0.950 . S
H1204 C1209 0.950 . S
H1205 C1210 0.949 . S
H1206 C1212 0.950 . S
H1207 C1213 0.950 . S
H1208 C1214 0.949 . S
C1209 H1204 0.950 . S
C1209 C1211 1.327 . S
C1209 C1215 1.429 . S
C1210 C1202 1.574 . S
C1210 H1205 0.949 . S
C1210 C1216 1.368 . S
C1211 C1195 1.349 . S
C1211 H1203 0.950 . S
C1211 C1209 1.327 . S
C1212 C1200 1.349 . S
C1212 H1206 0.950 . S
C1212 C1213 1.327 . S
C1213 H1207 0.950 . S
C1213 C1212 1.327 . S
C1213 C1217 1.429 . S
C1214 C1197 1.574 . S
C1214 H1208 0.949 . S
C1214 C1218 1.368 . S
C1215 C1196 1.429 . S
C1215 C1209 1.429 . S
C1215 C1216 1.523 . S
C1216 C1197 1.368 . S
C1216 C1210 1.368 . S
C1216 C1215 1.523 . S
C1217 C1201 1.429 . S
C1217 C1213 1.429 . S
C1217 C1218 1.523 . S
C1218 C1202 1.368 . S
C1218 C1214 1.368 . S
C1218 C1217 1.523 . S
H1219 C1194 0.950 . S
H1220 C1196 0.950 . S
H1221 C1197 0.949 . S
H1222 C1199 0.950 . S
H1223 C1201 0.950 . S
C1224 C1225 1.349 . S
C1224 C1226 1.327 . S
C1224 H1249 0.950 . S
C1225 C1224 1.349 . S
C1225 C1241 1.349 . S
C1226 C1224 1.327 . S
C1226 C1245 1.429 . S
C1226 H1250 0.950 . S
C1227 C1244 1.574 . S
C1227 C1246 1.368 . S
C1227 H1251 0.949 . S
H1228 C1232 0.949 . S
C1229 C1230 1.349 . S
C1229 C1231 1.327 . S
C1229 H1252 0.950 . S
C1230 C1229 1.349 . S
C1230 C1242 1.349 . S
C1231 C1229 1.327 . S
C1231 C1247 1.429 . S
C1231 H1253 0.950 . S
C1232 H1228 0.949 . S
C1232 C1240 1.574 . S
C1232 C1248 1.368 . S
H1233 C1241 0.950 . S
H1234 C1239 0.950 . S
H1235 C1240 0.949 . S
H1236 C1242 0.950 . S
H1237 C1243 0.950 . S
H1238 C1244 0.949 . S
C1239 H1234 0.950 . S
C1239 C1241 1.327 . S
C1239 C1245 1.429 . S
C1240 C1232 1.574 . S
C1240 H1235 0.949 . S
C1240 C1246 1.368 . S
C1241 C1225 1.349 . S
C1241 H1233 0.950 . S
C1241 C1239 1.327 . S
C1242 C1230 1.349 . S
C1242 H1236 0.950 . S
C1242 C1243 1.327 . S
C1243 H1237 0.950 . S
C1243 C1242 1.327 . S
C1243 C1247 1.429 . S
C1244 C1227 1.574 . S
C1244 H1238 0.949 . S
C1244 C1248 1.368 . S
C1245 C1226 1.429 . S
C1245 C1239 1.429 . S
C1245 C1246 1.523 . S
C1246 C1227 1.368 . S
C1246 C1240 1.368 . S
C1246 C1245 1.523 . S
C1247 C1231 1.429 . S
C1247 C1243 1.429 . S
C1247 C1248 1.523 . S
C1248 C1232 1.368 . S
C1248 C1244 1.368 . S
C1248 C1247 1.523 . S
H1249 C1224 0.950 . S
H1250 C1226 0.950 . S
H1251 C1227 0.949 . S
H1252 C1229 0.950 . S
H1253 C1231 0.950 . S
C1254 C1255 1.349 . S
C1254 C1256 1.327 . S
C1254 H1279 0.950 . S
C1255 C1254 1.349 . S
C1255 C1271 1.349 . S
C1256 C1254 1.327 . S
C1256 C1275 1.429 . S
C1256 H1280 0.950 . S
C1257 C1274 1.574 . S
C1257 C1276 1.368 . S
C1257 H1281 0.949 . S
H1258 C1262 0.949 . S
C1259 C1260 1.349 . S
C1259 C1261 1.327 . S
C1259 H1282 0.950 . S
C1260 C1259 1.349 . S
C1260 C1272 1.349 . S
C1261 C1259 1.327 . S
C1261 C1277 1.429 . S
C1261 H1283 0.950 . S
C1262 H1258 0.949 . S
C1262 C1270 1.574 . S
C1262 C1278 1.368 . S
H1263 C1271 0.950 . S
H1264 C1269 0.950 . S
H1265 C1270 0.949 . S
H1266 C1272 0.950 . S
H1267 C1273 0.950 . S
H1268 C1274 0.949 . S
C1269 H1264 0.950 . S
C1269 C1271 1.327 . S
C1269 C1275 1.429 . S
C1270 C1262 1.574 . S
C1270 H1265 0.949 . S
C1270 C1276 1.368 . S
C1271 C1255 1.349 . S
C1271 H1263 0.950 . S
C1271 C1269 1.327 . S
C1272 C1260 1.349 . S
C1272 H1266 0.950 . S
C1272 C1273 1.327 . S
C1273 H1267 0.950 . S
C1273 C1272 1.327 . S
C1273 C1277 1.429 . S
C1274 C1257 1.574 . S
C1274 H1268 0.949 . S
C1274 C1278 1.368 . S
C1275 C1256 1.429 . S
C1275 C1269 1.429 . S
C1275 C1276 1.523 . S
C1276 C1257 1.368 . S
C1276 C1270 1.368 . S
C1276 C1275 1.523 . S
C1277 C1261 1.429 . S
C1277 C1273 1.429 . S
C1277 C1278 1.523 . S
C1278 C1262 1.368 . S
C1278 C1274 1.368 . S
C1278 C1277 1.523 . S
H1279 C1254 0.950 . S
H1280 C1256 0.950 . S
H1281 C1257 0.949 . S
H1282 C1259 0.950 . S
H1283 C1261 0.950 . S
C1284 C1285 1.349 . S
C1284 C1286 1.327 . S
C1284 H1309 0.950 . S
C1285 C1284 1.349 . S
C1285 C1301 1.349 . S
C1286 C1284 1.327 . S
C1286 C1305 1.429 . S
C1286 H1310 0.950 . S
C1287 C1304 1.574 . S
C1287 C1306 1.368 . S
C1287 H1311 0.949 . S
H1288 C1292 0.949 . S
C1289 C1290 1.349 . S
C1289 C1291 1.327 . S
C1289 H1312 0.950 . S
C1290 C1289 1.349 . S
C1290 C1302 1.349 . S
C1291 C1289 1.327 . S
C1291 C1307 1.429 . S
C1291 H1313 0.950 . S
C1292 H1288 0.949 . S
C1292 C1300 1.574 . S
C1292 C1308 1.368 . S
H1293 C1301 0.950 . S
H1294 C1299 0.950 . S
H1295 C1300 0.949 . S
H1296 C1302 0.950 . S
H1297 C1303 0.950 . S
H1298 C1304 0.949 . S
C1299 H1294 0.950 . S
C1299 C1301 1.327 . S
C1299 C1305 1.429 . S
C1300 C1292 1.574 . S
C1300 H1295 0.949 . S
C1300 C1306 1.368 . S
C1301 C1285 1.349 . S
C1301 H1293 0.950 . S
C1301 C1299 1.327 . S
C1302 C1290 1.349 . S
C1302 H1296 0.950 . S
C1302 C1303 1.327 . S
C1303 H1297 0.950 . S
C1303 C1302 1.327 . S
C1303 C1307 1.429 . S
C1304 C1287 1.574 . S
C1304 H1298 0.949 . S
C1304 C1308 1.368 . S
C1305 C1286 1.429 . S
C1305 C1299 1.429 . S
C1305 C1306 1.523 . S
C1306 C1287 1.368 . S
C1306 C1300 1.368 . S
C1306 C1305 1.523 . S
C1307 C1291 1.429 . S
C1307 C1303 1.429 . S
C1307 C1308 1.523 . S
C1308 C1292 1.368 . S
C1308 C1304 1.368 . S
C1308 C1307 1.523 . S
H1309 C1284 0.950 . S
H1310 C1286 0.950 . S
H1311 C1287 0.949 . S
H1312 C1289 0.950 . S
H1313 C1291 0.950 . S
C1314 C1315 1.349 . S
C1314 C1316 1.327 . S
C1314 H1339 0.950 . S
C1315 C1314 1.349 . S
C1315 C1331 1.349 . S
C1316 C1314 1.327 . S
C1316 C1335 1.429 . S
C1316 H1340 0.950 . S
C1317 C1334 1.574 . S
C1317 C1336 1.368 . S
C1317 H1341 0.949 . S
H1318 C1322 0.949 . S
C1319 C1320 1.349 . S
C1319 C1321 1.327 . S
C1319 H1342 0.950 . S
C1320 C1319 1.349 . S
C1320 C1332 1.349 . S
C1321 C1319 1.327 . S
C1321 C1337 1.429 . S
C1321 H1343 0.950 . S
C1322 H1318 0.949 . S
C1322 C1330 1.574 . S
C1322 C1338 1.368 . S
H1323 C1331 0.950 . S
H1324 C1329 0.950 . S
H1325 C1330 0.949 . S
H1326 C1332 0.950 . S
H1327 C1333 0.950 . S
H1328 C1334 0.949 . S
C1329 H1324 0.950 . S
C1329 C1331 1.327 . S
C1329 C1335 1.429 . S
C1330 C1322 1.574 . S
C1330 H1325 0.949 . S
C1330 C1336 1.368 . S
C1331 C1315 1.349 . S
C1331 H1323 0.950 . S
C1331 C1329 1.327 . S
C1332 C1320 1.349 . S
C1332 H1326 0.950 . S
C1332 C1333 1.327 . S
C1333 H1327 0.950 . S
C1333 C1332 1.327 . S
C1333 C1337 1.429 . S
C1334 C1317 1.574 . S
C1334 H1328 0.949 . S
C1334 C1338 1.368 . S
C1335 C1316 1.429 . S
C1335 C1329 1.429 . S
C1335 C1336 1.523 . S
C1336 C1317 1.368 . S
C1336 C1330 1.368 . S
C1336 C1335 1.523 . S
C1337 C1321 1.429 . S
C1337 C1333 1.429 . S
C1337 C1338 1.523 . S
C1338 C1322 1.368 . S
C1338 C1334 1.368 . S
C1338 C1337 1.523 . S
H1339 C1314 0.950 . S
H1340 C1316 0.950 . S
H1341 C1317 0.949 . S
H1342 C1319 0.950 . S
H1343 C1321 0.950 . S
C625 C241 2.041 . S
C630 C362 2.103 . S
C660 C446 2.148 . S
C655 C277 2.082 . S
C690 C512 2.117 . S
C685 C169 2.215 . S
C720 C596 2.099 . S
C715 C205 2.196 . S
C750 C351 2.103 1_565 S
C745 C97 1.995 . S
C775 C133 2.129 . S
C780 C435 2.147 . S
C805 C25 2.162 . S
C810 C523 2.117 . S
C835 C61 2.147 . S
C840 C607 2.099 . S
C870 C358 0.427 1_455 S
C865 C211 0.421 . S
C900 C442 0.403 1_545 S
C895 C247 0.379 . S
C930 C514 0.442 . S
C925 C253 0.454 . S
C955 C175 0.404 . S
C960 C598 0.452 . S
C985 C67 0.510 . S
C990 C346 0.427 . S
C1020 C430 0.403 . S
C1015 C103 0.484 . S
C1050 C526 0.442 . S
C1045 C109 0.349 . S
C1075 C31 0.510 . S
C1080 C610 0.452 . S
C1105 C181 2.632 . S
C1110 C355 2.707 . S
C1135 C217 2.572 . S
C1140 C439 2.648 . S
C1170 C519 2.653 . S
C1165 C283 2.350 . S
C1200 C603 2.686 . S
C1195 C145 2.482 . S
C1225 C37 2.598 . S
C1230 C344 2.708 . S
C1260 C428 2.648 . S
C1255 C73 2.541 . S
C1290 C530 2.653 . S
C1285 C139 2.395 . S
C1315 C1 2.446 . S
C1320 C614 2.686 . S
