# Generated by pormake.
# Topology rtl, (3,6)-cn, num edge types: 1
# Building blocks:
#     Node 0, Type 0, BuildingBlock: INOVEN_clean_linker_0, # of connection points: 3
#     Node 1, Type 0, BuildingBlock: INOVEN_clean_linker_0, # of connection points: 3
#     Node 2, Type 0, BuildingBlock: INOVEN_clean_linker_0, # of connection points: 3
#     Node 3, Type 0, BuildingBlock: INOVEN_clean_linker_0, # of connection points: 3
#     Node 4, Type 1, BuildingBlock: FUNLAD_clean_sbu_0, # of connection points: 6
#     Node 5, Type 1, BuildingBlock: FUNLAD_clean_sbu_0, # of connection points: 6
#     Edge 6, Type (0, 1), BuildingBlock: KIFKEQ_clean_linker_1, # of connection points: 2
#     Edge 7, Type (0, 1), BuildingBlock: KIFKEQ_clean_linker_1, # of connection points: 2
#     Edge 8, Type (0, 1), BuildingBlock: KIFKEQ_clean_linker_1, # of connection points: 2
#     Edge 9, Type (0, 1), BuildingBlock: KIFKEQ_clean_linker_1, # of connection points: 2
#     Edge 10, Type (0, 1), BuildingBlock: KIFKEQ_clean_linker_1, # of connection points: 2
#     Edge 11, Type (0, 1), BuildingBlock: KIFKEQ_clean_linker_1, # of connection points: 2
#     Edge 12, Type (0, 1), BuildingBlock: KIFKEQ_clean_linker_1, # of connection points: 2
#     Edge 13, Type (0, 1), BuildingBlock: KIFKEQ_clean_linker_1, # of connection points: 2
#     Edge 14, Type (0, 1), BuildingBlock: KIFKEQ_clean_linker_1, # of connection points: 2
#     Edge 15, Type (0, 1), BuildingBlock: KIFKEQ_clean_linker_1, # of connection points: 2
#     Edge 16, Type (0, 1), BuildingBlock: KIFKEQ_clean_linker_1, # of connection points: 2
#     Edge 17, Type (0, 1), BuildingBlock: KIFKEQ_clean_linker_1, # of connection points: 2
# Relax obj value: 0.003
# Max RMSD: 0.044
# Mean RMSD: 0.029
data_MOF--net-rtl--node1-FUNLAD_clean_sbu_0--node2-INOVEN_clean_linker_0--edge1-KIFKEQ_clean_linker_1
_symmetry_space_group_name_H-M    P1
_symmetry_Int_Tables_number       1
_symmetry_cell_setting            triclinic
loop_
_symmetry_equiv_pos_as_xyz
'x, y, z'
_cell_length_a     40.69243
_cell_length_b     40.500288
_cell_length_c     21.558228
_cell_angle_alpha  91.328324
_cell_angle_beta   92.36985
_cell_angle_gamma 90.028461
loop_
_atom_site_label
_atom_site_type_symbol
_atom_site_fract_x
_atom_site_fract_y
_atom_site_fract_z
_atom_type_partial_charge
H0 H 0.19473 0.83644 0.90712 0.0
H1 H 0.12716 0.89646 0.00819 0.0
H2 H 0.19068 0.82865 0.10568 0.0
N3 N 0.22062 0.8053 0.0028 0.0
N4 N 0.23176 0.79092 0.04969 0.0
C5 C 0.18416 0.84399 0.95055 0.0
C6 C 0.15971 0.86837 0.95115 0.0
C7 C 0.19561 0.82964 0.00591 0.0
C8 C 0.18216 0.83965 0.06261 0.0
C9 C 0.15714 0.86353 0.06341 0.0
C10 C 0.14627 0.8778 0.00763 0.0
H11 H 0.69405 0.70165 0.64142 0.0
H12 H 0.62463 0.63917 0.53887 0.0
H13 H 0.6938 0.6965 0.44148 0.0
N14 N 0.72304 0.72531 0.54455 0.0
N15 N 0.73568 0.73527 0.49664 0.0
C16 C 0.68403 0.6916 0.59759 0.0
C17 C 0.65745 0.66945 0.59671 0.0
C18 C 0.69725 0.70158 0.54191 0.0
C19 C 0.68402 0.68875 0.48481 0.0
C20 C 0.65748 0.66656 0.48351 0.0
C21 C 0.64456 0.65699 0.5396 0.0
H22 H 0.82889 0.19534 0.89402 0.0
H23 H 0.89991 0.13764 -0.00271 0.0
H24 H 0.83093 0.19801 0.09399 0.0
N25 N 0.8008 0.22258 0.99062 0.0
N26 N 0.79587 0.24224 0.03465 0.0
C27 C 0.8394 0.18703 0.93796 0.0
C28 C 0.86642 0.16549 0.93904 0.0
C29 C 0.82683 0.19928 0.99356 0.0
C30 C 0.84064 0.18883 0.05084 0.0
C31 C 0.86715 0.16664 0.05235 0.0
C32 C 0.87981 0.15522 -0.00367 0.0
H33 H 0.33713 0.32772 0.39688 0.0
H34 H 0.39853 0.39662 0.50295 0.0
H35 H 0.33106 0.33502 0.59583 0.0
N36 N 0.30655 0.30355 0.49096 0.0
N37 N 0.29263 0.29335 0.53732 0.0
C38 C 0.34517 0.3389 0.4411 0.0
C39 C 0.36976 0.36325 0.44349 0.0
C40 C 0.3312 0.32842 0.49568 0.0
C41 C 0.3418 0.34275 0.55335 0.0
C42 C 0.36587 0.36766 0.55598 0.0
C43 C 0.37977 0.37755 0.50098 0.0
C44 C 0.04582 0.9799 0.41235 0.0
N45 N 0.06823 0.07026 0.50433 0.0
C46 C 0.1004 0.06106 0.50608 0.0
C47 C 0.12527 0.0849 0.50894 0.0
C48 C 0.11698 0.11858 0.51015 0.0
C49 C 0.08355 0.12734 0.50805 0.0
C50 C 0.05949 0.1027 0.50508 0.0
Zn51 Zn 0.03234 0.03475 0.50169 0.0
C52 C 0.97847 0.04968 0.40896 0.0
N53 N 0.95711 0.96084 0.49712 0.0
C54 C 0.96633 0.92855 0.49712 0.0
C55 C 0.92481 0.96957 0.49668 0.0
C56 C 0.90033 0.94535 0.49658 0.0
C57 C 0.90916 0.9118 0.4967 0.0
C58 C 0.94268 0.90355 0.49681 0.0
Zn59 Zn 0.9928 0.99657 0.49914 0.0
O60 O 0.05765 0.00714 0.43362 0.0
C61 C 0.04698 0.98225 0.5922 0.0
O62 O 0.0185 0.96982 0.43127 0.0
H63 H 0.918 0.99538 0.49655 0.0
H64 H 0.10683 0.03515 0.50567 0.0
H65 H 0.99213 0.92212 0.49778 0.0
O66 O 0.05812 0.00909 0.57211 0.0
O67 O 0.01959 0.97113 0.57011 0.0
H68 H 0.03378 0.1095 0.50349 0.0
O69 O 0.96765 0.02384 0.56716 0.0
O70 O 0.00639 0.06161 0.5696 0.0
O71 O 0.96669 0.02285 0.42818 0.0
O72 O 0.00603 0.06003 0.43145 0.0
C73 C 0.97919 0.05115 0.58856 0.0
H74 H 0.15071 0.07702 0.51123 0.0
H75 H 0.07604 0.15299 0.50808 0.0
H76 H 0.87477 0.9528 0.49576 0.0
H77 H 0.95062 0.87804 0.49771 0.0
C78 C 0.47892 0.4834 0.92267 0.0
N79 N 0.56914 0.46194 0.01644 0.0
C80 C 0.56078 0.42983 0.00387 0.0
C81 C 0.58491 0.4053 0.00375 0.0
C82 C 0.61775 0.41384 0.01817 0.0
C83 C 0.62579 0.447 0.03119 0.0
C84 C 0.60101 0.47086 0.02934 0.0
Zn85 Zn 0.53293 0.49719 0.01798 0.0
C86 C 0.54636 0.55312 0.93595 0.0
N87 N 0.45698 0.57013 0.02225 0.0
C88 C 0.42485 0.5607 0.02089 0.0
C89 C 0.46562 0.6026 0.02609 0.0
C90 C 0.44151 0.62705 0.02888 0.0
C91 C 0.40814 0.61805 0.02787 0.0
C92 C 0.39994 0.58434 0.02374 0.0
Zn93 Zn 0.4931 0.53501 0.01991 0.0
O94 O 0.50657 0.4726 0.94298 0.0
C95 C 0.47998 0.479 0.10213 0.0
O96 O 0.46739 0.50972 0.94642 0.0
H97 H 0.49129 0.60958 0.0274 0.0
H98 H 0.53532 0.4231 -0.00555 0.0
H99 H 0.4185 0.53476 0.01769 0.0
O100 O 0.50717 0.46908 0.08156 0.0
O101 O 0.46821 0.50647 0.08452 0.0
H102 H 0.60726 0.49649 0.03868 0.0
O103 O 0.51914 0.55994 0.09324 0.0
O104 O 0.55824 0.52271 0.09317 0.0
O105 O 0.51882 0.5628 0.9554 0.0
O106 O 0.55828 0.52586 0.95439 0.0
C107 C 0.54647 0.54936 0.11525 0.0
H108 H 0.57793 0.37984 -0.00614 0.0
H109 H 0.651 0.45435 0.04221 0.0
H110 H 0.44897 0.65271 0.0328 0.0
H111 H 0.37453 0.57632 0.02204 0.0
H112 H 0.26024 0.26956 0.63049 0.0
H113 H 0.26934 0.261 0.43217 0.0
H114 H 0.21758 0.2267 0.6249 0.0
H115 H 0.22653 0.21872 0.42606 0.0
H116 H 0.17452 0.11969 0.44871 0.0
H117 H 0.21753 0.16173 0.45585 0.0
H118 H 0.16088 0.21844 0.58567 0.0
H119 H 0.11839 0.17586 0.58017 0.0
C120 C 0.25294 0.25848 0.58581 0.0
C121 C 0.26797 0.26849 0.53211 0.0
C122 C 0.22849 0.23416 0.58243 0.0
C123 C 0.21864 0.21931 0.52499 0.0
C124 C 0.23382 0.22936 0.47109 0.0
C125 C 0.25822 0.25372 0.47453 0.0
C126 C 0.17138 0.14098 0.47921 0.0
C127 C 0.14302 0.1444 0.5139 0.0
C128 C 0.19587 0.16525 0.48279 0.0
C129 C 0.19262 0.19347 0.52127 0.0
C130 C 0.16429 0.19686 0.55605 0.0
C131 C 0.13977 0.17263 0.55234 0.0
H132 H 0.26248 0.76967 0.94616 0.0
H133 H 0.25758 0.75729 0.14374 0.0
H134 H 0.30514 0.72754 0.94172 0.0
H135 H 0.30085 0.71525 0.13981 0.0
H136 H 0.40498 0.67705 0.96859 0.0
H137 H 0.36258 0.71938 0.97489 0.0
H138 H 0.30944 0.65894 0.09948 0.0
H139 H 0.35242 0.61706 0.09481 0.0
C140 C 0.27064 0.75798 0.98874 0.0
C141 C 0.25679 0.76662 0.04561 0.0
C142 C 0.29523 0.73396 0.98626 0.0
C143 C 0.30645 0.71806 0.04042 0.0
C144 C 0.29249 0.72676 0.09715 0.0
C145 C 0.26793 0.75085 0.0996 0.0
C146 C 0.3844 0.67292 -0.00222 0.0
C147 C 0.38209 0.64368 0.03122 0.0
C148 C 0.35993 0.69703 0.00087 0.0
C149 C 0.33259 0.6925 0.03759 0.0
C150 C 0.33033 0.66331 0.07122 0.0
C151 C 0.35477 0.63915 0.06797 0.0
H152 H 0.76229 0.76822 0.59857 0.0
H153 H 0.76572 0.75742 0.39949 0.0
H154 H 0.80488 0.81077 0.59851 0.0
H155 H 0.8081 0.80038 0.39889 0.0
H156 H 0.90704 0.85337 0.43027 0.0
H157 H 0.86566 0.80986 0.43209 0.0
H158 H 0.81164 0.86769 0.56434 0.0
H159 H 0.85357 0.91079 0.56398 0.0
C160 C 0.77221 0.77496 0.55478 0.0
C161 C 0.76089 0.75958 0.49872 0.0
C162 C 0.79644 0.79947 0.55467 0.0
C163 C 0.80986 0.809 0.49868 0.0
C164 C 0.79858 0.79335 0.44287 0.0
C165 C 0.7743 0.76894 0.44303 0.0
C166 C 0.88648 0.85668 0.46014 0.0
C167 C 0.88362 0.88554 0.49703 0.0
C168 C 0.86259 0.83189 0.4607 0.0
C169 C 0.83534 0.83531 0.49834 0.0
C170 C 0.83251 0.86415 0.53531 0.0
C171 C 0.85633 0.88901 0.53456 0.0
H172 H 0.74017 0.23976 0.96056 0.0
H173 H 0.79278 0.29699 0.10335 0.0
H174 H 0.69605 0.28043 0.9584 0.0
H175 H 0.75004 0.33917 0.09876 0.0
H176 H 0.65587 0.39636 0.11823 0.0
H177 H 0.69766 0.3533 0.12354 0.0
H178 H 0.68051 0.33218 0.92702 0.0
H179 H 0.63712 0.37374 0.92371 0.0
C180 C 0.74239 0.26137 0.99096 0.0
C181 C 0.76985 0.26554 0.03208 0.0
C182 C 0.71723 0.2849 0.9895 0.0
C183 C 0.71928 0.31346 0.02816 0.0
C184 C 0.747 0.31736 0.06911 0.0
C185 C 0.77171 0.29342 0.07153 0.0
C186 C 0.66113 0.3823 0.07644 0.0
C187 C 0.64347 0.38817 0.02062 0.0
C188 C 0.68526 0.35777 0.07915 0.0
C189 C 0.69285 0.33909 0.02563 0.0
C190 C 0.67509 0.34538 0.96959 0.0
C191 C 0.65041 0.36939 0.96735 0.0
H192 H 0.09204 0.86782 0.08499 0.0
H193 H 0.18815 0.88419 0.17257 0.0
H194 H 0.06656 0.89335 0.17426 0.0
H195 H 0.16256 0.90933 0.26322 0.0
H196 H 0.02788 0.92002 0.36091 0.0
H197 H 0.05651 0.88736 0.28382 0.0
H198 H 0.13276 0.96157 0.28262 0.0
H199 H 0.10443 0.99408 0.36073 0.0
C200 C 0.10766 0.87645 0.12397 0.0
C201 C 0.14204 0.87429 0.12182 0.0
C202 C 0.09308 0.89087 0.1753 0.0
C203 C 0.11255 0.90354 0.22569 0.0
C204 C 0.14695 0.90012 0.22473 0.0
C205 C 0.16158 0.88546 0.17328 0.0
C206 C 0.05082 0.92936 0.34443 0.0
C207 C 0.06371 0.95983 0.36651 0.0
C208 C 0.0672 0.91063 0.30019 0.0
C209 C 0.09684 0.92191 0.27697 0.0
C210 C 0.11017 0.952 0.30014 0.0
C211 C 0.09376 0.97078 0.34445 0.0
H212 H 0.68895 0.6469 0.70217 0.0
H213 H 0.59255 0.66744 0.6212 0.0
H214 H 0.6636 0.62224 0.79132 0.0
H215 H 0.56727 0.64219 0.70873 0.0
H216 H 0.52937 0.6139 0.89256 0.0
H217 H 0.55818 0.64678 0.81868 0.0
H218 H 0.63274 0.57125 0.8066 0.0
H219 H 0.60433 0.53865 0.88152 0.0
C220 C 0.66239 0.64662 0.70401 0.0
C221 C 0.64269 0.65878 0.65466 0.0
C222 C 0.64787 0.63222 0.7546 0.0
C223 C 0.61342 0.63 0.75685 0.0
C224 C 0.59385 0.64371 0.70882 0.0
C225 C 0.60831 0.65794 0.65838 0.0
C226 C 0.55199 0.60436 0.87439 0.0
C227 C 0.56438 0.57349 0.89246 0.0
C228 C 0.56848 0.6232 0.83199 0.0
C229 C 0.5977 0.6116 0.80659 0.0
C230 C 0.61053 0.58111 0.82588 0.0
C231 C 0.59406 0.56227 0.86839 0.0
H232 H 0.83567 0.14229 0.15149 0.0
H233 H 0.9321 0.16366 0.08623 0.0
H234 H 0.861 0.11639 0.24333 0.0
H235 H 0.95733 0.13719 0.17635 0.0
H236 H 0.99479 0.11018 0.36671 0.0
H237 H 0.96594 0.14216 0.28753 0.0
H238 H 0.89232 0.06548 0.26405 0.0
H239 H 0.92087 0.03364 0.34465 0.0
C240 C 0.86224 0.14188 0.15732 0.0
C241 C 0.88195 0.15478 0.1117 0.0
C242 C 0.87673 0.12674 0.2094 0.0
C243 C 0.91117 0.12453 0.21692 0.0
C244 C 0.93076 0.13871 0.17238 0.0
C245 C 0.91632 0.15366 0.12047 0.0
C246 C 0.9724 0.10011 0.34485 0.0
C247 C 0.96031 0.06917 0.36154 0.0
C248 C 0.95589 0.11846 0.29936 0.0
C249 C 0.92694 0.1063 0.26922 0.0
C250 C 0.91438 0.07571 0.28688 0.0
C251 C 0.93089 0.05733 0.33265 0.0
H252 H 0.37112 0.43342 0.58181 0.0
H253 H 0.38642 0.3381 0.66364 0.0
H254 H 0.39634 0.46028 0.67418 0.0
H255 H 0.41133 0.36509 0.7572 0.0
H256 H 0.49466 0.42491 0.86499 0.0
H257 H 0.46356 0.39575 0.78133 0.0
H258 H 0.38878 0.47135 0.78491 0.0
H259 H 0.41996 0.50074 0.86781 0.0
C260 C 0.37953 0.41828 0.62008 0.0
C261 C 0.37706 0.38371 0.61555 0.0
C262 C 0.39377 0.43365 0.67313 0.0
C263 C 0.40598 0.41478 0.72284 0.0
C264 C 0.40245 0.38022 0.71928 0.0
C265 C 0.38793 0.36481 0.66616 0.0
C266 C 0.47157 0.43528 0.84798 0.0
C267 C 0.45995 0.46531 0.87266 0.0
C268 C 0.4536 0.41841 0.80048 0.0
C269 C 0.42373 0.43127 0.77655 0.0
C270 C 0.41189 0.461 0.80195 0.0
C271 C 0.42976 0.47781 0.84951 0.0
H272 H 0.59244 0.66201 0.45038 0.0
H273 H 0.68887 0.64079 0.38322 0.0
H274 H 0.5672 0.63492 0.35858 0.0
H275 H 0.66348 0.61439 0.28964 0.0
H276 H 0.60363 0.5326 0.17862 0.0
H277 H 0.63198 0.56366 0.26338 0.0
H278 H 0.55874 0.64057 0.248 0.0
H279 H 0.53007 0.60935 0.16466 0.0
C280 C 0.60823 0.65178 0.41556 0.0
C281 C 0.64261 0.65325 0.42416 0.0
C282 C 0.59378 0.63652 0.36264 0.0
C283 C 0.61333 0.62242 0.31683 0.0
C284 C 0.64778 0.62471 0.32448 0.0
C285 C 0.6623 0.64011 0.37761 0.0
C286 C 0.59364 0.55616 0.19334 0.0
C287 C 0.56439 0.56832 0.16541 0.0
C288 C 0.61003 0.57408 0.24151 0.0
C289 C 0.59753 0.60452 0.26258 0.0
C290 C 0.56873 0.61696 0.23354 0.0
C291 C 0.55232 0.59906 0.18565 0.0
H292 H 0.93143 0.16352 0.91519 0.0
H293 H 0.8354 0.14067 0.83261 0.0
H294 H 0.95715 0.13822 0.82614 0.0
H295 H 0.86122 0.11605 0.74188 0.0
H296 H 0.92192 0.03473 0.64238 0.0
H297 H 0.89316 0.066 0.72133 0.0
H298 H 0.966 0.14348 0.71672 0.0
H299 H 0.9952 0.1119 0.6388 0.0
C300 C 0.91582 0.15336 0.87751 0.0
C301 C 0.88143 0.15369 0.8811 0.0
C302 C 0.93055 0.13916 0.82616 0.0
C303 C 0.91125 0.12498 0.77699 0.0
C304 C 0.87675 0.12642 0.77942 0.0
C305 C 0.86196 0.14078 0.83096 0.0
C306 C 0.93175 0.05848 0.65806 0.0
C307 C 0.96106 0.07066 0.63481 0.0
C308 C 0.91508 0.07655 0.70291 0.0
C309 C 0.92731 0.10721 0.7254 0.0
C310 C 0.95618 0.11973 0.70097 0.0
C311 C 0.97288 0.10165 0.65623 0.0
H312 H 0.43497 0.37035 0.42467 0.0
H313 H 0.33908 0.38191 0.33456 0.0
H314 H 0.46035 0.39551 0.33697 0.0
H315 H 0.36459 0.40665 0.24566 0.0
H316 H 0.42077 0.49204 0.1531 0.0
H317 H 0.39301 0.45982 0.22958 0.0
H318 H 0.47111 0.38768 0.2266 0.0
H319 H 0.49915 0.42005 0.15085 0.0
C320 C 0.41939 0.37792 0.38559 0.0
C321 C 0.38508 0.37446 0.38651 0.0
C322 C 0.43393 0.39209 0.33515 0.0
C323 C 0.41445 0.40321 0.28453 0.0
C324 C 0.38017 0.39862 0.28436 0.0
C325 C 0.36561 0.3842 0.33484 0.0
C326 C 0.43195 0.46923 0.16854 0.0
C327 C 0.46234 0.45878 0.14637 0.0
C328 C 0.41589 0.45063 0.21194 0.0
C329 C 0.42991 0.42125 0.23417 0.0
C330 C 0.45989 0.41041 0.21085 0.0
C331 C 0.47591 0.42894 0.16737 0.0
H332 H 0.15201 0.93403 0.93196 0.0
H333 H 0.14004 0.83853 0.84062 0.0
H334 H 0.12673 0.96035 0.84147 0.0
H335 H 0.11514 0.865 0.74901 0.0
H336 H 0.03176 0.92312 0.6431 0.0
H337 H 0.06239 0.89447 0.72542 0.0
H338 H 0.13588 0.9716 0.73202 0.0
H339 H 0.1052 1.00045 0.65049 0.0
C340 C 0.14423 0.91873 0.89213 0.0
C341 C 0.14775 0.88425 0.89334 0.0
C342 C 0.13 0.9338 0.84014 0.0
C343 C 0.11885 0.91472 0.78822 0.0
C344 C 0.12322 0.88027 0.78865 0.0
C345 C 0.13773 0.86517 0.8407 0.0
C346 C 0.0545 0.9339 0.662 0.0
C347 C 0.06588 0.96421 0.64067 0.0
C348 C 0.07217 0.91735 0.70876 0.0
C349 C 0.10149 0.93083 0.73522 0.0
C350 C 0.11317 0.9608 0.713 0.0
C351 C 0.09559 0.97728 0.6662 0.0
loop_
_geom_bond_atom_site_label_1
_geom_bond_atom_site_label_2
_geom_bond_distance
_geom_bond_site_symmetry_2
_ccdc_geom_bond_type
H0 C5 0.929 . S
H1 C10 0.931 . S
H2 C8 0.930 . S
N3 N4 1.234 1_556 S
N3 C7 1.453 1_556 S
N4 N3 1.234 1_554 S
C5 H0 0.929 . S
C5 C6 1.373 . S
C5 C7 1.368 1_556 S
C6 C5 1.373 . S
C6 C10 1.397 1_556 S
C7 N3 1.453 1_554 S
C7 C5 1.368 1_554 S
C7 C8 1.373 . S
C8 H2 0.930 . S
C8 C7 1.373 . S
C8 C9 1.371 . S
C9 C8 1.371 . S
C9 C10 1.383 . S
C10 H1 0.931 . S
C10 C6 1.397 1_554 S
C10 C9 1.383 . S
H11 C16 0.929 . S
H12 C21 0.931 . S
H13 C19 0.930 . S
N14 N15 1.234 . S
N14 C18 1.453 . S
N15 N14 1.234 . S
C16 H11 0.929 . S
C16 C17 1.373 . S
C16 C18 1.368 . S
C17 C16 1.373 . S
C17 C21 1.397 . S
C18 N14 1.453 . S
C18 C16 1.368 . S
C18 C19 1.373 . S
C19 H13 0.930 . S
C19 C18 1.373 . S
C19 C20 1.371 . S
C20 C19 1.371 . S
C20 C21 1.383 . S
C21 H12 0.931 . S
C21 C17 1.397 . S
C21 C20 1.383 . S
H22 C27 0.929 . S
H23 C32 0.931 . S
H24 C30 0.930 . S
N25 N26 1.234 1_556 S
N25 C29 1.453 . S
N26 N25 1.234 1_554 S
C27 H22 0.929 . S
C27 C28 1.373 . S
C27 C29 1.368 . S
C28 C27 1.373 . S
C28 C32 1.397 1_556 S
C29 N25 1.453 . S
C29 C27 1.368 . S
C29 C30 1.373 1_556 S
C30 H24 0.930 . S
C30 C29 1.373 1_554 S
C30 C31 1.371 . S
C31 C30 1.371 . S
C31 C32 1.383 . S
C32 H23 0.931 . S
C32 C28 1.397 1_554 S
C32 C31 1.383 . S
H33 C38 0.929 . S
H34 C43 0.931 . S
H35 C41 0.930 . S
N36 N37 1.234 . S
N36 C40 1.453 . S
N37 N36 1.234 . S
C38 H33 0.929 . S
C38 C39 1.373 . S
C38 C40 1.368 . S
C39 C38 1.373 . S
C39 C43 1.397 . S
C40 N36 1.453 . S
C40 C38 1.368 . S
C40 C41 1.373 . S
C41 H35 0.930 . S
C41 C40 1.373 . S
C41 C42 1.371 . S
C42 C41 1.371 . S
C42 C43 1.383 . S
C43 H34 0.931 . S
C43 C39 1.397 . S
C43 C42 1.383 . S
C44 O60 1.251 1_565 S
C44 O62 1.254 . S
N45 C46 1.333 . S
N45 C50 1.307 . S
N45 Zn51 2.020 . S
C46 N45 1.333 . S
C46 C47 1.379 . S
C46 H64 0.952 . S
C47 C46 1.379 . S
C47 C48 1.390 . S
C47 H74 0.949 . S
C48 C47 1.390 . S
C48 C49 1.357 . S
C49 C48 1.357 . S
C49 C50 1.370 . S
C49 H75 0.950 . S
C50 N45 1.307 . S
C50 C49 1.370 . S
C50 H68 0.948 . S
Zn51 N45 2.020 . S
Zn51 O60 2.039 . S
Zn51 O66 2.034 . S
Zn51 O70 2.025 . S
Zn51 O72 2.024 . S
C52 O71 1.246 . S
C52 O72 1.249 1_655 S
N53 C54 1.307 . S
N53 C55 1.333 . S
N53 Zn59 2.020 . S
C54 N53 1.307 . S
C54 C58 1.370 . S
C54 H65 0.948 . S
C55 N53 1.333 . S
C55 C56 1.379 . S
C55 H63 0.952 . S
C56 C55 1.379 . S
C56 C57 1.390 . S
C56 H76 0.949 . S
C57 C56 1.390 . S
C57 C58 1.357 . S
C58 C54 1.370 . S
C58 C57 1.357 . S
C58 H77 0.950 . S
Zn59 N53 2.020 . S
Zn59 O62 2.025 1_655 S
Zn59 O67 2.024 1_655 S
Zn59 O69 2.039 1_565 S
Zn59 O71 2.034 1_565 S
O60 C44 1.251 1_545 S
O60 Zn51 2.039 . S
C61 O66 1.246 1_565 S
C61 O67 1.249 . S
O62 C44 1.254 . S
O62 Zn59 2.025 1_455 S
H63 C55 0.952 . S
H64 C46 0.952 . S
H65 C54 0.948 . S
O66 Zn51 2.034 . S
O66 C61 1.246 1_545 S
O67 Zn59 2.024 1_455 S
O67 C61 1.249 . S
H68 C50 0.948 . S
O69 Zn59 2.039 1_545 S
O69 C73 1.251 . S
O70 Zn51 2.025 . S
O70 C73 1.254 1_455 S
O71 C52 1.246 . S
O71 Zn59 2.034 1_545 S
O72 Zn51 2.024 . S
O72 C52 1.249 1_455 S
C73 O69 1.251 . S
C73 O70 1.254 1_655 S
H74 C47 0.949 . S
H75 C49 0.950 . S
H76 C56 0.949 . S
H77 C58 0.950 . S
C78 O94 1.251 . S
C78 O96 1.254 . S
N79 C80 1.333 . S
N79 C84 1.307 . S
N79 Zn85 2.020 . S
C80 N79 1.333 . S
C80 C81 1.379 . S
C80 H98 0.952 1_554 S
C81 C80 1.379 . S
C81 C82 1.390 . S
C81 H108 0.949 1_554 S
C82 C81 1.390 . S
C82 C83 1.357 . S
C83 C82 1.357 . S
C83 C84 1.370 . S
C83 H109 0.950 . S
C84 N79 1.307 . S
C84 C83 1.370 . S
C84 H102 0.948 . S
Zn85 N79 2.020 . S
Zn85 O94 2.039 1_554 S
Zn85 O100 2.034 . S
Zn85 O104 2.025 . S
Zn85 O106 2.024 1_554 S
C86 O105 1.246 . S
C86 O106 1.249 . S
N87 C88 1.307 . S
N87 C89 1.333 . S
N87 Zn93 2.020 . S
C88 N87 1.307 . S
C88 C92 1.370 . S
C88 H99 0.948 . S
C89 N87 1.333 . S
C89 C90 1.379 . S
C89 H97 0.952 . S
C90 C89 1.379 . S
C90 C91 1.390 . S
C90 H110 0.949 . S
C91 C90 1.390 . S
C91 C92 1.357 . S
C92 C88 1.370 . S
C92 C91 1.357 . S
C92 H111 0.950 . S
Zn93 N87 2.020 . S
Zn93 O96 2.025 1_554 S
Zn93 O101 2.024 . S
Zn93 O103 2.039 . S
Zn93 O105 2.034 1_554 S
O94 C78 1.251 . S
O94 Zn85 2.039 1_556 S
C95 O100 1.246 . S
C95 O101 1.249 . S
O96 C78 1.254 . S
O96 Zn93 2.025 1_556 S
H97 C89 0.952 . S
H98 C80 0.952 1_556 S
H99 C88 0.948 . S
O100 Zn85 2.034 . S
O100 C95 1.246 . S
O101 Zn93 2.024 . S
O101 C95 1.249 . S
H102 C84 0.948 . S
O103 Zn93 2.039 . S
O103 C107 1.251 . S
O104 Zn85 2.025 . S
O104 C107 1.254 . S
O105 C86 1.246 . S
O105 Zn93 2.034 1_556 S
O106 Zn85 2.024 1_556 S
O106 C86 1.249 . S
C107 O103 1.251 . S
C107 O104 1.254 . S
H108 C81 0.949 1_556 S
H109 C83 0.950 . S
H110 C90 0.949 . S
H111 C92 0.950 . S
H112 C120 0.950 . S
H113 C125 0.950 . S
H114 C122 0.950 . S
H115 C124 0.950 . S
H116 C126 0.950 . S
H117 C128 0.950 . S
H118 C130 0.950 . S
H119 C131 0.950 . S
C120 H112 0.950 . S
C120 C121 1.386 . S
C120 C122 1.391 . S
C121 C120 1.386 . S
C121 C125 1.393 . S
C122 H114 0.950 . S
C122 C120 1.391 . S
C122 C123 1.400 . S
C123 C122 1.400 . S
C123 C124 1.398 . S
C123 C129 1.491 . S
C124 H115 0.950 . S
C124 C123 1.398 . S
C124 C125 1.391 . S
C125 H113 0.950 . S
C125 C121 1.393 . S
C125 C124 1.391 . S
C126 H116 0.950 . S
C126 C127 1.386 . S
C126 C128 1.391 . S
C127 C126 1.386 . S
C127 C131 1.393 . S
C128 H117 0.950 . S
C128 C126 1.391 . S
C128 C129 1.400 . S
C129 C123 1.491 . S
C129 C128 1.400 . S
C129 C130 1.398 . S
C130 H118 0.950 . S
C130 C129 1.398 . S
C130 C131 1.391 . S
C131 H119 0.950 . S
C131 C127 1.393 . S
C131 C130 1.391 . S
H132 C140 0.950 . S
H133 C145 0.950 . S
H134 C142 0.950 . S
H135 C144 0.950 . S
H136 C146 0.950 . S
H137 C148 0.950 . S
H138 C150 0.950 . S
H139 C151 0.950 . S
C140 H132 0.950 . S
C140 C141 1.386 . S
C140 C142 1.391 . S
C141 C140 1.386 . S
C141 C145 1.393 . S
C142 H134 0.950 . S
C142 C140 1.391 . S
C142 C143 1.400 . S
C143 C142 1.400 . S
C143 C144 1.398 . S
C143 C149 1.491 . S
C144 H135 0.950 . S
C144 C143 1.398 . S
C144 C145 1.391 . S
C145 H133 0.950 . S
C145 C141 1.393 . S
C145 C144 1.391 . S
C146 H136 0.950 . S
C146 C147 1.386 . S
C146 C148 1.391 . S
C147 C146 1.386 . S
C147 C151 1.393 . S
C148 H137 0.950 . S
C148 C146 1.391 . S
C148 C149 1.400 . S
C149 C143 1.491 . S
C149 C148 1.400 . S
C149 C150 1.398 . S
C150 H138 0.950 . S
C150 C149 1.398 . S
C150 C151 1.391 . S
C151 H139 0.950 . S
C151 C147 1.393 . S
C151 C150 1.391 . S
H152 C160 0.950 . S
H153 C165 0.950 . S
H154 C162 0.950 . S
H155 C164 0.950 . S
H156 C166 0.950 . S
H157 C168 0.950 . S
H158 C170 0.950 . S
H159 C171 0.950 . S
C160 H152 0.950 . S
C160 C161 1.386 . S
C160 C162 1.391 . S
C161 C160 1.386 . S
C161 C165 1.393 . S
C162 H154 0.950 . S
C162 C160 1.391 . S
C162 C163 1.400 . S
C163 C162 1.400 . S
C163 C164 1.398 . S
C163 C169 1.491 . S
C164 H155 0.950 . S
C164 C163 1.398 . S
C164 C165 1.391 . S
C165 H153 0.950 . S
C165 C161 1.393 . S
C165 C164 1.391 . S
C166 H156 0.950 . S
C166 C167 1.386 . S
C166 C168 1.391 . S
C167 C166 1.386 . S
C167 C171 1.393 . S
C168 H157 0.950 . S
C168 C166 1.391 . S
C168 C169 1.400 . S
C169 C163 1.491 . S
C169 C168 1.400 . S
C169 C170 1.398 . S
C170 H158 0.950 . S
C170 C169 1.398 . S
C170 C171 1.391 . S
C171 H159 0.950 . S
C171 C167 1.393 . S
C171 C170 1.391 . S
H172 C180 0.950 . S
H173 C185 0.950 . S
H174 C182 0.950 . S
H175 C184 0.950 . S
H176 C186 0.950 . S
H177 C188 0.950 . S
H178 C190 0.950 . S
H179 C191 0.950 . S
C180 H172 0.950 . S
C180 C181 1.386 1_556 S
C180 C182 1.391 . S
C181 C180 1.386 1_554 S
C181 C185 1.393 . S
C182 H174 0.950 . S
C182 C180 1.391 . S
C182 C183 1.400 1_556 S
C183 C182 1.400 1_554 S
C183 C184 1.398 . S
C183 C189 1.491 . S
C184 H175 0.950 . S
C184 C183 1.398 . S
C184 C185 1.391 . S
C185 H173 0.950 . S
C185 C181 1.393 . S
C185 C184 1.391 . S
C186 H176 0.950 . S
C186 C187 1.386 . S
C186 C188 1.391 . S
C187 C186 1.386 . S
C187 C191 1.393 1_554 S
C188 H177 0.950 . S
C188 C186 1.391 . S
C188 C189 1.400 . S
C189 C183 1.491 . S
C189 C188 1.400 . S
C189 C190 1.398 1_554 S
C190 H178 0.950 . S
C190 C189 1.398 1_556 S
C190 C191 1.391 . S
C191 H179 0.950 . S
C191 C187 1.393 1_556 S
C191 C190 1.391 . S
H192 C200 0.950 . S
H193 C205 0.950 . S
H194 C202 0.950 . S
H195 C204 0.950 . S
H196 C206 0.950 . S
H197 C208 0.950 . S
H198 C210 0.950 . S
H199 C211 0.950 . S
C200 H192 0.950 . S
C200 C201 1.386 . S
C200 C202 1.391 . S
C201 C200 1.386 . S
C201 C205 1.393 . S
C202 H194 0.950 . S
C202 C200 1.391 . S
C202 C203 1.400 . S
C203 C202 1.400 . S
C203 C204 1.398 . S
C203 C209 1.491 . S
C204 H195 0.950 . S
C204 C203 1.398 . S
C204 C205 1.391 . S
C205 H193 0.950 . S
C205 C201 1.393 . S
C205 C204 1.391 . S
C206 H196 0.950 . S
C206 C207 1.386 . S
C206 C208 1.391 . S
C207 C206 1.386 . S
C207 C211 1.393 . S
C208 H197 0.950 . S
C208 C206 1.391 . S
C208 C209 1.400 . S
C209 C203 1.491 . S
C209 C208 1.400 . S
C209 C210 1.398 . S
C210 H198 0.950 . S
C210 C209 1.398 . S
C210 C211 1.391 . S
C211 H199 0.950 . S
C211 C207 1.393 . S
C211 C210 1.391 . S
H212 C220 0.950 . S
H213 C225 0.950 . S
H214 C222 0.950 . S
H215 C224 0.950 . S
H216 C226 0.950 . S
H217 C228 0.950 . S
H218 C230 0.950 . S
H219 C231 0.950 . S
C220 H212 0.950 . S
C220 C221 1.386 . S
C220 C222 1.391 . S
C221 C220 1.386 . S
C221 C225 1.393 . S
C222 H214 0.950 . S
C222 C220 1.391 . S
C222 C223 1.400 . S
C223 C222 1.400 . S
C223 C224 1.398 . S
C223 C229 1.491 . S
C224 H215 0.950 . S
C224 C223 1.398 . S
C224 C225 1.391 . S
C225 H213 0.950 . S
C225 C221 1.393 . S
C225 C224 1.391 . S
C226 H216 0.950 . S
C226 C227 1.386 . S
C226 C228 1.391 . S
C227 C226 1.386 . S
C227 C231 1.393 . S
C228 H217 0.950 . S
C228 C226 1.391 . S
C228 C229 1.400 . S
C229 C223 1.491 . S
C229 C228 1.400 . S
C229 C230 1.398 . S
C230 H218 0.950 . S
C230 C229 1.398 . S
C230 C231 1.391 . S
C231 H219 0.950 . S
C231 C227 1.393 . S
C231 C230 1.391 . S
H232 C240 0.950 . S
H233 C245 0.950 . S
H234 C242 0.950 . S
H235 C244 0.950 . S
H236 C246 0.950 . S
H237 C248 0.950 . S
H238 C250 0.950 . S
H239 C251 0.950 . S
C240 H232 0.950 . S
C240 C241 1.386 . S
C240 C242 1.391 . S
C241 C240 1.386 . S
C241 C245 1.393 . S
C242 H234 0.950 . S
C242 C240 1.391 . S
C242 C243 1.400 . S
C243 C242 1.400 . S
C243 C244 1.398 . S
C243 C249 1.491 . S
C244 H235 0.950 . S
C244 C243 1.398 . S
C244 C245 1.391 . S
C245 H233 0.950 . S
C245 C241 1.393 . S
C245 C244 1.391 . S
C246 H236 0.950 . S
C246 C247 1.386 . S
C246 C248 1.391 . S
C247 C246 1.386 . S
C247 C251 1.393 . S
C248 H237 0.950 . S
C248 C246 1.391 . S
C248 C249 1.400 . S
C249 C243 1.491 . S
C249 C248 1.400 . S
C249 C250 1.398 . S
C250 H238 0.950 . S
C250 C249 1.398 . S
C250 C251 1.391 . S
C251 H239 0.950 . S
C251 C247 1.393 . S
C251 C250 1.391 . S
H252 C260 0.950 . S
H253 C265 0.950 . S
H254 C262 0.950 . S
H255 C264 0.950 . S
H256 C266 0.950 . S
H257 C268 0.950 . S
H258 C270 0.950 . S
H259 C271 0.950 . S
C260 H252 0.950 . S
C260 C261 1.386 . S
C260 C262 1.391 . S
C261 C260 1.386 . S
C261 C265 1.393 . S
C262 H254 0.950 . S
C262 C260 1.391 . S
C262 C263 1.400 . S
C263 C262 1.400 . S
C263 C264 1.398 . S
C263 C269 1.491 . S
C264 H255 0.950 . S
C264 C263 1.398 . S
C264 C265 1.391 . S
C265 H253 0.950 . S
C265 C261 1.393 . S
C265 C264 1.391 . S
C266 H256 0.950 . S
C266 C267 1.386 . S
C266 C268 1.391 . S
C267 C266 1.386 . S
C267 C271 1.393 . S
C268 H257 0.950 . S
C268 C266 1.391 . S
C268 C269 1.400 . S
C269 C263 1.491 . S
C269 C268 1.400 . S
C269 C270 1.398 . S
C270 H258 0.950 . S
C270 C269 1.398 . S
C270 C271 1.391 . S
C271 H259 0.950 . S
C271 C267 1.393 . S
C271 C270 1.391 . S
H272 C280 0.950 . S
H273 C285 0.950 . S
H274 C282 0.950 . S
H275 C284 0.950 . S
H276 C286 0.950 . S
H277 C288 0.950 . S
H278 C290 0.950 . S
H279 C291 0.950 . S
C280 H272 0.950 . S
C280 C281 1.386 . S
C280 C282 1.391 . S
C281 C280 1.386 . S
C281 C285 1.393 . S
C282 H274 0.950 . S
C282 C280 1.391 . S
C282 C283 1.400 . S
C283 C282 1.400 . S
C283 C284 1.398 . S
C283 C289 1.491 . S
C284 H275 0.950 . S
C284 C283 1.398 . S
C284 C285 1.391 . S
C285 H273 0.950 . S
C285 C281 1.393 . S
C285 C284 1.391 . S
C286 H276 0.950 . S
C286 C287 1.386 . S
C286 C288 1.391 . S
C287 C286 1.386 . S
C287 C291 1.393 . S
C288 H277 0.950 . S
C288 C286 1.391 . S
C288 C289 1.400 . S
C289 C283 1.491 . S
C289 C288 1.400 . S
C289 C290 1.398 . S
C290 H278 0.950 . S
C290 C289 1.398 . S
C290 C291 1.391 . S
C291 H279 0.950 . S
C291 C287 1.393 . S
C291 C290 1.391 . S
H292 C300 0.950 . S
H293 C305 0.950 . S
H294 C302 0.950 . S
H295 C304 0.950 . S
H296 C306 0.950 . S
H297 C308 0.950 . S
H298 C310 0.950 . S
H299 C311 0.950 . S
C300 H292 0.950 . S
C300 C301 1.386 . S
C300 C302 1.391 . S
C301 C300 1.386 . S
C301 C305 1.393 . S
C302 H294 0.950 . S
C302 C300 1.391 . S
C302 C303 1.400 . S
C303 C302 1.400 . S
C303 C304 1.398 . S
C303 C309 1.491 . S
C304 H295 0.950 . S
C304 C303 1.398 . S
C304 C305 1.391 . S
C305 H293 0.950 . S
C305 C301 1.393 . S
C305 C304 1.391 . S
C306 H296 0.950 . S
C306 C307 1.386 . S
C306 C308 1.391 . S
C307 C306 1.386 . S
C307 C311 1.393 . S
C308 H297 0.950 . S
C308 C306 1.391 . S
C308 C309 1.400 . S
C309 C303 1.491 . S
C309 C308 1.400 . S
C309 C310 1.398 . S
C310 H298 0.950 . S
C310 C309 1.398 . S
C310 C311 1.391 . S
C311 H299 0.950 . S
C311 C307 1.393 . S
C311 C310 1.391 . S
H312 C320 0.950 . S
H313 C325 0.950 . S
H314 C322 0.950 . S
H315 C324 0.950 . S
H316 C326 0.950 . S
H317 C328 0.950 . S
H318 C330 0.950 . S
H319 C331 0.950 . S
C320 H312 0.950 . S
C320 C321 1.386 . S
C320 C322 1.391 . S
C321 C320 1.386 . S
C321 C325 1.393 . S
C322 H314 0.950 . S
C322 C320 1.391 . S
C322 C323 1.400 . S
C323 C322 1.400 . S
C323 C324 1.398 . S
C323 C329 1.491 . S
C324 H315 0.950 . S
C324 C323 1.398 . S
C324 C325 1.391 . S
C325 H313 0.950 . S
C325 C321 1.393 . S
C325 C324 1.391 . S
C326 H316 0.950 . S
C326 C327 1.386 . S
C326 C328 1.391 . S
C327 C326 1.386 . S
C327 C331 1.393 . S
C328 H317 0.950 . S
C328 C326 1.391 . S
C328 C329 1.400 . S
C329 C323 1.491 . S
C329 C328 1.400 . S
C329 C330 1.398 . S
C330 H318 0.950 . S
C330 C329 1.398 . S
C330 C331 1.391 . S
C331 H319 0.950 . S
C331 C327 1.393 . S
C331 C330 1.391 . S
H332 C340 0.950 . S
H333 C345 0.950 . S
H334 C342 0.950 . S
H335 C344 0.950 . S
H336 C346 0.950 . S
H337 C348 0.950 . S
H338 C350 0.950 . S
H339 C351 0.950 . S
C340 H332 0.950 . S
C340 C341 1.386 . S
C340 C342 1.391 . S
C341 C340 1.386 . S
C341 C345 1.393 . S
C342 H334 0.950 . S
C342 C340 1.391 . S
C342 C343 1.400 . S
C343 C342 1.400 . S
C343 C344 1.398 . S
C343 C349 1.491 . S
C344 H335 0.950 . S
C344 C343 1.398 . S
C344 C345 1.391 . S
C345 H333 0.950 . S
C345 C341 1.393 . S
C345 C344 1.391 . S
C346 H336 0.950 . S
C346 C347 1.386 . S
C346 C348 1.391 . S
C347 C346 1.386 . S
C347 C351 1.393 . S
C348 H337 0.950 . S
C348 C346 1.391 . S
C348 C349 1.400 . S
C349 C343 1.491 . S
C349 C348 1.400 . S
C349 C350 1.398 . S
C350 H338 0.950 . S
C350 C349 1.398 . S
C350 C351 1.391 . S
C351 H339 0.950 . S
C351 C347 1.393 . S
C351 C350 1.391 . S
C127 C48 1.504 . S
C121 N37 1.505 . S
C141 N4 1.509 . S
C147 C91 1.509 . S
C161 N15 1.500 . S
C167 C57 1.508 . S
C181 N26 1.498 . S
C187 C82 1.506 . S
C207 C44 1.563 . S
C201 C9 1.538 . S
C227 C86 1.543 . S
C221 C17 1.542 . S
C241 C31 1.534 . S
C247 C52 1.556 . S
C261 C42 1.524 . S
C267 C78 1.543 . S
C287 C107 1.467 . S
C281 C20 1.449 . S
C307 C73 1.450 . S
C301 C28 1.444 . S
C327 C95 1.469 . S
C321 C39 1.467 . S
C341 C6 1.448 . S
C347 C61 1.451 . S
