# Generated by pormake.
# Topology zzz, (3,6)-cn, num edge types: 1
# Building blocks:
#     Node 0, Type 0, BuildingBlock: KAKCAD_clean_linker_0, # of connection points: 3
#     Node 1, Type 0, BuildingBlock: KAKCAD_clean_linker_0, # of connection points: 3
#     Node 2, Type 0, BuildingBlock: KAKCAD_clean_linker_0, # of connection points: 3
#     Node 3, Type 0, BuildingBlock: KAKCAD_clean_linker_0, # of connection points: 3
#     Node 4, Type 0, BuildingBlock: KAKCAD_clean_linker_0, # of connection points: 3
#     Node 5, Type 0, BuildingBlock: KAKCAD_clean_linker_0, # of connection points: 3
#     Node 6, Type 0, BuildingBlock: KAKCAD_clean_linker_0, # of connection points: 3
#     Node 7, Type 0, BuildingBlock: KAKCAD_clean_linker_0, # of connection points: 3
#     Node 8, Type 1, BuildingBlock: BETGAK_clean_sbu_0, # of connection points: 6
#     Node 9, Type 1, BuildingBlock: BETGAK_clean_sbu_0, # of connection points: 6
#     Node 10, Type 1, BuildingBlock: BETGAK_clean_sbu_0, # of connection points: 6
#     Node 11, Type 1, BuildingBlock: BETGAK_clean_sbu_0, # of connection points: 6
#     Edge 12, Type (0, 1), BuildingBlock: MIFKUJ_clean_linker_0, # of connection points: 2
#     Edge 13, Type (0, 1), BuildingBlock: MIFKUJ_clean_linker_0, # of connection points: 2
#     Edge 14, Type (0, 1), BuildingBlock: MIFKUJ_clean_linker_0, # of connection points: 2
#     Edge 15, Type (0, 1), BuildingBlock: MIFKUJ_clean_linker_0, # of connection points: 2
#     Edge 16, Type (0, 1), BuildingBlock: MIFKUJ_clean_linker_0, # of connection points: 2
#     Edge 17, Type (0, 1), BuildingBlock: MIFKUJ_clean_linker_0, # of connection points: 2
#     Edge 18, Type (0, 1), BuildingBlock: MIFKUJ_clean_linker_0, # of connection points: 2
#     Edge 19, Type (0, 1), BuildingBlock: MIFKUJ_clean_linker_0, # of connection points: 2
#     Edge 20, Type (0, 1), BuildingBlock: MIFKUJ_clean_linker_0, # of connection points: 2
#     Edge 21, Type (0, 1), BuildingBlock: MIFKUJ_clean_linker_0, # of connection points: 2
#     Edge 22, Type (0, 1), BuildingBlock: MIFKUJ_clean_linker_0, # of connection points: 2
#     Edge 23, Type (0, 1), BuildingBlock: MIFKUJ_clean_linker_0, # of connection points: 2
#     Edge 24, Type (0, 1), BuildingBlock: MIFKUJ_clean_linker_0, # of connection points: 2
#     Edge 25, Type (0, 1), BuildingBlock: MIFKUJ_clean_linker_0, # of connection points: 2
#     Edge 26, Type (0, 1), BuildingBlock: MIFKUJ_clean_linker_0, # of connection points: 2
#     Edge 27, Type (0, 1), BuildingBlock: MIFKUJ_clean_linker_0, # of connection points: 2
#     Edge 28, Type (0, 1), BuildingBlock: MIFKUJ_clean_linker_0, # of connection points: 2
#     Edge 29, Type (0, 1), BuildingBlock: MIFKUJ_clean_linker_0, # of connection points: 2
#     Edge 30, Type (0, 1), BuildingBlock: MIFKUJ_clean_linker_0, # of connection points: 2
#     Edge 31, Type (0, 1), BuildingBlock: MIFKUJ_clean_linker_0, # of connection points: 2
#     Edge 32, Type (0, 1), BuildingBlock: MIFKUJ_clean_linker_0, # of connection points: 2
#     Edge 33, Type (0, 1), BuildingBlock: MIFKUJ_clean_linker_0, # of connection points: 2
#     Edge 34, Type (0, 1), BuildingBlock: MIFKUJ_clean_linker_0, # of connection points: 2
#     Edge 35, Type (0, 1), BuildingBlock: MIFKUJ_clean_linker_0, # of connection points: 2
# Relax obj value: 0.415
# Max RMSD: 0.271
# Mean RMSD: 0.251
data_MOF--net-zzz--node1-BETGAK_clean_sbu_0--node2-KAKCAD_clean_linker_0--edge1-MIFKUJ_clean_linker_0
_symmetry_space_group_name_H-M    P1
_symmetry_Int_Tables_number       1
_symmetry_cell_setting            triclinic
loop_
_symmetry_equiv_pos_as_xyz
'x, y, z'
_cell_length_a     75.220731
_cell_length_b     75.29117
_cell_length_c     22.925012
_cell_angle_alpha  90.056645
_cell_angle_beta   90.030618
_cell_angle_gamma 90.056267
loop_
_atom_site_label
_atom_site_type_symbol
_atom_site_fract_x
_atom_site_fract_y
_atom_site_fract_z
_atom_type_partial_charge
C0 C 0.75354 0.53354 0.99934 0.0
C1 C 0.76201 0.51835 0.97733 0.0
C2 C 0.74688 0.5336 0.05631 0.0
C3 C 0.74913 0.51867 0.09225 0.0
C4 C 0.75766 0.50355 0.07025 0.0
C5 C 0.76392 0.50334 0.01309 0.0
C6 C 0.7419 0.51837 0.15189 0.0
C7 C 0.72363 0.51991 0.16025 0.0
C8 C 0.71609 0.5175 0.21554 0.0
C9 C 0.72728 0.51425 0.26403 0.0
C10 C 0.74594 0.51316 0.25607 0.0
C11 C 0.75297 0.51499 0.1996 0.0
C12 C 0.75866 0.51002 0.30482 0.0
C13 C 0.76085 0.52263 0.34943 0.0
C14 C 0.77094 0.496 0.30078 0.0
C15 C 0.78559 0.49509 0.33837 0.0
C16 C 0.78848 0.50829 0.38084 0.0
C17 C 0.69641 0.51661 0.21769 0.0
C18 C 0.68652 0.5318 0.20294 0.0
C19 C 0.68813 0.49992 0.21422 0.0
C20 C 0.67097 0.4983 0.19086 0.0
C21 C 0.66171 0.51335 0.17072 0.0
C22 C 0.66931 0.5302 0.18006 0.0
C23 C 0.77564 0.52183 0.38691 0.0
H24 H 0.75213 0.5453 0.97256 0.0
H25 H 0.74021 0.54534 0.07265 0.0
H26 H 0.75934 0.49185 0.09718 0.0
H27 H 0.77072 0.49161 0.99731 0.0
H28 H 0.71508 0.52195 0.12268 0.0
H29 H 0.7672 0.51388 0.19266 0.0
H30 H 0.72157 0.51226 0.3069 0.0
H31 H 0.75173 0.5337 0.35308 0.0
H32 H 0.76968 0.48618 0.26643 0.0
H33 H 0.79518 0.48457 0.33184 0.0
H34 H 0.69276 0.54477 0.20382 0.0
H35 H 0.69558 0.48798 0.224 0.0
H36 H 0.7773 0.53209 0.41957 0.0
H37 H 0.66266 0.54207 0.1648 0.0
H38 H 0.66541 0.48514 0.185 0.0
C39 C 0.03596 0.75455 0.01947 0.0
C40 C 0.04973 0.76694 0.02739 0.0
C41 C 0.02765 0.74677 0.06752 0.0
C42 C 0.03301 0.75111 0.12458 0.0
C43 C 0.0474 0.76278 0.13236 0.0
C44 C 0.05563 0.77065 0.08435 0.0
C45 C 0.02306 0.74415 0.17565 0.0
C46 C 0.01681 0.72666 0.17598 0.0
C47 C 0.00664 0.72014 0.22248 0.0
C48 C 1.00264 0.7314 0.27011 0.0
C49 C 0.00927 0.74901 0.27099 0.0
C50 C 0.01931 0.75516 0.22342 0.0
C51 C 0.00609 0.76162 0.32005 0.0
C52 C 0.98889 0.76763 0.33335 0.0
C53 C 0.02067 0.77011 0.34649 0.0
C54 C 0.01825 0.78484 0.38289 0.0
C55 C 1.00114 0.79162 0.3937 0.0
C56 C 1.00093 0.70132 0.21854 0.0
C57 C 0.98519 0.69702 0.18869 0.0
C58 C 0.01364 0.68796 0.22762 0.0
C59 C 0.01132 0.67103 0.20339 0.0
C60 C 0.99625 0.66709 0.16935 0.0
C61 C 0.9828 0.68002 0.16465 0.0
C62 C 0.98644 0.78252 0.36965 0.0
H63 H 0.0312 0.75131 0.97614 0.0
H64 H 0.01654 0.73791 0.05992 0.0
H65 H 0.05206 0.76617 0.17569 0.0
H66 H 0.06603 0.78033 0.09214 0.0
H67 H 0.01996 0.7179 0.13981 0.0
H68 H 0.02382 0.76885 0.22308 0.0
H69 H 0.99484 0.72645 0.30632 0.0
H70 H 0.97742 0.7615 0.31301 0.0
H71 H 0.0341 0.76586 0.33656 0.0
H72 H 0.02992 0.7915 0.39987 0.0
H73 H 0.97544 0.70723 0.17962 0.0
H74 H 0.02608 0.69106 0.24924 0.0
H75 H 0.97304 0.78719 0.37755 0.0
H76 H 0.9711 0.67749 0.13838 0.0
H77 H 0.02184 0.66133 0.20843 0.0
C78 C 0.75763 0.99697 0.01183 0.0
C79 C 0.74419 0.00912 0.99731 0.0
C80 C 0.76446 0.99647 0.06843 0.0
C81 C 0.75799 0.00811 0.11149 0.0
C82 C 0.74523 0.02084 0.09617 0.0
C83 C 0.73839 0.02133 0.03975 0.0
C84 C 0.76418 0.00665 0.17257 0.0
C85 C 0.78214 1.00399 0.18427 0.0
C86 C 0.78833 1.00198 0.24143 0.0
C87 C 0.77615 1.00273 0.28853 0.0
C88 C 0.75786 0.00584 0.27723 0.0
C89 C 0.75215 0.00762 0.21907 0.0
C90 C 0.74404 0.00735 0.32378 0.0
C91 C 0.74025 0.99316 0.36168 0.0
C92 C 0.73232 0.02191 0.32281 0.0
C93 C 0.71663 0.02179 0.35551 0.0
C94 C 0.71214 0.00712 0.39044 0.0
C95 C 0.80774 0.99916 0.24722 0.0
C96 C 0.81448 0.98222 0.23421 0.0
C97 C 0.81903 0.01392 0.24073 0.0
C98 C 0.83591 0.01202 0.21547 0.0
C99 C 0.84181 0.9953 0.1959 0.0
C100 C 0.83133 0.9803 0.20883 0.0
C101 C 0.72447 0.99307 0.39486 0.0
H102 H 0.76235 0.98741 0.9801 0.0
H103 H 0.77427 0.98646 0.07906 0.0
H104 H 0.74021 0.03015 0.1282 0.0
H105 H 0.72778 0.03062 0.03055 0.0
H106 H 0.79154 1.00357 0.14837 0.0
H107 H 0.73812 0.00939 0.2099 0.0
H108 H 0.78084 1.00123 0.33292 0.0
H109 H 0.74889 0.98167 0.36284 0.0
H110 H 0.73487 0.03307 0.29419 0.0
H111 H 0.7077 0.03302 0.352 0.0
H112 H 0.80594 0.97066 0.23742 0.0
H113 H 0.814 0.02718 0.24879 0.0
H114 H 0.72145 0.98156 0.42138 0.0
H115 H 0.83559 0.96718 0.19542 0.0
H116 H 0.84355 0.02388 0.2062 0.0
C117 C 0.50608 0.73569 0.38579 0.0
C118 C 0.51744 0.72113 0.37521 0.0
C119 C 0.50576 0.75036 0.34777 0.0
C120 C 0.51677 0.75079 0.29832 0.0
C121 C 0.52876 0.73675 0.28949 0.0
C122 C 0.52916 0.72218 0.32743 0.0
C123 C 0.51297 0.76318 0.24923 0.0
C124 C 0.5163 0.78169 0.25146 0.0
C125 C 0.51228 0.79244 0.20251 0.0
C126 C 0.50497 0.78461 0.15244 0.0
C127 C 0.50161 0.76637 0.14987 0.0
C128 C 0.50564 0.7558 0.19837 0.0
C129 C 0.49385 0.75833 0.09654 0.0
C130 C 0.47988 0.76676 0.0666 0.0
C131 C 0.50012 0.74193 0.076 0.0
C132 C 0.49216 0.73379 0.02803 0.0
C133 C 0.47781 0.7419 0.99908 0.0
C134 C 0.51567 0.81185 0.19973 0.0
C135 C 0.5011 0.82345 0.19605 0.0
C136 C 0.53251 0.81808 0.18299 0.0
C137 C 0.53449 0.83515 0.15912 0.0
C138 C 0.51964 0.84632 0.15117 0.0
C139 C 0.50305 0.84048 0.17231 0.0
C140 C 0.47194 0.75863 0.01832 0.0
H141 H 0.49701 0.73551 0.42245 0.0
H142 H 0.49612 0.76082 0.35499 0.0
H143 H 0.53714 0.73655 0.25104 0.0
H144 H 0.53795 0.71124 0.31708 0.0
H145 H 0.52201 0.7876 0.29031 0.0
H146 H 0.50275 0.74169 0.19709 0.0
H147 H 0.50221 0.79281 0.11463 0.0
H148 H 0.4747 0.77938 0.08156 0.0
H149 H 0.51104 0.73524 0.09752 0.0
H150 H 0.49685 0.72077 0.01518 0.0
H151 H 0.48789 0.81879 0.20711 0.0
H152 H 0.54388 0.80926 0.18402 0.0
H153 H 0.461 0.76527 0.99678 0.0
H154 H 0.49125 0.84851 0.16652 0.0
H155 H 0.54753 0.83925 0.1443 0.0
C156 C 0.24998 0.54852 0.28984 0.0
C157 C 0.23858 0.53784 0.32331 0.0
C158 C 0.25773 0.54173 0.23907 0.0
C159 C 0.25374 0.52441 0.22056 0.0
C160 C 0.2425 0.51371 0.25423 0.0
C161 C 0.2351 0.52032 0.30552 0.0
C162 C 0.26139 0.51727 0.16641 0.0
C163 C 0.27967 0.5146 0.16233 0.0
C164 C 0.28711 0.50633 0.11326 0.0
C165 C 0.27591 0.50115 0.06652 0.0
C166 C 0.2574 0.50441 0.06984 0.0
C167 C 0.25033 0.5122 0.12033 0.0
C168 C 0.2447 0.5 0.02236 0.0
C169 C 0.2401 0.51305 0.98132 0.0
C170 C 0.23391 0.48486 0.02734 0.0
C171 C 0.21834 0.48321 0.99404 0.0
C172 C 0.21305 0.49678 0.95542 0.0
C173 C 0.30645 0.50252 0.11578 0.0
C174 C 0.3184 0.51674 0.12249 0.0
C175 C 0.3123 0.48529 0.12906 0.0
C176 C 0.32921 0.48256 0.15344 0.0
C177 C 0.3406 0.49703 0.16513 0.0
C178 C 0.33527 0.51404 0.14667 0.0
C179 C 0.2245 0.51143 0.94802 0.0
H180 H 0.25268 0.56211 0.30262 0.0
H181 H 0.26647 0.55011 0.2135 0.0
H182 H 0.2394 0.50026 0.2407 0.0
H183 H 0.22611 0.51195 0.33018 0.0
H184 H 0.28809 0.51827 0.19888 0.0
H185 H 0.23611 0.5144 0.12372 0.0
H186 H 0.28149 0.49474 0.02838 0.0
H187 H 0.24792 0.5251 0.97792 0.0
H188 H 0.23694 0.47482 0.05964 0.0
H189 H 0.21009 0.47157 1.00027 0.0
H190 H 0.31408 0.53021 0.11373 0.0
H191 H 0.30325 0.47414 0.12539 0.0
H192 H 0.22087 0.52225 0.91929 0.0
H193 H 0.34351 0.52555 0.15525 0.0
H194 H 0.33296 0.46923 0.1661 0.0
C195 C 0.04819 0.25384 0.29693 0.0
C196 C 0.05789 0.23818 0.28715 0.0
C197 C 0.04288 0.26442 0.25015 0.0
C198 C 0.0476 0.25983 0.19264 0.0
C199 C 0.05951 0.2457 0.18406 0.0
C200 C 0.06445 0.23486 0.23068 0.0
C201 C 0.03788 0.26778 0.14241 0.0
C202 C 0.03172 0.28531 0.14489 0.0
C203 C 0.01922 0.29164 0.10459 0.0
C204 C 0.01332 0.28044 0.05896 0.0
C205 C 0.02042 0.26314 0.05354 0.0
C206 C 0.03247 0.257 0.09564 0.0
C207 C 0.01497 0.25037 0.00729 0.0
C208 C 0.99829 0.242 0.00961 0.0
C209 C 0.02796 0.24347 0.96952 0.0
C210 C 0.02473 0.22802 0.93713 0.0
C211 C 0.00846 0.21889 0.94211 0.0
C212 C 0.01151 0.30937 0.11678 0.0
C213 C 0.99657 0.31048 0.15327 0.0
C214 C 0.02191 0.32465 0.10801 0.0
C215 C 0.01814 0.34042 0.13823 0.0
C216 C 1.00411 0.34106 0.17874 0.0
C217 C 0.99294 0.32615 0.18408 0.0
C218 C 0.99507 0.22642 0.97743 0.0
H219 H 0.04342 0.25715 0.34015 0.0
H220 H 0.03381 0.27523 0.25902 0.0
H221 H 0.06398 0.24217 0.14067 0.0
H222 H 0.07207 0.22302 0.22114 0.0
H223 H 0.03594 0.2939 0.18029 0.0
H224 H 0.03676 0.24327 0.09352 0.0
H225 H 1.0034 0.2851 0.02832 0.0
H226 H 0.98817 0.24682 0.03927 0.0
H227 H 0.04106 0.24945 0.96787 0.0
H228 H 0.03545 0.22261 0.91109 0.0
H229 H 0.98864 0.29876 0.16196 0.0
H230 H 0.03379 0.32397 0.08142 0.0
H231 H 0.9823 0.21991 0.98184 0.0
H232 H 0.98195 0.32627 0.21462 0.0
H233 H 0.02706 0.35162 0.13343 0.0
C234 C 0.25457 0.98372 0.32266 0.0
C235 C 0.2723 0.98869 0.33189 0.0
C236 C 0.24526 0.99029 0.27451 0.0
C237 C 0.2535 1.00209 0.23528 0.0
C238 C 0.27099 0.0077 0.24657 0.0
C239 C 0.28033 1.00098 0.29417 0.0
C240 C 0.24419 0.00803 0.18163 0.0
C241 C 0.22604 0.01203 0.18292 0.0
C242 C 0.21698 0.01722 0.13231 0.0
C243 C 0.22641 0.01885 0.07915 0.0
C244 C 0.24478 0.01481 0.07737 0.0
C245 C 0.25338 0.00936 0.12863 0.0
C246 C 0.2558 0.01594 0.02359 0.0
C247 C 0.26314 1.00033 1.0001 0.0
C248 C 0.26256 0.03238 0.00507 0.0
C249 C 0.27705 0.03316 0.96643 0.0
C250 C 0.28513 0.01749 0.94546 0.0
C251 C 0.19758 0.02026 0.1383 0.0
C252 C 0.18618 0.0055 0.14131 0.0
C253 C 0.19146 0.03669 0.15908 0.0
C254 C 0.17476 0.03807 0.18601 0.0
C255 C 0.16388 0.02297 0.1934 0.0
C256 C 0.1695 0.00684 0.1683 0.0
C257 C 0.27753 1.00109 0.9613 0.0
H258 H 0.2482 0.97415 0.35107 0.0
H259 H 0.23186 0.98557 0.26683 0.0
H260 H 0.27758 0.01711 0.21812 0.0
H261 H 0.29398 1.00512 0.30097 0.0
H262 H 0.21881 0.01114 0.22375 0.0
H263 H 0.26738 0.00595 0.12685 0.0
H264 H 0.21954 0.0229 0.03982 0.0
H265 H 0.25847 0.98747 0.01477 0.0
H266 H 0.25743 0.0446 0.02349 0.0
H267 H 0.28235 0.04604 0.95468 0.0
H268 H 0.1908 0.99256 0.12724 0.0
H269 H 0.20015 0.04817 0.15864 0.0
H270 H 0.28341 0.98873 0.94679 0.0
H271 H 0.16167 0.99487 0.17344 0.0
H272 H 0.17079 0.05079 0.20376 0.0
C273 C 0.49134 0.28848 0.96849 0.0
C274 C 0.50648 0.29699 0.94523 0.0
C275 C 0.49304 0.27338 0.00408 0.0
C276 C 0.50991 0.26654 0.01758 0.0
C277 C 0.52494 0.27447 0.99204 0.0
C278 C 0.52325 0.2894 0.956 0.0
C279 C 0.51226 0.25398 0.06712 0.0
C280 C 0.50581 0.23628 0.06649 0.0
C281 C 0.50838 0.22528 0.11581 0.0
C282 C 0.51671 0.23222 0.16549 0.0
C283 C 0.52285 0.2497 0.16681 0.0
C284 C 0.52086 0.2604 0.11733 0.0
C285 C 0.53042 0.25706 0.22119 0.0
C286 C 0.52114 0.25515 0.274 0.0
C287 C 0.54641 0.26667 0.22037 0.0
C288 C 0.55267 0.27482 0.27114 0.0
C289 C 0.54288 0.27368 0.32314 0.0
C290 C 0.50305 0.20634 0.11876 0.0
C291 C 0.4863 0.20178 0.1414 0.0
C292 C 0.51648 0.19339 0.118 0.0
C293 C 0.51375 0.17679 0.1439 0.0
C294 C 0.49748 0.17272 0.17102 0.0
C295 C 0.48348 0.18505 0.16689 0.0
C296 C 0.52725 0.26351 0.32448 0.0
H297 H 0.4782 0.29384 0.96063 0.0
H298 H 0.48127 0.26774 0.02399 0.0
H299 H 0.53813 0.26965 1.00251 0.0
H300 H 0.53521 0.29562 0.93942 0.0
H301 H 0.49919 0.2311 0.0281 0.0
H302 H 0.5254 0.27408 0.11868 0.0
H303 H 0.51848 0.22386 0.20361 0.0
H304 H 0.50872 0.24786 0.27563 0.0
H305 H 0.55384 0.2682 0.1802 0.0
H306 H 0.56462 0.28285 0.269 0.0
H307 H 0.4759 0.2117 0.14411 0.0
H308 H 0.52964 0.19672 0.10215 0.0
H309 H 0.51944 0.2626 0.36406 0.0
H310 H 0.47083 0.18235 0.18761 0.0
H311 H 0.52473 0.16751 0.14582 0.0
La312 La 0.01127 0.99838 0.73227 0.0
La313 La 0.98813 0.00893 0.6357 0.0
C314 C 0.02454 0.98199 0.81687 0.0
C315 C 0.03306 0.96433 0.81913 0.0
C316 C 0.04939 0.9611 0.79107 0.0
C317 C 0.0562 0.94387 0.78759 0.0
C318 C 0.04674 0.92956 0.81158 0.0
C319 C 0.03068 0.93286 0.8409 0.0
C320 C 0.02396 0.95008 0.84489 0.0
C321 C 0.02884 0.00939 0.63914 0.0
C322 C 0.99656 0.96862 0.64269 0.0
C323 C 0.97673 0.02493 0.54724 0.0
C324 C 0.98437 0.04074 0.51959 0.0
C325 C 0.97372 0.05263 0.48828 0.0
C326 C 0.9811 0.06834 0.46629 0.0
C327 C 0.9992 0.07227 0.4755 0.0
C328 C 0.00978 0.06014 0.50634 0.0
C329 C 1.00244 0.04457 0.52817 0.0
C330 C 0.97072 0.9984 0.73003 0.0
C331 C 1.0033 0.038 0.7232 0.0
O332 O 0.033 0.99443 0.78816 0.0
O333 O 0.00751 0.98187 0.80484 0.0
O334 O 0.03385 0.0121 0.69246 0.0
O335 O 0.015 0.99991 0.63948 0.0
O336 O 1.00535 0.97248 0.69122 0.0
O337 O 0.98901 0.98114 0.61104 0.0
O338 O 0.97034 0.02747 0.59963 0.0
O339 O 0.98675 0.01076 0.54464 0.0
O340 O 0.96525 0.99585 0.67702 0.0
O341 O 0.98462 0.00767 0.72827 0.0
O342 O 0.99995 0.0341 0.6679 0.0
O343 O 1.0053 0.02514 0.76166 0.0
H344 H 0.05673 0.97177 0.7705 0.0
H345 H 0.06862 0.94167 0.76484 0.0
H346 H 0.02329 0.9221 0.86084 0.0
H347 H 0.01138 0.95219 0.86685 0.0
H348 H 0.95972 0.04992 0.48173 0.0
H349 H 0.97265 0.07744 0.44247 0.0
H350 H 0.02365 0.06293 0.51535 0.0
H351 H 0.01084 0.03569 0.55297 0.0
La352 La 0.50321 0.02246 0.71355 0.0
La353 La 0.49401 0.99795 0.61898 0.0
C354 C 0.51876 0.03471 0.80131 0.0
C355 C 0.53642 0.02949 0.82206 0.0
C356 C 0.54848 0.04235 0.84165 0.0
C357 C 0.56627 0.03781 0.85076 0.0
C358 C 0.5722 0.02039 0.83979 0.0
C359 C 0.55992 0.00744 0.82216 0.0
C360 C 0.5422 0.01192 0.81361 0.0
C361 C 0.4923 0.03869 0.61807 0.0
C362 C 0.53364 0.00758 0.62819 0.0
C363 C 0.47865 0.98271 0.53549 0.0
C364 C 0.4603 0.97594 0.53159 0.0
C365 C 0.45723 0.95781 0.52104 0.0
C366 C 0.44013 0.9507 0.52702 0.0
C367 C 0.42599 0.96164 0.54438 0.0
C368 C 0.42891 0.97987 0.55229 0.0
C369 C 0.44588 0.98698 0.54584 0.0
C370 C 0.5057 0.9822 0.71447 0.0
C371 C 0.46322 0.01311 0.70482 0.0
O372 O 0.51872 0.04275 0.75075 0.0
O373 O 0.50659 0.02231 0.80431 0.0
O374 O 0.48928 0.04426 0.67074 0.0
O375 O 0.5021 0.02509 0.62039 0.0
O376 O 0.52937 0.01317 0.68123 0.0
O377 O 0.52112 1.00292 0.59077 0.0
O378 O 0.48875 0.9744 0.57295 0.0
O379 O 0.48052 0.99999 0.53912 0.0
O380 O 0.50921 0.97693 0.66195 0.0
O381 O 0.49529 0.9953 0.71187 0.0
O382 O 0.46764 1.00403 0.6573 0.0
O383 O 0.47536 0.02116 0.73684 0.0
H384 H 0.54431 0.05601 0.8474 0.0
H385 H 0.57553 0.04811 0.86375 0.0
H386 H 0.56408 0.99391 0.81375 0.0
H387 H 0.5332 1.00178 0.79778 0.0
H388 H 0.46816 0.94905 0.51016 0.0
H389 H 0.43804 0.93663 0.51982 0.0
H390 H 0.41806 0.98861 0.5642 0.0
H391 H 0.44775 1.00102 0.5542 0.0
La392 La 0.48998 0.51459 0.71208 0.0
La393 La 0.51401 0.5035 0.60907 0.0
C394 C 0.47612 0.52946 0.79926 0.0
C395 C 0.46686 0.54638 0.8073 0.0
C396 C 0.46373 0.55753 0.75946 0.0
C397 C 0.45593 0.57415 0.76757 0.0
C398 C 0.45087 0.57977 0.82365 0.0
C399 C 0.45338 0.56818 0.87115 0.0
C400 C 0.46142 0.55164 0.86301 0.0
C401 C 0.47352 0.50378 0.6167 0.0
C402 C 0.5057 0.54428 0.62361 0.0
C403 C 0.52302 0.48908 0.51563 0.0
C404 C 0.53131 0.47148 0.50819 0.0
C405 C 0.54825 0.46991 0.48296 0.0
C406 C 0.55722 0.45362 0.48421 0.0
C407 C 0.54946 0.43887 0.51173 0.0
C408 C 0.53235 0.44031 0.5352 0.0
C409 C 0.5233 0.45638 0.53304 0.0
C410 C 0.53315 0.50592 0.70675 0.0
C411 C 0.5015 0.47484 0.70359 0.0
O412 O 0.46785 0.51787 0.76652 0.0
O413 O 0.49301 0.53069 0.78616 0.0
O414 O 0.46792 0.50093 0.66927 0.0
O415 O 0.48741 0.51316 0.619 0.0
O416 O 0.49551 0.54032 0.66929 0.0
O417 O 0.51417 0.53201 0.5928 0.0
O418 O 0.53293 0.50099 0.54213 0.0
O419 O 0.50659 0.489 0.53505 0.0
O420 O 0.53954 0.50141 0.65641 0.0
O421 O 0.51687 0.50876 0.69909 0.0
O422 O 0.50612 0.47806 0.64871 0.0
O423 O 0.497 0.4878 0.73988 0.0
H424 H 0.46758 0.55354 0.71596 0.0
H425 H 0.45446 0.58279 0.73015 0.0
H426 H 0.44937 0.57199 0.91476 0.0
H427 H 0.46359 0.54307 0.90028 0.0
H428 H 0.5547 0.48136 0.46375 0.0
H429 H 0.57033 0.45262 0.4649 0.0
H430 H 0.52593 0.42893 0.5551 0.0
H431 H 0.5102 0.45702 0.55244 0.0
La432 La 0.99366 0.49044 0.72673 0.0
La433 La 0.00597 0.51454 0.62503 0.0
C434 C 0.97586 0.47806 0.80945 0.0
C435 C 0.95653 0.47516 0.81079 0.0
C436 C 0.94788 0.4676 0.76234 0.0
C437 C 0.92954 0.4692 0.7559 0.0
C438 C 0.91951 0.47847 0.79753 0.0
C439 C 0.92799 0.48464 0.84848 0.0
C440 C 0.94638 0.48304 0.85493 0.0
C441 C 1.00467 0.47394 0.63176 0.0
C442 C 0.96498 0.50655 0.63506 0.0
C443 C 0.02177 0.52443 0.535 0.0
C444 C 0.03879 0.5339 0.5333 0.0
C445 C 0.04628 0.53985 0.58596 0.0
C446 C 0.06368 0.54615 0.58761 0.0
C447 C 0.07386 0.54672 0.53649 0.0
C448 C 0.06606 0.54165 0.48314 0.0
C449 C 0.04862 0.53513 0.48164 0.0
C450 C 1.0023 0.5335 0.72264 0.0
C451 C 0.03381 0.50022 0.72084 0.0
O452 O 0.98487 0.46809 0.77317 0.0
O453 O 0.98058 0.49479 0.80628 0.0
O454 O 0.00711 0.46823 0.68463 0.0
O455 O 0.99573 0.48813 0.63364 0.0
O456 O 0.96839 0.49715 0.68288 0.0
O457 O 0.97769 0.51413 0.60358 0.0
O458 O 0.00848 0.53332 0.55795 0.0
O459 O 0.02298 0.50823 0.55579 0.0
O460 O 0.0074 0.54 0.67322 0.0
O461 O 0.99962 0.51727 0.71398 0.0
O462 O 0.03086 0.5057 0.66662 0.0
O463 O 0.02069 0.49544 0.75607 0.0
H464 H 0.95538 0.46154 0.72725 0.0
H465 H 0.92344 0.46421 0.71633 0.0
H466 H 0.92053 0.49136 0.88231 0.0
H467 H 0.95278 0.48897 0.89257 0.0
H468 H 0.03898 0.53886 0.62645 0.0
H469 H 0.06937 0.55002 0.62917 0.0
H470 H 0.07376 0.5418 0.44322 0.0
H471 H 0.04311 0.5304 0.44081 0.0
H472 H 0.13165 0.00564 0.18068 0.0
H473 H 0.1071 1.0042 0.25075 0.0
H474 H 0.13526 0.03998 0.36508 0.0
H475 H 0.15999 0.04106 0.29649 0.0
H476 H 0.12348 0.01211 0.42426 0.0
H477 H 0.0978 0.05305 0.28642 0.0
H478 H 0.08771 0.06311 0.18956 0.0
H479 H 0.0518 0.01885 0.17892 0.0
H480 H 0.06182 0.00842 0.2755 0.0
H481 H 0.05822 0.03031 0.63371 0.0
H482 H 0.07905 0.03368 0.55273 0.0
H483 H 0.04708 0.99835 0.44784 0.0
H484 H 0.02583 0.99536 0.52873 0.0
H485 H 0.06006 0.02453 0.38129 0.0
H486 H 0.08504 0.98365 0.51799 0.0
H487 H 0.09477 0.97312 0.61469 0.0
H488 H 0.13212 0.01615 0.62608 0.0
H489 H 0.12243 0.0271 0.52978 0.0
C490 C 0.1326 0.01328 0.22059 0.0
C491 C 0.14789 0.02352 0.23252 0.0
C492 C 0.11845 0.01255 0.26052 0.0
C493 C 0.11921 0.02206 0.31333 0.0
C494 C 0.13428 0.03254 0.32473 0.0
C495 C 0.14838 0.03329 0.28495 0.0
C496 C 0.10487 0.0204 0.35832 0.0
C497 C 0.10966 0.01508 0.4149 0.0
C498 C 0.08668 0.02363 0.34601 0.0
C499 C 0.0807 0.02985 0.2879 0.0
C500 C 0.08786 0.04538 0.26321 0.0
C501 C 0.08213 0.05117 0.20841 0.0
C502 C 0.06917 0.0416 0.17802 0.0
C503 C 0.06187 0.02624 0.20246 0.0
C504 C 0.06755 0.02039 0.25725 0.0
C505 C 0.05555 0.02335 0.59326 0.0
C506 C 0.04052 0.01238 0.58788 0.0
C507 C 0.06752 0.02523 0.54696 0.0
C508 C 0.06495 0.01593 0.49438 0.0
C509 C 0.04948 0.00557 0.48797 0.0
C510 C 0.03737 1.00382 0.53428 0.0
C511 C 0.07877 0.01657 0.4474 0.0
C512 C 0.07389 0.02158 0.39053 0.0
C513 C 0.09691 0.01293 0.4592 0.0
C514 C 0.1029 0.00628 0.51688 0.0
C515 C 0.09525 0.99093 0.54128 0.0
C516 C 0.10077 0.98488 0.596 0.0
C517 C 0.11403 0.99398 0.62656 0.0
C518 C 0.12184 0.00912 0.60238 0.0
C519 C 0.11635 0.01525 0.54771 0.0
H520 H 0.11828 0.98928 0.66893 0.0
H521 H 0.06475 0.0461 0.13561 0.0
H522 H 0.52067 0.16209 0.2551 0.0
H523 H 0.51799 0.13723 0.32242 0.0
H524 H 0.46828 0.12224 0.24203 0.0
H525 H 0.47062 0.1478 0.17587 0.0
H526 H 0.46448 0.11831 0.35057 0.0
H527 H 0.50935 0.09834 0.22135 0.0
H528 H 0.537 0.09956 0.16374 0.0
H529 H 0.56761 0.10458 0.32105 0.0
H530 H 0.54013 0.10363 0.3796 0.0
H531 H 0.50118 0.03108 0.5047 0.0
H532 H 0.49966 0.05097 0.42012 0.0
H533 H 0.47876 0.09255 0.53011 0.0
H534 H 0.47954 0.07253 0.61366 0.0
H535 H 0.51593 0.07935 0.39417 0.0
H536 H 0.45391 0.12173 0.45794 0.0
H537 H 0.42488 0.11743 0.50593 0.0
H538 H 0.42591 0.06202 0.46163 0.0
H539 H 0.45481 0.06602 0.41266 0.0
C540 C 0.50927 0.15337 0.25118 0.0
C541 C 0.49598 0.15679 0.2095 0.0
C542 C 0.50776 0.13906 0.28972 0.0
C543 C 0.49313 0.12744 0.28684 0.0
C544 C 0.47977 0.13088 0.24527 0.0
C545 C 0.48112 0.14546 0.20727 0.0
C546 C 0.49163 0.11217 0.32853 0.0
C547 C 0.47573 0.10976 0.35979 0.0
C548 C 0.50606 0.10052 0.33983 0.0
C549 C 0.52265 0.10103 0.30484 0.0
C550 C 0.52197 0.09981 0.24365 0.0
C551 C 0.53762 0.10045 0.21083 0.0
C552 C 0.55405 0.10218 0.23871 0.0
C553 C 0.55487 0.10324 0.29951 0.0
C554 C 0.53926 0.10264 0.33254 0.0
C555 C 0.49599 0.04438 0.5105 0.0
C556 C 0.4904 0.05019 0.56581 0.0
C557 C 0.49522 0.0558 0.46217 0.0
C558 C 0.4889 0.07331 0.46814 0.0
C559 C 0.48327 0.07904 0.52355 0.0
C560 C 0.48383 0.06758 0.57158 0.0
C561 C 0.48898 0.08588 0.41745 0.0
C562 C 0.50462 0.08779 0.38456 0.0
C563 C 0.47412 0.09664 0.40326 0.0
C564 C 0.45661 0.09416 0.43203 0.0
C565 C 0.4479 0.10864 0.45817 0.0
C566 C 0.43148 0.10625 0.48561 0.0
C567 C 0.42358 0.08945 0.48697 0.0
C568 C 0.43207 0.07501 0.46072 0.0
C569 C 0.44848 0.07733 0.43318 0.0
H570 H 0.41088 0.08763 0.50828 0.0
H571 H 0.56615 0.10267 0.21322 0.0
H572 H 0.3446 0.47582 0.2614 0.0
H573 H 0.36923 0.47527 0.33054 0.0
H574 H 0.39763 0.51354 0.22636 0.0
H575 H 0.37318 0.51377 0.1556 0.0
H576 H 0.42036 0.48845 0.27376 0.0
H577 H 0.37427 0.52734 0.34181 0.0
H578 H 0.34358 0.53556 0.36826 0.0
H579 H 0.34285 0.49491 0.49949 0.0
H580 H 0.37345 0.48627 0.47321 0.0
H581 H 0.47774 0.5179 0.50695 0.0
H582 H 0.45715 0.51538 0.42416 0.0
H583 H 0.42356 0.48065 0.5255 0.0
H584 H 0.44381 0.48351 0.60831 0.0
H585 H 0.40404 0.50487 0.47638 0.0
H586 H 0.45028 0.46593 0.40921 0.0
H587 H 0.48105 0.45785 0.38347 0.0
H588 H 0.4818 0.49834 0.25172 0.0
H589 H 0.45111 0.50686 0.27734 0.0
C590 C 0.35624 0.48378 0.25207 0.0
C591 C 0.35677 0.49491 0.20272 0.0
C592 C 0.37029 0.48359 0.29217 0.0
C593 C 0.38519 0.4946 0.28435 0.0
C594 C 0.38624 0.505 0.23363 0.0
C595 C 0.37217 0.50521 0.19337 0.0
C596 C 0.399 0.49607 0.331 0.0
C597 C 0.41684 0.49222 0.31794 0.0
C598 C 0.39444 0.50079 0.38893 0.0
C599 C 0.37609 0.50605 0.40516 0.0
C600 C 0.36752 0.52007 0.37602 0.0
C601 C 0.35015 0.52482 0.39102 0.0
C602 C 0.34126 0.51574 0.43543 0.0
C603 C 0.34974 0.50192 0.46505 0.0
C604 C 0.3671 0.4971 0.45014 0.0
C605 C 0.46606 0.50956 0.51116 0.0
C606 C 0.46235 0.50094 0.56415 0.0
C607 C 0.4543 0.50808 0.46376 0.0
C608 C 0.43874 0.49775 0.46823 0.0
C609 C 0.43537 0.48877 0.52079 0.0
C610 C 0.44701 0.49036 0.56812 0.0
C611 C 0.42545 0.49691 0.4197 0.0
C612 C 0.40764 0.50101 0.43233 0.0
C613 C 0.43009 0.49241 0.36157 0.0
C614 C 0.44845 0.48715 0.3456 0.0
C615 C 0.45705 0.4732 0.37503 0.0
C616 C 0.47447 0.46853 0.36043 0.0
C617 C 0.48339 0.4776 0.31609 0.0
C618 C 0.47488 0.49134 0.28612 0.0
C619 C 0.45747 0.49609 0.30064 0.0
H620 H 0.49688 0.47397 0.30486 0.0
H621 H 0.32781 0.51943 0.44698 0.0
H622 H 1.00099 0.33938 0.29677 0.0
H623 H 1.00047 0.36371 0.3668 0.0
H624 H 1.00322 0.40156 0.22582 0.0
H625 H 1.00457 0.37697 0.15535 0.0
H626 H 0.02334 0.41299 0.30693 0.0
H627 H 0.96357 0.39318 0.30886 0.0
H628 H 0.93858 0.37202 0.31404 0.0
H629 H 0.95411 0.35726 0.48759 0.0
H630 H 0.97935 0.37815 0.48318 0.0
H631 H 0.99772 0.48209 0.51713 0.0
H632 H 0.9973 0.46155 0.43348 0.0
H633 H 0.01283 0.41857 0.54651 0.0
H634 H 0.0138 0.43899 0.62946 0.0
H635 H 0.98107 0.41259 0.47292 0.0
H636 H 0.04247 0.43282 0.46266 0.0
H637 H 0.06551 0.456 0.45432 0.0
H638 H 0.04352 0.47268 0.29042 0.0
H639 H 0.02017 0.44975 0.29825 0.0
C640 C 1.00122 0.35288 0.28054 0.0
C641 C 1.00254 0.35623 0.22037 0.0
C642 C 1.00088 0.36686 0.32074 0.0
C643 C 1.00136 0.38464 0.30197 0.0
C644 C 1.00274 0.38803 0.24173 0.0
C645 C 1.00343 0.37398 0.20139 0.0
C646 C 1.00094 0.39949 0.34559 0.0
C647 C 0.01385 0.41301 0.34252 0.0
C648 C 0.98863 0.39972 0.39251 0.0
C649 C 0.97344 0.38715 0.39549 0.0
C650 C 0.96173 0.38533 0.34798 0.0
C651 C 0.94751 0.3734 0.35081 0.0
C652 C 0.94478 0.36328 0.40107 0.0
C653 C 0.95625 0.3651 0.44867 0.0
C654 C 0.9705 0.377 0.44606 0.0
C655 C 1.00132 0.46832 0.52385 0.0
C656 C 0.00583 0.46217 0.57988 0.0
C657 C 1.00102 0.4566 0.47611 0.0
C658 C 1.00496 0.43851 0.48384 0.0
C659 C 0.00969 0.43245 0.53958 0.0
C660 C 0.0103 0.44417 0.58692 0.0
C661 C 1.00365 0.42564 0.43466 0.0
C662 C 0.99038 0.41256 0.43679 0.0
C663 C 0.01531 0.42608 0.38633 0.0
C664 C 0.02946 0.43972 0.38138 0.0
C665 C 0.04245 0.44154 0.42511 0.0
C666 C 0.05559 0.45461 0.42042 0.0
C667 C 0.05595 0.46584 0.37197 0.0
C668 C 0.04321 0.46399 0.32798 0.0
C669 C 0.03003 0.45095 0.33251 0.0
H670 H 0.06612 0.47596 0.36842 0.0
H671 H 0.93376 0.35404 0.40316 0.0
H672 H 0.84414 0.97558 0.09614 0.0
H673 H 0.86793 0.97511 0.02427 0.0
H674 H 0.8984 0.01167 0.12941 0.0
H675 H 0.87429 0.01243 0.2015 0.0
H676 H 0.9002 0.02178 0.02146 0.0
H677 H 0.90964 0.96616 0.11442 0.0
H678 H 0.90183 0.93679 0.15448 0.0
H679 H 0.88578 0.91912 0.98427 0.0
H680 H 0.89327 0.94847 0.94329 0.0
H681 H 0.9768 0.0112 0.84001 0.0
H682 H 0.95703 0.00958 0.92483 0.0
H683 H 0.9192 0.9794 0.82381 0.0
H684 H 0.93893 0.98101 0.73882 0.0
H685 H 0.92344 0.96594 0.93553 0.0
H686 H 0.91289 0.02311 0.8458 0.0
H687 H 0.92218 0.05231 0.80775 0.0
H688 H 0.94222 0.06675 0.9767 0.0
H689 H 0.93326 0.03753 0.01556 0.0
C690 C 0.85605 0.98324 0.10485 0.0
C691 C 0.85733 0.99387 0.15526 0.0
C692 C 0.86971 0.98298 0.06342 0.0
C693 C 0.88522 0.99312 0.07146 0.0
C694 C 0.88663 1.00367 0.12199 0.0
C695 C 0.87284 1.00407 0.16333 0.0
C696 C 0.89951 0.99319 0.02588 0.0
C697 C 0.90549 0.00954 0.00358 0.0
C698 C 0.90637 0.97727 1.00147 0.0
C699 C 0.90189 0.95957 0.02587 0.0
C700 C 0.90433 0.95605 0.08559 0.0
C701 C 0.89998 0.9394 0.10846 0.0
C702 C 0.89328 0.92611 0.07197 0.0
C703 C 0.89096 0.92943 0.01249 0.0
C704 C 0.89528 0.94607 0.98941 0.0
C705 C 0.96432 1.00412 0.83599 0.0
C706 C 0.95936 0.99633 0.78258 0.0
C707 C 0.95299 1.00325 0.88448 0.0
C708 C 0.93649 0.99453 0.88067 0.0
C709 C 0.93182 0.98623 0.82789 0.0
C710 C 0.94309 0.9872 0.77928 0.0
C711 C 0.92387 0.99447 0.93098 0.0
C712 C 0.91822 0.97814 0.95399 0.0
C713 C 0.91748 0.01038 0.95649 0.0
C714 C 0.92257 0.02807 0.93343 0.0
C715 C 0.91938 0.03247 0.87474 0.0
C716 C 0.92457 0.04903 0.85304 0.0
C717 C 0.93283 0.06136 0.88974 0.0
C718 C 0.93584 0.05718 0.9483 0.0
C719 C 0.9307 0.04063 0.9702 0.0
H720 H 0.93686 0.07416 0.87284 0.0
H721 H 0.88992 0.91323 0.08975 0.0
H722 H 0.50236 0.87825 0.16811 0.0
H723 H 0.5017 0.90396 0.10292 0.0
H724 H 0.53893 0.87807 0.98808 0.0
H725 H 0.53953 0.85228 0.05251 0.0
H726 H 0.54636 0.91331 0.99645 0.0
H727 H 0.49442 0.87735 0.96011 0.0
H728 H 0.46687 0.86154 0.98668 0.0
H729 H 0.44367 0.9105 0.04524 0.0
H730 H 0.47121 0.92656 0.01979 0.0
H731 H 0.52843 0.95435 0.72431 0.0
H732 H 0.53259 0.93457 0.8077 0.0
H733 H 0.49492 0.96534 0.90714 0.0
H734 H 0.49071 0.98525 0.82331 0.0
H735 H 0.48774 0.92999 0.91369 0.0
H736 H 0.53879 0.96635 0.94741 0.0
H737 H 0.56613 0.98254 0.92099 0.0
H738 H 0.59042 0.93379 0.86559 0.0
H739 H 0.56328 0.91724 0.8925 0.0
C740 C 0.51048 0.87802 0.12913 0.0
C741 C 0.52092 0.86302 0.1157 0.0
C742 C 0.51011 0.89278 0.09184 0.0
C743 C 0.52007 0.89292 0.03994 0.0
C744 C 0.53112 0.87835 0.02778 0.0
C745 C 0.53151 0.86359 0.06501 0.0
C746 C 0.51826 0.90772 0.99679 0.0
C747 C 0.53355 0.91686 0.97813 0.0
C748 C 0.50152 0.91274 0.97357 0.0
C749 C 0.48495 0.90312 0.98869 0.0
C750 C 0.4835 0.88472 0.9791 0.0
C751 C 0.46788 0.87572 0.99389 0.0
C752 C 0.45355 0.885 0.0178 0.0
C753 C 0.45479 0.90332 0.02683 0.0
C754 C 0.4704 0.91238 0.01222 0.0
C755 C 0.52117 0.95702 0.76415 0.0
C756 C 0.50919 0.97131 0.76717 0.0
C757 C 0.52363 0.94575 0.81199 0.0
C758 C 0.51416 0.94846 0.86407 0.0
C759 C 0.5024 0.96295 0.86755 0.0
C760 C 0.50004 0.97436 0.81971 0.0
C761 C 0.51583 0.93551 0.91317 0.0
C762 C 0.50052 0.92663 0.93266 0.0
C763 C 0.53252 0.93078 0.9372 0.0
C764 C 0.54896 0.94058 0.92159 0.0
C765 C 0.54994 0.95909 0.92941 0.0
C766 C 0.56541 0.96832 0.91445 0.0
C767 C 0.57996 0.95923 0.89118 0.0
C768 C 0.57913 0.94082 0.88351 0.0
C769 C 0.56375 0.93149 0.89895 0.0
H770 H 0.59187 0.96643 0.87927 0.0
H771 H 0.44146 0.87801 0.0292 0.0
H772 H 0.63071 0.53298 0.17153 0.0
H773 H 0.6063 0.53181 0.10027 0.0
H774 H 0.63245 0.48871 0.01119 0.0
H775 H 0.65674 0.48978 0.08177 0.0
H776 H 0.6231 0.51709 0.93806 0.0
H777 H 0.59626 0.48033 0.08664 0.0
H778 H 0.58525 0.47379 0.1856 0.0
H779 H 0.54863 0.51736 0.17394 0.0
H780 H 0.55961 0.52432 0.07515 0.0
H781 H 0.56346 0.48807 0.72795 0.0
H782 H 0.5825 0.48942 0.81379 0.0
H783 H 0.54601 0.52597 0.89543 0.0
H784 H 0.52643 0.52404 0.80945 0.0
H785 H 0.55946 0.5041 0.97584 0.0
H786 H 0.5847 0.54078 0.82871 0.0
H787 H 0.59552 0.54871 0.73062 0.0
H788 H 0.6352 0.50788 0.741 0.0
H789 H 0.62446 0.49953 0.83886 0.0
C790 C 0.63112 0.5231 0.1372 0.0
C791 C 0.64567 0.51141 0.13268 0.0
C792 C 0.61713 0.52241 0.09661 0.0
C793 C 0.61752 0.51016 0.05032 0.0
C794 C 0.63182 0.49825 0.04653 0.0
C795 C 0.64565 0.49878 0.08735 0.0
C796 C 0.60375 0.51037 0.00347 0.0
C797 C 0.60922 0.51407 0.94626 0.0
C798 C 0.5855 0.50715 0.01443 0.0
C799 C 0.57891 0.50298 0.07379 0.0
C800 C 0.58598 0.48863 0.1054 0.0
C801 C 0.57972 0.48482 0.16141 0.0
C802 C 0.56629 0.49518 0.18612 0.0
C803 C 0.55906 0.50936 0.15479 0.0
C804 C 0.56529 0.51324 0.09877 0.0
C805 C 0.55938 0.4963 0.76435 0.0
C806 C 0.54351 0.50607 0.76179 0.0
C807 C 0.57035 0.49714 0.81342 0.0
C808 C 0.56602 0.50819 0.86074 0.0
C809 C 0.54975 0.51744 0.85941 0.0
C810 C 0.53855 0.51635 0.81032 0.0
C811 C 0.57891 0.51037 0.91001 0.0
C812 C 0.57331 0.50724 0.96762 0.0
C813 C 0.59707 0.51439 0.8997 0.0
C814 C 0.60368 0.51945 0.84098 0.0
C815 C 0.59566 0.53342 0.80994 0.0
C816 C 0.60179 0.538 0.75439 0.0
C817 C 0.61602 0.52878 0.72955 0.0
C818 C 0.62418 0.515 0.76028 0.0
C819 C 0.61809 0.51035 0.81583 0.0
H820 H 0.62074 0.53234 0.68653 0.0
H821 H 0.56145 0.49221 0.22948 0.0
H822 H 0.02297 0.65327 0.10321 0.0
H823 H 0.02174 0.6282 0.03568 0.0
H824 H 0.96714 0.61866 0.083 0.0
H825 H 0.9682 0.64403 0.15088 0.0
H826 H 0.99206 0.58611 0.06973 0.0
H827 H 0.96985 0.63789 0.96884 0.0
H828 H 0.97097 0.66923 0.93799 0.0
H829 H 0.02092 0.65999 0.85265 0.0
H830 H 0.02024 0.62864 0.88385 0.0
H831 H 0.97885 0.53012 0.81482 0.0
H832 H 0.97581 0.55049 0.89827 0.0
H833 H 0.02103 0.58043 0.83663 0.0
H834 H 0.02353 0.56064 0.75294 0.0
H835 H 0.99681 0.60237 0.86069 0.0
H836 H 0.02099 0.55206 0.96329 0.0
H837 H 0.02204 0.52089 0.99606 0.0
H838 H 0.97124 0.52695 0.07905 0.0
H839 H 0.96979 0.55812 0.04609 0.0
C840 C 0.01078 0.64565 0.10033 0.0
C841 C 0.9957 0.65064 0.1328 0.0
C842 C 0.01009 0.63135 0.06144 0.0
C843 C 0.99437 0.62154 0.0543 0.0
C844 C 0.97944 0.626 0.08806 0.0
C845 C 0.98003 0.64055 0.12654 0.0
C846 C 0.99338 0.60762 0.00816 0.0
C847 C 0.99279 0.5896 0.02389 0.0
C848 C 0.99472 0.61217 0.94851 0.0
C849 C 0.99506 0.63096 0.92913 0.0
C850 C 0.98115 0.64258 0.94392 0.0
C851 C 0.98169 0.66034 0.9263 0.0
C852 C 0.99602 0.66661 0.89349 0.0
C853 C 0.00983 0.65512 0.87811 0.0
C854 C 0.00936 0.63735 0.89571 0.0
C855 C 0.98832 0.54083 0.82006 0.0
C856 C 1.00149 0.54376 0.77769 0.0
C857 C 0.98658 0.55253 0.86768 0.0
C858 C 0.99821 0.56712 0.87421 0.0
C859 C 0.01175 0.56948 0.83272 0.0
C860 C 0.01325 0.55808 0.78493 0.0
C861 C 0.99597 0.5806 0.92179 0.0
C862 C 0.99592 0.59869 0.90634 0.0
C863 C 0.9943 0.57603 0.9816 0.0
C864 C 0.99519 0.55735 1.00166 0.0
C865 C 0.00998 0.5467 0.98815 0.0
C866 C 0.01066 0.52905 0.00682 0.0
C867 C 0.99669 0.52193 0.03946 0.0
C868 C 0.98203 0.53247 0.05366 0.0
C869 C 0.98128 0.55014 0.03504 0.0
H870 H 0.99723 0.50826 0.05387 0.0
H871 H 0.99642 0.68037 0.87988 0.0
H872 H 0.0313 0.22964 0.36325 0.0
H873 H 0.02734 0.20175 0.41352 0.0
H874 H 0.07957 0.18493 0.35933 0.0
H875 H 0.08403 0.21338 0.30992 0.0
H876 H 0.05309 0.16394 0.31696 0.0
H877 H 0.06951 0.18677 0.50263 0.0
H878 H 0.06991 0.20747 0.58597 0.0
H879 H 0.01428 0.19824 0.61479 0.0
H880 H 0.01343 0.17773 0.531 0.0
H881 H 0.03176 0.07777 0.42576 0.0
H882 H 0.04604 0.10622 0.40521 0.0
H883 H 0.99858 0.13373 0.45994 0.0
H884 H 0.98443 0.10531 0.4826 0.0
H885 H 0.02766 0.14788 0.50932 0.0
H886 H 0.00946 0.13055 0.31679 0.0
H887 H 0.00711 0.11142 0.22975 0.0
H888 H 0.0639 0.11187 0.21115 0.0
H889 H 0.06661 0.13085 0.29856 0.0
C890 C 0.04241 0.22052 0.3642 0.0
C891 C 0.05792 0.22374 0.33144 0.0
C892 C 0.04005 0.20444 0.39309 0.0
C893 C 0.0531 0.19123 0.38982 0.0
C894 C 0.0693 0.19498 0.36208 0.0
C895 C 0.07176 0.21119 0.33355 0.0
C896 C 0.04827 0.17277 0.40503 0.0
C897 C 0.04802 0.16026 0.35958 0.0
C898 C 0.041 0.16826 0.45994 0.0
C899 C 0.0414 0.18077 0.51013 0.0
C900 C 0.05731 0.18928 0.52632 0.0
C901 C 0.05763 0.20097 0.57375 0.0
C902 C 0.04213 0.20419 0.60559 0.0
C903 C 0.02627 0.19574 0.59008 0.0
C904 C 0.02588 0.18406 0.54263 0.0
C905 C 0.02435 0.08988 0.43336 0.0
C906 C 0.00701 0.08933 0.45617 0.0
C907 C 0.03249 0.10611 0.42125 0.0
C908 C 0.02336 0.12205 0.43116 0.0
C909 C 0.00587 0.12154 0.45236 0.0
C910 C 0.99774 0.10531 0.46464 0.0
C911 C 0.03219 0.13931 0.42091 0.0
C912 C 0.03312 0.15151 0.46717 0.0
C913 C 0.03981 0.14369 0.36645 0.0
C914 C 0.03825 0.13192 0.31471 0.0
C915 C 0.02146 0.1264 0.29457 0.0
C916 C 0.02006 0.11563 0.24504 0.0
C917 C 0.03535 0.11039 0.21504 0.0
C918 C 0.05207 0.11591 0.2345 0.0
C919 C 0.05355 0.12668 0.28402 0.0
H920 H 0.03423 0.10209 0.17662 0.0
H921 H 0.04241 0.21323 0.64234 0.0
H922 H 0.2657 0.98649 0.44943 0.0
H923 H 0.28535 0.97344 0.52422 0.0
H924 H 0.32234 0.9581 0.38943 0.0
H925 H 0.30304 0.97114 0.31567 0.0
H926 H 0.31719 0.9317 0.4764 0.0
H927 H 0.32557 0.99737 0.45834 0.0
H928 H 0.31595 0.02837 0.47318 0.0
H929 H 0.30768 0.01806 0.6554 0.0
H930 H 0.31696 0.9869 0.64131 0.0
H931 H 0.40627 0.94349 0.46546 0.0
H932 H 0.37434 0.93849 0.46931 0.0
H933 H 0.37302 0.95864 0.6457 0.0
H934 H 0.40506 0.96435 0.64074 0.0
H935 H 0.35176 0.97647 0.58737 0.0
H936 H 0.35599 0.91532 0.6094 0.0
H937 H 0.36713 0.88475 0.59788 0.0
H938 H 0.35208 0.88516 0.41723 0.0
H939 H 0.34111 0.91581 0.42723 0.0
C940 C 0.27795 0.98011 0.43617 0.0
C941 C 0.28307 0.97995 0.37721 0.0
C942 C 0.28907 0.97265 0.47866 0.0
C943 C 0.30521 0.96476 0.46216 0.0
C944 C 0.30986 0.96399 0.40298 0.0
C945 C 0.29895 0.97159 0.36097 0.0
C946 C 0.31852 0.95885 0.50528 0.0
C947 C 0.32472 0.94131 0.50159 0.0
C948 C 0.32765 0.97118 0.54084 0.0
C949 C 0.32157 0.98974 0.54854 0.0
C950 C 0.32144 1.00165 0.50136 0.0
C951 C 0.3161 0.01926 0.50968 0.0
C952 C 0.3111 0.02515 0.56512 0.0
C953 C 0.31145 0.01345 0.6124 0.0
C954 C 0.3167 0.99581 0.60425 0.0
C955 C 0.39924 0.94624 0.50571 0.0
C956 C 0.40793 0.95449 0.55245 0.0
C957 C 0.38097 0.94322 0.50827 0.0
C958 C 0.37117 0.94807 0.55812 0.0
C959 C 0.38025 0.9548 0.60691 0.0
C960 C 0.39849 0.9581 0.60397 0.0
C961 C 0.35154 0.94964 0.55378 0.0
C962 C 0.344 0.96636 0.56518 0.0
C963 C 0.34115 0.93646 0.52589 0.0
C964 C 0.34764 0.91792 0.51923 0.0
C965 C 0.35511 0.90893 0.56712 0.0
C966 C 0.3614 0.89157 0.56085 0.0
C967 C 0.36029 0.88301 0.50689 0.0
C968 C 0.35288 0.89179 0.45907 0.0
C969 C 0.34656 0.90915 0.46508 0.0
H970 H 0.36518 0.86957 0.50212 0.0
H971 H 0.30703 0.0388 0.57151 0.0
H972 H 0.52147 0.29783 0.37349 0.0
H973 H 0.53014 0.32176 0.43858 0.0
H974 H 0.58302 0.2997 0.45122 0.0
H975 H 0.57451 0.27621 0.38215 0.0
H976 H 0.54143 0.32927 0.53812 0.0
H977 H 0.61276 0.33291 0.45688 0.0
H978 H 0.63154 0.32217 0.37582 0.0
H979 H 0.58625 0.32213 0.26163 0.0
H980 H 0.5673 0.33304 0.34186 0.0
H981 H 0.55747 0.41877 0.60706 0.0
H982 H 0.56576 0.38726 0.60687 0.0
H983 H 0.56794 0.38827 0.41852 0.0
H984 H 0.5607 0.41978 0.41916 0.0
H985 H 0.59002 0.36542 0.45287 0.0
H986 H 0.52943 0.38093 0.50744 0.0
H987 H 0.50577 0.39307 0.57024 0.0
H988 H 0.52077 0.3573 0.70734 0.0
H989 H 0.54511 0.34557 0.64646 0.0
C990 C 0.53482 0.29785 0.39128 0.0
C991 C 0.5474 0.28538 0.37251 0.0
C992 C 0.53978 0.3115 0.42881 0.0
C993 C 0.55737 0.3128 0.44907 0.0
C994 C 0.5695 0.29925 0.43504 0.0
C995 C 0.56465 0.28582 0.3959 0.0
C996 C 0.56316 0.32965 0.47703 0.0
C997 C 0.55227 0.3371 0.52031 0.0
C998 C 0.57733 0.33987 0.45401 0.0
C999 C 0.58862 0.33352 0.40545 0.0
C1000 C 0.60686 0.33061 0.41442 0.0
C1001 C 0.61752 0.32452 0.36865 0.0
C1002 C 0.61008 0.3214 0.31367 0.0
C1003 C 0.59199 0.32449 0.30425 0.0
C1004 C 0.58129 0.33064 0.34981 0.0
C1005 C 0.56039 0.4123 0.56592 0.0
C1006 C 0.55837 0.42149 0.51299 0.0
C1007 C 0.56503 0.39433 0.56582 0.0
C1008 C 0.56704 0.38526 0.51267 0.0
C1009 C 0.56647 0.39492 0.46017 0.0
C1010 C 0.56229 0.41293 0.46038 0.0
C1011 C 0.56725 0.36558 0.50983 0.0
C1012 C 0.57957 0.35746 0.47241 0.0
C1013 C 0.55364 0.35509 0.53549 0.0
C1014 C 0.5394 0.36267 0.57286 0.0
C1015 C 0.52792 0.37589 0.5514 0.0
C1016 C 0.51438 0.38271 0.58669 0.0
C1017 C 0.51185 0.37606 0.64296 0.0
C1018 C 0.52285 0.36257 0.664 0.0
C1019 C 0.53662 0.35594 0.62931 0.0
H1020 H 0.5013 0.38127 0.67009 0.0
H1021 H 0.61835 0.31665 0.27834 0.0
H1022 H 0.23672 0.52496 0.43417 0.0
H1023 H 0.21357 0.53195 0.50567 0.0
H1024 H 0.19391 0.57341 0.39297 0.0
H1025 H 0.21742 0.5669 0.32275 0.0
H1026 H 0.18579 0.58071 0.50523 0.0
H1027 H 0.18089 0.53048 0.37198 0.0
H1028 H 0.19076 0.50214 0.32872 0.0
H1029 H 0.18908 0.47742 0.49738 0.0
H1030 H 0.17937 0.50571 0.54169 0.0
H1031 H 0.0929 0.56964 0.46855 0.0
H1032 H 0.1253 0.57318 0.46641 0.0
H1033 H 0.13032 0.53597 0.60841 0.0
H1034 H 0.09799 0.53257 0.61126 0.0
H1035 H 0.1484 0.52636 0.50857 0.0
H1036 H 0.14487 0.57633 0.63376 0.0
H1037 H 0.13304 0.6048 0.66999 0.0
H1038 H 0.14875 0.63037 0.51074 0.0
H1039 H 0.16036 0.60194 0.47315 0.0
C1040 C 0.22789 0.53604 0.42604 0.0
C1041 C 0.22858 0.54524 0.37287 0.0
C1042 C 0.2147 0.54002 0.46676 0.0
C1043 C 0.20175 0.55285 0.45376 0.0
C1044 C 0.20373 0.56341 0.40376 0.0
C1045 C 0.21713 0.55966 0.36356 0.0
C1046 C 0.18448 0.55282 0.4846 0.0
C1047 C 0.17762 0.56884 0.5064 0.0
C1048 C 0.17391 0.53724 0.48677 0.0
C1049 C 0.17965 0.52023 0.46021 0.0
C1050 C 0.18273 0.51902 0.39984 0.0
C1051 C 0.18828 0.50297 0.37514 0.0
C1052 C 0.19061 0.48801 0.41031 0.0
C1053 C 0.18733 0.48904 0.47023 0.0
C1054 C 0.1818 0.50507 0.49516 0.0
C1055 C 0.10094 0.56254 0.50004 0.0
C1056 C 0.09303 0.5508 0.53984 0.0
C1057 C 0.11937 0.56469 0.49923 0.0
C1058 C 0.13013 0.55496 0.53772 0.0
C1059 C 0.1222 0.54374 0.57893 0.0
C1060 C 0.10377 0.54181 0.5804 0.0
C1061 C 0.14953 0.55432 0.52815 0.0
C1062 C 0.15674 0.53813 0.50967 0.0
C1063 C 0.1602 0.56978 0.52823 0.0
C1064 C 0.15334 0.58696 0.55051 0.0
C1065 C 0.14562 0.58798 0.60626 0.0
C1066 C 0.139 0.60412 0.62708 0.0
C1067 C 0.14011 0.61938 0.59264 0.0
C1068 C 0.14789 0.61853 0.53736 0.0
C1069 C 0.15451 0.60241 0.51631 0.0
H1070 H 0.13498 0.63188 0.60883 0.0
H1071 H 0.19492 0.4756 0.39112 0.0
H1072 H 0.08401 0.77756 0.00472 0.0
H1073 H 0.09302 0.80141 0.93847 0.0
H1074 H 0.03943 0.80459 0.87243 0.0
H1075 H 0.0303 0.78107 0.93846 0.0
H1076 H 0.06448 0.81408 0.78866 0.0
H1077 H 0.04951 0.82697 0.99216 0.0
H1078 H 0.05373 0.82309 0.09811 0.0
H1079 H 0.10807 0.83999 0.08247 0.0
H1080 H 0.10422 0.84367 0.97614 0.0
H1081 H 0.02841 0.8998 0.78042 0.0
H1082 H 0.03842 0.86905 0.78773 0.0
H1083 H 0.09061 0.88709 0.83922 0.0
H1084 H 0.0805 0.91795 0.833 0.0
H1085 H 0.07661 0.86559 0.9178 0.0
H1086 H 0.08426 0.86393 0.71414 0.0
H1087 H 0.07744 0.86772 0.60982 0.0
H1088 H 0.03495 0.82987 0.62369 0.0
H1089 H 0.04087 0.82648 0.72842 0.0
C1090 C 0.07427 0.78304 0.97499 0.0
C1091 C 0.05636 0.7777 0.97775 0.0
C1092 C 0.07947 0.79654 0.93685 0.0
C1093 C 0.06681 0.80493 0.90135 0.0
C1094 C 0.04941 0.79826 0.89939 0.0
C1095 C 0.0442 0.78479 0.93739 0.0
C1096 C 0.07035 0.82263 0.87599 0.0
C1097 C 0.06724 0.82543 0.81639 0.0
C1098 C 0.0744 0.83727 0.91237 0.0
C1099 C 0.07665 0.83537 0.97628 0.0
C1100 C 0.06238 0.82976 0.01133 0.0
C1101 C 0.0647 0.82759 0.0714 0.0
C1102 C 0.08117 0.83124 0.09698 0.0
C1103 C 0.09533 0.83712 0.06255 0.0
C1104 C 0.0931 0.83923 1.00239 0.0
C1105 C 0.04209 0.89719 0.79247 0.0
C1106 C 0.05361 0.9112 0.80713 0.0
C1107 C 0.04788 0.87963 0.7958 0.0
C1108 C 0.0653 0.87577 0.81371 0.0
C1109 C 0.07714 0.8898 0.82498 0.0
C1110 C 0.07137 0.9074 0.82142 0.0
C1111 C 0.06998 0.85735 0.8303 0.0
C1112 C 0.07455 0.85437 0.88882 0.0
C1113 C 0.06692 0.84268 0.79284 0.0
C1114 C 0.06298 0.84503 0.72966 0.0
C1115 C 0.07326 0.85662 0.69527 0.0
C1116 C 0.06952 0.85873 0.63591 0.0
C1117 C 0.05568 0.84914 0.61012 0.0
C1118 C 0.04557 0.83741 0.64365 0.0
C1119 C 0.04909 0.83543 0.70313 0.0
H1120 H 0.05284 0.85073 0.56413 0.0
H1121 H 0.08295 0.82956 0.1435 0.0
H1122 H 0.73137 0.03551 0.92663 0.0
H1123 H 0.70463 0.03264 0.86725 0.0
H1124 H 0.70719 0.97565 0.8833 0.0
H1125 H 0.73337 0.9784 0.94484 0.0
H1126 H 0.68591 0.01535 0.77843 0.0
H1127 H 0.67058 0.96366 0.95274 0.0
H1128 H 0.68257 0.95309 0.04686 0.0
H1129 H 0.70228 0.00541 0.0845 0.0
H1130 H 0.69021 0.01629 0.99102 0.0
H1131 H 0.59181 1.00054 0.76371 0.0
H1132 H 0.62368 0.99404 0.76889 0.0
H1133 H 0.62743 0.02416 0.92862 0.0
H1134 H 0.59555 0.03019 0.92488 0.0
H1135 H 0.64579 0.99375 0.93512 0.0
H1136 H 0.63733 0.04164 0.79982 0.0
H1137 H 0.62594 0.05631 0.71136 0.0
H1138 H 0.65434 0.01908 0.60468 0.0
H1139 H 0.66503 1.00357 0.69205 0.0
C1140 C 0.72664 0.02233 0.91558 0.0
C1141 C 0.73396 0.00724 0.94248 0.0
C1142 C 0.71147 0.0207 0.88102 0.0
C1143 C 0.70367 1.00397 0.87286 0.0
C1144 C 0.71293 0.9887 0.89014 0.0
C1145 C 0.72796 0.99032 0.92533 0.0
C1146 C 0.68432 1.00303 0.86288 0.0
C1147 C 0.67707 0.0103 0.81192 0.0
C1148 C 0.67288 0.99699 0.90774 0.0
C1149 C 0.67969 0.9907 0.96474 0.0
C1150 C 0.67741 0.97289 0.98128 0.0
C1151 C 0.68423 0.96685 0.03445 0.0
C1152 C 0.69325 0.97856 0.07151 0.0
C1153 C 0.69535 0.99635 0.05568 0.0
C1154 C 0.68852 1.00246 0.00265 0.0
C1155 C 0.5994 0.00553 0.80041 0.0
C1156 C 0.59126 0.01592 0.8439 0.0
C1157 C 0.61757 1.00192 0.80296 0.0
C1158 C 0.62784 0.00877 0.84875 0.0
C1159 C 0.61968 0.01878 0.89288 0.0
C1160 C 0.60153 0.02235 0.89045 0.0
C1161 C 0.64724 0.00604 0.85044 0.0
C1162 C 0.65451 0.99821 0.90037 0.0
C1163 C 0.65861 0.0121 0.80536 0.0
C1164 C 0.65173 0.02122 0.75262 0.0
C1165 C 0.64082 0.03633 0.75745 0.0
C1166 C 0.63444 0.04478 0.70738 0.0
C1167 C 0.63919 0.03849 0.65223 0.0
C1168 C 0.65034 0.02375 0.64714 0.0
C1169 C 0.65652 0.01507 0.69695 0.0
H1170 H 0.63437 0.04514 0.61351 0.0
H1171 H 0.69856 0.97385 0.11256 0.0
H1172 H 0.49166 0.72092 0.91281 0.0
H1173 H 0.4758 0.69846 0.85741 0.0
H1174 H 0.42585 0.71836 0.9231 0.0
H1175 H 0.4418 0.74012 0.98202 0.0
H1176 H 0.42807 0.6863 0.94995 0.0
H1177 H 0.43561 0.71506 0.77045 0.0
H1178 H 0.44994 0.73165 0.69065 0.0
H1179 H 0.48655 0.68871 0.66357 0.0
H1180 H 0.47277 0.67203 0.74398 0.0
H1181 H 0.42839 0.59936 0.75419 0.0
H1182 H 0.4211 0.63094 0.76441 0.0
H1183 H 0.45159 0.63315 0.9237 0.0
H1184 H 0.45917 0.602 0.91339 0.0
H1185 H 0.44434 0.65771 0.76285 0.0
H1186 H 0.43597 0.66151 0.01653 0.0
H1187 H 0.42112 0.64436 0.09396 0.0
H1188 H 0.38474 0.62258 0.96844 0.0
H1189 H 0.39919 0.6398 0.89028 0.0
C1190 C 0.47727 0.72074 0.91467 0.0
C1191 C 0.46805 0.73198 0.95313 0.0
C1192 C 0.46814 0.70806 0.88197 0.0
C1193 C 0.44956 0.70663 0.88601 0.0
C1194 C 0.44018 0.71916 0.91939 0.0
C1195 C 0.44935 0.73168 0.95289 0.0
C1196 C 0.44075 0.69002 0.86636 0.0
C1197 C 0.43135 0.68021 0.90846 0.0
C1198 C 0.44447 0.68216 0.81157 0.0
C1199 C 0.45308 0.69226 0.76348 0.0
C1200 C 0.4468 0.7092 0.74786 0.0
C1201 C 0.45485 0.71863 0.70244 0.0
C1202 C 0.46915 0.71124 0.67207 0.0
C1203 C 0.47546 0.69442 0.6871 0.0
C1204 C 0.46751 0.68495 0.73257 0.0
C1205 C 0.43336 0.60656 0.79172 0.0
C1206 C 0.44436 0.59814 0.83304 0.0
C1207 C 0.42908 0.62454 0.79763 0.0
C1208 C 0.43555 0.6343 0.84526 0.0
C1209 C 0.44602 0.62576 0.88742 0.0
C1210 C 0.45036 0.6079 0.88147 0.0
C1211 C 0.43341 0.65379 0.84844 0.0
C1212 C 0.4406 0.66409 0.80332 0.0
C1213 C 0.42765 0.66215 0.90025 0.0
C1214 C 0.41868 0.652 0.94743 0.0
C1215 C 0.4247 0.65321 0.00544 0.0
C1216 C 0.41638 0.64343 0.04948 0.0
C1217 C 0.402 0.63239 0.03613 0.0
C1218 C 0.3959 0.63112 0.97871 0.0
C1219 C 0.40416 0.64088 0.93451 0.0
H1220 H 0.39559 0.62481 0.07028 0.0
H1221 H 0.47533 0.71856 0.63687 0.0
H1222 H 0.78712 0.54125 0.93873 0.0
H1223 H 0.80808 0.53559 0.86014 0.0
H1224 H 0.77742 0.48979 0.80714 0.0
H1225 H 0.75683 0.49508 0.88793 0.0
H1226 H 0.80778 0.47965 0.83715 0.0
H1227 H 0.7894 0.5241 0.70961 0.0
H1228 H 0.77918 0.55306 0.67299 0.0
H1229 H 0.82832 0.57709 0.72651 0.0
H1230 H 0.83881 0.54836 0.76427 0.0
H1231 H 0.894 0.45779 0.74445 0.0
H1232 H 0.86282 0.46519 0.72841 0.0
H1233 H 0.87116 0.5164 0.80871 0.0
H1234 H 0.90248 0.50957 0.82159 0.0
H1235 H 0.84746 0.51954 0.72492 0.0
H1236 H 0.85752 0.47757 0.88705 0.0
H1237 H 0.86752 0.44883 0.92703 0.0
H1238 H 0.8327 0.42121 0.80922 0.0
H1239 H 0.82261 0.44982 0.76831 0.0
C1240 C 0.78444 0.53045 0.90868 0.0
C1241 C 0.77062 0.51842 0.91961 0.0
C1242 C 0.79638 0.52726 0.86332 0.0
C1243 C 0.79444 0.51216 0.82771 0.0
C1244 C 0.77926 0.50145 0.83423 0.0
C1245 C 0.76753 0.50445 0.88032 0.0
C1246 C 0.81015 0.5053 0.79574 0.0
C1247 C 0.81612 0.48823 0.81075 0.0
C1248 C 0.82122 0.51646 0.76181 0.0
C1249 C 0.81493 0.53394 0.73975 0.0
C1250 C 0.79803 0.53555 0.71391 0.0
C1251 C 0.79218 0.55195 0.69288 0.0
C1252 C 0.8031 0.5669 0.69736 0.0
C1253 C 0.8199 0.56548 0.72292 0.0
C1254 C 0.82582 0.54911 0.74401 0.0
C1255 C 0.88928 0.47077 0.75761 0.0
C1256 C 0.90064 0.48291 0.78581 0.0
C1257 C 0.87143 0.47499 0.74835 0.0
C1258 C 0.86457 0.49126 0.76809 0.0
C1259 C 0.87611 0.50374 0.7932 0.0
C1260 C 0.89396 0.49965 0.80175 0.0
C1261 C 0.84519 0.49463 0.7702 0.0
C1262 C 0.83866 0.51092 0.74948 0.0
C1263 C 0.83354 0.48289 0.79933 0.0
C1264 C 0.83953 0.46576 0.82412 0.0
C1265 C 0.85208 0.46534 0.86953 0.0
C1266 C 0.85775 0.4491 0.89236 0.0
C1267 C 0.8508 0.4332 0.87051 0.0
C1268 C 0.83812 0.43353 0.82595 0.0
C1269 C 0.83242 0.44975 0.80293 0.0
H1270 H 0.85521 0.42063 0.88824 0.0
H1271 H 0.79854 0.57959 0.68106 0.0
H1272 H 0.99244 0.18931 0.9886 0.0
H1273 H 0.99112 0.15933 0.94793 0.0
H1274 H 0.01868 0.17729 0.79405 0.0
H1275 H 0.01963 0.20749 0.83381 0.0
H1276 H 0.99232 0.15429 0.76552 0.0
H1277 H 0.04055 0.15528 0.90349 0.0
H1278 H 0.05469 0.16014 0.99928 0.0
H1279 H 0.01943 0.12207 0.07711 0.0
H1280 H 1.00489 0.11717 0.98191 0.0
H1281 H 0.0128 0.06743 0.65981 0.0
H1282 H 0.01404 0.09833 0.69307 0.0
H1283 H 0.99513 0.08209 0.86271 0.0
H1284 H 0.99515 0.05117 0.83066 0.0
H1285 H 0.01808 0.10497 0.88101 0.0
H1286 H 0.96873 0.10454 0.74661 0.0
H1287 H 0.95374 0.09965 0.65219 0.0
H1288 H 0.98948 0.13638 0.56978 0.0
H1289 H 1.00484 0.14128 0.6635 0.0
C1290 C 0.99793 0.18702 0.94561 0.0
C1291 C 0.00619 0.20093 0.91469 0.0
C1292 C 0.99735 0.16976 0.92264 0.0
C1293 C 1.00508 0.16588 0.86825 0.0
C1294 C 0.01273 0.17985 0.83625 0.0
C1295 C 0.01336 0.19712 0.85926 0.0
C1296 C 1.00553 0.14724 0.84546 0.0
C1297 C 0.99812 0.14352 0.7905 0.0
C1298 C 0.01278 0.13305 0.87834 0.0
C1299 C 0.02151 0.13599 0.93564 0.0
C1300 C 0.03571 0.14805 0.94111 0.0
C1301 C 0.04381 0.1508 0.9953 0.0
C1302 C 0.03793 0.14145 0.04428 0.0
C1303 C 0.02395 0.12932 0.03915 0.0
C1304 C 0.01578 0.12655 0.98508 0.0
C1305 C 0.00897 0.0705 0.70424 0.0
C1306 C 1.00394 0.05684 0.74266 0.0
C1307 C 0.0095 0.08824 0.7232 0.0
C1308 C 1.00434 0.09285 0.78038 0.0
C1309 C 0.99926 0.0791 0.81852 0.0
C1310 C 0.99923 0.06135 0.80011 0.0
C1311 C 1.00449 0.1118 0.80129 0.0
C1312 C 0.01215 0.11564 0.85591 0.0
C1313 C 0.99727 0.12606 0.76834 0.0
C1314 C 0.98803 0.12315 0.71197 0.0
C1315 C 0.97346 0.11148 0.70826 0.0
C1316 C 0.9649 0.10871 0.65486 0.0
C1317 C 0.97068 0.11766 0.60499 0.0
C1318 C 0.98503 0.12942 0.60839 0.0
C1319 C 0.99366 0.13221 0.66165 0.0
H1320 H 0.96399 0.11554 0.56377 0.0
H1321 H 0.04423 0.14358 0.08618 0.0
H1322 H 0.31384 0.03941 0.96287 0.0
H1323 H 0.34259 0.03891 0.9138 0.0
H1324 H 0.32448 0.9962 0.80321 0.0
H1325 H 0.29559 0.99658 0.85254 0.0
H1326 H 0.35649 0.98877 0.83994 0.0
H1327 H 0.33086 0.03924 0.74973 0.0
H1328 H 0.31532 0.06798 0.74332 0.0
H1329 H 0.35731 0.09304 0.8402 0.0
H1330 H 0.37301 0.06437 0.84786 0.0
H1331 H 0.43506 0.99326 0.66486 0.0
H1332 H 0.40396 0.99453 0.69578 0.0
H1333 H 0.41727 0.03521 0.82096 0.0
H1334 H 0.44821 0.03449 0.78845 0.0
H1335 H 0.38657 0.04311 0.76773 0.0
H1336 H 0.41133 0.99027 0.85816 0.0
H1337 H 0.42636 0.96117 0.85583 0.0
H1338 H 0.38474 0.94015 0.74754 0.0
H1339 H 0.36953 0.96918 0.74898 0.0
C1340 C 0.31578 0.03013 0.92734 0.0
C1341 C 0.30223 0.0181 0.91167 0.0
C1342 C 0.33233 0.02983 0.89924 0.0
C1343 C 0.33581 0.01763 0.85413 0.0
C1344 C 0.32225 0.00573 0.83788 0.0
C1345 C 0.30569 0.00596 0.86621 0.0
C1346 C 0.35379 0.01692 0.82577 0.0
C1347 C 0.36291 1.00064 0.82334 0.0
C1348 C 0.36241 0.03234 0.80422 0.0
C1349 C 0.35303 0.04962 0.79984 0.0
C1350 C 0.33671 0.05085 0.77009 0.0
C1351 C 0.32789 0.06713 0.76614 0.0
C1352 C 0.3353 0.08232 0.79147 0.0
C1353 C 0.35158 0.08126 0.82066 0.0
C1354 C 0.36046 0.065 0.82477 0.0
C1355 C 0.43133 1.00268 0.69821 0.0
C1356 C 0.4442 0.01387 0.72357 0.0
C1357 C 0.41353 1.00325 0.71648 0.0
C1358 C 0.40816 0.01482 0.76136 0.0
C1359 C 0.42097 0.02614 0.78632 0.0
C1360 C 0.43874 0.02564 0.76782 0.0
C1361 C 0.38936 0.01505 0.78308 0.0
C1362 C 0.38009 0.03125 0.78416 0.0
C1363 C 0.3805 0.9995 0.80246 0.0
C1364 C 0.38941 0.98194 0.80307 0.0
C1365 C 0.40543 0.97946 0.83365 0.0
C1366 C 0.41397 0.96298 0.83255 0.0
C1367 C 0.40654 0.94883 0.80141 0.0
C1368 C 0.39049 0.95112 0.7716 0.0
C1369 C 0.3819 0.96757 0.77259 0.0
H1370 H 0.41318 0.93609 0.80051 0.0
H1371 H 0.32845 0.09492 0.78836 0.0
H1372 H 0.48581 0.32564 0.97397 0.0
H1373 H 0.48493 0.35481 0.92785 0.0
H1374 H 0.52313 0.33735 0.79982 0.0
H1375 H 0.52431 0.30815 0.84676 0.0
H1376 H 0.53184 0.36907 0.83173 0.0
H1377 H 0.47747 0.34371 0.76695 0.0
H1378 H 0.44862 0.3283 0.77478 0.0
H1379 H 0.42867 0.37021 0.8837 0.0
H1380 H 0.45749 0.38575 0.87717 0.0
H1381 H 0.51763 0.44596 0.65353 0.0
H1382 H 0.5181 0.41528 0.6882 0.0
H1383 H 0.48687 0.4305 0.83777 0.0
H1384 H 0.48617 0.46123 0.80275 0.0
H1385 H 0.47484 0.39925 0.78717 0.0
H1386 H 0.53121 0.42411 0.84885 0.0
H1387 H 0.55965 0.43943 0.83048 0.0
H1388 H 0.5756 0.3975 0.71472 0.0
H1389 H 0.54723 0.38202 0.73209 0.0
C1390 C 0.49381 0.32787 0.93541 0.0
C1391 C 0.50502 0.31441 0.91392 0.0
C1392 C 0.49331 0.34464 0.90894 0.0
C1393 C 0.50376 0.34839 0.85951 0.0
C1394 C 0.51492 0.33493 0.83778 0.0
C1395 C 0.51556 0.31818 0.86465 0.0
C1396 C 0.50328 0.36643 0.83168 0.0
C1397 C 0.51935 0.37551 0.8213 0.0
C1398 C 0.48706 0.37509 0.81795 0.0
C1399 C 0.46969 0.36581 0.82201 0.0
C1400 C 0.46697 0.34957 0.79294 0.0
C1401 C 0.45062 0.34083 0.79708 0.0
C1402 C 0.43683 0.34825 0.82984 0.0
C1403 C 0.43936 0.36446 0.8584 0.0
C1404 C 0.4557 0.37325 0.85445 0.0
C1405 C 0.5107 0.44279 0.69345 0.0
C1406 C 0.50177 0.45612 0.72503 0.0
C1407 C 0.51109 0.42521 0.71353 0.0
C1408 C 0.5026 0.42051 0.76589 0.0
C1409 C 0.49352 0.43375 0.79725 0.0
C1410 C 0.4932 0.45137 0.77729 0.0
C1411 C 0.5033 0.40189 0.78842 0.0
C1412 C 0.48729 0.39273 0.79762 0.0
C1413 C 0.51957 0.39306 0.79981 0.0
C1414 C 0.53696 0.40201 0.79115 0.0
C1415 C 0.54074 0.4182 0.81926 0.0
C1416 C 0.55687 0.4269 0.80908 0.0
C1417 C 0.5694 0.41948 0.77127 0.0
C1418 C 0.56587 0.40327 0.74388 0.0
C1419 C 0.54976 0.39451 0.75392 0.0
H1420 H 0.58186 0.42626 0.76334 0.0
H1421 H 0.42418 0.34146 0.83298 0.0
H1422 H 0.18146 0.4854 1.00226 0.0
H1423 H 0.15198 0.48564 0.95821 0.0
H1424 H 0.17382 0.50797 0.80064 0.0
H1425 H 0.20355 0.5077 0.84454 0.0
H1426 H 0.14353 0.5246 0.82866 0.0
H1427 H 0.16099 0.46397 0.80771 0.0
H1428 H 0.17234 0.43483 0.83943 0.0
H1429 H 0.12873 0.4296 0.959 0.0
H1430 H 0.11724 0.45884 0.92858 0.0
H1431 H 0.06429 0.51008 0.66319 0.0
H1432 H 0.09489 0.50915 0.69869 0.0
H1433 H 0.07665 0.48804 0.86288 0.0
H1434 H 0.04596 0.48874 0.82752 0.0
H1435 H 0.10575 0.47057 0.82601 0.0
H1436 H 0.08856 0.53159 0.84699 0.0
H1437 H 0.07681 0.56026 0.81239 0.0
H1438 H 0.11993 0.56465 0.69079 0.0
H1439 H 0.13177 0.53577 0.72368 0.0
C1440 C 0.18014 0.49008 0.95783 0.0
C1441 C 0.19507 0.49633 0.9269 0.0
C1442 C 0.16317 0.49028 0.93268 0.0
C1443 C 0.16057 0.49661 0.87564 0.0
C1444 C 0.17539 0.503 0.84467 0.0
C1445 C 0.19243 0.50284 0.86991 0.0
C1446 C 0.14237 0.49669 0.84899 0.0
C1447 C 0.1354 0.51271 0.82725 0.0
C1448 C 0.13151 0.48129 0.84789 0.0
C1449 C 0.13834 0.46367 0.86622 0.0
C1450 C 0.15389 0.45667 0.84109 0.0
C1451 C 0.16034 0.44012 0.85878 0.0
C1452 C 0.15128 0.43038 0.9013 0.0
C1453 C 0.13574 0.43716 0.92611 0.0
C1454 C 0.12924 0.45372 0.90862 0.0
C1455 C 0.06672 0.50522 0.70683 0.0
C1456 C 0.05253 0.49953 0.74243 0.0
C1457 C 0.08429 0.50476 0.72724 0.0
C1458 C 0.08816 0.49869 0.7838 0.0
C1459 C 0.07407 0.49279 0.81912 0.0
C1460 C 0.05648 0.49326 0.79879 0.0
C1461 C 0.10685 0.49849 0.80633 0.0
C1462 C 0.11391 0.48244 0.82722 0.0
C1463 C 0.11778 0.51385 0.80643 0.0
C1464 C 0.11094 0.5314 0.78735 0.0
C1465 C 0.09547 0.53859 0.81252 0.0
C1466 C 0.0888 0.55488 0.79319 0.0
C1467 C 0.09759 0.56422 0.74919 0.0
C1468 C 0.11313 0.55735 0.72469 0.0
C1469 C 0.11982 0.54102 0.74363 0.0
H1470 H 0.0924 0.57682 0.73422 0.0
H1471 H 0.1563 0.41757 0.91494 0.0
H1472 H 0.01947 0.80358 0.49031 0.0
H1473 H 0.01799 0.83291 0.53602 0.0
H1474 H 0.97639 0.84811 0.41697 0.0
H1475 H 0.97816 0.81903 0.36967 0.0
H1476 H 1.00173 0.87337 0.42373 0.0
H1477 H 0.96882 0.838 0.56065 0.0
H1478 H 0.96378 0.81355 0.63007 0.0
H1479 H 0.00618 0.83292 0.73831 0.0
H1480 H 0.0117 0.85732 0.66907 0.0
H1481 H 0.97701 0.95478 0.55245 0.0
H1482 H 0.97707 0.9244 0.51527 0.0
H1483 H 0.01542 0.90952 0.64636 0.0
H1484 H 0.01502 0.93984 0.68497 0.0
H1485 H 0.99231 0.88388 0.63504 0.0
H1486 H 0.02718 0.91716 0.50032 0.0
H1487 H 0.03408 0.94165 0.43267 0.0
H1488 H 0.99041 0.9262 0.32304 0.0
H1489 H 0.98308 0.90176 0.39052 0.0
C1490 C 0.00995 0.81311 0.47384 0.0
C1491 C 0.99893 0.80881 0.42609 0.0
C1492 C 0.00902 0.82987 0.5005 0.0
C1493 C 0.99698 0.84276 0.48048 0.0
C1494 C 0.98576 0.83842 0.43348 0.0
C1495 C 0.98667 0.82167 0.4068 0.0
C1496 C 0.9966 0.86099 0.50664 0.0
C1497 C 0.9994 0.87564 0.46983 0.0
C1498 C 0.99425 0.86404 0.56726 0.0
C1499 C 0.9909 0.84933 0.60895 0.0
C1500 C 0.97723 0.83693 0.59882 0.0
C1501 C 0.97425 0.8231 0.63827 0.0
C1502 C 0.98472 0.82161 0.68839 0.0
C1503 C 0.99813 0.83402 0.69934 0.0
C1504 C 1.00119 0.84786 0.65999 0.0
C1505 C 0.98544 0.94507 0.57359 0.0
C1506 C 0.9961 0.94988 0.62154 0.0
C1507 C 0.98553 0.92765 0.55199 0.0
C1508 C 0.99652 0.91461 0.57706 0.0
C1509 C 0.00686 0.91927 0.6259 0.0
C1510 C 0.00665 0.93667 0.64793 0.0
C1511 C 0.99728 0.89623 0.55201 0.0
C1512 C 0.99463 0.88158 0.58895 0.0
C1513 C 1.00006 0.89311 0.49168 0.0
C1514 C 1.00448 0.90773 0.45078 0.0
C1515 C 0.01897 0.91906 0.462 0.0
C1516 C 0.02297 0.93292 0.42366 0.0
C1517 C 0.01267 0.93551 0.37366 0.0
C1518 C 0.99837 0.9242 0.36183 0.0
C1519 C 0.99429 0.91033 0.40009 0.0
H1520 H 0.01578 0.94625 0.34403 0.0
H1521 H 0.98239 0.8109 0.71888 0.0
H1522 H 0.67998 0.01551 0.34224 0.0
H1523 H 0.65066 0.01501 0.38755 0.0
H1524 H 0.67393 0.99623 0.54802 0.0
H1525 H 0.70342 0.99636 0.50209 0.0
H1526 H 0.64393 0.98006 0.5342 0.0
H1527 H 0.66118 0.0409 0.52495 0.0
H1528 H 0.67153 0.06879 0.48021 0.0
H1529 H 0.62565 0.06949 0.36871 0.0
H1530 H 0.61511 0.04146 0.41233 0.0
H1531 H 0.56229 0.02431 0.67893 0.0
H1532 H 0.59337 0.02424 0.64587 0.0
H1533 H 0.57943 0.98888 0.5052 0.0
H1534 H 0.54829 0.98932 0.53664 0.0
H1535 H 0.60559 0.03349 0.52014 0.0
H1536 H 0.61636 0.95725 0.52051 0.0
H1537 H 0.60703 0.93126 0.57862 0.0
H1538 H 0.59931 0.96474 0.7283 0.0
H1539 H 0.60883 0.99081 0.67119 0.0
C1540 C 0.67892 0.01137 0.38734 0.0
C1541 C 0.69418 0.00623 0.41872 0.0
C1542 C 0.66207 0.01109 0.41331 0.0
C1543 C 0.65994 0.00597 0.47185 0.0
C1544 C 0.6751 1.00034 0.50292 0.0
C1545 C 0.692 1.00042 0.47663 0.0
C1546 C 0.64198 0.00671 0.50042 0.0
C1547 C 0.6356 0.99176 0.53075 0.0
C1548 C 0.6311 0.02212 0.498 0.0
C1549 C 0.63743 0.03897 0.47161 0.0
C1550 C 0.65335 0.04692 0.49065 0.0
C1551 C 0.65924 0.06277 0.46551 0.0
C1552 C 0.64928 0.07089 0.42155 0.0
C1553 C 0.63337 0.06318 0.40273 0.0
C1554 C 0.62742 0.04732 0.42768 0.0
C1555 C 0.56581 0.01651 0.64092 0.0
C1556 C 0.5527 0.00691 0.61019 0.0
C1557 C 0.58359 0.01654 0.62201 0.0
C1558 C 0.58873 0.00658 0.57295 0.0
C1559 C 0.57578 0.99666 0.54312 0.0
C1560 C 0.55796 0.99695 0.56115 0.0
C1561 C 0.60751 0.00671 0.55181 0.0
C1562 C 0.61397 0.02181 0.52297 0.0
C1563 C 0.61866 0.99168 0.55704 0.0
C1564 C 0.61306 0.97599 0.59141 0.0
C1565 C 0.6127 0.95903 0.56583 0.0
C1566 C 0.60738 0.94429 0.59858 0.0
C1567 C 0.6025 0.94635 0.65704 0.0
C1568 C 0.60299 0.96315 0.68295 0.0
C1569 C 0.6083 0.97791 0.65038 0.0
H1570 H 0.59839 0.93493 0.68229 0.0
H1571 H 0.65386 0.08316 0.40215 0.0
H1572 H 0.54464 0.69911 0.41069 0.0
H1573 H 0.54235 0.67016 0.45827 0.0
H1574 H 0.48542 0.67588 0.46775 0.0
H1575 H 0.48756 0.7048 0.41962 0.0
H1576 H 0.49821 0.6607 0.56689 0.0
H1577 H 0.50456 0.65081 0.36083 0.0
H1578 H 0.51877 0.65392 0.26445 0.0
H1579 H 0.56654 0.6302 0.33094 0.0
H1580 H 0.55269 0.62718 0.42798 0.0
H1581 H 0.47946 0.56944 0.62424 0.0
H1582 H 0.48081 0.59971 0.58628 0.0
H1583 H 0.53623 0.59228 0.54373 0.0
H1584 H 0.53437 0.5615 0.57731 0.0
H1585 H 0.52343 0.60896 0.46158 0.0
H1586 H 0.51771 0.62042 0.67018 0.0
H1587 H 0.50313 0.61692 0.766 0.0
H1588 H 0.45421 0.63659 0.6944 0.0
H1589 H 0.46859 0.64057 0.59877 0.0
C1590 C 0.5316 0.69427 0.42286 0.0
C1591 C 0.51628 0.70436 0.41056 0.0
C1592 C 0.53031 0.67766 0.45025 0.0
C1593 C 0.51367 0.67059 0.46586 0.0
C1594 C 0.49842 0.68095 0.45614 0.0
C1595 C 0.49969 0.69759 0.42872 0.0
C1596 C 0.51215 0.65212 0.48985 0.0
C1597 C 0.50364 0.64937 0.54367 0.0
C1598 C 0.51935 0.63724 0.46023 0.0
C1599 C 0.52765 0.63892 0.40179 0.0
C1600 C 0.51814 0.64637 0.35499 0.0
C1601 C 0.52612 0.6481 0.30024 0.0
C1602 C 0.54356 0.6423 0.29161 0.0
C1603 C 0.55304 0.63471 0.3377 0.0
C1604 C 0.54513 0.63297 0.39258 0.0
C1605 C 0.49195 0.57433 0.60714 0.0
C1606 C 0.50683 0.56309 0.60405 0.0
C1607 C 0.4928 0.59179 0.58583 0.0
C1608 C 0.50877 0.59875 0.56316 0.0
C1609 C 0.5237 0.58746 0.5608 0.0
C1610 C 0.52267 0.56983 0.58027 0.0
C1611 C 0.50988 0.61742 0.5397 0.0
C1612 C 0.51819 0.62024 0.48549 0.0
C1613 C 0.50258 0.63234 0.56918 0.0
C1614 C 0.4942 0.63073 0.62738 0.0
C1615 C 0.50387 0.62409 0.67509 0.0
C1616 C 0.49566 0.62209 0.72942 0.0
C1617 C 0.47778 0.62665 0.73645 0.0
C1618 C 0.4681 0.63329 0.68924 0.0
C1619 C 0.4763 0.63552 0.63505 0.0
H1620 H 0.47144 0.62502 0.77844 0.0
H1621 H 0.54972 0.64366 0.24919 0.0
H1622 H 0.80648 0.4801 0.42963 0.0
H1623 H 0.83557 0.48038 0.47761 0.0
H1624 H 0.83823 0.53725 0.45782 0.0
H1625 H 0.80934 0.53704 0.40866 0.0
H1626 H 0.8691 0.52055 0.42297 0.0
H1627 H 0.8288 0.5174 0.58699 0.0
H1628 H 0.804 0.50325 0.63957 0.0
H1629 H 0.8348 0.45576 0.66069 0.0
H1630 H 0.8595 0.46927 0.60573 0.0
H1631 H 0.94798 0.53453 0.58307 0.0
H1632 H 0.91721 0.53578 0.54828 0.0
H1633 H 0.90927 0.48143 0.6023 0.0
H1634 H 0.93982 0.48054 0.63908 0.0
H1635 H 0.88035 0.49709 0.62171 0.0
H1636 H 0.91747 0.49531 0.45329 0.0
H1637 H 0.94173 0.50441 0.38737 0.0
H1638 H 0.91746 0.55558 0.36582 0.0
H1639 H 0.89317 0.54686 0.43225 0.0
C1640 C 0.81321 0.49269 0.43557 0.0
C1641 C 0.80545 0.50856 0.41522 0.0
C1642 C 0.82983 0.49284 0.46339 0.0
C1643 C 0.83913 0.50886 0.47177 0.0
C1644 C 0.83135 0.52472 0.45209 0.0
C1645 C 0.8147 0.5246 0.42446 0.0
C1646 C 0.85717 0.50906 0.49934 0.0
C1647 C 0.87151 0.5157 0.46682 0.0
C1648 C 0.86049 0.50203 0.55568 0.0
C1649 C 0.84598 0.49431 0.59161 0.0
C1650 C 0.83025 0.50388 0.60233 0.0
C1651 C 0.81617 0.49594 0.63239 0.0
C1652 C 0.81782 0.47863 0.6535 0.0
C1653 C 0.83352 0.46917 0.64424 0.0
C1654 C 0.84755 0.47693 0.61342 0.0
C1655 C 0.93962 0.52289 0.58761 0.0
C1656 C 0.94628 0.50746 0.61408 0.0
C1657 C 0.92201 0.52355 0.56743 0.0
C1658 C 0.9108 0.50857 0.57123 0.0
C1659 C 0.91745 0.49323 0.59863 0.0
C1660 C 0.93494 0.49271 0.61988 0.0
C1661 C 0.89242 0.5087 0.54529 0.0
C1662 C 0.87799 0.50209 0.57802 0.0
C1663 C 0.88904 0.5152 0.48822 0.0
C1664 C 0.90361 0.5205 0.44823 0.0
C1665 C 0.91738 0.50855 0.43481 0.0
C1666 C 0.93112 0.51363 0.39732 0.0
C1667 C 0.93116 0.53058 0.37256 0.0
C1668 C 0.91743 0.54247 0.38512 0.0
C1669 C 0.90366 0.53746 0.42265 0.0
H1670 H 0.94181 0.53449 0.34354 0.0
H1671 H 0.80696 0.47259 0.67728 0.0
loop_
_geom_bond_atom_site_label_1
_geom_bond_atom_site_label_2
_geom_bond_distance
_geom_bond_site_symmetry_2
_ccdc_geom_bond_type
C0 C1 1.386 . S
C0 C2 1.397 . S
C0 H24 0.931 . S
C1 C0 1.386 . S
C1 C5 1.397 . S
C2 C0 1.397 . S
C2 C3 1.384 . S
C2 H25 0.930 . S
C3 C2 1.384 . S
C3 C4 1.377 . S
C3 C6 1.481 . S
C4 C3 1.377 . S
C4 C5 1.389 . S
C4 H26 0.929 . S
C5 C1 1.397 . S
C5 C4 1.389 . S
C5 H27 0.931 . S
C6 C3 1.481 . S
C6 C7 1.387 . S
C6 C11 1.390 . S
C7 C6 1.387 . S
C7 C8 1.401 . S
C7 H28 0.930 . S
C8 C7 1.401 . S
C8 C9 1.376 . S
C8 C17 1.511 . S
C9 C8 1.376 . S
C9 C10 1.392 . S
C9 H30 0.931 . S
C10 C9 1.392 . S
C10 C11 1.361 . S
C10 C12 1.500 . S
C11 C6 1.390 . S
C11 C10 1.361 . S
C11 H29 0.931 . S
C12 C10 1.500 . S
C12 C13 1.371 . S
C12 C14 1.365 . S
C13 C12 1.371 . S
C13 C23 1.386 . S
C13 H31 0.931 . S
C14 C12 1.365 . S
C14 C15 1.409 . S
C14 H32 0.929 . S
C15 C14 1.409 . S
C15 C16 1.380 . S
C15 H33 0.930 . S
C16 C15 1.380 . S
C16 C23 1.357 . S
C17 C8 1.511 . S
C17 C18 1.341 . S
C17 C19 1.371 . S
C18 C17 1.341 . S
C18 C22 1.394 . S
C18 H34 0.930 . S
C19 C17 1.371 . S
C19 C20 1.392 . S
C19 H35 0.931 . S
C20 C19 1.392 . S
C20 C21 1.331 . S
C20 H38 0.932 . S
C21 C20 1.331 . S
C21 C22 1.336 . S
C22 C18 1.394 . S
C22 C21 1.336 . S
C22 H37 0.929 . S
C23 C13 1.386 . S
C23 C16 1.357 . S
C23 H36 0.928 . S
H24 C0 0.931 . S
H25 C2 0.930 . S
H26 C4 0.929 . S
H27 C5 0.931 . S
H28 C7 0.930 . S
H29 C11 0.931 . S
H30 C9 0.931 . S
H31 C13 0.931 . S
H32 C14 0.929 . S
H33 C15 0.930 . S
H34 C18 0.930 . S
H35 C19 0.931 . S
H36 C23 0.928 . S
H37 C22 0.929 . S
H38 C20 0.932 . S
C39 C40 1.394 . S
C39 C41 1.397 . S
C39 H63 0.931 . S
C40 C39 1.394 . S
C40 C44 1.389 1_655 S
C41 C39 1.397 . S
C41 C42 1.389 . S
C41 H64 0.930 . S
C42 C41 1.389 . S
C42 C43 1.373 1_655 S
C42 C45 1.480 . S
C43 C42 1.373 1_455 S
C43 C44 1.389 . S
C43 H65 0.929 . S
C44 C40 1.389 1_455 S
C44 C43 1.389 . S
C44 H66 0.931 . S
C45 C42 1.480 . S
C45 C46 1.388 . S
C45 C50 1.390 . S
C46 C45 1.388 . S
C46 C47 1.402 . S
C46 H67 0.930 . S
C47 C46 1.402 . S
C47 C48 1.376 . S
C47 C56 1.513 . S
C48 C47 1.376 . S
C48 C49 1.392 . S
C48 H69 0.934 . S
C49 C48 1.392 . S
C49 C50 1.361 . S
C49 C51 1.499 1_655 S
C50 C45 1.390 . S
C50 C49 1.361 . S
C50 H68 0.931 . S
C51 C49 1.499 1_455 S
C51 C52 1.364 1_455 S
C51 C53 1.373 . S
C52 C51 1.364 1_655 S
C52 C62 1.386 . S
C52 H70 0.931 . S
C53 C51 1.373 . S
C53 C54 1.409 . S
C53 H71 0.929 . S
C54 C53 1.409 . S
C54 C55 1.377 . S
C54 H72 0.930 . S
C55 C54 1.377 . S
C55 C62 1.360 1_455 S
C56 C47 1.513 . S
C56 C57 1.341 . S
C56 C58 1.371 1_655 S
C57 C56 1.341 . S
C57 C61 1.394 . S
C57 H73 0.930 . S
C58 C56 1.371 1_455 S
C58 C59 1.392 . S
C58 H74 0.931 . S
C59 C58 1.392 . S
C59 C60 1.322 1_455 S
C59 H77 0.932 . S
C60 C59 1.322 1_655 S
C60 C61 1.345 . S
C61 C57 1.394 . S
C61 C60 1.345 . S
C61 H76 0.929 . S
C62 C52 1.386 . S
C62 C55 1.360 1_655 S
C62 H75 0.928 . S
H63 C39 0.931 . S
H64 C41 0.930 . S
H65 C43 0.929 . S
H66 C44 0.931 . S
H67 C46 0.930 . S
H68 C50 0.931 . S
H69 C48 0.934 . S
H70 C52 0.931 . S
H71 C53 0.929 . S
H72 C54 0.930 . S
H73 C57 0.930 . S
H74 C58 0.931 . S
H75 C62 0.928 . S
H76 C61 0.929 . S
H77 C59 0.932 . S
C78 C79 1.386 . S
C78 C80 1.397 . S
C78 H102 0.931 . S
C79 C78 1.386 . S
C79 C83 1.397 1_565 S
C80 C78 1.397 . S
C80 C81 1.384 . S
C80 H103 0.930 . S
C81 C80 1.384 . S
C81 C82 1.377 1_565 S
C81 C84 1.481 . S
C82 C81 1.377 1_545 S
C82 C83 1.389 . S
C82 H104 0.929 . S
C83 C79 1.397 1_545 S
C83 C82 1.389 . S
C83 H105 0.931 . S
C84 C81 1.481 . S
C84 C85 1.387 . S
C84 C89 1.390 . S
C85 C84 1.387 . S
C85 C86 1.401 . S
C85 H106 0.930 . S
C86 C85 1.401 . S
C86 C87 1.376 . S
C86 C95 1.511 . S
C87 C86 1.376 . S
C87 C88 1.392 . S
C87 H108 0.931 . S
C88 C87 1.392 . S
C88 C89 1.361 . S
C88 C90 1.500 . S
C89 C84 1.390 . S
C89 C88 1.361 . S
C89 H107 0.931 . S
C90 C88 1.500 . S
C90 C91 1.371 . S
C90 C92 1.365 1_565 S
C91 C90 1.371 . S
C91 C101 1.386 . S
C91 H109 0.931 . S
C92 C90 1.365 1_545 S
C92 C93 1.409 . S
C92 H110 0.929 . S
C93 C92 1.409 . S
C93 C94 1.380 1_545 S
C93 H111 0.930 . S
C94 C93 1.380 1_565 S
C94 C101 1.357 . S
C95 C86 1.511 . S
C95 C96 1.341 . S
C95 C97 1.360 1_565 S
C96 C95 1.341 . S
C96 C100 1.394 . S
C96 H112 0.930 . S
C97 C95 1.360 1_545 S
C97 C98 1.394 . S
C97 H113 0.943 . S
C98 C97 1.394 . S
C98 C99 1.331 1_545 S
C98 H116 0.932 . S
C99 C98 1.331 1_565 S
C99 C100 1.336 . S
C100 C96 1.394 . S
C100 C99 1.336 . S
C100 H115 0.929 . S
C101 C91 1.386 . S
C101 C94 1.357 . S
C101 H114 0.928 . S
H102 C78 0.931 . S
H103 C80 0.930 . S
H104 C82 0.929 . S
H105 C83 0.931 . S
H106 C85 0.930 . S
H107 C89 0.931 . S
H108 C87 0.931 . S
H109 C91 0.931 . S
H110 C92 0.929 . S
H111 C93 0.930 . S
H112 C96 0.930 . S
H113 C97 0.943 . S
H114 C101 0.928 . S
H115 C100 0.929 . S
H116 C98 0.932 . S
C117 C118 1.386 . S
C117 C119 1.397 . S
C117 H141 0.931 . S
C118 C117 1.386 . S
C118 C122 1.397 . S
C119 C117 1.397 . S
C119 C120 1.384 . S
C119 H142 0.930 . S
C120 C119 1.384 . S
C120 C121 1.377 . S
C120 C123 1.481 . S
C121 C120 1.377 . S
C121 C122 1.389 . S
C121 H143 0.929 . S
C122 C118 1.397 . S
C122 C121 1.389 . S
C122 H144 0.931 . S
C123 C120 1.481 . S
C123 C124 1.387 . S
C123 C128 1.390 . S
C124 C123 1.387 . S
C124 C125 1.401 . S
C124 H145 0.930 . S
C125 C124 1.401 . S
C125 C126 1.376 . S
C125 C134 1.511 . S
C126 C125 1.376 . S
C126 C127 1.392 . S
C126 H147 0.931 . S
C127 C126 1.392 . S
C127 C128 1.361 . S
C127 C129 1.500 . S
C128 C123 1.390 . S
C128 C127 1.361 . S
C128 H146 0.931 . S
C129 C127 1.500 . S
C129 C130 1.371 . S
C129 C131 1.365 . S
C130 C129 1.371 . S
C130 C140 1.386 . S
C130 H148 0.931 . S
C131 C129 1.365 . S
C131 C132 1.409 . S
C131 H149 0.929 . S
C132 C131 1.409 . S
C132 C133 1.380 . S
C132 H150 0.930 . S
C133 C132 1.380 . S
C133 C140 1.357 . S
C134 C125 1.511 . S
C134 C135 1.341 . S
C134 C136 1.371 . S
C135 C134 1.341 . S
C135 C139 1.394 . S
C135 H151 0.930 . S
C136 C134 1.371 . S
C136 C137 1.392 . S
C136 H152 0.931 . S
C137 C136 1.392 . S
C137 C138 1.331 . S
C137 H155 0.932 . S
C138 C137 1.331 . S
C138 C139 1.336 . S
C139 C135 1.394 . S
C139 C138 1.336 . S
C139 H154 0.929 . S
C140 C130 1.386 . S
C140 C133 1.357 . S
C140 H153 0.928 . S
H141 C117 0.931 . S
H142 C119 0.930 . S
H143 C121 0.929 . S
H144 C122 0.931 . S
H145 C124 0.930 . S
H146 C128 0.931 . S
H147 C126 0.931 . S
H148 C130 0.931 . S
H149 C131 0.929 . S
H150 C132 0.930 . S
H151 C135 0.930 . S
H152 C136 0.931 . S
H153 C140 0.928 . S
H154 C139 0.929 . S
H155 C137 0.932 . S
C156 C157 1.386 . S
C156 C158 1.397 . S
C156 H180 0.931 . S
C157 C156 1.386 . S
C157 C161 1.397 . S
C158 C156 1.397 . S
C158 C159 1.384 . S
C158 H181 0.930 . S
C159 C158 1.384 . S
C159 C160 1.377 . S
C159 C162 1.481 . S
C160 C159 1.377 . S
C160 C161 1.389 . S
C160 H182 0.929 . S
C161 C157 1.397 . S
C161 C160 1.389 . S
C161 H183 0.931 . S
C162 C159 1.481 . S
C162 C163 1.387 . S
C162 C167 1.390 . S
C163 C162 1.387 . S
C163 C164 1.401 . S
C163 H184 0.930 . S
C164 C163 1.401 . S
C164 C165 1.376 1_554 S
C164 C173 1.511 . S
C165 C164 1.376 1_556 S
C165 C166 1.392 . S
C165 H186 0.931 . S
C166 C165 1.392 . S
C166 C167 1.361 1_556 S
C166 C168 1.500 . S
C167 C162 1.390 . S
C167 C166 1.361 1_554 S
C167 H185 0.931 . S
C168 C166 1.500 . S
C168 C169 1.371 . S
C168 C170 1.365 . S
C169 C168 1.371 . S
C169 C179 1.386 . S
C169 H187 0.931 . S
C170 C168 1.365 . S
C170 C171 1.409 . S
C170 H188 0.929 . S
C171 C170 1.409 . S
C171 C172 1.380 . S
C171 H189 0.930 . S
C172 C171 1.380 . S
C172 C179 1.357 . S
C173 C164 1.511 . S
C173 C174 1.341 . S
C173 C175 1.371 . S
C174 C173 1.341 . S
C174 C178 1.394 . S
C174 H190 0.930 . S
C175 C173 1.371 . S
C175 C176 1.392 . S
C175 H191 0.931 1_554 S
C176 C175 1.392 . S
C176 C177 1.331 . S
C176 H194 0.932 . S
C177 C176 1.331 . S
C177 C178 1.336 . S
C178 C174 1.394 . S
C178 C177 1.336 . S
C178 H193 0.929 . S
C179 C169 1.386 . S
C179 C172 1.357 . S
C179 H192 0.928 . S
H180 C156 0.931 . S
H181 C158 0.930 . S
H182 C160 0.929 . S
H183 C161 0.931 . S
H184 C163 0.930 . S
H185 C167 0.931 . S
H186 C165 0.931 . S
H187 C169 0.931 . S
H188 C170 0.929 . S
H189 C171 0.930 . S
H190 C174 0.930 . S
H191 C175 0.931 1_556 S
H192 C179 0.928 . S
H193 C178 0.929 . S
H194 C176 0.932 . S
C195 C196 1.385 . S
C195 C197 1.397 . S
C195 H219 0.931 . S
C196 C195 1.385 . S
C196 C200 1.398 1_655 S
C197 C195 1.397 . S
C197 C198 1.389 1_655 S
C197 H220 0.930 . S
C198 C197 1.389 1_455 S
C198 C199 1.373 . S
C198 C201 1.480 1_455 S
C199 C198 1.373 . S
C199 C200 1.389 . S
C199 H221 0.929 . S
C200 C196 1.398 1_455 S
C200 C199 1.389 . S
C200 H222 0.931 . S
C201 C198 1.480 1_655 S
C201 C202 1.386 . S
C201 C206 1.390 . S
C202 C201 1.386 . S
C202 C203 1.400 . S
C202 H223 0.935 . S
C203 C202 1.400 . S
C203 C204 1.376 1_554 S
C203 C212 1.512 . S
C204 C203 1.376 1_556 S
C204 C205 1.392 1_655 S
C204 H225 0.933 . S
C205 C204 1.392 1_455 S
C205 C206 1.361 1_456 S
C205 C207 1.499 . S
C206 C201 1.390 . S
C206 C205 1.361 1_654 S
C206 H224 0.931 1_655 S
C207 C205 1.499 . S
C207 C208 1.357 1_455 S
C207 C209 1.380 . S
C208 C207 1.357 1_655 S
C208 C218 1.386 . S
C208 H226 0.931 . S
C209 C207 1.380 . S
C209 C210 1.409 . S
C209 H227 0.929 . S
C210 C209 1.409 . S
C210 C211 1.384 . S
C210 H228 0.930 . S
C211 C210 1.384 . S
C211 C218 1.353 1_455 S
C212 C203 1.512 . S
C212 C213 1.341 . S
C212 C214 1.371 1_655 S
C213 C212 1.341 . S
C213 C217 1.394 . S
C213 H229 0.930 . S
C214 C212 1.371 1_455 S
C214 C215 1.392 . S
C214 H230 0.931 1_554 S
C215 C214 1.392 . S
C215 C216 1.327 1_455 S
C215 H233 0.932 . S
C216 C215 1.327 1_655 S
C216 C217 1.340 . S
C217 C213 1.394 . S
C217 C216 1.340 . S
C217 H232 0.929 . S
C218 C208 1.386 . S
C218 C211 1.353 1_655 S
C218 H231 0.928 . S
H219 C195 0.931 . S
H220 C197 0.930 . S
H221 C199 0.929 . S
H222 C200 0.931 . S
H223 C202 0.935 . S
H224 C206 0.931 1_455 S
H225 C204 0.933 . S
H226 C208 0.931 . S
H227 C209 0.929 . S
H228 C210 0.930 . S
H229 C213 0.930 . S
H230 C214 0.931 1_556 S
H231 C218 0.928 . S
H232 C217 0.929 . S
H233 C215 0.932 . S
C234 C235 1.386 1_565 S
C234 C236 1.397 . S
C234 H258 0.931 . S
C235 C234 1.386 1_545 S
C235 C239 1.397 . S
C236 C234 1.397 . S
C236 C237 1.384 1_565 S
C236 H259 0.930 . S
C237 C236 1.384 1_545 S
C237 C238 1.377 . S
C237 C240 1.481 . S
C238 C237 1.377 . S
C238 C239 1.389 . S
C238 H260 0.929 . S
C239 C235 1.397 . S
C239 C238 1.389 . S
C239 H261 0.931 . S
C240 C237 1.481 . S
C240 C241 1.387 . S
C240 C245 1.390 . S
C241 C240 1.387 . S
C241 C242 1.401 . S
C241 H262 0.930 . S
C242 C241 1.401 . S
C242 C243 1.376 1_554 S
C242 C251 1.511 . S
C243 C242 1.376 1_556 S
C243 C244 1.392 . S
C243 H264 0.931 . S
C244 C243 1.392 . S
C244 C245 1.361 1_556 S
C244 C246 1.500 . S
C245 C240 1.390 . S
C245 C244 1.361 1_554 S
C245 H263 0.931 . S
C246 C244 1.500 . S
C246 C247 1.371 1_545 S
C246 C248 1.365 . S
C247 C246 1.371 1_565 S
C247 C257 1.386 . S
C247 H265 0.931 . S
C248 C246 1.365 . S
C248 C249 1.409 . S
C248 H266 0.929 . S
C249 C248 1.409 . S
C249 C250 1.380 . S
C249 H267 0.930 . S
C250 C249 1.380 . S
C250 C257 1.357 1_545 S
C251 C242 1.511 . S
C251 C252 1.335 1_545 S
C251 C253 1.371 . S
C252 C251 1.335 1_565 S
C252 C256 1.393 1_565 S
C252 H268 0.938 . S
C253 C251 1.371 . S
C253 C254 1.392 . S
C253 H269 0.931 1_554 S
C254 C253 1.392 . S
C254 C255 1.331 . S
C254 H272 0.932 . S
C255 C254 1.331 . S
C255 C256 1.335 . S
C256 C252 1.393 1_545 S
C256 C255 1.335 . S
C256 H271 0.930 1_545 S
C257 C247 1.386 . S
C257 C250 1.357 1_565 S
C257 H270 0.928 . S
H258 C234 0.931 . S
H259 C236 0.930 . S
H260 C238 0.929 . S
H261 C239 0.931 . S
H262 C241 0.930 . S
H263 C245 0.931 . S
H264 C243 0.931 . S
H265 C247 0.931 . S
H266 C248 0.929 . S
H267 C249 0.930 . S
H268 C252 0.938 . S
H269 C253 0.931 1_556 S
H270 C257 0.928 . S
H271 C256 0.930 1_565 S
H272 C254 0.932 . S
C273 C274 1.386 . S
C273 C275 1.397 . S
C273 H297 0.931 . S
C274 C273 1.386 . S
C274 C278 1.397 . S
C275 C273 1.397 . S
C275 C276 1.384 . S
C275 H298 0.930 . S
C276 C275 1.384 . S
C276 C277 1.377 . S
C276 C279 1.481 . S
C277 C276 1.377 . S
C277 C278 1.389 . S
C277 H299 0.929 . S
C278 C274 1.397 . S
C278 C277 1.389 . S
C278 H300 0.931 . S
C279 C276 1.481 . S
C279 C280 1.387 . S
C279 C284 1.390 1_556 S
C280 C279 1.387 . S
C280 C281 1.401 1_556 S
C280 H301 0.930 . S
C281 C280 1.401 1_554 S
C281 C282 1.376 . S
C281 C290 1.511 . S
C282 C281 1.376 . S
C282 C283 1.392 . S
C282 H303 0.931 . S
C283 C282 1.392 . S
C283 C284 1.361 . S
C283 C285 1.500 . S
C284 C279 1.390 1_554 S
C284 C283 1.361 . S
C284 H302 0.931 . S
C285 C283 1.500 . S
C285 C286 1.371 . S
C285 C287 1.365 . S
C286 C285 1.371 . S
C286 C296 1.386 . S
C286 H304 0.931 . S
C287 C285 1.365 . S
C287 C288 1.409 . S
C287 H305 0.929 . S
C288 C287 1.409 . S
C288 C289 1.380 . S
C288 H306 0.930 . S
C289 C288 1.380 . S
C289 C296 1.357 . S
C290 C281 1.511 . S
C290 C291 1.341 . S
C290 C292 1.371 . S
C291 C290 1.341 . S
C291 C295 1.394 . S
C291 H307 0.930 1_554 S
C292 C290 1.371 . S
C292 C293 1.392 . S
C292 H308 0.931 . S
C293 C292 1.392 . S
C293 C294 1.331 . S
C293 H311 0.932 . S
C294 C293 1.331 . S
C294 C295 1.336 . S
C295 C291 1.394 . S
C295 C294 1.336 . S
C295 H310 0.929 . S
C296 C286 1.386 . S
C296 C289 1.357 . S
C296 H309 0.928 . S
H297 C273 0.931 . S
H298 C275 0.930 . S
H299 C277 0.929 . S
H300 C278 0.931 . S
H301 C280 0.930 . S
H302 C284 0.931 . S
H303 C282 0.931 . S
H304 C286 0.931 . S
H305 C287 0.929 . S
H306 C288 0.930 . S
H307 C291 0.930 1_556 S
H308 C292 0.931 . S
H309 C296 0.928 . S
H310 C295 0.929 . S
H311 C293 0.932 . S
La312 C314 2.928 . S
La312 O332 2.521 . S
La312 O333 2.628 . S
La312 O334 2.554 . S
La312 O335 2.757 1_565 S
La312 O336 2.470 . S
La312 O341 2.482 1_455 S
La312 O343 2.503 1_565 S
La313 C323 2.928 . S
La313 O335 2.482 1_655 S
La313 O337 2.503 1_545 S
La313 O338 2.521 . S
La313 O339 2.628 . S
La313 O340 2.554 . S
La313 O341 2.757 1_545 S
La313 O342 2.470 . S
C314 La312 2.928 . S
C314 C315 1.503 . S
C314 O332 1.261 . S
C314 O333 1.243 . S
C315 C314 1.503 . S
C315 C316 1.394 . S
C315 C320 1.373 . S
C316 C315 1.394 . S
C316 C317 1.380 . S
C316 H344 0.930 . S
C317 C316 1.380 . S
C317 C318 1.376 . S
C317 H345 0.930 . S
C318 C317 1.376 . S
C318 C319 1.370 . S
C319 C318 1.370 . S
C319 C320 1.396 . S
C319 H346 0.929 1_455 S
C320 C315 1.373 . S
C320 C319 1.396 . S
C320 H347 0.929 1_455 S
C321 O334 1.220 1_545 S
C321 O335 1.303 . S
C322 O336 1.258 1_655 S
C322 O337 1.256 . S
C323 La313 2.928 . S
C323 C324 1.503 . S
C323 O338 1.261 . S
C323 O339 1.243 . S
C324 C323 1.503 . S
C324 C325 1.394 . S
C324 C329 1.373 . S
C325 C324 1.394 . S
C325 C326 1.380 . S
C325 H348 0.930 . S
C326 C325 1.380 . S
C326 C327 1.376 . S
C326 H349 0.930 . S
C327 C326 1.376 . S
C327 C328 1.370 . S
C328 C327 1.370 . S
C328 C329 1.396 . S
C328 H350 0.929 1_655 S
C329 C324 1.373 . S
C329 C328 1.396 . S
C329 H351 0.929 1_655 S
C330 O340 1.240 . S
C330 O341 1.289 1_545 S
C331 O342 1.258 1_455 S
C331 O343 1.256 . S
O332 La312 2.521 . S
O332 C314 1.261 . S
O333 La312 2.628 . S
O333 C314 1.243 . S
O334 La312 2.554 . S
O334 C321 1.220 1_565 S
O335 La312 2.757 1_545 S
O335 La313 2.482 1_455 S
O335 C321 1.303 . S
O336 La312 2.470 . S
O336 C322 1.258 1_455 S
O337 La313 2.503 1_565 S
O337 C322 1.256 . S
O338 La313 2.521 . S
O338 C323 1.261 . S
O339 La313 2.628 . S
O339 C323 1.243 . S
O340 La313 2.554 . S
O340 C330 1.240 . S
O341 La312 2.482 1_655 S
O341 La313 2.757 1_565 S
O341 C330 1.289 1_565 S
O342 La313 2.470 . S
O342 C331 1.258 1_655 S
O343 La312 2.503 1_545 S
O343 C331 1.256 . S
H344 C316 0.930 . S
H345 C317 0.930 . S
H346 C319 0.929 1_655 S
H347 C320 0.929 1_655 S
H348 C325 0.930 . S
H349 C326 0.930 . S
H350 C328 0.929 1_455 S
H351 C329 0.929 1_455 S
La352 C354 2.928 . S
La352 O372 2.521 . S
La352 O373 2.628 . S
La352 O374 2.554 . S
La352 O375 2.757 . S
La352 O376 2.470 . S
La352 O381 2.482 1_545 S
La352 O383 2.503 . S
La353 C363 2.928 . S
La353 O375 2.482 1_565 S
La353 O377 2.503 . S
La353 O378 2.521 . S
La353 O379 2.623 1_565 S
La353 O380 2.554 . S
La353 O381 2.757 . S
La353 O382 2.470 . S
C354 La352 2.928 . S
C354 C355 1.503 . S
C354 O372 1.261 . S
C354 O373 1.243 . S
C355 C354 1.503 . S
C355 C356 1.394 . S
C355 C360 1.373 . S
C356 C355 1.394 . S
C356 C357 1.380 . S
C356 H384 0.930 . S
C357 C356 1.380 . S
C357 C358 1.376 . S
C357 H385 0.930 . S
C358 C357 1.376 . S
C358 C359 1.370 . S
C359 C358 1.370 . S
C359 C360 1.396 . S
C359 H386 0.929 1_545 S
C360 C355 1.373 . S
C360 C359 1.396 . S
C360 H387 0.929 1_545 S
C361 O374 1.240 . S
C361 O375 1.289 . S
C362 O376 1.258 1_565 S
C362 O377 1.256 . S
C363 La353 2.928 . S
C363 C364 1.503 . S
C363 O378 1.261 . S
C363 O379 1.230 1_565 S
C364 C363 1.503 . S
C364 C365 1.394 . S
C364 C369 1.373 . S
C365 C364 1.394 . S
C365 C366 1.380 . S
C365 H388 0.930 . S
C366 C365 1.380 . S
C366 C367 1.376 . S
C366 H389 0.930 . S
C367 C366 1.376 . S
C367 C368 1.370 . S
C368 C367 1.370 . S
C368 C369 1.396 . S
C368 H390 0.929 1_565 S
C369 C364 1.373 . S
C369 C368 1.396 . S
C369 H391 0.929 1_565 S
C370 O380 1.240 . S
C370 O381 1.289 . S
C371 O382 1.258 1_545 S
C371 O383 1.256 . S
O372 La352 2.521 . S
O372 C354 1.261 . S
O373 La352 2.628 . S
O373 C354 1.243 . S
O374 La352 2.554 . S
O374 C361 1.240 . S
O375 La352 2.757 . S
O375 La353 2.482 1_545 S
O375 C361 1.289 . S
O376 La352 2.470 . S
O376 C362 1.258 1_545 S
O377 La353 2.503 . S
O377 C362 1.256 . S
O378 La353 2.521 . S
O378 C363 1.261 . S
O379 La353 2.623 1_545 S
O379 C363 1.230 1_545 S
O380 La353 2.554 . S
O380 C370 1.240 . S
O381 La352 2.482 1_565 S
O381 La353 2.757 . S
O381 C370 1.289 . S
O382 La353 2.470 . S
O382 C371 1.258 1_565 S
O383 La352 2.503 . S
O383 C371 1.256 . S
H384 C356 0.930 . S
H385 C357 0.930 . S
H386 C359 0.929 1_565 S
H387 C360 0.929 1_565 S
H388 C365 0.930 . S
H389 C366 0.930 . S
H390 C368 0.929 1_545 S
H391 C369 0.929 1_545 S
La392 C394 2.928 . S
La392 O412 2.521 . S
La392 O413 2.628 . S
La392 O414 2.554 . S
La392 O415 2.757 . S
La392 O416 2.470 . S
La392 O421 2.482 . S
La392 O423 2.503 . S
La393 C403 2.928 . S
La393 O415 2.482 . S
La393 O417 2.503 . S
La393 O418 2.521 . S
La393 O419 2.628 . S
La393 O420 2.554 . S
La393 O421 2.757 . S
La393 O422 2.470 . S
C394 La392 2.928 . S
C394 C395 1.503 . S
C394 O412 1.261 . S
C394 O413 1.243 . S
C395 C394 1.503 . S
C395 C396 1.394 . S
C395 C400 1.373 . S
C396 C395 1.394 . S
C396 C397 1.380 . S
C396 H424 0.930 . S
C397 C396 1.380 . S
C397 C398 1.376 . S
C397 H425 0.930 . S
C398 C397 1.376 . S
C398 C399 1.370 . S
C399 C398 1.370 . S
C399 C400 1.396 . S
C399 H426 0.929 . S
C400 C395 1.373 . S
C400 C399 1.396 . S
C400 H427 0.929 . S
C401 O414 1.240 . S
C401 O415 1.289 . S
C402 O416 1.258 . S
C402 O417 1.256 . S
C403 La393 2.928 . S
C403 C404 1.503 . S
C403 O418 1.261 . S
C403 O419 1.243 . S
C404 C403 1.503 . S
C404 C405 1.394 . S
C404 C409 1.373 . S
C405 C404 1.394 . S
C405 C406 1.380 . S
C405 H428 0.930 . S
C406 C405 1.380 . S
C406 C407 1.376 . S
C406 H429 0.930 . S
C407 C406 1.376 . S
C407 C408 1.370 . S
C408 C407 1.370 . S
C408 C409 1.396 . S
C408 H430 0.929 . S
C409 C404 1.373 . S
C409 C408 1.396 . S
C409 H431 0.929 . S
C410 O420 1.240 . S
C410 O421 1.289 . S
C411 O422 1.258 . S
C411 O423 1.256 . S
O412 La392 2.521 . S
O412 C394 1.261 . S
O413 La392 2.628 . S
O413 C394 1.243 . S
O414 La392 2.554 . S
O414 C401 1.240 . S
O415 La392 2.757 . S
O415 La393 2.482 . S
O415 C401 1.289 . S
O416 La392 2.470 . S
O416 C402 1.258 . S
O417 La393 2.503 . S
O417 C402 1.256 . S
O418 La393 2.521 . S
O418 C403 1.261 . S
O419 La393 2.628 . S
O419 C403 1.243 . S
O420 La393 2.554 . S
O420 C410 1.240 . S
O421 La392 2.482 . S
O421 La393 2.757 . S
O421 C410 1.289 . S
O422 La393 2.470 . S
O422 C411 1.258 . S
O423 La392 2.503 . S
O423 C411 1.256 . S
H424 C396 0.930 . S
H425 C397 0.930 . S
H426 C399 0.929 . S
H427 C400 0.929 . S
H428 C405 0.930 . S
H429 C406 0.930 . S
H430 C408 0.929 . S
H431 C409 0.929 . S
La432 C434 2.928 . S
La432 O452 2.521 . S
La432 O453 2.628 . S
La432 O454 2.554 . S
La432 O455 2.757 1_655 S
La432 O456 2.470 . S
La432 O461 2.482 . S
La432 O463 2.503 1_655 S
La433 C443 2.928 . S
La433 O455 2.482 . S
La433 O457 2.503 1_455 S
La433 O458 2.521 . S
La433 O459 2.628 . S
La433 O460 2.554 . S
La433 O461 2.757 1_455 S
La433 O462 2.470 . S
C434 La432 2.928 . S
C434 C435 1.503 . S
C434 O452 1.261 . S
C434 O453 1.243 . S
C435 C434 1.503 . S
C435 C436 1.394 . S
C435 C440 1.373 . S
C436 C435 1.394 . S
C436 C437 1.380 . S
C436 H464 0.930 . S
C437 C436 1.380 . S
C437 C438 1.376 . S
C437 H465 0.930 . S
C438 C437 1.376 . S
C438 C439 1.370 . S
C439 C438 1.370 . S
C439 C440 1.396 . S
C439 H466 0.929 . S
C440 C435 1.373 . S
C440 C439 1.396 . S
C440 H467 0.929 . S
C441 O454 1.278 . S
C441 O455 1.267 1_655 S
C442 O456 1.258 . S
C442 O457 1.256 . S
C443 La433 2.928 . S
C443 C444 1.503 . S
C443 O458 1.261 . S
C443 O459 1.243 . S
C444 C443 1.503 . S
C444 C445 1.394 . S
C444 C449 1.373 . S
C445 C444 1.394 . S
C445 C446 1.380 . S
C445 H468 0.930 . S
C446 C445 1.380 . S
C446 C447 1.376 . S
C446 H469 0.930 . S
C447 C446 1.376 . S
C447 C448 1.370 . S
C448 C447 1.370 . S
C448 C449 1.396 . S
C448 H470 0.929 . S
C449 C444 1.373 . S
C449 C448 1.396 . S
C449 H471 0.929 . S
C450 O460 1.240 . S
C450 O461 1.289 1_455 S
C451 O462 1.258 . S
C451 O463 1.256 . S
O452 La432 2.521 . S
O452 C434 1.261 . S
O453 La432 2.628 . S
O453 C434 1.243 . S
O454 La432 2.554 . S
O454 C441 1.278 . S
O455 La432 2.757 1_455 S
O455 La433 2.482 . S
O455 C441 1.267 1_455 S
O456 La432 2.470 . S
O456 C442 1.258 . S
O457 La433 2.503 1_655 S
O457 C442 1.256 . S
O458 La433 2.521 . S
O458 C443 1.261 . S
O459 La433 2.628 . S
O459 C443 1.243 . S
O460 La433 2.554 . S
O460 C450 1.240 . S
O461 La432 2.482 . S
O461 La433 2.757 1_655 S
O461 C450 1.289 1_655 S
O462 La433 2.470 . S
O462 C451 1.258 . S
O463 La432 2.503 1_455 S
O463 C451 1.256 . S
H464 C436 0.930 . S
H465 C437 0.930 . S
H466 C439 0.929 . S
H467 C440 0.929 . S
H468 C445 0.930 . S
H469 C446 0.930 . S
H470 C448 0.929 . S
H471 C449 0.929 . S
H472 C490 0.951 . S
H473 C492 0.951 . S
H474 C494 0.950 . S
H475 C495 0.950 . S
H476 C497 0.950 . S
H477 C500 0.950 . S
H478 C501 0.950 . S
H479 C503 0.950 . S
H480 C504 0.950 . S
H481 C505 0.951 . S
H482 C507 0.951 . S
H483 C509 0.950 . S
H484 C510 0.950 . S
H485 C512 0.950 . S
H486 C515 0.950 . S
H487 C516 0.950 . S
H488 C518 0.950 . S
H489 C519 0.950 . S
C490 H472 0.951 . S
C490 C491 1.366 1_565 S
C490 C492 1.388 . S
C491 C490 1.366 1_545 S
C491 C495 1.385 . S
C492 H473 0.951 . S
C492 C490 1.388 . S
C492 C493 1.366 1_565 S
C493 C492 1.366 1_545 S
C493 C494 1.414 . S
C493 C496 1.499 . S
C494 H474 0.950 . S
C494 C493 1.414 . S
C494 C495 1.374 . S
C495 H475 0.950 . S
C495 C491 1.385 . S
C495 C494 1.374 . S
C496 C493 1.499 . S
C496 C497 1.373 . S
C496 C498 1.389 . S
C497 H476 0.950 . S
C497 C496 1.373 . S
C497 C513 1.377 . S
C498 C496 1.389 . S
C498 C499 1.524 . S
C498 C512 1.377 . S
C499 C498 1.524 . S
C499 C500 1.397 . S
C499 C504 1.363 1_545 S
C500 H477 0.950 . S
C500 C499 1.397 . S
C500 C501 1.334 . S
C501 H478 0.950 . S
C501 C500 1.334 . S
C501 C502 1.287 . S
C502 C501 1.287 . S
C502 C503 1.524 1_545 S
C502 H521 0.913 . S
C503 H479 0.950 . S
C503 C502 1.524 1_565 S
C503 C504 1.415 . S
C504 H480 0.950 . S
C504 C499 1.363 1_565 S
C504 C503 1.415 . S
C505 H481 0.951 . S
C505 C506 1.366 . S
C505 C507 1.388 . S
C506 C505 1.366 . S
C506 C510 1.385 1_545 S
C507 H482 0.951 . S
C507 C505 1.388 . S
C507 C508 1.366 . S
C508 C507 1.366 . S
C508 C509 1.414 1_545 S
C508 C511 1.499 . S
C509 H483 0.950 . S
C509 C508 1.414 1_565 S
C509 C510 1.374 . S
C510 H484 0.950 . S
C510 C506 1.385 1_565 S
C510 C509 1.374 . S
C511 C508 1.499 . S
C511 C512 1.373 . S
C511 C513 1.389 . S
C512 H485 0.950 . S
C512 C498 1.377 . S
C512 C511 1.373 . S
C513 C497 1.377 . S
C513 C511 1.389 . S
C513 C514 1.524 . S
C514 C513 1.524 . S
C514 C515 1.397 1_545 S
C514 C519 1.363 . S
C515 H486 0.950 . S
C515 C514 1.397 1_565 S
C515 C516 1.334 . S
C516 H487 0.950 . S
C516 C515 1.334 . S
C516 C517 1.287 . S
C517 C516 1.287 . S
C517 C518 1.524 1_565 S
C517 H520 0.999 . S
C518 H488 0.950 . S
C518 C517 1.524 1_545 S
C518 C519 1.415 . S
C519 H489 0.950 . S
C519 C514 1.363 . S
C519 C518 1.415 . S
H520 C517 0.999 . S
H521 C502 0.913 . S
H522 C540 0.951 . S
H523 C542 0.951 . S
H524 C544 0.950 . S
H525 C545 0.950 . S
H526 C547 0.950 . S
H527 C550 0.950 . S
H528 C551 0.950 . S
H529 C553 0.950 . S
H530 C554 0.950 . S
H531 C555 0.951 . S
H532 C557 0.951 . S
H533 C559 0.950 . S
H534 C560 0.950 . S
H535 C562 0.950 . S
H536 C565 0.950 . S
H537 C566 0.950 . S
H538 C568 0.950 . S
H539 C569 0.950 . S
C540 H522 0.951 . S
C540 C541 1.366 . S
C540 C542 1.388 . S
C541 C540 1.366 . S
C541 C545 1.385 . S
C542 H523 0.951 . S
C542 C540 1.388 . S
C542 C543 1.366 . S
C543 C542 1.366 . S
C543 C544 1.414 . S
C543 C546 1.499 . S
C544 H524 0.950 . S
C544 C543 1.414 . S
C544 C545 1.374 . S
C545 H525 0.950 . S
C545 C541 1.385 . S
C545 C544 1.374 . S
C546 C543 1.499 . S
C546 C547 1.373 . S
C546 C548 1.389 . S
C547 H526 0.950 . S
C547 C546 1.373 . S
C547 C563 1.377 . S
C548 C546 1.389 . S
C548 C549 1.524 . S
C548 C562 1.377 . S
C549 C548 1.524 . S
C549 C550 1.397 . S
C549 C554 1.363 . S
C550 H527 0.950 . S
C550 C549 1.397 . S
C550 C551 1.334 . S
C551 H528 0.950 . S
C551 C550 1.334 . S
C551 C552 1.287 . S
C552 C551 1.287 . S
C552 C553 1.524 . S
C552 H571 0.913 . S
C553 H529 0.950 . S
C553 C552 1.524 . S
C553 C554 1.415 . S
C554 H530 0.950 . S
C554 C549 1.363 . S
C554 C553 1.415 . S
C555 H531 0.951 . S
C555 C556 1.366 . S
C555 C557 1.388 . S
C556 C555 1.366 . S
C556 C560 1.385 . S
C557 H532 0.951 . S
C557 C555 1.388 . S
C557 C558 1.366 . S
C558 C557 1.366 . S
C558 C559 1.414 . S
C558 C561 1.499 . S
C559 H533 0.950 . S
C559 C558 1.414 . S
C559 C560 1.374 . S
C560 H534 0.950 . S
C560 C556 1.385 . S
C560 C559 1.374 . S
C561 C558 1.499 . S
C561 C562 1.373 . S
C561 C563 1.389 . S
C562 H535 0.950 . S
C562 C548 1.377 . S
C562 C561 1.373 . S
C563 C547 1.377 . S
C563 C561 1.389 . S
C563 C564 1.524 . S
C564 C563 1.524 . S
C564 C565 1.397 . S
C564 C569 1.363 . S
C565 H536 0.950 . S
C565 C564 1.397 . S
C565 C566 1.334 . S
C566 H537 0.950 . S
C566 C565 1.334 . S
C566 C567 1.287 . S
C567 C566 1.287 . S
C567 C568 1.524 . S
C567 H570 0.999 . S
C568 H538 0.950 . S
C568 C567 1.524 . S
C568 C569 1.415 . S
C569 H539 0.950 . S
C569 C564 1.363 . S
C569 C568 1.415 . S
H570 C567 0.999 . S
H571 C552 0.913 . S
H572 C590 0.951 . S
H573 C592 0.951 . S
H574 C594 0.950 . S
H575 C595 0.950 . S
H576 C597 0.950 . S
H577 C600 0.950 . S
H578 C601 0.950 . S
H579 C603 0.950 . S
H580 C604 0.950 . S
H581 C605 0.951 . S
H582 C607 0.951 . S
H583 C609 0.950 . S
H584 C610 0.950 . S
H585 C612 0.950 . S
H586 C615 0.950 . S
H587 C616 0.950 . S
H588 C618 0.950 . S
H589 C619 0.950 . S
C590 H572 0.951 . S
C590 C591 1.366 . S
C590 C592 1.388 . S
C591 C590 1.366 . S
C591 C595 1.385 . S
C592 H573 0.951 . S
C592 C590 1.388 . S
C592 C593 1.366 . S
C593 C592 1.366 . S
C593 C594 1.414 . S
C593 C596 1.499 . S
C594 H574 0.950 . S
C594 C593 1.414 . S
C594 C595 1.374 . S
C595 H575 0.950 . S
C595 C591 1.385 . S
C595 C594 1.374 . S
C596 C593 1.499 . S
C596 C597 1.373 . S
C596 C598 1.389 . S
C597 H576 0.950 . S
C597 C596 1.373 . S
C597 C613 1.377 . S
C598 C596 1.389 . S
C598 C599 1.524 . S
C598 C612 1.377 . S
C599 C598 1.524 . S
C599 C600 1.397 . S
C599 C604 1.363 . S
C600 H577 0.950 . S
C600 C599 1.397 . S
C600 C601 1.334 . S
C601 H578 0.950 . S
C601 C600 1.334 . S
C601 C602 1.287 . S
C602 C601 1.287 . S
C602 C603 1.524 . S
C602 H621 0.913 . S
C603 H579 0.950 . S
C603 C602 1.524 . S
C603 C604 1.415 . S
C604 H580 0.950 . S
C604 C599 1.363 . S
C604 C603 1.415 . S
C605 H581 0.951 . S
C605 C606 1.366 . S
C605 C607 1.388 . S
C606 C605 1.366 . S
C606 C610 1.385 . S
C607 H582 0.951 . S
C607 C605 1.388 . S
C607 C608 1.366 . S
C608 C607 1.366 . S
C608 C609 1.414 . S
C608 C611 1.499 . S
C609 H583 0.950 . S
C609 C608 1.414 . S
C609 C610 1.374 . S
C610 H584 0.950 . S
C610 C606 1.385 . S
C610 C609 1.374 . S
C611 C608 1.499 . S
C611 C612 1.373 . S
C611 C613 1.389 . S
C612 H585 0.950 . S
C612 C598 1.377 . S
C612 C611 1.373 . S
C613 C597 1.377 . S
C613 C611 1.389 . S
C613 C614 1.524 . S
C614 C613 1.524 . S
C614 C615 1.397 . S
C614 C619 1.363 . S
C615 H586 0.950 . S
C615 C614 1.397 . S
C615 C616 1.334 . S
C616 H587 0.950 . S
C616 C615 1.334 . S
C616 C617 1.287 . S
C617 C616 1.287 . S
C617 C618 1.524 . S
C617 H620 0.999 . S
C618 H588 0.950 . S
C618 C617 1.524 . S
C618 C619 1.415 . S
C619 H589 0.950 . S
C619 C614 1.363 . S
C619 C618 1.415 . S
H620 C617 0.999 . S
H621 C602 0.913 . S
H622 C640 0.951 . S
H623 C642 0.951 . S
H624 C644 0.950 . S
H625 C645 0.950 . S
H626 C647 0.950 . S
H627 C650 0.950 . S
H628 C651 0.950 . S
H629 C653 0.950 . S
H630 C654 0.950 . S
H631 C655 0.951 . S
H632 C657 0.951 . S
H633 C659 0.950 . S
H634 C660 0.950 . S
H635 C662 0.950 . S
H636 C665 0.950 . S
H637 C666 0.950 . S
H638 C668 0.950 . S
H639 C669 0.950 . S
C640 H622 0.951 . S
C640 C641 1.367 . S
C640 C642 1.388 . S
C641 C640 1.367 . S
C641 C645 1.383 1_455 S
C642 H623 0.951 . S
C642 C640 1.388 . S
C642 C643 1.359 1_455 S
C643 C642 1.359 1_655 S
C643 C644 1.420 . S
C643 C646 1.499 . S
C644 H624 0.950 . S
C644 C643 1.420 . S
C644 C645 1.374 . S
C645 H625 0.950 . S
C645 C641 1.383 1_655 S
C645 C644 1.374 . S
C646 C643 1.499 . S
C646 C647 1.351 1_655 S
C646 C648 1.410 . S
C647 H626 0.950 . S
C647 C646 1.351 1_455 S
C647 C663 1.377 . S
C648 C646 1.410 . S
C648 C649 1.524 . S
C648 C662 1.377 . S
C649 C648 1.524 . S
C649 C650 1.397 . S
C649 C654 1.363 . S
C650 H627 0.950 . S
C650 C649 1.397 . S
C650 C651 1.334 . S
C651 H628 0.950 . S
C651 C650 1.334 . S
C651 C652 1.287 . S
C652 C651 1.287 . S
C652 C653 1.524 . S
C652 H671 0.913 . S
C653 H629 0.950 . S
C653 C652 1.524 . S
C653 C654 1.415 . S
C654 H630 0.950 . S
C654 C649 1.363 . S
C654 C653 1.415 . S
C655 H631 0.951 . S
C655 C656 1.357 1_655 S
C655 C657 1.388 . S
C656 C655 1.357 1_455 S
C656 C660 1.397 . S
C657 H632 0.951 . S
C657 C655 1.388 . S
C657 C658 1.366 1_655 S
C658 C657 1.366 1_455 S
C658 C659 1.414 . S
C658 C661 1.499 . S
C659 H633 0.950 . S
C659 C658 1.414 . S
C659 C660 1.374 . S
C660 H634 0.950 . S
C660 C656 1.397 . S
C660 C659 1.374 . S
C661 C658 1.499 . S
C661 C662 1.373 1_455 S
C661 C663 1.389 . S
C662 H635 0.950 . S
C662 C648 1.377 . S
C662 C661 1.373 1_655 S
C663 C647 1.377 . S
C663 C661 1.389 . S
C663 C664 1.524 . S
C664 C663 1.524 . S
C664 C665 1.397 . S
C664 C669 1.363 . S
C665 H636 0.950 . S
C665 C664 1.397 . S
C665 C666 1.334 . S
C666 H637 0.950 . S
C666 C665 1.334 . S
C666 C667 1.287 . S
C667 C666 1.287 . S
C667 C668 1.524 . S
C667 H670 0.999 . S
C668 H638 0.950 . S
C668 C667 1.524 . S
C668 C669 1.415 . S
C669 H639 0.950 . S
C669 C664 1.363 . S
C669 C668 1.415 . S
H670 C667 0.999 . S
H671 C652 0.913 . S
H672 C690 0.951 . S
H673 C692 0.951 . S
H674 C694 0.950 . S
H675 C695 0.950 . S
H676 C697 0.950 . S
H677 C700 0.950 . S
H678 C701 0.950 . S
H679 C703 0.950 . S
H680 C704 0.950 . S
H681 C705 0.951 . S
H682 C707 0.951 . S
H683 C709 0.950 . S
H684 C710 0.950 . S
H685 C712 0.950 . S
H686 C715 0.950 . S
H687 C716 0.950 . S
H688 C718 0.950 1_554 S
H689 C719 0.950 . S
C690 H672 0.951 . S
C690 C691 1.366 . S
C690 C692 1.388 . S
C691 C690 1.366 . S
C691 C695 1.385 1_565 S
C692 H673 0.951 . S
C692 C690 1.388 . S
C692 C693 1.366 . S
C693 C692 1.366 . S
C693 C694 1.414 1_565 S
C693 C696 1.499 . S
C694 H674 0.950 . S
C694 C693 1.414 1_545 S
C694 C695 1.374 . S
C695 H675 0.950 . S
C695 C691 1.385 1_545 S
C695 C694 1.374 . S
C696 C693 1.499 . S
C696 C697 1.373 1_565 S
C696 C698 1.389 1_554 S
C697 H676 0.950 . S
C697 C696 1.373 1_545 S
C697 C713 1.377 1_554 S
C698 C696 1.389 1_556 S
C698 C699 1.524 1_556 S
C698 C712 1.377 . S
C699 C698 1.524 1_554 S
C699 C700 1.397 . S
C699 C704 1.363 1_554 S
C700 H677 0.950 . S
C700 C699 1.397 . S
C700 C701 1.334 . S
C701 H678 0.950 . S
C701 C700 1.334 . S
C701 C702 1.287 . S
C702 C701 1.287 . S
C702 C703 1.524 1_554 S
C702 H721 0.913 . S
C703 H679 0.950 . S
C703 C702 1.524 1_556 S
C703 C704 1.415 . S
C704 H680 0.950 . S
C704 C699 1.363 1_556 S
C704 C703 1.415 . S
C705 H681 0.951 . S
C705 C706 1.352 1_545 S
C705 C707 1.388 . S
C706 C705 1.352 1_565 S
C706 C710 1.401 . S
C707 H682 0.951 . S
C707 C705 1.388 . S
C707 C708 1.358 1_545 S
C708 C707 1.358 1_565 S
C708 C709 1.424 . S
C708 C711 1.498 . S
C709 H683 0.950 . S
C709 C708 1.424 . S
C709 C710 1.374 . S
C710 H684 0.950 . S
C710 C706 1.401 . S
C710 C709 1.374 . S
C711 C708 1.498 . S
C711 C712 1.427 . S
C711 C713 1.341 1_565 S
C712 H685 0.950 . S
C712 C698 1.377 . S
C712 C711 1.427 . S
C713 C697 1.377 1_556 S
C713 C711 1.341 1_545 S
C713 C714 1.524 . S
C714 C713 1.524 . S
C714 C715 1.397 . S
C714 C719 1.363 1_556 S
C715 H686 0.950 . S
C715 C714 1.397 . S
C715 C716 1.334 . S
C716 H687 0.950 . S
C716 C715 1.334 . S
C716 C717 1.287 . S
C717 C716 1.287 . S
C717 C718 1.524 . S
C717 H720 0.999 . S
C718 H688 0.950 1_556 S
C718 C717 1.524 . S
C718 C719 1.415 1_556 S
C719 H689 0.950 . S
C719 C714 1.363 1_554 S
C719 C718 1.415 1_554 S
H720 C717 0.999 . S
H721 C702 0.913 . S
H722 C740 0.951 . S
H723 C742 0.951 . S
H724 C744 0.950 . S
H725 C745 0.950 . S
H726 C747 0.947 1_554 S
H727 C750 0.950 . S
H728 C751 0.950 . S
H729 C753 0.950 . S
H730 C754 0.950 . S
H731 C755 0.951 . S
H732 C757 0.951 . S
H733 C759 0.950 . S
H734 C760 0.950 . S
H735 C762 0.950 . S
H736 C765 0.950 . S
H737 C766 0.950 . S
H738 C768 0.950 . S
H739 C769 0.950 . S
C740 H722 0.951 . S
C740 C741 1.366 . S
C740 C742 1.388 . S
C741 C740 1.366 . S
C741 C745 1.385 . S
C742 H723 0.951 . S
C742 C740 1.388 . S
C742 C743 1.366 . S
C743 C742 1.366 . S
C743 C744 1.414 . S
C743 C746 1.499 . S
C744 H724 0.950 . S
C744 C743 1.414 . S
C744 C745 1.374 . S
C745 H725 0.950 . S
C745 C741 1.385 . S
C745 C744 1.374 . S
C746 C743 1.499 . S
C746 C747 1.366 1_554 S
C746 C748 1.389 . S
C747 H726 0.947 1_556 S
C747 C746 1.366 1_556 S
C747 C763 1.387 . S
C748 C746 1.389 . S
C748 C749 1.524 . S
C748 C762 1.377 1_554 S
C749 C748 1.524 . S
C749 C750 1.397 . S
C749 C754 1.363 . S
C750 H727 0.950 . S
C750 C749 1.397 . S
C750 C751 1.334 . S
C751 H728 0.950 . S
C751 C750 1.334 . S
C751 C752 1.287 . S
C752 C751 1.287 . S
C752 C753 1.524 . S
C752 H771 0.913 . S
C753 H729 0.950 . S
C753 C752 1.524 . S
C753 C754 1.415 . S
C754 H730 0.950 . S
C754 C749 1.363 . S
C754 C753 1.415 . S
C755 H731 0.951 . S
C755 C756 1.366 . S
C755 C757 1.388 . S
C756 C755 1.366 . S
C756 C760 1.385 . S
C757 H732 0.951 . S
C757 C755 1.388 . S
C757 C758 1.366 . S
C758 C757 1.366 . S
C758 C759 1.414 . S
C758 C761 1.499 . S
C759 H733 0.950 . S
C759 C758 1.414 . S
C759 C760 1.374 . S
C760 H734 0.950 . S
C760 C756 1.385 . S
C760 C759 1.374 . S
C761 C758 1.499 . S
C761 C762 1.373 . S
C761 C763 1.389 . S
C762 H735 0.950 . S
C762 C748 1.377 1_556 S
C762 C761 1.373 . S
C763 C747 1.387 . S
C763 C761 1.389 . S
C763 C764 1.524 . S
C764 C763 1.524 . S
C764 C765 1.397 . S
C764 C769 1.363 . S
C765 H736 0.950 . S
C765 C764 1.397 . S
C765 C766 1.334 . S
C766 H737 0.950 . S
C766 C765 1.334 . S
C766 C767 1.287 . S
C767 C766 1.287 . S
C767 C768 1.524 . S
C767 H770 0.999 . S
C768 H738 0.950 . S
C768 C767 1.524 . S
C768 C769 1.415 . S
C769 H739 0.950 . S
C769 C764 1.363 . S
C769 C768 1.415 . S
H770 C767 0.999 . S
H771 C752 0.913 . S
H772 C790 0.951 . S
H773 C792 0.951 . S
H774 C794 0.950 . S
H775 C795 0.950 . S
H776 C797 0.950 . S
H777 C800 0.950 . S
H778 C801 0.950 . S
H779 C803 0.950 . S
H780 C804 0.950 . S
H781 C805 0.951 . S
H782 C807 0.951 . S
H783 C809 0.950 . S
H784 C810 0.950 . S
H785 C812 0.950 . S
H786 C815 0.950 . S
H787 C816 0.950 . S
H788 C818 0.950 . S
H789 C819 0.950 . S
C790 H772 0.951 . S
C790 C791 1.366 . S
C790 C792 1.388 . S
C791 C790 1.366 . S
C791 C795 1.385 . S
C792 H773 0.951 . S
C792 C790 1.388 . S
C792 C793 1.366 . S
C793 C792 1.366 . S
C793 C794 1.414 . S
C793 C796 1.499 . S
C794 H774 0.950 . S
C794 C793 1.414 . S
C794 C795 1.374 . S
C795 H775 0.950 . S
C795 C791 1.385 . S
C795 C794 1.374 . S
C796 C793 1.499 . S
C796 C797 1.373 1_554 S
C796 C798 1.389 . S
C797 H776 0.950 . S
C797 C796 1.373 1_556 S
C797 C813 1.377 . S
C798 C796 1.389 . S
C798 C799 1.524 . S
C798 C812 1.377 1_554 S
C799 C798 1.524 . S
C799 C800 1.397 . S
C799 C804 1.363 . S
C800 H777 0.950 . S
C800 C799 1.397 . S
C800 C801 1.334 . S
C801 H778 0.950 . S
C801 C800 1.334 . S
C801 C802 1.287 . S
C802 C801 1.287 . S
C802 C803 1.524 . S
C802 H821 0.913 . S
C803 H779 0.950 . S
C803 C802 1.524 . S
C803 C804 1.415 . S
C804 H780 0.950 . S
C804 C799 1.363 . S
C804 C803 1.415 . S
C805 H781 0.951 . S
C805 C806 1.366 . S
C805 C807 1.388 . S
C806 C805 1.366 . S
C806 C810 1.385 . S
C807 H782 0.951 . S
C807 C805 1.388 . S
C807 C808 1.366 . S
C808 C807 1.366 . S
C808 C809 1.414 . S
C808 C811 1.499 . S
C809 H783 0.950 . S
C809 C808 1.414 . S
C809 C810 1.374 . S
C810 H784 0.950 . S
C810 C806 1.385 . S
C810 C809 1.374 . S
C811 C808 1.499 . S
C811 C812 1.373 . S
C811 C813 1.389 . S
C812 H785 0.950 . S
C812 C798 1.377 1_556 S
C812 C811 1.373 . S
C813 C797 1.377 . S
C813 C811 1.389 . S
C813 C814 1.524 . S
C814 C813 1.524 . S
C814 C815 1.397 . S
C814 C819 1.363 . S
C815 H786 0.950 . S
C815 C814 1.397 . S
C815 C816 1.334 . S
C816 H787 0.950 . S
C816 C815 1.334 . S
C816 C817 1.287 . S
C817 C816 1.287 . S
C817 C818 1.524 . S
C817 H820 0.999 . S
C818 H788 0.950 . S
C818 C817 1.524 . S
C818 C819 1.415 . S
C819 H789 0.950 . S
C819 C814 1.363 . S
C819 C818 1.415 . S
H820 C817 0.999 . S
H821 C802 0.913 . S
H822 C840 0.951 . S
H823 C842 0.951 . S
H824 C844 0.950 . S
H825 C845 0.950 . S
H826 C847 0.950 . S
H827 C850 0.950 . S
H828 C851 0.950 . S
H829 C853 0.950 . S
H830 C854 0.950 . S
H831 C855 0.951 . S
H832 C857 0.951 . S
H833 C859 0.950 . S
H834 C860 0.950 . S
H835 C862 0.950 . S
H836 C865 0.950 . S
H837 C866 0.986 . S
H838 C868 0.950 . S
H839 C869 0.950 . S
C840 H822 0.951 . S
C840 C841 1.361 1_455 S
C840 C842 1.388 . S
C841 C840 1.361 1_655 S
C841 C845 1.390 . S
C842 H823 0.951 . S
C842 C840 1.388 . S
C842 C843 1.326 1_455 S
C843 C842 1.326 1_655 S
C843 C844 1.453 . S
C843 C846 1.501 . S
C844 H824 0.950 . S
C844 C843 1.453 . S
C844 C845 1.374 . S
C845 H825 0.950 . S
C845 C841 1.390 . S
C845 C844 1.374 . S
C846 C843 1.501 . S
C846 C847 1.373 . S
C846 C848 1.389 1_654 S
C847 H826 0.950 . S
C847 C846 1.373 . S
C847 C863 1.377 1_554 S
C848 C846 1.389 1_456 S
C848 C849 1.524 . S
C848 C862 1.377 . S
C849 C848 1.524 . S
C849 C850 1.397 1_455 S
C849 C854 1.363 . S
C850 H827 0.950 . S
C850 C849 1.397 1_655 S
C850 C851 1.334 . S
C851 H828 0.950 . S
C851 C850 1.334 . S
C851 C852 1.287 1_655 S
C852 C851 1.287 1_455 S
C852 C853 1.524 . S
C852 H871 0.913 . S
C853 H829 0.950 . S
C853 C852 1.524 . S
C853 C854 1.415 . S
C854 H830 0.950 . S
C854 C849 1.363 . S
C854 C853 1.415 . S
C855 H831 0.951 . S
C855 C856 1.417 . S
C855 C857 1.388 . S
C856 C855 1.417 . S
C856 C860 1.333 1_655 S
C857 H832 0.951 . S
C857 C855 1.388 . S
C857 C858 1.383 . S
C858 C857 1.383 . S
C858 C859 1.398 1_655 S
C858 C861 1.498 1_655 S
C859 H833 0.950 . S
C859 C858 1.398 1_455 S
C859 C860 1.374 . S
C860 H834 0.950 . S
C860 C856 1.333 1_455 S
C860 C859 1.374 . S
C861 C858 1.498 1_455 S
C861 C862 1.377 . S
C861 C863 1.386 1_455 S
C862 H835 0.950 . S
C862 C848 1.377 . S
C862 C861 1.377 . S
C863 C847 1.377 1_556 S
C863 C861 1.386 1_655 S
C863 C864 1.525 . S
C864 C863 1.525 . S
C864 C865 1.398 1_655 S
C864 C869 1.361 1_556 S
C865 H836 0.950 . S
C865 C864 1.398 1_455 S
C865 C866 1.342 . S
C866 H837 0.986 . S
C866 C865 1.342 . S
C866 C867 1.244 1_456 S
C867 C866 1.244 1_654 S
C867 C868 1.524 . S
C867 H870 0.999 . S
C868 H838 0.950 . S
C868 C867 1.524 . S
C868 C869 1.415 . S
C869 H839 0.950 . S
C869 C864 1.361 1_554 S
C869 C868 1.415 . S
H870 C867 0.999 . S
H871 C852 0.913 . S
H872 C890 0.951 . S
H873 C892 0.951 . S
H874 C894 0.950 . S
H875 C895 0.950 . S
H876 C897 0.938 1_455 S
H877 C900 0.950 1_455 S
H878 C901 0.950 1_455 S
H879 C903 0.950 . S
H880 C904 0.950 . S
H881 C905 0.951 . S
H882 C907 0.951 1_455 S
H883 C909 0.950 . S
H884 C910 0.950 . S
H885 C912 0.950 . S
H886 C915 0.950 . S
H887 C916 0.950 . S
H888 C918 0.950 . S
H889 C919 0.950 . S
C890 H872 0.951 . S
C890 C891 1.366 1_655 S
C890 C892 1.388 . S
C891 C890 1.366 1_455 S
C891 C895 1.385 . S
C892 H873 0.951 . S
C892 C890 1.388 . S
C892 C893 1.366 . S
C893 C892 1.366 . S
C893 C894 1.414 1_655 S
C893 C896 1.499 . S
C894 H874 0.950 . S
C894 C893 1.414 1_455 S
C894 C895 1.374 . S
C895 H875 0.950 . S
C895 C891 1.385 . S
C895 C894 1.374 . S
C896 C893 1.499 . S
C896 C897 1.373 . S
C896 C898 1.389 . S
C897 H876 0.938 1_655 S
C897 C896 1.373 . S
C897 C913 1.377 . S
C898 C896 1.389 . S
C898 C899 1.524 . S
C898 C912 1.377 . S
C899 C898 1.524 . S
C899 C900 1.397 . S
C899 C904 1.363 . S
C900 H877 0.950 1_655 S
C900 C899 1.397 . S
C900 C901 1.334 . S
C901 H878 0.950 1_655 S
C901 C900 1.334 . S
C901 C902 1.287 . S
C902 C901 1.287 . S
C902 C903 1.524 . S
C902 H921 0.913 . S
C903 H879 0.950 . S
C903 C902 1.524 . S
C903 C904 1.415 . S
C904 H880 0.950 . S
C904 C899 1.363 . S
C904 C903 1.415 . S
C905 H881 0.951 . S
C905 C906 1.366 . S
C905 C907 1.388 . S
C906 C905 1.366 . S
C906 C910 1.385 . S
C907 H882 0.951 1_655 S
C907 C905 1.388 . S
C907 C908 1.366 . S
C908 C907 1.366 . S
C908 C909 1.414 . S
C908 C911 1.499 . S
C909 H883 0.950 . S
C909 C908 1.414 . S
C909 C910 1.374 . S
C910 H884 0.950 . S
C910 C906 1.385 . S
C910 C909 1.374 . S
C911 C908 1.499 . S
C911 C912 1.373 . S
C911 C913 1.389 . S
C912 H885 0.950 . S
C912 C898 1.377 . S
C912 C911 1.373 . S
C913 C897 1.377 . S
C913 C911 1.389 . S
C913 C914 1.524 . S
C914 C913 1.524 . S
C914 C915 1.397 . S
C914 C919 1.363 1_655 S
C915 H886 0.950 . S
C915 C914 1.397 . S
C915 C916 1.334 . S
C916 H887 0.950 . S
C916 C915 1.334 . S
C916 C917 1.287 . S
C917 C916 1.287 . S
C917 C918 1.524 1_655 S
C917 H920 0.999 . S
C918 H888 0.950 . S
C918 C917 1.524 1_455 S
C918 C919 1.415 . S
C919 H889 0.950 . S
C919 C914 1.363 1_455 S
C919 C918 1.415 . S
H920 C917 0.999 . S
H921 C902 0.913 . S
H922 C940 0.951 . S
H923 C942 0.951 . S
H924 C944 0.942 1_565 S
H925 C945 0.950 . S
H926 C947 0.950 . S
H927 C950 0.950 . S
H928 C951 0.950 . S
H929 C953 0.950 . S
H930 C954 0.950 . S
H931 C955 0.951 . S
H932 C957 0.951 . S
H933 C959 0.950 . S
H934 C960 0.950 . S
H935 C962 0.988 . S
H936 C965 0.950 . S
H937 C966 0.950 . S
H938 C968 0.950 . S
H939 C969 0.950 . S
C940 H922 0.951 . S
C940 C941 1.366 . S
C940 C942 1.388 . S
C941 C940 1.366 . S
C941 C945 1.385 . S
C942 H923 0.951 . S
C942 C940 1.388 . S
C942 C943 1.370 . S
C943 C942 1.370 . S
C943 C944 1.414 . S
C943 C946 1.493 1_545 S
C944 H924 0.942 1_545 S
C944 C943 1.414 . S
C944 C945 1.384 . S
C945 H925 0.950 . S
C945 C941 1.385 . S
C945 C944 1.384 . S
C946 C943 1.493 1_565 S
C946 C947 1.373 . S
C946 C948 1.389 1_565 S
C947 H926 0.950 . S
C947 C946 1.373 . S
C947 C963 1.377 . S
C948 C946 1.389 1_545 S
C948 C949 1.524 . S
C948 C962 1.396 . S
C949 C948 1.524 . S
C949 C950 1.397 . S
C949 C954 1.363 . S
C950 H927 0.950 . S
C950 C949 1.397 . S
C950 C951 1.334 . S
C951 H928 0.950 . S
C951 C950 1.334 . S
C951 C952 1.287 . S
C952 C951 1.287 . S
C952 C953 1.524 . S
C952 H971 0.913 . S
C953 H929 0.950 . S
C953 C952 1.524 . S
C953 C954 1.415 . S
C954 H930 0.950 . S
C954 C949 1.363 . S
C954 C953 1.415 . S
C955 H931 0.951 . S
C955 C956 1.366 . S
C955 C957 1.388 . S
C956 C955 1.366 . S
C956 C960 1.385 . S
C957 H932 0.951 . S
C957 C955 1.388 . S
C957 C958 1.366 . S
C958 C957 1.366 . S
C958 C959 1.414 . S
C958 C961 1.499 . S
C959 H933 0.950 . S
C959 C958 1.414 . S
C959 C960 1.374 . S
C960 H934 0.950 . S
C960 C956 1.385 . S
C960 C959 1.374 . S
C961 C958 1.499 . S
C961 C962 1.320 1_565 S
C961 C963 1.389 . S
C962 H935 0.988 . S
C962 C948 1.396 . S
C962 C961 1.320 1_545 S
C963 C947 1.377 . S
C963 C961 1.389 . S
C963 C964 1.524 . S
C964 C963 1.524 . S
C964 C965 1.397 . S
C964 C969 1.363 . S
C965 H936 0.950 . S
C965 C964 1.397 . S
C965 C966 1.334 . S
C966 H937 0.950 . S
C966 C965 1.334 . S
C966 C967 1.287 . S
C967 C966 1.287 . S
C967 C968 1.524 . S
C967 H970 0.999 . S
C968 H938 0.950 . S
C968 C967 1.524 . S
C968 C969 1.415 . S
C969 H939 0.950 . S
C969 C964 1.363 . S
C969 C968 1.415 . S
H970 C967 0.999 . S
H971 C952 0.913 . S
H972 C990 0.951 . S
H973 C992 0.951 . S
H974 C994 0.950 . S
H975 C995 0.950 . S
H976 C997 0.950 . S
H977 C1000 0.950 . S
H978 C1001 0.950 . S
H979 C1003 0.950 . S
H980 C1004 0.950 . S
H981 C1005 0.951 . S
H982 C1007 0.951 . S
H983 C1009 0.950 . S
H984 C1010 0.950 . S
H985 C1012 0.950 . S
H986 C1015 0.950 . S
H987 C1016 0.950 . S
H988 C1018 0.950 . S
H989 C1019 0.950 . S
C990 H972 0.951 . S
C990 C991 1.366 . S
C990 C992 1.388 . S
C991 C990 1.366 . S
C991 C995 1.385 . S
C992 H973 0.951 . S
C992 C990 1.388 . S
C992 C993 1.366 . S
C993 C992 1.366 . S
C993 C994 1.414 . S
C993 C996 1.499 . S
C994 H974 0.950 . S
C994 C993 1.414 . S
C994 C995 1.374 . S
C995 H975 0.950 . S
C995 C991 1.385 . S
C995 C994 1.374 . S
C996 C993 1.499 . S
C996 C997 1.373 . S
C996 C998 1.389 . S
C997 H976 0.950 . S
C997 C996 1.373 . S
C997 C1013 1.377 . S
C998 C996 1.389 . S
C998 C999 1.524 . S
C998 C1012 1.377 . S
C999 C998 1.524 . S
C999 C1000 1.397 . S
C999 C1004 1.363 . S
C1000 H977 0.950 . S
C1000 C999 1.397 . S
C1000 C1001 1.334 . S
C1001 H978 0.950 . S
C1001 C1000 1.334 . S
C1001 C1002 1.287 . S
C1002 C1001 1.287 . S
C1002 C1003 1.524 . S
C1002 H1021 0.913 . S
C1003 H979 0.950 . S
C1003 C1002 1.524 . S
C1003 C1004 1.415 . S
C1004 H980 0.950 . S
C1004 C999 1.363 . S
C1004 C1003 1.415 . S
C1005 H981 0.951 . S
C1005 C1006 1.366 . S
C1005 C1007 1.388 . S
C1006 C1005 1.366 . S
C1006 C1010 1.385 . S
C1007 H982 0.951 . S
C1007 C1005 1.388 . S
C1007 C1008 1.366 . S
C1008 C1007 1.366 . S
C1008 C1009 1.414 . S
C1008 C1011 1.499 . S
C1009 H983 0.950 . S
C1009 C1008 1.414 . S
C1009 C1010 1.374 . S
C1010 H984 0.950 . S
C1010 C1006 1.385 . S
C1010 C1009 1.374 . S
C1011 C1008 1.499 . S
C1011 C1012 1.373 . S
C1011 C1013 1.389 . S
C1012 H985 0.950 . S
C1012 C998 1.377 . S
C1012 C1011 1.373 . S
C1013 C997 1.377 . S
C1013 C1011 1.389 . S
C1013 C1014 1.524 . S
C1014 C1013 1.524 . S
C1014 C1015 1.397 . S
C1014 C1019 1.363 . S
C1015 H986 0.950 . S
C1015 C1014 1.397 . S
C1015 C1016 1.334 . S
C1016 H987 0.950 . S
C1016 C1015 1.334 . S
C1016 C1017 1.287 . S
C1017 C1016 1.287 . S
C1017 C1018 1.524 . S
C1017 H1020 0.999 . S
C1018 H988 0.950 . S
C1018 C1017 1.524 . S
C1018 C1019 1.415 . S
C1019 H989 0.950 . S
C1019 C1014 1.363 . S
C1019 C1018 1.415 . S
H1020 C1017 0.999 . S
H1021 C1002 0.913 . S
H1022 C1040 0.951 . S
H1023 C1042 0.951 . S
H1024 C1044 0.950 . S
H1025 C1045 0.950 . S
H1026 C1047 0.950 . S
H1027 C1050 0.950 . S
H1028 C1051 0.950 . S
H1029 C1053 0.950 . S
H1030 C1054 0.950 . S
H1031 C1055 0.951 . S
H1032 C1057 0.951 . S
H1033 C1059 0.950 . S
H1034 C1060 0.950 . S
H1035 C1062 0.950 . S
H1036 C1065 0.950 . S
H1037 C1066 0.950 . S
H1038 C1068 0.950 . S
H1039 C1069 0.950 . S
C1040 H1022 0.951 . S
C1040 C1041 1.366 . S
C1040 C1042 1.388 . S
C1041 C1040 1.366 . S
C1041 C1045 1.385 . S
C1042 H1023 0.951 . S
C1042 C1040 1.388 . S
C1042 C1043 1.366 . S
C1043 C1042 1.366 . S
C1043 C1044 1.414 . S
C1043 C1046 1.499 . S
C1044 H1024 0.950 . S
C1044 C1043 1.414 . S
C1044 C1045 1.374 . S
C1045 H1025 0.950 . S
C1045 C1041 1.385 . S
C1045 C1044 1.374 . S
C1046 C1043 1.499 . S
C1046 C1047 1.373 . S
C1046 C1048 1.389 . S
C1047 H1026 0.950 . S
C1047 C1046 1.373 . S
C1047 C1063 1.377 . S
C1048 C1046 1.389 . S
C1048 C1049 1.524 . S
C1048 C1062 1.377 . S
C1049 C1048 1.524 . S
C1049 C1050 1.397 . S
C1049 C1054 1.363 . S
C1050 H1027 0.950 . S
C1050 C1049 1.397 . S
C1050 C1051 1.334 . S
C1051 H1028 0.950 . S
C1051 C1050 1.334 . S
C1051 C1052 1.287 . S
C1052 C1051 1.287 . S
C1052 C1053 1.524 . S
C1052 H1071 0.913 . S
C1053 H1029 0.950 . S
C1053 C1052 1.524 . S
C1053 C1054 1.415 . S
C1054 H1030 0.950 . S
C1054 C1049 1.363 . S
C1054 C1053 1.415 . S
C1055 H1031 0.951 . S
C1055 C1056 1.366 . S
C1055 C1057 1.388 . S
C1056 C1055 1.366 . S
C1056 C1060 1.385 . S
C1057 H1032 0.951 . S
C1057 C1055 1.388 . S
C1057 C1058 1.366 . S
C1058 C1057 1.366 . S
C1058 C1059 1.414 . S
C1058 C1061 1.499 . S
C1059 H1033 0.950 . S
C1059 C1058 1.414 . S
C1059 C1060 1.374 . S
C1060 H1034 0.950 . S
C1060 C1056 1.385 . S
C1060 C1059 1.374 . S
C1061 C1058 1.499 . S
C1061 C1062 1.373 . S
C1061 C1063 1.389 . S
C1062 H1035 0.950 . S
C1062 C1048 1.377 . S
C1062 C1061 1.373 . S
C1063 C1047 1.377 . S
C1063 C1061 1.389 . S
C1063 C1064 1.524 . S
C1064 C1063 1.524 . S
C1064 C1065 1.397 . S
C1064 C1069 1.363 . S
C1065 H1036 0.950 . S
C1065 C1064 1.397 . S
C1065 C1066 1.334 . S
C1066 H1037 0.950 . S
C1066 C1065 1.334 . S
C1066 C1067 1.287 . S
C1067 C1066 1.287 . S
C1067 C1068 1.524 . S
C1067 H1070 0.999 . S
C1068 H1038 0.950 . S
C1068 C1067 1.524 . S
C1068 C1069 1.415 . S
C1069 H1039 0.950 . S
C1069 C1064 1.363 . S
C1069 C1068 1.415 . S
H1070 C1067 0.999 . S
H1071 C1052 0.913 . S
H1072 C1090 0.951 . S
H1073 C1092 0.951 . S
H1074 C1094 0.950 . S
H1075 C1095 0.950 . S
H1076 C1097 0.950 . S
H1077 C1100 0.950 . S
H1078 C1101 0.950 . S
H1079 C1103 0.950 . S
H1080 C1104 0.950 . S
H1081 C1105 0.951 . S
H1082 C1107 0.937 1_655 S
H1083 C1109 0.950 . S
H1084 C1110 0.950 . S
H1085 C1112 0.950 . S
H1086 C1115 0.950 . S
H1087 C1116 0.950 . S
H1088 C1118 0.950 1_655 S
H1089 C1119 0.932 1_655 S
C1090 H1072 0.951 . S
C1090 C1091 1.366 1_455 S
C1090 C1092 1.388 . S
C1091 C1090 1.366 1_655 S
C1091 C1095 1.385 . S
C1092 H1073 0.951 . S
C1092 C1090 1.388 . S
C1092 C1093 1.366 . S
C1093 C1092 1.366 . S
C1093 C1094 1.414 1_455 S
C1093 C1096 1.499 . S
C1094 H1074 0.950 . S
C1094 C1093 1.414 1_655 S
C1094 C1095 1.374 . S
C1095 H1075 0.950 . S
C1095 C1091 1.385 . S
C1095 C1094 1.374 . S
C1096 C1093 1.499 . S
C1096 C1097 1.373 1_554 S
C1096 C1098 1.389 . S
C1097 H1076 0.950 . S
C1097 C1096 1.373 1_556 S
C1097 C1113 1.377 . S
C1098 C1096 1.389 . S
C1098 C1099 1.524 . S
C1098 C1112 1.377 . S
C1099 C1098 1.524 . S
C1099 C1100 1.397 1_455 S
C1099 C1104 1.363 . S
C1100 H1077 0.950 . S
C1100 C1099 1.397 1_655 S
C1100 C1101 1.334 . S
C1101 H1078 0.950 . S
C1101 C1100 1.334 . S
C1101 C1102 1.287 1_655 S
C1102 C1101 1.287 1_455 S
C1102 C1103 1.524 . S
C1102 H1121 0.913 . S
C1103 H1079 0.950 . S
C1103 C1102 1.524 . S
C1103 C1104 1.415 . S
C1104 H1080 0.950 . S
C1104 C1099 1.363 . S
C1104 C1103 1.415 . S
C1105 H1081 0.951 . S
C1105 C1106 1.366 . S
C1105 C1107 1.388 . S
C1106 C1105 1.366 . S
C1106 C1110 1.385 . S
C1107 H1082 0.937 1_455 S
C1107 C1105 1.388 . S
C1107 C1108 1.366 . S
C1108 C1107 1.366 . S
C1108 C1109 1.414 . S
C1108 C1111 1.499 . S
C1109 H1083 0.950 . S
C1109 C1108 1.414 . S
C1109 C1110 1.374 . S
C1110 H1084 0.950 . S
C1110 C1106 1.385 . S
C1110 C1109 1.374 . S
C1111 C1108 1.499 . S
C1111 C1112 1.373 1_556 S
C1111 C1113 1.389 . S
C1112 H1085 0.950 . S
C1112 C1098 1.377 . S
C1112 C1111 1.373 1_554 S
C1113 C1097 1.377 . S
C1113 C1111 1.389 . S
C1113 C1114 1.524 . S
C1114 C1113 1.524 . S
C1114 C1115 1.397 . S
C1114 C1119 1.379 . S
C1115 H1086 0.950 . S
C1115 C1114 1.397 . S
C1115 C1116 1.334 . S
C1116 H1087 0.950 . S
C1116 C1115 1.334 . S
C1116 C1117 1.287 . S
C1117 C1116 1.287 . S
C1117 C1118 1.524 . S
C1117 H1120 0.999 . S
C1118 H1088 0.950 1_455 S
C1118 C1117 1.524 . S
C1118 C1119 1.416 . S
C1119 H1089 0.932 1_455 S
C1119 C1114 1.379 . S
C1119 C1118 1.416 . S
H1120 C1117 0.999 . S
H1121 C1102 0.913 . S
H1122 C1140 0.951 . S
H1123 C1142 0.951 . S
H1124 C1144 0.950 1_556 S
H1125 C1145 0.950 . S
H1126 C1147 0.950 . S
H1127 C1150 0.950 . S
H1128 C1151 0.950 . S
H1129 C1153 0.950 . S
H1130 C1154 0.950 . S
H1131 C1155 0.951 . S
H1132 C1157 0.951 . S
H1133 C1159 0.950 . S
H1134 C1160 0.950 . S
H1135 C1162 0.950 . S
H1136 C1165 0.950 . S
H1137 C1166 0.950 . S
H1138 C1168 0.950 . S
H1139 C1169 0.950 1_565 S
C1140 H1122 0.951 . S
C1140 C1141 1.366 1_545 S
C1140 C1142 1.388 . S
C1141 C1140 1.366 1_565 S
C1141 C1145 1.385 . S
C1142 H1123 0.951 . S
C1142 C1140 1.388 . S
C1142 C1143 1.366 . S
C1143 C1142 1.366 . S
C1143 C1144 1.414 1_545 S
C1143 C1146 1.499 . S
C1144 H1124 0.950 1_554 S
C1144 C1143 1.414 1_565 S
C1144 C1145 1.374 . S
C1145 H1125 0.950 . S
C1145 C1141 1.385 . S
C1145 C1144 1.374 . S
C1146 C1143 1.499 . S
C1146 C1147 1.373 1_554 S
C1146 C1148 1.389 . S
C1147 H1126 0.950 . S
C1147 C1146 1.373 1_556 S
C1147 C1163 1.377 . S
C1148 C1146 1.389 . S
C1148 C1149 1.524 . S
C1148 C1162 1.377 . S
C1149 C1148 1.524 . S
C1149 C1150 1.397 1_545 S
C1149 C1154 1.363 . S
C1150 H1127 0.950 . S
C1150 C1149 1.397 1_565 S
C1150 C1151 1.334 . S
C1151 H1128 0.950 . S
C1151 C1150 1.334 . S
C1151 C1152 1.287 . S
C1152 C1151 1.287 . S
C1152 C1153 1.524 1_565 S
C1152 H1171 0.913 . S
C1153 H1129 0.950 . S
C1153 C1152 1.524 1_545 S
C1153 C1154 1.415 . S
C1154 H1130 0.950 . S
C1154 C1149 1.363 . S
C1154 C1153 1.415 . S
C1155 H1131 0.951 . S
C1155 C1156 1.366 . S
C1155 C1157 1.388 . S
C1156 C1155 1.366 . S
C1156 C1160 1.385 . S
C1157 H1132 0.951 . S
C1157 C1155 1.388 . S
C1157 C1158 1.366 . S
C1158 C1157 1.366 . S
C1158 C1159 1.414 . S
C1158 C1161 1.499 . S
C1159 H1133 0.950 . S
C1159 C1158 1.414 . S
C1159 C1160 1.374 . S
C1160 H1134 0.950 . S
C1160 C1156 1.385 . S
C1160 C1159 1.374 . S
C1161 C1158 1.499 . S
C1161 C1162 1.373 1_556 S
C1161 C1163 1.389 . S
C1162 H1135 0.950 . S
C1162 C1148 1.377 . S
C1162 C1161 1.373 1_554 S
C1163 C1147 1.377 . S
C1163 C1161 1.389 . S
C1163 C1164 1.524 . S
C1164 C1163 1.524 . S
C1164 C1165 1.397 . S
C1164 C1169 1.363 . S
C1165 H1136 0.950 . S
C1165 C1164 1.397 . S
C1165 C1166 1.334 . S
C1166 H1137 0.950 . S
C1166 C1165 1.334 . S
C1166 C1167 1.287 . S
C1167 C1166 1.287 . S
C1167 C1168 1.524 . S
C1167 H1170 0.999 . S
C1168 H1138 0.950 . S
C1168 C1167 1.524 . S
C1168 C1169 1.415 . S
C1169 H1139 0.950 1_545 S
C1169 C1164 1.363 . S
C1169 C1168 1.415 . S
H1170 C1167 0.999 . S
H1171 C1152 0.913 . S
H1172 C1190 0.951 . S
H1173 C1192 0.951 1_556 S
H1174 C1194 0.950 . S
H1175 C1195 0.950 . S
H1176 C1197 0.950 . S
H1177 C1200 0.950 . S
H1178 C1201 0.950 . S
H1179 C1203 0.950 . S
H1180 C1204 0.950 . S
H1181 C1205 0.951 . S
H1182 C1207 0.951 . S
H1183 C1209 0.950 . S
H1184 C1210 0.950 . S
H1185 C1212 0.950 . S
H1186 C1215 0.950 1_556 S
H1187 C1216 0.950 . S
H1188 C1218 0.950 . S
H1189 C1219 0.950 . S
C1190 H1172 0.951 . S
C1190 C1191 1.366 . S
C1190 C1192 1.388 . S
C1191 C1190 1.366 . S
C1191 C1195 1.385 . S
C1192 H1173 0.951 1_554 S
C1192 C1190 1.388 . S
C1192 C1193 1.366 . S
C1193 C1192 1.366 . S
C1193 C1194 1.414 . S
C1193 C1196 1.499 . S
C1194 H1174 0.950 . S
C1194 C1193 1.414 . S
C1194 C1195 1.374 . S
C1195 H1175 0.950 . S
C1195 C1191 1.385 . S
C1195 C1194 1.374 . S
C1196 C1193 1.499 . S
C1196 C1197 1.373 . S
C1196 C1198 1.389 1_554 S
C1197 H1176 0.950 . S
C1197 C1196 1.373 . S
C1197 C1213 1.377 . S
C1198 C1196 1.389 1_556 S
C1198 C1199 1.524 . S
C1198 C1212 1.377 . S
C1199 C1198 1.524 . S
C1199 C1200 1.397 . S
C1199 C1204 1.363 . S
C1200 H1177 0.950 . S
C1200 C1199 1.397 . S
C1200 C1201 1.334 . S
C1201 H1178 0.950 . S
C1201 C1200 1.334 . S
C1201 C1202 1.287 . S
C1202 C1201 1.287 . S
C1202 C1203 1.524 . S
C1202 H1221 0.913 . S
C1203 H1179 0.950 . S
C1203 C1202 1.524 . S
C1203 C1204 1.415 . S
C1204 H1180 0.950 . S
C1204 C1199 1.363 . S
C1204 C1203 1.415 . S
C1205 H1181 0.951 . S
C1205 C1206 1.366 . S
C1205 C1207 1.388 . S
C1206 C1205 1.366 . S
C1206 C1210 1.385 . S
C1207 H1182 0.951 . S
C1207 C1205 1.388 . S
C1207 C1208 1.366 . S
C1208 C1207 1.366 . S
C1208 C1209 1.414 . S
C1208 C1211 1.499 . S
C1209 H1183 0.950 . S
C1209 C1208 1.414 . S
C1209 C1210 1.374 . S
C1210 H1184 0.950 . S
C1210 C1206 1.385 . S
C1210 C1209 1.374 . S
C1211 C1208 1.499 . S
C1211 C1212 1.373 . S
C1211 C1213 1.389 1_556 S
C1212 H1185 0.950 . S
C1212 C1198 1.377 . S
C1212 C1211 1.373 . S
C1213 C1197 1.377 . S
C1213 C1211 1.389 1_554 S
C1213 C1214 1.524 . S
C1214 C1213 1.524 . S
C1214 C1215 1.397 . S
C1214 C1219 1.363 . S
C1215 H1186 0.950 1_554 S
C1215 C1214 1.397 . S
C1215 C1216 1.334 . S
C1216 H1187 0.950 . S
C1216 C1215 1.334 . S
C1216 C1217 1.287 . S
C1217 C1216 1.287 . S
C1217 C1218 1.524 . S
C1217 H1220 0.999 . S
C1218 H1188 0.950 . S
C1218 C1217 1.524 . S
C1218 C1219 1.415 . S
C1219 H1189 0.950 . S
C1219 C1214 1.363 . S
C1219 C1218 1.415 . S
H1220 C1217 0.999 . S
H1221 C1202 0.913 . S
H1222 C1240 0.951 . S
H1223 C1242 0.951 . S
H1224 C1244 0.950 . S
H1225 C1245 0.950 . S
H1226 C1247 0.950 . S
H1227 C1250 0.950 . S
H1228 C1251 0.950 . S
H1229 C1253 0.950 . S
H1230 C1254 0.950 . S
H1231 C1255 0.951 . S
H1232 C1257 0.951 . S
H1233 C1259 0.950 . S
H1234 C1260 0.950 . S
H1235 C1262 0.950 . S
H1236 C1265 0.950 . S
H1237 C1266 0.950 . S
H1238 C1268 0.950 . S
H1239 C1269 0.950 . S
C1240 H1222 0.951 . S
C1240 C1241 1.366 . S
C1240 C1242 1.388 . S
C1241 C1240 1.366 . S
C1241 C1245 1.385 . S
C1242 H1223 0.951 . S
C1242 C1240 1.388 . S
C1242 C1243 1.366 . S
C1243 C1242 1.366 . S
C1243 C1244 1.414 . S
C1243 C1246 1.499 . S
C1244 H1224 0.950 . S
C1244 C1243 1.414 . S
C1244 C1245 1.374 . S
C1245 H1225 0.950 . S
C1245 C1241 1.385 . S
C1245 C1244 1.374 . S
C1246 C1243 1.499 . S
C1246 C1247 1.373 . S
C1246 C1248 1.389 1_554 S
C1247 H1226 0.950 . S
C1247 C1246 1.373 . S
C1247 C1263 1.377 . S
C1248 C1246 1.389 1_556 S
C1248 C1249 1.524 . S
C1248 C1262 1.377 . S
C1249 C1248 1.524 . S
C1249 C1250 1.397 . S
C1249 C1254 1.363 . S
C1250 H1227 0.950 . S
C1250 C1249 1.397 . S
C1250 C1251 1.334 . S
C1251 H1228 0.950 . S
C1251 C1250 1.334 . S
C1251 C1252 1.287 . S
C1252 C1251 1.287 . S
C1252 C1253 1.524 . S
C1252 H1271 0.913 . S
C1253 H1229 0.950 . S
C1253 C1252 1.524 . S
C1253 C1254 1.415 . S
C1254 H1230 0.950 . S
C1254 C1249 1.363 . S
C1254 C1253 1.415 . S
C1255 H1231 0.951 . S
C1255 C1256 1.366 . S
C1255 C1257 1.388 . S
C1256 C1255 1.366 . S
C1256 C1260 1.385 . S
C1257 H1232 0.951 . S
C1257 C1255 1.388 . S
C1257 C1258 1.366 . S
C1258 C1257 1.366 . S
C1258 C1259 1.414 . S
C1258 C1261 1.499 . S
C1259 H1233 0.950 . S
C1259 C1258 1.414 . S
C1259 C1260 1.374 . S
C1260 H1234 0.950 . S
C1260 C1256 1.385 . S
C1260 C1259 1.374 . S
C1261 C1258 1.499 . S
C1261 C1262 1.373 . S
C1261 C1263 1.389 1_556 S
C1262 H1235 0.950 . S
C1262 C1248 1.377 . S
C1262 C1261 1.373 . S
C1263 C1247 1.377 . S
C1263 C1261 1.389 1_554 S
C1263 C1264 1.524 . S
C1264 C1263 1.524 . S
C1264 C1265 1.397 . S
C1264 C1269 1.363 . S
C1265 H1236 0.950 . S
C1265 C1264 1.397 . S
C1265 C1266 1.334 . S
C1266 H1237 0.950 . S
C1266 C1265 1.334 . S
C1266 C1267 1.287 . S
C1267 C1266 1.287 . S
C1267 C1268 1.524 . S
C1267 H1270 0.999 . S
C1268 H1238 0.950 . S
C1268 C1267 1.524 . S
C1268 C1269 1.415 . S
C1269 H1239 0.950 . S
C1269 C1264 1.363 . S
C1269 C1268 1.415 . S
H1270 C1267 0.999 . S
H1271 C1252 0.913 . S
H1272 C1290 0.951 . S
H1273 C1292 0.951 . S
H1274 C1294 0.950 . S
H1275 C1295 0.950 . S
H1276 C1297 0.950 . S
H1277 C1300 0.950 . S
H1278 C1301 0.950 . S
H1279 C1303 0.950 . S
H1280 C1304 0.950 . S
H1281 C1305 0.951 . S
H1282 C1307 0.951 . S
H1283 C1309 0.950 1_655 S
H1284 C1310 0.948 1_655 S
H1285 C1312 0.950 . S
H1286 C1315 0.950 . S
H1287 C1316 0.950 . S
H1288 C1318 0.950 . S
H1289 C1319 0.950 . S
C1290 H1272 0.951 . S
C1290 C1291 1.366 1_655 S
C1290 C1292 1.388 . S
C1291 C1290 1.366 1_455 S
C1291 C1295 1.385 . S
C1292 H1273 0.951 . S
C1292 C1290 1.388 . S
C1292 C1293 1.366 1_655 S
C1293 C1292 1.366 1_455 S
C1293 C1294 1.414 . S
C1293 C1296 1.499 . S
C1294 H1274 0.950 . S
C1294 C1293 1.414 . S
C1294 C1295 1.374 . S
C1295 H1275 0.950 . S
C1295 C1291 1.385 . S
C1295 C1294 1.374 . S
C1296 C1293 1.499 . S
C1296 C1297 1.373 1_455 S
C1296 C1298 1.389 . S
C1297 H1276 0.950 . S
C1297 C1296 1.373 1_655 S
C1297 C1313 1.377 . S
C1298 C1296 1.389 . S
C1298 C1299 1.524 . S
C1298 C1312 1.377 . S
C1299 C1298 1.524 . S
C1299 C1300 1.397 . S
C1299 C1304 1.363 . S
C1300 H1277 0.950 . S
C1300 C1299 1.397 . S
C1300 C1301 1.334 . S
C1301 H1278 0.950 . S
C1301 C1300 1.334 . S
C1301 C1302 1.287 . S
C1302 C1301 1.287 . S
C1302 C1303 1.524 . S
C1302 H1321 0.913 . S
C1303 H1279 0.950 . S
C1303 C1302 1.524 . S
C1303 C1304 1.415 . S
C1304 H1280 0.950 . S
C1304 C1299 1.363 . S
C1304 C1303 1.415 . S
C1305 H1281 0.951 . S
C1305 C1306 1.366 . S
C1305 C1307 1.388 . S
C1306 C1305 1.366 . S
C1306 C1310 1.385 . S
C1307 H1282 0.951 . S
C1307 C1305 1.388 . S
C1307 C1308 1.366 . S
C1308 C1307 1.366 . S
C1308 C1309 1.414 . S
C1308 C1311 1.499 . S
C1309 H1283 0.950 1_455 S
C1309 C1308 1.414 . S
C1309 C1310 1.374 . S
C1310 H1284 0.948 1_455 S
C1310 C1306 1.385 . S
C1310 C1309 1.374 . S
C1311 C1308 1.499 . S
C1311 C1312 1.373 . S
C1311 C1313 1.389 1_455 S
C1312 H1285 0.950 . S
C1312 C1298 1.377 . S
C1312 C1311 1.373 . S
C1313 C1297 1.377 . S
C1313 C1311 1.389 1_655 S
C1313 C1314 1.524 . S
C1314 C1313 1.524 . S
C1314 C1315 1.397 . S
C1314 C1319 1.363 . S
C1315 H1286 0.950 . S
C1315 C1314 1.397 . S
C1315 C1316 1.334 . S
C1316 H1287 0.950 . S
C1316 C1315 1.334 . S
C1316 C1317 1.287 . S
C1317 C1316 1.287 . S
C1317 C1318 1.524 . S
C1317 H1320 0.999 . S
C1318 H1288 0.950 . S
C1318 C1317 1.524 . S
C1318 C1319 1.415 . S
C1319 H1289 0.950 . S
C1319 C1314 1.363 . S
C1319 C1318 1.415 . S
H1320 C1317 0.999 . S
H1321 C1302 0.913 . S
H1322 C1340 0.951 . S
H1323 C1342 0.951 . S
H1324 C1344 0.950 . S
H1325 C1345 0.950 . S
H1326 C1347 0.950 . S
H1327 C1350 0.950 . S
H1328 C1351 0.950 . S
H1329 C1353 0.950 . S
H1330 C1354 0.950 . S
H1331 C1355 0.951 . S
H1332 C1357 0.951 . S
H1333 C1359 0.950 . S
H1334 C1360 0.950 . S
H1335 C1362 0.950 . S
H1336 C1365 0.950 . S
H1337 C1366 0.950 . S
H1338 C1368 0.950 . S
H1339 C1369 0.950 . S
C1340 H1322 0.951 . S
C1340 C1341 1.366 . S
C1340 C1342 1.388 . S
C1341 C1340 1.366 . S
C1341 C1345 1.385 1_545 S
C1342 H1323 0.951 . S
C1342 C1340 1.388 . S
C1342 C1343 1.366 . S
C1343 C1342 1.366 . S
C1343 C1344 1.414 1_545 S
C1343 C1346 1.499 . S
C1344 H1324 0.950 . S
C1344 C1343 1.414 1_565 S
C1344 C1345 1.374 . S
C1345 H1325 0.950 . S
C1345 C1341 1.385 1_565 S
C1345 C1344 1.374 . S
C1346 C1343 1.499 . S
C1346 C1347 1.373 1_545 S
C1346 C1348 1.389 . S
C1347 H1326 0.950 . S
C1347 C1346 1.373 1_565 S
C1347 C1363 1.377 . S
C1348 C1346 1.389 . S
C1348 C1349 1.524 . S
C1348 C1362 1.377 . S
C1349 C1348 1.524 . S
C1349 C1350 1.397 . S
C1349 C1354 1.363 . S
C1350 H1327 0.950 . S
C1350 C1349 1.397 . S
C1350 C1351 1.334 . S
C1351 H1328 0.950 . S
C1351 C1350 1.334 . S
C1351 C1352 1.287 . S
C1352 C1351 1.287 . S
C1352 C1353 1.524 . S
C1352 H1371 0.913 . S
C1353 H1329 0.950 . S
C1353 C1352 1.524 . S
C1353 C1354 1.415 . S
C1354 H1330 0.950 . S
C1354 C1349 1.363 . S
C1354 C1353 1.415 . S
C1355 H1331 0.951 . S
C1355 C1356 1.366 1_565 S
C1355 C1357 1.388 . S
C1356 C1355 1.366 1_545 S
C1356 C1360 1.385 . S
C1357 H1332 0.951 . S
C1357 C1355 1.388 . S
C1357 C1358 1.366 1_565 S
C1358 C1357 1.366 1_545 S
C1358 C1359 1.414 . S
C1358 C1361 1.499 . S
C1359 H1333 0.950 . S
C1359 C1358 1.414 . S
C1359 C1360 1.374 . S
C1360 H1334 0.950 . S
C1360 C1356 1.385 . S
C1360 C1359 1.374 . S
C1361 C1358 1.499 . S
C1361 C1362 1.373 . S
C1361 C1363 1.389 1_545 S
C1362 H1335 0.950 . S
C1362 C1348 1.377 . S
C1362 C1361 1.373 . S
C1363 C1347 1.377 . S
C1363 C1361 1.389 1_565 S
C1363 C1364 1.524 . S
C1364 C1363 1.524 . S
C1364 C1365 1.397 . S
C1364 C1369 1.363 . S
C1365 H1336 0.950 . S
C1365 C1364 1.397 . S
C1365 C1366 1.334 . S
C1366 H1337 0.950 . S
C1366 C1365 1.334 . S
C1366 C1367 1.287 . S
C1367 C1366 1.287 . S
C1367 C1368 1.524 . S
C1367 H1370 0.999 . S
C1368 H1338 0.950 . S
C1368 C1367 1.524 . S
C1368 C1369 1.415 . S
C1369 H1339 0.950 . S
C1369 C1364 1.363 . S
C1369 C1368 1.415 . S
H1370 C1367 0.999 . S
H1371 C1352 0.913 . S
H1372 C1390 0.951 . S
H1373 C1392 0.951 . S
H1374 C1394 0.950 . S
H1375 C1395 0.950 . S
H1376 C1397 0.950 . S
H1377 C1400 0.950 . S
H1378 C1401 0.950 . S
H1379 C1403 0.950 . S
H1380 C1404 0.950 . S
H1381 C1405 0.951 . S
H1382 C1407 0.951 . S
H1383 C1409 0.950 . S
H1384 C1410 0.950 . S
H1385 C1412 0.950 . S
H1386 C1415 0.950 . S
H1387 C1416 0.950 . S
H1388 C1418 0.950 . S
H1389 C1419 0.950 . S
C1390 H1372 0.951 . S
C1390 C1391 1.366 . S
C1390 C1392 1.388 . S
C1391 C1390 1.366 . S
C1391 C1395 1.385 . S
C1392 H1373 0.951 . S
C1392 C1390 1.388 . S
C1392 C1393 1.366 . S
C1393 C1392 1.366 . S
C1393 C1394 1.414 . S
C1393 C1396 1.499 . S
C1394 H1374 0.950 . S
C1394 C1393 1.414 . S
C1394 C1395 1.374 . S
C1395 H1375 0.950 . S
C1395 C1391 1.385 . S
C1395 C1394 1.374 . S
C1396 C1393 1.499 . S
C1396 C1397 1.373 . S
C1396 C1398 1.389 . S
C1397 H1376 0.950 . S
C1397 C1396 1.373 . S
C1397 C1413 1.377 . S
C1398 C1396 1.389 . S
C1398 C1399 1.524 . S
C1398 C1412 1.377 . S
C1399 C1398 1.524 . S
C1399 C1400 1.397 . S
C1399 C1404 1.363 . S
C1400 H1377 0.950 . S
C1400 C1399 1.397 . S
C1400 C1401 1.334 . S
C1401 H1378 0.950 . S
C1401 C1400 1.334 . S
C1401 C1402 1.287 . S
C1402 C1401 1.287 . S
C1402 C1403 1.524 . S
C1402 H1421 0.913 . S
C1403 H1379 0.950 . S
C1403 C1402 1.524 . S
C1403 C1404 1.415 . S
C1404 H1380 0.950 . S
C1404 C1399 1.363 . S
C1404 C1403 1.415 . S
C1405 H1381 0.951 . S
C1405 C1406 1.366 . S
C1405 C1407 1.388 . S
C1406 C1405 1.366 . S
C1406 C1410 1.385 . S
C1407 H1382 0.951 . S
C1407 C1405 1.388 . S
C1407 C1408 1.366 . S
C1408 C1407 1.366 . S
C1408 C1409 1.414 . S
C1408 C1411 1.499 . S
C1409 H1383 0.950 . S
C1409 C1408 1.414 . S
C1409 C1410 1.374 . S
C1410 H1384 0.950 . S
C1410 C1406 1.385 . S
C1410 C1409 1.374 . S
C1411 C1408 1.499 . S
C1411 C1412 1.373 . S
C1411 C1413 1.389 . S
C1412 H1385 0.950 . S
C1412 C1398 1.377 . S
C1412 C1411 1.373 . S
C1413 C1397 1.377 . S
C1413 C1411 1.389 . S
C1413 C1414 1.524 . S
C1414 C1413 1.524 . S
C1414 C1415 1.397 . S
C1414 C1419 1.363 . S
C1415 H1386 0.950 . S
C1415 C1414 1.397 . S
C1415 C1416 1.334 . S
C1416 H1387 0.950 . S
C1416 C1415 1.334 . S
C1416 C1417 1.287 . S
C1417 C1416 1.287 . S
C1417 C1418 1.524 . S
C1417 H1420 0.999 . S
C1418 H1388 0.950 . S
C1418 C1417 1.524 . S
C1418 C1419 1.415 . S
C1419 H1389 0.950 . S
C1419 C1414 1.363 . S
C1419 C1418 1.415 . S
H1420 C1417 0.999 . S
H1421 C1402 0.913 . S
H1422 C1440 0.951 . S
H1423 C1442 0.951 . S
H1424 C1444 0.950 . S
H1425 C1445 0.950 . S
H1426 C1447 0.950 . S
H1427 C1450 0.950 . S
H1428 C1451 0.950 . S
H1429 C1453 0.950 . S
H1430 C1454 0.950 . S
H1431 C1455 0.951 . S
H1432 C1457 0.951 . S
H1433 C1459 0.950 . S
H1434 C1460 0.950 . S
H1435 C1462 0.950 . S
H1436 C1465 0.950 . S
H1437 C1466 0.950 . S
H1438 C1468 0.950 . S
H1439 C1469 0.950 . S
C1440 H1422 0.951 . S
C1440 C1441 1.366 . S
C1440 C1442 1.388 . S
C1441 C1440 1.366 . S
C1441 C1445 1.385 . S
C1442 H1423 0.951 . S
C1442 C1440 1.388 . S
C1442 C1443 1.366 . S
C1443 C1442 1.366 . S
C1443 C1444 1.414 . S
C1443 C1446 1.499 . S
C1444 H1424 0.950 . S
C1444 C1443 1.414 . S
C1444 C1445 1.374 . S
C1445 H1425 0.950 . S
C1445 C1441 1.385 . S
C1445 C1444 1.374 . S
C1446 C1443 1.499 . S
C1446 C1447 1.373 . S
C1446 C1448 1.389 . S
C1447 H1426 0.950 . S
C1447 C1446 1.373 . S
C1447 C1463 1.377 . S
C1448 C1446 1.389 . S
C1448 C1449 1.524 . S
C1448 C1462 1.377 . S
C1449 C1448 1.524 . S
C1449 C1450 1.397 . S
C1449 C1454 1.363 . S
C1450 H1427 0.950 . S
C1450 C1449 1.397 . S
C1450 C1451 1.334 . S
C1451 H1428 0.950 . S
C1451 C1450 1.334 . S
C1451 C1452 1.287 . S
C1452 C1451 1.287 . S
C1452 C1453 1.524 . S
C1452 H1471 0.913 . S
C1453 H1429 0.950 . S
C1453 C1452 1.524 . S
C1453 C1454 1.415 . S
C1454 H1430 0.950 . S
C1454 C1449 1.363 . S
C1454 C1453 1.415 . S
C1455 H1431 0.951 . S
C1455 C1456 1.366 . S
C1455 C1457 1.388 . S
C1456 C1455 1.366 . S
C1456 C1460 1.385 . S
C1457 H1432 0.951 . S
C1457 C1455 1.388 . S
C1457 C1458 1.366 . S
C1458 C1457 1.366 . S
C1458 C1459 1.414 . S
C1458 C1461 1.499 . S
C1459 H1433 0.950 . S
C1459 C1458 1.414 . S
C1459 C1460 1.374 . S
C1460 H1434 0.950 . S
C1460 C1456 1.385 . S
C1460 C1459 1.374 . S
C1461 C1458 1.499 . S
C1461 C1462 1.373 . S
C1461 C1463 1.389 . S
C1462 H1435 0.950 . S
C1462 C1448 1.377 . S
C1462 C1461 1.373 . S
C1463 C1447 1.377 . S
C1463 C1461 1.389 . S
C1463 C1464 1.524 . S
C1464 C1463 1.524 . S
C1464 C1465 1.397 . S
C1464 C1469 1.363 . S
C1465 H1436 0.950 . S
C1465 C1464 1.397 . S
C1465 C1466 1.334 . S
C1466 H1437 0.950 . S
C1466 C1465 1.334 . S
C1466 C1467 1.287 . S
C1467 C1466 1.287 . S
C1467 C1468 1.524 . S
C1467 H1470 0.999 . S
C1468 H1438 0.950 . S
C1468 C1467 1.524 . S
C1468 C1469 1.415 . S
C1469 H1439 0.950 . S
C1469 C1464 1.363 . S
C1469 C1468 1.415 . S
H1470 C1467 0.999 . S
H1471 C1452 0.913 . S
H1472 C1490 0.951 . S
H1473 C1492 0.951 . S
H1474 C1494 0.950 . S
H1475 C1495 0.950 . S
H1476 C1497 0.939 1_455 S
H1477 C1500 0.950 . S
H1478 C1501 0.950 . S
H1479 C1503 0.950 . S
H1480 C1504 0.950 1_455 S
H1481 C1505 0.951 . S
H1482 C1507 0.951 . S
H1483 C1509 0.950 . S
H1484 C1510 0.950 . S
H1485 C1512 0.950 . S
H1486 C1515 0.950 . S
H1487 C1516 0.950 . S
H1488 C1518 0.958 . S
H1489 C1519 0.950 . S
C1490 H1472 0.951 . S
C1490 C1491 1.366 1_455 S
C1490 C1492 1.388 . S
C1491 C1490 1.366 1_655 S
C1491 C1495 1.385 . S
C1492 H1473 0.951 . S
C1492 C1490 1.388 . S
C1492 C1493 1.366 1_455 S
C1493 C1492 1.366 1_655 S
C1493 C1494 1.414 . S
C1493 C1496 1.499 . S
C1494 H1474 0.950 . S
C1494 C1493 1.414 . S
C1494 C1495 1.374 . S
C1495 H1475 0.950 . S
C1495 C1491 1.385 . S
C1495 C1494 1.374 . S
C1496 C1493 1.499 . S
C1496 C1497 1.389 . S
C1496 C1498 1.389 . S
C1497 H1476 0.939 1_655 S
C1497 C1496 1.389 . S
C1497 C1513 1.376 . S
C1498 C1496 1.389 . S
C1498 C1499 1.524 . S
C1498 C1512 1.377 . S
C1499 C1498 1.524 . S
C1499 C1500 1.397 . S
C1499 C1504 1.363 . S
C1500 H1477 0.950 . S
C1500 C1499 1.397 . S
C1500 C1501 1.334 . S
C1501 H1478 0.950 . S
C1501 C1500 1.334 . S
C1501 C1502 1.287 . S
C1502 C1501 1.287 . S
C1502 C1503 1.524 . S
C1502 H1521 0.913 . S
C1503 H1479 0.950 . S
C1503 C1502 1.524 . S
C1503 C1504 1.415 . S
C1504 H1480 0.950 1_655 S
C1504 C1499 1.363 . S
C1504 C1503 1.415 . S
C1505 H1481 0.951 . S
C1505 C1506 1.366 . S
C1505 C1507 1.388 . S
C1506 C1505 1.366 . S
C1506 C1510 1.385 1_655 S
C1507 H1482 0.951 . S
C1507 C1505 1.388 . S
C1507 C1508 1.366 . S
C1508 C1507 1.366 . S
C1508 C1509 1.414 1_655 S
C1508 C1511 1.499 . S
C1509 H1483 0.950 . S
C1509 C1508 1.414 1_455 S
C1509 C1510 1.374 . S
C1510 H1484 0.950 . S
C1510 C1506 1.385 1_455 S
C1510 C1509 1.374 . S
C1511 C1508 1.499 . S
C1511 C1512 1.373 . S
C1511 C1513 1.396 . S
C1512 H1485 0.950 . S
C1512 C1498 1.377 . S
C1512 C1511 1.373 . S
C1513 C1497 1.376 . S
C1513 C1511 1.396 . S
C1513 C1514 1.516 1_655 S
C1514 C1513 1.516 1_455 S
C1514 C1515 1.397 . S
C1514 C1519 1.363 1_455 S
C1515 H1486 0.950 . S
C1515 C1514 1.397 . S
C1515 C1516 1.334 . S
C1516 H1487 0.950 . S
C1516 C1515 1.334 . S
C1516 C1517 1.287 . S
C1517 C1516 1.287 . S
C1517 C1518 1.524 . S
C1517 H1520 0.999 . S
C1518 H1488 0.958 . S
C1518 C1517 1.524 . S
C1518 C1519 1.415 1_455 S
C1519 H1489 0.950 . S
C1519 C1514 1.363 1_655 S
C1519 C1518 1.415 1_655 S
H1520 C1517 0.999 . S
H1521 C1502 0.913 . S
H1522 C1540 0.951 . S
H1523 C1542 0.951 . S
H1524 C1544 0.950 . S
H1525 C1545 0.950 . S
H1526 C1547 0.950 . S
H1527 C1550 0.950 . S
H1528 C1551 0.950 . S
H1529 C1553 0.950 . S
H1530 C1554 0.950 . S
H1531 C1555 0.951 . S
H1532 C1557 0.951 . S
H1533 C1559 0.950 . S
H1534 C1560 0.976 . S
H1535 C1562 0.950 . S
H1536 C1565 0.950 . S
H1537 C1566 0.950 . S
H1538 C1568 0.950 . S
H1539 C1569 0.950 . S
C1540 H1522 0.951 . S
C1540 C1541 1.366 1_545 S
C1540 C1542 1.388 . S
C1541 C1540 1.366 1_565 S
C1541 C1545 1.385 . S
C1542 H1523 0.951 . S
C1542 C1540 1.388 . S
C1542 C1543 1.366 1_545 S
C1543 C1542 1.366 1_565 S
C1543 C1544 1.414 . S
C1543 C1546 1.499 . S
C1544 H1524 0.950 . S
C1544 C1543 1.414 . S
C1544 C1545 1.374 . S
C1545 H1525 0.950 . S
C1545 C1541 1.385 . S
C1545 C1544 1.374 . S
C1546 C1543 1.499 . S
C1546 C1547 1.373 . S
C1546 C1548 1.389 1_565 S
C1547 H1526 0.950 . S
C1547 C1546 1.373 . S
C1547 C1563 1.377 . S
C1548 C1546 1.389 1_545 S
C1548 C1549 1.524 . S
C1548 C1562 1.377 . S
C1549 C1548 1.524 . S
C1549 C1550 1.397 . S
C1549 C1554 1.363 . S
C1550 H1527 0.950 . S
C1550 C1549 1.397 . S
C1550 C1551 1.334 . S
C1551 H1528 0.950 . S
C1551 C1550 1.334 . S
C1551 C1552 1.287 . S
C1552 C1551 1.287 . S
C1552 C1553 1.524 . S
C1552 H1571 0.913 . S
C1553 H1529 0.950 . S
C1553 C1552 1.524 . S
C1553 C1554 1.415 . S
C1554 H1530 0.950 . S
C1554 C1549 1.363 . S
C1554 C1553 1.415 . S
C1555 H1531 0.951 . S
C1555 C1556 1.366 . S
C1555 C1557 1.388 . S
C1556 C1555 1.366 . S
C1556 C1560 1.359 1_565 S
C1557 H1532 0.951 . S
C1557 C1555 1.388 . S
C1557 C1558 1.366 . S
C1558 C1557 1.366 . S
C1558 C1559 1.414 1_565 S
C1558 C1561 1.499 . S
C1559 H1533 0.950 . S
C1559 C1558 1.414 1_545 S
C1559 C1560 1.376 . S
C1560 H1534 0.976 . S
C1560 C1556 1.359 1_545 S
C1560 C1559 1.376 . S
C1561 C1558 1.499 . S
C1561 C1562 1.373 1_565 S
C1561 C1563 1.389 . S
C1562 H1535 0.950 . S
C1562 C1548 1.377 . S
C1562 C1561 1.373 1_545 S
C1563 C1547 1.377 . S
C1563 C1561 1.389 . S
C1563 C1564 1.524 . S
C1564 C1563 1.524 . S
C1564 C1565 1.397 . S
C1564 C1569 1.363 . S
C1565 H1536 0.950 . S
C1565 C1564 1.397 . S
C1565 C1566 1.334 . S
C1566 H1537 0.950 . S
C1566 C1565 1.334 . S
C1566 C1567 1.287 . S
C1567 C1566 1.287 . S
C1567 C1568 1.524 . S
C1567 H1570 0.999 . S
C1568 H1538 0.950 . S
C1568 C1567 1.524 . S
C1568 C1569 1.415 . S
C1569 H1539 0.950 . S
C1569 C1564 1.363 . S
C1569 C1568 1.415 . S
H1570 C1567 0.999 . S
H1571 C1552 0.913 . S
H1572 C1590 0.951 . S
H1573 C1592 0.951 . S
H1574 C1594 0.950 . S
H1575 C1595 0.950 . S
H1576 C1597 0.950 . S
H1577 C1600 0.950 . S
H1578 C1601 0.950 . S
H1579 C1603 0.950 . S
H1580 C1604 0.950 . S
H1581 C1605 0.951 . S
H1582 C1607 0.951 . S
H1583 C1609 0.950 . S
H1584 C1610 0.950 . S
H1585 C1612 0.950 . S
H1586 C1615 0.950 . S
H1587 C1616 0.950 . S
H1588 C1618 0.950 . S
H1589 C1619 0.950 . S
C1590 H1572 0.951 . S
C1590 C1591 1.366 . S
C1590 C1592 1.388 . S
C1591 C1590 1.366 . S
C1591 C1595 1.385 . S
C1592 H1573 0.951 . S
C1592 C1590 1.388 . S
C1592 C1593 1.366 . S
C1593 C1592 1.366 . S
C1593 C1594 1.414 . S
C1593 C1596 1.499 . S
C1594 H1574 0.950 . S
C1594 C1593 1.414 . S
C1594 C1595 1.374 . S
C1595 H1575 0.950 . S
C1595 C1591 1.385 . S
C1595 C1594 1.374 . S
C1596 C1593 1.499 . S
C1596 C1597 1.373 . S
C1596 C1598 1.389 . S
C1597 H1576 0.950 . S
C1597 C1596 1.373 . S
C1597 C1613 1.377 . S
C1598 C1596 1.389 . S
C1598 C1599 1.524 . S
C1598 C1612 1.377 . S
C1599 C1598 1.524 . S
C1599 C1600 1.397 . S
C1599 C1604 1.363 . S
C1600 H1577 0.950 . S
C1600 C1599 1.397 . S
C1600 C1601 1.334 . S
C1601 H1578 0.950 . S
C1601 C1600 1.334 . S
C1601 C1602 1.287 . S
C1602 C1601 1.287 . S
C1602 C1603 1.524 . S
C1602 H1621 0.913 . S
C1603 H1579 0.950 . S
C1603 C1602 1.524 . S
C1603 C1604 1.415 . S
C1604 H1580 0.950 . S
C1604 C1599 1.363 . S
C1604 C1603 1.415 . S
C1605 H1581 0.951 . S
C1605 C1606 1.366 . S
C1605 C1607 1.388 . S
C1606 C1605 1.366 . S
C1606 C1610 1.385 . S
C1607 H1582 0.951 . S
C1607 C1605 1.388 . S
C1607 C1608 1.366 . S
C1608 C1607 1.366 . S
C1608 C1609 1.414 . S
C1608 C1611 1.499 . S
C1609 H1583 0.950 . S
C1609 C1608 1.414 . S
C1609 C1610 1.374 . S
C1610 H1584 0.950 . S
C1610 C1606 1.385 . S
C1610 C1609 1.374 . S
C1611 C1608 1.499 . S
C1611 C1612 1.373 . S
C1611 C1613 1.389 . S
C1612 H1585 0.950 . S
C1612 C1598 1.377 . S
C1612 C1611 1.373 . S
C1613 C1597 1.377 . S
C1613 C1611 1.389 . S
C1613 C1614 1.524 . S
C1614 C1613 1.524 . S
C1614 C1615 1.397 . S
C1614 C1619 1.363 . S
C1615 H1586 0.950 . S
C1615 C1614 1.397 . S
C1615 C1616 1.334 . S
C1616 H1587 0.950 . S
C1616 C1615 1.334 . S
C1616 C1617 1.287 . S
C1617 C1616 1.287 . S
C1617 C1618 1.524 . S
C1617 H1620 0.999 . S
C1618 H1588 0.950 . S
C1618 C1617 1.524 . S
C1618 C1619 1.415 . S
C1619 H1589 0.950 . S
C1619 C1614 1.363 . S
C1619 C1618 1.415 . S
H1620 C1617 0.999 . S
H1621 C1602 0.913 . S
H1622 C1640 0.951 . S
H1623 C1642 0.951 . S
H1624 C1644 0.950 . S
H1625 C1645 0.950 . S
H1626 C1647 0.950 . S
H1627 C1650 0.950 . S
H1628 C1651 0.950 . S
H1629 C1653 0.950 . S
H1630 C1654 0.950 . S
H1631 C1655 0.951 . S
H1632 C1657 0.951 . S
H1633 C1659 0.950 . S
H1634 C1660 0.950 . S
H1635 C1662 0.950 . S
H1636 C1665 0.950 . S
H1637 C1666 0.950 . S
H1638 C1668 0.950 . S
H1639 C1669 0.950 . S
C1640 H1622 0.951 . S
C1640 C1641 1.366 . S
C1640 C1642 1.388 . S
C1641 C1640 1.366 . S
C1641 C1645 1.385 . S
C1642 H1623 0.951 . S
C1642 C1640 1.388 . S
C1642 C1643 1.366 . S
C1643 C1642 1.366 . S
C1643 C1644 1.414 . S
C1643 C1646 1.499 . S
C1644 H1624 0.950 . S
C1644 C1643 1.414 . S
C1644 C1645 1.374 . S
C1645 H1625 0.950 . S
C1645 C1641 1.385 . S
C1645 C1644 1.374 . S
C1646 C1643 1.499 . S
C1646 C1647 1.373 . S
C1646 C1648 1.389 . S
C1647 H1626 0.950 . S
C1647 C1646 1.373 . S
C1647 C1663 1.377 . S
C1648 C1646 1.389 . S
C1648 C1649 1.524 . S
C1648 C1662 1.377 . S
C1649 C1648 1.524 . S
C1649 C1650 1.397 . S
C1649 C1654 1.363 . S
C1650 H1627 0.950 . S
C1650 C1649 1.397 . S
C1650 C1651 1.334 . S
C1651 H1628 0.950 . S
C1651 C1650 1.334 . S
C1651 C1652 1.287 . S
C1652 C1651 1.287 . S
C1652 C1653 1.524 . S
C1652 H1671 0.913 . S
C1653 H1629 0.950 . S
C1653 C1652 1.524 . S
C1653 C1654 1.415 . S
C1654 H1630 0.950 . S
C1654 C1649 1.363 . S
C1654 C1653 1.415 . S
C1655 H1631 0.951 . S
C1655 C1656 1.366 . S
C1655 C1657 1.388 . S
C1656 C1655 1.366 . S
C1656 C1660 1.385 . S
C1657 H1632 0.951 . S
C1657 C1655 1.388 . S
C1657 C1658 1.366 . S
C1658 C1657 1.366 . S
C1658 C1659 1.414 . S
C1658 C1661 1.499 . S
C1659 H1633 0.950 . S
C1659 C1658 1.414 . S
C1659 C1660 1.374 . S
C1660 H1634 0.950 . S
C1660 C1656 1.385 . S
C1660 C1659 1.374 . S
C1661 C1658 1.499 . S
C1661 C1662 1.373 . S
C1661 C1663 1.389 . S
C1662 H1635 0.950 . S
C1662 C1648 1.377 . S
C1662 C1661 1.373 . S
C1663 C1647 1.377 . S
C1663 C1661 1.389 . S
C1663 C1664 1.524 . S
C1664 C1663 1.524 . S
C1664 C1665 1.397 . S
C1664 C1669 1.363 . S
C1665 H1636 0.950 . S
C1665 C1664 1.397 . S
C1665 C1666 1.334 . S
C1666 H1637 0.950 . S
C1666 C1665 1.334 . S
C1666 C1667 1.287 . S
C1667 C1666 1.287 . S
C1667 C1668 1.524 . S
C1667 H1670 0.999 . S
C1668 H1638 0.950 . S
C1668 C1667 1.524 . S
C1668 C1669 1.415 . S
C1669 H1639 0.950 . S
C1669 C1664 1.363 . S
C1669 C1668 1.415 . S
H1670 C1667 0.999 . S
H1671 C1652 0.913 . S
C491 C255 1.921 . S
C506 C321 2.034 . S
C556 C361 2.042 . S
C541 C294 1.908 . S
C606 C401 2.035 . S
C591 C177 1.923 . S
C656 C441 2.034 1_455 S
C641 C216 1.928 1_455 S
C706 C330 2.030 1_565 S
C691 C99 1.928 . S
C741 C138 1.908 . S
C756 C370 2.041 . S
C791 C21 1.923 . S
C806 C410 2.035 . S
C841 C60 1.928 . S
C856 C450 2.037 1_655 S
C906 C327 0.272 . S
C891 C196 0.264 1_455 S
C956 C367 0.275 . S
C941 C235 0.273 . S
C1006 C407 0.273 . S
C991 C289 0.267 . S
C1041 C157 0.274 . S
C1056 C447 0.274 . S
C1091 C40 0.259 . S
C1106 C318 0.257 . S
C1156 C358 0.276 . S
C1141 C79 0.259 . S
C1206 C398 0.272 . S
C1191 C133 0.256 . S
C1241 C1 0.256 . S
C1256 C438 0.279 . S
C1291 C211 2.526 . S
C1306 C331 2.823 . S
C1341 C250 2.515 . S
C1356 C371 2.813 . S
C1406 C411 2.820 . S
C1391 C274 2.528 . S
C1456 C451 2.817 . S
C1441 C172 2.512 . S
C1491 C55 2.526 1_655 S
C1506 C322 2.824 . S
C1556 C362 2.812 . S
C1541 C94 2.515 . S
C1606 C402 2.819 . S
C1591 C118 2.529 . S
C1641 C16 2.519 . S
C1656 C442 2.825 . S
