# Generated by pormake.
# Topology pth, (4,4)-cn, num edge types: 1
# Building blocks:
#     Node 0, Type 0, BuildingBlock: CEKHIL_clean_sbu_0, # of connection points: 4
#     Node 1, Type 0, BuildingBlock: CEKHIL_clean_sbu_0, # of connection points: 4
#     Node 2, Type 0, BuildingBlock: CEKHIL_clean_sbu_0, # of connection points: 4
#     Node 3, Type 1, BuildingBlock: NAHDIM_clean_linker_0, # of connection points: 4
#     Node 4, Type 1, BuildingBlock: NAHDIM_clean_linker_0, # of connection points: 4
#     Node 5, Type 1, BuildingBlock: NAHDIM_clean_linker_0, # of connection points: 4
#     Edge 6, Type (0, 1), BuildingBlock: UVAHIK_clean_linker_0, # of connection points: 2
#     Edge 7, Type (0, 1), BuildingBlock: UVAHIK_clean_linker_0, # of connection points: 2
#     Edge 8, Type (0, 1), BuildingBlock: UVAHIK_clean_linker_0, # of connection points: 2
#     Edge 9, Type (0, 1), BuildingBlock: UVAHIK_clean_linker_0, # of connection points: 2
#     Edge 10, Type (0, 1), BuildingBlock: UVAHIK_clean_linker_0, # of connection points: 2
#     Edge 11, Type (0, 1), BuildingBlock: UVAHIK_clean_linker_0, # of connection points: 2
#     Edge 12, Type (0, 1), BuildingBlock: UVAHIK_clean_linker_0, # of connection points: 2
#     Edge 13, Type (0, 1), BuildingBlock: UVAHIK_clean_linker_0, # of connection points: 2
#     Edge 14, Type (0, 1), BuildingBlock: UVAHIK_clean_linker_0, # of connection points: 2
#     Edge 15, Type (0, 1), BuildingBlock: UVAHIK_clean_linker_0, # of connection points: 2
#     Edge 16, Type (0, 1), BuildingBlock: UVAHIK_clean_linker_0, # of connection points: 2
#     Edge 17, Type (0, 1), BuildingBlock: UVAHIK_clean_linker_0, # of connection points: 2
# Relax obj value: 0.006
# Max RMSD: 0.047
# Mean RMSD: 0.045
data_MOF--net-pth--node1-CEKHIL_clean_sbu_0--node2-NAHDIM_clean_linker_0--edge1-UVAHIK_clean_linker_0
_symmetry_space_group_name_H-M    P1
_symmetry_Int_Tables_number       1
_symmetry_cell_setting            triclinic
loop_
_symmetry_equiv_pos_as_xyz
'x, y, z'
_cell_length_a     38.043562
_cell_length_b     38.148432
_cell_length_c     99.14726
_cell_angle_alpha  90.612202
_cell_angle_beta   90.503114
_cell_angle_gamma 120.36816
loop_
_atom_site_label
_atom_site_type_symbol
_atom_site_fract_x
_atom_site_fract_y
_atom_site_fract_z
_atom_type_partial_charge
Co0 Co 0.01773 0.05255 0.08314 0.0
O1 O 0.99002 0.01062 0.09605 0.0
O2 O 0.03939 0.01625 0.08293 0.0
C3 C 0.02835 0.10424 0.09689 0.0
O4 O 0.05451 0.09286 0.06913 0.0
Co5 Co 0.98071 0.104 0.07353 0.0
O6 O 0.03693 0.14068 0.06727 0.0
C7 C 0.94752 0.02084 0.06263 0.0
C8 C 0.0135 0.99683 0.0924 0.0
C9 C 0.06136 0.12769 0.06508 0.0
O10 O 0.97579 0.01827 0.06895 0.0
O11 O 0.94276 0.05167 0.0637 0.0
O12 O 0.05285 0.08988 0.09724 0.0
O13 O 0.99637 0.08474 0.08919 0.0
Co14 Co 0.03436 0.0711 0.40803 0.0
O15 O 0.00627 0.0893 0.39659 0.0
O16 O 0.06384 0.12997 0.40777 0.0
C17 C 0.0309 0.02398 0.39343 0.0
O18 O 0.07267 0.06283 0.42033 0.0
Co19 Co 0.99116 0.98203 0.41785 0.0
O20 O 0.04794 0.99558 0.42174 0.0
C21 C 0.97195 0.04105 0.43035 0.0
C22 C 0.0355 0.12595 0.39936 0.0
C23 C 0.07648 0.03227 0.42352 0.0
O24 O 0.00076 0.07021 0.42378 0.0
O25 O 0.96187 0.00373 0.42874 0.0
O26 O 0.05954 0.06167 0.3924 0.0
O27 O 0.00387 0.01672 0.40244 0.0
Co28 Co 0.02552 0.04265 0.73963 0.0
O29 O 0.07011 0.06586 0.72735 0.0
O30 O 0.0558 0.0145 0.74081 0.0
C31 C 0.9787 0.03936 0.72482 0.0
O32 O 0.98139 0.00974 0.7532 0.0
Co33 Co 0.98121 0.08917 0.74771 0.0
O34 O 0.94154 0.03701 0.75604 0.0
C35 C 0.06357 0.11608 0.75846 0.0
C36 C 0.07884 0.03899 0.73152 0.0
C37 C 0.94976 0.00897 0.7581 0.0
O38 O 0.06098 0.08293 0.7541 0.0
O39 O 0.03681 0.12605 0.7558 0.0
O40 O 0.98791 0.01087 0.72486 0.0
O41 O -2e-05 0.06975 0.73292 0.0
C42 C 0.98247 0.64528 0.33142 0.0
C43 C 0.00696 0.68204 0.32243 0.0
C44 C 0.99708 0.65788 0.29932 0.0
C45 C 0.03743 0.67267 0.2954 0.0
C46 C 0.04676 0.65128 0.2859 0.0
C47 C 0.01495 0.61468 0.28017 0.0
C48 C 0.97394 0.60175 0.28321 0.0
C49 C 0.96548 0.62385 0.29273 0.0
C50 C 0.09074 0.66643 0.2826 0.0
C51 C 0.93932 0.56326 0.27705 0.0
C52 C 0.0249 0.34981 0.31771 0.0
C53 C 0.01605 0.37282 0.30759 0.0
C54 C 0.03927 0.44214 0.3006 0.0
C55 C 0.00715 0.43177 0.29133 0.0
C56 C 0.00703 0.46108 0.28298 0.0
C57 C 0.04052 0.50133 0.2835 0.0
C58 C 0.07318 0.51183 0.29268 0.0
C59 C 0.07179 0.48214 0.30127 0.0
C60 C 0.97072 0.44899 0.27374 0.0
C61 C 0.10946 0.55439 0.29346 0.0
C62 C 0.09629 0.44989 0.20441 0.0
C63 C 0.05532 0.43977 0.20337 0.0
C64 C 0.04369 0.46797 0.20714 0.0
C65 C 0.07377 0.50723 0.2117 0.0
C66 C 0.11538 0.51862 0.21152 0.0
C67 C 0.12608 0.48967 0.20787 0.0
C68 C -0.00085 0.45529 0.20683 0.0
C69 C 0.14832 0.56065 0.21592 0.0
C70 C 0.96999 0.71445 0.19726 0.0
C71 C 0.00449 0.71781 0.18852 0.0
C72 C 0.00836 0.65679 0.19185 0.0
C73 C 0.97982 0.61623 0.19431 0.0
C74 C 0.99028 0.59223 0.20206 0.0
C75 C 0.03059 0.6092 0.20718 0.0
C76 C 0.06015 0.64967 0.20412 0.0
C77 C 0.0487 0.67312 0.19647 0.0
C78 C 0.95809 0.54907 0.20506 0.0
C79 C 0.10361 0.66823 0.20913 0.0
C80 C 0.025 0.58693 0.27288 0.0
C81 C 0.02989 0.55936 0.28065 0.0
C82 C 0.04029 0.53255 0.27478 0.0
C83 C 0.04699 0.53376 0.26076 0.0
C84 C 0.05915 0.50834 0.25461 0.0
C85 C 0.06411 0.5086 0.24074 0.0
C86 C 0.05721 0.53439 0.23248 0.0
C87 C 0.06145 0.53428 0.21833 0.0
C88 C 0.05327 0.55939 0.21036 0.0
C89 C 0.0412 0.5851 0.2162 0.0
C90 C 0.03787 0.58649 0.23038 0.0
C91 C 0.02669 0.61268 0.23662 0.0
C92 C 0.02303 0.61339 0.25057 0.0
C93 C 0.02965 0.58738 0.25876 0.0
C94 C 0.04091 0.56076 0.25269 0.0
C95 C 0.04554 0.56071 0.23851 0.0
C96 C 0.1064 0.36821 0.21462 0.0
C97 C 0.0852 0.38072 0.20414 0.0
O98 O 0.98817 0.67479 0.30984 0.0
O99 O 0.99623 0.6792 0.18482 0.0
O100 O 0.10832 0.42231 0.20231 0.0
O101 O 0.0398 0.41466 0.3091 0.0
H102 H 0.03788 0.68584 0.32167 0.0
H103 H 0.98291 0.61846 0.32716 0.0
H104 H 0.9502 0.63757 0.33204 0.0
H105 H 0.99611 0.65152 0.34175 0.0
H106 H 0.06171 0.7002 0.30009 0.0
H107 H 0.93435 0.61326 0.29566 0.0
H108 H 0.10011 0.64557 0.2869 0.0
H109 H 0.11142 0.69753 0.28672 0.0
H110 H 0.09443 0.66652 0.2715 0.0
H111 H 0.90914 0.55967 0.27932 0.0
H112 H 0.9403 0.53667 0.28104 0.0
H113 H 0.94265 0.56311 0.26594 0.0
H114 H 0.9829 0.36169 0.30627 0.0
H115 H 0.99614 0.33282 0.32367 0.0
H116 H 0.0427 0.37191 0.32617 0.0
H117 H 0.04835 0.32023 0.30616 0.0
H118 H 0.9816 0.40107 0.29065 0.0
H119 H 0.09643 0.48991 0.30844 0.0
H120 H 0.97936 0.4479 0.26315 0.0
H121 H 0.96068 0.47169 0.2744 0.0
H122 H 0.94453 0.41866 0.27618 0.0
H123 H 0.13464 0.55628 0.29978 0.0
H124 H 0.10006 0.57521 0.29787 0.0
H125 H 0.121 0.56523 0.28319 0.0
H126 H 0.0549 0.37176 0.20839 0.0
H127 H 0.03225 0.40981 0.19984 0.0
H128 H 0.15772 0.49751 0.20826 0.0
H129 H 0.98917 0.45705 0.21718 0.0
H130 H 0.97954 0.42388 0.20278 0.0
H131 H 0.99452 0.4765 0.2005 0.0
H132 H 0.17919 0.56657 0.21334 0.0
H133 H 0.14711 0.56403 0.22702 0.0
H134 H 0.14328 0.58397 0.21113 0.0
H135 H 0.0332 0.73409 0.19461 0.0
H136 H 0.97605 0.74517 0.2003 0.0
H137 H 0.96775 0.69745 0.20655 0.0
H138 H 0.94036 0.69809 0.19169 0.0
H139 H 0.94894 0.6038 0.19047 0.0
H140 H 0.07129 0.70402 0.19403 0.0
H141 H 0.95437 0.54519 0.21614 0.0
H142 H 0.96786 0.52788 0.20127 0.0
H143 H 0.92811 0.54047 0.20037 0.0
H144 H 0.12351 0.69926 0.20521 0.0
H145 H 0.11613 0.64867 0.20607 0.0
H146 H 0.10444 0.66994 0.22033 0.0
H147 H 0.02492 0.55834 0.29144 0.0
H148 H 0.06481 0.48783 0.26046 0.0
H149 H 0.07311 0.488 0.2366 0.0
H150 H 0.05589 0.55859 0.19948 0.0
H151 H 0.02071 0.63301 0.23079 0.0
H152 H 0.01441 0.63414 0.25485 0.0
H153 H 0.08887 0.33477 0.21598 0.0
H154 H 0.10817 0.3832 0.22448 0.0
H155 H 0.13787 0.37738 0.21155 0.0
C156 C 0.37297 0.95219 0.66059 0.0
C157 C 0.37516 0.99169 0.65633 0.0
C158 C 0.39609 0.00397 0.63328 0.0
C159 C 0.42144 0.04575 0.63158 0.0
C160 C 0.45441 0.06061 0.62277 0.0
C161 C 0.46238 0.03288 0.61574 0.0
C162 C 0.43582 0.99052 0.61715 0.0
C163 C 0.4025 0.97658 0.62579 0.0
C164 C 0.48154 0.10591 0.62134 0.0
C165 C 0.4437 0.96003 0.61005 0.0
C166 C 0.7162 0.15236 0.67056 0.0
C167 C 0.7007 0.11788 0.66006 0.0
C168 C 0.67469 0.11882 0.63768 0.0
C169 C 0.64945 0.07686 0.63549 0.0
C170 C 0.61754 0.06184 0.62592 0.0
C171 C 0.61045 0.08943 0.61861 0.0
C172 C 0.63667 0.13182 0.62058 0.0
C173 C 0.66911 0.14592 0.6299 0.0
C174 C 0.59094 0.01651 0.62381 0.0
C175 C 0.6297 0.16231 0.61323 0.0
C176 C 0.70046 0.12303 0.53583 0.0
C177 C 0.67367 0.08111 0.53718 0.0
C178 C 0.63427 0.0664 0.54213 0.0
C179 C 0.62149 0.09419 0.54568 0.0
C180 C 0.64752 0.13618 0.5435 0.0
C181 C 0.68667 0.15002 0.53848 0.0
C182 C 0.60673 0.02133 0.54396 0.0
C183 C 0.63453 0.16655 0.54694 0.0
C184 C 0.30544 0.00093 0.53447 0.0
C185 C 0.33968 0.03079 0.52543 0.0
C186 C 0.40144 0.02701 0.52879 0.0
C187 C 0.41128 0.99706 0.53137 0.0
C188 C 0.4473 0.00647 0.53836 0.0
C189 C 0.47419 0.04701 0.54267 0.0
C190 C 0.46549 0.07788 0.53942 0.0
C191 C 0.42925 0.06759 0.53242 0.0
C192 C 0.45609 0.973 0.54147 0.0
C193 C 0.49415 0.12158 0.54357 0.0
C194 C 0.50091 0.04811 0.60826 0.0
C195 C 0.53644 0.06046 0.61587 0.0
C196 C 0.57391 0.07409 0.60971 0.0
C197 C 0.57613 0.07456 0.5955 0.0
C198 C 0.61301 0.08632 0.58898 0.0
C199 C 0.61514 0.0879 0.57499 0.0
C200 C 0.58041 0.07758 0.56698 0.0
C201 C 0.58245 0.07983 0.55275 0.0
C202 C 0.54739 0.06934 0.54509 0.0
C203 C 0.5101 0.05675 0.55129 0.0
C204 C 0.50741 0.05433 0.56551 0.0
C205 C 0.47034 0.04196 0.57206 0.0
C206 C 0.46808 0.03987 0.58606 0.0
C207 C 0.50278 0.05013 0.59403 0.0
C208 C 0.54052 0.06307 0.58764 0.0
C209 C 0.54275 0.06486 0.57336 0.0
C210 C 0.79971 0.15563 0.54475 0.0
C211 C 0.76511 0.12389 0.53575 0.0
O212 O 0.36659 0.9899 0.64264 0.0
O213 O 0.36529 0.01577 0.52257 0.0
O214 O 0.73969 0.13848 0.53203 0.0
O215 O 0.70423 0.13411 0.64738 0.0
H216 H 0.4067 0.01719 0.65857 0.0
H217 H 0.39616 0.94827 0.65513 0.0
H218 H 0.34237 0.92562 0.65821 0.0
H219 H 0.37928 0.95307 0.67159 0.0
H220 H 0.41583 0.0666 0.63739 0.0
H221 H 0.38244 0.9443 0.62721 0.0
H222 H 0.51079 0.11605 0.62682 0.0
H223 H 0.4674 0.12291 0.62553 0.0
H224 H 0.48859 0.11375 0.61057 0.0
H225 H 0.4214 0.92826 0.6128 0.0
H226 H 0.47486 0.9663 0.6126 0.0
H227 H 0.44199 0.96285 0.59897 0.0
H228 H 0.66807 0.09629 0.66231 0.0
H229 H 0.71283 0.14025 0.68091 0.0
H230 H 0.69821 0.16787 0.66978 0.0
H231 H 0.74881 0.17505 0.66891 0.0
H232 H 0.65461 0.05592 0.64128 0.0
H233 H 0.68917 0.17826 0.63162 0.0
H234 H 0.58586 0.00872 0.61287 0.0
H235 H 0.56077 0.00616 0.62837 0.0
H236 H 0.60446 -0.00039 0.62851 0.0
H237 H 0.64953 0.19375 0.61722 0.0
H238 H 0.5974 0.15433 0.61404 0.0
H239 H 0.63621 0.16178 0.60237 0.0
H240 H 0.74873 0.09612 0.54193 0.0
H241 H 0.6835 0.05988 0.53445 0.0
H242 H 0.70731 0.18223 0.53711 0.0
H243 H 0.60097 0.01491 0.55487 0.0
H244 H 0.62007 0.00346 0.53987 0.0
H245 H 0.57686 0.01095 0.53888 0.0
H246 H 0.65753 0.1979 0.54402 0.0
H247 H 0.62959 0.16639 0.55797 0.0
H248 H 0.60516 0.15779 0.54176 0.0
H249 H 0.35608 0.06029 0.53103 0.0
H250 H 0.28444 0.01231 0.53686 0.0
H251 H 0.31856 0.9976 0.5441 0.0
H252 H 0.28784 0.97055 0.52946 0.0
H253 H 0.38998 0.96598 0.52825 0.0
H254 H 0.42297 0.09134 0.52975 0.0
H255 H 0.45589 0.96912 0.55256 0.0
H256 H 0.48693 0.98138 0.53791 0.0
H257 H 0.43339 0.94352 0.5367 0.0
H258 H 0.48335 0.14214 0.54006 0.0
H259 H 0.52479 0.13196 0.5394 0.0
H260 H 0.49745 0.12412 0.55474 0.0
H261 H 0.53495 0.05973 0.6268 0.0
H262 H 0.64069 0.09458 0.59463 0.0
H263 H 0.64446 0.09746 0.57054 0.0
H264 H 0.54923 0.07136 0.53418 0.0
H265 H 0.44262 0.03376 0.56646 0.0
H266 H 0.43883 0.03028 0.59058 0.0
H267 H 0.82079 0.14475 0.5477 0.0
H268 H 0.78693 0.1609 0.55408 0.0
H269 H 0.81716 0.18499 0.53949 0.0
C270 C 0.64912 0.63775 0.82829 0.0
C271 C 0.65777 0.6754 0.83663 0.0
C272 C 0.63829 0.65329 0.85949 0.0
C273 C 0.61081 0.66656 0.86231 0.0
C274 C 0.5792 0.64572 0.87146 0.0
C275 C 0.57508 0.6109 0.87787 0.0
C276 C 0.60396 0.5986 0.87549 0.0
C277 C 0.63564 0.62042 0.86644 0.0
C278 C 0.54951 0.6602 0.87399 0.0
C279 C 0.60042 0.56149 0.88207 0.0
C280 C 0.31403 0.33675 0.84241 0.0
C281 C 0.34252 0.36113 0.85362 0.0
C282 C 0.37274 0.42832 0.86421 0.0
C283 C 0.40302 0.42482 0.87127 0.0
C284 C 0.43404 0.45791 0.87848 0.0
C285 C 0.4348 0.49538 0.87876 0.0
C286 C 0.40417 0.49902 0.87185 0.0
C287 C 0.37338 0.46529 0.86467 0.0
C288 C 0.46619 0.45281 0.88577 0.0
C289 C 0.40411 0.53851 0.87205 0.0
C290 C 0.35702 0.4539 0.96191 0.0
C291 C 0.38522 0.4417 0.95877 0.0
C292 C 0.42308 0.46924 0.9533 0.0
C293 C 0.43303 0.50983 0.95111 0.0
C294 C 0.40581 0.52281 0.95514 0.0
C295 C 0.36816 0.49462 0.96058 0.0
C296 C 0.45184 0.45465 0.9494 0.0
C297 C 0.41575 0.566 0.95313 0.0
C298 C 0.76408 0.70589 0.95481 0.0
C299 C 0.72996 0.70971 0.96142 0.0
C300 C 0.66093 0.65178 0.96181 0.0
C301 C 0.64196 0.60995 0.9595 0.0
C302 C 0.6025 0.58822 0.95392 0.0
C303 C 0.58124 0.60888 0.95096 0.0
C304 C 0.59913 0.65066 0.9543 0.0
C305 C 0.63901 0.67182 0.95963 0.0
C306 C 0.58409 0.54347 0.95077 0.0
C307 C 0.57667 0.67319 0.95177 0.0
C308 C 0.53868 0.58548 0.88611 0.0
C309 C 0.5032 0.5567 0.87928 0.0
C310 C 0.46808 0.53043 0.8863 0.0
C311 C 0.46749 0.53401 0.90046 0.0
C312 C 0.43202 0.50931 0.90773 0.0
C313 C 0.43235 0.51117 0.92174 0.0
C314 C 0.46842 0.5372 0.92903 0.0
C315 C 0.46969 0.53732 0.94329 0.0
C316 C 0.50643 0.56221 0.95023 0.0
C317 C 0.54213 0.58742 0.94326 0.0
C318 C 0.54109 0.58886 0.929 0.0
C319 C 0.5762 0.61462 0.92166 0.0
C320 C 0.57518 0.61463 0.90762 0.0
C321 C 0.53942 0.58786 0.90037 0.0
C322 C 0.50358 0.56206 0.90756 0.0
C323 C 0.50425 0.5631 0.92188 0.0
C324 C 0.25621 0.37932 0.95571 0.0
C325 C 0.29544 0.3866 0.96267 0.0
O326 O 0.66685 0.67108 0.84987 0.0
O327 O 0.70053 0.67196 0.96593 0.0
O328 O 0.31892 0.42744 0.96623 0.0
O329 O 0.34313 0.39701 0.85671 0.0
H330 H 0.62963 0.67749 0.83612 0.0
H331 H 0.6219 0.61051 0.83225 0.0
H332 H 0.67533 0.63258 0.82882 0.0
H333 H 0.64287 0.64131 0.81758 0.0
H334 H 0.61384 0.69293 0.85723 0.0
H335 H 0.6574 0.6108 0.86427 0.0
H336 H 0.51919 0.63767 0.86969 0.0
H337 H 0.55939 0.69014 0.86939 0.0
H338 H 0.54592 0.66262 0.88501 0.0
H339 H 0.62513 0.55574 0.87904 0.0
H340 H 0.57063 0.5344 0.8793 0.0
H341 H 0.6015 0.56523 0.89321 0.0
H342 H 0.34072 0.34346 0.86274 0.0
H343 H 0.35285 0.33863 0.82713 0.0
H344 H 0.29244 0.34859 0.84106 0.0
H345 H 0.29074 0.30753 0.84716 0.0
H346 H 0.40282 0.39637 0.87115 0.0
H347 H 0.34991 0.46778 0.85923 0.0
H348 H 0.46422 0.45663 0.8968 0.0
H349 H 0.497 0.47654 0.8826 0.0
H350 H 0.46278 0.4225 0.88381 0.0
H351 H 0.37734 0.53606 0.86657 0.0
H352 H 0.43234 0.56255 0.86735 0.0
H353 H 0.40407 0.54825 0.88264 0.0
H354 H 0.31121 0.37752 0.95521 0.0
H355 H 0.3777 0.41071 0.96048 0.0
H356 H 0.34652 0.50391 0.96334 0.0
H357 H 0.4557 0.45633 0.93829 0.0
H358 H 0.44072 0.42288 0.9525 0.0
H359 H 0.48226 0.4747 0.95411 0.0
H360 H 0.39258 0.57199 0.9576 0.0
H361 H 0.41753 0.57227 0.94217 0.0
H362 H 0.446 0.58743 0.95774 0.0
H363 H 0.71726 0.72067 0.95342 0.0
H364 H 0.78836 0.736 0.9513 0.0
H365 H 0.75164 0.68489 0.94593 0.0
H366 H 0.77764 0.6936 0.96196 0.0
H367 H 0.65894 0.59472 0.96151 0.0
H368 H 0.65319 0.70399 0.96197 0.0
H369 H 0.57498 0.53717 0.93995 0.0
H370 H 0.55623 0.52595 0.9568 0.0
H371 H 0.60544 0.53242 0.95307 0.0
H372 H 0.59238 0.70396 0.95656 0.0
H373 H 0.54521 0.65569 0.95568 0.0
H374 H 0.57427 0.67646 0.94074 0.0
H375 H 0.50346 0.55355 0.8684 0.0
H376 H 0.40362 0.48815 0.90265 0.0
H377 H 0.40412 0.49126 0.92676 0.0
H378 H 0.50749 0.56107 0.96115 0.0
H379 H 0.60495 0.63507 0.92667 0.0
H380 H 0.60307 0.63512 0.90252 0.0
H381 H 0.23874 0.38814 0.96249 0.0
H382 H 0.23678 0.34677 0.95274 0.0
H383 H 0.26375 0.39778 0.94645 0.0
C384 C 0.07565 0.16715 0.10991 0.0
C385 C 0.03612 0.13983 0.10512 0.0
C386 C 0.08269 0.19888 0.11872 0.0
C387 C 0.03411 0.25357 0.1342 0.0
H388 H 0.11199 0.27377 0.16304 0.0
C389 C 0.04122 0.32985 0.18594 0.0
C390 C 0.08015 0.35888 0.19084 0.0
C391 C 0.03683 0.30783 0.17407 0.0
C392 C 0.09052 0.26882 0.15496 0.0
H393 H 0.9731 0.12484 0.10533 0.0
H394 H 0.98489 0.17905 0.12123 0.0
H395 H 0.1027 0.22666 0.14484 0.0
H396 H 0.14484 0.38896 0.18692 0.0
H397 H 0.13722 0.34981 0.1663 0.0
H398 H 0.02074 0.29457 0.1449 0.0
C399 C 0.01078 0.17686 0.11794 0.0
C400 C 0.08529 0.24196 0.14446 0.0
C401 C 0.00391 0.14559 0.10889 0.0
C402 C 0.11453 0.36641 0.18343 0.0
C403 C 0.11018 0.3441 0.17167 0.0
C404 C 0.03894 0.28005 0.14486 0.0
C405 C 0.05017 0.20342 0.12319 0.0
C406 C 0.05695 0.23383 0.13394 0.0
C407 C 0.07135 0.31421 0.16699 0.0
C408 C 0.06714 0.28779 0.15534 0.0
H409 H 0.10112 0.16371 0.10697 0.0
H410 H 0.11361 0.21941 0.12221 0.0
H411 H 0.01244 0.24855 0.12619 0.0
H412 H 0.01423 0.32361 0.19144 0.0
H413 H 0.00658 0.28475 0.1707 0.0
C414 C 0.92296 0.02102 0.44936 0.0
C415 C 0.94922 0.05075 0.44033 0.0
C416 C 0.9012 0.02968 0.45874 0.0
C417 C 0.90005 0.11498 0.47627 0.0
H418 H 0.79017 0.03149 0.48512 0.0
C419 C 0.80101 0.14416 0.51334 0.0
C420 C 0.78194 0.11473 0.52331 0.0
C421 C 0.81915 0.13673 0.50234 0.0
C422 C 0.82088 0.05502 0.48278 0.0
H423 H 0.97291 0.11295 0.43405 0.0
H424 H 0.93428 0.12788 0.45033 0.0
H425 H 0.82641 0.01841 0.46743 0.0
H426 H 0.76627 0.05427 0.52947 0.0
H427 H 0.79773 0.04112 0.51018 0.0
H428 H 0.89438 0.15154 0.49166 0.0
C429 C 0.9311 0.09802 0.45027 0.0
C430 C 0.84172 0.04753 0.47268 0.0
C431 C 0.95314 0.08942 0.44091 0.0
C432 C 0.78058 0.07739 0.5219 0.0
C433 C 0.79844 0.06983 0.51084 0.0
C434 C 0.87909 0.12256 0.48631 0.0
C435 C 0.90484 0.06821 0.4593 0.0
C436 C 0.88178 0.07721 0.46943 0.0
C437 C 0.81835 0.09962 0.50104 0.0
C438 C 0.83949 0.09247 0.48979 0.0
H439 H 0.91941 0.991 0.44929 0.0
H440 H 0.88195 0.00626 0.46572 0.0
H441 H 0.93103 0.13831 0.47416 0.0
H442 H 0.80243 0.17318 0.5142 0.0
H443 H 0.83393 0.16006 0.49486 0.0
C444 C 0.88464 0.9699 0.77069 0.0
C445 C 0.92244 0.97496 0.76689 0.0
C446 C 0.85934 0.93883 0.77933 0.0
C447 C 0.83946 0.84036 0.79273 0.0
H448 H 0.77624 0.86095 0.81878 0.0
C449 C 0.73227 0.71931 0.83052 0.0
C450 C 0.69267 0.71341 0.83076 0.0
C451 C 0.76357 0.75283 0.82403 0.0
C452 C 0.79367 0.85476 0.81154 0.0
H453 H 0.96316 0.95108 0.76923 0.0
H454 H 0.91921 0.8972 0.78451 0.0
H455 H 0.82493 0.91609 0.80482 0.0
H456 H 0.65517 0.73862 0.82478 0.0
H457 H 0.70981 0.79732 0.81363 0.0
H458 H 0.80796 0.7789 0.79952 0.0
C459 C 0.90889 0.91695 0.78062 0.0
C460 C 0.82144 0.88627 0.80349 0.0
C461 C 0.93416 0.94793 0.77188 0.0
C462 C 0.68537 0.7424 0.82478 0.0
C463 C 0.71669 0.77608 0.81844 0.0
C464 C 0.81187 0.80889 0.80088 0.0
C465 C 0.87124 0.91215 0.7845 0.0
C466 C 0.84409 0.8793 0.79379 0.0
C467 C 0.75596 0.78136 0.81783 0.0
C468 C 0.78815 0.81561 0.81018 0.0
H469 H 0.87443 0.9899 0.76696 0.0
H470 H 0.83017 0.93551 0.78184 0.0
H471 H 0.85607 0.83376 0.78529 0.0
H472 H 0.73876 0.69751 0.83511 0.0
H473 H 0.79365 0.75637 0.82381 0.0
C474 C 0.04033 0.94978 0.09684 0.0
C475 C 0.01163 0.96183 0.09932 0.0
C476 C 0.03994 0.91865 0.10433 0.0
C477 C 0.97518 0.83391 0.12713 0.0
H478 H 0.07825 0.85397 0.14218 0.0
C479 C 0.03667 0.78402 0.17605 0.0
C480 C 0.00863 0.7421 0.17608 0.0
C481 C 0.03868 0.80736 0.16502 0.0
C482 C 0.04921 0.84795 0.13807 0.0
H483 H 0.95935 0.95001 0.11128 0.0
H484 H 0.95895 0.89647 0.12433 0.0
H485 H 0.07742 0.90054 0.12569 0.0
H486 H 0.96023 0.69178 0.16466 0.0
H487 H 0.96434 0.73231 0.14522 0.0
H488 H 0.94675 0.78266 0.14 0.0
C489 C 0.98146 0.91046 0.11654 0.0
C490 C 0.04878 0.87434 0.12848 0.0
C491 C 0.9819 0.94145 0.1091 0.0
C492 C 0.98261 0.72393 0.16482 0.0
C493 C 0.98474 0.74723 0.15375 0.0
C494 C 0.97559 0.80765 0.13674 0.0
C495 C 0.01071 0.89896 0.11436 0.0
C496 C 0.01167 0.86812 0.12314 0.0
C497 C 0.01252 0.78931 0.15377 0.0
C498 C 0.01255 0.81482 0.14253 0.0
H499 H 0.0636 0.96495 0.08935 0.0
H500 H 0.06268 0.91023 0.10235 0.0
H501 H 0.94611 0.82794 0.12306 0.0
H502 H 0.05651 0.79889 0.18471 0.0
H503 H 0.05981 0.8398 0.16551 0.0
C504 C 0.12524 0.00952 0.42981 0.0
C505 C 0.11396 0.03929 0.43051 0.0
C506 C 0.15704 0.01287 0.43787 0.0
C507 C 0.24207 0.08127 0.4613 0.0
H508 H 0.21298 0.97951 0.47853 0.0
C509 C 0.31549 0.06932 0.51118 0.0
C510 C 0.32205 0.03642 0.51248 0.0
C511 C 0.29585 0.07268 0.49971 0.0
C512 C 0.22202 0.00807 0.47366 0.0
H513 H 0.12865 0.09719 0.43957 0.0
H514 H 0.18354 0.10249 0.45402 0.0
H515 H 0.1693 0.98067 0.46084 0.0
H516 H 0.31328 0.98127 0.5028 0.0
H517 H 0.27963 0.98746 0.48267 0.0
H518 H 0.29434 0.1087 0.47458 0.0
C519 C 0.16825 0.07685 0.44708 0.0
C520 C 0.19696 0.00876 0.46347 0.0
C521 C 0.1367 0.07377 0.43884 0.0
C522 C 0.30906 0.00721 0.502 0.0
C523 C 0.28954 0.01061 0.49053 0.0
C524 C 0.26719 0.08059 0.47158 0.0
C525 C 0.17785 0.04573 0.44699 0.0
C526 C 0.20649 0.04535 0.4572 0.0
C527 C 0.28207 0.04299 0.48936 0.0
C528 C 0.25723 0.04396 0.47791 0.0
H529 H 0.10873 0.983 0.42328 0.0
H530 H 0.16443 0.98896 0.43726 0.0
H531 H 0.25044 0.1099 0.4566 0.0
H532 H 0.32468 0.09191 0.5192 0.0
H533 H 0.29001 0.09764 0.4992 0.0
C534 C 0.11822 0.12876 0.77531 0.0
C535 C 0.09864 0.1438 0.76716 0.0
C536 C 0.15043 0.1549 0.78392 0.0
C537 C 0.20008 0.25902 0.79953 0.0
H538 H 0.28713 0.23682 0.80691 0.0
C539 C 0.36058 0.39226 0.83032 0.0
C540 C 0.37197 0.36652 0.84414 0.0
C541 C 0.31916 0.35837 0.81923 0.0
C542 C 0.26285 0.24319 0.80502 0.0
H543 H 0.09802 0.19807 0.76132 0.0
H544 H 0.15542 0.244 0.77576 0.0
H545 H 0.23177 0.19218 0.79157 0.0
H546 H 0.36892 0.29924 0.85056 0.0
H547 H 0.305 0.24896 0.83141 0.0
H548 H 0.23254 0.31108 0.81267 0.0
C549 C 0.14508 0.21186 0.77597 0.0
C550 C 0.23093 0.21749 0.79627 0.0
C551 C 0.11232 0.18557 0.7676 0.0
C552 C 0.35907 0.31268 0.84295 0.0
C553 C 0.3179 0.28154 0.83144 0.0
C554 C 0.23254 0.2852 0.80806 0.0
C555 C 0.1644 0.19687 0.78434 0.0
C556 C 0.19888 0.22482 0.79348 0.0
C557 C 0.29751 0.304 0.82018 0.0
C558 C 0.26389 0.27721 0.81094 0.0
H559 H 0.10802 0.0966 0.77528 0.0
H560 H 0.16384 0.14197 0.79039 0.0
H561 H 0.17567 0.26533 0.79789 0.0
H562 H 0.37173 0.42457 0.83059 0.0
H563 H 0.30728 0.37077 0.81194 0.0
C564 C 0.94109 0.07178 0.71583 0.0
C565 C 0.94767 0.03876 0.71565 0.0
C566 C 0.914 0.07332 0.70668 0.0
C567 C 0.8248 0.0125 0.68527 0.0
H568 H 0.85876 0.11785 0.66996 0.0
C569 C 0.71385 0.06614 0.67089 0.0
C570 C 0.7248 0.09637 0.6612 0.0
C571 C 0.73957 0.05104 0.6739 0.0
C572 C 0.84881 0.08787 0.67382 0.0
H573 H 0.93022 0.9808 0.70601 0.0
H574 H 0.88209 0.9834 0.68994 0.0
H575 H 0.90774 0.10734 0.68234 0.0
H576 H 0.77035 0.133 0.64655 0.0
H577 H 0.81456 0.10557 0.65144 0.0
H578 H 0.7655 0.9933 0.67692 0.0
C579 C 0.89826 0.00812 0.69717 0.0
C580 C 0.87687 0.08206 0.68109 0.0
C581 C 0.92573 0.00667 0.70634 0.0
C582 C 0.76092 0.10953 0.65402 0.0
C583 C 0.78641 0.09403 0.6569 0.0
C584 C 0.79658 0.01828 0.67791 0.0
C585 C 0.89272 0.04186 0.69713 0.0
C586 C 0.86476 0.04491 0.68736 0.0
C587 C 0.77687 0.06583 0.66727 0.0
C588 C 0.80793 0.05654 0.67255 0.0
H589 H 0.9573 0.09688 0.72293 0.0
H590 H 0.90962 0.09925 0.70711 0.0
H591 H 0.81472 0.98348 0.68994 0.0
H592 H 0.68638 0.05583 0.67666 0.0
H593 H 0.7314 0.02982 0.68207 0.0
C594 C 0.89606 0.99244 0.04368 0.0
C595 C 0.92012 0.98708 0.05335 0.0
C596 C 0.87206 0.96139 0.0344 0.0
C597 C 0.82299 0.85138 0.0281 0.0
H598 H 0.83254 0.88054 0.99041 0.0
C599 C 0.76215 0.73171 0.98475 0.0
C600 C 0.74648 0.73989 0.97308 0.0
C601 C 0.78023 0.76095 0.99507 0.0
C602 C 0.82887 0.87189 0.0009 0.0
H603 H 0.93679 0.94434 0.06112 0.0
H604 H 0.89457 0.89008 0.04495 0.0
H605 H 0.86928 0.93316 0.00755 0.0
H606 H 0.73602 0.78433 0.96327 0.0
H607 H 0.76647 0.83499 0.98143 0.0
H608 H 0.78237 0.79011 0.02147 0.0
C609 C 0.89441 0.91837 0.04457 0.0
C610 C 0.85006 0.90208 0.01071 0.0
C611 C 0.91877 0.94956 0.05376 0.0
C612 C 0.74807 0.77734 0.97212 0.0
C613 C 0.76581 0.80644 0.98249 0.0
C614 C 0.80144 0.82116 0.01828 0.0
C615 C 0.87124 0.92419 0.03469 0.0
C616 C 0.84751 0.89212 0.0244 0.0
C617 C 0.78274 0.79889 0.99399 0.0
C618 C 0.8043 0.83103 0.00454 0.0
H619 H 0.89639 0.02093 0.04307 0.0
H620 H 0.85419 0.96653 0.02696 0.0
H621 H 0.82021 0.84295 0.0386 0.0
H622 H 0.76124 0.70301 0.98573 0.0
H623 H 0.79332 0.75421 0.0037 0.0
C624 C 0.99425 0.95304 0.38449 0.0
C625 C 0.03018 0.99096 0.38541 0.0
C626 C 0.99316 0.92124 0.37711 0.0
C627 C 0.04866 0.89786 0.35121 0.0
H628 H 0.98198 0.78874 0.3647 0.0
C629 C 0.0495 0.75384 0.33163 0.0
C630 C 0.01082 0.72019 0.32859 0.0
C631 C 0.05316 0.78859 0.33783 0.0
C632 C 0.00051 0.81906 0.3608 0.0
H633 H 0.09326 0.02562 0.37941 0.0
H634 H 0.09193 0.96944 0.36688 0.0
H635 H 0.98719 0.84611 0.37742 0.0
H636 H 0.94582 0.69741 0.32893 0.0
H637 H 0.95225 0.75776 0.34022 0.0
H638 H 0.06291 0.87022 0.33481 0.0
C639 C 0.06422 0.96453 0.37156 0.0
C640 C 0.00338 0.85195 0.36802 0.0
C641 C 0.06509 0.99664 0.37879 0.0
C642 C 0.97593 0.72251 0.33145 0.0
C643 C 0.97959 0.75697 0.33785 0.0
C644 C 0.04631 0.86487 0.3441 0.0
C645 C 0.02823 0.92635 0.37068 0.0
C646 C 0.02699 0.89173 0.36323 0.0
C647 C 0.0182 0.79006 0.34121 0.0
C648 C 0.02177 0.82523 0.34877 0.0
H649 H 0.96677 0.94799 0.3894 0.0
H650 H 0.96462 0.89267 0.37639 0.0
H651 H 0.06677 0.92797 0.34714 0.0
H652 H 0.0769 0.75304 0.32938 0.0
H653 H 0.08322 0.81382 0.34035 0.0
C654 C 0.13728 0.06405 0.71583 0.0
C655 C 0.11243 0.03573 0.72544 0.0
C656 C 0.16739 0.05993 0.70932 0.0
C657 C 0.19453 0.98337 0.69989 0.0
H658 H 0.29877 0.07778 0.69166 0.0
C659 C 0.30354 0.97697 0.6611 0.0
C660 C 0.34539 0.9985 0.66433 0.0
C661 C 0.27596 0.98168 0.66904 0.0
C662 C 0.26996 0.05105 0.69397 0.0
H663 H 0.10027 0.98137 0.73602 0.0
H664 H 0.15325 0.97425 0.72467 0.0
H665 H 0.25045 0.08584 0.70542 0.0
H666 H 0.39099 0.04075 0.6786 0.0
H667 H 0.3429 0.04894 0.6925 0.0
H668 H 0.21421 0.94853 0.68854 0.0
C669 C 0.14906 -0.00058 0.72208 0.0
C670 C 0.24211 0.05572 0.70175 0.0
C671 C 0.11892 0.00364 0.72864 0.0
C672 C 0.35901 0.02443 0.67574 0.0
C673 C 0.33147 0.02913 0.68367 0.0
C674 C 0.22238 0.9787 0.69209 0.0
C675 C 0.17338 0.02735 0.71226 0.0
C676 C 0.20395 0.02199 0.70471 0.0
C677 C 0.2896 0.00774 0.68044 0.0
C678 C 0.2603 0.01253 0.68896 0.0
H679 H 0.13306 0.08913 0.71313 0.0
H680 H 0.18522 0.08168 0.7017 0.0
H681 H 0.16524 0.95683 0.70188 0.0
H682 H 0.29216 0.9563 0.65249 0.0
H683 H 0.24396 0.96506 0.6662 0.0
C684 C 0.11683 0.13603 0.04953 0.0
C685 C 0.09781 0.15321 0.05698 0.0
C686 C 0.14857 0.15999 0.0408 0.0
C687 C 0.22275 0.26666 0.0322 0.0
H688 H 0.20355 0.22641 0.99523 0.0
C689 C 0.27365 0.37203 0.98698 0.0
C690 C 0.28539 0.36073 0.97507 0.0
C691 C 0.26013 0.34611 0.99796 0.0
C692 C 0.21007 0.23787 0.00553 0.0
H693 H 0.09876 0.20931 0.06177 0.0
H694 H 0.15395 0.25088 0.04668 0.0
H695 H 0.16345 0.18117 0.0132 0.0
H696 H 0.29244 0.3136 0.96534 0.0
H697 H 0.26906 0.26822 0.98463 0.0
H698 H 0.26834 0.32377 0.02448 0.0
C699 C 0.14445 0.21902 0.04752 0.0
C700 C 0.18705 0.21189 0.01584 0.0
C701 C 0.11251 0.19508 0.05607 0.0
C702 C 0.28396 0.32321 0.97446 0.0
C703 C 0.27037 0.29719 0.98546 0.0
C704 C 0.24587 0.29258 0.02191 0.0
C705 C 0.16225 0.20162 0.03957 0.0
C706 C 0.19213 0.22647 0.0292 0.0
C707 C 0.25773 0.30811 0.99726 0.0
C708 C 0.23873 0.2789 0.0084 0.0
H709 H 0.10617 0.10384 0.05004 0.0
H710 H 0.16188 0.14586 0.03482 0.0
H711 H 0.22776 0.2785 0.04245 0.0
H712 H 0.27373 0.40043 0.98764 0.0
H713 H 0.24983 0.35515 0.00678 0.0
C714 C 0.00275 0.15554 0.38554 0.0
C715 C 0.03804 0.16025 0.39187 0.0
C716 C 0.0055 0.18279 0.37581 0.0
C717 C 0.07023 0.28089 0.35967 0.0
H718 H 0.00957 0.22035 0.32767 0.0
C719 C 0.08554 0.37833 0.30612 0.0
C720 C 0.03326 0.35694 0.2987 0.0
C721 C 0.08881 0.35065 0.32024 0.0
C722 C 0.02622 0.23784 0.33655 0.0
H723 H 0.10355 0.19899 0.3939 0.0
H724 H 0.10843 0.2469 0.37666 0.0
H725 H 0.00793 0.18413 0.34781 0.0
H726 H 0.96413 0.29022 0.29495 0.0
H727 H 0.97435 0.24812 0.31714 0.0
H728 H 0.0881 0.33474 0.34828 0.0
C729 C 0.07868 0.22208 0.37929 0.0
C730 C 0.02535 0.21704 0.34809 0.0
C731 C 0.07588 0.19475 0.38916 0.0
C732 C 0.99313 0.3028 0.30023 0.0
C733 C -0.00069 0.27761 0.31447 0.0
C734 C 0.07096 0.30185 0.34804 0.0
C735 C 0.04364 0.21515 0.37211 0.0
C736 C 0.04664 0.23828 0.35986 0.0
C737 C 0.04578 0.30184 0.32457 0.0
C738 C 0.04831 0.2804 0.33648 0.0
H739 H 0.97313 0.1295 0.38758 0.0
H740 H 0.97789 0.17733 0.37066 0.0
H741 H 0.08706 0.29795 0.36859 0.0
H742 H 0.10978 0.40884 0.30404 0.0
H743 H 0.11672 0.36354 0.32617 0.0
loop_
_geom_bond_atom_site_label_1
_geom_bond_atom_site_label_2
_geom_bond_distance
_geom_bond_site_symmetry_2
_ccdc_geom_bond_type
Co0 O1 2.217 1_545 S
Co0 O2 2.091 . S
Co0 O4 2.004 . S
Co0 O10 2.021 . S
Co0 O12 2.137 . S
Co0 O13 2.244 . S
O1 Co0 2.217 1_565 S
O1 C8 1.251 . S
O2 Co0 2.091 . S
O2 C8 1.261 1_545 S
C3 O12 1.247 . S
C3 O13 1.272 . S
O4 Co0 2.004 . S
O4 C9 1.259 . S
Co5 O6 2.061 1_655 S
Co5 O11 2.052 . S
Co5 O13 2.135 1_655 S
O6 Co5 2.061 1_455 S
O6 C9 1.235 . S
C7 O10 1.238 1_655 S
C7 O11 1.241 . S
C8 O1 1.251 . S
C8 O2 1.261 1_565 S
C9 O4 1.259 . S
C9 O6 1.235 . S
O10 Co0 2.021 . S
O10 C7 1.238 1_455 S
O11 Co5 2.052 . S
O11 C7 1.241 . S
O12 Co0 2.137 . S
O12 C3 1.247 . S
O13 Co0 2.244 . S
O13 C3 1.272 . S
O13 Co5 2.135 1_455 S
Co14 O15 2.216 . S
Co14 O16 2.091 . S
Co14 O18 2.004 . S
Co14 O24 2.021 . S
Co14 O26 2.137 . S
Co14 O27 2.244 . S
O15 Co14 2.216 . S
O15 C22 1.247 . S
O16 Co14 2.091 . S
O16 C22 1.261 . S
C17 O26 1.247 . S
C17 O27 1.272 . S
O18 Co14 2.004 . S
O18 C23 1.259 . S
Co19 O20 2.061 1_565 S
Co19 O25 2.052 1_465 S
Co19 O27 2.135 1_565 S
O20 Co19 2.061 1_545 S
O20 C23 1.235 . S
C21 O24 1.238 1_655 S
C21 O25 1.241 . S
C22 O15 1.247 . S
C22 O16 1.261 . S
C23 O18 1.259 . S
C23 O20 1.235 . S
O24 Co14 2.021 . S
O24 C21 1.238 1_455 S
O25 Co19 2.052 1_645 S
O25 C21 1.241 . S
O26 Co14 2.137 . S
O26 C17 1.247 . S
O27 Co14 2.244 . S
O27 C17 1.272 . S
O27 Co19 2.135 1_545 S
Co28 O29 2.216 . S
Co28 O30 2.091 . S
Co28 O32 2.004 1_445 S
Co28 O38 2.021 . S
Co28 O40 2.137 1_455 S
Co28 O41 2.244 1_455 S
O29 Co28 2.216 . S
O29 C36 1.247 . S
O30 Co28 2.091 . S
O30 C36 1.261 . S
C31 O40 1.247 . S
C31 O41 1.272 . S
O32 Co28 2.004 1_665 S
O32 C37 1.259 . S
Co33 O34 2.061 . S
Co33 O39 2.052 1_655 S
Co33 O41 2.135 . S
O34 Co33 2.061 . S
O34 C37 1.235 1_545 S
C35 O38 1.238 . S
C35 O39 1.241 . S
C36 O29 1.247 . S
C36 O30 1.261 . S
C37 O32 1.259 . S
C37 O34 1.235 1_565 S
O38 Co28 2.021 . S
O38 C35 1.238 . S
O39 Co33 2.052 1_455 S
O39 C35 1.241 . S
O40 Co28 2.137 1_655 S
O40 C31 1.247 . S
O41 Co28 2.244 1_655 S
O41 C31 1.272 . S
O41 Co33 2.135 . S
C42 C43 1.560 1_655 S
C42 H103 0.959 . S
C42 H104 0.959 . S
C42 H105 0.960 . S
C43 C42 1.560 1_455 S
C43 O98 1.426 1_455 S
C43 H102 0.980 . S
C44 C45 1.407 . S
C44 C49 1.418 1_455 S
C44 O98 1.334 1_455 S
C45 C44 1.407 . S
C45 C46 1.360 . S
C45 H106 0.929 . S
C46 C45 1.360 . S
C46 C47 1.401 . S
C46 C50 1.527 . S
C47 C46 1.401 . S
C47 C48 1.405 1_455 S
C47 C80 1.587 . S
C48 C47 1.405 1_655 S
C48 C49 1.332 . S
C48 C51 1.496 . S
C49 C44 1.418 1_655 S
C49 C48 1.332 . S
C49 H107 0.929 . S
C50 C46 1.527 . S
C50 H108 0.959 . S
C50 H109 0.961 . S
C50 H110 0.961 . S
C51 C48 1.496 . S
C51 H111 0.960 . S
C51 H112 0.960 . S
C51 H113 0.961 . S
C52 C53 1.517 . S
C52 H115 0.961 . S
C52 H116 0.960 . S
C52 H117 0.959 . S
C53 C52 1.517 . S
C53 O101 1.468 . S
C53 H114 0.980 . S
C54 C55 1.349 . S
C54 C59 1.367 . S
C54 O101 1.408 . S
C55 C54 1.349 . S
C55 C56 1.407 . S
C55 H118 0.930 . S
C56 C55 1.407 . S
C56 C57 1.449 . S
C56 C60 1.535 1_455 S
C57 C56 1.449 . S
C57 C58 1.384 . S
C57 C82 1.553 . S
C58 C57 1.384 . S
C58 C59 1.364 . S
C58 C61 1.450 . S
C59 C54 1.367 . S
C59 C58 1.364 . S
C59 H119 0.931 . S
C60 C56 1.535 1_655 S
C60 H120 0.959 . S
C60 H121 0.961 . S
C60 H122 0.959 . S
C61 C58 1.450 . S
C61 H123 0.960 . S
C61 H124 0.960 . S
C61 H125 0.960 . S
C62 C63 1.309 . S
C62 C67 1.304 . S
C62 O100 1.435 . S
C63 C62 1.309 . S
C63 C64 1.476 . S
C63 H127 0.930 1_455 S
C64 C63 1.476 . S
C64 C65 1.400 . S
C64 C68 1.567 1_455 S
C65 C64 1.400 . S
C65 C66 1.373 . S
C65 C87 1.432 . S
C66 C65 1.373 . S
C66 C67 1.339 . S
C66 C69 1.530 . S
C67 C62 1.304 . S
C67 C66 1.339 . S
C67 H128 0.930 . S
C68 C64 1.567 1_655 S
C68 H129 0.961 . S
C68 H130 0.960 . S
C68 H131 0.958 . S
C69 C66 1.530 . S
C69 H132 0.961 . S
C69 H133 0.960 . S
C69 H134 0.960 . S
C70 C71 1.530 1_655 S
C70 H136 0.962 . S
C70 H137 0.961 . S
C70 H138 0.959 . S
C71 C70 1.530 1_455 S
C71 O99 1.412 1_455 S
C71 H135 0.980 . S
C72 C73 1.288 . S
C72 C77 1.377 1_655 S
C72 O99 1.393 . S
C73 C72 1.288 . S
C73 C74 1.369 . S
C73 H139 0.932 . S
C74 C73 1.369 . S
C74 C75 1.398 1_655 S
C74 C78 1.527 . S
C75 C74 1.398 1_455 S
C75 C76 1.380 . S
C75 C89 1.497 . S
C76 C75 1.380 . S
C76 C77 1.383 . S
C76 C79 1.603 . S
C77 C72 1.377 1_455 S
C77 C76 1.383 . S
C77 H140 0.929 . S
C78 C74 1.527 . S
C78 H141 0.961 . S
C78 H142 0.959 . S
C78 H143 0.959 . S
C79 C76 1.603 . S
C79 H144 0.960 . S
C79 H145 0.962 . S
C79 H146 0.961 . S
C80 C47 1.587 . S
C80 C81 1.360 . S
C80 C93 1.412 . S
C81 C80 1.360 . S
C81 C82 1.365 . S
C81 H147 0.929 . S
C82 C57 1.553 . S
C82 C81 1.365 . S
C82 C83 1.404 . S
C83 C82 1.404 . S
C83 C84 1.395 . S
C83 C94 1.451 . S
C84 C83 1.395 . S
C84 C85 1.322 . S
C84 H148 0.930 . S
C85 C84 1.322 . S
C85 C86 1.459 . S
C85 H149 0.929 . S
C86 C85 1.459 . S
C86 C87 1.445 . S
C86 C95 1.395 . S
C87 C65 1.432 . S
C87 C86 1.445 . S
C87 C88 1.370 . S
C88 C87 1.370 . S
C88 C89 1.438 . S
C88 H150 0.930 . S
C89 C75 1.497 . S
C89 C88 1.438 . S
C89 C90 1.360 . S
C90 C89 1.360 . S
C90 C91 1.401 . S
C90 C95 1.446 . S
C91 C90 1.401 . S
C91 C92 1.347 . S
C91 H151 0.929 . S
C92 C91 1.347 . S
C92 C93 1.455 . S
C92 H152 0.930 . S
C93 C80 1.412 . S
C93 C92 1.455 . S
C93 C94 1.331 . S
C94 C83 1.451 . S
C94 C93 1.331 . S
C94 C95 1.497 . S
C95 C86 1.395 . S
C95 C90 1.446 . S
C95 C94 1.497 . S
C96 C97 1.582 . S
C96 H153 0.962 . S
C96 H154 0.959 . S
C96 H155 0.958 . S
C97 C96 1.582 . S
C97 O100 1.458 . S
C97 H126 0.980 . S
O98 C43 1.426 1_655 S
O98 C44 1.334 1_655 S
O99 C71 1.412 1_655 S
O99 C72 1.393 . S
O100 C62 1.435 . S
O100 C97 1.458 . S
O101 C53 1.468 . S
O101 C54 1.408 . S
H102 C43 0.980 . S
H103 C42 0.959 . S
H104 C42 0.959 . S
H105 C42 0.960 . S
H106 C45 0.929 . S
H107 C49 0.929 . S
H108 C50 0.959 . S
H109 C50 0.961 . S
H110 C50 0.961 . S
H111 C51 0.960 . S
H112 C51 0.960 . S
H113 C51 0.961 . S
H114 C53 0.980 . S
H115 C52 0.961 . S
H116 C52 0.960 . S
H117 C52 0.959 . S
H118 C55 0.930 . S
H119 C59 0.931 . S
H120 C60 0.959 . S
H121 C60 0.961 . S
H122 C60 0.959 . S
H123 C61 0.960 . S
H124 C61 0.960 . S
H125 C61 0.960 . S
H126 C97 0.980 . S
H127 C63 0.930 1_655 S
H128 C67 0.930 . S
H129 C68 0.961 . S
H130 C68 0.960 . S
H131 C68 0.958 . S
H132 C69 0.961 . S
H133 C69 0.960 . S
H134 C69 0.960 . S
H135 C71 0.980 . S
H136 C70 0.962 . S
H137 C70 0.961 . S
H138 C70 0.959 . S
H139 C73 0.932 . S
H140 C77 0.929 . S
H141 C78 0.961 . S
H142 C78 0.959 . S
H143 C78 0.959 . S
H144 C79 0.960 . S
H145 C79 0.962 . S
H146 C79 0.961 . S
H147 C81 0.929 . S
H148 C84 0.930 . S
H149 C85 0.929 . S
H150 C88 0.930 . S
H151 C91 0.929 . S
H152 C92 0.930 . S
H153 C96 0.962 . S
H154 C96 0.959 . S
H155 C96 0.958 . S
C156 C157 1.560 1_565 S
C156 H217 0.959 . S
C156 H218 0.959 . S
C156 H219 0.960 1_565 S
C157 C156 1.560 1_545 S
C157 O212 1.426 . S
C157 H216 0.980 . S
C158 C159 1.407 . S
C158 C163 1.418 1_545 S
C158 O212 1.334 . S
C159 C158 1.407 . S
C159 C160 1.360 . S
C159 H220 0.929 . S
C160 C159 1.360 . S
C160 C161 1.401 . S
C160 C164 1.527 . S
C161 C160 1.401 . S
C161 C162 1.405 . S
C161 C194 1.587 . S
C162 C161 1.405 . S
C162 C163 1.332 1_545 S
C162 C165 1.496 1_545 S
C163 C158 1.418 1_565 S
C163 C162 1.332 1_565 S
C163 H221 0.929 . S
C164 C160 1.527 . S
C164 H222 0.959 . S
C164 H223 0.961 . S
C164 H224 0.961 . S
C165 C162 1.496 1_565 S
C165 H225 0.960 . S
C165 H226 0.960 . S
C165 H227 0.961 . S
C166 C167 1.517 . S
C166 H229 0.961 . S
C166 H230 0.960 . S
C166 H231 0.959 . S
C167 C166 1.517 . S
C167 O215 1.468 . S
C167 H228 0.980 . S
C168 C169 1.349 . S
C168 C173 1.367 . S
C168 O215 1.408 . S
C169 C168 1.349 . S
C169 C170 1.407 . S
C169 H232 0.930 . S
C170 C169 1.407 . S
C170 C171 1.449 . S
C170 C174 1.535 . S
C171 C170 1.449 . S
C171 C172 1.384 . S
C171 C196 1.553 . S
C172 C171 1.384 . S
C172 C173 1.364 . S
C172 C175 1.450 . S
C173 C168 1.367 . S
C173 C172 1.364 . S
C173 H233 0.931 . S
C174 C170 1.535 . S
C174 H234 0.959 . S
C174 H235 0.961 1_545 S
C174 H236 0.959 1_545 S
C175 C172 1.450 . S
C175 H237 0.960 . S
C175 H238 0.960 . S
C175 H239 0.960 . S
C176 C177 1.309 . S
C176 C181 1.304 . S
C176 O214 1.435 . S
C177 C176 1.309 . S
C177 C178 1.476 . S
C177 H241 0.930 . S
C178 C177 1.476 . S
C178 C179 1.400 . S
C178 C182 1.567 . S
C179 C178 1.400 . S
C179 C180 1.373 . S
C179 C201 1.432 . S
C180 C179 1.373 . S
C180 C181 1.339 . S
C180 C183 1.530 . S
C181 C176 1.304 . S
C181 C180 1.339 . S
C181 H242 0.930 . S
C182 C178 1.567 . S
C182 H243 0.961 . S
C182 H244 0.960 1_545 S
C182 H245 0.958 1_545 S
C183 C180 1.530 . S
C183 H246 0.961 . S
C183 H247 0.960 . S
C183 H248 0.960 . S
C184 C185 1.530 . S
C184 H250 0.961 . S
C184 H251 0.961 . S
C184 H252 0.959 . S
C185 C184 1.530 . S
C185 O213 1.412 . S
C185 H249 0.980 . S
C186 C187 1.288 . S
C186 C191 1.377 . S
C186 O213 1.393 . S
C187 C186 1.288 . S
C187 C188 1.369 . S
C187 H253 0.932 1_545 S
C188 C187 1.369 . S
C188 C189 1.398 . S
C188 C192 1.527 1_545 S
C189 C188 1.398 . S
C189 C190 1.380 . S
C189 C203 1.497 . S
C190 C189 1.380 . S
C190 C191 1.383 . S
C190 C193 1.603 . S
C191 C186 1.377 . S
C191 C190 1.383 . S
C191 H254 0.929 . S
C192 C188 1.527 1_565 S
C192 H255 0.961 . S
C192 H256 0.959 . S
C192 H257 0.959 . S
C193 C190 1.603 . S
C193 H258 0.960 . S
C193 H259 0.962 . S
C193 H260 0.961 . S
C194 C161 1.587 . S
C194 C195 1.360 . S
C194 C207 1.412 . S
C195 C194 1.360 . S
C195 C196 1.365 . S
C195 H261 0.929 . S
C196 C171 1.553 . S
C196 C195 1.365 . S
C196 C197 1.404 . S
C197 C196 1.404 . S
C197 C198 1.395 . S
C197 C208 1.451 . S
C198 C197 1.395 . S
C198 C199 1.322 . S
C198 H262 0.930 . S
C199 C198 1.322 . S
C199 C200 1.459 . S
C199 H263 0.929 . S
C200 C199 1.459 . S
C200 C201 1.445 . S
C200 C209 1.395 . S
C201 C179 1.432 . S
C201 C200 1.445 . S
C201 C202 1.370 . S
C202 C201 1.370 . S
C202 C203 1.438 . S
C202 H264 0.930 . S
C203 C189 1.497 . S
C203 C202 1.438 . S
C203 C204 1.360 . S
C204 C203 1.360 . S
C204 C205 1.401 . S
C204 C209 1.446 . S
C205 C204 1.401 . S
C205 C206 1.347 . S
C205 H265 0.929 . S
C206 C205 1.347 . S
C206 C207 1.455 . S
C206 H266 0.930 . S
C207 C194 1.412 . S
C207 C206 1.455 . S
C207 C208 1.331 . S
C208 C197 1.451 . S
C208 C207 1.331 . S
C208 C209 1.497 . S
C209 C200 1.395 . S
C209 C204 1.446 . S
C209 C208 1.497 . S
C210 C211 1.582 . S
C210 H267 0.962 . S
C210 H268 0.959 . S
C210 H269 0.958 . S
C211 C210 1.582 . S
C211 O214 1.458 . S
C211 H240 0.980 . S
O212 C157 1.426 . S
O212 C158 1.334 . S
O213 C185 1.412 . S
O213 C186 1.393 . S
O214 C176 1.435 . S
O214 C211 1.458 . S
O215 C167 1.468 . S
O215 C168 1.408 . S
H216 C157 0.980 . S
H217 C156 0.959 . S
H218 C156 0.959 . S
H219 C156 0.960 1_545 S
H220 C159 0.929 . S
H221 C163 0.929 . S
H222 C164 0.959 . S
H223 C164 0.961 . S
H224 C164 0.961 . S
H225 C165 0.960 . S
H226 C165 0.960 . S
H227 C165 0.961 . S
H228 C167 0.980 . S
H229 C166 0.961 . S
H230 C166 0.960 . S
H231 C166 0.959 . S
H232 C169 0.930 . S
H233 C173 0.931 . S
H234 C174 0.959 . S
H235 C174 0.961 1_565 S
H236 C174 0.959 1_565 S
H237 C175 0.960 . S
H238 C175 0.960 . S
H239 C175 0.960 . S
H240 C211 0.980 . S
H241 C177 0.930 . S
H242 C181 0.930 . S
H243 C182 0.961 . S
H244 C182 0.960 1_565 S
H245 C182 0.958 1_565 S
H246 C183 0.961 . S
H247 C183 0.960 . S
H248 C183 0.960 . S
H249 C185 0.980 . S
H250 C184 0.961 . S
H251 C184 0.961 . S
H252 C184 0.959 . S
H253 C187 0.932 1_565 S
H254 C191 0.929 . S
H255 C192 0.961 . S
H256 C192 0.959 . S
H257 C192 0.959 . S
H258 C193 0.960 . S
H259 C193 0.962 . S
H260 C193 0.961 . S
H261 C195 0.929 . S
H262 C198 0.930 . S
H263 C199 0.929 . S
H264 C202 0.930 . S
H265 C205 0.929 . S
H266 C206 0.930 . S
H267 C210 0.962 . S
H268 C210 0.959 . S
H269 C210 0.958 . S
C270 C271 1.560 . S
C270 H331 0.959 . S
C270 H332 0.959 . S
C270 H333 0.960 . S
C271 C270 1.560 . S
C271 O326 1.426 . S
C271 H330 0.980 . S
C272 C273 1.407 . S
C272 C277 1.418 . S
C272 O326 1.334 . S
C273 C272 1.407 . S
C273 C274 1.360 . S
C273 H334 0.929 . S
C274 C273 1.360 . S
C274 C275 1.401 . S
C274 C278 1.527 . S
C275 C274 1.401 . S
C275 C276 1.405 . S
C275 C308 1.587 . S
C276 C275 1.405 . S
C276 C277 1.332 . S
C276 C279 1.496 . S
C277 C272 1.418 . S
C277 C276 1.332 . S
C277 H335 0.929 . S
C278 C274 1.527 . S
C278 H336 0.959 . S
C278 H337 0.961 . S
C278 H338 0.961 . S
C279 C276 1.496 . S
C279 H339 0.960 . S
C279 H340 0.960 . S
C279 H341 0.961 . S
C280 C281 1.517 . S
C280 H343 0.961 . S
C280 H344 0.960 . S
C280 H345 0.959 . S
C281 C280 1.517 . S
C281 O329 1.468 . S
C281 H342 0.980 . S
C282 C283 1.349 . S
C282 C287 1.367 . S
C282 O329 1.408 . S
C283 C282 1.349 . S
C283 C284 1.407 . S
C283 H346 0.930 . S
C284 C283 1.407 . S
C284 C285 1.449 . S
C284 C288 1.535 . S
C285 C284 1.449 . S
C285 C286 1.384 . S
C285 C310 1.553 . S
C286 C285 1.384 . S
C286 C287 1.364 . S
C286 C289 1.450 . S
C287 C282 1.367 . S
C287 C286 1.364 . S
C287 H347 0.931 . S
C288 C284 1.535 . S
C288 H348 0.959 . S
C288 H349 0.961 . S
C288 H350 0.959 . S
C289 C286 1.450 . S
C289 H351 0.960 . S
C289 H352 0.960 . S
C289 H353 0.960 . S
C290 C291 1.309 . S
C290 C295 1.304 . S
C290 O328 1.435 . S
C291 C290 1.309 . S
C291 C292 1.476 . S
C291 H355 0.930 . S
C292 C291 1.476 . S
C292 C293 1.400 . S
C292 C296 1.567 . S
C293 C292 1.400 . S
C293 C294 1.373 . S
C293 C315 1.432 . S
C294 C293 1.373 . S
C294 C295 1.339 . S
C294 C297 1.530 . S
C295 C290 1.304 . S
C295 C294 1.339 . S
C295 H356 0.930 . S
C296 C292 1.567 . S
C296 H357 0.961 . S
C296 H358 0.960 . S
C296 H359 0.958 . S
C297 C294 1.530 . S
C297 H360 0.961 . S
C297 H361 0.960 . S
C297 H362 0.960 . S
C298 C299 1.530 . S
C298 H364 0.961 . S
C298 H365 0.961 . S
C298 H366 0.959 . S
C299 C298 1.530 . S
C299 O327 1.412 . S
C299 H363 0.980 . S
C300 C301 1.288 . S
C300 C305 1.377 . S
C300 O327 1.393 . S
C301 C300 1.288 . S
C301 C302 1.369 . S
C301 H367 0.932 . S
C302 C301 1.369 . S
C302 C303 1.398 . S
C302 C306 1.527 . S
C303 C302 1.398 . S
C303 C304 1.380 . S
C303 C317 1.497 . S
C304 C303 1.380 . S
C304 C305 1.383 . S
C304 C307 1.603 . S
C305 C300 1.377 . S
C305 C304 1.383 . S
C305 H368 0.929 . S
C306 C302 1.527 . S
C306 H369 0.961 . S
C306 H370 0.959 . S
C306 H371 0.959 . S
C307 C304 1.603 . S
C307 H372 0.960 . S
C307 H373 0.962 . S
C307 H374 0.961 . S
C308 C275 1.587 . S
C308 C309 1.360 . S
C308 C321 1.412 . S
C309 C308 1.360 . S
C309 C310 1.365 . S
C309 H375 0.929 . S
C310 C285 1.553 . S
C310 C309 1.365 . S
C310 C311 1.404 . S
C311 C310 1.404 . S
C311 C312 1.395 . S
C311 C322 1.451 . S
C312 C311 1.395 . S
C312 C313 1.322 . S
C312 H376 0.930 . S
C313 C312 1.322 . S
C313 C314 1.459 . S
C313 H377 0.929 . S
C314 C313 1.459 . S
C314 C315 1.445 . S
C314 C323 1.395 . S
C315 C293 1.432 . S
C315 C314 1.445 . S
C315 C316 1.370 . S
C316 C315 1.370 . S
C316 C317 1.438 . S
C316 H378 0.930 . S
C317 C303 1.497 . S
C317 C316 1.438 . S
C317 C318 1.360 . S
C318 C317 1.360 . S
C318 C319 1.401 . S
C318 C323 1.446 . S
C319 C318 1.401 . S
C319 C320 1.347 . S
C319 H379 0.929 . S
C320 C319 1.347 . S
C320 C321 1.455 . S
C320 H380 0.930 . S
C321 C308 1.412 . S
C321 C320 1.455 . S
C321 C322 1.331 . S
C322 C311 1.451 . S
C322 C321 1.331 . S
C322 C323 1.497 . S
C323 C314 1.395 . S
C323 C318 1.446 . S
C323 C322 1.497 . S
C324 C325 1.582 . S
C324 H381 0.962 . S
C324 H382 0.959 . S
C324 H383 0.958 . S
C325 C324 1.582 . S
C325 O328 1.458 . S
C325 H354 0.980 . S
O326 C271 1.426 . S
O326 C272 1.334 . S
O327 C299 1.412 . S
O327 C300 1.393 . S
O328 C290 1.435 . S
O328 C325 1.458 . S
O329 C281 1.468 . S
O329 C282 1.408 . S
H330 C271 0.980 . S
H331 C270 0.959 . S
H332 C270 0.959 . S
H333 C270 0.960 . S
H334 C273 0.929 . S
H335 C277 0.929 . S
H336 C278 0.959 . S
H337 C278 0.961 . S
H338 C278 0.961 . S
H339 C279 0.960 . S
H340 C279 0.960 . S
H341 C279 0.961 . S
H342 C281 0.980 . S
H343 C280 0.961 . S
H344 C280 0.960 . S
H345 C280 0.959 . S
H346 C283 0.930 . S
H347 C287 0.931 . S
H348 C288 0.959 . S
H349 C288 0.961 . S
H350 C288 0.959 . S
H351 C289 0.960 . S
H352 C289 0.960 . S
H353 C289 0.960 . S
H354 C325 0.980 . S
H355 C291 0.930 . S
H356 C295 0.930 . S
H357 C296 0.961 . S
H358 C296 0.960 . S
H359 C296 0.958 . S
H360 C297 0.961 . S
H361 C297 0.960 . S
H362 C297 0.960 . S
H363 C299 0.980 . S
H364 C298 0.961 . S
H365 C298 0.961 . S
H366 C298 0.959 . S
H367 C301 0.932 . S
H368 C305 0.929 . S
H369 C306 0.961 . S
H370 C306 0.959 . S
H371 C306 0.959 . S
H372 C307 0.960 . S
H373 C307 0.962 . S
H374 C307 0.961 . S
H375 C309 0.929 . S
H376 C312 0.930 . S
H377 C313 0.929 . S
H378 C316 0.930 . S
H379 C319 0.929 . S
H380 C320 0.930 . S
H381 C324 0.962 . S
H382 C324 0.959 . S
H383 C324 0.958 . S
C384 C385 1.349 . S
C384 C386 1.327 . S
C384 H409 0.950 . S
C385 C384 1.349 . S
C385 C401 1.349 1_455 S
C386 C384 1.327 . S
C386 C405 1.429 . S
C386 H410 0.950 . S
C387 C404 1.574 . S
C387 C406 1.368 1_655 S
C387 H411 0.949 . S
H388 C392 0.949 . S
C389 C390 1.349 1_655 S
C389 C391 1.327 . S
C389 H412 0.950 . S
C390 C389 1.349 1_455 S
C390 C402 1.349 . S
C391 C389 1.327 . S
C391 C407 1.429 1_655 S
C391 H413 0.950 . S
C392 H388 0.949 . S
C392 C400 1.574 . S
C392 C408 1.368 . S
H393 C401 0.950 . S
H394 C399 0.950 . S
H395 C400 0.949 . S
H396 C402 0.950 . S
H397 C403 0.950 . S
H398 C404 0.949 . S
C399 H394 0.950 . S
C399 C401 1.327 . S
C399 C405 1.429 1_655 S
C400 C392 1.574 . S
C400 H395 0.949 . S
C400 C406 1.368 . S
C401 C385 1.349 1_655 S
C401 H393 0.950 . S
C401 C399 1.327 . S
C402 C390 1.349 . S
C402 H396 0.950 . S
C402 C403 1.327 . S
C403 H397 0.950 . S
C403 C402 1.327 . S
C403 C407 1.429 . S
C404 C387 1.574 . S
C404 H398 0.949 . S
C404 C408 1.368 1_655 S
C405 C386 1.429 . S
C405 C399 1.429 1_455 S
C405 C406 1.523 . S
C406 C387 1.368 1_455 S
C406 C400 1.368 . S
C406 C405 1.523 . S
C407 C391 1.429 1_455 S
C407 C403 1.429 . S
C407 C408 1.523 . S
C408 C392 1.368 . S
C408 C404 1.368 1_455 S
C408 C407 1.523 . S
H409 C384 0.950 . S
H410 C386 0.950 . S
H411 C387 0.949 . S
H412 C389 0.950 . S
H413 C391 0.950 . S
C414 C415 1.349 . S
C414 C416 1.327 . S
C414 H439 0.950 . S
C415 C414 1.349 . S
C415 C431 1.349 . S
C416 C414 1.327 . S
C416 C435 1.429 . S
C416 H440 0.950 . S
C417 C434 1.574 . S
C417 C436 1.368 . S
C417 H441 0.949 . S
H418 C422 0.945 1_565 S
C419 C420 1.349 . S
C419 C421 1.327 . S
C419 H442 0.950 . S
C420 C419 1.349 . S
C420 C432 1.349 . S
C421 C419 1.327 . S
C421 C437 1.429 . S
C421 H443 0.950 . S
C422 H418 0.945 1_545 S
C422 C430 1.574 . S
C422 C438 1.368 . S
H423 C431 0.950 . S
H424 C429 0.950 . S
H425 C430 0.949 . S
H426 C432 0.950 1_565 S
H427 C433 0.950 1_565 S
H428 C434 0.949 . S
C429 H424 0.950 . S
C429 C431 1.327 . S
C429 C435 1.429 . S
C430 C422 1.574 . S
C430 H425 0.949 . S
C430 C436 1.368 . S
C431 C415 1.349 . S
C431 H423 0.950 . S
C431 C429 1.327 . S
C432 C420 1.349 . S
C432 H426 0.950 1_545 S
C432 C433 1.327 . S
C433 H427 0.950 1_545 S
C433 C432 1.327 . S
C433 C437 1.429 . S
C434 C417 1.574 . S
C434 H428 0.949 . S
C434 C438 1.368 . S
C435 C416 1.429 . S
C435 C429 1.429 . S
C435 C436 1.523 . S
C436 C417 1.368 . S
C436 C430 1.368 . S
C436 C435 1.523 . S
C437 C421 1.429 . S
C437 C433 1.429 . S
C437 C438 1.523 . S
C438 C422 1.368 . S
C438 C434 1.368 . S
C438 C437 1.523 . S
H439 C414 0.950 . S
H440 C416 0.950 . S
H441 C417 0.949 . S
H442 C419 0.950 . S
H443 C421 0.950 . S
C444 C445 1.349 . S
C444 C446 1.327 . S
C444 H469 0.950 . S
C445 C444 1.349 . S
C445 C461 1.349 . S
C446 C444 1.327 . S
C446 C465 1.429 . S
C446 H470 0.950 . S
C447 C464 1.574 . S
C447 C466 1.368 . S
C447 H471 0.949 . S
H448 C452 0.949 . S
C449 C450 1.349 . S
C449 C451 1.327 . S
C449 H472 0.950 . S
C450 C449 1.349 . S
C450 C462 1.349 . S
C451 C449 1.327 . S
C451 C467 1.429 . S
C451 H473 0.950 . S
C452 H448 0.949 . S
C452 C460 1.574 . S
C452 C468 1.368 . S
H453 C461 0.950 . S
H454 C459 0.950 . S
H455 C460 0.949 . S
H456 C462 0.950 . S
H457 C463 0.950 . S
H458 C464 0.949 . S
C459 H454 0.950 . S
C459 C461 1.327 . S
C459 C465 1.429 . S
C460 C452 1.574 . S
C460 H455 0.949 . S
C460 C466 1.368 . S
C461 C445 1.349 . S
C461 H453 0.950 . S
C461 C459 1.327 . S
C462 C450 1.349 . S
C462 H456 0.950 . S
C462 C463 1.327 . S
C463 H457 0.950 . S
C463 C462 1.327 . S
C463 C467 1.429 . S
C464 C447 1.574 . S
C464 H458 0.949 . S
C464 C468 1.368 . S
C465 C446 1.429 . S
C465 C459 1.429 . S
C465 C466 1.523 . S
C466 C447 1.368 . S
C466 C460 1.368 . S
C466 C465 1.523 . S
C467 C451 1.429 . S
C467 C463 1.429 . S
C467 C468 1.523 . S
C468 C452 1.368 . S
C468 C464 1.368 . S
C468 C467 1.523 . S
H469 C444 0.950 . S
H470 C446 0.950 . S
H471 C447 0.949 . S
H472 C449 0.950 . S
H473 C451 0.950 . S
C474 C475 1.349 . S
C474 C476 1.327 . S
C474 H499 0.950 . S
C475 C474 1.349 . S
C475 C491 1.349 . S
C476 C474 1.327 . S
C476 C495 1.429 . S
C476 H500 0.950 . S
C477 C494 1.574 . S
C477 C496 1.368 . S
C477 H501 0.949 . S
H478 C482 0.949 . S
C479 C480 1.349 . S
C479 C481 1.327 . S
C479 H502 0.950 . S
C480 C479 1.349 . S
C480 C492 1.349 . S
C481 C479 1.327 . S
C481 C497 1.429 . S
C481 H503 0.950 . S
C482 H478 0.949 . S
C482 C490 1.574 . S
C482 C498 1.368 . S
H483 C491 0.950 . S
H484 C489 0.950 . S
H485 C490 0.949 . S
H486 C492 0.950 . S
H487 C493 0.950 . S
H488 C494 0.949 . S
C489 H484 0.950 . S
C489 C491 1.327 . S
C489 C495 1.429 . S
C490 C482 1.574 . S
C490 H485 0.949 . S
C490 C496 1.368 . S
C491 C475 1.349 . S
C491 H483 0.950 . S
C491 C489 1.327 . S
C492 C480 1.349 . S
C492 H486 0.950 . S
C492 C493 1.327 . S
C493 H487 0.950 . S
C493 C492 1.327 . S
C493 C497 1.429 . S
C494 C477 1.574 . S
C494 H488 0.949 . S
C494 C498 1.368 . S
C495 C476 1.429 . S
C495 C489 1.429 . S
C495 C496 1.523 . S
C496 C477 1.368 . S
C496 C490 1.368 . S
C496 C495 1.523 . S
C497 C481 1.429 . S
C497 C493 1.429 . S
C497 C498 1.523 . S
C498 C482 1.368 . S
C498 C494 1.368 . S
C498 C497 1.523 . S
H499 C474 0.950 . S
H500 C476 0.950 . S
H501 C477 0.949 . S
H502 C479 0.950 . S
H503 C481 0.950 . S
C504 C505 1.349 . S
C504 C506 1.327 . S
C504 H529 0.950 . S
C505 C504 1.349 . S
C505 C521 1.349 . S
C506 C504 1.327 . S
C506 C525 1.429 . S
C506 H530 0.950 . S
C507 C524 1.574 . S
C507 C526 1.368 . S
C507 H531 0.949 . S
H508 C512 0.949 . S
C509 C510 1.349 . S
C509 C511 1.327 . S
C509 H532 0.950 . S
C510 C509 1.349 . S
C510 C522 1.349 . S
C511 C509 1.327 . S
C511 C527 1.429 . S
C511 H533 0.950 . S
C512 H508 0.949 . S
C512 C520 1.574 . S
C512 C528 1.368 . S
H513 C521 0.950 . S
H514 C519 0.950 . S
H515 C520 0.949 . S
H516 C522 0.950 . S
H517 C523 0.950 . S
H518 C524 0.949 . S
C519 H514 0.950 . S
C519 C521 1.327 . S
C519 C525 1.429 . S
C520 C512 1.574 . S
C520 H515 0.949 . S
C520 C526 1.368 . S
C521 C505 1.349 . S
C521 H513 0.950 . S
C521 C519 1.327 . S
C522 C510 1.349 . S
C522 H516 0.950 . S
C522 C523 1.327 . S
C523 H517 0.950 . S
C523 C522 1.327 . S
C523 C527 1.429 . S
C524 C507 1.574 . S
C524 H518 0.949 . S
C524 C528 1.368 . S
C525 C506 1.429 . S
C525 C519 1.429 . S
C525 C526 1.523 . S
C526 C507 1.368 . S
C526 C520 1.368 . S
C526 C525 1.523 . S
C527 C511 1.429 . S
C527 C523 1.429 . S
C527 C528 1.523 . S
C528 C512 1.368 . S
C528 C524 1.368 . S
C528 C527 1.523 . S
H529 C504 0.950 . S
H530 C506 0.950 . S
H531 C507 0.949 . S
H532 C509 0.950 . S
H533 C511 0.950 . S
C534 C535 1.349 . S
C534 C536 1.327 . S
C534 H559 0.950 . S
C535 C534 1.349 . S
C535 C551 1.349 . S
C536 C534 1.327 . S
C536 C555 1.429 . S
C536 H560 0.950 . S
C537 C554 1.574 . S
C537 C556 1.368 . S
C537 H561 0.949 . S
H538 C542 0.949 . S
C539 C540 1.349 . S
C539 C541 1.327 . S
C539 H562 0.950 . S
C540 C539 1.349 . S
C540 C552 1.349 . S
C541 C539 1.327 . S
C541 C557 1.429 . S
C541 H563 0.950 . S
C542 H538 0.949 . S
C542 C550 1.574 . S
C542 C558 1.368 . S
H543 C551 0.950 . S
H544 C549 0.950 . S
H545 C550 0.949 . S
H546 C552 0.950 . S
H547 C553 0.950 . S
H548 C554 0.949 . S
C549 H544 0.950 . S
C549 C551 1.327 . S
C549 C555 1.429 . S
C550 C542 1.574 . S
C550 H545 0.949 . S
C550 C556 1.368 . S
C551 C535 1.349 . S
C551 H543 0.950 . S
C551 C549 1.327 . S
C552 C540 1.349 . S
C552 H546 0.950 . S
C552 C553 1.327 . S
C553 H547 0.950 . S
C553 C552 1.327 . S
C553 C557 1.429 . S
C554 C537 1.574 . S
C554 H548 0.949 . S
C554 C558 1.368 . S
C555 C536 1.429 . S
C555 C549 1.429 . S
C555 C556 1.523 . S
C556 C537 1.368 . S
C556 C550 1.368 . S
C556 C555 1.523 . S
C557 C541 1.429 . S
C557 C553 1.429 . S
C557 C558 1.523 . S
C558 C542 1.368 . S
C558 C554 1.368 . S
C558 C557 1.523 . S
H559 C534 0.950 . S
H560 C536 0.950 . S
H561 C537 0.949 . S
H562 C539 0.950 . S
H563 C541 0.950 . S
C564 C565 1.349 . S
C564 C566 1.327 . S
C564 H589 0.950 . S
C565 C564 1.349 . S
C565 C581 1.349 . S
C566 C564 1.327 . S
C566 C585 1.429 . S
C566 H590 0.950 . S
C567 C584 1.574 . S
C567 C586 1.368 . S
C567 H591 0.949 1_545 S
H568 C572 0.949 . S
C569 C570 1.349 . S
C569 C571 1.327 . S
C569 H592 0.950 . S
C570 C569 1.349 . S
C570 C582 1.349 . S
C571 C569 1.327 . S
C571 C587 1.429 . S
C571 H593 0.950 1_545 S
C572 H568 0.949 . S
C572 C580 1.574 . S
C572 C588 1.368 . S
H573 C581 0.950 1_565 S
H574 C579 0.950 1_565 S
H575 C580 0.949 . S
H576 C582 0.950 . S
H577 C583 0.950 . S
H578 C584 0.949 1_565 S
C579 H574 0.950 1_545 S
C579 C581 1.327 . S
C579 C585 1.429 . S
C580 C572 1.574 . S
C580 H575 0.949 . S
C580 C586 1.368 . S
C581 C565 1.349 . S
C581 H573 0.950 1_545 S
C581 C579 1.327 . S
C582 C570 1.349 . S
C582 H576 0.950 . S
C582 C583 1.327 . S
C583 H577 0.950 . S
C583 C582 1.327 . S
C583 C587 1.429 . S
C584 C567 1.574 . S
C584 H578 0.949 1_545 S
C584 C588 1.368 . S
C585 C566 1.429 . S
C585 C579 1.429 . S
C585 C586 1.523 . S
C586 C567 1.368 . S
C586 C580 1.368 . S
C586 C585 1.523 . S
C587 C571 1.429 . S
C587 C583 1.429 . S
C587 C588 1.523 . S
C588 C572 1.368 . S
C588 C584 1.368 . S
C588 C587 1.523 . S
H589 C564 0.950 . S
H590 C566 0.950 . S
H591 C567 0.949 1_565 S
H592 C569 0.950 . S
H593 C571 0.950 1_565 S
C594 C595 1.349 . S
C594 C596 1.327 . S
C594 H619 0.950 . S
C595 C594 1.349 . S
C595 C611 1.349 . S
C596 C594 1.327 . S
C596 C615 1.429 . S
C596 H620 0.950 . S
C597 C614 1.574 . S
C597 C616 1.368 . S
C597 H621 0.949 . S
H598 C602 0.949 1_556 S
C599 C600 1.349 . S
C599 C601 1.327 1_556 S
C599 H622 0.946 1_556 S
C600 C599 1.349 . S
C600 C612 1.349 . S
C601 C599 1.327 1_554 S
C601 C617 1.429 . S
C601 H623 0.950 . S
C602 H598 0.949 1_554 S
C602 C610 1.574 . S
C602 C618 1.368 . S
H603 C611 0.950 . S
H604 C609 0.950 . S
H605 C610 0.949 . S
H606 C612 0.950 . S
H607 C613 0.950 . S
H608 C614 0.949 . S
C609 H604 0.950 . S
C609 C611 1.327 . S
C609 C615 1.429 . S
C610 C602 1.574 . S
C610 H605 0.949 . S
C610 C616 1.368 . S
C611 C595 1.349 . S
C611 H603 0.950 . S
C611 C609 1.327 . S
C612 C600 1.349 . S
C612 H606 0.950 . S
C612 C613 1.327 . S
C613 H607 0.950 . S
C613 C612 1.327 . S
C613 C617 1.429 1_556 S
C614 C597 1.574 . S
C614 H608 0.949 . S
C614 C618 1.368 . S
C615 C596 1.429 . S
C615 C609 1.429 . S
C615 C616 1.523 . S
C616 C597 1.368 . S
C616 C610 1.368 . S
C616 C615 1.523 . S
C617 C601 1.429 . S
C617 C613 1.429 1_554 S
C617 C618 1.523 . S
C618 C602 1.368 . S
C618 C614 1.368 . S
C618 C617 1.523 . S
H619 C594 0.950 . S
H620 C596 0.950 . S
H621 C597 0.949 . S
H622 C599 0.946 1_554 S
H623 C601 0.950 . S
C624 C625 1.349 . S
C624 C626 1.327 . S
C624 H649 0.950 1_455 S
C625 C624 1.349 . S
C625 C641 1.349 . S
C626 C624 1.327 . S
C626 C645 1.429 . S
C626 H650 0.950 1_455 S
C627 C644 1.574 . S
C627 C646 1.368 . S
C627 H651 0.949 . S
H628 C632 0.949 . S
C629 C630 1.349 . S
C629 C631 1.327 . S
C629 H652 0.950 . S
C630 C629 1.349 . S
C630 C642 1.349 1_455 S
C631 C629 1.327 . S
C631 C647 1.429 . S
C631 H653 0.950 . S
C632 H628 0.949 . S
C632 C640 1.574 . S
C632 C648 1.368 1_655 S
H633 C641 0.950 1_545 S
H634 C639 0.950 . S
H635 C640 0.949 . S
H636 C642 0.950 . S
H637 C643 0.950 . S
H638 C644 0.949 . S
C639 H634 0.950 . S
C639 C641 1.327 . S
C639 C645 1.429 . S
C640 C632 1.574 . S
C640 H635 0.949 . S
C640 C646 1.368 1_655 S
C641 C625 1.349 . S
C641 H633 0.950 1_565 S
C641 C639 1.327 . S
C642 C630 1.349 1_655 S
C642 H636 0.950 . S
C642 C643 1.327 . S
C643 H637 0.950 . S
C643 C642 1.327 . S
C643 C647 1.429 1_655 S
C644 C627 1.574 . S
C644 H638 0.949 . S
C644 C648 1.368 . S
C645 C626 1.429 . S
C645 C639 1.429 . S
C645 C646 1.523 . S
C646 C627 1.368 . S
C646 C640 1.368 1_455 S
C646 C645 1.523 . S
C647 C631 1.429 . S
C647 C643 1.429 1_455 S
C647 C648 1.523 . S
C648 C632 1.368 1_455 S
C648 C644 1.368 . S
C648 C647 1.523 . S
H649 C624 0.950 1_655 S
H650 C626 0.950 1_655 S
H651 C627 0.949 . S
H652 C629 0.950 . S
H653 C631 0.950 . S
C654 C655 1.349 . S
C654 C656 1.327 . S
C654 H679 0.950 . S
C655 C654 1.349 . S
C655 C671 1.349 . S
C656 C654 1.327 . S
C656 C675 1.429 . S
C656 H680 0.950 . S
C657 C674 1.574 . S
C657 C676 1.368 . S
C657 H681 0.949 1_545 S
H658 C662 0.949 . S
C659 C660 1.349 . S
C659 C661 1.327 . S
C659 H682 0.950 1_545 S
C660 C659 1.349 . S
C660 C672 1.349 . S
C661 C659 1.327 . S
C661 C677 1.429 . S
C661 H683 0.950 1_545 S
C662 H658 0.949 . S
C662 C670 1.574 . S
C662 C678 1.368 . S
H663 C671 0.950 1_565 S
H664 C669 0.950 1_565 S
H665 C670 0.949 . S
H666 C672 0.950 . S
H667 C673 0.950 . S
H668 C674 0.949 1_565 S
C669 H664 0.950 1_545 S
C669 C671 1.327 . S
C669 C675 1.429 . S
C670 C662 1.574 . S
C670 H665 0.949 . S
C670 C676 1.368 . S
C671 C655 1.349 . S
C671 H663 0.950 1_545 S
C671 C669 1.327 . S
C672 C660 1.349 . S
C672 H666 0.950 . S
C672 C673 1.327 . S
C673 H667 0.950 . S
C673 C672 1.327 . S
C673 C677 1.429 . S
C674 C657 1.574 . S
C674 H668 0.949 1_545 S
C674 C678 1.368 . S
C675 C656 1.429 . S
C675 C669 1.429 . S
C675 C676 1.523 . S
C676 C657 1.368 . S
C676 C670 1.368 . S
C676 C675 1.523 . S
C677 C661 1.429 . S
C677 C673 1.429 . S
C677 C678 1.523 . S
C678 C662 1.368 . S
C678 C674 1.368 . S
C678 C677 1.523 . S
H679 C654 0.950 . S
H680 C656 0.950 . S
H681 C657 0.949 1_565 S
H682 C659 0.950 1_565 S
H683 C661 0.950 1_565 S
C684 C685 1.349 . S
C684 C686 1.327 . S
C684 H709 0.950 . S
C685 C684 1.349 . S
C685 C701 1.349 . S
C686 C684 1.327 . S
C686 C705 1.429 . S
C686 H710 0.950 . S
C687 C704 1.574 . S
C687 C706 1.368 . S
C687 H711 0.949 . S
H688 C692 0.949 1_556 S
C689 C690 1.349 . S
C689 C691 1.327 1_556 S
C689 H712 0.950 . S
C690 C689 1.349 . S
C690 C702 1.349 . S
C691 C689 1.327 1_554 S
C691 C707 1.429 1_554 S
C691 H713 0.950 . S
C692 H688 0.949 1_554 S
C692 C700 1.574 . S
C692 C708 1.368 . S
H693 C701 0.950 . S
H694 C699 0.950 . S
H695 C700 0.949 . S
H696 C702 0.950 . S
H697 C703 0.950 . S
H698 C704 0.949 . S
C699 H694 0.950 . S
C699 C701 1.327 . S
C699 C705 1.429 . S
C700 C692 1.574 . S
C700 H695 0.949 . S
C700 C706 1.368 . S
C701 C685 1.349 . S
C701 H693 0.950 . S
C701 C699 1.327 . S
C702 C690 1.349 . S
C702 H696 0.950 . S
C702 C703 1.327 . S
C703 H697 0.950 . S
C703 C702 1.327 . S
C703 C707 1.429 . S
C704 C687 1.574 . S
C704 H698 0.949 . S
C704 C708 1.368 . S
C705 C686 1.429 . S
C705 C699 1.429 . S
C705 C706 1.523 . S
C706 C687 1.368 . S
C706 C700 1.368 . S
C706 C705 1.523 . S
C707 C691 1.429 1_556 S
C707 C703 1.429 . S
C707 C708 1.523 1_556 S
C708 C692 1.368 . S
C708 C704 1.368 . S
C708 C707 1.523 1_554 S
H709 C684 0.950 . S
H710 C686 0.950 . S
H711 C687 0.949 . S
H712 C689 0.950 . S
H713 C691 0.950 . S
C714 C715 1.349 . S
C714 C716 1.327 . S
C714 H739 0.950 1_455 S
C715 C714 1.349 . S
C715 C731 1.349 . S
C716 C714 1.327 . S
C716 C735 1.429 . S
C716 H740 0.950 1_455 S
C717 C734 1.574 . S
C717 C736 1.368 . S
C717 H741 0.949 . S
H718 C722 0.949 1_655 S
C719 C720 1.349 . S
C719 C721 1.327 . S
C719 H742 0.950 . S
C720 C719 1.349 . S
C720 C732 1.349 . S
C721 C719 1.327 . S
C721 C737 1.429 . S
C721 H743 0.950 . S
C722 H718 0.949 1_455 S
C722 C730 1.574 . S
C722 C738 1.368 . S
H723 C731 0.950 . S
H724 C729 0.950 . S
H725 C730 0.949 1_655 S
H726 C732 0.950 1_655 S
H727 C733 0.950 1_655 S
H728 C734 0.949 . S
C729 H724 0.950 . S
C729 C731 1.327 . S
C729 C735 1.429 . S
C730 C722 1.574 . S
C730 H725 0.949 1_455 S
C730 C736 1.368 . S
C731 C715 1.349 . S
C731 H723 0.950 . S
C731 C729 1.327 . S
C732 C720 1.349 . S
C732 H726 0.950 1_455 S
C732 C733 1.327 . S
C733 H727 0.950 1_455 S
C733 C732 1.327 . S
C733 C737 1.429 . S
C734 C717 1.574 . S
C734 H728 0.949 . S
C734 C738 1.368 . S
C735 C716 1.429 . S
C735 C729 1.429 . S
C735 C736 1.523 . S
C736 C717 1.368 . S
C736 C730 1.368 . S
C736 C735 1.523 . S
C737 C721 1.429 . S
C737 C733 1.429 . S
C737 C738 1.523 . S
C738 C722 1.368 . S
C738 C734 1.368 . S
C738 C737 1.523 . S
H739 C714 0.950 1_655 S
H740 C716 0.950 1_655 S
H741 C717 0.949 . S
H742 C719 0.950 . S
H743 C721 0.950 . S
C390 C97 1.156 . S
C385 C3 1.583 . S
C415 C21 1.603 . S
C420 C211 1.202 . S
C445 C37 1.315 . S
C450 C271 1.036 . S
C475 C8 1.404 . S
C480 C71 1.137 . S
C510 C185 1.147 . S
C505 C23 1.409 . S
C535 C35 1.489 . S
C540 C281 0.950 . S
C570 C167 0.908 . S
C565 C31 1.494 . S
C595 C7 1.405 1_565 S
C600 C299 1.131 . S
C630 C43 1.052 . S
C625 C17 1.321 1_565 S
C660 C157 1.024 . S
C655 C36 1.291 . S
C690 C325 1.199 . S
C685 C9 1.570 . S
C715 C22 1.489 . S
C720 C53 0.897 . S
