# Generated by pormake.
# Topology rtl, (3,6)-cn, num edge types: 1
# Building blocks:
#     Node 0, Type 0, BuildingBlock: INOVEN_clean_linker_0, # of connection points: 3
#     Node 1, Type 0, BuildingBlock: INOVEN_clean_linker_0, # of connection points: 3
#     Node 2, Type 0, BuildingBlock: INOVEN_clean_linker_0, # of connection points: 3
#     Node 3, Type 0, BuildingBlock: INOVEN_clean_linker_0, # of connection points: 3
#     Node 4, Type 1, BuildingBlock: VOLQOD_clean_sbu_1, # of connection points: 6
#     Node 5, Type 1, BuildingBlock: VOLQOD_clean_sbu_1, # of connection points: 6
#     Edge 6, Type (0, 1), BuildingBlock: FUNLAD_clean_linker_0, # of connection points: 2
#     Edge 7, Type (0, 1), BuildingBlock: FUNLAD_clean_linker_0, # of connection points: 2
#     Edge 8, Type (0, 1), BuildingBlock: FUNLAD_clean_linker_0, # of connection points: 2
#     Edge 9, Type (0, 1), BuildingBlock: FUNLAD_clean_linker_0, # of connection points: 2
#     Edge 10, Type (0, 1), BuildingBlock: FUNLAD_clean_linker_0, # of connection points: 2
#     Edge 11, Type (0, 1), BuildingBlock: FUNLAD_clean_linker_0, # of connection points: 2
#     Edge 12, Type (0, 1), BuildingBlock: FUNLAD_clean_linker_0, # of connection points: 2
#     Edge 13, Type (0, 1), BuildingBlock: FUNLAD_clean_linker_0, # of connection points: 2
#     Edge 14, Type (0, 1), BuildingBlock: FUNLAD_clean_linker_0, # of connection points: 2
#     Edge 15, Type (0, 1), BuildingBlock: FUNLAD_clean_linker_0, # of connection points: 2
#     Edge 16, Type (0, 1), BuildingBlock: FUNLAD_clean_linker_0, # of connection points: 2
#     Edge 17, Type (0, 1), BuildingBlock: FUNLAD_clean_linker_0, # of connection points: 2
# Relax obj value: 0.042
# Max RMSD: 0.144
# Mean RMSD: 0.094
data_MOF--net-rtl--node1-VOLQOD_clean_sbu_1--node2-INOVEN_clean_linker_0--edge1-FUNLAD_clean_linker_0
_symmetry_space_group_name_H-M    P1
_symmetry_Int_Tables_number       1
_symmetry_cell_setting            triclinic
loop_
_symmetry_equiv_pos_as_xyz
'x, y, z'
_cell_length_a     43.882674
_cell_length_b     43.225212
_cell_length_c     25.629256
_cell_angle_alpha  91.400356
_cell_angle_beta   91.368382
_cell_angle_gamma 90.16732
loop_
_atom_site_label
_atom_site_type_symbol
_atom_site_fract_x
_atom_site_fract_y
_atom_site_fract_z
_atom_type_partial_charge
H0 H 0.17764 0.76821 0.89928 0.0
H1 H 0.12019 0.83433 0.97562 0.0
H2 H 0.16666 0.76524 0.06572 0.0
N3 N 0.19621 0.7396 0.98249 0.0
N4 N 0.20683 0.72813 0.02317 0.0
C5 C 0.16727 0.77712 0.93454 0.0
C6 C 0.14798 0.8027 0.9322 0.0
C7 C 0.17455 0.76384 0.98246 0.0
C8 C 0.16135 0.77559 0.02855 0.0
C9 C 0.14097 0.80067 0.02613 0.0
C10 C 0.13497 0.81431 0.97784 0.0
H11 H 0.6782 0.73811 0.63579 0.0
H12 H 0.63889 0.66439 0.53966 0.0
H13 H 0.68323 0.74004 0.46799 0.0
N14 N 0.69996 0.77043 0.55756 0.0
N15 N 0.70706 0.78481 0.51797 0.0
C16 C 0.67304 0.72776 0.59766 0.0
C17 C 0.65748 0.69922 0.59334 0.0
C18 C 0.68252 0.74268 0.55265 0.0
C19 C 0.67591 0.72904 0.50312 0.0
C20 C 0.66072 0.7006 0.49862 0.0
C21 C 0.65152 0.68596 0.54362 0.0
H22 H 0.8298 0.25354 0.90829 0.0
H23 H 0.88541 0.18724 0.98852 0.0
H24 H 0.82968 0.25051 0.07591 0.0
N25 N 0.80513 0.2786 0.99124 0.0
N26 N 0.79191 0.28748 0.03142 0.0
C27 C 0.83812 0.24348 0.94423 0.0
C28 C 0.85934 0.21931 0.94267 0.0
C29 C 0.82723 0.25472 -0.00807 0.0
C30 C 0.83789 0.24179 0.03885 0.0
C31 C 0.85937 0.21775 0.03795 0.0
C32 C 0.86984 0.20666 0.98967 0.0
H33 H 0.32329 0.26887 0.4401 0.0
H34 H 0.3631 0.34283 0.53425 0.0
H35 H 0.31116 0.27185 0.60637 0.0
N36 N 0.29658 0.24051 0.51538 0.0
N37 N 0.28355 0.22814 0.55223 0.0
C38 C 0.32781 0.2799 0.47795 0.0
C39 C 0.34474 0.30743 0.48175 0.0
C40 C 0.3155 0.267 0.5224 0.0
C41 C 0.32075 0.28148 0.57172 0.0
C42 C 0.33762 0.30914 0.57589 0.0
C43 C 0.34956 0.32182 0.53085 0.0
O44 O 0.92189 0.98785 0.48246 0.0
Zn45 Zn 0.95459 0.02107 0.48683 0.0
O46 O 0.99544 0.00266 0.48895 0.0
Zn47 Zn 0.01522 0.01348 0.5556 0.0
Zn48 Zn 0.99203 0.95769 0.48285 0.0
Zn49 Zn 0.02024 0.01796 0.43214 0.0
O50 O 0.0528 0.03847 0.54591 0.0
O51 O 0.05706 0.04224 0.46028 0.0
O52 O 0.94694 0.04743 0.55153 0.0
O53 O 0.98829 0.03933 0.60066 0.0
O54 O 0.02775 0.97601 0.59477 0.0
O55 O 0.01027 0.93681 0.5453 0.0
O56 O 0.01544 0.94113 0.42239 0.0
O57 O 0.94998 0.04858 0.42459 0.0
O58 O 0.03568 0.98251 0.38668 0.0
O59 O 0.99523 0.04657 0.38743 0.0
C60 C 0.92301 0.95848 0.47707 0.0
C61 C 0.0668 0.04825 0.50669 0.0
C62 C 0.0242 0.94711 0.58622 0.0
C63 C 0.96233 0.05179 0.59386 0.0
C64 C 0.03192 0.95329 0.3882 0.0
C65 C 0.96799 0.05668 0.38904 0.0
O66 O 0.94833 0.94423 0.47511 0.0
O67 O 0.57037 0.48432 0.03551 0.0
Zn68 Zn 0.54117 0.52018 0.03753 0.0
O69 O 0.49879 0.50661 0.03783 0.0
Zn70 Zn 0.47685 0.52091 0.97515 0.0
Zn71 Zn 0.49761 0.46147 0.03987 0.0
Zn72 Zn 0.48001 0.52394 0.10022 0.0
O73 O 0.43975 0.54608 -0.00483 0.0
O74 O 0.44264 0.54795 0.08176 0.0
O75 O 0.54816 0.54716 0.97694 0.0
O76 O 0.5042 0.54798 0.93201 0.0
O77 O 0.46132 0.48438 0.93105 0.0
O78 O 0.47461 0.4436 0.97747 0.0
O79 O 0.47707 0.44683 0.10421 0.0
O80 O 0.55209 0.54665 0.10045 0.0
O81 O 0.46681 0.49048 0.1475 0.0
O82 O 0.50841 0.5524 0.14118 0.0
C83 C 0.56645 0.4552 0.03794 0.0
C84 C 0.42922 0.55479 0.03907 0.0
C85 C 0.46168 0.45521 0.93751 0.0
C86 C 0.53192 0.55648 0.93872 0.0
C87 C 0.46647 0.46108 0.14383 0.0
C88 C 0.53663 0.55848 0.13718 0.0
O89 O 0.53987 0.44351 0.04034 0.0
C90 C 0.24856 0.19016 0.58568 0.0
C91 C 0.26351 0.20259 0.54337 0.0
C92 C 0.22688 0.16664 0.57771 0.0
C93 C 0.21959 0.15532 0.52685 0.0
C94 C 0.23561 0.16694 0.48477 0.0
C95 C 0.25725 0.19042 0.49279 0.0
C96 C 0.19525 0.1319 0.51581 0.0
C97 C 0.17157 0.12771 0.54739 0.0
C98 C 0.14594 0.10599 0.53523 0.0
C99 C 0.12889 0.09527 0.5767 0.0
C100 C 0.1036 0.07616 0.56732 0.0
C101 C 0.09446 0.06755 0.516 0.0
H102 H 0.14903 0.10572 0.4506 0.0
C103 C 0.11155 0.07818 0.4743 0.0
C104 C 0.13704 0.09724 0.48377 0.0
H105 H 0.10504 0.07212 0.43431 0.0
H106 H 0.25337 0.19906 0.6249 0.0
H107 H 0.21599 0.15752 0.61151 0.0
H108 H 0.23075 0.15843 0.44531 0.0
H109 H 0.26858 0.19943 0.45927 0.0
H110 H 0.1963 0.11877 0.47925 0.0
H111 H 0.17045 0.14086 0.5839 0.0
H112 H 0.13507 0.10183 0.61666 0.0
H113 H 0.09098 0.06852 0.60047 0.0
C114 C 0.24371 0.69491 0.06669 0.0
C115 C 0.22958 0.70485 0.02057 0.0
C116 C 0.26802 0.67404 0.06485 0.0
C117 C 0.27843 0.66255 0.01647 0.0
C118 C 0.26368 0.67206 0.97045 0.0
C119 C 0.2395 0.69288 0.97234 0.0
C120 C 0.30566 0.64236 0.01165 0.0
C121 C 0.31749 0.62558 0.05076 0.0
C122 C 0.34587 0.60707 0.04604 0.0
C123 C 0.36246 0.60025 0.09174 0.0
C124 C 0.38952 0.58345 0.08936 0.0
C125 C 0.40059 0.57283 0.04109 0.0
H126 H 0.34404 0.59974 0.96162 0.0
C127 C 0.38376 0.57918 -0.0047 0.0
C128 C 0.35662 0.59599 -0.0023 0.0
H129 H 0.3914 0.57099 0.95755 0.0
H130 H 0.23649 0.70409 0.10409 0.0
H131 H 0.27911 0.66801 0.1013 0.0
H132 H 0.27119 0.6637 0.93268 0.0
H133 H 0.22903 0.70004 0.93593 0.0
H134 H 0.31653 0.6419 0.97407 0.0
H135 H 0.30682 0.62609 0.0885 0.0
H136 H 0.35465 0.60826 0.12951 0.0
H137 H 0.40177 0.57886 0.12553 0.0
C138 C 0.73311 0.82487 0.47238 0.0
C139 C 0.7261 0.81137 0.51967 0.0
C140 C 0.75443 0.84879 0.47092 0.0
C141 C 0.7693 0.85961 0.51706 0.0
C142 C 0.761 0.84728 0.56496 0.0
C143 C 0.7397 0.82311 0.56633 0.0
C144 C 0.7943 0.88277 0.51572 0.0
C145 C 0.81417 0.8829 0.47645 0.0
C146 C 0.84136 0.90329 0.47616 0.0
C147 C 0.86774 0.8922 0.45232 0.0
C148 C 0.89413 0.91028 0.45224 0.0
C149 C 0.89447 0.94019 0.4749 0.0
H150 H 0.82117 0.94287 0.5158 0.0
C151 C 0.86772 0.95179 0.49722 0.0
C152 C 0.84142 0.93341 0.4982 0.0
H153 H 0.86731 0.97479 0.51497 0.0
H154 H 0.72261 0.81618 0.43622 0.0
H155 H 0.75956 0.85846 0.43354 0.0
H156 H 0.77192 0.85547 0.60108 0.0
H157 H 0.73457 0.81313 0.60346 0.0
H158 H 0.79812 0.89788 0.54977 0.0
H159 H 0.81205 0.86545 0.44531 0.0
H160 H 0.86816 0.86918 0.43464 0.0
H161 H 0.91431 0.90078 0.43441 0.0
C162 C 0.75225 0.31684 0.07441 0.0
C163 C 0.76946 0.31102 0.03 0.0
C164 C 0.72883 0.33867 0.07348 0.0
C165 C 0.72236 0.35518 0.02788 0.0
C166 C 0.74043 0.3502 0.98406 0.0
C167 C 0.76363 0.32813 0.98485 0.0
C168 C 0.69699 0.37772 0.02486 0.0
C169 C 0.67094 0.37406 0.05076 0.0
C170 C 0.64459 0.39532 0.04589 0.0
C171 C 0.61526 0.38377 0.05436 0.0
C172 C 0.58987 0.40308 0.05089 0.0
C173 C 0.59332 0.43455 0.03965 0.0
H174 H 0.67047 0.43672 0.02922 0.0
C175 C 0.62274 0.4462 0.03155 0.0
C176 C 0.64813 0.4268 0.0346 0.0
H177 H 0.62623 0.47037 0.02316 0.0
H178 H 0.75669 0.30406 0.1096 0.0
H179 H 0.71596 0.34264 0.10851 0.0
H180 H 0.73612 0.36288 0.94869 0.0
H181 H 0.77679 0.32434 0.95008 0.0
H182 H 0.69896 0.39636 -0.00252 0.0
H183 H 0.66793 0.35359 0.0739 0.0
H184 H 0.61193 0.35967 0.06347 0.0
H185 H 0.56758 0.39335 0.05771 0.0
C186 C 0.14314 0.82082 0.11916 0.0
C187 C 0.12618 0.81384 0.07314 0.0
C188 C 0.13005 0.83815 0.15974 0.0
C189 C 0.09982 0.84874 0.15473 0.0
C190 C 0.08257 0.84039 0.10988 0.0
C191 C 0.09545 0.82287 0.06983 0.0
C192 C 0.08621 0.8705 0.19311 0.0
C193 C 0.09341 0.87107 0.24435 0.0
C194 C 0.0783 0.89273 0.28109 0.0
C195 C 0.06964 0.88227 0.32986 0.0
C196 C 0.05424 0.9019 0.36429 0.0
C197 C 0.04796 0.93269 0.35114 0.0
H198 H 0.07932 0.93244 0.23094 0.0
C199 C 0.05749 0.94347 0.30291 0.0
C200 C 0.07232 0.9236 0.26798 0.0
H201 H 0.05313 0.96712 0.29189 0.0
H202 H 0.16693 0.81441 0.12259 0.0
H203 H 0.14411 0.84458 0.19359 0.0
H204 H 0.05919 0.84807 0.10523 0.0
H205 H 0.08163 0.81736 0.03523 0.0
H206 H 0.0684 0.88579 0.17879 0.0
H207 H 0.10881 0.85386 0.26025 0.0
H208 H 0.0742 0.85866 0.34089 0.0
H209 H 0.04753 0.89303 0.40149 0.0
C210 C 0.62997 0.69869 0.67829 0.0
C211 C 0.64647 0.68293 0.63962 0.0
C212 C 0.61502 0.68216 0.71657 0.0
C213 C 0.61643 0.6496 0.71665 0.0
C214 C 0.63412 0.63414 0.67953 0.0
C215 C 0.64922 0.65059 0.64181 0.0
C216 C 0.59822 0.63078 0.75221 0.0
C217 C 0.5904 0.64039 0.80028 0.0
C218 C 0.57398 0.61975 0.83544 0.0
C219 C 0.58294 0.61907 0.88819 0.0
C220 C 0.56921 0.59843 0.92151 0.0
C221 C 0.54562 0.57864 0.90303 0.0
H222 H 0.54223 0.60095 0.77657 0.0
C223 C 0.53571 0.58022 0.85068 0.0
C224 C 0.54998 0.60042 0.81697 0.0
H225 H 0.51747 0.56537 0.83553 0.0
H226 H 0.6272 0.72356 0.67723 0.0
H227 H 0.60121 0.69479 0.74422 0.0
H228 H 0.63576 0.60912 0.67898 0.0
H229 H 0.66218 0.63783 0.61302 0.0
H230 H 0.59251 0.60727 0.73929 0.0
H231 H 0.5986 0.66254 0.81597 0.0
H232 H 0.6012 0.63392 0.90332 0.0
H233 H 0.57703 0.59803 0.9619 0.0
C234 C 0.90111 0.19499 0.09313 0.0
C235 C 0.8703 0.20315 0.08679 0.0
C236 C 0.91105 0.17832 0.13623 0.0
C237 C 0.8904 0.16965 0.17456 0.0
C238 C 0.85975 0.17862 0.16892 0.0
C239 C 0.8498 0.19528 0.12564 0.0
C240 C 0.89933 0.14947 0.21867 0.0
C241 C 0.92843 0.14476 0.23458 0.0
C242 C 0.93761 0.12221 0.27492 0.0
C243 C 0.96751 0.11075 0.27477 0.0
C244 C 0.97725 0.08929 0.31139 0.0
C245 C 0.95735 0.07895 0.3495 0.0
H246 H 0.89479 0.12102 0.31597 0.0
C247 C 0.92749 0.09068 0.35013 0.0
C248 C 0.91772 0.11212 0.31336 0.0
H249 H 0.91165 0.08348 0.37928 0.0
H250 H 0.91751 0.20096 0.06407 0.0
H251 H 0.93468 0.17143 0.13785 0.0
H252 H 0.84327 0.17215 0.19756 0.0
H253 H 0.82584 0.20092 0.12161 0.0
H254 H 0.88102 0.13738 0.23739 0.0
H255 H 0.94678 0.15688 0.21611 0.0
H256 H 0.98339 0.11821 0.24584 0.0
H257 H 0.00046 0.08093 0.30985 0.0
C258 C 0.35709 0.31048 0.66868 0.0
C259 C 0.34302 0.32551 0.62663 0.0
C260 C 0.36665 0.32744 0.7134 0.0
C261 C 0.3621 0.35969 0.7167 0.0
C262 C 0.34611 0.37414 0.67604 0.0
C263 C 0.33689 0.3573 0.63129 0.0
C264 C 0.37463 0.37942 0.76041 0.0
C265 C 0.40018 0.37244 0.78777 0.0
C266 C 0.41508 0.39421 0.82632 0.0
C267 C 0.43344 0.38221 0.86649 0.0
C268 C 0.44859 0.40199 0.90249 0.0
C269 C 0.44607 0.4343 0.89865 0.0
H270 H 0.39978 0.43675 0.79054 0.0
C271 C 0.42809 0.44634 0.85787 0.0
C272 C 0.41278 0.42655 0.82207 0.0
H273 H 0.42577 0.47109 0.85355 0.0
H274 H 0.36194 0.28594 0.66596 0.0
H275 H 0.37797 0.31531 0.74476 0.0
H276 H 0.34193 0.39884 0.67783 0.0
H277 H 0.32578 0.36933 0.59952 0.0
H278 H 0.36362 0.40155 0.76743 0.0
H279 H 0.4112 0.35028 0.7812 0.0
H280 H 0.43596 0.35743 0.87023 0.0
H281 H 0.46236 0.39188 0.93326 0.0
C282 C 0.63789 0.70198 0.40845 0.0
C283 C 0.65406 0.6859 0.44705 0.0
C284 C 0.62842 0.68674 0.36214 0.0
C285 C 0.63528 0.65525 0.35373 0.0
C286 C 0.65306 0.63981 0.391 0.0
C287 C 0.66209 0.6549 0.43756 0.0
C288 C 0.62312 0.63748 0.30778 0.0
C289 C 0.5949 0.64226 0.28799 0.0
C290 C 0.58048 0.62137 0.24788 0.0
C291 C 0.54877 0.61721 0.24782 0.0
C292 C 0.5345 0.59664 0.21213 0.0
C293 C 0.55168 0.58014 0.17523 0.0
H294 H 0.62204 0.60866 0.20838 0.0
C295 C 0.58338 0.58493 0.17446 0.0
C296 C 0.59765 0.60534 0.21039 0.0
H297 H 0.59726 0.57284 0.14619 0.0
H298 H 0.63155 0.72595 0.415 0.0
H299 H 0.6154 0.69944 0.3334 0.0
H300 H 0.65885 0.61565 0.38509 0.0
H301 H 0.67485 0.64218 0.46667 0.0
H302 H 0.63618 0.61764 0.29432 0.0
H303 H 0.58071 0.66008 0.30547 0.0
H304 H 0.53503 0.62947 0.27612 0.0
H305 H 0.51001 0.59373 0.21346 0.0
C306 C 0.90056 0.19837 0.88617 0.0
C307 C 0.86976 0.20607 0.89227 0.0
C308 C 0.90997 0.18267 0.84122 0.0
C309 C 0.88869 0.1741 0.80149 0.0
C310 C 0.85826 0.18346 0.80612 0.0
C311 C 0.84881 0.19919 0.85122 0.0
C312 C 0.89756 0.15486 0.75558 0.0
C313 C 0.91939 0.1331 0.75921 0.0
C314 C 0.92927 0.11257 0.71546 0.0
C315 C 0.95655 0.09615 0.72226 0.0
C316 C 0.96707 0.07636 0.68297 0.0
C317 C 0.95044 0.07229 0.63575 0.0
H318 H 0.89084 0.11986 0.66182 0.0
C319 C 0.92287 0.08837 0.62896 0.0
C320 C 0.91234 0.1083 0.66841 0.0
H321 H 0.90944 0.08565 0.59313 0.0
H322 H 0.91735 0.2041 0.91658 0.0
H323 H 0.93389 0.17709 0.83795 0.0
H324 H 0.84153 0.17751 0.77572 0.0
H325 H 0.82491 0.20481 0.85485 0.0
H326 H 0.88491 0.15799 0.71926 0.0
H327 H 0.93095 0.12995 0.79666 0.0
H328 H 0.97 0.09877 0.75813 0.0
H329 H 0.98835 0.06431 0.68972 0.0
C330 C 0.35454 0.35382 0.42836 0.0
C331 C 0.35699 0.32174 0.43468 0.0
C332 C 0.36761 0.36788 0.38593 0.0
C333 C 0.38367 0.35015 0.34901 0.0
C334 C 0.38494 0.31791 0.35398 0.0
C335 C 0.37181 0.3038 0.39657 0.0
C336 C 0.39905 0.36476 0.30494 0.0
C337 C 0.41084 0.39356 0.30907 0.0
C338 C 0.42559 0.40979 0.26596 0.0
C339 C 0.42839 0.44211 0.27004 0.0
C340 C 0.44178 0.45868 0.23057 0.0
C341 C 0.45294 0.44326 0.18611 0.0
H342 H 0.43637 0.36928 0.21778 0.0
C343 C 0.4507 0.41083 0.18233 0.0
C344 C 0.43721 0.39421 0.22187 0.0
H345 H 0.45929 0.39821 0.14877 0.0
H346 H 0.34247 0.36811 0.45632 0.0
H347 H 0.3649 0.3926 0.38212 0.0
H348 H 0.39681 0.30372 0.32562 0.0
H349 H 0.374 0.279 0.40046 0.0
H350 H 0.40102 0.35113 0.26911 0.0
H351 H 0.40916 0.40643 0.34582 0.0
H352 H 0.41987 0.4547 0.30372 0.0
H353 H 0.44324 0.48363 0.23494 0.0
C354 C 0.12788 0.80205 0.84015 0.0
C355 C 0.14172 0.81819 0.88259 0.0
C356 C 0.11829 0.81796 0.79586 0.0
C357 C 0.12275 0.85015 0.7935 0.0
C358 C 0.13841 0.86573 0.83465 0.0
C359 C 0.14753 0.84997 0.87907 0.0
C360 C 0.11011 0.86876 0.75051 0.0
C361 C 0.08373 0.86172 0.72503 0.0
C362 C 0.06834 0.88377 0.68988 0.0
C363 C 0.05002 0.87251 0.64801 0.0
C364 C 0.03521 0.89301 0.6146 0.0
C365 C 0.03814 0.92518 0.62305 0.0
H366 H 0.08333 0.92545 0.73246 0.0
C367 C 0.05567 0.93635 0.66609 0.0
C368 C 0.07052 0.91591 0.6992 0.0
H369 H 0.05818 0.96096 0.67412 0.0
H370 H 0.12336 0.77746 0.84218 0.0
H371 H 0.10706 0.80513 0.76407 0.0
H372 H 0.14236 0.89047 0.8335 0.0
H373 H 0.15846 0.86273 0.9113 0.0
H374 H 0.12138 0.89062 0.74338 0.0
H375 H 0.07237 0.83982 0.73131 0.0
H376 H 0.04754 0.84782 0.64067 0.0
H377 H 0.02173 0.88364 0.58194 0.0
loop_
_geom_bond_atom_site_label_1
_geom_bond_atom_site_label_2
_geom_bond_distance
_geom_bond_site_symmetry_2
_ccdc_geom_bond_type
H0 C5 0.929 . S
H1 C10 0.931 . S
H2 C8 0.930 . S
N3 N4 1.234 1_556 S
N3 C7 1.453 1_556 S
N4 N3 1.234 1_554 S
C5 H0 0.929 . S
C5 C6 1.373 . S
C5 C7 1.368 1_556 S
C6 C5 1.373 . S
C6 C10 1.397 1_556 S
C7 N3 1.453 1_554 S
C7 C5 1.368 1_554 S
C7 C8 1.373 . S
C8 H2 0.930 . S
C8 C7 1.373 . S
C8 C9 1.371 . S
C9 C8 1.371 . S
C9 C10 1.383 . S
C10 H1 0.931 . S
C10 C6 1.397 1_554 S
C10 C9 1.383 . S
H11 C16 0.929 . S
H12 C21 0.931 . S
H13 C19 0.930 . S
N14 N15 1.234 . S
N14 C18 1.453 . S
N15 N14 1.234 . S
C16 H11 0.929 . S
C16 C17 1.373 . S
C16 C18 1.368 . S
C17 C16 1.373 . S
C17 C21 1.397 . S
C18 N14 1.453 . S
C18 C16 1.368 . S
C18 C19 1.373 . S
C19 H13 0.930 . S
C19 C18 1.373 . S
C19 C20 1.371 . S
C20 C19 1.371 . S
C20 C21 1.383 . S
C21 H12 0.931 . S
C21 C17 1.397 . S
C21 C20 1.383 . S
H22 C27 0.929 . S
H23 C32 0.931 . S
H24 C30 0.930 . S
N25 N26 1.234 1_556 S
N25 C29 1.453 1_556 S
N26 N25 1.234 1_554 S
C27 H22 0.929 . S
C27 C28 1.373 . S
C27 C29 1.368 1_556 S
C28 C27 1.373 . S
C28 C32 1.397 1_556 S
C29 N25 1.453 1_554 S
C29 C27 1.368 1_554 S
C29 C30 1.373 . S
C30 H24 0.930 . S
C30 C29 1.373 . S
C30 C31 1.371 . S
C31 C30 1.371 . S
C31 C32 1.383 . S
C32 H23 0.931 . S
C32 C28 1.397 1_554 S
C32 C31 1.383 . S
H33 C38 0.929 . S
H34 C43 0.931 . S
H35 C41 0.930 . S
N36 N37 1.234 . S
N36 C40 1.453 . S
N37 N36 1.234 . S
C38 H33 0.929 . S
C38 C39 1.373 . S
C38 C40 1.368 . S
C39 C38 1.373 . S
C39 C43 1.397 . S
C40 N36 1.453 . S
C40 C38 1.368 . S
C40 C41 1.373 . S
C41 H35 0.930 . S
C41 C40 1.373 . S
C41 C42 1.371 . S
C42 C41 1.371 . S
C42 C43 1.383 . S
C43 H34 0.931 . S
C43 C39 1.397 . S
C43 C42 1.383 . S
O44 Zn45 1.953 1_565 S
O44 C60 1.225 . S
Zn45 O44 1.953 1_545 S
Zn45 O46 1.949 1_655 S
Zn45 O52 1.919 . S
Zn45 O57 1.924 . S
O46 Zn45 1.949 1_455 S
O46 Zn47 1.923 . S
O46 Zn48 1.950 1_545 S
O46 Zn49 1.945 . S
Zn47 O46 1.923 . S
Zn47 O50 1.933 . S
Zn47 O53 1.941 . S
Zn47 O54 1.965 1_545 S
Zn48 O46 1.950 1_565 S
Zn48 O55 1.938 . S
Zn48 O56 1.906 . S
Zn48 O66 1.953 1_455 S
Zn49 O46 1.945 . S
Zn49 O51 1.932 . S
Zn49 O58 1.977 1_545 S
Zn49 O59 1.910 1_455 S
O50 Zn47 1.933 . S
O50 C61 1.226 . S
O51 Zn49 1.932 . S
O51 C61 1.307 . S
O52 Zn45 1.919 . S
O52 C63 1.253 . S
O53 Zn47 1.941 . S
O53 C63 1.283 1_455 S
O54 Zn47 1.965 1_565 S
O54 C62 1.303 . S
O55 Zn48 1.938 . S
O55 C62 1.247 . S
O56 Zn48 1.906 . S
O56 C64 1.304 . S
O57 Zn45 1.924 . S
O57 C65 1.311 . S
O58 Zn49 1.977 1_565 S
O58 C64 1.272 . S
O59 Zn49 1.910 1_655 S
O59 C65 1.231 . S
C60 O44 1.225 . S
C60 O66 1.298 . S
C61 O50 1.226 . S
C61 O51 1.307 . S
C62 O54 1.303 . S
C62 O55 1.247 . S
C63 O52 1.253 . S
C63 O53 1.283 1_655 S
C64 O56 1.304 . S
C64 O58 1.272 . S
C65 O57 1.311 . S
C65 O59 1.231 . S
O66 Zn48 1.953 1_655 S
O66 C60 1.298 . S
O67 Zn68 1.953 . S
O67 C83 1.225 . S
Zn68 O67 1.953 . S
Zn68 O69 1.949 . S
Zn68 O75 1.919 1_554 S
Zn68 O80 1.924 . S
O69 Zn68 1.949 . S
O69 Zn70 1.923 1_554 S
O69 Zn71 1.950 . S
O69 Zn72 1.945 . S
Zn70 O69 1.923 1_556 S
Zn70 O73 1.933 . S
Zn70 O76 1.941 . S
Zn70 O77 1.965 . S
Zn71 O69 1.950 . S
Zn71 O78 1.938 1_554 S
Zn71 O79 1.906 . S
Zn71 O89 1.953 . S
Zn72 O69 1.945 . S
Zn72 O74 1.932 . S
Zn72 O81 1.977 . S
Zn72 O82 1.910 . S
O73 Zn70 1.933 . S
O73 C84 1.226 1_556 S
O74 Zn72 1.932 . S
O74 C84 1.307 . S
O75 Zn68 1.919 1_556 S
O75 C86 1.253 . S
O76 Zn70 1.941 . S
O76 C86 1.283 . S
O77 Zn70 1.965 . S
O77 C85 1.303 . S
O78 Zn71 1.938 1_556 S
O78 C85 1.247 . S
O79 Zn71 1.906 . S
O79 C87 1.304 . S
O80 Zn68 1.924 . S
O80 C88 1.311 . S
O81 Zn72 1.977 . S
O81 C87 1.272 . S
O82 Zn72 1.910 . S
O82 C88 1.231 . S
C83 O67 1.225 . S
C83 O89 1.298 . S
C84 O73 1.226 1_554 S
C84 O74 1.307 . S
C85 O77 1.303 . S
C85 O78 1.247 . S
C86 O75 1.253 . S
C86 O76 1.283 . S
C87 O79 1.304 . S
C87 O81 1.272 . S
C88 O80 1.311 . S
C88 O82 1.231 . S
O89 Zn71 1.953 . S
O89 C83 1.298 . S
C90 C91 1.386 . S
C90 C92 1.383 . S
C90 H106 0.951 . S
C91 C90 1.386 . S
C91 C95 1.383 . S
C92 C90 1.383 . S
C92 C93 1.402 . S
C92 H107 0.951 . S
C93 C92 1.402 . S
C93 C94 1.375 . S
C93 C96 1.481 . S
C94 C93 1.375 . S
C94 C95 1.367 . S
C94 H108 0.951 . S
C95 C91 1.383 . S
C95 C94 1.367 . S
C95 H109 0.950 . S
C96 C93 1.481 . S
C96 C97 1.297 . S
C96 H110 0.950 . S
C97 C96 1.297 . S
C97 C98 1.479 . S
C97 H111 0.950 . S
C98 C97 1.479 . S
C98 C99 1.375 . S
C98 C104 1.404 . S
C99 C98 1.375 . S
C99 C100 1.369 . S
C99 H112 0.950 . S
C100 C99 1.369 . S
C100 C101 1.392 . S
C100 H113 0.951 . S
C101 C100 1.392 . S
C101 C103 1.384 . S
H102 C104 0.949 . S
C103 C101 1.384 . S
C103 C104 1.385 . S
C103 H105 0.950 . S
C104 C98 1.404 . S
C104 H102 0.949 . S
C104 C103 1.385 . S
H105 C103 0.950 . S
H106 C90 0.951 . S
H107 C92 0.951 . S
H108 C94 0.951 . S
H109 C95 0.950 . S
H110 C96 0.950 . S
H111 C97 0.950 . S
H112 C99 0.950 . S
H113 C100 0.951 . S
C114 C115 1.386 . S
C114 C116 1.383 . S
C114 H130 0.951 . S
C115 C114 1.386 . S
C115 C119 1.383 . S
C116 C114 1.383 . S
C116 C117 1.402 . S
C116 H131 0.951 . S
C117 C116 1.402 . S
C117 C118 1.375 . S
C117 C120 1.481 . S
C118 C117 1.375 . S
C118 C119 1.367 . S
C118 H132 0.951 1_554 S
C119 C115 1.383 . S
C119 C118 1.367 . S
C119 H133 0.950 1_554 S
C120 C117 1.481 . S
C120 C121 1.297 . S
C120 H134 0.950 . S
C121 C120 1.297 . S
C121 C122 1.479 . S
C121 H135 0.950 . S
C122 C121 1.479 . S
C122 C123 1.375 . S
C122 C128 1.404 . S
C123 C122 1.375 . S
C123 C124 1.369 . S
C123 H136 0.950 . S
C124 C123 1.369 . S
C124 C125 1.392 . S
C124 H137 0.951 . S
C125 C124 1.392 . S
C125 C127 1.384 . S
H126 C128 0.949 . S
C127 C125 1.384 . S
C127 C128 1.385 . S
C127 H129 0.950 . S
C128 C122 1.404 . S
C128 H126 0.949 . S
C128 C127 1.385 . S
H129 C127 0.950 . S
H130 C114 0.951 . S
H131 C116 0.951 . S
H132 C118 0.951 1_556 S
H133 C119 0.950 1_556 S
H134 C120 0.950 . S
H135 C121 0.950 . S
H136 C123 0.950 . S
H137 C124 0.951 . S
C138 C139 1.386 . S
C138 C140 1.383 . S
C138 H154 0.951 . S
C139 C138 1.386 . S
C139 C143 1.383 . S
C140 C138 1.383 . S
C140 C141 1.402 . S
C140 H155 0.951 . S
C141 C140 1.402 . S
C141 C142 1.375 . S
C141 C144 1.481 . S
C142 C141 1.375 . S
C142 C143 1.367 . S
C142 H156 0.951 . S
C143 C139 1.383 . S
C143 C142 1.367 . S
C143 H157 0.950 . S
C144 C141 1.481 . S
C144 C145 1.297 . S
C144 H158 0.950 . S
C145 C144 1.297 . S
C145 C146 1.479 . S
C145 H159 0.950 . S
C146 C145 1.479 . S
C146 C147 1.375 . S
C146 C152 1.404 . S
C147 C146 1.375 . S
C147 C148 1.369 . S
C147 H160 0.950 . S
C148 C147 1.369 . S
C148 C149 1.392 . S
C148 H161 0.951 . S
C149 C148 1.392 . S
C149 C151 1.384 . S
H150 C152 0.949 . S
C151 C149 1.384 . S
C151 C152 1.385 . S
C151 H153 0.950 . S
C152 C146 1.404 . S
C152 H150 0.949 . S
C152 C151 1.385 . S
H153 C151 0.950 . S
H154 C138 0.951 . S
H155 C140 0.951 . S
H156 C142 0.951 . S
H157 C143 0.950 . S
H158 C144 0.950 . S
H159 C145 0.950 . S
H160 C147 0.950 . S
H161 C148 0.951 . S
C162 C163 1.386 . S
C162 C164 1.383 . S
C162 H178 0.951 . S
C163 C162 1.386 . S
C163 C167 1.383 . S
C164 C162 1.383 . S
C164 C165 1.402 . S
C164 H179 0.951 . S
C165 C164 1.402 . S
C165 C166 1.375 . S
C165 C168 1.481 . S
C166 C165 1.375 . S
C166 C167 1.367 . S
C166 H180 0.951 . S
C167 C163 1.383 . S
C167 C166 1.367 . S
C167 H181 0.950 . S
C168 C165 1.481 . S
C168 C169 1.297 . S
C168 H182 0.950 . S
C169 C168 1.297 . S
C169 C170 1.479 . S
C169 H183 0.950 . S
C170 C169 1.479 . S
C170 C171 1.375 . S
C170 C176 1.404 . S
C171 C170 1.375 . S
C171 C172 1.369 . S
C171 H184 0.950 . S
C172 C171 1.369 . S
C172 C173 1.392 . S
C172 H185 0.951 . S
C173 C172 1.392 . S
C173 C175 1.384 . S
H174 C176 0.949 . S
C175 C173 1.384 . S
C175 C176 1.385 . S
C175 H177 0.950 . S
C176 C170 1.404 . S
C176 H174 0.949 . S
C176 C175 1.385 . S
H177 C175 0.950 . S
H178 C162 0.951 . S
H179 C164 0.951 . S
H180 C166 0.951 . S
H181 C167 0.950 . S
H182 C168 0.950 . S
H183 C169 0.950 . S
H184 C171 0.950 . S
H185 C172 0.951 . S
C186 C187 1.386 . S
C186 C188 1.383 . S
C186 H202 0.951 . S
C187 C186 1.386 . S
C187 C191 1.383 . S
C188 C186 1.383 . S
C188 C189 1.402 . S
C188 H203 0.951 . S
C189 C188 1.402 . S
C189 C190 1.375 . S
C189 C192 1.481 . S
C190 C189 1.375 . S
C190 C191 1.367 . S
C190 H204 0.951 . S
C191 C187 1.383 . S
C191 C190 1.367 . S
C191 H205 0.950 . S
C192 C189 1.481 . S
C192 C193 1.297 . S
C192 H206 0.950 . S
C193 C192 1.297 . S
C193 C194 1.479 . S
C193 H207 0.950 . S
C194 C193 1.479 . S
C194 C195 1.375 . S
C194 C200 1.404 . S
C195 C194 1.375 . S
C195 C196 1.369 . S
C195 H208 0.950 . S
C196 C195 1.369 . S
C196 C197 1.392 . S
C196 H209 0.951 . S
C197 C196 1.392 . S
C197 C199 1.384 . S
H198 C200 0.949 . S
C199 C197 1.384 . S
C199 C200 1.385 . S
C199 H201 0.950 . S
C200 C194 1.404 . S
C200 H198 0.949 . S
C200 C199 1.385 . S
H201 C199 0.950 . S
H202 C186 0.951 . S
H203 C188 0.951 . S
H204 C190 0.951 . S
H205 C191 0.950 . S
H206 C192 0.950 . S
H207 C193 0.950 . S
H208 C195 0.950 . S
H209 C196 0.951 . S
C210 C211 1.386 . S
C210 C212 1.383 . S
C210 H226 0.951 . S
C211 C210 1.386 . S
C211 C215 1.383 . S
C212 C210 1.383 . S
C212 C213 1.402 . S
C212 H227 0.951 . S
C213 C212 1.402 . S
C213 C214 1.375 . S
C213 C216 1.481 . S
C214 C213 1.375 . S
C214 C215 1.367 . S
C214 H228 0.951 . S
C215 C211 1.383 . S
C215 C214 1.367 . S
C215 H229 0.950 . S
C216 C213 1.481 . S
C216 C217 1.297 . S
C216 H230 0.950 . S
C217 C216 1.297 . S
C217 C218 1.479 . S
C217 H231 0.950 . S
C218 C217 1.479 . S
C218 C219 1.375 . S
C218 C224 1.404 . S
C219 C218 1.375 . S
C219 C220 1.369 . S
C219 H232 0.950 . S
C220 C219 1.369 . S
C220 C221 1.392 . S
C220 H233 0.951 . S
C221 C220 1.392 . S
C221 C223 1.384 . S
H222 C224 0.949 . S
C223 C221 1.384 . S
C223 C224 1.385 . S
C223 H225 0.950 . S
C224 C218 1.404 . S
C224 H222 0.949 . S
C224 C223 1.385 . S
H225 C223 0.950 . S
H226 C210 0.951 . S
H227 C212 0.951 . S
H228 C214 0.951 . S
H229 C215 0.950 . S
H230 C216 0.950 . S
H231 C217 0.950 . S
H232 C219 0.950 . S
H233 C220 0.951 . S
C234 C235 1.386 . S
C234 C236 1.383 . S
C234 H250 0.951 . S
C235 C234 1.386 . S
C235 C239 1.383 . S
C236 C234 1.383 . S
C236 C237 1.402 . S
C236 H251 0.951 . S
C237 C236 1.402 . S
C237 C238 1.375 . S
C237 C240 1.481 . S
C238 C237 1.375 . S
C238 C239 1.367 . S
C238 H252 0.951 . S
C239 C235 1.383 . S
C239 C238 1.367 . S
C239 H253 0.950 . S
C240 C237 1.481 . S
C240 C241 1.297 . S
C240 H254 0.950 . S
C241 C240 1.297 . S
C241 C242 1.479 . S
C241 H255 0.950 . S
C242 C241 1.479 . S
C242 C243 1.375 . S
C242 C248 1.404 . S
C243 C242 1.375 . S
C243 C244 1.369 . S
C243 H256 0.950 . S
C244 C243 1.369 . S
C244 C245 1.392 . S
C244 H257 0.951 . S
C245 C244 1.392 . S
C245 C247 1.384 . S
H246 C248 0.949 . S
C247 C245 1.384 . S
C247 C248 1.385 . S
C247 H249 0.950 . S
C248 C242 1.404 . S
C248 H246 0.949 . S
C248 C247 1.385 . S
H249 C247 0.950 . S
H250 C234 0.951 . S
H251 C236 0.951 . S
H252 C238 0.951 . S
H253 C239 0.950 . S
H254 C240 0.950 . S
H255 C241 0.950 . S
H256 C243 0.950 . S
H257 C244 0.951 . S
C258 C259 1.386 . S
C258 C260 1.383 . S
C258 H274 0.951 . S
C259 C258 1.386 . S
C259 C263 1.383 . S
C260 C258 1.383 . S
C260 C261 1.402 . S
C260 H275 0.951 . S
C261 C260 1.402 . S
C261 C262 1.375 . S
C261 C264 1.481 . S
C262 C261 1.375 . S
C262 C263 1.367 . S
C262 H276 0.951 . S
C263 C259 1.383 . S
C263 C262 1.367 . S
C263 H277 0.950 . S
C264 C261 1.481 . S
C264 C265 1.297 . S
C264 H278 0.950 . S
C265 C264 1.297 . S
C265 C266 1.479 . S
C265 H279 0.950 . S
C266 C265 1.479 . S
C266 C267 1.375 . S
C266 C272 1.404 . S
C267 C266 1.375 . S
C267 C268 1.369 . S
C267 H280 0.950 . S
C268 C267 1.369 . S
C268 C269 1.392 . S
C268 H281 0.951 . S
C269 C268 1.392 . S
C269 C271 1.384 . S
H270 C272 0.949 . S
C271 C269 1.384 . S
C271 C272 1.385 . S
C271 H273 0.950 . S
C272 C266 1.404 . S
C272 H270 0.949 . S
C272 C271 1.385 . S
H273 C271 0.950 . S
H274 C258 0.951 . S
H275 C260 0.951 . S
H276 C262 0.951 . S
H277 C263 0.950 . S
H278 C264 0.950 . S
H279 C265 0.950 . S
H280 C267 0.950 . S
H281 C268 0.951 . S
C282 C283 1.386 . S
C282 C284 1.383 . S
C282 H298 0.951 . S
C283 C282 1.386 . S
C283 C287 1.383 . S
C284 C282 1.383 . S
C284 C285 1.402 . S
C284 H299 0.951 . S
C285 C284 1.402 . S
C285 C286 1.375 . S
C285 C288 1.481 . S
C286 C285 1.375 . S
C286 C287 1.367 . S
C286 H300 0.951 . S
C287 C283 1.383 . S
C287 C286 1.367 . S
C287 H301 0.950 . S
C288 C285 1.481 . S
C288 C289 1.297 . S
C288 H302 0.950 . S
C289 C288 1.297 . S
C289 C290 1.479 . S
C289 H303 0.950 . S
C290 C289 1.479 . S
C290 C291 1.375 . S
C290 C296 1.404 . S
C291 C290 1.375 . S
C291 C292 1.369 . S
C291 H304 0.950 . S
C292 C291 1.369 . S
C292 C293 1.392 . S
C292 H305 0.951 . S
C293 C292 1.392 . S
C293 C295 1.384 . S
H294 C296 0.949 . S
C295 C293 1.384 . S
C295 C296 1.385 . S
C295 H297 0.950 . S
C296 C290 1.404 . S
C296 H294 0.949 . S
C296 C295 1.385 . S
H297 C295 0.950 . S
H298 C282 0.951 . S
H299 C284 0.951 . S
H300 C286 0.951 . S
H301 C287 0.950 . S
H302 C288 0.950 . S
H303 C289 0.950 . S
H304 C291 0.950 . S
H305 C292 0.951 . S
C306 C307 1.386 . S
C306 C308 1.383 . S
C306 H322 0.951 . S
C307 C306 1.386 . S
C307 C311 1.383 . S
C308 C306 1.383 . S
C308 C309 1.402 . S
C308 H323 0.951 . S
C309 C308 1.402 . S
C309 C310 1.375 . S
C309 C312 1.481 . S
C310 C309 1.375 . S
C310 C311 1.367 . S
C310 H324 0.951 . S
C311 C307 1.383 . S
C311 C310 1.367 . S
C311 H325 0.950 . S
C312 C309 1.481 . S
C312 C313 1.297 . S
C312 H326 0.950 . S
C313 C312 1.297 . S
C313 C314 1.479 . S
C313 H327 0.950 . S
C314 C313 1.479 . S
C314 C315 1.375 . S
C314 C320 1.404 . S
C315 C314 1.375 . S
C315 C316 1.369 . S
C315 H328 0.950 . S
C316 C315 1.369 . S
C316 C317 1.392 . S
C316 H329 0.951 . S
C317 C316 1.392 . S
C317 C319 1.384 . S
H318 C320 0.949 . S
C319 C317 1.384 . S
C319 C320 1.385 . S
C319 H321 0.950 . S
C320 C314 1.404 . S
C320 H318 0.949 . S
C320 C319 1.385 . S
H321 C319 0.950 . S
H322 C306 0.951 . S
H323 C308 0.951 . S
H324 C310 0.951 . S
H325 C311 0.950 . S
H326 C312 0.950 . S
H327 C313 0.950 . S
H328 C315 0.950 . S
H329 C316 0.951 . S
C330 C331 1.386 . S
C330 C332 1.383 . S
C330 H346 0.951 . S
C331 C330 1.386 . S
C331 C335 1.383 . S
C332 C330 1.383 . S
C332 C333 1.402 . S
C332 H347 0.951 . S
C333 C332 1.402 . S
C333 C334 1.375 . S
C333 C336 1.481 . S
C334 C333 1.375 . S
C334 C335 1.367 . S
C334 H348 0.951 . S
C335 C331 1.383 . S
C335 C334 1.367 . S
C335 H349 0.950 . S
C336 C333 1.481 . S
C336 C337 1.297 . S
C336 H350 0.950 . S
C337 C336 1.297 . S
C337 C338 1.479 . S
C337 H351 0.950 . S
C338 C337 1.479 . S
C338 C339 1.375 . S
C338 C344 1.404 . S
C339 C338 1.375 . S
C339 C340 1.369 . S
C339 H352 0.950 . S
C340 C339 1.369 . S
C340 C341 1.392 . S
C340 H353 0.951 . S
C341 C340 1.392 . S
C341 C343 1.384 . S
H342 C344 0.949 . S
C343 C341 1.384 . S
C343 C344 1.385 . S
C343 H345 0.950 . S
C344 C338 1.404 . S
C344 H342 0.949 . S
C344 C343 1.385 . S
H345 C343 0.950 . S
H346 C330 0.951 . S
H347 C332 0.951 . S
H348 C334 0.951 . S
H349 C335 0.950 . S
H350 C336 0.950 . S
H351 C337 0.950 . S
H352 C339 0.950 . S
H353 C340 0.951 . S
C354 C355 1.386 . S
C354 C356 1.383 . S
C354 H370 0.951 . S
C355 C354 1.386 . S
C355 C359 1.383 . S
C356 C354 1.383 . S
C356 C357 1.402 . S
C356 H371 0.951 . S
C357 C356 1.402 . S
C357 C358 1.375 . S
C357 C360 1.481 . S
C358 C357 1.375 . S
C358 C359 1.367 . S
C358 H372 0.951 . S
C359 C355 1.383 . S
C359 C358 1.367 . S
C359 H373 0.950 . S
C360 C357 1.481 . S
C360 C361 1.297 . S
C360 H374 0.950 . S
C361 C360 1.297 . S
C361 C362 1.479 . S
C361 H375 0.950 . S
C362 C361 1.479 . S
C362 C363 1.375 . S
C362 C368 1.404 . S
C363 C362 1.375 . S
C363 C364 1.369 . S
C363 H376 0.950 . S
C364 C363 1.369 . S
C364 C365 1.392 . S
C364 H377 0.951 . S
C365 C364 1.392 . S
C365 C367 1.384 . S
H366 C368 0.949 . S
C367 C365 1.384 . S
C367 C368 1.385 . S
C367 H369 0.950 . S
C368 C362 1.404 . S
C368 H366 0.949 . S
C368 C367 1.385 . S
H369 C367 0.950 . S
H370 C354 0.951 . S
H371 C356 0.951 . S
H372 C358 0.951 . S
H373 C359 0.950 . S
H374 C360 0.950 . S
H375 C361 0.950 . S
H376 C363 0.950 . S
H377 C364 0.951 . S
C101 C61 1.480 . S
C91 N37 1.483 . S
C115 N4 1.484 . S
C125 C84 1.474 . S
C139 N15 1.517 . S
C149 C60 1.511 . S
C163 N26 1.506 . S
C173 C83 1.512 . S
C197 C64 1.487 . S
C187 C9 1.472 . S
C221 C86 1.530 . S
C211 C17 1.533 . S
C235 C31 1.532 . S
C245 C65 1.429 . S
C259 C42 1.500 . S
C269 C85 1.514 . S
C293 C88 1.409 . S
C283 C20 1.411 . S
C317 C63 1.351 . S
C307 C28 1.465 . S
C341 C87 1.330 . S
C331 C39 1.432 . S
C355 C6 1.429 . S
C365 C62 1.435 . S
