# Generated by pormake.
# Topology dag, (6,3)-cn, num edge types: 1
# Building blocks:
#     Node 0, Type 0, BuildingBlock: IZENUY_clean_sbu_0, # of connection points: 6
#     Node 1, Type 0, BuildingBlock: IZENUY_clean_sbu_0, # of connection points: 6
#     Node 2, Type 0, BuildingBlock: IZENUY_clean_sbu_0, # of connection points: 6
#     Node 3, Type 0, BuildingBlock: IZENUY_clean_sbu_0, # of connection points: 6
#     Node 4, Type 1, BuildingBlock: ESEHIV_clean_linker_0, # of connection points: 3
#     Node 5, Type 1, BuildingBlock: ESEHIV_clean_linker_0, # of connection points: 3
#     Node 6, Type 1, BuildingBlock: ESEHIV_clean_linker_0, # of connection points: 3
#     Node 7, Type 1, BuildingBlock: ESEHIV_clean_linker_0, # of connection points: 3
#     Node 8, Type 1, BuildingBlock: ESEHIV_clean_linker_0, # of connection points: 3
#     Node 9, Type 1, BuildingBlock: ESEHIV_clean_linker_0, # of connection points: 3
#     Node 10, Type 1, BuildingBlock: ESEHIV_clean_linker_0, # of connection points: 3
#     Node 11, Type 1, BuildingBlock: ESEHIV_clean_linker_0, # of connection points: 3
#     Edge 12, Type (0, 1), BuildingBlock: CIFDUS_clean_linker_0, # of connection points: 2
#     Edge 13, Type (0, 1), BuildingBlock: CIFDUS_clean_linker_0, # of connection points: 2
#     Edge 14, Type (0, 1), BuildingBlock: CIFDUS_clean_linker_0, # of connection points: 2
#     Edge 15, Type (0, 1), BuildingBlock: CIFDUS_clean_linker_0, # of connection points: 2
#     Edge 16, Type (0, 1), BuildingBlock: CIFDUS_clean_linker_0, # of connection points: 2
#     Edge 17, Type (0, 1), BuildingBlock: CIFDUS_clean_linker_0, # of connection points: 2
#     Edge 18, Type (0, 1), BuildingBlock: CIFDUS_clean_linker_0, # of connection points: 2
#     Edge 19, Type (0, 1), BuildingBlock: CIFDUS_clean_linker_0, # of connection points: 2
#     Edge 20, Type (0, 1), BuildingBlock: CIFDUS_clean_linker_0, # of connection points: 2
#     Edge 21, Type (0, 1), BuildingBlock: CIFDUS_clean_linker_0, # of connection points: 2
#     Edge 22, Type (0, 1), BuildingBlock: CIFDUS_clean_linker_0, # of connection points: 2
#     Edge 23, Type (0, 1), BuildingBlock: CIFDUS_clean_linker_0, # of connection points: 2
#     Edge 24, Type (0, 1), BuildingBlock: CIFDUS_clean_linker_0, # of connection points: 2
#     Edge 25, Type (0, 1), BuildingBlock: CIFDUS_clean_linker_0, # of connection points: 2
#     Edge 26, Type (0, 1), BuildingBlock: CIFDUS_clean_linker_0, # of connection points: 2
#     Edge 27, Type (0, 1), BuildingBlock: CIFDUS_clean_linker_0, # of connection points: 2
#     Edge 28, Type (0, 1), BuildingBlock: CIFDUS_clean_linker_0, # of connection points: 2
#     Edge 29, Type (0, 1), BuildingBlock: CIFDUS_clean_linker_0, # of connection points: 2
#     Edge 30, Type (0, 1), BuildingBlock: CIFDUS_clean_linker_0, # of connection points: 2
#     Edge 31, Type (0, 1), BuildingBlock: CIFDUS_clean_linker_0, # of connection points: 2
#     Edge 32, Type (0, 1), BuildingBlock: CIFDUS_clean_linker_0, # of connection points: 2
#     Edge 33, Type (0, 1), BuildingBlock: CIFDUS_clean_linker_0, # of connection points: 2
#     Edge 34, Type (0, 1), BuildingBlock: CIFDUS_clean_linker_0, # of connection points: 2
#     Edge 35, Type (0, 1), BuildingBlock: CIFDUS_clean_linker_0, # of connection points: 2
# Relax obj value: 0.254
# Max RMSD: 0.192
# Mean RMSD: 0.159
data_MOF--net-dag--node1-IZENUY_clean_sbu_0--node2-ESEHIV_clean_linker_0--edge1-CIFDUS_clean_linker_0
_symmetry_space_group_name_H-M    P1
_symmetry_Int_Tables_number       1
_symmetry_cell_setting            triclinic
loop_
_symmetry_equiv_pos_as_xyz
'x, y, z'
_cell_length_a     31.44811
_cell_length_b     32.677664
_cell_length_c     27.653871
_cell_angle_alpha  94.739092
_cell_angle_beta   90.211329
_cell_angle_gamma 89.946841
loop_
_atom_site_label
_atom_site_type_symbol
_atom_site_fract_x
_atom_site_fract_y
_atom_site_fract_z
_atom_type_partial_charge
Fe0 Fe 0.19942 0.86108 0.09835 0.0
Fe1 Fe 0.11446 0.86725 0.04481 0.0
O2 O 0.15422 0.83702 0.06984 0.0
Fe3 Fe 0.14772 0.78288 0.06566 0.0
O4 O 0.17467 0.77526 0.12307 0.0
O5 O 0.18994 0.83747 0.15462 0.0
O6 O 0.16892 0.90572 0.125 0.0
C7 C 0.12914 0.91083 0.13166 0.0
C8 C 0.23233 0.79015 0.04447 0.0
O9 O 0.10227 0.89212 0.10389 0.0
C10 C 0.12123 0.80562 0.97343 0.0
O11 O 0.21355 0.88688 0.04446 0.0
O12 O 0.14938 0.90913 0.03093 0.0
O13 O 0.19654 0.77513 0.03256 0.0
O14 O 0.23656 0.82025 0.07616 0.0
C15 C 0.06629 0.80605 0.08448 0.0
O16 O 0.12542 0.8436 0.98479 0.0
O17 O 0.12018 0.78054 0.00618 0.0
C18 C 0.18867 0.90935 0.02265 0.0
O19 O 0.07072 0.83173 0.05328 0.0
O20 O 0.09799 0.78712 0.09943 0.0
C21 C 0.18517 0.79961 0.15903 0.0
Fe22 Fe 0.70251 0.66862 0.50917 0.0
Fe23 Fe 0.63253 0.72303 0.5589 0.0
O24 O 0.65106 0.67416 0.53498 0.0
Fe25 Fe 0.61822 0.63065 0.53631 0.0
O26 O 0.65664 0.60523 0.57268 0.0
O27 O 0.71088 0.61585 0.52574 0.0
O28 O 0.72716 0.68651 0.56608 0.0
C29 C 0.71888 0.7206 0.58894 0.0
C30 C 0.65558 0.62065 0.44402 0.0
O31 O 0.68541 0.74055 0.58031 0.0
C32 C 0.56062 0.6877 0.5103 0.0
O33 O 0.70379 0.7201 0.48829 0.0
O34 O 0.63908 0.74419 0.50046 0.0
O35 O 0.63839 0.60533 0.47959 0.0
O36 O 0.68071 0.65066 0.45022 0.0
C37 C 0.60396 0.67385 0.6271 0.0
O38 O 0.57636 0.71355 0.54204 0.0
O39 O 0.57811 0.65344 0.49994 0.0
C40 C 0.67401 0.74394 0.47821 0.0
O41 O 0.62478 0.70538 0.61878 0.0
O42 O 0.59209 0.64817 0.59309 0.0
C43 C 0.69418 0.5972 0.55923 0.0
Fe44 Fe 0.83664 0.19955 0.00681 0.0
Fe45 Fe 0.85664 0.11097 0.02734 0.0
O46 O 0.82107 0.14748 0.00695 0.0
Fe47 Fe 0.76989 0.13087 0.98654 0.0
O48 O 0.76382 0.16968 0.94331 0.0
O49 O 0.82591 0.20015 0.94218 0.0
O50 O 0.89278 0.18766 0.99045 0.0
C51 C 0.90957 0.15435 0.97254 0.0
C52 C 0.75155 0.20192 0.04154 0.0
O53 O 0.89386 0.12002 0.98019 0.0
C54 C 0.78422 0.08563 0.06778 0.0
O55 O 0.84801 0.20364 0.0716 0.0
O56 O 0.8843 0.14636 0.07097 0.0
O57 O 0.74447 0.16389 0.03357 0.0
O58 O 0.78335 0.2191 0.02341 0.0
C59 C 0.81996 0.06982 0.94526 0.0
O60 O 0.82082 0.1003 0.07573 0.0
O61 O 0.76615 0.08888 0.02719 0.0
C62 C 0.87189 0.17968 0.0924 0.0
O63 O 0.83596 0.06844 0.98706 0.0
O64 O 0.79324 0.0974 0.93754 0.0
C65 C 0.79047 0.19119 0.92261 0.0
Fe66 Fe 0.38945 0.36761 0.54475 0.0
Fe67 Fe 0.30226 0.34233 0.58139 0.0
O68 O 0.35267 0.32889 0.55608 0.0
Fe69 Fe 0.3669 0.27686 0.54173 0.0
O70 O 0.41217 0.28069 0.58301 0.0
O71 O 0.43678 0.33641 0.55392 0.0
O72 O 0.39205 0.3842 0.60841 0.0
C73 C 0.36057 0.39517 0.63446 0.0
C74 C 0.40064 0.31749 0.46299 0.0
O75 O 0.32278 0.38684 0.62037 0.0
C76 C 0.28471 0.27771 0.50889 0.0
O77 O 0.34967 0.40659 0.53331 0.0
O78 O 0.28879 0.3739 0.5323 0.0
O79 O 0.40033 0.28726 0.48911 0.0
O80 O 0.38858 0.35246 0.48037 0.0
C81 C 0.3207 0.27441 0.62976 0.0
O82 O 0.27372 0.30003 0.54661 0.0
O83 O 0.32327 0.27007 0.49984 0.0
C84 C 0.31146 0.40284 0.51964 0.0
O85 O 0.31139 0.31204 0.63245 0.0
O86 O 0.33585 0.25685 0.591 0.0
C87 C 0.44225 0.30532 0.57756 0.0
H88 H 0.0267 0.11657 0.25251 0.0
H89 H 0.1286 0.11998 0.35653 0.0
H90 H 0.04888 0.22613 0.34578 0.0
C91 C 0.0436 0.13201 0.28302 0.0
C92 C 0.03218 0.17243 0.29899 0.0
C93 C 0.07894 0.11303 0.30273 0.0
C94 C 0.10155 0.13449 0.34053 0.0
C95 C 0.09121 0.17534 0.35613 0.0
C96 C 0.05621 0.1942 0.33537 0.0
H97 H 0.44747 0.58608 0.78032 0.0
H98 H 0.34112 0.59265 0.87656 0.0
H99 H 0.43845 0.68634 0.89016 0.0
C100 C 0.43163 0.60085 0.81189 0.0
C101 C 0.44767 0.63791 0.83382 0.0
C102 C 0.39365 0.5841 0.82758 0.0
C103 C 0.37134 0.6049 0.86586 0.0
C104 C 0.38723 0.64183 0.8892 0.0
C105 C 0.4257 0.65797 0.87294 0.0
H106 H 0.83612 0.87087 0.14317 0.0
H107 H 0.83742 0.80263 0.26947 0.0
H108 H 0.73613 0.88821 0.24812 0.0
C109 C 0.82094 0.86188 0.1758 0.0
C110 C 0.78297 0.88126 0.19132 0.0
C111 C 0.84132 0.83398 0.2042 0.0
C112 C 0.82229 0.82463 0.24768 0.0
C113 C 0.78426 0.84388 0.26371 0.0
C114 C 0.76467 0.87221 0.23531 0.0
H115 H 0.6811 0.38144 0.60101 0.0
H116 H 0.69762 0.26974 0.66976 0.0
H117 H 0.77338 0.3766 0.71474 0.0
C118 C 0.69853 0.36348 0.62579 0.0
C119 C 0.73042 0.38255 0.65498 0.0
C120 C 0.6857 0.32327 0.63203 0.0
C121 C 0.70718 0.30113 0.6658 0.0
C122 C 0.73914 0.31983 0.69597 0.0
C123 C 0.75049 0.3609 0.6904 0.0
H124 H 0.55899 0.43908 0.30441 0.0
H125 H 0.66975 0.4152 0.21704 0.0
H126 H 0.57585 0.32025 0.22847 0.0
C127 C 0.57669 0.41891 0.27868 0.0
C128 C 0.56149 0.37905 0.266 0.0
C129 C 0.6162 0.43169 0.26212 0.0
C130 C 0.63982 0.40472 0.23084 0.0
C131 C 0.62607 0.36418 0.2188 0.0
C132 C 0.58657 0.35158 0.23645 0.0
H133 H 0.15082 0.10647 0.93575 0.0
H134 H 0.16275 0.2118 0.85408 0.0
H135 H 0.26859 0.12822 0.8638 0.0
C136 C 0.16991 0.12531 0.91366 0.0
C137 C 0.2118 0.11363 0.90244 0.0
C138 C 0.15217 0.16068 0.89659 0.0
C139 C 0.17697 0.18501 0.86829 0.0
C140 C 0.21901 0.17349 0.85571 0.0
C141 C 0.23641 0.13761 0.8732 0.0
H142 H 0.31831 0.62805 0.48928 0.0
H143 H 0.31233 0.71962 0.38707 0.0
H144 H 0.22118 0.62032 0.37946 0.0
C145 C 0.30202 0.6414 0.45968 0.0
C146 C 0.26752 0.6206 0.43699 0.0
C147 C 0.3184 0.67684 0.44163 0.0
C148 C 0.29866 0.69285 0.40174 0.0
C149 C 0.26272 0.67345 0.37949 0.0
C150 C 0.24779 0.63663 0.39694 0.0
H151 H 0.99642 0.8981 0.80226 0.0
H152 H 0.96903 0.7885 0.71144 0.0
H153 H 0.87264 0.88157 0.73879 0.0
C154 C 0.97489 0.88064 0.77775 0.0
C155 C 0.93271 0.89378 0.77394 0.0
C156 C 0.98816 0.84269 0.75554 0.0
C157 C 0.95949 0.81883 0.72631 0.0
C158 C 0.9178 0.83303 0.71903 0.0
C159 C 0.90502 0.87097 0.7425 0.0
H160 H 0.17597 0.96883 0.18439 0.0
H161 H 0.04737 0.92496 0.16167 0.0
H162 H 0.02085 0.9814 0.21658 0.0
H163 H 0.03355 0.04598 0.26642 0.0
H164 H 0.16188 0.09174 0.28489 0.0
H165 H 0.18898 0.03128 0.23765 0.0
C166 C 0.14218 0.97134 0.19179 0.0
C167 C 0.11374 0.94294 0.16841 0.0
C168 C 0.12699 0.00421 0.22289 0.0
C169 C 0.07002 0.94665 0.17865 0.0
C170 C 0.05477 0.97891 0.21013 0.0
C171 C 0.06746 0.04268 0.26026 0.0
C172 C 0.09547 0.07355 0.27927 0.0
C173 C 0.08287 0.00836 0.23165 0.0
C174 C 0.13945 0.06831 0.27151 0.0
C175 C 0.15505 0.03389 0.24394 0.0
H176 H 0.55794 0.72619 0.68766 0.0
H177 H 0.61651 0.60655 0.67465 0.0
H178 H 0.5797 0.58813 0.74734 0.0
H179 H 0.52129 0.60128 0.80424 0.0
H180 H 0.4556 0.71744 0.81117 0.0
H181 H 0.50553 0.74275 0.75296 0.0
C182 C 0.56347 0.69667 0.70188 0.0
C183 C 0.58955 0.6676 0.67625 0.0
C184 C 0.54058 0.68562 0.74239 0.0
C185 C 0.59633 0.62918 0.6941 0.0
C186 C 0.57522 0.61863 0.73545 0.0
C187 C 0.51856 0.63246 0.79376 0.0
C188 C 0.48444 0.65715 0.81113 0.0
C189 C 0.54577 0.64586 0.7584 0.0
C190 C 0.48162 0.69779 0.79821 0.0
C191 C 0.50984 0.71209 0.76443 0.0
H192 H 0.75445 0.00996 0.04014 0.0
H193 H 0.78432 0.09151 0.16613 0.0
H194 H 0.77776 0.03479 0.21809 0.0
H195 H 0.77637 0.96043 0.22505 0.0
H196 H 0.75603 0.87788 0.09748 0.0
H197 H 0.74531 0.93627 0.04858 0.0
C198 C 0.75805 0.01544 0.07918 0.0
C199 C 0.76973 0.05462 0.09955 0.0
C200 C 0.75653 0.98229 0.10828 0.0
C201 C 0.7753 0.06144 0.14993 0.0
C202 C 0.77179 0.02902 0.1795 0.0
C203 C 0.76819 0.95543 0.18686 0.0
C204 C 0.76672 0.91527 0.16466 0.0
C205 C 0.7643 0.98905 0.15877 0.0
C206 C 0.75707 0.90876 0.11505 0.0
C207 C 0.75122 0.94207 0.08718 0.0
H208 H 0.51187 0.31193 0.52337 0.0
H209 H 0.4701 0.276 0.66194 0.0
H210 H 0.5444 0.27143 0.68878 0.0
H211 H 0.61979 0.28847 0.67651 0.0
H212 H 0.66045 0.32553 0.53779 0.0
H213 H 0.5878 0.31816 0.50676 0.0
C214 C 0.51916 0.3025 0.55922 0.0
C215 C 0.48596 0.29507 0.59116 0.0
C216 C 0.56156 0.3003 0.57423 0.0
C217 C 0.49541 0.28203 0.63703 0.0
C218 C 0.53776 0.27964 0.65233 0.0
C219 C 0.61301 0.29353 0.63897 0.0
C220 C 0.64528 0.30799 0.60957 0.0
C221 C 0.57099 0.29013 0.62179 0.0
C222 C 0.63599 0.31482 0.56117 0.0
C223 C 0.59448 0.3108 0.54354 0.0
H224 H 0.70852 0.56571 0.39839 0.0
H225 H 0.5873 0.62514 0.38607 0.0
H226 H 0.56635 0.57429 0.32047 0.0
H227 H 0.57789 0.50636 0.27781 0.0
H228 H 0.69722 0.44394 0.29553 0.0
H229 H 0.72412 0.50271 0.34643 0.0
C230 C 0.67832 0.56828 0.37975 0.0
C231 C 0.64955 0.59907 0.3961 0.0
C232 C 0.66595 0.53794 0.34356 0.0
C233 C 0.60998 0.60186 0.37314 0.0
C234 C 0.5979 0.57256 0.3361 0.0
C235 C 0.61004 0.50601 0.29213 0.0
C236 C 0.63524 0.47066 0.28343 0.0
C237 C 0.62485 0.53939 0.3227 0.0
C238 C 0.67715 0.47082 0.30148 0.0
C239 C 0.69248 0.5043 0.33101 0.0
H240 H 0.97112 0.21431 0.97697 0.0
H241 H 0.94115 0.09322 0.91115 0.0
H242 H 0.01264 0.08624 0.87853 0.0
H243 H 0.08556 0.11113 0.87524 0.0
H244 H 0.11779 0.23134 0.94046 0.0
H245 H 0.04363 0.24239 0.96624 0.0
C246 C 0.98009 0.18678 0.95477 0.0
C247 C 0.95098 0.15411 0.9472 0.0
C248 C 0.02177 0.18263 0.93636 0.0
C249 C 0.96308 0.11859 0.91824 0.0
C250 C 0.004 0.1145 0.8995 0.0
C251 C 0.07613 0.13991 0.89468 0.0
C252 C 0.10686 0.17019 0.90654 0.0
C253 C 0.03388 0.14576 0.90948 0.0
C254 C 0.09446 0.20762 0.93107 0.0
C255 C 0.05219 0.2138 0.94596 0.0
H256 H 0.26158 0.46585 0.55449 0.0
H257 H 0.3234 0.41358 0.42512 0.0
H258 H 0.30689 0.47508 0.38362 0.0
H259 H 0.28531 0.54771 0.38899 0.0
H260 H 0.23029 0.60256 0.52114 0.0
H261 H 0.2325 0.53625 0.55656 0.0
C262 C 0.27008 0.46762 0.51673 0.0
C263 C 0.29307 0.43536 0.49243 0.0
C264 C 0.26189 0.50375 0.49385 0.0
C265 C 0.30515 0.43806 0.44404 0.0
C266 C 0.29596 0.47326 0.42051 0.0
C267 C 0.27232 0.54458 0.4248 0.0
C268 C 0.25706 0.57953 0.45229 0.0
C269 C 0.2757 0.50687 0.44561 0.0
C270 C 0.2415 0.57572 0.49922 0.0
C271 C 0.24323 0.53797 0.51958 0.0
H272 H 0.14065 0.84032 0.89106 0.0
H273 H 0.06596 0.74364 0.94548 0.0
H274 H 0.0234 0.73845 0.87116 0.0
H275 H 0.99648 0.77417 0.80241 0.0
H276 H 0.06795 0.87454 0.7519 0.0
H277 H 0.12354 0.8648 0.81184 0.0
C278 C 0.11587 0.81728 0.88591 0.0
C279 C 0.1056 0.79321 0.92404 0.0
C280 C 0.09073 0.81544 0.84384 0.0
C281 C 0.07416 0.7628 0.91676 0.0
C282 C 0.04958 0.76006 0.8744 0.0
C283 C 0.02531 0.79242 0.80292 0.0
C284 C 0.02807 0.82534 0.77344 0.0
C285 C 0.05593 0.788 0.83918 0.0
C286 C 0.0653 0.84911 0.7745 0.0
C287 C 0.09673 0.8439 0.8092 0.0
H288 H 0.87481 0.00805 0.95502 0.0
H289 H 0.79723 0.06239 0.84824 0.0
H290 H 0.82612 0.01327 0.78463 0.0
H291 H 0.87508 0.9554 0.75981 0.0
H292 H 0.95088 0.90298 0.86995 0.0
H293 H 0.92171 0.95185 0.93152 0.0
C294 C 0.86381 0.00925 0.91793 0.0
C295 C 0.83371 0.03876 0.9065 0.0
C296 C 0.88089 0.98171 0.88194 0.0
C297 C 0.82014 0.03973 0.8581 0.0
C298 C 0.83686 0.01184 0.82173 0.0
C299 C 0.88519 0.95484 0.79727 0.0
C300 C 0.91589 0.92604 0.80986 0.0
C301 C 0.86756 0.98281 0.83323 0.0
C302 C 0.92849 0.92557 0.8587 0.0
C303 C 0.91137 0.95317 0.89423 0.0
H304 H 0.39776 0.36981 0.39194 0.0
H305 H 0.46097 0.26062 0.43309 0.0
H306 H 0.5137 0.2666 0.36946 0.0
H307 H 0.54833 0.30944 0.31173 0.0
H308 H 0.48577 0.4195 0.27242 0.0
H309 H 0.42622 0.40644 0.3254 0.0
C310 C 0.42255 0.34682 0.38629 0.0
C311 C 0.42581 0.31524 0.41771 0.0
C312 C 0.45326 0.35091 0.35034 0.0
C313 C 0.45775 0.28533 0.40953 0.0
C314 C 0.48817 0.28891 0.37335 0.0
C315 C 0.52105 0.32983 0.31362 0.0
C316 C 0.5217 0.36571 0.28878 0.0
C317 C 0.48721 0.32251 0.34488 0.0
C318 C 0.48623 0.39202 0.29181 0.0
C319 C 0.45223 0.38461 0.32213 0.0
H320 H 0.24284 0.9744 0.03942 0.0
H321 H 0.16597 0.90914 0.92925 0.0
H322 H 0.17421 0.96483 0.87649 0.0
H323 H 0.19165 0.03692 0.86835 0.0
H324 H 0.26368 0.1053 0.98014 0.0
H325 H 0.26992 0.04389 0.02523 0.0
C326 C 0.22935 0.97194 0.00314 0.0
C327 C 0.20408 0.93776 0.9879 0.0
C328 C 0.23293 0.005 0.9736 0.0
C329 C 0.18579 0.93512 0.94138 0.0
C330 C 0.19025 0.96707 0.91137 0.0
C331 C 0.21016 0.03776 0.90162 0.0
C332 C 0.22758 0.07517 0.92081 0.0
C333 C 0.21212 0.00286 0.92796 0.0
C334 C 0.25067 0.07649 0.96444 0.0
C335 C 0.25373 0.04153 0.99045 0.0
H336 H 0.48816 0.71104 0.5577 0.0
H337 H 0.53949 0.67912 0.41538 0.0
H338 H 0.46818 0.67994 0.37991 0.0
H339 H 0.39086 0.68077 0.39107 0.0
H340 H 0.33869 0.7053 0.53429 0.0
H341 H 0.41032 0.71712 0.56793 0.0
C342 C 0.48358 0.70522 0.51883 0.0
C343 C 0.51865 0.69487 0.489 0.0
C344 C 0.44229 0.70424 0.49906 0.0
C345 C 0.51267 0.68674 0.43884 0.0
C346 C 0.47198 0.68726 0.41864 0.0
C347 C 0.39526 0.68993 0.42938 0.0
C348 C 0.35986 0.69262 0.46022 0.0
C349 C 0.43647 0.6947 0.44858 0.0
C350 C 0.36571 0.70344 0.51 0.0
C351 C 0.40658 0.70989 0.52919 0.0
H352 H 0.30746 0.45246 0.67989 0.0
H353 H 0.43258 0.39896 0.68838 0.0
H354 H 0.4517 0.4498 0.75414 0.0
H355 H 0.43614 0.51391 0.80237 0.0
H356 H 0.31303 0.57059 0.79188 0.0
H357 H 0.28943 0.51365 0.73488 0.0
C358 C 0.33858 0.45155 0.69682 0.0
C359 C 0.36877 0.4224 0.67884 0.0
C360 C 0.3498 0.48156 0.73413 0.0
C361 C 0.409 0.42152 0.70107 0.0
C362 C 0.41999 0.45054 0.73872 0.0
C363 C 0.40395 0.51346 0.78804 0.0
C364 C 0.37653 0.54649 0.80077 0.0
C365 C 0.39116 0.48143 0.75442 0.0
C366 C 0.33468 0.54537 0.78268 0.0
C367 C 0.32134 0.51303 0.74976 0.0
H368 H 0.0377 0.80347 0.17647 0.0
H369 H 0.99795 0.7911 0.0267 0.0
H370 H 0.92338 0.79261 0.05118 0.0
H371 H 0.87011 0.80727 0.11446 0.0
H372 H 0.90984 0.82636 0.26413 0.0
H373 H 0.98331 0.81145 0.24077 0.0
C374 C 0.01257 0.79983 0.14948 0.0
C375 C 0.02293 0.79711 0.10003 0.0
C376 C 0.96972 0.80249 0.16381 0.0
C377 C 0.99039 0.79321 0.06504 0.0
C378 C 0.94784 0.79431 0.07899 0.0
C379 C 0.8948 0.80781 0.142 0.0
C380 C 0.88448 0.81836 0.19083 0.0
C381 C 0.93718 0.80061 0.12818 0.0
C382 C 0.91675 0.81809 0.22624 0.0
C383 C 0.95892 0.80991 0.21289 0.0
H384 H 0.68841 0.56712 0.64742 0.0
H385 H 0.74597 0.54414 0.50644 0.0
H386 H 0.76976 0.47665 0.52738 0.0
H387 H 0.76383 0.42035 0.58089 0.0
H388 H 0.7072 0.44327 0.72204 0.0
H389 H 0.69433 0.515 0.70669 0.0
C390 C 0.70685 0.54755 0.62174 0.0
C391 C 0.71481 0.56011 0.57525 0.0
C392 C 0.7206 0.50888 0.63411 0.0
C393 C 0.73932 0.53498 0.54242 0.0
C394 C 0.7528 0.49633 0.55428 0.0
C395 C 0.75025 0.44163 0.60887 0.0
C396 C 0.73653 0.42699 0.65247 0.0
C397 C 0.74231 0.48244 0.59936 0.0
C398 C 0.71846 0.45431 0.68849 0.0
C399 C 0.71057 0.49507 0.67942 0.0
H400 H 0.9336 0.23297 0.12467 0.0
H401 H 0.84388 0.14461 0.17029 0.0
H402 H 0.88232 0.14099 0.2467 0.0
H403 H 0.94963 0.15133 0.29092 0.0
H404 H 0.04177 0.23682 0.24398 0.0
H405 H 0.99413 0.25425 0.17846 0.0
C406 C 0.92164 0.21445 0.15244 0.0
C407 C 0.88614 0.18917 0.14248 0.0
C408 C 0.94482 0.21155 0.19561 0.0
C409 C 0.87108 0.16448 0.17782 0.0
C410 C 0.89325 0.16214 0.22121 0.0
C411 C 0.95837 0.17495 0.26741 0.0
C412 C 0.99894 0.19264 0.2717 0.0
C413 C 0.93139 0.18381 0.22922 0.0
C414 C 0.01043 0.22306 0.24123 0.0
C415 C 0.98342 0.23264 0.2035 0.0
H416 H 0.18909 0.71904 0.17765 0.0
H417 H 0.20663 0.8417 0.24558 0.0
H418 H 0.22976 0.81342 0.32039 0.0
H419 H 0.24799 0.75395 0.3654 0.0
H420 H 0.2332 0.63148 0.29608 0.0
H421 H 0.20523 0.6597 0.2234 0.0
C422 C 0.19764 0.73971 0.20887 0.0
C423 C 0.19627 0.78254 0.20569 0.0
C424 C 0.2114 0.72325 0.25165 0.0
C425 C 0.20752 0.80866 0.24673 0.0
C426 C 0.2208 0.7925 0.28959 0.0
C427 C 0.23877 0.73338 0.33435 0.0
C428 C 0.2429 0.69058 0.33636 0.0
C429 C 0.22344 0.74985 0.29223 0.0
C430 C 0.22998 0.66447 0.296 0.0
C431 C 0.21427 0.68061 0.25417 0.0
H432 H 0.80384 0.7198 0.57451 0.0
H433 H 0.70646 0.76662 0.67364 0.0
H434 H 0.76023 0.80318 0.72472 0.0
H435 H 0.83403 0.82301 0.73959 0.0
H436 H 0.93075 0.78316 0.63555 0.0
H437 H 0.87819 0.74148 0.58854 0.0
C438 C 0.79461 0.73769 0.60761 0.0
C439 C 0.75154 0.74048 0.62076 0.0
C440 C 0.82545 0.75972 0.63572 0.0
C441 C 0.73957 0.76422 0.66308 0.0
C442 C 0.77022 0.78504 0.69215 0.0
C443 C 0.84368 0.80594 0.70615 0.0
C444 C 0.88629 0.80682 0.69083 0.0
C445 C 0.81312 0.78342 0.67843 0.0
C446 C 0.89826 0.78297 0.64839 0.0
C447 C 0.86818 0.75933 0.62131 0.0
H448 H 0.77197 0.26178 0.10948 0.0
H449 H 0.66478 0.19832 0.04113 0.0
H450 H 0.61577 0.24308 0.09007 0.0
H451 H 0.60409 0.30191 0.15052 0.0
H452 H 0.71267 0.35934 0.22452 0.0
H453 H 0.7604 0.31559 0.17472 0.0
C454 C 0.73784 0.2579 0.10534 0.0
C455 C 0.72176 0.22748 0.07156 0.0
C456 C 0.71019 0.2828 0.13434 0.0
C457 C 0.67764 0.22184 0.067 0.0
C458 C 0.64974 0.2474 0.09486 0.0
C459 C 0.63813 0.30453 0.15626 0.0
C460 C 0.65456 0.33486 0.19041 0.0
C461 C 0.6657 0.27817 0.12852 0.0
C462 C 0.69892 0.33754 0.19726 0.0
C463 C 0.72641 0.3122 0.16913 0.0
H464 H 0.28985 0.30208 0.71852 0.0
H465 H 0.32544 0.19087 0.63302 0.0
H466 H 0.30075 0.14992 0.69738 0.0
H467 H 0.2637 0.14539 0.77531 0.0
H468 H 0.22733 0.25673 0.85971 0.0
H469 H 0.25782 0.29779 0.79859 0.0
C470 C 0.29251 0.26889 0.71397 0.0
C471 C 0.30911 0.24969 0.67059 0.0
C472 C 0.27794 0.24545 0.75096 0.0
C473 C 0.31262 0.2066 0.66579 0.0
C474 C 0.29844 0.18308 0.70261 0.0
C475 C 0.26325 0.17863 0.78075 0.0
C476 C 0.24304 0.19796 0.82188 0.0
C477 C 0.28035 0.20213 0.74502 0.0
C478 C 0.24229 0.2411 0.82812 0.0
C479 C 0.2597 0.26461 0.79317 0.0
H480 H 0.74628 0.78496 0.46836 0.0
H481 H 0.62137 0.7665 0.40595 0.0
H482 H 0.64342 0.80097 0.33442 0.0
H483 H 0.70197 0.82655 0.28516 0.0
H484 H 0.82698 0.84262 0.34884 0.0
H485 H 0.80122 0.81882 0.42461 0.0
C486 C 0.72365 0.78931 0.43947 0.0
C487 C 0.68258 0.773 0.44173 0.0
C488 C 0.73685 0.80803 0.39851 0.0
C489 C 0.65318 0.77907 0.40473 0.0
C490 C 0.66594 0.79833 0.36375 0.0
C491 C 0.72322 0.82558 0.31603 0.0
C492 C 0.76649 0.83532 0.31123 0.0
C493 C 0.70824 0.81145 0.35947 0.0
C494 C 0.79379 0.8342 0.35141 0.0
C495 C 0.77908 0.82081 0.39475 0.0
H496 H 0.83686 0.2398 0.86576 0.0
H497 H 0.71232 0.18637 0.88072 0.0
H498 H 0.68617 0.22162 0.81293 0.0
H499 H 0.69685 0.26968 0.75234 0.0
H500 H 0.82121 0.32106 0.7316 0.0
H501 H 0.8488 0.28545 0.79973 0.0
C502 C 0.80412 0.23569 0.85393 0.0
C503 C 0.77665 0.21062 0.87869 0.0
C504 C 0.78901 0.25603 0.81434 0.0
C505 C 0.73431 0.20548 0.86265 0.0
C506 C 0.71914 0.22574 0.82386 0.0
C507 C 0.73031 0.27244 0.76165 0.0
C508 C 0.75696 0.29771 0.73636 0.0
C509 C 0.74605 0.2513 0.7998 0.0
C510 C 0.79984 0.30201 0.75059 0.0
C511 C 0.81571 0.28145 0.78935 0.0
H512 H 0.19757 0.28018 0.51693 0.0
H513 H 0.2996 0.23056 0.42533 0.0
H514 H 0.24862 0.19607 0.37034 0.0
H515 H 0.17596 0.17878 0.34815 0.0
H516 H 0.07225 0.22629 0.4375 0.0
H517 H 0.12295 0.26342 0.49301 0.0
C518 C 0.20856 0.26186 0.48493 0.0
C519 C 0.25247 0.25781 0.4757 0.0
C520 C 0.17887 0.24179 0.45295 0.0
C521 C 0.26613 0.2341 0.4338 0.0
C522 C 0.23699 0.21431 0.40209 0.0
C523 C 0.16442 0.19696 0.38005 0.0
C524 C 0.12065 0.1993 0.38933 0.0
C525 C 0.19347 0.21771 0.41148 0.0
C526 C 0.10596 0.22397 0.42987 0.0
C527 C 0.13491 0.24501 0.46158 0.0
H528 H 0.25247 0.71043 0.04285 0.0
H529 H 0.29489 0.82564 0.99503 0.0
H530 H 0.34951 0.78982 0.94435 0.0
H531 H 0.37843 0.72507 0.90683 0.0
H532 H 0.33919 0.61015 0.9597 0.0
H533 H 0.28953 0.64666 0.01515 0.0
C534 C 0.27435 0.7276 0.02199 0.0
C535 C 0.2699 0.77028 0.02201 0.0
C536 C 0.30551 0.7069 0.99342 0.0
C537 C 0.29822 0.79266 0.99542 0.0
C538 C 0.32908 0.77218 0.96629 0.0
C539 C 0.36003 0.70792 0.93133 0.0
C540 C 0.36199 0.66468 0.92806 0.0
C541 C 0.33217 0.72916 0.96401 0.0
C542 C 0.33739 0.64326 0.96009 0.0
C543 C 0.30919 0.66412 0.99217 0.0
loop_
_geom_bond_atom_site_label_1
_geom_bond_atom_site_label_2
_geom_bond_distance
_geom_bond_site_symmetry_2
_ccdc_geom_bond_type
Fe0 O2 1.918 . S
Fe0 O5 1.997 . S
Fe0 O6 2.002 . S
Fe0 O11 1.976 . S
Fe0 O14 1.996 . S
Fe1 O2 1.918 . S
Fe1 O9 1.997 . S
Fe1 O12 1.996 . S
Fe1 O16 1.976 1_554 S
Fe1 O19 2.002 . S
O2 Fe0 1.918 . S
O2 Fe1 1.918 . S
O2 Fe3 1.918 . S
Fe3 O2 1.918 . S
Fe3 O4 2.002 . S
Fe3 O13 1.976 . S
Fe3 O17 1.996 1_554 S
Fe3 O20 1.997 . S
O4 Fe3 2.002 . S
O4 C21 1.295 . S
O5 Fe0 1.997 . S
O5 C21 1.235 . S
O6 Fe0 2.002 . S
O6 C7 1.295 . S
C7 O6 1.295 . S
C7 O9 1.235 . S
C8 O13 1.287 . S
C8 O14 1.255 . S
O9 Fe1 1.997 . S
O9 C7 1.235 . S
C10 O16 1.287 . S
C10 O17 1.255 . S
O11 Fe0 1.976 . S
O11 C18 1.287 . S
O12 Fe1 1.996 . S
O12 C18 1.255 . S
O13 Fe3 1.976 . S
O13 C8 1.287 . S
O14 Fe0 1.996 . S
O14 C8 1.255 . S
C15 O19 1.295 . S
C15 O20 1.235 . S
O16 Fe1 1.976 1_556 S
O16 C10 1.287 . S
O17 Fe3 1.996 1_556 S
O17 C10 1.255 . S
C18 O11 1.287 . S
C18 O12 1.255 . S
O19 Fe1 2.002 . S
O19 C15 1.295 . S
O20 Fe3 1.997 . S
O20 C15 1.235 . S
C21 O4 1.295 . S
C21 O5 1.235 . S
Fe22 O24 1.918 . S
Fe22 O27 1.997 . S
Fe22 O28 2.002 . S
Fe22 O33 1.976 . S
Fe22 O36 1.996 . S
Fe23 O24 1.918 . S
Fe23 O31 1.997 . S
Fe23 O34 1.996 . S
Fe23 O38 1.976 . S
Fe23 O41 2.002 . S
O24 Fe22 1.918 . S
O24 Fe23 1.918 . S
O24 Fe25 1.918 . S
Fe25 O24 1.918 . S
Fe25 O26 2.002 . S
Fe25 O35 1.976 . S
Fe25 O39 1.996 . S
Fe25 O42 1.997 . S
O26 Fe25 2.002 . S
O26 C43 1.295 . S
O27 Fe22 1.997 . S
O27 C43 1.235 . S
O28 Fe22 2.002 . S
O28 C29 1.295 . S
C29 O28 1.295 . S
C29 O31 1.235 . S
C30 O35 1.287 . S
C30 O36 1.255 . S
O31 Fe23 1.997 . S
O31 C29 1.235 . S
C32 O38 1.287 . S
C32 O39 1.255 . S
O33 Fe22 1.976 . S
O33 C40 1.287 . S
O34 Fe23 1.996 . S
O34 C40 1.255 . S
O35 Fe25 1.976 . S
O35 C30 1.287 . S
O36 Fe22 1.996 . S
O36 C30 1.255 . S
C37 O41 1.295 . S
C37 O42 1.235 . S
O38 Fe23 1.976 . S
O38 C32 1.287 . S
O39 Fe25 1.996 . S
O39 C32 1.255 . S
C40 O33 1.287 . S
C40 O34 1.255 . S
O41 Fe23 2.002 . S
O41 C37 1.295 . S
O42 Fe25 1.997 . S
O42 C37 1.235 . S
C43 O26 1.295 . S
C43 O27 1.235 . S
Fe44 O46 1.918 . S
Fe44 O49 1.997 1_554 S
Fe44 O50 2.002 . S
Fe44 O55 1.976 . S
Fe44 O58 1.996 . S
Fe45 O46 1.918 . S
Fe45 O53 1.995 1_554 S
Fe45 O56 1.996 . S
Fe45 O60 1.976 . S
Fe45 O63 2.002 1_554 S
O46 Fe44 1.918 . S
O46 Fe45 1.918 . S
O46 Fe47 1.918 1_554 S
Fe47 O46 1.918 1_556 S
Fe47 O48 2.002 . S
Fe47 O57 1.976 1_556 S
Fe47 O61 1.996 1_556 S
Fe47 O64 1.997 . S
O48 Fe47 2.002 . S
O48 C65 1.295 . S
O49 Fe44 1.997 1_556 S
O49 C65 1.235 . S
O50 Fe44 2.002 . S
O50 C51 1.295 1_554 S
C51 O50 1.295 1_556 S
C51 O53 1.237 . S
C52 O57 1.287 . S
C52 O58 1.255 . S
O53 Fe45 1.995 1_556 S
O53 C51 1.237 . S
C54 O60 1.287 . S
C54 O61 1.255 . S
O55 Fe44 1.976 . S
O55 C62 1.287 . S
O56 Fe45 1.996 . S
O56 C62 1.255 . S
O57 Fe47 1.976 1_554 S
O57 C52 1.287 . S
O58 Fe44 1.996 . S
O58 C52 1.255 . S
C59 O63 1.295 . S
C59 O64 1.235 . S
O60 Fe45 1.976 . S
O60 C54 1.287 . S
O61 Fe47 1.996 1_554 S
O61 C54 1.255 . S
C62 O55 1.287 . S
C62 O56 1.255 . S
O63 Fe45 2.002 1_556 S
O63 C59 1.295 . S
O64 Fe47 1.997 . S
O64 C59 1.235 . S
C65 O48 1.295 . S
C65 O49 1.235 . S
Fe66 O68 1.918 . S
Fe66 O71 1.997 . S
Fe66 O72 2.002 . S
Fe66 O77 1.976 . S
Fe66 O80 1.996 . S
Fe67 O68 1.918 . S
Fe67 O75 1.997 . S
Fe67 O78 1.996 . S
Fe67 O82 1.976 . S
Fe67 O85 2.002 . S
O68 Fe66 1.918 . S
O68 Fe67 1.918 . S
O68 Fe69 1.918 . S
Fe69 O68 1.918 . S
Fe69 O70 2.002 . S
Fe69 O79 1.976 . S
Fe69 O83 1.996 . S
Fe69 O86 1.997 . S
O70 Fe69 2.002 . S
O70 C87 1.295 . S
O71 Fe66 1.997 . S
O71 C87 1.235 . S
O72 Fe66 2.002 . S
O72 C73 1.295 . S
C73 O72 1.295 . S
C73 O75 1.235 . S
C74 O79 1.287 . S
C74 O80 1.255 . S
O75 Fe67 1.997 . S
O75 C73 1.235 . S
C76 O82 1.287 . S
C76 O83 1.255 . S
O77 Fe66 1.976 . S
O77 C84 1.287 . S
O78 Fe67 1.996 . S
O78 C84 1.255 . S
O79 Fe69 1.976 . S
O79 C74 1.287 . S
O80 Fe66 1.996 . S
O80 C74 1.255 . S
C81 O85 1.295 . S
C81 O86 1.235 . S
O82 Fe67 1.976 . S
O82 C76 1.287 . S
O83 Fe69 1.996 . S
O83 C76 1.255 . S
C84 O77 1.287 . S
C84 O78 1.255 . S
O85 Fe67 2.002 . S
O85 C81 1.295 . S
O86 Fe69 1.997 . S
O86 C81 1.235 . S
C87 O70 1.295 . S
C87 O71 1.235 . S
H88 C91 0.931 . S
H89 C94 0.928 . S
H90 C96 0.930 . S
C91 H88 0.931 . S
C91 C92 1.413 . S
C91 C93 1.360 . S
C92 C91 1.413 . S
C92 C96 1.429 . S
C93 C91 1.360 . S
C93 C94 1.372 . S
C94 H89 0.928 . S
C94 C93 1.372 . S
C94 C95 1.404 . S
C95 C94 1.404 . S
C95 C96 1.391 . S
C96 H90 0.930 . S
C96 C92 1.429 . S
C96 C95 1.391 . S
H97 C100 0.931 . S
H98 C103 0.928 . S
H99 C105 0.930 . S
C100 H97 0.931 . S
C100 C101 1.413 . S
C100 C102 1.360 . S
C101 C100 1.413 . S
C101 C105 1.429 . S
C102 C100 1.360 . S
C102 C103 1.372 . S
C103 H98 0.928 . S
C103 C102 1.372 . S
C103 C104 1.404 . S
C104 C103 1.404 . S
C104 C105 1.391 . S
C105 H99 0.930 . S
C105 C101 1.429 . S
C105 C104 1.391 . S
H106 C109 0.931 . S
H107 C112 0.928 . S
H108 C114 0.930 . S
C109 H106 0.931 . S
C109 C110 1.413 . S
C109 C111 1.360 . S
C110 C109 1.413 . S
C110 C114 1.429 . S
C111 C109 1.360 . S
C111 C112 1.372 . S
C112 H107 0.928 . S
C112 C111 1.372 . S
C112 C113 1.404 . S
C113 C112 1.404 . S
C113 C114 1.391 . S
C114 H108 0.930 . S
C114 C110 1.429 . S
C114 C113 1.391 . S
H115 C118 0.931 . S
H116 C121 0.928 . S
H117 C123 0.930 . S
C118 H115 0.931 . S
C118 C119 1.413 . S
C118 C120 1.360 . S
C119 C118 1.413 . S
C119 C123 1.429 . S
C120 C118 1.360 . S
C120 C121 1.372 . S
C121 H116 0.928 . S
C121 C120 1.372 . S
C121 C122 1.404 . S
C122 C121 1.404 . S
C122 C123 1.391 . S
C123 H117 0.930 . S
C123 C119 1.429 . S
C123 C122 1.391 . S
H124 C127 0.931 . S
H125 C130 0.928 . S
H126 C132 0.930 . S
C127 H124 0.931 . S
C127 C128 1.413 . S
C127 C129 1.360 . S
C128 C127 1.413 . S
C128 C132 1.429 . S
C129 C127 1.360 . S
C129 C130 1.372 . S
C130 H125 0.928 . S
C130 C129 1.372 . S
C130 C131 1.404 . S
C131 C130 1.404 . S
C131 C132 1.391 . S
C132 H126 0.930 . S
C132 C128 1.429 . S
C132 C131 1.391 . S
H133 C136 0.931 . S
H134 C139 0.928 . S
H135 C141 0.930 . S
C136 H133 0.931 . S
C136 C137 1.413 . S
C136 C138 1.360 . S
C137 C136 1.413 . S
C137 C141 1.429 . S
C138 C136 1.360 . S
C138 C139 1.372 . S
C139 H134 0.928 . S
C139 C138 1.372 . S
C139 C140 1.404 . S
C140 C139 1.404 . S
C140 C141 1.391 . S
C141 H135 0.930 . S
C141 C137 1.429 . S
C141 C140 1.391 . S
H142 C145 0.931 . S
H143 C148 0.928 . S
H144 C150 0.930 . S
C145 H142 0.931 . S
C145 C146 1.413 . S
C145 C147 1.360 . S
C146 C145 1.413 . S
C146 C150 1.429 . S
C147 C145 1.360 . S
C147 C148 1.372 . S
C148 H143 0.928 . S
C148 C147 1.372 . S
C148 C149 1.404 . S
C149 C148 1.404 . S
C149 C150 1.391 . S
C150 H144 0.930 . S
C150 C146 1.429 . S
C150 C149 1.391 . S
H151 C154 0.931 . S
H152 C157 0.928 . S
H153 C159 0.930 . S
C154 H151 0.931 . S
C154 C155 1.413 . S
C154 C156 1.360 . S
C155 C154 1.413 . S
C155 C159 1.429 . S
C156 C154 1.360 . S
C156 C157 1.372 . S
C157 H152 0.928 . S
C157 C156 1.372 . S
C157 C158 1.404 . S
C158 C157 1.404 . S
C158 C159 1.391 . S
C159 H153 0.930 . S
C159 C155 1.429 . S
C159 C158 1.391 . S
H160 C166 0.930 . S
H161 C169 0.930 . S
H162 C170 0.930 . S
H163 C171 0.930 . S
H164 C174 0.930 . S
H165 C175 0.930 . S
C166 H160 0.930 . S
C166 C167 1.355 . S
C166 C168 1.415 1_565 S
C167 C166 1.355 . S
C167 C169 1.419 . S
C168 C166 1.415 1_545 S
C168 C173 1.425 1_545 S
C168 C175 1.409 . S
C169 H161 0.930 . S
C169 C167 1.419 . S
C169 C170 1.362 . S
C170 H162 0.930 . S
C170 C169 1.362 . S
C170 C173 1.409 . S
C171 H163 0.930 . S
C171 C172 1.355 . S
C171 C173 1.415 1_545 S
C172 C171 1.355 . S
C172 C174 1.419 . S
C173 C168 1.425 1_565 S
C173 C170 1.409 . S
C173 C171 1.415 1_565 S
C174 H164 0.930 . S
C174 C172 1.419 . S
C174 C175 1.362 . S
C175 H165 0.930 . S
C175 C168 1.409 . S
C175 C174 1.362 . S
H176 C182 0.930 . S
H177 C185 0.930 . S
H178 C186 0.930 . S
H179 C187 0.930 . S
H180 C190 0.930 . S
H181 C191 0.930 . S
C182 H176 0.930 . S
C182 C183 1.355 . S
C182 C184 1.415 . S
C183 C182 1.355 . S
C183 C185 1.419 . S
C184 C182 1.415 . S
C184 C189 1.425 . S
C184 C191 1.409 . S
C185 H177 0.930 . S
C185 C183 1.419 . S
C185 C186 1.362 . S
C186 H178 0.930 . S
C186 C185 1.362 . S
C186 C189 1.409 . S
C187 H179 0.930 . S
C187 C188 1.355 . S
C187 C189 1.415 . S
C188 C187 1.355 . S
C188 C190 1.419 . S
C189 C184 1.425 . S
C189 C186 1.409 . S
C189 C187 1.415 . S
C190 H180 0.930 . S
C190 C188 1.419 . S
C190 C191 1.362 . S
C191 H181 0.930 . S
C191 C184 1.409 . S
C191 C190 1.362 . S
H192 C198 0.930 . S
H193 C201 0.930 . S
H194 C202 0.930 . S
H195 C203 0.930 . S
H196 C206 0.930 . S
H197 C207 0.930 . S
C198 H192 0.930 . S
C198 C199 1.355 . S
C198 C200 1.415 1_545 S
C199 C198 1.355 . S
C199 C201 1.419 . S
C200 C198 1.415 1_565 S
C200 C205 1.425 . S
C200 C207 1.409 . S
C201 H193 0.930 . S
C201 C199 1.419 . S
C201 C202 1.362 . S
C202 H194 0.930 . S
C202 C201 1.362 . S
C202 C205 1.409 1_545 S
C203 H195 0.930 . S
C203 C204 1.355 . S
C203 C205 1.415 . S
C204 C203 1.355 . S
C204 C206 1.419 . S
C205 C200 1.425 . S
C205 C202 1.409 1_565 S
C205 C203 1.415 . S
C206 H196 0.930 . S
C206 C204 1.419 . S
C206 C207 1.362 . S
C207 H197 0.930 . S
C207 C200 1.409 . S
C207 C206 1.362 . S
H208 C214 0.930 . S
H209 C217 0.930 . S
H210 C218 0.930 . S
H211 C219 0.930 . S
H212 C222 0.930 . S
H213 C223 0.930 . S
C214 H208 0.930 . S
C214 C215 1.355 . S
C214 C216 1.415 . S
C215 C214 1.355 . S
C215 C217 1.419 . S
C216 C214 1.415 . S
C216 C221 1.425 . S
C216 C223 1.409 . S
C217 H209 0.930 . S
C217 C215 1.419 . S
C217 C218 1.362 . S
C218 H210 0.930 . S
C218 C217 1.362 . S
C218 C221 1.409 . S
C219 H211 0.930 . S
C219 C220 1.355 . S
C219 C221 1.415 . S
C220 C219 1.355 . S
C220 C222 1.419 . S
C221 C216 1.425 . S
C221 C218 1.409 . S
C221 C219 1.415 . S
C222 H212 0.930 . S
C222 C220 1.419 . S
C222 C223 1.362 . S
C223 H213 0.930 . S
C223 C216 1.409 . S
C223 C222 1.362 . S
H224 C230 0.930 . S
H225 C233 0.930 . S
H226 C234 0.930 . S
H227 C235 0.930 . S
H228 C238 0.930 . S
H229 C239 0.930 . S
C230 H224 0.930 . S
C230 C231 1.355 . S
C230 C232 1.415 . S
C231 C230 1.355 . S
C231 C233 1.419 . S
C232 C230 1.415 . S
C232 C237 1.425 . S
C232 C239 1.409 . S
C233 H225 0.930 . S
C233 C231 1.419 . S
C233 C234 1.362 . S
C234 H226 0.930 . S
C234 C233 1.362 . S
C234 C237 1.409 . S
C235 H227 0.930 . S
C235 C236 1.355 . S
C235 C237 1.415 . S
C236 C235 1.355 . S
C236 C238 1.419 . S
C237 C232 1.425 . S
C237 C234 1.409 . S
C237 C235 1.415 . S
C238 H228 0.930 . S
C238 C236 1.419 . S
C238 C239 1.362 . S
C239 H229 0.930 . S
C239 C232 1.409 . S
C239 C238 1.362 . S
H240 C246 0.930 1_554 S
H241 C249 0.930 . S
H242 C250 0.930 . S
H243 C251 0.930 . S
H244 C254 0.930 1_554 S
H245 C255 0.930 . S
C246 H240 0.930 1_556 S
C246 C247 1.355 1_455 S
C246 C248 1.415 . S
C247 C246 1.355 1_655 S
C247 C249 1.419 . S
C248 C246 1.415 . S
C248 C253 1.425 . S
C248 C255 1.409 1_556 S
C249 H241 0.930 . S
C249 C247 1.419 . S
C249 C250 1.362 1_655 S
C250 H242 0.930 . S
C250 C249 1.362 1_455 S
C250 C253 1.409 . S
C251 H243 0.930 . S
C251 C252 1.355 . S
C251 C253 1.415 . S
C252 C251 1.355 . S
C252 C254 1.419 . S
C253 C248 1.425 . S
C253 C250 1.409 . S
C253 C251 1.415 . S
C254 H244 0.930 1_556 S
C254 C252 1.419 . S
C254 C255 1.362 1_556 S
C255 H245 0.930 . S
C255 C248 1.409 1_554 S
C255 C254 1.362 1_554 S
H256 C262 0.930 . S
H257 C265 0.930 . S
H258 C266 0.930 . S
H259 C267 0.930 . S
H260 C270 0.930 . S
H261 C271 0.930 . S
C262 H256 0.930 . S
C262 C263 1.355 . S
C262 C264 1.415 . S
C263 C262 1.355 . S
C263 C265 1.419 . S
C264 C262 1.415 . S
C264 C269 1.425 . S
C264 C271 1.409 . S
C265 H257 0.930 . S
C265 C263 1.419 . S
C265 C266 1.362 . S
C266 H258 0.930 . S
C266 C265 1.362 . S
C266 C269 1.409 . S
C267 H259 0.930 . S
C267 C268 1.355 . S
C267 C269 1.415 . S
C268 C267 1.355 . S
C268 C270 1.419 . S
C269 C264 1.425 . S
C269 C266 1.409 . S
C269 C267 1.415 . S
C270 H260 0.930 . S
C270 C268 1.419 . S
C270 C271 1.362 . S
C271 H261 0.930 . S
C271 C264 1.409 . S
C271 C270 1.362 . S
H272 C278 0.930 . S
H273 C281 0.930 . S
H274 C282 0.930 1_655 S
H275 C283 0.930 . S
H276 C286 0.930 . S
H277 C287 0.930 . S
C278 H272 0.930 . S
C278 C279 1.355 . S
C278 C280 1.415 . S
C279 C278 1.355 . S
C279 C281 1.419 . S
C280 C278 1.415 . S
C280 C285 1.425 . S
C280 C287 1.409 . S
C281 H273 0.930 . S
C281 C279 1.419 . S
C281 C282 1.362 . S
C282 H274 0.930 1_455 S
C282 C281 1.362 . S
C282 C285 1.409 . S
C283 H275 0.930 . S
C283 C284 1.355 . S
C283 C285 1.415 1_655 S
C284 C283 1.355 . S
C284 C286 1.419 1_655 S
C285 C280 1.425 . S
C285 C282 1.409 . S
C285 C283 1.415 1_455 S
C286 H276 0.930 . S
C286 C284 1.419 1_455 S
C286 C287 1.362 . S
C287 H277 0.930 . S
C287 C280 1.409 . S
C287 C286 1.362 . S
H288 C294 0.930 . S
H289 C297 0.930 . S
H290 C298 0.930 . S
H291 C299 0.930 . S
H292 C302 0.930 . S
H293 C303 0.930 . S
C294 H288 0.930 . S
C294 C295 1.355 . S
C294 C296 1.406 1_545 S
C295 C294 1.355 . S
C295 C297 1.419 . S
C296 C294 1.406 1_565 S
C296 C301 1.422 1_565 S
C296 C303 1.419 . S
C297 H289 0.930 . S
C297 C295 1.419 . S
C297 C298 1.362 . S
C298 H290 0.930 . S
C298 C297 1.362 . S
C298 C301 1.427 . S
C299 H291 0.930 . S
C299 C300 1.355 . S
C299 C301 1.399 1_565 S
C300 C299 1.355 . S
C300 C302 1.419 . S
C301 C296 1.422 1_545 S
C301 C298 1.427 . S
C301 C299 1.399 1_545 S
C302 H292 0.930 . S
C302 C300 1.419 . S
C302 C303 1.362 . S
C303 H293 0.930 . S
C303 C296 1.419 . S
C303 C302 1.362 . S
H304 C310 0.930 . S
H305 C313 0.930 . S
H306 C314 0.930 . S
H307 C315 0.930 . S
H308 C318 0.930 . S
H309 C319 0.930 . S
C310 H304 0.930 . S
C310 C311 1.355 . S
C310 C312 1.415 . S
C311 C310 1.355 . S
C311 C313 1.419 . S
C312 C310 1.415 . S
C312 C317 1.425 . S
C312 C319 1.409 . S
C313 H305 0.930 . S
C313 C311 1.419 . S
C313 C314 1.362 . S
C314 H306 0.930 . S
C314 C313 1.362 . S
C314 C317 1.409 . S
C315 H307 0.930 . S
C315 C316 1.355 . S
C315 C317 1.415 . S
C316 C315 1.355 . S
C316 C318 1.419 . S
C317 C312 1.425 . S
C317 C314 1.409 . S
C317 C315 1.415 . S
C318 H308 0.930 . S
C318 C316 1.419 . S
C318 C319 1.362 . S
C319 H309 0.930 . S
C319 C312 1.409 . S
C319 C318 1.362 . S
H320 C326 0.930 . S
H321 C329 0.930 . S
H322 C330 0.930 . S
H323 C331 0.930 . S
H324 C334 0.930 1_554 S
H325 C335 0.930 . S
C326 H320 0.930 . S
C326 C327 1.355 . S
C326 C328 1.419 1_565 S
C327 C326 1.355 . S
C327 C329 1.419 1_554 S
C328 C326 1.419 1_545 S
C328 C333 1.420 1_554 S
C328 C335 1.411 . S
C329 H321 0.930 . S
C329 C327 1.419 1_556 S
C329 C330 1.362 . S
C330 H322 0.930 . S
C330 C329 1.362 . S
C330 C333 1.409 1_565 S
C331 H323 0.930 . S
C331 C332 1.355 . S
C331 C333 1.415 . S
C332 C331 1.355 . S
C332 C334 1.419 . S
C333 C328 1.420 1_556 S
C333 C330 1.409 1_545 S
C333 C331 1.415 . S
C334 H324 0.930 1_556 S
C334 C332 1.419 . S
C334 C335 1.362 1_556 S
C335 H325 0.930 . S
C335 C328 1.411 . S
C335 C334 1.362 1_554 S
H336 C342 0.930 . S
H337 C345 0.930 . S
H338 C346 0.930 . S
H339 C347 0.930 . S
H340 C350 0.930 . S
H341 C351 0.930 . S
C342 H336 0.930 . S
C342 C343 1.355 . S
C342 C344 1.415 . S
C343 C342 1.355 . S
C343 C345 1.419 . S
C344 C342 1.415 . S
C344 C349 1.425 . S
C344 C351 1.409 . S
C345 H337 0.930 . S
C345 C343 1.419 . S
C345 C346 1.362 . S
C346 H338 0.930 . S
C346 C345 1.362 . S
C346 C349 1.409 . S
C347 H339 0.930 . S
C347 C348 1.355 . S
C347 C349 1.415 . S
C348 C347 1.355 . S
C348 C350 1.419 . S
C349 C344 1.425 . S
C349 C346 1.409 . S
C349 C347 1.415 . S
C350 H340 0.930 . S
C350 C348 1.419 . S
C350 C351 1.362 . S
C351 H341 0.930 . S
C351 C344 1.409 . S
C351 C350 1.362 . S
H352 C358 0.930 . S
H353 C361 0.930 . S
H354 C362 0.930 . S
H355 C363 0.930 . S
H356 C366 0.930 . S
H357 C367 0.930 . S
C358 H352 0.930 . S
C358 C359 1.355 . S
C358 C360 1.415 . S
C359 C358 1.355 . S
C359 C361 1.419 . S
C360 C358 1.415 . S
C360 C365 1.425 . S
C360 C367 1.409 . S
C361 H353 0.930 . S
C361 C359 1.419 . S
C361 C362 1.362 . S
C362 H354 0.930 . S
C362 C361 1.362 . S
C362 C365 1.409 . S
C363 H355 0.930 . S
C363 C364 1.355 . S
C363 C365 1.415 . S
C364 C363 1.355 . S
C364 C366 1.419 . S
C365 C360 1.425 . S
C365 C362 1.409 . S
C365 C363 1.415 . S
C366 H356 0.930 . S
C366 C364 1.419 . S
C366 C367 1.362 . S
C367 H357 0.930 . S
C367 C360 1.409 . S
C367 C366 1.362 . S
H368 C374 0.930 1_455 S
H369 C377 0.930 1_455 S
H370 C378 0.930 . S
H371 C379 0.930 . S
H372 C382 0.930 . S
H373 C383 0.930 . S
C374 H368 0.930 1_655 S
C374 C375 1.355 1_655 S
C374 C376 1.415 . S
C375 C374 1.355 1_455 S
C375 C377 1.419 1_455 S
C376 C374 1.415 . S
C376 C381 1.425 . S
C376 C383 1.409 . S
C377 H369 0.930 1_655 S
C377 C375 1.419 1_655 S
C377 C378 1.362 . S
C378 H370 0.930 . S
C378 C377 1.362 . S
C378 C381 1.409 . S
C379 H371 0.930 . S
C379 C380 1.355 . S
C379 C381 1.415 . S
C380 C379 1.355 . S
C380 C382 1.419 . S
C381 C376 1.425 . S
C381 C378 1.409 . S
C381 C379 1.415 . S
C382 H372 0.930 . S
C382 C380 1.419 . S
C382 C383 1.362 . S
C383 H373 0.930 . S
C383 C376 1.409 . S
C383 C382 1.362 . S
H384 C390 0.930 . S
H385 C393 0.930 . S
H386 C394 0.930 . S
H387 C395 0.930 . S
H388 C398 0.930 . S
H389 C399 0.930 . S
C390 H384 0.930 . S
C390 C391 1.355 . S
C390 C392 1.415 . S
C391 C390 1.355 . S
C391 C393 1.419 . S
C392 C390 1.415 . S
C392 C397 1.425 . S
C392 C399 1.409 . S
C393 H385 0.930 . S
C393 C391 1.419 . S
C393 C394 1.362 . S
C394 H386 0.930 . S
C394 C393 1.362 . S
C394 C397 1.409 . S
C395 H387 0.930 . S
C395 C396 1.355 . S
C395 C397 1.415 . S
C396 C395 1.355 . S
C396 C398 1.419 . S
C397 C392 1.425 . S
C397 C394 1.409 . S
C397 C395 1.415 . S
C398 H388 0.930 . S
C398 C396 1.419 . S
C398 C399 1.362 . S
C399 H389 0.930 . S
C399 C392 1.409 . S
C399 C398 1.362 . S
H400 C406 0.930 . S
H401 C409 0.930 . S
H402 C410 0.930 . S
H403 C411 0.930 . S
H404 C414 0.930 . S
H405 C415 0.930 . S
C406 H400 0.930 . S
C406 C407 1.355 . S
C406 C408 1.415 . S
C407 C406 1.355 . S
C407 C409 1.419 . S
C408 C406 1.415 . S
C408 C413 1.425 . S
C408 C415 1.409 1_655 S
C409 H401 0.930 . S
C409 C407 1.419 . S
C409 C410 1.362 . S
C410 H402 0.930 . S
C410 C409 1.362 . S
C410 C413 1.409 . S
C411 H403 0.930 . S
C411 C412 1.355 1_655 S
C411 C413 1.415 . S
C412 C411 1.355 1_455 S
C412 C414 1.419 . S
C413 C408 1.425 . S
C413 C410 1.409 . S
C413 C411 1.415 . S
C414 H404 0.930 . S
C414 C412 1.419 . S
C414 C415 1.362 . S
C415 H405 0.930 . S
C415 C408 1.409 1_455 S
C415 C414 1.362 . S
H416 C422 0.930 . S
H417 C425 0.930 . S
H418 C426 0.930 . S
H419 C427 0.930 . S
H420 C430 0.930 . S
H421 C431 0.930 . S
C422 H416 0.930 . S
C422 C423 1.355 . S
C422 C424 1.415 . S
C423 C422 1.355 . S
C423 C425 1.419 . S
C424 C422 1.415 . S
C424 C429 1.425 . S
C424 C431 1.409 . S
C425 H417 0.930 . S
C425 C423 1.419 . S
C425 C426 1.362 . S
C426 H418 0.930 . S
C426 C425 1.362 . S
C426 C429 1.409 . S
C427 H419 0.930 . S
C427 C428 1.355 . S
C427 C429 1.415 . S
C428 C427 1.355 . S
C428 C430 1.419 . S
C429 C424 1.425 . S
C429 C426 1.409 . S
C429 C427 1.415 . S
C430 H420 0.930 . S
C430 C428 1.419 . S
C430 C431 1.362 . S
C431 H421 0.930 . S
C431 C424 1.409 . S
C431 C430 1.362 . S
H432 C438 0.930 . S
H433 C441 0.930 . S
H434 C442 0.930 . S
H435 C443 0.930 . S
H436 C446 0.930 . S
H437 C447 0.930 . S
C438 H432 0.930 . S
C438 C439 1.355 . S
C438 C440 1.415 . S
C439 C438 1.355 . S
C439 C441 1.419 . S
C440 C438 1.415 . S
C440 C445 1.425 . S
C440 C447 1.409 . S
C441 H433 0.930 . S
C441 C439 1.419 . S
C441 C442 1.362 . S
C442 H434 0.930 . S
C442 C441 1.362 . S
C442 C445 1.409 . S
C443 H435 0.930 . S
C443 C444 1.355 . S
C443 C445 1.415 . S
C444 C443 1.355 . S
C444 C446 1.419 . S
C445 C440 1.425 . S
C445 C442 1.409 . S
C445 C443 1.415 . S
C446 H436 0.930 . S
C446 C444 1.419 . S
C446 C447 1.362 . S
C447 H437 0.930 . S
C447 C440 1.409 . S
C447 C446 1.362 . S
H448 C454 0.930 . S
H449 C457 0.930 . S
H450 C458 0.930 . S
H451 C459 0.930 . S
H452 C462 0.930 . S
H453 C463 0.930 . S
C454 H448 0.930 . S
C454 C455 1.355 . S
C454 C456 1.415 . S
C455 C454 1.355 . S
C455 C457 1.419 . S
C456 C454 1.415 . S
C456 C461 1.425 . S
C456 C463 1.409 . S
C457 H449 0.930 . S
C457 C455 1.419 . S
C457 C458 1.362 . S
C458 H450 0.930 . S
C458 C457 1.362 . S
C458 C461 1.409 . S
C459 H451 0.930 . S
C459 C460 1.355 . S
C459 C461 1.415 . S
C460 C459 1.355 . S
C460 C462 1.419 . S
C461 C456 1.425 . S
C461 C458 1.409 . S
C461 C459 1.415 . S
C462 H452 0.930 . S
C462 C460 1.419 . S
C462 C463 1.362 . S
C463 H453 0.930 . S
C463 C456 1.409 . S
C463 C462 1.362 . S
H464 C470 0.930 . S
H465 C473 0.930 . S
H466 C474 0.930 . S
H467 C475 0.930 . S
H468 C478 0.930 . S
H469 C479 0.930 . S
C470 H464 0.930 . S
C470 C471 1.355 . S
C470 C472 1.415 . S
C471 C470 1.355 . S
C471 C473 1.419 . S
C472 C470 1.415 . S
C472 C477 1.425 . S
C472 C479 1.409 . S
C473 H465 0.930 . S
C473 C471 1.419 . S
C473 C474 1.362 . S
C474 H466 0.930 . S
C474 C473 1.362 . S
C474 C477 1.409 . S
C475 H467 0.930 . S
C475 C476 1.355 . S
C475 C477 1.415 . S
C476 C475 1.355 . S
C476 C478 1.419 . S
C477 C472 1.425 . S
C477 C474 1.409 . S
C477 C475 1.415 . S
C478 H468 0.930 . S
C478 C476 1.419 . S
C478 C479 1.362 . S
C479 H469 0.930 . S
C479 C472 1.409 . S
C479 C478 1.362 . S
H480 C486 0.930 . S
H481 C489 0.930 . S
H482 C490 0.930 . S
H483 C491 0.930 . S
H484 C494 0.930 . S
H485 C495 0.930 . S
C486 H480 0.930 . S
C486 C487 1.355 . S
C486 C488 1.415 . S
C487 C486 1.355 . S
C487 C489 1.419 . S
C488 C486 1.415 . S
C488 C493 1.425 . S
C488 C495 1.409 . S
C489 H481 0.930 . S
C489 C487 1.419 . S
C489 C490 1.362 . S
C490 H482 0.930 . S
C490 C489 1.362 . S
C490 C493 1.409 . S
C491 H483 0.930 . S
C491 C492 1.355 . S
C491 C493 1.415 . S
C492 C491 1.355 . S
C492 C494 1.419 . S
C493 C488 1.425 . S
C493 C490 1.409 . S
C493 C491 1.415 . S
C494 H484 0.930 . S
C494 C492 1.419 . S
C494 C495 1.362 . S
C495 H485 0.930 . S
C495 C488 1.409 . S
C495 C494 1.362 . S
H496 C502 0.930 . S
H497 C505 0.930 . S
H498 C506 0.930 . S
H499 C507 0.930 . S
H500 C510 0.930 . S
H501 C511 0.930 . S
C502 H496 0.930 . S
C502 C503 1.355 . S
C502 C504 1.415 . S
C503 C502 1.355 . S
C503 C505 1.419 . S
C504 C502 1.415 . S
C504 C509 1.425 . S
C504 C511 1.409 . S
C505 H497 0.930 . S
C505 C503 1.419 . S
C505 C506 1.362 . S
C506 H498 0.930 . S
C506 C505 1.362 . S
C506 C509 1.409 . S
C507 H499 0.930 . S
C507 C508 1.355 . S
C507 C509 1.415 . S
C508 C507 1.355 . S
C508 C510 1.419 . S
C509 C504 1.425 . S
C509 C506 1.409 . S
C509 C507 1.415 . S
C510 H500 0.930 . S
C510 C508 1.419 . S
C510 C511 1.362 . S
C511 H501 0.930 . S
C511 C504 1.409 . S
C511 C510 1.362 . S
H512 C518 0.930 . S
H513 C521 0.930 . S
H514 C522 0.930 . S
H515 C523 0.930 . S
H516 C526 0.930 . S
H517 C527 0.930 . S
C518 H512 0.930 . S
C518 C519 1.355 . S
C518 C520 1.415 . S
C519 C518 1.355 . S
C519 C521 1.419 . S
C520 C518 1.415 . S
C520 C525 1.425 . S
C520 C527 1.409 . S
C521 H513 0.930 . S
C521 C519 1.419 . S
C521 C522 1.362 . S
C522 H514 0.930 . S
C522 C521 1.362 . S
C522 C525 1.409 . S
C523 H515 0.930 . S
C523 C524 1.355 . S
C523 C525 1.415 . S
C524 C523 1.355 . S
C524 C526 1.419 . S
C525 C520 1.425 . S
C525 C522 1.409 . S
C525 C523 1.415 . S
C526 H516 0.930 . S
C526 C524 1.419 . S
C526 C527 1.362 . S
C527 H517 0.930 . S
C527 C520 1.409 . S
C527 C526 1.362 . S
H528 C534 0.930 1_554 S
H529 C537 0.930 . S
H530 C538 0.930 . S
H531 C539 0.930 . S
H532 C542 0.930 . S
H533 C543 0.930 . S
C534 H528 0.930 1_556 S
C534 C535 1.354 1_556 S
C534 C536 1.415 . S
C535 C534 1.354 1_554 S
C535 C537 1.411 1_554 S
C536 C534 1.415 . S
C536 C541 1.425 . S
C536 C543 1.409 . S
C537 H529 0.930 . S
C537 C535 1.411 1_556 S
C537 C538 1.362 . S
C538 H530 0.930 . S
C538 C537 1.362 . S
C538 C541 1.409 . S
C539 H531 0.930 . S
C539 C540 1.355 . S
C539 C541 1.415 . S
C540 C539 1.355 . S
C540 C542 1.419 . S
C541 C536 1.425 . S
C541 C538 1.409 . S
C541 C539 1.415 . S
C542 H532 0.930 . S
C542 C540 1.419 . S
C542 C543 1.362 . S
C543 H533 0.930 . S
C543 C536 1.409 . S
C543 C542 1.362 . S
C167 C7 1.433 . S
C172 C93 1.375 . S
C183 C37 1.323 . S
C188 C101 1.240 . S
C199 C54 1.408 . S
C204 C110 1.356 . S
C220 C120 1.405 . S
C215 C87 1.431 . S
C236 C129 1.341 . S
C231 C30 1.395 . S
C247 C51 1.430 . S
C252 C138 1.440 . S
C263 C84 1.407 . S
C268 C146 1.415 . S
C279 C10 1.253 . S
C284 C156 1.291 . S
C295 C59 1.446 . S
C300 C155 1.391 . S
C316 C128 1.237 . S
C311 C74 1.282 . S
C332 C137 1.365 . S
C327 C18 1.440 . S
C343 C32 1.389 . S
C348 C147 1.416 . S
C364 C102 1.402 . S
C359 C73 1.412 . S
C375 C15 1.382 . S
C380 C111 1.392 . S
C396 C119 1.367 . S
C391 C43 1.426 . S
C412 C92 1.229 . S
C407 C62 1.273 . S
C428 C149 1.378 . S
C423 C21 1.446 . S
C444 C158 1.332 . S
C439 C29 1.333 . S
C455 C52 1.295 . S
C460 C131 1.257 . S
C476 C140 1.428 . S
C471 C81 1.435 . S
C492 C113 1.363 . S
C487 C40 1.413 . S
C503 C65 1.427 . S
C508 C122 1.421 . S
C524 C95 1.307 . S
C519 C76 1.298 . S
C540 C104 1.291 . S
C535 C8 1.333 . S
