# Generated by pormake.
# Topology ctn, (3,4)-cn, num edge types: 1
# Building blocks:
#     Node 0, Type 0, BuildingBlock: QEWDON_clean_linker_0, # of connection points: 3
#     Node 1, Type 0, BuildingBlock: QEWDON_clean_linker_0, # of connection points: 3
#     Node 2, Type 0, BuildingBlock: QEWDON_clean_linker_0, # of connection points: 3
#     Node 3, Type 0, BuildingBlock: QEWDON_clean_linker_0, # of connection points: 3
#     Node 4, Type 0, BuildingBlock: QEWDON_clean_linker_0, # of connection points: 3
#     Node 5, Type 0, BuildingBlock: QEWDON_clean_linker_0, # of connection points: 3
#     Node 6, Type 0, BuildingBlock: QEWDON_clean_linker_0, # of connection points: 3
#     Node 7, Type 0, BuildingBlock: QEWDON_clean_linker_0, # of connection points: 3
#     Node 8, Type 0, BuildingBlock: QEWDON_clean_linker_0, # of connection points: 3
#     Node 9, Type 0, BuildingBlock: QEWDON_clean_linker_0, # of connection points: 3
#     Node 10, Type 0, BuildingBlock: QEWDON_clean_linker_0, # of connection points: 3
#     Node 11, Type 0, BuildingBlock: QEWDON_clean_linker_0, # of connection points: 3
#     Node 12, Type 0, BuildingBlock: QEWDON_clean_linker_0, # of connection points: 3
#     Node 13, Type 0, BuildingBlock: QEWDON_clean_linker_0, # of connection points: 3
#     Node 14, Type 0, BuildingBlock: QEWDON_clean_linker_0, # of connection points: 3
#     Node 15, Type 0, BuildingBlock: QEWDON_clean_linker_0, # of connection points: 3
#     Node 16, Type 1, BuildingBlock: UXUYUI_clean_sbu_0, # of connection points: 4
#     Node 17, Type 1, BuildingBlock: UXUYUI_clean_sbu_0, # of connection points: 4
#     Node 18, Type 1, BuildingBlock: UXUYUI_clean_sbu_0, # of connection points: 4
#     Node 19, Type 1, BuildingBlock: UXUYUI_clean_sbu_0, # of connection points: 4
#     Node 20, Type 1, BuildingBlock: UXUYUI_clean_sbu_0, # of connection points: 4
#     Node 21, Type 1, BuildingBlock: UXUYUI_clean_sbu_0, # of connection points: 4
#     Node 22, Type 1, BuildingBlock: UXUYUI_clean_sbu_0, # of connection points: 4
#     Node 23, Type 1, BuildingBlock: UXUYUI_clean_sbu_0, # of connection points: 4
#     Node 24, Type 1, BuildingBlock: UXUYUI_clean_sbu_0, # of connection points: 4
#     Node 25, Type 1, BuildingBlock: UXUYUI_clean_sbu_0, # of connection points: 4
#     Node 26, Type 1, BuildingBlock: UXUYUI_clean_sbu_0, # of connection points: 4
#     Node 27, Type 1, BuildingBlock: UXUYUI_clean_sbu_0, # of connection points: 4
#     Edge 28, Type (0, 1), BuildingBlock: CIFDUS_clean_linker_0, # of connection points: 2
#     Edge 29, Type (0, 1), BuildingBlock: CIFDUS_clean_linker_0, # of connection points: 2
#     Edge 30, Type (0, 1), BuildingBlock: CIFDUS_clean_linker_0, # of connection points: 2
#     Edge 31, Type (0, 1), BuildingBlock: CIFDUS_clean_linker_0, # of connection points: 2
#     Edge 32, Type (0, 1), BuildingBlock: CIFDUS_clean_linker_0, # of connection points: 2
#     Edge 33, Type (0, 1), BuildingBlock: CIFDUS_clean_linker_0, # of connection points: 2
#     Edge 34, Type (0, 1), BuildingBlock: CIFDUS_clean_linker_0, # of connection points: 2
#     Edge 35, Type (0, 1), BuildingBlock: CIFDUS_clean_linker_0, # of connection points: 2
#     Edge 36, Type (0, 1), BuildingBlock: CIFDUS_clean_linker_0, # of connection points: 2
#     Edge 37, Type (0, 1), BuildingBlock: CIFDUS_clean_linker_0, # of connection points: 2
#     Edge 38, Type (0, 1), BuildingBlock: CIFDUS_clean_linker_0, # of connection points: 2
#     Edge 39, Type (0, 1), BuildingBlock: CIFDUS_clean_linker_0, # of connection points: 2
#     Edge 40, Type (0, 1), BuildingBlock: CIFDUS_clean_linker_0, # of connection points: 2
#     Edge 41, Type (0, 1), BuildingBlock: CIFDUS_clean_linker_0, # of connection points: 2
#     Edge 42, Type (0, 1), BuildingBlock: CIFDUS_clean_linker_0, # of connection points: 2
#     Edge 43, Type (0, 1), BuildingBlock: CIFDUS_clean_linker_0, # of connection points: 2
#     Edge 44, Type (0, 1), BuildingBlock: CIFDUS_clean_linker_0, # of connection points: 2
#     Edge 45, Type (0, 1), BuildingBlock: CIFDUS_clean_linker_0, # of connection points: 2
#     Edge 46, Type (0, 1), BuildingBlock: CIFDUS_clean_linker_0, # of connection points: 2
#     Edge 47, Type (0, 1), BuildingBlock: CIFDUS_clean_linker_0, # of connection points: 2
#     Edge 48, Type (0, 1), BuildingBlock: CIFDUS_clean_linker_0, # of connection points: 2
#     Edge 49, Type (0, 1), BuildingBlock: CIFDUS_clean_linker_0, # of connection points: 2
#     Edge 50, Type (0, 1), BuildingBlock: CIFDUS_clean_linker_0, # of connection points: 2
#     Edge 51, Type (0, 1), BuildingBlock: CIFDUS_clean_linker_0, # of connection points: 2
#     Edge 52, Type (0, 1), BuildingBlock: CIFDUS_clean_linker_0, # of connection points: 2
#     Edge 53, Type (0, 1), BuildingBlock: CIFDUS_clean_linker_0, # of connection points: 2
#     Edge 54, Type (0, 1), BuildingBlock: CIFDUS_clean_linker_0, # of connection points: 2
#     Edge 55, Type (0, 1), BuildingBlock: CIFDUS_clean_linker_0, # of connection points: 2
#     Edge 56, Type (0, 1), BuildingBlock: CIFDUS_clean_linker_0, # of connection points: 2
#     Edge 57, Type (0, 1), BuildingBlock: CIFDUS_clean_linker_0, # of connection points: 2
#     Edge 58, Type (0, 1), BuildingBlock: CIFDUS_clean_linker_0, # of connection points: 2
#     Edge 59, Type (0, 1), BuildingBlock: CIFDUS_clean_linker_0, # of connection points: 2
#     Edge 60, Type (0, 1), BuildingBlock: CIFDUS_clean_linker_0, # of connection points: 2
#     Edge 61, Type (0, 1), BuildingBlock: CIFDUS_clean_linker_0, # of connection points: 2
#     Edge 62, Type (0, 1), BuildingBlock: CIFDUS_clean_linker_0, # of connection points: 2
#     Edge 63, Type (0, 1), BuildingBlock: CIFDUS_clean_linker_0, # of connection points: 2
#     Edge 64, Type (0, 1), BuildingBlock: CIFDUS_clean_linker_0, # of connection points: 2
#     Edge 65, Type (0, 1), BuildingBlock: CIFDUS_clean_linker_0, # of connection points: 2
#     Edge 66, Type (0, 1), BuildingBlock: CIFDUS_clean_linker_0, # of connection points: 2
#     Edge 67, Type (0, 1), BuildingBlock: CIFDUS_clean_linker_0, # of connection points: 2
#     Edge 68, Type (0, 1), BuildingBlock: CIFDUS_clean_linker_0, # of connection points: 2
#     Edge 69, Type (0, 1), BuildingBlock: CIFDUS_clean_linker_0, # of connection points: 2
#     Edge 70, Type (0, 1), BuildingBlock: CIFDUS_clean_linker_0, # of connection points: 2
#     Edge 71, Type (0, 1), BuildingBlock: CIFDUS_clean_linker_0, # of connection points: 2
#     Edge 72, Type (0, 1), BuildingBlock: CIFDUS_clean_linker_0, # of connection points: 2
#     Edge 73, Type (0, 1), BuildingBlock: CIFDUS_clean_linker_0, # of connection points: 2
#     Edge 74, Type (0, 1), BuildingBlock: CIFDUS_clean_linker_0, # of connection points: 2
#     Edge 75, Type (0, 1), BuildingBlock: CIFDUS_clean_linker_0, # of connection points: 2
# Relax obj value: 0.117
# Max RMSD: 0.279
# Mean RMSD: 0.160
data_MOF--net-ctn--node1-UXUYUI_clean_sbu_0--node2-QEWDON_clean_linker_0--edge1-CIFDUS_clean_linker_0
_symmetry_space_group_name_H-M    P1
_symmetry_Int_Tables_number       1
_symmetry_cell_setting            triclinic
loop_
_symmetry_equiv_pos_as_xyz
'x, y, z'
_cell_length_a     58.360592
_cell_length_b     60.848756
_cell_length_c     64.703032
_cell_angle_alpha  97.659951
_cell_angle_beta   91.85931
_cell_angle_gamma 95.220446
loop_
_atom_site_label
_atom_site_type_symbol
_atom_site_fract_x
_atom_site_fract_y
_atom_site_fract_z
_atom_type_partial_charge
H0 H 0.10434 0.04945 0.06387 0.0
C1 C 0.09275 0.04566 0.07595 0.0
C2 C 0.09127 0.02441 0.08251 0.0
C3 C 0.08004 0.06238 0.08555 0.0
H4 H 0.07553 1.00388 0.10402 0.0
C5 C 0.07631 0.01994 0.09845 0.0
C6 C 0.0635 0.03658 0.1082 0.0
C7 C 0.06544 0.05766 0.10153 0.0
C8 C 0.08331 0.08547 0.0805 0.0
H9 H 0.05562 0.07062 0.10888 0.0
C10 C 0.07875 0.09046 0.06019 0.0
C11 C 0.07998 0.11283 0.0564 0.0
C12 C 0.08998 0.10292 0.09667 0.0
H13 H 0.09368 0.09944 0.11237 0.0
C14 C 0.09183 0.12497 0.0928 0.0
H15 H 0.0733 0.07714 0.04768 0.0
C16 C 0.08671 0.12994 0.07287 0.0
H17 H 0.08803 0.14724 0.07028 0.0
H18 H 0.09699 0.13828 0.10537 0.0
H19 H 0.35064 0.75205 0.25238 0.0
C20 C 0.3383 0.73745 0.2492 0.0
C21 C 0.34334 0.71737 0.256 0.0
C22 C 0.31727 0.739 0.23853 0.0
H23 H 0.3303 0.68348 0.25794 0.0
C24 C 0.32701 0.69873 0.25191 0.0
C25 C 0.30578 0.69998 0.2414 0.0
C26 C 0.3011 0.7202 0.23456 0.0
C27 C 0.31145 0.761 0.23373 0.0
H28 H 0.28464 0.72154 0.22679 0.0
C29 C 0.30798 0.76526 0.21302 0.0
C30 C 0.30394 0.78686 0.20895 0.0
C31 C 0.31022 0.77821 0.25028 0.0
H32 H 0.3128 0.77524 0.2663 0.0
C33 C 0.30558 0.79936 0.24636 0.0
H34 H 0.30931 0.7521 0.20019 0.0
C35 C 0.30253 0.80371 0.2259 0.0
H36 H 0.29897 0.82033 0.22332 0.0
H37 H 0.30451 0.81249 0.25924 0.0
H38 H 0.04303 0.48902 0.0622 0.0
C39 C 0.02696 0.49546 0.05827 0.0
C40 C 0.01386 0.50547 0.07411 0.0
C41 C 0.02005 0.49443 0.03723 0.0
H42 H 0.98325 0.52217 0.08053 0.0
C43 C 0.99361 0.51464 0.06844 0.0
C44 C 0.98663 0.51407 0.04727 0.0
C45 C 0.99998 0.50367 0.03178 0.0
C46 C 0.03505 0.4854 0.02094 0.0
H47 H 0.99541 0.50358 0.01539 0.0
C48 C 0.03003 0.46375 1.01022 0.0
C49 C 0.04529 0.45482 0.99562 0.0
C50 C 0.05508 0.49829 0.01675 0.0
H51 H 0.05918 0.51498 0.02496 0.0
C52 C 0.06999 0.48969 1.00201 0.0
H53 H 0.01474 0.45368 0.01376 0.0
C54 C 0.06522 0.46809 0.99155 0.0
H55 H 0.0771 0.46176 0.98021 0.0
H56 H 0.08539 0.49975 0.99878 0.0
H57 H 0.78626 0.80275 0.25569 0.0
C58 C 0.7877 0.79674 0.23929 0.0
C59 C 0.79948 0.8103 0.22623 0.0
C60 C 0.77857 0.77501 0.23148 0.0
H61 H 0.8111 0.81185 0.19499 0.0
C62 C 0.80137 0.80191 0.205 0.0
C63 C 0.792 0.78022 0.19693 0.0
C64 C 0.78047 0.76705 0.21034 0.0
C65 C 0.76907 0.75955 0.24555 0.0
H66 H 0.77306 0.75032 0.20441 0.0
C67 C 0.74935 0.76369 0.25686 0.0
C68 C 0.73958 0.74767 0.26869 0.0
C69 C 0.77938 0.73976 0.24678 0.0
H70 H 0.79462 0.73632 0.23824 0.0
C71 C 0.77013 0.72421 0.25895 0.0
H72 H 0.74111 0.77878 0.25572 0.0
C73 C 0.75027 0.72802 0.26972 0.0
H74 H 0.74323 0.71559 0.27891 0.0
H75 H 0.77821 0.70902 0.25983 0.0
H76 H 0.1132 0.9664 0.49046 0.0
C77 C 0.09939 0.97029 0.48035 0.0
C78 C 0.10148 0.99026 0.47148 0.0
C79 C 0.08019 0.95468 0.47524 0.0
H80 H 0.08595 1.00934 0.44993 0.0
C81 C 0.08385 0.99454 0.4576 0.0
C82 C 0.06465 0.97886 0.45205 0.0
C83 C 0.06286 0.95913 0.46129 0.0
C84 C 0.08049 0.93187 0.48068 0.0
H85 H 0.04846 0.94664 0.4569 0.0
C86 C 0.07329 0.92617 0.50005 0.0
C87 C 0.07258 0.90381 0.50393 0.0
C88 C 0.08745 0.91536 0.46558 0.0
H89 H 0.09301 0.91949 0.45063 0.0
C90 C 0.0872 0.89341 0.46954 0.0
H91 H 0.06769 0.93883 0.51168 0.0
C92 C 0.07976 0.88763 0.48851 0.0
H93 H 0.07971 0.87042 0.49118 0.0
H94 H 0.09265 0.88079 0.45781 0.0
H95 H 0.28301 0.7033 0.78821 0.0
C96 C 0.27836 0.71188 0.80305 0.0
C97 C 0.28549 0.70461 0.82173 0.0
C98 C 0.26641 0.7309 0.80332 0.0
H99 H 0.28625 0.71141 0.85537 0.0
C100 C 0.28034 0.71661 0.84089 0.0
C101 C 0.26834 0.73574 0.84141 0.0
C102 C 0.26126 0.74264 0.82248 0.0
C103 C 0.26239 0.74017 0.78368 0.0
H104 H 0.25246 0.75761 0.82265 0.0
C105 C 0.24004 0.74035 0.77479 0.0
C106 C 0.23695 0.74848 0.75554 0.0
C107 C 0.28148 0.74861 0.77355 0.0
H108 H 0.29876 0.74863 0.78021 0.0
C109 C 0.27846 0.7572 0.75486 0.0
H110 H 0.22531 0.73351 0.78244 0.0
C111 C 0.25642 0.75713 0.74588 0.0
H112 H 0.2546 0.76392 0.73133 0.0
H113 H 0.29328 0.76384 0.74723 0.0
H114 H 0.97939 0.59278 0.48489 0.0
C115 C 0.96928 0.57834 0.48912 0.0
C116 C 0.9667 0.57594 0.51032 0.0
C117 C 0.95784 0.56275 0.47332 0.0
H118 H 0.95063 0.5553 0.53161 0.0
C119 C 0.95331 0.55712 0.5154 0.0
C120 C 0.9418 0.54146 0.49972 0.0
C121 C 0.94402 0.54448 0.47874 0.0
C122 C 0.95778 0.56692 0.45132 0.0
H123 H 0.93472 0.53273 0.46657 0.0
C124 C 0.97797 0.56687 0.43993 0.0
C125 C 0.97723 0.5707 0.41888 0.0
C126 C 0.93697 0.57083 0.44159 0.0
H127 H 0.92129 0.57092 0.45011 0.0
C128 C 0.93623 0.57481 0.42089 0.0
H129 H 0.99404 0.56377 0.44736 0.0
C130 C 0.95616 0.57474 0.40959 0.0
H131 H 0.95498 0.57745 0.39339 0.0
H132 H 0.92011 0.57782 0.41352 0.0
H133 H 0.83629 0.82198 0.79835 0.0
C134 C 0.83453 0.81119 0.81034 0.0
C135 C 0.8467 0.79209 0.80942 0.0
C136 C 0.82091 0.81716 0.82727 0.0
H137 H 0.85419 0.76444 0.8256 0.0
C138 C 0.84422 0.7786 0.82555 0.0
C139 C 0.83003 0.784 0.84235 0.0
C140 C 0.81838 0.8033 0.84288 0.0
C141 C 0.81217 0.83945 0.83051 0.0
H142 H 0.80754 0.80793 0.85572 0.0
C143 C 0.79705 0.8466 0.81584 0.0
C144 C 0.7895 0.86814 0.8195 0.0
C145 C 0.81958 0.85396 0.84871 0.0
H146 H 0.8313 0.84888 0.86012 0.0
C147 C 0.81228 0.87523 0.85228 0.0
H148 H 0.79118 0.83549 0.80179 0.0
C149 C 0.79738 0.8823 0.83782 0.0
H150 H 0.79164 0.89879 0.84118 0.0
H151 H 0.81813 0.88627 0.86635 0.0
H152 H 0.34814 0.33339 0.30327 0.0
C153 C 0.34359 0.32162 0.314 0.0
C154 C 0.35428 0.3017 0.31303 0.0
C155 C 0.32868 0.32743 0.32994 0.0
H156 H 0.35797 0.27227 0.32772 0.0
C157 C 0.34935 0.28734 0.32808 0.0
C158 C 0.3342 0.29285 0.34411 0.0
C159 C 0.32381 0.31291 0.34467 0.0
C160 C 0.32185 0.35038 0.33377 0.0
H161 H 0.31238 0.31773 0.35699 0.0
C162 C 0.30473 0.35785 0.32127 0.0
C163 C 0.299 0.38003 0.32538 0.0
C164 C 0.33305 0.36507 0.35034 0.0
H165 H 0.34625 0.35958 0.3601 0.0
C166 C 0.32751 0.38696 0.35438 0.0
H167 H 0.29599 0.34653 0.30849 0.0
C168 C 0.31065 0.39443 0.34202 0.0
H169 H 0.3064 0.41143 0.34573 0.0
H170 H 0.33625 0.39817 0.36719 0.0
H171 H 0.52798 0.98271 0.54905 0.0
C172 C 0.51327 0.99231 0.5484 0.0
C173 C 0.5036 1.00123 0.56696 0.0
C174 C 0.50502 0.99677 0.52898 0.0
H175 H 0.47696 0.02068 0.57987 0.0
C176 C 0.48487 0.01421 0.5657 0.0
C177 C 0.47613 0.01855 0.54619 0.0
C178 C 0.48669 1.00998 0.52801 0.0
C179 C 0.51607 0.98835 0.50962 0.0
H180 H 0.48081 0.01372 0.51292 0.0
C181 C 0.51795 0.96544 0.50425 0.0
C182 C 0.5277 0.95739 0.48541 0.0
C183 C 0.52431 1.00327 0.49617 0.0
H184 H 0.52307 0.02099 0.50004 0.0
C185 C 0.53435 0.99546 0.47768 0.0
H186 H 0.51154 0.95391 0.51461 0.0
C187 C 0.53599 0.9727 0.47227 0.0
H188 H 0.54329 0.96705 0.45754 0.0
H189 H 0.54065 1.00707 0.46739 0.0
H190 H 0.27822 0.30657 0.7526 0.0
C191 C 0.27743 0.30032 0.73609 0.0
C192 C 0.28539 0.3142 0.72148 0.0
C193 C 0.26977 0.27786 0.72965 0.0
H194 H 0.2909 0.31555 0.68869 0.0
C195 C 0.28497 0.30518 0.70017 0.0
C196 C 0.27768 0.2826 0.69362 0.0
C197 C 0.2699 0.26919 0.7085 0.0
C198 C 0.26321 0.26269 0.74498 0.0
H199 H 0.26397 0.2518 0.70365 0.0
C200 C 0.24419 0.26594 0.75749 0.0
C201 C 0.23672 0.24989 0.77023 0.0
C202 C 0.27521 0.24384 0.74599 0.0
H203 H 0.2899 0.24107 0.73649 0.0
C204 C 0.26821 0.22829 0.75907 0.0
H205 H 0.2346 0.28024 0.75652 0.0
C206 C 0.24895 0.23115 0.77097 0.0
H207 H 0.24351 0.21867 0.78074 0.0
H208 H 0.27753 0.21378 0.75972 0.0
H209 H 0.83353 0.25882 0.76644 0.0
C210 C 0.82406 0.24261 0.76199 0.0
C211 C 0.83243 0.22359 0.76849 0.0
C212 C 0.80309 0.24097 0.75045 0.0
H213 H 0.82545 0.18835 0.7692 0.0
C214 C 0.81952 0.20282 0.76332 0.0
C215 C 0.79811 0.201 0.75223 0.0
C216 C 0.79025 0.2202 0.74553 0.0
C217 C 0.79282 0.26142 0.7467 0.0
H218 H 0.77369 0.21921 0.73719 0.0
C219 C 0.79506 0.27013 0.72768 0.0
C220 C 0.78567 0.29016 0.72493 0.0
C221 C 0.78089 0.27254 0.76275 0.0
H222 H 0.77903 0.26601 0.77745 0.0
C223 C 0.77128 0.29213 0.75997 0.0
H224 H 0.80448 0.26164 0.71536 0.0
C225 C 0.77366 0.30093 0.74125 0.0
H226 H 0.76593 0.31613 0.73948 0.0
H227 H 0.76202 0.30057 0.7724 0.0
H228 H 0.60088 0.55307 0.56302 0.0
C229 C 0.59093 0.54867 0.57596 0.0
C230 C 0.59295 0.52817 0.58352 0.0
C231 C 0.57711 0.56428 0.58574 0.0
H232 H 0.5811 0.50769 0.6068 0.0
C233 C 0.57949 0.52303 0.60033 0.0
C234 C 0.56493 0.53829 0.60982 0.0
C235 C 0.56404 0.55889 0.60245 0.0
C236 C 0.57865 0.58732 0.58047 0.0
H237 H 0.55323 0.57095 0.60985 0.0
C238 C 0.574 0.59181 0.56001 0.0
C239 C 0.57653 0.61391 0.5555 0.0
C240 C 0.58561 0.60508 0.59627 0.0
H241 H 0.5894 0.602 0.61207 0.0
C242 C 0.58824 0.62691 0.59176 0.0
H243 H 0.56851 0.57826 0.54772 0.0
C244 C 0.58383 0.63132 0.5715 0.0
H245 H 0.5858 0.64843 0.56835 0.0
H246 H 0.59374 0.64045 0.60401 0.0
H247 H 0.61259 0.47459 0.98803 0.0
C248 C 0.59906 0.47994 0.97855 0.0
C249 C 0.60267 0.50021 0.97035 0.0
C250 C 0.57899 0.46547 0.97262 0.0
H251 H 0.58807 0.52219 0.95124 0.0
C252 C 0.58544 0.50637 0.95722 0.0
C253 C 0.56584 0.49181 0.95038 0.0
C254 C 0.56254 0.47151 0.9585 0.0
C255 C 0.57754 0.44214 0.97711 0.0
H256 H 0.54801 0.45964 0.95276 0.0
C257 C 0.57377 0.43642 0.99727 0.0
C258 C 0.57208 0.41379 1.00059 0.0
C259 C 0.57971 0.42525 0.96047 0.0
H260 H 0.58264 0.42931 0.9449 0.0
C261 C 0.57814 0.40302 0.96367 0.0
H262 H 0.57206 0.44941 1.01016 0.0
C263 C 0.57428 0.3973 0.98348 0.0
H264 H 0.57258 0.37979 0.98531 0.0
H265 H 0.57972 0.39012 0.9507 0.0
H266 H 0.78026 0.19863 0.29261 0.0
C267 C 0.77616 0.20771 0.3074 0.0
C268 C 0.78548 0.20211 0.32604 0.0
C269 C 0.76242 0.22552 0.30761 0.0
H270 H 0.788 0.21 0.35952 0.0
C271 C 0.78076 0.21437 0.34515 0.0
C272 C 0.76655 0.23198 0.34575 0.0
C273 C 0.75736 0.23731 0.32682 0.0
C274 C 0.75551 0.23321 0.28769 0.0
H275 H 0.74729 0.25143 0.32693 0.0
C276 C 0.73257 0.23723 0.28315 0.0
C277 C 0.72666 0.24511 0.26432 0.0
C278 C 0.77236 0.23711 0.27322 0.0
H279 H 0.79014 0.23438 0.27643 0.0
C280 C 0.76658 0.24499 0.25467 0.0
H281 H 0.71943 0.23422 0.29417 0.0
C282 C 0.74394 0.249 0.25023 0.0
H283 H 0.73984 0.2548 0.23555 0.0
H284 H 0.77972 0.24798 0.24367 0.0
H285 H 0.47631 0.10999 0.97427 0.0
C286 C 0.46772 0.09496 0.97886 0.0
C287 C 0.46323 0.09389 0.99997 0.0
C288 C 0.46068 0.07699 0.96338 0.0
H289 H 0.44758 0.07327 0.02146 0.0
C290 C 0.45198 0.07414 1.00542 0.0
C291 C 0.44469 0.05606 0.99002 0.0
C292 C 0.44926 0.05755 0.96903 0.0
C293 C 0.46226 0.07987 0.94113 0.0
H294 H 0.44309 0.04395 0.957 0.0
C295 C 0.47609 0.06713 0.92771 0.0
C296 C 0.47675 0.06998 0.90646 0.0
C297 C 0.44932 0.09548 0.93322 0.0
H298 H 0.43858 0.10541 0.94332 0.0
C299 C 0.44982 0.09818 0.91218 0.0
H300 H 0.48623 0.05514 0.93375 0.0
C301 C 0.46337 0.08549 0.89885 0.0
H302 H 0.4637 0.08805 0.8826 0.0
H303 H 0.4397 0.11019 0.90619 0.0
Li304 Li 0.29169 0.90535 0.02422 0.0
Li305 Li 0.27674 0.87622 0.04507 0.0
Li306 Li 0.26724 0.87292 1.00734 0.0
Li307 Li 0.25066 0.90091 0.03283 0.0
C308 C 0.30923 0.85792 0.01063 0.0
N309 N 0.3302 0.82469 0.98723 0.0
C310 C 0.31137 0.83767 0.01813 0.0
C311 C 0.31791 0.86135 0.99131 0.0
C312 C 0.32202 0.82107 1.00605 0.0
C313 C 0.32838 0.84431 0.97968 0.0
C314 C 0.28705 0.91235 0.07179 0.0
C315 C 0.283 0.91032 0.10848 0.0
N316 N 0.30593 0.91649 0.11198 0.0
C317 C 0.31056 0.91875 0.07575 0.0
C318 C 0.2731 0.9082 0.08828 0.0
C319 C 0.31978 0.92075 0.09619 0.0
C320 C 0.31133 0.94908 0.02402 0.0
N321 N 0.31616 0.92749 0.0205 0.0
C322 C 0.35348 0.93861 1.00896 0.0
C323 C 0.33693 0.92201 0.01355 0.0
C324 C 0.34833 0.96086 0.0113 0.0
C325 C 0.3271 0.96609 0.01919 0.0
H326 H 0.29486 0.95301 0.02993 0.0
H327 H 0.34047 0.90476 0.01113 0.0
C328 C 0.26699 0.84926 0.0772 0.0
N329 N 0.28408 0.86041 0.06782 0.0
C330 C 0.27196 0.83943 0.09497 0.0
C331 C 0.31212 0.85214 0.09271 0.0
C332 C 0.30639 0.86163 0.07495 0.0
C333 C 0.29475 0.84115 0.10319 0.0
H334 H 0.2494 0.84847 0.0712 0.0
H335 H 0.31967 0.87048 0.06711 0.0
C336 C 0.26857 0.92154 0.9941 0.0
N337 N 0.27999 0.95684 0.97239 0.0
C338 C 0.25835 0.94143 0.99864 0.0
C339 C 0.28441 0.91953 0.97837 0.0
C340 C 0.26438 0.95909 0.9875 0.0
C341 C 0.29003 0.93759 0.96763 0.0
C342 C 0.22296 0.86408 0.03073 0.0
C343 C 0.20987 0.85628 0.01231 0.0
C344 C 0.21195 0.86894 0.04942 0.0
C345 C 0.18588 0.85355 0.0129 0.0
C346 C 0.18792 0.86603 0.04935 0.0
N347 N 0.1755 0.85846 0.03125 0.0
C348 C 0.26545 0.83087 0.9812 0.0
C349 C 0.25751 0.86136 0.96382 0.0
C350 C 0.26522 0.81691 0.96215 0.0
N351 N 0.26244 0.85283 0.98164 0.0
C352 C 0.2567 0.84794 0.94448 0.0
C353 C 0.26128 0.82549 0.94332 0.0
H354 H 0.26889 0.82435 0.99561 0.0
H355 H 0.25465 0.87873 0.96457 0.0
C356 C 0.22921 0.93436 0.05654 0.0
N357 N 0.22538 0.91842 0.03965 0.0
C358 C 0.21297 0.94939 0.06177 0.0
C359 C 0.18867 0.9312 0.03237 0.0
C360 C 0.20558 0.91658 0.02755 0.0
C361 C 0.19248 0.94813 0.04951 0.0
H362 H 0.2452 0.93584 0.0657 0.0
H363 H 0.20314 0.90415 0.01388 0.0
O364 O 0.29864 0.87428 0.02213 0.0
O365 O 0.27781 0.90969 0.05182 0.0
O366 O 0.26329 0.90424 1.00516 0.0
O367 O 0.24645 0.86702 0.03044 0.0
H368 H 0.30468 0.83471 0.03302 0.0
H369 H 0.31634 0.87689 0.98525 0.0
H370 H 0.3237 0.80527 0.01161 0.0
H371 H 0.33502 0.84667 0.96463 0.0
H372 H 0.27246 0.90698 0.12136 0.0
H373 H 0.3216 0.92192 0.06315 0.0
H374 H 0.2549 0.90307 0.08543 0.0
H375 H 0.33797 0.92558 0.09948 0.0
H376 H 0.36973 0.93404 1.0029 0.0
H377 H 0.32267 0.98312 0.02134 0.0
H378 H 0.25799 0.83131 0.10264 0.0
H379 H 0.32995 0.85364 0.09832 0.0
H380 H 0.24608 0.94331 0.01078 0.0
H381 H 0.29248 0.90427 0.97467 0.0
H382 H 0.25672 0.97463 0.99093 0.0
H383 H 0.30242 0.93633 0.95555 0.0
H384 H 0.21813 0.85246 0.99771 0.0
H385 H 0.22184 0.87519 0.06378 0.0
H386 H 0.17551 0.84757 0.99877 0.0
H387 H 0.17915 0.86986 0.06368 0.0
H388 H 0.26896 0.79982 0.96222 0.0
H389 H 0.25284 0.85524 0.93055 0.0
H390 H 0.21653 0.96205 0.07521 0.0
H391 H 0.1732 0.92981 0.02239 0.0
Li392 Li 0.12531 0.52633 0.28553 0.0
Li393 Li 0.15387 0.50323 0.2684 0.0
Li394 Li 0.15425 0.54421 0.26367 0.0
Li395 Li 0.12442 0.51604 0.24685 0.0
C396 C 0.16966 0.53694 0.30885 0.0
N397 N 0.19114 0.54993 0.34785 0.0
C398 C 0.17423 0.52103 0.32174 0.0
C399 C 0.17634 0.55946 0.3157 0.0
C400 C 0.185 0.52792 0.34143 0.0
C401 C 0.18708 0.5657 0.33549 0.0
C402 C 0.11669 0.47477 0.27284 0.0
C403 C 0.11819 0.43542 0.26225 0.0
N404 N 0.11113 0.43134 0.28132 0.0
C405 C 0.10932 0.47019 0.29229 0.0
C406 C 0.12103 0.45726 0.25763 0.0
C407 C 0.10664 0.44812 0.29629 0.0
C408 C 0.08548 0.53881 0.30565 0.0
N409 N 0.10639 0.5315 0.30926 0.0
C410 C 0.09884 0.5315 0.34545 0.0
C411 C 0.11317 0.52765 0.32867 0.0
C412 C 0.07732 0.53945 0.34223 0.0
C413 C 0.07072 0.54306 0.32197 0.0
H414 H 0.08019 0.54126 0.29002 0.0
H415 H 0.12955 0.52132 0.33116 0.0
C416 C 0.19312 0.48075 0.25961 0.0
N417 N 0.17449 0.48077 0.27169 0.0
C418 C 0.21048 0.46696 0.26263 0.0
C419 C 0.18886 0.45275 0.28999 0.0
C420 C 0.17194 0.4669 0.2865 0.0
C421 C 0.20874 0.45304 0.2783 0.0
H422 H 0.19491 0.49203 0.24806 0.0
H423 H 0.15729 0.46743 0.29625 0.0
C424 C 0.11426 0.56639 0.26963 0.0
N425 N 0.10205 0.60861 0.28296 0.0
C426 C 0.09972 0.57654 0.25701 0.0
C427 C 0.12245 0.57763 0.28907 0.0
C428 C 0.09379 0.59792 0.26401 0.0
C429 C 0.11611 0.59897 0.29553 0.0
C430 C 0.15881 0.51319 0.22174 0.0
C431 C 0.16135 0.53053 0.20959 0.0
C432 C 0.15635 0.49111 0.21208 0.0
C433 C 0.16103 0.52546 0.18787 0.0
C434 C 0.15611 0.48673 0.19032 0.0
N435 N 0.15841 0.50385 0.17877 0.0
C436 C 0.19628 0.57139 0.2662 0.0
C437 C 0.16525 0.58681 0.25066 0.0
C438 C 0.2114 0.58974 0.26318 0.0
N439 N 0.17367 0.57033 0.26007 0.0
C440 C 0.17972 0.60555 0.24747 0.0
C441 C 0.20316 0.60716 0.25372 0.0
H442 H 0.20258 0.5579 0.27338 0.0
H443 H 0.14738 0.58529 0.24531 0.0
C444 C 0.09332 0.48957 0.21579 0.0
N445 N 0.10508 0.50984 0.22194 0.0
C446 C 0.07997 0.48569 0.19707 0.0
C447 C 0.09089 0.52366 0.19156 0.0
C448 C 0.10391 0.52681 0.21037 0.0
C449 C 0.07871 0.50284 0.18458 0.0
H450 H 0.09437 0.4764 0.22535 0.0
H451 H 0.1135 0.54275 0.21562 0.0
O452 O 0.1595 0.53045 0.28935 0.0
O453 O 0.11938 0.49626 0.26865 0.0
O454 O 0.12032 0.5455 0.26293 0.0
O455 O 0.15844 0.51783 0.24298 0.0
H456 H 0.16922 0.50356 0.31675 0.0
H457 H 0.17341 0.57203 0.30583 0.0
H458 H 0.18846 0.51577 0.35162 0.0
H459 H 0.19227 0.58307 0.34099 0.0
H460 H 0.12162 0.42171 0.25068 0.0
H461 H 0.10575 0.48353 0.30419 0.0
H462 H 0.12671 0.4605 0.2425 0.0
H463 H 0.10103 0.44434 0.3113 0.0
H464 H 0.1046 0.52844 0.36079 0.0
H465 H 0.05409 0.54873 0.31866 0.0
H466 H 0.22541 0.46761 0.25314 0.0
H467 H 0.18693 0.44256 0.30245 0.0
H468 H 0.09312 0.56802 0.24196 0.0
H469 H 0.13334 0.56985 0.29915 0.0
H470 H 0.08261 0.60602 0.25439 0.0
H471 H 0.12231 0.60784 0.31056 0.0
H472 H 0.16325 0.54771 0.21685 0.0
H473 H 0.15454 0.47752 0.22129 0.0
H474 H 0.1628 0.53871 0.17826 0.0
H475 H 0.15407 0.46972 0.18261 0.0
H476 H 0.2293 0.5904 0.26839 0.0
H477 H 0.17273 0.61842 0.23983 0.0
H478 H 0.07067 0.46945 0.19247 0.0
H479 H 0.09083 0.53727 0.18236 0.0
Li480 Li 0.7864 0.63032 0.99872 0.0
Li481 Li 0.80615 0.66442 0.02073 0.0
Li482 Li 0.81017 0.65635 0.98258 0.0
Li483 Li 0.82895 0.63377 1.00421 0.0
C484 C 0.75886 0.66158 0.9951 0.0
N485 N 0.71146 0.65789 0.98972 0.0
C486 C 0.74538 0.66842 0.01178 0.0
C487 C 0.74828 0.65311 0.97563 0.0
C488 C 0.72142 0.66637 1.00876 0.0
C489 C 0.72428 0.6513 0.97324 0.0
C490 C 0.8125 0.62135 0.03999 0.0
C491 C 0.8376 0.61955 0.06991 0.0
N492 N 0.83043 0.59754 0.0691 0.0
C493 C 0.8053 0.59874 0.03947 0.0
C494 C 0.8287 0.63191 0.05534 0.0
C495 C 0.8146 0.58698 0.05433 0.0
C496 C 0.75581 0.59288 0.98143 0.0
N497 N 0.75948 0.60967 0.9976 0.0
C498 C 0.72502 0.59671 0.01315 0.0
C499 C 0.74474 0.61166 0.01346 0.0
C500 C 0.72055 0.57928 0.99651 0.0
C501 C 0.73645 0.57743 0.98059 0.0
H502 H 0.76803 0.5914 0.96923 0.0
H503 H 0.74828 0.62497 0.02633 0.0
C504 C 0.81623 0.70396 0.05085 0.0
N505 N 0.8036 0.68389 0.04596 0.0
C506 C 0.81525 0.71617 0.07071 0.0
C507 C 0.78826 0.68687 0.07988 0.0
C508 C 0.78956 0.6754 0.05988 0.0
C509 C 0.80149 0.70736 0.08562 0.0
H510 H 0.82759 0.71016 0.03964 0.0
H511 H 0.77985 0.65934 0.0556 0.0
C512 C 0.81569 0.61739 0.95833 0.0
N513 N 0.82717 0.60575 0.91751 0.0
C514 C 0.83794 0.61195 0.9539 0.0
C515 C 0.7992 0.61665 0.94203 0.0
C516 C 0.84342 0.60615 0.93315 0.0
C517 C 0.80538 0.61082 0.92148 0.0
C518 C 0.84857 0.68081 0.99534 0.0
C519 C 0.86799 0.67393 0.98518 0.0
C520 C 0.84241 0.70237 0.99462 0.0
C521 C 0.88097 0.6888 0.97444 0.0
C522 C 0.85579 0.71671 0.98365 0.0
N523 N 0.87464 0.70969 0.97389 0.0
C524 C 0.79865 0.68742 0.95566 0.0
C525 C 0.82985 0.66744 0.94413 0.0
C526 C 0.80066 0.69991 0.93903 0.0
N527 N 0.81313 0.6715 0.95795 0.0
C528 C 0.83223 0.67927 0.92708 0.0
C529 C 0.81761 0.69587 0.92444 0.0
H530 H 0.78573 0.6907 0.96698 0.0
H531 H 0.84176 0.65537 0.94651 0.0
C532 C 0.85103 0.5948 1.00786 0.0
N533 N 0.8541 0.61743 0.01059 0.0
C534 C 0.86833 0.58247 0.0144 0.0
C535 C 0.89187 0.61696 0.02587 0.0
C536 C 0.874 0.62861 0.01939 0.0
C537 C 0.88912 0.59351 0.02368 0.0
H538 H 0.83486 0.58636 1.00112 0.0
H539 H 0.87583 0.64663 0.02172 0.0
O540 O 0.78229 0.66297 0.99784 0.0
O541 O 0.80412 0.63298 0.02522 0.0
O542 O 0.80997 0.62291 0.97855 0.0
O543 O 0.83537 0.66636 1.00557 0.0
H544 H 0.75332 0.67509 0.02692 0.0
H545 H 0.75851 0.64787 0.96255 0.0
H546 H 0.71075 0.67148 0.02155 0.0
H547 H 0.71585 0.64463 0.9583 0.0
H548 H 0.85026 0.62745 0.08182 0.0
H549 H 0.79283 0.59035 0.02759 0.0
H550 H 0.83454 0.64938 0.05583 0.0
H551 H 0.80928 0.56944 0.05408 0.0
H552 H 0.71324 0.59902 0.02567 0.0
H553 H 0.7341 0.56405 0.96766 0.0
H554 H 0.82585 0.73183 0.07464 0.0
H555 H 0.77729 0.67961 0.09088 0.0
H556 H 0.85089 0.61239 0.96633 0.0
H557 H 0.78187 0.62062 0.94521 0.0
H558 H 0.8606 0.60203 0.92947 0.0
H559 H 0.79284 0.61032 0.9087 0.0
H560 H 0.8728 0.65719 0.98531 0.0
H561 H 0.82718 0.70781 1.00207 0.0
H562 H 0.89599 0.68368 0.96643 0.0
H563 H 0.85113 0.73338 0.98281 0.0
H564 H 0.78901 0.71254 0.93754 0.0
H565 H 0.84578 0.67588 0.9164 0.0
H566 H 0.86513 0.5645 0.01268 0.0
H567 H 0.90764 0.62629 0.03259 0.0
Li568 Li 0.90787 0.04045 0.28646 0.0
Li569 Li 0.93843 0.02 0.30172 0.0
Li570 Li 0.93949 0.02638 0.26515 0.0
Li571 Li 0.90997 1.0003 0.27602 0.0
C572 C 0.95858 0.06577 0.29484 0.0
N573 N 0.99328 0.10009 0.30396 0.0
C574 C 0.98042 0.06141 0.30177 0.0
C575 C 0.95428 0.08763 0.29284 0.0
C576 C 0.99777 0.07897 0.30621 0.0
C577 C 0.97208 0.10474 0.29744 0.0
C578 C 0.89757 1.00102 0.31724 0.0
C579 C 0.90342 0.96814 0.33307 0.0
N580 N 0.88388 0.9707 0.34369 0.0
C581 C 0.87756 1.00333 0.32829 0.0
C582 C 0.91062 0.98329 0.31963 0.0
C583 C 0.87092 0.98783 0.34159 0.0
C584 C 0.86858 0.06344 0.27971 0.0
N585 N 0.8875 0.06339 0.29251 0.0
C586 C 0.8766 0.09521 0.31465 0.0
C587 C 0.89173 0.07883 0.30976 0.0
C588 C 0.857 0.09591 0.30152 0.0
C589 C 0.85334 0.07975 0.28371 0.0
H590 H 0.86516 0.05074 0.26637 0.0
H591 H 0.90673 0.07826 0.31989 0.0
C592 C 0.97467 1.00561 0.3247 0.0
N593 N 0.95663 0.01825 0.32653 0.0
C594 C 0.98818 1.00309 0.34227 0.0
C595 C 0.96449 0.02687 0.36342 0.0
C596 C 0.95136 0.0289 0.34537 0.0
C597 C 0.98311 0.01367 0.36203 0.0
H598 H 0.97856 0.99748 0.30953 0.0
H599 H 0.93684 0.03878 0.34639 0.0
C600 C 0.90065 0.0371 0.24322 0.0
N601 N 0.89055 0.06463 0.21418 0.0
C602 C 0.88441 0.02955 0.22689 0.0
C603 C 0.91182 0.0586 0.24475 0.0
C604 C 0.87952 0.04373 0.21237 0.0
C605 C 0.90646 0.07227 0.22993 0.0
C606 C 0.94966 0.98287 0.2609 0.0
C607 C 0.93653 0.97906 0.24207 0.0
C608 C 0.96872 0.97092 0.26323 0.0
C609 C 0.94269 0.96341 0.22592 0.0
C610 C 0.97433 0.9554 0.24671 0.0
N611 N 0.96131 0.952 0.22855 0.0
C612 C 0.98232 0.03874 0.24737 0.0
C613 C 0.95168 0.02604 0.22259 0.0
C614 C 0.9975 0.04146 0.23141 0.0
N615 N 0.95978 0.03142 0.24278 0.0
C616 C 0.96629 0.02833 0.20615 0.0
C617 C 0.98954 0.03621 0.21045 0.0
H618 H 0.98871 0.04205 0.2634 0.0
H619 H 0.93393 0.01958 0.21913 0.0
C620 C 0.86998 0.9737 0.25884 0.0
N621 N 0.89106 0.97292 0.26811 0.0
C622 C 0.85593 0.95405 0.25205 0.0
C623 C 0.88545 0.93316 0.26472 0.0
C624 C 0.8989 0.95321 0.27128 0.0
C625 C 0.86366 0.93337 0.25484 0.0
H626 H 0.86417 0.98963 0.25659 0.0
H627 H 0.91578 0.95301 0.27862 0.0
O628 O 0.9412 0.0489 0.29081 0.0
O629 O 0.90422 0.01603 0.30412 0.0
O630 O 0.90561 0.02333 0.2575 0.0
O631 O 0.94409 0.99826 0.27696 0.0
H632 H 0.98405 0.04462 0.30345 0.0
H633 H 0.93736 0.09138 0.28786 0.0
H634 H 0.0148 0.07581 0.31144 0.0
H635 H 0.96902 0.12173 0.2959 0.0
H636 H 0.91334 0.95433 0.33505 0.0
H637 H 0.86726 0.01697 0.32658 0.0
H638 H 0.9261 0.98119 0.31113 0.0
H639 H 0.85547 0.98941 0.35025 0.0
H640 H 0.88011 0.10691 0.32877 0.0
H641 H 0.8389 0.07964 0.27278 0.0
H642 H 1.00259 0.99309 0.34035 0.0
H643 H 0.95983 0.03518 0.37833 0.0
H644 H 0.87569 0.0129 0.22545 0.0
H645 H 0.92455 0.06462 0.25716 0.0
H646 H 0.86697 0.03813 0.19966 0.0
H647 H 0.91497 0.08896 0.23093 0.0
H648 H 0.92171 0.98804 0.23988 0.0
H649 H 0.97913 0.97359 0.27763 0.0
H650 H 0.93267 0.96034 0.21129 0.0
H651 H 0.98905 0.94606 0.24832 0.0
H652 H 0.0154 0.04718 0.23546 0.0
H653 H 0.95938 0.02414 0.19022 0.0
H654 H 0.83915 0.95506 0.24477 0.0
H655 H 0.89229 0.91765 0.26694 0.0
Li656 Li 0.29448 0.16492 0.51878 0.0
Li657 Li 0.27543 0.13335 0.49398 0.0
Li658 Li 0.3162 0.13562 0.5014 0.0
Li659 Li 0.30095 0.1609 0.47944 0.0
C660 C 0.2967 0.11658 0.53226 0.0
N661 N 0.30932 0.08317 0.55405 0.0
C662 C 0.28727 0.09461 0.52631 0.0
C663 C 0.31235 0.1216 0.54942 0.0
C664 C 0.29391 0.07794 0.53751 0.0
C665 C 0.31858 0.10446 0.56019 0.0
C666 C 0.24948 0.16651 0.49063 0.0
C667 C 0.21635 0.15921 0.46664 0.0
N668 N 0.20265 0.16567 0.4825 0.0
C669 C 0.23512 0.1732 0.50668 0.0
C670 C 0.2401 0.15958 0.47042 0.0
C671 C 0.21146 0.17262 0.50225 0.0
C672 C 0.29842 0.20596 0.54714 0.0
N673 N 0.29069 0.18394 0.54401 0.0
C674 C 0.27958 0.18548 0.57931 0.0
C675 C 0.28099 0.17373 0.55946 0.0
C676 C 0.28818 0.20802 0.58333 0.0
C677 C 0.29725 0.21844 0.56684 0.0
H678 H 0.30617 0.2136 0.53456 0.0
H679 H 0.27484 0.15624 0.55648 0.0
C680 C 0.24334 0.09838 0.47304 0.0
N681 N 0.24727 0.11419 0.49004 0.0
C682 C 0.22297 0.08406 0.47079 0.0
C683 C 0.21095 0.10283 0.50337 0.0
C684 C 0.2317 0.11648 0.50518 0.0
C685 C 0.20644 0.08628 0.48606 0.0
H686 H 0.25609 0.0968 0.46132 0.0
H687 H 0.23548 0.12889 0.51875 0.0
C688 C 0.34415 0.17764 0.51348 0.0
N689 N 0.38551 0.19641 0.53301 0.0
C690 C 0.36213 0.18532 0.50171 0.0
C691 C 0.34722 0.1796 0.53519 0.0
C692 C 0.38291 0.19471 0.51187 0.0
C693 C 0.36825 0.18912 0.54477 0.0
C694 C 0.31473 0.12243 0.45834 0.0
C695 C 0.33699 0.13331 0.45989 0.0
C696 C 0.30811 0.10629 0.44124 0.0
C697 C 0.35228 0.12785 0.44427 0.0
C698 C 0.3239 0.1013 0.42593 0.0
N699 N 0.34548 0.11209 0.42775 0.0
C700 C 0.33534 0.09466 0.49992 0.0
C701 C 0.36167 0.1248 0.51499 0.0
C702 C 0.35098 0.07944 0.50381 0.0
N703 N 0.3407 0.11689 0.50581 0.0
C704 C 0.37795 0.11021 0.51893 0.0
C705 C 0.37268 0.08711 0.51354 0.0
H706 H 0.31864 0.08869 0.49253 0.0
H707 H 0.36598 0.14238 0.51939 0.0
C708 C 0.31909 0.19752 0.46025 0.0
N709 N 0.30614 0.17757 0.45654 0.0
C710 C 0.32334 0.21025 0.44407 0.0
C711 C 0.30045 0.1819 0.42052 0.0
C712 C 0.29687 0.16958 0.43714 0.0
C713 C 0.31386 0.20262 0.42381 0.0
H714 H 0.32612 0.20359 0.47584 0.0
H715 H 0.28654 0.1537 0.4346 0.0
O716 O 0.29078 0.13305 0.52124 0.0
O717 O 0.27258 0.16646 0.49475 0.0
O718 O 0.32357 0.16868 0.50379 0.0
O719 O 0.29934 0.12754 0.47336 0.0
H720 H 0.27518 0.09041 0.51304 0.0
H721 H 0.31972 0.13852 0.55429 0.0
H722 H 0.28687 0.06084 0.533 0.0
H723 H 0.33079 0.10808 0.57341 0.0
H724 H 0.20881 0.15373 0.4511 0.0
H725 H 0.24216 0.17857 0.52242 0.0
H726 H 0.25102 0.15426 0.45787 0.0
H727 H 0.2001 0.17763 0.51453 0.0
H728 H 0.27212 0.17691 0.59149 0.0
H729 H 0.30417 0.23576 0.56936 0.0
H730 H 0.22007 0.07154 0.45718 0.0
H731 H 0.19877 0.10488 0.5156 0.0
H732 H 0.36011 0.184 0.4849 0.0
H733 H 0.33367 0.1736 0.54457 0.0
H734 H 0.39697 0.20067 0.50295 0.0
H735 H 0.37086 0.19065 0.56155 0.0
H736 H 0.34245 0.14577 0.47299 0.0
H737 H 0.29093 0.09773 0.43977 0.0
H738 H 0.36956 0.13614 0.4453 0.0
H739 H 0.319 0.08885 0.4126 0.0
H740 H 0.3459 0.06182 0.49952 0.0
H741 H 0.3946 0.11707 0.52597 0.0
H742 H 0.33411 0.22586 0.44745 0.0
H743 H 0.29245 0.17538 0.40535 0.0
Li744 Li 0.4312 0.51759 0.79984 0.0
Li745 Li 0.40426 0.54014 0.78181 0.0
Li746 Li 0.40384 0.50036 0.77124 0.0
Li747 Li 0.43508 0.52449 0.76215 0.0
C748 C 0.37637 0.50778 0.80456 0.0
N749 N 0.33354 0.49005 0.8145 0.0
C750 C 0.35671 0.51114 0.79293 0.0
C751 C 0.37428 0.49546 0.82126 0.0
C752 C 0.3352 0.50203 0.7982 0.0
C753 C 0.35246 0.48661 0.82603 0.0
C754 C 0.44027 0.56814 0.79732 0.0
C755 C 0.43761 0.60708 0.79507 0.0
N756 N 0.44312 0.61197 0.81586 0.0
C757 C 0.44599 0.57355 0.81865 0.0
C758 C 0.43616 0.58503 0.78539 0.0
C759 C 0.44733 0.59582 0.82774 0.0
C760 C 0.46906 0.50743 0.8231 0.0
N761 N 0.44754 0.51407 0.82501 0.0
C762 C 0.45051 0.51445 0.86205 0.0
C763 C 0.43811 0.51767 0.84397 0.0
C764 C 0.47279 0.5074 0.86056 0.0
C765 C 0.48195 0.50383 0.84067 0.0
H766 H 0.47607 0.5046 0.8078 0.0
H767 H 0.42101 0.52313 0.84505 0.0
C768 C 0.36979 0.56776 0.77205 0.0
N769 N 0.38451 0.56384 0.78755 0.0
C770 C 0.35483 0.5844 0.7756 0.0
C771 C 0.36945 0.59201 0.8114 0.0
C772 C 0.38435 0.57535 0.80707 0.0
C773 C 0.35438 0.59683 0.79553 0.0
H774 H 0.36933 0.55772 0.75695 0.0
H775 H 0.3956 0.5714 0.81939 0.0
C776 C 0.43636 0.47368 0.77171 0.0
N777 N 0.43341 0.42763 0.76579 0.0
C778 C 0.43376 0.46191 0.75154 0.0
C779 C 0.4375 0.46198 0.78885 0.0
C780 C 0.43225 0.43865 0.74888 0.0
C781 C 0.43601 0.43872 0.78553 0.0
C782 C 0.40588 0.52849 0.73317 0.0
C783 C 0.41071 0.51149 0.71761 0.0
C784 C 0.40604 0.5503 0.72849 0.0
C785 C 0.41541 0.51654 0.69764 0.0
C786 C 0.41073 0.55466 0.70831 0.0
N787 N 0.4153 0.53783 0.69344 0.0
C788 C 0.38041 0.45801 0.77586 0.0
C789 C 0.37357 0.4702 0.74313 0.0
C790 C 0.3673 0.43777 0.76924 0.0
N791 N 0.38367 0.47357 0.76267 0.0
C792 C 0.36073 0.45002 0.73572 0.0
C793 C 0.35773 0.43346 0.74878 0.0
H794 H 0.38851 0.46106 0.79136 0.0
H795 H 0.37574 0.483 0.73314 0.0
C796 C 0.46942 0.51186 0.73356 0.0
N797 N 0.45803 0.52927 0.74186 0.0
C798 C 0.48521 0.5145 0.71805 0.0
C799 C 0.47775 0.55308 0.72019 0.0
C800 C 0.46224 0.54973 0.73575 0.0
C801 C 0.48947 0.53531 0.711 0.0
H802 H 0.46624 0.49587 0.73894 0.0
H803 H 0.4532 0.56339 0.74264 0.0
O804 O 0.39762 0.5162 0.79942 0.0
O805 O 0.43869 0.54641 0.78819 0.0
O806 O 0.43739 0.49647 0.77468 0.0
O807 O 0.40168 0.5239 0.75296 0.0
H808 H 0.35808 0.52044 0.77981 0.0
H809 H 0.38938 0.49256 0.83029 0.0
H810 H 0.31983 0.50441 0.7893 0.0
H811 H 0.35058 0.47696 0.83886 0.0
H812 H 0.43428 0.6203 0.78606 0.0
H813 H 0.44932 0.56072 0.8281 0.0
H814 H 0.43148 0.58113 0.76893 0.0
H815 H 0.45168 0.60024 0.84424 0.0
H816 H 0.44284 0.51772 0.87703 0.0
H817 H 0.49881 0.49799 0.8386 0.0
H818 H 0.34379 0.58746 0.76273 0.0
H819 H 0.36945 0.60067 0.82714 0.0
H820 H 0.43258 0.47058 0.73809 0.0
H821 H 0.43911 0.47069 0.80459 0.0
H822 H 0.43007 0.42936 0.73337 0.0
H823 H 0.43676 0.42948 0.79867 0.0
H824 H 0.41124 0.49462 0.72095 0.0
H825 H 0.40312 0.56386 0.74037 0.0
H826 H 0.41928 0.50354 0.68552 0.0
H827 H 0.41098 0.57147 0.70454 0.0
H828 H 0.36539 0.42531 0.77971 0.0
H829 H 0.35335 0.44731 0.7199 0.0
H830 H 0.49414 0.50041 0.71181 0.0
H831 H 0.48018 0.56938 0.71518 0.0
Li832 Li 0.7839 0.39515 0.53355 0.0
Li833 Li 0.76722 0.36836 0.55417 0.0
Li834 Li 0.76217 0.36094 0.51633 0.0
Li835 Li 0.74165 0.39193 0.5382 0.0
C836 C 0.81286 0.36272 0.54146 0.0
N837 N 0.85674 0.36057 0.55791 0.0
C838 C 0.81993 0.37463 0.56093 0.0
C839 C 0.82807 0.34964 0.53037 0.0
C840 C 0.84219 0.37334 0.56898 0.0
C841 C 0.8502 0.3488 0.53895 0.0
C842 C 0.76837 0.41357 0.57818 0.0
C843 C 0.75015 0.42906 0.60904 0.0
N844 N 0.7708 0.43968 0.61672 0.0
C845 C 0.78935 0.42484 0.58629 0.0
C846 C 0.74855 0.41588 0.58955 0.0
C847 C 0.79024 0.43787 0.60583 0.0
C848 C 0.80404 0.43889 0.53482 0.0
N849 N 0.80849 0.41728 0.53014 0.0
C850 C 0.84521 0.42855 0.51751 0.0
C851 C 0.82863 0.41184 0.52172 0.0
C852 C 0.8407 0.45095 0.52156 0.0
C853 C 0.81991 0.45607 0.53047 0.0
H854 H 0.78777 0.44271 0.54128 0.0
H855 H 0.83155 0.39457 0.51761 0.0
C856 C 0.78251 0.33436 0.57628 0.0
N857 N 0.77151 0.35329 0.57838 0.0
C858 C 0.78566 0.32288 0.59336 0.0
C859 C 0.76588 0.35034 0.61441 0.0
C860 C 0.76298 0.36116 0.59693 0.0
C861 C 0.77747 0.33098 0.61281 0.0
H862 H 0.78872 0.32808 0.56127 0.0
H863 H 0.7535 0.37559 0.59817 0.0
C864 C 0.76728 0.40596 0.49821 0.0
N865 N 0.78714 0.43445 0.47258 0.0
C866 C 0.76069 0.42755 0.49892 0.0
C867 C 0.78381 0.39877 0.48436 0.0
C868 C 0.77098 0.44172 0.48585 0.0
C869 C 0.79369 0.41345 0.47155 0.0
C870 C 0.72796 0.34395 0.54946 0.0
C871 C 0.73271 0.32169 0.54628 0.0
C872 C 0.71405 0.35131 0.56564 0.0
C873 C 0.72362 0.30714 0.55957 0.0
C874 C 0.70526 0.33622 0.57857 0.0
N875 N 0.71021 0.31465 0.57531 0.0
C876 C 0.77229 0.32077 0.49358 0.0
C877 C 0.75073 0.34256 0.47388 0.0
C878 C 0.77432 0.30531 0.47588 0.0
N879 N 0.7609 0.33907 0.49221 0.0
C880 C 0.75228 0.32746 0.45576 0.0
C881 C 0.76455 0.3087 0.45654 0.0
H882 H 0.78032 0.3185 0.50835 0.0
H883 H 0.74203 0.35743 0.47319 0.0
C884 C 0.72018 0.43081 0.54889 0.0
N885 N 0.7156 0.40886 0.54138 0.0
C886 C 0.70227 0.44415 0.55339 0.0
C887 C 0.67506 0.4124 0.54118 0.0
C888 C 0.69359 0.39951 0.53731 0.0
C889 C 0.6792 0.43507 0.54962 0.0
H890 H 0.73785 0.43784 0.55195 0.0
H891 H 0.69041 0.382 0.53127 0.0
O892 O 0.79119 0.36376 0.53317 0.0
O893 O 0.76704 0.40121 0.5588 0.0
O894 O 0.75807 0.39211 0.5114 0.0
O895 O 0.73735 0.35862 0.53709 0.0
H896 H 0.8083 0.38457 0.56979 0.0
H897 H 0.82284 0.34032 0.51526 0.0
H898 H 0.84787 0.38246 0.58406 0.0
H899 H 0.86218 0.33879 0.53052 0.0
H900 H 0.73498 0.43084 0.61805 0.0
H901 H 0.80479 0.42369 0.57754 0.0
H902 H 0.73215 0.40735 0.5835 0.0
H903 H 0.80638 0.44662 0.61232 0.0
H904 H 0.86096 0.424 0.5104 0.0
H905 H 0.81587 0.47317 0.53381 0.0
H906 H 0.79464 0.30797 0.59142 0.0
H907 H 0.75875 0.35686 0.62896 0.0
H908 H 0.74798 0.43336 0.50963 0.0
H909 H 0.7892 0.38214 0.48376 0.0
H910 H 0.76618 0.45853 0.48632 0.0
H911 H 0.80664 0.40819 0.46088 0.0
H912 H 0.74356 0.31581 0.53386 0.0
H913 H 0.71033 0.36853 0.56834 0.0
H914 H 0.72728 0.28989 0.55741 0.0
H915 H 0.6946 0.34169 0.59125 0.0
H916 H 0.78368 0.29096 0.47728 0.0
H917 H 0.74472 0.3309 0.44117 0.0
H918 H 0.70661 0.46128 0.56028 0.0
H919 H 0.65772 0.4046 0.5376 0.0
Li920 Li 0.65007 0.99132 0.75623 0.0
Li921 Li 0.62269 0.01469 0.77486 0.0
Li922 Li 0.62203 1.00784 0.7359 0.0
Li923 Li 0.65314 0.03315 0.7548 0.0
C924 C 0.61052 0.96436 0.75851 0.0
N925 N 0.60049 0.92033 0.76398 0.0
C926 C 0.60347 0.95895 0.7778 0.0
C927 C 0.61225 0.94743 0.74195 0.0
C928 C 0.59852 0.93657 0.78026 0.0
C929 C 0.60719 0.92525 0.74505 0.0
C930 C 0.66634 0.01998 0.799 0.0
C931 C 0.68439 0.04425 0.82876 0.0
N932 N 0.68643 0.02628 0.8389 0.0
C933 C 0.66876 1.00177 0.80969 0.0
C934 C 0.67436 0.0414 0.80857 0.0
C935 C 0.6789 1.00529 0.82986 0.0
C936 C 0.68965 0.96941 0.74812 0.0
N937 N 0.66955 0.96757 0.7581 0.0
C938 C 0.68207 0.9373 0.77436 0.0
C939 C 0.66531 0.95153 0.77064 0.0
C940 C 0.70351 0.93966 0.76519 0.0
C941 C 0.70687 0.95555 0.75139 0.0
H942 H 0.69276 0.98238 0.73836 0.0
H943 H 0.64954 0.95059 0.77886 0.0
C944 C 0.5827 0.027 0.79431 0.0
N945 N 0.60338 0.01945 0.79833 0.0
C946 C 0.56784 0.03201 0.81041 0.0
C947 C 0.59537 0.02059 0.83452 0.0
C948 C 0.60976 0.01591 0.81794 0.0
C949 C 0.57413 0.02896 0.83092 0.0
H950 H 0.57788 0.0295 0.77857 0.0
H951 H 0.62597 1.00947 0.82082 0.0
C952 C 0.65662 1.00391 0.71102 0.0
N953 N 0.65676 0.99553 0.66802 0.0
C954 C 0.66084 0.02148 0.69935 0.0
C955 C 0.65274 0.98207 0.70087 0.0
C956 C 0.66077 0.0169 0.67761 0.0
C957 C 0.65281 0.97818 0.6791 0.0
C958 C 0.61473 0.05715 0.76243 0.0
C959 C 0.60097 0.06918 0.75087 0.0
C960 C 0.62336 0.06653 0.78235 0.0
C961 C 0.59623 0.09052 0.75942 0.0
C962 C 0.61822 0.08789 0.79037 0.0
N963 N 0.60489 0.09936 0.77882 0.0
C964 C 0.58746 0.98791 0.70397 0.0
C965 C 0.6039 0.0245 0.70167 0.0
C966 C 0.57278 0.98841 0.68647 0.0
N967 N 0.60255 1.00587 0.7112 0.0
C968 C 0.58971 0.02569 0.68418 0.0
C969 C 0.57363 1.00762 0.67643 0.0
H970 H 0.58652 0.97337 0.71198 0.0
H971 H 0.61597 0.03859 0.70782 0.0
C972 C 0.69526 0.06108 0.76197 0.0
N973 N 0.67346 0.05926 0.75344 0.0
C974 C 0.71006 0.08036 0.76126 0.0
C975 C 0.67987 0.09525 0.74251 0.0
C976 C 0.66574 0.07567 0.7435 0.0
C977 C 0.70231 0.09789 0.75162 0.0
H978 H 0.70109 0.04761 0.76949 0.0
H979 H 0.64857 0.07355 0.73628 0.0
O980 O 0.61532 0.98616 0.75578 0.0
O981 O 0.65682 0.01681 0.77907 0.0
O982 O 0.65608 1.00808 0.73226 0.0
O983 O 0.61965 0.03629 0.75421 0.0
H984 H 0.60195 0.97187 0.79075 0.0
H985 H 0.61751 0.95136 0.72689 0.0
H986 H 0.59314 0.93212 0.79512 0.0
H987 H 0.60856 0.91196 0.7324 0.0
H988 H 0.69062 0.06073 0.83634 0.0
H989 H 0.6625 0.98514 0.80267 0.0
H990 H 0.67296 0.05571 0.8005 0.0
H991 H 0.68071 0.99134 0.83834 0.0
H992 H 0.6788 0.92555 0.78536 0.0
H993 H 0.723 0.95782 0.74377 0.0
H994 H 0.55184 0.0387 0.80683 0.0
H995 H 0.60081 0.0176 0.84998 0.0
H996 H 0.6639 0.03847 0.70701 0.0
H997 H 0.64966 0.9683 0.70973 0.0
H998 H 0.66384 0.03034 0.66836 0.0
H999 H 0.64972 0.96136 0.67102 0.0
H1000 H 0.59405 0.06213 0.73545 0.0
H1001 H 0.63373 0.05732 0.79158 0.0
H1002 H 0.58566 0.10005 0.75063 0.0
H1003 H 0.62479 0.09534 0.80578 0.0
H1004 H 0.56055 0.97414 0.6812 0.0
H1005 H 0.59138 0.04068 0.67679 0.0
H1006 H 0.72718 0.08174 0.76857 0.0
H1007 H 0.67335 0.10814 0.73457 0.0
Li1008 Li 0.05921 0.23217 0.87656 0.0
Li1009 Li 0.04014 0.25787 0.9018 0.0
Li1010 Li 0.04134 0.21727 0.90489 0.0
Li1011 Li 0.01786 0.22797 0.87774 0.0
C1012 C 0.09029 0.24779 0.90544 0.0
N1013 N 0.13634 0.26092 0.90119 0.0
C1014 C 0.09792 0.27039 0.90645 0.0
C1015 C 0.10614 0.23189 0.90224 0.0
C1016 C 0.12126 0.27669 0.9043 0.0
C1017 C 0.12932 0.23886 0.90011 0.0
C1018 C 0.03579 0.25665 0.85052 0.0
C1019 C 0.03326 0.27957 0.82301 0.0
N1020 N 0.03216 0.26102 0.8086 0.0
C1021 C 0.03469 0.23781 0.83543 0.0
C1022 C 0.03511 0.27771 0.84428 0.0
C1023 C 0.03284 0.24037 0.81433 0.0
C1024 C 0.09172 0.21336 0.84868 0.0
N1025 N 0.08416 0.23261 0.85783 0.0
C1026 C 0.11186 0.25405 0.84028 0.0
C1027 C 0.09368 0.25274 0.85375 0.0
C1028 C 0.1205 0.23443 0.83098 0.0
C1029 C 0.11012 0.21388 0.83544 0.0
H1030 H 0.08348 0.19755 0.85157 0.0
H1031 H 0.08707 0.26783 0.86092 0.0
C1032 C 0.05065 0.29025 0.9366 0.0
N1033 N 0.04107 0.28701 0.91688 0.0
C1034 C 0.05283 0.31144 0.9482 0.0
C1035 C 0.03434 0.32543 0.9193 0.0
C1036 C 0.03278 0.30398 0.90814 0.0
C1037 C 0.04477 0.3294 0.9395 0.0
H1038 H 0.057 0.27638 0.94316 0.0
H1039 H 0.02507 0.30085 0.89248 0.0
C1040 C 0.03906 0.18248 0.87944 0.0
N1041 N 0.03959 0.14005 0.89033 0.0
C1042 C 0.01843 0.16982 0.88218 0.0
C1043 C 0.05998 0.17356 0.88247 0.0
C1044 C 0.01905 0.14842 0.88762 0.0
C1045 C 0.05989 0.15208 0.88789 0.0
C1046 C 0.99169 0.23758 0.9091 0.0
C1047 C 0.97613 0.21845 0.90538 0.0
C1048 C 0.98336 0.25847 0.91316 0.0
C1049 C 0.9525 0.22058 0.90549 0.0
C1050 C 0.9596 0.25991 0.91317 0.0
N1051 N 0.94479 0.24109 0.90934 0.0
C1052 C 0.06439 0.19271 0.93277 0.0
C1053 C 0.02384 0.19051 0.93485 0.0
C1054 C 0.0662 0.17984 0.94901 0.0
N1055 N 0.04344 0.19786 0.92607 0.0
C1056 C 0.02485 0.17776 0.95124 0.0
C1057 C 0.04628 0.17251 0.95872 0.0
H1058 H 0.07976 0.19892 0.92579 0.0
H1059 H 1.00741 0.19492 0.92943 0.0
C1060 C 0.98278 0.20334 0.84911 0.0
N1061 N 0.99008 0.22345 0.86023 0.0
C1062 C 0.96302 0.20091 0.83589 0.0
C1063 C 0.95926 0.24016 0.845 0.0
C1064 C 0.97884 0.24173 0.8583 0.0
C1065 C 0.95094 0.2195 0.83357 0.0
H1066 H 0.99247 0.18922 0.85018 0.0
H1067 H 0.98538 0.25769 0.86685 0.0
O1068 O 0.06738 0.24126 0.90702 0.0
O1069 O 0.03758 0.2546 0.87131 0.0
O1070 O 0.03882 0.20374 0.87461 0.0
O1071 O 0.01492 0.23589 0.90862 0.0
H1072 H 0.08597 0.28296 0.9085 0.0
H1073 H 0.10059 0.21432 0.90091 0.0
H1074 H 0.12735 0.29411 0.90497 0.0
H1075 H 0.1417 0.2267 0.89747 0.0
H1076 H 0.0327 0.29577 0.81796 0.0
H1077 H 0.03525 0.22137 0.83992 0.0
H1078 H 0.03605 0.29247 0.85574 0.0
H1079 H 0.03194 0.22593 0.80249 0.0
H1080 H 0.11881 0.27027 0.83705 0.0
H1081 H 0.11621 0.19826 0.82895 0.0
H1082 H 0.06077 0.31377 0.9638 0.0
H1083 H 0.02803 0.33888 0.91202 0.0
H1084 H 1.00208 0.17652 0.88051 0.0
H1085 H 0.07618 0.18326 0.88125 0.0
H1086 H 1.00319 0.13851 0.88982 0.0
H1087 H 0.07597 0.14507 0.89038 0.0
H1088 H 0.98219 0.20215 0.90211 0.0
H1089 H 0.99506 0.27345 0.9162 0.0
H1090 H 0.9403 0.20592 0.90244 0.0
H1091 H 0.95294 0.27599 0.91621 0.0
H1092 H 0.08309 0.17647 0.95448 0.0
H1093 H 1.00906 0.17236 0.95823 0.0
H1094 H 0.95734 0.18458 0.8276 0.0
H1095 H 0.95108 0.25515 0.84341 0.0
Li1096 Li 0.56211 0.73523 0.37439 0.0
Li1097 Li 0.54372 0.75987 0.4019 0.0
Li1098 Li 0.54653 0.71992 0.40331 0.0
Li1099 Li 0.52021 0.7299 0.37772 0.0
C1100 C 0.59485 0.74714 0.40264 0.0
N1101 N 0.64157 0.75305 0.39682 0.0
C1102 C 0.60557 0.76843 0.40158 0.0
C1103 C 0.6079 0.72888 0.40091 0.0
C1104 C 0.62921 0.77106 0.39859 0.0
C1105 C 0.63149 0.73221 0.39793 0.0
C1106 C 0.52655 0.76583 0.35751 0.0
C1107 C 0.49563 0.78779 0.35029 0.0
N1108 N 0.49808 0.78216 0.32947 0.0
C1109 C 0.52888 0.76035 0.33606 0.0
C1110 C 0.5099 0.77974 0.36472 0.0
C1111 C 0.51429 0.76876 0.32213 0.0
C1112 C 0.59575 0.71663 0.34882 0.0
N1113 N 0.58611 0.73575 0.35508 0.0
C1114 C 0.61175 0.75601 0.33469 0.0
C1115 C 0.59363 0.75525 0.3483 0.0
C1116 C 0.6222 0.73651 0.32804 0.0
C1117 C 0.61395 0.71665 0.33538 0.0
H1118 H 0.58951 0.7014 0.35448 0.0
H1119 H 0.58564 0.77023 0.35358 0.0
C1120 C 0.5356 0.79395 0.43486 0.0
N1121 N 0.54453 0.78946 0.41579 0.0
C1122 C 0.53626 0.81593 0.44467 0.0
C1123 C 0.55509 0.82818 0.4149 0.0
C1124 C 0.55406 0.80601 0.4057 0.0
C1125 C 0.54615 0.83341 0.43468 0.0
H1126 H 0.52792 0.78051 0.44245 0.0
H1127 H 0.56079 0.80193 0.39042 0.0
C1128 C 0.53884 0.68456 0.37334 0.0
N1129 N 0.53219 0.63903 0.37348 0.0
C1130 C 0.51676 0.6734 0.36976 0.0
C1131 C 0.55755 0.67254 0.3769 0.0
C1132 C 0.51375 0.65038 0.36991 0.0
C1133 C 0.55383 0.64954 0.37695 0.0
C1134 C 0.50838 0.72546 0.42247 0.0
C1135 C 0.49134 0.70805 0.41586 0.0
C1136 C 0.51534 0.73015 0.4436 0.0
C1137 C 0.48151 0.69562 0.43054 0.0
C1138 C 0.50513 0.71729 0.45778 0.0
N1139 N 0.48856 0.70044 0.45102 0.0
C1140 C 0.56913 0.70834 0.43839 0.0
C1141 C 0.54009 0.68008 0.42449 0.0
C1142 C 0.575 0.69601 0.45411 0.0
N1143 N 0.55219 0.70017 0.42374 0.0
C1144 C 0.54563 0.66699 0.43984 0.0
C1145 C 0.56347 0.67483 0.45489 0.0
H1146 H 0.57799 0.72465 0.43806 0.0
H1147 H 0.52609 0.67416 0.41325 0.0
C1148 C 0.49133 0.71649 0.34127 0.0
N1149 N 0.49172 0.72548 0.36169 0.0
C1150 C 0.47163 0.71653 0.32839 0.0
C1151 C 0.45289 0.73437 0.35799 0.0
C1152 C 0.47297 0.73412 0.37025 0.0
C1153 C 0.45215 0.72592 0.33663 0.0
H1154 H 0.50669 0.71018 0.3348 0.0
H1155 H 0.47392 0.74154 0.38644 0.0
O1156 O 0.5716 0.74409 0.40483 0.0
O1157 O 0.54009 0.75712 0.37137 0.0
O1158 O 0.54215 0.70704 0.37289 0.0
O1159 O 0.51858 0.73747 0.40824 0.0
H1160 H 0.5957 0.78271 0.40284 0.0
H1161 H 0.59982 0.71228 0.4016 0.0
H1162 H 0.63772 0.78742 0.39761 0.0
H1163 H 0.64178 0.71821 0.39642 0.0
H1164 H 0.48253 0.79842 0.35563 0.0
H1165 H 0.54162 0.74949 0.33027 0.0
H1166 H 0.5078 0.784 0.3813 0.0
H1167 H 0.51577 0.76454 0.30548 0.0
H1168 H 0.61734 0.77165 0.3293 0.0
H1169 H 0.6217 0.70128 0.33107 0.0
H1170 H 0.52931 0.81917 0.45997 0.0
H1171 H 0.56248 0.84111 0.40645 0.0
H1172 H 0.50208 0.68239 0.36695 0.0
H1173 H 0.57471 0.68089 0.37996 0.0
H1174 H 0.49675 0.64155 0.36722 0.0
H1175 H 0.56812 0.64005 0.37983 0.0
H1176 H 0.48592 0.70402 0.39955 0.0
H1177 H 0.52884 0.74325 0.44893 0.0
H1178 H 0.46835 0.68206 0.42563 0.0
H1179 H 0.51048 0.72062 0.47415 0.0
H1180 H 0.58828 0.70326 0.46573 0.0
H1181 H 0.53614 0.65084 0.43976 0.0
H1182 H 0.47204 0.71012 0.31199 0.0
H1183 H 0.43822 0.74148 0.36512 0.0
Li1184 Li 0.02445 0.78627 0.64575 0.0
Li1185 Li 1.00037 0.77132 0.67535 0.0
Li1186 Li 0.04159 0.76613 0.67209 0.0
Li1187 Li 0.01435 0.74625 0.64656 0.0
C1188 C 0.043 0.80669 0.69112 0.0
N1189 N 0.07627 0.82815 0.72001 0.0
C1190 C 0.04106 0.80476 0.71229 0.0
C1191 C 0.06172 0.81962 0.68463 0.0
C1192 C 0.05811 0.81572 0.72666 0.0
C1193 C 0.07839 0.83033 0.69948 0.0
C1194 C 0.97581 0.75841 0.63146 0.0
C1195 C 0.94145 0.73286 0.62527 0.0
N1196 N 0.9426 0.73367 0.60442 0.0
C1197 C 0.97652 0.7592 0.61 0.0
C1198 C 0.95804 0.74531 0.63921 0.0
C1199 C 0.95963 0.74649 0.59657 0.0
C1200 C 0.03346 0.79774 0.60706 0.0
N1201 N 0.029 0.80738 0.62648 0.0
C1202 C 0.03048 0.84328 0.61484 0.0
C1203 C 0.02768 0.82974 0.63075 0.0
C1204 C 0.03444 0.83355 0.59445 0.0
C1205 C 0.03622 0.8105 0.5908 0.0
H1206 H 0.03458 0.77997 0.60413 0.0
H1207 H 0.02418 0.83702 0.64638 0.0
C1208 C 0.97679 0.76787 0.71259 0.0
N1209 N 0.97657 0.77708 0.69455 0.0
C1210 C 0.95962 0.77151 0.72689 0.0
C1211 C 0.94277 0.7948 0.70424 0.0
C1212 C 0.96003 0.79034 0.69015 0.0
C1213 C 0.94239 0.78522 0.72285 0.0
H1214 H 0.99036 0.75769 0.71588 0.0
H1215 H 0.9603 0.79754 0.67573 0.0
C1216 C 0.06261 0.75086 0.63542 0.0
N1217 N 0.1001 0.72852 0.62321 0.0
C1218 C 0.06411 0.72913 0.63971 0.0
C1219 C 0.08007 0.76119 0.62477 0.0
C1220 C 0.08322 0.71812 0.63344 0.0
C1221 C 0.09892 0.74963 0.61878 0.0
C1222 C 1.00985 0.72342 0.68173 0.0
C1223 C 0.02653 0.7087 0.68393 0.0
C1224 C 0.9868 0.71687 0.68498 0.0
C1225 C 0.0198 0.68748 0.68892 0.0
C1226 C 0.98077 0.69553 0.68999 0.0
N1227 N 0.99725 0.68139 0.69181 0.0
C1228 C 0.06821 0.75571 0.70643 0.0
C1229 C 0.09004 0.77249 0.68147 0.0
C1230 C 0.08825 0.7539 0.7183 0.0
N1231 N 0.06947 0.76467 0.68828 0.0
C1232 C 0.1105 0.77082 0.69272 0.0
C1233 C 0.1098 0.76126 0.71133 0.0
H1234 H 0.0516 0.74987 0.71164 0.0
H1235 H 0.09059 0.78009 0.6673 0.0
C1236 C 0.01492 0.72244 0.60692 0.0
N1237 N 1.00737 0.71993 0.62622 0.0
C1238 C 1.01037 0.70535 0.59026 0.0
C1239 C 0.99062 0.68297 0.61354 0.0
C1240 C 0.99537 0.70064 0.62977 0.0
C1241 C 0.99799 0.6853 0.59342 0.0
H1242 H 0.02419 0.73797 0.60436 0.0
H1243 H 0.98908 0.69896 0.64498 0.0
O1244 O 0.02694 0.79549 0.67676 0.0
O1245 O 0.99265 0.77006 0.64481 0.0
O1246 O 0.04413 0.76203 0.64153 0.0
O1247 O 0.01617 0.74442 0.67724 0.0
H1248 H 0.02671 0.79468 0.7175 0.0
H1249 H 0.06349 0.82113 0.66825 0.0
H1250 H 0.05694 0.81427 0.74308 0.0
H1251 H 0.09307 0.8403 0.69469 0.0
H1252 H 0.92768 0.72253 0.63104 0.0
H1253 H 0.99014 0.76928 0.60376 0.0
H1254 H 0.95715 0.74468 0.65578 0.0
H1255 H 0.96009 0.74676 0.57991 0.0
H1256 H 0.02898 0.86098 0.61831 0.0
H1257 H 0.03968 0.80233 0.57546 0.0
H1258 H 0.9601 0.76408 0.74119 0.0
H1259 H 0.92976 0.80546 0.70056 0.0
H1260 H 0.05059 0.72082 0.64765 0.0
H1261 H 0.07912 0.77802 0.62132 0.0
H1262 H 0.08461 0.70129 0.63668 0.0
H1263 H 0.11262 0.75745 0.61061 0.0
H1264 H 0.04452 0.71363 0.682 0.0
H1265 H 0.97366 0.72803 0.68348 0.0
H1266 H 0.03252 0.6759 0.69059 0.0
H1267 H 0.96298 0.6902 0.69241 0.0
H1268 H 0.08694 0.74639 0.73253 0.0
H1269 H 0.12671 0.77711 0.68699 0.0
H1270 H 0.01648 0.70782 0.57503 0.0
H1271 H 0.98075 0.66787 0.61657 0.0
Li1272 Li 0.52476 0.29541 0.14286 0.0
Li1273 Li 0.50142 0.28067 0.17279 0.0
Li1274 Li 0.54208 0.27589 0.16958 0.0
Li1275 Li 0.51475 0.25515 0.1441 0.0
C1276 C 0.54269 0.31635 0.18886 0.0
N1277 N 0.57431 0.33812 0.21911 0.0
C1278 C 0.53971 0.31423 0.20986 0.0
C1279 C 0.56164 0.32964 0.18321 0.0
C1280 C 0.55593 0.32534 0.22493 0.0
C1281 C 0.57746 0.3405 0.19875 0.0
C1282 C 0.47569 0.26643 0.13017 0.0
C1283 C 0.44219 0.23971 0.12675 0.0
N1284 N 0.44162 0.23968 0.10571 0.0
C1285 C 0.47472 0.26625 0.10855 0.0
C1286 C 0.45927 0.25314 0.1394 0.0
C1287 C 0.45738 0.25257 0.09644 0.0
C1288 C 0.53241 0.3071 0.10362 0.0
N1289 N 0.52996 0.31658 0.12356 0.0
C1290 C 0.54025 0.35291 0.11415 0.0
C1291 C 0.53334 0.33909 0.12902 0.0
C1292 C 0.54399 0.34335 0.09367 0.0
C1293 C 0.53949 0.32017 0.08843 0.0
H1294 H 0.52982 0.28917 0.09974 0.0
H1295 H 0.53147 0.34623 0.14503 0.0
C1296 C 0.47525 0.27249 0.20724 0.0
N1297 N 0.47737 0.28565 0.19188 0.0
C1298 C 0.45762 0.27467 0.22128 0.0
C1299 C 0.44498 0.30444 0.20386 0.0
C1300 C 0.46273 0.30148 0.18998 0.0
C1301 C 0.44209 0.29084 0.21979 0.0
H1302 H 0.48722 0.26017 0.20854 0.0
H1303 H 0.46484 0.3118 0.17766 0.0
C1304 C 0.56471 0.26919 0.12953 0.0
N1305 N 0.60567 0.26588 0.10955 0.0
C1306 C 0.57187 0.24827 0.12252 0.0
C1307 C 0.57827 0.28842 0.1261 0.0
C1308 C 0.59267 0.24696 0.11254 0.0
C1309 C 0.59895 0.2864 0.11605 0.0
C1310 C 0.5236 0.23285 0.17749 0.0
C1311 C 0.54411 0.22611 0.16935 0.0
C1312 C 0.50993 0.2185 0.18826 0.0
C1313 C 0.5507 0.20518 0.17219 0.0
C1314 C 0.51709 0.19767 0.19075 0.0
N1315 N 0.53716 0.1915 0.18274 0.0
C1316 C 0.59052 0.28415 0.1799 0.0
C1317 C 0.56917 0.26664 0.20465 0.0
C1318 C 0.61096 0.28373 0.19156 0.0
N1319 N 0.57017 0.2754 0.18636 0.0
C1320 C 0.58925 0.26592 0.21689 0.0
C1321 C 0.6106 0.27446 0.21034 0.0
H1322 H 0.59097 0.29173 0.16581 0.0
H1323 H 0.55273 0.26026 0.2098 0.0
C1324 C 0.51416 0.22783 0.10551 0.0
N1325 N 0.50714 0.22805 0.12536 0.0
C1326 C 0.50908 0.20889 0.09079 0.0
C1327 C 0.48954 0.19067 0.11714 0.0
C1328 C 0.49485 0.21006 0.13133 0.0
C1329 C 0.49667 0.18993 0.09654 0.0
H1330 H 0.52363 0.24247 0.10108 0.0
H1331 H 0.48891 0.21082 0.14703 0.0
O1332 O 0.52741 0.30503 0.17385 0.0
O1333 O 0.49302 0.27901 0.14223 0.0
O1334 O 0.54408 0.27082 0.13887 0.0
O1335 O 0.51659 0.25315 0.1746 0.0
H1336 H 0.52517 0.30388 0.21443 0.0
H1337 H 0.56426 0.33129 0.16698 0.0
H1338 H 0.55394 0.32375 0.24124 0.0
H1339 H 0.5923 0.35073 0.19462 0.0
H1340 H 0.42945 0.22923 0.13365 0.0
H1341 H 0.48737 0.27638 0.10118 0.0
H1342 H 0.45992 0.25297 0.15612 0.0
H1343 H 0.4565 0.25214 0.07966 0.0
H1344 H 0.54363 0.37071 0.11881 0.0
H1345 H 0.54195 0.31215 0.07279 0.0
H1346 H 0.45604 0.26351 0.23296 0.0
H1347 H 0.4338 0.31741 0.20221 0.0
H1348 H 0.56144 0.23318 0.12463 0.0
H1349 H 0.57308 0.30476 0.13145 0.0
H1350 H 0.59843 0.23087 0.1071 0.0
H1351 H 0.60966 0.30115 0.11345 0.0
H1352 H 0.55492 0.23697 0.16107 0.0
H1353 H 0.49382 0.22324 0.19441 0.0
H1354 H 0.56659 0.19981 0.16601 0.0
H1355 H 0.50665 0.18639 0.199 0.0
H1356 H 0.62695 0.29037 0.18571 0.0
H1357 H 0.58802 0.25896 0.23141 0.0
H1358 H 0.51503 0.20901 0.07512 0.0
H1359 H 0.47961 0.17656 0.12213 0.0
H1360 H 0.27768 0.78043 0.85159 0.0
H1361 H 0.25114 0.72157 0.87673 0.0
H1362 H 0.24588 0.74409 0.91027 0.0
H1363 H 0.24898 0.78057 0.93241 0.0
H1364 H 0.27803 0.83888 0.90745 0.0
H1365 H 0.2815 0.81661 0.87383 0.0
C1366 C 0.27053 0.77257 0.86436 0.0
C1367 C 0.26466 0.7494 0.86165 0.0
C1368 C 0.26785 0.78556 0.88362 0.0
C1369 C 0.25584 0.73938 0.87846 0.0
C1370 C 0.25279 0.75226 0.89761 0.0
C1371 C 0.25626 0.78844 0.91972 0.0
C1372 C 0.26299 0.81156 0.92264 0.0
C1373 C 0.25883 0.77537 0.9004 0.0
C1374 C 0.27212 0.82132 0.90574 0.0
C1375 C 0.27436 0.80853 0.88646 0.0
H1376 H 1.00777 0.53909 0.41534 0.0
H1377 H 0.99282 0.60032 0.39331 0.0
H1378 H 0.02321 0.59662 0.36839 0.0
H1379 H 0.05218 0.57473 0.35115 0.0
H1380 H 0.06696 0.51313 0.37251 0.0
H1381 H 0.03889 0.5184 0.39957 0.0
C1382 C 0.0115 0.55181 0.40536 0.0
C1383 C 0.99792 0.56985 0.40606 0.0
C1384 C 0.02887 0.54943 0.39082 0.0
C1385 C 1.00283 0.58613 0.39289 0.0
C1386 C 0.0202 0.58403 0.37863 0.0
C1387 C 0.04926 0.56246 0.36173 0.0
C1388 C 0.06151 0.54347 0.35966 0.0
C1389 C 0.03296 0.56549 0.37712 0.0
C1390 C 0.05785 0.52795 0.3738 0.0
C1391 C 0.0417 0.5309 0.38922 0.0
H1392 H 0.82834 0.73848 0.84062 0.0
H1393 H 0.82821 0.79883 0.88413 0.0
H1394 H 0.82358 0.77705 0.91287 0.0
H1395 H 0.81959 0.74088 0.92601 0.0
H1396 H 0.82193 0.68054 0.88321 0.0
H1397 H 0.82612 0.70225 0.85405 0.0
C1398 C 0.82755 0.74691 0.8564 0.0
C1399 C 0.82825 0.77036 0.85998 0.0
C1400 C 0.82532 0.73426 0.87309 0.0
C1401 C 0.82707 0.78085 0.88064 0.0
C1402 C 0.82461 0.7684 0.89721 0.0
C1403 C 0.82089 0.7325 0.91027 0.0
C1404 C 0.82029 0.70913 0.90676 0.0
C1405 C 0.82357 0.7451 0.89363 0.0
C1406 C 0.82242 0.69852 0.88633 0.0
C1407 C 0.82475 0.71093 0.86965 0.0
H1408 H 0.0456 0.01685 0.44468 0.0
H1409 H 0.04674 0.9474 0.42022 0.0
H1410 H 0.02103 0.95187 0.39104 0.0
H1411 H 0.99915 0.97553 0.37169 0.0
H1412 H 0.99867 0.04528 0.39501 0.0
H1413 H 0.02301 0.04062 0.42533 0.0
C1414 C 0.04022 1.00271 0.43295 0.0
C1415 C 0.04802 0.98178 0.43484 0.0
C1416 C 0.02556 1.00543 0.41593 0.0
C1417 C 0.0407 0.9636 0.41952 0.0
C1418 C 0.02613 0.96617 0.40266 0.0
C1419 C 1.00448 0.98977 0.38332 0.0
C1420 C 0.99719 0.01075 0.38095 0.0
C1421 C 0.0186 0.98702 0.40061 0.0
C1422 C 1.00386 0.0289 0.39647 0.0
C1423 C 0.01791 0.02627 0.41377 0.0
H1424 H 0.29335 0.24298 0.67969 0.0
H1425 H 0.26596 0.29967 0.65786 0.0
H1426 H 0.26776 0.28216 0.62165 0.0
H1427 H 0.27566 0.24979 0.59624 0.0
H1428 H 0.3021 0.19305 0.61891 0.0
H1429 H 0.30173 0.21137 0.65474 0.0
C1430 C 0.28753 0.25145 0.66704 0.0
C1431 C 0.27929 0.2725 0.67152 0.0
C1432 C 0.28833 0.2412 0.64639 0.0
C1433 C 0.27246 0.28349 0.65487 0.0
C1434 C 0.27337 0.27343 0.63417 0.0
C1435 C 0.28149 0.24156 0.60904 0.0
C1436 C 0.28868 0.21999 0.60493 0.0
C1437 C 0.28111 0.25218 0.62974 0.0
C1438 C 0.29611 0.20948 0.62168 0.0
C1439 C 0.29601 0.21998 0.64217 0.0
H1440 H 0.5607 0.5655 0.64611 0.0
H1441 H 0.53834 0.49987 0.6142 0.0
H1442 H 0.5135 0.49282 0.64288 0.0
H1443 H 0.49655 0.50621 0.67612 0.0
H1444 H 0.51981 0.57173 0.70812 0.0
H1445 H 0.54541 0.57807 0.68006 0.0
C1446 C 0.55035 0.54965 0.64541 0.0
C1447 C 0.5512 0.53331 0.62793 0.0
C1448 C 0.53605 0.54579 0.66187 0.0
C1449 C 0.53806 0.5127 0.62749 0.0
C1450 C 0.52375 0.50872 0.64383 0.0
C1451 C 0.50744 0.52176 0.67715 0.0
C1452 C 0.50596 0.53854 0.69423 0.0
C1453 C 0.52241 0.52526 0.661 0.0
C1454 C 0.5201 0.55868 0.69503 0.0
C1455 C 0.53493 0.56228 0.67904 0.0
H1456 H 0.77887 0.26967 0.68459 0.0
H1457 H 0.79829 0.33355 0.72137 0.0
H1458 H 0.79846 0.35157 0.6899 0.0
H1459 H 0.79093 0.34966 0.65225 0.0
H1460 H 0.77111 0.28617 0.61503 0.0
H1461 H 0.77367 0.26749 0.64619 0.0
C1462 C 0.78348 0.28747 0.68563 0.0
C1463 C 0.78828 0.30028 0.70533 0.0
C1464 C 0.78338 0.29782 0.6674 0.0
C1465 C 0.79414 0.32336 0.70645 0.0
C1466 C 0.79429 0.33369 0.68845 0.0
C1467 C 0.78716 0.33173 0.65096 0.0
C1468 C 0.78062 0.31936 0.63139 0.0
C1469 C 0.78849 0.32117 0.66891 0.0
C1470 C 0.77626 0.29608 0.6299 0.0
C1471 C 0.77761 0.2854 0.64774 0.0
H1472 H 0.51232 0.03185 0.60179 0.0
H1473 H 0.51884 0.96305 0.57825 0.0
H1474 H 0.54032 0.95867 0.61022 0.0
H1475 H 0.55952 0.97505 0.64392 0.0
H1476 H 0.55199 0.04361 0.66776 0.0
H1477 H 0.52869 0.04731 0.63671 0.0
C1478 C 0.51803 0.01577 0.6038 0.0
C1479 C 0.5141 0.99788 0.58751 0.0
C1480 C 0.53047 0.01336 0.62223 0.0
C1481 C 0.52191 0.97723 0.59037 0.0
C1482 C 0.53418 0.97468 0.60869 0.0
C1483 C 0.5525 0.99071 0.64251 0.0
C1484 C 0.55787 1.0091 0.65812 0.0
C1485 C 0.53893 0.99274 0.62458 0.0
C1486 C 0.54868 0.0293 0.65583 0.0
C1487 C 0.53518 0.03141 0.63811 0.0
H1488 H 0.86982 0.19998 0.76383 0.0
H1489 H 0.84185 0.25193 0.80452 0.0
H1490 H 0.87565 0.25492 0.82841 0.0
H1491 H 0.91263 0.24226 0.83809 0.0
H1492 H 0.94219 0.19225 0.7961 0.0
H1493 H 0.90808 0.18864 0.77274 0.0
C1494 C 0.87122 0.21195 0.77793 0.0
C1495 C 0.85345 0.22575 0.78241 0.0
C1496 C 0.89085 0.21378 0.79149 0.0
C1497 C 0.85545 0.2413 0.80065 0.0
C1498 C 0.8747 0.24293 0.81436 0.0
C1499 C 0.9119 0.2308 0.8237 0.0
C1500 C 0.93011 0.21749 0.8191 0.0
C1501 C 0.8925 0.22924 0.80995 0.0
C1502 C 0.92836 0.20241 0.80046 0.0
C1503 C 0.9089 0.20045 0.78691 0.0
H1504 H 0.56289 0.93633 0.46773 0.0
H1505 H 0.49393 0.92386 0.48835 0.0
H1506 H 0.49394 0.88427 0.47539 0.0
H1507 H 0.51263 0.85361 0.45627 0.0
H1508 H 0.5815 0.86625 0.43542 0.0
H1509 H 0.5822 0.90543 0.44998 0.0
C1510 C 0.54785 0.92496 0.46936 0.0
C1511 C 0.52841 0.93309 0.47892 0.0
C1512 C 0.54784 0.90228 0.46162 0.0
C1513 C 0.50921 0.91804 0.48125 0.0
C1514 C 0.50913 0.89541 0.47369 0.0
C1515 C 0.52792 0.86485 0.45517 0.0
C1516 C 0.54692 0.85698 0.44462 0.0
C1517 C 0.52824 0.88739 0.46362 0.0
C1518 C 0.56648 0.8719 0.44313 0.0
C1519 C 0.56695 0.8943 0.45156 0.0
H1520 H 0.19873 0.22079 0.76628 0.0
H1521 H 0.22767 0.28317 0.80064 0.0
H1522 H 0.19402 0.2842 0.82246 0.0
H1523 H 0.1576 0.266 0.83293 0.0
H1524 H 0.12759 0.20485 0.79643 0.0
H1525 H 0.16067 0.20451 0.77456 0.0
C1526 C 0.19751 0.23467 0.77847 0.0
C1527 C 0.21558 0.2518 0.78205 0.0
C1528 C 0.17812 0.2352 0.79072 0.0
C1529 C 0.21386 0.26985 0.79767 0.0
C1530 C 0.19471 0.27036 0.81016 0.0
C1531 C 0.15799 0.25278 0.81998 0.0
C1532 C 0.14011 0.23526 0.81672 0.0
C1533 C 0.17686 0.25295 0.80699 0.0
C1534 C 0.14129 0.21821 0.79988 0.0
C1535 C 0.16014 0.21809 0.78716 0.0
H1536 H 0.60567 0.63396 0.53072 0.0
H1537 H 0.53524 0.60696 0.53363 0.0
H1538 H 0.52488 0.62243 0.50181 0.0
H1539 H 0.53534 0.64699 0.47546 0.0
H1540 H 0.60656 0.67215 0.47184 0.0
H1541 H 0.61704 0.65425 0.50174 0.0
C1542 C 0.58816 0.63114 0.5241 0.0
C1543 C 0.5712 0.61945 0.5344 0.0
C1544 C 0.5824 0.6401 0.50593 0.0
C1545 C 0.54857 0.6158 0.52579 0.0
C1546 C 0.54264 0.6248 0.50773 0.0
C1547 C 0.55324 0.64821 0.48088 0.0
C1548 C 0.56998 0.66148 0.47159 0.0
C1549 C 0.55932 0.63747 0.49796 0.0
C1550 C 0.59309 0.66278 0.47902 0.0
C1551 C 0.5992 0.65235 0.49606 0.0
H1552 H 0.87412 0.82157 0.79012 0.0
H1553 H 0.85658 0.75105 0.7903 0.0
H1554 H 0.88482 0.74277 0.76411 0.0
H1555 H 0.91483 0.75549 0.74114 0.0
H1556 H 0.93005 0.82581 0.73915 0.0
H1557 H 0.9019 0.83417 0.76559 0.0
C1558 C 0.876 0.80434 0.7842 0.0
C1559 C 0.8631 0.78701 0.79244 0.0
C1560 C 0.89189 0.79963 0.7687 0.0
C1561 C 0.86645 0.76483 0.7847 0.0
C1562 C 0.88253 0.76003 0.76955 0.0
C1563 C 0.91192 0.77262 0.74652 0.0
C1564 C 0.92455 0.79002 0.73828 0.0
C1565 C 0.89545 0.77729 0.76152 0.0
C1566 C 0.92045 0.81214 0.74518 0.0
C1567 C 0.90442 0.81692 0.76035 0.0
H1568 H 0.04059 0.86993 0.50795 0.0
H1569 H 0.08628 0.92144 0.5442 0.0
H1570 H 0.07703 0.90539 0.57616 0.0
H1571 H 0.05895 0.87411 0.59305 0.0
H1572 H 0.01369 0.82273 0.55583 0.0
H1573 H 0.01982 0.84123 0.52507 0.0
C1574 C 0.04833 0.87778 0.5229 0.0
C1575 C 0.06428 0.89667 0.52372 0.0
C1576 C 0.04321 0.86829 0.54102 0.0
C1577 C 0.07392 0.9069 0.5432 0.0
C1578 C 0.06876 0.89762 0.56143 0.0
C1579 C 0.05015 0.86721 0.57828 0.0
C1580 C 0.03621 0.84681 0.57669 0.0
C1581 C 0.05387 0.87794 0.56045 0.0
C1582 C 0.02491 0.83811 0.55741 0.0
C1583 C 0.02833 0.84872 0.5398 0.0
H1584 H 0.19649 0.75968 0.77265 0.0
H1585 H 0.22538 0.73515 0.71444 0.0
H1586 H 0.18873 0.73669 0.69584 0.0
H1587 H 0.1489 0.74621 0.6957 0.0
H1588 H 0.1193 0.77049 0.75354 0.0
H1589 H 0.15555 0.76751 0.77269 0.0
C1590 C 0.19464 0.75441 0.75595 0.0
C1591 C 0.21378 0.74761 0.74494 0.0
C1592 C 0.17339 0.75536 0.74524 0.0
C1593 C 0.21109 0.74089 0.72326 0.0
C1594 C 0.1901 0.74168 0.71259 0.0
C1595 C 0.15041 0.75095 0.71249 0.0
C1596 C 0.1315 0.75876 0.72314 0.0
C1597 C 0.17125 0.74921 0.72335 0.0
C1598 C 0.13358 0.76436 0.74497 0.0
C1599 C 0.15434 0.76274 0.75591 0.0
H1600 H 0.96637 0.62072 0.51074 0.0
H1601 H 0.98724 0.57173 0.54815 0.0
H1602 H 0.99865 0.60112 0.57717 0.0
H1603 H 1.00167 0.64077 0.59232 0.0
H1604 H 0.98121 0.68955 0.55453 0.0
H1605 H 0.97105 0.66027 0.52519 0.0
C1606 C 0.97385 0.61646 0.52507 0.0
C1607 C 0.97592 0.59399 0.5272 0.0
C1608 C 0.98036 0.63344 0.5417 0.0
C1609 C 0.98523 0.58884 0.54611 0.0
C1610 C 0.99179 0.60565 0.56273 0.0
C1611 C 0.99493 0.64494 0.57767 0.0
C1612 C 0.99218 0.6673 0.57563 0.0
C1613 C 0.98916 0.62799 0.5608 0.0
C1614 C 0.98369 0.6725 0.55645 0.0
C1615 C 0.9778 0.65576 0.53969 0.0
H1616 H 0.80212 0.84886 0.20866 0.0
H1617 H 0.82378 0.82159 0.26358 0.0
H1618 H 0.84449 0.85733 0.2776 0.0
H1619 H 0.85757 0.896 0.27389 0.0
H1620 H 0.83759 0.92288 0.21827 0.0
H1621 H 0.81514 0.88772 0.20501 0.0
C1622 C 0.81145 0.8507 0.22366 0.0
C1623 C 0.81127 0.8325 0.23503 0.0
C1624 C 0.82368 0.87127 0.23154 0.0
C1625 C 0.82322 0.83534 0.2546 0.0
C1626 C 0.83527 0.85576 0.26258 0.0
C1627 C 0.84844 0.89415 0.2588 0.0
C1628 C 0.84937 0.91212 0.24711 0.0
C1629 C 0.83578 0.87377 0.25112 0.0
C1630 C 0.83701 0.90948 0.22776 0.0
C1631 C 0.82428 0.8893 0.22007 0.0
H1632 H 0.77583 0.15883 0.30948 0.0
H1633 H 0.8302 0.20543 0.34039 0.0
H1634 H 0.85726 0.17677 0.3358 0.0
H1635 H 0.8658 0.13911 0.32112 0.0
H1636 H 0.81018 0.09164 0.29301 0.0
H1637 H 0.78351 0.12006 0.29805 0.0
C1638 C 0.79358 0.16257 0.31536 0.0
C1639 C 0.80111 0.18414 0.32518 0.0
C1640 C 0.8089 0.14596 0.3129 0.0
C1641 C 0.82405 0.18886 0.33288 0.0
C1642 C 0.83952 0.17252 0.33015 0.0
C1643 C 0.8478 0.13473 0.3164 0.0
C1644 C 0.84038 0.11314 0.30623 0.0
C1645 C 0.8322 0.15105 0.31995 0.0
C1646 C 0.81684 0.10817 0.30018 0.0
C1647 C 0.80138 0.1244 0.30326 0.0
H1648 H 0.40226 0.04003 0.97394 0.0
H1649 H 0.45449 0.02908 0.01902 0.0
H1650 H 0.42975 0.99774 0.029 0.0
H1651 H 0.39258 0.97404 0.0254 0.0
H1652 H 0.33959 0.98717 0.98201 0.0
H1653 H 0.36521 0.01697 0.97074 0.0
C1654 C 0.40827 0.0306 0.98579 0.0
C1655 C 0.43019 0.0366 0.9956 0.0
C1656 C 0.39375 0.01307 0.99177 0.0
C1657 C 0.43767 0.02463 0.01124 0.0
C1658 C 0.42354 1.00676 0.01693 0.0
C1659 C 0.38681 0.98341 0.01342 0.0
C1660 C 0.36434 0.9785 1.00448 0.0
C1661 C 0.40147 1.0009 1.00739 0.0
C1662 C 0.35683 0.99081 0.98912 0.0
C1663 C 0.37146 1.00779 0.98267 0.0
H1664 H 0.3012 0.41848 0.30843 0.0
H1665 H 0.25516 0.36065 0.31526 0.0
H1666 H 0.22312 0.37751 0.30006 0.0
H1667 H 0.20764 0.41028 0.28766 0.0
H1668 H 0.25423 0.46814 0.28161 0.0
H1669 H 0.28652 0.44969 0.29355 0.0
C1670 C 0.28418 0.40948 0.30639 0.0
C1671 C 0.28049 0.38845 0.31312 0.0
C1672 C 0.26588 0.41938 0.29791 0.0
C1673 C 0.25845 0.37682 0.31011 0.0
C1674 C 0.2401 0.38655 0.30159 0.0
C1675 C 0.22489 0.41877 0.28886 0.0
C1676 C 0.22844 0.44061 0.28377 0.0
C1677 C 0.2435 0.40807 0.2959 0.0
C1678 C 0.25097 0.45127 0.28517 0.0
C1679 C 0.26947 0.44078 0.29214 0.0
H1680 H 0.10625 0.03561 0.48052 0.0
H1681 H 0.14548 0.97879 0.4692 0.0
H1682 H 0.18127 1.00335 0.47245 0.0
H1683 H 0.20154 0.04109 0.4779 0.0
H1684 H 0.16262 0.09796 0.49017 0.0
H1685 H 0.12668 0.0734 0.48708 0.0
C1686 C 0.12266 0.02865 0.47881 0.0
C1687 C 0.12318 1.0054 0.47471 0.0
C1688 C 0.14324 0.0429 0.48076 0.0
C1689 C 0.14459 0.9966 0.47266 0.0
C1690 C 0.16507 1.01064 0.47436 0.0
C1691 C 0.18516 0.04806 0.47978 0.0
C1692 C 0.18469 0.07128 0.48412 0.0
C1693 C 0.16461 0.03382 0.47829 0.0
C1694 C 0.1634 0.08012 0.48688 0.0
C1695 C 0.14286 0.06609 0.48508 0.0
H1696 H 0.75203 0.19526 0.7575 0.0
H1697 H 0.81036 0.1586 0.74162 0.0
H1698 H 0.78596 0.12346 0.73997 0.0
H1699 H 0.74807 0.10314 0.74371 0.0
H1700 H 0.68998 0.14023 0.75946 0.0
H1701 H 0.71418 0.17518 0.76001 0.0
C1702 C 0.75937 0.17962 0.75328 0.0
C1703 C 0.78302 0.17962 0.74962 0.0
C1704 C 0.74526 0.15952 0.75236 0.0
C1705 C 0.79226 0.15911 0.74466 0.0
C1706 C 0.7783 0.139 0.74368 0.0
C1707 C 0.74075 0.11889 0.74734 0.0
C1708 C 0.71723 0.11904 0.75153 0.0
C1709 C 0.75481 0.139 0.74769 0.0
C1710 C 0.70795 0.1396 0.75594 0.0
C1711 C 0.7218 0.15961 0.75637 0.0
H1712 H 0.44119 0.01262 0.51631 0.0
H1713 H 0.46671 0.05595 0.57221 0.0
H1714 H 0.43623 0.08013 0.56774 0.0
H1715 H 0.40353 0.09002 0.54696 0.0
H1716 H 0.38067 0.04825 0.48935 0.0
H1717 H 0.40898 0.02259 0.49551 0.0
C1718 C 0.4403 0.02746 0.52747 0.0
C1719 C 0.45649 0.03246 0.54449 0.0
C1720 C 0.4232 0.04168 0.52445 0.0
C1721 C 0.45446 0.05146 0.55906 0.0
C1722 C 0.43713 0.06545 0.5564 0.0
C1723 C 0.40484 0.07544 0.53561 0.0
C1724 C 0.38983 0.07122 0.51768 0.0
C1725 C 0.42162 0.06091 0.53897 0.0
C1726 C 0.3916 0.05188 0.50346 0.0
C1727 C 0.40796 0.03722 0.50688 0.0
H1728 H 0.59094 0.48227 0.5795 0.0
H1729 H 0.6353 0.5402 0.56886 0.0
H1730 H 0.66426 0.51654 0.55568 0.0
H1731 H 0.67798 0.4798 0.54826 0.0
H1732 H 0.63637 0.42214 0.56331 0.0
H1733 H 0.60557 0.4453 0.57343 0.0
C1734 C 0.60699 0.48983 0.5745 0.0
C1735 C 0.61048 0.51318 0.57503 0.0
C1736 C 0.62424 0.47613 0.56765 0.0
C1737 C 0.63147 0.52237 0.56814 0.0
C1738 C 0.64833 0.50883 0.56078 0.0
C1739 C 0.66238 0.47219 0.55403 0.0
C1740 C 0.65982 0.44908 0.55501 0.0
C1741 C 0.64501 0.48573 0.56064 0.0
C1742 C 0.63895 0.43972 0.56197 0.0
C1743 C 0.62131 0.45304 0.56801 0.0
H1744 H 0.79694 0.24657 0.37876 0.0
H1745 H 0.72608 0.24803 0.35815 0.0
H1746 H 0.71915 0.27174 0.39044 0.0
H1747 H 0.73331 0.29245 0.42448 0.0
H1748 H 0.80413 0.29066 0.44498 0.0
H1749 H 0.81075 0.26631 0.41308 0.0
C1750 C 0.77987 0.25177 0.38143 0.0
C1751 C 0.76209 0.2455 0.36595 0.0
C1752 C 0.77595 0.26534 0.40009 0.0
C1753 C 0.7402 0.2528 0.36962 0.0
C1754 C 0.73617 0.2663 0.38814 0.0
C1755 C 0.75021 0.28679 0.42193 0.0
C1756 C 0.76816 0.29338 0.43719 0.0
C1757 C 0.75396 0.27282 0.40344 0.0
C1758 C 0.78989 0.28564 0.43369 0.0
C1759 C 0.79375 0.2718 0.41536 0.0
H1760 H 0.52302 0.06816 0.91059 0.0
H1761 H 0.46374 0.04444 0.86958 0.0
H1762 H 0.48856 0.02814 0.84312 0.0
H1763 H 0.52718 0.02305 0.83068 0.0
H1764 H 0.58681 0.04894 0.87071 0.0
H1765 H 0.56189 0.0615 0.89858 0.0
C1766 C 0.5156 0.05903 0.896 0.0
C1767 C 0.49164 0.05744 0.89199 0.0
C1768 C 0.53005 0.05022 0.88063 0.0
C1769 C 0.48216 0.04587 0.87294 0.0
C1770 C 0.49634 0.03662 0.85781 0.0
C1771 C 0.53477 0.0315 0.84546 0.0
C1772 C 0.5589 0.03514 0.84844 0.0
C1773 C 0.52034 0.03916 0.86128 0.0
C1774 C 0.56834 0.04568 0.86795 0.0
C1775 C 0.55408 0.05304 0.88389 0.0
H1776 H 0.32994 0.2471 0.34127 0.0
H1777 H 0.33067 0.30676 0.38581 0.0
H1778 H 0.32371 0.28435 0.41378 0.0
H1779 H 0.31719 0.24803 0.42587 0.0
H1780 H 0.31936 0.18811 0.38223 0.0
H1781 H 0.32525 0.21041 0.35384 0.0
C1782 C 0.32879 0.25523 0.35711 0.0
C1783 C 0.3305 0.2787 0.36119 0.0
C1784 C 0.3252 0.24219 0.37339 0.0
C1785 C 0.3288 0.2888 0.38191 0.0
C1786 C 0.32501 0.27598 0.39806 0.0
C1787 C 0.31929 0.23974 0.41024 0.0
C1788 C 0.31776 0.21628 0.40639 0.0
C1789 C 0.32314 0.25267 0.394 0.0
C1790 C 0.32003 0.20605 0.38579 0.0
C1791 C 0.3236 0.21883 0.36949 0.0
H1792 H 0.51865 0.48423 0.94446 0.0
H1793 H 0.57962 0.50954 0.91579 0.0
H1794 H 0.55627 0.51759 0.88654 0.0
H1795 H 0.51891 0.51716 0.86861 0.0
H1796 H 0.4577 0.48971 0.89531 0.0
H1797 H 0.4807 0.48307 0.92575 0.0
C1798 C 0.52681 0.49145 0.93179 0.0
C1799 C 0.5509 0.49662 0.93267 0.0
C1800 C 0.51324 0.49573 0.91459 0.0
C1801 C 0.56111 0.50597 0.916 0.0
C1802 C 0.54778 0.51042 0.89907 0.0
C1803 C 0.51054 0.50948 0.88092 0.0
C1804 C 0.48656 0.50386 0.87949 0.0
C1805 C 0.52388 0.50533 0.89817 0.0
C1806 C 0.47607 0.49445 0.89599 0.0
C1807 C 0.48926 0.49048 0.91338 0.0
H1808 H 0.802 0.73834 0.18249 0.0
H1809 H 0.7891 0.80074 0.16166 0.0
H1810 H 0.79221 0.78417 0.12534 0.0
H1811 H 0.79656 0.75113 0.09934 0.0
H1812 H 0.80739 0.6886 0.12088 0.0
H1813 H 0.80662 0.70593 0.15705 0.0
C1814 C 0.7996 0.74832 0.17004 0.0
C1815 C 0.79502 0.7707 0.17485 0.0
C1816 C 0.80087 0.73858 0.14927 0.0
C1817 C 0.79272 0.7835 0.15846 0.0
C1818 C 0.79435 0.77399 0.13767 0.0
C1819 C 0.7989 0.74141 0.112 0.0
C1820 C 0.80184 0.71858 0.10747 0.0
C1821 C 0.79816 0.75145 0.13286 0.0
C1822 C 0.80476 0.70612 0.12398 0.0
C1823 C 0.80443 0.71602 0.14466 0.0
H1824 H 0.06112 0.06359 0.14491 0.0
H1825 H 0.0331 1.00027 0.11149 0.0
H1826 H 1.00794 0.99437 0.14022 0.0
H1827 H 0.99328 1.00771 0.17457 0.0
H1828 H 0.02143 0.07122 0.20763 0.0
H1829 H 0.0471 0.07656 0.17929 0.0
C1830 C 0.0494 0.04855 0.14384 0.0
C1831 C 0.04884 0.03248 0.12598 0.0
C1832 C 0.03499 0.04532 0.16036 0.0
C1833 C 0.03394 0.01286 0.12508 0.0
C1834 C 0.01946 1.00954 0.14146 0.0
C1835 C 1.00495 0.02277 0.1755 0.0
C1836 C 1.00537 0.03908 0.1932 0.0
C1837 C 0.01972 0.02574 0.15912 0.0
C1838 C 0.02088 0.05832 0.19431 0.0
C1839 C 0.0355 0.06144 0.17806 0.0
H1840 H 0.32396 0.82299 0.19377 0.0
H1841 H 0.27866 0.76305 0.17544 0.0
H1842 H 0.27238 0.77405 0.14074 0.0
H1843 H 0.27833 0.80183 0.11623 0.0
H1844 H 0.32319 0.862 0.13548 0.0
H1845 H 0.33103 0.84978 0.16914 0.0
C1846 C 0.31267 0.81233 0.18219 0.0
C1847 C 0.30158 0.79235 0.18727 0.0
C1848 C 0.30901 0.81885 0.16244 0.0
C1849 C 0.28744 0.77848 0.17193 0.0
C1850 C 0.28374 0.78484 0.15213 0.0
C1851 C 0.28981 0.81225 0.12781 0.0
C1852 C 0.30016 0.83282 0.12326 0.0
C1853 C 0.29418 0.80517 0.14731 0.0
C1854 C 0.31522 0.84598 0.13838 0.0
C1855 C 0.31961 0.83908 0.15773 0.0
H1856 H 0.03378 0.47437 0.09357 0.0
H1857 H 0.01302 0.54108 0.1048 0.0
H1858 H 0.02977 0.54551 0.14033 0.0
H1859 H 0.05239 0.53137 0.16753 0.0
H1860 H 0.07529 0.46556 0.15541 0.0
H1861 H 0.05561 0.45991 0.12102 0.0
C1862 C 0.03296 0.48992 0.10375 0.0
C1863 C 0.02223 0.50739 0.09638 0.0
C1864 C 0.0431 0.49258 0.12404 0.0
C1865 C 0.02091 0.52723 0.11003 0.0
C1866 C 0.03069 0.52987 0.13033 0.0
C1867 C 0.05319 0.51581 0.15735 0.0
C1868 C 0.06546 0.49897 0.16411 0.0
C1869 C 0.04217 0.5128 0.13738 0.0
C1870 C 0.06581 0.47874 0.1508 0.0
C1871 C 0.05468 0.47555 0.13103 0.0
H1872 H 0.36358 0.74807 0.28736 0.0
H1873 H 0.37151 0.68357 0.25303 0.0
H1874 H 0.4056 0.68038 0.27496 0.0
H1875 H 0.43267 0.69554 0.30441 0.0
H1876 H 0.42545 0.76072 0.33776 0.0
H1877 H 0.39158 0.76391 0.31573 0.0
C1878 C 0.37296 0.73346 0.28443 0.0
C1879 C 0.36494 0.71609 0.26854 0.0
C1880 C 0.39258 0.73174 0.29707 0.0
C1881 C 0.37712 0.69709 0.26529 0.0
C1882 C 0.39667 0.69528 0.27778 0.0
C1883 C 0.42385 0.71054 0.30675 0.0
C1884 C 0.43157 0.72775 0.32291 0.0
C1885 C 0.40448 0.71243 0.29382 0.0
C1886 C 0.41968 0.74697 0.32578 0.0
C1887 C 0.40038 0.74891 0.31306 0.0
H1888 H 0.0757 0.42366 0.99084 0.0
H1889 H 1.00505 0.43381 0.97669 0.0
H1890 H 0.9985 0.39584 0.95804 0.0
H1891 H 0.01326 0.35992 0.94517 0.0
H1892 H 0.08388 0.35007 0.95999 0.0
H1893 H 0.09008 0.38776 0.97889 0.0
C1894 C 0.05889 0.41758 0.98358 0.0
C1895 C 0.04094 0.43156 0.98498 0.0
C1896 C 0.05527 0.3958 0.97299 0.0
C1897 C 0.01912 0.42332 0.97588 0.0
C1898 C 0.01541 0.40167 0.96514 0.0
C1899 C 0.03 0.36611 0.9525 0.0
C1900 C 0.04809 0.35225 0.95118 0.0
C1901 C 0.03341 0.3878 0.96349 0.0
C1902 C 0.06963 0.36034 0.96095 0.0
C1903 C 0.07322 0.38192 0.97169 0.0
H1904 H 0.70147 0.71864 0.26563 0.0
H1905 H 0.72916 0.78341 0.29592 0.0
H1906 H 0.69466 0.78629 0.31647 0.0
H1907 H 0.65799 0.76891 0.32755 0.0
H1908 H 0.63019 0.70448 0.29601 0.0
H1909 H 0.66355 0.70282 0.27444 0.0
C1910 C 0.69985 0.73343 0.27667 0.0
C1911 C 0.71785 0.75069 0.27948 0.0
C1912 C 0.68011 0.7349 0.28836 0.0
C1913 C 0.71547 0.76994 0.29353 0.0
C1914 C 0.69583 0.77151 0.30533 0.0
C1915 C 0.659 0.75467 0.31573 0.0
C1916 C 0.64169 0.73668 0.31372 0.0
C1917 C 0.6782 0.7539 0.30312 0.0
C1918 C 0.64348 0.71831 0.29835 0.0
C1919 C 0.66249 0.7174 0.28586 0.0
H1920 H 0.04931 0.14133 0.04782 0.0
H1921 H 0.09682 0.09802 0.01857 0.0
H1922 H 0.08988 0.1119 0.9852 0.0
H1923 H 0.07218 0.13847 0.9651 0.0
H1924 H 0.02452 0.18141 0.99497 0.0
H1925 H 0.02947 0.16547 0.02726 0.0
C1926 C 0.05799 0.13482 0.03406 0.0
C1927 C 0.07371 0.11887 0.03562 0.0
C1928 C 0.05394 0.14289 0.01508 0.0
C1929 C 0.08462 0.11028 0.01768 0.0
C1930 C 0.08075 0.11832 0.99867 0.0
C1931 C 0.06282 0.14423 0.97867 0.0
C1932 C 0.04806 0.16117 0.97763 0.0
C1933 C 0.06577 0.13496 0.9973 0.0
C1934 C 0.03581 0.16827 0.99526 0.0
C1935 C 0.03874 0.15926 0.01379 0.0
H1936 H 0.35275 0.30587 0.27148 0.0
H1937 H 0.39673 0.28795 0.32018 0.0
H1938 H 0.42754 0.28306 0.29585 0.0
H1939 H 0.44263 0.2854 0.26122 0.0
H1940 H 0.39824 0.30185 0.21195 0.0
H1941 H 0.36736 0.30645 0.23617 0.0
C1942 C 0.36907 0.30084 0.27673 0.0
C1943 C 0.37234 0.29721 0.29764 0.0
C1944 C 0.38682 0.29812 0.26263 0.0
C1945 C 0.39356 0.29053 0.30414 0.0
C1946 C 0.41129 0.28792 0.29026 0.0
C1947 C 0.42613 0.28965 0.25558 0.0
C1948 C 0.42303 0.29336 0.23465 0.0
C1949 C 0.40818 0.29181 0.2695 0.0
C1950 C 0.40149 0.29931 0.22798 0.0
C1951 C 0.38366 0.30176 0.24181 0.0
H1952 H 0.59231 0.38255 0.01906 0.0
H1953 H 0.54064 0.42875 0.02869 0.0
H1954 H 0.52851 0.41238 0.05971 0.0
H1955 H 0.52996 0.38201 0.08191 0.0
H1956 H 0.58062 0.33497 0.0703 0.0
H1957 H 0.59551 0.35432 0.04217 0.0
C1958 C 0.57844 0.38914 0.02799 0.0
C1959 C 0.56722 0.40668 0.02135 0.0
C1960 C 0.57114 0.37922 0.04533 0.0
C1961 C 0.54966 0.41533 0.03344 0.0
C1962 C 0.54256 0.4058 0.05108 0.0
C1963 C 0.54444 0.37624 0.07336 0.0
C1964 C 0.55396 0.35688 0.078 0.0
C1965 C 0.55276 0.38732 0.05686 0.0
C1966 C 0.57272 0.34957 0.06679 0.0
C1967 C 0.58131 0.36067 0.05075 0.0
H1968 H 0.71159 0.28154 0.25036 0.0
H1969 H 0.68779 0.21664 0.26534 0.0
H1970 H 0.64911 0.2205 0.25118 0.0
H1971 H 0.62322 0.24092 0.23143 0.0
H1972 H 0.64732 0.30622 0.21722 0.0
H1973 H 0.68475 0.30345 0.23392 0.0
C1974 C 0.69785 0.26834 0.25069 0.0
C1975 C 0.70255 0.24876 0.2587 0.0
C1976 C 0.6758 0.2706 0.24237 0.0
C1977 C 0.68455 0.23191 0.25933 0.0
C1978 C 0.6625 0.23405 0.25108 0.0
C1979 C 0.63649 0.25473 0.23232 0.0
C1980 C 0.63248 0.27358 0.22267 0.0
C1981 C 0.65806 0.25312 0.24213 0.0
C1982 C 0.65003 0.29125 0.22396 0.0
C1983 C 0.67144 0.28976 0.23365 0.0
H1984 H 0.47929 0.09579 0.04058 0.0
H1985 H 0.45881 0.13739 0.99544 0.0
H1986 H 0.46769 0.17042 0.02102 0.0
H1987 H 0.48077 0.18773 0.05631 0.0
H1988 H 0.49997 0.14648 0.10206 0.0
H1989 H 0.49148 0.11315 0.07636 0.0
C1990 C 0.4766 0.11205 0.03636 0.0
C1991 C 0.46867 0.11397 0.01592 0.0
C1992 C 0.48134 0.1311 0.05133 0.0
C1993 C 0.46546 0.1353 0.01081 0.0
C1994 C 0.47032 0.15427 0.02551 0.0
C1995 C 0.48325 0.17146 0.06061 0.0
C1996 C 0.49109 0.16962 0.08104 0.0
C1997 C 0.47831 0.15239 0.04579 0.0
C1998 C 0.49379 0.14835 0.08648 0.0
C1999 C 0.48906 0.12929 0.07176 0.0
H2000 H 0.32177 0.3371 0.70566 0.0
H2001 H 0.2721 0.34409 0.75362 0.0
H2002 H 0.29037 0.38124 0.76663 0.0
H2003 H 0.32086 0.41181 0.76463 0.0
H2004 H 0.3682 0.40567 0.71489 0.0
H2005 H 0.35 0.36834 0.70197 0.0
C2006 C 0.31449 0.34682 0.71865 0.0
C2007 C 0.29553 0.33755 0.72861 0.0
C2008 C 0.32468 0.36842 0.72575 0.0
C2009 C 0.28691 0.35047 0.74581 0.0
C2010 C 0.29725 0.37184 0.75321 0.0
C2011 C 0.32706 0.40224 0.75093 0.0
C2012 C 0.34582 0.41133 0.74071 0.0
C2013 C 0.31626 0.38093 0.74339 0.0
C2014 C 0.35368 0.39897 0.72289 0.0
C2015 C 0.34334 0.37764 0.71557 0.0
H2016 H 0.27699 0.66377 0.79868 0.0
H2017 H 0.3264 0.70293 0.84289 0.0
H2018 H 0.35189 0.67297 0.83916 0.0
H2019 H 0.36111 0.63658 0.82167 0.0
H2020 H 0.31049 0.59669 0.77883 0.0
H2021 H 0.28484 0.62613 0.7834 0.0
C2022 C 0.29329 0.66565 0.80758 0.0
C2023 C 0.29983 0.68554 0.82099 0.0
C2024 C 0.30782 0.64834 0.80539 0.0
C2025 C 0.32088 0.6877 0.8326 0.0
C2026 C 0.33553 0.67063 0.83035 0.0
C2027 C 0.34434 0.63408 0.81356 0.0
C2028 C 0.3381 0.61441 0.79961 0.0
C2029 C 0.32931 0.65097 0.81659 0.0
C2030 C 0.31624 0.61179 0.78918 0.0
C2031 C 0.30137 0.62858 0.79193 0.0
H2032 H 0.89677 0.53152 0.4879 0.0
H2033 H 0.95154 0.51027 0.52446 0.0
H2034 H 0.92528 0.47983 0.53407 0.0
H2035 H 0.88643 0.4595 0.53225 0.0
H2036 H 0.83132 0.48239 0.49731 0.0
H2037 H 0.85791 0.51194 0.48684 0.0
C2038 C 0.90293 0.52009 0.49785 0.0
C2039 C 0.92603 0.52291 0.50533 0.0
C2040 C 0.88764 0.50302 0.50364 0.0
C2041 C 0.93379 0.50833 0.51853 0.0
C2042 C 0.91881 0.49096 0.52399 0.0
C2043 C 0.88036 0.47096 0.52231 0.0
C2044 C 0.85703 0.46884 0.51553 0.0
C2045 C 0.89567 0.48816 0.51667 0.0
C2046 C 0.8492 0.48386 0.50282 0.0
C2047 C 0.86439 0.50069 0.49678 0.0
H2048 H 0.79304 0.9074 0.80396 0.0
H2049 H 0.74822 0.84694 0.80306 0.0
H2050 H 0.71787 0.86307 0.78461 0.0
H2051 H 0.70288 0.89594 0.77193 0.0
H2052 H 0.74811 0.95652 0.77401 0.0
H2053 H 0.77941 0.93875 0.78859 0.0
C2054 C 0.77671 0.89766 0.79947 0.0
C2055 C 0.77279 0.8761 0.80502 0.0
C2056 C 0.75931 0.90716 0.78921 0.0
C2057 C 0.75169 0.86354 0.79888 0.0
C2058 C 0.73427 0.87285 0.78851 0.0
C2059 C 0.71964 0.90518 0.77544 0.0
C2060 C 0.72302 0.9276 0.77187 0.0
C2061 C 0.73767 0.89489 0.78411 0.0
C2062 C 0.74498 0.93921 0.77629 0.0
C2063 C 0.76291 0.92911 0.78482 0.0
H2064 H 0.62999 0.51533 1.00587 0.0
H2065 H 0.62689 0.51473 0.93907 0.0
H2066 H 0.66273 0.53878 0.94128 0.0
H2067 H 0.69401 0.56137 0.96197 0.0
H2068 H 0.69888 0.56164 0.0287 0.0
H2069 H 0.66329 0.53676 0.02674 0.0
C2070 C 0.63732 0.52036 0.99185 0.0
C2071 C 0.62552 0.51356 0.9724 0.0
C2072 C 0.65816 0.53435 0.99319 0.0
C2073 C 0.6353 0.52013 0.95431 0.0
C2074 C 0.65588 0.53384 0.95551 0.0
C2075 C 0.6876 0.55574 0.9761 0.0
C2076 C 0.69925 0.56348 0.99543 0.0
C2077 C 0.6673 0.54127 0.97486 0.0
C2078 C 0.69019 0.55628 0.01359 0.0
C2079 C 0.66987 0.54189 0.01248 0.0
H2080 H 0.26039 0.69987 0.25005 0.0
H2081 H 0.31165 0.65636 0.22868 0.0
H2082 H 0.28421 0.62382 0.22998 0.0
H2083 H 0.24641 0.60766 0.23916 0.0
H2084 H 0.1952 0.65106 0.26092 0.0
H2085 H 0.22168 0.68366 0.25717 0.0
C2086 C 0.26539 0.68328 0.24527 0.0
C2087 C 0.28807 0.68054 0.23936 0.0
C2088 C 0.24958 0.6646 0.24628 0.0
C2089 C 0.29437 0.6589 0.23347 0.0
C2090 C 0.2787 0.64029 0.23423 0.0
C2091 C 0.24107 0.62426 0.24312 0.0
C2092 C 0.21893 0.62691 0.25048 0.0
C2093 C 0.25642 0.64293 0.24102 0.0
C2094 C 0.21211 0.64854 0.25514 0.0
C2095 C 0.22728 0.6672 0.25308 0.0
H2096 H 0.97276 0.55355 0.06548 0.0
H2097 H 0.95457 0.50005 0.01516 0.0
H2098 H 0.92319 0.51989 1.00336 0.0
H2099 H 0.90175 0.55297 1.00652 0.0
H2100 H 0.91828 0.6052 0.05834 0.0
H2101 H 0.94945 0.58527 0.07021 0.0
C2102 C 0.96171 0.54597 0.05216 0.0
C2103 C 0.96624 0.52534 0.04119 0.0
C2104 C 0.94348 0.55736 0.04555 0.0
C2105 C 0.95184 0.51607 0.02374 0.0
C2106 C 0.93378 0.52736 0.017 0.0
C2107 C 0.91189 0.5599 0.0206 0.0
C2108 C 0.90767 0.58079 0.0313 0.0
C2109 C 0.92958 0.54813 0.02766 0.0
C2110 C 0.92136 0.58949 0.04939 0.0
C2111 C 0.93912 0.57799 0.05635 0.0
H2112 H 0.13702 0.031 0.07617 0.0
H2113 H 0.08025 0.97967 0.0703 0.0
H2114 H 0.10624 0.95156 0.05865 0.0
H2115 H 0.14562 0.94138 0.0515 0.0
H2116 H 0.20215 0.99304 0.05818 0.0
H2117 H 0.17576 0.02115 0.06793 0.0
C2118 C 0.13024 0.01372 0.07201 0.0
C2119 C 0.10669 1.00748 0.07403 0.0
C2120 C 0.14531 0.99764 0.06557 0.0
C2121 C 0.09832 0.98491 0.06899 0.0
C2122 C 0.11318 0.96883 0.06229 0.0
C2123 C 0.15207 0.95882 0.05489 0.0
C2124 C 0.17585 0.96506 0.05426 0.0
C2125 C 0.13677 0.97496 0.06073 0.0
C2126 C 0.18399 0.98773 0.05884 0.0
C2127 C 0.1689 1.00385 0.06435 0.0
loop_
_geom_bond_atom_site_label_1
_geom_bond_atom_site_label_2
_geom_bond_distance
_geom_bond_site_symmetry_2
_ccdc_geom_bond_type
H0 C1 0.949 . S
C1 H0 0.949 . S
C1 C2 1.395 . S
C1 C3 1.391 . S
C2 C1 1.395 . S
C2 C5 1.390 . S
C3 C1 1.391 . S
C3 C7 1.387 . S
C3 C8 1.491 . S
H4 C5 0.950 1_565 S
C5 C2 1.390 . S
C5 H4 0.950 1_545 S
C5 C6 1.378 . S
C6 C5 1.378 . S
C6 C7 1.409 . S
C7 C3 1.387 . S
C7 C6 1.409 . S
C7 H9 0.951 . S
C8 C3 1.491 . S
C8 C10 1.382 . S
C8 C12 1.404 . S
H9 C7 0.951 . S
C10 C8 1.382 . S
C10 C11 1.390 . S
C10 H15 0.949 . S
C11 C10 1.390 . S
C11 C16 1.399 . S
C12 C8 1.404 . S
C12 H13 0.950 . S
C12 C14 1.375 . S
H13 C12 0.950 . S
C14 C12 1.375 . S
C14 C16 1.382 . S
C14 H18 0.950 . S
H15 C10 0.949 . S
C16 C11 1.399 . S
C16 C14 1.382 . S
C16 H17 0.952 . S
H17 C16 0.952 . S
H18 C14 0.950 . S
H19 C20 0.949 . S
C20 H19 0.949 . S
C20 C21 1.395 . S
C20 C22 1.391 . S
C21 C20 1.395 . S
C21 C24 1.390 . S
C22 C20 1.391 . S
C22 C26 1.387 . S
C22 C27 1.491 . S
H23 C24 0.950 . S
C24 C21 1.390 . S
C24 H23 0.950 . S
C24 C25 1.378 . S
C25 C24 1.378 . S
C25 C26 1.409 . S
C26 C22 1.387 . S
C26 C25 1.409 . S
C26 H28 0.951 . S
C27 C22 1.491 . S
C27 C29 1.382 . S
C27 C31 1.404 . S
H28 C26 0.951 . S
C29 C27 1.382 . S
C29 C30 1.390 . S
C29 H34 0.949 . S
C30 C29 1.390 . S
C30 C35 1.399 . S
C31 C27 1.404 . S
C31 H32 0.950 . S
C31 C33 1.375 . S
H32 C31 0.950 . S
C33 C31 1.375 . S
C33 C35 1.382 . S
C33 H37 0.950 . S
H34 C29 0.949 . S
C35 C30 1.399 . S
C35 C33 1.382 . S
C35 H36 0.952 . S
H36 C35 0.952 . S
H37 C33 0.950 . S
H38 C39 0.949 . S
C39 H38 0.949 . S
C39 C40 1.395 . S
C39 C41 1.391 1_455 S
C40 C39 1.395 . S
C40 C43 1.390 1_455 S
C41 C39 1.391 1_655 S
C41 C45 1.387 . S
C41 C46 1.487 1_654 S
H42 C43 0.950 . S
C43 C40 1.390 1_655 S
C43 H42 0.950 . S
C43 C44 1.378 . S
C44 C43 1.378 . S
C44 C45 1.409 . S
C45 C41 1.387 . S
C45 C44 1.409 . S
C45 H47 0.951 1_554 S
C46 C41 1.487 1_456 S
C46 C48 1.386 . S
C46 C50 1.404 . S
H47 C45 0.951 1_556 S
C48 C46 1.386 . S
C48 C49 1.390 . S
C48 H53 0.949 1_556 S
C49 C48 1.390 . S
C49 C54 1.399 . S
C50 C46 1.404 . S
C50 H51 0.948 1_455 S
C50 C52 1.377 . S
H51 C50 0.948 1_655 S
C52 C50 1.377 . S
C52 C54 1.382 . S
C52 H56 0.950 . S
H53 C48 0.949 1_554 S
C54 C49 1.399 . S
C54 C52 1.382 . S
C54 H55 0.952 . S
H55 C54 0.952 . S
H56 C52 0.950 . S
H57 C58 0.949 . S
C58 H57 0.949 . S
C58 C59 1.395 . S
C58 C60 1.391 . S
C59 C58 1.395 . S
C59 C62 1.390 . S
C60 C58 1.391 . S
C60 C64 1.387 . S
C60 C65 1.491 . S
H61 C62 0.950 . S
C62 C59 1.390 . S
C62 H61 0.950 . S
C62 C63 1.378 . S
C63 C62 1.378 . S
C63 C64 1.409 . S
C64 C60 1.387 . S
C64 C63 1.409 . S
C64 H66 0.951 . S
C65 C60 1.491 . S
C65 C67 1.382 . S
C65 C69 1.404 . S
H66 C64 0.951 . S
C67 C65 1.382 . S
C67 C68 1.390 . S
C67 H72 0.949 . S
C68 C67 1.390 . S
C68 C73 1.399 . S
C69 C65 1.404 . S
C69 H70 0.950 . S
C69 C71 1.375 . S
H70 C69 0.950 . S
C71 C69 1.375 . S
C71 C73 1.382 . S
C71 H75 0.950 . S
H72 C67 0.949 . S
C73 C68 1.399 . S
C73 C71 1.382 . S
C73 H74 0.952 . S
H74 C73 0.952 . S
H75 C71 0.950 . S
H76 C77 0.949 . S
C77 H76 0.949 . S
C77 C78 1.395 . S
C77 C79 1.391 . S
C78 C77 1.395 . S
C78 C81 1.390 . S
C79 C77 1.391 . S
C79 C83 1.387 . S
C79 C84 1.491 . S
H80 C81 0.950 1_545 S
C81 C78 1.390 . S
C81 H80 0.950 1_565 S
C81 C82 1.378 . S
C82 C81 1.378 . S
C82 C83 1.409 . S
C83 C79 1.387 . S
C83 C82 1.409 . S
C83 H85 0.951 . S
C84 C79 1.491 . S
C84 C86 1.382 . S
C84 C88 1.404 . S
H85 C83 0.951 . S
C86 C84 1.382 . S
C86 C87 1.390 . S
C86 H91 0.949 . S
C87 C86 1.390 . S
C87 C92 1.399 . S
C88 C84 1.404 . S
C88 H89 0.950 . S
C88 C90 1.375 . S
H89 C88 0.950 . S
C90 C88 1.375 . S
C90 C92 1.382 . S
C90 H94 0.950 . S
H91 C86 0.949 . S
C92 C87 1.399 . S
C92 C90 1.382 . S
C92 H93 0.952 . S
H93 C92 0.952 . S
H94 C90 0.950 . S
H95 C96 0.949 . S
C96 H95 0.949 . S
C96 C97 1.395 . S
C96 C98 1.391 . S
C97 C96 1.395 . S
C97 C100 1.390 . S
C98 C96 1.391 . S
C98 C102 1.387 . S
C98 C103 1.491 . S
H99 C100 0.950 . S
C100 C97 1.390 . S
C100 H99 0.950 . S
C100 C101 1.378 . S
C101 C100 1.378 . S
C101 C102 1.409 . S
C102 C98 1.387 . S
C102 C101 1.409 . S
C102 H104 0.951 . S
C103 C98 1.491 . S
C103 C105 1.382 . S
C103 C107 1.404 . S
H104 C102 0.951 . S
C105 C103 1.382 . S
C105 C106 1.390 . S
C105 H110 0.949 . S
C106 C105 1.390 . S
C106 C111 1.399 . S
C107 C103 1.404 . S
C107 H108 0.950 . S
C107 C109 1.375 . S
H108 C107 0.950 . S
C109 C107 1.375 . S
C109 C111 1.382 . S
C109 H113 0.950 . S
H110 C105 0.949 . S
C111 C106 1.399 . S
C111 C109 1.382 . S
C111 H112 0.952 . S
H112 C111 0.952 . S
H113 C109 0.950 . S
H114 C115 0.949 . S
C115 H114 0.949 . S
C115 C116 1.395 . S
C115 C117 1.391 . S
C116 C115 1.395 . S
C116 C119 1.390 . S
C117 C115 1.391 . S
C117 C121 1.387 . S
C117 C122 1.491 . S
H118 C119 0.950 . S
C119 C116 1.390 . S
C119 H118 0.950 . S
C119 C120 1.378 . S
C120 C119 1.378 . S
C120 C121 1.409 . S
C121 C117 1.387 . S
C121 C120 1.409 . S
C121 H123 0.951 . S
C122 C117 1.491 . S
C122 C124 1.382 . S
C122 C126 1.404 . S
H123 C121 0.951 . S
C124 C122 1.382 . S
C124 C125 1.390 1_655 S
C124 H129 0.949 1_655 S
C125 C124 1.390 1_455 S
C125 C130 1.399 1_455 S
C126 C122 1.404 . S
C126 H127 0.950 . S
C126 C128 1.375 . S
H127 C126 0.950 . S
C128 C126 1.375 . S
C128 C130 1.382 . S
C128 H132 0.950 . S
H129 C124 0.949 1_455 S
C130 C125 1.399 1_655 S
C130 C128 1.382 . S
C130 H131 0.952 . S
H131 C130 0.952 . S
H132 C128 0.950 . S
H133 C134 0.949 . S
C134 H133 0.949 . S
C134 C135 1.395 . S
C134 C136 1.391 . S
C135 C134 1.395 . S
C135 C138 1.390 . S
C136 C134 1.391 . S
C136 C140 1.387 . S
C136 C141 1.491 . S
H137 C138 0.950 . S
C138 C135 1.390 . S
C138 H137 0.950 . S
C138 C139 1.378 . S
C139 C138 1.378 . S
C139 C140 1.409 . S
C140 C136 1.387 . S
C140 C139 1.409 . S
C140 H142 0.951 . S
C141 C136 1.491 . S
C141 C143 1.382 . S
C141 C145 1.404 . S
H142 C140 0.951 . S
C143 C141 1.382 . S
C143 C144 1.390 . S
C143 H148 0.949 . S
C144 C143 1.390 . S
C144 C149 1.399 . S
C145 C141 1.404 . S
C145 H146 0.950 . S
C145 C147 1.375 . S
H146 C145 0.950 . S
C147 C145 1.375 . S
C147 C149 1.382 . S
C147 H151 0.950 . S
H148 C143 0.949 . S
C149 C144 1.399 . S
C149 C147 1.382 . S
C149 H150 0.952 . S
H150 C149 0.952 . S
H151 C147 0.950 . S
H152 C153 0.949 . S
C153 H152 0.949 . S
C153 C154 1.395 . S
C153 C155 1.391 . S
C154 C153 1.395 . S
C154 C157 1.390 . S
C155 C153 1.391 . S
C155 C159 1.387 . S
C155 C160 1.491 . S
H156 C157 0.950 . S
C157 C154 1.390 . S
C157 H156 0.950 . S
C157 C158 1.378 . S
C158 C157 1.378 . S
C158 C159 1.409 . S
C159 C155 1.387 . S
C159 C158 1.409 . S
C159 H161 0.951 . S
C160 C155 1.491 . S
C160 C162 1.382 . S
C160 C164 1.404 . S
H161 C159 0.951 . S
C162 C160 1.382 . S
C162 C163 1.390 . S
C162 H167 0.949 . S
C163 C162 1.390 . S
C163 C168 1.399 . S
C164 C160 1.404 . S
C164 H165 0.950 . S
C164 C166 1.375 . S
H165 C164 0.950 . S
C166 C164 1.375 . S
C166 C168 1.382 . S
C166 H170 0.950 . S
H167 C162 0.949 . S
C168 C163 1.399 . S
C168 C166 1.382 . S
C168 H169 0.952 . S
H169 C168 0.952 . S
H170 C166 0.950 . S
H171 C172 0.949 . S
C172 H171 0.949 . S
C172 C173 1.395 . S
C172 C174 1.391 . S
C173 C172 1.395 . S
C173 C176 1.390 1_565 S
C174 C172 1.391 . S
C174 C178 1.387 . S
C174 C179 1.491 . S
H175 C176 0.950 . S
C176 C173 1.390 1_545 S
C176 H175 0.950 . S
C176 C177 1.378 . S
C177 C176 1.378 . S
C177 C178 1.409 1_545 S
C178 C174 1.387 . S
C178 C177 1.409 1_565 S
C178 H180 0.951 . S
C179 C174 1.491 . S
C179 C181 1.382 . S
C179 C183 1.404 . S
H180 C178 0.951 . S
C181 C179 1.382 . S
C181 C182 1.390 . S
C181 H186 0.949 . S
C182 C181 1.390 . S
C182 C187 1.399 . S
C183 C179 1.404 . S
C183 H184 0.950 . S
C183 C185 1.375 . S
H184 C183 0.950 . S
C185 C183 1.375 . S
C185 C187 1.382 . S
C185 H189 0.950 . S
H186 C181 0.949 . S
C187 C182 1.399 . S
C187 C185 1.382 . S
C187 H188 0.952 . S
H188 C187 0.952 . S
H189 C185 0.950 . S
H190 C191 0.949 . S
C191 H190 0.949 . S
C191 C192 1.395 . S
C191 C193 1.391 . S
C192 C191 1.395 . S
C192 C195 1.390 . S
C193 C191 1.391 . S
C193 C197 1.387 . S
C193 C198 1.491 . S
H194 C195 0.950 . S
C195 C192 1.390 . S
C195 H194 0.950 . S
C195 C196 1.378 . S
C196 C195 1.378 . S
C196 C197 1.409 . S
C197 C193 1.387 . S
C197 C196 1.409 . S
C197 H199 0.951 . S
C198 C193 1.491 . S
C198 C200 1.382 . S
C198 C202 1.404 . S
H199 C197 0.951 . S
C200 C198 1.382 . S
C200 C201 1.390 . S
C200 H205 0.949 . S
C201 C200 1.390 . S
C201 C206 1.399 . S
C202 C198 1.404 . S
C202 H203 0.950 . S
C202 C204 1.375 . S
H203 C202 0.950 . S
C204 C202 1.375 . S
C204 C206 1.382 . S
C204 H208 0.950 . S
H205 C200 0.949 . S
C206 C201 1.399 . S
C206 C204 1.382 . S
C206 H207 0.952 . S
H207 C206 0.952 . S
H208 C204 0.950 . S
H209 C210 0.949 . S
C210 H209 0.949 . S
C210 C211 1.395 . S
C210 C212 1.391 . S
C211 C210 1.395 . S
C211 C214 1.390 . S
C212 C210 1.391 . S
C212 C216 1.387 . S
C212 C217 1.491 . S
H213 C214 0.950 . S
C214 C211 1.390 . S
C214 H213 0.950 . S
C214 C215 1.378 . S
C215 C214 1.378 . S
C215 C216 1.409 . S
C216 C212 1.387 . S
C216 C215 1.409 . S
C216 H218 0.951 . S
C217 C212 1.491 . S
C217 C219 1.382 . S
C217 C221 1.404 . S
H218 C216 0.951 . S
C219 C217 1.382 . S
C219 C220 1.390 . S
C219 H224 0.949 . S
C220 C219 1.390 . S
C220 C225 1.399 . S
C221 C217 1.404 . S
C221 H222 0.950 . S
C221 C223 1.375 . S
H222 C221 0.950 . S
C223 C221 1.375 . S
C223 C225 1.382 . S
C223 H227 0.950 . S
H224 C219 0.949 . S
C225 C220 1.399 . S
C225 C223 1.382 . S
C225 H226 0.952 . S
H226 C225 0.952 . S
H227 C223 0.950 . S
H228 C229 0.949 . S
C229 H228 0.949 . S
C229 C230 1.395 . S
C229 C231 1.391 . S
C230 C229 1.395 . S
C230 C233 1.390 . S
C231 C229 1.391 . S
C231 C235 1.387 . S
C231 C236 1.491 . S
H232 C233 0.950 . S
C233 C230 1.390 . S
C233 H232 0.950 . S
C233 C234 1.378 . S
C234 C233 1.378 . S
C234 C235 1.409 . S
C235 C231 1.387 . S
C235 C234 1.409 . S
C235 H237 0.951 . S
C236 C231 1.491 . S
C236 C238 1.382 . S
C236 C240 1.404 . S
H237 C235 0.951 . S
C238 C236 1.382 . S
C238 C239 1.390 . S
C238 H243 0.949 . S
C239 C238 1.390 . S
C239 C244 1.399 . S
C240 C236 1.404 . S
C240 H241 0.950 . S
C240 C242 1.375 . S
H241 C240 0.950 . S
C242 C240 1.375 . S
C242 C244 1.382 . S
C242 H246 0.950 . S
H243 C238 0.949 . S
C244 C239 1.399 . S
C244 C242 1.382 . S
C244 H245 0.952 . S
H245 C244 0.952 . S
H246 C242 0.950 . S
H247 C248 0.903 1_554 S
C248 H247 0.903 1_556 S
C248 C249 1.426 . S
C248 C250 1.409 . S
C249 C248 1.426 . S
C249 C252 1.390 . S
C250 C248 1.409 . S
C250 C254 1.387 . S
C250 C255 1.491 . S
H251 C252 0.950 . S
C252 C249 1.390 . S
C252 H251 0.950 . S
C252 C253 1.378 . S
C253 C252 1.378 . S
C253 C254 1.409 . S
C254 C250 1.387 . S
C254 C253 1.409 . S
C254 H256 0.951 . S
C255 C250 1.491 . S
C255 C257 1.382 1_556 S
C255 C259 1.404 . S
H256 C254 0.951 . S
C257 C255 1.382 1_554 S
C257 C258 1.390 . S
C257 H262 0.949 . S
C258 C257 1.390 . S
C258 C263 1.399 . S
C259 C255 1.404 . S
C259 H260 0.950 . S
C259 C261 1.375 . S
H260 C259 0.950 . S
C261 C259 1.375 . S
C261 C263 1.382 1_556 S
C261 H265 0.950 . S
H262 C257 0.949 . S
C263 C258 1.399 . S
C263 C261 1.382 1_554 S
C263 H264 0.952 . S
H264 C263 0.952 . S
H265 C261 0.950 . S
H266 C267 0.949 . S
C267 H266 0.949 . S
C267 C268 1.395 . S
C267 C269 1.391 . S
C268 C267 1.395 . S
C268 C271 1.390 . S
C269 C267 1.391 . S
C269 C273 1.387 . S
C269 C274 1.491 . S
H270 C271 0.950 . S
C271 C268 1.390 . S
C271 H270 0.950 . S
C271 C272 1.378 . S
C272 C271 1.378 . S
C272 C273 1.409 . S
C273 C269 1.387 . S
C273 C272 1.409 . S
C273 H275 0.951 . S
C274 C269 1.491 . S
C274 C276 1.382 . S
C274 C278 1.404 . S
H275 C273 0.951 . S
C276 C274 1.382 . S
C276 C277 1.390 . S
C276 H281 0.949 . S
C277 C276 1.390 . S
C277 C282 1.399 . S
C278 C274 1.404 . S
C278 H279 0.950 . S
C278 C280 1.375 . S
H279 C278 0.950 . S
C280 C278 1.375 . S
C280 C282 1.382 . S
C280 H284 0.950 . S
H281 C276 0.949 . S
C282 C277 1.399 . S
C282 C280 1.382 . S
C282 H283 0.952 . S
H283 C282 0.952 . S
H284 C280 0.950 . S
H285 C286 0.949 . S
C286 H285 0.949 . S
C286 C287 1.395 . S
C286 C288 1.391 . S
C287 C286 1.395 . S
C287 C290 1.390 . S
C288 C286 1.391 . S
C288 C292 1.387 . S
C288 C293 1.491 . S
H289 C290 0.950 1_554 S
C290 C287 1.390 . S
C290 H289 0.950 1_556 S
C290 C291 1.378 . S
C291 C290 1.378 . S
C291 C292 1.409 . S
C292 C288 1.387 . S
C292 C291 1.409 . S
C292 H294 0.951 . S
C293 C288 1.491 . S
C293 C295 1.382 . S
C293 C297 1.404 . S
H294 C292 0.951 . S
C295 C293 1.382 . S
C295 C296 1.390 . S
C295 H300 0.949 . S
C296 C295 1.390 . S
C296 C301 1.399 . S
C297 C293 1.404 . S
C297 H298 0.950 . S
C297 C299 1.375 . S
H298 C297 0.950 . S
C299 C297 1.375 . S
C299 C301 1.382 . S
C299 H303 0.950 . S
H300 C295 0.949 . S
C301 C296 1.399 . S
C301 C299 1.382 . S
C301 H302 0.952 . S
H302 C301 0.952 . S
H303 C299 0.950 . S
Li304 N321 1.990 . S
Li304 O364 1.956 . S
Li304 O365 1.970 . S
Li304 O366 1.961 . S
Li305 N329 1.990 . S
Li305 O364 1.970 . S
Li305 O365 1.956 . S
Li305 O367 1.961 . S
Li306 N351 1.990 1_554 S
Li306 O364 1.961 . S
Li306 O366 1.956 . S
Li306 O367 1.970 . S
Li307 N357 1.990 . S
Li307 O365 1.961 . S
Li307 O366 1.970 . S
Li307 O367 1.956 . S
C308 C310 1.348 . S
C308 C311 1.356 . S
C308 O364 1.325 . S
N309 C312 1.314 . S
N309 C313 1.279 . S
C310 C308 1.348 . S
C310 C312 1.353 . S
C310 H368 0.929 . S
C311 C308 1.356 . S
C311 C313 1.358 . S
C311 H369 0.930 1_554 S
C312 N309 1.314 . S
C312 C310 1.353 . S
C312 H370 0.930 . S
C313 N309 1.279 . S
C313 C311 1.358 . S
C313 H371 0.930 1_554 S
C314 C317 1.348 . S
C314 C318 1.356 . S
C314 O365 1.325 . S
C315 N316 1.279 . S
C315 C318 1.358 . S
C315 H372 0.930 . S
N316 C315 1.279 . S
N316 C319 1.314 . S
C317 C314 1.348 . S
C317 C319 1.353 . S
C317 H373 0.929 . S
C318 C314 1.356 . S
C318 C315 1.358 . S
C318 H374 0.930 . S
C319 N316 1.314 . S
C319 C317 1.353 . S
C319 H375 0.930 . S
C320 N321 1.314 . S
C320 C325 1.353 . S
C320 H326 0.930 . S
N321 Li304 1.990 . S
N321 C320 1.314 . S
N321 C323 1.279 . S
C322 C323 1.358 . S
C322 C324 1.356 . S
C322 H376 0.930 . S
C323 N321 1.279 . S
C323 C322 1.358 . S
C323 H327 0.930 . S
C324 C322 1.356 . S
C324 C325 1.348 . S
C325 C320 1.353 . S
C325 C324 1.348 . S
C325 H377 0.929 . S
H326 C320 0.930 . S
H327 C323 0.930 . S
C328 N329 1.314 . S
C328 C330 1.353 . S
C328 H334 0.930 . S
N329 Li305 1.990 . S
N329 C328 1.314 . S
N329 C332 1.279 . S
C330 C328 1.353 . S
C330 C333 1.348 . S
C330 H378 0.929 . S
C331 C332 1.358 . S
C331 C333 1.356 . S
C331 H379 0.930 . S
C332 N329 1.279 . S
C332 C331 1.358 . S
C332 H335 0.930 . S
C333 C330 1.348 . S
C333 C331 1.356 . S
H334 C328 0.930 . S
H335 C332 0.930 . S
C336 C338 1.348 . S
C336 C339 1.356 . S
C336 O366 1.325 1_556 S
N337 C340 1.314 . S
N337 C341 1.279 . S
C338 C336 1.348 . S
C338 C340 1.353 . S
C338 H380 0.966 . S
C339 C336 1.356 . S
C339 C341 1.358 . S
C339 H381 0.930 . S
C340 N337 1.314 . S
C340 C338 1.353 . S
C340 H382 0.930 . S
C341 N337 1.279 . S
C341 C339 1.358 . S
C341 H383 0.930 . S
C342 C343 1.348 . S
C342 C344 1.356 . S
C342 O367 1.325 . S
C343 C342 1.348 . S
C343 C345 1.353 . S
C343 H384 0.929 . S
C344 C342 1.356 . S
C344 C346 1.358 . S
C344 H385 0.930 . S
C345 C343 1.353 . S
C345 N347 1.314 . S
C345 H386 0.930 . S
C346 C344 1.358 . S
C346 N347 1.279 . S
C346 H387 0.930 . S
N347 C345 1.314 . S
N347 C346 1.279 . S
C348 C350 1.353 . S
C348 N351 1.314 . S
C348 H354 0.918 1_556 S
C349 N351 1.279 . S
C349 C352 1.358 . S
C349 H355 0.930 . S
C350 C348 1.353 . S
C350 C353 1.348 . S
C350 H388 0.929 . S
N351 Li306 1.990 1_556 S
N351 C348 1.314 . S
N351 C349 1.279 . S
C352 C349 1.358 . S
C352 C353 1.356 . S
C352 H389 0.930 . S
C353 C350 1.348 . S
C353 C352 1.356 . S
H354 C348 0.918 1_554 S
H355 C349 0.930 . S
C356 N357 1.314 . S
C356 C358 1.353 . S
C356 H362 0.930 . S
N357 Li307 1.990 . S
N357 C356 1.314 . S
N357 C360 1.279 . S
C358 C356 1.353 . S
C358 C361 1.348 . S
C358 H390 0.929 . S
C359 C360 1.358 . S
C359 C361 1.356 . S
C359 H391 0.930 . S
C360 N357 1.279 . S
C360 C359 1.358 . S
C360 H363 0.930 . S
C361 C358 1.348 . S
C361 C359 1.356 . S
H362 C356 0.930 . S
H363 C360 0.930 . S
O364 Li304 1.956 . S
O364 Li305 1.970 . S
O364 Li306 1.961 . S
O364 C308 1.325 . S
O365 Li304 1.970 . S
O365 Li305 1.956 . S
O365 Li307 1.961 . S
O365 C314 1.325 . S
O366 Li304 1.961 . S
O366 Li306 1.956 . S
O366 Li307 1.970 . S
O366 C336 1.325 1_554 S
O367 Li305 1.961 . S
O367 Li306 1.970 . S
O367 Li307 1.956 . S
O367 C342 1.325 . S
H368 C310 0.929 . S
H369 C311 0.930 1_556 S
H370 C312 0.930 . S
H371 C313 0.930 1_556 S
H372 C315 0.930 . S
H373 C317 0.929 . S
H374 C318 0.930 . S
H375 C319 0.930 . S
H376 C322 0.930 . S
H377 C325 0.929 . S
H378 C330 0.929 . S
H379 C331 0.930 . S
H380 C338 0.966 . S
H381 C339 0.930 . S
H382 C340 0.930 . S
H383 C341 0.930 . S
H384 C343 0.929 . S
H385 C344 0.930 . S
H386 C345 0.930 . S
H387 C346 0.930 . S
H388 C350 0.929 . S
H389 C352 0.930 . S
H390 C358 0.929 . S
H391 C359 0.930 . S
Li392 N409 1.990 . S
Li392 O452 1.956 . S
Li392 O453 1.970 . S
Li392 O454 1.961 . S
Li393 N417 1.990 . S
Li393 O452 1.970 . S
Li393 O453 1.956 . S
Li393 O455 1.961 . S
Li394 N439 1.990 . S
Li394 O452 1.961 . S
Li394 O454 1.956 . S
Li394 O455 1.970 . S
Li395 N445 1.990 . S
Li395 O453 1.961 . S
Li395 O454 1.970 . S
Li395 O455 1.956 . S
C396 C398 1.348 . S
C396 C399 1.356 . S
C396 O452 1.325 . S
N397 C400 1.314 . S
N397 C401 1.279 . S
C398 C396 1.348 . S
C398 C400 1.353 . S
C398 H456 0.929 . S
C399 C396 1.356 . S
C399 C401 1.358 . S
C399 H457 0.930 . S
C400 N397 1.314 . S
C400 C398 1.353 . S
C400 H458 0.930 . S
C401 N397 1.279 . S
C401 C399 1.358 . S
C401 H459 0.930 . S
C402 C405 1.348 . S
C402 C406 1.356 . S
C402 O453 1.325 . S
C403 N404 1.279 . S
C403 C406 1.358 . S
C403 H460 0.930 . S
N404 C403 1.279 . S
N404 C407 1.314 . S
C405 C402 1.348 . S
C405 C407 1.353 . S
C405 H461 0.929 . S
C406 C402 1.356 . S
C406 C403 1.358 . S
C406 H462 0.930 . S
C407 N404 1.314 . S
C407 C405 1.353 . S
C407 H463 0.930 . S
C408 N409 1.314 . S
C408 C413 1.353 . S
C408 H414 0.930 . S
N409 Li392 1.990 . S
N409 C408 1.314 . S
N409 C411 1.279 . S
C410 C411 1.358 . S
C410 C412 1.356 . S
C410 H464 0.930 . S
C411 N409 1.279 . S
C411 C410 1.358 . S
C411 H415 0.930 . S
C412 C410 1.356 . S
C412 C413 1.348 . S
C413 C408 1.353 . S
C413 C412 1.348 . S
C413 H465 0.929 . S
H414 C408 0.930 . S
H415 C411 0.930 . S
C416 N417 1.314 . S
C416 C418 1.353 . S
C416 H422 0.930 . S
N417 Li393 1.990 . S
N417 C416 1.314 . S
N417 C420 1.279 . S
C418 C416 1.353 . S
C418 C421 1.348 . S
C418 H466 0.929 . S
C419 C420 1.358 . S
C419 C421 1.356 . S
C419 H467 0.930 . S
C420 N417 1.279 . S
C420 C419 1.358 . S
C420 H423 0.930 . S
C421 C418 1.348 . S
C421 C419 1.356 . S
H422 C416 0.930 . S
H423 C420 0.930 . S
C424 C426 1.348 . S
C424 C427 1.356 . S
C424 O454 1.325 . S
N425 C428 1.314 . S
N425 C429 1.279 . S
C426 C424 1.348 . S
C426 C428 1.353 . S
C426 H468 0.929 . S
C427 C424 1.356 . S
C427 C429 1.358 . S
C427 H469 0.930 . S
C428 N425 1.314 . S
C428 C426 1.353 . S
C428 H470 0.930 . S
C429 N425 1.279 . S
C429 C427 1.358 . S
C429 H471 0.930 . S
C430 C431 1.348 . S
C430 C432 1.356 . S
C430 O455 1.325 . S
C431 C430 1.348 . S
C431 C433 1.353 . S
C431 H472 0.929 . S
C432 C430 1.356 . S
C432 C434 1.358 . S
C432 H473 0.930 . S
C433 C431 1.353 . S
C433 N435 1.314 . S
C433 H474 0.930 . S
C434 C432 1.358 . S
C434 N435 1.279 . S
C434 H475 0.930 . S
N435 C433 1.314 . S
N435 C434 1.279 . S
C436 C438 1.353 . S
C436 N439 1.314 . S
C436 H442 0.930 . S
C437 N439 1.279 . S
C437 C440 1.358 . S
C437 H443 0.930 . S
C438 C436 1.353 . S
C438 C441 1.348 . S
C438 H476 0.929 . S
N439 Li394 1.990 . S
N439 C436 1.314 . S
N439 C437 1.279 . S
C440 C437 1.358 . S
C440 C441 1.356 . S
C440 H477 0.930 . S
C441 C438 1.348 . S
C441 C440 1.356 . S
H442 C436 0.930 . S
H443 C437 0.930 . S
C444 N445 1.314 . S
C444 C446 1.353 . S
C444 H450 0.930 . S
N445 Li395 1.990 . S
N445 C444 1.314 . S
N445 C448 1.279 . S
C446 C444 1.353 . S
C446 C449 1.348 . S
C446 H478 0.929 . S
C447 C448 1.358 . S
C447 C449 1.356 . S
C447 H479 0.930 . S
C448 N445 1.279 . S
C448 C447 1.358 . S
C448 H451 0.930 . S
C449 C446 1.348 . S
C449 C447 1.356 . S
H450 C444 0.930 . S
H451 C448 0.930 . S
O452 Li392 1.956 . S
O452 Li393 1.970 . S
O452 Li394 1.961 . S
O452 C396 1.325 . S
O453 Li392 1.970 . S
O453 Li393 1.956 . S
O453 Li395 1.961 . S
O453 C402 1.325 . S
O454 Li392 1.961 . S
O454 Li394 1.956 . S
O454 Li395 1.970 . S
O454 C424 1.325 . S
O455 Li393 1.961 . S
O455 Li394 1.970 . S
O455 Li395 1.956 . S
O455 C430 1.325 . S
H456 C398 0.929 . S
H457 C399 0.930 . S
H458 C400 0.930 . S
H459 C401 0.930 . S
H460 C403 0.930 . S
H461 C405 0.929 . S
H462 C406 0.930 . S
H463 C407 0.930 . S
H464 C410 0.930 . S
H465 C413 0.929 . S
H466 C418 0.929 . S
H467 C419 0.930 . S
H468 C426 0.929 . S
H469 C427 0.930 . S
H470 C428 0.930 . S
H471 C429 0.930 . S
H472 C431 0.929 . S
H473 C432 0.930 . S
H474 C433 0.930 . S
H475 C434 0.930 . S
H476 C438 0.929 . S
H477 C440 0.930 . S
H478 C446 0.929 . S
H479 C447 0.930 . S
Li480 N497 1.990 . S
Li480 O540 1.956 1_556 S
Li480 O541 1.970 1_556 S
Li480 O542 1.961 . S
Li481 N505 1.990 . S
Li481 O540 1.970 . S
Li481 O541 1.956 . S
Li481 O543 1.961 . S
Li482 N527 1.990 . S
Li482 O540 1.961 1_556 S
Li482 O542 1.956 . S
Li482 O543 1.970 1_556 S
Li483 N533 1.990 . S
Li483 O541 1.961 . S
Li483 O542 1.970 1_554 S
Li483 O543 1.956 . S
C484 C486 1.385 . S
C484 C487 1.317 1_554 S
C484 O540 1.329 . S
N485 C488 1.278 1_556 S
N485 C489 1.313 . S
C486 C484 1.385 . S
C486 C488 1.353 . S
C486 H544 0.929 . S
C487 C484 1.317 1_556 S
C487 C489 1.358 . S
C487 H545 0.930 . S
C488 N485 1.278 1_554 S
C488 C486 1.353 . S
C488 H546 0.930 . S
C489 N485 1.313 . S
C489 C487 1.358 . S
C489 H547 0.930 . S
C490 C493 1.348 . S
C490 C494 1.356 . S
C490 O541 1.325 . S
C491 N492 1.279 . S
C491 C494 1.358 . S
C491 H548 0.930 . S
N492 C491 1.279 . S
N492 C495 1.314 . S
C493 C490 1.348 . S
C493 C495 1.353 . S
C493 H549 0.929 . S
C494 C490 1.356 . S
C494 C491 1.358 . S
C494 H550 0.930 . S
C495 N492 1.314 . S
C495 C493 1.353 . S
C495 H551 0.930 . S
C496 N497 1.314 . S
C496 C501 1.353 . S
C496 H502 0.930 . S
N497 Li480 1.990 . S
N497 C496 1.314 . S
N497 C499 1.279 . S
C498 C499 1.358 . S
C498 C500 1.356 . S
C498 H552 0.930 . S
C499 N497 1.279 . S
C499 C498 1.358 . S
C499 H503 0.930 1_556 S
C500 C498 1.356 . S
C500 C501 1.348 . S
C501 C496 1.353 . S
C501 C500 1.348 . S
C501 H553 0.929 . S
H502 C496 0.930 . S
H503 C499 0.930 1_554 S
C504 N505 1.314 . S
C504 C506 1.353 . S
C504 H510 0.930 . S
N505 Li481 1.990 . S
N505 C504 1.314 . S
N505 C508 1.279 . S
C506 C504 1.353 . S
C506 C509 1.348 . S
C506 H554 0.929 . S
C507 C508 1.358 . S
C507 C509 1.356 . S
C507 H555 0.930 . S
C508 N505 1.279 . S
C508 C507 1.358 . S
C508 H511 0.930 . S
C509 C506 1.348 . S
C509 C507 1.356 . S
H510 C504 0.930 . S
H511 C508 0.930 . S
C512 C514 1.348 . S
C512 C515 1.356 . S
C512 O542 1.325 . S
N513 C516 1.314 . S
N513 C517 1.279 . S
C514 C512 1.348 . S
C514 C516 1.353 . S
C514 H556 0.929 . S
C515 C512 1.356 . S
C515 C517 1.358 . S
C515 H557 0.930 . S
C516 N513 1.314 . S
C516 C514 1.353 . S
C516 H558 0.930 . S
C517 N513 1.279 . S
C517 C515 1.358 . S
C517 H559 0.930 . S
C518 C519 1.348 1_554 S
C518 C520 1.356 . S
C518 O543 1.325 . S
C519 C518 1.348 1_556 S
C519 C521 1.353 . S
C519 H560 0.929 . S
C520 C518 1.356 . S
C520 C522 1.358 . S
C520 H561 0.930 . S
C521 C519 1.353 . S
C521 N523 1.314 1_556 S
C521 H562 0.930 . S
C522 C520 1.358 . S
C522 N523 1.279 . S
C522 H563 0.930 . S
N523 C521 1.314 1_554 S
N523 C522 1.279 . S
C524 C526 1.353 . S
C524 N527 1.314 . S
C524 H530 0.930 . S
C525 N527 1.279 . S
C525 C528 1.358 . S
C525 H531 0.930 . S
C526 C524 1.353 . S
C526 C529 1.348 . S
C526 H564 0.929 . S
N527 Li482 1.990 . S
N527 C524 1.314 . S
N527 C525 1.279 . S
C528 C525 1.358 . S
C528 C529 1.356 . S
C528 H565 0.930 . S
C529 C526 1.348 . S
C529 C528 1.356 . S
H530 C524 0.930 . S
H531 C525 0.930 . S
C532 N533 1.314 . S
C532 C534 1.353 . S
C532 H538 0.930 . S
N533 Li483 1.990 . S
N533 C532 1.314 . S
N533 C536 1.279 . S
C534 C532 1.353 . S
C534 C537 1.348 . S
C534 H566 0.929 . S
C535 C536 1.358 . S
C535 C537 1.366 . S
C535 H567 0.918 1_554 S
C536 N533 1.279 . S
C536 C535 1.358 . S
C536 H539 0.918 1_554 S
C537 C534 1.348 . S
C537 C535 1.366 . S
H538 C532 0.930 . S
H539 C536 0.918 1_556 S
O540 Li480 1.956 1_554 S
O540 Li481 1.970 . S
O540 Li482 1.961 1_554 S
O540 C484 1.329 . S
O541 Li480 1.970 1_554 S
O541 Li481 1.956 . S
O541 Li483 1.961 . S
O541 C490 1.325 . S
O542 Li480 1.961 . S
O542 Li482 1.956 . S
O542 Li483 1.970 1_556 S
O542 C512 1.325 . S
O543 Li481 1.961 . S
O543 Li482 1.970 1_554 S
O543 Li483 1.956 . S
O543 C518 1.325 . S
H544 C486 0.929 . S
H545 C487 0.930 . S
H546 C488 0.930 . S
H547 C489 0.930 . S
H548 C491 0.930 . S
H549 C493 0.929 . S
H550 C494 0.930 . S
H551 C495 0.930 . S
H552 C498 0.930 . S
H553 C501 0.929 . S
H554 C506 0.929 . S
H555 C507 0.930 . S
H556 C514 0.929 . S
H557 C515 0.930 . S
H558 C516 0.930 . S
H559 C517 0.930 . S
H560 C519 0.929 . S
H561 C520 0.930 . S
H562 C521 0.930 . S
H563 C522 0.930 . S
H564 C526 0.929 . S
H565 C528 0.930 . S
H566 C534 0.929 . S
H567 C535 0.918 1_556 S
Li568 N585 1.990 . S
Li568 O628 1.956 . S
Li568 O629 1.970 . S
Li568 O630 1.961 . S
Li569 N593 1.990 . S
Li569 O628 1.970 . S
Li569 O629 1.956 . S
Li569 O631 1.961 1_545 S
Li570 N615 1.990 . S
Li570 O628 1.961 . S
Li570 O630 1.956 . S
Li570 O631 1.970 1_545 S
Li571 N621 1.990 . S
Li571 O629 1.961 1_565 S
Li571 O630 1.970 1_565 S
Li571 O631 1.956 . S
C572 C574 1.348 . S
C572 C575 1.356 . S
C572 O628 1.325 . S
N573 C576 1.314 . S
N573 C577 1.279 . S
C574 C572 1.348 . S
C574 C576 1.353 . S
C574 H632 0.929 . S
C575 C572 1.356 . S
C575 C577 1.358 . S
C575 H633 0.930 . S
C576 N573 1.314 . S
C576 C574 1.353 . S
C576 H634 0.930 . S
C577 N573 1.279 . S
C577 C575 1.358 . S
C577 H635 0.930 . S
C578 C581 1.348 . S
C578 C582 1.356 1_545 S
C578 O629 1.325 . S
C579 N580 1.279 1_565 S
C579 C582 1.358 . S
C579 H636 0.930 . S
N580 C579 1.279 1_545 S
N580 C583 1.314 . S
C581 C578 1.348 . S
C581 C583 1.353 . S
C581 H637 0.929 . S
C582 C578 1.356 1_565 S
C582 C579 1.358 . S
C582 H638 0.930 . S
C583 N580 1.314 . S
C583 C581 1.353 . S
C583 H639 0.930 . S
C584 N585 1.314 . S
C584 C589 1.353 . S
C584 H590 0.930 . S
N585 Li568 1.990 . S
N585 C584 1.314 . S
N585 C587 1.279 . S
C586 C587 1.358 . S
C586 C588 1.356 . S
C586 H640 0.930 . S
C587 N585 1.279 . S
C587 C586 1.358 . S
C587 H591 0.930 . S
C588 C586 1.356 . S
C588 C589 1.348 . S
C589 C584 1.353 . S
C589 C588 1.348 . S
C589 H641 0.929 . S
H590 C584 0.930 . S
H591 C587 0.930 . S
C592 N593 1.314 . S
C592 C594 1.353 1_655 S
C592 H598 0.928 . S
N593 Li569 1.990 . S
N593 C592 1.314 . S
N593 C596 1.279 . S
C594 C592 1.353 1_455 S
C594 C597 1.348 . S
C594 H642 0.929 . S
C595 C596 1.358 . S
C595 C597 1.356 1_655 S
C595 H643 0.930 . S
C596 N593 1.279 . S
C596 C595 1.358 . S
C596 H599 0.930 . S
C597 C594 1.348 . S
C597 C595 1.356 1_455 S
H598 C592 0.928 . S
H599 C596 0.930 . S
C600 C602 1.348 1_545 S
C600 C603 1.356 . S
C600 O630 1.325 . S
N601 C604 1.364 . S
N601 C605 1.279 . S
C602 C600 1.348 1_565 S
C602 C604 1.340 1_565 S
C602 H644 0.929 . S
C603 C600 1.356 . S
C603 C605 1.358 . S
C603 H645 0.930 . S
C604 N601 1.364 . S
C604 C602 1.340 1_545 S
C604 H646 0.891 1_545 S
C605 N601 1.279 . S
C605 C603 1.358 . S
C605 H647 0.930 . S
C606 C607 1.348 . S
C606 C608 1.356 . S
C606 O631 1.325 . S
C607 C606 1.348 . S
C607 C609 1.353 . S
C607 H648 0.929 . S
C608 C606 1.356 . S
C608 C610 1.358 . S
C608 H649 0.930 . S
C609 C607 1.353 . S
C609 N611 1.314 . S
C609 H650 0.930 . S
C610 C608 1.358 . S
C610 N611 1.279 . S
C610 H651 0.930 . S
N611 C609 1.314 . S
N611 C610 1.279 . S
C612 C614 1.353 1_655 S
C612 N615 1.314 . S
C612 H618 0.930 . S
C613 N615 1.279 . S
C613 C616 1.358 . S
C613 H619 0.930 . S
C614 C612 1.353 1_455 S
C614 C617 1.348 1_455 S
C614 H652 0.929 . S
N615 Li570 1.990 . S
N615 C612 1.314 . S
N615 C613 1.279 . S
C616 C613 1.358 . S
C616 C617 1.356 . S
C616 H653 0.930 . S
C617 C614 1.348 1_655 S
C617 C616 1.356 . S
H618 C612 0.930 . S
H619 C613 0.930 . S
C620 N621 1.314 . S
C620 C622 1.353 . S
C620 H626 0.930 . S
N621 Li571 1.990 . S
N621 C620 1.314 . S
N621 C624 1.279 . S
C622 C620 1.353 . S
C622 C625 1.348 . S
C622 H654 0.929 . S
C623 C624 1.358 . S
C623 C625 1.356 . S
C623 H655 0.930 . S
C624 N621 1.279 . S
C624 C623 1.358 . S
C624 H627 0.930 . S
C625 C622 1.348 . S
C625 C623 1.356 . S
H626 C620 0.930 . S
H627 C624 0.930 . S
O628 Li568 1.956 . S
O628 Li569 1.970 . S
O628 Li570 1.961 . S
O628 C572 1.325 . S
O629 Li568 1.970 . S
O629 Li569 1.956 . S
O629 Li571 1.961 1_545 S
O629 C578 1.325 . S
O630 Li568 1.961 . S
O630 Li570 1.956 . S
O630 Li571 1.970 1_545 S
O630 C600 1.325 . S
O631 Li569 1.961 1_565 S
O631 Li570 1.970 1_565 S
O631 Li571 1.956 . S
O631 C606 1.325 . S
H632 C574 0.929 . S
H633 C575 0.930 . S
H634 C576 0.930 . S
H635 C577 0.930 . S
H636 C579 0.930 . S
H637 C581 0.929 . S
H638 C582 0.930 . S
H639 C583 0.930 . S
H640 C586 0.930 . S
H641 C589 0.929 . S
H642 C594 0.929 . S
H643 C595 0.930 . S
H644 C602 0.929 . S
H645 C603 0.930 . S
H646 C604 0.891 1_565 S
H647 C605 0.930 . S
H648 C607 0.929 . S
H649 C608 0.930 . S
H650 C609 0.930 . S
H651 C610 0.930 . S
H652 C614 0.929 . S
H653 C616 0.930 . S
H654 C622 0.929 . S
H655 C623 0.930 . S
Li656 N673 1.990 . S
Li656 O716 1.956 . S
Li656 O717 1.970 . S
Li656 O718 1.961 . S
Li657 N681 1.990 . S
Li657 O716 1.970 . S
Li657 O717 1.956 . S
Li657 O719 1.961 . S
Li658 N703 1.990 . S
Li658 O716 1.961 . S
Li658 O718 1.956 . S
Li658 O719 1.970 . S
Li659 N709 1.990 . S
Li659 O717 1.961 . S
Li659 O718 1.970 . S
Li659 O719 1.956 . S
C660 C662 1.348 . S
C660 C663 1.356 . S
C660 O716 1.325 . S
N661 C664 1.314 . S
N661 C665 1.279 . S
C662 C660 1.348 . S
C662 C664 1.353 . S
C662 H720 0.929 . S
C663 C660 1.356 . S
C663 C665 1.358 . S
C663 H721 0.930 . S
C664 N661 1.314 . S
C664 C662 1.353 . S
C664 H722 0.930 . S
C665 N661 1.279 . S
C665 C663 1.358 . S
C665 H723 0.930 . S
C666 C669 1.348 . S
C666 C670 1.356 . S
C666 O717 1.325 . S
C667 N668 1.279 . S
C667 C670 1.358 . S
C667 H724 0.930 . S
N668 C667 1.279 . S
N668 C671 1.314 . S
C669 C666 1.348 . S
C669 C671 1.353 . S
C669 H725 0.929 . S
C670 C666 1.356 . S
C670 C667 1.358 . S
C670 H726 0.930 . S
C671 N668 1.314 . S
C671 C669 1.353 . S
C671 H727 0.930 . S
C672 N673 1.314 . S
C672 C677 1.353 . S
C672 H678 0.930 . S
N673 Li656 1.990 . S
N673 C672 1.314 . S
N673 C675 1.279 . S
C674 C675 1.358 . S
C674 C676 1.356 . S
C674 H728 0.930 . S
C675 N673 1.279 . S
C675 C674 1.358 . S
C675 H679 0.930 . S
C676 C674 1.356 . S
C676 C677 1.348 . S
C677 C672 1.353 . S
C677 C676 1.348 . S
C677 H729 0.929 . S
H678 C672 0.930 . S
H679 C675 0.930 . S
C680 N681 1.314 . S
C680 C682 1.353 . S
C680 H686 0.930 . S
N681 Li657 1.990 . S
N681 C680 1.314 . S
N681 C684 1.279 . S
C682 C680 1.353 . S
C682 C685 1.348 . S
C682 H730 0.929 . S
C683 C684 1.358 . S
C683 C685 1.356 . S
C683 H731 0.930 . S
C684 N681 1.279 . S
C684 C683 1.358 . S
C684 H687 0.930 . S
C685 C682 1.348 . S
C685 C683 1.356 . S
H686 C680 0.930 . S
H687 C684 0.930 . S
C688 C690 1.348 . S
C688 C691 1.356 . S
C688 O718 1.325 . S
N689 C692 1.314 . S
N689 C693 1.279 . S
C690 C688 1.348 . S
C690 C692 1.353 . S
C690 H732 0.929 . S
C691 C688 1.356 . S
C691 C693 1.358 . S
C691 H733 0.930 . S
C692 N689 1.314 . S
C692 C690 1.353 . S
C692 H734 0.930 . S
C693 N689 1.279 . S
C693 C691 1.358 . S
C693 H735 0.930 . S
C694 C695 1.348 . S
C694 C696 1.356 . S
C694 O719 1.325 . S
C695 C694 1.348 . S
C695 C697 1.353 . S
C695 H736 0.929 . S
C696 C694 1.356 . S
C696 C698 1.358 . S
C696 H737 0.930 . S
C697 C695 1.353 . S
C697 N699 1.314 . S
C697 H738 0.930 . S
C698 C696 1.358 . S
C698 N699 1.279 . S
C698 H739 0.930 . S
N699 C697 1.314 . S
N699 C698 1.279 . S
C700 C702 1.353 . S
C700 N703 1.314 . S
C700 H706 0.930 . S
C701 N703 1.279 . S
C701 C704 1.358 . S
C701 H707 0.930 . S
C702 C700 1.353 . S
C702 C705 1.348 . S
C702 H740 0.929 . S
N703 Li658 1.990 . S
N703 C700 1.314 . S
N703 C701 1.279 . S
C704 C701 1.358 . S
C704 C705 1.356 . S
C704 H741 0.930 . S
C705 C702 1.348 . S
C705 C704 1.356 . S
H706 C700 0.930 . S
H707 C701 0.930 . S
C708 N709 1.314 . S
C708 C710 1.353 . S
C708 H714 0.930 . S
N709 Li659 1.990 . S
N709 C708 1.314 . S
N709 C712 1.279 . S
C710 C708 1.353 . S
C710 C713 1.348 . S
C710 H742 0.929 . S
C711 C712 1.358 . S
C711 C713 1.356 . S
C711 H743 0.930 . S
C712 N709 1.279 . S
C712 C711 1.358 . S
C712 H715 0.930 . S
C713 C710 1.348 . S
C713 C711 1.356 . S
H714 C708 0.930 . S
H715 C712 0.930 . S
O716 Li656 1.956 . S
O716 Li657 1.970 . S
O716 Li658 1.961 . S
O716 C660 1.325 . S
O717 Li656 1.970 . S
O717 Li657 1.956 . S
O717 Li659 1.961 . S
O717 C666 1.325 . S
O718 Li656 1.961 . S
O718 Li658 1.956 . S
O718 Li659 1.970 . S
O718 C688 1.325 . S
O719 Li657 1.961 . S
O719 Li658 1.970 . S
O719 Li659 1.956 . S
O719 C694 1.325 . S
H720 C662 0.929 . S
H721 C663 0.930 . S
H722 C664 0.930 . S
H723 C665 0.930 . S
H724 C667 0.930 . S
H725 C669 0.929 . S
H726 C670 0.930 . S
H727 C671 0.930 . S
H728 C674 0.930 . S
H729 C677 0.929 . S
H730 C682 0.929 . S
H731 C683 0.930 . S
H732 C690 0.929 . S
H733 C691 0.930 . S
H734 C692 0.930 . S
H735 C693 0.930 . S
H736 C695 0.929 . S
H737 C696 0.930 . S
H738 C697 0.930 . S
H739 C698 0.930 . S
H740 C702 0.929 . S
H741 C704 0.930 . S
H742 C710 0.929 . S
H743 C711 0.930 . S
Li744 N761 1.990 . S
Li744 O804 1.956 . S
Li744 O805 1.970 . S
Li744 O806 1.961 . S
Li745 N769 1.990 . S
Li745 O804 1.970 . S
Li745 O805 1.956 . S
Li745 O807 1.961 . S
Li746 N791 1.990 . S
Li746 O804 1.961 . S
Li746 O806 1.956 . S
Li746 O807 1.970 . S
Li747 N797 1.990 . S
Li747 O805 1.961 . S
Li747 O806 1.970 . S
Li747 O807 1.956 . S
C748 C750 1.348 . S
C748 C751 1.356 . S
C748 O804 1.325 . S
N749 C752 1.314 . S
N749 C753 1.279 . S
C750 C748 1.348 . S
C750 C752 1.353 . S
C750 H808 0.929 . S
C751 C748 1.356 . S
C751 C753 1.358 . S
C751 H809 0.930 . S
C752 N749 1.314 . S
C752 C750 1.353 . S
C752 H810 0.930 . S
C753 N749 1.279 . S
C753 C751 1.358 . S
C753 H811 0.930 . S
C754 C757 1.348 . S
C754 C758 1.356 . S
C754 O805 1.325 . S
C755 N756 1.279 . S
C755 C758 1.358 . S
C755 H812 0.930 . S
N756 C755 1.279 . S
N756 C759 1.314 . S
C757 C754 1.348 . S
C757 C759 1.353 . S
C757 H813 0.929 . S
C758 C754 1.356 . S
C758 C755 1.358 . S
C758 H814 0.930 . S
C759 N756 1.314 . S
C759 C757 1.353 . S
C759 H815 0.930 . S
C760 N761 1.314 . S
C760 C765 1.353 . S
C760 H766 0.930 . S
N761 Li744 1.990 . S
N761 C760 1.314 . S
N761 C763 1.279 . S
C762 C763 1.358 . S
C762 C764 1.356 . S
C762 H816 0.930 . S
C763 N761 1.279 . S
C763 C762 1.358 . S
C763 H767 0.930 . S
C764 C762 1.356 . S
C764 C765 1.348 . S
C765 C760 1.353 . S
C765 C764 1.348 . S
C765 H817 0.929 . S
H766 C760 0.930 . S
H767 C763 0.930 . S
C768 N769 1.314 . S
C768 C770 1.353 . S
C768 H774 0.930 . S
N769 Li745 1.990 . S
N769 C768 1.314 . S
N769 C772 1.279 . S
C770 C768 1.353 . S
C770 C773 1.348 . S
C770 H818 0.929 . S
C771 C772 1.358 . S
C771 C773 1.356 . S
C771 H819 0.930 . S
C772 N769 1.279 . S
C772 C771 1.358 . S
C772 H775 0.930 . S
C773 C770 1.348 . S
C773 C771 1.356 . S
H774 C768 0.930 . S
H775 C772 0.930 . S
C776 C778 1.348 . S
C776 C779 1.356 . S
C776 O806 1.325 . S
N777 C780 1.314 . S
N777 C781 1.279 . S
C778 C776 1.348 . S
C778 C780 1.353 . S
C778 H820 0.929 . S
C779 C776 1.356 . S
C779 C781 1.358 . S
C779 H821 0.930 . S
C780 N777 1.314 . S
C780 C778 1.353 . S
C780 H822 0.930 . S
C781 N777 1.279 . S
C781 C779 1.358 . S
C781 H823 0.930 . S
C782 C783 1.348 . S
C782 C784 1.356 . S
C782 O807 1.325 . S
C783 C782 1.348 . S
C783 C785 1.353 . S
C783 H824 0.929 . S
C784 C782 1.356 . S
C784 C786 1.358 . S
C784 H825 0.930 . S
C785 C783 1.353 . S
C785 N787 1.314 . S
C785 H826 0.930 . S
C786 C784 1.358 . S
C786 N787 1.279 . S
C786 H827 0.930 . S
N787 C785 1.314 . S
N787 C786 1.279 . S
C788 C790 1.353 . S
C788 N791 1.314 . S
C788 H794 0.930 . S
C789 N791 1.279 . S
C789 C792 1.358 . S
C789 H795 0.930 . S
C790 C788 1.353 . S
C790 C793 1.348 . S
C790 H828 0.929 . S
N791 Li746 1.990 . S
N791 C788 1.314 . S
N791 C789 1.279 . S
C792 C789 1.358 . S
C792 C793 1.356 . S
C792 H829 0.930 . S
C793 C790 1.348 . S
C793 C792 1.356 . S
H794 C788 0.930 . S
H795 C789 0.930 . S
C796 N797 1.314 . S
C796 C798 1.353 . S
C796 H802 0.930 . S
N797 Li747 1.990 . S
N797 C796 1.314 . S
N797 C800 1.279 . S
C798 C796 1.353 . S
C798 C801 1.348 . S
C798 H830 0.929 . S
C799 C800 1.358 . S
C799 C801 1.356 . S
C799 H831 0.930 . S
C800 N797 1.279 . S
C800 C799 1.358 . S
C800 H803 0.930 . S
C801 C798 1.348 . S
C801 C799 1.356 . S
H802 C796 0.930 . S
H803 C800 0.930 . S
O804 Li744 1.956 . S
O804 Li745 1.970 . S
O804 Li746 1.961 . S
O804 C748 1.325 . S
O805 Li744 1.970 . S
O805 Li745 1.956 . S
O805 Li747 1.961 . S
O805 C754 1.325 . S
O806 Li744 1.961 . S
O806 Li746 1.956 . S
O806 Li747 1.970 . S
O806 C776 1.325 . S
O807 Li745 1.961 . S
O807 Li746 1.970 . S
O807 Li747 1.956 . S
O807 C782 1.325 . S
H808 C750 0.929 . S
H809 C751 0.930 . S
H810 C752 0.930 . S
H811 C753 0.930 . S
H812 C755 0.930 . S
H813 C757 0.929 . S
H814 C758 0.930 . S
H815 C759 0.930 . S
H816 C762 0.930 . S
H817 C765 0.929 . S
H818 C770 0.929 . S
H819 C771 0.930 . S
H820 C778 0.929 . S
H821 C779 0.930 . S
H822 C780 0.930 . S
H823 C781 0.930 . S
H824 C783 0.929 . S
H825 C784 0.930 . S
H826 C785 0.930 . S
H827 C786 0.930 . S
H828 C790 0.929 . S
H829 C792 0.930 . S
H830 C798 0.929 . S
H831 C799 0.930 . S
Li832 N849 1.990 . S
Li832 O892 1.956 . S
Li832 O893 1.970 . S
Li832 O894 1.961 . S
Li833 N857 1.990 . S
Li833 O892 1.970 . S
Li833 O893 1.956 . S
Li833 O895 1.961 . S
Li834 N879 1.990 . S
Li834 O892 1.961 . S
Li834 O894 1.956 . S
Li834 O895 1.970 . S
Li835 N885 1.990 . S
Li835 O893 1.961 . S
Li835 O894 1.970 . S
Li835 O895 1.956 . S
C836 C838 1.348 . S
C836 C839 1.356 . S
C836 O892 1.325 . S
N837 C840 1.314 . S
N837 C841 1.279 . S
C838 C836 1.348 . S
C838 C840 1.353 . S
C838 H896 0.929 . S
C839 C836 1.356 . S
C839 C841 1.358 . S
C839 H897 0.930 . S
C840 N837 1.314 . S
C840 C838 1.353 . S
C840 H898 0.930 . S
C841 N837 1.279 . S
C841 C839 1.358 . S
C841 H899 0.930 . S
C842 C845 1.348 . S
C842 C846 1.356 . S
C842 O893 1.325 . S
C843 N844 1.279 . S
C843 C846 1.358 . S
C843 H900 0.930 . S
N844 C843 1.279 . S
N844 C847 1.314 . S
C845 C842 1.348 . S
C845 C847 1.353 . S
C845 H901 0.929 . S
C846 C842 1.356 . S
C846 C843 1.358 . S
C846 H902 0.930 . S
C847 N844 1.314 . S
C847 C845 1.353 . S
C847 H903 0.930 . S
C848 N849 1.314 . S
C848 C853 1.353 . S
C848 H854 0.930 . S
N849 Li832 1.990 . S
N849 C848 1.314 . S
N849 C851 1.279 . S
C850 C851 1.358 . S
C850 C852 1.356 . S
C850 H904 0.930 . S
C851 N849 1.279 . S
C851 C850 1.358 . S
C851 H855 0.930 . S
C852 C850 1.356 . S
C852 C853 1.348 . S
C853 C848 1.353 . S
C853 C852 1.348 . S
C853 H905 0.929 . S
H854 C848 0.930 . S
H855 C851 0.930 . S
C856 N857 1.314 . S
C856 C858 1.353 . S
C856 H862 0.930 . S
N857 Li833 1.990 . S
N857 C856 1.314 . S
N857 C860 1.279 . S
C858 C856 1.353 . S
C858 C861 1.348 . S
C858 H906 0.929 . S
C859 C860 1.358 . S
C859 C861 1.356 . S
C859 H907 0.930 . S
C860 N857 1.279 . S
C860 C859 1.358 . S
C860 H863 0.930 . S
C861 C858 1.348 . S
C861 C859 1.356 . S
H862 C856 0.930 . S
H863 C860 0.930 . S
C864 C866 1.348 . S
C864 C867 1.356 . S
C864 O894 1.325 . S
N865 C868 1.314 . S
N865 C869 1.279 . S
C866 C864 1.348 . S
C866 C868 1.353 . S
C866 H908 0.929 . S
C867 C864 1.356 . S
C867 C869 1.358 . S
C867 H909 0.930 . S
C868 N865 1.314 . S
C868 C866 1.353 . S
C868 H910 0.930 . S
C869 N865 1.279 . S
C869 C867 1.358 . S
C869 H911 0.930 . S
C870 C871 1.348 . S
C870 C872 1.356 . S
C870 O895 1.325 . S
C871 C870 1.348 . S
C871 C873 1.353 . S
C871 H912 0.929 . S
C872 C870 1.356 . S
C872 C874 1.358 . S
C872 H913 0.930 . S
C873 C871 1.353 . S
C873 N875 1.314 . S
C873 H914 0.930 . S
C874 C872 1.358 . S
C874 N875 1.279 . S
C874 H915 0.930 . S
N875 C873 1.314 . S
N875 C874 1.279 . S
C876 C878 1.353 . S
C876 N879 1.314 . S
C876 H882 0.930 . S
C877 N879 1.279 . S
C877 C880 1.358 . S
C877 H883 0.930 . S
C878 C876 1.353 . S
C878 C881 1.348 . S
C878 H916 0.929 . S
N879 Li834 1.990 . S
N879 C876 1.314 . S
N879 C877 1.279 . S
C880 C877 1.358 . S
C880 C881 1.356 . S
C880 H917 0.930 . S
C881 C878 1.348 . S
C881 C880 1.356 . S
H882 C876 0.930 . S
H883 C877 0.930 . S
C884 N885 1.314 . S
C884 C886 1.353 . S
C884 H890 0.930 . S
N885 Li835 1.990 . S
N885 C884 1.314 . S
N885 C888 1.279 . S
C886 C884 1.353 . S
C886 C889 1.348 . S
C886 H918 0.929 . S
C887 C888 1.358 . S
C887 C889 1.356 . S
C887 H919 0.930 . S
C888 N885 1.279 . S
C888 C887 1.358 . S
C888 H891 0.930 . S
C889 C886 1.348 . S
C889 C887 1.356 . S
H890 C884 0.930 . S
H891 C888 0.930 . S
O892 Li832 1.956 . S
O892 Li833 1.970 . S
O892 Li834 1.961 . S
O892 C836 1.325 . S
O893 Li832 1.970 . S
O893 Li833 1.956 . S
O893 Li835 1.961 . S
O893 C842 1.325 . S
O894 Li832 1.961 . S
O894 Li834 1.956 . S
O894 Li835 1.970 . S
O894 C864 1.325 . S
O895 Li833 1.961 . S
O895 Li834 1.970 . S
O895 Li835 1.956 . S
O895 C870 1.325 . S
H896 C838 0.929 . S
H897 C839 0.930 . S
H898 C840 0.930 . S
H899 C841 0.930 . S
H900 C843 0.930 . S
H901 C845 0.929 . S
H902 C846 0.930 . S
H903 C847 0.930 . S
H904 C850 0.930 . S
H905 C853 0.929 . S
H906 C858 0.929 . S
H907 C859 0.930 . S
H908 C866 0.929 . S
H909 C867 0.930 . S
H910 C868 0.930 . S
H911 C869 0.930 . S
H912 C871 0.929 . S
H913 C872 0.930 . S
H914 C873 0.930 . S
H915 C874 0.930 . S
H916 C878 0.929 . S
H917 C880 0.930 . S
H918 C886 0.929 . S
H919 C887 0.930 . S
Li920 N937 1.990 1_545 S
Li920 O980 1.957 1_545 S
Li920 O981 1.970 . S
Li920 O982 1.961 . S
Li921 N945 1.990 . S
Li921 O980 1.951 1_545 S
Li921 O981 1.956 . S
Li921 O983 1.961 . S
Li922 N967 1.990 . S
Li922 O980 1.945 1_545 S
Li922 O982 1.956 . S
Li922 O983 1.970 . S
Li923 N973 1.990 . S
Li923 O981 1.961 . S
Li923 O982 1.970 . S
Li923 O983 1.956 . S
C924 C926 1.348 . S
C924 C927 1.356 . S
C924 O980 1.345 . S
N925 C928 1.314 . S
N925 C929 1.279 . S
C926 C924 1.348 . S
C926 C928 1.353 . S
C926 H984 0.929 . S
C927 C924 1.356 . S
C927 C929 1.358 . S
C927 H985 0.930 . S
C928 N925 1.314 . S
C928 C926 1.353 . S
C928 H986 0.930 . S
C929 N925 1.279 . S
C929 C927 1.358 . S
C929 H987 0.930 . S
C930 C933 1.348 . S
C930 C934 1.356 . S
C930 O981 1.325 . S
C931 N932 1.279 . S
C931 C934 1.358 . S
C931 H988 0.930 . S
N932 C931 1.279 . S
N932 C935 1.314 . S
C933 C930 1.348 . S
C933 C935 1.353 . S
C933 H989 0.929 . S
C934 C930 1.356 . S
C934 C931 1.358 . S
C934 H990 0.930 . S
C935 N932 1.314 . S
C935 C933 1.353 . S
C935 H991 0.930 . S
C936 N937 1.314 . S
C936 C941 1.353 . S
C936 H942 0.930 . S
N937 Li920 1.990 1_565 S
N937 C936 1.314 . S
N937 C939 1.279 . S
C938 C939 1.358 . S
C938 C940 1.356 . S
C938 H992 0.930 . S
C939 N937 1.279 . S
C939 C938 1.358 . S
C939 H943 0.930 . S
C940 C938 1.356 . S
C940 C941 1.348 . S
C941 C936 1.353 . S
C941 C940 1.348 . S
C941 H993 0.929 . S
H942 C936 0.930 . S
H943 C939 0.930 . S
C944 N945 1.314 . S
C944 C946 1.353 . S
C944 H950 0.930 . S
N945 Li921 1.990 . S
N945 C944 1.314 . S
N945 C948 1.279 . S
C946 C944 1.353 . S
C946 C949 1.348 . S
C946 H994 0.929 . S
C947 C948 1.358 . S
C947 C949 1.356 . S
C947 H995 0.930 . S
C948 N945 1.279 . S
C948 C947 1.358 . S
C948 H951 0.930 . S
C949 C946 1.348 . S
C949 C947 1.356 . S
H950 C944 0.930 . S
H951 C948 0.930 . S
C952 C954 1.348 . S
C952 C955 1.356 1_545 S
C952 O982 1.325 . S
N953 C956 1.314 . S
N953 C957 1.279 1_545 S
C954 C952 1.348 . S
C954 C956 1.353 . S
C954 H996 0.929 . S
C955 C952 1.356 1_565 S
C955 C957 1.358 . S
C955 H997 0.930 . S
C956 N953 1.314 . S
C956 C954 1.353 . S
C956 H998 0.930 . S
C957 N953 1.279 1_565 S
C957 C955 1.358 . S
C957 H999 0.930 . S
C958 C959 1.348 . S
C958 C960 1.356 . S
C958 O983 1.325 . S
C959 C958 1.348 . S
C959 C961 1.353 . S
C959 H1000 0.929 . S
C960 C958 1.356 . S
C960 C962 1.358 . S
C960 H1001 0.930 . S
C961 C959 1.353 . S
C961 N963 1.314 . S
C961 H1002 0.930 . S
C962 C960 1.358 . S
C962 N963 1.279 . S
C962 H1003 0.930 . S
N963 C961 1.314 . S
N963 C962 1.279 . S
C964 C966 1.353 1_545 S
C964 N967 1.314 . S
C964 H970 0.930 . S
C965 N967 1.279 . S
C965 C968 1.358 . S
C965 H971 0.930 . S
C966 C964 1.353 1_565 S
C966 C969 1.348 . S
C966 H1004 0.929 . S
N967 Li922 1.990 . S
N967 C964 1.314 . S
N967 C965 1.279 . S
C968 C965 1.358 . S
C968 C969 1.356 1_545 S
C968 H1005 0.930 . S
C969 C966 1.348 . S
C969 C968 1.356 1_565 S
H970 C964 0.930 . S
H971 C965 0.930 . S
C972 N973 1.314 . S
C972 C974 1.353 . S
C972 H978 0.930 . S
N973 Li923 1.990 . S
N973 C972 1.314 . S
N973 C976 1.279 . S
C974 C972 1.353 . S
C974 C977 1.348 . S
C974 H1006 0.929 . S
C975 C976 1.358 . S
C975 C977 1.356 . S
C975 H1007 0.930 . S
C976 N973 1.279 . S
C976 C975 1.358 . S
C976 H979 0.930 . S
C977 C974 1.348 . S
C977 C975 1.356 . S
H978 C972 0.930 . S
H979 C976 0.930 . S
O980 Li920 1.957 1_565 S
O980 Li921 1.951 1_565 S
O980 Li922 1.945 1_565 S
O980 C924 1.345 . S
O981 Li920 1.970 . S
O981 Li921 1.956 . S
O981 Li923 1.961 . S
O981 C930 1.325 . S
O982 Li920 1.961 . S
O982 Li922 1.956 . S
O982 Li923 1.970 . S
O982 C952 1.325 . S
O983 Li921 1.961 . S
O983 Li922 1.970 . S
O983 Li923 1.956 . S
O983 C958 1.325 . S
H984 C926 0.929 . S
H985 C927 0.930 . S
H986 C928 0.930 . S
H987 C929 0.930 . S
H988 C931 0.930 . S
H989 C933 0.929 . S
H990 C934 0.930 . S
H991 C935 0.930 . S
H992 C938 0.930 . S
H993 C941 0.929 . S
H994 C946 0.929 . S
H995 C947 0.930 . S
H996 C954 0.929 . S
H997 C955 0.930 . S
H998 C956 0.930 . S
H999 C957 0.930 . S
H1000 C959 0.929 . S
H1001 C960 0.930 . S
H1002 C961 0.930 . S
H1003 C962 0.930 . S
H1004 C966 0.929 . S
H1005 C968 0.930 . S
H1006 C974 0.929 . S
H1007 C975 0.930 . S
Li1008 N1025 1.990 . S
Li1008 O1068 1.956 . S
Li1008 O1069 1.970 . S
Li1008 O1070 1.961 . S
Li1009 N1033 1.990 . S
Li1009 O1068 1.970 . S
Li1009 O1069 1.956 . S
Li1009 O1071 1.961 1_455 S
Li1010 N1055 1.990 . S
Li1010 O1068 1.961 . S
Li1010 O1070 1.956 . S
Li1010 O1071 1.970 1_455 S
Li1011 N1061 1.990 . S
Li1011 O1069 1.961 1_655 S
Li1011 O1070 1.970 1_655 S
Li1011 O1071 1.956 . S
C1012 C1014 1.348 . S
C1012 C1015 1.356 . S
C1012 O1068 1.325 . S
N1013 C1016 1.314 . S
N1013 C1017 1.279 . S
C1014 C1012 1.348 . S
C1014 C1016 1.353 . S
C1014 H1072 0.929 . S
C1015 C1012 1.356 . S
C1015 C1017 1.358 . S
C1015 H1073 0.930 . S
C1016 N1013 1.314 . S
C1016 C1014 1.353 . S
C1016 H1074 0.930 . S
C1017 N1013 1.279 . S
C1017 C1015 1.358 . S
C1017 H1075 0.930 . S
C1018 C1021 1.348 . S
C1018 C1022 1.356 1_455 S
C1018 O1069 1.325 . S
C1019 N1020 1.280 1_655 S
C1019 C1022 1.358 . S
C1019 H1076 0.930 . S
N1020 C1019 1.280 1_455 S
N1020 C1023 1.313 . S
C1021 C1018 1.348 . S
C1021 C1023 1.353 . S
C1021 H1077 0.929 . S
C1022 C1018 1.356 1_655 S
C1022 C1019 1.358 . S
C1022 H1078 0.930 . S
C1023 N1020 1.313 . S
C1023 C1021 1.353 . S
C1023 H1079 0.930 . S
C1024 N1025 1.314 . S
C1024 C1029 1.353 . S
C1024 H1030 0.930 . S
N1025 Li1008 1.990 . S
N1025 C1024 1.314 . S
N1025 C1027 1.279 . S
C1026 C1027 1.358 . S
C1026 C1028 1.356 . S
C1026 H1080 0.930 . S
C1027 N1025 1.279 . S
C1027 C1026 1.358 . S
C1027 H1031 0.930 . S
C1028 C1026 1.356 . S
C1028 C1029 1.348 . S
C1029 C1024 1.353 . S
C1029 C1028 1.348 . S
C1029 H1081 0.929 . S
H1030 C1024 0.930 . S
H1031 C1027 0.930 . S
C1032 N1033 1.314 1_655 S
C1032 C1034 1.353 . S
C1032 H1038 0.930 . S
N1033 Li1009 1.990 . S
N1033 C1032 1.314 1_455 S
N1033 C1036 1.279 . S
C1034 C1032 1.353 . S
C1034 C1037 1.348 1_655 S
C1034 H1082 0.929 . S
C1035 C1036 1.358 . S
C1035 C1037 1.356 . S
C1035 H1083 0.930 . S
C1036 N1033 1.279 . S
C1036 C1035 1.358 . S
C1036 H1039 0.930 . S
C1037 C1034 1.348 1_455 S
C1037 C1035 1.356 . S
H1038 C1032 0.930 . S
H1039 C1036 0.930 . S
C1040 C1042 1.348 1_455 S
C1040 C1043 1.356 . S
C1040 O1070 1.325 . S
N1041 C1044 1.314 1_455 S
N1041 C1045 1.279 . S
C1042 C1040 1.348 1_655 S
C1042 C1044 1.353 . S
C1042 H1084 0.929 . S
C1043 C1040 1.356 . S
C1043 C1045 1.358 . S
C1043 H1085 0.930 . S
C1044 N1041 1.314 1_655 S
C1044 C1042 1.353 . S
C1044 H1086 0.930 . S
C1045 N1041 1.279 . S
C1045 C1043 1.358 . S
C1045 H1087 0.930 . S
C1046 C1047 1.348 . S
C1046 C1048 1.356 . S
C1046 O1071 1.325 . S
C1047 C1046 1.348 . S
C1047 C1049 1.353 . S
C1047 H1088 0.929 . S
C1048 C1046 1.356 . S
C1048 C1050 1.358 . S
C1048 H1089 0.930 . S
C1049 C1047 1.353 . S
C1049 N1051 1.314 . S
C1049 H1090 0.930 . S
C1050 C1048 1.358 . S
C1050 N1051 1.279 . S
C1050 H1091 0.930 . S
N1051 C1049 1.314 . S
N1051 C1050 1.279 . S
C1052 C1054 1.353 . S
C1052 N1055 1.314 . S
C1052 H1058 0.930 . S
C1053 N1055 1.279 . S
C1053 C1056 1.358 . S
C1053 H1059 0.938 . S
C1054 C1052 1.353 . S
C1054 C1057 1.348 . S
C1054 H1092 0.929 . S
N1055 Li1010 1.990 . S
N1055 C1052 1.314 . S
N1055 C1053 1.279 . S
C1056 C1053 1.358 . S
C1056 C1057 1.356 . S
C1056 H1093 0.930 . S
C1057 C1054 1.348 . S
C1057 C1056 1.356 . S
H1058 C1052 0.930 . S
H1059 C1053 0.938 . S
C1060 N1061 1.314 . S
C1060 C1062 1.353 . S
C1060 H1066 0.930 . S
N1061 Li1011 1.990 . S
N1061 C1060 1.314 . S
N1061 C1064 1.279 . S
C1062 C1060 1.353 . S
C1062 C1065 1.348 . S
C1062 H1094 0.929 . S
C1063 C1064 1.358 . S
C1063 C1065 1.356 . S
C1063 H1095 0.930 . S
C1064 N1061 1.279 . S
C1064 C1063 1.358 . S
C1064 H1067 0.930 . S
C1065 C1062 1.348 . S
C1065 C1063 1.356 . S
H1066 C1060 0.930 . S
H1067 C1064 0.930 . S
O1068 Li1008 1.956 . S
O1068 Li1009 1.970 . S
O1068 Li1010 1.961 . S
O1068 C1012 1.325 . S
O1069 Li1008 1.970 . S
O1069 Li1009 1.956 . S
O1069 Li1011 1.961 1_455 S
O1069 C1018 1.325 . S
O1070 Li1008 1.961 . S
O1070 Li1010 1.956 . S
O1070 Li1011 1.970 1_455 S
O1070 C1040 1.325 . S
O1071 Li1009 1.961 1_655 S
O1071 Li1010 1.970 1_655 S
O1071 Li1011 1.956 . S
O1071 C1046 1.325 . S
H1072 C1014 0.929 . S
H1073 C1015 0.930 . S
H1074 C1016 0.930 . S
H1075 C1017 0.930 . S
H1076 C1019 0.930 . S
H1077 C1021 0.929 . S
H1078 C1022 0.930 . S
H1079 C1023 0.930 . S
H1080 C1026 0.930 . S
H1081 C1029 0.929 . S
H1082 C1034 0.929 . S
H1083 C1035 0.930 . S
H1084 C1042 0.929 . S
H1085 C1043 0.930 . S
H1086 C1044 0.930 . S
H1087 C1045 0.930 . S
H1088 C1047 0.929 . S
H1089 C1048 0.930 . S
H1090 C1049 0.930 . S
H1091 C1050 0.930 . S
H1092 C1054 0.929 . S
H1093 C1056 0.930 . S
H1094 C1062 0.929 . S
H1095 C1063 0.930 . S
Li1096 N1113 1.990 . S
Li1096 O1156 1.956 . S
Li1096 O1157 1.970 . S
Li1096 O1158 1.961 . S
Li1097 N1121 1.990 . S
Li1097 O1156 1.970 . S
Li1097 O1157 1.956 . S
Li1097 O1159 1.961 . S
Li1098 N1143 1.990 . S
Li1098 O1156 1.961 . S
Li1098 O1158 1.956 . S
Li1098 O1159 1.970 . S
Li1099 N1149 1.990 . S
Li1099 O1157 1.961 . S
Li1099 O1158 1.970 . S
Li1099 O1159 1.956 . S
C1100 C1102 1.348 . S
C1100 C1103 1.356 . S
C1100 O1156 1.325 . S
N1101 C1104 1.314 . S
N1101 C1105 1.279 . S
C1102 C1100 1.348 . S
C1102 C1104 1.353 . S
C1102 H1160 0.929 . S
C1103 C1100 1.356 . S
C1103 C1105 1.358 . S
C1103 H1161 0.930 . S
C1104 N1101 1.314 . S
C1104 C1102 1.353 . S
C1104 H1162 0.930 . S
C1105 N1101 1.279 . S
C1105 C1103 1.358 . S
C1105 H1163 0.930 . S
C1106 C1109 1.348 . S
C1106 C1110 1.356 . S
C1106 O1157 1.325 . S
C1107 N1108 1.279 . S
C1107 C1110 1.358 . S
C1107 H1164 0.930 . S
N1108 C1107 1.279 . S
N1108 C1111 1.314 . S
C1109 C1106 1.348 . S
C1109 C1111 1.353 . S
C1109 H1165 0.929 . S
C1110 C1106 1.356 . S
C1110 C1107 1.358 . S
C1110 H1166 0.930 . S
C1111 N1108 1.314 . S
C1111 C1109 1.353 . S
C1111 H1167 0.930 . S
C1112 N1113 1.314 . S
C1112 C1117 1.353 . S
C1112 H1118 0.930 . S
N1113 Li1096 1.990 . S
N1113 C1112 1.314 . S
N1113 C1115 1.279 . S
C1114 C1115 1.358 . S
C1114 C1116 1.356 . S
C1114 H1168 0.930 . S
C1115 N1113 1.279 . S
C1115 C1114 1.358 . S
C1115 H1119 0.930 . S
C1116 C1114 1.356 . S
C1116 C1117 1.348 . S
C1117 C1112 1.353 . S
C1117 C1116 1.348 . S
C1117 H1169 0.929 . S
H1118 C1112 0.930 . S
H1119 C1115 0.930 . S
C1120 N1121 1.314 . S
C1120 C1122 1.353 . S
C1120 H1126 0.930 . S
N1121 Li1097 1.990 . S
N1121 C1120 1.314 . S
N1121 C1124 1.279 . S
C1122 C1120 1.353 . S
C1122 C1125 1.348 . S
C1122 H1170 0.929 . S
C1123 C1124 1.358 . S
C1123 C1125 1.356 . S
C1123 H1171 0.930 . S
C1124 N1121 1.279 . S
C1124 C1123 1.358 . S
C1124 H1127 0.930 . S
C1125 C1122 1.348 . S
C1125 C1123 1.356 . S
H1126 C1120 0.930 . S
H1127 C1124 0.930 . S
C1128 C1130 1.348 . S
C1128 C1131 1.356 . S
C1128 O1158 1.325 . S
N1129 C1132 1.314 . S
N1129 C1133 1.279 . S
C1130 C1128 1.348 . S
C1130 C1132 1.353 . S
C1130 H1172 0.929 . S
C1131 C1128 1.356 . S
C1131 C1133 1.358 . S
C1131 H1173 0.930 . S
C1132 N1129 1.314 . S
C1132 C1130 1.353 . S
C1132 H1174 0.930 . S
C1133 N1129 1.279 . S
C1133 C1131 1.358 . S
C1133 H1175 0.930 . S
C1134 C1135 1.348 . S
C1134 C1136 1.356 . S
C1134 O1159 1.325 . S
C1135 C1134 1.348 . S
C1135 C1137 1.353 . S
C1135 H1176 0.929 . S
C1136 C1134 1.356 . S
C1136 C1138 1.358 . S
C1136 H1177 0.930 . S
C1137 C1135 1.353 . S
C1137 N1139 1.314 . S
C1137 H1178 0.930 . S
C1138 C1136 1.358 . S
C1138 N1139 1.279 . S
C1138 H1179 0.930 . S
N1139 C1137 1.314 . S
N1139 C1138 1.279 . S
C1140 C1142 1.353 . S
C1140 N1143 1.314 . S
C1140 H1146 0.930 . S
C1141 N1143 1.279 . S
C1141 C1144 1.358 . S
C1141 H1147 0.930 . S
C1142 C1140 1.353 . S
C1142 C1145 1.348 . S
C1142 H1180 0.929 . S
N1143 Li1098 1.990 . S
N1143 C1140 1.314 . S
N1143 C1141 1.279 . S
C1144 C1141 1.358 . S
C1144 C1145 1.356 . S
C1144 H1181 0.930 . S
C1145 C1142 1.348 . S
C1145 C1144 1.356 . S
H1146 C1140 0.930 . S
H1147 C1141 0.930 . S
C1148 N1149 1.314 . S
C1148 C1150 1.353 . S
C1148 H1154 0.930 . S
N1149 Li1099 1.990 . S
N1149 C1148 1.314 . S
N1149 C1152 1.279 . S
C1150 C1148 1.353 . S
C1150 C1153 1.348 . S
C1150 H1182 0.929 . S
C1151 C1152 1.358 . S
C1151 C1153 1.356 . S
C1151 H1183 0.930 . S
C1152 N1149 1.279 . S
C1152 C1151 1.358 . S
C1152 H1155 0.930 . S
C1153 C1150 1.348 . S
C1153 C1151 1.356 . S
H1154 C1148 0.930 . S
H1155 C1152 0.930 . S
O1156 Li1096 1.956 . S
O1156 Li1097 1.970 . S
O1156 Li1098 1.961 . S
O1156 C1100 1.325 . S
O1157 Li1096 1.970 . S
O1157 Li1097 1.956 . S
O1157 Li1099 1.961 . S
O1157 C1106 1.325 . S
O1158 Li1096 1.961 . S
O1158 Li1098 1.956 . S
O1158 Li1099 1.970 . S
O1158 C1128 1.325 . S
O1159 Li1097 1.961 . S
O1159 Li1098 1.970 . S
O1159 Li1099 1.956 . S
O1159 C1134 1.325 . S
H1160 C1102 0.929 . S
H1161 C1103 0.930 . S
H1162 C1104 0.930 . S
H1163 C1105 0.930 . S
H1164 C1107 0.930 . S
H1165 C1109 0.929 . S
H1166 C1110 0.930 . S
H1167 C1111 0.930 . S
H1168 C1114 0.930 . S
H1169 C1117 0.929 . S
H1170 C1122 0.929 . S
H1171 C1123 0.930 . S
H1172 C1130 0.929 . S
H1173 C1131 0.930 . S
H1174 C1132 0.930 . S
H1175 C1133 0.930 . S
H1176 C1135 0.929 . S
H1177 C1136 0.930 . S
H1178 C1137 0.930 . S
H1179 C1138 0.930 . S
H1180 C1142 0.929 . S
H1181 C1144 0.930 . S
H1182 C1150 0.929 . S
H1183 C1151 0.930 . S
Li1184 N1201 1.990 . S
Li1184 O1244 1.956 . S
Li1184 O1245 1.970 1_455 S
Li1184 O1246 1.961 . S
Li1185 N1209 1.990 . S
Li1185 O1244 1.970 1_655 S
Li1185 O1245 1.956 . S
Li1185 O1247 1.961 . S
Li1186 N1231 1.990 . S
Li1186 O1244 1.961 . S
Li1186 O1246 1.956 . S
Li1186 O1247 1.970 1_455 S
Li1187 N1237 1.990 . S
Li1187 O1245 1.961 . S
Li1187 O1246 1.970 1_655 S
Li1187 O1247 1.956 . S
C1188 C1190 1.348 1_455 S
C1188 C1191 1.356 . S
C1188 O1244 1.325 . S
N1189 C1192 1.333 . S
N1189 C1193 1.279 . S
C1190 C1188 1.348 1_655 S
C1190 C1192 1.350 1_655 S
C1190 H1248 0.929 . S
C1191 C1188 1.356 . S
C1191 C1193 1.358 . S
C1191 H1249 0.930 . S
C1192 N1189 1.333 . S
C1192 C1190 1.350 1_455 S
C1192 H1250 0.913 1_455 S
C1193 N1189 1.279 . S
C1193 C1191 1.358 . S
C1193 H1251 0.930 . S
C1194 C1197 1.348 . S
C1194 C1198 1.356 . S
C1194 O1245 1.325 . S
C1195 N1196 1.279 . S
C1195 C1198 1.358 . S
C1195 H1252 0.930 . S
N1196 C1195 1.279 . S
N1196 C1199 1.314 . S
C1197 C1194 1.348 . S
C1197 C1199 1.353 . S
C1197 H1253 0.929 . S
C1198 C1194 1.356 . S
C1198 C1195 1.358 . S
C1198 H1254 0.930 . S
C1199 N1196 1.314 . S
C1199 C1197 1.353 . S
C1199 H1255 0.930 . S
C1200 N1201 1.314 . S
C1200 C1205 1.353 . S
C1200 H1206 0.930 . S
N1201 Li1184 1.990 . S
N1201 C1200 1.314 . S
N1201 C1203 1.279 . S
C1202 C1203 1.358 . S
C1202 C1204 1.356 . S
C1202 H1256 0.930 . S
C1203 N1201 1.279 . S
C1203 C1202 1.358 . S
C1203 H1207 0.930 . S
C1204 C1202 1.356 . S
C1204 C1205 1.348 . S
C1205 C1200 1.353 . S
C1205 C1204 1.348 . S
C1205 H1257 0.929 . S
H1206 C1200 0.930 . S
H1207 C1203 0.930 . S
C1208 N1209 1.314 . S
C1208 C1210 1.353 . S
C1208 H1214 0.930 . S
N1209 Li1185 1.990 . S
N1209 C1208 1.314 . S
N1209 C1212 1.279 . S
C1210 C1208 1.353 . S
C1210 C1213 1.348 . S
C1210 H1258 0.929 . S
C1211 C1212 1.358 . S
C1211 C1213 1.356 . S
C1211 H1259 0.930 . S
C1212 N1209 1.279 . S
C1212 C1211 1.358 . S
C1212 H1215 0.930 . S
C1213 C1210 1.348 . S
C1213 C1211 1.356 . S
H1214 C1208 0.930 . S
H1215 C1212 0.930 . S
C1216 C1218 1.348 . S
C1216 C1219 1.356 . S
C1216 O1246 1.325 . S
N1217 C1220 1.314 . S
N1217 C1221 1.279 . S
C1218 C1216 1.348 . S
C1218 C1220 1.353 . S
C1218 H1260 0.929 . S
C1219 C1216 1.356 . S
C1219 C1221 1.358 . S
C1219 H1261 0.930 . S
C1220 N1217 1.314 . S
C1220 C1218 1.353 . S
C1220 H1262 0.930 . S
C1221 N1217 1.279 . S
C1221 C1219 1.358 . S
C1221 H1263 0.930 . S
C1222 C1223 1.348 1_655 S
C1222 C1224 1.356 . S
C1222 O1247 1.325 . S
C1223 C1222 1.348 1_455 S
C1223 C1225 1.353 1_455 S
C1223 H1264 0.929 . S
C1224 C1222 1.356 . S
C1224 C1226 1.358 . S
C1224 H1265 0.930 . S
C1225 C1223 1.353 1_655 S
C1225 N1227 1.314 . S
C1225 H1266 0.930 1_655 S
C1226 C1224 1.358 . S
C1226 N1227 1.279 . S
C1226 H1267 0.930 . S
N1227 C1225 1.314 . S
N1227 C1226 1.279 . S
C1228 C1230 1.353 . S
C1228 N1231 1.314 . S
C1228 H1234 0.930 . S
C1229 N1231 1.279 . S
C1229 C1232 1.358 . S
C1229 H1235 0.930 . S
C1230 C1228 1.353 . S
C1230 C1233 1.348 . S
C1230 H1268 0.929 . S
N1231 Li1186 1.990 . S
N1231 C1228 1.314 . S
N1231 C1229 1.279 . S
C1232 C1229 1.358 . S
C1232 C1233 1.356 . S
C1232 H1269 0.930 . S
C1233 C1230 1.348 . S
C1233 C1232 1.356 . S
H1234 C1228 0.930 . S
H1235 C1229 0.930 . S
C1236 N1237 1.314 . S
C1236 C1238 1.353 . S
C1236 H1242 0.930 . S
N1237 Li1187 1.990 . S
N1237 C1236 1.314 . S
N1237 C1240 1.279 . S
C1238 C1236 1.353 . S
C1238 C1241 1.348 . S
C1238 H1270 0.929 . S
C1239 C1240 1.358 . S
C1239 C1241 1.356 . S
C1239 H1271 0.930 . S
C1240 N1237 1.279 . S
C1240 C1239 1.358 . S
C1240 H1243 0.930 . S
C1241 C1238 1.348 . S
C1241 C1239 1.356 . S
H1242 C1236 0.930 . S
H1243 C1240 0.930 . S
O1244 Li1184 1.956 . S
O1244 Li1185 1.970 1_455 S
O1244 Li1186 1.961 . S
O1244 C1188 1.325 . S
O1245 Li1184 1.970 1_655 S
O1245 Li1185 1.956 . S
O1245 Li1187 1.961 . S
O1245 C1194 1.325 . S
O1246 Li1184 1.961 . S
O1246 Li1186 1.956 . S
O1246 Li1187 1.970 1_455 S
O1246 C1216 1.325 . S
O1247 Li1185 1.961 . S
O1247 Li1186 1.970 1_655 S
O1247 Li1187 1.956 . S
O1247 C1222 1.325 . S
H1248 C1190 0.929 . S
H1249 C1191 0.930 . S
H1250 C1192 0.913 1_655 S
H1251 C1193 0.930 . S
H1252 C1195 0.930 . S
H1253 C1197 0.929 . S
H1254 C1198 0.930 . S
H1255 C1199 0.930 . S
H1256 C1202 0.930 . S
H1257 C1205 0.929 . S
H1258 C1210 0.929 . S
H1259 C1211 0.930 . S
H1260 C1218 0.929 . S
H1261 C1219 0.930 . S
H1262 C1220 0.930 . S
H1263 C1221 0.930 . S
H1264 C1223 0.929 . S
H1265 C1224 0.930 . S
H1266 C1225 0.930 1_455 S
H1267 C1226 0.930 . S
H1268 C1230 0.929 . S
H1269 C1232 0.930 . S
H1270 C1238 0.929 . S
H1271 C1239 0.930 . S
Li1272 N1289 1.990 . S
Li1272 O1332 1.956 . S
Li1272 O1333 1.970 . S
Li1272 O1334 1.961 . S
Li1273 N1297 1.990 . S
Li1273 O1332 1.970 . S
Li1273 O1333 1.956 . S
Li1273 O1335 1.961 . S
Li1274 N1319 1.990 . S
Li1274 O1332 1.961 . S
Li1274 O1334 1.956 . S
Li1274 O1335 1.970 . S
Li1275 N1325 1.990 . S
Li1275 O1333 1.961 . S
Li1275 O1334 1.970 . S
Li1275 O1335 1.956 . S
C1276 C1278 1.348 . S
C1276 C1279 1.356 . S
C1276 O1332 1.325 . S
N1277 C1280 1.314 . S
N1277 C1281 1.279 . S
C1278 C1276 1.348 . S
C1278 C1280 1.353 . S
C1278 H1336 0.929 . S
C1279 C1276 1.356 . S
C1279 C1281 1.358 . S
C1279 H1337 0.930 . S
C1280 N1277 1.314 . S
C1280 C1278 1.353 . S
C1280 H1338 0.930 . S
C1281 N1277 1.279 . S
C1281 C1279 1.358 . S
C1281 H1339 0.930 . S
C1282 C1285 1.348 . S
C1282 C1286 1.356 . S
C1282 O1333 1.325 . S
C1283 N1284 1.279 . S
C1283 C1286 1.358 . S
C1283 H1340 0.930 . S
N1284 C1283 1.279 . S
N1284 C1287 1.314 . S
C1285 C1282 1.348 . S
C1285 C1287 1.353 . S
C1285 H1341 0.929 . S
C1286 C1282 1.356 . S
C1286 C1283 1.358 . S
C1286 H1342 0.930 . S
C1287 N1284 1.314 . S
C1287 C1285 1.353 . S
C1287 H1343 0.930 . S
C1288 N1289 1.314 . S
C1288 C1293 1.353 . S
C1288 H1294 0.930 . S
N1289 Li1272 1.990 . S
N1289 C1288 1.314 . S
N1289 C1291 1.279 . S
C1290 C1291 1.358 . S
C1290 C1292 1.356 . S
C1290 H1344 0.930 . S
C1291 N1289 1.279 . S
C1291 C1290 1.358 . S
C1291 H1295 0.930 . S
C1292 C1290 1.356 . S
C1292 C1293 1.348 . S
C1293 C1288 1.353 . S
C1293 C1292 1.348 . S
C1293 H1345 0.929 . S
H1294 C1288 0.930 . S
H1295 C1291 0.930 . S
C1296 N1297 1.314 . S
C1296 C1298 1.353 . S
C1296 H1302 0.930 . S
N1297 Li1273 1.990 . S
N1297 C1296 1.314 . S
N1297 C1300 1.279 . S
C1298 C1296 1.353 . S
C1298 C1301 1.348 . S
C1298 H1346 0.929 . S
C1299 C1300 1.358 . S
C1299 C1301 1.356 . S
C1299 H1347 0.930 . S
C1300 N1297 1.279 . S
C1300 C1299 1.358 . S
C1300 H1303 0.930 . S
C1301 C1298 1.348 . S
C1301 C1299 1.356 . S
H1302 C1296 0.930 . S
H1303 C1300 0.930 . S
C1304 C1306 1.348 . S
C1304 C1307 1.356 . S
C1304 O1334 1.325 . S
N1305 C1308 1.314 . S
N1305 C1309 1.279 . S
C1306 C1304 1.348 . S
C1306 C1308 1.353 . S
C1306 H1348 0.929 . S
C1307 C1304 1.356 . S
C1307 C1309 1.358 . S
C1307 H1349 0.930 . S
C1308 N1305 1.314 . S
C1308 C1306 1.353 . S
C1308 H1350 0.930 . S
C1309 N1305 1.279 . S
C1309 C1307 1.358 . S
C1309 H1351 0.930 . S
C1310 C1311 1.348 . S
C1310 C1312 1.356 . S
C1310 O1335 1.325 . S
C1311 C1310 1.348 . S
C1311 C1313 1.353 . S
C1311 H1352 0.929 . S
C1312 C1310 1.356 . S
C1312 C1314 1.358 . S
C1312 H1353 0.930 . S
C1313 C1311 1.353 . S
C1313 N1315 1.314 . S
C1313 H1354 0.930 . S
C1314 C1312 1.358 . S
C1314 N1315 1.279 . S
C1314 H1355 0.930 . S
N1315 C1313 1.314 . S
N1315 C1314 1.279 . S
C1316 C1318 1.353 . S
C1316 N1319 1.314 . S
C1316 H1322 0.930 . S
C1317 N1319 1.279 . S
C1317 C1320 1.358 . S
C1317 H1323 0.930 . S
C1318 C1316 1.353 . S
C1318 C1321 1.348 . S
C1318 H1356 0.929 . S
N1319 Li1274 1.990 . S
N1319 C1316 1.314 . S
N1319 C1317 1.279 . S
C1320 C1317 1.358 . S
C1320 C1321 1.356 . S
C1320 H1357 0.930 . S
C1321 C1318 1.348 . S
C1321 C1320 1.356 . S
H1322 C1316 0.930 . S
H1323 C1317 0.930 . S
C1324 N1325 1.314 . S
C1324 C1326 1.353 . S
C1324 H1330 0.930 . S
N1325 Li1275 1.990 . S
N1325 C1324 1.314 . S
N1325 C1328 1.279 . S
C1326 C1324 1.353 . S
C1326 C1329 1.348 . S
C1326 H1358 0.929 . S
C1327 C1328 1.358 . S
C1327 C1329 1.356 . S
C1327 H1359 0.930 . S
C1328 N1325 1.279 . S
C1328 C1327 1.358 . S
C1328 H1331 0.930 . S
C1329 C1326 1.348 . S
C1329 C1327 1.356 . S
H1330 C1324 0.930 . S
H1331 C1328 0.930 . S
O1332 Li1272 1.956 . S
O1332 Li1273 1.970 . S
O1332 Li1274 1.961 . S
O1332 C1276 1.325 . S
O1333 Li1272 1.970 . S
O1333 Li1273 1.956 . S
O1333 Li1275 1.961 . S
O1333 C1282 1.325 . S
O1334 Li1272 1.961 . S
O1334 Li1274 1.956 . S
O1334 Li1275 1.970 . S
O1334 C1304 1.325 . S
O1335 Li1273 1.961 . S
O1335 Li1274 1.970 . S
O1335 Li1275 1.956 . S
O1335 C1310 1.325 . S
H1336 C1278 0.929 . S
H1337 C1279 0.930 . S
H1338 C1280 0.930 . S
H1339 C1281 0.930 . S
H1340 C1283 0.930 . S
H1341 C1285 0.929 . S
H1342 C1286 0.930 . S
H1343 C1287 0.930 . S
H1344 C1290 0.930 . S
H1345 C1293 0.929 . S
H1346 C1298 0.929 . S
H1347 C1299 0.930 . S
H1348 C1306 0.929 . S
H1349 C1307 0.930 . S
H1350 C1308 0.930 . S
H1351 C1309 0.930 . S
H1352 C1311 0.929 . S
H1353 C1312 0.930 . S
H1354 C1313 0.930 . S
H1355 C1314 0.930 . S
H1356 C1318 0.929 . S
H1357 C1320 0.930 . S
H1358 C1326 0.929 . S
H1359 C1327 0.930 . S
H1360 C1366 0.930 . S
H1361 C1369 0.930 . S
H1362 C1370 0.930 . S
H1363 C1371 0.930 . S
H1364 C1374 0.930 . S
H1365 C1375 0.930 . S
C1366 H1360 0.930 . S
C1366 C1367 1.355 . S
C1366 C1368 1.415 . S
C1367 C1366 1.355 . S
C1367 C1369 1.419 . S
C1368 C1366 1.415 . S
C1368 C1373 1.425 . S
C1368 C1375 1.409 . S
C1369 H1361 0.930 . S
C1369 C1367 1.419 . S
C1369 C1370 1.362 . S
C1370 H1362 0.930 . S
C1370 C1369 1.362 . S
C1370 C1373 1.409 . S
C1371 H1363 0.930 . S
C1371 C1372 1.355 . S
C1371 C1373 1.415 . S
C1372 C1371 1.355 . S
C1372 C1374 1.419 . S
C1373 C1368 1.425 . S
C1373 C1370 1.409 . S
C1373 C1371 1.415 . S
C1374 H1364 0.930 . S
C1374 C1372 1.419 . S
C1374 C1375 1.362 . S
C1375 H1365 0.930 . S
C1375 C1368 1.409 . S
C1375 C1374 1.362 . S
H1376 C1382 0.930 . S
H1377 C1385 0.930 . S
H1378 C1386 0.930 . S
H1379 C1387 0.930 . S
H1380 C1390 0.930 . S
H1381 C1391 0.930 . S
C1382 H1376 0.930 . S
C1382 C1383 1.355 . S
C1382 C1384 1.415 . S
C1383 C1382 1.355 . S
C1383 C1385 1.419 . S
C1384 C1382 1.415 . S
C1384 C1389 1.425 . S
C1384 C1391 1.409 . S
C1385 H1377 0.930 . S
C1385 C1383 1.419 . S
C1385 C1386 1.362 . S
C1386 H1378 0.930 . S
C1386 C1385 1.362 . S
C1386 C1389 1.409 . S
C1387 H1379 0.930 . S
C1387 C1388 1.355 . S
C1387 C1389 1.415 . S
C1388 C1387 1.355 . S
C1388 C1390 1.419 . S
C1389 C1384 1.425 . S
C1389 C1386 1.409 . S
C1389 C1387 1.415 . S
C1390 H1380 0.930 . S
C1390 C1388 1.419 . S
C1390 C1391 1.362 . S
C1391 H1381 0.930 . S
C1391 C1384 1.409 . S
C1391 C1390 1.362 . S
H1392 C1398 0.930 . S
H1393 C1401 0.930 . S
H1394 C1402 0.930 . S
H1395 C1403 0.930 . S
H1396 C1406 0.930 . S
H1397 C1407 0.930 . S
C1398 H1392 0.930 . S
C1398 C1399 1.355 . S
C1398 C1400 1.415 . S
C1399 C1398 1.355 . S
C1399 C1401 1.419 . S
C1400 C1398 1.415 . S
C1400 C1405 1.425 . S
C1400 C1407 1.409 . S
C1401 H1393 0.930 . S
C1401 C1399 1.419 . S
C1401 C1402 1.362 . S
C1402 H1394 0.930 . S
C1402 C1401 1.362 . S
C1402 C1405 1.409 . S
C1403 H1395 0.930 . S
C1403 C1404 1.355 . S
C1403 C1405 1.415 . S
C1404 C1403 1.355 . S
C1404 C1406 1.419 . S
C1405 C1400 1.425 . S
C1405 C1402 1.409 . S
C1405 C1403 1.415 . S
C1406 H1396 0.930 . S
C1406 C1404 1.419 . S
C1406 C1407 1.362 . S
C1407 H1397 0.930 . S
C1407 C1400 1.409 . S
C1407 C1406 1.362 . S
H1408 C1414 0.930 . S
H1409 C1417 0.930 . S
H1410 C1418 0.930 . S
H1411 C1419 0.932 . S
H1412 C1422 0.930 1_655 S
H1413 C1423 0.930 1_655 S
C1414 H1408 0.930 . S
C1414 C1415 1.355 . S
C1414 C1416 1.415 1_565 S
C1415 C1414 1.355 . S
C1415 C1417 1.419 . S
C1416 C1414 1.415 1_545 S
C1416 C1421 1.425 1_545 S
C1416 C1423 1.409 . S
C1417 H1409 0.930 . S
C1417 C1415 1.419 . S
C1417 C1418 1.362 . S
C1418 H1410 0.930 . S
C1418 C1417 1.362 . S
C1418 C1421 1.409 . S
C1419 H1411 0.932 . S
C1419 C1420 1.355 . S
C1419 C1421 1.415 1_545 S
C1420 C1419 1.355 . S
C1420 C1422 1.419 . S
C1421 C1416 1.425 1_565 S
C1421 C1418 1.409 . S
C1421 C1419 1.415 1_565 S
C1422 H1412 0.930 1_455 S
C1422 C1420 1.419 . S
C1422 C1423 1.362 . S
C1423 H1413 0.930 1_455 S
C1423 C1416 1.409 . S
C1423 C1422 1.362 . S
H1424 C1430 0.930 . S
H1425 C1433 0.930 . S
H1426 C1434 0.930 . S
H1427 C1435 0.930 . S
H1428 C1438 0.930 . S
H1429 C1439 0.930 . S
C1430 H1424 0.930 . S
C1430 C1431 1.355 . S
C1430 C1432 1.415 . S
C1431 C1430 1.355 . S
C1431 C1433 1.419 . S
C1432 C1430 1.415 . S
C1432 C1437 1.425 . S
C1432 C1439 1.409 . S
C1433 H1425 0.930 . S
C1433 C1431 1.419 . S
C1433 C1434 1.362 . S
C1434 H1426 0.930 . S
C1434 C1433 1.362 . S
C1434 C1437 1.409 . S
C1435 H1427 0.930 . S
C1435 C1436 1.355 . S
C1435 C1437 1.415 . S
C1436 C1435 1.355 . S
C1436 C1438 1.419 . S
C1437 C1432 1.425 . S
C1437 C1434 1.409 . S
C1437 C1435 1.415 . S
C1438 H1428 0.930 . S
C1438 C1436 1.419 . S
C1438 C1439 1.362 . S
C1439 H1429 0.930 . S
C1439 C1432 1.409 . S
C1439 C1438 1.362 . S
H1440 C1446 0.930 . S
H1441 C1449 0.930 . S
H1442 C1450 0.930 . S
H1443 C1451 0.930 . S
H1444 C1454 0.930 . S
H1445 C1455 0.930 . S
C1446 H1440 0.930 . S
C1446 C1447 1.355 . S
C1446 C1448 1.415 . S
C1447 C1446 1.355 . S
C1447 C1449 1.419 . S
C1448 C1446 1.415 . S
C1448 C1453 1.425 . S
C1448 C1455 1.409 . S
C1449 H1441 0.930 . S
C1449 C1447 1.419 . S
C1449 C1450 1.362 . S
C1450 H1442 0.930 . S
C1450 C1449 1.362 . S
C1450 C1453 1.409 . S
C1451 H1443 0.930 . S
C1451 C1452 1.355 . S
C1451 C1453 1.415 . S
C1452 C1451 1.355 . S
C1452 C1454 1.419 . S
C1453 C1448 1.425 . S
C1453 C1450 1.409 . S
C1453 C1451 1.415 . S
C1454 H1444 0.930 . S
C1454 C1452 1.419 . S
C1454 C1455 1.362 . S
C1455 H1445 0.930 . S
C1455 C1448 1.409 . S
C1455 C1454 1.362 . S
H1456 C1462 0.930 . S
H1457 C1465 0.930 . S
H1458 C1466 0.930 . S
H1459 C1467 0.930 . S
H1460 C1470 0.930 . S
H1461 C1471 0.930 . S
C1462 H1456 0.930 . S
C1462 C1463 1.355 . S
C1462 C1464 1.415 . S
C1463 C1462 1.355 . S
C1463 C1465 1.419 . S
C1464 C1462 1.415 . S
C1464 C1469 1.425 . S
C1464 C1471 1.409 . S
C1465 H1457 0.930 . S
C1465 C1463 1.419 . S
C1465 C1466 1.362 . S
C1466 H1458 0.930 . S
C1466 C1465 1.362 . S
C1466 C1469 1.409 . S
C1467 H1459 0.930 . S
C1467 C1468 1.355 . S
C1467 C1469 1.415 . S
C1468 C1467 1.355 . S
C1468 C1470 1.419 . S
C1469 C1464 1.425 . S
C1469 C1466 1.409 . S
C1469 C1467 1.415 . S
C1470 H1460 0.930 . S
C1470 C1468 1.419 . S
C1470 C1471 1.362 . S
C1471 H1461 0.930 . S
C1471 C1464 1.409 . S
C1471 C1470 1.362 . S
H1472 C1478 0.930 . S
H1473 C1481 0.930 . S
H1474 C1482 0.930 . S
H1475 C1483 0.930 . S
H1476 C1486 0.930 . S
H1477 C1487 0.930 . S
C1478 H1472 0.930 . S
C1478 C1479 1.355 1_545 S
C1478 C1480 1.415 . S
C1479 C1478 1.355 1_565 S
C1479 C1481 1.419 . S
C1480 C1478 1.415 . S
C1480 C1485 1.425 1_545 S
C1480 C1487 1.409 . S
C1481 H1473 0.930 . S
C1481 C1479 1.419 . S
C1481 C1482 1.362 . S
C1482 H1474 0.930 . S
C1482 C1481 1.362 . S
C1482 C1485 1.409 . S
C1483 H1475 0.930 . S
C1483 C1484 1.355 . S
C1483 C1485 1.415 . S
C1484 C1483 1.355 . S
C1484 C1486 1.419 1_565 S
C1485 C1480 1.425 1_565 S
C1485 C1482 1.409 . S
C1485 C1483 1.415 . S
C1486 H1476 0.930 . S
C1486 C1484 1.419 1_545 S
C1486 C1487 1.362 . S
C1487 H1477 0.930 . S
C1487 C1480 1.409 . S
C1487 C1486 1.362 . S
H1488 C1494 0.930 . S
H1489 C1497 0.930 . S
H1490 C1498 0.930 . S
H1491 C1499 0.930 . S
H1492 C1502 0.930 . S
H1493 C1503 0.930 . S
C1494 H1488 0.930 . S
C1494 C1495 1.355 . S
C1494 C1496 1.415 . S
C1495 C1494 1.355 . S
C1495 C1497 1.419 . S
C1496 C1494 1.415 . S
C1496 C1501 1.425 . S
C1496 C1503 1.409 . S
C1497 H1489 0.930 . S
C1497 C1495 1.419 . S
C1497 C1498 1.362 . S
C1498 H1490 0.930 . S
C1498 C1497 1.362 . S
C1498 C1501 1.409 . S
C1499 H1491 0.930 . S
C1499 C1500 1.355 . S
C1499 C1501 1.415 . S
C1500 C1499 1.355 . S
C1500 C1502 1.419 . S
C1501 C1496 1.425 . S
C1501 C1498 1.409 . S
C1501 C1499 1.415 . S
C1502 H1492 0.930 . S
C1502 C1500 1.419 . S
C1502 C1503 1.362 . S
C1503 H1493 0.930 . S
C1503 C1496 1.409 . S
C1503 C1502 1.362 . S
H1504 C1510 0.930 . S
H1505 C1513 0.930 . S
H1506 C1514 0.930 . S
H1507 C1515 0.930 . S
H1508 C1518 0.930 . S
H1509 C1519 0.930 . S
C1510 H1504 0.930 . S
C1510 C1511 1.355 . S
C1510 C1512 1.415 . S
C1511 C1510 1.355 . S
C1511 C1513 1.419 . S
C1512 C1510 1.415 . S
C1512 C1517 1.425 . S
C1512 C1519 1.409 . S
C1513 H1505 0.930 . S
C1513 C1511 1.419 . S
C1513 C1514 1.362 . S
C1514 H1506 0.930 . S
C1514 C1513 1.362 . S
C1514 C1517 1.409 . S
C1515 H1507 0.930 . S
C1515 C1516 1.355 . S
C1515 C1517 1.415 . S
C1516 C1515 1.355 . S
C1516 C1518 1.419 . S
C1517 C1512 1.425 . S
C1517 C1514 1.409 . S
C1517 C1515 1.415 . S
C1518 H1508 0.930 . S
C1518 C1516 1.419 . S
C1518 C1519 1.362 . S
C1519 H1509 0.930 . S
C1519 C1512 1.409 . S
C1519 C1518 1.362 . S
H1520 C1526 0.930 . S
H1521 C1529 0.930 . S
H1522 C1530 0.930 . S
H1523 C1531 0.930 . S
H1524 C1534 0.930 . S
H1525 C1535 0.930 . S
C1526 H1520 0.930 . S
C1526 C1527 1.355 . S
C1526 C1528 1.415 . S
C1527 C1526 1.355 . S
C1527 C1529 1.419 . S
C1528 C1526 1.415 . S
C1528 C1533 1.425 . S
C1528 C1535 1.409 . S
C1529 H1521 0.930 . S
C1529 C1527 1.419 . S
C1529 C1530 1.362 . S
C1530 H1522 0.930 . S
C1530 C1529 1.362 . S
C1530 C1533 1.409 . S
C1531 H1523 0.930 . S
C1531 C1532 1.355 . S
C1531 C1533 1.415 . S
C1532 C1531 1.355 . S
C1532 C1534 1.419 . S
C1533 C1528 1.425 . S
C1533 C1530 1.409 . S
C1533 C1531 1.415 . S
C1534 H1524 0.930 . S
C1534 C1532 1.419 . S
C1534 C1535 1.362 . S
C1535 H1525 0.930 . S
C1535 C1528 1.409 . S
C1535 C1534 1.362 . S
H1536 C1542 0.930 . S
H1537 C1545 0.930 . S
H1538 C1546 0.930 . S
H1539 C1547 0.930 . S
H1540 C1550 0.930 . S
H1541 C1551 0.930 . S
C1542 H1536 0.930 . S
C1542 C1543 1.355 . S
C1542 C1544 1.415 . S
C1543 C1542 1.355 . S
C1543 C1545 1.419 . S
C1544 C1542 1.415 . S
C1544 C1549 1.425 . S
C1544 C1551 1.409 . S
C1545 H1537 0.930 . S
C1545 C1543 1.419 . S
C1545 C1546 1.362 . S
C1546 H1538 0.930 . S
C1546 C1545 1.362 . S
C1546 C1549 1.409 . S
C1547 H1539 0.930 . S
C1547 C1548 1.355 . S
C1547 C1549 1.415 . S
C1548 C1547 1.355 . S
C1548 C1550 1.419 . S
C1549 C1544 1.425 . S
C1549 C1546 1.409 . S
C1549 C1547 1.415 . S
C1550 H1540 0.930 . S
C1550 C1548 1.419 . S
C1550 C1551 1.362 . S
C1551 H1541 0.930 . S
C1551 C1544 1.409 . S
C1551 C1550 1.362 . S
H1552 C1558 0.930 . S
H1553 C1561 0.930 . S
H1554 C1562 0.930 . S
H1555 C1563 0.930 . S
H1556 C1566 0.930 . S
H1557 C1567 0.930 . S
C1558 H1552 0.930 . S
C1558 C1559 1.355 . S
C1558 C1560 1.415 . S
C1559 C1558 1.355 . S
C1559 C1561 1.419 . S
C1560 C1558 1.415 . S
C1560 C1565 1.425 . S
C1560 C1567 1.409 . S
C1561 H1553 0.930 . S
C1561 C1559 1.419 . S
C1561 C1562 1.362 . S
C1562 H1554 0.930 . S
C1562 C1561 1.362 . S
C1562 C1565 1.409 . S
C1563 H1555 0.930 . S
C1563 C1564 1.355 . S
C1563 C1565 1.415 . S
C1564 C1563 1.355 . S
C1564 C1566 1.419 . S
C1565 C1560 1.425 . S
C1565 C1562 1.409 . S
C1565 C1563 1.415 . S
C1566 H1556 0.930 . S
C1566 C1564 1.419 . S
C1566 C1567 1.362 . S
C1567 H1557 0.930 . S
C1567 C1560 1.409 . S
C1567 C1566 1.362 . S
H1568 C1574 0.930 . S
H1569 C1577 0.930 . S
H1570 C1578 0.930 . S
H1571 C1579 0.930 . S
H1572 C1582 0.930 . S
H1573 C1583 0.930 . S
C1574 H1568 0.930 . S
C1574 C1575 1.355 . S
C1574 C1576 1.415 . S
C1575 C1574 1.355 . S
C1575 C1577 1.419 . S
C1576 C1574 1.415 . S
C1576 C1581 1.425 . S
C1576 C1583 1.409 . S
C1577 H1569 0.930 . S
C1577 C1575 1.419 . S
C1577 C1578 1.362 . S
C1578 H1570 0.930 . S
C1578 C1577 1.362 . S
C1578 C1581 1.409 . S
C1579 H1571 0.930 . S
C1579 C1580 1.355 . S
C1579 C1581 1.415 . S
C1580 C1579 1.355 . S
C1580 C1582 1.419 . S
C1581 C1576 1.425 . S
C1581 C1578 1.409 . S
C1581 C1579 1.415 . S
C1582 H1572 0.930 . S
C1582 C1580 1.419 . S
C1582 C1583 1.362 . S
C1583 H1573 0.930 . S
C1583 C1576 1.409 . S
C1583 C1582 1.362 . S
H1584 C1590 0.930 . S
H1585 C1593 0.930 . S
H1586 C1594 0.930 . S
H1587 C1595 0.930 . S
H1588 C1598 0.930 . S
H1589 C1599 0.930 . S
C1590 H1584 0.930 . S
C1590 C1591 1.355 . S
C1590 C1592 1.415 . S
C1591 C1590 1.355 . S
C1591 C1593 1.419 . S
C1592 C1590 1.415 . S
C1592 C1597 1.425 . S
C1592 C1599 1.409 . S
C1593 H1585 0.930 . S
C1593 C1591 1.419 . S
C1593 C1594 1.362 . S
C1594 H1586 0.930 . S
C1594 C1593 1.362 . S
C1594 C1597 1.409 . S
C1595 H1587 0.930 . S
C1595 C1596 1.355 . S
C1595 C1597 1.415 . S
C1596 C1595 1.355 . S
C1596 C1598 1.419 . S
C1597 C1592 1.425 . S
C1597 C1594 1.409 . S
C1597 C1595 1.415 . S
C1598 H1588 0.930 . S
C1598 C1596 1.419 . S
C1598 C1599 1.362 . S
C1599 H1589 0.930 . S
C1599 C1592 1.409 . S
C1599 C1598 1.362 . S
H1600 C1606 0.930 . S
H1601 C1609 0.930 . S
H1602 C1610 0.930 . S
H1603 C1611 0.930 . S
H1604 C1614 0.930 . S
H1605 C1615 0.930 . S
C1606 H1600 0.930 . S
C1606 C1607 1.355 . S
C1606 C1608 1.415 . S
C1607 C1606 1.355 . S
C1607 C1609 1.419 . S
C1608 C1606 1.415 . S
C1608 C1613 1.425 . S
C1608 C1615 1.409 . S
C1609 H1601 0.930 . S
C1609 C1607 1.419 . S
C1609 C1610 1.362 . S
C1610 H1602 0.930 . S
C1610 C1609 1.362 . S
C1610 C1613 1.409 . S
C1611 H1603 0.930 . S
C1611 C1612 1.355 . S
C1611 C1613 1.415 . S
C1612 C1611 1.355 . S
C1612 C1614 1.419 . S
C1613 C1608 1.425 . S
C1613 C1610 1.409 . S
C1613 C1611 1.415 . S
C1614 H1604 0.930 . S
C1614 C1612 1.419 . S
C1614 C1615 1.362 . S
C1615 H1605 0.930 . S
C1615 C1608 1.409 . S
C1615 C1614 1.362 . S
H1616 C1622 0.930 . S
H1617 C1625 0.930 . S
H1618 C1626 0.930 . S
H1619 C1627 0.930 . S
H1620 C1630 0.930 . S
H1621 C1631 0.930 . S
C1622 H1616 0.930 . S
C1622 C1623 1.355 . S
C1622 C1624 1.415 . S
C1623 C1622 1.355 . S
C1623 C1625 1.419 . S
C1624 C1622 1.415 . S
C1624 C1629 1.425 . S
C1624 C1631 1.409 . S
C1625 H1617 0.930 . S
C1625 C1623 1.419 . S
C1625 C1626 1.362 . S
C1626 H1618 0.930 . S
C1626 C1625 1.362 . S
C1626 C1629 1.409 . S
C1627 H1619 0.930 . S
C1627 C1628 1.355 . S
C1627 C1629 1.415 . S
C1628 C1627 1.355 . S
C1628 C1630 1.419 . S
C1629 C1624 1.425 . S
C1629 C1626 1.409 . S
C1629 C1627 1.415 . S
C1630 H1620 0.930 . S
C1630 C1628 1.419 . S
C1630 C1631 1.362 . S
C1631 H1621 0.930 . S
C1631 C1624 1.409 . S
C1631 C1630 1.362 . S
H1632 C1638 0.930 . S
H1633 C1641 0.930 . S
H1634 C1642 0.930 . S
H1635 C1643 0.930 . S
H1636 C1646 0.930 . S
H1637 C1647 0.930 . S
C1638 H1632 0.930 . S
C1638 C1639 1.355 . S
C1638 C1640 1.415 . S
C1639 C1638 1.355 . S
C1639 C1641 1.419 . S
C1640 C1638 1.415 . S
C1640 C1645 1.425 . S
C1640 C1647 1.409 . S
C1641 H1633 0.930 . S
C1641 C1639 1.419 . S
C1641 C1642 1.362 . S
C1642 H1634 0.930 . S
C1642 C1641 1.362 . S
C1642 C1645 1.409 . S
C1643 H1635 0.930 . S
C1643 C1644 1.355 . S
C1643 C1645 1.415 . S
C1644 C1643 1.355 . S
C1644 C1646 1.419 . S
C1645 C1640 1.425 . S
C1645 C1642 1.409 . S
C1645 C1643 1.415 . S
C1646 H1636 0.930 . S
C1646 C1644 1.419 . S
C1646 C1647 1.362 . S
C1647 H1637 0.930 . S
C1647 C1640 1.409 . S
C1647 C1646 1.362 . S
H1648 C1654 0.930 . S
H1649 C1657 0.936 . S
H1650 C1658 0.930 . S
H1651 C1659 0.930 . S
H1652 C1662 0.930 . S
H1653 C1663 0.930 . S
C1654 H1648 0.930 . S
C1654 C1655 1.355 . S
C1654 C1656 1.415 1_545 S
C1655 C1654 1.355 . S
C1655 C1657 1.388 1_556 S
C1656 C1654 1.415 1_565 S
C1656 C1661 1.425 1_556 S
C1656 C1663 1.409 . S
C1657 H1649 0.936 . S
C1657 C1655 1.388 1_554 S
C1657 C1658 1.389 1_545 S
C1658 H1650 0.930 . S
C1658 C1657 1.389 1_565 S
C1658 C1661 1.409 . S
C1659 H1651 0.930 . S
C1659 C1660 1.355 . S
C1659 C1661 1.415 . S
C1660 C1659 1.355 . S
C1660 C1662 1.419 1_554 S
C1661 C1656 1.425 1_554 S
C1661 C1658 1.409 . S
C1661 C1659 1.415 . S
C1662 H1652 0.930 . S
C1662 C1660 1.419 1_556 S
C1662 C1663 1.362 . S
C1663 H1653 0.930 . S
C1663 C1656 1.409 . S
C1663 C1662 1.362 . S
H1664 C1670 0.930 . S
H1665 C1673 0.930 . S
H1666 C1674 0.930 . S
H1667 C1675 0.930 . S
H1668 C1678 0.930 . S
H1669 C1679 0.930 . S
C1670 H1664 0.930 . S
C1670 C1671 1.355 . S
C1670 C1672 1.415 . S
C1671 C1670 1.355 . S
C1671 C1673 1.419 . S
C1672 C1670 1.415 . S
C1672 C1677 1.425 . S
C1672 C1679 1.409 . S
C1673 H1665 0.930 . S
C1673 C1671 1.419 . S
C1673 C1674 1.362 . S
C1674 H1666 0.930 . S
C1674 C1673 1.362 . S
C1674 C1677 1.409 . S
C1675 H1667 0.930 . S
C1675 C1676 1.355 . S
C1675 C1677 1.415 . S
C1676 C1675 1.355 . S
C1676 C1678 1.419 . S
C1677 C1672 1.425 . S
C1677 C1674 1.409 . S
C1677 C1675 1.415 . S
C1678 H1668 0.930 . S
C1678 C1676 1.419 . S
C1678 C1679 1.362 . S
C1679 H1669 0.930 . S
C1679 C1672 1.409 . S
C1679 C1678 1.362 . S
H1680 C1686 0.930 . S
H1681 C1689 0.930 1_565 S
H1682 C1690 0.930 . S
H1683 C1691 0.930 . S
H1684 C1694 0.930 . S
H1685 C1695 0.930 . S
C1686 H1680 0.930 . S
C1686 C1687 1.355 . S
C1686 C1688 1.415 . S
C1687 C1686 1.355 . S
C1687 C1689 1.419 . S
C1688 C1686 1.415 . S
C1688 C1693 1.425 . S
C1688 C1695 1.409 . S
C1689 H1681 0.930 1_545 S
C1689 C1687 1.419 . S
C1689 C1690 1.362 . S
C1690 H1682 0.930 . S
C1690 C1689 1.362 . S
C1690 C1693 1.409 . S
C1691 H1683 0.930 . S
C1691 C1692 1.355 . S
C1691 C1693 1.415 . S
C1692 C1691 1.355 . S
C1692 C1694 1.419 . S
C1693 C1688 1.425 . S
C1693 C1690 1.409 . S
C1693 C1691 1.415 . S
C1694 H1684 0.930 . S
C1694 C1692 1.419 . S
C1694 C1695 1.362 . S
C1695 H1685 0.930 . S
C1695 C1688 1.409 . S
C1695 C1694 1.362 . S
H1696 C1702 0.930 . S
H1697 C1705 0.930 . S
H1698 C1706 0.930 . S
H1699 C1707 0.930 . S
H1700 C1710 0.930 . S
H1701 C1711 0.930 . S
C1702 H1696 0.930 . S
C1702 C1703 1.355 . S
C1702 C1704 1.415 . S
C1703 C1702 1.355 . S
C1703 C1705 1.419 . S
C1704 C1702 1.415 . S
C1704 C1709 1.425 . S
C1704 C1711 1.409 . S
C1705 H1697 0.930 . S
C1705 C1703 1.419 . S
C1705 C1706 1.362 . S
C1706 H1698 0.930 . S
C1706 C1705 1.362 . S
C1706 C1709 1.409 . S
C1707 H1699 0.930 . S
C1707 C1708 1.355 . S
C1707 C1709 1.415 . S
C1708 C1707 1.355 . S
C1708 C1710 1.419 . S
C1709 C1704 1.425 . S
C1709 C1706 1.409 . S
C1709 C1707 1.415 . S
C1710 H1700 0.930 . S
C1710 C1708 1.419 . S
C1710 C1711 1.362 . S
C1711 H1701 0.930 . S
C1711 C1704 1.409 . S
C1711 C1710 1.362 . S
H1712 C1718 0.930 . S
H1713 C1721 0.930 . S
H1714 C1722 0.930 . S
H1715 C1723 0.930 . S
H1716 C1726 0.930 . S
H1717 C1727 0.930 . S
C1718 H1712 0.930 . S
C1718 C1719 1.355 . S
C1718 C1720 1.415 . S
C1719 C1718 1.355 . S
C1719 C1721 1.419 . S
C1720 C1718 1.415 . S
C1720 C1725 1.425 . S
C1720 C1727 1.409 . S
C1721 H1713 0.930 . S
C1721 C1719 1.419 . S
C1721 C1722 1.362 . S
C1722 H1714 0.930 . S
C1722 C1721 1.362 . S
C1722 C1725 1.409 . S
C1723 H1715 0.930 . S
C1723 C1724 1.355 . S
C1723 C1725 1.415 . S
C1724 C1723 1.355 . S
C1724 C1726 1.419 . S
C1725 C1720 1.425 . S
C1725 C1722 1.409 . S
C1725 C1723 1.415 . S
C1726 H1716 0.930 . S
C1726 C1724 1.419 . S
C1726 C1727 1.362 . S
C1727 H1717 0.930 . S
C1727 C1720 1.409 . S
C1727 C1726 1.362 . S
H1728 C1734 0.930 . S
H1729 C1737 0.930 . S
H1730 C1738 0.930 . S
H1731 C1739 0.930 . S
H1732 C1742 0.930 . S
H1733 C1743 0.930 . S
C1734 H1728 0.930 . S
C1734 C1735 1.355 . S
C1734 C1736 1.415 . S
C1735 C1734 1.355 . S
C1735 C1737 1.419 . S
C1736 C1734 1.415 . S
C1736 C1741 1.425 . S
C1736 C1743 1.409 . S
C1737 H1729 0.930 . S
C1737 C1735 1.419 . S
C1737 C1738 1.362 . S
C1738 H1730 0.930 . S
C1738 C1737 1.362 . S
C1738 C1741 1.409 . S
C1739 H1731 0.930 . S
C1739 C1740 1.355 . S
C1739 C1741 1.415 . S
C1740 C1739 1.355 . S
C1740 C1742 1.419 . S
C1741 C1736 1.425 . S
C1741 C1738 1.409 . S
C1741 C1739 1.415 . S
C1742 H1732 0.930 . S
C1742 C1740 1.419 . S
C1742 C1743 1.362 . S
C1743 H1733 0.930 . S
C1743 C1736 1.409 . S
C1743 C1742 1.362 . S
H1744 C1750 0.930 . S
H1745 C1753 0.930 . S
H1746 C1754 0.930 . S
H1747 C1755 0.930 . S
H1748 C1758 0.930 . S
H1749 C1759 0.930 . S
C1750 H1744 0.930 . S
C1750 C1751 1.355 . S
C1750 C1752 1.415 . S
C1751 C1750 1.355 . S
C1751 C1753 1.419 . S
C1752 C1750 1.415 . S
C1752 C1757 1.425 . S
C1752 C1759 1.409 . S
C1753 H1745 0.930 . S
C1753 C1751 1.419 . S
C1753 C1754 1.362 . S
C1754 H1746 0.930 . S
C1754 C1753 1.362 . S
C1754 C1757 1.409 . S
C1755 H1747 0.930 . S
C1755 C1756 1.355 . S
C1755 C1757 1.415 . S
C1756 C1755 1.355 . S
C1756 C1758 1.419 . S
C1757 C1752 1.425 . S
C1757 C1754 1.409 . S
C1757 C1755 1.415 . S
C1758 H1748 0.930 . S
C1758 C1756 1.419 . S
C1758 C1759 1.362 . S
C1759 H1749 0.930 . S
C1759 C1752 1.409 . S
C1759 C1758 1.362 . S
H1760 C1766 0.930 . S
H1761 C1769 0.930 . S
H1762 C1770 0.930 . S
H1763 C1771 0.930 . S
H1764 C1774 0.930 . S
H1765 C1775 0.930 . S
C1766 H1760 0.930 . S
C1766 C1767 1.355 . S
C1766 C1768 1.415 . S
C1767 C1766 1.355 . S
C1767 C1769 1.419 . S
C1768 C1766 1.415 . S
C1768 C1773 1.425 . S
C1768 C1775 1.409 . S
C1769 H1761 0.930 . S
C1769 C1767 1.419 . S
C1769 C1770 1.362 . S
C1770 H1762 0.930 . S
C1770 C1769 1.362 . S
C1770 C1773 1.409 . S
C1771 H1763 0.930 . S
C1771 C1772 1.355 . S
C1771 C1773 1.415 . S
C1772 C1771 1.355 . S
C1772 C1774 1.419 . S
C1773 C1768 1.425 . S
C1773 C1770 1.409 . S
C1773 C1771 1.415 . S
C1774 H1764 0.930 . S
C1774 C1772 1.419 . S
C1774 C1775 1.362 . S
C1775 H1765 0.930 . S
C1775 C1768 1.409 . S
C1775 C1774 1.362 . S
H1776 C1782 0.930 . S
H1777 C1785 0.930 . S
H1778 C1786 0.930 . S
H1779 C1787 0.930 . S
H1780 C1790 0.930 . S
H1781 C1791 0.930 . S
C1782 H1776 0.930 . S
C1782 C1783 1.355 . S
C1782 C1784 1.415 . S
C1783 C1782 1.355 . S
C1783 C1785 1.419 . S
C1784 C1782 1.415 . S
C1784 C1789 1.425 . S
C1784 C1791 1.409 . S
C1785 H1777 0.930 . S
C1785 C1783 1.419 . S
C1785 C1786 1.362 . S
C1786 H1778 0.930 . S
C1786 C1785 1.362 . S
C1786 C1789 1.409 . S
C1787 H1779 0.930 . S
C1787 C1788 1.355 . S
C1787 C1789 1.415 . S
C1788 C1787 1.355 . S
C1788 C1790 1.419 . S
C1789 C1784 1.425 . S
C1789 C1786 1.409 . S
C1789 C1787 1.415 . S
C1790 H1780 0.930 . S
C1790 C1788 1.419 . S
C1790 C1791 1.362 . S
C1791 H1781 0.930 . S
C1791 C1784 1.409 . S
C1791 C1790 1.362 . S
H1792 C1798 0.930 . S
H1793 C1801 0.930 . S
H1794 C1802 0.930 . S
H1795 C1803 0.930 . S
H1796 C1806 0.930 . S
H1797 C1807 0.930 . S
C1798 H1792 0.930 . S
C1798 C1799 1.355 . S
C1798 C1800 1.415 . S
C1799 C1798 1.355 . S
C1799 C1801 1.419 . S
C1800 C1798 1.415 . S
C1800 C1805 1.425 . S
C1800 C1807 1.409 . S
C1801 H1793 0.930 . S
C1801 C1799 1.419 . S
C1801 C1802 1.362 . S
C1802 H1794 0.930 . S
C1802 C1801 1.362 . S
C1802 C1805 1.409 . S
C1803 H1795 0.930 . S
C1803 C1804 1.355 . S
C1803 C1805 1.415 . S
C1804 C1803 1.355 . S
C1804 C1806 1.419 . S
C1805 C1800 1.425 . S
C1805 C1802 1.409 . S
C1805 C1803 1.415 . S
C1806 H1796 0.930 . S
C1806 C1804 1.419 . S
C1806 C1807 1.362 . S
C1807 H1797 0.930 . S
C1807 C1800 1.409 . S
C1807 C1806 1.362 . S
H1808 C1814 0.930 . S
H1809 C1817 0.930 . S
H1810 C1818 0.930 . S
H1811 C1819 0.930 . S
H1812 C1822 0.930 . S
H1813 C1823 0.930 . S
C1814 H1808 0.930 . S
C1814 C1815 1.355 . S
C1814 C1816 1.415 . S
C1815 C1814 1.355 . S
C1815 C1817 1.419 . S
C1816 C1814 1.415 . S
C1816 C1821 1.425 . S
C1816 C1823 1.409 . S
C1817 H1809 0.930 . S
C1817 C1815 1.419 . S
C1817 C1818 1.362 . S
C1818 H1810 0.930 . S
C1818 C1817 1.362 . S
C1818 C1821 1.409 . S
C1819 H1811 0.930 . S
C1819 C1820 1.355 . S
C1819 C1821 1.415 . S
C1820 C1819 1.355 . S
C1820 C1822 1.419 . S
C1821 C1816 1.425 . S
C1821 C1818 1.409 . S
C1821 C1819 1.415 . S
C1822 H1812 0.930 . S
C1822 C1820 1.419 . S
C1822 C1823 1.362 . S
C1823 H1813 0.930 . S
C1823 C1816 1.409 . S
C1823 C1822 1.362 . S
H1824 C1830 0.930 . S
H1825 C1833 0.930 . S
H1826 C1834 0.930 . S
H1827 C1835 0.946 1_655 S
H1828 C1838 0.930 . S
H1829 C1839 0.930 . S
C1830 H1824 0.930 . S
C1830 C1831 1.355 . S
C1830 C1832 1.415 . S
C1831 C1830 1.355 . S
C1831 C1833 1.419 1_545 S
C1832 C1830 1.415 . S
C1832 C1837 1.425 . S
C1832 C1839 1.409 . S
C1833 H1825 0.930 . S
C1833 C1831 1.419 1_565 S
C1833 C1834 1.362 . S
C1834 H1826 0.930 . S
C1834 C1833 1.362 . S
C1834 C1837 1.409 1_565 S
C1835 H1827 0.946 1_455 S
C1835 C1836 1.355 . S
C1835 C1837 1.415 . S
C1836 C1835 1.355 . S
C1836 C1838 1.419 . S
C1837 C1832 1.425 . S
C1837 C1834 1.409 1_545 S
C1837 C1835 1.415 . S
C1838 H1828 0.930 . S
C1838 C1836 1.419 . S
C1838 C1839 1.362 . S
C1839 H1829 0.930 . S
C1839 C1832 1.409 . S
C1839 C1838 1.362 . S
H1840 C1846 0.930 . S
H1841 C1849 0.930 . S
H1842 C1850 0.930 . S
H1843 C1851 0.930 . S
H1844 C1854 0.930 . S
H1845 C1855 0.930 . S
C1846 H1840 0.930 . S
C1846 C1847 1.355 . S
C1846 C1848 1.415 . S
C1847 C1846 1.355 . S
C1847 C1849 1.419 . S
C1848 C1846 1.415 . S
C1848 C1853 1.425 . S
C1848 C1855 1.409 . S
C1849 H1841 0.930 . S
C1849 C1847 1.419 . S
C1849 C1850 1.362 . S
C1850 H1842 0.930 . S
C1850 C1849 1.362 . S
C1850 C1853 1.409 . S
C1851 H1843 0.930 . S
C1851 C1852 1.355 . S
C1851 C1853 1.415 . S
C1852 C1851 1.355 . S
C1852 C1854 1.419 . S
C1853 C1848 1.425 . S
C1853 C1850 1.409 . S
C1853 C1851 1.415 . S
C1854 H1844 0.930 . S
C1854 C1852 1.419 . S
C1854 C1855 1.362 . S
C1855 H1845 0.930 . S
C1855 C1848 1.409 . S
C1855 C1854 1.362 . S
H1856 C1862 0.930 . S
H1857 C1865 0.930 . S
H1858 C1866 0.930 . S
H1859 C1867 0.930 . S
H1860 C1870 0.930 . S
H1861 C1871 0.930 . S
C1862 H1856 0.930 . S
C1862 C1863 1.355 . S
C1862 C1864 1.415 . S
C1863 C1862 1.355 . S
C1863 C1865 1.419 . S
C1864 C1862 1.415 . S
C1864 C1869 1.425 . S
C1864 C1871 1.409 . S
C1865 H1857 0.930 . S
C1865 C1863 1.419 . S
C1865 C1866 1.362 . S
C1866 H1858 0.930 . S
C1866 C1865 1.362 . S
C1866 C1869 1.409 . S
C1867 H1859 0.930 . S
C1867 C1868 1.355 . S
C1867 C1869 1.415 . S
C1868 C1867 1.355 . S
C1868 C1870 1.419 . S
C1869 C1864 1.425 . S
C1869 C1866 1.409 . S
C1869 C1867 1.415 . S
C1870 H1860 0.930 . S
C1870 C1868 1.419 . S
C1870 C1871 1.362 . S
C1871 H1861 0.930 . S
C1871 C1864 1.409 . S
C1871 C1870 1.362 . S
H1872 C1878 0.930 . S
H1873 C1881 0.930 . S
H1874 C1882 0.930 . S
H1875 C1883 0.930 . S
H1876 C1886 0.930 . S
H1877 C1887 0.930 . S
C1878 H1872 0.930 . S
C1878 C1879 1.355 . S
C1878 C1880 1.415 . S
C1879 C1878 1.355 . S
C1879 C1881 1.419 . S
C1880 C1878 1.415 . S
C1880 C1885 1.425 . S
C1880 C1887 1.409 . S
C1881 H1873 0.930 . S
C1881 C1879 1.419 . S
C1881 C1882 1.362 . S
C1882 H1874 0.930 . S
C1882 C1881 1.362 . S
C1882 C1885 1.409 . S
C1883 H1875 0.930 . S
C1883 C1884 1.355 . S
C1883 C1885 1.415 . S
C1884 C1883 1.355 . S
C1884 C1886 1.419 . S
C1885 C1880 1.425 . S
C1885 C1882 1.409 . S
C1885 C1883 1.415 . S
C1886 H1876 0.930 . S
C1886 C1884 1.419 . S
C1886 C1887 1.362 . S
C1887 H1877 0.930 . S
C1887 C1880 1.409 . S
C1887 C1886 1.362 . S
H1888 C1894 0.930 . S
H1889 C1897 0.930 . S
H1890 C1898 0.930 . S
H1891 C1899 0.930 . S
H1892 C1902 0.930 . S
H1893 C1903 0.930 . S
C1894 H1888 0.930 . S
C1894 C1895 1.355 . S
C1894 C1896 1.415 . S
C1895 C1894 1.355 . S
C1895 C1897 1.419 1_455 S
C1896 C1894 1.415 . S
C1896 C1901 1.425 1_455 S
C1896 C1903 1.409 . S
C1897 H1889 0.930 . S
C1897 C1895 1.419 1_655 S
C1897 C1898 1.362 . S
C1898 H1890 0.930 . S
C1898 C1897 1.362 . S
C1898 C1901 1.409 . S
C1899 H1891 0.930 . S
C1899 C1900 1.355 1_655 S
C1899 C1901 1.415 . S
C1900 C1899 1.355 1_455 S
C1900 C1902 1.419 . S
C1901 C1896 1.425 1_655 S
C1901 C1898 1.409 . S
C1901 C1899 1.415 . S
C1902 H1892 0.930 . S
C1902 C1900 1.419 . S
C1902 C1903 1.362 . S
C1903 H1893 0.930 . S
C1903 C1896 1.409 . S
C1903 C1902 1.362 . S
H1904 C1910 0.930 . S
H1905 C1913 0.930 . S
H1906 C1914 0.930 . S
H1907 C1915 0.930 . S
H1908 C1918 0.930 . S
H1909 C1919 0.930 . S
C1910 H1904 0.930 . S
C1910 C1911 1.355 . S
C1910 C1912 1.415 . S
C1911 C1910 1.355 . S
C1911 C1913 1.419 . S
C1912 C1910 1.415 . S
C1912 C1917 1.425 . S
C1912 C1919 1.409 . S
C1913 H1905 0.930 . S
C1913 C1911 1.419 . S
C1913 C1914 1.362 . S
C1914 H1906 0.930 . S
C1914 C1913 1.362 . S
C1914 C1917 1.409 . S
C1915 H1907 0.930 . S
C1915 C1916 1.355 . S
C1915 C1917 1.415 . S
C1916 C1915 1.355 . S
C1916 C1918 1.419 . S
C1917 C1912 1.425 . S
C1917 C1914 1.409 . S
C1917 C1915 1.415 . S
C1918 H1908 0.930 . S
C1918 C1916 1.419 . S
C1918 C1919 1.362 . S
C1919 H1909 0.930 . S
C1919 C1912 1.409 . S
C1919 C1918 1.362 . S
H1920 C1926 0.930 . S
H1921 C1929 0.930 1_554 S
H1922 C1930 0.930 . S
H1923 C1931 0.930 . S
H1924 C1934 0.930 1_655 S
H1925 C1935 0.937 . S
C1926 H1920 0.930 . S
C1926 C1927 1.355 . S
C1926 C1928 1.415 . S
C1927 C1926 1.355 . S
C1927 C1929 1.419 . S
C1928 C1926 1.415 . S
C1928 C1933 1.425 . S
C1928 C1935 1.409 . S
C1929 H1921 0.930 1_556 S
C1929 C1927 1.419 . S
C1929 C1930 1.362 . S
C1930 H1922 0.930 . S
C1930 C1929 1.362 . S
C1930 C1933 1.409 . S
C1931 H1923 0.930 . S
C1931 C1932 1.355 . S
C1931 C1933 1.415 . S
C1932 C1931 1.355 . S
C1932 C1934 1.419 . S
C1933 C1928 1.425 . S
C1933 C1930 1.409 . S
C1933 C1931 1.415 . S
C1934 H1924 0.930 1_455 S
C1934 C1932 1.419 . S
C1934 C1935 1.362 . S
C1935 H1925 0.937 . S
C1935 C1928 1.409 . S
C1935 C1934 1.362 . S
H1936 C1942 0.930 . S
H1937 C1945 0.930 . S
H1938 C1946 0.930 . S
H1939 C1947 0.930 . S
H1940 C1950 0.930 . S
H1941 C1951 0.930 . S
C1942 H1936 0.930 . S
C1942 C1943 1.355 . S
C1942 C1944 1.415 . S
C1943 C1942 1.355 . S
C1943 C1945 1.419 . S
C1944 C1942 1.415 . S
C1944 C1949 1.425 . S
C1944 C1951 1.409 . S
C1945 H1937 0.930 . S
C1945 C1943 1.419 . S
C1945 C1946 1.362 . S
C1946 H1938 0.930 . S
C1946 C1945 1.362 . S
C1946 C1949 1.409 . S
C1947 H1939 0.930 . S
C1947 C1948 1.355 . S
C1947 C1949 1.415 . S
C1948 C1947 1.355 . S
C1948 C1950 1.419 . S
C1949 C1944 1.425 . S
C1949 C1946 1.409 . S
C1949 C1947 1.415 . S
C1950 H1940 0.930 . S
C1950 C1948 1.419 . S
C1950 C1951 1.362 . S
C1951 H1941 0.930 . S
C1951 C1944 1.409 . S
C1951 C1950 1.362 . S
H1952 C1958 0.930 . S
H1953 C1961 0.930 . S
H1954 C1962 0.930 . S
H1955 C1963 0.930 . S
H1956 C1966 0.930 . S
H1957 C1967 0.930 . S
C1958 H1952 0.930 . S
C1958 C1959 1.355 . S
C1958 C1960 1.415 . S
C1959 C1958 1.355 . S
C1959 C1961 1.419 . S
C1960 C1958 1.415 . S
C1960 C1965 1.425 . S
C1960 C1967 1.409 . S
C1961 H1953 0.930 . S
C1961 C1959 1.419 . S
C1961 C1962 1.362 . S
C1962 H1954 0.930 . S
C1962 C1961 1.362 . S
C1962 C1965 1.409 . S
C1963 H1955 0.930 . S
C1963 C1964 1.355 . S
C1963 C1965 1.415 . S
C1964 C1963 1.355 . S
C1964 C1966 1.419 . S
C1965 C1960 1.425 . S
C1965 C1962 1.409 . S
C1965 C1963 1.415 . S
C1966 H1956 0.930 . S
C1966 C1964 1.419 . S
C1966 C1967 1.362 . S
C1967 H1957 0.930 . S
C1967 C1960 1.409 . S
C1967 C1966 1.362 . S
H1968 C1974 0.930 . S
H1969 C1977 0.930 . S
H1970 C1978 0.930 . S
H1971 C1979 0.930 . S
H1972 C1982 0.930 . S
H1973 C1983 0.930 . S
C1974 H1968 0.930 . S
C1974 C1975 1.355 . S
C1974 C1976 1.415 . S
C1975 C1974 1.355 . S
C1975 C1977 1.419 . S
C1976 C1974 1.415 . S
C1976 C1981 1.425 . S
C1976 C1983 1.409 . S
C1977 H1969 0.930 . S
C1977 C1975 1.419 . S
C1977 C1978 1.362 . S
C1978 H1970 0.930 . S
C1978 C1977 1.362 . S
C1978 C1981 1.409 . S
C1979 H1971 0.930 . S
C1979 C1980 1.355 . S
C1979 C1981 1.415 . S
C1980 C1979 1.355 . S
C1980 C1982 1.419 . S
C1981 C1976 1.425 . S
C1981 C1978 1.409 . S
C1981 C1979 1.415 . S
C1982 H1972 0.930 . S
C1982 C1980 1.419 . S
C1982 C1983 1.362 . S
C1983 H1973 0.930 . S
C1983 C1976 1.409 . S
C1983 C1982 1.362 . S
H1984 C1990 0.930 . S
H1985 C1993 0.930 . S
H1986 C1994 0.930 . S
H1987 C1995 0.930 . S
H1988 C1998 0.930 . S
H1989 C1999 0.930 . S
C1990 H1984 0.930 . S
C1990 C1991 1.355 1_554 S
C1990 C1992 1.415 . S
C1991 C1990 1.355 1_556 S
C1991 C1993 1.419 . S
C1992 C1990 1.415 . S
C1992 C1997 1.425 . S
C1992 C1999 1.409 . S
C1993 H1985 0.930 . S
C1993 C1991 1.419 . S
C1993 C1994 1.362 1_556 S
C1994 H1986 0.930 . S
C1994 C1993 1.362 1_554 S
C1994 C1997 1.409 . S
C1995 H1987 0.930 . S
C1995 C1996 1.355 . S
C1995 C1997 1.415 . S
C1996 C1995 1.355 . S
C1996 C1998 1.419 . S
C1997 C1992 1.425 . S
C1997 C1994 1.409 . S
C1997 C1995 1.415 . S
C1998 H1988 0.930 . S
C1998 C1996 1.419 . S
C1998 C1999 1.362 . S
C1999 H1989 0.930 . S
C1999 C1992 1.409 . S
C1999 C1998 1.362 . S
H2000 C2006 0.930 . S
H2001 C2009 0.930 . S
H2002 C2010 0.930 . S
H2003 C2011 0.930 . S
H2004 C2014 0.930 . S
H2005 C2015 0.930 . S
C2006 H2000 0.930 . S
C2006 C2007 1.355 . S
C2006 C2008 1.415 . S
C2007 C2006 1.355 . S
C2007 C2009 1.419 . S
C2008 C2006 1.415 . S
C2008 C2013 1.425 . S
C2008 C2015 1.409 . S
C2009 H2001 0.930 . S
C2009 C2007 1.419 . S
C2009 C2010 1.362 . S
C2010 H2002 0.930 . S
C2010 C2009 1.362 . S
C2010 C2013 1.409 . S
C2011 H2003 0.930 . S
C2011 C2012 1.355 . S
C2011 C2013 1.415 . S
C2012 C2011 1.355 . S
C2012 C2014 1.419 . S
C2013 C2008 1.425 . S
C2013 C2010 1.409 . S
C2013 C2011 1.415 . S
C2014 H2004 0.930 . S
C2014 C2012 1.419 . S
C2014 C2015 1.362 . S
C2015 H2005 0.930 . S
C2015 C2008 1.409 . S
C2015 C2014 1.362 . S
H2016 C2022 0.930 . S
H2017 C2025 0.930 . S
H2018 C2026 0.930 . S
H2019 C2027 0.930 . S
H2020 C2030 0.930 . S
H2021 C2031 0.930 . S
C2022 H2016 0.930 . S
C2022 C2023 1.355 . S
C2022 C2024 1.415 . S
C2023 C2022 1.355 . S
C2023 C2025 1.419 . S
C2024 C2022 1.415 . S
C2024 C2029 1.425 . S
C2024 C2031 1.409 . S
C2025 H2017 0.930 . S
C2025 C2023 1.419 . S
C2025 C2026 1.362 . S
C2026 H2018 0.930 . S
C2026 C2025 1.362 . S
C2026 C2029 1.409 . S
C2027 H2019 0.930 . S
C2027 C2028 1.355 . S
C2027 C2029 1.415 . S
C2028 C2027 1.355 . S
C2028 C2030 1.419 . S
C2029 C2024 1.425 . S
C2029 C2026 1.409 . S
C2029 C2027 1.415 . S
C2030 H2020 0.930 . S
C2030 C2028 1.419 . S
C2030 C2031 1.362 . S
C2031 H2021 0.930 . S
C2031 C2024 1.409 . S
C2031 C2030 1.362 . S
H2032 C2038 0.930 . S
H2033 C2041 0.930 . S
H2034 C2042 0.930 . S
H2035 C2043 0.930 . S
H2036 C2046 0.930 . S
H2037 C2047 0.930 . S
C2038 H2032 0.930 . S
C2038 C2039 1.355 . S
C2038 C2040 1.415 . S
C2039 C2038 1.355 . S
C2039 C2041 1.419 . S
C2040 C2038 1.415 . S
C2040 C2045 1.425 . S
C2040 C2047 1.409 . S
C2041 H2033 0.930 . S
C2041 C2039 1.419 . S
C2041 C2042 1.362 . S
C2042 H2034 0.930 . S
C2042 C2041 1.362 . S
C2042 C2045 1.409 . S
C2043 H2035 0.930 . S
C2043 C2044 1.355 . S
C2043 C2045 1.415 . S
C2044 C2043 1.355 . S
C2044 C2046 1.419 . S
C2045 C2040 1.425 . S
C2045 C2042 1.409 . S
C2045 C2043 1.415 . S
C2046 H2036 0.930 . S
C2046 C2044 1.419 . S
C2046 C2047 1.362 . S
C2047 H2037 0.930 . S
C2047 C2040 1.409 . S
C2047 C2046 1.362 . S
H2048 C2054 0.930 . S
H2049 C2057 0.930 . S
H2050 C2058 0.930 . S
H2051 C2059 0.930 . S
H2052 C2062 0.930 . S
H2053 C2063 0.930 . S
C2054 H2048 0.930 . S
C2054 C2055 1.355 . S
C2054 C2056 1.415 . S
C2055 C2054 1.355 . S
C2055 C2057 1.419 . S
C2056 C2054 1.415 . S
C2056 C2061 1.425 . S
C2056 C2063 1.409 . S
C2057 H2049 0.930 . S
C2057 C2055 1.419 . S
C2057 C2058 1.362 . S
C2058 H2050 0.930 . S
C2058 C2057 1.362 . S
C2058 C2061 1.409 . S
C2059 H2051 0.930 . S
C2059 C2060 1.355 . S
C2059 C2061 1.415 . S
C2060 C2059 1.355 . S
C2060 C2062 1.419 . S
C2061 C2056 1.425 . S
C2061 C2058 1.409 . S
C2061 C2059 1.415 . S
C2062 H2052 0.930 . S
C2062 C2060 1.419 . S
C2062 C2063 1.362 . S
C2063 H2053 0.930 . S
C2063 C2056 1.409 . S
C2063 C2062 1.362 . S
H2064 C2070 0.930 . S
H2065 C2073 0.930 . S
H2066 C2074 0.930 . S
H2067 C2075 0.930 . S
H2068 C2078 0.930 . S
H2069 C2079 0.930 . S
C2070 H2064 0.930 . S
C2070 C2071 1.355 1_554 S
C2070 C2072 1.415 . S
C2071 C2070 1.355 1_556 S
C2071 C2073 1.419 . S
C2072 C2070 1.415 . S
C2072 C2077 1.425 1_554 S
C2072 C2079 1.409 . S
C2073 H2065 0.930 . S
C2073 C2071 1.419 . S
C2073 C2074 1.362 . S
C2074 H2066 0.930 . S
C2074 C2073 1.362 . S
C2074 C2077 1.409 . S
C2075 H2067 0.930 . S
C2075 C2076 1.355 . S
C2075 C2077 1.415 . S
C2076 C2075 1.355 . S
C2076 C2078 1.419 1_556 S
C2077 C2072 1.425 1_556 S
C2077 C2074 1.409 . S
C2077 C2075 1.415 . S
C2078 H2068 0.930 . S
C2078 C2076 1.419 1_554 S
C2078 C2079 1.362 . S
C2079 H2069 0.930 . S
C2079 C2072 1.409 . S
C2079 C2078 1.362 . S
H2080 C2086 0.930 . S
H2081 C2089 0.930 . S
H2082 C2090 0.930 . S
H2083 C2091 0.930 . S
H2084 C2094 0.930 . S
H2085 C2095 0.930 . S
C2086 H2080 0.930 . S
C2086 C2087 1.355 . S
C2086 C2088 1.415 . S
C2087 C2086 1.355 . S
C2087 C2089 1.419 . S
C2088 C2086 1.415 . S
C2088 C2093 1.425 . S
C2088 C2095 1.409 . S
C2089 H2081 0.930 . S
C2089 C2087 1.419 . S
C2089 C2090 1.362 . S
C2090 H2082 0.930 . S
C2090 C2089 1.362 . S
C2090 C2093 1.409 . S
C2091 H2083 0.930 . S
C2091 C2092 1.355 . S
C2091 C2093 1.415 . S
C2092 C2091 1.355 . S
C2092 C2094 1.419 . S
C2093 C2088 1.425 . S
C2093 C2090 1.409 . S
C2093 C2091 1.415 . S
C2094 H2084 0.930 . S
C2094 C2092 1.419 . S
C2094 C2095 1.362 . S
C2095 H2085 0.930 . S
C2095 C2088 1.409 . S
C2095 C2094 1.362 . S
H2096 C2102 0.930 . S
H2097 C2105 0.930 1_556 S
H2098 C2106 0.930 . S
H2099 C2107 0.930 . S
H2100 C2110 0.930 . S
H2101 C2111 0.930 . S
C2102 H2096 0.930 . S
C2102 C2103 1.355 . S
C2102 C2104 1.415 . S
C2103 C2102 1.355 . S
C2103 C2105 1.419 . S
C2104 C2102 1.415 . S
C2104 C2109 1.425 . S
C2104 C2111 1.409 . S
C2105 H2097 0.930 1_554 S
C2105 C2103 1.419 . S
C2105 C2106 1.362 1_554 S
C2106 H2098 0.930 . S
C2106 C2105 1.362 1_556 S
C2106 C2109 1.409 1_556 S
C2107 H2099 0.930 . S
C2107 C2108 1.355 1_556 S
C2107 C2109 1.415 1_556 S
C2108 C2107 1.355 1_554 S
C2108 C2110 1.419 . S
C2109 C2104 1.425 . S
C2109 C2106 1.409 1_554 S
C2109 C2107 1.415 1_554 S
C2110 H2100 0.930 . S
C2110 C2108 1.419 . S
C2110 C2111 1.362 . S
C2111 H2101 0.930 . S
C2111 C2104 1.409 . S
C2111 C2110 1.362 . S
H2112 C2118 0.930 . S
H2113 C2121 0.930 . S
H2114 C2122 0.930 . S
H2115 C2123 0.930 . S
H2116 C2126 0.930 . S
H2117 C2127 0.930 1_545 S
C2118 H2112 0.930 . S
C2118 C2119 1.355 1_545 S
C2118 C2120 1.415 1_545 S
C2119 C2118 1.355 1_565 S
C2119 C2121 1.419 . S
C2120 C2118 1.415 1_565 S
C2120 C2125 1.425 . S
C2120 C2127 1.409 . S
C2121 H2113 0.930 . S
C2121 C2119 1.419 . S
C2121 C2122 1.362 . S
C2122 H2114 0.930 . S
C2122 C2121 1.362 . S
C2122 C2125 1.409 . S
C2123 H2115 0.930 . S
C2123 C2124 1.355 . S
C2123 C2125 1.415 . S
C2124 C2123 1.355 . S
C2124 C2126 1.419 . S
C2125 C2120 1.425 . S
C2125 C2122 1.409 . S
C2125 C2123 1.415 . S
C2126 H2116 0.930 . S
C2126 C2124 1.419 . S
C2126 C2127 1.362 . S
C2127 H2117 0.930 1_565 S
C2127 C2120 1.409 . S
C2127 C2126 1.362 . S
C1372 C353 1.870 . S
C1367 C101 1.871 . S
C1388 C412 1.061 . S
C1383 C125 1.000 . S
C1399 C139 2.066 . S
C1404 C529 2.058 . S
C1420 C597 1.839 . S
C1415 C82 1.863 . S
C1436 C676 1.601 . S
C1431 C196 1.633 . S
C1452 C801 1.865 . S
C1447 C234 1.884 . S
C1463 C220 0.904 . S
C1468 C861 0.829 . S
C1484 C969 1.699 . S
C1479 C173 1.702 . S
C1495 C211 1.262 . S
C1500 C1065 1.272 . S
C1516 C1125 1.085 . S
C1511 C182 1.090 . S
C1527 C201 1.318 . S
C1532 C1028 1.493 . S
C1548 C1145 1.366 . S
C1543 C239 1.261 . S
C1559 C135 1.662 . S
C1564 C1213 1.677 . S
C1575 C87 1.863 . S
C1580 C1204 1.990 . S
C1591 C106 1.177 . S
C1596 C1233 1.227 . S
C1607 C116 1.235 . S
C1612 C1241 1.259 . S
C1623 C59 1.932 . S
C1628 C625 1.953 . S
C1639 C268 2.253 . S
C1644 C588 2.267 . S
C1660 C324 1.168 . S
C1655 C291 1.198 . S
C1676 C421 1.477 . S
C1671 C163 1.394 . S
C1687 C78 2.093 1_545 S
C1692 C685 2.117 . S
C1708 C977 1.153 . S
C1703 C215 1.157 . S
C1724 C705 1.674 . S
C1719 C177 1.708 . S
C1740 C889 1.855 . S
C1735 C230 1.838 . S
C1756 C881 1.876 . S
C1751 C272 1.867 . S
C1767 C296 0.930 . S
C1772 C949 1.065 . S
C1783 C158 2.074 . S
C1788 C713 2.069 . S
C1804 C764 1.800 . S
C1799 C253 1.838 . S
C1815 C63 1.622 . S
C1820 C509 1.585 . S
C1836 C617 1.890 1_455 S
C1831 C6 1.905 . S
C1852 C333 0.870 . S
C1847 C30 0.783 . S
C1868 C449 1.718 . S
C1863 C40 1.707 . S
C1879 C21 1.279 . S
C1884 C1153 1.288 . S
C1895 C49 0.981 . S
C1900 C1037 1.096 . S
C1911 C68 1.321 . S
C1916 C1116 1.487 . S
C1927 C11 1.271 1_556 S
C1932 C1057 1.389 . S
C1948 C1301 1.651 . S
C1943 C154 1.630 . S
C1964 C1292 1.998 . S
C1959 C258 1.825 . S
C1980 C1321 1.286 . S
C1975 C277 1.153 . S
C1991 C287 1.268 . S
C1996 C1329 1.288 . S
C2007 C192 1.934 . S
C2012 C793 1.949 . S
C2028 C773 2.242 . S
C2023 C97 2.230 . S
C2044 C852 1.171 . S
C2039 C120 1.200 . S
C2060 C940 1.478 . S
C2055 C144 1.409 . S
C2071 C249 2.059 . S
C2076 C500 2.110 . S
C2092 C441 1.178 . S
C2087 C25 1.181 . S
C2103 C44 1.666 . S
C2108 C537 1.647 . S
C2124 C361 1.868 . S
C2119 C2 1.854 1_565 S
