# Generated by pormake.
# Topology pth, (4,4)-cn, num edge types: 1
# Building blocks:
#     Node 0, Type 0, BuildingBlock: QUQFOY_clean_sbu_1, # of connection points: 4
#     Node 1, Type 0, BuildingBlock: QUQFOY_clean_sbu_1, # of connection points: 4
#     Node 2, Type 0, BuildingBlock: QUQFOY_clean_sbu_1, # of connection points: 4
#     Node 3, Type 1, BuildingBlock: MIFKUJ_clean_linker_1, # of connection points: 4
#     Node 4, Type 1, BuildingBlock: MIFKUJ_clean_linker_1, # of connection points: 4
#     Node 5, Type 1, BuildingBlock: MIFKUJ_clean_linker_1, # of connection points: 4
#     Edge 6, Type (0, 1), BuildingBlock: TEMPAE_clean_linker_10, # of connection points: 2
#     Edge 7, Type (0, 1), BuildingBlock: TEMPAE_clean_linker_10, # of connection points: 2
#     Edge 8, Type (0, 1), BuildingBlock: TEMPAE_clean_linker_10, # of connection points: 2
#     Edge 9, Type (0, 1), BuildingBlock: TEMPAE_clean_linker_10, # of connection points: 2
#     Edge 10, Type (0, 1), BuildingBlock: TEMPAE_clean_linker_10, # of connection points: 2
#     Edge 11, Type (0, 1), BuildingBlock: TEMPAE_clean_linker_10, # of connection points: 2
#     Edge 12, Type (0, 1), BuildingBlock: TEMPAE_clean_linker_10, # of connection points: 2
#     Edge 13, Type (0, 1), BuildingBlock: TEMPAE_clean_linker_10, # of connection points: 2
#     Edge 14, Type (0, 1), BuildingBlock: TEMPAE_clean_linker_10, # of connection points: 2
#     Edge 15, Type (0, 1), BuildingBlock: TEMPAE_clean_linker_10, # of connection points: 2
#     Edge 16, Type (0, 1), BuildingBlock: TEMPAE_clean_linker_10, # of connection points: 2
#     Edge 17, Type (0, 1), BuildingBlock: TEMPAE_clean_linker_10, # of connection points: 2
# Relax obj value: 0.028
# Max RMSD: 0.131
# Mean RMSD: 0.087
data_MOF--net-pth--node1-QUQFOY_clean_sbu_1--node2-MIFKUJ_clean_linker_1--edge1-TEMPAE_clean_linker_10
_symmetry_space_group_name_H-M    P1
_symmetry_Int_Tables_number       1
_symmetry_cell_setting            triclinic
loop_
_symmetry_equiv_pos_as_xyz
'x, y, z'
_cell_length_a     28.825997
_cell_length_b     31.152112
_cell_length_c     66.458798
_cell_angle_alpha  90.027157
_cell_angle_beta   90.007746
_cell_angle_gamma 120.06245
loop_
_atom_site_label
_atom_site_type_symbol
_atom_site_fract_x
_atom_site_fract_y
_atom_site_fract_z
_atom_type_partial_charge
O0 O 0.04201 0.07601 0.05033 0.0
Cd1 Cd 0.98032 0.03057 0.06923 0.0
Cd2 Cd 0.03303 0.98015 0.06935 0.0
O3 O 0.09325 0.04331 0.05575 0.0
O4 O 0.94947 0.07159 0.07873 0.0
O5 O 0.99207 0.046 0.09879 0.0
C6 C 0.9685 0.07164 0.09629 0.0
C7 C 0.04992 0.94005 0.09557 0.0
C8 C 0.08604 0.07666 0.0478 0.0
C9 C 0.92451 0.9323 0.04946 0.0
O10 O 0.96845 0.93271 0.05184 0.0
O11 O 0.91844 0.96684 0.05681 0.0
O12 O 0.06486 0.93892 0.07739 0.0
O13 O 0.02787 0.96661 0.09913 0.0
O14 O 0.96653 0.04172 0.41053 0.0
Cd15 Cd 0.02793 0.05443 0.39134 0.0
Cd16 Cd 0.97841 0.95503 0.39205 0.0
O17 O 0.91799 0.96076 0.40639 0.0
O18 O 0.05633 0.12351 0.38156 0.0
O19 O 0.01528 0.0577 0.36175 0.0
C20 C 0.03743 0.10517 0.36406 0.0
C21 C 0.96062 0.89759 0.36636 0.0
C22 C 0.924 1.00079 0.41391 0.0
C23 C 0.0875 0.01206 0.41146 0.0
O24 O 0.04487 0.9706 0.40903 0.0
O25 O 0.09146 0.05137 0.40406 0.0
O26 O 0.94817 0.88393 0.38481 0.0
O27 O 0.98088 0.94415 0.36226 0.0
O28 O 0.92184 0.97869 0.7181 0.0
Cd29 Cd 0.96933 0.95859 0.734 0.0
Cd30 Cd 0.03803 0.0579 0.73254 0.0
O31 O 0.9768 0.05968 0.71713 0.0
O32 O 0.91849 0.88952 0.74277 0.0
O33 O 0.96113 0.95159 0.76415 0.0
C34 C 0.92682 0.90529 0.76108 0.0
C35 C 0.08232 0.11205 0.75916 0.0
C36 C 0.93222 0.0217 0.71266 0.0
C37 C 0.07284 0.99228 0.71221 0.0
O38 O 0.08336 0.03603 0.71639 0.0
O39 O 0.02941 0.95512 0.71826 0.0
O40 O 0.09017 0.12709 0.74074 0.0
O41 O 0.04734 0.06612 0.76259 0.0
H42 H 0.0824 0.46554 0.19705 0.0
H43 H 0.07918 0.39572 0.17885 0.0
H44 H 0.9138 0.30285 0.19691 0.0
H45 H 0.91848 0.37209 0.21574 0.0
H46 H 0.01371 0.50954 0.19303 0.0
H47 H 0.08018 0.44716 0.24399 0.0
H48 H 0.08529 0.38238 0.26269 0.0
H49 H 0.9198 0.32107 0.28077 0.0
H50 H 0.91615 0.38783 0.26269 0.0
H51 H 0.9101 0.52796 0.26291 0.0
H52 H 0.9018 0.5913 0.28181 0.0
H53 H 0.06124 0.70162 0.26305 0.0
H54 H 0.06967 0.63792 0.24453 0.0
H55 H 0.98511 0.49584 0.26699 0.0
H56 H 0.92941 0.57273 0.21497 0.0
H57 H 0.93907 0.64515 0.19674 0.0
H58 H 0.10045 0.68456 0.18004 0.0
H59 H 0.09065 0.61226 0.19841 0.0
C60 C 1.00075 0.42384 0.20775 0.0
C61 C 0.04557 0.43005 0.19703 0.0
C62 C 0.0435 0.39008 0.18659 0.0
C63 C 0.99622 0.34336 0.1864 0.0
C64 C 0.95126 0.33775 0.19703 0.0
C65 C 0.95365 0.37746 0.20766 0.0
C66 C 0.00275 0.46527 0.2194 0.0
C67 C 0.00813 0.50694 0.20921 0.0
C68 C 0.99568 0.46187 0.24047 0.0
C69 C 0.99782 0.42222 0.252 0.0
C70 C 0.04507 0.41975 0.25203 0.0
C71 C 0.0477 0.38231 0.2626 0.0
C72 C 0.00285 0.34606 0.2732 0.0
C73 C 0.9554 0.34866 0.27305 0.0
C74 C 0.95308 0.38666 0.26268 0.0
C75 C 0.99035 0.57828 0.25224 0.0
C76 C 0.9433 0.56577 0.26294 0.0
C77 C 0.93843 0.60208 0.27356 0.0
C78 C 0.98077 0.65152 0.27383 0.0
C79 C 0.02806 0.66383 0.26323 0.0
C80 C 0.03281 0.62754 0.25255 0.0
C81 C 0.99471 0.53982 0.24058 0.0
C82 C 0.99057 0.49857 0.2508 0.0
C83 C 0.00435 0.54438 0.21958 0.0
C84 C 0.0094 0.58729 0.20808 0.0
C85 C 0.96686 0.59703 0.2074 0.0
C86 C 0.97236 0.63827 0.19694 0.0
C87 C 0.02061 0.67061 0.18706 0.0
C88 C 0.06306 0.66063 0.18773 0.0
C89 C 0.05736 0.61916 0.19804 0.0
H90 H 0.60827 0.07626 0.52584 0.0
H91 H 0.67375 0.07488 0.50286 0.0
H92 H 0.64683 0.93809 0.52976 0.0
H93 H 0.58089 0.93921 0.55254 0.0
H94 H 0.50736 0.01437 0.52652 0.0
H95 H 0.63745 0.07841 0.57964 0.0
H96 H 0.70855 0.08744 0.60264 0.0
H97 H 0.61414 0.93257 0.61831 0.0
H98 H 0.5423 0.92395 0.59576 0.0
H99 H 0.38745 0.91306 0.5971 0.0
H100 H 0.31624 0.9048 0.61954 0.0
H101 H 0.34225 0.0471 0.59952 0.0
H102 H 0.41369 0.05533 0.57714 0.0
H103 H 0.49052 0.98266 0.59993 0.0
H104 H 0.35075 0.93625 0.54887 0.0
H105 H 0.28774 0.94189 0.52571 0.0
H106 H 0.41365 0.08502 0.50556 0.0
H107 H 0.47607 0.07983 0.52892 0.0
C108 C 0.58981 0.008 0.54101 0.0
C109 C 0.61688 0.04625 0.52695 0.0
C110 C 0.65406 0.04531 0.51377 0.0
C111 C 0.66499 0.00615 0.51443 0.0
C112 C 0.6395 0.96893 0.52904 0.0
C113 C 0.60202 0.9697 0.54214 0.0
C114 C 0.54481 0.00521 0.55289 0.0
C115 C 0.50409 0.00837 0.54267 0.0
C116 C 0.54013 0.99672 0.57383 0.0
C117 C 0.5849 1.00047 0.586 0.0
C118 C 0.63237 0.04631 0.58787 0.0
C119 C 0.6727 0.05151 0.60101 0.0
C120 C 0.66647 0.01067 0.61213 0.0
C121 C 0.61971 0.96443 0.60976 0.0
C122 C 0.57884 0.95951 0.59696 0.0
C123 C 0.40572 0.98468 0.58536 0.0
C124 C 0.37745 0.94227 0.59739 0.0
C125 C 0.33694 0.93766 0.61026 0.0
C126 C 0.32387 0.9754 0.61135 0.0
C127 C 0.35104 0.01716 0.59883 0.0
C128 C 0.39182 0.02188 0.58601 0.0
C129 C 0.45254 0.99148 0.57353 0.0
C130 C 0.49367 0.98886 0.5838 0.0
C131 C 0.45846 1.00258 0.55271 0.0
C132 C 0.41814 0.00767 0.54067 0.0
C133 C 0.36444 0.96936 0.53984 0.0
C134 C 0.32856 0.97252 0.52656 0.0
C135 C 0.3461 0.01369 0.51374 0.0
C136 C 0.39934 0.05261 0.51509 0.0
C137 C 0.43491 0.04969 0.52846 0.0
H138 H 0.47581 0.4132 0.8673 0.0
H139 H 0.40558 0.3491 0.84651 0.0
H140 H 0.28555 0.35951 0.88179 0.0
H141 H 0.35618 0.42598 0.9016 0.0
H142 H 0.50799 0.50482 0.87147 0.0
H143 H 0.44046 0.37028 0.91764 0.0
H144 H 0.37929 0.30144 0.9393 0.0
H145 H 0.33746 0.39903 0.9705 0.0
H146 H 0.39829 0.46754 0.94878 0.0
H147 H 0.52167 0.60242 0.94623 0.0
H148 H 0.58466 0.6697 0.96805 0.0
H149 H 0.71599 0.66008 0.9416 0.0
H150 H 0.65269 0.59202 0.92002 0.0
H151 H 0.50126 0.50963 0.94591 0.0
H152 H 0.57267 0.64485 0.89677 0.0
H153 H 0.64454 0.71179 0.87721 0.0
H154 H 0.68728 0.60765 0.85281 0.0
H155 H 0.61636 0.54132 0.87273 0.0
C156 C 0.42149 0.42428 0.88618 0.0
C157 C 0.43438 0.40178 0.87054 0.0
C158 C 0.394 0.36461 0.85879 0.0
C159 C 0.33966 0.34878 0.86249 0.0
C160 C 0.32687 0.37102 0.87833 0.0
C161 C 0.36731 0.40864 0.8899 0.0
C162 C 0.46466 0.46543 0.89807 0.0
C163 C 0.50674 0.50546 0.88778 0.0
C164 C 0.46335 0.46668 0.91935 0.0
C165 C 0.42375 0.42403 0.93151 0.0
C166 C 0.4175 0.37665 0.92894 0.0
C167 C 0.38267 0.33739 0.94135 0.0
C168 C 0.35393 0.34499 0.95668 0.0
C169 C 0.35975 0.39228 0.95903 0.0
C170 C 0.3943 0.43138 0.94658 0.0
C171 C 0.58245 0.59241 0.93137 0.0
C172 C 0.56405 0.61488 0.94507 0.0
C173 C 0.59999 0.6532 0.95755 0.0
C174 C 0.65511 0.66998 0.95652 0.0
C175 C 0.67372 0.64818 0.94254 0.0
C176 C 0.63763 0.60942 0.93017 0.0
C177 C 0.54318 0.54934 0.9193 0.0
C178 C 0.50213 0.50884 0.92959 0.0
C179 C 0.54618 0.54728 0.89811 0.0
C180 C 0.58941 0.58816 0.8863 0.0
C181 C 0.59786 0.6366 0.88734 0.0
C182 C 0.63871 0.67472 0.87607 0.0
C183 C 0.67177 0.66506 0.86353 0.0
C184 C 0.66311 0.61649 0.86256 0.0
C185 C 0.62225 0.57844 0.87377 0.0
C186 C 0.006 0.12142 0.12774 0.0
C187 C 0.96742 0.10395 0.11239 0.0
C188 C 0.0107 0.15822 0.1412 0.0
C189 C 0.97531 0.17718 0.13948 0.0
C190 C 0.93436 0.15755 0.12472 0.0
C191 C 0.93127 0.12156 0.11123 0.0
C192 C 0.05533 0.17866 0.15655 0.0
C193 C 0.89506 0.17595 0.12267 0.0
C194 C 0.96313 0.25213 0.18225 0.0
C195 C 0.99319 0.30085 0.1749 0.0
C196 C 0.95736 0.21152 0.17102 0.0
C197 C 0.98312 0.21978 0.15214 0.0
C198 C 0.01484 0.26886 0.14489 0.0
C199 C 0.01908 0.30868 0.15625 0.0
C200 C 0.92273 0.15972 0.17915 0.0
C201 C 0.04348 0.27928 0.12492 0.0
H202 H 0.0343 0.10821 0.1286 0.0
H203 H 0.90118 0.10794 0.09945 0.0
H204 H 0.08463 0.21787 0.15288 0.0
H205 H 0.03935 0.17824 0.17177 0.0
H206 H 0.07682 0.15739 0.15699 0.0
H207 H 0.86267 0.15371 0.1117 0.0
H208 H 0.87658 0.17479 0.13745 0.0
H209 H 0.91644 0.21514 0.11759 0.0
H210 H 0.94384 0.24559 0.19681 0.0
H211 H 0.04173 0.34592 0.15023 0.0
H212 H 0.94611 0.14035 0.18008 0.0
H213 H 0.88872 0.13802 0.16874 0.0
H214 H 0.90639 0.15963 0.1943 0.0
H215 H 0.06865 0.26161 0.12438 0.0
H216 H 0.06941 0.31964 0.12206 0.0
H217 H 0.01373 0.26303 0.11256 0.0
C218 C 0.83517 0.9556 0.43157 0.0
C219 C 0.8829 0.99995 0.42756 0.0
C220 C 0.79754 0.95439 0.44534 0.0
C221 C 0.80813 0.99849 0.45538 0.0
C222 C 0.85586 0.04343 0.45121 0.0
C223 C 0.89252 0.04365 0.43732 0.0
C224 C 0.74678 0.90589 0.44931 0.0
C225 C 0.86862 0.09122 0.46165 0.0
C226 C 0.69564 0.01105 0.4789 0.0
C227 C 0.70102 1.00305 0.49932 0.0
C228 C 0.72938 0.00845 0.46436 0.0
C229 C 0.76969 0.99791 0.47042 0.0
C230 C 0.77492 0.98921 0.49099 0.0
C231 C 0.74033 0.99169 0.5052 0.0
C232 C 0.72231 0.01754 0.44255 0.0
C233 C 0.81776 0.97829 0.49803 0.0
H234 H 0.82737 0.9217 0.42409 0.0
H235 H 0.92926 0.07813 0.43437 0.0
H236 H 0.74516 0.89546 0.46536 0.0
H237 H 0.71127 0.90993 0.44638 0.0
H238 H 0.74382 0.87522 0.43983 0.0
H239 H 0.90733 0.12308 0.45659 0.0
H240 H 0.83636 0.09998 0.45876 0.0
H241 H 0.87051 0.08702 0.47816 0.0
H242 H 0.66464 0.01897 0.47426 0.0
H243 H 0.74472 0.98573 0.52099 0.0
H244 H 0.71668 0.98577 0.43319 0.0
H245 H 0.75893 0.05093 0.43704 0.0
H246 H 0.68748 0.02305 0.44022 0.0
H247 H 0.81432 0.94581 0.48983 0.0
H248 H 0.81526 0.97066 0.51444 0.0
H249 H 0.85795 0.01034 0.49465 0.0
C250 C 0.85787 0.8218 0.77361 0.0
C251 C 0.89547 0.87155 0.77775 0.0
C252 C 0.82446 0.78998 0.78873 0.0
C253 C 0.82873 0.80821 0.80856 0.0
C254 C 0.86761 0.85799 0.81301 0.0
C255 C 0.90054 0.88914 0.79753 0.0
C256 C 0.78358 0.73712 0.78335 0.0
C257 C 0.8735 0.87862 0.834 0.0
C258 C 0.70284 0.7374 0.84011 0.0
C259 C 0.71393 0.7049 0.8509 0.0
C260 C 0.7407 0.77253 0.82684 0.0
C261 C 0.79093 0.77531 0.82432 0.0
C262 C 0.80314 0.74389 0.83574 0.0
C263 C 0.76447 0.70901 0.84887 0.0
C264 C 0.72603 0.80523 0.81488 0.0
C265 C 0.85636 0.74595 0.83359 0.0
H266 H 0.85369 0.8078 0.75839 0.0
H267 H 0.92948 0.92752 0.80086 0.0
H268 H 0.78885 0.71094 0.79307 0.0
H269 H 0.74257 0.73065 0.78605 0.0
H270 H 0.78656 0.72829 0.76737 0.0
H271 H 0.90767 0.91718 0.83526 0.0
H272 H 0.83622 0.87838 0.83836 0.0
H273 H 0.87946 0.85494 0.84495 0.0
H274 H 0.66372 0.73413 0.84146 0.0
H275 H 0.77358 0.6845 0.85741 0.0
H276 H 0.72347 0.79574 0.79867 0.0
H277 H 0.75753 0.84472 0.81651 0.0
H278 H 0.68704 0.80104 0.81965 0.0
H279 H 0.85977 0.73371 0.81826 0.0
H280 H 0.86132 0.72196 0.84473 0.0
H281 H 0.88977 0.7846 0.83546 0.0
C282 C 0.07496 0.87759 0.1064 0.0
C283 C 0.05356 0.90802 0.11125 0.0
C284 C 0.07219 0.84194 0.11999 0.0
C285 C 0.04768 0.83669 0.13897 0.0
C286 C 0.02834 0.8689 0.14438 0.0
C287 C 0.03139 0.90416 0.13042 0.0
C288 C 0.09331 0.80835 0.11362 0.0
C289 C 0.00244 0.86476 0.16457 0.0
C290 C 0.98602 0.70844 0.16233 0.0
C291 C 0.02633 0.71401 0.17567 0.0
C292 C 0.99199 0.74842 0.15065 0.0
C293 C 0.03921 0.79526 0.1525 0.0
C294 C 0.07939 0.80148 0.16637 0.0
C295 C 0.07261 0.76067 0.17771 0.0
C296 C 0.94844 0.7401 0.13587 0.0
C297 C 0.12996 0.85095 0.16895 0.0
H298 H 0.09232 0.88036 0.09166 0.0
H299 H 0.01481 0.92755 0.13431 0.0
H300 H 0.12167 0.80892 0.12504 0.0
H301 H 0.05963 0.76958 0.11253 0.0
H302 H 0.11407 0.81917 0.09885 0.0
H303 H 0.9942 0.89552 0.16723 0.0
H304 H 0.96402 0.82911 0.16543 0.0
H305 H 0.0285 0.8647 0.17685 0.0
H306 H 0.95043 0.67233 0.16057 0.0
H307 H 0.10356 0.76524 0.18821 0.0
H308 H 0.96452 0.74628 0.12031 0.0
H309 H 0.93471 0.7671 0.13861 0.0
H310 H 0.91329 0.702 0.13684 0.0
H311 H 0.15347 0.86128 0.15479 0.0
H312 H 0.15561 0.85048 0.18133 0.0
H313 H 0.11986 0.88029 0.17212 0.0
C314 C 0.16754 0.05935 0.43366 0.0
C315 C 0.13059 0.01462 0.4244 0.0
C316 C 0.20442 0.06087 0.44785 0.0
C317 C 0.20486 0.01678 0.45262 0.0
C318 C 0.16916 0.97197 0.44269 0.0
C319 C 0.13218 0.97135 0.42882 0.0
C320 C 0.24161 0.10926 0.45827 0.0
C321 C 0.16914 0.92439 0.44707 0.0
C322 C 0.32744 0.02657 0.47825 0.0
C323 C 0.30999 0.01513 0.49825 0.0
C324 C 0.29371 0.02737 0.46324 0.0
C325 C 0.24152 0.01706 0.46841 0.0
C326 C 0.22386 0.00599 0.48863 0.0
C327 C 0.25822 0.00475 0.5033 0.0
C328 C 0.31363 0.03852 0.4418 0.0
C329 C 0.16867 0.99539 0.49476 0.0
H330 H 0.16628 0.09285 0.43041 0.0
H331 H 0.10394 0.93672 0.42161 0.0
H332 H 0.23288 0.10565 0.47464 0.0
H333 H 0.28384 0.11842 0.45646 0.0
H334 H 0.23756 0.14057 0.45234 0.0
H335 H 0.14111 0.89344 0.43717 0.0
H336 H 0.21004 0.92999 0.4451 0.0
H337 H 0.15738 0.91335 0.46295 0.0
H338 H 0.36727 0.03398 0.47429 0.0
H339 H 0.24489 0.99626 0.51879 0.0
H340 H 0.31174 0.0711 0.43614 0.0
H341 H 0.28742 0.00664 0.43197 0.0
H342 H 0.35549 0.04618 0.44032 0.0
H343 H 0.16306 0.0269 0.49044 0.0
H344 H 0.16174 0.98899 0.5112 0.0
H345 H 0.13773 0.9621 0.4867 0.0
C346 C 0.15979 0.19209 0.77082 0.0
C347 C 0.11495 0.14609 0.77556 0.0
C348 C 0.19372 0.22365 0.78591 0.0
C349 C 0.18222 0.20927 0.80633 0.0
C350 C 0.13623 0.16347 0.81129 0.0
C351 C 0.10331 0.13219 0.79582 0.0
C352 C 0.24266 0.27192 0.77996 0.0
C353 C 0.12222 0.14729 0.83291 0.0
C354 C 0.30119 0.27057 0.84188 0.0
C355 C 0.29682 0.31054 0.84939 0.0
C356 C 0.26331 0.23648 0.82831 0.0
C357 C 0.2194 0.24191 0.82231 0.0
C358 C 0.21342 0.28084 0.83046 0.0
C359 C 0.25238 0.3149 0.84375 0.0
C360 C 0.27135 0.19567 0.81985 0.0
C361 C 0.16685 0.28758 0.8246 0.0
H362 H 0.16926 0.20307 0.75521 0.0
H363 H 0.06866 0.09675 0.79959 0.0
H364 H 0.24179 0.30353 0.78726 0.0
H365 H 0.27941 0.27234 0.78524 0.0
H366 H 0.24561 0.27787 0.76342 0.0
H367 H 0.08371 0.11179 0.8343 0.0
H368 H 0.15441 0.14263 0.83986 0.0
H369 H 0.11938 0.17625 0.84164 0.0
H370 H 0.33465 0.26616 0.84645 0.0
H371 H 0.24879 0.34588 0.84921 0.0
H372 H 0.27801 0.20076 0.80336 0.0
H373 H 0.23491 0.15906 0.82226 0.0
H374 H 0.3061 0.19508 0.82676 0.0
H375 H 0.17051 0.29848 0.80854 0.0
H376 H 0.16499 0.31647 0.8338 0.0
H377 H 0.1285 0.25215 0.8263 0.0
C378 C 0.91149 0.06326 0.68482 0.0
C379 C 0.89347 0.02651 0.6997 0.0
C380 C 0.87577 0.06393 0.67062 0.0
C381 C 0.82064 0.02778 0.67173 0.0
C382 C 0.80191 0.99222 0.68739 0.0
C383 C 0.8387 0.99158 0.70102 0.0
C384 C 0.89738 0.10176 0.65389 0.0
C385 C 0.74323 0.95393 0.68942 0.0
C386 C 0.71961 0.04892 0.64321 0.0
C387 C 0.70762 0.0167 0.62684 0.0
C388 C 0.75652 0.05312 0.65795 0.0
C389 C 0.78287 0.02531 0.65592 0.0
C390 C 0.77182 0.9937 0.63908 0.0
C391 C 0.73367 0.98925 0.62486 0.0
C392 C 0.76623 0.08621 0.67593 0.0
C393 C 0.79995 0.96427 0.63616 0.0
H394 H 0.95393 0.09001 0.68366 0.0
H395 H 0.82467 0.96331 0.71261 0.0
H396 H 0.89133 0.08256 0.63923 0.0
H397 H 0.87526 0.12234 0.65323 0.0
H398 H 0.94079 0.12883 0.65573 0.0
H399 H 0.73462 0.93191 0.70347 0.0
H400 H 0.71859 0.97217 0.68928 0.0
H401 H 0.7304 0.92813 0.67642 0.0
H402 H 0.69892 0.06977 0.64473 0.0
H403 H 0.72433 0.96453 0.6121 0.0
H404 H 0.80946 0.11405 0.67722 0.0
H405 H 0.75461 0.06368 0.6899 0.0
H406 H 0.74319 0.10599 0.67506 0.0
H407 H 0.84403 0.98932 0.6367 0.0
H408 H 0.7893 0.94391 0.62162 0.0
H409 H 0.78916 0.93704 0.64855 0.0
C410 C 0.83955 0.89807 0.02948 0.0
C411 C 0.88153 0.89254 0.03722 0.0
C412 C 0.80103 0.86222 0.01657 0.0
C413 C 0.80427 0.81963 0.01152 0.0
C414 C 0.84565 0.81319 0.01975 0.0
C415 C 0.88393 0.84984 0.03241 0.0
C416 C 0.75765 0.87046 0.00795 0.0
C417 C 0.84997 0.76792 0.01496 0.0
C418 C 0.68116 0.70573 0.9911 0.0
C419 C 0.6928 0.70901 0.97048 0.0
C420 C 0.71687 0.74172 0.00463 0.0
C421 C 0.76509 0.78216 0.99731 0.0
C422 C 0.7767 0.78602 0.97645 0.0
C423 C 0.74052 0.74918 0.96329 0.0
C424 C 0.70347 0.73598 0.02678 0.0
C425 C 0.82749 0.82891 0.96807 0.0
H426 H 0.83758 0.93107 0.03306 0.0
H427 H 0.91605 0.84514 0.03843 0.0
H428 H 0.76097 0.87278 0.9913 0.0
H429 H 0.71758 0.83863 0.01164 0.0
H430 H 0.75998 0.90497 0.01372 0.0
H431 H 0.88321 0.76754 0.02326 0.0
H432 H 0.81192 0.73374 0.01877 0.0
H433 H 0.85676 0.76662 0.99859 0.0
H434 H 0.64454 0.67437 0.99672 0.0
H435 H 0.74929 0.75198 0.94733 0.0
H436 H 0.7034 0.76939 0.03251 0.0
H437 H 0.73456 0.73257 0.03531 0.0
H438 H 0.6638 0.7029 0.02998 0.0
H439 H 0.83024 0.86454 0.97236 0.0
H440 H 0.82959 0.82738 0.95141 0.0
H441 H 0.86289 0.82884 0.97458 0.0
C442 C 0.97404 0.87652 0.33115 0.0
C443 C 0.95591 0.86132 0.35087 0.0
C444 C 0.97559 0.8434 0.31714 0.0
C445 C 0.95887 0.79406 0.32305 0.0
C446 C 0.93857 0.77805 0.34269 0.0
C447 C 0.9372 0.81178 0.35632 0.0
C448 C 0.99701 0.86169 0.29627 0.0
C449 C 0.92038 0.72579 0.34961 0.0
C450 C 0.92879 0.69232 0.28488 0.0
C451 C 0.97604 0.68982 0.28555 0.0
C452 C 0.92315 0.72709 0.29653 0.0
C453 C 0.96564 0.75989 0.30926 0.0
C454 C 0.01381 0.75815 0.3097 0.0
C455 C 0.01845 0.72324 0.29781 0.0
C456 C 0.87139 0.72809 0.29553 0.0
C457 C 0.05992 0.7922 0.32318 0.0
H458 H 0.98851 0.91469 0.32681 0.0
H459 H 0.92298 0.79959 0.3715 0.0
H460 H 0.03551 0.86225 0.29423 0.0
H461 H 0.96872 0.83615 0.28477 0.0
H462 H 0.00389 0.89959 0.29346 0.0
H463 H 0.90285 0.71839 0.36497 0.0
H464 H 0.89007 0.69857 0.33907 0.0
H465 H 0.95493 0.71938 0.34964 0.0
H466 H 0.89616 0.66702 0.27522 0.0
H467 H 0.05484 0.72115 0.29856 0.0
H468 H 0.8797 0.76613 0.29206 0.0
H469 H 0.85108 0.71773 0.31037 0.0
H470 H 0.84351 0.70223 0.28398 0.0
H471 H 0.07192 0.83143 0.32014 0.0
H472 H 0.09545 0.78764 0.32111 0.0
H473 H 0.04721 0.78459 0.33916 0.0
C474 C 0.09376 0.93967 0.6896 0.0
C475 C 0.11011 0.98531 0.69909 0.0
C476 C 0.12705 0.93444 0.67556 0.0
C477 C 0.17797 0.97569 0.67107 0.0
C478 C 0.19539 0.0213 0.68113 0.0
C479 C 0.16121 0.0256 0.69495 0.0
C480 C 0.10713 0.88526 0.66509 0.0
C481 C 0.24968 0.066 0.67694 0.0
C482 C 0.286 0.95838 0.64621 0.0
C483 C 0.28414 0.97245 0.6263 0.0
C484 C 0.25077 0.95803 0.66085 0.0
C485 C 0.21264 0.97193 0.65543 0.0
C486 C 0.20967 0.98499 0.63525 0.0
C487 C 0.24563 0.98528 0.62094 0.0
C488 C 0.2555 0.94433 0.68224 0.0
C489 C 0.16927 0.99969 0.62888 0.0
H490 H 0.05428 0.90842 0.69267 0.0
H491 H 0.17434 0.06092 0.7023 0.0
H492 H 0.10326 0.88969 0.64871 0.0
H493 H 0.13643 0.87234 0.66693 0.0
H494 H 0.06765 0.8562 0.67093 0.0
H495 H 0.2582 0.09804 0.68674 0.0
H496 H 0.28164 0.05654 0.67923 0.0
H497 H 0.2518 0.07748 0.66101 0.0
H498 H 0.31617 0.94905 0.65049 0.0
H499 H 0.24371 0.99566 0.60552 0.0
H500 H 0.21605 0.91452 0.68772 0.0
H501 H 0.26798 0.97692 0.6922 0.0
H502 H 0.28511 0.93161 0.68373 0.0
H503 H 0.12826 0.97041 0.63317 0.0
H504 H 0.17015 0.0061 0.6124 0.0
H505 H 0.17751 0.03419 0.63679 0.0
C506 C 0.11844 0.15064 0.02543 0.0
C507 C 0.12816 0.11579 0.03504 0.0
C508 C 0.15687 0.18713 0.01281 0.0
C509 C 0.20645 0.18907 0.00976 0.0
C510 C 0.21686 0.15437 0.01951 0.0
C511 C 0.17752 0.11804 0.03203 0.0
C512 C 0.14426 0.22349 0.00266 0.0
C513 C 0.26945 0.15556 0.01667 0.0
C514 C 0.28263 0.25679 0.96272 0.0
C515 C 0.31834 0.30402 0.97038 0.0
C516 C 0.24695 0.2185 0.97547 0.0
C517 C 0.24724 0.22771 0.99635 0.0
C518 C 0.2843 0.27489 0.00424 0.0
C519 C 0.31934 0.31251 0.99114 0.0
C520 C 0.20779 0.16871 0.9665 0.0
C521 C 0.28605 0.28602 0.02643 0.0
H522 H 0.08045 0.14926 0.02762 0.0
H523 H 0.1854 0.09131 0.0394 0.0
H524 H 0.17428 0.26195 0.00707 0.0
H525 H 0.1467 0.22087 0.98608 0.0
H526 H 0.10372 0.21684 0.00658 0.0
H527 H 0.2715 0.12625 0.02548 0.0
H528 H 0.27534 0.15056 1.00052 0.0
H529 H 0.30315 0.19222 0.0213 0.0
H530 H 0.28151 0.25019 0.94666 0.0
H531 H 0.34754 0.34875 0.99716 0.0
H532 H 0.16627 0.16146 0.96853 0.0
H533 H 0.2106 0.13874 0.97441 0.0
H534 H 0.21489 0.16665 0.95019 0.0
H535 H 0.24774 0.28339 0.03107 0.0
H536 H 0.31942 0.32362 0.03031 0.0
H537 H 0.29063 0.25825 0.03533 0.0
C538 C 0.07235 0.18887 0.34874 0.0
C539 C 0.03716 0.13753 0.34784 0.0
C540 C 0.06803 0.22106 0.3351 0.0
C541 C 0.02679 0.20154 0.32046 0.0
C542 C 0.99233 0.14954 0.31901 0.0
C543 C 0.99828 0.11807 0.33261 0.0
C544 C 0.10637 0.27617 0.33688 0.0
C545 C 0.94741 0.12735 0.30379 0.0
C546 C 0.98049 0.29037 0.30338 0.0
C547 C 0.00626 0.30657 0.28471 0.0
C548 C 0.98544 0.25499 0.31481 0.0
C549 C 0.01776 0.23588 0.30763 0.0
C550 C 0.04323 0.25139 0.2887 0.0
C551 C 0.03675 0.28611 0.27739 0.0
C552 C 0.95704 0.23894 0.33483 0.0
C553 C 0.07847 0.23228 0.28062 0.0
H554 H 0.10267 0.20406 0.36042 0.0
H555 H 0.9707 0.07843 0.33195 0.0
H556 H 0.12445 0.29186 0.32202 0.0
H557 H 0.08428 0.29498 0.34182 0.0
H558 H 0.13909 0.28497 0.34782 0.0
H559 H 0.92677 0.08618 0.30356 0.0
H560 H 0.91751 0.13869 0.30743 0.0
H561 H 0.9629 0.14144 0.28849 0.0
H562 H 0.95748 0.30628 0.30937 0.0
H563 H 0.05593 0.29745 0.26281 0.0
H564 H 0.98697 0.25121 0.34716 0.0
H565 H 0.93272 0.19788 0.33555 0.0
H566 H 0.93035 0.2545 0.33759 0.0
H567 H 0.11293 0.24317 0.29091 0.0
H568 H 0.09415 0.24684 0.26536 0.0
H569 H 0.05581 0.19117 0.27997 0.0
loop_
_geom_bond_atom_site_label_1
_geom_bond_atom_site_label_2
_geom_bond_distance
_geom_bond_site_symmetry_2
_ccdc_geom_bond_type
O0 Cd1 2.223 1_455 S
O0 C8 1.315 . S
Cd1 O0 2.223 1_655 S
Cd1 O4 2.297 . S
Cd1 O5 2.439 . S
Cd1 O11 2.240 1_545 S
Cd2 O3 2.240 1_565 S
Cd2 O10 2.223 1_455 S
Cd2 O12 2.297 . S
Cd2 O13 2.439 . S
O3 Cd2 2.240 1_545 S
O3 C8 1.279 . S
O4 Cd1 2.297 . S
O4 C6 1.247 . S
O5 Cd1 2.439 . S
O5 C6 1.208 . S
C6 O4 1.247 . S
C6 O5 1.208 . S
C7 O12 1.247 . S
C7 O13 1.208 . S
C8 O0 1.315 . S
C8 O3 1.279 . S
C9 O10 1.315 . S
C9 O11 1.279 . S
O10 Cd2 2.223 1_655 S
O10 C9 1.315 . S
O11 Cd1 2.240 1_565 S
O11 C9 1.279 . S
O12 Cd2 2.297 . S
O12 C7 1.247 . S
O13 Cd2 2.439 . S
O13 C7 1.208 . S
O14 Cd15 2.223 1_655 S
O14 C22 1.315 . S
Cd15 O14 2.223 1_455 S
Cd15 O18 2.297 . S
Cd15 O19 2.439 . S
Cd15 O25 2.240 . S
Cd16 O17 2.240 . S
Cd16 O24 2.223 1_655 S
Cd16 O26 2.297 . S
Cd16 O27 2.448 . S
O17 Cd16 2.240 . S
O17 C22 1.279 1_565 S
O18 Cd15 2.297 . S
O18 C20 1.247 . S
O19 Cd15 2.439 . S
O19 C20 1.208 . S
C20 O18 1.247 . S
C20 O19 1.208 . S
C21 O26 1.247 . S
C21 O27 1.198 . S
C22 O14 1.315 . S
C22 O17 1.279 1_545 S
C23 O24 1.315 . S
C23 O25 1.279 1_565 S
O24 Cd16 2.223 1_455 S
O24 C23 1.315 . S
O25 Cd15 2.240 . S
O25 C23 1.279 1_545 S
O26 Cd16 2.297 . S
O26 C21 1.247 . S
O27 Cd16 2.448 . S
O27 C21 1.198 . S
O28 Cd29 2.223 . S
O28 C36 1.315 . S
Cd29 O28 2.223 . S
Cd29 O32 2.297 . S
Cd29 O33 2.439 . S
Cd29 O39 2.240 1_655 S
Cd30 O31 2.240 1_455 S
Cd30 O38 2.223 . S
Cd30 O40 2.297 . S
Cd30 O41 2.439 . S
O31 Cd30 2.240 1_655 S
O31 C36 1.279 1_545 S
O32 Cd29 2.297 . S
O32 C34 1.247 . S
O33 Cd29 2.439 . S
O33 C34 1.208 . S
C34 O32 1.247 . S
C34 O33 1.208 . S
C35 O40 1.247 . S
C35 O41 1.208 . S
C36 O28 1.315 . S
C36 O31 1.279 1_565 S
C37 O38 1.315 . S
C37 O39 1.279 1_545 S
O38 Cd30 2.223 . S
O38 C37 1.315 . S
O39 Cd29 2.240 1_455 S
O39 C37 1.279 1_565 S
O40 Cd30 2.297 . S
O40 C35 1.247 . S
O41 Cd30 2.439 . S
O41 C35 1.208 . S
H42 C61 0.949 . S
H43 C62 0.950 . S
H44 C64 0.950 . S
H45 C65 0.950 . S
H46 C67 0.950 . S
H47 C70 0.950 . S
H48 C71 0.950 . S
H49 C73 0.951 . S
H50 C74 0.949 . S
H51 C76 0.949 . S
H52 C77 0.950 . S
H53 C79 0.950 . S
H54 C80 0.950 . S
H55 C82 0.950 . S
H56 C85 0.950 . S
H57 C86 0.950 . S
H58 C88 0.951 . S
H59 C89 0.949 . S
C60 C61 1.376 . S
C60 C65 1.386 1_455 S
C60 C66 1.483 . S
C61 H42 0.949 . S
C61 C60 1.376 . S
C61 C62 1.397 . S
C62 H43 0.950 . S
C62 C61 1.397 . S
C62 C63 1.391 . S
C63 C62 1.391 . S
C63 C64 1.405 1_455 S
C64 H44 0.950 . S
C64 C63 1.405 1_655 S
C64 C65 1.367 . S
C65 H45 0.950 . S
C65 C60 1.386 1_655 S
C65 C64 1.367 . S
C66 C60 1.483 . S
C66 C67 1.382 . S
C66 C68 1.403 1_455 S
C67 H46 0.950 . S
C67 C66 1.382 . S
C67 C83 1.411 . S
C68 C66 1.403 1_655 S
C68 C69 1.489 . S
C68 C82 1.411 . S
C69 C68 1.489 . S
C69 C70 1.383 1_655 S
C69 C74 1.382 . S
C70 H47 0.950 . S
C70 C69 1.383 1_455 S
C70 C71 1.395 . S
C71 H48 0.950 . S
C71 C70 1.395 . S
C71 C72 1.288 1_455 S
C72 C71 1.288 1_655 S
C72 C73 1.392 . S
C73 H49 0.951 . S
C73 C72 1.392 . S
C73 C74 1.392 . S
C74 H50 0.949 . S
C74 C69 1.382 . S
C74 C73 1.392 . S
C75 C76 1.376 . S
C75 C80 1.386 1_655 S
C75 C81 1.483 . S
C76 H51 0.949 . S
C76 C75 1.376 . S
C76 C77 1.397 . S
C77 H52 0.950 . S
C77 C76 1.397 . S
C77 C78 1.391 . S
C78 C77 1.391 . S
C78 C79 1.405 1_655 S
C79 H53 0.950 . S
C79 C78 1.405 1_455 S
C79 C80 1.367 . S
C80 H54 0.950 . S
C80 C75 1.386 1_455 S
C80 C79 1.367 . S
C81 C75 1.483 . S
C81 C82 1.382 . S
C81 C83 1.403 1_655 S
C82 H55 0.950 . S
C82 C68 1.411 . S
C82 C81 1.382 . S
C83 C67 1.411 . S
C83 C81 1.403 1_455 S
C83 C84 1.489 . S
C84 C83 1.489 . S
C84 C85 1.383 1_455 S
C84 C89 1.382 . S
C85 H56 0.950 . S
C85 C84 1.383 1_655 S
C85 C86 1.395 . S
C86 H57 0.950 . S
C86 C85 1.395 . S
C86 C87 1.288 1_655 S
C87 C86 1.288 1_455 S
C87 C88 1.392 . S
C88 H58 0.951 . S
C88 C87 1.392 . S
C88 C89 1.392 . S
C89 H59 0.949 . S
C89 C84 1.382 . S
C89 C88 1.392 . S
H90 C109 0.949 . S
H91 C110 0.950 . S
H92 C112 0.950 . S
H93 C113 0.950 . S
H94 C115 0.950 . S
H95 C118 0.950 . S
H96 C119 0.950 . S
H97 C121 0.951 . S
H98 C122 0.949 . S
H99 C124 0.949 . S
H100 C125 0.950 . S
H101 C127 0.950 . S
H102 C128 0.950 . S
H103 C130 0.950 . S
H104 C133 0.950 . S
H105 C134 0.950 . S
H106 C136 0.951 . S
H107 C137 0.949 . S
C108 C109 1.376 . S
C108 C113 1.386 1_545 S
C108 C114 1.483 . S
C109 H90 0.949 . S
C109 C108 1.376 . S
C109 C110 1.397 . S
C110 H91 0.950 . S
C110 C109 1.397 . S
C110 C111 1.391 . S
C111 C110 1.391 . S
C111 C112 1.405 1_545 S
C112 H92 0.950 . S
C112 C111 1.405 1_565 S
C112 C113 1.367 . S
C113 H93 0.950 . S
C113 C108 1.386 1_565 S
C113 C112 1.367 . S
C114 C108 1.483 . S
C114 C115 1.382 . S
C114 C116 1.403 1_545 S
C115 H94 0.950 . S
C115 C114 1.382 . S
C115 C131 1.411 . S
C116 C114 1.403 1_565 S
C116 C117 1.489 . S
C116 C130 1.411 . S
C117 C116 1.489 . S
C117 C118 1.383 1_565 S
C117 C122 1.382 . S
C118 H95 0.950 . S
C118 C117 1.383 1_545 S
C118 C119 1.395 . S
C119 H96 0.950 . S
C119 C118 1.395 . S
C119 C120 1.288 1_545 S
C120 C119 1.288 1_565 S
C120 C121 1.392 . S
C121 H97 0.951 . S
C121 C120 1.392 . S
C121 C122 1.392 . S
C122 H98 0.949 . S
C122 C117 1.382 . S
C122 C121 1.392 . S
C123 C124 1.376 . S
C123 C128 1.386 1_565 S
C123 C129 1.483 . S
C124 H99 0.949 . S
C124 C123 1.376 . S
C124 C125 1.397 . S
C125 H100 0.950 . S
C125 C124 1.397 . S
C125 C126 1.415 . S
C126 C125 1.415 . S
C126 C127 1.392 1_565 S
C127 H101 0.950 . S
C127 C126 1.392 1_545 S
C127 C128 1.367 . S
C128 H102 0.950 . S
C128 C123 1.386 1_545 S
C128 C127 1.367 . S
C129 C123 1.483 . S
C129 C130 1.382 . S
C129 C131 1.403 1_565 S
C130 H103 0.950 . S
C130 C116 1.411 . S
C130 C129 1.382 . S
C131 C115 1.411 . S
C131 C129 1.403 1_545 S
C131 C132 1.489 . S
C132 C131 1.489 . S
C132 C133 1.383 1_545 S
C132 C137 1.382 . S
C133 H104 0.950 . S
C133 C132 1.383 1_565 S
C133 C134 1.395 . S
C134 H105 0.950 . S
C134 C133 1.395 . S
C134 C135 1.288 1_565 S
C135 C134 1.288 1_545 S
C135 C136 1.392 . S
C136 H106 0.951 . S
C136 C135 1.392 . S
C136 C137 1.392 . S
C137 H107 0.949 . S
C137 C132 1.382 . S
C137 C136 1.392 . S
H138 C157 0.949 . S
H139 C158 0.950 . S
H140 C160 0.950 . S
H141 C161 0.950 . S
H142 C163 0.950 . S
H143 C166 0.950 . S
H144 C167 0.950 . S
H145 C169 0.951 . S
H146 C170 0.949 . S
H147 C172 0.949 . S
H148 C173 0.950 . S
H149 C175 0.950 . S
H150 C176 0.950 . S
H151 C178 0.950 . S
H152 C181 0.950 . S
H153 C182 0.950 . S
H154 C184 0.951 . S
H155 C185 0.949 . S
C156 C157 1.376 . S
C156 C161 1.386 . S
C156 C162 1.483 . S
C157 H138 0.949 . S
C157 C156 1.376 . S
C157 C158 1.397 . S
C158 H139 0.950 . S
C158 C157 1.397 . S
C158 C159 1.391 . S
C159 C158 1.391 . S
C159 C160 1.405 . S
C160 H140 0.950 . S
C160 C159 1.405 . S
C160 C161 1.367 . S
C161 H141 0.950 . S
C161 C156 1.386 . S
C161 C160 1.367 . S
C162 C156 1.483 . S
C162 C163 1.382 . S
C162 C164 1.403 . S
C163 H142 0.950 . S
C163 C162 1.382 . S
C163 C179 1.411 . S
C164 C162 1.403 . S
C164 C165 1.489 . S
C164 C178 1.411 . S
C165 C164 1.489 . S
C165 C166 1.383 . S
C165 C170 1.382 . S
C166 H143 0.950 . S
C166 C165 1.383 . S
C166 C167 1.395 . S
C167 H144 0.950 . S
C167 C166 1.395 . S
C167 C168 1.288 . S
C168 C167 1.288 . S
C168 C169 1.392 . S
C169 H145 0.951 . S
C169 C168 1.392 . S
C169 C170 1.392 . S
C170 H146 0.949 . S
C170 C165 1.382 . S
C170 C169 1.392 . S
C171 C172 1.376 . S
C171 C176 1.386 . S
C171 C177 1.483 . S
C172 H147 0.949 . S
C172 C171 1.376 . S
C172 C173 1.397 . S
C173 H148 0.950 . S
C173 C172 1.397 . S
C173 C174 1.391 . S
C174 C173 1.391 . S
C174 C175 1.405 . S
C175 H149 0.950 . S
C175 C174 1.405 . S
C175 C176 1.367 . S
C176 H150 0.950 . S
C176 C171 1.386 . S
C176 C175 1.367 . S
C177 C171 1.483 . S
C177 C178 1.382 . S
C177 C179 1.403 . S
C178 H151 0.950 . S
C178 C164 1.411 . S
C178 C177 1.382 . S
C179 C163 1.411 . S
C179 C177 1.403 . S
C179 C180 1.489 . S
C180 C179 1.489 . S
C180 C181 1.383 . S
C180 C185 1.382 . S
C181 H152 0.950 . S
C181 C180 1.383 . S
C181 C182 1.395 . S
C182 H153 0.950 . S
C182 C181 1.395 . S
C182 C183 1.288 . S
C183 C182 1.288 . S
C183 C184 1.392 . S
C184 H154 0.951 . S
C184 C183 1.392 . S
C184 C185 1.392 . S
C185 H155 0.949 . S
C185 C180 1.382 . S
C185 C184 1.392 . S
C186 C187 1.396 . S
C186 C188 1.394 . S
C186 H202 0.931 . S
C187 C186 1.396 . S
C187 C191 1.365 1_455 S
C188 C186 1.394 . S
C188 C189 1.366 1_455 S
C188 C192 1.531 . S
C189 C188 1.366 1_655 S
C189 C190 1.411 . S
C189 C197 1.503 . S
C190 C189 1.411 . S
C190 C191 1.392 . S
C190 C193 1.511 . S
C191 C187 1.365 1_655 S
C191 C190 1.392 . S
C191 H203 0.929 . S
C192 C188 1.531 . S
C192 H204 0.960 . S
C192 H205 0.962 . S
C192 H206 0.960 . S
C193 C190 1.511 . S
C193 H207 0.961 . S
C193 H208 0.961 . S
C193 H209 0.961 . S
C194 C195 1.370 1_455 S
C194 C196 1.363 . S
C194 H210 0.931 . S
C195 C194 1.370 1_655 S
C195 C199 1.409 . S
C196 C194 1.363 . S
C196 C197 1.370 1_455 S
C196 C200 1.524 . S
C197 C189 1.503 . S
C197 C196 1.370 1_655 S
C197 C198 1.405 . S
C198 C197 1.405 . S
C198 C199 1.404 . S
C198 C201 1.539 . S
C199 C195 1.409 . S
C199 C198 1.404 . S
C199 H211 0.930 . S
C200 C196 1.524 . S
C200 H212 0.956 . S
C200 H213 0.961 1_455 S
C200 H214 0.961 . S
C201 C198 1.539 . S
C201 H215 0.958 1_655 S
C201 H216 0.961 . S
C201 H217 0.960 . S
H202 C186 0.931 . S
H203 C191 0.929 . S
H204 C192 0.960 . S
H205 C192 0.962 . S
H206 C192 0.960 . S
H207 C193 0.961 . S
H208 C193 0.961 . S
H209 C193 0.961 . S
H210 C194 0.931 . S
H211 C199 0.930 . S
H212 C200 0.956 . S
H213 C200 0.961 1_655 S
H214 C200 0.961 . S
H215 C201 0.958 1_455 S
H216 C201 0.961 . S
H217 C201 0.960 . S
C218 C219 1.391 1_565 S
C218 C220 1.394 . S
C218 H234 0.931 . S
C219 C218 1.391 1_545 S
C219 C223 1.376 . S
C220 C218 1.394 . S
C220 C221 1.369 1_565 S
C220 C224 1.531 . S
C221 C220 1.369 1_545 S
C221 C222 1.410 . S
C221 C229 1.503 . S
C222 C221 1.410 . S
C222 C223 1.392 . S
C222 C225 1.511 . S
C223 C219 1.376 . S
C223 C222 1.392 . S
C223 H235 0.929 . S
C224 C220 1.531 . S
C224 H236 0.960 . S
C224 H237 0.962 . S
C224 H238 0.960 . S
C225 C222 1.511 . S
C225 H239 0.961 . S
C225 H240 0.961 . S
C225 H241 0.961 . S
C226 C227 1.370 1_565 S
C226 C228 1.359 . S
C226 H242 0.931 . S
C227 C226 1.370 1_545 S
C227 C231 1.408 . S
C228 C226 1.359 . S
C228 C229 1.375 1_565 S
C228 C232 1.524 . S
C229 C221 1.503 . S
C229 C228 1.375 1_545 S
C229 C230 1.403 . S
C230 C229 1.403 . S
C230 C231 1.404 . S
C230 C233 1.539 . S
C231 C227 1.408 . S
C231 C230 1.404 . S
C231 H243 0.930 . S
C232 C228 1.524 . S
C232 H244 0.956 . S
C232 H245 0.961 1_565 S
C232 H246 0.964 . S
C233 C230 1.539 . S
C233 H247 0.958 1_545 S
C233 H248 0.961 . S
C233 H249 0.960 . S
H234 C218 0.931 . S
H235 C223 0.929 . S
H236 C224 0.960 . S
H237 C224 0.962 . S
H238 C224 0.960 . S
H239 C225 0.961 . S
H240 C225 0.961 . S
H241 C225 0.961 . S
H242 C226 0.931 . S
H243 C231 0.930 . S
H244 C232 0.956 . S
H245 C232 0.961 1_545 S
H246 C232 0.964 . S
H247 C233 0.958 1_565 S
H248 C233 0.961 . S
H249 C233 0.960 . S
C250 C251 1.391 . S
C250 C252 1.394 . S
C250 H266 0.931 . S
C251 C250 1.391 . S
C251 C255 1.376 . S
C252 C250 1.394 . S
C252 C253 1.369 . S
C252 C256 1.531 . S
C253 C252 1.369 . S
C253 C254 1.410 . S
C253 C261 1.503 . S
C254 C253 1.410 . S
C254 C255 1.392 . S
C254 C257 1.511 . S
C255 C251 1.376 . S
C255 C254 1.392 . S
C255 H267 0.929 . S
C256 C252 1.531 . S
C256 H268 0.960 . S
C256 H269 0.962 . S
C256 H270 0.960 . S
C257 C254 1.511 . S
C257 H271 0.961 . S
C257 H272 0.961 . S
C257 H273 0.961 . S
C258 C259 1.370 . S
C258 C260 1.363 . S
C258 H274 0.931 . S
C259 C258 1.370 . S
C259 C263 1.408 . S
C260 C258 1.363 . S
C260 C261 1.370 . S
C260 C264 1.524 . S
C261 C253 1.503 . S
C261 C260 1.370 . S
C261 C262 1.403 . S
C262 C261 1.403 . S
C262 C263 1.404 . S
C262 C265 1.539 . S
C263 C259 1.408 . S
C263 C262 1.404 . S
C263 H275 0.930 . S
C264 C260 1.524 . S
C264 H276 0.956 . S
C264 H277 0.961 . S
C264 H278 0.961 . S
C265 C262 1.539 . S
C265 H279 0.958 . S
C265 H280 0.961 . S
C265 H281 0.960 . S
H266 C250 0.931 . S
H267 C255 0.929 . S
H268 C256 0.960 . S
H269 C256 0.962 . S
H270 C256 0.960 . S
H271 C257 0.961 . S
H272 C257 0.961 . S
H273 C257 0.961 . S
H274 C258 0.931 . S
H275 C263 0.930 . S
H276 C264 0.956 . S
H277 C264 0.961 . S
H278 C264 0.961 . S
H279 C265 0.958 . S
H280 C265 0.961 . S
H281 C265 0.960 . S
C282 C283 1.391 1_455 S
C282 C284 1.394 . S
C282 H298 0.931 . S
C283 C282 1.391 1_655 S
C283 C287 1.376 . S
C284 C282 1.394 . S
C284 C285 1.369 1_455 S
C284 C288 1.531 . S
C285 C284 1.369 1_655 S
C285 C286 1.410 . S
C285 C293 1.503 . S
C286 C285 1.410 . S
C286 C287 1.392 . S
C286 C289 1.511 . S
C287 C283 1.376 . S
C287 C286 1.392 . S
C287 H299 0.929 . S
C288 C284 1.531 . S
C288 H300 0.960 . S
C288 H301 0.962 . S
C288 H302 0.960 . S
C289 C286 1.511 . S
C289 H303 0.961 . S
C289 H304 0.961 . S
C289 H305 0.961 . S
C290 C291 1.361 1_455 S
C290 C292 1.363 . S
C290 H306 0.931 . S
C291 C290 1.361 1_655 S
C291 C295 1.428 . S
C292 C290 1.363 . S
C292 C293 1.370 1_455 S
C292 C296 1.524 . S
C293 C285 1.503 . S
C293 C292 1.370 1_655 S
C293 C294 1.403 . S
C294 C293 1.403 . S
C294 C295 1.404 . S
C294 C297 1.539 . S
C295 C291 1.428 . S
C295 C294 1.404 . S
C295 H307 0.930 . S
C296 C292 1.524 . S
C296 H308 0.956 . S
C296 H309 0.961 . S
C296 H310 0.961 . S
C297 C294 1.539 . S
C297 H311 0.958 . S
C297 H312 0.961 . S
C297 H313 0.960 . S
H298 C282 0.931 . S
H299 C287 0.929 . S
H300 C288 0.960 . S
H301 C288 0.962 . S
H302 C288 0.960 . S
H303 C289 0.961 . S
H304 C289 0.961 . S
H305 C289 0.961 . S
H306 C290 0.931 . S
H307 C295 0.930 . S
H308 C296 0.956 . S
H309 C296 0.961 . S
H310 C296 0.961 . S
H311 C297 0.958 . S
H312 C297 0.961 . S
H313 C297 0.960 . S
C314 C315 1.391 1_545 S
C314 C316 1.394 . S
C314 H330 0.931 . S
C315 C314 1.391 1_565 S
C315 C319 1.376 . S
C316 C314 1.394 . S
C316 C317 1.369 1_545 S
C316 C320 1.531 . S
C317 C316 1.369 1_565 S
C317 C318 1.410 . S
C317 C325 1.503 . S
C318 C317 1.410 . S
C318 C319 1.392 . S
C318 C321 1.511 . S
C319 C315 1.376 . S
C319 C318 1.392 . S
C319 H331 0.929 . S
C320 C316 1.531 . S
C320 H332 0.960 . S
C320 H333 0.962 . S
C320 H334 0.960 . S
C321 C318 1.511 . S
C321 H335 0.961 . S
C321 H336 0.961 . S
C321 H337 0.961 . S
C322 C323 1.366 1_545 S
C322 C324 1.363 . S
C322 H338 0.931 . S
C323 C322 1.366 1_565 S
C323 C327 1.406 . S
C324 C322 1.363 . S
C324 C325 1.370 1_545 S
C324 C328 1.524 . S
C325 C317 1.503 . S
C325 C324 1.370 1_565 S
C325 C326 1.403 . S
C326 C325 1.403 . S
C326 C327 1.404 . S
C326 C329 1.539 . S
C327 C323 1.406 . S
C327 C326 1.404 . S
C327 H339 0.930 . S
C328 C324 1.524 . S
C328 H340 0.956 . S
C328 H341 0.961 . S
C328 H342 0.961 . S
C329 C326 1.539 . S
C329 H343 0.958 . S
C329 H344 0.961 . S
C329 H345 0.960 . S
H330 C314 0.931 . S
H331 C319 0.929 . S
H332 C320 0.960 . S
H333 C320 0.962 . S
H334 C320 0.960 . S
H335 C321 0.961 . S
H336 C321 0.961 . S
H337 C321 0.961 . S
H338 C322 0.931 . S
H339 C327 0.930 . S
H340 C328 0.956 . S
H341 C328 0.961 . S
H342 C328 0.961 . S
H343 C329 0.958 . S
H344 C329 0.961 . S
H345 C329 0.960 . S
C346 C347 1.391 . S
C346 C348 1.394 . S
C346 H362 0.931 . S
C347 C346 1.391 . S
C347 C351 1.376 . S
C348 C346 1.394 . S
C348 C349 1.369 . S
C348 C352 1.531 . S
C349 C348 1.369 . S
C349 C350 1.410 . S
C349 C357 1.503 . S
C350 C349 1.410 . S
C350 C351 1.392 . S
C350 C353 1.511 . S
C351 C347 1.376 . S
C351 C350 1.392 . S
C351 H363 0.929 . S
C352 C348 1.531 . S
C352 H364 0.960 . S
C352 H365 0.962 . S
C352 H366 0.960 . S
C353 C350 1.511 . S
C353 H367 0.961 . S
C353 H368 0.961 . S
C353 H369 0.961 . S
C354 C355 1.370 . S
C354 C356 1.363 . S
C354 H370 0.931 . S
C355 C354 1.370 . S
C355 C359 1.408 . S
C356 C354 1.363 . S
C356 C357 1.370 . S
C356 C360 1.524 . S
C357 C349 1.503 . S
C357 C356 1.370 . S
C357 C358 1.403 . S
C358 C357 1.403 . S
C358 C359 1.404 . S
C358 C361 1.539 . S
C359 C355 1.408 . S
C359 C358 1.404 . S
C359 H371 0.930 . S
C360 C356 1.524 . S
C360 H372 0.956 . S
C360 H373 0.961 . S
C360 H374 0.961 . S
C361 C358 1.539 . S
C361 H375 0.958 . S
C361 H376 0.961 . S
C361 H377 0.960 . S
H362 C346 0.931 . S
H363 C351 0.929 . S
H364 C352 0.960 . S
H365 C352 0.962 . S
H366 C352 0.960 . S
H367 C353 0.961 . S
H368 C353 0.961 . S
H369 C353 0.961 . S
H370 C354 0.931 . S
H371 C359 0.930 . S
H372 C360 0.956 . S
H373 C360 0.961 . S
H374 C360 0.961 . S
H375 C361 0.958 . S
H376 C361 0.961 . S
H377 C361 0.960 . S
C378 C379 1.391 1_545 S
C378 C380 1.394 . S
C378 H394 0.931 . S
C379 C378 1.391 1_565 S
C379 C383 1.376 . S
C380 C378 1.394 . S
C380 C381 1.369 1_545 S
C380 C384 1.531 . S
C381 C380 1.369 1_565 S
C381 C382 1.410 . S
C381 C389 1.503 . S
C382 C381 1.410 . S
C382 C383 1.392 . S
C382 C385 1.511 . S
C383 C379 1.376 . S
C383 C382 1.392 . S
C383 H395 0.929 . S
C384 C380 1.531 . S
C384 H396 0.960 . S
C384 H397 0.962 . S
C384 H398 0.960 . S
C385 C382 1.511 . S
C385 H399 0.961 . S
C385 H400 0.961 . S
C385 H401 0.961 . S
C386 C387 1.370 1_545 S
C386 C388 1.363 . S
C386 H402 0.931 . S
C387 C386 1.370 1_565 S
C387 C391 1.408 . S
C388 C386 1.363 . S
C388 C389 1.370 1_545 S
C388 C392 1.524 . S
C389 C381 1.503 . S
C389 C388 1.370 1_565 S
C389 C390 1.403 . S
C390 C389 1.403 . S
C390 C391 1.404 . S
C390 C393 1.539 . S
C391 C387 1.408 . S
C391 C390 1.404 . S
C391 H403 0.930 . S
C392 C388 1.524 . S
C392 H404 0.956 . S
C392 H405 0.961 . S
C392 H406 0.961 . S
C393 C390 1.539 . S
C393 H407 0.958 . S
C393 H408 0.961 . S
C393 H409 0.960 . S
H394 C378 0.931 . S
H395 C383 0.929 . S
H396 C384 0.960 . S
H397 C384 0.962 . S
H398 C384 0.960 . S
H399 C385 0.961 . S
H400 C385 0.961 . S
H401 C385 0.961 . S
H402 C386 0.931 . S
H403 C391 0.930 . S
H404 C392 0.956 . S
H405 C392 0.961 . S
H406 C392 0.961 . S
H407 C393 0.958 . S
H408 C393 0.961 . S
H409 C393 0.960 . S
C410 C411 1.391 . S
C410 C412 1.428 . S
C410 H426 0.931 . S
C411 C410 1.391 . S
C411 C415 1.376 . S
C412 C410 1.428 . S
C412 C413 1.354 1_554 S
C412 C416 1.512 1_554 S
C413 C412 1.354 1_556 S
C413 C414 1.410 1_556 S
C413 C421 1.503 . S
C414 C413 1.410 1_554 S
C414 C415 1.392 . S
C414 C417 1.511 1_554 S
C415 C411 1.376 . S
C415 C414 1.392 . S
C415 H427 0.929 . S
C416 C412 1.512 1_556 S
C416 H428 0.960 . S
C416 H429 0.962 1_556 S
C416 H430 0.960 . S
C417 C414 1.511 1_556 S
C417 H431 0.961 1_556 S
C417 H432 0.961 . S
C417 H433 0.961 . S
C418 C419 1.370 . S
C418 C420 1.363 . S
C418 H434 0.931 . S
C419 C418 1.370 . S
C419 C423 1.408 . S
C420 C418 1.363 . S
C420 C421 1.370 . S
C420 C424 1.524 1_556 S
C421 C413 1.503 . S
C421 C420 1.370 . S
C421 C422 1.403 . S
C422 C421 1.403 . S
C422 C423 1.404 . S
C422 C425 1.539 . S
C423 C419 1.408 . S
C423 C422 1.404 . S
C423 H435 0.930 . S
C424 C420 1.524 1_554 S
C424 H436 0.956 . S
C424 H437 0.961 . S
C424 H438 0.961 . S
C425 C422 1.539 . S
C425 H439 0.958 . S
C425 H440 0.961 . S
C425 H441 0.960 . S
H426 C410 0.931 . S
H427 C415 0.929 . S
H428 C416 0.960 . S
H429 C416 0.962 1_554 S
H430 C416 0.960 . S
H431 C417 0.961 1_554 S
H432 C417 0.961 . S
H433 C417 0.961 . S
H434 C418 0.931 . S
H435 C423 0.930 . S
H436 C424 0.956 . S
H437 C424 0.961 . S
H438 C424 0.961 . S
H439 C425 0.958 . S
H440 C425 0.961 . S
H441 C425 0.960 . S
C442 C443 1.391 . S
C442 C444 1.394 . S
C442 H458 0.931 . S
C443 C442 1.391 . S
C443 C447 1.376 1_455 S
C444 C442 1.394 . S
C444 C445 1.369 . S
C444 C448 1.531 . S
C445 C444 1.369 . S
C445 C446 1.410 1_455 S
C445 C453 1.503 . S
C446 C445 1.410 1_655 S
C446 C447 1.392 . S
C446 C449 1.511 . S
C447 C443 1.376 1_655 S
C447 C446 1.392 . S
C447 H459 0.929 . S
C448 C444 1.531 . S
C448 H460 0.960 . S
C448 H461 0.962 . S
C448 H462 0.960 . S
C449 C446 1.511 . S
C449 H463 0.961 . S
C449 H464 0.961 . S
C449 H465 0.961 1_655 S
C450 C451 1.370 1_655 S
C450 C452 1.363 . S
C450 H466 0.931 . S
C451 C450 1.370 1_455 S
C451 C455 1.408 . S
C452 C450 1.363 . S
C452 C453 1.370 1_655 S
C452 C456 1.524 . S
C453 C445 1.503 . S
C453 C452 1.370 1_455 S
C453 C454 1.403 . S
C454 C453 1.403 . S
C454 C455 1.404 . S
C454 C457 1.539 . S
C455 C451 1.408 . S
C455 C454 1.404 . S
C455 H467 0.930 . S
C456 C452 1.524 . S
C456 H468 0.956 . S
C456 H469 0.961 . S
C456 H470 0.961 . S
C457 C454 1.539 . S
C457 H471 0.958 . S
C457 H472 0.961 . S
C457 H473 0.960 . S
H458 C442 0.931 . S
H459 C447 0.929 . S
H460 C448 0.960 . S
H461 C448 0.962 . S
H462 C448 0.960 . S
H463 C449 0.961 . S
H464 C449 0.961 . S
H465 C449 0.961 1_455 S
H466 C450 0.931 . S
H467 C455 0.930 . S
H468 C456 0.956 . S
H469 C456 0.961 . S
H470 C456 0.961 . S
H471 C457 0.958 . S
H472 C457 0.961 . S
H473 C457 0.960 . S
C474 C475 1.391 1_565 S
C474 C476 1.394 . S
C474 H490 0.931 . S
C475 C474 1.391 1_545 S
C475 C479 1.376 . S
C476 C474 1.394 . S
C476 C477 1.369 1_565 S
C476 C480 1.531 . S
C477 C476 1.369 1_545 S
C477 C478 1.410 . S
C477 C485 1.503 . S
C478 C477 1.410 . S
C478 C479 1.392 . S
C478 C481 1.511 . S
C479 C475 1.376 . S
C479 C478 1.392 . S
C479 H491 0.929 . S
C480 C476 1.531 . S
C480 H492 0.960 . S
C480 H493 0.962 . S
C480 H494 0.960 . S
C481 C478 1.511 . S
C481 H495 0.961 . S
C481 H496 0.961 . S
C481 H497 0.961 . S
C482 C483 1.370 . S
C482 C484 1.363 . S
C482 H498 0.925 1_545 S
C483 C482 1.370 . S
C483 C487 1.408 . S
C484 C482 1.363 . S
C484 C485 1.370 . S
C484 C488 1.524 . S
C485 C477 1.503 . S
C485 C484 1.370 . S
C485 C486 1.403 . S
C486 C485 1.403 . S
C486 C487 1.404 . S
C486 C489 1.539 . S
C487 C483 1.408 . S
C487 C486 1.404 . S
C487 H499 0.930 . S
C488 C484 1.524 . S
C488 H500 0.956 1_545 S
C488 H501 0.961 . S
C488 H502 0.961 . S
C489 C486 1.539 . S
C489 H503 0.958 1_545 S
C489 H504 0.961 . S
C489 H505 0.960 . S
H490 C474 0.931 . S
H491 C479 0.929 . S
H492 C480 0.960 . S
H493 C480 0.962 . S
H494 C480 0.960 . S
H495 C481 0.961 . S
H496 C481 0.961 . S
H497 C481 0.961 . S
H498 C482 0.925 1_565 S
H499 C487 0.930 . S
H500 C488 0.956 1_565 S
H501 C488 0.961 . S
H502 C488 0.961 . S
H503 C489 0.958 1_565 S
H504 C489 0.961 . S
H505 C489 0.960 . S
C506 C507 1.391 . S
C506 C508 1.394 . S
C506 H522 0.931 . S
C507 C506 1.391 . S
C507 C511 1.376 . S
C508 C506 1.394 . S
C508 C509 1.369 . S
C508 C512 1.531 . S
C509 C508 1.369 . S
C509 C510 1.414 . S
C509 C517 1.503 1_554 S
C510 C509 1.414 . S
C510 C511 1.420 . S
C510 C513 1.482 1_554 S
C511 C507 1.376 . S
C511 C510 1.420 . S
C511 H523 0.929 . S
C512 C508 1.531 . S
C512 H524 0.960 . S
C512 H525 0.962 . S
C512 H526 0.960 . S
C513 C510 1.482 1_556 S
C513 H527 0.961 . S
C513 H528 0.961 . S
C513 H529 0.961 . S
C514 C515 1.370 . S
C514 C516 1.363 . S
C514 H530 0.931 . S
C515 C514 1.370 . S
C515 C519 1.408 . S
C516 C514 1.363 . S
C516 C517 1.370 . S
C516 C520 1.524 . S
C517 C509 1.503 1_556 S
C517 C516 1.370 . S
C517 C518 1.403 . S
C518 C517 1.403 . S
C518 C519 1.404 . S
C518 C521 1.539 1_556 S
C519 C515 1.408 . S
C519 C518 1.404 . S
C519 H531 0.930 . S
C520 C516 1.524 . S
C520 H532 0.956 . S
C520 H533 0.961 . S
C520 H534 0.961 . S
C521 C518 1.539 1_554 S
C521 H535 0.958 . S
C521 H536 0.961 . S
C521 H537 0.960 . S
H522 C506 0.931 . S
H523 C511 0.929 . S
H524 C512 0.960 . S
H525 C512 0.962 . S
H526 C512 0.960 . S
H527 C513 0.961 . S
H528 C513 0.961 . S
H529 C513 0.961 . S
H530 C514 0.931 . S
H531 C519 0.930 . S
H532 C520 0.956 . S
H533 C520 0.961 . S
H534 C520 0.961 . S
H535 C521 0.958 . S
H536 C521 0.961 . S
H537 C521 0.960 . S
C538 C539 1.391 1_455 S
C538 C540 1.394 . S
C538 H554 0.931 . S
C539 C538 1.391 1_655 S
C539 C543 1.376 . S
C540 C538 1.394 . S
C540 C541 1.369 . S
C540 C544 1.531 . S
C541 C540 1.369 . S
C541 C542 1.410 1_455 S
C541 C549 1.503 . S
C542 C541 1.410 1_655 S
C542 C543 1.392 . S
C542 C545 1.511 . S
C543 C539 1.376 . S
C543 C542 1.392 . S
C543 H555 0.929 . S
C544 C540 1.531 . S
C544 H556 0.960 . S
C544 H557 0.962 . S
C544 H558 0.960 . S
C545 C542 1.511 . S
C545 H559 0.961 . S
C545 H560 0.961 . S
C545 H561 0.961 . S
C546 C547 1.366 1_655 S
C546 C548 1.363 . S
C546 H562 0.931 . S
C547 C546 1.366 1_455 S
C547 C551 1.418 . S
C548 C546 1.363 . S
C548 C549 1.370 1_655 S
C548 C552 1.524 . S
C549 C541 1.503 . S
C549 C548 1.370 1_455 S
C549 C550 1.403 . S
C550 C549 1.403 . S
C550 C551 1.404 . S
C550 C553 1.539 . S
C551 C547 1.418 . S
C551 C550 1.404 . S
C551 H563 0.930 . S
C552 C548 1.524 . S
C552 H564 0.956 . S
C552 H565 0.961 . S
C552 H566 0.961 . S
C553 C550 1.539 . S
C553 H567 0.958 . S
C553 H568 0.961 . S
C553 H569 0.960 . S
H554 C538 0.931 . S
H555 C543 0.929 . S
H556 C544 0.960 . S
H557 C544 0.962 . S
H558 C544 0.960 . S
H559 C545 0.961 . S
H560 C545 0.961 . S
H561 C545 0.961 . S
H562 C546 0.931 . S
H563 C551 0.930 . S
H564 C552 0.956 . S
H565 C552 0.961 . S
H566 C552 0.961 . S
H567 C553 0.958 . S
H568 C553 0.961 . S
H569 C553 0.960 . S
C195 C63 1.499 1_655 S
C187 C6 1.457 1_455 S
C219 C22 1.603 . S
C227 C111 1.624 . S
C251 C34 1.237 . S
C259 C183 1.273 . S
C283 C7 1.491 1_655 S
C291 C87 1.484 1_655 S
C323 C135 1.628 1_565 S
C315 C23 1.597 . S
C347 C35 1.231 . S
C355 C159 1.281 . S
C387 C120 1.613 . S
C379 C36 1.595 . S
C411 C9 1.822 . S
C419 C174 1.854 . S
C451 C78 1.496 1_455 S
C443 C21 1.472 1_455 S
C483 C126 1.614 1_545 S
C475 C37 1.608 . S
C515 C168 1.851 . S
C507 C8 1.814 . S
C539 C20 1.472 1_655 S
C547 C72 1.485 1_455 S
