# Generated by pormake.
# Topology zzz, (3,6)-cn, num edge types: 1
# Building blocks:
#     Node 0, Type 0, BuildingBlock: PAMTOO_clean_linker_0, # of connection points: 3
#     Node 1, Type 0, BuildingBlock: PAMTOO_clean_linker_0, # of connection points: 3
#     Node 2, Type 0, BuildingBlock: PAMTOO_clean_linker_0, # of connection points: 3
#     Node 3, Type 0, BuildingBlock: PAMTOO_clean_linker_0, # of connection points: 3
#     Node 4, Type 0, BuildingBlock: PAMTOO_clean_linker_0, # of connection points: 3
#     Node 5, Type 0, BuildingBlock: PAMTOO_clean_linker_0, # of connection points: 3
#     Node 6, Type 0, BuildingBlock: PAMTOO_clean_linker_0, # of connection points: 3
#     Node 7, Type 0, BuildingBlock: PAMTOO_clean_linker_0, # of connection points: 3
#     Node 8, Type 1, BuildingBlock: KUMBOL_clean_sbu_1, # of connection points: 6
#     Node 9, Type 1, BuildingBlock: KUMBOL_clean_sbu_1, # of connection points: 6
#     Node 10, Type 1, BuildingBlock: KUMBOL_clean_sbu_1, # of connection points: 6
#     Node 11, Type 1, BuildingBlock: KUMBOL_clean_sbu_1, # of connection points: 6
#     Edge 12, Type (0, 1), BuildingBlock: OJICUG_clean_linker_0, # of connection points: 2
#     Edge 13, Type (0, 1), BuildingBlock: OJICUG_clean_linker_0, # of connection points: 2
#     Edge 14, Type (0, 1), BuildingBlock: OJICUG_clean_linker_0, # of connection points: 2
#     Edge 15, Type (0, 1), BuildingBlock: OJICUG_clean_linker_0, # of connection points: 2
#     Edge 16, Type (0, 1), BuildingBlock: OJICUG_clean_linker_0, # of connection points: 2
#     Edge 17, Type (0, 1), BuildingBlock: OJICUG_clean_linker_0, # of connection points: 2
#     Edge 18, Type (0, 1), BuildingBlock: OJICUG_clean_linker_0, # of connection points: 2
#     Edge 19, Type (0, 1), BuildingBlock: OJICUG_clean_linker_0, # of connection points: 2
#     Edge 20, Type (0, 1), BuildingBlock: OJICUG_clean_linker_0, # of connection points: 2
#     Edge 21, Type (0, 1), BuildingBlock: OJICUG_clean_linker_0, # of connection points: 2
#     Edge 22, Type (0, 1), BuildingBlock: OJICUG_clean_linker_0, # of connection points: 2
#     Edge 23, Type (0, 1), BuildingBlock: OJICUG_clean_linker_0, # of connection points: 2
#     Edge 24, Type (0, 1), BuildingBlock: OJICUG_clean_linker_0, # of connection points: 2
#     Edge 25, Type (0, 1), BuildingBlock: OJICUG_clean_linker_0, # of connection points: 2
#     Edge 26, Type (0, 1), BuildingBlock: OJICUG_clean_linker_0, # of connection points: 2
#     Edge 27, Type (0, 1), BuildingBlock: OJICUG_clean_linker_0, # of connection points: 2
#     Edge 28, Type (0, 1), BuildingBlock: OJICUG_clean_linker_0, # of connection points: 2
#     Edge 29, Type (0, 1), BuildingBlock: OJICUG_clean_linker_0, # of connection points: 2
#     Edge 30, Type (0, 1), BuildingBlock: OJICUG_clean_linker_0, # of connection points: 2
#     Edge 31, Type (0, 1), BuildingBlock: OJICUG_clean_linker_0, # of connection points: 2
#     Edge 32, Type (0, 1), BuildingBlock: OJICUG_clean_linker_0, # of connection points: 2
#     Edge 33, Type (0, 1), BuildingBlock: OJICUG_clean_linker_0, # of connection points: 2
#     Edge 34, Type (0, 1), BuildingBlock: OJICUG_clean_linker_0, # of connection points: 2
#     Edge 35, Type (0, 1), BuildingBlock: OJICUG_clean_linker_0, # of connection points: 2
# Relax obj value: 0.241
# Max RMSD: 0.127
# Mean RMSD: 0.084
data_MOF--net-zzz--node1-KUMBOL_clean_sbu_1--node2-PAMTOO_clean_linker_0--edge1-OJICUG_clean_linker_0
_symmetry_space_group_name_H-M    P1
_symmetry_Int_Tables_number       1
_symmetry_cell_setting            triclinic
loop_
_symmetry_equiv_pos_as_xyz
'x, y, z'
_cell_length_a     35.952854
_cell_length_b     35.974768
_cell_length_c     11.461237
_cell_angle_alpha  89.736614
_cell_angle_beta   90.525174
_cell_angle_gamma 90.273142
loop_
_atom_site_label
_atom_site_type_symbol
_atom_site_fract_x
_atom_site_fract_y
_atom_site_fract_z
_atom_type_partial_charge
H0 H 0.85464 0.469 0.34897 0.0
H1 H 0.75265 0.49318 0.17096 0.0
H2 H 0.78597 0.55919 0.4675 0.0
H3 H 0.68473 0.5566 0.37436 0.0
C4 C 0.69684 0.53914 0.30469 0.0
O5 O 0.7342 0.54978 0.291 0.0
H6 H 0.69504 0.51003 0.33772 0.0
C7 C 0.8289 0.48452 0.3463 0.0
C8 C 0.82374 0.51361 0.42604 0.0
C9 C 0.80336 0.47668 0.25634 0.0
C10 C 0.77163 0.49845 0.24291 0.0
C11 C 0.76441 0.52785 0.31802 0.0
C12 C 0.79074 0.5358 0.4106 0.0
H13 H 0.10499 0.85201 0.38049 0.0
H14 H 0.0814 0.75104 0.19832 0.0
H15 H 1.00917 0.78599 0.47469 0.0
H16 H 1.01064 0.68445 0.37522 0.0
C17 C 0.02948 0.69697 0.3094 0.0
O18 O 1.02058 0.7349 0.29867 0.0
H19 H 0.05802 0.69371 0.34644 0.0
C20 C 0.08861 0.82676 0.37381 0.0
C21 C 0.0575 0.82221 0.44637 0.0
C22 C 0.0976 0.80128 0.286 0.0
C23 C 0.07501 0.77022 0.26773 0.0
C24 C 0.04325 0.76392 0.33362 0.0
C25 C 0.03417 0.79014 0.42432 0.0
H26 H 0.72235 0.1025 0.40406 0.0
H27 H 0.82066 0.0813 0.20661 0.0
H28 H 0.78183 0.99995 0.45566 0.0
H29 H 0.88029 0.99828 0.38064 0.0
C30 C 0.8723 1.0209 0.31938 0.0
O31 O 0.83451 1.01649 0.2912 0.0
H32 H 0.87685 0.04725 0.36826 0.0
C33 C 0.74644 0.08525 0.38843 0.0
C34 C 0.74887 0.0508 0.44572 0.0
C35 C 0.77183 0.09636 0.30252 0.0
C36 C 0.80166 0.07326 0.27522 0.0
C37 C 0.80639 0.03889 0.3307 0.0
C38 C 0.77942 1.02715 0.41566 0.0
H39 H 0.46316 0.70811 0.32624 0.0
H40 H 0.48143 0.8113 0.14954 0.0
H41 H 0.54517 0.78547 0.46033 0.0
H42 H 0.51955 0.88352 0.37417 0.0
C43 C 0.51466 0.87148 0.28673 0.0
O44 O 0.53269 0.83684 0.28283 0.0
H45 H 0.48402 0.86764 0.27906 0.0
C46 C 0.47691 0.73498 0.32508 0.0
C47 C 0.50439 0.74294 0.40964 0.0
C48 C 0.46803 0.75963 0.23396 0.0
C49 C 0.48766 0.79285 0.22211 0.0
C50 C 0.51484 0.80337 0.30311 0.0
C51 C 0.52362 0.77812 0.39807 0.0
H52 H 0.21813 0.59804 0.15694 0.0
H53 H 0.32061 0.56986 0.32384 0.0
H54 H 0.28632 0.51108 1.01361 0.0
H55 H 0.3771 0.5582 0.14694 0.0
C56 C 0.37609 0.52873 0.17707 0.0
O57 O 0.33905 0.51684 0.18904 0.0
H58 H 0.38881 0.51237 0.1059 0.0
C59 C 0.24377 0.58241 0.15424 0.0
C60 C 0.24847 0.5552 0.06779 0.0
C61 C 0.26994 0.58841 0.24363 0.0
C62 C 0.30142 0.56621 0.25156 0.0
C63 C 0.30836 0.53879 0.1694 0.0
C64 C 0.28165 0.53292 0.0763 0.0
H65 H 0.0482 0.20491 0.26044 0.0
H66 H 0.06561 0.31789 0.36628 0.0
H67 H 0.05295 0.29246 1.00096 0.0
H68 H 1.00707 0.35831 0.21015 0.0
C69 C 0.03393 0.37333 0.19806 0.0
O70 O 0.06182 0.34798 0.16724 0.0
H71 H 0.02908 0.39203 0.12219 0.0
C72 C 0.05263 0.23377 0.23615 0.0
C73 C 0.05168 0.24391 0.11728 0.0
C74 C 0.05714 0.26045 0.3248 0.0
C75 C 0.06224 0.29766 0.29699 0.0
C76 C 0.0594 0.31012 0.18296 0.0
C77 C 0.05462 0.28312 0.09074 0.0
H78 H 0.35503 0.1108 0.11251 0.0
H79 H 0.2472 0.11105 0.27397 0.0
H80 H 0.2811 1.01788 0.06769 0.0
H81 H 0.24149 0.04248 0.37888 0.0
C82 C 0.22187 0.02996 0.31423 0.0
O83 O 0.22626 0.04709 0.20499 0.0
H84 H 0.23036 1.00046 0.30482 0.0
C85 C 0.32806 0.09827 0.12744 0.0
C86 C 0.32122 0.0636 0.07588 0.0
C87 C 0.30363 0.11381 0.20986 0.0
C88 C 0.26765 0.09847 0.21802 0.0
C89 C 0.25928 0.0635 0.17166 0.0
C90 C 0.28654 0.04552 0.1008 0.0
H91 H 0.59588 0.35411 0.16859 0.0
H92 H 0.5747 0.24652 0.31239 0.0
H93 H 0.51388 0.28236 1.00547 0.0
H94 H 0.47235 0.20682 0.19891 0.0
C95 C 0.49749 0.21589 0.24779 0.0
O96 O 0.52473 0.22597 0.16659 0.0
H97 H 0.48894 0.24088 0.29773 0.0
C98 C 0.58149 0.32769 0.16047 0.0
C99 C 0.5554 0.32234 0.06969 0.0
C100 C 0.58862 0.30058 0.24581 0.0
C101 C 0.56908 0.26721 0.24547 0.0
C102 C 0.54171 0.26026 0.16171 0.0
C103 C 0.53452 0.28796 0.07248 0.0
C104 C 0.11642 0.09544 1.01562 0.0
C105 C 0.08339 0.10953 0.19382 0.0
C106 C 0.08797 0.08719 0.09382 0.0
C107 C 0.10714 0.14001 0.21326 0.0
C108 C 0.14065 0.12575 0.03618 0.0
C109 C 0.1358 0.14795 0.13517 0.0
N110 N 0.11978 0.07445 0.91766 0.0
C111 C 0.14742 0.08145 0.83915 0.0
C112 C 0.16877 0.13325 0.95556 0.0
C113 C 0.1722 0.11097 0.85687 0.0
Gd114 Gd 0.99871 0.04175 0.67814 0.0
Gd115 Gd 0.07812 1.02426 0.90015 0.0
N116 N 0.06543 0.05714 0.0739 0.0
C117 C 0.05544 0.10027 0.27283 0.0
C118 C 0.04123 0.0458 0.15842 0.0
C119 C 0.03455 0.06806 0.25554 0.0
H120 H 1.02732 1.01931 0.15385 0.0
H121 H 1.01377 0.05994 0.3184 0.0
H122 H 0.04869 1.01201 0.44538 0.0
H123 H 0.15053 0.06396 0.7636 0.0
H124 H 0.04405 0.96453 0.2942 0.0
H125 H 0.05071 0.11701 0.34964 0.0
H126 H 0.10389 0.15735 0.28952 0.0
H127 H 0.91856 0.03502 0.82885 0.0
H128 H 0.18792 0.15624 0.96858 0.0
H129 H 0.19399 0.11647 0.7945 0.0
H130 H 0.92724 0.90445 0.36444 0.0
H131 H 0.15399 0.17146 0.15188 0.0
H132 H 0.85402 0.94634 0.68393 0.0
H133 H 0.86251 0.99566 0.83134 0.0
N134 N 0.94333 1.00664 0.68682 0.0
C135 C 0.93845 0.98073 0.60174 0.0
C136 C 0.91616 1.01256 0.76722 0.0
C137 C 0.87907 0.96318 0.68348 0.0
C138 C 0.88386 0.99083 0.7673 0.0
C139 C 0.9064 0.95793 0.59911 0.0
H140 H 0.87829 0.91268 0.51006 0.0
N141 N 0.99724 0.99798 0.52516 0.0
C142 C 0.96591 0.97659 0.51793 0.0
C143 C 0.99059 0.94467 0.35045 0.0
C144 C 0.96204 0.94902 0.43122 0.0
C145 C 1.02473 0.99425 0.44462 0.0
C146 C 1.02195 0.96747 0.357 0.0
O147 O 0.06948 0.08402 0.83077 0.0
O148 O 1.00711 0.08725 0.81819 0.0
O149 O 0.99894 0.08514 0.5465 0.0
O150 O 0.94672 0.06547 0.61511 0.0
O151 O 1.01869 1.00591 0.95662 0.0
O152 O 0.98359 0.05035 0.86689 0.0
O153 O 1.00958 0.97967 0.7175 0.0
O154 O 0.07143 0.97716 0.76602 0.0
O155 O 0.09159 0.97619 1.00969 0.0
O156 O 0.13458 1.0145 0.95885 0.0
O157 O 0.05796 0.054 0.60499 0.0
O158 O 0.09773 1.01729 0.71475 0.0
C159 C 0.03902 0.10346 0.84503 0.0
C160 C 0.98763 1.02564 0.95024 0.0
C161 C 0.95723 0.12983 0.61674 0.0
C162 C 0.98574 0.18923 0.66528 0.0
C163 C 0.93248 0.16749 0.77414 0.0
C164 C 0.93139 0.13504 0.70699 0.0
C165 C 0.95984 0.19451 0.7542 0.0
C166 C 0.98287 0.15788 0.59375 0.0
C167 C 0.96403 0.09292 0.56574 0.0
C168 C 0.93044 0.92595 0.42982 0.0
C169 C 0.90261 0.93053 0.51295 0.0
H170 H 0.98868 0.92376 0.28282 0.0
C171 C 0.04119 0.96119 0.72214 0.0
C172 C 0.09034 0.03671 0.61974 0.0
C173 C 0.15001 0.95161 0.9571 0.0
C174 C 0.17227 0.88834 0.97908 0.0
C175 C 0.18503 0.92255 0.80145 0.0
C176 C 0.16599 0.95323 0.84536 0.0
C177 C 0.18767 0.88985 0.86732 0.0
C178 C 0.15397 0.91946 0.02396 0.0
C179 C 0.12726 0.98216 1.0021 0.0
H180 H 0.91275 0.1712 0.84382 0.0
H181 H 0.91138 0.11357 0.72878 0.0
H182 H 0.96092 0.2192 0.80787 0.0
H183 H 1.002 0.15439 0.52194 0.0
H184 H 0.19674 0.92377 0.71483 0.0
H185 H 0.16315 0.9778 0.79109 0.0
H186 H 0.20081 0.86562 0.8304 0.0
H187 H 0.14067 0.91783 0.10851 0.0
C188 C 0.56725 0.94195 0.5057 0.0
C189 C 0.55248 0.88249 0.5944 0.0
C190 C 0.54709 0.92121 0.58531 0.0
C191 C 0.58039 0.86555 0.52832 0.0
C192 C 0.59322 0.92461 0.43257 0.0
C193 C 0.60058 0.88654 0.44701 0.0
N194 N 0.55946 0.97864 0.49397 0.0
C195 C 0.57414 0.99898 0.40438 0.0
C196 C 0.60997 0.94577 0.34445 0.0
C197 C 0.5999 0.98297 0.32908 0.0
Gd198 Gd 0.54363 0.08065 0.86264 0.0
Gd199 Gd 0.51842 1.00384 0.63053 0.0
N200 N 0.51999 0.9384 0.64627 0.0
C201 C 0.52833 0.86171 0.66455 0.0
C202 C 0.49476 0.91794 0.70845 0.0
C203 C 0.49882 0.87941 0.71967 0.0
H204 H 0.47204 0.93165 0.75186 0.0
H205 H 0.47936 0.86346 0.77138 0.0
H206 H 0.60222 0.12635 0.68344 0.0
H207 H 0.56654 1.02774 0.39219 0.0
H208 H 0.60823 0.18827 0.5939 0.0
H209 H 0.53135 0.83186 0.67303 0.0
H210 H 0.58544 0.83597 0.53562 0.0
H211 H 0.47572 0.08978 0.06549 0.0
H212 H 0.62987 0.93342 0.28591 0.0
H213 H 0.61199 0.99932 0.25946 0.0
H214 H 0.50416 0.25606 0.73965 0.0
H215 H 0.62083 0.8728 0.39286 0.0
H216 H 0.42492 0.1957 1.01573 0.0
H217 H 0.4273 0.13469 0.11554 0.0
N218 N 0.49809 0.12276 0.92756 0.0
C219 C 0.49859 0.15699 0.87638 0.0
C220 C 0.4738 0.11529 1.01602 0.0
C221 C 0.4456 0.17554 0.99046 0.0
C222 C 0.44676 0.14111 0.04677 0.0
C223 C 0.47237 0.1843 0.90675 0.0
H224 H 0.45432 0.24101 0.87765 0.0
N225 N 0.55179 0.13877 0.7708 0.0
C226 C 0.52664 0.16548 0.79772 0.0
C227 C 0.55871 0.20947 0.67354 0.0
C228 C 0.52925 0.20146 0.74873 0.0
C229 C 0.58145 0.14694 0.70139 0.0
C230 C 0.58506 0.18217 0.65061 0.0
O231 O 0.52356 0.97822 0.81308 0.0
O232 O 0.54357 1.02223 0.94787 0.0
O233 O 0.59924 0.08492 0.9368 0.0
O234 O 0.55281 0.10928 0.02705 0.0
O235 O 0.4696 1.02622 0.74146 0.0
O236 O 0.49294 0.04724 0.91716 0.0
O237 O 0.51172 0.09673 0.69569 0.0
O238 O 0.5387 0.06027 0.56133 0.0
O239 O 0.48713 0.02997 0.49081 0.0
O240 O 0.47609 0.97264 0.53481 0.0
O241 O 0.59295 0.06361 0.74744 0.0
O242 O 0.5815 1.00926 0.6449 0.0
C243 C 0.53546 0.98732 0.91858 0.0
C244 C 0.46474 0.03634 0.85142 0.0
C245 C 0.6101 0.14239 0.02919 0.0
C246 C 0.67029 0.17255 0.05851 0.0
C247 C 0.61525 0.20988 0.02573 0.0
C248 C 0.59348 0.17758 1.01823 0.0
C249 C 0.6535 0.20749 0.04758 0.0
C250 C 0.6484 0.14025 0.04851 0.0
C251 C 0.58876 0.10736 1.0191 0.0
C252 C 0.50269 0.22836 0.77692 0.0
C253 C 0.47426 0.21976 0.85535 0.0
H254 H 0.56161 0.23673 0.63394 0.0
C255 C 0.52319 0.09204 0.58814 0.0
C256 C 0.60429 0.03567 0.6816 0.0
C257 C 0.42428 1.01136 0.49544 0.0
C258 C 0.37456 0.05776 0.50144 0.0
C259 C 0.36101 0.99196 0.53515 0.0
C260 C 0.39826 0.98318 0.51865 0.0
C261 C 0.34912 1.02871 0.52566 0.0
C262 C 0.41233 0.04857 0.48918 0.0
C263 C 0.464 1.00226 0.4814 0.0
H264 H 0.60239 0.23686 1.01626 0.0
H265 H 0.56384 0.18025 1.00483 0.0
H266 H 0.66982 0.23269 0.0574 0.0
H267 H 0.66105 0.11314 0.06009 0.0
H268 H 0.34105 0.97006 0.55262 0.0
H269 H 0.4067 0.95436 0.52453 0.0
H270 H 0.31959 0.03371 0.53244 0.0
H271 H 0.43259 0.07029 0.47362 0.0
C272 C 0.46242 0.46396 0.96819 0.0
C273 C 0.49849 0.44864 0.14192 0.0
C274 C 0.49152 0.47224 0.04527 0.0
C275 C 0.47635 0.41687 0.15926 0.0
C276 C 0.4395 0.4326 0.98753 0.0
C277 C 0.44666 0.40915 0.08324 0.0
N278 N 0.45727 0.48586 0.87216 0.0
C279 C 0.42923 0.47858 0.79407 0.0
C280 C 0.41075 0.42501 0.90778 0.0
C281 C 0.40559 0.44812 0.81082 0.0
Gd282 Gd 0.57549 0.52898 0.62982 0.0
Gd283 Gd 0.49696 0.53759 0.85652 0.0
N284 N 0.51234 0.50357 0.02767 0.0
C285 C 0.52692 0.45814 0.22038 0.0
C286 C 0.53649 0.51513 0.113 0.0
C287 C 0.54553 0.49188 0.20694 0.0
H288 H 0.54841 0.54254 0.11164 0.0
H289 H 0.56614 0.50051 0.2708 0.0
H290 H 0.52074 0.54293 0.38457 0.0
H291 H 0.42468 0.49668 0.72001 0.0
H292 H 0.51255 0.59045 0.23486 0.0
H293 H 0.53342 0.44056 0.29479 0.0
H294 H 0.4815 0.39848 0.23273 0.0
H295 H 0.65286 0.55464 0.77913 0.0
H296 H 0.39259 0.4012 0.91973 0.0
H297 H 0.38337 0.44248 0.74895 0.0
H298 H 0.614 0.67449 0.29664 0.0
H299 H 0.42963 0.38471 0.09853 0.0
H300 H 0.69768 0.6515 0.61494 0.0
H301 H 0.70025 0.60398 0.77111 0.0
N302 N 0.62212 0.57495 0.63261 0.0
C303 C 0.62081 0.60016 0.54343 0.0
C304 C 0.65045 0.57586 0.71293 0.0
C305 C 0.67644 0.63007 0.61859 0.0
C306 C 0.67786 0.60345 0.70737 0.0
C307 C 0.64778 0.62868 0.53525 0.0
H308 H 0.66549 0.67741 0.43847 0.0
N309 N 0.56579 0.57035 0.47124 0.0
C310 C 0.59175 0.59806 0.46174 0.0
C311 C 0.5597 0.62273 0.29185 0.0
C312 C 0.58911 0.62506 0.37204 0.0
C313 C 0.53871 0.5667 0.38758 0.0
C314 C 0.53462 0.59325 0.29914 0.0
O315 O 0.5098 0.4791 0.7868 0.0
O316 O 0.57226 0.48139 0.76443 0.0
O317 O 0.58477 0.4814 0.51599 0.0
O318 O 0.62927 0.51985 0.55261 0.0
O319 O 0.55581 0.55785 0.91606 0.0
O320 O 0.59559 0.52018 0.81602 0.0
O321 O 0.56069 0.58846 0.688 0.0
O322 O 0.49859 0.58516 0.72188 0.0
O323 O 0.48261 0.58521 0.96434 0.0
O324 O 0.44125 0.54376 0.92337 0.0
O325 O 0.51703 0.5109 0.56163 0.0
O326 O 0.475 0.54387 0.6713 0.0
C327 C 0.54225 0.46249 0.79446 0.0
C328 C 0.58842 0.54082 0.90748 0.0
C329 C 0.64537 0.45687 0.55043 0.0
C330 C 0.65994 0.39098 0.55152 0.0
C331 C 0.70047 0.43398 0.65318 0.0
C332 C 0.67746 0.46346 0.61927 0.0
C333 C 0.69196 0.39771 0.61857 0.0
C334 C 0.63688 0.42051 0.51762 0.0
C335 C 0.62057 0.48742 0.51298 0.0
C336 C 0.61576 0.65361 0.36487 0.0
C337 C 0.64512 0.65524 0.44559 0.0
H338 H 0.55663 0.64303 0.22234 0.0
C339 C 0.52769 0.60425 0.68511 0.0
C340 C 0.48342 0.52547 0.57606 0.0
C341 C 0.42212 0.6056 0.91416 0.0
C342 C 0.39846 0.66848 0.92534 0.0
C343 C 0.38314 0.63061 0.75776 0.0
C344 C 0.40394 0.60137 0.80549 0.0
C345 C 0.38085 0.66446 0.81666 0.0
C346 C 0.41857 0.63887 0.9742 0.0
C347 C 0.44726 0.57698 0.96131 0.0
H348 H 0.72516 0.43934 0.70533 0.0
H349 H 0.68493 0.4913 0.64676 0.0
H350 H 0.71032 0.37513 0.64293 0.0
H351 H 0.61263 0.41517 0.46298 0.0
H352 H 0.36969 0.62736 0.67352 0.0
H353 H 0.40644 0.57588 0.7563 0.0
H354 H 0.36609 0.68752 0.77698 0.0
H355 H 0.43337 0.64253 0.0564 0.0
C356 C 0.1023 0.46486 0.98703 0.0
C357 C 0.11857 0.50335 0.15353 0.0
C358 C 0.09477 0.49519 0.05807 0.0
C359 C 0.14981 0.48105 0.17574 0.0
C360 C 0.13305 0.44174 1.01152 0.0
C361 C 0.15673 0.45005 0.106 0.0
N362 N 0.08023 0.4586 0.89189 0.0
C363 C 0.0868 0.42932 0.81944 0.0
C364 C 0.1398 0.4116 0.93792 0.0
C365 C 0.11656 0.40537 0.84163 0.0
Gd366 Gd 0.04213 0.57658 0.63485 0.0
Gd367 Gd 0.02981 0.49917 0.86605 0.0
N368 N 0.06369 0.51582 0.0367 0.0
C369 C 0.1095 0.53284 0.22681 0.0
C370 C 0.0521 0.54044 0.11912 0.0
C371 C 0.07558 0.55079 0.21137 0.0
H372 H 1.02454 0.55183 0.11649 0.0
H373 H 0.06695 0.57182 0.27258 0.0
H374 H 1.02414 0.52186 0.3937 0.0
H375 H 0.06868 0.42406 0.74569 0.0
H376 H 0.97598 0.51588 0.24455 0.0
H377 H 0.12724 0.54027 0.3001 0.0
H378 H 0.16832 0.48703 0.24847 0.0
H379 H 1.02238 0.65635 0.77586 0.0
H380 H 0.16309 0.39322 0.954 0.0
H381 H 0.12159 0.38213 0.78434 0.0
H382 H 0.89771 0.62106 0.30166 0.0
H383 H 0.18072 0.43287 0.12515 0.0
H384 H 0.92751 0.70515 0.61056 0.0
H385 H 0.97607 0.70619 0.76447 0.0
N386 N 0.99959 0.62599 0.63264 0.0
C387 C 0.97386 0.6255 0.54458 0.0
C388 C 1.00081 0.65474 0.71022 0.0
C389 C 0.94769 0.6829 0.61545 0.0
C390 C 0.97491 0.68349 0.7029 0.0
C391 C 0.94686 0.65376 0.53505 0.0
H392 H 0.89851 0.67322 0.43897 0.0
N393 N 1.00009 0.56888 0.47631 0.0
C394 C 0.97389 0.5961 0.46529 0.0
C395 C 0.94671 0.56473 0.29848 0.0
C396 C 0.94632 0.59439 0.3767 0.0
C397 C 1.00172 0.54126 0.39506 0.0
C398 C 0.97472 0.53828 0.30713 0.0
O399 O 0.08903 0.50997 0.79749 0.0
O400 O 0.08829 0.57235 0.77335 0.0
O401 O 0.09145 0.58254 0.52656 0.0
O402 O 0.0553 0.62928 0.55263 0.0
O403 O 1.01054 0.55855 0.91888 0.0
O404 O 0.05061 0.59689 0.82092 0.0
O405 O 0.9821 0.56425 0.69236 0.0
O406 O 0.9831 0.50211 0.72846 0.0
O407 O 0.98152 0.48741 0.97462 0.0
O408 O 1.02034 0.444 0.93603 0.0
O409 O 0.05712 0.5173 0.56803 0.0
O410 O 1.02471 0.47544 0.68293 0.0
C411 C 0.10668 0.54206 0.80214 0.0
C412 C 0.02866 0.59073 0.91023 0.0
C413 C 0.11907 0.64076 0.56821 0.0
C414 C 0.18418 0.6584 0.55975 0.0
C415 C 0.14733 0.6775 0.72401 0.0
C416 C 0.1163 0.65945 0.67562 0.0
C417 C 0.1815 0.6766 0.66696 0.0
C418 C 0.15291 0.64084 0.51037 0.0
C419 C 0.08793 0.61858 0.52109 0.0
C420 C 0.91909 0.62215 0.36882 0.0
C421 C 0.91957 0.65189 0.44695 0.0
H422 H 0.92597 0.56242 0.22965 0.0
C423 C 0.96499 0.53182 0.69186 0.0
C424 C 0.04282 0.48349 0.58623 0.0
C425 C 0.95724 0.42782 0.93129 0.0
C426 C 0.89305 0.40733 0.94665 0.0
C427 C 0.92979 0.38772 0.78258 0.0
C428 C 0.96028 0.40774 0.82656 0.0
C429 C 0.89594 0.38788 0.84168 0.0
C430 C 0.92377 0.42693 0.99146 0.0
C431 C 0.98766 0.45175 0.97456 0.0
H432 H 0.14508 0.69139 0.80722 0.0
H433 H 0.09049 0.65946 0.72344 0.0
H434 H 0.20573 0.68951 0.70672 0.0
H435 H 0.15543 0.62569 0.42911 0.0
H436 H 0.9322 0.37275 0.70132 0.0
H437 H 0.9859 0.40802 0.77774 0.0
H438 H 0.87211 0.37335 0.80524 0.0
H439 H 0.92106 0.44295 0.07097 0.0
C440 C 0.16217 0.06492 0.38268 0.0
C441 C 0.18253 0.03162 0.36914 0.0
H442 H 0.11672 0.09293 0.4688 0.0
C443 C 0.1697 1.00023 0.43149 0.0
H444 H 0.17152 0.09005 0.33938 0.0
C445 C 0.13911 1.00208 0.50707 0.0
C446 C 0.11937 0.03535 0.52398 0.0
H447 H 0.18469 0.97425 0.42669 0.0
H448 H 0.13155 0.9773 0.55565 0.0
C449 C 0.13073 0.06662 0.45767 0.0
C450 C 0.53155 0.15429 0.3097 0.0
C451 C 0.50787 0.18438 0.33548 0.0
H452 H 0.55541 0.10207 0.36734 0.0
C453 C 0.48868 0.18247 0.44227 0.0
H454 H 0.54596 0.15381 0.2273 0.0
C455 C 0.49339 0.15263 0.52116 0.0
C456 C 0.51774 0.12302 0.49803 0.0
H457 H 0.46918 0.20412 0.4645 0.0
H458 H 0.47744 0.15273 0.6008 0.0
C459 C 0.53662 0.12428 0.38998 0.0
C460 C 0.40161 0.55338 0.37377 0.0
C461 C 0.4004 0.52499 0.28932 0.0
H462 H 0.42775 0.57565 0.5281 0.0
C463 C 0.42619 0.49572 0.30316 0.0
H464 H 0.38336 0.57707 0.36536 0.0
C465 C 0.45286 0.49545 0.39532 0.0
C466 C 0.45433 0.52418 0.47865 0.0
H467 H 0.42644 0.47349 0.24006 0.0
H468 H 0.47241 0.47273 0.40122 0.0
C469 C 0.42765 0.55275 0.46707 0.0
C470 C 1.02088 0.39413 0.40919 0.0
C471 C 0.04218 0.39809 0.30689 0.0
H472 H 1.00403 0.41691 0.57337 0.0
C473 C 0.06587 0.42949 0.30132 0.0
H474 H 1.00188 0.37085 0.41759 0.0
C475 C 0.06714 0.45644 0.392 0.0
C476 C 0.04447 0.45337 0.49179 0.0
H477 H 0.08242 0.43386 0.22431 0.0
H478 H 0.0854 0.48017 0.38305 0.0
C479 C 1.02201 0.42102 0.4992 0.0
C480 C 0.91929 0.9886 0.18355 0.0
C481 C 0.8988 1.02062 0.21326 0.0
H482 H 0.96378 0.96488 0.0826 0.0
C483 C 0.9074 0.05368 0.15273 0.0
H484 H 0.91321 0.96247 0.22613 0.0
C485 C 0.93589 0.05491 0.06851 0.0
C486 C 0.95752 1.02331 0.04243 0.0
H487 H 0.89274 0.07903 0.17302 0.0
H488 H 0.94151 0.08112 0.02509 0.0
C489 C 0.94851 0.99001 0.10117 0.0
C490 C 0.53395 0.89121 0.0757 0.0
C491 C 0.52584 0.90052 0.19218 0.0
H492 H 0.54475 0.91064 0.90069 0.0
C493 C 0.5219 0.9388 0.21681 0.0
H494 H 0.53613 0.86227 0.05123 0.0
C495 C 0.52654 0.96661 0.13039 0.0
C496 C 0.53422 0.95745 1.01367 0.0
H497 H 0.51409 0.94736 0.3036 0.0
H498 H 0.52259 0.99539 0.15453 0.0
C499 C 0.53831 0.91914 0.9885 0.0
C500 C 0.64728 0.57215 0.17606 0.0
C501 C 0.67239 0.5424 0.19244 0.0
H502 H 0.60123 0.59521 0.07728 0.0
C503 C 0.67027 0.5132 0.11095 0.0
H504 H 0.64789 0.59511 0.23642 0.0
C505 C 0.64379 0.51338 1.01872 0.0
C506 C 0.61767 0.54241 1.00486 0.0
H507 H 0.68824 0.48934 0.1209 0.0
H508 H 0.64307 0.48989 0.95996 0.0
C509 C 0.62027 0.57208 0.08478 0.0
C510 C 0.05741 0.67052 0.11927 0.0
C511 C 1.02674 0.674 0.19445 0.0
H512 H 0.08197 0.64259 0.97309 0.0
C513 C 0.99569 0.65092 0.17042 0.0
H514 H 0.08223 0.68695 0.13486 0.0
C515 C 0.99592 0.62423 0.07936 0.0
C516 C 1.02701 0.62012 1.00618 0.0
H517 H 0.97147 0.65276 0.22495 0.0
H518 H 0.97176 0.60657 0.06685 0.0
C519 C 0.05737 0.64452 0.02654 0.0
C520 C 1.01825 0.26845 0.49925 0.0
C521 C 0.0486 0.25094 0.44623 0.0
H522 H 0.97411 0.26216 0.621 0.0
C523 C 0.06571 0.22075 0.50161 0.0
H524 H 1.00506 0.29234 0.45872 0.0
C525 C 0.04895 0.20469 0.5987 0.0
C526 C 1.01376 0.21727 0.63408 0.0
H527 H 0.08968 0.20752 0.46341 0.0
H528 H 0.05979 0.17854 0.63134 0.0
C529 C 1.00082 0.25161 0.59364 0.0
C530 C 0.30391 0.1284 0.42095 0.0
C531 C 0.31948 0.13592 0.31076 0.0
H532 H 0.31003 0.0942 0.57322 0.0
C533 C 0.35831 0.14113 0.31309 0.0
H534 H 0.27442 0.1315 0.43583 0.0
C535 C 0.37921 0.11788 0.38648 0.0
C536 C 0.36067 0.09576 0.47031 0.0
H537 H 0.37218 0.15439 0.2404 0.0
H538 H 0.40824 0.11417 0.36612 0.0
C539 C 0.32426 0.10642 0.49946 0.0
C540 C 0.59922 0.31454 0.4544 0.0
C541 C 0.61397 0.3097 0.34267 0.0
H542 H 0.6039 0.34483 0.61419 0.0
C543 C 0.65006 0.32234 0.31854 0.0
H544 H 0.57136 0.30495 0.47427 0.0
C545 C 0.66892 0.34444 0.39933 0.0
C546 C 0.65144 0.35433 0.50334 0.0
H547 H 0.6618 0.31861 0.23266 0.0
H548 H 0.69464 0.35788 0.37362 0.0
C549 C 0.61788 0.33707 0.53458 0.0
C550 C 0.24544 0.64946 0.30864 0.0
C551 C 0.26125 0.61494 0.33717 0.0
H552 H 0.20831 0.6921 0.36337 0.0
C553 C 0.26145 0.60283 0.45388 0.0
H554 H 0.24568 0.65967 0.21955 0.0
C555 C 0.2408 0.62188 0.53652 0.0
C556 C 0.21979 0.65284 0.50229 0.0
H557 H 0.27359 0.57637 0.47827 0.0
H558 H 0.23702 0.60943 0.62193 0.0
C559 C 0.22459 0.66831 0.39104 0.0
C560 C 0.11983 0.80772 0.08109 0.0
C561 C 0.12717 0.8108 0.20151 0.0
H562 H 0.13098 0.82981 0.91164 0.0
C563 C 0.15931 0.82992 0.23876 0.0
H564 H 0.09548 0.79306 0.0489 0.0
C565 C 0.17942 0.85134 0.15947 0.0
C566 C 0.16783 0.85318 0.04244 0.0
H567 H 0.16636 0.83172 0.33068 0.0
H568 H 0.2007 0.87012 0.19212 0.0
C569 C 0.14037 0.82862 1.00173 0.0
C570 C 0.74523 0.15982 0.27461 0.0
C571 C 0.76167 0.1281 0.22605 0.0
H572 H 0.70225 0.20034 0.2549 0.0
C573 C 0.75763 0.12179 0.10572 0.0
H574 H 0.7487 0.1658 0.36665 0.0
C575 C 0.73146 0.14194 0.04141 0.0
C576 C 0.70918 0.16825 0.09739 0.0
H577 H 0.77028 0.09788 0.06524 0.0
H578 H 0.72472 0.13304 0.95346 0.0
C579 C 0.71883 0.17981 0.21038 0.0
C580 C 0.40789 0.72953 0.17765 0.0
C581 C 0.44053 0.74824 0.14435 0.0
H582 H 0.36683 0.68928 0.12789 0.0
C583 C 0.44993 0.7499 0.02571 0.0
H584 H 0.39956 0.7287 0.26825 0.0
C585 C 0.43051 0.72818 0.94505 0.0
C586 C 0.40201 0.70448 0.98311 0.0
H587 H 0.47481 0.76432 0.99743 0.0
H588 H 0.4413 0.7258 0.85739 0.0
C589 C 0.38872 0.70759 0.09719 0.0
C590 C 0.83157 0.41626 0.19897 0.0
C591 C 0.81349 0.44931 0.16628 0.0
H592 H 0.87159 0.37553 0.14959 0.0
C593 C 0.81262 0.45982 0.04799 0.0
H594 H 0.83192 0.40712 0.28919 0.0
C595 C 0.83451 0.4411 0.96777 0.0
C596 C 0.8575 0.41204 1.00567 0.0
H597 H 0.79885 0.4851 1.02001 0.0
H598 H 0.8374 0.45259 0.88068 0.0
C599 C 0.8538 0.39785 0.11902 0.0
C600 C 0.07394 0.20068 0.95207 0.0
C601 C 0.04573 0.21227 0.02882 0.0
H602 H 0.09423 0.15839 0.83519 0.0
C603 C 1.0144 0.18837 0.03767 0.0
H604 H 0.09901 0.21725 0.94408 0.0
C605 C 1.01165 0.15442 0.97513 0.0
C606 C 0.04048 0.14203 0.90227 0.0
H607 H 0.99226 0.19539 0.09698 0.0
H608 H 0.98737 0.137 0.98795 0.0
C609 C 0.07139 0.16634 0.8905 0.0
C610 C 0.35837 0.04906 0.89122 0.0
C611 C 0.35419 0.04641 1.01351 0.0
H612 H 0.39569 0.04758 0.74443 0.0
C613 C 0.38631 0.0371 0.07916 0.0
H614 H 0.33494 0.05748 0.8374 0.0
C615 C 0.42129 0.03218 0.02606 0.0
C616 C 0.42596 0.03641 0.90454 0.0
H617 H 0.38485 0.0359 0.17352 0.0
H618 H 0.44514 1.02634 0.08145 0.0
C619 C 0.39351 0.04372 0.83768 0.0
C620 C 0.58312 0.37673 0.95256 0.0
C621 C 0.55171 0.35416 0.97938 0.0
H622 H 0.60492 0.42737 0.87906 0.0
C623 C 0.51761 0.3655 0.92868 0.0
H624 H 0.61058 0.36881 0.98283 0.0
C625 C 0.51484 0.39919 0.86285 0.0
C626 C 0.54562 0.42358 0.84847 0.0
H627 H 0.49271 0.34917 0.94335 0.0
H628 H 0.48825 0.40653 0.82487 0.0
C629 C 0.58007 0.41067 0.89076 0.0
C630 C 0.20345 0.51652 0.93602 0.0
C631 C 0.21661 0.5511 0.9778 0.0
H632 H 0.16052 0.48679 0.84086 0.0
C633 C 0.19542 0.58271 0.94429 0.0
H634 H 0.21868 0.49139 0.95631 0.0
C635 C 0.16085 0.57966 0.88574 0.0
C636 C 0.14611 0.54495 0.8527 0.0
H637 H 0.2048 0.61035 0.96766 0.0
H638 H 0.14514 0.60478 0.86943 0.0
C639 C 0.16925 0.51371 0.87245 0.0
C640 C 0.08191 0.87148 0.58986 0.0
C641 C 0.05099 0.85331 0.53647 0.0
H642 H 0.10356 0.91842 0.68466 0.0
C643 C 1.01581 0.86901 0.55887 0.0
H644 H 0.10961 0.86028 0.58012 0.0
C645 C 1.0123 0.90244 0.62461 0.0
C646 C 0.04376 0.9224 0.6671 0.0
H647 H 0.99102 0.85638 0.52181 0.0
H648 H 0.98474 0.91306 0.63998 0.0
C649 C 0.07849 0.90524 0.65161 0.0
C650 C 0.70392 0.0684 0.60682 0.0
C651 C 0.71673 0.04129 0.52753 0.0
H652 H 0.65994 0.08829 0.71569 0.0
C653 C 0.69362 1.00992 0.51081 0.0
H654 H 0.72055 0.09308 0.62297 0.0
C655 C 0.65833 1.00709 0.56549 0.0
C656 C 0.64433 0.03577 0.63713 0.0
H657 H 0.70179 0.98852 0.45019 0.0
H658 H 0.64148 0.98276 0.54839 0.0
C659 C 0.66864 0.0658 0.65992 0.0
C660 C 0.48134 0.69036 0.5433 0.0
C661 C 0.51149 0.71234 0.50202 0.0
H662 H 0.46239 0.6403 0.62768 0.0
C663 C 0.54735 0.70046 0.53658 0.0
H664 H 0.453 0.69851 0.52369 0.0
C665 C 0.55262 0.6669 0.60166 0.0
C666 C 0.5225 0.64311 0.63138 0.0
H667 H 0.57154 0.71613 0.50906 0.0
H668 H 0.58059 0.65916 0.62612 0.0
C669 C 0.48668 0.65654 0.60452 0.0
C670 C 0.86958 0.55521 0.54474 0.0
C671 C 0.85526 0.51978 0.5159 0.0
H672 H 0.91337 0.5869 0.62808 0.0
C673 C 0.87532 0.48888 0.56107 0.0
H674 H 0.85538 0.57993 0.51421 0.0
C675 C 0.90978 0.4929 0.62005 0.0
C676 C 0.92563 0.52813 0.64084 0.0
H677 H 0.86514 0.4609 0.54632 0.0
H678 H 0.92455 0.46802 0.6464 0.0
C679 C 0.9037 0.55921 0.60789 0.0
loop_
_geom_bond_atom_site_label_1
_geom_bond_atom_site_label_2
_geom_bond_distance
_geom_bond_site_symmetry_2
_ccdc_geom_bond_type
H0 C7 0.929 . S
H1 C10 0.930 . S
H2 C12 0.929 . S
H3 C4 0.969 . S
C4 H3 0.969 . S
C4 O5 1.550 . S
C4 H6 0.973 . S
O5 C4 1.550 . S
O5 C11 1.412 . S
H6 C4 0.973 . S
C7 H0 0.929 . S
C7 C8 1.400 . S
C7 C9 1.364 . S
C8 C7 1.400 . S
C8 C12 1.377 . S
C9 C7 1.364 . S
C9 C10 1.374 . S
C10 H1 0.930 . S
C10 C9 1.374 . S
C10 C11 1.383 . S
C11 O5 1.412 . S
C11 C10 1.383 . S
C11 C12 1.394 . S
C12 H2 0.929 . S
C12 C8 1.377 . S
C12 C11 1.394 . S
H13 C20 0.929 . S
H14 C23 0.930 . S
H15 C25 0.929 . S
H16 C17 0.969 1_455 S
C17 H16 0.969 1_655 S
C17 O18 1.550 . S
C17 H19 0.973 . S
O18 C17 1.550 . S
O18 C24 1.412 . S
H19 C17 0.973 . S
C20 H13 0.929 . S
C20 C21 1.400 . S
C20 C22 1.364 . S
C21 C20 1.400 . S
C21 C25 1.377 . S
C22 C20 1.364 . S
C22 C23 1.374 . S
C23 H14 0.930 . S
C23 C22 1.374 . S
C23 C24 1.383 . S
C24 O18 1.412 . S
C24 C23 1.383 . S
C24 C25 1.394 . S
C25 H15 0.929 . S
C25 C21 1.377 . S
C25 C24 1.394 . S
H26 C33 0.929 . S
H27 C36 0.930 . S
H28 C38 0.929 . S
H29 C30 0.969 1_545 S
C30 H29 0.969 1_565 S
C30 O31 1.550 . S
C30 H32 0.973 . S
O31 C30 1.550 . S
O31 C37 1.412 . S
H32 C30 0.973 . S
C33 H26 0.929 . S
C33 C34 1.400 . S
C33 C35 1.364 . S
C34 C33 1.400 . S
C34 C38 1.377 . S
C35 C33 1.364 . S
C35 C36 1.374 . S
C36 H27 0.930 . S
C36 C35 1.374 . S
C36 C37 1.383 . S
C37 O31 1.412 . S
C37 C36 1.383 . S
C37 C38 1.394 . S
C38 H28 0.929 . S
C38 C34 1.377 . S
C38 C37 1.394 . S
H39 C46 0.929 . S
H40 C49 0.930 . S
H41 C51 0.929 . S
H42 C43 0.969 . S
C43 H42 0.969 . S
C43 O44 1.550 . S
C43 H45 0.973 . S
O44 C43 1.550 . S
O44 C50 1.412 . S
H45 C43 0.973 . S
C46 H39 0.929 . S
C46 C47 1.400 . S
C46 C48 1.364 . S
C47 C46 1.400 . S
C47 C51 1.377 . S
C48 C46 1.364 . S
C48 C49 1.374 . S
C49 H40 0.930 . S
C49 C48 1.374 . S
C49 C50 1.383 . S
C50 O44 1.412 . S
C50 C49 1.383 . S
C50 C51 1.394 . S
C51 H41 0.929 . S
C51 C47 1.377 . S
C51 C50 1.394 . S
H52 C59 0.929 . S
H53 C62 0.930 . S
H54 C64 0.929 . S
H55 C56 0.969 . S
C56 H55 0.969 . S
C56 O57 1.550 . S
C56 H58 0.973 . S
O57 C56 1.550 . S
O57 C63 1.412 . S
H58 C56 0.973 . S
C59 H52 0.929 . S
C59 C60 1.400 1_554 S
C59 C61 1.364 . S
C60 C59 1.400 1_556 S
C60 C64 1.377 . S
C61 C59 1.364 . S
C61 C62 1.374 . S
C62 H53 0.930 . S
C62 C61 1.374 . S
C62 C63 1.383 . S
C63 O57 1.412 . S
C63 C62 1.383 . S
C63 C64 1.394 1_554 S
C64 H54 0.929 . S
C64 C60 1.377 . S
C64 C63 1.394 1_556 S
H65 C72 0.929 . S
H66 C75 0.930 . S
H67 C77 0.929 . S
H68 C69 0.969 . S
C69 H68 0.969 . S
C69 O70 1.550 . S
C69 H71 0.973 . S
O70 C69 1.550 . S
O70 C76 1.412 . S
H71 C69 0.973 . S
C72 H65 0.929 . S
C72 C73 1.400 1_554 S
C72 C74 1.364 . S
C73 C72 1.400 1_556 S
C73 C77 1.377 . S
C74 C72 1.364 . S
C74 C75 1.374 . S
C75 H66 0.930 . S
C75 C74 1.374 . S
C75 C76 1.383 . S
C76 O70 1.412 . S
C76 C75 1.383 . S
C76 C77 1.394 1_554 S
C77 H67 0.929 . S
C77 C73 1.377 . S
C77 C76 1.394 1_556 S
H78 C85 0.929 . S
H79 C88 0.930 . S
H80 C90 0.929 . S
H81 C82 0.969 . S
C82 H81 0.969 . S
C82 O83 1.550 . S
C82 H84 0.973 . S
O83 C82 1.550 . S
O83 C89 1.412 . S
H84 C82 0.973 . S
C85 H78 0.929 . S
C85 C86 1.400 1_554 S
C85 C87 1.364 . S
C86 C85 1.400 1_556 S
C86 C90 1.377 . S
C87 C85 1.364 . S
C87 C88 1.374 . S
C88 H79 0.930 . S
C88 C87 1.374 . S
C88 C89 1.383 . S
C89 O83 1.412 . S
C89 C88 1.383 . S
C89 C90 1.394 1_554 S
C90 H80 0.929 . S
C90 C86 1.377 . S
C90 C89 1.394 1_556 S
H91 C98 0.929 . S
H92 C101 0.930 . S
H93 C103 0.929 . S
H94 C95 0.969 . S
C95 H94 0.969 . S
C95 O96 1.550 . S
C95 H97 0.973 . S
O96 C95 1.550 . S
O96 C102 1.412 . S
H97 C95 0.973 . S
C98 H91 0.929 . S
C98 C99 1.400 1_554 S
C98 C100 1.364 . S
C99 C98 1.400 1_556 S
C99 C103 1.377 . S
C100 C98 1.364 . S
C100 C101 1.374 . S
C101 H92 0.930 . S
C101 C100 1.374 . S
C101 C102 1.383 . S
C102 O96 1.412 . S
C102 C101 1.383 . S
C102 C103 1.394 1_554 S
C103 H93 0.929 . S
C103 C99 1.377 . S
C103 C102 1.394 1_556 S
C104 C106 1.422 . S
C104 C108 1.415 . S
C104 N110 1.369 1_554 S
C105 C106 1.421 . S
C105 C107 1.417 . S
C105 C117 1.422 . S
C106 C104 1.422 . S
C106 C105 1.421 . S
C106 N116 1.359 . S
C107 C105 1.417 . S
C107 C109 1.329 . S
C107 H126 0.930 . S
C108 C104 1.415 . S
C108 C109 1.437 . S
C108 C112 1.413 1_554 S
C109 C107 1.329 . S
C109 C108 1.437 . S
C109 H131 0.929 . S
N110 C104 1.369 1_556 S
N110 C111 1.338 . S
N110 Gd115 2.622 1_545 S
C111 N110 1.338 . S
C111 C113 1.378 . S
C111 H123 0.929 1_545 S
C112 C108 1.413 1_556 S
C112 C113 1.348 . S
C112 H128 0.931 . S
C113 C111 1.378 . S
C113 C112 1.348 . S
C113 H129 0.930 . S
Gd114 N134 2.622 . S
Gd114 N141 2.570 . S
Gd114 O148 2.353 1_655 S
Gd114 O149 2.468 . S
Gd114 O150 2.427 . S
Gd114 O152 2.388 . S
Gd114 O153 2.386 1_545 S
Gd114 O157 2.307 1_655 S
Gd114 C167 2.805 . S
Gd115 N110 2.622 1_565 S
Gd115 N116 2.570 1_566 S
Gd115 O147 2.386 1_565 S
Gd115 O151 2.307 1_465 S
Gd115 O154 2.353 . S
Gd115 O155 2.468 . S
Gd115 O156 2.427 . S
Gd115 O158 2.388 . S
Gd115 C179 2.805 . S
N116 C106 1.359 . S
N116 Gd115 2.570 1_544 S
N116 C118 1.343 . S
C117 C105 1.422 . S
C117 C119 1.321 . S
C117 H125 0.931 . S
C118 N116 1.343 . S
C118 C119 1.390 . S
C118 H120 0.959 . S
C119 C117 1.321 . S
C119 C118 1.390 . S
C119 H121 0.930 . S
H120 C118 0.959 . S
H121 C119 0.930 . S
H122 C145 0.931 1_455 S
H123 C111 0.929 1_565 S
H124 C146 0.930 1_455 S
H125 C117 0.931 . S
H126 C107 0.930 . S
H127 C136 0.929 . S
H128 C112 0.931 . S
H129 C113 0.930 . S
H130 C168 0.930 . S
H131 C109 0.929 . S
H132 C137 0.931 . S
H133 C138 0.930 . S
N134 Gd114 2.622 . S
N134 C135 1.369 1_545 S
N134 C136 1.338 . S
C135 N134 1.369 1_565 S
C135 C139 1.415 . S
C135 C142 1.422 . S
C136 H127 0.929 . S
C136 N134 1.338 . S
C136 C138 1.378 . S
C137 H132 0.931 . S
C137 C138 1.348 1_565 S
C137 C139 1.413 . S
C138 H133 0.930 . S
C138 C136 1.378 . S
C138 C137 1.348 1_545 S
C139 C135 1.415 . S
C139 C137 1.413 . S
C139 C169 1.437 . S
H140 C169 0.929 . S
N141 Gd114 2.570 . S
N141 C142 1.359 1_545 S
N141 C145 1.343 . S
C142 C135 1.422 . S
C142 N141 1.359 1_565 S
C142 C144 1.421 . S
C143 C144 1.422 . S
C143 C146 1.321 . S
C143 H170 0.931 . S
C144 C142 1.421 . S
C144 C143 1.422 . S
C144 C168 1.417 . S
C145 H122 0.931 1_655 S
C145 N141 1.343 . S
C145 C146 1.390 1_545 S
C146 H124 0.930 1_655 S
C146 C143 1.321 . S
C146 C145 1.390 1_565 S
O147 Gd115 2.386 1_545 S
O147 C159 1.265 . S
O148 Gd114 2.353 1_455 S
O148 C159 1.242 . S
O149 Gd114 2.468 . S
O149 C167 1.263 . S
O150 Gd114 2.427 . S
O150 C167 1.252 . S
O151 Gd115 2.307 1_645 S
O151 C160 1.261 . S
O152 Gd114 2.388 . S
O152 C160 1.252 . S
O153 Gd114 2.386 1_565 S
O153 C171 1.265 . S
O154 Gd115 2.353 . S
O154 C171 1.242 1_455 S
O155 Gd115 2.468 . S
O155 C179 1.263 . S
O156 Gd115 2.427 . S
O156 C179 1.252 . S
O157 Gd114 2.307 1_455 S
O157 C172 1.261 . S
O158 Gd115 2.388 . S
O158 C172 1.252 1_565 S
C159 O147 1.265 . S
C159 O148 1.242 . S
C160 O151 1.261 . S
C160 O152 1.252 . S
C161 C164 1.394 . S
C161 C166 1.370 . S
C161 C167 1.500 . S
C162 C165 1.383 . S
C162 C166 1.395 . S
C163 C164 1.396 . S
C163 C165 1.365 . S
C163 H180 0.929 . S
C164 C161 1.394 . S
C164 C163 1.396 . S
C164 H181 0.930 . S
C165 C162 1.383 . S
C165 C163 1.365 . S
C165 H182 0.931 . S
C166 C161 1.370 . S
C166 C162 1.395 . S
C166 H183 0.930 1_655 S
C167 Gd114 2.805 . S
C167 O149 1.263 . S
C167 O150 1.252 . S
C167 C161 1.500 . S
C168 H130 0.930 . S
C168 C144 1.417 . S
C168 C169 1.329 . S
C169 C139 1.437 . S
C169 H140 0.929 . S
C169 C168 1.329 . S
H170 C143 0.931 . S
C171 O153 1.265 . S
C171 O154 1.242 1_655 S
C172 O157 1.261 . S
C172 O158 1.252 1_545 S
C173 C176 1.394 . S
C173 C178 1.370 . S
C173 C179 1.500 1_554 S
C174 C177 1.383 . S
C174 C178 1.395 . S
C175 C176 1.396 . S
C175 C177 1.365 . S
C175 H184 0.929 . S
C176 C173 1.394 . S
C176 C175 1.396 . S
C176 H185 0.930 1_554 S
C177 C174 1.383 . S
C177 C175 1.365 . S
C177 H186 0.931 . S
C178 C173 1.370 . S
C178 C174 1.395 . S
C178 H187 0.930 . S
C179 Gd115 2.805 . S
C179 O155 1.263 . S
C179 O156 1.252 . S
C179 C173 1.500 1_556 S
H180 C163 0.929 . S
H181 C164 0.930 . S
H182 C165 0.931 . S
H183 C166 0.930 1_455 S
H184 C175 0.929 . S
H185 C176 0.930 1_556 S
H186 C177 0.931 . S
H187 C178 0.930 . S
C188 C190 1.422 . S
C188 C192 1.415 . S
C188 N194 1.369 . S
C189 C190 1.421 . S
C189 C191 1.417 . S
C189 C201 1.422 . S
C190 C188 1.422 . S
C190 C189 1.421 . S
C190 N200 1.359 . S
C191 C189 1.417 . S
C191 C193 1.329 . S
C191 H210 0.930 . S
C192 C188 1.415 . S
C192 C193 1.437 . S
C192 C196 1.413 . S
C193 C191 1.329 . S
C193 C192 1.437 . S
C193 H215 0.929 . S
N194 C188 1.369 . S
N194 C195 1.338 . S
N194 Gd199 2.622 . S
C195 N194 1.338 . S
C195 C197 1.378 . S
C195 H207 0.929 . S
C196 C192 1.413 . S
C196 C197 1.348 . S
C196 H212 0.931 . S
C197 C195 1.378 . S
C197 C196 1.348 . S
C197 H213 0.930 . S
Gd198 N218 2.622 . S
Gd198 N225 2.570 . S
Gd198 O232 2.353 1_545 S
Gd198 O233 2.468 . S
Gd198 O234 2.427 1_556 S
Gd198 O236 2.388 . S
Gd198 O237 2.386 . S
Gd198 O241 2.307 . S
Gd198 C251 2.805 1_556 S
Gd199 N194 2.622 . S
Gd199 N200 2.570 . S
Gd199 O231 2.386 . S
Gd199 O235 2.307 1_565 S
Gd199 O238 2.353 1_565 S
Gd199 O239 2.468 . S
Gd199 O240 2.427 . S
Gd199 O242 2.388 . S
Gd199 C263 2.805 . S
N200 C190 1.359 . S
N200 Gd199 2.570 . S
N200 C202 1.343 . S
C201 C189 1.422 . S
C201 C203 1.321 . S
C201 H209 0.931 . S
C202 N200 1.343 . S
C202 C203 1.390 . S
C202 H204 0.931 . S
C203 C201 1.321 . S
C203 C202 1.390 . S
C203 H205 0.930 . S
H204 C202 0.931 . S
H205 C203 0.930 . S
H206 C229 0.931 . S
H207 C195 0.929 . S
H208 C230 0.930 . S
H209 C201 0.931 . S
H210 C191 0.930 . S
H211 C220 0.929 . S
H212 C196 0.931 . S
H213 C197 0.930 . S
H214 C252 0.930 . S
H215 C193 0.929 . S
H216 C221 0.931 1_554 S
H217 C222 0.930 . S
N218 Gd198 2.622 . S
N218 C219 1.369 . S
N218 C220 1.337 1_556 S
C219 N218 1.369 . S
C219 C223 1.415 . S
C219 C226 1.422 . S
C220 H211 0.929 . S
C220 N218 1.337 1_554 S
C220 C222 1.378 . S
C221 H216 0.931 1_556 S
C221 C222 1.348 1_556 S
C221 C223 1.413 . S
C222 H217 0.930 . S
C222 C220 1.378 . S
C222 C221 1.348 1_554 S
C223 C219 1.415 . S
C223 C221 1.413 . S
C223 C253 1.437 . S
H224 C253 0.929 . S
N225 Gd198 2.570 . S
N225 C226 1.359 . S
N225 C229 1.343 . S
C226 C219 1.422 . S
C226 N225 1.359 . S
C226 C228 1.421 . S
C227 C228 1.422 . S
C227 C230 1.321 . S
C227 H254 0.931 . S
C228 C226 1.421 . S
C228 C227 1.422 . S
C228 C252 1.417 . S
C229 H206 0.931 . S
C229 N225 1.343 . S
C229 C230 1.390 . S
C230 H208 0.930 . S
C230 C227 1.321 . S
C230 C229 1.390 . S
O231 Gd199 2.386 . S
O231 C243 1.265 . S
O232 Gd198 2.353 1_565 S
O232 C243 1.242 . S
O233 Gd198 2.468 . S
O233 C251 1.263 1_556 S
O234 Gd198 2.427 1_554 S
O234 C251 1.252 . S
O235 Gd199 2.307 1_545 S
O235 C244 1.261 . S
O236 Gd198 2.388 . S
O236 C244 1.252 . S
O237 Gd198 2.386 . S
O237 C255 1.265 . S
O238 Gd199 2.353 1_545 S
O238 C255 1.242 . S
O239 Gd199 2.468 . S
O239 C263 1.263 . S
O240 Gd199 2.427 . S
O240 C263 1.252 . S
O241 Gd198 2.307 . S
O241 C256 1.261 . S
O242 Gd199 2.388 . S
O242 C256 1.252 1_565 S
C243 O231 1.265 . S
C243 O232 1.242 . S
C244 O235 1.261 . S
C244 O236 1.252 . S
C245 C248 1.394 . S
C245 C250 1.370 . S
C245 C251 1.500 . S
C246 C249 1.383 . S
C246 C250 1.395 . S
C247 C248 1.396 . S
C247 C249 1.365 . S
C247 H264 0.929 . S
C248 C245 1.394 . S
C248 C247 1.396 . S
C248 H265 0.930 . S
C249 C246 1.383 . S
C249 C247 1.365 . S
C249 H266 0.931 . S
C250 C245 1.370 . S
C250 C246 1.395 . S
C250 H267 0.930 . S
C251 Gd198 2.805 1_554 S
C251 O233 1.263 1_554 S
C251 O234 1.252 . S
C251 C245 1.500 . S
C252 H214 0.930 . S
C252 C228 1.417 . S
C252 C253 1.329 . S
C253 C223 1.437 . S
C253 H224 0.929 . S
C253 C252 1.329 . S
H254 C227 0.931 . S
C255 O237 1.265 . S
C255 O238 1.242 . S
C256 O241 1.261 . S
C256 O242 1.252 1_545 S
C257 C260 1.394 . S
C257 C262 1.370 . S
C257 C263 1.500 . S
C258 C261 1.383 . S
C258 C262 1.395 . S
C259 C260 1.396 . S
C259 C261 1.365 . S
C259 H268 0.929 . S
C260 C257 1.394 . S
C260 C259 1.396 . S
C260 H269 0.930 . S
C261 C258 1.383 . S
C261 C259 1.365 . S
C261 H270 0.931 . S
C262 C257 1.370 . S
C262 C258 1.395 . S
C262 H271 0.930 1_565 S
C263 Gd199 2.805 . S
C263 O239 1.263 . S
C263 O240 1.252 . S
C263 C257 1.500 . S
H264 C247 0.929 . S
H265 C248 0.930 . S
H266 C249 0.931 . S
H267 C250 0.930 . S
H268 C259 0.929 . S
H269 C260 0.930 . S
H270 C261 0.931 . S
H271 C262 0.930 1_545 S
C272 C274 1.422 . S
C272 C276 1.415 . S
C272 N278 1.369 1_554 S
C273 C274 1.421 . S
C273 C275 1.417 . S
C273 C285 1.422 . S
C274 C272 1.422 . S
C274 C273 1.421 . S
C274 N284 1.359 . S
C275 C273 1.417 . S
C275 C277 1.329 . S
C275 H294 0.930 . S
C276 C272 1.415 . S
C276 C277 1.437 . S
C276 C280 1.413 1_554 S
C277 C275 1.329 . S
C277 C276 1.437 . S
C277 H299 0.929 . S
N278 C272 1.369 1_556 S
N278 C279 1.338 . S
N278 Gd283 2.622 . S
C279 N278 1.338 . S
C279 C281 1.378 . S
C279 H291 0.929 . S
C280 C276 1.413 1_556 S
C280 C281 1.348 . S
C280 H296 0.931 . S
C281 C279 1.378 . S
C281 C280 1.348 . S
C281 H297 0.930 . S
Gd282 N302 2.622 . S
Gd282 N309 2.570 . S
Gd282 O316 2.353 . S
Gd282 O317 2.468 . S
Gd282 O318 2.427 . S
Gd282 O320 2.388 . S
Gd282 O321 2.386 . S
Gd282 O325 2.307 . S
Gd282 C335 2.805 . S
Gd283 N278 2.622 . S
Gd283 N284 2.570 1_556 S
Gd283 O315 2.386 . S
Gd283 O319 2.307 . S
Gd283 O322 2.353 . S
Gd283 O323 2.468 . S
Gd283 O324 2.427 . S
Gd283 O326 2.388 . S
Gd283 C347 2.805 . S
N284 C274 1.359 . S
N284 Gd283 2.570 1_554 S
N284 C286 1.343 . S
C285 C273 1.422 . S
C285 C287 1.321 . S
C285 H293 0.931 . S
C286 N284 1.343 . S
C286 C287 1.390 . S
C286 H288 0.931 . S
C287 C285 1.321 . S
C287 C286 1.390 . S
C287 H289 0.930 . S
H288 C286 0.931 . S
H289 C287 0.930 . S
H290 C313 0.931 . S
H291 C279 0.929 . S
H292 C314 0.930 . S
H293 C285 0.931 . S
H294 C275 0.930 . S
H295 C304 0.929 . S
H296 C280 0.931 . S
H297 C281 0.930 . S
H298 C336 0.930 . S
H299 C277 0.929 . S
H300 C305 0.931 . S
H301 C306 0.930 . S
N302 Gd282 2.622 . S
N302 C303 1.369 . S
N302 C304 1.338 . S
C303 N302 1.369 . S
C303 C307 1.415 . S
C303 C310 1.422 . S
C304 H295 0.929 . S
C304 N302 1.338 . S
C304 C306 1.378 . S
C305 H300 0.931 . S
C305 C306 1.348 . S
C305 C307 1.413 . S
C306 H301 0.930 . S
C306 C304 1.378 . S
C306 C305 1.348 . S
C307 C303 1.415 . S
C307 C305 1.413 . S
C307 C337 1.437 . S
H308 C337 0.929 . S
N309 Gd282 2.570 . S
N309 C310 1.359 . S
N309 C313 1.343 . S
C310 C303 1.422 . S
C310 N309 1.359 . S
C310 C312 1.421 . S
C311 C312 1.422 . S
C311 C314 1.321 . S
C311 H338 0.931 . S
C312 C310 1.421 . S
C312 C311 1.422 . S
C312 C336 1.417 . S
C313 H290 0.931 . S
C313 N309 1.343 . S
C313 C314 1.390 . S
C314 H292 0.930 . S
C314 C311 1.321 . S
C314 C313 1.390 . S
O315 Gd283 2.386 . S
O315 C327 1.265 . S
O316 Gd282 2.353 . S
O316 C327 1.242 . S
O317 Gd282 2.468 . S
O317 C335 1.263 . S
O318 Gd282 2.427 . S
O318 C335 1.252 . S
O319 Gd283 2.307 . S
O319 C328 1.261 . S
O320 Gd282 2.388 . S
O320 C328 1.252 . S
O321 Gd282 2.386 . S
O321 C339 1.265 . S
O322 Gd283 2.353 . S
O322 C339 1.242 . S
O323 Gd283 2.468 . S
O323 C347 1.263 . S
O324 Gd283 2.427 . S
O324 C347 1.252 . S
O325 Gd282 2.307 . S
O325 C340 1.261 . S
O326 Gd283 2.388 . S
O326 C340 1.252 . S
C327 O315 1.265 . S
C327 O316 1.242 . S
C328 O319 1.261 . S
C328 O320 1.252 . S
C329 C332 1.394 . S
C329 C334 1.370 . S
C329 C335 1.500 . S
C330 C333 1.383 . S
C330 C334 1.395 . S
C331 C332 1.396 . S
C331 C333 1.365 . S
C331 H348 0.929 . S
C332 C329 1.394 . S
C332 C331 1.396 . S
C332 H349 0.930 . S
C333 C330 1.383 . S
C333 C331 1.365 . S
C333 H350 0.931 . S
C334 C329 1.370 . S
C334 C330 1.395 . S
C334 H351 0.930 . S
C335 Gd282 2.805 . S
C335 O317 1.263 . S
C335 O318 1.252 . S
C335 C329 1.500 . S
C336 H298 0.930 . S
C336 C312 1.417 . S
C336 C337 1.329 . S
C337 C307 1.437 . S
C337 H308 0.929 . S
C337 C336 1.329 . S
H338 C311 0.931 . S
C339 O321 1.265 . S
C339 O322 1.242 . S
C340 O325 1.261 . S
C340 O326 1.252 . S
C341 C344 1.394 . S
C341 C346 1.370 . S
C341 C347 1.500 1_554 S
C342 C345 1.383 . S
C342 C346 1.395 . S
C343 C344 1.396 . S
C343 C345 1.365 . S
C343 H352 0.929 . S
C344 C341 1.394 . S
C344 C343 1.396 . S
C344 H353 0.930 1_554 S
C345 C342 1.383 . S
C345 C343 1.365 . S
C345 H354 0.931 . S
C346 C341 1.370 . S
C346 C342 1.395 . S
C346 H355 0.930 . S
C347 Gd283 2.805 . S
C347 O323 1.263 . S
C347 O324 1.252 . S
C347 C341 1.500 1_556 S
H348 C331 0.929 . S
H349 C332 0.930 . S
H350 C333 0.931 . S
H351 C334 0.930 . S
H352 C343 0.929 . S
H353 C344 0.930 1_556 S
H354 C345 0.931 . S
H355 C346 0.930 . S
C356 C358 1.422 . S
C356 C360 1.415 . S
C356 N362 1.369 1_554 S
C357 C358 1.421 . S
C357 C359 1.417 . S
C357 C369 1.422 . S
C358 C356 1.422 . S
C358 C357 1.421 . S
C358 N368 1.359 . S
C359 C357 1.417 . S
C359 C361 1.329 . S
C359 H378 0.930 . S
C360 C356 1.415 . S
C360 C361 1.437 . S
C360 C364 1.413 1_554 S
C361 C359 1.329 . S
C361 C360 1.437 . S
C361 H383 0.929 . S
N362 C356 1.369 1_556 S
N362 C363 1.340 . S
N362 Gd367 2.622 1_455 S
C363 N362 1.340 . S
C363 C365 1.385 . S
C363 H375 0.921 1_455 S
C364 C360 1.413 1_556 S
C364 C365 1.348 . S
C364 H380 0.931 . S
C365 C363 1.385 . S
C365 C364 1.348 . S
C365 H381 0.930 . S
Gd366 N386 2.622 . S
Gd366 N393 2.570 . S
Gd366 O400 2.353 . S
Gd366 O401 2.468 . S
Gd366 O402 2.427 . S
Gd366 O404 2.388 . S
Gd366 O405 2.386 1_455 S
Gd366 O409 2.307 . S
Gd366 C419 2.805 . S
Gd367 N362 2.622 1_655 S
Gd367 N368 2.570 1_656 S
Gd367 O399 2.386 1_655 S
Gd367 O403 2.307 1_655 S
Gd367 O406 2.353 . S
Gd367 O407 2.468 . S
Gd367 O408 2.427 . S
Gd367 O410 2.388 . S
Gd367 C431 2.805 . S
N368 C358 1.359 . S
N368 Gd367 2.570 1_454 S
N368 C370 1.343 . S
C369 C357 1.422 . S
C369 C371 1.321 . S
C369 H377 0.931 . S
C370 N368 1.343 . S
C370 C371 1.390 . S
C370 H372 0.931 . S
C371 C369 1.321 . S
C371 C370 1.390 . S
C371 H373 0.930 . S
H372 C370 0.931 . S
H373 C371 0.930 . S
H374 C397 0.931 . S
H375 C363 0.921 1_655 S
H376 C398 0.930 . S
H377 C369 0.931 . S
H378 C359 0.930 . S
H379 C388 0.929 . S
H380 C364 0.931 . S
H381 C365 0.930 . S
H382 C420 0.930 . S
H383 C361 0.929 . S
H384 C389 0.931 . S
H385 C390 0.930 . S
N386 Gd366 2.622 . S
N386 C387 1.369 1_455 S
N386 C388 1.338 . S
C387 N386 1.369 1_655 S
C387 C391 1.415 . S
C387 C394 1.422 . S
C388 H379 0.929 . S
C388 N386 1.338 . S
C388 C390 1.378 . S
C389 H384 0.931 . S
C389 C390 1.348 1_655 S
C389 C391 1.413 . S
C390 H385 0.930 . S
C390 C388 1.378 . S
C390 C389 1.348 1_455 S
C391 C387 1.415 . S
C391 C389 1.413 . S
C391 C421 1.437 . S
H392 C421 0.929 . S
N393 Gd366 2.570 . S
N393 C394 1.359 1_455 S
N393 C397 1.343 . S
C394 C387 1.422 . S
C394 N393 1.359 1_655 S
C394 C396 1.421 . S
C395 C396 1.422 . S
C395 C398 1.321 . S
C395 H422 0.931 . S
C396 C394 1.421 . S
C396 C395 1.422 . S
C396 C420 1.417 . S
C397 H374 0.931 . S
C397 N393 1.343 . S
C397 C398 1.390 1_455 S
C398 H376 0.930 . S
C398 C395 1.321 . S
C398 C397 1.390 1_655 S
O399 Gd367 2.386 1_455 S
O399 C411 1.265 . S
O400 Gd366 2.353 . S
O400 C411 1.242 . S
O401 Gd366 2.468 . S
O401 C419 1.263 . S
O402 Gd366 2.427 . S
O402 C419 1.252 . S
O403 Gd367 2.307 1_455 S
O403 C412 1.261 . S
O404 Gd366 2.388 . S
O404 C412 1.252 . S
O405 Gd366 2.386 1_655 S
O405 C423 1.265 . S
O406 Gd367 2.353 . S
O406 C423 1.242 . S
O407 Gd367 2.468 . S
O407 C431 1.263 . S
O408 Gd367 2.427 . S
O408 C431 1.252 . S
O409 Gd366 2.307 . S
O409 C424 1.261 . S
O410 Gd367 2.388 . S
O410 C424 1.252 1_655 S
C411 O399 1.265 . S
C411 O400 1.242 . S
C412 O403 1.261 . S
C412 O404 1.252 . S
C413 C416 1.394 . S
C413 C418 1.370 . S
C413 C419 1.500 . S
C414 C417 1.383 . S
C414 C418 1.395 . S
C415 C416 1.396 . S
C415 C417 1.365 . S
C415 H432 0.929 . S
C416 C413 1.394 . S
C416 C415 1.396 . S
C416 H433 0.930 . S
C417 C414 1.383 . S
C417 C415 1.365 . S
C417 H434 0.931 . S
C418 C413 1.370 . S
C418 C414 1.395 . S
C418 H435 0.930 . S
C419 Gd366 2.805 . S
C419 O401 1.263 . S
C419 O402 1.252 . S
C419 C413 1.500 . S
C420 H382 0.930 . S
C420 C396 1.417 . S
C420 C421 1.329 . S
C421 C391 1.437 . S
C421 H392 0.929 . S
C421 C420 1.329 . S
H422 C395 0.931 . S
C423 O405 1.265 . S
C423 O406 1.242 . S
C424 O409 1.261 . S
C424 O410 1.252 1_455 S
C425 C428 1.394 . S
C425 C430 1.370 . S
C425 C431 1.500 1_554 S
C426 C429 1.383 . S
C426 C430 1.395 . S
C427 C428 1.396 . S
C427 C429 1.365 . S
C427 H436 0.929 . S
C428 C425 1.394 . S
C428 C427 1.396 . S
C428 H437 0.930 1_554 S
C429 C426 1.383 . S
C429 C427 1.365 . S
C429 H438 0.931 . S
C430 C425 1.370 . S
C430 C426 1.395 . S
C430 H439 0.930 . S
C431 Gd367 2.805 . S
C431 O407 1.263 . S
C431 O408 1.252 . S
C431 C425 1.500 1_556 S
H432 C415 0.929 . S
H433 C416 0.930 . S
H434 C417 0.931 . S
H435 C418 0.930 . S
H436 C427 0.929 . S
H437 C428 0.930 1_556 S
H438 C429 0.931 . S
H439 C430 0.930 . S
C440 C441 1.387 . S
C440 H444 0.950 . S
C440 C449 1.390 . S
C441 C440 1.387 . S
C441 C443 1.387 . S
H442 C449 0.950 . S
C443 C441 1.387 . S
C443 C445 1.390 1_545 S
C443 H447 0.950 1_545 S
H444 C440 0.950 . S
C445 C443 1.390 1_565 S
C445 C446 1.387 1_565 S
C445 H448 0.950 . S
C446 C445 1.387 1_545 S
C446 C449 1.387 . S
H447 C443 0.950 1_565 S
H448 C445 0.950 . S
C449 C440 1.390 . S
C449 H442 0.950 . S
C449 C446 1.387 . S
C450 C451 1.387 . S
C450 H454 0.950 . S
C450 C459 1.390 . S
C451 C450 1.387 . S
C451 C453 1.387 . S
H452 C459 0.950 . S
C453 C451 1.387 . S
C453 C455 1.390 . S
C453 H457 0.950 . S
H454 C450 0.950 . S
C455 C453 1.390 . S
C455 C456 1.387 . S
C455 H458 0.950 . S
C456 C455 1.387 . S
C456 C459 1.387 . S
H457 C453 0.950 . S
H458 C455 0.950 . S
C459 C450 1.390 . S
C459 H452 0.950 . S
C459 C456 1.387 . S
C460 C461 1.387 . S
C460 H464 0.950 . S
C460 C469 1.390 . S
C461 C460 1.387 . S
C461 C463 1.387 . S
H462 C469 0.950 . S
C463 C461 1.387 . S
C463 C465 1.390 . S
C463 H467 0.950 . S
H464 C460 0.950 . S
C465 C463 1.390 . S
C465 C466 1.387 . S
C465 H468 0.950 . S
C466 C465 1.387 . S
C466 C469 1.387 . S
H467 C463 0.950 . S
H468 C465 0.950 . S
C469 C460 1.390 . S
C469 H462 0.950 . S
C469 C466 1.387 . S
C470 C471 1.387 . S
C470 H474 0.950 1_455 S
C470 C479 1.390 1_455 S
C471 C470 1.387 . S
C471 C473 1.387 . S
H472 C479 0.947 . S
C473 C471 1.387 . S
C473 C475 1.390 . S
C473 H477 0.950 . S
H474 C470 0.950 1_655 S
C475 C473 1.390 . S
C475 C476 1.387 . S
C475 H478 0.950 . S
C476 C475 1.387 . S
C476 C479 1.389 1_455 S
H477 C473 0.950 . S
H478 C475 0.950 . S
C479 C470 1.390 1_655 S
C479 H472 0.947 . S
C479 C476 1.389 1_655 S
C480 C481 1.387 . S
C480 H484 0.950 . S
C480 C489 1.390 . S
C481 C480 1.387 . S
C481 C483 1.387 1_565 S
H482 C489 0.950 . S
C483 C481 1.387 1_545 S
C483 C485 1.390 . S
C483 H487 0.950 . S
H484 C480 0.950 . S
C485 C483 1.390 . S
C485 C486 1.363 1_545 S
C485 H488 0.950 . S
C486 C485 1.363 1_565 S
C486 C489 1.416 . S
H487 C483 0.950 . S
H488 C485 0.950 . S
C489 C480 1.390 . S
C489 H482 0.950 . S
C489 C486 1.416 . S
C490 C491 1.387 . S
C490 H494 0.950 . S
C490 C499 1.390 . S
C491 C490 1.387 . S
C491 C493 1.387 . S
H492 C499 0.950 1_556 S
C493 C491 1.387 . S
C493 C495 1.390 . S
C493 H497 0.950 . S
H494 C490 0.950 . S
C495 C493 1.390 . S
C495 C496 1.387 . S
C495 H498 0.950 . S
C496 C495 1.387 . S
C496 C499 1.387 . S
H497 C493 0.950 . S
H498 C495 0.950 . S
C499 C490 1.390 . S
C499 H492 0.950 1_554 S
C499 C496 1.387 . S
C500 C501 1.387 . S
C500 H504 0.950 . S
C500 C509 1.390 . S
C501 C500 1.387 . S
C501 C503 1.387 . S
H502 C509 0.950 1_556 S
C503 C501 1.387 . S
C503 C505 1.390 . S
C503 H507 0.950 . S
H504 C500 0.950 . S
C505 C503 1.390 . S
C505 C506 1.387 . S
C505 H508 0.950 . S
C506 C505 1.387 . S
C506 C509 1.387 . S
H507 C503 0.950 . S
H508 C505 0.950 . S
C509 C500 1.390 . S
C509 H502 0.950 1_554 S
C509 C506 1.387 . S
C510 C511 1.387 1_455 S
C510 H514 0.950 . S
C510 C519 1.390 . S
C511 C510 1.387 1_655 S
C511 C513 1.387 . S
H512 C519 0.950 . S
C513 C511 1.387 . S
C513 C515 1.390 . S
C513 H517 0.950 . S
H514 C510 0.950 . S
C515 C513 1.390 . S
C515 C516 1.387 . S
C515 H518 0.950 . S
C516 C515 1.387 . S
C516 C519 1.387 1_655 S
H517 C513 0.950 . S
H518 C515 0.950 . S
C519 C510 1.390 . S
C519 H512 0.950 . S
C519 C516 1.387 1_455 S
C520 C521 1.387 . S
C520 H524 0.950 . S
C520 C529 1.390 . S
C521 C520 1.387 . S
C521 C523 1.387 . S
H522 C529 0.950 1_655 S
C523 C521 1.387 . S
C523 C525 1.390 . S
C523 H527 0.950 . S
H524 C520 0.950 . S
C525 C523 1.390 . S
C525 C526 1.387 1_455 S
C525 H528 0.950 . S
C526 C525 1.387 1_655 S
C526 C529 1.387 1_655 S
H527 C523 0.950 . S
H528 C525 0.950 . S
C529 C520 1.390 . S
C529 H522 0.950 1_455 S
C529 C526 1.387 1_455 S
C530 C531 1.387 . S
C530 H534 0.948 1_545 S
C530 C539 1.390 1_545 S
C531 C530 1.387 . S
C531 C533 1.387 . S
H532 C539 0.950 . S
C533 C531 1.387 . S
C533 C535 1.390 . S
C533 H537 0.950 . S
H534 C530 0.948 1_565 S
C535 C533 1.390 . S
C535 C536 1.387 . S
C535 H538 0.950 . S
C536 C535 1.387 . S
C536 C539 1.387 1_545 S
H537 C533 0.950 . S
H538 C535 0.950 . S
C539 C530 1.390 1_565 S
C539 H532 0.950 . S
C539 C536 1.387 1_565 S
C540 C541 1.387 . S
C540 H544 0.950 . S
C540 C549 1.390 . S
C541 C540 1.387 . S
C541 C543 1.387 . S
H542 C549 0.950 . S
C543 C541 1.387 . S
C543 C545 1.390 . S
C543 H547 0.950 . S
H544 C540 0.950 . S
C545 C543 1.390 . S
C545 C546 1.387 . S
C545 H548 0.950 . S
C546 C545 1.387 . S
C546 C549 1.387 . S
H547 C543 0.950 . S
H548 C545 0.950 . S
C549 C540 1.390 . S
C549 H542 0.950 . S
C549 C546 1.387 . S
C550 C551 1.387 . S
C550 H554 0.950 . S
C550 C559 1.390 . S
C551 C550 1.387 . S
C551 C553 1.387 . S
H552 C559 0.950 . S
C553 C551 1.387 . S
C553 C555 1.390 . S
C553 H557 0.950 . S
H554 C550 0.950 . S
C555 C553 1.390 . S
C555 C556 1.387 . S
C555 H558 0.950 . S
C556 C555 1.387 . S
C556 C559 1.387 . S
H557 C553 0.950 . S
H558 C555 0.950 . S
C559 C550 1.390 . S
C559 H552 0.950 . S
C559 C556 1.387 . S
C560 C561 1.387 . S
C560 H564 0.950 . S
C560 C569 1.390 1_655 S
C561 C560 1.387 . S
C561 C563 1.387 1_655 S
H562 C569 0.950 . S
C563 C561 1.387 1_455 S
C563 C565 1.390 . S
C563 H567 0.950 . S
H564 C560 0.950 . S
C565 C563 1.390 . S
C565 C566 1.387 . S
C565 H568 0.950 . S
C566 C565 1.387 . S
C566 C569 1.387 . S
H567 C563 0.950 . S
H568 C565 0.950 . S
C569 C560 1.390 1_455 S
C569 H562 0.950 . S
C569 C566 1.387 . S
C570 C571 1.387 1_545 S
C570 H574 0.950 . S
C570 C579 1.390 . S
C571 C570 1.387 1_565 S
C571 C573 1.387 . S
H572 C579 0.950 . S
C573 C571 1.387 . S
C573 C575 1.390 . S
C573 H577 0.950 . S
H574 C570 0.950 . S
C575 C573 1.390 . S
C575 C576 1.387 1_565 S
C575 H578 0.950 . S
C576 C575 1.387 1_545 S
C576 C579 1.387 . S
H577 C573 0.950 . S
H578 C575 0.950 . S
C579 C570 1.390 . S
C579 H572 0.950 . S
C579 C576 1.387 . S
C580 C581 1.387 . S
C580 H584 0.950 . S
C580 C589 1.390 . S
C581 C580 1.387 . S
C581 C583 1.387 . S
H582 C589 0.950 . S
C583 C581 1.387 . S
C583 C585 1.390 . S
C583 H587 0.950 . S
H584 C580 0.950 . S
C585 C583 1.390 . S
C585 C586 1.387 . S
C585 H588 0.950 . S
C586 C585 1.387 . S
C586 C589 1.387 . S
H587 C583 0.950 . S
H588 C585 0.950 . S
C589 C580 1.390 . S
C589 H582 0.950 . S
C589 C586 1.387 . S
C590 C591 1.387 . S
C590 H594 0.950 . S
C590 C599 1.390 . S
C591 C590 1.387 . S
C591 C593 1.387 . S
H592 C599 0.950 . S
C593 C591 1.387 . S
C593 C595 1.390 . S
C593 H597 0.950 . S
H594 C590 0.950 . S
C595 C593 1.390 . S
C595 C596 1.387 . S
C595 H598 0.950 . S
C596 C595 1.387 . S
C596 C599 1.387 . S
H597 C593 0.950 . S
H598 C595 0.950 . S
C599 C590 1.390 . S
C599 H592 0.950 . S
C599 C596 1.387 . S
C600 C601 1.387 . S
C600 H604 0.950 1_556 S
C600 C609 1.390 . S
C601 C600 1.387 . S
C601 C603 1.387 . S
H602 C609 0.950 1_554 S
C603 C601 1.387 . S
C603 C605 1.390 . S
C603 H607 0.950 . S
H604 C600 0.950 1_554 S
C605 C603 1.390 . S
C605 C606 1.387 . S
C605 H608 0.950 . S
C606 C605 1.387 . S
C606 C609 1.387 . S
H607 C603 0.950 . S
H608 C605 0.950 . S
C609 C600 1.390 . S
C609 H602 0.950 1_556 S
C609 C606 1.387 . S
C610 C611 1.387 . S
C610 H614 0.950 . S
C610 C619 1.390 . S
C611 C610 1.387 . S
C611 C613 1.387 . S
H612 C619 0.950 . S
C613 C611 1.387 . S
C613 C615 1.390 . S
C613 H617 0.950 1_545 S
H614 C610 0.950 . S
C615 C613 1.390 . S
C615 C616 1.387 . S
C615 H618 0.950 1_545 S
C616 C615 1.387 . S
C616 C619 1.387 . S
H617 C613 0.950 1_565 S
H618 C615 0.950 1_565 S
C619 C610 1.390 . S
C619 H612 0.950 . S
C619 C616 1.387 . S
C620 C621 1.387 . S
C620 H624 0.950 1_556 S
C620 C629 1.390 . S
C621 C620 1.387 . S
C621 C623 1.387 . S
H622 C629 0.950 . S
C623 C621 1.387 . S
C623 C625 1.390 . S
C623 H627 0.950 . S
H624 C620 0.950 1_554 S
C625 C623 1.390 . S
C625 C626 1.387 . S
C625 H628 0.950 . S
C626 C625 1.387 . S
C626 C629 1.387 . S
H627 C623 0.950 . S
H628 C625 0.950 . S
C629 C620 1.390 . S
C629 H622 0.950 . S
C629 C626 1.387 . S
C630 C631 1.387 . S
C630 H634 0.950 . S
C630 C639 1.390 . S
C631 C630 1.387 . S
C631 C633 1.387 . S
H632 C639 0.950 . S
C633 C631 1.387 . S
C633 C635 1.390 . S
C633 H637 0.950 . S
H634 C630 0.950 . S
C635 C633 1.390 . S
C635 C636 1.387 . S
C635 H638 0.950 . S
C636 C635 1.387 . S
C636 C639 1.387 . S
H637 C633 0.950 . S
H638 C635 0.950 . S
C639 C630 1.390 . S
C639 H632 0.950 . S
C639 C636 1.387 . S
C640 C641 1.387 1_455 S
C640 H644 0.950 . S
C640 C649 1.390 . S
C641 C640 1.387 1_655 S
C641 C643 1.387 . S
H642 C649 0.950 . S
C643 C641 1.387 . S
C643 C645 1.390 . S
C643 H647 0.950 . S
H644 C640 0.950 . S
C645 C643 1.390 . S
C645 C646 1.387 . S
C645 H648 0.950 . S
C646 C645 1.387 . S
C646 C649 1.387 1_655 S
H647 C643 0.950 . S
H648 C645 0.950 . S
C649 C640 1.390 . S
C649 H642 0.950 . S
C649 C646 1.387 1_455 S
C650 C651 1.387 1_545 S
C650 H654 0.950 . S
C650 C659 1.390 . S
C651 C650 1.387 1_565 S
C651 C653 1.387 . S
H652 C659 0.950 . S
C653 C651 1.387 . S
C653 C655 1.390 . S
C653 H657 0.950 . S
H654 C650 0.950 . S
C655 C653 1.390 . S
C655 C656 1.387 . S
C655 H658 0.950 . S
C656 C655 1.387 . S
C656 C659 1.387 1_565 S
H657 C653 0.950 . S
H658 C655 0.950 . S
C659 C650 1.390 . S
C659 H652 0.950 . S
C659 C656 1.387 1_545 S
C660 C661 1.387 . S
C660 H664 0.950 . S
C660 C669 1.390 . S
C661 C660 1.387 . S
C661 C663 1.387 . S
H662 C669 0.950 . S
C663 C661 1.387 . S
C663 C665 1.390 . S
C663 H667 0.950 . S
H664 C660 0.950 . S
C665 C663 1.390 . S
C665 C666 1.387 . S
C665 H668 0.950 . S
C666 C665 1.387 . S
C666 C669 1.387 . S
H667 C663 0.950 . S
H668 C665 0.950 . S
C669 C660 1.390 . S
C669 H662 0.950 . S
C669 C666 1.387 . S
C670 C671 1.387 . S
C670 H674 0.950 . S
C670 C679 1.390 . S
C671 C670 1.387 . S
C671 C673 1.387 . S
H672 C679 0.950 . S
C673 C671 1.387 . S
C673 C675 1.390 . S
C673 H677 0.950 . S
H674 C670 0.950 . S
C675 C673 1.390 . S
C675 C676 1.387 . S
C675 H678 0.950 . S
C676 C675 1.387 . S
C676 C679 1.387 . S
H677 C673 0.950 . S
H678 C675 0.950 . S
C679 C670 1.390 . S
C679 H672 0.950 . S
C679 C676 1.387 . S
C441 C82 1.804 . S
C446 C172 2.173 . S
C456 C255 2.179 . S
C451 C95 1.804 . S
C466 C340 2.174 . S
C461 C56 1.803 . S
C476 C424 2.160 . S
C471 C69 1.795 . S
C486 C160 2.168 1_564 S
C481 C30 1.773 . S
C491 C43 1.769 . S
C496 C243 2.179 1_554 S
C501 C4 1.770 . S
C506 C328 2.173 1_554 S
C511 C17 1.759 . S
C516 C412 2.159 1_654 S
C526 C162 0.773 . S
C521 C74 0.775 . S
C536 C258 0.757 1_545 S
C531 C87 0.759 . S
C546 C330 0.783 . S
C541 C100 0.776 . S
C551 C61 0.761 . S
C556 C414 0.764 . S
C561 C22 0.770 . S
C566 C174 0.777 . S
C576 C246 0.763 . S
C571 C35 0.758 . S
C586 C342 0.780 . S
C581 C48 0.780 . S
C591 C9 0.761 . S
C596 C426 0.759 . S
C601 C73 2.029 . S
C606 C159 2.286 . S
C611 C86 2.036 . S
C616 C244 2.333 . S
C626 C327 2.302 . S
C621 C99 2.042 . S
C636 C411 2.307 . S
C631 C60 2.050 . S
C641 C21 2.029 . S
C646 C171 2.287 . S
C656 C256 2.332 1_565 S
C651 C34 2.034 . S
C666 C339 2.303 . S
C661 C47 2.042 . S
C671 C8 2.045 . S
C676 C423 2.306 . S
