# Generated by pormake.
# Topology eea, (3,6)-cn, num edge types: 1
# Building blocks:
#     Node 0, Type 0, BuildingBlock: MIDCAF_clean_linker_0, # of connection points: 3
#     Node 1, Type 0, BuildingBlock: MIDCAF_clean_linker_0, # of connection points: 3
#     Node 2, Type 0, BuildingBlock: MIDCAF_clean_linker_0, # of connection points: 3
#     Node 3, Type 0, BuildingBlock: MIDCAF_clean_linker_0, # of connection points: 3
#     Node 4, Type 0, BuildingBlock: MIDCAF_clean_linker_0, # of connection points: 3
#     Node 5, Type 0, BuildingBlock: MIDCAF_clean_linker_0, # of connection points: 3
#     Node 6, Type 0, BuildingBlock: MIDCAF_clean_linker_0, # of connection points: 3
#     Node 7, Type 0, BuildingBlock: MIDCAF_clean_linker_0, # of connection points: 3
#     Node 8, Type 0, BuildingBlock: MIDCAF_clean_linker_0, # of connection points: 3
#     Node 9, Type 0, BuildingBlock: MIDCAF_clean_linker_0, # of connection points: 3
#     Node 10, Type 0, BuildingBlock: MIDCAF_clean_linker_0, # of connection points: 3
#     Node 11, Type 0, BuildingBlock: MIDCAF_clean_linker_0, # of connection points: 3
#     Node 12, Type 0, BuildingBlock: MIDCAF_clean_linker_0, # of connection points: 3
#     Node 13, Type 0, BuildingBlock: MIDCAF_clean_linker_0, # of connection points: 3
#     Node 14, Type 0, BuildingBlock: MIDCAF_clean_linker_0, # of connection points: 3
#     Node 15, Type 0, BuildingBlock: MIDCAF_clean_linker_0, # of connection points: 3
#     Node 16, Type 0, BuildingBlock: MIDCAF_clean_linker_0, # of connection points: 3
#     Node 17, Type 0, BuildingBlock: MIDCAF_clean_linker_0, # of connection points: 3
#     Node 18, Type 1, BuildingBlock: HISSIN_clean_sbu_0, # of connection points: 6
#     Node 19, Type 1, BuildingBlock: HISSIN_clean_sbu_0, # of connection points: 6
#     Node 20, Type 1, BuildingBlock: HISSIN_clean_sbu_0, # of connection points: 6
#     Node 21, Type 1, BuildingBlock: HISSIN_clean_sbu_0, # of connection points: 6
#     Node 22, Type 1, BuildingBlock: HISSIN_clean_sbu_0, # of connection points: 6
#     Node 23, Type 1, BuildingBlock: HISSIN_clean_sbu_0, # of connection points: 6
#     Node 24, Type 1, BuildingBlock: HISSIN_clean_sbu_0, # of connection points: 6
#     Node 25, Type 1, BuildingBlock: HISSIN_clean_sbu_0, # of connection points: 6
#     Node 26, Type 1, BuildingBlock: HISSIN_clean_sbu_0, # of connection points: 6
#     Edge 27, Type (0, 1), BuildingBlock: OJICUG_clean_linker_0, # of connection points: 2
#     Edge 28, Type (0, 1), BuildingBlock: OJICUG_clean_linker_0, # of connection points: 2
#     Edge 29, Type (0, 1), BuildingBlock: OJICUG_clean_linker_0, # of connection points: 2
#     Edge 30, Type (0, 1), BuildingBlock: OJICUG_clean_linker_0, # of connection points: 2
#     Edge 31, Type (0, 1), BuildingBlock: OJICUG_clean_linker_0, # of connection points: 2
#     Edge 32, Type (0, 1), BuildingBlock: OJICUG_clean_linker_0, # of connection points: 2
#     Edge 33, Type (0, 1), BuildingBlock: OJICUG_clean_linker_0, # of connection points: 2
#     Edge 34, Type (0, 1), BuildingBlock: OJICUG_clean_linker_0, # of connection points: 2
#     Edge 35, Type (0, 1), BuildingBlock: OJICUG_clean_linker_0, # of connection points: 2
#     Edge 36, Type (0, 1), BuildingBlock: OJICUG_clean_linker_0, # of connection points: 2
#     Edge 37, Type (0, 1), BuildingBlock: OJICUG_clean_linker_0, # of connection points: 2
#     Edge 38, Type (0, 1), BuildingBlock: OJICUG_clean_linker_0, # of connection points: 2
#     Edge 39, Type (0, 1), BuildingBlock: OJICUG_clean_linker_0, # of connection points: 2
#     Edge 40, Type (0, 1), BuildingBlock: OJICUG_clean_linker_0, # of connection points: 2
#     Edge 41, Type (0, 1), BuildingBlock: OJICUG_clean_linker_0, # of connection points: 2
#     Edge 42, Type (0, 1), BuildingBlock: OJICUG_clean_linker_0, # of connection points: 2
#     Edge 43, Type (0, 1), BuildingBlock: OJICUG_clean_linker_0, # of connection points: 2
#     Edge 44, Type (0, 1), BuildingBlock: OJICUG_clean_linker_0, # of connection points: 2
#     Edge 45, Type (0, 1), BuildingBlock: OJICUG_clean_linker_0, # of connection points: 2
#     Edge 46, Type (0, 1), BuildingBlock: OJICUG_clean_linker_0, # of connection points: 2
#     Edge 47, Type (0, 1), BuildingBlock: OJICUG_clean_linker_0, # of connection points: 2
#     Edge 48, Type (0, 1), BuildingBlock: OJICUG_clean_linker_0, # of connection points: 2
#     Edge 49, Type (0, 1), BuildingBlock: OJICUG_clean_linker_0, # of connection points: 2
#     Edge 50, Type (0, 1), BuildingBlock: OJICUG_clean_linker_0, # of connection points: 2
#     Edge 51, Type (0, 1), BuildingBlock: OJICUG_clean_linker_0, # of connection points: 2
#     Edge 52, Type (0, 1), BuildingBlock: OJICUG_clean_linker_0, # of connection points: 2
#     Edge 53, Type (0, 1), BuildingBlock: OJICUG_clean_linker_0, # of connection points: 2
#     Edge 54, Type (0, 1), BuildingBlock: OJICUG_clean_linker_0, # of connection points: 2
#     Edge 55, Type (0, 1), BuildingBlock: OJICUG_clean_linker_0, # of connection points: 2
#     Edge 56, Type (0, 1), BuildingBlock: OJICUG_clean_linker_0, # of connection points: 2
#     Edge 57, Type (0, 1), BuildingBlock: OJICUG_clean_linker_0, # of connection points: 2
#     Edge 58, Type (0, 1), BuildingBlock: OJICUG_clean_linker_0, # of connection points: 2
#     Edge 59, Type (0, 1), BuildingBlock: OJICUG_clean_linker_0, # of connection points: 2
#     Edge 60, Type (0, 1), BuildingBlock: OJICUG_clean_linker_0, # of connection points: 2
#     Edge 61, Type (0, 1), BuildingBlock: OJICUG_clean_linker_0, # of connection points: 2
#     Edge 62, Type (0, 1), BuildingBlock: OJICUG_clean_linker_0, # of connection points: 2
#     Edge 63, Type (0, 1), BuildingBlock: OJICUG_clean_linker_0, # of connection points: 2
#     Edge 64, Type (0, 1), BuildingBlock: OJICUG_clean_linker_0, # of connection points: 2
#     Edge 65, Type (0, 1), BuildingBlock: OJICUG_clean_linker_0, # of connection points: 2
#     Edge 66, Type (0, 1), BuildingBlock: OJICUG_clean_linker_0, # of connection points: 2
#     Edge 67, Type (0, 1), BuildingBlock: OJICUG_clean_linker_0, # of connection points: 2
#     Edge 68, Type (0, 1), BuildingBlock: OJICUG_clean_linker_0, # of connection points: 2
#     Edge 69, Type (0, 1), BuildingBlock: OJICUG_clean_linker_0, # of connection points: 2
#     Edge 70, Type (0, 1), BuildingBlock: OJICUG_clean_linker_0, # of connection points: 2
#     Edge 71, Type (0, 1), BuildingBlock: OJICUG_clean_linker_0, # of connection points: 2
#     Edge 72, Type (0, 1), BuildingBlock: OJICUG_clean_linker_0, # of connection points: 2
#     Edge 73, Type (0, 1), BuildingBlock: OJICUG_clean_linker_0, # of connection points: 2
#     Edge 74, Type (0, 1), BuildingBlock: OJICUG_clean_linker_0, # of connection points: 2
#     Edge 75, Type (0, 1), BuildingBlock: OJICUG_clean_linker_0, # of connection points: 2
#     Edge 76, Type (0, 1), BuildingBlock: OJICUG_clean_linker_0, # of connection points: 2
#     Edge 77, Type (0, 1), BuildingBlock: OJICUG_clean_linker_0, # of connection points: 2
#     Edge 78, Type (0, 1), BuildingBlock: OJICUG_clean_linker_0, # of connection points: 2
#     Edge 79, Type (0, 1), BuildingBlock: OJICUG_clean_linker_0, # of connection points: 2
#     Edge 80, Type (0, 1), BuildingBlock: OJICUG_clean_linker_0, # of connection points: 2
# Relax obj value: 0.035
# Max RMSD: 0.131
# Mean RMSD: 0.088
data_MOF--net-eea--node1-HISSIN_clean_sbu_0--node2-MIDCAF_clean_linker_0--edge1-OJICUG_clean_linker_0
_symmetry_space_group_name_H-M    P1
_symmetry_Int_Tables_number       1
_symmetry_cell_setting            triclinic
loop_
_symmetry_equiv_pos_as_xyz
'x, y, z'
_cell_length_a     48.282545
_cell_length_b     47.843465
_cell_length_c     73.133792
_cell_angle_alpha  93.116119
_cell_angle_beta   93.373223
_cell_angle_gamma 119.85144
loop_
_atom_site_label
_atom_site_type_symbol
_atom_site_fract_x
_atom_site_fract_y
_atom_site_fract_z
_atom_type_partial_charge
C0 C 0.28949 0.04834 0.39389 0.0
C1 C 0.26073 0.03212 0.38214 0.0
C2 C 0.24393 0.04848 0.37825 0.0
C3 C 0.25517 0.07984 0.38618 0.0
H4 H 0.26367 0.16881 0.37547 0.0
H5 H 0.24119 0.19984 0.36266 0.0
H6 H 0.26301 0.25568 0.4153 0.0
H7 H 0.28627 0.22513 0.4281 0.0
H8 H 0.32498 0.213 0.46053 0.0
H9 H 0.34155 0.21999 0.49338 0.0
H10 H 0.35121 0.13503 0.48748 0.0
H11 H 0.33442 0.12769 0.45476 0.0
H12 H 0.32211 0.09109 0.41152 0.0
H13 H 0.30351 0.03688 0.39689 0.0
H14 H 0.22138 0.03672 0.36961 0.0
H15 H 0.24114 0.09133 0.38324 0.0
N16 N 0.28302 0.14659 0.40114 0.0
N17 N 0.30422 0.18216 0.42808 0.0
N18 N 0.30806 0.13513 0.42561 0.0
C19 C 0.28895 0.17434 0.41078 0.0
C20 C 0.314 0.1627 0.43556 0.0
C21 C 0.2926 0.12697 0.4084 0.0
C22 C 0.27675 0.19442 0.40285 0.0
C23 C 0.26382 0.18777 0.38435 0.0
C24 C 0.25069 0.2054 0.377 0.0
C25 C 0.25009 0.23004 0.38798 0.0
C26 C 0.2634 0.23704 0.40642 0.0
C27 C 0.27667 0.21946 0.41377 0.0
C28 C 0.32793 0.16953 0.45499 0.0
C29 C 0.331 0.196 0.46616 0.0
C30 C 0.34062 0.20011 0.48498 0.0
C31 C 0.34728 0.17782 0.49301 0.0
C32 C 0.34565 0.15225 0.48172 0.0
C33 C 0.33615 0.14818 0.46293 0.0
C34 C 0.28307 0.09537 0.39852 0.0
C35 C 0.30034 0.07951 0.40217 0.0
C36 C 1.00243 0.23091 0.41502 0.0
C37 C 1.00095 0.23015 0.39565 0.0
C38 C 0.97067 0.21252 0.38545 0.0
C39 C 0.94291 0.19549 0.39428 0.0
H40 H 0.86756 0.09975 0.38937 0.0
H41 H 0.82987 0.04555 0.37533 0.0
H42 H 0.76891 0.03099 0.41903 0.0
H43 H 0.80709 0.08515 0.43344 0.0
H44 H 0.82664 0.14962 0.46133 0.0
H45 H 0.81749 0.16441 0.4918 0.0
H46 H 0.91964 0.22552 0.50561 0.0
H47 H 0.929 0.2109 0.47485 0.0
H48 H 0.97645 0.21516 0.43874 0.0
H49 H 0.02522 0.24361 0.42342 0.0
H50 H 0.96822 0.21194 0.37061 0.0
H51 H 0.92004 0.18184 0.38598 0.0
N52 N 0.89187 0.14799 0.41386 0.0
N53 N 0.86072 0.13959 0.43849 0.0
N54 N 0.91124 0.18669 0.43951 0.0
C55 C 0.8647 0.12914 0.42177 0.0
C56 C 0.88374 0.16831 0.44744 0.0
C57 C 0.91517 0.17669 0.42257 0.0
C58 C 0.8405 0.09688 0.41261 0.0
C59 C 0.84607 0.08517 0.39599 0.0
C60 C 0.82434 0.05407 0.38786 0.0
C61 C 0.79639 0.03392 0.39607 0.0
C62 C 0.79045 0.04577 0.4125 0.0
C63 C 0.81227 0.07692 0.42069 0.0
C64 C 0.87858 0.17897 0.46569 0.0
C65 C 0.84722 0.16637 0.47078 0.0
C66 C 0.84192 0.17503 0.48819 0.0
C67 C 0.86784 0.19617 0.50104 0.0
C68 C 0.89924 0.20911 0.49596 0.0
C69 C 0.90456 0.20084 0.47835 0.0
C70 C 0.94455 0.19626 0.41355 0.0
C71 C 0.97449 0.21448 0.42387 0.0
C72 C 0.79524 0.76926 0.41243 0.0
C73 C 0.80614 0.79488 0.40111 0.0
C74 C 0.83903 0.81203 0.39859 0.0
C75 C 0.86023 0.8034 0.40678 0.0
H76 H 0.94075 0.80095 0.3961 0.0
H77 H 0.9885 0.81413 0.38095 0.0
H78 H 0.01674 0.76818 0.42137 0.0
H79 H 0.96881 0.75523 0.43689 0.0
H80 H 0.92483 0.73132 0.47269 0.0
H81 H 0.91197 0.70496 0.5012 0.0
H82 H 0.81645 0.69113 0.49346 0.0
H83 H 0.82895 0.7169 0.46504 0.0
H84 H 0.80734 0.74096 0.42938 0.0
H85 H 0.77008 0.75508 0.41451 0.0
H86 H 0.84862 0.8324 0.39038 0.0
H87 H 0.88533 0.81711 0.40445 0.0
N88 N 0.89973 0.77659 0.41913 0.0
N89 N 0.91374 0.75196 0.44196 0.0
N90 N 0.86503 0.75197 0.44163 0.0
C91 C 0.92077 0.76834 0.42663 0.0
C92 C 0.88583 0.74372 0.44956 0.0
C93 C 0.87187 0.76852 0.42648 0.0
C94 C 0.95067 0.77686 0.41777 0.0
C95 C 0.95702 0.79358 0.40188 0.0
C96 C 0.98442 0.80103 0.39305 0.0
C97 C 0.00641 0.79203 0.39982 0.0
C98 C 1.00042 0.77569 0.41585 0.0
C99 C 0.97284 0.76813 0.42471 0.0
C100 C 0.87802 0.72642 0.46651 0.0
C101 C 0.90101 0.72245 0.47699 0.0
C102 C 0.8937 0.70749 0.4934 0.0
C103 C 0.86316 0.6959 0.49964 0.0
C104 C 0.84006 0.69936 0.48898 0.0
C105 C 0.84739 0.71443 0.47269 0.0
C106 C 0.84928 0.77776 0.41801 0.0
C107 C 0.8166 0.76098 0.42089 0.0
C108 C 0.00652 0.23194 0.60402 0.0
C109 C 0.9994 0.21379 0.61936 0.0
C110 C 0.02022 0.20286 0.62538 0.0
C111 C 0.04766 0.21032 0.6166 0.0
H112 H 0.12103 0.18998 0.61599 0.0
H113 H 0.15778 0.17524 0.63063 0.0
H114 H 0.23642 0.25202 0.60627 0.0
H115 H 0.19916 0.2656 0.59085 0.0
H116 H 0.17788 0.28916 0.55485 0.0
H117 H 0.19076 0.31473 0.52639 0.0
H118 H 0.09527 0.30082 0.51803 0.0
H119 H 0.08203 0.27465 0.54659 0.0
H120 H 0.0391 0.25385 0.58359 0.0
H121 H 0.99114 0.24096 0.59907 0.0
H122 H 0.01522 0.18827 0.63688 0.0
H123 H 0.06302 0.20147 0.62182 0.0
N124 N 0.10642 0.22968 0.60057 0.0
N125 N 0.14156 0.25442 0.57829 0.0
N126 N 0.09261 0.25404 0.57748 0.0
C127 C 0.13452 0.23794 0.59347 0.0
C128 C 0.12075 0.26243 0.5701 0.0
C129 C 0.08536 0.2377 0.59282 0.0
C130 C 0.15714 0.22901 0.60227 0.0
C131 C 0.14617 0.20369 0.61373 0.0
C132 C 0.16738 0.19537 0.62225 0.0
C133 C 0.20031 0.21252 0.61982 0.0
C134 C 0.21123 0.23785 0.60828 0.0
C135 C 0.18987 0.24581 0.5995 0.0
C136 C 0.12879 0.27961 0.55309 0.0
C137 C 0.15952 0.29156 0.54706 0.0
C138 C 0.16707 0.30652 0.53073 0.0
C139 C 0.14411 0.30991 0.51988 0.0
C140 C 0.11346 0.29834 0.52596 0.0
C141 C 0.10592 0.28349 0.54241 0.0
C142 C 0.05521 0.22894 0.60146 0.0
C143 C 0.03412 0.23945 0.59517 0.0
C144 C 0.73909 0.76773 0.61427 0.0
C145 C 0.75252 0.77462 0.63268 0.0
C146 C 0.75147 0.7988 0.64386 0.0
C147 C 0.73789 0.81617 0.63672 0.0
H148 H 0.76129 0.91285 0.63762 0.0
H149 H 0.78187 0.96773 0.65101 0.0
H150 H 0.69926 0.96789 0.62468 0.0
H151 H 0.67983 0.91338 0.61025 0.0
H152 H 0.66766 0.87708 0.56661 0.0
H153 H 0.65137 0.87017 0.53384 0.0
H154 H 0.65998 0.7846 0.52791 0.0
H155 H 0.67604 0.79115 0.5608 0.0
H156 H 0.71575 0.77953 0.5928 0.0
H157 H 0.7398 0.74944 0.60524 0.0
H158 H 0.76104 0.80424 0.65819 0.0
H159 H 0.73776 0.83483 0.64573 0.0
N160 N 0.71864 0.85751 0.62015 0.0
N161 N 0.69353 0.86914 0.5958 0.0
N162 N 0.69717 0.82201 0.5932 0.0
C163 C 0.7091 0.87721 0.61297 0.0
C164 C 0.68743 0.84155 0.5858 0.0
C165 C 0.71255 0.82974 0.61047 0.0
C166 C 0.71905 0.90894 0.62282 0.0
C167 C 0.74732 0.92447 0.63486 0.0
C168 C 0.75903 0.956 0.64265 0.0
C169 C 0.74235 0.97253 0.63894 0.0
C170 C 0.7132 0.9563 0.62753 0.0
C171 C 0.70187 0.92496 0.61937 0.0
C172 C 0.67359 0.8349 0.56637 0.0
C173 C 0.66577 0.85653 0.55843 0.0
C174 C 0.65657 0.85271 0.53961 0.0
C175 C 0.65483 0.82711 0.52829 0.0
C176 C 0.66102 0.8045 0.53632 0.0
C177 C 0.67034 0.80837 0.55517 0.0
C178 C 0.72493 0.80971 0.61822 0.0
C179 C 0.72535 0.78504 0.60712 0.0
C180 C 0.21533 0.96253 0.60808 0.0
C181 C 0.20919 0.97417 0.6245 0.0
C182 C 0.18126 0.9538 0.63267 0.0
C183 C 0.15982 0.9226 0.62454 0.0
H184 H 0.08696 0.82436 0.63465 0.0
H185 H 0.03835 0.79447 0.6497 0.0
H186 H 0.98241 0.76313 0.59656 0.0
H187 H 0.03159 0.79131 0.58159 0.0
H188 H 0.08398 0.78509 0.54962 0.0
H189 H 0.09451 0.76981 0.51943 0.0
H190 H 0.18912 0.85473 0.52618 0.0
H191 H 0.17909 0.86961 0.55614 0.0
H192 H 0.19926 0.9232 0.5872 0.0
H193 H 0.23686 0.9775 0.60158 0.0
H194 H 0.17561 0.96218 0.6452 0.0
H195 H 0.13838 0.90777 0.63115 0.0
N196 N 0.11506 0.8591 0.60678 0.0
N197 N 0.09718 0.81999 0.58138 0.0
N198 N 0.14672 0.86816 0.58237 0.0
C199 C 0.09253 0.82994 0.59814 0.0
C200 C 0.12457 0.83899 0.5735 0.0
C201 C 0.14213 0.87847 0.59894 0.0
C202 C 0.063 0.81004 0.60696 0.0
C203 C 0.06423 0.81076 0.62622 0.0
C204 C 0.03622 0.79388 0.63485 0.0
C205 C 0.00609 0.77649 0.62447 0.0
C206 C 0.00504 0.77566 0.60511 0.0
C207 C 0.03323 0.79191 0.59645 0.0
C208 C 0.1306 0.82865 0.55536 0.0
C209 C 0.1071 0.80034 0.5447 0.0
C210 C 0.11307 0.79165 0.52737 0.0
C211 C 0.14273 0.81095 0.52043 0.0
C212 C 0.16625 0.83895 0.53121 0.0
C213 C 0.1603 0.84766 0.5484 0.0
C214 C 0.16571 0.91103 0.608 0.0
C215 C 0.19384 0.9313 0.59991 0.0
C216 C 0.95181 0.38105 0.73313 0.0
C217 C 0.93106 0.36988 0.71678 0.0
C218 C 0.92446 0.39156 0.70795 0.0
C219 C 0.93714 0.42332 0.71575 0.0
H220 H 0.93072 0.50241 0.70963 0.0
H221 H 0.90685 0.53207 0.69681 0.0
H222 H 0.94611 0.60142 0.74493 0.0
H223 H 0.96946 0.57116 0.75814 0.0
H224 H 0.99897 0.55416 0.79316 0.0
H225 H 0.01536 0.56217 0.82611 0.0
H226 H 0.02418 0.47663 0.82166 0.0
H227 H 0.00759 0.46829 0.78888 0.0
H228 H 0.97961 0.42029 0.75384 0.0
H229 H 0.95784 0.36506 0.74006 0.0
H230 H 0.90839 0.38365 0.69541 0.0
H231 H 0.93063 0.43902 0.70887 0.0
N232 N 0.95777 0.4861 0.7342 0.0
N233 N 0.97887 0.52256 0.7608 0.0
N234 N 0.98144 0.47483 0.75939 0.0
C235 C 0.96395 0.51433 0.74339 0.0
C236 C 0.98786 0.50296 0.76886 0.0
C237 C 0.96649 0.46625 0.74205 0.0
C238 C 0.95192 0.53424 0.73501 0.0
C239 C 0.93453 0.52408 0.71751 0.0
C240 C 0.92094 0.54122 0.71006 0.0
C241 C 0.92449 0.56906 0.71986 0.0
C242 C 0.94254 0.57976 0.73716 0.0
C243 C 0.95612 0.56253 0.74467 0.0
C244 C 1.00153 0.51033 0.78836 0.0
C245 C 0.00476 0.53725 0.79914 0.0
C246 C 0.01426 0.54194 0.81802 0.0
C247 C 0.02064 0.51978 0.82647 0.0
C248 C 0.01882 0.49375 0.81556 0.0
C249 C 0.00944 0.4891 0.79673 0.0
C250 C 0.95661 0.43406 0.7326 0.0
C251 C 0.96444 0.41279 0.74096 0.0
C252 C 0.66645 0.55784 0.74688 0.0
C253 C 0.66806 0.5478 0.7287 0.0
C254 C 0.64164 0.51943 0.71986 0.0
C255 C 0.61419 0.50182 0.72884 0.0
H256 H 0.53926 0.40823 0.73062 0.0
H257 H 0.49931 0.35531 0.71608 0.0
H258 H 0.42612 0.36133 0.74451 0.0
H259 H 0.46671 0.414 0.7598 0.0
H260 H 0.49239 0.4729 0.79266 0.0
H261 H 0.48286 0.48869 0.82277 0.0
H262 H 0.58502 0.54721 0.83759 0.0
H263 H 0.59474 0.53148 0.80722 0.0
H264 H 0.63834 0.54886 0.76978 0.0
H265 H 0.68657 0.5793 0.75424 0.0
H266 H 0.64176 0.5112 0.70579 0.0
H267 H 0.59421 0.48034 0.7214 0.0
N268 N 0.55894 0.4646 0.74776 0.0
N269 N 0.52638 0.45967 0.77124 0.0
N270 N 0.57782 0.50555 0.77215 0.0
C271 C 0.53095 0.44743 0.75529 0.0
C272 C 0.54969 0.48862 0.77982 0.0
C273 C 0.58242 0.49369 0.75595 0.0
C274 C 0.50615 0.41538 0.74632 0.0
C275 C 0.51464 0.39836 0.73375 0.0
C276 C 0.49161 0.36801 0.72531 0.0
C277 C 0.45932 0.35406 0.72894 0.0
C278 C 0.45079 0.37111 0.74153 0.0
C279 C 0.47402 0.40138 0.75023 0.0
C280 C 0.54435 0.50077 0.79757 0.0
C281 C 0.51289 0.48937 0.80224 0.0
C282 C 0.50739 0.49861 0.81946 0.0
C283 C 0.53318 0.51917 0.83254 0.0
C284 C 0.56469 0.5312 0.82779 0.0
C285 C 0.57023 0.52233 0.81039 0.0
C286 C 0.61227 0.51217 0.74688 0.0
C287 C 0.63883 0.54031 0.75585 0.0
C288 C 0.45809 0.10897 0.74933 0.0
C289 C 0.46494 0.12573 0.73348 0.0
C290 C 0.49495 0.13621 0.72679 0.0
C291 C 0.51736 0.12972 0.73555 0.0
H292 H 0.61147 0.15229 0.73659 0.0
H293 H 0.65959 0.16691 0.72142 0.0
H294 H 0.67173 0.09525 0.74874 0.0
H295 H 0.62417 0.08165 0.76458 0.0
H296 H 0.58682 0.06409 0.80428 0.0
H297 H 0.57515 0.03745 0.83266 0.0
H298 H 0.48463 0.03551 0.83059 0.0
H299 H 0.49584 0.0614 0.80219 0.0
H300 H 0.47429 0.08918 0.77017 0.0
H301 H 0.43509 0.10029 0.75475 0.0
H302 H 0.50127 0.14967 0.71481 0.0
H303 H 0.54013 0.13814 0.7299 0.0
N304 N 0.56202 0.11352 0.7528 0.0
N305 N 0.57723 0.09033 0.77596 0.0
N306 N 0.52799 0.08923 0.77565 0.0
C307 C 0.58371 0.10631 0.7605 0.0
C308 C 0.54939 0.08183 0.78369 0.0
C309 C 0.53408 0.10503 0.7602 0.0
C310 C 0.61383 0.11569 0.7518 0.0
C311 C 0.62443 0.13967 0.73943 0.0
C312 C 0.65202 0.14793 0.73058 0.0
C313 C 0.66965 0.13216 0.73363 0.0
C314 C 0.65918 0.10834 0.74618 0.0
C315 C 0.63175 0.10037 0.75524 0.0
C316 C 0.54234 0.06501 0.80084 0.0
C317 C 0.56436 0.05787 0.80982 0.0
C318 C 0.55774 0.04273 0.82618 0.0
C319 C 0.5289 0.03425 0.83396 0.0
C320 C 0.50684 0.04118 0.8249 0.0
C321 C 0.51344 0.05631 0.8086 0.0
C322 C 0.51042 0.11259 0.75127 0.0
C323 C 0.48055 0.10246 0.75812 0.0
C324 C 0.67184 0.56235 0.9374 0.0
C325 C 0.6655 0.54497 0.95305 0.0
C326 C 0.6875 0.53582 0.95956 0.0
C327 C 0.71523 0.54413 0.9509 0.0
H328 H 0.79033 0.52577 0.95038 0.0
H329 H 0.82855 0.51268 0.96478 0.0
H330 H 0.90495 0.58975 0.93923 0.0
H331 H 0.86623 0.60159 0.92405 0.0
H332 H 0.83847 0.61089 0.88429 0.0
H333 H 0.84965 0.63409 0.85514 0.0
H334 H 0.76181 0.63739 0.85284 0.0
H335 H 0.75039 0.61409 0.88239 0.0
H336 H 0.70398 0.58434 0.91679 0.0
H337 H 0.65555 0.57004 0.93207 0.0
H338 H 0.68318 0.52188 0.97132 0.0
H339 H 0.73146 0.53655 0.95647 0.0
N340 N 0.77383 0.56412 0.93459 0.0
N341 N 0.8078 0.58779 0.91167 0.0
N342 N 0.75837 0.58634 0.91093 0.0
C343 C 0.80175 0.57249 0.92725 0.0
C344 C 0.7863 0.59471 0.90331 0.0
C345 C 0.75203 0.57103 0.92666 0.0
C346 C 0.82523 0.56476 0.93609 0.0
C347 C 0.81529 0.5399 0.94782 0.0
C348 C 0.83734 0.53254 0.95619 0.0
C349 C 0.87008 0.55025 0.95334 0.0
C350 C 0.87995 0.57516 0.94156 0.0
C351 C 0.85776 0.58213 0.93293 0.0
C352 C 0.79333 0.61031 0.88577 0.0
C353 C 0.8214 0.61654 0.87772 0.0
C354 C 0.82783 0.62975 0.86088 0.0
C355 C 0.80649 0.63729 0.85155 0.0
C356 C 0.77878 0.63193 0.85973 0.0
C357 C 0.77219 0.61844 0.87663 0.0
C358 C 0.72188 0.56181 0.93538 0.0
C359 C 0.69971 0.57068 0.92867 0.0
C360 C 0.40116 0.08981 0.94547 0.0
C361 C 0.41881 0.10006 0.9629 0.0
C362 C 0.42297 0.12818 0.97264 0.0
C363 C 0.41006 0.14583 0.96514 0.0
H364 H 0.43079 0.23999 0.96578 0.0
H365 H 0.45107 0.29467 0.97951 0.0
H366 H 0.36773 0.29431 0.9539 0.0
H367 H 0.34854 0.24004 0.93917 0.0
H368 H 0.32905 0.19913 0.8972 0.0
H369 H 0.31036 0.19168 0.86479 0.0
H370 H 0.32723 0.1115 0.85674 0.0
H371 H 0.34568 0.11858 0.88933 0.0
H372 H 0.37497 0.09922 0.92439 0.0
H373 H 0.39728 0.06802 0.93771 0.0
H374 H 0.43685 0.13704 0.98596 0.0
H375 H 0.41416 0.16756 0.97307 0.0
N376 N 0.38748 0.18432 0.9489 0.0
N377 N 0.36133 0.19515 0.92478 0.0
N378 N 0.3643 0.14758 0.92249 0.0
C379 C 0.37785 0.20389 0.94169 0.0
C380 C 0.35445 0.16705 0.91506 0.0
C381 C 0.38062 0.15602 0.93954 0.0
C382 C 0.38814 0.23584 0.95136 0.0
C383 C 0.41664 0.25149 0.96322 0.0
C384 C 0.42819 0.28287 0.9712 0.0
C385 C 0.41113 0.29914 0.96786 0.0
C386 C 0.38192 0.2829 0.95649 0.0
C387 C 0.37074 0.2517 0.94815 0.0
C388 C 0.3393 0.15971 0.89588 0.0
C389 C 0.32853 0.17966 0.88863 0.0
C390 C 0.31793 0.17553 0.87001 0.0
C391 C 0.31777 0.15133 0.85818 0.0
C392 C 0.32698 0.1303 0.86555 0.0
C393 C 0.33764 0.13444 0.88423 0.0
C394 C 0.39274 0.13595 0.94761 0.0
C395 C 0.38822 0.10758 0.93789 0.0
C396 C 0.88599 0.30573 0.94248 0.0
C397 C 0.88018 0.31827 0.95868 0.0
C398 C 0.85158 0.29918 0.96662 0.0
C399 C 0.82908 0.26836 0.95842 0.0
H400 H 0.74803 0.18627 0.96716 0.0
H401 H 0.69998 0.1544 0.98219 0.0
H402 H 0.65531 0.09033 0.93223 0.0
H403 H 0.70399 0.1218 0.91724 0.0
H404 H 0.74963 0.13412 0.88202 0.0
H405 H 0.76016 0.1202 0.85145 0.0
H406 H 0.8589 0.19714 0.86198 0.0
H407 H 0.84882 0.2105 0.89226 0.0
H408 H 0.86871 0.2661 0.92172 0.0
H409 H 0.90802 0.31969 0.93618 0.0
H410 H 0.84623 0.30833 0.97899 0.0
H411 H 0.80714 0.2545 0.96481 0.0
N412 N 0.7827 0.20527 0.94058 0.0
N413 N 0.76453 0.16565 0.91544 0.0
N414 N 0.81478 0.21297 0.91655 0.0
C415 C 0.75974 0.17619 0.93203 0.0
C416 C 0.79226 0.18402 0.90768 0.0
C417 C 0.81023 0.22383 0.93293 0.0
C418 C 0.73 0.15658 0.94094 0.0
C419 C 0.728 0.16543 0.95929 0.0
C420 C 0.70028 0.14726 0.96793 0.0
C421 C 0.67369 0.11981 0.95845 0.0
C422 C 0.67552 0.11108 0.94004 0.0
C423 C 0.7034 0.12918 0.9314 0.0
C424 C 0.79828 0.17355 0.88959 0.0
C425 C 0.77365 0.14776 0.87785 0.0
C426 C 0.77963 0.13992 0.86031 0.0
C427 C 0.8104 0.15752 0.85428 0.0
C428 C 0.83506 0.18271 0.86624 0.0
C429 C 0.82912 0.19059 0.88362 0.0
C430 C 0.83465 0.25595 0.94206 0.0
C431 C 0.86349 0.27491 0.93426 0.0
C432 C 0.61077 0.70368 0.06739 0.0
C433 C 0.59111 0.69342 0.05064 0.0
C434 C 0.58518 0.71564 0.04195 0.0
C435 C 0.59733 0.74699 0.05027 0.0
H436 H 0.6005 0.83219 0.04322 0.0
H437 H 0.57874 0.86322 0.02954 0.0
H438 H 0.59537 0.91723 0.08225 0.0
H439 H 0.61788 0.88668 0.09594 0.0
H440 H 0.65569 0.87462 0.12944 0.0
H441 H 0.6729 0.88274 0.16227 0.0
H442 H 0.67907 0.79567 0.15765 0.0
H443 H 0.66155 0.78719 0.125 0.0
H444 H 0.63712 0.74176 0.08892 0.0
H445 H 0.61628 0.68727 0.07423 0.0
H446 H 0.56996 0.70842 0.0291 0.0
H447 H 0.59131 0.76309 0.04347 0.0
N448 N 0.61655 0.80866 0.06967 0.0
N449 N 0.63556 0.84353 0.09692 0.0
N450 N 0.63828 0.79587 0.0951 0.0
C451 C 0.62199 0.83632 0.07922 0.0
C452 C 0.64397 0.82346 0.10492 0.0
C453 C 0.62464 0.78832 0.07747 0.0
C454 C 0.61086 0.85684 0.07073 0.0
C455 C 0.5997 0.85078 0.05192 0.0
C456 C 0.58699 0.86842 0.04407 0.0
C457 C 0.58504 0.89247 0.05483 0.0
C458 C 0.5968 0.89903 0.07355 0.0
C459 C 0.60965 0.88146 0.08141 0.0
C460 C 0.65693 0.8301 0.12454 0.0
C461 C 0.66092 0.8573 0.13537 0.0
C462 C 0.67092 0.86206 0.15418 0.0
C463 C 0.67706 0.83968 0.16256 0.0
C464 C 0.67397 0.81303 0.15165 0.0
C465 C 0.66408 0.8083 0.13288 0.0
C466 C 0.61556 0.75674 0.06752 0.0
C467 C 0.62285 0.73499 0.07575 0.0
C468 C 0.33198 0.89275 0.07868 0.0
C469 C 0.33155 0.89334 0.05939 0.0
C470 C 0.30164 0.87842 0.04877 0.0
C471 C 0.27312 0.8626 0.05709 0.0
H472 H 0.18801 0.77373 0.04724 0.0
H473 H 0.14989 0.71993 0.03252 0.0
H474 H 0.10033 0.6964 0.08165 0.0
H475 H 0.13778 0.75038 0.09621 0.0
H476 H 0.15494 0.815 0.12377 0.0
H477 H 0.14598 0.82556 0.15504 0.0
H478 H 0.24828 0.88417 0.16944 0.0
H479 H 0.25746 0.87343 0.13784 0.0
H480 H 0.30449 0.87702 0.10184 0.0
H481 H 0.3544 0.90338 0.08737 0.0
H482 H 0.30008 0.87902 0.03399 0.0
H483 H 0.25054 0.85098 0.04846 0.0
N484 N 0.21909 0.816 0.07519 0.0
N485 N 0.18787 0.80699 0.09982 0.0
N486 N 0.23989 0.85213 0.10206 0.0
C487 C 0.19132 0.79761 0.0827 0.0
C488 C 0.2118 0.83421 0.10955 0.0
C489 C 0.24342 0.84321 0.08472 0.0
C490 C 0.16621 0.76632 0.07299 0.0
C491 C 0.16879 0.75724 0.05485 0.0
C492 C 0.14704 0.72632 0.04644 0.0
C493 C 0.12233 0.70373 0.056 0.0
C494 C 0.11893 0.71327 0.07384 0.0
C495 C 0.14056 0.74425 0.08223 0.0
C496 C 0.20696 0.84321 0.12831 0.0
C497 C 0.17563 0.83033 0.13351 0.0
C498 C 0.17043 0.83659 0.15143 0.0
C499 C 0.1964 0.85571 0.1647 0.0
C500 C 0.2278 0.86918 0.15949 0.0
C501 C 0.23304 0.86319 0.14141 0.0
C502 C 0.27369 0.86191 0.07628 0.0
C503 C 0.30335 0.87754 0.08703 0.0
C504 C 0.12768 0.4479 0.08258 0.0
C505 C 0.13535 0.4648 0.06678 0.0
C506 C 0.16511 0.47396 0.06009 0.0
C507 C 0.18644 0.46596 0.06874 0.0
H508 H 0.27797 0.48265 0.06903 0.0
H509 H 0.32485 0.49454 0.05325 0.0
H510 H 0.33304 0.42019 0.07997 0.0
H511 H 0.28663 0.40923 0.09644 0.0
H512 H 0.24843 0.39173 0.13625 0.0
H513 H 0.23674 0.36761 0.1655 0.0
H514 H 0.15295 0.37806 0.16564 0.0
H515 H 0.16455 0.40227 0.13674 0.0
H516 H 0.1422 0.42651 0.10327 0.0
H517 H 0.10483 0.44022 0.088 0.0
H518 H 0.17205 0.4875 0.04816 0.0
H519 H 0.20904 0.47336 0.06308 0.0
N520 N 0.22832 0.44593 0.08546 0.0
N521 N 0.24213 0.4217 0.10863 0.0
N522 N 0.19464 0.42403 0.10874 0.0
C523 C 0.24896 0.43724 0.09301 0.0
C524 C 0.21497 0.41516 0.11665 0.0
C525 C 0.20109 0.43937 0.09313 0.0
C526 C 0.27841 0.44487 0.084 0.0
C527 C 0.28977 0.46882 0.07161 0.0
C528 C 0.31663 0.47551 0.0624 0.0
C529 C 0.33276 0.45817 0.0651 0.0
C530 C 0.32158 0.43438 0.07766 0.0
C531 C 0.29485 0.42797 0.08709 0.0
C532 C 0.20761 0.39922 0.13409 0.0
C533 C 0.22746 0.38882 0.14249 0.0
C534 C 0.22068 0.37482 0.15922 0.0
C535 C 0.19404 0.37112 0.168 0.0
C536 C 0.17397 0.38103 0.15944 0.0
C537 C 0.1806 0.3948 0.14274 0.0
C538 C 0.17864 0.44862 0.08437 0.0
C539 C 0.14908 0.43989 0.09128 0.0
C540 C 0.34684 0.8969 0.2736 0.0
C541 C 0.33634 0.87319 0.28622 0.0
C542 C 0.3537 0.85712 0.28918 0.0
C543 C 0.38107 0.86502 0.28021 0.0
H544 H 0.46585 0.86798 0.29087 0.0
H545 H 0.50497 0.85722 0.30642 0.0
H546 H 0.57025 0.90382 0.26559 0.0
H547 H 0.53086 0.91412 0.24974 0.0
H548 H 0.50822 0.93745 0.21661 0.0
H549 H 0.52048 0.96281 0.18815 0.0
H550 H 0.43381 0.96836 0.18678 0.0
H551 H 0.42096 0.94209 0.21531 0.0
H552 H 0.38175 0.92318 0.25502 0.0
H553 H 0.33447 0.91017 0.27109 0.0
H554 H 0.34608 0.83819 0.29838 0.0
H555 H 0.39383 0.85219 0.28301 0.0
N556 N 0.44351 0.89106 0.26712 0.0
N557 N 0.47748 0.91429 0.24413 0.0
N558 N 0.42832 0.91341 0.24342 0.0
C559 C 0.47141 0.89918 0.2598 0.0
C560 C 0.45615 0.92146 0.23577 0.0
C561 C 0.42184 0.89802 0.25911 0.0
C562 C 0.49513 0.89204 0.26903 0.0
C563 C 0.48848 0.87592 0.28513 0.0
C564 C 0.51103 0.8699 0.29414 0.0
C565 C 0.54084 0.87982 0.28733 0.0
C566 C 0.5474 0.89558 0.27112 0.0
C567 C 0.52483 0.90163 0.26208 0.0
C568 C 0.46352 0.93762 0.2184 0.0
C569 C 0.49166 0.94406 0.21037 0.0
C570 C 0.49889 0.9589 0.19401 0.0
C571 C 0.47829 0.9679 0.18515 0.0
C572 C 0.4501 0.96151 0.19313 0.0
C573 C 0.4428 0.94656 0.20956 0.0
C574 C 0.39175 0.88892 0.26779 0.0
C575 C 0.37408 0.9045 0.2644 0.0
C576 C 0.08086 0.44051 0.27905 0.0
C577 C 0.08325 0.43864 0.29818 0.0
C578 C 0.07014 0.45298 0.30944 0.0
C579 C 0.05622 0.4698 0.30187 0.0
H580 H 0.07472 0.56582 0.31101 0.0
H581 H 0.09712 0.62108 0.32484 0.0
H582 H 0.04531 0.63968 0.28156 0.0
H583 H 0.02332 0.58467 0.26747 0.0
H584 H 0.00439 0.54386 0.2303 0.0
H585 H 0.98943 0.53812 0.19745 0.0
H586 H 0.99527 0.45099 0.19128 0.0
H587 H 0.01005 0.45639 0.22431 0.0
H588 H 0.06553 0.45835 0.25673 0.0
H589 H 0.09112 0.43035 0.26991 0.0
H590 H 0.0707 0.45139 0.32416 0.0
H591 H 0.04699 0.4812 0.31095 0.0
N592 N 0.04696 0.51904 0.2852 0.0
N593 N 0.02549 0.53278 0.26006 0.0
N594 N 0.02953 0.48597 0.25725 0.0
C595 C 0.03859 0.53949 0.27778 0.0
C596 C 0.02068 0.50604 0.24972 0.0
C597 C 0.04237 0.4922 0.27505 0.0
C598 C 0.04762 0.57091 0.28794 0.0
C599 C 0.06764 0.58147 0.30457 0.0
C600 C 0.08044 0.61315 0.31256 0.0
C601 C 0.07337 0.63486 0.30411 0.0
C602 C 0.05175 0.6237 0.28815 0.0
C603 C 0.03901 0.59208 0.28014 0.0
C604 C 0.00875 0.50074 0.22999 0.0
C605 C 1.00229 0.52328 0.22205 0.0
C606 C 0.99386 0.52014 0.20318 0.0
C607 C 0.99155 0.49434 0.1918 0.0
C608 C 0.99677 0.47107 0.19976 0.0
C609 C 0.00536 0.47426 0.21867 0.0
C610 C 0.05439 0.47201 0.28283 0.0
C611 C 0.06627 0.45669 0.27145 0.0
C612 C 0.55423 0.64088 0.27772 0.0
C613 C 0.55144 0.6499 0.29583 0.0
C614 C 0.52638 0.62737 0.30521 0.0
C615 C 0.50388 0.597 0.29645 0.0
H616 H 0.41816 0.51926 0.30224 0.0
H617 H 0.36942 0.48868 0.3169 0.0
H618 H 0.32199 0.4299 0.26557 0.0
H619 H 0.37135 0.46007 0.25089 0.0
H620 H 0.41636 0.47834 0.21376 0.0
H621 H 0.42656 0.46791 0.18238 0.0
H622 H 0.52854 0.52821 0.19757 0.0
H623 H 0.51846 0.53917 0.22842 0.0
H624 H 0.53427 0.6046 0.25487 0.0
H625 H 0.57306 0.65776 0.27004 0.0
H626 H 0.52394 0.63331 0.31931 0.0
H627 H 0.48457 0.58048 0.30401 0.0
N628 N 0.45299 0.53898 0.27583 0.0
N629 N 0.43302 0.50151 0.24956 0.0
N630 N 0.48468 0.54723 0.25154 0.0
C631 C 0.42897 0.51117 0.26662 0.0
C632 C 0.46112 0.51947 0.24204 0.0
C633 C 0.48083 0.55719 0.26839 0.0
C634 C 0.39881 0.49213 0.27532 0.0
C635 C 0.39739 0.49987 0.29398 0.0
C636 C 0.36927 0.48245 0.30242 0.0
C637 C 0.34166 0.45687 0.29245 0.0
C638 C 0.34294 0.4492 0.27375 0.0
C639 C 0.37123 0.46655 0.2653 0.0
C640 C 0.46653 0.50996 0.22353 0.0
C641 C 0.44092 0.4891 0.21038 0.0
C642 C 0.44679 0.4831 0.19242 0.0
C643 C 0.47837 0.49771 0.18735 0.0
C644 C 0.50389 0.51731 0.2008 0.0
C645 C 0.49806 0.52345 0.21858 0.0
C646 C 0.50606 0.58836 0.27814 0.0
C647 C 0.53184 0.61041 0.26899 0.0
Eu648 Eu 0.49182 0.97504 0.98983 0.0
Eu649 Eu 0.51739 0.02378 0.02876 0.0
C650 C 0.4802 0.03426 0.99476 0.0
C651 C 0.48433 0.9553 0.93895 0.0
C652 C 0.50628 0.98815 0.9377 0.0
C653 C 0.47837 0.94604 0.90556 0.0
C654 C 0.51416 0.99991 0.92054 0.0
C655 C 0.4705 0.93429 0.92278 0.0
C656 C 0.50023 0.97906 0.9042 0.0
C657 C 0.47556 0.94344 0.95711 0.0
O658 O 0.47635 0.97649 0.03499 0.0
O659 O 0.44882 0.95746 1.00628 0.0
C660 C 0.44961 0.95855 0.02433 0.0
O661 O 0.5041 0.94862 0.01042 0.0
O662 O 0.50803 0.05086 0.05009 0.0
O663 O 0.55207 0.04944 0.05288 0.0
O664 O 0.54136 0.99379 0.02895 0.0
C665 C 0.52864 0.96305 0.02312 0.0
O666 O 0.54468 0.00966 0.98987 0.0
O667 O 0.55109 0.05327 0.00828 0.0
O668 O 0.48188 0.03273 0.0126 0.0
O669 O 0.49902 0.94634 0.96838 0.0
O670 O 0.45771 0.95265 0.96527 0.0
O671 O 0.49161 0.02048 0.98402 0.0
C672 C 0.52601 0.0463 0.08013 0.0
C673 C 0.54583 0.03789 0.09046 0.0
C674 C 0.49139 0.03263 0.10511 0.0
C675 C 0.53831 0.02666 0.1078 0.0
C676 C 0.49896 0.04397 0.08781 0.0
C677 C 0.51081 0.02357 0.11528 0.0
C678 C 0.53267 0.05627 0.06121 0.0
C679 C 0.56067 0.04074 0.99534 0.0
H680 H 0.51711 0.00482 0.95004 0.0
H681 H 0.46745 0.92921 0.8933 0.0
H682 H 0.53066 0.02551 0.92008 0.0
H683 H 0.45352 0.90886 0.92347 0.0
H684 H 0.56691 0.03947 0.08505 0.0
H685 H 0.47034 0.03108 0.11055 0.0
H686 H 0.55367 0.01963 0.11515 0.0
H687 H 0.48333 0.05054 0.08033 0.0
Eu688 Eu 0.02685 0.51842 0.99169 0.0
Eu689 Eu 0.98275 0.49939 0.02671 0.0
C690 C 0.96733 0.44807 0.99206 0.0
C691 C 0.05585 0.53257 0.94404 0.0
C692 C 0.02447 0.51498 0.93537 0.0
C693 C 0.07608 0.54788 0.91446 0.0
C694 C 0.01895 0.51357 0.9163 0.0
C695 C 0.08159 0.54915 0.93354 0.0
C696 C 0.04472 0.52989 0.90564 0.0
C697 C 0.06186 0.53389 0.96401 0.0
O698 O 0.02988 0.50488 0.0377 0.0
O699 O 0.04365 0.49247 0.01025 0.0
C700 C 0.04658 0.49535 0.02834 0.0
O701 O 0.05468 0.55799 0.01447 0.0
O702 O 0.95597 0.46381 0.04554 0.0
O703 O 0.95695 0.50956 0.04715 0.0
O704 O 0.01239 0.55384 0.02905 0.0
C705 C 0.04228 0.57065 0.02528 0.0
O706 O 0.99082 0.53462 0.98574 0.0
O707 O 0.95166 0.50205 1.0036 0.0
O708 O 0.97105 0.45324 0.01006 0.0
O709 O 0.05687 0.55431 0.97377 0.0
O710 O 0.05034 0.506 0.97082 0.0
O711 O 0.98185 0.47187 0.98176 0.0
C712 C 0.95459 0.48549 0.07465 0.0
C713 C 0.98615 0.50282 0.08308 0.0
C714 C 0.93494 0.47095 0.10442 0.0
C715 C 0.99207 0.50426 0.10213 0.0
C716 C 0.92904 0.46962 0.08537 0.0
C717 C 0.96652 0.48824 0.11298 0.0
C718 C 0.94824 0.48265 0.05464 0.0
C719 C 0.96135 0.5215 0.99047 0.0
H720 H 0.0043 0.50229 0.94336 0.0
H721 H 0.09639 0.56045 0.90657 0.0
H722 H 0.9945 0.49988 0.90991 0.0
H723 H 0.10594 0.5629 0.94008 0.0
H724 H 0.00616 0.51492 0.07491 0.0
H725 H 0.91478 0.45869 0.11245 0.0
H726 H 0.01666 0.51743 0.10832 0.0
H727 H 0.90456 0.45604 0.079 0.0
Eu728 Eu 0.51276 0.4896 0.02692 0.0
Eu729 Eu 0.48165 0.50376 0.98931 0.0
C730 C 0.52482 0.55926 0.02102 0.0
C731 C 0.52502 0.47893 0.07694 0.0
C732 C 0.54912 0.49535 0.09154 0.0
C733 C 0.48461 0.46582 0.09848 0.0
C734 C 0.54107 0.49732 0.10944 0.0
C735 C 0.49267 0.46401 0.08057 0.0
C736 C 0.50872 0.48281 0.11309 0.0
C737 C 0.53383 0.47897 0.05794 0.0
O738 O 0.52398 0.5003 0.98074 0.0
O739 O 0.55341 0.51176 0.0088 0.0
C740 C 0.55123 0.50954 0.99067 0.0
O741 O 0.49642 0.44676 1.00626 0.0
O742 O 0.47477 0.53636 0.97221 0.0
O743 O 0.45371 0.48576 0.96253 0.0
O744 O 0.45541 0.45015 0.99136 0.0
C745 C 0.46912 0.43345 0.99586 0.0
O746 O 0.46159 0.47374 0.03172 0.0
O747 O 0.44892 0.50114 0.0109 0.0
O748 O 0.52119 0.55144 1.00324 0.0
O749 O 0.51234 0.45599 0.04598 0.0
O750 O 0.54763 0.50704 0.05127 0.0
O751 O 0.51413 0.53681 0.03243 0.0
C752 C 0.47338 0.52266 0.9404 0.0
C753 C 0.45227 0.51281 0.92435 0.0
C754 C 0.51826 0.54115 0.92172 0.0
C755 C 0.46395 0.51657 0.90707 0.0
C756 C 0.5065 0.53717 0.939 0.0
C757 C 0.49708 0.53036 0.9055 0.0
C758 C 0.46036 0.51437 0.95826 0.0
C759 C 0.4431 0.48475 0.02548 0.0
H760 H 0.57419 0.50707 0.08905 0.0
H761 H 0.4595 0.45471 0.10079 0.0
H762 H 0.5602 0.51028 0.12045 0.0
H763 H 0.47356 0.45136 0.06954 0.0
H764 H 0.42661 0.50111 0.92516 0.0
H765 H 0.5439 0.55221 0.92109 0.0
H766 H 0.44681 0.50739 0.89496 0.0
H767 H 0.5232 0.54462 0.95126 0.0
Eu768 Eu 0.15824 0.31487 0.32437 0.0
Eu769 Eu 0.18577 0.36434 0.36336 0.0
C770 C 0.14817 0.37572 0.32962 0.0
C771 C 0.15037 0.29487 0.27363 0.0
C772 C 0.16931 0.32827 0.27236 0.0
C773 C 0.14767 0.28549 0.24037 0.0
C774 C 0.17708 0.34024 0.25525 0.0
C775 C 0.13976 0.27352 0.25756 0.0
C776 C 0.16617 0.31905 0.23901 0.0
C777 C 0.14178 0.28284 0.29177 0.0
O778 O 0.14347 0.31788 0.3696 0.0
O779 O 0.1156 0.29751 0.34099 0.0
C780 C 0.11669 0.29945 0.35905 0.0
O781 O 0.16978 0.28822 0.34511 0.0
O782 O 0.17817 0.3919 0.38529 0.0
O783 O 0.22104 0.38834 0.38741 0.0
O784 O 0.20879 0.33346 0.36278 0.0
C785 C 0.19491 0.30243 0.35739 0.0
O786 O 0.21105 0.34928 0.32388 0.0
O787 O 0.21922 0.3933 0.34265 0.0
O788 O 0.15244 0.37657 0.34756 0.0
O789 O 0.16548 0.2861 0.30297 0.0
O790 O 0.12377 0.29174 0.30001 0.0
O791 O 0.1567 0.35958 0.31851 0.0
C792 C 0.19542 0.38482 0.41445 0.0
C793 C 0.17818 0.35148 0.4163 0.0
C794 C 0.1957 0.39555 0.44739 0.0
C795 C 0.16954 0.34023 0.43349 0.0
C796 C 0.20418 0.40679 0.43011 0.0
C797 C 0.17806 0.3621 0.44928 0.0
C798 C 0.20276 0.39634 0.39607 0.0
C799 C 0.22771 0.38035 0.32933 0.0
H800 H 0.17797 0.34516 0.28463 0.0
H801 H 0.1387 0.26854 0.22813 0.0
H802 H 0.19177 0.36614 0.25475 0.0
H803 H 0.12517 0.24766 0.25828 0.0
H804 H 0.17122 0.33408 0.4044 0.0
H805 H 0.20243 0.41306 0.45922 0.0
H806 H 0.15643 0.31435 0.43444 0.0
H807 H 0.21729 0.43262 0.42896 0.0
Eu808 Eu 0.69733 0.85104 0.32808 0.0
Eu809 Eu 0.65334 0.83285 0.36317 0.0
C810 C 0.63635 0.78048 0.32919 0.0
C811 C 0.72345 0.86131 0.27975 0.0
C812 C 0.69164 0.84189 0.27197 0.0
C813 C 0.74079 0.87313 0.24926 0.0
C814 C 0.68442 0.83811 0.25291 0.0
C815 C 0.74798 0.87682 0.26833 0.0
C816 C 0.70891 0.85382 0.24135 0.0
C817 C 0.73097 0.86667 0.29977 0.0
O818 O 0.68849 0.81552 0.36899 0.0
O819 O 0.72801 0.8476 0.35118 0.0
C820 C 0.71793 0.82809 0.36428 0.0
O821 O 0.71011 0.89764 0.3447 0.0
O822 O 0.62281 0.7972 0.38104 0.0
O823 O 0.63038 0.84592 0.38408 0.0
O824 O 0.69857 0.87925 0.37303 0.0
C825 C 0.71334 0.90295 0.3627 0.0
O826 O 0.65022 0.84568 0.31717 0.0
O827 O 0.63679 0.85886 0.34451 0.0
O828 O 0.62476 0.79341 0.34044 0.0
O829 O 0.72217 0.88524 0.30819 0.0
O830 O 0.72423 0.84111 0.30829 0.0
O831 O 0.66621 0.79668 0.32527 0.0
C832 C 0.62352 0.81879 0.41076 0.0
C833 C 0.65464 0.8362 0.41979 0.0
C834 C 0.60213 0.80262 0.43998 0.0
C835 C 0.65945 0.83708 0.43887 0.0
C836 C 0.59733 0.8019 0.4209 0.0
C837 C 0.63322 0.82038 0.44917 0.0
C838 C 0.61816 0.81789 0.39077 0.0
C839 C 0.6336 0.85544 0.32642 0.0
H840 H 0.67238 0.82999 0.28066 0.0
H841 H 0.76019 0.88523 0.24069 0.0
H842 H 0.6596 0.82342 0.24725 0.0
H843 H 0.77265 0.89199 0.27418 0.0
H844 H 0.67515 0.84913 0.41208 0.0
H845 H 0.58148 0.78978 0.44759 0.0
H846 H 0.68371 0.8506 0.44556 0.0
H847 H 0.57317 0.78829 0.41407 0.0
Eu848 Eu 0.18759 0.82636 0.36218 0.0
Eu849 Eu 0.15609 0.84049 0.32475 0.0
C850 C 0.20141 0.89706 0.35552 0.0
C851 C 0.19567 0.80799 0.411 0.0
C852 C 0.17356 0.81733 0.41586 0.0
C853 C 0.19499 0.78882 0.44114 0.0
C854 C 0.16259 0.81292 0.43328 0.0
C855 C 0.20601 0.79331 0.42364 0.0
C856 C 0.17346 0.79898 0.44625 0.0
C857 C 0.20846 0.81452 0.39298 0.0
O858 O 0.20694 0.85578 0.31954 0.0
O859 O 0.21931 0.8279 0.34017 0.0
C860 C 0.22517 0.84437 0.32561 0.0
O861 O 0.14692 0.77899 0.3488 0.0
O862 O 0.15455 0.87462 0.30682 0.0
O863 O 0.12258 0.82321 0.29978 0.0
O864 O 0.15283 0.79229 0.31933 0.0
C865 C 0.14244 0.7704 0.33109 0.0
O866 O 0.14643 0.83195 0.37105 0.0
O867 O 0.11602 0.81932 0.34326 0.0
O868 O 0.17404 0.88396 0.3452 0.0
O869 O 0.19189 0.79236 0.3794 0.0
O870 O 0.21765 0.84352 0.38828 0.0
O871 O 0.21454 0.88 0.36037 0.0
C872 C 0.14484 0.85533 0.27541 0.0
C873 C 0.1218 0.8428 0.26014 0.0
C874 C 0.18701 0.87237 0.25482 0.0
C875 C 0.13125 0.84491 0.24231 0.0
C876 C 0.17753 0.87014 0.27262 0.0
C877 C 0.16399 0.85967 0.23942 0.0
C878 C 0.13466 0.85205 0.29415 0.0
C879 C 0.11891 0.82268 0.36138 0.0
H880 H 0.16544 0.82885 0.40631 0.0
H881 H 0.20357 0.77768 0.45072 0.0
H882 H 0.14649 0.82157 0.43678 0.0
H883 H 0.22295 0.7858 0.42008 0.0
H884 H 0.09648 0.83106 0.26201 0.0
H885 H 0.2124 0.88421 0.25314 0.0
H886 H 0.11284 0.83436 0.2308 0.0
H887 H 0.1958 0.87994 0.2842 0.0
Eu888 Eu 0.82122 0.64312 0.65617 0.0
Eu889 Eu 0.84763 0.69192 0.69512 0.0
C890 C 0.81051 0.704 0.6622 0.0
C891 C 0.8125 0.62189 0.60521 0.0
C892 C 0.82976 0.65518 0.60322 0.0
C893 C 0.81238 0.61069 0.57234 0.0
C894 C 0.83847 0.66617 0.586 0.0
C895 C 0.80383 0.5997 0.58966 0.0
C896 C 0.82998 0.64409 0.57032 0.0
C897 C 0.80479 0.61067 0.62361 0.0
O898 O 0.79484 0.65721 0.69524 0.0
O899 O 0.78831 0.61349 0.67694 0.0
C900 C 0.77898 0.62606 0.69 0.0
O901 O 0.85734 0.63433 0.6717 0.0
O902 O 0.84017 0.72078 0.71634 0.0
O903 O 0.88134 0.7143 0.71983 0.0
O904 O 0.84899 0.64687 0.70061 0.0
C905 C 0.85994 0.63306 0.68953 0.0
O906 O 0.86266 0.69019 0.6499 0.0
O907 O 0.89045 0.71006 0.67855 0.0
O908 O 0.83557 0.71842 0.67453 0.0
O909 O 0.82915 0.61515 0.63462 0.0
O910 O 0.78644 0.61894 0.63195 0.0
O911 O 0.79726 0.67312 0.65661 0.0
C912 C 0.85399 0.7116 0.74585 0.0
C913 C 0.83567 0.67816 0.74719 0.0
C914 C 0.85401 0.72123 0.77885 0.0
C915 C 0.8269 0.66631 0.76422 0.0
C916 C 0.86292 0.73309 0.76175 0.0
C917 C 0.83614 0.68766 0.7803 0.0
C918 C 0.86337 0.72359 0.72779 0.0
C919 C 0.88942 0.70855 0.66048 0.0
H920 H 0.8366 0.67274 0.61503 0.0
H921 H 0.80566 0.59303 0.5606 0.0
H922 H 0.85153 0.69202 0.58493 0.0
H923 H 0.79067 0.57392 0.59094 0.0
H924 H 0.82823 0.66116 0.73502 0.0
H925 H 0.8617 0.7383 0.79099 0.0
H926 H 0.81274 0.64038 0.76478 0.0
H927 H 0.87696 0.75898 0.76096 0.0
Eu928 Eu 0.3527 0.17472 0.65827 0.0
Eu929 Eu 0.30832 0.15508 0.6934 0.0
C930 C 0.29298 0.10457 0.65841 0.0
C931 C 0.3816 0.18794 0.61049 0.0
C932 C 0.35034 0.17008 0.60168 0.0
C933 C 0.40215 0.2039 0.58105 0.0
C934 C 0.34504 0.16889 0.5826 0.0
C935 C 0.40744 0.20494 0.60012 0.0
C936 C 0.37092 0.18571 0.57209 0.0
C937 C 0.38744 0.18922 0.63047 0.0
O938 O 0.35538 0.16043 0.70444 0.0
O939 O 0.37005 0.14933 0.67696 0.0
C940 C 0.37274 0.15185 0.69505 0.0
O941 O 0.38071 0.21535 0.68048 0.0
O942 O 0.28287 0.1192 0.71238 0.0
O943 O 0.27992 0.16292 0.71302 0.0
O944 O 0.341 0.20904 0.69864 0.0
C945 C 0.36981 0.22643 0.69332 0.0
O946 O 0.31772 0.1921 0.65246 0.0
O947 O 0.27845 0.16064 0.67061 0.0
O948 O 0.29712 0.10939 0.67641 0.0
O949 O 0.38297 0.21006 0.64018 0.0
O950 O 0.37542 0.16136 0.63734 0.0
O951 O 0.30709 0.1287 0.64828 0.0
C952 C 0.27881 0.14039 0.741 0.0
C953 C 0.30965 0.16133 0.74977 0.0
C954 C 0.25941 0.12355 0.77056 0.0
C955 C 0.31535 0.16337 0.76887 0.0
C956 C 0.25372 0.12161 0.75146 0.0
C957 C 0.29032 0.14436 0.77946 0.0
C958 C 0.27297 0.1367 0.72091 0.0
C959 C 0.2885 0.17999 0.65742 0.0
H960 H 0.33008 0.15706 0.60955 0.0
H961 H 0.42255 0.21686 0.57328 0.0
H962 H 0.32068 0.15503 0.57609 0.0
H963 H 0.4317 0.2189 0.60678 0.0
H964 H 0.32936 0.17572 0.74181 0.0
H965 H 0.23962 0.10888 0.77838 0.0
H966 H 0.33949 0.17931 0.77531 0.0
H967 H 0.22981 0.10522 0.74483 0.0
Eu968 Eu 0.85003 0.16443 0.69494 0.0
Eu969 Eu 0.81831 0.17884 0.65776 0.0
C970 C 0.86365 0.2347 0.68897 0.0
C971 C 0.8626 0.15195 0.7443 0.0
C972 C 0.84474 0.16645 0.74938 0.0
C973 C 0.86053 0.13377 0.77479 0.0
C974 C 0.83498 0.16479 0.76709 0.0
C975 C 0.87037 0.13554 0.75706 0.0
C976 C 0.84271 0.14838 0.78003 0.0
C977 C 0.87125 0.15219 0.72537 0.0
O978 O 0.85986 0.17443 0.64858 0.0
O979 O 0.89001 0.18531 0.67632 0.0
C980 C 0.88722 0.18299 0.6582 0.0
O981 O 0.83193 0.1213 0.67427 0.0
O982 O 0.81052 0.21136 0.64108 0.0
O983 O 0.79037 0.16103 0.63099 0.0
O984 O 0.79076 0.12539 0.66027 0.0
C985 C 0.804 0.10818 0.66457 0.0
O986 O 0.79965 0.15036 0.70068 0.0
O987 O 0.78651 0.17719 0.67969 0.0
O988 O 0.85886 0.22635 0.6712 0.0
O989 O 0.84868 0.12987 0.71361 0.0
O990 O 0.88547 0.18039 0.71884 0.0
O991 O 0.85359 0.21267 0.70065 0.0
C992 C 0.8092 0.19851 0.60917 0.0
C993 C 0.78794 0.18865 0.59319 0.0
C994 C 0.85395 0.2178 0.59038 0.0
C995 C 0.79949 0.19277 0.57589 0.0
C996 C 0.84232 0.21345 0.60769 0.0
C997 C 0.83262 0.20694 0.57422 0.0
C998 C 0.79637 0.18958 0.62701 0.0
C999 C 0.78113 0.16136 0.69448 0.0
H1000 H 0.83823 0.17895 0.73961 0.0
H1001 H 0.86655 0.1206 0.78432 0.0
H1002 H 0.82174 0.17675 0.77069 0.0
H1003 H 0.88374 0.12381 0.75326 0.0
H1004 H 0.76228 0.17661 0.59408 0.0
H1005 H 0.87959 0.22914 0.58967 0.0
H1006 H 0.78225 0.18352 0.56382 0.0
H1007 H 0.85912 0.22087 0.6199 0.0
C1008 C 0.36413 0.89786 0.03267 0.0
C1009 C 0.36205 0.90949 0.0504 0.0
H1010 H 0.39327 0.90432 0.01042 0.0
C1011 C 0.38936 0.93696 0.0594 0.0
H1012 H 0.34394 0.87639 0.0254 0.0
C1013 C 0.41782 0.95224 0.05101 0.0
C1014 C 0.41963 0.94092 0.03323 0.0
H1015 H 0.38873 0.94723 0.07282 0.0
H1016 H 0.43822 0.97354 0.05833 0.0
C1017 C 0.39249 0.91365 0.0241 0.0
C1018 C 0.10808 0.46933 0.03772 0.0
C1019 C 0.1123 0.47242 0.05706 0.0
H1020 H 0.08422 0.47405 0.01356 0.0
C1021 C 0.09446 0.48292 0.06693 0.0
H1022 H 0.12101 0.46079 0.02968 0.0
C1023 C 0.07311 0.49037 0.05765 0.0
C1024 C 0.06909 0.48745 0.0383 0.0
H1025 H 0.09735 0.48585 0.08183 0.0
H1026 H 0.05986 0.49854 0.06567 0.0
C1027 C 0.08679 0.47677 0.02846 0.0
C1028 C 0.57195 0.65084 0.02388 0.0
C1029 C 0.57505 0.65911 0.04293 0.0
H1030 H 0.55359 0.61276 1.00197 0.0
C1031 C 0.56147 0.63429 0.05463 0.0
H1032 H 0.58237 0.66946 0.01454 0.0
C1033 C 0.54511 0.60192 0.04747 0.0
C1034 C 0.54188 0.59362 0.02843 0.0
H1035 H 0.56289 0.63986 0.06933 0.0
H1036 H 0.53485 0.58344 0.0569 0.0
C1037 C 0.55551 0.61839 0.0167 0.0
C1038 C 0.91849 0.37709 0.95612 0.0
C1039 C 0.90357 0.35135 0.96713 0.0
H1040 H 0.95035 0.42788 0.95533 0.0
C1041 C 0.91055 0.35757 0.98633 0.0
H1042 H 0.91332 0.37311 0.94129 0.0
C1043 C 0.93155 0.38892 0.99437 0.0
C1044 C 0.94609 0.41477 0.98339 0.0
H1045 H 0.89982 0.33817 0.99516 0.0
H1046 H 0.93621 0.39286 0.00923 0.0
C1047 C 0.93957 0.4085 0.96417 0.0
C1048 C 0.63771 0.53774 0.98199 0.0
C1049 C 0.63621 0.53633 0.96265 0.0
H1050 H 0.61237 0.5304 1.00596 0.0
C1051 C 0.60643 0.52604 0.95263 0.0
H1052 H 0.6603 0.54605 0.99019 0.0
C1053 C 0.57889 0.51717 0.96171 0.0
C1054 C 0.58039 0.51838 0.98105 0.0
H1055 H 0.60426 0.52431 0.93774 0.0
H1056 H 0.5564 0.50933 0.9535 0.0
C1057 C 0.61019 0.52887 0.99107 0.0
C1058 C 0.44898 0.07015 0.95986 0.0
C1059 C 0.43356 0.08212 0.97087 0.0
H1060 H 0.47605 0.04589 0.95879 0.0
C1061 C 0.43343 0.07796 0.98976 0.0
H1062 H 0.44986 0.07335 0.94532 0.0
C1063 C 0.44877 0.06264 0.99753 0.0
C1064 C 0.46443 0.05095 0.98656 0.0
H1065 H 0.42134 0.08648 0.99856 0.0
H1066 H 0.44817 0.05983 0.01212 0.0
C1067 C 0.46423 0.05469 0.96762 0.0
C1068 C 0.62823 0.06597 0.96477 0.0
C1069 C 0.64459 0.09987 0.96794 0.0
H1070 H 0.58935 0.02099 0.9709 0.0
C1071 C 0.6333 0.11437 0.9805 0.0
H1072 H 0.63652 0.05391 0.9555 0.0
C1073 C 0.60628 0.09534 0.98964 0.0
C1074 C 0.58992 0.06144 0.98634 0.0
H1075 H 0.64511 0.14046 0.98312 0.0
H1076 H 0.59805 0.10719 0.9991 0.0
C1077 C 0.60125 0.04705 0.97379 0.0
C1078 C 0.92044 0.54629 0.9542 0.0
C1079 C 0.89373 0.54298 0.9628 0.0
H1080 H 0.96283 0.54229 0.9562 0.0
C1081 C 0.88981 0.53267 0.98061 0.0
H1082 H 0.92409 0.55361 0.94039 0.0
C1083 C 0.9116 0.52545 0.98945 0.0
C1084 C 0.93827 0.52893 0.98088 0.0
H1085 H 0.8701 0.53055 0.98792 0.0
H1086 H 0.90781 0.51765 1.00316 0.0
C1087 C 0.9426 0.53961 0.9632 0.0
C1088 C 0.42023 0.35526 0.96542 0.0
C1089 C 0.42457 0.33331 0.97555 0.0
H1090 H 0.43076 0.40412 0.96402 0.0
C1091 C 0.44308 0.34468 0.99274 0.0
H1092 H 0.40675 0.34769 0.95198 0.0
C1093 C 0.45772 0.3773 0.9993 0.0
C1094 C 0.45346 0.39904 0.98906 0.0
H1095 H 0.44636 0.32845 1.00117 0.0
H1096 H 0.4721 0.38545 0.01248 0.0
C1097 C 0.43423 0.3877 0.97221 0.0
C1098 C 0.11456 0.65392 0.03799 0.0
C1099 C 0.1014 0.66982 0.04782 0.0
H1100 H 0.10635 0.61027 0.02329 0.0
C1101 C 0.06852 0.65274 0.05027 0.0
H1102 H 0.13991 0.66613 0.03617 0.0
C1103 C 0.04927 0.62043 0.04307 0.0
C1104 C 0.06251 0.60462 0.03322 0.0
H1105 H 0.0576 0.66439 0.05763 0.0
H1106 H 0.02401 0.60796 0.04512 0.0
C1107 C 0.09533 0.62174 0.03074 0.0
C1108 C 0.36249 0.47362 0.03664 0.0
C1109 C 0.36106 0.46498 0.05485 0.0
H1110 H 0.38943 0.48685 0.01315 0.0
C1111 C 0.38705 0.46318 0.0632 0.0
H1112 H 0.34277 0.47473 0.02957 0.0
C1113 C 0.4135 0.46958 0.05362 0.0
C1114 C 0.41494 0.47831 0.03549 0.0
H1115 H 0.38727 0.45729 0.07727 0.0
H1116 H 0.43307 0.46807 0.06058 0.0
C1117 C 0.3892 0.48043 0.02714 0.0
C1118 C 0.54286 0.89438 0.03398 0.0
C1119 C 0.57055 0.91046 0.04657 0.0
H1120 H 0.50781 0.89828 0.01669 0.0
C1121 C 0.58427 0.94386 0.05126 0.0
H1122 H 0.53146 0.86854 0.03028 0.0
C1123 C 0.57059 0.96079 0.04362 0.0
C1124 C 0.54291 0.94476 0.03104 0.0
H1125 H 0.60584 0.95705 0.0607 0.0
H1126 H 0.5819 0.98656 0.04756 0.0
C1127 C 0.5292 0.91137 0.02627 0.0
C1128 C 0.03307 0.23573 0.36856 0.0
C1129 C 0.03071 0.24765 0.38614 0.0
H1130 H 0.06189 0.24287 0.34608 0.0
C1131 C 0.05708 0.27665 0.39453 0.0
H1132 H 0.01367 0.21316 0.36175 0.0
C1133 C 0.08498 0.29298 0.38575 0.0
C1134 C 0.08709 0.28124 0.36816 0.0
H1135 H 0.05614 0.28718 0.40779 0.0
H1136 H 0.10473 0.3153 0.39264 0.0
C1137 C 0.06081 0.25257 0.35958 0.0
C1138 C 0.78814 0.81471 0.37417 0.0
C1139 C 0.78338 0.80347 0.39176 0.0
H1140 H 0.77153 0.83148 0.35186 0.0
C1141 C 0.75667 0.80047 0.40022 0.0
H1142 H 0.80789 0.81667 0.36695 0.0
C1143 C 0.7353 0.80828 0.3913 0.0
C1144 C 0.7404 0.81979 0.37383 0.0
H1145 H 0.75239 0.79246 0.41386 0.0
H1146 H 0.71503 0.80573 0.3982 0.0
C1147 C 0.76712 0.82304 0.36541 0.0
C1148 C 0.25096 0.97592 0.38531 0.0
C1149 C 0.24727 0.99779 0.37473 0.0
H1150 H 0.23951 0.92691 0.38741 0.0
C1151 C 0.2292 0.98615 0.35743 0.0
H1152 H 0.26411 0.9837 0.39884 0.0
C1153 C 0.2142 0.95336 0.35121 0.0
C1154 C 0.21769 0.93168 0.36192 0.0
H1155 H 0.22644 1.0023 0.34866 0.0
H1156 H 0.20009 0.945 0.33795 0.0
C1157 C 0.23662 0.94327 0.37886 0.0
C1158 C 0.56171 0.69948 0.31521 0.0
C1159 C 0.57361 0.68317 0.30459 0.0
H1160 H 0.57204 0.7428 0.3312 0.0
C1161 C 0.60647 0.69921 0.30208 0.0
H1162 H 0.53643 0.68811 0.31712 0.0
C1163 C 0.62695 0.73089 0.30999 0.0
C1164 C 0.61496 0.74709 0.32063 0.0
H1165 H 0.61644 0.68719 0.29412 0.0
H1166 H 0.65216 0.74257 0.30785 0.0
C1167 C 0.58214 0.731 0.32317 0.0
C1168 C 0.30633 0.85682 0.31456 0.0
C1169 C 0.30761 0.8653 0.29632 0.0
H1170 H 0.27937 0.84331 0.33805 0.0
C1171 C 0.28114 0.86612 0.28783 0.0
H1172 H 0.32637 0.85644 0.32174 0.0
C1173 C 0.25448 0.85915 0.29734 0.0
C1174 C 0.25329 0.85078 0.31555 0.0
H1175 H 0.28077 0.8718 0.27372 0.0
H1176 H 0.23461 0.86004 0.29031 0.0
C1177 C 0.2794 0.84942 0.324 0.0
C1178 C 0.1176 0.43401 0.32379 0.0
C1179 C 0.09993 0.42246 0.30635 0.0
H1180 H 0.14656 0.42816 0.34488 0.0
C1181 C 0.09871 0.39556 0.29668 0.0
H1182 H 0.11977 0.45507 0.33151 0.0
C1183 C 0.11498 0.3809 0.30413 0.0
C1184 C 0.13223 0.39227 0.32159 0.0
H1185 H 0.08484 0.38545 0.28343 0.0
H1186 H 0.11341 0.36013 0.29636 0.0
C1187 C 0.13326 0.41883 0.33142 0.0
C1188 C 0.30247 0.45262 0.3151 0.0
C1189 C 0.31207 0.43768 0.30173 0.0
H1190 H 0.26841 0.44641 0.33437 0.0
C1191 C 0.29363 0.40397 0.29764 0.0
H1192 H 0.31588 0.47862 0.31844 0.0
C1193 C 0.26643 0.38566 0.30664 0.0
C1194 C 0.25691 0.40047 0.32009 0.0
H1195 H 0.30052 0.39152 0.2877 0.0
H1196 H 0.25299 0.35971 0.30306 0.0
C1197 C 0.2752 0.4342 0.3242 0.0
C1198 C 0.58333 0.8639 0.28756 0.0
C1199 C 0.56505 0.87403 0.29726 0.0
H1200 H 0.6192 0.85001 0.2891 0.0
C1201 C 0.56993 0.87845 0.31658 0.0
H1202 H 0.57995 0.85995 0.27268 0.0
C1203 C 0.59228 0.8726 0.32601 0.0
C1204 C 0.61036 0.86221 0.31634 0.0
H1205 H 0.55664 0.88673 0.32447 0.0
H1206 H 0.5953 0.87622 0.3409 0.0
C1207 C 0.60572 0.85804 0.297 0.0
C1208 C 0.09547 0.67903 0.33014 0.0
C1209 C 0.09022 0.66955 0.31115 0.0
H1210 H 0.11609 0.71835 0.35135 0.0
C1211 C 0.10231 0.6935 0.29882 0.0
H1212 H 0.08626 0.66111 0.33996 0.0
C1213 C 0.11932 0.72622 0.30531 0.0
C1214 C 0.12465 0.73572 0.32428 0.0
H1215 H 0.09918 0.68695 0.28412 0.0
H1216 H 0.12839 0.74402 0.29542 0.0
C1217 C 0.1125 0.71181 0.33664 0.0
C1218 C 0.76703 0.99403 0.36844 0.0
C1219 C 0.77397 1.00045 0.38764 0.0
H1220 H 0.74255 0.95838 0.34554 0.0
C1221 C 0.76016 0.97454 0.39865 0.0
H1222 H 0.77685 0.01349 0.35958 0.0
C1223 C 0.74023 0.94287 0.39059 0.0
C1224 C 0.73378 0.93645 0.37136 0.0
H1225 H 0.76534 0.97863 0.41347 0.0
H1226 H 0.73025 0.9234 0.39944 0.0
C1227 C 0.74724 0.96241 0.36039 0.0
C1228 C 0.03303 0.79628 0.37067 0.0
C1229 C 0.03528 0.79964 0.39003 0.0
H1230 H 0.05735 0.80084 0.3465 0.0
C1231 C 0.06537 0.81079 0.39988 0.0
H1232 H 0.01018 0.78733 0.36263 0.0
C1233 C 0.0925 0.81855 0.3906 0.0
C1234 C 0.09025 0.81521 0.37124 0.0
H1235 H 0.06808 0.81404 0.41478 0.0
H1236 H 0.11525 0.82724 0.39867 0.0
C1237 C 0.06013 0.80394 0.3614 0.0
C1238 C 0.25046 0.28201 0.38457 0.0
C1239 C 0.23568 0.24842 0.38019 0.0
H1240 H 0.24927 0.32531 0.38083 0.0
C1241 C 0.20718 0.23258 0.36824 0.0
H1242 H 0.27266 0.295 0.39351 0.0
C1243 C 0.19384 0.25003 0.36078 0.0
C1244 C 0.20869 0.28364 0.36517 0.0
H1245 H 0.19497 0.20662 0.3648 0.0
H1246 H 0.17185 0.23715 0.35165 0.0
C1247 C 0.2371 0.2994 0.37718 0.0
C1248 C 0.70807 0.5527 0.70644 0.0
C1249 C 0.69661 0.56747 0.71871 0.0
H1250 H 0.74297 0.55949 0.68764 0.0
C1251 C 0.71217 0.60141 0.72105 0.0
H1252 H 0.69686 0.5266 0.70443 0.0
C1253 C 0.73858 0.62011 0.71157 0.0
C1254 C 0.75013 0.60546 0.69935 0.0
H1255 H 0.70368 0.61366 0.73004 0.0
H1256 H 0.74986 0.64621 0.71385 0.0
C1257 C 0.73452 0.57152 0.69683 0.0
C1258 C 0.42216 0.14133 0.73361 0.0
C1259 C 0.44086 0.13198 0.72374 0.0
H1260 H 0.38613 0.15505 0.73237 0.0
C1261 C 0.43657 0.12883 0.7044 0.0
H1262 H 0.42506 0.14429 0.74851 0.0
C1263 C 0.41443 0.13516 0.69515 0.0
C1264 C 0.39591 0.14477 0.70499 0.0
H1265 H 0.45016 0.12116 0.69636 0.0
H1266 H 0.41188 0.13249 0.68024 0.0
C1267 C 0.39996 0.14767 0.72434 0.0
C1268 C 0.90227 0.31103 0.72169 0.0
C1269 C 0.91481 0.33528 0.70957 0.0
H1270 H 0.8762 0.26038 0.72473 0.0
C1271 C 0.91051 0.32617 0.69056 0.0
H1272 H 0.90467 0.31725 0.73639 0.0
C1273 C 0.89386 0.29349 0.68383 0.0
C1274 C 0.88119 0.26928 0.69598 0.0
H1275 H 0.92014 0.3443 0.68088 0.0
H1276 H 0.89096 0.28724 0.66911 0.0
C1277 C 0.88569 0.27841 0.71498 0.0
C1278 C 0.23875 0.01361 0.65223 0.0
C1279 C 0.23156 0.00754 0.63304 0.0
H1280 H 0.26371 0.04883 0.67524 0.0
C1281 C 0.24535 0.03364 0.62216 0.0
H1282 H 0.22895 0.99399 0.66098 0.0
C1283 C 0.26554 0.06519 0.63034 0.0
C1284 C 0.2723 0.07125 0.64956 0.0
H1285 H 0.23999 0.0298 0.60734 0.0
H1286 H 0.27552 0.08482 0.6216 0.0
C1287 C 0.25883 0.04508 0.6604 0.0
C1288 C 0.94106 0.1978 0.61954 0.0
C1289 C 0.97064 0.20636 0.62925 0.0
H1290 H 0.89164 0.18352 0.62093 0.0
C1291 C 0.97248 0.20729 0.64858 0.0
H1292 H 0.93864 0.19653 0.60465 0.0
C1293 C 0.94547 0.19959 0.65794 0.0
C1294 C 0.91584 0.19075 0.64823 0.0
H1295 H 0.99496 0.2143 0.65656 0.0
H1296 H 0.94792 0.20066 0.67282 0.0
C1297 C 0.914 0.19006 0.6289 0.0
C1298 C 0.7962 0.77286 0.65209 0.0
C1299 C 0.76762 0.75669 0.64021 0.0
H1300 H 0.83227 0.76897 0.66835 0.0
C1301 C 0.75348 0.72321 0.63562 0.0
H1302 H 0.80793 0.79875 0.65568 0.0
C1303 C 0.76755 0.70626 0.64273 0.0
C1304 C 0.79604 0.72235 0.65466 0.0
H1305 H 0.73124 0.70997 0.62673 0.0
H1306 H 0.75586 0.68042 0.63893 0.0
C1307 C 0.81025 0.75584 0.65927 0.0
C1308 C 0.97355 0.77151 0.65129 0.0
C1309 C 0.97603 0.75941 0.63379 0.0
H1310 H 0.94444 0.76482 0.67358 0.0
C1311 C 0.94948 0.73066 0.6253 0.0
H1312 H 0.99309 0.79392 0.65818 0.0
C1313 C 0.92133 0.71471 0.63391 0.0
C1314 C 0.91914 0.7266 0.65144 0.0
H1315 H 0.95045 0.71998 0.6121 0.0
H1316 H 0.90148 0.69253 0.62697 0.0
C1317 C 0.94556 0.75505 0.66012 0.0
C1318 C 0.24981 0.207 0.62108 0.0
C1319 C 0.22307 0.20417 0.62943 0.0
H1320 H 0.29142 0.20176 0.62335 0.0
C1321 C 0.21826 0.19328 0.6471 0.0
H1322 H 0.25411 0.21471 0.60738 0.0
C1323 C 0.23929 0.18514 0.65606 0.0
C1324 C 0.26604 0.18822 0.64775 0.0
H1325 H 0.19846 0.19143 0.65422 0.0
H1326 H 0.23485 0.17694 0.66967 0.0
C1327 C 0.27116 0.19937 0.63019 0.0
C1328 C 0.7524 0.0288 0.63559 0.0
C1329 C 0.75634 0.00704 0.64615 0.0
H1330 H 0.76422 0.07787 0.63328 0.0
C1331 C 0.77524 0.01896 0.6632 0.0
H1332 H 0.73861 0.0208 0.62225 0.0
C1333 C 0.79083 0.0519 0.66915 0.0
C1334 C 0.7871 0.07344 0.65844 0.0
H1335 H 0.7782 1.00293 0.67197 0.0
H1336 H 0.80559 0.06047 0.6822 0.0
C1337 C 0.76732 0.0616 0.6418 0.0
C1338 C 0.40972 0.2992 0.72889 0.0
C1339 C 0.43493 0.32184 0.71958 0.0
H1340 H 0.36913 0.25119 0.72783 0.0
C1341 C 0.43733 0.31311 0.70131 0.0
H1342 H 0.40729 0.30492 0.74302 0.0
C1343 C 0.41598 0.28221 0.69283 0.0
C1344 C 0.39127 0.25945 0.70224 0.0
H1345 H 0.45582 0.33013 0.69351 0.0
H1346 H 0.4188 0.27619 0.67883 0.0
C1347 C 0.38793 0.26835 0.72024 0.0
C1348 C 0.72507 0.13965 0.73222 0.0
C1349 C 0.69857 0.14035 0.72366 0.0
H1350 H 0.77166 0.14572 0.72981 0.0
C1351 C 0.69993 0.14883 0.70542 0.0
H1352 H 0.72537 0.13394 0.74632 0.0
C1353 C 0.72692 0.1563 0.69605 0.0
C1354 C 0.75304 0.15499 0.70455 0.0
H1355 H 0.67988 0.14913 0.69818 0.0
H1356 H 0.72698 0.16237 0.68199 0.0
C1357 C 0.75181 0.14666 0.72276 0.0
C1358 C 0.90773 0.59019 0.69331 0.0
C1359 C 0.9086 0.5862 0.71219 0.0
H1360 H 0.89159 0.6079 0.67133 0.0
C1361 C 0.89329 0.59778 0.72358 0.0
H1362 H 0.91967 0.58195 0.68421 0.0
C1363 C 0.87735 0.61287 0.71622 0.0
C1364 C 0.87628 0.61659 0.6973 0.0
H1365 H 0.89311 0.59466 0.73814 0.0
H1366 H 0.86572 0.62144 0.72535 0.0
C1367 C 0.89168 0.60513 0.68593 0.0
C1368 C 0.51821 0.00602 0.16493 0.0
C1369 C 0.48625 0.98345 0.16756 0.0
H1370 H 0.55092 0.03659 0.14663 0.0
C1371 C 0.46226 0.9751 0.15302 0.0
H1372 H 0.53726 0.01356 0.17591 0.0
C1373 C 0.47013 0.98843 0.13619 0.0
C1374 C 0.5022 0.01044 0.13345 0.0
H1375 H 0.43747 0.95753 0.15443 0.0
H1376 H 0.45116 0.98078 0.12514 0.0
C1377 C 0.52607 0.01927 0.14811 0.0
C1378 C 0.96287 0.46306 0.16145 0.0
C1379 C 0.98492 0.49254 0.17161 0.0
H1380 H 0.93978 0.43859 0.13488 0.0
C1381 C 1.00092 0.52049 0.16236 0.0
H1382 H 0.9501 0.44119 0.16825 0.0
C1383 C 0.99497 0.51905 0.14334 0.0
C1384 C 0.97281 0.48964 0.13317 0.0
H1385 H 0.01834 0.54347 0.16981 0.0
H1386 H 0.00749 0.54105 0.13661 0.0
C1387 C 0.95677 0.46165 0.14241 0.0
C1388 C 0.46808 0.46356 0.15743 0.0
C1389 C 0.4851 0.49365 0.16807 0.0
H1390 H 0.46243 0.43638 0.13179 0.0
C1391 C 0.50929 0.52014 0.16025 0.0
H1392 H 0.44948 0.44262 0.16307 0.0
C1393 C 0.51684 0.51651 0.14247 0.0
C1394 C 0.50026 0.48637 0.13195 0.0
H1395 H 0.52236 0.54388 0.16784 0.0
H1396 H 0.53547 0.53749 0.13688 0.0
C1397 C 0.47555 0.45997 0.13954 0.0
C1398 C 0.04859 0.55274 0.85659 0.0
C1399 C 0.02739 0.52265 0.84672 0.0
H1400 H 0.07072 0.57864 0.88303 0.0
C1401 C 0.01203 0.49508 0.85636 0.0
H1402 H 0.06085 0.57434 0.8495 0.0
C1403 C 0.01767 0.49752 0.87546 0.0
C1404 C 0.03888 0.52755 0.88535 0.0
H1405 H 0.99525 0.47164 0.84916 0.0
H1406 H 0.00561 0.47579 0.88248 0.0
C1407 C 0.05441 0.55514 0.87573 0.0
C1408 C 0.5428 0.5223 0.86685 0.0
C1409 C 0.52684 0.52619 0.85137 0.0
H1410 H 0.54559 0.51989 0.89595 0.0
C1411 C 0.50291 0.53416 0.85397 0.0
H1412 H 0.56111 0.5158 0.86525 0.0
C1413 C 0.49423 0.53693 0.87159 0.0
C1414 C 0.50902 0.53141 0.88704 0.0
H1415 H 0.49049 0.53771 0.8423 0.0
H1416 H 0.47549 0.54284 0.87305 0.0
C1417 C 0.5339 0.52473 0.88447 0.0
C1418 C 0.49075 0.9944 0.85426 0.0
C1419 C 0.52198 0.01887 0.85164 0.0
H1420 H 0.45936 0.96294 0.87276 0.0
C1421 C 0.54626 0.02921 0.86625 0.0
H1422 H 0.47151 0.98551 0.84326 0.0
C1423 C 0.53935 0.01596 0.88315 0.0
C1424 C 0.50797 0.99197 0.88589 0.0
H1425 H 0.57052 0.04815 0.86482 0.0
H1426 H 0.55865 0.02462 0.89409 0.0
C1427 C 0.48384 0.98115 0.87115 0.0
C1428 C 0.12995 0.31073 0.48625 0.0
C1429 C 0.15204 0.32457 0.50204 0.0
H1430 H 0.12068 0.31174 0.45735 0.0
C1431 C 0.18231 0.35171 0.50046 0.0
H1432 H 0.10653 0.28969 0.48691 0.0
C1433 C 0.19052 0.36424 0.48347 0.0
C1434 C 0.16873 0.34988 0.46758 0.0
H1435 H 0.19979 0.36322 0.51236 0.0
H1436 H 0.21427 0.38471 0.4827 0.0
C1437 C 0.13822 0.32316 0.46924 0.0
C1438 C 0.62751 0.79548 0.49778 0.0
C1439 C 0.64848 0.8252 0.50807 0.0
H1440 H 0.60624 0.77064 0.47103 0.0
C1441 C 0.66421 0.85325 0.49886 0.0
H1442 H 0.61498 0.77352 0.50454 0.0
C1443 C 0.65922 0.85162 0.47976 0.0
C1444 C 0.63829 0.82193 0.46945 0.0
H1445 H 0.68084 0.87643 0.50639 0.0
H1446 H 0.67159 0.87368 0.47306 0.0
C1447 C 0.62234 0.79388 0.47865 0.0
C1448 C 0.17951 0.80825 0.4984 0.0
C1449 C 0.14901 0.8032 0.50168 0.0
H1450 H 0.2112 0.81114 0.47844 0.0
C1451 C 0.12553 0.79337 0.48669 0.0
H1452 H 0.19798 0.81531 0.50967 0.0
C1453 C 0.13298 0.79048 0.46874 0.0
C1454 C 0.16408 0.79739 0.46537 0.0
H1455 H 0.10184 0.78938 0.48872 0.0
H1456 H 0.11459 0.78366 0.45745 0.0
C1457 C 0.18698 0.80545 0.48047 0.0
C1458 C 0.67139 0.81646 0.19291 0.0
C1459 C 0.68563 0.84343 0.18271 0.0
H1460 H 0.66777 0.79856 0.21936 0.0
C1461 C 0.70776 0.87386 0.19191 0.0
H1462 H 0.65396 0.79276 0.18625 0.0
C1463 C 0.71551 0.87721 0.21092 0.0
C1464 C 0.70114 0.85024 0.22113 0.0
H1465 H 0.71927 0.89503 0.18439 0.0
H1466 H 0.7324 0.90102 0.21767 0.0
C1467 C 0.67903 0.81984 0.21191 0.0
C1468 C 0.16565 0.86621 0.18792 0.0
C1469 C 0.19034 0.85999 0.18403 0.0
H1470 H 0.13843 0.87169 0.20842 0.0
C1471 C 0.2075 0.85543 0.19861 0.0
H1472 H 0.15227 0.87025 0.17699 0.0
C1473 C 0.19936 0.8559 0.21662 0.0
C1474 C 0.17397 0.86114 0.22046 0.0
H1475 H 0.22638 0.85017 0.196 0.0
H1476 H 0.21225 0.85102 0.22742 0.0
C1477 C 0.15761 0.86687 0.20592 0.0
C1478 C 0.18982 0.33046 0.18994 0.0
C1479 C 0.18738 0.35774 0.18621 0.0
H1480 H 0.18495 0.29673 0.20947 0.0
C1481 C 0.17808 0.37213 0.2 0.0
H1482 H 0.19671 0.31867 0.17958 0.0
C1483 C 0.17128 0.35956 0.21703 0.0
C1484 C 0.17349 0.33217 0.22076 0.0
H1485 H 0.17628 0.39336 0.19769 0.0
H1486 H 0.16389 0.37113 0.22723 0.0
C1487 C 0.18277 0.3177 0.20699 0.0
C1488 C 0.8094 0.67621 0.82872 0.0
C1489 C 0.81307 0.64992 0.83317 0.0
H1490 H 0.81395 0.70891 0.80858 0.0
C1491 C 0.8239 0.63601 0.82002 0.0
H1492 H 0.80128 0.68757 0.83859 0.0
C1493 C 0.83118 0.6482 0.80294 0.0
C1494 C 0.82794 0.67473 0.79852 0.0
H1495 H 0.82668 0.61553 0.82292 0.0
H1496 H 0.83986 0.6371 0.79326 0.0
C1497 C 0.81695 0.68862 0.81162 0.0
C1498 C 0.29041 0.11926 0.82777 0.0
C1499 C 0.30979 0.14932 0.83809 0.0
H1500 H 0.26909 0.09411 0.8011 0.0
C1501 C 0.32231 0.1777 0.82902 0.0
H1502 H 0.28031 0.09701 0.8344 0.0
C1503 C 0.3158 0.17608 0.81004 0.0
C1504 C 0.29656 0.14604 0.79969 0.0
H1505 H 0.33767 0.20121 0.83657 0.0
H1506 H 0.32576 0.19838 0.80346 0.0
C1507 C 0.28377 0.11764 0.80875 0.0
C1508 C 0.84616 0.15302 0.83215 0.0
C1509 C 0.81685 0.15117 0.83531 0.0
H1510 H 0.87747 0.15411 0.81238 0.0
C1511 C 0.79505 0.14592 0.82012 0.0
H1512 H 0.86331 0.15659 0.84356 0.0
C1513 C 0.80301 0.14404 0.80218 0.0
C1514 C 0.83296 0.14741 0.79903 0.0
H1515 H 0.77236 0.14456 0.82205 0.0
H1516 H 0.78586 0.14046 0.79077 0.0
C1517 C 0.85415 0.15125 0.81425 0.0
C1518 C 0.37502 0.20994 0.52335 0.0
C1519 C 0.3541 0.18004 0.51322 0.0
H1520 H 0.39674 0.2352 0.54997 0.0
C1521 C 0.33895 0.1521 0.52258 0.0
H1522 H 0.38713 0.23183 0.51648 0.0
C1523 C 0.34445 0.154 0.54166 0.0
C1524 C 0.36532 0.18386 0.55181 0.0
H1525 H 0.32238 0.12877 0.51517 0.0
H1526 H 0.33251 0.13201 0.54846 0.0
C1527 C 0.3807 0.21181 0.54247 0.0
C1528 C 0.83769 0.21082 0.52268 0.0
C1529 C 0.86177 0.20313 0.51994 0.0
H1530 H 0.8104 0.21924 0.54195 0.0
C1531 C 0.87814 0.1995 0.5353 0.0
H1532 H 0.82497 0.21416 0.51108 0.0
C1533 C 0.86946 0.20186 0.55299 0.0
C1534 C 0.84442 0.20824 0.55572 0.0
H1535 H 0.89659 0.19325 0.53356 0.0
H1536 H 0.88143 0.19718 0.5644 0.0
C1537 C 0.82926 0.21356 0.54037 0.0
C1538 C 0.87774 0.69512 0.53319 0.0
C1539 C 0.8555 0.6812 0.51747 0.0
H1540 H 0.88729 0.69426 0.56207 0.0
C1541 C 0.8253 0.65404 0.51913 0.0
H1542 H 0.90111 0.71619 0.53245 0.0
C1543 C 0.81728 0.64158 0.53615 0.0
C1544 C 0.83919 0.65607 0.55197 0.0
H1545 H 0.80771 0.64249 0.50727 0.0
H1546 H 0.79355 0.62113 0.53699 0.0
C1547 C 0.86966 0.68276 0.55022 0.0
loop_
_geom_bond_atom_site_label_1
_geom_bond_atom_site_label_2
_geom_bond_distance
_geom_bond_site_symmetry_2
_ccdc_geom_bond_type
C0 C1 1.384 . S
C0 H13 0.947 . S
C0 C35 1.382 . S
C1 C0 1.384 . S
C1 C2 1.378 . S
C2 C1 1.378 . S
C2 C3 1.378 . S
C2 H14 0.952 . S
C3 C2 1.378 . S
C3 H15 0.950 . S
C3 C34 1.383 . S
H4 C23 0.947 . S
H5 C24 0.946 . S
H6 C26 0.953 . S
H7 C27 0.945 . S
H8 C29 0.952 . S
H9 C30 0.949 . S
H10 C32 0.950 . S
H11 C33 0.948 . S
H12 C35 0.951 . S
H13 C0 0.947 . S
H14 C2 0.952 . S
H15 C3 0.950 . S
N16 C19 1.382 . S
N16 C21 1.363 . S
N17 C19 1.371 . S
N17 C20 1.372 . S
N18 C20 1.361 . S
N18 C21 1.377 . S
C19 N16 1.382 . S
C19 N17 1.371 . S
C19 C22 1.480 . S
C20 N17 1.372 . S
C20 N18 1.361 . S
C20 C28 1.457 . S
C21 N16 1.363 . S
C21 N18 1.377 . S
C21 C34 1.479 . S
C22 C19 1.480 . S
C22 C23 1.383 . S
C22 C27 1.385 . S
C23 H4 0.947 . S
C23 C22 1.383 . S
C23 C24 1.388 . S
C24 H5 0.946 . S
C24 C23 1.388 . S
C24 C25 1.384 . S
C25 C24 1.384 . S
C25 C26 1.377 . S
C26 H6 0.953 . S
C26 C25 1.377 . S
C26 C27 1.369 . S
C27 H7 0.945 . S
C27 C22 1.385 . S
C27 C26 1.369 . S
C28 C20 1.457 . S
C28 C29 1.372 . S
C28 C33 1.364 . S
C29 H8 0.952 . S
C29 C28 1.372 . S
C29 C30 1.389 . S
C30 H9 0.949 . S
C30 C29 1.389 . S
C30 C31 1.387 . S
C31 C30 1.387 . S
C31 C32 1.372 . S
C32 H10 0.950 . S
C32 C31 1.372 . S
C32 C33 1.379 . S
C33 H11 0.948 . S
C33 C28 1.364 . S
C33 C32 1.379 . S
C34 C3 1.383 . S
C34 C21 1.479 . S
C34 C35 1.398 . S
C35 C0 1.382 . S
C35 H12 0.951 . S
C35 C34 1.398 . S
C36 C37 1.384 . S
C36 H49 0.947 . S
C36 C71 1.382 . S
C37 C36 1.384 . S
C37 C38 1.378 . S
C38 C37 1.378 . S
C38 C39 1.378 . S
C38 H50 0.952 . S
C39 C38 1.378 . S
C39 H51 0.950 . S
C39 C70 1.383 . S
H40 C59 0.947 . S
H41 C60 0.946 . S
H42 C62 0.953 . S
H43 C63 0.945 . S
H44 C65 0.952 . S
H45 C66 0.949 . S
H46 C68 0.950 . S
H47 C69 0.948 . S
H48 C71 0.951 . S
H49 C36 0.947 . S
H50 C38 0.952 . S
H51 C39 0.950 . S
N52 C55 1.382 . S
N52 C57 1.363 . S
N53 C55 1.371 . S
N53 C56 1.372 . S
N54 C56 1.361 . S
N54 C57 1.377 . S
C55 N52 1.382 . S
C55 N53 1.371 . S
C55 C58 1.480 . S
C56 N53 1.372 . S
C56 N54 1.361 . S
C56 C64 1.457 . S
C57 N52 1.363 . S
C57 N54 1.377 . S
C57 C70 1.479 . S
C58 C55 1.480 . S
C58 C59 1.383 . S
C58 C63 1.385 . S
C59 H40 0.947 . S
C59 C58 1.383 . S
C59 C60 1.388 . S
C60 H41 0.946 . S
C60 C59 1.388 . S
C60 C61 1.384 . S
C61 C60 1.384 . S
C61 C62 1.377 . S
C62 H42 0.953 . S
C62 C61 1.377 . S
C62 C63 1.369 . S
C63 H43 0.945 . S
C63 C58 1.385 . S
C63 C62 1.369 . S
C64 C56 1.457 . S
C64 C65 1.372 . S
C64 C69 1.364 . S
C65 H44 0.952 . S
C65 C64 1.372 . S
C65 C66 1.389 . S
C66 H45 0.949 . S
C66 C65 1.389 . S
C66 C67 1.387 . S
C67 C66 1.387 . S
C67 C68 1.372 . S
C68 H46 0.950 . S
C68 C67 1.372 . S
C68 C69 1.379 . S
C69 H47 0.948 . S
C69 C64 1.364 . S
C69 C68 1.379 . S
C70 C39 1.383 . S
C70 C57 1.479 . S
C70 C71 1.398 . S
C71 C36 1.382 . S
C71 H48 0.951 . S
C71 C70 1.398 . S
C72 C73 1.384 . S
C72 H85 0.947 . S
C72 C107 1.382 . S
C73 C72 1.384 . S
C73 C74 1.378 . S
C74 C73 1.378 . S
C74 C75 1.378 . S
C74 H86 0.952 . S
C75 C74 1.378 . S
C75 H87 0.950 . S
C75 C106 1.383 . S
H76 C95 0.947 . S
H77 C96 0.946 . S
H78 C98 0.938 1_455 S
H79 C99 0.945 . S
H80 C101 0.952 . S
H81 C102 0.949 . S
H82 C104 0.950 . S
H83 C105 0.948 . S
H84 C107 0.951 . S
H85 C72 0.947 . S
H86 C74 0.952 . S
H87 C75 0.950 . S
N88 C91 1.382 . S
N88 C93 1.363 . S
N89 C91 1.371 . S
N89 C92 1.372 . S
N90 C92 1.361 . S
N90 C93 1.377 . S
C91 N88 1.382 . S
C91 N89 1.371 . S
C91 C94 1.480 . S
C92 N89 1.372 . S
C92 N90 1.361 . S
C92 C100 1.457 . S
C93 N88 1.363 . S
C93 N90 1.377 . S
C93 C106 1.479 . S
C94 C91 1.480 . S
C94 C95 1.383 . S
C94 C99 1.385 . S
C95 H76 0.947 . S
C95 C94 1.383 . S
C95 C96 1.388 . S
C96 H77 0.946 . S
C96 C95 1.388 . S
C96 C97 1.384 . S
C97 C96 1.384 . S
C97 C98 1.377 . S
C98 H78 0.938 1_655 S
C98 C97 1.377 . S
C98 C99 1.369 . S
C99 H79 0.945 . S
C99 C94 1.385 . S
C99 C98 1.369 . S
C100 C92 1.457 . S
C100 C101 1.372 . S
C100 C105 1.364 . S
C101 H80 0.952 . S
C101 C100 1.372 . S
C101 C102 1.389 . S
C102 H81 0.949 . S
C102 C101 1.389 . S
C102 C103 1.387 . S
C103 C102 1.387 . S
C103 C104 1.372 . S
C104 H82 0.950 . S
C104 C103 1.372 . S
C104 C105 1.379 . S
C105 H83 0.948 . S
C105 C100 1.364 . S
C105 C104 1.379 . S
C106 C75 1.383 . S
C106 C93 1.479 . S
C106 C107 1.398 . S
C107 C72 1.382 . S
C107 H84 0.951 . S
C107 C106 1.398 . S
C108 C109 1.384 . S
C108 H121 0.947 1_455 S
C108 C143 1.382 . S
C109 C108 1.384 . S
C109 C110 1.378 . S
C110 C109 1.378 . S
C110 C111 1.378 . S
C110 H122 0.952 . S
C111 C110 1.378 . S
C111 H123 0.950 . S
C111 C142 1.383 . S
H112 C131 0.947 . S
H113 C132 0.946 . S
H114 C134 0.953 . S
H115 C135 0.945 . S
H116 C137 0.952 . S
H117 C138 0.949 . S
H118 C140 0.950 . S
H119 C141 0.948 . S
H120 C143 0.951 . S
H121 C108 0.947 1_655 S
H122 C110 0.952 . S
H123 C111 0.950 . S
N124 C127 1.382 . S
N124 C129 1.363 . S
N125 C127 1.371 . S
N125 C128 1.372 . S
N126 C128 1.361 . S
N126 C129 1.377 . S
C127 N124 1.382 . S
C127 N125 1.371 . S
C127 C130 1.480 . S
C128 N125 1.372 . S
C128 N126 1.361 . S
C128 C136 1.457 . S
C129 N124 1.363 . S
C129 N126 1.377 . S
C129 C142 1.479 . S
C130 C127 1.480 . S
C130 C131 1.383 . S
C130 C135 1.385 . S
C131 H112 0.947 . S
C131 C130 1.383 . S
C131 C132 1.388 . S
C132 H113 0.946 . S
C132 C131 1.388 . S
C132 C133 1.384 . S
C133 C132 1.384 . S
C133 C134 1.377 . S
C134 H114 0.953 . S
C134 C133 1.377 . S
C134 C135 1.369 . S
C135 H115 0.945 . S
C135 C130 1.385 . S
C135 C134 1.369 . S
C136 C128 1.457 . S
C136 C137 1.372 . S
C136 C141 1.364 . S
C137 H116 0.952 . S
C137 C136 1.372 . S
C137 C138 1.389 . S
C138 H117 0.949 . S
C138 C137 1.389 . S
C138 C139 1.387 . S
C139 C138 1.387 . S
C139 C140 1.372 . S
C140 H118 0.950 . S
C140 C139 1.372 . S
C140 C141 1.379 . S
C141 H119 0.948 . S
C141 C136 1.364 . S
C141 C140 1.379 . S
C142 C111 1.383 . S
C142 C129 1.479 . S
C142 C143 1.398 . S
C143 C108 1.382 . S
C143 H120 0.951 . S
C143 C142 1.398 . S
C144 C145 1.384 . S
C144 H157 0.947 . S
C144 C179 1.382 . S
C145 C144 1.384 . S
C145 C146 1.378 . S
C146 C145 1.378 . S
C146 C147 1.378 . S
C146 H158 0.952 . S
C147 C146 1.378 . S
C147 H159 0.950 . S
C147 C178 1.383 . S
H148 C167 0.947 . S
H149 C168 0.946 . S
H150 C170 0.953 . S
H151 C171 0.945 . S
H152 C173 0.952 . S
H153 C174 0.949 . S
H154 C176 0.950 . S
H155 C177 0.948 . S
H156 C179 0.951 . S
H157 C144 0.947 . S
H158 C146 0.952 . S
H159 C147 0.950 . S
N160 C163 1.382 . S
N160 C165 1.363 . S
N161 C163 1.371 . S
N161 C164 1.372 . S
N162 C164 1.361 . S
N162 C165 1.377 . S
C163 N160 1.382 . S
C163 N161 1.371 . S
C163 C166 1.480 . S
C164 N161 1.372 . S
C164 N162 1.361 . S
C164 C172 1.457 . S
C165 N160 1.363 . S
C165 N162 1.377 . S
C165 C178 1.479 . S
C166 C163 1.480 . S
C166 C167 1.383 . S
C166 C171 1.385 . S
C167 H148 0.947 . S
C167 C166 1.383 . S
C167 C168 1.388 . S
C168 H149 0.946 . S
C168 C167 1.388 . S
C168 C169 1.384 . S
C169 C168 1.384 . S
C169 C170 1.377 . S
C170 H150 0.953 . S
C170 C169 1.377 . S
C170 C171 1.369 . S
C171 H151 0.945 . S
C171 C166 1.385 . S
C171 C170 1.369 . S
C172 C164 1.457 . S
C172 C173 1.372 . S
C172 C177 1.364 . S
C173 H152 0.952 . S
C173 C172 1.372 . S
C173 C174 1.389 . S
C174 H153 0.949 . S
C174 C173 1.389 . S
C174 C175 1.387 . S
C175 C174 1.387 . S
C175 C176 1.372 . S
C176 H154 0.950 . S
C176 C175 1.372 . S
C176 C177 1.379 . S
C177 H155 0.948 . S
C177 C172 1.364 . S
C177 C176 1.379 . S
C178 C147 1.383 . S
C178 C165 1.479 . S
C178 C179 1.398 . S
C179 C144 1.382 . S
C179 H156 0.951 . S
C179 C178 1.398 . S
C180 C181 1.384 . S
C180 H193 0.947 . S
C180 C215 1.382 . S
C181 C180 1.384 . S
C181 C182 1.378 . S
C182 C181 1.378 . S
C182 C183 1.378 . S
C182 H194 0.952 . S
C183 C182 1.378 . S
C183 H195 0.950 . S
C183 C214 1.383 . S
H184 C203 0.947 . S
H185 C204 0.946 . S
H186 C206 0.953 . S
H187 C207 0.945 . S
H188 C209 0.952 . S
H189 C210 0.949 . S
H190 C212 0.950 . S
H191 C213 0.948 . S
H192 C215 0.951 . S
H193 C180 0.947 . S
H194 C182 0.952 . S
H195 C183 0.950 . S
N196 C199 1.382 . S
N196 C201 1.363 . S
N197 C199 1.371 . S
N197 C200 1.372 . S
N198 C200 1.361 . S
N198 C201 1.377 . S
C199 N196 1.382 . S
C199 N197 1.371 . S
C199 C202 1.480 . S
C200 N197 1.372 . S
C200 N198 1.361 . S
C200 C208 1.457 . S
C201 N196 1.363 . S
C201 N198 1.377 . S
C201 C214 1.479 . S
C202 C199 1.480 . S
C202 C203 1.383 . S
C202 C207 1.385 . S
C203 H184 0.947 . S
C203 C202 1.383 . S
C203 C204 1.388 . S
C204 H185 0.946 . S
C204 C203 1.388 . S
C204 C205 1.384 . S
C205 C204 1.384 . S
C205 C206 1.377 . S
C206 H186 0.953 . S
C206 C205 1.377 . S
C206 C207 1.369 . S
C207 H187 0.945 . S
C207 C202 1.385 . S
C207 C206 1.369 . S
C208 C200 1.457 . S
C208 C209 1.372 . S
C208 C213 1.364 . S
C209 H188 0.952 . S
C209 C208 1.372 . S
C209 C210 1.389 . S
C210 H189 0.949 . S
C210 C209 1.389 . S
C210 C211 1.387 . S
C211 C210 1.387 . S
C211 C212 1.372 . S
C212 H190 0.950 . S
C212 C211 1.372 . S
C212 C213 1.379 . S
C213 H191 0.948 . S
C213 C208 1.364 . S
C213 C212 1.379 . S
C214 C183 1.383 . S
C214 C201 1.479 . S
C214 C215 1.398 . S
C215 C180 1.382 . S
C215 H192 0.951 . S
C215 C214 1.398 . S
C216 C217 1.384 . S
C216 H229 0.947 . S
C216 C251 1.382 . S
C217 C216 1.384 . S
C217 C218 1.378 . S
C218 C217 1.378 . S
C218 C219 1.378 . S
C218 H230 0.952 . S
C219 C218 1.378 . S
C219 H231 0.950 . S
C219 C250 1.383 . S
H220 C239 0.947 . S
H221 C240 0.946 . S
H222 C242 0.953 . S
H223 C243 0.945 . S
H224 C245 0.952 . S
H225 C246 0.949 . S
H226 C248 0.954 . S
H227 C249 0.948 . S
H228 C251 0.951 . S
H229 C216 0.947 . S
H230 C218 0.952 . S
H231 C219 0.950 . S
N232 C235 1.382 . S
N232 C237 1.363 . S
N233 C235 1.371 . S
N233 C236 1.372 . S
N234 C236 1.361 . S
N234 C237 1.377 . S
C235 N232 1.382 . S
C235 N233 1.371 . S
C235 C238 1.480 . S
C236 N233 1.372 . S
C236 N234 1.361 . S
C236 C244 1.457 . S
C237 N232 1.363 . S
C237 N234 1.377 . S
C237 C250 1.479 . S
C238 C235 1.480 . S
C238 C239 1.383 . S
C238 C243 1.385 . S
C239 H220 0.947 . S
C239 C238 1.383 . S
C239 C240 1.388 . S
C240 H221 0.946 . S
C240 C239 1.388 . S
C240 C241 1.384 . S
C241 C240 1.384 . S
C241 C242 1.377 . S
C242 H222 0.953 . S
C242 C241 1.377 . S
C242 C243 1.369 . S
C243 H223 0.945 . S
C243 C238 1.385 . S
C243 C242 1.369 . S
C244 C236 1.457 . S
C244 C245 1.372 . S
C244 C249 1.364 . S
C245 H224 0.952 . S
C245 C244 1.372 . S
C245 C246 1.389 . S
C246 H225 0.949 . S
C246 C245 1.389 . S
C246 C247 1.389 . S
C247 C246 1.389 . S
C247 C248 1.366 1_655 S
C248 H226 0.954 . S
C248 C247 1.366 1_455 S
C248 C249 1.378 1_455 S
C249 H227 0.948 . S
C249 C244 1.364 . S
C249 C248 1.378 1_655 S
C250 C219 1.383 . S
C250 C237 1.479 . S
C250 C251 1.398 . S
C251 C216 1.382 . S
C251 H228 0.951 . S
C251 C250 1.398 . S
C252 C253 1.384 . S
C252 H265 0.947 . S
C252 C287 1.382 . S
C253 C252 1.384 . S
C253 C254 1.378 . S
C254 C253 1.378 . S
C254 C255 1.378 . S
C254 H266 0.952 . S
C255 C254 1.378 . S
C255 H267 0.950 . S
C255 C286 1.383 . S
H256 C275 0.947 . S
H257 C276 0.946 . S
H258 C278 0.953 . S
H259 C279 0.945 . S
H260 C281 0.952 . S
H261 C282 0.949 . S
H262 C284 0.950 . S
H263 C285 0.948 . S
H264 C287 0.951 . S
H265 C252 0.947 . S
H266 C254 0.952 . S
H267 C255 0.950 . S
N268 C271 1.382 . S
N268 C273 1.363 . S
N269 C271 1.371 . S
N269 C272 1.372 . S
N270 C272 1.361 . S
N270 C273 1.377 . S
C271 N268 1.382 . S
C271 N269 1.371 . S
C271 C274 1.480 . S
C272 N269 1.372 . S
C272 N270 1.361 . S
C272 C280 1.457 . S
C273 N268 1.363 . S
C273 N270 1.377 . S
C273 C286 1.479 . S
C274 C271 1.480 . S
C274 C275 1.383 . S
C274 C279 1.385 . S
C275 H256 0.947 . S
C275 C274 1.383 . S
C275 C276 1.388 . S
C276 H257 0.946 . S
C276 C275 1.388 . S
C276 C277 1.384 . S
C277 C276 1.384 . S
C277 C278 1.377 . S
C278 H258 0.953 . S
C278 C277 1.377 . S
C278 C279 1.369 . S
C279 H259 0.945 . S
C279 C274 1.385 . S
C279 C278 1.369 . S
C280 C272 1.457 . S
C280 C281 1.372 . S
C280 C285 1.364 . S
C281 H260 0.952 . S
C281 C280 1.372 . S
C281 C282 1.389 . S
C282 H261 0.949 . S
C282 C281 1.389 . S
C282 C283 1.387 . S
C283 C282 1.387 . S
C283 C284 1.372 . S
C284 H262 0.950 . S
C284 C283 1.372 . S
C284 C285 1.379 . S
C285 H263 0.948 . S
C285 C280 1.364 . S
C285 C284 1.379 . S
C286 C255 1.383 . S
C286 C273 1.479 . S
C286 C287 1.398 . S
C287 C252 1.382 . S
C287 H264 0.951 . S
C287 C286 1.398 . S
C288 C289 1.384 . S
C288 H301 0.947 . S
C288 C323 1.382 . S
C289 C288 1.384 . S
C289 C290 1.378 . S
C290 C289 1.378 . S
C290 C291 1.378 . S
C290 H302 0.952 . S
C291 C290 1.378 . S
C291 H303 0.950 . S
C291 C322 1.383 . S
H292 C311 0.947 . S
H293 C312 0.946 . S
H294 C314 0.953 . S
H295 C315 0.945 . S
H296 C317 0.952 . S
H297 C318 0.949 . S
H298 C320 0.950 . S
H299 C321 0.948 . S
H300 C323 0.951 . S
H301 C288 0.947 . S
H302 C290 0.952 . S
H303 C291 0.950 . S
N304 C307 1.382 . S
N304 C309 1.363 . S
N305 C307 1.371 . S
N305 C308 1.372 . S
N306 C308 1.361 . S
N306 C309 1.377 . S
C307 N304 1.382 . S
C307 N305 1.371 . S
C307 C310 1.480 . S
C308 N305 1.372 . S
C308 N306 1.361 . S
C308 C316 1.457 . S
C309 N304 1.363 . S
C309 N306 1.377 . S
C309 C322 1.479 . S
C310 C307 1.480 . S
C310 C311 1.383 . S
C310 C315 1.385 . S
C311 H292 0.947 . S
C311 C310 1.383 . S
C311 C312 1.388 . S
C312 H293 0.946 . S
C312 C311 1.388 . S
C312 C313 1.384 . S
C313 C312 1.384 . S
C313 C314 1.377 . S
C314 H294 0.953 . S
C314 C313 1.377 . S
C314 C315 1.369 . S
C315 H295 0.945 . S
C315 C310 1.385 . S
C315 C314 1.369 . S
C316 C308 1.457 . S
C316 C317 1.372 . S
C316 C321 1.364 . S
C317 H296 0.952 . S
C317 C316 1.372 . S
C317 C318 1.389 . S
C318 H297 0.949 . S
C318 C317 1.389 . S
C318 C319 1.387 . S
C319 C318 1.387 . S
C319 C320 1.372 . S
C320 H298 0.950 . S
C320 C319 1.372 . S
C320 C321 1.379 . S
C321 H299 0.948 . S
C321 C316 1.364 . S
C321 C320 1.379 . S
C322 C291 1.383 . S
C322 C309 1.479 . S
C322 C323 1.398 . S
C323 C288 1.382 . S
C323 H300 0.951 . S
C323 C322 1.398 . S
C324 C325 1.384 . S
C324 H337 0.947 . S
C324 C359 1.382 . S
C325 C324 1.384 . S
C325 C326 1.378 . S
C326 C325 1.378 . S
C326 C327 1.378 . S
C326 H338 0.952 . S
C327 C326 1.378 . S
C327 H339 0.950 . S
C327 C358 1.383 . S
H328 C347 0.947 . S
H329 C348 0.946 . S
H330 C350 0.953 . S
H331 C351 0.945 . S
H332 C353 0.952 . S
H333 C354 0.949 . S
H334 C356 0.950 . S
H335 C357 0.948 . S
H336 C359 0.951 . S
H337 C324 0.947 . S
H338 C326 0.952 . S
H339 C327 0.950 . S
N340 C343 1.382 . S
N340 C345 1.363 . S
N341 C343 1.371 . S
N341 C344 1.372 . S
N342 C344 1.361 . S
N342 C345 1.377 . S
C343 N340 1.382 . S
C343 N341 1.371 . S
C343 C346 1.480 . S
C344 N341 1.372 . S
C344 N342 1.361 . S
C344 C352 1.457 . S
C345 N340 1.363 . S
C345 N342 1.377 . S
C345 C358 1.479 . S
C346 C343 1.480 . S
C346 C347 1.383 . S
C346 C351 1.385 . S
C347 H328 0.947 . S
C347 C346 1.383 . S
C347 C348 1.388 . S
C348 H329 0.946 . S
C348 C347 1.388 . S
C348 C349 1.384 . S
C349 C348 1.384 . S
C349 C350 1.377 . S
C350 H330 0.953 . S
C350 C349 1.377 . S
C350 C351 1.369 . S
C351 H331 0.945 . S
C351 C346 1.385 . S
C351 C350 1.369 . S
C352 C344 1.457 . S
C352 C353 1.372 . S
C352 C357 1.364 . S
C353 H332 0.952 . S
C353 C352 1.372 . S
C353 C354 1.389 . S
C354 H333 0.949 . S
C354 C353 1.389 . S
C354 C355 1.387 . S
C355 C354 1.387 . S
C355 C356 1.372 . S
C356 H334 0.950 . S
C356 C355 1.372 . S
C356 C357 1.379 . S
C357 H335 0.948 . S
C357 C352 1.364 . S
C357 C356 1.379 . S
C358 C327 1.383 . S
C358 C345 1.479 . S
C358 C359 1.398 . S
C359 C324 1.382 . S
C359 H336 0.951 . S
C359 C358 1.398 . S
C360 C361 1.384 . S
C360 H373 0.947 . S
C360 C395 1.382 . S
C361 C360 1.384 . S
C361 C362 1.378 . S
C362 C361 1.378 . S
C362 C363 1.378 . S
C362 H374 0.940 1_556 S
C363 C362 1.378 . S
C363 H375 0.950 . S
C363 C394 1.383 . S
H364 C383 0.947 . S
H365 C384 0.890 1_554 S
H366 C386 0.953 . S
H367 C387 0.945 . S
H368 C389 0.952 . S
H369 C390 0.949 . S
H370 C392 0.950 . S
H371 C393 0.948 . S
H372 C395 0.951 . S
H373 C360 0.947 . S
H374 C362 0.940 1_554 S
H375 C363 0.950 . S
N376 C379 1.382 . S
N376 C381 1.363 . S
N377 C379 1.371 . S
N377 C380 1.372 . S
N378 C380 1.361 . S
N378 C381 1.377 . S
C379 N376 1.382 . S
C379 N377 1.371 . S
C379 C382 1.480 . S
C380 N377 1.372 . S
C380 N378 1.361 . S
C380 C388 1.457 . S
C381 N376 1.363 . S
C381 N378 1.377 . S
C381 C394 1.479 . S
C382 C379 1.480 . S
C382 C383 1.383 . S
C382 C387 1.385 . S
C383 H364 0.947 . S
C383 C382 1.383 . S
C383 C384 1.388 . S
C384 H365 0.890 1_556 S
C384 C383 1.388 . S
C384 C385 1.384 . S
C385 C384 1.384 . S
C385 C386 1.377 . S
C386 H366 0.953 . S
C386 C385 1.377 . S
C386 C387 1.369 . S
C387 H367 0.945 . S
C387 C382 1.385 . S
C387 C386 1.369 . S
C388 C380 1.457 . S
C388 C389 1.372 . S
C388 C393 1.364 . S
C389 H368 0.952 . S
C389 C388 1.372 . S
C389 C390 1.389 . S
C390 H369 0.949 . S
C390 C389 1.389 . S
C390 C391 1.387 . S
C391 C390 1.387 . S
C391 C392 1.372 . S
C392 H370 0.950 . S
C392 C391 1.372 . S
C392 C393 1.379 . S
C393 H371 0.948 . S
C393 C388 1.364 . S
C393 C392 1.379 . S
C394 C363 1.383 . S
C394 C381 1.479 . S
C394 C395 1.398 . S
C395 C360 1.382 . S
C395 H372 0.951 . S
C395 C394 1.398 . S
C396 C397 1.384 . S
C396 H409 0.947 . S
C396 C431 1.382 . S
C397 C396 1.384 . S
C397 C398 1.378 . S
C398 C397 1.378 . S
C398 C399 1.378 . S
C398 H410 0.952 . S
C399 C398 1.378 . S
C399 H411 0.950 . S
C399 C430 1.383 . S
H400 C419 0.947 . S
H401 C420 0.946 . S
H402 C422 0.953 . S
H403 C423 0.945 . S
H404 C425 0.952 . S
H405 C426 0.949 . S
H406 C428 0.950 . S
H407 C429 0.948 . S
H408 C431 0.951 . S
H409 C396 0.947 . S
H410 C398 0.952 . S
H411 C399 0.950 . S
N412 C415 1.382 . S
N412 C417 1.363 . S
N413 C415 1.371 . S
N413 C416 1.372 . S
N414 C416 1.361 . S
N414 C417 1.377 . S
C415 N412 1.382 . S
C415 N413 1.371 . S
C415 C418 1.480 . S
C416 N413 1.372 . S
C416 N414 1.361 . S
C416 C424 1.457 . S
C417 N412 1.363 . S
C417 N414 1.377 . S
C417 C430 1.479 . S
C418 C415 1.480 . S
C418 C419 1.383 . S
C418 C423 1.385 . S
C419 H400 0.947 . S
C419 C418 1.383 . S
C419 C420 1.388 . S
C420 H401 0.946 . S
C420 C419 1.388 . S
C420 C421 1.384 . S
C421 C420 1.384 . S
C421 C422 1.377 . S
C422 H402 0.953 . S
C422 C421 1.377 . S
C422 C423 1.369 . S
C423 H403 0.945 . S
C423 C418 1.385 . S
C423 C422 1.369 . S
C424 C416 1.457 . S
C424 C425 1.372 . S
C424 C429 1.364 . S
C425 H404 0.952 . S
C425 C424 1.372 . S
C425 C426 1.389 . S
C426 H405 0.949 . S
C426 C425 1.389 . S
C426 C427 1.387 . S
C427 C426 1.387 . S
C427 C428 1.372 . S
C428 H406 0.950 . S
C428 C427 1.372 . S
C428 C429 1.379 . S
C429 H407 0.948 . S
C429 C424 1.364 . S
C429 C428 1.379 . S
C430 C399 1.383 . S
C430 C417 1.479 . S
C430 C431 1.398 . S
C431 C396 1.382 . S
C431 H408 0.951 . S
C431 C430 1.398 . S
C432 C433 1.384 . S
C432 H445 0.947 . S
C432 C467 1.382 . S
C433 C432 1.384 . S
C433 C434 1.378 . S
C434 C433 1.378 . S
C434 C435 1.378 . S
C434 H446 0.970 . S
C435 C434 1.378 . S
C435 H447 0.950 . S
C435 C466 1.383 . S
H436 C455 0.947 . S
H437 C456 0.946 . S
H438 C458 0.953 . S
H439 C459 0.945 . S
H440 C461 0.952 . S
H441 C462 0.949 . S
H442 C464 0.950 . S
H443 C465 0.948 . S
H444 C467 0.951 . S
H445 C432 0.947 . S
H446 C434 0.970 . S
H447 C435 0.950 . S
N448 C451 1.382 . S
N448 C453 1.363 . S
N449 C451 1.371 . S
N449 C452 1.372 . S
N450 C452 1.361 . S
N450 C453 1.377 . S
C451 N448 1.382 . S
C451 N449 1.371 . S
C451 C454 1.480 . S
C452 N449 1.372 . S
C452 N450 1.361 . S
C452 C460 1.457 . S
C453 N448 1.363 . S
C453 N450 1.377 . S
C453 C466 1.479 . S
C454 C451 1.480 . S
C454 C455 1.383 . S
C454 C459 1.385 . S
C455 H436 0.947 . S
C455 C454 1.383 . S
C455 C456 1.388 . S
C456 H437 0.946 . S
C456 C455 1.388 . S
C456 C457 1.384 . S
C457 C456 1.384 . S
C457 C458 1.377 . S
C458 H438 0.953 . S
C458 C457 1.377 . S
C458 C459 1.369 . S
C459 H439 0.945 . S
C459 C454 1.385 . S
C459 C458 1.369 . S
C460 C452 1.457 . S
C460 C461 1.372 . S
C460 C465 1.364 . S
C461 H440 0.952 . S
C461 C460 1.372 . S
C461 C462 1.389 . S
C462 H441 0.949 . S
C462 C461 1.389 . S
C462 C463 1.387 . S
C463 C462 1.387 . S
C463 C464 1.372 . S
C464 H442 0.950 . S
C464 C463 1.372 . S
C464 C465 1.379 . S
C465 H443 0.948 . S
C465 C460 1.364 . S
C465 C464 1.379 . S
C466 C435 1.383 . S
C466 C453 1.479 . S
C466 C467 1.398 . S
C467 C432 1.382 . S
C467 H444 0.951 . S
C467 C466 1.398 . S
C468 C469 1.384 . S
C468 H481 0.947 . S
C468 C503 1.382 . S
C469 C468 1.384 . S
C469 C470 1.378 . S
C470 C469 1.378 . S
C470 C471 1.378 . S
C470 H482 0.952 . S
C471 C470 1.378 . S
C471 H483 0.950 . S
C471 C502 1.383 . S
H472 C491 0.947 . S
H473 C492 0.946 . S
H474 C494 0.953 . S
H475 C495 0.945 . S
H476 C497 0.952 . S
H477 C498 0.949 . S
H478 C500 0.950 . S
H479 C501 0.948 . S
H480 C503 0.951 . S
H481 C468 0.947 . S
H482 C470 0.952 . S
H483 C471 0.950 . S
N484 C487 1.382 . S
N484 C489 1.363 . S
N485 C487 1.371 . S
N485 C488 1.372 . S
N486 C488 1.361 . S
N486 C489 1.377 . S
C487 N484 1.382 . S
C487 N485 1.371 . S
C487 C490 1.480 . S
C488 N485 1.372 . S
C488 N486 1.361 . S
C488 C496 1.457 . S
C489 N484 1.363 . S
C489 N486 1.377 . S
C489 C502 1.479 . S
C490 C487 1.480 . S
C490 C491 1.383 . S
C490 C495 1.385 . S
C491 H472 0.947 . S
C491 C490 1.383 . S
C491 C492 1.388 . S
C492 H473 0.946 . S
C492 C491 1.388 . S
C492 C493 1.384 . S
C493 C492 1.384 . S
C493 C494 1.377 . S
C494 H474 0.953 . S
C494 C493 1.377 . S
C494 C495 1.369 . S
C495 H475 0.945 . S
C495 C490 1.385 . S
C495 C494 1.369 . S
C496 C488 1.457 . S
C496 C497 1.372 . S
C496 C501 1.364 . S
C497 H476 0.952 . S
C497 C496 1.372 . S
C497 C498 1.389 . S
C498 H477 0.949 . S
C498 C497 1.389 . S
C498 C499 1.387 . S
C499 C498 1.387 . S
C499 C500 1.372 . S
C500 H478 0.950 . S
C500 C499 1.372 . S
C500 C501 1.379 . S
C501 H479 0.948 . S
C501 C496 1.364 . S
C501 C500 1.379 . S
C502 C471 1.383 . S
C502 C489 1.479 . S
C502 C503 1.398 . S
C503 C468 1.382 . S
C503 H480 0.951 . S
C503 C502 1.398 . S
C504 C505 1.384 . S
C504 H517 0.947 . S
C504 C539 1.382 . S
C505 C504 1.384 . S
C505 C506 1.378 . S
C506 C505 1.378 . S
C506 C507 1.378 . S
C506 H518 0.952 . S
C507 C506 1.378 . S
C507 H519 0.950 . S
C507 C538 1.383 . S
H508 C527 0.947 . S
H509 C528 0.946 . S
H510 C530 0.953 . S
H511 C531 0.945 . S
H512 C533 0.952 . S
H513 C534 0.949 . S
H514 C536 0.950 . S
H515 C537 0.948 . S
H516 C539 0.951 . S
H517 C504 0.947 . S
H518 C506 0.952 . S
H519 C507 0.950 . S
N520 C523 1.382 . S
N520 C525 1.363 . S
N521 C523 1.371 . S
N521 C524 1.372 . S
N522 C524 1.361 . S
N522 C525 1.377 . S
C523 N520 1.382 . S
C523 N521 1.371 . S
C523 C526 1.480 . S
C524 N521 1.372 . S
C524 N522 1.361 . S
C524 C532 1.457 . S
C525 N520 1.363 . S
C525 N522 1.377 . S
C525 C538 1.479 . S
C526 C523 1.480 . S
C526 C527 1.383 . S
C526 C531 1.385 . S
C527 H508 0.947 . S
C527 C526 1.383 . S
C527 C528 1.388 . S
C528 H509 0.946 . S
C528 C527 1.388 . S
C528 C529 1.384 . S
C529 C528 1.384 . S
C529 C530 1.377 . S
C530 H510 0.953 . S
C530 C529 1.377 . S
C530 C531 1.369 . S
C531 H511 0.945 . S
C531 C526 1.385 . S
C531 C530 1.369 . S
C532 C524 1.457 . S
C532 C533 1.372 . S
C532 C537 1.364 . S
C533 H512 0.952 . S
C533 C532 1.372 . S
C533 C534 1.389 . S
C534 H513 0.949 . S
C534 C533 1.389 . S
C534 C535 1.387 . S
C535 C534 1.387 . S
C535 C536 1.372 . S
C536 H514 0.950 . S
C536 C535 1.372 . S
C536 C537 1.379 . S
C537 H515 0.948 . S
C537 C532 1.364 . S
C537 C536 1.379 . S
C538 C507 1.383 . S
C538 C525 1.479 . S
C538 C539 1.398 . S
C539 C504 1.382 . S
C539 H516 0.951 . S
C539 C538 1.398 . S
C540 C541 1.384 . S
C540 H553 0.947 . S
C540 C575 1.382 . S
C541 C540 1.384 . S
C541 C542 1.378 . S
C542 C541 1.378 . S
C542 C543 1.378 . S
C542 H554 0.952 . S
C543 C542 1.378 . S
C543 H555 0.950 . S
C543 C574 1.383 . S
H544 C563 0.947 . S
H545 C564 0.946 . S
H546 C566 0.953 . S
H547 C567 0.945 . S
H548 C569 0.952 . S
H549 C570 0.949 . S
H550 C572 0.950 . S
H551 C573 0.948 . S
H552 C575 0.951 . S
H553 C540 0.947 . S
H554 C542 0.952 . S
H555 C543 0.950 . S
N556 C559 1.382 . S
N556 C561 1.363 . S
N557 C559 1.371 . S
N557 C560 1.372 . S
N558 C560 1.361 . S
N558 C561 1.377 . S
C559 N556 1.382 . S
C559 N557 1.371 . S
C559 C562 1.480 . S
C560 N557 1.372 . S
C560 N558 1.361 . S
C560 C568 1.457 . S
C561 N556 1.363 . S
C561 N558 1.377 . S
C561 C574 1.479 . S
C562 C559 1.480 . S
C562 C563 1.383 . S
C562 C567 1.385 . S
C563 H544 0.947 . S
C563 C562 1.383 . S
C563 C564 1.388 . S
C564 H545 0.946 . S
C564 C563 1.388 . S
C564 C565 1.384 . S
C565 C564 1.384 . S
C565 C566 1.377 . S
C566 H546 0.953 . S
C566 C565 1.377 . S
C566 C567 1.369 . S
C567 H547 0.945 . S
C567 C562 1.385 . S
C567 C566 1.369 . S
C568 C560 1.457 . S
C568 C569 1.372 . S
C568 C573 1.364 . S
C569 H548 0.952 . S
C569 C568 1.372 . S
C569 C570 1.389 . S
C570 H549 0.949 . S
C570 C569 1.389 . S
C570 C571 1.387 . S
C571 C570 1.387 . S
C571 C572 1.372 . S
C572 H550 0.950 . S
C572 C571 1.372 . S
C572 C573 1.379 . S
C573 H551 0.948 . S
C573 C568 1.364 . S
C573 C572 1.379 . S
C574 C543 1.383 . S
C574 C561 1.479 . S
C574 C575 1.398 . S
C575 C540 1.382 . S
C575 H552 0.951 . S
C575 C574 1.398 . S
C576 C577 1.384 . S
C576 H589 0.947 . S
C576 C611 1.382 . S
C577 C576 1.384 . S
C577 C578 1.378 . S
C578 C577 1.378 . S
C578 C579 1.378 . S
C578 H590 0.952 . S
C579 C578 1.378 . S
C579 H591 0.950 . S
C579 C610 1.383 . S
H580 C599 0.947 . S
H581 C600 0.946 . S
H582 C602 0.953 . S
H583 C603 0.945 . S
H584 C605 0.952 . S
H585 C606 0.949 . S
H586 C608 0.945 . S
H587 C609 0.948 . S
H588 C611 0.951 . S
H589 C576 0.947 . S
H590 C578 0.952 . S
H591 C579 0.950 . S
N592 C595 1.382 . S
N592 C597 1.363 . S
N593 C595 1.371 . S
N593 C596 1.372 . S
N594 C596 1.361 . S
N594 C597 1.377 . S
C595 N592 1.382 . S
C595 N593 1.371 . S
C595 C598 1.480 . S
C596 N593 1.372 . S
C596 N594 1.361 . S
C596 C604 1.457 . S
C597 N592 1.363 . S
C597 N594 1.377 . S
C597 C610 1.479 . S
C598 C595 1.480 . S
C598 C599 1.383 . S
C598 C603 1.385 . S
C599 H580 0.947 . S
C599 C598 1.383 . S
C599 C600 1.388 . S
C600 H581 0.946 . S
C600 C599 1.388 . S
C600 C601 1.384 . S
C601 C600 1.384 . S
C601 C602 1.377 . S
C602 H582 0.953 . S
C602 C601 1.377 . S
C602 C603 1.369 . S
C603 H583 0.945 . S
C603 C598 1.385 . S
C603 C602 1.369 . S
C604 C596 1.457 . S
C604 C605 1.372 . S
C604 C609 1.364 . S
C605 H584 0.952 . S
C605 C604 1.372 . S
C605 C606 1.389 . S
C606 H585 0.949 . S
C606 C605 1.389 . S
C606 C607 1.382 . S
C607 C606 1.382 . S
C607 C608 1.386 1_455 S
C608 H586 0.945 . S
C608 C607 1.386 1_655 S
C608 C609 1.376 1_655 S
C609 H587 0.948 . S
C609 C604 1.364 . S
C609 C608 1.376 1_455 S
C610 C579 1.383 . S
C610 C597 1.479 . S
C610 C611 1.398 . S
C611 C576 1.382 . S
C611 H588 0.951 . S
C611 C610 1.398 . S
C612 C613 1.384 . S
C612 H625 0.947 . S
C612 C647 1.382 . S
C613 C612 1.384 . S
C613 C614 1.378 . S
C614 C613 1.378 . S
C614 C615 1.378 . S
C614 H626 0.952 . S
C615 C614 1.378 . S
C615 H627 0.950 . S
C615 C646 1.383 . S
H616 C635 0.947 . S
H617 C636 0.946 . S
H618 C638 0.953 . S
H619 C639 0.945 . S
H620 C641 0.952 . S
H621 C642 0.949 . S
H622 C644 0.950 . S
H623 C645 0.948 . S
H624 C647 0.951 . S
H625 C612 0.947 . S
H626 C614 0.952 . S
H627 C615 0.950 . S
N628 C631 1.382 . S
N628 C633 1.363 . S
N629 C631 1.371 . S
N629 C632 1.372 . S
N630 C632 1.361 . S
N630 C633 1.377 . S
C631 N628 1.382 . S
C631 N629 1.371 . S
C631 C634 1.480 . S
C632 N629 1.372 . S
C632 N630 1.361 . S
C632 C640 1.457 . S
C633 N628 1.363 . S
C633 N630 1.377 . S
C633 C646 1.479 . S
C634 C631 1.480 . S
C634 C635 1.383 . S
C634 C639 1.385 . S
C635 H616 0.947 . S
C635 C634 1.383 . S
C635 C636 1.388 . S
C636 H617 0.946 . S
C636 C635 1.388 . S
C636 C637 1.384 . S
C637 C636 1.384 . S
C637 C638 1.377 . S
C638 H618 0.953 . S
C638 C637 1.377 . S
C638 C639 1.369 . S
C639 H619 0.945 . S
C639 C634 1.385 . S
C639 C638 1.369 . S
C640 C632 1.457 . S
C640 C641 1.372 . S
C640 C645 1.364 . S
C641 H620 0.952 . S
C641 C640 1.372 . S
C641 C642 1.389 . S
C642 H621 0.949 . S
C642 C641 1.389 . S
C642 C643 1.387 . S
C643 C642 1.387 . S
C643 C644 1.372 . S
C644 H622 0.950 . S
C644 C643 1.372 . S
C644 C645 1.379 . S
C645 H623 0.948 . S
C645 C640 1.364 . S
C645 C644 1.379 . S
C646 C615 1.383 . S
C646 C633 1.479 . S
C646 C647 1.398 . S
C647 C612 1.382 . S
C647 H624 0.951 . S
C647 C646 1.398 . S
Eu648 C657 2.828 . S
Eu648 O659 2.409 . S
Eu648 O661 2.418 . S
Eu648 O666 2.373 1_565 S
Eu648 O669 2.488 . S
Eu648 O670 2.466 1_565 S
Eu648 O671 2.349 1_565 S
Eu649 O658 2.373 1_545 S
Eu649 O662 2.488 . S
Eu649 O663 2.470 . S
Eu649 O664 2.349 1_545 S
Eu649 O667 2.392 . S
Eu649 O668 2.418 . S
Eu649 C678 2.828 . S
C650 O668 1.244 1_556 S
C650 O671 1.265 . S
C651 C652 1.379 1_565 S
C651 C655 1.373 . S
C651 C657 1.505 . S
C652 C651 1.379 1_545 S
C652 C654 1.369 . S
C652 H680 0.930 . S
C653 C655 1.383 . S
C653 C656 1.382 1_565 S
C653 H681 0.930 . S
C654 C652 1.369 . S
C654 C656 1.392 . S
C654 H682 0.930 . S
C655 C651 1.373 . S
C655 C653 1.383 . S
C655 H683 0.931 . S
C656 C653 1.382 1_545 S
C656 C654 1.392 . S
C657 Eu648 2.828 . S
C657 C651 1.505 . S
C657 O669 1.249 . S
C657 O670 1.237 1_565 S
O658 Eu649 2.373 1_565 S
O658 C660 1.258 . S
O659 Eu648 2.409 . S
O659 C660 1.222 1_556 S
C660 O658 1.258 . S
C660 O659 1.222 1_554 S
O661 Eu648 2.418 . S
O661 C665 1.244 1_556 S
O662 Eu649 2.488 . S
O662 C678 1.249 . S
O663 Eu649 2.470 . S
O663 C678 1.243 . S
O664 Eu649 2.349 1_565 S
O664 C665 1.265 . S
C665 O661 1.244 1_554 S
C665 O664 1.265 . S
O666 Eu648 2.373 1_545 S
O666 C679 1.258 . S
O667 Eu649 2.392 . S
O667 C679 1.242 1_554 S
O668 Eu649 2.418 . S
O668 C650 1.244 1_554 S
O669 Eu648 2.488 . S
O669 C657 1.249 . S
O670 Eu648 2.466 1_545 S
O670 C657 1.237 1_545 S
O671 Eu648 2.349 1_545 S
O671 C650 1.265 . S
C672 C673 1.379 1_545 S
C672 C676 1.373 . S
C672 C678 1.505 . S
C673 C672 1.379 1_565 S
C673 C675 1.369 . S
C673 H684 0.930 . S
C674 C676 1.383 . S
C674 C677 1.382 1_545 S
C674 H685 0.930 . S
C675 C673 1.369 . S
C675 C677 1.392 . S
C675 H686 0.930 . S
C676 C672 1.373 . S
C676 C674 1.383 . S
C676 H687 0.931 . S
C677 C674 1.382 1_565 S
C677 C675 1.392 . S
C678 Eu649 2.828 . S
C678 O662 1.249 . S
C678 O663 1.243 . S
C678 C672 1.505 . S
C679 O666 1.258 . S
C679 O667 1.242 1_556 S
H680 C652 0.930 . S
H681 C653 0.930 . S
H682 C654 0.930 . S
H683 C655 0.931 . S
H684 C673 0.930 . S
H685 C674 0.930 . S
H686 C675 0.930 . S
H687 C676 0.931 . S
Eu688 C697 2.828 . S
Eu688 O699 2.392 1_556 S
Eu688 O701 2.418 . S
Eu688 O706 2.373 1_455 S
Eu688 O709 2.488 . S
Eu688 O710 2.471 1_455 S
Eu688 O711 2.349 1_455 S
Eu689 O698 2.373 1_655 S
Eu689 O702 2.488 . S
Eu689 O703 2.471 1_655 S
Eu689 O704 2.349 1_655 S
Eu689 O707 2.354 1_554 S
Eu689 O708 2.418 . S
Eu689 C718 2.828 . S
C690 O708 1.244 1_556 S
C690 O711 1.265 . S
C691 C692 1.379 1_455 S
C691 C695 1.373 . S
C691 C697 1.505 . S
C692 C691 1.379 1_655 S
C692 C694 1.369 . S
C692 H720 0.930 . S
C693 C695 1.383 . S
C693 C696 1.382 1_455 S
C693 H721 0.930 . S
C694 C692 1.369 . S
C694 C696 1.392 . S
C694 H722 0.930 . S
C695 C691 1.373 . S
C695 C693 1.383 . S
C695 H723 0.931 . S
C696 C693 1.382 1_655 S
C696 C694 1.392 . S
C697 Eu688 2.828 . S
C697 C691 1.505 . S
C697 O709 1.249 . S
C697 O710 1.244 1_455 S
O698 Eu689 2.373 1_455 S
O698 C700 1.258 . S
O699 Eu688 2.392 1_554 S
O699 C700 1.242 . S
C700 O698 1.258 . S
C700 O699 1.242 . S
O701 Eu688 2.418 . S
O701 C705 1.244 1_556 S
O702 Eu689 2.488 . S
O702 C718 1.249 . S
O703 Eu689 2.471 1_455 S
O703 C718 1.244 1_455 S
O704 Eu689 2.349 1_455 S
O704 C705 1.265 . S
C705 O701 1.244 1_554 S
C705 O704 1.265 . S
O706 Eu688 2.373 1_655 S
O706 C719 1.258 . S
O707 Eu689 2.354 1_556 S
O707 C719 1.289 . S
O708 Eu689 2.418 . S
O708 C690 1.244 1_554 S
O709 Eu688 2.488 . S
O709 C697 1.249 . S
O710 Eu688 2.471 1_655 S
O710 C697 1.244 1_655 S
O711 Eu688 2.349 1_655 S
O711 C690 1.265 . S
C712 C713 1.379 1_655 S
C712 C716 1.373 . S
C712 C718 1.505 . S
C713 C712 1.379 1_455 S
C713 C715 1.369 . S
C713 H724 0.930 . S
C714 C716 1.383 . S
C714 C717 1.382 1_655 S
C714 H725 0.930 . S
C715 C713 1.369 . S
C715 C717 1.392 . S
C715 H726 0.930 . S
C716 C712 1.373 . S
C716 C714 1.383 . S
C716 H727 0.931 . S
C717 C714 1.382 1_455 S
C717 C715 1.392 . S
C718 Eu689 2.828 . S
C718 O702 1.249 . S
C718 O703 1.244 1_655 S
C718 C712 1.505 . S
C719 O706 1.258 . S
C719 O707 1.289 . S
H720 C692 0.930 . S
H721 C693 0.930 . S
H722 C694 0.930 . S
H723 C695 0.931 . S
H724 C713 0.930 . S
H725 C714 0.930 . S
H726 C715 0.930 . S
H727 C716 0.931 . S
Eu728 C737 2.828 . S
Eu728 O739 2.392 . S
Eu728 O741 2.418 . S
Eu728 O746 2.373 . S
Eu728 O749 2.488 . S
Eu728 O750 2.471 . S
Eu728 O751 2.349 . S
Eu729 O738 2.373 . S
Eu729 O742 2.488 . S
Eu729 O743 2.471 . S
Eu729 O744 2.349 . S
Eu729 O747 2.392 1_556 S
Eu729 O748 2.418 . S
Eu729 C758 2.828 . S
C730 O748 1.244 1_554 S
C730 O751 1.265 . S
C731 C732 1.379 . S
C731 C735 1.373 . S
C731 C737 1.505 . S
C732 C731 1.379 . S
C732 C734 1.369 . S
C732 H760 0.930 . S
C733 C735 1.383 . S
C733 C736 1.382 . S
C733 H761 0.930 . S
C734 C732 1.369 . S
C734 C736 1.392 . S
C734 H762 0.930 . S
C735 C731 1.373 . S
C735 C733 1.383 . S
C735 H763 0.931 . S
C736 C733 1.382 . S
C736 C734 1.392 . S
C737 Eu728 2.828 . S
C737 C731 1.505 . S
C737 O749 1.249 . S
C737 O750 1.244 . S
O738 Eu729 2.373 . S
O738 C740 1.258 . S
O739 Eu728 2.392 . S
O739 C740 1.242 1_554 S
C740 O738 1.258 . S
C740 O739 1.242 1_556 S
O741 Eu728 2.418 . S
O741 C745 1.244 1_554 S
O742 Eu729 2.488 . S
O742 C758 1.249 . S
O743 Eu729 2.471 . S
O743 C758 1.244 . S
O744 Eu729 2.349 . S
O744 C745 1.265 . S
C745 O741 1.244 1_556 S
C745 O744 1.265 . S
O746 Eu728 2.373 . S
O746 C759 1.258 . S
O747 Eu729 2.392 1_554 S
O747 C759 1.242 . S
O748 Eu729 2.418 . S
O748 C730 1.244 1_556 S
O749 Eu728 2.488 . S
O749 C737 1.249 . S
O750 Eu728 2.471 . S
O750 C737 1.244 . S
O751 Eu728 2.349 . S
O751 C730 1.265 . S
C752 C753 1.379 . S
C752 C756 1.373 . S
C752 C758 1.505 . S
C753 C752 1.379 . S
C753 C755 1.369 . S
C753 H764 0.930 . S
C754 C756 1.383 . S
C754 C757 1.382 . S
C754 H765 0.930 . S
C755 C753 1.369 . S
C755 C757 1.392 . S
C755 H766 0.930 . S
C756 C752 1.373 . S
C756 C754 1.383 . S
C756 H767 0.931 . S
C757 C754 1.382 . S
C757 C755 1.392 . S
C758 Eu729 2.828 . S
C758 O742 1.249 . S
C758 O743 1.244 . S
C758 C752 1.505 . S
C759 O746 1.258 . S
C759 O747 1.242 . S
H760 C732 0.930 . S
H761 C733 0.930 . S
H762 C734 0.930 . S
H763 C735 0.931 . S
H764 C753 0.930 . S
H765 C754 0.930 . S
H766 C755 0.930 . S
H767 C756 0.931 . S
Eu768 C777 2.828 . S
Eu768 O779 2.392 . S
Eu768 O781 2.418 . S
Eu768 O786 2.373 . S
Eu768 O789 2.488 . S
Eu768 O790 2.471 . S
Eu768 O791 2.349 . S
Eu769 O778 2.373 . S
Eu769 O782 2.488 . S
Eu769 O783 2.471 . S
Eu769 O784 2.349 . S
Eu769 O787 2.392 . S
Eu769 O788 2.418 . S
Eu769 C798 2.828 . S
C770 O788 1.244 . S
C770 O791 1.265 . S
C771 C772 1.379 . S
C771 C775 1.373 . S
C771 C777 1.505 . S
C772 C771 1.379 . S
C772 C774 1.369 . S
C772 H800 0.930 . S
C773 C775 1.383 . S
C773 C776 1.382 . S
C773 H801 0.930 . S
C774 C772 1.369 . S
C774 C776 1.392 . S
C774 H802 0.930 . S
C775 C771 1.373 . S
C775 C773 1.383 . S
C775 H803 0.931 . S
C776 C773 1.382 . S
C776 C774 1.392 . S
C777 Eu768 2.828 . S
C777 C771 1.505 . S
C777 O789 1.249 . S
C777 O790 1.244 . S
O778 Eu769 2.373 . S
O778 C780 1.258 . S
O779 Eu768 2.392 . S
O779 C780 1.242 . S
C780 O778 1.258 . S
C780 O779 1.242 . S
O781 Eu768 2.418 . S
O781 C785 1.244 . S
O782 Eu769 2.488 . S
O782 C798 1.249 . S
O783 Eu769 2.471 . S
O783 C798 1.244 . S
O784 Eu769 2.349 . S
O784 C785 1.265 . S
C785 O781 1.244 . S
C785 O784 1.265 . S
O786 Eu768 2.373 . S
O786 C799 1.258 . S
O787 Eu769 2.392 . S
O787 C799 1.242 . S
O788 Eu769 2.418 . S
O788 C770 1.244 . S
O789 Eu768 2.488 . S
O789 C777 1.249 . S
O790 Eu768 2.471 . S
O790 C777 1.244 . S
O791 Eu768 2.349 . S
O791 C770 1.265 . S
C792 C793 1.379 . S
C792 C796 1.373 . S
C792 C798 1.505 . S
C793 C792 1.379 . S
C793 C795 1.369 . S
C793 H804 0.930 . S
C794 C796 1.383 . S
C794 C797 1.382 . S
C794 H805 0.930 . S
C795 C793 1.369 . S
C795 C797 1.392 . S
C795 H806 0.930 . S
C796 C792 1.373 . S
C796 C794 1.383 . S
C796 H807 0.931 . S
C797 C794 1.382 . S
C797 C795 1.392 . S
C798 Eu769 2.828 . S
C798 O782 1.249 . S
C798 O783 1.244 . S
C798 C792 1.505 . S
C799 O786 1.258 . S
C799 O787 1.242 . S
H800 C772 0.930 . S
H801 C773 0.930 . S
H802 C774 0.930 . S
H803 C775 0.931 . S
H804 C793 0.930 . S
H805 C794 0.930 . S
H806 C795 0.930 . S
H807 C796 0.931 . S
Eu808 C817 2.828 . S
Eu808 O819 2.392 . S
Eu808 O821 2.418 . S
Eu808 O826 2.373 . S
Eu808 O829 2.488 . S
Eu808 O830 2.471 . S
Eu808 O831 2.349 . S
Eu809 O818 2.373 . S
Eu809 O822 2.488 . S
Eu809 O823 2.471 . S
Eu809 O824 2.349 . S
Eu809 O827 2.392 . S
Eu809 O828 2.418 . S
Eu809 C838 2.828 . S
C810 O828 1.244 . S
C810 O831 1.265 . S
C811 C812 1.379 . S
C811 C815 1.373 . S
C811 C817 1.505 . S
C812 C811 1.379 . S
C812 C814 1.369 . S
C812 H840 0.930 . S
C813 C815 1.383 . S
C813 C816 1.382 . S
C813 H841 0.930 . S
C814 C812 1.369 . S
C814 C816 1.392 . S
C814 H842 0.930 . S
C815 C811 1.373 . S
C815 C813 1.383 . S
C815 H843 0.931 . S
C816 C813 1.382 . S
C816 C814 1.392 . S
C817 Eu808 2.828 . S
C817 C811 1.505 . S
C817 O829 1.249 . S
C817 O830 1.244 . S
O818 Eu809 2.373 . S
O818 C820 1.258 . S
O819 Eu808 2.392 . S
O819 C820 1.242 . S
C820 O818 1.258 . S
C820 O819 1.242 . S
O821 Eu808 2.418 . S
O821 C825 1.244 . S
O822 Eu809 2.488 . S
O822 C838 1.249 . S
O823 Eu809 2.471 . S
O823 C838 1.244 . S
O824 Eu809 2.349 . S
O824 C825 1.265 . S
C825 O821 1.244 . S
C825 O824 1.265 . S
O826 Eu808 2.373 . S
O826 C839 1.258 . S
O827 Eu809 2.392 . S
O827 C839 1.242 . S
O828 Eu809 2.418 . S
O828 C810 1.244 . S
O829 Eu808 2.488 . S
O829 C817 1.249 . S
O830 Eu808 2.471 . S
O830 C817 1.244 . S
O831 Eu808 2.349 . S
O831 C810 1.265 . S
C832 C833 1.379 . S
C832 C836 1.373 . S
C832 C838 1.505 . S
C833 C832 1.379 . S
C833 C835 1.369 . S
C833 H844 0.930 . S
C834 C836 1.383 . S
C834 C837 1.382 . S
C834 H845 0.930 . S
C835 C833 1.369 . S
C835 C837 1.392 . S
C835 H846 0.930 . S
C836 C832 1.373 . S
C836 C834 1.383 . S
C836 H847 0.931 . S
C837 C834 1.382 . S
C837 C835 1.392 . S
C838 Eu809 2.828 . S
C838 O822 1.249 . S
C838 O823 1.244 . S
C838 C832 1.505 . S
C839 O826 1.258 . S
C839 O827 1.242 . S
H840 C812 0.930 . S
H841 C813 0.930 . S
H842 C814 0.930 . S
H843 C815 0.931 . S
H844 C833 0.930 . S
H845 C834 0.930 . S
H846 C835 0.930 . S
H847 C836 0.931 . S
Eu848 C857 2.828 . S
Eu848 O859 2.392 . S
Eu848 O861 2.418 . S
Eu848 O866 2.373 . S
Eu848 O869 2.488 . S
Eu848 O870 2.471 . S
Eu848 O871 2.349 . S
Eu849 O858 2.373 . S
Eu849 O862 2.488 . S
Eu849 O863 2.471 . S
Eu849 O864 2.349 . S
Eu849 O867 2.392 . S
Eu849 O868 2.418 . S
Eu849 C878 2.828 . S
C850 O868 1.244 . S
C850 O871 1.265 . S
C851 C852 1.379 . S
C851 C855 1.373 . S
C851 C857 1.505 . S
C852 C851 1.379 . S
C852 C854 1.369 . S
C852 H880 0.930 . S
C853 C855 1.383 . S
C853 C856 1.382 . S
C853 H881 0.930 . S
C854 C852 1.369 . S
C854 C856 1.392 . S
C854 H882 0.930 . S
C855 C851 1.373 . S
C855 C853 1.383 . S
C855 H883 0.931 . S
C856 C853 1.382 . S
C856 C854 1.392 . S
C857 Eu848 2.828 . S
C857 C851 1.505 . S
C857 O869 1.249 . S
C857 O870 1.244 . S
O858 Eu849 2.373 . S
O858 C860 1.258 . S
O859 Eu848 2.392 . S
O859 C860 1.242 . S
C860 O858 1.258 . S
C860 O859 1.242 . S
O861 Eu848 2.418 . S
O861 C865 1.244 . S
O862 Eu849 2.488 . S
O862 C878 1.249 . S
O863 Eu849 2.471 . S
O863 C878 1.244 . S
O864 Eu849 2.349 . S
O864 C865 1.265 . S
C865 O861 1.244 . S
C865 O864 1.265 . S
O866 Eu848 2.373 . S
O866 C879 1.258 . S
O867 Eu849 2.392 . S
O867 C879 1.242 . S
O868 Eu849 2.418 . S
O868 C850 1.244 . S
O869 Eu848 2.488 . S
O869 C857 1.249 . S
O870 Eu848 2.471 . S
O870 C857 1.244 . S
O871 Eu848 2.349 . S
O871 C850 1.265 . S
C872 C873 1.379 . S
C872 C876 1.373 . S
C872 C878 1.505 . S
C873 C872 1.379 . S
C873 C875 1.369 . S
C873 H884 0.930 . S
C874 C876 1.383 . S
C874 C877 1.382 . S
C874 H885 0.930 . S
C875 C873 1.369 . S
C875 C877 1.392 . S
C875 H886 0.930 . S
C876 C872 1.373 . S
C876 C874 1.383 . S
C876 H887 0.931 . S
C877 C874 1.382 . S
C877 C875 1.392 . S
C878 Eu849 2.828 . S
C878 O862 1.249 . S
C878 O863 1.244 . S
C878 C872 1.505 . S
C879 O866 1.258 . S
C879 O867 1.242 . S
H880 C852 0.930 . S
H881 C853 0.930 . S
H882 C854 0.930 . S
H883 C855 0.931 . S
H884 C873 0.930 . S
H885 C874 0.930 . S
H886 C875 0.930 . S
H887 C876 0.931 . S
Eu888 C897 2.828 . S
Eu888 O899 2.392 . S
Eu888 O901 2.418 . S
Eu888 O906 2.373 . S
Eu888 O909 2.488 . S
Eu888 O910 2.471 . S
Eu888 O911 2.349 . S
Eu889 O898 2.373 . S
Eu889 O902 2.488 . S
Eu889 O903 2.471 . S
Eu889 O904 2.349 . S
Eu889 O907 2.392 . S
Eu889 O908 2.418 . S
Eu889 C918 2.828 . S
C890 O908 1.244 . S
C890 O911 1.265 . S
C891 C892 1.379 . S
C891 C895 1.373 . S
C891 C897 1.505 . S
C892 C891 1.379 . S
C892 C894 1.369 . S
C892 H920 0.930 . S
C893 C895 1.383 . S
C893 C896 1.382 . S
C893 H921 0.930 . S
C894 C892 1.369 . S
C894 C896 1.392 . S
C894 H922 0.930 . S
C895 C891 1.373 . S
C895 C893 1.383 . S
C895 H923 0.931 . S
C896 C893 1.382 . S
C896 C894 1.392 . S
C897 Eu888 2.828 . S
C897 C891 1.505 . S
C897 O909 1.249 . S
C897 O910 1.244 . S
O898 Eu889 2.373 . S
O898 C900 1.258 . S
O899 Eu888 2.392 . S
O899 C900 1.242 . S
C900 O898 1.258 . S
C900 O899 1.242 . S
O901 Eu888 2.418 . S
O901 C905 1.244 . S
O902 Eu889 2.488 . S
O902 C918 1.249 . S
O903 Eu889 2.471 . S
O903 C918 1.244 . S
O904 Eu889 2.349 . S
O904 C905 1.265 . S
C905 O901 1.244 . S
C905 O904 1.265 . S
O906 Eu888 2.373 . S
O906 C919 1.258 . S
O907 Eu889 2.392 . S
O907 C919 1.242 . S
O908 Eu889 2.418 . S
O908 C890 1.244 . S
O909 Eu888 2.488 . S
O909 C897 1.249 . S
O910 Eu888 2.471 . S
O910 C897 1.244 . S
O911 Eu888 2.349 . S
O911 C890 1.265 . S
C912 C913 1.379 . S
C912 C916 1.373 . S
C912 C918 1.505 . S
C913 C912 1.379 . S
C913 C915 1.369 . S
C913 H924 0.930 . S
C914 C916 1.383 . S
C914 C917 1.382 . S
C914 H925 0.930 . S
C915 C913 1.369 . S
C915 C917 1.392 . S
C915 H926 0.930 . S
C916 C912 1.373 . S
C916 C914 1.383 . S
C916 H927 0.931 . S
C917 C914 1.382 . S
C917 C915 1.392 . S
C918 Eu889 2.828 . S
C918 O902 1.249 . S
C918 O903 1.244 . S
C918 C912 1.505 . S
C919 O906 1.258 . S
C919 O907 1.242 . S
H920 C892 0.930 . S
H921 C893 0.930 . S
H922 C894 0.930 . S
H923 C895 0.931 . S
H924 C913 0.930 . S
H925 C914 0.930 . S
H926 C915 0.930 . S
H927 C916 0.931 . S
Eu928 C937 2.828 . S
Eu928 O939 2.392 . S
Eu928 O941 2.418 . S
Eu928 O946 2.373 . S
Eu928 O949 2.488 . S
Eu928 O950 2.471 . S
Eu928 O951 2.349 . S
Eu929 O938 2.373 . S
Eu929 O942 2.488 . S
Eu929 O943 2.471 . S
Eu929 O944 2.349 . S
Eu929 O947 2.392 . S
Eu929 O948 2.418 . S
Eu929 C958 2.828 . S
C930 O948 1.244 . S
C930 O951 1.265 . S
C931 C932 1.379 . S
C931 C935 1.373 . S
C931 C937 1.505 . S
C932 C931 1.379 . S
C932 C934 1.369 . S
C932 H960 0.930 . S
C933 C935 1.383 . S
C933 C936 1.382 . S
C933 H961 0.930 . S
C934 C932 1.369 . S
C934 C936 1.392 . S
C934 H962 0.930 . S
C935 C931 1.373 . S
C935 C933 1.383 . S
C935 H963 0.931 . S
C936 C933 1.382 . S
C936 C934 1.392 . S
C937 Eu928 2.828 . S
C937 C931 1.505 . S
C937 O949 1.249 . S
C937 O950 1.244 . S
O938 Eu929 2.373 . S
O938 C940 1.258 . S
O939 Eu928 2.392 . S
O939 C940 1.242 . S
C940 O938 1.258 . S
C940 O939 1.242 . S
O941 Eu928 2.418 . S
O941 C945 1.244 . S
O942 Eu929 2.488 . S
O942 C958 1.249 . S
O943 Eu929 2.471 . S
O943 C958 1.244 . S
O944 Eu929 2.349 . S
O944 C945 1.265 . S
C945 O941 1.244 . S
C945 O944 1.265 . S
O946 Eu928 2.373 . S
O946 C959 1.258 . S
O947 Eu929 2.392 . S
O947 C959 1.242 . S
O948 Eu929 2.418 . S
O948 C930 1.244 . S
O949 Eu928 2.488 . S
O949 C937 1.249 . S
O950 Eu928 2.471 . S
O950 C937 1.244 . S
O951 Eu928 2.349 . S
O951 C930 1.265 . S
C952 C953 1.379 . S
C952 C956 1.373 . S
C952 C958 1.505 . S
C953 C952 1.379 . S
C953 C955 1.369 . S
C953 H964 0.930 . S
C954 C956 1.383 . S
C954 C957 1.382 . S
C954 H965 0.930 . S
C955 C953 1.369 . S
C955 C957 1.392 . S
C955 H966 0.930 . S
C956 C952 1.373 . S
C956 C954 1.383 . S
C956 H967 0.931 . S
C957 C954 1.382 . S
C957 C955 1.392 . S
C958 Eu929 2.828 . S
C958 O942 1.249 . S
C958 O943 1.244 . S
C958 C952 1.505 . S
C959 O946 1.258 . S
C959 O947 1.242 . S
H960 C932 0.930 . S
H961 C933 0.930 . S
H962 C934 0.930 . S
H963 C935 0.931 . S
H964 C953 0.930 . S
H965 C954 0.930 . S
H966 C955 0.930 . S
H967 C956 0.931 . S
Eu968 C977 2.828 . S
Eu968 O979 2.392 . S
Eu968 O981 2.418 . S
Eu968 O986 2.373 . S
Eu968 O989 2.488 . S
Eu968 O990 2.471 . S
Eu968 O991 2.349 . S
Eu969 O978 2.373 . S
Eu969 O982 2.488 . S
Eu969 O983 2.471 . S
Eu969 O984 2.349 . S
Eu969 O987 2.392 . S
Eu969 O988 2.418 . S
Eu969 C998 2.828 . S
C970 O988 1.244 . S
C970 O991 1.265 . S
C971 C972 1.379 . S
C971 C975 1.373 . S
C971 C977 1.505 . S
C972 C971 1.379 . S
C972 C974 1.369 . S
C972 H1000 0.930 . S
C973 C975 1.383 . S
C973 C976 1.382 . S
C973 H1001 0.930 . S
C974 C972 1.369 . S
C974 C976 1.392 . S
C974 H1002 0.930 . S
C975 C971 1.373 . S
C975 C973 1.383 . S
C975 H1003 0.931 . S
C976 C973 1.382 . S
C976 C974 1.392 . S
C977 Eu968 2.828 . S
C977 C971 1.505 . S
C977 O989 1.249 . S
C977 O990 1.244 . S
O978 Eu969 2.373 . S
O978 C980 1.258 . S
O979 Eu968 2.392 . S
O979 C980 1.242 . S
C980 O978 1.258 . S
C980 O979 1.242 . S
O981 Eu968 2.418 . S
O981 C985 1.244 . S
O982 Eu969 2.488 . S
O982 C998 1.249 . S
O983 Eu969 2.471 . S
O983 C998 1.244 . S
O984 Eu969 2.349 . S
O984 C985 1.265 . S
C985 O981 1.244 . S
C985 O984 1.265 . S
O986 Eu968 2.373 . S
O986 C999 1.258 . S
O987 Eu969 2.392 . S
O987 C999 1.242 . S
O988 Eu969 2.418 . S
O988 C970 1.244 . S
O989 Eu968 2.488 . S
O989 C977 1.249 . S
O990 Eu968 2.471 . S
O990 C977 1.244 . S
O991 Eu968 2.349 . S
O991 C970 1.265 . S
C992 C993 1.379 . S
C992 C996 1.373 . S
C992 C998 1.505 . S
C993 C992 1.379 . S
C993 C995 1.369 . S
C993 H1004 0.930 . S
C994 C996 1.383 . S
C994 C997 1.382 . S
C994 H1005 0.930 . S
C995 C993 1.369 . S
C995 C997 1.392 . S
C995 H1006 0.930 . S
C996 C992 1.373 . S
C996 C994 1.383 . S
C996 H1007 0.931 . S
C997 C994 1.382 . S
C997 C995 1.392 . S
C998 Eu969 2.828 . S
C998 O982 1.249 . S
C998 O983 1.244 . S
C998 C992 1.505 . S
C999 O986 1.258 . S
C999 O987 1.242 . S
H1000 C972 0.930 . S
H1001 C973 0.930 . S
H1002 C974 0.930 . S
H1003 C975 0.931 . S
H1004 C993 0.930 . S
H1005 C994 0.930 . S
H1006 C995 0.930 . S
H1007 C996 0.931 . S
C1008 C1009 1.387 . S
C1008 H1012 0.950 . S
C1008 C1017 1.390 . S
C1009 C1008 1.387 . S
C1009 C1011 1.387 . S
H1010 C1017 0.950 . S
C1011 C1009 1.387 . S
C1011 C1013 1.390 . S
C1011 H1015 0.950 . S
H1012 C1008 0.950 . S
C1013 C1011 1.390 . S
C1013 C1014 1.387 . S
C1013 H1016 0.950 . S
C1014 C1013 1.387 . S
C1014 C1017 1.387 . S
H1015 C1011 0.950 . S
H1016 C1013 0.950 . S
C1017 C1008 1.390 . S
C1017 H1010 0.950 . S
C1017 C1014 1.387 . S
C1018 C1019 1.387 . S
C1018 H1022 0.950 . S
C1018 C1027 1.390 . S
C1019 C1018 1.387 . S
C1019 C1021 1.387 . S
H1020 C1027 0.950 . S
C1021 C1019 1.387 . S
C1021 C1023 1.390 . S
C1021 H1025 0.950 . S
H1022 C1018 0.950 . S
C1023 C1021 1.390 . S
C1023 C1024 1.387 . S
C1023 H1026 0.950 . S
C1024 C1023 1.387 . S
C1024 C1027 1.387 . S
H1025 C1021 0.950 . S
H1026 C1023 0.950 . S
C1027 C1018 1.390 . S
C1027 H1020 0.950 . S
C1027 C1024 1.387 . S
C1028 C1029 1.388 1_556 S
C1028 H1032 0.949 . S
C1028 C1037 1.390 . S
C1029 C1028 1.388 1_554 S
C1029 C1031 1.387 . S
H1030 C1037 0.950 . S
C1031 C1029 1.387 . S
C1031 C1033 1.390 . S
C1031 H1035 0.950 . S
H1032 C1028 0.949 . S
C1033 C1031 1.390 . S
C1033 C1034 1.387 . S
C1033 H1036 0.950 . S
C1034 C1033 1.387 . S
C1034 C1037 1.387 1_554 S
H1035 C1031 0.950 . S
H1036 C1033 0.950 . S
C1037 C1028 1.390 . S
C1037 H1030 0.950 . S
C1037 C1034 1.387 1_556 S
C1038 C1039 1.387 . S
C1038 H1042 0.950 . S
C1038 C1047 1.390 . S
C1039 C1038 1.387 . S
C1039 C1041 1.387 . S
H1040 C1047 0.950 . S
C1041 C1039 1.387 . S
C1041 C1043 1.390 1_556 S
C1041 H1045 0.950 1_556 S
H1042 C1038 0.950 . S
C1043 C1041 1.390 1_554 S
C1043 C1044 1.387 1_554 S
C1043 H1046 0.950 . S
C1044 C1043 1.387 1_556 S
C1044 C1047 1.387 . S
H1045 C1041 0.950 1_554 S
H1046 C1043 0.950 . S
C1047 C1038 1.390 . S
C1047 H1040 0.950 . S
C1047 C1044 1.387 . S
C1048 C1049 1.387 . S
C1048 H1052 0.950 . S
C1048 C1057 1.390 . S
C1049 C1048 1.387 . S
C1049 C1051 1.387 . S
H1050 C1057 0.950 1_554 S
C1051 C1049 1.387 . S
C1051 C1053 1.390 . S
C1051 H1055 0.950 . S
H1052 C1048 0.950 . S
C1053 C1051 1.390 . S
C1053 C1054 1.387 . S
C1053 H1056 0.950 . S
C1054 C1053 1.387 . S
C1054 C1057 1.387 . S
H1055 C1051 0.950 . S
H1056 C1053 0.950 . S
C1057 C1048 1.390 . S
C1057 H1050 0.950 1_556 S
C1057 C1054 1.387 . S
C1058 C1059 1.387 . S
C1058 H1062 0.950 . S
C1058 C1067 1.390 . S
C1059 C1058 1.387 . S
C1059 C1061 1.337 1_556 S
H1060 C1067 0.950 . S
C1061 C1059 1.337 1_554 S
C1061 C1063 1.399 . S
C1061 H1065 0.993 . S
H1062 C1058 0.950 . S
C1063 C1061 1.399 . S
C1063 C1064 1.387 1_554 S
C1063 H1066 0.950 . S
C1064 C1063 1.387 1_556 S
C1064 C1067 1.387 . S
H1065 C1061 0.993 . S
H1066 C1063 0.950 . S
C1067 C1058 1.390 . S
C1067 H1060 0.950 . S
C1067 C1064 1.387 . S
C1068 C1069 1.387 . S
C1068 H1072 0.950 . S
C1068 C1077 1.390 . S
C1069 C1068 1.387 . S
C1069 C1071 1.387 . S
H1070 C1077 0.950 . S
C1071 C1069 1.387 . S
C1071 C1073 1.390 . S
C1071 H1075 0.950 . S
H1072 C1068 0.950 . S
C1073 C1071 1.390 . S
C1073 C1074 1.387 . S
C1073 H1076 0.950 . S
C1074 C1073 1.387 . S
C1074 C1077 1.387 . S
H1075 C1071 0.950 . S
H1076 C1073 0.950 . S
C1077 C1068 1.390 . S
C1077 H1070 0.950 . S
C1077 C1074 1.387 . S
C1078 C1079 1.387 . S
C1078 H1082 0.950 . S
C1078 C1087 1.390 . S
C1079 C1078 1.387 . S
C1079 C1081 1.387 . S
H1080 C1087 0.950 . S
C1081 C1079 1.387 . S
C1081 C1083 1.390 . S
C1081 H1085 0.950 . S
H1082 C1078 0.950 . S
C1083 C1081 1.390 . S
C1083 C1084 1.387 . S
C1083 H1086 0.950 . S
C1084 C1083 1.387 . S
C1084 C1087 1.387 . S
H1085 C1081 0.950 . S
H1086 C1083 0.950 . S
C1087 C1078 1.390 . S
C1087 H1080 0.950 . S
C1087 C1084 1.387 . S
C1088 C1089 1.387 . S
C1088 H1092 0.950 . S
C1088 C1097 1.390 . S
C1089 C1088 1.387 . S
C1089 C1091 1.387 1_556 S
H1090 C1097 0.950 . S
C1091 C1089 1.387 1_554 S
C1091 C1093 1.390 . S
C1091 H1095 0.950 . S
H1092 C1088 0.950 . S
C1093 C1091 1.390 . S
C1093 C1094 1.387 1_554 S
C1093 H1096 0.950 . S
C1094 C1093 1.387 1_556 S
C1094 C1097 1.387 . S
H1095 C1091 0.950 . S
H1096 C1093 0.950 . S
C1097 C1088 1.390 . S
C1097 H1090 0.950 . S
C1097 C1094 1.387 . S
C1098 C1099 1.387 . S
C1098 H1102 0.950 . S
C1098 C1107 1.390 . S
C1099 C1098 1.387 . S
C1099 C1101 1.387 . S
H1100 C1107 0.950 . S
C1101 C1099 1.387 . S
C1101 C1103 1.390 . S
C1101 H1105 0.950 . S
H1102 C1098 0.950 . S
C1103 C1101 1.390 . S
C1103 C1104 1.387 . S
C1103 H1106 0.950 . S
C1104 C1103 1.387 . S
C1104 C1107 1.387 . S
H1105 C1101 0.950 . S
H1106 C1103 0.950 . S
C1107 C1098 1.390 . S
C1107 H1100 0.950 . S
C1107 C1104 1.387 . S
C1108 C1109 1.387 . S
C1108 H1112 0.950 . S
C1108 C1117 1.390 . S
C1109 C1108 1.387 . S
C1109 C1111 1.387 . S
H1110 C1117 0.950 . S
C1111 C1109 1.387 . S
C1111 C1113 1.390 . S
C1111 H1115 0.950 . S
H1112 C1108 0.950 . S
C1113 C1111 1.390 . S
C1113 C1114 1.387 . S
C1113 H1116 0.950 . S
C1114 C1113 1.387 . S
C1114 C1117 1.387 . S
H1115 C1111 0.950 . S
H1116 C1113 0.950 . S
C1117 C1108 1.390 . S
C1117 H1110 0.950 . S
C1117 C1114 1.387 . S
C1118 C1119 1.387 . S
C1118 H1122 0.950 1_554 S
C1118 C1127 1.390 . S
C1119 C1118 1.387 . S
C1119 C1121 1.387 . S
H1120 C1127 0.950 1_556 S
C1121 C1119 1.387 . S
C1121 C1123 1.390 . S
C1121 H1125 0.950 . S
H1122 C1118 0.950 1_556 S
C1123 C1121 1.390 . S
C1123 C1124 1.387 . S
C1123 H1126 0.950 . S
C1124 C1123 1.387 . S
C1124 C1127 1.387 . S
H1125 C1121 0.950 . S
H1126 C1123 0.950 . S
C1127 C1118 1.390 . S
C1127 H1120 0.950 1_554 S
C1127 C1124 1.387 . S
C1128 C1129 1.387 . S
C1128 H1132 0.950 1_455 S
C1128 C1137 1.390 . S
C1129 C1128 1.387 . S
C1129 C1131 1.387 . S
H1130 C1137 0.950 . S
C1131 C1129 1.387 . S
C1131 C1133 1.390 . S
C1131 H1135 0.950 . S
H1132 C1128 0.950 1_655 S
C1133 C1131 1.390 . S
C1133 C1134 1.387 . S
C1133 H1136 0.950 . S
C1134 C1133 1.387 . S
C1134 C1137 1.387 . S
H1135 C1131 0.950 . S
H1136 C1133 0.950 . S
C1137 C1128 1.390 . S
C1137 H1130 0.950 . S
C1137 C1134 1.387 . S
C1138 C1139 1.387 . S
C1138 H1142 0.950 . S
C1138 C1147 1.390 . S
C1139 C1138 1.387 . S
C1139 C1141 1.387 . S
H1140 C1147 0.950 . S
C1141 C1139 1.387 . S
C1141 C1143 1.390 . S
C1141 H1145 0.950 . S
H1142 C1138 0.950 . S
C1143 C1141 1.390 . S
C1143 C1144 1.387 . S
C1143 H1146 0.950 . S
C1144 C1143 1.387 . S
C1144 C1147 1.387 . S
H1145 C1141 0.950 . S
H1146 C1143 0.950 . S
C1147 C1138 1.390 . S
C1147 H1140 0.950 . S
C1147 C1144 1.387 . S
C1148 C1149 1.387 1_565 S
C1148 H1152 0.950 1_565 S
C1148 C1157 1.390 . S
C1149 C1148 1.387 1_545 S
C1149 C1151 1.387 1_545 S
H1150 C1157 0.950 . S
C1151 C1149 1.387 1_565 S
C1151 C1153 1.390 . S
C1151 H1155 0.950 . S
H1152 C1148 0.950 1_545 S
C1153 C1151 1.390 . S
C1153 C1154 1.387 . S
C1153 H1156 0.950 . S
C1154 C1153 1.387 . S
C1154 C1157 1.387 . S
H1155 C1151 0.950 . S
H1156 C1153 0.950 . S
C1157 C1148 1.390 . S
C1157 H1150 0.950 . S
C1157 C1154 1.387 . S
C1158 C1159 1.387 . S
C1158 H1162 0.950 . S
C1158 C1167 1.390 . S
C1159 C1158 1.387 . S
C1159 C1161 1.387 . S
H1160 C1167 0.950 . S
C1161 C1159 1.387 . S
C1161 C1163 1.390 . S
C1161 H1165 0.950 . S
H1162 C1158 0.950 . S
C1163 C1161 1.390 . S
C1163 C1164 1.387 . S
C1163 H1166 0.950 . S
C1164 C1163 1.387 . S
C1164 C1167 1.387 . S
H1165 C1161 0.950 . S
H1166 C1163 0.950 . S
C1167 C1158 1.390 . S
C1167 H1160 0.950 . S
C1167 C1164 1.387 . S
C1168 C1169 1.387 . S
C1168 H1172 0.950 . S
C1168 C1177 1.390 . S
C1169 C1168 1.387 . S
C1169 C1171 1.387 . S
H1170 C1177 0.950 . S
C1171 C1169 1.387 . S
C1171 C1173 1.390 . S
C1171 H1175 0.950 . S
H1172 C1168 0.950 . S
C1173 C1171 1.390 . S
C1173 C1174 1.387 . S
C1173 H1176 0.950 . S
C1174 C1173 1.387 . S
C1174 C1177 1.387 . S
H1175 C1171 0.950 . S
H1176 C1173 0.950 . S
C1177 C1168 1.390 . S
C1177 H1170 0.950 . S
C1177 C1174 1.387 . S
C1178 C1179 1.387 . S
C1178 H1182 0.950 . S
C1178 C1187 1.390 . S
C1179 C1178 1.387 . S
C1179 C1181 1.387 . S
H1180 C1187 0.950 . S
C1181 C1179 1.387 . S
C1181 C1183 1.390 . S
C1181 H1185 0.950 . S
H1182 C1178 0.950 . S
C1183 C1181 1.390 . S
C1183 C1184 1.387 . S
C1183 H1186 0.950 . S
C1184 C1183 1.387 . S
C1184 C1187 1.387 . S
H1185 C1181 0.950 . S
H1186 C1183 0.950 . S
C1187 C1178 1.390 . S
C1187 H1180 0.950 . S
C1187 C1184 1.387 . S
C1188 C1189 1.387 . S
C1188 H1192 0.950 . S
C1188 C1197 1.390 . S
C1189 C1188 1.387 . S
C1189 C1191 1.387 . S
H1190 C1197 0.950 . S
C1191 C1189 1.387 . S
C1191 C1193 1.390 . S
C1191 H1195 0.950 . S
H1192 C1188 0.950 . S
C1193 C1191 1.390 . S
C1193 C1194 1.387 . S
C1193 H1196 0.950 . S
C1194 C1193 1.387 . S
C1194 C1197 1.387 . S
H1195 C1191 0.950 . S
H1196 C1193 0.950 . S
C1197 C1188 1.390 . S
C1197 H1190 0.950 . S
C1197 C1194 1.387 . S
C1198 C1199 1.387 . S
C1198 H1202 0.950 . S
C1198 C1207 1.390 . S
C1199 C1198 1.387 . S
C1199 C1201 1.387 . S
H1200 C1207 0.950 . S
C1201 C1199 1.387 . S
C1201 C1203 1.390 . S
C1201 H1205 0.950 . S
H1202 C1198 0.950 . S
C1203 C1201 1.390 . S
C1203 C1204 1.387 . S
C1203 H1206 0.950 . S
C1204 C1203 1.387 . S
C1204 C1207 1.387 . S
H1205 C1201 0.950 . S
H1206 C1203 0.950 . S
C1207 C1198 1.390 . S
C1207 H1200 0.950 . S
C1207 C1204 1.387 . S
C1208 C1209 1.387 . S
C1208 H1212 0.950 . S
C1208 C1217 1.390 . S
C1209 C1208 1.387 . S
C1209 C1211 1.387 . S
H1210 C1217 0.950 . S
C1211 C1209 1.387 . S
C1211 C1213 1.390 . S
C1211 H1215 0.950 . S
H1212 C1208 0.950 . S
C1213 C1211 1.390 . S
C1213 C1214 1.387 . S
C1213 H1216 0.950 . S
C1214 C1213 1.387 . S
C1214 C1217 1.387 . S
H1215 C1211 0.950 . S
H1216 C1213 0.950 . S
C1217 C1208 1.390 . S
C1217 H1210 0.950 . S
C1217 C1214 1.387 . S
C1218 C1219 1.393 . S
C1218 H1222 0.950 . S
C1218 C1227 1.390 . S
C1219 C1218 1.393 . S
C1219 C1221 1.402 . S
H1220 C1227 0.950 . S
C1221 C1219 1.402 . S
C1221 C1223 1.390 . S
C1221 H1225 0.950 . S
H1222 C1218 0.950 . S
C1223 C1221 1.390 . S
C1223 C1224 1.387 . S
C1223 H1226 0.950 . S
C1224 C1223 1.387 . S
C1224 C1227 1.387 . S
H1225 C1221 0.950 . S
H1226 C1223 0.950 . S
C1227 C1218 1.390 . S
C1227 H1220 0.950 . S
C1227 C1224 1.387 . S
C1228 C1229 1.387 . S
C1228 H1232 0.950 . S
C1228 C1237 1.390 . S
C1229 C1228 1.387 . S
C1229 C1231 1.387 . S
H1230 C1237 0.950 . S
C1231 C1229 1.387 . S
C1231 C1233 1.390 . S
C1231 H1235 0.950 . S
H1232 C1228 0.950 . S
C1233 C1231 1.390 . S
C1233 C1234 1.387 . S
C1233 H1236 0.950 . S
C1234 C1233 1.387 . S
C1234 C1237 1.387 . S
H1235 C1231 0.950 . S
H1236 C1233 0.950 . S
C1237 C1228 1.390 . S
C1237 H1230 0.950 . S
C1237 C1234 1.387 . S
C1238 C1239 1.387 . S
C1238 H1242 0.950 . S
C1238 C1247 1.390 . S
C1239 C1238 1.387 . S
C1239 C1241 1.387 . S
H1240 C1247 0.950 . S
C1241 C1239 1.387 . S
C1241 C1243 1.390 . S
C1241 H1245 0.950 . S
H1242 C1238 0.950 . S
C1243 C1241 1.390 . S
C1243 C1244 1.387 . S
C1243 H1246 0.950 . S
C1244 C1243 1.387 . S
C1244 C1247 1.387 . S
H1245 C1241 0.950 . S
H1246 C1243 0.950 . S
C1247 C1238 1.390 . S
C1247 H1240 0.950 . S
C1247 C1244 1.387 . S
C1248 C1249 1.387 . S
C1248 H1252 0.950 . S
C1248 C1257 1.390 . S
C1249 C1248 1.387 . S
C1249 C1251 1.387 . S
H1250 C1257 0.950 . S
C1251 C1249 1.387 . S
C1251 C1253 1.390 . S
C1251 H1255 0.950 . S
H1252 C1248 0.950 . S
C1253 C1251 1.390 . S
C1253 C1254 1.387 . S
C1253 H1256 0.950 . S
C1254 C1253 1.387 . S
C1254 C1257 1.387 . S
H1255 C1251 0.950 . S
H1256 C1253 0.950 . S
C1257 C1248 1.390 . S
C1257 H1250 0.950 . S
C1257 C1254 1.387 . S
C1258 C1259 1.387 . S
C1258 H1262 0.950 . S
C1258 C1267 1.390 . S
C1259 C1258 1.387 . S
C1259 C1261 1.387 . S
H1260 C1267 0.950 . S
C1261 C1259 1.387 . S
C1261 C1263 1.390 . S
C1261 H1265 0.950 . S
H1262 C1258 0.950 . S
C1263 C1261 1.390 . S
C1263 C1264 1.387 . S
C1263 H1266 0.950 . S
C1264 C1263 1.387 . S
C1264 C1267 1.387 . S
H1265 C1261 0.950 . S
H1266 C1263 0.950 . S
C1267 C1258 1.390 . S
C1267 H1260 0.950 . S
C1267 C1264 1.387 . S
C1268 C1269 1.387 . S
C1268 H1272 0.950 . S
C1268 C1277 1.390 . S
C1269 C1268 1.387 . S
C1269 C1271 1.387 . S
H1270 C1277 0.950 . S
C1271 C1269 1.387 . S
C1271 C1273 1.390 . S
C1271 H1275 0.950 . S
H1272 C1268 0.950 . S
C1273 C1271 1.390 . S
C1273 C1274 1.387 . S
C1273 H1276 0.950 . S
C1274 C1273 1.387 . S
C1274 C1277 1.387 . S
H1275 C1271 0.950 . S
H1276 C1273 0.950 . S
C1277 C1268 1.390 . S
C1277 H1270 0.950 . S
C1277 C1274 1.387 . S
C1278 C1279 1.389 . S
C1278 H1282 0.950 . S
C1278 C1287 1.390 . S
C1279 C1278 1.389 . S
C1279 C1281 1.389 . S
H1280 C1287 0.950 . S
C1281 C1279 1.389 . S
C1281 C1283 1.390 . S
C1281 H1285 0.950 . S
H1282 C1278 0.950 . S
C1283 C1281 1.390 . S
C1283 C1284 1.387 . S
C1283 H1286 0.950 . S
C1284 C1283 1.387 . S
C1284 C1287 1.387 . S
H1285 C1281 0.950 . S
H1286 C1283 0.950 . S
C1287 C1278 1.390 . S
C1287 H1280 0.950 . S
C1287 C1284 1.387 . S
C1288 C1289 1.387 . S
C1288 H1292 0.950 . S
C1288 C1297 1.390 . S
C1289 C1288 1.387 . S
C1289 C1291 1.387 . S
H1290 C1297 0.950 . S
C1291 C1289 1.387 . S
C1291 C1293 1.390 . S
C1291 H1295 0.950 . S
H1292 C1288 0.950 . S
C1293 C1291 1.390 . S
C1293 C1294 1.387 . S
C1293 H1296 0.950 . S
C1294 C1293 1.387 . S
C1294 C1297 1.387 . S
H1295 C1291 0.950 . S
H1296 C1293 0.950 . S
C1297 C1288 1.390 . S
C1297 H1290 0.950 . S
C1297 C1294 1.387 . S
C1298 C1299 1.387 . S
C1298 H1302 0.950 . S
C1298 C1307 1.390 . S
C1299 C1298 1.387 . S
C1299 C1301 1.387 . S
H1300 C1307 0.950 . S
C1301 C1299 1.387 . S
C1301 C1303 1.390 . S
C1301 H1305 0.950 . S
H1302 C1298 0.950 . S
C1303 C1301 1.390 . S
C1303 C1304 1.387 . S
C1303 H1306 0.950 . S
C1304 C1303 1.387 . S
C1304 C1307 1.387 . S
H1305 C1301 0.950 . S
H1306 C1303 0.950 . S
C1307 C1298 1.390 . S
C1307 H1300 0.950 . S
C1307 C1304 1.387 . S
C1308 C1309 1.387 . S
C1308 H1312 0.950 . S
C1308 C1317 1.390 . S
C1309 C1308 1.387 . S
C1309 C1311 1.387 . S
H1310 C1317 0.950 . S
C1311 C1309 1.387 . S
C1311 C1313 1.390 . S
C1311 H1315 0.950 . S
H1312 C1308 0.950 . S
C1313 C1311 1.390 . S
C1313 C1314 1.387 . S
C1313 H1316 0.950 . S
C1314 C1313 1.387 . S
C1314 C1317 1.387 . S
H1315 C1311 0.950 . S
H1316 C1313 0.950 . S
C1317 C1308 1.390 . S
C1317 H1310 0.950 . S
C1317 C1314 1.387 . S
C1318 C1319 1.387 . S
C1318 H1322 0.950 . S
C1318 C1327 1.390 . S
C1319 C1318 1.387 . S
C1319 C1321 1.387 . S
H1320 C1327 0.950 . S
C1321 C1319 1.387 . S
C1321 C1323 1.390 . S
C1321 H1325 0.950 . S
H1322 C1318 0.950 . S
C1323 C1321 1.390 . S
C1323 C1324 1.387 . S
C1323 H1326 0.950 . S
C1324 C1323 1.387 . S
C1324 C1327 1.387 . S
H1325 C1321 0.950 . S
H1326 C1323 0.950 . S
C1327 C1318 1.390 . S
C1327 H1320 0.950 . S
C1327 C1324 1.387 . S
C1328 C1329 1.387 1_545 S
C1328 H1332 0.950 1_545 S
C1328 C1337 1.390 . S
C1329 C1328 1.387 1_565 S
C1329 C1331 1.387 1_565 S
H1330 C1337 0.950 . S
C1331 C1329 1.387 1_545 S
C1331 C1333 1.390 . S
C1331 H1335 0.950 . S
H1332 C1328 0.950 1_565 S
C1333 C1331 1.390 . S
C1333 C1334 1.387 . S
C1333 H1336 0.950 . S
C1334 C1333 1.387 . S
C1334 C1337 1.387 . S
H1335 C1331 0.950 . S
H1336 C1333 0.950 . S
C1337 C1328 1.390 . S
C1337 H1330 0.950 . S
C1337 C1334 1.387 . S
C1338 C1339 1.387 . S
C1338 H1342 0.950 . S
C1338 C1347 1.390 . S
C1339 C1338 1.387 . S
C1339 C1341 1.387 . S
H1340 C1347 0.950 . S
C1341 C1339 1.387 . S
C1341 C1343 1.390 . S
C1341 H1345 0.950 . S
H1342 C1338 0.950 . S
C1343 C1341 1.390 . S
C1343 C1344 1.387 . S
C1343 H1346 0.950 . S
C1344 C1343 1.387 . S
C1344 C1347 1.387 . S
H1345 C1341 0.950 . S
H1346 C1343 0.950 . S
C1347 C1338 1.390 . S
C1347 H1340 0.950 . S
C1347 C1344 1.387 . S
C1348 C1349 1.387 . S
C1348 H1352 0.950 . S
C1348 C1357 1.390 . S
C1349 C1348 1.387 . S
C1349 C1351 1.387 . S
H1350 C1357 0.950 . S
C1351 C1349 1.387 . S
C1351 C1353 1.390 . S
C1351 H1355 0.950 . S
H1352 C1348 0.950 . S
C1353 C1351 1.390 . S
C1353 C1354 1.387 . S
C1353 H1356 0.950 . S
C1354 C1353 1.387 . S
C1354 C1357 1.387 . S
H1355 C1351 0.950 . S
H1356 C1353 0.950 . S
C1357 C1348 1.390 . S
C1357 H1350 0.950 . S
C1357 C1354 1.387 . S
C1358 C1359 1.387 . S
C1358 H1362 0.950 . S
C1358 C1367 1.390 . S
C1359 C1358 1.387 . S
C1359 C1361 1.387 . S
H1360 C1367 0.950 . S
C1361 C1359 1.387 . S
C1361 C1363 1.390 . S
C1361 H1365 0.950 . S
H1362 C1358 0.950 . S
C1363 C1361 1.390 . S
C1363 C1364 1.387 . S
C1363 H1366 0.950 . S
C1364 C1363 1.387 . S
C1364 C1367 1.387 . S
H1365 C1361 0.950 . S
H1366 C1363 0.950 . S
C1367 C1358 1.390 . S
C1367 H1360 0.950 . S
C1367 C1364 1.387 . S
C1368 C1369 1.387 . S
C1368 H1372 0.950 . S
C1368 C1377 1.390 . S
C1369 C1368 1.387 . S
C1369 C1371 1.387 . S
H1370 C1377 0.950 . S
C1371 C1369 1.387 . S
C1371 C1373 1.390 . S
C1371 H1375 0.950 . S
H1372 C1368 0.950 . S
C1373 C1371 1.390 . S
C1373 C1374 1.387 . S
C1373 H1376 0.950 . S
C1374 C1373 1.387 . S
C1374 C1377 1.387 . S
H1375 C1371 0.950 . S
H1376 C1373 0.950 . S
C1377 C1368 1.390 . S
C1377 H1370 0.950 . S
C1377 C1374 1.387 . S
C1378 C1379 1.387 1_655 S
C1378 H1382 0.950 . S
C1378 C1387 1.390 . S
C1379 C1378 1.387 1_455 S
C1379 C1381 1.387 . S
H1380 C1387 0.950 . S
C1381 C1379 1.387 . S
C1381 C1383 1.390 . S
C1381 H1385 0.950 . S
H1382 C1378 0.950 . S
C1383 C1381 1.390 . S
C1383 C1384 1.387 . S
C1383 H1386 0.950 . S
C1384 C1383 1.387 . S
C1384 C1387 1.387 1_455 S
H1385 C1381 0.950 . S
H1386 C1383 0.950 . S
C1387 C1378 1.390 . S
C1387 H1380 0.950 . S
C1387 C1384 1.387 1_655 S
C1388 C1389 1.387 . S
C1388 H1392 0.950 . S
C1388 C1397 1.390 . S
C1389 C1388 1.387 . S
C1389 C1391 1.387 . S
H1390 C1397 0.950 . S
C1391 C1389 1.387 . S
C1391 C1393 1.390 . S
C1391 H1395 0.950 . S
H1392 C1388 0.950 . S
C1393 C1391 1.390 . S
C1393 C1394 1.387 . S
C1393 H1396 0.950 . S
C1394 C1393 1.387 . S
C1394 C1397 1.387 . S
H1395 C1391 0.950 . S
H1396 C1393 0.950 . S
C1397 C1388 1.390 . S
C1397 H1390 0.950 . S
C1397 C1394 1.387 . S
C1398 C1399 1.387 1_455 S
C1398 H1402 0.950 . S
C1398 C1407 1.390 . S
C1399 C1398 1.387 1_655 S
C1399 C1401 1.387 . S
H1400 C1407 0.950 . S
C1401 C1399 1.387 . S
C1401 C1403 1.390 . S
C1401 H1405 0.950 . S
H1402 C1398 0.950 . S
C1403 C1401 1.390 . S
C1403 C1404 1.387 . S
C1403 H1406 0.950 . S
C1404 C1403 1.387 . S
C1404 C1407 1.387 1_655 S
H1405 C1401 0.950 . S
H1406 C1403 0.950 . S
C1407 C1398 1.390 . S
C1407 H1400 0.950 . S
C1407 C1404 1.387 1_455 S
C1408 C1409 1.387 . S
C1408 H1412 0.950 . S
C1408 C1417 1.390 . S
C1409 C1408 1.387 . S
C1409 C1411 1.387 . S
H1410 C1417 0.950 . S
C1411 C1409 1.387 . S
C1411 C1413 1.390 . S
C1411 H1415 0.950 . S
H1412 C1408 0.950 . S
C1413 C1411 1.390 . S
C1413 C1414 1.387 . S
C1413 H1416 0.950 . S
C1414 C1413 1.387 . S
C1414 C1417 1.387 . S
H1415 C1411 0.950 . S
H1416 C1413 0.950 . S
C1417 C1408 1.390 . S
C1417 H1410 0.950 . S
C1417 C1414 1.387 . S
C1418 C1419 1.387 . S
C1418 H1422 0.950 . S
C1418 C1427 1.390 . S
C1419 C1418 1.387 . S
C1419 C1421 1.387 . S
H1420 C1427 0.950 1_565 S
C1421 C1419 1.387 . S
C1421 C1423 1.390 . S
C1421 H1425 0.950 . S
H1422 C1418 0.950 . S
C1423 C1421 1.390 . S
C1423 C1424 1.387 . S
C1423 H1426 0.950 . S
C1424 C1423 1.387 . S
C1424 C1427 1.387 . S
H1425 C1421 0.950 . S
H1426 C1423 0.950 . S
C1427 C1418 1.390 . S
C1427 H1420 0.950 1_545 S
C1427 C1424 1.387 . S
C1428 C1429 1.387 . S
C1428 H1432 0.950 . S
C1428 C1437 1.390 . S
C1429 C1428 1.387 . S
C1429 C1431 1.387 . S
H1430 C1437 0.950 . S
C1431 C1429 1.387 . S
C1431 C1433 1.390 . S
C1431 H1435 0.950 . S
H1432 C1428 0.950 . S
C1433 C1431 1.390 . S
C1433 C1434 1.387 . S
C1433 H1436 0.950 . S
C1434 C1433 1.387 . S
C1434 C1437 1.387 . S
H1435 C1431 0.950 . S
H1436 C1433 0.950 . S
C1437 C1428 1.390 . S
C1437 H1430 0.950 . S
C1437 C1434 1.387 . S
C1438 C1439 1.387 . S
C1438 H1442 0.950 . S
C1438 C1447 1.390 . S
C1439 C1438 1.387 . S
C1439 C1441 1.387 . S
H1440 C1447 0.950 . S
C1441 C1439 1.387 . S
C1441 C1443 1.390 . S
C1441 H1445 0.950 . S
H1442 C1438 0.950 . S
C1443 C1441 1.390 . S
C1443 C1444 1.387 . S
C1443 H1446 0.950 . S
C1444 C1443 1.387 . S
C1444 C1447 1.387 . S
H1445 C1441 0.950 . S
H1446 C1443 0.950 . S
C1447 C1438 1.390 . S
C1447 H1440 0.950 . S
C1447 C1444 1.387 . S
C1448 C1449 1.387 . S
C1448 H1452 0.950 . S
C1448 C1457 1.390 . S
C1449 C1448 1.387 . S
C1449 C1451 1.387 . S
H1450 C1457 0.950 . S
C1451 C1449 1.387 . S
C1451 C1453 1.390 . S
C1451 H1455 0.950 . S
H1452 C1448 0.950 . S
C1453 C1451 1.390 . S
C1453 C1454 1.387 . S
C1453 H1456 0.950 . S
C1454 C1453 1.387 . S
C1454 C1457 1.387 . S
H1455 C1451 0.950 . S
H1456 C1453 0.950 . S
C1457 C1448 1.390 . S
C1457 H1450 0.950 . S
C1457 C1454 1.387 . S
C1458 C1459 1.387 . S
C1458 H1462 0.950 . S
C1458 C1467 1.390 . S
C1459 C1458 1.387 . S
C1459 C1461 1.387 . S
H1460 C1467 0.950 . S
C1461 C1459 1.387 . S
C1461 C1463 1.390 . S
C1461 H1465 0.950 . S
H1462 C1458 0.950 . S
C1463 C1461 1.390 . S
C1463 C1464 1.387 . S
C1463 H1466 0.950 . S
C1464 C1463 1.387 . S
C1464 C1467 1.387 . S
H1465 C1461 0.950 . S
H1466 C1463 0.950 . S
C1467 C1458 1.390 . S
C1467 H1460 0.950 . S
C1467 C1464 1.387 . S
C1468 C1469 1.387 . S
C1468 H1472 0.950 . S
C1468 C1477 1.390 . S
C1469 C1468 1.387 . S
C1469 C1471 1.387 . S
H1470 C1477 0.950 . S
C1471 C1469 1.387 . S
C1471 C1473 1.390 . S
C1471 H1475 0.950 . S
H1472 C1468 0.950 . S
C1473 C1471 1.390 . S
C1473 C1474 1.387 . S
C1473 H1476 0.950 . S
C1474 C1473 1.387 . S
C1474 C1477 1.387 . S
H1475 C1471 0.950 . S
H1476 C1473 0.950 . S
C1477 C1468 1.390 . S
C1477 H1470 0.950 . S
C1477 C1474 1.387 . S
C1478 C1479 1.387 . S
C1478 H1482 0.950 . S
C1478 C1487 1.390 . S
C1479 C1478 1.387 . S
C1479 C1481 1.387 . S
H1480 C1487 0.950 . S
C1481 C1479 1.387 . S
C1481 C1483 1.390 . S
C1481 H1485 0.950 . S
H1482 C1478 0.950 . S
C1483 C1481 1.390 . S
C1483 C1484 1.387 . S
C1483 H1486 0.950 . S
C1484 C1483 1.387 . S
C1484 C1487 1.387 . S
H1485 C1481 0.950 . S
H1486 C1483 0.950 . S
C1487 C1478 1.390 . S
C1487 H1480 0.950 . S
C1487 C1484 1.387 . S
C1488 C1489 1.387 . S
C1488 H1492 0.950 . S
C1488 C1497 1.390 . S
C1489 C1488 1.387 . S
C1489 C1491 1.387 . S
H1490 C1497 0.950 . S
C1491 C1489 1.387 . S
C1491 C1493 1.390 . S
C1491 H1495 0.950 . S
H1492 C1488 0.950 . S
C1493 C1491 1.390 . S
C1493 C1494 1.387 . S
C1493 H1496 0.950 . S
C1494 C1493 1.387 . S
C1494 C1497 1.387 . S
H1495 C1491 0.950 . S
H1496 C1493 0.950 . S
C1497 C1488 1.390 . S
C1497 H1490 0.950 . S
C1497 C1494 1.387 . S
C1498 C1499 1.387 . S
C1498 H1502 0.950 . S
C1498 C1507 1.390 . S
C1499 C1498 1.387 . S
C1499 C1501 1.387 . S
H1500 C1507 0.950 . S
C1501 C1499 1.387 . S
C1501 C1503 1.390 . S
C1501 H1505 0.950 . S
H1502 C1498 0.950 . S
C1503 C1501 1.390 . S
C1503 C1504 1.387 . S
C1503 H1506 0.950 . S
C1504 C1503 1.387 . S
C1504 C1507 1.387 . S
H1505 C1501 0.950 . S
H1506 C1503 0.950 . S
C1507 C1498 1.390 . S
C1507 H1500 0.950 . S
C1507 C1504 1.387 . S
C1508 C1509 1.387 . S
C1508 H1512 0.950 . S
C1508 C1517 1.390 . S
C1509 C1508 1.387 . S
C1509 C1511 1.387 . S
H1510 C1517 0.950 . S
C1511 C1509 1.387 . S
C1511 C1513 1.390 . S
C1511 H1515 0.950 . S
H1512 C1508 0.950 . S
C1513 C1511 1.390 . S
C1513 C1514 1.387 . S
C1513 H1516 0.950 . S
C1514 C1513 1.387 . S
C1514 C1517 1.387 . S
H1515 C1511 0.950 . S
H1516 C1513 0.950 . S
C1517 C1508 1.390 . S
C1517 H1510 0.950 . S
C1517 C1514 1.387 . S
C1518 C1519 1.387 . S
C1518 H1522 0.950 . S
C1518 C1527 1.390 . S
C1519 C1518 1.387 . S
C1519 C1521 1.387 . S
H1520 C1527 0.950 . S
C1521 C1519 1.387 . S
C1521 C1523 1.390 . S
C1521 H1525 0.950 . S
H1522 C1518 0.950 . S
C1523 C1521 1.390 . S
C1523 C1524 1.387 . S
C1523 H1526 0.950 . S
C1524 C1523 1.387 . S
C1524 C1527 1.387 . S
H1525 C1521 0.950 . S
H1526 C1523 0.950 . S
C1527 C1518 1.390 . S
C1527 H1520 0.950 . S
C1527 C1524 1.387 . S
C1528 C1529 1.387 . S
C1528 H1532 0.950 . S
C1528 C1537 1.390 . S
C1529 C1528 1.387 . S
C1529 C1531 1.387 . S
H1530 C1537 0.950 . S
C1531 C1529 1.387 . S
C1531 C1533 1.390 . S
C1531 H1535 0.950 . S
H1532 C1528 0.950 . S
C1533 C1531 1.390 . S
C1533 C1534 1.387 . S
C1533 H1536 0.950 . S
C1534 C1533 1.387 . S
C1534 C1537 1.387 . S
H1535 C1531 0.950 . S
H1536 C1533 0.950 . S
C1537 C1528 1.390 . S
C1537 H1530 0.950 . S
C1537 C1534 1.387 . S
C1538 C1539 1.387 . S
C1538 H1542 0.950 . S
C1538 C1547 1.390 . S
C1539 C1538 1.387 . S
C1539 C1541 1.387 . S
H1540 C1547 0.950 . S
C1541 C1539 1.387 . S
C1541 C1543 1.390 . S
C1541 H1545 0.950 . S
H1542 C1538 0.950 . S
C1543 C1541 1.390 . S
C1543 C1544 1.387 . S
C1543 H1546 0.950 . S
C1544 C1543 1.387 . S
C1544 C1547 1.387 . S
H1545 C1541 0.950 . S
H1546 C1543 0.950 . S
C1547 C1538 1.390 . S
C1547 H1540 0.950 . S
C1547 C1544 1.387 . S
C1009 C469 1.742 . S
C1014 C660 1.753 . S
C1019 C505 1.790 . S
C1024 C700 1.783 . S
C1029 C433 1.818 . S
C1034 C730 1.816 . S
C1039 C397 1.650 . S
C1044 C690 1.635 . S
C1054 C740 1.534 . S
C1049 C325 1.525 . S
C1059 C361 1.559 . S
C1064 C650 1.584 . S
C1074 C679 1.754 . S
C1069 C421 1.754 . S
C1084 C719 1.782 . S
C1079 C349 1.787 . S
C1089 C385 1.811 . S
C1094 C745 1.818 . S
C1099 C493 1.647 . S
C1104 C705 1.638 . S
C1109 C529 1.541 . S
C1114 C759 1.536 . S
C1124 C665 1.586 . S
C1119 C457 1.568 . S
C1134 C780 1.753 . S
C1129 C37 1.742 1_455 S
C1139 C73 1.789 . S
C1144 C820 1.783 . S
C1149 C1 1.820 . S
C1154 C850 1.817 . S
C1159 C613 1.648 . S
C1164 C810 1.634 . S
C1169 C541 1.525 . S
C1174 C860 1.534 . S
C1179 C577 1.556 . S
C1184 C770 1.581 . S
C1189 C637 1.756 . S
C1194 C799 1.755 . S
C1199 C565 1.787 . S
C1204 C839 1.782 . S
C1214 C865 1.818 . S
C1209 C601 1.812 . S
C1219 C61 1.629 1_565 S
C1224 C825 1.637 . S
C1234 C879 1.536 . S
C1229 C97 1.541 1_455 S
C1239 C25 1.565 . S
C1244 C785 1.584 . S
C1254 C900 1.753 . S
C1249 C253 1.742 . S
C1259 C289 1.790 . S
C1264 C940 1.782 . S
C1274 C970 1.817 . S
C1269 C217 1.820 . S
C1284 C930 1.636 . S
C1279 C181 1.646 1_545 S
C1294 C980 1.536 . S
C1289 C109 1.527 1_655 S
C1299 C145 1.557 . S
C1304 C890 1.582 . S
C1309 C205 1.756 1_655 S
C1314 C919 1.755 . S
C1319 C133 1.786 . S
C1324 C959 1.781 . S
C1334 C985 1.818 . S
C1329 C169 1.811 . S
C1339 C277 1.644 . S
C1344 C945 1.636 . S
C1349 C313 1.539 . S
C1354 C999 1.534 . S
C1359 C241 1.568 . S
C1364 C905 1.586 . S
C1369 C571 1.400 . S
C1374 C677 1.387 . S
C1384 C717 1.812 . S
C1379 C607 1.850 . S
C1389 C643 1.581 . S
C1394 C736 1.576 . S
C1399 C247 1.852 . S
C1404 C696 1.814 . S
C1409 C283 1.585 . S
C1414 C757 1.575 . S
C1424 C656 1.386 . S
C1419 C319 1.403 . S
C1429 C139 1.401 . S
C1434 C797 1.388 . S
C1439 C175 1.848 . S
C1444 C837 1.812 . S
C1449 C211 1.580 . S
C1454 C856 1.575 . S
C1459 C463 1.850 . S
C1464 C816 1.811 . S
C1474 C877 1.577 . S
C1469 C499 1.585 . S
C1479 C535 1.402 . S
C1484 C776 1.386 . S
C1489 C355 1.401 . S
C1494 C917 1.386 . S
C1499 C391 1.848 . S
C1504 C957 1.812 . S
C1514 C976 1.576 . S
C1509 C427 1.580 . S
C1519 C31 1.851 . S
C1524 C936 1.814 . S
C1529 C67 1.585 . S
C1534 C997 1.577 . S
C1539 C103 1.402 . S
C1544 C896 1.385 . S
