# Generated by pormake.
# Topology ptr, (4,4)-cn, num edge types: 1
# Building blocks:
#     Node 0, Type 0, BuildingBlock: QUQFOY_clean_sbu_1, # of connection points: 4
#     Node 1, Type 0, BuildingBlock: QUQFOY_clean_sbu_1, # of connection points: 4
#     Node 2, Type 0, BuildingBlock: QUQFOY_clean_sbu_1, # of connection points: 4
#     Node 3, Type 0, BuildingBlock: QUQFOY_clean_sbu_1, # of connection points: 4
#     Node 4, Type 0, BuildingBlock: QUQFOY_clean_sbu_1, # of connection points: 4
#     Node 5, Type 0, BuildingBlock: QUQFOY_clean_sbu_1, # of connection points: 4
#     Node 6, Type 0, BuildingBlock: QUQFOY_clean_sbu_1, # of connection points: 4
#     Node 7, Type 0, BuildingBlock: QUQFOY_clean_sbu_1, # of connection points: 4
#     Node 8, Type 0, BuildingBlock: QUQFOY_clean_sbu_1, # of connection points: 4
#     Node 9, Type 0, BuildingBlock: QUQFOY_clean_sbu_1, # of connection points: 4
#     Node 10, Type 0, BuildingBlock: QUQFOY_clean_sbu_1, # of connection points: 4
#     Node 11, Type 0, BuildingBlock: QUQFOY_clean_sbu_1, # of connection points: 4
#     Node 12, Type 0, BuildingBlock: QUQFOY_clean_sbu_1, # of connection points: 4
#     Node 13, Type 0, BuildingBlock: QUQFOY_clean_sbu_1, # of connection points: 4
#     Node 14, Type 0, BuildingBlock: QUQFOY_clean_sbu_1, # of connection points: 4
#     Node 15, Type 0, BuildingBlock: QUQFOY_clean_sbu_1, # of connection points: 4
#     Node 16, Type 0, BuildingBlock: QUQFOY_clean_sbu_1, # of connection points: 4
#     Node 17, Type 0, BuildingBlock: QUQFOY_clean_sbu_1, # of connection points: 4
#     Node 18, Type 1, BuildingBlock: MIFKUJ_clean_linker_1, # of connection points: 4
#     Node 19, Type 1, BuildingBlock: MIFKUJ_clean_linker_1, # of connection points: 4
#     Node 20, Type 1, BuildingBlock: MIFKUJ_clean_linker_1, # of connection points: 4
#     Node 21, Type 1, BuildingBlock: MIFKUJ_clean_linker_1, # of connection points: 4
#     Node 22, Type 1, BuildingBlock: MIFKUJ_clean_linker_1, # of connection points: 4
#     Node 23, Type 1, BuildingBlock: MIFKUJ_clean_linker_1, # of connection points: 4
#     Node 24, Type 1, BuildingBlock: MIFKUJ_clean_linker_1, # of connection points: 4
#     Node 25, Type 1, BuildingBlock: MIFKUJ_clean_linker_1, # of connection points: 4
#     Node 26, Type 1, BuildingBlock: MIFKUJ_clean_linker_1, # of connection points: 4
#     Node 27, Type 1, BuildingBlock: MIFKUJ_clean_linker_1, # of connection points: 4
#     Node 28, Type 1, BuildingBlock: MIFKUJ_clean_linker_1, # of connection points: 4
#     Node 29, Type 1, BuildingBlock: MIFKUJ_clean_linker_1, # of connection points: 4
#     Node 30, Type 1, BuildingBlock: MIFKUJ_clean_linker_1, # of connection points: 4
#     Node 31, Type 1, BuildingBlock: MIFKUJ_clean_linker_1, # of connection points: 4
#     Node 32, Type 1, BuildingBlock: MIFKUJ_clean_linker_1, # of connection points: 4
#     Node 33, Type 1, BuildingBlock: MIFKUJ_clean_linker_1, # of connection points: 4
#     Node 34, Type 1, BuildingBlock: MIFKUJ_clean_linker_1, # of connection points: 4
#     Node 35, Type 1, BuildingBlock: MIFKUJ_clean_linker_1, # of connection points: 4
#     Edge 36, Type (0, 1), BuildingBlock: XUDNAN_clean_linker_2, # of connection points: 2
#     Edge 37, Type (0, 1), BuildingBlock: XUDNAN_clean_linker_2, # of connection points: 2
#     Edge 38, Type (0, 1), BuildingBlock: XUDNAN_clean_linker_2, # of connection points: 2
#     Edge 39, Type (0, 1), BuildingBlock: XUDNAN_clean_linker_2, # of connection points: 2
#     Edge 40, Type (0, 1), BuildingBlock: XUDNAN_clean_linker_2, # of connection points: 2
#     Edge 41, Type (0, 1), BuildingBlock: XUDNAN_clean_linker_2, # of connection points: 2
#     Edge 42, Type (0, 1), BuildingBlock: XUDNAN_clean_linker_2, # of connection points: 2
#     Edge 43, Type (0, 1), BuildingBlock: XUDNAN_clean_linker_2, # of connection points: 2
#     Edge 44, Type (0, 1), BuildingBlock: XUDNAN_clean_linker_2, # of connection points: 2
#     Edge 45, Type (0, 1), BuildingBlock: XUDNAN_clean_linker_2, # of connection points: 2
#     Edge 46, Type (0, 1), BuildingBlock: XUDNAN_clean_linker_2, # of connection points: 2
#     Edge 47, Type (0, 1), BuildingBlock: XUDNAN_clean_linker_2, # of connection points: 2
#     Edge 48, Type (0, 1), BuildingBlock: XUDNAN_clean_linker_2, # of connection points: 2
#     Edge 49, Type (0, 1), BuildingBlock: XUDNAN_clean_linker_2, # of connection points: 2
#     Edge 50, Type (0, 1), BuildingBlock: XUDNAN_clean_linker_2, # of connection points: 2
#     Edge 51, Type (0, 1), BuildingBlock: XUDNAN_clean_linker_2, # of connection points: 2
#     Edge 52, Type (0, 1), BuildingBlock: XUDNAN_clean_linker_2, # of connection points: 2
#     Edge 53, Type (0, 1), BuildingBlock: XUDNAN_clean_linker_2, # of connection points: 2
#     Edge 54, Type (0, 1), BuildingBlock: XUDNAN_clean_linker_2, # of connection points: 2
#     Edge 55, Type (0, 1), BuildingBlock: XUDNAN_clean_linker_2, # of connection points: 2
#     Edge 56, Type (0, 1), BuildingBlock: XUDNAN_clean_linker_2, # of connection points: 2
#     Edge 57, Type (0, 1), BuildingBlock: XUDNAN_clean_linker_2, # of connection points: 2
#     Edge 58, Type (0, 1), BuildingBlock: XUDNAN_clean_linker_2, # of connection points: 2
#     Edge 59, Type (0, 1), BuildingBlock: XUDNAN_clean_linker_2, # of connection points: 2
#     Edge 60, Type (0, 1), BuildingBlock: XUDNAN_clean_linker_2, # of connection points: 2
#     Edge 61, Type (0, 1), BuildingBlock: XUDNAN_clean_linker_2, # of connection points: 2
#     Edge 62, Type (0, 1), BuildingBlock: XUDNAN_clean_linker_2, # of connection points: 2
#     Edge 63, Type (0, 1), BuildingBlock: XUDNAN_clean_linker_2, # of connection points: 2
#     Edge 64, Type (0, 1), BuildingBlock: XUDNAN_clean_linker_2, # of connection points: 2
#     Edge 65, Type (0, 1), BuildingBlock: XUDNAN_clean_linker_2, # of connection points: 2
#     Edge 66, Type (0, 1), BuildingBlock: XUDNAN_clean_linker_2, # of connection points: 2
#     Edge 67, Type (0, 1), BuildingBlock: XUDNAN_clean_linker_2, # of connection points: 2
#     Edge 68, Type (0, 1), BuildingBlock: XUDNAN_clean_linker_2, # of connection points: 2
#     Edge 69, Type (0, 1), BuildingBlock: XUDNAN_clean_linker_2, # of connection points: 2
#     Edge 70, Type (0, 1), BuildingBlock: XUDNAN_clean_linker_2, # of connection points: 2
#     Edge 71, Type (0, 1), BuildingBlock: XUDNAN_clean_linker_2, # of connection points: 2
#     Edge 72, Type (0, 1), BuildingBlock: XUDNAN_clean_linker_2, # of connection points: 2
#     Edge 73, Type (0, 1), BuildingBlock: XUDNAN_clean_linker_2, # of connection points: 2
#     Edge 74, Type (0, 1), BuildingBlock: XUDNAN_clean_linker_2, # of connection points: 2
#     Edge 75, Type (0, 1), BuildingBlock: XUDNAN_clean_linker_2, # of connection points: 2
#     Edge 76, Type (0, 1), BuildingBlock: XUDNAN_clean_linker_2, # of connection points: 2
#     Edge 77, Type (0, 1), BuildingBlock: XUDNAN_clean_linker_2, # of connection points: 2
#     Edge 78, Type (0, 1), BuildingBlock: XUDNAN_clean_linker_2, # of connection points: 2
#     Edge 79, Type (0, 1), BuildingBlock: XUDNAN_clean_linker_2, # of connection points: 2
#     Edge 80, Type (0, 1), BuildingBlock: XUDNAN_clean_linker_2, # of connection points: 2
#     Edge 81, Type (0, 1), BuildingBlock: XUDNAN_clean_linker_2, # of connection points: 2
#     Edge 82, Type (0, 1), BuildingBlock: XUDNAN_clean_linker_2, # of connection points: 2
#     Edge 83, Type (0, 1), BuildingBlock: XUDNAN_clean_linker_2, # of connection points: 2
#     Edge 84, Type (0, 1), BuildingBlock: XUDNAN_clean_linker_2, # of connection points: 2
#     Edge 85, Type (0, 1), BuildingBlock: XUDNAN_clean_linker_2, # of connection points: 2
#     Edge 86, Type (0, 1), BuildingBlock: XUDNAN_clean_linker_2, # of connection points: 2
#     Edge 87, Type (0, 1), BuildingBlock: XUDNAN_clean_linker_2, # of connection points: 2
#     Edge 88, Type (0, 1), BuildingBlock: XUDNAN_clean_linker_2, # of connection points: 2
#     Edge 89, Type (0, 1), BuildingBlock: XUDNAN_clean_linker_2, # of connection points: 2
#     Edge 90, Type (0, 1), BuildingBlock: XUDNAN_clean_linker_2, # of connection points: 2
#     Edge 91, Type (0, 1), BuildingBlock: XUDNAN_clean_linker_2, # of connection points: 2
#     Edge 92, Type (0, 1), BuildingBlock: XUDNAN_clean_linker_2, # of connection points: 2
#     Edge 93, Type (0, 1), BuildingBlock: XUDNAN_clean_linker_2, # of connection points: 2
#     Edge 94, Type (0, 1), BuildingBlock: XUDNAN_clean_linker_2, # of connection points: 2
#     Edge 95, Type (0, 1), BuildingBlock: XUDNAN_clean_linker_2, # of connection points: 2
#     Edge 96, Type (0, 1), BuildingBlock: XUDNAN_clean_linker_2, # of connection points: 2
#     Edge 97, Type (0, 1), BuildingBlock: XUDNAN_clean_linker_2, # of connection points: 2
#     Edge 98, Type (0, 1), BuildingBlock: XUDNAN_clean_linker_2, # of connection points: 2
#     Edge 99, Type (0, 1), BuildingBlock: XUDNAN_clean_linker_2, # of connection points: 2
#     Edge 100, Type (0, 1), BuildingBlock: XUDNAN_clean_linker_2, # of connection points: 2
#     Edge 101, Type (0, 1), BuildingBlock: XUDNAN_clean_linker_2, # of connection points: 2
#     Edge 102, Type (0, 1), BuildingBlock: XUDNAN_clean_linker_2, # of connection points: 2
#     Edge 103, Type (0, 1), BuildingBlock: XUDNAN_clean_linker_2, # of connection points: 2
#     Edge 104, Type (0, 1), BuildingBlock: XUDNAN_clean_linker_2, # of connection points: 2
#     Edge 105, Type (0, 1), BuildingBlock: XUDNAN_clean_linker_2, # of connection points: 2
#     Edge 106, Type (0, 1), BuildingBlock: XUDNAN_clean_linker_2, # of connection points: 2
#     Edge 107, Type (0, 1), BuildingBlock: XUDNAN_clean_linker_2, # of connection points: 2
# Relax obj value: 0.012
# Max RMSD: 0.044
# Mean RMSD: 0.040
data_MOF--net-ptr--node1-QUQFOY_clean_sbu_1--node2-MIFKUJ_clean_linker_1--edge1-XUDNAN_clean_linker_2
_symmetry_space_group_name_H-M    P1
_symmetry_Int_Tables_number       1
_symmetry_cell_setting            triclinic
loop_
_symmetry_equiv_pos_as_xyz
'x, y, z'
_cell_length_a     91.680964
_cell_length_b     91.662069
_cell_length_c     62.819055
_cell_angle_alpha  90.122007
_cell_angle_beta   89.899508
_cell_angle_gamma 119.94724
loop_
_atom_site_label
_atom_site_type_symbol
_atom_site_fract_x
_atom_site_fract_y
_atom_site_fract_z
_atom_type_partial_charge
O0 O 0.01998 0.38381 0.04566 0.0
Cd1 Cd 0.02279 0.37251 0.01874 0.0
Cd2 Cd 0.98916 0.35442 0.02422 0.0
O3 O 0.99341 0.36623 0.05367 0.0
O4 O 0.04754 0.38125 0.01807 0.0
O5 O 0.02903 0.35448 0.02376 0.0
C6 C 0.04457 0.36633 0.02276 0.0
C7 C 0.97419 0.32541 0.0183 0.0
C8 C 0.00752 0.37908 0.05819 0.0
C9 C 1.00212 0.37674 0.98547 0.0
O10 O 0.98991 0.36826 0.99807 0.0
O11 O 0.01668 0.37898 0.98967 0.0
O12 O 0.96656 0.33363 0.02293 0.0
O13 O 0.99047 0.33352 0.01856 0.0
O14 O 0.62984 0.63484 0.05589 0.0
Cd15 Cd 0.63488 0.64945 0.02893 0.0
Cd16 Cd 0.6472 0.62867 0.01634 0.0
O17 O 0.63871 0.61745 0.04589 0.0
O18 O 0.63056 0.66771 0.03882 0.0
O19 O 0.65566 0.67254 0.02871 0.0
C20 C 0.64637 0.67824 0.03634 0.0
C21 C 0.67533 0.64056 1.0059 0.0
C22 C 0.63202 0.62245 0.05971 0.0
C23 C 0.61964 0.6278 0.98959 0.0
O24 O 0.62962 0.62214 0.99248 0.0
O25 O 0.61983 0.63883 1.00216 0.0
O26 O 0.66529 0.62447 1.00549 0.0
O27 O 0.66947 0.6499 0.01292 0.0
O28 O 0.38011 0.00851 0.99163 0.0
Cd29 Cd 0.3724 0.01808 0.01621 0.0
Cd30 Cd 0.35692 0.98553 0.02956 0.0
O31 O 0.3652 0.98166 1.00038 0.0
O32 O 0.37577 0.0403 1.00628 0.0
O33 O 0.35065 0.01813 0.01216 0.0
C34 C 0.35961 0.03356 1.00592 0.0
C35 C 0.32862 0.96967 0.03973 0.0
C36 C 0.37527 0.99313 0.98772 0.0
C37 C 0.38456 0.01126 0.05742 0.0
O38 O 0.37442 0.99574 0.05388 0.0
O39 O 0.3851 0.0224 0.04485 0.0
O40 O 0.3385 0.96344 0.04045 0.0
O41 O 0.33473 0.98485 0.03264 0.0
O42 O 0.99688 0.62254 0.99117 0.0
Cd43 Cd 0.98542 0.62875 0.01511 0.0
Cd44 Cd 0.01972 0.64741 0.02812 0.0
O45 O 0.02373 0.63895 0.99922 0.0
O46 O 0.96146 0.6168 1.00555 0.0
O47 O 0.97621 0.64441 0.00857 0.0
C48 C 0.9622 0.63112 1.00362 0.0
C49 C 0.03547 0.67589 0.03772 0.0
C50 C 0.01237 0.62815 0.98704 0.0
C51 C 0.99523 0.61982 0.05722 0.0
O52 O 0.01052 0.63039 0.05302 0.0
O53 O 0.98354 0.61811 0.04477 0.0
O54 O 0.04186 0.66616 0.03833 0.0
O55 O 0.02016 0.66954 0.03101 0.0
O56 O 0.38397 0.37912 0.98977 0.0
Cd57 Cd 0.37799 0.36348 0.01594 0.0
Cd58 Cd 0.35343 0.37229 0.01918 0.0
O59 O 0.36137 0.3818 0.98886 0.0
O60 O 0.3907 0.3514 0.01071 0.0
O61 O 0.36292 0.33839 0.01116 0.0
C62 C 0.37652 0.33771 0.00819 0.0
C63 C 0.32481 0.35794 0.0283 0.0
C64 C 0.37519 0.38448 0.98063 0.0
C65 C 0.3807 0.38471 0.05317 0.0
O66 O 0.36891 0.38584 0.04413 0.0
O67 O 0.38564 0.37503 0.04555 0.0
O68 O 0.33288 0.37393 0.02495 0.0
O69 O 0.3328 0.34981 0.0254 0.0
O70 O 0.62886 0.99743 0.05253 0.0
Cd71 Cd 0.63623 0.98808 0.02733 0.0
Cd72 Cd 0.65342 0.02162 0.01647 0.0
O73 O 0.64547 0.02455 0.04629 0.0
O74 O 0.62738 0.9639 0.03445 0.0
O75 O 0.6546 0.98229 0.03234 0.0
C76 C 0.64269 0.96708 0.03591 0.0
C77 C 0.68177 0.03678 1.00652 0.0
C78 C 0.63458 0.01272 0.05787 0.0
C79 C 0.62602 0.99838 0.98681 0.0
O80 O 0.6361 0.0136 0.9919 0.0
O81 O 0.62511 0.98646 0.99812 0.0
O82 O 0.67257 0.04378 0.00725 0.0
O83 O 0.67495 0.02117 0.01215 0.0
O84 O 0.68116 0.71778 0.38334 0.0
Cd85 Cd 0.69281 0.7122 0.35926 0.0
Cd86 Cd 0.6584 0.68836 0.34971 0.0
O87 O 0.65471 0.69813 0.37793 0.0
O88 O 0.71695 0.7243 0.36786 0.0
O89 O 0.70195 0.69659 0.36557 0.0
C90 C 0.71605 0.70991 0.37018 0.0
C91 C 0.64172 0.65953 0.342 0.0
C92 C 0.66574 0.71053 0.38868 0.0
C93 C 0.67964 0.71565 0.31712 0.0
O94 O 0.6656 0.70316 0.32264 0.0
O95 O 0.69239 0.72125 0.32927 0.0
O96 O 0.63569 0.66956 0.34135 0.0
O97 O 0.65716 0.66571 0.34806 0.0
O98 O 0.29875 0.96742 0.38804 0.0
Cd99 Cd 0.30233 0.98218 0.36142 0.0
Cd100 Cd 0.31623 0.9606 0.34994 0.0
O101 O 0.30812 0.9501 0.3797 0.0
O102 O 0.28999 0.99364 0.37166 0.0
O103 O 0.31722 0.00758 0.36525 0.0
C104 C 0.30397 0.00766 0.37205 0.0
C105 C 0.34436 0.9725 0.3398 0.0
C106 C 0.30136 0.95547 0.3929 0.0
C107 C 0.28947 0.9598 0.32151 0.0
O108 O 0.29866 0.95349 0.32609 0.0
O109 O 0.28978 0.97145 0.33295 0.0
O110 O 0.33435 0.95641 0.33935 0.0
O111 O 0.33844 0.98187 0.34656 0.0
O112 O 0.05082 0.3437 0.32548 0.0
Cd113 Cd 0.04347 0.35326 0.3505 0.0
Cd114 Cd 0.02764 0.32062 0.36296 0.0
O115 O 0.03543 0.31676 0.33351 0.0
O116 O 0.04673 0.37532 0.34021 0.0
O117 O 0.02177 0.3536 0.34799 0.0
C118 C 0.03061 0.36885 0.34107 0.0
C119 C 0.99939 0.30509 0.37335 0.0
C120 C 0.04563 0.32833 0.32107 0.0
C121 C 0.05544 0.34585 0.39125 0.0
O122 O 0.04534 0.33042 0.38709 0.0
O123 O 0.0561 0.3573 0.37917 0.0
O124 O 0.00903 0.29857 0.37363 0.0
O125 O 0.00572 0.32038 0.36663 0.0
O126 O 0.66394 0.958 0.32608 0.0
Cd127 Cd 0.65446 0.96544 0.35101 0.0
Cd128 Cd 0.68786 0.98832 0.35732 0.0
O129 O 0.69028 0.97867 0.32834 0.0
O130 O 0.63144 0.96072 0.34277 0.0
O131 O 0.65308 0.98645 0.34738 0.0
C132 C 0.63749 0.97682 0.34213 0.0
C133 C 0.70428 0.01714 0.36517 0.0
C134 C 0.67892 0.96559 0.31894 0.0
C135 C 0.6686 0.96161 0.39147 0.0
O136 O 0.68236 0.97349 0.38416 0.0
O137 O 0.65499 0.95633 0.38104 0.0
O138 O 0.71076 0.00751 0.36424 0.0
O139 O 0.68853 0.0106 0.36046 0.0
O140 O 0.0519 0.69981 0.33213 0.0
Cd141 Cd 0.04263 0.68538 0.35906 0.0
Cd142 Cd 0.0329 0.70984 0.36526 0.0
O143 O 0.04251 0.71768 0.33469 0.0
O144 O 0.04622 0.66629 0.35122 0.0
O145 O 0.02099 0.66292 0.35732 0.0
C146 C 0.03014 0.65655 0.35148 0.0
C147 C 0.00747 0.70804 0.37584 0.0
C148 C 0.05052 0.71187 0.3245 0.0
C149 C 0.0578 0.70852 0.39637 0.0
O150 O 0.05007 0.71595 0.38981 0.0
O151 O 0.056 0.69543 0.38691 0.0
O152 O 0.02101 0.7223 0.373 0.0
O153 O 0.00809 0.69454 0.37171 0.0
O154 O 0.29396 0.32268 0.37996 0.0
Cd155 Cd 0.30418 0.31861 0.35284 0.0
Cd156 Cd 0.31345 0.35195 0.34619 0.0
O157 O 0.30331 0.34991 0.37641 0.0
O158 O 0.30417 0.2972 0.35866 0.0
O159 O 0.3275 0.32191 0.3561 0.0
C160 C 0.32034 0.30597 0.36006 0.0
C161 C 0.33932 0.37532 0.33651 0.0
C162 C 0.29541 0.33635 0.38704 0.0
C163 C 0.28969 0.32627 0.3144 0.0
O164 O 0.29682 0.34133 0.32123 0.0
O165 O 0.29166 0.3152 0.32409 0.0
O166 O 0.32596 0.37641 0.33915 0.0
O167 O 0.33825 0.36096 0.34031 0.0
O168 O 0.35568 0.05348 0.71226 0.0
Cd169 Cd 0.35756 0.04032 0.68685 0.0
Cd170 Cd 0.32413 0.03084 0.68387 0.0
O171 O 0.32815 0.04266 0.71337 0.0
O172 O 0.38094 0.04412 0.68948 0.0
O173 O 0.3583 0.01908 0.69363 0.0
C174 C 0.37448 0.02839 0.69386 0.0
C175 C 0.30266 1.00315 0.67804 0.0
C176 C 0.34267 0.05226 0.72121 0.0
C177 C 0.34645 0.05201 0.64842 0.0
O178 O 0.33214 0.0462 0.65731 0.0
O179 O 0.35777 0.04973 0.65684 0.0
O180 O 0.29942 0.0152 0.6808 0.0
O181 O 0.31815 0.00667 0.67931 0.0
O182 O 0.95987 0.29873 0.71789 0.0
Cd183 Cd 0.96865 0.31428 0.69163 0.0
Cd184 Cd 0.99153 0.3024 0.69107 0.0
O185 O 0.98212 0.29563 0.72182 0.0
O186 O 0.95993 0.33031 0.69376 0.0
O187 O 0.98695 0.33825 0.69704 0.0
C188 C 0.97517 0.34209 0.69737 0.0
C189 C 0.01917 0.3083 0.68375 0.0
C190 C 0.96813 0.29357 0.72867 0.0
C191 C 0.96535 0.29202 0.65554 0.0
O192 O 0.97585 0.28957 0.66584 0.0
O193 O 0.96154 0.30285 0.66203 0.0
O194 O 0.00743 0.29354 0.68922 0.0
O195 O 0.01556 0.32022 0.68351 0.0
O196 O 0.71593 0.67768 0.65472 0.0
Cd197 Cd 0.70793 0.6873 0.679 0.0
Cd198 Cd 0.69137 0.65435 0.69107 0.0
O199 O 0.70018 0.65068 0.66227 0.0
O200 O 0.71142 0.70936 0.66831 0.0
O201 O 0.6863 0.68771 0.67558 0.0
C202 C 0.69529 0.70296 0.66872 0.0
C203 C 0.66307 0.63773 0.70079 0.0
C204 C 0.71088 0.66233 0.65033 0.0
C205 C 0.71847 0.67954 0.72049 0.0
O206 O 0.70828 0.66421 0.71599 0.0
O207 O 0.71979 0.69119 0.70825 0.0
O208 O 0.67333 0.63198 0.70166 0.0
O209 O 0.66877 0.65285 0.6937 0.0
O210 O 0.32992 0.29113 0.66317 0.0
Cd211 Cd 0.3247 0.30113 0.6894 0.0
Cd212 Cd 0.3596 0.31926 0.68822 0.0
O213 O 0.3573 0.30743 0.659 0.0
O214 O 0.29973 0.29007 0.68709 0.0
O215 O 0.31625 0.31749 0.68364 0.0
C216 C 0.30131 0.30451 0.68274 0.0
C217 C 0.37386 0.34827 0.69381 0.0
C218 C 0.34326 0.29537 0.65259 0.0
C219 C 0.34303 0.29672 0.72616 0.0
O220 O 0.3565 0.30578 0.71577 0.0
O221 O 0.32886 0.2939 0.71906 0.0
O222 O 0.38193 0.34022 0.691 0.0
O223 O 0.35765 0.33996 0.69185 0.0
O224 O 0.71817 0.04232 0.6593 0.0
Cd225 Cd 0.71115 0.02505 0.68377 0.0
Cd226 Cd 0.69536 0.04356 0.69813 0.0
O227 O 0.70342 0.05444 0.66838 0.0
O228 O 0.71459 0.00656 0.67244 0.0
O229 O 0.68955 1.00289 0.68088 0.0
C230 C 0.6985 0.99674 0.67334 0.0
C231 C 0.67066 0.04166 0.71235 0.0
C232 C 0.71326 0.05281 0.65552 0.0
C233 C 0.72362 0.0439 0.72477 0.0
O234 O 0.71348 0.04927 0.72121 0.0
O235 O 0.72425 0.03331 0.71221 0.0
O236 O 0.68436 0.05583 0.71016 0.0
O237 O 0.6706 0.02832 0.70558 0.0
O238 O 0.96163 0.66324 0.71886 0.0
Cd239 Cd 0.97028 0.65448 0.6943 0.0
Cd240 Cd 0.98526 0.68901 0.6827 0.0
O241 O 0.97675 0.69056 0.71271 0.0
O242 O 0.96631 0.6322 0.70467 0.0
O243 O 0.99171 0.65368 0.69825 0.0
C244 C 0.98239 0.63838 0.70479 0.0
C245 C 0.01002 0.71221 0.66953 0.0
C246 C 0.96632 0.67835 0.72418 0.0
C247 C 0.95853 0.66202 0.65375 0.0
O248 O 0.9675 0.67739 0.65906 0.0
O249 O 0.95858 0.6505 0.66494 0.0
O250 O 0.99636 0.7127 0.67231 0.0
O251 O 0.01001 0.69868 0.67522 0.0
H252 H 0.15432 0.34576 0.19518 0.0
H253 H 0.13209 0.34314 0.21892 0.0
H254 H 0.09493 0.30361 0.17904 0.0
H255 H 0.11737 0.30587 0.15573 0.0
H256 H 0.16304 0.32322 0.18919 0.0
H257 H 0.14857 0.3549 0.14214 0.0
H258 H 0.13192 0.36284 0.11951 0.0
H259 H 0.11348 0.31649 0.08424 0.0
H260 H 0.13044 0.30867 0.10675 0.0
H261 H 0.1761 0.30435 0.1066 0.0
H262 H 0.19939 0.30566 0.08588 0.0
H263 H 0.23467 0.34895 0.12248 0.0
H264 H 0.21134 0.34776 0.14283 0.0
H265 H 0.16594 0.32775 0.11051 0.0
H266 H 0.1881 0.30131 0.15689 0.0
H267 H 0.20828 0.2984 0.17926 0.0
H268 H 0.21391 0.33977 0.21839 0.0
H269 H 0.1946 0.34323 0.19528 0.0
C270 C 0.13757 0.32603 0.17362 0.0
C271 C 0.14137 0.33664 0.1914 0.0
C272 C 0.1286 0.33521 0.20491 0.0
C273 C 0.11168 0.32311 0.20097 0.0
C274 C 0.10783 0.31292 0.1827 0.0
C275 C 0.12065 0.31434 0.16919 0.0
C276 C 0.15139 0.32614 0.16103 0.0
C277 C 0.16384 0.32449 0.17199 0.0
C278 C 0.15215 0.32732 0.13856 0.0
C279 C 0.1407 0.33117 0.12618 0.0
C280 C 0.14077 0.34632 0.12974 0.0
C281 C 0.13134 0.35089 0.11675 0.0
C282 C 0.12147 0.34028 0.10012 0.0
C283 C 0.12091 0.32483 0.09703 0.0
C284 C 0.13062 0.32039 0.10981 0.0
C285 C 0.19197 0.32585 0.1264 0.0
C286 C 0.18886 0.31413 0.11014 0.0
C287 C 0.20219 0.31482 0.09841 0.0
C288 C 0.2189 0.32739 0.10255 0.0
C289 C 0.22195 0.3392 0.11875 0.0
C290 C 0.20863 0.33844 0.13054 0.0
C291 C 0.17778 0.32514 0.13875 0.0
C292 C 0.16515 0.32647 0.12771 0.0
C293 C 0.17712 0.32415 0.16127 0.0
C294 C 0.1899 0.32261 0.17421 0.0
C295 C 0.19396 0.30999 0.17001 0.0
C296 C 0.20536 0.30819 0.18303 0.0
C297 C 0.21279 0.31883 0.20072 0.0
C298 C 0.20875 0.33152 0.20475 0.0
C299 C 0.19751 0.3334 0.19164 0.0
H300 H 0.71029 0.8786 0.18743 0.0
H301 H 0.71312 0.90142 0.21035 0.0
H302 H 0.66224 0.88883 0.1948 0.0
H303 H 0.6593 0.86561 0.17252 0.0
H304 H 0.68869 0.84538 0.19266 0.0
H305 H 0.69877 0.88607 0.13331 0.0
H306 H 0.6924 0.90413 0.111 0.0
H307 H 0.64054 0.86414 0.10688 0.0
H308 H 0.64723 0.84611 0.1282 0.0
H309 H 0.65237 0.80491 0.11814 0.0
H310 H 0.65052 0.78171 0.09682 0.0
H311 H 0.69939 0.79279 0.1199 0.0
H312 H 0.70146 0.81638 0.14042 0.0
H313 H 0.67196 0.83704 0.11662 0.0
H314 H 0.65761 0.79686 0.17053 0.0
H315 H 0.65763 0.77479 0.19197 0.0
H316 H 0.70919 0.809 0.21028 0.0
H317 H 0.70883 0.83126 0.18917 0.0
C318 C 0.68466 0.87048 0.17802 0.0
C319 C 0.69978 0.88083 0.18884 0.0
C320 C 0.70142 0.89397 0.20184 0.0
C321 C 0.68793 0.89703 0.20441 0.0
C322 C 0.67284 0.88676 0.19334 0.0
C323 C 0.67122 0.8736 0.18035 0.0
C324 C 0.68268 0.85579 0.16554 0.0
C325 C 0.68538 0.84375 0.17591 0.0
C326 C 0.67739 0.85309 0.14404 0.0
C327 C 0.67349 0.86473 0.13225 0.0
C328 C 0.68603 0.8813 0.12763 0.0
C329 C 0.68234 0.89162 0.11495 0.0
C330 C 0.66599 0.88555 0.1068 0.0
C331 C 0.65337 0.86913 0.11227 0.0
C332 C 0.65712 0.85881 0.12464 0.0
C333 C 0.677 0.81237 0.13106 0.0
C334 C 0.66272 0.80239 0.11854 0.0
C335 C 0.66161 0.78901 0.10649 0.0
C336 C 0.6748 0.78533 0.10661 0.0
C337 C 0.68908 0.79535 0.11918 0.0
C338 C 0.69019 0.80875 0.13117 0.0
C339 C 0.67834 0.82683 0.14359 0.0
C340 C 0.6755 0.83878 0.1333 0.0
C341 C 0.68283 0.8291 0.1654 0.0
C342 C 0.68327 0.81566 0.17805 0.0
C343 C 0.66897 0.79957 0.17901 0.0
C344 C 0.66905 0.78691 0.19124 0.0
C345 C 0.68348 0.79 0.20277 0.0
C346 C 0.69781 0.80618 0.20181 0.0
C347 C 0.69766 0.81891 0.18966 0.0
H348 H 0.1327 0.82704 0.19862 0.0
H349 H 0.11443 0.80435 0.22242 0.0
H350 H 0.12049 0.76906 0.18271 0.0
H351 H 0.14046 0.79211 0.16083 0.0
H352 H 0.163 0.84027 0.19322 0.0
H353 H 0.11816 0.81352 0.1431 0.0
H354 H 0.09622 0.78989 0.12307 0.0
H355 H 0.1342 0.78276 0.09171 0.0
H356 H 0.15604 0.80603 0.11236 0.0
H357 H 0.19975 0.84923 0.1158 0.0
H358 H 0.22335 0.87124 0.09584 0.0
H359 H 0.21329 0.90857 0.12344 0.0
H360 H 0.18924 0.88638 0.14259 0.0
H361 H 0.16676 0.83826 0.11468 0.0
H362 H 0.21113 0.86561 0.16878 0.0
H363 H 0.23111 0.88838 0.19198 0.0
H364 H 0.19065 0.89528 0.21561 0.0
H365 H 0.17097 0.87295 0.19205 0.0
C366 C 0.13804 0.81145 0.17771 0.0
C367 C 0.13017 0.81442 0.1951 0.0
C368 C 0.11943 0.80127 0.20861 0.0
C369 C 0.11592 0.78467 0.20483 0.0
C370 C 0.12315 0.78164 0.18673 0.0
C371 C 0.13436 0.79487 0.17371 0.0
C372 C 0.1511 0.82582 0.16496 0.0
C373 C 0.16352 0.83992 0.17599 0.0
C374 C 0.15211 0.82536 0.14242 0.0
C375 C 0.13878 0.81148 0.12945 0.0
C376 C 0.12177 0.80683 0.13197 0.0
C377 C 0.10923 0.79339 0.12034 0.0
C378 C 0.1134 0.78435 0.10577 0.0
C379 C 0.13048 0.78925 0.10299 0.0
C380 C 0.14302 0.80269 0.11465 0.0
C381 C 0.19279 0.86612 0.13091 0.0
C382 C 0.20256 0.86215 0.11745 0.0
C383 C 0.21618 0.87479 0.1062 0.0
C384 C 0.22034 0.89174 0.10809 0.0
C385 C 0.2104 0.89566 0.12141 0.0
C386 C 0.19673 0.88299 0.13259 0.0
C387 C 0.1785 0.85256 0.14306 0.0
C388 C 0.16595 0.8386 0.13189 0.0
C389 C 0.17708 0.85332 0.16543 0.0
C390 C 0.18957 0.86766 0.17853 0.0
C391 C 0.20665 0.87222 0.17872 0.0
C392 C 0.21801 0.88513 0.19214 0.0
C393 C 0.2125 0.8937 0.20565 0.0
C394 C 0.19541 0.88917 0.2052 0.0
C395 C 0.1841 0.8763 0.19184 0.0
H396 H 0.31205 0.18688 0.86269 0.0
H397 H 0.31426 0.20995 0.84089 0.0
H398 H 0.36816 0.2372 0.85102 0.0
H399 H 0.36553 0.2145 0.87383 0.0
H400 H 0.33321 0.17015 0.85395 0.0
H401 H 0.32435 0.20468 0.90601 0.0
H402 H 0.33355 0.2312 0.92483 0.0
H403 H 0.37461 0.22729 0.95256 0.0
H404 H 0.36622 0.20171 0.93236 0.0
H405 H 0.36274 0.15658 0.92357 0.0
H406 H 0.3625 0.1327 0.94062 0.0
H407 H 0.30869 0.10295 0.92983 0.0
H408 H 0.3097 0.1265 0.91071 0.0
H409 H 0.34133 0.17221 0.93215 0.0
H410 H 0.35779 0.1462 0.88241 0.0
H411 H 0.36014 0.12656 0.85896 0.0
H412 H 0.31698 0.12018 0.82339 0.0
H413 H 0.31357 0.13858 0.84869 0.0
C414 C 0.3386 0.19909 0.86999 0.0
C415 C 0.32429 0.19796 0.86036 0.0
C416 C 0.32563 0.21113 0.84772 0.0
C417 C 0.34141 0.22556 0.84401 0.0
C418 C 0.35573 0.22655 0.85378 0.0
C419 C 0.35431 0.21352 0.86674 0.0
C420 C 0.33728 0.18476 0.88241 0.0
C421 C 0.33451 0.17035 0.87113 0.0
C422 C 0.34018 0.18572 0.90466 0.0
C423 C 0.3448 0.20129 0.91724 0.0
C424 C 0.33553 0.20969 0.91582 0.0
C425 C 0.34065 0.22477 0.92694 0.0
C426 C 0.355 0.23164 0.9401 0.0
C427 C 0.36379 0.22276 0.94217 0.0
C428 C 0.35885 0.20791 0.93079 0.0
C429 C 0.33629 0.14322 0.91565 0.0
C430 C 0.35093 0.14484 0.92489 0.0
C431 C 0.35067 0.13109 0.93489 0.0
C432 C 0.33555 0.11553 0.93678 0.0
C433 C 0.32074 0.11433 0.92825 0.0
C434 C 0.32119 0.12791 0.9175 0.0
C435 C 0.33687 0.15744 0.90372 0.0
C436 C 0.33955 0.17181 0.91505 0.0
C437 C 0.33484 0.15688 0.88133 0.0
C438 C 0.33518 0.1436 0.86789 0.0
C439 C 0.34827 0.13998 0.8703 0.0
C440 C 0.3499 0.12903 0.85634 0.0
C441 C 0.33896 0.12193 0.83888 0.0
C442 C 0.32559 0.12524 0.8367 0.0
C443 C 0.3237 0.13591 0.85109 0.0
H444 H 0.82356 0.12111 0.88331 0.0
H445 H 0.80472 0.09835 0.85947 0.0
H446 H 0.79652 0.13364 0.82323 0.0
H447 H 0.81481 0.15616 0.84759 0.0
H448 H 0.84689 0.16903 0.85387 0.0
H449 H 0.83263 0.13409 0.93575 0.0
H450 H 0.80876 0.11189 0.95522 0.0
H451 H 0.77462 0.12028 0.9167 0.0
H452 H 0.79854 0.14286 0.89791 0.0
H453 H 0.86786 0.21426 0.90568 0.0
H454 H 0.88984 0.23678 0.92708 0.0
H455 H 0.90009 0.20057 0.95739 0.0
H456 H 0.87839 0.17817 0.93544 0.0
H457 H 0.84437 0.16653 0.93273 0.0
H458 H 0.85821 0.20672 0.86078 0.0
H459 H 0.8808 0.22879 0.83966 0.0
H460 H 0.91325 0.20884 0.85633 0.0
H461 H 0.89086 0.18757 0.8785 0.0
C462 C 0.82052 0.14037 0.86741 0.0
C463 C 0.81745 0.12389 0.87048 0.0
C464 C 0.80682 0.1109 0.85666 0.0
C465 C 0.7991 0.11413 0.83936 0.0
C466 C 0.80203 0.13061 0.83652 0.0
C467 C 0.81262 0.14356 0.85036 0.0
C468 C 0.83279 0.15447 0.88108 0.0
C469 C 0.84611 0.16853 0.87112 0.0
C470 C 0.832 0.15381 0.90364 0.0
C471 C 0.81743 0.14007 0.91519 0.0
C472 C 0.82001 0.13118 0.93155 0.0
C473 C 0.80632 0.11838 0.94255 0.0
C474 C 0.78973 0.11423 0.93751 0.0
C475 C 0.7872 0.12323 0.92118 0.0
C476 C 0.80089 0.13604 0.91023 0.0
C477 C 0.87162 0.19454 0.91871 0.0
C478 C 0.87496 0.21119 0.91677 0.0
C479 C 0.8874 0.22403 0.92922 0.0
C480 C 0.89677 0.22051 0.94397 0.0
C481 C 0.89328 0.20378 0.94602 0.0
C482 C 0.88079 0.19093 0.93358 0.0
C483 C 0.85843 0.18086 0.90543 0.0
C484 C 0.84499 0.16692 0.91548 0.0
C485 C 0.85888 0.18168 0.88296 0.0
C486 C 0.87293 0.19561 0.87124 0.0
C487 C 0.8703 0.2073 0.86005 0.0
C488 C 0.88322 0.21982 0.84779 0.0
C489 C 0.89894 0.22063 0.84599 0.0
C490 C 0.90151 0.20891 0.85751 0.0
C491 C 0.88867 0.19662 0.87012 0.0
H492 H 0.80754 0.65603 0.84155 0.0
H493 H 0.78899 0.66082 0.8185 0.0
H494 H 0.79578 0.702 0.85887 0.0
H495 H 0.81489 0.69746 0.88155 0.0
H496 H 0.84002 0.67712 0.8483 0.0
H497 H 0.78983 0.65045 0.8916 0.0
H498 H 0.76629 0.64909 0.91158 0.0
H499 H 0.80139 0.688 0.95391 0.0
H500 H 0.82487 0.68972 0.93336 0.0
H501 H 0.86855 0.68423 0.93342 0.0
H502 H 0.88598 0.67539 0.95312 0.0
H503 H 0.87193 0.63458 0.90854 0.0
H504 H 0.85452 0.64332 0.88915 0.0
H505 H 0.83442 0.66672 0.9261 0.0
H506 H 0.88445 0.69247 0.88405 0.0
H507 H 0.90812 0.69611 0.86215 0.0
H508 H 0.87328 0.6597 0.81716 0.0
H509 H 0.84974 0.65568 0.83948 0.0
C510 C 0.81258 0.67633 0.86334 0.0
C511 C 0.80497 0.66604 0.84552 0.0
C512 C 0.79423 0.66871 0.83245 0.0
C513 C 0.79082 0.68177 0.83683 0.0
C514 C 0.79823 0.69191 0.85492 0.0
C515 C 0.80903 0.68924 0.86803 0.0
C516 C 0.82497 0.67406 0.87607 0.0
C517 C 0.83866 0.67461 0.86528 0.0
C518 C 0.82355 0.6715 0.89839 0.0
C519 C 0.80916 0.67038 0.91075 0.0
C520 C 0.79247 0.65881 0.90505 0.0
C521 C 0.77899 0.65791 0.91666 0.0
C522 C 0.78191 0.66847 0.93435 0.0
C523 C 0.79865 0.67987 0.94019 0.0
C524 C 0.81211 0.68077 0.92855 0.0
C525 C 0.86029 0.66449 0.90974 0.0
C526 C 0.8693 0.67342 0.92788 0.0
C527 C 0.87933 0.66844 0.93903 0.0
C528 C 0.88027 0.65426 0.93242 0.0
C529 C 0.87134 0.64546 0.91415 0.0
C530 C 0.86147 0.65052 0.90296 0.0
C531 C 0.84918 0.66929 0.89815 0.0
C532 C 0.83579 0.66928 0.90914 0.0
C533 C 0.85082 0.67234 0.87596 0.0
C534 C 0.86528 0.67373 0.86349 0.0
C535 C 0.88192 0.68503 0.86968 0.0
C536 C 0.89545 0.68724 0.85702 0.0
C537 C 0.89262 0.67825 0.83784 0.0
C538 C 0.87596 0.66668 0.83194 0.0
C539 C 0.86245 0.66447 0.84461 0.0
H540 H 0.82567 0.67866 0.53595 0.0
H541 H 0.80249 0.67501 0.55873 0.0
H542 H 0.76682 0.64024 0.51306 0.0
H543 H 0.79018 0.64371 0.49046 0.0
H544 H 0.83422 0.65607 0.52439 0.0
H545 H 0.81968 0.69329 0.48879 0.0
H546 H 0.80248 0.70274 0.47015 0.0
H547 H 0.79045 0.66471 0.42198 0.0
H548 H 0.80766 0.65521 0.44084 0.0
H549 H 0.86947 0.65027 0.46999 0.0
H550 H 0.89678 0.65982 0.45298 0.0
H551 H 0.89853 0.7062 0.43511 0.0
H552 H 0.87222 0.69729 0.45364 0.0
H553 H 0.84231 0.67514 0.44936 0.0
H554 H 0.84512 0.63432 0.51704 0.0
H555 H 0.86432 0.63053 0.54008 0.0
H556 H 0.90333 0.68169 0.52716 0.0
H557 H 0.88368 0.68563 0.50496 0.0
C558 C 0.80969 0.66148 0.51147 0.0
C559 C 0.81286 0.67027 0.5308 0.0
C560 C 0.79958 0.66828 0.54373 0.0
C561 C 0.78278 0.65737 0.53769 0.0
C562 C 0.77961 0.64865 0.51823 0.0
C563 C 0.79294 0.65072 0.50522 0.0
C564 C 0.82403 0.66331 0.49834 0.0
C565 C 0.83599 0.66015 0.50791 0.0
C566 C 0.82626 0.6686 0.47687 0.0
C567 C 0.81487 0.67348 0.46628 0.0
C568 C 0.81315 0.68682 0.47439 0.0
C569 C 0.80343 0.69229 0.46363 0.0
C570 C 0.79518 0.68451 0.44455 0.0
C571 C 0.79655 0.67086 0.43672 0.0
C572 C 0.80644 0.66549 0.44741 0.0
C573 C 0.86885 0.67318 0.46361 0.0
C574 C 0.87586 0.6626 0.46266 0.0
C575 C 0.89142 0.66799 0.45262 0.0
C576 C 0.90014 0.68395 0.4429 0.0
C577 C 0.89258 0.69407 0.44295 0.0
C578 C 0.87729 0.68885 0.45332 0.0
C579 C 0.85299 0.66842 0.47559 0.0
C580 C 0.84054 0.67081 0.46572 0.0
C581 C 0.8505 0.66277 0.49701 0.0
C582 C 0.86297 0.66021 0.50911 0.0
C583 C 0.85785 0.64469 0.51905 0.0
C584 C 0.86893 0.6425 0.5321 0.0
C585 C 0.88544 0.65578 0.53551 0.0
C586 C 0.89066 0.67123 0.52513 0.0
C587 C 0.8795 0.67346 0.51219 0.0
H588 H 0.37524 0.21196 0.52455 0.0
H589 H 0.37184 0.23079 0.54906 0.0
H590 H 0.32911 0.22433 0.51242 0.0
H591 H 0.33131 0.20416 0.48989 0.0
H592 H 0.35625 0.18088 0.52062 0.0
H593 H 0.37784 0.22272 0.46231 0.0
H594 H 0.37804 0.24511 0.44126 0.0
H595 H 0.32461 0.21314 0.42952 0.0
H596 H 0.32517 0.19045 0.44874 0.0
H597 H 0.31663 0.14131 0.45959 0.0
H598 H 0.30597 0.11434 0.44171 0.0
H599 H 0.35634 0.12145 0.4405 0.0
H600 H 0.36702 0.14931 0.45631 0.0
H601 H 0.34598 0.17519 0.44276 0.0
H602 H 0.33053 0.14718 0.52522 0.0
H603 H 0.33249 0.12733 0.5492 0.0
H604 H 0.37558 0.13307 0.51374 0.0
H605 H 0.37451 0.15418 0.49153 0.0
C606 C 0.35371 0.2067 0.50499 0.0
C607 C 0.36519 0.21469 0.52174 0.0
C608 C 0.36333 0.22563 0.53567 0.0
C609 C 0.35003 0.22899 0.53302 0.0
C610 C 0.33925 0.22178 0.51544 0.0
C611 C 0.3408 0.21051 0.50199 0.0
C612 C 0.35383 0.19291 0.49241 0.0
C613 C 0.35447 0.17992 0.5035 0.0
C614 C 0.35139 0.19141 0.47004 0.0
C615 C 0.35149 0.20498 0.45711 0.0
C616 C 0.36625 0.22057 0.45493 0.0
C617 C 0.36624 0.23346 0.44304 0.0
C618 C 0.3513 0.23125 0.43359 0.0
C619 C 0.33653 0.21545 0.4359 0.0
C620 C 0.33673 0.2024 0.44714 0.0
C621 C 0.34252 0.14704 0.46001 0.0
C622 C 0.32536 0.13705 0.45536 0.0
C623 C 0.31927 0.12148 0.44532 0.0
C624 C 0.33014 0.11528 0.44006 0.0
C625 C 0.34748 0.12563 0.44422 0.0
C626 C 0.35362 0.14147 0.45375 0.0
C627 C 0.34851 0.16338 0.47103 0.0
C628 C 0.34854 0.1766 0.45972 0.0
C629 C 0.35191 0.16523 0.49313 0.0
C630 C 0.35207 0.15181 0.50614 0.0
C631 C 0.34032 0.14404 0.52259 0.0
C632 C 0.3414 0.13253 0.5362 0.0
C633 C 0.35419 0.12841 0.53354 0.0
C634 C 0.3657 0.13601 0.51666 0.0
C635 C 0.36485 0.14781 0.50345 0.0
H636 H 0.78873 0.15224 0.49601 0.0
H637 H 0.7657 0.13245 0.51882 0.0
H638 H 0.80084 0.12385 0.55486 0.0
H639 H 0.82356 0.14295 0.5314 0.0
H640 H 0.83586 0.17488 0.52734 0.0
H641 H 0.80389 0.16459 0.44443 0.0
H642 H 0.78187 0.142 0.42314 0.0
H643 H 0.78801 0.10532 0.45918 0.0
H644 H 0.81044 0.128 0.47985 0.0
H645 H 0.86844 0.18459 0.44554 0.0
H646 H 0.89191 0.20678 0.42554 0.0
H647 H 0.88618 0.24438 0.46023 0.0
H648 H 0.86237 0.2221 0.4797 0.0
H649 H 0.83616 0.17501 0.44845 0.0
H650 H 0.88314 0.1976 0.4952 0.0
H651 H 0.90645 0.21693 0.51767 0.0
H652 H 0.87191 0.22453 0.55675 0.0
H653 H 0.84889 0.20626 0.53311 0.0
C654 C 0.8079 0.14904 0.51187 0.0
C655 C 0.7914 0.14581 0.50853 0.0
C656 C 0.77827 0.13463 0.52178 0.0
C657 C 0.78138 0.12656 0.53879 0.0
C658 C 0.79787 0.12959 0.54178 0.0
C659 C 0.81095 0.14067 0.52847 0.0
C660 C 0.82221 0.16198 0.49911 0.0
C661 C 0.83591 0.17496 0.51008 0.0
C662 C 0.82236 0.16188 0.47656 0.0
C663 C 0.80875 0.14803 0.46391 0.0
C664 C 0.80053 0.15168 0.4477 0.0
C665 C 0.78783 0.13873 0.43564 0.0
C666 C 0.78309 0.1218 0.43946 0.0
C667 C 0.79143 0.11819 0.45564 0.0
C668 C 0.80414 0.13116 0.46766 0.0
C669 C 0.8637 0.20165 0.46425 0.0
C670 C 0.87215 0.19761 0.44871 0.0
C671 C 0.88568 0.21033 0.43743 0.0
C672 C 0.89101 0.22739 0.44135 0.0
C673 C 0.88233 0.23139 0.45667 0.0
C674 C 0.8688 0.21866 0.46795 0.0
C675 C 0.84971 0.18807 0.47673 0.0
C676 C 0.83606 0.17501 0.46571 0.0
C677 C 0.84973 0.18793 0.4993 0.0
C678 C 0.8642 0.20055 0.51222 0.0
C679 C 0.88063 0.20379 0.50822 0.0
C680 C 0.89396 0.21468 0.52138 0.0
C681 C 0.89114 0.22225 0.53928 0.0
C682 C 0.87471 0.21919 0.54303 0.0
C683 C 0.86144 0.20854 0.52962 0.0
H684 H 0.97042 0.51877 0.21454 0.0
H685 H 0.96774 0.53881 0.19187 0.0
H686 H 0.01381 0.54982 0.15952 0.0
H687 H 0.01702 0.53069 0.18349 0.0
H688 H 0.99535 0.49715 0.18541 0.0
H689 H 0.97 0.51411 0.2524 0.0
H690 H 0.97215 0.53732 0.27384 0.0
H691 H 0.0265 0.5607 0.27247 0.0
H692 H 0.02404 0.53818 0.24941 0.0
H693 H 0.0192 0.48809 0.26674 0.0
H694 H 0.0207 0.46618 0.28706 0.0
H695 H 0.97711 0.42812 0.25344 0.0
H696 H 0.97537 0.45016 0.23364 0.0
H697 H 0.99671 0.49769 0.26432 0.0
H698 H 0.02042 0.47485 0.21716 0.0
H699 H 0.02427 0.45526 0.19498 0.0
H700 H 0.98158 0.44679 0.15667 0.0
H701 H 0.97701 0.46543 0.18004 0.0
C702 C 0.99414 0.52351 0.20116 0.0
C703 C 0.9803 0.526 0.20319 0.0
C704 C 0.9786 0.53723 0.1898 0.0
C705 C 0.99049 0.54594 0.17366 0.0
C706 C 1.00452 0.54362 0.17192 0.0
C707 C 0.00632 0.53255 0.18554 0.0
C708 C 0.99504 0.51025 0.21372 0.0
C709 C 0.99546 0.49711 0.20268 0.0
C710 C 0.99563 0.51048 0.23621 0.0
C711 C 0.99686 0.5247 0.24884 0.0
C712 C 0.98235 0.52449 0.25633 0.0
C713 C 0.98365 0.53768 0.26897 0.0
C714 C 0.99953 0.5511 0.27507 0.0
C715 C 0.01403 0.55098 0.26777 0.0
C716 C 0.01269 0.538 0.25467 0.0
C717 C 0.99724 0.47079 0.24854 0.0
C718 C 0.00988 0.47503 0.26386 0.0
C719 C 0.01082 0.46247 0.27533 0.0
C720 C 0.99908 0.44537 0.27182 0.0
C721 C 0.98627 0.44116 0.25669 0.0
C722 C 0.98534 0.45374 0.24521 0.0
C723 C 0.99663 0.48424 0.23603 0.0
C724 C 0.99632 0.49746 0.24706 0.0
C725 C 0.99643 0.48418 0.21344 0.0
C726 C 0.99827 0.47152 0.20053 0.0
C727 C 0.01158 0.46843 0.20437 0.0
C728 C 0.01394 0.45738 0.19138 0.0
C729 C 1.00335 0.44948 0.1738 0.0
C730 C 0.98988 0.45241 0.17017 0.0
C731 C 0.98735 0.46325 0.18342 0.0
H732 H 0.49494 0.46534 0.18205 0.0
H733 H 0.47264 0.44828 0.15693 0.0
H734 H 0.4398 0.46269 0.1887 0.0
H735 H 0.4627 0.48105 0.21218 0.0
H736 H 0.51084 0.49735 0.18532 0.0
H737 H 0.47404 0.45295 0.23506 0.0
H738 H 0.44703 0.43575 0.25312 0.0
H739 H 0.45162 0.48063 0.28221 0.0
H740 H 0.47778 0.4977 0.26314 0.0
H741 H 0.51964 0.53341 0.26409 0.0
H742 H 0.54187 0.55607 0.28487 0.0
H743 H 0.57838 0.54512 0.25665 0.0
H744 H 0.5559 0.52188 0.2367 0.0
H745 H 0.5067 0.50127 0.26355 0.0
H746 H 0.53416 0.54449 0.21158 0.0
H747 H 0.5567 0.56582 0.18976 0.0
H748 H 0.56754 0.52812 0.16523 0.0
H749 H 0.54458 0.50672 0.18683 0.0
C750 C 0.48055 0.4744 0.19929 0.0
C751 C 0.48291 0.46481 0.18361 0.0
C752 C 0.47 0.45485 0.16934 0.0
C753 C 0.45427 0.45403 0.17055 0.0
C754 C 0.45178 0.4632 0.1868 0.0
C755 C 0.46483 0.4735 0.20067 0.0
C756 C 0.49496 0.4864 0.21283 0.0
C757 C 0.51001 0.49789 0.2025 0.0
C758 C 0.49368 0.48768 0.23524 0.0
C759 C 0.4779 0.47672 0.24737 0.0
C760 C 0.46915 0.45908 0.24521 0.0
C761 C 0.45377 0.44922 0.25576 0.0
C762 C 0.44694 0.45678 0.26894 0.0
C763 C 0.45617 0.47435 0.27178 0.0
C764 C 0.47134 0.48416 0.26106 0.0
C765 C 0.53604 0.52595 0.24865 0.0
C766 C 0.53241 0.53577 0.2625 0.0
C767 C 0.5452 0.54889 0.27423 0.0
C768 C 0.56201 0.55256 0.27238 0.0
C769 C 0.5656 0.54259 0.25866 0.0
C770 C 0.55276 0.52939 0.24702 0.0
C771 C 0.52231 0.51222 0.23593 0.0
C772 C 0.50752 0.5004 0.24641 0.0
C773 C 0.52349 0.51098 0.2136 0.0
C774 C 0.53782 0.52404 0.20106 0.0
C775 C 0.54152 0.54085 0.2017 0.0
C776 C 0.55449 0.55306 0.18922 0.0
C777 C 0.56409 0.54877 0.17578 0.0
C778 C 0.56033 0.53188 0.1752 0.0
C779 C 0.54727 0.51964 0.18764 0.0
H780 H 0.54436 0.03938 0.18735 0.0
H781 H 0.56764 0.04295 0.16493 0.0
H782 H 0.55909 0.99417 0.18476 0.0
H783 H 0.53531 0.9904 0.2066 0.0
H784 H 0.51233 0.01721 0.18366 0.0
H785 H 0.55451 0.03132 0.23664 0.0
H786 H 0.576 0.02927 0.25704 0.0
H787 H 0.53833 0.9803 0.28001 0.0
H788 H 0.51704 0.98206 0.25856 0.0
H789 H 0.47011 0.97967 0.2534 0.0
H790 H 0.44649 0.9769 0.27471 0.0
H791 H 0.46127 0.02861 0.26048 0.0
H792 H 0.48539 0.03152 0.24062 0.0
H793 H 0.5047 1.00238 0.26032 0.0
H794 H 0.47041 0.98786 0.18799 0.0
H795 H 0.45202 0.99167 0.16333 0.0
H796 H 0.47563 0.04419 0.18154 0.0
H797 H 0.49485 0.04044 0.20456 0.0
C798 C 0.5381 0.01465 0.19875 0.0
C799 C 0.54752 0.02946 0.18692 0.0
C800 C 0.56096 0.03155 0.17425 0.0
C801 C 0.56532 0.01888 0.17308 0.0
C802 C 0.556 0.00412 0.18515 0.0
C803 C 0.54249 1.00202 0.19782 0.0
C804 C 0.52322 0.01224 0.21118 0.0
C805 C 0.51081 0.01412 0.20049 0.0
C806 C 0.52103 0.00792 0.23308 0.0
C807 C 0.53415 0.00673 0.24573 0.0
C808 C 0.5509 0.02001 0.24579 0.0
C809 C 0.56317 0.01892 0.25775 0.0
C810 C 0.55897 0.00462 0.27028 0.0
C811 C 0.54213 0.9914 0.27034 0.0
C812 C 0.52988 0.99245 0.25822 0.0
C813 C 0.47929 0.00568 0.24492 0.0
C814 C 0.46821 0.99038 0.25488 0.0
C815 C 0.45462 0.98879 0.26694 0.0
C816 C 0.45184 1.0025 0.26931 0.0
C817 C 0.46304 0.01781 0.25927 0.0
C818 C 0.47669 0.01942 0.24746 0.0
C819 C 0.49406 0.00757 0.23279 0.0
C820 C 0.50633 0.00543 0.24349 0.0
C821 C 0.49635 0.01192 0.21099 0.0
C822 C 0.48376 0.01379 0.19837 0.0
C823 C 0.47144 1.00013 0.18675 0.0
C824 C 0.46084 1.00235 0.17273 0.0
C825 C 0.46222 0.01829 0.17021 0.0
C826 C 0.47432 0.03181 0.18252 0.0
C827 C 0.48517 0.02965 0.19608 0.0
H828 H 0.48689 0.01498 0.86588 0.0
H829 H 0.46358 0.01056 0.88876 0.0
H830 H 0.42933 0.9685 0.84957 0.0
H831 H 0.453 0.9727 0.82701 0.0
H832 H 0.49819 0.99352 0.86054 0.0
H833 H 0.47269 0.01784 0.81603 0.0
H834 H 0.45237 0.01979 0.79264 0.0
H835 H 0.45412 0.98387 0.74973 0.0
H836 H 0.47392 0.98144 0.77344 0.0
H837 H 0.52855 0.98179 0.79582 0.0
H838 H 0.55647 0.99141 0.78065 0.0
H839 H 0.56675 0.04285 0.78425 0.0
H840 H 0.53951 0.03313 0.80112 0.0
H841 H 0.50449 0.00419 0.78284 0.0
H842 H 0.52348 0.97437 0.8318 0.0
H843 H 0.54368 0.97191 0.85444 0.0
H844 H 0.55247 0.01649 0.88891 0.0
H845 H 0.53316 0.01952 0.86494 0.0
C846 C 0.47172 0.99421 0.84468 0.0
C847 C 0.47434 0.00486 0.8621 0.0
C848 C 0.46094 1.0024 0.87509 0.0
C849 C 0.44452 0.98919 0.87101 0.0
C850 C 0.44183 0.9787 0.85328 0.0
C851 C 0.45532 0.98118 0.84024 0.0
C852 C 0.48645 0.99626 0.83227 0.0
C853 C 0.49948 0.99583 0.84352 0.0
C854 C 0.48797 0.99879 0.80992 0.0
C855 C 0.47476 0.99933 0.79669 0.0
C856 C 0.46838 0.01002 0.80191 0.0
C857 C 0.45681 0.01119 0.78849 0.0
C858 C 0.4517 1.002 0.76936 0.0
C859 C 0.45792 0.99118 0.7643 0.0
C860 C 0.46925 0.9898 0.77785 0.0
C861 C 0.53222 0.0068 0.80027 0.0
C862 C 0.53701 0.99515 0.79371 0.0
C863 C 0.55291 1.00069 0.78467 0.0
C864 C 0.56416 0.018 0.78147 0.0
C865 C 0.55881 0.02949 0.78708 0.0
C866 C 0.54311 0.02396 0.79653 0.0
C867 C 0.51596 1.00138 0.81117 0.0
C868 C 0.50285 1.00147 0.79975 0.0
C869 C 0.51411 0.9982 0.83327 0.0
C870 C 0.5272 0.99741 0.84623 0.0
C871 C 0.53024 0.98397 0.84369 0.0
C872 C 0.54156 0.98239 0.85702 0.0
C873 C 0.54972 0.99394 0.87369 0.0
C874 C 0.5467 0.0075 0.87608 0.0
C875 C 0.53556 0.0092 0.86248 0.0
H876 H 0.03963 0.53709 0.85742 0.0
H877 H 0.04345 0.55963 0.88155 0.0
H878 H 0.99688 0.5552 0.859 0.0
H879 H 0.99279 0.53214 0.83553 0.0
H880 H 0.01545 0.5052 0.85769 0.0
H881 H 0.03424 0.55126 0.80805 0.0
H882 H 0.03343 0.57419 0.78941 0.0
H883 H 0.98482 0.53865 0.7632 0.0
H884 H 0.9853 0.51599 0.78284 0.0
H885 H 0.97856 0.46974 0.78431 0.0
H886 H 0.97255 0.44566 0.76197 0.0
H887 H 0.02174 0.45257 0.77644 0.0
H888 H 0.0272 0.47619 0.79979 0.0
H889 H 1.00441 0.50281 0.78022 0.0
H890 H 0.98424 0.45745 0.82828 0.0
H891 H 0.98067 0.43418 0.8503 0.0
H892 H 0.02777 0.46717 0.88193 0.0
H893 H 0.03204 0.49003 0.85832 0.0
C894 C 0.016 0.53298 0.84448 0.0
C895 C 0.03025 0.541 0.85762 0.0
C896 C 0.0325 0.55402 0.8713 0.0
C897 C 0.02052 0.55933 0.87221 0.0
C898 C 0.0063 0.55136 0.85889 0.0
C899 C 1.00403 0.53828 0.84525 0.0
C900 C 0.01334 0.51854 0.83083 0.0
C901 C 0.01344 0.50482 0.84064 0.0
C902 C 0.00995 0.5178 0.80873 0.0
C903 C 0.00973 0.53187 0.79714 0.0
C904 C 0.0233 0.54843 0.79854 0.0
C905 C 0.02291 0.56154 0.7876 0.0
C906 C 0.00904 0.55835 0.77477 0.0
C907 C 0.99558 0.54169 0.7732 0.0
C908 C 0.99591 0.52864 0.78427 0.0
C909 C 1.00332 0.47478 0.7937 0.0
C910 C 0.98803 0.46603 0.78269 0.0
C911 C 0.98469 0.4523 0.76974 0.0
C912 C 0.99673 0.44717 0.76703 0.0
C913 C 0.01205 0.45594 0.77824 0.0
C914 C 0.01526 0.46955 0.79152 0.0
C915 C 0.00678 0.48957 0.80706 0.0
C916 C 0.00675 0.50332 0.7972 0.0
C917 C 0.01002 0.49023 0.82919 0.0
C918 C 0.00856 0.47556 0.84128 0.0
C919 C 0.99416 0.45958 0.83933 0.0
C920 C 0.99194 0.44629 0.85237 0.0
C921 C 1.00379 0.44873 0.86826 0.0
C922 C 0.01843 0.46464 0.8698 0.0
C923 C 0.02082 0.47784 0.8564 0.0
H924 H 0.45959 0.49956 0.84572 0.0
H925 H 0.43629 0.4791 0.86768 0.0
H926 H 0.45247 0.44278 0.85668 0.0
H927 H 0.47608 0.46354 0.83542 0.0
H928 H 0.49429 0.51108 0.8556 0.0
H929 H 0.46143 0.49416 0.78393 0.0
H930 H 0.44005 0.47143 0.76222 0.0
H931 H 0.4626 0.44086 0.77659 0.0
H932 H 0.48452 0.46418 0.7971 0.0
H933 H 0.5376 0.51801 0.78521 0.0
H934 H 0.56129 0.53942 0.76465 0.0
H935 H 0.54735 0.5763 0.78311 0.0
H936 H 0.52318 0.55461 0.80237 0.0
H937 H 0.50383 0.50634 0.77875 0.0
H938 H 0.53735 0.52463 0.85081 0.0
H939 H 0.55488 0.54563 0.87727 0.0
H940 H 0.52946 0.57365 0.86366 0.0
H941 H 0.51116 0.55179 0.83862 0.0
C942 C 0.46941 0.48299 0.83866 0.0
C943 C 0.45797 0.48711 0.84785 0.0
C944 C 0.4446 0.47536 0.8603 0.0
C945 C 0.44247 0.45926 0.86394 0.0
C946 C 0.45381 0.45509 0.85435 0.0
C947 C 0.46717 0.46686 0.84192 0.0
C948 C 0.48447 0.49602 0.82727 0.0
C949 C 0.49635 0.51009 0.83877 0.0
C950 C 0.48723 0.49464 0.80541 0.0
C951 C 0.47443 0.48076 0.79222 0.0
C952 C 0.46177 0.48257 0.78223 0.0
C953 C 0.44946 0.46945 0.76998 0.0
C954 C 0.44939 0.45412 0.76767 0.0
C955 C 0.46228 0.45249 0.77764 0.0
C956 C 0.47476 0.46575 0.7896 0.0
C957 C 0.5288 0.53475 0.79577 0.0
C958 C 0.53971 0.53073 0.78486 0.0
C959 C 0.55334 0.54305 0.77322 0.0
C960 C 0.55634 0.55968 0.77221 0.0
C961 C 0.54539 0.56363 0.78328 0.0
C962 C 0.53171 0.55129 0.79473 0.0
C963 C 0.51382 0.52145 0.80714 0.0
C964 C 0.50189 0.50731 0.79562 0.0
C965 C 0.51096 0.52278 0.82902 0.0
C966 C 0.52317 0.53682 0.84256 0.0
C967 C 0.53576 0.53544 0.85342 0.0
C968 C 0.54584 0.54757 0.8685 0.0
C969 C 0.54367 0.56148 0.87286 0.0
C970 C 0.53135 0.56302 0.86126 0.0
C971 C 0.52102 0.55066 0.8466 0.0
H972 H 0.6394 0.85714 0.54025 0.0
H973 H 0.64095 0.8802 0.51839 0.0
H974 H 0.68963 0.89102 0.49499 0.0
H975 H 0.68785 0.86783 0.51628 0.0
H976 H 0.65974 0.83228 0.51439 0.0
H977 H 0.64449 0.8469 0.59781 0.0
H978 H 0.64682 0.87055 0.6185 0.0
H979 H 0.68984 0.90484 0.58072 0.0
H980 H 0.68797 0.88102 0.56091 0.0
H981 H 0.6869 0.82319 0.59224 0.0
H982 H 0.68831 0.80116 0.61232 0.0
H983 H 0.64102 0.76393 0.58467 0.0
H984 H 0.63931 0.78617 0.56543 0.0
H985 H 0.66545 0.83465 0.59298 0.0
H986 H 0.68193 0.8063 0.53939 0.0
H987 H 0.67873 0.78308 0.51672 0.0
H988 H 0.63175 0.77681 0.49282 0.0
H989 H 0.63481 0.79963 0.51588 0.0
C990 C 0.66356 0.86089 0.52991 0.0
C991 C 0.65037 0.8645 0.53036 0.0
C992 C 0.65122 0.87757 0.51787 0.0
C993 C 0.66543 0.88736 0.50512 0.0
C994 C 0.6786 0.88371 0.50479 0.0
C995 C 0.67758 0.87048 0.51688 0.0
C996 C 0.66276 0.84689 0.54255 0.0
C997 C 0.66088 0.83271 0.5316 0.0
C998 C 0.66422 0.84757 0.565 0.0
C999 C 0.66586 0.86214 0.57753 0.0
C1000 C 0.65448 0.8595 0.59406 0.0
C1001 C 0.65574 0.87309 0.60576 0.0
C1002 C 0.66843 0.88969 0.60122 0.0
C1003 C 0.67998 0.89227 0.58483 0.0
C1004 C 0.67877 0.87864 0.57323 0.0
C1005 C 0.66309 0.80636 0.57712 0.0
C1006 C 0.67676 0.81029 0.59062 0.0
C1007 C 0.67764 0.79763 0.60194 0.0
C1008 C 0.66485 0.78069 0.60004 0.0
C1009 C 0.65104 0.77682 0.5867 0.0
C1010 C 0.65013 0.78952 0.57547 0.0
C1011 C 0.66255 0.81995 0.56479 0.0
C1012 C 0.66415 0.83409 0.57579 0.0
C1013 C 0.66064 0.81917 0.54235 0.0
C1014 C 0.65854 0.80463 0.52946 0.0
C1015 C 0.67083 0.79975 0.52949 0.0
C1016 C 0.66905 0.78657 0.51638 0.0
C1017 C 0.65496 0.77805 0.50295 0.0
C1018 C 0.64262 0.78289 0.50317 0.0
C1019 C 0.64442 0.79604 0.51623 0.0
H1020 H 0.16612 0.79188 0.54504 0.0
H1021 H 0.14735 0.76863 0.52185 0.0
H1022 H 0.12729 0.79909 0.49706 0.0
H1023 H 0.14517 0.82161 0.52164 0.0
H1024 H 0.1873 0.83227 0.5239 0.0
H1025 H 0.14852 0.79164 0.57713 0.0
H1026 H 0.12052 0.77364 0.59204 0.0
H1027 H 0.11464 0.8173 0.60019 0.0
H1028 H 0.14188 0.8348 0.58357 0.0
H1029 H 0.18292 0.87525 0.58615 0.0
H1030 H 0.20018 0.90027 0.60745 0.0
H1031 H 0.24077 0.88911 0.60614 0.0
H1032 H 0.22351 0.86436 0.58393 0.0
H1033 H 0.17204 0.84269 0.59581 0.0
H1034 H 0.20329 0.88182 0.54285 0.0
H1035 H 0.22635 0.90278 0.52139 0.0
H1036 H 0.24329 0.86726 0.50894 0.0
H1037 H 0.22011 0.84622 0.53073 0.0
C1038 C 0.1568 0.8083 0.53526 0.0
C1039 C 0.15743 0.79335 0.53483 0.0
C1040 C 0.1468 0.78014 0.5213 0.0
C1041 C 0.13571 0.78183 0.50731 0.0
C1042 C 0.13527 0.797 0.50782 0.0
C1043 C 0.14561 0.81002 0.52175 0.0
C1044 C 0.16863 0.82263 0.54871 0.0
C1045 C 0.18421 0.83439 0.53987 0.0
C1046 C 0.16405 0.8257 0.56904 0.0
C1047 C 0.14718 0.81454 0.57858 0.0
C1048 C 0.14099 0.79723 0.58153 0.0
C1049 C 0.12506 0.78699 0.59052 0.0
C1050 C 0.1151 0.7939 0.5972 0.0
C1051 C 0.12162 0.81134 0.59475 0.0
C1052 C 0.13736 0.82147 0.58543 0.0
C1053 C 0.20187 0.86787 0.58352 0.0
C1054 C 0.19555 0.87821 0.59041 0.0
C1055 C 0.20545 0.89249 0.60275 0.0
C1056 C 0.22186 0.89667 0.60891 0.0
C1057 C 0.22828 0.88642 0.60163 0.0
C1058 C 0.2184 0.8722 0.589 0.0
C1059 C 0.19088 0.85233 0.57115 0.0
C1060 C 0.1754 0.84039 0.5801 0.0
C1061 C 0.19524 0.84941 0.55057 0.0
C1062 C 0.21013 0.86252 0.53883 0.0
C1063 C 0.21219 0.87863 0.53601 0.0
C1064 C 0.22539 0.89062 0.52363 0.0
C1065 C 0.23675 0.88674 0.51355 0.0
C1066 C 0.23471 0.87061 0.51641 0.0
C1067 C 0.22152 0.85861 0.52893 0.0
H1068 H 0.15221 0.33001 0.50947 0.0
H1069 H 0.13296 0.33335 0.48596 0.0
H1070 H 0.13539 0.37233 0.52715 0.0
H1071 H 0.1552 0.36932 0.55028 0.0
H1072 H 0.18349 0.35059 0.51841 0.0
H1073 H 0.13354 0.31938 0.56073 0.0
H1074 H 0.10846 0.31204 0.58219 0.0
H1075 H 0.1372 0.35632 0.62084 0.0
H1076 H 0.16244 0.3635 0.59951 0.0
H1077 H 0.22562 0.35743 0.57086 0.0
H1078 H 0.24218 0.3481 0.59111 0.0
H1079 H 0.19637 0.30849 0.6192 0.0
H1080 H 0.17998 0.3167 0.59741 0.0
H1081 H 0.17526 0.34048 0.59608 0.0
H1082 H 0.21932 0.37046 0.52512 0.0
H1083 H 0.23987 0.36819 0.50259 0.0
H1084 H 0.21614 0.3151 0.51738 0.0
H1085 H 0.1962 0.31776 0.54057 0.0
C1086 C 0.15518 0.34939 0.5317 0.0
C1087 C 0.14862 0.33929 0.51347 0.0
C1088 C 0.13744 0.3411 0.50013 0.0
C1089 C 0.13256 0.35308 0.50466 0.0
C1090 C 0.139 0.36308 0.52307 0.0
C1091 C 0.15021 0.36126 0.53644 0.0
C1092 C 0.16761 0.34777 0.54523 0.0
C1093 C 0.18173 0.34844 0.53544 0.0
C1094 C 0.16537 0.34497 0.56741 0.0
C1095 C 0.14982 0.34202 0.57848 0.0
C1096 C 0.13438 0.3277 0.57355 0.0
C1097 C 0.12009 0.32348 0.58585 0.0
C1098 C 0.12095 0.33362 0.60315 0.0
C1099 C 0.13621 0.34839 0.60748 0.0
C1100 C 0.1506 0.35245 0.59538 0.0
C1101 C 0.20142 0.33762 0.58214 0.0
C1102 C 0.21911 0.34649 0.58101 0.0
C1103 C 0.22864 0.3413 0.59296 0.0
C1104 C 0.22071 0.32734 0.60673 0.0
C1105 C 0.20304 0.31894 0.60837 0.0
C1106 C 0.19357 0.32385 0.59608 0.0
C1107 C 0.19083 0.34245 0.56915 0.0
C1108 C 0.17721 0.34281 0.57911 0.0
C1109 C 0.19316 0.34551 0.54693 0.0
C1110 C 0.20637 0.34432 0.53468 0.0
C1111 C 0.21875 0.3584 0.52369 0.0
C1112 C 0.23039 0.35702 0.51065 0.0
C1113 C 0.22971 0.34143 0.508 0.0
C1114 C 0.21734 0.32739 0.51927 0.0
C1115 C 0.20584 0.32884 0.53251 0.0
H1116 H 0.98307 0.37962 0.08364 0.0
H1117 H 0.03717 0.40172 0.07654 0.0
H1118 H 0.04169 0.42063 0.10671 0.0
H1119 H 0.98362 0.41749 0.09513 0.0
H1120 H 0.96693 0.40873 0.11458 0.0
H1121 H 0.9676 0.39559 0.09372 0.0
H1122 H 0.96728 0.37477 0.12179 0.0
H1123 H 0.9665 0.38781 0.14277 0.0
H1124 H 0.98293 0.38246 0.14256 0.0
H1125 H 0.04072 0.43882 0.13518 0.0
H1126 H 0.03431 0.45492 0.16109 0.0
H1127 H 0.98079 0.42092 0.15131 0.0
C1128 C 0.99584 0.38821 0.08873 0.0
C1129 C 0.00976 0.38914 0.0777 0.0
C1130 C 0.02629 0.40077 0.08465 0.0
C1131 C 0.02901 0.41156 0.10184 0.0
C1132 C 0.01509 0.4106 0.11206 0.0
C1133 C 0.99882 0.39919 0.10592 0.0
C1134 C 0.98617 0.4015 0.11903 0.0
C1135 C 0.97545 0.4061 0.10476 0.0
C1136 C 0.97507 0.3857 0.13233 0.0
C1137 C 0.99794 0.4162 0.1331 0.0
C1138 C 0.01454 0.42113 0.12885 0.0
C1139 C 0.02776 0.43489 0.13897 0.0
C1140 C 0.02395 0.4439 0.15384 0.0
C1141 C 0.00702 0.43914 0.15863 0.0
C1142 C 0.99387 0.42498 0.1481 0.0
H1143 H 0.61375 0.58845 0.06699 0.0
H1144 H 0.63616 0.63697 0.09852 0.0
H1145 H 0.62355 0.62293 0.13265 0.0
H1146 H 0.57504 0.57199 0.09294 0.0
H1147 H 0.57115 0.55072 0.09491 0.0
H1148 H 0.58414 0.56416 0.07377 0.0
H1149 H 0.60844 0.55922 0.08534 0.0
H1150 H 0.59547 0.54568 0.10651 0.0
H1151 H 0.61585 0.56349 0.11245 0.0
H1152 H 0.60695 0.60402 0.16258 0.0
H1153 H 0.58627 0.58174 0.186 0.0
H1154 H 0.57262 0.54552 0.13452 0.0
C1155 C 0.6164 0.59601 0.08126 0.0
C1156 C 0.62618 0.61374 0.08033 0.0
C1157 C 0.62886 0.62335 0.09906 0.0
C1158 C 0.62178 0.61548 0.11849 0.0
C1159 C 0.61187 0.598 0.11886 0.0
C1160 C 0.60909 0.58835 0.10074 0.0
C1161 C 0.59642 0.56999 0.10503 0.0
C1162 C 0.58076 0.56386 0.09082 0.0
C1163 C 0.60453 0.55894 0.10216 0.0
C1164 C 0.5923 0.5709 0.12822 0.0
C1165 C 0.60158 0.58713 0.13596 0.0
C1166 C 0.59962 0.59125 0.15671 0.0
C1167 C 0.58771 0.57851 0.16985 0.0
C1168 C 0.57765 0.56184 0.16215 0.0
C1169 C 0.58023 0.55803 0.14108 0.0
H1170 H 0.38492 0.99152 0.0902 0.0
H1171 H 0.41204 0.04231 0.06481 0.0
H1172 H 0.43399 0.05 0.09212 0.0
H1173 H 0.3952 0.00379 0.14669 0.0
H1174 H 0.39709 0.9856 0.15277 0.0
H1175 H 0.38288 0.98443 0.13219 0.0
H1176 H 0.39763 0.97451 0.10535 0.0
H1177 H 0.41198 0.9758 0.12576 0.0
H1178 H 0.42002 0.98725 0.10124 0.0
H1179 H 0.45448 0.05128 0.11943 0.0
H1180 H 0.47111 0.04684 0.14653 0.0
H1181 H 0.42978 0.99582 0.15637 0.0
C1182 C 0.39534 0.00434 0.09057 0.0
C1183 C 0.39673 0.01631 0.07529 0.0
C1184 C 0.41061 0.03293 0.07635 0.0
C1185 C 0.42318 0.03742 0.0918 0.0
C1186 C 0.4216 0.02523 0.10631 0.0
C1187 C 0.40792 0.0091 0.10606 0.0
C1188 C 0.4095 0.99829 0.12314 0.0
C1189 C 0.39532 0.9927 0.13968 0.0
C1190 C 0.4098 0.98307 0.11328 0.0
C1191 C 0.42643 0.01074 0.13262 0.0
C1192 C 0.43318 0.02619 0.12267 0.0
C1193 C 0.44915 0.03936 0.12771 0.0
C1194 C 0.45847 0.03671 0.14335 0.0
C1195 C 0.4518 0.02104 0.15409 0.0
C1196 C 0.43543 0.00796 0.14859 0.0
H1197 H 0.39881 0.01478 0.95921 0.0
H1198 H 0.36737 0.96161 0.9735 0.0
H1199 H 0.38006 0.95462 0.94323 0.0
H1200 H 0.39819 0.01057 0.90108 0.0
H1201 H 0.41985 0.02697 0.89841 0.0
H1202 H 0.40724 0.02763 0.92002 0.0
H1203 H 0.42935 0.02933 0.94708 0.0
H1204 H 0.44199 0.02863 0.92558 0.0
H1205 H 0.43534 0.01334 0.94671 0.0
H1206 H 0.39771 0.95361 0.91278 0.0
H1207 H 0.41913 0.9587 0.88542 0.0
H1208 H 0.43859 0.01251 0.89091 0.0
C1209 C 0.39438 1.00163 0.95584 0.0
C1210 C 0.38202 0.98874 0.96875 0.0
C1211 C 0.37677 0.97172 0.96385 0.0
C1212 C 0.38388 0.96762 0.94664 0.0
C1213 C 0.39619 0.98067 0.93442 0.0
C1214 C 0.40134 0.99733 0.93879 0.0
C1215 C 0.4154 0.00905 0.92402 0.0
C1216 C 0.40983 0.01915 0.91005 0.0
C1217 C 0.43147 0.02077 0.9366 0.0
C1218 C 0.41762 0.9964 0.91093 0.0
C1219 C 0.40632 0.98009 0.917 0.0
C1220 C 0.40647 0.96633 0.90773 0.0
C1221 C 0.41864 0.96935 0.89209 0.0
C1222 C 0.43056 0.98601 0.88592 0.0
C1223 C 0.42976 0.99963 0.89532 0.0
H1224 H 0.02558 0.39977 0.95729 0.0
H1225 H 0.97192 0.37138 0.97057 0.0
H1226 H 0.96663 0.38546 0.94081 0.0
H1227 H 0.02733 0.43812 0.94483 0.0
H1228 H 0.04243 0.44387 0.92355 0.0
H1229 H 0.04217 0.43064 0.94486 0.0
H1230 H 0.03869 0.4079 0.91757 0.0
H1231 H 0.03903 0.42111 0.89614 0.0
H1232 H 0.0216 0.39995 0.89873 0.0
H1233 H 0.96708 0.40408 0.91202 0.0
H1234 H 0.97314 0.42561 0.88495 0.0
H1235 H 0.02638 0.44142 0.88837 0.0
C1236 C 0.0127 0.39632 0.95372 0.0
C1237 C 0.99918 0.38443 0.96635 0.0
C1238 C 0.98253 0.38044 0.96124 0.0
C1239 C 0.97935 0.38835 0.94429 0.0
C1240 C 0.99293 0.40019 0.93244 0.0
C1241 C 0.00927 0.40412 0.93675 0.0
C1242 C 0.02158 0.41785 0.92193 0.0
C1243 C 0.03411 0.43355 0.93455 0.0
C1244 C 0.03077 0.41131 0.90775 0.0
C1245 C 0.00959 0.42123 0.909 0.0
C1246 C 0.99314 0.41082 0.91532 0.0
C1247 C 0.97988 0.41208 0.90661 0.0
C1248 C 0.98348 0.42433 0.89103 0.0
C1249 C 1.00024 0.43518 0.88407 0.0
C1250 C 0.01343 0.43343 0.89321 0.0
H1251 H 0.6199 0.60966 0.95488 0.0
H1252 H 0.59104 0.62993 0.98475 0.0
H1253 H 0.5691 0.61629 0.95715 0.0
H1254 H 0.60938 0.61429 0.89975 0.0
H1255 H 0.60849 0.59509 0.89115 0.0
H1256 H 0.6223 0.6072 0.9126 0.0
H1257 H 0.60832 0.5809 0.93691 0.0
H1258 H 0.59439 0.56874 0.91562 0.0
H1259 H 0.58584 0.57012 0.94091 0.0
H1260 H 0.54911 0.59817 0.92843 0.0
H1261 H 0.53336 0.57863 0.89941 0.0
H1262 H 0.57628 0.57197 0.88632 0.0
C1263 C 0.60905 0.61139 0.95551 0.0
C1264 C 0.60718 0.62084 0.97204 0.0
C1265 C 0.5928 0.62282 0.97222 0.0
C1266 C 0.58025 0.61509 0.95663 0.0
C1267 C 0.58238 0.60563 0.94078 0.0
C1268 C 0.59653 0.60396 0.93992 0.0
C1269 C 0.59563 0.59292 0.92138 0.0
C1270 C 0.60979 0.60298 0.90526 0.0
C1271 C 0.59607 0.57724 0.92918 0.0
C1272 C 0.57856 0.58829 0.91226 0.0
C1273 C 0.57113 0.59574 0.92369 0.0
C1274 C 0.55496 0.59257 0.91906 0.0
C1275 C 0.54615 0.58149 0.90233 0.0
C1276 C 0.55353 0.57379 0.89011 0.0
C1277 C 0.57008 0.57745 0.89522 0.0
H1278 H 0.99141 0.601 0.96231 0.0
H1279 H 0.04385 0.63947 0.96986 0.0
H1280 H 0.05151 0.62697 0.93997 0.0
H1281 H 0.99887 0.5674 0.95192 0.0
H1282 H 0.98206 0.5572 0.93284 0.0
H1283 H 0.98062 0.56992 0.95369 0.0
H1284 H 0.97626 0.58802 0.92553 0.0
H1285 H 0.97769 0.57534 0.90457 0.0
H1286 H 0.9915 0.59784 0.9045 0.0
H1287 H 0.05348 0.6095 0.90996 0.0
H1288 H 0.04975 0.58825 0.88301 0.0
H1289 H 0.99611 0.56074 0.89628 0.0
C1290 C 1.0045 0.60698 0.95754 0.0
C1291 C 0.01702 0.62132 0.9684 0.0
C1292 C 0.03402 0.62853 0.96178 0.0
C1293 C 0.03849 0.62153 0.94478 0.0
C1294 C 0.02582 0.6073 0.9346 0.0
C1295 C 0.00918 0.6001 0.94076 0.0
C1296 C 0.99806 0.58437 0.92796 0.0
C1297 C 0.9894 0.56881 0.94247 0.0
C1298 C 0.98511 0.58653 0.91486 0.0
C1299 C 0.01107 0.58371 0.91373 0.0
C1300 C 0.02699 0.59711 0.91767 0.0
C1301 C 0.04106 0.59897 0.90675 0.0
C1302 C 0.03882 0.58676 0.89156 0.0
C1303 C 0.02264 0.57275 0.88748 0.0
C1304 C 0.00861 0.57139 0.89869 0.0
H1305 H 0.40569 0.39518 0.96128 0.0
H1306 H 0.35938 0.39688 0.95535 0.0
H1307 H 0.3709 0.41497 0.92354 0.0
H1308 H 0.43321 0.43762 0.94778 0.0
H1309 H 0.44781 0.43349 0.93339 0.0
H1310 H 0.43541 0.41972 0.95464 0.0
H1311 H 0.42384 0.39418 0.92895 0.0
H1312 H 0.43623 0.4079 0.90759 0.0
H1313 H 0.41379 0.39464 0.90452 0.0
H1314 H 0.38821 0.4341 0.89328 0.0
H1315 H 0.40982 0.45273 0.86738 0.0
H1316 H 0.44483 0.43881 0.89397 0.0
C1317 C 0.39784 0.39915 0.95318 0.0
C1318 C 0.38157 0.39453 0.96081 0.0
C1319 C 0.37185 0.4002 0.94981 0.0
C1320 C 0.37828 0.41047 0.9317 0.0
C1321 C 0.39445 0.41494 0.92478 0.0
C1322 C 0.40407 0.40942 0.93519 0.0
C1323 C 0.42134 0.41659 0.92517 0.0
C1324 C 0.43526 0.4275 0.9412 0.0
C1325 C 0.42394 0.40248 0.91601 0.0
C1326 C 0.42003 0.42718 0.90764 0.0
C1327 C 0.4044 0.42599 0.90757 0.0
C1328 C 0.40046 0.43506 0.89316 0.0
C1329 C 0.41286 0.44569 0.87859 0.0
C1330 C 0.42904 0.44723 0.87855 0.0
C1331 C 0.43252 0.4377 0.89325 0.0
H1332 H 0.62297 0.02054 0.96006 0.0
H1333 H 0.6028 0.96719 0.97197 0.0
H1334 H 0.58214 0.96039 0.94321 0.0
H1335 H 0.58413 0.01843 0.95031 0.0
H1336 H 0.59181 0.03394 0.92939 0.0
H1337 H 0.60593 0.03477 0.94985 0.0
H1338 H 0.62584 0.03389 0.9212 0.0
H1339 H 0.61182 0.03316 0.90061 0.0
H1340 H 0.61762 0.01707 0.9019 0.0
H1341 H 0.56226 0.95929 0.91529 0.0
H1342 H 0.54505 0.96389 0.88915 0.0
H1343 H 0.57868 0.01795 0.89398 0.0
C1344 C 0.61438 0.00742 0.95644 0.0
C1345 C 0.61456 0.99441 0.96833 0.0
C1346 C 0.60297 0.9774 0.96313 0.0
C1347 C 0.59117 0.97339 0.94679 0.0
C1348 C 0.59114 0.98651 0.93566 0.0
C1349 C 0.60252 1.00317 0.94011 0.0
C1350 C 0.59939 0.01484 0.92618 0.0
C1351 C 0.59506 0.02616 0.93975 0.0
C1352 C 0.61457 0.02536 0.9116 0.0
C1353 C 0.58429 1.00211 0.91351 0.0
C1354 C 0.57979 0.98585 0.9192 0.0
C1355 C 0.56583 0.97196 0.91042 0.0
C1356 C 0.55618 0.97473 0.89541 0.0
C1357 C 0.56054 0.99129 0.88915 0.0
C1358 C 0.57489 0.00512 0.89837 0.0
H1359 H 0.60654 0.99128 0.08086 0.0
H1360 H 0.64713 0.04321 0.07823 0.0
H1361 H 0.6349 0.05 0.1092 0.0
H1362 H 0.57441 1.00046 0.09252 0.0
H1363 H 0.56293 0.98269 0.10993 0.0
H1364 H 0.57571 0.98163 0.0889 0.0
H1365 H 0.59209 0.97426 0.11638 0.0
H1366 H 0.57934 0.97531 0.13753 0.0
H1367 H 0.60195 0.98802 0.1388 0.0
H1368 H 0.61745 0.05135 0.13944 0.0
H1369 H 0.59572 0.04746 0.16568 0.0
H1370 H 0.56604 0.99487 0.14742 0.0
C1371 C 0.61304 0.00404 0.08698 0.0
C1372 C 0.62789 0.0167 0.07718 0.0
C1373 C 0.63579 0.03329 0.08549 0.0
C1374 C 0.62896 0.03725 0.10311 0.0
C1375 C 0.6142 0.0245 0.11222 0.0
C1376 C 0.60633 0.00823 0.1044 0.0
C1377 C 0.59005 0.99707 0.11618 0.0
C1378 C 0.57489 0.99006 0.10097 0.0
C1379 C 0.59092 0.98283 0.12792 0.0
C1380 C 0.58987 0.00965 0.13168 0.0
C1381 C 0.60399 0.02535 0.1293 0.0
C1382 C 0.60636 0.0391 0.14146 0.0
C1383 C 0.59388 0.03678 0.15624 0.0
C1384 C 0.57911 0.02087 0.15863 0.0
C1385 C 0.57727 0.00713 0.14629 0.0
H1386 H 0.01701 0.61822 0.08608 0.0
H1387 H 0.9639 0.59587 0.07088 0.0
H1388 H 0.9569 0.57576 0.10039 0.0
H1389 H 0.0163 0.58042 0.09791 0.0
H1390 H 0.03109 0.58884 0.11961 0.0
H1391 H 0.03197 0.60247 0.09845 0.0
H1392 H 0.02919 0.6221 0.12589 0.0
H1393 H 0.02841 0.60857 0.14717 0.0
H1394 H 0.01175 0.61345 0.14427 0.0
H1395 H 0.95576 0.5566 0.12947 0.0
H1396 H 0.96044 0.54011 0.15666 0.0
H1397 H 0.01423 0.57544 0.15417 0.0
C1398 C 1.00388 0.60928 0.08914 0.0
C1399 C 0.99101 0.60869 0.07611 0.0
C1400 C 0.974 0.59664 0.0806 0.0
C1401 C 0.96989 0.58515 0.09736 0.0
C1402 C 0.98289 0.58589 0.10962 0.0
C1403 C 0.99953 0.59772 0.10585 0.0
C1404 C 0.01113 0.59535 0.12087 0.0
C1405 C 0.02334 0.59154 0.10846 0.0
C1406 C 0.02068 0.61078 0.13541 0.0
C1407 C 0.99841 0.58012 0.13335 0.0
C1408 C 0.9822 0.57494 0.12667 0.0
C1409 C 0.96838 0.56071 0.1351 0.0
C1410 C 0.97119 0.55148 0.15071 0.0
C1411 C 0.98771 0.5565 0.15789 0.0
C1412 C 1.00145 0.57115 0.14909 0.0
H1413 H 0.40519 0.38493 0.07931 0.0
H1414 H 0.3754 0.40925 0.06954 0.0
H1415 H 0.39017 0.42861 0.09911 0.0
H1416 H 0.40637 0.38828 0.13773 0.0
H1417 H 0.42768 0.39229 0.13951 0.0
H1418 H 0.41432 0.37971 0.11799 0.0
H1419 H 0.43654 0.39968 0.09074 0.0
H1420 H 0.44992 0.41237 0.11216 0.0
H1421 H 0.44367 0.42191 0.09173 0.0
H1422 H 0.40946 0.44682 0.12749 0.0
H1423 H 0.43107 0.46187 0.15462 0.0
H1424 H 0.4473 0.42481 0.14864 0.0
C1425 C 0.40167 0.39422 0.08353 0.0
C1426 C 0.38911 0.39552 0.07198 0.0
C1427 C 0.38492 0.40791 0.07806 0.0
C1428 C 0.39326 0.41902 0.09487 0.0
C1429 C 0.40567 0.41755 0.10571 0.0
C1430 C 0.40978 0.40538 0.10051 0.0
C1431 C 0.42379 0.40676 0.11474 0.0
C1432 C 0.41767 0.39081 0.1283 0.0
C1433 C 0.4394 0.4104 0.10155 0.0
C1434 C 0.42709 0.4218 0.12839 0.0
C1435 C 0.41648 0.42779 0.12284 0.0
C1436 C 0.41762 0.44205 0.13232 0.0
C1437 C 0.42991 0.45044 0.14795 0.0
C1438 C 0.44088 0.44449 0.15429 0.0
C1439 C 0.43927 0.42985 0.1443 0.0
H1440 H 0.68594 0.73845 0.41265 0.0
H1441 H 0.63425 0.69779 0.40662 0.0
H1442 H 0.62608 0.70973 0.43665 0.0
H1443 H 0.68662 0.7419 0.47037 0.0
H1444 H 0.69948 0.76452 0.47001 0.0
H1445 H 0.70135 0.75218 0.44895 0.0
H1446 H 0.6953 0.76924 0.421 0.0
H1447 H 0.69344 0.78164 0.44193 0.0
H1448 H 0.67643 0.77062 0.42332 0.0
H1449 H 0.62346 0.72697 0.46652 0.0
H1450 H 0.62646 0.74816 0.49317 0.0
H1451 H 0.6798 0.77769 0.4788 0.0
C1452 C 0.67291 0.7319 0.41773 0.0
C1453 C 0.66074 0.71711 0.40727 0.0
C1454 C 0.64381 0.70909 0.41438 0.0
C1455 C 0.63906 0.71578 0.43146 0.0
C1456 C 0.65138 0.73046 0.44126 0.0
C1457 C 0.66796 0.7384 0.43463 0.0
C1458 C 0.67867 0.7544 0.44717 0.0
C1459 C 0.69233 0.75317 0.45988 0.0
C1460 C 0.68641 0.76989 0.43248 0.0
C1461 C 0.66551 0.75436 0.46177 0.0
C1462 C 0.64986 0.7404 0.45823 0.0
C1463 C 0.63567 0.73791 0.46944 0.0
C1464 C 0.63748 0.75007 0.48446 0.0
C1465 C 0.65337 0.76462 0.48812 0.0
C1466 C 0.66755 0.7666 0.47669 0.0
H1467 H 0.28572 0.92194 0.40359 0.0
H1468 H 0.30437 0.9719 0.42993 0.0
H1469 H 0.2927 0.95953 0.46505 0.0
H1470 H 0.24706 0.90403 0.42944 0.0
H1471 H 0.24516 0.88376 0.4341 0.0
H1472 H 0.25742 0.89639 0.41199 0.0
H1473 H 0.28335 0.89504 0.42571 0.0
H1474 H 0.27112 0.88231 0.44787 0.0
H1475 H 0.29063 0.90158 0.45256 0.0
H1476 H 0.27687 0.94206 0.49611 0.0
H1477 H 0.2568 0.92052 0.52089 0.0
H1478 H 0.24686 0.88162 0.47426 0.0
C1479 C 0.28778 0.93022 0.41697 0.0
C1480 C 0.29616 0.94787 0.41423 0.0
C1481 C 0.2981 0.95836 0.43182 0.0
C1482 C 0.29158 0.95145 0.45183 0.0
C1483 C 0.283 0.934 0.45396 0.0
C1484 C 0.28103 0.92349 0.43703 0.0
C1485 C 0.26963 0.90517 0.44306 0.0
C1486 C 0.25389 0.89686 0.4288 0.0
C1487 C 0.27926 0.89545 0.44225 0.0
C1488 C 0.26519 0.9071 0.46578 0.0
C1489 C 0.27328 0.92383 0.47183 0.0
C1490 C 0.27055 0.9289 0.49164 0.0
C1491 C 0.25904 0.91658 0.50555 0.0
C1492 C 0.25022 0.89938 0.49954 0.0
C1493 C 0.25361 0.89461 0.47949 0.0
H1494 H 0.06012 0.32456 0.4174 0.0
H1495 H 0.07725 0.37749 0.40671 0.0
H1496 H 0.09766 0.38505 0.43611 0.0
H1497 H 0.06439 0.32689 0.47541 0.0
H1498 H 0.07163 0.31188 0.47624 0.0
H1499 H 0.05753 0.31063 0.45544 0.0
H1500 H 0.07874 0.31208 0.42701 0.0
H1501 H 0.09291 0.3134 0.44769 0.0
H1502 H 0.10008 0.32943 0.42745 0.0
H1503 H 0.11735 0.38688 0.46545 0.0
H1504 H 0.13497 0.38285 0.49184 0.0
H1505 H 0.10477 0.32872 0.48339 0.0
C1506 C 0.06799 0.33775 0.42139 0.0
C1507 C 0.067 0.35043 0.40974 0.0
C1508 C 0.07771 0.36753 0.41539 0.0
C1509 C 0.08934 0.37196 0.4321 0.0
C1510 C 0.09011 0.35914 0.44306 0.0
C1511 C 0.07969 0.34239 0.43794 0.0
C1512 C 0.08355 0.33107 0.45148 0.0
C1513 C 0.06837 0.31943 0.46547 0.0
C1514 C 0.08916 0.3209 0.43757 0.0
C1515 C 0.09796 0.34409 0.46477 0.0
C1516 C 0.10147 0.3602 0.45982 0.0
C1517 C 0.1146 0.3743 0.4696 0.0
C1518 C 0.12449 0.37188 0.48467 0.0
C1519 C 0.12127 0.35547 0.48979 0.0
C1520 C 0.10767 0.34144 0.47977 0.0
H1521 H 0.07019 0.35005 0.2936 0.0
H1522 H 0.03589 0.29688 0.30494 0.0
H1523 H 0.0477 0.28982 0.27379 0.0
H1524 H 0.06954 0.34797 0.23539 0.0
H1525 H 0.09159 0.36334 0.2331 0.0
H1526 H 0.07954 0.36421 0.25527 0.0
H1527 H 0.10081 0.36318 0.28148 0.0
H1528 H 0.11289 0.36228 0.25942 0.0
H1529 H 0.10527 0.34616 0.27958 0.0
H1530 H 0.06444 0.28855 0.2426 0.0
H1531 H 0.08514 0.29309 0.21452 0.0
H1532 H 0.1083 0.34713 0.22344 0.0
C1533 C 0.06497 0.33691 0.28941 0.0
C1534 C 0.05203 0.32402 0.30172 0.0
C1535 C 0.04575 0.30699 0.29576 0.0
C1536 C 0.05236 0.30285 0.27805 0.0
C1537 C 0.06523 0.31588 0.26643 0.0
C1538 C 0.07145 0.33256 0.27186 0.0
C1539 C 0.08587 0.34416 0.25743 0.0
C1540 C 0.08136 0.35559 0.24453 0.0
C1541 C 0.10217 0.35455 0.27025 0.0
C1542 C 0.08701 0.33138 0.24326 0.0
C1543 C 0.07489 0.31514 0.24856 0.0
C1544 C 0.07385 0.30122 0.23816 0.0
C1545 C 0.08562 0.30394 0.22211 0.0
C1546 C 0.09834 0.32048 0.21663 0.0
C1547 C 0.09882 0.33433 0.22726 0.0
H1548 H 0.69716 0.74941 0.30822 0.0
H1549 H 0.66389 0.70059 0.28014 0.0
H1550 H 0.66357 0.71439 0.24652 0.0
H1551 H 0.67621 0.7692 0.28664 0.0
H1552 H 0.69487 0.78932 0.28239 0.0
H1553 H 0.6945 0.77565 0.30314 0.0
H1554 H 0.72101 0.7766 0.28703 0.0
H1555 H 0.72146 0.79033 0.26621 0.0
H1556 H 0.72088 0.77091 0.25951 0.0
H1557 H 0.66565 0.73339 0.21675 0.0
H1558 H 0.66825 0.75621 0.1936 0.0
H1559 H 0.69825 0.79288 0.24204 0.0
C1560 C 0.69018 0.74166 0.29478 0.0
C1561 C 0.68076 0.72394 0.29657 0.0
C1562 C 0.67128 0.71418 0.27896 0.0
C1563 C 0.67108 0.7219 0.25981 0.0
C1564 C 0.68026 0.73941 0.25863 0.0
C1565 C 0.68954 0.7492 0.27567 0.0
C1566 C 0.69686 0.76778 0.27092 0.0
C1567 C 0.69021 0.77596 0.28671 0.0
C1568 C 0.7162 0.77694 0.27092 0.0
C1569 C 0.69004 0.76689 0.24869 0.0
C1570 C 0.68075 0.75042 0.24179 0.0
C1571 C 0.67287 0.74634 0.222 0.0
C1572 C 0.67431 0.75942 0.20903 0.0
C1573 C 0.68331 0.77641 0.21599 0.0
C1574 C 0.69146 0.78011 0.23603 0.0
H1575 H 0.28199 0.93192 0.29734 0.0
H1576 H 0.27084 0.97254 0.30361 0.0
H1577 H 0.25119 0.96098 0.27324 0.0
H1578 H 0.27993 0.92903 0.23949 0.0
H1579 H 0.27008 0.90639 0.23943 0.0
H1580 H 0.284 0.91842 0.26083 0.0
H1581 H 0.26049 0.90113 0.28827 0.0
H1582 H 0.24653 0.88903 0.26698 0.0
H1583 H 0.24033 0.8999 0.28566 0.0
H1584 H 0.23201 0.9444 0.2429 0.0
H1585 H 0.21415 0.92366 0.21573 0.0
H1586 H 0.23732 0.89349 0.23003 0.0
C1587 C 0.27557 0.93852 0.29222 0.0
C1588 C 0.27804 0.95321 0.30285 0.0
C1589 C 0.26919 0.96129 0.29575 0.0
C1590 C 0.25803 0.95484 0.27846 0.0
C1591 C 0.25583 0.94029 0.26845 0.0
C1592 C 0.26433 0.93221 0.2751 0.0
C1593 C 0.25916 0.91634 0.26227 0.0
C1594 C 0.27419 0.91763 0.24976 0.0
C1595 C 0.25115 0.90068 0.27665 0.0
C1596 C 0.24628 0.91665 0.24749 0.0
C1597 C 0.24464 0.93063 0.25119 0.0
C1598 C 0.23321 0.93342 0.23985 0.0
C1599 C 0.22305 0.92151 0.22453 0.0
C1600 C 0.22427 0.90689 0.22073 0.0
C1601 C 0.23623 0.90462 0.23227 0.0
H1602 H 0.65882 0.93566 0.29839 0.0
H1603 H 0.70878 0.9798 0.29678 0.0
H1604 H 0.71611 0.96771 0.26616 0.0
H1605 H 0.67166 0.90587 0.28703 0.0
H1606 H 0.65352 0.89255 0.27095 0.0
H1607 H 0.65192 0.90517 0.29181 0.0
H1608 H 0.64117 0.91884 0.26458 0.0
H1609 H 0.64275 0.90627 0.2436 0.0
H1610 H 0.65353 0.92887 0.24118 0.0
H1611 H 0.71825 0.95024 0.23637 0.0
H1612 H 0.71522 0.92868 0.21031 0.0
H1613 H 0.6641 0.89574 0.23226 0.0
C1614 C 0.67126 0.94291 0.29149 0.0
C1615 C 0.6832 0.95875 0.29998 0.0
C1616 C 0.69939 0.96767 0.29057 0.0
C1617 C 0.70367 0.96092 0.27313 0.0
C1618 C 0.69163 0.94521 0.2653 0.0
C1619 C 0.67576 0.93633 0.27419 0.0
C1620 C 0.66534 0.91942 0.26338 0.0
C1621 C 0.66032 0.9049 0.27924 0.0
C1622 C 0.64978 0.91829 0.25254 0.0
C1623 C 0.67787 0.92009 0.24712 0.0
C1624 C 0.69292 0.93511 0.24838 0.0
C1625 C 0.70651 0.93845 0.23524 0.0
C1626 C 0.70469 0.92607 0.22057 0.0
C1627 C 0.68943 0.91047 0.21918 0.0
C1628 C 0.67584 0.9076 0.23261 0.0
H1629 H 0.05253 0.7392 0.30266 0.0
H1630 H 0.06873 0.70201 0.3003 0.0
H1631 H 0.08562 0.71564 0.26856 0.0
H1632 H 0.05029 0.74293 0.244 0.0
H1633 H 0.05799 0.76526 0.24516 0.0
H1634 H 0.04604 0.75195 0.26707 0.0
H1635 H 0.07036 0.77059 0.29284 0.0
H1636 H 0.08243 0.78386 0.27101 0.0
H1637 H 0.09122 0.77413 0.28754 0.0
H1638 H 0.10324 0.73469 0.24003 0.0
H1639 H 0.11908 0.75702 0.21419 0.0
H1640 H 0.09003 0.78098 0.23177 0.0
C1641 C 0.05941 0.73378 0.29525 0.0
C1642 C 0.05928 0.71952 0.30414 0.0
C1643 C 0.06857 0.71291 0.29397 0.0
C1644 C 0.07824 0.72055 0.27584 0.0
C1645 C 0.0784 0.73473 0.26778 0.0
C1646 C 0.06908 0.7412 0.27688 0.0
C1647 C 0.07197 0.75689 0.26511 0.0
C1648 C 0.0556 0.75408 0.25471 0.0
C1649 C 0.07944 0.77227 0.28002 0.0
C1650 C 0.08469 0.7584 0.24845 0.0
C1651 C 0.08816 0.74545 0.25037 0.0
C1652 C 0.1003 0.74467 0.23792 0.0
C1653 C 0.10916 0.75743 0.22303 0.0
C1654 C 0.10572 0.77081 0.2203 0.0
C1655 C 0.09314 0.7711 0.23324 0.0
H1656 H 0.285 0.34741 0.2881 0.0
H1657 H 0.26865 0.29461 0.29827 0.0
H1658 H 0.24839 0.28695 0.26863 0.0
H1659 H 0.24525 0.34235 0.2775 0.0
H1660 H 0.25244 0.35841 0.2573 0.0
H1661 H 0.26654 0.35978 0.2781 0.0
H1662 H 0.28796 0.36139 0.24989 0.0
H1663 H 0.27395 0.36012 0.22896 0.0
H1664 H 0.28128 0.34518 0.22987 0.0
H1665 H 0.22823 0.28504 0.23971 0.0
H1666 H 0.2104 0.28901 0.21367 0.0
H1667 H 0.24091 0.34319 0.22162 0.0
C1668 C 0.27733 0.33423 0.28398 0.0
C1669 C 0.27844 0.32161 0.29557 0.0
C1670 C 0.2681 0.30452 0.28961 0.0
C1671 C 0.25653 0.30005 0.27278 0.0
C1672 C 0.25559 0.31281 0.26194 0.0
C1673 C 0.26582 0.32957 0.2672 0.0
C1674 C 0.26196 0.34086 0.25363 0.0
C1675 C 0.2562 0.35093 0.26746 0.0
C1676 C 0.27719 0.35258 0.23976 0.0
C1677 C 0.24766 0.32782 0.24023 0.0
C1678 C 0.24421 0.31172 0.24515 0.0
C1679 C 0.231 0.29761 0.23551 0.0
C1680 C 0.22099 0.30002 0.2206 0.0
C1681 C 0.22421 0.31643 0.21541 0.0
C1682 C 0.23793 0.33046 0.22526 0.0
H1683 H 0.28171 0.35568 0.39976 0.0
H1684 H 0.2913 0.31625 0.42098 0.0
H1685 H 0.27723 0.31464 0.45516 0.0
H1686 H 0.2862 0.37613 0.45148 0.0
H1687 H 0.26902 0.37996 0.44668 0.0
H1688 H 0.28128 0.37922 0.42468 0.0
H1689 H 0.25409 0.35603 0.40671 0.0
H1690 H 0.24177 0.35671 0.42862 0.0
H1691 H 0.24043 0.33707 0.42124 0.0
H1692 H 0.2616 0.31682 0.48667 0.0
H1693 H 0.24386 0.32123 0.5124 0.0
H1694 H 0.24229 0.35759 0.46956 0.0
C1695 C 0.28109 0.34694 0.41178 0.0
C1696 C 0.28775 0.33621 0.40785 0.0
C1697 C 0.28632 0.32461 0.42371 0.0
C1698 C 0.27842 0.32365 0.4432 0.0
C1699 C 0.2718 0.33424 0.44651 0.0
C1700 C 0.27291 0.34557 0.4312 0.0
C1701 C 0.2636 0.35456 0.43817 0.0
C1702 C 0.27575 0.3736 0.44038 0.0
C1703 C 0.24911 0.35086 0.42277 0.0
C1704 C 0.25701 0.34644 0.4597 0.0
C1705 C 0.26208 0.33493 0.46431 0.0
C1706 C 0.25748 0.32575 0.48319 0.0
C1707 C 0.24725 0.32825 0.49765 0.0
C1708 C 0.24147 0.33967 0.49308 0.0
C1709 C 0.24661 0.34895 0.47383 0.0
H1710 H 0.6456 0.93017 0.40717 0.0
H1711 H 0.69274 0.97543 0.42202 0.0
H1712 H 0.69539 0.96209 0.45457 0.0
H1713 H 0.63098 0.91849 0.46322 0.0
H1714 H 0.62225 0.89631 0.45816 0.0
H1715 H 0.62284 0.91001 0.4372 0.0
H1716 H 0.6391 0.89996 0.41316 0.0
H1717 H 0.6386 0.88629 0.43402 0.0
H1718 H 0.65846 0.90171 0.42267 0.0
H1719 H 0.69483 0.94327 0.48312 0.0
H1720 H 0.69065 0.91988 0.50657 0.0
H1721 H 0.6438 0.88657 0.47431 0.0
C1722 C 0.65626 0.93738 0.41756 0.0
C1723 C 0.66893 0.95388 0.41205 0.0
C1724 C 0.68287 0.96278 0.42584 0.0
C1725 C 0.68448 0.95534 0.44445 0.0
C1726 C 0.67202 0.93896 0.44918 0.0
C1727 C 0.65812 0.93007 0.43625 0.0
C1728 C 0.64723 0.9122 0.44433 0.0
C1729 C 0.62979 0.90907 0.45113 0.0
C1730 C 0.64577 0.89928 0.42755 0.0
C1731 C 0.65744 0.91236 0.46343 0.0
C1732 C 0.67162 0.928 0.46598 0.0
C1733 C 0.68364 0.93104 0.48153 0.0
C1734 C 0.68121 0.91771 0.49471 0.0
C1735 C 0.66686 0.90155 0.49232 0.0
C1736 C 0.6547 0.89892 0.47669 0.0
H1737 H 0.05949 0.73133 0.42607 0.0
H1738 H 0.0835 0.7028 0.40701 0.0
H1739 H 0.10529 0.71741 0.43454 0.0
H1740 H 0.09615 0.7698 0.43547 0.0
H1741 H 0.08826 0.7754 0.45853 0.0
H1742 H 0.07387 0.76189 0.43841 0.0
H1743 H 0.05711 0.73909 0.46682 0.0
H1744 H 0.07136 0.75261 0.48709 0.0
H1745 H 0.06795 0.73161 0.48354 0.0
H1746 H 0.12613 0.73741 0.4614 0.0
H1747 H 0.14318 0.75944 0.48743 0.0
H1748 H 0.10424 0.77324 0.49125 0.0
C1749 C 0.0692 0.72798 0.42787 0.0
C1750 C 0.0698 0.71593 0.41434 0.0
C1751 C 0.08271 0.71191 0.41725 0.0
C1752 C 0.09518 0.72018 0.43281 0.0
C1753 C 0.0944 0.73223 0.44558 0.0
C1754 C 0.08158 0.73592 0.44352 0.0
C1755 C 0.08379 0.74958 0.45901 0.0
C1756 C 0.08563 0.76508 0.44714 0.0
C1757 C 0.06919 0.74281 0.47507 0.0
C1758 C 0.10012 0.75336 0.46968 0.0
C1759 C 0.10604 0.74323 0.4617 0.0
C1760 C 0.12142 0.74513 0.46813 0.0
C1761 C 0.13098 0.75767 0.48313 0.0
C1762 C 0.12511 0.76813 0.49183 0.0
C1763 C 0.10932 0.7657 0.48499 0.0
H1764 H 0.3182 0.05417 0.74523 0.0
H1765 H 0.37225 0.07456 0.7402 0.0
H1766 H 0.37674 0.09367 0.77003 0.0
H1767 H 0.31968 0.09281 0.75735 0.0
H1768 H 0.30268 0.08399 0.77636 0.0
H1769 H 0.3033 0.0711 0.7551 0.0
H1770 H 0.30189 0.04938 0.78252 0.0
H1771 H 0.30116 0.06215 0.80388 0.0
H1772 H 0.31719 0.05625 0.80367 0.0
H1773 H 0.3759 0.11201 0.79818 0.0
H1774 H 0.36973 0.12758 0.82503 0.0
H1775 H 0.31609 0.0947 0.81436 0.0
C1776 C 0.33096 0.06253 0.75056 0.0
C1777 C 0.34486 0.06282 0.74024 0.0
C1778 C 0.36136 0.07403 0.74772 0.0
C1779 C 0.36407 0.08498 0.7647 0.0
C1780 C 0.35019 0.08456 0.77427 0.0
C1781 C 0.33393 0.07356 0.7677 0.0
C1782 C 0.32133 0.07598 0.78077 0.0
C1783 C 0.31115 0.08129 0.76654 0.0
C1784 C 0.30971 0.05999 0.79346 0.0
C1785 C 0.33312 0.09024 0.79541 0.0
C1786 C 0.34968 0.09494 0.79127 0.0
C1787 C 0.36296 0.10823 0.80191 0.0
C1788 C 0.35927 0.11692 0.81735 0.0
C1789 C 0.34237 0.11223 0.82237 0.0
C1790 C 0.32914 0.09867 0.81107 0.0
H1791 H 0.93504 0.27648 0.74079 0.0
H1792 H 0.98517 0.28969 0.76199 0.0
H1793 H 0.97313 0.27367 0.79525 0.0
H1794 H 0.91764 0.27756 0.79239 0.0
H1795 H 0.89736 0.25954 0.78668 0.0
H1796 H 0.91007 0.27306 0.76537 0.0
H1797 H 0.90855 0.24739 0.74584 0.0
H1798 H 0.89582 0.2338 0.76706 0.0
H1799 H 0.91507 0.23434 0.75956 0.0
H1800 H 0.95538 0.25601 0.82623 0.0
H1801 H 0.93348 0.2367 0.85117 0.0
H1802 H 0.89491 0.23317 0.80786 0.0
C1803 C 0.94352 0.27621 0.75255 0.0
C1804 C 0.96107 0.28449 0.74892 0.0
C1805 C 0.9717 0.28349 0.7645 0.0
C1806 C 0.96498 0.27447 0.78345 0.0
C1807 C 0.94759 0.26635 0.78646 0.0
C1808 C 0.93701 0.26702 0.77134 0.0
C1809 C 0.91872 0.25636 0.77779 0.0
C1810 C 0.91047 0.26728 0.78073 0.0
C1811 C 0.90897 0.24213 0.7616 0.0
C1812 C 0.92064 0.24952 0.79887 0.0
C1813 C 0.93738 0.25559 0.80374 0.0
C1814 C 0.94223 0.25108 0.82248 0.0
C1815 C 0.92963 0.23995 0.83649 0.0
C1816 C 0.91232 0.23319 0.83159 0.0
C1817 C 0.90792 0.23821 0.81246 0.0
H1818 H 0.72027 0.65748 0.74829 0.0
H1819 H 0.74166 0.71087 0.7357 0.0
H1820 H 0.76112 0.71741 0.76605 0.0
H1821 H 0.72344 0.66057 0.80655 0.0
H1822 H 0.72884 0.64422 0.80853 0.0
H1823 H 0.71566 0.64389 0.78707 0.0
H1824 H 0.73633 0.64287 0.75971 0.0
H1825 H 0.74958 0.64325 0.78105 0.0
H1826 H 0.75823 0.65895 0.76039 0.0
H1827 H 0.77965 0.71795 0.7963 0.0
H1828 H 0.79587 0.71246 0.82332 0.0
H1829 H 0.76195 0.65871 0.81619 0.0
C1830 C 0.72885 0.67058 0.75206 0.0
C1831 C 0.72937 0.68366 0.7396 0.0
C1832 C 0.74096 0.70061 0.74502 0.0
C1833 C 0.75205 0.70445 0.76226 0.0
C1834 C 0.75136 0.69121 0.77399 0.0
C1835 C 0.74 0.67462 0.76914 0.0
C1836 C 0.74236 0.66267 0.78344 0.0
C1837 C 0.72664 0.65223 0.79721 0.0
C1838 C 0.7469 0.65127 0.77036 0.0
C1839 C 0.75707 0.67512 0.79681 0.0
C1840 C 0.762 0.69152 0.79129 0.0
C1841 C 0.77576 0.70515 0.80091 0.0
C1842 C 0.78485 0.7019 0.81635 0.0
C1843 C 0.7802 0.68515 0.82197 0.0
C1844 C 0.76594 0.67166 0.8122 0.0
H1845 H 0.73779 0.68408 0.62583 0.0
H1846 H 0.70074 0.63112 0.63302 0.0
H1847 H 0.71398 0.62421 0.6033 0.0
H1848 H 0.74145 0.68412 0.56786 0.0
H1849 H 0.7638 0.69862 0.56827 0.0
H1850 H 0.75058 0.69945 0.58894 0.0
H1851 H 0.76902 0.69605 0.61751 0.0
H1852 H 0.78226 0.69516 0.59696 0.0
H1853 H 0.7724 0.67831 0.61603 0.0
H1854 H 0.73224 0.62302 0.57377 0.0
H1855 H 0.75445 0.62756 0.54788 0.0
H1856 H 0.77956 0.68126 0.56042 0.0
C1857 C 0.73227 0.67103 0.62099 0.0
C1858 C 0.71814 0.65815 0.63172 0.0
C1859 C 0.71152 0.64122 0.62504 0.0
C1860 C 0.71893 0.63718 0.60813 0.0
C1861 C 0.73297 0.65019 0.59807 0.0
C1862 C 0.73957 0.66677 0.60428 0.0
C1863 C 0.75526 0.67832 0.5917 0.0
C1864 C 0.75261 0.69087 0.5784 0.0
C1865 C 0.77064 0.68749 0.60643 0.0
C1866 C 0.75664 0.66563 0.57764 0.0
C1867 C 0.74358 0.64948 0.58137 0.0
C1868 C 0.74244 0.63563 0.57061 0.0
C1869 C 0.75508 0.63834 0.55584 0.0
C1870 C 0.76875 0.65476 0.55208 0.0
C1871 C 0.76935 0.66854 0.56302 0.0
H1872 H 0.32478 0.05715 0.6233 0.0
H1873 H 0.37736 0.07127 0.63005 0.0
H1874 H 0.38474 0.09118 0.60025 0.0
H1875 H 0.32539 0.06011 0.56456 0.0
H1876 H 0.31119 0.06835 0.56433 0.0
H1877 H 0.30983 0.05431 0.58527 0.0
H1878 H 0.31321 0.0765 0.61339 0.0
H1879 H 0.31473 0.09066 0.59257 0.0
H1880 H 0.33124 0.09742 0.61211 0.0
H1881 H 0.3869 0.11168 0.57257 0.0
H1882 H 0.38354 0.12995 0.54694 0.0
H1883 H 0.32926 0.10117 0.5558 0.0
C1884 C 0.33781 0.06424 0.61831 0.0
C1885 C 0.35048 0.06263 0.62908 0.0
C1886 C 0.3674 0.0722 0.62205 0.0
C1887 C 0.37174 0.08359 0.60514 0.0
C1888 C 0.35901 0.08512 0.59518 0.0
C1889 C 0.34236 0.07555 0.60126 0.0
C1890 C 0.33121 0.07995 0.58815 0.0
C1891 C 0.31866 0.06478 0.57478 0.0
C1892 C 0.32207 0.08652 0.60241 0.0
C1893 C 0.34427 0.09381 0.57419 0.0
C1894 C 0.36021 0.09657 0.57852 0.0
C1895 C 0.37443 0.10938 0.56865 0.0
C1896 C 0.37234 0.11964 0.55391 0.0
C1897 C 0.35609 0.11697 0.54885 0.0
C1898 C 0.34189 0.10373 0.55918 0.0
H1899 H 0.93944 0.29054 0.63126 0.0
H1900 H 0.9727 0.26969 0.63647 0.0
H1901 H 0.95834 0.25089 0.60622 0.0
H1902 H 0.90249 0.25222 0.61922 0.0
H1903 H 0.89431 0.26112 0.60038 0.0
H1904 H 0.90789 0.27395 0.62156 0.0
H1905 H 0.92815 0.29563 0.59401 0.0
H1906 H 0.91457 0.2829 0.57273 0.0
H1907 H 0.93648 0.28871 0.57273 0.0
H1908 H 0.93928 0.23285 0.57746 0.0
H1909 H 0.91702 0.21708 0.5512 0.0
H1910 H 0.89657 0.25015 0.56293 0.0
C1911 C 0.94385 0.28218 0.62585 0.0
C1912 C 0.95724 0.28164 0.63633 0.0
C1913 C 0.96249 0.27038 0.62881 0.0
C1914 C 0.95443 0.25964 0.61158 0.0
C1915 C 0.94115 0.26031 0.60185 0.0
C1916 C 0.93593 0.27133 0.60857 0.0
C1917 C 0.92092 0.269 0.59569 0.0
C1918 C 0.90549 0.26376 0.61007 0.0
C1919 C 0.92529 0.28501 0.58304 0.0
C1920 C 0.91837 0.25474 0.58101 0.0
C1921 C 0.93024 0.24999 0.58482 0.0
C1922 C 0.93008 0.23663 0.57404 0.0
C1923 C 0.9174 0.22782 0.55896 0.0
C1924 C 0.90504 0.23241 0.55462 0.0
C1925 C 0.90571 0.24619 0.5658 0.0
H1926 H 0.36869 0.29499 0.62857 0.0
H1927 H 0.31443 0.27362 0.63212 0.0
H1928 H 0.31083 0.25566 0.60139 0.0
H1929 H 0.37092 0.29443 0.56975 0.0
H1930 H 0.38708 0.2887 0.56961 0.0
H1931 H 0.38583 0.30092 0.59132 0.0
H1932 H 0.38412 0.27867 0.61809 0.0
H1933 H 0.38525 0.26633 0.59647 0.0
H1934 H 0.36791 0.25697 0.61496 0.0
H1935 H 0.31236 0.23834 0.57281 0.0
H1936 H 0.31906 0.22323 0.54596 0.0
H1937 H 0.37249 0.25612 0.55817 0.0
C1938 C 0.3561 0.28671 0.62266 0.0
C1939 C 0.34185 0.28574 0.63291 0.0
C1940 C 0.32557 0.2746 0.62475 0.0
C1941 C 0.32335 0.26432 0.6072 0.0
C1942 C 0.33752 0.26531 0.59776 0.0
C1943 C 0.35361 0.27626 0.60497 0.0
C1944 C 0.36652 0.27424 0.59201 0.0
C1945 C 0.37828 0.29054 0.57996 0.0
C1946 C 0.37654 0.26872 0.60623 0.0
C1947 C 0.35509 0.26026 0.57676 0.0
C1948 C 0.33843 0.2554 0.58047 0.0
C1949 C 0.32538 0.24226 0.56937 0.0
C1950 C 0.32938 0.23383 0.55392 0.0
C1951 C 0.34637 0.23864 0.54934 0.0
C1952 C 0.35938 0.25209 0.56107 0.0
H1953 H 0.73661 0.05473 0.62649 0.0
H1954 H 0.70502 0.07621 0.64174 0.0
H1955 H 0.71751 0.09603 0.61173 0.0
H1956 H 0.77297 0.09277 0.61419 0.0
H1957 H 0.77962 0.08438 0.59268 0.0
H1958 H 0.7671 0.07083 0.61403 0.0
H1959 H 0.74493 0.05063 0.58685 0.0
H1960 H 0.75743 0.0641 0.56537 0.0
H1961 H 0.73576 0.05876 0.56831 0.0
H1962 H 0.73505 0.11499 0.58182 0.0
H1963 H 0.75623 0.13159 0.55451 0.0
H1964 H 0.77594 0.09732 0.55827 0.0
C1965 C 0.73209 0.0634 0.62335 0.0
C1966 C 0.71977 0.06384 0.6365 0.0
C1967 C 0.7144 0.07557 0.63191 0.0
C1968 C 0.7214 0.08687 0.61486 0.0
C1969 C 0.73371 0.08626 0.60246 0.0
C1970 C 0.73895 0.07477 0.60643 0.0
C1971 C 0.75299 0.0773 0.59144 0.0
C1972 C 0.76912 0.08158 0.60383 0.0
C1973 C 0.74744 0.06177 0.57714 0.0
C1974 C 0.7551 0.09225 0.57873 0.0
C1975 C 0.74377 0.09714 0.58519 0.0
C1976 C 0.74381 0.11111 0.57641 0.0
C1977 C 0.75586 0.12042 0.56078 0.0
C1978 C 0.76776 0.11577 0.55406 0.0
C1979 C 0.76713 0.10132 0.56307 0.0
H1980 H 0.9503 0.68268 0.63197 0.0
H1981 H 0.94194 0.63171 0.63246 0.0
H1982 H 0.9235 0.62489 0.60089 0.0
H1983 H 0.90843 0.67156 0.61866 0.0
H1984 H 0.91455 0.68984 0.60226 0.0
H1985 H 0.92781 0.69082 0.62394 0.0
H1986 H 0.9529 0.70045 0.59786 0.0
H1987 H 0.93968 0.69943 0.57605 0.0
H1988 H 0.9507 0.68776 0.57481 0.0
H1989 H 0.90557 0.62372 0.56938 0.0
H1990 H 0.88857 0.62773 0.54204 0.0
H1991 H 0.90786 0.67913 0.56382 0.0
C1992 C 0.94475 0.67011 0.62536 0.0
C1993 C 0.94767 0.65775 0.63462 0.0
C1994 C 0.93992 0.64139 0.62562 0.0
C1995 C 0.92947 0.63743 0.60765 0.0
C1996 C 0.92685 0.64993 0.59897 0.0
C1997 C 0.93421 0.66591 0.60764 0.0
C1998 C 0.92877 0.67688 0.59607 0.0
C1999 C 0.91933 0.6826 0.61113 0.0
C2000 C 0.94392 0.69202 0.58557 0.0
C2001 C 0.9171 0.66457 0.57956 0.0
C2002 C 0.91626 0.64914 0.58133 0.0
C2003 C 0.90611 0.63575 0.56792 0.0
C2004 C 0.89641 0.63813 0.5525 0.0
C2005 C 0.89677 0.65374 0.55073 0.0
C2006 C 0.90744 0.66712 0.56441 0.0
H2007 H 0.93994 0.65535 0.74849 0.0
H2008 H 0.97549 0.70886 0.74281 0.0
H2009 H 0.96171 0.71446 0.77304 0.0
H2010 H 0.90444 0.65924 0.75906 0.0
H2011 H 0.89504 0.64205 0.77771 0.0
H2012 H 0.90865 0.64206 0.75703 0.0
H2013 H 0.92757 0.63911 0.78529 0.0
H2014 H 0.91396 0.639 0.8061 0.0
H2015 H 0.93615 0.65415 0.80675 0.0
H2016 H 0.94289 0.71438 0.80239 0.0
H2017 H 0.92026 0.7087 0.82806 0.0
H2018 H 0.89705 0.65522 0.8146 0.0
C2019 C 0.94503 0.66823 0.7538 0.0
C2020 C 0.95888 0.68166 0.7433 0.0
C2021 C 0.96494 0.69835 0.7506 0.0
C2022 C 0.95721 0.70166 0.7678 0.0
C2023 C 0.94344 0.68815 0.77756 0.0
C2024 C 0.93742 0.67176 0.77085 0.0
C2025 C 0.92186 0.65959 0.78323 0.0
C2026 C 0.9066 0.65019 0.76837 0.0
C2027 C 0.92508 0.64723 0.79611 0.0
C2028 C 0.91986 0.67172 0.79769 0.0
C2029 C 0.93253 0.68811 0.79433 0.0
C2030 C 0.93302 0.70157 0.80532 0.0
C2031 C 0.92014 0.6982 0.81998 0.0
C2032 C 0.90688 0.6815 0.82347 0.0
C2033 C 0.90693 0.66813 0.81226 0.0
H2034 H 0.32251 0.26458 0.74055 0.0
H2035 H 0.36635 0.31219 0.75727 0.0
H2036 H 0.36937 0.29971 0.79069 0.0
H2037 H 0.30592 0.25062 0.79446 0.0
H2038 H 0.3 0.22902 0.78925 0.0
H2039 H 0.30007 0.24217 0.76792 0.0
H2040 H 0.32017 0.23562 0.74617 0.0
H2041 H 0.32015 0.22246 0.7674 0.0
H2042 H 0.33979 0.23963 0.75785 0.0
H2043 H 0.3679 0.28193 0.82188 0.0
H2044 H 0.36377 0.25967 0.8471 0.0
H2045 H 0.32276 0.22277 0.80801 0.0
C2046 C 0.33251 0.27242 0.75151 0.0
C2047 C 0.34405 0.2894 0.74661 0.0
C2048 C 0.35733 0.29918 0.7609 0.0
C2049 C 0.3591 0.29222 0.77991 0.0
C2050 C 0.34765 0.27537 0.78421 0.0
C2051 C 0.33473 0.26553 0.77031 0.0
C2052 C 0.32514 0.24738 0.77774 0.0
C2053 C 0.30669 0.24198 0.78264 0.0
C2054 C 0.3264 0.23558 0.76131 0.0
C2055 C 0.33473 0.24856 0.79791 0.0
C2056 C 0.34748 0.26486 0.80152 0.0
C2057 C 0.35804 0.26908 0.81913 0.0
C2058 C 0.35568 0.25626 0.83328 0.0
C2059 C 0.34306 0.23928 0.82959 0.0
C2060 C 0.33239 0.23554 0.81165 0.0
H2061 H 0.72616 0.06762 0.75345 0.0
H2062 H 0.74789 0.03637 0.73748 0.0
H2063 H 0.76859 0.04974 0.76657 0.0
H2064 H 0.76425 0.10463 0.7639 0.0
H2065 H 0.75615 0.11139 0.78561 0.0
H2066 H 0.74224 0.0984 0.76479 0.0
H2067 H 0.72289 0.07648 0.79276 0.0
H2068 H 0.7367 0.08946 0.81371 0.0
H2069 H 0.73169 0.06785 0.81112 0.0
H2070 H 0.78811 0.06798 0.79611 0.0
H2071 H 0.8047 0.08942 0.82328 0.0
H2072 H 0.76978 0.10833 0.8199 0.0
C2073 C 0.7351 0.06337 0.75619 0.0
C2074 C 0.73533 0.05087 0.74315 0.0
C2075 C 0.74739 0.04586 0.74726 0.0
C2076 C 0.7592 0.05338 0.76376 0.0
C2077 C 0.75875 0.06584 0.77607 0.0
C2078 C 0.74695 0.07073 0.77251 0.0
C2079 C 0.74954 0.08491 0.78729 0.0
C2080 C 0.75327 0.10077 0.77464 0.0
C2081 C 0.7343 0.07934 0.8021 0.0
C2082 C 0.76486 0.08748 0.79951 0.0
C2083 C 0.76993 0.0763 0.79295 0.0
C2084 C 0.78412 0.07667 0.80152 0.0
C2085 C 0.79343 0.08885 0.81705 0.0
C2086 C 0.78856 0.10058 0.82385 0.0
C2087 C 0.77395 0.09968 0.815 0.0
H2088 H 0.04281 0.33858 0.04245 0.0
H2089 H 0.07815 0.38817 0.01788 0.0
H2090 H 0.10168 0.38587 0.03297 0.0
H2091 H 0.0627 0.34307 0.0911 0.0
H2092 H 0.0589 0.32182 0.09272 0.0
H2093 H 0.04478 0.32619 0.0778 0.0
H2094 H 0.04946 0.3126 0.04421 0.0
H2095 H 0.06347 0.308 0.0591 0.0
H2096 H 0.07057 0.31993 0.03477 0.0
H2097 H 0.121 0.37998 0.05425 0.0
H2098 H 0.13525 0.36979 0.07835 0.0
H2099 H 0.08796 0.32364 0.08871 0.0
C2100 C 0.05553 0.34874 0.03973 0.0
C2101 C 0.05862 0.36354 0.02886 0.0
C2102 C 0.07544 0.37669 0.02605 0.0
C2103 C 0.08892 0.37551 0.03458 0.0
C2104 C 0.08544 0.36104 0.04579 0.0
C2105 C 0.0692 0.34776 0.04816 0.0
C2106 C 0.06893 0.33405 0.062 0.0
C2107 C 0.05819 0.33112 0.08209 0.0
C2108 C 0.06274 0.31767 0.04925 0.0
C2109 C 0.08748 0.34192 0.06747 0.0
C2110 C 0.09675 0.35748 0.05788 0.0
C2111 C 0.11393 0.3677 0.06157 0.0
C2112 C 0.12189 0.36187 0.07538 0.0
C2113 C 0.11271 0.34593 0.08527 0.0
C2114 C 0.0953 0.33577 0.08108 0.0
H2115 H 0.63048 0.69225 0.05811 0.0
H2116 H 0.67877 0.70428 0.03092 0.0
H2117 H 0.69114 0.73335 0.04484 0.0
H2118 H 0.63355 0.73288 0.04869 0.0
H2119 H 0.6235 0.73249 0.07354 0.0
H2120 H 0.61831 0.71305 0.06027 0.0
H2121 H 0.62603 0.70251 0.09436 0.0
H2122 H 0.63129 0.72192 0.1077 0.0
H2123 H 0.64659 0.71508 0.10601 0.0
H2124 H 0.69841 0.76087 0.06304 0.0
H2125 H 0.70003 0.78453 0.08382 0.0
H2126 H 0.64711 0.75396 0.10001 0.0
C2127 C 0.64361 0.70104 0.05479 0.0
C2128 C 0.65363 0.69601 0.04327 0.0
C2129 C 0.67082 0.70786 0.0396 0.0
C2130 C 0.67795 0.7244 0.04745 0.0
C2131 C 0.66774 0.72886 0.05899 0.0
C2132 C 0.65093 0.71752 0.06262 0.0
C2133 C 0.64283 0.72521 0.07621 0.0
C2134 C 0.62871 0.72595 0.06394 0.0
C2135 C 0.63631 0.71561 0.09732 0.0
C2136 C 0.65773 0.74265 0.0798 0.0
C2137 C 0.67197 0.74455 0.06968 0.0
C2138 C 0.68732 0.75951 0.07101 0.0
C2139 C 0.68815 0.77285 0.08301 0.0
C2140 C 0.67372 0.77116 0.09364 0.0
C2141 C 0.65833 0.75581 0.09187 0.0
H2142 H 0.3137 0.93921 0.06022 0.0
H2143 H 0.30382 0.97808 0.03731 0.0
H2144 H 0.27487 0.96219 0.05168 0.0
H2145 H 0.27236 0.9036 0.04966 0.0
H2146 H 0.27218 0.89254 0.07343 0.0
H2147 H 0.29186 0.90669 0.06065 0.0
H2148 H 0.30303 0.92325 0.09597 0.0
H2149 H 0.28339 0.90917 0.10885 0.0
H2150 H 0.29119 0.93153 0.10909 0.0
H2151 H 0.24703 0.94212 0.06922 0.0
H2152 H 0.22267 0.91964 0.08845 0.0
H2153 H 0.25127 0.89447 0.10083 0.0
C2154 C 0.30542 0.94433 0.05804 0.0
C2155 C 0.31102 0.95987 0.04753 0.0
C2156 C 0.29981 0.96619 0.04524 0.0
C2157 C 0.28334 0.95725 0.05336 0.0
C2158 C 0.27828 0.94203 0.06378 0.0
C2159 C 0.289 0.93564 0.06614 0.0
C2160 C 0.28066 0.91925 0.07846 0.0
C2161 C 0.27918 0.90466 0.06473 0.0
C2162 C 0.29013 0.9209 0.09933 0.0
C2163 C 0.26356 0.91741 0.0827 0.0
C2164 C 0.2624 0.93065 0.07407 0.0
C2165 C 0.24782 0.93172 0.07607 0.0
C2166 C 0.23408 0.91893 0.08718 0.0
C2167 C 0.23498 0.90524 0.09624 0.0
C2168 C 0.25 0.90458 0.09388 0.0
H2169 H 0.37228 0.06769 1.00589 0.0
H2170 H 0.3294 0.02054 0.9855 0.0
H2171 H 0.31787 0.03627 0.96668 0.0
H2172 H 0.34802 0.08965 0.01461 0.0
H2173 H 0.36515 0.10956 1.0057 0.0
H2174 H 0.36947 0.09449 0.01835 0.0
H2175 H 0.38718 0.09545 0.98563 0.0
H2176 H 0.38275 0.11034 0.97278 0.0
H2177 H 0.37771 0.09091 0.95956 0.0
H2178 H 0.31323 0.05726 0.94618 0.0
H2179 H 0.31354 0.08154 0.92944 0.0
H2180 H 0.35738 0.11514 0.96738 0.0
C2181 C 0.36033 0.0607 0.99774 0.0
C2182 C 0.35172 0.04291 0.99708 0.0
C2183 C 0.33612 0.03417 0.98631 0.0
C2184 C 0.32952 0.04299 0.9755 0.0
C2185 C 0.33849 0.06055 0.97609 0.0
C2186 C 0.35334 0.0693 0.98736 0.0
C2187 C 0.36047 0.08814 0.98551 0.0
C2188 C 0.36079 0.09592 0.00734 0.0
C2189 C 0.37807 0.0967 0.97526 0.0
C2190 C 0.3476 0.08863 0.97086 0.0
C2191 C 0.33511 0.0726 0.96548 0.0
C2192 C 0.32265 0.06989 0.9508 0.0
C2193 C 0.32289 0.08391 0.94148 0.0
C2194 C 0.3353 0.10061 0.94714 0.0
C2195 C 0.34771 0.10278 0.96228 0.0
H2196 H 0.94073 0.30745 0.00801 0.0
H2197 H 0.98599 0.30362 0.01057 0.0
H2198 H 0.97058 0.27545 0.99383 0.0
H2199 H 0.9102 0.26261 0.01747 0.0
H2200 H 0.89518 0.26268 0.99905 0.0
H2201 H 0.90928 0.2816 0.01337 0.0
H2202 H 0.91967 0.29763 0.97764 0.0
H2203 H 0.90575 0.27876 0.96321 0.0
H2204 H 0.92798 0.28977 0.95744 0.0
H2205 H 0.95068 0.24856 0.97426 0.0
H2206 H 0.92808 0.2253 0.95364 0.0
H2207 H 0.896 0.24701 0.96359 0.0
C2208 C 0.94732 0.30054 1.00554 0.0
C2209 C 0.96455 0.3077 0.01082 0.0
C2210 C 0.97278 0.29836 0.00684 0.0
C2211 C 0.96412 0.28235 0.99731 0.0
C2212 C 0.94725 0.27585 0.99184 0.0
C2213 C 0.93892 0.28464 0.99591 0.0
C2214 C 0.92112 0.2754 0.98725 0.0
C2215 C 0.90818 0.27026 1.00537 0.0
C2216 C 0.91849 0.28603 0.97039 0.0
C2217 C 0.9208 0.26017 0.97734 0.0
C2218 C 0.93592 0.26056 0.98032 0.0
C2219 C 0.93874 0.24805 0.97204 0.0
C2220 C 0.92578 0.23484 0.96041 0.0
C2221 C 0.91021 0.23426 0.957 0.0
C2222 C 0.90776 0.24712 0.96574 0.0
H2223 H 0.69029 0.62416 0.98739 0.0
H2224 H 0.6998 0.67392 1.00534 0.0
H2225 H 0.72833 0.68645 0.98977 0.0
H2226 H 0.73253 0.63163 0.99751 0.0
H2227 H 0.73221 0.61924 0.975 0.0
H2228 H 0.71287 0.61422 0.9884 0.0
H2229 H 0.70021 0.61667 0.95263 0.0
H2230 H 0.71954 0.62179 0.93916 0.0
H2231 H 0.71114 0.63582 0.9374 0.0
H2232 H 0.75552 0.69361 0.971 0.0
H2233 H 0.77925 0.69484 0.95084 0.0
H2234 H 0.75198 0.64033 0.94548 0.0
C2235 C 0.69841 0.63768 0.98826 0.0
C2236 C 0.6928 0.64805 0.99768 0.0
C2237 C 0.70381 0.66571 0.99828 0.0
C2238 C 0.72004 0.67294 0.98947 0.0
C2239 C 0.72509 0.66237 0.9801 0.0
C2240 C 0.71461 0.64511 0.97951 0.0
C2241 C 0.72291 0.63657 0.96806 0.0
C2242 C 0.72527 0.62471 0.98314 0.0
C2243 C 0.71285 0.62716 0.94813 0.0
C2244 C 0.73965 0.65172 0.96215 0.0
C2245 C 0.74069 0.66648 0.96929 0.0
C2246 C 0.75488 0.68211 0.96548 0.0
C2247 C 0.76834 0.68267 0.95409 0.0
C2248 C 0.76757 0.66769 0.94659 0.0
C2249 C 0.75296 0.65204 0.95077 0.0
H2250 H 0.96059 0.65915 0.99054 0.0
H2251 H 0.9305 0.60487 0.99769 0.0
H2252 H 0.90619 0.60531 0.98194 0.0
H2253 H 0.92648 0.66822 1.00181 0.0
H2254 H 0.9336 0.68469 0.98216 0.0
H2255 H 0.94855 0.68044 0.99532 0.0
H2256 H 0.95902 0.6763 0.9587 0.0
H2257 H 0.94409 0.68048 0.94546 0.0
H2258 H 0.94412 0.66116 0.94019 0.0
H2259 H 0.88563 0.61104 0.96371 0.0
H2260 H 0.8697 0.62194 0.94435 0.0
H2261 H 0.91254 0.67258 0.94856 0.0
C2262 C 0.94881 0.64741 0.98906 0.0
C2263 C 0.94747 0.63197 0.99542 0.0
C2264 C 0.93188 0.61685 0.99296 0.0
C2265 C 0.91795 0.61696 0.98405 0.0
C2266 C 0.91973 0.63229 0.97767 0.0
C2267 C 0.9347 0.64727 0.9801 0.0
C2268 C 0.93327 0.66187 0.97107 0.0
C2269 C 0.93561 0.67456 0.98864 0.0
C2270 C 0.94587 0.67045 0.95277 0.0
C2271 C 0.91526 0.65269 0.96297 0.0
C2272 C 0.90771 0.63563 0.96705 0.0
C2273 C 0.89135 0.62438 0.96052 0.0
C2274 C 0.88244 0.63068 0.94941 0.0
C2275 C 0.88988 0.64809 0.9449 0.0
C2276 C 0.90647 0.65924 0.95199 0.0
H2277 H 0.34886 0.30699 0.99752 0.0
H2278 H 0.40345 0.33339 1.00109 0.0
H2279 H 0.40362 0.30898 0.98504 0.0
H2280 H 0.34262 0.26483 0.00934 0.0
H2281 H 0.32524 0.25438 0.9911 0.0
H2282 H 0.32922 0.27358 1.00406 0.0
H2283 H 0.33067 0.28696 0.96728 0.0
H2284 H 0.32686 0.26787 0.9542 0.0
H2285 H 0.34527 0.28761 0.94752 0.0
H2286 H 0.39833 0.28303 0.96601 0.0
H2287 H 0.38779 0.25605 0.94736 0.0
H2288 H 0.33639 0.24518 0.95746 0.0
C2289 C 0.36082 0.30752 0.99525 0.0
C2290 C 0.37615 0.32216 1.00062 0.0
C2291 C 0.39154 0.32237 0.99717 0.0
C2292 C 0.39178 0.30855 0.98802 0.0
C2293 C 0.37653 0.29449 0.9825 0.0
C2294 C 0.36131 0.29374 0.98617 0.0
C2295 C 0.34679 0.27714 0.97826 0.0
C2296 C 0.33529 0.26688 0.9968 0.0
C2297 C 0.33681 0.28008 0.96078 0.0
C2298 C 0.3563 0.26888 0.96929 0.0
C2299 C 0.37344 0.27916 0.97191 0.0
C2300 C 0.38491 0.2747 0.96422 0.0
C2301 C 0.37874 0.25922 0.95375 0.0
C2302 C 0.36119 0.24817 0.95117 0.0
C2303 C 0.34987 0.25322 0.95905 0.0
H2304 H 0.69851 0.06908 0.99127 0.0
H2305 H 0.70465 0.02582 1.00321 0.0
H2306 H 0.73329 0.04118 0.98781 0.0
H2307 H 0.71914 0.07991 0.94127 0.0
H2308 H 0.72885 0.10232 0.94532 0.0
H2309 H 0.70926 0.0883 0.95833 0.0
H2310 H 0.72258 0.10089 0.99499 0.0
H2311 H 0.7422 0.11503 0.98207 0.0
H2312 H 0.74166 0.10128 1.00289 0.0
H2313 H 0.76096 0.06102 0.96965 0.0
H2314 H 0.7853 0.08366 0.95055 0.0
H2315 H 0.76096 0.11391 0.95094 0.0
C2316 C 0.70592 0.06287 0.99088 0.0
C2317 C 0.69933 0.04625 0.99853 0.0
C2318 C 0.70943 0.03856 0.99752 0.0
C2319 C 0.72572 0.04718 0.98879 0.0
C2320 C 0.73173 0.06348 0.98116 0.0
C2321 C 0.72215 0.07126 0.98219 0.0
C2322 C 0.73131 0.08866 0.97238 0.0
C2323 C 0.72156 0.08986 0.95319 0.0
C2324 C 0.73464 0.10227 0.98908 0.0
C2325 C 0.74751 0.08943 0.96545 0.0
C2326 C 0.74756 0.07483 0.97072 0.0
C2327 C 0.76109 0.07256 0.96561 0.0
C2328 C 0.77491 0.08553 0.95484 0.0
C2329 C 0.77512 0.10062 0.94923 0.0
C2330 C 0.76118 0.1025 0.95475 0.0
H2331 H 0.66589 0.9682 0.0645 0.0
H2332 H 0.62654 0.93518 0.02086 0.0
H2333 H 0.63005 0.91134 0.03228 0.0
H2334 H 0.69228 0.94815 0.0608 0.0
H2335 H 0.69703 0.95052 0.08886 0.0
H2336 H 0.69312 0.96555 0.0753 0.0
H2337 H 0.66959 0.95995 0.10245 0.0
H2338 H 0.67338 0.94488 0.11602 0.0
H2339 H 0.65258 0.93872 0.10639 0.0
H2340 H 0.63681 0.89098 0.04919 0.0
H2341 H 0.64496 0.87463 0.07224 0.0
H2342 H 0.67822 0.92003 0.10769 0.0
C2343 C 0.65836 0.95602 0.05702 0.0
C2344 C 0.64616 0.9535 0.04153 0.0
C2345 C 0.63606 0.93732 0.03259 0.0
C2346 C 0.638 0.92375 0.03893 0.0
C2347 C 0.64992 0.92651 0.0545 0.0
C2348 C 0.65986 0.94219 0.06359 0.0
C2349 C 0.6705 0.94127 0.08147 0.0
C2350 C 0.68935 0.95201 0.07629 0.0
C2351 C 0.66625 0.94651 0.10284 0.0
C2352 C 0.66483 0.92262 0.08113 0.0
C2353 C 0.65315 0.91445 0.0652 0.0
C2354 C 0.64588 0.89722 0.0618 0.0
C2355 C 0.65049 0.88799 0.07517 0.0
C2356 C 0.66205 0.89591 0.0921 0.0
C2357 C 0.66945 0.91355 0.09486 0.0
H2358 H 0.06666 0.69147 0.05639 0.0
H2359 H 0.02632 0.70023 0.03671 0.0
H2360 H 0.04217 0.72922 0.05104 0.0
H2361 H 0.0755 0.71371 0.10543 0.0
H2362 H 0.09792 0.72203 0.10391 0.0
H2363 H 0.08379 0.70233 0.09117 0.0
H2364 H 0.09909 0.71398 0.05521 0.0
H2365 H 0.1133 0.73372 0.06785 0.0
H2366 H 0.10133 0.73334 0.04492 0.0
H2367 H 0.06224 0.75711 0.06858 0.0
H2368 H 0.08478 0.78152 0.08772 0.0
H2369 H 0.11157 0.75408 0.09658 0.0
C2370 C 0.0612 0.69951 0.05487 0.0
C2371 C 0.04525 0.69357 0.04532 0.0
C2372 C 0.03853 0.7045 0.04389 0.0
C2373 C 0.04745 0.72099 0.05199 0.0
C2374 C 0.06307 0.72638 0.06149 0.0
C2375 C 0.06989 0.71595 0.06293 0.0
C2376 C 0.08665 0.72458 0.07443 0.0
C2377 C 0.08591 0.7151 0.09495 0.0
C2378 C 0.10094 0.72652 0.05972 0.0
C2379 C 0.08819 0.74148 0.07933 0.0
C2380 C 0.07449 0.7423 0.0717 0.0
C2381 C 0.07302 0.75659 0.07462 0.0
C2382 C 0.08585 0.77036 0.08564 0.0
C2383 C 0.09999 0.76978 0.09371 0.0
C2384 C 0.10109 0.75509 0.09038 0.0
H2385 H 0.30724 0.37302 0.0421 0.0
H2386 H 0.30313 0.32405 0.03419 0.0
H2387 H 0.27492 0.31062 0.05099 0.0
H2388 H 0.28889 0.36541 0.09309 0.0
H2389 H 0.2782 0.37714 0.08872 0.0
H2390 H 0.29733 0.38268 0.0745 0.0
H2391 H 0.28205 0.37929 0.03859 0.0
H2392 H 0.26289 0.37386 0.05272 0.0
H2393 H 0.26307 0.3598 0.03275 0.0
H2394 H 0.24756 0.30279 0.07025 0.0
H2395 H 0.22368 0.30124 0.09056 0.0
H2396 H 0.24626 0.3555 0.08617 0.0
C2397 C 0.30032 0.35943 0.04355 0.0
C2398 C 0.30735 0.34956 0.03666 0.0
C2399 C 0.29796 0.33186 0.03923 0.0
C2400 C 0.28194 0.32413 0.04876 0.0
C2401 C 0.27551 0.33429 0.05568 0.0
C2402 C 0.28443 0.35156 0.05315 0.0
C2403 C 0.27517 0.35978 0.06284 0.0
C2404 C 0.28551 0.37196 0.08085 0.0
C2405 C 0.27052 0.36871 0.0457 0.0
C2406 C 0.25969 0.34446 0.07144 0.0
C2407 C 0.26002 0.32985 0.06702 0.0
C2408 C 0.24714 0.31415 0.07366 0.0
C2409 C 0.2336 0.31339 0.08513 0.0
C2410 C 0.23309 0.32824 0.08998 0.0
C2411 C 0.24634 0.34393 0.08292 0.0
H2412 H 0.71745 0.68162 0.38219 0.0
H2413 H 0.74742 0.73613 0.37851 0.0
H2414 H 0.77103 0.73528 0.39585 0.0
H2415 H 0.73137 0.67766 0.43328 0.0
H2416 H 0.7319 0.65868 0.42739 0.0
H2417 H 0.71756 0.66325 0.41332 0.0
H2418 H 0.73001 0.6608 0.37732 0.0
H2419 H 0.74435 0.65613 0.39129 0.0
H2420 H 0.75236 0.67341 0.37275 0.0
H2421 H 0.79072 0.72899 0.4156 0.0
H2422 H 0.80585 0.71737 0.43535 0.0
H2423 H 0.76365 0.66687 0.42628 0.0
C2424 C 0.72907 0.69334 0.38474 0.0
C2425 C 0.73057 0.70895 0.37892 0.0
C2426 C 0.74594 0.72402 0.38277 0.0
C2427 C 0.75946 0.72369 0.39263 0.0
C2428 C 0.75749 0.70817 0.3985 0.0
C2429 C 0.74277 0.69325 0.39459 0.0
C2430 C 0.74387 0.67835 0.40318 0.0
C2431 C 0.73037 0.66894 0.42031 0.0
C2432 C 0.74257 0.66647 0.38505 0.0
C2433 C 0.76141 0.6873 0.41276 0.0
C2434 C 0.76901 0.7045 0.40984 0.0
C2435 C 0.78495 0.71553 0.41788 0.0
C2436 C 0.7934 0.70882 0.4292 0.0
C2437 C 0.78593 0.69123 0.43238 0.0
C2438 C 0.76974 0.68035 0.4239 0.0
H2439 H 0.33059 0.04059 0.37264 0.0
H2440 H 0.27892 0.00888 0.39367 0.0
H2441 H 0.28009 0.0329 0.41264 0.0
H2442 H 0.34608 0.06472 0.42008 0.0
H2443 H 0.35946 0.08448 0.40695 0.0
H2444 H 0.35469 0.06498 0.39416 0.0
H2445 H 0.34332 0.07305 0.36118 0.0
H2446 H 0.34821 0.09265 0.3738 0.0
H2447 H 0.32712 0.07856 0.36458 0.0
H2448 H 0.28734 0.05919 0.43197 0.0
H2449 H 0.29925 0.08733 0.44768 0.0
H2450 H 0.34549 0.10351 0.41184 0.0
C2451 C 0.31948 0.03878 0.38104 0.0
C2452 C 0.30467 0.0228 0.38165 0.0
C2453 C 0.29041 0.02096 0.39286 0.0
C2454 C 0.29094 0.03453 0.40378 0.0
C2455 C 0.30575 0.05 0.40316 0.0
C2456 C 0.31969 0.05234 0.39184 0.0
C2457 C 0.33396 0.07042 0.39386 0.0
C2458 C 0.34946 0.07119 0.40439 0.0
C2459 C 0.33841 0.07919 0.37205 0.0
C2460 C 0.3259 0.0777 0.40836 0.0
C2461 C 0.30967 0.06561 0.4136 0.0
C2462 C 0.2999 0.06892 0.42759 0.0
C2463 C 0.3068 0.08509 0.4363 0.0
C2464 C 0.32326 0.09801 0.43075 0.0
C2465 C 0.3329 0.09409 0.41657 0.0
H2466 H 0.98351 0.27358 0.39116 0.0
H2467 H 0.97557 0.3149 0.37377 0.0
H2468 H 0.94672 0.2993 0.3885 0.0
H2469 H 0.94127 0.23976 0.37954 0.0
H2470 H 0.94079 0.22719 0.40185 0.0
H2471 H 0.96053 0.24136 0.38921 0.0
H2472 H 0.97266 0.25582 0.4255 0.0
H2473 H 0.95296 0.24173 0.43824 0.0
H2474 H 0.96172 0.26417 0.44061 0.0
H2475 H 0.91892 0.27939 0.4062 0.0
H2476 H 0.89439 0.25673 0.42502 0.0
H2477 H 0.92089 0.22878 0.43129 0.0
C2478 C 0.97568 0.27932 0.39026 0.0
C2479 C 0.9818 0.29546 0.38123 0.0
C2480 C 0.97116 0.30254 0.38055 0.0
C2481 C 0.95475 0.29377 0.38888 0.0
C2482 C 0.94917 0.27794 0.39784 0.0
C2483 C 0.95932 0.27077 0.39853 0.0
C2484 C 0.95049 0.25379 0.40947 0.0
C2485 C 0.94813 0.23969 0.3941 0.0
C2486 C 0.96003 0.25389 0.42965 0.0
C2487 C 0.93381 0.25253 0.41492 0.0
C2488 C 0.93327 0.26656 0.40806 0.0
C2489 C 0.91922 0.26834 0.41161 0.0
C2490 C 0.90538 0.25544 0.42244 0.0
C2491 C 0.90567 0.24093 0.42965 0.0
C2492 C 0.92013 0.23955 0.42573 0.0
H2493 H 0.04597 0.40012 0.32271 0.0
H2494 H 0.997 0.3591 0.34155 0.0
H2495 H 0.98355 0.37446 0.32669 0.0
H2496 H 0.0376 0.4342 0.33361 0.0
H2497 H 0.04943 0.44632 0.31087 0.0
H2498 H 0.05515 0.4324 0.32388 0.0
H2499 H 0.05248 0.41724 0.28801 0.0
H2500 H 0.04669 0.43106 0.27491 0.0
H2501 H 0.03305 0.40857 0.27328 0.0
H2502 H 0.97541 0.39402 0.30847 0.0
H2503 H 0.97331 0.41631 0.28901 0.0
H2504 H 0.02764 0.44412 0.28163 0.0
C2505 C 0.03242 0.39442 0.32394 0.0
C2506 C 0.02254 0.37842 0.33339 0.0
C2507 C 1.00484 0.37136 0.33447 0.0
C2508 C 0.99709 0.37999 0.32605 0.0
C2509 C 0.0072 0.39566 0.31662 0.0
C2510 C 0.0245 0.40282 0.31559 0.0
C2511 C 0.0325 0.41957 0.30412 0.0
C2512 C 0.04437 0.43397 0.31901 0.0
C2513 C 0.04172 0.41907 0.28388 0.0
C2514 C 0.01702 0.42071 0.29874 0.0
C2515 C 1.00254 0.40682 0.3061 0.0
C2516 C 0.98668 0.40496 0.30267 0.0
C2517 C 0.9856 0.41764 0.29147 0.0
C2518 C 1.0003 0.432 0.28379 0.0
C2519 C 0.01618 0.43346 0.28756 0.0
H2520 H 0.61092 0.64499 0.3226 0.0
H2521 H 0.64948 0.63418 0.34414 0.0
H2522 H 0.63299 0.60529 0.32956 0.0
H2523 H 0.57481 0.60371 0.33276 0.0
H2524 H 0.56383 0.60416 0.30921 0.0
H2525 H 0.57824 0.62353 0.32245 0.0
H2526 H 0.59479 0.63507 0.28721 0.0
H2527 H 0.58048 0.61573 0.27389 0.0
H2528 H 0.60277 0.6232 0.2735 0.0
H2529 H 0.61239 0.57768 0.31146 0.0
H2530 H 0.58966 0.55392 0.29162 0.0
H2531 H 0.56543 0.58361 0.28086 0.0
C2532 C 0.61583 0.63651 0.32454 0.0
C2533 C 0.63146 0.64183 0.33468 0.0
C2534 C 0.63751 0.63037 0.33655 0.0
C2535 C 0.62823 0.61394 0.3283 0.0
C2536 C 0.61296 0.60919 0.31816 0.0
C2537 C 0.60682 0.62017 0.31628 0.0
C2538 C 0.59044 0.61228 0.30398 0.0
C2539 C 0.57598 0.61083 0.31794 0.0
C2540 C 0.59224 0.62216 0.28343 0.0
C2541 C 0.58829 0.59514 0.29914 0.0
C2542 C 0.60135 0.59354 0.3075 0.0
C2543 C 0.60211 0.57883 0.30484 0.0
C2544 C 0.58919 0.56543 0.29339 0.0
C2545 C 0.57568 0.56681 0.28461 0.0
C2546 C 0.57536 0.58195 0.28761 0.0
H2547 H 0.35779 0.9574 0.31523 0.0
H2548 H 0.37052 0.00451 0.3466 0.0
H2549 H 0.39965 0.01706 0.33293 0.0
H2550 H 0.39759 0.95889 0.32337 0.0
H2551 H 0.39743 0.95021 0.29754 0.0
H2552 H 0.37786 0.94473 0.31065 0.0
H2553 H 0.36837 0.9549 0.27777 0.0
H2554 H 0.38789 0.96039 0.26456 0.0
H2555 H 0.38161 0.97601 0.26802 0.0
H2556 H 0.42741 0.02439 0.31577 0.0
H2557 H 0.4513 0.02648 0.29525 0.0
H2558 H 0.41981 0.97504 0.27321 0.0
C2559 C 0.36675 0.97031 0.31942 0.0
C2560 C 0.36193 0.97995 0.33214 0.0
C2561 C 0.37395 0.99689 0.33694 0.0
C2562 C 0.39053 0.0041 0.32928 0.0
C2563 C 0.39483 0.99426 0.31668 0.0
C2564 C 0.38325 0.97777 0.31168 0.0
C2565 C 0.39087 0.97013 0.2971 0.0
C2566 C 0.39094 0.9551 0.30781 0.0
C2567 C 0.38163 0.96506 0.27559 0.0
C2568 C 0.40855 0.98491 0.29469 0.0
C2569 C 0.41062 0.99866 0.30623 0.0
C2570 C 0.42589 0.01374 0.30655 0.0
C2571 C 0.43937 0.01483 0.29466 0.0
C2572 C 0.43751 1.00099 0.28235 0.0
C2573 C 0.42182 0.98583 0.28255 0.0
H2574 H 0.60733 0.96047 0.32096 0.0
H2575 H 0.64434 0.00947 0.34549 0.0
H2576 H 0.62777 0.02171 0.33094 0.0
H2577 H 0.60032 0.97543 0.2721 0.0
H2578 H 0.57813 0.96031 0.27107 0.0
H2579 H 0.59225 0.95518 0.28468 0.0
H2580 H 0.57439 0.94867 0.31905 0.0
H2581 H 0.56019 0.95375 0.30552 0.0
H2582 H 0.57019 0.96442 0.32991 0.0
H2583 H 0.60742 0.02871 0.31292 0.0
H2584 H 0.58531 0.03014 0.29229 0.0
H2585 H 0.56236 0.97679 0.27794 0.0
C2586 C 0.61183 0.97373 0.32355 0.0
C2587 C 0.62707 0.98399 0.33454 0.0
C2588 C 0.63268 1.00135 0.33722 0.0
C2589 C 0.62334 0.00841 0.32902 0.0
C2590 C 0.60847 0.99798 0.31806 0.0
C2591 C 0.60277 0.98101 0.31527 0.0
C2592 C 0.58682 0.97272 0.30203 0.0
C2593 C 0.58956 0.96549 0.28124 0.0
C2594 C 0.57202 0.95908 0.3149 0.0
C2595 C 0.58446 0.98767 0.29773 0.0
C2596 C 0.59702 1.00209 0.30722 0.0
C2597 C 0.59756 0.0175 0.30536 0.0
C2598 C 0.58499 0.0182 0.29343 0.0
C2599 C 0.57206 1.00361 0.2833 0.0
C2600 C 0.57187 0.98815 0.28564 0.0
H2601 H 0.04344 0.64469 0.32212 0.0
H2602 H 0.99967 0.62917 0.36235 0.0
H2603 H 0.98713 0.60015 0.34785 0.0
H2604 H 0.02032 0.62084 0.27667 0.0
H2605 H 0.03632 0.61611 0.26827 0.0
H2606 H 0.04212 0.63515 0.28289 0.0
H2607 H 0.05709 0.62665 0.31114 0.0
H2608 H 0.05132 0.60757 0.29661 0.0
H2609 H 0.04552 0.60654 0.32423 0.0
H2610 H 0.97999 0.57257 0.32927 0.0
H2611 H 0.97767 0.54953 0.30668 0.0
H2612 H 0.02487 0.5845 0.27581 0.0
C2613 C 0.03131 0.63513 0.3281 0.0
C2614 C 0.02261 0.63904 0.34361 0.0
C2615 C 0.00656 0.62634 0.35059 0.0
C2616 C 0.99938 0.60986 0.34246 0.0
C2617 C 0.0083 0.60644 0.32708 0.0
C2618 C 0.02382 0.61881 0.3198 0.0
C2619 C 0.03043 0.61225 0.30233 0.0
C2620 C 0.03241 0.62165 0.2813 0.0
C2621 C 0.04707 0.61332 0.30898 0.0
C2622 C 0.0163 0.59417 0.30102 0.0
C2623 C 1.00373 0.59099 0.31554 0.0
C2624 C 0.98966 0.57501 0.31763 0.0
C2625 C 0.98839 0.56199 0.3045 0.0
C2626 C 1.00098 0.56502 0.28911 0.0
C2627 C 0.01506 0.58146 0.28747 0.0
H2628 H 0.36959 0.3771 0.32623 0.0
H2629 H 0.34433 0.40651 0.32735 0.0
H2630 H 0.36906 0.43024 0.31068 0.0
H2631 H 0.41187 0.41239 0.33762 0.0
H2632 H 0.42218 0.40472 0.32014 0.0
H2633 H 0.40271 0.3901 0.333 0.0
H2634 H 0.38956 0.37767 0.29625 0.0
H2635 H 0.40893 0.39235 0.28327 0.0
H2636 H 0.38952 0.39144 0.27582 0.0
H2637 H 0.39541 0.45008 0.29197 0.0
H2638 H 0.42289 0.46585 0.27429 0.0
H2639 H 0.43232 0.4246 0.28623 0.0
C2640 C 0.36936 0.38861 0.3232 0.0
C2641 C 0.35496 0.3899 0.32815 0.0
C2642 C 0.35515 0.40516 0.32378 0.0
C2643 C 0.36915 0.41874 0.31425 0.0
C2644 C 0.38299 0.41697 0.30925 0.0
C2645 C 0.38333 0.4024 0.31373 0.0
C2646 C 0.39984 0.40388 0.30642 0.0
C2647 C 0.40973 0.40271 0.32543 0.0
C2648 C 0.39677 0.39054 0.28943 0.0
C2649 C 0.40856 0.42148 0.29696 0.0
C2650 C 0.39854 0.42873 0.29877 0.0
C2651 C 0.40351 0.44467 0.29076 0.0
C2652 C 0.41925 0.45359 0.28084 0.0
C2653 C 0.43004 0.44669 0.27913 0.0
C2654 C 0.42446 0.4303 0.28721 0.0
H2655 H 0.31128 0.27264 0.35904 0.0
H2656 H 0.35074 0.3216 0.38038 0.0
H2657 H 0.36427 0.30798 0.39963 0.0
H2658 H 0.30679 0.25069 0.40533 0.0
H2659 H 0.30366 0.23158 0.39293 0.0
H2660 H 0.29807 0.24517 0.37889 0.0
H2661 H 0.31738 0.24737 0.34742 0.0
H2662 H 0.32284 0.23355 0.36123 0.0
H2663 H 0.33916 0.25393 0.3524 0.0
H2664 H 0.37061 0.28865 0.42125 0.0
H2665 H 0.37157 0.26564 0.43984 0.0
H2666 H 0.32994 0.22932 0.40091 0.0
C2667 C 0.323 0.28052 0.36732 0.0
C2668 C 0.32999 0.29817 0.36821 0.0
C2669 C 0.34527 0.30807 0.37931 0.0
C2670 C 0.353 0.30043 0.39038 0.0
C2671 C 0.34548 0.28294 0.38975 0.0
C2672 C 0.33106 0.27313 0.37806 0.0
C2673 C 0.32524 0.25457 0.38049 0.0
C2674 C 0.30739 0.24495 0.38998 0.0
C2675 C 0.32622 0.24691 0.35911 0.0
C2676 C 0.33825 0.25543 0.39604 0.0
C2677 C 0.34978 0.27188 0.40125 0.0
C2678 C 0.36199 0.27573 0.41678 0.0
C2679 C 0.36249 0.26244 0.42719 0.0
C2680 C 0.35101 0.24537 0.42186 0.0
C2681 C 0.33889 0.24203 0.40577 0.0
H2682 H 0.73665 0.03284 0.38005 0.0
H2683 H 0.69455 0.04096 0.36881 0.0
H2684 H 0.71057 0.06921 0.38526 0.0
H2685 H 0.74717 0.05163 0.4307 0.0
H2686 H 0.76959 0.06086 0.4273 0.0
H2687 H 0.75544 0.04197 0.41305 0.0
H2688 H 0.76898 0.05649 0.37727 0.0
H2689 H 0.7833 0.0754 0.39144 0.0
H2690 H 0.77022 0.0762 0.37061 0.0
H2691 H 0.7307 0.09594 0.40507 0.0
H2692 H 0.75326 0.11898 0.42598 0.0
H2693 H 0.78213 0.0932 0.42398 0.0
C2694 C 0.73088 0.04064 0.38068 0.0
C2695 C 0.71436 0.03471 0.373 0.0
C2696 C 0.70721 0.04527 0.37446 0.0
C2697 C 0.71622 0.06132 0.3838 0.0
C2698 C 0.73235 0.06664 0.39159 0.0
C2699 C 0.73964 0.05663 0.39001 0.0
C2700 C 0.75684 0.06492 0.40041 0.0
C2701 C 0.75727 0.0542 0.41896 0.0
C2702 C 0.77065 0.06846 0.38395 0.0
C2703 C 0.75803 0.08109 0.40836 0.0
C2704 C 0.74384 0.0819 0.40303 0.0
C2705 C 0.74194 0.09549 0.40913 0.0
C2706 C 0.75487 0.10857 0.42094 0.0
C2707 C 0.76954 0.10798 0.42662 0.0
C2708 C 0.77105 0.09401 0.42011 0.0
H2709 H 0.97582 0.68025 0.38236 0.0
H2710 H 1.00468 0.73456 0.39023 0.0
H2711 H 0.98048 0.73405 0.40786 0.0
H2712 H 0.93555 0.67825 0.37151 0.0
H2713 H 0.92334 0.65879 0.38577 0.0
H2714 H 0.94283 0.6633 0.3732 0.0
H2715 H 0.95377 0.65888 0.40922 0.0
H2716 H 0.93438 0.6545 0.42194 0.0
H2717 H 0.95418 0.67098 0.43211 0.0
H2718 H 0.95427 0.72779 0.42676 0.0
H2719 H 0.92645 0.71646 0.44328 0.0
H2720 H 0.9131 0.66625 0.42149 0.0
C2721 C 0.97697 0.69203 0.38761 0.0
C2722 C 0.99221 0.70745 0.38488 0.0
C2723 C 0.99319 0.72259 0.39204 0.0
C2724 C 0.9795 0.72245 0.40215 0.0
C2725 C 0.9648 0.70708 0.40487 0.0
C2726 C 0.9633 0.69215 0.39761 0.0
C2727 C 0.94593 0.67743 0.40262 0.0
C2728 C 0.93635 0.66894 0.38205 0.0
C2729 C 0.94714 0.6647 0.41735 0.0
C2730 C 0.93805 0.68644 0.41404 0.0
C2731 C 0.94925 0.70352 0.41521 0.0
C2732 C 0.94525 0.71448 0.42559 0.0
C2733 C 0.92928 0.70788 0.4348 0.0
C2734 C 0.91726 0.69046 0.43338 0.0
C2735 C 0.92187 0.67961 0.42293 0.0
H2736 H 0.37514 0.01448 0.7319 0.0
H2737 H 0.39951 0.02884 0.67031 0.0
H2738 H 0.42069 0.02135 0.6822 0.0
H2739 H 0.41267 0.033 0.76114 0.0
H2740 H 0.40535 0.01729 0.7818 0.0
H2741 H 0.39057 0.02112 0.76758 0.0
H2742 H 0.37341 0.98962 0.75705 0.0
H2743 H 0.38807 0.98565 0.77143 0.0
H2744 H 0.38381 0.97987 0.74374 0.0
H2745 H 0.44002 0.0139 0.70135 0.0
H2746 H 0.45726 0.0086 0.72696 0.0
H2747 H 0.42173 1.00121 0.77723 0.0
C2748 C 0.38464 0.01549 0.72078 0.0
C2749 C 0.38552 0.02173 0.70001 0.0
C2750 C 0.39851 0.02371 0.68611 0.0
C2751 C 0.41056 0.01951 0.69275 0.0
C2752 C 0.40959 0.01367 0.71348 0.0
C2753 C 0.39703 0.01175 0.72736 0.0
C2754 C 0.39989 0.00696 0.74944 0.0
C2755 C 0.40226 0.0204 0.76596 0.0
C2756 C 0.38543 0.98948 0.75578 0.0
C2757 C 0.41611 0.00668 0.74586 0.0
C2758 C 0.42131 0.0103 0.72491 0.0
C2759 C 0.43602 0.01096 0.71776 0.0
C2760 C 0.44571 0.00789 0.7324 0.0
C2761 C 0.44081 0.00447 0.75403 0.0
C2762 C 0.42579 0.00385 0.76079 0.0
H2763 H 0.99598 0.36311 0.72853 0.0
H2764 H 0.9614 0.35917 0.67892 0.0
H2765 H 0.96497 0.38675 0.68969 0.0
H2766 H 0.97989 0.37936 0.76721 0.0
H2767 H 0.99986 0.39308 0.77967 0.0
H2768 H 0.99649 0.37425 0.76634 0.0
H2769 H 0.02263 0.39194 0.74261 0.0
H2770 H 0.02611 0.41085 0.75594 0.0
H2771 H 0.02397 0.40922 0.72739 0.0
H2772 H 0.97156 0.41415 0.70644 0.0
H2773 H 0.97889 0.43855 0.72949 0.0
H2774 H 0.00688 0.42335 0.77091 0.0
C2775 C 0.98954 0.36832 0.71963 0.0
C2776 C 0.97869 0.35926 0.7026 0.0
C2777 C 0.96992 0.36607 0.69182 0.0
C2778 C 0.9719 0.38171 0.69781 0.0
C2779 C 0.98246 0.39023 0.71488 0.0
C2780 C 0.99103 0.38374 0.72579 0.0
C2781 C 1.00026 0.39467 0.74485 0.0
C2782 C 0.99373 0.38475 0.76575 0.0
C2783 C 0.01938 0.40211 0.74255 0.0
C2784 C 0.99545 0.40824 0.74302 0.0
C2785 C 0.98541 0.40555 0.72542 0.0
C2786 C 0.97932 0.41631 0.72037 0.0
C2787 C 0.98343 0.43008 0.73377 0.0
C2788 C 0.99328 0.43289 0.75237 0.0
C2789 C 0.99947 0.4218 0.75681 0.0
H2790 H 0.64973 0.60876 0.72434 0.0
H2791 H 0.63686 0.64378 0.6953 0.0
H2792 H 0.60793 0.62723 0.70961 0.0
H2793 H 0.6096 0.57078 0.71613 0.0
H2794 H 0.61011 0.56185 0.74147 0.0
H2795 H 0.6295 0.57599 0.72807 0.0
H2796 H 0.63967 0.59513 0.7615 0.0
H2797 H 0.62033 0.58107 0.77498 0.0
H2798 H 0.62675 0.60305 0.77238 0.0
H2799 H 0.58045 0.6069 0.72745 0.0
H2800 H 0.5568 0.58492 0.74806 0.0
H2801 H 0.58822 0.56409 0.76699 0.0
C2802 C 0.64079 0.61286 0.72077 0.0
C2803 C 0.64552 0.6275 0.70855 0.0
C2804 C 0.6335 0.63258 0.70456 0.0
C2805 C 0.61704 0.62325 0.7126 0.0
C2806 C 0.61284 0.60895 0.72473 0.0
C2807 C 0.62439 0.60381 0.72886 0.0
C2808 C 0.61691 0.58837 0.743 0.0
C2809 C 0.61651 0.57336 0.73147 0.0
C2810 C 0.62649 0.59214 0.76422 0.0
C2811 C 0.59932 0.5856 0.74621 0.0
C2812 C 0.5972 0.59754 0.73545 0.0
C2813 C 0.58201 0.59754 0.73603 0.0
C2814 C 0.56867 0.58506 0.74796 0.0
C2815 C 0.57058 0.57276 0.75937 0.0
C2816 C 0.58619 0.57312 0.75833 0.0
H2817 H 0.71078 0.73344 0.64831 0.0
H2818 H 0.662 0.69432 0.67079 0.0
H2819 H 0.64888 0.71011 0.65626 0.0
H2820 H 0.70469 0.76887 0.65874 0.0
H2821 H 0.7157 0.78001 0.63505 0.0
H2822 H 0.72125 0.7659 0.6479 0.0
H2823 H 0.71623 0.74942 0.61255 0.0
H2824 H 0.71065 0.76346 0.59961 0.0
H2825 H 0.69621 0.74108 0.59927 0.0
H2826 H 0.64109 0.73018 0.63868 0.0
H2827 H 0.63922 0.75267 0.61947 0.0
H2828 H 0.69303 0.77801 0.60747 0.0
C2829 C 0.69735 0.72824 0.65037 0.0
C2830 C 0.68743 0.71266 0.66081 0.0
C2831 C 0.66988 0.70624 0.66291 0.0
C2832 C 0.66231 0.71513 0.65471 0.0
C2833 C 0.67246 0.73038 0.64437 0.0
C2834 C 0.6896 0.73687 0.64217 0.0
C2835 C 0.69765 0.75328 0.6299 0.0
C2836 C 0.71058 0.76787 0.64372 0.0
C2837 C 0.70565 0.75171 0.6091 0.0
C2838 C 0.68236 0.75504 0.62551 0.0
C2839 C 0.66796 0.74174 0.63402 0.0
C2840 C 0.6523 0.74062 0.63191 0.0
C2841 C 0.65135 0.75342 0.62082 0.0
C2842 C 0.66596 0.76717 0.61187 0.0
C2843 C 0.68164 0.76786 0.61433 0.0
H2844 H 0.30383 0.98031 0.65074 0.0
H2845 H 0.27037 0.98788 0.69231 0.0
H2846 H 0.24657 0.96045 0.681 0.0
H2847 H 0.275 0.96342 0.60813 0.0
H2848 H 0.28125 0.94852 0.59974 0.0
H2849 H 0.29613 0.96765 0.61302 0.0
H2850 H 0.30122 0.9503 0.64153 0.0
H2851 H 0.28638 0.9311 0.62828 0.0
H2852 H 0.28357 0.93413 0.65603 0.0
H2853 H 0.22629 0.93291 0.66434 0.0
H2854 H 0.21032 0.9078 0.642 0.0
H2855 H 0.25631 0.91903 0.60859 0.0
C2856 C 0.29156 0.97595 0.65782 0.0
C2857 C 0.28894 0.98603 0.67268 0.0
C2858 C 0.27263 0.98024 0.68106 0.0
C2859 C 0.25906 0.96468 0.67476 0.0
C2860 C 0.26196 0.95515 0.65981 0.0
C2861 C 0.27776 0.96058 0.65131 0.0
C2862 C 0.27709 0.9486 0.63409 0.0
C2863 C 0.2827 0.95759 0.61247 0.0
C2864 C 0.2877 0.94055 0.64037 0.0
C2865 C 0.25844 0.9357 0.63414 0.0
C2866 C 0.25002 0.93963 0.64932 0.0
C2867 C 0.23272 0.92975 0.65232 0.0
C2868 C 0.22373 0.91556 0.63934 0.0
C2869 C 0.23192 0.91143 0.6232 0.0
C2870 C 0.2496 0.92164 0.62082 0.0
H2871 H 0.04501 0.33602 0.66356 0.0
H2872 H 0.03025 0.28582 0.68635 0.0
H2873 H 0.05544 0.28769 0.66979 0.0
H2874 H 0.05973 0.33203 0.61367 0.0
H2875 H 0.07744 0.35313 0.61247 0.0
H2876 H 0.05917 0.34885 0.6279 0.0
H2877 H 0.07774 0.36146 0.66143 0.0
H2878 H 0.09613 0.36596 0.64603 0.0
H2879 H 0.09123 0.3535 0.66991 0.0
H2880 H 0.08009 0.29333 0.64768 0.0
H2881 H 0.10449 0.3036 0.62346 0.0
H2882 H 0.10455 0.35061 0.61556 0.0
C2883 C 0.04732 0.32561 0.6655 0.0
C2884 C 0.03563 0.31078 0.67632 0.0
C2885 C 0.03898 0.29732 0.67819 0.0
C2886 C 0.05328 0.29824 0.66882 0.0
C2887 C 0.06426 0.31278 0.65775 0.0
C2888 C 0.06165 0.32634 0.65626 0.0
C2889 C 0.07516 0.34017 0.6426 0.0
C2890 C 0.06741 0.34375 0.623 0.0
C2891 C 0.08569 0.35622 0.65578 0.0
C2892 C 0.08547 0.33204 0.63627 0.0
C2893 C 0.0789 0.31623 0.64523 0.0
C2894 C 0.08552 0.30579 0.64082 0.0
C2895 C 0.09929 0.31166 0.62696 0.0
C2896 C 0.10638 0.32787 0.61775 0.0
C2897 C 0.09945 0.33824 0.62261 0.0
H2898 H 0.30014 0.33259 0.66867 0.0
H2899 H 0.2692 0.27863 0.67826 0.0
H2900 H 0.24547 0.27898 0.66068 0.0
H2901 H 0.2656 0.34208 0.6772 0.0
H2902 H 0.27345 0.35827 0.65712 0.0
H2903 H 0.28787 0.35412 0.67178 0.0
H2904 H 0.29941 0.34949 0.63629 0.0
H2905 H 0.28488 0.35339 0.62154 0.0
H2906 H 0.28508 0.33401 0.61763 0.0
H2907 H 0.22623 0.28424 0.63869 0.0
H2908 H 0.2111 0.29465 0.61716 0.0
H2909 H 0.25304 0.34578 0.62377 0.0
C2910 C 0.28827 0.32093 0.66746 0.0
C2911 C 0.28659 0.30557 0.67489 0.0
C2912 C 0.27086 0.29056 0.67278 0.0
C2913 C 0.25727 0.2906 0.66274 0.0
C2914 C 0.25946 0.30579 0.65507 0.0
C2915 C 0.27441 0.32075 0.65761 0.0
C2916 C 0.27331 0.33523 0.64749 0.0
C2917 C 0.27516 0.34819 0.66441 0.0
C2918 C 0.28645 0.34351 0.62968 0.0
C2919 C 0.25555 0.32594 0.63853 0.0
C2920 C 0.24789 0.30897 0.64305 0.0
C2921 C 0.2319 0.29758 0.63553 0.0
C2922 C 0.22333 0.30371 0.62339 0.0
C2923 C 0.23055 0.32117 0.61907 0.0
C2924 C 0.24702 0.33238 0.6267 0.0
H2925 H 0.71432 0.98066 0.65637 0.0
H2926 H 0.66482 0.97336 0.671 0.0
H2927 H 0.65173 0.94495 0.65493 0.0
H2928 H 0.70395 0.96045 0.60601 0.0
H2929 H 0.71699 0.95101 0.60896 0.0
H2930 H 0.72249 0.97041 0.62252 0.0
H2931 H 0.72264 0.95684 0.65861 0.0
H2932 H 0.71726 0.93743 0.64513 0.0
H2933 H 0.70429 0.93752 0.66667 0.0
H2934 H 0.64405 0.91781 0.6356 0.0
H2935 H 0.64236 0.89387 0.61551 0.0
H2936 H 0.69695 0.91865 0.61438 0.0
C2937 C 0.70072 0.97304 0.65641 0.0
C2938 C 0.69059 0.97926 0.66501 0.0
C2939 C 0.67285 0.96888 0.66459 0.0
C2940 C 0.66529 0.95272 0.65547 0.0
C2941 C 0.67565 0.94708 0.64689 0.0
C2942 C 0.69298 0.9569 0.64741 0.0
C2943 C 0.70128 0.94803 0.63675 0.0
C2944 C 0.7118 0.95808 0.61741 0.0
C2945 C 0.712 0.94476 0.65275 0.0
C2946 C 0.6859 0.93176 0.62994 0.0
C2947 C 0.67124 0.93144 0.63596 0.0
C2948 C 0.65546 0.91786 0.63101 0.0
C2949 C 0.65464 0.90425 0.61968 0.0
C2950 C 0.66951 0.90422 0.6134 0.0
C2951 C 0.68532 0.91825 0.61871 0.0
H2952 H 0.04247 0.71772 0.66498 0.0
H2953 H 0.0105 0.73866 0.64939 0.0
H2954 H 0.0337 0.76136 0.62922 0.0
H2955 H 0.08093 0.75833 0.67186 0.0
H2956 H 0.09434 0.75121 0.66044 0.0
H2957 H 0.07523 0.7365 0.67393 0.0
H2958 H 0.06546 0.71767 0.64023 0.0
H2959 H 0.08447 0.73239 0.62659 0.0
H2960 H 0.06426 0.72657 0.61517 0.0
H2961 H 0.0594 0.78071 0.60896 0.0
H2962 H 0.08722 0.79736 0.59238 0.0
H2963 H 0.10383 0.76564 0.62293 0.0
C2964 C 0.04042 0.72715 0.65744 0.0
C2965 C 0.02462 0.72637 0.65877 0.0
C2966 C 0.02246 0.73898 0.6487 0.0
C2967 C 0.03555 0.75192 0.6371 0.0
C2968 C 0.05086 0.75225 0.63587 0.0
C2969 C 0.05349 0.74038 0.64596 0.0
C2970 C 0.07135 0.74393 0.64225 0.0
C2971 C 0.08103 0.74772 0.66338 0.0
C2972 C 0.07138 0.72926 0.63035 0.0
C2973 C 0.0782 0.75952 0.62835 0.0
C2974 C 0.06608 0.76397 0.62478 0.0
C2975 C 0.06912 0.77755 0.61194 0.0
C2976 C 0.08507 0.78703 0.6027 0.0
C2977 C 0.09799 0.78312 0.60656 0.0
C2978 C 0.09434 0.76903 0.6195 0.0
H2979 H 0.96614 0.60826 0.72582 0.0
H2980 H 0.0154 0.64592 0.70283 0.0
H2981 H 0.02767 0.62946 0.71782 0.0
H2982 H 0.98031 0.60054 0.77519 0.0
H2983 H 0.96521 0.57832 0.77528 0.0
H2984 H 0.96032 0.59274 0.762 0.0
H2985 H 0.95452 0.5757 0.727 0.0
H2986 H 0.95938 0.56121 0.74018 0.0
H2987 H 0.97053 0.57181 0.7163 0.0
H2988 H 0.03445 0.60869 0.73566 0.0
H2989 H 0.0353 0.58572 0.75504 0.0
H2990 H 0.9817 0.56255 0.76766 0.0
C2991 C 0.97949 0.61301 0.72374 0.0
C2992 C 0.9898 0.62835 0.71301 0.0
C2993 C 0.00725 0.63419 0.71092 0.0
C2994 C 0.01432 0.62492 0.71939 0.0
C2995 C 1.00379 0.60989 0.73 0.0
C2996 C 0.98675 0.60402 0.73223 0.0
C2997 C 0.97822 0.58777 0.74482 0.0
C2998 C 0.97057 0.58999 0.76555 0.0
C2999 C 0.96488 0.57327 0.73126 0.0
C3000 C 0.9931 0.58537 0.74931 0.0
C3001 C 0.00774 0.59821 0.74059 0.0
C3002 C 0.02307 0.59862 0.74263 0.0
C3003 C 0.02344 0.58555 0.75383 0.0
C3004 C 0.00858 0.57226 0.763 0.0
C3005 C 0.99326 0.57232 0.76065 0.0
H3006 H 0.40785 0.36885 0.69974 0.0
H3007 H 0.36003 0.36752 0.70592 0.0
H3008 H 0.37444 0.3953 0.72362 0.0
H3009 H 0.42379 0.38619 0.74942 0.0
H3010 H 0.44526 0.39937 0.74087 0.0
H3011 H 0.43164 0.38032 0.72656 0.0
H3012 H 0.43742 0.39721 0.69153 0.0
H3013 H 0.45127 0.41632 0.70568 0.0
H3014 H 0.4339 0.41487 0.69055 0.0
H3015 H 0.39351 0.42155 0.74443 0.0
H3016 H 0.41597 0.44519 0.76441 0.0
H3017 H 0.45173 0.43023 0.74309 0.0
C3018 C 0.40044 0.37456 0.70435 0.0
C3019 C 0.38279 0.366 0.70135 0.0
C3020 C 0.37357 0.37385 0.70788 0.0
C3021 C 0.38164 0.38963 0.71802 0.0
C3022 C 0.39897 0.39748 0.72131 0.0
C3023 C 0.40831 0.39033 0.71439 0.0
C3024 C 0.42664 0.401 0.72072 0.0
C3025 C 0.43215 0.39113 0.73526 0.0
C3026 C 0.43798 0.40775 0.70094 0.0
C3027 C 0.42608 0.41505 0.73278 0.0
C3028 C 0.41002 0.41281 0.73289 0.0
C3029 C 0.40621 0.42363 0.74404 0.0
C3030 C 0.41914 0.43713 0.75528 0.0
C3031 C 0.43581 0.43985 0.75526 0.0
C3032 C 0.4392 0.42859 0.74367 0.0
H3033 H 0.63734 0.01597 0.71245 0.0
H3034 H 0.67112 0.06579 0.73788 0.0
H3035 H 0.64773 0.06487 0.75823 0.0
H3036 H 0.60141 0.0225 0.70657 0.0
H3037 H 0.58613 1.00123 0.71385 0.0
H3038 H 0.60557 0.00557 0.70127 0.0
H3039 H 0.61187 0.99131 0.7327 0.0
H3040 H 0.5925 0.98702 0.74543 0.0
H3041 H 0.61218 0.99859 0.75947 0.0
H3042 H 0.62147 0.0582 0.77735 0.0
H3043 H 0.59306 0.04726 0.7919 0.0
H3044 H 0.57504 1.00268 0.75206 0.0
C3045 C 0.63976 0.02668 0.72226 0.0
C3046 C 0.65609 0.04095 0.72359 0.0
C3047 C 0.65873 0.05475 0.73651 0.0
C3048 C 0.64553 0.05434 0.74822 0.0
C3049 C 0.62965 0.04011 0.74669 0.0
C3050 C 0.62659 0.02661 0.73385 0.0
C3051 C 0.60813 0.01309 0.7348 0.0
C3052 C 0.59982 0.01045 0.71281 0.0
C3053 C 0.60606 0.99652 0.74363 0.0
C3054 C 0.60143 0.02108 0.75033 0.0
C3055 C 0.61414 0.03659 0.75706 0.0
C3056 C 0.61132 0.0462 0.77191 0.0
C3057 C 0.59501 0.03989 0.77994 0.0
C3058 C 0.58152 0.02421 0.77291 0.0
C3059 C 0.58493 0.01468 0.75792 0.0
loop_
_geom_bond_atom_site_label_1
_geom_bond_atom_site_label_2
_geom_bond_distance
_geom_bond_site_symmetry_2
_ccdc_geom_bond_type
O0 Cd1 2.223 . S
O0 C8 1.315 . S
Cd1 O0 2.223 . S
Cd1 O4 2.297 . S
Cd1 O5 2.439 . S
Cd1 O11 2.240 1_554 S
Cd2 O3 2.240 . S
Cd2 O10 2.223 1_554 S
Cd2 O12 2.297 1_554 S
Cd2 O13 2.421 1_554 S
O3 Cd2 2.240 . S
O3 C8 1.279 1_655 S
O4 Cd1 2.297 . S
O4 C6 1.247 . S
O5 Cd1 2.439 . S
O5 C6 1.208 . S
C6 O4 1.247 . S
C6 O5 1.208 . S
C7 O12 1.247 . S
C7 O13 1.234 . S
C8 O0 1.315 . S
C8 O3 1.279 1_455 S
C9 O10 1.315 . S
C9 O11 1.279 1_655 S
O10 Cd2 2.223 1_556 S
O10 C9 1.315 . S
O11 Cd1 2.240 1_556 S
O11 C9 1.279 1_455 S
O12 Cd2 2.297 1_556 S
O12 C7 1.247 . S
O13 Cd2 2.421 1_556 S
O13 C7 1.234 . S
O14 Cd15 2.223 . S
O14 C22 1.315 . S
Cd15 O14 2.223 . S
Cd15 O18 2.297 . S
Cd15 O19 2.439 . S
Cd15 O25 2.240 1_554 S
Cd16 O17 2.240 . S
Cd16 O24 2.223 1_554 S
Cd16 O26 2.297 1_554 S
Cd16 O27 2.439 1_554 S
O17 Cd16 2.240 . S
O17 C22 1.279 . S
O18 Cd15 2.297 . S
O18 C20 1.247 . S
O19 Cd15 2.439 . S
O19 C20 1.208 . S
C20 O18 1.247 . S
C20 O19 1.208 . S
C21 O26 1.247 . S
C21 O27 1.208 . S
C22 O14 1.315 . S
C22 O17 1.279 . S
C23 O24 1.315 . S
C23 O25 1.279 . S
O24 Cd16 2.223 1_556 S
O24 C23 1.315 . S
O25 Cd15 2.240 1_556 S
O25 C23 1.279 . S
O26 Cd16 2.297 1_556 S
O26 C21 1.247 . S
O27 Cd16 2.439 1_556 S
O27 C21 1.208 . S
O28 Cd29 2.223 1_556 S
O28 C36 1.315 . S
Cd29 O28 2.223 1_554 S
Cd29 O32 2.297 1_554 S
Cd29 O33 2.439 1_554 S
Cd29 O39 2.240 . S
Cd30 O31 2.240 1_554 S
Cd30 O38 2.223 . S
Cd30 O40 2.297 . S
Cd30 O41 2.439 . S
O31 Cd30 2.240 1_556 S
O31 C36 1.279 1_565 S
O32 Cd29 2.297 1_556 S
O32 C34 1.247 . S
O33 Cd29 2.439 1_556 S
O33 C34 1.208 . S
C34 O32 1.247 . S
C34 O33 1.208 . S
C35 O40 1.247 . S
C35 O41 1.208 . S
C36 O28 1.315 . S
C36 O31 1.279 1_545 S
C37 O38 1.315 . S
C37 O39 1.279 1_565 S
O38 Cd30 2.223 . S
O38 C37 1.315 . S
O39 Cd29 2.240 . S
O39 C37 1.279 1_545 S
O40 Cd30 2.297 . S
O40 C35 1.247 . S
O41 Cd30 2.439 . S
O41 C35 1.208 . S
O42 Cd43 2.223 1_556 S
O42 C50 1.315 . S
Cd43 O42 2.223 1_554 S
Cd43 O46 2.297 1_554 S
Cd43 O47 2.439 1_554 S
Cd43 O53 2.240 . S
Cd44 O45 2.240 1_554 S
Cd44 O52 2.223 . S
Cd44 O54 2.297 . S
Cd44 O55 2.439 . S
O45 Cd44 2.240 1_556 S
O45 C50 1.279 1_455 S
O46 Cd43 2.297 1_556 S
O46 C48 1.247 . S
O47 Cd43 2.439 1_556 S
O47 C48 1.208 . S
C48 O46 1.247 . S
C48 O47 1.208 . S
C49 O54 1.247 . S
C49 O55 1.208 . S
C50 O42 1.315 . S
C50 O45 1.279 1_655 S
C51 O52 1.315 . S
C51 O53 1.279 1_455 S
O52 Cd44 2.223 . S
O52 C51 1.315 . S
O53 Cd43 2.240 . S
O53 C51 1.279 1_655 S
O54 Cd44 2.297 . S
O54 C49 1.247 . S
O55 Cd44 2.439 . S
O55 C49 1.208 . S
O56 Cd57 2.223 1_556 S
O56 C64 1.315 . S
Cd57 O56 2.223 1_554 S
Cd57 O60 2.297 1_554 S
Cd57 O61 2.439 1_554 S
Cd57 O67 2.240 . S
Cd58 O59 2.240 1_554 S
Cd58 O66 2.223 . S
Cd58 O68 2.297 . S
Cd58 O69 2.439 . S
O59 Cd58 2.240 1_556 S
O59 C64 1.279 . S
O60 Cd57 2.297 1_556 S
O60 C62 1.247 . S
O61 Cd57 2.439 1_556 S
O61 C62 1.208 . S
C62 O60 1.247 . S
C62 O61 1.208 . S
C63 O68 1.247 . S
C63 O69 1.208 . S
C64 O56 1.315 . S
C64 O59 1.279 . S
C65 O66 1.315 . S
C65 O67 1.279 . S
O66 Cd58 2.223 . S
O66 C65 1.315 . S
O67 Cd57 2.240 . S
O67 C65 1.279 . S
O68 Cd58 2.297 . S
O68 C63 1.247 . S
O69 Cd58 2.439 . S
O69 C63 1.208 . S
O70 Cd71 2.223 . S
O70 C78 1.315 . S
Cd71 O70 2.223 . S
Cd71 O74 2.297 . S
Cd71 O75 2.439 . S
Cd71 O81 2.240 1_554 S
Cd72 O73 2.240 . S
Cd72 O80 2.223 1_554 S
Cd72 O82 2.297 1_554 S
Cd72 O83 2.428 1_554 S
O73 Cd72 2.240 . S
O73 C78 1.279 1_545 S
O74 Cd71 2.297 . S
O74 C76 1.247 . S
O75 Cd71 2.439 . S
O75 C76 1.208 . S
C76 O74 1.247 . S
C76 O75 1.208 . S
C77 O82 1.247 . S
C77 O83 1.223 . S
C78 O70 1.315 . S
C78 O73 1.279 1_565 S
C79 O80 1.315 . S
C79 O81 1.279 1_545 S
O80 Cd72 2.223 1_556 S
O80 C79 1.315 . S
O81 Cd71 2.240 1_556 S
O81 C79 1.279 1_565 S
O82 Cd72 2.297 1_556 S
O82 C77 1.247 . S
O83 Cd72 2.428 1_556 S
O83 C77 1.223 . S
O84 Cd85 2.223 . S
O84 C92 1.315 . S
Cd85 O84 2.223 . S
Cd85 O88 2.297 . S
Cd85 O89 2.439 . S
Cd85 O95 2.240 . S
Cd86 O87 2.240 . S
Cd86 O94 2.223 . S
Cd86 O96 2.297 . S
Cd86 O97 2.439 . S
O87 Cd86 2.240 . S
O87 C92 1.279 . S
O88 Cd85 2.297 . S
O88 C90 1.247 . S
O89 Cd85 2.439 . S
O89 C90 1.208 . S
C90 O88 1.247 . S
C90 O89 1.208 . S
C91 O96 1.247 . S
C91 O97 1.208 . S
C92 O84 1.315 . S
C92 O87 1.279 . S
C93 O94 1.315 . S
C93 O95 1.279 . S
O94 Cd86 2.223 . S
O94 C93 1.315 . S
O95 Cd85 2.240 . S
O95 C93 1.279 . S
O96 Cd86 2.297 . S
O96 C91 1.247 . S
O97 Cd86 2.439 . S
O97 C91 1.208 . S
O98 Cd99 2.223 . S
O98 C106 1.315 . S
Cd99 O98 2.223 . S
Cd99 O102 2.297 1_565 S
Cd99 O103 2.439 1_565 S
Cd99 O109 2.240 . S
Cd100 O101 2.240 . S
Cd100 O108 2.223 . S
Cd100 O110 2.297 . S
Cd100 O111 2.439 . S
O101 Cd100 2.240 . S
O101 C106 1.279 . S
O102 Cd99 2.297 1_545 S
O102 C104 1.247 . S
O103 Cd99 2.439 1_545 S
O103 C104 1.208 . S
C104 O102 1.247 . S
C104 O103 1.208 . S
C105 O110 1.247 . S
C105 O111 1.208 . S
C106 O98 1.315 . S
C106 O101 1.279 . S
C107 O108 1.315 . S
C107 O109 1.279 . S
O108 Cd100 2.223 . S
O108 C107 1.315 . S
O109 Cd99 2.240 . S
O109 C107 1.279 . S
O110 Cd100 2.297 . S
O110 C105 1.247 . S
O111 Cd100 2.439 . S
O111 C105 1.208 . S
O112 Cd113 2.223 . S
O112 C120 1.315 . S
Cd113 O112 2.223 . S
Cd113 O116 2.297 . S
Cd113 O117 2.439 . S
Cd113 O123 2.240 . S
Cd114 O115 2.240 . S
Cd114 O122 2.223 . S
Cd114 O124 2.297 1_455 S
Cd114 O125 2.439 1_455 S
O115 Cd114 2.240 . S
O115 C120 1.279 . S
O116 Cd113 2.297 . S
O116 C118 1.247 . S
O117 Cd113 2.439 . S
O117 C118 1.208 . S
C118 O116 1.247 . S
C118 O117 1.208 . S
C119 O124 1.247 . S
C119 O125 1.208 . S
C120 O112 1.315 . S
C120 O115 1.279 . S
C121 O122 1.315 . S
C121 O123 1.279 . S
O122 Cd114 2.223 . S
O122 C121 1.315 . S
O123 Cd113 2.240 . S
O123 C121 1.279 . S
O124 Cd114 2.297 1_655 S
O124 C119 1.247 . S
O125 Cd114 2.439 1_655 S
O125 C119 1.208 . S
O126 Cd127 2.223 . S
O126 C134 1.315 . S
Cd127 O126 2.223 . S
Cd127 O130 2.297 . S
Cd127 O131 2.439 . S
Cd127 O137 2.240 . S
Cd128 O129 2.240 . S
Cd128 O136 2.223 . S
Cd128 O138 2.297 1_565 S
Cd128 O139 2.439 1_565 S
O129 Cd128 2.240 . S
O129 C134 1.279 . S
O130 Cd127 2.297 . S
O130 C132 1.247 . S
O131 Cd127 2.439 . S
O131 C132 1.208 . S
C132 O130 1.247 . S
C132 O131 1.208 . S
C133 O138 1.247 . S
C133 O139 1.208 . S
C134 O126 1.315 . S
C134 O129 1.279 . S
C135 O136 1.315 . S
C135 O137 1.279 . S
O136 Cd128 2.223 . S
O136 C135 1.315 . S
O137 Cd127 2.240 . S
O137 C135 1.279 . S
O138 Cd128 2.297 1_545 S
O138 C133 1.247 . S
O139 Cd128 2.439 1_545 S
O139 C133 1.208 . S
O140 Cd141 2.223 . S
O140 C148 1.315 . S
Cd141 O140 2.223 . S
Cd141 O144 2.297 . S
Cd141 O145 2.439 . S
Cd141 O151 2.240 . S
Cd142 O143 2.240 . S
Cd142 O150 2.223 . S
Cd142 O152 2.297 1_455 S
Cd142 O153 2.439 1_455 S
O143 Cd142 2.240 . S
O143 C148 1.279 . S
O144 Cd141 2.297 . S
O144 C146 1.247 . S
O145 Cd141 2.439 . S
O145 C146 1.208 . S
C146 O144 1.247 . S
C146 O145 1.208 . S
C147 O152 1.247 . S
C147 O153 1.208 . S
C148 O140 1.315 . S
C148 O143 1.279 . S
C149 O150 1.315 . S
C149 O151 1.279 . S
O150 Cd142 2.223 . S
O150 C149 1.315 . S
O151 Cd141 2.240 . S
O151 C149 1.279 . S
O152 Cd142 2.297 1_655 S
O152 C147 1.247 . S
O153 Cd142 2.439 1_655 S
O153 C147 1.208 . S
O154 Cd155 2.223 . S
O154 C162 1.315 . S
Cd155 O154 2.223 . S
Cd155 O158 2.297 . S
Cd155 O159 2.439 . S
Cd155 O165 2.240 . S
Cd156 O157 2.240 . S
Cd156 O164 2.223 . S
Cd156 O166 2.297 . S
Cd156 O167 2.439 . S
O157 Cd156 2.240 . S
O157 C162 1.279 . S
O158 Cd155 2.297 . S
O158 C160 1.247 . S
O159 Cd155 2.439 . S
O159 C160 1.208 . S
C160 O158 1.247 . S
C160 O159 1.208 . S
C161 O166 1.247 . S
C161 O167 1.208 . S
C162 O154 1.315 . S
C162 O157 1.279 . S
C163 O164 1.315 . S
C163 O165 1.279 . S
O164 Cd156 2.223 . S
O164 C163 1.315 . S
O165 Cd155 2.240 . S
O165 C163 1.279 . S
O166 Cd156 2.297 . S
O166 C161 1.247 . S
O167 Cd156 2.439 . S
O167 C161 1.208 . S
O168 Cd169 2.223 . S
O168 C176 1.315 . S
Cd169 O168 2.223 . S
Cd169 O172 2.297 . S
Cd169 O173 2.439 . S
Cd169 O179 2.240 . S
Cd170 O171 2.240 . S
Cd170 O178 2.223 . S
Cd170 O180 2.297 1_545 S
Cd170 O181 2.439 1_545 S
O171 Cd170 2.240 . S
O171 C176 1.279 . S
O172 Cd169 2.297 . S
O172 C174 1.247 . S
O173 Cd169 2.439 . S
O173 C174 1.208 . S
C174 O172 1.247 . S
C174 O173 1.208 . S
C175 O180 1.247 . S
C175 O181 1.208 . S
C176 O168 1.315 . S
C176 O171 1.279 . S
C177 O178 1.315 . S
C177 O179 1.279 . S
O178 Cd170 2.223 . S
O178 C177 1.315 . S
O179 Cd169 2.240 . S
O179 C177 1.279 . S
O180 Cd170 2.297 1_565 S
O180 C175 1.247 . S
O181 Cd170 2.439 1_565 S
O181 C175 1.208 . S
O182 Cd183 2.223 . S
O182 C190 1.315 . S
Cd183 O182 2.223 . S
Cd183 O186 2.297 . S
Cd183 O187 2.439 . S
Cd183 O193 2.240 . S
Cd184 O185 2.240 . S
Cd184 O192 2.223 . S
Cd184 O194 2.297 1_655 S
Cd184 O195 2.439 1_655 S
O185 Cd184 2.240 . S
O185 C190 1.279 . S
O186 Cd183 2.297 . S
O186 C188 1.247 . S
O187 Cd183 2.439 . S
O187 C188 1.208 . S
C188 O186 1.247 . S
C188 O187 1.208 . S
C189 O194 1.247 . S
C189 O195 1.208 . S
C190 O182 1.315 . S
C190 O185 1.279 . S
C191 O192 1.315 . S
C191 O193 1.279 . S
O192 Cd184 2.223 . S
O192 C191 1.315 . S
O193 Cd183 2.240 . S
O193 C191 1.279 . S
O194 Cd184 2.297 1_455 S
O194 C189 1.247 . S
O195 Cd184 2.439 1_455 S
O195 C189 1.208 . S
O196 Cd197 2.223 . S
O196 C204 1.315 . S
Cd197 O196 2.223 . S
Cd197 O200 2.297 . S
Cd197 O201 2.439 . S
Cd197 O207 2.240 . S
Cd198 O199 2.240 . S
Cd198 O206 2.223 . S
Cd198 O208 2.297 . S
Cd198 O209 2.439 . S
O199 Cd198 2.240 . S
O199 C204 1.279 . S
O200 Cd197 2.297 . S
O200 C202 1.247 . S
O201 Cd197 2.439 . S
O201 C202 1.208 . S
C202 O200 1.247 . S
C202 O201 1.208 . S
C203 O208 1.247 . S
C203 O209 1.208 . S
C204 O196 1.315 . S
C204 O199 1.279 . S
C205 O206 1.315 . S
C205 O207 1.279 . S
O206 Cd198 2.223 . S
O206 C205 1.315 . S
O207 Cd197 2.240 . S
O207 C205 1.279 . S
O208 Cd198 2.297 . S
O208 C203 1.247 . S
O209 Cd198 2.439 . S
O209 C203 1.208 . S
O210 Cd211 2.223 . S
O210 C218 1.315 . S
Cd211 O210 2.223 . S
Cd211 O214 2.297 . S
Cd211 O215 2.439 . S
Cd211 O221 2.240 . S
Cd212 O213 2.240 . S
Cd212 O220 2.223 . S
Cd212 O222 2.297 . S
Cd212 O223 2.439 . S
O213 Cd212 2.240 . S
O213 C218 1.279 . S
O214 Cd211 2.297 . S
O214 C216 1.247 . S
O215 Cd211 2.439 . S
O215 C216 1.208 . S
C216 O214 1.247 . S
C216 O215 1.208 . S
C217 O222 1.247 . S
C217 O223 1.208 . S
C218 O210 1.315 . S
C218 O213 1.279 . S
C219 O220 1.315 . S
C219 O221 1.279 . S
O220 Cd212 2.223 . S
O220 C219 1.315 . S
O221 Cd211 2.240 . S
O221 C219 1.279 . S
O222 Cd212 2.297 . S
O222 C217 1.247 . S
O223 Cd212 2.439 . S
O223 C217 1.208 . S
O224 Cd225 2.223 . S
O224 C232 1.315 . S
Cd225 O224 2.223 . S
Cd225 O228 2.297 1_545 S
Cd225 O229 2.439 1_545 S
Cd225 O235 2.240 . S
Cd226 O227 2.240 . S
Cd226 O234 2.223 . S
Cd226 O236 2.297 . S
Cd226 O237 2.439 . S
O227 Cd226 2.240 . S
O227 C232 1.279 . S
O228 Cd225 2.297 1_565 S
O228 C230 1.247 . S
O229 Cd225 2.439 1_565 S
O229 C230 1.208 . S
C230 O228 1.247 . S
C230 O229 1.208 . S
C231 O236 1.247 . S
C231 O237 1.208 . S
C232 O224 1.315 . S
C232 O227 1.279 . S
C233 O234 1.315 . S
C233 O235 1.279 . S
O234 Cd226 2.223 . S
O234 C233 1.315 . S
O235 Cd225 2.240 . S
O235 C233 1.279 . S
O236 Cd226 2.297 . S
O236 C231 1.247 . S
O237 Cd226 2.439 . S
O237 C231 1.208 . S
O238 Cd239 2.223 . S
O238 C246 1.315 . S
Cd239 O238 2.223 . S
Cd239 O242 2.297 . S
Cd239 O243 2.439 . S
Cd239 O249 2.240 . S
Cd240 O241 2.240 . S
Cd240 O248 2.223 . S
Cd240 O250 2.297 1_655 S
Cd240 O251 2.439 1_655 S
O241 Cd240 2.240 . S
O241 C246 1.279 . S
O242 Cd239 2.297 . S
O242 C244 1.247 . S
O243 Cd239 2.439 . S
O243 C244 1.208 . S
C244 O242 1.247 . S
C244 O243 1.208 . S
C245 O250 1.247 . S
C245 O251 1.208 . S
C246 O238 1.315 . S
C246 O241 1.279 . S
C247 O248 1.315 . S
C247 O249 1.279 . S
O248 Cd240 2.223 . S
O248 C247 1.315 . S
O249 Cd239 2.240 . S
O249 C247 1.279 . S
O250 Cd240 2.297 1_455 S
O250 C245 1.247 . S
O251 Cd240 2.439 1_455 S
O251 C245 1.208 . S
H252 C271 0.949 . S
H253 C272 0.950 . S
H254 C274 0.950 . S
H255 C275 0.950 . S
H256 C277 0.950 . S
H257 C280 0.950 . S
H258 C281 0.950 . S
H259 C283 0.951 . S
H260 C284 0.949 . S
H261 C286 0.949 . S
H262 C287 0.950 . S
H263 C289 0.950 . S
H264 C290 0.950 . S
H265 C292 0.950 . S
H266 C295 0.950 . S
H267 C296 0.950 . S
H268 C298 0.951 . S
H269 C299 0.949 . S
C270 C271 1.376 . S
C270 C275 1.386 . S
C270 C276 1.483 . S
C271 H252 0.949 . S
C271 C270 1.376 . S
C271 C272 1.397 . S
C272 H253 0.950 . S
C272 C271 1.397 . S
C272 C273 1.391 . S
C273 C272 1.391 . S
C273 C274 1.405 . S
C274 H254 0.950 . S
C274 C273 1.405 . S
C274 C275 1.367 . S
C275 H255 0.950 . S
C275 C270 1.386 . S
C275 C274 1.367 . S
C276 C270 1.483 . S
C276 C277 1.382 . S
C276 C278 1.403 . S
C277 H256 0.950 . S
C277 C276 1.382 . S
C277 C293 1.411 . S
C278 C276 1.403 . S
C278 C279 1.489 . S
C278 C292 1.411 . S
C279 C278 1.489 . S
C279 C280 1.383 . S
C279 C284 1.382 . S
C280 H257 0.950 . S
C280 C279 1.383 . S
C280 C281 1.395 . S
C281 H258 0.950 . S
C281 C280 1.395 . S
C281 C282 1.288 . S
C282 C281 1.288 . S
C282 C283 1.392 . S
C283 H259 0.951 . S
C283 C282 1.392 . S
C283 C284 1.392 . S
C284 H260 0.949 . S
C284 C279 1.382 . S
C284 C283 1.392 . S
C285 C286 1.376 . S
C285 C290 1.386 . S
C285 C291 1.483 . S
C286 H261 0.949 . S
C286 C285 1.376 . S
C286 C287 1.397 . S
C287 H262 0.950 . S
C287 C286 1.397 . S
C287 C288 1.391 . S
C288 C287 1.391 . S
C288 C289 1.405 . S
C289 H263 0.950 . S
C289 C288 1.405 . S
C289 C290 1.367 . S
C290 H264 0.950 . S
C290 C285 1.386 . S
C290 C289 1.367 . S
C291 C285 1.483 . S
C291 C292 1.382 . S
C291 C293 1.403 . S
C292 H265 0.950 . S
C292 C278 1.411 . S
C292 C291 1.382 . S
C293 C277 1.411 . S
C293 C291 1.403 . S
C293 C294 1.489 . S
C294 C293 1.489 . S
C294 C295 1.383 . S
C294 C299 1.382 . S
C295 H266 0.950 . S
C295 C294 1.383 . S
C295 C296 1.395 . S
C296 H267 0.950 . S
C296 C295 1.395 . S
C296 C297 1.288 . S
C297 C296 1.288 . S
C297 C298 1.392 . S
C298 H268 0.951 . S
C298 C297 1.392 . S
C298 C299 1.392 . S
C299 H269 0.949 . S
C299 C294 1.382 . S
C299 C298 1.392 . S
H300 C319 0.949 . S
H301 C320 0.950 . S
H302 C322 0.950 . S
H303 C323 0.950 . S
H304 C325 0.950 . S
H305 C328 0.950 . S
H306 C329 0.950 . S
H307 C331 0.951 . S
H308 C332 0.949 . S
H309 C334 0.949 . S
H310 C335 0.950 . S
H311 C337 0.950 . S
H312 C338 0.950 . S
H313 C340 0.950 . S
H314 C343 0.950 . S
H315 C344 0.950 . S
H316 C346 0.951 . S
H317 C347 0.949 . S
C318 C319 1.376 . S
C318 C323 1.386 . S
C318 C324 1.483 . S
C319 H300 0.949 . S
C319 C318 1.376 . S
C319 C320 1.397 . S
C320 H301 0.950 . S
C320 C319 1.397 . S
C320 C321 1.391 . S
C321 C320 1.391 . S
C321 C322 1.405 . S
C322 H302 0.950 . S
C322 C321 1.405 . S
C322 C323 1.367 . S
C323 H303 0.950 . S
C323 C318 1.386 . S
C323 C322 1.367 . S
C324 C318 1.483 . S
C324 C325 1.382 . S
C324 C326 1.403 . S
C325 H304 0.950 . S
C325 C324 1.382 . S
C325 C341 1.411 . S
C326 C324 1.403 . S
C326 C327 1.489 . S
C326 C340 1.411 . S
C327 C326 1.489 . S
C327 C328 1.383 . S
C327 C332 1.382 . S
C328 H305 0.950 . S
C328 C327 1.383 . S
C328 C329 1.395 . S
C329 H306 0.950 . S
C329 C328 1.395 . S
C329 C330 1.288 . S
C330 C329 1.288 . S
C330 C331 1.392 . S
C331 H307 0.951 . S
C331 C330 1.392 . S
C331 C332 1.392 . S
C332 H308 0.949 . S
C332 C327 1.382 . S
C332 C331 1.392 . S
C333 C334 1.376 . S
C333 C338 1.386 . S
C333 C339 1.483 . S
C334 H309 0.949 . S
C334 C333 1.376 . S
C334 C335 1.397 . S
C335 H310 0.950 . S
C335 C334 1.397 . S
C335 C336 1.391 . S
C336 C335 1.391 . S
C336 C337 1.405 . S
C337 H311 0.950 . S
C337 C336 1.405 . S
C337 C338 1.367 . S
C338 H312 0.950 . S
C338 C333 1.386 . S
C338 C337 1.367 . S
C339 C333 1.483 . S
C339 C340 1.382 . S
C339 C341 1.403 . S
C340 H313 0.950 . S
C340 C326 1.411 . S
C340 C339 1.382 . S
C341 C325 1.411 . S
C341 C339 1.403 . S
C341 C342 1.489 . S
C342 C341 1.489 . S
C342 C343 1.383 . S
C342 C347 1.382 . S
C343 H314 0.950 . S
C343 C342 1.383 . S
C343 C344 1.395 . S
C344 H315 0.950 . S
C344 C343 1.395 . S
C344 C345 1.288 . S
C345 C344 1.288 . S
C345 C346 1.392 . S
C346 H316 0.951 . S
C346 C345 1.392 . S
C346 C347 1.392 . S
C347 H317 0.949 . S
C347 C342 1.382 . S
C347 C346 1.392 . S
H348 C367 0.949 . S
H349 C368 0.950 . S
H350 C370 0.950 . S
H351 C371 0.950 . S
H352 C373 0.950 . S
H353 C376 0.950 . S
H354 C377 0.950 . S
H355 C379 0.951 . S
H356 C380 0.949 . S
H357 C382 0.949 . S
H358 C383 0.950 . S
H359 C385 0.950 . S
H360 C386 0.950 . S
H361 C388 0.950 . S
H362 C391 0.950 . S
H363 C392 0.950 . S
H364 C394 0.951 . S
H365 C395 0.949 . S
C366 C367 1.376 . S
C366 C371 1.386 . S
C366 C372 1.483 . S
C367 H348 0.949 . S
C367 C366 1.376 . S
C367 C368 1.397 . S
C368 H349 0.950 . S
C368 C367 1.397 . S
C368 C369 1.391 . S
C369 C368 1.391 . S
C369 C370 1.405 . S
C370 H350 0.950 . S
C370 C369 1.405 . S
C370 C371 1.367 . S
C371 H351 0.950 . S
C371 C366 1.386 . S
C371 C370 1.367 . S
C372 C366 1.483 . S
C372 C373 1.382 . S
C372 C374 1.403 . S
C373 H352 0.950 . S
C373 C372 1.382 . S
C373 C389 1.411 . S
C374 C372 1.403 . S
C374 C375 1.489 . S
C374 C388 1.411 . S
C375 C374 1.489 . S
C375 C376 1.383 . S
C375 C380 1.382 . S
C376 H353 0.950 . S
C376 C375 1.383 . S
C376 C377 1.395 . S
C377 H354 0.950 . S
C377 C376 1.395 . S
C377 C378 1.288 . S
C378 C377 1.288 . S
C378 C379 1.392 . S
C379 H355 0.951 . S
C379 C378 1.392 . S
C379 C380 1.392 . S
C380 H356 0.949 . S
C380 C375 1.382 . S
C380 C379 1.392 . S
C381 C382 1.376 . S
C381 C386 1.386 . S
C381 C387 1.483 . S
C382 H357 0.949 . S
C382 C381 1.376 . S
C382 C383 1.397 . S
C383 H358 0.950 . S
C383 C382 1.397 . S
C383 C384 1.391 . S
C384 C383 1.391 . S
C384 C385 1.405 . S
C385 H359 0.950 . S
C385 C384 1.405 . S
C385 C386 1.367 . S
C386 H360 0.950 . S
C386 C381 1.386 . S
C386 C385 1.367 . S
C387 C381 1.483 . S
C387 C388 1.382 . S
C387 C389 1.403 . S
C388 H361 0.950 . S
C388 C374 1.411 . S
C388 C387 1.382 . S
C389 C373 1.411 . S
C389 C387 1.403 . S
C389 C390 1.489 . S
C390 C389 1.489 . S
C390 C391 1.383 . S
C390 C395 1.382 . S
C391 H362 0.950 . S
C391 C390 1.383 . S
C391 C392 1.395 . S
C392 H363 0.950 . S
C392 C391 1.395 . S
C392 C393 1.288 . S
C393 C392 1.288 . S
C393 C394 1.392 . S
C394 H364 0.951 . S
C394 C393 1.392 . S
C394 C395 1.392 . S
C395 H365 0.949 . S
C395 C390 1.382 . S
C395 C394 1.392 . S
H396 C415 0.949 . S
H397 C416 0.950 . S
H398 C418 0.950 . S
H399 C419 0.950 . S
H400 C421 0.950 . S
H401 C424 0.950 . S
H402 C425 0.950 . S
H403 C427 0.951 . S
H404 C428 0.949 . S
H405 C430 0.949 . S
H406 C431 0.950 . S
H407 C433 0.950 . S
H408 C434 0.950 . S
H409 C436 0.950 . S
H410 C439 0.950 . S
H411 C440 0.950 . S
H412 C442 0.951 . S
H413 C443 0.949 . S
C414 C415 1.376 . S
C414 C419 1.386 . S
C414 C420 1.483 . S
C415 H396 0.949 . S
C415 C414 1.376 . S
C415 C416 1.397 . S
C416 H397 0.950 . S
C416 C415 1.397 . S
C416 C417 1.391 . S
C417 C416 1.391 . S
C417 C418 1.405 . S
C418 H398 0.950 . S
C418 C417 1.405 . S
C418 C419 1.367 . S
C419 H399 0.950 . S
C419 C414 1.386 . S
C419 C418 1.367 . S
C420 C414 1.483 . S
C420 C421 1.382 . S
C420 C422 1.403 . S
C421 H400 0.950 . S
C421 C420 1.382 . S
C421 C437 1.411 . S
C422 C420 1.403 . S
C422 C423 1.489 . S
C422 C436 1.411 . S
C423 C422 1.489 . S
C423 C424 1.383 . S
C423 C428 1.382 . S
C424 H401 0.950 . S
C424 C423 1.383 . S
C424 C425 1.395 . S
C425 H402 0.950 . S
C425 C424 1.395 . S
C425 C426 1.288 . S
C426 C425 1.288 . S
C426 C427 1.392 . S
C427 H403 0.951 . S
C427 C426 1.392 . S
C427 C428 1.392 . S
C428 H404 0.949 . S
C428 C423 1.382 . S
C428 C427 1.392 . S
C429 C430 1.376 . S
C429 C434 1.386 . S
C429 C435 1.483 . S
C430 H405 0.949 . S
C430 C429 1.376 . S
C430 C431 1.397 . S
C431 H406 0.950 . S
C431 C430 1.397 . S
C431 C432 1.391 . S
C432 C431 1.391 . S
C432 C433 1.405 . S
C433 H407 0.950 . S
C433 C432 1.405 . S
C433 C434 1.367 . S
C434 H408 0.950 . S
C434 C429 1.386 . S
C434 C433 1.367 . S
C435 C429 1.483 . S
C435 C436 1.382 . S
C435 C437 1.403 . S
C436 H409 0.950 . S
C436 C422 1.411 . S
C436 C435 1.382 . S
C437 C421 1.411 . S
C437 C435 1.403 . S
C437 C438 1.489 . S
C438 C437 1.489 . S
C438 C439 1.383 . S
C438 C443 1.382 . S
C439 H410 0.950 . S
C439 C438 1.383 . S
C439 C440 1.395 . S
C440 H411 0.950 . S
C440 C439 1.395 . S
C440 C441 1.288 . S
C441 C440 1.288 . S
C441 C442 1.392 . S
C442 H412 0.951 . S
C442 C441 1.392 . S
C442 C443 1.392 . S
C443 H413 0.949 . S
C443 C438 1.382 . S
C443 C442 1.392 . S
H444 C463 0.949 . S
H445 C464 0.950 . S
H446 C466 0.950 . S
H447 C467 0.950 . S
H448 C469 0.950 . S
H449 C472 0.950 . S
H450 C473 0.950 . S
H451 C475 0.951 . S
H452 C476 0.949 . S
H453 C478 0.949 . S
H454 C479 0.950 . S
H455 C481 0.950 . S
H456 C482 0.950 . S
H457 C484 0.950 . S
H458 C487 0.950 . S
H459 C488 0.950 . S
H460 C490 0.951 . S
H461 C491 0.949 . S
C462 C463 1.376 . S
C462 C467 1.386 . S
C462 C468 1.483 . S
C463 H444 0.949 . S
C463 C462 1.376 . S
C463 C464 1.397 . S
C464 H445 0.950 . S
C464 C463 1.397 . S
C464 C465 1.391 . S
C465 C464 1.391 . S
C465 C466 1.405 . S
C466 H446 0.950 . S
C466 C465 1.405 . S
C466 C467 1.367 . S
C467 H447 0.950 . S
C467 C462 1.386 . S
C467 C466 1.367 . S
C468 C462 1.483 . S
C468 C469 1.382 . S
C468 C470 1.403 . S
C469 H448 0.950 . S
C469 C468 1.382 . S
C469 C485 1.411 . S
C470 C468 1.403 . S
C470 C471 1.489 . S
C470 C484 1.411 . S
C471 C470 1.489 . S
C471 C472 1.383 . S
C471 C476 1.382 . S
C472 H449 0.950 . S
C472 C471 1.383 . S
C472 C473 1.395 . S
C473 H450 0.950 . S
C473 C472 1.395 . S
C473 C474 1.288 . S
C474 C473 1.288 . S
C474 C475 1.392 . S
C475 H451 0.951 . S
C475 C474 1.392 . S
C475 C476 1.392 . S
C476 H452 0.949 . S
C476 C471 1.382 . S
C476 C475 1.392 . S
C477 C478 1.376 . S
C477 C482 1.386 . S
C477 C483 1.483 . S
C478 H453 0.949 . S
C478 C477 1.376 . S
C478 C479 1.397 . S
C479 H454 0.950 . S
C479 C478 1.397 . S
C479 C480 1.391 . S
C480 C479 1.391 . S
C480 C481 1.405 . S
C481 H455 0.950 . S
C481 C480 1.405 . S
C481 C482 1.367 . S
C482 H456 0.950 . S
C482 C477 1.386 . S
C482 C481 1.367 . S
C483 C477 1.483 . S
C483 C484 1.382 . S
C483 C485 1.403 . S
C484 H457 0.950 . S
C484 C470 1.411 . S
C484 C483 1.382 . S
C485 C469 1.411 . S
C485 C483 1.403 . S
C485 C486 1.489 . S
C486 C485 1.489 . S
C486 C487 1.383 . S
C486 C491 1.382 . S
C487 H458 0.950 . S
C487 C486 1.383 . S
C487 C488 1.395 . S
C488 H459 0.950 . S
C488 C487 1.395 . S
C488 C489 1.288 . S
C489 C488 1.288 . S
C489 C490 1.392 . S
C490 H460 0.951 . S
C490 C489 1.392 . S
C490 C491 1.392 . S
C491 H461 0.949 . S
C491 C486 1.382 . S
C491 C490 1.392 . S
H492 C511 0.949 . S
H493 C512 0.950 . S
H494 C514 0.950 . S
H495 C515 0.950 . S
H496 C517 0.950 . S
H497 C520 0.950 . S
H498 C521 0.950 . S
H499 C523 0.951 . S
H500 C524 0.949 . S
H501 C526 0.949 . S
H502 C527 0.950 . S
H503 C529 0.950 . S
H504 C530 0.950 . S
H505 C532 0.950 . S
H506 C535 0.950 . S
H507 C536 0.950 . S
H508 C538 0.951 . S
H509 C539 0.949 . S
C510 C511 1.376 . S
C510 C515 1.386 . S
C510 C516 1.483 . S
C511 H492 0.949 . S
C511 C510 1.376 . S
C511 C512 1.397 . S
C512 H493 0.950 . S
C512 C511 1.397 . S
C512 C513 1.391 . S
C513 C512 1.391 . S
C513 C514 1.405 . S
C514 H494 0.950 . S
C514 C513 1.405 . S
C514 C515 1.367 . S
C515 H495 0.950 . S
C515 C510 1.386 . S
C515 C514 1.367 . S
C516 C510 1.483 . S
C516 C517 1.382 . S
C516 C518 1.403 . S
C517 H496 0.950 . S
C517 C516 1.382 . S
C517 C533 1.411 . S
C518 C516 1.403 . S
C518 C519 1.489 . S
C518 C532 1.411 . S
C519 C518 1.489 . S
C519 C520 1.383 . S
C519 C524 1.382 . S
C520 H497 0.950 . S
C520 C519 1.383 . S
C520 C521 1.395 . S
C521 H498 0.950 . S
C521 C520 1.395 . S
C521 C522 1.288 . S
C522 C521 1.288 . S
C522 C523 1.392 . S
C523 H499 0.951 . S
C523 C522 1.392 . S
C523 C524 1.392 . S
C524 H500 0.949 . S
C524 C519 1.382 . S
C524 C523 1.392 . S
C525 C526 1.376 . S
C525 C530 1.386 . S
C525 C531 1.483 . S
C526 H501 0.949 . S
C526 C525 1.376 . S
C526 C527 1.397 . S
C527 H502 0.950 . S
C527 C526 1.397 . S
C527 C528 1.391 . S
C528 C527 1.391 . S
C528 C529 1.405 . S
C529 H503 0.950 . S
C529 C528 1.405 . S
C529 C530 1.367 . S
C530 H504 0.950 . S
C530 C525 1.386 . S
C530 C529 1.367 . S
C531 C525 1.483 . S
C531 C532 1.382 . S
C531 C533 1.403 . S
C532 H505 0.950 . S
C532 C518 1.411 . S
C532 C531 1.382 . S
C533 C517 1.411 . S
C533 C531 1.403 . S
C533 C534 1.489 . S
C534 C533 1.489 . S
C534 C535 1.383 . S
C534 C539 1.382 . S
C535 H506 0.950 . S
C535 C534 1.383 . S
C535 C536 1.395 . S
C536 H507 0.950 . S
C536 C535 1.395 . S
C536 C537 1.288 . S
C537 C536 1.288 . S
C537 C538 1.392 . S
C538 H508 0.951 . S
C538 C537 1.392 . S
C538 C539 1.392 . S
C539 H509 0.949 . S
C539 C534 1.382 . S
C539 C538 1.392 . S
H540 C559 0.949 . S
H541 C560 0.950 . S
H542 C562 0.950 . S
H543 C563 0.950 . S
H544 C565 0.950 . S
H545 C568 0.950 . S
H546 C569 0.950 . S
H547 C571 0.951 . S
H548 C572 0.949 . S
H549 C574 0.949 . S
H550 C575 0.950 . S
H551 C577 0.950 . S
H552 C578 0.950 . S
H553 C580 0.950 . S
H554 C583 0.950 . S
H555 C584 0.950 . S
H556 C586 0.951 . S
H557 C587 0.949 . S
C558 C559 1.376 . S
C558 C563 1.386 . S
C558 C564 1.483 . S
C559 H540 0.949 . S
C559 C558 1.376 . S
C559 C560 1.397 . S
C560 H541 0.950 . S
C560 C559 1.397 . S
C560 C561 1.391 . S
C561 C560 1.391 . S
C561 C562 1.405 . S
C562 H542 0.950 . S
C562 C561 1.405 . S
C562 C563 1.367 . S
C563 H543 0.950 . S
C563 C558 1.386 . S
C563 C562 1.367 . S
C564 C558 1.483 . S
C564 C565 1.382 . S
C564 C566 1.403 . S
C565 H544 0.950 . S
C565 C564 1.382 . S
C565 C581 1.411 . S
C566 C564 1.403 . S
C566 C567 1.489 . S
C566 C580 1.411 . S
C567 C566 1.489 . S
C567 C568 1.383 . S
C567 C572 1.382 . S
C568 H545 0.950 . S
C568 C567 1.383 . S
C568 C569 1.395 . S
C569 H546 0.950 . S
C569 C568 1.395 . S
C569 C570 1.288 . S
C570 C569 1.288 . S
C570 C571 1.392 . S
C571 H547 0.951 . S
C571 C570 1.392 . S
C571 C572 1.392 . S
C572 H548 0.949 . S
C572 C567 1.382 . S
C572 C571 1.392 . S
C573 C574 1.376 . S
C573 C578 1.386 . S
C573 C579 1.483 . S
C574 H549 0.949 . S
C574 C573 1.376 . S
C574 C575 1.397 . S
C575 H550 0.950 . S
C575 C574 1.397 . S
C575 C576 1.391 . S
C576 C575 1.391 . S
C576 C577 1.405 . S
C577 H551 0.950 . S
C577 C576 1.405 . S
C577 C578 1.367 . S
C578 H552 0.950 . S
C578 C573 1.386 . S
C578 C577 1.367 . S
C579 C573 1.483 . S
C579 C580 1.382 . S
C579 C581 1.403 . S
C580 H553 0.950 . S
C580 C566 1.411 . S
C580 C579 1.382 . S
C581 C565 1.411 . S
C581 C579 1.403 . S
C581 C582 1.489 . S
C582 C581 1.489 . S
C582 C583 1.383 . S
C582 C587 1.382 . S
C583 H554 0.950 . S
C583 C582 1.383 . S
C583 C584 1.395 . S
C584 H555 0.950 . S
C584 C583 1.395 . S
C584 C585 1.288 . S
C585 C584 1.288 . S
C585 C586 1.392 . S
C586 H556 0.951 . S
C586 C585 1.392 . S
C586 C587 1.392 . S
C587 H557 0.949 . S
C587 C582 1.382 . S
C587 C586 1.392 . S
H588 C607 0.949 . S
H589 C608 0.950 . S
H590 C610 0.950 . S
H591 C611 0.950 . S
H592 C613 0.950 . S
H593 C616 0.950 . S
H594 C617 0.950 . S
H595 C619 0.951 . S
H596 C620 0.949 . S
H597 C622 0.949 . S
H598 C623 0.950 . S
H599 C625 0.950 . S
H600 C626 0.950 . S
H601 C628 0.950 . S
H602 C631 0.950 . S
H603 C632 0.950 . S
H604 C634 0.951 . S
H605 C635 0.949 . S
C606 C607 1.376 . S
C606 C611 1.386 . S
C606 C612 1.483 . S
C607 H588 0.949 . S
C607 C606 1.376 . S
C607 C608 1.397 . S
C608 H589 0.950 . S
C608 C607 1.397 . S
C608 C609 1.391 . S
C609 C608 1.391 . S
C609 C610 1.405 . S
C610 H590 0.950 . S
C610 C609 1.405 . S
C610 C611 1.367 . S
C611 H591 0.950 . S
C611 C606 1.386 . S
C611 C610 1.367 . S
C612 C606 1.483 . S
C612 C613 1.382 . S
C612 C614 1.403 . S
C613 H592 0.950 . S
C613 C612 1.382 . S
C613 C629 1.411 . S
C614 C612 1.403 . S
C614 C615 1.489 . S
C614 C628 1.411 . S
C615 C614 1.489 . S
C615 C616 1.383 . S
C615 C620 1.382 . S
C616 H593 0.950 . S
C616 C615 1.383 . S
C616 C617 1.395 . S
C617 H594 0.950 . S
C617 C616 1.395 . S
C617 C618 1.288 . S
C618 C617 1.288 . S
C618 C619 1.392 . S
C619 H595 0.951 . S
C619 C618 1.392 . S
C619 C620 1.392 . S
C620 H596 0.949 . S
C620 C615 1.382 . S
C620 C619 1.392 . S
C621 C622 1.376 . S
C621 C626 1.386 . S
C621 C627 1.483 . S
C622 H597 0.949 . S
C622 C621 1.376 . S
C622 C623 1.397 . S
C623 H598 0.950 . S
C623 C622 1.397 . S
C623 C624 1.391 . S
C624 C623 1.391 . S
C624 C625 1.405 . S
C625 H599 0.950 . S
C625 C624 1.405 . S
C625 C626 1.367 . S
C626 H600 0.950 . S
C626 C621 1.386 . S
C626 C625 1.367 . S
C627 C621 1.483 . S
C627 C628 1.382 . S
C627 C629 1.403 . S
C628 H601 0.950 . S
C628 C614 1.411 . S
C628 C627 1.382 . S
C629 C613 1.411 . S
C629 C627 1.403 . S
C629 C630 1.489 . S
C630 C629 1.489 . S
C630 C631 1.383 . S
C630 C635 1.382 . S
C631 H602 0.950 . S
C631 C630 1.383 . S
C631 C632 1.395 . S
C632 H603 0.950 . S
C632 C631 1.395 . S
C632 C633 1.288 . S
C633 C632 1.288 . S
C633 C634 1.392 . S
C634 H604 0.951 . S
C634 C633 1.392 . S
C634 C635 1.392 . S
C635 H605 0.949 . S
C635 C630 1.382 . S
C635 C634 1.392 . S
H636 C655 0.949 . S
H637 C656 0.950 . S
H638 C658 0.950 . S
H639 C659 0.950 . S
H640 C661 0.950 . S
H641 C664 0.950 . S
H642 C665 0.950 . S
H643 C667 0.951 . S
H644 C668 0.949 . S
H645 C670 0.949 . S
H646 C671 0.950 . S
H647 C673 0.950 . S
H648 C674 0.950 . S
H649 C676 0.950 . S
H650 C679 0.950 . S
H651 C680 0.950 . S
H652 C682 0.951 . S
H653 C683 0.949 . S
C654 C655 1.376 . S
C654 C659 1.386 . S
C654 C660 1.483 . S
C655 H636 0.949 . S
C655 C654 1.376 . S
C655 C656 1.397 . S
C656 H637 0.950 . S
C656 C655 1.397 . S
C656 C657 1.391 . S
C657 C656 1.391 . S
C657 C658 1.405 . S
C658 H638 0.950 . S
C658 C657 1.405 . S
C658 C659 1.367 . S
C659 H639 0.950 . S
C659 C654 1.386 . S
C659 C658 1.367 . S
C660 C654 1.483 . S
C660 C661 1.382 . S
C660 C662 1.403 . S
C661 H640 0.950 . S
C661 C660 1.382 . S
C661 C677 1.411 . S
C662 C660 1.403 . S
C662 C663 1.489 . S
C662 C676 1.411 . S
C663 C662 1.489 . S
C663 C664 1.383 . S
C663 C668 1.382 . S
C664 H641 0.950 . S
C664 C663 1.383 . S
C664 C665 1.395 . S
C665 H642 0.950 . S
C665 C664 1.395 . S
C665 C666 1.288 . S
C666 C665 1.288 . S
C666 C667 1.392 . S
C667 H643 0.951 . S
C667 C666 1.392 . S
C667 C668 1.392 . S
C668 H644 0.949 . S
C668 C663 1.382 . S
C668 C667 1.392 . S
C669 C670 1.376 . S
C669 C674 1.386 . S
C669 C675 1.483 . S
C670 H645 0.949 . S
C670 C669 1.376 . S
C670 C671 1.397 . S
C671 H646 0.950 . S
C671 C670 1.397 . S
C671 C672 1.391 . S
C672 C671 1.391 . S
C672 C673 1.405 . S
C673 H647 0.950 . S
C673 C672 1.405 . S
C673 C674 1.367 . S
C674 H648 0.950 . S
C674 C669 1.386 . S
C674 C673 1.367 . S
C675 C669 1.483 . S
C675 C676 1.382 . S
C675 C677 1.403 . S
C676 H649 0.950 . S
C676 C662 1.411 . S
C676 C675 1.382 . S
C677 C661 1.411 . S
C677 C675 1.403 . S
C677 C678 1.489 . S
C678 C677 1.489 . S
C678 C679 1.383 . S
C678 C683 1.382 . S
C679 H650 0.950 . S
C679 C678 1.383 . S
C679 C680 1.395 . S
C680 H651 0.950 . S
C680 C679 1.395 . S
C680 C681 1.288 . S
C681 C680 1.288 . S
C681 C682 1.392 . S
C682 H652 0.951 . S
C682 C681 1.392 . S
C682 C683 1.392 . S
C683 H653 0.949 . S
C683 C678 1.382 . S
C683 C682 1.392 . S
H684 C703 0.949 . S
H685 C704 0.950 . S
H686 C706 0.950 . S
H687 C707 0.950 . S
H688 C709 0.950 . S
H689 C712 0.950 . S
H690 C713 0.950 . S
H691 C715 0.951 . S
H692 C716 0.949 . S
H693 C718 0.949 . S
H694 C719 0.950 . S
H695 C721 0.950 . S
H696 C722 0.950 . S
H697 C724 0.950 . S
H698 C727 0.950 . S
H699 C728 0.950 . S
H700 C730 0.951 . S
H701 C731 0.949 . S
C702 C703 1.376 . S
C702 C707 1.386 1_655 S
C702 C708 1.483 . S
C703 H684 0.949 . S
C703 C702 1.376 . S
C703 C704 1.397 . S
C704 H685 0.950 . S
C704 C703 1.397 . S
C704 C705 1.391 . S
C705 C704 1.391 . S
C705 C706 1.405 1_655 S
C706 H686 0.950 . S
C706 C705 1.405 1_455 S
C706 C707 1.367 . S
C707 H687 0.950 . S
C707 C702 1.386 1_455 S
C707 C706 1.367 . S
C708 C702 1.483 . S
C708 C709 1.382 . S
C708 C710 1.403 1_655 S
C709 H688 0.950 . S
C709 C708 1.382 . S
C709 C725 1.411 . S
C710 C708 1.403 1_455 S
C710 C711 1.489 . S
C710 C724 1.411 . S
C711 C710 1.489 . S
C711 C712 1.383 1_455 S
C711 C716 1.382 . S
C712 H689 0.950 . S
C712 C711 1.383 1_655 S
C712 C713 1.395 . S
C713 H690 0.950 . S
C713 C712 1.395 . S
C713 C714 1.288 1_655 S
C714 C713 1.288 1_455 S
C714 C715 1.392 . S
C715 H691 0.951 . S
C715 C714 1.392 . S
C715 C716 1.392 . S
C716 H692 0.949 . S
C716 C711 1.382 . S
C716 C715 1.392 . S
C717 C718 1.376 . S
C717 C722 1.386 1_455 S
C717 C723 1.483 . S
C718 H693 0.949 . S
C718 C717 1.376 . S
C718 C719 1.397 . S
C719 H694 0.950 . S
C719 C718 1.397 . S
C719 C720 1.391 . S
C720 C719 1.391 . S
C720 C721 1.405 1_455 S
C721 H695 0.950 . S
C721 C720 1.405 1_655 S
C721 C722 1.367 . S
C722 H696 0.950 . S
C722 C717 1.386 1_655 S
C722 C721 1.367 . S
C723 C717 1.483 . S
C723 C724 1.382 . S
C723 C725 1.403 1_455 S
C724 H697 0.950 . S
C724 C710 1.411 . S
C724 C723 1.382 . S
C725 C709 1.411 . S
C725 C723 1.403 1_655 S
C725 C726 1.489 . S
C726 C725 1.489 . S
C726 C727 1.383 1_655 S
C726 C731 1.382 . S
C727 H698 0.950 . S
C727 C726 1.383 1_455 S
C727 C728 1.395 . S
C728 H699 0.950 . S
C728 C727 1.395 . S
C728 C729 1.288 1_455 S
C729 C728 1.288 1_655 S
C729 C730 1.392 . S
C730 H700 0.951 . S
C730 C729 1.392 . S
C730 C731 1.392 . S
C731 H701 0.949 . S
C731 C726 1.382 . S
C731 C730 1.392 . S
H732 C751 0.949 . S
H733 C752 0.950 . S
H734 C754 0.950 . S
H735 C755 0.950 . S
H736 C757 0.950 . S
H737 C760 0.950 . S
H738 C761 0.950 . S
H739 C763 0.951 . S
H740 C764 0.949 . S
H741 C766 0.949 . S
H742 C767 0.950 . S
H743 C769 0.950 . S
H744 C770 0.950 . S
H745 C772 0.950 . S
H746 C775 0.950 . S
H747 C776 0.950 . S
H748 C778 0.951 . S
H749 C779 0.949 . S
C750 C751 1.376 . S
C750 C755 1.386 . S
C750 C756 1.483 . S
C751 H732 0.949 . S
C751 C750 1.376 . S
C751 C752 1.397 . S
C752 H733 0.950 . S
C752 C751 1.397 . S
C752 C753 1.391 . S
C753 C752 1.391 . S
C753 C754 1.405 . S
C754 H734 0.950 . S
C754 C753 1.405 . S
C754 C755 1.367 . S
C755 H735 0.950 . S
C755 C750 1.386 . S
C755 C754 1.367 . S
C756 C750 1.483 . S
C756 C757 1.382 . S
C756 C758 1.403 . S
C757 H736 0.950 . S
C757 C756 1.382 . S
C757 C773 1.411 . S
C758 C756 1.403 . S
C758 C759 1.489 . S
C758 C772 1.411 . S
C759 C758 1.489 . S
C759 C760 1.383 . S
C759 C764 1.382 . S
C760 H737 0.950 . S
C760 C759 1.383 . S
C760 C761 1.395 . S
C761 H738 0.950 . S
C761 C760 1.395 . S
C761 C762 1.288 . S
C762 C761 1.288 . S
C762 C763 1.392 . S
C763 H739 0.951 . S
C763 C762 1.392 . S
C763 C764 1.392 . S
C764 H740 0.949 . S
C764 C759 1.382 . S
C764 C763 1.392 . S
C765 C766 1.376 . S
C765 C770 1.386 . S
C765 C771 1.483 . S
C766 H741 0.949 . S
C766 C765 1.376 . S
C766 C767 1.397 . S
C767 H742 0.950 . S
C767 C766 1.397 . S
C767 C768 1.391 . S
C768 C767 1.391 . S
C768 C769 1.405 . S
C769 H743 0.950 . S
C769 C768 1.405 . S
C769 C770 1.367 . S
C770 H744 0.950 . S
C770 C765 1.386 . S
C770 C769 1.367 . S
C771 C765 1.483 . S
C771 C772 1.382 . S
C771 C773 1.403 . S
C772 H745 0.950 . S
C772 C758 1.411 . S
C772 C771 1.382 . S
C773 C757 1.411 . S
C773 C771 1.403 . S
C773 C774 1.489 . S
C774 C773 1.489 . S
C774 C775 1.383 . S
C774 C779 1.382 . S
C775 H746 0.950 . S
C775 C774 1.383 . S
C775 C776 1.395 . S
C776 H747 0.950 . S
C776 C775 1.395 . S
C776 C777 1.288 . S
C777 C776 1.288 . S
C777 C778 1.392 . S
C778 H748 0.951 . S
C778 C777 1.392 . S
C778 C779 1.392 . S
C779 H749 0.949 . S
C779 C774 1.382 . S
C779 C778 1.392 . S
H780 C799 0.949 . S
H781 C800 0.950 . S
H782 C802 0.950 . S
H783 C803 0.950 . S
H784 C805 0.950 . S
H785 C808 0.950 . S
H786 C809 0.950 . S
H787 C811 0.951 . S
H788 C812 0.949 . S
H789 C814 0.949 . S
H790 C815 0.950 . S
H791 C817 0.950 . S
H792 C818 0.950 . S
H793 C820 0.950 . S
H794 C823 0.950 . S
H795 C824 0.950 . S
H796 C826 0.951 . S
H797 C827 0.949 . S
C798 C799 1.376 . S
C798 C803 1.386 1_545 S
C798 C804 1.483 . S
C799 H780 0.949 . S
C799 C798 1.376 . S
C799 C800 1.397 . S
C800 H781 0.950 . S
C800 C799 1.397 . S
C800 C801 1.391 . S
C801 C800 1.391 . S
C801 C802 1.405 1_545 S
C802 H782 0.950 . S
C802 C801 1.405 1_565 S
C802 C803 1.367 . S
C803 H783 0.950 . S
C803 C798 1.386 1_565 S
C803 C802 1.367 . S
C804 C798 1.483 . S
C804 C805 1.382 . S
C804 C806 1.403 1_545 S
C805 H784 0.950 . S
C805 C804 1.382 . S
C805 C821 1.411 . S
C806 C804 1.403 1_565 S
C806 C807 1.489 . S
C806 C820 1.411 . S
C807 C806 1.489 . S
C807 C808 1.383 1_565 S
C807 C812 1.382 . S
C808 H785 0.950 . S
C808 C807 1.383 1_545 S
C808 C809 1.395 . S
C809 H786 0.950 . S
C809 C808 1.395 . S
C809 C810 1.288 1_545 S
C810 C809 1.288 1_565 S
C810 C811 1.392 . S
C811 H787 0.951 . S
C811 C810 1.392 . S
C811 C812 1.392 . S
C812 H788 0.949 . S
C812 C807 1.382 . S
C812 C811 1.392 . S
C813 C814 1.376 . S
C813 C818 1.386 1_565 S
C813 C819 1.483 . S
C814 H789 0.949 . S
C814 C813 1.376 . S
C814 C815 1.397 . S
C815 H790 0.950 . S
C815 C814 1.397 . S
C815 C816 1.391 . S
C816 C815 1.391 . S
C816 C817 1.405 1_565 S
C817 H791 0.950 . S
C817 C816 1.405 1_545 S
C817 C818 1.367 . S
C818 H792 0.950 . S
C818 C813 1.386 1_545 S
C818 C817 1.367 . S
C819 C813 1.483 . S
C819 C820 1.382 . S
C819 C821 1.403 1_565 S
C820 H793 0.950 . S
C820 C806 1.411 . S
C820 C819 1.382 . S
C821 C805 1.411 . S
C821 C819 1.403 1_545 S
C821 C822 1.489 . S
C822 C821 1.489 . S
C822 C823 1.383 1_545 S
C822 C827 1.382 . S
C823 H794 0.950 . S
C823 C822 1.383 1_565 S
C823 C824 1.395 . S
C824 H795 0.950 . S
C824 C823 1.395 . S
C824 C825 1.288 1_565 S
C825 C824 1.288 1_545 S
C825 C826 1.392 . S
C826 H796 0.951 . S
C826 C825 1.392 . S
C826 C827 1.392 . S
C827 H797 0.949 . S
C827 C822 1.382 . S
C827 C826 1.392 . S
H828 C847 0.949 . S
H829 C848 0.950 . S
H830 C850 0.950 . S
H831 C851 0.950 . S
H832 C853 0.950 . S
H833 C856 0.950 . S
H834 C857 0.950 . S
H835 C859 0.951 . S
H836 C860 0.949 . S
H837 C862 0.949 . S
H838 C863 0.950 . S
H839 C865 0.950 . S
H840 C866 0.950 . S
H841 C868 0.950 . S
H842 C871 0.950 . S
H843 C872 0.950 . S
H844 C874 0.951 . S
H845 C875 0.949 . S
C846 C847 1.390 . S
C846 C851 1.379 1_545 S
C846 C852 1.502 . S
C847 H828 0.949 . S
C847 C846 1.390 . S
C847 C848 1.397 . S
C848 H829 0.950 . S
C848 C847 1.397 . S
C848 C849 1.391 1_545 S
C849 C848 1.391 1_565 S
C849 C850 1.405 . S
C850 H830 0.950 . S
C850 C849 1.405 . S
C850 C851 1.367 . S
C851 H831 0.950 . S
C851 C846 1.379 1_565 S
C851 C850 1.367 . S
C852 C846 1.502 . S
C852 C853 1.357 . S
C852 C854 1.398 1_545 S
C853 H832 0.950 . S
C853 C852 1.357 . S
C853 C869 1.448 . S
C854 C852 1.398 1_565 S
C854 C855 1.487 . S
C854 C868 1.438 . S
C855 C854 1.487 . S
C855 C856 1.336 1_565 S
C855 C860 1.408 . S
C856 H833 0.950 . S
C856 C855 1.336 1_545 S
C856 C857 1.395 . S
C857 H834 0.950 . S
C857 C856 1.395 . S
C857 C858 1.327 . S
C858 C857 1.327 . S
C858 C859 1.317 1_545 S
C859 H835 0.951 . S
C859 C858 1.317 1_565 S
C859 C860 1.392 . S
C860 H836 0.949 . S
C860 C855 1.408 . S
C860 C859 1.392 . S
C861 C862 1.377 . S
C861 C866 1.386 1_565 S
C861 C867 1.502 . S
C862 H837 0.949 . S
C862 C861 1.377 . S
C862 C863 1.397 . S
C863 H838 0.950 . S
C863 C862 1.397 . S
C863 C864 1.391 1_565 S
C864 C863 1.391 1_545 S
C864 C865 1.405 . S
C865 H839 0.950 . S
C865 C864 1.405 . S
C865 C866 1.367 . S
C866 H840 0.950 . S
C866 C861 1.386 1_545 S
C866 C865 1.367 . S
C867 C861 1.502 . S
C867 C868 1.364 . S
C867 C869 1.398 1_565 S
C868 H841 0.950 . S
C868 C854 1.438 . S
C868 C867 1.364 . S
C869 C853 1.448 . S
C869 C867 1.398 1_545 S
C869 C870 1.487 . S
C870 C869 1.487 . S
C870 C871 1.319 1_545 S
C870 C875 1.418 . S
C871 H842 0.950 . S
C871 C870 1.319 1_565 S
C871 C872 1.395 . S
C872 H843 0.950 . S
C872 C871 1.395 . S
C872 C873 1.318 . S
C873 C872 1.318 . S
C873 C874 1.334 1_565 S
C874 H844 0.951 . S
C874 C873 1.334 1_545 S
C874 C875 1.392 . S
C875 H845 0.949 . S
C875 C870 1.418 . S
C875 C874 1.392 . S
H876 C895 0.949 . S
H877 C896 0.950 . S
H878 C898 0.950 . S
H879 C899 0.950 . S
H880 C901 0.950 . S
H881 C904 0.950 . S
H882 C905 0.950 . S
H883 C907 0.951 . S
H884 C908 0.949 . S
H885 C910 0.949 . S
H886 C911 0.950 . S
H887 C913 0.950 . S
H888 C914 0.950 . S
H889 C916 0.950 . S
H890 C919 0.950 . S
H891 C920 0.950 . S
H892 C922 0.951 . S
H893 C923 0.949 . S
C894 C895 1.376 . S
C894 C899 1.386 1_455 S
C894 C900 1.483 . S
C895 H876 0.949 . S
C895 C894 1.376 . S
C895 C896 1.397 . S
C896 H877 0.950 . S
C896 C895 1.397 . S
C896 C897 1.391 . S
C897 C896 1.391 . S
C897 C898 1.405 1_455 S
C898 H878 0.950 . S
C898 C897 1.405 1_655 S
C898 C899 1.367 . S
C899 H879 0.950 . S
C899 C894 1.386 1_655 S
C899 C898 1.367 . S
C900 C894 1.483 . S
C900 C901 1.382 . S
C900 C902 1.403 1_455 S
C901 H880 0.950 . S
C901 C900 1.382 . S
C901 C917 1.411 . S
C902 C900 1.403 1_655 S
C902 C903 1.489 . S
C902 C916 1.411 . S
C903 C902 1.489 . S
C903 C904 1.383 1_655 S
C903 C908 1.382 . S
C904 H881 0.950 . S
C904 C903 1.383 1_455 S
C904 C905 1.395 . S
C905 H882 0.950 . S
C905 C904 1.395 . S
C905 C906 1.288 1_455 S
C906 C905 1.288 1_655 S
C906 C907 1.392 . S
C907 H883 0.951 . S
C907 C906 1.392 . S
C907 C908 1.392 . S
C908 H884 0.949 . S
C908 C903 1.382 . S
C908 C907 1.392 . S
C909 C910 1.376 . S
C909 C914 1.386 1_655 S
C909 C915 1.483 . S
C910 H885 0.949 . S
C910 C909 1.376 . S
C910 C911 1.397 . S
C911 H886 0.950 . S
C911 C910 1.397 . S
C911 C912 1.391 . S
C912 C911 1.391 . S
C912 C913 1.405 1_655 S
C913 H887 0.950 . S
C913 C912 1.405 1_455 S
C913 C914 1.367 . S
C914 H888 0.950 . S
C914 C909 1.386 1_455 S
C914 C913 1.367 . S
C915 C909 1.483 . S
C915 C916 1.382 . S
C915 C917 1.403 1_655 S
C916 H889 0.950 . S
C916 C902 1.411 . S
C916 C915 1.382 . S
C917 C901 1.411 . S
C917 C915 1.403 1_455 S
C917 C918 1.489 . S
C918 C917 1.489 . S
C918 C919 1.383 1_455 S
C918 C923 1.382 . S
C919 H890 0.950 . S
C919 C918 1.383 1_655 S
C919 C920 1.395 . S
C920 H891 0.950 . S
C920 C919 1.395 . S
C920 C921 1.288 1_655 S
C921 C920 1.288 1_455 S
C921 C922 1.392 . S
C922 H892 0.951 . S
C922 C921 1.392 . S
C922 C923 1.392 . S
C923 H893 0.949 . S
C923 C918 1.382 . S
C923 C922 1.392 . S
H924 C943 0.949 . S
H925 C944 0.950 . S
H926 C946 0.950 . S
H927 C947 0.950 . S
H928 C949 0.950 . S
H929 C952 0.950 . S
H930 C953 0.950 . S
H931 C955 0.951 . S
H932 C956 0.949 . S
H933 C958 0.949 . S
H934 C959 0.950 . S
H935 C961 0.950 . S
H936 C962 0.950 . S
H937 C964 0.950 . S
H938 C967 0.950 . S
H939 C968 0.950 . S
H940 C970 0.951 . S
H941 C971 0.949 . S
C942 C943 1.376 . S
C942 C947 1.386 . S
C942 C948 1.483 . S
C943 H924 0.949 . S
C943 C942 1.376 . S
C943 C944 1.397 . S
C944 H925 0.950 . S
C944 C943 1.397 . S
C944 C945 1.391 . S
C945 C944 1.391 . S
C945 C946 1.405 . S
C946 H926 0.950 . S
C946 C945 1.405 . S
C946 C947 1.367 . S
C947 H927 0.950 . S
C947 C942 1.386 . S
C947 C946 1.367 . S
C948 C942 1.483 . S
C948 C949 1.382 . S
C948 C950 1.403 . S
C949 H928 0.950 . S
C949 C948 1.382 . S
C949 C965 1.411 . S
C950 C948 1.403 . S
C950 C951 1.489 . S
C950 C964 1.411 . S
C951 C950 1.489 . S
C951 C952 1.383 . S
C951 C956 1.382 . S
C952 H929 0.950 . S
C952 C951 1.383 . S
C952 C953 1.395 . S
C953 H930 0.950 . S
C953 C952 1.395 . S
C953 C954 1.288 . S
C954 C953 1.288 . S
C954 C955 1.392 . S
C955 H931 0.951 . S
C955 C954 1.392 . S
C955 C956 1.392 . S
C956 H932 0.949 . S
C956 C951 1.382 . S
C956 C955 1.392 . S
C957 C958 1.376 . S
C957 C962 1.386 . S
C957 C963 1.483 . S
C958 H933 0.949 . S
C958 C957 1.376 . S
C958 C959 1.397 . S
C959 H934 0.950 . S
C959 C958 1.397 . S
C959 C960 1.391 . S
C960 C959 1.391 . S
C960 C961 1.405 . S
C961 H935 0.950 . S
C961 C960 1.405 . S
C961 C962 1.367 . S
C962 H936 0.950 . S
C962 C957 1.386 . S
C962 C961 1.367 . S
C963 C957 1.483 . S
C963 C964 1.382 . S
C963 C965 1.403 . S
C964 H937 0.950 . S
C964 C950 1.411 . S
C964 C963 1.382 . S
C965 C949 1.411 . S
C965 C963 1.403 . S
C965 C966 1.489 . S
C966 C965 1.489 . S
C966 C967 1.383 . S
C966 C971 1.382 . S
C967 H938 0.950 . S
C967 C966 1.383 . S
C967 C968 1.395 . S
C968 H939 0.950 . S
C968 C967 1.395 . S
C968 C969 1.288 . S
C969 C968 1.288 . S
C969 C970 1.392 . S
C970 H940 0.951 . S
C970 C969 1.392 . S
C970 C971 1.392 . S
C971 H941 0.949 . S
C971 C966 1.382 . S
C971 C970 1.392 . S
H972 C991 0.949 . S
H973 C992 0.950 . S
H974 C994 0.950 . S
H975 C995 0.950 . S
H976 C997 0.950 . S
H977 C1000 0.950 . S
H978 C1001 0.950 . S
H979 C1003 0.951 . S
H980 C1004 0.949 . S
H981 C1006 0.949 . S
H982 C1007 0.950 . S
H983 C1009 0.950 . S
H984 C1010 0.950 . S
H985 C1012 0.950 . S
H986 C1015 0.950 . S
H987 C1016 0.950 . S
H988 C1018 0.951 . S
H989 C1019 0.949 . S
C990 C991 1.376 . S
C990 C995 1.386 . S
C990 C996 1.483 . S
C991 H972 0.949 . S
C991 C990 1.376 . S
C991 C992 1.397 . S
C992 H973 0.950 . S
C992 C991 1.397 . S
C992 C993 1.391 . S
C993 C992 1.391 . S
C993 C994 1.405 . S
C994 H974 0.950 . S
C994 C993 1.405 . S
C994 C995 1.367 . S
C995 H975 0.950 . S
C995 C990 1.386 . S
C995 C994 1.367 . S
C996 C990 1.483 . S
C996 C997 1.382 . S
C996 C998 1.403 . S
C997 H976 0.950 . S
C997 C996 1.382 . S
C997 C1013 1.411 . S
C998 C996 1.403 . S
C998 C999 1.489 . S
C998 C1012 1.411 . S
C999 C998 1.489 . S
C999 C1000 1.383 . S
C999 C1004 1.382 . S
C1000 H977 0.950 . S
C1000 C999 1.383 . S
C1000 C1001 1.395 . S
C1001 H978 0.950 . S
C1001 C1000 1.395 . S
C1001 C1002 1.288 . S
C1002 C1001 1.288 . S
C1002 C1003 1.392 . S
C1003 H979 0.951 . S
C1003 C1002 1.392 . S
C1003 C1004 1.392 . S
C1004 H980 0.949 . S
C1004 C999 1.382 . S
C1004 C1003 1.392 . S
C1005 C1006 1.376 . S
C1005 C1010 1.386 . S
C1005 C1011 1.483 . S
C1006 H981 0.949 . S
C1006 C1005 1.376 . S
C1006 C1007 1.397 . S
C1007 H982 0.950 . S
C1007 C1006 1.397 . S
C1007 C1008 1.391 . S
C1008 C1007 1.391 . S
C1008 C1009 1.405 . S
C1009 H983 0.950 . S
C1009 C1008 1.405 . S
C1009 C1010 1.367 . S
C1010 H984 0.950 . S
C1010 C1005 1.386 . S
C1010 C1009 1.367 . S
C1011 C1005 1.483 . S
C1011 C1012 1.382 . S
C1011 C1013 1.403 . S
C1012 H985 0.950 . S
C1012 C998 1.411 . S
C1012 C1011 1.382 . S
C1013 C997 1.411 . S
C1013 C1011 1.403 . S
C1013 C1014 1.489 . S
C1014 C1013 1.489 . S
C1014 C1015 1.383 . S
C1014 C1019 1.382 . S
C1015 H986 0.950 . S
C1015 C1014 1.383 . S
C1015 C1016 1.395 . S
C1016 H987 0.950 . S
C1016 C1015 1.395 . S
C1016 C1017 1.288 . S
C1017 C1016 1.288 . S
C1017 C1018 1.392 . S
C1018 H988 0.951 . S
C1018 C1017 1.392 . S
C1018 C1019 1.392 . S
C1019 H989 0.949 . S
C1019 C1014 1.382 . S
C1019 C1018 1.392 . S
H1020 C1039 0.949 . S
H1021 C1040 0.950 . S
H1022 C1042 0.950 . S
H1023 C1043 0.950 . S
H1024 C1045 0.950 . S
H1025 C1048 0.950 . S
H1026 C1049 0.950 . S
H1027 C1051 0.951 . S
H1028 C1052 0.949 . S
H1029 C1054 0.949 . S
H1030 C1055 0.950 . S
H1031 C1057 0.950 . S
H1032 C1058 0.950 . S
H1033 C1060 0.950 . S
H1034 C1063 0.950 . S
H1035 C1064 0.950 . S
H1036 C1066 0.951 . S
H1037 C1067 0.949 . S
C1038 C1039 1.376 . S
C1038 C1043 1.386 . S
C1038 C1044 1.483 . S
C1039 H1020 0.949 . S
C1039 C1038 1.376 . S
C1039 C1040 1.397 . S
C1040 H1021 0.950 . S
C1040 C1039 1.397 . S
C1040 C1041 1.391 . S
C1041 C1040 1.391 . S
C1041 C1042 1.405 . S
C1042 H1022 0.950 . S
C1042 C1041 1.405 . S
C1042 C1043 1.367 . S
C1043 H1023 0.950 . S
C1043 C1038 1.386 . S
C1043 C1042 1.367 . S
C1044 C1038 1.483 . S
C1044 C1045 1.382 . S
C1044 C1046 1.403 . S
C1045 H1024 0.950 . S
C1045 C1044 1.382 . S
C1045 C1061 1.411 . S
C1046 C1044 1.403 . S
C1046 C1047 1.489 . S
C1046 C1060 1.411 . S
C1047 C1046 1.489 . S
C1047 C1048 1.383 . S
C1047 C1052 1.382 . S
C1048 H1025 0.950 . S
C1048 C1047 1.383 . S
C1048 C1049 1.395 . S
C1049 H1026 0.950 . S
C1049 C1048 1.395 . S
C1049 C1050 1.288 . S
C1050 C1049 1.288 . S
C1050 C1051 1.392 . S
C1051 H1027 0.951 . S
C1051 C1050 1.392 . S
C1051 C1052 1.392 . S
C1052 H1028 0.949 . S
C1052 C1047 1.382 . S
C1052 C1051 1.392 . S
C1053 C1054 1.376 . S
C1053 C1058 1.386 . S
C1053 C1059 1.483 . S
C1054 H1029 0.949 . S
C1054 C1053 1.376 . S
C1054 C1055 1.397 . S
C1055 H1030 0.950 . S
C1055 C1054 1.397 . S
C1055 C1056 1.391 . S
C1056 C1055 1.391 . S
C1056 C1057 1.405 . S
C1057 H1031 0.950 . S
C1057 C1056 1.405 . S
C1057 C1058 1.367 . S
C1058 H1032 0.950 . S
C1058 C1053 1.386 . S
C1058 C1057 1.367 . S
C1059 C1053 1.483 . S
C1059 C1060 1.382 . S
C1059 C1061 1.403 . S
C1060 H1033 0.950 . S
C1060 C1046 1.411 . S
C1060 C1059 1.382 . S
C1061 C1045 1.411 . S
C1061 C1059 1.403 . S
C1061 C1062 1.489 . S
C1062 C1061 1.489 . S
C1062 C1063 1.383 . S
C1062 C1067 1.382 . S
C1063 H1034 0.950 . S
C1063 C1062 1.383 . S
C1063 C1064 1.395 . S
C1064 H1035 0.950 . S
C1064 C1063 1.395 . S
C1064 C1065 1.288 . S
C1065 C1064 1.288 . S
C1065 C1066 1.392 . S
C1066 H1036 0.951 . S
C1066 C1065 1.392 . S
C1066 C1067 1.392 . S
C1067 H1037 0.949 . S
C1067 C1062 1.382 . S
C1067 C1066 1.392 . S
H1068 C1087 0.949 . S
H1069 C1088 0.950 . S
H1070 C1090 0.950 . S
H1071 C1091 0.950 . S
H1072 C1093 0.950 . S
H1073 C1096 0.950 . S
H1074 C1097 0.950 . S
H1075 C1099 0.951 . S
H1076 C1100 0.949 . S
H1077 C1102 0.949 . S
H1078 C1103 0.950 . S
H1079 C1105 0.950 . S
H1080 C1106 0.950 . S
H1081 C1108 0.950 . S
H1082 C1111 0.950 . S
H1083 C1112 0.950 . S
H1084 C1114 0.951 . S
H1085 C1115 0.949 . S
C1086 C1087 1.376 . S
C1086 C1091 1.386 . S
C1086 C1092 1.483 . S
C1087 H1068 0.949 . S
C1087 C1086 1.376 . S
C1087 C1088 1.397 . S
C1088 H1069 0.950 . S
C1088 C1087 1.397 . S
C1088 C1089 1.391 . S
C1089 C1088 1.391 . S
C1089 C1090 1.405 . S
C1090 H1070 0.950 . S
C1090 C1089 1.405 . S
C1090 C1091 1.367 . S
C1091 H1071 0.950 . S
C1091 C1086 1.386 . S
C1091 C1090 1.367 . S
C1092 C1086 1.483 . S
C1092 C1093 1.382 . S
C1092 C1094 1.403 . S
C1093 H1072 0.950 . S
C1093 C1092 1.382 . S
C1093 C1109 1.411 . S
C1094 C1092 1.403 . S
C1094 C1095 1.489 . S
C1094 C1108 1.411 . S
C1095 C1094 1.489 . S
C1095 C1096 1.383 . S
C1095 C1100 1.382 . S
C1096 H1073 0.950 . S
C1096 C1095 1.383 . S
C1096 C1097 1.395 . S
C1097 H1074 0.950 . S
C1097 C1096 1.395 . S
C1097 C1098 1.288 . S
C1098 C1097 1.288 . S
C1098 C1099 1.392 . S
C1099 H1075 0.951 . S
C1099 C1098 1.392 . S
C1099 C1100 1.392 . S
C1100 H1076 0.949 . S
C1100 C1095 1.382 . S
C1100 C1099 1.392 . S
C1101 C1102 1.376 . S
C1101 C1106 1.386 . S
C1101 C1107 1.483 . S
C1102 H1077 0.949 . S
C1102 C1101 1.376 . S
C1102 C1103 1.397 . S
C1103 H1078 0.950 . S
C1103 C1102 1.397 . S
C1103 C1104 1.391 . S
C1104 C1103 1.391 . S
C1104 C1105 1.405 . S
C1105 H1079 0.950 . S
C1105 C1104 1.405 . S
C1105 C1106 1.367 . S
C1106 H1080 0.950 . S
C1106 C1101 1.386 . S
C1106 C1105 1.367 . S
C1107 C1101 1.483 . S
C1107 C1108 1.382 . S
C1107 C1109 1.403 . S
C1108 H1081 0.950 . S
C1108 C1094 1.411 . S
C1108 C1107 1.382 . S
C1109 C1093 1.411 . S
C1109 C1107 1.403 . S
C1109 C1110 1.489 . S
C1110 C1109 1.489 . S
C1110 C1111 1.383 . S
C1110 C1115 1.382 . S
C1111 H1082 0.950 . S
C1111 C1110 1.383 . S
C1111 C1112 1.395 . S
C1112 H1083 0.950 . S
C1112 C1111 1.395 . S
C1112 C1113 1.288 . S
C1113 C1112 1.288 . S
C1113 C1114 1.392 . S
C1114 H1084 0.951 . S
C1114 C1113 1.392 . S
C1114 C1115 1.392 . S
C1115 H1085 0.949 . S
C1115 C1110 1.382 . S
C1115 C1114 1.392 . S
H1116 C1128 0.930 . S
H1117 C1130 0.930 . S
H1118 C1131 0.930 . S
H1119 C1135 0.959 . S
H1120 C1135 0.959 . S
H1121 C1135 0.961 . S
H1122 C1136 0.960 . S
H1123 C1136 0.961 . S
H1124 C1136 0.959 1_455 S
H1125 C1139 0.929 . S
H1126 C1140 0.931 . S
H1127 C1142 0.930 . S
C1128 H1116 0.930 . S
C1128 C1129 1.399 1_655 S
C1128 C1133 1.399 . S
C1129 C1128 1.399 1_455 S
C1129 C1130 1.376 . S
C1130 H1117 0.930 . S
C1130 C1129 1.376 . S
C1130 C1131 1.388 . S
C1131 H1118 0.930 . S
C1131 C1130 1.388 . S
C1131 C1132 1.390 . S
C1132 C1131 1.390 . S
C1132 C1133 1.394 1_455 S
C1132 C1138 1.465 . S
C1133 C1128 1.399 . S
C1133 C1132 1.394 1_655 S
C1133 C1134 1.516 . S
C1134 C1133 1.516 . S
C1134 C1135 1.502 . S
C1134 C1136 1.561 . S
C1134 C1137 1.526 . S
C1135 H1119 0.959 . S
C1135 H1120 0.959 . S
C1135 H1121 0.961 . S
C1135 C1134 1.502 . S
C1136 H1122 0.960 . S
C1136 H1123 0.961 . S
C1136 H1124 0.959 1_655 S
C1136 C1134 1.561 . S
C1137 C1134 1.526 . S
C1137 C1138 1.396 1_655 S
C1137 C1142 1.390 . S
C1138 C1132 1.465 . S
C1138 C1137 1.396 1_455 S
C1138 C1139 1.399 . S
C1139 H1125 0.929 . S
C1139 C1138 1.399 . S
C1139 C1140 1.385 . S
C1140 H1126 0.931 . S
C1140 C1139 1.385 . S
C1140 C1141 1.389 1_455 S
C1141 C1140 1.389 1_655 S
C1141 C1142 1.387 . S
C1142 H1127 0.930 . S
C1142 C1137 1.390 . S
C1142 C1141 1.387 . S
H1143 C1155 0.930 . S
H1144 C1157 0.930 . S
H1145 C1158 0.930 . S
H1146 C1162 0.959 . S
H1147 C1162 0.959 . S
H1148 C1162 0.961 . S
H1149 C1163 0.960 . S
H1150 C1163 0.961 . S
H1151 C1163 0.959 . S
H1152 C1166 0.929 . S
H1153 C1167 0.931 . S
H1154 C1169 0.930 . S
C1155 H1143 0.930 . S
C1155 C1156 1.399 . S
C1155 C1160 1.399 . S
C1156 C1155 1.399 . S
C1156 C1157 1.376 . S
C1157 H1144 0.930 . S
C1157 C1156 1.376 . S
C1157 C1158 1.388 . S
C1158 H1145 0.930 . S
C1158 C1157 1.388 . S
C1158 C1159 1.390 . S
C1159 C1158 1.390 . S
C1159 C1160 1.394 . S
C1159 C1165 1.465 . S
C1160 C1155 1.399 . S
C1160 C1159 1.394 . S
C1160 C1161 1.516 . S
C1161 C1160 1.516 . S
C1161 C1162 1.502 . S
C1161 C1163 1.561 . S
C1161 C1164 1.526 . S
C1162 H1146 0.959 . S
C1162 H1147 0.959 . S
C1162 H1148 0.961 . S
C1162 C1161 1.502 . S
C1163 H1149 0.960 . S
C1163 H1150 0.961 . S
C1163 H1151 0.959 . S
C1163 C1161 1.561 . S
C1164 C1161 1.526 . S
C1164 C1165 1.396 . S
C1164 C1169 1.390 . S
C1165 C1159 1.465 . S
C1165 C1164 1.396 . S
C1165 C1166 1.399 . S
C1166 H1152 0.929 . S
C1166 C1165 1.399 . S
C1166 C1167 1.385 . S
C1167 H1153 0.931 . S
C1167 C1166 1.385 . S
C1167 C1168 1.389 . S
C1168 C1167 1.389 . S
C1168 C1169 1.387 . S
C1169 H1154 0.930 . S
C1169 C1164 1.390 . S
C1169 C1168 1.387 . S
H1170 C1182 0.930 . S
H1171 C1184 0.930 . S
H1172 C1185 0.930 . S
H1173 C1189 0.959 . S
H1174 C1189 0.959 . S
H1175 C1189 0.961 . S
H1176 C1190 0.960 . S
H1177 C1190 0.971 . S
H1178 C1190 0.959 . S
H1179 C1193 0.929 . S
H1180 C1194 0.931 . S
H1181 C1196 0.930 . S
C1182 H1170 0.930 . S
C1182 C1183 1.403 . S
C1182 C1187 1.399 . S
C1183 C1182 1.403 . S
C1183 C1184 1.366 1_545 S
C1184 H1171 0.930 . S
C1184 C1183 1.366 1_565 S
C1184 C1185 1.388 . S
C1185 H1172 0.930 . S
C1185 C1184 1.388 . S
C1185 C1186 1.390 . S
C1186 C1185 1.390 . S
C1186 C1187 1.394 1_565 S
C1186 C1192 1.465 . S
C1187 C1182 1.399 . S
C1187 C1186 1.394 1_545 S
C1187 C1188 1.516 . S
C1188 C1187 1.516 . S
C1188 C1189 1.502 . S
C1188 C1190 1.561 1_545 S
C1188 C1191 1.526 . S
C1189 H1173 0.959 . S
C1189 H1174 0.959 . S
C1189 H1175 0.961 . S
C1189 C1188 1.502 . S
C1190 H1176 0.960 . S
C1190 H1177 0.971 . S
C1190 H1178 0.959 . S
C1190 C1188 1.561 1_565 S
C1191 C1188 1.526 . S
C1191 C1192 1.396 1_545 S
C1191 C1196 1.390 . S
C1192 C1186 1.465 . S
C1192 C1191 1.396 1_565 S
C1192 C1193 1.399 . S
C1193 H1179 0.929 . S
C1193 C1192 1.399 . S
C1193 C1194 1.385 . S
C1194 H1180 0.931 . S
C1194 C1193 1.385 . S
C1194 C1195 1.389 1_565 S
C1195 C1194 1.389 1_545 S
C1195 C1196 1.387 . S
C1196 H1181 0.930 . S
C1196 C1191 1.390 . S
C1196 C1195 1.387 . S
H1197 C1209 0.930 . S
H1198 C1211 0.930 . S
H1199 C1212 0.930 . S
H1200 C1216 0.959 . S
H1201 C1216 0.959 . S
H1202 C1216 0.961 . S
H1203 C1217 0.960 . S
H1204 C1217 0.961 . S
H1205 C1217 0.959 . S
H1206 C1220 0.929 . S
H1207 C1221 0.931 . S
H1208 C1223 0.930 . S
C1209 H1197 0.930 . S
C1209 C1210 1.399 1_545 S
C1209 C1214 1.399 . S
C1210 C1209 1.399 1_565 S
C1210 C1211 1.376 . S
C1211 H1198 0.930 . S
C1211 C1210 1.376 . S
C1211 C1212 1.388 . S
C1212 H1199 0.930 . S
C1212 C1211 1.388 . S
C1212 C1213 1.390 . S
C1213 C1212 1.390 . S
C1213 C1214 1.394 1_565 S
C1213 C1219 1.465 . S
C1214 C1209 1.399 . S
C1214 C1213 1.394 1_545 S
C1214 C1215 1.516 . S
C1215 C1214 1.516 . S
C1215 C1216 1.502 . S
C1215 C1217 1.561 . S
C1215 C1218 1.526 . S
C1216 H1200 0.959 . S
C1216 H1201 0.959 . S
C1216 H1202 0.961 . S
C1216 C1215 1.502 . S
C1217 H1203 0.960 . S
C1217 H1204 0.961 . S
C1217 H1205 0.959 . S
C1217 C1215 1.561 . S
C1218 C1215 1.526 . S
C1218 C1219 1.396 1_545 S
C1218 C1223 1.390 . S
C1219 C1213 1.465 . S
C1219 C1218 1.396 1_565 S
C1219 C1220 1.399 . S
C1220 H1206 0.929 . S
C1220 C1219 1.399 . S
C1220 C1221 1.385 . S
C1221 H1207 0.931 . S
C1221 C1220 1.385 . S
C1221 C1222 1.389 . S
C1222 C1221 1.389 . S
C1222 C1223 1.387 1_565 S
C1223 H1208 0.930 . S
C1223 C1218 1.390 . S
C1223 C1222 1.387 1_545 S
H1224 C1236 0.930 . S
H1225 C1238 0.930 . S
H1226 C1239 0.930 . S
H1227 C1243 0.959 . S
H1228 C1243 0.959 . S
H1229 C1243 0.961 . S
H1230 C1244 0.960 . S
H1231 C1244 0.961 . S
H1232 C1244 0.959 1_655 S
H1233 C1247 0.929 . S
H1234 C1248 0.931 . S
H1235 C1250 0.930 . S
C1236 H1224 0.930 . S
C1236 C1237 1.399 . S
C1236 C1241 1.399 . S
C1237 C1236 1.399 . S
C1237 C1238 1.376 1_455 S
C1238 H1225 0.930 . S
C1238 C1237 1.376 1_655 S
C1238 C1239 1.388 . S
C1239 H1226 0.930 . S
C1239 C1238 1.388 . S
C1239 C1240 1.390 . S
C1240 C1239 1.390 . S
C1240 C1241 1.394 1_655 S
C1240 C1246 1.465 . S
C1241 C1236 1.399 . S
C1241 C1240 1.394 1_455 S
C1241 C1242 1.516 . S
C1242 C1241 1.516 . S
C1242 C1243 1.502 . S
C1242 C1244 1.561 . S
C1242 C1245 1.526 . S
C1243 H1227 0.959 . S
C1243 H1228 0.959 . S
C1243 H1229 0.961 . S
C1243 C1242 1.502 . S
C1244 H1230 0.960 . S
C1244 H1231 0.961 . S
C1244 H1232 0.959 1_455 S
C1244 C1242 1.561 . S
C1245 C1242 1.526 . S
C1245 C1246 1.396 1_455 S
C1245 C1250 1.390 . S
C1246 C1240 1.465 . S
C1246 C1245 1.396 1_655 S
C1246 C1247 1.399 . S
C1247 H1233 0.929 . S
C1247 C1246 1.399 . S
C1247 C1248 1.385 . S
C1248 H1234 0.931 . S
C1248 C1247 1.385 . S
C1248 C1249 1.389 1_655 S
C1249 C1248 1.389 1_455 S
C1249 C1250 1.387 . S
C1250 H1235 0.930 . S
C1250 C1245 1.390 . S
C1250 C1249 1.387 . S
H1251 C1263 0.930 . S
H1252 C1265 0.941 . S
H1253 C1266 0.930 . S
H1254 C1270 0.959 . S
H1255 C1270 0.959 . S
H1256 C1270 0.961 . S
H1257 C1271 0.960 . S
H1258 C1271 0.961 . S
H1259 C1271 0.959 . S
H1260 C1274 0.929 . S
H1261 C1275 0.931 . S
H1262 C1277 0.930 . S
C1263 H1251 0.930 . S
C1263 C1264 1.399 . S
C1263 C1268 1.399 . S
C1264 C1263 1.399 . S
C1264 C1265 1.376 . S
C1265 H1252 0.941 . S
C1265 C1264 1.376 . S
C1265 C1266 1.388 . S
C1266 H1253 0.930 . S
C1266 C1265 1.388 . S
C1266 C1267 1.390 . S
C1267 C1266 1.390 . S
C1267 C1268 1.394 . S
C1267 C1273 1.465 . S
C1268 C1263 1.399 . S
C1268 C1267 1.394 . S
C1268 C1269 1.516 . S
C1269 C1268 1.516 . S
C1269 C1270 1.502 . S
C1269 C1271 1.561 . S
C1269 C1272 1.526 . S
C1270 H1254 0.959 . S
C1270 H1255 0.959 . S
C1270 H1256 0.961 . S
C1270 C1269 1.502 . S
C1271 H1257 0.960 . S
C1271 H1258 0.961 . S
C1271 H1259 0.959 . S
C1271 C1269 1.561 . S
C1272 C1269 1.526 . S
C1272 C1273 1.396 . S
C1272 C1277 1.390 . S
C1273 C1267 1.465 . S
C1273 C1272 1.396 . S
C1273 C1274 1.399 . S
C1274 H1260 0.929 . S
C1274 C1273 1.399 . S
C1274 C1275 1.385 . S
C1275 H1261 0.931 . S
C1275 C1274 1.385 . S
C1275 C1276 1.389 . S
C1276 C1275 1.389 . S
C1276 C1277 1.387 . S
C1277 H1262 0.930 . S
C1277 C1272 1.390 . S
C1277 C1276 1.387 . S
H1278 C1290 0.930 . S
H1279 C1292 0.930 . S
H1280 C1293 0.930 . S
H1281 C1297 0.959 . S
H1282 C1297 0.959 . S
H1283 C1297 0.961 . S
H1284 C1298 0.960 . S
H1285 C1298 0.961 . S
H1286 C1298 0.959 . S
H1287 C1301 0.929 . S
H1288 C1302 0.931 . S
H1289 C1304 0.930 . S
C1290 H1278 0.930 . S
C1290 C1291 1.399 1_655 S
C1290 C1295 1.399 . S
C1291 C1290 1.399 1_455 S
C1291 C1292 1.376 . S
C1292 H1279 0.930 . S
C1292 C1291 1.376 . S
C1292 C1293 1.388 . S
C1293 H1280 0.930 . S
C1293 C1292 1.388 . S
C1293 C1294 1.390 . S
C1294 C1293 1.390 . S
C1294 C1295 1.394 1_455 S
C1294 C1300 1.465 . S
C1295 C1290 1.399 . S
C1295 C1294 1.394 1_655 S
C1295 C1296 1.516 . S
C1296 C1295 1.516 . S
C1296 C1297 1.502 . S
C1296 C1298 1.561 . S
C1296 C1299 1.526 . S
C1297 H1281 0.959 . S
C1297 H1282 0.959 . S
C1297 H1283 0.961 . S
C1297 C1296 1.502 . S
C1298 H1284 0.960 . S
C1298 H1285 0.961 . S
C1298 H1286 0.959 . S
C1298 C1296 1.561 . S
C1299 C1296 1.526 . S
C1299 C1300 1.396 1_655 S
C1299 C1304 1.390 . S
C1300 C1294 1.465 . S
C1300 C1299 1.396 1_455 S
C1300 C1301 1.399 . S
C1301 H1287 0.929 . S
C1301 C1300 1.399 . S
C1301 C1302 1.385 . S
C1302 H1288 0.931 . S
C1302 C1301 1.385 . S
C1302 C1303 1.389 . S
C1303 C1302 1.389 . S
C1303 C1304 1.387 1_455 S
C1304 H1289 0.930 . S
C1304 C1299 1.390 . S
C1304 C1303 1.387 1_655 S
H1305 C1317 0.930 . S
H1306 C1319 0.930 . S
H1307 C1320 0.930 . S
H1308 C1324 0.959 . S
H1309 C1324 0.959 . S
H1310 C1324 0.961 . S
H1311 C1325 0.960 . S
H1312 C1325 0.961 . S
H1313 C1325 0.959 . S
H1314 C1328 0.929 . S
H1315 C1329 0.931 . S
H1316 C1331 0.930 . S
C1317 H1305 0.930 . S
C1317 C1318 1.399 . S
C1317 C1322 1.399 . S
C1318 C1317 1.399 . S
C1318 C1319 1.376 . S
C1319 H1306 0.930 . S
C1319 C1318 1.376 . S
C1319 C1320 1.388 . S
C1320 H1307 0.930 . S
C1320 C1319 1.388 . S
C1320 C1321 1.390 . S
C1321 C1320 1.390 . S
C1321 C1322 1.394 . S
C1321 C1327 1.465 . S
C1322 C1317 1.399 . S
C1322 C1321 1.394 . S
C1322 C1323 1.516 . S
C1323 C1322 1.516 . S
C1323 C1324 1.502 . S
C1323 C1325 1.561 . S
C1323 C1326 1.526 . S
C1324 H1308 0.959 . S
C1324 H1309 0.959 . S
C1324 H1310 0.961 . S
C1324 C1323 1.502 . S
C1325 H1311 0.960 . S
C1325 H1312 0.961 . S
C1325 H1313 0.959 . S
C1325 C1323 1.561 . S
C1326 C1323 1.526 . S
C1326 C1327 1.396 . S
C1326 C1331 1.390 . S
C1327 C1321 1.465 . S
C1327 C1326 1.396 . S
C1327 C1328 1.399 . S
C1328 H1314 0.929 . S
C1328 C1327 1.399 . S
C1328 C1329 1.385 . S
C1329 H1315 0.931 . S
C1329 C1328 1.385 . S
C1329 C1330 1.389 . S
C1330 C1329 1.389 . S
C1330 C1331 1.387 . S
C1331 H1316 0.930 . S
C1331 C1326 1.390 . S
C1331 C1330 1.387 . S
H1332 C1344 0.930 . S
H1333 C1346 0.930 . S
H1334 C1347 0.930 . S
H1335 C1351 0.959 . S
H1336 C1351 0.959 . S
H1337 C1351 0.961 . S
H1338 C1352 0.960 . S
H1339 C1352 0.961 . S
H1340 C1352 0.959 . S
H1341 C1355 0.929 . S
H1342 C1356 0.931 . S
H1343 C1358 0.930 . S
C1344 H1332 0.930 . S
C1344 C1345 1.399 1_545 S
C1344 C1349 1.399 . S
C1345 C1344 1.399 1_565 S
C1345 C1346 1.376 . S
C1346 H1333 0.930 . S
C1346 C1345 1.376 . S
C1346 C1347 1.388 . S
C1347 H1334 0.930 . S
C1347 C1346 1.388 . S
C1347 C1348 1.390 . S
C1348 C1347 1.390 . S
C1348 C1349 1.394 1_565 S
C1348 C1354 1.465 . S
C1349 C1344 1.399 . S
C1349 C1348 1.394 1_545 S
C1349 C1350 1.516 . S
C1350 C1349 1.516 . S
C1350 C1351 1.502 . S
C1350 C1352 1.561 . S
C1350 C1353 1.526 . S
C1351 H1335 0.959 . S
C1351 H1336 0.959 . S
C1351 H1337 0.961 . S
C1351 C1350 1.502 . S
C1352 H1338 0.960 . S
C1352 H1339 0.961 . S
C1352 H1340 0.959 . S
C1352 C1350 1.561 . S
C1353 C1350 1.526 . S
C1353 C1354 1.396 1_545 S
C1353 C1358 1.390 . S
C1354 C1348 1.465 . S
C1354 C1353 1.396 1_565 S
C1354 C1355 1.399 . S
C1355 H1341 0.929 . S
C1355 C1354 1.399 . S
C1355 C1356 1.385 . S
C1356 H1342 0.931 . S
C1356 C1355 1.385 . S
C1356 C1357 1.389 . S
C1357 C1356 1.389 . S
C1357 C1358 1.387 1_565 S
C1358 H1343 0.930 . S
C1358 C1353 1.390 . S
C1358 C1357 1.387 1_545 S
H1359 C1371 0.930 . S
H1360 C1373 0.930 . S
H1361 C1374 0.930 . S
H1362 C1378 0.959 . S
H1363 C1378 0.959 . S
H1364 C1378 0.961 . S
H1365 C1379 0.960 . S
H1366 C1379 0.961 . S
H1367 C1379 0.959 . S
H1368 C1382 0.929 . S
H1369 C1383 0.931 . S
H1370 C1385 0.930 . S
C1371 H1359 0.930 . S
C1371 C1372 1.399 1_565 S
C1371 C1376 1.399 . S
C1372 C1371 1.399 1_545 S
C1372 C1373 1.376 . S
C1373 H1360 0.930 . S
C1373 C1372 1.376 . S
C1373 C1374 1.388 . S
C1374 H1361 0.930 . S
C1374 C1373 1.388 . S
C1374 C1375 1.390 . S
C1375 C1374 1.390 . S
C1375 C1376 1.394 1_545 S
C1375 C1381 1.465 . S
C1376 C1371 1.399 . S
C1376 C1375 1.394 1_565 S
C1376 C1377 1.516 . S
C1377 C1376 1.516 . S
C1377 C1378 1.502 . S
C1377 C1379 1.561 . S
C1377 C1380 1.526 . S
C1378 H1362 0.959 . S
C1378 H1363 0.959 . S
C1378 H1364 0.961 . S
C1378 C1377 1.502 . S
C1379 H1365 0.960 . S
C1379 H1366 0.961 . S
C1379 H1367 0.959 . S
C1379 C1377 1.561 . S
C1380 C1377 1.526 . S
C1380 C1381 1.396 1_565 S
C1380 C1385 1.390 . S
C1381 C1375 1.465 . S
C1381 C1380 1.396 1_545 S
C1381 C1382 1.399 . S
C1382 H1368 0.929 . S
C1382 C1381 1.399 . S
C1382 C1383 1.385 . S
C1383 H1369 0.931 . S
C1383 C1382 1.385 . S
C1383 C1384 1.389 . S
C1384 C1383 1.389 . S
C1384 C1385 1.387 1_545 S
C1385 H1370 0.930 . S
C1385 C1380 1.390 . S
C1385 C1384 1.387 1_565 S
H1386 C1398 0.930 . S
H1387 C1400 0.930 . S
H1388 C1401 0.930 . S
H1389 C1405 0.959 . S
H1390 C1405 0.959 . S
H1391 C1405 0.961 . S
H1392 C1406 0.960 . S
H1393 C1406 0.961 . S
H1394 C1406 0.959 . S
H1395 C1409 0.929 . S
H1396 C1410 0.931 . S
H1397 C1412 0.930 . S
C1398 H1386 0.930 . S
C1398 C1399 1.399 1_455 S
C1398 C1403 1.393 . S
C1399 C1398 1.399 1_655 S
C1399 C1400 1.376 . S
C1400 H1387 0.930 . S
C1400 C1399 1.376 . S
C1400 C1401 1.388 . S
C1401 H1388 0.930 . S
C1401 C1400 1.388 . S
C1401 C1402 1.390 . S
C1402 C1401 1.390 . S
C1402 C1403 1.395 1_655 S
C1402 C1408 1.465 . S
C1403 C1398 1.393 . S
C1403 C1402 1.395 1_455 S
C1403 C1404 1.522 . S
C1404 C1403 1.522 . S
C1404 C1405 1.502 . S
C1404 C1406 1.561 1_455 S
C1404 C1407 1.529 1_455 S
C1405 H1389 0.959 . S
C1405 H1390 0.959 . S
C1405 H1391 0.961 . S
C1405 C1404 1.502 . S
C1406 H1392 0.960 . S
C1406 H1393 0.961 . S
C1406 H1394 0.959 . S
C1406 C1404 1.561 1_655 S
C1407 C1404 1.529 1_655 S
C1407 C1408 1.398 . S
C1407 C1412 1.386 1_655 S
C1408 C1402 1.465 . S
C1408 C1407 1.398 . S
C1408 C1409 1.399 . S
C1409 H1395 0.929 . S
C1409 C1408 1.399 . S
C1409 C1410 1.385 . S
C1410 H1396 0.931 . S
C1410 C1409 1.385 . S
C1410 C1411 1.389 . S
C1411 C1410 1.389 . S
C1411 C1412 1.387 1_655 S
C1412 H1397 0.930 . S
C1412 C1407 1.386 1_455 S
C1412 C1411 1.387 1_455 S
H1413 C1425 0.930 . S
H1414 C1427 0.930 . S
H1415 C1428 0.930 . S
H1416 C1432 0.959 . S
H1417 C1432 0.959 . S
H1418 C1432 0.961 . S
H1419 C1433 0.960 . S
H1420 C1433 0.961 . S
H1421 C1433 0.959 . S
H1422 C1436 0.929 . S
H1423 C1437 0.931 . S
H1424 C1439 0.930 . S
C1425 H1413 0.930 . S
C1425 C1426 1.399 . S
C1425 C1430 1.399 . S
C1426 C1425 1.399 . S
C1426 C1427 1.376 . S
C1427 H1414 0.930 . S
C1427 C1426 1.376 . S
C1427 C1428 1.388 . S
C1428 H1415 0.930 . S
C1428 C1427 1.388 . S
C1428 C1429 1.390 . S
C1429 C1428 1.390 . S
C1429 C1430 1.394 . S
C1429 C1435 1.465 . S
C1430 C1425 1.399 . S
C1430 C1429 1.394 . S
C1430 C1431 1.516 . S
C1431 C1430 1.516 . S
C1431 C1432 1.502 . S
C1431 C1433 1.561 . S
C1431 C1434 1.526 . S
C1432 H1416 0.959 . S
C1432 H1417 0.959 . S
C1432 H1418 0.961 . S
C1432 C1431 1.502 . S
C1433 H1419 0.960 . S
C1433 H1420 0.961 . S
C1433 H1421 0.959 . S
C1433 C1431 1.561 . S
C1434 C1431 1.526 . S
C1434 C1435 1.396 . S
C1434 C1439 1.390 . S
C1435 C1429 1.465 . S
C1435 C1434 1.396 . S
C1435 C1436 1.399 . S
C1436 H1422 0.929 . S
C1436 C1435 1.399 . S
C1436 C1437 1.385 . S
C1437 H1423 0.931 . S
C1437 C1436 1.385 . S
C1437 C1438 1.389 . S
C1438 C1437 1.389 . S
C1438 C1439 1.387 . S
C1439 H1424 0.930 . S
C1439 C1434 1.390 . S
C1439 C1438 1.387 . S
H1440 C1452 0.930 . S
H1441 C1454 0.930 . S
H1442 C1455 0.930 . S
H1443 C1459 0.959 . S
H1444 C1459 0.959 . S
H1445 C1459 0.961 . S
H1446 C1460 0.960 . S
H1447 C1460 0.961 . S
H1448 C1460 0.959 . S
H1449 C1463 0.929 . S
H1450 C1464 0.931 . S
H1451 C1466 0.930 . S
C1452 H1440 0.930 . S
C1452 C1453 1.399 . S
C1452 C1457 1.399 . S
C1453 C1452 1.399 . S
C1453 C1454 1.376 . S
C1454 H1441 0.930 . S
C1454 C1453 1.376 . S
C1454 C1455 1.388 . S
C1455 H1442 0.930 . S
C1455 C1454 1.388 . S
C1455 C1456 1.390 . S
C1456 C1455 1.390 . S
C1456 C1457 1.394 . S
C1456 C1462 1.465 . S
C1457 C1452 1.399 . S
C1457 C1456 1.394 . S
C1457 C1458 1.516 . S
C1458 C1457 1.516 . S
C1458 C1459 1.502 . S
C1458 C1460 1.561 . S
C1458 C1461 1.526 . S
C1459 H1443 0.959 . S
C1459 H1444 0.959 . S
C1459 H1445 0.961 . S
C1459 C1458 1.502 . S
C1460 H1446 0.960 . S
C1460 H1447 0.961 . S
C1460 H1448 0.959 . S
C1460 C1458 1.561 . S
C1461 C1458 1.526 . S
C1461 C1462 1.396 . S
C1461 C1466 1.390 . S
C1462 C1456 1.465 . S
C1462 C1461 1.396 . S
C1462 C1463 1.399 . S
C1463 H1449 0.929 . S
C1463 C1462 1.399 . S
C1463 C1464 1.385 . S
C1464 H1450 0.931 . S
C1464 C1463 1.385 . S
C1464 C1465 1.389 . S
C1465 C1464 1.389 . S
C1465 C1466 1.387 . S
C1466 H1451 0.930 . S
C1466 C1461 1.390 . S
C1466 C1465 1.387 . S
H1467 C1479 0.930 . S
H1468 C1481 0.930 . S
H1469 C1482 0.930 . S
H1470 C1486 0.959 . S
H1471 C1486 0.959 . S
H1472 C1486 0.961 . S
H1473 C1487 0.960 . S
H1474 C1487 0.961 . S
H1475 C1487 0.959 . S
H1476 C1490 0.929 . S
H1477 C1491 0.931 . S
H1478 C1493 0.930 . S
C1479 H1467 0.930 . S
C1479 C1480 1.399 . S
C1479 C1484 1.399 . S
C1480 C1479 1.399 . S
C1480 C1481 1.376 . S
C1481 H1468 0.930 . S
C1481 C1480 1.376 . S
C1481 C1482 1.388 . S
C1482 H1469 0.930 . S
C1482 C1481 1.388 . S
C1482 C1483 1.390 . S
C1483 C1482 1.390 . S
C1483 C1484 1.394 . S
C1483 C1489 1.465 . S
C1484 C1479 1.399 . S
C1484 C1483 1.394 . S
C1484 C1485 1.516 . S
C1485 C1484 1.516 . S
C1485 C1486 1.502 . S
C1485 C1487 1.561 . S
C1485 C1488 1.526 . S
C1486 H1470 0.959 . S
C1486 H1471 0.959 . S
C1486 H1472 0.961 . S
C1486 C1485 1.502 . S
C1487 H1473 0.960 . S
C1487 H1474 0.961 . S
C1487 H1475 0.959 . S
C1487 C1485 1.561 . S
C1488 C1485 1.526 . S
C1488 C1489 1.396 . S
C1488 C1493 1.390 . S
C1489 C1483 1.465 . S
C1489 C1488 1.396 . S
C1489 C1490 1.399 . S
C1490 H1476 0.929 . S
C1490 C1489 1.399 . S
C1490 C1491 1.385 . S
C1491 H1477 0.931 . S
C1491 C1490 1.385 . S
C1491 C1492 1.389 . S
C1492 C1491 1.389 . S
C1492 C1493 1.387 . S
C1493 H1478 0.930 . S
C1493 C1488 1.390 . S
C1493 C1492 1.387 . S
H1494 C1506 0.930 . S
H1495 C1508 0.930 . S
H1496 C1509 0.930 . S
H1497 C1513 0.959 . S
H1498 C1513 0.959 . S
H1499 C1513 0.961 . S
H1500 C1514 0.960 . S
H1501 C1514 0.961 . S
H1502 C1514 0.959 . S
H1503 C1517 0.929 . S
H1504 C1518 0.931 . S
H1505 C1520 0.930 . S
C1506 H1494 0.930 . S
C1506 C1507 1.399 . S
C1506 C1511 1.399 . S
C1507 C1506 1.399 . S
C1507 C1508 1.376 . S
C1508 H1495 0.930 . S
C1508 C1507 1.376 . S
C1508 C1509 1.388 . S
C1509 H1496 0.930 . S
C1509 C1508 1.388 . S
C1509 C1510 1.390 . S
C1510 C1509 1.390 . S
C1510 C1511 1.394 . S
C1510 C1516 1.465 . S
C1511 C1506 1.399 . S
C1511 C1510 1.394 . S
C1511 C1512 1.516 . S
C1512 C1511 1.516 . S
C1512 C1513 1.502 . S
C1512 C1514 1.561 . S
C1512 C1515 1.526 . S
C1513 H1497 0.959 . S
C1513 H1498 0.959 . S
C1513 H1499 0.961 . S
C1513 C1512 1.502 . S
C1514 H1500 0.960 . S
C1514 H1501 0.961 . S
C1514 H1502 0.959 . S
C1514 C1512 1.561 . S
C1515 C1512 1.526 . S
C1515 C1516 1.396 . S
C1515 C1520 1.390 . S
C1516 C1510 1.465 . S
C1516 C1515 1.396 . S
C1516 C1517 1.399 . S
C1517 H1503 0.929 . S
C1517 C1516 1.399 . S
C1517 C1518 1.385 . S
C1518 H1504 0.931 . S
C1518 C1517 1.385 . S
C1518 C1519 1.389 . S
C1519 C1518 1.389 . S
C1519 C1520 1.387 . S
C1520 H1505 0.930 . S
C1520 C1515 1.390 . S
C1520 C1519 1.387 . S
H1521 C1533 0.930 . S
H1522 C1535 0.930 . S
H1523 C1536 0.930 . S
H1524 C1540 0.959 . S
H1525 C1540 0.959 . S
H1526 C1540 0.961 . S
H1527 C1541 0.960 . S
H1528 C1541 0.961 . S
H1529 C1541 0.959 . S
H1530 C1544 0.929 . S
H1531 C1545 0.931 . S
H1532 C1547 0.930 . S
C1533 H1521 0.930 . S
C1533 C1534 1.399 . S
C1533 C1538 1.399 . S
C1534 C1533 1.399 . S
C1534 C1535 1.376 . S
C1535 H1522 0.930 . S
C1535 C1534 1.376 . S
C1535 C1536 1.388 . S
C1536 H1523 0.930 . S
C1536 C1535 1.388 . S
C1536 C1537 1.390 . S
C1537 C1536 1.390 . S
C1537 C1538 1.394 . S
C1537 C1543 1.465 . S
C1538 C1533 1.399 . S
C1538 C1537 1.394 . S
C1538 C1539 1.516 . S
C1539 C1538 1.516 . S
C1539 C1540 1.502 . S
C1539 C1541 1.561 . S
C1539 C1542 1.526 . S
C1540 H1524 0.959 . S
C1540 H1525 0.959 . S
C1540 H1526 0.961 . S
C1540 C1539 1.502 . S
C1541 H1527 0.960 . S
C1541 H1528 0.961 . S
C1541 H1529 0.959 . S
C1541 C1539 1.561 . S
C1542 C1539 1.526 . S
C1542 C1543 1.396 . S
C1542 C1547 1.390 . S
C1543 C1537 1.465 . S
C1543 C1542 1.396 . S
C1543 C1544 1.399 . S
C1544 H1530 0.929 . S
C1544 C1543 1.399 . S
C1544 C1545 1.385 . S
C1545 H1531 0.931 . S
C1545 C1544 1.385 . S
C1545 C1546 1.389 . S
C1546 C1545 1.389 . S
C1546 C1547 1.387 . S
C1547 H1532 0.930 . S
C1547 C1542 1.390 . S
C1547 C1546 1.387 . S
H1548 C1560 0.930 . S
H1549 C1562 0.930 . S
H1550 C1563 0.930 . S
H1551 C1567 0.959 . S
H1552 C1567 0.959 . S
H1553 C1567 0.961 . S
H1554 C1568 0.960 . S
H1555 C1568 0.961 . S
H1556 C1568 0.959 . S
H1557 C1571 0.929 . S
H1558 C1572 0.931 . S
H1559 C1574 0.930 . S
C1560 H1548 0.930 . S
C1560 C1561 1.399 . S
C1560 C1565 1.399 . S
C1561 C1560 1.399 . S
C1561 C1562 1.376 . S
C1562 H1549 0.930 . S
C1562 C1561 1.376 . S
C1562 C1563 1.388 . S
C1563 H1550 0.930 . S
C1563 C1562 1.388 . S
C1563 C1564 1.390 . S
C1564 C1563 1.390 . S
C1564 C1565 1.394 . S
C1564 C1570 1.465 . S
C1565 C1560 1.399 . S
C1565 C1564 1.394 . S
C1565 C1566 1.516 . S
C1566 C1565 1.516 . S
C1566 C1567 1.502 . S
C1566 C1568 1.561 . S
C1566 C1569 1.526 . S
C1567 H1551 0.959 . S
C1567 H1552 0.959 . S
C1567 H1553 0.961 . S
C1567 C1566 1.502 . S
C1568 H1554 0.960 . S
C1568 H1555 0.961 . S
C1568 H1556 0.959 . S
C1568 C1566 1.561 . S
C1569 C1566 1.526 . S
C1569 C1570 1.396 . S
C1569 C1574 1.390 . S
C1570 C1564 1.465 . S
C1570 C1569 1.396 . S
C1570 C1571 1.399 . S
C1571 H1557 0.929 . S
C1571 C1570 1.399 . S
C1571 C1572 1.385 . S
C1572 H1558 0.931 . S
C1572 C1571 1.385 . S
C1572 C1573 1.389 . S
C1573 C1572 1.389 . S
C1573 C1574 1.387 . S
C1574 H1559 0.930 . S
C1574 C1569 1.390 . S
C1574 C1573 1.387 . S
H1575 C1587 0.930 . S
H1576 C1589 0.930 . S
H1577 C1590 0.930 . S
H1578 C1594 0.959 . S
H1579 C1594 0.959 . S
H1580 C1594 0.961 . S
H1581 C1595 0.960 . S
H1582 C1595 0.961 . S
H1583 C1595 0.959 . S
H1584 C1598 0.929 . S
H1585 C1599 0.931 . S
H1586 C1601 0.930 . S
C1587 H1575 0.930 . S
C1587 C1588 1.399 . S
C1587 C1592 1.399 . S
C1588 C1587 1.399 . S
C1588 C1589 1.376 . S
C1589 H1576 0.930 . S
C1589 C1588 1.376 . S
C1589 C1590 1.388 . S
C1590 H1577 0.930 . S
C1590 C1589 1.388 . S
C1590 C1591 1.390 . S
C1591 C1590 1.390 . S
C1591 C1592 1.394 . S
C1591 C1597 1.465 . S
C1592 C1587 1.399 . S
C1592 C1591 1.394 . S
C1592 C1593 1.516 . S
C1593 C1592 1.516 . S
C1593 C1594 1.502 . S
C1593 C1595 1.561 . S
C1593 C1596 1.526 . S
C1594 H1578 0.959 . S
C1594 H1579 0.959 . S
C1594 H1580 0.961 . S
C1594 C1593 1.502 . S
C1595 H1581 0.960 . S
C1595 H1582 0.961 . S
C1595 H1583 0.959 . S
C1595 C1593 1.561 . S
C1596 C1593 1.526 . S
C1596 C1597 1.396 . S
C1596 C1601 1.390 . S
C1597 C1591 1.465 . S
C1597 C1596 1.396 . S
C1597 C1598 1.399 . S
C1598 H1584 0.929 . S
C1598 C1597 1.399 . S
C1598 C1599 1.385 . S
C1599 H1585 0.931 . S
C1599 C1598 1.385 . S
C1599 C1600 1.389 . S
C1600 C1599 1.389 . S
C1600 C1601 1.387 . S
C1601 H1586 0.930 . S
C1601 C1596 1.390 . S
C1601 C1600 1.387 . S
H1602 C1614 0.930 . S
H1603 C1616 0.930 . S
H1604 C1617 0.930 . S
H1605 C1621 0.959 . S
H1606 C1621 0.959 . S
H1607 C1621 0.961 . S
H1608 C1622 0.960 . S
H1609 C1622 0.961 . S
H1610 C1622 0.959 . S
H1611 C1625 0.929 . S
H1612 C1626 0.931 . S
H1613 C1628 0.930 . S
C1614 H1602 0.930 . S
C1614 C1615 1.399 . S
C1614 C1619 1.399 . S
C1615 C1614 1.399 . S
C1615 C1616 1.376 . S
C1616 H1603 0.930 . S
C1616 C1615 1.376 . S
C1616 C1617 1.388 . S
C1617 H1604 0.930 . S
C1617 C1616 1.388 . S
C1617 C1618 1.390 . S
C1618 C1617 1.390 . S
C1618 C1619 1.394 . S
C1618 C1624 1.465 . S
C1619 C1614 1.399 . S
C1619 C1618 1.394 . S
C1619 C1620 1.516 . S
C1620 C1619 1.516 . S
C1620 C1621 1.502 . S
C1620 C1622 1.561 . S
C1620 C1623 1.526 . S
C1621 H1605 0.959 . S
C1621 H1606 0.959 . S
C1621 H1607 0.961 . S
C1621 C1620 1.502 . S
C1622 H1608 0.960 . S
C1622 H1609 0.961 . S
C1622 H1610 0.959 . S
C1622 C1620 1.561 . S
C1623 C1620 1.526 . S
C1623 C1624 1.396 . S
C1623 C1628 1.390 . S
C1624 C1618 1.465 . S
C1624 C1623 1.396 . S
C1624 C1625 1.399 . S
C1625 H1611 0.929 . S
C1625 C1624 1.399 . S
C1625 C1626 1.385 . S
C1626 H1612 0.931 . S
C1626 C1625 1.385 . S
C1626 C1627 1.389 . S
C1627 C1626 1.389 . S
C1627 C1628 1.387 . S
C1628 H1613 0.930 . S
C1628 C1623 1.390 . S
C1628 C1627 1.387 . S
H1629 C1641 0.930 . S
H1630 C1643 0.930 . S
H1631 C1644 0.930 . S
H1632 C1648 0.959 . S
H1633 C1648 0.959 . S
H1634 C1648 0.961 . S
H1635 C1649 0.960 . S
H1636 C1649 0.961 . S
H1637 C1649 0.959 . S
H1638 C1652 0.929 . S
H1639 C1653 0.931 . S
H1640 C1655 0.930 . S
C1641 H1629 0.930 . S
C1641 C1642 1.399 . S
C1641 C1646 1.399 . S
C1642 C1641 1.399 . S
C1642 C1643 1.376 . S
C1643 H1630 0.930 . S
C1643 C1642 1.376 . S
C1643 C1644 1.388 . S
C1644 H1631 0.930 . S
C1644 C1643 1.388 . S
C1644 C1645 1.390 . S
C1645 C1644 1.390 . S
C1645 C1646 1.394 . S
C1645 C1651 1.465 . S
C1646 C1641 1.399 . S
C1646 C1645 1.394 . S
C1646 C1647 1.516 . S
C1647 C1646 1.516 . S
C1647 C1648 1.502 . S
C1647 C1649 1.561 . S
C1647 C1650 1.526 . S
C1648 H1632 0.959 . S
C1648 H1633 0.959 . S
C1648 H1634 0.961 . S
C1648 C1647 1.502 . S
C1649 H1635 0.960 . S
C1649 H1636 0.961 . S
C1649 H1637 0.959 . S
C1649 C1647 1.561 . S
C1650 C1647 1.526 . S
C1650 C1651 1.396 . S
C1650 C1655 1.390 . S
C1651 C1645 1.465 . S
C1651 C1650 1.396 . S
C1651 C1652 1.399 . S
C1652 H1638 0.929 . S
C1652 C1651 1.399 . S
C1652 C1653 1.385 . S
C1653 H1639 0.931 . S
C1653 C1652 1.385 . S
C1653 C1654 1.389 . S
C1654 C1653 1.389 . S
C1654 C1655 1.387 . S
C1655 H1640 0.930 . S
C1655 C1650 1.390 . S
C1655 C1654 1.387 . S
H1656 C1668 0.930 . S
H1657 C1670 0.930 . S
H1658 C1671 0.930 . S
H1659 C1675 0.959 . S
H1660 C1675 0.959 . S
H1661 C1675 0.961 . S
H1662 C1676 0.960 . S
H1663 C1676 0.961 . S
H1664 C1676 0.959 . S
H1665 C1679 0.929 . S
H1666 C1680 0.931 . S
H1667 C1682 0.930 . S
C1668 H1656 0.930 . S
C1668 C1669 1.399 . S
C1668 C1673 1.399 . S
C1669 C1668 1.399 . S
C1669 C1670 1.376 . S
C1670 H1657 0.930 . S
C1670 C1669 1.376 . S
C1670 C1671 1.388 . S
C1671 H1658 0.930 . S
C1671 C1670 1.388 . S
C1671 C1672 1.390 . S
C1672 C1671 1.390 . S
C1672 C1673 1.394 . S
C1672 C1678 1.465 . S
C1673 C1668 1.399 . S
C1673 C1672 1.394 . S
C1673 C1674 1.516 . S
C1674 C1673 1.516 . S
C1674 C1675 1.502 . S
C1674 C1676 1.561 . S
C1674 C1677 1.526 . S
C1675 H1659 0.959 . S
C1675 H1660 0.959 . S
C1675 H1661 0.961 . S
C1675 C1674 1.502 . S
C1676 H1662 0.960 . S
C1676 H1663 0.961 . S
C1676 H1664 0.959 . S
C1676 C1674 1.561 . S
C1677 C1674 1.526 . S
C1677 C1678 1.396 . S
C1677 C1682 1.390 . S
C1678 C1672 1.465 . S
C1678 C1677 1.396 . S
C1678 C1679 1.399 . S
C1679 H1665 0.929 . S
C1679 C1678 1.399 . S
C1679 C1680 1.385 . S
C1680 H1666 0.931 . S
C1680 C1679 1.385 . S
C1680 C1681 1.389 . S
C1681 C1680 1.389 . S
C1681 C1682 1.387 . S
C1682 H1667 0.930 . S
C1682 C1677 1.390 . S
C1682 C1681 1.387 . S
H1683 C1695 0.930 . S
H1684 C1697 0.930 . S
H1685 C1698 0.930 . S
H1686 C1702 0.959 . S
H1687 C1702 0.959 . S
H1688 C1702 0.961 . S
H1689 C1703 0.960 . S
H1690 C1703 0.961 . S
H1691 C1703 0.959 . S
H1692 C1706 0.929 . S
H1693 C1707 0.931 . S
H1694 C1709 0.930 . S
C1695 H1683 0.930 . S
C1695 C1696 1.399 . S
C1695 C1700 1.399 . S
C1696 C1695 1.399 . S
C1696 C1697 1.376 . S
C1697 H1684 0.930 . S
C1697 C1696 1.376 . S
C1697 C1698 1.388 . S
C1698 H1685 0.930 . S
C1698 C1697 1.388 . S
C1698 C1699 1.390 . S
C1699 C1698 1.390 . S
C1699 C1700 1.394 . S
C1699 C1705 1.465 . S
C1700 C1695 1.399 . S
C1700 C1699 1.394 . S
C1700 C1701 1.516 . S
C1701 C1700 1.516 . S
C1701 C1702 1.502 . S
C1701 C1703 1.561 . S
C1701 C1704 1.526 . S
C1702 H1686 0.959 . S
C1702 H1687 0.959 . S
C1702 H1688 0.961 . S
C1702 C1701 1.502 . S
C1703 H1689 0.960 . S
C1703 H1690 0.961 . S
C1703 H1691 0.959 . S
C1703 C1701 1.561 . S
C1704 C1701 1.526 . S
C1704 C1705 1.396 . S
C1704 C1709 1.390 . S
C1705 C1699 1.465 . S
C1705 C1704 1.396 . S
C1705 C1706 1.399 . S
C1706 H1692 0.929 . S
C1706 C1705 1.399 . S
C1706 C1707 1.385 . S
C1707 H1693 0.931 . S
C1707 C1706 1.385 . S
C1707 C1708 1.389 . S
C1708 C1707 1.389 . S
C1708 C1709 1.387 . S
C1709 H1694 0.930 . S
C1709 C1704 1.390 . S
C1709 C1708 1.387 . S
H1710 C1722 0.930 . S
H1711 C1724 0.930 . S
H1712 C1725 0.930 . S
H1713 C1729 0.959 . S
H1714 C1729 0.959 . S
H1715 C1729 0.961 . S
H1716 C1730 0.960 . S
H1717 C1730 0.961 . S
H1718 C1730 0.959 . S
H1719 C1733 0.929 . S
H1720 C1734 0.931 . S
H1721 C1736 0.930 . S
C1722 H1710 0.930 . S
C1722 C1723 1.399 . S
C1722 C1727 1.399 . S
C1723 C1722 1.399 . S
C1723 C1724 1.376 . S
C1724 H1711 0.930 . S
C1724 C1723 1.376 . S
C1724 C1725 1.388 . S
C1725 H1712 0.930 . S
C1725 C1724 1.388 . S
C1725 C1726 1.390 . S
C1726 C1725 1.390 . S
C1726 C1727 1.394 . S
C1726 C1732 1.465 . S
C1727 C1722 1.399 . S
C1727 C1726 1.394 . S
C1727 C1728 1.516 . S
C1728 C1727 1.516 . S
C1728 C1729 1.502 . S
C1728 C1730 1.561 . S
C1728 C1731 1.526 . S
C1729 H1713 0.959 . S
C1729 H1714 0.959 . S
C1729 H1715 0.961 . S
C1729 C1728 1.502 . S
C1730 H1716 0.960 . S
C1730 H1717 0.961 . S
C1730 H1718 0.959 . S
C1730 C1728 1.561 . S
C1731 C1728 1.526 . S
C1731 C1732 1.396 . S
C1731 C1736 1.390 . S
C1732 C1726 1.465 . S
C1732 C1731 1.396 . S
C1732 C1733 1.399 . S
C1733 H1719 0.929 . S
C1733 C1732 1.399 . S
C1733 C1734 1.385 . S
C1734 H1720 0.931 . S
C1734 C1733 1.385 . S
C1734 C1735 1.389 . S
C1735 C1734 1.389 . S
C1735 C1736 1.387 . S
C1736 H1721 0.930 . S
C1736 C1731 1.390 . S
C1736 C1735 1.387 . S
H1737 C1749 0.930 . S
H1738 C1751 0.930 . S
H1739 C1752 0.930 . S
H1740 C1756 0.959 . S
H1741 C1756 0.959 . S
H1742 C1756 0.961 . S
H1743 C1757 0.960 . S
H1744 C1757 0.961 . S
H1745 C1757 0.959 . S
H1746 C1760 0.929 . S
H1747 C1761 0.931 . S
H1748 C1763 0.930 . S
C1749 H1737 0.930 . S
C1749 C1750 1.399 . S
C1749 C1754 1.399 . S
C1750 C1749 1.399 . S
C1750 C1751 1.376 . S
C1751 H1738 0.930 . S
C1751 C1750 1.376 . S
C1751 C1752 1.388 . S
C1752 H1739 0.930 . S
C1752 C1751 1.388 . S
C1752 C1753 1.390 . S
C1753 C1752 1.390 . S
C1753 C1754 1.394 . S
C1753 C1759 1.465 . S
C1754 C1749 1.399 . S
C1754 C1753 1.394 . S
C1754 C1755 1.516 . S
C1755 C1754 1.516 . S
C1755 C1756 1.502 . S
C1755 C1757 1.561 . S
C1755 C1758 1.526 . S
C1756 H1740 0.959 . S
C1756 H1741 0.959 . S
C1756 H1742 0.961 . S
C1756 C1755 1.502 . S
C1757 H1743 0.960 . S
C1757 H1744 0.961 . S
C1757 H1745 0.959 . S
C1757 C1755 1.561 . S
C1758 C1755 1.526 . S
C1758 C1759 1.396 . S
C1758 C1763 1.390 . S
C1759 C1753 1.465 . S
C1759 C1758 1.396 . S
C1759 C1760 1.399 . S
C1760 H1746 0.929 . S
C1760 C1759 1.399 . S
C1760 C1761 1.385 . S
C1761 H1747 0.931 . S
C1761 C1760 1.385 . S
C1761 C1762 1.389 . S
C1762 C1761 1.389 . S
C1762 C1763 1.387 . S
C1763 H1748 0.930 . S
C1763 C1758 1.390 . S
C1763 C1762 1.387 . S
H1764 C1776 0.930 . S
H1765 C1778 0.930 . S
H1766 C1779 0.930 . S
H1767 C1783 0.959 . S
H1768 C1783 0.959 . S
H1769 C1783 0.961 . S
H1770 C1784 0.960 . S
H1771 C1784 0.961 . S
H1772 C1784 0.959 . S
H1773 C1787 0.929 . S
H1774 C1788 0.931 . S
H1775 C1790 0.930 . S
C1776 H1764 0.930 . S
C1776 C1777 1.399 . S
C1776 C1781 1.399 . S
C1777 C1776 1.399 . S
C1777 C1778 1.376 . S
C1778 H1765 0.930 . S
C1778 C1777 1.376 . S
C1778 C1779 1.388 . S
C1779 H1766 0.930 . S
C1779 C1778 1.388 . S
C1779 C1780 1.390 . S
C1780 C1779 1.390 . S
C1780 C1781 1.394 . S
C1780 C1786 1.465 . S
C1781 C1776 1.399 . S
C1781 C1780 1.394 . S
C1781 C1782 1.516 . S
C1782 C1781 1.516 . S
C1782 C1783 1.502 . S
C1782 C1784 1.561 . S
C1782 C1785 1.526 . S
C1783 H1767 0.959 . S
C1783 H1768 0.959 . S
C1783 H1769 0.961 . S
C1783 C1782 1.502 . S
C1784 H1770 0.960 . S
C1784 H1771 0.961 . S
C1784 H1772 0.959 . S
C1784 C1782 1.561 . S
C1785 C1782 1.526 . S
C1785 C1786 1.396 . S
C1785 C1790 1.390 . S
C1786 C1780 1.465 . S
C1786 C1785 1.396 . S
C1786 C1787 1.399 . S
C1787 H1773 0.929 . S
C1787 C1786 1.399 . S
C1787 C1788 1.385 . S
C1788 H1774 0.931 . S
C1788 C1787 1.385 . S
C1788 C1789 1.389 . S
C1789 C1788 1.389 . S
C1789 C1790 1.387 . S
C1790 H1775 0.930 . S
C1790 C1785 1.390 . S
C1790 C1789 1.387 . S
H1791 C1803 0.930 . S
H1792 C1805 0.930 . S
H1793 C1806 0.930 . S
H1794 C1810 0.959 . S
H1795 C1810 0.959 . S
H1796 C1810 0.961 . S
H1797 C1811 0.960 . S
H1798 C1811 0.961 . S
H1799 C1811 0.959 . S
H1800 C1814 0.929 . S
H1801 C1815 0.931 . S
H1802 C1817 0.930 . S
C1803 H1791 0.930 . S
C1803 C1804 1.399 . S
C1803 C1808 1.399 . S
C1804 C1803 1.399 . S
C1804 C1805 1.376 . S
C1805 H1792 0.930 . S
C1805 C1804 1.376 . S
C1805 C1806 1.388 . S
C1806 H1793 0.930 . S
C1806 C1805 1.388 . S
C1806 C1807 1.390 . S
C1807 C1806 1.390 . S
C1807 C1808 1.394 . S
C1807 C1813 1.465 . S
C1808 C1803 1.399 . S
C1808 C1807 1.394 . S
C1808 C1809 1.516 . S
C1809 C1808 1.516 . S
C1809 C1810 1.502 . S
C1809 C1811 1.561 . S
C1809 C1812 1.526 . S
C1810 H1794 0.959 . S
C1810 H1795 0.959 . S
C1810 H1796 0.961 . S
C1810 C1809 1.502 . S
C1811 H1797 0.960 . S
C1811 H1798 0.961 . S
C1811 H1799 0.959 . S
C1811 C1809 1.561 . S
C1812 C1809 1.526 . S
C1812 C1813 1.396 . S
C1812 C1817 1.390 . S
C1813 C1807 1.465 . S
C1813 C1812 1.396 . S
C1813 C1814 1.399 . S
C1814 H1800 0.929 . S
C1814 C1813 1.399 . S
C1814 C1815 1.385 . S
C1815 H1801 0.931 . S
C1815 C1814 1.385 . S
C1815 C1816 1.389 . S
C1816 C1815 1.389 . S
C1816 C1817 1.387 . S
C1817 H1802 0.930 . S
C1817 C1812 1.390 . S
C1817 C1816 1.387 . S
H1818 C1830 0.930 . S
H1819 C1832 0.930 . S
H1820 C1833 0.930 . S
H1821 C1837 0.959 . S
H1822 C1837 0.959 . S
H1823 C1837 0.961 . S
H1824 C1838 0.960 . S
H1825 C1838 0.961 . S
H1826 C1838 0.959 . S
H1827 C1841 0.929 . S
H1828 C1842 0.931 . S
H1829 C1844 0.930 . S
C1830 H1818 0.930 . S
C1830 C1831 1.399 . S
C1830 C1835 1.399 . S
C1831 C1830 1.399 . S
C1831 C1832 1.376 . S
C1832 H1819 0.930 . S
C1832 C1831 1.376 . S
C1832 C1833 1.388 . S
C1833 H1820 0.930 . S
C1833 C1832 1.388 . S
C1833 C1834 1.390 . S
C1834 C1833 1.390 . S
C1834 C1835 1.394 . S
C1834 C1840 1.465 . S
C1835 C1830 1.399 . S
C1835 C1834 1.394 . S
C1835 C1836 1.516 . S
C1836 C1835 1.516 . S
C1836 C1837 1.502 . S
C1836 C1838 1.561 . S
C1836 C1839 1.526 . S
C1837 H1821 0.959 . S
C1837 H1822 0.959 . S
C1837 H1823 0.961 . S
C1837 C1836 1.502 . S
C1838 H1824 0.960 . S
C1838 H1825 0.961 . S
C1838 H1826 0.959 . S
C1838 C1836 1.561 . S
C1839 C1836 1.526 . S
C1839 C1840 1.396 . S
C1839 C1844 1.390 . S
C1840 C1834 1.465 . S
C1840 C1839 1.396 . S
C1840 C1841 1.399 . S
C1841 H1827 0.929 . S
C1841 C1840 1.399 . S
C1841 C1842 1.385 . S
C1842 H1828 0.931 . S
C1842 C1841 1.385 . S
C1842 C1843 1.389 . S
C1843 C1842 1.389 . S
C1843 C1844 1.387 . S
C1844 H1829 0.930 . S
C1844 C1839 1.390 . S
C1844 C1843 1.387 . S
H1845 C1857 0.930 . S
H1846 C1859 0.930 . S
H1847 C1860 0.930 . S
H1848 C1864 0.959 . S
H1849 C1864 0.959 . S
H1850 C1864 0.961 . S
H1851 C1865 0.960 . S
H1852 C1865 0.961 . S
H1853 C1865 0.959 . S
H1854 C1868 0.929 . S
H1855 C1869 0.931 . S
H1856 C1871 0.930 . S
C1857 H1845 0.930 . S
C1857 C1858 1.399 . S
C1857 C1862 1.399 . S
C1858 C1857 1.399 . S
C1858 C1859 1.376 . S
C1859 H1846 0.930 . S
C1859 C1858 1.376 . S
C1859 C1860 1.388 . S
C1860 H1847 0.930 . S
C1860 C1859 1.388 . S
C1860 C1861 1.390 . S
C1861 C1860 1.390 . S
C1861 C1862 1.394 . S
C1861 C1867 1.465 . S
C1862 C1857 1.399 . S
C1862 C1861 1.394 . S
C1862 C1863 1.516 . S
C1863 C1862 1.516 . S
C1863 C1864 1.502 . S
C1863 C1865 1.561 . S
C1863 C1866 1.526 . S
C1864 H1848 0.959 . S
C1864 H1849 0.959 . S
C1864 H1850 0.961 . S
C1864 C1863 1.502 . S
C1865 H1851 0.960 . S
C1865 H1852 0.961 . S
C1865 H1853 0.959 . S
C1865 C1863 1.561 . S
C1866 C1863 1.526 . S
C1866 C1867 1.396 . S
C1866 C1871 1.390 . S
C1867 C1861 1.465 . S
C1867 C1866 1.396 . S
C1867 C1868 1.399 . S
C1868 H1854 0.929 . S
C1868 C1867 1.399 . S
C1868 C1869 1.385 . S
C1869 H1855 0.931 . S
C1869 C1868 1.385 . S
C1869 C1870 1.389 . S
C1870 C1869 1.389 . S
C1870 C1871 1.387 . S
C1871 H1856 0.930 . S
C1871 C1866 1.390 . S
C1871 C1870 1.387 . S
H1872 C1884 0.930 . S
H1873 C1886 0.930 . S
H1874 C1887 0.930 . S
H1875 C1891 0.959 . S
H1876 C1891 0.959 . S
H1877 C1891 0.961 . S
H1878 C1892 0.960 . S
H1879 C1892 0.961 . S
H1880 C1892 0.959 . S
H1881 C1895 0.929 . S
H1882 C1896 0.931 . S
H1883 C1898 0.930 . S
C1884 H1872 0.930 . S
C1884 C1885 1.399 . S
C1884 C1889 1.399 . S
C1885 C1884 1.399 . S
C1885 C1886 1.376 . S
C1886 H1873 0.930 . S
C1886 C1885 1.376 . S
C1886 C1887 1.388 . S
C1887 H1874 0.930 . S
C1887 C1886 1.388 . S
C1887 C1888 1.390 . S
C1888 C1887 1.390 . S
C1888 C1889 1.394 . S
C1888 C1894 1.465 . S
C1889 C1884 1.399 . S
C1889 C1888 1.394 . S
C1889 C1890 1.516 . S
C1890 C1889 1.516 . S
C1890 C1891 1.502 . S
C1890 C1892 1.561 . S
C1890 C1893 1.526 . S
C1891 H1875 0.959 . S
C1891 H1876 0.959 . S
C1891 H1877 0.961 . S
C1891 C1890 1.502 . S
C1892 H1878 0.960 . S
C1892 H1879 0.961 . S
C1892 H1880 0.959 . S
C1892 C1890 1.561 . S
C1893 C1890 1.526 . S
C1893 C1894 1.396 . S
C1893 C1898 1.390 . S
C1894 C1888 1.465 . S
C1894 C1893 1.396 . S
C1894 C1895 1.399 . S
C1895 H1881 0.929 . S
C1895 C1894 1.399 . S
C1895 C1896 1.385 . S
C1896 H1882 0.931 . S
C1896 C1895 1.385 . S
C1896 C1897 1.389 . S
C1897 C1896 1.389 . S
C1897 C1898 1.387 . S
C1898 H1883 0.930 . S
C1898 C1893 1.390 . S
C1898 C1897 1.387 . S
H1899 C1911 0.930 . S
H1900 C1913 0.930 . S
H1901 C1914 0.930 . S
H1902 C1918 0.959 . S
H1903 C1918 0.959 . S
H1904 C1918 0.961 . S
H1905 C1919 0.960 . S
H1906 C1919 0.961 . S
H1907 C1919 0.959 . S
H1908 C1922 0.929 . S
H1909 C1923 0.931 . S
H1910 C1925 0.930 . S
C1911 H1899 0.930 . S
C1911 C1912 1.399 . S
C1911 C1916 1.399 . S
C1912 C1911 1.399 . S
C1912 C1913 1.376 . S
C1913 H1900 0.930 . S
C1913 C1912 1.376 . S
C1913 C1914 1.388 . S
C1914 H1901 0.930 . S
C1914 C1913 1.388 . S
C1914 C1915 1.390 . S
C1915 C1914 1.390 . S
C1915 C1916 1.394 . S
C1915 C1921 1.465 . S
C1916 C1911 1.399 . S
C1916 C1915 1.394 . S
C1916 C1917 1.516 . S
C1917 C1916 1.516 . S
C1917 C1918 1.502 . S
C1917 C1919 1.561 . S
C1917 C1920 1.526 . S
C1918 H1902 0.959 . S
C1918 H1903 0.959 . S
C1918 H1904 0.961 . S
C1918 C1917 1.502 . S
C1919 H1905 0.960 . S
C1919 H1906 0.961 . S
C1919 H1907 0.959 . S
C1919 C1917 1.561 . S
C1920 C1917 1.526 . S
C1920 C1921 1.396 . S
C1920 C1925 1.390 . S
C1921 C1915 1.465 . S
C1921 C1920 1.396 . S
C1921 C1922 1.399 . S
C1922 H1908 0.929 . S
C1922 C1921 1.399 . S
C1922 C1923 1.385 . S
C1923 H1909 0.931 . S
C1923 C1922 1.385 . S
C1923 C1924 1.389 . S
C1924 C1923 1.389 . S
C1924 C1925 1.387 . S
C1925 H1910 0.930 . S
C1925 C1920 1.390 . S
C1925 C1924 1.387 . S
H1926 C1938 0.930 . S
H1927 C1940 0.930 . S
H1928 C1941 0.930 . S
H1929 C1945 0.959 . S
H1930 C1945 0.959 . S
H1931 C1945 0.961 . S
H1932 C1946 0.960 . S
H1933 C1946 0.961 . S
H1934 C1946 0.959 . S
H1935 C1949 0.929 . S
H1936 C1950 0.931 . S
H1937 C1952 0.930 . S
C1938 H1926 0.930 . S
C1938 C1939 1.399 . S
C1938 C1943 1.399 . S
C1939 C1938 1.399 . S
C1939 C1940 1.376 . S
C1940 H1927 0.930 . S
C1940 C1939 1.376 . S
C1940 C1941 1.388 . S
C1941 H1928 0.930 . S
C1941 C1940 1.388 . S
C1941 C1942 1.390 . S
C1942 C1941 1.390 . S
C1942 C1943 1.394 . S
C1942 C1948 1.465 . S
C1943 C1938 1.399 . S
C1943 C1942 1.394 . S
C1943 C1944 1.516 . S
C1944 C1943 1.516 . S
C1944 C1945 1.502 . S
C1944 C1946 1.561 . S
C1944 C1947 1.526 . S
C1945 H1929 0.959 . S
C1945 H1930 0.959 . S
C1945 H1931 0.961 . S
C1945 C1944 1.502 . S
C1946 H1932 0.960 . S
C1946 H1933 0.961 . S
C1946 H1934 0.959 . S
C1946 C1944 1.561 . S
C1947 C1944 1.526 . S
C1947 C1948 1.396 . S
C1947 C1952 1.390 . S
C1948 C1942 1.465 . S
C1948 C1947 1.396 . S
C1948 C1949 1.399 . S
C1949 H1935 0.929 . S
C1949 C1948 1.399 . S
C1949 C1950 1.385 . S
C1950 H1936 0.931 . S
C1950 C1949 1.385 . S
C1950 C1951 1.389 . S
C1951 C1950 1.389 . S
C1951 C1952 1.387 . S
C1952 H1937 0.930 . S
C1952 C1947 1.390 . S
C1952 C1951 1.387 . S
H1953 C1965 0.930 . S
H1954 C1967 0.930 . S
H1955 C1968 0.930 . S
H1956 C1972 0.959 . S
H1957 C1972 0.959 . S
H1958 C1972 0.961 . S
H1959 C1973 0.960 . S
H1960 C1973 0.961 . S
H1961 C1973 0.959 . S
H1962 C1976 0.929 . S
H1963 C1977 0.931 . S
H1964 C1979 0.930 . S
C1965 H1953 0.930 . S
C1965 C1966 1.399 . S
C1965 C1970 1.399 . S
C1966 C1965 1.399 . S
C1966 C1967 1.376 . S
C1967 H1954 0.930 . S
C1967 C1966 1.376 . S
C1967 C1968 1.388 . S
C1968 H1955 0.930 . S
C1968 C1967 1.388 . S
C1968 C1969 1.390 . S
C1969 C1968 1.390 . S
C1969 C1970 1.394 . S
C1969 C1975 1.465 . S
C1970 C1965 1.399 . S
C1970 C1969 1.394 . S
C1970 C1971 1.516 . S
C1971 C1970 1.516 . S
C1971 C1972 1.502 . S
C1971 C1973 1.561 . S
C1971 C1974 1.526 . S
C1972 H1956 0.959 . S
C1972 H1957 0.959 . S
C1972 H1958 0.961 . S
C1972 C1971 1.502 . S
C1973 H1959 0.960 . S
C1973 H1960 0.961 . S
C1973 H1961 0.959 . S
C1973 C1971 1.561 . S
C1974 C1971 1.526 . S
C1974 C1975 1.396 . S
C1974 C1979 1.390 . S
C1975 C1969 1.465 . S
C1975 C1974 1.396 . S
C1975 C1976 1.399 . S
C1976 H1962 0.929 . S
C1976 C1975 1.399 . S
C1976 C1977 1.385 . S
C1977 H1963 0.931 . S
C1977 C1976 1.385 . S
C1977 C1978 1.389 . S
C1978 C1977 1.389 . S
C1978 C1979 1.387 . S
C1979 H1964 0.930 . S
C1979 C1974 1.390 . S
C1979 C1978 1.387 . S
H1980 C1992 0.930 . S
H1981 C1994 0.930 . S
H1982 C1995 0.930 . S
H1983 C1999 0.959 . S
H1984 C1999 0.959 . S
H1985 C1999 0.961 . S
H1986 C2000 0.960 . S
H1987 C2000 0.961 . S
H1988 C2000 0.959 . S
H1989 C2003 0.929 . S
H1990 C2004 0.931 . S
H1991 C2006 0.930 . S
C1992 H1980 0.930 . S
C1992 C1993 1.399 . S
C1992 C1997 1.399 . S
C1993 C1992 1.399 . S
C1993 C1994 1.376 . S
C1994 H1981 0.930 . S
C1994 C1993 1.376 . S
C1994 C1995 1.388 . S
C1995 H1982 0.930 . S
C1995 C1994 1.388 . S
C1995 C1996 1.390 . S
C1996 C1995 1.390 . S
C1996 C1997 1.394 . S
C1996 C2002 1.465 . S
C1997 C1992 1.399 . S
C1997 C1996 1.394 . S
C1997 C1998 1.516 . S
C1998 C1997 1.516 . S
C1998 C1999 1.502 . S
C1998 C2000 1.561 . S
C1998 C2001 1.526 . S
C1999 H1983 0.959 . S
C1999 H1984 0.959 . S
C1999 H1985 0.961 . S
C1999 C1998 1.502 . S
C2000 H1986 0.960 . S
C2000 H1987 0.961 . S
C2000 H1988 0.959 . S
C2000 C1998 1.561 . S
C2001 C1998 1.526 . S
C2001 C2002 1.396 . S
C2001 C2006 1.390 . S
C2002 C1996 1.465 . S
C2002 C2001 1.396 . S
C2002 C2003 1.399 . S
C2003 H1989 0.929 . S
C2003 C2002 1.399 . S
C2003 C2004 1.385 . S
C2004 H1990 0.931 . S
C2004 C2003 1.385 . S
C2004 C2005 1.389 . S
C2005 C2004 1.389 . S
C2005 C2006 1.387 . S
C2006 H1991 0.930 . S
C2006 C2001 1.390 . S
C2006 C2005 1.387 . S
H2007 C2019 0.930 . S
H2008 C2021 0.930 . S
H2009 C2022 0.930 . S
H2010 C2026 0.959 . S
H2011 C2026 0.959 . S
H2012 C2026 0.961 . S
H2013 C2027 0.960 . S
H2014 C2027 0.961 . S
H2015 C2027 0.959 . S
H2016 C2030 0.929 . S
H2017 C2031 0.931 . S
H2018 C2033 0.930 . S
C2019 H2007 0.930 . S
C2019 C2020 1.399 . S
C2019 C2024 1.399 . S
C2020 C2019 1.399 . S
C2020 C2021 1.376 . S
C2021 H2008 0.930 . S
C2021 C2020 1.376 . S
C2021 C2022 1.388 . S
C2022 H2009 0.930 . S
C2022 C2021 1.388 . S
C2022 C2023 1.390 . S
C2023 C2022 1.390 . S
C2023 C2024 1.394 . S
C2023 C2029 1.465 . S
C2024 C2019 1.399 . S
C2024 C2023 1.394 . S
C2024 C2025 1.516 . S
C2025 C2024 1.516 . S
C2025 C2026 1.502 . S
C2025 C2027 1.561 . S
C2025 C2028 1.526 . S
C2026 H2010 0.959 . S
C2026 H2011 0.959 . S
C2026 H2012 0.961 . S
C2026 C2025 1.502 . S
C2027 H2013 0.960 . S
C2027 H2014 0.961 . S
C2027 H2015 0.959 . S
C2027 C2025 1.561 . S
C2028 C2025 1.526 . S
C2028 C2029 1.396 . S
C2028 C2033 1.390 . S
C2029 C2023 1.465 . S
C2029 C2028 1.396 . S
C2029 C2030 1.399 . S
C2030 H2016 0.929 . S
C2030 C2029 1.399 . S
C2030 C2031 1.385 . S
C2031 H2017 0.931 . S
C2031 C2030 1.385 . S
C2031 C2032 1.389 . S
C2032 C2031 1.389 . S
C2032 C2033 1.387 . S
C2033 H2018 0.930 . S
C2033 C2028 1.390 . S
C2033 C2032 1.387 . S
H2034 C2046 0.930 . S
H2035 C2048 0.930 . S
H2036 C2049 0.930 . S
H2037 C2053 0.959 . S
H2038 C2053 0.959 . S
H2039 C2053 0.961 . S
H2040 C2054 0.960 . S
H2041 C2054 0.961 . S
H2042 C2054 0.959 . S
H2043 C2057 0.929 . S
H2044 C2058 0.931 . S
H2045 C2060 0.930 . S
C2046 H2034 0.930 . S
C2046 C2047 1.399 . S
C2046 C2051 1.399 . S
C2047 C2046 1.399 . S
C2047 C2048 1.376 . S
C2048 H2035 0.930 . S
C2048 C2047 1.376 . S
C2048 C2049 1.388 . S
C2049 H2036 0.930 . S
C2049 C2048 1.388 . S
C2049 C2050 1.390 . S
C2050 C2049 1.390 . S
C2050 C2051 1.394 . S
C2050 C2056 1.465 . S
C2051 C2046 1.399 . S
C2051 C2050 1.394 . S
C2051 C2052 1.516 . S
C2052 C2051 1.516 . S
C2052 C2053 1.502 . S
C2052 C2054 1.561 . S
C2052 C2055 1.526 . S
C2053 H2037 0.959 . S
C2053 H2038 0.959 . S
C2053 H2039 0.961 . S
C2053 C2052 1.502 . S
C2054 H2040 0.960 . S
C2054 H2041 0.961 . S
C2054 H2042 0.959 . S
C2054 C2052 1.561 . S
C2055 C2052 1.526 . S
C2055 C2056 1.396 . S
C2055 C2060 1.390 . S
C2056 C2050 1.465 . S
C2056 C2055 1.396 . S
C2056 C2057 1.399 . S
C2057 H2043 0.929 . S
C2057 C2056 1.399 . S
C2057 C2058 1.385 . S
C2058 H2044 0.931 . S
C2058 C2057 1.385 . S
C2058 C2059 1.389 . S
C2059 C2058 1.389 . S
C2059 C2060 1.387 . S
C2060 H2045 0.930 . S
C2060 C2055 1.390 . S
C2060 C2059 1.387 . S
H2061 C2073 0.930 . S
H2062 C2075 0.930 . S
H2063 C2076 0.930 . S
H2064 C2080 0.959 . S
H2065 C2080 0.959 . S
H2066 C2080 0.961 . S
H2067 C2081 0.960 . S
H2068 C2081 0.961 . S
H2069 C2081 0.959 . S
H2070 C2084 0.929 . S
H2071 C2085 0.931 . S
H2072 C2087 0.930 . S
C2073 H2061 0.930 . S
C2073 C2074 1.399 . S
C2073 C2078 1.399 . S
C2074 C2073 1.399 . S
C2074 C2075 1.376 . S
C2075 H2062 0.930 . S
C2075 C2074 1.376 . S
C2075 C2076 1.388 . S
C2076 H2063 0.930 . S
C2076 C2075 1.388 . S
C2076 C2077 1.390 . S
C2077 C2076 1.390 . S
C2077 C2078 1.394 . S
C2077 C2083 1.465 . S
C2078 C2073 1.399 . S
C2078 C2077 1.394 . S
C2078 C2079 1.516 . S
C2079 C2078 1.516 . S
C2079 C2080 1.502 . S
C2079 C2081 1.561 . S
C2079 C2082 1.526 . S
C2080 H2064 0.959 . S
C2080 H2065 0.959 . S
C2080 H2066 0.961 . S
C2080 C2079 1.502 . S
C2081 H2067 0.960 . S
C2081 H2068 0.961 . S
C2081 H2069 0.959 . S
C2081 C2079 1.561 . S
C2082 C2079 1.526 . S
C2082 C2083 1.396 . S
C2082 C2087 1.390 . S
C2083 C2077 1.465 . S
C2083 C2082 1.396 . S
C2083 C2084 1.399 . S
C2084 H2070 0.929 . S
C2084 C2083 1.399 . S
C2084 C2085 1.385 . S
C2085 H2071 0.931 . S
C2085 C2084 1.385 . S
C2085 C2086 1.389 . S
C2086 C2085 1.389 . S
C2086 C2087 1.387 . S
C2087 H2072 0.930 . S
C2087 C2082 1.390 . S
C2087 C2086 1.387 . S
H2088 C2100 0.930 . S
H2089 C2102 0.930 . S
H2090 C2103 0.930 . S
H2091 C2107 0.959 . S
H2092 C2107 0.959 . S
H2093 C2107 0.961 . S
H2094 C2108 0.960 . S
H2095 C2108 0.961 . S
H2096 C2108 0.959 . S
H2097 C2111 0.929 . S
H2098 C2112 0.931 . S
H2099 C2114 0.930 . S
C2100 H2088 0.930 . S
C2100 C2101 1.399 . S
C2100 C2105 1.399 . S
C2101 C2100 1.399 . S
C2101 C2102 1.376 . S
C2102 H2089 0.930 . S
C2102 C2101 1.376 . S
C2102 C2103 1.388 . S
C2103 H2090 0.930 . S
C2103 C2102 1.388 . S
C2103 C2104 1.390 . S
C2104 C2103 1.390 . S
C2104 C2105 1.394 . S
C2104 C2110 1.465 . S
C2105 C2100 1.399 . S
C2105 C2104 1.394 . S
C2105 C2106 1.516 . S
C2106 C2105 1.516 . S
C2106 C2107 1.502 . S
C2106 C2108 1.561 . S
C2106 C2109 1.526 . S
C2107 H2091 0.959 . S
C2107 H2092 0.959 . S
C2107 H2093 0.961 . S
C2107 C2106 1.502 . S
C2108 H2094 0.960 . S
C2108 H2095 0.961 . S
C2108 H2096 0.959 . S
C2108 C2106 1.561 . S
C2109 C2106 1.526 . S
C2109 C2110 1.396 . S
C2109 C2114 1.390 . S
C2110 C2104 1.465 . S
C2110 C2109 1.396 . S
C2110 C2111 1.399 . S
C2111 H2097 0.929 . S
C2111 C2110 1.399 . S
C2111 C2112 1.385 . S
C2112 H2098 0.931 . S
C2112 C2111 1.385 . S
C2112 C2113 1.389 . S
C2113 C2112 1.389 . S
C2113 C2114 1.387 . S
C2114 H2099 0.930 . S
C2114 C2109 1.390 . S
C2114 C2113 1.387 . S
H2115 C2127 0.930 . S
H2116 C2129 0.930 . S
H2117 C2130 0.930 . S
H2118 C2134 0.959 . S
H2119 C2134 0.959 . S
H2120 C2134 0.961 . S
H2121 C2135 0.960 . S
H2122 C2135 0.961 . S
H2123 C2135 0.959 . S
H2124 C2138 0.929 . S
H2125 C2139 0.931 . S
H2126 C2141 0.930 . S
C2127 H2115 0.930 . S
C2127 C2128 1.399 . S
C2127 C2132 1.399 . S
C2128 C2127 1.399 . S
C2128 C2129 1.376 . S
C2129 H2116 0.930 . S
C2129 C2128 1.376 . S
C2129 C2130 1.388 . S
C2130 H2117 0.930 . S
C2130 C2129 1.388 . S
C2130 C2131 1.390 . S
C2131 C2130 1.390 . S
C2131 C2132 1.394 . S
C2131 C2137 1.465 . S
C2132 C2127 1.399 . S
C2132 C2131 1.394 . S
C2132 C2133 1.516 . S
C2133 C2132 1.516 . S
C2133 C2134 1.502 . S
C2133 C2135 1.561 . S
C2133 C2136 1.526 . S
C2134 H2118 0.959 . S
C2134 H2119 0.959 . S
C2134 H2120 0.961 . S
C2134 C2133 1.502 . S
C2135 H2121 0.960 . S
C2135 H2122 0.961 . S
C2135 H2123 0.959 . S
C2135 C2133 1.561 . S
C2136 C2133 1.526 . S
C2136 C2137 1.396 . S
C2136 C2141 1.390 . S
C2137 C2131 1.465 . S
C2137 C2136 1.396 . S
C2137 C2138 1.399 . S
C2138 H2124 0.929 . S
C2138 C2137 1.399 . S
C2138 C2139 1.385 . S
C2139 H2125 0.931 . S
C2139 C2138 1.385 . S
C2139 C2140 1.389 . S
C2140 C2139 1.389 . S
C2140 C2141 1.387 . S
C2141 H2126 0.930 . S
C2141 C2136 1.390 . S
C2141 C2140 1.387 . S
H2142 C2154 0.930 . S
H2143 C2156 0.930 . S
H2144 C2157 0.930 . S
H2145 C2161 0.959 . S
H2146 C2161 0.959 . S
H2147 C2161 0.961 . S
H2148 C2162 0.960 . S
H2149 C2162 0.961 . S
H2150 C2162 0.959 . S
H2151 C2165 0.929 . S
H2152 C2166 0.931 . S
H2153 C2168 0.930 . S
C2154 H2142 0.930 . S
C2154 C2155 1.399 . S
C2154 C2159 1.399 . S
C2155 C2154 1.399 . S
C2155 C2156 1.376 . S
C2156 H2143 0.930 . S
C2156 C2155 1.376 . S
C2156 C2157 1.388 . S
C2157 H2144 0.930 . S
C2157 C2156 1.388 . S
C2157 C2158 1.390 . S
C2158 C2157 1.390 . S
C2158 C2159 1.394 . S
C2158 C2164 1.465 . S
C2159 C2154 1.399 . S
C2159 C2158 1.394 . S
C2159 C2160 1.516 . S
C2160 C2159 1.516 . S
C2160 C2161 1.502 . S
C2160 C2162 1.561 . S
C2160 C2163 1.526 . S
C2161 H2145 0.959 . S
C2161 H2146 0.959 . S
C2161 H2147 0.961 . S
C2161 C2160 1.502 . S
C2162 H2148 0.960 . S
C2162 H2149 0.961 . S
C2162 H2150 0.959 . S
C2162 C2160 1.561 . S
C2163 C2160 1.526 . S
C2163 C2164 1.396 . S
C2163 C2168 1.390 . S
C2164 C2158 1.465 . S
C2164 C2163 1.396 . S
C2164 C2165 1.399 . S
C2165 H2151 0.929 . S
C2165 C2164 1.399 . S
C2165 C2166 1.385 . S
C2166 H2152 0.931 . S
C2166 C2165 1.385 . S
C2166 C2167 1.389 . S
C2167 C2166 1.389 . S
C2167 C2168 1.387 . S
C2168 H2153 0.930 . S
C2168 C2163 1.390 . S
C2168 C2167 1.387 . S
H2169 C2181 0.930 . S
H2170 C2183 0.930 . S
H2171 C2184 0.930 . S
H2172 C2188 0.959 . S
H2173 C2188 0.959 . S
H2174 C2188 1.003 . S
H2175 C2189 0.960 . S
H2176 C2189 0.961 . S
H2177 C2189 0.959 . S
H2178 C2192 0.929 . S
H2179 C2193 0.931 . S
H2180 C2195 0.930 . S
C2181 H2169 0.930 . S
C2181 C2182 1.399 . S
C2181 C2186 1.399 . S
C2182 C2181 1.399 . S
C2182 C2183 1.376 . S
C2183 H2170 0.930 . S
C2183 C2182 1.376 . S
C2183 C2184 1.388 . S
C2184 H2171 0.930 . S
C2184 C2183 1.388 . S
C2184 C2185 1.390 . S
C2185 C2184 1.390 . S
C2185 C2186 1.394 . S
C2185 C2191 1.465 . S
C2186 C2181 1.399 . S
C2186 C2185 1.394 . S
C2186 C2187 1.516 . S
C2187 C2186 1.516 . S
C2187 C2188 1.502 . S
C2187 C2189 1.561 . S
C2187 C2190 1.526 . S
C2188 H2172 0.959 . S
C2188 H2173 0.959 . S
C2188 H2174 1.003 . S
C2188 C2187 1.502 . S
C2189 H2175 0.960 . S
C2189 H2176 0.961 . S
C2189 H2177 0.959 . S
C2189 C2187 1.561 . S
C2190 C2187 1.526 . S
C2190 C2191 1.396 . S
C2190 C2195 1.390 . S
C2191 C2185 1.465 . S
C2191 C2190 1.396 . S
C2191 C2192 1.399 . S
C2192 H2178 0.929 . S
C2192 C2191 1.399 . S
C2192 C2193 1.385 . S
C2193 H2179 0.931 . S
C2193 C2192 1.385 . S
C2193 C2194 1.389 . S
C2194 C2193 1.389 . S
C2194 C2195 1.387 . S
C2195 H2180 0.930 . S
C2195 C2190 1.390 . S
C2195 C2194 1.387 . S
H2196 C2208 0.930 . S
H2197 C2210 0.930 . S
H2198 C2211 0.930 . S
H2199 C2215 0.959 . S
H2200 C2215 0.959 . S
H2201 C2215 0.961 . S
H2202 C2216 1.005 . S
H2203 C2216 0.961 . S
H2204 C2216 0.959 . S
H2205 C2219 0.929 . S
H2206 C2220 0.931 . S
H2207 C2222 0.930 . S
C2208 H2196 0.930 . S
C2208 C2209 1.399 . S
C2208 C2213 1.399 . S
C2209 C2208 1.399 . S
C2209 C2210 1.376 . S
C2210 H2197 0.930 . S
C2210 C2209 1.376 . S
C2210 C2211 1.388 . S
C2211 H2198 0.930 . S
C2211 C2210 1.388 . S
C2211 C2212 1.390 . S
C2212 C2211 1.390 . S
C2212 C2213 1.394 . S
C2212 C2218 1.465 . S
C2213 C2208 1.399 . S
C2213 C2212 1.394 . S
C2213 C2214 1.516 . S
C2214 C2213 1.516 . S
C2214 C2215 1.502 . S
C2214 C2216 1.561 . S
C2214 C2217 1.526 . S
C2215 H2199 0.959 . S
C2215 H2200 0.959 . S
C2215 H2201 0.961 . S
C2215 C2214 1.502 . S
C2216 H2202 1.005 . S
C2216 H2203 0.961 . S
C2216 H2204 0.959 . S
C2216 C2214 1.561 . S
C2217 C2214 1.526 . S
C2217 C2218 1.396 . S
C2217 C2222 1.390 . S
C2218 C2212 1.465 . S
C2218 C2217 1.396 . S
C2218 C2219 1.399 . S
C2219 H2205 0.929 . S
C2219 C2218 1.399 . S
C2219 C2220 1.385 . S
C2220 H2206 0.931 . S
C2220 C2219 1.385 . S
C2220 C2221 1.389 . S
C2221 C2220 1.389 . S
C2221 C2222 1.387 . S
C2222 H2207 0.930 . S
C2222 C2217 1.390 . S
C2222 C2221 1.387 . S
H2223 C2235 0.930 . S
H2224 C2237 0.930 . S
H2225 C2238 0.930 . S
H2226 C2242 0.959 . S
H2227 C2242 0.959 . S
H2228 C2242 0.961 . S
H2229 C2243 0.960 . S
H2230 C2243 0.961 . S
H2231 C2243 0.959 . S
H2232 C2246 0.929 . S
H2233 C2247 0.931 . S
H2234 C2249 0.930 . S
C2235 H2223 0.930 . S
C2235 C2236 1.399 . S
C2235 C2240 1.399 . S
C2236 C2235 1.399 . S
C2236 C2237 1.376 . S
C2237 H2224 0.930 . S
C2237 C2236 1.376 . S
C2237 C2238 1.388 . S
C2238 H2225 0.930 . S
C2238 C2237 1.388 . S
C2238 C2239 1.390 . S
C2239 C2238 1.390 . S
C2239 C2240 1.394 . S
C2239 C2245 1.465 . S
C2240 C2235 1.399 . S
C2240 C2239 1.394 . S
C2240 C2241 1.516 . S
C2241 C2240 1.516 . S
C2241 C2242 1.502 . S
C2241 C2243 1.561 . S
C2241 C2244 1.526 . S
C2242 H2226 0.959 . S
C2242 H2227 0.959 . S
C2242 H2228 0.961 . S
C2242 C2241 1.502 . S
C2243 H2229 0.960 . S
C2243 H2230 0.961 . S
C2243 H2231 0.959 . S
C2243 C2241 1.561 . S
C2244 C2241 1.526 . S
C2244 C2245 1.396 . S
C2244 C2249 1.390 . S
C2245 C2239 1.465 . S
C2245 C2244 1.396 . S
C2245 C2246 1.399 . S
C2246 H2232 0.929 . S
C2246 C2245 1.399 . S
C2246 C2247 1.385 . S
C2247 H2233 0.931 . S
C2247 C2246 1.385 . S
C2247 C2248 1.389 . S
C2248 C2247 1.389 . S
C2248 C2249 1.387 . S
C2249 H2234 0.930 . S
C2249 C2244 1.390 . S
C2249 C2248 1.387 . S
H2250 C2262 0.930 . S
H2251 C2264 0.930 . S
H2252 C2265 0.930 . S
H2253 C2269 0.959 . S
H2254 C2269 0.959 . S
H2255 C2269 0.961 . S
H2256 C2270 0.960 . S
H2257 C2270 0.961 . S
H2258 C2270 0.959 . S
H2259 C2273 0.929 . S
H2260 C2274 0.931 . S
H2261 C2276 0.930 . S
C2262 H2250 0.930 . S
C2262 C2263 1.399 . S
C2262 C2267 1.399 . S
C2263 C2262 1.399 . S
C2263 C2264 1.376 . S
C2264 H2251 0.930 . S
C2264 C2263 1.376 . S
C2264 C2265 1.388 . S
C2265 H2252 0.930 . S
C2265 C2264 1.388 . S
C2265 C2266 1.390 . S
C2266 C2265 1.390 . S
C2266 C2267 1.394 . S
C2266 C2272 1.465 . S
C2267 C2262 1.399 . S
C2267 C2266 1.394 . S
C2267 C2268 1.516 . S
C2268 C2267 1.516 . S
C2268 C2269 1.502 . S
C2268 C2270 1.561 . S
C2268 C2271 1.526 . S
C2269 H2253 0.959 . S
C2269 H2254 0.959 . S
C2269 H2255 0.961 . S
C2269 C2268 1.502 . S
C2270 H2256 0.960 . S
C2270 H2257 0.961 . S
C2270 H2258 0.959 . S
C2270 C2268 1.561 . S
C2271 C2268 1.526 . S
C2271 C2272 1.396 . S
C2271 C2276 1.390 . S
C2272 C2266 1.465 . S
C2272 C2271 1.396 . S
C2272 C2273 1.399 . S
C2273 H2259 0.929 . S
C2273 C2272 1.399 . S
C2273 C2274 1.385 . S
C2274 H2260 0.931 . S
C2274 C2273 1.385 . S
C2274 C2275 1.389 . S
C2275 C2274 1.389 . S
C2275 C2276 1.387 . S
C2276 H2261 0.930 . S
C2276 C2271 1.390 . S
C2276 C2275 1.387 . S
H2277 C2289 0.930 . S
H2278 C2291 0.930 . S
H2279 C2292 0.930 . S
H2280 C2296 0.959 . S
H2281 C2296 0.959 . S
H2282 C2296 0.961 . S
H2283 C2297 0.960 . S
H2284 C2297 0.961 . S
H2285 C2297 0.959 . S
H2286 C2300 0.929 . S
H2287 C2301 0.931 . S
H2288 C2303 0.930 . S
C2289 H2277 0.930 . S
C2289 C2290 1.399 . S
C2289 C2294 1.399 . S
C2290 C2289 1.399 . S
C2290 C2291 1.376 . S
C2291 H2278 0.930 . S
C2291 C2290 1.376 . S
C2291 C2292 1.388 . S
C2292 H2279 0.930 . S
C2292 C2291 1.388 . S
C2292 C2293 1.390 . S
C2293 C2292 1.390 . S
C2293 C2294 1.394 . S
C2293 C2299 1.465 . S
C2294 C2289 1.399 . S
C2294 C2293 1.394 . S
C2294 C2295 1.516 . S
C2295 C2294 1.516 . S
C2295 C2296 1.502 . S
C2295 C2297 1.561 . S
C2295 C2298 1.526 . S
C2296 H2280 0.959 . S
C2296 H2281 0.959 . S
C2296 H2282 0.961 . S
C2296 C2295 1.502 . S
C2297 H2283 0.960 . S
C2297 H2284 0.961 . S
C2297 H2285 0.959 . S
C2297 C2295 1.561 . S
C2298 C2295 1.526 . S
C2298 C2299 1.396 . S
C2298 C2303 1.390 . S
C2299 C2293 1.465 . S
C2299 C2298 1.396 . S
C2299 C2300 1.399 . S
C2300 H2286 0.929 . S
C2300 C2299 1.399 . S
C2300 C2301 1.385 . S
C2301 H2287 0.931 . S
C2301 C2300 1.385 . S
C2301 C2302 1.389 . S
C2302 C2301 1.389 . S
C2302 C2303 1.387 . S
C2303 H2288 0.930 . S
C2303 C2298 1.390 . S
C2303 C2302 1.387 . S
H2304 C2316 0.930 . S
H2305 C2318 0.930 . S
H2306 C2319 0.930 . S
H2307 C2323 0.959 . S
H2308 C2323 0.959 . S
H2309 C2323 0.961 . S
H2310 C2324 0.960 . S
H2311 C2324 0.961 . S
H2312 C2324 0.959 . S
H2313 C2327 0.929 . S
H2314 C2328 0.931 . S
H2315 C2330 0.930 . S
C2316 H2304 0.930 . S
C2316 C2317 1.399 . S
C2316 C2321 1.399 . S
C2317 C2316 1.399 . S
C2317 C2318 1.376 . S
C2318 H2305 0.930 . S
C2318 C2317 1.376 . S
C2318 C2319 1.388 . S
C2319 H2306 0.930 . S
C2319 C2318 1.388 . S
C2319 C2320 1.390 . S
C2320 C2319 1.390 . S
C2320 C2321 1.394 . S
C2320 C2326 1.465 . S
C2321 C2316 1.399 . S
C2321 C2320 1.394 . S
C2321 C2322 1.516 . S
C2322 C2321 1.516 . S
C2322 C2323 1.502 . S
C2322 C2324 1.561 . S
C2322 C2325 1.526 . S
C2323 H2307 0.959 . S
C2323 H2308 0.959 . S
C2323 H2309 0.961 . S
C2323 C2322 1.502 . S
C2324 H2310 0.960 . S
C2324 H2311 0.961 . S
C2324 H2312 0.959 . S
C2324 C2322 1.561 . S
C2325 C2322 1.526 . S
C2325 C2326 1.396 . S
C2325 C2330 1.390 . S
C2326 C2320 1.465 . S
C2326 C2325 1.396 . S
C2326 C2327 1.399 . S
C2327 H2313 0.929 . S
C2327 C2326 1.399 . S
C2327 C2328 1.385 . S
C2328 H2314 0.931 . S
C2328 C2327 1.385 . S
C2328 C2329 1.389 . S
C2329 C2328 1.389 . S
C2329 C2330 1.387 . S
C2330 H2315 0.930 . S
C2330 C2325 1.390 . S
C2330 C2329 1.387 . S
H2331 C2343 0.930 . S
H2332 C2345 0.930 . S
H2333 C2346 0.930 . S
H2334 C2350 0.959 . S
H2335 C2350 0.959 . S
H2336 C2350 0.961 . S
H2337 C2351 0.960 . S
H2338 C2351 0.961 . S
H2339 C2351 0.959 . S
H2340 C2354 0.929 . S
H2341 C2355 0.931 . S
H2342 C2357 0.930 . S
C2343 H2331 0.930 . S
C2343 C2344 1.399 . S
C2343 C2348 1.399 . S
C2344 C2343 1.399 . S
C2344 C2345 1.376 . S
C2345 H2332 0.930 . S
C2345 C2344 1.376 . S
C2345 C2346 1.388 . S
C2346 H2333 0.930 . S
C2346 C2345 1.388 . S
C2346 C2347 1.390 . S
C2347 C2346 1.390 . S
C2347 C2348 1.394 . S
C2347 C2353 1.465 . S
C2348 C2343 1.399 . S
C2348 C2347 1.394 . S
C2348 C2349 1.516 . S
C2349 C2348 1.516 . S
C2349 C2350 1.502 . S
C2349 C2351 1.561 . S
C2349 C2352 1.526 . S
C2350 H2334 0.959 . S
C2350 H2335 0.959 . S
C2350 H2336 0.961 . S
C2350 C2349 1.502 . S
C2351 H2337 0.960 . S
C2351 H2338 0.961 . S
C2351 H2339 0.959 . S
C2351 C2349 1.561 . S
C2352 C2349 1.526 . S
C2352 C2353 1.396 . S
C2352 C2357 1.390 . S
C2353 C2347 1.465 . S
C2353 C2352 1.396 . S
C2353 C2354 1.399 . S
C2354 H2340 0.929 . S
C2354 C2353 1.399 . S
C2354 C2355 1.385 . S
C2355 H2341 0.931 . S
C2355 C2354 1.385 . S
C2355 C2356 1.389 . S
C2356 C2355 1.389 . S
C2356 C2357 1.387 . S
C2357 H2342 0.930 . S
C2357 C2352 1.390 . S
C2357 C2356 1.387 . S
H2358 C2370 0.930 . S
H2359 C2372 0.930 . S
H2360 C2373 0.930 . S
H2361 C2377 0.959 . S
H2362 C2377 0.959 . S
H2363 C2377 0.961 . S
H2364 C2378 0.960 . S
H2365 C2378 0.961 . S
H2366 C2378 0.959 . S
H2367 C2381 0.929 . S
H2368 C2382 0.931 . S
H2369 C2384 0.930 . S
C2370 H2358 0.930 . S
C2370 C2371 1.399 . S
C2370 C2375 1.399 . S
C2371 C2370 1.399 . S
C2371 C2372 1.376 . S
C2372 H2359 0.930 . S
C2372 C2371 1.376 . S
C2372 C2373 1.388 . S
C2373 H2360 0.930 . S
C2373 C2372 1.388 . S
C2373 C2374 1.390 . S
C2374 C2373 1.390 . S
C2374 C2375 1.394 . S
C2374 C2380 1.465 . S
C2375 C2370 1.399 . S
C2375 C2374 1.394 . S
C2375 C2376 1.516 . S
C2376 C2375 1.516 . S
C2376 C2377 1.502 . S
C2376 C2378 1.561 . S
C2376 C2379 1.526 . S
C2377 H2361 0.959 . S
C2377 H2362 0.959 . S
C2377 H2363 0.961 . S
C2377 C2376 1.502 . S
C2378 H2364 0.960 . S
C2378 H2365 0.961 . S
C2378 H2366 0.959 . S
C2378 C2376 1.561 . S
C2379 C2376 1.526 . S
C2379 C2380 1.396 . S
C2379 C2384 1.390 . S
C2380 C2374 1.465 . S
C2380 C2379 1.396 . S
C2380 C2381 1.399 . S
C2381 H2367 0.929 . S
C2381 C2380 1.399 . S
C2381 C2382 1.385 . S
C2382 H2368 0.931 . S
C2382 C2381 1.385 . S
C2382 C2383 1.389 . S
C2383 C2382 1.389 . S
C2383 C2384 1.387 . S
C2384 H2369 0.930 . S
C2384 C2379 1.390 . S
C2384 C2383 1.387 . S
H2385 C2397 0.930 . S
H2386 C2399 0.930 . S
H2387 C2400 0.930 . S
H2388 C2404 0.959 . S
H2389 C2404 0.959 . S
H2390 C2404 0.961 . S
H2391 C2405 0.960 . S
H2392 C2405 0.961 . S
H2393 C2405 0.959 . S
H2394 C2408 0.929 . S
H2395 C2409 0.931 . S
H2396 C2411 0.930 . S
C2397 H2385 0.930 . S
C2397 C2398 1.399 . S
C2397 C2402 1.399 . S
C2398 C2397 1.399 . S
C2398 C2399 1.376 . S
C2399 H2386 0.930 . S
C2399 C2398 1.376 . S
C2399 C2400 1.388 . S
C2400 H2387 0.930 . S
C2400 C2399 1.388 . S
C2400 C2401 1.390 . S
C2401 C2400 1.390 . S
C2401 C2402 1.394 . S
C2401 C2407 1.465 . S
C2402 C2397 1.399 . S
C2402 C2401 1.394 . S
C2402 C2403 1.516 . S
C2403 C2402 1.516 . S
C2403 C2404 1.502 . S
C2403 C2405 1.561 . S
C2403 C2406 1.526 . S
C2404 H2388 0.959 . S
C2404 H2389 0.959 . S
C2404 H2390 0.961 . S
C2404 C2403 1.502 . S
C2405 H2391 0.960 . S
C2405 H2392 0.961 . S
C2405 H2393 0.959 . S
C2405 C2403 1.561 . S
C2406 C2403 1.526 . S
C2406 C2407 1.396 . S
C2406 C2411 1.390 . S
C2407 C2401 1.465 . S
C2407 C2406 1.396 . S
C2407 C2408 1.399 . S
C2408 H2394 0.929 . S
C2408 C2407 1.399 . S
C2408 C2409 1.385 . S
C2409 H2395 0.931 . S
C2409 C2408 1.385 . S
C2409 C2410 1.389 . S
C2410 C2409 1.389 . S
C2410 C2411 1.387 . S
C2411 H2396 0.930 . S
C2411 C2406 1.390 . S
C2411 C2410 1.387 . S
H2412 C2424 0.930 . S
H2413 C2426 0.930 . S
H2414 C2427 0.930 . S
H2415 C2431 0.959 . S
H2416 C2431 0.959 . S
H2417 C2431 0.961 . S
H2418 C2432 0.960 . S
H2419 C2432 0.961 . S
H2420 C2432 0.959 . S
H2421 C2435 0.929 . S
H2422 C2436 0.931 . S
H2423 C2438 0.930 . S
C2424 H2412 0.930 . S
C2424 C2425 1.399 . S
C2424 C2429 1.399 . S
C2425 C2424 1.399 . S
C2425 C2426 1.376 . S
C2426 H2413 0.930 . S
C2426 C2425 1.376 . S
C2426 C2427 1.388 . S
C2427 H2414 0.930 . S
C2427 C2426 1.388 . S
C2427 C2428 1.390 . S
C2428 C2427 1.390 . S
C2428 C2429 1.394 . S
C2428 C2434 1.465 . S
C2429 C2424 1.399 . S
C2429 C2428 1.394 . S
C2429 C2430 1.516 . S
C2430 C2429 1.516 . S
C2430 C2431 1.502 . S
C2430 C2432 1.561 . S
C2430 C2433 1.526 . S
C2431 H2415 0.959 . S
C2431 H2416 0.959 . S
C2431 H2417 0.961 . S
C2431 C2430 1.502 . S
C2432 H2418 0.960 . S
C2432 H2419 0.961 . S
C2432 H2420 0.959 . S
C2432 C2430 1.561 . S
C2433 C2430 1.526 . S
C2433 C2434 1.396 . S
C2433 C2438 1.390 . S
C2434 C2428 1.465 . S
C2434 C2433 1.396 . S
C2434 C2435 1.399 . S
C2435 H2421 0.929 . S
C2435 C2434 1.399 . S
C2435 C2436 1.385 . S
C2436 H2422 0.931 . S
C2436 C2435 1.385 . S
C2436 C2437 1.389 . S
C2437 C2436 1.389 . S
C2437 C2438 1.387 . S
C2438 H2423 0.930 . S
C2438 C2433 1.390 . S
C2438 C2437 1.387 . S
H2439 C2451 0.930 . S
H2440 C2453 0.930 . S
H2441 C2454 0.930 . S
H2442 C2458 0.959 . S
H2443 C2458 0.959 . S
H2444 C2458 0.961 . S
H2445 C2459 0.960 . S
H2446 C2459 0.961 . S
H2447 C2459 0.959 . S
H2448 C2462 0.929 . S
H2449 C2463 0.931 . S
H2450 C2465 0.930 . S
C2451 H2439 0.930 . S
C2451 C2452 1.399 . S
C2451 C2456 1.399 . S
C2452 C2451 1.399 . S
C2452 C2453 1.376 . S
C2453 H2440 0.930 . S
C2453 C2452 1.376 . S
C2453 C2454 1.388 . S
C2454 H2441 0.930 . S
C2454 C2453 1.388 . S
C2454 C2455 1.390 . S
C2455 C2454 1.390 . S
C2455 C2456 1.394 . S
C2455 C2461 1.465 . S
C2456 C2451 1.399 . S
C2456 C2455 1.394 . S
C2456 C2457 1.516 . S
C2457 C2456 1.516 . S
C2457 C2458 1.502 . S
C2457 C2459 1.561 . S
C2457 C2460 1.526 . S
C2458 H2442 0.959 . S
C2458 H2443 0.959 . S
C2458 H2444 0.961 . S
C2458 C2457 1.502 . S
C2459 H2445 0.960 . S
C2459 H2446 0.961 . S
C2459 H2447 0.959 . S
C2459 C2457 1.561 . S
C2460 C2457 1.526 . S
C2460 C2461 1.396 . S
C2460 C2465 1.390 . S
C2461 C2455 1.465 . S
C2461 C2460 1.396 . S
C2461 C2462 1.399 . S
C2462 H2448 0.929 . S
C2462 C2461 1.399 . S
C2462 C2463 1.385 . S
C2463 H2449 0.931 . S
C2463 C2462 1.385 . S
C2463 C2464 1.389 . S
C2464 C2463 1.389 . S
C2464 C2465 1.387 . S
C2465 H2450 0.930 . S
C2465 C2460 1.390 . S
C2465 C2464 1.387 . S
H2466 C2478 0.930 . S
H2467 C2480 0.930 . S
H2468 C2481 0.930 . S
H2469 C2485 0.959 . S
H2470 C2485 0.959 . S
H2471 C2485 0.961 . S
H2472 C2486 0.960 . S
H2473 C2486 0.961 . S
H2474 C2486 0.959 . S
H2475 C2489 0.929 . S
H2476 C2490 0.931 . S
H2477 C2492 0.930 . S
C2478 H2466 0.930 . S
C2478 C2479 1.399 . S
C2478 C2483 1.399 . S
C2479 C2478 1.399 . S
C2479 C2480 1.376 . S
C2480 H2467 0.930 . S
C2480 C2479 1.376 . S
C2480 C2481 1.388 . S
C2481 H2468 0.930 . S
C2481 C2480 1.388 . S
C2481 C2482 1.390 . S
C2482 C2481 1.390 . S
C2482 C2483 1.394 . S
C2482 C2488 1.465 . S
C2483 C2478 1.399 . S
C2483 C2482 1.394 . S
C2483 C2484 1.516 . S
C2484 C2483 1.516 . S
C2484 C2485 1.502 . S
C2484 C2486 1.561 . S
C2484 C2487 1.526 . S
C2485 H2469 0.959 . S
C2485 H2470 0.959 . S
C2485 H2471 0.961 . S
C2485 C2484 1.502 . S
C2486 H2472 0.960 . S
C2486 H2473 0.961 . S
C2486 H2474 0.959 . S
C2486 C2484 1.561 . S
C2487 C2484 1.526 . S
C2487 C2488 1.396 . S
C2487 C2492 1.390 . S
C2488 C2482 1.465 . S
C2488 C2487 1.396 . S
C2488 C2489 1.399 . S
C2489 H2475 0.929 . S
C2489 C2488 1.399 . S
C2489 C2490 1.385 . S
C2490 H2476 0.931 . S
C2490 C2489 1.385 . S
C2490 C2491 1.389 . S
C2491 C2490 1.389 . S
C2491 C2492 1.387 . S
C2492 H2477 0.930 . S
C2492 C2487 1.390 . S
C2492 C2491 1.387 . S
H2493 C2505 0.930 . S
H2494 C2507 0.930 . S
H2495 C2508 0.930 . S
H2496 C2512 0.959 . S
H2497 C2512 0.959 . S
H2498 C2512 0.961 . S
H2499 C2513 0.960 . S
H2500 C2513 0.961 . S
H2501 C2513 0.959 1_655 S
H2502 C2516 0.929 . S
H2503 C2517 0.931 . S
H2504 C2519 0.930 . S
C2505 H2493 0.930 . S
C2505 C2506 1.399 . S
C2505 C2510 1.399 . S
C2506 C2505 1.399 . S
C2506 C2507 1.376 1_455 S
C2507 H2494 0.930 . S
C2507 C2506 1.376 1_655 S
C2507 C2508 1.388 . S
C2508 H2495 0.930 . S
C2508 C2507 1.388 . S
C2508 C2509 1.382 1_655 S
C2509 C2508 1.382 1_455 S
C2509 C2510 1.444 . S
C2509 C2515 1.431 . S
C2510 C2505 1.399 . S
C2510 C2509 1.444 . S
C2510 C2511 1.516 . S
C2511 C2510 1.516 . S
C2511 C2512 1.502 . S
C2511 C2513 1.561 . S
C2511 C2514 1.526 . S
C2512 H2496 0.959 . S
C2512 H2497 0.959 . S
C2512 H2498 0.961 . S
C2512 C2511 1.502 . S
C2513 H2499 0.960 . S
C2513 H2500 0.961 . S
C2513 H2501 0.959 1_455 S
C2513 C2511 1.561 . S
C2514 C2511 1.526 . S
C2514 C2515 1.392 . S
C2514 C2519 1.390 . S
C2515 C2509 1.431 . S
C2515 C2514 1.392 . S
C2515 C2516 1.405 1_455 S
C2516 H2502 0.929 . S
C2516 C2515 1.405 1_655 S
C2516 C2517 1.385 . S
C2517 H2503 0.931 . S
C2517 C2516 1.385 . S
C2517 C2518 1.389 1_655 S
C2518 C2517 1.389 1_455 S
C2518 C2519 1.387 . S
C2519 H2504 0.930 . S
C2519 C2514 1.390 . S
C2519 C2518 1.387 . S
H2520 C2532 0.930 . S
H2521 C2534 0.930 . S
H2522 C2535 0.930 . S
H2523 C2539 0.959 . S
H2524 C2539 0.959 . S
H2525 C2539 0.961 . S
H2526 C2540 0.960 . S
H2527 C2540 0.961 . S
H2528 C2540 0.959 . S
H2529 C2543 0.929 . S
H2530 C2544 0.931 . S
H2531 C2546 0.930 . S
C2532 H2520 0.930 . S
C2532 C2533 1.399 . S
C2532 C2537 1.399 . S
C2533 C2532 1.399 . S
C2533 C2534 1.376 . S
C2534 H2521 0.930 . S
C2534 C2533 1.376 . S
C2534 C2535 1.388 . S
C2535 H2522 0.930 . S
C2535 C2534 1.388 . S
C2535 C2536 1.390 . S
C2536 C2535 1.390 . S
C2536 C2537 1.394 . S
C2536 C2542 1.465 . S
C2537 C2532 1.399 . S
C2537 C2536 1.394 . S
C2537 C2538 1.516 . S
C2538 C2537 1.516 . S
C2538 C2539 1.502 . S
C2538 C2540 1.561 . S
C2538 C2541 1.526 . S
C2539 H2523 0.959 . S
C2539 H2524 0.959 . S
C2539 H2525 0.961 . S
C2539 C2538 1.502 . S
C2540 H2526 0.960 . S
C2540 H2527 0.961 . S
C2540 H2528 0.959 . S
C2540 C2538 1.561 . S
C2541 C2538 1.526 . S
C2541 C2542 1.396 . S
C2541 C2546 1.390 . S
C2542 C2536 1.465 . S
C2542 C2541 1.396 . S
C2542 C2543 1.399 . S
C2543 H2529 0.929 . S
C2543 C2542 1.399 . S
C2543 C2544 1.385 . S
C2544 H2530 0.931 . S
C2544 C2543 1.385 . S
C2544 C2545 1.389 . S
C2545 C2544 1.389 . S
C2545 C2546 1.387 . S
C2546 H2531 0.930 . S
C2546 C2541 1.390 . S
C2546 C2545 1.387 . S
H2547 C2559 0.930 . S
H2548 C2561 0.930 . S
H2549 C2562 0.930 . S
H2550 C2566 0.959 . S
H2551 C2566 0.959 . S
H2552 C2566 0.961 . S
H2553 C2567 0.960 . S
H2554 C2567 0.961 . S
H2555 C2567 0.959 . S
H2556 C2570 0.929 . S
H2557 C2571 0.931 . S
H2558 C2573 0.930 . S
C2559 H2547 0.930 . S
C2559 C2560 1.399 . S
C2559 C2564 1.399 . S
C2560 C2559 1.399 . S
C2560 C2561 1.376 1_565 S
C2561 H2548 0.930 . S
C2561 C2560 1.376 1_545 S
C2561 C2562 1.388 . S
C2562 H2549 0.930 . S
C2562 C2561 1.388 . S
C2562 C2563 1.390 . S
C2563 C2562 1.390 . S
C2563 C2564 1.394 1_545 S
C2563 C2569 1.465 . S
C2564 C2559 1.399 . S
C2564 C2563 1.394 1_565 S
C2564 C2565 1.516 . S
C2565 C2564 1.516 . S
C2565 C2566 1.502 . S
C2565 C2567 1.561 . S
C2565 C2568 1.526 . S
C2566 H2550 0.959 . S
C2566 H2551 0.959 . S
C2566 H2552 0.961 . S
C2566 C2565 1.502 . S
C2567 H2553 0.960 . S
C2567 H2554 0.961 . S
C2567 H2555 0.959 . S
C2567 C2565 1.561 . S
C2568 C2565 1.526 . S
C2568 C2569 1.396 1_565 S
C2568 C2573 1.390 . S
C2569 C2563 1.465 . S
C2569 C2568 1.396 1_545 S
C2569 C2570 1.399 . S
C2570 H2556 0.929 . S
C2570 C2569 1.399 . S
C2570 C2571 1.385 . S
C2571 H2557 0.931 . S
C2571 C2570 1.385 . S
C2571 C2572 1.389 1_545 S
C2572 C2571 1.389 1_565 S
C2572 C2573 1.387 . S
C2573 H2558 0.930 . S
C2573 C2568 1.390 . S
C2573 C2572 1.387 . S
H2574 C2586 0.930 . S
H2575 C2588 0.930 . S
H2576 C2589 0.930 . S
H2577 C2593 0.959 . S
H2578 C2593 0.959 . S
H2579 C2593 0.961 . S
H2580 C2594 0.960 . S
H2581 C2594 0.961 . S
H2582 C2594 0.959 . S
H2583 C2597 0.929 . S
H2584 C2598 0.931 . S
H2585 C2600 0.930 . S
C2586 H2574 0.930 . S
C2586 C2587 1.399 . S
C2586 C2591 1.399 . S
C2587 C2586 1.399 . S
C2587 C2588 1.376 1_565 S
C2588 H2575 0.930 . S
C2588 C2587 1.376 1_545 S
C2588 C2589 1.388 . S
C2589 H2576 0.930 . S
C2589 C2588 1.388 . S
C2589 C2590 1.390 1_545 S
C2590 C2589 1.390 1_565 S
C2590 C2591 1.394 . S
C2590 C2596 1.500 . S
C2591 C2586 1.399 . S
C2591 C2590 1.394 . S
C2591 C2592 1.516 . S
C2592 C2591 1.516 . S
C2592 C2593 1.502 . S
C2592 C2594 1.561 . S
C2592 C2595 1.526 . S
C2593 H2577 0.959 . S
C2593 H2578 0.959 . S
C2593 H2579 0.961 . S
C2593 C2592 1.502 . S
C2594 H2580 0.960 . S
C2594 H2581 0.961 . S
C2594 H2582 0.959 . S
C2594 C2592 1.561 . S
C2595 C2592 1.526 . S
C2595 C2596 1.434 . S
C2595 C2600 1.390 . S
C2596 C2590 1.500 . S
C2596 C2595 1.434 . S
C2596 C2597 1.339 1_565 S
C2597 H2583 0.929 . S
C2597 C2596 1.339 1_545 S
C2597 C2598 1.385 . S
C2598 H2584 0.931 . S
C2598 C2597 1.385 . S
C2598 C2599 1.389 1_545 S
C2599 C2598 1.389 1_565 S
C2599 C2600 1.387 . S
C2600 H2585 0.930 . S
C2600 C2595 1.390 . S
C2600 C2599 1.387 . S
H2601 C2613 0.930 . S
H2602 C2615 0.930 . S
H2603 C2616 0.930 . S
H2604 C2620 0.959 . S
H2605 C2620 0.959 . S
H2606 C2620 0.961 . S
H2607 C2621 0.960 . S
H2608 C2621 0.961 . S
H2609 C2621 0.959 . S
H2610 C2624 0.929 . S
H2611 C2625 0.931 . S
H2612 C2627 0.930 . S
C2613 H2601 0.930 . S
C2613 C2614 1.399 . S
C2613 C2618 1.399 . S
C2614 C2613 1.399 . S
C2614 C2615 1.376 . S
C2615 H2602 0.930 . S
C2615 C2614 1.376 . S
C2615 C2616 1.388 . S
C2616 H2603 0.930 . S
C2616 C2615 1.388 . S
C2616 C2617 1.390 . S
C2617 C2616 1.390 . S
C2617 C2618 1.394 . S
C2617 C2623 1.465 . S
C2618 C2613 1.399 . S
C2618 C2617 1.394 . S
C2618 C2619 1.516 . S
C2619 C2618 1.516 . S
C2619 C2620 1.502 1_455 S
C2619 C2621 1.561 . S
C2619 C2622 1.526 . S
C2620 H2604 0.959 . S
C2620 H2605 0.959 . S
C2620 H2606 0.961 . S
C2620 C2619 1.502 1_655 S
C2621 H2607 0.960 . S
C2621 H2608 0.961 . S
C2621 H2609 0.959 . S
C2621 C2619 1.561 . S
C2622 C2619 1.526 . S
C2622 C2623 1.396 . S
C2622 C2627 1.390 . S
C2623 C2617 1.465 . S
C2623 C2622 1.396 . S
C2623 C2624 1.399 . S
C2624 H2610 0.929 . S
C2624 C2623 1.399 . S
C2624 C2625 1.385 . S
C2625 H2611 0.931 . S
C2625 C2624 1.385 . S
C2625 C2626 1.389 . S
C2626 C2625 1.389 . S
C2626 C2627 1.387 . S
C2627 H2612 0.930 . S
C2627 C2622 1.390 . S
C2627 C2626 1.387 . S
H2628 C2640 0.930 . S
H2629 C2642 0.930 . S
H2630 C2643 0.930 . S
H2631 C2647 0.959 . S
H2632 C2647 0.959 . S
H2633 C2647 0.961 . S
H2634 C2648 0.960 . S
H2635 C2648 0.961 . S
H2636 C2648 0.959 . S
H2637 C2651 0.929 . S
H2638 C2652 0.931 . S
H2639 C2654 0.930 . S
C2640 H2628 0.930 . S
C2640 C2641 1.399 . S
C2640 C2645 1.399 . S
C2641 C2640 1.399 . S
C2641 C2642 1.376 . S
C2642 H2629 0.930 . S
C2642 C2641 1.376 . S
C2642 C2643 1.388 . S
C2643 H2630 0.930 . S
C2643 C2642 1.388 . S
C2643 C2644 1.390 . S
C2644 C2643 1.390 . S
C2644 C2645 1.394 . S
C2644 C2650 1.465 . S
C2645 C2640 1.399 . S
C2645 C2644 1.394 . S
C2645 C2646 1.516 . S
C2646 C2645 1.516 . S
C2646 C2647 1.502 . S
C2646 C2648 1.561 . S
C2646 C2649 1.526 . S
C2647 H2631 0.959 . S
C2647 H2632 0.959 . S
C2647 H2633 0.961 . S
C2647 C2646 1.502 . S
C2648 H2634 0.960 . S
C2648 H2635 0.961 . S
C2648 H2636 0.959 . S
C2648 C2646 1.561 . S
C2649 C2646 1.526 . S
C2649 C2650 1.396 . S
C2649 C2654 1.390 . S
C2650 C2644 1.465 . S
C2650 C2649 1.396 . S
C2650 C2651 1.399 . S
C2651 H2637 0.929 . S
C2651 C2650 1.399 . S
C2651 C2652 1.385 . S
C2652 H2638 0.931 . S
C2652 C2651 1.385 . S
C2652 C2653 1.389 . S
C2653 C2652 1.389 . S
C2653 C2654 1.387 . S
C2654 H2639 0.930 . S
C2654 C2649 1.390 . S
C2654 C2653 1.387 . S
H2655 C2667 0.930 . S
H2656 C2669 0.930 . S
H2657 C2670 0.930 . S
H2658 C2674 0.959 . S
H2659 C2674 0.959 . S
H2660 C2674 0.961 . S
H2661 C2675 0.960 . S
H2662 C2675 0.961 . S
H2663 C2675 0.959 . S
H2664 C2678 0.929 . S
H2665 C2679 0.931 . S
H2666 C2681 0.930 . S
C2667 H2655 0.930 . S
C2667 C2668 1.399 . S
C2667 C2672 1.399 . S
C2668 C2667 1.399 . S
C2668 C2669 1.376 . S
C2669 H2656 0.930 . S
C2669 C2668 1.376 . S
C2669 C2670 1.388 . S
C2670 H2657 0.930 . S
C2670 C2669 1.388 . S
C2670 C2671 1.390 . S
C2671 C2670 1.390 . S
C2671 C2672 1.394 . S
C2671 C2677 1.465 . S
C2672 C2667 1.399 . S
C2672 C2671 1.394 . S
C2672 C2673 1.516 . S
C2673 C2672 1.516 . S
C2673 C2674 1.502 . S
C2673 C2675 1.561 . S
C2673 C2676 1.526 . S
C2674 H2658 0.959 . S
C2674 H2659 0.959 . S
C2674 H2660 0.961 . S
C2674 C2673 1.502 . S
C2675 H2661 0.960 . S
C2675 H2662 0.961 . S
C2675 H2663 0.959 . S
C2675 C2673 1.561 . S
C2676 C2673 1.526 . S
C2676 C2677 1.396 . S
C2676 C2681 1.390 . S
C2677 C2671 1.465 . S
C2677 C2676 1.396 . S
C2677 C2678 1.399 . S
C2678 H2664 0.929 . S
C2678 C2677 1.399 . S
C2678 C2679 1.385 . S
C2679 H2665 0.931 . S
C2679 C2678 1.385 . S
C2679 C2680 1.389 . S
C2680 C2679 1.389 . S
C2680 C2681 1.387 . S
C2681 H2666 0.930 . S
C2681 C2676 1.390 . S
C2681 C2680 1.387 . S
H2682 C2694 0.930 . S
H2683 C2696 0.930 . S
H2684 C2697 0.930 . S
H2685 C2701 0.959 . S
H2686 C2701 0.959 . S
H2687 C2701 0.961 . S
H2688 C2702 0.960 . S
H2689 C2702 0.961 . S
H2690 C2702 0.959 . S
H2691 C2705 0.929 . S
H2692 C2706 0.931 . S
H2693 C2708 0.930 . S
C2694 H2682 0.930 . S
C2694 C2695 1.399 . S
C2694 C2699 1.399 . S
C2695 C2694 1.399 . S
C2695 C2696 1.376 . S
C2696 H2683 0.930 . S
C2696 C2695 1.376 . S
C2696 C2697 1.388 . S
C2697 H2684 0.930 . S
C2697 C2696 1.388 . S
C2697 C2698 1.390 . S
C2698 C2697 1.390 . S
C2698 C2699 1.394 . S
C2698 C2704 1.465 . S
C2699 C2694 1.399 . S
C2699 C2698 1.394 . S
C2699 C2700 1.516 . S
C2700 C2699 1.516 . S
C2700 C2701 1.502 . S
C2700 C2702 1.561 . S
C2700 C2703 1.526 . S
C2701 H2685 0.959 . S
C2701 H2686 0.959 . S
C2701 H2687 0.961 . S
C2701 C2700 1.502 . S
C2702 H2688 0.960 . S
C2702 H2689 0.961 . S
C2702 H2690 0.959 . S
C2702 C2700 1.561 . S
C2703 C2700 1.526 . S
C2703 C2704 1.396 . S
C2703 C2708 1.390 . S
C2704 C2698 1.465 . S
C2704 C2703 1.396 . S
C2704 C2705 1.399 . S
C2705 H2691 0.929 . S
C2705 C2704 1.399 . S
C2705 C2706 1.385 . S
C2706 H2692 0.931 . S
C2706 C2705 1.385 . S
C2706 C2707 1.389 . S
C2707 C2706 1.389 . S
C2707 C2708 1.387 . S
C2708 H2693 0.930 . S
C2708 C2703 1.390 . S
C2708 C2707 1.387 . S
H2709 C2721 0.930 . S
H2710 C2723 0.930 . S
H2711 C2724 0.930 . S
H2712 C2728 0.959 . S
H2713 C2728 0.959 . S
H2714 C2728 0.961 . S
H2715 C2729 0.960 . S
H2716 C2729 0.961 . S
H2717 C2729 0.959 . S
H2718 C2732 0.929 . S
H2719 C2733 0.931 . S
H2720 C2735 0.930 . S
C2721 H2709 0.930 . S
C2721 C2722 1.399 . S
C2721 C2726 1.399 . S
C2722 C2721 1.399 . S
C2722 C2723 1.376 . S
C2723 H2710 0.930 . S
C2723 C2722 1.376 . S
C2723 C2724 1.388 . S
C2724 H2711 0.930 . S
C2724 C2723 1.388 . S
C2724 C2725 1.390 . S
C2725 C2724 1.390 . S
C2725 C2726 1.394 . S
C2725 C2731 1.465 . S
C2726 C2721 1.399 . S
C2726 C2725 1.394 . S
C2726 C2727 1.516 . S
C2727 C2726 1.516 . S
C2727 C2728 1.502 . S
C2727 C2729 1.561 . S
C2727 C2730 1.526 . S
C2728 H2712 0.959 . S
C2728 H2713 0.959 . S
C2728 H2714 0.961 . S
C2728 C2727 1.502 . S
C2729 H2715 0.960 . S
C2729 H2716 0.961 . S
C2729 H2717 0.959 . S
C2729 C2727 1.561 . S
C2730 C2727 1.526 . S
C2730 C2731 1.396 . S
C2730 C2735 1.390 . S
C2731 C2725 1.465 . S
C2731 C2730 1.396 . S
C2731 C2732 1.399 . S
C2732 H2718 0.929 . S
C2732 C2731 1.399 . S
C2732 C2733 1.385 . S
C2733 H2719 0.931 . S
C2733 C2732 1.385 . S
C2733 C2734 1.389 . S
C2734 C2733 1.389 . S
C2734 C2735 1.387 . S
C2735 H2720 0.930 . S
C2735 C2730 1.390 . S
C2735 C2734 1.387 . S
H2736 C2748 0.930 . S
H2737 C2750 0.930 . S
H2738 C2751 0.930 . S
H2739 C2755 0.959 . S
H2740 C2755 0.985 . S
H2741 C2755 0.961 . S
H2742 C2756 0.960 . S
H2743 C2756 0.961 . S
H2744 C2756 0.959 . S
H2745 C2759 0.929 . S
H2746 C2760 0.931 . S
H2747 C2762 0.940 . S
C2748 H2736 0.930 . S
C2748 C2749 1.399 . S
C2748 C2753 1.399 . S
C2749 C2748 1.399 . S
C2749 C2750 1.376 . S
C2750 H2737 0.930 . S
C2750 C2749 1.376 . S
C2750 C2751 1.388 . S
C2751 H2738 0.930 . S
C2751 C2750 1.388 . S
C2751 C2752 1.390 . S
C2752 C2751 1.390 . S
C2752 C2753 1.394 . S
C2752 C2758 1.465 . S
C2753 C2748 1.399 . S
C2753 C2752 1.394 . S
C2753 C2754 1.516 1_545 S
C2754 C2753 1.516 1_565 S
C2754 C2755 1.502 1_565 S
C2754 C2756 1.561 . S
C2754 C2757 1.551 1_565 S
C2755 H2739 0.959 . S
C2755 H2740 0.985 . S
C2755 H2741 0.961 . S
C2755 C2754 1.502 1_545 S
C2756 H2742 0.960 . S
C2756 H2743 0.961 . S
C2756 H2744 0.959 . S
C2756 C2754 1.561 . S
C2757 C2754 1.551 1_545 S
C2757 C2758 1.413 . S
C2757 C2762 1.339 1_545 S
C2758 C2752 1.465 . S
C2758 C2757 1.413 . S
C2758 C2759 1.399 . S
C2759 H2745 0.929 . S
C2759 C2758 1.399 . S
C2759 C2760 1.385 . S
C2760 H2746 0.931 . S
C2760 C2759 1.385 . S
C2760 C2761 1.389 . S
C2761 C2760 1.389 . S
C2761 C2762 1.399 1_545 S
C2762 H2747 0.940 . S
C2762 C2757 1.339 1_565 S
C2762 C2761 1.399 1_565 S
H2763 C2775 0.970 . S
H2764 C2777 0.930 . S
H2765 C2778 0.930 . S
H2766 C2782 0.959 . S
H2767 C2782 0.959 . S
H2768 C2782 0.961 . S
H2769 C2783 0.960 . S
H2770 C2783 0.961 . S
H2771 C2783 0.959 . S
H2772 C2786 0.929 . S
H2773 C2787 0.931 . S
H2774 C2789 0.935 . S
C2775 H2763 0.970 . S
C2775 C2776 1.399 . S
C2775 C2780 1.399 . S
C2776 C2775 1.399 . S
C2776 C2777 1.376 . S
C2777 H2764 0.930 . S
C2777 C2776 1.376 . S
C2777 C2778 1.388 . S
C2778 H2765 0.930 . S
C2778 C2777 1.388 . S
C2778 C2779 1.390 . S
C2779 C2778 1.390 . S
C2779 C2780 1.394 . S
C2779 C2785 1.465 . S
C2780 C2775 1.399 . S
C2780 C2779 1.394 . S
C2780 C2781 1.516 1_655 S
C2781 C2780 1.516 1_455 S
C2781 C2782 1.502 1_455 S
C2781 C2783 1.561 . S
C2781 C2784 1.526 1_455 S
C2782 H2766 0.959 . S
C2782 H2767 0.959 . S
C2782 H2768 0.961 . S
C2782 C2781 1.502 1_655 S
C2783 H2769 0.960 . S
C2783 H2770 0.961 . S
C2783 H2771 0.959 . S
C2783 C2781 1.561 . S
C2784 C2781 1.526 1_655 S
C2784 C2785 1.396 . S
C2784 C2789 1.394 1_655 S
C2785 C2779 1.465 . S
C2785 C2784 1.396 . S
C2785 C2786 1.399 . S
C2786 H2772 0.929 . S
C2786 C2785 1.399 . S
C2786 C2787 1.385 . S
C2787 H2773 0.931 . S
C2787 C2786 1.385 . S
C2787 C2788 1.389 . S
C2788 C2787 1.389 . S
C2788 C2789 1.378 1_655 S
C2789 H2774 0.935 . S
C2789 C2784 1.394 1_455 S
C2789 C2788 1.378 1_455 S
H2790 C2802 0.930 . S
H2791 C2804 0.930 . S
H2792 C2805 0.930 . S
H2793 C2809 0.959 . S
H2794 C2809 0.959 . S
H2795 C2809 0.961 . S
H2796 C2810 0.960 . S
H2797 C2810 0.961 . S
H2798 C2810 0.959 . S
H2799 C2813 0.929 . S
H2800 C2814 0.931 . S
H2801 C2816 0.930 . S
C2802 H2790 0.930 . S
C2802 C2803 1.399 . S
C2802 C2807 1.399 . S
C2803 C2802 1.399 . S
C2803 C2804 1.376 . S
C2804 H2791 0.930 . S
C2804 C2803 1.376 . S
C2804 C2805 1.388 . S
C2805 H2792 0.930 . S
C2805 C2804 1.388 . S
C2805 C2806 1.390 . S
C2806 C2805 1.390 . S
C2806 C2807 1.394 . S
C2806 C2812 1.465 . S
C2807 C2802 1.399 . S
C2807 C2806 1.394 . S
C2807 C2808 1.516 . S
C2808 C2807 1.516 . S
C2808 C2809 1.502 . S
C2808 C2810 1.561 . S
C2808 C2811 1.526 . S
C2809 H2793 0.959 . S
C2809 H2794 0.959 . S
C2809 H2795 0.961 . S
C2809 C2808 1.502 . S
C2810 H2796 0.960 . S
C2810 H2797 0.961 . S
C2810 H2798 0.959 . S
C2810 C2808 1.561 . S
C2811 C2808 1.526 . S
C2811 C2812 1.396 . S
C2811 C2816 1.390 . S
C2812 C2806 1.465 . S
C2812 C2811 1.396 . S
C2812 C2813 1.399 . S
C2813 H2799 0.929 . S
C2813 C2812 1.399 . S
C2813 C2814 1.385 . S
C2814 H2800 0.931 . S
C2814 C2813 1.385 . S
C2814 C2815 1.389 . S
C2815 C2814 1.389 . S
C2815 C2816 1.387 . S
C2816 H2801 0.930 . S
C2816 C2811 1.390 . S
C2816 C2815 1.387 . S
H2817 C2829 0.930 . S
H2818 C2831 0.930 . S
H2819 C2832 0.930 . S
H2820 C2836 0.959 . S
H2821 C2836 0.959 . S
H2822 C2836 0.961 . S
H2823 C2837 0.960 . S
H2824 C2837 0.961 . S
H2825 C2837 0.959 . S
H2826 C2840 0.929 . S
H2827 C2841 0.931 . S
H2828 C2843 0.930 . S
C2829 H2817 0.930 . S
C2829 C2830 1.399 . S
C2829 C2834 1.399 . S
C2830 C2829 1.399 . S
C2830 C2831 1.376 . S
C2831 H2818 0.930 . S
C2831 C2830 1.376 . S
C2831 C2832 1.388 . S
C2832 H2819 0.930 . S
C2832 C2831 1.388 . S
C2832 C2833 1.390 . S
C2833 C2832 1.390 . S
C2833 C2834 1.394 . S
C2833 C2839 1.465 . S
C2834 C2829 1.399 . S
C2834 C2833 1.394 . S
C2834 C2835 1.516 . S
C2835 C2834 1.516 . S
C2835 C2836 1.502 . S
C2835 C2837 1.561 . S
C2835 C2838 1.526 . S
C2836 H2820 0.959 . S
C2836 H2821 0.959 . S
C2836 H2822 0.961 . S
C2836 C2835 1.502 . S
C2837 H2823 0.960 . S
C2837 H2824 0.961 . S
C2837 H2825 0.959 . S
C2837 C2835 1.561 . S
C2838 C2835 1.526 . S
C2838 C2839 1.396 . S
C2838 C2843 1.390 . S
C2839 C2833 1.465 . S
C2839 C2838 1.396 . S
C2839 C2840 1.399 . S
C2840 H2826 0.929 . S
C2840 C2839 1.399 . S
C2840 C2841 1.385 . S
C2841 H2827 0.931 . S
C2841 C2840 1.385 . S
C2841 C2842 1.389 . S
C2842 C2841 1.389 . S
C2842 C2843 1.387 . S
C2843 H2828 0.930 . S
C2843 C2838 1.390 . S
C2843 C2842 1.387 . S
H2844 C2856 0.930 . S
H2845 C2858 0.930 . S
H2846 C2859 0.930 . S
H2847 C2863 0.959 . S
H2848 C2863 0.959 . S
H2849 C2863 0.961 . S
H2850 C2864 0.960 . S
H2851 C2864 0.961 . S
H2852 C2864 0.959 . S
H2853 C2867 0.929 . S
H2854 C2868 0.931 . S
H2855 C2870 0.930 . S
C2856 H2844 0.930 . S
C2856 C2857 1.399 . S
C2856 C2861 1.399 . S
C2857 C2856 1.399 . S
C2857 C2858 1.376 . S
C2858 H2845 0.930 . S
C2858 C2857 1.376 . S
C2858 C2859 1.388 . S
C2859 H2846 0.930 . S
C2859 C2858 1.388 . S
C2859 C2860 1.390 . S
C2860 C2859 1.390 . S
C2860 C2861 1.394 . S
C2860 C2866 1.465 . S
C2861 C2856 1.399 . S
C2861 C2860 1.394 . S
C2861 C2862 1.516 . S
C2862 C2861 1.516 . S
C2862 C2863 1.502 . S
C2862 C2864 1.561 . S
C2862 C2865 1.526 . S
C2863 H2847 0.959 . S
C2863 H2848 0.959 . S
C2863 H2849 0.961 . S
C2863 C2862 1.502 . S
C2864 H2850 0.960 . S
C2864 H2851 0.961 . S
C2864 H2852 0.959 . S
C2864 C2862 1.561 . S
C2865 C2862 1.526 . S
C2865 C2866 1.396 . S
C2865 C2870 1.390 . S
C2866 C2860 1.465 . S
C2866 C2865 1.396 . S
C2866 C2867 1.399 . S
C2867 H2853 0.929 . S
C2867 C2866 1.399 . S
C2867 C2868 1.385 . S
C2868 H2854 0.931 . S
C2868 C2867 1.385 . S
C2868 C2869 1.389 . S
C2869 C2868 1.389 . S
C2869 C2870 1.387 . S
C2870 H2855 0.930 . S
C2870 C2865 1.390 . S
C2870 C2869 1.387 . S
H2871 C2883 0.930 . S
H2872 C2885 0.930 . S
H2873 C2886 0.930 . S
H2874 C2890 0.959 . S
H2875 C2890 0.959 . S
H2876 C2890 0.961 . S
H2877 C2891 0.960 . S
H2878 C2891 0.961 . S
H2879 C2891 0.959 . S
H2880 C2894 0.929 . S
H2881 C2895 0.931 . S
H2882 C2897 0.930 . S
C2883 H2871 0.930 . S
C2883 C2884 1.399 . S
C2883 C2888 1.399 . S
C2884 C2883 1.399 . S
C2884 C2885 1.376 . S
C2885 H2872 0.930 . S
C2885 C2884 1.376 . S
C2885 C2886 1.388 . S
C2886 H2873 0.930 . S
C2886 C2885 1.388 . S
C2886 C2887 1.390 . S
C2887 C2886 1.390 . S
C2887 C2888 1.394 . S
C2887 C2893 1.465 . S
C2888 C2883 1.399 . S
C2888 C2887 1.394 . S
C2888 C2889 1.516 . S
C2889 C2888 1.516 . S
C2889 C2890 1.502 . S
C2889 C2891 1.561 . S
C2889 C2892 1.526 . S
C2890 H2874 0.959 . S
C2890 H2875 0.959 . S
C2890 H2876 0.961 . S
C2890 C2889 1.502 . S
C2891 H2877 0.960 . S
C2891 H2878 0.961 . S
C2891 H2879 0.959 . S
C2891 C2889 1.561 . S
C2892 C2889 1.526 . S
C2892 C2893 1.396 . S
C2892 C2897 1.390 . S
C2893 C2887 1.465 . S
C2893 C2892 1.396 . S
C2893 C2894 1.399 . S
C2894 H2880 0.929 . S
C2894 C2893 1.399 . S
C2894 C2895 1.385 . S
C2895 H2881 0.931 . S
C2895 C2894 1.385 . S
C2895 C2896 1.389 . S
C2896 C2895 1.389 . S
C2896 C2897 1.387 . S
C2897 H2882 0.930 . S
C2897 C2892 1.390 . S
C2897 C2896 1.387 . S
H2898 C2910 0.930 . S
H2899 C2912 0.930 . S
H2900 C2913 0.930 . S
H2901 C2917 0.959 . S
H2902 C2917 0.959 . S
H2903 C2917 0.961 . S
H2904 C2918 0.960 . S
H2905 C2918 0.961 . S
H2906 C2918 0.959 . S
H2907 C2921 0.929 . S
H2908 C2922 0.931 . S
H2909 C2924 0.930 . S
C2910 H2898 0.930 . S
C2910 C2911 1.399 . S
C2910 C2915 1.399 . S
C2911 C2910 1.399 . S
C2911 C2912 1.376 . S
C2912 H2899 0.930 . S
C2912 C2911 1.376 . S
C2912 C2913 1.388 . S
C2913 H2900 0.930 . S
C2913 C2912 1.388 . S
C2913 C2914 1.390 . S
C2914 C2913 1.390 . S
C2914 C2915 1.394 . S
C2914 C2920 1.465 . S
C2915 C2910 1.399 . S
C2915 C2914 1.394 . S
C2915 C2916 1.516 . S
C2916 C2915 1.516 . S
C2916 C2917 1.502 . S
C2916 C2918 1.561 . S
C2916 C2919 1.526 . S
C2917 H2901 0.959 . S
C2917 H2902 0.959 . S
C2917 H2903 0.961 . S
C2917 C2916 1.502 . S
C2918 H2904 0.960 . S
C2918 H2905 0.961 . S
C2918 H2906 0.959 . S
C2918 C2916 1.561 . S
C2919 C2916 1.526 . S
C2919 C2920 1.396 . S
C2919 C2924 1.390 . S
C2920 C2914 1.465 . S
C2920 C2919 1.396 . S
C2920 C2921 1.399 . S
C2921 H2907 0.929 . S
C2921 C2920 1.399 . S
C2921 C2922 1.385 . S
C2922 H2908 0.931 . S
C2922 C2921 1.385 . S
C2922 C2923 1.389 . S
C2923 C2922 1.389 . S
C2923 C2924 1.387 . S
C2924 H2909 0.930 . S
C2924 C2919 1.390 . S
C2924 C2923 1.387 . S
H2925 C2937 0.930 . S
H2926 C2939 0.930 . S
H2927 C2940 0.930 . S
H2928 C2944 0.959 . S
H2929 C2944 0.959 . S
H2930 C2944 0.961 . S
H2931 C2945 0.960 . S
H2932 C2945 0.961 . S
H2933 C2945 0.959 . S
H2934 C2948 0.929 . S
H2935 C2949 0.931 . S
H2936 C2951 0.930 . S
C2937 H2925 0.930 . S
C2937 C2938 1.399 . S
C2937 C2942 1.399 . S
C2938 C2937 1.399 . S
C2938 C2939 1.376 . S
C2939 H2926 0.930 . S
C2939 C2938 1.376 . S
C2939 C2940 1.388 . S
C2940 H2927 0.930 . S
C2940 C2939 1.388 . S
C2940 C2941 1.390 . S
C2941 C2940 1.390 . S
C2941 C2942 1.394 . S
C2941 C2947 1.465 . S
C2942 C2937 1.399 . S
C2942 C2941 1.394 . S
C2942 C2943 1.516 . S
C2943 C2942 1.516 . S
C2943 C2944 1.502 . S
C2943 C2945 1.561 . S
C2943 C2946 1.526 . S
C2944 H2928 0.959 . S
C2944 H2929 0.959 . S
C2944 H2930 0.961 . S
C2944 C2943 1.502 . S
C2945 H2931 0.960 . S
C2945 H2932 0.961 . S
C2945 H2933 0.959 . S
C2945 C2943 1.561 . S
C2946 C2943 1.526 . S
C2946 C2947 1.396 . S
C2946 C2951 1.390 . S
C2947 C2941 1.465 . S
C2947 C2946 1.396 . S
C2947 C2948 1.399 . S
C2948 H2934 0.929 . S
C2948 C2947 1.399 . S
C2948 C2949 1.385 . S
C2949 H2935 0.931 . S
C2949 C2948 1.385 . S
C2949 C2950 1.389 . S
C2950 C2949 1.389 . S
C2950 C2951 1.387 . S
C2951 H2936 0.930 . S
C2951 C2946 1.390 . S
C2951 C2950 1.387 . S
H2952 C2964 0.930 . S
H2953 C2966 0.930 . S
H2954 C2967 0.930 . S
H2955 C2971 0.959 . S
H2956 C2971 0.959 . S
H2957 C2971 0.961 . S
H2958 C2972 0.960 . S
H2959 C2972 0.961 . S
H2960 C2972 0.959 . S
H2961 C2975 0.929 . S
H2962 C2976 0.931 . S
H2963 C2978 0.930 . S
C2964 H2952 0.930 . S
C2964 C2965 1.399 . S
C2964 C2969 1.399 . S
C2965 C2964 1.399 . S
C2965 C2966 1.376 . S
C2966 H2953 0.930 . S
C2966 C2965 1.376 . S
C2966 C2967 1.388 . S
C2967 H2954 0.930 . S
C2967 C2966 1.388 . S
C2967 C2968 1.390 . S
C2968 C2967 1.390 . S
C2968 C2969 1.394 . S
C2968 C2974 1.465 . S
C2969 C2964 1.399 . S
C2969 C2968 1.394 . S
C2969 C2970 1.516 . S
C2970 C2969 1.516 . S
C2970 C2971 1.502 . S
C2970 C2972 1.561 . S
C2970 C2973 1.526 . S
C2971 H2955 0.959 . S
C2971 H2956 0.959 . S
C2971 H2957 0.961 . S
C2971 C2970 1.502 . S
C2972 H2958 0.960 . S
C2972 H2959 0.961 . S
C2972 H2960 0.959 . S
C2972 C2970 1.561 . S
C2973 C2970 1.526 . S
C2973 C2974 1.396 . S
C2973 C2978 1.390 . S
C2974 C2968 1.465 . S
C2974 C2973 1.396 . S
C2974 C2975 1.399 . S
C2975 H2961 0.929 . S
C2975 C2974 1.399 . S
C2975 C2976 1.385 . S
C2976 H2962 0.931 . S
C2976 C2975 1.385 . S
C2976 C2977 1.389 . S
C2977 C2976 1.389 . S
C2977 C2978 1.387 . S
C2978 H2963 0.930 . S
C2978 C2973 1.390 . S
C2978 C2977 1.387 . S
H2979 C2991 0.930 . S
H2980 C2993 0.930 . S
H2981 C2994 0.930 . S
H2982 C2998 0.959 . S
H2983 C2998 0.959 . S
H2984 C2998 0.961 . S
H2985 C2999 0.960 . S
H2986 C2999 0.961 . S
H2987 C2999 0.959 . S
H2988 C3002 0.929 . S
H2989 C3003 0.931 . S
H2990 C3005 0.930 . S
C2991 H2979 0.930 . S
C2991 C2992 1.399 . S
C2991 C2996 1.399 . S
C2992 C2991 1.399 . S
C2992 C2993 1.376 1_655 S
C2993 H2980 0.930 . S
C2993 C2992 1.376 1_455 S
C2993 C2994 1.388 . S
C2994 H2981 0.930 . S
C2994 C2993 1.388 . S
C2994 C2995 1.390 . S
C2995 C2994 1.390 . S
C2995 C2996 1.394 1_455 S
C2995 C3001 1.465 . S
C2996 C2991 1.399 . S
C2996 C2995 1.394 1_655 S
C2996 C2997 1.516 . S
C2997 C2996 1.516 . S
C2997 C2998 1.502 . S
C2997 C2999 1.561 . S
C2997 C3000 1.526 . S
C2998 H2982 0.959 . S
C2998 H2983 0.959 . S
C2998 H2984 0.961 . S
C2998 C2997 1.502 . S
C2999 H2985 0.960 . S
C2999 H2986 0.961 . S
C2999 H2987 0.959 . S
C2999 C2997 1.561 . S
C3000 C2997 1.526 . S
C3000 C3001 1.396 1_655 S
C3000 C3005 1.390 . S
C3001 C2995 1.465 . S
C3001 C3000 1.396 1_455 S
C3001 C3002 1.399 . S
C3002 H2988 0.929 . S
C3002 C3001 1.399 . S
C3002 C3003 1.385 . S
C3003 H2989 0.931 . S
C3003 C3002 1.385 . S
C3003 C3004 1.389 1_455 S
C3004 C3003 1.389 1_655 S
C3004 C3005 1.387 . S
C3005 H2990 0.930 . S
C3005 C3000 1.390 . S
C3005 C3004 1.387 . S
H3006 C3018 0.930 . S
H3007 C3020 0.930 . S
H3008 C3021 0.930 . S
H3009 C3025 0.959 . S
H3010 C3025 0.959 . S
H3011 C3025 0.961 . S
H3012 C3026 0.960 . S
H3013 C3026 0.961 . S
H3014 C3026 0.959 . S
H3015 C3029 0.929 . S
H3016 C3030 0.931 . S
H3017 C3032 0.930 . S
C3018 H3006 0.930 . S
C3018 C3019 1.399 . S
C3018 C3023 1.399 . S
C3019 C3018 1.399 . S
C3019 C3020 1.376 . S
C3020 H3007 0.930 . S
C3020 C3019 1.376 . S
C3020 C3021 1.388 . S
C3021 H3008 0.930 . S
C3021 C3020 1.388 . S
C3021 C3022 1.390 . S
C3022 C3021 1.390 . S
C3022 C3023 1.394 . S
C3022 C3028 1.465 . S
C3023 C3018 1.399 . S
C3023 C3022 1.394 . S
C3023 C3024 1.516 . S
C3024 C3023 1.516 . S
C3024 C3025 1.502 . S
C3024 C3026 1.561 . S
C3024 C3027 1.526 . S
C3025 H3009 0.959 . S
C3025 H3010 0.959 . S
C3025 H3011 0.961 . S
C3025 C3024 1.502 . S
C3026 H3012 0.960 . S
C3026 H3013 0.961 . S
C3026 H3014 0.959 . S
C3026 C3024 1.561 . S
C3027 C3024 1.526 . S
C3027 C3028 1.396 . S
C3027 C3032 1.390 . S
C3028 C3022 1.465 . S
C3028 C3027 1.396 . S
C3028 C3029 1.399 . S
C3029 H3015 0.929 . S
C3029 C3028 1.399 . S
C3029 C3030 1.385 . S
C3030 H3016 0.931 . S
C3030 C3029 1.385 . S
C3030 C3031 1.389 . S
C3031 C3030 1.389 . S
C3031 C3032 1.387 . S
C3032 H3017 0.930 . S
C3032 C3027 1.390 . S
C3032 C3031 1.387 . S
H3033 C3045 0.946 . S
H3034 C3047 0.930 . S
H3035 C3048 0.930 . S
H3036 C3052 0.959 1_545 S
H3037 C3052 0.959 . S
H3038 C3052 0.961 . S
H3039 C3053 0.960 . S
H3040 C3053 0.961 . S
H3041 C3053 0.959 . S
H3042 C3056 0.929 . S
H3043 C3057 0.931 . S
H3044 C3059 0.930 . S
C3045 H3033 0.946 . S
C3045 C3046 1.398 1_565 S
C3045 C3050 1.380 1_565 S
C3046 C3045 1.398 1_545 S
C3046 C3047 1.376 . S
C3047 H3034 0.930 . S
C3047 C3046 1.376 . S
C3047 C3048 1.388 . S
C3048 H3035 0.930 . S
C3048 C3047 1.388 . S
C3048 C3049 1.390 . S
C3049 C3048 1.390 . S
C3049 C3050 1.400 . S
C3049 C3055 1.465 . S
C3050 C3045 1.380 1_545 S
C3050 C3049 1.400 . S
C3050 C3051 1.516 1_545 S
C3051 C3050 1.516 1_565 S
C3051 C3052 1.502 . S
C3051 C3053 1.561 . S
C3051 C3054 1.526 . S
C3052 H3036 0.959 1_565 S
C3052 H3037 0.959 . S
C3052 H3038 0.961 . S
C3052 C3051 1.502 . S
C3053 H3039 0.960 . S
C3053 H3040 0.961 . S
C3053 H3041 0.959 . S
C3053 C3051 1.561 . S
C3054 C3051 1.526 . S
C3054 C3055 1.396 1_565 S
C3054 C3059 1.390 . S
C3055 C3049 1.465 . S
C3055 C3054 1.396 1_545 S
C3055 C3056 1.399 . S
C3056 H3042 0.929 . S
C3056 C3055 1.399 . S
C3056 C3057 1.385 . S
C3057 H3043 0.931 . S
C3057 C3056 1.385 . S
C3057 C3058 1.389 . S
C3058 C3057 1.389 . S
C3058 C3059 1.387 1_545 S
C3059 H3044 0.930 . S
C3059 C3054 1.390 . S
C3059 C3058 1.387 1_565 S
C1129 C8 1.456 . S
C1141 C729 1.496 . S
C1156 C22 1.557 . S
C1168 C777 1.566 . S
C1195 C825 1.504 . S
C1183 C37 1.471 1_545 S
C1210 C36 1.502 1_565 S
C1222 C849 1.511 . S
C1237 C9 1.459 1_455 S
C1249 C921 1.507 . S
C1264 C23 1.541 . S
C1276 C969 1.548 . S
C1291 C50 1.505 1_455 S
C1303 C897 1.498 . S
C1330 C945 1.567 . S
C1318 C64 1.553 . S
C1357 C873 1.555 . S
C1345 C79 1.506 1_565 S
C1372 C78 1.490 1_545 S
C1384 C801 1.497 . S
C1411 C705 1.517 . S
C1399 C51 1.511 1_655 S
C1426 C65 1.539 . S
C1438 C753 1.553 . S
C1453 C92 1.594 . S
C1465 C1017 1.601 . S
C1480 C106 1.599 . S
C1492 C1065 1.610 . S
C1519 C1089 1.583 . S
C1507 C121 1.581 . S
C1534 C120 1.544 . S
C1546 C273 1.549 . S
C1561 C93 1.563 . S
C1573 C345 1.576 . S
C1588 C107 1.581 . S
C1600 C393 1.579 . S
C1615 C134 1.541 . S
C1627 C321 1.553 . S
C1642 C148 1.553 . S
C1654 C369 1.567 . S
C1681 C297 1.568 . S
C1669 C163 1.568 . S
C1708 C1113 1.545 . S
C1696 C162 1.573 . S
C1735 C993 1.577 . S
C1723 C135 1.556 . S
C1762 C1041 1.603 . S
C1750 C149 1.606 . S
C1777 C176 1.514 . S
C1789 C441 1.540 . S
C1804 C190 1.578 . S
C1816 C489 1.571 . S
C1831 C205 1.562 . S
C1843 C513 1.567 . S
C1858 C204 1.593 . S
C1870 C561 1.596 . S
C1897 C633 1.565 . S
C1885 C177 1.556 . S
C1924 C681 1.597 . S
C1912 C191 1.575 . S
C1951 C609 1.589 . S
C1939 C218 1.567 . S
C1978 C657 1.597 . S
C1966 C232 1.595 . S
C1993 C247 1.567 . S
C2005 C585 1.570 . S
C2032 C537 1.545 . S
C2020 C246 1.548 . S
C2047 C219 1.542 . S
C2059 C417 1.568 . S
C2086 C465 1.582 . S
C2074 C233 1.584 . S
C2113 C282 1.537 . S
C2101 C6 1.489 . S
C2128 C20 1.498 . S
C2140 C336 1.511 . S
C2167 C384 1.545 . S
C2155 C35 1.532 . S
C2194 C432 1.519 . S
C2182 C34 1.516 . S
C2221 C480 1.510 . S
C2209 C7 1.503 . S
C2248 C522 1.502 . S
C2236 C21 1.502 . S
C2263 C48 1.495 . S
C2275 C528 1.544 . S
C2290 C62 1.482 . S
C2302 C426 1.472 . S
C2317 C77 1.537 . S
C2329 C474 1.526 . S
C2344 C76 1.491 . S
C2356 C330 1.516 . S
C2383 C378 1.536 . S
C2371 C49 1.520 . S
C2398 C63 1.487 . S
C2410 C288 1.513 . S
C2437 C570 1.531 . S
C2425 C90 1.473 . S
C2452 C104 1.517 . S
C2464 C624 1.537 . S
C2479 C119 1.544 . S
C2491 C672 1.572 . S
C2518 C720 1.504 . S
C2506 C118 1.469 . S
C2533 C91 1.531 . S
C2545 C768 1.541 . S
C2560 C105 1.482 . S
C2572 C816 1.494 . S
C2587 C132 1.449 . S
C2599 C810 1.492 . S
C2614 C146 1.431 . S
C2626 C714 1.492 . S
C2653 C762 1.495 . S
C2641 C161 1.487 . S
C2668 C160 1.529 . S
C2680 C618 1.530 . S
C2695 C133 1.562 . S
C2707 C666 1.559 . S
C2734 C576 1.548 . S
C2722 C147 1.535 . S
C2761 C858 1.535 . S
C2749 C174 1.438 . S
C2776 C188 1.447 . S
C2788 C912 1.501 . S
C2803 C203 1.527 . S
C2815 C960 1.544 . S
C2842 C1008 1.533 . S
C2830 C202 1.503 . S
C2869 C1056 1.550 . S
C2857 C175 1.511 . S
C2884 C189 1.502 . S
C2896 C1098 1.564 . S
C2911 C216 1.502 . S
C2923 C1104 1.520 . S
C2938 C230 1.554 . S
C2950 C1002 1.547 . S
C2977 C1050 1.524 . S
C2965 C245 1.512 . S
C3004 C906 1.495 . S
C2992 C244 1.475 . S
C3031 C954 1.520 . S
C3019 C217 1.529 . S
C3046 C231 1.458 . S
C3058 C864 1.491 . S
