# Generated by pormake.
# Topology ctn, (3,4)-cn, num edge types: 1
# Building blocks:
#     Node 0, Type 0, BuildingBlock: MIDCAF_clean_linker_0, # of connection points: 3
#     Node 1, Type 0, BuildingBlock: MIDCAF_clean_linker_0, # of connection points: 3
#     Node 2, Type 0, BuildingBlock: MIDCAF_clean_linker_0, # of connection points: 3
#     Node 3, Type 0, BuildingBlock: MIDCAF_clean_linker_0, # of connection points: 3
#     Node 4, Type 0, BuildingBlock: MIDCAF_clean_linker_0, # of connection points: 3
#     Node 5, Type 0, BuildingBlock: MIDCAF_clean_linker_0, # of connection points: 3
#     Node 6, Type 0, BuildingBlock: MIDCAF_clean_linker_0, # of connection points: 3
#     Node 7, Type 0, BuildingBlock: MIDCAF_clean_linker_0, # of connection points: 3
#     Node 8, Type 0, BuildingBlock: MIDCAF_clean_linker_0, # of connection points: 3
#     Node 9, Type 0, BuildingBlock: MIDCAF_clean_linker_0, # of connection points: 3
#     Node 10, Type 0, BuildingBlock: MIDCAF_clean_linker_0, # of connection points: 3
#     Node 11, Type 0, BuildingBlock: MIDCAF_clean_linker_0, # of connection points: 3
#     Node 12, Type 0, BuildingBlock: MIDCAF_clean_linker_0, # of connection points: 3
#     Node 13, Type 0, BuildingBlock: MIDCAF_clean_linker_0, # of connection points: 3
#     Node 14, Type 0, BuildingBlock: MIDCAF_clean_linker_0, # of connection points: 3
#     Node 15, Type 0, BuildingBlock: MIDCAF_clean_linker_0, # of connection points: 3
#     Node 16, Type 1, BuildingBlock: TATPOV_clean_sbu_0, # of connection points: 4
#     Node 17, Type 1, BuildingBlock: TATPOV_clean_sbu_0, # of connection points: 4
#     Node 18, Type 1, BuildingBlock: TATPOV_clean_sbu_0, # of connection points: 4
#     Node 19, Type 1, BuildingBlock: TATPOV_clean_sbu_0, # of connection points: 4
#     Node 20, Type 1, BuildingBlock: TATPOV_clean_sbu_0, # of connection points: 4
#     Node 21, Type 1, BuildingBlock: TATPOV_clean_sbu_0, # of connection points: 4
#     Node 22, Type 1, BuildingBlock: TATPOV_clean_sbu_0, # of connection points: 4
#     Node 23, Type 1, BuildingBlock: TATPOV_clean_sbu_0, # of connection points: 4
#     Node 24, Type 1, BuildingBlock: TATPOV_clean_sbu_0, # of connection points: 4
#     Node 25, Type 1, BuildingBlock: TATPOV_clean_sbu_0, # of connection points: 4
#     Node 26, Type 1, BuildingBlock: TATPOV_clean_sbu_0, # of connection points: 4
#     Node 27, Type 1, BuildingBlock: TATPOV_clean_sbu_0, # of connection points: 4
#     Edge 28, Type (0, 1), BuildingBlock: OJICUG_clean_linker_0, # of connection points: 2
#     Edge 29, Type (0, 1), BuildingBlock: OJICUG_clean_linker_0, # of connection points: 2
#     Edge 30, Type (0, 1), BuildingBlock: OJICUG_clean_linker_0, # of connection points: 2
#     Edge 31, Type (0, 1), BuildingBlock: OJICUG_clean_linker_0, # of connection points: 2
#     Edge 32, Type (0, 1), BuildingBlock: OJICUG_clean_linker_0, # of connection points: 2
#     Edge 33, Type (0, 1), BuildingBlock: OJICUG_clean_linker_0, # of connection points: 2
#     Edge 34, Type (0, 1), BuildingBlock: OJICUG_clean_linker_0, # of connection points: 2
#     Edge 35, Type (0, 1), BuildingBlock: OJICUG_clean_linker_0, # of connection points: 2
#     Edge 36, Type (0, 1), BuildingBlock: OJICUG_clean_linker_0, # of connection points: 2
#     Edge 37, Type (0, 1), BuildingBlock: OJICUG_clean_linker_0, # of connection points: 2
#     Edge 38, Type (0, 1), BuildingBlock: OJICUG_clean_linker_0, # of connection points: 2
#     Edge 39, Type (0, 1), BuildingBlock: OJICUG_clean_linker_0, # of connection points: 2
#     Edge 40, Type (0, 1), BuildingBlock: OJICUG_clean_linker_0, # of connection points: 2
#     Edge 41, Type (0, 1), BuildingBlock: OJICUG_clean_linker_0, # of connection points: 2
#     Edge 42, Type (0, 1), BuildingBlock: OJICUG_clean_linker_0, # of connection points: 2
#     Edge 43, Type (0, 1), BuildingBlock: OJICUG_clean_linker_0, # of connection points: 2
#     Edge 44, Type (0, 1), BuildingBlock: OJICUG_clean_linker_0, # of connection points: 2
#     Edge 45, Type (0, 1), BuildingBlock: OJICUG_clean_linker_0, # of connection points: 2
#     Edge 46, Type (0, 1), BuildingBlock: OJICUG_clean_linker_0, # of connection points: 2
#     Edge 47, Type (0, 1), BuildingBlock: OJICUG_clean_linker_0, # of connection points: 2
#     Edge 48, Type (0, 1), BuildingBlock: OJICUG_clean_linker_0, # of connection points: 2
#     Edge 49, Type (0, 1), BuildingBlock: OJICUG_clean_linker_0, # of connection points: 2
#     Edge 50, Type (0, 1), BuildingBlock: OJICUG_clean_linker_0, # of connection points: 2
#     Edge 51, Type (0, 1), BuildingBlock: OJICUG_clean_linker_0, # of connection points: 2
#     Edge 52, Type (0, 1), BuildingBlock: OJICUG_clean_linker_0, # of connection points: 2
#     Edge 53, Type (0, 1), BuildingBlock: OJICUG_clean_linker_0, # of connection points: 2
#     Edge 54, Type (0, 1), BuildingBlock: OJICUG_clean_linker_0, # of connection points: 2
#     Edge 55, Type (0, 1), BuildingBlock: OJICUG_clean_linker_0, # of connection points: 2
#     Edge 56, Type (0, 1), BuildingBlock: OJICUG_clean_linker_0, # of connection points: 2
#     Edge 57, Type (0, 1), BuildingBlock: OJICUG_clean_linker_0, # of connection points: 2
#     Edge 58, Type (0, 1), BuildingBlock: OJICUG_clean_linker_0, # of connection points: 2
#     Edge 59, Type (0, 1), BuildingBlock: OJICUG_clean_linker_0, # of connection points: 2
#     Edge 60, Type (0, 1), BuildingBlock: OJICUG_clean_linker_0, # of connection points: 2
#     Edge 61, Type (0, 1), BuildingBlock: OJICUG_clean_linker_0, # of connection points: 2
#     Edge 62, Type (0, 1), BuildingBlock: OJICUG_clean_linker_0, # of connection points: 2
#     Edge 63, Type (0, 1), BuildingBlock: OJICUG_clean_linker_0, # of connection points: 2
#     Edge 64, Type (0, 1), BuildingBlock: OJICUG_clean_linker_0, # of connection points: 2
#     Edge 65, Type (0, 1), BuildingBlock: OJICUG_clean_linker_0, # of connection points: 2
#     Edge 66, Type (0, 1), BuildingBlock: OJICUG_clean_linker_0, # of connection points: 2
#     Edge 67, Type (0, 1), BuildingBlock: OJICUG_clean_linker_0, # of connection points: 2
#     Edge 68, Type (0, 1), BuildingBlock: OJICUG_clean_linker_0, # of connection points: 2
#     Edge 69, Type (0, 1), BuildingBlock: OJICUG_clean_linker_0, # of connection points: 2
#     Edge 70, Type (0, 1), BuildingBlock: OJICUG_clean_linker_0, # of connection points: 2
#     Edge 71, Type (0, 1), BuildingBlock: OJICUG_clean_linker_0, # of connection points: 2
#     Edge 72, Type (0, 1), BuildingBlock: OJICUG_clean_linker_0, # of connection points: 2
#     Edge 73, Type (0, 1), BuildingBlock: OJICUG_clean_linker_0, # of connection points: 2
#     Edge 74, Type (0, 1), BuildingBlock: OJICUG_clean_linker_0, # of connection points: 2
#     Edge 75, Type (0, 1), BuildingBlock: OJICUG_clean_linker_0, # of connection points: 2
# Relax obj value: 0.003
# Max RMSD: 0.047
# Mean RMSD: 0.021
data_MOF--net-ctn--node1-TATPOV_clean_sbu_0--node2-MIDCAF_clean_linker_0--edge1-OJICUG_clean_linker_0
_symmetry_space_group_name_H-M    P1
_symmetry_Int_Tables_number       1
_symmetry_cell_setting            triclinic
loop_
_symmetry_equiv_pos_as_xyz
'x, y, z'
_cell_length_a     51.934043
_cell_length_b     51.954461
_cell_length_c     51.905169
_cell_angle_alpha  91.139511
_cell_angle_beta   91.199068
_cell_angle_gamma 91.212014
loop_
_atom_site_label
_atom_site_type_symbol
_atom_site_fract_x
_atom_site_fract_y
_atom_site_fract_z
_atom_type_partial_charge
C0 C 0.95484 0.04316 0.09339 0.0
C1 C 0.95597 0.02311 0.11117 0.0
C2 C 0.97403 0.00367 0.10752 0.0
C3 C 0.9908 0.00443 0.08683 0.0
H4 H 0.05797 0.97375 0.06273 0.0
H5 H 0.09379 0.9443 0.06185 0.0
H6 H 0.11717 0.97481 0.98899 0.0
H7 H 0.0812 0.00418 0.98961 0.0
H8 H 0.05812 0.05806 0.97283 0.0
H9 H 0.05566 0.09277 0.94205 0.0
H10 H 0.98287 0.11529 0.97319 0.0
H11 H 0.98508 0.08047 0.00386 0.0
H12 H 0.97021 0.05969 0.0594 0.0
H13 H 0.94096 0.05828 0.09551 0.0
H14 H 0.97561 0.98813 0.12103 0.0
H15 H 0.00463 0.98924 0.08487 0.0
N16 N 0.02779 0.00874 0.04632 0.0
N17 N 0.04301 0.02853 0.00924 0.0
N18 N 0.00647 0.04428 0.02963 0.0
C19 C 0.04518 0.00992 0.02716 0.0
C20 C 0.0237 0.04578 0.01029 0.0
C21 C 0.00836 0.0258 0.04771 0.0
C22 C 0.06664 0.99147 0.02626 0.0
C23 C 0.07063 0.97418 0.04643 0.0
C24 C 0.09127 0.95734 0.04602 0.0
C25 C 0.10836 0.95725 0.02539 0.0
C26 C 0.10419 0.97423 0.00504 0.0
C27 C 0.08363 0.99119 0.0055 0.0
C28 C 0.02184 0.06643 0.99096 0.0
C29 C 0.04149 0.07029 0.9731 0.0
C30 C 0.04018 0.09029 0.9555 0.0
C31 C 0.0191 0.10682 0.9552 0.0
C32 C -0.00076 0.10273 0.97275 0.0
C33 C 0.00062 0.08283 0.99046 0.0
C34 C 0.9899 0.02461 0.06918 0.0
C35 C 0.97155 0.04386 0.0726 0.0
C36 C 0.21421 0.63501 0.27085 0.0
C37 C 0.19195 0.62865 0.25603 0.0
C38 C 0.18698 0.64243 0.23346 0.0
C39 C 0.20402 0.66197 0.22581 0.0
H40 H 0.21612 0.71986 0.1694 0.0
H41 H 0.21178 0.74432 0.12947 0.0
H42 H 0.2861 0.78057 0.145 0.0
H43 H 0.29056 0.75682 0.18435 0.0
H44 H 0.32871 0.7343 0.22086 0.0
H45 H 0.3693 0.74235 0.24364 0.0
H46 H 0.34172 0.69961 0.30843 0.0
H47 H 0.30079 0.69091 0.28521 0.0
H48 H 0.24827 0.65848 0.2751 0.0
H49 H 0.21887 0.62455 0.28812 0.0
H50 H 0.16988 0.63814 0.22172 0.0
H51 H 0.1997 0.67206 0.20823 0.0
N52 N 0.24045 0.70246 0.21101 0.0
N53 N 0.28083 0.72298 0.21658 0.0
N54 N 0.26824 0.69122 0.24522 0.0
C55 C 0.25818 0.7202 0.20324 0.0
C56 C 0.28611 0.70868 0.23749 0.0
C57 C 0.24537 0.68791 0.2321 0.0
C58 C 0.25385 0.73601 0.18002 0.0
C59 C 0.2314 0.73324 0.1644 0.0
C60 C 0.22882 0.74728 0.14164 0.0
C61 C 0.24874 0.76407 0.13413 0.0
C62 C 0.2706 0.76751 0.15021 0.0
C63 C 0.2731 0.75378 0.17283 0.0
C64 C 0.31126 0.71224 0.25132 0.0
C65 C 0.33114 0.72652 0.23995 0.0
C66 C 0.35448 0.73122 0.25306 0.0
C67 C 0.35861 0.722 0.27804 0.0
C68 C 0.33913 0.70693 0.28918 0.0
C69 C 0.31566 0.70207 0.27592 0.0
C70 C 0.22649 0.66805 0.24051 0.0
C71 C 0.23122 0.65442 0.26322 0.0
C72 C 0.9928 0.34308 0.00353 0.0
C73 C 0.97378 0.34004 0.98399 0.0
C74 C 0.95081 0.35357 0.98609 0.0
C75 C 0.9476 0.37121 0.00625 0.0
H76 H 0.91043 0.43716 0.01446 0.0
H77 H 0.88405 0.47236 0.00017 0.0
H78 H 0.9167 0.52144 0.06109 0.0
H79 H 0.94305 0.486 0.07581 0.0
H80 H 0.98589 0.46499 0.11087 0.0
H81 H 0.01328 0.47103 0.14894 0.0
H82 H 0.04283 0.39459 0.138 0.0
H83 H 0.01495 0.3882 0.09979 0.0
H84 H 0.00514 0.36391 0.0379 0.0
H85 H 0.0107 0.33283 0.00229 0.0
H86 H 0.93568 0.35126 0.97148 0.0
H87 H 0.92996 0.38196 0.00661 0.0
N88 N 0.94815 0.41651 0.03805 0.0
N89 N 0.96312 0.4407 0.07389 0.0
N90 N 0.98166 0.40092 0.06397 0.0
C91 C 0.94686 0.43794 0.05322 0.0
C92 C 0.98047 0.42229 0.07953 0.0
C93 C 0.96536 0.3979 0.04319 0.0
C94 C 0.92914 0.45877 0.04613 0.0
C95 C 0.91196 0.45535 0.025 0.0
C96 C 0.89689 0.47558 0.01669 0.0
C97 C 0.89861 0.49978 0.02926 0.0
C98 C 0.91494 0.50299 0.05106 0.0
C99 C 0.93009 0.48268 0.05941 0.0
C100 C 0.99806 0.42601 0.10224 0.0
C101 C 0.99823 0.44939 0.1164 0.0
C102 C 0.01415 0.453 0.13818 0.0
C103 C 0.03031 0.43334 0.14644 0.0
C104 C 0.03043 0.41003 0.13219 0.0
C105 C 0.01452 0.40642 0.11025 0.0
C106 C 0.96734 0.37584 0.02482 0.0
C107 C 0.98961 0.36089 0.02384 0.0
C108 C 0.76905 0.71443 0.14115 0.0
C109 C 0.75067 0.69608 0.13193 0.0
C110 C 0.72824 0.69191 0.1461 0.0
C111 C 0.72413 0.70605 0.16882 0.0
H112 H 0.67262 0.7151 0.22974 0.0
H113 H 0.63229 0.71265 0.25351 0.0
H114 H 0.66006 0.77403 0.30462 0.0
H115 H 0.70009 0.77651 0.28147 0.0
H116 H 0.7401 0.81459 0.26407 0.0
H117 H 0.76356 0.85484 0.27153 0.0
H118 H 0.81441 0.83609 0.20937 0.0
H119 H 0.7903 0.79572 0.20129 0.0
H120 H 0.77936 0.74288 0.17 0.0
H121 H 0.7864 0.7183 0.13054 0.0
H122 H 0.71384 0.67772 0.1396 0.0
H123 H 0.7065 0.70254 0.1791 0.0
N124 N 0.71714 0.73555 0.21636 0.0
N125 N 0.7277 0.77193 0.24212 0.0
N126 N 0.75257 0.76219 0.20635 0.0
C127 C 0.71231 0.75091 0.23716 0.0
C128 C 0.7478 0.77779 0.22691 0.0
C129 C 0.7374 0.741 0.20096 0.0
C130 C 0.68947 0.74634 0.25334 0.0
C131 C 0.67034 0.72772 0.24635 0.0
C132 C 0.64732 0.72619 0.25999 0.0
C133 C 0.64311 0.74333 0.28066 0.0
C134 C 0.66281 0.76077 0.28857 0.0
C135 C 0.68573 0.7622 0.27518 0.0
C136 C 0.76326 0.80178 0.23206 0.0
C137 C 0.75634 0.81883 0.25199 0.0
C138 C 0.76995 0.84196 0.2564 0.0
C139 C 0.79101 0.84868 0.24117 0.0
C140 C 0.79813 0.83161 0.22132 0.0
C141 C 0.7844 0.80839 0.2168 0.0
C142 C 0.74228 0.72483 0.17775 0.0
C143 C 0.76489 0.72867 0.16373 0.0
C144 C 0.05575 0.91425 0.5076 0.0
C145 C 0.03539 0.89715 0.50043 0.0
C146 C 0.02498 0.89802 0.47526 0.0
C147 C 0.03371 0.91642 0.4581 0.0
H148 H 0.02183 0.94668 0.38299 0.0
H149 H 0.98935 0.95577 0.34989 0.0
H150 H 0.00508 0.03723 0.36033 0.0
H151 H 0.0382 0.02816 0.39313 0.0
H152 H 0.09574 0.04163 0.42531 0.0
H153 H 0.13573 0.06704 0.43196 0.0
H154 H 0.17059 0.00291 0.46979 0.0
H155 H 0.13065 0.97763 0.46375 0.0
H156 H 0.07971 0.94613 0.49676 0.0
H157 H 0.06412 0.91413 0.52688 0.0
H158 H 0.00969 0.88471 0.46891 0.0
H159 H 0.02474 0.91686 0.43909 0.0
N160 N 0.04492 0.96071 0.42761 0.0
N161 N 0.07078 0.99673 0.41826 0.0
N162 N 0.08123 0.97104 0.45358 0.0
C163 C 0.04999 0.98119 0.41255 0.0
C164 C 0.08666 0.99156 0.4386 0.0
C165 C 0.06028 0.9556 0.44828 0.0
C166 C 0.0324 0.98673 0.39073 0.0
C167 C 0.01866 0.96651 0.37793 0.0
C168 C 0.00024 0.97168 0.35886 0.0
C169 C 0.99483 0.99718 0.35259 0.0
C170 C 0.00903 0.01741 0.36483 0.0
C171 C 0.02794 0.01221 0.38352 0.0
C172 C 0.1101 0.0076 0.44391 0.0
C173 C 0.11186 0.03305 0.43526 0.0
C174 C 0.13461 0.04763 0.43918 0.0
C175 C 0.15609 0.03682 0.45132 0.0
C176 C 0.15422 0.01158 0.46034 0.0
C177 C 0.13136 0.9972 0.45693 0.0
C178 C 0.05322 0.93435 0.4656 0.0
C179 C 0.06461 0.93265 0.49034 0.0
C180 C 0.24757 0.76311 0.84851 0.0
C181 C 0.23229 0.78431 0.85452 0.0
C182 C 0.21205 0.79049 0.83745 0.0
C183 C 0.20732 0.77579 0.81483 0.0
H184 H 0.162 0.76954 0.74789 0.0
H185 H 0.12395 0.77676 0.7211 0.0
H186 H 0.13384 0.7034 0.68243 0.0
H187 H 0.17189 0.69591 0.7094 0.0
H188 H 0.22349 0.66333 0.72249 0.0
H189 H 0.24826 0.62366 0.71994 0.0
H190 H 0.29407 0.64922 0.78623 0.0
H191 H 0.26987 0.6885 0.7889 0.0
H192 H 0.25512 0.73228 0.82229 0.0
H193 H 0.26298 0.75745 0.86144 0.0
H194 H 0.20003 0.80681 0.84144 0.0
H195 H 0.19158 0.78102 0.80209 0.0
N196 N 0.19757 0.7429 0.76907 0.0
N197 N 0.20784 0.70665 0.74371 0.0
N198 N 0.23268 0.71783 0.78056 0.0
C199 C 0.19255 0.72722 0.74814 0.0
C200 C 0.22809 0.70194 0.75985 0.0
C201 C 0.21763 0.73829 0.7854 0.0
C202 C 0.17004 0.73207 0.73093 0.0
C203 C 0.15619 0.75492 0.73365 0.0
C204 C 0.13443 0.75918 0.71815 0.0
C205 C 0.12587 0.74065 0.69965 0.0
C206 C 0.13983 0.71793 0.6967 0.0
C207 C 0.16173 0.71373 0.71208 0.0
C208 C 0.24436 0.67902 0.75614 0.0
C209 C 0.23905 0.66063 0.73632 0.0
C210 C 0.25327 0.63798 0.73475 0.0
C211 C 0.27283 0.63333 0.75308 0.0
C212 C 0.27885 0.6522 0.77207 0.0
C213 C 0.26489 0.67475 0.77355 0.0
C214 C 0.2227 0.75458 0.80888 0.0
C215 C 0.24291 0.74852 0.82602 0.0
C216 C 0.9663 0.63681 0.52134 0.0
C217 C 0.9481 0.64431 0.53952 0.0
C218 C 0.92646 0.62826 0.54331 0.0
C219 C 0.92271 0.60555 0.52873 0.0
H220 H 0.89018 0.52597 0.52811 0.0
H221 H 0.85746 0.49258 0.53649 0.0
H222 H 0.84778 0.47787 0.45473 0.0
H223 H 0.88087 0.51062 0.4463 0.0
H224 H 0.93706 0.51503 0.41722 0.0
H225 H 0.96678 0.50163 0.38434 0.0
H226 H 0.02367 0.5569 0.4142 0.0
H227 H 0.99365 0.57079 0.44709 0.0
H228 H 0.97663 0.60928 0.4924 0.0
H229 H 0.98306 0.6489 0.51783 0.0
H230 H 0.91226 0.63341 0.5574 0.0
H231 H 0.90557 0.59391 0.53189 0.0
N232 N 0.91505 0.55929 0.49746 0.0
N233 N 0.92508 0.5343 0.46109 0.0
N234 N 0.9508 0.57045 0.4727 0.0
C235 C 0.90975 0.53877 0.48147 0.0
C236 C 0.94572 0.54993 0.45661 0.0
C237 C 0.93544 0.57537 0.49307 0.0
C238 C 0.88814 0.52076 0.48657 0.0
C239 C 0.88079 0.51584 0.51195 0.0
C240 C 0.86218 0.49676 0.51675 0.0
C241 C 0.85014 0.48282 0.49623 0.0
C242 C 0.85666 0.48854 0.47084 0.0
C243 C 0.87568 0.50714 0.46606 0.0
C244 C 0.96306 0.54375 0.4351 0.0
C245 C 0.95581 0.52453 0.41677 0.0
C246 C 0.97289 0.51676 0.39792 0.0
C247 C 0.99774 0.5279 0.39693 0.0
C248 C 0.00463 0.548 0.41443 0.0
C249 C 0.98745 0.55587 0.43334 0.0
C250 C 0.94044 0.59845 0.50988 0.0
C251 C 0.96249 0.61417 0.50663 0.0
C252 C 0.91047 0.8259 0.76952 0.0
C253 C 0.90011 0.83198 0.74514 0.0
C254 C 0.87483 0.84127 0.74373 0.0
C255 C 0.8603 0.84413 0.76588 0.0
H256 H 0.80164 0.8872 0.7971 0.0
H257 H 0.76077 0.90912 0.79421 0.0
H258 H 0.73904 0.87802 0.86737 0.0
H259 H 0.7797 0.85571 0.87019 0.0
H260 H 0.82324 0.81959 0.90154 0.0
H261 H 0.82255 0.78339 0.93074 0.0
H262 H 0.86219 0.73747 0.87415 0.0
H263 H 0.86428 0.77393 0.8461 0.0
H264 H 0.90402 0.82292 0.81003 0.0
H265 H 0.92998 0.8192 0.77159 0.0
H266 H 0.86577 0.84558 0.7254 0.0
H267 H 0.84075 0.85082 0.76391 0.0
N268 N 0.83362 0.85395 0.81384 0.0
N269 N 0.82144 0.83651 0.85318 0.0
N270 N 0.85775 0.82109 0.83219 0.0
C271 C 0.81736 0.8535 0.83401 0.0
C272 C 0.84157 0.82026 0.85241 0.0
C273 C 0.854 0.83801 0.81294 0.0
C274 C 0.79392 0.86937 0.83374 0.0
C275 C 0.78833 0.88522 0.81275 0.0
C276 C 0.76491 0.89794 0.81113 0.0
C277 C 0.74655 0.89511 0.83043 0.0
C278 C 0.75261 0.88022 0.85196 0.0
C279 C 0.77601 0.86752 0.85362 0.0
C280 C 0.84375 0.79961 0.87149 0.0
C281 C 0.83222 0.80185 0.89566 0.0
C282 C 0.83165 0.78098 0.9123 0.0
C283 C 0.84209 0.75721 0.9049 0.0
C284 C 0.85438 0.75543 0.881 0.0
C285 C 0.85546 0.77641 0.86469 0.0
C286 C 0.87039 0.83722 0.78999 0.0
C287 C 0.89567 0.82822 0.79163 0.0
C288 C 0.40935 0.32998 0.26446 0.0
C289 C 0.40052 0.33841 0.24026 0.0
C290 C 0.37598 0.3494 0.23859 0.0
C291 C 0.36066 0.35158 0.26024 0.0
H292 H 0.30985 0.40535 0.30559 0.0
H293 H 0.27158 0.43183 0.30389 0.0
H294 H 0.22868 0.37212 0.34248 0.0
H295 H 0.26705 0.3468 0.34553 0.0
H296 H 0.30205 0.31157 0.38168 0.0
H297 H 0.29868 0.27293 0.40704 0.0
H298 H 0.36622 0.24312 0.37067 0.0
H299 H 0.36937 0.2816 0.34474 0.0
H300 H 0.40081 0.32442 0.30425 0.0
H301 H 0.42828 0.3219 0.26677 0.0
H302 H 0.36803 0.35556 0.22034 0.0
H303 H 0.34167 0.35958 0.25799 0.0
N304 N 0.33184 0.3589 0.30713 0.0
N305 N 0.31603 0.33842 0.34354 0.0
N306 N 0.35329 0.32344 0.32406 0.0
C307 C 0.31411 0.35725 0.32592 0.0
C308 C 0.33559 0.32152 0.34291 0.0
C309 C 0.35154 0.34211 0.30614 0.0
C310 C 0.29148 0.37405 0.32577 0.0
C311 C 0.29224 0.39814 0.31396 0.0
C312 C 0.27023 0.41323 0.31286 0.0
C313 C 0.24684 0.40428 0.32308 0.0
C314 C 0.24634 0.38018 0.33501 0.0
C315 C 0.2684 0.36544 0.33659 0.0
C316 C 0.33579 0.29962 0.36083 0.0
C317 C 0.31641 0.29697 0.37922 0.0
C318 C 0.31455 0.27484 0.39395 0.0
C319 C 0.33202 0.25482 0.3907 0.0
C320 C 0.35218 0.25802 0.37328 0.0
C321 C 0.35406 0.28017 0.35852 0.0
C322 C 0.36912 0.34226 0.28409 0.0
C323 C 0.39371 0.33161 0.28605 0.0
C324 C 0.5022 0.85967 0.50643 0.0
C325 C 0.48906 0.86138 0.4826 0.0
C326 C 0.47038 0.88024 0.47954 0.0
C327 C 0.46542 0.89757 0.4995 0.0
H328 H 0.41991 0.95492 0.51475 0.0
H329 H 0.39341 0.99002 0.50092 0.0
H330 H 0.41613 0.03429 0.5692 0.0
H331 H 0.44306 -0.00124 0.58344 0.0
H332 H 0.46698 0.95403 0.63069 0.0
H333 H 0.49081 0.95548 0.67186 0.0
H334 H 0.55577 0.92062 0.63554 0.0
H335 H 0.53172 0.91843 0.59432 0.0
H336 H 0.5081 0.87587 0.54454 0.0
H337 H 0.51669 0.84525 0.50925 0.0
H338 H 0.45962 0.88171 0.46154 0.0
H339 H 0.45103 0.91197 0.49609 0.0
N340 N 0.45678 0.93472 0.53897 0.0
N341 N 0.46538 0.95373 0.57951 0.0
N342 N 0.48762 0.91681 0.56637 0.0
C343 C 0.45218 0.95349 0.55666 0.0
C344 C 0.48308 0.93542 0.5845 0.0
C345 C 0.4743 0.9163 0.54354 0.0
C346 C 0.434 0.9741 0.55006 0.0
C347 C 0.41933 0.97199 0.52702 0.0
C348 C 0.40415 0.99218 0.51899 0.0
C349 C 0.40315 0.01505 0.53374 0.0
C350 C 0.4167 0.01686 0.55744 0.0
C351 C 0.4321 0.99654 0.56553 0.0
C352 C 0.4975 0.93607 0.60933 0.0
C353 C 0.48632 0.94663 0.63147 0.0
C354 C 0.49986 0.9474 0.655 0.0
C355 C 0.52502 0.93819 0.65666 0.0
C356 C 0.53637 0.92788 0.63457 0.0
C357 C 0.52259 0.92653 0.61112 0.0
C358 C 0.47907 0.89662 0.52315 0.0
C359 C 0.49733 0.87725 0.52655 0.0
C360 C 0.26469 0.21639 0.63727 0.0
C361 C 0.24838 0.19568 0.62935 0.0
C362 C 0.22635 0.19027 0.64378 0.0
C363 C 0.22056 0.20553 0.66535 0.0
H364 H 0.16519 0.21681 0.723 0.0
H365 H 0.12475 0.21321 0.74646 0.0
H366 H 0.14897 0.2776 0.79551 0.0
H367 H 0.189 0.28131 0.77258 0.0
H368 H 0.22949 0.31937 0.75565 0.0
H369 H 0.25362 0.35918 0.76391 0.0
H370 H 0.30774 0.338 0.70548 0.0
H371 H 0.28311 0.29811 0.69663 0.0
H372 H 0.27196 0.24747 0.66406 0.0
H373 H 0.28207 0.22081 0.62691 0.0
H374 H 0.21327 0.17457 0.63808 0.0
H375 H 0.20324 0.20104 0.6758 0.0
N376 N 0.20943 0.23827 0.7099 0.0
N377 N 0.21833 0.27569 0.73475 0.0
N378 N 0.24487 0.26513 0.70049 0.0
C379 C 0.20346 0.25428 0.72988 0.0
C380 C 0.23901 0.28133 0.72023 0.0
C381 C 0.23026 0.24355 0.69518 0.0
C382 C 0.18024 0.24964 0.74554 0.0
C383 C 0.16205 0.22995 0.73903 0.0
C384 C 0.13896 0.22778 0.7525 0.0
C385 C 0.13368 0.24533 0.77255 0.0
C386 C 0.15242 0.26405 0.77988 0.0
C387 C 0.17539 0.26615 0.76663 0.0
C388 C 0.25434 0.30538 0.72549 0.0
C389 C 0.24656 0.32303 0.74454 0.0
C390 C 0.26051 0.34589 0.74941 0.0
C391 C 0.28275 0.35174 0.7355 0.0
C392 C 0.29057 0.33418 0.71639 0.0
C393 C 0.27652 0.31124 0.71143 0.0
C394 C 0.23668 0.22655 0.67297 0.0
C395 C 0.25892 0.23162 0.65874 0.0
C396 C 0.71222 0.11819 0.75431 0.0
C397 C 0.6914 0.1103 0.73811 0.0
C398 C 0.68595 0.12455 0.71599 0.0
C399 C 0.70111 0.14614 0.71012 0.0
H400 H 0.72021 0.19882 0.64966 0.0
H401 H 0.71463 0.22477 0.61108 0.0
H402 H 0.75444 0.28877 0.64969 0.0
H403 H 0.76052 0.26282 0.68798 0.0
H404 H 0.81599 0.23391 0.71382 0.0
H405 H 0.85668 0.24228 0.73638 0.0
H406 H 0.83454 0.18943 0.79563 0.0
H407 H 0.79379 0.18032 0.77247 0.0
H408 H 0.74348 0.14498 0.76122 0.0
H409 H 0.71709 0.10743 0.77133 0.0
H410 H 0.66988 0.11908 0.70327 0.0
H411 H 0.69642 0.1566 0.69286 0.0
N412 N 0.73226 0.19169 0.69968 0.0
N413 N 0.7696 0.21702 0.70761 0.0
N414 N 0.76103 0.18142 0.7333 0.0
C415 C 0.7475 0.21224 0.69377 0.0
C416 C 0.77661 0.20167 0.72731 0.0
C417 C 0.7388 0.17631 0.71963 0.0
C418 C 0.74102 0.22872 0.67174 0.0
C419 C 0.72736 0.21856 0.65005 0.0
C420 C 0.7242 0.23336 0.628 0.0
C421 C 0.73408 0.25873 0.6275 0.0
C422 C 0.74643 0.26934 0.64968 0.0
C423 C 0.75009 0.25441 0.67149 0.0
C424 C 0.80143 0.2066 0.74141 0.0
C425 C 0.81965 0.22405 0.73167 0.0
C426 C 0.84304 0.22894 0.7447 0.0
C427 C 0.84881 0.21677 0.76802 0.0
C428 C 0.8308 0.19899 0.77763 0.0
C429 C 0.80736 0.19391 0.76443 0.0
C430 C 0.72219 0.15385 0.72614 0.0
C431 C 0.72747 0.13965 0.74837 0.0
C432 C 0.45426 0.54265 0.5918 0.0
C433 C 0.4552 0.52235 0.60927 0.0
C434 C 0.47294 0.50268 0.60526 0.0
C435 C 0.4896 0.50346 0.58446 0.0
H436 H 0.5567 0.47265 0.55915 0.0
H437 H 0.59274 0.44349 0.55766 0.0
H438 H 0.61544 0.47515 0.48506 0.0
H439 H 0.57923 0.50417 0.48627 0.0
H440 H 0.55209 0.55385 0.466 0.0
H441 H 0.54866 0.58817 0.43491 0.0
H442 H 0.48138 0.61611 0.47318 0.0
H443 H 0.48499 0.58218 0.50458 0.0
H444 H 0.4696 0.55938 0.55791 0.0
H445 H 0.44063 0.55796 0.59422 0.0
H446 H 0.47434 0.48692 0.61853 0.0
H447 H 0.50316 0.48809 0.58215 0.0
N448 N 0.52644 0.50804 0.54365 0.0
N449 N 0.54075 0.52763 0.50609 0.0
N450 N 0.50464 0.54337 0.52718 0.0
C451 C 0.54342 0.50918 0.52411 0.0
C452 C 0.5214 0.5448 0.50745 0.0
C453 C 0.50698 0.52502 0.54533 0.0
C454 C 0.565 0.49089 0.52286 0.0
C455 C 0.56926 0.4734 0.54278 0.0
C456 C 0.59003 0.45673 0.54202 0.0
C457 C 0.607 0.45704 0.52129 0.0
C458 C 0.60257 0.47425 0.50119 0.0
C459 C 0.58186 0.49101 0.50198 0.0
C460 C 0.51889 0.56522 0.48795 0.0
C461 C 0.53651 0.56725 0.46782 0.0
C462 C 0.53447 0.58687 0.44985 0.0
C463 C 0.51479 0.60495 0.45157 0.0
C464 C 0.497 0.60275 0.47151 0.0
C465 C 0.49902 0.58315 0.48946 0.0
C466 C 0.48883 0.52388 0.56706 0.0
C467 C 0.47081 0.54336 0.57089 0.0
C468 C 0.56186 0.42124 0.00214 0.0
C469 C 0.54144 0.40393 0.99581 0.0
C470 C 0.53126 0.40326 0.97052 0.0
C471 C 0.5402 0.42049 0.95234 0.0
H472 H 0.52807 0.4457 0.87526 0.0
H473 H 0.49395 0.453 0.84324 0.0
H474 H 0.50875 0.53491 0.8498 0.0
H475 H 0.54343 0.52766 0.88142 0.0
H476 H 0.60929 0.53452 0.89901 0.0
H477 H 0.6473 0.56212 0.90632 0.0
H478 H 0.66361 0.52364 0.97762 0.0
H479 H 0.62543 0.49618 0.97062 0.0
H480 H 0.58592 0.45239 0.9896 0.0
H481 H 0.57006 0.42217 0.02151 0.0
H482 H 0.51589 0.38974 0.96492 0.0
H483 H 0.53133 0.41978 0.93326 0.0
N484 N 0.55147 0.46237 0.9191 0.0
N485 N 0.57635 0.49842 0.90797 0.0
N486 N 0.58672 0.47568 0.94532 0.0
C487 C 0.5562 0.48193 0.90283 0.0
C488 C 0.5919 0.49527 0.92904 0.0
C489 C 0.56652 0.45913 0.94044 0.0
C490 C 0.53827 0.48613 0.88093 0.0
C491 C 0.52441 0.46522 0.86947 0.0
C492 C 0.50504 0.46936 0.85104 0.0
C493 C 0.49882 0.49449 0.84415 0.0
C494 C 0.51331 0.51536 0.85482 0.0
C495 C 0.53313 0.51119 0.87282 0.0
C496 C 0.61432 0.51294 0.93413 0.0
C497 C 0.62083 0.532 0.91636 0.0
C498 C 0.64268 0.54779 0.92048 0.0
C499 C 0.6585 0.54499 0.94249 0.0
C500 C 0.65166 0.52644 0.9606 0.0
C501 C 0.62985 0.51057 0.95646 0.0
C502 C 0.55961 0.43885 0.95895 0.0
C503 C 0.57087 0.43858 0.98387 0.0
C504 C 0.74299 0.25916 0.34463 0.0
C505 C 0.72859 0.28111 0.35015 0.0
C506 C 0.70919 0.28819 0.33251 0.0
C507 C 0.70448 0.27368 0.30977 0.0
H508 H 0.66084 0.26902 0.24199 0.0
H509 H 0.62359 0.27773 0.21471 0.0
H510 H 0.6314 0.20417 0.17578 0.0
H511 H 0.66871 0.19517 0.20334 0.0
H512 H 0.72033 0.16103 0.21721 0.0
H513 H 0.74486 0.12108 0.21511 0.0
H514 H 0.78889 0.14577 0.28284 0.0
H515 H 0.76512 0.18528 0.28502 0.0
H516 H 0.7499 0.22795 0.31867 0.0
H517 H 0.7577 0.25279 0.35801 0.0
H518 H 0.69786 0.30509 0.33614 0.0
H519 H 0.68944 0.27965 0.29655 0.0
N520 N 0.69462 0.24102 0.26381 0.0
N521 N 0.70466 0.20474 0.23836 0.0
N522 N 0.72881 0.21506 0.27589 0.0
C523 C 0.68975 0.22564 0.24264 0.0
C524 C 0.7244 0.19945 0.25495 0.0
C525 C 0.71413 0.2358 0.28057 0.0
C526 C 0.6678 0.23132 0.22499 0.0
C527 C 0.65476 0.25467 0.22759 0.0
C528 C 0.63346 0.25978 0.2118 0.0
C529 C 0.62454 0.24166 0.19307 0.0
C530 C 0.63769 0.21843 0.19021 0.0
C531 C 0.65916 0.21335 0.20592 0.0
C532 C 0.74041 0.1763 0.2515 0.0
C533 C 0.73547 0.15807 0.23144 0.0
C534 C 0.74953 0.13528 0.23014 0.0
C535 C 0.76851 0.13037 0.24898 0.0
C536 C 0.77415 0.14902 0.26825 0.0
C537 C 0.7604 0.17169 0.26945 0.0
C538 C 0.71906 0.25178 0.30426 0.0
C539 C 0.73836 0.24477 0.32202 0.0
C540 C 0.45336 0.15249 0.00667 0.0
C541 C 0.44472 0.15606 0.03187 0.0
C542 C 0.43233 0.1356 0.04417 0.0
C543 C 0.42807 0.11199 0.03114 0.0
H544 H 0.38626 0.03609 0.03049 0.0
H545 H 0.35332 0.0032 0.04008 0.0
H546 H 0.34359 0.98563 0.95882 0.0
H547 H 0.37687 0.01776 0.94928 0.0
H548 H 0.4378 0.01289 0.92574 0.0
H549 H 0.46929 0.9958 0.89644 0.0
H550 H 0.52254 0.05775 0.91839 0.0
H551 H 0.49077 0.07529 0.9476 0.0
H552 H 0.45641 0.12664 0.97435 0.0
H553 H 0.46296 0.16811 0.99688 0.0
H554 H 0.42544 0.13808 0.0636 0.0
H555 H 0.41814 0.09657 0.04089 0.0
N556 N 0.4113 0.06835 0.99731 0.0
N557 N 0.42242 0.03944 0.96428 0.0
N558 N 0.44788 0.07651 0.97255 0.0
C559 C 0.40634 0.04631 0.98338 0.0
C560 C 0.44337 0.05427 0.95887 0.0
C561 C 0.4319 0.08372 0.99169 0.0
C562 C 0.38419 0.02928 0.98918 0.0
C563 C 0.37672 0.0255 0.01471 0.0
C564 C 0.35797 0.00673 0.02019 0.0
C565 C 0.34593 0.99206 0.00015 0.0
C566 C 0.35241 0.99689 0.97456 0.0
C567 C 0.37156 0.01512 0.96915 0.0
C568 C 0.46179 0.04535 0.93931 0.0
C569 C 0.45612 0.02305 0.92429 0.0
C570 C 0.47425 0.01313 0.90755 0.0
C571 C 0.49857 0.02519 0.9054 0.0
C572 C 0.50395 0.04806 0.91959 0.0
C573 C 0.48574 0.05805 0.93639 0.0
C574 C 0.43669 0.10838 0.00585 0.0
C575 C 0.44965 0.12878 0.99387 0.0
Zn576 Zn 0.28492 0.84341 -0.00059 0.0
Zn577 Zn 0.23865 0.86317 0.00258 0.0
O578 O 0.23928 0.83814 0.03349 0.0
O579 O 0.27669 0.81984 0.02836 0.0
O580 O 0.20428 0.88047 0.0045 0.0
O581 O 0.30239 0.87763 0.00724 0.0
O582 O 0.26395 0.89461 0.00523 0.0
C583 C 0.2559 0.82176 0.04048 0.0
C584 C 0.2544 0.83441 0.95331 0.0
O585 O 0.23714 0.8451 0.96671 0.0
O586 O 0.27697 0.8322 0.96262 0.0
C587 C 0.19837 0.89313 0.02466 0.0
O588 O 0.21441 0.89371 0.04459 0.0
C589 C 0.28836 0.89723 0.00771 0.0
Zn590 Zn 0.09331 0.44204 0.29836 0.0
Zn591 Zn 0.11025 0.48849 0.28319 0.0
O592 O 0.08463 0.49774 0.31189 0.0
O593 O 0.06967 0.45963 0.32287 0.0
O594 O 0.12445 0.52275 0.27154 0.0
O595 O 0.12911 0.43343 0.31046 0.0
O596 O 0.14325 0.47007 0.29471 0.0
C597 C 0.06976 0.48392 0.32546 0.0
C598 C 0.08263 0.45091 0.24476 0.0
O599 O 0.0929 0.47286 0.25042 0.0
O600 O 0.08108 0.43381 0.26175 0.0
C601 C 0.13245 0.53975 0.28794 0.0
O602 O 0.13047 0.53507 0.31261 0.0
C603 C 0.14753 0.44882 0.30569 0.0
Zn604 Zn 0.81085 0.60606 0.94536 0.0
Zn605 Zn 0.79804 0.62362 0.9924 0.0
O606 O 0.82552 0.5966 0.00028 0.0
O607 O 0.83477 0.58107 0.96188 0.0
O608 O 0.78961 0.63769 0.02772 0.0
O609 O 0.82438 0.64126 0.93645 0.0
O610 O 0.81013 0.65621 0.97343 0.0
C611 C 0.83787 0.58099 0.98614 0.0
C612 C 0.75729 0.59721 0.95677 0.0
O613 O 0.76413 0.60717 0.97853 0.0
O614 O 0.77342 0.59548 0.93886 0.0
C615 C 0.76774 0.64682 0.03288 0.0
O616 O 0.7497 0.64692 0.01476 0.0
C617 C 0.8208 0.65992 0.95189 0.0
Zn618 Zn 0.84625 0.99619 0.29098 0.0
Zn619 Zn 0.86647 -0.00166 0.24455 0.0
O620 O 0.84134 0.02901 0.24466 0.0
O621 O 0.82303 0.02525 0.28228 0.0
O622 O 0.88351 0.00012 0.20999 0.0
O623 O 0.8806 0.00398 0.30821 0.0
O624 O 0.89785 0.00148 0.26987 0.0
C625 C 0.82511 0.0367 0.2611 0.0
C626 C 0.83769 0.94946 0.26117 0.0
O627 O 0.84871 0.96239 0.24374 0.0
O628 O 0.83495 0.95936 0.28341 0.0
C629 C 0.89407 0.021 0.20278 0.0
O630 O 0.89298 0.04161 0.21777 0.0
C631 C 0.9003 0.00425 0.29428 0.0
Zn632 Zn 0.30603 0.10318 0.44315 0.0
Zn633 Zn 0.29286 0.12712 0.48679 0.0
O634 O 0.322 0.10353 0.49919 0.0
O635 O 0.33468 0.08635 0.46259 0.0
O636 O 0.283 0.14654 0.519 0.0
O637 O 0.31281 0.13694 0.4261 0.0
O638 O 0.30397 0.15647 0.46276 0.0
C639 C 0.33707 0.08893 0.48683 0.0
C640 C 0.25416 0.09114 0.45761 0.0
O641 O 0.25947 0.10728 0.47586 0.0
O642 O 0.27097 0.0857 0.44115 0.0
C643 C 0.27366 0.13542 0.53842 0.0
O644 O 0.27035 0.11027 0.53772 0.0
C645 C 0.31103 0.15748 0.4394 0.0
Zn646 Zn 0.34666 0.49487 0.78956 0.0
Zn647 Zn 0.36549 0.49754 0.74235 0.0
O648 O 0.34197 0.52941 0.74422 0.0
O649 O 0.32527 0.52577 0.78264 0.0
O650 O 0.38174 0.4995 0.70742 0.0
O651 O 0.38195 0.5001 0.80567 0.0
O652 O 0.39768 0.49879 0.76661 0.0
C653 C 0.32706 0.53763 0.76166 0.0
C654 C 0.33449 0.4497 0.75834 0.0
O655 O 0.34598 0.46248 0.74111 0.0
O656 O 0.33275 0.45908 0.78094 0.0
C657 C 0.39338 0.52007 0.70089 0.0
O658 O 0.39361 0.54014 0.7167 0.0
C659 C 0.40108 0.5004 0.79098 0.0
Zn660 Zn 0.78043 0.33681 0.49638 0.0
Zn661 Zn 0.73577 0.36071 0.49774 0.0
O662 O 0.73405 0.33653 0.52905 0.0
O663 O 0.76885 0.31346 0.52458 0.0
O664 O 0.70256 0.38016 0.49899 0.0
O665 O 0.79987 0.37012 0.5048 0.0
O666 O 0.76315 0.3901 0.50022 0.0
C667 C 0.74827 0.31817 0.53626 0.0
C668 C 0.75066 0.33027 0.44933 0.0
O669 O 0.73378 0.34218 0.46216 0.0
O670 O 0.77271 0.32656 0.45928 0.0
C671 C 0.69665 0.39242 0.5194 0.0
O672 O 0.71212 0.3916 0.53971 0.0
C673 C 0.78751 0.39083 0.50382 0.0
Zn674 Zn 0.58941 0.93323 0.80819 0.0
Zn675 Zn 0.61015 0.97911 0.79424 0.0
O676 O 0.58548 0.98927 0.82317 0.0
O677 O 0.56975 0.95195 0.83564 0.0
O678 O 0.6266 0.01302 0.78436 0.0
O679 O 0.62518 0.92039 0.81597 0.0
O680 O 0.64149 0.95799 0.80516 0.0
C681 C 0.57091 0.97628 0.83779 0.0
C682 C 0.57733 0.94608 0.75564 0.0
O683 O 0.59133 0.96593 0.7612 0.0
O684 O 0.57329 0.92916 0.77241 0.0
C685 C 0.63513 0.01661 0.76189 0.0
O686 O 0.63282 0.99793 0.7445 0.0
C687 C 0.64456 0.93519 0.81313 0.0
Zn688 Zn 0.98811 0.27786 0.83369 0.0
Zn689 Zn 0.99181 0.23322 0.85651 0.0
O690 O 0.02524 0.23507 0.83497 0.0
O691 O 0.02185 0.27271 0.81664 0.0
O692 O 0.99437 0.1997 0.87549 0.0
O693 O 0.98692 0.29683 0.86747 0.0
O694 O 0.99013 0.25979 0.88693 0.0
C695 C 0.03426 0.25236 0.82029 0.0
C696 C 0.94568 0.24415 0.82019 0.0
O697 O 0.95765 0.22889 0.835 0.0
O698 O 0.95498 0.2664 0.81627 0.0
C699 C 0.01474 0.19482 0.88836 0.0
O700 O 0.03422 0.21138 0.88825 0.0
C701 C 0.98805 0.28421 0.88804 0.0
Zn702 Zn 0.49905 0.78511 0.33879 0.0
Zn703 Zn 0.50171 0.74259 0.36545 0.0
O704 O 0.53481 0.74127 0.34353 0.0
O705 O 0.53191 0.77683 0.3214 0.0
O706 O 0.5037 0.71127 0.38775 0.0
O707 O 0.50023 0.80728 0.3707 0.0
O708 O 0.50152 0.77194 0.39324 0.0
C709 C 0.5439 0.75666 0.32697 0.0
C710 C 0.45529 0.75163 0.32916 0.0
O711 O 0.46721 0.7372 0.34482 0.0
O712 O 0.46499 0.77329 0.3235 0.0
C713 C 0.50869 0.68874 0.37956 0.0
O714 O 0.5128 0.6849 0.35491 0.0
C715 C 0.50109 0.79645 0.3923 0.0
Zn716 Zn 0.94658 0.799 0.59427 0.0
Zn717 Zn 0.9925 0.78745 0.61541 0.0
O718 O 0.00189 0.81538 0.58916 0.0
O719 O 0.96449 0.82347 0.57064 0.0
O720 O 0.02676 0.77954 0.63236 0.0
O721 O 0.93453 0.81213 0.6286 0.0
O722 O 0.97084 0.79924 0.64632 0.0
C723 C 0.9886 0.82742 0.57253 0.0
C724 C 0.95954 0.74575 0.58684 0.0
O725 O 0.98045 0.75312 0.59826 0.0
O726 O 0.94152 0.76151 0.58353 0.0
C727 C 0.03069 0.75811 0.64305 0.0
O728 O 0.01213 0.74052 0.64274 0.0
C729 C 0.9487 0.80914 0.6484 0.0
Zn730 Zn 0.44832 0.3103 0.08899 0.0
Zn731 Zn 0.49332 0.29566 0.11028 0.0
O732 O 0.50424 0.3239 0.0847 0.0
O733 O 0.46735 0.33551 0.06732 0.0
O734 O 0.52714 0.28566 0.12687 0.0
O735 O 0.43623 0.32164 0.124 0.0
O736 O 0.4722 0.30754 0.14146 0.0
C737 C 0.49165 0.33772 0.06898 0.0
C738 C 0.45896 0.25676 0.0794 0.0
O739 O 0.47941 0.26228 0.09254 0.0
O740 O 0.44239 0.27384 0.07529 0.0
C741 C 0.53038 0.26366 0.13664 0.0
O742 O 0.51127 0.24668 0.13571 0.0
C743 C 0.45025 0.31777 0.14373 0.0
C744 C 0.21738 0.80774 0.89438 0.0
C745 C 0.23756 0.79947 0.87875 0.0
H746 H 0.20681 0.82534 0.93029 0.0
C747 C 0.2631 0.80455 0.88713 0.0
H748 H 0.19748 0.80401 0.88856 0.0
C749 C 0.26841 0.81642 0.91103 0.0
C750 C 0.24831 0.82378 0.92714 0.0
H751 H 0.27911 0.79902 0.87533 0.0
H752 H 0.28836 0.81951 0.91702 0.0
C753 C 0.22271 0.81985 0.91834 0.0
C754 C 0.01841 0.49042 0.37558 0.0
C755 C 0.01672 0.51721 0.37881 0.0
H756 H 0.03632 0.45908 0.35652 0.0
C757 C 0.03324 0.53327 0.3648 0.0
H758 H 0.00639 0.47748 0.38648 0.0
C759 C 0.0507 0.52264 0.34751 0.0
C760 C 0.05202 0.49577 0.34407 0.0
H761 H 0.03234 0.55402 0.36688 0.0
H762 H 0.06299 0.53543 0.33674 0.0
C763 C 0.03577 0.47985 0.35847 0.0
C764 C 0.85659 0.71394 0.92001 0.0
C765 C 0.83853 0.73378 0.92079 0.0
H766 H 0.86484 0.67485 0.92898 0.0
C767 C 0.81593 0.7299 0.93495 0.0
H768 H 0.87462 0.71636 0.91017 0.0
C769 C 0.81093 0.70635 0.94669 0.0
C770 C 0.82807 0.68605 0.94394 0.0
H771 H 0.80136 0.74445 0.93586 0.0
H772 H 0.79289 0.70347 0.95647 0.0
C773 C 0.85118 0.6902 0.93103 0.0
C774 C 0.96967 0.99023 0.31116 0.0
C775 C 0.97249 0.00243 0.3355 0.0
H776 H 0.94461 0.98191 0.27851 0.0
C777 C 0.95242 0.01744 0.3448 0.0
H778 H 0.98493 0.97852 0.30365 0.0
C779 C 0.9293 0.01893 0.33077 0.0
C780 C 0.92602 0.00589 0.30691 0.0
H781 H 0.95407 0.02683 0.36361 0.0
H782 H 0.91366 0.02964 0.33896 0.0
C783 C 0.94671 0.99225 0.29679 0.0
C784 C 0.25096 0.15317 0.60543 0.0
C785 C 0.25429 0.18011 0.60592 0.0
H786 H 0.25455 0.1179 0.58383 0.0
C787 C 0.26364 0.19217 0.58386 0.0
H788 H 0.24402 0.14325 0.62217 0.0
C789 C 0.26982 0.17767 0.56199 0.0
C790 C 0.26675 0.15073 0.56158 0.0
H791 H 0.26603 0.21292 0.58341 0.0
H792 H 0.27702 0.18765 0.5454 0.0
C793 C 0.25713 0.13863 0.5835 0.0
C794 C 0.42604 0.49898 0.63948 0.0
C795 C 0.43824 0.52198 0.63199 0.0
H796 H 0.40209 0.48036 0.66689 0.0
C797 C 0.43469 0.54453 0.6468 0.0
H798 H 0.42816 0.48135 0.62831 0.0
C799 C 0.41977 0.54398 0.6689 0.0
C800 C 0.40792 0.5209 0.67664 0.0
H801 H 0.44403 0.56251 0.64169 0.0
H802 H 0.41782 0.56162 0.6801 0.0
C803 C 0.41098 0.49846 0.66151 0.0
C804 C 0.74528 0.26206 0.58125 0.0
C805 C 0.73429 0.27316 0.60318 0.0
H806 H 0.75847 0.26779 0.54298 0.0
C807 C 0.72596 0.29871 0.60228 0.0
H808 H 0.75209 0.24249 0.58154 0.0
C809 C 0.7292 0.31312 0.57998 0.0
C810 C 0.74146 0.30236 0.55856 0.0
H811 H 0.71747 0.30767 0.61901 0.0
H812 H 0.72324 0.33297 0.57993 0.0
C813 C 0.74908 0.27659 0.55928 0.0
C814 C 0.56223 0.95377 0.68449 0.0
C815 C 0.5392 0.93928 0.68158 0.0
H816 H 0.59227 0.96763 0.7105 0.0
C817 C 0.52922 0.92649 0.70283 0.0
H818 H 0.57014 0.96386 0.66829 0.0
C819 C 0.54203 0.9282 0.72673 0.0
C820 C 0.56474 0.94323 0.72993 0.0
H821 H 0.51148 0.9152 0.70092 0.0
H822 H 0.53379 0.91826 0.74285 0.0
C823 C 0.57477 0.95598 0.70858 0.0
C824 C 0.88773 0.20447 0.79483 0.0
C825 C 0.87327 0.22338 0.78237 0.0
H826 H 0.92209 0.19607 0.8166 0.0
C827 C 0.88251 0.24899 0.78329 0.0
H828 H 0.88121 0.18452 0.79437 0.0
C829 C 0.90588 0.25548 0.79563 0.0
C830 C 0.92064 0.23661 0.8077 0.0
H831 H 0.87162 0.26419 0.77452 0.0
H832 H 0.91232 0.27545 0.79574 0.0
C833 C 0.91119 0.21104 0.80744 0.0
C834 C 0.49838 0.85521 0.43607 0.0
C835 C 0.49501 0.84437 0.46035 0.0
H836 H 0.50313 0.8487 0.39582 0.0
C837 C 0.49568 0.81748 0.4626 0.0
H838 H 0.4984 0.8759 0.43385 0.0
C839 C 0.49838 0.80168 0.44062 0.0
C840 C 0.50057 0.8126 0.41613 0.0
H841 H 0.49309 0.80867 0.48113 0.0
H842 H 0.498 0.78098 0.44271 0.0
C843 C 0.50114 0.83956 0.41427 0.0
C844 C 0.09515 0.26961 0.78542 0.0
C845 C 0.10795 0.24613 0.78432 0.0
H846 H 0.06213 0.28987 0.79742 0.0
C847 C 0.09619 0.22417 0.79477 0.0
H848 H 0.10362 0.28677 0.77725 0.0
C849 C 0.07222 0.22595 0.8067 0.0
C850 C 0.05954 0.24961 0.80787 0.0
H851 H 0.10573 0.20584 0.79415 0.0
H852 H 0.06363 0.20887 0.81488 0.0
C853 C 0.07127 0.27131 0.79691 0.0
C854 C 0.50714 0.6513 0.44152 0.0
C855 C 0.51305 0.62631 0.43296 0.0
H856 H 0.5012 0.69048 0.43152 0.0
C857 C 0.51743 0.622 0.40658 0.0
H858 H 0.50403 0.6554 0.46175 0.0
C859 C 0.51594 0.6422 0.3892 0.0
C860 C 0.51008 0.66719 0.39782 0.0
H861 H 0.52174 0.60293 0.3993 0.0
H862 H 0.51939 0.63821 0.36902 0.0
C863 C 0.50568 0.67147 0.42418 0.0
C864 C 0.91104 0.84333 0.69962 0.0
C865 C 0.91496 0.82769 0.72114 0.0
H866 H 0.91843 0.84949 0.65977 0.0
C867 C 0.93207 0.80707 0.71892 0.0
H868 H 0.89876 0.85988 0.70064 0.0
C869 C 0.94413 0.80176 0.6956 0.0
C870 C 0.93885 0.81654 0.67387 0.0
H871 H 0.93542 0.79433 0.73483 0.0
H872 H 0.95657 0.78533 0.69422 0.0
C873 C 0.92252 0.83757 0.67619 0.0
C874 C 0.99696 0.87629 0.52019 0.0
C875 C 0.02386 0.87948 0.51941 0.0
H876 H 0.9649 0.85765 0.53744 0.0
C877 C 0.03927 0.86593 0.53691 0.0
H878 H 0.98448 0.88688 0.50742 0.0
C879 C 0.02795 0.84916 0.55445 0.0
C880 C 0.00102 0.84571 0.55484 0.0
H881 H 0.06006 0.86793 0.53673 0.0
H882 H 0.04029 0.83871 0.56747 0.0
C883 C 0.98571 0.85963 0.5376 0.0
C884 C 0.09719 0.76897 0.67349 0.0
C885 C 0.10205 0.7448 0.68405 0.0
H886 H 0.07102 0.7921 0.65209 0.0
C887 C 0.08358 0.72483 0.68031 0.0
H888 H 0.11117 0.78466 0.6758 0.0
C889 C 0.06055 0.72908 0.66677 0.0
C890 C 0.05553 0.75336 0.65652 0.0
H891 H 0.08664 0.70606 0.68843 0.0
H892 H 0.04658 0.71337 0.66457 0.0
C893 C 0.07424 0.77318 0.6598 0.0
C894 C 0.92963 0.68571 0.5552 0.0
C895 C 0.95089 0.66955 0.55331 0.0
H896 H 0.9157 0.72232 0.56723 0.0
C897 C 0.97486 0.67818 0.56363 0.0
H898 H 0.91098 0.67973 0.54718 0.0
C899 C 0.97759 0.70267 0.57521 0.0
C900 C 0.95645 0.7191 0.57643 0.0
H901 H 0.99152 0.66603 0.56264 0.0
H902 H 0.99638 0.70892 0.58268 0.0
C903 C 0.9324 0.71021 0.56656 0.0
C904 C 0.81311 0.88898 0.22549 0.0
C905 C 0.80503 0.87365 0.246 0.0
H906 H 0.82982 0.92502 0.21412 0.0
C907 C 0.80931 0.88292 0.27139 0.0
H908 H 0.80994 0.8825 0.2057 0.0
C909 C 0.82031 0.90731 0.27616 0.0
C910 C 0.8276 0.923 0.2557 0.0
H911 H 0.80392 0.87141 0.28767 0.0
H912 H 0.82288 0.91393 0.29599 0.0
C913 C 0.82437 0.9134 0.2303 0.0
C914 C 0.79574 0.09545 0.22998 0.0
C915 C 0.78119 0.10518 0.25036 0.0
H916 H 0.82149 0.06609 0.21738 0.0
C917 C 0.78002 0.09152 0.27334 0.0
H918 H 0.79694 0.10576 0.2121 0.0
C919 C 0.79373 0.06902 0.27633 0.0
C920 C 0.80923 0.05964 0.25648 0.0
H921 H 0.76874 0.09854 0.28925 0.0
H922 H 0.79261 0.05933 0.29457 0.0
C923 C 0.80983 0.07288 0.23307 0.0
C924 C 0.33852 0.94974 0.02069 0.0
C925 C 0.32896 0.96974 0.00571 0.0
H926 H 0.3331 0.91091 0.03289 0.0
C927 C 0.30458 0.96673 0.99364 0.0
H928 H 0.35738 0.95153 0.02996 0.0
C929 C 0.29042 0.94366 0.99572 0.0
C930 C 0.30081 0.92303 0.0093 0.0
H931 H 0.2969 0.98192 0.98192 0.0
H932 H 0.2721 0.94143 0.98547 0.0
C933 C 0.3247 0.92649 0.02223 0.0
C934 C 0.21773 0.43365 0.29811 0.0
C935 C 0.22265 0.4191 0.32025 0.0
H936 H 0.19007 0.455 0.27642 0.0
C937 C 0.20335 0.41721 0.33883 0.0
H938 H 0.23188 0.43541 0.28321 0.0
C939 C 0.17918 0.42768 0.33442 0.0
C940 C 0.17402 0.4411 0.31181 0.0
H941 H 0.20659 0.40702 0.35655 0.0
H942 H 0.16433 0.42488 0.34852 0.0
C943 C 0.19372 0.44481 0.2941 0.0
C944 C 0.18315 0.07525 0.46564 0.0
C945 C 0.18096 0.05108 0.45309 0.0
H946 H 0.20834 0.10684 0.47737 0.0
C947 C 0.20276 0.04039 0.44196 0.0
H948 H 0.16651 0.08379 0.47436 0.0
C949 C 0.22638 0.05366 0.44319 0.0
C950 C 0.22881 0.07769 0.45603 0.0
H951 H 0.20144 0.02183 0.43206 0.0
H952 H 0.24285 0.04489 0.43437 0.0
C953 C 0.207 0.08834 0.46739 0.0
C954 C 0.66917 0.06871 0.72448 0.0
C955 C 0.67586 0.08689 0.74402 0.0
H956 H 0.65118 0.03226 0.71479 0.0
C957 C 0.66828 0.08216 0.76937 0.0
H958 H 0.67494 0.07169 0.70481 0.0
C959 C 0.65463 0.05958 0.7751 0.0
C960 C 0.64844 0.04113 0.75565 0.0
H961 H 0.6729 0.09595 0.78479 0.0
H962 H 0.64929 0.05642 0.79487 0.0
C963 C 0.6557 0.04604 0.73024 0.0
C964 C 0.37054 0.05 0.53826 0.0
C965 C 0.38866 0.03696 0.5234 0.0
H966 H 0.33976 0.077 0.53829 0.0
C967 C 0.39167 0.04359 0.49755 0.0
H968 H 0.36792 0.04526 0.55827 0.0
C969 C 0.37571 0.0615 0.48619 0.0
C970 C 0.35637 0.07334 0.50043 0.0
H971 H 0.4059 0.03426 0.48581 0.0
H972 H 0.37801 0.06542 0.46594 0.0
C973 C 0.35446 0.06811 0.52683 0.0
C974 C 0.63646 0.42705 0.49802 0.0
C975 C 0.62955 0.43986 0.52089 0.0
H976 H 0.66286 0.40187 0.47962 0.0
C977 C 0.64459 0.43647 0.54335 0.0
H978 H 0.6251 0.42904 0.48046 0.0
C979 C 0.66621 0.42089 0.5429 0.0
C980 C 0.67324 0.40824 0.51999 0.0
H981 H 0.63997 0.44629 0.56122 0.0
H982 H 0.67751 0.41894 0.5605 0.0
C983 C 0.65801 0.41136 0.49759 0.0
C984 C 0.71384 0.30539 0.38956 0.0
C985 C 0.73396 0.29612 0.37444 0.0
H986 H 0.70327 0.32356 0.42519 0.0
C987 C 0.7595 0.30001 0.38339 0.0
H988 H 0.69395 0.3026 0.38326 0.0
C989 C 0.76478 0.31164 0.4074 0.0
C990 C 0.74469 0.31997 0.42302 0.0
H991 H 0.7755 0.2937 0.37198 0.0
H992 H 0.7847 0.31378 0.41385 0.0
C993 C 0.71916 0.31728 0.41362 0.0
C994 C 0.52151 0.98642 0.88929 0.0
C995 C 0.51839 0.01321 0.88909 0.0
H996 H 0.54059 0.95391 0.87359 0.0
C997 C 0.53395 0.02811 0.87299 0.0
H998 H 0.51026 0.97445 0.9019 0.0
C999 C 0.55162 0.01629 0.85676 0.0
C1000 C 0.55406 0.98937 0.8564 0.0
H1001 H 0.53195 0.04879 0.87238 0.0
H1002 H 0.56287 0.02817 0.84408 0.0
C1003 C 0.53907 0.97466 0.87316 0.0
C1004 C 0.32006 0.22936 0.42967 0.0
C1005 C 0.32803 0.23 0.40394 0.0
H1006 H 0.3085 0.20598 0.46115 0.0
C1007 C 0.33084 0.20664 0.39031 0.0
H1008 H 0.31791 0.24704 0.44075 0.0
C1009 C 0.3255 0.18321 0.40195 0.0
C1010 C 0.3172 0.18251 0.42754 0.0
H1011 H 0.33649 0.20642 0.37034 0.0
H1012 H 0.32763 0.16563 0.39069 0.0
C1013 C 0.31474 0.20584 0.44137 0.0
C1014 C 0.45554 0.51352 0.83896 0.0
C1015 C 0.47529 0.49885 0.82849 0.0
H1016 H 0.41641 0.52527 0.83528 0.0
C1017 C 0.47123 0.4864 0.80443 0.0
H1018 H 0.45816 0.52307 0.85762 0.0
C1019 C 0.44747 0.48809 0.79136 0.0
C1020 C 0.42726 0.5016 0.80258 0.0
H1021 H 0.48621 0.47491 0.79607 0.0
H1022 H 0.44449 0.47776 0.77316 0.0
C1023 C 0.43166 0.51464 0.82627 0.0
C1024 C 0.77895 0.67245 0.1012 0.0
C1025 C 0.75463 0.68204 0.10717 0.0
H1026 H 0.80213 0.65366 0.07322 0.0
C1027 C 0.73441 0.67906 0.08886 0.0
H1028 H 0.79484 0.67418 0.11502 0.0
C1029 C 0.73857 0.66732 0.06487 0.0
C1030 C 0.76302 0.65817 0.05872 0.0
H1031 H 0.71552 0.68647 0.09278 0.0
H1032 H 0.72268 0.66572 0.05105 0.0
C1033 C 0.78308 0.66058 0.07728 0.0
C1034 C 0.93478 0.04549 0.14821 0.0
C1035 C 0.93893 0.02279 0.13384 0.0
H1036 H 0.91746 0.06275 0.18118 0.0
C1037 C 0.92734 -0.00035 0.1418 0.0
H1038 H 0.94364 0.06359 0.14276 0.0
C1039 C 0.91234 -0.00086 0.16386 0.0
C1040 C 0.90868 0.02175 0.17855 0.0
H1041 H 0.92989 0.98188 0.13097 0.0
H1042 H 0.90393 0.98093 0.1696 0.0
C1043 C 0.91988 0.04497 0.17033 0.0
C1044 C 0.22847 0.79342 0.10164 0.0
C1045 C 0.24825 0.7768 0.10884 0.0
H1046 H 0.21533 0.82107 0.07427 0.0
C1047 C 0.26921 0.77375 0.09256 0.0
H1048 H 0.21213 0.7961 0.11398 0.0
C1049 C 0.27104 0.78777 0.07009 0.0
C1050 C 0.25201 0.80542 0.06329 0.0
H1051 H 0.28458 0.76085 0.09755 0.0
H1052 H 0.28785 0.78517 0.05839 0.0
C1053 C 0.23038 0.80775 0.07903 0.0
C1054 C 0.05861 0.46066 0.17629 0.0
C1055 C 0.04598 0.43696 0.17053 0.0
H1056 H 0.08022 0.48363 0.20412 0.0
C1057 C 0.04703 0.41733 0.18872 0.0
H1058 H 0.05846 0.47603 0.1625 0.0
C1059 C 0.05955 0.42164 0.21254 0.0
C1060 C 0.07135 0.44568 0.21869 0.0
H1061 H 0.03731 0.39895 0.18497 0.0
H1062 H 0.0594 0.40631 0.22638 0.0
C1063 C 0.07117 0.46497 0.2001 0.0
C1064 C 0.39274 0.75455 0.29097 0.0
C1065 C 0.38277 0.7293 0.29249 0.0
H1066 H 0.42309 0.78123 0.3012 0.0
C1067 C 0.39633 0.71143 0.30729 0.0
H1068 H 0.3825 0.76899 0.28029 0.0
C1069 C 0.4198 0.71856 0.31963 0.0
C1070 C 0.43005 0.74368 0.31734 0.0
H1071 H 0.38914 0.69181 0.3088 0.0
H1072 H 0.4301 0.70433 0.33053 0.0
C1073 C 0.41604 0.7616 0.30311 0.0
C1074 C 0.98661 0.29967 0.96007 0.0
C1075 C 0.97867 0.32537 0.95991 0.0
H1076 H 0.99555 0.26614 0.93729 0.0
C1077 C 0.9749 0.33743 0.93624 0.0
H1078 H 0.98968 0.29001 0.97814 0.0
C1079 C 0.97845 0.32408 0.91315 0.0
C1080 C 0.98568 0.29816 0.91304 0.0
H1081 H 0.96915 0.35735 0.93559 0.0
H1082 H 0.97509 0.33409 0.89532 0.0
C1083 C 0.98988 0.28606 0.93675 0.0
C1084 C 0.60551 0.7696 0.29176 0.0
C1085 C 0.61736 0.74562 0.29203 0.0
H1086 H 0.57322 0.79172 0.30234 0.0
C1087 C 0.60472 0.7247 0.30344 0.0
H1088 H 0.61478 0.78596 0.28287 0.0
C1089 C 0.58077 0.72803 0.31503 0.0
C1090 C 0.56902 0.7522 0.31482 0.0
H1091 H 0.61358 0.70602 0.30383 0.0
H1092 H 0.57146 0.71178 0.32403 0.0
C1093 C 0.58162 0.77282 0.30285 0.0
C1094 C 0.99513 0.13465 0.92408 0.0
C1095 C 0.01816 0.1287 0.93716 0.0
H1096 H 0.976 0.15995 0.8982 0.0
C1097 C 0.04022 0.1442 0.93337 0.0
H1098 H 0.97787 0.12291 0.92638 0.0
C1099 C 0.03916 0.16542 0.91726 0.0
C1100 C 0.01606 0.17157 0.90442 0.0
H1101 H 0.05819 0.14031 0.94337 0.0
H1102 H 0.05643 0.17717 0.9151 0.0
C1103 C 0.99411 0.15578 0.90781 0.0
C1104 C 0.41379 0.35176 0.19595 0.0
C1105 C 0.416 0.33467 0.21657 0.0
H1106 H 0.42263 0.35955 0.15671 0.0
C1107 C 0.4318 0.31311 0.21357 0.0
H1108 H 0.40261 0.36904 0.19763 0.0
C1109 C 0.44415 0.3083 0.19029 0.0
C1110 C 0.44041 0.32455 0.16935 0.0
H1111 H 0.43383 0.29925 0.22873 0.0
H1112 H 0.45549 0.29114 0.18823 0.0
C1113 C 0.42548 0.34652 0.17251 0.0
C1114 C 0.54413 0.37371 0.03324 0.0
C1115 C 0.52932 0.3878 0.01569 0.0
H1116 H 0.54389 0.34658 0.06394 0.0
C1117 C 0.50236 0.3863 0.01688 0.0
H1118 H 0.56497 0.37455 0.03275 0.0
C1119 C 0.49039 0.37052 0.03458 0.0
C1120 C 0.50502 0.35571 0.05164 0.0
H1121 H 0.49043 0.39737 0.00401 0.0
H1122 H 0.46953 0.36972 0.03459 0.0
C1123 C 0.53207 0.3577 0.05103 0.0
C1124 C 0.59726 0.27132 0.16697 0.0
C1125 C 0.60112 0.24681 0.1772 0.0
H1126 H 0.57208 0.29583 0.14602 0.0
C1127 C 0.58193 0.2276 0.17309 0.0
H1128 H 0.61182 0.28645 0.16955 0.0
C1129 C 0.55912 0.23297 0.15962 0.0
C1130 C 0.55505 0.25763 0.14984 0.0
H1131 H 0.58421 0.2086 0.18093 0.0
H1132 H 0.54454 0.21785 0.15719 0.0
C1133 C 0.57453 0.27666 0.15339 0.0
C1134 C 0.46345 0.18481 0.06702 0.0
C1135 C 0.44782 0.1815 0.04477 0.0
H1136 H 0.47964 0.21151 0.09532 0.0
C1137 C 0.43554 0.2028 0.03434 0.0
H1138 H 0.47314 0.16854 0.07527 0.0
C1139 C 0.43879 0.22713 0.04597 0.0
C1140 C 0.45487 0.2307 0.06794 0.0
H1141 H 0.42339 0.20059 0.01718 0.0
H1142 H 0.42914 0.24325 0.03741 0.0
C1143 C 0.46721 0.20931 0.07837 0.0
C1144 C 0.30087 0.38517 0.7667 0.0
C1145 C 0.29751 0.37613 0.74113 0.0
H1146 H 0.3151 0.41523 0.79211 0.0
C1147 C 0.30758 0.39099 0.72117 0.0
H1148 H 0.29388 0.37398 0.7826 0.0
C1149 C 0.32008 0.4147 0.72666 0.0
C1150 C 0.32266 0.42403 0.75222 0.0
H1151 H 0.30517 0.38467 0.70124 0.0
H1152 H 0.32719 0.42594 0.71086 0.0
C1153 C 0.31318 0.40882 0.77217 0.0
C1154 C 0.29766 0.59736 0.73254 0.0
C1155 C 0.28569 0.60818 0.75412 0.0
H1156 H 0.32059 0.56655 0.71795 0.0
C1157 C 0.28664 0.5952 0.77755 0.0
H1158 H 0.29719 0.60707 0.71427 0.0
C1159 C 0.29968 0.57219 0.77963 0.0
C1160 C 0.31237 0.56156 0.75837 0.0
H1161 H 0.2773 0.60295 0.7944 0.0
H1162 H 0.30013 0.56297 0.79816 0.0
C1163 C 0.3111 0.57429 0.7347 0.0
C1164 C 0.80794 0.45921 0.48923 0.0
C1165 C 0.83249 0.46084 0.50109 0.0
H1166 H 0.77403 0.43585 0.48142 0.0
C1167 C 0.84114 0.4402 0.51575 0.0
H1168 H 0.80093 0.47493 0.47782 0.0
C1169 C 0.82608 0.41772 0.51737 0.0
C1170 C 0.80185 0.4157 0.50484 0.0
H1171 H 0.8601 0.44098 0.52489 0.0
H1172 H 0.83365 0.40167 0.52794 0.0
C1173 C 0.79258 0.43693 0.49138 0.0
C1174 C 0.71743 0.93099 0.81748 0.0
C1175 C 0.72056 0.90619 0.8273 0.0
H1176 H 0.691 0.95974 0.80546 0.0
C1177 C 0.69853 0.89143 0.83309 0.0
H1178 H 0.73404 0.94291 0.81302 0.0
C1179 C 0.67395 0.90102 0.8288 0.0
C1180 C 0.67075 0.92565 0.81863 0.0
H1181 H 0.70024 0.87211 0.84032 0.0
H1182 H 0.65743 0.88892 0.83317 0.0
C1183 C 0.69278 0.94066 0.81325 0.0
C1184 C 0.69922 0.56362 0.92494 0.0
C1185 C 0.68281 0.56035 0.94586 0.0
H1186 H 0.73548 0.57788 0.91195 0.0
C1187 C 0.69039 0.57076 0.97011 0.0
H1188 H 0.69405 0.5556 0.90607 0.0
C1189 C 0.71421 0.58357 0.97352 0.0
C1190 C 0.73101 0.58604 0.95277 0.0
H1191 H 0.678 0.56878 0.98652 0.0
H1192 H 0.71973 0.59093 0.99256 0.0
C1193 C 0.72305 0.57628 0.92836 0.0
C1194 C 0.16911 0.60362 0.28998 0.0
C1195 C 0.17463 0.60712 0.26385 0.0
H1196 H 0.1514 0.57982 0.31803 0.0
C1197 C 0.16465 0.58908 0.24549 0.0
H1198 H 0.17611 0.61739 0.30457 0.0
C1199 C 0.15032 0.56756 0.2532 0.0
C1200 C 0.14565 0.5636 0.27944 0.0
H1201 H 0.16871 0.59107 0.22524 0.0
H1202 H 0.14351 0.55368 0.23864 0.0
C1203 C 0.15483 0.58213 0.29768 0.0
C1204 C 0.88332 0.52551 0.99208 0.0
C1205 C 0.88418 0.5217 0.01878 0.0
H1206 H 0.86837 0.54725 0.96097 0.0
C1207 C 0.87093 0.53863 0.03502 0.0
H1208 H 0.89379 0.51316 0.97911 0.0
C1209 C 0.85635 0.55843 0.02459 0.0
C1210 C 0.85487 0.56166 0.99775 0.0
H1211 H 0.87125 0.53611 0.05568 0.0
H1212 H 0.8458 0.57078 0.03747 0.0
C1213 C 0.86886 0.54521 0.9817 0.0
C1214 C 0.14583 0.93696 0.04794 0.0
C1215 C 0.1308 0.93993 0.02539 0.0
H1216 H 0.17887 0.91993 0.06541 0.0
C1217 C 0.13769 0.92665 0.00279 0.0
H1218 H 0.14119 0.94713 0.06561 0.0
C1219 C 0.15929 0.911 0.00267 0.0
C1220 C 0.1746 0.90843 0.02511 0.0
H1221 H 0.12634 0.92831 0.98518 0.0
H1222 H 0.1642 0.90123 0.98486 0.0
C1223 C 0.16751 0.92146 0.04779 0.0
loop_
_geom_bond_atom_site_label_1
_geom_bond_atom_site_label_2
_geom_bond_distance
_geom_bond_site_symmetry_2
_ccdc_geom_bond_type
C0 C1 1.384 . S
C0 H13 0.947 . S
C0 C35 1.382 . S
C1 C0 1.384 . S
C1 C2 1.392 . S
C2 C1 1.392 . S
C2 C3 1.367 1_655 S
C2 H14 0.950 1_645 S
C3 C2 1.367 1_455 S
C3 H15 0.950 . S
C3 C34 1.383 . S
H4 C23 0.947 . S
H5 C24 0.946 . S
H6 C26 0.950 1_546 S
H7 C27 0.945 . S
H8 C29 0.952 . S
H9 C30 0.949 . S
H10 C32 0.950 1_655 S
H11 C33 0.948 . S
H12 C35 0.951 . S
H13 C0 0.947 . S
H14 C2 0.950 1_465 S
H15 C3 0.950 . S
N16 C19 1.382 . S
N16 C21 1.363 . S
N17 C19 1.371 . S
N17 C20 1.372 . S
N18 C20 1.361 . S
N18 C21 1.377 . S
C19 N16 1.382 . S
C19 N17 1.371 . S
C19 C22 1.480 . S
C20 N17 1.372 . S
C20 N18 1.361 . S
C20 C28 1.457 . S
C21 N16 1.363 . S
C21 N18 1.377 . S
C21 C34 1.479 . S
C22 C19 1.480 . S
C22 C23 1.383 1_545 S
C22 C27 1.385 . S
C23 H4 0.947 . S
C23 C22 1.383 1_565 S
C23 C24 1.388 . S
C24 H5 0.946 . S
C24 C23 1.388 . S
C24 C25 1.384 . S
C25 C24 1.384 . S
C25 C26 1.390 . S
C26 H6 0.950 1_564 S
C26 C25 1.390 . S
C26 C27 1.358 1_565 S
C27 H7 0.945 . S
C27 C22 1.385 . S
C27 C26 1.358 1_545 S
C28 C20 1.457 . S
C28 C29 1.372 1_554 S
C28 C33 1.364 . S
C29 H8 0.952 . S
C29 C28 1.372 1_556 S
C29 C30 1.389 . S
C30 H9 0.949 . S
C30 C29 1.389 . S
C30 C31 1.387 . S
C31 C30 1.387 . S
C31 C32 1.372 1_556 S
C32 H10 0.950 1_455 S
C32 C31 1.372 1_554 S
C32 C33 1.379 . S
C33 H11 0.948 . S
C33 C28 1.364 . S
C33 C32 1.379 . S
C34 C3 1.383 . S
C34 C21 1.479 . S
C34 C35 1.398 1_455 S
C35 C0 1.382 . S
C35 H12 0.951 . S
C35 C34 1.398 1_655 S
C36 C37 1.384 . S
C36 H49 0.947 . S
C36 C71 1.382 . S
C37 C36 1.384 . S
C37 C38 1.378 . S
C38 C37 1.378 . S
C38 C39 1.378 . S
C38 H50 0.952 . S
C39 C38 1.378 . S
C39 H51 0.950 . S
C39 C70 1.383 . S
H40 C59 0.947 . S
H41 C60 0.946 . S
H42 C62 0.953 . S
H43 C63 0.945 . S
H44 C65 0.952 . S
H45 C66 0.949 . S
H46 C68 0.950 . S
H47 C69 0.948 . S
H48 C71 0.951 . S
H49 C36 0.947 . S
H50 C38 0.952 . S
H51 C39 0.950 . S
N52 C55 1.382 . S
N52 C57 1.363 . S
N53 C55 1.371 . S
N53 C56 1.372 . S
N54 C56 1.361 . S
N54 C57 1.377 . S
C55 N52 1.382 . S
C55 N53 1.371 . S
C55 C58 1.480 . S
C56 N53 1.372 . S
C56 N54 1.361 . S
C56 C64 1.457 . S
C57 N52 1.363 . S
C57 N54 1.377 . S
C57 C70 1.479 . S
C58 C55 1.480 . S
C58 C59 1.383 . S
C58 C63 1.385 . S
C59 H40 0.947 . S
C59 C58 1.383 . S
C59 C60 1.388 . S
C60 H41 0.946 . S
C60 C59 1.388 . S
C60 C61 1.384 . S
C61 C60 1.384 . S
C61 C62 1.377 . S
C62 H42 0.953 . S
C62 C61 1.377 . S
C62 C63 1.369 . S
C63 H43 0.945 . S
C63 C58 1.385 . S
C63 C62 1.369 . S
C64 C56 1.457 . S
C64 C65 1.372 . S
C64 C69 1.364 . S
C65 H44 0.952 . S
C65 C64 1.372 . S
C65 C66 1.389 . S
C66 H45 0.949 . S
C66 C65 1.389 . S
C66 C67 1.387 . S
C67 C66 1.387 . S
C67 C68 1.372 . S
C68 H46 0.950 . S
C68 C67 1.372 . S
C68 C69 1.379 . S
C69 H47 0.948 . S
C69 C64 1.364 . S
C69 C68 1.379 . S
C70 C39 1.383 . S
C70 C57 1.479 . S
C70 C71 1.398 . S
C71 C36 1.382 . S
C71 H48 0.951 . S
C71 C70 1.398 . S
C72 C73 1.384 1_554 S
C72 H85 0.947 . S
C72 C107 1.382 . S
C73 C72 1.384 1_556 S
C73 C74 1.378 . S
C74 C73 1.378 . S
C74 C75 1.378 . S
C74 H86 0.952 . S
C75 C74 1.378 . S
C75 H87 0.950 . S
C75 C106 1.383 1_556 S
H76 C95 0.947 . S
H77 C96 0.946 . S
H78 C98 0.953 . S
H79 C99 0.945 . S
H80 C101 0.952 . S
H81 C102 0.949 . S
H82 C104 0.950 . S
H83 C105 0.948 . S
H84 C107 0.951 . S
H85 C72 0.947 . S
H86 C74 0.952 . S
H87 C75 0.950 . S
N88 C91 1.382 . S
N88 C93 1.363 . S
N89 C91 1.371 . S
N89 C92 1.372 . S
N90 C92 1.361 . S
N90 C93 1.377 . S
C91 N88 1.382 . S
C91 N89 1.371 . S
C91 C94 1.480 . S
C92 N89 1.372 . S
C92 N90 1.361 . S
C92 C100 1.457 . S
C93 N88 1.363 . S
C93 N90 1.377 . S
C93 C106 1.479 . S
C94 C91 1.480 . S
C94 C95 1.383 . S
C94 C99 1.385 . S
C95 H76 0.947 . S
C95 C94 1.383 . S
C95 C96 1.388 . S
C96 H77 0.946 . S
C96 C95 1.388 . S
C96 C97 1.384 . S
C97 C96 1.384 . S
C97 C98 1.377 . S
C98 H78 0.953 . S
C98 C97 1.377 . S
C98 C99 1.369 . S
C99 H79 0.945 . S
C99 C94 1.385 . S
C99 C98 1.369 . S
C100 C92 1.457 . S
C100 C101 1.372 . S
C100 C105 1.364 1_655 S
C101 H80 0.952 . S
C101 C100 1.372 . S
C101 C102 1.389 . S
C102 H81 0.949 . S
C102 C101 1.389 . S
C102 C103 1.387 1_655 S
C103 C102 1.387 1_455 S
C103 C104 1.372 . S
C104 H82 0.950 . S
C104 C103 1.372 . S
C104 C105 1.379 . S
C105 H83 0.948 . S
C105 C100 1.364 1_455 S
C105 C104 1.379 . S
C106 C75 1.383 1_554 S
C106 C93 1.479 . S
C106 C107 1.398 . S
C107 C72 1.382 . S
C107 H84 0.951 . S
C107 C106 1.398 . S
C108 C109 1.384 . S
C108 H121 0.947 . S
C108 C143 1.382 . S
C109 C108 1.384 . S
C109 C110 1.378 . S
C110 C109 1.378 . S
C110 C111 1.378 . S
C110 H122 0.952 . S
C111 C110 1.378 . S
C111 H123 0.950 . S
C111 C142 1.383 . S
H112 C131 0.947 . S
H113 C132 0.946 . S
H114 C134 0.953 . S
H115 C135 0.945 . S
H116 C137 0.952 . S
H117 C138 0.949 . S
H118 C140 0.950 . S
H119 C141 0.948 . S
H120 C143 0.951 . S
H121 C108 0.947 . S
H122 C110 0.952 . S
H123 C111 0.950 . S
N124 C127 1.382 . S
N124 C129 1.363 . S
N125 C127 1.371 . S
N125 C128 1.372 . S
N126 C128 1.361 . S
N126 C129 1.377 . S
C127 N124 1.382 . S
C127 N125 1.371 . S
C127 C130 1.480 . S
C128 N125 1.372 . S
C128 N126 1.361 . S
C128 C136 1.457 . S
C129 N124 1.363 . S
C129 N126 1.377 . S
C129 C142 1.479 . S
C130 C127 1.480 . S
C130 C131 1.383 . S
C130 C135 1.385 . S
C131 H112 0.947 . S
C131 C130 1.383 . S
C131 C132 1.388 . S
C132 H113 0.946 . S
C132 C131 1.388 . S
C132 C133 1.384 . S
C133 C132 1.384 . S
C133 C134 1.377 . S
C134 H114 0.953 . S
C134 C133 1.377 . S
C134 C135 1.369 . S
C135 H115 0.945 . S
C135 C130 1.385 . S
C135 C134 1.369 . S
C136 C128 1.457 . S
C136 C137 1.372 . S
C136 C141 1.364 . S
C137 H116 0.952 . S
C137 C136 1.372 . S
C137 C138 1.389 . S
C138 H117 0.949 . S
C138 C137 1.389 . S
C138 C139 1.387 . S
C139 C138 1.387 . S
C139 C140 1.372 . S
C140 H118 0.950 . S
C140 C139 1.372 . S
C140 C141 1.379 . S
C141 H119 0.948 . S
C141 C136 1.364 . S
C141 C140 1.379 . S
C142 C111 1.383 . S
C142 C129 1.479 . S
C142 C143 1.398 . S
C143 C108 1.382 . S
C143 H120 0.951 . S
C143 C142 1.398 . S
C144 C145 1.384 . S
C144 H157 0.947 . S
C144 C179 1.382 . S
C145 C144 1.384 . S
C145 C146 1.378 . S
C146 C145 1.378 . S
C146 C147 1.378 . S
C146 H158 0.952 . S
C147 C146 1.378 . S
C147 H159 0.950 . S
C147 C178 1.383 . S
H148 C167 0.944 1_655 S
H149 C168 0.946 . S
H150 C170 0.953 . S
H151 C171 0.945 . S
H152 C173 0.952 . S
H153 C174 0.949 . S
H154 C176 0.950 . S
H155 C177 0.948 . S
H156 C179 0.951 . S
H157 C144 0.947 . S
H158 C146 0.952 . S
H159 C147 0.950 . S
N160 C163 1.382 . S
N160 C165 1.363 . S
N161 C163 1.371 . S
N161 C164 1.372 . S
N162 C164 1.361 . S
N162 C165 1.377 . S
C163 N160 1.382 . S
C163 N161 1.371 . S
C163 C166 1.480 . S
C164 N161 1.372 . S
C164 N162 1.361 . S
C164 C172 1.457 . S
C165 N160 1.363 . S
C165 N162 1.377 . S
C165 C178 1.479 . S
C166 C163 1.480 . S
C166 C167 1.383 . S
C166 C171 1.385 . S
C167 H148 0.944 1_455 S
C167 C166 1.383 . S
C167 C168 1.388 1_455 S
C168 H149 0.946 . S
C168 C167 1.388 1_655 S
C168 C169 1.384 . S
C169 C168 1.384 . S
C169 C170 1.377 1_655 S
C170 H150 0.953 . S
C170 C169 1.377 1_455 S
C170 C171 1.369 . S
C171 H151 0.945 . S
C171 C166 1.385 . S
C171 C170 1.369 . S
C172 C164 1.457 . S
C172 C173 1.372 1_565 S
C172 C177 1.364 . S
C173 H152 0.952 . S
C173 C172 1.372 1_545 S
C173 C174 1.389 . S
C174 H153 0.949 . S
C174 C173 1.389 . S
C174 C175 1.387 . S
C175 C174 1.387 . S
C175 C176 1.372 1_545 S
C176 H154 0.950 . S
C176 C175 1.372 1_565 S
C176 C177 1.379 . S
C177 H155 0.948 . S
C177 C172 1.364 . S
C177 C176 1.379 . S
C178 C147 1.383 . S
C178 C165 1.479 . S
C178 C179 1.398 . S
C179 C144 1.382 . S
C179 H156 0.951 . S
C179 C178 1.398 . S
C180 C181 1.384 . S
C180 H193 0.947 . S
C180 C215 1.382 . S
C181 C180 1.384 . S
C181 C182 1.378 . S
C182 C181 1.378 . S
C182 C183 1.378 . S
C182 H194 0.952 . S
C183 C182 1.378 . S
C183 H195 0.950 . S
C183 C214 1.383 . S
H184 C203 0.947 . S
H185 C204 0.946 . S
H186 C206 0.953 . S
H187 C207 0.945 . S
H188 C209 0.952 . S
H189 C210 0.949 . S
H190 C212 0.950 . S
H191 C213 0.948 . S
H192 C215 0.951 . S
H193 C180 0.947 . S
H194 C182 0.952 . S
H195 C183 0.950 . S
N196 C199 1.382 . S
N196 C201 1.363 . S
N197 C199 1.371 . S
N197 C200 1.372 . S
N198 C200 1.361 . S
N198 C201 1.377 . S
C199 N196 1.382 . S
C199 N197 1.371 . S
C199 C202 1.480 . S
C200 N197 1.372 . S
C200 N198 1.361 . S
C200 C208 1.457 . S
C201 N196 1.363 . S
C201 N198 1.377 . S
C201 C214 1.479 . S
C202 C199 1.480 . S
C202 C203 1.383 . S
C202 C207 1.385 . S
C203 H184 0.947 . S
C203 C202 1.383 . S
C203 C204 1.388 . S
C204 H185 0.946 . S
C204 C203 1.388 . S
C204 C205 1.384 . S
C205 C204 1.384 . S
C205 C206 1.377 . S
C206 H186 0.953 . S
C206 C205 1.377 . S
C206 C207 1.369 . S
C207 H187 0.945 . S
C207 C202 1.385 . S
C207 C206 1.369 . S
C208 C200 1.457 . S
C208 C209 1.372 . S
C208 C213 1.364 . S
C209 H188 0.952 . S
C209 C208 1.372 . S
C209 C210 1.389 . S
C210 H189 0.949 . S
C210 C209 1.389 . S
C210 C211 1.387 . S
C211 C210 1.387 . S
C211 C212 1.372 . S
C212 H190 0.950 . S
C212 C211 1.372 . S
C212 C213 1.379 . S
C213 H191 0.948 . S
C213 C208 1.364 . S
C213 C212 1.379 . S
C214 C183 1.383 . S
C214 C201 1.479 . S
C214 C215 1.398 . S
C215 C180 1.382 . S
C215 H192 0.951 . S
C215 C214 1.398 . S
C216 C217 1.384 . S
C216 H229 0.947 1_655 S
C216 C251 1.382 . S
C217 C216 1.384 . S
C217 C218 1.378 . S
C218 C217 1.378 . S
C218 C219 1.378 . S
C218 H230 0.952 . S
C219 C218 1.378 . S
C219 H231 0.950 . S
C219 C250 1.383 . S
H220 C239 0.947 . S
H221 C240 0.946 . S
H222 C242 0.953 . S
H223 C243 0.945 . S
H224 C245 0.952 . S
H225 C246 0.949 1_655 S
H226 C248 0.950 . S
H227 C249 0.948 . S
H228 C251 0.951 . S
H229 C216 0.947 1_455 S
H230 C218 0.952 . S
H231 C219 0.950 . S
N232 C235 1.382 . S
N232 C237 1.363 . S
N233 C235 1.371 . S
N233 C236 1.372 . S
N234 C236 1.361 . S
N234 C237 1.377 . S
C235 N232 1.382 . S
C235 N233 1.371 . S
C235 C238 1.480 . S
C236 N233 1.372 . S
C236 N234 1.361 . S
C236 C244 1.457 . S
C237 N232 1.363 . S
C237 N234 1.377 . S
C237 C250 1.479 . S
C238 C235 1.480 . S
C238 C239 1.383 . S
C238 C243 1.385 . S
C239 H220 0.947 . S
C239 C238 1.383 . S
C239 C240 1.388 . S
C240 H221 0.946 . S
C240 C239 1.388 . S
C240 C241 1.384 . S
C241 C240 1.384 . S
C241 C242 1.377 . S
C242 H222 0.953 . S
C242 C241 1.377 . S
C242 C243 1.369 . S
C243 H223 0.945 . S
C243 C238 1.385 . S
C243 C242 1.369 . S
C244 C236 1.457 . S
C244 C245 1.372 . S
C244 C249 1.364 1_655 S
C245 H224 0.952 . S
C245 C244 1.372 . S
C245 C246 1.389 1_655 S
C246 H225 0.949 1_455 S
C246 C245 1.389 1_455 S
C246 C247 1.387 . S
C247 C246 1.387 . S
C247 C248 1.372 . S
C248 H226 0.950 . S
C248 C247 1.372 . S
C248 C249 1.379 . S
C249 H227 0.948 . S
C249 C244 1.364 1_455 S
C249 C248 1.379 . S
C250 C219 1.383 . S
C250 C237 1.479 . S
C250 C251 1.398 . S
C251 C216 1.382 . S
C251 H228 0.951 . S
C251 C250 1.398 . S
C252 C253 1.384 . S
C252 H265 0.947 . S
C252 C287 1.382 . S
C253 C252 1.384 . S
C253 C254 1.378 . S
C254 C253 1.378 . S
C254 C255 1.378 . S
C254 H266 0.952 . S
C255 C254 1.378 . S
C255 H267 0.950 . S
C255 C286 1.383 . S
H256 C275 0.947 . S
H257 C276 0.946 . S
H258 C278 0.953 . S
H259 C279 0.945 . S
H260 C281 0.952 . S
H261 C282 0.949 . S
H262 C284 0.950 . S
H263 C285 0.948 . S
H264 C287 0.951 . S
H265 C252 0.947 . S
H266 C254 0.952 . S
H267 C255 0.950 . S
N268 C271 1.382 . S
N268 C273 1.363 . S
N269 C271 1.371 . S
N269 C272 1.372 . S
N270 C272 1.361 . S
N270 C273 1.377 . S
C271 N268 1.382 . S
C271 N269 1.371 . S
C271 C274 1.480 . S
C272 N269 1.372 . S
C272 N270 1.361 . S
C272 C280 1.457 . S
C273 N268 1.363 . S
C273 N270 1.377 . S
C273 C286 1.479 . S
C274 C271 1.480 . S
C274 C275 1.383 . S
C274 C279 1.385 . S
C275 H256 0.947 . S
C275 C274 1.383 . S
C275 C276 1.388 . S
C276 H257 0.946 . S
C276 C275 1.388 . S
C276 C277 1.384 . S
C277 C276 1.384 . S
C277 C278 1.377 . S
C278 H258 0.953 . S
C278 C277 1.377 . S
C278 C279 1.369 . S
C279 H259 0.945 . S
C279 C274 1.385 . S
C279 C278 1.369 . S
C280 C272 1.457 . S
C280 C281 1.372 . S
C280 C285 1.364 . S
C281 H260 0.952 . S
C281 C280 1.372 . S
C281 C282 1.389 . S
C282 H261 0.949 . S
C282 C281 1.389 . S
C282 C283 1.387 . S
C283 C282 1.387 . S
C283 C284 1.372 . S
C284 H262 0.950 . S
C284 C283 1.372 . S
C284 C285 1.379 . S
C285 H263 0.948 . S
C285 C280 1.364 . S
C285 C284 1.379 . S
C286 C255 1.383 . S
C286 C273 1.479 . S
C286 C287 1.398 . S
C287 C252 1.382 . S
C287 H264 0.951 . S
C287 C286 1.398 . S
C288 C289 1.384 . S
C288 H301 0.947 . S
C288 C323 1.382 . S
C289 C288 1.384 . S
C289 C290 1.378 . S
C290 C289 1.378 . S
C290 C291 1.378 . S
C290 H302 0.952 . S
C291 C290 1.378 . S
C291 H303 0.950 . S
C291 C322 1.383 . S
H292 C311 0.947 . S
H293 C312 0.946 . S
H294 C314 0.953 . S
H295 C315 0.945 . S
H296 C317 0.952 . S
H297 C318 0.949 . S
H298 C320 0.950 . S
H299 C321 0.948 . S
H300 C323 0.951 . S
H301 C288 0.947 . S
H302 C290 0.952 . S
H303 C291 0.950 . S
N304 C307 1.382 . S
N304 C309 1.363 . S
N305 C307 1.371 . S
N305 C308 1.372 . S
N306 C308 1.361 . S
N306 C309 1.377 . S
C307 N304 1.382 . S
C307 N305 1.371 . S
C307 C310 1.480 . S
C308 N305 1.372 . S
C308 N306 1.361 . S
C308 C316 1.457 . S
C309 N304 1.363 . S
C309 N306 1.377 . S
C309 C322 1.479 . S
C310 C307 1.480 . S
C310 C311 1.383 . S
C310 C315 1.385 . S
C311 H292 0.947 . S
C311 C310 1.383 . S
C311 C312 1.388 . S
C312 H293 0.946 . S
C312 C311 1.388 . S
C312 C313 1.384 . S
C313 C312 1.384 . S
C313 C314 1.377 . S
C314 H294 0.953 . S
C314 C313 1.377 . S
C314 C315 1.369 . S
C315 H295 0.945 . S
C315 C310 1.385 . S
C315 C314 1.369 . S
C316 C308 1.457 . S
C316 C317 1.372 . S
C316 C321 1.364 . S
C317 H296 0.952 . S
C317 C316 1.372 . S
C317 C318 1.389 . S
C318 H297 0.949 . S
C318 C317 1.389 . S
C318 C319 1.387 . S
C319 C318 1.387 . S
C319 C320 1.372 . S
C320 H298 0.950 . S
C320 C319 1.372 . S
C320 C321 1.379 . S
C321 H299 0.948 . S
C321 C316 1.364 . S
C321 C320 1.379 . S
C322 C291 1.383 . S
C322 C309 1.479 . S
C322 C323 1.398 . S
C323 C288 1.382 . S
C323 H300 0.951 . S
C323 C322 1.398 . S
C324 C325 1.384 . S
C324 H337 0.947 . S
C324 C359 1.382 . S
C325 C324 1.384 . S
C325 C326 1.378 . S
C326 C325 1.378 . S
C326 C327 1.378 . S
C326 H338 0.952 . S
C327 C326 1.378 . S
C327 H339 0.950 . S
C327 C358 1.383 . S
H328 C347 0.947 . S
H329 C348 0.946 1_565 S
H330 C350 0.953 . S
H331 C351 0.945 . S
H332 C353 0.952 . S
H333 C354 0.949 1_545 S
H334 C356 0.950 . S
H335 C357 0.948 . S
H336 C359 0.951 . S
H337 C324 0.947 . S
H338 C326 0.952 . S
H339 C327 0.950 . S
N340 C343 1.382 . S
N340 C345 1.363 . S
N341 C343 1.371 . S
N341 C344 1.372 . S
N342 C344 1.361 . S
N342 C345 1.377 . S
C343 N340 1.382 . S
C343 N341 1.371 . S
C343 C346 1.480 . S
C344 N341 1.372 . S
C344 N342 1.361 . S
C344 C352 1.457 . S
C345 N340 1.363 . S
C345 N342 1.377 . S
C345 C358 1.479 . S
C346 C343 1.480 . S
C346 C347 1.383 . S
C346 C351 1.385 1_565 S
C347 H328 0.947 . S
C347 C346 1.383 . S
C347 C348 1.388 1_565 S
C348 H329 0.946 1_545 S
C348 C347 1.388 1_545 S
C348 C349 1.384 . S
C349 C348 1.384 . S
C349 C350 1.377 . S
C350 H330 0.953 . S
C350 C349 1.377 . S
C350 C351 1.369 . S
C351 H331 0.945 . S
C351 C346 1.385 1_545 S
C351 C350 1.369 . S
C352 C344 1.457 . S
C352 C353 1.372 . S
C352 C357 1.364 . S
C353 H332 0.952 . S
C353 C352 1.372 . S
C353 C354 1.389 . S
C354 H333 0.949 1_565 S
C354 C353 1.389 . S
C354 C355 1.387 . S
C355 C354 1.387 . S
C355 C356 1.372 . S
C356 H334 0.950 . S
C356 C355 1.372 . S
C356 C357 1.379 . S
C357 H335 0.948 . S
C357 C352 1.364 . S
C357 C356 1.379 . S
C358 C327 1.383 . S
C358 C345 1.479 . S
C358 C359 1.398 . S
C359 C324 1.382 . S
C359 H336 0.951 . S
C359 C358 1.398 . S
C360 C361 1.384 . S
C360 H373 0.947 . S
C360 C395 1.382 . S
C361 C360 1.384 . S
C361 C362 1.378 . S
C362 C361 1.378 . S
C362 C363 1.378 . S
C362 H374 0.952 . S
C363 C362 1.378 . S
C363 H375 0.950 . S
C363 C394 1.383 . S
H364 C383 0.947 . S
H365 C384 0.946 . S
H366 C386 0.953 . S
H367 C387 0.945 . S
H368 C389 0.952 . S
H369 C390 0.949 . S
H370 C392 0.950 . S
H371 C393 0.948 . S
H372 C395 0.951 . S
H373 C360 0.947 . S
H374 C362 0.952 . S
H375 C363 0.950 . S
N376 C379 1.382 . S
N376 C381 1.363 . S
N377 C379 1.371 . S
N377 C380 1.372 . S
N378 C380 1.361 . S
N378 C381 1.377 . S
C379 N376 1.382 . S
C379 N377 1.371 . S
C379 C382 1.480 . S
C380 N377 1.372 . S
C380 N378 1.361 . S
C380 C388 1.457 . S
C381 N376 1.363 . S
C381 N378 1.377 . S
C381 C394 1.479 . S
C382 C379 1.480 . S
C382 C383 1.383 . S
C382 C387 1.385 . S
C383 H364 0.947 . S
C383 C382 1.383 . S
C383 C384 1.388 . S
C384 H365 0.946 . S
C384 C383 1.388 . S
C384 C385 1.384 . S
C385 C384 1.384 . S
C385 C386 1.377 . S
C386 H366 0.953 . S
C386 C385 1.377 . S
C386 C387 1.369 . S
C387 H367 0.945 . S
C387 C382 1.385 . S
C387 C386 1.369 . S
C388 C380 1.457 . S
C388 C389 1.372 . S
C388 C393 1.364 . S
C389 H368 0.952 . S
C389 C388 1.372 . S
C389 C390 1.389 . S
C390 H369 0.949 . S
C390 C389 1.389 . S
C390 C391 1.387 . S
C391 C390 1.387 . S
C391 C392 1.372 . S
C392 H370 0.950 . S
C392 C391 1.372 . S
C392 C393 1.379 . S
C393 H371 0.948 . S
C393 C388 1.364 . S
C393 C392 1.379 . S
C394 C363 1.383 . S
C394 C381 1.479 . S
C394 C395 1.398 . S
C395 C360 1.382 . S
C395 H372 0.951 . S
C395 C394 1.398 . S
C396 C397 1.384 . S
C396 H409 0.947 . S
C396 C431 1.382 . S
C397 C396 1.384 . S
C397 C398 1.378 . S
C398 C397 1.378 . S
C398 C399 1.378 . S
C398 H410 0.952 . S
C399 C398 1.378 . S
C399 H411 0.950 . S
C399 C430 1.383 . S
H400 C419 0.947 . S
H401 C420 0.946 . S
H402 C422 0.953 . S
H403 C423 0.945 . S
H404 C425 0.952 . S
H405 C426 0.949 . S
H406 C428 0.950 . S
H407 C429 0.948 . S
H408 C431 0.951 . S
H409 C396 0.947 . S
H410 C398 0.952 . S
H411 C399 0.950 . S
N412 C415 1.382 . S
N412 C417 1.363 . S
N413 C415 1.371 . S
N413 C416 1.372 . S
N414 C416 1.361 . S
N414 C417 1.377 . S
C415 N412 1.382 . S
C415 N413 1.371 . S
C415 C418 1.480 . S
C416 N413 1.372 . S
C416 N414 1.361 . S
C416 C424 1.457 . S
C417 N412 1.363 . S
C417 N414 1.377 . S
C417 C430 1.479 . S
C418 C415 1.480 . S
C418 C419 1.383 . S
C418 C423 1.385 . S
C419 H400 0.947 . S
C419 C418 1.383 . S
C419 C420 1.388 . S
C420 H401 0.946 . S
C420 C419 1.388 . S
C420 C421 1.384 . S
C421 C420 1.384 . S
C421 C422 1.377 . S
C422 H402 0.953 . S
C422 C421 1.377 . S
C422 C423 1.369 . S
C423 H403 0.945 . S
C423 C418 1.385 . S
C423 C422 1.369 . S
C424 C416 1.457 . S
C424 C425 1.372 . S
C424 C429 1.364 . S
C425 H404 0.952 . S
C425 C424 1.372 . S
C425 C426 1.389 . S
C426 H405 0.949 . S
C426 C425 1.389 . S
C426 C427 1.387 . S
C427 C426 1.387 . S
C427 C428 1.372 . S
C428 H406 0.950 . S
C428 C427 1.372 . S
C428 C429 1.379 . S
C429 H407 0.948 . S
C429 C424 1.364 . S
C429 C428 1.379 . S
C430 C399 1.383 . S
C430 C417 1.479 . S
C430 C431 1.398 . S
C431 C396 1.382 . S
C431 H408 0.951 . S
C431 C430 1.398 . S
C432 C433 1.384 . S
C432 H445 0.947 . S
C432 C467 1.382 . S
C433 C432 1.384 . S
C433 C434 1.378 . S
C434 C433 1.378 . S
C434 C435 1.378 . S
C434 H446 0.952 . S
C435 C434 1.378 . S
C435 H447 0.950 . S
C435 C466 1.383 . S
H436 C455 0.947 . S
H437 C456 0.946 . S
H438 C458 0.953 . S
H439 C459 0.945 . S
H440 C461 0.952 . S
H441 C462 0.949 . S
H442 C464 0.950 . S
H443 C465 0.948 . S
H444 C467 0.951 . S
H445 C432 0.947 . S
H446 C434 0.952 . S
H447 C435 0.950 . S
N448 C451 1.382 . S
N448 C453 1.363 . S
N449 C451 1.371 . S
N449 C452 1.372 . S
N450 C452 1.361 . S
N450 C453 1.377 . S
C451 N448 1.382 . S
C451 N449 1.371 . S
C451 C454 1.480 . S
C452 N449 1.372 . S
C452 N450 1.361 . S
C452 C460 1.457 . S
C453 N448 1.363 . S
C453 N450 1.377 . S
C453 C466 1.479 . S
C454 C451 1.480 . S
C454 C455 1.383 . S
C454 C459 1.385 . S
C455 H436 0.947 . S
C455 C454 1.383 . S
C455 C456 1.388 . S
C456 H437 0.946 . S
C456 C455 1.388 . S
C456 C457 1.384 . S
C457 C456 1.384 . S
C457 C458 1.377 . S
C458 H438 0.953 . S
C458 C457 1.377 . S
C458 C459 1.369 . S
C459 H439 0.945 . S
C459 C454 1.385 . S
C459 C458 1.369 . S
C460 C452 1.457 . S
C460 C461 1.372 . S
C460 C465 1.364 . S
C461 H440 0.952 . S
C461 C460 1.372 . S
C461 C462 1.389 . S
C462 H441 0.949 . S
C462 C461 1.389 . S
C462 C463 1.387 . S
C463 C462 1.387 . S
C463 C464 1.372 . S
C464 H442 0.950 . S
C464 C463 1.372 . S
C464 C465 1.379 . S
C465 H443 0.948 . S
C465 C460 1.364 . S
C465 C464 1.379 . S
C466 C435 1.383 . S
C466 C453 1.479 . S
C466 C467 1.398 . S
C467 C432 1.382 . S
C467 H444 0.951 . S
C467 C466 1.398 . S
C468 C469 1.384 . S
C468 H481 0.947 . S
C468 C503 1.382 . S
C469 C468 1.384 . S
C469 C470 1.373 1_554 S
C470 C469 1.373 1_556 S
C470 C471 1.383 . S
C470 H482 0.953 . S
C471 C470 1.383 . S
C471 H483 0.950 . S
C471 C502 1.383 . S
H472 C491 0.947 . S
H473 C492 0.946 . S
H474 C494 0.953 . S
H475 C495 0.945 . S
H476 C497 0.952 . S
H477 C498 0.949 . S
H478 C500 0.950 1_554 S
H479 C501 0.948 . S
H480 C503 0.951 . S
H481 C468 0.947 . S
H482 C470 0.953 . S
H483 C471 0.950 . S
N484 C487 1.382 . S
N484 C489 1.363 . S
N485 C487 1.371 . S
N485 C488 1.372 . S
N486 C488 1.361 . S
N486 C489 1.377 . S
C487 N484 1.382 . S
C487 N485 1.371 . S
C487 C490 1.480 . S
C488 N485 1.372 . S
C488 N486 1.361 . S
C488 C496 1.457 . S
C489 N484 1.363 . S
C489 N486 1.377 . S
C489 C502 1.479 . S
C490 C487 1.480 . S
C490 C491 1.383 . S
C490 C495 1.385 . S
C491 H472 0.947 . S
C491 C490 1.383 . S
C491 C492 1.388 . S
C492 H473 0.946 . S
C492 C491 1.388 . S
C492 C493 1.384 . S
C493 C492 1.384 . S
C493 C494 1.377 . S
C494 H474 0.953 . S
C494 C493 1.377 . S
C494 C495 1.369 . S
C495 H475 0.945 . S
C495 C490 1.385 . S
C495 C494 1.369 . S
C496 C488 1.457 . S
C496 C497 1.372 . S
C496 C501 1.364 . S
C497 H476 0.952 . S
C497 C496 1.372 . S
C497 C498 1.389 . S
C498 H477 0.949 . S
C498 C497 1.389 . S
C498 C499 1.387 . S
C499 C498 1.387 . S
C499 C500 1.372 . S
C500 H478 0.950 1_556 S
C500 C499 1.372 . S
C500 C501 1.379 . S
C501 H479 0.948 . S
C501 C496 1.364 . S
C501 C500 1.379 . S
C502 C471 1.383 . S
C502 C489 1.479 . S
C502 C503 1.398 1_556 S
C503 C468 1.382 . S
C503 H480 0.951 . S
C503 C502 1.398 1_554 S
C504 C505 1.384 . S
C504 H517 0.947 . S
C504 C539 1.382 . S
C505 C504 1.384 . S
C505 C506 1.378 . S
C506 C505 1.378 . S
C506 C507 1.378 . S
C506 H518 0.952 . S
C507 C506 1.378 . S
C507 H519 0.950 . S
C507 C538 1.383 . S
H508 C527 0.947 . S
H509 C528 0.946 . S
H510 C530 0.953 . S
H511 C531 0.945 . S
H512 C533 0.952 . S
H513 C534 0.949 . S
H514 C536 0.950 . S
H515 C537 0.948 . S
H516 C539 0.951 . S
H517 C504 0.947 . S
H518 C506 0.952 . S
H519 C507 0.950 . S
N520 C523 1.382 . S
N520 C525 1.363 . S
N521 C523 1.371 . S
N521 C524 1.372 . S
N522 C524 1.361 . S
N522 C525 1.377 . S
C523 N520 1.382 . S
C523 N521 1.371 . S
C523 C526 1.480 . S
C524 N521 1.372 . S
C524 N522 1.361 . S
C524 C532 1.457 . S
C525 N520 1.363 . S
C525 N522 1.377 . S
C525 C538 1.479 . S
C526 C523 1.480 . S
C526 C527 1.383 . S
C526 C531 1.385 . S
C527 H508 0.947 . S
C527 C526 1.383 . S
C527 C528 1.388 . S
C528 H509 0.946 . S
C528 C527 1.388 . S
C528 C529 1.384 . S
C529 C528 1.384 . S
C529 C530 1.377 . S
C530 H510 0.953 . S
C530 C529 1.377 . S
C530 C531 1.369 . S
C531 H511 0.945 . S
C531 C526 1.385 . S
C531 C530 1.369 . S
C532 C524 1.457 . S
C532 C533 1.372 . S
C532 C537 1.364 . S
C533 H512 0.952 . S
C533 C532 1.372 . S
C533 C534 1.389 . S
C534 H513 0.949 . S
C534 C533 1.389 . S
C534 C535 1.387 . S
C535 C534 1.387 . S
C535 C536 1.372 . S
C536 H514 0.950 . S
C536 C535 1.372 . S
C536 C537 1.379 . S
C537 H515 0.948 . S
C537 C532 1.364 . S
C537 C536 1.379 . S
C538 C507 1.383 . S
C538 C525 1.479 . S
C538 C539 1.398 . S
C539 C504 1.382 . S
C539 H516 0.951 . S
C539 C538 1.398 . S
C540 C541 1.384 1_556 S
C540 H553 0.947 . S
C540 C575 1.382 . S
C541 C540 1.384 1_554 S
C541 C542 1.378 . S
C542 C541 1.378 . S
C542 C543 1.378 . S
C542 H554 0.952 . S
C543 C542 1.378 . S
C543 H555 0.950 . S
C543 C574 1.383 1_554 S
H544 C563 0.947 . S
H545 C564 0.946 . S
H546 C566 0.953 . S
H547 C567 0.945 . S
H548 C569 0.952 . S
H549 C570 0.949 . S
H550 C572 0.950 . S
H551 C573 0.948 . S
H552 C575 0.951 . S
H553 C540 0.947 . S
H554 C542 0.952 . S
H555 C543 0.950 . S
N556 C559 1.382 . S
N556 C561 1.363 . S
N557 C559 1.371 . S
N557 C560 1.372 . S
N558 C560 1.361 . S
N558 C561 1.377 . S
C559 N556 1.382 . S
C559 N557 1.371 . S
C559 C562 1.480 . S
C560 N557 1.372 . S
C560 N558 1.361 . S
C560 C568 1.457 . S
C561 N556 1.363 . S
C561 N558 1.377 . S
C561 C574 1.479 . S
C562 C559 1.480 . S
C562 C563 1.383 . S
C562 C567 1.385 1_545 S
C563 H544 0.947 . S
C563 C562 1.383 . S
C563 C564 1.388 . S
C564 H545 0.946 . S
C564 C563 1.388 . S
C564 C565 1.384 1_545 S
C565 C564 1.384 1_565 S
C565 C566 1.377 . S
C566 H546 0.953 . S
C566 C565 1.377 . S
C566 C567 1.369 . S
C567 H547 0.945 . S
C567 C562 1.385 1_565 S
C567 C566 1.369 . S
C568 C560 1.457 . S
C568 C569 1.372 . S
C568 C573 1.364 . S
C569 H548 0.952 . S
C569 C568 1.372 . S
C569 C570 1.389 . S
C570 H549 0.949 . S
C570 C569 1.389 . S
C570 C571 1.387 . S
C571 C570 1.387 . S
C571 C572 1.372 . S
C572 H550 0.950 . S
C572 C571 1.372 . S
C572 C573 1.379 . S
C573 H551 0.948 . S
C573 C568 1.364 . S
C573 C572 1.379 . S
C574 C543 1.383 1_556 S
C574 C561 1.479 . S
C574 C575 1.398 . S
C575 C540 1.382 . S
C575 H552 0.951 . S
C575 C574 1.398 . S
Zn576 O579 2.030 . S
Zn576 O581 2.050 1_554 S
Zn576 O586 2.069 1_554 S
Zn577 O578 1.962 . S
Zn577 O580 1.986 . S
Zn577 O582 1.996 . S
Zn577 O585 1.943 1_554 S
O578 Zn577 1.962 . S
O578 C583 1.254 . S
O579 Zn576 2.030 . S
O579 C583 1.269 . S
O580 Zn577 1.986 . S
O580 C587 1.262 . S
O581 Zn576 2.050 1_556 S
O581 C589 1.260 . S
O582 Zn577 1.996 . S
O582 C589 1.257 1_554 S
C583 O578 1.254 . S
C583 O579 1.269 . S
C584 O585 1.249 . S
C584 O586 1.270 . S
O585 Zn577 1.943 1_556 S
O585 C584 1.249 . S
O586 Zn576 2.069 1_556 S
O586 C584 1.270 . S
C587 O580 1.262 . S
C587 O588 1.232 . S
O588 C587 1.232 . S
C589 O581 1.260 . S
C589 O582 1.257 1_556 S
Zn590 O593 2.031 . S
Zn590 O595 2.049 . S
Zn590 O600 2.067 . S
Zn591 O592 1.962 . S
Zn591 O594 1.986 . S
Zn591 O596 1.996 . S
Zn591 O599 1.943 . S
O592 Zn591 1.962 . S
O592 C597 1.254 . S
O593 Zn590 2.031 . S
O593 C597 1.269 . S
O594 Zn591 1.986 . S
O594 C601 1.262 . S
O595 Zn590 2.049 . S
O595 C603 1.260 . S
O596 Zn591 1.996 . S
O596 C603 1.257 . S
C597 O592 1.254 . S
C597 O593 1.269 . S
C598 O599 1.249 . S
C598 O600 1.270 . S
O599 Zn591 1.943 . S
O599 C598 1.249 . S
O600 Zn590 2.067 . S
O600 C598 1.270 . S
C601 O594 1.262 . S
C601 O602 1.232 . S
O602 C601 1.232 . S
C603 O595 1.260 . S
C603 O596 1.257 . S
Zn604 O607 2.031 . S
Zn604 O609 2.049 . S
Zn604 O614 2.067 . S
Zn605 O606 1.962 . S
Zn605 O608 1.986 . S
Zn605 O610 1.996 1_554 S
Zn605 O613 1.943 . S
O606 Zn605 1.962 . S
O606 C611 1.254 . S
O607 Zn604 2.031 . S
O607 C611 1.269 1_556 S
O608 Zn605 1.986 . S
O608 C615 1.262 . S
O609 Zn604 2.049 . S
O609 C617 1.260 . S
O610 Zn605 1.996 1_556 S
O610 C617 1.257 . S
C611 O606 1.254 . S
C611 O607 1.269 1_554 S
C612 O613 1.249 1_556 S
C612 O614 1.270 . S
O613 Zn605 1.943 . S
O613 C612 1.249 1_554 S
O614 Zn604 2.067 . S
O614 C612 1.270 . S
C615 O608 1.262 . S
C615 O616 1.232 . S
O616 C615 1.232 . S
C617 O609 1.260 . S
C617 O610 1.257 . S
Zn618 O621 2.029 1_565 S
Zn618 O623 2.051 . S
Zn618 O628 2.070 . S
Zn619 O620 1.962 . S
Zn619 O622 1.986 . S
Zn619 O624 1.996 . S
Zn619 O627 1.943 1_545 S
O620 Zn619 1.962 . S
O620 C625 1.254 . S
O621 Zn618 2.029 1_545 S
O621 C625 1.269 . S
O622 Zn619 1.986 . S
O622 C629 1.262 . S
O623 Zn618 2.051 . S
O623 C631 1.260 . S
O624 Zn619 1.996 . S
O624 C631 1.257 1_545 S
C625 O620 1.254 . S
C625 O621 1.269 . S
C626 O627 1.249 . S
C626 O628 1.270 . S
O627 Zn619 1.943 1_565 S
O627 C626 1.249 . S
O628 Zn618 2.070 . S
O628 C626 1.270 . S
C629 O622 1.262 . S
C629 O630 1.232 . S
O630 C629 1.232 . S
C631 O623 1.260 . S
C631 O624 1.257 1_565 S
Zn632 O635 2.031 . S
Zn632 O637 2.049 . S
Zn632 O642 2.067 . S
Zn633 O634 1.962 . S
Zn633 O636 1.986 . S
Zn633 O638 1.996 . S
Zn633 O641 1.943 . S
O634 Zn633 1.962 . S
O634 C639 1.254 . S
O635 Zn632 2.031 . S
O635 C639 1.269 . S
O636 Zn633 1.986 . S
O636 C643 1.262 . S
O637 Zn632 2.049 . S
O637 C645 1.260 . S
O638 Zn633 1.996 . S
O638 C645 1.257 . S
C639 O634 1.254 . S
C639 O635 1.269 . S
C640 O641 1.249 . S
C640 O642 1.270 . S
O641 Zn633 1.943 . S
O641 C640 1.249 . S
O642 Zn632 2.067 . S
O642 C640 1.270 . S
C643 O636 1.262 . S
C643 O644 1.232 . S
O644 C643 1.232 . S
C645 O637 1.260 . S
C645 O638 1.257 . S
Zn646 O649 2.031 . S
Zn646 O651 2.049 . S
Zn646 O656 2.067 . S
Zn647 O648 1.962 . S
Zn647 O650 1.986 . S
Zn647 O652 1.996 . S
Zn647 O655 1.943 . S
O648 Zn647 1.962 . S
O648 C653 1.254 . S
O649 Zn646 2.031 . S
O649 C653 1.269 . S
O650 Zn647 1.986 . S
O650 C657 1.262 . S
O651 Zn646 2.049 . S
O651 C659 1.260 . S
O652 Zn647 1.996 . S
O652 C659 1.257 . S
C653 O648 1.254 . S
C653 O649 1.269 . S
C654 O655 1.249 . S
C654 O656 1.270 . S
O655 Zn647 1.943 . S
O655 C654 1.249 . S
O656 Zn646 2.067 . S
O656 C654 1.270 . S
C657 O650 1.262 . S
C657 O658 1.232 . S
O658 C657 1.232 . S
C659 O651 1.260 . S
C659 O652 1.257 . S
Zn660 O663 2.031 . S
Zn660 O665 2.049 . S
Zn660 O670 2.067 . S
Zn661 O662 1.962 . S
Zn661 O664 1.986 . S
Zn661 O666 1.996 . S
Zn661 O669 1.943 . S
O662 Zn661 1.962 . S
O662 C667 1.254 . S
O663 Zn660 2.031 . S
O663 C667 1.269 . S
O664 Zn661 1.986 . S
O664 C671 1.262 . S
O665 Zn660 2.049 . S
O665 C673 1.260 . S
O666 Zn661 1.996 . S
O666 C673 1.257 . S
C667 O662 1.254 . S
C667 O663 1.269 . S
C668 O669 1.249 . S
C668 O670 1.270 . S
O669 Zn661 1.943 . S
O669 C668 1.249 . S
O670 Zn660 2.067 . S
O670 C668 1.270 . S
C671 O664 1.262 . S
C671 O672 1.232 . S
O672 C671 1.232 . S
C673 O665 1.260 . S
C673 O666 1.257 . S
Zn674 O677 2.031 . S
Zn674 O679 2.049 . S
Zn674 O684 2.067 . S
Zn675 O676 1.962 . S
Zn675 O678 1.986 . S
Zn675 O680 1.996 1_545 S
Zn675 O683 1.943 . S
O676 Zn675 1.962 . S
O676 C681 1.254 . S
O677 Zn674 2.031 . S
O677 C681 1.269 1_565 S
O678 Zn675 1.986 . S
O678 C685 1.262 . S
O679 Zn674 2.049 . S
O679 C687 1.260 . S
O680 Zn675 1.996 1_565 S
O680 C687 1.257 . S
C681 O676 1.254 . S
C681 O677 1.269 1_545 S
C682 O683 1.249 1_565 S
C682 O684 1.270 . S
O683 Zn675 1.943 . S
O683 C682 1.249 1_545 S
O684 Zn674 2.067 . S
O684 C682 1.270 . S
C685 O678 1.262 . S
C685 O686 1.232 . S
O686 C685 1.232 . S
C687 O679 1.260 . S
C687 O680 1.257 . S
Zn688 O691 2.021 1_655 S
Zn688 O693 2.057 . S
Zn688 O698 2.082 . S
Zn689 O690 1.962 . S
Zn689 O692 1.986 . S
Zn689 O694 1.996 . S
Zn689 O697 1.943 1_455 S
O690 Zn689 1.962 . S
O690 C695 1.254 . S
O691 Zn688 2.021 1_455 S
O691 C695 1.269 . S
O692 Zn689 1.986 . S
O692 C699 1.262 . S
O693 Zn688 2.057 . S
O693 C701 1.260 . S
O694 Zn689 1.996 . S
O694 C701 1.257 1_455 S
C695 O690 1.254 . S
C695 O691 1.269 . S
C696 O697 1.249 . S
C696 O698 1.270 . S
O697 Zn689 1.943 1_655 S
O697 C696 1.249 . S
O698 Zn688 2.082 . S
O698 C696 1.270 . S
C699 O692 1.262 . S
C699 O700 1.232 . S
O700 C699 1.232 . S
C701 O693 1.260 . S
C701 O694 1.257 1_655 S
Zn702 O705 2.031 . S
Zn702 O707 2.049 . S
Zn702 O712 2.067 . S
Zn703 O704 1.962 . S
Zn703 O706 1.986 . S
Zn703 O708 1.996 . S
Zn703 O711 1.943 . S
O704 Zn703 1.962 . S
O704 C709 1.254 . S
O705 Zn702 2.031 . S
O705 C709 1.269 . S
O706 Zn703 1.986 . S
O706 C713 1.262 . S
O707 Zn702 2.049 . S
O707 C715 1.260 . S
O708 Zn703 1.996 . S
O708 C715 1.257 . S
C709 O704 1.254 . S
C709 O705 1.269 . S
C710 O711 1.249 . S
C710 O712 1.270 . S
O711 Zn703 1.943 . S
O711 C710 1.249 . S
O712 Zn702 2.067 . S
O712 C710 1.270 . S
C713 O706 1.262 . S
C713 O714 1.232 . S
O714 C713 1.232 . S
C715 O707 1.260 . S
C715 O708 1.257 . S
Zn716 O719 2.031 . S
Zn716 O721 2.049 . S
Zn716 O726 2.067 . S
Zn717 O718 1.962 . S
Zn717 O720 1.986 . S
Zn717 O722 1.996 1_455 S
Zn717 O725 1.943 . S
O718 Zn717 1.962 . S
O718 C723 1.254 . S
O719 Zn716 2.031 . S
O719 C723 1.269 1_655 S
O720 Zn717 1.986 . S
O720 C727 1.262 . S
O721 Zn716 2.049 . S
O721 C729 1.260 . S
O722 Zn717 1.996 1_655 S
O722 C729 1.257 . S
C723 O718 1.254 . S
C723 O719 1.269 1_455 S
C724 O725 1.249 1_655 S
C724 O726 1.270 . S
O725 Zn717 1.943 . S
O725 C724 1.249 1_455 S
O726 Zn716 2.067 . S
O726 C724 1.270 . S
C727 O720 1.262 . S
C727 O728 1.232 . S
O728 C727 1.232 . S
C729 O721 1.260 . S
C729 O722 1.257 . S
Zn730 O733 2.031 . S
Zn730 O735 2.049 . S
Zn730 O740 2.067 . S
Zn731 O732 1.962 . S
Zn731 O734 1.986 . S
Zn731 O736 1.996 . S
Zn731 O739 1.943 . S
O732 Zn731 1.962 . S
O732 C737 1.254 . S
O733 Zn730 2.031 . S
O733 C737 1.269 . S
O734 Zn731 1.986 . S
O734 C741 1.262 . S
O735 Zn730 2.049 . S
O735 C743 1.260 . S
O736 Zn731 1.996 . S
O736 C743 1.257 . S
C737 O732 1.254 . S
C737 O733 1.269 . S
C738 O739 1.249 . S
C738 O740 1.270 . S
O739 Zn731 1.943 . S
O739 C738 1.249 . S
O740 Zn730 2.067 . S
O740 C738 1.270 . S
C741 O734 1.262 . S
C741 O742 1.232 . S
O742 C741 1.232 . S
C743 O735 1.260 . S
C743 O736 1.257 . S
C744 C745 1.387 . S
C744 H748 0.950 . S
C744 C753 1.390 . S
C745 C744 1.387 . S
C745 C747 1.387 . S
H746 C753 0.950 . S
C747 C745 1.387 . S
C747 C749 1.390 . S
C747 H751 0.950 . S
H748 C744 0.950 . S
C749 C747 1.390 . S
C749 C750 1.387 . S
C749 H752 0.950 . S
C750 C749 1.387 . S
C750 C753 1.387 . S
H751 C747 0.950 . S
H752 C749 0.950 . S
C753 C744 1.390 . S
C753 H746 0.950 . S
C753 C750 1.387 . S
C754 C755 1.387 . S
C754 H758 0.950 . S
C754 C763 1.390 . S
C755 C754 1.387 . S
C755 C757 1.387 . S
H756 C763 0.950 . S
C757 C755 1.387 . S
C757 C759 1.390 . S
C757 H761 0.950 . S
H758 C754 0.950 . S
C759 C757 1.390 . S
C759 C760 1.387 . S
C759 H762 0.950 . S
C760 C759 1.387 . S
C760 C763 1.387 . S
H761 C757 0.950 . S
H762 C759 0.950 . S
C763 C754 1.390 . S
C763 H756 0.950 . S
C763 C760 1.387 . S
C764 C765 1.387 . S
C764 H768 0.950 . S
C764 C773 1.390 . S
C765 C764 1.387 . S
C765 C767 1.387 . S
H766 C773 0.950 . S
C767 C765 1.387 . S
C767 C769 1.390 . S
C767 H771 0.950 . S
H768 C764 0.950 . S
C769 C767 1.390 . S
C769 C770 1.387 . S
C769 H772 0.950 . S
C770 C769 1.387 . S
C770 C773 1.387 . S
H771 C767 0.950 . S
H772 C769 0.950 . S
C773 C764 1.390 . S
C773 H766 0.950 . S
C773 C770 1.387 . S
C774 C775 1.387 . S
C774 H778 0.950 . S
C774 C783 1.390 . S
C775 C774 1.387 . S
C775 C777 1.387 . S
H776 C783 0.950 . S
C777 C775 1.387 . S
C777 C779 1.390 1_565 S
C777 H781 0.950 1_565 S
H778 C774 0.950 . S
C779 C777 1.390 1_545 S
C779 C780 1.387 1_545 S
C779 H782 0.950 . S
C780 C779 1.387 1_565 S
C780 C783 1.387 . S
H781 C777 0.950 1_545 S
H782 C779 0.950 . S
C783 C774 1.390 . S
C783 H776 0.950 . S
C783 C780 1.387 . S
C784 C785 1.387 . S
C784 H788 0.950 . S
C784 C793 1.390 . S
C785 C784 1.387 . S
C785 C787 1.387 . S
H786 C793 0.950 . S
C787 C785 1.387 . S
C787 C789 1.390 . S
C787 H791 0.950 . S
H788 C784 0.950 . S
C789 C787 1.390 . S
C789 C790 1.387 . S
C789 H792 0.950 . S
C790 C789 1.387 . S
C790 C793 1.387 . S
H791 C787 0.950 . S
H792 C789 0.950 . S
C793 C784 1.390 . S
C793 H786 0.950 . S
C793 C790 1.387 . S
C794 C795 1.387 . S
C794 H798 0.950 . S
C794 C803 1.390 . S
C795 C794 1.387 . S
C795 C797 1.387 . S
H796 C803 0.950 . S
C797 C795 1.387 . S
C797 C799 1.390 . S
C797 H801 0.950 . S
H798 C794 0.950 . S
C799 C797 1.390 . S
C799 C800 1.387 . S
C799 H802 0.950 . S
C800 C799 1.387 . S
C800 C803 1.387 . S
H801 C797 0.950 . S
H802 C799 0.950 . S
C803 C794 1.390 . S
C803 H796 0.950 . S
C803 C800 1.387 . S
C804 C805 1.387 . S
C804 H808 0.950 . S
C804 C813 1.390 . S
C805 C804 1.387 . S
C805 C807 1.387 . S
H806 C813 0.950 . S
C807 C805 1.387 . S
C807 C809 1.390 . S
C807 H811 0.950 . S
H808 C804 0.950 . S
C809 C807 1.390 . S
C809 C810 1.387 . S
C809 H812 0.950 . S
C810 C809 1.387 . S
C810 C813 1.387 . S
H811 C807 0.950 . S
H812 C809 0.950 . S
C813 C804 1.390 . S
C813 H806 0.950 . S
C813 C810 1.387 . S
C814 C815 1.387 . S
C814 H818 0.950 . S
C814 C823 1.390 . S
C815 C814 1.387 . S
C815 C817 1.387 . S
H816 C823 0.950 . S
C817 C815 1.387 . S
C817 C819 1.390 . S
C817 H821 0.950 . S
H818 C814 0.950 . S
C819 C817 1.390 . S
C819 C820 1.387 . S
C819 H822 0.951 . S
C820 C819 1.387 . S
C820 C823 1.387 . S
H821 C817 0.950 . S
H822 C819 0.951 . S
C823 C814 1.390 . S
C823 H816 0.950 . S
C823 C820 1.387 . S
C824 C825 1.387 . S
C824 H828 0.950 . S
C824 C833 1.390 . S
C825 C824 1.387 . S
C825 C827 1.387 . S
H826 C833 0.950 . S
C827 C825 1.387 . S
C827 C829 1.390 . S
C827 H831 0.950 . S
H828 C824 0.950 . S
C829 C827 1.390 . S
C829 C830 1.387 . S
C829 H832 0.950 . S
C830 C829 1.387 . S
C830 C833 1.387 . S
H831 C827 0.950 . S
H832 C829 0.950 . S
C833 C824 1.390 . S
C833 H826 0.950 . S
C833 C830 1.387 . S
C834 C835 1.387 . S
C834 H838 0.950 . S
C834 C843 1.390 . S
C835 C834 1.387 . S
C835 C837 1.387 . S
H836 C843 0.950 . S
C837 C835 1.387 . S
C837 C839 1.390 . S
C837 H841 0.950 . S
H838 C834 0.950 . S
C839 C837 1.390 . S
C839 C840 1.387 . S
C839 H842 0.950 . S
C840 C839 1.387 . S
C840 C843 1.387 . S
H841 C837 0.950 . S
H842 C839 0.950 . S
C843 C834 1.390 . S
C843 H836 0.950 . S
C843 C840 1.387 . S
C844 C845 1.387 . S
C844 H848 0.950 . S
C844 C853 1.390 . S
C845 C844 1.387 . S
C845 C847 1.387 . S
H846 C853 0.950 . S
C847 C845 1.387 . S
C847 C849 1.390 . S
C847 H851 0.950 . S
H848 C844 0.950 . S
C849 C847 1.390 . S
C849 C850 1.387 . S
C849 H852 0.950 . S
C850 C849 1.387 . S
C850 C853 1.387 . S
H851 C847 0.950 . S
H852 C849 0.950 . S
C853 C844 1.390 . S
C853 H846 0.950 . S
C853 C850 1.387 . S
C854 C855 1.387 . S
C854 H858 0.950 . S
C854 C863 1.390 . S
C855 C854 1.387 . S
C855 C857 1.387 . S
H856 C863 0.950 . S
C857 C855 1.387 . S
C857 C859 1.390 . S
C857 H861 0.950 . S
H858 C854 0.950 . S
C859 C857 1.390 . S
C859 C860 1.387 . S
C859 H862 0.950 . S
C860 C859 1.387 . S
C860 C863 1.387 . S
H861 C857 0.950 . S
H862 C859 0.950 . S
C863 C854 1.390 . S
C863 H856 0.950 . S
C863 C860 1.387 . S
C864 C865 1.387 . S
C864 H868 0.950 . S
C864 C873 1.390 . S
C865 C864 1.387 . S
C865 C867 1.387 . S
H866 C873 0.950 . S
C867 C865 1.387 . S
C867 C869 1.390 . S
C867 H871 0.950 . S
H868 C864 0.950 . S
C869 C867 1.390 . S
C869 C870 1.387 . S
C869 H872 0.950 . S
C870 C869 1.387 . S
C870 C873 1.387 . S
H871 C867 0.950 . S
H872 C869 0.950 . S
C873 C864 1.390 . S
C873 H866 0.950 . S
C873 C870 1.387 . S
C874 C875 1.387 . S
C874 H878 0.950 1_455 S
C874 C883 1.390 . S
C875 C874 1.387 . S
C875 C877 1.387 . S
H876 C883 0.950 1_655 S
C877 C875 1.387 . S
C877 C879 1.390 . S
C877 H881 0.950 . S
H878 C874 0.950 1_655 S
C879 C877 1.390 . S
C879 C880 1.387 . S
C879 H882 0.950 . S
C880 C879 1.387 . S
C880 C883 1.387 . S
H881 C877 0.950 . S
H882 C879 0.950 . S
C883 C874 1.390 . S
C883 H876 0.950 1_455 S
C883 C880 1.387 . S
C884 C885 1.387 . S
C884 H888 0.950 . S
C884 C893 1.390 . S
C885 C884 1.387 . S
C885 C887 1.387 . S
H886 C893 0.950 . S
C887 C885 1.387 . S
C887 C889 1.390 . S
C887 H891 0.950 . S
H888 C884 0.950 . S
C889 C887 1.390 . S
C889 C890 1.387 . S
C889 H892 0.950 . S
C890 C889 1.387 . S
C890 C893 1.387 . S
H891 C887 0.950 . S
H892 C889 0.950 . S
C893 C884 1.390 . S
C893 H886 0.950 . S
C893 C890 1.387 . S
C894 C895 1.387 . S
C894 H898 0.950 . S
C894 C903 1.390 . S
C895 C894 1.387 . S
C895 C897 1.387 . S
H896 C903 0.950 . S
C897 C895 1.387 . S
C897 C899 1.390 1_655 S
C897 H901 0.950 1_655 S
H898 C894 0.950 . S
C899 C897 1.390 1_455 S
C899 C900 1.387 1_455 S
C899 H902 0.950 . S
C900 C899 1.387 1_655 S
C900 C903 1.387 . S
H901 C897 0.950 1_455 S
H902 C899 0.950 . S
C903 C894 1.390 . S
C903 H896 0.950 . S
C903 C900 1.387 . S
C904 C905 1.387 . S
C904 H908 0.950 . S
C904 C913 1.390 . S
C905 C904 1.387 . S
C905 C907 1.387 . S
H906 C913 0.950 . S
C907 C905 1.387 . S
C907 C909 1.390 . S
C907 H911 0.950 . S
H908 C904 0.950 . S
C909 C907 1.390 . S
C909 C910 1.387 . S
C909 H912 0.950 . S
C910 C909 1.387 . S
C910 C913 1.387 . S
H911 C907 0.950 . S
H912 C909 0.950 . S
C913 C904 1.390 . S
C913 H906 0.950 . S
C913 C910 1.387 . S
C914 C915 1.387 . S
C914 H918 0.950 . S
C914 C923 1.390 . S
C915 C914 1.387 . S
C915 C917 1.387 . S
H916 C923 0.950 . S
C917 C915 1.387 . S
C917 C919 1.390 . S
C917 H921 0.950 . S
H918 C914 0.950 . S
C919 C917 1.390 . S
C919 C920 1.387 . S
C919 H922 0.950 . S
C920 C919 1.387 . S
C920 C923 1.387 . S
H921 C917 0.950 . S
H922 C919 0.950 . S
C923 C914 1.390 . S
C923 H916 0.950 . S
C923 C920 1.387 . S
C924 C925 1.387 . S
C924 H928 0.950 1_556 S
C924 C933 1.390 1_556 S
C925 C924 1.387 . S
C925 C927 1.387 . S
H926 C933 0.950 . S
C927 C925 1.387 . S
C927 C929 1.390 . S
C927 H931 0.950 . S
H928 C924 0.950 1_554 S
C929 C927 1.390 . S
C929 C930 1.387 . S
C929 H932 0.950 . S
C930 C929 1.387 . S
C930 C933 1.387 1_556 S
H931 C927 0.950 . S
H932 C929 0.950 . S
C933 C924 1.390 1_554 S
C933 H926 0.950 . S
C933 C930 1.387 1_554 S
C934 C935 1.387 . S
C934 H938 0.950 . S
C934 C943 1.390 . S
C935 C934 1.387 . S
C935 C937 1.387 . S
H936 C943 0.950 . S
C937 C935 1.387 . S
C937 C939 1.390 . S
C937 H941 0.950 . S
H938 C934 0.950 . S
C939 C937 1.390 . S
C939 C940 1.387 . S
C939 H942 0.950 . S
C940 C939 1.387 . S
C940 C943 1.387 . S
H941 C937 0.950 . S
H942 C939 0.950 . S
C943 C934 1.390 . S
C943 H936 0.950 . S
C943 C940 1.387 . S
C944 C945 1.387 . S
C944 H948 0.950 . S
C944 C953 1.390 . S
C945 C944 1.387 . S
C945 C947 1.387 . S
H946 C953 0.950 . S
C947 C945 1.387 . S
C947 C949 1.390 . S
C947 H951 0.950 . S
H948 C944 0.950 . S
C949 C947 1.390 . S
C949 C950 1.387 . S
C949 H952 0.950 . S
C950 C949 1.387 . S
C950 C953 1.387 . S
H951 C947 0.950 . S
H952 C949 0.950 . S
C953 C944 1.390 . S
C953 H946 0.950 . S
C953 C950 1.387 . S
C954 C955 1.387 . S
C954 H958 0.950 . S
C954 C963 1.390 . S
C955 C954 1.387 . S
C955 C957 1.387 . S
H956 C963 0.950 . S
C957 C955 1.387 . S
C957 C959 1.390 . S
C957 H961 0.950 . S
H958 C954 0.950 . S
C959 C957 1.390 . S
C959 C960 1.387 . S
C959 H962 0.950 . S
C960 C959 1.387 . S
C960 C963 1.387 . S
H961 C957 0.950 . S
H962 C959 0.950 . S
C963 C954 1.390 . S
C963 H956 0.950 . S
C963 C960 1.387 . S
C964 C965 1.387 . S
C964 H968 0.950 . S
C964 C973 1.390 . S
C965 C964 1.387 . S
C965 C967 1.387 . S
H966 C973 0.950 . S
C967 C965 1.387 . S
C967 C969 1.390 . S
C967 H971 0.950 . S
H968 C964 0.950 . S
C969 C967 1.390 . S
C969 C970 1.387 . S
C969 H972 0.950 . S
C970 C969 1.387 . S
C970 C973 1.387 . S
H971 C967 0.950 . S
H972 C969 0.950 . S
C973 C964 1.390 . S
C973 H966 0.950 . S
C973 C970 1.387 . S
C974 C975 1.387 . S
C974 H978 0.950 . S
C974 C983 1.390 . S
C975 C974 1.387 . S
C975 C977 1.387 . S
H976 C983 0.950 . S
C977 C975 1.387 . S
C977 C979 1.390 . S
C977 H981 0.950 . S
H978 C974 0.950 . S
C979 C977 1.390 . S
C979 C980 1.387 . S
C979 H982 0.950 . S
C980 C979 1.387 . S
C980 C983 1.387 . S
H981 C977 0.950 . S
H982 C979 0.950 . S
C983 C974 1.390 . S
C983 H976 0.950 . S
C983 C980 1.387 . S
C984 C985 1.387 . S
C984 H988 0.950 . S
C984 C993 1.390 . S
C985 C984 1.387 . S
C985 C987 1.387 . S
H986 C993 0.950 . S
C987 C985 1.387 . S
C987 C989 1.390 . S
C987 H991 0.950 . S
H988 C984 0.950 . S
C989 C987 1.390 . S
C989 C990 1.387 . S
C989 H992 0.950 . S
C990 C989 1.387 . S
C990 C993 1.387 . S
H991 C987 0.950 . S
H992 C989 0.950 . S
C993 C984 1.390 . S
C993 H986 0.950 . S
C993 C990 1.387 . S
C994 C995 1.387 . S
C994 H998 0.950 1_545 S
C994 C1003 1.400 . S
C995 C994 1.387 . S
C995 C997 1.387 . S
H996 C1003 0.913 1_565 S
C997 C995 1.387 . S
C997 C999 1.390 . S
C997 H1001 0.950 . S
H998 C994 0.950 1_565 S
C999 C997 1.390 . S
C999 C1000 1.387 . S
C999 H1002 0.950 . S
C1000 C999 1.387 . S
C1000 C1003 1.415 . S
H1001 C997 0.950 . S
H1002 C999 0.950 . S
C1003 C994 1.400 . S
C1003 H996 0.913 1_545 S
C1003 C1000 1.415 . S
C1004 C1005 1.387 . S
C1004 H1008 0.950 . S
C1004 C1013 1.390 . S
C1005 C1004 1.387 . S
C1005 C1007 1.387 . S
H1006 C1013 0.950 . S
C1007 C1005 1.387 . S
C1007 C1009 1.390 . S
C1007 H1011 0.950 . S
H1008 C1004 0.950 . S
C1009 C1007 1.390 . S
C1009 C1010 1.387 . S
C1009 H1012 0.950 . S
C1010 C1009 1.387 . S
C1010 C1013 1.387 . S
H1011 C1007 0.950 . S
H1012 C1009 0.950 . S
C1013 C1004 1.390 . S
C1013 H1006 0.950 . S
C1013 C1010 1.387 . S
C1014 C1015 1.387 . S
C1014 H1018 0.950 . S
C1014 C1023 1.390 . S
C1015 C1014 1.387 . S
C1015 C1017 1.387 . S
H1016 C1023 0.950 . S
C1017 C1015 1.387 . S
C1017 C1019 1.390 . S
C1017 H1021 0.950 . S
H1018 C1014 0.950 . S
C1019 C1017 1.390 . S
C1019 C1020 1.387 . S
C1019 H1022 0.950 . S
C1020 C1019 1.387 . S
C1020 C1023 1.387 . S
H1021 C1017 0.950 . S
H1022 C1019 0.950 . S
C1023 C1014 1.390 . S
C1023 H1016 0.950 . S
C1023 C1020 1.387 . S
C1024 C1025 1.387 . S
C1024 H1028 0.950 . S
C1024 C1033 1.390 . S
C1025 C1024 1.387 . S
C1025 C1027 1.387 . S
H1026 C1033 0.950 . S
C1027 C1025 1.387 . S
C1027 C1029 1.390 . S
C1027 H1031 0.950 . S
H1028 C1024 0.950 . S
C1029 C1027 1.390 . S
C1029 C1030 1.387 . S
C1029 H1032 0.950 . S
C1030 C1029 1.387 . S
C1030 C1033 1.387 . S
H1031 C1027 0.950 . S
H1032 C1029 0.950 . S
C1033 C1024 1.390 . S
C1033 H1026 0.950 . S
C1033 C1030 1.387 . S
C1034 C1035 1.387 . S
C1034 H1038 0.950 . S
C1034 C1043 1.390 . S
C1035 C1034 1.387 . S
C1035 C1037 1.387 1_545 S
H1036 C1043 0.950 . S
C1037 C1035 1.387 1_565 S
C1037 C1039 1.390 . S
C1037 H1041 0.950 . S
H1038 C1034 0.950 . S
C1039 C1037 1.390 . S
C1039 C1040 1.387 1_565 S
C1039 H1042 0.950 . S
C1040 C1039 1.387 1_545 S
C1040 C1043 1.387 . S
H1041 C1037 0.950 . S
H1042 C1039 0.950 . S
C1043 C1034 1.390 . S
C1043 H1036 0.950 . S
C1043 C1040 1.387 . S
C1044 C1045 1.387 . S
C1044 H1048 0.950 . S
C1044 C1053 1.390 . S
C1045 C1044 1.387 . S
C1045 C1047 1.387 . S
H1046 C1053 0.950 . S
C1047 C1045 1.387 . S
C1047 C1049 1.390 . S
C1047 H1051 0.950 . S
H1048 C1044 0.950 . S
C1049 C1047 1.390 . S
C1049 C1050 1.387 . S
C1049 H1052 0.950 . S
C1050 C1049 1.387 . S
C1050 C1053 1.387 . S
H1051 C1047 0.950 . S
H1052 C1049 0.950 . S
C1053 C1044 1.390 . S
C1053 H1046 0.950 . S
C1053 C1050 1.387 . S
C1054 C1055 1.387 . S
C1054 H1058 0.950 . S
C1054 C1063 1.390 . S
C1055 C1054 1.387 . S
C1055 C1057 1.387 . S
H1056 C1063 0.950 . S
C1057 C1055 1.387 . S
C1057 C1059 1.390 . S
C1057 H1061 0.950 . S
H1058 C1054 0.950 . S
C1059 C1057 1.390 . S
C1059 C1060 1.387 . S
C1059 H1062 0.950 . S
C1060 C1059 1.387 . S
C1060 C1063 1.387 . S
H1061 C1057 0.950 . S
H1062 C1059 0.950 . S
C1063 C1054 1.390 . S
C1063 H1056 0.950 . S
C1063 C1060 1.387 . S
C1064 C1065 1.387 . S
C1064 H1068 0.950 . S
C1064 C1073 1.390 . S
C1065 C1064 1.387 . S
C1065 C1067 1.387 . S
H1066 C1073 0.950 . S
C1067 C1065 1.387 . S
C1067 C1069 1.390 . S
C1067 H1071 0.950 . S
H1068 C1064 0.950 . S
C1069 C1067 1.390 . S
C1069 C1070 1.387 . S
C1069 H1072 0.950 . S
C1070 C1069 1.387 . S
C1070 C1073 1.387 . S
H1071 C1067 0.950 . S
H1072 C1069 0.950 . S
C1073 C1064 1.390 . S
C1073 H1066 0.950 . S
C1073 C1070 1.387 . S
C1074 C1075 1.387 . S
C1074 H1078 0.950 . S
C1074 C1083 1.390 . S
C1075 C1074 1.387 . S
C1075 C1077 1.387 . S
H1076 C1083 0.950 . S
C1077 C1075 1.387 . S
C1077 C1079 1.390 . S
C1077 H1081 0.950 . S
H1078 C1074 0.950 . S
C1079 C1077 1.390 . S
C1079 C1080 1.387 . S
C1079 H1082 0.950 . S
C1080 C1079 1.387 . S
C1080 C1083 1.387 . S
H1081 C1077 0.950 . S
H1082 C1079 0.950 . S
C1083 C1074 1.390 . S
C1083 H1076 0.950 . S
C1083 C1080 1.387 . S
C1084 C1085 1.387 . S
C1084 H1088 0.950 . S
C1084 C1093 1.390 . S
C1085 C1084 1.387 . S
C1085 C1087 1.387 . S
H1086 C1093 0.950 . S
C1087 C1085 1.387 . S
C1087 C1089 1.390 . S
C1087 H1091 0.950 . S
H1088 C1084 0.950 . S
C1089 C1087 1.390 . S
C1089 C1090 1.387 . S
C1089 H1092 0.950 . S
C1090 C1089 1.387 . S
C1090 C1093 1.387 . S
H1091 C1087 0.950 . S
H1092 C1089 0.950 . S
C1093 C1084 1.390 . S
C1093 H1086 0.950 . S
C1093 C1090 1.387 . S
C1094 C1095 1.387 1_655 S
C1094 H1098 0.950 . S
C1094 C1103 1.390 . S
C1095 C1094 1.387 1_455 S
C1095 C1097 1.387 . S
H1096 C1103 0.950 . S
C1097 C1095 1.387 . S
C1097 C1099 1.390 . S
C1097 H1101 0.950 . S
H1098 C1094 0.950 . S
C1099 C1097 1.390 . S
C1099 C1100 1.387 . S
C1099 H1102 0.950 . S
C1100 C1099 1.387 . S
C1100 C1103 1.387 1_455 S
H1101 C1097 0.950 . S
H1102 C1099 0.950 . S
C1103 C1094 1.390 . S
C1103 H1096 0.950 . S
C1103 C1100 1.387 1_655 S
C1104 C1105 1.387 . S
C1104 H1108 0.950 . S
C1104 C1113 1.390 . S
C1105 C1104 1.387 . S
C1105 C1107 1.387 . S
H1106 C1113 0.950 . S
C1107 C1105 1.387 . S
C1107 C1109 1.390 . S
C1107 H1111 0.950 . S
H1108 C1104 0.950 . S
C1109 C1107 1.390 . S
C1109 C1110 1.387 . S
C1109 H1112 0.950 . S
C1110 C1109 1.387 . S
C1110 C1113 1.387 . S
H1111 C1107 0.950 . S
H1112 C1109 0.950 . S
C1113 C1104 1.390 . S
C1113 H1106 0.950 . S
C1113 C1110 1.387 . S
C1114 C1115 1.387 . S
C1114 H1118 0.950 . S
C1114 C1123 1.390 . S
C1115 C1114 1.387 . S
C1115 C1117 1.387 . S
H1116 C1123 0.950 . S
C1117 C1115 1.387 . S
C1117 C1119 1.390 . S
C1117 H1121 0.950 . S
H1118 C1114 0.950 . S
C1119 C1117 1.390 . S
C1119 C1120 1.387 . S
C1119 H1122 0.950 . S
C1120 C1119 1.387 . S
C1120 C1123 1.387 . S
H1121 C1117 0.950 . S
H1122 C1119 0.950 . S
C1123 C1114 1.390 . S
C1123 H1116 0.950 . S
C1123 C1120 1.387 . S
C1124 C1125 1.387 . S
C1124 H1128 0.950 . S
C1124 C1133 1.390 . S
C1125 C1124 1.387 . S
C1125 C1127 1.387 . S
H1126 C1133 0.950 . S
C1127 C1125 1.387 . S
C1127 C1129 1.390 . S
C1127 H1131 0.950 . S
H1128 C1124 0.950 . S
C1129 C1127 1.390 . S
C1129 C1130 1.387 . S
C1129 H1132 0.950 . S
C1130 C1129 1.387 . S
C1130 C1133 1.387 . S
H1131 C1127 0.950 . S
H1132 C1129 0.950 . S
C1133 C1124 1.390 . S
C1133 H1126 0.950 . S
C1133 C1130 1.387 . S
C1134 C1135 1.387 . S
C1134 H1138 0.950 . S
C1134 C1143 1.390 . S
C1135 C1134 1.387 . S
C1135 C1137 1.387 . S
H1136 C1143 0.950 . S
C1137 C1135 1.387 . S
C1137 C1139 1.390 . S
C1137 H1141 0.950 . S
H1138 C1134 0.950 . S
C1139 C1137 1.390 . S
C1139 C1140 1.387 . S
C1139 H1142 0.950 . S
C1140 C1139 1.387 . S
C1140 C1143 1.387 . S
H1141 C1137 0.950 . S
H1142 C1139 0.950 . S
C1143 C1134 1.390 . S
C1143 H1136 0.950 . S
C1143 C1140 1.387 . S
C1144 C1145 1.387 . S
C1144 H1148 0.950 . S
C1144 C1153 1.390 . S
C1145 C1144 1.387 . S
C1145 C1147 1.387 . S
H1146 C1153 0.950 . S
C1147 C1145 1.387 . S
C1147 C1149 1.390 . S
C1147 H1151 0.950 . S
H1148 C1144 0.950 . S
C1149 C1147 1.390 . S
C1149 C1150 1.387 . S
C1149 H1152 0.950 . S
C1150 C1149 1.387 . S
C1150 C1153 1.387 . S
H1151 C1147 0.950 . S
H1152 C1149 0.950 . S
C1153 C1144 1.390 . S
C1153 H1146 0.950 . S
C1153 C1150 1.387 . S
C1154 C1155 1.387 . S
C1154 H1158 0.950 . S
C1154 C1163 1.390 . S
C1155 C1154 1.387 . S
C1155 C1157 1.387 . S
H1156 C1163 0.950 . S
C1157 C1155 1.387 . S
C1157 C1159 1.390 . S
C1157 H1161 0.950 . S
H1158 C1154 0.950 . S
C1159 C1157 1.390 . S
C1159 C1160 1.387 . S
C1159 H1162 0.950 . S
C1160 C1159 1.387 . S
C1160 C1163 1.387 . S
H1161 C1157 0.950 . S
H1162 C1159 0.950 . S
C1163 C1154 1.390 . S
C1163 H1156 0.950 . S
C1163 C1160 1.387 . S
C1164 C1165 1.387 . S
C1164 H1168 0.950 . S
C1164 C1173 1.390 . S
C1165 C1164 1.387 . S
C1165 C1167 1.387 . S
H1166 C1173 0.950 . S
C1167 C1165 1.387 . S
C1167 C1169 1.390 . S
C1167 H1171 0.950 . S
H1168 C1164 0.950 . S
C1169 C1167 1.390 . S
C1169 C1170 1.387 . S
C1169 H1172 0.950 . S
C1170 C1169 1.387 . S
C1170 C1173 1.387 . S
H1171 C1167 0.950 . S
H1172 C1169 0.950 . S
C1173 C1164 1.390 . S
C1173 H1166 0.950 . S
C1173 C1170 1.387 . S
C1174 C1175 1.387 . S
C1174 H1178 0.950 . S
C1174 C1183 1.390 . S
C1175 C1174 1.387 . S
C1175 C1177 1.387 . S
H1176 C1183 0.950 . S
C1177 C1175 1.387 . S
C1177 C1179 1.390 . S
C1177 H1181 0.950 . S
H1178 C1174 0.950 . S
C1179 C1177 1.390 . S
C1179 C1180 1.387 . S
C1179 H1182 0.950 . S
C1180 C1179 1.387 . S
C1180 C1183 1.387 . S
H1181 C1177 0.950 . S
H1182 C1179 0.950 . S
C1183 C1174 1.390 . S
C1183 H1176 0.950 . S
C1183 C1180 1.387 . S
C1184 C1185 1.387 . S
C1184 H1188 0.950 . S
C1184 C1193 1.390 . S
C1185 C1184 1.387 . S
C1185 C1187 1.387 1_556 S
H1186 C1193 0.950 . S
C1187 C1185 1.387 1_554 S
C1187 C1189 1.390 . S
C1187 H1191 0.950 . S
H1188 C1184 0.950 . S
C1189 C1187 1.390 . S
C1189 C1190 1.387 1_554 S
C1189 H1192 0.950 . S
C1190 C1189 1.387 1_556 S
C1190 C1193 1.387 . S
H1191 C1187 0.950 . S
H1192 C1189 0.950 . S
C1193 C1184 1.390 . S
C1193 H1186 0.950 . S
C1193 C1190 1.387 . S
C1194 C1195 1.387 . S
C1194 H1198 0.950 . S
C1194 C1203 1.390 . S
C1195 C1194 1.387 . S
C1195 C1197 1.387 . S
H1196 C1203 0.950 . S
C1197 C1195 1.387 . S
C1197 C1199 1.390 . S
C1197 H1201 0.950 . S
H1198 C1194 0.950 . S
C1199 C1197 1.390 . S
C1199 C1200 1.387 . S
C1199 H1202 0.950 . S
C1200 C1199 1.387 . S
C1200 C1203 1.387 . S
H1201 C1197 0.950 . S
H1202 C1199 0.950 . S
C1203 C1194 1.390 . S
C1203 H1196 0.950 . S
C1203 C1200 1.387 . S
C1204 C1205 1.387 . S
C1204 H1208 0.948 1_554 S
C1204 C1213 1.390 . S
C1205 C1204 1.387 . S
C1205 C1207 1.387 . S
H1206 C1213 0.950 1_556 S
C1207 C1205 1.387 . S
C1207 C1209 1.390 . S
C1207 H1211 0.950 . S
H1208 C1204 0.948 1_556 S
C1209 C1207 1.390 . S
C1209 C1210 1.387 . S
C1209 H1212 0.950 . S
C1210 C1209 1.387 . S
C1210 C1213 1.387 . S
H1211 C1207 0.950 . S
H1212 C1209 0.950 . S
C1213 C1204 1.390 . S
C1213 H1206 0.950 1_554 S
C1213 C1210 1.387 . S
C1214 C1215 1.387 . S
C1214 H1218 0.950 . S
C1214 C1223 1.390 . S
C1215 C1214 1.387 . S
C1215 C1217 1.387 1_554 S
H1216 C1223 0.950 . S
C1217 C1215 1.387 1_556 S
C1217 C1219 1.390 . S
C1217 H1221 0.950 . S
H1218 C1214 0.950 . S
C1219 C1217 1.390 . S
C1219 C1220 1.387 1_556 S
C1219 H1222 0.950 . S
C1220 C1219 1.387 1_554 S
C1220 C1223 1.387 . S
H1221 C1217 0.950 . S
H1222 C1219 0.950 . S
C1223 C1214 1.390 . S
C1223 H1216 0.950 . S
C1223 C1220 1.387 . S
C750 C584 1.482 . S
C745 C181 1.505 . S
C760 C597 1.491 . S
C755 C247 1.483 . S
C765 C283 1.627 . S
C770 C617 1.525 . S
C780 C631 1.398 . S
C775 C169 1.461 . S
C790 C643 1.511 . S
C785 C361 1.514 . S
C800 C657 1.442 . S
C795 C433 1.437 . S
C805 C421 1.488 . S
C810 C667 1.480 . S
C820 C682 1.524 . S
C815 C355 1.542 . S
C825 C427 1.523 . S
C830 C696 1.499 . S
C840 C715 1.402 . S
C835 C325 1.451 . S
C845 C385 1.492 . S
C850 C695 1.481 . S
C860 C713 1.446 . S
C855 C463 1.440 . S
C865 C253 1.633 . S
C870 C729 1.530 . S
C875 C145 1.499 . S
C880 C723 1.494 . S
C885 C205 1.497 . S
C890 C727 1.495 . S
C895 C217 1.528 . S
C900 C724 1.507 . S
C905 C139 1.522 . S
C910 C626 1.498 . S
C915 C535 1.489 . S
C920 C625 1.480 . S
C930 C589 1.386 . S
C925 C565 1.431 . S
C940 C603 1.517 . S
C935 C313 1.617 . S
C945 C175 1.560 . S
C950 C640 1.526 . S
C960 C685 1.507 . S
C955 C397 1.509 . S
C970 C639 1.494 . S
C965 C349 1.485 . S
C980 C671 1.450 . S
C975 C457 1.442 . S
C990 C668 1.481 . S
C985 C505 1.505 . S
C995 C571 1.482 . S
C1000 C681 1.491 . S
C1005 C319 1.627 . S
C1010 C645 1.526 . S
C1020 C659 1.401 . S
C1015 C493 1.462 . S
C1025 C109 1.514 . S
C1030 C615 1.510 . S
C1040 C629 1.441 . S
C1035 C1 1.436 . S
C1050 C583 1.479 . S
C1045 C61 1.488 . S
C1060 C598 1.522 . S
C1055 C103 1.541 . S
C1065 C67 1.523 . S
C1070 C710 1.499 . S
C1075 C73 1.451 . S
C1080 C701 1.401 . S
C1085 C133 1.492 . S
C1090 C709 1.482 . S
C1095 C31 1.440 . S
C1100 C699 1.446 . S
C1110 C743 1.530 . S
C1105 C289 1.633 . S
C1120 C737 1.495 . S
C1115 C469 1.498 . S
C1130 C741 1.495 . S
C1125 C529 1.497 . S
C1135 C541 1.527 . S
C1140 C738 1.509 . S
C1145 C391 1.522 . S
C1150 C654 1.498 . S
C1160 C653 1.480 . S
C1155 C211 1.489 . S
C1170 C673 1.383 . S
C1165 C241 1.433 . S
C1180 C687 1.521 . S
C1175 C277 1.619 . S
C1185 C499 1.560 . S
C1190 C612 1.525 . S
C1200 C601 1.506 . S
C1195 C37 1.509 . S
C1205 C97 1.484 . S
C1210 C611 1.494 . S
C1220 C587 1.449 . S
C1215 C25 1.441 . S
