# Generated by pormake.
# Topology zzz, (3,6)-cn, num edge types: 1
# Building blocks:
#     Node 0, Type 0, BuildingBlock: ESEHIV_clean_linker_0, # of connection points: 3
#     Node 1, Type 0, BuildingBlock: ESEHIV_clean_linker_0, # of connection points: 3
#     Node 2, Type 0, BuildingBlock: ESEHIV_clean_linker_0, # of connection points: 3
#     Node 3, Type 0, BuildingBlock: ESEHIV_clean_linker_0, # of connection points: 3
#     Node 4, Type 0, BuildingBlock: ESEHIV_clean_linker_0, # of connection points: 3
#     Node 5, Type 0, BuildingBlock: ESEHIV_clean_linker_0, # of connection points: 3
#     Node 6, Type 0, BuildingBlock: ESEHIV_clean_linker_0, # of connection points: 3
#     Node 7, Type 0, BuildingBlock: ESEHIV_clean_linker_0, # of connection points: 3
#     Node 8, Type 1, BuildingBlock: CUKXOW_clean_sbu_0, # of connection points: 6
#     Node 9, Type 1, BuildingBlock: CUKXOW_clean_sbu_0, # of connection points: 6
#     Node 10, Type 1, BuildingBlock: CUKXOW_clean_sbu_0, # of connection points: 6
#     Node 11, Type 1, BuildingBlock: CUKXOW_clean_sbu_0, # of connection points: 6
#     Edge 12, Type (0, 1), BuildingBlock: XUDNAN_clean_linker_2, # of connection points: 2
#     Edge 13, Type (0, 1), BuildingBlock: XUDNAN_clean_linker_2, # of connection points: 2
#     Edge 14, Type (0, 1), BuildingBlock: XUDNAN_clean_linker_2, # of connection points: 2
#     Edge 15, Type (0, 1), BuildingBlock: XUDNAN_clean_linker_2, # of connection points: 2
#     Edge 16, Type (0, 1), BuildingBlock: XUDNAN_clean_linker_2, # of connection points: 2
#     Edge 17, Type (0, 1), BuildingBlock: XUDNAN_clean_linker_2, # of connection points: 2
#     Edge 18, Type (0, 1), BuildingBlock: XUDNAN_clean_linker_2, # of connection points: 2
#     Edge 19, Type (0, 1), BuildingBlock: XUDNAN_clean_linker_2, # of connection points: 2
#     Edge 20, Type (0, 1), BuildingBlock: XUDNAN_clean_linker_2, # of connection points: 2
#     Edge 21, Type (0, 1), BuildingBlock: XUDNAN_clean_linker_2, # of connection points: 2
#     Edge 22, Type (0, 1), BuildingBlock: XUDNAN_clean_linker_2, # of connection points: 2
#     Edge 23, Type (0, 1), BuildingBlock: XUDNAN_clean_linker_2, # of connection points: 2
#     Edge 24, Type (0, 1), BuildingBlock: XUDNAN_clean_linker_2, # of connection points: 2
#     Edge 25, Type (0, 1), BuildingBlock: XUDNAN_clean_linker_2, # of connection points: 2
#     Edge 26, Type (0, 1), BuildingBlock: XUDNAN_clean_linker_2, # of connection points: 2
#     Edge 27, Type (0, 1), BuildingBlock: XUDNAN_clean_linker_2, # of connection points: 2
#     Edge 28, Type (0, 1), BuildingBlock: XUDNAN_clean_linker_2, # of connection points: 2
#     Edge 29, Type (0, 1), BuildingBlock: XUDNAN_clean_linker_2, # of connection points: 2
#     Edge 30, Type (0, 1), BuildingBlock: XUDNAN_clean_linker_2, # of connection points: 2
#     Edge 31, Type (0, 1), BuildingBlock: XUDNAN_clean_linker_2, # of connection points: 2
#     Edge 32, Type (0, 1), BuildingBlock: XUDNAN_clean_linker_2, # of connection points: 2
#     Edge 33, Type (0, 1), BuildingBlock: XUDNAN_clean_linker_2, # of connection points: 2
#     Edge 34, Type (0, 1), BuildingBlock: XUDNAN_clean_linker_2, # of connection points: 2
#     Edge 35, Type (0, 1), BuildingBlock: XUDNAN_clean_linker_2, # of connection points: 2
# Relax obj value: 0.210
# Max RMSD: 0.227
# Mean RMSD: 0.184
data_MOF--net-zzz--node1-CUKXOW_clean_sbu_0--node2-ESEHIV_clean_linker_0--edge1-XUDNAN_clean_linker_2
_symmetry_space_group_name_H-M    P1
_symmetry_Int_Tables_number       1
_symmetry_cell_setting            triclinic
loop_
_symmetry_equiv_pos_as_xyz
'x, y, z'
_cell_length_a     44.720961
_cell_length_b     44.414936
_cell_length_c     16.009246
_cell_angle_alpha  93.041716
_cell_angle_beta   87.575726
_cell_angle_gamma 95.56412
loop_
_atom_site_label
_atom_site_type_symbol
_atom_site_fract_x
_atom_site_fract_y
_atom_site_fract_z
_atom_type_partial_charge
H0 H 0.82701 0.51936 0.18188 0.0
H1 H 0.7689 0.50779 0.9738 0.0
H2 H 0.73281 0.49597 0.22665 0.0
C3 C 0.80456 0.5151 0.15792 0.0
C4 C 0.78036 0.50827 0.21377 0.0
C5 C 0.8007 0.51522 0.07177 0.0
C6 C 0.77187 0.50814 0.04069 0.0
C7 C 0.74697 0.50137 0.09618 0.0
C8 C 0.75156 0.50115 0.18298 0.0
H9 H 0.91668 0.81811 0.14688 0.0
H10 H 0.95275 0.74906 0.98738 0.0
H11 H 0.9109 0.72617 0.2239 0.0
C12 C 0.92027 0.79462 0.13449 0.0
C13 C 0.91232 0.7736 0.1965 0.0
C14 C 0.93574 0.78654 0.05985 0.0
C15 C 0.93997 0.75595 0.04294 0.0
C16 C 0.93026 0.73415 0.10086 0.0
C17 C 0.91678 0.74298 0.17787 0.0
H18 H 0.68586 0.99322 0.11335 0.0
H19 H 0.76614 0.01377 0.96249 0.0
H20 H 0.77198 0.99229 0.22066 0.0
C21 C 0.71015 0.99689 0.10685 0.0
C22 C 0.72706 0.99368 0.17674 0.0
C23 C 0.72367 0.00567 0.03053 0.0
C24 C 0.75511 0.00726 0.02126 0.0
C25 C 0.7727 0.00141 0.08857 0.0
C26 C 0.75861 0.99544 0.16748 0.0
H27 H 0.57655 0.68396 0.18794 0.0
H28 H 0.58979 0.77694 0.2758 0.0
H29 H 0.58672 0.75419 0.01121 0.0
C30 C 0.58131 0.70757 0.17378 0.0
C31 C 0.58187 0.71598 0.09052 0.0
C32 C 0.58415 0.72918 0.24072 0.0
C33 C 0.58875 0.76002 0.22441 0.0
C34 C 0.5898 0.76891 0.14125 0.0
C35 C 0.58666 0.74693 0.07481 0.0
H36 H 0.21314 0.55823 0.20038 0.0
H37 H 0.26521 0.55358 0.41786 0.0
H38 H 0.2953 0.51562 0.17891 0.0
C39 C 0.23356 0.55295 0.22828 0.0
C40 C 0.25444 0.53765 0.17889 0.0
C41 C 0.23697 0.55866 0.31442 0.0
C42 C 0.26252 0.54977 0.35103 0.0
C43 C 0.2838 0.53443 0.30229 0.0
C44 C 0.27945 0.52814 0.21633 0.0
H45 H 0.06724 0.18451 0.29517 0.0
H46 H 0.03437 0.26126 0.43052 0.0
H47 H 0.08804 0.27333 0.20181 0.0
C48 C 0.06593 0.2088 0.3021 0.0
C49 C 0.07975 0.22759 0.24136 0.0
C50 C 0.0491 0.22081 0.36929 0.0
C51 C 0.04676 0.25202 0.37702 0.0
C52 C 0.06139 0.27132 0.31791 0.0
C53 C 0.07745 0.25884 0.24917 0.0
H54 H 0.33905 0.94445 0.23045 0.0
H55 H 0.2632 0.94173 0.40254 0.0
H56 H 0.26426 0.99447 0.18349 0.0
C57 C 0.31663 0.95077 0.24674 0.0
C58 C 0.30389 0.97141 0.19886 0.0
C59 C 0.30246 0.94062 0.32072 0.0
C60 C 0.27357 0.94863 0.34328 0.0
C61 C 0.25896 0.96714 0.29235 0.0
C62 C 0.27454 0.97885 0.22057 0.0
H63 H 0.39963 0.31383 0.257 0.0
H64 H 0.38876 0.22171 0.16067 0.0
H65 H 0.43271 0.24396 0.39305 0.0
C66 C 0.40247 0.2902 0.26464 0.0
C67 C 0.41755 0.28177 0.33346 0.0
C68 C 0.39308 0.26891 0.20116 0.0
C69 C 0.39608 0.23809 0.20994 0.0
C70 C 0.40873 0.22872 0.28223 0.0
C71 C 0.4203 0.25086 0.34188 0.0
Tb72 Tb 1.00097 0.97721 0.65346 0.0
C73 C 0.06813 0.99707 0.59145 0.0
Tb74 Tb 0.04055 0.02434 0.76334 0.0
O75 O 0.97266 0.01301 0.6224 0.0
O76 O 0.01705 0.02311 0.65256 0.0
O77 O 0.04407 0.97703 0.58182 0.0
C78 C 0.07164 0.0742 0.82311 0.0
O79 O 0.07051 0.01824 0.65367 0.0
C80 C 0.03513 0.96857 0.81145 0.0
C81 C 0.97363 0.00527 0.8213 0.0
O82 O 0.08098 0.04729 0.81899 0.0
O83 O 0.04482 0.07286 0.79413 0.0
O84 O 0.03996 0.99202 0.86279 0.0
O85 O 0.03595 0.97722 0.738 0.0
O86 O 0.99573 0.02755 0.82162 0.0
O87 O 0.97379 0.98115 0.76887 0.0
C88 C 0.97301 0.92646 0.58787 0.0
O89 O 0.98244 0.93034 0.66339 0.0
O90 O 0.97984 0.95109 0.54773 0.0
C91 C 0.99355 0.03473 0.6384 0.0
Tb92 Tb 0.50336 0.02011 0.61826 0.0
C93 C 0.55469 0.97837 0.56713 0.0
Tb94 Tb 0.52056 0.97352 0.74222 0.0
O95 O 0.54757 0.0456 0.62671 0.0
O96 O 0.52913 0.02075 0.72621 0.0
O97 O 0.53257 0.9927 0.53914 0.0
C98 C 0.54246 0.94484 0.86482 0.0
O99 O 0.55619 0.97172 0.64644 0.0
C100 C 0.48312 0.95263 0.6244 0.0
C101 C 0.46724 0.01341 0.79397 0.0
O102 O 0.55759 0.96524 0.82061 0.0
O103 O 0.5149 0.94098 0.84074 0.0
O104 O 0.50075 0.93581 0.65936 0.0
O105 O 0.48581 0.9781 0.66153 0.0
O106 O 0.4873 0.99613 0.82061 0.0
O107 O 0.46839 0.02357 0.71705 0.0
C108 C 0.47501 0.05249 0.51755 0.0
O109 O 0.48473 0.06177 0.59074 0.0
O110 O 0.48161 0.0249 0.49997 0.0
C111 C 0.55246 0.03602 0.69955 0.0
Tb112 Tb 0.52036 0.5184 0.67539 0.0
C113 C 0.45473 0.49603 0.63254 0.0
Tb114 Tb 0.48435 0.47174 0.7866 0.0
O115 O 0.52474 0.48498 0.57034 0.0
O116 O 0.51886 0.4716 0.69245 0.0
O117 O 0.47424 0.52043 0.63881 0.0
C118 C 0.45002 0.42493 0.84823 0.0
O119 O 0.45725 0.4719 0.67605 0.0
C120 C 0.488 0.5288 0.841 0.0
C121 C 0.55225 0.49044 0.8255 0.0
O122 O 0.44213 0.45219 0.84496 0.0
O123 O 0.47741 0.42426 0.81876 0.0
O124 O 0.4864 0.50635 0.89033 0.0
O125 O 0.48543 0.51843 0.76721 0.0
O126 O 0.52853 0.47031 0.83672 0.0
O127 O 0.55331 0.51186 0.76966 0.0
C128 C 0.54585 0.57025 0.61714 0.0
O129 O 0.53231 0.54812 0.57296 0.0
O130 O 0.54584 0.56299 0.6946 0.0
C131 C 0.51935 0.46196 0.61735 0.0
Tb132 Tb 0.9892 0.51579 0.64478 0.0
C133 C 0.03208 0.46753 0.5795 0.0
Tb134 Tb 0.04768 0.5097 0.74126 0.0
O135 O 0.01507 0.53273 0.53392 0.0
O136 O 0.03309 0.53765 0.65222 0.0
O137 O 0.00399 0.47485 0.58274 0.0
C138 C 0.10363 0.50714 0.78946 0.0
O139 O 0.05319 0.48073 0.62854 0.0
C140 C 0.99702 0.48756 0.81565 0.0
C141 C 0.00728 0.56198 0.79723 0.0
O142 O 0.08378 0.48406 0.77909 0.0
O143 O 0.09192 0.53174 0.77316 0.0
O144 O 0.02217 0.49447 0.85307 0.0
O145 O 0.0032 0.4888 0.73809 0.0
O146 O 0.03455 0.55236 0.79852 0.0
O147 O 0.98575 0.54926 0.74826 0.0
C148 C 0.932 0.51136 0.60056 0.0
O149 O 0.95109 0.53516 0.59291 0.0
O150 O 0.94509 0.49033 0.63365 0.0
C151 C 0.03924 0.54034 0.57559 0.0
H152 H 0.21026 0.93161 0.35569 0.0
H153 H 0.23977 0.02396 0.29336 0.0
H154 H 0.19154 0.0404 0.35028 0.0
H155 H 0.12974 0.93441 0.31236 0.0
H156 H 0.11716 0.9115 0.39901 0.0
H157 H 0.15268 0.90632 0.34528 0.0
H158 H 0.1796 0.91514 0.48584 0.0
H159 H 0.14424 0.92037 0.53989 0.0
H160 H 0.17519 0.9494 0.54888 0.0
H161 H 0.14337 0.04802 0.42944 0.0
H162 H 0.09724 0.04592 0.52018 0.0
H163 H 0.09721 0.94853 0.52765 0.0
C164 C 0.20638 0.95522 0.35297 0.0
C165 C 0.22878 0.97646 0.31941 0.0
C166 C 0.22284 0.00716 0.31721 0.0
C167 C 0.19552 0.01674 0.34979 0.0
C168 C 0.17418 0.99533 0.38361 0.0
C169 C 0.17911 0.96514 0.3847 0.0
C170 C 0.15306 0.94705 0.42866 0.0
C171 C 0.13722 0.92342 0.36767 0.0
C172 C 0.16366 0.93212 0.50536 0.0
C173 C 0.13313 0.97197 0.45446 0.0
C174 C 0.14576 -0.00038 0.42746 0.0
C175 C 0.13297 0.02644 0.44941 0.0
C176 C 0.10684 0.02504 0.50106 0.0
C177 C 0.09353 0.99704 0.52952 0.0
C178 C 0.10654 0.97009 0.50472 0.0
H179 H 0.40107 0.20035 0.4293 0.0
H180 H 0.42394 0.18387 0.1659 0.0
H181 H 0.43574 0.13222 0.19487 0.0
H182 H 0.46169 0.17036 0.5001 0.0
H183 H 0.44294 0.15465 0.5921 0.0
H184 H 0.42946 0.18687 0.54783 0.0
H185 H 0.37656 0.15782 0.53469 0.0
H186 H 0.38988 0.12543 0.57948 0.0
H187 H 0.37265 0.12134 0.47924 0.0
H188 H 0.45142 0.08457 0.25705 0.0
H189 H 0.47213 0.04806 0.34623 0.0
H190 H 0.44325 0.09918 0.56807 0.0
C191 C 0.40808 0.18575 0.37725 0.0
C192 C 0.41161 0.19623 0.29537 0.0
C193 C 0.42063 0.17626 0.22904 0.0
C194 C 0.42746 0.14688 0.24499 0.0
C195 C 0.42505 0.13785 0.32742 0.0
C196 C 0.41548 0.15682 0.39232 0.0
C197 C 0.41855 0.14385 0.47653 0.0
C198 C 0.43941 0.16519 0.53233 0.0
C199 C 0.38756 0.13668 0.52003 0.0
C200 C 0.43266 0.11522 0.44949 0.0
C201 C 0.43542 0.11151 0.36325 0.0
C202 C 0.44908 0.08716 0.32454 0.0
C203 C 0.46078 0.06658 0.37545 0.0
C204 C 0.45937 0.07114 0.46358 0.0
C205 C 0.44463 0.09534 0.50068 0.0
H206 H 0.32567 0.56678 0.39965 0.0
H207 H 0.2992 0.47648 0.29572 0.0
H208 H 0.34068 0.45674 0.36739 0.0
H209 H 0.40638 0.56061 0.38025 0.0
H210 H 0.41406 0.58252 0.47625 0.0
H211 H 0.38247 0.58945 0.41618 0.0
H212 H 0.34686 0.58068 0.54642 0.0
H213 H 0.37832 0.57366 0.60678 0.0
H214 H 0.34634 0.54577 0.59926 0.0
H215 H 0.38299 0.44648 0.45734 0.0
H216 H 0.42564 0.44702 0.55109 0.0
H217 H 0.42648 0.54454 0.58922 0.0
C218 C 0.32875 0.54289 0.39197 0.0
C219 C 0.30936 0.52305 0.3425 0.0
C220 C 0.31404 0.49198 0.33308 0.0
C221 C 0.33742 0.48059 0.37368 0.0
C222 C 0.35611 0.5007 0.42241 0.0
C223 C 0.3523 0.53126 0.43087 0.0
C224 C 0.37573 0.54808 0.48606 0.0
C225 C 0.39585 0.57155 0.43672 0.0
C226 C 0.36092 0.56291 0.56426 0.0
C227 C 0.393 0.52214 0.50846 0.0
C228 C 0.38121 0.49497 0.47154 0.0
C229 C 0.39258 0.46765 0.48596 0.0
C230 C 0.41667 0.46815 0.53949 0.0
C231 C 0.42931 0.49582 0.57684 0.0
C232 C 0.41742 0.52312 0.5606 0.0
H233 H 0.0134 0.30296 0.36561 0.0
H234 H 0.10903 0.31424 0.30309 0.0
H235 H 0.11027 0.36858 0.34526 0.0
H236 H 0.99624 0.38012 0.30585 0.0
H237 H 0.96941 0.38311 0.39244 0.0
H238 H 0.97495 0.34656 0.34283 0.0
H239 H 0.98635 0.3268 0.48647 0.0
H240 H 0.98108 0.36321 0.53631 0.0
H241 H 0.01586 0.34662 0.5471 0.0
H242 H 0.10311 0.41855 0.4169 0.0
H243 H 0.0874 0.46168 0.50622 0.0
H244 H 0.99618 0.41853 0.52011 0.0
C245 C 0.03443 0.31706 0.35901 0.0
C246 C 0.0611 0.30451 0.33091 0.0
C247 C 0.08825 0.32355 0.32327 0.0
C248 C 0.08918 0.3544 0.34723 0.0
C249 C 0.06268 0.36587 0.37749 0.0
C250 C 0.0357 0.34789 0.3823 0.0
C251 C 0.01107 0.36504 0.42429 0.0
C252 C 0.98646 0.36894 0.36265 0.0
C253 C 0.99784 0.34949 0.50321 0.0
C254 C 0.02877 0.39497 0.44621 0.0
C255 C 0.05842 0.39511 0.41775 0.0
C256 C 0.07982 0.41903 0.43777 0.0
C257 C 0.07075 0.44328 0.48898 0.0
C258 C 0.04056 0.44339 0.5193 0.0
C259 C 0.01923 0.41925 0.49612 0.0
H260 H 0.8029 0.96829 0.9717 0.0
H261 H 0.81657 0.03757 0.17069 0.0
H262 H 0.87097 0.04441 0.13023 0.0
H263 H 0.87611 0.93603 0.98861 0.0
H264 H 0.87965 0.92873 0.87699 0.0
H265 H 0.84293 0.92744 0.9283 0.0
H266 H 0.82771 0.96692 0.82816 0.0
H267 H 0.86443 0.96859 0.77739 0.0
H268 H 0.85013 0.00276 0.82161 0.0
H269 H 0.92283 0.04768 0.0548 0.0
H270 H 0.96776 0.04412 0.96005 0.0
H271 H 0.91943 0.97119 0.81489 0.0
C272 C 0.81754 0.98439 0.00792 0.0
C273 C 0.80575 0.00233 0.07446 0.0
C274 C 0.82537 0.02338 0.12017 0.0
C275 C 0.8562 0.02747 0.09732 0.0
C276 C 0.867 0.00995 0.02961 0.0
C277 C 0.84827 0.98841 0.98671 0.0
C278 C 0.86491 0.97325 0.91437 0.0
C279 C 0.86596 0.93935 0.92792 0.0
C280 C 0.85097 0.9782 0.83046 0.0
C281 C 0.89573 0.9903 0.92117 0.0
C282 C 0.89666 0.01133 0.98803 0.0
C283 C 0.92243 0.03092 0.00317 0.0
C284 C 0.9478 0.02884 0.94877 0.0
C285 C 0.94726 0.00726 0.88025 0.0
C286 C 0.92084 0.98769 0.8672 0.0
H287 H 0.5407 0.79821 0.12307 0.0
H288 H 0.63791 0.81023 0.11153 0.0
H289 H 0.63634 0.8613 0.05659 0.0
H290 H 0.53063 0.82793 0.93567 0.0
H291 H 0.4973 0.84611 0.96673 0.0
H292 H 0.5061 0.81361 0.01976 0.0
H293 H 0.50456 0.84422 0.16206 0.0
H294 H 0.49549 0.87688 0.10944 0.0
H295 H 0.52756 0.87967 0.1749 0.0
H296 H 0.62383 0.90714 0.98326 0.0
H297 H 0.60174 0.94366 0.89827 0.0
H298 H 0.51251 0.90162 0.95928 0.0
C299 C 0.56155 0.8122 0.11179 0.0
C300 C 0.58942 0.80096 0.12282 0.0
C301 C 0.61643 0.81903 0.10483 0.0
C302 C 0.61568 0.84793 0.0737 0.0
C303 C 0.58772 0.85822 0.06144 0.0
C304 C 0.56113 0.84094 0.08068 0.0
C305 C 0.53414 0.85548 0.05345 0.0
C306 C 0.516 0.83454 0.99014 0.0
C307 C 0.51427 0.86461 0.12951 0.0
C308 C 0.54966 0.88304 0.01272 0.0
C309 C 0.58053 0.88454 0.01905 0.0
C310 C 0.59967 0.9066 0.97976 0.0
C311 C 0.58694 0.92733 0.9319 0.0
C312 C 0.55543 0.92576 0.92376 0.0
C313 C 0.53664 0.90366 0.96587 0.0
H314 H 0.72081 0.53027 0.97436 0.0
H315 H 0.7036 0.45727 0.14505 0.0
H316 H 0.65193 0.44718 0.09541 0.0
H317 H 0.64817 0.55757 0.99583 0.0
H318 H 0.64673 0.5658 0.887 0.0
H319 H 0.68243 0.56714 0.93565 0.0
H320 H 0.70044 0.52871 0.82141 0.0
H321 H 0.66473 0.52732 0.77267 0.0
H322 H 0.67848 0.49289 0.80355 0.0
H323 H 0.60234 0.4451 0.02835 0.0
H324 H 0.55796 0.45043 0.94669 0.0
H325 H 0.60716 0.52473 0.81813 0.0
C326 C 0.70629 0.51194 0.00065 0.0
C327 C 0.71625 0.49462 0.0639 0.0
C328 C 0.69637 0.47111 0.09745 0.0
C329 C 0.66703 0.46511 0.06937 0.0
C330 C 0.65789 0.48277 0.00757 0.0
C331 C 0.67691 0.50563 0.97332 0.0
C332 C 0.66139 0.52128 0.90775 0.0
C333 C 0.65956 0.55494 0.93313 0.0
C334 C 0.6772 0.5173 0.82122 0.0
C335 C 0.6306 0.50371 0.91081 0.0
C336 C 0.62915 0.48158 0.96874 0.0
C337 C 0.6032 0.46231 0.9827 0.0
C338 C 0.57807 0.46556 0.93583 0.0
C339 C 0.57898 0.48794 0.87554 0.0
C340 C 0.60566 0.50736 0.86348 0.0
H341 H 0.91308 0.69567 0.97093 0.0
H342 H 0.96826 0.70465 0.18826 0.0
H343 H 0.99276 0.65902 0.13803 0.0
H344 H 0.90534 0.61034 0.95346 0.0
H345 H 0.90699 0.60987 0.84078 0.0
H346 H 0.89053 0.64009 0.90038 0.0
H347 H 0.92699 0.67955 0.82512 0.0
H348 H 0.94398 0.6498 0.76555 0.0
H349 H 0.96696 0.67721 0.82791 0.0
H350 H 0.01724 0.61858 0.05068 0.0
H351 H 0.03434 0.58094 0.94412 0.0
H352 H 0.96154 0.59771 0.78707 0.0
C353 C 0.92942 0.68715 0.00945 0.0
C354 C 0.93864 0.70314 0.08371 0.0
C355 C 0.9606 0.69214 0.132 0.0
C356 C 0.97474 0.66645 0.10362 0.0
C357 C 0.96617 0.65196 0.02776 0.0
C358 C 0.94341 0.66143 0.98252 0.0
C359 C 0.9397 0.64325 0.90046 0.0
C360 C 0.90881 0.62478 0.89866 0.0
C361 C 0.94472 0.66368 0.82539 0.0
C362 C 0.96474 0.62296 0.9049 0.0
C363 C 0.97979 0.62825 0.97864 0.0
C364 C 0.00521 0.61376 0.99353 0.0
C365 C 0.01499 0.59275 0.93225 0.0
C366 C 0.9992 0.58637 0.85759 0.0
C367 C 0.97389 0.60187 0.84395 0.0
H368 H 0.07517 0.18495 0.47044 0.0
H369 H 0.98872 0.20925 0.39934 0.0
H370 H 0.9632 0.16729 0.47992 0.0
H371 H 0.06077 0.10936 0.44509 0.0
H372 H 0.08101 0.09953 0.53319 0.0
H373 H 0.09159 0.13462 0.4844 0.0
H374 H 0.08458 0.16419 0.62751 0.0
H375 H 0.07441 0.12875 0.67601 0.0
H376 H 0.04943 0.15834 0.68641 0.0
H377 H 0.94838 0.11692 0.5453 0.0
H378 H 0.94568 0.0649 0.59687 0.0
H379 H 0.042 0.07564 0.62759 0.0
C380 C 0.05083 0.18201 0.47466 0.0
C381 C 0.03373 0.20019 0.42987 0.0
C382 C 1.002 0.19563 0.43467 0.0
C383 C 0.98741 0.1719 0.48012 0.0
C384 C 0.00499 0.15354 0.5215 0.0
C385 C 0.03604 0.1588 0.52056 0.0
C386 C 0.05008 0.13436 0.56296 0.0
C387 C 0.07213 0.11854 0.50278 0.0
C388 C 0.06552 0.14719 0.64299 0.0
C389 C 0.02231 0.11357 0.58349 0.0
C390 C 0.9964 0.12505 0.56044 0.0
C391 C 0.96843 0.10809 0.56574 0.0
C392 C 0.96707 0.07859 0.59465 0.0
C393 C 0.99354 0.06657 0.61731 0.0
C394 C 0.02126 0.08456 0.61294 0.0
H395 H 0.32249 0.97034 0.45985 0.0
H396 H 0.32873 0.88722 0.30966 0.0
H397 H 0.37403 0.87747 0.38438 0.0
H398 H 0.39574 0.99364 0.43903 0.0
H399 H 0.4001 0.01194 0.54156 0.0
H400 H 0.36398 0.00818 0.49517 0.0
H401 H 0.33992 0.98028 0.6232 0.0
H402 H 0.37585 0.98454 0.67141 0.0
H403 H 0.356 0.94749 0.65709 0.0
H404 H 0.42347 0.88153 0.4609 0.0
H405 H 0.47092 0.89871 0.53258 0.0
H406 H 0.43298 0.98156 0.61885 0.0
C407 C 0.33234 0.94917 0.4466 0.0
C408 C 0.32163 0.92889 0.38172 0.0
C409 C 0.33612 0.90236 0.36158 0.0
C410 C 0.36197 0.89686 0.40316 0.0
C411 C 0.37311 0.91834 0.46371 0.0
C412 C 0.35851 0.94389 0.48566 0.0
C413 C 0.37713 0.96594 0.5421 0.0
C414 C 0.38467 0.99671 0.50202 0.0
C415 C 0.36128 0.96977 0.62859 0.0
C416 C 0.4048 0.94928 0.5468 0.0
C417 C 0.40207 0.92162 0.5028 0.0
C418 C 0.42565 0.90301 0.49633 0.0
C419 C 0.45253 0.91295 0.53658 0.0
C420 C 0.4556 0.94145 0.5806 0.0
C421 C 0.43138 0.95966 0.5854 0.0
H422 H 0.44212 0.33928 0.29739 0.0
H423 H 0.4276 0.27833 0.50235 0.0
H424 H 0.45535 0.31657 0.59445 0.0
H425 H 0.51374 0.37371 0.34451 0.0
H426 H 0.50585 0.41117 0.31942 0.0
H427 H 0.48628 0.37843 0.26814 0.0
H428 H 0.43523 0.3975 0.31682 0.0
H429 H 0.45431 0.43041 0.36868 0.0
H430 H 0.42755 0.40579 0.42659 0.0
H431 H 0.4872 0.361 0.66202 0.0
H432 H 0.51379 0.41062 0.70482 0.0
H433 H 0.49992 0.44414 0.46168 0.0
C434 C 0.44395 0.33387 0.36193 0.0
C435 C 0.43257 0.30537 0.39175 0.0
C436 C 0.43659 0.29953 0.47672 0.0
C437 C 0.4522 0.32122 0.52989 0.0
C438 C 0.46312 0.34888 0.4978 0.0
C439 C 0.45855 0.35546 0.41631 0.0
C440 C 0.47088 0.38746 0.39808 0.0
C441 C 0.49566 0.38768 0.32842 0.0
C442 C 0.44549 0.40641 0.37628 0.0
C443 C 0.48361 0.39778 0.48182 0.0
C444 C 0.47928 0.37511 0.53829 0.0
C445 C 0.49006 0.37911 0.6189 0.0
C446 C 0.50481 0.40736 0.64301 0.0
C447 C 0.50777 0.43132 0.58766 0.0
C448 C 0.49768 0.42622 0.5055 0.0
H449 H 0.21214 0.53648 0.46066 0.0
H450 H 0.20265 0.60404 0.28008 0.0
H451 H 0.15178 0.61095 0.33885 0.0
H452 H 0.14306 0.5006 0.45294 0.0
H453 H 0.13701 0.49416 0.56286 0.0
H454 H 0.17461 0.49863 0.51834 0.0
H455 H 0.18846 0.54259 0.62678 0.0
H456 H 0.15074 0.53816 0.67135 0.0
H457 H 0.16624 0.57447 0.6366 0.0
H458 H 0.09857 0.60093 0.39219 0.0
H459 H 0.0494 0.58178 0.45615 0.0
H460 H 0.0946 0.52474 0.61101 0.0
C461 C 0.20002 0.55385 0.43631 0.0
C462 C 0.21128 0.56957 0.36545 0.0
C463 C 0.19433 0.59156 0.33397 0.0
C464 C 0.16542 0.59567 0.36696 0.0
C465 C 0.15412 0.57828 0.43308 0.0
C466 C 0.17125 0.55855 0.46939 0.0
C467 C 0.15304 0.54101 0.53583 0.0
C468 C 0.15187 0.50658 0.51621 0.0
C469 C 0.1654 0.54961 0.6228 0.0
C470 C 0.12259 0.55253 0.52741 0.0
C471 C 0.12367 0.57406 0.46786 0.0
C472 C 0.09761 0.58496 0.44122 0.0
C473 C 0.06982 0.57381 0.47714 0.0
C474 C 0.06848 0.55242 0.53973 0.0
C475 C 0.09518 0.54192 0.56558 0.0
H476 H 0.95713 0.84524 0.10799 0.0
H477 H 0.94946 0.78289 0.88884 0.0
H478 H 0.97872 0.82126 0.80523 0.0
H479 H 0.94267 0.91006 0.9928 0.0
H480 H 0.96658 0.93575 0.0574 0.0
H481 H 0.94729 0.9023 0.10068 0.0
H482 H 0.99827 0.88641 0.14557 0.0
H483 H 0.01789 0.91941 0.10071 0.0
H484 H 0.02819 0.88223 0.06793 0.0
H485 H 0.01196 0.86571 0.74866 0.0
H486 H 0.03543 0.91654 0.71361 0.0
H487 H 0.01326 0.95118 0.96454 0.0
C488 C 0.96053 0.83943 0.0421 0.0
C489 C 0.95082 0.81048 0.00599 0.0
C490 C 0.95718 0.80438 0.91939 0.0
C491 C 0.97371 0.82612 0.87103 0.0
C492 C 0.98302 0.85413 0.90949 0.0
C493 C 0.97578 0.86111 0.99235 0.0
C494 C 0.98607 0.89364 0.01745 0.0
C495 C 0.95904 0.91148 0.04358 0.0
C496 C 0.00897 0.8955 0.08702 0.0
C497 C 1.00069 0.90386 0.93576 0.0
C498 C 0.99931 0.88058 0.87474 0.0
C499 C 0.01231 0.88436 0.795 0.0
C500 C 0.02563 0.91317 0.77586 0.0
C501 C 0.02519 0.93772 0.83572 0.0
C502 C 0.01347 0.93279 0.91735 0.0
H503 H 0.67076 0.03223 0.05046 0.0
H504 H 0.7322 0.99818 0.85811 0.0
H505 H 0.69704 0.00843 0.75028 0.0
H506 H 0.60742 0.99285 0.96764 0.0
H507 H 0.58235 0.02131 0.99697 0.0
H508 H 0.61475 0.01811 0.05763 0.0
H509 H 0.63345 0.07413 0.03667 0.0
H510 H 0.60089 0.07808 0.97702 0.0
H511 H 0.63804 0.08774 0.93236 0.0
H512 H 0.65386 0.0214 0.66416 0.0
H513 H 0.60427 0.0285 0.60928 0.0
H514 H 0.56816 0.0426 0.86209 0.0
C515 C 0.67704 0.02656 0.98593 0.0
C516 C 0.70434 0.014 0.96337 0.0
C517 C 0.71171 0.00814 0.87743 0.0
C518 C 0.6918 0.01378 0.81568 0.0
C519 C 0.66454 0.02488 0.84109 0.0
C520 C 0.65705 0.03078 0.92442 0.0
C521 C 0.62506 0.0389 0.93714 0.0
C522 C 0.60629 0.01646 0.99311 0.0
C523 C 0.62434 0.07166 0.97289 0.0
C524 C 0.61525 0.03576 0.84783 0.0
C525 C 0.63868 0.02892 0.79294 0.0
C526 C 0.63532 0.02634 0.7067 0.0
C527 C 0.60712 0.03029 0.67615 0.0
C528 C 0.5825 0.03524 0.73196 0.0
C529 C 0.58666 0.0383 0.81862 0.0
H530 H 0.59374 0.65609 0.07839 0.0
H531 H 0.54816 0.72203 0.95304 0.0
H532 H 0.52366 0.68095 0.86368 0.0
H533 H 0.59798 0.59762 0.90181 0.0
H534 H 0.58909 0.56734 0.97197 0.0
H535 H 0.60964 0.60214 0.00854 0.0
H536 H 0.56959 0.60742 0.12908 0.0
H537 H 0.54859 0.57314 0.09168 0.0
H538 H 0.53069 0.60785 0.10432 0.0
H539 H 0.49886 0.63225 0.80046 0.0
H540 H 0.47539 0.58011 0.77114 0.0
H541 H 0.53086 0.54657 0.95443 0.0
C542 C 0.57902 0.66213 0.0313 0.0
C543 C 0.57295 0.69254 0.02352 0.0
C544 C 0.55384 0.69917 0.95977 0.0
C545 C 0.53953 0.67587 0.90892 0.0
C546 C 0.54432 0.64604 0.92295 0.0
C547 C 0.56371 0.63912 0.98249 0.0
C548 C 0.5616 0.60536 0.99441 0.0
C549 C 0.59134 0.59236 0.96756 0.0
C550 C 0.55204 0.59804 0.08523 0.0
C551 C 0.53715 0.59446 0.93459 0.0
C552 C 0.52813 0.61813 0.89204 0.0
C553 C 0.50576 0.61358 0.83341 0.0
C554 C 0.49242 0.58405 0.81769 0.0
C555 C 0.50094 0.55975 0.86208 0.0
C556 C 0.52354 0.56501 0.9212 0.0
H557 H 0.82073 0.48071 0.9364 0.0
H558 H 0.84277 0.5629 0.08889 0.0
H559 H 0.89509 0.56486 0.03449 0.0
H560 H 0.88477 0.44779 0.96237 0.0
H561 H 0.89034 0.43211 0.85735 0.0
H562 H 0.8531 0.43874 0.89642 0.0
H563 H 0.84588 0.47316 0.77381 0.0
H564 H 0.88232 0.46424 0.73335 0.0
H565 H 0.87457 0.5033 0.75062 0.0
H566 H 0.94528 0.54977 -0.00121 0.0
H567 H 0.99121 0.52887 0.94331 0.0
H568 H 0.93846 0.46286 0.78689 0.0
C569 C 0.83621 0.49999 0.95451 0.0
C570 C 0.82787 0.52156 0.0172 0.0
C571 C 0.84885 0.54613 0.04115 0.0
C572 C 0.8786 0.54741 0.01077 0.0
C573 C 0.88672 0.52467 0.95372 0.0
C574 C 0.86606 0.50216 0.92262 0.0
C575 C 0.88153 0.47988 0.86426 0.0
C576 C 0.87716 0.44774 0.89711 0.0
C577 C 0.87039 0.48024 0.77511 0.0
C578 C 0.91409 0.49304 0.86943 0.0
C579 C 0.91637 0.5183 0.92388 0.0
C580 C 0.94386 0.53121 0.95207 0.0
C581 C 0.96984 0.51905 0.92033 0.0
C582 C 0.96846 0.49568 0.8565 0.0
C583 C 0.94014 0.48193 0.83202 0.0
H584 H 0.05948 0.22449 0.08487 0.0
H585 H 0.12924 0.19634 0.23376 0.0
H586 H 0.14363 0.16079 0.11837 0.0
H587 H 0.03249 0.15672 0.02478 0.0
H588 H 0.02283 0.16362 0.91972 0.0
H589 H 0.02515 0.19414 0.99761 0.0
H590 H 0.06418 0.22519 0.90424 0.0
H591 H 0.06167 0.19471 0.82504 0.0
H592 H 0.09768 0.20879 0.8652 0.0
H593 H 0.14179 0.12035 0.00654 0.0
H594 H 0.1231 0.07795 0.91056 0.0
H595 H 0.05289 0.13051 0.83606 0.0
C596 C 0.07894 0.21211 0.09052 0.0
C597 C 0.09388 0.21351 0.16643 0.0
C598 C 0.11816 0.19593 0.17477 0.0
C599 C 0.12645 0.17577 0.10952 0.0
C600 C 0.11014 0.1735 0.03669 0.0
C601 C 0.08702 0.19148 0.02642 0.0
C602 C 0.06904 0.18055 0.95077 0.0
C603 C 0.03543 0.17331 0.97475 0.0
C604 C 0.07342 0.20369 0.88224 0.0
C605 C 0.08393 0.15221 0.92458 0.0
C606 C 0.10833 0.14914 0.97269 0.0
C607 C 0.1233 0.12292 0.96684 0.0
C608 C 0.11249 0.0989 0.91246 0.0
C609 C 0.08669 0.10119 0.86609 0.0
C610 C 0.07298 0.1285 0.87003 0.0
H611 H 0.36392 0.9904 0.20206 0.0
H612 H 0.28727 0.98663 0.04297 0.0
H613 H 0.32104 0.00606 0.92724 0.0
H614 H 0.4099 0.05541 0.11173 0.0
H615 H 0.44416 0.03768 0.12025 0.0
H616 H 0.41335 0.0303 0.1949 0.0
H617 H 0.4136 0.97265 0.16046 0.0
H618 H 0.44432 0.97979 0.08597 0.0
H619 H 0.41015 0.95828 0.05349 0.0
H620 H 0.36417 0.02039 0.82484 0.0
H621 H 0.41197 0.02343 0.7418 0.0
H622 H 0.46032 0.01132 0.96501 0.0
C623 C 0.35401 0.99373 0.14311 0.0
C624 C 0.32285 0.98657 0.13147 0.0
C625 C 0.31095 0.99211 0.05378 0.0
C626 C 0.33001 0.00313 0.98771 0.0
C627 C 0.36084 0.00853 0.00052 0.0
C628 C 0.37269 0.00387 0.07647 0.0
C629 C 0.40674 0.00719 0.07179 0.0
C630 C 0.41926 0.03426 0.12798 0.0
C631 C 0.41943 0.97773 0.0942 0.0
C632 C 0.41238 0.01326 0.98017 0.0
C633 C 0.38567 0.01498 0.94075 0.0
C634 C 0.38516 0.01933 0.85533 0.0
C635 C 0.41249 0.02106 0.80868 0.0
C636 C 0.43987 0.01751 0.84698 0.0
C637 C 0.43977 0.01423 0.93416 0.0
H638 H 0.42821 0.26984 0.06148 0.0
H639 H 0.3447 0.29859 0.16839 0.0
H640 H 0.34533 0.33712 0.06261 0.0
H641 H 0.46235 0.33635 0.05089 0.0
H642 H 0.48403 0.33213 0.95417 0.0
H643 H 0.47198 0.29949 0.01238 0.0
H644 H 0.445 0.27323 0.88447 0.0
H645 H 0.45782 0.30545 0.82402 0.0
H646 H 0.41833 0.29274 0.8317 0.0
H647 H 0.36232 0.38088 0.97726 0.0
H648 H 0.39213 0.42358 0.91065 0.0
H649 H 0.46587 0.36786 0.86168 0.0
C650 C 0.40899 0.28274 0.05808 0.0
C651 C 0.38597 0.28082 0.12094 0.0
C652 C 0.36196 0.2992 0.11877 0.0
C653 C 0.36233 0.32129 0.05925 0.0
C654 C 0.38681 0.32454 0.0024 0.0
C655 C 0.40944 0.30525 -3e-05 0.0
C656 C 0.436 0.31695 0.94488 0.0
C657 C 0.46527 0.32151 0.99355 0.0
C658 C 0.43948 0.29584 0.8666 0.0
C659 C 0.42584 0.34688 0.92228 0.0
C660 C 0.39711 0.35052 0.95406 0.0
C661 C 0.38443 0.37788 0.9498 0.0
C662 C 0.40158 0.4021 0.91257 0.0
C663 C 0.43117 0.39884 0.88107 0.0
C664 C 0.44312 0.37073 0.88447 0.0
H665 H 0.23731 0.57339 0.06087 0.0
H666 H 0.25175 0.48071 0.10495 0.0
H667 H 0.22189 0.46309 0.9826 0.0
H668 H 0.16599 0.56134 0.03614 0.0
H669 H 0.16171 0.58714 0.9552 0.0
H670 H 0.19281 0.59392 0.02287 0.0
H671 H 0.2305 0.59442 0.89554 0.0
H672 H 0.1994 0.58837 0.82649 0.0
H673 H 0.22861 0.56301 0.81926 0.0
H674 H 0.1796 0.45474 0.88572 0.0
H675 H 0.1316 0.45671 0.81595 0.0
H676 H 0.14293 0.55475 0.83797 0.0
C677 C 0.23553 0.54956 0.04153 0.0
C678 C 0.2469 0.52839 0.09155 0.0
C679 C 0.24369 0.4973 0.06636 0.0
C680 C 0.2266 0.48711 0.99711 0.0
C681 C 0.21334 0.50839 0.95334 0.0
C682 C 0.21824 0.53913 0.9734 0.0
C683 C 0.19733 0.55691 0.92769 0.0
C684 C 0.17835 0.5759 0.98916 0.0
C685 C 0.21502 0.57685 0.86342 0.0
C686 C 0.17821 0.53126 0.88459 0.0
C687 C 0.18832 0.5035 0.8979 0.0
C688 C 0.17206 0.47637 0.87264 0.0
C689 C 0.14472 0.47768 0.83372 0.0
C690 C 0.13383 0.50589 0.8214 0.0
C691 C 0.15111 0.53292 0.84553 0.0
H692 H 0.88374 0.8241 0.24931 0.0
H693 H 0.92842 0.75094 0.34374 0.0
H694 H 0.93697 0.78065 0.47474 0.0
H695 H 0.94142 0.87278 0.28906 0.0
H696 H 0.92192 0.90593 0.31465 0.0
H697 H 0.905 0.8759 0.24792 0.0
H698 H 0.8577 0.87033 0.34693 0.0
H699 H 0.87401 0.90114 0.41333 0.0
H700 H 0.86172 0.86518 0.4567 0.0
H701 H 0.95347 0.82174 0.57741 0.0
H702 H 0.97701 0.86992 0.63911 0.0
H703 H 0.93327 0.91965 0.4616 0.0
C704 C 0.89468 0.81389 0.29818 0.0
C705 C 0.90606 0.78533 0.2842 0.0
C706 C 0.91914 0.77256 0.35166 0.0
C707 C 0.92439 0.78952 0.42685 0.0
C708 C 0.91688 0.81931 0.43332 0.0
C709 C 0.90219 0.83143 0.37057 0.0
C710 C 0.90382 0.86569 0.3811 0.0
C711 C 0.91895 0.88093 0.30365 0.0
C712 C 0.87244 0.8762 0.40072 0.0
C713 C 0.92334 0.87104 0.4563 0.0
C714 C 0.92936 0.84395 0.4879 0.0
C715 C 0.94846 0.84304 0.55407 0.0
C716 C 0.96192 0.87046 0.58828 0.0
C717 C 0.95711 0.89823 0.55424 0.0
C718 C 0.93732 0.89857 0.48824 0.0
H719 H 0.68609 0.02959 0.24319 0.0
H720 H 0.72778 0.94815 0.28755 0.0
H721 H 0.68827 0.93534 0.3974 0.0
H722 H 0.65515 0.0459 0.4583 0.0
H723 H 0.6214 0.05773 0.41779 0.0
H724 H 0.6565 0.06311 0.35851 0.0
H725 H 0.63132 0.03351 0.23178 0.0
H726 H 0.59653 0.02704 0.29152 0.0
H727 H 0.61439 0.9954 0.2438 0.0
H728 H 0.64085 0.92995 0.49417 0.0
H729 H 0.59179 0.93302 0.57057 0.0
H730 H 0.57887 0.01449 0.44448 0.0
C731 C 0.68754 0.0096 0.27827 0.0
C732 C 0.7101 0.98996 0.25779 0.0
C733 C 0.71102 0.96374 0.3036 0.0
C734 C 0.68847 0.95619 0.36526 0.0
C735 C 0.66525 0.97505 0.37938 0.0
C736 C 0.66489 0.00137 0.33738 0.0
C737 C 0.63612 0.0162 0.35602 0.0
C738 C 0.6427 0.04759 0.4003 0.0
C739 C 0.61857 0.01813 0.27603 0.0
C740 C 0.61991 0.99395 0.4144 0.0
C741 C 0.63721 0.97064 0.42857 0.0
C742 C 0.62716 0.94803 0.48304 0.0
C743 C 0.59919 0.94981 0.52559 0.0
C744 C 0.58128 0.9736 0.51186 0.0
C745 C 0.59163 0.99553 0.45424 0.0
H746 H 0.53511 0.69548 0.29624 0.0
H747 H 0.62207 0.73611 0.37315 0.0
H748 H 0.618 0.70433 0.49707 0.0
H749 H 0.49948 0.67679 0.50746 0.0
H750 H 0.48283 0.64106 0.46425 0.0
H751 H 0.48843 0.67343 0.4001 0.0
H752 H 0.51839 0.64203 0.29046 0.0
H753 H 0.51366 0.60991 0.35477 0.0
H754 H 0.5509 0.62512 0.32212 0.0
H755 H 0.60731 0.66145 0.59973 0.0
H756 H 0.59272 0.61191 0.66334 0.0
H757 H 0.51693 0.59661 0.50183 0.0
C758 C 0.55264 0.69866 0.34145 0.0
C759 C 0.57871 0.71833 0.32626 0.0
C760 C 0.60167 0.72151 0.38501 0.0
C761 C 0.59955 0.70342 0.45513 0.0
C762 C 0.5744 0.68239 0.46472 0.0
C763 C 0.55129 0.68016 0.40918 0.0
C764 C 0.52955 0.65248 0.42201 0.0
C765 C 0.49822 0.66149 0.45017 0.0
C766 C 0.52808 0.63115 0.34269 0.0
C767 C 0.54438 0.63877 0.4917 0.0
C768 C 0.56969 0.65661 0.51778 0.0
C769 C 0.58741 0.64751 0.58003 0.0
C770 C 0.57911 0.61941 0.61551 0.0
C771 C 0.55407 0.60055 0.5861 0.0
C772 C 0.53642 0.61059 0.5245 0.0
H773 H 0.80658 0.55345 0.31311 0.0
H774 H 0.77251 0.45891 0.30885 0.0
H775 H 0.80195 0.45172 0.43224 0.0
H776 H 0.87624 0.54317 0.33638 0.0
H777 H 0.88722 0.57547 0.40506 0.0
H778 H 0.85618 0.57654 0.33828 0.0
H779 H 0.82083 0.58831 0.46551 0.0
H780 H 0.85204 0.58833 0.53329 0.0
H781 H 0.81799 0.56418 0.55313 0.0
H782 H 0.84542 0.45136 0.52334 0.0
H783 H 0.89496 0.45912 0.58733 0.0
H784 H 0.90121 0.55429 0.53542 0.0
C785 C 0.8039 0.53178 0.34192 0.0
C786 C 0.78703 0.50683 0.30293 0.0
C787 C 0.78475 0.4784 0.33939 0.0
C788 C 0.80162 0.47413 0.40907 0.0
C789 C 0.82018 0.49865 0.44185 0.0
C790 C 0.82078 0.52722 0.41084 0.0
C791 C 0.84607 0.54852 0.44698 0.0
C792 C 0.86768 0.56166 0.37754 0.0
C793 C 0.83347 0.57383 0.50309 0.0
C794 C 0.86098 0.52699 0.49825 0.0
C795 C 0.8454 0.49849 0.49584 0.0
C796 C 0.85708 0.47385 0.52871 0.0
C797 C 0.88527 0.47846 0.56486 0.0
C798 C 0.90137 0.50749 0.56855 0.0
C799 C 0.8889 0.53206 0.53557 0.0
loop_
_geom_bond_atom_site_label_1
_geom_bond_atom_site_label_2
_geom_bond_distance
_geom_bond_site_symmetry_2
_ccdc_geom_bond_type
H0 C3 0.931 . S
H1 C6 0.928 . S
H2 C8 0.930 . S
C3 H0 0.931 . S
C3 C4 1.413 . S
C3 C5 1.360 1_554 S
C4 C3 1.413 . S
C4 C8 1.429 . S
C5 C3 1.360 1_556 S
C5 C6 1.372 . S
C6 H1 0.928 . S
C6 C5 1.372 . S
C6 C7 1.404 1_556 S
C7 C6 1.404 1_554 S
C7 C8 1.391 . S
C8 H2 0.930 . S
C8 C4 1.429 . S
C8 C7 1.391 . S
H9 C12 0.931 . S
H10 C15 0.928 . S
H11 C17 0.930 . S
C12 H9 0.931 . S
C12 C13 1.413 . S
C12 C14 1.360 1_554 S
C13 C12 1.413 . S
C13 C17 1.429 . S
C14 C12 1.360 1_556 S
C14 C15 1.372 . S
C15 H10 0.928 . S
C15 C14 1.372 . S
C15 C16 1.404 1_556 S
C16 C15 1.404 1_554 S
C16 C17 1.391 . S
C17 H11 0.930 . S
C17 C13 1.429 . S
C17 C16 1.391 . S
H18 C21 0.931 . S
H19 C24 0.928 1_556 S
H20 C26 0.933 . S
C21 H18 0.931 . S
C21 C22 1.414 . S
C21 C23 1.360 . S
C22 C21 1.414 . S
C22 C26 1.430 1_565 S
C23 C21 1.360 . S
C23 C24 1.374 . S
C24 H19 0.928 1_554 S
C24 C23 1.374 . S
C24 C25 1.403 . S
C25 C24 1.403 . S
C25 C26 1.391 1_565 S
C26 H20 0.933 . S
C26 C22 1.430 1_545 S
C26 C25 1.391 1_545 S
H27 C30 0.931 . S
H28 C33 0.928 . S
H29 C35 0.930 . S
C30 H27 0.931 . S
C30 C31 1.413 . S
C30 C32 1.360 . S
C31 C30 1.413 . S
C31 C35 1.429 1_554 S
C32 C30 1.360 . S
C32 C33 1.372 . S
C33 H28 0.928 . S
C33 C32 1.372 . S
C33 C34 1.404 . S
C34 C33 1.404 . S
C34 C35 1.391 1_554 S
C35 H29 0.930 . S
C35 C31 1.429 1_556 S
C35 C34 1.391 1_556 S
H36 C39 0.931 . S
H37 C42 0.928 . S
H38 C44 0.930 . S
C39 H36 0.931 . S
C39 C40 1.413 . S
C39 C41 1.360 . S
C40 C39 1.413 . S
C40 C44 1.429 . S
C41 C39 1.360 . S
C41 C42 1.372 . S
C42 H37 0.928 . S
C42 C41 1.372 . S
C42 C43 1.404 . S
C43 C42 1.404 . S
C43 C44 1.391 . S
C44 H38 0.930 . S
C44 C40 1.429 . S
C44 C43 1.391 . S
H45 C48 0.931 . S
H46 C51 0.928 . S
H47 C53 0.930 . S
C48 H45 0.931 . S
C48 C49 1.413 . S
C48 C50 1.360 . S
C49 C48 1.413 . S
C49 C53 1.429 . S
C50 C48 1.360 . S
C50 C51 1.372 . S
C51 H46 0.928 . S
C51 C50 1.372 . S
C51 C52 1.404 . S
C52 C51 1.404 . S
C52 C53 1.391 . S
C53 H47 0.930 . S
C53 C49 1.429 . S
C53 C52 1.391 . S
H54 C57 0.931 . S
H55 C60 0.928 . S
H56 C62 0.930 . S
C57 H54 0.931 . S
C57 C58 1.413 . S
C57 C59 1.360 . S
C58 C57 1.413 . S
C58 C62 1.429 . S
C59 C57 1.360 . S
C59 C60 1.372 . S
C60 H55 0.928 . S
C60 C59 1.372 . S
C60 C61 1.404 . S
C61 C60 1.404 . S
C61 C62 1.391 . S
C62 H56 0.930 . S
C62 C58 1.429 . S
C62 C61 1.391 . S
H63 C66 0.931 . S
H64 C69 0.928 . S
H65 C71 0.930 . S
C66 H63 0.931 . S
C66 C67 1.413 . S
C66 C68 1.360 . S
C67 C66 1.413 . S
C67 C71 1.429 . S
C68 C66 1.360 . S
C68 C69 1.372 . S
C69 H64 0.928 . S
C69 C68 1.372 . S
C69 C70 1.404 . S
C70 C69 1.404 . S
C70 C71 1.391 . S
C71 H65 0.930 . S
C71 C67 1.429 . S
C71 C70 1.391 . S
Tb72 O75 2.453 1_665 S
Tb72 O76 2.596 1_665 S
Tb72 O77 2.374 1_655 S
Tb72 O85 2.343 . S
Tb72 O87 2.353 1_565 S
Tb72 O89 2.427 . S
Tb72 O90 2.513 . S
C73 O77 1.251 . S
C73 O79 1.263 . S
Tb74 O76 2.343 . S
Tb74 O79 2.353 1_545 S
Tb74 O82 2.427 . S
Tb74 O83 2.513 . S
Tb74 O84 2.453 1_545 S
Tb74 O85 2.596 1_445 S
Tb74 O86 2.374 1_455 S
O75 Tb72 2.453 1_445 S
O75 C91 1.245 . S
O76 Tb72 2.596 1_445 S
O76 Tb74 2.343 . S
O76 C91 1.259 . S
O77 Tb72 2.374 1_455 S
O77 C73 1.251 . S
C78 O82 1.275 . S
C78 O83 1.246 . S
O79 C73 1.263 . S
O79 Tb74 2.353 1_565 S
C80 O84 1.245 1_655 S
C80 O85 1.259 . S
C81 O86 1.250 . S
C81 O87 1.263 . S
O82 Tb74 2.427 . S
O82 C78 1.275 . S
O83 Tb74 2.513 . S
O83 C78 1.246 . S
O84 Tb74 2.453 1_565 S
O84 C80 1.245 1_455 S
O85 Tb72 2.343 . S
O85 Tb74 2.596 1_665 S
O85 C80 1.259 . S
O86 Tb74 2.374 1_655 S
O86 C81 1.250 . S
O87 Tb72 2.353 1_545 S
O87 C81 1.263 . S
C88 O89 1.275 . S
C88 O90 1.246 . S
O89 Tb72 2.427 . S
O89 C88 1.275 . S
O90 Tb72 2.513 . S
O90 C88 1.246 . S
C91 O75 1.245 . S
C91 O76 1.259 . S
Tb92 O95 2.453 . S
Tb92 O96 2.596 1_545 S
Tb92 O97 2.374 . S
Tb92 O105 2.343 . S
Tb92 O107 2.353 . S
Tb92 O109 2.427 . S
Tb92 O110 2.513 . S
C93 O97 1.251 . S
C93 O99 1.263 1_545 S
Tb94 O96 2.343 . S
Tb94 O99 2.353 . S
Tb94 O102 2.427 . S
Tb94 O103 2.513 . S
Tb94 O104 2.453 . S
Tb94 O105 2.596 1_565 S
Tb94 O106 2.374 . S
O95 Tb92 2.453 . S
O95 C111 1.245 . S
O96 Tb92 2.596 1_565 S
O96 Tb94 2.343 . S
O96 C111 1.259 1_565 S
O97 Tb92 2.374 . S
O97 C93 1.251 . S
C98 O102 1.275 . S
C98 O103 1.246 . S
O99 C93 1.263 1_565 S
O99 Tb94 2.353 . S
C100 O104 1.245 . S
C100 O105 1.259 1_565 S
C101 O106 1.250 1_545 S
C101 O107 1.263 . S
O102 Tb94 2.427 . S
O102 C98 1.275 . S
O103 Tb94 2.513 . S
O103 C98 1.246 . S
O104 Tb94 2.453 . S
O104 C100 1.245 . S
O105 Tb92 2.343 . S
O105 Tb94 2.596 1_545 S
O105 C100 1.259 1_545 S
O106 Tb94 2.374 . S
O106 C101 1.250 1_565 S
O107 Tb92 2.353 . S
O107 C101 1.263 . S
C108 O109 1.275 . S
C108 O110 1.246 . S
O109 Tb92 2.427 . S
O109 C108 1.275 . S
O110 Tb92 2.513 . S
O110 C108 1.246 . S
C111 O95 1.245 . S
C111 O96 1.259 1_545 S
Tb112 O115 2.453 . S
Tb112 O116 2.596 . S
Tb112 O117 2.374 . S
Tb112 O125 2.343 . S
Tb112 O127 2.353 . S
Tb112 O129 2.427 . S
Tb112 O130 2.513 . S
C113 O117 1.251 . S
C113 O119 1.263 . S
Tb114 O116 2.343 . S
Tb114 O119 2.353 . S
Tb114 O122 2.427 . S
Tb114 O123 2.513 . S
Tb114 O124 2.453 . S
Tb114 O125 2.596 . S
Tb114 O126 2.374 . S
O115 Tb112 2.453 . S
O115 C131 1.245 . S
O116 Tb112 2.596 . S
O116 Tb114 2.343 . S
O116 C131 1.259 . S
O117 Tb112 2.374 . S
O117 C113 1.251 . S
C118 O122 1.275 . S
C118 O123 1.246 . S
O119 C113 1.263 . S
O119 Tb114 2.353 . S
C120 O124 1.245 . S
C120 O125 1.259 . S
C121 O126 1.250 . S
C121 O127 1.263 . S
O122 Tb114 2.427 . S
O122 C118 1.275 . S
O123 Tb114 2.513 . S
O123 C118 1.246 . S
O124 Tb114 2.453 . S
O124 C120 1.245 . S
O125 Tb112 2.343 . S
O125 Tb114 2.596 . S
O125 C120 1.259 . S
O126 Tb114 2.374 . S
O126 C121 1.250 . S
O127 Tb112 2.353 . S
O127 C121 1.263 . S
C128 O129 1.275 . S
C128 O130 1.246 . S
O129 Tb112 2.427 . S
O129 C128 1.275 . S
O130 Tb112 2.513 . S
O130 C128 1.246 . S
C131 O115 1.245 . S
C131 O116 1.259 . S
Tb132 O135 2.453 1_655 S
Tb132 O136 2.596 1_655 S
Tb132 O137 2.374 1_655 S
Tb132 O145 2.343 . S
Tb132 O147 2.353 . S
Tb132 O149 2.427 . S
Tb132 O150 2.513 . S
C133 O137 1.251 . S
C133 O139 1.263 . S
Tb134 O136 2.343 . S
Tb134 O139 2.353 . S
Tb134 O142 2.427 . S
Tb134 O143 2.513 . S
Tb134 O144 2.453 1_455 S
Tb134 O145 2.596 1_455 S
Tb134 O146 2.385 . S
O135 Tb132 2.453 1_455 S
O135 C151 1.245 . S
O136 Tb132 2.596 1_455 S
O136 Tb134 2.343 . S
O136 C151 1.259 . S
O137 Tb132 2.374 1_455 S
O137 C133 1.251 . S
C138 O142 1.275 . S
C138 O143 1.246 . S
O139 C133 1.263 . S
O139 Tb134 2.353 . S
C140 O144 1.245 . S
C140 O145 1.259 . S
C141 O146 1.236 1_655 S
C141 O147 1.263 . S
O142 Tb134 2.427 . S
O142 C138 1.275 . S
O143 Tb134 2.513 . S
O143 C138 1.246 . S
O144 Tb134 2.453 1_655 S
O144 C140 1.245 . S
O145 Tb132 2.343 . S
O145 Tb134 2.596 1_655 S
O145 C140 1.259 . S
O146 Tb134 2.385 . S
O146 C141 1.236 1_455 S
O147 Tb132 2.353 . S
O147 C141 1.263 . S
C148 O149 1.275 . S
C148 O150 1.246 . S
O149 Tb132 2.427 . S
O149 C148 1.275 . S
O150 Tb132 2.513 . S
O150 C148 1.246 . S
C151 O135 1.245 . S
C151 O136 1.259 . S
H152 C164 0.930 . S
H153 C166 0.930 . S
H154 C167 0.930 . S
H155 C171 0.959 . S
H156 C171 0.959 . S
H157 C171 0.961 . S
H158 C172 0.960 . S
H159 C172 0.961 . S
H160 C172 0.959 . S
H161 C175 0.929 . S
H162 C176 0.931 . S
H163 C178 0.930 . S
C164 H152 0.930 . S
C164 C165 1.399 1_565 S
C164 C169 1.399 . S
C165 C164 1.399 1_545 S
C165 C166 1.376 . S
C166 H153 0.930 . S
C166 C165 1.376 . S
C166 C167 1.388 . S
C167 H154 0.930 . S
C167 C166 1.388 . S
C167 C168 1.390 . S
C168 C167 1.390 . S
C168 C169 1.394 1_545 S
C168 C174 1.465 . S
C169 C164 1.399 . S
C169 C168 1.394 1_565 S
C169 C170 1.516 . S
C170 C169 1.516 . S
C170 C171 1.502 . S
C170 C172 1.561 . S
C170 C173 1.526 . S
C171 H155 0.959 . S
C171 H156 0.959 . S
C171 H157 0.961 . S
C171 C170 1.502 . S
C172 H158 0.960 . S
C172 H159 0.961 . S
C172 H160 0.959 . S
C172 C170 1.561 . S
C173 C170 1.526 . S
C173 C174 1.396 1_565 S
C173 C178 1.390 . S
C174 C168 1.465 . S
C174 C173 1.396 1_545 S
C174 C175 1.399 . S
C175 H161 0.929 . S
C175 C174 1.399 . S
C175 C176 1.385 . S
C176 H162 0.931 . S
C176 C175 1.385 . S
C176 C177 1.389 . S
C177 C176 1.389 . S
C177 C178 1.387 1_545 S
C178 H163 0.930 . S
C178 C173 1.390 . S
C178 C177 1.387 1_565 S
H179 C191 0.930 . S
H180 C193 0.930 . S
H181 C194 0.930 . S
H182 C198 0.959 . S
H183 C198 0.959 . S
H184 C198 0.961 . S
H185 C199 0.960 . S
H186 C199 0.961 . S
H187 C199 0.959 . S
H188 C202 0.929 . S
H189 C203 0.931 . S
H190 C205 0.930 . S
C191 H179 0.930 . S
C191 C192 1.399 . S
C191 C196 1.399 . S
C192 C191 1.399 . S
C192 C193 1.376 . S
C193 H180 0.930 . S
C193 C192 1.376 . S
C193 C194 1.388 . S
C194 H181 0.930 . S
C194 C193 1.388 . S
C194 C195 1.390 . S
C195 C194 1.390 . S
C195 C196 1.394 . S
C195 C201 1.465 . S
C196 C191 1.399 . S
C196 C195 1.394 . S
C196 C197 1.516 . S
C197 C196 1.516 . S
C197 C198 1.502 . S
C197 C199 1.561 . S
C197 C200 1.526 . S
C198 H182 0.959 . S
C198 H183 0.959 . S
C198 H184 0.961 . S
C198 C197 1.502 . S
C199 H185 0.960 . S
C199 H186 0.961 . S
C199 H187 0.959 . S
C199 C197 1.561 . S
C200 C197 1.526 . S
C200 C201 1.396 . S
C200 C205 1.390 . S
C201 C195 1.465 . S
C201 C200 1.396 . S
C201 C202 1.399 . S
C202 H188 0.929 . S
C202 C201 1.399 . S
C202 C203 1.385 . S
C203 H189 0.931 . S
C203 C202 1.385 . S
C203 C204 1.389 . S
C204 C203 1.389 . S
C204 C205 1.387 . S
C205 H190 0.930 . S
C205 C200 1.390 . S
C205 C204 1.387 . S
H206 C218 0.930 . S
H207 C220 0.930 . S
H208 C221 0.930 . S
H209 C225 0.959 . S
H210 C225 0.959 . S
H211 C225 0.961 . S
H212 C226 0.960 . S
H213 C226 0.961 . S
H214 C226 0.959 . S
H215 C229 0.929 . S
H216 C230 0.931 . S
H217 C232 0.930 . S
C218 H206 0.930 . S
C218 C219 1.399 . S
C218 C223 1.399 . S
C219 C218 1.399 . S
C219 C220 1.376 . S
C220 H207 0.930 . S
C220 C219 1.376 . S
C220 C221 1.388 . S
C221 H208 0.930 . S
C221 C220 1.388 . S
C221 C222 1.390 . S
C222 C221 1.390 . S
C222 C223 1.394 . S
C222 C228 1.465 . S
C223 C218 1.399 . S
C223 C222 1.394 . S
C223 C224 1.516 . S
C224 C223 1.516 . S
C224 C225 1.502 . S
C224 C226 1.561 . S
C224 C227 1.526 . S
C225 H209 0.959 . S
C225 H210 0.959 . S
C225 H211 0.961 . S
C225 C224 1.502 . S
C226 H212 0.960 . S
C226 H213 0.961 . S
C226 H214 0.959 . S
C226 C224 1.561 . S
C227 C224 1.526 . S
C227 C228 1.396 . S
C227 C232 1.390 . S
C228 C222 1.465 . S
C228 C227 1.396 . S
C228 C229 1.399 . S
C229 H215 0.929 . S
C229 C228 1.399 . S
C229 C230 1.385 . S
C230 H216 0.931 . S
C230 C229 1.385 . S
C230 C231 1.389 . S
C231 C230 1.389 . S
C231 C232 1.387 . S
C232 H217 0.930 . S
C232 C227 1.390 . S
C232 C231 1.387 . S
H233 C245 0.930 . S
H234 C247 0.930 . S
H235 C248 0.930 . S
H236 C252 0.959 . S
H237 C252 0.959 . S
H238 C252 0.961 . S
H239 C253 0.960 . S
H240 C253 0.961 . S
H241 C253 0.959 . S
H242 C256 0.929 . S
H243 C257 0.931 . S
H244 C259 0.930 . S
C245 H233 0.930 . S
C245 C246 1.399 . S
C245 C250 1.399 . S
C246 C245 1.399 . S
C246 C247 1.376 . S
C247 H234 0.930 . S
C247 C246 1.376 . S
C247 C248 1.388 . S
C248 H235 0.930 . S
C248 C247 1.388 . S
C248 C249 1.390 . S
C249 C248 1.390 . S
C249 C250 1.394 . S
C249 C255 1.465 . S
C250 C245 1.399 . S
C250 C249 1.394 . S
C250 C251 1.516 . S
C251 C250 1.516 . S
C251 C252 1.502 . S
C251 C253 1.561 . S
C251 C254 1.526 . S
C252 H236 0.959 . S
C252 H237 0.959 . S
C252 H238 0.961 . S
C252 C251 1.502 . S
C253 H239 0.960 . S
C253 H240 0.961 . S
C253 H241 0.959 . S
C253 C251 1.561 . S
C254 C251 1.526 . S
C254 C255 1.396 . S
C254 C259 1.390 . S
C255 C249 1.465 . S
C255 C254 1.396 . S
C255 C256 1.399 . S
C256 H242 0.929 . S
C256 C255 1.399 . S
C256 C257 1.385 . S
C257 H243 0.931 . S
C257 C256 1.385 . S
C257 C258 1.389 . S
C258 C257 1.389 . S
C258 C259 1.387 . S
C259 H244 0.930 . S
C259 C254 1.390 . S
C259 C258 1.387 . S
H260 C272 0.930 . S
H261 C274 0.930 . S
H262 C275 0.930 . S
H263 C279 0.959 1_554 S
H264 C279 0.959 . S
H265 C279 0.961 1_554 S
H266 C280 0.960 . S
H267 C280 0.961 . S
H268 C280 0.959 . S
H269 C283 0.929 . S
H270 C284 0.931 . S
H271 C286 0.930 . S
C272 H260 0.930 . S
C272 C273 1.399 1_565 S
C272 C277 1.399 1_554 S
C273 C272 1.399 1_545 S
C273 C274 1.376 . S
C274 H261 0.930 . S
C274 C273 1.376 . S
C274 C275 1.388 1_554 S
C275 H262 0.930 . S
C275 C274 1.388 1_556 S
C275 C276 1.390 . S
C276 C275 1.390 . S
C276 C277 1.394 1_545 S
C276 C282 1.465 . S
C277 C272 1.399 1_556 S
C277 C276 1.394 1_565 S
C277 C278 1.516 . S
C278 C277 1.516 . S
C278 C279 1.502 . S
C278 C280 1.561 . S
C278 C281 1.526 . S
C279 H263 0.959 1_556 S
C279 H264 0.959 . S
C279 H265 0.961 1_556 S
C279 C278 1.502 . S
C280 H266 0.960 . S
C280 H267 0.961 . S
C280 H268 0.959 . S
C280 C278 1.561 . S
C281 C278 1.526 . S
C281 C282 1.396 1_565 S
C281 C286 1.390 . S
C282 C276 1.465 . S
C282 C281 1.396 1_545 S
C282 C283 1.399 . S
C283 H269 0.929 . S
C283 C282 1.399 . S
C283 C284 1.385 . S
C284 H270 0.931 . S
C284 C283 1.385 . S
C284 C285 1.389 . S
C285 C284 1.389 . S
C285 C286 1.387 1_545 S
C286 H271 0.930 . S
C286 C281 1.390 . S
C286 C285 1.387 1_565 S
H287 C299 0.930 . S
H288 C301 0.930 . S
H289 C302 0.930 . S
H290 C306 0.959 . S
H291 C306 0.959 . S
H292 C306 0.961 . S
H293 C307 0.960 . S
H294 C307 0.961 1_556 S
H295 C307 0.959 . S
H296 C310 0.929 . S
H297 C311 0.931 . S
H298 C313 0.930 . S
C299 H287 0.930 . S
C299 C300 1.399 1_556 S
C299 C304 1.399 . S
C300 C299 1.399 1_554 S
C300 C301 1.376 . S
C301 H288 0.930 . S
C301 C300 1.376 . S
C301 C302 1.388 1_554 S
C302 H289 0.930 . S
C302 C301 1.388 1_556 S
C302 C303 1.390 . S
C303 C302 1.390 . S
C303 C304 1.394 . S
C303 C309 1.465 . S
C304 C299 1.399 . S
C304 C303 1.394 . S
C304 C305 1.516 . S
C305 C304 1.516 . S
C305 C306 1.502 . S
C305 C307 1.561 1_556 S
C305 C308 1.526 . S
C306 H290 0.959 . S
C306 H291 0.959 . S
C306 H292 0.961 . S
C306 C305 1.502 . S
C307 H293 0.960 . S
C307 H294 0.961 1_554 S
C307 H295 0.959 . S
C307 C305 1.561 1_554 S
C308 C305 1.526 . S
C308 C309 1.396 . S
C308 C313 1.390 . S
C309 C303 1.465 . S
C309 C308 1.396 . S
C309 C310 1.399 . S
C310 H296 0.929 . S
C310 C309 1.399 . S
C310 C311 1.385 . S
C311 H297 0.931 . S
C311 C310 1.385 . S
C311 C312 1.389 . S
C312 C311 1.389 . S
C312 C313 1.387 . S
C313 H298 0.930 . S
C313 C308 1.390 . S
C313 C312 1.387 . S
H314 C326 0.930 . S
H315 C328 0.930 . S
H316 C329 0.930 . S
H317 C333 0.959 . S
H318 C333 0.959 . S
H319 C333 0.961 . S
H320 C334 0.960 . S
H321 C334 0.961 . S
H322 C334 0.959 . S
H323 C337 0.929 . S
H324 C338 0.931 . S
H325 C340 0.930 . S
C326 H314 0.930 . S
C326 C327 1.399 . S
C326 C331 1.399 1_554 S
C327 C326 1.399 . S
C327 C328 1.376 1_554 S
C328 H315 0.930 . S
C328 C327 1.376 1_556 S
C328 C329 1.388 . S
C329 H316 0.930 . S
C329 C328 1.388 . S
C329 C330 1.390 . S
C330 C329 1.390 . S
C330 C331 1.394 . S
C330 C336 1.465 . S
C331 C326 1.399 1_556 S
C331 C330 1.394 . S
C331 C332 1.516 . S
C332 C331 1.516 . S
C332 C333 1.502 1_556 S
C332 C334 1.561 . S
C332 C335 1.526 . S
C333 H317 0.959 . S
C333 H318 0.959 . S
C333 H319 0.961 . S
C333 C332 1.502 1_554 S
C334 H320 0.960 . S
C334 H321 0.961 . S
C334 H322 0.959 . S
C334 C332 1.561 . S
C335 C332 1.526 . S
C335 C336 1.396 . S
C335 C340 1.390 . S
C336 C330 1.465 . S
C336 C335 1.396 . S
C336 C337 1.399 . S
C337 H323 0.929 . S
C337 C336 1.399 . S
C337 C338 1.385 . S
C338 H324 0.931 . S
C338 C337 1.385 . S
C338 C339 1.389 . S
C339 C338 1.389 . S
C339 C340 1.387 . S
C340 H325 0.930 . S
C340 C335 1.390 . S
C340 C339 1.387 . S
H341 C353 0.930 . S
H342 C355 0.930 . S
H343 C356 0.930 . S
H344 C360 0.959 . S
H345 C360 0.959 . S
H346 C360 0.961 . S
H347 C361 0.960 . S
H348 C361 0.961 . S
H349 C361 0.959 . S
H350 C364 0.929 . S
H351 C365 0.935 . S
H352 C367 0.930 . S
C353 H341 0.930 . S
C353 C354 1.399 . S
C353 C358 1.399 . S
C354 C353 1.399 . S
C354 C355 1.376 1_556 S
C355 H342 0.930 . S
C355 C354 1.376 1_554 S
C355 C356 1.388 . S
C356 H343 0.930 . S
C356 C355 1.388 . S
C356 C357 1.390 1_554 S
C357 C356 1.390 1_556 S
C357 C358 1.394 . S
C357 C363 1.465 . S
C358 C353 1.399 . S
C358 C357 1.394 . S
C358 C359 1.516 . S
C359 C358 1.516 . S
C359 C360 1.502 . S
C359 C361 1.561 . S
C359 C362 1.526 . S
C360 H344 0.959 . S
C360 H345 0.959 . S
C360 H346 0.961 . S
C360 C359 1.502 . S
C361 H347 0.960 . S
C361 H348 0.961 . S
C361 H349 0.959 . S
C361 C359 1.561 . S
C362 C359 1.526 . S
C362 C363 1.396 . S
C362 C367 1.390 . S
C363 C357 1.465 . S
C363 C362 1.396 . S
C363 C364 1.399 . S
C364 H350 0.929 . S
C364 C363 1.399 . S
C364 C365 1.385 . S
C365 H351 0.935 . S
C365 C364 1.385 . S
C365 C366 1.389 . S
C366 C365 1.389 . S
C366 C367 1.387 . S
C367 H352 0.930 . S
C367 C362 1.390 . S
C367 C366 1.387 . S
H368 C380 0.930 . S
H369 C382 0.930 . S
H370 C383 0.930 . S
H371 C387 0.959 . S
H372 C387 0.959 . S
H373 C387 0.961 . S
H374 C388 0.960 . S
H375 C388 0.961 . S
H376 C388 0.959 . S
H377 C391 0.929 . S
H378 C392 0.931 . S
H379 C394 0.930 . S
C380 H368 0.930 . S
C380 C381 1.399 . S
C380 C385 1.399 . S
C381 C380 1.399 . S
C381 C382 1.376 . S
C382 H369 0.930 . S
C382 C381 1.376 . S
C382 C383 1.388 . S
C383 H370 0.930 . S
C383 C382 1.388 . S
C383 C384 1.390 . S
C384 C383 1.390 . S
C384 C385 1.394 . S
C384 C390 1.465 . S
C385 C380 1.399 . S
C385 C384 1.394 . S
C385 C386 1.516 . S
C386 C385 1.516 . S
C386 C387 1.502 . S
C386 C388 1.561 . S
C386 C389 1.526 . S
C387 H371 0.959 . S
C387 H372 0.959 . S
C387 H373 0.961 . S
C387 C386 1.502 . S
C388 H374 0.960 . S
C388 H375 0.961 . S
C388 H376 0.959 . S
C388 C386 1.561 . S
C389 C386 1.526 . S
C389 C390 1.396 . S
C389 C394 1.390 . S
C390 C384 1.465 . S
C390 C389 1.396 . S
C390 C391 1.399 . S
C391 H377 0.929 . S
C391 C390 1.399 . S
C391 C392 1.385 . S
C392 H378 0.931 . S
C392 C391 1.385 . S
C392 C393 1.389 . S
C393 C392 1.389 . S
C393 C394 1.387 . S
C394 H379 0.930 . S
C394 C389 1.390 . S
C394 C393 1.387 . S
H395 C407 0.930 . S
H396 C409 0.930 . S
H397 C410 0.930 . S
H398 C414 0.959 . S
H399 C414 0.959 . S
H400 C414 0.961 . S
H401 C415 0.960 . S
H402 C415 0.961 . S
H403 C415 0.959 . S
H404 C418 0.929 . S
H405 C419 0.931 . S
H406 C421 0.930 . S
C407 H395 0.930 . S
C407 C408 1.399 . S
C407 C412 1.399 . S
C408 C407 1.399 . S
C408 C409 1.376 1_545 S
C409 H396 0.930 . S
C409 C408 1.376 1_565 S
C409 C410 1.388 . S
C410 H397 0.930 . S
C410 C409 1.388 . S
C410 C411 1.390 . S
C411 C410 1.390 . S
C411 C412 1.394 1_565 S
C411 C417 1.465 . S
C412 C407 1.399 . S
C412 C411 1.394 1_545 S
C412 C413 1.516 . S
C413 C412 1.516 . S
C413 C414 1.502 . S
C413 C415 1.561 . S
C413 C416 1.526 . S
C414 H398 0.959 . S
C414 H399 0.959 . S
C414 H400 0.961 . S
C414 C413 1.502 . S
C415 H401 0.960 . S
C415 H402 0.961 . S
C415 H403 0.959 . S
C415 C413 1.561 . S
C416 C413 1.526 . S
C416 C417 1.396 1_545 S
C416 C421 1.390 . S
C417 C411 1.465 . S
C417 C416 1.396 1_565 S
C417 C418 1.399 . S
C418 H404 0.929 . S
C418 C417 1.399 . S
C418 C419 1.385 . S
C419 H405 0.931 . S
C419 C418 1.385 . S
C419 C420 1.389 . S
C420 C419 1.389 . S
C420 C421 1.387 1_565 S
C421 H406 0.930 . S
C421 C416 1.390 . S
C421 C420 1.387 1_545 S
H422 C434 0.930 . S
H423 C436 0.930 . S
H424 C437 0.930 . S
H425 C441 0.959 . S
H426 C441 0.959 . S
H427 C441 0.961 . S
H428 C442 0.960 . S
H429 C442 0.961 . S
H430 C442 0.959 . S
H431 C445 0.929 . S
H432 C446 0.931 . S
H433 C448 0.930 . S
C434 H422 0.930 . S
C434 C435 1.399 . S
C434 C439 1.399 . S
C435 C434 1.399 . S
C435 C436 1.376 . S
C436 H423 0.930 . S
C436 C435 1.376 . S
C436 C437 1.388 . S
C437 H424 0.930 . S
C437 C436 1.388 . S
C437 C438 1.390 . S
C438 C437 1.390 . S
C438 C439 1.394 . S
C438 C444 1.465 . S
C439 C434 1.399 . S
C439 C438 1.394 . S
C439 C440 1.516 . S
C440 C439 1.516 . S
C440 C441 1.502 . S
C440 C442 1.561 . S
C440 C443 1.526 . S
C441 H425 0.959 . S
C441 H426 0.959 . S
C441 H427 0.961 . S
C441 C440 1.502 . S
C442 H428 0.960 . S
C442 H429 0.961 . S
C442 H430 0.959 . S
C442 C440 1.561 . S
C443 C440 1.526 . S
C443 C444 1.396 . S
C443 C448 1.390 . S
C444 C438 1.465 . S
C444 C443 1.396 . S
C444 C445 1.399 . S
C445 H431 0.929 . S
C445 C444 1.399 . S
C445 C446 1.385 . S
C446 H432 0.931 . S
C446 C445 1.385 . S
C446 C447 1.389 . S
C447 C446 1.389 . S
C447 C448 1.387 . S
C448 H433 0.930 . S
C448 C443 1.390 . S
C448 C447 1.387 . S
H449 C461 0.930 . S
H450 C463 0.930 . S
H451 C464 0.930 . S
H452 C468 0.959 . S
H453 C468 0.959 . S
H454 C468 0.961 . S
H455 C469 0.960 . S
H456 C469 0.961 . S
H457 C469 0.959 . S
H458 C472 0.929 . S
H459 C473 0.931 . S
H460 C475 0.930 . S
C461 H449 0.930 . S
C461 C462 1.399 . S
C461 C466 1.399 . S
C462 C461 1.399 . S
C462 C463 1.376 . S
C463 H450 0.930 . S
C463 C462 1.376 . S
C463 C464 1.388 . S
C464 H451 0.930 . S
C464 C463 1.388 . S
C464 C465 1.390 . S
C465 C464 1.390 . S
C465 C466 1.394 . S
C465 C471 1.465 . S
C466 C461 1.399 . S
C466 C465 1.394 . S
C466 C467 1.516 . S
C467 C466 1.516 . S
C467 C468 1.502 . S
C467 C469 1.561 . S
C467 C470 1.526 . S
C468 H452 0.959 . S
C468 H453 0.959 . S
C468 H454 0.961 . S
C468 C467 1.502 . S
C469 H455 0.960 . S
C469 H456 0.961 . S
C469 H457 0.959 . S
C469 C467 1.561 . S
C470 C467 1.526 . S
C470 C471 1.396 . S
C470 C475 1.390 . S
C471 C465 1.465 . S
C471 C470 1.396 . S
C471 C472 1.399 . S
C472 H458 0.929 . S
C472 C471 1.399 . S
C472 C473 1.385 . S
C473 H459 0.931 . S
C473 C472 1.385 . S
C473 C474 1.389 . S
C474 C473 1.389 . S
C474 C475 1.387 . S
C475 H460 0.930 . S
C475 C470 1.390 . S
C475 C474 1.387 . S
H476 C488 0.930 1_554 S
H477 C490 0.930 . S
H478 C491 0.930 . S
H479 C495 0.959 . S
H480 C495 0.959 . S
H481 C495 0.961 1_554 S
H482 C496 0.960 . S
H483 C496 0.961 . S
H484 C496 0.959 1_556 S
H485 C499 0.929 . S
H486 C500 0.931 . S
H487 C502 0.930 . S
C488 H476 0.930 1_556 S
C488 C489 1.399 . S
C488 C493 1.399 . S
C489 C488 1.399 . S
C489 C490 1.376 . S
C490 H477 0.930 . S
C490 C489 1.376 . S
C490 C491 1.388 . S
C491 H478 0.930 . S
C491 C490 1.388 . S
C491 C492 1.390 . S
C492 C491 1.390 . S
C492 C493 1.394 . S
C492 C498 1.465 . S
C493 C488 1.399 . S
C493 C492 1.394 . S
C493 C494 1.516 . S
C494 C493 1.516 . S
C494 C495 1.502 . S
C494 C496 1.561 1_556 S
C494 C497 1.526 . S
C495 H479 0.959 . S
C495 H480 0.959 . S
C495 H481 0.961 1_556 S
C495 C494 1.502 . S
C496 H482 0.960 . S
C496 H483 0.961 . S
C496 H484 0.959 1_554 S
C496 C494 1.561 1_554 S
C497 C494 1.526 . S
C497 C498 1.396 . S
C497 C502 1.390 . S
C498 C492 1.465 . S
C498 C497 1.396 . S
C498 C499 1.399 . S
C499 H485 0.929 . S
C499 C498 1.399 . S
C499 C500 1.385 . S
C500 H486 0.931 . S
C500 C499 1.385 . S
C500 C501 1.389 . S
C501 C500 1.389 . S
C501 C502 1.387 . S
C502 H487 0.930 . S
C502 C497 1.390 . S
C502 C501 1.387 . S
H503 C515 0.930 . S
H504 C517 0.930 . S
H505 C518 0.930 . S
H506 C522 0.959 . S
H507 C522 0.959 . S
H508 C522 0.961 . S
H509 C523 0.960 . S
H510 C523 0.961 . S
H511 C523 0.959 . S
H512 C526 0.929 . S
H513 C527 0.931 . S
H514 C529 0.930 . S
C515 H503 0.930 . S
C515 C516 1.399 . S
C515 C520 1.399 1_554 S
C516 C515 1.399 . S
C516 C517 1.376 1_554 S
C517 H504 0.930 . S
C517 C516 1.376 1_556 S
C517 C518 1.388 . S
C518 H505 0.930 . S
C518 C517 1.388 . S
C518 C519 1.390 . S
C519 C518 1.390 . S
C519 C520 1.394 . S
C519 C525 1.465 . S
C520 C515 1.399 1_556 S
C520 C519 1.394 . S
C520 C521 1.516 . S
C521 C520 1.516 . S
C521 C522 1.502 1_546 S
C521 C523 1.561 1_556 S
C521 C524 1.526 . S
C522 H506 0.959 . S
C522 H507 0.959 . S
C522 H508 0.961 . S
C522 C521 1.502 1_564 S
C523 H509 0.960 . S
C523 H510 0.961 . S
C523 H511 0.959 . S
C523 C521 1.561 1_554 S
C524 C521 1.526 . S
C524 C525 1.396 . S
C524 C529 1.390 . S
C525 C519 1.465 . S
C525 C524 1.396 . S
C525 C526 1.399 . S
C526 H512 0.929 . S
C526 C525 1.399 . S
C526 C527 1.385 . S
C527 H513 0.931 . S
C527 C526 1.385 . S
C527 C528 1.389 . S
C528 C527 1.389 . S
C528 C529 1.387 . S
C529 H514 0.930 . S
C529 C524 1.390 . S
C529 C528 1.387 . S
H530 C542 0.930 . S
H531 C544 0.930 1_554 S
H532 C545 0.930 . S
H533 C549 0.959 . S
H534 C549 0.959 . S
H535 C549 0.961 . S
H536 C550 0.960 . S
H537 C550 0.961 . S
H538 C550 0.959 . S
H539 C553 0.929 . S
H540 C554 0.931 . S
H541 C556 0.930 . S
C542 H530 0.930 . S
C542 C543 1.399 . S
C542 C547 1.399 . S
C543 C542 1.399 . S
C543 C544 1.376 . S
C544 H531 0.930 1_556 S
C544 C543 1.376 . S
C544 C545 1.388 . S
C545 H532 0.930 . S
C545 C544 1.388 . S
C545 C546 1.390 . S
C546 C545 1.390 . S
C546 C547 1.394 . S
C546 C552 1.465 . S
C547 C542 1.399 . S
C547 C546 1.394 . S
C547 C548 1.516 . S
C548 C547 1.516 . S
C548 C549 1.502 . S
C548 C550 1.561 . S
C548 C551 1.526 . S
C549 H533 0.959 . S
C549 H534 0.959 . S
C549 H535 0.961 . S
C549 C548 1.502 . S
C550 H536 0.960 . S
C550 H537 0.961 . S
C550 H538 0.959 . S
C550 C548 1.561 . S
C551 C548 1.526 . S
C551 C552 1.396 . S
C551 C556 1.390 . S
C552 C546 1.465 . S
C552 C551 1.396 . S
C552 C553 1.399 . S
C553 H539 0.929 . S
C553 C552 1.399 . S
C553 C554 1.385 . S
C554 H540 0.931 . S
C554 C553 1.385 . S
C554 C555 1.389 . S
C555 C554 1.389 . S
C555 C556 1.387 . S
C556 H541 0.930 . S
C556 C551 1.390 . S
C556 C555 1.387 . S
H557 C569 0.930 . S
H558 C571 0.930 . S
H559 C572 0.930 . S
H560 C576 0.959 . S
H561 C576 0.959 . S
H562 C576 0.961 . S
H563 C577 0.960 . S
H564 C577 0.961 . S
H565 C577 0.959 . S
H566 C580 0.929 . S
H567 C581 0.931 . S
H568 C583 0.930 . S
C569 H557 0.930 . S
C569 C570 1.399 . S
C569 C574 1.399 . S
C570 C569 1.399 . S
C570 C571 1.376 . S
C571 H558 0.930 . S
C571 C570 1.376 . S
C571 C572 1.388 . S
C572 H559 0.930 . S
C572 C571 1.388 . S
C572 C573 1.390 . S
C573 C572 1.390 . S
C573 C574 1.394 . S
C573 C579 1.465 . S
C574 C569 1.399 . S
C574 C573 1.394 . S
C574 C575 1.516 . S
C575 C574 1.516 . S
C575 C576 1.502 . S
C575 C577 1.561 . S
C575 C578 1.526 . S
C576 H560 0.959 . S
C576 H561 0.959 . S
C576 H562 0.961 . S
C576 C575 1.502 . S
C577 H563 0.960 . S
C577 H564 0.961 . S
C577 H565 0.959 . S
C577 C575 1.561 . S
C578 C575 1.526 . S
C578 C579 1.396 . S
C578 C583 1.390 . S
C579 C573 1.465 . S
C579 C578 1.396 . S
C579 C580 1.399 . S
C580 H566 0.929 . S
C580 C579 1.399 . S
C580 C581 1.385 . S
C581 H567 0.931 . S
C581 C580 1.385 . S
C581 C582 1.389 . S
C582 C581 1.389 . S
C582 C583 1.387 . S
C583 H568 0.930 . S
C583 C578 1.390 . S
C583 C582 1.387 . S
H584 C596 0.930 . S
H585 C598 0.930 . S
H586 C599 0.930 . S
H587 C603 0.959 . S
H588 C603 0.959 . S
H589 C603 0.961 . S
H590 C604 0.960 . S
H591 C604 0.961 . S
H592 C604 0.959 . S
H593 C607 0.929 . S
H594 C608 0.931 . S
H595 C610 0.930 . S
C596 H584 0.930 . S
C596 C597 1.399 . S
C596 C601 1.399 . S
C597 C596 1.399 . S
C597 C598 1.376 . S
C598 H585 0.930 . S
C598 C597 1.376 . S
C598 C599 1.388 . S
C599 H586 0.930 . S
C599 C598 1.388 . S
C599 C600 1.390 . S
C600 C599 1.390 . S
C600 C601 1.394 . S
C600 C606 1.465 . S
C601 C596 1.399 . S
C601 C600 1.394 . S
C601 C602 1.516 . S
C602 C601 1.516 . S
C602 C603 1.502 . S
C602 C604 1.561 1_554 S
C602 C605 1.526 . S
C603 H587 0.959 . S
C603 H588 0.959 . S
C603 H589 0.961 . S
C603 C602 1.502 . S
C604 H590 0.960 . S
C604 H591 0.961 . S
C604 H592 0.959 . S
C604 C602 1.561 1_556 S
C605 C602 1.526 . S
C605 C606 1.396 . S
C605 C610 1.390 1_554 S
C606 C600 1.465 . S
C606 C605 1.396 . S
C606 C607 1.399 . S
C607 H593 0.929 . S
C607 C606 1.399 . S
C607 C608 1.385 1_554 S
C608 H594 0.931 . S
C608 C607 1.385 1_556 S
C608 C609 1.389 . S
C609 C608 1.389 . S
C609 C610 1.387 . S
C610 H595 0.930 . S
C610 C605 1.390 1_556 S
C610 C609 1.387 . S
H611 C623 0.930 . S
H612 C625 0.930 . S
H613 C626 0.930 . S
H614 C630 0.959 . S
H615 C630 0.959 . S
H616 C630 0.961 1_554 S
H617 C631 0.960 . S
H618 C631 0.961 . S
H619 C631 0.959 . S
H620 C634 0.929 . S
H621 C635 0.931 . S
H622 C637 0.930 . S
C623 H611 0.930 . S
C623 C624 1.399 . S
C623 C628 1.399 . S
C624 C623 1.399 . S
C624 C625 1.376 1_545 S
C625 H612 0.930 . S
C625 C624 1.376 1_565 S
C625 C626 1.388 . S
C626 H613 0.930 . S
C626 C625 1.388 . S
C626 C627 1.390 . S
C627 C626 1.390 . S
C627 C628 1.394 1_565 S
C627 C633 1.465 1_554 S
C628 C623 1.399 . S
C628 C627 1.394 1_545 S
C628 C629 1.516 . S
C629 C628 1.516 . S
C629 C630 1.502 1_554 S
C629 C631 1.561 . S
C629 C632 1.526 1_554 S
C630 H614 0.959 . S
C630 H615 0.959 . S
C630 H616 0.961 1_556 S
C630 C629 1.502 1_556 S
C631 H617 0.960 . S
C631 H618 0.961 . S
C631 H619 0.959 . S
C631 C629 1.561 . S
C632 C629 1.526 1_556 S
C632 C633 1.396 1_545 S
C632 C637 1.390 . S
C633 C627 1.465 1_556 S
C633 C632 1.396 1_565 S
C633 C634 1.399 . S
C634 H620 0.929 . S
C634 C633 1.399 . S
C634 C635 1.385 . S
C635 H621 0.931 . S
C635 C634 1.385 . S
C635 C636 1.389 1_565 S
C636 C635 1.389 1_545 S
C636 C637 1.387 . S
C637 H622 0.930 . S
C637 C632 1.390 . S
C637 C636 1.387 . S
H638 C650 0.930 . S
H639 C652 0.930 . S
H640 C653 0.930 . S
H641 C657 0.959 . S
H642 C657 0.959 . S
H643 C657 0.961 . S
H644 C658 0.960 . S
H645 C658 0.961 . S
H646 C658 0.959 . S
H647 C661 0.929 . S
H648 C662 0.931 . S
H649 C664 0.930 . S
C650 H638 0.930 . S
C650 C651 1.399 . S
C650 C655 1.399 . S
C651 C650 1.399 . S
C651 C652 1.376 . S
C652 H639 0.930 . S
C652 C651 1.376 . S
C652 C653 1.388 . S
C653 H640 0.930 . S
C653 C652 1.388 . S
C653 C654 1.390 . S
C654 C653 1.390 . S
C654 C655 1.394 . S
C654 C660 1.465 . S
C655 C650 1.399 . S
C655 C654 1.394 . S
C655 C656 1.516 1_554 S
C656 C655 1.516 1_556 S
C656 C657 1.502 . S
C656 C658 1.561 . S
C656 C659 1.526 . S
C657 H641 0.959 . S
C657 H642 0.959 . S
C657 H643 0.961 . S
C657 C656 1.502 . S
C658 H644 0.960 . S
C658 H645 0.961 . S
C658 H646 0.959 . S
C658 C656 1.561 . S
C659 C656 1.526 . S
C659 C660 1.396 1_556 S
C659 C664 1.390 . S
C660 C654 1.465 . S
C660 C659 1.396 1_554 S
C660 C661 1.399 . S
C661 H647 0.929 . S
C661 C660 1.399 . S
C661 C662 1.385 1_554 S
C662 H648 0.931 . S
C662 C661 1.385 1_556 S
C662 C663 1.389 . S
C663 C662 1.389 . S
C663 C664 1.387 . S
C664 H649 0.930 . S
C664 C659 1.390 . S
C664 C663 1.387 . S
H665 C677 0.930 . S
H666 C679 0.930 . S
H667 C680 0.930 . S
H668 C684 0.959 . S
H669 C684 0.959 . S
H670 C684 0.961 . S
H671 C685 0.960 1_554 S
H672 C685 0.961 . S
H673 C685 0.959 . S
H674 C688 0.929 . S
H675 C689 0.931 . S
H676 C691 0.930 . S
C677 H665 0.930 . S
C677 C678 1.399 . S
C677 C682 1.399 . S
C678 C677 1.399 . S
C678 C679 1.376 . S
C679 H666 0.930 . S
C679 C678 1.376 . S
C679 C680 1.388 . S
C680 H667 0.930 . S
C680 C679 1.388 . S
C680 C681 1.390 . S
C681 C680 1.390 . S
C681 C682 1.394 . S
C681 C687 1.465 . S
C682 C677 1.399 . S
C682 C681 1.394 . S
C682 C683 1.516 . S
C683 C682 1.516 . S
C683 C684 1.502 . S
C683 C685 1.561 1_554 S
C683 C686 1.521 1_554 S
C684 H668 0.959 . S
C684 H669 0.959 . S
C684 H670 0.961 . S
C684 C683 1.502 . S
C685 H671 0.960 1_556 S
C685 H672 0.961 . S
C685 H673 0.959 . S
C685 C683 1.561 1_556 S
C686 C683 1.521 1_556 S
C686 C687 1.394 1_556 S
C686 C691 1.396 . S
C687 C681 1.465 . S
C687 C686 1.394 1_554 S
C687 C688 1.399 1_554 S
C688 H674 0.929 . S
C688 C687 1.399 1_556 S
C688 C689 1.385 . S
C689 H675 0.931 . S
C689 C688 1.385 . S
C689 C690 1.389 . S
C690 C689 1.389 . S
C690 C691 1.387 . S
C691 H676 0.930 . S
C691 C686 1.396 . S
C691 C690 1.387 . S
H692 C704 0.930 . S
H693 C706 0.930 . S
H694 C707 0.930 . S
H695 C711 0.959 . S
H696 C711 0.959 . S
H697 C711 0.961 . S
H698 C712 0.960 . S
H699 C712 0.961 . S
H700 C712 0.959 . S
H701 C715 0.929 . S
H702 C716 0.931 . S
H703 C718 0.930 . S
C704 H692 0.930 . S
C704 C705 1.399 . S
C704 C709 1.399 . S
C705 C704 1.399 . S
C705 C706 1.376 . S
C706 H693 0.930 . S
C706 C705 1.376 . S
C706 C707 1.388 . S
C707 H694 0.930 . S
C707 C706 1.388 . S
C707 C708 1.390 . S
C708 C707 1.390 . S
C708 C709 1.394 . S
C708 C714 1.465 . S
C709 C704 1.399 . S
C709 C708 1.394 . S
C709 C710 1.516 . S
C710 C709 1.516 . S
C710 C711 1.502 . S
C710 C712 1.561 . S
C710 C713 1.526 . S
C711 H695 0.959 . S
C711 H696 0.959 . S
C711 H697 0.961 . S
C711 C710 1.502 . S
C712 H698 0.960 . S
C712 H699 0.961 . S
C712 H700 0.959 . S
C712 C710 1.561 . S
C713 C710 1.526 . S
C713 C714 1.396 . S
C713 C718 1.390 . S
C714 C708 1.465 . S
C714 C713 1.396 . S
C714 C715 1.399 . S
C715 H701 0.929 . S
C715 C714 1.399 . S
C715 C716 1.385 . S
C716 H702 0.931 . S
C716 C715 1.385 . S
C716 C717 1.389 . S
C717 C716 1.389 . S
C717 C718 1.387 . S
C718 H703 0.930 . S
C718 C713 1.390 . S
C718 C717 1.387 . S
H719 C731 0.930 . S
H720 C733 0.930 . S
H721 C734 0.930 . S
H722 C738 0.959 . S
H723 C738 0.959 . S
H724 C738 0.961 . S
H725 C739 0.960 . S
H726 C739 0.961 . S
H727 C739 0.959 . S
H728 C742 0.929 . S
H729 C743 0.931 . S
H730 C745 0.930 . S
C731 H719 0.930 . S
C731 C732 1.399 1_545 S
C731 C736 1.399 . S
C732 C731 1.399 1_565 S
C732 C733 1.376 . S
C733 H720 0.930 . S
C733 C732 1.376 . S
C733 C734 1.388 . S
C734 H721 0.930 . S
C734 C733 1.388 . S
C734 C735 1.390 . S
C735 C734 1.390 . S
C735 C736 1.394 1_565 S
C735 C741 1.465 . S
C736 C731 1.399 . S
C736 C735 1.394 1_545 S
C736 C737 1.516 . S
C737 C736 1.516 . S
C737 C738 1.502 . S
C737 C739 1.561 . S
C737 C740 1.526 . S
C738 H722 0.959 . S
C738 H723 0.959 . S
C738 H724 0.961 . S
C738 C737 1.502 . S
C739 H725 0.960 . S
C739 H726 0.961 . S
C739 H727 0.959 . S
C739 C737 1.561 . S
C740 C737 1.526 . S
C740 C741 1.396 1_545 S
C740 C745 1.390 . S
C741 C735 1.465 . S
C741 C740 1.396 1_565 S
C741 C742 1.399 . S
C742 H728 0.929 . S
C742 C741 1.399 . S
C742 C743 1.385 . S
C743 H729 0.931 . S
C743 C742 1.385 . S
C743 C744 1.389 . S
C744 C743 1.389 . S
C744 C745 1.387 1_565 S
C745 H730 0.930 . S
C745 C740 1.390 . S
C745 C744 1.387 1_545 S
H746 C758 0.930 . S
H747 C760 0.930 . S
H748 C761 0.930 . S
H749 C765 0.959 . S
H750 C765 0.959 . S
H751 C765 0.961 . S
H752 C766 0.960 . S
H753 C766 0.961 . S
H754 C766 0.959 . S
H755 C769 0.929 . S
H756 C770 0.931 . S
H757 C772 0.930 . S
C758 H746 0.930 . S
C758 C759 1.399 . S
C758 C763 1.399 . S
C759 C758 1.399 . S
C759 C760 1.376 . S
C760 H747 0.930 . S
C760 C759 1.376 . S
C760 C761 1.388 . S
C761 H748 0.930 . S
C761 C760 1.388 . S
C761 C762 1.390 . S
C762 C761 1.390 . S
C762 C763 1.394 . S
C762 C768 1.465 . S
C763 C758 1.399 . S
C763 C762 1.394 . S
C763 C764 1.516 . S
C764 C763 1.516 . S
C764 C765 1.502 . S
C764 C766 1.561 . S
C764 C767 1.526 . S
C765 H749 0.959 . S
C765 H750 0.959 . S
C765 H751 0.961 . S
C765 C764 1.502 . S
C766 H752 0.960 . S
C766 H753 0.961 . S
C766 H754 0.959 . S
C766 C764 1.561 . S
C767 C764 1.526 . S
C767 C768 1.396 . S
C767 C772 1.390 . S
C768 C762 1.465 . S
C768 C767 1.396 . S
C768 C769 1.399 . S
C769 H755 0.929 . S
C769 C768 1.399 . S
C769 C770 1.385 . S
C770 H756 0.931 . S
C770 C769 1.385 . S
C770 C771 1.389 . S
C771 C770 1.389 . S
C771 C772 1.387 . S
C772 H757 0.930 . S
C772 C767 1.390 . S
C772 C771 1.387 . S
H773 C785 0.930 . S
H774 C787 0.930 . S
H775 C788 0.930 . S
H776 C792 0.959 . S
H777 C792 0.959 . S
H778 C792 0.961 . S
H779 C793 0.960 . S
H780 C793 0.961 . S
H781 C793 0.959 . S
H782 C796 0.929 . S
H783 C797 0.931 . S
H784 C799 0.930 . S
C785 H773 0.930 . S
C785 C786 1.399 . S
C785 C790 1.399 . S
C786 C785 1.399 . S
C786 C787 1.376 . S
C787 H774 0.930 . S
C787 C786 1.376 . S
C787 C788 1.388 . S
C788 H775 0.930 . S
C788 C787 1.388 . S
C788 C789 1.390 . S
C789 C788 1.390 . S
C789 C790 1.394 . S
C789 C795 1.465 . S
C790 C785 1.399 . S
C790 C789 1.394 . S
C790 C791 1.516 . S
C791 C790 1.516 . S
C791 C792 1.502 . S
C791 C793 1.561 . S
C791 C794 1.526 . S
C792 H776 0.959 . S
C792 H777 0.959 . S
C792 H778 0.961 . S
C792 C791 1.502 . S
C793 H779 0.960 . S
C793 H780 0.961 . S
C793 H781 0.959 . S
C793 C791 1.561 . S
C794 C791 1.526 . S
C794 C795 1.396 . S
C794 C799 1.390 . S
C795 C789 1.465 . S
C795 C794 1.396 . S
C795 C796 1.399 . S
C796 H782 0.929 . S
C796 C795 1.399 . S
C796 C797 1.385 . S
C797 H783 0.931 . S
C797 C796 1.385 . S
C797 C798 1.389 . S
C798 C797 1.389 . S
C798 C799 1.387 . S
C799 H784 0.930 . S
C799 C794 1.390 . S
C799 C798 1.387 . S
C165 C61 1.417 . S
C177 C73 1.458 1_545 S
C204 C108 1.735 . S
C192 C70 1.693 . S
C231 C113 1.311 . S
C219 C43 1.258 . S
C258 C133 1.603 . S
C246 C52 1.579 . S
C285 C81 1.439 . S
C273 C25 1.409 1_545 S
C300 C34 1.694 . S
C312 C98 1.741 . S
C327 C7 1.268 . S
C339 C121 1.279 . S
C354 C16 1.526 1_556 S
C366 C141 1.590 . S
C393 C91 1.086 . S
C381 C50 1.039 . S
C420 C100 0.715 . S
C408 C59 0.778 . S
C447 C131 1.258 . S
C435 C67 1.241 . S
C462 C41 0.868 . S
C474 C151 0.793 . S
C489 C14 1.112 . S
C501 C80 1.169 . S
C528 C111 0.787 . S
C516 C23 0.811 1_545 S
C555 C120 1.196 . S
C543 C31 1.119 1_556 S
C570 C5 0.860 . S
C582 C140 0.891 . S
C597 C49 1.627 . S
C609 C78 1.640 . S
C624 C58 1.384 . S
C636 C101 1.457 . S
C663 C118 1.661 . S
C651 C68 1.610 . S
C690 C138 1.587 . S
C678 C40 1.566 . S
C705 C13 1.580 . S
C717 C88 1.620 . S
C744 C93 1.466 1_565 S
C732 C22 1.386 . S
C771 C128 1.708 . S
C759 C32 1.663 . S
C786 C4 1.575 . S
C798 C148 1.582 . S
