# Generated by pormake.
# Topology ssa, (4,4)-cn, num edge types: 1
# Building blocks:
#     Node 0, Type 0, BuildingBlock: NAWXER_clean_sbu_0, # of connection points: 4
#     Node 1, Type 0, BuildingBlock: NAWXER_clean_sbu_0, # of connection points: 4
#     Node 2, Type 0, BuildingBlock: NAWXER_clean_sbu_0, # of connection points: 4
#     Node 3, Type 0, BuildingBlock: NAWXER_clean_sbu_0, # of connection points: 4
#     Node 4, Type 0, BuildingBlock: NAWXER_clean_sbu_0, # of connection points: 4
#     Node 5, Type 0, BuildingBlock: NAWXER_clean_sbu_0, # of connection points: 4
#     Node 6, Type 1, BuildingBlock: KUFVIS_clean_linker_0, # of connection points: 4
#     Node 7, Type 1, BuildingBlock: KUFVIS_clean_linker_0, # of connection points: 4
#     Node 8, Type 1, BuildingBlock: KUFVIS_clean_linker_0, # of connection points: 4
#     Node 9, Type 1, BuildingBlock: KUFVIS_clean_linker_0, # of connection points: 4
#     Node 10, Type 1, BuildingBlock: KUFVIS_clean_linker_0, # of connection points: 4
#     Node 11, Type 1, BuildingBlock: KUFVIS_clean_linker_0, # of connection points: 4
#     Edge 12, Type (0, 1), BuildingBlock: EZIPEK_clean_linker_0, # of connection points: 2
#     Edge 13, Type (0, 1), BuildingBlock: EZIPEK_clean_linker_0, # of connection points: 2
#     Edge 14, Type (0, 1), BuildingBlock: EZIPEK_clean_linker_0, # of connection points: 2
#     Edge 15, Type (0, 1), BuildingBlock: EZIPEK_clean_linker_0, # of connection points: 2
#     Edge 16, Type (0, 1), BuildingBlock: EZIPEK_clean_linker_0, # of connection points: 2
#     Edge 17, Type (0, 1), BuildingBlock: EZIPEK_clean_linker_0, # of connection points: 2
#     Edge 18, Type (0, 1), BuildingBlock: EZIPEK_clean_linker_0, # of connection points: 2
#     Edge 19, Type (0, 1), BuildingBlock: EZIPEK_clean_linker_0, # of connection points: 2
#     Edge 20, Type (0, 1), BuildingBlock: EZIPEK_clean_linker_0, # of connection points: 2
#     Edge 21, Type (0, 1), BuildingBlock: EZIPEK_clean_linker_0, # of connection points: 2
#     Edge 22, Type (0, 1), BuildingBlock: EZIPEK_clean_linker_0, # of connection points: 2
#     Edge 23, Type (0, 1), BuildingBlock: EZIPEK_clean_linker_0, # of connection points: 2
#     Edge 24, Type (0, 1), BuildingBlock: EZIPEK_clean_linker_0, # of connection points: 2
#     Edge 25, Type (0, 1), BuildingBlock: EZIPEK_clean_linker_0, # of connection points: 2
#     Edge 26, Type (0, 1), BuildingBlock: EZIPEK_clean_linker_0, # of connection points: 2
#     Edge 27, Type (0, 1), BuildingBlock: EZIPEK_clean_linker_0, # of connection points: 2
#     Edge 28, Type (0, 1), BuildingBlock: EZIPEK_clean_linker_0, # of connection points: 2
#     Edge 29, Type (0, 1), BuildingBlock: EZIPEK_clean_linker_0, # of connection points: 2
#     Edge 30, Type (0, 1), BuildingBlock: EZIPEK_clean_linker_0, # of connection points: 2
#     Edge 31, Type (0, 1), BuildingBlock: EZIPEK_clean_linker_0, # of connection points: 2
#     Edge 32, Type (0, 1), BuildingBlock: EZIPEK_clean_linker_0, # of connection points: 2
#     Edge 33, Type (0, 1), BuildingBlock: EZIPEK_clean_linker_0, # of connection points: 2
#     Edge 34, Type (0, 1), BuildingBlock: EZIPEK_clean_linker_0, # of connection points: 2
#     Edge 35, Type (0, 1), BuildingBlock: EZIPEK_clean_linker_0, # of connection points: 2
# Relax obj value: 0.007
# Max RMSD: 0.057
# Mean RMSD: 0.038
data_MOF--net-ssa--node1-NAWXER_clean_sbu_0--node2-KUFVIS_clean_linker_0--edge1-EZIPEK_clean_linker_0
_symmetry_space_group_name_H-M    P1
_symmetry_Int_Tables_number       1
_symmetry_cell_setting            triclinic
loop_
_symmetry_equiv_pos_as_xyz
'x, y, z'
_cell_length_a     37.849083
_cell_length_b     37.789043
_cell_length_c     21.232828
_cell_angle_alpha  89.502637
_cell_angle_beta   89.618348
_cell_angle_gamma 119.94836
loop_
_atom_site_label
_atom_site_type_symbol
_atom_site_fract_x
_atom_site_fract_y
_atom_site_fract_z
_atom_type_partial_charge
C0 C 0.08558 0.60321 0.97939 0.0
C1 C 0.98587 0.46655 0.90698 0.0
O2 O 0.06185 0.57998 0.02367 0.0
Zn3 Zn 1.01274 0.51748 0.03542 0.0
O4 O 0.08194 0.58947 0.92395 0.0
Zn5 Zn 0.03838 0.53419 0.94374 0.0
O6 O 0.98773 0.54331 0.96481 0.0
O7 O 0.9684 0.52478 0.06412 0.0
O8 O 1.01559 0.49501 0.87638 0.0
O9 O 0.98168 0.47063 0.96597 0.0
O10 O 0.03439 0.49488 0.09459 0.0
O11 O 0.06851 0.51173 0.00427 0.0
C12 C 0.96384 0.53809 0.01143 0.0
C13 C 0.06382 0.49826 0.06116 0.0
C14 C 0.48486 0.03355 0.58261 0.0
C15 C 0.52626 0.94611 0.47223 0.0
O16 O 0.48445 1.00281 0.60891 0.0
Zn17 Zn 0.50717 0.98934 0.53551 0.0
O18 O 0.49816 0.04421 0.52637 0.0
Zn19 Zn 0.52076 0.02679 0.44966 0.0
O20 O 0.47457 1.01299 0.39291 0.0
O21 O 0.45714 0.97243 0.4757 0.0
O22 O 0.52921 0.976 0.43939 0.0
O23 O 0.51545 0.94216 0.52996 0.0
O24 O 0.56642 0.04156 0.53357 0.0
O25 O 0.57618 0.07533 0.44395 0.0
C26 C 0.44678 0.98354 0.4256 0.0
C27 C 0.58897 0.0724 0.49814 0.0
C28 C 0.49632 0.42916 0.97275 0.0
C29 C 0.52031 0.54712 0.09881 0.0
O30 O 0.49724 0.45865 0.94139 0.0
Zn31 Zn 0.50457 0.517 0.95692 0.0
O32 O 0.49996 0.43123 0.03237 0.0
Zn33 Zn 0.50739 0.48591 0.04306 0.0
O34 O 0.4499 0.48011 0.02764 0.0
O35 O 0.451 0.51241 0.94004 0.0
O36 O 0.51819 0.515 0.12301 0.0
O37 O 0.51619 0.54991 0.03987 0.0
O38 O 0.55742 0.55349 0.91432 0.0
O39 O 0.56429 0.52358 -0.00159 0.0
C40 C 0.43216 0.49245 0.98975 0.0
C41 C 0.58075 0.54889 0.9527 0.0
C42 C 0.06341 0.59292 0.41154 0.0
C43 C 0.96518 0.45398 0.47579 0.0
O44 O 0.06933 0.58558 0.46834 0.0
Zn45 Zn 0.03939 0.53567 0.53494 0.0
O46 O 0.0323 0.56666 0.38231 0.0
Zn47 Zn 1.01139 0.52389 0.44571 0.0
O48 O 0.98088 0.54066 0.51572 0.0
O49 O 1.01742 0.5546 0.60181 0.0
O50 O 0.96792 0.47068 0.42239 0.0
O51 O 0.98974 0.47435 0.52 0.0
O52 O 0.08441 0.52586 0.55249 0.0
O53 O 0.06167 0.51228 0.45497 0.0
C54 C 0.98653 0.55145 0.57352 0.0
C55 C 0.08686 0.51464 0.49705 0.0
C56 C 0.57335 0.95426 0.98732 0.0
C57 C 0.53672 0.05878 0.91827 0.0
O58 O 0.57861 0.98184 0.02646 0.0
Zn59 Zn 0.57143 0.03311 0.03568 0.0
O60 O 0.56209 0.95591 0.93123 0.0
Zn61 Zn 0.5552 1.00443 0.94161 0.0
O62 O 0.6146 0.05341 0.94823 0.0
O63 O 0.6277 0.07883 0.04419 0.0
O64 O 0.5331 0.02981 0.88316 0.0
O65 O 0.55051 0.06186 0.97373 0.0
O66 O 0.52664 1.00977 0.09881 0.0
O67 O 0.50821 0.97838 0.00753 0.0
C68 C 0.63879 0.07998 0.98689 0.0
C69 C 0.49985 0.98162 0.06453 0.0
C70 C 0.57529 0.52254 0.59191 0.0
C71 C 0.45251 0.49362 0.47495 0.0
O72 O 0.54371 0.52018 0.61827 0.0
Zn73 Zn 0.51214 0.50839 0.54073 0.0
O74 O 0.57658 0.51817 0.53276 0.0
Zn75 Zn 0.54133 0.5056 0.45233 0.0
O76 O 0.57508 0.55897 0.40811 0.0
O77 O 0.54679 0.56526 0.49434 0.0
O78 O 0.48159 0.49542 0.44151 0.0
O79 O 0.45645 0.49868 0.53425 0.0
O80 O 0.50679 0.45116 0.52453 0.0
O81 O 0.53747 0.45206 0.43526 0.0
C82 C 0.57042 0.58204 0.44694 0.0
C83 C 0.51843 0.43336 0.48571 0.0
H84 H 0.37656 0.48042 0.22746 0.0
H85 H 0.2849 0.47396 0.35264 0.0
H86 H 0.27576 0.48624 0.15036 0.0
H87 H 0.21425 0.46912 0.16558 0.0
H88 H 0.13329 0.48408 0.288 0.0
H89 H 0.24072 0.49216 0.36524 0.0
C90 C 0.34801 0.48012 0.23434 0.0
C91 C 0.32663 0.48205 0.18216 0.0
C92 C 0.33336 0.47869 0.29549 0.0
C93 C 0.29573 0.47686 0.3047 0.0
C94 C 0.27336 0.47936 0.25328 0.0
C95 C 0.29008 0.48263 0.19173 0.0
C96 C 0.23361 0.4794 0.26393 0.0
C97 C 0.20746 0.47417 0.21294 0.0
C98 C 0.17206 0.47671 0.2217 0.0
C99 C 0.16053 0.4817 0.28181 0.0
C100 C 0.18497 0.48651 0.33339 0.0
C101 C 0.22168 0.48606 0.3246 0.0
H102 H 0.67466 0.12975 0.7378 0.0
H103 H 0.78281 0.22852 0.81419 0.0
H104 H 0.75504 0.22833 0.61591 0.0
H105 H 0.81734 0.2729 0.60214 0.0
H106 H 0.91268 0.38228 0.68016 0.0
H107 H 0.8229 0.29285 0.80446 0.0
C108 C 0.70262 0.15866 0.73087 0.0
C109 C 0.7133 0.17649 0.67053 0.0
C110 C 0.72744 0.1782 0.78253 0.0
C111 C 0.76386 0.2154 0.77355 0.0
C112 C 0.77528 0.23488 0.71363 0.0
C113 C 0.74893 0.21473 0.66247 0.0
C114 C 0.81408 0.2758 0.70485 0.0
C115 C 0.83082 0.29051 0.64384 0.0
C116 C 0.86552 0.3291 0.63529 0.0
C117 C 0.88569 0.35251 0.68726 0.0
C118 C 0.87087 0.33894 0.74804 0.0
C119 C 0.83467 0.30122 0.75694 0.0
H120 H 0.56122 0.65221 0.28455 0.0
H121 H 0.53653 0.73122 0.17161 0.0
H122 H 0.59829 0.77262 0.35039 0.0
H123 H 0.55535 0.80216 0.34956 0.0
H124 H 0.55833 0.89475 0.22748 0.0
H125 H 0.57739 0.80103 0.1495 0.0
C126 C 0.56307 0.68168 0.27799 0.0
C127 C 0.58129 0.71121 0.32362 0.0
C128 C 0.54824 0.68916 0.22317 0.0
C129 C 0.54944 0.72652 0.21407 0.0
C130 C 0.56715 0.75734 0.25999 0.0
C131 C 0.58371 0.74946 0.31493 0.0
C132 C 0.56707 0.79676 0.25096 0.0
C133 C 0.55998 0.81559 0.30281 0.0
C134 C 0.55709 0.85098 0.29449 0.0
C135 C 0.56121 0.8678 0.23391 0.0
C136 C 0.56842 0.84988 0.18147 0.0
C137 C 0.57164 0.81458 0.1902 0.0
H138 H 0.91253 0.55812 0.80458 0.0
H139 H 0.80903 0.55577 0.89014 0.0
H140 H 0.82692 0.56974 0.6873 0.0
H141 H 0.75832 0.53952 0.68934 0.0
H142 H 0.66516 0.55309 0.78141 0.0
H143 H 0.77735 0.59145 0.8766 0.0
C144 C 0.88525 0.5605 0.79975 0.0
C145 C 0.87217 0.56385 0.73988 0.0
C146 C 0.86281 0.55841 0.85338 0.0
C147 C 0.82676 0.55977 0.84775 0.0
C148 C 0.81308 0.5645 0.78823 0.0
C149 C 0.8364 0.56655 0.73394 0.0
C150 C 0.77341 0.5646 0.78404 0.0
C151 C 0.74855 0.54948 0.73017 0.0
C152 C 0.71011 0.54658 0.72945 0.0
C153 C 0.69553 0.55671 0.78223 0.0
C154 C 0.71926 0.57264 0.83506 0.0
C155 C 0.75876 0.57783 0.83564 0.0
H156 H 0.13741 0.67777 0.18243 0.0
H157 H 0.24042 0.78323 0.10055 0.0
H158 H 0.22874 0.76495 0.30336 0.0
H159 H 0.2633 0.83514 0.30081 0.0
H160 H 0.38679 0.91363 0.24029 0.0
H161 H 0.30808 0.81313 0.12489 0.0
C162 C 0.16554 0.70656 0.1881 0.0
C163 C 0.17997 0.71986 0.24848 0.0
C164 C 0.18749 0.72874 0.13489 0.0
C165 C 0.22415 0.76593 0.14226 0.0
C166 C 0.23972 0.78004 0.20324 0.0
C167 C 0.21712 0.75623 0.25619 0.0
C168 C 0.28009 0.81824 0.2121 0.0
C169 C 0.28734 0.8425 0.26648 0.0
C170 C 0.32616 0.87642 0.27691 0.0
C171 C 0.35696 0.8871 0.23249 0.0
C172 C 0.35024 0.86547 0.17735 0.0
C173 C 0.31221 0.83043 0.16725 0.0
H174 H 0.50367 0.36918 0.71982 0.0
H175 H 0.48433 0.26761 0.83624 0.0
H176 H 0.49785 0.26403 0.63401 0.0
H177 H 0.45642 0.19658 0.6517 0.0
H178 H 0.46474 0.10681 0.76407 0.0
H179 H 0.51742 0.22889 0.8316 0.0
C180 C 0.50014 0.33896 0.72416 0.0
C181 C 0.5008 0.31839 0.66993 0.0
C182 C 0.49467 0.32083 0.78394 0.0
C183 C 0.48952 0.28151 0.78976 0.0
C184 C 0.49032 0.26005 0.73623 0.0
C185 C 0.49628 0.27914 0.67612 0.0
C186 C 0.48396 0.21763 0.74368 0.0
C187 C 0.4649 0.18845 0.69577 0.0
C188 C 0.45973 0.14916 0.7026 0.0
C189 C 0.46873 0.13731 0.75951 0.0
C190 C 0.49178 0.16616 0.8039 0.0
C191 C 0.49893 0.20639 0.79712 0.0
C192 C 0.13338 0.52602 0.10651 0.0
C193 C 0.09536 0.49158 0.09078 0.0
C194 C 0.11451 0.44613 0.1452 0.0
C195 C 0.14977 0.48095 0.16768 0.0
N196 N 0.19373 0.55396 0.17128 0.0
N197 N 0.04948 0.41892 0.09191 0.0
C198 C 0.15991 0.52086 0.14764 0.0
C199 C 0.08603 0.45151 0.10867 0.0
N200 N 0.14382 0.56384 0.08302 0.0
N201 N 0.10851 0.40813 0.15926 0.0
H202 H 0.02909 0.42185 0.06248 0.0
H203 H 0.03857 0.3892 0.10835 0.0
H204 H 0.12906 0.40374 0.18607 0.0
H205 H 0.08507 0.38118 0.14116 0.0
H206 H 0.17279 0.58931 0.08642 0.0
H207 H 0.12423 0.56956 0.05642 0.0
H208 H 0.19989 0.58395 0.16652 0.0
H209 H 0.21513 0.55144 0.19875 0.0
C210 C 0.63181 0.14303 0.54247 0.0
C211 C 0.62812 0.10506 0.52515 0.0
C212 C 0.68777 0.12044 0.59012 0.0
C213 C 0.68675 0.15454 0.61565 0.0
N214 N 0.65745 0.19829 0.61787 0.0
N215 N 0.65358 0.05815 0.52932 0.0
C216 C 0.65915 0.16629 0.59144 0.0
C217 C 0.65682 0.09425 0.54758 0.0
N218 N 0.60861 0.1565 0.5131 0.0
N219 N 0.71875 0.1135 0.60612 0.0
H220 H 0.63344 0.04008 0.49452 0.0
H221 H 0.66967 0.04541 0.54973 0.0
H222 H 0.74175 0.13208 0.6371 0.0
H223 H 0.7237 0.09154 0.58513 0.0
H224 H 0.61258 0.18557 0.51894 0.0
H225 H 0.58756 0.13996 0.47853 0.0
H226 H 0.63512 0.20581 0.60776 0.0
H227 H 0.67696 0.21604 0.65344 0.0
C228 C 0.49383 0.58211 0.16721 0.0
C229 C 0.52723 0.58271 0.13548 0.0
C230 C 0.56505 0.65741 0.1369 0.0
C231 C 0.53434 0.65661 0.17604 0.0
N232 N 0.46909 0.61982 0.22795 0.0
N233 N 0.59614 0.61978 0.09514 0.0
C234 C 0.49818 0.61932 0.1901 0.0
C235 C 0.56326 0.62016 0.12155 0.0
N236 N 0.45785 0.54621 0.1741 0.0
N237 N 0.59628 0.69408 0.11572 0.0
H238 H 0.59599 0.59274 0.08501 0.0
H239 H 0.62459 0.64576 0.0885 0.0
H240 H 0.59786 0.72171 0.12653 0.0
H241 H 0.61817 0.69701 0.08294 0.0
H242 H 0.43129 0.5443 0.19176 0.0
H243 H 0.45404 0.5182 0.1597 0.0
H244 H 0.4441 0.59379 0.24683 0.0
H245 H 0.47096 0.64713 0.24197 0.0
C246 C 0.92025 0.51899 0.63458 0.0
C247 C 0.95429 0.55488 0.60919 0.0
C248 C 0.92962 0.59702 0.65976 0.0
C249 C 0.89561 0.56113 0.68492 0.0
N250 N 0.85359 0.48796 0.68573 0.0
N251 N 0.98752 0.62704 0.58684 0.0
C252 C 0.88931 0.52209 0.66848 0.0
C253 C 0.95767 0.59363 0.6183 0.0
N254 N 0.91845 0.4821 0.6288 0.0
N255 N 0.93596 0.63435 0.67779 0.0
H256 H 1.00882 0.62555 0.55717 0.0
H257 H 0.98943 0.65549 0.58632 0.0
H258 H 0.91508 0.63774 0.70572 0.0
H259 H 0.96253 0.66174 0.66763 0.0
H260 H 0.89718 0.45555 0.65232 0.0
H261 H 0.94016 0.47843 0.60382 0.0
H262 H 0.84513 0.45869 0.67055 0.0
H263 H 0.83056 0.48937 0.7109 0.0
C264 C 0.42334 0.94374 0.06291 0.0
C265 C 0.46008 0.94891 0.08947 0.0
C266 C 0.4205 0.8839 0.14712 0.0
C267 C 0.3842 0.88369 0.13083 0.0
N268 N 0.35 0.91264 0.07318 0.0
N269 N 0.49439 0.92198 0.15276 0.0
C270 C 0.38527 0.91286 0.08752 0.0
C271 C 0.45891 0.91825 0.13024 0.0
N272 N 0.42466 0.96789 0.01362 0.0
N273 N 0.4176 0.85125 0.17987 0.0
H274 H 0.52317 0.94548 0.13899 0.0
H275 H 0.49558 0.90283 0.18712 0.0
H276 H 0.38936 0.82605 0.19197 0.0
H277 H 0.4423 0.84737 0.19024 0.0
H278 H 0.3991 0.96239 0.98795 0.0
H279 H 0.45166 0.99142 -0.00544 0.0
H280 H 0.34925 0.93654 0.04963 0.0
H281 H 0.32134 0.88916 0.08754 0.0
C282 C 0.55069 0.39678 0.53756 0.0
C283 C 0.51579 0.39476 0.50919 0.0
C284 C 0.47112 0.33464 0.57508 0.0
C285 C 0.50585 0.33881 0.60699 0.0
N286 N 0.57835 0.36596 0.60852 0.0
N287 N 0.44436 0.35644 0.48802 0.0
C288 C 0.54557 0.36712 0.58433 0.0
C289 C 0.4765 0.36146 0.52345 0.0
N290 N 0.58851 0.42899 0.5235 0.0
N291 N 0.43303 0.30646 0.59645 0.0
H292 H 0.44826 0.376 0.45022 0.0
H293 H 0.41498 0.33156 0.49232 0.0
H294 H 0.42823 0.28557 0.63256 0.0
H295 H 0.40626 0.30457 0.5803 0.0
H296 H 0.61462 0.43582 0.54865 0.0
H297 H 0.5936 0.45009 0.48769 0.0
H298 H 0.60794 0.38328 0.5908 0.0
H299 H 0.57535 0.34499 0.64342 0.0
C300 C 0.5709 0.91868 0.43584 0.0
C301 C 0.53166 0.91465 0.43921 0.0
C302 C 0.50719 0.86172 0.35831 0.0
C303 C 0.54774 0.86985 0.34882 0.0
N304 N 0.61873 0.90621 0.37662 0.0
N305 N 0.46208 0.88309 0.40464 0.0
C306 C 0.5797 0.89796 0.38774 0.0
C307 C 0.49952 0.88593 0.40125 0.0
N308 N 0.59964 0.94256 0.47857 0.0
N309 N 0.47604 0.83058 0.32645 0.0
H310 H 0.45475 0.89848 0.43822 0.0
H311 H 0.43876 0.86697 0.37287 0.0
H312 H 0.48072 0.81258 0.29424 0.0
H313 H 0.44533 0.82042 0.33512 0.0
H314 H 0.62793 0.94449 0.48256 0.0
H315 H 0.5938 0.95808 0.51385 0.0
H316 H 0.64421 0.92953 0.39827 0.0
H317 H 0.62608 0.89099 0.34278 0.0
C318 C 0.64744 0.60251 0.89998 0.0
C319 C 0.62634 0.56937 0.94304 0.0
C320 C 0.68224 0.55456 0.93888 0.0
C321 C 0.69965 0.58243 0.8878 0.0
N322 N 0.70872 0.64287 0.83543 0.0
N323 N 0.6394 0.53671 0.03167 0.0
C324 C 0.68579 0.61036 0.87464 0.0
C325 C 0.64864 0.55254 0.97191 0.0
N326 N 0.63107 0.62634 0.8842 0.0
N327 N 0.69583 0.52819 0.95345 0.0
H328 H 0.61953 0.54065 0.06114 0.0
H329 H 0.6564 0.52604 0.05522 0.0
H330 H 0.7213 0.52963 0.93179 0.0
H331 H 0.68043 0.50376 0.98499 0.0
H332 H 0.64243 0.6484 0.8485 0.0
H333 H 0.60639 0.62471 0.90898 0.0
H334 H 0.70171 0.66548 0.82421 0.0
H335 H 0.73673 0.64828 0.81723 0.0
C336 C 0.12552 0.62206 0.3421 0.0
C337 C 0.09658 0.62798 0.37657 0.0
C338 C 0.1279 0.69841 0.33632 0.0
C339 C 0.1568 0.69236 0.30223 0.0
N340 N 0.19002 0.65311 0.28489 0.0
N341 N 0.07485 0.67337 0.41739 0.0
C342 C 0.15791 0.65567 0.30957 0.0
C343 C 0.09941 0.66682 0.37743 0.0
N344 N 0.12106 0.58394 0.33817 0.0
N345 N 0.1265 0.73351 0.32699 0.0
H346 H 0.05308 0.65047 0.4468 0.0
H347 H 0.07799 0.70198 0.42481 0.0
H348 H 0.14779 0.75767 0.29889 0.0
H349 H 0.10327 0.73796 0.34445 0.0
H350 H 0.1384 0.57676 0.30822 0.0
H351 H 0.09787 0.55845 0.36137 0.0
H352 H 0.19466 0.62854 0.29298 0.0
H353 H 0.21425 0.67748 0.26097 0.0
C354 C 0.50085 0.10009 0.92754 0.0
C355 C 0.52917 0.09189 0.89514 0.0
C356 C 0.54698 0.15065 0.82461 0.0
C357 C 0.51315 0.15297 0.84876 0.0
N358 N 0.4587 0.13194 0.92394 0.0
N359 N 0.58357 0.11306 0.81821 0.0
C360 C 0.49098 0.12889 0.90147 0.0
C361 C 0.55377 0.11851 0.84539 0.0
N362 N 0.4835 0.08071 0.98338 0.0
N363 N 0.57183 0.17895 0.78058 0.0
H364 H 0.59171 0.09222 0.83535 0.0
H365 H 0.59991 0.12839 0.77779 0.0
H366 H 0.56714 0.20262 0.76542 0.0
H367 H 0.59849 0.1812 0.76254 0.0
H368 H 0.46623 0.08865 0.01214 0.0
H369 H 0.48891 0.05892 0.00415 0.0
H370 H 0.43726 0.11144 0.9562 0.0
H371 H 0.45257 0.15447 0.90771 0.0
C372 C 0.41886 0.52544 0.41459 0.0
C373 C 0.41654 0.48984 0.44161 0.0
C374 C 0.35658 0.44645 0.3779 0.0
C375 C 0.35932 0.48208 0.35016 0.0
N376 N 0.38714 0.55505 0.35029 0.0
N377 N 0.38003 0.4172 0.45895 0.0
C378 C 0.38855 0.52147 0.37139 0.0
C379 C 0.38414 0.45051 0.42658 0.0
N380 N 0.45125 0.56299 0.42807 0.0
N381 N 0.32861 0.40891 0.35593 0.0
H382 H 0.40001 0.41959 0.49448 0.0
H383 H 0.35543 0.38778 0.45435 0.0
H384 H 0.30726 0.40496 0.32183 0.0
H385 H 0.32758 0.38181 0.36897 0.0
H386 H 0.45806 0.58974 0.40375 0.0
H387 H 0.47277 0.56723 0.46204 0.0
H388 H 0.40479 0.58415 0.36853 0.0
H389 H 0.3661 0.55346 0.31733 0.0
C390 C 0.92306 0.43647 0.84061 0.0
C391 C 0.95296 0.43135 0.87318 0.0
C392 C 0.92316 0.36133 0.83394 0.0
C393 C 0.8936 0.36665 0.80086 0.0
N394 N 0.85918 0.40477 0.78371 0.0
N395 N 0.97658 0.38692 0.91239 0.0
C396 C 0.89154 0.40285 0.80806 0.0
C397 C 0.95127 0.39299 0.87379 0.0
N398 N 0.92548 0.47383 0.83932 0.0
N399 N 0.92568 0.32691 0.82462 0.0
H400 H 0.99829 0.40985 0.94058 0.0
H401 H 0.97419 0.35855 0.92003 0.0
H402 H 0.90477 0.30262 0.7976 0.0
H403 H 0.9495 0.32316 0.8409 0.0
H404 H 0.90772 0.48104 0.81061 0.0
H405 H 0.94706 0.49875 0.86449 0.0
H406 H 0.85357 0.42868 0.79162 0.0
H407 H 0.83568 0.38045 0.75987 0.0
C408 C 0.93271 0.58106 0.98957 0.0
C409 C 0.92762 0.5417 -0.00135 0.0
C410 C 0.86785 0.51165 0.93143 0.0
C411 C 0.87666 0.55168 0.91494 0.0
N412 N 0.90871 0.62308 0.9388 0.0
N413 N 0.88452 0.46881 -0.00366 0.0
C414 C 0.90593 0.58598 0.94846 0.0
C415 C 0.89267 0.50663 0.97631 0.0
N416 N 0.96448 0.61354 0.01798 0.0
N417 N 0.8377 0.47899 0.90068 0.0
H418 H 0.90268 0.46482 0.02914 0.0
H419 H 0.85842 0.44173 0.98477 0.0
H420 H 0.81817 0.48192 0.86933 0.0
H421 H 0.83258 0.44933 0.90453 0.0
H422 H 0.97272 0.64389 0.00992 0.0
H423 H 0.98293 0.60956 0.05033 0.0
H424 H 0.92834 0.64941 0.96296 0.0
H425 H 0.88914 0.62688 0.90867 0.0
C426 C 0.37738 0.9192 0.42915 0.0
C427 C 0.40308 0.95949 0.40499 0.0
C428 C 0.35293 0.94499 0.3225 0.0
C429 C 0.33772 0.90267 0.33324 0.0
N430 N 0.3327 0.84887 0.4012 0.0
N431 N 0.40595 1.01479 0.34369 0.0
C432 C 0.34825 0.8895 0.38884 0.0
C433 C 0.38767 0.97392 0.3565 0.0
N434 N 0.37911 0.90971 0.49078 0.0
N435 N 0.33517 0.95662 0.27729 0.0
H436 H 0.42746 0.03645 0.37366 0.0
H437 H 0.39909 0.02733 0.30512 0.0
H438 H 0.30982 0.93504 0.25266 0.0
H439 H 0.34345 0.98677 0.26707 0.0
H440 H 0.35936 0.88105 0.51052 0.0
H441 H 0.3952 0.93196 0.52417 0.0
H442 H 0.34373 0.83804 0.43696 0.0
H443 H 0.31013 0.82618 0.37388 0.0
C444 C 0.45778 0.36317 0.91592 0.0
C445 C 0.4956 0.39537 0.93687 0.0
C446 C 0.53223 0.37232 0.86773 0.0
C447 C 0.49456 0.34367 0.84073 0.0
N448 N 0.42134 0.31164 0.83697 0.0
N449 N 0.56906 0.43211 0.93293 0.0
C450 C 0.45718 0.33864 0.86483 0.0
C451 C 0.53294 0.39999 0.91348 0.0
N452 N 0.42257 0.35632 0.94511 0.0
N453 N 0.56724 0.37286 0.84964 0.0
H454 H 0.57077 0.45168 0.96865 0.0
H455 H 0.59719 0.44066 0.912 0.0
H456 H 0.56784 0.35348 0.81546 0.0
H457 H 0.59516 0.39016 0.87157 0.0
H458 H 0.39398 0.33139 0.93615 0.0
H459 H 0.42245 0.37405 0.98245 0.0
H460 H 0.39344 0.30953 0.84728 0.0
H461 H 0.41974 0.29251 0.80062 0.0
C462 C 0.11412 0.4683 0.46962 0.0
C463 C 0.12106 0.50848 0.47707 0.0
C464 C 0.18155 0.53565 0.40821 0.0
C465 C 0.17184 0.49505 0.39504 0.0
N466 N 0.13705 0.42404 0.42423 0.0
N467 N 0.16654 0.58097 0.46913 0.0
C468 C 0.14097 0.46179 0.43023 0.0
C469 C 0.15693 0.54242 0.45206 0.0
N470 N 0.08077 0.43648 0.49807 0.0
N471 N 0.21264 0.56732 0.37548 0.0
H472 H 0.14866 0.58644 0.50078 0.0
H473 H 0.19342 0.60726 0.45603 0.0
H474 H 0.23191 0.56314 0.34492 0.0
H475 H 0.21889 0.59739 0.37704 0.0
H476 H 0.07111 0.40587 0.49026 0.0
H477 H 0.06209 0.44106 0.5294 0.0
H478 H 0.1167 0.39842 0.45048 0.0
H479 H 0.15673 0.41917 0.39563 0.0
C480 C 0.70341 0.10785 0.92546 0.0
C481 C 0.67509 0.11544 0.95792 0.0
C482 C 0.68792 0.17022 0.88251 0.0
C483 C 0.71382 0.16045 0.84712 0.0
N484 N 0.75438 0.12772 0.84181 0.0
N485 N 0.65008 0.16131 0.97992 0.0
C486 C 0.72455 0.13199 0.87131 0.0
C487 C 0.6711 0.14959 0.9409 0.0
N488 N 0.70788 0.07572 0.94466 0.0
N489 N 0.67769 0.19758 0.85859 0.0
H490 H 0.63787 0.14673 0.02303 0.0
H491 H 0.64821 0.18761 0.97289 0.0
H492 H 0.6904 0.21422 0.81702 0.0
H493 H 0.65494 0.20219 0.87774 0.0
H494 H 0.72414 0.06486 0.91956 0.0
H495 H 0.69394 0.05914 0.98589 0.0
H496 H 0.76602 0.10991 0.8595 0.0
H497 H 0.76964 0.14443 0.80139 0.0
C498 C 0.5709 0.64881 0.4652 0.0
C499 C 0.58871 0.6275 0.43597 0.0
C500 C 0.62609 0.68665 0.36514 0.0
C501 C 0.59668 0.69847 0.37859 0.0
N502 N 0.54412 0.69431 0.44755 0.0
N503 N 0.64585 0.63455 0.37523 0.0
C504 C 0.57077 0.68139 0.43172 0.0
C505 C 0.62077 0.64934 0.39151 0.0
N506 N 0.55621 0.63966 0.52555 0.0
N507 N 0.65696 0.70999 0.3237 0.0
H508 H 0.64573 0.61056 0.40011 0.0
H509 H 0.66752 0.64663 0.3391 0.0
H510 H 0.66001 0.73693 0.30438 0.0
H511 H 0.68035 0.70437 0.3115 0.0
H512 H 0.54475 0.65588 0.54929 0.0
H513 H 0.56181 0.62086 0.55504 0.0
H514 H 0.52076 0.67917 0.48079 0.0
H515 H 0.54463 0.71927 0.42526 0.0
C516 C 0.50783 0.1016 0.6243 0.0
C517 C 0.47511 0.06149 0.61612 0.0
C518 C 0.42684 0.08453 0.64298 0.0
C519 C 0.46004 0.12483 0.64878 0.0
N520 N 0.52973 0.17347 0.6213 0.0
N521 N 0.40287 0.0157 0.60553 0.0
C522 C 0.4996 0.13389 0.63001 0.0
C523 C 0.43424 0.05314 0.62147 0.0
N524 N 0.54676 0.10858 0.62891 0.0
N525 N 0.38886 0.07629 0.66133 0.0
H526 H 0.40752 0.99181 0.59221 0.0
H527 H 0.37273 1.00912 0.60258 0.0
H528 H 0.38319 0.09954 0.67478 0.0
H529 H 0.36389 0.04685 0.66519 0.0
H530 H 0.57111 0.13669 0.64199 0.0
H531 H 0.55365 0.08509 0.62698 0.0
H532 H 0.55869 0.18149 0.60419 0.0
H533 H 0.5242 0.1978 0.62427 0.0
C534 C 0.36263 0.45038 0.03675 0.0
C535 C 0.39333 0.48907 0.01357 0.0
C536 C 0.37143 0.52308 0.0899 0.0
C537 C 0.34385 0.48449 0.11748 0.0
N538 N 0.30486 0.41147 0.10796 0.0
N539 N 0.41723 0.56097 0.00271 0.0
C540 C 0.33647 0.44809 0.08733 0.0
C541 C 0.39415 0.525 0.03473 0.0
N542 N 0.36037 0.41601 0.01223 0.0
N543 N 0.37759 0.55791 0.11866 0.0
H544 H 0.43307 0.56288 0.96137 0.0
H545 H 0.41724 0.58787 0.01287 0.0
H546 H 0.36056 0.5575 0.15779 0.0
H547 H 0.40094 0.58704 0.10624 0.0
H548 H 0.34227 0.38673 0.03087 0.0
H549 H 0.37788 0.41734 0.97307 0.0
H550 H 0.29573 0.38384 0.08579 0.0
H551 H 0.28562 0.40917 0.14514 0.0
C552 C 0.94154 0.38169 0.5059 0.0
C553 C 0.93172 0.41232 0.49089 0.0
C554 C 0.86746 0.37544 0.5498 0.0
C555 C 0.88016 0.34816 0.57222 0.0
N556 N 0.92176 0.31724 0.56035 0.0
N557 N 0.88098 0.4326 0.48082 0.0
C558 C 0.91456 0.34831 0.5455 0.0
C559 C 0.8928 0.40684 0.5062 0.0
N560 N 0.97755 0.38591 0.4843 0.0
N561 N 0.83287 0.37313 0.57435 0.0
H562 H 0.89932 0.45617 0.44942 0.0
H563 H 0.85197 0.42882 0.48652 0.0
H564 H 0.81298 0.34934 0.60436 0.0
H565 H 0.82435 0.39507 0.5669 0.0
H566 H 0.98881 0.36683 0.49706 0.0
H567 H 0.99648 0.40931 0.45288 0.0
H568 H 0.94549 0.31418 0.54146 0.0
H569 H 0.90184 0.29271 0.58925 0.0
C570 C 0.53506 0.88431 0.03599 0.0
C571 C 0.57294 0.91759 0.01474 0.0
C572 C 0.60902 0.89934 0.0931 0.0
C573 C 0.57094 0.86809 0.11742 0.0
N574 N 0.49896 0.82382 0.10315 0.0
N575 N 0.64579 0.95066 0.01092 0.0
C576 C 0.53438 0.85811 0.08542 0.0
C577 C 0.60991 0.92267 0.03913 0.0
N578 N 0.49957 0.87978 0.01226 0.0
N579 N 0.64403 0.908 0.12371 0.0
H580 H 0.64649 0.96768 0.97141 0.0
H581 H 0.67416 0.95467 0.02287 0.0
H582 H 0.64435 0.89062 0.16192 0.0
H583 H 0.67247 0.93306 0.11308 0.0
H584 H 0.47084 0.86015 0.03151 0.0
H585 H 0.49897 0.89708 0.97422 0.0
H586 H 0.47176 0.81261 0.07875 0.0
H587 H 0.49756 0.80452 0.13972 0.0
C588 C 0.6102 0.49436 0.65688 0.0
C589 C 0.61127 0.52861 0.62676 0.0
C590 C 0.68538 0.56872 0.63956 0.0
C591 C 0.6836 0.53568 0.67405 0.0
N592 N 0.64896 0.46472 0.70158 0.0
N593 N 0.64975 0.59587 0.57937 0.0
C594 C 0.64734 0.49743 0.67718 0.0
C595 C 0.64898 0.56499 0.61464 0.0
N596 N 0.57369 0.45929 0.6666 0.0
N597 N 0.72164 0.6046 0.63518 0.0
H598 H 0.62336 0.59571 0.56504 0.0
H599 H 0.67631 0.62112 0.56246 0.0
H600 H 0.74888 0.60695 0.65048 0.0
H601 H 0.72492 0.63193 0.61792 0.0
H602 H 0.57025 0.43414 0.69213 0.0
H603 H 0.546 0.45587 0.65158 0.0
H604 H 0.62451 0.43497 0.70308 0.0
H605 H 0.67648 0.46736 0.71618 0.0
C606 C 0.10632 0.67355 0.0168 0.0
C607 C 0.11787 0.6453 -0.00461 0.0
C608 C 0.18454 0.68472 0.04493 0.0
C609 C 0.1711 0.71006 0.0726 0.0
N610 N 0.126 0.73739 0.07053 0.0
N611 N 0.17206 0.63194 0.96927 0.0
C612 C 0.13429 0.70761 0.05281 0.0
C613 C 0.15862 0.6539 0.00224 0.0
N614 N 0.06803 0.66665 0.00453 0.0
N615 N 0.22055 0.68799 0.0634 0.0
H616 H 0.15345 0.6088 0.93859 0.0
H617 H 0.20234 0.63884 0.96815 0.0
H618 H 0.24075 0.71108 0.09287 0.0
H619 H 0.22969 0.66704 0.05175 0.0
H620 H 0.05566 0.68332 0.02393 0.0
H621 H 0.04817 0.64324 0.97508 0.0
H622 H 0.10084 0.73919 0.05546 0.0
H623 H 0.14656 0.7624 0.09681 0.0
loop_
_geom_bond_atom_site_label_1
_geom_bond_atom_site_label_2
_geom_bond_distance
_geom_bond_site_symmetry_2
_ccdc_geom_bond_type
C0 O2 1.247 . S
C0 O4 1.242 1_554 S
C1 O8 1.247 . S
C1 O9 1.258 1_556 S
O2 C0 1.247 . S
O2 Zn3 2.028 1_455 S
Zn3 O2 2.028 1_655 S
Zn3 O7 2.035 . S
Zn3 O9 2.035 . S
Zn3 O10 2.028 1_655 S
O4 C0 1.242 1_556 S
O4 Zn5 2.045 . S
Zn5 O4 2.045 . S
Zn5 O6 2.028 1_455 S
Zn5 O8 2.028 1_455 S
Zn5 O11 2.045 . S
O6 Zn5 2.028 1_655 S
O6 C12 1.247 . S
O7 Zn3 2.035 . S
O7 C12 1.258 1_554 S
O8 C1 1.247 . S
O8 Zn5 2.028 1_655 S
O9 C1 1.258 1_554 S
O9 Zn3 2.035 . S
O10 Zn3 2.028 1_455 S
O10 C13 1.247 . S
O11 Zn5 2.045 . S
O11 C13 1.242 1_556 S
C12 O6 1.247 . S
C12 O7 1.258 1_556 S
C13 O10 1.247 . S
C13 O11 1.242 1_554 S
C14 O16 1.247 . S
C14 O18 1.258 . S
C15 O22 1.247 . S
C15 O23 1.258 . S
O16 C14 1.247 . S
O16 Zn17 2.028 1_545 S
Zn17 O16 2.028 1_565 S
Zn17 O21 2.035 . S
Zn17 O23 2.035 . S
Zn17 O24 2.028 1_565 S
O18 C14 1.258 . S
O18 Zn19 2.035 . S
Zn19 O18 2.035 . S
Zn19 O20 2.028 1_545 S
Zn19 O22 2.028 1_545 S
Zn19 O25 2.035 . S
O20 Zn19 2.028 1_565 S
O20 C26 1.247 . S
O21 Zn17 2.035 . S
O21 C26 1.258 . S
O22 C15 1.247 . S
O22 Zn19 2.028 1_565 S
O23 C15 1.258 . S
O23 Zn17 2.035 . S
O24 Zn17 2.028 1_545 S
O24 C27 1.247 . S
O25 Zn19 2.035 . S
O25 C27 1.258 . S
C26 O20 1.247 . S
C26 O21 1.258 . S
C27 O24 1.247 . S
C27 O25 1.258 . S
C28 O30 1.247 . S
C28 O32 1.258 1_556 S
C29 O36 1.247 . S
C29 O37 1.244 1_554 S
O30 C28 1.247 . S
O30 Zn31 2.028 . S
Zn31 O30 2.028 . S
Zn31 O35 2.044 . S
Zn31 O37 2.044 . S
Zn31 O38 2.028 . S
O32 C28 1.258 1_554 S
O32 Zn33 2.035 . S
Zn33 O32 2.035 . S
Zn33 O34 2.028 . S
Zn33 O36 2.028 . S
Zn33 O39 2.035 . S
O34 Zn33 2.028 . S
O34 C40 1.247 . S
O35 Zn31 2.044 . S
O35 C40 1.244 1_556 S
O36 C29 1.247 . S
O36 Zn33 2.028 . S
O37 C29 1.244 1_556 S
O37 Zn31 2.044 . S
O38 Zn31 2.028 . S
O38 C41 1.247 . S
O39 Zn33 2.035 . S
O39 C41 1.258 1_554 S
C40 O34 1.247 . S
C40 O35 1.244 1_554 S
C41 O38 1.247 . S
C41 O39 1.258 1_556 S
C42 O44 1.247 . S
C42 O46 1.258 . S
C43 O50 1.247 . S
C43 O51 1.258 . S
O44 C42 1.247 . S
O44 Zn45 2.028 . S
Zn45 O44 2.028 . S
Zn45 O49 2.035 1_455 S
Zn45 O51 2.035 1_455 S
Zn45 O52 2.028 . S
O46 C42 1.258 . S
O46 Zn47 2.035 1_455 S
Zn47 O46 2.035 1_655 S
Zn47 O48 2.028 . S
Zn47 O50 2.028 . S
Zn47 O53 2.035 1_655 S
O48 Zn47 2.028 . S
O48 C54 1.247 . S
O49 Zn45 2.035 1_655 S
O49 C54 1.258 . S
O50 C43 1.247 . S
O50 Zn47 2.028 . S
O51 C43 1.258 . S
O51 Zn45 2.035 1_655 S
O52 Zn45 2.028 . S
O52 C55 1.247 . S
O53 Zn47 2.035 1_455 S
O53 C55 1.258 . S
C54 O48 1.247 . S
C54 O49 1.258 . S
C55 O52 1.247 . S
C55 O53 1.258 . S
C56 O58 1.247 . S
C56 O60 1.258 . S
C57 O64 1.247 . S
C57 O65 1.258 1_556 S
O58 C56 1.247 . S
O58 Zn59 2.028 1_565 S
Zn59 O58 2.028 1_545 S
Zn59 O63 2.035 . S
Zn59 O65 2.035 . S
Zn59 O66 2.028 1_545 S
O60 C56 1.258 . S
O60 Zn61 2.035 1_554 S
Zn61 O60 2.035 1_556 S
Zn61 O62 2.028 1_565 S
Zn61 O64 2.028 1_565 S
Zn61 O67 2.035 1_556 S
O62 Zn61 2.028 1_545 S
O62 C68 1.247 . S
O63 Zn59 2.035 . S
O63 C68 1.258 1_554 S
O64 C57 1.247 . S
O64 Zn61 2.028 1_545 S
O65 C57 1.258 1_554 S
O65 Zn59 2.035 . S
O66 Zn59 2.028 1_565 S
O66 C69 1.247 . S
O67 Zn61 2.035 1_554 S
O67 C69 1.258 . S
C68 O62 1.247 . S
C68 O63 1.258 1_556 S
C69 O66 1.247 . S
C69 O67 1.258 . S
C70 O72 1.247 . S
C70 O74 1.258 . S
C71 O78 1.247 . S
C71 O79 1.258 . S
O72 C70 1.247 . S
O72 Zn73 2.028 . S
Zn73 O72 2.028 . S
Zn73 O77 2.035 . S
Zn73 O79 2.035 . S
Zn73 O80 2.028 . S
O74 C70 1.258 . S
O74 Zn75 2.035 . S
Zn75 O74 2.035 . S
Zn75 O76 2.028 . S
Zn75 O78 2.028 . S
Zn75 O81 2.035 . S
O76 Zn75 2.028 . S
O76 C82 1.247 . S
O77 Zn73 2.035 . S
O77 C82 1.258 . S
O78 C71 1.247 . S
O78 Zn75 2.028 . S
O79 C71 1.258 . S
O79 Zn73 2.035 . S
O80 Zn73 2.028 . S
O80 C83 1.247 . S
O81 Zn75 2.035 . S
O81 C83 1.258 . S
C82 O76 1.247 . S
C82 O77 1.258 . S
C83 O80 1.247 . S
C83 O81 1.258 . S
H84 C90 0.930 . S
H85 C93 0.931 . S
H86 C95 0.931 . S
H87 C97 0.930 . S
H88 C99 0.930 . S
H89 C101 0.931 . S
C90 H84 0.930 . S
C90 C91 1.380 . S
C90 C92 1.394 . S
C91 C90 1.380 . S
C91 C95 1.382 . S
C92 C90 1.394 . S
C92 C93 1.400 . S
C93 H85 0.931 . S
C93 C92 1.400 . S
C93 C94 1.375 . S
C94 C93 1.375 . S
C94 C95 1.415 . S
C94 C96 1.501 . S
C95 H86 0.931 . S
C95 C91 1.382 . S
C95 C94 1.415 . S
C96 C94 1.501 . S
C96 C97 1.384 . S
C96 C101 1.408 . S
C97 H87 0.930 . S
C97 C96 1.384 . S
C97 C98 1.389 . S
C98 C97 1.389 . S
C98 C99 1.405 . S
C99 H88 0.930 . S
C99 C98 1.405 . S
C99 C100 1.364 . S
C100 C99 1.364 . S
C100 C101 1.400 . S
C101 H89 0.931 . S
C101 C96 1.408 . S
C101 C100 1.400 . S
H102 C108 0.930 . S
H103 C111 0.931 . S
H104 C113 0.931 . S
H105 C115 0.930 . S
H106 C117 0.930 . S
H107 C119 0.931 . S
C108 H102 0.930 . S
C108 C109 1.380 . S
C108 C110 1.394 . S
C109 C108 1.380 . S
C109 C113 1.382 . S
C110 C108 1.394 . S
C110 C111 1.400 . S
C111 H103 0.931 . S
C111 C110 1.400 . S
C111 C112 1.375 . S
C112 C111 1.375 . S
C112 C113 1.415 . S
C112 C114 1.501 . S
C113 H104 0.931 . S
C113 C109 1.382 . S
C113 C112 1.415 . S
C114 C112 1.501 . S
C114 C115 1.384 . S
C114 C119 1.408 . S
C115 H105 0.930 . S
C115 C114 1.384 . S
C115 C116 1.389 . S
C116 C115 1.389 . S
C116 C117 1.405 . S
C117 H106 0.930 . S
C117 C116 1.405 . S
C117 C118 1.364 . S
C118 C117 1.364 . S
C118 C119 1.400 . S
C119 H107 0.931 . S
C119 C114 1.408 . S
C119 C118 1.400 . S
H120 C126 0.930 . S
H121 C129 0.931 . S
H122 C131 0.931 . S
H123 C133 0.930 . S
H124 C135 0.930 . S
H125 C137 0.931 . S
C126 H120 0.930 . S
C126 C127 1.380 . S
C126 C128 1.394 . S
C127 C126 1.380 . S
C127 C131 1.382 . S
C128 C126 1.394 . S
C128 C129 1.400 . S
C129 H121 0.931 . S
C129 C128 1.400 . S
C129 C130 1.375 . S
C130 C129 1.375 . S
C130 C131 1.415 . S
C130 C132 1.501 . S
C131 H122 0.931 . S
C131 C127 1.382 . S
C131 C130 1.415 . S
C132 C130 1.501 . S
C132 C133 1.384 . S
C132 C137 1.408 . S
C133 H123 0.930 . S
C133 C132 1.384 . S
C133 C134 1.389 . S
C134 C133 1.389 . S
C134 C135 1.405 . S
C135 H124 0.930 . S
C135 C134 1.405 . S
C135 C136 1.364 . S
C136 C135 1.364 . S
C136 C137 1.400 . S
C137 H125 0.931 . S
C137 C132 1.408 . S
C137 C136 1.400 . S
H138 C144 0.930 . S
H139 C147 0.931 . S
H140 C149 0.931 . S
H141 C151 0.930 . S
H142 C153 0.930 . S
H143 C155 0.931 . S
C144 H138 0.930 . S
C144 C145 1.380 . S
C144 C146 1.394 . S
C145 C144 1.380 . S
C145 C149 1.382 . S
C146 C144 1.394 . S
C146 C147 1.400 . S
C147 H139 0.931 . S
C147 C146 1.400 . S
C147 C148 1.375 . S
C148 C147 1.375 . S
C148 C149 1.415 . S
C148 C150 1.501 . S
C149 H140 0.931 . S
C149 C145 1.382 . S
C149 C148 1.415 . S
C150 C148 1.501 . S
C150 C151 1.384 . S
C150 C155 1.408 . S
C151 H141 0.930 . S
C151 C150 1.384 . S
C151 C152 1.389 . S
C152 C151 1.389 . S
C152 C153 1.405 . S
C153 H142 0.930 . S
C153 C152 1.405 . S
C153 C154 1.364 . S
C154 C153 1.364 . S
C154 C155 1.400 . S
C155 H143 0.931 . S
C155 C150 1.408 . S
C155 C154 1.400 . S
H156 C162 0.930 . S
H157 C165 0.931 . S
H158 C167 0.931 . S
H159 C169 0.930 . S
H160 C171 0.930 . S
H161 C173 0.931 . S
C162 H156 0.930 . S
C162 C163 1.380 . S
C162 C164 1.394 . S
C163 C162 1.380 . S
C163 C167 1.382 . S
C164 C162 1.394 . S
C164 C165 1.400 . S
C165 H157 0.931 . S
C165 C164 1.400 . S
C165 C166 1.375 . S
C166 C165 1.375 . S
C166 C167 1.415 . S
C166 C168 1.501 . S
C167 H158 0.931 . S
C167 C163 1.382 . S
C167 C166 1.415 . S
C168 C166 1.501 . S
C168 C169 1.384 . S
C168 C173 1.408 . S
C169 H159 0.930 . S
C169 C168 1.384 . S
C169 C170 1.389 . S
C170 C169 1.389 . S
C170 C171 1.405 . S
C171 H160 0.930 . S
C171 C170 1.405 . S
C171 C172 1.364 . S
C172 C171 1.364 . S
C172 C173 1.400 . S
C173 H161 0.931 . S
C173 C168 1.408 . S
C173 C172 1.400 . S
H174 C180 0.930 . S
H175 C183 0.931 . S
H176 C185 0.931 . S
H177 C187 0.930 . S
H178 C189 0.930 . S
H179 C191 0.931 . S
C180 H174 0.930 . S
C180 C181 1.380 . S
C180 C182 1.394 . S
C181 C180 1.380 . S
C181 C185 1.382 . S
C182 C180 1.394 . S
C182 C183 1.400 . S
C183 H175 0.931 . S
C183 C182 1.400 . S
C183 C184 1.375 . S
C184 C183 1.375 . S
C184 C185 1.415 . S
C184 C186 1.501 . S
C185 H176 0.931 . S
C185 C181 1.382 . S
C185 C184 1.415 . S
C186 C184 1.501 . S
C186 C187 1.384 . S
C186 C191 1.408 . S
C187 H177 0.930 . S
C187 C186 1.384 . S
C187 C188 1.389 . S
C188 C187 1.389 . S
C188 C189 1.405 . S
C189 H178 0.930 . S
C189 C188 1.405 . S
C189 C190 1.364 . S
C190 C189 1.364 . S
C190 C191 1.400 . S
C191 H179 0.931 . S
C191 C186 1.408 . S
C191 C190 1.400 . S
C192 C193 1.363 . S
C192 C198 1.379 . S
C192 N200 1.356 . S
C193 C192 1.363 . S
C193 C199 1.363 . S
C194 C195 1.363 . S
C194 C199 1.379 . S
C194 N201 1.356 . S
C195 C194 1.363 . S
C195 C198 1.363 . S
N196 C198 1.356 . S
N196 H208 0.984 . S
N196 H209 0.985 . S
N197 C199 1.356 . S
N197 H202 0.984 . S
N197 H203 0.985 . S
C198 C192 1.379 . S
C198 C195 1.363 . S
C198 N196 1.356 . S
C199 C193 1.363 . S
C199 C194 1.379 . S
C199 N197 1.356 . S
N200 C192 1.356 . S
N200 H206 0.984 . S
N200 H207 0.984 . S
N201 C194 1.356 . S
N201 H204 0.984 . S
N201 H205 0.985 . S
H202 N197 0.984 . S
H203 N197 0.985 . S
H204 N201 0.984 . S
H205 N201 0.985 . S
H206 N200 0.984 . S
H207 N200 0.984 . S
H208 N196 0.984 . S
H209 N196 0.985 . S
C210 C211 1.363 . S
C210 C216 1.379 . S
C210 N218 1.356 . S
C211 C210 1.363 . S
C211 C217 1.363 . S
C212 C213 1.363 . S
C212 C217 1.379 . S
C212 N219 1.356 . S
C213 C212 1.363 . S
C213 C216 1.363 . S
N214 C216 1.356 . S
N214 H226 0.984 . S
N214 H227 0.985 . S
N215 C217 1.356 . S
N215 H220 0.984 . S
N215 H221 0.985 1_545 S
C216 C210 1.379 . S
C216 C213 1.363 . S
C216 N214 1.356 . S
C217 C211 1.363 . S
C217 C212 1.379 . S
C217 N215 1.356 . S
N218 C210 1.356 . S
N218 H224 0.984 . S
N218 H225 0.984 . S
N219 C212 1.356 . S
N219 H222 0.984 . S
N219 H223 0.985 . S
H220 N215 0.984 . S
H221 N215 0.985 1_565 S
H222 N219 0.984 . S
H223 N219 0.985 . S
H224 N218 0.984 . S
H225 N218 0.984 . S
H226 N214 0.984 . S
H227 N214 0.985 . S
C228 C229 1.363 . S
C228 C234 1.379 . S
C228 N236 1.356 . S
C229 C228 1.363 . S
C229 C235 1.363 . S
C230 C231 1.363 . S
C230 C235 1.379 . S
C230 N237 1.356 . S
C231 C230 1.363 . S
C231 C234 1.363 . S
N232 C234 1.356 . S
N232 H244 0.984 . S
N232 H245 0.985 . S
N233 C235 1.356 1_556 S
N233 H238 0.984 . S
N233 H239 0.985 . S
C234 C228 1.379 . S
C234 C231 1.363 . S
C234 N232 1.356 . S
C235 C229 1.363 . S
C235 C230 1.379 . S
C235 N233 1.356 1_554 S
N236 C228 1.356 . S
N236 H242 0.984 . S
N236 H243 0.984 . S
N237 C230 1.356 . S
N237 H240 0.984 . S
N237 H241 0.985 . S
H238 N233 0.984 . S
H239 N233 0.985 . S
H240 N237 0.984 . S
H241 N237 0.985 . S
H242 N236 0.984 . S
H243 N236 0.984 . S
H244 N232 0.984 . S
H245 N232 0.985 . S
C246 C247 1.363 . S
C246 C252 1.379 . S
C246 N254 1.356 . S
C247 C246 1.363 . S
C247 C253 1.363 . S
C248 C249 1.363 . S
C248 C253 1.379 . S
C248 N255 1.356 . S
C249 C248 1.363 . S
C249 C252 1.363 . S
N250 C252 1.356 . S
N250 H262 0.984 . S
N250 H263 0.985 . S
N251 C253 1.356 . S
N251 H256 0.984 . S
N251 H257 0.985 . S
C252 C246 1.379 . S
C252 C249 1.363 . S
C252 N250 1.356 . S
C253 C247 1.363 . S
C253 C248 1.379 . S
C253 N251 1.356 . S
N254 C246 1.356 . S
N254 H260 0.984 . S
N254 H261 0.984 . S
N255 C248 1.356 . S
N255 H258 0.984 . S
N255 H259 0.985 . S
H256 N251 0.984 . S
H257 N251 0.985 . S
H258 N255 0.984 . S
H259 N255 0.985 . S
H260 N254 0.984 . S
H261 N254 0.984 . S
H262 N250 0.984 . S
H263 N250 0.985 . S
C264 C265 1.363 . S
C264 C270 1.379 . S
C264 N272 1.356 . S
C265 C264 1.363 . S
C265 C271 1.363 . S
C266 C267 1.363 . S
C266 C271 1.379 . S
C266 N273 1.356 . S
C267 C266 1.363 . S
C267 C270 1.363 . S
N268 C270 1.356 . S
N268 H280 0.984 . S
N268 H281 0.985 . S
N269 C271 1.356 . S
N269 H274 0.984 . S
N269 H275 0.985 . S
C270 C264 1.379 . S
C270 C267 1.363 . S
C270 N268 1.356 . S
C271 C265 1.363 . S
C271 C266 1.379 . S
C271 N269 1.356 . S
N272 C264 1.356 . S
N272 H278 0.984 . S
N272 H279 0.984 . S
N273 C266 1.356 . S
N273 H276 0.984 . S
N273 H277 0.985 . S
H274 N269 0.984 . S
H275 N269 0.985 . S
H276 N273 0.984 . S
H277 N273 0.985 . S
H278 N272 0.984 . S
H279 N272 0.984 . S
H280 N268 0.984 . S
H281 N268 0.985 . S
C282 C283 1.363 . S
C282 C288 1.379 . S
C282 N290 1.356 . S
C283 C282 1.363 . S
C283 C289 1.363 . S
C284 C285 1.363 . S
C284 C289 1.379 . S
C284 N291 1.356 . S
C285 C284 1.363 . S
C285 C288 1.363 . S
N286 C288 1.356 . S
N286 H298 0.984 . S
N286 H299 0.985 . S
N287 C289 1.356 . S
N287 H292 0.984 . S
N287 H293 0.985 . S
C288 C282 1.379 . S
C288 C285 1.363 . S
C288 N286 1.356 . S
C289 C283 1.363 . S
C289 C284 1.379 . S
C289 N287 1.356 . S
N290 C282 1.356 . S
N290 H296 0.984 . S
N290 H297 0.984 . S
N291 C284 1.356 . S
N291 H294 0.984 . S
N291 H295 0.985 . S
H292 N287 0.984 . S
H293 N287 0.985 . S
H294 N291 0.984 . S
H295 N291 0.985 . S
H296 N290 0.984 . S
H297 N290 0.984 . S
H298 N286 0.984 . S
H299 N286 0.985 . S
C300 C301 1.363 . S
C300 C306 1.379 . S
C300 N308 1.356 . S
C301 C300 1.363 . S
C301 C307 1.363 . S
C302 C303 1.363 . S
C302 C307 1.379 . S
C302 N309 1.356 . S
C303 C302 1.363 . S
C303 C306 1.363 . S
N304 C306 1.356 . S
N304 H316 0.984 . S
N304 H317 0.985 . S
N305 C307 1.356 . S
N305 H310 0.984 . S
N305 H311 0.985 . S
C306 C300 1.379 . S
C306 C303 1.363 . S
C306 N304 1.356 . S
C307 C301 1.363 . S
C307 C302 1.379 . S
C307 N305 1.356 . S
N308 C300 1.356 . S
N308 H314 0.984 . S
N308 H315 0.984 . S
N309 C302 1.356 . S
N309 H312 0.984 . S
N309 H313 0.985 . S
H310 N305 0.984 . S
H311 N305 0.985 . S
H312 N309 0.984 . S
H313 N309 0.985 . S
H314 N308 0.984 . S
H315 N308 0.984 . S
H316 N304 0.984 . S
H317 N304 0.985 . S
C318 C319 1.363 . S
C318 C324 1.379 . S
C318 N326 1.356 . S
C319 C318 1.363 . S
C319 C325 1.363 . S
C320 C321 1.363 . S
C320 C325 1.379 . S
C320 N327 1.356 . S
C321 C320 1.363 . S
C321 C324 1.363 . S
N322 C324 1.356 . S
N322 H334 0.984 . S
N322 H335 0.985 . S
N323 C325 1.356 . S
N323 H328 0.984 . S
N323 H329 0.985 . S
C324 C318 1.379 . S
C324 C321 1.363 . S
C324 N322 1.356 . S
C325 C319 1.363 . S
C325 C320 1.379 . S
C325 N323 1.356 . S
N326 C318 1.356 . S
N326 H332 0.984 . S
N326 H333 0.984 . S
N327 C320 1.356 . S
N327 H330 0.984 . S
N327 H331 0.985 . S
H328 N323 0.984 . S
H329 N323 0.985 . S
H330 N327 0.984 . S
H331 N327 0.985 . S
H332 N326 0.984 . S
H333 N326 0.984 . S
H334 N322 0.984 . S
H335 N322 0.985 . S
C336 C337 1.363 . S
C336 C342 1.379 . S
C336 N344 1.356 . S
C337 C336 1.363 . S
C337 C343 1.363 . S
C338 C339 1.363 . S
C338 C343 1.379 . S
C338 N345 1.356 . S
C339 C338 1.363 . S
C339 C342 1.363 . S
N340 C342 1.356 . S
N340 H352 0.984 . S
N340 H353 0.985 . S
N341 C343 1.356 . S
N341 H346 0.984 . S
N341 H347 0.985 . S
C342 C336 1.379 . S
C342 C339 1.363 . S
C342 N340 1.356 . S
C343 C337 1.363 . S
C343 C338 1.379 . S
C343 N341 1.356 . S
N344 C336 1.356 . S
N344 H350 0.984 . S
N344 H351 0.984 . S
N345 C338 1.356 . S
N345 H348 0.984 . S
N345 H349 0.985 . S
H346 N341 0.984 . S
H347 N341 0.985 . S
H348 N345 0.984 . S
H349 N345 0.985 . S
H350 N344 0.984 . S
H351 N344 0.984 . S
H352 N340 0.984 . S
H353 N340 0.985 . S
C354 C355 1.363 . S
C354 C360 1.379 . S
C354 N362 1.356 1_556 S
C355 C354 1.363 . S
C355 C361 1.363 . S
C356 C357 1.363 . S
C356 C361 1.379 . S
C356 N363 1.356 . S
C357 C356 1.363 . S
C357 C360 1.363 . S
N358 C360 1.356 . S
N358 H370 0.984 . S
N358 H371 0.985 . S
N359 C361 1.356 . S
N359 H364 0.984 . S
N359 H365 0.985 . S
C360 C354 1.379 . S
C360 C357 1.363 . S
C360 N358 1.356 . S
C361 C355 1.363 . S
C361 C356 1.379 . S
C361 N359 1.356 . S
N362 C354 1.356 1_554 S
N362 H368 0.984 . S
N362 H369 0.984 . S
N363 C356 1.356 . S
N363 H366 0.984 . S
N363 H367 0.985 . S
H364 N359 0.984 . S
H365 N359 0.985 . S
H366 N363 0.984 . S
H367 N363 0.985 . S
H368 N362 0.984 . S
H369 N362 0.984 . S
H370 N358 0.984 . S
H371 N358 0.985 . S
C372 C373 1.363 . S
C372 C378 1.379 . S
C372 N380 1.356 . S
C373 C372 1.363 . S
C373 C379 1.363 . S
C374 C375 1.363 . S
C374 C379 1.379 . S
C374 N381 1.356 . S
C375 C374 1.363 . S
C375 C378 1.363 . S
N376 C378 1.356 . S
N376 H388 0.984 . S
N376 H389 0.985 . S
N377 C379 1.356 . S
N377 H382 0.984 . S
N377 H383 0.985 . S
C378 C372 1.379 . S
C378 C375 1.363 . S
C378 N376 1.356 . S
C379 C373 1.363 . S
C379 C374 1.379 . S
C379 N377 1.356 . S
N380 C372 1.356 . S
N380 H386 0.984 . S
N380 H387 0.984 . S
N381 C374 1.356 . S
N381 H384 0.984 . S
N381 H385 0.985 . S
H382 N377 0.984 . S
H383 N377 0.985 . S
H384 N381 0.984 . S
H385 N381 0.985 . S
H386 N380 0.984 . S
H387 N380 0.984 . S
H388 N376 0.984 . S
H389 N376 0.985 . S
C390 C391 1.363 . S
C390 C396 1.379 . S
C390 N398 1.356 . S
C391 C390 1.363 . S
C391 C397 1.363 . S
C392 C393 1.363 . S
C392 C397 1.379 . S
C392 N399 1.356 . S
C393 C392 1.363 . S
C393 C396 1.363 . S
N394 C396 1.356 . S
N394 H406 0.984 . S
N394 H407 0.985 . S
N395 C397 1.356 . S
N395 H400 0.984 . S
N395 H401 0.985 1_556 S
C396 C390 1.379 . S
C396 C393 1.363 . S
C396 N394 1.356 . S
C397 C391 1.363 . S
C397 C392 1.379 . S
C397 N395 1.356 . S
N398 C390 1.356 . S
N398 H404 0.984 . S
N398 H405 0.984 . S
N399 C392 1.356 . S
N399 H402 0.984 . S
N399 H403 0.985 . S
H400 N395 0.984 . S
H401 N395 0.985 1_554 S
H402 N399 0.984 . S
H403 N399 0.985 . S
H404 N398 0.984 . S
H405 N398 0.984 . S
H406 N394 0.984 . S
H407 N394 0.985 . S
C408 C409 1.363 . S
C408 C414 1.379 . S
C408 N416 1.356 . S
C409 C408 1.363 . S
C409 C415 1.363 . S
C410 C411 1.363 . S
C410 C415 1.379 . S
C410 N417 1.356 . S
C411 C410 1.363 . S
C411 C414 1.363 . S
N412 C414 1.356 . S
N412 H424 0.984 . S
N412 H425 0.985 . S
N413 C415 1.356 1_554 S
N413 H418 0.984 . S
N413 H419 0.985 . S
C414 C408 1.379 . S
C414 C411 1.363 . S
C414 N412 1.356 . S
C415 C409 1.363 . S
C415 C410 1.379 . S
C415 N413 1.356 1_556 S
N416 C408 1.356 . S
N416 H422 0.984 . S
N416 H423 0.984 . S
N417 C410 1.356 . S
N417 H420 0.984 . S
N417 H421 0.985 . S
H418 N413 0.984 . S
H419 N413 0.985 . S
H420 N417 0.984 . S
H421 N417 0.985 . S
H422 N416 0.984 . S
H423 N416 0.984 . S
H424 N412 0.984 . S
H425 N412 0.985 . S
C426 C427 1.363 . S
C426 C432 1.379 . S
C426 N434 1.356 . S
C427 C426 1.363 . S
C427 C433 1.363 . S
C428 C429 1.363 . S
C428 C433 1.379 . S
C428 N435 1.356 . S
C429 C428 1.363 . S
C429 C432 1.363 . S
N430 C432 1.356 . S
N430 H442 0.984 . S
N430 H443 0.985 . S
N431 C433 1.356 . S
N431 H436 0.984 . S
N431 H437 0.985 1_565 S
C432 C426 1.379 . S
C432 C429 1.363 . S
C432 N430 1.356 . S
C433 C427 1.363 . S
C433 C428 1.379 . S
C433 N431 1.356 . S
N434 C426 1.356 . S
N434 H440 0.984 . S
N434 H441 0.984 . S
N435 C428 1.356 . S
N435 H438 0.984 . S
N435 H439 0.985 . S
H436 N431 0.984 . S
H437 N431 0.985 1_545 S
H438 N435 0.984 . S
H439 N435 0.985 . S
H440 N434 0.984 . S
H441 N434 0.984 . S
H442 N430 0.984 . S
H443 N430 0.985 . S
C444 C445 1.363 . S
C444 C450 1.379 . S
C444 N452 1.356 1_556 S
C445 C444 1.363 . S
C445 C451 1.363 . S
C446 C447 1.363 . S
C446 C451 1.379 . S
C446 N453 1.356 . S
C447 C446 1.363 . S
C447 C450 1.363 . S
N448 C450 1.356 . S
N448 H460 0.984 . S
N448 H461 0.985 . S
N449 C451 1.356 . S
N449 H454 0.984 . S
N449 H455 0.985 . S
C450 C444 1.379 . S
C450 C447 1.363 . S
C450 N448 1.356 . S
C451 C445 1.363 . S
C451 C446 1.379 . S
C451 N449 1.356 . S
N452 C444 1.356 1_554 S
N452 H458 0.984 . S
N452 H459 0.984 . S
N453 C446 1.356 . S
N453 H456 0.984 . S
N453 H457 0.985 . S
H454 N449 0.984 . S
H455 N449 0.985 . S
H456 N453 0.984 . S
H457 N453 0.985 . S
H458 N452 0.984 . S
H459 N452 0.984 . S
H460 N448 0.984 . S
H461 N448 0.985 . S
C462 C463 1.363 . S
C462 C468 1.379 . S
C462 N470 1.356 . S
C463 C462 1.363 . S
C463 C469 1.363 . S
C464 C465 1.363 . S
C464 C469 1.379 . S
C464 N471 1.356 . S
C465 C464 1.363 . S
C465 C468 1.363 . S
N466 C468 1.356 . S
N466 H478 0.984 . S
N466 H479 0.985 . S
N467 C469 1.356 . S
N467 H472 0.984 . S
N467 H473 0.985 . S
C468 C462 1.379 . S
C468 C465 1.363 . S
C468 N466 1.356 . S
C469 C463 1.363 . S
C469 C464 1.379 . S
C469 N467 1.356 . S
N470 C462 1.356 . S
N470 H476 0.984 . S
N470 H477 0.984 . S
N471 C464 1.356 . S
N471 H474 0.984 . S
N471 H475 0.985 . S
H472 N467 0.984 . S
H473 N467 0.985 . S
H474 N471 0.984 . S
H475 N471 0.985 . S
H476 N470 0.984 . S
H477 N470 0.984 . S
H478 N466 0.984 . S
H479 N466 0.985 . S
C480 C481 1.363 . S
C480 C486 1.379 . S
C480 N488 1.356 . S
C481 C480 1.363 . S
C481 C487 1.363 . S
C482 C483 1.363 . S
C482 C487 1.379 . S
C482 N489 1.356 . S
C483 C482 1.363 . S
C483 C486 1.363 . S
N484 C486 1.356 . S
N484 H496 0.984 . S
N484 H497 0.985 . S
N485 C487 1.356 . S
N485 H490 0.984 1_556 S
N485 H491 0.985 1_556 S
C486 C480 1.379 . S
C486 C483 1.363 . S
C486 N484 1.356 . S
C487 C481 1.363 . S
C487 C482 1.379 . S
C487 N485 1.356 . S
N488 C480 1.356 . S
N488 H494 0.984 . S
N488 H495 0.984 . S
N489 C482 1.356 . S
N489 H492 0.984 . S
N489 H493 0.985 . S
H490 N485 0.984 1_554 S
H491 N485 0.985 1_554 S
H492 N489 0.984 . S
H493 N489 0.985 . S
H494 N488 0.984 . S
H495 N488 0.984 . S
H496 N484 0.984 . S
H497 N484 0.985 . S
C498 C499 1.363 . S
C498 C504 1.379 . S
C498 N506 1.356 . S
C499 C498 1.363 . S
C499 C505 1.363 . S
C500 C501 1.363 . S
C500 C505 1.379 . S
C500 N507 1.356 . S
C501 C500 1.363 . S
C501 C504 1.363 . S
N502 C504 1.356 . S
N502 H514 0.984 . S
N502 H515 0.985 . S
N503 C505 1.356 . S
N503 H508 0.984 . S
N503 H509 0.985 . S
C504 C498 1.379 . S
C504 C501 1.363 . S
C504 N502 1.356 . S
C505 C499 1.363 . S
C505 C500 1.379 . S
C505 N503 1.356 . S
N506 C498 1.356 . S
N506 H512 0.984 . S
N506 H513 0.984 . S
N507 C500 1.356 . S
N507 H510 0.984 . S
N507 H511 0.985 . S
H508 N503 0.984 . S
H509 N503 0.985 . S
H510 N507 0.984 . S
H511 N507 0.985 . S
H512 N506 0.984 . S
H513 N506 0.984 . S
H514 N502 0.984 . S
H515 N502 0.985 . S
C516 C517 1.363 . S
C516 C522 1.379 . S
C516 N524 1.356 . S
C517 C516 1.363 . S
C517 C523 1.363 . S
C518 C519 1.363 . S
C518 C523 1.379 . S
C518 N525 1.356 . S
C519 C518 1.363 . S
C519 C522 1.363 . S
N520 C522 1.356 . S
N520 H532 0.984 . S
N520 H533 0.985 . S
N521 C523 1.356 . S
N521 H526 0.984 . S
N521 H527 0.985 . S
C522 C516 1.379 . S
C522 C519 1.363 . S
C522 N520 1.356 . S
C523 C517 1.363 . S
C523 C518 1.379 . S
C523 N521 1.356 . S
N524 C516 1.356 . S
N524 H530 0.984 . S
N524 H531 0.984 . S
N525 C518 1.356 . S
N525 H528 0.984 . S
N525 H529 0.985 . S
H526 N521 0.984 . S
H527 N521 0.985 . S
H528 N525 0.984 . S
H529 N525 0.985 . S
H530 N524 0.984 . S
H531 N524 0.984 . S
H532 N520 0.984 . S
H533 N520 0.985 . S
C534 C535 1.363 . S
C534 C540 1.379 . S
C534 N542 1.356 1_554 S
C535 C534 1.363 . S
C535 C541 1.363 . S
C536 C537 1.363 . S
C536 C541 1.379 . S
C536 N543 1.356 . S
C537 C536 1.363 . S
C537 C540 1.363 . S
N538 C540 1.356 . S
N538 H550 0.984 . S
N538 H551 0.985 . S
N539 C541 1.356 . S
N539 H544 0.984 . S
N539 H545 0.985 . S
C540 C534 1.379 . S
C540 C537 1.363 . S
C540 N538 1.356 . S
C541 C535 1.363 . S
C541 C536 1.379 . S
C541 N539 1.356 . S
N542 C534 1.356 1_556 S
N542 H548 0.984 . S
N542 H549 0.984 . S
N543 C536 1.356 . S
N543 H546 0.984 . S
N543 H547 0.985 . S
H544 N539 0.984 . S
H545 N539 0.985 . S
H546 N543 0.984 . S
H547 N543 0.985 . S
H548 N542 0.984 . S
H549 N542 0.984 . S
H550 N538 0.984 . S
H551 N538 0.985 . S
C552 C553 1.363 . S
C552 C558 1.379 . S
C552 N560 1.356 . S
C553 C552 1.363 . S
C553 C559 1.363 . S
C554 C555 1.363 . S
C554 C559 1.379 . S
C554 N561 1.356 . S
C555 C554 1.363 . S
C555 C558 1.363 . S
N556 C558 1.356 . S
N556 H568 0.984 . S
N556 H569 0.985 . S
N557 C559 1.356 . S
N557 H562 0.984 . S
N557 H563 0.985 . S
C558 C552 1.379 . S
C558 C555 1.363 . S
C558 N556 1.356 . S
C559 C553 1.363 . S
C559 C554 1.379 . S
C559 N557 1.356 . S
N560 C552 1.356 . S
N560 H566 0.984 . S
N560 H567 0.984 . S
N561 C554 1.356 . S
N561 H564 0.984 . S
N561 H565 0.985 . S
H562 N557 0.984 . S
H563 N557 0.985 . S
H564 N561 0.984 . S
H565 N561 0.985 . S
H566 N560 0.984 . S
H567 N560 0.984 . S
H568 N556 0.984 . S
H569 N556 0.985 . S
C570 C571 1.363 . S
C570 C576 1.379 . S
C570 N578 1.356 . S
C571 C570 1.363 . S
C571 C577 1.363 . S
C572 C573 1.363 . S
C572 C577 1.379 . S
C572 N579 1.356 . S
C573 C572 1.363 . S
C573 C576 1.363 . S
N574 C576 1.356 . S
N574 H586 0.984 . S
N574 H587 0.985 . S
N575 C577 1.356 . S
N575 H580 0.984 . S
N575 H581 0.985 1_565 S
C576 C570 1.379 . S
C576 C573 1.363 . S
C576 N574 1.356 . S
C577 C571 1.363 . S
C577 C572 1.379 . S
C577 N575 1.356 . S
N578 C570 1.356 . S
N578 H584 0.984 . S
N578 H585 0.984 . S
N579 C572 1.356 . S
N579 H582 0.984 . S
N579 H583 0.985 . S
H580 N575 0.984 . S
H581 N575 0.985 1_545 S
H582 N579 0.984 . S
H583 N579 0.985 . S
H584 N578 0.984 . S
H585 N578 0.984 . S
H586 N574 0.984 . S
H587 N574 0.985 . S
C588 C589 1.363 . S
C588 C594 1.379 . S
C588 N596 1.356 . S
C589 C588 1.363 . S
C589 C595 1.363 . S
C590 C591 1.363 . S
C590 C595 1.379 . S
C590 N597 1.356 . S
C591 C590 1.363 . S
C591 C594 1.363 . S
N592 C594 1.356 . S
N592 H604 0.984 . S
N592 H605 0.985 . S
N593 C595 1.356 . S
N593 H598 0.984 . S
N593 H599 0.985 . S
C594 C588 1.379 . S
C594 C591 1.363 . S
C594 N592 1.356 . S
C595 C589 1.363 . S
C595 C590 1.379 . S
C595 N593 1.356 . S
N596 C588 1.356 . S
N596 H602 0.984 . S
N596 H603 0.984 . S
N597 C590 1.356 . S
N597 H600 0.984 . S
N597 H601 0.985 . S
H598 N593 0.984 . S
H599 N593 0.985 . S
H600 N597 0.984 . S
H601 N597 0.985 . S
H602 N596 0.984 . S
H603 N596 0.984 . S
H604 N592 0.984 . S
H605 N592 0.985 . S
C606 C607 1.363 . S
C606 C612 1.379 . S
C606 N614 1.356 . S
C607 C606 1.363 . S
C607 C613 1.363 . S
C608 C609 1.363 . S
C608 C613 1.379 . S
C608 N615 1.356 . S
C609 C608 1.363 . S
C609 C612 1.363 . S
N610 C612 1.356 . S
N610 H622 0.984 . S
N610 H623 0.985 . S
N611 C613 1.356 1_556 S
N611 H616 0.984 . S
N611 H617 0.985 . S
C612 C606 1.379 . S
C612 C609 1.363 . S
C612 N610 1.356 . S
C613 C607 1.363 . S
C613 C608 1.379 . S
C613 N611 1.356 1_554 S
N614 C606 1.356 . S
N614 H620 0.984 . S
N614 H621 0.984 . S
N615 C608 1.356 . S
N615 H618 0.984 . S
N615 H619 0.985 . S
H616 N611 0.984 . S
H617 N611 0.985 . S
H618 N615 0.984 . S
H619 N615 0.985 . S
H620 N614 0.984 . S
H621 N614 0.984 . S
H622 N610 0.984 . S
H623 N610 0.985 . S
C193 C13 1.585 . S
C195 C98 1.501 . S
C211 C27 1.591 . S
C213 C109 1.517 . S
C231 C128 1.507 . S
C229 C29 1.583 . S
C249 C145 1.516 . S
C247 C54 1.590 . S
C267 C172 1.519 . S
C265 C69 1.582 . S
C285 C181 1.518 . S
C283 C83 1.592 . S
C301 C15 1.588 . S
C303 C134 1.503 . S
C319 C41 1.589 . S
C321 C154 1.525 . S
C339 C163 1.512 . S
C337 C42 1.586 . S
C357 C190 1.527 . S
C355 C57 1.589 . S
C373 C71 1.585 . S
C375 C92 1.507 . S
C393 C118 1.524 . S
C391 C1 1.587 . S
C411 C146 1.556 . S
C409 C12 1.654 . S
C427 C26 1.664 . S
C429 C170 1.571 . S
C447 C182 1.554 . S
C445 C28 1.651 . S
C463 C55 1.662 . S
C465 C100 1.535 . S
C481 C68 1.654 . S
C483 C110 1.557 . S
C499 C82 1.661 . S
C501 C127 1.544 . S
C517 C14 1.658 . S
C519 C188 1.565 . S
C537 C91 1.544 . S
C535 C40 1.660 . S
C553 C43 1.661 . S
C555 C116 1.567 . S
C571 C56 1.658 . S
C573 C136 1.531 . S
C589 C70 1.656 . S
C591 C152 1.564 . S
C607 C0 1.658 . S
C609 C164 1.561 . S
