# Generated by pormake.
# Topology apo, (3,6)-cn, num edge types: 1
# Building blocks:
#     Node 0, Type 0, BuildingBlock: BELTOD_clean_linker_0, # of connection points: 3
#     Node 1, Type 0, BuildingBlock: BELTOD_clean_linker_0, # of connection points: 3
#     Node 2, Type 0, BuildingBlock: BELTOD_clean_linker_0, # of connection points: 3
#     Node 3, Type 0, BuildingBlock: BELTOD_clean_linker_0, # of connection points: 3
#     Node 4, Type 0, BuildingBlock: BELTOD_clean_linker_0, # of connection points: 3
#     Node 5, Type 0, BuildingBlock: BELTOD_clean_linker_0, # of connection points: 3
#     Node 6, Type 0, BuildingBlock: BELTOD_clean_linker_0, # of connection points: 3
#     Node 7, Type 0, BuildingBlock: BELTOD_clean_linker_0, # of connection points: 3
#     Node 8, Type 1, BuildingBlock: KUMJIN_clean_sbu_1, # of connection points: 6
#     Node 9, Type 1, BuildingBlock: KUMJIN_clean_sbu_1, # of connection points: 6
#     Node 10, Type 1, BuildingBlock: KUMJIN_clean_sbu_1, # of connection points: 6
#     Node 11, Type 1, BuildingBlock: KUMJIN_clean_sbu_1, # of connection points: 6
#     Edge 12, Type (0, 1), BuildingBlock: XUDNAN_clean_linker_2, # of connection points: 2
#     Edge 13, Type (0, 1), BuildingBlock: XUDNAN_clean_linker_2, # of connection points: 2
#     Edge 14, Type (0, 1), BuildingBlock: XUDNAN_clean_linker_2, # of connection points: 2
#     Edge 15, Type (0, 1), BuildingBlock: XUDNAN_clean_linker_2, # of connection points: 2
#     Edge 16, Type (0, 1), BuildingBlock: XUDNAN_clean_linker_2, # of connection points: 2
#     Edge 17, Type (0, 1), BuildingBlock: XUDNAN_clean_linker_2, # of connection points: 2
#     Edge 18, Type (0, 1), BuildingBlock: XUDNAN_clean_linker_2, # of connection points: 2
#     Edge 19, Type (0, 1), BuildingBlock: XUDNAN_clean_linker_2, # of connection points: 2
#     Edge 20, Type (0, 1), BuildingBlock: XUDNAN_clean_linker_2, # of connection points: 2
#     Edge 21, Type (0, 1), BuildingBlock: XUDNAN_clean_linker_2, # of connection points: 2
#     Edge 22, Type (0, 1), BuildingBlock: XUDNAN_clean_linker_2, # of connection points: 2
#     Edge 23, Type (0, 1), BuildingBlock: XUDNAN_clean_linker_2, # of connection points: 2
#     Edge 24, Type (0, 1), BuildingBlock: XUDNAN_clean_linker_2, # of connection points: 2
#     Edge 25, Type (0, 1), BuildingBlock: XUDNAN_clean_linker_2, # of connection points: 2
#     Edge 26, Type (0, 1), BuildingBlock: XUDNAN_clean_linker_2, # of connection points: 2
#     Edge 27, Type (0, 1), BuildingBlock: XUDNAN_clean_linker_2, # of connection points: 2
#     Edge 28, Type (0, 1), BuildingBlock: XUDNAN_clean_linker_2, # of connection points: 2
#     Edge 29, Type (0, 1), BuildingBlock: XUDNAN_clean_linker_2, # of connection points: 2
#     Edge 30, Type (0, 1), BuildingBlock: XUDNAN_clean_linker_2, # of connection points: 2
#     Edge 31, Type (0, 1), BuildingBlock: XUDNAN_clean_linker_2, # of connection points: 2
#     Edge 32, Type (0, 1), BuildingBlock: XUDNAN_clean_linker_2, # of connection points: 2
#     Edge 33, Type (0, 1), BuildingBlock: XUDNAN_clean_linker_2, # of connection points: 2
#     Edge 34, Type (0, 1), BuildingBlock: XUDNAN_clean_linker_2, # of connection points: 2
#     Edge 35, Type (0, 1), BuildingBlock: XUDNAN_clean_linker_2, # of connection points: 2
# Relax obj value: 0.009
# Max RMSD: 0.110
# Mean RMSD: 0.081
data_MOF--net-apo--node1-KUMJIN_clean_sbu_1--node2-BELTOD_clean_linker_0--edge1-XUDNAN_clean_linker_2
_symmetry_space_group_name_H-M    P1
_symmetry_Int_Tables_number       1
_symmetry_cell_setting            triclinic
loop_
_symmetry_equiv_pos_as_xyz
'x, y, z'
_cell_length_a     27.474678
_cell_length_b     48.364691
_cell_length_c     59.844382
_cell_angle_alpha  89.581865
_cell_angle_beta   89.996087
_cell_angle_gamma 90.122033
loop_
_atom_site_label
_atom_site_type_symbol
_atom_site_fract_x
_atom_site_fract_y
_atom_site_fract_z
_atom_type_partial_charge
P0 P 0.35253 0.34761 0.39883 0.0
H1 H 0.3915 0.31714 0.43676 0.0
H2 H 0.38884 0.32424 0.47698 0.0
H3 H 0.29643 0.39547 0.467 0.0
H4 H 0.29985 0.38832 0.42643 0.0
H5 H 0.35251 0.29889 0.37033 0.0
H6 H 0.28782 0.27265 0.35258 0.0
H7 H 0.18054 0.32284 0.38605 0.0
H8 H 0.24613 0.34965 0.40339 0.0
H9 H 0.38583 0.40428 0.40878 0.0
H10 H 0.32981 0.35949 0.3522 0.0
O11 O 0.40531 0.3315 0.39447 0.0
H12 H 0.40231 0.44429 0.38446 0.0
H13 H 0.34732 0.39903 0.32795 0.0
C14 C 0.34692 0.35262 0.42857 0.0
C15 C 0.37065 0.33432 0.44317 0.0
C16 C 0.36876 0.33827 0.46624 0.0
C17 C 0.34267 0.36054 0.47527 0.0
C18 C 0.31754 0.37839 0.46058 0.0
C19 C 0.31933 0.37431 0.43741 0.0
C20 C 0.30415 0.32597 0.38846 0.0
C21 C 0.31512 0.30399 0.37421 0.0
C22 C 0.27792 0.28888 0.36408 0.0
C23 C 0.2288 0.29548 0.36792 0.0
C24 C 0.21793 0.31731 0.38256 0.0
C25 C 0.25534 0.3325 0.39267 0.0
C26 C 0.35524 0.37909 0.3825 0.0
C27 C 0.37557 0.40331 0.39135 0.0
C28 C 0.38516 0.42613 0.37744 0.0
C29 C 0.37594 0.42469 0.35438 0.0
C30 C 0.35461 0.40067 0.34568 0.0
C31 C 0.34435 0.37811 0.35961 0.0
P32 P 0.28616 0.10532 0.91597 0.0
H33 H 0.32778 0.06865 0.88289 0.0
H34 H 0.29356 0.03206 0.85983 0.0
H35 H 0.1501 0.05038 0.88532 0.0
H36 H 0.18472 0.08761 0.908 0.0
H37 H 0.31274 0.15984 0.93286 0.0
H38 H 0.34018 0.20213 0.91479 0.0
H39 H 0.32692 0.16269 0.85036 0.0
H40 H 0.29472 0.12152 0.86858 0.0
H41 H 0.26785 0.06693 0.95237 0.0
H42 H 0.22427 0.14992 0.93484 0.0
O43 O 0.33984 0.09246 0.92386 0.0
H44 H 0.22928 0.0718 0.989 0.0
H45 H 0.18778 0.15533 0.97197 0.0
C46 C 0.25895 0.08044 0.89747 0.0
C47 C 0.28892 0.06492 0.88342 0.0
C48 C 0.2693 0.04391 0.87032 0.0
C49 C 0.21919 0.03793 0.87103 0.0
C50 C 0.18882 0.05445 0.88436 0.0
C51 C 0.20859 0.07562 0.89745 0.0
C52 C 0.29971 0.13775 0.90213 0.0
C53 C 0.31379 0.16067 0.91479 0.0
C54 C 0.33078 0.18475 0.90435 0.0
C55 C 0.33652 0.18608 0.88095 0.0
C56 C 0.32226 0.16295 0.86831 0.0
C57 C 0.30391 0.13914 0.87879 0.0
C58 C 0.2505 0.10837 0.94118 0.0
C59 C 0.24973 0.08615 0.95635 0.0
C60 C 0.22755 0.08889 0.97722 0.0
C61 C 0.20619 0.11406 0.98336 0.0
C62 C 0.20463 0.13584 0.96769 0.0
C63 C 0.22584 0.13282 0.94656 0.0
P64 P 0.86478 0.1624 0.6147 0.0
H65 H 0.93903 0.15572 0.58079 0.0
H66 H 0.93619 0.15194 0.54017 0.0
H67 H 0.77901 0.15403 0.54245 0.0
H68 H 0.78225 0.15729 0.5833 0.0
H69 H 0.83719 0.22013 0.62114 0.0
H70 H 0.77187 0.24159 0.6426 0.0
H71 H 0.7083 0.16111 0.65476 0.0
H72 H 0.77382 0.13976 0.63317 0.0
H73 H 0.89727 0.10624 0.60169 0.0
H74 H 0.86343 0.15036 0.66209 0.0
O75 O 0.91134 0.18387 0.61917 0.0
H76 H 0.92268 0.06611 0.62403 0.0
H77 H 0.88657 0.11026 0.68433 0.0
C78 C 0.86092 0.15721 0.58499 0.0
C79 C 0.90394 0.15525 0.57255 0.0
C80 C 0.90226 0.15325 0.54931 0.0
C81 C 0.85739 0.1531 0.53801 0.0
C82 C 0.81416 0.15402 0.55064 0.0
C83 C 0.81593 0.15603 0.57398 0.0
C84 C 0.81099 0.17833 0.62607 0.0
C85 C 0.80873 0.20715 0.62808 0.0
C86 C 0.77123 0.21941 0.64028 0.0
C87 C 0.73538 0.20298 0.65069 0.0
C88 C 0.73593 0.17423 0.64728 0.0
C89 C 0.77323 0.16203 0.63489 0.0
C90 C 0.87797 0.13123 0.63023 0.0
C91 C 0.89448 0.10717 0.6197 0.0
C92 C 0.90883 0.08417 0.6325 0.0
C93 C 0.90715 0.08503 0.656 0.0
C94 C 0.88934 0.10901 0.66632 0.0
C95 C 0.8755 0.13191 0.65358 0.0
P96 P 0.76737 0.38531 0.10556 0.0
H97 H 0.78683 0.41084 0.14864 0.0
H98 H 0.75071 0.4503 0.168 0.0
H99 H 0.64372 0.45812 0.11553 0.0
H100 H 0.67922 0.41843 0.09648 0.0
H101 H 0.80028 0.33159 0.09069 0.0
H102 H 0.81251 0.28751 0.10996 0.0
H103 H 0.747 0.32106 0.1695 0.0
H104 H 0.7348 0.36512 0.15009 0.0
H105 H 0.7984 0.41343 0.06472 0.0
H106 H 0.68802 0.3544 0.0838 0.0
O107 O 0.82575 0.39483 0.10467 0.0
H108 H 0.77111 0.41151 0.02606 0.0
H109 H 0.65913 0.35293 0.04502 0.0
C110 C 0.73582 0.41166 0.12111 0.0
C111 C 0.75497 0.4207 0.14154 0.0
C112 C 0.73429 0.4432 0.15261 0.0
C113 C 0.69462 0.45736 0.14319 0.0
C114 C 0.67456 0.44771 0.12307 0.0
C115 C 0.69481 0.42495 0.11218 0.0
C116 C 0.76639 0.35167 0.11882 0.0
C117 C 0.78748 0.32928 0.10773 0.0
C118 C 0.79445 0.30404 0.11879 0.0
C119 C 0.78086 0.30075 0.14133 0.0
C120 C 0.75835 0.32301 0.15223 0.0
C121 C 0.75114 0.34824 0.14106 0.0
C122 C 0.74588 0.38365 0.07705 0.0
C123 C 0.76816 0.40003 0.06057 0.0
C124 C 0.75207 0.39913 0.03843 0.0
C125 C 0.71276 0.38208 0.03229 0.0
C126 C 0.68994 0.36598 0.04902 0.0
C127 C 0.70628 0.36685 0.07122 0.0
P128 P 0.77347 0.61091 0.59974 0.0
H129 H 0.75775 0.66076 0.57267 0.0
H130 H 0.71809 0.6683 0.53656 0.0
H131 H 0.67058 0.58313 0.53646 0.0
H132 H 0.71056 0.57567 0.57249 0.0
H133 H 0.86243 0.64158 0.61002 0.0
H134 H 0.87861 0.68244 0.63235 0.0
H135 H 0.72546 0.68842 0.64811 0.0
H136 H 0.70941 0.64753 0.62517 0.0
H137 H 0.82026 0.56951 0.62767 0.0
H138 H 0.67348 0.59476 0.61258 0.0
O139 O 0.82644 0.59952 0.58977 0.0
H140 H 0.78935 0.53183 0.65095 0.0
H141 H 0.64192 0.55638 0.63542 0.0
C142 C 0.73588 0.61787 0.57565 0.0
C143 C 0.73773 0.64389 0.56519 0.0
C144 C 0.71546 0.64811 0.54442 0.0
C145 C 0.69113 0.62632 0.53366 0.0
C146 C 0.68834 0.60045 0.54447 0.0
C147 C 0.71104 0.59619 0.56513 0.0
C148 C 0.78469 0.64151 0.61596 0.0
C149 C 0.83223 0.65164 0.61822 0.0
C150 C 0.84152 0.67496 0.63118 0.0
C151 C 0.80341 0.68863 0.64221 0.0
C152 C 0.75561 0.67852 0.63972 0.0
C153 C 0.74637 0.6551 0.62671 0.0
C154 C 0.74916 0.58431 0.61781 0.0
C155 C 0.78127 0.5668 0.62925 0.0
C156 C 0.76351 0.54518 0.64252 0.0
C157 C 0.71312 0.54068 0.6447 0.0
C158 C 0.68092 0.55921 0.63409 0.0
C159 C 0.69887 0.58099 0.62085 0.0
P160 P 0.84704 0.84955 0.10548 0.0
H161 H 0.92025 0.85427 0.14043 0.0
H162 H 0.94287 0.8915 0.16567 0.0
H163 H 0.83203 0.94358 0.13627 0.0
H164 H 0.81025 0.90618 0.11063 0.0
H165 H 0.83984 0.79359 0.12412 0.0
H166 H 0.77656 0.76972 0.14531 0.0
H167 H 0.68245 0.84064 0.13755 0.0
H168 H 0.74667 0.86466 0.11655 0.0
H169 H 0.89362 0.89049 0.07696 0.0
H170 H 0.77199 0.83437 0.07252 0.0
O171 O 0.89471 0.82848 0.1029 0.0
H172 H 0.88325 0.9032 0.03779 0.0
H173 H 0.76026 0.84758 0.03334 0.0
C174 C 0.86417 0.87765 0.12343 0.0
C175 C 0.90111 0.87378 0.13925 0.0
C176 C 0.91372 0.89504 0.15381 0.0
C177 C 0.8892 0.92054 0.15303 0.0
C178 C 0.85205 0.92434 0.13712 0.0
C179 C 0.83944 0.90297 0.12252 0.0
C180 C 0.79788 0.83088 0.11868 0.0
C181 C 0.80541 0.80392 0.12669 0.0
C182 C 0.76901 0.7902 0.13877 0.0
C183 C 0.72435 0.80323 0.14318 0.0
C184 C 0.7166 0.83011 0.13468 0.0
C185 C 0.75311 0.84381 0.12255 0.0
C186 C 0.83296 0.86195 0.07779 0.0
C187 C 0.86378 0.88147 0.06768 0.0
C188 C 0.8577 0.88876 0.04524 0.0
C189 C 0.82077 0.87651 0.03234 0.0
C190 C 0.78934 0.85725 0.04269 0.0
C191 C 0.79563 0.8499 0.06519 0.0
P192 P 0.27726 0.88809 0.41772 0.0
H193 H 0.31087 0.90757 0.4611 0.0
H194 H 0.27742 0.9047 0.49864 0.0
H195 H 0.15207 0.86091 0.47332 0.0
H196 H 0.18608 0.86387 0.43542 0.0
H197 H 0.36521 0.85628 0.40793 0.0
H198 H 0.37932 0.8152 0.38569 0.0
H199 H 0.22392 0.80424 0.3783 0.0
H200 H 0.21028 0.84635 0.39971 0.0
H201 H 0.21359 0.93607 0.42495 0.0
H202 H 0.26698 0.88894 0.3692 0.0
O203 O 0.33147 0.90352 0.41979 0.0
H204 H 0.17888 0.97014 0.39893 0.0
H205 H 0.23158 0.92227 0.34332 0.0
C206 C 0.25125 0.8857 0.44539 0.0
C207 C 0.27617 0.89734 0.46348 0.0
C208 C 0.25678 0.89586 0.48501 0.0
C209 C 0.21193 0.8827 0.489 0.0
C210 C 0.18689 0.87101 0.47082 0.0
C211 C 0.20628 0.87268 0.44915 0.0
C212 C 0.28664 0.85451 0.40544 0.0
C213 C 0.33407 0.84487 0.40182 0.0
C214 C 0.34213 0.82113 0.38916 0.0
C215 C 0.30282 0.8064 0.37995 0.0
C216 C 0.25515 0.81531 0.38475 0.0
C217 C 0.24719 0.8392 0.39729 0.0
C218 C 0.24202 0.9096 0.39906 0.0
C219 C 0.21653 0.93256 0.40715 0.0
C220 C 0.19671 0.95204 0.39226 0.0
C221 C 0.2028 0.94903 0.36905 0.0
C222 C 0.22677 0.92541 0.36109 0.0
C223 C 0.24654 0.90608 0.37592 0.0
P224 P 0.35512 0.65577 0.90604 0.0
H225 H 0.41725 0.64942 0.86714 0.0
H226 H 0.43198 0.61116 0.84178 0.0
H227 H 0.33498 0.55946 0.88077 0.0
H228 H 0.32121 0.59798 0.90648 0.0
H229 H 0.31767 0.71116 0.91358 0.0
H230 H 0.25163 0.73786 0.89651 0.0
H231 H 0.21549 0.66839 0.85476 0.0
H232 H 0.28056 0.64144 0.87227 0.0
H233 H 0.40808 0.61755 0.93475 0.0
H234 H 0.28806 0.67414 0.94166 0.0
O235 O 0.40285 0.67712 0.90495 0.0
H236 H 0.40961 0.61063 0.97518 0.0
H237 H 0.29066 0.66827 0.98209 0.0
C238 C 0.36895 0.62634 0.88892 0.0
C239 C 0.39974 0.62974 0.87046 0.0
C240 C 0.40768 0.6079 0.85582 0.0
C241 C 0.38443 0.58227 0.85917 0.0
C242 C 0.35386 0.57883 0.87787 0.0
C243 C 0.34596 0.60079 0.89256 0.0
C244 C 0.30396 0.67425 0.89438 0.0
C245 C 0.29514 0.70152 0.90098 0.0
C246 C 0.25752 0.71676 0.89119 0.0
C247 C 0.22863 0.70515 0.87429 0.0
C248 C 0.23751 0.67784 0.86764 0.0
C249 C 0.27461 0.66241 0.87776 0.0
C250 C 0.34778 0.6462 0.93506 0.0
C251 C 0.38138 0.62808 0.94491 0.0
C252 C 0.3826 0.62441 0.9681 0.0
C253 C 0.3507 0.63918 0.982 0.0
C254 C 0.31552 0.65636 0.97196 0.0
C255 C 0.31417 0.65987 0.94872 0.0
Eu256 Eu 0.05034 0.13707 0.23093 0.0
C257 C 0.83466 0.12556 0.2602 0.0
N258 N 0.8662 0.14493 0.26768 0.0
C259 C 0.80797 0.1806 0.25997 0.0
C260 C 0.789 0.13304 0.25132 0.0
C261 C 0.85258 0.17202 0.26889 0.0
C262 C 0.77646 0.16109 0.25067 0.0
C263 C 0.81222 0.07722 0.2586 0.0
C264 C 0.84616 0.09814 0.26368 0.0
C265 C 0.76813 0.08434 0.24816 0.0
C266 C 0.75654 0.11225 0.2445 0.0
Eu267 Eu 0.94408 0.12927 0.27902 0.0
N268 N 0.88843 0.0922 0.27428 0.0
C269 C 0.82252 0.05005 0.2653 0.0
C270 C 0.89639 0.06632 0.28283 0.0
C271 C 0.86426 0.0447 0.27796 0.0
H272 H 0.8771 0.18712 0.27601 0.0
H273 H 0.87172 0.02396 0.28394 0.0
H274 H 0.15848 0.13791 0.25601 0.0
H275 H 0.97618 0.21801 0.17607 0.0
H276 H 0.92882 0.06221 0.29256 0.0
H277 H 0.79746 0.03334 0.26171 0.0
H278 H 0.99108 0.1701 0.18873 0.0
H279 H 0.79799 0.20223 0.26023 0.0
H280 H 0.74186 0.06853 0.24378 0.0
H281 H 0.72155 0.11754 0.23732 0.0
H282 H 0.2192 0.17217 0.2692 0.0
H283 H 0.74179 0.16774 0.24392 0.0
H284 H 0.02032 0.25678 0.19378 0.0
N285 N 0.11132 0.16841 0.24243 0.0
C286 C 0.10448 0.19549 0.23749 0.0
C287 C 0.18683 0.17903 0.2605 0.0
C288 C 0.13754 0.21577 0.24488 0.0
C289 C 0.15273 0.15972 0.25294 0.0
C290 C 0.17874 0.20723 0.25682 0.0
N291 N 0.03846 0.18188 0.21517 0.0
C292 C 0.00899 0.18694 0.19722 0.0
C293 C 0.0604 0.23014 0.21641 0.0
C294 C 0.06634 0.20252 0.22358 0.0
C295 C 0.02597 0.23585 0.19979 0.0
C296 C 0.00108 0.21403 0.18973 0.0
H297 H 0.20528 0.22216 0.26259 0.0
H298 H 0.15404 0.25961 0.24509 0.0
H299 H 0.08641 0.27224 0.22003 0.0
O300 O 0.08818 0.13896 0.19868 0.0
O301 O 0.059 0.15237 0.26674 0.0
O302 O 0.98367 0.16958 0.27338 0.0
O303 O 0.09695 0.10334 0.22 0.0
O304 O 0.97055 0.14155 0.22134 0.0
O305 O 0.94442 0.16332 0.25262 0.0
O306 O 0.97595 0.13556 0.31202 0.0
O307 O 0.96587 0.09139 0.25909 0.0
O308 O 0.98677 0.10822 0.22433 0.0
O309 O 0.89819 0.13189 0.30884 0.0
O310 O 0.01022 0.10165 0.28528 0.0
O311 O 0.07235 0.10755 0.25867 0.0
C312 C 0.03082 0.17087 0.27601 0.0
C313 C 0.10177 0.09587 0.18078 0.0
C314 C 0.11338 0.08888 0.14049 0.0
C315 C 0.10399 0.06047 0.1438 0.0
C316 C 0.09172 0.06754 0.1834 0.0
C317 C 0.09288 0.05005 0.16501 0.0
C318 C 0.11171 0.10644 0.15926 0.0
C319 C 0.9394 0.15785 0.23135 0.0
C320 C 0.10578 0.11414 0.20046 0.0
C321 C 0.12951 0.24363 0.23927 0.0
C322 C 0.09093 0.25083 0.22505 0.0
C323 C 0.97322 0.08787 0.2376 0.0
C324 C 0.92801 0.15939 0.33817 0.0
C325 C 0.90767 0.17451 0.37586 0.0
C326 C 0.91821 0.20192 0.3694 0.0
C327 C 0.93783 0.18684 0.33193 0.0
C328 C 0.91276 0.15333 0.36004 0.0
C329 C 0.93306 0.20798 0.34755 0.0
C330 C 0.05421 0.09649 0.27717 0.0
C331 C 0.93431 0.13672 0.32226 0.0
H332 H 0.10639 0.04594 0.13019 0.0
H333 H 0.08393 0.0587 0.19969 0.0
H334 H 0.0862 0.02815 0.16728 0.0
H335 H 0.11855 0.12837 0.15732 0.0
H336 H 0.91435 0.2187 0.38115 0.0
H337 H 0.94928 0.19185 0.31507 0.0
H338 H 0.90569 0.13202 0.36481 0.0
H339 H 0.94086 0.22914 0.3427 0.0
Eu340 Eu 0.44058 0.3678 0.73636 0.0
C341 C 0.64632 0.40263 0.76512 0.0
N342 N 0.6279 0.37657 0.76536 0.0
C343 C 0.69775 0.36003 0.74562 0.0
C344 C 0.69033 0.40872 0.75403 0.0
C345 C 0.65363 0.35508 0.75664 0.0
C346 C 0.71585 0.38703 0.74403 0.0
C347 C 0.63957 0.4503 0.77678 0.0
C348 C 0.62118 0.42308 0.77628 0.0
C349 C 0.68209 0.45687 0.76478 0.0
C350 C 0.70749 0.4361 0.75347 0.0
Eu351 Eu 0.55128 0.37023 0.78258 0.0
N352 N 0.58034 0.41596 0.78777 0.0
C353 C 0.61559 0.46983 0.78993 0.0
C354 C 0.5598 0.43417 0.80227 0.0
C355 C 0.57617 0.46155 0.80314 0.0
H356 H 0.63931 0.33428 0.75773 0.0
H357 H 0.55876 0.47614 0.81417 0.0
H358 H 0.37245 0.42319 0.75171 0.0
H359 H 0.38422 0.26062 0.72673 0.0
H360 H 0.53105 0.42755 0.81335 0.0
H361 H 0.62846 0.49099 0.79074 0.0
H362 H 0.43913 0.30114 0.72301 0.0
H363 H 0.71757 0.34307 0.73824 0.0
H364 H 0.69637 0.47777 0.76467 0.0
H365 H 0.74082 0.44132 0.74472 0.0
H366 H 0.29454 0.43218 0.77036 0.0
H367 H 0.74982 0.39084 0.73533 0.0
H368 H 0.30458 0.26561 0.74559 0.0
N369 N 0.3652 0.37935 0.7532 0.0
C370 C 0.33415 0.35786 0.75701 0.0
C371 C 0.30556 0.41113 0.76704 0.0
C372 C 0.28797 0.36221 0.76669 0.0
C373 C 0.35047 0.40587 0.75697 0.0
C374 C 0.27444 0.38917 0.77223 0.0
N375 N 0.39161 0.32807 0.74041 0.0
C376 C 0.40461 0.30324 0.73149 0.0
C377 C 0.31473 0.30919 0.75235 0.0
C378 C 0.3473 0.33159 0.75003 0.0
C379 C 0.32856 0.28334 0.74408 0.0
C380 C 0.37355 0.28041 0.73346 0.0
H381 H 0.23933 0.39336 0.77972 0.0
H382 H 0.22063 0.34271 0.77732 0.0
H383 H 0.24397 0.29634 0.76464 0.0
O384 O 0.45065 0.35882 0.70079 0.0
O385 O 0.44327 0.33576 0.76467 0.0
O386 O 0.47294 0.36336 0.79178 0.0
O387 O 0.39103 0.3845 0.71113 0.0
O388 O 0.50631 0.34085 0.72921 0.0
O389 O 0.54133 0.32974 0.76368 0.0
O390 O 0.58463 0.3734 0.81605 0.0
O391 O 0.56498 0.37831 0.74566 0.0
O392 O 0.49744 0.40188 0.73396 0.0
O393 O 0.5743 0.33305 0.80054 0.0
O394 O 0.48388 0.39676 0.78904 0.0
O395 O 0.45534 0.40875 0.75387 0.0
C396 C 0.45086 0.34067 0.78592 0.0
C397 C 0.37957 0.35829 0.67839 0.0
C398 C 0.35206 0.35173 0.63987 0.0
C399 C 0.31729 0.33257 0.64769 0.0
C400 C 0.34411 0.33943 0.68576 0.0
C401 C 0.31344 0.32652 0.67046 0.0
C402 C 0.38337 0.36445 0.65544 0.0
C403 C 0.53353 0.32502 0.74223 0.0
C404 C 0.41194 0.37221 0.69445 0.0
C405 C 0.25611 0.33975 0.76981 0.0
C406 C 0.26934 0.31335 0.76254 0.0
C407 C 0.5447 0.39802 0.73381 0.0
C408 C 0.61211 0.33274 0.83731 0.0
C409 C 0.63852 0.33253 0.87653 0.0
C410 C 0.65658 0.30556 0.87352 0.0
C411 C 0.6297 0.30568 0.83506 0.0
C412 C 0.61638 0.34607 0.85812 0.0
C413 C 0.65187 0.29228 0.85304 0.0
C414 C 0.46242 0.41429 0.77519 0.0
C415 C 0.58994 0.34675 0.81776 0.0
H416 H 0.29222 0.32271 0.63627 0.0
H417 H 0.33964 0.33489 0.70331 0.0
H418 H 0.28614 0.31201 0.67631 0.0
H419 H 0.41069 0.37909 0.64975 0.0
H420 H 0.6752 0.29473 0.88689 0.0
H421 H 0.62693 0.29496 0.81928 0.0
H422 H 0.60187 0.36672 0.85998 0.0
H423 H 0.66592 0.27155 0.85102 0.0
Eu424 Eu 0.0496 0.86166 0.73736 0.0
C425 C 0.8282 0.86109 0.75847 0.0
N426 N 0.85908 0.88296 0.7606 0.0
C427 C 0.80186 0.9128 0.7424 0.0
C428 C 0.78271 0.86435 0.74789 0.0
C429 C 0.84674 0.90858 0.75288 0.0
C430 C 0.7697 0.89061 0.7399 0.0
C431 C 0.81226 0.81198 0.7634 0.0
C432 C 0.84305 0.83509 0.76609 0.0
C433 C 0.76683 0.81524 0.75298 0.0
C434 C 0.75209 0.84132 0.74527 0.0
Eu435 Eu 0.93358 0.8738 0.77841 0.0
N436 N 0.88787 0.83234 0.77567 0.0
C437 C 0.82809 0.78619 0.77122 0.0
C438 C 0.90241 0.80746 0.78421 0.0
C439 C 0.87313 0.78399 0.78183 0.0
H440 H 0.87137 0.92581 0.75497 0.0
H441 H 0.88516 0.76424 0.78839 0.0
H442 H 0.13208 0.82503 0.76606 0.0
H443 H 0.07689 0.96016 0.69307 0.0
H444 H 0.93603 0.80546 0.79321 0.0
H445 H 0.80555 0.76793 0.7694 0.0
H446 H 0.03966 0.9145 0.69994 0.0
H447 H 0.79209 0.93315 0.73626 0.0
H448 H 0.74283 0.79767 0.75072 0.0
H449 H 0.71704 0.84343 0.73714 0.0
H450 H 0.21201 0.83214 0.78419 0.0
H451 H 0.73507 0.89393 0.73166 0.0
H452 H 0.14889 0.97465 0.71493 0.0
N453 N 0.12765 0.86607 0.75359 0.0
C454 C 0.15026 0.89091 0.75108 0.0
C455 C 0.19494 0.84889 0.77503 0.0
C456 C 0.19573 0.896 0.76118 0.0
C457 C 0.14969 0.84489 0.76483 0.0
C458 C 0.21781 0.87467 0.77343 0.0
N459 N 0.08554 0.90482 0.72758 0.0
C460 C 0.06947 0.92113 0.71038 0.0
C461 C 0.15193 0.93648 0.73403 0.0
C462 C 0.12818 0.911 0.73795 0.0
C463 C 0.13182 0.95488 0.71843 0.0
C464 C 0.09117 0.9468 0.70608 0.0
H465 H 0.25275 0.87776 0.78144 0.0
H466 H 0.25255 0.92644 0.76635 0.0
H467 H 0.21444 0.96181 0.74237 0.0
O468 O 0.05109 0.85762 0.70069 0.0
O469 O 0.06446 0.8771 0.77254 0.0
O470 O 0.99769 0.90327 0.78236 0.0
O471 O 0.09908 0.83233 0.72155 0.0
O472 O 0.98815 0.89177 0.72765 0.0
O473 O 0.96075 0.91161 0.76031 0.0
O474 O 0.92682 0.8671 0.81439 0.0
O475 O 0.92225 0.85855 0.74284 0.0
O476 O 0.98808 0.83076 0.7383 0.0
O477 O 0.88578 0.89982 0.79859 0.0
O478 O 0.99199 0.84444 0.79068 0.0
O479 O 0.03662 0.8256 0.76137 0.0
C480 C 0.04437 0.89742 0.78366 0.0
C481 C 0.105 0.8253 0.68147 0.0
C482 C 0.12731 0.82642 0.6418 0.0
C483 C 0.14616 0.79949 0.64413 0.0
C484 C 0.12411 0.79851 0.68326 0.0
C485 C 0.14426 0.78567 0.66466 0.0
C486 C 0.1062 0.83909 0.66066 0.0
C487 C 0.97271 0.9133 0.7391 0.0
C488 C 0.08483 0.83879 0.70148 0.0
C489 C 0.21791 0.922 0.75849 0.0
C490 C 0.19608 0.94219 0.74492 0.0
C491 C 0.943 0.83705 0.7337 0.0
C492 C 0.85212 0.87875 0.83102 0.0
C493 C 0.81445 0.87624 0.86796 0.0
C494 C 0.77496 0.86181 0.85867 0.0
C495 C 0.81216 0.86459 0.82203 0.0
C496 C 0.85295 0.88472 0.85395 0.0
C497 C 0.7738 0.85618 0.83581 0.0
C498 C 0.0223 0.82598 0.78247 0.0
C499 C 0.89426 0.88631 0.81707 0.0
H500 H 0.16357 0.78925 0.63024 0.0
H501 H 0.12344 0.78744 0.69907 0.0
H502 H 0.15909 0.76503 0.66622 0.0
H503 H 0.09123 0.85974 0.65926 0.0
H504 H 0.74475 0.85517 0.86904 0.0
H505 H 0.81067 0.85989 0.80446 0.0
H506 H 0.88406 0.89541 0.86097 0.0
H507 H 0.74314 0.84518 0.82876 0.0
Eu508 Eu 0.44273 0.62854 0.23399 0.0
C509 C 0.6425 0.67842 0.25448 0.0
N510 N 0.62846 0.6516 0.25698 0.0
C511 C 0.69936 0.63686 0.23689 0.0
C512 C 0.68464 0.68554 0.24223 0.0
C513 C 0.65786 0.63083 0.24956 0.0
C514 C 0.71234 0.66435 0.23285 0.0
C515 C 0.63159 0.72658 0.26445 0.0
C516 C 0.61631 0.69874 0.26534 0.0
C517 C 0.6723 0.73388 0.2515 0.0
C518 C 0.69871 0.71341 0.24038 0.0
Eu519 Eu 0.55475 0.64396 0.277 0.0
N520 N 0.57645 0.69118 0.27731 0.0
C521 C 0.60575 0.74617 0.27681 0.0
C522 C 0.55244 0.70988 0.29023 0.0
C523 C 0.56637 0.73771 0.28999 0.0
H524 H 0.6499 0.60949 0.25351 0.0
H525 H 0.54676 0.75258 0.29996 0.0
H526 H 0.3453 0.63639 0.26645 0.0
H527 H 0.49989 0.53747 0.18687 0.0
H528 H 0.52229 0.70326 0.3005 0.0
H529 H 0.61637 0.76776 0.27657 0.0
H530 H 0.49441 0.58722 0.19511 0.0
H531 H 0.72174 0.62027 0.23055 0.0
H532 H 0.68417 0.75522 0.2503 0.0
H533 H 0.73073 0.71928 0.23088 0.0
H534 H 0.28263 0.60727 0.285 0.0
H535 H 0.74482 0.66896 0.22324 0.0
H536 H 0.44886 0.50401 0.2079 0.0
N537 N 0.38076 0.60233 0.25138 0.0
C538 C 0.38038 0.57474 0.24742 0.0
C539 C 0.31012 0.59785 0.27459 0.0
C540 C 0.34583 0.55731 0.25778 0.0
C541 C 0.34548 0.61426 0.26411 0.0
C542 C 0.31055 0.56922 0.27158 0.0
N543 N 0.44588 0.58173 0.22245 0.0
C544 C 0.47409 0.57271 0.20522 0.0
C545 C 0.4148 0.53553 0.22808 0.0
C546 C 0.4145 0.56406 0.23281 0.0
C547 C 0.44732 0.52578 0.21196 0.0
C548 C 0.47632 0.54457 0.20013 0.0
H549 H 0.2831 0.55657 0.27971 0.0
H550 H 0.32157 0.51491 0.26194 0.0
H551 H 0.382 0.49582 0.23592 0.0
O552 O 0.40708 0.62337 0.20176 0.0
O553 O 0.44603 0.61046 0.26928 0.0
O554 O 0.52621 0.60028 0.2742 0.0
O555 O 0.38953 0.65947 0.22203 0.0
O556 O 0.52028 0.62273 0.22161 0.0
O557 O 0.56319 0.60796 0.25261 0.0
O558 O 0.54551 0.64062 0.31332 0.0
O559 O 0.52167 0.67763 0.25503 0.0
O560 O 0.50472 0.6561 0.22216 0.0
O561 O 0.61681 0.63613 0.29893 0.0
O562 O 0.47884 0.65525 0.28968 0.0
O563 O 0.42915 0.66325 0.25857 0.0
C564 C 0.48021 0.5935 0.27598 0.0
C565 C 0.34973 0.65565 0.18545 0.0
C566 C 0.33034 0.65891 0.14553 0.0
C567 C 0.29092 0.67624 0.15079 0.0
C568 C 0.31046 0.67309 0.19023 0.0
C569 C 0.28101 0.6831 0.17297 0.0
C570 C 0.35908 0.64834 0.16314 0.0
C571 C 0.55556 0.60828 0.23086 0.0
C572 C 0.38255 0.6462 0.20344 0.0
C573 C 0.34736 0.52872 0.25388 0.0
C574 C 0.38185 0.51784 0.23911 0.0
C575 C 0.52202 0.67731 0.23317 0.0
C576 C 0.61228 0.65612 0.33478 0.0
C577 C 0.62964 0.66485 0.37425 0.0
C578 C 0.65071 0.69036 0.36809 0.0
C579 C 0.63464 0.68132 0.3291 0.0
C580 C 0.60992 0.64793 0.35737 0.0
C581 C 0.65327 0.69842 0.3457 0.0
C582 C 0.44032 0.66652 0.2799 0.0
C583 C 0.59184 0.63814 0.3173 0.0
H584 H 0.26844 0.68515 0.13775 0.0
H585 H 0.30268 0.67905 0.20727 0.0
H586 H 0.25083 0.69663 0.17677 0.0
H587 H 0.38935 0.63477 0.15951 0.0
H588 H 0.66517 0.7042 0.3806 0.0
H589 H 0.63808 0.68776 0.31186 0.0
H590 H 0.59373 0.62814 0.36167 0.0
H591 H 0.67 0.71795 0.34117 0.0
H592 H 0.11755 0.97948 0.36844 0.0
H593 H 0.25535 0.9694 0.33395 0.0
H594 H 0.23251 0.00614 0.3073 0.0
H595 H 0.04507 0.99218 0.3193 0.0
H596 H 0.00697 0.01775 0.33229 0.0
H597 H 0.034 0.99072 0.34899 0.0
H598 H 0.07333 0.0275 0.37461 0.0
H599 H 0.04642 0.05464 0.35796 0.0
H600 H 0.11129 0.05408 0.36245 0.0
H601 H 0.19566 0.0437 0.28441 0.0
H602 H 0.14602 0.07941 0.26598 0.0
H603 H 0.03129 0.06579 0.31493 0.0
C604 C 0.14296 0.98513 0.35534 0.0
C605 C 0.1881 0.97134 0.35319 0.0
C606 C 0.22021 0.97925 0.33572 0.0
C607 C 0.20775 1.00026 0.32057 0.0
C608 C 0.163 0.01329 0.32307 0.0
C609 C 0.13098 0.00608 0.33995 0.0
C610 C 0.08491 0.02329 0.33858 0.0
C611 C 0.04009 0.00488 0.33454 0.0
C612 C 0.07864 0.04093 0.35965 0.0
C613 C 0.09616 0.04119 0.31828 0.0
C614 C 0.14149 0.03509 0.30969 0.0
C615 C 0.16006 0.04869 0.29096 0.0
C616 C 0.13145 0.069 0.2806 0.0
C617 C 0.08454 0.07554 0.28891 0.0
C618 C 0.06693 0.06141 0.30811 0.0
H619 H 0.39781 0.52669 0.86768 0.0
H620 H 0.38674 0.58667 0.81359 0.0
H621 H 0.40261 0.54988 0.78627 0.0
H622 H 0.49408 0.48768 0.84475 0.0
H623 H 0.47133 0.45447 0.85382 0.0
H624 H 0.45674 0.48504 0.86944 0.0
H625 H 0.36466 0.47473 0.8654 0.0
H626 H 0.37875 0.44385 0.85006 0.0
H627 H 0.33916 0.46959 0.83798 0.0
H628 H 0.42392 0.5074 0.76495 0.0
H629 H 0.44765 0.4615 0.75095 0.0
H630 H 0.44115 0.42842 0.81851 0.0
C631 C 0.39798 0.532 0.85007 0.0
C632 C 0.39138 0.55963 0.8428 0.0
C633 C 0.39253 0.56576 0.8196 0.0
C634 C 0.40118 0.54498 0.80393 0.0
C635 C 0.40825 0.51808 0.81166 0.0
C636 C 0.40645 0.51146 0.83415 0.0
C637 C 0.41648 0.48098 0.838 0.0
C638 C 0.46239 0.47681 0.85235 0.0
C639 C 0.37211 0.46643 0.84848 0.0
C640 C 0.42469 0.47165 0.81419 0.0
C641 C 0.41974 0.49338 0.79927 0.0
C642 C 0.42741 0.49014 0.77644 0.0
C643 C 0.44076 0.46398 0.76865 0.0
C644 C 0.44626 0.44141 0.78364 0.0
C645 C 0.43744 0.44532 0.80667 0.0
H646 H 0.634 0.53696 0.67321 0.0
H647 H 0.7502 0.4883 0.64406 0.0
H648 H 0.72065 0.44706 0.66429 0.0
H649 H 0.63397 0.50237 0.72756 0.0
H650 H 0.56878 0.50389 0.73056 0.0
H651 H 0.60025 0.53014 0.71461 0.0
H652 H 0.54531 0.51972 0.6804 0.0
H653 H 0.51387 0.49343 0.69628 0.0
H654 H 0.54181 0.48489 0.66997 0.0
H655 H 0.67848 0.41088 0.68711 0.0
H656 H 0.62468 0.38186 0.71069 0.0
H657 H 0.5343 0.45314 0.72438 0.0
C658 C 0.65314 0.51762 0.67103 0.0
C659 C 0.69476 0.51601 0.65716 0.0
C660 C 0.71888 0.49027 0.65491 0.0
C661 C 0.70223 0.46665 0.66625 0.0
C662 C 0.66128 0.46897 0.67977 0.0
C663 C 0.63697 0.49375 0.68225 0.0
C664 C 0.59334 0.49036 0.69758 0.0
C665 C 0.59947 0.50773 0.71884 0.0
C666 C 0.54577 0.49752 0.68532 0.0
C667 C 0.59641 0.45973 0.70288 0.0
C668 C 0.63625 0.44788 0.69264 0.0
C669 C 0.64716 0.41992 0.69521 0.0
C670 C 0.61655 0.40363 0.70864 0.0
C671 C 0.57555 0.41534 0.71925 0.0
C672 C 0.56522 0.4437 0.71622 0.0
H673 H 0.89811 0.97668 0.1451 0.0
H674 H 0.90858 0.91449 0.19759 0.0
H675 H 0.93272 0.95045 0.22436 0.0
H676 H 0.99947 0.01676 0.16184 0.0
H677 H 0.97302 0.05015 0.15608 0.0
H678 H 0.95413 0.02039 0.14031 0.0
H679 H 0.86431 0.02755 0.1512 0.0
H680 H 0.8815 0.05819 0.16624 0.0
H681 H 0.84813 0.03101 0.18024 0.0
H682 H 0.95645 0.99248 0.24538 0.0
H683 H 0.97647 0.03867 0.25981 0.0
H684 H 0.94966 0.07443 0.19422 0.0
C685 C 0.90499 0.97069 0.16228 0.0
C686 C 0.90183 0.94267 0.16918 0.0
C687 C 0.91161 0.93569 0.19178 0.0
C688 C 0.92508 0.95599 0.20716 0.0
C689 C 0.92848 0.98327 0.19976 0.0
C690 C 0.91847 0.99075 0.17792 0.0
C691 C 0.92516 0.02165 0.1744 0.0
C692 C 0.96534 0.0276 0.15713 0.0
C693 C 0.8769 0.0354 0.16762 0.0
C694 C 0.94065 0.03025 0.19767 0.0
C695 C 0.94217 0.00773 0.212 0.0
C696 C 0.95508 0.01031 0.23437 0.0
C697 C 0.96611 0.03667 0.24244 0.0
C698 C 0.96386 0.06018 0.22824 0.0
C699 C 0.95164 0.05682 0.20547 0.0
H700 H 0.89554 0.02873 0.64945 0.0
H701 H 0.96109 0.08856 0.69418 0.0
H702 H 0.98712 0.05084 0.71916 0.0
H703 H 0.85069 0.98304 0.69079 0.0
H704 H 0.8646 0.95172 0.67598 0.0
H705 H 0.85285 0.98318 0.66067 0.0
H706 H 0.93624 0.9789 0.6407 0.0
H707 H 0.94801 0.94728 0.65588 0.0
H708 H 0.99088 0.97548 0.65717 0.0
H709 H 0.00035 0.00787 0.7408 0.0
H710 H 0.00452 0.96092 0.75701 0.0
H711 H 0.93534 0.92764 0.69787 0.0
C712 C 0.91608 0.03385 0.6643 0.0
C713 C 0.9256 0.06172 0.66998 0.0
C714 C 0.95226 0.06749 0.6897 0.0
C715 C 0.96763 0.04618 0.70393 0.0
C716 C 0.95677 0.01908 0.69811 0.0
C717 C 0.93215 0.01271 0.67869 0.0
C718 C 0.92445 0.9817 0.6768 0.0
C719 C 0.86991 0.9745 0.67602 0.0
C720 C 0.95151 0.97017 0.65642 0.0
C721 C 0.94753 0.97184 0.69846 0.0
C722 C 0.96595 0.99385 0.71043 0.0
C723 C 0.98664 0.99042 0.73149 0.0
C724 C 0.98854 0.96376 0.74061 0.0
C725 C 0.97046 0.94086 0.7286 0.0
C726 C 0.94999 0.94487 0.70718 0.0
H727 H 0.67014 0.46698 0.1872 0.0
H728 H 0.679 0.50645 0.12198 0.0
H729 H 0.65107 0.55036 0.13831 0.0
H730 H 0.56075 0.50106 0.20407 0.0
H731 H 0.57805 0.50468 0.23295 0.0
H732 H 0.60156 0.47643 0.21677 0.0
H733 H 0.68976 0.49114 0.22607 0.0
H734 H 0.6669 0.51937 0.2425 0.0
H735 H 0.70931 0.52602 0.2201 0.0
H736 H 0.62094 0.58948 0.16109 0.0
H737 H 0.58345 0.62073 0.18854 0.0
H738 H 0.593 0.55656 0.23933 0.0
C739 C 0.66646 0.48496 0.17644 0.0
C740 C 0.6767 0.48337 0.15331 0.0
C741 C 0.6709 0.50718 0.13968 0.0
C742 C 0.65546 0.53225 0.14884 0.0
C743 C 0.64574 0.53318 0.17166 0.0
C744 C 0.6505 0.51016 0.18529 0.0
C745 C 0.63505 0.51657 0.20907 0.0
C746 C 0.59126 0.49863 0.21613 0.0
C747 C 0.67782 0.51306 0.22539 0.0
C748 C 0.62084 0.54673 0.20659 0.0
C749 C 0.62772 0.55588 0.18488 0.0
C750 C 0.61557 0.5826 0.17816 0.0
C751 C 0.59443 0.60021 0.19386 0.0
C752 C 0.58548 0.59101 0.21599 0.0
C753 C 0.60007 0.56419 0.22259 0.0
H754 H 0.35585 0.48046 0.35569 0.0
H755 H 0.43559 0.41854 0.31867 0.0
H756 H 0.46842 0.45491 0.29367 0.0
H757 H 0.32423 0.52254 0.30688 0.0
H758 H 0.33052 0.55505 0.3212 0.0
H759 H 0.31239 0.52444 0.33643 0.0
H760 H 0.38398 0.53058 0.3639 0.0
H761 H 0.40224 0.56151 0.3492 0.0
H762 H 0.44509 0.53374 0.35318 0.0
H763 H 0.49854 0.498 0.27507 0.0
H764 H 0.51837 0.54522 0.26172 0.0
H765 H 0.41382 0.57928 0.30816 0.0
C766 C 0.38 0.47467 0.34222 0.0
C767 C 0.39326 0.44677 0.33903 0.0
C768 C 0.42476 0.43981 0.32122 0.0
C769 C 0.44365 0.4603 0.307 0.0
C770 C 0.43009 0.48763 0.31059 0.0
C771 C 0.39848 0.49487 0.32754 0.0
C772 C 0.38971 0.52583 0.3276 0.0
C773 C 0.33602 0.53236 0.32273 0.0
C774 C 0.40626 0.53866 0.34979 0.0
C775 C 0.42226 0.53486 0.30841 0.0
C776 C 0.44547 0.51247 0.29896 0.0
C777 C 0.48009 0.51566 0.2821 0.0
C778 C 0.49138 0.54248 0.27475 0.0
C779 C 0.46738 0.5656 0.28389 0.0
C780 C 0.43206 0.56176 0.30075 0.0
H781 H 0.13345 0.03376 0.84701 0.0
H782 H 0.26033 0.98678 0.86783 0.0
H783 H 0.22921 0.94612 0.84782 0.0
H784 H 0.047 0.97793 0.85259 0.0
H785 H 0.01212 0.98781 0.82832 0.0
H786 H 0.04453 0.01368 0.84394 0.0
H787 H 0.08967 0.02919 0.8079 0.0
H788 H 0.05733 0.00335 0.7922 0.0
H789 H 0.12291 0.004 0.79194 0.0
H790 H 0.18469 0.91039 0.82608 0.0
H791 H 0.12908 0.88177 0.80361 0.0
H792 H 0.03052 0.95126 0.7967 0.0
C793 C 0.15454 0.01488 0.84744 0.0
C794 C 0.19961 0.01359 0.85886 0.0
C795 C 0.22622 0.9885 0.85887 0.0
C796 C 0.2087 0.9652 0.84767 0.0
C797 C 0.16439 0.96719 0.83653 0.0
C798 C 0.13758 0.99134 0.83628 0.0
C799 C 0.09097 0.98777 0.82299 0.0
C800 C 0.046 0.99205 0.83785 0.0
C801 C 0.0902 0.00724 0.80255 0.0
C802 C 0.09575 0.95783 0.81599 0.0
C803 C 0.13849 0.94643 0.82395 0.0
C804 C 0.15123 0.91913 0.81966 0.0
C805 C 0.11959 0.90309 0.80675 0.0
C806 C 0.07595 0.9144 0.79811 0.0
C807 C 0.06368 0.94206 0.80305 0.0
H808 H 0.14231 0.08213 0.00766 0.0
H809 H 0.23498 0.15455 0.01177 0.0
H810 H 0.21706 0.15811 0.05216 0.0
H811 H 0.05008 0.10685 0.04865 0.0
H812 H 0.0401 0.07254 0.05971 0.0
H813 H 0.05713 0.07722 0.03084 0.0
H814 H 0.13049 0.04439 0.03681 0.0
H815 H 0.11404 0.03986 0.06571 0.0
H816 H 0.17415 0.05191 0.05844 0.0
H817 H 0.19841 0.1496 0.09277 0.0
H818 H 0.17395 0.13293 0.12993 0.0
H819 H 0.0853 0.06915 0.09896 0.0
C820 C 0.15795 0.09904 0.01704 0.0
C821 C 0.18984 0.11816 0.00669 0.0
C822 C 0.20998 0.13993 0.0194 0.0
C823 C 0.20017 0.14203 0.04234 0.0
C824 C 0.16936 0.12251 0.05218 0.0
C825 C 0.14769 0.10178 0.03985 0.0
C826 C 0.11683 0.08311 0.05459 0.0
C827 C 0.06283 0.08506 0.04806 0.0
C828 C 0.13499 0.05305 0.05384 0.0
C829 C 0.12603 0.09594 0.07723 0.0
C830 C 0.15647 0.11859 0.07548 0.0
C831 C 0.17338 0.13238 0.0943 0.0
C832 C 0.15881 0.12279 0.11546 0.0
C833 C 0.12688 0.09979 0.11779 0.0
C834 C 0.10996 0.08658 0.09816 0.0
H835 H 0.33532 0.32178 0.50897 0.0
H836 H 0.35143 0.40998 0.49726 0.0
H837 H 0.35663 0.41749 0.53802 0.0
H838 H 0.26218 0.3265 0.55873 0.0
H839 H 0.29067 0.2972 0.5721 0.0
H840 H 0.28721 0.29906 0.54207 0.0
H841 H 0.38083 0.29334 0.53958 0.0
H842 H 0.38461 0.2916 0.56961 0.0
H843 H 0.41979 0.31699 0.5544 0.0
H844 H 0.36242 0.41503 0.58034 0.0
H845 H 0.36343 0.40309 0.62059 0.0
H846 H 0.34523 0.31642 0.60422 0.0
C847 C 0.34007 0.34269 0.51493 0.0
C848 C 0.34299 0.3653 0.49985 0.0
C849 C 0.34849 0.39237 0.50845 0.0
C850 C 0.35187 0.39681 0.53158 0.0
C851 C 0.34956 0.374 0.54593 0.0
C852 C 0.34347 0.34749 0.53792 0.0
C853 C 0.34192 0.32648 0.5568 0.0
C854 C 0.29256 0.31143 0.55746 0.0
C855 C 0.38432 0.30589 0.55498 0.0
C856 C 0.34813 0.34527 0.57672 0.0
C857 C 0.35269 0.3726 0.57014 0.0
C858 C 0.35889 0.39369 0.58566 0.0
C859 C 0.35979 0.38668 0.60849 0.0
C860 C 0.35437 0.35882 0.61562 0.0
C861 C 0.34892 0.33794 0.59938 0.0
H862 H 0.68163 0.33662 0.00852 0.0
H863 H 0.70729 0.42492 1.00187 0.0
H864 H 0.68697 0.42247 0.96179 0.0
H865 H 0.73167 0.31708 0.95718 0.0
H866 H 0.68716 0.29066 0.95137 0.0
H867 H 0.7009 0.29955 0.97983 0.0
H868 H 0.60978 0.30977 0.98718 0.0
H869 H 0.59567 0.30071 0.95875 0.0
H870 H 0.57806 0.33399 0.9694 0.0
H871 H 0.67005 0.40967 0.92161 0.0
H872 H 0.65576 0.38776 0.8851 0.0
H873 H 0.63481 0.30859 0.91858 0.0
C874 C 0.68199 0.35559 0.99881 0.0
C875 C 0.69648 0.38094 0.00847 0.0
C876 C 0.69724 0.40512 0.99489 0.0
C877 C 0.68536 0.40401 0.97209 0.0
C878 C 0.67213 0.37862 0.96306 0.0
C879 C 0.66987 0.3549 0.97605 0.0
C880 C 0.65597 0.33006 0.96212 0.0
C881 C 0.69634 0.30805 0.96266 0.0
C882 C 0.60695 0.31792 0.96982 0.0
C883 C 0.65179 0.34341 0.9392 0.0
C884 C 0.66112 0.37143 0.94007 0.0
C885 C 0.6619 0.3878 0.92079 0.0
C886 C 0.65338 0.37515 0.90007 0.0
C887 C 0.64399 0.34634 0.89871 0.0
C888 C 0.64245 0.33055 0.91876 0.0
H889 H 0.91563 0.18226 0.50902 0.0
H890 H 0.79622 0.1234 0.51076 0.0
H891 H 0.7951 0.12286 0.46942 0.0
H892 H 0.87499 0.22107 0.46127 0.0
H893 H 0.93546 0.2264 0.45035 0.0
H894 H 0.92635 0.22228 0.47999 0.0
H895 H 0.98767 0.18163 0.48066 0.0
H896 H 0.99707 0.18567 0.45104 0.0
H897 H 0.97832 0.15268 0.46233 0.0
H898 H 0.80863 0.12811 0.42771 0.0
H899 H 0.83431 0.13951 0.38912 0.0
H900 H 0.9453 0.19458 0.41504 0.0
C901 C 0.88945 0.16906 0.50074 0.0
C902 C 0.8561 0.15278 0.51316 0.0
C903 C 0.82184 0.13622 0.50162 0.0
C904 C 0.8211 0.13568 0.47815 0.0
C905 C 0.85472 0.1519 0.46647 0.0
C906 C 0.88816 0.16833 0.4774 0.0
C907 C 0.92041 0.18382 0.46103 0.0
C908 C 0.91388 0.21526 0.4633 0.0
C909 C 0.97404 0.17544 0.46394 0.0
C910 C 0.90001 0.17353 0.43913 0.0
C911 C 0.86221 0.15508 0.44259 0.0
C912 C 0.83815 0.14255 0.42482 0.0
C913 C 0.85315 0.14904 0.40297 0.0
C914 C 0.89176 0.16796 0.39906 0.0
C915 C 0.91527 0.18034 0.41746 0.0
H916 H 0.80025 0.84046 0.9982 0.0
H917 H 0.83363 0.92667 0.01116 0.0
H918 H 0.83465 0.93613 0.97059 0.0
H919 H 0.87426 0.83304 0.95057 0.0
H920 H 0.83229 0.81115 0.93573 0.0
H921 H 0.83228 0.81128 0.96581 0.0
H922 H 0.74049 0.8235 0.96596 0.0
H923 H 0.7401 0.82319 0.93585 0.0
H924 H 0.71961 0.85339 0.95057 0.0
H925 H 0.83696 0.93558 0.92847 0.0
H926 H 0.83514 0.92556 0.88798 0.0
H927 H 0.79687 0.8403 0.90265 0.0
C928 C 0.80675 0.86147 0.99259 0.0
C929 C 0.81703 0.88278 0.00798 0.0
C930 C 0.82636 0.90987 0.99977 0.0
C931 C 0.82676 0.9155 0.97673 0.0
C932 C 0.81734 0.89391 0.96207 0.0
C933 C 0.80697 0.8675 0.96968 0.0
C934 C 0.79883 0.84787 0.95041 0.0
C935 C 0.83667 0.82446 0.95065 0.0
C936 C 0.74665 0.83632 0.95072 0.0
C937 C 0.80669 0.8673 0.93078 0.0
C938 C 0.81752 0.89374 0.93785 0.0
C939 C 0.82806 0.91501 0.92275 0.0
C940 C 0.82722 0.90911 0.89982 0.0
C941 C 0.81559 0.88223 0.89223 0.0
C942 C 0.80515 0.86114 0.90798 0.0
H943 H 0.73592 0.65141 0.49804 0.0
H944 H 0.60288 0.60902 0.51717 0.0
H945 H 0.57216 0.61391 0.47843 0.0
H946 H 0.68183 0.70061 0.46001 0.0
H947 H 0.73177 0.6993 0.44051 0.0
H948 H 0.74237 0.6928 0.46978 0.0
H949 H 0.78098 0.64547 0.46024 0.0
H950 H 0.77037 0.65179 0.43096 0.0
H951 H 0.74673 0.62088 0.44405 0.0
H952 H 0.55624 0.62383 0.4372 0.0
H953 H 0.55671 0.63766 0.39732 0.0
H954 H 0.70172 0.67197 0.40551 0.0
C955 C 0.70003 0.64348 0.49417 0.0
C956 C 0.67159 0.63002 0.51066 0.0
C957 C 0.6253 0.61934 0.50477 0.0
C958 C 0.60754 0.62209 0.48284 0.0
C959 C 0.63667 0.63539 0.46696 0.0
C960 C 0.68199 0.64584 0.47238 0.0
C961 C 0.7067 0.65869 0.45222 0.0
C962 C 0.7162 0.68969 0.45585 0.0
C963 C 0.75398 0.64328 0.44654 0.0
C964 C 0.66809 0.65407 0.4346 0.0
C965 C 0.62793 0.64062 0.44337 0.0
C966 C 0.58762 0.63429 0.43017 0.0
C967 C 0.58835 0.64207 0.40748 0.0
C968 C 0.62917 0.65598 0.39818 0.0
C969 C 0.66955 0.66179 0.41206 0.0
H970 H 0.27945 0.63926 0.01472 0.0
H971 H 0.43625 0.63874 0.00545 0.0
H972 H 0.44769 0.64084 0.04619 0.0
H973 H 0.27841 0.68809 0.05852 0.0
H974 H 0.22957 0.67184 0.07389 0.0
H975 H 0.23321 0.66794 0.04404 0.0
H976 H 0.23277 0.61463 0.04871 0.0
H977 H 0.22892 0.61838 0.0786 0.0
H978 H 0.27739 0.59836 0.06652 0.0
H979 H 0.44267 0.64663 0.08758 0.0
H980 H 0.42144 0.65467 0.12694 0.0
H981 H 0.26784 0.65062 0.10991 0.0
C982 C 0.3162 0.63941 0.02124 0.0
C983 C 0.35692 0.63855 0.00676 0.0
C984 C 0.40439 0.63874 0.01609 0.0
C985 C 0.41132 0.64013 0.03926 0.0
C986 C 0.37049 0.64127 0.05299 0.0
C987 C 0.32384 0.64078 0.04438 0.0
C988 C 0.28627 0.64324 0.06284 0.0
C989 C 0.25504 0.66933 0.05962 0.0
C990 C 0.25447 0.61709 0.06425 0.0
C991 C 0.31918 0.6457 0.08308 0.0
C992 C 0.3676 0.64439 0.07701 0.0
C993 C 0.40485 0.64725 0.0926 0.0
C994 C 0.39234 0.65163 0.11501 0.0
C995 C 0.34289 0.65301 0.12175 0.0
C996 C 0.30598 0.64982 0.10543 0.0
H997 H 0.17053 0.83773 0.51019 0.0
H998 H 0.21 0.92363 0.52036 0.0
H999 H 0.18547 0.91972 0.55993 0.0
H1000 H 0.06443 0.83701 0.54889 0.0
H1001 H 0.07732 0.80236 0.55843 0.0
H1002 H 0.09308 0.81274 0.53035 0.0
H1003 H 0.1824 0.79805 0.53748 0.0
H1004 H 0.16704 0.7878 0.56557 0.0
H1005 H 0.21507 0.81258 0.56076 0.0
H1006 H 0.16439 0.9053 0.59914 0.0
H1007 H 0.1483 0.88147 0.63495 0.0
H1008 H 0.11921 0.80536 0.59919 0.0
C1009 C 0.17281 0.8559 0.5206 0.0
C1010 C 0.19224 0.88099 0.51216 0.0
C1011 C 0.19567 0.90412 0.52649 0.0
C1012 C 0.18152 0.90217 0.54896 0.0
C1013 C 0.16359 0.87698 0.55689 0.0
C1014 C 0.15883 0.8543 0.54312 0.0
C1015 C 0.14144 0.82917 0.55616 0.0
C1016 C 0.09107 0.81977 0.54797 0.0
C1017 C 0.17872 0.80552 0.55492 0.0
C1018 C 0.13864 0.84105 0.5795 0.0
C1019 C 0.15103 0.86873 0.57952 0.0
C1020 C 0.15378 0.88374 0.59928 0.0
C1021 C 0.14426 0.87002 0.61958 0.0
C1022 C 0.13222 0.84149 0.62004 0.0
C1023 C 0.12858 0.8271 0.59956 0.0
H1024 H 0.22381 0.23996 0.35816 0.0
H1025 H 0.14553 0.31718 0.34945 0.0
H1026 H 0.08421 0.29316 0.32649 0.0
H1027 H 0.21071 0.21669 0.30381 0.0
H1028 H 0.20194 0.18063 0.31079 0.0
H1029 H 0.23657 0.20254 0.32904 0.0
H1030 H 0.18063 0.19026 0.36224 0.0
H1031 H 0.14622 0.16754 0.34444 0.0
H1032 H 0.11573 0.19457 0.35955 0.0
H1033 H 0.03322 0.26107 0.30302 0.0
H1034 H 0.99742 0.22349 0.28042 0.0
H1035 H 0.11192 0.16811 0.30248 0.0
C1036 C 0.19367 0.25185 0.35154 0.0
C1037 C 0.18956 0.28052 0.35572 0.0
C1038 C 0.14917 0.29515 0.34686 0.0
C1039 C 0.11426 0.2817 0.33366 0.0
C1040 C 0.12009 0.25359 0.3295 0.0
C1041 C 0.15864 0.2388 0.33828 0.0
C1042 C 0.15773 0.20904 0.33053 0.0
C1043 C 0.20449 0.20181 0.31775 0.0
C1044 C 0.14958 0.18919 0.35038 0.0
C1045 C 0.11371 0.20968 0.31529 0.0
C1046 C 0.09187 0.2354 0.31532 0.0
C1047 C 0.05 0.24085 0.3029 0.0
C1048 C 0.0299 0.21942 0.29016 0.0
C1049 C 0.0521 0.19307 0.2897 0.0
C1050 C 0.09456 0.1882 0.3024 0.0
H1051 H 0.31971 0.20761 0.83846 0.0
H1052 H 0.40671 0.2208 0.8982 0.0
H1053 H 0.44335 0.2619 0.88073 0.0
H1054 H 0.41665 0.22566 0.79981 0.0
H1055 H 0.37616 0.2418 0.77997 0.0
H1056 H 0.3545 0.21398 0.79752 0.0
H1057 H 0.28478 0.24522 0.81199 0.0
H1058 H 0.30634 0.27288 0.79432 0.0
H1059 H 0.29942 0.27838 0.82388 0.0
H1060 H 0.46894 0.30264 0.85739 0.0
H1061 H 0.48606 0.33803 0.8286 0.0
H1062 H 0.39074 0.2953 0.78248 0.0
C1063 C 0.34681 0.21881 0.8479 0.0
C1064 C 0.35929 0.21089 0.87003 0.0
C1065 C 0.39483 0.22666 0.8816 0.0
C1066 C 0.41646 0.25 0.87172 0.0
C1067 C 0.40311 0.25715 0.85002 0.0
C1068 C 0.36967 0.24183 0.83811 0.0
C1069 C 0.363 0.25353 0.81473 0.0
C1070 C 0.37851 0.23248 0.79696 0.0
C1071 C 0.31024 0.26307 0.81104 0.0
C1072 C 0.39773 0.27789 0.81546 0.0
C1073 C 0.42005 0.27978 0.83607 0.0
C1074 C 0.45207 0.30121 0.8411 0.0
C1075 C 0.46157 0.32122 0.8246 0.0
C1076 C 0.43995 0.3194 0.80315 0.0
C1077 C 0.40788 0.29729 0.79859 0.0
H1078 H 0.68273 0.25099 0.64545 0.0
H1079 H 0.71045 0.18384 0.69218 0.0
H1080 H 0.65862 0.20662 0.72024 0.0
H1081 H 0.68668 0.30505 0.68487 0.0
H1082 H 0.63843 0.32493 0.67224 0.0
H1083 H 0.67516 0.30253 0.65529 0.0
H1084 H 0.59749 0.27725 0.64158 0.0
H1085 H 0.56053 0.29968 0.65844 0.0
H1086 H 0.55582 0.2627 0.66177 0.0
H1087 H 0.61034 0.23894 0.74447 0.0
H1088 H 0.56354 0.27676 0.76195 0.0
H1089 H 0.56456 0.32179 0.69899 0.0
C1090 C 0.67746 0.24097 0.66151 0.0
C1091 C 0.70042 0.21556 0.66659 0.0
C1092 C 0.6926 0.20307 0.68779 0.0
C1093 C 0.66348 0.21594 0.70389 0.0
C1094 C 0.64199 0.24117 0.69848 0.0
C1095 C 0.6481 0.2534 0.67771 0.0
C1096 C 0.62175 0.28084 0.6763 0.0
C1097 C 0.65766 0.30474 0.67192 0.0
C1098 C 0.5815 0.28006 0.65846 0.0
C1099 C 0.60049 0.2823 0.69961 0.0
C1100 C 0.61279 0.2593 0.7122 0.0
C1101 C 0.5998 0.25683 0.73466 0.0
C1102 C 0.57341 0.27841 0.74447 0.0
C1103 C 0.55987 0.30193 0.73173 0.0
C1104 C 0.57345 0.30374 0.709 0.0
H1105 H 0.81874 0.29538 0.18366 0.0
H1106 H 0.77199 0.24741 0.12652 0.0
H1107 H 0.80071 0.20476 0.14519 0.0
H1108 H 0.92529 0.26085 0.19302 0.0
H1109 H 0.9242 0.26098 0.22315 0.0
H1110 H 0.89365 0.2878 0.20764 0.0
H1111 H 0.81193 0.27704 0.22691 0.0
H1112 H 0.84162 0.25081 0.24355 0.0
H1113 H 0.78879 0.24213 0.22716 0.0
H1114 H 0.84197 0.16818 0.16818 0.0
H1115 H 0.89235 0.14029 0.19411 0.0
H1116 H 0.91112 0.21171 0.2366 0.0
C1117 C 0.81316 0.27582 0.17535 0.0
C1118 C 0.79292 0.27476 0.15363 0.0
C1119 C 0.78766 0.24878 0.14308 0.0
C1120 C 0.80355 0.22441 0.15362 0.0
C1121 C 0.82431 0.22627 0.17481 0.0
C1122 C 0.82876 0.25128 0.18567 0.0
C1123 C 0.85567 0.24787 0.20765 0.0
C1124 C 0.90249 0.2654 0.20788 0.0
C1125 C 0.82251 0.25488 0.22749 0.0
C1126 C 0.86691 0.21723 0.20712 0.0
C1127 C 0.84801 0.20509 0.18815 0.0
C1128 C 0.85622 0.17735 0.18327 0.0
C1129 C 0.88489 0.16169 0.19804 0.0
C1130 C 0.9049 0.17379 0.21743 0.0
C1131 C 0.89518 0.2018 0.22216 0.0
H1132 H 0.88018 0.69666 0.67087 0.0
H1133 H 0.75071 0.73677 0.64478 0.0
H1134 H 0.77056 0.77864 0.66645 0.0
H1135 H 0.87566 0.72683 0.72649 0.0
H1136 H 0.94086 0.73022 0.72833 0.0
H1137 H 0.91446 0.7029 0.71197 0.0
H1138 H 0.96332 0.71984 0.67734 0.0
H1139 H 0.98955 0.74727 0.69359 0.0
H1140 H 0.95736 0.75524 0.66811 0.0
H1141 H 0.80718 0.8171 0.68955 0.0
H1142 H 0.85707 0.84864 0.71244 0.0
H1143 H 0.96266 0.78325 0.72302 0.0
C1144 C 0.85594 0.71423 0.66967 0.0
C1145 C 0.81385 0.71339 0.65607 0.0
C1146 C 0.78281 0.73675 0.65527 0.0
C1147 C 0.79392 0.76069 0.66744 0.0
C1148 C 0.83608 0.7609 0.68041 0.0
C1149 C 0.86647 0.73822 0.68167 0.0
C1150 C 0.91021 0.74394 0.69634 0.0
C1151 C 0.91028 0.72483 0.71701 0.0
C1152 C 0.95792 0.74143 0.68305 0.0
C1153 C 0.90028 0.77359 0.70276 0.0
C1154 C 0.85715 0.78296 0.69358 0.0
C1155 C 0.84082 0.80988 0.69694 0.0
C1156 C 0.86933 0.82762 0.71002 0.0
C1157 C 0.91354 0.81835 0.71965 0.0
C1158 C 0.92909 0.79098 0.71586 0.0
H1159 H 0.69675 0.74838 0.14313 0.0
H1160 H 0.66883 0.82641 0.17613 0.0
H1161 H 0.6108 0.80302 0.20147 0.0
H1162 H 0.57309 0.72113 0.14709 0.0
H1163 H 0.59313 0.68621 0.1523 0.0
H1164 H 0.63027 0.70941 0.13587 0.0
H1165 H 0.70235 0.70014 0.16241 0.0
H1166 H 0.66575 0.67762 0.17968 0.0
H1167 H 0.69606 0.70699 0.19178 0.0
H1168 H 0.55901 0.77083 0.22451 0.0
H1169 H 0.51654 0.73194 0.24332 0.0
H1170 H 0.57848 0.67488 0.19567 0.0
C1171 C 0.67833 0.76059 0.15563 0.0
C1172 C 0.68723 0.78932 0.15752 0.0
C1173 C 0.66206 0.80452 0.17406 0.0
C1174 C 0.62923 0.79137 0.18864 0.0
C1175 C 0.62172 0.76303 0.18644 0.0
C1176 C 0.64536 0.74782 0.17029 0.0
C1177 C 0.63166 0.71747 0.17184 0.0
C1178 C 0.60547 0.70801 0.15051 0.0
C1179 C 0.6766 0.69949 0.17673 0.0
C1180 C 0.59718 0.71796 0.19158 0.0
C1181 C 0.59179 0.74447 0.1997 0.0
C1182 C 0.56267 0.75003 0.21819 0.0
C1183 C 0.5388 0.72788 0.22878 0.0
C1184 C 0.54429 0.70059 0.22086 0.0
C1185 C 0.57329 0.69565 0.20185 0.0
H1186 H 0.37521 0.76663 0.38125 0.0
H1187 H 0.25184 0.79466 0.34178 0.0
H1188 H 0.26993 0.75937 0.31359 0.0
H1189 H 0.45424 0.75652 0.33535 0.0
H1190 H 0.48343 0.72628 0.34685 0.0
H1191 H 0.45821 0.75185 0.36521 0.0
H1192 H 0.40543 0.71412 0.38451 0.0
H1193 H 0.43068 0.68844 0.3662 0.0
H1194 H 0.36566 0.69293 0.36783 0.0
H1195 H 0.30521 0.72414 0.288 0.0
H1196 H 0.35451 0.6907 0.26709 0.0
H1197 H 0.45519 0.68502 0.32295 0.0
C1198 C 0.35172 0.76526 0.36678 0.0
C1199 C 0.3117 0.7834 0.36396 0.0
C1200 C 0.28195 0.7807 0.34472 0.0
C1201 C 0.29215 0.76081 0.32847 0.0
C1202 C 0.33222 0.74364 0.33161 0.0
C1203 C 0.36147 0.74555 0.35031 0.0
C1204 C 0.40378 0.72549 0.34903 0.0
C1205 C 0.4528 0.74097 0.34911 0.0
C1206 C 0.40121 0.70397 0.36802 0.0
C1207 C 0.39407 0.71237 0.32653 0.0
C1208 C 0.35255 0.72311 0.31681 0.0
C1209 C 0.33752 0.71535 0.29554 0.0
C1210 C 0.36592 0.69632 0.28377 0.0
C1211 C 0.40896 0.68514 0.29327 0.0
C1212 C 0.42255 0.69304 0.31514 0.0
H1213 H 0.21234 0.71435 0.82952 0.0
H1214 H 0.15717 0.73358 0.8955 0.0
H1215 H 0.09389 0.76323 0.87855 0.0
H1216 H 0.19833 0.78185 0.80714 0.0
H1217 H 0.18056 0.77098 0.77958 0.0
H1218 H 0.21879 0.74907 0.79652 0.0
H1219 H 0.157 0.70885 0.79249 0.0
H1220 H 0.11862 0.73062 0.77544 0.0
H1221 H 0.09429 0.71419 0.80017 0.0
H1222 H 0.04056 0.79256 0.85519 0.0
H1223 H 0.00146 0.82188 0.82697 0.0
H1224 H 0.08974 0.78412 0.77519 0.0
C1225 C 0.18627 0.72444 0.8403 0.0
C1226 C 0.18926 0.72161 0.86381 0.0
C1227 C 0.1554 0.73556 0.87748 0.0
C1228 C 0.11926 0.75229 0.868 0.0
C1229 C 0.11757 0.75493 0.84481 0.0
C1230 C 0.15015 0.74151 0.83108 0.0
C1231 C 0.14217 0.74953 0.80676 0.0
C1232 C 0.18767 0.76369 0.79693 0.0
C1233 C 0.12712 0.72429 0.7929 0.0
C1234 C 0.10044 0.76981 0.80906 0.0
C1235 C 0.08674 0.77235 0.83116 0.0
C1236 C 0.05071 0.79064 0.8378 0.0
C1237 C 0.02872 0.80727 0.82151 0.0
C1238 C 0.04279 0.80571 0.79872 0.0
C1239 C 0.07837 0.78612 0.79242 0.0
loop_
_geom_bond_atom_site_label_1
_geom_bond_atom_site_label_2
_geom_bond_distance
_geom_bond_site_symmetry_2
_ccdc_geom_bond_type
P0 O11 1.490 . S
P0 C14 1.812 . S
P0 C20 1.803 . S
P0 C26 1.819 . S
H1 C15 0.941 . S
H2 C16 0.939 . S
H3 C18 0.940 . S
H4 C19 0.940 . S
H5 C21 0.939 . S
H6 C22 0.942 . S
H7 C24 0.940 . S
H8 C25 0.939 . S
H9 C27 0.941 . S
H10 C31 0.939 . S
O11 P0 1.490 . S
H12 C28 0.939 . S
H13 C30 0.940 . S
C14 P0 1.812 . S
C14 C15 1.389 . S
C14 C19 1.391 . S
C15 H1 0.941 . S
C15 C14 1.389 . S
C15 C16 1.397 . S
C16 H2 0.939 . S
C16 C15 1.397 . S
C16 C17 1.378 . S
C17 C16 1.378 . S
C17 C18 1.378 . S
C18 H3 0.940 . S
C18 C17 1.378 . S
C18 C19 1.396 . S
C19 H4 0.940 . S
C19 C14 1.391 . S
C19 C18 1.396 . S
C20 P0 1.803 . S
C20 C21 1.378 . S
C20 C25 1.400 . S
C21 H5 0.939 . S
C21 C20 1.378 . S
C21 C22 1.361 . S
C22 H6 0.942 . S
C22 C21 1.361 . S
C22 C23 1.369 . S
C23 C22 1.369 . S
C23 C24 1.404 . S
C24 H7 0.940 . S
C24 C23 1.404 . S
C24 C25 1.389 . S
C25 H8 0.939 . S
C25 C20 1.400 . S
C25 C24 1.389 . S
C26 P0 1.819 . S
C26 C27 1.391 . S
C26 C31 1.391 . S
C27 H9 0.941 . S
C27 C26 1.391 . S
C27 C28 1.396 . S
C28 H12 0.939 . S
C28 C27 1.396 . S
C28 C29 1.397 . S
C29 C28 1.397 . S
C29 C30 1.385 . S
C30 H13 0.940 . S
C30 C29 1.385 . S
C30 C31 1.388 . S
C31 H10 0.939 . S
C31 C26 1.391 . S
C31 C30 1.388 . S
P32 O43 1.490 . S
P32 C46 1.812 . S
P32 C52 1.803 . S
P32 C58 1.819 . S
H33 C47 0.941 . S
H34 C48 0.939 . S
H35 C50 0.940 . S
H36 C51 0.940 . S
H37 C53 0.939 . S
H38 C54 0.942 . S
H39 C56 0.940 . S
H40 C57 0.939 . S
H41 C59 0.941 . S
H42 C63 0.939 . S
O43 P32 1.490 . S
H44 C60 0.939 . S
H45 C62 0.940 . S
C46 P32 1.812 . S
C46 C47 1.389 . S
C46 C51 1.391 . S
C47 H33 0.941 . S
C47 C46 1.389 . S
C47 C48 1.397 . S
C48 H34 0.939 . S
C48 C47 1.397 . S
C48 C49 1.378 . S
C49 C48 1.378 . S
C49 C50 1.378 . S
C50 H35 0.940 . S
C50 C49 1.378 . S
C50 C51 1.396 . S
C51 H36 0.940 . S
C51 C46 1.391 . S
C51 C50 1.396 . S
C52 P32 1.803 . S
C52 C53 1.378 . S
C52 C57 1.400 . S
C53 H37 0.939 . S
C53 C52 1.378 . S
C53 C54 1.361 . S
C54 H38 0.942 . S
C54 C53 1.361 . S
C54 C55 1.369 . S
C55 C54 1.369 . S
C55 C56 1.404 . S
C56 H39 0.940 . S
C56 C55 1.404 . S
C56 C57 1.389 . S
C57 H40 0.939 . S
C57 C52 1.400 . S
C57 C56 1.389 . S
C58 P32 1.819 . S
C58 C59 1.391 . S
C58 C63 1.391 . S
C59 H41 0.941 . S
C59 C58 1.391 . S
C59 C60 1.396 . S
C60 H44 0.939 . S
C60 C59 1.396 . S
C60 C61 1.397 . S
C61 C60 1.397 . S
C61 C62 1.385 . S
C62 H45 0.940 . S
C62 C61 1.385 . S
C62 C63 1.388 . S
C63 H42 0.939 . S
C63 C58 1.391 . S
C63 C62 1.388 . S
P64 O75 1.490 . S
P64 C78 1.812 . S
P64 C84 1.803 . S
P64 C90 1.819 . S
H65 C79 0.941 . S
H66 C80 0.939 . S
H67 C82 0.940 . S
H68 C83 0.940 . S
H69 C85 0.939 . S
H70 C86 0.942 . S
H71 C88 0.940 . S
H72 C89 0.939 . S
H73 C91 0.941 . S
H74 C95 0.939 . S
O75 P64 1.490 . S
H76 C92 0.939 . S
H77 C94 0.940 . S
C78 P64 1.812 . S
C78 C79 1.389 . S
C78 C83 1.391 . S
C79 H65 0.941 . S
C79 C78 1.389 . S
C79 C80 1.397 . S
C80 H66 0.939 . S
C80 C79 1.397 . S
C80 C81 1.378 . S
C81 C80 1.378 . S
C81 C82 1.378 . S
C82 H67 0.940 . S
C82 C81 1.378 . S
C82 C83 1.396 . S
C83 H68 0.940 . S
C83 C78 1.391 . S
C83 C82 1.396 . S
C84 P64 1.803 . S
C84 C85 1.378 . S
C84 C89 1.400 . S
C85 H69 0.939 . S
C85 C84 1.378 . S
C85 C86 1.361 . S
C86 H70 0.942 . S
C86 C85 1.361 . S
C86 C87 1.369 . S
C87 C86 1.369 . S
C87 C88 1.404 . S
C88 H71 0.940 . S
C88 C87 1.404 . S
C88 C89 1.389 . S
C89 H72 0.939 . S
C89 C84 1.400 . S
C89 C88 1.389 . S
C90 P64 1.819 . S
C90 C91 1.391 . S
C90 C95 1.391 . S
C91 H73 0.941 . S
C91 C90 1.391 . S
C91 C92 1.396 . S
C92 H76 0.939 . S
C92 C91 1.396 . S
C92 C93 1.397 . S
C93 C92 1.397 . S
C93 C94 1.385 . S
C94 H77 0.940 . S
C94 C93 1.385 . S
C94 C95 1.388 . S
C95 H74 0.939 . S
C95 C90 1.391 . S
C95 C94 1.388 . S
P96 O107 1.490 . S
P96 C110 1.812 . S
P96 C116 1.803 . S
P96 C122 1.819 . S
H97 C111 0.941 . S
H98 C112 0.939 . S
H99 C114 0.940 . S
H100 C115 0.940 . S
H101 C117 0.939 . S
H102 C118 0.942 . S
H103 C120 0.940 . S
H104 C121 0.939 . S
H105 C123 0.941 . S
H106 C127 0.939 . S
O107 P96 1.490 . S
H108 C124 0.939 . S
H109 C126 0.940 . S
C110 P96 1.812 . S
C110 C111 1.389 . S
C110 C115 1.391 . S
C111 H97 0.941 . S
C111 C110 1.389 . S
C111 C112 1.397 . S
C112 H98 0.939 . S
C112 C111 1.397 . S
C112 C113 1.378 . S
C113 C112 1.378 . S
C113 C114 1.378 . S
C114 H99 0.940 . S
C114 C113 1.378 . S
C114 C115 1.396 . S
C115 H100 0.940 . S
C115 C110 1.391 . S
C115 C114 1.396 . S
C116 P96 1.803 . S
C116 C117 1.378 . S
C116 C121 1.400 . S
C117 H101 0.939 . S
C117 C116 1.378 . S
C117 C118 1.361 . S
C118 H102 0.942 . S
C118 C117 1.361 . S
C118 C119 1.369 . S
C119 C118 1.369 . S
C119 C120 1.404 . S
C120 H103 0.940 . S
C120 C119 1.404 . S
C120 C121 1.389 . S
C121 H104 0.939 . S
C121 C116 1.400 . S
C121 C120 1.389 . S
C122 P96 1.819 . S
C122 C123 1.391 . S
C122 C127 1.391 . S
C123 H105 0.941 . S
C123 C122 1.391 . S
C123 C124 1.396 . S
C124 H108 0.939 . S
C124 C123 1.396 . S
C124 C125 1.397 . S
C125 C124 1.397 . S
C125 C126 1.385 . S
C126 H109 0.940 . S
C126 C125 1.385 . S
C126 C127 1.388 . S
C127 H106 0.939 . S
C127 C122 1.391 . S
C127 C126 1.388 . S
P128 O139 1.490 . S
P128 C142 1.812 . S
P128 C148 1.803 . S
P128 C154 1.819 . S
H129 C143 0.941 . S
H130 C144 0.939 . S
H131 C146 0.940 . S
H132 C147 0.940 . S
H133 C149 0.939 . S
H134 C150 0.942 . S
H135 C152 0.940 . S
H136 C153 0.939 . S
H137 C155 0.941 . S
H138 C159 0.939 . S
O139 P128 1.490 . S
H140 C156 0.939 . S
H141 C158 0.940 . S
C142 P128 1.812 . S
C142 C143 1.389 . S
C142 C147 1.391 . S
C143 H129 0.941 . S
C143 C142 1.389 . S
C143 C144 1.397 . S
C144 H130 0.939 . S
C144 C143 1.397 . S
C144 C145 1.378 . S
C145 C144 1.378 . S
C145 C146 1.378 . S
C146 H131 0.940 . S
C146 C145 1.378 . S
C146 C147 1.396 . S
C147 H132 0.940 . S
C147 C142 1.391 . S
C147 C146 1.396 . S
C148 P128 1.803 . S
C148 C149 1.378 . S
C148 C153 1.400 . S
C149 H133 0.939 . S
C149 C148 1.378 . S
C149 C150 1.361 . S
C150 H134 0.942 . S
C150 C149 1.361 . S
C150 C151 1.369 . S
C151 C150 1.369 . S
C151 C152 1.404 . S
C152 H135 0.940 . S
C152 C151 1.404 . S
C152 C153 1.389 . S
C153 H136 0.939 . S
C153 C148 1.400 . S
C153 C152 1.389 . S
C154 P128 1.819 . S
C154 C155 1.391 . S
C154 C159 1.391 . S
C155 H137 0.941 . S
C155 C154 1.391 . S
C155 C156 1.396 . S
C156 H140 0.939 . S
C156 C155 1.396 . S
C156 C157 1.397 . S
C157 C156 1.397 . S
C157 C158 1.385 . S
C158 H141 0.940 . S
C158 C157 1.385 . S
C158 C159 1.388 . S
C159 H138 0.939 . S
C159 C154 1.391 . S
C159 C158 1.388 . S
P160 O171 1.490 . S
P160 C174 1.812 . S
P160 C180 1.803 . S
P160 C186 1.819 . S
H161 C175 0.941 . S
H162 C176 0.939 . S
H163 C178 0.940 . S
H164 C179 0.940 . S
H165 C181 0.939 . S
H166 C182 0.942 . S
H167 C184 0.940 . S
H168 C185 0.939 . S
H169 C187 0.941 . S
H170 C191 0.939 . S
O171 P160 1.490 . S
H172 C188 0.939 . S
H173 C190 0.940 . S
C174 P160 1.812 . S
C174 C175 1.389 . S
C174 C179 1.391 . S
C175 H161 0.941 . S
C175 C174 1.389 . S
C175 C176 1.397 . S
C176 H162 0.939 . S
C176 C175 1.397 . S
C176 C177 1.378 . S
C177 C176 1.378 . S
C177 C178 1.378 . S
C178 H163 0.940 . S
C178 C177 1.378 . S
C178 C179 1.396 . S
C179 H164 0.940 . S
C179 C174 1.391 . S
C179 C178 1.396 . S
C180 P160 1.803 . S
C180 C181 1.378 . S
C180 C185 1.400 . S
C181 H165 0.939 . S
C181 C180 1.378 . S
C181 C182 1.361 . S
C182 H166 0.942 . S
C182 C181 1.361 . S
C182 C183 1.369 . S
C183 C182 1.369 . S
C183 C184 1.404 . S
C184 H167 0.940 . S
C184 C183 1.404 . S
C184 C185 1.389 . S
C185 H168 0.939 . S
C185 C180 1.400 . S
C185 C184 1.389 . S
C186 P160 1.819 . S
C186 C187 1.391 . S
C186 C191 1.391 . S
C187 H169 0.941 . S
C187 C186 1.391 . S
C187 C188 1.396 . S
C188 H172 0.939 . S
C188 C187 1.396 . S
C188 C189 1.397 . S
C189 C188 1.397 . S
C189 C190 1.385 . S
C190 H173 0.940 . S
C190 C189 1.385 . S
C190 C191 1.388 . S
C191 H170 0.939 . S
C191 C186 1.391 . S
C191 C190 1.388 . S
P192 O203 1.490 . S
P192 C206 1.812 . S
P192 C212 1.803 . S
P192 C218 1.819 . S
H193 C207 0.941 . S
H194 C208 0.939 . S
H195 C210 0.940 . S
H196 C211 0.940 . S
H197 C213 0.939 . S
H198 C214 0.942 . S
H199 C216 0.940 . S
H200 C217 0.939 . S
H201 C219 0.941 . S
H202 C223 0.939 . S
O203 P192 1.490 . S
H204 C220 0.939 . S
H205 C222 0.940 . S
C206 P192 1.812 . S
C206 C207 1.389 . S
C206 C211 1.391 . S
C207 H193 0.941 . S
C207 C206 1.389 . S
C207 C208 1.397 . S
C208 H194 0.939 . S
C208 C207 1.397 . S
C208 C209 1.378 . S
C209 C208 1.378 . S
C209 C210 1.378 . S
C210 H195 0.940 . S
C210 C209 1.378 . S
C210 C211 1.396 . S
C211 H196 0.940 . S
C211 C206 1.391 . S
C211 C210 1.396 . S
C212 P192 1.803 . S
C212 C213 1.378 . S
C212 C217 1.400 . S
C213 H197 0.939 . S
C213 C212 1.378 . S
C213 C214 1.361 . S
C214 H198 0.942 . S
C214 C213 1.361 . S
C214 C215 1.369 . S
C215 C214 1.369 . S
C215 C216 1.404 . S
C216 H199 0.940 . S
C216 C215 1.404 . S
C216 C217 1.389 . S
C217 H200 0.939 . S
C217 C212 1.400 . S
C217 C216 1.389 . S
C218 P192 1.819 . S
C218 C219 1.391 . S
C218 C223 1.391 . S
C219 H201 0.941 . S
C219 C218 1.391 . S
C219 C220 1.396 . S
C220 H204 0.939 . S
C220 C219 1.396 . S
C220 C221 1.397 . S
C221 C220 1.397 . S
C221 C222 1.385 . S
C222 H205 0.940 . S
C222 C221 1.385 . S
C222 C223 1.388 . S
C223 H202 0.939 . S
C223 C218 1.391 . S
C223 C222 1.388 . S
P224 O235 1.490 . S
P224 C238 1.812 . S
P224 C244 1.803 . S
P224 C250 1.819 . S
H225 C239 0.941 . S
H226 C240 0.939 . S
H227 C242 0.940 . S
H228 C243 0.940 . S
H229 C245 0.939 . S
H230 C246 0.942 . S
H231 C248 0.940 . S
H232 C249 0.939 . S
H233 C251 0.941 . S
H234 C255 0.939 . S
O235 P224 1.490 . S
H236 C252 0.939 . S
H237 C254 0.940 . S
C238 P224 1.812 . S
C238 C239 1.389 . S
C238 C243 1.391 . S
C239 H225 0.941 . S
C239 C238 1.389 . S
C239 C240 1.397 . S
C240 H226 0.939 . S
C240 C239 1.397 . S
C240 C241 1.378 . S
C241 C240 1.378 . S
C241 C242 1.378 . S
C242 H227 0.940 . S
C242 C241 1.378 . S
C242 C243 1.396 . S
C243 H228 0.940 . S
C243 C238 1.391 . S
C243 C242 1.396 . S
C244 P224 1.803 . S
C244 C245 1.378 . S
C244 C249 1.400 . S
C245 H229 0.939 . S
C245 C244 1.378 . S
C245 C246 1.361 . S
C246 H230 0.942 . S
C246 C245 1.361 . S
C246 C247 1.369 . S
C247 C246 1.369 . S
C247 C248 1.404 . S
C248 H231 0.940 . S
C248 C247 1.404 . S
C248 C249 1.389 . S
C249 H232 0.939 . S
C249 C244 1.400 . S
C249 C248 1.389 . S
C250 P224 1.819 . S
C250 C251 1.391 . S
C250 C255 1.391 . S
C251 H233 0.941 . S
C251 C250 1.391 . S
C251 C252 1.396 . S
C252 H236 0.939 . S
C252 C251 1.396 . S
C252 C253 1.397 . S
C253 C252 1.397 . S
C253 C254 1.385 . S
C254 H237 0.940 . S
C254 C253 1.385 . S
C254 C255 1.388 . S
C255 H234 0.939 . S
C255 C250 1.391 . S
C255 C254 1.388 . S
Eu256 N285 2.600 . S
Eu256 N291 2.562 . S
Eu256 O300 2.462 . S
Eu256 O301 2.373 . S
Eu256 O303 2.432 . S
Eu256 O304 2.291 . S
Eu256 O308 2.335 . S
Eu256 O311 2.372 . S
Eu256 C320 2.787 . S
C257 N258 1.365 . S
C257 C260 1.405 . S
C257 C264 1.448 . S
N258 C257 1.365 . S
N258 C261 1.319 . S
N258 Eu267 2.600 . S
C259 C261 1.397 . S
C259 C262 1.367 . S
C259 H279 0.931 . S
C260 C257 1.405 . S
C260 C262 1.403 . S
C260 C266 1.439 . S
C261 N258 1.319 . S
C261 C259 1.397 . S
C261 H272 0.930 . S
C262 C259 1.367 . S
C262 C260 1.403 . S
C262 H283 0.929 . S
C263 C264 1.430 . S
C263 C265 1.387 . S
C263 C269 1.404 . S
C264 C257 1.448 . S
C264 C263 1.430 . S
C264 N268 1.351 . S
C265 C263 1.387 . S
C265 C266 1.374 . S
C265 H280 0.931 . S
C266 C260 1.439 . S
C266 C265 1.374 . S
C266 H281 0.931 . S
Eu267 N258 2.600 . S
Eu267 N268 2.562 . S
Eu267 O302 2.335 1_655 S
Eu267 O305 2.372 . S
Eu267 O306 2.462 . S
Eu267 O307 2.373 . S
Eu267 O309 2.432 . S
Eu267 O310 2.291 1_655 S
Eu267 C331 2.787 . S
N268 C264 1.351 . S
N268 Eu267 2.562 . S
N268 C270 1.325 . S
C269 C263 1.404 . S
C269 C271 1.366 . S
C269 H277 0.930 . S
C270 N268 1.325 . S
C270 C271 1.416 . S
C270 H276 0.929 . S
C271 C269 1.366 . S
C271 C270 1.416 . S
C271 H273 0.930 . S
H272 C261 0.930 . S
H273 C271 0.930 . S
H274 C289 0.930 . S
H275 C296 0.930 . S
H276 C270 0.929 . S
H277 C269 0.930 . S
H278 C292 0.929 . S
H279 C259 0.931 . S
H280 C265 0.931 . S
H281 C266 0.931 . S
H282 C287 0.931 . S
H283 C262 0.929 . S
H284 C295 0.930 . S
N285 Eu256 2.600 . S
N285 C286 1.365 . S
N285 C289 1.319 . S
C286 N285 1.365 . S
C286 C288 1.405 . S
C286 C294 1.448 . S
C287 H282 0.931 . S
C287 C289 1.397 . S
C287 C290 1.367 . S
C288 C286 1.405 . S
C288 C290 1.403 . S
C288 C321 1.439 . S
C289 H274 0.930 . S
C289 N285 1.319 . S
C289 C287 1.397 . S
C290 C287 1.367 . S
C290 C288 1.403 . S
C290 H297 0.929 . S
N291 Eu256 2.562 . S
N291 C292 1.325 . S
N291 C294 1.351 . S
C292 H278 0.929 . S
C292 N291 1.325 . S
C292 C296 1.416 . S
C293 C294 1.430 . S
C293 C295 1.404 . S
C293 C322 1.387 . S
C294 C286 1.448 . S
C294 N291 1.351 . S
C294 C293 1.430 . S
C295 H284 0.930 . S
C295 C293 1.404 . S
C295 C296 1.366 . S
C296 H275 0.930 . S
C296 C292 1.416 . S
C296 C295 1.366 . S
H297 C290 0.929 . S
H298 C321 0.931 . S
H299 C322 0.931 . S
O300 Eu256 2.462 . S
O300 C320 1.252 . S
O301 Eu256 2.373 . S
O301 C312 1.249 . S
O302 Eu267 2.335 1_455 S
O302 C312 1.264 . S
O303 Eu256 2.432 . S
O303 C320 1.268 . S
O304 Eu256 2.291 . S
O304 C319 1.255 1_455 S
O305 Eu267 2.372 . S
O305 C319 1.257 . S
O306 Eu267 2.462 . S
O306 C331 1.252 . S
O307 Eu267 2.373 . S
O307 C323 1.249 . S
O308 Eu256 2.335 . S
O308 C323 1.264 1_455 S
O309 Eu267 2.432 . S
O309 C331 1.268 . S
O310 Eu267 2.291 1_455 S
O310 C330 1.255 . S
O311 Eu256 2.372 . S
O311 C330 1.257 . S
C312 O301 1.249 . S
C312 O302 1.264 . S
C313 C316 1.382 . S
C313 C318 1.390 . S
C313 C320 1.506 . S
C314 C315 1.398 . S
C314 C318 1.392 . S
C315 C314 1.398 . S
C315 C317 1.372 . S
C315 H332 0.931 . S
C316 C313 1.382 . S
C316 C317 1.390 . S
C316 H333 0.931 . S
C317 C315 1.372 . S
C317 C316 1.390 . S
C317 H334 0.929 . S
C318 C313 1.390 . S
C318 C314 1.392 . S
C318 H335 0.930 . S
C319 O304 1.255 1_655 S
C319 O305 1.257 . S
C320 Eu256 2.787 . S
C320 O300 1.252 . S
C320 O303 1.268 . S
C320 C313 1.506 . S
C321 C288 1.439 . S
C321 H298 0.931 . S
C321 C322 1.374 . S
C322 C293 1.387 . S
C322 H299 0.931 . S
C322 C321 1.374 . S
C323 O307 1.249 . S
C323 O308 1.264 1_655 S
C324 C327 1.382 . S
C324 C328 1.390 . S
C324 C331 1.506 . S
C325 C326 1.398 . S
C325 C328 1.392 . S
C326 C325 1.398 . S
C326 C329 1.372 . S
C326 H336 0.931 . S
C327 C324 1.382 . S
C327 C329 1.390 . S
C327 H337 0.931 . S
C328 C324 1.390 . S
C328 C325 1.392 . S
C328 H338 0.930 . S
C329 C326 1.372 . S
C329 C327 1.390 . S
C329 H339 0.929 . S
C330 O310 1.255 . S
C330 O311 1.257 . S
C331 Eu267 2.787 . S
C331 O306 1.252 . S
C331 O309 1.268 . S
C331 C324 1.506 . S
H332 C315 0.931 . S
H333 C316 0.931 . S
H334 C317 0.929 . S
H335 C318 0.930 . S
H336 C326 0.931 . S
H337 C327 0.931 . S
H338 C328 0.930 . S
H339 C329 0.929 . S
Eu340 N369 2.600 . S
Eu340 N375 2.562 . S
Eu340 O384 2.462 . S
Eu340 O385 2.373 . S
Eu340 O387 2.432 . S
Eu340 O388 2.291 . S
Eu340 O392 2.335 . S
Eu340 O395 2.372 . S
Eu340 C404 2.787 . S
C341 N342 1.365 . S
C341 C344 1.405 . S
C341 C348 1.448 . S
N342 C341 1.365 . S
N342 C345 1.319 . S
N342 Eu351 2.600 . S
C343 C345 1.397 . S
C343 C346 1.367 . S
C343 H363 0.931 . S
C344 C341 1.405 . S
C344 C346 1.403 . S
C344 C350 1.439 . S
C345 N342 1.319 . S
C345 C343 1.397 . S
C345 H356 0.930 . S
C346 C343 1.367 . S
C346 C344 1.403 . S
C346 H367 0.929 . S
C347 C348 1.430 . S
C347 C349 1.387 . S
C347 C353 1.404 . S
C348 C341 1.448 . S
C348 C347 1.430 . S
C348 N352 1.351 . S
C349 C347 1.387 . S
C349 C350 1.374 . S
C349 H364 0.931 . S
C350 C344 1.439 . S
C350 C349 1.374 . S
C350 H365 0.931 . S
Eu351 N342 2.600 . S
Eu351 N352 2.562 . S
Eu351 O386 2.335 . S
Eu351 O389 2.372 . S
Eu351 O390 2.462 . S
Eu351 O391 2.373 . S
Eu351 O393 2.432 . S
Eu351 O394 2.291 . S
Eu351 C415 2.787 . S
N352 C348 1.351 . S
N352 Eu351 2.562 . S
N352 C354 1.325 . S
C353 C347 1.404 . S
C353 C355 1.366 . S
C353 H361 0.930 . S
C354 N352 1.325 . S
C354 C355 1.416 . S
C354 H360 0.929 . S
C355 C353 1.366 . S
C355 C354 1.416 . S
C355 H357 0.930 . S
H356 C345 0.930 . S
H357 C355 0.930 . S
H358 C373 0.930 . S
H359 C380 0.930 . S
H360 C354 0.929 . S
H361 C353 0.930 . S
H362 C376 0.929 . S
H363 C343 0.931 . S
H364 C349 0.931 . S
H365 C350 0.931 . S
H366 C371 0.931 . S
H367 C346 0.929 . S
H368 C379 0.930 . S
N369 Eu340 2.600 . S
N369 C370 1.365 . S
N369 C373 1.319 . S
C370 N369 1.365 . S
C370 C372 1.405 . S
C370 C378 1.448 . S
C371 H366 0.931 . S
C371 C373 1.397 . S
C371 C374 1.367 . S
C372 C370 1.405 . S
C372 C374 1.403 . S
C372 C405 1.439 . S
C373 H358 0.930 . S
C373 N369 1.319 . S
C373 C371 1.397 . S
C374 C371 1.367 . S
C374 C372 1.403 . S
C374 H381 0.929 . S
N375 Eu340 2.562 . S
N375 C376 1.325 . S
N375 C378 1.351 . S
C376 H362 0.929 . S
C376 N375 1.325 . S
C376 C380 1.416 . S
C377 C378 1.430 . S
C377 C379 1.404 . S
C377 C406 1.387 . S
C378 C370 1.448 . S
C378 N375 1.351 . S
C378 C377 1.430 . S
C379 H368 0.930 . S
C379 C377 1.404 . S
C379 C380 1.366 . S
C380 H359 0.930 . S
C380 C376 1.416 . S
C380 C379 1.366 . S
H381 C374 0.929 . S
H382 C405 0.931 . S
H383 C406 0.931 . S
O384 Eu340 2.462 . S
O384 C404 1.252 . S
O385 Eu340 2.373 . S
O385 C396 1.249 . S
O386 Eu351 2.335 . S
O386 C396 1.264 . S
O387 Eu340 2.432 . S
O387 C404 1.268 . S
O388 Eu340 2.291 . S
O388 C403 1.255 . S
O389 Eu351 2.372 . S
O389 C403 1.257 . S
O390 Eu351 2.462 . S
O390 C415 1.252 . S
O391 Eu351 2.373 . S
O391 C407 1.249 . S
O392 Eu340 2.335 . S
O392 C407 1.264 . S
O393 Eu351 2.432 . S
O393 C415 1.268 . S
O394 Eu351 2.291 . S
O394 C414 1.255 . S
O395 Eu340 2.372 . S
O395 C414 1.257 . S
C396 O385 1.249 . S
C396 O386 1.264 . S
C397 C400 1.382 . S
C397 C402 1.390 . S
C397 C404 1.506 . S
C398 C399 1.398 . S
C398 C402 1.392 . S
C399 C398 1.398 . S
C399 C401 1.372 . S
C399 H416 0.931 . S
C400 C397 1.382 . S
C400 C401 1.390 . S
C400 H417 0.931 . S
C401 C399 1.372 . S
C401 C400 1.390 . S
C401 H418 0.929 . S
C402 C397 1.390 . S
C402 C398 1.392 . S
C402 H419 0.930 . S
C403 O388 1.255 . S
C403 O389 1.257 . S
C404 Eu340 2.787 . S
C404 O384 1.252 . S
C404 O387 1.268 . S
C404 C397 1.506 . S
C405 C372 1.439 . S
C405 H382 0.931 . S
C405 C406 1.374 . S
C406 C377 1.387 . S
C406 H383 0.931 . S
C406 C405 1.374 . S
C407 O391 1.249 . S
C407 O392 1.264 . S
C408 C411 1.382 . S
C408 C412 1.390 . S
C408 C415 1.506 . S
C409 C410 1.398 . S
C409 C412 1.392 . S
C410 C409 1.398 . S
C410 C413 1.372 . S
C410 H420 0.931 . S
C411 C408 1.382 . S
C411 C413 1.390 . S
C411 H421 0.931 . S
C412 C408 1.390 . S
C412 C409 1.392 . S
C412 H422 0.930 . S
C413 C410 1.372 . S
C413 C411 1.390 . S
C413 H423 0.929 . S
C414 O394 1.255 . S
C414 O395 1.257 . S
C415 Eu351 2.787 . S
C415 O390 1.252 . S
C415 O393 1.268 . S
C415 C408 1.506 . S
H416 C399 0.931 . S
H417 C400 0.931 . S
H418 C401 0.929 . S
H419 C402 0.930 . S
H420 C410 0.931 . S
H421 C411 0.931 . S
H422 C412 0.930 . S
H423 C413 0.929 . S
Eu424 N453 2.600 . S
Eu424 N459 2.562 . S
Eu424 O468 2.462 . S
Eu424 O469 2.373 . S
Eu424 O471 2.432 . S
Eu424 O472 2.291 . S
Eu424 O476 2.335 . S
Eu424 O479 2.372 . S
Eu424 C488 2.787 . S
C425 N426 1.365 . S
C425 C428 1.405 . S
C425 C432 1.448 . S
N426 C425 1.365 . S
N426 C429 1.319 . S
N426 Eu435 2.600 . S
C427 C429 1.397 . S
C427 C430 1.367 . S
C427 H447 0.931 . S
C428 C425 1.405 . S
C428 C430 1.403 . S
C428 C434 1.439 . S
C429 N426 1.319 . S
C429 C427 1.397 . S
C429 H440 0.930 . S
C430 C427 1.367 . S
C430 C428 1.403 . S
C430 H451 0.929 . S
C431 C432 1.430 . S
C431 C433 1.387 . S
C431 C437 1.404 . S
C432 C425 1.448 . S
C432 C431 1.430 . S
C432 N436 1.351 . S
C433 C431 1.387 . S
C433 C434 1.374 . S
C433 H448 0.931 . S
C434 C428 1.439 . S
C434 C433 1.374 . S
C434 H449 0.931 . S
Eu435 N426 2.600 . S
Eu435 N436 2.562 . S
Eu435 O470 2.335 1_655 S
Eu435 O473 2.372 . S
Eu435 O474 2.462 . S
Eu435 O475 2.373 . S
Eu435 O477 2.432 . S
Eu435 O478 2.275 1_655 S
Eu435 C499 2.787 . S
N436 C432 1.351 . S
N436 Eu435 2.562 . S
N436 C438 1.325 . S
C437 C431 1.404 . S
C437 C439 1.366 . S
C437 H445 0.930 . S
C438 N436 1.325 . S
C438 C439 1.416 . S
C438 H444 0.929 . S
C439 C437 1.366 . S
C439 C438 1.416 . S
C439 H441 0.930 . S
H440 C429 0.930 . S
H441 C439 0.930 . S
H442 C457 0.930 . S
H443 C464 0.930 . S
H444 C438 0.929 . S
H445 C437 0.930 . S
H446 C460 0.929 . S
H447 C427 0.931 . S
H448 C433 0.931 . S
H449 C434 0.931 . S
H450 C455 0.931 . S
H451 C430 0.929 . S
H452 C463 0.930 . S
N453 Eu424 2.600 . S
N453 C454 1.365 . S
N453 C457 1.319 . S
C454 N453 1.365 . S
C454 C456 1.405 . S
C454 C462 1.448 . S
C455 H450 0.931 . S
C455 C457 1.397 . S
C455 C458 1.367 . S
C456 C454 1.405 . S
C456 C458 1.403 . S
C456 C489 1.439 . S
C457 H442 0.930 . S
C457 N453 1.319 . S
C457 C455 1.397 . S
C458 C455 1.367 . S
C458 C456 1.403 . S
C458 H465 0.929 . S
N459 Eu424 2.562 . S
N459 C460 1.325 . S
N459 C462 1.351 . S
C460 H446 0.929 . S
C460 N459 1.325 . S
C460 C464 1.416 . S
C461 C462 1.430 . S
C461 C463 1.404 . S
C461 C490 1.387 . S
C462 C454 1.448 . S
C462 N459 1.351 . S
C462 C461 1.430 . S
C463 H452 0.930 . S
C463 C461 1.404 . S
C463 C464 1.366 . S
C464 H443 0.930 . S
C464 C460 1.416 . S
C464 C463 1.366 . S
H465 C458 0.929 . S
H466 C489 0.931 . S
H467 C490 0.931 . S
O468 Eu424 2.462 . S
O468 C488 1.252 . S
O469 Eu424 2.373 . S
O469 C480 1.249 . S
O470 Eu435 2.335 1_455 S
O470 C480 1.264 . S
O471 Eu424 2.432 . S
O471 C488 1.268 . S
O472 Eu424 2.291 . S
O472 C487 1.255 1_455 S
O473 Eu435 2.372 . S
O473 C487 1.257 . S
O474 Eu435 2.462 . S
O474 C499 1.252 . S
O475 Eu435 2.373 . S
O475 C491 1.249 . S
O476 Eu424 2.335 . S
O476 C491 1.264 1_455 S
O477 Eu435 2.432 . S
O477 C499 1.268 . S
O478 Eu435 2.275 1_455 S
O478 C498 1.274 . S
O479 Eu424 2.372 . S
O479 C498 1.257 . S
C480 O469 1.249 . S
C480 O470 1.264 . S
C481 C484 1.382 . S
C481 C486 1.390 . S
C481 C488 1.506 . S
C482 C483 1.398 . S
C482 C486 1.392 . S
C483 C482 1.398 . S
C483 C485 1.372 . S
C483 H500 0.931 . S
C484 C481 1.382 . S
C484 C485 1.390 . S
C484 H501 0.931 . S
C485 C483 1.372 . S
C485 C484 1.390 . S
C485 H502 0.929 . S
C486 C481 1.390 . S
C486 C482 1.392 . S
C486 H503 0.930 . S
C487 O472 1.255 1_655 S
C487 O473 1.257 . S
C488 Eu424 2.787 . S
C488 O468 1.252 . S
C488 O471 1.268 . S
C488 C481 1.506 . S
C489 C456 1.439 . S
C489 H466 0.931 . S
C489 C490 1.374 . S
C490 C461 1.387 . S
C490 H467 0.931 . S
C490 C489 1.374 . S
C491 O475 1.249 . S
C491 O476 1.264 1_655 S
C492 C495 1.382 . S
C492 C496 1.390 . S
C492 C499 1.506 . S
C493 C494 1.398 . S
C493 C496 1.392 . S
C494 C493 1.398 . S
C494 C497 1.372 . S
C494 H504 0.931 . S
C495 C492 1.382 . S
C495 C497 1.390 . S
C495 H505 0.931 . S
C496 C492 1.390 . S
C496 C493 1.392 . S
C496 H506 0.930 . S
C497 C494 1.372 . S
C497 C495 1.390 . S
C497 H507 0.929 . S
C498 O478 1.274 . S
C498 O479 1.257 . S
C499 Eu435 2.787 . S
C499 O474 1.252 . S
C499 O477 1.268 . S
C499 C492 1.506 . S
H500 C483 0.931 . S
H501 C484 0.931 . S
H502 C485 0.929 . S
H503 C486 0.930 . S
H504 C494 0.931 . S
H505 C495 0.931 . S
H506 C496 0.930 . S
H507 C497 0.929 . S
Eu508 N537 2.600 . S
Eu508 N543 2.562 . S
Eu508 O552 2.462 . S
Eu508 O553 2.373 . S
Eu508 O555 2.432 . S
Eu508 O556 2.291 . S
Eu508 O560 2.335 . S
Eu508 O563 2.372 . S
Eu508 C572 2.787 . S
C509 N510 1.365 . S
C509 C512 1.405 . S
C509 C516 1.448 . S
N510 C509 1.365 . S
N510 C513 1.319 . S
N510 Eu519 2.600 . S
C511 C513 1.397 . S
C511 C514 1.367 . S
C511 H531 0.931 . S
C512 C509 1.405 . S
C512 C514 1.403 . S
C512 C518 1.439 . S
C513 N510 1.319 . S
C513 C511 1.397 . S
C513 H524 0.930 . S
C514 C511 1.367 . S
C514 C512 1.403 . S
C514 H535 0.929 . S
C515 C516 1.430 . S
C515 C517 1.387 . S
C515 C521 1.404 . S
C516 C509 1.448 . S
C516 C515 1.430 . S
C516 N520 1.351 . S
C517 C515 1.387 . S
C517 C518 1.374 . S
C517 H532 0.931 . S
C518 C512 1.439 . S
C518 C517 1.374 . S
C518 H533 0.931 . S
Eu519 N510 2.600 . S
Eu519 N520 2.562 . S
Eu519 O554 2.335 . S
Eu519 O557 2.372 . S
Eu519 O558 2.462 . S
Eu519 O559 2.373 . S
Eu519 O561 2.432 . S
Eu519 O562 2.291 . S
Eu519 C583 2.787 . S
N520 C516 1.351 . S
N520 Eu519 2.562 . S
N520 C522 1.325 . S
C521 C515 1.404 . S
C521 C523 1.366 . S
C521 H529 0.930 . S
C522 N520 1.325 . S
C522 C523 1.416 . S
C522 H528 0.929 . S
C523 C521 1.366 . S
C523 C522 1.416 . S
C523 H525 0.930 . S
H524 C513 0.930 . S
H525 C523 0.930 . S
H526 C541 0.930 . S
H527 C548 0.930 . S
H528 C522 0.929 . S
H529 C521 0.930 . S
H530 C544 0.929 . S
H531 C511 0.931 . S
H532 C517 0.931 . S
H533 C518 0.931 . S
H534 C539 0.931 . S
H535 C514 0.929 . S
H536 C547 0.930 . S
N537 Eu508 2.600 . S
N537 C538 1.365 . S
N537 C541 1.319 . S
C538 N537 1.365 . S
C538 C540 1.405 . S
C538 C546 1.448 . S
C539 H534 0.931 . S
C539 C541 1.397 . S
C539 C542 1.367 . S
C540 C538 1.405 . S
C540 C542 1.403 . S
C540 C573 1.439 . S
C541 H526 0.930 . S
C541 N537 1.319 . S
C541 C539 1.397 . S
C542 C539 1.367 . S
C542 C540 1.403 . S
C542 H549 0.929 . S
N543 Eu508 2.562 . S
N543 C544 1.325 . S
N543 C546 1.351 . S
C544 H530 0.929 . S
C544 N543 1.325 . S
C544 C548 1.416 . S
C545 C546 1.430 . S
C545 C547 1.404 . S
C545 C574 1.387 . S
C546 C538 1.448 . S
C546 N543 1.351 . S
C546 C545 1.430 . S
C547 H536 0.930 . S
C547 C545 1.404 . S
C547 C548 1.366 . S
C548 H527 0.930 . S
C548 C544 1.416 . S
C548 C547 1.366 . S
H549 C542 0.929 . S
H550 C573 0.931 . S
H551 C574 0.931 . S
O552 Eu508 2.462 . S
O552 C572 1.252 . S
O553 Eu508 2.373 . S
O553 C564 1.249 . S
O554 Eu519 2.335 . S
O554 C564 1.264 . S
O555 Eu508 2.432 . S
O555 C572 1.268 . S
O556 Eu508 2.291 . S
O556 C571 1.255 . S
O557 Eu519 2.372 . S
O557 C571 1.257 . S
O558 Eu519 2.462 . S
O558 C583 1.252 . S
O559 Eu519 2.373 . S
O559 C575 1.249 . S
O560 Eu508 2.335 . S
O560 C575 1.264 . S
O561 Eu519 2.432 . S
O561 C583 1.268 . S
O562 Eu519 2.291 . S
O562 C582 1.255 . S
O563 Eu508 2.372 . S
O563 C582 1.257 . S
C564 O553 1.249 . S
C564 O554 1.264 . S
C565 C568 1.382 . S
C565 C570 1.390 . S
C565 C572 1.506 . S
C566 C567 1.398 . S
C566 C570 1.392 . S
C567 C566 1.398 . S
C567 C569 1.372 . S
C567 H584 0.931 . S
C568 C565 1.382 . S
C568 C569 1.390 . S
C568 H585 0.931 . S
C569 C567 1.372 . S
C569 C568 1.390 . S
C569 H586 0.929 . S
C570 C565 1.390 . S
C570 C566 1.392 . S
C570 H587 0.930 . S
C571 O556 1.255 . S
C571 O557 1.257 . S
C572 Eu508 2.787 . S
C572 O552 1.252 . S
C572 O555 1.268 . S
C572 C565 1.506 . S
C573 C540 1.439 . S
C573 H550 0.931 . S
C573 C574 1.374 . S
C574 C545 1.387 . S
C574 H551 0.931 . S
C574 C573 1.374 . S
C575 O559 1.249 . S
C575 O560 1.264 . S
C576 C579 1.382 . S
C576 C580 1.390 . S
C576 C583 1.506 . S
C577 C578 1.398 . S
C577 C580 1.392 . S
C578 C577 1.398 . S
C578 C581 1.372 . S
C578 H588 0.931 . S
C579 C576 1.382 . S
C579 C581 1.390 . S
C579 H589 0.931 . S
C580 C576 1.390 . S
C580 C577 1.392 . S
C580 H590 0.930 . S
C581 C578 1.372 . S
C581 C579 1.390 . S
C581 H591 0.929 . S
C582 O562 1.255 . S
C582 O563 1.257 . S
C583 Eu519 2.787 . S
C583 O558 1.252 . S
C583 O561 1.268 . S
C583 C576 1.506 . S
H584 C567 0.931 . S
H585 C568 0.931 . S
H586 C569 0.929 . S
H587 C570 0.930 . S
H588 C578 0.931 . S
H589 C579 0.931 . S
H590 C580 0.930 . S
H591 C581 0.929 . S
H592 C604 0.930 . S
H593 C606 0.930 . S
H594 C607 0.930 . S
H595 C611 0.959 . S
H596 C611 0.959 . S
H597 C611 0.961 . S
H598 C612 0.960 . S
H599 C612 0.961 . S
H600 C612 0.959 . S
H601 C615 0.929 . S
H602 C616 0.931 . S
H603 C618 0.930 . S
C604 H592 0.930 . S
C604 C605 1.399 . S
C604 C609 1.399 1_565 S
C605 C604 1.399 . S
C605 C606 1.376 . S
C606 H593 0.930 . S
C606 C605 1.376 . S
C606 C607 1.388 . S
C607 H594 0.930 . S
C607 C606 1.388 . S
C607 C608 1.390 1_565 S
C608 C607 1.390 1_545 S
C608 C609 1.394 . S
C608 C614 1.465 . S
C609 C604 1.399 1_545 S
C609 C608 1.394 . S
C609 C610 1.516 . S
C610 C609 1.516 . S
C610 C611 1.502 . S
C610 C612 1.561 . S
C610 C613 1.526 . S
C611 H595 0.959 . S
C611 H596 0.959 . S
C611 H597 0.961 . S
C611 C610 1.502 . S
C612 H598 0.960 . S
C612 H599 0.961 . S
C612 H600 0.959 . S
C612 C610 1.561 . S
C613 C610 1.526 . S
C613 C614 1.396 . S
C613 C618 1.390 . S
C614 C608 1.465 . S
C614 C613 1.396 . S
C614 C615 1.399 . S
C615 H601 0.929 . S
C615 C614 1.399 . S
C615 C616 1.385 . S
C616 H602 0.931 . S
C616 C615 1.385 . S
C616 C617 1.389 . S
C617 C616 1.389 . S
C617 C618 1.387 . S
C618 H603 0.930 . S
C618 C613 1.390 . S
C618 C617 1.387 . S
H619 C631 0.930 . S
H620 C633 0.930 . S
H621 C634 0.930 . S
H622 C638 0.959 . S
H623 C638 0.959 . S
H624 C638 0.961 . S
H625 C639 0.960 . S
H626 C639 0.961 . S
H627 C639 0.959 . S
H628 C642 0.929 . S
H629 C643 0.931 . S
H630 C645 0.930 . S
C631 H619 0.930 . S
C631 C632 1.399 . S
C631 C636 1.399 . S
C632 C631 1.399 . S
C632 C633 1.376 . S
C633 H620 0.930 . S
C633 C632 1.376 . S
C633 C634 1.388 . S
C634 H621 0.930 . S
C634 C633 1.388 . S
C634 C635 1.390 . S
C635 C634 1.390 . S
C635 C636 1.394 . S
C635 C641 1.465 . S
C636 C631 1.399 . S
C636 C635 1.394 . S
C636 C637 1.516 . S
C637 C636 1.516 . S
C637 C638 1.502 . S
C637 C639 1.561 . S
C637 C640 1.526 . S
C638 H622 0.959 . S
C638 H623 0.959 . S
C638 H624 0.961 . S
C638 C637 1.502 . S
C639 H625 0.960 . S
C639 H626 0.961 . S
C639 H627 0.959 . S
C639 C637 1.561 . S
C640 C637 1.526 . S
C640 C641 1.396 . S
C640 C645 1.390 . S
C641 C635 1.465 . S
C641 C640 1.396 . S
C641 C642 1.399 . S
C642 H628 0.929 . S
C642 C641 1.399 . S
C642 C643 1.385 . S
C643 H629 0.931 . S
C643 C642 1.385 . S
C643 C644 1.389 . S
C644 C643 1.389 . S
C644 C645 1.387 . S
C645 H630 0.930 . S
C645 C640 1.390 . S
C645 C644 1.387 . S
H646 C658 0.930 . S
H647 C660 0.930 . S
H648 C661 0.930 . S
H649 C665 0.959 . S
H650 C665 0.959 . S
H651 C665 0.961 . S
H652 C666 0.960 . S
H653 C666 0.961 . S
H654 C666 0.959 . S
H655 C669 0.929 . S
H656 C670 0.931 . S
H657 C672 0.930 . S
C658 H646 0.930 . S
C658 C659 1.399 . S
C658 C663 1.399 . S
C659 C658 1.399 . S
C659 C660 1.376 . S
C660 H647 0.930 . S
C660 C659 1.376 . S
C660 C661 1.388 . S
C661 H648 0.930 . S
C661 C660 1.388 . S
C661 C662 1.390 . S
C662 C661 1.390 . S
C662 C663 1.394 . S
C662 C668 1.465 . S
C663 C658 1.399 . S
C663 C662 1.394 . S
C663 C664 1.516 . S
C664 C663 1.516 . S
C664 C665 1.502 . S
C664 C666 1.561 . S
C664 C667 1.526 . S
C665 H649 0.959 . S
C665 H650 0.959 . S
C665 H651 0.961 . S
C665 C664 1.502 . S
C666 H652 0.960 . S
C666 H653 0.961 . S
C666 H654 0.959 . S
C666 C664 1.561 . S
C667 C664 1.526 . S
C667 C668 1.396 . S
C667 C672 1.390 . S
C668 C662 1.465 . S
C668 C667 1.396 . S
C668 C669 1.399 . S
C669 H655 0.929 . S
C669 C668 1.399 . S
C669 C670 1.385 . S
C670 H656 0.931 . S
C670 C669 1.385 . S
C670 C671 1.389 . S
C671 C670 1.389 . S
C671 C672 1.387 . S
C672 H657 0.930 . S
C672 C667 1.390 . S
C672 C671 1.387 . S
H673 C685 0.930 . S
H674 C687 0.930 . S
H675 C688 0.930 . S
H676 C692 0.959 . S
H677 C692 0.959 . S
H678 C692 0.961 . S
H679 C693 0.960 . S
H680 C693 0.961 . S
H681 C693 0.959 . S
H682 C696 0.929 . S
H683 C697 0.931 . S
H684 C699 0.930 . S
C685 H673 0.930 . S
C685 C686 1.399 1_545 S
C685 C690 1.399 . S
C686 C685 1.399 1_565 S
C686 C687 1.376 . S
C687 H674 0.930 . S
C687 C686 1.376 . S
C687 C688 1.388 . S
C688 H675 0.930 . S
C688 C687 1.388 . S
C688 C689 1.390 1_565 S
C689 C688 1.390 1_545 S
C689 C690 1.394 . S
C689 C695 1.465 . S
C690 C685 1.399 . S
C690 C689 1.394 . S
C690 C691 1.516 . S
C691 C690 1.516 . S
C691 C692 1.502 . S
C691 C693 1.561 . S
C691 C694 1.526 . S
C692 H676 0.959 . S
C692 H677 0.959 . S
C692 H678 0.961 . S
C692 C691 1.502 . S
C693 H679 0.960 . S
C693 H680 0.961 . S
C693 H681 0.959 . S
C693 C691 1.561 . S
C694 C691 1.526 . S
C694 C695 1.396 . S
C694 C699 1.390 . S
C695 C689 1.465 . S
C695 C694 1.396 . S
C695 C696 1.399 . S
C696 H682 0.929 . S
C696 C695 1.399 . S
C696 C697 1.385 . S
C697 H683 0.931 . S
C697 C696 1.385 . S
C697 C698 1.389 . S
C698 C697 1.389 . S
C698 C699 1.387 . S
C699 H684 0.930 . S
C699 C694 1.390 . S
C699 C698 1.387 . S
H700 C712 0.930 1_565 S
H701 C714 0.930 . S
H702 C715 0.930 . S
H703 C719 0.959 . S
H704 C719 0.959 . S
H705 C719 0.961 . S
H706 C720 0.960 . S
H707 C720 0.961 . S
H708 C720 0.959 . S
H709 C723 0.929 . S
H710 C724 0.931 . S
H711 C726 0.930 . S
C712 H700 0.930 1_545 S
C712 C713 1.399 . S
C712 C717 1.399 1_545 S
C713 C712 1.399 . S
C713 C714 1.376 . S
C714 H701 0.930 . S
C714 C713 1.376 . S
C714 C715 1.388 . S
C715 H702 0.930 . S
C715 C714 1.388 . S
C715 C716 1.390 1_545 S
C716 C715 1.390 1_565 S
C716 C717 1.394 . S
C716 C722 1.465 . S
C717 C712 1.399 1_565 S
C717 C716 1.394 . S
C717 C718 1.516 . S
C718 C717 1.516 . S
C718 C719 1.502 . S
C718 C720 1.561 . S
C718 C721 1.526 . S
C719 H703 0.959 . S
C719 H704 0.959 . S
C719 H705 0.961 . S
C719 C718 1.502 . S
C720 H706 0.960 . S
C720 H707 0.961 . S
C720 H708 0.959 . S
C720 C718 1.561 . S
C721 C718 1.526 . S
C721 C722 1.396 . S
C721 C726 1.390 . S
C722 C716 1.465 . S
C722 C721 1.396 . S
C722 C723 1.399 . S
C723 H709 0.929 . S
C723 C722 1.399 . S
C723 C724 1.385 . S
C724 H710 0.931 . S
C724 C723 1.385 . S
C724 C725 1.389 . S
C725 C724 1.389 . S
C725 C726 1.387 . S
C726 H711 0.930 . S
C726 C721 1.390 . S
C726 C725 1.387 . S
H727 C739 0.930 . S
H728 C741 0.930 . S
H729 C742 0.930 . S
H730 C746 0.959 . S
H731 C746 0.959 . S
H732 C746 0.961 . S
H733 C747 0.960 . S
H734 C747 0.961 . S
H735 C747 0.959 . S
H736 C750 0.929 . S
H737 C751 0.931 . S
H738 C753 0.930 . S
C739 H727 0.930 . S
C739 C740 1.399 . S
C739 C744 1.399 . S
C740 C739 1.399 . S
C740 C741 1.376 . S
C741 H728 0.930 . S
C741 C740 1.376 . S
C741 C742 1.388 . S
C742 H729 0.930 . S
C742 C741 1.388 . S
C742 C743 1.390 . S
C743 C742 1.390 . S
C743 C744 1.394 . S
C743 C749 1.465 . S
C744 C739 1.399 . S
C744 C743 1.394 . S
C744 C745 1.516 . S
C745 C744 1.516 . S
C745 C746 1.502 . S
C745 C747 1.561 . S
C745 C748 1.526 . S
C746 H730 0.959 . S
C746 H731 0.959 . S
C746 H732 0.961 . S
C746 C745 1.502 . S
C747 H733 0.960 . S
C747 H734 0.961 . S
C747 H735 0.959 . S
C747 C745 1.561 . S
C748 C745 1.526 . S
C748 C749 1.396 . S
C748 C753 1.390 . S
C749 C743 1.465 . S
C749 C748 1.396 . S
C749 C750 1.399 . S
C750 H736 0.929 . S
C750 C749 1.399 . S
C750 C751 1.385 . S
C751 H737 0.931 . S
C751 C750 1.385 . S
C751 C752 1.389 . S
C752 C751 1.389 . S
C752 C753 1.387 . S
C753 H738 0.930 . S
C753 C748 1.390 . S
C753 C752 1.387 . S
H754 C766 0.930 . S
H755 C768 0.930 . S
H756 C769 0.930 . S
H757 C773 0.959 . S
H758 C773 0.959 . S
H759 C773 0.961 . S
H760 C774 0.960 . S
H761 C774 0.961 . S
H762 C774 0.959 . S
H763 C777 0.929 . S
H764 C778 0.931 . S
H765 C780 0.930 . S
C766 H754 0.930 . S
C766 C767 1.399 . S
C766 C771 1.399 . S
C767 C766 1.399 . S
C767 C768 1.376 . S
C768 H755 0.930 . S
C768 C767 1.376 . S
C768 C769 1.388 . S
C769 H756 0.930 . S
C769 C768 1.388 . S
C769 C770 1.390 . S
C770 C769 1.390 . S
C770 C771 1.394 . S
C770 C776 1.465 . S
C771 C766 1.399 . S
C771 C770 1.394 . S
C771 C772 1.516 . S
C772 C771 1.516 . S
C772 C773 1.502 . S
C772 C774 1.561 . S
C772 C775 1.526 . S
C773 H757 0.959 . S
C773 H758 0.959 . S
C773 H759 0.961 . S
C773 C772 1.502 . S
C774 H760 0.960 . S
C774 H761 0.961 . S
C774 H762 0.959 . S
C774 C772 1.561 . S
C775 C772 1.526 . S
C775 C776 1.396 . S
C775 C780 1.390 . S
C776 C770 1.465 . S
C776 C775 1.396 . S
C776 C777 1.399 . S
C777 H763 0.929 . S
C777 C776 1.399 . S
C777 C778 1.385 . S
C778 H764 0.931 . S
C778 C777 1.385 . S
C778 C779 1.389 . S
C779 C778 1.389 . S
C779 C780 1.387 . S
C780 H765 0.930 . S
C780 C775 1.390 . S
C780 C779 1.387 . S
H781 C793 0.930 . S
H782 C795 0.930 . S
H783 C796 0.930 . S
H784 C800 0.959 . S
H785 C800 0.959 1_655 S
H786 C800 0.961 1_545 S
H787 C801 0.960 . S
H788 C801 0.961 . S
H789 C801 0.959 . S
H790 C804 0.929 . S
H791 C805 0.931 . S
H792 C807 0.930 . S
C793 H781 0.930 . S
C793 C794 1.399 . S
C793 C798 1.399 1_545 S
C794 C793 1.399 . S
C794 C795 1.376 . S
C795 H782 0.930 . S
C795 C794 1.376 . S
C795 C796 1.388 1_545 S
C796 H783 0.930 . S
C796 C795 1.388 1_565 S
C796 C797 1.390 . S
C797 C796 1.390 . S
C797 C798 1.394 . S
C797 C803 1.465 . S
C798 C793 1.399 1_565 S
C798 C797 1.394 . S
C798 C799 1.516 . S
C799 C798 1.516 . S
C799 C800 1.502 . S
C799 C801 1.561 1_565 S
C799 C802 1.526 . S
C800 H784 0.959 . S
C800 H785 0.959 1_455 S
C800 H786 0.961 1_565 S
C800 C799 1.502 . S
C801 H787 0.960 . S
C801 H788 0.961 . S
C801 H789 0.959 . S
C801 C799 1.561 1_545 S
C802 C799 1.526 . S
C802 C803 1.396 . S
C802 C807 1.390 . S
C803 C797 1.465 . S
C803 C802 1.396 . S
C803 C804 1.399 . S
C804 H790 0.929 . S
C804 C803 1.399 . S
C804 C805 1.385 . S
C805 H791 0.931 . S
C805 C804 1.385 . S
C805 C806 1.389 . S
C806 C805 1.389 . S
C806 C807 1.387 . S
C807 H792 0.930 . S
C807 C802 1.390 . S
C807 C806 1.387 . S
H808 C820 0.930 . S
H809 C822 0.930 1_556 S
H810 C823 0.930 . S
H811 C827 0.959 . S
H812 C827 0.959 . S
H813 C827 0.961 . S
H814 C828 0.960 . S
H815 C828 0.961 . S
H816 C828 0.959 . S
H817 C831 0.929 . S
H818 C832 0.931 . S
H819 C834 0.930 . S
C820 H808 0.930 . S
C820 C821 1.399 1_554 S
C820 C825 1.399 . S
C821 C820 1.399 1_556 S
C821 C822 1.376 1_556 S
C822 H809 0.930 1_554 S
C822 C821 1.376 1_554 S
C822 C823 1.388 . S
C823 H810 0.930 . S
C823 C822 1.388 . S
C823 C824 1.390 . S
C824 C823 1.390 . S
C824 C825 1.394 . S
C824 C830 1.465 . S
C825 C820 1.399 . S
C825 C824 1.394 . S
C825 C826 1.516 . S
C826 C825 1.516 . S
C826 C827 1.502 . S
C826 C828 1.561 . S
C826 C829 1.526 . S
C827 H811 0.959 . S
C827 H812 0.959 . S
C827 H813 0.961 . S
C827 C826 1.502 . S
C828 H814 0.960 . S
C828 H815 0.961 . S
C828 H816 0.959 . S
C828 C826 1.561 . S
C829 C826 1.526 . S
C829 C830 1.396 . S
C829 C834 1.390 . S
C830 C824 1.465 . S
C830 C829 1.396 . S
C830 C831 1.399 . S
C831 H817 0.929 . S
C831 C830 1.399 . S
C831 C832 1.385 . S
C832 H818 0.931 . S
C832 C831 1.385 . S
C832 C833 1.389 . S
C833 C832 1.389 . S
C833 C834 1.387 . S
C834 H819 0.930 . S
C834 C829 1.390 . S
C834 C833 1.387 . S
H835 C847 0.930 . S
H836 C849 0.930 . S
H837 C850 0.930 . S
H838 C854 0.959 . S
H839 C854 0.959 . S
H840 C854 0.961 . S
H841 C855 0.960 . S
H842 C855 0.961 . S
H843 C855 0.959 . S
H844 C858 0.929 . S
H845 C859 0.931 . S
H846 C861 0.930 . S
C847 H835 0.930 . S
C847 C848 1.399 . S
C847 C852 1.399 . S
C848 C847 1.399 . S
C848 C849 1.376 . S
C849 H836 0.930 . S
C849 C848 1.376 . S
C849 C850 1.388 . S
C850 H837 0.930 . S
C850 C849 1.388 . S
C850 C851 1.390 . S
C851 C850 1.390 . S
C851 C852 1.394 . S
C851 C857 1.465 . S
C852 C847 1.399 . S
C852 C851 1.394 . S
C852 C853 1.516 . S
C853 C852 1.516 . S
C853 C854 1.502 . S
C853 C855 1.561 . S
C853 C856 1.526 . S
C854 H838 0.959 . S
C854 H839 0.959 . S
C854 H840 0.961 . S
C854 C853 1.502 . S
C855 H841 0.960 . S
C855 H842 0.961 . S
C855 H843 0.959 . S
C855 C853 1.561 . S
C856 C853 1.526 . S
C856 C857 1.396 . S
C856 C861 1.390 . S
C857 C851 1.465 . S
C857 C856 1.396 . S
C857 C858 1.399 . S
C858 H844 0.929 . S
C858 C857 1.399 . S
C858 C859 1.385 . S
C859 H845 0.931 . S
C859 C858 1.385 . S
C859 C860 1.389 . S
C860 C859 1.389 . S
C860 C861 1.387 . S
C861 H846 0.930 . S
C861 C856 1.390 . S
C861 C860 1.387 . S
H862 C874 0.930 1_554 S
H863 C876 0.947 . S
H864 C877 0.930 . S
H865 C881 0.959 . S
H866 C881 0.959 . S
H867 C881 0.961 . S
H868 C882 0.960 . S
H869 C882 0.961 . S
H870 C882 0.959 . S
H871 C885 0.929 . S
H872 C886 0.931 . S
H873 C888 0.930 . S
C874 H862 0.930 1_556 S
C874 C875 1.399 1_556 S
C874 C879 1.399 . S
C875 C874 1.399 1_554 S
C875 C876 1.387 . S
C876 H863 0.947 . S
C876 C875 1.387 . S
C876 C877 1.362 1_554 S
C877 H864 0.930 . S
C877 C876 1.362 1_556 S
C877 C878 1.390 . S
C878 C877 1.390 . S
C878 C879 1.394 . S
C878 C884 1.465 . S
C879 C874 1.399 . S
C879 C878 1.394 . S
C879 C880 1.516 . S
C880 C879 1.516 . S
C880 C881 1.502 . S
C880 C882 1.561 . S
C880 C883 1.526 . S
C881 H865 0.959 . S
C881 H866 0.959 . S
C881 H867 0.961 . S
C881 C880 1.502 . S
C882 H868 0.960 . S
C882 H869 0.961 . S
C882 H870 0.959 . S
C882 C880 1.561 . S
C883 C880 1.526 . S
C883 C884 1.396 . S
C883 C888 1.390 . S
C884 C878 1.465 . S
C884 C883 1.396 . S
C884 C885 1.399 . S
C885 H871 0.929 . S
C885 C884 1.399 . S
C885 C886 1.385 . S
C886 H872 0.931 . S
C886 C885 1.385 . S
C886 C887 1.389 . S
C887 C886 1.389 . S
C887 C888 1.387 . S
C888 H873 0.930 . S
C888 C883 1.390 . S
C888 C887 1.387 . S
H889 C901 0.930 . S
H890 C903 0.930 . S
H891 C904 0.930 . S
H892 C908 0.959 . S
H893 C908 0.959 . S
H894 C908 0.961 . S
H895 C909 0.960 . S
H896 C909 0.961 . S
H897 C909 0.959 . S
H898 C912 0.929 . S
H899 C913 0.931 . S
H900 C915 0.930 . S
C901 H889 0.930 . S
C901 C902 1.399 . S
C901 C906 1.399 . S
C902 C901 1.399 . S
C902 C903 1.376 . S
C903 H890 0.930 . S
C903 C902 1.376 . S
C903 C904 1.388 . S
C904 H891 0.930 . S
C904 C903 1.388 . S
C904 C905 1.390 . S
C905 C904 1.390 . S
C905 C906 1.394 . S
C905 C911 1.465 . S
C906 C901 1.399 . S
C906 C905 1.394 . S
C906 C907 1.516 . S
C907 C906 1.516 . S
C907 C908 1.502 . S
C907 C909 1.561 . S
C907 C910 1.526 . S
C908 H892 0.959 . S
C908 H893 0.959 . S
C908 H894 0.961 . S
C908 C907 1.502 . S
C909 H895 0.960 . S
C909 H896 0.961 . S
C909 H897 0.959 . S
C909 C907 1.561 . S
C910 C907 1.526 . S
C910 C911 1.396 . S
C910 C915 1.390 . S
C911 C905 1.465 . S
C911 C910 1.396 . S
C911 C912 1.399 . S
C912 H898 0.929 . S
C912 C911 1.399 . S
C912 C913 1.385 . S
C913 H899 0.931 . S
C913 C912 1.385 . S
C913 C914 1.389 . S
C914 C913 1.389 . S
C914 C915 1.387 . S
C915 H900 0.930 . S
C915 C910 1.390 . S
C915 C914 1.387 . S
H916 C928 0.930 . S
H917 C930 0.948 . S
H918 C931 0.930 . S
H919 C935 0.959 . S
H920 C935 0.959 . S
H921 C935 0.961 . S
H922 C936 0.960 . S
H923 C936 0.961 . S
H924 C936 0.959 . S
H925 C939 0.929 . S
H926 C940 0.931 . S
H927 C942 0.930 . S
C928 H916 0.930 . S
C928 C929 1.399 1_556 S
C928 C933 1.399 . S
C929 C928 1.399 1_554 S
C929 C930 1.383 . S
C930 H917 0.948 . S
C930 C929 1.383 . S
C930 C931 1.364 1_554 S
C931 H918 0.930 . S
C931 C930 1.364 1_556 S
C931 C932 1.390 . S
C932 C931 1.390 . S
C932 C933 1.394 . S
C932 C938 1.465 . S
C933 C928 1.399 . S
C933 C932 1.394 . S
C933 C934 1.516 . S
C934 C933 1.516 . S
C934 C935 1.502 . S
C934 C936 1.561 . S
C934 C937 1.526 . S
C935 H919 0.959 . S
C935 H920 0.959 . S
C935 H921 0.961 . S
C935 C934 1.502 . S
C936 H922 0.960 . S
C936 H923 0.961 . S
C936 H924 0.959 . S
C936 C934 1.561 . S
C937 C934 1.526 . S
C937 C938 1.396 . S
C937 C942 1.390 . S
C938 C932 1.465 . S
C938 C937 1.396 . S
C938 C939 1.399 . S
C939 H925 0.929 . S
C939 C938 1.399 . S
C939 C940 1.385 . S
C940 H926 0.931 . S
C940 C939 1.385 . S
C940 C941 1.389 . S
C941 C940 1.389 . S
C941 C942 1.387 . S
C942 H927 0.930 . S
C942 C937 1.390 . S
C942 C941 1.387 . S
H943 C955 0.930 . S
H944 C957 0.930 . S
H945 C958 0.930 . S
H946 C962 0.959 . S
H947 C962 0.959 . S
H948 C962 0.961 . S
H949 C963 0.960 . S
H950 C963 0.961 . S
H951 C963 0.959 . S
H952 C966 0.929 . S
H953 C967 0.931 . S
H954 C969 0.930 . S
C955 H943 0.930 . S
C955 C956 1.399 . S
C955 C960 1.399 . S
C956 C955 1.399 . S
C956 C957 1.376 . S
C957 H944 0.930 . S
C957 C956 1.376 . S
C957 C958 1.388 . S
C958 H945 0.930 . S
C958 C957 1.388 . S
C958 C959 1.390 . S
C959 C958 1.390 . S
C959 C960 1.394 . S
C959 C965 1.465 . S
C960 C955 1.399 . S
C960 C959 1.394 . S
C960 C961 1.516 . S
C961 C960 1.516 . S
C961 C962 1.502 . S
C961 C963 1.561 . S
C961 C964 1.526 . S
C962 H946 0.959 . S
C962 H947 0.959 . S
C962 H948 0.961 . S
C962 C961 1.502 . S
C963 H949 0.960 . S
C963 H950 0.961 . S
C963 H951 0.959 . S
C963 C961 1.561 . S
C964 C961 1.526 . S
C964 C965 1.396 . S
C964 C969 1.390 . S
C965 C959 1.465 . S
C965 C964 1.396 . S
C965 C966 1.399 . S
C966 H952 0.929 . S
C966 C965 1.399 . S
C966 C967 1.385 . S
C967 H953 0.931 . S
C967 C966 1.385 . S
C967 C968 1.389 . S
C968 C967 1.389 . S
C968 C969 1.387 . S
C969 H954 0.930 . S
C969 C964 1.390 . S
C969 C968 1.387 . S
H970 C982 0.930 . S
H971 C984 0.930 . S
H972 C985 0.930 . S
H973 C989 0.959 . S
H974 C989 0.959 . S
H975 C989 0.961 . S
H976 C990 0.960 . S
H977 C990 0.961 . S
H978 C990 0.959 . S
H979 C993 0.929 . S
H980 C994 0.931 . S
H981 C996 0.930 . S
C982 H970 0.930 . S
C982 C983 1.399 1_554 S
C982 C987 1.399 . S
C983 C982 1.399 1_556 S
C983 C984 1.376 . S
C984 H971 0.930 . S
C984 C983 1.376 . S
C984 C985 1.388 1_556 S
C985 H972 0.930 . S
C985 C984 1.388 1_554 S
C985 C986 1.390 . S
C986 C985 1.390 . S
C986 C987 1.394 . S
C986 C992 1.465 . S
C987 C982 1.399 . S
C987 C986 1.394 . S
C987 C988 1.516 . S
C988 C987 1.516 . S
C988 C989 1.502 . S
C988 C990 1.561 . S
C988 C991 1.526 . S
C989 H973 0.959 . S
C989 H974 0.959 . S
C989 H975 0.961 . S
C989 C988 1.502 . S
C990 H976 0.960 . S
C990 H977 0.961 . S
C990 H978 0.959 . S
C990 C988 1.561 . S
C991 C988 1.526 . S
C991 C992 1.396 . S
C991 C996 1.390 . S
C992 C986 1.465 . S
C992 C991 1.396 . S
C992 C993 1.399 . S
C993 H979 0.929 . S
C993 C992 1.399 . S
C993 C994 1.385 . S
C994 H980 0.931 . S
C994 C993 1.385 . S
C994 C995 1.389 . S
C995 C994 1.389 . S
C995 C996 1.387 . S
C996 H981 0.930 . S
C996 C991 1.390 . S
C996 C995 1.387 . S
H997 C1009 0.930 . S
H998 C1011 0.930 . S
H999 C1012 0.930 . S
H1000 C1016 0.959 . S
H1001 C1016 0.959 . S
H1002 C1016 0.961 . S
H1003 C1017 0.960 . S
H1004 C1017 0.961 . S
H1005 C1017 0.959 . S
H1006 C1020 0.929 . S
H1007 C1021 0.931 . S
H1008 C1023 0.930 . S
C1009 H997 0.930 . S
C1009 C1010 1.399 . S
C1009 C1014 1.399 . S
C1010 C1009 1.399 . S
C1010 C1011 1.376 . S
C1011 H998 0.930 . S
C1011 C1010 1.376 . S
C1011 C1012 1.388 . S
C1012 H999 0.930 . S
C1012 C1011 1.388 . S
C1012 C1013 1.390 . S
C1013 C1012 1.390 . S
C1013 C1014 1.394 . S
C1013 C1019 1.465 . S
C1014 C1009 1.399 . S
C1014 C1013 1.394 . S
C1014 C1015 1.516 . S
C1015 C1014 1.516 . S
C1015 C1016 1.502 . S
C1015 C1017 1.561 . S
C1015 C1018 1.526 . S
C1016 H1000 0.959 . S
C1016 H1001 0.959 . S
C1016 H1002 0.961 . S
C1016 C1015 1.502 . S
C1017 H1003 0.960 . S
C1017 H1004 0.961 . S
C1017 H1005 0.959 . S
C1017 C1015 1.561 . S
C1018 C1015 1.526 . S
C1018 C1019 1.396 . S
C1018 C1023 1.390 . S
C1019 C1013 1.465 . S
C1019 C1018 1.396 . S
C1019 C1020 1.399 . S
C1020 H1006 0.929 . S
C1020 C1019 1.399 . S
C1020 C1021 1.385 . S
C1021 H1007 0.931 . S
C1021 C1020 1.385 . S
C1021 C1022 1.389 . S
C1022 C1021 1.389 . S
C1022 C1023 1.387 . S
C1023 H1008 0.930 . S
C1023 C1018 1.390 . S
C1023 C1022 1.387 . S
H1024 C1036 0.930 . S
H1025 C1038 0.930 . S
H1026 C1039 0.930 . S
H1027 C1043 0.959 . S
H1028 C1043 0.959 . S
H1029 C1043 0.961 . S
H1030 C1044 0.960 . S
H1031 C1044 0.961 . S
H1032 C1044 0.959 . S
H1033 C1047 0.929 . S
H1034 C1048 0.931 . S
H1035 C1050 0.930 . S
C1036 H1024 0.930 . S
C1036 C1037 1.399 . S
C1036 C1041 1.399 . S
C1037 C1036 1.399 . S
C1037 C1038 1.376 . S
C1038 H1025 0.930 . S
C1038 C1037 1.376 . S
C1038 C1039 1.388 . S
C1039 H1026 0.930 . S
C1039 C1038 1.388 . S
C1039 C1040 1.390 . S
C1040 C1039 1.390 . S
C1040 C1041 1.394 . S
C1040 C1046 1.465 . S
C1041 C1036 1.399 . S
C1041 C1040 1.394 . S
C1041 C1042 1.516 . S
C1042 C1041 1.516 . S
C1042 C1043 1.502 . S
C1042 C1044 1.561 . S
C1042 C1045 1.526 . S
C1043 H1027 0.959 . S
C1043 H1028 0.959 . S
C1043 H1029 0.961 . S
C1043 C1042 1.502 . S
C1044 H1030 0.960 . S
C1044 H1031 0.961 . S
C1044 H1032 0.959 . S
C1044 C1042 1.561 . S
C1045 C1042 1.526 . S
C1045 C1046 1.396 . S
C1045 C1050 1.390 . S
C1046 C1040 1.465 . S
C1046 C1045 1.396 . S
C1046 C1047 1.399 . S
C1047 H1033 0.929 . S
C1047 C1046 1.399 . S
C1047 C1048 1.385 . S
C1048 H1034 0.931 . S
C1048 C1047 1.385 . S
C1048 C1049 1.389 . S
C1049 C1048 1.389 . S
C1049 C1050 1.387 . S
C1050 H1035 0.930 . S
C1050 C1045 1.390 . S
C1050 C1049 1.387 . S
H1051 C1063 0.930 . S
H1052 C1065 0.930 . S
H1053 C1066 0.930 . S
H1054 C1070 0.959 . S
H1055 C1070 0.959 . S
H1056 C1070 0.961 . S
H1057 C1071 0.960 . S
H1058 C1071 0.961 . S
H1059 C1071 0.959 . S
H1060 C1074 0.929 . S
H1061 C1075 0.931 . S
H1062 C1077 0.930 . S
C1063 H1051 0.930 . S
C1063 C1064 1.399 . S
C1063 C1068 1.399 . S
C1064 C1063 1.399 . S
C1064 C1065 1.376 . S
C1065 H1052 0.930 . S
C1065 C1064 1.376 . S
C1065 C1066 1.388 . S
C1066 H1053 0.930 . S
C1066 C1065 1.388 . S
C1066 C1067 1.390 . S
C1067 C1066 1.390 . S
C1067 C1068 1.394 . S
C1067 C1073 1.465 . S
C1068 C1063 1.399 . S
C1068 C1067 1.394 . S
C1068 C1069 1.516 . S
C1069 C1068 1.516 . S
C1069 C1070 1.502 . S
C1069 C1071 1.561 . S
C1069 C1072 1.526 . S
C1070 H1054 0.959 . S
C1070 H1055 0.959 . S
C1070 H1056 0.961 . S
C1070 C1069 1.502 . S
C1071 H1057 0.960 . S
C1071 H1058 0.961 . S
C1071 H1059 0.959 . S
C1071 C1069 1.561 . S
C1072 C1069 1.526 . S
C1072 C1073 1.396 . S
C1072 C1077 1.390 . S
C1073 C1067 1.465 . S
C1073 C1072 1.396 . S
C1073 C1074 1.399 . S
C1074 H1060 0.929 . S
C1074 C1073 1.399 . S
C1074 C1075 1.385 . S
C1075 H1061 0.931 . S
C1075 C1074 1.385 . S
C1075 C1076 1.389 . S
C1076 C1075 1.389 . S
C1076 C1077 1.387 . S
C1077 H1062 0.930 . S
C1077 C1072 1.390 . S
C1077 C1076 1.387 . S
H1078 C1090 0.930 . S
H1079 C1092 0.930 . S
H1080 C1093 0.930 . S
H1081 C1097 0.959 . S
H1082 C1097 0.959 . S
H1083 C1097 0.961 . S
H1084 C1098 0.960 . S
H1085 C1098 0.961 . S
H1086 C1098 0.959 . S
H1087 C1101 0.929 . S
H1088 C1102 0.931 . S
H1089 C1104 0.930 . S
C1090 H1078 0.930 . S
C1090 C1091 1.399 . S
C1090 C1095 1.399 . S
C1091 C1090 1.399 . S
C1091 C1092 1.376 . S
C1092 H1079 0.930 . S
C1092 C1091 1.376 . S
C1092 C1093 1.388 . S
C1093 H1080 0.930 . S
C1093 C1092 1.388 . S
C1093 C1094 1.390 . S
C1094 C1093 1.390 . S
C1094 C1095 1.394 . S
C1094 C1100 1.465 . S
C1095 C1090 1.399 . S
C1095 C1094 1.394 . S
C1095 C1096 1.516 . S
C1096 C1095 1.516 . S
C1096 C1097 1.502 . S
C1096 C1098 1.561 . S
C1096 C1099 1.526 . S
C1097 H1081 0.959 . S
C1097 H1082 0.959 . S
C1097 H1083 0.961 . S
C1097 C1096 1.502 . S
C1098 H1084 0.960 . S
C1098 H1085 0.961 . S
C1098 H1086 0.959 . S
C1098 C1096 1.561 . S
C1099 C1096 1.526 . S
C1099 C1100 1.396 . S
C1099 C1104 1.390 . S
C1100 C1094 1.465 . S
C1100 C1099 1.396 . S
C1100 C1101 1.399 . S
C1101 H1087 0.929 . S
C1101 C1100 1.399 . S
C1101 C1102 1.385 . S
C1102 H1088 0.931 . S
C1102 C1101 1.385 . S
C1102 C1103 1.389 . S
C1103 C1102 1.389 . S
C1103 C1104 1.387 . S
C1104 H1089 0.930 . S
C1104 C1099 1.390 . S
C1104 C1103 1.387 . S
H1105 C1117 0.930 . S
H1106 C1119 0.930 . S
H1107 C1120 0.930 . S
H1108 C1124 0.959 . S
H1109 C1124 0.959 . S
H1110 C1124 0.961 . S
H1111 C1125 0.960 . S
H1112 C1125 0.961 . S
H1113 C1125 0.959 . S
H1114 C1128 0.929 . S
H1115 C1129 0.931 . S
H1116 C1131 0.930 . S
C1117 H1105 0.930 . S
C1117 C1118 1.399 . S
C1117 C1122 1.399 . S
C1118 C1117 1.399 . S
C1118 C1119 1.376 . S
C1119 H1106 0.930 . S
C1119 C1118 1.376 . S
C1119 C1120 1.388 . S
C1120 H1107 0.930 . S
C1120 C1119 1.388 . S
C1120 C1121 1.390 . S
C1121 C1120 1.390 . S
C1121 C1122 1.394 . S
C1121 C1127 1.465 . S
C1122 C1117 1.399 . S
C1122 C1121 1.394 . S
C1122 C1123 1.516 . S
C1123 C1122 1.516 . S
C1123 C1124 1.502 . S
C1123 C1125 1.561 . S
C1123 C1126 1.526 . S
C1124 H1108 0.959 . S
C1124 H1109 0.959 . S
C1124 H1110 0.961 . S
C1124 C1123 1.502 . S
C1125 H1111 0.960 . S
C1125 H1112 0.961 . S
C1125 H1113 0.959 . S
C1125 C1123 1.561 . S
C1126 C1123 1.526 . S
C1126 C1127 1.396 . S
C1126 C1131 1.390 . S
C1127 C1121 1.465 . S
C1127 C1126 1.396 . S
C1127 C1128 1.399 . S
C1128 H1114 0.929 . S
C1128 C1127 1.399 . S
C1128 C1129 1.385 . S
C1129 H1115 0.931 . S
C1129 C1128 1.385 . S
C1129 C1130 1.389 . S
C1130 C1129 1.389 . S
C1130 C1131 1.387 . S
C1131 H1116 0.930 . S
C1131 C1126 1.390 . S
C1131 C1130 1.387 . S
H1132 C1144 0.930 . S
H1133 C1146 0.930 . S
H1134 C1147 0.930 . S
H1135 C1151 0.959 . S
H1136 C1151 0.959 . S
H1137 C1151 0.961 . S
H1138 C1152 0.960 . S
H1139 C1152 0.961 . S
H1140 C1152 0.959 . S
H1141 C1155 0.929 . S
H1142 C1156 0.931 . S
H1143 C1158 0.930 . S
C1144 H1132 0.930 . S
C1144 C1145 1.399 . S
C1144 C1149 1.399 . S
C1145 C1144 1.399 . S
C1145 C1146 1.376 . S
C1146 H1133 0.930 . S
C1146 C1145 1.376 . S
C1146 C1147 1.388 . S
C1147 H1134 0.930 . S
C1147 C1146 1.388 . S
C1147 C1148 1.390 . S
C1148 C1147 1.390 . S
C1148 C1149 1.394 . S
C1148 C1154 1.465 . S
C1149 C1144 1.399 . S
C1149 C1148 1.394 . S
C1149 C1150 1.516 . S
C1150 C1149 1.516 . S
C1150 C1151 1.502 . S
C1150 C1152 1.561 . S
C1150 C1153 1.526 . S
C1151 H1135 0.959 . S
C1151 H1136 0.959 . S
C1151 H1137 0.961 . S
C1151 C1150 1.502 . S
C1152 H1138 0.960 . S
C1152 H1139 0.961 . S
C1152 H1140 0.959 . S
C1152 C1150 1.561 . S
C1153 C1150 1.526 . S
C1153 C1154 1.396 . S
C1153 C1158 1.390 . S
C1154 C1148 1.465 . S
C1154 C1153 1.396 . S
C1154 C1155 1.399 . S
C1155 H1141 0.929 . S
C1155 C1154 1.399 . S
C1155 C1156 1.385 . S
C1156 H1142 0.931 . S
C1156 C1155 1.385 . S
C1156 C1157 1.389 . S
C1157 C1156 1.389 . S
C1157 C1158 1.387 . S
C1158 H1143 0.930 . S
C1158 C1153 1.390 . S
C1158 C1157 1.387 . S
H1159 C1171 0.930 . S
H1160 C1173 0.930 . S
H1161 C1174 0.930 . S
H1162 C1178 0.959 . S
H1163 C1178 0.959 . S
H1164 C1178 0.961 . S
H1165 C1179 0.960 . S
H1166 C1179 0.961 . S
H1167 C1179 0.959 . S
H1168 C1182 0.929 . S
H1169 C1183 0.931 . S
H1170 C1185 0.930 . S
C1171 H1159 0.930 . S
C1171 C1172 1.399 . S
C1171 C1176 1.399 . S
C1172 C1171 1.399 . S
C1172 C1173 1.376 . S
C1173 H1160 0.930 . S
C1173 C1172 1.376 . S
C1173 C1174 1.388 . S
C1174 H1161 0.930 . S
C1174 C1173 1.388 . S
C1174 C1175 1.390 . S
C1175 C1174 1.390 . S
C1175 C1176 1.394 . S
C1175 C1181 1.465 . S
C1176 C1171 1.399 . S
C1176 C1175 1.394 . S
C1176 C1177 1.516 . S
C1177 C1176 1.516 . S
C1177 C1178 1.502 . S
C1177 C1179 1.561 . S
C1177 C1180 1.526 . S
C1178 H1162 0.959 . S
C1178 H1163 0.959 . S
C1178 H1164 0.961 . S
C1178 C1177 1.502 . S
C1179 H1165 0.960 . S
C1179 H1166 0.961 . S
C1179 H1167 0.959 . S
C1179 C1177 1.561 . S
C1180 C1177 1.526 . S
C1180 C1181 1.396 . S
C1180 C1185 1.390 . S
C1181 C1175 1.465 . S
C1181 C1180 1.396 . S
C1181 C1182 1.399 . S
C1182 H1168 0.929 . S
C1182 C1181 1.399 . S
C1182 C1183 1.385 . S
C1183 H1169 0.931 . S
C1183 C1182 1.385 . S
C1183 C1184 1.389 . S
C1184 C1183 1.389 . S
C1184 C1185 1.387 . S
C1185 H1170 0.930 . S
C1185 C1180 1.390 . S
C1185 C1184 1.387 . S
H1186 C1198 0.930 . S
H1187 C1200 0.930 . S
H1188 C1201 0.930 . S
H1189 C1205 0.959 . S
H1190 C1205 0.959 . S
H1191 C1205 0.961 . S
H1192 C1206 0.960 . S
H1193 C1206 0.961 . S
H1194 C1206 0.959 . S
H1195 C1209 0.929 . S
H1196 C1210 0.931 . S
H1197 C1212 0.930 . S
C1198 H1186 0.930 . S
C1198 C1199 1.399 . S
C1198 C1203 1.399 . S
C1199 C1198 1.399 . S
C1199 C1200 1.376 . S
C1200 H1187 0.930 . S
C1200 C1199 1.376 . S
C1200 C1201 1.388 . S
C1201 H1188 0.930 . S
C1201 C1200 1.388 . S
C1201 C1202 1.390 . S
C1202 C1201 1.390 . S
C1202 C1203 1.394 . S
C1202 C1208 1.465 . S
C1203 C1198 1.399 . S
C1203 C1202 1.394 . S
C1203 C1204 1.516 . S
C1204 C1203 1.516 . S
C1204 C1205 1.502 . S
C1204 C1206 1.561 . S
C1204 C1207 1.526 . S
C1205 H1189 0.959 . S
C1205 H1190 0.959 . S
C1205 H1191 0.961 . S
C1205 C1204 1.502 . S
C1206 H1192 0.960 . S
C1206 H1193 0.961 . S
C1206 H1194 0.959 . S
C1206 C1204 1.561 . S
C1207 C1204 1.526 . S
C1207 C1208 1.396 . S
C1207 C1212 1.390 . S
C1208 C1202 1.465 . S
C1208 C1207 1.396 . S
C1208 C1209 1.399 . S
C1209 H1195 0.929 . S
C1209 C1208 1.399 . S
C1209 C1210 1.385 . S
C1210 H1196 0.931 . S
C1210 C1209 1.385 . S
C1210 C1211 1.389 . S
C1211 C1210 1.389 . S
C1211 C1212 1.387 . S
C1212 H1197 0.930 . S
C1212 C1207 1.390 . S
C1212 C1211 1.387 . S
H1213 C1225 0.930 . S
H1214 C1227 0.930 . S
H1215 C1228 0.930 . S
H1216 C1232 0.959 . S
H1217 C1232 0.959 . S
H1218 C1232 0.961 . S
H1219 C1233 0.960 . S
H1220 C1233 0.961 . S
H1221 C1233 0.959 . S
H1222 C1236 0.929 . S
H1223 C1237 0.931 . S
H1224 C1239 0.930 . S
C1225 H1213 0.930 . S
C1225 C1226 1.399 . S
C1225 C1230 1.399 . S
C1226 C1225 1.399 . S
C1226 C1227 1.376 . S
C1227 H1214 0.930 . S
C1227 C1226 1.376 . S
C1227 C1228 1.388 . S
C1228 H1215 0.930 . S
C1228 C1227 1.388 . S
C1228 C1229 1.390 . S
C1229 C1228 1.390 . S
C1229 C1230 1.394 . S
C1229 C1235 1.465 . S
C1230 C1225 1.399 . S
C1230 C1229 1.394 . S
C1230 C1231 1.516 . S
C1231 C1230 1.516 . S
C1231 C1232 1.502 . S
C1231 C1233 1.561 . S
C1231 C1234 1.526 . S
C1232 H1216 0.959 . S
C1232 H1217 0.959 . S
C1232 H1218 0.961 . S
C1232 C1231 1.502 . S
C1233 H1219 0.960 . S
C1233 H1220 0.961 . S
C1233 H1221 0.959 . S
C1233 C1231 1.561 . S
C1234 C1231 1.526 . S
C1234 C1235 1.396 . S
C1234 C1239 1.390 . S
C1235 C1229 1.465 . S
C1235 C1234 1.396 . S
C1235 C1236 1.399 . S
C1236 H1222 0.929 . S
C1236 C1235 1.399 . S
C1236 C1237 1.385 . S
C1237 H1223 0.931 . S
C1237 C1236 1.385 . S
C1237 C1238 1.389 . S
C1238 C1237 1.389 . S
C1238 C1239 1.387 . S
C1239 H1224 0.930 . S
C1239 C1234 1.390 . S
C1239 C1238 1.387 . S
C605 C221 1.451 . S
C617 C330 1.444 . S
C644 C414 1.455 . S
C632 C241 1.464 . S
C671 C407 1.463 . S
C659 C157 1.466 . S
C686 C177 1.425 . S
C698 C323 1.486 . S
C725 C487 1.449 . S
C713 C93 1.396 . S
C752 C571 1.492 . S
C740 C113 1.473 . S
C767 C29 1.387 . S
C779 C564 1.483 . S
C794 C49 1.453 . S
C806 C480 1.469 . S
C833 C314 1.350 . S
C821 C61 1.492 . S
C860 C398 1.303 . S
C848 C17 1.467 . S
C887 C409 1.429 . S
C875 C125 1.515 . S
C914 C325 1.443 . S
C902 C81 1.474 . S
C941 C493 1.304 . S
C929 C189 1.473 . S
C956 C145 1.512 . S
C968 C577 1.395 . S
C995 C566 1.381 . S
C983 C253 1.431 . S
C1010 C209 1.500 . S
C1022 C482 1.403 . S
C1049 C312 1.560 . S
C1037 C23 1.532 . S
C1076 C396 1.563 . S
C1064 C55 1.551 . S
C1091 C87 1.521 . S
C1103 C403 1.514 . S
C1130 C319 1.562 . S
C1118 C119 1.555 . S
C1157 C491 1.545 . S
C1145 C151 1.533 . S
C1172 C183 1.466 . S
C1184 C575 1.570 . S
C1199 C215 1.551 . S
C1211 C582 1.520 . S
C1226 C247 1.526 . S
C1238 C498 1.563 . S
